# Generated by pormake.
# Topology yfm, (5)-cn, num edge types: 1
# Building blocks:
#     Node 0, Type 0, BuildingBlock: XOMCOT_clean_sbu_0, # of connection points: 5
#     Node 1, Type 0, BuildingBlock: XOMCOT_clean_sbu_0, # of connection points: 5
#     Node 2, Type 0, BuildingBlock: XOMCOT_clean_sbu_0, # of connection points: 5
#     Node 3, Type 0, BuildingBlock: XOMCOT_clean_sbu_0, # of connection points: 5
#     Node 4, Type 0, BuildingBlock: XOMCOT_clean_sbu_0, # of connection points: 5
#     Node 5, Type 0, BuildingBlock: XOMCOT_clean_sbu_0, # of connection points: 5
#     Node 6, Type 0, BuildingBlock: XOMCOT_clean_sbu_0, # of connection points: 5
#     Node 7, Type 0, BuildingBlock: XOMCOT_clean_sbu_0, # of connection points: 5
#     Node 8, Type 0, BuildingBlock: XOMCOT_clean_sbu_0, # of connection points: 5
#     Node 9, Type 0, BuildingBlock: XOMCOT_clean_sbu_0, # of connection points: 5
#     Node 10, Type 0, BuildingBlock: XOMCOT_clean_sbu_0, # of connection points: 5
#     Node 11, Type 0, BuildingBlock: XOMCOT_clean_sbu_0, # of connection points: 5
#     Node 12, Type 0, BuildingBlock: XOMCOT_clean_sbu_0, # of connection points: 5
#     Node 13, Type 0, BuildingBlock: XOMCOT_clean_sbu_0, # of connection points: 5
#     Node 14, Type 0, BuildingBlock: XOMCOT_clean_sbu_0, # of connection points: 5
#     Node 15, Type 0, BuildingBlock: XOMCOT_clean_sbu_0, # of connection points: 5
#     Node 16, Type 0, BuildingBlock: XOMCOT_clean_sbu_0, # of connection points: 5
#     Node 17, Type 0, BuildingBlock: XOMCOT_clean_sbu_0, # of connection points: 5
#     Node 18, Type 0, BuildingBlock: XOMCOT_clean_sbu_0, # of connection points: 5
#     Node 19, Type 0, BuildingBlock: XOMCOT_clean_sbu_0, # of connection points: 5
#     Node 20, Type 0, BuildingBlock: XOMCOT_clean_sbu_0, # of connection points: 5
#     Node 21, Type 0, BuildingBlock: XOMCOT_clean_sbu_0, # of connection points: 5
#     Node 22, Type 0, BuildingBlock: XOMCOT_clean_sbu_0, # of connection points: 5
#     Node 23, Type 0, BuildingBlock: XOMCOT_clean_sbu_0, # of connection points: 5
#     Node 24, Type 0, BuildingBlock: XOMCOT_clean_sbu_0, # of connection points: 5
#     Node 25, Type 0, BuildingBlock: XOMCOT_clean_sbu_0, # of connection points: 5
#     Node 26, Type 0, BuildingBlock: XOMCOT_clean_sbu_0, # of connection points: 5
#     Node 27, Type 0, BuildingBlock: XOMCOT_clean_sbu_0, # of connection points: 5
#     Node 28, Type 0, BuildingBlock: XOMCOT_clean_sbu_0, # of connection points: 5
#     Node 29, Type 0, BuildingBlock: XOMCOT_clean_sbu_0, # of connection points: 5
#     Node 30, Type 0, BuildingBlock: XOMCOT_clean_sbu_0, # of connection points: 5
#     Node 31, Type 0, BuildingBlock: XOMCOT_clean_sbu_0, # of connection points: 5
#     Edge 32, Type (0, 0), BuildingBlock: XIVTED_clean_linker_0, # of connection points: 2
#     Edge 33, Type (0, 0), BuildingBlock: XIVTED_clean_linker_0, # of connection points: 2
#     Edge 34, Type (0, 0), BuildingBlock: XIVTED_clean_linker_0, # of connection points: 2
#     Edge 35, Type (0, 0), BuildingBlock: XIVTED_clean_linker_0, # of connection points: 2
#     Edge 36, Type (0, 0), BuildingBlock: XIVTED_clean_linker_0, # of connection points: 2
#     Edge 37, Type (0, 0), BuildingBlock: XIVTED_clean_linker_0, # of connection points: 2
#     Edge 38, Type (0, 0), BuildingBlock: XIVTED_clean_linker_0, # of connection points: 2
#     Edge 39, Type (0, 0), BuildingBlock: XIVTED_clean_linker_0, # of connection points: 2
#     Edge 40, Type (0, 0), BuildingBlock: XIVTED_clean_linker_0, # of connection points: 2
#     Edge 41, Type (0, 0), BuildingBlock: XIVTED_clean_linker_0, # of connection points: 2
#     Edge 42, Type (0, 0), BuildingBlock: XIVTED_clean_linker_0, # of connection points: 2
#     Edge 43, Type (0, 0), BuildingBlock: XIVTED_clean_linker_0, # of connection points: 2
#     Edge 44, Type (0, 0), BuildingBlock: XIVTED_clean_linker_0, # of connection points: 2
#     Edge 45, Type (0, 0), BuildingBlock: XIVTED_clean_linker_0, # of connection points: 2
#     Edge 46, Type (0, 0), BuildingBlock: XIVTED_clean_linker_0, # of connection points: 2
#     Edge 47, Type (0, 0), BuildingBlock: XIVTED_clean_linker_0, # of connection points: 2
#     Edge 48, Type (0, 0), BuildingBlock: XIVTED_clean_linker_0, # of connection points: 2
#     Edge 49, Type (0, 0), BuildingBlock: XIVTED_clean_linker_0, # of connection points: 2
#     Edge 50, Type (0, 0), BuildingBlock: XIVTED_clean_linker_0, # of connection points: 2
#     Edge 51, Type (0, 0), BuildingBlock: XIVTED_clean_linker_0, # of connection points: 2
#     Edge 52, Type (0, 0), BuildingBlock: XIVTED_clean_linker_0, # of connection points: 2
#     Edge 53, Type (0, 0), BuildingBlock: XIVTED_clean_linker_0, # of connection points: 2
#     Edge 54, Type (0, 0), BuildingBlock: XIVTED_clean_linker_0, # of connection points: 2
#     Edge 55, Type (0, 0), BuildingBlock: XIVTED_clean_linker_0, # of connection points: 2
#     Edge 56, Type (0, 0), BuildingBlock: XIVTED_clean_linker_0, # of connection points: 2
#     Edge 57, Type (0, 0), BuildingBlock: XIVTED_clean_linker_0, # of connection points: 2
#     Edge 58, Type (0, 0), BuildingBlock: XIVTED_clean_linker_0, # of connection points: 2
#     Edge 59, Type (0, 0), BuildingBlock: XIVTED_clean_linker_0, # of connection points: 2
#     Edge 60, Type (0, 0), BuildingBlock: XIVTED_clean_linker_0, # of connection points: 2
#     Edge 61, Type (0, 0), BuildingBlock: XIVTED_clean_linker_0, # of connection points: 2
#     Edge 62, Type (0, 0), BuildingBlock: XIVTED_clean_linker_0, # of connection points: 2
#     Edge 63, Type (0, 0), BuildingBlock: XIVTED_clean_linker_0, # of connection points: 2
#     Edge 64, Type (0, 0), BuildingBlock: XIVTED_clean_linker_0, # of connection points: 2
#     Edge 65, Type (0, 0), BuildingBlock: XIVTED_clean_linker_0, # of connection points: 2
#     Edge 66, Type (0, 0), BuildingBlock: XIVTED_clean_linker_0, # of connection points: 2
#     Edge 67, Type (0, 0), BuildingBlock: XIVTED_clean_linker_0, # of connection points: 2
#     Edge 68, Type (0, 0), BuildingBlock: XIVTED_clean_linker_0, # of connection points: 2
#     Edge 69, Type (0, 0), BuildingBlock: XIVTED_clean_linker_0, # of connection points: 2
#     Edge 70, Type (0, 0), BuildingBlock: XIVTED_clean_linker_0, # of connection points: 2
#     Edge 71, Type (0, 0), BuildingBlock: XIVTED_clean_linker_0, # of connection points: 2
#     Edge 72, Type (0, 0), BuildingBlock: XIVTED_clean_linker_0, # of connection points: 2
#     Edge 73, Type (0, 0), BuildingBlock: XIVTED_clean_linker_0, # of connection points: 2
#     Edge 74, Type (0, 0), BuildingBlock: XIVTED_clean_linker_0, # of connection points: 2
#     Edge 75, Type (0, 0), BuildingBlock: XIVTED_clean_linker_0, # of connection points: 2
#     Edge 76, Type (0, 0), BuildingBlock: XIVTED_clean_linker_0, # of connection points: 2
#     Edge 77, Type (0, 0), BuildingBlock: XIVTED_clean_linker_0, # of connection points: 2
#     Edge 78, Type (0, 0), BuildingBlock: XIVTED_clean_linker_0, # of connection points: 2
#     Edge 79, Type (0, 0), BuildingBlock: XIVTED_clean_linker_0, # of connection points: 2
#     Edge 80, Type (0, 0), BuildingBlock: XIVTED_clean_linker_0, # of connection points: 2
#     Edge 81, Type (0, 0), BuildingBlock: XIVTED_clean_linker_0, # of connection points: 2
#     Edge 82, Type (0, 0), BuildingBlock: XIVTED_clean_linker_0, # of connection points: 2
#     Edge 83, Type (0, 0), BuildingBlock: XIVTED_clean_linker_0, # of connection points: 2
#     Edge 84, Type (0, 0), BuildingBlock: XIVTED_clean_linker_0, # of connection points: 2
#     Edge 85, Type (0, 0), BuildingBlock: XIVTED_clean_linker_0, # of connection points: 2
#     Edge 86, Type (0, 0), BuildingBlock: XIVTED_clean_linker_0, # of connection points: 2
#     Edge 87, Type (0, 0), BuildingBlock: XIVTED_clean_linker_0, # of connection points: 2
#     Edge 88, Type (0, 0), BuildingBlock: XIVTED_clean_linker_0, # of connection points: 2
#     Edge 89, Type (0, 0), BuildingBlock: XIVTED_clean_linker_0, # of connection points: 2
#     Edge 90, Type (0, 0), BuildingBlock: XIVTED_clean_linker_0, # of connection points: 2
#     Edge 91, Type (0, 0), BuildingBlock: XIVTED_clean_linker_0, # of connection points: 2
#     Edge 92, Type (0, 0), BuildingBlock: XIVTED_clean_linker_0, # of connection points: 2
#     Edge 93, Type (0, 0), BuildingBlock: XIVTED_clean_linker_0, # of connection points: 2
#     Edge 94, Type (0, 0), BuildingBlock: XIVTED_clean_linker_0, # of connection points: 2
#     Edge 95, Type (0, 0), BuildingBlock: XIVTED_clean_linker_0, # of connection points: 2
#     Edge 96, Type (0, 0), BuildingBlock: XIVTED_clean_linker_0, # of connection points: 2
#     Edge 97, Type (0, 0), BuildingBlock: XIVTED_clean_linker_0, # of connection points: 2
#     Edge 98, Type (0, 0), BuildingBlock: XIVTED_clean_linker_0, # of connection points: 2
#     Edge 99, Type (0, 0), BuildingBlock: XIVTED_clean_linker_0, # of connection points: 2
#     Edge 100, Type (0, 0), BuildingBlock: XIVTED_clean_linker_0, # of connection points: 2
#     Edge 101, Type (0, 0), BuildingBlock: XIVTED_clean_linker_0, # of connection points: 2
#     Edge 102, Type (0, 0), BuildingBlock: XIVTED_clean_linker_0, # of connection points: 2
#     Edge 103, Type (0, 0), BuildingBlock: XIVTED_clean_linker_0, # of connection points: 2
#     Edge 104, Type (0, 0), BuildingBlock: XIVTED_clean_linker_0, # of connection points: 2
#     Edge 105, Type (0, 0), BuildingBlock: XIVTED_clean_linker_0, # of connection points: 2
#     Edge 106, Type (0, 0), BuildingBlock: XIVTED_clean_linker_0, # of connection points: 2
#     Edge 107, Type (0, 0), BuildingBlock: XIVTED_clean_linker_0, # of connection points: 2
#     Edge 108, Type (0, 0), BuildingBlock: XIVTED_clean_linker_0, # of connection points: 2
#     Edge 109, Type (0, 0), BuildingBlock: XIVTED_clean_linker_0, # of connection points: 2
#     Edge 110, Type (0, 0), BuildingBlock: XIVTED_clean_linker_0, # of connection points: 2
#     Edge 111, Type (0, 0), BuildingBlock: XIVTED_clean_linker_0, # of connection points: 2
# Relax obj value: 0.407
# Max RMSD: 0.220
# Mean RMSD: 0.220
data_MOF--net-yfm--node1-XOMCOT_clean_sbu_0--edge1-XIVTED_clean_linker_0
_symmetry_space_group_name_H-M    P1
_symmetry_Int_Tables_number       1
_symmetry_cell_setting            triclinic
loop_
_symmetry_equiv_pos_as_xyz
'x, y, z'
_cell_length_a     68.811164
_cell_length_b     68.862326
_cell_length_c     46.652003
_cell_angle_alpha  89.998693
_cell_angle_beta   89.950661
_cell_angle_gamma 90.027741
loop_
_atom_site_label
_atom_site_type_symbol
_atom_site_fract_x
_atom_site_fract_y
_atom_site_fract_z
_atom_type_partial_charge
Co0 Co 0.25357 0.12364 0.07067 0.0
C1 C 0.27078 0.10465 0.01894 0.0
C2 C 0.24 0.10018 0.02107 0.0
C3 C 0.24699 0.09186 0.99613 0.0
N4 N 0.25495 0.10815 0.03553 0.0
N5 N 0.26639 0.09473 0.99469 0.0
H6 H 0.28526 0.10946 0.02425 0.0
H7 H 0.22495 0.10082 0.0277 0.0
C8 C 0.21623 0.11367 0.10263 0.0
O9 O 0.2155 0.13107 0.11407 0.0
N10 N 0.25324 0.13942 0.10513 0.0
C11 C 0.25622 0.15873 0.10617 0.0
C12 C 0.25765 0.16436 0.13429 0.0
C13 C 0.25375 0.13344 0.13274 0.0
N14 N 0.25593 0.14849 0.15113 0.0
C15 C 0.25353 0.15353 0.02919 0.0
C16 C 0.22076 0.17287 0.04795 0.0
C17 C 0.23439 0.18305 0.03125 0.0
C18 C 0.25015 0.17255 0.0201 0.0
C19 C 0.22453 0.15358 0.05609 0.0
N20 N 0.24167 0.14483 0.04883 0.0
H21 H 0.26672 0.14643 0.02232 0.0
H22 H 0.21424 0.14645 0.06967 0.0
H23 H 0.25805 0.16808 0.08776 0.0
H24 H 0.25237 0.11839 0.13904 0.0
O25 O 0.28057 0.13137 0.06649 0.0
O26 O 0.26994 0.10526 0.08983 0.0
O27 O 0.22812 0.11005 0.08197 0.0
C28 C 0.2844 0.11618 0.08208 0.0
H29 H 0.23826 0.0848 0.9799 0.0
H30 H 0.2604 0.17902 0.14154 0.0
H31 H 0.20802 0.18008 0.05646 0.0
H32 H 0.2606 0.17935 1.00593 0.0
Co33 Co 0.13805 1.00472 0.32297 0.0
C34 C 0.15665 0.02173 0.27079 0.0
C35 C 0.16132 0.99102 0.27316 0.0
C36 C 0.16957 0.99796 0.2481 0.0
N37 N 0.15328 1.00596 0.28754 0.0
N38 N 0.16659 0.01733 0.24653 0.0
H39 H 0.15179 0.03619 0.27605 0.0
H40 H 0.16084 0.97602 0.27995 0.0
C41 C 0.148 0.96767 0.35536 0.0
O42 O 0.1306 0.96718 0.36689 0.0
N43 N 0.12258 1.0045 0.35778 0.0
C44 C 0.10314 1.00668 0.35953 0.0
C45 C 0.098 0.00873 0.38784 0.0
C46 C 0.12904 1.00589 0.38506 0.0
N47 N 0.1143 0.00823 0.40387 0.0
C48 C 0.10731 1.00441 0.28269 0.0
C49 C 0.08927 0.97088 0.3013 0.0
C50 C 0.07837 0.98429 0.28523 0.0
C51 C 0.08826 1.00049 0.27411 0.0
C52 C 0.10858 0.97515 0.30876 0.0
N53 N 0.11669 0.99262 0.30169 0.0
H54 H 0.11397 0.01783 0.2758 0.0
H55 H 0.11632 0.96487 0.3216 0.0
H56 H 0.09333 0.00752 0.34151 0.0
H57 H 0.14426 1.00569 0.39087 0.0
O58 O 0.13036 0.03174 0.31865 0.0
O59 O 0.15654 0.02117 0.34175 0.0
O60 O 0.1517 0.97935 0.33447 0.0
C61 C 0.14559 0.03561 0.33416 0.0
H62 H 0.17672 0.98923 0.23196 0.0
H63 H 0.08338 0.01066 0.3959 0.0
H64 H 0.08269 0.9578 0.30976 0.0
H65 H 0.08105 0.01077 0.26017 0.0
Co66 Co 0.26062 0.88928 0.57176 0.0
C67 C 0.24238 0.90878 0.52106 0.0
C68 C 0.27329 0.91253 0.52166 0.0
C69 C 0.26598 0.92104 0.49712 0.0
N70 N 0.25849 0.9049 0.53686 0.0
N71 N 0.24649 0.91867 0.49662 0.0
H72 H 0.22792 0.90426 0.52708 0.0
H73 H 0.28845 0.91149 0.52748 0.0
C74 C 0.29866 0.8988 0.60173 0.0
O75 O 0.29989 0.88121 0.61243 0.0
N76 N 0.26189 0.87345 0.60617 0.0
C77 C 0.26005 0.85399 0.60781 0.0
C78 C 0.25977 0.84862 0.6362 0.0
C79 C 0.26188 0.8797 0.63363 0.0
N80 N 0.26097 0.8648 0.6524 0.0
C81 C 0.25912 0.85901 0.53086 0.0
C82 C 0.29326 0.84061 0.54594 0.0
C83 C 0.27911 0.83 0.53086 0.0
C84 C 0.26253 0.84005 0.5215 0.0
C85 C 0.2894 0.85982 0.55437 0.0
N86 N 0.27171 0.86808 0.54904 0.0
H87 H 0.24549 0.86581 0.52532 0.0
H88 H 0.3002 0.86734 0.56658 0.0
H89 H 0.2584 0.84431 0.58975 0.0
H90 H 0.2628 0.89485 0.63968 0.0
O91 O 0.23335 0.882 0.56921 0.0
O92 O 0.2451 0.90765 0.59237 0.0
O93 O 0.28645 0.90255 0.58158 0.0
C94 C 0.23026 0.89695 0.58566 0.0
H95 H 0.27456 0.92788 0.48051 0.0
H96 H 0.25819 0.83397 0.64425 0.0
H97 H 0.3066 0.8338 0.55298 0.0
H98 H 0.25161 0.83296 0.50849 0.0
Co99 Co 0.37498 0.01047 0.82139 0.0
C100 C 0.35547 0.99194 0.77105 0.0
C101 C 0.35106 0.02273 0.77175 0.0
C102 C 0.34276 0.01527 0.74713 0.0
N103 N 0.35898 0.0081 0.7869 0.0
N104 N 0.34559 0.99586 0.74657 0.0
H105 H 0.36036 0.9776 0.77698 0.0
H106 H 0.35185 0.03791 0.77756 0.0
C107 C 0.36495 0.04823 0.8518 0.0
O108 O 0.38245 0.04946 0.8628 0.0
N109 N 0.39123 0.01194 0.85534 0.0
C110 C 0.41068 0.00971 0.85629 0.0
C111 C 0.4164 0.00839 0.88444 0.0
C112 C 0.38534 0.0113 0.88298 0.0
N113 N 0.40046 0.00936 0.90122 0.0
C114 C 0.40425 0.00974 0.77892 0.0
C115 C 0.42359 0.04306 0.79543 0.0
C116 C 0.43367 0.02913 0.77916 0.0
C117 C 0.42312 0.01307 0.76907 0.0
C118 C 0.40442 0.03933 0.8043 0.0
N119 N 0.39572 0.02197 0.79818 0.0
H120 H 0.39717 0.99633 0.773 0.0
H121 H 0.39739 0.0498 0.81772 0.0
H122 H 0.42008 0.00822 0.83786 0.0
H123 H 0.37025 0.01162 0.88948 0.0
O124 O 0.38275 0.98338 0.81849 0.0
O125 O 0.35712 0.99456 0.84238 0.0
O126 O 0.36134 0.03602 0.8316 0.0
C127 C 0.36804 0.97996 0.83533 0.0
H128 H 0.33584 0.0237 0.73045 0.0
H129 H 0.43117 1.00651 0.89187 0.0
H130 H 0.43082 0.05599 0.80316 0.0
H131 H 0.42981 1.00236 0.75523 0.0
Co132 Co 0.25586 0.88836 0.94635 0.0
C133 C 0.27357 0.90721 0.99801 0.0
C134 C 0.24291 0.91235 0.99556 0.0
C135 C 0.24998 0.92084 0.02027 0.0
N136 N 0.2577 0.90388 0.9814 0.0
N137 N 0.26933 0.91762 0.02192 0.0
H138 H 0.28796 0.90204 0.99284 0.0
H139 H 0.22788 0.91201 0.98883 0.0
C140 C 0.21852 0.89819 0.91497 0.0
O141 O 0.21719 0.88033 0.90529 0.0
N142 N 0.25483 0.87258 0.91187 0.0
C143 C 0.2557 0.85304 0.91035 0.0
C144 C 0.25702 0.84764 0.88206 0.0
C145 C 0.25607 0.87878 0.88443 0.0
N146 N 0.25728 0.86382 0.86578 0.0
C147 C 0.25576 0.85632 0.98468 0.0
C148 C 0.21874 0.84307 0.97313 0.0
C149 C 0.23199 0.83033 0.98626 0.0
C150 C 0.25036 0.83769 0.9935 0.0
C151 C 0.22474 0.86174 0.96485 0.0
N152 N 0.24359 0.86748 0.96845 0.0
H153 H 0.27039 0.86113 0.98905 0.0
H154 H 0.21435 0.87106 0.95469 0.0
H155 H 0.25596 0.84326 0.92842 0.0
H156 H 0.25653 0.89394 0.87835 0.0
O157 O 0.28289 0.88039 0.95007 0.0
O158 O 0.27234 0.90637 0.92657 0.0
O159 O 0.23066 0.90232 0.93506 0.0
C160 C 0.28674 0.89531 0.93393 0.0
H161 H 0.24133 0.92835 0.03615 0.0
H162 H 0.25785 0.83289 0.87417 0.0
H163 H 0.20406 0.83843 0.96836 0.0
H164 H 0.26111 0.82868 1.004 0.0
Co165 Co 0.37664 1.00438 0.19564 0.0
C166 C 0.35785 0.02219 0.2472 0.0
C167 C 0.3535 0.9914 0.2459 0.0
C168 C 0.34521 0.99863 0.27072 0.0
N169 N 0.36136 1.00619 0.23098 0.0
N170 N 0.34798 0.01805 0.27164 0.0
H171 H 0.36259 0.03662 0.24144 0.0
H172 H 0.35416 0.9763 0.23966 0.0
C173 C 0.36685 0.96663 0.16482 0.0
O174 O 0.38437 0.96571 0.15377 0.0
N175 N 0.39215 1.00352 0.16088 0.0
C176 C 0.41162 1.00532 0.15897 0.0
C177 C 0.41681 1.0059 0.13053 0.0
C178 C 0.38571 1.00387 0.13351 0.0
N179 N 0.40052 1.00493 0.11456 0.0
C180 C 0.40747 1.00512 0.23578 0.0
C181 C 0.4255 0.97118 0.21894 0.0
C182 C 0.43645 0.98503 0.23415 0.0
C183 C 0.42656 1.00148 0.24443 0.0
C184 C 0.40615 0.97521 0.2114 0.0
N185 N 0.39804 0.99284 0.21751 0.0
H186 H 0.40081 0.01868 0.242 0.0
H187 H 0.39836 0.96456 0.1993 0.0
H188 H 0.42143 1.00674 0.17691 0.0
H189 H 0.37051 1.00308 0.12767 0.0
O190 O 0.38418 0.03153 0.19883 0.0
O191 O 0.35813 0.02032 0.17605 0.0
O192 O 0.36308 0.97874 0.18514 0.0
C193 C 0.36899 0.03498 0.18302 0.0
H194 H 0.33821 0.99005 0.28719 0.0
H195 H 0.43143 0.0075 0.12228 0.0
H196 H 0.43207 0.9579 0.2112 0.0
H197 H 0.43379 0.01212 0.25775 0.0
Co198 Co 0.26072 0.12501 0.44618 0.0
C199 C 0.24313 0.10642 0.498 0.0
C200 C 0.27397 0.10226 0.49668 0.0
C201 C 0.26679 0.09411 0.52164 0.0
N202 N 0.25911 0.10992 0.48169 0.0
N203 N 0.24734 0.09678 0.52257 0.0
H204 H 0.22866 0.11101 0.49222 0.0
H205 H 0.28907 0.10298 0.49037 0.0
C206 C 0.29826 0.11494 0.4149 0.0
O207 O 0.29907 0.13231 0.40341 0.0
N208 N 0.26128 0.14034 0.41129 0.0
C209 C 0.25845 0.15965 0.40955 0.0
C210 C 0.25719 0.16482 0.38121 0.0
C211 C 0.26088 0.13392 0.3839 0.0
N212 N 0.25887 0.14867 0.36497 0.0
C213 C 0.26033 0.15548 0.48674 0.0
C214 C 0.29345 0.17449 0.46855 0.0
C215 C 0.27967 0.1849 0.48465 0.0
C216 C 0.26369 0.17457 0.49551 0.0
C217 C 0.28968 0.15513 0.46071 0.0
N218 N 0.27241 0.14651 0.46766 0.0
H219 H 0.24704 0.14848 0.49345 0.0
H220 H 0.30015 0.14779 0.4477 0.0
H221 H 0.25662 0.16931 0.4276 0.0
H222 H 0.26219 0.11877 0.37814 0.0
O223 O 0.23368 0.13271 0.44972 0.0
O224 O 0.2445 0.10636 0.42723 0.0
O225 O 0.28628 0.11138 0.43549 0.0
C226 C 0.22998 0.11735 0.43442 0.0
H227 H 0.27541 0.0873 0.53821 0.0
H228 H 0.25458 0.17937 0.37338 0.0
H229 H 0.30636 0.18154 0.46031 0.0
H230 H 0.2531 0.18154 0.50928 0.0
Co231 Co 0.14029 0.01114 0.6978 0.0
C232 C 0.15934 0.99252 0.74862 0.0
C233 C 0.16365 0.02334 0.74789 0.0
C234 C 0.17213 0.01591 0.77236 0.0
N235 N 0.15571 0.00868 0.73281 0.0
N236 N 0.16944 0.99647 0.77293 0.0
H237 H 0.15457 0.97815 0.74263 0.0
H238 H 0.16291 0.0385 0.74199 0.0
C239 C 0.1506 0.04891 0.66785 0.0
O240 O 0.13277 0.05076 0.65821 0.0
N241 N 0.12462 0.01287 0.6633 0.0
C242 C 0.10506 0.01244 0.66154 0.0
C243 C 0.09978 0.01256 0.63314 0.0
C244 C 0.13095 0.01257 0.63586 0.0
N245 N 0.11606 0.0127 0.61703 0.0
C246 C 0.10821 0.01061 0.7361 0.0
C247 C 0.09479 0.04766 0.72542 0.0
C248 C 0.08208 0.03418 0.73816 0.0
C249 C 0.08952 0.01579 0.74498 0.0
C250 C 0.11354 0.04188 0.71711 0.0
N251 N 0.11936 0.02304 0.72025 0.0
H252 H 0.11309 0.99597 0.7401 0.0
H253 H 0.12284 0.05244 0.70724 0.0
H254 H 0.09519 0.01164 0.67949 0.0
H255 H 0.14615 0.01263 0.62988 0.0
O256 O 0.13222 0.9841 0.70047 0.0
O257 O 0.15829 0.99501 0.67744 0.0
O258 O 0.15443 0.03645 0.68762 0.0
C259 C 0.14715 0.98052 0.68418 0.0
H260 H 0.17924 0.02438 0.78883 0.0
H261 H 0.08506 0.01209 0.625 0.0
H262 H 0.09006 0.06235 0.72097 0.0
H263 H 0.08052 1.00488 0.75517 0.0
Co264 Co 0.75902 0.88833 0.94755 0.0
C265 C 0.74229 0.90693 1.00024 0.0
C266 C 0.77247 0.9138 0.99472 0.0
C267 C 0.76577 0.92295 0.0191 0.0
N268 N 0.75774 0.90387 0.98261 0.0
N269 N 0.74677 0.91867 0.02264 0.0
H270 H 0.72797 0.90096 0.99668 0.0
H271 H 0.78718 0.91434 0.98661 0.0
C272 C 0.79658 0.89758 0.91587 0.0
O273 O 0.79761 0.87977 0.90591 0.0
N274 N 0.75947 0.87261 0.91299 0.0
C275 C 0.75734 0.85321 0.9115 0.0
C276 C 0.75639 0.84782 0.8832 0.0
C277 C 0.75918 0.87882 0.88549 0.0
N278 N 0.75768 0.8639 0.8667 0.0
C279 C 0.75876 0.85626 0.98589 0.0
C280 C 0.79544 0.84231 0.97377 0.0
C281 C 0.78209 0.8299 0.98739 0.0
C282 C 0.7639 0.83759 0.99484 0.0
C283 C 0.78971 0.86104 0.96538 0.0
N284 N 0.77102 0.86715 0.96934 0.0
H285 H 0.74427 0.86135 0.99052 0.0
H286 H 0.80022 0.87013 0.95498 0.0
H287 H 0.75597 0.84356 0.92963 0.0
H288 H 0.76022 0.89396 0.87956 0.0
O289 O 0.73192 0.88082 0.95174 0.0
O290 O 0.74275 0.90671 0.92821 0.0
O291 O 0.78443 0.9018 0.93591 0.0
C292 C 0.72821 0.89591 0.93591 0.0
H293 H 0.77438 0.93187 0.03336 0.0
H294 H 0.7544 0.83312 0.87564 0.0
H295 H 0.81001 0.8374 0.96879 0.0
H296 H 0.7531 0.82882 1.0057 0.0
Co297 Co 0.87824 1.00733 0.69806 0.0
C298 C 0.8597 0.98975 0.74991 0.0
C299 C 0.85564 0.02058 0.74861 0.0
C300 C 0.84723 0.01341 0.77338 0.0
N301 N 0.86338 1.00572 0.73373 0.0
N302 N 0.84978 0.99396 0.77427 0.0
H303 H 0.8642 0.97527 0.74406 0.0
H304 H 0.85636 0.03566 0.74226 0.0
C305 C 0.86863 0.04471 0.6669 0.0
O306 O 0.8865 0.04578 0.65714 0.0
N307 N 0.8933 0.00808 0.6629 0.0
C308 C 0.9128 1.00719 0.66034 0.0
C309 C 0.91749 1.00574 0.63178 0.0
C310 C 0.88641 1.00674 0.63586 0.0
N311 N 0.9009 1.00543 0.6164 0.0
C312 C 0.91109 1.00723 0.73493 0.0
C313 C 0.92385 0.04454 0.72433 0.0
C314 C 0.93673 0.03133 0.73724 0.0
C315 C 0.92965 0.01277 0.74387 0.0
C316 C 0.90521 0.03841 0.71601 0.0
N317 N 0.89968 0.01947 0.71919 0.0
H318 H 0.90645 0.99253 0.7391 0.0
H319 H 0.89568 0.04887 0.70643 0.0
H320 H 0.92301 1.00709 0.67789 0.0
H321 H 0.8711 1.0063 0.63065 0.0
O322 O 0.88614 0.98031 0.70156 0.0
O323 O 0.85964 0.99087 0.67935 0.0
O324 O 0.86436 0.03263 0.68702 0.0
C325 C 0.8708 0.97645 0.68632 0.0
H326 H 0.84018 0.02204 0.78974 0.0
H327 H 0.93205 1.00493 0.62308 0.0
H328 H 0.92831 0.05933 0.72 0.0
H329 H 0.93881 1.00206 0.75418 0.0
Co330 Co 0.75956 0.12621 0.44697 0.0
C331 C 0.77805 0.10666 0.49753 0.0
C332 C 0.74721 0.10238 0.49644 0.0
C333 C 0.7545 0.09374 0.52086 0.0
N334 N 0.76196 0.11041 0.48161 0.0
N335 N 0.77396 0.09641 0.52167 0.0
H336 H 0.79246 0.11148 0.49175 0.0
H337 H 0.73206 0.10321 0.49043 0.0
C338 C 0.72182 0.11613 0.41673 0.0
O339 O 0.72009 0.13403 0.40737 0.0
N340 N 0.75783 0.14226 0.41286 0.0
C341 C 0.75871 0.16181 0.41165 0.0
C342 C 0.75946 0.16744 0.38341 0.0
C343 C 0.75848 0.13628 0.38527 0.0
N344 N 0.75934 0.15139 0.36684 0.0
C345 C 0.75991 0.15749 0.4863 0.0
C346 C 0.72292 0.17133 0.47639 0.0
C347 C 0.73646 0.18372 0.48975 0.0
C348 C 0.75488 0.176 0.49593 0.0
C349 C 0.72867 0.15281 0.46691 0.0
N350 N 0.74747 0.14678 0.4699 0.0
H351 H 0.7745 0.15243 0.49025 0.0
H352 H 0.71809 0.14382 0.45647 0.0
H353 H 0.75938 0.17142 0.4299 0.0
H354 H 0.75884 0.12117 0.37892 0.0
O355 O 0.78651 0.13454 0.45 0.0
O356 O 0.7761 0.10861 0.42632 0.0
O357 O 0.73436 0.11204 0.43627 0.0
C358 C 0.79042 0.11988 0.43345 0.0
H359 H 0.74592 0.08657 0.53717 0.0
H360 H 0.76019 0.18225 0.37574 0.0
H361 H 0.70817 0.17607 0.47243 0.0
H362 H 0.766 0.18457 0.50635 0.0
Co363 Co 0.64095 0.01045 0.19478 0.0
C364 C 0.66025 0.0265 0.2471 0.0
C365 C 0.66451 0.99578 0.2439 0.0
C366 C 0.67315 1.00236 0.26887 0.0
N367 N 0.65644 0.01095 0.2301 0.0
N368 N 0.67042 0.02174 0.27097 0.0
H369 H 0.65554 0.04107 0.24236 0.0
H370 H 0.66381 0.98087 0.23681 0.0
C371 C 0.65834 0.96982 0.17791 0.0
O372 O 0.64707 0.95893 0.19397 0.0
N373 N 0.62562 0.0106 0.16004 0.0
C374 C 0.60711 0.01678 0.15809 0.0
C375 C 0.60139 0.0158 0.12997 0.0
C376 C 0.63108 1.00621 0.13302 0.0
N377 N 0.61643 0.00913 0.11418 0.0
C378 C 0.61347 1.00137 0.23822 0.0
C379 C 0.59194 0.97552 0.20586 0.0
C380 C 0.58318 0.98419 0.22985 0.0
C381 C 0.5947 0.99634 0.24703 0.0
C382 C 0.61088 0.98083 0.19788 0.0
N383 N 0.62101 0.99447 0.21314 0.0
H384 H 0.6211 0.01247 0.25009 0.0
H385 H 0.61635 0.97574 0.17751 0.0
H386 H 0.59843 0.02184 0.17593 0.0
H387 H 0.64544 1.00112 0.12732 0.0
O388 O 0.63015 0.03591 0.20355 0.0
O389 O 0.65707 0.03009 0.17846 0.0
O390 O 0.65699 0.98833 0.17855 0.0
C391 C 0.64449 0.04252 0.18807 0.0
H392 H 0.6804 0.99339 0.2846 0.0
H393 H 0.58738 0.02022 0.12174 0.0
H394 H 0.58366 0.96615 0.19178 0.0
H395 H 0.58879 1.00309 0.26611 0.0
Co396 Co 0.75774 0.1276 0.07244 0.0
C397 C 0.73909 0.10857 0.02152 0.0
C398 C 0.76996 0.10452 0.02226 0.0
C399 C 0.76265 0.09613 0.99768 0.0
N400 N 0.75521 0.11224 0.03741 0.0
N401 N 0.74319 0.09865 0.99708 0.0
H402 H 0.72466 0.1132 0.02755 0.0
H403 H 0.78513 0.10541 0.02815 0.0
C404 C 0.79594 0.1176 0.10141 0.0
O405 O 0.79785 0.13549 0.11077 0.0
N406 N 0.75968 0.1432 0.10701 0.0
C407 C 0.75893 0.16272 0.10895 0.0
C408 C 0.75935 0.1679 0.1374 0.0
C409 C 0.75996 0.13678 0.13438 0.0
N410 N 0.76004 0.15158 0.15336 0.0
C411 C 0.75693 0.16 0.03474 0.0
C412 C 0.79444 0.17276 0.04379 0.0
C413 C 0.78093 0.18571 0.03176 0.0
C414 C 0.76225 0.17862 0.02577 0.0
C415 C 0.78851 0.15409 0.0522 0.0
N416 N 0.76949 0.1486 0.04992 0.0
H417 H 0.74213 0.15538 0.03133 0.0
H418 H 0.79914 0.14455 0.06131 0.0
H419 H 0.75771 0.17262 0.09111 0.0
H420 H 0.7604 0.12157 0.14019 0.0
O421 O 0.73062 0.13558 0.07023 0.0
O422 O 0.74169 0.10957 0.09302 0.0
O423 O 0.78313 0.11355 0.08225 0.0
C424 C 0.72713 0.12073 0.08668 0.0
H425 H 0.77123 0.08924 0.98111 0.0
H426 H 0.75869 0.18257 0.14567 0.0
H427 H 0.80931 0.17722 0.04755 0.0
H428 H 0.75131 0.18782 0.01612 0.0
Co429 Co 0.63948 0.00973 0.82061 0.0
C430 C 0.65906 0.99174 0.77 0.0
C431 C 0.6631 0.02258 0.77074 0.0
C432 C 0.67163 0.0152 0.7462 0.0
N433 N 0.65527 0.00785 0.78582 0.0
N434 N 0.66904 0.99575 0.74563 0.0
H435 H 0.6544 0.97733 0.77596 0.0
H436 H 0.6622 0.03773 0.77667 0.0
C437 C 0.64861 0.04752 0.85157 0.0
O438 O 0.63093 0.04826 0.86212 0.0
N439 N 0.62348 0.01058 0.85482 0.0
C440 C 0.60413 0.00775 0.85615 0.0
C441 C 0.59873 1.00614 0.88442 0.0
C442 C 0.62965 0.01003 0.88229 0.0
N443 N 0.61478 0.00762 0.90092 0.0
C444 C 0.60946 0.00884 0.77931 0.0
C445 C 0.59096 0.04275 0.79516 0.0
C446 C 0.58045 0.02881 0.77952 0.0
C447 C 0.59056 0.01237 0.76981 0.0
C448 C 0.61012 0.03877 0.80373 0.0
N449 N 0.61842 0.02117 0.798 0.0
H450 H 0.6163 0.9953 0.77344 0.0
H451 H 0.61759 0.04945 0.81621 0.0
H452 H 0.59464 1.00601 0.83789 0.0
H453 H 0.64477 0.01127 0.88831 0.0
O454 O 0.63196 0.98261 0.81732 0.0
O455 O 0.65771 0.99377 0.84087 0.0
O456 O 0.65277 0.03543 0.83139 0.0
C457 C 0.64688 0.97914 0.83364 0.0
H458 H 0.67865 0.02369 0.72964 0.0
H459 H 0.58414 1.0033 0.892 0.0
H460 H 0.5841 0.056 0.80247 0.0
H461 H 0.58354 1.00163 0.75639 0.0
Co462 Co 0.75686 0.88825 0.57203 0.0
C463 C 0.77382 0.90678 0.51943 0.0
C464 C 0.74369 0.91385 0.5249 0.0
C465 C 0.75044 0.92281 0.50039 0.0
N466 N 0.75837 0.9039 0.53711 0.0
N467 N 0.76941 0.9184 0.49689 0.0
H468 H 0.78808 0.90067 0.52302 0.0
H469 H 0.72897 0.91445 0.53294 0.0
C470 C 0.7195 0.89813 0.60382 0.0
O471 O 0.7181 0.88036 0.61382 0.0
N472 N 0.75615 0.87237 0.60642 0.0
C473 C 0.75806 0.85293 0.60762 0.0
C474 C 0.75878 0.84731 0.63583 0.0
C475 C 0.7564 0.87837 0.63403 0.0
N476 N 0.75758 0.86328 0.65256 0.0
C477 C 0.75659 0.85647 0.53321 0.0
C478 C 0.71994 0.84264 0.54587 0.0
C479 C 0.73311 0.8302 0.53195 0.0
C480 C 0.75128 0.83784 0.52422 0.0
C481 C 0.72584 0.86131 0.55429 0.0
N482 N 0.74453 0.86735 0.55005 0.0
H483 H 0.77109 0.86149 0.52842 0.0
H484 H 0.71548 0.87039 0.56499 0.0
H485 H 0.75942 0.8434 0.58935 0.0
H486 H 0.75547 0.89347 0.64024 0.0
O487 O 0.78385 0.88035 0.56779 0.0
O488 O 0.77343 0.90629 0.59156 0.0
O489 O 0.73169 0.90209 0.58372 0.0
C490 C 0.78781 0.89531 0.58378 0.0
H491 H 0.74186 0.93164 0.48597 0.0
H492 H 0.76056 0.83254 0.64323 0.0
H493 H 0.70539 0.83777 0.55109 0.0
H494 H 0.76195 0.82906 0.51313 0.0
Co495 Co 0.87371 0.01011 0.32221 0.0
C496 C 0.85518 0.02591 0.26914 0.0
C497 C 0.85083 0.99521 0.27262 0.0
C498 C 0.84241 1.00167 0.24743 0.0
N499 N 0.85883 0.01045 0.28637 0.0
N500 N 0.8452 0.02103 0.24518 0.0
H501 H 0.85982 0.04053 0.27385 0.0
H502 H 0.8514 0.98035 0.27997 0.0
C503 C 0.85602 0.96977 0.3396 0.0
O504 O 0.86779 0.9587 0.32466 0.0
N505 N 0.88831 0.01038 0.35762 0.0
C506 C 0.90699 0.01596 0.36043 0.0
C507 C 0.91206 0.0148 0.38884 0.0
C508 C 0.88209 1.00635 0.3844 0.0
N509 N 0.89642 0.00877 0.40385 0.0
C510 C 0.90149 1.00027 0.27959 0.0
C511 C 0.9228 0.97495 0.31312 0.0
C512 C 0.93168 0.9832 0.2889 0.0
C513 C 0.92026 0.99505 0.27115 0.0
C514 C 0.90382 0.9804 0.32069 0.0
N515 N 0.89379 0.9938 0.30483 0.0
H516 H 0.89398 0.01119 0.26723 0.0
H517 H 0.89823 0.97562 0.34116 0.0
H518 H 0.91626 0.02056 0.34297 0.0
H519 H 0.86746 1.00173 0.38952 0.0
O520 O 0.88502 0.03531 0.31343 0.0
O521 O 0.85751 0.03008 0.33743 0.0
O522 O 0.85715 0.98827 0.33816 0.0
C523 C 0.87046 0.04226 0.32809 0.0
H524 H 0.83522 0.99263 0.23171 0.0
H525 H 0.92607 0.01852 0.39785 0.0
H526 H 0.93099 0.96581 0.32763 0.0
H527 H 0.92628 1.00145 0.25188 0.0
Co528 Co 0.75553 0.62633 0.57164 0.0
C529 C 0.77293 0.60715 0.52007 0.0
C530 C 0.74214 0.60276 0.52227 0.0
C531 C 0.74912 0.59413 0.49758 0.0
N532 N 0.75708 0.61085 0.53656 0.0
N533 N 0.76855 0.59688 0.49611 0.0
H534 H 0.78743 0.61195 0.52538 0.0
H535 H 0.7271 0.60345 0.5289 0.0
C536 C 0.71798 0.61703 0.60303 0.0
O537 O 0.71689 0.63494 0.61258 0.0
N538 N 0.75484 0.6421 0.60613 0.0
C539 C 0.75681 0.66153 0.60752 0.0
C540 C 0.75786 0.66699 0.63576 0.0
C541 C 0.75529 0.63597 0.63366 0.0
N542 N 0.75679 0.65094 0.65235 0.0
C543 C 0.75583 0.65854 0.53353 0.0
C544 C 0.7189 0.67205 0.54508 0.0
C545 C 0.73229 0.68472 0.53206 0.0
C546 C 0.75061 0.67725 0.52481 0.0
C547 C 0.72472 0.65331 0.55325 0.0
N548 N 0.74353 0.64744 0.54969 0.0
H549 H 0.77041 0.65363 0.52914 0.0
H550 H 0.71419 0.64402 0.56321 0.0
H551 H 0.75809 0.67116 0.58936 0.0
H552 H 0.75445 0.62082 0.63965 0.0
O553 O 0.78263 0.63397 0.5678 0.0
O554 O 0.77181 0.60805 0.59125 0.0
O555 O 0.73012 0.61271 0.583 0.0
C556 C 0.78634 0.61894 0.58376 0.0
H557 H 0.74036 0.58684 0.48162 0.0
H558 H 0.75983 0.68172 0.64321 0.0
H559 H 0.70424 0.67678 0.54982 0.0
H560 H 0.76143 0.68621 0.51437 0.0
Co561 Co 0.63815 0.50548 0.8211 0.0
C562 C 0.65431 0.52265 0.76747 0.0
C563 C 0.66817 0.49563 0.77743 0.0
C564 C 0.67671 0.50334 0.75315 0.0
N565 N 0.6541 0.50776 0.78654 0.0
N566 N 0.66806 0.52043 0.74686 0.0
H567 H 0.64465 0.53498 0.76876 0.0
H568 H 0.67235 0.48227 0.7879 0.0
C569 C 0.64695 0.46751 0.85144 0.0
O570 O 0.62887 0.46603 0.86026 0.0
N571 N 0.62209 0.5042 0.85525 0.0
C572 C 0.60263 0.50617 0.85673 0.0
C573 C 0.59722 0.50706 0.88505 0.0
C574 C 0.62825 0.50441 0.88274 0.0
N575 N 0.61333 0.5059 0.90147 0.0
C576 C 0.60569 0.50642 0.78329 0.0
C577 C 0.59315 0.46882 0.79209 0.0
C578 C 0.58011 0.48228 0.78015 0.0
C579 C 0.58709 0.501 0.77427 0.0
C580 C 0.61178 0.47483 0.80053 0.0
N581 N 0.61719 0.49387 0.79834 0.0
H582 H 0.61014 0.52128 0.78012 0.0
H583 H 0.62137 0.46423 0.80967 0.0
H584 H 0.59298 0.50761 0.83864 0.0
H585 H 0.6434 0.50347 0.88872 0.0
O586 O 0.63076 0.5327 0.81815 0.0
O587 O 0.6563 0.52126 0.84175 0.0
O588 O 0.65148 0.47988 0.83186 0.0
C589 C 0.64565 0.536 0.83458 0.0
H590 H 0.68881 0.49704 0.74163 0.0
H591 H 0.58253 0.50908 0.89274 0.0
H592 H 0.58877 0.45392 0.79578 0.0
H593 H 0.57781 0.51192 0.76475 0.0
Co594 Co 0.75602 0.38851 0.07325 0.0
C595 C 0.73773 0.40731 0.02201 0.0
C596 C 0.76855 0.41173 0.02317 0.0
C597 C 0.76127 0.42007 0.99849 0.0
N598 N 0.75379 0.4038 0.03809 0.0
N599 N 0.74183 0.4173 0.99765 0.0
H600 H 0.72332 0.40252 0.02785 0.0
H601 H 0.78368 0.41106 0.02934 0.0
C602 C 0.79367 0.39889 0.10366 0.0
O603 O 0.79537 0.38101 0.11311 0.0
N604 N 0.75749 0.37295 0.10787 0.0
C605 C 0.75723 0.3534 0.10959 0.0
C606 C 0.75758 0.34809 0.13796 0.0
C607 C 0.75723 0.37925 0.13532 0.0
N608 N 0.7577 0.36433 0.15411 0.0
C609 C 0.75637 0.35659 0.03481 0.0
C610 C 0.79355 0.34359 0.0457 0.0
C611 C 0.78036 0.33089 0.03234 0.0
C612 C 0.7619 0.33812 0.02549 0.0
C613 C 0.78743 0.36214 0.05439 0.0
N614 N 0.7685 0.36772 0.05114 0.0
H615 H 0.74171 0.36131 0.03054 0.0
H616 H 0.79784 0.37153 0.06436 0.0
H617 H 0.75656 0.34356 0.0916 0.0
H618 H 0.75731 0.39443 0.14131 0.0
O619 O 0.72923 0.37983 0.06998 0.0
O620 O 0.73912 0.40632 0.09285 0.0
O621 O 0.78106 0.40299 0.08418 0.0
C622 C 0.72499 0.39481 0.08575 0.0
H623 H 0.76985 0.42713 0.98208 0.0
H624 H 0.75747 0.33336 0.14607 0.0
H625 H 0.8083 0.33903 0.05018 0.0
H626 H 0.75121 0.32913 0.01481 0.0
Co627 Co 0.87495 0.50871 0.32159 0.0
C628 C 0.85537 0.49106 0.27045 0.0
C629 C 0.85108 0.52185 0.2725 0.0
C630 C 0.84227 0.51484 0.248 0.0
N631 N 0.85921 0.50694 0.28678 0.0
N632 N 0.84495 0.49542 0.2466 0.0
H633 H 0.86017 0.47658 0.27578 0.0
H634 H 0.85187 0.5369 0.27901 0.0
C635 C 0.86532 0.54622 0.35287 0.0
O636 O 0.88327 0.54764 0.3622 0.0
N637 N 0.89098 0.50967 0.3558 0.0
C638 C 0.91044 0.50777 0.35679 0.0
C639 C 0.91618 0.50698 0.38491 0.0
C640 C 0.8851 0.50941 0.38347 0.0
N641 N 0.90028 0.50814 0.40182 0.0
C642 C 0.90694 0.50886 0.28299 0.0
C643 C 0.92028 0.54578 0.29487 0.0
C644 C 0.93305 0.53252 0.28183 0.0
C645 C 0.92565 0.51422 0.27436 0.0
C646 C 0.90153 0.53983 0.30292 0.0
N647 N 0.89577 0.521 0.29928 0.0
H648 H 0.9021 0.49427 0.27852 0.0
H649 H 0.89215 0.55027 0.31288 0.0
H650 H 0.9199 0.50635 0.33845 0.0
H651 H 0.87001 0.51026 0.38985 0.0
O652 O 0.88297 0.48174 0.31768 0.0
O653 O 0.85706 0.49215 0.34155 0.0
O654 O 0.86102 0.53388 0.33314 0.0
C655 C 0.86814 0.4778 0.33397 0.0
H656 H 0.83492 0.52358 0.23208 0.0
H657 H 0.93099 0.50508 0.39212 0.0
H658 H 0.92494 0.56044 0.29972 0.0
H659 H 0.93469 0.50349 0.26387 0.0
Co660 Co 0.75694 0.38837 0.44877 0.0
C661 C 0.77462 0.40712 0.50041 0.0
C662 C 0.74374 0.41103 0.4993 0.0
C663 C 0.75091 0.41937 0.5241 0.0
N664 N 0.75862 0.4034 0.48429 0.0
N665 N 0.77038 0.41688 0.52488 0.0
H666 H 0.78911 0.40264 0.49455 0.0
H667 H 0.72863 0.41019 0.49308 0.0
C668 C 0.72 0.39986 0.41694 0.0
O669 O 0.71907 0.38279 0.4045 0.0
N670 N 0.75622 0.37317 0.41375 0.0
C671 C 0.75812 0.35373 0.41166 0.0
C672 C 0.75965 0.34878 0.38321 0.0
C673 C 0.75739 0.37982 0.38654 0.0
N674 N 0.75915 0.36519 0.36742 0.0
C675 C 0.7553 0.3583 0.49025 0.0
C676 C 0.72233 0.34 0.47025 0.0
C677 C 0.73483 0.32947 0.48843 0.0
C678 C 0.75073 0.33965 0.50007 0.0
C679 C 0.72705 0.35901 0.46191 0.0
N680 N 0.74425 0.36727 0.46992 0.0
H681 H 0.76858 0.36502 0.49763 0.0
H682 H 0.7174 0.36631 0.4476 0.0
H683 H 0.75902 0.34381 0.42955 0.0
H684 H 0.75728 0.39507 0.38095 0.0
O685 O 0.78369 0.37978 0.45292 0.0
O686 O 0.77394 0.40643 0.43014 0.0
O687 O 0.73195 0.40286 0.43772 0.0
C688 C 0.78803 0.39494 0.43751 0.0
H689 H 0.74228 0.42624 0.54062 0.0
H690 H 0.76111 0.3342 0.37485 0.0
H691 H 0.70954 0.33345 0.46093 0.0
H692 H 0.76029 0.3331 0.51569 0.0
Co693 Co 0.87726 0.5056 0.69696 0.0
C694 C 0.85852 0.52427 0.74791 0.0
C695 C 0.8544 0.49343 0.7477 0.0
C696 C 0.84607 0.50098 0.77225 0.0
N697 N 0.86212 0.50804 0.73226 0.0
N698 N 0.84865 0.52044 0.77248 0.0
H699 H 0.86314 0.53863 0.7416 0.0
H700 H 0.85517 0.47824 0.74197 0.0
C701 C 0.86713 0.46763 0.66752 0.0
O702 O 0.88491 0.46602 0.65753 0.0
N703 N 0.89269 0.50398 0.66218 0.0
C704 C 0.91214 0.50565 0.66025 0.0
C705 C 0.91731 0.50614 0.63184 0.0
C706 C 0.88625 0.50403 0.63481 0.0
N707 N 0.90104 0.50502 0.61572 0.0
C708 C 0.90964 0.50632 0.73472 0.0
C709 C 0.92293 0.46916 0.72453 0.0
C710 C 0.93562 0.48262 0.73728 0.0
C711 C 0.92828 0.5011 0.74377 0.0
C712 C 0.90424 0.47497 0.71607 0.0
N713 N 0.89845 0.49385 0.71903 0.0
H714 H 0.9048 0.521 0.73857 0.0
H715 H 0.89491 0.46437 0.70643 0.0
H716 H 0.92198 0.50713 0.67813 0.0
H717 H 0.87103 0.50331 0.62918 0.0
O718 O 0.88522 0.53267 0.69934 0.0
O719 O 0.85897 0.52163 0.67697 0.0
O720 O 0.86324 0.48018 0.68715 0.0
C721 C 0.87009 0.53618 0.68349 0.0
H722 H 0.83913 0.49259 0.78897 0.0
H723 H 0.93197 0.50784 0.62389 0.0
H724 H 0.9276 0.45441 0.72032 0.0
H725 H 0.93728 0.51199 0.75394 0.0
Co726 Co 0.75983 0.62628 0.94639 0.0
C727 C 0.74263 0.60747 0.99864 0.0
C728 C 0.77254 0.5997 0.99265 0.0
C729 C 0.76564 0.59048 0.01685 0.0
N730 N 0.75811 0.61025 0.98095 0.0
N731 N 0.7468 0.59532 0.02068 0.0
H732 H 0.72851 0.61398 0.99537 0.0
H733 H 0.7872 0.59879 0.98445 0.0
C734 C 0.79764 0.61734 0.91524 0.0
O735 O 0.799 0.6353 0.90594 0.0
N736 N 0.76074 0.64249 0.91235 0.0
C737 C 0.75873 0.66193 0.91129 0.0
C738 C 0.7581 0.66763 0.8831 0.0
C739 C 0.76072 0.6366 0.88471 0.0
N740 N 0.75946 0.65172 0.8663 0.0
C741 C 0.75912 0.65818 0.9851 0.0
C742 C 0.79614 0.67179 0.9743 0.0
C743 C 0.78264 0.68439 0.98716 0.0
C744 C 0.76426 0.67687 0.99405 0.0
C745 C 0.79039 0.65308 0.96587 0.0
N746 N 0.77157 0.64716 0.96908 0.0
H747 H 0.74448 0.65325 0.9891 0.0
H748 H 0.80097 0.64387 0.95587 0.0
H749 H 0.75718 0.67139 0.92959 0.0
H750 H 0.7618 0.62153 0.87838 0.0
O751 O 0.7326 0.63358 0.95005 0.0
O752 O 0.74391 0.60819 0.9259 0.0
O753 O 0.78536 0.61299 0.93504 0.0
C754 C 0.72921 0.61881 0.9334 0.0
H755 H 0.77401 0.58114 0.03081 0.0
H756 H 0.75619 0.6824 0.87574 0.0
H757 H 0.81083 0.67656 0.96982 0.0
H758 H 0.75334 0.68578 1.00433 0.0
Co759 Co 0.64162 0.50507 0.19593 0.0
C760 C 0.66001 0.49025 0.24955 0.0
C761 C 0.66536 0.52068 0.24442 0.0
C762 C 0.67371 0.51453 0.26987 0.0
N763 N 0.65678 0.5054 0.23155 0.0
N764 N 0.67025 0.49535 0.27315 0.0
H765 H 0.65488 0.47569 0.24569 0.0
H766 H 0.66528 0.53537 0.23632 0.0
C767 C 0.65871 0.54551 0.17752 0.0
O768 O 0.64725 0.55653 0.19307 0.0
N769 N 0.62661 0.50404 0.16091 0.0
C770 C 0.6082 0.49754 0.15895 0.0
C771 C 0.60267 0.49789 0.13074 0.0
C772 C 0.63218 0.50802 0.13379 0.0
N773 N 0.61769 0.50452 0.11487 0.0
C774 C 0.61376 0.51484 0.23849 0.0
C775 C 0.59217 0.53971 0.20461 0.0
C776 C 0.58338 0.53152 0.22896 0.0
C777 C 0.59492 0.51988 0.24684 0.0
C778 C 0.61121 0.53441 0.19711 0.0
N779 N 0.62138 0.52124 0.21316 0.0
H780 H 0.62141 0.5041 0.251 0.0
H781 H 0.61676 0.53911 0.17657 0.0
H782 H 0.59947 0.49269 0.17687 0.0
H783 H 0.64649 0.51327 0.12809 0.0
O784 O 0.63089 0.47974 0.20559 0.0
O785 O 0.65809 0.4852 0.18098 0.0
O786 O 0.65762 0.527 0.17896 0.0
C787 C 0.64552 0.47288 0.19097 0.0
H788 H 0.68131 0.52365 0.28507 0.0
H789 H 0.58877 0.49309 0.12254 0.0
H790 H 0.58389 0.54868 0.19 0.0
H791 H 0.58896 0.51352 0.26618 0.0
Co792 Co 0.26039 0.39128 0.44657 0.0
C793 C 0.2431 0.41014 0.49845 0.0
C794 C 0.2739 0.41451 0.49634 0.0
C795 C 0.26694 0.42285 0.52127 0.0
N796 N 0.25894 0.4066 0.48186 0.0
N797 N 0.24752 0.42007 0.5227 0.0
H798 H 0.2286 0.40539 0.4931 0.0
H799 H 0.28894 0.41385 0.4897 0.0
C800 C 0.29769 0.40129 0.41463 0.0
O801 O 0.29839 0.38384 0.40339 0.0
N802 N 0.2609 0.37577 0.41183 0.0
C803 C 0.2588 0.35634 0.41006 0.0
C804 C 0.25716 0.35119 0.38171 0.0
C805 C 0.25985 0.38221 0.38449 0.0
N806 N 0.25782 0.36747 0.36563 0.0
C807 C 0.26048 0.36087 0.48722 0.0
C808 C 0.29396 0.34247 0.46917 0.0
C809 C 0.28029 0.33179 0.48514 0.0
C810 C 0.26412 0.34182 0.49595 0.0
C811 C 0.28988 0.36177 0.46137 0.0
N812 N 0.27243 0.37005 0.46819 0.0
H813 H 0.24708 0.36765 0.49394 0.0
H814 H 0.30029 0.36934 0.4485 0.0
H815 H 0.2578 0.34655 0.4281 0.0
H816 H 0.26011 0.39742 0.37866 0.0
O817 O 0.23341 0.38339 0.45073 0.0
O818 O 0.24384 0.40957 0.42747 0.0
O819 O 0.28576 0.40505 0.43521 0.0
C820 C 0.22945 0.39849 0.43504 0.0
H821 H 0.27569 0.4299 0.53747 0.0
H822 H 0.25544 0.33656 0.37363 0.0
H823 H 0.30701 0.33566 0.46102 0.0
H824 H 0.25362 0.33465 0.50964 0.0
Co825 Co 0.3768 0.5104 0.19545 0.0
C826 C 0.35761 0.49358 0.24742 0.0
C827 C 0.35349 0.52437 0.24495 0.0
C828 C 0.34493 0.5176 0.26985 0.0
N829 N 0.36137 0.50929 0.2307 0.0
N830 N 0.34755 0.49818 0.2715 0.0
H831 H 0.36225 0.47903 0.24225 0.0
H832 H 0.35429 0.53936 0.23816 0.0
C833 C 0.3673 0.54773 0.16328 0.0
O834 O 0.38476 0.54828 0.15196 0.0
N835 N 0.39249 0.51051 0.16084 0.0
C836 C 0.4118 0.5075 0.15953 0.0
C837 C 0.41723 0.50594 0.13132 0.0
C838 C 0.38634 0.51 0.13333 0.0
N839 N 0.40125 0.50766 0.11468 0.0
C840 C 0.40757 0.51024 0.23579 0.0
C841 C 0.42578 0.54376 0.21751 0.0
C842 C 0.43665 0.53021 0.23337 0.0
C843 C 0.42669 0.51399 0.2443 0.0
C844 C 0.40643 0.53965 0.21009 0.0
N845 N 0.39822 0.5222 0.21699 0.0
H846 H 0.40084 0.49683 0.24255 0.0
H847 H 0.39872 0.55007 0.19747 0.0
H848 H 0.42128 0.50574 0.17779 0.0
H849 H 0.37124 0.51139 0.1273 0.0
O850 O 0.38412 0.48327 0.19975 0.0
O851 O 0.35825 0.49425 0.17629 0.0
O852 O 0.3635 0.53595 0.18401 0.0
C853 C 0.36896 0.47965 0.18395 0.0
H854 H 0.33783 0.52648 0.28586 0.0
H855 H 0.43185 0.50314 0.12392 0.0
H856 H 0.4324 0.55686 0.20919 0.0
H857 H 0.43388 0.50358 0.25807 0.0
Co858 Co 0.25552 0.62639 0.94524 0.0
C859 C 0.27402 0.60807 0.99664 0.0
C860 C 0.24318 0.6038 0.99615 0.0
C861 C 0.25063 0.59565 0.02086 0.0
N862 N 0.25785 0.61151 0.98078 0.0
N863 N 0.27009 0.59832 0.02127 0.0
H864 H 0.28841 0.6127 0.99043 0.0
H865 H 0.228 0.60447 0.99025 0.0
C866 C 0.21736 0.61662 0.91609 0.0
O867 O 0.21579 0.63444 0.90633 0.0
N868 N 0.25393 0.6415 0.91015 0.0
C869 C 0.25454 0.661 0.90767 0.0
C870 C 0.25426 0.66582 0.87907 0.0
C871 C 0.25393 0.63473 0.88294 0.0
N872 N 0.25383 0.6493 0.86356 0.0
C873 C 0.25678 0.65912 0.98228 0.0
C874 C 0.21942 0.67231 0.97327 0.0
C875 C 0.23304 0.68502 0.98559 0.0
C876 C 0.25164 0.67774 0.99145 0.0
C877 C 0.22514 0.65361 0.96471 0.0
N878 N 0.24408 0.64786 0.9671 0.0
H879 H 0.27151 0.65433 0.98574 0.0
H880 H 0.21441 0.64422 0.95548 0.0
H881 H 0.2555 0.67115 0.92524 0.0
H882 H 0.25363 0.61945 0.87753 0.0
O883 O 0.28274 0.634 0.94732 0.0
O884 O 0.27127 0.60775 0.92545 0.0
O885 O 0.22988 0.61263 0.93572 0.0
C886 C 0.28601 0.6187 0.9317 0.0
H887 H 0.24218 0.58876 0.03757 0.0
H888 H 0.25479 0.68038 0.87039 0.0
H889 H 0.2046 0.67694 0.96953 0.0
H890 H 0.26266 0.68678 1.00126 0.0
Co891 Co 0.13942 0.50486 0.6969 0.0
C892 C 0.15772 0.52352 0.74822 0.0
C893 C 0.16223 0.49274 0.74761 0.0
C894 C 0.17041 0.50024 0.77227 0.0
N895 N 0.15435 0.50733 0.73235 0.0
N896 N 0.16758 0.51966 0.77276 0.0
H897 H 0.15296 0.53786 0.74208 0.0
H898 H 0.16167 0.47757 0.74167 0.0
C899 C 0.14997 0.46709 0.66724 0.0
O900 O 0.13216 0.46523 0.65752 0.0
N901 N 0.12425 0.50313 0.66191 0.0
C902 C 0.10472 0.50341 0.65961 0.0
C903 C 0.09981 0.50315 0.63106 0.0
C904 C 0.13094 0.50338 0.63464 0.0
N905 N 0.11629 0.50306 0.6154 0.0
C906 C 0.10695 0.50516 0.73444 0.0
C907 C 0.09387 0.46795 0.72402 0.0
C908 C 0.08104 0.48135 0.73666 0.0
C909 C 0.08829 0.49984 0.74329 0.0
C910 C 0.1126 0.47388 0.71575 0.0
N911 N 0.11825 0.49279 0.71875 0.0
H912 H 0.1117 0.51984 0.73848 0.0
H913 H 0.12206 0.46333 0.70621 0.0
H914 H 0.09461 0.50413 0.67729 0.0
H915 H 0.14621 0.50339 0.62909 0.0
O916 O 0.13104 0.53177 0.69945 0.0
O917 O 0.1576 0.52127 0.67727 0.0
O918 O 0.1538 0.47966 0.68686 0.0
C919 C 0.14622 0.5356 0.68383 0.0
H920 H 0.17742 0.49184 0.78891 0.0
H921 H 0.08519 0.50342 0.62252 0.0
H922 H 0.08929 0.45319 0.71973 0.0
H923 H 0.0792 0.5107 0.7534 0.0
Co924 Co 0.25938 0.62404 0.56959 0.0
C925 C 0.24188 0.60474 0.51823 0.0
C926 C 0.27274 0.60083 0.51968 0.0
C927 C 0.26567 0.59233 0.49494 0.0
N928 N 0.25781 0.60856 0.53445 0.0
N929 N 0.2462 0.59482 0.49393 0.0
H930 H 0.22737 0.60931 0.52386 0.0
H931 H 0.28784 0.60174 0.52598 0.0
C932 C 0.29658 0.61373 0.60145 0.0
O933 O 0.29725 0.63104 0.61316 0.0
N934 N 0.25995 0.63972 0.60419 0.0
C935 C 0.2577 0.65915 0.60565 0.0
C936 C 0.25577 0.66448 0.63389 0.0
C937 C 0.25868 0.63346 0.63162 0.0
N938 N 0.25638 0.64832 0.65021 0.0
C939 C 0.25981 0.65382 0.52798 0.0
C940 C 0.29264 0.67302 0.54683 0.0
C941 C 0.27913 0.68324 0.53001 0.0
C942 C 0.26334 0.67279 0.51882 0.0
C943 C 0.28871 0.65377 0.55504 0.0
N944 N 0.27154 0.64509 0.54773 0.0
H945 H 0.24661 0.64676 0.52107 0.0
H946 H 0.29887 0.64663 0.56881 0.0
H947 H 0.25667 0.66879 0.58745 0.0
H948 H 0.25889 0.61829 0.63769 0.0
O949 O 0.23249 0.6321 0.56542 0.0
O950 O 0.24274 0.60591 0.58886 0.0
O951 O 0.28469 0.61019 0.58079 0.0
C952 C 0.22844 0.61707 0.58123 0.0
H953 H 0.27438 0.58538 0.47858 0.0
H954 H 0.25383 0.67914 0.64171 0.0
H955 H 0.30537 0.68019 0.55539 0.0
H956 H 0.25298 0.67961 0.50456 0.0
Co957 Co 0.13776 0.50892 0.32043 0.0
C958 C 0.15555 0.49178 0.2677 0.0
C959 C 0.16033 0.52249 0.26995 0.0
C960 C 0.16848 0.51551 0.24487 0.0
N961 N 0.15231 0.50758 0.28443 0.0
N962 N 0.16546 0.49614 0.24339 0.0
H963 H 0.15077 0.47731 0.27313 0.0
H964 H 0.16 0.53749 0.27678 0.0
C965 C 0.14791 0.54602 0.35205 0.0
O966 O 0.1303 0.54687 0.36288 0.0
N967 N 0.12294 0.50934 0.35588 0.0
C968 C 0.10344 0.5081 0.35836 0.0
C969 C 0.09871 0.5062 0.38682 0.0
C970 C 0.12979 0.5077 0.38294 0.0
N971 N 0.11526 0.50593 0.40225 0.0
C972 C 0.10505 0.50893 0.2834 0.0
C973 C 0.09116 0.54548 0.29632 0.0
C974 C 0.07867 0.53226 0.28258 0.0
C975 C 0.08631 0.51413 0.27481 0.0
C976 C 0.10997 0.5397 0.30429 0.0
N977 N 0.11609 0.52106 0.29987 0.0
H978 H 0.11012 0.4945 0.27841 0.0
H979 H 0.11913 0.55011 0.31473 0.0
H980 H 0.09326 0.50796 0.34078 0.0
H981 H 0.1451 0.50735 0.38827 0.0
O982 O 0.12989 0.48191 0.31677 0.0
O983 O 0.15664 0.49248 0.3384 0.0
O984 O 0.1517 0.53419 0.33142 0.0
C985 C 0.1455 0.47804 0.3314 0.0
H986 H 0.17567 0.5242 0.22871 0.0
H987 H 0.08415 0.50497 0.39544 0.0
H988 H 0.08626 0.55999 0.3016 0.0
H989 H 0.07748 0.50344 0.26388 0.0
Co990 Co 0.25458 0.38945 0.07092 0.0
C991 C 0.27265 0.40794 0.01932 0.0
C992 C 0.2418 0.41205 0.02011 0.0
C993 C 0.24915 0.42017 0.99524 0.0
N994 N 0.25655 0.40445 0.03537 0.0
N995 N 0.26861 0.41755 0.99465 0.0
H996 H 0.28708 0.40338 0.02536 0.0
H997 H 0.22665 0.41131 0.02615 0.0
C998 C 0.21675 0.39958 0.10123 0.0
O999 O 0.2158 0.3822 0.11268 0.0
N1000 N 0.25359 0.37421 0.10592 0.0
C1001 C 0.25513 0.35474 0.10794 0.0
C1002 C 0.25544 0.34962 0.13639 0.0
C1003 C 0.25392 0.38073 0.13326 0.0
N1004 N 0.25458 0.36595 0.15229 0.0
C1005 C 0.25528 0.35872 0.03079 0.0
C1006 C 0.22125 0.3406 0.04722 0.0
C1007 C 0.23514 0.32983 0.03185 0.0
C1008 C 0.25164 0.33973 0.02184 0.0
C1009 C 0.22533 0.35986 0.05524 0.0
N1010 N 0.243 0.368 0.04923 0.0
H1011 H 0.26886 0.36541 0.02467 0.0
H1012 H 0.21471 0.36752 0.06759 0.0
H1013 H 0.25648 0.34486 0.09007 0.0
H1014 H 0.25323 0.39593 0.13905 0.0
O1015 O 0.28163 0.38167 0.06798 0.0
O1016 O 0.27067 0.4081 0.09011 0.0
O1017 O 0.22898 0.40316 0.08099 0.0
C1018 C 0.28523 0.39706 0.08325 0.0
H1019 H 0.24063 0.42694 0.97852 0.0
H1020 H 0.25668 0.335 0.14472 0.0
H1021 H 0.20796 0.33391 0.05474 0.0
H1022 H 0.26235 0.3325 1.00859 0.0
Co1023 Co 0.37591 0.50356 0.81951 0.0
C1024 C 0.3577 0.52103 0.76736 0.0
C1025 C 0.35272 0.49036 0.76949 0.0
C1026 C 0.34447 0.49747 0.7446 0.0
N1027 N 0.36094 0.50516 0.78394 0.0
N1028 N 0.34761 0.51682 0.74318 0.0
H1029 H 0.36266 0.53544 0.77278 0.0
H1030 H 0.35303 0.47533 0.77618 0.0
C1031 C 0.36585 0.46617 0.85069 0.0
O1032 O 0.38356 0.46493 0.861 0.0
N1033 N 0.39119 0.50286 0.85445 0.0
C1034 C 0.41065 0.50465 0.85618 0.0
C1035 C 0.41589 0.50546 0.88451 0.0
C1036 C 0.38481 0.50329 0.88188 0.0
N1037 N 0.39968 0.50444 0.90078 0.0
C1038 C 0.40813 0.50377 0.78149 0.0
C1039 C 0.42232 0.46727 0.79396 0.0
C1040 C 0.43465 0.48061 0.78015 0.0
C1041 C 0.42685 0.49871 0.77256 0.0
C1042 C 0.40354 0.47292 0.8023 0.0
N1043 N 0.3973 0.49154 0.79814 0.0
H1044 H 0.40294 0.51819 0.77671 0.0
H1045 H 0.3945 0.46243 0.81282 0.0
H1046 H 0.42045 0.5059 0.83819 0.0
H1047 H 0.36962 0.50248 0.88772 0.0
O1048 O 0.38376 0.53057 0.81597 0.0
O1049 O 0.35729 0.5199 0.83831 0.0
O1050 O 0.36202 0.47824 0.83039 0.0
C1051 C 0.36833 0.53437 0.83107 0.0
H1052 H 0.33715 0.48886 0.72849 0.0
H1053 H 0.43058 0.50721 0.89235 0.0
H1054 H 0.42733 0.45277 0.79907 0.0
H1055 H 0.43554 0.5095 0.76158 0.0
H1056 H 0.15176 0.05326 0.23442 0.0
H1057 H 0.22445 0.07433 0.10293 0.0
H1058 H 0.19442 0.01176 0.20526 0.0
H1059 H 0.18526 0.11664 0.13903 0.0
H1060 H 0.21131 0.04989 0.1362 0.0
H1061 H 0.162 0.07538 0.19661 0.0
C1062 C 0.16334 0.04873 0.22026 0.0
C1063 C 0.17227 0.03048 0.22354 0.0
C1064 C 0.20543 0.06447 0.13657 0.0
C1065 C 0.18399 0.05601 0.17932 0.0
C1066 C 0.21278 0.07839 0.11733 0.0
C1067 C 0.20598 0.09764 0.11807 0.0
C1068 C 0.19109 0.06978 0.15667 0.0
C1069 C 0.19104 0.10205 0.13762 0.0
C1070 C 0.16912 0.06142 0.19839 0.0
C1071 C 0.18696 0.02553 0.20373 0.0
N1072 N 0.18423 0.08834 0.15611 0.0
N1073 N 0.19238 0.0382 0.18264 0.0
H1074 H 0.14459 0.93664 0.39141 0.0
H1075 H 0.25234 0.94622 0.45516 0.0
H1076 H 0.18746 0.97558 0.35611 0.0
H1077 H 0.2097 0.90524 0.48607 0.0
H1078 H 0.22967 0.95617 0.41762 0.0
H1079 H 0.16904 0.92374 0.42409 0.0
C1080 C 0.15927 0.94227 0.39014 0.0
C1081 C 0.16389 0.95724 0.37081 0.0
C1082 C 0.2253 0.94495 0.43257 0.0
C1083 C 0.19213 0.9427 0.409 0.0
C1084 C 0.23831 0.93917 0.45409 0.0
C1085 C 0.2331 0.92479 0.47419 0.0
C1086 C 0.2068 0.93638 0.4309 0.0
C1087 C 0.21447 0.91652 0.47157 0.0
C1088 C 0.17325 0.93494 0.40902 0.0
C1089 C 0.18321 0.96393 0.37039 0.0
N1090 N 0.20208 0.92244 0.4505 0.0
N1091 N 0.19654 0.95678 0.38939 0.0
H1092 H 0.29013 0.93805 0.60206 0.0
H1093 H 0.36042 0.95967 0.73596 0.0
H1094 H 0.32905 0.89593 0.63923 0.0
H1095 H 0.31827 1.00092 0.70457 0.0
H1096 H 0.35084 0.93726 0.69812 0.0
H1097 H 0.30254 0.96248 0.63581 0.0
C1098 C 0.30158 0.93402 0.61682 0.0
C1099 C 0.30852 0.91482 0.61769 0.0
C1100 C 0.3437 0.95123 0.69944 0.0
C1101 C 0.32257 0.94271 0.65686 0.0
C1102 C 0.34909 0.96409 0.72132 0.0
C1103 C 0.34013 0.98237 0.7239 0.0
C1104 C 0.3292 0.95653 0.67971 0.0
C1105 C 0.32576 0.98715 0.70354 0.0
C1106 C 0.30853 0.94795 0.63633 0.0
C1107 C 0.32319 0.91048 0.6377 0.0
N1108 N 0.32074 0.97434 0.68247 0.0
N1109 N 0.32959 0.9242 0.65647 0.0
H1110 H 0.36755 0.07975 0.88712 0.0
H1111 H 0.26092 0.06669 0.95387 0.0
H1112 H 0.32584 0.03892 0.85353 0.0
H1113 H 0.30223 0.10977 0.98224 0.0
H1114 H 0.28349 0.05726 0.91575 0.0
H1115 H 0.34288 0.09209 0.91996 0.0
C1116 C 0.35308 0.07358 0.88626 0.0
C1117 C 0.34885 0.05825 0.86737 0.0
C1118 C 0.28757 0.06882 0.93027 0.0
C1119 C 0.32038 0.07214 0.90574 0.0
C1120 C 0.27463 0.07429 0.95211 0.0
C1121 C 0.27955 0.08906 0.97171 0.0
C1122 C 0.30569 0.07813 0.92782 0.0
C1123 C 0.29775 0.09812 0.96821 0.0
C1124 C 0.33897 0.0806 0.90522 0.0
C1125 C 0.32978 0.05086 0.86747 0.0
N1126 N 0.31007 0.09249 0.94689 0.0
N1127 N 0.31634 0.05771 0.88655 0.0
H1128 H 0.18812 0.89431 0.87767 0.0
H1129 H 0.19709 1.00217 0.81429 0.0
H1130 H 0.22627 0.93763 0.91358 0.0
H1131 H 0.15617 0.95956 0.7832 0.0
H1132 H 0.20718 0.97941 0.85154 0.0
H1133 H 0.17531 0.91857 0.84459 0.0
C1134 C 0.19362 0.90902 0.87896 0.0
C1135 C 0.20833 0.91384 0.89863 0.0
C1136 C 0.19594 0.97507 0.83662 0.0
C1137 C 0.19384 0.94187 0.86003 0.0
C1138 C 0.19007 0.98814 0.81525 0.0
C1139 C 0.17564 0.98298 0.7952 0.0
C1140 C 0.18745 0.95654 0.83818 0.0
C1141 C 0.16745 0.96431 0.79768 0.0
C1142 C 0.18632 0.9229 0.85987 0.0
C1143 C 0.21484 0.93321 0.89903 0.0
N1144 N 0.17348 0.95185 0.81861 0.0
N1145 N 0.20771 0.94643 0.87988 0.0
H1146 H 0.26357 0.94595 0.06229 0.0
H1147 H 0.37007 0.93494 0.12995 0.0
H1148 H 0.30553 0.90335 0.0344 0.0
H1149 H 0.32758 0.97532 0.16254 0.0
H1150 H 0.3458 0.92203 0.09695 0.0
H1151 H 0.2859 0.95594 0.10023 0.0
C1152 C 0.27736 0.93855 0.0641 0.0
C1153 C 0.28248 0.9237 0.04471 0.0
C1154 C 0.34163 0.93355 0.11151 0.0
C1155 C 0.30842 0.93535 0.0885 0.0
C1156 C 0.35551 0.94089 0.13057 0.0
C1157 C 0.35095 0.95626 0.14924 0.0
C1158 C 0.32293 0.9417 0.11065 0.0
C1159 C 0.33177 0.96336 0.14881 0.0
C1160 C 0.29019 0.94435 0.08587 0.0
C1161 C 0.30084 0.91498 0.04831 0.0
N1162 N 0.31857 0.95618 0.12964 0.0
N1163 N 0.31305 0.92095 0.06959 0.0
H1164 H 0.29005 0.07556 0.41473 0.0
H1165 H 0.36224 0.05443 0.28257 0.0
H1166 H 0.32919 0.11787 0.3784 0.0
H1167 H 0.32043 0.01256 0.31335 0.0
H1168 H 0.35196 0.07675 0.32016 0.0
H1169 H 0.30315 0.0511 0.38148 0.0
C1170 C 0.3017 0.07962 0.40029 0.0
C1171 C 0.3085 0.09888 0.39949 0.0
C1172 C 0.34504 0.06265 0.31877 0.0
C1173 C 0.32333 0.07099 0.36087 0.0
C1174 C 0.35084 0.04985 0.29704 0.0
C1175 C 0.34219 0.03142 0.29432 0.0
C1176 C 0.33041 0.05718 0.33825 0.0
C1177 C 0.3277 0.02645 0.31446 0.0
C1178 C 0.30903 0.06569 0.38105 0.0
C1179 C 0.32341 0.10327 0.37986 0.0
N1180 N 0.32226 0.03921 0.33539 0.0
N1181 N 0.33019 0.08955 0.36136 0.0
H1182 H 0.18986 0.04021 0.66678 0.0
H1183 H 0.21107 0.11128 0.53353 0.0
H1184 H 0.1476 0.07925 0.63023 0.0
H1185 H 0.25277 0.06944 0.5645 0.0
H1186 H 0.18871 0.10129 0.57126 0.0
H1187 H 0.21422 0.05277 0.63294 0.0
C1188 C 0.18577 0.05169 0.65211 0.0
C1189 C 0.16656 0.05865 0.65149 0.0
C1190 C 0.20277 0.09429 0.56988 0.0
C1191 C 0.19438 0.07289 0.61223 0.0
C1192 C 0.2156 0.09992 0.54806 0.0
C1193 C 0.23398 0.09117 0.54536 0.0
C1194 C 0.20819 0.07974 0.58945 0.0
C1195 C 0.23891 0.07678 0.5656 0.0
C1196 C 0.19967 0.05873 0.63256 0.0
C1197 C 0.16215 0.07336 0.6316 0.0
N1198 N 0.22612 0.0715 0.58662 0.0
N1199 N 0.17584 0.07986 0.61279 0.0
H1200 H 0.86292 0.95708 0.78456 0.0
H1201 H 0.79004 0.93722 0.91623 0.0
H1202 H 0.82223 0.99985 0.81585 0.0
H1203 H 0.82664 0.8935 0.87788 0.0
H1204 H 0.80398 0.9614 0.88336 0.0
H1205 H 0.85168 0.93465 0.82139 0.0
C1206 C 0.85158 0.96184 0.79898 0.0
C1207 C 0.84351 0.98056 0.79662 0.0
C1208 C 0.8091 0.94655 0.88236 0.0
C1209 C 0.83064 0.95466 0.83966 0.0
C1210 C 0.80127 0.93275 0.90135 0.0
C1211 C 0.80713 0.9132 0.89994 0.0
C1212 C 0.82298 0.94084 0.86182 0.0
C1213 C 0.82158 0.90832 0.87983 0.0
C1214 C 0.84522 0.94896 0.82027 0.0
C1215 C 0.82907 0.98574 0.81669 0.0
N1216 N 0.82888 0.92195 0.8616 0.0
N1217 N 0.8231 0.9729 0.83719 0.0
H1218 H 0.81081 0.10963 0.53249 0.0
H1219 H 0.82907 0.03747 0.6655 0.0
H1220 H 0.76791 0.06874 0.56294 0.0
H1221 H 0.87296 0.07495 0.62942 0.0
H1222 H 0.80539 0.05094 0.63145 0.0
H1223 H 0.83282 0.09875 0.57018 0.0
C1224 C 0.80593 0.09833 0.5469 0.0
C1225 C 0.78728 0.09015 0.54412 0.0
C1226 C 0.82016 0.05636 0.63122 0.0
C1227 C 0.81265 0.0777 0.58809 0.0
C1228 C 0.83366 0.04881 0.65089 0.0
C1229 C 0.85312 0.05505 0.65047 0.0
C1230 C 0.8261 0.07033 0.61095 0.0
C1231 C 0.85819 0.06961 0.63063 0.0
C1232 C 0.81856 0.09218 0.56867 0.0
C1233 C 0.78195 0.07572 0.56411 0.0
N1234 N 0.84487 0.07662 0.61169 0.0
N1235 N 0.79452 0.06997 0.58507 0.0
H1236 H 0.73025 0.07685 0.41436 0.0
H1237 H 0.65609 0.0577 0.28421 0.0
H1238 H 0.69081 0.11974 0.38048 0.0
H1239 H 0.69869 0.01554 0.31133 0.0
H1240 H 0.667 0.07939 0.3221 0.0
H1241 H 0.71685 0.05296 0.38051 0.0
C1242 C 0.71851 0.08117 0.40029 0.0
C1243 C 0.71168 0.10042 0.40041 0.0
C1244 C 0.67397 0.06538 0.31985 0.0
C1245 C 0.69646 0.07316 0.36117 0.0
C1246 C 0.66781 0.05293 0.29793 0.0
C1247 C 0.67651 0.03462 0.29406 0.0
C1248 C 0.68902 0.05967 0.33839 0.0
C1249 C 0.69139 0.02937 0.31334 0.0
C1250 C 0.71099 0.06755 0.38074 0.0
C1251 C 0.69662 0.10515 0.38126 0.0
N1252 N 0.69719 0.0418 0.3345 0.0
N1253 N 0.68964 0.09172 0.36246 0.0
H1254 H 0.74991 0.95248 0.0523 0.0
H1255 H 0.65984 0.93193 0.15789 0.0
H1256 H 0.71449 0.90105 0.04514 0.0
H1257 H 0.68803 0.98756 0.14887 0.0
H1258 H 0.68126 0.91888 0.12021 0.0
H1259 H 0.72899 0.96402 0.09094 0.0
C1260 C 0.73779 0.94351 0.05893 0.0
C1261 C 0.73409 0.92568 0.04532 0.0
C1262 C 0.68277 0.93392 0.1266 0.0
C1263 C 0.70979 0.93898 0.08999 0.0
C1264 C 0.67062 0.94136 0.14827 0.0
C1265 C 0.67207 0.96092 0.15675 0.0
C1266 C 0.69664 0.94604 0.11347 0.0
C1267 C 0.68627 0.97243 0.14318 0.0
C1268 C 0.72574 0.9502 0.08099 0.0
C1269 C 0.71787 0.91493 0.05476 0.0
N1270 N 0.69793 0.96484 0.12241 0.0
N1271 N 0.7064 0.92168 0.07654 0.0
H1272 H 0.82775 0.12092 0.13615 0.0
H1273 H 0.81674 0.01481 0.2052 0.0
H1274 H 0.78686 0.07852 0.10464 0.0
H1275 H 0.85981 0.05679 0.23141 0.0
H1276 H 0.80651 0.03694 0.167 0.0
H1277 H 0.84074 0.09672 0.16913 0.0
C1278 C 0.82168 0.10641 0.13579 0.0
C1279 C 0.80615 0.10184 0.11743 0.0
C1280 C 0.81824 0.04126 0.18107 0.0
C1281 C 0.82083 0.0739 0.15595 0.0
C1282 C 0.82417 0.02856 0.20295 0.0
C1283 C 0.83916 0.03382 0.22199 0.0
C1284 C 0.82731 0.05945 0.17803 0.0
C1285 C 0.848 0.05206 0.21785 0.0
C1286 C 0.82908 0.09256 0.15483 0.0
C1287 C 0.79892 0.08272 0.11818 0.0
N1288 N 0.84192 0.06413 0.19652 0.0
N1289 N 0.80617 0.06955 0.1373 0.0
H1290 H 0.68813 0.04016 0.8529 0.0
H1291 H 0.70641 0.112 0.9863 0.0
H1292 H 0.64448 0.07816 0.88832 0.0
H1293 H 0.74923 0.07117 0.95559 0.0
H1294 H 0.68446 0.10142 0.94828 0.0
H1295 H 0.71183 0.05358 0.88697 0.0
C1296 C 0.68361 0.05162 0.86733 0.0
C1297 C 0.66421 0.058 0.86762 0.0
C1298 C 0.6987 0.09481 0.9498 0.0
C1299 C 0.69123 0.0732 0.9072 0.0
C1300 C 0.71127 0.10078 0.97175 0.0
C1301 C 0.72988 0.09254 0.97453 0.0
C1302 C 0.70462 0.08042 0.93023 0.0
C1303 C 0.73522 0.0782 0.9544 0.0
C1304 C 0.69711 0.05914 0.88704 0.0
C1305 C 0.65922 0.07271 0.88725 0.0
N1306 N 0.72271 0.07262 0.93328 0.0
N1307 N 0.67253 0.07967 0.90624 0.0
H1308 H 0.6551 0.95914 0.73552 0.0
H1309 H 0.72696 0.9376 0.6033 0.0
H1310 H 0.69662 1.00103 0.70392 0.0
H1311 H 0.68949 0.89476 0.64206 0.0
H1312 H 0.71375 0.96212 0.63626 0.0
H1313 H 0.6657 0.93647 0.69867 0.0
C1314 C 0.66651 0.96366 0.72104 0.0
C1315 C 0.675 0.98219 0.72332 0.0
C1316 C 0.70828 0.94739 0.63732 0.0
C1317 C 0.68712 0.95601 0.68022 0.0
C1318 C 0.71569 0.9334 0.61829 0.0
C1319 C 0.70937 0.914 0.61979 0.0
C1320 C 0.69436 0.94202 0.658 0.0
C1321 C 0.69489 0.90946 0.64004 0.0
C1322 C 0.67249 0.95064 0.69973 0.0
C1323 C 0.68948 0.98706 0.70315 0.0
N1324 N 0.688 0.92327 0.65831 0.0
N1325 N 0.69509 0.97409 0.6826 0.0
H1326 H 0.80178 0.9005 0.47527 0.0
H1327 H 0.82548 0.98761 0.3664 0.0
H1328 H 0.76618 0.95159 0.46565 0.0
H1329 H 0.85509 0.93249 0.36207 0.0
H1330 H 0.80456 0.97473 0.40404 0.0
H1331 H 0.82252 0.91208 0.43585 0.0
C1332 C 0.79833 0.91416 0.46502 0.0
C1333 C 0.78208 0.92501 0.47391 0.0
C1334 C 0.81553 0.96534 0.39481 0.0
C1335 C 0.80581 0.93837 0.42857 0.0
C1336 C 0.82753 0.97271 0.37319 0.0
C1337 C 0.84214 0.96115 0.3608 0.0
C1338 C 0.81812 0.94624 0.40467 0.0
C1339 C 0.84398 0.94193 0.37075 0.0
C1340 C 0.81012 0.92071 0.44235 0.0
C1341 C 0.77831 0.94255 0.45947 0.0
N1342 N 0.83224 0.93513 0.39219 0.0
N1343 N 0.79006 0.94866 0.43775 0.0
H1344 H 0.65947 0.55916 0.74309 0.0
H1345 H 0.72286 0.5771 0.60077 0.0
H1346 H 0.68889 0.51297 0.698 0.0
H1347 H 0.68987 0.6216 0.64401 0.0
H1348 H 0.70933 0.55296 0.63411 0.0
H1349 H 0.66938 0.5817 0.70555 0.0
C1350 C 0.66784 0.55361 0.72526 0.0
C1351 C 0.6733 0.53393 0.72407 0.0
C1352 C 0.7049 0.56799 0.63607 0.0
C1353 C 0.68505 0.56009 0.68066 0.0
C1354 C 0.71251 0.58178 0.61686 0.0
C1355 C 0.70757 0.60152 0.61945 0.0
C1356 C 0.69225 0.57392 0.65816 0.0
C1357 C 0.69422 0.60663 0.64107 0.0
C1358 C 0.67361 0.56661 0.70376 0.0
C1359 C 0.68448 0.52795 0.7003 0.0
N1360 N 0.6872 0.59303 0.65958 0.0
N1361 N 0.69001 0.54093 0.67972 0.0
H1362 H 0.6865 0.47463 0.85269 0.0
H1363 H 0.70498 0.40392 0.98724 0.0
H1364 H 0.64247 0.4379 0.89013 0.0
H1365 H 0.7478 0.44452 0.95569 0.0
H1366 H 0.68285 0.41446 0.94952 0.0
H1367 H 0.71017 0.46151 0.88697 0.0
C1368 C 0.68186 0.46354 0.86768 0.0
C1369 C 0.66237 0.4574 0.86838 0.0
C1370 C 0.69711 0.42104 0.9508 0.0
C1371 C 0.68943 0.4425 0.90816 0.0
C1372 C 0.70981 0.41509 0.97259 0.0
C1373 C 0.72848 0.4233 0.97509 0.0
C1374 C 0.70295 0.43535 0.93107 0.0
C1375 C 0.73375 0.43754 0.95476 0.0
C1376 C 0.69538 0.45618 0.88748 0.0
C1377 C 0.65727 0.44315 0.88869 0.0
N1378 N 0.7211 0.44309 0.93378 0.0
N1379 N 0.67062 0.43631 0.90773 0.0
H1380 H 0.81638 0.50161 0.20679 0.0
H1381 H 0.82537 0.39511 0.13847 0.0
H1382 H 0.85838 0.45892 0.23415 0.0
H1383 H 0.78518 0.43815 0.10705 0.0
H1384 H 0.8387 0.41904 0.17164 0.0
H1385 H 0.80568 0.47941 0.16911 0.0
C1386 C 0.82351 0.48767 0.20491 0.0
C1387 C 0.83841 0.48231 0.22405 0.0
C1388 C 0.82712 0.42339 0.15732 0.0
C1389 C 0.82592 0.45654 0.18058 0.0
C1390 C 0.81952 0.40971 0.13817 0.0
C1391 C 0.80408 0.41453 0.11976 0.0
C1392 C 0.81918 0.44217 0.15849 0.0
C1393 C 0.79716 0.43375 0.1206 0.0
C1394 C 0.81728 0.47493 0.1833 0.0
C1395 C 0.84673 0.46379 0.22041 0.0
N1396 N 0.80461 0.44677 0.1398 0.0
N1397 N 0.84037 0.45166 0.19927 0.0
H1398 H 0.76231 0.56877 0.45558 0.0
H1399 H 0.86947 0.57719 0.38906 0.0
H1400 H 0.80519 0.61026 0.48413 0.0
H1401 H 0.8259 0.53838 0.35542 0.0
H1402 H 0.84548 0.59043 0.42226 0.0
H1403 H 0.78463 0.55826 0.41791 0.0
C1404 C 0.77631 0.57582 0.45397 0.0
C1405 C 0.78168 0.59051 0.47346 0.0
C1406 C 0.84103 0.57917 0.40745 0.0
C1407 C 0.80761 0.57824 0.43001 0.0
C1408 C 0.85475 0.57163 0.38829 0.0
C1409 C 0.84978 0.55661 0.36923 0.0
C1410 C 0.82207 0.57158 0.40799 0.0
C1411 C 0.83042 0.55003 0.36948 0.0
C1412 C 0.78912 0.56971 0.43236 0.0
C1413 C 0.80029 0.59876 0.47013 0.0
N1414 N 0.81736 0.55741 0.38871 0.0
N1415 N 0.8125 0.5925 0.44901 0.0
H1416 H 0.65343 0.46119 0.28947 0.0
H1417 H 0.73 0.43875 0.41521 0.0
H1418 H 0.69966 0.50073 0.31194 0.0
H1419 H 0.68734 0.39805 0.38404 0.0
H1420 H 0.71676 0.46343 0.38241 0.0
H1421 H 0.66369 0.43965 0.32789 0.0
C1422 C 0.66582 0.46539 0.30231 0.0
C1423 C 0.67579 0.48285 0.29692 0.0
C1424 C 0.71013 0.44918 0.38309 0.0
C1425 C 0.68757 0.45802 0.34184 0.0
C1426 C 0.71754 0.43514 0.40208 0.0
C1427 C 0.70977 0.41625 0.40249 0.0
C1428 C 0.69477 0.44433 0.36447 0.0
C1429 C 0.69385 0.41236 0.38451 0.0
C1430 C 0.67161 0.45305 0.32453 0.0
C1431 C 0.69144 0.48752 0.31515 0.0
N1432 N 0.68701 0.42616 0.36625 0.0
N1433 N 0.6969 0.47516 0.33662 0.0
H1434 H 0.82775 0.47569 0.66694 0.0
H1435 H 0.80685 0.40289 0.53574 0.0
H1436 H 0.87038 0.43688 0.6307 0.0
H1437 H 0.76479 0.44455 0.56626 0.0
H1438 H 0.82924 0.41353 0.57298 0.0
H1439 H 0.80338 0.46237 0.63383 0.0
C1440 C 0.83192 0.4641 0.6525 0.0
C1441 C 0.85123 0.45744 0.65172 0.0
C1442 C 0.81509 0.42034 0.57161 0.0
C1443 C 0.82341 0.44232 0.61331 0.0
C1444 C 0.80225 0.41433 0.55008 0.0
C1445 C 0.78375 0.42285 0.5474 0.0
C1446 C 0.80958 0.43503 0.5909 0.0
C1447 C 0.77874 0.43738 0.56737 0.0
C1448 C 0.81802 0.45662 0.63337 0.0
C1449 C 0.85574 0.44256 0.63215 0.0
N1450 N 0.79155 0.44303 0.58811 0.0
N1451 N 0.84204 0.43563 0.61374 0.0
H1452 H 0.86162 0.5576 0.78135 0.0
H1453 H 0.79108 0.57772 0.9157 0.0
H1454 H 0.82169 0.51488 0.81497 0.0
H1455 H 0.82697 0.62149 0.87594 0.0
H1456 H 0.80441 0.55358 0.88231 0.0
H1457 H 0.85089 0.58028 0.81822 0.0
C1458 C 0.85056 0.55289 0.79629 0.0
C1459 C 0.84258 0.53409 0.79461 0.0
C1460 C 0.80952 0.56843 0.88109 0.0
C1461 C 0.83031 0.56028 0.83766 0.0
C1462 C 0.80203 0.58222 0.90037 0.0
C1463 C 0.80787 0.60177 0.89876 0.0
C1464 C 0.82302 0.57415 0.86002 0.0
C1465 C 0.82195 0.60666 0.87808 0.0
C1466 C 0.8445 0.56592 0.81759 0.0
C1467 C 0.82848 0.52902 0.81527 0.0
N1468 N 0.82893 0.59304 0.85956 0.0
N1469 N 0.82281 0.54199 0.83577 0.0
H1470 H 0.66023 0.58325 0.15679 0.0
H1471 H 0.74916 0.56121 0.04975 0.0
H1472 H 0.68814 0.52746 0.14832 0.0
H1473 H 0.71509 0.61358 0.04386 0.0
H1474 H 0.72831 0.54999 0.08862 0.0
H1475 H 0.68147 0.59595 0.11862 0.0
C1476 C 0.67091 0.57371 0.14718 0.0
C1477 C 0.67233 0.55421 0.15599 0.0
C1478 C 0.72532 0.56395 0.07891 0.0
C1479 C 0.6967 0.56868 0.1121 0.0
C1480 C 0.73736 0.57045 0.0567 0.0
C1481 C 0.73403 0.58846 0.0434 0.0
C1482 C 0.70976 0.57552 0.08836 0.0
C1483 C 0.71818 0.59956 0.05324 0.0
C1484 C 0.68295 0.58095 0.12523 0.0
C1485 C 0.6864 0.54256 0.14241 0.0
N1486 N 0.70671 0.59297 0.07517 0.0
N1487 N 0.69795 0.54995 0.12135 0.0
H1488 H 0.31941 0.50446 0.31205 0.0
H1489 H 0.3294 0.3979 0.37983 0.0
H1490 H 0.36144 0.46193 0.28418 0.0
H1491 H 0.28924 0.44059 0.41242 0.0
H1492 H 0.34251 0.42209 0.34688 0.0
H1493 H 0.30916 0.48229 0.35017 0.0
C1494 C 0.32662 0.49057 0.31391 0.0
C1495 C 0.34136 0.48521 0.29446 0.0
C1496 C 0.331 0.42632 0.36142 0.0
C1497 C 0.32945 0.45951 0.3384 0.0
C1498 C 0.32354 0.41249 0.38046 0.0
C1499 C 0.30817 0.41714 0.39911 0.0
C1500 C 0.32297 0.44507 0.36057 0.0
C1501 C 0.3012 0.43634 0.39869 0.0
C1502 C 0.32067 0.47785 0.33576 0.0
C1503 C 0.34987 0.46678 0.29811 0.0
N1504 N 0.30848 0.44952 0.37954 0.0
N1505 N 0.34378 0.45468 0.31946 0.0
H1506 H 0.3277 0.54063 0.16411 0.0
H1507 H 0.30695 0.61186 0.03088 0.0
H1508 H 0.3708 0.57796 0.12565 0.0
H1509 H 0.26456 0.57121 0.06351 0.0
H1510 H 0.32951 0.60141 0.06805 0.0
H1511 H 0.30329 0.55399 0.13109 0.0
C1512 C 0.33197 0.55193 0.14922 0.0
C1513 C 0.35142 0.55814 0.14777 0.0
C1514 C 0.31525 0.5948 0.06715 0.0
C1515 C 0.32355 0.57328 0.10944 0.0
C1516 C 0.3023 0.6007 0.04567 0.0
C1517 C 0.28364 0.59243 0.04362 0.0
C1518 C 0.30967 0.58047 0.08703 0.0
C1519 C 0.27861 0.57822 0.06411 0.0
C1520 C 0.31805 0.55942 0.13013 0.0
C1521 C 0.35605 0.57264 0.12762 0.0
N1522 N 0.29151 0.57269 0.08478 0.0
N1523 N 0.34233 0.57958 0.10926 0.0
H1524 H 0.22516 0.57721 0.91566 0.0
H1525 H 0.15378 0.55637 0.78265 0.0
H1526 H 0.18712 0.62007 0.87835 0.0
H1527 H 0.19493 0.51434 0.81467 0.0
H1528 H 0.16417 0.57893 0.8199 0.0
H1529 H 0.2121 0.55295 0.8822 0.0
C1530 C 0.21379 0.58146 0.9009 0.0
C1531 C 0.20727 0.6008 0.89996 0.0
C1532 C 0.1709 0.56474 0.81884 0.0
C1533 C 0.19245 0.57309 0.8611 0.0
C1534 C 0.16504 0.5518 0.79732 0.0
C1535 C 0.17346 0.53323 0.79509 0.0
C1536 C 0.18535 0.55926 0.83856 0.0
C1537 C 0.1878 0.5283 0.81542 0.0
C1538 C 0.20646 0.56762 0.88156 0.0
C1539 C 0.19267 0.60541 0.87995 0.0
N1540 N 0.19328 0.54119 0.83613 0.0
N1541 N 0.18589 0.59176 0.86134 0.0
H1542 H 0.14699 0.43564 0.63177 0.0
H1543 H 0.25333 0.44805 0.56353 0.0
H1544 H 0.18903 0.47655 0.66422 0.0
H1545 H 0.21141 0.40558 0.53508 0.0
H1546 H 0.23096 0.45771 0.60174 0.0
H1547 H 0.1713 0.42329 0.59834 0.0
C1548 C 0.16146 0.44184 0.63225 0.0
C1549 C 0.16588 0.45719 0.65102 0.0
C1550 C 0.22669 0.44623 0.58718 0.0
C1551 C 0.19394 0.44324 0.61198 0.0
C1552 C 0.23953 0.44062 0.56528 0.0
C1553 C 0.2344 0.42593 0.54566 0.0
C1554 C 0.20847 0.43715 0.58969 0.0
C1555 C 0.21607 0.41713 0.54916 0.0
C1556 C 0.17535 0.43481 0.61295 0.0
C1557 C 0.18494 0.4646 0.6504 0.0
N1558 N 0.20386 0.42289 0.57057 0.0
N1559 N 0.19817 0.45771 0.63103 0.0
H1560 H 0.36224 0.55291 0.73138 0.0
H1561 H 0.28867 0.57432 0.60127 0.0
H1562 H 0.31954 0.51142 0.70229 0.0
H1563 H 0.32771 0.61673 0.63745 0.0
H1564 H 0.30217 0.54978 0.63399 0.0
H1565 H 0.35168 0.57523 0.69402 0.0
C1566 C 0.3506 0.54841 0.71733 0.0
C1567 C 0.34175 0.5301 0.72047 0.0
C1568 C 0.30795 0.56441 0.63449 0.0
C1569 C 0.32966 0.55585 0.67681 0.0
C1570 C 0.30038 0.57839 0.61556 0.0
C1571 C 0.30704 0.59769 0.6165 0.0
C1572 C 0.32235 0.56971 0.65447 0.0
C1573 C 0.32205 0.6021 0.6359 0.0
C1574 C 0.34463 0.56121 0.69572 0.0
C1575 C 0.32696 0.52522 0.70084 0.0
N1576 N 0.32906 0.58833 0.6541 0.0
N1577 N 0.32136 0.53798 0.68002 0.0
H1578 H 0.25211 0.56711 0.4527 0.0
H1579 H 0.14451 0.57693 0.38838 0.0
H1580 H 0.20967 0.60859 0.48263 0.0
H1581 H 0.1873 0.53789 0.35318 0.0
H1582 H 0.16898 0.58976 0.42111 0.0
H1583 H 0.22947 0.55708 0.41507 0.0
C1584 C 0.23814 0.57424 0.4514 0.0
C1585 C 0.23295 0.58876 0.47128 0.0
C1586 C 0.17316 0.57855 0.40605 0.0
C1587 C 0.20672 0.57711 0.42793 0.0
C1588 C 0.15917 0.57125 0.38716 0.0
C1589 C 0.16377 0.55629 0.36781 0.0
C1590 C 0.19203 0.57076 0.40606 0.0
C1591 C 0.18307 0.54953 0.36747 0.0
C1592 C 0.22516 0.56843 0.42983 0.0
C1593 C 0.21441 0.59717 0.46836 0.0
N1594 N 0.19641 0.55666 0.38648 0.0
N1595 N 0.20206 0.59121 0.44727 0.0
H1596 H 0.15085 0.4601 0.23135 0.0
H1597 H 0.22493 0.43894 0.10158 0.0
H1598 H 0.19356 0.5017 0.20252 0.0
H1599 H 0.18529 0.39664 0.13671 0.0
H1600 H 0.21135 0.46341 0.13437 0.0
H1601 H 0.16147 0.43788 0.19384 0.0
C1602 C 0.16251 0.46463 0.21731 0.0
C1603 C 0.17134 0.48294 0.22058 0.0
C1604 C 0.20546 0.44882 0.13462 0.0
C1605 C 0.18352 0.45732 0.17676 0.0
C1606 C 0.21307 0.43488 0.11565 0.0
C1607 C 0.20627 0.41562 0.11628 0.0
C1608 C 0.19087 0.44353 0.15434 0.0
C1609 C 0.19107 0.41123 0.13541 0.0
C1610 C 0.16851 0.4519 0.19563 0.0
C1611 C 0.18615 0.4879 0.20097 0.0
N1612 N 0.18402 0.42496 0.15367 0.0
N1613 N 0.19179 0.47519 0.18009 0.0
H1614 H 0.30519 0.40349 0.98456 0.0
H1615 H 0.32641 0.47404 0.85068 0.0
H1616 H 0.26321 0.44461 0.95233 0.0
H1617 H 0.36908 0.43617 0.88882 0.0
H1618 H 0.30197 0.46124 0.8842 0.0
H1619 H 0.32773 0.41358 0.9471 0.0
C1620 C 0.30063 0.4147 0.9698 0.0
C1621 C 0.28211 0.42322 0.97206 0.0
C1622 C 0.31664 0.45558 0.88499 0.0
C1623 C 0.30811 0.43476 0.9283 0.0
C1624 C 0.33058 0.46275 0.86563 0.0
C1625 C 0.34992 0.4562 0.8668 0.0
C1626 C 0.32201 0.4417 0.90569 0.0
C1627 C 0.35442 0.44173 0.88704 0.0
C1628 C 0.31356 0.42039 0.94815 0.0
C1629 C 0.27717 0.43745 0.95157 0.0
N1630 N 0.34068 0.4351 0.90565 0.0
N1631 N 0.29006 0.44278 0.93072 0.0
H1632 H 0.2533 0.11664 0.33107 0.0
H1633 H 0.25139 0.17904 0.18755 0.0
H1634 H 0.26407 0.17843 0.32738 0.0
H1635 H 0.26073 0.11697 0.18633 0.0
H1636 H 0.25241 0.17842 0.23936 0.0
H1637 H 0.2528 0.11584 0.27862 0.0
C1638 C 0.25561 0.13002 0.31945 0.0
C1639 C 0.25858 0.14768 0.33401 0.0
C1640 C 0.25432 0.16492 0.22777 0.0
C1641 C 0.25772 0.14681 0.27393 0.0
C1642 C 0.25385 0.16525 0.19797 0.0
C1643 C 0.25623 0.14806 0.18212 0.0
C1644 C 0.25698 0.14726 0.24218 0.0
C1645 C 0.25876 0.13061 0.19741 0.0
C1646 C 0.25527 0.12952 0.28946 0.0
C1647 C 0.26131 0.16453 0.31748 0.0
N1648 N 0.25905 0.13065 0.22661 0.0
N1649 N 0.26073 0.16366 0.28846 0.0
H1650 H 0.08921 0.02733 0.43869 0.0
H1651 H 0.14491 0.99836 0.58313 0.0
H1652 H 0.14229 0.994 0.43926 0.0
H1653 H 0.08963 0.02784 0.58038 0.0
H1654 H 0.14569 0.9984 0.5306 0.0
H1655 H 0.09051 0.02933 0.49071 0.0
C1656 C 0.10112 0.02035 0.44976 0.0
C1657 C 0.11555 0.01031 0.43455 0.0
C1658 C 0.13342 1.00489 0.54154 0.0
C1659 C 0.11726 0.01269 0.49439 0.0
C1660 C 0.13301 1.00495 0.57151 0.0
C1661 C 0.11711 0.01299 0.58619 0.0
C1662 C 0.11786 0.01302 0.52618 0.0
C1663 C 0.10201 0.02117 0.57001 0.0
C1664 C 0.10192 0.02159 0.47953 0.0
C1665 C 0.13091 1.00197 0.4501 0.0
N1666 N 0.10276 0.02095 0.54095 0.0
N1667 N 0.13131 1.00326 0.4792 0.0
H1668 H 0.24861 0.89454 0.68631 0.0
H1669 H 0.27426 0.83733 0.83084 0.0
H1670 H 0.27399 0.83729 0.68911 0.0
H1671 H 0.24449 0.89247 0.83027 0.0
H1672 H 0.2759 0.83827 0.77878 0.0
H1673 H 0.24872 0.89533 0.73883 0.0
C1674 C 0.2543 0.8822 0.69793 0.0
C1675 C 0.26119 0.86576 0.68326 0.0
C1676 C 0.26901 0.8502 0.78997 0.0
C1677 C 0.26128 0.86654 0.74328 0.0
C1678 C 0.26797 0.84962 0.81977 0.0
C1679 C 0.25904 0.86475 0.83501 0.0
C1680 C 0.26106 0.86604 0.7751 0.0
C1681 C 0.25159 0.88054 0.81943 0.0
C1682 C 0.25427 0.88262 0.72791 0.0
C1683 C 0.26823 0.85011 0.69946 0.0
N1684 N 0.25268 0.88073 0.79029 0.0
N1685 N 0.26808 0.85089 0.72853 0.0
H1686 H 0.42654 0.99132 0.93572 0.0
H1687 H 0.37089 0.01817 0.08122 0.0
H1688 H 0.3727 0.02342 0.93728 0.0
H1689 H 0.42758 0.99157 0.07741 0.0
H1690 H 0.36987 0.01841 0.02867 0.0
H1691 H 0.42586 0.98962 0.98776 0.0
C1692 C 0.41461 0.99813 0.94698 0.0
C1693 C 0.39975 0.0077 0.93201 0.0
C1694 C 0.38251 0.01252 0.03939 0.0
C1695 C 0.39875 1.0056 0.99193 0.0
C1696 C 0.38305 0.01228 0.06936 0.0
C1697 C 0.3994 1.00494 0.08373 0.0
C1698 C 0.39838 1.00525 0.02374 0.0
C1699 C 0.41484 0.99767 0.06727 0.0
C1700 C 0.41416 0.99705 0.97678 0.0
C1701 C 0.3844 0.0158 0.94789 0.0
N1702 N 0.41395 0.99801 0.03822 0.0
N1703 N 0.38432 0.01464 0.97702 0.0
H1704 H 0.75108 0.83307 0.68903 0.0
H1705 H 0.75388 0.89597 0.83218 0.0
H1706 H 0.76318 0.89467 0.68778 0.0
H1707 H 0.76155 0.83367 0.82933 0.0
H1708 H 0.75396 0.89651 0.77978 0.0
H1709 H 0.75124 0.83384 0.74089 0.0
C1710 C 0.75395 0.84678 0.69946 0.0
C1711 C 0.75736 0.8638 0.68358 0.0
C1712 C 0.75562 0.88277 0.7908 0.0
C1713 C 0.75713 0.86478 0.74369 0.0
C1714 C 0.75562 0.8824 0.82081 0.0
C1715 C 0.7576 0.86471 0.83567 0.0
C1716 C 0.75741 0.86532 0.77548 0.0
C1717 C 0.75963 0.84766 0.81931 0.0
C1718 C 0.75393 0.8472 0.72928 0.0
C1719 C 0.7604 0.88117 0.69886 0.0
N1720 N 0.7594 0.84842 0.79026 0.0
N1721 N 0.7602 0.88122 0.72807 0.0
H1722 H 0.86534 0.01444 0.43888 0.0
H1723 H 0.92678 0.98916 0.5797 0.0
H1724 H 0.92544 0.99676 0.43847 0.0
H1725 H 0.87095 0.01763 0.58278 0.0
H1726 H 0.92456 0.98802 0.52768 0.0
H1727 H 0.8651 0.0117 0.49139 0.0
C1728 C 0.8784 0.00979 0.44983 0.0
C1729 C 0.89549 1.00599 0.43439 0.0
C1730 C 0.91275 0.99449 0.5397 0.0
C1731 C 0.89537 1.00288 0.49417 0.0
C1732 C 0.91407 0.99524 0.56947 0.0
C1733 C 0.89915 1.00373 0.58571 0.0
C1734 C 0.89639 1.00226 0.5259 0.0
C1735 C 0.88276 0.01089 0.57117 0.0
C1736 C 0.8783 0.00835 0.47974 0.0
C1737 C 0.91206 1.00016 0.44958 0.0
N1738 N 0.88186 0.0101 0.54205 0.0
N1739 N 0.91159 0.99881 0.47858 0.0
H1740 H 0.77585 0.17806 0.3317 0.0
H1741 H 0.74716 0.12208 0.18734 0.0
H1742 H 0.74577 0.12307 0.3314 0.0
H1743 H 0.7746 0.17841 0.18999 0.0
H1744 H 0.74791 0.12103 0.23983 0.0
H1745 H 0.77673 0.17742 0.27959 0.0
C1746 C 0.76934 0.16587 0.32068 0.0
C1747 C 0.76057 0.15069 0.33601 0.0
C1748 C 0.75378 0.1336 0.22887 0.0
C1749 C 0.76169 0.14973 0.27603 0.0
C1750 C 0.75344 0.13417 0.19891 0.0
C1751 C 0.76072 0.15043 0.1842 0.0
C1752 C 0.76152 0.14937 0.24421 0.0
C1753 C 0.76852 0.16574 0.20036 0.0
C1754 C 0.76994 0.16545 0.29084 0.0
C1755 C 0.75278 0.13503 0.32047 0.0
N1756 N 0.76869 0.16483 0.22941 0.0
N1757 N 0.75344 0.13499 0.29131 0.0
H1758 H 0.6468 1.00098 0.93435 0.0
H1759 H 0.58545 1.00277 0.0796 0.0
H1760 H 0.58498 0.01169 0.93881 0.0
H1761 H 0.64783 0.00946 0.07836 0.0
H1762 H 0.58546 1.0012 0.02756 0.0
H1763 H 0.64781 0.99984 0.98667 0.0
C1764 C 0.63344 1.00316 0.94612 0.0
C1765 C 0.61574 1.00649 0.93182 0.0
C1766 C 0.59917 1.00301 0.03864 0.0
C1767 C 0.61686 1.0048 0.99183 0.0
C1768 C 0.59918 1.00399 0.06842 0.0
C1769 C 0.61663 1.0066 0.08349 0.0
C1770 C 0.61676 1.00453 0.02359 0.0
C1771 C 0.63403 0.00744 0.06771 0.0
C1772 C 0.63406 1.0024 0.97606 0.0
C1773 C 0.59892 0.00883 0.94855 0.0
N1774 N 0.63365 1.00651 0.03856 0.0
N1775 N 0.59991 0.00793 0.97756 0.0
H1776 H 0.76083 0.61891 0.68687 0.0
H1777 H 0.76617 0.68184 0.82982 0.0
H1778 H 0.75366 0.68127 0.68971 0.0
H1779 H 0.75318 0.62043 0.83123 0.0
H1780 H 0.76547 0.6811 0.77789 0.0
H1781 H 0.76155 0.61847 0.73922 0.0
C1782 C 0.75937 0.63251 0.69821 0.0
C1783 C 0.75728 0.65019 0.68336 0.0
C1784 C 0.76272 0.66778 0.78957 0.0
C1785 C 0.7584 0.64969 0.7435 0.0
C1786 C 0.76301 0.66819 0.81939 0.0
C1787 C 0.75951 0.65122 0.8353 0.0
C1788 C 0.75911 0.65025 0.77524 0.0
C1789 C 0.75607 0.63389 0.8201 0.0
C1790 C 0.75982 0.6322 0.7282 0.0
C1791 C 0.75562 0.66728 0.69971 0.0
N1792 N 0.75597 0.63385 0.79091 0.0
N1793 N 0.7563 0.66658 0.72874 0.0
H1794 H 0.58369 0.49992 0.9391 0.0
H1795 H 0.64931 0.50478 0.0794 0.0
H1796 H 0.64508 0.51297 0.93526 0.0
H1797 H 0.58672 0.50921 0.07967 0.0
H1798 H 0.64883 0.50618 0.02688 0.0
H1799 H 0.58524 0.50116 0.99094 0.0
C1800 C 0.5975 0.50321 0.94898 0.0
C1801 C 0.61425 0.50646 0.93242 0.0
C1802 C 0.63524 0.50692 0.03856 0.0
C1803 C 0.61617 0.50754 0.99239 0.0
C1804 C 0.6355 0.50619 0.06854 0.0
C1805 C 0.618 0.5066 0.0841 0.0
C1806 C 0.61737 0.50793 0.0241 0.0
C1807 C 0.60054 0.50833 0.06873 0.0
C1808 C 0.59838 0.50384 0.97877 0.0
C1809 C 0.6318 0.51019 0.94691 0.0
N1810 N 0.60068 0.50879 0.03969 0.0
N1811 N 0.63231 0.51057 0.97608 0.0
H1812 H 0.7442 0.3936 0.33341 0.0
H1813 H 0.77451 0.33812 0.18943 0.0
H1814 H 0.7766 0.34 0.33094 0.0
H1815 H 0.74396 0.39281 0.1892 0.0
H1816 H 0.77591 0.33931 0.24148 0.0
H1817 H 0.74483 0.39459 0.28091 0.0
C1818 C 0.7516 0.38214 0.32188 0.0
C1819 C 0.76024 0.3666 0.33664 0.0
C1820 C 0.76891 0.3511 0.23014 0.0
C1821 C 0.76083 0.36754 0.27662 0.0
C1822 C 0.76798 0.35035 0.20036 0.0
C1823 C 0.75894 0.3653 0.18491 0.0
C1824 C 0.76067 0.36689 0.24481 0.0
C1825 C 0.75114 0.38103 0.20026 0.0
C1826 C 0.75185 0.38266 0.29191 0.0
C1827 C 0.76943 0.35205 0.32054 0.0
N1828 N 0.75209 0.38137 0.22941 0.0
N1829 N 0.76943 0.35286 0.29148 0.0
H1830 H 0.86891 0.51075 0.58198 0.0
H1831 H 0.93076 0.51376 0.43812 0.0
H1832 H 0.93066 0.49949 0.57779 0.0
H1833 H 0.86895 0.50248 0.43724 0.0
H1834 H 0.93026 0.51263 0.48995 0.0
H1835 H 0.86797 0.51133 0.52958 0.0
C1836 C 0.88226 0.50833 0.5703 0.0
C1837 C 0.89995 0.50521 0.58474 0.0
C1838 C 0.91681 0.51033 0.47841 0.0
C1839 C 0.8989 0.50621 0.52464 0.0
C1840 C 0.91706 0.51087 0.44861 0.0
C1841 C 0.89991 0.50795 0.43284 0.0
C1842 C 0.89926 0.50709 0.49291 0.0
C1843 C 0.88255 0.50488 0.44822 0.0
C1844 C 0.88167 0.50872 0.54031 0.0
C1845 C 0.91673 0.50235 0.56804 0.0
N1846 N 0.88267 0.50455 0.47742 0.0
N1847 N 0.91578 0.50303 0.53902 0.0
H1848 H 0.23968 0.33925 0.18864 0.0
H1849 H 0.27209 0.39577 0.33066 0.0
H1850 H 0.26792 0.39516 0.1864 0.0
H1851 H 0.23987 0.34199 0.3301 0.0
H1852 H 0.27031 0.39659 0.27819 0.0
H1853 H 0.23954 0.34054 0.24075 0.0
C1854 C 0.24595 0.35178 0.19915 0.0
C1855 C 0.25398 0.36704 0.18312 0.0
C1856 C 0.26359 0.38466 0.28962 0.0
C1857 C 0.25374 0.36873 0.24307 0.0
C1858 C 0.26451 0.38423 0.31957 0.0
C1859 C 0.25625 0.36869 0.33486 0.0
C1860 C 0.25434 0.36946 0.27488 0.0
C1861 C 0.24679 0.35404 0.3193 0.0
C1862 C 0.24575 0.35258 0.22896 0.0
C1863 C 0.26151 0.38313 0.19793 0.0
N1864 N 0.24615 0.35476 0.29025 0.0
N1865 N 0.26131 0.38351 0.22712 0.0
H1866 H 0.36824 0.51192 0.93513 0.0
H1867 H 0.43179 0.50958 0.07747 0.0
H1868 H 0.42911 0.49663 0.93787 0.0
H1869 H 0.36914 0.50477 0.08003 0.0
H1870 H 0.43061 0.50827 0.02577 0.0
H1871 H 0.36779 0.51231 0.98767 0.0
C1872 C 0.38148 0.50858 0.94658 0.0
C1873 C 0.39881 0.50445 0.93175 0.0
C1874 C 0.4171 0.50741 0.03764 0.0
C1875 C 0.39838 0.50515 0.99186 0.0
C1876 C 0.41773 0.50808 0.06742 0.0
C1877 C 0.40055 0.50707 0.08367 0.0
C1878 C 0.39916 0.50595 0.0236 0.0
C1879 C 0.38281 0.50565 0.06872 0.0
C1880 C 0.3812 0.50886 0.9766 0.0
C1881 C 0.41551 0.50037 0.94801 0.0
N1882 N 0.38258 0.50518 0.03953 0.0
N1883 N 0.41487 0.50094 0.97704 0.0
H1884 H 0.23734 0.67362 0.68476 0.0
H1885 H 0.26768 0.61989 0.83029 0.0
H1886 H 0.2709 0.62072 0.68607 0.0
H1887 H 0.2384 0.6752 0.82636 0.0
H1888 H 0.2671 0.61833 0.77776 0.0
H1889 H 0.23576 0.67291 0.73683 0.0
C1890 C 0.24446 0.66187 0.696 0.0
C1891 C 0.25446 0.64733 0.68096 0.0
C1892 C 0.26078 0.63078 0.78845 0.0
C1893 C 0.25256 0.6463 0.74091 0.0
C1894 C 0.26102 0.63163 0.81842 0.0
C1895 C 0.2532 0.64777 0.83275 0.0
C1896 C 0.25255 0.64614 0.77276 0.0
C1897 C 0.24491 0.66265 0.81626 0.0
C1898 C 0.24346 0.66141 0.72581 0.0
C1899 C 0.26297 0.63219 0.69676 0.0
N1900 N 0.24483 0.66147 0.78723 0.0
N1901 N 0.26193 0.63212 0.72591 0.0
H1902 H 0.09045 0.48676 0.43726 0.0
H1903 H 0.14525 0.51752 0.58173 0.0
H1904 H 0.14359 0.52001 0.43727 0.0
H1905 H 0.09057 0.48694 0.57862 0.0
H1906 H 0.14653 0.51686 0.52915 0.0
H1907 H 0.09183 0.48497 0.48927 0.0
C1908 C 0.10241 0.49375 0.44824 0.0
C1909 C 0.1168 0.50375 0.43289 0.0
C1910 C 0.13429 0.51026 0.54003 0.0
C1911 C 0.11857 0.50167 0.49275 0.0
C1912 C 0.1336 0.51056 0.57002 0.0
C1913 C 0.11769 0.5024 0.58459 0.0
C1914 C 0.11901 0.50166 0.52458 0.0
C1915 C 0.10291 0.49372 0.56833 0.0
C1916 C 0.10325 0.49264 0.478 0.0
C1917 C 0.13222 0.51211 0.44828 0.0
N1918 N 0.10393 0.49361 0.53929 0.0
N1919 N 0.13264 0.511 0.47742 0.0
H1920 H 0.35263 0.06688 0.20782 0.0
H1921 H 0.30281 0.13332 0.12658 0.0
H1922 H 0.37577 0.04497 0.12838 0.0
H1923 H 0.30904 0.08866 0.06262 0.0
H1924 H 0.33084 0.11988 0.1524 0.0
H1925 H 0.33777 0.09386 0.18161 0.0
C1926 C 0.35525 0.06832 0.18502 0.0
C1927 C 0.36531 0.05389 0.17005 0.0
C1928 C 0.32631 0.11321 0.13249 0.0
C1929 C 0.34838 0.08431 0.13987 0.0
C1930 C 0.31056 0.12104 0.11759 0.0
C1931 C 0.30386 0.11197 0.09263 0.0
C1932 C 0.33509 0.09614 0.12226 0.0
C1933 C 0.31396 0.09599 0.08184 0.0
C1934 C 0.34683 0.08372 0.16998 0.0
C1935 C 0.36804 0.05593 0.1405 0.0
N1936 N 0.32901 0.08844 0.0969 0.0
N1937 N 0.35926 0.07065 0.12625 0.0
H1938 H 0.16399 0.06599 0.3085 0.0
H1939 H 0.21284 0.13379 0.38837 0.0
H1940 H 0.137 0.04775 0.38733 0.0
H1941 H 0.2044 0.09066 0.45405 0.0
H1942 H 0.18503 0.12036 0.36198 0.0
H1943 H 0.17896 0.09325 0.33394 0.0
C1944 C 0.16056 0.06832 0.33091 0.0
C1945 C 0.14932 0.05485 0.346 0.0
C1946 C 0.18902 0.11405 0.38239 0.0
C1947 C 0.16645 0.08554 0.37535 0.0
C1948 C 0.20465 0.12186 0.39758 0.0
C1949 C 0.21066 0.1132 0.42323 0.0
C1950 C 0.17966 0.0974 0.39303 0.0
C1951 C 0.20002 0.09766 0.4343 0.0
C1952 C 0.16905 0.08388 0.34549 0.0
C1953 C 0.14561 0.05799 0.3751 0.0
N1954 N 0.18508 0.09011 0.41897 0.0
N1955 N 0.15452 0.0728 0.38903 0.0
H1956 H 0.19615 0.90754 0.56008 0.0
H1957 H 0.15817 0.94679 0.71026 0.0
H1958 H 0.22236 0.89537 0.64195 0.0
H1959 H 0.14445 0.97194 0.62819 0.0
H1960 H 0.17211 0.91849 0.68556 0.0
H1961 H 0.16792 0.92154 0.58505 0.0
C1962 C 0.1956 0.90726 0.58328 0.0
C1963 C 0.21149 0.90065 0.59918 0.0
C1964 C 0.1655 0.92994 0.673 0.0
C1965 C 0.17975 0.91654 0.62764 0.0
C1966 C 0.15751 0.94597 0.68709 0.0
C1967 C 0.15048 0.96158 0.67103 0.0
C1968 C 0.1664 0.92979 0.64285 0.0
C1969 C 0.15 0.96013 0.64113 0.0
C1970 C 0.17961 0.91526 0.59751 0.0
C1971 C 0.21036 0.90062 0.62912 0.0
N1972 N 0.15814 0.94461 0.62791 0.0
N1973 N 0.19485 0.90871 0.64245 0.0
H1974 H 0.35834 0.94542 0.81017 0.0
H1975 H 0.31929 0.90871 0.96071 0.0
H1976 H 0.37017 0.97235 0.89165 0.0
H1977 H 0.29695 0.8905 0.87879 0.0
H1978 H 0.34744 0.92316 0.9363 0.0
H1979 H 0.34539 0.91688 0.83557 0.0
C1980 C 0.35875 0.94499 0.83338 0.0
C1981 C 0.36494 0.96115 0.84903 0.0
C1982 C 0.33668 0.91548 0.92374 0.0
C1983 C 0.35022 0.92906 0.87801 0.0
C1984 C 0.32074 0.90717 0.93769 0.0
C1985 C 0.30591 0.8987 0.92153 0.0
C1986 C 0.33746 0.91538 0.89357 0.0
C1987 C 0.30815 0.89715 0.8918 0.0
C1988 C 0.35135 0.92882 0.84786 0.0
C1989 C 0.3652 0.96015 0.87898 0.0
N1990 N 0.32349 0.90572 0.87865 0.0
N1991 N 0.35767 0.94448 0.89256 0.0
H1992 H 0.637 0.96855 0.88714 0.0
H1993 H 0.71592 0.88508 0.88366 0.0
H1994 H 0.66514 0.94771 0.81061 0.0
H1995 H 0.69816 0.91592 0.95957 0.0
H1996 H 0.68856 0.89927 0.85754 0.0
H1997 H 0.65023 0.94099 0.91377 0.0
C1998 C 0.6455 0.95776 0.87582 0.0
C1999 C 0.65016 0.96024 0.84686 0.0
C2000 C 0.69026 0.90249 0.88012 0.0
C2001 C 0.66567 0.92913 0.87708 0.0
C2002 C 0.70577 0.89433 0.89502 0.0
C2003 C 0.70908 0.89946 0.92362 0.0
C2004 C 0.67829 0.91608 0.89395 0.0
C2005 C 0.69586 0.91164 0.9375 0.0
C2006 C 0.65309 0.94211 0.891 0.0
C2007 C 0.66128 0.94611 0.833 0.0
N2008 N 0.68115 0.91983 0.92235 0.0
N2009 N 0.66898 0.93124 0.8484 0.0
H2010 H 0.88261 0.96365 0.63471 0.0
H2011 H 0.79927 0.88413 0.63624 0.0
H2012 H 0.84974 0.9469 0.70933 0.0
H2013 H 0.8187 0.91452 0.5608 0.0
H2014 H 0.8268 0.89747 0.66297 0.0
H2015 H 0.86847 0.93636 0.60825 0.0
C2016 C 0.87294 0.95373 0.64575 0.0
C2017 C 0.86722 0.95732 0.67405 0.0
C2018 C 0.8254 0.90076 0.64036 0.0
C2019 C 0.85079 0.92657 0.64403 0.0
C2020 C 0.8098 0.89309 0.62512 0.0
C2021 C 0.80692 0.89835 0.59647 0.0
C2022 C 0.83795 0.91395 0.62682 0.0
C2023 C 0.82065 0.91014 0.5829 0.0
C2024 C 0.86482 0.93827 0.63066 0.0
C2025 C 0.8545 0.9444 0.6875 0.0
N2026 N 0.8355 0.91785 0.59837 0.0
N2027 N 0.84644 0.92967 0.6722 0.0
H2028 H 0.85127 0.07194 0.30241 0.0
H2029 H 0.8238 0.10449 0.45542 0.0
H2030 H 0.88539 0.05707 0.37651 0.0
H2031 H 0.79913 0.12962 0.37918 0.0
H2032 H 0.85175 0.09343 0.42706 0.0
H2033 H 0.83805 0.09978 0.32836 0.0
C2034 C 0.85666 0.07516 0.32371 0.0
C2035 C 0.86938 0.06242 0.33746 0.0
C2036 C 0.84053 0.10188 0.41664 0.0
C2037 C 0.85355 0.0933 0.36793 0.0
C2038 C 0.82465 0.10817 0.43287 0.0
C2039 C 0.80924 0.11767 0.41934 0.0
C2040 C 0.84059 0.10483 0.38674 0.0
C2041 C 0.81073 0.12207 0.39015 0.0
C2042 C 0.84898 0.09091 0.33872 0.0
C2043 C 0.87564 0.06679 0.36527 0.0
N2044 N 0.82596 0.1153 0.37467 0.0
N2045 N 0.86725 0.08159 0.37996 0.0
H2046 H 0.66096 0.07294 0.21617 0.0
H2047 H 0.69129 0.11222 0.0642 0.0
H2048 H 0.63286 0.05668 0.13733 0.0
H2049 H 0.72144 0.12326 0.1434 0.0
H2050 H 0.6629 0.10114 0.09191 0.0
H2051 H 0.67515 0.10109 0.19197 0.0
C2052 C 0.65707 0.07587 0.19409 0.0
C2053 C 0.64585 0.06265 0.17856 0.0
C2054 C 0.67554 0.1065 0.10321 0.0
C2055 C 0.66276 0.09396 0.15033 0.0
C2056 C 0.69166 0.11281 0.0874 0.0
C2057 C 0.70865 0.11824 0.10173 0.0
C2058 C 0.67668 0.10567 0.13336 0.0
C2059 C 0.70863 0.11882 0.1317 0.0
C2060 C 0.66533 0.09179 0.18012 0.0
C2061 C 0.64148 0.06673 0.14988 0.0
N2062 N 0.693 0.11235 0.14655 0.0
N2063 N 0.65035 0.0818 0.13641 0.0
H2064 H 0.79828 0.62846 0.63676 0.0
H2065 H 0.87826 0.54637 0.62921 0.0
H2066 H 0.81689 0.60022 0.5591 0.0
H2067 H 0.85291 0.5679 0.70742 0.0
H2068 H 0.86421 0.57379 0.60318 0.0
H2069 H 0.82613 0.61451 0.66198 0.0
C2070 C 0.80868 0.6198 0.62488 0.0
C2071 C 0.80549 0.61536 0.596 0.0
C2072 C 0.86214 0.57287 0.62615 0.0
C2073 C 0.83685 0.59894 0.62465 0.0
C2074 C 0.87022 0.55731 0.64099 0.0
C2075 C 0.8666 0.55506 0.67031 0.0
C2076 C 0.85003 0.58596 0.64077 0.0
C2077 C 0.856 0.56932 0.68475 0.0
C2078 C 0.82448 0.61178 0.63925 0.0
C2079 C 0.81906 0.60396 0.58142 0.0
N2080 N 0.84775 0.58407 0.6697 0.0
N2081 N 0.83405 0.59583 0.59606 0.0
H2082 H 0.69532 0.60778 0.95928 0.0
H2083 H 0.65699 0.56975 0.80876 0.0
H2084 H 0.72084 0.62144 0.87737 0.0
H2085 H 0.64304 0.54437 0.89064 0.0
H2086 H 0.67098 0.59796 0.83371 0.0
H2087 H 0.66697 0.59402 0.93436 0.0
C2088 C 0.69458 0.60844 0.9361 0.0
C2089 C 0.7103 0.6154 0.92015 0.0
C2090 C 0.66432 0.58647 0.84618 0.0
C2091 C 0.67847 0.59972 0.89172 0.0
C2092 C 0.65631 0.5705 0.83195 0.0
C2093 C 0.6492 0.55485 0.84788 0.0
C2094 C 0.66515 0.58652 0.87634 0.0
C2095 C 0.64867 0.55621 0.87779 0.0
C2096 C 0.67853 0.60057 0.92189 0.0
C2097 C 0.70895 0.61592 0.89024 0.0
N2098 N 0.65683 0.57166 0.89114 0.0
N2099 N 0.69341 0.6079 0.87691 0.0
H2100 H 0.66681 0.44441 0.21595 0.0
H2101 H 0.71085 0.37664 0.13252 0.0
H2102 H 0.62946 0.45681 0.1443 0.0
H2103 H 0.69674 0.41983 0.06911 0.0
H2104 H 0.68344 0.38788 0.16194 0.0
H2105 H 0.6801 0.41666 0.18985 0.0
C2106 C 0.66065 0.44055 0.19535 0.0
C2107 C 0.64696 0.45261 0.18223 0.0
C2108 C 0.68604 0.39454 0.14127 0.0
C2109 C 0.66251 0.42158 0.15178 0.0
C2110 C 0.70149 0.38804 0.12441 0.0
C2111 C 0.70584 0.39744 0.09858 0.0
C2112 C 0.67513 0.41059 0.13206 0.0
C2113 C 0.69367 0.41228 0.08897 0.0
C2114 C 0.66826 0.42475 0.18034 0.0
C2115 C 0.63987 0.44757 0.15512 0.0
N2116 N 0.67891 0.41857 0.10591 0.0
N2117 N 0.64819 0.43277 0.14033 0.0
H2118 H 0.8794 0.46695 0.38668 0.0
H2119 H 0.80124 0.3824 0.38651 0.0
H2120 H 0.84941 0.44641 0.31157 0.0
H2121 H 0.81753 0.416 0.46055 0.0
H2122 H 0.82848 0.39658 0.35987 0.0
H2123 H 0.86664 0.43933 0.41384 0.0
C2124 C 0.87064 0.45618 0.37574 0.0
C2125 C 0.86531 0.45877 0.34705 0.0
C2126 C 0.8265 0.40036 0.38222 0.0
C2127 C 0.85038 0.42761 0.37789 0.0
C2128 C 0.8111 0.39219 0.39744 0.0
C2129 C 0.80737 0.39812 0.4256 0.0
C2130 C 0.83801 0.41465 0.39534 0.0
C2131 C 0.82016 0.41105 0.43885 0.0
C2132 C 0.86331 0.44052 0.39122 0.0
C2133 C 0.85381 0.44471 0.33371 0.0
N2134 N 0.83482 0.41915 0.42343 0.0
N2135 N 0.84642 0.42981 0.34942 0.0
H2136 H 0.19836 0.41668 0.45924 0.0
H2137 H 0.12874 0.46038 0.37682 0.0
H2138 H 0.21804 0.38862 0.38203 0.0
H2139 H 0.1729 0.45313 0.31225 0.0
H2140 H 0.14309 0.43351 0.4042 0.0
H2141 H 0.17057 0.42983 0.43282 0.0
C2142 C 0.19629 0.41267 0.437 0.0
C2143 C 0.21028 0.40166 0.4226 0.0
C2144 C 0.14938 0.43751 0.38376 0.0
C2145 C 0.17896 0.41664 0.39219 0.0
C2146 C 0.14104 0.45258 0.36799 0.0
C2147 C 0.14976 0.45872 0.34242 0.0
C2148 C 0.16657 0.42884 0.37376 0.0
C2149 C 0.16582 0.44861 0.3319 0.0
C2150 C 0.18043 0.42009 0.42188 0.0
C2151 C 0.20743 0.39712 0.39369 0.0
N2152 N 0.17387 0.43422 0.3478 0.0
N2153 N 0.19229 0.40499 0.37922 0.0
H2154 H 0.30244 0.38091 0.12951 0.0
H2155 H 0.35153 0.4486 0.20951 0.0
H2156 H 0.31061 0.42386 0.0635 0.0
H2157 H 0.3766 0.46837 0.13011 0.0
H2158 H 0.33675 0.42127 0.18399 0.0
H2159 H 0.33008 0.39468 0.15588 0.0
C2160 C 0.31053 0.39288 0.12024 0.0
C2161 C 0.3045 0.40138 0.09449 0.0
C2162 C 0.3462 0.43101 0.17227 0.0
C2163 C 0.33526 0.41761 0.12471 0.0
C2164 C 0.35458 0.44661 0.18691 0.0
C2165 C 0.36519 0.46053 0.17171 0.0
C2166 C 0.34835 0.4297 0.14229 0.0
C2167 C 0.36845 0.4578 0.1424 0.0
C2168 C 0.32605 0.4009 0.13543 0.0
C2169 C 0.31501 0.41697 0.08333 0.0
N2170 N 0.35971 0.4429 0.12849 0.0
N2171 N 0.32983 0.42473 0.09868 0.0
H2172 H 0.38539 0.55374 0.87482 0.0
H2173 H 0.31881 0.60382 0.95613 0.0
H2174 H 0.34007 0.55804 0.81157 0.0
H2175 H 0.29482 0.62396 0.87628 0.0
H2176 H 0.34583 0.58908 0.92974 0.0
H2177 H 0.37141 0.58172 0.90019 0.0
C2178 C 0.37284 0.56106 0.86588 0.0
C2179 C 0.36375 0.55383 0.84126 0.0
C2180 C 0.33519 0.59745 0.918 0.0
C2181 C 0.3473 0.58497 0.87041 0.0
C2182 C 0.31976 0.60581 0.93313 0.0
C2183 C 0.30476 0.61497 0.91816 0.0
C2184 C 0.33526 0.59822 0.8878 0.0
C2185 C 0.30621 0.6169 0.88841 0.0
C2186 C 0.3647 0.57677 0.88054 0.0
C2187 C 0.34741 0.56337 0.83053 0.0
N2188 N 0.321 0.60826 0.87411 0.0
N2189 N 0.33959 0.57838 0.84535 0.0
H2190 H 0.2153 0.62931 0.63241 0.0
H2191 H 0.1358 0.54617 0.6306 0.0
H2192 H 0.19884 0.59631 0.55787 0.0
H2193 H 0.16468 0.567 0.70648 0.0
H2194 H 0.14923 0.57349 0.60351 0.0
H2195 H 0.1875 0.61575 0.65845 0.0
C2196 C 0.20535 0.61972 0.62129 0.0
C2197 C 0.20915 0.61378 0.59317 0.0
C2198 C 0.15217 0.57245 0.62626 0.0
C2199 C 0.17785 0.59798 0.62271 0.0
C2200 C 0.14445 0.55695 0.6417 0.0
C2201 C 0.14929 0.55452 0.6706 0.0
C2202 C 0.16501 0.58532 0.63987 0.0
C2203 C 0.16066 0.56858 0.68416 0.0
C2204 C 0.18959 0.61193 0.63614 0.0
C2205 C 0.19618 0.6012 0.57958 0.0
N2206 N 0.16845 0.5833 0.66851 0.0
N2207 N 0.18118 0.59344 0.59467 0.0
H2208 H 0.26499 0.20835 0.03146 0.0
H2209 H 0.20245 0.30648 0.02405 0.0
H2210 H 0.20237 0.20757 0.02555 0.0
H2211 H 0.26475 0.30341 0.03417 0.0
H2212 H 0.20139 0.27078 0.02222 0.0
H2213 H 0.26445 0.24343 0.02922 0.0
C2214 C 0.25106 0.21548 0.02917 0.0
C2215 C 0.23371 0.20472 0.02829 0.0
C2216 C 0.21526 0.27801 0.02461 0.0
C2217 C 0.23297 0.24559 0.02658 0.0
C2218 C 0.2159 0.29841 0.02574 0.0
C2219 C 0.23375 0.30819 0.02891 0.0
C2220 C 0.2326 0.26729 0.02678 0.0
C2221 C 0.25066 0.29679 0.03091 0.0
C2222 C 0.25076 0.23569 0.02822 0.0
C2223 C 0.21614 0.21515 0.02638 0.0
N2224 N 0.24963 0.27713 0.02984 0.0
N2225 N 0.21621 0.23499 0.0256 0.0
H2226 H 0.95628 0.01222 0.2721 0.0
H2227 H 0.05507 0.95114 0.28272 0.0
H2228 H 0.95649 0.9518 0.29671 0.0
H2229 H 0.05157 0.0138 0.28247 0.0
H2230 H 0.01942 0.94973 0.28175 0.0
H2231 H 0.99146 0.01142 0.26843 0.0
C2232 C 0.96365 0.99862 0.27625 0.0
C2233 C 0.95321 0.98199 0.2845 0.0
C2234 C 0.02657 0.96374 0.28169 0.0
C2235 C 0.99402 0.98113 0.28094 0.0
C2236 C 0.04697 0.9646 0.28233 0.0
C2237 C 0.05667 0.98264 0.28242 0.0
C2238 C 0.01572 0.98101 0.2809 0.0
C2239 C 0.04511 0.9995 0.2816 0.0
C2240 C 0.98387 0.99826 0.27446 0.0
C2241 C 0.96387 0.965 0.29038 0.0
N2242 N 0.02542 0.99824 0.28085 0.0
N2243 N 0.98369 0.96499 0.28849 0.0
H2244 H 0.24863 0.70863 0.53013 0.0
H2245 H 0.3116 0.80653 0.52215 0.0
H2246 H 0.31126 0.70764 0.52431 0.0
H2247 H 0.24936 0.80369 0.53346 0.0
H2248 H 0.31247 0.77084 0.52023 0.0
H2249 H 0.24933 0.74371 0.52779 0.0
C2250 C 0.2626 0.71572 0.52783 0.0
C2251 C 0.27991 0.7049 0.52701 0.0
C2252 C 0.29865 0.77812 0.52289 0.0
C2253 C 0.28082 0.74576 0.52518 0.0
C2254 C 0.29812 0.79852 0.52408 0.0
C2255 C 0.28034 0.80837 0.52764 0.0
C2256 C 0.28129 0.76746 0.52538 0.0
C2257 C 0.26339 0.79703 0.5299 0.0
C2258 C 0.26298 0.73592 0.52683 0.0
C2259 C 0.29753 0.71526 0.52509 0.0
N2260 N 0.26432 0.77736 0.52875 0.0
N2261 N 0.29754 0.73511 0.52425 0.0
H2262 H 0.45905 0.99861 0.7799 0.0
H2263 H 0.55704 0.06136 0.77124 0.0
H2264 H 0.45811 0.06109 0.77198 0.0
H2265 H 0.55413 0.99907 0.78122 0.0
H2266 H 0.52133 0.06228 0.76916 0.0
H2267 H 0.49412 0.99922 0.77721 0.0
C2268 C 0.46613 0.01252 0.77705 0.0
C2269 C 0.45532 0.02982 0.77576 0.0
C2270 C 0.5286 0.04843 0.77155 0.0
C2271 C 0.49621 0.03064 0.77358 0.0
C2272 C 0.54901 0.04788 0.77283 0.0
C2273 C 0.55883 0.03008 0.77611 0.0
C2274 C 0.51792 0.03107 0.77369 0.0
C2275 C 0.54748 0.01313 0.77793 0.0
C2276 C 0.48634 0.01285 0.77584 0.0
C2277 C 0.46572 0.04737 0.77315 0.0
N2278 N 0.5278 0.01409 0.77674 0.0
N2279 N 0.48557 0.04734 0.77219 0.0
H2280 H 0.21176 0.8063 0.94991 0.0
H2281 H 0.24414 0.70883 0.03027 0.0
H2282 H 0.24264 0.80573 0.0304 0.0
H2283 H 0.21238 0.70956 0.95057 0.0
H2284 H 0.24085 0.74414 0.03319 0.0
H2285 H 0.20865 0.77102 0.95259 0.0
C2286 C 0.21757 0.79886 0.96846 0.0
C2287 C 0.2276 0.80916 0.98987 0.0
C2288 C 0.23441 0.73657 0.01521 0.0
C2289 C 0.22442 0.76844 0.99274 0.0
C2290 C 0.23632 0.71637 0.01349 0.0
C2291 C 0.22866 0.7061 0.99002 0.0
C2292 C 0.22485 0.74674 0.99323 0.0
C2293 C 0.21842 0.71673 0.96919 0.0
C2294 C 0.21593 0.77862 0.96983 0.0
C2295 C 0.23509 0.79849 0.0131 0.0
N2296 N 0.21699 0.73642 0.97114 0.0
N2297 N 0.23349 0.77877 0.01378 0.0
H2298 H 0.55861 0.01345 0.2458 0.0
H2299 H 0.45983 0.95201 0.23817 0.0
H2300 H 0.55837 0.95262 0.2235 0.0
H2301 H 0.46323 0.01465 0.23535 0.0
H2302 H 0.49548 0.95071 0.2391 0.0
H2303 H 0.52341 0.01266 0.24966 0.0
C2304 C 0.55123 0.99978 0.2422 0.0
C2305 C 0.56167 0.98302 0.23451 0.0
C2306 C 0.48831 0.9647 0.2385 0.0
C2307 C 0.52084 0.98216 0.23832 0.0
C2308 C 0.4679 0.96549 0.23787 0.0
C2309 C 0.45817 0.9835 0.23693 0.0
C2310 C 0.49914 0.98201 0.23842 0.0
C2311 C 0.46972 1.00039 0.23689 0.0
C2312 C 0.531 0.99941 0.2441 0.0
C2313 C 0.55099 0.96592 0.22936 0.0
N2314 N 0.48942 0.9992 0.23766 0.0
N2315 N 0.53118 0.96592 0.23135 0.0
H2316 H 0.24933 0.21051 0.48364 0.0
H2317 H 0.31285 0.30808 0.49149 0.0
H2318 H 0.31188 0.20917 0.49086 0.0
H2319 H 0.25037 0.30566 0.48376 0.0
H2320 H 0.31357 0.27236 0.49289 0.0
H2321 H 0.2502 0.24559 0.48603 0.0
C2322 C 0.26331 0.21752 0.48624 0.0
C2323 C 0.28054 0.20659 0.48748 0.0
C2324 C 0.29973 0.27973 0.49113 0.0
C2325 C 0.28167 0.24747 0.48937 0.0
C2326 C 0.2993 0.30015 0.49024 0.0
C2327 C 0.2815 0.31011 0.48785 0.0
C2328 C 0.28226 0.26918 0.48945 0.0
C2329 C 0.26444 0.29888 0.48639 0.0
C2330 C 0.2638 0.23773 0.48729 0.0
C2331 C 0.2982 0.21687 0.48975 0.0
N2332 N 0.26528 0.2792 0.48717 0.0
N2333 N 0.29831 0.23671 0.49061 0.0
H2334 H 0.05796 0.05436 0.70191 0.0
H2335 H 0.96056 0.02127 0.78242 0.0
H2336 H 0.05748 0.02311 0.78211 0.0
H2337 H 0.96113 0.0518 0.70166 0.0
H2338 H 0.99584 0.02504 0.78538 0.0
H2339 H 0.0226 0.05709 0.70447 0.0
C2340 C 0.05051 0.04839 0.72038 0.0
C2341 C 0.06086 0.03837 0.74174 0.0
C2342 C 0.98824 0.0311 0.76714 0.0
C2343 C 0.02008 0.04113 0.74448 0.0
C2344 C 0.96805 0.02891 0.7654 0.0
C2345 C 0.95775 0.03607 0.74162 0.0
C2346 C 0.99836 0.04046 0.7449 0.0
C2347 C 0.96833 0.04614 0.72051 0.0
C2348 C 0.03023 0.04981 0.72168 0.0
C2349 C 0.0502 0.03068 0.76486 0.0
N2350 N 0.98801 0.04785 0.7225 0.0
N2351 N 0.03045 0.03209 0.76549 0.0
H2352 H 0.77166 0.80605 0.03252 0.0
H2353 H 0.80297 0.70851 0.95104 0.0
H2354 H 0.80155 0.80513 0.95116 0.0
H2355 H 0.77142 0.709 0.03105 0.0
H2356 H 0.80604 0.74377 0.95381 0.0
H2357 H 0.77459 0.77069 0.03508 0.0
C2358 C 0.77897 0.79848 0.01527 0.0
C2359 C 0.78623 0.80873 0.99147 0.0
C2360 C 0.79861 0.73617 0.97092 0.0
C2361 C 0.78967 0.76803 0.99433 0.0
C2362 C 0.79699 0.71593 0.96951 0.0
C2363 C 0.78682 0.7056 0.99078 0.0
C2364 C 0.78998 0.74633 0.99375 0.0
C2365 C 0.77911 0.71626 0.01388 0.0
C2366 C 0.78068 0.77824 0.0168 0.0
C2367 C 0.79586 0.79801 0.97007 0.0
N2368 N 0.78073 0.73598 0.01463 0.0
N2369 N 0.79713 0.77831 0.97189 0.0
H2370 H 0.75098 0.20774 0.53236 0.0
H2371 H 0.70151 0.30627 0.48303 0.0
H2372 H 0.71245 0.20854 0.45923 0.0
H2373 H 0.76262 0.30231 0.50444 0.0
H2374 H 0.69945 0.2709 0.48584 0.0
H2375 H 0.74887 0.24306 0.53477 0.0
C2376 C 0.742 0.21518 0.51683 0.0
C2377 C 0.7323 0.20486 0.49503 0.0
C2378 C 0.71319 0.27799 0.49021 0.0
C2379 C 0.72925 0.24554 0.49867 0.0
C2380 C 0.71453 0.29829 0.48841 0.0
C2381 C 0.73236 0.3079 0.49331 0.0
C2382 C 0.72959 0.26711 0.49782 0.0
C2383 C 0.74837 0.29618 0.50106 0.0
C2384 C 0.74072 0.2354 0.51844 0.0
C2385 C 0.72021 0.21561 0.47647 0.0
N2386 N 0.74655 0.27657 0.50316 0.0
N2387 N 0.71911 0.23534 0.47862 0.0
H2388 H 0.80211 0.20949 0.06725 0.0
H2389 H 0.7703 0.30725 0.9869 0.0
H2390 H 0.76964 0.21041 0.98816 0.0
H2391 H 0.80044 0.30624 0.06796 0.0
H2392 H 0.77353 0.27195 0.98395 0.0
H2393 H 0.80549 0.24476 0.0645 0.0
C2394 C 0.796 0.21701 0.04898 0.0
C2395 C 0.78546 0.20682 0.02799 0.0
C2396 C 0.77963 0.27946 1.00224 0.0
C2397 C 0.78898 0.24751 0.02503 0.0
C2398 C 0.77776 0.29967 1.00398 0.0
C2399 C 0.78494 0.30985 0.02786 0.0
C2400 C 0.78872 0.26921 0.02457 0.0
C2401 C 0.79477 0.29914 0.04903 0.0
C2402 C 0.7978 0.23724 0.04757 0.0
C2403 C 0.77762 0.21758 1.00511 0.0
N2404 N 0.79618 0.27945 0.04703 0.0
N2405 N 0.77942 0.23728 1.00437 0.0
H2406 H 0.74306 0.80637 0.48658 0.0
H2407 H 0.71225 0.70881 0.56856 0.0
H2408 H 0.71387 0.80546 0.56848 0.0
H2409 H 0.74307 0.70933 0.48795 0.0
H2410 H 0.70918 0.74408 0.56587 0.0
H2411 H 0.73999 0.77102 0.48403 0.0
C2412 C 0.73587 0.7988 0.50395 0.0
C2413 C 0.72885 0.80905 0.5279 0.0
C2414 C 0.71646 0.73649 0.54861 0.0
C2415 C 0.72525 0.76835 0.52506 0.0
C2416 C 0.71807 0.71625 0.54998 0.0
C2417 C 0.72804 0.70592 0.52852 0.0
C2418 C 0.7249 0.74665 0.52563 0.0
C2419 C 0.73554 0.71659 0.50527 0.0
C2420 C 0.73408 0.77857 0.50243 0.0
C2421 C 0.71937 0.79834 0.54946 0.0
N2422 N 0.73394 0.73631 0.50456 0.0
N2423 N 0.71802 0.77864 0.54764 0.0
H2424 H 0.5565 0.46082 0.81555 0.0
H2425 H 0.45829 0.49096 0.73473 0.0
H2426 H 0.55527 0.49354 0.73669 0.0
H2427 H 0.45969 0.46149 0.81635 0.0
H2428 H 0.49369 0.48844 0.73202 0.0
H2429 H 0.52124 0.45707 0.81278 0.0
C2430 C 0.54891 0.46691 0.79732 0.0
C2431 C 0.55901 0.47762 0.7764 0.0
C2432 C 0.48624 0.48235 0.7504 0.0
C2433 C 0.51833 0.47366 0.7734 0.0
C2434 C 0.46598 0.48382 0.75201 0.0
C2435 C 0.45585 0.47659 0.77595 0.0
C2436 C 0.49661 0.47361 0.7729 0.0
C2437 C 0.46673 0.46716 0.79736 0.0
C2438 C 0.52869 0.4649 0.79591 0.0
C2439 C 0.54817 0.48543 0.75358 0.0
N2440 N 0.48646 0.46612 0.79545 0.0
N2441 N 0.52848 0.48341 0.75281 0.0
H2442 H 0.05496 0.52246 0.23708 0.0
H2443 H 0.95695 0.55243 0.31874 0.0
H2444 H 0.05379 0.55127 0.31921 0.0
H2445 H 0.95791 0.52207 0.23782 0.0
H2446 H 0.99226 0.55564 0.31638 0.0
H2447 H 0.01959 0.5254 0.23441 0.0
C2448 C 0.04732 0.52954 0.25448 0.0
C2449 C 0.0575 0.53648 0.27853 0.0
C2450 C 0.98475 0.54844 0.29898 0.0
C2451 C 0.01677 0.53992 0.27555 0.0
C2452 C 0.96449 0.54675 0.30017 0.0
C2453 C 0.95428 0.53686 0.27852 0.0
C2454 C 0.99504 0.54017 0.27599 0.0
C2455 C 0.96508 0.52953 0.25528 0.0
C2456 C 0.02708 0.53125 0.25289 0.0
C2457 C 0.0467 0.54582 0.30013 0.0
N2458 N 0.98481 0.53121 0.25475 0.0
N2459 N 0.02699 0.5471 0.29824 0.0
H2460 H 0.05693 0.46078 0.70083 0.0
H2461 H 0.95962 0.49337 0.78198 0.0
H2462 H 0.05657 0.49229 0.7808 0.0
H2463 H 0.96009 0.46226 0.70169 0.0
H2464 H 0.99495 0.49 0.78458 0.0
H2465 H 0.0216 0.45774 0.70377 0.0
C2466 C 0.04951 0.46675 0.71932 0.0
C2467 C 0.05988 0.47694 0.7405 0.0
C2468 C 0.98732 0.48373 0.76653 0.0
C2469 C 0.01913 0.47383 0.74369 0.0
C2470 C 0.96709 0.48569 0.76499 0.0
C2471 C 0.95674 0.47823 0.74146 0.0
C2472 C 0.99742 0.47431 0.74433 0.0
C2473 C 0.96732 0.46813 0.72037 0.0
C2474 C 0.02925 0.46515 0.72085 0.0
C2475 C 0.04926 0.4846 0.76368 0.0
N2476 N 0.98703 0.46665 0.72217 0.0
N2477 N 0.02954 0.48302 0.76452 0.0
H2478 H 0.45998 0.56332 0.23609 0.0
H2479 H 0.55893 0.50242 0.24598 0.0
H2480 H 0.46345 0.50066 0.23601 0.0
H2481 H 0.55842 0.56279 0.22112 0.0
H2482 H 0.52373 0.50309 0.24985 0.0
H2483 H 0.49562 0.56472 0.23684 0.0
C2484 C 0.46807 0.54985 0.23634 0.0
C2485 C 0.45836 0.53182 0.23618 0.0
C2486 C 0.53126 0.51627 0.24372 0.0
C2487 C 0.49933 0.53343 0.23748 0.0
C2488 C 0.55148 0.51597 0.24181 0.0
C2489 C 0.56185 0.53263 0.23343 0.0
C2490 C 0.52103 0.53335 0.23727 0.0
C2491 C 0.5511 0.54957 0.22755 0.0
C2492 C 0.48847 0.55071 0.23687 0.0
C2493 C 0.46993 0.51495 0.23689 0.0
N2494 N 0.53129 0.54951 0.22959 0.0
N2495 N 0.48963 0.5162 0.23753 0.0
loop_
_geom_bond_atom_site_label_1
_geom_bond_atom_site_label_2
_geom_bond_distance
_geom_bond_site_symmetry_2
_ccdc_geom_bond_type
Co0 N4 2.148 . S
Co0 N10 2.128 . S
Co0 N20 2.194 . S
Co0 O25 2.351 . S
Co0 O26 2.155 . S
Co0 O27 2.096 . S
C1 N4 1.301 . S
C1 N5 1.328 1_554 S
C1 H6 0.930 . S
C2 C3 1.333 . S
C2 N4 1.317 . S
C2 H7 0.930 . S
C3 C2 1.333 . S
C3 N5 1.350 1_554 S
C3 H29 0.931 1_554 S
N4 Co0 2.148 . S
N4 C1 1.301 . S
N4 C2 1.317 . S
N5 C1 1.328 1_556 S
N5 C3 1.350 1_556 S
H6 C1 0.930 . S
H7 C2 0.930 . S
C8 O9 1.224 . S
C8 O27 1.247 . S
O9 C8 1.224 . S
N10 Co0 2.128 . S
N10 C11 1.355 . S
N10 C13 1.311 . S
C11 N10 1.355 . S
C11 C12 1.363 . S
C11 H23 0.929 . S
C12 C11 1.363 . S
C12 N14 1.375 . S
C12 H30 0.931 . S
C13 N10 1.311 . S
C13 N14 1.347 . S
C13 H24 0.929 . S
N14 C12 1.375 . S
N14 C13 1.347 . S
C15 C18 1.365 . S
C15 N20 1.328 . S
C15 H21 0.929 . S
C16 C17 1.362 . S
C16 C19 1.378 . S
C16 H31 0.929 . S
C17 C16 1.362 . S
C17 C18 1.366 . S
C18 C15 1.365 . S
C18 C17 1.366 . S
C18 H32 0.930 . S
C19 C16 1.378 . S
C19 N20 1.315 . S
C19 H22 0.930 . S
N20 Co0 2.194 . S
N20 C15 1.328 . S
N20 C19 1.315 . S
H21 C15 0.929 . S
H22 C19 0.930 . S
H23 C11 0.929 . S
H24 C13 0.929 . S
O25 Co0 2.351 . S
O25 C28 1.244 . S
O26 Co0 2.155 . S
O26 C28 1.240 . S
O27 Co0 2.096 . S
O27 C8 1.247 . S
C28 O25 1.244 . S
C28 O26 1.240 . S
H29 C3 0.931 1_556 S
H30 C12 0.931 . S
H31 C16 0.929 . S
H32 C18 0.930 . S
Co33 N37 2.148 1_545 S
Co33 N43 2.128 . S
Co33 N53 2.194 . S
Co33 O58 2.351 . S
Co33 O59 2.155 . S
Co33 O60 2.096 1_545 S
C34 N37 1.301 1_545 S
C34 N38 1.328 . S
C34 H39 0.930 . S
C35 C36 1.333 . S
C35 N37 1.317 . S
C35 H40 0.930 . S
C36 C35 1.333 . S
C36 N38 1.350 1_565 S
C36 H62 0.931 . S
N37 Co33 2.148 1_565 S
N37 C34 1.301 1_565 S
N37 C35 1.317 . S
N38 C34 1.328 . S
N38 C36 1.350 1_545 S
H39 C34 0.930 . S
H40 C35 0.930 . S
C41 O42 1.224 . S
C41 O60 1.247 . S
O42 C41 1.224 . S
N43 Co33 2.128 . S
N43 C44 1.355 . S
N43 C46 1.311 1_545 S
C44 N43 1.355 . S
C44 C45 1.363 . S
C44 H56 0.929 . S
C45 C44 1.363 . S
C45 N47 1.375 1_545 S
C45 H63 0.931 . S
C46 N43 1.311 1_565 S
C46 N47 1.347 . S
C46 H57 0.929 . S
N47 C45 1.375 1_565 S
N47 C46 1.347 . S
C48 C51 1.365 . S
C48 N53 1.334 . S
C48 H54 0.929 . S
C49 C50 1.362 . S
C49 C52 1.378 . S
C49 H64 0.929 . S
C50 C49 1.362 . S
C50 C51 1.366 1_565 S
C51 C48 1.365 . S
C51 C50 1.366 1_545 S
C51 H65 0.930 . S
C52 C49 1.378 . S
C52 N53 1.309 1_565 S
C52 H55 0.930 . S
N53 Co33 2.194 . S
N53 C48 1.334 . S
N53 C52 1.309 1_545 S
H54 C48 0.929 . S
H55 C52 0.930 . S
H56 C44 0.929 . S
H57 C46 0.929 . S
O58 Co33 2.351 . S
O58 C61 1.244 . S
O59 Co33 2.155 . S
O59 C61 1.240 . S
O60 Co33 2.096 1_565 S
O60 C41 1.247 . S
C61 O58 1.244 . S
C61 O59 1.240 . S
H62 C36 0.931 . S
H63 C45 0.931 . S
H64 C49 0.929 . S
H65 C51 0.930 . S
Co66 N70 2.148 . S
Co66 N76 2.128 . S
Co66 N86 2.194 . S
Co66 O91 2.351 . S
Co66 O92 2.155 . S
Co66 O93 2.096 . S
C67 N70 1.301 . S
C67 N71 1.328 . S
C67 H72 0.930 . S
C68 C69 1.333 . S
C68 N70 1.317 . S
C68 H73 0.930 . S
C69 C68 1.333 . S
C69 N71 1.350 . S
C69 H95 0.931 . S
N70 Co66 2.148 . S
N70 C67 1.301 . S
N70 C68 1.317 . S
N71 C67 1.328 . S
N71 C69 1.350 . S
H72 C67 0.930 . S
H73 C68 0.930 . S
C74 O75 1.224 . S
C74 O93 1.247 . S
O75 C74 1.224 . S
N76 Co66 2.128 . S
N76 C77 1.355 . S
N76 C79 1.311 . S
C77 N76 1.355 . S
C77 C78 1.363 . S
C77 H89 0.929 . S
C78 C77 1.363 . S
C78 N80 1.375 . S
C78 H96 0.931 . S
C79 N76 1.311 . S
C79 N80 1.347 . S
C79 H90 0.929 . S
N80 C78 1.375 . S
N80 C79 1.347 . S
C81 C84 1.365 . S
C81 N86 1.328 . S
C81 H87 0.929 . S
C82 C83 1.362 . S
C82 C85 1.378 . S
C82 H97 0.929 . S
C83 C82 1.362 . S
C83 C84 1.366 . S
C84 C81 1.365 . S
C84 C83 1.366 . S
C84 H98 0.930 . S
C85 C82 1.378 . S
C85 N86 1.315 . S
C85 H88 0.930 . S
N86 Co66 2.194 . S
N86 C81 1.328 . S
N86 C85 1.315 . S
H87 C81 0.929 . S
H88 C85 0.930 . S
H89 C77 0.929 . S
H90 C79 0.929 . S
O91 Co66 2.351 . S
O91 C94 1.244 . S
O92 Co66 2.155 . S
O92 C94 1.240 . S
O93 Co66 2.096 . S
O93 C74 1.247 . S
C94 O91 1.244 . S
C94 O92 1.240 . S
H95 C69 0.931 . S
H96 C78 0.931 . S
H97 C82 0.929 . S
H98 C84 0.930 . S
Co99 N103 2.148 1_565 S
Co99 N109 2.128 . S
Co99 N119 2.194 . S
Co99 O124 2.351 . S
Co99 O125 2.155 . S
Co99 O126 2.096 1_565 S
C100 N103 1.301 1_565 S
C100 N104 1.328 . S
C100 H105 0.930 . S
C101 C102 1.333 . S
C101 N103 1.317 . S
C101 H106 0.930 . S
C102 C101 1.333 . S
C102 N104 1.350 1_545 S
C102 H128 0.931 . S
N103 Co99 2.148 1_545 S
N103 C100 1.301 1_545 S
N103 C101 1.317 . S
N104 C100 1.328 . S
N104 C102 1.350 1_565 S
H105 C100 0.930 . S
H106 C101 0.930 . S
C107 O108 1.224 . S
C107 O126 1.247 . S
O108 C107 1.224 . S
N109 Co99 2.128 . S
N109 C110 1.355 . S
N109 C112 1.311 1_565 S
C110 N109 1.355 . S
C110 C111 1.363 . S
C110 H122 0.929 . S
C111 C110 1.363 . S
C111 N113 1.375 1_565 S
C111 H129 0.931 . S
C112 N109 1.311 1_545 S
C112 N113 1.347 . S
C112 H123 0.929 . S
N113 C111 1.375 1_545 S
N113 C112 1.347 . S
C114 C117 1.365 . S
C114 N119 1.335 . S
C114 H120 0.929 . S
C115 C116 1.362 . S
C115 C118 1.378 . S
C115 H130 0.929 . S
C116 C115 1.362 . S
C116 C117 1.366 1_545 S
C117 C114 1.365 . S
C117 C116 1.366 1_565 S
C117 H131 0.930 . S
C118 C115 1.378 . S
C118 N119 1.308 1_545 S
C118 H121 0.930 . S
N119 Co99 2.194 . S
N119 C114 1.335 . S
N119 C118 1.308 1_565 S
H120 C114 0.929 . S
H121 C118 0.930 . S
H122 C110 0.929 . S
H123 C112 0.929 . S
O124 Co99 2.351 . S
O124 C127 1.244 . S
O125 Co99 2.155 . S
O125 C127 1.240 . S
O126 Co99 2.096 1_545 S
O126 C107 1.247 . S
C127 O124 1.244 . S
C127 O125 1.240 . S
H128 C102 0.931 . S
H129 C111 0.931 . S
H130 C115 0.929 . S
H131 C117 0.930 . S
Co132 N136 2.148 . S
Co132 N142 2.128 . S
Co132 N152 2.194 . S
Co132 O157 2.351 . S
Co132 O158 2.155 . S
Co132 O159 2.096 . S
C133 N136 1.301 . S
C133 N137 1.328 1_556 S
C133 H138 0.930 . S
C134 C135 1.333 . S
C134 N136 1.317 . S
C134 H139 0.930 . S
C135 C134 1.333 . S
C135 N137 1.350 1_556 S
C135 H161 0.931 1_556 S
N136 Co132 2.148 . S
N136 C133 1.301 . S
N136 C134 1.317 . S
N137 C133 1.328 1_554 S
N137 C135 1.350 1_554 S
H138 C133 0.930 . S
H139 C134 0.930 . S
C140 O141 1.224 . S
C140 O159 1.247 . S
O141 C140 1.224 . S
N142 Co132 2.128 . S
N142 C143 1.355 . S
N142 C145 1.311 . S
C143 N142 1.355 . S
C143 C144 1.363 . S
C143 H155 0.929 . S
C144 C143 1.363 . S
C144 N146 1.375 . S
C144 H162 0.931 . S
C145 N142 1.311 . S
C145 N146 1.347 . S
C145 H156 0.929 . S
N146 C144 1.375 . S
N146 C145 1.347 . S
C147 C150 1.365 . S
C147 N152 1.328 . S
C147 H153 0.929 . S
C148 C149 1.362 . S
C148 C151 1.378 . S
C148 H163 0.929 . S
C149 C148 1.362 . S
C149 C150 1.366 . S
C150 C147 1.365 . S
C150 C149 1.366 . S
C150 H164 0.930 . S
C151 C148 1.378 . S
C151 N152 1.315 . S
C151 H154 0.930 . S
N152 Co132 2.194 . S
N152 C147 1.328 . S
N152 C151 1.315 . S
H153 C147 0.929 . S
H154 C151 0.930 . S
H155 C143 0.929 . S
H156 C145 0.929 . S
O157 Co132 2.351 . S
O157 C160 1.244 . S
O158 Co132 2.155 . S
O158 C160 1.240 . S
O159 Co132 2.096 . S
O159 C140 1.247 . S
C160 O157 1.244 . S
C160 O158 1.240 . S
H161 C135 0.931 1_554 S
H162 C144 0.931 . S
H163 C148 0.929 . S
H164 C150 0.930 . S
Co165 N169 2.148 1_545 S
Co165 N175 2.128 . S
Co165 N185 2.194 . S
Co165 O190 2.351 . S
Co165 O191 2.155 . S
Co165 O192 2.096 1_545 S
C166 N169 1.301 1_545 S
C166 N170 1.328 . S
C166 H171 0.930 . S
C167 C168 1.333 . S
C167 N169 1.317 . S
C167 H172 0.930 . S
C168 C167 1.333 . S
C168 N170 1.350 1_565 S
C168 H194 0.931 . S
N169 Co165 2.148 1_565 S
N169 C166 1.301 1_565 S
N169 C167 1.317 . S
N170 C166 1.328 . S
N170 C168 1.350 1_545 S
H171 C166 0.930 . S
H172 C167 0.930 . S
C173 O174 1.224 . S
C173 O192 1.247 . S
O174 C173 1.224 . S
N175 Co165 2.128 . S
N175 C176 1.355 . S
N175 C178 1.311 1_545 S
C176 N175 1.355 . S
C176 C177 1.363 . S
C176 H188 0.929 . S
C177 C176 1.363 . S
C177 N179 1.375 1_545 S
C177 H195 0.931 . S
C178 N175 1.311 1_565 S
C178 N179 1.347 . S
C178 H189 0.929 . S
N179 C177 1.375 1_565 S
N179 C178 1.347 . S
C180 C183 1.365 . S
C180 N185 1.335 . S
C180 H186 0.929 . S
C181 C182 1.362 . S
C181 C184 1.378 . S
C181 H196 0.929 . S
C182 C181 1.362 . S
C182 C183 1.366 1_565 S
C183 C180 1.365 . S
C183 C182 1.366 1_545 S
C183 H197 0.930 . S
C184 C181 1.378 . S
C184 N185 1.308 1_565 S
C184 H187 0.930 . S
N185 Co165 2.194 . S
N185 C180 1.335 . S
N185 C184 1.308 1_545 S
H186 C180 0.929 . S
H187 C184 0.930 . S
H188 C176 0.929 . S
H189 C178 0.929 . S
O190 Co165 2.351 . S
O190 C193 1.244 . S
O191 Co165 2.155 . S
O191 C193 1.240 . S
O192 Co165 2.096 1_565 S
O192 C173 1.247 . S
C193 O190 1.244 . S
C193 O191 1.240 . S
H194 C168 0.931 . S
H195 C177 0.931 . S
H196 C181 0.929 . S
H197 C183 0.930 . S
Co198 N202 2.148 . S
Co198 N208 2.128 . S
Co198 N218 2.194 . S
Co198 O223 2.351 . S
Co198 O224 2.155 . S
Co198 O225 2.096 . S
C199 N202 1.301 . S
C199 N203 1.328 . S
C199 H204 0.930 . S
C200 C201 1.333 . S
C200 N202 1.317 . S
C200 H205 0.930 . S
C201 C200 1.333 . S
C201 N203 1.350 . S
C201 H227 0.931 . S
N202 Co198 2.148 . S
N202 C199 1.301 . S
N202 C200 1.317 . S
N203 C199 1.328 . S
N203 C201 1.350 . S
H204 C199 0.930 . S
H205 C200 0.930 . S
C206 O207 1.224 . S
C206 O225 1.247 . S
O207 C206 1.224 . S
N208 Co198 2.128 . S
N208 C209 1.355 . S
N208 C211 1.311 . S
C209 N208 1.355 . S
C209 C210 1.363 . S
C209 H221 0.929 . S
C210 C209 1.363 . S
C210 N212 1.375 . S
C210 H228 0.931 . S
C211 N208 1.311 . S
C211 N212 1.347 . S
C211 H222 0.929 . S
N212 C210 1.375 . S
N212 C211 1.347 . S
C213 C216 1.365 . S
C213 N218 1.328 . S
C213 H219 0.929 . S
C214 C215 1.362 . S
C214 C217 1.378 . S
C214 H229 0.929 . S
C215 C214 1.362 . S
C215 C216 1.366 . S
C216 C213 1.365 . S
C216 C215 1.366 . S
C216 H230 0.930 . S
C217 C214 1.378 . S
C217 N218 1.315 . S
C217 H220 0.930 . S
N218 Co198 2.194 . S
N218 C213 1.328 . S
N218 C217 1.315 . S
H219 C213 0.929 . S
H220 C217 0.930 . S
H221 C209 0.929 . S
H222 C211 0.929 . S
O223 Co198 2.351 . S
O223 C226 1.244 . S
O224 Co198 2.155 . S
O224 C226 1.240 . S
O225 Co198 2.096 . S
O225 C206 1.247 . S
C226 O223 1.244 . S
C226 O224 1.240 . S
H227 C201 0.931 . S
H228 C210 0.931 . S
H229 C214 0.929 . S
H230 C216 0.930 . S
Co231 N235 2.148 1_565 S
Co231 N241 2.128 . S
Co231 N251 2.194 . S
Co231 O256 2.351 . S
Co231 O257 2.155 . S
Co231 O258 2.096 1_565 S
C232 N235 1.301 1_565 S
C232 N236 1.328 . S
C232 H237 0.930 . S
C233 C234 1.333 . S
C233 N235 1.317 . S
C233 H238 0.930 . S
C234 C233 1.333 . S
C234 N236 1.350 1_545 S
C234 H260 0.931 . S
N235 Co231 2.148 1_545 S
N235 C232 1.301 1_545 S
N235 C233 1.317 . S
N236 C232 1.328 . S
N236 C234 1.350 1_565 S
H237 C232 0.930 . S
H238 C233 0.930 . S
C239 O240 1.224 . S
C239 O258 1.247 . S
O240 C239 1.224 . S
N241 Co231 2.128 . S
N241 C242 1.355 . S
N241 C244 1.311 1_565 S
C242 N241 1.355 . S
C242 C243 1.363 . S
C242 H254 0.929 . S
C243 C242 1.363 . S
C243 N245 1.375 1_565 S
C243 H261 0.931 . S
C244 N241 1.311 1_545 S
C244 N245 1.347 . S
C244 H255 0.929 . S
N245 C243 1.375 1_545 S
N245 C244 1.347 . S
C246 C249 1.365 . S
C246 N251 1.334 . S
C246 H252 0.929 . S
C247 C248 1.362 . S
C247 C250 1.378 . S
C247 H262 0.929 . S
C248 C247 1.362 . S
C248 C249 1.366 1_545 S
C249 C246 1.365 . S
C249 C248 1.366 1_565 S
C249 H263 0.930 . S
C250 C247 1.378 . S
C250 N251 1.309 1_545 S
C250 H253 0.930 . S
N251 Co231 2.194 . S
N251 C246 1.334 . S
N251 C250 1.309 1_565 S
H252 C246 0.929 . S
H253 C250 0.930 . S
H254 C242 0.929 . S
H255 C244 0.929 . S
O256 Co231 2.351 . S
O256 C259 1.244 . S
O257 Co231 2.155 . S
O257 C259 1.240 . S
O258 Co231 2.096 1_545 S
O258 C239 1.247 . S
C259 O256 1.244 . S
C259 O257 1.240 . S
H260 C234 0.931 . S
H261 C243 0.931 . S
H262 C247 0.929 . S
H263 C249 0.930 . S
Co264 N268 2.148 . S
Co264 N274 2.128 . S
Co264 N284 2.194 . S
Co264 O289 2.351 . S
Co264 O290 2.155 . S
Co264 O291 2.096 . S
C265 N268 1.301 . S
C265 N269 1.328 1_556 S
C265 H270 0.930 . S
C266 C267 1.333 . S
C266 N268 1.317 . S
C266 H271 0.930 . S
C267 C266 1.333 . S
C267 N269 1.350 1_556 S
C267 H293 0.931 1_556 S
N268 Co264 2.148 . S
N268 C265 1.301 . S
N268 C266 1.317 . S
N269 C265 1.328 1_554 S
N269 C267 1.350 1_554 S
H270 C265 0.930 . S
H271 C266 0.930 . S
C272 O273 1.224 . S
C272 O291 1.247 . S
O273 C272 1.224 . S
N274 Co264 2.128 . S
N274 C275 1.355 . S
N274 C277 1.311 . S
C275 N274 1.355 . S
C275 C276 1.363 . S
C275 H287 0.929 . S
C276 C275 1.363 . S
C276 N278 1.375 . S
C276 H294 0.931 . S
C277 N274 1.311 . S
C277 N278 1.347 . S
C277 H288 0.929 . S
N278 C276 1.375 . S
N278 C277 1.347 . S
C279 C282 1.365 . S
C279 N284 1.328 . S
C279 H285 0.929 . S
C280 C281 1.362 . S
C280 C283 1.378 . S
C280 H295 0.929 . S
C281 C280 1.362 . S
C281 C282 1.366 . S
C282 C279 1.365 . S
C282 C281 1.366 . S
C282 H296 0.930 . S
C283 C280 1.378 . S
C283 N284 1.315 . S
C283 H286 0.930 . S
N284 Co264 2.194 . S
N284 C279 1.328 . S
N284 C283 1.315 . S
H285 C279 0.929 . S
H286 C283 0.930 . S
H287 C275 0.929 . S
H288 C277 0.929 . S
O289 Co264 2.351 . S
O289 C292 1.244 . S
O290 Co264 2.155 . S
O290 C292 1.240 . S
O291 Co264 2.096 . S
O291 C272 1.247 . S
C292 O289 1.244 . S
C292 O290 1.240 . S
H293 C267 0.931 1_554 S
H294 C276 0.931 . S
H295 C280 0.929 . S
H296 C282 0.930 . S
Co297 N301 2.148 1_565 S
Co297 N307 2.128 . S
Co297 N317 2.194 . S
Co297 O322 2.351 . S
Co297 O323 2.155 . S
Co297 O324 2.096 1_565 S
C298 N301 1.301 1_565 S
C298 N302 1.328 . S
C298 H303 0.930 . S
C299 C300 1.333 . S
C299 N301 1.317 . S
C299 H304 0.930 . S
C300 C299 1.333 . S
C300 N302 1.350 1_545 S
C300 H326 0.931 . S
N301 Co297 2.148 1_545 S
N301 C298 1.301 1_545 S
N301 C299 1.317 . S
N302 C298 1.328 . S
N302 C300 1.350 1_565 S
H303 C298 0.930 . S
H304 C299 0.930 . S
C305 O306 1.224 . S
C305 O324 1.247 . S
O306 C305 1.224 . S
N307 Co297 2.128 . S
N307 C308 1.355 . S
N307 C310 1.311 1_565 S
C308 N307 1.355 . S
C308 C309 1.363 . S
C308 H320 0.929 . S
C309 C308 1.363 . S
C309 N311 1.375 1_565 S
C309 H327 0.931 . S
C310 N307 1.311 1_545 S
C310 N311 1.347 . S
C310 H321 0.929 . S
N311 C309 1.375 1_545 S
N311 C310 1.347 . S
C312 C315 1.365 . S
C312 N317 1.334 . S
C312 H318 0.929 . S
C313 C314 1.362 . S
C313 C316 1.378 . S
C313 H328 0.929 . S
C314 C313 1.362 . S
C314 C315 1.366 1_545 S
C315 C312 1.365 . S
C315 C314 1.366 1_565 S
C315 H329 0.930 . S
C316 C313 1.378 . S
C316 N317 1.309 1_545 S
C316 H319 0.930 . S
N317 Co297 2.194 . S
N317 C312 1.334 . S
N317 C316 1.309 1_565 S
H318 C312 0.929 . S
H319 C316 0.930 . S
H320 C308 0.929 . S
H321 C310 0.929 . S
O322 Co297 2.351 . S
O322 C325 1.244 . S
O323 Co297 2.155 . S
O323 C325 1.240 . S
O324 Co297 2.096 1_545 S
O324 C305 1.247 . S
C325 O322 1.244 . S
C325 O323 1.240 . S
H326 C300 0.931 . S
H327 C309 0.931 . S
H328 C313 0.929 . S
H329 C315 0.930 . S
Co330 N334 2.148 . S
Co330 N340 2.128 . S
Co330 N350 2.194 . S
Co330 O355 2.351 . S
Co330 O356 2.155 . S
Co330 O357 2.096 . S
C331 N334 1.301 . S
C331 N335 1.328 . S
C331 H336 0.930 . S
C332 C333 1.333 . S
C332 N334 1.317 . S
C332 H337 0.930 . S
C333 C332 1.333 . S
C333 N335 1.350 . S
C333 H359 0.931 . S
N334 Co330 2.148 . S
N334 C331 1.301 . S
N334 C332 1.317 . S
N335 C331 1.328 . S
N335 C333 1.350 . S
H336 C331 0.930 . S
H337 C332 0.930 . S
C338 O339 1.224 . S
C338 O357 1.247 . S
O339 C338 1.224 . S
N340 Co330 2.128 . S
N340 C341 1.355 . S
N340 C343 1.311 . S
C341 N340 1.355 . S
C341 C342 1.363 . S
C341 H353 0.929 . S
C342 C341 1.363 . S
C342 N344 1.375 . S
C342 H360 0.931 . S
C343 N340 1.311 . S
C343 N344 1.347 . S
C343 H354 0.929 . S
N344 C342 1.375 . S
N344 C343 1.347 . S
C345 C348 1.365 . S
C345 N350 1.328 . S
C345 H351 0.929 . S
C346 C347 1.362 . S
C346 C349 1.378 . S
C346 H361 0.929 . S
C347 C346 1.362 . S
C347 C348 1.366 . S
C348 C345 1.365 . S
C348 C347 1.366 . S
C348 H362 0.930 . S
C349 C346 1.378 . S
C349 N350 1.315 . S
C349 H352 0.930 . S
N350 Co330 2.194 . S
N350 C345 1.328 . S
N350 C349 1.315 . S
H351 C345 0.929 . S
H352 C349 0.930 . S
H353 C341 0.929 . S
H354 C343 0.929 . S
O355 Co330 2.351 . S
O355 C358 1.244 . S
O356 Co330 2.155 . S
O356 C358 1.240 . S
O357 Co330 2.096 . S
O357 C338 1.247 . S
C358 O355 1.244 . S
C358 O356 1.240 . S
H359 C333 0.931 . S
H360 C342 0.931 . S
H361 C346 0.929 . S
H362 C348 0.930 . S
Co363 N367 2.148 1_545 S
Co363 N373 2.128 . S
Co363 N383 2.194 . S
Co363 O388 2.351 . S
Co363 O389 2.155 . S
Co363 O390 2.096 1_545 S
C364 N367 1.301 1_545 S
C364 N368 1.328 . S
C364 H369 0.930 . S
C365 C366 1.333 . S
C365 N367 1.317 . S
C365 H370 0.930 . S
C366 C365 1.333 . S
C366 N368 1.350 1_565 S
C366 H392 0.931 . S
N367 Co363 2.148 1_565 S
N367 C364 1.301 1_565 S
N367 C365 1.317 . S
N368 C364 1.328 . S
N368 C366 1.350 1_545 S
H369 C364 0.930 . S
H370 C365 0.930 . S
C371 O372 1.224 . S
C371 O390 1.247 . S
O372 C371 1.224 . S
N373 Co363 2.128 . S
N373 C374 1.355 . S
N373 C376 1.311 1_545 S
C374 N373 1.355 . S
C374 C375 1.363 . S
C374 H386 0.929 . S
C375 C374 1.363 . S
C375 N377 1.375 1_545 S
C375 H393 0.931 . S
C376 N373 1.311 1_565 S
C376 N377 1.347 . S
C376 H387 0.929 . S
N377 C375 1.375 1_565 S
N377 C376 1.347 . S
C378 C381 1.365 . S
C378 N383 1.335 . S
C378 H384 0.929 . S
C379 C380 1.362 . S
C379 C382 1.378 . S
C379 H394 0.929 . S
C380 C379 1.362 . S
C380 C381 1.366 1_565 S
C381 C378 1.365 . S
C381 C380 1.366 1_545 S
C381 H395 0.930 . S
C382 C379 1.378 . S
C382 N383 1.308 1_565 S
C382 H385 0.930 . S
N383 Co363 2.194 . S
N383 C378 1.335 . S
N383 C382 1.308 1_545 S
H384 C378 0.929 . S
H385 C382 0.930 . S
H386 C374 0.929 . S
H387 C376 0.929 . S
O388 Co363 2.351 . S
O388 C391 1.244 . S
O389 Co363 2.155 . S
O389 C391 1.240 . S
O390 Co363 2.096 1_565 S
O390 C371 1.247 . S
C391 O388 1.244 . S
C391 O389 1.240 . S
H392 C366 0.931 . S
H393 C375 0.931 . S
H394 C379 0.929 . S
H395 C381 0.930 . S
Co396 N400 2.148 . S
Co396 N406 2.128 . S
Co396 N416 2.194 . S
Co396 O421 2.351 . S
Co396 O422 2.155 . S
Co396 O423 2.096 . S
C397 N400 1.301 . S
C397 N401 1.328 1_554 S
C397 H402 0.930 . S
C398 C399 1.333 . S
C398 N400 1.317 . S
C398 H403 0.930 . S
C399 C398 1.333 . S
C399 N401 1.350 1_554 S
C399 H425 0.931 1_554 S
N400 Co396 2.148 . S
N400 C397 1.301 . S
N400 C398 1.317 . S
N401 C397 1.328 1_556 S
N401 C399 1.350 1_556 S
H402 C397 0.930 . S
H403 C398 0.930 . S
C404 O405 1.224 . S
C404 O423 1.247 . S
O405 C404 1.224 . S
N406 Co396 2.128 . S
N406 C407 1.355 . S
N406 C409 1.311 . S
C407 N406 1.355 . S
C407 C408 1.363 . S
C407 H419 0.929 . S
C408 C407 1.363 . S
C408 N410 1.375 . S
C408 H426 0.931 . S
C409 N406 1.311 . S
C409 N410 1.347 . S
C409 H420 0.929 . S
N410 C408 1.375 . S
N410 C409 1.347 . S
C411 C414 1.365 . S
C411 N416 1.328 . S
C411 H417 0.929 . S
C412 C413 1.362 . S
C412 C415 1.378 . S
C412 H427 0.929 . S
C413 C412 1.362 . S
C413 C414 1.366 . S
C414 C411 1.365 . S
C414 C413 1.366 . S
C414 H428 0.930 . S
C415 C412 1.378 . S
C415 N416 1.315 . S
C415 H418 0.930 . S
N416 Co396 2.194 . S
N416 C411 1.328 . S
N416 C415 1.315 . S
H417 C411 0.929 . S
H418 C415 0.930 . S
H419 C407 0.929 . S
H420 C409 0.929 . S
O421 Co396 2.351 . S
O421 C424 1.244 . S
O422 Co396 2.155 . S
O422 C424 1.240 . S
O423 Co396 2.096 . S
O423 C404 1.247 . S
C424 O421 1.244 . S
C424 O422 1.240 . S
H425 C399 0.931 1_556 S
H426 C408 0.931 . S
H427 C412 0.929 . S
H428 C414 0.930 . S
Co429 N433 2.148 1_565 S
Co429 N439 2.128 . S
Co429 N449 2.194 . S
Co429 O454 2.351 . S
Co429 O455 2.155 . S
Co429 O456 2.096 1_565 S
C430 N433 1.301 1_565 S
C430 N434 1.328 . S
C430 H435 0.930 . S
C431 C432 1.333 . S
C431 N433 1.317 . S
C431 H436 0.930 . S
C432 C431 1.333 . S
C432 N434 1.350 1_545 S
C432 H458 0.931 . S
N433 Co429 2.148 1_545 S
N433 C430 1.301 1_545 S
N433 C431 1.317 . S
N434 C430 1.328 . S
N434 C432 1.350 1_565 S
H435 C430 0.930 . S
H436 C431 0.930 . S
C437 O438 1.224 . S
C437 O456 1.247 . S
O438 C437 1.224 . S
N439 Co429 2.128 . S
N439 C440 1.355 . S
N439 C442 1.311 1_565 S
C440 N439 1.355 . S
C440 C441 1.363 . S
C440 H452 0.929 . S
C441 C440 1.363 . S
C441 N443 1.375 1_565 S
C441 H459 0.931 . S
C442 N439 1.311 1_545 S
C442 N443 1.347 . S
C442 H453 0.929 . S
N443 C441 1.375 1_545 S
N443 C442 1.347 . S
C444 C447 1.365 . S
C444 N449 1.335 . S
C444 H450 0.929 . S
C445 C446 1.362 . S
C445 C448 1.378 . S
C445 H460 0.929 . S
C446 C445 1.362 . S
C446 C447 1.366 1_545 S
C447 C444 1.365 . S
C447 C446 1.366 1_565 S
C447 H461 0.930 . S
C448 C445 1.378 . S
C448 N449 1.308 1_545 S
C448 H451 0.930 . S
N449 Co429 2.194 . S
N449 C444 1.335 . S
N449 C448 1.308 1_565 S
H450 C444 0.929 . S
H451 C448 0.930 . S
H452 C440 0.929 . S
H453 C442 0.929 . S
O454 Co429 2.351 . S
O454 C457 1.244 . S
O455 Co429 2.155 . S
O455 C457 1.240 . S
O456 Co429 2.096 1_545 S
O456 C437 1.247 . S
C457 O454 1.244 . S
C457 O455 1.240 . S
H458 C432 0.931 . S
H459 C441 0.931 . S
H460 C445 0.929 . S
H461 C447 0.930 . S
Co462 N466 2.148 . S
Co462 N472 2.128 . S
Co462 N482 2.194 . S
Co462 O487 2.351 . S
Co462 O488 2.155 . S
Co462 O489 2.096 . S
C463 N466 1.301 . S
C463 N467 1.328 . S
C463 H468 0.930 . S
C464 C465 1.333 . S
C464 N466 1.317 . S
C464 H469 0.930 . S
C465 C464 1.333 . S
C465 N467 1.350 . S
C465 H491 0.931 . S
N466 Co462 2.148 . S
N466 C463 1.301 . S
N466 C464 1.317 . S
N467 C463 1.328 . S
N467 C465 1.350 . S
H468 C463 0.930 . S
H469 C464 0.930 . S
C470 O471 1.224 . S
C470 O489 1.247 . S
O471 C470 1.224 . S
N472 Co462 2.128 . S
N472 C473 1.355 . S
N472 C475 1.311 . S
C473 N472 1.355 . S
C473 C474 1.363 . S
C473 H485 0.929 . S
C474 C473 1.363 . S
C474 N476 1.375 . S
C474 H492 0.931 . S
C475 N472 1.311 . S
C475 N476 1.347 . S
C475 H486 0.929 . S
N476 C474 1.375 . S
N476 C475 1.347 . S
C477 C480 1.365 . S
C477 N482 1.328 . S
C477 H483 0.929 . S
C478 C479 1.362 . S
C478 C481 1.378 . S
C478 H493 0.929 . S
C479 C478 1.362 . S
C479 C480 1.366 . S
C480 C477 1.365 . S
C480 C479 1.366 . S
C480 H494 0.930 . S
C481 C478 1.378 . S
C481 N482 1.315 . S
C481 H484 0.930 . S
N482 Co462 2.194 . S
N482 C477 1.328 . S
N482 C481 1.315 . S
H483 C477 0.929 . S
H484 C481 0.930 . S
H485 C473 0.929 . S
H486 C475 0.929 . S
O487 Co462 2.351 . S
O487 C490 1.244 . S
O488 Co462 2.155 . S
O488 C490 1.240 . S
O489 Co462 2.096 . S
O489 C470 1.247 . S
C490 O487 1.244 . S
C490 O488 1.240 . S
H491 C465 0.931 . S
H492 C474 0.931 . S
H493 C478 0.929 . S
H494 C480 0.930 . S
Co495 N499 2.148 1_545 S
Co495 N505 2.128 . S
Co495 N515 2.194 . S
Co495 O520 2.351 . S
Co495 O521 2.155 . S
Co495 O522 2.096 1_545 S
C496 N499 1.301 1_545 S
C496 N500 1.328 . S
C496 H501 0.930 . S
C497 C498 1.333 . S
C497 N499 1.317 . S
C497 H502 0.930 . S
C498 C497 1.333 . S
C498 N500 1.350 1_565 S
C498 H524 0.931 . S
N499 Co495 2.148 1_565 S
N499 C496 1.301 1_565 S
N499 C497 1.317 . S
N500 C496 1.328 . S
N500 C498 1.350 1_545 S
H501 C496 0.930 . S
H502 C497 0.930 . S
C503 O504 1.224 . S
C503 O522 1.247 . S
O504 C503 1.224 . S
N505 Co495 2.128 . S
N505 C506 1.355 . S
N505 C508 1.311 1_545 S
C506 N505 1.355 . S
C506 C507 1.363 . S
C506 H518 0.929 . S
C507 C506 1.363 . S
C507 N509 1.375 1_545 S
C507 H525 0.931 . S
C508 N505 1.311 1_565 S
C508 N509 1.347 . S
C508 H519 0.929 . S
N509 C507 1.375 1_565 S
N509 C508 1.347 . S
C510 C513 1.365 . S
C510 N515 1.334 . S
C510 H516 0.929 . S
C511 C512 1.362 . S
C511 C514 1.378 . S
C511 H526 0.929 . S
C512 C511 1.362 . S
C512 C513 1.366 1_565 S
C513 C510 1.365 . S
C513 C512 1.366 1_545 S
C513 H527 0.930 . S
C514 C511 1.378 . S
C514 N515 1.309 1_565 S
C514 H517 0.930 . S
N515 Co495 2.194 . S
N515 C510 1.334 . S
N515 C514 1.309 1_545 S
H516 C510 0.929 . S
H517 C514 0.930 . S
H518 C506 0.929 . S
H519 C508 0.929 . S
O520 Co495 2.351 . S
O520 C523 1.244 . S
O521 Co495 2.155 . S
O521 C523 1.240 . S
O522 Co495 2.096 1_565 S
O522 C503 1.247 . S
C523 O520 1.244 . S
C523 O521 1.240 . S
H524 C498 0.931 . S
H525 C507 0.931 . S
H526 C511 0.929 . S
H527 C513 0.930 . S
Co528 N532 2.148 . S
Co528 N538 2.128 . S
Co528 N548 2.194 . S
Co528 O553 2.351 . S
Co528 O554 2.155 . S
Co528 O555 2.096 . S
C529 N532 1.301 . S
C529 N533 1.328 . S
C529 H534 0.930 . S
C530 C531 1.333 . S
C530 N532 1.317 . S
C530 H535 0.930 . S
C531 C530 1.333 . S
C531 N533 1.350 . S
C531 H557 0.931 . S
N532 Co528 2.148 . S
N532 C529 1.301 . S
N532 C530 1.317 . S
N533 C529 1.328 . S
N533 C531 1.350 . S
H534 C529 0.930 . S
H535 C530 0.930 . S
C536 O537 1.224 . S
C536 O555 1.247 . S
O537 C536 1.224 . S
N538 Co528 2.128 . S
N538 C539 1.355 . S
N538 C541 1.311 . S
C539 N538 1.355 . S
C539 C540 1.363 . S
C539 H551 0.929 . S
C540 C539 1.363 . S
C540 N542 1.375 . S
C540 H558 0.931 . S
C541 N538 1.311 . S
C541 N542 1.347 . S
C541 H552 0.929 . S
N542 C540 1.375 . S
N542 C541 1.347 . S
C543 C546 1.365 . S
C543 N548 1.328 . S
C543 H549 0.929 . S
C544 C545 1.362 . S
C544 C547 1.378 . S
C544 H559 0.929 . S
C545 C544 1.362 . S
C545 C546 1.366 . S
C546 C543 1.365 . S
C546 C545 1.366 . S
C546 H560 0.930 . S
C547 C544 1.378 . S
C547 N548 1.315 . S
C547 H550 0.930 . S
N548 Co528 2.194 . S
N548 C543 1.328 . S
N548 C547 1.315 . S
H549 C543 0.929 . S
H550 C547 0.930 . S
H551 C539 0.929 . S
H552 C541 0.929 . S
O553 Co528 2.351 . S
O553 C556 1.244 . S
O554 Co528 2.155 . S
O554 C556 1.240 . S
O555 Co528 2.096 . S
O555 C536 1.247 . S
C556 O553 1.244 . S
C556 O554 1.240 . S
H557 C531 0.931 . S
H558 C540 0.931 . S
H559 C544 0.929 . S
H560 C546 0.930 . S
Co561 N565 2.148 . S
Co561 N571 2.128 . S
Co561 N581 2.194 . S
Co561 O586 2.351 . S
Co561 O587 2.155 . S
Co561 O588 2.096 . S
C562 N565 1.301 . S
C562 N566 1.328 . S
C562 H567 0.930 . S
C563 C564 1.333 . S
C563 N565 1.317 . S
C563 H568 0.930 . S
C564 C563 1.333 . S
C564 N566 1.350 . S
C564 H590 0.931 . S
N565 Co561 2.148 . S
N565 C562 1.301 . S
N565 C563 1.317 . S
N566 C562 1.328 . S
N566 C564 1.350 . S
H567 C562 0.930 . S
H568 C563 0.930 . S
C569 O570 1.224 . S
C569 O588 1.247 . S
O570 C569 1.224 . S
N571 Co561 2.128 . S
N571 C572 1.355 . S
N571 C574 1.311 . S
C572 N571 1.355 . S
C572 C573 1.363 . S
C572 H584 0.929 . S
C573 C572 1.363 . S
C573 N575 1.375 . S
C573 H591 0.931 . S
C574 N571 1.311 . S
C574 N575 1.347 . S
C574 H585 0.929 . S
N575 C573 1.375 . S
N575 C574 1.347 . S
C576 C579 1.365 . S
C576 N581 1.328 . S
C576 H582 0.929 . S
C577 C578 1.362 . S
C577 C580 1.378 . S
C577 H592 0.929 . S
C578 C577 1.362 . S
C578 C579 1.366 . S
C579 C576 1.365 . S
C579 C578 1.366 . S
C579 H593 0.930 . S
C580 C577 1.378 . S
C580 N581 1.315 . S
C580 H583 0.930 . S
N581 Co561 2.194 . S
N581 C576 1.328 . S
N581 C580 1.315 . S
H582 C576 0.929 . S
H583 C580 0.930 . S
H584 C572 0.929 . S
H585 C574 0.929 . S
O586 Co561 2.351 . S
O586 C589 1.244 . S
O587 Co561 2.155 . S
O587 C589 1.240 . S
O588 Co561 2.096 . S
O588 C569 1.247 . S
C589 O586 1.244 . S
C589 O587 1.240 . S
H590 C564 0.931 . S
H591 C573 0.931 . S
H592 C577 0.929 . S
H593 C579 0.930 . S
Co594 N598 2.148 . S
Co594 N604 2.128 . S
Co594 N614 2.194 . S
Co594 O619 2.351 . S
Co594 O620 2.155 . S
Co594 O621 2.096 . S
C595 N598 1.301 . S
C595 N599 1.328 1_554 S
C595 H600 0.930 . S
C596 C597 1.333 . S
C596 N598 1.317 . S
C596 H601 0.930 . S
C597 C596 1.333 . S
C597 N599 1.350 1_554 S
C597 H623 0.931 1_554 S
N598 Co594 2.148 . S
N598 C595 1.301 . S
N598 C596 1.317 . S
N599 C595 1.328 1_556 S
N599 C597 1.350 1_556 S
H600 C595 0.930 . S
H601 C596 0.930 . S
C602 O603 1.224 . S
C602 O621 1.247 . S
O603 C602 1.224 . S
N604 Co594 2.128 . S
N604 C605 1.355 . S
N604 C607 1.311 . S
C605 N604 1.355 . S
C605 C606 1.363 . S
C605 H617 0.929 . S
C606 C605 1.363 . S
C606 N608 1.375 . S
C606 H624 0.931 . S
C607 N604 1.311 . S
C607 N608 1.347 . S
C607 H618 0.929 . S
N608 C606 1.375 . S
N608 C607 1.347 . S
C609 C612 1.365 . S
C609 N614 1.328 . S
C609 H615 0.929 . S
C610 C611 1.362 . S
C610 C613 1.378 . S
C610 H625 0.929 . S
C611 C610 1.362 . S
C611 C612 1.366 . S
C612 C609 1.365 . S
C612 C611 1.366 . S
C612 H626 0.930 . S
C613 C610 1.378 . S
C613 N614 1.315 . S
C613 H616 0.930 . S
N614 Co594 2.194 . S
N614 C609 1.328 . S
N614 C613 1.315 . S
H615 C609 0.929 . S
H616 C613 0.930 . S
H617 C605 0.929 . S
H618 C607 0.929 . S
O619 Co594 2.351 . S
O619 C622 1.244 . S
O620 Co594 2.155 . S
O620 C622 1.240 . S
O621 Co594 2.096 . S
O621 C602 1.247 . S
C622 O619 1.244 . S
C622 O620 1.240 . S
H623 C597 0.931 1_556 S
H624 C606 0.931 . S
H625 C610 0.929 . S
H626 C612 0.930 . S
Co627 N631 2.148 . S
Co627 N637 2.128 . S
Co627 N647 2.194 . S
Co627 O652 2.351 . S
Co627 O653 2.155 . S
Co627 O654 2.096 . S
C628 N631 1.301 . S
C628 N632 1.328 . S
C628 H633 0.930 . S
C629 C630 1.333 . S
C629 N631 1.317 . S
C629 H634 0.930 . S
C630 C629 1.333 . S
C630 N632 1.350 . S
C630 H656 0.931 . S
N631 Co627 2.148 . S
N631 C628 1.301 . S
N631 C629 1.317 . S
N632 C628 1.328 . S
N632 C630 1.350 . S
H633 C628 0.930 . S
H634 C629 0.930 . S
C635 O636 1.224 . S
C635 O654 1.247 . S
O636 C635 1.224 . S
N637 Co627 2.128 . S
N637 C638 1.355 . S
N637 C640 1.311 . S
C638 N637 1.355 . S
C638 C639 1.363 . S
C638 H650 0.929 . S
C639 C638 1.363 . S
C639 N641 1.375 . S
C639 H657 0.931 . S
C640 N637 1.311 . S
C640 N641 1.347 . S
C640 H651 0.929 . S
N641 C639 1.375 . S
N641 C640 1.347 . S
C642 C645 1.365 . S
C642 N647 1.328 . S
C642 H648 0.929 . S
C643 C644 1.362 . S
C643 C646 1.378 . S
C643 H658 0.929 . S
C644 C643 1.362 . S
C644 C645 1.366 . S
C645 C642 1.365 . S
C645 C644 1.366 . S
C645 H659 0.930 . S
C646 C643 1.378 . S
C646 N647 1.315 . S
C646 H649 0.930 . S
N647 Co627 2.194 . S
N647 C642 1.328 . S
N647 C646 1.315 . S
H648 C642 0.929 . S
H649 C646 0.930 . S
H650 C638 0.929 . S
H651 C640 0.929 . S
O652 Co627 2.351 . S
O652 C655 1.244 . S
O653 Co627 2.155 . S
O653 C655 1.240 . S
O654 Co627 2.096 . S
O654 C635 1.247 . S
C655 O652 1.244 . S
C655 O653 1.240 . S
H656 C630 0.931 . S
H657 C639 0.931 . S
H658 C643 0.929 . S
H659 C645 0.930 . S
Co660 N664 2.148 . S
Co660 N670 2.128 . S
Co660 N680 2.194 . S
Co660 O685 2.351 . S
Co660 O686 2.155 . S
Co660 O687 2.096 . S
C661 N664 1.301 . S
C661 N665 1.328 . S
C661 H666 0.930 . S
C662 C663 1.333 . S
C662 N664 1.317 . S
C662 H667 0.930 . S
C663 C662 1.333 . S
C663 N665 1.350 . S
C663 H689 0.931 . S
N664 Co660 2.148 . S
N664 C661 1.301 . S
N664 C662 1.317 . S
N665 C661 1.328 . S
N665 C663 1.350 . S
H666 C661 0.930 . S
H667 C662 0.930 . S
C668 O669 1.224 . S
C668 O687 1.247 . S
O669 C668 1.224 . S
N670 Co660 2.128 . S
N670 C671 1.355 . S
N670 C673 1.311 . S
C671 N670 1.355 . S
C671 C672 1.363 . S
C671 H683 0.929 . S
C672 C671 1.363 . S
C672 N674 1.375 . S
C672 H690 0.931 . S
C673 N670 1.311 . S
C673 N674 1.347 . S
C673 H684 0.929 . S
N674 C672 1.375 . S
N674 C673 1.347 . S
C675 C678 1.365 . S
C675 N680 1.328 . S
C675 H681 0.929 . S
C676 C677 1.362 . S
C676 C679 1.378 . S
C676 H691 0.929 . S
C677 C676 1.362 . S
C677 C678 1.366 . S
C678 C675 1.365 . S
C678 C677 1.366 . S
C678 H692 0.930 . S
C679 C676 1.378 . S
C679 N680 1.315 . S
C679 H682 0.930 . S
N680 Co660 2.194 . S
N680 C675 1.328 . S
N680 C679 1.315 . S
H681 C675 0.929 . S
H682 C679 0.930 . S
H683 C671 0.929 . S
H684 C673 0.929 . S
O685 Co660 2.351 . S
O685 C688 1.244 . S
O686 Co660 2.155 . S
O686 C688 1.240 . S
O687 Co660 2.096 . S
O687 C668 1.247 . S
C688 O685 1.244 . S
C688 O686 1.240 . S
H689 C663 0.931 . S
H690 C672 0.931 . S
H691 C676 0.929 . S
H692 C678 0.930 . S
Co693 N697 2.148 . S
Co693 N703 2.128 . S
Co693 N713 2.194 . S
Co693 O718 2.351 . S
Co693 O719 2.155 . S
Co693 O720 2.096 . S
C694 N697 1.301 . S
C694 N698 1.328 . S
C694 H699 0.930 . S
C695 C696 1.333 . S
C695 N697 1.317 . S
C695 H700 0.930 . S
C696 C695 1.333 . S
C696 N698 1.350 . S
C696 H722 0.931 . S
N697 Co693 2.148 . S
N697 C694 1.301 . S
N697 C695 1.317 . S
N698 C694 1.328 . S
N698 C696 1.350 . S
H699 C694 0.930 . S
H700 C695 0.930 . S
C701 O702 1.224 . S
C701 O720 1.247 . S
O702 C701 1.224 . S
N703 Co693 2.128 . S
N703 C704 1.355 . S
N703 C706 1.311 . S
C704 N703 1.355 . S
C704 C705 1.363 . S
C704 H716 0.929 . S
C705 C704 1.363 . S
C705 N707 1.375 . S
C705 H723 0.931 . S
C706 N703 1.311 . S
C706 N707 1.347 . S
C706 H717 0.929 . S
N707 C705 1.375 . S
N707 C706 1.347 . S
C708 C711 1.365 . S
C708 N713 1.328 . S
C708 H714 0.929 . S
C709 C710 1.362 . S
C709 C712 1.378 . S
C709 H724 0.929 . S
C710 C709 1.362 . S
C710 C711 1.366 . S
C711 C708 1.365 . S
C711 C710 1.366 . S
C711 H725 0.930 . S
C712 C709 1.378 . S
C712 N713 1.315 . S
C712 H715 0.930 . S
N713 Co693 2.194 . S
N713 C708 1.328 . S
N713 C712 1.315 . S
H714 C708 0.929 . S
H715 C712 0.930 . S
H716 C704 0.929 . S
H717 C706 0.929 . S
O718 Co693 2.351 . S
O718 C721 1.244 . S
O719 Co693 2.155 . S
O719 C721 1.240 . S
O720 Co693 2.096 . S
O720 C701 1.247 . S
C721 O718 1.244 . S
C721 O719 1.240 . S
H722 C696 0.931 . S
H723 C705 0.931 . S
H724 C709 0.929 . S
H725 C711 0.930 . S
Co726 N730 2.148 . S
Co726 N736 2.128 . S
Co726 N746 2.194 . S
Co726 O751 2.351 . S
Co726 O752 2.155 . S
Co726 O753 2.096 . S
C727 N730 1.301 . S
C727 N731 1.328 1_556 S
C727 H732 0.930 . S
C728 C729 1.333 . S
C728 N730 1.317 . S
C728 H733 0.930 . S
C729 C728 1.333 . S
C729 N731 1.350 1_556 S
C729 H755 0.931 1_556 S
N730 Co726 2.148 . S
N730 C727 1.301 . S
N730 C728 1.317 . S
N731 C727 1.328 1_554 S
N731 C729 1.350 1_554 S
H732 C727 0.930 . S
H733 C728 0.930 . S
C734 O735 1.224 . S
C734 O753 1.247 . S
O735 C734 1.224 . S
N736 Co726 2.128 . S
N736 C737 1.355 . S
N736 C739 1.311 . S
C737 N736 1.355 . S
C737 C738 1.363 . S
C737 H749 0.929 . S
C738 C737 1.363 . S
C738 N740 1.375 . S
C738 H756 0.931 . S
C739 N736 1.311 . S
C739 N740 1.347 . S
C739 H750 0.929 . S
N740 C738 1.375 . S
N740 C739 1.347 . S
C741 C744 1.365 . S
C741 N746 1.328 . S
C741 H747 0.929 . S
C742 C743 1.362 . S
C742 C745 1.378 . S
C742 H757 0.929 . S
C743 C742 1.362 . S
C743 C744 1.366 . S
C744 C741 1.365 . S
C744 C743 1.366 . S
C744 H758 0.930 . S
C745 C742 1.378 . S
C745 N746 1.315 . S
C745 H748 0.930 . S
N746 Co726 2.194 . S
N746 C741 1.328 . S
N746 C745 1.315 . S
H747 C741 0.929 . S
H748 C745 0.930 . S
H749 C737 0.929 . S
H750 C739 0.929 . S
O751 Co726 2.351 . S
O751 C754 1.244 . S
O752 Co726 2.155 . S
O752 C754 1.240 . S
O753 Co726 2.096 . S
O753 C734 1.247 . S
C754 O751 1.244 . S
C754 O752 1.240 . S
H755 C729 0.931 1_554 S
H756 C738 0.931 . S
H757 C742 0.929 . S
H758 C744 0.930 . S
Co759 N763 2.148 . S
Co759 N769 2.128 . S
Co759 N779 2.194 . S
Co759 O784 2.351 . S
Co759 O785 2.155 . S
Co759 O786 2.096 . S
C760 N763 1.301 . S
C760 N764 1.328 . S
C760 H765 0.930 . S
C761 C762 1.333 . S
C761 N763 1.317 . S
C761 H766 0.930 . S
C762 C761 1.333 . S
C762 N764 1.350 . S
C762 H788 0.931 . S
N763 Co759 2.148 . S
N763 C760 1.301 . S
N763 C761 1.317 . S
N764 C760 1.328 . S
N764 C762 1.350 . S
H765 C760 0.930 . S
H766 C761 0.930 . S
C767 O768 1.224 . S
C767 O786 1.247 . S
O768 C767 1.224 . S
N769 Co759 2.128 . S
N769 C770 1.355 . S
N769 C772 1.311 . S
C770 N769 1.355 . S
C770 C771 1.363 . S
C770 H782 0.929 . S
C771 C770 1.363 . S
C771 N773 1.375 . S
C771 H789 0.931 . S
C772 N769 1.311 . S
C772 N773 1.347 . S
C772 H783 0.929 . S
N773 C771 1.375 . S
N773 C772 1.347 . S
C774 C777 1.365 . S
C774 N779 1.328 . S
C774 H780 0.929 . S
C775 C776 1.362 . S
C775 C778 1.378 . S
C775 H790 0.929 . S
C776 C775 1.362 . S
C776 C777 1.366 . S
C777 C774 1.365 . S
C777 C776 1.366 . S
C777 H791 0.930 . S
C778 C775 1.378 . S
C778 N779 1.315 . S
C778 H781 0.930 . S
N779 Co759 2.194 . S
N779 C774 1.328 . S
N779 C778 1.315 . S
H780 C774 0.929 . S
H781 C778 0.930 . S
H782 C770 0.929 . S
H783 C772 0.929 . S
O784 Co759 2.351 . S
O784 C787 1.244 . S
O785 Co759 2.155 . S
O785 C787 1.240 . S
O786 Co759 2.096 . S
O786 C767 1.247 . S
C787 O784 1.244 . S
C787 O785 1.240 . S
H788 C762 0.931 . S
H789 C771 0.931 . S
H790 C775 0.929 . S
H791 C777 0.930 . S
Co792 N796 2.148 . S
Co792 N802 2.128 . S
Co792 N812 2.194 . S
Co792 O817 2.351 . S
Co792 O818 2.155 . S
Co792 O819 2.096 . S
C793 N796 1.301 . S
C793 N797 1.328 . S
C793 H798 0.930 . S
C794 C795 1.333 . S
C794 N796 1.317 . S
C794 H799 0.930 . S
C795 C794 1.333 . S
C795 N797 1.350 . S
C795 H821 0.931 . S
N796 Co792 2.148 . S
N796 C793 1.301 . S
N796 C794 1.317 . S
N797 C793 1.328 . S
N797 C795 1.350 . S
H798 C793 0.930 . S
H799 C794 0.930 . S
C800 O801 1.224 . S
C800 O819 1.247 . S
O801 C800 1.224 . S
N802 Co792 2.128 . S
N802 C803 1.355 . S
N802 C805 1.311 . S
C803 N802 1.355 . S
C803 C804 1.363 . S
C803 H815 0.929 . S
C804 C803 1.363 . S
C804 N806 1.375 . S
C804 H822 0.931 . S
C805 N802 1.311 . S
C805 N806 1.347 . S
C805 H816 0.929 . S
N806 C804 1.375 . S
N806 C805 1.347 . S
C807 C810 1.365 . S
C807 N812 1.328 . S
C807 H813 0.929 . S
C808 C809 1.362 . S
C808 C811 1.378 . S
C808 H823 0.929 . S
C809 C808 1.362 . S
C809 C810 1.366 . S
C810 C807 1.365 . S
C810 C809 1.366 . S
C810 H824 0.930 . S
C811 C808 1.378 . S
C811 N812 1.315 . S
C811 H814 0.930 . S
N812 Co792 2.194 . S
N812 C807 1.328 . S
N812 C811 1.315 . S
H813 C807 0.929 . S
H814 C811 0.930 . S
H815 C803 0.929 . S
H816 C805 0.929 . S
O817 Co792 2.351 . S
O817 C820 1.244 . S
O818 Co792 2.155 . S
O818 C820 1.240 . S
O819 Co792 2.096 . S
O819 C800 1.247 . S
C820 O817 1.244 . S
C820 O818 1.240 . S
H821 C795 0.931 . S
H822 C804 0.931 . S
H823 C808 0.929 . S
H824 C810 0.930 . S
Co825 N829 2.148 . S
Co825 N835 2.128 . S
Co825 N845 2.194 . S
Co825 O850 2.351 . S
Co825 O851 2.155 . S
Co825 O852 2.096 . S
C826 N829 1.301 . S
C826 N830 1.328 . S
C826 H831 0.930 . S
C827 C828 1.333 . S
C827 N829 1.317 . S
C827 H832 0.930 . S
C828 C827 1.333 . S
C828 N830 1.350 . S
C828 H854 0.931 . S
N829 Co825 2.148 . S
N829 C826 1.301 . S
N829 C827 1.317 . S
N830 C826 1.328 . S
N830 C828 1.350 . S
H831 C826 0.930 . S
H832 C827 0.930 . S
C833 O834 1.224 . S
C833 O852 1.247 . S
O834 C833 1.224 . S
N835 Co825 2.128 . S
N835 C836 1.355 . S
N835 C838 1.311 . S
C836 N835 1.355 . S
C836 C837 1.363 . S
C836 H848 0.929 . S
C837 C836 1.363 . S
C837 N839 1.375 . S
C837 H855 0.931 . S
C838 N835 1.311 . S
C838 N839 1.347 . S
C838 H849 0.929 . S
N839 C837 1.375 . S
N839 C838 1.347 . S
C840 C843 1.365 . S
C840 N845 1.328 . S
C840 H846 0.929 . S
C841 C842 1.362 . S
C841 C844 1.378 . S
C841 H856 0.929 . S
C842 C841 1.362 . S
C842 C843 1.366 . S
C843 C840 1.365 . S
C843 C842 1.366 . S
C843 H857 0.930 . S
C844 C841 1.378 . S
C844 N845 1.315 . S
C844 H847 0.930 . S
N845 Co825 2.194 . S
N845 C840 1.328 . S
N845 C844 1.315 . S
H846 C840 0.929 . S
H847 C844 0.930 . S
H848 C836 0.929 . S
H849 C838 0.929 . S
O850 Co825 2.351 . S
O850 C853 1.244 . S
O851 Co825 2.155 . S
O851 C853 1.240 . S
O852 Co825 2.096 . S
O852 C833 1.247 . S
C853 O850 1.244 . S
C853 O851 1.240 . S
H854 C828 0.931 . S
H855 C837 0.931 . S
H856 C841 0.929 . S
H857 C843 0.930 . S
Co858 N862 2.148 . S
Co858 N868 2.128 . S
Co858 N878 2.194 . S
Co858 O883 2.351 . S
Co858 O884 2.155 . S
Co858 O885 2.096 . S
C859 N862 1.301 . S
C859 N863 1.328 1_556 S
C859 H864 0.930 . S
C860 C861 1.333 . S
C860 N862 1.317 . S
C860 H865 0.930 . S
C861 C860 1.333 . S
C861 N863 1.350 1_556 S
C861 H887 0.931 1_556 S
N862 Co858 2.148 . S
N862 C859 1.301 . S
N862 C860 1.317 . S
N863 C859 1.328 1_554 S
N863 C861 1.350 1_554 S
H864 C859 0.930 . S
H865 C860 0.930 . S
C866 O867 1.224 . S
C866 O885 1.247 . S
O867 C866 1.224 . S
N868 Co858 2.128 . S
N868 C869 1.355 . S
N868 C871 1.311 . S
C869 N868 1.355 . S
C869 C870 1.363 . S
C869 H881 0.929 . S
C870 C869 1.363 . S
C870 N872 1.375 . S
C870 H888 0.931 . S
C871 N868 1.311 . S
C871 N872 1.347 . S
C871 H882 0.929 . S
N872 C870 1.375 . S
N872 C871 1.347 . S
C873 C876 1.365 . S
C873 N878 1.328 . S
C873 H879 0.929 . S
C874 C875 1.362 . S
C874 C877 1.378 . S
C874 H889 0.929 . S
C875 C874 1.362 . S
C875 C876 1.366 . S
C876 C873 1.365 . S
C876 C875 1.366 . S
C876 H890 0.930 . S
C877 C874 1.378 . S
C877 N878 1.315 . S
C877 H880 0.930 . S
N878 Co858 2.194 . S
N878 C873 1.328 . S
N878 C877 1.315 . S
H879 C873 0.929 . S
H880 C877 0.930 . S
H881 C869 0.929 . S
H882 C871 0.929 . S
O883 Co858 2.351 . S
O883 C886 1.244 . S
O884 Co858 2.155 . S
O884 C886 1.240 . S
O885 Co858 2.096 . S
O885 C866 1.247 . S
C886 O883 1.244 . S
C886 O884 1.240 . S
H887 C861 0.931 1_554 S
H888 C870 0.931 . S
H889 C874 0.929 . S
H890 C876 0.930 . S
Co891 N895 2.148 . S
Co891 N901 2.128 . S
Co891 N911 2.194 . S
Co891 O916 2.351 . S
Co891 O917 2.155 . S
Co891 O918 2.096 . S
C892 N895 1.301 . S
C892 N896 1.328 . S
C892 H897 0.930 . S
C893 C894 1.333 . S
C893 N895 1.317 . S
C893 H898 0.930 . S
C894 C893 1.333 . S
C894 N896 1.350 . S
C894 H920 0.931 . S
N895 Co891 2.148 . S
N895 C892 1.301 . S
N895 C893 1.317 . S
N896 C892 1.328 . S
N896 C894 1.350 . S
H897 C892 0.930 . S
H898 C893 0.930 . S
C899 O900 1.224 . S
C899 O918 1.247 . S
O900 C899 1.224 . S
N901 Co891 2.128 . S
N901 C902 1.355 . S
N901 C904 1.311 . S
C902 N901 1.355 . S
C902 C903 1.363 . S
C902 H914 0.929 . S
C903 C902 1.363 . S
C903 N905 1.375 . S
C903 H921 0.931 . S
C904 N901 1.311 . S
C904 N905 1.347 . S
C904 H915 0.929 . S
N905 C903 1.375 . S
N905 C904 1.347 . S
C906 C909 1.365 . S
C906 N911 1.328 . S
C906 H912 0.929 . S
C907 C908 1.362 . S
C907 C910 1.378 . S
C907 H922 0.929 . S
C908 C907 1.362 . S
C908 C909 1.366 . S
C909 C906 1.365 . S
C909 C908 1.366 . S
C909 H923 0.930 . S
C910 C907 1.378 . S
C910 N911 1.315 . S
C910 H913 0.930 . S
N911 Co891 2.194 . S
N911 C906 1.328 . S
N911 C910 1.315 . S
H912 C906 0.929 . S
H913 C910 0.930 . S
H914 C902 0.929 . S
H915 C904 0.929 . S
O916 Co891 2.351 . S
O916 C919 1.244 . S
O917 Co891 2.155 . S
O917 C919 1.240 . S
O918 Co891 2.096 . S
O918 C899 1.247 . S
C919 O916 1.244 . S
C919 O917 1.240 . S
H920 C894 0.931 . S
H921 C903 0.931 . S
H922 C907 0.929 . S
H923 C909 0.930 . S
Co924 N928 2.148 . S
Co924 N934 2.128 . S
Co924 N944 2.194 . S
Co924 O949 2.351 . S
Co924 O950 2.155 . S
Co924 O951 2.096 . S
C925 N928 1.301 . S
C925 N929 1.328 . S
C925 H930 0.930 . S
C926 C927 1.333 . S
C926 N928 1.317 . S
C926 H931 0.930 . S
C927 C926 1.333 . S
C927 N929 1.350 . S
C927 H953 0.931 . S
N928 Co924 2.148 . S
N928 C925 1.301 . S
N928 C926 1.317 . S
N929 C925 1.328 . S
N929 C927 1.350 . S
H930 C925 0.930 . S
H931 C926 0.930 . S
C932 O933 1.224 . S
C932 O951 1.247 . S
O933 C932 1.224 . S
N934 Co924 2.128 . S
N934 C935 1.355 . S
N934 C937 1.311 . S
C935 N934 1.355 . S
C935 C936 1.363 . S
C935 H947 0.929 . S
C936 C935 1.363 . S
C936 N938 1.375 . S
C936 H954 0.931 . S
C937 N934 1.311 . S
C937 N938 1.347 . S
C937 H948 0.929 . S
N938 C936 1.375 . S
N938 C937 1.347 . S
C939 C942 1.365 . S
C939 N944 1.328 . S
C939 H945 0.929 . S
C940 C941 1.362 . S
C940 C943 1.378 . S
C940 H955 0.929 . S
C941 C940 1.362 . S
C941 C942 1.366 . S
C942 C939 1.365 . S
C942 C941 1.366 . S
C942 H956 0.930 . S
C943 C940 1.378 . S
C943 N944 1.315 . S
C943 H946 0.930 . S
N944 Co924 2.194 . S
N944 C939 1.328 . S
N944 C943 1.315 . S
H945 C939 0.929 . S
H946 C943 0.930 . S
H947 C935 0.929 . S
H948 C937 0.929 . S
O949 Co924 2.351 . S
O949 C952 1.244 . S
O950 Co924 2.155 . S
O950 C952 1.240 . S
O951 Co924 2.096 . S
O951 C932 1.247 . S
C952 O949 1.244 . S
C952 O950 1.240 . S
H953 C927 0.931 . S
H954 C936 0.931 . S
H955 C940 0.929 . S
H956 C942 0.930 . S
Co957 N961 2.148 . S
Co957 N967 2.128 . S
Co957 N977 2.194 . S
Co957 O982 2.351 . S
Co957 O983 2.155 . S
Co957 O984 2.096 . S
C958 N961 1.301 . S
C958 N962 1.328 . S
C958 H963 0.930 . S
C959 C960 1.333 . S
C959 N961 1.317 . S
C959 H964 0.930 . S
C960 C959 1.333 . S
C960 N962 1.350 . S
C960 H986 0.931 . S
N961 Co957 2.148 . S
N961 C958 1.301 . S
N961 C959 1.317 . S
N962 C958 1.328 . S
N962 C960 1.350 . S
H963 C958 0.930 . S
H964 C959 0.930 . S
C965 O966 1.224 . S
C965 O984 1.247 . S
O966 C965 1.224 . S
N967 Co957 2.128 . S
N967 C968 1.355 . S
N967 C970 1.311 . S
C968 N967 1.355 . S
C968 C969 1.363 . S
C968 H980 0.929 . S
C969 C968 1.363 . S
C969 N971 1.375 . S
C969 H987 0.931 . S
C970 N967 1.311 . S
C970 N971 1.347 . S
C970 H981 0.929 . S
N971 C969 1.375 . S
N971 C970 1.347 . S
C972 C975 1.365 . S
C972 N977 1.328 . S
C972 H978 0.929 . S
C973 C974 1.362 . S
C973 C976 1.378 . S
C973 H988 0.929 . S
C974 C973 1.362 . S
C974 C975 1.366 . S
C975 C972 1.365 . S
C975 C974 1.366 . S
C975 H989 0.930 . S
C976 C973 1.378 . S
C976 N977 1.315 . S
C976 H979 0.930 . S
N977 Co957 2.194 . S
N977 C972 1.328 . S
N977 C976 1.315 . S
H978 C972 0.929 . S
H979 C976 0.930 . S
H980 C968 0.929 . S
H981 C970 0.929 . S
O982 Co957 2.351 . S
O982 C985 1.244 . S
O983 Co957 2.155 . S
O983 C985 1.240 . S
O984 Co957 2.096 . S
O984 C965 1.247 . S
C985 O982 1.244 . S
C985 O983 1.240 . S
H986 C960 0.931 . S
H987 C969 0.931 . S
H988 C973 0.929 . S
H989 C975 0.930 . S
Co990 N994 2.148 . S
Co990 N1000 2.128 . S
Co990 N1010 2.194 . S
Co990 O1015 2.351 . S
Co990 O1016 2.155 . S
Co990 O1017 2.096 . S
C991 N994 1.301 . S
C991 N995 1.328 1_554 S
C991 H996 0.930 . S
C992 C993 1.333 . S
C992 N994 1.317 . S
C992 H997 0.930 . S
C993 C992 1.333 . S
C993 N995 1.350 1_554 S
C993 H1019 0.931 1_554 S
N994 Co990 2.148 . S
N994 C991 1.301 . S
N994 C992 1.317 . S
N995 C991 1.328 1_556 S
N995 C993 1.350 1_556 S
H996 C991 0.930 . S
H997 C992 0.930 . S
C998 O999 1.224 . S
C998 O1017 1.247 . S
O999 C998 1.224 . S
N1000 Co990 2.128 . S
N1000 C1001 1.355 . S
N1000 C1003 1.311 . S
C1001 N1000 1.355 . S
C1001 C1002 1.363 . S
C1001 H1013 0.929 . S
C1002 C1001 1.363 . S
C1002 N1004 1.375 . S
C1002 H1020 0.931 . S
C1003 N1000 1.311 . S
C1003 N1004 1.347 . S
C1003 H1014 0.929 . S
N1004 C1002 1.375 . S
N1004 C1003 1.347 . S
C1005 C1008 1.365 . S
C1005 N1010 1.328 . S
C1005 H1011 0.929 . S
C1006 C1007 1.362 . S
C1006 C1009 1.378 . S
C1006 H1021 0.929 . S
C1007 C1006 1.362 . S
C1007 C1008 1.366 . S
C1008 C1005 1.365 . S
C1008 C1007 1.366 . S
C1008 H1022 0.930 . S
C1009 C1006 1.378 . S
C1009 N1010 1.315 . S
C1009 H1012 0.930 . S
N1010 Co990 2.194 . S
N1010 C1005 1.328 . S
N1010 C1009 1.315 . S
H1011 C1005 0.929 . S
H1012 C1009 0.930 . S
H1013 C1001 0.929 . S
H1014 C1003 0.929 . S
O1015 Co990 2.351 . S
O1015 C1018 1.244 . S
O1016 Co990 2.155 . S
O1016 C1018 1.240 . S
O1017 Co990 2.096 . S
O1017 C998 1.247 . S
C1018 O1015 1.244 . S
C1018 O1016 1.240 . S
H1019 C993 0.931 1_556 S
H1020 C1002 0.931 . S
H1021 C1006 0.929 . S
H1022 C1008 0.930 . S
Co1023 N1027 2.148 . S
Co1023 N1033 2.128 . S
Co1023 N1043 2.194 . S
Co1023 O1048 2.351 . S
Co1023 O1049 2.155 . S
Co1023 O1050 2.096 . S
C1024 N1027 1.301 . S
C1024 N1028 1.328 . S
C1024 H1029 0.930 . S
C1025 C1026 1.333 . S
C1025 N1027 1.317 . S
C1025 H1030 0.930 . S
C1026 C1025 1.333 . S
C1026 N1028 1.350 . S
C1026 H1052 0.931 . S
N1027 Co1023 2.148 . S
N1027 C1024 1.301 . S
N1027 C1025 1.317 . S
N1028 C1024 1.328 . S
N1028 C1026 1.350 . S
H1029 C1024 0.930 . S
H1030 C1025 0.930 . S
C1031 O1032 1.224 . S
C1031 O1050 1.247 . S
O1032 C1031 1.224 . S
N1033 Co1023 2.128 . S
N1033 C1034 1.355 . S
N1033 C1036 1.311 . S
C1034 N1033 1.355 . S
C1034 C1035 1.363 . S
C1034 H1046 0.929 . S
C1035 C1034 1.363 . S
C1035 N1037 1.375 . S
C1035 H1053 0.931 . S
C1036 N1033 1.311 . S
C1036 N1037 1.347 . S
C1036 H1047 0.929 . S
N1037 C1035 1.375 . S
N1037 C1036 1.347 . S
C1038 C1041 1.365 . S
C1038 N1043 1.328 . S
C1038 H1044 0.929 . S
C1039 C1040 1.362 . S
C1039 C1042 1.378 . S
C1039 H1054 0.929 . S
C1040 C1039 1.362 . S
C1040 C1041 1.366 . S
C1041 C1038 1.365 . S
C1041 C1040 1.366 . S
C1041 H1055 0.930 . S
C1042 C1039 1.378 . S
C1042 N1043 1.315 . S
C1042 H1045 0.930 . S
N1043 Co1023 2.194 . S
N1043 C1038 1.328 . S
N1043 C1042 1.315 . S
H1044 C1038 0.929 . S
H1045 C1042 0.930 . S
H1046 C1034 0.929 . S
H1047 C1036 0.929 . S
O1048 Co1023 2.351 . S
O1048 C1051 1.244 . S
O1049 Co1023 2.155 . S
O1049 C1051 1.240 . S
O1050 Co1023 2.096 . S
O1050 C1031 1.247 . S
C1051 O1048 1.244 . S
C1051 O1049 1.240 . S
H1052 C1026 0.931 . S
H1053 C1035 0.931 . S
H1054 C1039 0.929 . S
H1055 C1041 0.930 . S
H1056 C1062 0.930 . S
H1057 C1066 0.930 . S
H1058 C1071 0.891 1_565 S
H1059 C1069 0.929 . S
H1060 C1064 0.929 . S
H1061 C1070 0.929 . S
C1062 H1056 0.930 . S
C1062 C1063 1.367 . S
C1062 C1070 1.378 . S
C1063 C1062 1.367 . S
C1063 C1071 1.433 . S
C1064 H1060 0.929 . S
C1064 C1066 1.378 . S
C1064 C1068 1.350 . S
C1065 C1068 1.463 . S
C1065 C1070 1.350 . S
C1065 N1073 1.427 . S
C1066 H1057 0.930 . S
C1066 C1064 1.378 . S
C1066 C1067 1.367 . S
C1067 C1066 1.367 . S
C1067 C1069 1.433 . S
C1068 C1064 1.350 . S
C1068 C1065 1.463 . S
C1068 N1072 1.427 . S
C1069 H1059 0.929 . S
C1069 C1067 1.433 . S
C1069 N1072 1.384 . S
C1070 H1061 0.929 . S
C1070 C1062 1.378 . S
C1070 C1065 1.350 . S
C1071 H1058 0.891 1_545 S
C1071 C1063 1.433 . S
C1071 N1073 1.384 . S
N1072 C1068 1.427 . S
N1072 C1069 1.384 . S
N1073 C1065 1.427 . S
N1073 C1071 1.384 . S
H1074 C1080 0.930 . S
H1075 C1084 0.930 . S
H1076 C1089 0.929 . S
H1077 C1087 0.929 . S
H1078 C1082 0.929 . S
H1079 C1088 0.929 . S
C1080 H1074 0.930 . S
C1080 C1081 1.367 . S
C1080 C1088 1.378 . S
C1081 C1080 1.367 . S
C1081 C1089 1.433 . S
C1082 H1078 0.929 . S
C1082 C1084 1.378 . S
C1082 C1086 1.350 . S
C1083 C1086 1.463 . S
C1083 C1088 1.350 . S
C1083 N1091 1.427 . S
C1084 H1075 0.930 . S
C1084 C1082 1.378 . S
C1084 C1085 1.367 . S
C1085 C1084 1.367 . S
C1085 C1087 1.433 . S
C1086 C1082 1.350 . S
C1086 C1083 1.463 . S
C1086 N1090 1.427 . S
C1087 H1077 0.929 . S
C1087 C1085 1.433 . S
C1087 N1090 1.384 . S
C1088 H1079 0.929 . S
C1088 C1080 1.378 . S
C1088 C1083 1.350 . S
C1089 H1076 0.929 . S
C1089 C1081 1.433 . S
C1089 N1091 1.384 . S
N1090 C1086 1.427 . S
N1090 C1087 1.384 . S
N1091 C1083 1.427 . S
N1091 C1089 1.384 . S
H1092 C1098 0.930 . S
H1093 C1102 0.930 . S
H1094 C1107 0.929 . S
H1095 C1105 0.929 . S
H1096 C1100 0.929 . S
H1097 C1106 0.929 . S
C1098 H1092 0.930 . S
C1098 C1099 1.367 . S
C1098 C1106 1.378 . S
C1099 C1098 1.367 . S
C1099 C1107 1.433 . S
C1100 H1096 0.929 . S
C1100 C1102 1.378 . S
C1100 C1104 1.350 . S
C1101 C1104 1.463 . S
C1101 C1106 1.350 . S
C1101 N1109 1.427 . S
C1102 H1093 0.930 . S
C1102 C1100 1.378 . S
C1102 C1103 1.367 . S
C1103 C1102 1.367 . S
C1103 C1105 1.433 . S
C1104 C1100 1.350 . S
C1104 C1101 1.463 . S
C1104 N1108 1.427 . S
C1105 H1095 0.929 . S
C1105 C1103 1.433 . S
C1105 N1108 1.384 . S
C1106 H1097 0.929 . S
C1106 C1098 1.378 . S
C1106 C1101 1.350 . S
C1107 H1094 0.929 . S
C1107 C1099 1.433 . S
C1107 N1109 1.384 . S
N1108 C1104 1.427 . S
N1108 C1105 1.384 . S
N1109 C1101 1.427 . S
N1109 C1107 1.384 . S
H1110 C1116 0.930 . S
H1111 C1120 0.930 . S
H1112 C1125 0.929 . S
H1113 C1123 0.929 . S
H1114 C1118 0.929 . S
H1115 C1124 0.929 . S
C1116 H1110 0.930 . S
C1116 C1117 1.367 . S
C1116 C1124 1.378 . S
C1117 C1116 1.367 . S
C1117 C1125 1.433 . S
C1118 H1114 0.929 . S
C1118 C1120 1.378 . S
C1118 C1122 1.350 . S
C1119 C1122 1.463 . S
C1119 C1124 1.350 . S
C1119 N1127 1.427 . S
C1120 H1111 0.930 . S
C1120 C1118 1.378 . S
C1120 C1121 1.367 . S
C1121 C1120 1.367 . S
C1121 C1123 1.433 . S
C1122 C1118 1.350 . S
C1122 C1119 1.463 . S
C1122 N1126 1.427 . S
C1123 H1113 0.929 . S
C1123 C1121 1.433 . S
C1123 N1126 1.384 . S
C1124 H1115 0.929 . S
C1124 C1116 1.378 . S
C1124 C1119 1.350 . S
C1125 H1112 0.929 . S
C1125 C1117 1.433 . S
C1125 N1127 1.384 . S
N1126 C1122 1.427 . S
N1126 C1123 1.384 . S
N1127 C1119 1.427 . S
N1127 C1125 1.384 . S
H1128 C1134 0.930 . S
H1129 C1138 0.929 1_545 S
H1130 C1143 0.929 . S
H1131 C1141 0.929 . S
H1132 C1136 0.929 . S
H1133 C1142 0.929 . S
C1134 H1128 0.930 . S
C1134 C1135 1.367 . S
C1134 C1142 1.378 . S
C1135 C1134 1.367 . S
C1135 C1143 1.433 . S
C1136 H1132 0.929 . S
C1136 C1138 1.378 . S
C1136 C1140 1.350 . S
C1137 C1140 1.463 . S
C1137 C1142 1.350 . S
C1137 N1145 1.427 . S
C1138 H1129 0.929 1_565 S
C1138 C1136 1.378 . S
C1138 C1139 1.367 . S
C1139 C1138 1.367 . S
C1139 C1141 1.433 . S
C1140 C1136 1.350 . S
C1140 C1137 1.463 . S
C1140 N1144 1.427 . S
C1141 H1131 0.929 . S
C1141 C1139 1.433 . S
C1141 N1144 1.384 . S
C1142 H1133 0.929 . S
C1142 C1134 1.378 . S
C1142 C1137 1.350 . S
C1143 H1130 0.929 . S
C1143 C1135 1.433 . S
C1143 N1145 1.384 . S
N1144 C1140 1.427 . S
N1144 C1141 1.384 . S
N1145 C1137 1.427 . S
N1145 C1143 1.384 . S
H1146 C1152 0.930 . S
H1147 C1156 0.930 . S
H1148 C1161 0.929 . S
H1149 C1159 0.929 . S
H1150 C1154 0.929 . S
H1151 C1160 0.929 . S
C1152 H1146 0.930 . S
C1152 C1153 1.367 . S
C1152 C1160 1.378 . S
C1153 C1152 1.367 . S
C1153 C1161 1.433 . S
C1154 H1150 0.929 . S
C1154 C1156 1.378 . S
C1154 C1158 1.350 . S
C1155 C1158 1.463 . S
C1155 C1160 1.350 . S
C1155 N1163 1.427 . S
C1156 H1147 0.930 . S
C1156 C1154 1.378 . S
C1156 C1157 1.367 . S
C1157 C1156 1.367 . S
C1157 C1159 1.433 . S
C1158 C1154 1.350 . S
C1158 C1155 1.463 . S
C1158 N1162 1.427 . S
C1159 H1149 0.929 . S
C1159 C1157 1.433 . S
C1159 N1162 1.384 . S
C1160 H1151 0.929 . S
C1160 C1152 1.378 . S
C1160 C1155 1.350 . S
C1161 H1148 0.929 . S
C1161 C1153 1.433 . S
C1161 N1163 1.384 . S
N1162 C1158 1.427 . S
N1162 C1159 1.384 . S
N1163 C1155 1.427 . S
N1163 C1161 1.384 . S
H1164 C1170 0.930 . S
H1165 C1174 0.930 . S
H1166 C1179 0.929 . S
H1167 C1177 0.945 . S
H1168 C1172 0.929 . S
H1169 C1178 0.929 . S
C1170 H1164 0.930 . S
C1170 C1171 1.367 . S
C1170 C1178 1.378 . S
C1171 C1170 1.367 . S
C1171 C1179 1.433 . S
C1172 H1168 0.929 . S
C1172 C1174 1.378 . S
C1172 C1176 1.350 . S
C1173 C1176 1.463 . S
C1173 C1178 1.350 . S
C1173 N1181 1.427 . S
C1174 H1165 0.930 . S
C1174 C1172 1.378 . S
C1174 C1175 1.367 . S
C1175 C1174 1.367 . S
C1175 C1177 1.433 . S
C1176 C1172 1.350 . S
C1176 C1173 1.463 . S
C1176 N1180 1.427 . S
C1177 H1167 0.945 . S
C1177 C1175 1.433 . S
C1177 N1180 1.384 . S
C1178 H1169 0.929 . S
C1178 C1170 1.378 . S
C1178 C1173 1.350 . S
C1179 H1166 0.929 . S
C1179 C1171 1.433 . S
C1179 N1181 1.384 . S
N1180 C1176 1.427 . S
N1180 C1177 1.384 . S
N1181 C1173 1.427 . S
N1181 C1179 1.384 . S
H1182 C1188 0.930 . S
H1183 C1192 0.930 . S
H1184 C1197 0.929 . S
H1185 C1195 0.929 . S
H1186 C1190 0.929 . S
H1187 C1196 0.929 . S
C1188 H1182 0.930 . S
C1188 C1189 1.367 . S
C1188 C1196 1.378 . S
C1189 C1188 1.367 . S
C1189 C1197 1.433 . S
C1190 H1186 0.929 . S
C1190 C1192 1.378 . S
C1190 C1194 1.350 . S
C1191 C1194 1.463 . S
C1191 C1196 1.350 . S
C1191 N1199 1.427 . S
C1192 H1183 0.930 . S
C1192 C1190 1.378 . S
C1192 C1193 1.367 . S
C1193 C1192 1.367 . S
C1193 C1195 1.433 . S
C1194 C1190 1.350 . S
C1194 C1191 1.463 . S
C1194 N1198 1.427 . S
C1195 H1185 0.929 . S
C1195 C1193 1.433 . S
C1195 N1198 1.384 . S
C1196 H1187 0.929 . S
C1196 C1188 1.378 . S
C1196 C1191 1.350 . S
C1197 H1184 0.929 . S
C1197 C1189 1.433 . S
C1197 N1199 1.384 . S
N1198 C1194 1.427 . S
N1198 C1195 1.384 . S
N1199 C1191 1.427 . S
N1199 C1197 1.384 . S
H1200 C1206 0.930 . S
H1201 C1210 0.930 . S
H1202 C1215 0.929 . S
H1203 C1213 0.929 . S
H1204 C1208 0.929 . S
H1205 C1214 0.929 . S
C1206 H1200 0.930 . S
C1206 C1207 1.367 . S
C1206 C1214 1.378 . S
C1207 C1206 1.367 . S
C1207 C1215 1.433 . S
C1208 H1204 0.929 . S
C1208 C1210 1.378 . S
C1208 C1212 1.350 . S
C1209 C1212 1.463 . S
C1209 C1214 1.350 . S
C1209 N1217 1.427 . S
C1210 H1201 0.930 . S
C1210 C1208 1.378 . S
C1210 C1211 1.367 . S
C1211 C1210 1.367 . S
C1211 C1213 1.433 . S
C1212 C1208 1.350 . S
C1212 C1209 1.463 . S
C1212 N1216 1.427 . S
C1213 H1203 0.929 . S
C1213 C1211 1.433 . S
C1213 N1216 1.384 . S
C1214 H1205 0.929 . S
C1214 C1206 1.378 . S
C1214 C1209 1.350 . S
C1215 H1202 0.929 . S
C1215 C1207 1.433 . S
C1215 N1217 1.384 . S
N1216 C1212 1.427 . S
N1216 C1213 1.384 . S
N1217 C1209 1.427 . S
N1217 C1215 1.384 . S
H1218 C1224 0.930 . S
H1219 C1228 0.930 . S
H1220 C1233 0.929 . S
H1221 C1231 0.929 . S
H1222 C1226 0.929 . S
H1223 C1232 0.929 . S
C1224 H1218 0.930 . S
C1224 C1225 1.367 . S
C1224 C1232 1.378 . S
C1225 C1224 1.367 . S
C1225 C1233 1.433 . S
C1226 H1222 0.929 . S
C1226 C1228 1.378 . S
C1226 C1230 1.350 . S
C1227 C1230 1.463 . S
C1227 C1232 1.350 . S
C1227 N1235 1.427 . S
C1228 H1219 0.930 . S
C1228 C1226 1.378 . S
C1228 C1229 1.367 . S
C1229 C1228 1.367 . S
C1229 C1231 1.433 . S
C1230 C1226 1.350 . S
C1230 C1227 1.463 . S
C1230 N1234 1.427 . S
C1231 H1221 0.929 . S
C1231 C1229 1.433 . S
C1231 N1234 1.384 . S
C1232 H1223 0.929 . S
C1232 C1224 1.378 . S
C1232 C1227 1.350 . S
C1233 H1220 0.929 . S
C1233 C1225 1.433 . S
C1233 N1235 1.384 . S
N1234 C1230 1.427 . S
N1234 C1231 1.384 . S
N1235 C1227 1.427 . S
N1235 C1233 1.384 . S
H1236 C1242 0.930 . S
H1237 C1246 0.930 . S
H1238 C1251 0.929 . S
H1239 C1249 0.929 . S
H1240 C1244 0.929 . S
H1241 C1250 0.929 . S
C1242 H1236 0.930 . S
C1242 C1243 1.367 . S
C1242 C1250 1.378 . S
C1243 C1242 1.367 . S
C1243 C1251 1.433 . S
C1244 H1240 0.929 . S
C1244 C1246 1.378 . S
C1244 C1248 1.350 . S
C1245 C1248 1.463 . S
C1245 C1250 1.350 . S
C1245 N1253 1.427 . S
C1246 H1237 0.930 . S
C1246 C1244 1.378 . S
C1246 C1247 1.367 . S
C1247 C1246 1.367 . S
C1247 C1249 1.433 . S
C1248 C1244 1.350 . S
C1248 C1245 1.463 . S
C1248 N1252 1.427 . S
C1249 H1239 0.929 . S
C1249 C1247 1.433 . S
C1249 N1252 1.384 . S
C1250 H1241 0.929 . S
C1250 C1242 1.378 . S
C1250 C1245 1.350 . S
C1251 H1238 0.929 . S
C1251 C1243 1.433 . S
C1251 N1253 1.384 . S
N1252 C1248 1.427 . S
N1252 C1249 1.384 . S
N1253 C1245 1.427 . S
N1253 C1251 1.384 . S
H1254 C1260 0.930 . S
H1255 C1264 0.930 . S
H1256 C1269 0.929 . S
H1257 C1267 0.929 . S
H1258 C1262 0.929 . S
H1259 C1268 0.929 . S
C1260 H1254 0.930 . S
C1260 C1261 1.367 . S
C1260 C1268 1.378 . S
C1261 C1260 1.367 . S
C1261 C1269 1.433 . S
C1262 H1258 0.929 . S
C1262 C1264 1.378 . S
C1262 C1266 1.350 . S
C1263 C1266 1.463 . S
C1263 C1268 1.350 . S
C1263 N1271 1.427 . S
C1264 H1255 0.930 . S
C1264 C1262 1.378 . S
C1264 C1265 1.367 . S
C1265 C1264 1.367 . S
C1265 C1267 1.433 . S
C1266 C1262 1.350 . S
C1266 C1263 1.463 . S
C1266 N1270 1.427 . S
C1267 H1257 0.929 . S
C1267 C1265 1.433 . S
C1267 N1270 1.384 . S
C1268 H1259 0.929 . S
C1268 C1260 1.378 . S
C1268 C1263 1.350 . S
C1269 H1256 0.929 . S
C1269 C1261 1.433 . S
C1269 N1271 1.384 . S
N1270 C1266 1.427 . S
N1270 C1267 1.384 . S
N1271 C1263 1.427 . S
N1271 C1269 1.384 . S
H1272 C1278 0.930 . S
H1273 C1282 0.930 . S
H1274 C1287 0.929 . S
H1275 C1285 0.929 . S
H1276 C1280 0.929 . S
H1277 C1286 0.929 . S
C1278 H1272 0.930 . S
C1278 C1279 1.367 . S
C1278 C1286 1.378 . S
C1279 C1278 1.367 . S
C1279 C1287 1.433 . S
C1280 H1276 0.929 . S
C1280 C1282 1.378 . S
C1280 C1284 1.350 . S
C1281 C1284 1.463 . S
C1281 C1286 1.350 . S
C1281 N1289 1.427 . S
C1282 H1273 0.930 . S
C1282 C1280 1.378 . S
C1282 C1283 1.367 . S
C1283 C1282 1.367 . S
C1283 C1285 1.433 . S
C1284 C1280 1.350 . S
C1284 C1281 1.463 . S
C1284 N1288 1.427 . S
C1285 H1275 0.929 . S
C1285 C1283 1.433 . S
C1285 N1288 1.384 . S
C1286 H1277 0.929 . S
C1286 C1278 1.378 . S
C1286 C1281 1.350 . S
C1287 H1274 0.929 . S
C1287 C1279 1.433 . S
C1287 N1289 1.384 . S
N1288 C1284 1.427 . S
N1288 C1285 1.384 . S
N1289 C1281 1.427 . S
N1289 C1287 1.384 . S
H1290 C1296 0.930 . S
H1291 C1300 0.930 . S
H1292 C1305 0.929 . S
H1293 C1303 0.929 . S
H1294 C1298 0.929 . S
H1295 C1304 0.929 . S
C1296 H1290 0.930 . S
C1296 C1297 1.367 . S
C1296 C1304 1.378 . S
C1297 C1296 1.367 . S
C1297 C1305 1.433 . S
C1298 H1294 0.929 . S
C1298 C1300 1.378 . S
C1298 C1302 1.350 . S
C1299 C1302 1.463 . S
C1299 C1304 1.350 . S
C1299 N1307 1.427 . S
C1300 H1291 0.930 . S
C1300 C1298 1.378 . S
C1300 C1301 1.367 . S
C1301 C1300 1.367 . S
C1301 C1303 1.433 . S
C1302 C1298 1.350 . S
C1302 C1299 1.463 . S
C1302 N1306 1.427 . S
C1303 H1293 0.929 . S
C1303 C1301 1.433 . S
C1303 N1306 1.384 . S
C1304 H1295 0.929 . S
C1304 C1296 1.378 . S
C1304 C1299 1.350 . S
C1305 H1292 0.929 . S
C1305 C1297 1.433 . S
C1305 N1307 1.384 . S
N1306 C1302 1.427 . S
N1306 C1303 1.384 . S
N1307 C1299 1.427 . S
N1307 C1305 1.384 . S
H1308 C1314 0.930 . S
H1309 C1318 0.930 . S
H1310 C1323 0.929 . S
H1311 C1321 0.929 . S
H1312 C1316 0.929 . S
H1313 C1322 0.929 . S
C1314 H1308 0.930 . S
C1314 C1315 1.367 . S
C1314 C1322 1.378 . S
C1315 C1314 1.367 . S
C1315 C1323 1.433 . S
C1316 H1312 0.929 . S
C1316 C1318 1.378 . S
C1316 C1320 1.350 . S
C1317 C1320 1.463 . S
C1317 C1322 1.350 . S
C1317 N1325 1.427 . S
C1318 H1309 0.930 . S
C1318 C1316 1.378 . S
C1318 C1319 1.367 . S
C1319 C1318 1.367 . S
C1319 C1321 1.433 . S
C1320 C1316 1.350 . S
C1320 C1317 1.463 . S
C1320 N1324 1.427 . S
C1321 H1311 0.929 . S
C1321 C1319 1.433 . S
C1321 N1324 1.384 . S
C1322 H1313 0.929 . S
C1322 C1314 1.378 . S
C1322 C1317 1.350 . S
C1323 H1310 0.929 . S
C1323 C1315 1.433 . S
C1323 N1325 1.384 . S
N1324 C1320 1.427 . S
N1324 C1321 1.384 . S
N1325 C1317 1.427 . S
N1325 C1323 1.384 . S
H1326 C1332 0.930 . S
H1327 C1336 0.930 . S
H1328 C1341 0.929 . S
H1329 C1339 0.929 . S
H1330 C1334 0.929 . S
H1331 C1340 0.929 . S
C1332 H1326 0.930 . S
C1332 C1333 1.367 . S
C1332 C1340 1.378 . S
C1333 C1332 1.367 . S
C1333 C1341 1.433 . S
C1334 H1330 0.929 . S
C1334 C1336 1.378 . S
C1334 C1338 1.350 . S
C1335 C1338 1.463 . S
C1335 C1340 1.350 . S
C1335 N1343 1.427 . S
C1336 H1327 0.930 . S
C1336 C1334 1.378 . S
C1336 C1337 1.367 . S
C1337 C1336 1.367 . S
C1337 C1339 1.433 . S
C1338 C1334 1.350 . S
C1338 C1335 1.463 . S
C1338 N1342 1.427 . S
C1339 H1329 0.929 . S
C1339 C1337 1.433 . S
C1339 N1342 1.384 . S
C1340 H1331 0.929 . S
C1340 C1332 1.378 . S
C1340 C1335 1.350 . S
C1341 H1328 0.929 . S
C1341 C1333 1.433 . S
C1341 N1343 1.384 . S
N1342 C1338 1.427 . S
N1342 C1339 1.384 . S
N1343 C1335 1.427 . S
N1343 C1341 1.384 . S
H1344 C1350 0.930 . S
H1345 C1354 0.930 . S
H1346 C1359 0.929 . S
H1347 C1357 0.929 . S
H1348 C1352 0.929 . S
H1349 C1358 0.929 . S
C1350 H1344 0.930 . S
C1350 C1351 1.367 . S
C1350 C1358 1.378 . S
C1351 C1350 1.367 . S
C1351 C1359 1.433 . S
C1352 H1348 0.929 . S
C1352 C1354 1.378 . S
C1352 C1356 1.350 . S
C1353 C1356 1.463 . S
C1353 C1358 1.350 . S
C1353 N1361 1.427 . S
C1354 H1345 0.930 . S
C1354 C1352 1.378 . S
C1354 C1355 1.367 . S
C1355 C1354 1.367 . S
C1355 C1357 1.433 . S
C1356 C1352 1.350 . S
C1356 C1353 1.463 . S
C1356 N1360 1.427 . S
C1357 H1347 0.929 . S
C1357 C1355 1.433 . S
C1357 N1360 1.384 . S
C1358 H1349 0.929 . S
C1358 C1350 1.378 . S
C1358 C1353 1.350 . S
C1359 H1346 0.929 . S
C1359 C1351 1.433 . S
C1359 N1361 1.384 . S
N1360 C1356 1.427 . S
N1360 C1357 1.384 . S
N1361 C1353 1.427 . S
N1361 C1359 1.384 . S
H1362 C1368 0.930 . S
H1363 C1372 0.930 . S
H1364 C1377 0.929 . S
H1365 C1375 0.929 . S
H1366 C1370 0.929 . S
H1367 C1376 0.929 . S
C1368 H1362 0.930 . S
C1368 C1369 1.367 . S
C1368 C1376 1.378 . S
C1369 C1368 1.367 . S
C1369 C1377 1.433 . S
C1370 H1366 0.929 . S
C1370 C1372 1.378 . S
C1370 C1374 1.350 . S
C1371 C1374 1.463 . S
C1371 C1376 1.350 . S
C1371 N1379 1.427 . S
C1372 H1363 0.930 . S
C1372 C1370 1.378 . S
C1372 C1373 1.367 . S
C1373 C1372 1.367 . S
C1373 C1375 1.433 . S
C1374 C1370 1.350 . S
C1374 C1371 1.463 . S
C1374 N1378 1.427 . S
C1375 H1365 0.929 . S
C1375 C1373 1.433 . S
C1375 N1378 1.384 . S
C1376 H1367 0.929 . S
C1376 C1368 1.378 . S
C1376 C1371 1.350 . S
C1377 H1364 0.929 . S
C1377 C1369 1.433 . S
C1377 N1379 1.384 . S
N1378 C1374 1.427 . S
N1378 C1375 1.384 . S
N1379 C1371 1.427 . S
N1379 C1377 1.384 . S
H1380 C1386 0.930 . S
H1381 C1390 0.930 . S
H1382 C1395 0.929 . S
H1383 C1393 0.929 . S
H1384 C1388 0.929 . S
H1385 C1394 0.929 . S
C1386 H1380 0.930 . S
C1386 C1387 1.367 . S
C1386 C1394 1.378 . S
C1387 C1386 1.367 . S
C1387 C1395 1.433 . S
C1388 H1384 0.929 . S
C1388 C1390 1.378 . S
C1388 C1392 1.350 . S
C1389 C1392 1.463 . S
C1389 C1394 1.350 . S
C1389 N1397 1.427 . S
C1390 H1381 0.930 . S
C1390 C1388 1.378 . S
C1390 C1391 1.367 . S
C1391 C1390 1.367 . S
C1391 C1393 1.433 . S
C1392 C1388 1.350 . S
C1392 C1389 1.463 . S
C1392 N1396 1.427 . S
C1393 H1383 0.929 . S
C1393 C1391 1.433 . S
C1393 N1396 1.384 . S
C1394 H1385 0.929 . S
C1394 C1386 1.378 . S
C1394 C1389 1.350 . S
C1395 H1382 0.929 . S
C1395 C1387 1.433 . S
C1395 N1397 1.384 . S
N1396 C1392 1.427 . S
N1396 C1393 1.384 . S
N1397 C1389 1.427 . S
N1397 C1395 1.384 . S
H1398 C1404 0.930 . S
H1399 C1408 0.930 . S
H1400 C1413 0.929 . S
H1401 C1411 0.929 . S
H1402 C1406 0.929 . S
H1403 C1412 0.929 . S
C1404 H1398 0.930 . S
C1404 C1405 1.367 . S
C1404 C1412 1.378 . S
C1405 C1404 1.367 . S
C1405 C1413 1.433 . S
C1406 H1402 0.929 . S
C1406 C1408 1.378 . S
C1406 C1410 1.350 . S
C1407 C1410 1.463 . S
C1407 C1412 1.350 . S
C1407 N1415 1.427 . S
C1408 H1399 0.930 . S
C1408 C1406 1.378 . S
C1408 C1409 1.367 . S
C1409 C1408 1.367 . S
C1409 C1411 1.433 . S
C1410 C1406 1.350 . S
C1410 C1407 1.463 . S
C1410 N1414 1.427 . S
C1411 H1401 0.929 . S
C1411 C1409 1.433 . S
C1411 N1414 1.384 . S
C1412 H1403 0.929 . S
C1412 C1404 1.378 . S
C1412 C1407 1.350 . S
C1413 H1400 0.929 . S
C1413 C1405 1.433 . S
C1413 N1415 1.384 . S
N1414 C1410 1.427 . S
N1414 C1411 1.384 . S
N1415 C1407 1.427 . S
N1415 C1413 1.384 . S
H1416 C1422 0.930 . S
H1417 C1426 0.930 . S
H1418 C1431 0.929 . S
H1419 C1429 0.929 . S
H1420 C1424 0.929 . S
H1421 C1430 0.929 . S
C1422 H1416 0.930 . S
C1422 C1423 1.367 . S
C1422 C1430 1.378 . S
C1423 C1422 1.367 . S
C1423 C1431 1.433 . S
C1424 H1420 0.929 . S
C1424 C1426 1.378 . S
C1424 C1428 1.350 . S
C1425 C1428 1.463 . S
C1425 C1430 1.350 . S
C1425 N1433 1.427 . S
C1426 H1417 0.930 . S
C1426 C1424 1.378 . S
C1426 C1427 1.367 . S
C1427 C1426 1.367 . S
C1427 C1429 1.433 . S
C1428 C1424 1.350 . S
C1428 C1425 1.463 . S
C1428 N1432 1.427 . S
C1429 H1419 0.929 . S
C1429 C1427 1.433 . S
C1429 N1432 1.384 . S
C1430 H1421 0.929 . S
C1430 C1422 1.378 . S
C1430 C1425 1.350 . S
C1431 H1418 0.929 . S
C1431 C1423 1.433 . S
C1431 N1433 1.384 . S
N1432 C1428 1.427 . S
N1432 C1429 1.384 . S
N1433 C1425 1.427 . S
N1433 C1431 1.384 . S
H1434 C1440 0.930 . S
H1435 C1444 0.930 . S
H1436 C1449 0.929 . S
H1437 C1447 0.929 . S
H1438 C1442 0.929 . S
H1439 C1448 0.929 . S
C1440 H1434 0.930 . S
C1440 C1441 1.367 . S
C1440 C1448 1.378 . S
C1441 C1440 1.367 . S
C1441 C1449 1.433 . S
C1442 H1438 0.929 . S
C1442 C1444 1.378 . S
C1442 C1446 1.350 . S
C1443 C1446 1.463 . S
C1443 C1448 1.350 . S
C1443 N1451 1.427 . S
C1444 H1435 0.930 . S
C1444 C1442 1.378 . S
C1444 C1445 1.367 . S
C1445 C1444 1.367 . S
C1445 C1447 1.433 . S
C1446 C1442 1.350 . S
C1446 C1443 1.463 . S
C1446 N1450 1.427 . S
C1447 H1437 0.929 . S
C1447 C1445 1.433 . S
C1447 N1450 1.384 . S
C1448 H1439 0.929 . S
C1448 C1440 1.378 . S
C1448 C1443 1.350 . S
C1449 H1436 0.929 . S
C1449 C1441 1.433 . S
C1449 N1451 1.384 . S
N1450 C1446 1.427 . S
N1450 C1447 1.384 . S
N1451 C1443 1.427 . S
N1451 C1449 1.384 . S
H1452 C1458 0.930 . S
H1453 C1462 0.930 . S
H1454 C1467 0.929 . S
H1455 C1465 0.929 . S
H1456 C1460 0.929 . S
H1457 C1466 0.929 . S
C1458 H1452 0.930 . S
C1458 C1459 1.367 . S
C1458 C1466 1.378 . S
C1459 C1458 1.367 . S
C1459 C1467 1.433 . S
C1460 H1456 0.929 . S
C1460 C1462 1.378 . S
C1460 C1464 1.350 . S
C1461 C1464 1.463 . S
C1461 C1466 1.350 . S
C1461 N1469 1.427 . S
C1462 H1453 0.930 . S
C1462 C1460 1.378 . S
C1462 C1463 1.367 . S
C1463 C1462 1.367 . S
C1463 C1465 1.433 . S
C1464 C1460 1.350 . S
C1464 C1461 1.463 . S
C1464 N1468 1.427 . S
C1465 H1455 0.929 . S
C1465 C1463 1.433 . S
C1465 N1468 1.384 . S
C1466 H1457 0.929 . S
C1466 C1458 1.378 . S
C1466 C1461 1.350 . S
C1467 H1454 0.929 . S
C1467 C1459 1.433 . S
C1467 N1469 1.384 . S
N1468 C1464 1.427 . S
N1468 C1465 1.384 . S
N1469 C1461 1.427 . S
N1469 C1467 1.384 . S
H1470 C1476 0.930 . S
H1471 C1480 0.930 . S
H1472 C1485 0.929 . S
H1473 C1483 0.929 . S
H1474 C1478 0.929 . S
H1475 C1484 0.929 . S
C1476 H1470 0.930 . S
C1476 C1477 1.367 . S
C1476 C1484 1.378 . S
C1477 C1476 1.367 . S
C1477 C1485 1.433 . S
C1478 H1474 0.929 . S
C1478 C1480 1.378 . S
C1478 C1482 1.350 . S
C1479 C1482 1.463 . S
C1479 C1484 1.350 . S
C1479 N1487 1.427 . S
C1480 H1471 0.930 . S
C1480 C1478 1.378 . S
C1480 C1481 1.367 . S
C1481 C1480 1.367 . S
C1481 C1483 1.433 . S
C1482 C1478 1.350 . S
C1482 C1479 1.463 . S
C1482 N1486 1.427 . S
C1483 H1473 0.929 . S
C1483 C1481 1.433 . S
C1483 N1486 1.384 . S
C1484 H1475 0.929 . S
C1484 C1476 1.378 . S
C1484 C1479 1.350 . S
C1485 H1472 0.929 . S
C1485 C1477 1.433 . S
C1485 N1487 1.384 . S
N1486 C1482 1.427 . S
N1486 C1483 1.384 . S
N1487 C1479 1.427 . S
N1487 C1485 1.384 . S
H1488 C1494 0.930 . S
H1489 C1498 0.930 . S
H1490 C1503 0.929 . S
H1491 C1501 0.929 . S
H1492 C1496 0.929 . S
H1493 C1502 0.929 . S
C1494 H1488 0.930 . S
C1494 C1495 1.367 . S
C1494 C1502 1.378 . S
C1495 C1494 1.367 . S
C1495 C1503 1.433 . S
C1496 H1492 0.929 . S
C1496 C1498 1.378 . S
C1496 C1500 1.350 . S
C1497 C1500 1.463 . S
C1497 C1502 1.350 . S
C1497 N1505 1.427 . S
C1498 H1489 0.930 . S
C1498 C1496 1.378 . S
C1498 C1499 1.367 . S
C1499 C1498 1.367 . S
C1499 C1501 1.433 . S
C1500 C1496 1.350 . S
C1500 C1497 1.463 . S
C1500 N1504 1.427 . S
C1501 H1491 0.929 . S
C1501 C1499 1.433 . S
C1501 N1504 1.384 . S
C1502 H1493 0.929 . S
C1502 C1494 1.378 . S
C1502 C1497 1.350 . S
C1503 H1490 0.929 . S
C1503 C1495 1.433 . S
C1503 N1505 1.384 . S
N1504 C1500 1.427 . S
N1504 C1501 1.384 . S
N1505 C1497 1.427 . S
N1505 C1503 1.384 . S
H1506 C1512 0.930 . S
H1507 C1516 0.930 . S
H1508 C1521 0.929 . S
H1509 C1519 0.929 . S
H1510 C1514 0.929 . S
H1511 C1520 0.929 . S
C1512 H1506 0.930 . S
C1512 C1513 1.367 . S
C1512 C1520 1.378 . S
C1513 C1512 1.367 . S
C1513 C1521 1.433 . S
C1514 H1510 0.929 . S
C1514 C1516 1.378 . S
C1514 C1518 1.350 . S
C1515 C1518 1.463 . S
C1515 C1520 1.350 . S
C1515 N1523 1.427 . S
C1516 H1507 0.930 . S
C1516 C1514 1.378 . S
C1516 C1517 1.367 . S
C1517 C1516 1.367 . S
C1517 C1519 1.433 . S
C1518 C1514 1.350 . S
C1518 C1515 1.463 . S
C1518 N1522 1.427 . S
C1519 H1509 0.929 . S
C1519 C1517 1.433 . S
C1519 N1522 1.384 . S
C1520 H1511 0.929 . S
C1520 C1512 1.378 . S
C1520 C1515 1.350 . S
C1521 H1508 0.929 . S
C1521 C1513 1.433 . S
C1521 N1523 1.384 . S
N1522 C1518 1.427 . S
N1522 C1519 1.384 . S
N1523 C1515 1.427 . S
N1523 C1521 1.384 . S
H1524 C1530 0.930 . S
H1525 C1534 0.930 . S
H1526 C1539 0.929 . S
H1527 C1537 0.929 . S
H1528 C1532 0.929 . S
H1529 C1538 0.929 . S
C1530 H1524 0.930 . S
C1530 C1531 1.367 . S
C1530 C1538 1.378 . S
C1531 C1530 1.367 . S
C1531 C1539 1.433 . S
C1532 H1528 0.929 . S
C1532 C1534 1.378 . S
C1532 C1536 1.350 . S
C1533 C1536 1.463 . S
C1533 C1538 1.350 . S
C1533 N1541 1.427 . S
C1534 H1525 0.930 . S
C1534 C1532 1.378 . S
C1534 C1535 1.367 . S
C1535 C1534 1.367 . S
C1535 C1537 1.433 . S
C1536 C1532 1.350 . S
C1536 C1533 1.463 . S
C1536 N1540 1.427 . S
C1537 H1527 0.929 . S
C1537 C1535 1.433 . S
C1537 N1540 1.384 . S
C1538 H1529 0.929 . S
C1538 C1530 1.378 . S
C1538 C1533 1.350 . S
C1539 H1526 0.929 . S
C1539 C1531 1.433 . S
C1539 N1541 1.384 . S
N1540 C1536 1.427 . S
N1540 C1537 1.384 . S
N1541 C1533 1.427 . S
N1541 C1539 1.384 . S
H1542 C1548 0.930 . S
H1543 C1552 0.930 . S
H1544 C1557 0.929 . S
H1545 C1555 0.929 . S
H1546 C1550 0.929 . S
H1547 C1556 0.929 . S
C1548 H1542 0.930 . S
C1548 C1549 1.367 . S
C1548 C1556 1.378 . S
C1549 C1548 1.367 . S
C1549 C1557 1.433 . S
C1550 H1546 0.929 . S
C1550 C1552 1.378 . S
C1550 C1554 1.350 . S
C1551 C1554 1.463 . S
C1551 C1556 1.350 . S
C1551 N1559 1.427 . S
C1552 H1543 0.930 . S
C1552 C1550 1.378 . S
C1552 C1553 1.367 . S
C1553 C1552 1.367 . S
C1553 C1555 1.433 . S
C1554 C1550 1.350 . S
C1554 C1551 1.463 . S
C1554 N1558 1.427 . S
C1555 H1545 0.929 . S
C1555 C1553 1.433 . S
C1555 N1558 1.384 . S
C1556 H1547 0.929 . S
C1556 C1548 1.378 . S
C1556 C1551 1.350 . S
C1557 H1544 0.929 . S
C1557 C1549 1.433 . S
C1557 N1559 1.384 . S
N1558 C1554 1.427 . S
N1558 C1555 1.384 . S
N1559 C1551 1.427 . S
N1559 C1557 1.384 . S
H1560 C1566 0.930 . S
H1561 C1570 0.930 . S
H1562 C1575 0.929 . S
H1563 C1573 0.929 . S
H1564 C1568 0.929 . S
H1565 C1574 0.929 . S
C1566 H1560 0.930 . S
C1566 C1567 1.367 . S
C1566 C1574 1.378 . S
C1567 C1566 1.367 . S
C1567 C1575 1.433 . S
C1568 H1564 0.929 . S
C1568 C1570 1.378 . S
C1568 C1572 1.350 . S
C1569 C1572 1.463 . S
C1569 C1574 1.350 . S
C1569 N1577 1.427 . S
C1570 H1561 0.930 . S
C1570 C1568 1.378 . S
C1570 C1571 1.367 . S
C1571 C1570 1.367 . S
C1571 C1573 1.433 . S
C1572 C1568 1.350 . S
C1572 C1569 1.463 . S
C1572 N1576 1.427 . S
C1573 H1563 0.929 . S
C1573 C1571 1.433 . S
C1573 N1576 1.384 . S
C1574 H1565 0.929 . S
C1574 C1566 1.378 . S
C1574 C1569 1.350 . S
C1575 H1562 0.929 . S
C1575 C1567 1.433 . S
C1575 N1577 1.384 . S
N1576 C1572 1.427 . S
N1576 C1573 1.384 . S
N1577 C1569 1.427 . S
N1577 C1575 1.384 . S
H1578 C1584 0.930 . S
H1579 C1588 0.930 . S
H1580 C1593 0.929 . S
H1581 C1591 0.929 . S
H1582 C1586 0.929 . S
H1583 C1592 0.929 . S
C1584 H1578 0.930 . S
C1584 C1585 1.367 . S
C1584 C1592 1.378 . S
C1585 C1584 1.367 . S
C1585 C1593 1.433 . S
C1586 H1582 0.929 . S
C1586 C1588 1.378 . S
C1586 C1590 1.350 . S
C1587 C1590 1.463 . S
C1587 C1592 1.350 . S
C1587 N1595 1.427 . S
C1588 H1579 0.930 . S
C1588 C1586 1.378 . S
C1588 C1589 1.367 . S
C1589 C1588 1.367 . S
C1589 C1591 1.433 . S
C1590 C1586 1.350 . S
C1590 C1587 1.463 . S
C1590 N1594 1.427 . S
C1591 H1581 0.929 . S
C1591 C1589 1.433 . S
C1591 N1594 1.384 . S
C1592 H1583 0.929 . S
C1592 C1584 1.378 . S
C1592 C1587 1.350 . S
C1593 H1580 0.929 . S
C1593 C1585 1.433 . S
C1593 N1595 1.384 . S
N1594 C1590 1.427 . S
N1594 C1591 1.384 . S
N1595 C1587 1.427 . S
N1595 C1593 1.384 . S
H1596 C1602 0.930 . S
H1597 C1606 0.930 . S
H1598 C1611 0.929 . S
H1599 C1609 0.929 . S
H1600 C1604 0.929 . S
H1601 C1610 0.929 . S
C1602 H1596 0.930 . S
C1602 C1603 1.367 . S
C1602 C1610 1.378 . S
C1603 C1602 1.367 . S
C1603 C1611 1.433 . S
C1604 H1600 0.929 . S
C1604 C1606 1.378 . S
C1604 C1608 1.350 . S
C1605 C1608 1.463 . S
C1605 C1610 1.350 . S
C1605 N1613 1.427 . S
C1606 H1597 0.930 . S
C1606 C1604 1.378 . S
C1606 C1607 1.367 . S
C1607 C1606 1.367 . S
C1607 C1609 1.433 . S
C1608 C1604 1.350 . S
C1608 C1605 1.463 . S
C1608 N1612 1.427 . S
C1609 H1599 0.929 . S
C1609 C1607 1.433 . S
C1609 N1612 1.384 . S
C1610 H1601 0.929 . S
C1610 C1602 1.378 . S
C1610 C1605 1.350 . S
C1611 H1598 0.929 . S
C1611 C1603 1.433 . S
C1611 N1613 1.384 . S
N1612 C1608 1.427 . S
N1612 C1609 1.384 . S
N1613 C1605 1.427 . S
N1613 C1611 1.384 . S
H1614 C1620 0.930 . S
H1615 C1624 0.930 . S
H1616 C1629 0.929 . S
H1617 C1627 0.929 . S
H1618 C1622 0.929 . S
H1619 C1628 0.929 . S
C1620 H1614 0.930 . S
C1620 C1621 1.367 . S
C1620 C1628 1.378 . S
C1621 C1620 1.367 . S
C1621 C1629 1.433 . S
C1622 H1618 0.929 . S
C1622 C1624 1.378 . S
C1622 C1626 1.350 . S
C1623 C1626 1.463 . S
C1623 C1628 1.350 . S
C1623 N1631 1.427 . S
C1624 H1615 0.930 . S
C1624 C1622 1.378 . S
C1624 C1625 1.367 . S
C1625 C1624 1.367 . S
C1625 C1627 1.433 . S
C1626 C1622 1.350 . S
C1626 C1623 1.463 . S
C1626 N1630 1.427 . S
C1627 H1617 0.929 . S
C1627 C1625 1.433 . S
C1627 N1630 1.384 . S
C1628 H1619 0.929 . S
C1628 C1620 1.378 . S
C1628 C1623 1.350 . S
C1629 H1616 0.929 . S
C1629 C1621 1.433 . S
C1629 N1631 1.384 . S
N1630 C1626 1.427 . S
N1630 C1627 1.384 . S
N1631 C1623 1.427 . S
N1631 C1629 1.384 . S
H1632 C1638 0.930 . S
H1633 C1642 0.930 . S
H1634 C1647 0.929 . S
H1635 C1645 0.929 . S
H1636 C1640 0.929 . S
H1637 C1646 0.929 . S
C1638 H1632 0.930 . S
C1638 C1639 1.367 . S
C1638 C1646 1.378 . S
C1639 C1638 1.367 . S
C1639 C1647 1.433 . S
C1640 H1636 0.929 . S
C1640 C1642 1.378 . S
C1640 C1644 1.350 . S
C1641 C1644 1.463 . S
C1641 C1646 1.350 . S
C1641 N1649 1.427 . S
C1642 H1633 0.930 . S
C1642 C1640 1.378 . S
C1642 C1643 1.367 . S
C1643 C1642 1.367 . S
C1643 C1645 1.433 . S
C1644 C1640 1.350 . S
C1644 C1641 1.463 . S
C1644 N1648 1.427 . S
C1645 H1635 0.929 . S
C1645 C1643 1.433 . S
C1645 N1648 1.384 . S
C1646 H1637 0.929 . S
C1646 C1638 1.378 . S
C1646 C1641 1.350 . S
C1647 H1634 0.929 . S
C1647 C1639 1.433 . S
C1647 N1649 1.384 . S
N1648 C1644 1.427 . S
N1648 C1645 1.384 . S
N1649 C1641 1.427 . S
N1649 C1647 1.384 . S
H1650 C1656 0.930 . S
H1651 C1660 0.930 . S
H1652 C1665 0.929 . S
H1653 C1663 0.929 . S
H1654 C1658 0.929 . S
H1655 C1664 0.929 . S
C1656 H1650 0.930 . S
C1656 C1657 1.367 1_545 S
C1656 C1664 1.378 . S
C1657 C1656 1.367 1_565 S
C1657 C1665 1.433 . S
C1658 H1654 0.929 . S
C1658 C1660 1.378 . S
C1658 C1662 1.350 1_565 S
C1659 C1662 1.463 1_565 S
C1659 C1664 1.350 1_565 S
C1659 N1667 1.427 . S
C1660 H1651 0.930 . S
C1660 C1658 1.378 . S
C1660 C1661 1.367 1_565 S
C1661 C1660 1.367 1_545 S
C1661 C1663 1.433 . S
C1662 C1658 1.350 1_545 S
C1662 C1659 1.463 1_545 S
C1662 N1666 1.427 . S
C1663 H1653 0.929 . S
C1663 C1661 1.433 . S
C1663 N1666 1.384 . S
C1664 H1655 0.929 . S
C1664 C1656 1.378 . S
C1664 C1659 1.350 1_545 S
C1665 H1652 0.929 . S
C1665 C1657 1.433 . S
C1665 N1667 1.384 . S
N1666 C1662 1.427 . S
N1666 C1663 1.384 . S
N1667 C1659 1.427 . S
N1667 C1665 1.384 . S
H1668 C1674 0.930 . S
H1669 C1678 0.930 . S
H1670 C1683 0.929 . S
H1671 C1681 0.929 . S
H1672 C1676 0.929 . S
H1673 C1682 0.929 . S
C1674 H1668 0.930 . S
C1674 C1675 1.367 . S
C1674 C1682 1.378 . S
C1675 C1674 1.367 . S
C1675 C1683 1.433 . S
C1676 H1672 0.929 . S
C1676 C1678 1.378 . S
C1676 C1680 1.350 . S
C1677 C1680 1.463 . S
C1677 C1682 1.350 . S
C1677 N1685 1.427 . S
C1678 H1669 0.930 . S
C1678 C1676 1.378 . S
C1678 C1679 1.367 . S
C1679 C1678 1.367 . S
C1679 C1681 1.433 . S
C1680 C1676 1.350 . S
C1680 C1677 1.463 . S
C1680 N1684 1.427 . S
C1681 H1671 0.929 . S
C1681 C1679 1.433 . S
C1681 N1684 1.384 . S
C1682 H1673 0.929 . S
C1682 C1674 1.378 . S
C1682 C1677 1.350 . S
C1683 H1670 0.929 . S
C1683 C1675 1.433 . S
C1683 N1685 1.384 . S
N1684 C1680 1.427 . S
N1684 C1681 1.384 . S
N1685 C1677 1.427 . S
N1685 C1683 1.384 . S
H1686 C1692 0.930 . S
H1687 C1696 0.930 . S
H1688 C1701 0.929 . S
H1689 C1699 0.929 . S
H1690 C1694 0.929 . S
H1691 C1700 0.929 . S
C1692 H1686 0.930 . S
C1692 C1693 1.367 1_565 S
C1692 C1700 1.378 . S
C1693 C1692 1.367 1_545 S
C1693 C1701 1.433 . S
C1694 H1690 0.929 . S
C1694 C1696 1.378 . S
C1694 C1698 1.350 1_545 S
C1695 C1698 1.463 1_546 S
C1695 C1700 1.350 1_545 S
C1695 N1703 1.427 . S
C1696 H1687 0.930 . S
C1696 C1694 1.378 . S
C1696 C1697 1.367 1_545 S
C1697 C1696 1.367 1_565 S
C1697 C1699 1.433 . S
C1698 C1694 1.350 1_565 S
C1698 C1695 1.463 1_564 S
C1698 N1702 1.427 . S
C1699 H1689 0.929 . S
C1699 C1697 1.433 . S
C1699 N1702 1.384 . S
C1700 H1691 0.929 . S
C1700 C1692 1.378 . S
C1700 C1695 1.350 1_565 S
C1701 H1688 0.929 . S
C1701 C1693 1.433 . S
C1701 N1703 1.384 . S
N1702 C1698 1.427 . S
N1702 C1699 1.384 . S
N1703 C1695 1.427 . S
N1703 C1701 1.384 . S
H1704 C1710 0.930 . S
H1705 C1714 0.930 . S
H1706 C1719 0.929 . S
H1707 C1717 0.929 . S
H1708 C1712 0.929 . S
H1709 C1718 0.929 . S
C1710 H1704 0.930 . S
C1710 C1711 1.367 . S
C1710 C1718 1.378 . S
C1711 C1710 1.367 . S
C1711 C1719 1.433 . S
C1712 H1708 0.929 . S
C1712 C1714 1.378 . S
C1712 C1716 1.350 . S
C1713 C1716 1.463 . S
C1713 C1718 1.350 . S
C1713 N1721 1.427 . S
C1714 H1705 0.930 . S
C1714 C1712 1.378 . S
C1714 C1715 1.367 . S
C1715 C1714 1.367 . S
C1715 C1717 1.433 . S
C1716 C1712 1.350 . S
C1716 C1713 1.463 . S
C1716 N1720 1.427 . S
C1717 H1707 0.929 . S
C1717 C1715 1.433 . S
C1717 N1720 1.384 . S
C1718 H1709 0.929 . S
C1718 C1710 1.378 . S
C1718 C1713 1.350 . S
C1719 H1706 0.929 . S
C1719 C1711 1.433 . S
C1719 N1721 1.384 . S
N1720 C1716 1.427 . S
N1720 C1717 1.384 . S
N1721 C1713 1.427 . S
N1721 C1719 1.384 . S
H1722 C1728 0.930 . S
H1723 C1732 0.930 . S
H1724 C1737 0.929 . S
H1725 C1735 0.929 . S
H1726 C1730 0.929 . S
H1727 C1736 0.929 . S
C1728 H1722 0.930 . S
C1728 C1729 1.367 1_545 S
C1728 C1736 1.378 . S
C1729 C1728 1.367 1_565 S
C1729 C1737 1.433 . S
C1730 H1726 0.929 . S
C1730 C1732 1.378 . S
C1730 C1734 1.350 1_565 S
C1731 C1734 1.463 1_565 S
C1731 C1736 1.350 1_565 S
C1731 N1739 1.427 . S
C1732 H1723 0.930 . S
C1732 C1730 1.378 . S
C1732 C1733 1.367 1_565 S
C1733 C1732 1.367 1_545 S
C1733 C1735 1.433 . S
C1734 C1730 1.350 1_545 S
C1734 C1731 1.463 1_545 S
C1734 N1738 1.427 . S
C1735 H1725 0.929 . S
C1735 C1733 1.433 . S
C1735 N1738 1.384 . S
C1736 H1727 0.929 . S
C1736 C1728 1.378 . S
C1736 C1731 1.350 1_545 S
C1737 H1724 0.929 . S
C1737 C1729 1.433 . S
C1737 N1739 1.384 . S
N1738 C1734 1.427 . S
N1738 C1735 1.384 . S
N1739 C1731 1.427 . S
N1739 C1737 1.384 . S
H1740 C1746 0.930 . S
H1741 C1750 0.930 . S
H1742 C1755 0.929 . S
H1743 C1753 0.929 . S
H1744 C1748 0.929 . S
H1745 C1754 0.929 . S
C1746 H1740 0.930 . S
C1746 C1747 1.367 . S
C1746 C1754 1.378 . S
C1747 C1746 1.367 . S
C1747 C1755 1.433 . S
C1748 H1744 0.929 . S
C1748 C1750 1.378 . S
C1748 C1752 1.350 . S
C1749 C1752 1.463 . S
C1749 C1754 1.350 . S
C1749 N1757 1.427 . S
C1750 H1741 0.930 . S
C1750 C1748 1.378 . S
C1750 C1751 1.367 . S
C1751 C1750 1.367 . S
C1751 C1753 1.433 . S
C1752 C1748 1.350 . S
C1752 C1749 1.463 . S
C1752 N1756 1.427 . S
C1753 H1743 0.929 . S
C1753 C1751 1.433 . S
C1753 N1756 1.384 . S
C1754 H1745 0.929 . S
C1754 C1746 1.378 . S
C1754 C1749 1.350 . S
C1755 H1742 0.929 . S
C1755 C1747 1.433 . S
C1755 N1757 1.384 . S
N1756 C1752 1.427 . S
N1756 C1753 1.384 . S
N1757 C1749 1.427 . S
N1757 C1755 1.384 . S
H1758 C1764 0.930 . S
H1759 C1768 0.930 . S
H1760 C1773 0.929 . S
H1761 C1771 0.929 . S
H1762 C1766 0.935 . S
H1763 C1772 0.935 . S
C1764 H1758 0.930 . S
C1764 C1765 1.367 . S
C1764 C1772 1.374 1_545 S
C1765 C1764 1.367 . S
C1765 C1773 1.433 . S
C1766 H1762 0.935 . S
C1766 C1768 1.374 1_545 S
C1766 C1770 1.348 1_545 S
C1767 C1770 1.463 1_546 S
C1767 C1772 1.348 1_545 S
C1767 N1775 1.427 . S
C1768 H1759 0.930 . S
C1768 C1766 1.374 1_565 S
C1768 C1769 1.367 . S
C1769 C1768 1.367 . S
C1769 C1771 1.433 . S
C1770 C1766 1.348 1_565 S
C1770 C1767 1.463 1_564 S
C1770 N1774 1.427 . S
C1771 H1761 0.929 . S
C1771 C1769 1.433 . S
C1771 N1774 1.384 . S
C1772 H1763 0.935 . S
C1772 C1764 1.374 1_565 S
C1772 C1767 1.348 1_565 S
C1773 H1760 0.929 . S
C1773 C1765 1.433 . S
C1773 N1775 1.384 . S
N1774 C1770 1.427 . S
N1774 C1771 1.384 . S
N1775 C1767 1.427 . S
N1775 C1773 1.384 . S
H1776 C1782 0.930 . S
H1777 C1786 0.930 . S
H1778 C1791 0.929 . S
H1779 C1789 0.929 . S
H1780 C1784 0.929 . S
H1781 C1790 0.929 . S
C1782 H1776 0.930 . S
C1782 C1783 1.367 . S
C1782 C1790 1.378 . S
C1783 C1782 1.367 . S
C1783 C1791 1.433 . S
C1784 H1780 0.929 . S
C1784 C1786 1.378 . S
C1784 C1788 1.350 . S
C1785 C1788 1.463 . S
C1785 C1790 1.350 . S
C1785 N1793 1.427 . S
C1786 H1777 0.930 . S
C1786 C1784 1.378 . S
C1786 C1787 1.367 . S
C1787 C1786 1.367 . S
C1787 C1789 1.433 . S
C1788 C1784 1.350 . S
C1788 C1785 1.463 . S
C1788 N1792 1.427 . S
C1789 H1779 0.929 . S
C1789 C1787 1.433 . S
C1789 N1792 1.384 . S
C1790 H1781 0.929 . S
C1790 C1782 1.378 . S
C1790 C1785 1.350 . S
C1791 H1778 0.929 . S
C1791 C1783 1.433 . S
C1791 N1793 1.384 . S
N1792 C1788 1.427 . S
N1792 C1789 1.384 . S
N1793 C1785 1.427 . S
N1793 C1791 1.384 . S
H1794 C1800 0.930 . S
H1795 C1804 0.930 . S
H1796 C1809 0.929 . S
H1797 C1807 0.929 . S
H1798 C1802 0.929 . S
H1799 C1808 0.929 . S
C1800 H1794 0.930 . S
C1800 C1801 1.367 . S
C1800 C1808 1.378 . S
C1801 C1800 1.367 . S
C1801 C1809 1.433 . S
C1802 H1798 0.929 . S
C1802 C1804 1.378 . S
C1802 C1806 1.350 . S
C1803 C1806 1.463 1_556 S
C1803 C1808 1.350 . S
C1803 N1811 1.427 . S
C1804 H1795 0.930 . S
C1804 C1802 1.378 . S
C1804 C1805 1.367 . S
C1805 C1804 1.367 . S
C1805 C1807 1.433 . S
C1806 C1802 1.350 . S
C1806 C1803 1.463 1_554 S
C1806 N1810 1.427 . S
C1807 H1797 0.929 . S
C1807 C1805 1.433 . S
C1807 N1810 1.384 . S
C1808 H1799 0.929 . S
C1808 C1800 1.378 . S
C1808 C1803 1.350 . S
C1809 H1796 0.929 . S
C1809 C1801 1.433 . S
C1809 N1811 1.384 . S
N1810 C1806 1.427 . S
N1810 C1807 1.384 . S
N1811 C1803 1.427 . S
N1811 C1809 1.384 . S
H1812 C1818 0.930 . S
H1813 C1822 0.930 . S
H1814 C1827 0.929 . S
H1815 C1825 0.929 . S
H1816 C1820 0.929 . S
H1817 C1826 0.929 . S
C1818 H1812 0.930 . S
C1818 C1819 1.367 . S
C1818 C1826 1.378 . S
C1819 C1818 1.367 . S
C1819 C1827 1.433 . S
C1820 H1816 0.929 . S
C1820 C1822 1.378 . S
C1820 C1824 1.350 . S
C1821 C1824 1.463 . S
C1821 C1826 1.350 . S
C1821 N1829 1.427 . S
C1822 H1813 0.930 . S
C1822 C1820 1.378 . S
C1822 C1823 1.367 . S
C1823 C1822 1.367 . S
C1823 C1825 1.433 . S
C1824 C1820 1.350 . S
C1824 C1821 1.463 . S
C1824 N1828 1.427 . S
C1825 H1815 0.929 . S
C1825 C1823 1.433 . S
C1825 N1828 1.384 . S
C1826 H1817 0.929 . S
C1826 C1818 1.378 . S
C1826 C1821 1.350 . S
C1827 H1814 0.929 . S
C1827 C1819 1.433 . S
C1827 N1829 1.384 . S
N1828 C1824 1.427 . S
N1828 C1825 1.384 . S
N1829 C1821 1.427 . S
N1829 C1827 1.384 . S
H1830 C1836 0.930 . S
H1831 C1840 0.930 . S
H1832 C1845 0.929 . S
H1833 C1843 0.929 . S
H1834 C1838 0.929 . S
H1835 C1844 0.929 . S
C1836 H1830 0.930 . S
C1836 C1837 1.367 . S
C1836 C1844 1.378 . S
C1837 C1836 1.367 . S
C1837 C1845 1.433 . S
C1838 H1834 0.929 . S
C1838 C1840 1.378 . S
C1838 C1842 1.350 . S
C1839 C1842 1.463 . S
C1839 C1844 1.350 . S
C1839 N1847 1.427 . S
C1840 H1831 0.930 . S
C1840 C1838 1.378 . S
C1840 C1841 1.367 . S
C1841 C1840 1.367 . S
C1841 C1843 1.433 . S
C1842 C1838 1.350 . S
C1842 C1839 1.463 . S
C1842 N1846 1.427 . S
C1843 H1833 0.929 . S
C1843 C1841 1.433 . S
C1843 N1846 1.384 . S
C1844 H1835 0.929 . S
C1844 C1836 1.378 . S
C1844 C1839 1.350 . S
C1845 H1832 0.929 . S
C1845 C1837 1.433 . S
C1845 N1847 1.384 . S
N1846 C1842 1.427 . S
N1846 C1843 1.384 . S
N1847 C1839 1.427 . S
N1847 C1845 1.384 . S
H1848 C1854 0.930 . S
H1849 C1858 0.930 . S
H1850 C1863 0.929 . S
H1851 C1861 0.929 . S
H1852 C1856 0.929 . S
H1853 C1862 0.929 . S
C1854 H1848 0.930 . S
C1854 C1855 1.367 . S
C1854 C1862 1.378 . S
C1855 C1854 1.367 . S
C1855 C1863 1.433 . S
C1856 H1852 0.929 . S
C1856 C1858 1.378 . S
C1856 C1860 1.350 . S
C1857 C1860 1.463 . S
C1857 C1862 1.350 . S
C1857 N1865 1.427 . S
C1858 H1849 0.930 . S
C1858 C1856 1.378 . S
C1858 C1859 1.367 . S
C1859 C1858 1.367 . S
C1859 C1861 1.433 . S
C1860 C1856 1.350 . S
C1860 C1857 1.463 . S
C1860 N1864 1.427 . S
C1861 H1851 0.929 . S
C1861 C1859 1.433 . S
C1861 N1864 1.384 . S
C1862 H1853 0.929 . S
C1862 C1854 1.378 . S
C1862 C1857 1.350 . S
C1863 H1850 0.929 . S
C1863 C1855 1.433 . S
C1863 N1865 1.384 . S
N1864 C1860 1.427 . S
N1864 C1861 1.384 . S
N1865 C1857 1.427 . S
N1865 C1863 1.384 . S
H1866 C1872 0.930 . S
H1867 C1876 0.930 . S
H1868 C1881 0.929 . S
H1869 C1879 0.929 . S
H1870 C1874 0.929 . S
H1871 C1880 0.929 . S
C1872 H1866 0.930 . S
C1872 C1873 1.367 . S
C1872 C1880 1.378 . S
C1873 C1872 1.367 . S
C1873 C1881 1.433 . S
C1874 H1870 0.929 . S
C1874 C1876 1.378 . S
C1874 C1878 1.350 . S
C1875 C1878 1.463 1_556 S
C1875 C1880 1.350 . S
C1875 N1883 1.427 . S
C1876 H1867 0.930 . S
C1876 C1874 1.378 . S
C1876 C1877 1.367 . S
C1877 C1876 1.367 . S
C1877 C1879 1.433 . S
C1878 C1874 1.350 . S
C1878 C1875 1.463 1_554 S
C1878 N1882 1.427 . S
C1879 H1869 0.929 . S
C1879 C1877 1.433 . S
C1879 N1882 1.384 . S
C1880 H1871 0.929 . S
C1880 C1872 1.378 . S
C1880 C1875 1.350 . S
C1881 H1868 0.929 . S
C1881 C1873 1.433 . S
C1881 N1883 1.384 . S
N1882 C1878 1.427 . S
N1882 C1879 1.384 . S
N1883 C1875 1.427 . S
N1883 C1881 1.384 . S
H1884 C1890 0.930 . S
H1885 C1894 0.930 . S
H1886 C1899 0.929 . S
H1887 C1897 0.929 . S
H1888 C1892 0.929 . S
H1889 C1898 0.929 . S
C1890 H1884 0.930 . S
C1890 C1891 1.367 . S
C1890 C1898 1.378 . S
C1891 C1890 1.367 . S
C1891 C1899 1.433 . S
C1892 H1888 0.929 . S
C1892 C1894 1.378 . S
C1892 C1896 1.350 . S
C1893 C1896 1.463 . S
C1893 C1898 1.350 . S
C1893 N1901 1.427 . S
C1894 H1885 0.930 . S
C1894 C1892 1.378 . S
C1894 C1895 1.367 . S
C1895 C1894 1.367 . S
C1895 C1897 1.433 . S
C1896 C1892 1.350 . S
C1896 C1893 1.463 . S
C1896 N1900 1.427 . S
C1897 H1887 0.929 . S
C1897 C1895 1.433 . S
C1897 N1900 1.384 . S
C1898 H1889 0.929 . S
C1898 C1890 1.378 . S
C1898 C1893 1.350 . S
C1899 H1886 0.929 . S
C1899 C1891 1.433 . S
C1899 N1901 1.384 . S
N1900 C1896 1.427 . S
N1900 C1897 1.384 . S
N1901 C1893 1.427 . S
N1901 C1899 1.384 . S
H1902 C1908 0.930 . S
H1903 C1912 0.930 . S
H1904 C1917 0.929 . S
H1905 C1915 0.929 . S
H1906 C1910 0.929 . S
H1907 C1916 0.929 . S
C1908 H1902 0.930 . S
C1908 C1909 1.367 . S
C1908 C1916 1.378 . S
C1909 C1908 1.367 . S
C1909 C1917 1.433 . S
C1910 H1906 0.929 . S
C1910 C1912 1.378 . S
C1910 C1914 1.350 . S
C1911 C1914 1.463 . S
C1911 C1916 1.350 . S
C1911 N1919 1.427 . S
C1912 H1903 0.930 . S
C1912 C1910 1.378 . S
C1912 C1913 1.367 . S
C1913 C1912 1.367 . S
C1913 C1915 1.433 . S
C1914 C1910 1.350 . S
C1914 C1911 1.463 . S
C1914 N1918 1.427 . S
C1915 H1905 0.929 . S
C1915 C1913 1.433 . S
C1915 N1918 1.384 . S
C1916 H1907 0.929 . S
C1916 C1908 1.378 . S
C1916 C1911 1.350 . S
C1917 H1904 0.929 . S
C1917 C1909 1.433 . S
C1917 N1919 1.384 . S
N1918 C1914 1.427 . S
N1918 C1915 1.384 . S
N1919 C1911 1.427 . S
N1919 C1917 1.384 . S
H1920 C1926 0.930 . S
H1921 C1930 0.930 . S
H1922 C1935 0.929 . S
H1923 C1933 0.929 . S
H1924 C1928 0.929 . S
H1925 C1934 0.929 . S
C1926 H1920 0.930 . S
C1926 C1927 1.367 . S
C1926 C1934 1.378 . S
C1927 C1926 1.367 . S
C1927 C1935 1.433 . S
C1928 H1924 0.929 . S
C1928 C1930 1.378 . S
C1928 C1932 1.350 . S
C1929 C1932 1.463 . S
C1929 C1934 1.350 . S
C1929 N1937 1.427 . S
C1930 H1921 0.930 . S
C1930 C1928 1.378 . S
C1930 C1931 1.367 . S
C1931 C1930 1.367 . S
C1931 C1933 1.433 . S
C1932 C1928 1.350 . S
C1932 C1929 1.463 . S
C1932 N1936 1.427 . S
C1933 H1923 0.929 . S
C1933 C1931 1.433 . S
C1933 N1936 1.384 . S
C1934 H1925 0.929 . S
C1934 C1926 1.378 . S
C1934 C1929 1.350 . S
C1935 H1922 0.929 . S
C1935 C1927 1.433 . S
C1935 N1937 1.384 . S
N1936 C1932 1.427 . S
N1936 C1933 1.384 . S
N1937 C1929 1.427 . S
N1937 C1935 1.384 . S
H1938 C1944 0.930 . S
H1939 C1948 0.930 . S
H1940 C1953 0.929 . S
H1941 C1951 0.929 . S
H1942 C1946 0.929 . S
H1943 C1952 0.929 . S
C1944 H1938 0.930 . S
C1944 C1945 1.367 . S
C1944 C1952 1.378 . S
C1945 C1944 1.367 . S
C1945 C1953 1.433 . S
C1946 H1942 0.929 . S
C1946 C1948 1.378 . S
C1946 C1950 1.350 . S
C1947 C1950 1.463 . S
C1947 C1952 1.350 . S
C1947 N1955 1.427 . S
C1948 H1939 0.930 . S
C1948 C1946 1.378 . S
C1948 C1949 1.367 . S
C1949 C1948 1.367 . S
C1949 C1951 1.433 . S
C1950 C1946 1.350 . S
C1950 C1947 1.463 . S
C1950 N1954 1.427 . S
C1951 H1941 0.929 . S
C1951 C1949 1.433 . S
C1951 N1954 1.384 . S
C1952 H1943 0.929 . S
C1952 C1944 1.378 . S
C1952 C1947 1.350 . S
C1953 H1940 0.929 . S
C1953 C1945 1.433 . S
C1953 N1955 1.384 . S
N1954 C1950 1.427 . S
N1954 C1951 1.384 . S
N1955 C1947 1.427 . S
N1955 C1953 1.384 . S
H1956 C1962 0.930 . S
H1957 C1966 0.930 . S
H1958 C1971 0.929 . S
H1959 C1969 0.929 . S
H1960 C1964 0.929 . S
H1961 C1970 0.929 . S
C1962 H1956 0.930 . S
C1962 C1963 1.367 . S
C1962 C1970 1.378 . S
C1963 C1962 1.367 . S
C1963 C1971 1.433 . S
C1964 H1960 0.929 . S
C1964 C1966 1.378 . S
C1964 C1968 1.350 . S
C1965 C1968 1.463 . S
C1965 C1970 1.350 . S
C1965 N1973 1.427 . S
C1966 H1957 0.930 . S
C1966 C1964 1.378 . S
C1966 C1967 1.367 . S
C1967 C1966 1.367 . S
C1967 C1969 1.433 . S
C1968 C1964 1.350 . S
C1968 C1965 1.463 . S
C1968 N1972 1.427 . S
C1969 H1959 0.929 . S
C1969 C1967 1.433 . S
C1969 N1972 1.384 . S
C1970 H1961 0.929 . S
C1970 C1962 1.378 . S
C1970 C1965 1.350 . S
C1971 H1958 0.929 . S
C1971 C1963 1.433 . S
C1971 N1973 1.384 . S
N1972 C1968 1.427 . S
N1972 C1969 1.384 . S
N1973 C1965 1.427 . S
N1973 C1971 1.384 . S
H1974 C1980 0.930 . S
H1975 C1984 0.930 . S
H1976 C1989 0.929 . S
H1977 C1987 0.929 . S
H1978 C1982 0.929 . S
H1979 C1988 0.929 . S
C1980 H1974 0.930 . S
C1980 C1981 1.367 . S
C1980 C1988 1.378 . S
C1981 C1980 1.367 . S
C1981 C1989 1.433 . S
C1982 H1978 0.929 . S
C1982 C1984 1.378 . S
C1982 C1986 1.350 . S
C1983 C1986 1.463 . S
C1983 C1988 1.350 . S
C1983 N1991 1.427 . S
C1984 H1975 0.930 . S
C1984 C1982 1.378 . S
C1984 C1985 1.367 . S
C1985 C1984 1.367 . S
C1985 C1987 1.433 . S
C1986 C1982 1.350 . S
C1986 C1983 1.463 . S
C1986 N1990 1.427 . S
C1987 H1977 0.929 . S
C1987 C1985 1.433 . S
C1987 N1990 1.384 . S
C1988 H1979 0.929 . S
C1988 C1980 1.378 . S
C1988 C1983 1.350 . S
C1989 H1976 0.929 . S
C1989 C1981 1.433 . S
C1989 N1991 1.384 . S
N1990 C1986 1.427 . S
N1990 C1987 1.384 . S
N1991 C1983 1.427 . S
N1991 C1989 1.384 . S
H1992 C1998 0.930 . S
H1993 C2002 0.930 . S
H1994 C2007 0.929 . S
H1995 C2005 0.929 . S
H1996 C2000 0.929 . S
H1997 C2006 0.929 . S
C1998 H1992 0.930 . S
C1998 C1999 1.367 . S
C1998 C2006 1.378 . S
C1999 C1998 1.367 . S
C1999 C2007 1.433 . S
C2000 H1996 0.929 . S
C2000 C2002 1.378 . S
C2000 C2004 1.350 . S
C2001 C2004 1.463 . S
C2001 C2006 1.350 . S
C2001 N2009 1.427 . S
C2002 H1993 0.930 . S
C2002 C2000 1.378 . S
C2002 C2003 1.367 . S
C2003 C2002 1.367 . S
C2003 C2005 1.433 . S
C2004 C2000 1.350 . S
C2004 C2001 1.463 . S
C2004 N2008 1.427 . S
C2005 H1995 0.929 . S
C2005 C2003 1.433 . S
C2005 N2008 1.384 . S
C2006 H1997 0.929 . S
C2006 C1998 1.378 . S
C2006 C2001 1.350 . S
C2007 H1994 0.929 . S
C2007 C1999 1.433 . S
C2007 N2009 1.384 . S
N2008 C2004 1.427 . S
N2008 C2005 1.384 . S
N2009 C2001 1.427 . S
N2009 C2007 1.384 . S
H2010 C2016 0.930 . S
H2011 C2020 0.930 . S
H2012 C2025 0.929 . S
H2013 C2023 0.929 . S
H2014 C2018 0.929 . S
H2015 C2024 0.929 . S
C2016 H2010 0.930 . S
C2016 C2017 1.367 . S
C2016 C2024 1.378 . S
C2017 C2016 1.367 . S
C2017 C2025 1.433 . S
C2018 H2014 0.929 . S
C2018 C2020 1.378 . S
C2018 C2022 1.350 . S
C2019 C2022 1.463 . S
C2019 C2024 1.350 . S
C2019 N2027 1.427 . S
C2020 H2011 0.930 . S
C2020 C2018 1.378 . S
C2020 C2021 1.367 . S
C2021 C2020 1.367 . S
C2021 C2023 1.433 . S
C2022 C2018 1.350 . S
C2022 C2019 1.463 . S
C2022 N2026 1.427 . S
C2023 H2013 0.929 . S
C2023 C2021 1.433 . S
C2023 N2026 1.384 . S
C2024 H2015 0.929 . S
C2024 C2016 1.378 . S
C2024 C2019 1.350 . S
C2025 H2012 0.929 . S
C2025 C2017 1.433 . S
C2025 N2027 1.384 . S
N2026 C2022 1.427 . S
N2026 C2023 1.384 . S
N2027 C2019 1.427 . S
N2027 C2025 1.384 . S
H2028 C2034 0.930 . S
H2029 C2038 0.930 . S
H2030 C2043 0.929 . S
H2031 C2041 0.929 . S
H2032 C2036 0.929 . S
H2033 C2042 0.929 . S
C2034 H2028 0.930 . S
C2034 C2035 1.367 . S
C2034 C2042 1.378 . S
C2035 C2034 1.367 . S
C2035 C2043 1.433 . S
C2036 H2032 0.929 . S
C2036 C2038 1.378 . S
C2036 C2040 1.350 . S
C2037 C2040 1.463 . S
C2037 C2042 1.350 . S
C2037 N2045 1.427 . S
C2038 H2029 0.930 . S
C2038 C2036 1.378 . S
C2038 C2039 1.367 . S
C2039 C2038 1.367 . S
C2039 C2041 1.433 . S
C2040 C2036 1.350 . S
C2040 C2037 1.463 . S
C2040 N2044 1.427 . S
C2041 H2031 0.929 . S
C2041 C2039 1.433 . S
C2041 N2044 1.384 . S
C2042 H2033 0.929 . S
C2042 C2034 1.378 . S
C2042 C2037 1.350 . S
C2043 H2030 0.929 . S
C2043 C2035 1.433 . S
C2043 N2045 1.384 . S
N2044 C2040 1.427 . S
N2044 C2041 1.384 . S
N2045 C2037 1.427 . S
N2045 C2043 1.384 . S
H2046 C2052 0.930 . S
H2047 C2056 0.930 . S
H2048 C2061 0.929 . S
H2049 C2059 0.929 . S
H2050 C2054 0.929 . S
H2051 C2060 0.929 . S
C2052 H2046 0.930 . S
C2052 C2053 1.367 . S
C2052 C2060 1.378 . S
C2053 C2052 1.367 . S
C2053 C2061 1.433 . S
C2054 H2050 0.929 . S
C2054 C2056 1.378 . S
C2054 C2058 1.350 . S
C2055 C2058 1.463 . S
C2055 C2060 1.350 . S
C2055 N2063 1.427 . S
C2056 H2047 0.930 . S
C2056 C2054 1.378 . S
C2056 C2057 1.367 . S
C2057 C2056 1.367 . S
C2057 C2059 1.433 . S
C2058 C2054 1.350 . S
C2058 C2055 1.463 . S
C2058 N2062 1.427 . S
C2059 H2049 0.929 . S
C2059 C2057 1.433 . S
C2059 N2062 1.384 . S
C2060 H2051 0.929 . S
C2060 C2052 1.378 . S
C2060 C2055 1.350 . S
C2061 H2048 0.929 . S
C2061 C2053 1.433 . S
C2061 N2063 1.384 . S
N2062 C2058 1.427 . S
N2062 C2059 1.384 . S
N2063 C2055 1.427 . S
N2063 C2061 1.384 . S
H2064 C2070 0.930 . S
H2065 C2074 0.930 . S
H2066 C2079 0.929 . S
H2067 C2077 0.929 . S
H2068 C2072 0.929 . S
H2069 C2078 0.929 . S
C2070 H2064 0.930 . S
C2070 C2071 1.367 . S
C2070 C2078 1.378 . S
C2071 C2070 1.367 . S
C2071 C2079 1.433 . S
C2072 H2068 0.929 . S
C2072 C2074 1.378 . S
C2072 C2076 1.350 . S
C2073 C2076 1.463 . S
C2073 C2078 1.350 . S
C2073 N2081 1.427 . S
C2074 H2065 0.930 . S
C2074 C2072 1.378 . S
C2074 C2075 1.367 . S
C2075 C2074 1.367 . S
C2075 C2077 1.433 . S
C2076 C2072 1.350 . S
C2076 C2073 1.463 . S
C2076 N2080 1.427 . S
C2077 H2067 0.929 . S
C2077 C2075 1.433 . S
C2077 N2080 1.384 . S
C2078 H2069 0.929 . S
C2078 C2070 1.378 . S
C2078 C2073 1.350 . S
C2079 H2066 0.929 . S
C2079 C2071 1.433 . S
C2079 N2081 1.384 . S
N2080 C2076 1.427 . S
N2080 C2077 1.384 . S
N2081 C2073 1.427 . S
N2081 C2079 1.384 . S
H2082 C2088 0.930 . S
H2083 C2092 0.930 . S
H2084 C2097 0.929 . S
H2085 C2095 0.929 . S
H2086 C2090 0.929 . S
H2087 C2096 0.929 . S
C2088 H2082 0.930 . S
C2088 C2089 1.367 . S
C2088 C2096 1.378 . S
C2089 C2088 1.367 . S
C2089 C2097 1.433 . S
C2090 H2086 0.929 . S
C2090 C2092 1.378 . S
C2090 C2094 1.350 . S
C2091 C2094 1.463 . S
C2091 C2096 1.350 . S
C2091 N2099 1.427 . S
C2092 H2083 0.930 . S
C2092 C2090 1.378 . S
C2092 C2093 1.367 . S
C2093 C2092 1.367 . S
C2093 C2095 1.433 . S
C2094 C2090 1.350 . S
C2094 C2091 1.463 . S
C2094 N2098 1.427 . S
C2095 H2085 0.929 . S
C2095 C2093 1.433 . S
C2095 N2098 1.384 . S
C2096 H2087 0.929 . S
C2096 C2088 1.378 . S
C2096 C2091 1.350 . S
C2097 H2084 0.929 . S
C2097 C2089 1.433 . S
C2097 N2099 1.384 . S
N2098 C2094 1.427 . S
N2098 C2095 1.384 . S
N2099 C2091 1.427 . S
N2099 C2097 1.384 . S
H2100 C2106 0.930 . S
H2101 C2110 0.930 . S
H2102 C2115 0.929 . S
H2103 C2113 0.929 . S
H2104 C2108 0.929 . S
H2105 C2114 0.929 . S
C2106 H2100 0.930 . S
C2106 C2107 1.367 . S
C2106 C2114 1.378 . S
C2107 C2106 1.367 . S
C2107 C2115 1.433 . S
C2108 H2104 0.929 . S
C2108 C2110 1.378 . S
C2108 C2112 1.350 . S
C2109 C2112 1.463 . S
C2109 C2114 1.350 . S
C2109 N2117 1.427 . S
C2110 H2101 0.930 . S
C2110 C2108 1.378 . S
C2110 C2111 1.367 . S
C2111 C2110 1.367 . S
C2111 C2113 1.433 . S
C2112 C2108 1.350 . S
C2112 C2109 1.463 . S
C2112 N2116 1.427 . S
C2113 H2103 0.929 . S
C2113 C2111 1.433 . S
C2113 N2116 1.384 . S
C2114 H2105 0.929 . S
C2114 C2106 1.378 . S
C2114 C2109 1.350 . S
C2115 H2102 0.929 . S
C2115 C2107 1.433 . S
C2115 N2117 1.384 . S
N2116 C2112 1.427 . S
N2116 C2113 1.384 . S
N2117 C2109 1.427 . S
N2117 C2115 1.384 . S
H2118 C2124 0.930 . S
H2119 C2128 0.930 . S
H2120 C2133 0.929 . S
H2121 C2131 0.929 . S
H2122 C2126 0.929 . S
H2123 C2132 0.929 . S
C2124 H2118 0.930 . S
C2124 C2125 1.367 . S
C2124 C2132 1.378 . S
C2125 C2124 1.367 . S
C2125 C2133 1.433 . S
C2126 H2122 0.929 . S
C2126 C2128 1.378 . S
C2126 C2130 1.350 . S
C2127 C2130 1.463 . S
C2127 C2132 1.350 . S
C2127 N2135 1.427 . S
C2128 H2119 0.930 . S
C2128 C2126 1.378 . S
C2128 C2129 1.367 . S
C2129 C2128 1.367 . S
C2129 C2131 1.433 . S
C2130 C2126 1.350 . S
C2130 C2127 1.463 . S
C2130 N2134 1.427 . S
C2131 H2121 0.929 . S
C2131 C2129 1.433 . S
C2131 N2134 1.384 . S
C2132 H2123 0.929 . S
C2132 C2124 1.378 . S
C2132 C2127 1.350 . S
C2133 H2120 0.929 . S
C2133 C2125 1.433 . S
C2133 N2135 1.384 . S
N2134 C2130 1.427 . S
N2134 C2131 1.384 . S
N2135 C2127 1.427 . S
N2135 C2133 1.384 . S
H2136 C2142 0.930 . S
H2137 C2146 0.930 . S
H2138 C2151 0.929 . S
H2139 C2149 0.929 . S
H2140 C2144 0.929 . S
H2141 C2150 0.929 . S
C2142 H2136 0.930 . S
C2142 C2143 1.367 . S
C2142 C2150 1.378 . S
C2143 C2142 1.367 . S
C2143 C2151 1.433 . S
C2144 H2140 0.929 . S
C2144 C2146 1.378 . S
C2144 C2148 1.350 . S
C2145 C2148 1.463 . S
C2145 C2150 1.350 . S
C2145 N2153 1.427 . S
C2146 H2137 0.930 . S
C2146 C2144 1.378 . S
C2146 C2147 1.367 . S
C2147 C2146 1.367 . S
C2147 C2149 1.433 . S
C2148 C2144 1.350 . S
C2148 C2145 1.463 . S
C2148 N2152 1.427 . S
C2149 H2139 0.929 . S
C2149 C2147 1.433 . S
C2149 N2152 1.384 . S
C2150 H2141 0.929 . S
C2150 C2142 1.378 . S
C2150 C2145 1.350 . S
C2151 H2138 0.929 . S
C2151 C2143 1.433 . S
C2151 N2153 1.384 . S
N2152 C2148 1.427 . S
N2152 C2149 1.384 . S
N2153 C2145 1.427 . S
N2153 C2151 1.384 . S
H2154 C2160 0.930 . S
H2155 C2164 0.930 . S
H2156 C2169 0.929 . S
H2157 C2167 0.929 . S
H2158 C2162 0.929 . S
H2159 C2168 0.929 . S
C2160 H2154 0.930 . S
C2160 C2161 1.367 . S
C2160 C2168 1.378 . S
C2161 C2160 1.367 . S
C2161 C2169 1.433 . S
C2162 H2158 0.929 . S
C2162 C2164 1.378 . S
C2162 C2166 1.350 . S
C2163 C2166 1.463 . S
C2163 C2168 1.350 . S
C2163 N2171 1.427 . S
C2164 H2155 0.930 . S
C2164 C2162 1.378 . S
C2164 C2165 1.367 . S
C2165 C2164 1.367 . S
C2165 C2167 1.433 . S
C2166 C2162 1.350 . S
C2166 C2163 1.463 . S
C2166 N2170 1.427 . S
C2167 H2157 0.929 . S
C2167 C2165 1.433 . S
C2167 N2170 1.384 . S
C2168 H2159 0.929 . S
C2168 C2160 1.378 . S
C2168 C2163 1.350 . S
C2169 H2156 0.929 . S
C2169 C2161 1.433 . S
C2169 N2171 1.384 . S
N2170 C2166 1.427 . S
N2170 C2167 1.384 . S
N2171 C2163 1.427 . S
N2171 C2169 1.384 . S
H2172 C2178 0.930 . S
H2173 C2182 0.930 . S
H2174 C2187 0.929 . S
H2175 C2185 0.929 . S
H2176 C2180 0.929 . S
H2177 C2186 0.929 . S
C2178 H2172 0.930 . S
C2178 C2179 1.367 . S
C2178 C2186 1.378 . S
C2179 C2178 1.367 . S
C2179 C2187 1.433 . S
C2180 H2176 0.929 . S
C2180 C2182 1.378 . S
C2180 C2184 1.350 . S
C2181 C2184 1.463 . S
C2181 C2186 1.350 . S
C2181 N2189 1.427 . S
C2182 H2173 0.930 . S
C2182 C2180 1.378 . S
C2182 C2183 1.367 . S
C2183 C2182 1.367 . S
C2183 C2185 1.433 . S
C2184 C2180 1.350 . S
C2184 C2181 1.463 . S
C2184 N2188 1.427 . S
C2185 H2175 0.929 . S
C2185 C2183 1.433 . S
C2185 N2188 1.384 . S
C2186 H2177 0.929 . S
C2186 C2178 1.378 . S
C2186 C2181 1.350 . S
C2187 H2174 0.929 . S
C2187 C2179 1.433 . S
C2187 N2189 1.384 . S
N2188 C2184 1.427 . S
N2188 C2185 1.384 . S
N2189 C2181 1.427 . S
N2189 C2187 1.384 . S
H2190 C2196 0.930 . S
H2191 C2200 0.930 . S
H2192 C2205 0.929 . S
H2193 C2203 0.929 . S
H2194 C2198 0.929 . S
H2195 C2204 0.929 . S
C2196 H2190 0.930 . S
C2196 C2197 1.367 . S
C2196 C2204 1.378 . S
C2197 C2196 1.367 . S
C2197 C2205 1.433 . S
C2198 H2194 0.929 . S
C2198 C2200 1.378 . S
C2198 C2202 1.350 . S
C2199 C2202 1.463 . S
C2199 C2204 1.350 . S
C2199 N2207 1.427 . S
C2200 H2191 0.930 . S
C2200 C2198 1.378 . S
C2200 C2201 1.367 . S
C2201 C2200 1.367 . S
C2201 C2203 1.433 . S
C2202 C2198 1.350 . S
C2202 C2199 1.463 . S
C2202 N2206 1.427 . S
C2203 H2193 0.929 . S
C2203 C2201 1.433 . S
C2203 N2206 1.384 . S
C2204 H2195 0.929 . S
C2204 C2196 1.378 . S
C2204 C2199 1.350 . S
C2205 H2192 0.929 . S
C2205 C2197 1.433 . S
C2205 N2207 1.384 . S
N2206 C2202 1.427 . S
N2206 C2203 1.384 . S
N2207 C2199 1.427 . S
N2207 C2205 1.384 . S
H2208 C2214 0.930 . S
H2209 C2218 0.930 . S
H2210 C2223 0.929 . S
H2211 C2221 0.929 . S
H2212 C2216 0.929 . S
H2213 C2222 0.929 . S
C2214 H2208 0.930 . S
C2214 C2215 1.367 . S
C2214 C2222 1.378 . S
C2215 C2214 1.367 . S
C2215 C2223 1.433 . S
C2216 H2212 0.929 . S
C2216 C2218 1.378 . S
C2216 C2220 1.350 . S
C2217 C2220 1.463 . S
C2217 C2222 1.350 . S
C2217 N2225 1.427 . S
C2218 H2209 0.930 . S
C2218 C2216 1.378 . S
C2218 C2219 1.367 . S
C2219 C2218 1.367 . S
C2219 C2221 1.433 . S
C2220 C2216 1.350 . S
C2220 C2217 1.463 . S
C2220 N2224 1.427 . S
C2221 H2211 0.929 . S
C2221 C2219 1.433 . S
C2221 N2224 1.384 . S
C2222 H2213 0.929 . S
C2222 C2214 1.378 . S
C2222 C2217 1.350 . S
C2223 H2210 0.929 . S
C2223 C2215 1.433 . S
C2223 N2225 1.384 . S
N2224 C2220 1.427 . S
N2224 C2221 1.384 . S
N2225 C2217 1.427 . S
N2225 C2223 1.384 . S
H2226 C2232 0.930 . S
H2227 C2236 0.930 . S
H2228 C2241 0.929 . S
H2229 C2239 0.929 . S
H2230 C2234 0.929 . S
H2231 C2240 0.929 . S
C2232 H2226 0.930 . S
C2232 C2233 1.367 1_545 S
C2232 C2240 1.378 . S
C2233 C2232 1.367 1_565 S
C2233 C2241 1.433 . S
C2234 H2230 0.929 . S
C2234 C2236 1.378 . S
C2234 C2238 1.350 . S
C2235 C2238 1.463 1_655 S
C2235 C2240 1.350 1_565 S
C2235 N2243 1.427 . S
C2236 H2227 0.930 . S
C2236 C2234 1.378 . S
C2236 C2237 1.367 . S
C2237 C2236 1.367 . S
C2237 C2239 1.433 1_565 S
C2238 C2234 1.350 . S
C2238 C2235 1.463 1_455 S
C2238 N2242 1.427 1_565 S
C2239 H2229 0.929 . S
C2239 C2237 1.433 1_545 S
C2239 N2242 1.384 . S
C2240 H2231 0.929 . S
C2240 C2232 1.378 . S
C2240 C2235 1.350 1_545 S
C2241 H2228 0.929 . S
C2241 C2233 1.433 . S
C2241 N2243 1.384 . S
N2242 C2238 1.427 1_545 S
N2242 C2239 1.384 . S
N2243 C2235 1.427 . S
N2243 C2241 1.384 . S
H2244 C2250 0.930 . S
H2245 C2254 0.930 . S
H2246 C2259 0.929 . S
H2247 C2257 0.929 . S
H2248 C2252 0.929 . S
H2249 C2258 0.929 . S
C2250 H2244 0.930 . S
C2250 C2251 1.367 . S
C2250 C2258 1.378 . S
C2251 C2250 1.367 . S
C2251 C2259 1.433 . S
C2252 H2248 0.929 . S
C2252 C2254 1.378 . S
C2252 C2256 1.350 . S
C2253 C2256 1.463 . S
C2253 C2258 1.350 . S
C2253 N2261 1.427 . S
C2254 H2245 0.930 . S
C2254 C2252 1.378 . S
C2254 C2255 1.367 . S
C2255 C2254 1.367 . S
C2255 C2257 1.433 . S
C2256 C2252 1.350 . S
C2256 C2253 1.463 . S
C2256 N2260 1.427 . S
C2257 H2247 0.929 . S
C2257 C2255 1.433 . S
C2257 N2260 1.384 . S
C2258 H2249 0.929 . S
C2258 C2250 1.378 . S
C2258 C2253 1.350 . S
C2259 H2246 0.929 . S
C2259 C2251 1.433 . S
C2259 N2261 1.384 . S
N2260 C2256 1.427 . S
N2260 C2257 1.384 . S
N2261 C2253 1.427 . S
N2261 C2259 1.384 . S
H2262 C2268 0.930 . S
H2263 C2272 0.930 . S
H2264 C2277 0.929 . S
H2265 C2275 0.929 . S
H2266 C2270 0.929 . S
H2267 C2276 0.929 . S
C2268 H2262 0.930 . S
C2268 C2269 1.367 1_565 S
C2268 C2276 1.378 . S
C2269 C2268 1.367 1_545 S
C2269 C2277 1.433 . S
C2270 H2266 0.929 . S
C2270 C2272 1.378 . S
C2270 C2274 1.350 . S
C2271 C2274 1.463 . S
C2271 C2276 1.350 1_545 S
C2271 N2279 1.427 . S
C2272 H2263 0.930 . S
C2272 C2270 1.378 . S
C2272 C2273 1.367 . S
C2273 C2272 1.367 . S
C2273 C2275 1.433 1_545 S
C2274 C2270 1.350 . S
C2274 C2271 1.463 . S
C2274 N2278 1.427 1_545 S
C2275 H2265 0.929 . S
C2275 C2273 1.433 1_565 S
C2275 N2278 1.384 . S
C2276 H2267 0.929 . S
C2276 C2268 1.378 . S
C2276 C2271 1.350 1_565 S
C2277 H2264 0.929 . S
C2277 C2269 1.433 . S
C2277 N2279 1.384 . S
N2278 C2274 1.427 1_565 S
N2278 C2275 1.384 . S
N2279 C2271 1.427 . S
N2279 C2277 1.384 . S
H2280 C2286 0.930 . S
H2281 C2290 0.930 . S
H2282 C2295 0.929 . S
H2283 C2293 0.929 . S
H2284 C2288 0.929 . S
H2285 C2294 0.929 . S
C2286 H2280 0.930 . S
C2286 C2287 1.367 . S
C2286 C2294 1.378 . S
C2287 C2286 1.367 . S
C2287 C2295 1.433 . S
C2288 H2284 0.929 . S
C2288 C2290 1.378 . S
C2288 C2292 1.350 . S
C2289 C2292 1.463 . S
C2289 C2294 1.350 . S
C2289 N2297 1.427 . S
C2290 H2281 0.930 . S
C2290 C2288 1.378 . S
C2290 C2291 1.367 . S
C2291 C2290 1.367 . S
C2291 C2293 1.433 . S
C2292 C2288 1.350 . S
C2292 C2289 1.463 . S
C2292 N2296 1.427 . S
C2293 H2283 0.929 . S
C2293 C2291 1.433 . S
C2293 N2296 1.384 . S
C2294 H2285 0.929 . S
C2294 C2286 1.378 . S
C2294 C2289 1.350 . S
C2295 H2282 0.929 . S
C2295 C2287 1.433 . S
C2295 N2297 1.384 . S
N2296 C2292 1.427 . S
N2296 C2293 1.384 . S
N2297 C2289 1.427 . S
N2297 C2295 1.384 . S
H2298 C2304 0.930 . S
H2299 C2308 0.930 . S
H2300 C2313 0.929 . S
H2301 C2311 0.929 . S
H2302 C2306 0.929 . S
H2303 C2312 0.929 . S
C2304 H2298 0.930 . S
C2304 C2305 1.367 1_545 S
C2304 C2312 1.378 . S
C2305 C2304 1.367 1_565 S
C2305 C2313 1.433 . S
C2306 H2302 0.929 . S
C2306 C2308 1.378 . S
C2306 C2310 1.350 . S
C2307 C2310 1.463 . S
C2307 C2312 1.350 1_565 S
C2307 N2315 1.427 . S
C2308 H2299 0.930 . S
C2308 C2306 1.378 . S
C2308 C2309 1.367 . S
C2309 C2308 1.367 . S
C2309 C2311 1.433 1_565 S
C2310 C2306 1.350 . S
C2310 C2307 1.463 . S
C2310 N2314 1.427 1_565 S
C2311 H2301 0.929 . S
C2311 C2309 1.433 1_545 S
C2311 N2314 1.384 . S
C2312 H2303 0.929 . S
C2312 C2304 1.378 . S
C2312 C2307 1.350 1_545 S
C2313 H2300 0.929 . S
C2313 C2305 1.433 . S
C2313 N2315 1.384 . S
N2314 C2310 1.427 1_545 S
N2314 C2311 1.384 . S
N2315 C2307 1.427 . S
N2315 C2313 1.384 . S
H2316 C2322 0.930 . S
H2317 C2326 0.930 . S
H2318 C2331 0.929 . S
H2319 C2329 0.929 . S
H2320 C2324 0.929 . S
H2321 C2330 0.929 . S
C2322 H2316 0.930 . S
C2322 C2323 1.367 . S
C2322 C2330 1.378 . S
C2323 C2322 1.367 . S
C2323 C2331 1.433 . S
C2324 H2320 0.929 . S
C2324 C2326 1.378 . S
C2324 C2328 1.350 . S
C2325 C2328 1.463 . S
C2325 C2330 1.350 . S
C2325 N2333 1.427 . S
C2326 H2317 0.930 . S
C2326 C2324 1.378 . S
C2326 C2327 1.367 . S
C2327 C2326 1.367 . S
C2327 C2329 1.433 . S
C2328 C2324 1.350 . S
C2328 C2325 1.463 . S
C2328 N2332 1.427 . S
C2329 H2319 0.929 . S
C2329 C2327 1.433 . S
C2329 N2332 1.384 . S
C2330 H2321 0.929 . S
C2330 C2322 1.378 . S
C2330 C2325 1.350 . S
C2331 H2318 0.929 . S
C2331 C2323 1.433 . S
C2331 N2333 1.384 . S
N2332 C2328 1.427 . S
N2332 C2329 1.384 . S
N2333 C2325 1.427 . S
N2333 C2331 1.384 . S
H2334 C2340 0.930 . S
H2335 C2344 0.930 . S
H2336 C2349 0.929 . S
H2337 C2347 0.929 . S
H2338 C2342 0.929 . S
H2339 C2348 0.929 . S
C2340 H2334 0.930 . S
C2340 C2341 1.367 1_565 S
C2340 C2348 1.378 . S
C2341 C2340 1.367 1_545 S
C2341 C2349 1.433 . S
C2342 H2338 0.929 . S
C2342 C2344 1.378 . S
C2342 C2346 1.350 . S
C2343 C2346 1.463 1_455 S
C2343 C2348 1.350 1_545 S
C2343 N2351 1.427 . S
C2344 H2335 0.930 . S
C2344 C2342 1.378 . S
C2344 C2345 1.367 . S
C2345 C2344 1.367 . S
C2345 C2347 1.433 1_545 S
C2346 C2342 1.350 . S
C2346 C2343 1.463 1_655 S
C2346 N2350 1.427 1_545 S
C2347 H2337 0.929 . S
C2347 C2345 1.433 1_565 S
C2347 N2350 1.384 . S
C2348 H2339 0.929 . S
C2348 C2340 1.378 . S
C2348 C2343 1.350 1_565 S
C2349 H2336 0.929 . S
C2349 C2341 1.433 . S
C2349 N2351 1.384 . S
N2350 C2346 1.427 1_565 S
N2350 C2347 1.384 . S
N2351 C2343 1.427 . S
N2351 C2349 1.384 . S
H2352 C2358 0.930 . S
H2353 C2362 0.930 . S
H2354 C2367 0.929 . S
H2355 C2365 0.929 . S
H2356 C2360 0.929 . S
H2357 C2366 0.929 . S
C2358 H2352 0.930 . S
C2358 C2359 1.367 . S
C2358 C2366 1.378 . S
C2359 C2358 1.367 . S
C2359 C2367 1.433 . S
C2360 H2356 0.929 . S
C2360 C2362 1.378 . S
C2360 C2364 1.350 . S
C2361 C2364 1.463 . S
C2361 C2366 1.350 . S
C2361 N2369 1.427 . S
C2362 H2353 0.930 . S
C2362 C2360 1.378 . S
C2362 C2363 1.367 . S
C2363 C2362 1.367 . S
C2363 C2365 1.433 . S
C2364 C2360 1.350 . S
C2364 C2361 1.463 . S
C2364 N2368 1.427 . S
C2365 H2355 0.929 . S
C2365 C2363 1.433 . S
C2365 N2368 1.384 . S
C2366 H2357 0.929 . S
C2366 C2358 1.378 . S
C2366 C2361 1.350 . S
C2367 H2354 0.929 . S
C2367 C2359 1.433 . S
C2367 N2369 1.384 . S
N2368 C2364 1.427 . S
N2368 C2365 1.384 . S
N2369 C2361 1.427 . S
N2369 C2367 1.384 . S
H2370 C2376 0.930 . S
H2371 C2380 0.930 . S
H2372 C2385 0.929 . S
H2373 C2383 0.929 . S
H2374 C2378 0.929 . S
H2375 C2384 0.929 . S
C2376 H2370 0.930 . S
C2376 C2377 1.367 . S
C2376 C2384 1.378 . S
C2377 C2376 1.367 . S
C2377 C2385 1.433 . S
C2378 H2374 0.929 . S
C2378 C2380 1.378 . S
C2378 C2382 1.350 . S
C2379 C2382 1.463 . S
C2379 C2384 1.350 . S
C2379 N2387 1.427 . S
C2380 H2371 0.930 . S
C2380 C2378 1.378 . S
C2380 C2381 1.367 . S
C2381 C2380 1.367 . S
C2381 C2383 1.433 . S
C2382 C2378 1.350 . S
C2382 C2379 1.463 . S
C2382 N2386 1.427 . S
C2383 H2373 0.929 . S
C2383 C2381 1.433 . S
C2383 N2386 1.384 . S
C2384 H2375 0.929 . S
C2384 C2376 1.378 . S
C2384 C2379 1.350 . S
C2385 H2372 0.929 . S
C2385 C2377 1.433 . S
C2385 N2387 1.384 . S
N2386 C2382 1.427 . S
N2386 C2383 1.384 . S
N2387 C2379 1.427 . S
N2387 C2385 1.384 . S
H2388 C2394 0.930 . S
H2389 C2398 0.930 . S
H2390 C2403 0.929 . S
H2391 C2401 0.929 . S
H2392 C2396 0.929 . S
H2393 C2402 0.929 . S
C2394 H2388 0.930 . S
C2394 C2395 1.367 . S
C2394 C2402 1.378 . S
C2395 C2394 1.367 . S
C2395 C2403 1.433 . S
C2396 H2392 0.929 . S
C2396 C2398 1.378 . S
C2396 C2400 1.350 . S
C2397 C2400 1.463 . S
C2397 C2402 1.350 . S
C2397 N2405 1.427 . S
C2398 H2389 0.930 . S
C2398 C2396 1.378 . S
C2398 C2399 1.367 . S
C2399 C2398 1.367 . S
C2399 C2401 1.433 . S
C2400 C2396 1.350 . S
C2400 C2397 1.463 . S
C2400 N2404 1.427 . S
C2401 H2391 0.929 . S
C2401 C2399 1.433 . S
C2401 N2404 1.384 . S
C2402 H2393 0.929 . S
C2402 C2394 1.378 . S
C2402 C2397 1.350 . S
C2403 H2390 0.929 . S
C2403 C2395 1.433 . S
C2403 N2405 1.384 . S
N2404 C2400 1.427 . S
N2404 C2401 1.384 . S
N2405 C2397 1.427 . S
N2405 C2403 1.384 . S
H2406 C2412 0.930 . S
H2407 C2416 0.930 . S
H2408 C2421 0.929 . S
H2409 C2419 0.929 . S
H2410 C2414 0.929 . S
H2411 C2420 0.929 . S
C2412 H2406 0.930 . S
C2412 C2413 1.367 . S
C2412 C2420 1.378 . S
C2413 C2412 1.367 . S
C2413 C2421 1.433 . S
C2414 H2410 0.929 . S
C2414 C2416 1.378 . S
C2414 C2418 1.350 . S
C2415 C2418 1.463 . S
C2415 C2420 1.350 . S
C2415 N2423 1.427 . S
C2416 H2407 0.930 . S
C2416 C2414 1.378 . S
C2416 C2417 1.367 . S
C2417 C2416 1.367 . S
C2417 C2419 1.433 . S
C2418 C2414 1.350 . S
C2418 C2415 1.463 . S
C2418 N2422 1.427 . S
C2419 H2409 0.929 . S
C2419 C2417 1.433 . S
C2419 N2422 1.384 . S
C2420 H2411 0.929 . S
C2420 C2412 1.378 . S
C2420 C2415 1.350 . S
C2421 H2408 0.929 . S
C2421 C2413 1.433 . S
C2421 N2423 1.384 . S
N2422 C2418 1.427 . S
N2422 C2419 1.384 . S
N2423 C2415 1.427 . S
N2423 C2421 1.384 . S
H2424 C2430 0.930 . S
H2425 C2434 0.930 . S
H2426 C2439 0.929 . S
H2427 C2437 0.929 . S
H2428 C2432 0.929 . S
H2429 C2438 0.929 . S
C2430 H2424 0.930 . S
C2430 C2431 1.367 . S
C2430 C2438 1.378 . S
C2431 C2430 1.367 . S
C2431 C2439 1.433 . S
C2432 H2428 0.929 . S
C2432 C2434 1.378 . S
C2432 C2436 1.350 . S
C2433 C2436 1.463 . S
C2433 C2438 1.350 . S
C2433 N2441 1.427 . S
C2434 H2425 0.930 . S
C2434 C2432 1.378 . S
C2434 C2435 1.367 . S
C2435 C2434 1.367 . S
C2435 C2437 1.433 . S
C2436 C2432 1.350 . S
C2436 C2433 1.463 . S
C2436 N2440 1.427 . S
C2437 H2427 0.929 . S
C2437 C2435 1.433 . S
C2437 N2440 1.384 . S
C2438 H2429 0.929 . S
C2438 C2430 1.378 . S
C2438 C2433 1.350 . S
C2439 H2426 0.929 . S
C2439 C2431 1.433 . S
C2439 N2441 1.384 . S
N2440 C2436 1.427 . S
N2440 C2437 1.384 . S
N2441 C2433 1.427 . S
N2441 C2439 1.384 . S
H2442 C2448 0.930 . S
H2443 C2452 0.930 . S
H2444 C2457 0.929 . S
H2445 C2455 0.929 . S
H2446 C2450 0.929 . S
H2447 C2456 0.929 . S
C2448 H2442 0.930 . S
C2448 C2449 1.367 . S
C2448 C2456 1.378 . S
C2449 C2448 1.367 . S
C2449 C2457 1.433 . S
C2450 H2446 0.929 . S
C2450 C2452 1.378 . S
C2450 C2454 1.350 . S
C2451 C2454 1.463 1_455 S
C2451 C2456 1.350 . S
C2451 N2459 1.427 . S
C2452 H2443 0.930 . S
C2452 C2450 1.378 . S
C2452 C2453 1.367 . S
C2453 C2452 1.367 . S
C2453 C2455 1.433 . S
C2454 C2450 1.350 . S
C2454 C2451 1.463 1_655 S
C2454 N2458 1.427 . S
C2455 H2445 0.929 . S
C2455 C2453 1.433 . S
C2455 N2458 1.384 . S
C2456 H2447 0.929 . S
C2456 C2448 1.378 . S
C2456 C2451 1.350 . S
C2457 H2444 0.929 . S
C2457 C2449 1.433 . S
C2457 N2459 1.384 . S
N2458 C2454 1.427 . S
N2458 C2455 1.384 . S
N2459 C2451 1.427 . S
N2459 C2457 1.384 . S
H2460 C2466 0.930 . S
H2461 C2470 0.930 . S
H2462 C2475 0.929 . S
H2463 C2473 0.929 . S
H2464 C2468 0.929 . S
H2465 C2474 0.929 . S
C2466 H2460 0.930 . S
C2466 C2467 1.367 . S
C2466 C2474 1.378 . S
C2467 C2466 1.367 . S
C2467 C2475 1.433 . S
C2468 H2464 0.929 . S
C2468 C2470 1.378 . S
C2468 C2472 1.350 . S
C2469 C2472 1.463 1_455 S
C2469 C2474 1.350 . S
C2469 N2477 1.427 . S
C2470 H2461 0.930 . S
C2470 C2468 1.378 . S
C2470 C2471 1.367 . S
C2471 C2470 1.367 . S
C2471 C2473 1.433 . S
C2472 C2468 1.350 . S
C2472 C2469 1.463 1_655 S
C2472 N2476 1.427 . S
C2473 H2463 0.929 . S
C2473 C2471 1.433 . S
C2473 N2476 1.384 . S
C2474 H2465 0.929 . S
C2474 C2466 1.378 . S
C2474 C2469 1.350 . S
C2475 H2462 0.929 . S
C2475 C2467 1.433 . S
C2475 N2477 1.384 . S
N2476 C2472 1.427 . S
N2476 C2473 1.384 . S
N2477 C2469 1.427 . S
N2477 C2475 1.384 . S
H2478 C2484 0.930 . S
H2479 C2488 0.930 . S
H2480 C2493 0.929 . S
H2481 C2491 0.929 . S
H2482 C2486 0.929 . S
H2483 C2492 0.929 . S
C2484 H2478 0.930 . S
C2484 C2485 1.367 . S
C2484 C2492 1.378 . S
C2485 C2484 1.367 . S
C2485 C2493 1.433 . S
C2486 H2482 0.929 . S
C2486 C2488 1.378 . S
C2486 C2490 1.350 . S
C2487 C2490 1.463 . S
C2487 C2492 1.350 . S
C2487 N2495 1.427 . S
C2488 H2479 0.930 . S
C2488 C2486 1.378 . S
C2488 C2489 1.367 . S
C2489 C2488 1.367 . S
C2489 C2491 1.433 . S
C2490 C2486 1.350 . S
C2490 C2487 1.463 . S
C2490 N2494 1.427 . S
C2491 H2481 0.929 . S
C2491 C2489 1.433 . S
C2491 N2494 1.384 . S
C2492 H2483 0.929 . S
C2492 C2484 1.378 . S
C2492 C2487 1.350 . S
C2493 H2480 0.929 . S
C2493 C2485 1.433 . S
C2493 N2495 1.384 . S
N2494 C2490 1.427 . S
N2494 C2491 1.384 . S
N2495 C2487 1.427 . S
N2495 C2493 1.384 . S
C1063 N38 2.064 . S
C1067 C8 2.019 . S
C1081 C41 2.024 . S
C1085 N71 2.066 . S
C1099 C74 2.016 . S
C1103 N104 2.066 . S
C1117 C107 2.025 . S
C1121 N5 2.064 . S
C1135 C140 2.020 . S
C1139 N236 2.069 . S
C1153 N137 2.064 . S
C1157 C173 2.025 . S
C1171 C206 2.018 . S
C1175 N170 2.065 . S
C1189 C239 2.026 . S
C1193 N203 2.061 . S
C1207 N302 2.062 . S
C1211 C272 2.023 . S
C1225 N335 2.070 . S
C1229 C305 2.014 . S
C1243 C338 2.022 . S
C1247 N368 2.062 . S
C1261 N269 2.063 . S
C1265 C371 2.026 . S
C1279 C404 2.026 . S
C1283 N500 2.062 . S
C1297 C437 2.021 . S
C1301 N401 2.062 . S
C1315 N434 2.068 . S
C1319 C470 2.015 . S
C1333 N467 2.070 . S
C1337 C503 2.014 . S
C1351 N566 2.061 . S
C1355 C536 2.025 . S
C1369 C569 2.025 . S
C1373 N599 2.061 . S
C1387 N632 2.064 . S
C1391 C602 2.026 . S
C1405 N533 2.064 . S
C1409 C635 2.026 . S
C1423 N764 2.062 . S
C1427 C668 2.023 . S
C1441 C701 2.014 . S
C1445 N665 2.069 . S
C1459 N698 2.064 . S
C1463 C734 2.019 . S
C1477 C767 2.026 . S
C1481 N731 2.063 . S
C1495 N830 2.067 . S
C1499 C800 2.022 . S
C1513 C833 2.021 . S
C1517 N863 2.062 . S
C1531 C866 2.020 . S
C1535 N896 2.064 . S
C1549 C899 2.026 . S
C1553 N797 2.063 . S
C1567 N1028 2.062 . S
C1571 C932 2.023 . S
C1585 N929 2.066 . S
C1589 C965 2.023 . S
C1603 N962 2.067 . S
C1607 C998 2.015 . S
C1621 N995 2.068 . S
C1625 C1031 2.015 . S
C1639 N212 0.509 . S
C1643 N14 0.510 . S
C1657 N47 0.495 . S
C1661 N245 0.495 . S
C1675 N80 0.501 . S
C1679 N146 0.502 . S
C1693 N113 0.500 . S
C1697 N179 0.499 . S
C1711 N476 0.511 . S
C1715 N278 0.509 . S
C1729 N509 0.498 . S
C1733 N311 0.499 . S
C1747 N344 0.506 . S
C1751 N410 0.505 . S
C1765 N443 0.513 . S
C1769 N377 0.514 . S
C1783 N542 0.515 . S
C1787 N740 0.516 . S
C1801 N575 0.535 . S
C1805 N773 0.534 . S
C1819 N674 0.507 . S
C1823 N608 0.509 . S
C1837 N707 0.508 . S
C1841 N641 0.509 . S
C1855 N1004 0.540 . S
C1859 N806 0.540 . S
C1873 N1037 0.524 . S
C1877 N839 0.525 . S
C1891 N938 0.503 . S
C1895 N872 0.502 . S
C1909 N971 0.495 . S
C1913 N905 0.495 . S
C1927 C193 0.513 . S
C1931 C28 0.537 . S
C1945 C61 0.525 . S
C1949 C226 0.547 . S
C1963 C94 0.552 . S
C1967 C259 0.542 . S
C1981 C127 0.548 . S
C1985 C160 0.551 . S
C1999 C457 0.500 . S
C2003 C292 0.505 . S
C2017 C325 0.500 . S
C2021 C490 0.517 . S
C2035 C523 0.548 . S
C2039 C358 0.551 . S
C2053 C391 0.537 . S
C2057 C424 0.552 . S
C2071 C556 0.516 . S
C2075 C721 0.499 . S
C2089 C754 0.551 . S
C2093 C589 0.548 . S
C2107 C787 0.518 . S
C2111 C622 0.542 . S
C2125 C655 0.499 . S
C2129 C688 0.515 . S
C2143 C820 0.517 . S
C2147 C985 0.541 . S
C2161 C1018 0.530 . S
C2165 C853 0.506 . S
C2179 C1051 0.549 . S
C2183 C886 0.529 . S
C2197 C952 0.503 . S
C2201 C919 0.501 . S
C2215 C17 1.351 . S
C2219 C1007 1.353 . S
C2233 C512 1.349 . S
C2237 C50 1.353 . S
C2251 C941 1.350 . S
C2255 C83 1.354 . S
C2269 C116 1.350 . S
C2273 C446 1.353 . S
C2287 C149 1.350 . S
C2291 C875 1.353 . S
C2305 C380 1.351 . S
C2309 C182 1.352 . S
C2323 C215 1.350 . S
C2327 C809 1.353 . S
C2341 C248 1.348 . S
C2345 C314 1.354 . S
C2359 C281 1.354 . S
C2363 C743 1.350 . S
C2377 C347 1.352 . S
C2381 C677 1.351 . S
C2395 C413 1.351 . S
C2399 C611 1.352 . S
C2413 C479 1.354 . S
C2417 C545 1.350 . S
C2431 C578 1.351 . S
C2435 C1040 1.352 . S
C2449 C974 1.354 . S
C2453 C644 1.348 . S
C2467 C908 1.349 . S
C2471 C710 1.354 . S
C2485 C842 1.353 . S
C2489 C776 1.350 . S
