# Generated by pormake.
# Topology npo, (4)-cn, num edge types: 1
# Building blocks:
#     Node 0, Type 0, BuildingBlock: QUQFOY_clean_sbu_1, # of connection points: 4
#     Node 1, Type 0, BuildingBlock: QUQFOY_clean_sbu_1, # of connection points: 4
#     Node 2, Type 0, BuildingBlock: QUQFOY_clean_sbu_1, # of connection points: 4
#     Node 3, Type 0, BuildingBlock: QUQFOY_clean_sbu_1, # of connection points: 4
#     Node 4, Type 0, BuildingBlock: QUQFOY_clean_sbu_1, # of connection points: 4
#     Node 5, Type 0, BuildingBlock: QUQFOY_clean_sbu_1, # of connection points: 4
#     Edge 6, Type (0, 0), BuildingBlock: ZUJKAS_clean_linker_0, # of connection points: 2
#     Edge 7, Type (0, 0), BuildingBlock: ZUJKAS_clean_linker_0, # of connection points: 2
#     Edge 8, Type (0, 0), BuildingBlock: ZUJKAS_clean_linker_0, # of connection points: 2
#     Edge 9, Type (0, 0), BuildingBlock: ZUJKAS_clean_linker_0, # of connection points: 2
#     Edge 10, Type (0, 0), BuildingBlock: ZUJKAS_clean_linker_0, # of connection points: 2
#     Edge 11, Type (0, 0), BuildingBlock: ZUJKAS_clean_linker_0, # of connection points: 2
#     Edge 12, Type (0, 0), BuildingBlock: ZUJKAS_clean_linker_0, # of connection points: 2
#     Edge 13, Type (0, 0), BuildingBlock: ZUJKAS_clean_linker_0, # of connection points: 2
#     Edge 14, Type (0, 0), BuildingBlock: ZUJKAS_clean_linker_0, # of connection points: 2
#     Edge 15, Type (0, 0), BuildingBlock: ZUJKAS_clean_linker_0, # of connection points: 2
#     Edge 16, Type (0, 0), BuildingBlock: ZUJKAS_clean_linker_0, # of connection points: 2
#     Edge 17, Type (0, 0), BuildingBlock: ZUJKAS_clean_linker_0, # of connection points: 2
# Relax obj value: 0.271
# Max RMSD: 0.244
# Mean RMSD: 0.244
data_MOF--net-npo--node1-QUQFOY_clean_sbu_1--edge1-ZUJKAS_clean_linker_0
_symmetry_space_group_name_H-M    P1
_symmetry_Int_Tables_number       1
_symmetry_cell_setting            triclinic
loop_
_symmetry_equiv_pos_as_xyz
'x, y, z'
_cell_length_a     56.515726
_cell_length_b     56.570538
_cell_length_c     35.838713
_cell_angle_alpha  90.05144
_cell_angle_beta   89.935466
_cell_angle_gamma 120.02915
loop_
_atom_site_label
_atom_site_type_symbol
_atom_site_fract_x
_atom_site_fract_y
_atom_site_fract_z
_atom_type_partial_charge
O0 O 0.58353 0.13264 0.28975 0.0
Cd1 Cd 0.54152 0.10901 0.2906 0.0
Cd2 Cd 0.5485 0.10778 0.21427 0.0
O3 O 0.58876 0.12597 0.23045 0.0
O4 O 0.53229 0.10317 0.34444 0.0
O5 O 0.52459 0.06954 0.30569 0.0
C6 C 0.52337 0.07759 0.339 0.0
C7 C 0.53484 0.07506 0.16747 0.0
C8 C 0.59896 0.13584 0.26214 0.0
C9 C 0.51795 0.13506 0.24115 0.0
O10 O 0.52987 0.13114 0.21378 0.0
O11 O 0.51886 0.12628 0.27339 0.0
O12 O 0.55127 0.10051 0.16077 0.0
O13 O 0.52598 0.06787 0.20114 0.0
O14 O 0.45847 0.59716 0.75179 0.0
Cd15 Cd 0.43678 0.55548 0.76128 0.0
Cd16 Cd 0.43146 0.55676 0.68266 0.0
O17 O 0.45517 0.59801 0.69055 0.0
O18 O 0.44084 0.55439 0.81616 0.0
O19 O 0.4564 0.5354 0.77666 0.0
C20 C 0.45312 0.54073 0.81069 0.0
C21 C 0.4431 0.53812 0.63288 0.0
C22 C 0.4638 0.61042 0.72139 0.0
C23 C 0.38003 0.53088 0.72804 0.0
O24 O 0.39079 0.53901 0.69611 0.0
O25 O 0.39471 0.53458 0.75665 0.0
O26 O 0.43138 0.55238 0.62775 0.0
O27 O 0.4482 0.53424 0.66676 0.0
O28 O 0.85264 0.39225 0.23053 0.0
Cd29 Cd 0.87229 0.43314 0.21724 0.0
Cd30 Cd 0.87314 0.43764 0.29593 0.0
O31 O 0.8498 0.39583 0.29145 0.0
O32 O 0.87588 0.43221 0.16223 0.0
O33 O 0.91148 0.45301 0.1998 0.0
C34 C 0.90197 0.44635 0.16632 0.0
C35 C 0.90458 0.4534 0.34477 0.0
C36 C 0.84449 0.38124 0.26233 0.0
C37 C 0.847 0.46392 0.25238 0.0
O38 O 0.85504 0.46046 0.2839 0.0
O39 O 0.85126 0.45403 0.22301 0.0
O40 O 0.87877 0.44283 0.35059 0.0
O41 O 0.91283 0.45528 0.3107 0.0
O42 O 0.45139 0.85572 0.71392 0.0
Cd43 Cd 0.43176 0.87829 0.71471 0.0
Cd44 Cd 0.43821 0.87536 0.79078 0.0
O45 O 0.46378 0.86171 0.773 0.0
O46 O 0.42826 0.88463 0.6611 0.0
O47 O 0.45326 0.9181 0.70051 0.0
C48 C 0.44414 0.91027 0.66711 0.0
C49 C 0.45327 0.90565 0.84072 0.0
C50 C 0.46455 0.85296 0.74068 0.0
C51 C 0.3813 0.84698 0.76122 0.0
O52 O 0.39672 0.84865 0.78804 0.0
O53 O 0.3914 0.85955 0.73086 0.0
O54 O 0.44624 0.88038 0.845 0.0
O55 O 0.45179 0.91399 0.80773 0.0
O56 O 0.52423 0.3924 0.25239 0.0
Cd57 Cd 0.54555 0.43388 0.26248 0.0
Cd58 Cd 0.55011 0.43369 0.18293 0.0
O59 O 0.52837 0.39222 0.19119 0.0
O60 O 0.5419 0.43462 0.31753 0.0
O61 O 0.52572 0.45352 0.27899 0.0
C62 C 0.52929 0.44803 0.31277 0.0
C63 C 0.53691 0.45015 0.13227 0.0
C64 C 0.51966 0.37947 0.2218 0.0
C65 C 0.60209 0.46089 0.22746 0.0
O66 O 0.59105 0.45403 0.1955 0.0
O67 O 0.58752 0.455 0.25673 0.0
O68 O 0.54986 0.43701 0.12787 0.0
O69 O 0.53136 0.45408 0.1659 0.0
O70 O 0.13143 0.53857 0.79376 0.0
Cd71 Cd 0.10544 0.55438 0.79344 0.0
Cd72 Cd 0.10653 0.54411 0.71895 0.0
O73 O 0.12088 0.51942 0.73815 0.0
O74 O 0.09985 0.55738 0.84749 0.0
O75 O 0.06611 0.53115 0.80929 0.0
C76 C 0.07429 0.54024 0.84264 0.0
C77 C 0.07692 0.52851 0.66804 0.0
C78 C 0.1328 0.52302 0.76933 0.0
C79 C 0.13383 0.60252 0.74476 0.0
O80 O 0.13285 0.58587 0.72016 0.0
O81 O 0.121 0.59381 0.77529 0.0
O82 O 0.10249 0.53646 0.66457 0.0
O83 O 0.06783 0.52895 0.70097 0.0
H84 H 0.52099 0.16595 0.18066 0.0
H85 H 0.5074 0.20071 0.1781 0.0
H86 H 0.47246 0.17775 0.28823 0.0
H87 H 0.48632 0.14323 0.2914 0.0
H88 H 0.45714 0.20263 0.18987 0.0
H89 H 0.53673 0.25716 0.29856 0.0
H90 H 0.53413 0.22851 0.27292 0.0
H91 H 0.51043 0.22304 0.30988 0.0
C92 C 0.50991 0.16788 0.20405 0.0
C93 C 0.50524 0.15223 0.23655 0.0
C94 C 0.50207 0.18768 0.20246 0.0
C95 C 0.48937 0.19202 0.23323 0.0
C96 C 0.48262 0.17491 0.26443 0.0
H97 H 0.49407 0.34506 0.28047 0.0
H98 H 0.47881 0.29636 0.2838 0.0
C99 C 0.49059 0.15524 0.26617 0.0
C100 C 0.48658 0.21661 0.23448 0.0
H101 H 0.51454 0.27939 0.27511 0.0
C102 C 0.4694 0.21934 0.20877 0.0
C103 C 0.50264 0.2383 0.2592 0.0
C104 C 0.5222 0.23685 0.28656 0.0
C105 C 0.46822 0.24353 0.20671 0.0
C106 C 0.48508 0.26559 0.2305 0.0
C107 C 0.50149 0.2624 0.25706 0.0
C108 C 0.48846 0.29315 0.22623 0.0
C109 C 0.44914 0.24529 0.17895 0.0
C110 C 0.49826 0.30733 0.19248 0.0
C111 C 0.50687 0.33513 0.19042 0.0
C112 C 0.50626 0.34934 0.22228 0.0
C113 C 0.49502 0.33476 0.2555 0.0
C114 C 0.48619 0.30691 0.25743 0.0
H115 H 0.43133 0.22478 0.17306 0.0
H116 H 0.44156 0.25886 0.18909 0.0
H117 H 0.46019 0.25363 0.15227 0.0
H118 H 0.50086 0.29736 0.16829 0.0
H119 H 0.51545 0.34574 0.16441 0.0
H120 H 0.34763 0.54482 0.68971 0.0
H121 H 0.29999 0.53059 0.70222 0.0
H122 H 0.29723 0.47526 0.78737 0.0
H123 H 0.34584 0.49126 0.77679 0.0
H124 H 0.25433 0.48688 0.69795 0.0
H125 H 0.27131 0.5156 0.848 0.0
H126 H 0.29911 0.52301 0.81675 0.0
H127 H 0.27835 0.48909 0.83526 0.0
C128 C 0.3368 0.52951 0.71096 0.0
C129 C 0.35038 0.51934 0.73259 0.0
C130 C 0.30953 0.52132 0.7181 0.0
C131 C 0.29505 0.50228 0.74641 0.0
C132 C 0.30815 0.49071 0.76639 0.0
H133 H 0.12672 0.47429 0.74584 0.0
H134 H 0.16179 0.46083 0.7463 0.0
C135 C 0.33581 0.49963 0.76008 0.0
C136 C 0.26674 0.49582 0.75537 0.0
H137 H 0.22747 0.5002 0.82446 0.0
C138 C 0.24838 0.48967 0.72567 0.0
C139 C 0.25892 0.49929 0.79165 0.0
C140 C 0.27799 0.50733 0.82468 0.0
C141 C 0.22357 0.4893 0.73038 0.0
C142 C 0.21599 0.49338 0.76652 0.0
C143 C 0.2333 0.49714 0.7968 0.0
C144 C 0.19265 0.49809 0.77266 0.0
C145 C 0.20702 0.48675 0.69597 0.0
C146 C 0.19741 0.52226 0.79042 0.0
C147 C 0.17704 0.52926 0.7918 0.0
C148 C 0.15173 0.51258 0.77463 0.0
C149 C 0.14627 0.48762 0.75885 0.0
C150 C 0.16639 0.48011 0.7587 0.0
H151 H 0.21904 0.49031 0.66993 0.0
H152 H 0.18911 0.46582 0.69448 0.0
H153 H 0.1996 0.50158 0.6967 0.0
H154 H 0.21739 0.53649 0.80158 0.0
H155 H 0.18178 0.54867 0.80403 0.0
H156 H 0.63785 0.14476 0.20996 0.0
H157 H 0.6862 0.17948 0.21172 0.0
H158 H 0.67624 0.20178 0.3233 0.0
H159 H 0.62792 0.16687 0.32206 0.0
H160 H 0.69983 0.23307 0.21893 0.0
H161 H 0.75062 0.20617 0.32956 0.0
H162 H 0.71845 0.1814 0.30889 0.0
H163 H 0.71937 0.2042 0.34461 0.0
C164 C 0.64605 0.15658 0.23526 0.0
C165 C 0.62894 0.15329 0.26572 0.0
C166 C 0.67372 0.17633 0.23623 0.0
C167 C 0.68483 0.19305 0.2677 0.0
C168 C 0.66821 0.18872 0.29902 0.0
H169 H 0.81274 0.35189 0.32132 0.0
H170 H 0.77722 0.30381 0.32148 0.0
C171 C 0.64052 0.16889 0.29813 0.0
C172 C 0.71219 0.21774 0.26546 0.0
H173 H 0.77358 0.25317 0.31003 0.0
C174 C 0.71618 0.23726 0.23837 0.0
C175 C 0.73329 0.22319 0.29113 0.0
C176 C 0.73037 0.20252 0.31999 0.0
C177 C 0.7402 0.26268 0.23726 0.0
C178 C 0.76116 0.26844 0.26343 0.0
C179 C 0.75753 0.24861 0.2899 0.0
C180 C 0.78581 0.29584 0.26547 0.0
C181 C 0.74222 0.28363 0.20937 0.0
C182 C 0.80316 0.30694 0.23453 0.0
C183 C 0.82321 0.33453 0.23411 0.0
C184 C 0.82651 0.35132 0.26492 0.0
C185 C 0.8106 0.33955 0.29705 0.0
C186 C 0.79034 0.31205 0.29725 0.0
H187 H 0.72202 0.27809 0.1972 0.0
H188 H 0.75088 0.30408 0.22254 0.0
H189 H 0.75592 0.28511 0.18618 0.0
H190 H 0.80036 0.29456 0.21005 0.0
H191 H 0.83544 0.3429 0.20916 0.0
H192 H 0.46174 0.82194 0.68033 0.0
H193 H 0.47649 0.78805 0.67783 0.0
H194 H 0.51311 0.8133 0.78665 0.0
H195 H 0.4982 0.84702 0.78972 0.0
H196 H 0.52825 0.78745 0.68982 0.0
H197 H 0.44851 0.73344 0.79873 0.0
H198 H 0.45058 0.76141 0.77201 0.0
H199 H 0.47448 0.76792 0.809 0.0
C200 C 0.4735 0.82077 0.70336 0.0
C201 C 0.47828 0.83676 0.73557 0.0
C202 C 0.48199 0.80145 0.70181 0.0
C203 C 0.49547 0.79797 0.73232 0.0
C204 C 0.50242 0.81553 0.76305 0.0
H205 H 0.48899 0.64427 0.78079 0.0
H206 H 0.50509 0.69315 0.78448 0.0
C207 C 0.49383 0.83474 0.76474 0.0
C208 C 0.49854 0.77357 0.73413 0.0
H209 H 0.47048 0.71099 0.77528 0.0
C210 C 0.51594 0.77081 0.70879 0.0
C211 C 0.48244 0.75201 0.75901 0.0
C212 C 0.46278 0.75359 0.78611 0.0
C213 C 0.51722 0.74666 0.70716 0.0
C214 C 0.5002 0.72464 0.73093 0.0
C215 C 0.48365 0.72793 0.75723 0.0
C216 C 0.49659 0.69698 0.72662 0.0
C217 C 0.53658 0.7449 0.67982 0.0
C218 C 0.4872 0.68306 0.6926 0.0
C219 C 0.47815 0.65519 0.69034 0.0
C220 C 0.47787 0.64059 0.72225 0.0
C221 C 0.48874 0.65488 0.75577 0.0
C222 C 0.49804 0.68283 0.75791 0.0
H223 H 0.55461 0.76538 0.6745 0.0
H224 H 0.5438 0.73107 0.69 0.0
H225 H 0.52591 0.73694 0.65282 0.0
H226 H 0.48519 0.6933 0.66833 0.0
H227 H 0.46989 0.64482 0.66409 0.0
H228 H 0.63853 0.46585 0.1736 0.0
H229 H 0.68665 0.47996 0.18215 0.0
H230 H 0.68201 0.49974 0.29718 0.0
H231 H 0.63355 0.48489 0.28923 0.0
H232 H 0.73417 0.52646 0.20656 0.0
H233 H 0.70088 0.43931 0.30498 0.0
H234 H 0.677 0.4436 0.2766 0.0
H235 H 0.69129 0.46405 0.31778 0.0
C236 C 0.64781 0.47359 0.20059 0.0
C237 C 0.63209 0.47372 0.23096 0.0
C238 C 0.67535 0.48175 0.20538 0.0
C239 C 0.68768 0.49033 0.24049 0.0
C240 C 0.67266 0.49259 0.27008 0.0
H241 H 0.8339 0.48754 0.30939 0.0
H242 H 0.79977 0.50197 0.3083 0.0
C243 C 0.64501 0.48414 0.26545 0.0
C244 C 0.71516 0.49393 0.24678 0.0
H245 H 0.74739 0.46451 0.29082 0.0
C246 C 0.73722 0.51319 0.22533 0.0
C247 C 0.71899 0.4765 0.27124 0.0
C248 C 0.6958 0.45454 0.29377 0.0
C249 C 0.76291 0.51501 0.22703 0.0
C250 C 0.7664 0.4969 0.25047 0.0
C251 C 0.74467 0.47849 0.27306 0.0
C252 C 0.79115 0.49428 0.24935 0.0
C253 C 0.78592 0.53596 0.20335 0.0
C254 C 0.79813 0.48587 0.21632 0.0
C255 C 0.81761 0.47757 0.21681 0.0
C256 C 0.83022 0.47726 0.25047 0.0
C257 C 0.82442 0.48733 0.28303 0.0
C258 C 0.80499 0.49569 0.28248 0.0
H259 H 0.78306 0.55361 0.19718 0.0
H260 H 0.806 0.54352 0.21724 0.0
H261 H 0.78629 0.5265 0.17638 0.0
H262 H 0.78728 0.48404 0.19061 0.0
H263 H 0.82161 0.46999 0.19122 0.0
H264 H 0.35511 0.8001 0.80136 0.0
H265 H 0.30709 0.76495 0.7971 0.0
H266 H 0.29207 0.81652 0.72373 0.0
H267 H 0.3407 0.85108 0.72596 0.0
H268 H 0.26027 0.75967 0.81286 0.0
H269 H 0.26554 0.75168 0.6588 0.0
H270 H 0.29537 0.77265 0.68655 0.0
H271 H 0.27201 0.7844 0.67482 0.0
C272 C 0.34151 0.80406 0.78464 0.0
C273 C 0.35162 0.82808 0.76357 0.0
C274 C 0.31403 0.78396 0.7822 0.0
C275 C 0.29604 0.78773 0.75924 0.0
C276 C 0.30571 0.81269 0.74049 0.0
H277 H 0.1297 0.64482 0.77458 0.0
H278 H 0.16492 0.69325 0.77438 0.0
C279 C 0.33341 0.83251 0.74208 0.0
C280 C 0.26776 0.76474 0.75374 0.0
H281 H 0.22417 0.72129 0.68768 0.0
C282 C 0.25225 0.75135 0.78547 0.0
C283 C 0.25736 0.75389 0.71792 0.0
C284 C 0.27349 0.76621 0.68259 0.0
C285 C 0.22761 0.72649 0.78268 0.0
C286 C 0.2174 0.71543 0.74688 0.0
C287 C 0.23198 0.72981 0.71505 0.0
C288 C 0.19391 0.68736 0.74188 0.0
C289 C 0.21399 0.71152 0.81826 0.0
C290 C 0.19757 0.66835 0.72111 0.0
C291 C 0.17712 0.64098 0.71996 0.0
C292 C 0.15284 0.63201 0.74019 0.0
C293 C 0.14845 0.65123 0.75918 0.0
C294 C 0.16865 0.67881 0.7594 0.0
H295 H 0.22793 0.71971 0.84265 0.0
H296 H 0.19601 0.71389 0.82409 0.0
H297 H 0.20696 0.68941 0.81578 0.0
H298 H 0.21679 0.6744 0.70717 0.0
H299 H 0.18107 0.6266 0.70515 0.0
H300 H 0.44596 0.94913 0.85377 0.0
H301 H 0.45835 0.97723 0.91032 0.0
H302 H 0.49483 0.93233 0.95612 0.0
H303 H 0.48081 0.90317 0.90089 0.0
H304 H 0.46689 0.93829 0.00704 0.0
H305 H 0.52942 0.03931 0.94043 0.0
H306 H 0.49509 0.02205 0.92311 0.0
H307 H 0.51698 0.00789 0.91481 0.0
C308 C 0.45683 0.94552 0.87586 0.0
C309 C 0.46255 0.92414 0.87307 0.0
C310 C 0.46406 0.96166 0.90806 0.0
C311 C 0.47802 0.95729 0.9373 0.0
C312 C 0.48406 0.93613 0.93405 0.0
H313 H 0.56589 0.07551 0.10982 0.0
H314 H 0.5514 0.045 0.05595 0.0
C315 C 0.47615 0.91955 0.90244 0.0
C316 C 0.48563 0.97399 0.97189 0.0
H317 H 0.51844 0.03943 0.00441 0.0
C318 C 0.47836 0.96043 0.00645 0.0
C319 C 0.50083 0.00287 0.97123 0.0
C320 C 0.51128 0.01886 0.93542 0.0
C321 C 0.48612 0.97484 0.04028 0.0
C322 C 0.50041 0.00373 0.0396 0.0
C323 C 0.50736 0.01728 0.00503 0.0
C324 C 0.50933 0.02051 0.07414 0.0
C325 C 0.47974 0.95882 0.07617 0.0
C326 C 0.4907 0.01668 0.10278 0.0
C327 C 0.49926 0.03358 0.13428 0.0
C328 C 0.52631 0.05515 0.13688 0.0
C329 C 0.5449 0.05897 0.10836 0.0
C330 C 0.53659 0.04163 0.07753 0.0
H331 H 0.47712 0.93823 0.07143 0.0
H332 H 0.49614 0.96959 0.09718 0.0
H333 H 0.46028 0.95595 0.08782 0.0
H334 H 0.46938 0.00115 0.10039 0.0
H335 H 0.48448 0.03058 0.15573 0.0
H336 H 0.50174 0.47653 0.31342 0.0
H337 H 0.48652 0.4913 0.36837 0.0
H338 H 0.51938 0.45372 0.44034 0.0
H339 H 0.53479 0.43914 0.38602 0.0
H340 H 0.45076 0.45795 0.42724 0.0
H341 H 0.55426 0.53276 0.47946 0.0
H342 H 0.54825 0.51957 0.43241 0.0
H343 H 0.54912 0.49927 0.47035 0.0
C344 C 0.50576 0.47149 0.34096 0.0
C345 C 0.51959 0.45682 0.34538 0.0
C346 C 0.49705 0.4799 0.37226 0.0
C347 C 0.50223 0.47393 0.40832 0.0
C348 C 0.51567 0.45897 0.41274 0.0
H349 H 0.46946 0.5085 0.63313 0.0
H350 H 0.48264 0.49127 0.57877 0.0
C351 C 0.52433 0.45055 0.38161 0.0
C352 C 0.49327 0.48291 0.4415 0.0
H353 H 0.51697 0.52252 0.51963 0.0
C354 C 0.46519 0.47218 0.44737 0.0
C355 C 0.51222 0.5013 0.46776 0.0
C356 C 0.54266 0.51412 0.46215 0.0
C357 C 0.45549 0.47909 0.47921 0.0
C358 C 0.47444 0.49758 0.50539 0.0
C359 C 0.50252 0.50824 0.49956 0.0
C360 C 0.46563 0.50701 0.53829 0.0
C361 C 0.42504 0.46619 0.48488 0.0
C362 C 0.45196 0.52171 0.53338 0.0
C363 C 0.44445 0.53153 0.56421 0.0
C364 C 0.45062 0.52698 0.60058 0.0
C365 C 0.46435 0.51225 0.60547 0.0
C366 C 0.4719 0.50243 0.57451 0.0
H367 H 0.41355 0.44717 0.46827 0.0
H368 H 0.41953 0.46134 0.51476 0.0
H369 H 0.4184 0.4807 0.47573 0.0
H370 H 0.44747 0.52597 0.50564 0.0
H371 H 0.43401 0.54291 0.55944 0.0
H372 H 0.01939 0.50282 0.84341 0.0
H373 H 0.98897 0.48696 0.8979 0.0
H374 H 0.05638 0.54054 0.96876 0.0
H375 H 0.08666 0.55669 0.91483 0.0
H376 H -0.00554 0.46167 0.96215 0.0
H377 H -0.00282 0.55843 -0.0022 0.0
H378 H 0.00829 0.55276 0.95311 0.0
H379 H 0.03045 0.56205 0.99303 0.0
C380 C 0.02763 0.51138 0.87056 0.0
C381 C 0.05538 0.53107 0.87479 0.0
C382 C 0.01027 0.50229 0.90161 0.0
C383 C 0.02038 0.51291 0.9372 0.0
C384 C 0.04805 0.53253 0.94143 0.0
H385 H 0.95739 0.48114 0.16364 0.0
H386 H 0.98648 0.49643 0.10782 0.0
C387 C 0.06535 0.54161 0.91054 0.0
C388 C 0.00245 0.50274 0.97037 0.0
H389 H 0.97866 0.52333 0.04384 0.0
C390 C -0.00921 0.47507 0.97986 0.0
C391 C -0.00214 0.52035 0.99345 0.0
C392 C 0.00888 0.55 0.98371 0.0
C393 C 0.97509 0.46463 0.01237 0.0
C394 C 0.97076 0.48232 0.03563 0.0
C395 C 0.98227 0.50993 0.02604 0.0
C396 C 0.95354 0.47234 0.06942 0.0
C397 C 0.96369 0.43492 0.02201 0.0
C398 C 0.92548 0.45391 0.06608 0.0
C399 C 0.90888 0.44525 0.09772 0.0
C400 C 0.92004 0.45492 0.13331 0.0
C401 C 0.94824 0.47327 0.13662 0.0
C402 C 0.96484 0.48204 0.10483 0.0
H403 H 0.97412 0.42578 0.00632 0.0
H404 H 0.96568 0.43236 0.05236 0.0
H405 H 0.94164 0.4234 0.01482 0.0
H406 H 0.91634 0.44656 0.03891 0.0
H407 H 0.88723 0.43115 0.09417 0.0
H408 H 0.52902 0.03318 0.35187 0.0
H409 H 0.51551 0.00488 0.40823 0.0
H410 H 0.47915 0.05038 0.45263 0.0
H411 H 0.49438 0.07979 0.39763 0.0
H412 H 0.50678 0.0449 0.50389 0.0
H413 H 0.44473 0.94311 0.43937 0.0
H414 H 0.479 0.96007 0.42179 0.0
H415 H 0.45714 0.97418 0.41296 0.0
C416 C 0.51783 0.0368 0.37355 0.0
C417 C 0.51261 0.05849 0.37055 0.0
C418 C 0.50996 0.02055 0.40564 0.0
C419 C 0.49584 0.02512 0.43452 0.0
C420 C 0.49004 0.04642 0.43085 0.0
H421 H 0.41166 0.908 0.61036 0.0
H422 H 0.42445 0.93776 0.55584 0.0
C423 C 0.49862 0.06314 0.39938 0.0
C424 C 0.48827 0.0088 0.46943 0.0
H425 H 0.45675 0.94375 0.50323 0.0
C426 C 0.49558 0.02276 0.50372 0.0
C427 C 0.47342 0.97991 0.46936 0.0
C428 C 0.46287 0.96348 0.43389 0.0
C429 C 0.48836 0.00872 0.53783 0.0
C430 C 0.47462 0.97984 0.53772 0.0
C431 C 0.46746 0.96589 0.50342 0.0
C432 C 0.46666 0.96347 0.57261 0.0
C433 C 0.49476 0.02511 0.57341 0.0
C434 C 0.48595 0.96823 0.60066 0.0
C435 C 0.47835 0.95176 0.63254 0.0
C436 C 0.45165 0.9297 0.63609 0.0
C437 C 0.4324 0.92493 0.60815 0.0
C438 C 0.43974 0.94185 0.57695 0.0
H439 H 0.49662 0.04536 0.56837 0.0
H440 H 0.47877 0.01423 0.59491 0.0
H441 H 0.51463 0.02879 0.58456 0.0
H442 H 0.50705 0.98418 0.59752 0.0
H443 H 0.49362 0.95549 0.65353 0.0
H444 H 0.48055 0.51211 0.80987 0.0
H445 H 0.49588 0.4968 0.86401 0.0
H446 H 0.46239 0.53291 0.93783 0.0
H447 H 0.44744 0.54855 0.88427 0.0
H448 H 0.51507 0.54528 0.95691 0.0
H449 H 0.44686 0.43387 0.93452 0.0
H450 H 0.46797 0.45213 0.89532 0.0
H451 H 0.44191 0.45923 0.91085 0.0
C452 C 0.47646 0.51674 0.83765 0.0
C453 C 0.46272 0.53145 0.8428 0.0
C454 C 0.48508 0.50787 0.86851 0.0
C455 C 0.47991 0.51344 0.90487 0.0
C456 C 0.46648 0.52835 0.90999 0.0
H457 H 0.50962 0.47885 0.13102 0.0
H458 H 0.49604 0.49483 0.07585 0.0
C459 C 0.45793 0.53723 0.8793 0.0
C460 C 0.4887 0.50411 0.93783 0.0
H461 H 0.47893 0.44706 0.98368 0.0
C462 C 0.50717 0.52381 0.96283 0.0
C463 C 0.47824 0.47609 0.94544 0.0
C464 C 0.45746 0.45404 0.92035 0.0
C465 C 0.51575 0.51624 0.99511 0.0
C466 C 0.50525 0.48823 0.00274 0.0
C467 C 0.48687 0.46853 0.97768 0.0
C468 C 0.51348 0.47889 0.03622 0.0
C469 C 0.53634 0.53824 0.02043 0.0
C470 C 0.52729 0.46427 0.03205 0.0
C471 C 0.53494 0.45507 0.06334 0.0
C472 C 0.52877 0.46018 0.09945 0.0
C473 C 0.51476 0.47471 0.10358 0.0
C474 C 0.50712 0.48395 0.07215 0.0
H475 H 0.54698 0.55845 0.00637 0.0
H476 H 0.52566 0.54004 0.04534 0.0
H477 H 0.55185 0.53307 0.03011 0.0
H478 H 0.53228 0.4601 0.00452 0.0
H479 H 0.54566 0.44389 0.05916 0.0
H480 H 0.09127 0.52604 0.59621 0.0
H481 H 0.06267 0.51415 0.54063 0.0
H482 H -0.00637 0.4995 0.60866 0.0
H483 H 0.02228 0.5118 0.66465 0.0
H484 H 0.01514 0.46591 0.52295 0.0
H485 H -0.00318 0.55354 0.5298 0.0
H486 H 0.02299 0.55216 0.55693 0.0
H487 H 0.98787 0.53335 0.57157 0.0
C488 C 0.06999 0.52029 0.59945 0.0
C489 C 0.05905 0.52002 0.63484 0.0
C490 C 0.0537 0.51349 0.56762 0.0
C491 C 0.0262 0.50639 0.5705 0.0
C492 C 0.01499 0.50548 0.60582 0.0
H493 H 0.89249 0.45461 0.41794 0.0
H494 H 0.92334 0.46811 0.47122 0.0
C495 C 0.03132 0.51233 0.63777 0.0
C496 C 0.00932 0.49976 0.53642 0.0
H497 H 0.9716 0.51947 0.48447 0.0
C498 C 0.00572 0.47768 0.51438 0.0
C499 C -0.00274 0.51532 0.52528 0.0
C500 C 0.00158 0.54008 0.54689 0.0
C501 C 0.98971 0.47025 0.48193 0.0
C502 C 0.97736 0.48558 0.47112 0.0
C503 C 0.98118 0.50782 0.49293 0.0
C504 C 0.95921 0.47802 0.43828 0.0
C505 C 0.98551 0.44565 0.46004 0.0
C506 C 0.96932 0.4795 0.40204 0.0
C507 C 0.9517 0.47181 0.37135 0.0
C508 C 0.92375 0.46255 0.37658 0.0
C509 C 0.91388 0.46154 0.41294 0.0
C510 C 0.93147 0.46928 0.44345 0.0
H511 H -0.00798 0.43304 0.47597 0.0
H512 H 0.96369 0.43267 0.45216 0.0
H513 H -0.00228 0.45255 0.43396 0.0
H514 H -0.00919 0.4866 0.39753 0.0
H515 H 0.95989 0.47289 0.34367 0.0
loop_
_geom_bond_atom_site_label_1
_geom_bond_atom_site_label_2
_geom_bond_distance
_geom_bond_site_symmetry_2
_ccdc_geom_bond_type
O0 Cd1 2.223 . S
O0 C8 1.315 . S
Cd1 O0 2.223 . S
Cd1 O4 2.297 . S
Cd1 O5 2.439 . S
Cd1 O11 2.240 . S
Cd2 O3 2.240 . S
Cd2 O10 2.223 . S
Cd2 O12 2.297 . S
Cd2 O13 2.439 . S
O3 Cd2 2.240 . S
O3 C8 1.279 . S
O4 Cd1 2.297 . S
O4 C6 1.247 . S
O5 Cd1 2.439 . S
O5 C6 1.208 . S
C6 O4 1.247 . S
C6 O5 1.208 . S
C7 O12 1.247 . S
C7 O13 1.208 . S
C8 O0 1.315 . S
C8 O3 1.279 . S
C9 O10 1.315 . S
C9 O11 1.279 . S
O10 Cd2 2.223 . S
O10 C9 1.315 . S
O11 Cd1 2.240 . S
O11 C9 1.279 . S
O12 Cd2 2.297 . S
O12 C7 1.247 . S
O13 Cd2 2.439 . S
O13 C7 1.208 . S
O14 Cd15 2.223 . S
O14 C22 1.315 . S
Cd15 O14 2.223 . S
Cd15 O18 2.297 . S
Cd15 O19 2.439 . S
Cd15 O25 2.240 . S
Cd16 O17 2.240 . S
Cd16 O24 2.223 . S
Cd16 O26 2.297 . S
Cd16 O27 2.439 . S
O17 Cd16 2.240 . S
O17 C22 1.279 . S
O18 Cd15 2.297 . S
O18 C20 1.247 . S
O19 Cd15 2.439 . S
O19 C20 1.208 . S
C20 O18 1.247 . S
C20 O19 1.208 . S
C21 O26 1.247 . S
C21 O27 1.208 . S
C22 O14 1.315 . S
C22 O17 1.279 . S
C23 O24 1.315 . S
C23 O25 1.279 . S
O24 Cd16 2.223 . S
O24 C23 1.315 . S
O25 Cd15 2.240 . S
O25 C23 1.279 . S
O26 Cd16 2.297 . S
O26 C21 1.247 . S
O27 Cd16 2.439 . S
O27 C21 1.208 . S
O28 Cd29 2.223 . S
O28 C36 1.315 . S
Cd29 O28 2.223 . S
Cd29 O32 2.297 . S
Cd29 O33 2.439 . S
Cd29 O39 2.240 . S
Cd30 O31 2.240 . S
Cd30 O38 2.223 . S
Cd30 O40 2.297 . S
Cd30 O41 2.439 . S
O31 Cd30 2.240 . S
O31 C36 1.279 . S
O32 Cd29 2.297 . S
O32 C34 1.247 . S
O33 Cd29 2.439 . S
O33 C34 1.208 . S
C34 O32 1.247 . S
C34 O33 1.208 . S
C35 O40 1.247 . S
C35 O41 1.208 . S
C36 O28 1.315 . S
C36 O31 1.279 . S
C37 O38 1.315 . S
C37 O39 1.279 . S
O38 Cd30 2.223 . S
O38 C37 1.315 . S
O39 Cd29 2.240 . S
O39 C37 1.279 . S
O40 Cd30 2.297 . S
O40 C35 1.247 . S
O41 Cd30 2.439 . S
O41 C35 1.208 . S
O42 Cd43 2.223 . S
O42 C50 1.315 . S
Cd43 O42 2.223 . S
Cd43 O46 2.297 . S
Cd43 O47 2.439 . S
Cd43 O53 2.240 . S
Cd44 O45 2.240 . S
Cd44 O52 2.223 . S
Cd44 O54 2.297 . S
Cd44 O55 2.439 . S
O45 Cd44 2.240 . S
O45 C50 1.279 . S
O46 Cd43 2.297 . S
O46 C48 1.247 . S
O47 Cd43 2.439 . S
O47 C48 1.208 . S
C48 O46 1.247 . S
C48 O47 1.208 . S
C49 O54 1.247 . S
C49 O55 1.208 . S
C50 O42 1.315 . S
C50 O45 1.279 . S
C51 O52 1.315 . S
C51 O53 1.279 . S
O52 Cd44 2.223 . S
O52 C51 1.315 . S
O53 Cd43 2.240 . S
O53 C51 1.279 . S
O54 Cd44 2.297 . S
O54 C49 1.247 . S
O55 Cd44 2.439 . S
O55 C49 1.208 . S
O56 Cd57 2.223 . S
O56 C64 1.315 . S
Cd57 O56 2.223 . S
Cd57 O60 2.297 . S
Cd57 O61 2.439 . S
Cd57 O67 2.240 . S
Cd58 O59 2.240 . S
Cd58 O66 2.223 . S
Cd58 O68 2.297 . S
Cd58 O69 2.439 . S
O59 Cd58 2.240 . S
O59 C64 1.279 . S
O60 Cd57 2.297 . S
O60 C62 1.247 . S
O61 Cd57 2.439 . S
O61 C62 1.208 . S
C62 O60 1.247 . S
C62 O61 1.208 . S
C63 O68 1.247 . S
C63 O69 1.208 . S
C64 O56 1.315 . S
C64 O59 1.279 . S
C65 O66 1.315 . S
C65 O67 1.279 . S
O66 Cd58 2.223 . S
O66 C65 1.315 . S
O67 Cd57 2.240 . S
O67 C65 1.279 . S
O68 Cd58 2.297 . S
O68 C63 1.247 . S
O69 Cd58 2.439 . S
O69 C63 1.208 . S
O70 Cd71 2.223 . S
O70 C78 1.315 . S
Cd71 O70 2.223 . S
Cd71 O74 2.297 . S
Cd71 O75 2.439 . S
Cd71 O81 2.240 . S
Cd72 O73 2.240 . S
Cd72 O80 2.223 . S
Cd72 O82 2.297 . S
Cd72 O83 2.439 . S
O73 Cd72 2.240 . S
O73 C78 1.279 . S
O74 Cd71 2.297 . S
O74 C76 1.247 . S
O75 Cd71 2.439 . S
O75 C76 1.208 . S
C76 O74 1.247 . S
C76 O75 1.208 . S
C77 O82 1.247 . S
C77 O83 1.208 . S
C78 O70 1.315 . S
C78 O73 1.279 . S
C79 O80 1.315 . S
C79 O81 1.279 . S
O80 Cd72 2.223 . S
O80 C79 1.315 . S
O81 Cd71 2.240 . S
O81 C79 1.279 . S
O82 Cd72 2.297 . S
O82 C77 1.247 . S
O83 Cd72 2.439 . S
O83 C77 1.208 . S
H84 C92 0.929 . S
H85 C94 0.930 . S
H86 C96 0.930 . S
H87 C99 0.929 . S
H88 C102 0.930 . S
H89 C104 0.960 . S
H90 C104 0.960 . S
H91 C104 0.960 . S
C92 H84 0.929 . S
C92 C93 1.377 . S
C92 C94 1.384 . S
C93 C92 1.377 . S
C93 C99 1.390 . S
C94 H85 0.930 . S
C94 C92 1.384 . S
C94 C95 1.372 . S
C95 C94 1.372 . S
C95 C96 1.400 . S
C95 C100 1.490 . S
C96 H86 0.930 . S
C96 C95 1.400 . S
C96 C99 1.386 . S
H97 C113 0.930 . S
H98 C114 0.931 . S
C99 H87 0.929 . S
C99 C93 1.390 . S
C99 C96 1.386 . S
C100 C95 1.490 . S
C100 C102 1.395 . S
C100 C103 1.403 . S
H101 C107 0.930 . S
C102 H88 0.930 . S
C102 C100 1.395 . S
C102 C105 1.403 . S
C103 C100 1.403 . S
C103 C104 1.524 . S
C103 C107 1.400 . S
C104 H89 0.960 . S
C104 H90 0.960 . S
C104 H91 0.960 . S
C104 C103 1.524 . S
C105 C102 1.403 . S
C105 C106 1.392 . S
C105 C109 1.495 . S
C106 C105 1.392 . S
C106 C107 1.385 . S
C106 C108 1.478 . S
C107 H101 0.930 . S
C107 C103 1.400 . S
C107 C106 1.385 . S
C108 C106 1.478 . S
C108 C110 1.381 . S
C108 C114 1.383 . S
C109 C105 1.495 . S
C109 H115 0.959 . S
C109 H116 0.961 . S
C109 H117 0.960 . S
C110 C108 1.381 . S
C110 C111 1.394 . S
C110 H118 0.930 . S
C111 C110 1.394 . S
C111 C112 1.383 . S
C111 H119 0.929 . S
C112 C111 1.383 . S
C112 C113 1.377 . S
C113 H97 0.930 . S
C113 C112 1.377 . S
C113 C114 1.379 . S
C114 H98 0.931 . S
C114 C108 1.383 . S
C114 C113 1.379 . S
H115 C109 0.959 . S
H116 C109 0.961 . S
H117 C109 0.960 . S
H118 C110 0.930 . S
H119 C111 0.929 . S
H120 C128 0.929 . S
H121 C130 0.930 . S
H122 C132 0.930 . S
H123 C135 0.929 . S
H124 C138 0.930 . S
H125 C140 0.960 . S
H126 C140 0.960 . S
H127 C140 0.960 . S
C128 H120 0.929 . S
C128 C129 1.377 . S
C128 C130 1.384 . S
C129 C128 1.377 . S
C129 C135 1.390 . S
C130 H121 0.930 . S
C130 C128 1.384 . S
C130 C131 1.372 . S
C131 C130 1.372 . S
C131 C132 1.400 . S
C131 C136 1.490 . S
C132 H122 0.930 . S
C132 C131 1.400 . S
C132 C135 1.386 . S
H133 C149 0.930 . S
H134 C150 0.931 . S
C135 H123 0.929 . S
C135 C129 1.390 . S
C135 C132 1.386 . S
C136 C131 1.490 . S
C136 C138 1.395 . S
C136 C139 1.403 . S
H137 C143 0.930 . S
C138 H124 0.930 . S
C138 C136 1.395 . S
C138 C141 1.403 . S
C139 C136 1.403 . S
C139 C140 1.524 . S
C139 C143 1.400 . S
C140 H125 0.960 . S
C140 H126 0.960 . S
C140 H127 0.960 . S
C140 C139 1.524 . S
C141 C138 1.403 . S
C141 C142 1.392 . S
C141 C145 1.495 . S
C142 C141 1.392 . S
C142 C143 1.385 . S
C142 C144 1.478 . S
C143 H137 0.930 . S
C143 C139 1.400 . S
C143 C142 1.385 . S
C144 C142 1.478 . S
C144 C146 1.381 . S
C144 C150 1.383 . S
C145 C141 1.495 . S
C145 H151 0.959 . S
C145 H152 0.961 . S
C145 H153 0.960 . S
C146 C144 1.381 . S
C146 C147 1.394 . S
C146 H154 0.930 . S
C147 C146 1.394 . S
C147 C148 1.383 . S
C147 H155 0.929 . S
C148 C147 1.383 . S
C148 C149 1.377 . S
C149 H133 0.930 . S
C149 C148 1.377 . S
C149 C150 1.379 . S
C150 H134 0.931 . S
C150 C144 1.383 . S
C150 C149 1.379 . S
H151 C145 0.959 . S
H152 C145 0.961 . S
H153 C145 0.960 . S
H154 C146 0.930 . S
H155 C147 0.929 . S
H156 C164 0.929 . S
H157 C166 0.930 . S
H158 C168 0.930 . S
H159 C171 0.929 . S
H160 C174 0.930 . S
H161 C176 0.960 . S
H162 C176 0.960 . S
H163 C176 0.960 . S
C164 H156 0.929 . S
C164 C165 1.377 . S
C164 C166 1.384 . S
C165 C164 1.377 . S
C165 C171 1.390 . S
C166 H157 0.930 . S
C166 C164 1.384 . S
C166 C167 1.372 . S
C167 C166 1.372 . S
C167 C168 1.400 . S
C167 C172 1.490 . S
C168 H158 0.930 . S
C168 C167 1.400 . S
C168 C171 1.386 . S
H169 C185 0.930 . S
H170 C186 0.931 . S
C171 H159 0.929 . S
C171 C165 1.390 . S
C171 C168 1.386 . S
C172 C167 1.490 . S
C172 C174 1.395 . S
C172 C175 1.403 . S
H173 C179 0.930 . S
C174 H160 0.930 . S
C174 C172 1.395 . S
C174 C177 1.403 . S
C175 C172 1.403 . S
C175 C176 1.524 . S
C175 C179 1.400 . S
C176 H161 0.960 . S
C176 H162 0.960 . S
C176 H163 0.960 . S
C176 C175 1.524 . S
C177 C174 1.403 . S
C177 C178 1.392 . S
C177 C181 1.495 . S
C178 C177 1.392 . S
C178 C179 1.385 . S
C178 C180 1.478 . S
C179 H173 0.930 . S
C179 C175 1.400 . S
C179 C178 1.385 . S
C180 C178 1.478 . S
C180 C182 1.381 . S
C180 C186 1.383 . S
C181 C177 1.495 . S
C181 H187 0.959 . S
C181 H188 0.961 . S
C181 H189 0.960 . S
C182 C180 1.381 . S
C182 C183 1.394 . S
C182 H190 0.930 . S
C183 C182 1.394 . S
C183 C184 1.383 . S
C183 H191 0.929 . S
C184 C183 1.383 . S
C184 C185 1.377 . S
C185 H169 0.930 . S
C185 C184 1.377 . S
C185 C186 1.379 . S
C186 H170 0.931 . S
C186 C180 1.383 . S
C186 C185 1.379 . S
H187 C181 0.959 . S
H188 C181 0.961 . S
H189 C181 0.960 . S
H190 C182 0.930 . S
H191 C183 0.929 . S
H192 C200 0.929 . S
H193 C202 0.930 . S
H194 C204 0.930 . S
H195 C207 0.929 . S
H196 C210 0.930 . S
H197 C212 0.960 . S
H198 C212 0.960 . S
H199 C212 0.960 . S
C200 H192 0.929 . S
C200 C201 1.377 . S
C200 C202 1.384 . S
C201 C200 1.377 . S
C201 C207 1.390 . S
C202 H193 0.930 . S
C202 C200 1.384 . S
C202 C203 1.372 . S
C203 C202 1.372 . S
C203 C204 1.400 . S
C203 C208 1.490 . S
C204 H194 0.930 . S
C204 C203 1.400 . S
C204 C207 1.386 . S
H205 C221 0.930 . S
H206 C222 0.931 . S
C207 H195 0.929 . S
C207 C201 1.390 . S
C207 C204 1.386 . S
C208 C203 1.490 . S
C208 C210 1.395 . S
C208 C211 1.403 . S
H209 C215 0.930 . S
C210 H196 0.930 . S
C210 C208 1.395 . S
C210 C213 1.403 . S
C211 C208 1.403 . S
C211 C212 1.524 . S
C211 C215 1.400 . S
C212 H197 0.960 . S
C212 H198 0.960 . S
C212 H199 0.960 . S
C212 C211 1.524 . S
C213 C210 1.403 . S
C213 C214 1.392 . S
C213 C217 1.495 . S
C214 C213 1.392 . S
C214 C215 1.385 . S
C214 C216 1.478 . S
C215 H209 0.930 . S
C215 C211 1.400 . S
C215 C214 1.385 . S
C216 C214 1.478 . S
C216 C218 1.381 . S
C216 C222 1.383 . S
C217 C213 1.495 . S
C217 H223 0.959 . S
C217 H224 0.961 . S
C217 H225 0.960 . S
C218 C216 1.381 . S
C218 C219 1.394 . S
C218 H226 0.930 . S
C219 C218 1.394 . S
C219 C220 1.383 . S
C219 H227 0.929 . S
C220 C219 1.383 . S
C220 C221 1.377 . S
C221 H205 0.930 . S
C221 C220 1.377 . S
C221 C222 1.379 . S
C222 H206 0.931 . S
C222 C216 1.383 . S
C222 C221 1.379 . S
H223 C217 0.959 . S
H224 C217 0.961 . S
H225 C217 0.960 . S
H226 C218 0.930 . S
H227 C219 0.929 . S
H228 C236 0.929 . S
H229 C238 0.930 . S
H230 C240 0.930 . S
H231 C243 0.929 . S
H232 C246 0.930 . S
H233 C248 0.960 . S
H234 C248 0.960 . S
H235 C248 0.960 . S
C236 H228 0.929 . S
C236 C237 1.377 . S
C236 C238 1.384 . S
C237 C236 1.377 . S
C237 C243 1.390 . S
C238 H229 0.930 . S
C238 C236 1.384 . S
C238 C239 1.372 . S
C239 C238 1.372 . S
C239 C240 1.400 . S
C239 C244 1.490 . S
C240 H230 0.930 . S
C240 C239 1.400 . S
C240 C243 1.386 . S
H241 C257 0.930 . S
H242 C258 0.931 . S
C243 H231 0.929 . S
C243 C237 1.390 . S
C243 C240 1.386 . S
C244 C239 1.490 . S
C244 C246 1.395 . S
C244 C247 1.403 . S
H245 C251 0.930 . S
C246 H232 0.930 . S
C246 C244 1.395 . S
C246 C249 1.403 . S
C247 C244 1.403 . S
C247 C248 1.524 . S
C247 C251 1.400 . S
C248 H233 0.960 . S
C248 H234 0.960 . S
C248 H235 0.960 . S
C248 C247 1.524 . S
C249 C246 1.403 . S
C249 C250 1.392 . S
C249 C253 1.495 . S
C250 C249 1.392 . S
C250 C251 1.385 . S
C250 C252 1.478 . S
C251 H245 0.930 . S
C251 C247 1.400 . S
C251 C250 1.385 . S
C252 C250 1.478 . S
C252 C254 1.381 . S
C252 C258 1.383 . S
C253 C249 1.495 . S
C253 H259 0.959 . S
C253 H260 0.961 . S
C253 H261 0.960 . S
C254 C252 1.381 . S
C254 C255 1.394 . S
C254 H262 0.930 . S
C255 C254 1.394 . S
C255 C256 1.383 . S
C255 H263 0.929 . S
C256 C255 1.383 . S
C256 C257 1.377 . S
C257 H241 0.930 . S
C257 C256 1.377 . S
C257 C258 1.379 . S
C258 H242 0.931 . S
C258 C252 1.383 . S
C258 C257 1.379 . S
H259 C253 0.959 . S
H260 C253 0.961 . S
H261 C253 0.960 . S
H262 C254 0.930 . S
H263 C255 0.929 . S
H264 C272 0.929 . S
H265 C274 0.930 . S
H266 C276 0.930 . S
H267 C279 0.929 . S
H268 C282 0.930 . S
H269 C284 0.960 . S
H270 C284 0.960 . S
H271 C284 0.960 . S
C272 H264 0.929 . S
C272 C273 1.377 . S
C272 C274 1.384 . S
C273 C272 1.377 . S
C273 C279 1.390 . S
C274 H265 0.930 . S
C274 C272 1.384 . S
C274 C275 1.372 . S
C275 C274 1.372 . S
C275 C276 1.400 . S
C275 C280 1.490 . S
C276 H266 0.930 . S
C276 C275 1.400 . S
C276 C279 1.386 . S
H277 C293 0.930 . S
H278 C294 0.931 . S
C279 H267 0.929 . S
C279 C273 1.390 . S
C279 C276 1.386 . S
C280 C275 1.490 . S
C280 C282 1.395 . S
C280 C283 1.403 . S
H281 C287 0.930 . S
C282 H268 0.930 . S
C282 C280 1.395 . S
C282 C285 1.403 . S
C283 C280 1.403 . S
C283 C284 1.524 . S
C283 C287 1.400 . S
C284 H269 0.960 . S
C284 H270 0.960 . S
C284 H271 0.960 . S
C284 C283 1.524 . S
C285 C282 1.403 . S
C285 C286 1.392 . S
C285 C289 1.495 . S
C286 C285 1.392 . S
C286 C287 1.385 . S
C286 C288 1.478 . S
C287 H281 0.930 . S
C287 C283 1.400 . S
C287 C286 1.385 . S
C288 C286 1.478 . S
C288 C290 1.381 . S
C288 C294 1.383 . S
C289 C285 1.495 . S
C289 H295 0.959 . S
C289 H296 0.961 . S
C289 H297 0.960 . S
C290 C288 1.381 . S
C290 C291 1.394 . S
C290 H298 0.930 . S
C291 C290 1.394 . S
C291 C292 1.383 . S
C291 H299 0.929 . S
C292 C291 1.383 . S
C292 C293 1.377 . S
C293 H277 0.930 . S
C293 C292 1.377 . S
C293 C294 1.379 . S
C294 H278 0.931 . S
C294 C288 1.383 . S
C294 C293 1.379 . S
H295 C289 0.959 . S
H296 C289 0.961 . S
H297 C289 0.960 . S
H298 C290 0.930 . S
H299 C291 0.929 . S
H300 C308 0.929 . S
H301 C310 0.930 . S
H302 C312 0.930 . S
H303 C315 0.929 . S
H304 C318 0.930 . S
H305 C320 0.960 . S
H306 C320 0.960 . S
H307 C320 0.960 . S
C308 H300 0.929 . S
C308 C309 1.377 . S
C308 C310 1.384 . S
C309 C308 1.377 . S
C309 C315 1.390 . S
C310 H301 0.930 . S
C310 C308 1.384 . S
C310 C311 1.372 . S
C311 C310 1.372 . S
C311 C312 1.400 . S
C311 C316 1.490 . S
C312 H302 0.930 . S
C312 C311 1.400 . S
C312 C315 1.386 . S
H313 C329 0.930 . S
H314 C330 0.931 . S
C315 H303 0.929 . S
C315 C309 1.390 . S
C315 C312 1.386 . S
C316 C311 1.490 . S
C316 C318 1.395 . S
C316 C319 1.403 1_565 S
H317 C323 0.930 . S
C318 H304 0.930 . S
C318 C316 1.395 . S
C318 C321 1.403 1_556 S
C319 C316 1.403 1_545 S
C319 C320 1.524 . S
C319 C323 1.400 1_556 S
C320 H305 0.960 . S
C320 H306 0.960 . S
C320 H307 0.960 . S
C320 C319 1.524 . S
C321 C318 1.403 1_554 S
C321 C322 1.392 1_565 S
C321 C325 1.495 . S
C322 C321 1.392 1_545 S
C322 C323 1.385 . S
C322 C324 1.478 . S
C323 H317 0.930 . S
C323 C319 1.400 1_554 S
C323 C322 1.385 . S
C324 C322 1.478 . S
C324 C326 1.381 . S
C324 C330 1.383 . S
C325 C321 1.495 . S
C325 H331 0.959 . S
C325 H332 0.961 . S
C325 H333 0.960 . S
C326 C324 1.381 . S
C326 C327 1.394 . S
C326 H334 0.930 . S
C327 C326 1.394 . S
C327 C328 1.383 . S
C327 H335 0.929 . S
C328 C327 1.383 . S
C328 C329 1.377 . S
C329 H313 0.930 . S
C329 C328 1.377 . S
C329 C330 1.379 . S
C330 H314 0.931 . S
C330 C324 1.383 . S
C330 C329 1.379 . S
H331 C325 0.959 . S
H332 C325 0.961 . S
H333 C325 0.960 . S
H334 C326 0.930 . S
H335 C327 0.929 . S
H336 C344 0.929 . S
H337 C346 0.930 . S
H338 C348 0.930 . S
H339 C351 0.929 . S
H340 C354 0.930 . S
H341 C356 0.960 . S
H342 C356 0.960 . S
H343 C356 0.960 . S
C344 H336 0.929 . S
C344 C345 1.377 . S
C344 C346 1.384 . S
C345 C344 1.377 . S
C345 C351 1.390 . S
C346 H337 0.930 . S
C346 C344 1.384 . S
C346 C347 1.372 . S
C347 C346 1.372 . S
C347 C348 1.400 . S
C347 C352 1.490 . S
C348 H338 0.930 . S
C348 C347 1.400 . S
C348 C351 1.386 . S
H349 C365 0.930 . S
H350 C366 0.931 . S
C351 H339 0.929 . S
C351 C345 1.390 . S
C351 C348 1.386 . S
C352 C347 1.490 . S
C352 C354 1.395 . S
C352 C355 1.403 . S
H353 C359 0.930 . S
C354 H340 0.930 . S
C354 C352 1.395 . S
C354 C357 1.403 . S
C355 C352 1.403 . S
C355 C356 1.524 . S
C355 C359 1.400 . S
C356 H341 0.960 . S
C356 H342 0.960 . S
C356 H343 0.960 . S
C356 C355 1.524 . S
C357 C354 1.403 . S
C357 C358 1.392 . S
C357 C361 1.495 . S
C358 C357 1.392 . S
C358 C359 1.385 . S
C358 C360 1.478 . S
C359 H353 0.930 . S
C359 C355 1.400 . S
C359 C358 1.385 . S
C360 C358 1.478 . S
C360 C362 1.381 . S
C360 C366 1.383 . S
C361 C357 1.495 . S
C361 H367 0.959 . S
C361 H368 0.961 . S
C361 H369 0.960 . S
C362 C360 1.381 . S
C362 C363 1.394 . S
C362 H370 0.930 . S
C363 C362 1.394 . S
C363 C364 1.383 . S
C363 H371 0.929 . S
C364 C363 1.383 . S
C364 C365 1.377 . S
C365 H349 0.930 . S
C365 C364 1.377 . S
C365 C366 1.379 . S
C366 H350 0.931 . S
C366 C360 1.383 . S
C366 C365 1.379 . S
H367 C361 0.959 . S
H368 C361 0.961 . S
H369 C361 0.960 . S
H370 C362 0.930 . S
H371 C363 0.929 . S
H372 C380 0.929 . S
H373 C382 0.930 . S
H374 C384 0.930 . S
H375 C387 0.929 . S
H376 C390 0.930 . S
H377 C392 0.960 . S
H378 C392 0.960 . S
H379 C392 0.960 1_455 S
C380 H372 0.929 . S
C380 C381 1.377 . S
C380 C382 1.384 . S
C381 C380 1.377 . S
C381 C387 1.390 . S
C382 H373 0.930 . S
C382 C380 1.384 . S
C382 C383 1.372 . S
C383 C382 1.372 . S
C383 C384 1.400 . S
C383 C388 1.490 . S
C384 H374 0.930 . S
C384 C383 1.400 . S
C384 C387 1.386 . S
H385 C401 0.930 . S
H386 C402 0.931 . S
C387 H375 0.929 . S
C387 C381 1.390 . S
C387 C384 1.386 . S
C388 C383 1.490 . S
C388 C390 1.395 . S
C388 C391 1.403 1_455 S
H389 C395 0.930 . S
C390 H376 0.930 . S
C390 C388 1.395 . S
C390 C393 1.403 1_556 S
C391 C388 1.403 1_655 S
C391 C392 1.524 . S
C391 C395 1.400 1_556 S
C392 H377 0.960 . S
C392 H378 0.960 . S
C392 H379 0.960 1_655 S
C392 C391 1.524 . S
C393 C390 1.403 1_554 S
C393 C394 1.392 1_455 S
C393 C397 1.495 . S
C394 C393 1.392 1_655 S
C394 C395 1.385 . S
C394 C396 1.478 . S
C395 H389 0.930 . S
C395 C391 1.400 1_554 S
C395 C394 1.385 . S
C396 C394 1.478 . S
C396 C398 1.381 . S
C396 C402 1.383 . S
C397 C393 1.495 . S
C397 H403 0.959 . S
C397 H404 0.961 . S
C397 H405 0.960 1_455 S
C398 C396 1.381 . S
C398 C399 1.394 . S
C398 H406 0.930 . S
C399 C398 1.394 . S
C399 C400 1.383 . S
C399 H407 0.929 . S
C400 C399 1.383 . S
C400 C401 1.377 . S
C401 H385 0.930 . S
C401 C400 1.377 . S
C401 C402 1.379 . S
C402 H386 0.931 . S
C402 C396 1.383 . S
C402 C401 1.379 . S
H403 C397 0.959 . S
H404 C397 0.961 . S
H405 C397 0.960 1_655 S
H406 C398 0.930 . S
H407 C399 0.929 . S
H408 C416 0.929 . S
H409 C418 0.930 . S
H410 C420 0.930 . S
H411 C423 0.929 . S
H412 C426 0.930 . S
H413 C428 0.960 . S
H414 C428 0.960 . S
H415 C428 0.960 . S
C416 H408 0.929 . S
C416 C417 1.377 . S
C416 C418 1.384 . S
C417 C416 1.377 . S
C417 C423 1.390 . S
C418 H409 0.930 . S
C418 C416 1.384 . S
C418 C419 1.372 . S
C419 C418 1.372 . S
C419 C420 1.400 . S
C419 C424 1.490 . S
C420 H410 0.930 . S
C420 C419 1.400 . S
C420 C423 1.386 . S
H421 C437 0.930 . S
H422 C438 0.931 . S
C423 H411 0.929 . S
C423 C417 1.390 . S
C423 C420 1.386 . S
C424 C419 1.490 . S
C424 C426 1.395 . S
C424 C427 1.403 1_545 S
H425 C431 0.930 . S
C426 H412 0.930 . S
C426 C424 1.395 . S
C426 C429 1.403 . S
C427 C424 1.403 1_565 S
C427 C428 1.524 . S
C427 C431 1.400 . S
C428 H413 0.960 . S
C428 H414 0.960 . S
C428 H415 0.960 . S
C428 C427 1.524 . S
C429 C426 1.403 . S
C429 C430 1.392 1_545 S
C429 C433 1.495 . S
C430 C429 1.392 1_565 S
C430 C431 1.385 . S
C430 C432 1.478 . S
C431 H425 0.930 . S
C431 C427 1.400 . S
C431 C430 1.385 . S
C432 C430 1.478 . S
C432 C434 1.381 . S
C432 C438 1.383 . S
C433 C429 1.495 . S
C433 H439 0.959 . S
C433 H440 0.961 . S
C433 H441 0.960 . S
C434 C432 1.381 . S
C434 C435 1.394 . S
C434 H442 0.930 . S
C435 C434 1.394 . S
C435 C436 1.383 . S
C435 H443 0.929 . S
C436 C435 1.383 . S
C436 C437 1.377 . S
C437 H421 0.930 . S
C437 C436 1.377 . S
C437 C438 1.379 . S
C438 H422 0.931 . S
C438 C432 1.383 . S
C438 C437 1.379 . S
H439 C433 0.959 . S
H440 C433 0.961 . S
H441 C433 0.960 . S
H442 C434 0.930 . S
H443 C435 0.929 . S
H444 C452 0.929 . S
H445 C454 0.930 . S
H446 C456 0.930 . S
H447 C459 0.929 . S
H448 C462 0.930 . S
H449 C464 0.960 . S
H450 C464 0.960 . S
H451 C464 0.960 . S
C452 H444 0.929 . S
C452 C453 1.377 . S
C452 C454 1.384 . S
C453 C452 1.377 . S
C453 C459 1.390 . S
C454 H445 0.930 . S
C454 C452 1.384 . S
C454 C455 1.372 . S
C455 C454 1.372 . S
C455 C456 1.400 . S
C455 C460 1.490 . S
C456 H446 0.930 . S
C456 C455 1.400 . S
C456 C459 1.386 . S
H457 C473 0.930 . S
H458 C474 0.931 . S
C459 H447 0.929 . S
C459 C453 1.390 . S
C459 C456 1.386 . S
C460 C455 1.490 . S
C460 C462 1.395 . S
C460 C463 1.403 . S
H461 C467 0.930 . S
C462 H448 0.930 . S
C462 C460 1.395 . S
C462 C465 1.403 1_556 S
C463 C460 1.403 . S
C463 C464 1.524 . S
C463 C467 1.400 1_556 S
C464 H449 0.960 . S
C464 H450 0.960 . S
C464 H451 0.960 . S
C464 C463 1.524 . S
C465 C462 1.403 1_554 S
C465 C466 1.392 . S
C465 C469 1.495 . S
C466 C465 1.392 . S
C466 C467 1.385 . S
C466 C468 1.478 . S
C467 H461 0.930 . S
C467 C463 1.400 1_554 S
C467 C466 1.385 . S
C468 C466 1.478 . S
C468 C470 1.381 . S
C468 C474 1.383 . S
C469 C465 1.495 . S
C469 H475 0.959 . S
C469 H476 0.961 . S
C469 H477 0.960 . S
C470 C468 1.381 . S
C470 C471 1.394 . S
C470 H478 0.930 . S
C471 C470 1.394 . S
C471 C472 1.383 . S
C471 H479 0.929 . S
C472 C471 1.383 . S
C472 C473 1.377 . S
C473 H457 0.930 . S
C473 C472 1.377 . S
C473 C474 1.379 . S
C474 H458 0.931 . S
C474 C468 1.383 . S
C474 C473 1.379 . S
H475 C469 0.959 . S
H476 C469 0.961 . S
H477 C469 0.960 . S
H478 C470 0.930 . S
H479 C471 0.929 . S
H480 C488 0.929 . S
H481 C490 0.930 . S
H482 C492 0.930 . S
H483 C495 0.929 . S
H484 C498 0.930 . S
H485 C500 0.960 . S
H486 C500 0.960 . S
H487 C500 0.960 . S
C488 H480 0.929 . S
C488 C489 1.377 . S
C488 C490 1.384 . S
C489 C488 1.377 . S
C489 C495 1.390 . S
C490 H481 0.930 . S
C490 C488 1.384 . S
C490 C491 1.372 . S
C491 C490 1.372 . S
C491 C492 1.400 . S
C491 C496 1.490 . S
C492 H482 0.930 . S
C492 C491 1.400 . S
C492 C495 1.386 . S
H493 C509 0.930 . S
H494 C510 0.931 . S
C495 H483 0.929 . S
C495 C489 1.390 . S
C495 C492 1.386 . S
C496 C491 1.490 . S
C496 C498 1.395 1_455 S
C496 C499 1.403 . S
H497 C503 0.918 . S
C498 H484 0.930 . S
C498 C496 1.395 1_655 S
C498 C501 1.403 . S
C499 C496 1.403 . S
C499 C500 1.524 . S
C499 C503 1.418 . S
C500 H485 0.960 . S
C500 H486 0.960 . S
C500 H487 0.960 . S
C500 C499 1.524 . S
C501 C498 1.403 . S
C501 C502 1.392 . S
C501 C505 1.495 . S
C502 C501 1.392 . S
C502 C503 1.380 1_655 S
C502 C504 1.478 . S
C503 H497 0.918 . S
C503 C499 1.418 . S
C503 C502 1.380 1_455 S
C504 C502 1.478 . S
C504 C506 1.381 . S
C504 C510 1.383 . S
C505 C501 1.495 . S
C505 H511 0.959 . S
C505 H512 0.961 . S
C505 H513 0.960 . S
C506 C504 1.381 . S
C506 C507 1.394 . S
C506 H514 0.930 . S
C507 C506 1.394 . S
C507 C508 1.383 . S
C507 H515 0.929 . S
C508 C507 1.383 . S
C508 C509 1.377 . S
C509 H493 0.930 . S
C509 C508 1.377 . S
C509 C510 1.379 . S
C510 H494 0.931 . S
C510 C504 1.383 . S
C510 C509 1.379 . S
H511 C505 0.959 . S
H512 C505 0.961 . S
H513 C505 0.960 . S
H514 C506 0.930 . S
H515 C507 0.929 . S
C93 C9 1.152 . S
C112 C64 1.166 . S
C129 C23 1.153 . S
C148 C78 1.141 . S
C165 C8 1.158 . S
C184 C36 1.137 . S
C201 C50 1.155 . S
C220 C22 1.171 . S
C237 C65 1.151 . S
C256 C37 1.157 . S
C273 C51 1.152 . S
C292 C79 1.151 . S
C309 C49 1.430 . S
C328 C7 1.448 . S
C345 C62 1.423 . S
C364 C21 1.424 . S
C381 C76 1.429 . S
C400 C34 1.448 . S
C417 C6 1.430 . S
C436 C48 1.448 . S
C453 C20 1.430 . S
C472 C63 1.449 . S
C489 C77 1.420 . S
C508 C35 1.395 . S
