# Generated by pormake.
# Topology vbn, (6)-cn, num edge types: 1
# Building blocks:
#     Node 0, Type 0, BuildingBlock: OJICUG_clean_sbu_0, # of connection points: 6
#     Node 1, Type 0, BuildingBlock: OJICUG_clean_sbu_0, # of connection points: 6
#     Node 2, Type 0, BuildingBlock: OJICUG_clean_sbu_0, # of connection points: 6
#     Node 3, Type 0, BuildingBlock: OJICUG_clean_sbu_0, # of connection points: 6
#     Node 4, Type 0, BuildingBlock: OJICUG_clean_sbu_0, # of connection points: 6
#     Node 5, Type 0, BuildingBlock: OJICUG_clean_sbu_0, # of connection points: 6
#     Node 6, Type 0, BuildingBlock: OJICUG_clean_sbu_0, # of connection points: 6
#     Node 7, Type 0, BuildingBlock: OJICUG_clean_sbu_0, # of connection points: 6
#     Edge 8, Type (0, 0), BuildingBlock: TEMPAE_clean_linker_10, # of connection points: 2
#     Edge 9, Type (0, 0), BuildingBlock: TEMPAE_clean_linker_10, # of connection points: 2
#     Edge 10, Type (0, 0), BuildingBlock: TEMPAE_clean_linker_10, # of connection points: 2
#     Edge 11, Type (0, 0), BuildingBlock: TEMPAE_clean_linker_10, # of connection points: 2
#     Edge 12, Type (0, 0), BuildingBlock: TEMPAE_clean_linker_10, # of connection points: 2
#     Edge 13, Type (0, 0), BuildingBlock: TEMPAE_clean_linker_10, # of connection points: 2
#     Edge 14, Type (0, 0), BuildingBlock: TEMPAE_clean_linker_10, # of connection points: 2
#     Edge 15, Type (0, 0), BuildingBlock: TEMPAE_clean_linker_10, # of connection points: 2
#     Edge 16, Type (0, 0), BuildingBlock: TEMPAE_clean_linker_10, # of connection points: 2
#     Edge 17, Type (0, 0), BuildingBlock: TEMPAE_clean_linker_10, # of connection points: 2
#     Edge 18, Type (0, 0), BuildingBlock: TEMPAE_clean_linker_10, # of connection points: 2
#     Edge 19, Type (0, 0), BuildingBlock: TEMPAE_clean_linker_10, # of connection points: 2
#     Edge 20, Type (0, 0), BuildingBlock: TEMPAE_clean_linker_10, # of connection points: 2
#     Edge 21, Type (0, 0), BuildingBlock: TEMPAE_clean_linker_10, # of connection points: 2
#     Edge 22, Type (0, 0), BuildingBlock: TEMPAE_clean_linker_10, # of connection points: 2
#     Edge 23, Type (0, 0), BuildingBlock: TEMPAE_clean_linker_10, # of connection points: 2
#     Edge 24, Type (0, 0), BuildingBlock: TEMPAE_clean_linker_10, # of connection points: 2
#     Edge 25, Type (0, 0), BuildingBlock: TEMPAE_clean_linker_10, # of connection points: 2
#     Edge 26, Type (0, 0), BuildingBlock: TEMPAE_clean_linker_10, # of connection points: 2
#     Edge 27, Type (0, 0), BuildingBlock: TEMPAE_clean_linker_10, # of connection points: 2
#     Edge 28, Type (0, 0), BuildingBlock: TEMPAE_clean_linker_10, # of connection points: 2
#     Edge 29, Type (0, 0), BuildingBlock: TEMPAE_clean_linker_10, # of connection points: 2
#     Edge 30, Type (0, 0), BuildingBlock: TEMPAE_clean_linker_10, # of connection points: 2
#     Edge 31, Type (0, 0), BuildingBlock: TEMPAE_clean_linker_10, # of connection points: 2
# Relax obj value: 0.292
# Max RMSD: 0.267
# Mean RMSD: 0.267
data_MOF--net-vbn--node1-OJICUG_clean_sbu_0--edge1-TEMPAE_clean_linker_10
_symmetry_space_group_name_H-M    P1
_symmetry_Int_Tables_number       1
_symmetry_cell_setting            triclinic
loop_
_symmetry_equiv_pos_as_xyz
'x, y, z'
_cell_length_a     26.297845
_cell_length_b     29.571737
_cell_length_c     47.777208
_cell_angle_alpha  90.101213
_cell_angle_beta   90.054359
_cell_angle_gamma 90.048865
loop_
_atom_site_label
_atom_site_type_symbol
_atom_site_fract_x
_atom_site_fract_y
_atom_site_fract_z
_atom_type_partial_charge
Sc0 Sc 0.31594 0.29505 0.36941 0.0
Sc1 Sc 0.34415 0.30656 0.43935 0.0
Sc2 Sc 0.42868 0.34531 0.38919 0.0
O3 O 0.36418 0.31483 0.39959 0.0
C4 C 0.42233 0.28218 0.33875 0.0
C5 C 0.31627 0.21278 0.40675 0.0
C6 C 0.46081 0.28361 0.44198 0.0
C7 C 0.23854 0.31748 0.41858 0.0
C8 C 0.33985 0.39407 0.35468 0.0
C9 C 0.39489 0.40496 0.44042 0.0
O10 O 0.37457 0.28874 0.33728 0.0
O11 O 0.31459 0.23844 0.42856 0.0
O12 O 0.47235 0.30896 0.4212 0.0
O13 O 0.24863 0.29556 0.39637 0.0
O14 O 0.38762 0.38661 0.35815 0.0
O15 O 0.37132 0.37319 0.45302 0.0
O16 O 0.30603 0.3641 0.35915 0.0
O17 O 0.27326 0.33847 0.43132 0.0
O18 O 0.4154 0.39968 0.41673 0.0
O19 O 0.32741 0.22753 0.38246 0.0
O20 O 0.44749 0.29266 0.36037 0.0
O21 O 0.41521 0.27657 0.44959 0.0
Sc22 Sc 0.18943 0.22425 0.88174 0.0
Sc23 Sc 0.10356 0.23148 0.93646 0.0
Sc24 Sc 0.08234 0.15596 0.88271 0.0
O25 O 0.1255 0.20381 0.9003 0.0
C26 C 0.11104 0.21189 0.83055 0.0
C27 C 0.1496 0.31607 0.90318 0.0
C28 C -4e-05 0.22383 0.90923 0.0
C29 C 0.21814 0.22343 0.94775 0.0
C30 C 0.19518 0.12042 0.87191 0.0
C31 C 0.07164 0.1267 0.94318 0.0
O32 O 0.15599 0.21946 0.83968 0.0
O33 O 0.13374 0.29841 0.92592 0.0
O34 O 0.01132 0.1856 0.89843 0.0
O35 O 0.22884 0.23244 0.92217 0.0
O36 O 0.14754 0.11848 0.86692 0.0
O37 O 0.06979 0.16769 0.95179 0.0
O38 O 0.21694 0.15634 0.88024 0.0
O39 O 0.17341 0.2137 0.9557 0.0
O40 O 0.08772 0.11617 0.91912 0.0
O41 O 0.16446 0.29259 0.88254 0.0
O42 O 0.0763 0.19391 0.8452 0.0
O43 O 0.03378 0.25109 0.91771 0.0
Sc44 Sc 0.81818 0.20472 0.62097 0.0
Sc45 Sc 0.84465 0.19312 0.55092 0.0
Sc46 Sc 0.92742 0.14938 0.60045 0.0
O47 O 0.86461 0.1831 0.59059 0.0
C48 C 0.92662 0.21406 0.65061 0.0
C49 C 0.82015 0.28703 0.58372 0.0
C50 C 0.96171 0.21161 0.54821 0.0
C51 C 0.7389 0.18311 0.57217 0.0
C52 C 0.83803 0.10511 0.63659 0.0
C53 C 0.88968 0.09268 0.54899 0.0
O54 O 0.87842 0.21051 0.65235 0.0
O55 O 0.81654 0.26156 0.56194 0.0
O56 O 0.97209 0.1838 0.56796 0.0
O57 O 0.75004 0.20493 0.59435 0.0
O58 O 0.88585 0.11042 0.63225 0.0
O59 O 0.87007 0.12645 0.53636 0.0
O60 O 0.80565 0.13622 0.63201 0.0
O61 O 0.7729 0.16257 0.55863 0.0
O62 O 0.90897 0.09553 0.57316 0.0
O63 O 0.83189 0.2718 0.60777 0.0
O64 O 0.9506 0.20086 0.62914 0.0
O65 O 0.91649 0.22193 0.54141 0.0
Sc66 Sc 0.58343 0.33894 0.1116 0.0
Sc67 Sc 0.6049 0.26631 0.0566 0.0
Sc68 Sc 0.69199 0.27348 0.1108 0.0
O69 O 0.62729 0.29312 0.09285 0.0
C70 C 0.69558 0.37635 0.12227 0.0
C71 C 0.57231 0.37132 0.05191 0.0
C72 C 0.71902 0.27563 0.0447 0.0
C73 C 0.50149 0.27223 0.0836 0.0
C74 C 0.61401 0.28057 0.16203 0.0
C75 C 0.65218 0.18165 0.08913 0.0
O76 O 0.64833 0.37628 0.12848 0.0
O77 O 0.57066 0.33071 0.04253 0.0
O78 O 0.73044 0.26624 0.07012 0.0
O79 O 0.51258 0.31013 0.09492 0.0
O80 O 0.65972 0.27732 0.15314 0.0
O81 O 0.63579 0.19934 0.06648 0.0
O82 O 0.57811 0.29721 0.14762 0.0
O83 O 0.53567 0.24526 0.07538 0.0
O84 O 0.66782 0.20499 0.10969 0.0
O85 O 0.58836 0.38089 0.07618 0.0
O86 O 0.71789 0.34177 0.11244 0.0
O87 O 0.67407 0.28531 0.03714 0.0
Sc88 Sc 0.57288 0.65469 0.59874 0.0
Sc89 Sc 0.62369 0.74133 0.56035 0.0
Sc90 Sc 0.68959 0.69908 0.61771 0.0
O91 O 0.62875 0.69911 0.59275 0.0
C92 C 0.59318 0.69087 0.65856 0.0
C93 C 0.51423 0.74421 0.57759 0.0
C94 C 0.68216 0.80171 0.60655 0.0
C95 C 0.57567 0.65023 0.53595 0.0
C96 C 0.66916 0.59529 0.61155 0.0
C97 C 0.73467 0.70668 0.55564 0.0
O98 O 0.56178 0.68132 0.63926 0.0
O99 O 0.55425 0.76815 0.57621 0.0
O100 O 0.68504 0.77014 0.62439 0.0
O101 O 0.58489 0.62833 0.55807 0.0
O102 O 0.69963 0.62841 0.61116 0.0
O103 O 0.692 0.71379 0.54399 0.0
O104 O 0.62138 0.60049 0.61386 0.0
O105 O 0.57997 0.69317 0.53473 0.0
O106 O 0.74139 0.70771 0.58218 0.0
O107 O 0.51611 0.70189 0.58285 0.0
O108 O 0.64153 0.6912 0.65513 0.0
O109 O 0.66599 0.79516 0.58164 0.0
Sc110 Sc 0.81608 0.77482 0.11594 0.0
Sc111 Sc 0.90286 0.75912 0.06223 0.0
Sc112 Sc 0.91975 0.8455 0.10897 0.0
O113 O 0.87893 0.79286 0.0957 0.0
C114 C 0.80774 0.87924 0.11925 0.0
C115 C 0.78729 0.76327 0.05056 0.0
C116 C 0.92313 0.86359 0.04699 0.0
C117 C 0.85752 0.67979 0.10086 0.0
C118 C 0.89883 0.79489 0.16376 0.0
C119 C 0.00546 0.77881 0.08574 0.0
O120 O 0.78709 0.84203 0.11258 0.0
O121 O 0.83238 0.76963 0.04194 0.0
O122 O 0.90691 0.87805 0.0703 0.0
O123 O 0.84099 0.70649 0.11955 0.0
O124 O 0.9316 0.81185 0.14738 0.0
O125 O 0.97361 0.74718 0.08243 0.0
O126 O 0.85249 0.78727 0.15681 0.0
O127 O 0.87592 0.69375 0.0777 0.0
O128 O 0.99107 0.81839 0.09271 0.0
O129 O 0.77602 0.75988 0.07658 0.0
O130 O 0.85471 0.88193 0.12548 0.0
O131 O 0.93188 0.82158 0.04241 0.0
Sc132 Sc 0.06942 0.83998 0.40241 0.0
Sc133 Sc 0.12237 0.75264 0.43936 0.0
Sc134 Sc 0.18737 0.79895 0.38284 0.0
O135 O 0.12652 0.79656 0.4077 0.0
C136 C 0.09059 0.8065 0.34191 0.0
C137 C 0.01331 0.7479 0.42149 0.0
C138 C 0.18353 0.6955 0.39276 0.0
C139 C 0.07103 0.84129 0.46517 0.0
C140 C 0.16402 0.90231 0.38965 0.0
C141 C 0.23218 0.79049 0.44517 0.0
O142 O 0.05915 0.81543 0.36127 0.0
O143 O 0.05405 0.72495 0.42253 0.0
O144 O 0.18577 0.72795 0.37552 0.0
O145 O 0.08071 0.86448 0.44365 0.0
O146 O 0.19525 0.86981 0.38938 0.0
O147 O 0.18975 0.78101 0.45647 0.0
O148 O 0.11621 0.8962 0.38855 0.0
O149 O 0.07648 0.79841 0.46553 0.0
O150 O 0.23904 0.79144 0.41862 0.0
O151 O 0.0139 0.79052 0.4171 0.0
O152 O 0.13895 0.80601 0.34543 0.0
O153 O 0.1665 0.70053 0.4176 0.0
Sc154 Sc 0.41897 0.65388 0.88945 0.0
Sc155 Sc 0.40251 0.74053 0.93598 0.0
Sc156 Sc 0.3152 0.72421 0.88238 0.0
O157 O 0.37818 0.70648 0.90265 0.0
C158 C 0.39825 0.70479 0.83477 0.0
C159 C 0.50502 0.72023 0.91277 0.0
C160 C 0.35773 0.81947 0.89706 0.0
C161 C 0.42175 0.63606 0.95144 0.0
C162 C 0.30707 0.61981 0.87862 0.0
C163 C 0.28675 0.73625 0.94774 0.0
O164 O 0.43098 0.68776 0.85118 0.0
O165 O 0.47335 0.75198 0.91581 0.0
O166 O 0.33988 0.79264 0.87879 0.0
O167 O 0.40572 0.62148 0.92809 0.0
O168 O 0.28626 0.6568 0.88553 0.0
O169 O 0.33202 0.73074 0.95632 0.0
O170 O 0.35413 0.61744 0.87262 0.0
O171 O 0.4308 0.67806 0.95597 0.0
O172 O 0.27513 0.73888 0.92172 0.0
O173 O 0.49039 0.68065 0.90593 0.0
O174 O 0.3518 0.71205 0.84158 0.0
O175 O 0.37652 0.80584 0.9202 0.0
C176 C 0.15718 0.98689 0.38624 0.0
C177 C 0.18453 0.94832 0.39413 0.0
C178 C 0.17727 0.03036 0.39083 0.0
C179 C 0.22521 0.03513 0.40413 0.0
C180 C 0.25187 0.99633 0.41315 0.0
C181 C 0.2315 0.95347 0.40778 0.0
C182 C 0.14814 0.07106 0.38057 0.0
C183 C 0.30258 1e-05 0.42788 0.0
C184 C 0.30625 0.13635 0.38561 0.0
C185 C 0.29763 0.1656 0.40829 0.0
C186 C 0.28266 0.09405 0.38407 0.0
C187 C 0.25016 0.0801 0.40598 0.0
C188 C 0.24262 0.1086 0.42949 0.0
C189 C 0.26638 0.15121 0.43034 0.0
C190 C 0.29166 0.06471 0.35861 0.0
C191 C 0.20864 0.09453 0.45338 0.0
H192 H 0.12068 0.98306 0.37593 0.0
H193 H 0.25233 0.92383 0.41459 0.0
H194 H 0.14346 0.09604 0.39772 0.0
H195 H 0.16988 0.08792 0.36364 0.0
H196 H 0.10995 0.06187 0.37237 0.0
H197 H 0.31593 0.9669 0.43601 0.0
H198 H 0.3316 0.01324 0.41317 0.0
H199 H 0.30003 0.0242 0.4456 0.0
H200 H 0.33052 0.14705 0.36853 0.0
H201 H 0.25908 0.17378 0.44778 0.0
H202 H 0.25491 0.05706 0.34818 0.0
H203 H 0.30869 0.032 0.36497 0.0
H204 H 0.31728 0.08101 0.34315 0.0
H205 H 0.16895 0.0909 0.44583 0.0
H206 H 0.20912 0.11941 0.47084 0.0
H207 H 0.22065 0.06109 0.46155 0.0
C208 C 0.15459 0.38615 0.87479 0.0
C209 C 0.15711 0.36538 0.90112 0.0
C210 C 0.17212 0.4304 0.87087 0.0
C211 C 0.19329 0.45419 0.89379 0.0
C212 C 0.1926 0.43459 0.92085 0.0
C213 C 0.17411 0.39034 0.92424 0.0
C214 C 0.17138 0.45034 0.84179 0.0
C215 C 0.21497 0.45893 0.9458 0.0
C216 C 0.30069 0.53546 0.87738 0.0
C217 C 0.27669 0.57761 0.87991 0.0
C218 C 0.27383 0.49517 0.88183 0.0
C219 C 0.22152 0.49694 0.88876 0.0
C220 C 0.19663 0.53921 0.89063 0.0
C221 C 0.22454 0.57908 0.88624 0.0
C222 C 0.30175 0.45066 0.87965 0.0
C223 C 0.14082 0.54232 0.89774 0.0
H224 H 0.14097 0.36697 0.85691 0.0
H225 H 0.17635 0.37424 0.94458 0.0
H226 H 0.15681 0.48552 0.84229 0.0
H227 H 0.2107 0.45153 0.83343 0.0
H228 H 0.14755 0.43016 0.82716 0.0
H229 H 0.20583 0.44166 0.9658 0.0
H230 H 0.25695 0.4605 0.94361 0.0
H231 H 0.20083 0.49421 0.94684 0.0
H232 H 0.34097 0.53387 0.87269 0.0
H233 H 0.2056 0.61145 0.88831 0.0
H234 H 0.28349 0.42888 0.8636 0.0
H235 H 0.29964 0.43243 0.8999 0.0
H236 H 0.34243 0.45514 0.87403 0.0
H237 H 0.11812 0.52196 0.88273 0.0
H238 H 0.1267 0.57772 0.89739 0.0
H239 H 0.13405 0.52807 0.91888 0.0
C240 C 0.73369 0.54623 0.58882 0.0
C241 C 0.69009 0.54992 0.60561 0.0
C242 C 0.75389 0.504 0.58169 0.0
C243 C 0.73071 0.46437 0.59215 0.0
C244 C 0.68616 0.4677 0.60874 0.0
C245 C 0.66592 0.51055 0.61499 0.0
C246 C 0.80068 0.50188 0.5634 0.0
C247 C 0.66093 0.42611 0.62065 0.0
C248 C 0.76687 0.34886 0.56292 0.0
C249 C 0.80273 0.33455 0.58276 0.0
C250 C 0.74349 0.39147 0.56533 0.0
C251 C 0.75622 0.42001 0.58816 0.0
C252 C 0.79379 0.40633 0.60756 0.0
C253 C 0.81679 0.36401 0.60449 0.0
C254 C 0.70405 0.40526 0.54402 0.0
C255 C 0.80849 0.43571 0.63221 0.0
H256 H 0.75181 0.57655 0.58086 0.0
H257 H 0.63193 0.51331 0.6277 0.0
H258 H 0.83337 0.48913 0.57577 0.0
H259 H 0.79454 0.47794 0.54581 0.0
H260 H 0.81098 0.53546 0.55468 0.0
H261 H 0.62506 0.43424 0.63184 0.0
H262 H 0.65239 0.40155 0.60371 0.0
H263 H 0.68723 0.40923 0.6355 0.0
H264 H 0.7554 0.32605 0.54628 0.0
H265 H 0.8447 0.35328 0.61981 0.0
H266 H 0.71271 0.43945 0.53575 0.0
H267 H 0.66615 0.407 0.55413 0.0
H268 H 0.70181 0.3811 0.52623 0.0
H269 H 0.82275 0.46888 0.62478 0.0
H270 H 0.83832 0.41992 0.64545 0.0
H271 H 0.7746 0.44233 0.64541 0.0
C272 C 0.65386 0.11178 0.11761 0.0
C273 C 0.65894 0.13236 0.09135 0.0
C274 C 0.67117 0.06768 0.12219 0.0
C275 C 0.69471 0.04388 0.10003 0.0
C276 C 0.69654 0.06325 0.07292 0.0
C277 C 0.67821 0.10738 0.06883 0.0
C278 C 0.66777 0.04802 0.15129 0.0
C279 C 0.72142 0.03884 0.04878 0.0
C280 C 0.80088 0.96358 0.12005 0.0
C281 C 0.77733 0.92128 0.1171 0.0
C282 C 0.77426 0.00364 0.11458 0.0
C283 C 0.7227 0.00143 0.10609 0.0
C284 C 0.69821 0.95901 0.10379 0.0
C285 C 0.72582 0.91941 0.1093 0.0
C286 C 0.80168 0.04836 0.11735 0.0
C287 C 0.64319 0.95544 0.09498 0.0
H288 H 0.63853 0.13108 0.13499 0.0
H289 H 0.68246 0.12343 0.04858 0.0
H290 H 0.65357 0.01271 0.1505 0.0
H291 H 0.70623 0.04724 0.16084 0.0
H292 H 0.64239 0.06814 0.16509 0.0
H293 H 0.71397 0.0558 0.02845 0.0
H294 H 0.76316 0.03771 0.05219 0.0
H295 H 0.70776 0.0034 0.04749 0.0
H296 H 0.84066 0.96547 0.1259 0.0
H297 H 0.70722 0.88692 0.10686 0.0
H298 H 0.78172 0.07027 0.13267 0.0
H299 H 0.80148 0.06625 0.09696 0.0
H300 H 0.84175 0.04423 0.12427 0.0
H301 H 0.61893 0.9759 0.10913 0.0
H302 H 0.62924 0.91997 0.0951 0.0
H303 H 0.63846 0.96932 0.07357 0.0
C304 C 0.76508 0.05344 0.64607 0.0
C305 C 0.81773 0.05928 0.6425 0.0
C306 C 0.74255 0.01067 0.64381 0.0
C307 C 0.77344 0.97261 0.63832 0.0
C308 C 0.82702 0.9775 0.63757 0.0
C309 C 0.84862 0.02089 0.63959 0.0
C310 C 0.68531 0.00685 0.64514 0.0
C311 C 0.86135 0.93718 0.63345 0.0
C312 C 0.71377 0.85585 0.64299 0.0
C313 C 0.70238 0.84667 0.61478 0.0
C314 C 0.73691 0.89661 0.65105 0.0
C315 C 0.74925 0.92895 0.6304 0.0
C316 C 0.73746 0.92019 0.60193 0.0
C317 C 0.71393 0.87926 0.59448 0.0
C318 C 0.74879 0.90473 0.68158 0.0
C319 C 0.75044 0.95384 0.57928 0.0
H320 H 0.74079 0.08271 0.6488 0.0
H321 H 0.88935 0.02488 0.63717 0.0
H322 H 0.67022 -0.00069 0.62394 0.0
H323 H 0.67385 0.97862 0.65904 0.0
H324 H 0.66727 0.03848 0.65281 0.0
H325 H 0.90165 0.9472 0.6303 0.0
H326 H 0.85926 0.9151 0.65215 0.0
H327 H 0.84864 0.91673 0.61528 0.0
H328 H 0.70503 0.83092 0.65889 0.0
H329 H 0.70576 0.87236 0.57265 0.0
H330 H 0.73316 0.93775 0.68848 0.0
H331 H 0.79057 0.90615 0.68459 0.0
H332 H 0.73316 0.87775 0.69525 0.0
H333 H 0.73068 0.98634 0.58335 0.0
H334 H 0.73956 0.94163 0.5581 0.0
H335 H 0.7919 0.96085 0.57944 0.0
C336 C 0.84277 0.61405 0.13243 0.0
C337 C 0.84801 0.63099 0.10516 0.0
C338 C 0.82342 0.57055 0.13722 0.0
C339 C 0.80827 0.5436 0.11418 0.0
C340 C 0.81638 0.55943 0.08655 0.0
C341 C 0.83657 0.60289 0.08236 0.0
C342 C 0.81641 0.55456 0.16696 0.0
C343 C 0.80054 0.53173 0.06144 0.0
C344 C 0.77809 0.41869 0.12258 0.0
C345 C 0.72474 0.41918 0.12403 0.0
C346 C 0.806 0.459 0.12025 0.0
C347 C 0.77991 0.50075 0.11896 0.0
C348 C 0.72622 0.5016 0.12135 0.0
C349 C 0.69931 0.46084 0.12406 0.0
C350 C 0.86325 0.4568 0.11829 0.0
C351 C 0.69696 0.54548 0.11993 0.0
H352 H 0.85195 0.63556 0.15014 0.0
H353 H 0.84018 0.61593 0.06126 0.0
H354 H 0.77528 0.55384 0.1721 0.0
H355 H 0.83112 0.51964 0.16945 0.0
H356 H 0.83595 0.57693 0.18228 0.0
H357 H 0.81334 0.54709 0.04144 0.0
H358 H 0.8162 0.497 0.06289 0.0
H359 H 0.75848 0.52873 0.06096 0.0
H360 H 0.79809 0.38665 0.12266 0.0
H361 H 0.65813 0.46155 0.12493 0.0
H362 H 0.88084 0.48004 0.13378 0.0
H363 H 0.87562 0.46802 0.09723 0.0
H364 H 0.87798 0.4221 0.12194 0.0
H365 H 0.71083 0.56923 0.13624 0.0
H366 H 0.65543 0.54045 0.12283 0.0
H367 H 0.70333 0.56178 0.09932 0.0
C368 C 0.35219 0.47804 0.35739 0.0
C369 C 0.32147 0.44095 0.35027 0.0
C370 C 0.33092 0.52121 0.36124 0.0
C371 C 0.27777 0.52721 0.35809 0.0
C372 C 0.24745 0.49084 0.3485 0.0
C373 C 0.26972 0.44829 0.34451 0.0
C374 C 0.36486 0.55941 0.37075 0.0
C375 C 0.19076 0.4959 0.34451 0.0
C376 C 0.21247 0.61617 0.40302 0.0
C377 C 0.20506 0.65134 0.38378 0.0
C378 C 0.23638 0.57572 0.39493 0.0
C379 C 0.2531 0.57021 0.36692 0.0
C380 C 0.24535 0.60531 0.34737 0.0
C381 C 0.22138 0.64532 0.35599 0.0
C382 C 0.24426 0.53899 0.41642 0.0
C383 C 0.26309 0.60087 0.31743 0.0
H384 H 0.39218 0.47287 0.36186 0.0
H385 H 0.24569 0.42 0.33865 0.0
H386 H 0.35321 0.59204 0.36132 0.0
H387 H 0.36198 0.56289 0.39383 0.0
H388 H 0.40522 0.5529 0.36525 0.0
H389 H 0.17353 0.46583 0.33424 0.0
H390 H 0.17233 0.50072 0.36519 0.0
H391 H 0.18214 0.5262 0.33171 0.0
H392 H 0.20041 0.62051 0.42454 0.0
H393 H 0.21601 0.67219 0.34087 0.0
H394 H 0.28548 0.53193 0.41878 0.0
H395 H 0.2258 0.50722 0.4093 0.0
H396 H 0.22857 0.54828 0.43723 0.0
H397 H 0.30482 0.59536 0.31694 0.0
H398 H 0.25404 0.63128 0.30475 0.0
H399 H 0.24508 0.57098 0.30744 0.0
C400 C 0.27886 0.07987 0.87227 0.0
C401 C 0.22553 0.07824 0.87075 0.0
C402 C 0.30768 0.04019 0.87512 0.0
C403 C 0.28253 0.998 0.87685 0.0
C404 C 0.22889 0.99599 0.87436 0.0
C405 C 0.2011 0.03608 0.87114 0.0
C406 C 0.36485 0.04355 0.87718 0.0
C407 C 0.20061 0.95159 0.8762 0.0
C408 C 0.34528 0.88459 0.8648 0.0
C409 C 0.34969 0.86828 0.89225 0.0
C410 C 0.3268 0.92819 0.85949 0.0
C411 C 0.31165 0.95581 0.88218 0.0
C412 C 0.31935 0.94072 0.91001 0.0
C413 C 0.33873 0.89715 0.91473 0.0
C414 C 0.32025 0.94339 0.82955 0.0
C415 C 0.3035 0.96917 0.93477 0.0
H416 H 0.29811 0.11229 0.87188 0.0
H417 H 0.15995 0.03444 0.87016 0.0
H418 H 0.37734 0.03357 0.89847 0.0
H419 H 0.38305 0.01991 0.86217 0.0
H420 H 0.37883 0.07833 0.87293 0.0
H421 H 0.15897 0.95575 0.87326 0.0
H422 H 0.21493 0.92772 0.86011 0.0
H423 H 0.20741 0.93591 0.89696 0.0
H424 H 0.35422 0.86247 0.84735 0.0
H425 H 0.34181 0.8846 0.93597 0.0
H426 H 0.3343 0.9785 0.82685 0.0
H427 H 0.27925 0.94321 0.82405 0.0
H428 H 0.34063 0.92098 0.81462 0.0
H429 H 0.3186 0.00404 0.93279 0.0
H430 H 0.31681 0.9547 0.95493 0.0
H431 H 0.2614 0.97159 0.93536 0.0
C432 C 0.4184 0.48589 0.43674 0.0
C433 C 0.40385 0.44938 0.45379 0.0
C434 C 0.44122 0.52442 0.4481 0.0
C435 C 0.4475 0.5275 0.47735 0.0
C436 C 0.42719 0.49337 0.49495 0.0
C437 C 0.40594 0.45422 0.48292 0.0
C438 C 0.462 0.56022 0.42867 0.0
C439 C 0.43145 0.49672 0.52637 0.0
C440 C 0.56607 0.58353 0.50565 0.0
C441 C 0.54736 0.62538 0.51452 0.0
C442 C 0.53411 0.55211 0.49259 0.0
C443 C 0.48193 0.56253 0.489 0.0
C444 C 0.4635 0.60587 0.49646 0.0
C445 C 0.4967 0.63704 0.50909 0.0
C446 C 0.5558 0.50699 0.48374 0.0
C447 C 0.40818 0.61828 0.49324 0.0
H448 H 0.41529 0.48301 0.41418 0.0
H449 H 0.39418 0.42644 0.4962 0.0
H450 H 0.44043 0.59211 0.43155 0.0
H451 H 0.50247 0.56746 0.43356 0.0
H452 H 0.45957 0.54997 0.40636 0.0
H453 H 0.40721 0.47131 0.53709 0.0
H454 H 0.47153 0.49112 0.53275 0.0
H455 H 0.42037 0.53104 0.53356 0.0
H456 H 0.60514 0.57452 0.51032 0.0
H457 H 0.48198 0.66902 0.51676 0.0
H458 H 0.54643 0.50014 0.46148 0.0
H459 H 0.53856 0.47958 0.49643 0.0
H460 H 0.59776 0.50552 0.48633 0.0
H461 H 0.39088 0.60254 0.47442 0.0
H462 H 0.40323 0.65545 0.49189 0.0
H463 H 0.38697 0.6061 0.51183 0.0
C464 C 0.913 0.9391 0.02548 0.0
C465 C 0.94018 0.89843 0.02716 0.0
C466 C 0.93338 0.97682 0.01183 0.0
C467 C 0.98248 0.97392 -9e-05 0.0
C468 C 0.00934 0.93235 0.00059 0.0
C469 C 0.98769 0.89489 0.01417 0.0
C470 C 0.90288 0.02008 0.01081 0.0
C471 C 0.06187 0.92795 0.98817 0.0
C472 C 0.01808 0.05821 0.94394 0.0
C473 C 0.04706 0.08993 0.95895 0.0
C474 C -0.00335 0.02062 0.95709 0.0
C475 C 0.00487 0.01414 0.986 0.0
C476 C 0.03349 0.04636 0.00149 0.0
C477 C 0.0539 0.0844 0.98777 0.0
C478 C 0.96562 0.98762 0.93993 0.0
C479 C 0.04327 0.04012 0.03236 0.0
H480 H 0.87631 0.94181 0.0357 0.0
H481 H 0.0092 0.86376 0.01604 0.0
H482 H 0.92341 0.04729 0.02217 0.0
H483 H 0.89831 0.03137 0.98882 0.0
H484 H 0.86455 0.01616 0.02027 0.0
H485 H 0.07448 0.89215 0.98705 0.0
H486 H 0.06315 0.94254 0.96682 0.0
H487 H 0.08933 0.9471 0.00128 0.0
H488 H 0.01215 0.06283 0.92165 0.0
H489 H 0.07646 0.10885 -0.00071 0.0
H490 H 0.92697 0.98414 0.94898 0.0
H491 H 0.98359 0.9537 0.94049 0.0
H492 H 0.9619 0.99825 0.91774 0.0
H493 H 0.00667 0.03834 0.04383 0.0
H494 H 0.06647 0.06801 0.04134 0.0
H495 H 0.06337 0.00764 0.0359 0.0
C496 C 0.91195 0.0455 0.50734 0.0
C497 C 0.8955 0.04843 0.5351 0.0
C498 C 0.93282 0.00498 0.49706 0.0
C499 C 0.9376 0.96715 0.51514 0.0
C500 C 0.91567 0.96867 0.5421 0.0
C501 C 0.89464 0.00928 0.55168 0.0
C502 C 0.95338 0.00377 0.4676 0.0
C503 C 0.91712 0.92912 0.56202 0.0
C504 C 0.98598 0.85714 0.48398 0.0
C505 C 0.03863 0.86384 0.48574 0.0
C506 C 0.95213 0.88984 0.4943 0.0
C507 C 0.97173 0.92922 0.50724 0.0
C508 C 0.02483 0.93361 0.51159 0.0
C509 C 0.05778 0.90126 0.5002 0.0
C510 C 0.89576 0.88355 0.49002 0.0
C511 C 0.04701 0.97382 0.52683 0.0
H512 H 0.91238 0.07562 0.49443 0.0
H513 H 0.88077 0.0112 0.57305 0.0
H514 H 0.99553 0.00526 0.46821 0.0
H515 H 0.94248 0.97169 0.45706 0.0
H516 H 0.93938 0.03264 0.4549 0.0
H517 H 0.87758 0.91968 0.56761 0.0
H518 H 0.93629 0.89872 0.55351 0.0
H519 H 0.93673 0.93935 0.58162 0.0
H520 H 0.97139 0.82845 0.47228 0.0
H521 H 0.09857 0.90661 0.50107 0.0
H522 H 0.87951 0.91331 0.47907 0.0
H523 H 0.87664 0.88089 0.51065 0.0
H524 H 0.88705 0.85275 0.47762 0.0
H525 H 0.04177 0.00477 0.51406 0.0
H526 H 0.08826 0.96959 0.53113 0.0
H527 H 0.02691 0.97912 0.547 0.0
C528 C 0.41147 0.5607 0.97299 0.0
C529 C 0.43876 0.60133 0.97128 0.0
C530 C 0.43213 0.52282 0.98629 0.0
C531 C 0.48157 0.52558 -0.00217 0.0
C532 C 0.50845 0.56717 -0.00272 0.0
C533 C 0.48654 0.60477 0.98403 0.0
C534 C 0.40166 0.47949 0.98721 0.0
C535 C 0.5613 0.57142 0.00936 0.0
C536 C 0.51893 0.4398 0.05247 0.0
C537 C 0.54744 0.40862 0.03683 0.0
C538 C 0.49714 0.47775 0.03997 0.0
C539 C 0.50445 0.48509 0.01108 0.0
C540 C 0.53256 0.45343 0.99496 0.0
C541 C 0.5534 0.41503 0.00803 0.0
C542 C 0.46669 0.5102 0.05777 0.0
C543 C 0.54131 0.46061 0.96408 0.0
H544 H 0.37456 0.55811 0.96295 0.0
H545 H 0.50809 0.63591 0.98214 0.0
H546 H 0.42169 0.45264 0.97532 0.0
H547 H 0.398 0.46757 0.00912 0.0
H548 H 0.36294 0.48362 0.97824 0.0
H549 H 0.57373 0.60725 0.01088 0.0
H550 H 0.5633 0.55606 0.03049 0.0
H551 H 0.58848 0.55294 0.99576 0.0
H552 H 0.51365 0.43448 0.07474 0.0
H553 H 0.57556 0.39096 0.99603 0.0
H554 H 0.42772 0.51381 0.04914 0.0
H555 H 0.48459 0.54418 0.05739 0.0
H556 H 0.46378 0.49895 0.07988 0.0
H557 H 0.50433 0.46258 0.95296 0.0
H558 H 0.5643 0.4331 0.95457 0.0
H559 H 0.56118 0.49328 0.96073 0.0
C560 C 0.57519 0.22875 0.19653 0.0
C561 C 0.60153 0.26887 0.19099 0.0
C562 C 0.54951 0.22276 0.22202 0.0
C563 C 0.54926 0.25833 0.2419 0.0
C564 C 0.57868 0.29773 0.23699 0.0
C565 C 0.60461 0.30245 0.21152 0.0
C566 C 0.51963 0.17985 0.22671 0.0
C567 C 0.57926 0.33658 0.25754 0.0
C568 C 0.43293 0.27968 0.28684 0.0
C569 C 0.45109 0.26851 0.31352 0.0
C570 C 0.4639 0.27468 0.26313 0.0
C571 C 0.51377 0.25716 0.26613 0.0
C572 C 0.53085 0.24266 0.29272 0.0
C573 C 0.49951 0.24901 0.31617 0.0
C574 C 0.44435 0.29088 0.23515 0.0
C575 C 0.5831 0.22256 0.29663 0.0
H576 H 0.5722 0.20321 0.18028 0.0
H577 H 0.62417 0.33384 0.20681 0.0
H578 H 0.52461 0.16758 0.24847 0.0
H579 H 0.47856 0.18671 0.22356 0.0
H580 H 0.53118 0.15264 0.21197 0.0
H581 H 0.60742 0.36297 0.25174 0.0
H582 H 0.541 0.35236 0.25832 0.0
H583 H 0.58822 0.3243 0.2789 0.0
H584 H 0.39566 0.29493 0.28468 0.0
H585 H 0.51352 0.23988 0.33675 0.0
H586 H 0.44838 0.26389 0.21917 0.0
H587 H 0.46732 0.3202 0.22805 0.0
H588 H 0.40381 0.30129 0.23606 0.0
H589 H 0.59071 0.1966 0.28037 0.0
H590 H 0.58768 0.20689 0.3176 0.0
H591 H 0.61226 0.24942 0.2943 0.0
C592 C 0.08957 0.26398 0.79131 0.0
C593 C 0.09836 0.22008 0.80108 0.0
C594 C 0.06526 0.27104 0.76541 0.0
C595 C 0.04963 0.23323 0.74924 0.0
C596 C 0.06146 0.18896 0.75845 0.0
C597 C 0.08535 0.18299 0.78437 0.0
C598 C 0.05348 0.3187 0.75627 0.0
C599 C 0.04611 0.14768 0.74178 0.0
C600 C 0.93408 0.23115 0.70192 0.0
C601 C 0.95678 0.22825 0.67543 0.0
C602 C 0.96383 0.23634 0.72615 0.0
C603 C 0.01749 0.23887 0.72382 0.0
C604 C 0.04021 0.23981 0.69702 0.0
C605 C 0.00963 0.23444 0.67316 0.0
C606 C 0.93804 0.23563 0.75437 0.0
C607 C 0.09715 0.24306 0.69359 0.0
H608 H 0.09887 0.29256 0.80462 0.0
H609 H 0.09176 0.14908 0.79225 0.0
H610 H 0.06231 0.32334 0.73376 0.0
H611 H 0.01227 0.3253 0.75905 0.0
H612 H 0.07507 0.34413 0.76864 0.0
H613 H 0.06142 0.11594 0.75089 0.0
H614 H 0.00403 0.14514 0.74107 0.0
H615 H 0.05976 0.15056 0.71989 0.0
H616 H 0.89332 0.22682 0.70393 0.0
H617 H 0.02757 0.23304 0.65276 0.0
H618 H 0.95293 0.26314 0.7679 0.0
H619 H 0.94635 0.20309 0.76497 0.0
H620 H 0.89613 0.23932 0.75259 0.0
H621 H 0.11317 0.2694 0.70762 0.0
H622 H 0.10812 0.25095 0.67168 0.0
H623 H 0.11476 0.21034 0.69948 0.0
C624 C 0.45501 0.74787 0.80397 0.0
C625 C 0.4166 0.71538 0.8067 0.0
C626 C 0.48476 0.75001 0.77972 0.0
C627 C 0.47632 0.71822 0.75807 0.0
C628 C 0.43557 0.68694 0.76014 0.0
C629 C 0.40596 0.68598 0.78455 0.0
C630 C 0.52713 0.78439 0.77805 0.0
C631 C 0.42538 0.6526 0.73739 0.0
C632 C 0.52908 0.73352 0.68525 0.0
C633 C 0.57057 0.70376 0.68548 0.0
C634 C 0.49952 0.74032 0.70918 0.0
C635 C 0.51136 0.71618 0.7338 0.0
C636 C 0.55495 0.6879 0.73461 0.0
C637 C 0.58446 0.68224 0.71033 0.0
C638 C 0.4541 0.77146 0.70763 0.0
C639 C 0.56867 0.66168 0.76062 0.0
H640 H 0.46359 0.76996 0.82151 0.0
H641 H 0.37702 0.66018 0.78716 0.0
H642 H 0.56435 0.76695 0.77964 0.0
H643 H 0.52627 0.80212 0.75761 0.0
H644 H 0.52474 0.80995 0.79508 0.0
H645 H 0.39054 0.63242 0.74151 0.0
H646 H 0.42116 0.66968 0.71687 0.0
H647 H 0.45818 0.62917 0.7357 0.0
H648 H 0.51864 0.7503 0.6659 0.0
H649 H 0.61629 0.65896 0.71031 0.0
H650 H 0.45409 0.79527 0.72561 0.0
H651 H 0.41859 0.75128 0.70887 0.0
H652 H 0.45339 0.79131 0.68791 0.0
H653 H 0.57118 0.68472 0.77891 0.0
H654 H 0.60539 0.64348 0.75839 0.0
H655 H 0.53837 0.63659 0.76515 0.0
C656 C 0.90673 0.81494 0.21381 0.0
C657 C 0.91696 0.78483 0.19199 0.0
C658 C 0.93588 0.81401 0.23842 0.0
C659 C 0.97577 0.78203 0.24105 0.0
C660 C 0.98393 0.74973 0.21966 0.0
C661 C 0.95466 0.75186 0.1952 0.0
C662 C 0.92604 0.84895 0.26085 0.0
C663 C 0.02537 0.71461 0.22192 0.0
C664 C 0.08337 0.8157 0.29003 0.0
C665 C 0.06799 0.79457 0.31475 0.0
C666 C 0.05447 0.81074 0.26543 0.0
C667 C 0.00994 0.78354 0.26577 0.0
C668 C -0.00355 0.75983 0.29029 0.0
C669 C 0.02545 0.76593 0.31454 0.0
C670 C 0.06992 0.83651 0.23956 0.0
C671 C 0.94998 0.72981 0.29135 0.0
H672 H 0.87838 0.84112 0.21083 0.0
H673 H 0.96301 0.72925 0.17789 0.0
H674 H 0.92048 0.83228 0.2814 0.0
H675 H 0.95956 0.87156 0.26283 0.0
H676 H 0.89206 0.86994 0.25619 0.0
H677 H 0.02312 0.68909 0.20487 0.0
H678 H 0.06307 0.73137 0.2209 0.0
H679 H 0.02313 0.69691 0.24234 0.0
H680 H 0.11603 0.8381 0.29037 0.0
H681 H 0.01386 0.74937 0.33375 0.0
H682 H 0.04057 0.86224 0.23461 0.0
H683 H 0.07241 0.81333 0.22134 0.0
H684 H 0.1071 0.85389 0.2422 0.0
H685 H 0.9152 0.75079 0.28945 0.0
H686 H 0.94772 0.71032 0.31117 0.0
H687 H 0.95004 0.70571 0.27353 0.0
C688 C 0.55262 0.27571 0.45645 0.0
C689 C 0.50131 0.26414 0.46004 0.0
C690 C 0.58978 0.26093 0.47558 0.0
C691 C 0.57516 0.23426 0.49887 0.0
C692 C 0.52372 0.22172 0.50226 0.0
C693 C 0.48762 0.23647 0.48277 0.0
C694 C 0.64456 0.27441 0.47114 0.0
C695 C 0.50656 0.19348 0.52684 0.0
C696 C 0.67649 0.16399 0.53478 0.0
C697 C 0.69061 0.19198 0.55724 0.0
C698 C 0.63848 0.17705 0.51589 0.0
C699 C 0.61362 0.21901 0.51965 0.0
C700 C 0.62567 0.24634 0.54315 0.0
C701 C 0.66405 0.23245 0.56172 0.0
C702 C 0.62667 0.1469 0.49116 0.0
C703 C 0.59965 0.29117 0.54798 0.0
H704 H 0.56365 0.29708 0.43908 0.0
H705 H 0.4482 0.22702 0.48584 0.0
H706 H 0.65794 0.29518 0.48905 0.0
H707 H 0.66893 0.24383 0.47026 0.0
H708 H 0.64997 0.29404 0.45156 0.0
H709 H 0.46508 0.18637 0.52634 0.0
H710 H 0.52727 0.16083 0.52712 0.0
H711 H 0.51566 0.21129 0.54669 0.0
H712 H 0.69691 0.13267 0.5312 0.0
H713 H 0.67519 0.25458 0.57878 0.0
H714 H 0.63644 0.1647 0.47145 0.0
H715 H 0.58541 0.13917 0.49038 0.0
H716 H 0.64804 0.11453 0.49186 0.0
H717 H 0.60939 0.31482 0.5308 0.0
H718 H 0.61099 0.30695 0.56817 0.0
H719 H 0.55775 0.28672 0.54779 0.0
C720 C 0.93409 0.27676 0.92683 0.0
C721 C 0.94787 0.23248 0.91945 0.0
C722 C 0.89343 0.28499 0.94504 0.0
C723 C 0.86557 0.24804 0.95587 0.0
C724 C 0.87608 0.20362 0.94633 0.0
C725 C 0.91722 0.19633 0.92815 0.0
C726 C 0.88319 0.3329 0.95449 0.0
C727 C 0.84653 0.16343 0.95703 0.0
C728 C 0.80862 0.26145 0.02853 0.0
C729 C 0.75769 0.27102 0.02226 0.0
C730 C 0.84417 0.25397 0.00707 0.0
C731 C 0.82824 0.25568 0.97871 0.0
C732 C 0.77708 0.26556 0.97224 0.0
C733 C 0.74257 0.27339 0.99402 0.0
C734 C 0.89875 0.24404 0.01471 0.0
C735 C 0.7586 0.26728 0.94231 0.0
H736 H 0.95753 0.30484 0.92001 0.0
H737 H 0.92784 0.162 0.9227 0.0
H738 H 0.84205 0.34076 0.95305 0.0
H739 H 0.89447 0.33668 0.97676 0.0
H740 H 0.9046 0.3581 0.94193 0.0
H741 H 0.8547 0.13226 0.94482 0.0
H742 H 0.85672 0.15717 0.97922 0.0
H743 H 0.80506 0.17019 0.95623 0.0
H744 H 0.82067 0.25946 0.05019 0.0
H745 H 0.70328 0.28047 0.98879 0.0
H746 H 0.92424 0.26944 0.00495 0.0
H747 H 0.90987 0.21039 0.00644 0.0
H748 H 0.90512 0.24439 0.0377 0.0
H749 H 0.78021 0.29315 0.93045 0.0
H750 H 0.71743 0.27533 0.94081 0.0
H751 H 0.76545 0.23425 0.93193 0.0
C752 C 0.9904 0.2621 0.50947 0.0
C753 C 0.00286 0.23075 0.53052 0.0
C754 C 0.02676 0.27745 0.49036 0.0
C755 C 0.07728 0.26172 0.49244 0.0
C756 C 0.09076 0.23111 0.51402 0.0
C757 C 0.05331 0.21584 0.5328 0.0
C758 C 0.01079 0.30989 0.46758 0.0
C759 C 0.14459 0.21408 0.51701 0.0
C760 C 0.16273 0.26879 0.42845 0.0
C761 C 0.19154 0.30756 0.43448 0.0
C762 C 0.12499 0.25367 0.44701 0.0
C763 C 0.11595 0.2779 0.47212 0.0
C764 C 0.14336 0.31808 0.4777 0.0
C765 C 0.18055 0.33256 0.45874 0.0
C766 C 0.09608 0.21088 0.4402 0.0
C767 C 0.13482 0.34487 0.50424 0.0
H768 H 0.95167 0.27417 0.50745 0.0
H769 H 0.06335 0.1916 0.54887 0.0
H770 H 0.0335 0.34144 0.46891 0.0
H771 H 0.01826 0.29464 0.44675 0.0
H772 H 0.96984 0.31886 0.46884 0.0
H773 H 0.14924 0.19141 0.53534 0.0
H774 H 0.15585 0.19532 0.49786 0.0
H775 H 0.17116 0.24304 0.51926 0.0
H776 H 0.1713 0.24897 0.40995 0.0
H777 H 0.20263 0.36257 0.46356 0.0
H778 H 0.05453 0.21714 0.4413 0.0
H779 H 0.10518 0.18447 0.45589 0.0
H780 H 0.10546 0.19755 0.41908 0.0
H781 H 0.09434 0.35496 0.50593 0.0
H782 H 0.15875 0.37581 0.50521 0.0
H783 H 0.14365 0.32351 0.52269 0.0
C784 C 0.41938 0.3005 0.06411 0.0
C785 C 0.44984 0.26401 0.07245 0.0
C786 C 0.37836 0.29391 0.04567 0.0
C787 C 0.36773 0.24987 0.03548 0.0
C788 C 0.39568 0.21254 0.04573 0.0
C789 C 0.43623 0.22007 0.06419 0.0
C790 C 0.34883 0.33449 0.03556 0.0
C791 C 0.38531 0.16501 0.03558 0.0
C792 C 0.24341 0.22526 -0.00178 0.0
C793 C 0.25754 0.22818 0.96987 0.0
C794 C 0.27865 0.23277 0.01974 0.0
C795 C 0.32959 0.24294 0.01288 0.0
C796 C 0.34448 0.24538 0.9844 0.0
C797 C 0.30821 0.23816 0.9632 0.0
C798 C 0.26124 0.23021 0.04982 0.0
C799 C 0.39876 0.25569 0.97633 0.0
H800 H 0.4299 0.33459 0.07019 0.0
H801 H 0.45955 0.19172 0.07067 0.0
H802 H 0.35833 0.34117 0.01332 0.0
H803 H 0.30735 0.32788 0.03666 0.0
H804 H 0.35761 0.36537 0.04794 0.0
H805 H 0.4074 0.13937 0.04743 0.0
H806 H 0.34428 0.15686 0.03741 0.0
H807 H 0.39556 0.16227 0.01311 0.0
H808 H 0.20434 0.21785 0.00378 0.0
H809 H 0.31952 0.2406 0.94145 0.0
H810 H 0.26884 0.26284 0.06055 0.0
H811 H 0.28298 0.20379 0.06112 0.0
H812 H 0.22004 0.22241 0.05163 0.0
H813 H 0.41022 0.28903 0.98496 0.0
H814 H 0.40426 0.25621 0.95328 0.0
H815 H 0.4246 0.22998 0.98545 0.0
C816 C 0.46669 0.80586 0.55307 0.0
C817 C 0.46698 0.76255 0.56514 0.0
C818 C 0.42781 0.81893 0.53467 0.0
C819 C 0.38862 0.78789 0.52819 0.0
C820 C 0.38632 0.74576 0.54216 0.0
C821 C 0.4253 0.73379 0.56068 0.0
C822 C 0.43058 0.86475 0.52088 0.0
C823 C 0.34411 0.71225 0.53647 0.0
C824 C 0.26578 0.81535 0.49125 0.0
C825 C 0.27524 0.79805 0.46437 0.0
C826 C 0.30371 0.81559 0.51179 0.0
C827 C 0.35196 0.79743 0.50537 0.0
C828 C 0.36288 0.78298 0.47769 0.0
C829 C 0.32432 0.78382 0.45735 0.0
C830 C 0.29108 0.83268 0.54076 0.0
C831 C 0.41436 0.76407 0.47003 0.0
H832 H 0.49838 0.82863 0.55661 0.0
H833 H 0.42467 0.70056 0.57022 0.0
H834 H 0.44464 0.86078 0.49914 0.0
H835 H 0.39243 0.88065 0.51977 0.0
H836 H 0.45679 0.88794 0.53219 0.0
H837 H 0.35041 0.67939 0.54717 0.0
H838 H 0.30741 0.72643 0.54375 0.0
H839 H 0.34043 0.70589 0.51367 0.0
H840 H 0.22799 0.82727 0.49655 0.0
H841 H 0.3317 0.7707 0.43655 0.0
H842 H 0.32278 0.85323 0.54937 0.0
H843 H 0.28531 0.80353 0.55498 0.0
H844 H 0.25587 0.85342 0.54086 0.0
H845 H 0.44417 0.78987 0.47391 0.0
H846 H 0.41638 0.7534 0.44775 0.0
H847 H 0.42332 0.73453 0.48343 0.0
C848 C 0.07182 0.72925 0.0649 0.0
C849 C 0.05583 0.77276 0.07263 0.0
C850 C 0.11147 0.72311 0.04576 0.0
C851 C 0.13599 0.76142 0.03433 0.0
C852 C 0.12271 0.80531 0.04362 0.0
C853 C 0.08284 0.81048 0.06282 0.0
C854 C 0.1249 0.67575 0.03646 0.0
C855 C 0.14904 0.84686 0.03234 0.0
C856 C 0.26156 0.74227 -0.00208 0.0
C857 C 0.2472 0.74192 0.96953 0.0
C858 C 0.22588 0.74913 0.01916 0.0
C859 C 0.17436 0.75546 0.01196 0.0
C860 C 0.15928 0.75508 0.98346 0.0
C861 C 0.19598 0.74839 0.96251 0.0
C862 C 0.24336 0.74955 0.04931 0.0
C863 C 0.10439 0.76178 0.97516 0.0
H864 H 0.05133 0.69994 0.07256 0.0
H865 H 0.07075 0.84424 0.06865 0.0
H866 H 0.115 0.67142 0.01403 0.0
H867 H 0.16639 0.66992 0.03851 0.0
H868 H 0.10451 0.64952 0.04873 0.0
H869 H 0.13243 0.87869 0.04067 0.0
H870 H 0.18999 0.84585 0.0379 0.0
H871 H 0.14659 0.84749 0.00917 0.0
H872 H 0.30103 0.73749 0.00374 0.0
H873 H 0.18456 0.74833 0.94071 0.0
H874 H 0.22414 0.72216 0.06111 0.0
H875 H 0.23271 0.782 0.05938 0.0
H876 H 0.28513 0.74498 0.05132 0.0
H877 H 0.08044 0.73513 0.98482 0.0
H878 H 0.09891 0.7607 0.95211 0.0
H879 H 0.09054 0.79484 0.98309 0.0
C880 C 0.92179 0.75334 0.43462 0.0
C881 C 0.96684 0.72804 0.43386 0.0
C882 C 0.88263 0.74215 0.45322 0.0
C883 C 0.88879 0.70478 0.47137 0.0
C884 C 0.93168 0.67638 0.46864 0.0
C885 C 0.97018 0.68821 0.44975 0.0
C886 C 0.83608 0.77197 0.45469 0.0
C887 C 0.93889 0.63563 0.48721 0.0
C888 C 0.82427 0.72135 0.54144 0.0
C889 C 0.778 0.6993 0.53681 0.0
C890 C 0.86186 0.7217 0.52061 0.0
C891 C 0.85299 0.6986 0.495 0.0
C892 C 0.80785 0.67341 0.49122 0.0
C893 C 0.77059 0.67449 0.51209 0.0
C894 C 0.90944 0.7494 0.52522 0.0
C895 C 0.7974 0.64757 0.46453 0.0
H896 H 0.91849 0.78367 0.42204 0.0
H897 H 0.00458 0.66806 0.44915 0.0
H898 H 0.80163 0.75171 0.44993 0.0
H899 H 0.83145 0.78568 0.47617 0.0
H900 H 0.83796 0.80067 0.43975 0.0
H901 H 0.96977 0.61322 0.47953 0.0
H902 H 0.94877 0.64705 0.50868 0.0
H903 H 0.90322 0.61572 0.48866 0.0
H904 H 0.82969 0.74076 0.56048 0.0
H905 H 0.73477 0.65708 0.50869 0.0
H906 H 0.90954 0.77864 0.51068 0.0
H907 H 0.94372 0.72889 0.52058 0.0
H908 H 0.9123 0.76243 0.54699 0.0
H909 H 0.78601 0.67158 0.44787 0.0
H910 H 0.76624 0.62256 0.46724 0.0
H911 H 0.83193 0.62959 0.45721 0.0
C912 C 0.69646 0.75073 0.03592 0.0
C913 C 0.7476 0.75739 0.02882 0.0
C914 C 0.65959 0.74392 0.01503 0.0
C915 C 0.67441 0.74359 0.98651 0.0
C916 C 0.72586 0.75007 0.97923 0.0
C917 C 0.76171 0.75706 0.00041 0.0
C918 C 0.60478 0.73709 0.02343 0.0
C919 C 0.74308 0.7497 0.94906 0.0
C920 C 0.58241 0.68856 0.93574 0.0
C921 C 0.55539 0.72627 0.92597 0.0
C922 C 0.62244 0.69374 0.9549 0.0
C923 C 0.63583 0.73762 0.9642 0.0
C924 C 0.61122 0.77593 0.95284 0.0
C925 C 0.57145 0.76979 0.93373 0.0
C926 C 0.64887 0.6522 0.96609 0.0
C927 C 0.62475 0.82329 0.96216 0.0
H928 H 0.68522 0.75079 0.05774 0.0
H929 H 0.80113 0.76195 0.99454 0.0
H930 H 0.58073 0.76374 0.01385 0.0
H931 H 0.59085 0.70403 0.01548 0.0
H932 H 0.59952 0.73807 0.04649 0.0
H933 H 0.78484 0.75428 0.94698 0.0
H934 H 0.73227 0.71727 0.93897 0.0
H935 H 0.72381 0.77711 0.93731 0.0
H936 H 0.57027 0.6548 0.92989 0.0
H937 H 0.55096 0.7991 0.9261 0.0
H938 H 0.68977 0.65329 0.96048 0.0
H939 H 0.6322 0.62037 0.95775 0.0
H940 H 0.64662 0.6515 0.98927 0.0
H941 H 0.61512 0.82752 0.98463 0.0
H942 H 0.6042 0.84952 0.94998 0.0
H943 H 0.66621 0.8292 0.96001 0.0
loop_
_geom_bond_atom_site_label_1
_geom_bond_atom_site_label_2
_geom_bond_distance
_geom_bond_site_symmetry_2
_ccdc_geom_bond_type
Sc0 O3 2.025 . S
Sc0 O10 2.105 . S
Sc0 O13 2.105 . S
Sc0 O16 2.105 . S
Sc0 O19 2.105 . S
Sc1 O3 2.025 . S
Sc1 O11 2.105 . S
Sc1 O15 2.105 . S
Sc1 O17 2.105 . S
Sc1 O21 2.105 . S
Sc2 O3 2.025 . S
Sc2 O12 2.105 . S
Sc2 O14 2.105 . S
Sc2 O18 2.105 . S
Sc2 O20 2.105 . S
O3 Sc0 2.025 . S
O3 Sc1 2.025 . S
O3 Sc2 2.025 . S
C4 O10 1.268 . S
C4 O20 1.268 . S
C5 O11 1.268 . S
C5 O19 1.268 . S
C6 O12 1.268 . S
C6 O21 1.268 . S
C7 O13 1.268 . S
C7 O17 1.268 . S
C8 O14 1.268 . S
C8 O16 1.268 . S
C9 O15 1.268 . S
C9 O18 1.268 . S
O10 Sc0 2.105 . S
O10 C4 1.268 . S
O11 Sc1 2.105 . S
O11 C5 1.268 . S
O12 Sc2 2.105 . S
O12 C6 1.268 . S
O13 Sc0 2.105 . S
O13 C7 1.268 . S
O14 Sc2 2.105 . S
O14 C8 1.268 . S
O15 Sc1 2.105 . S
O15 C9 1.268 . S
O16 Sc0 2.105 . S
O16 C8 1.268 . S
O17 Sc1 2.105 . S
O17 C7 1.268 . S
O18 Sc2 2.105 . S
O18 C9 1.268 . S
O19 Sc0 2.105 . S
O19 C5 1.268 . S
O20 Sc2 2.105 . S
O20 C4 1.268 . S
O21 Sc1 2.105 . S
O21 C6 1.268 . S
Sc22 O25 2.025 . S
Sc22 O32 2.105 . S
Sc22 O35 2.105 . S
Sc22 O38 2.105 . S
Sc22 O41 2.105 . S
Sc23 O25 2.025 . S
Sc23 O33 2.105 . S
Sc23 O37 2.105 . S
Sc23 O39 2.105 . S
Sc23 O43 2.105 . S
Sc24 O25 2.025 . S
Sc24 O34 2.121 . S
Sc24 O36 2.105 . S
Sc24 O40 2.105 . S
Sc24 O42 2.105 . S
O25 Sc22 2.025 . S
O25 Sc23 2.025 . S
O25 Sc24 2.025 . S
C26 O32 1.268 . S
C26 O42 1.268 . S
C27 O33 1.268 . S
C27 O41 1.268 . S
C28 O34 1.267 1_655 S
C28 O43 1.268 1_655 S
C29 O35 1.268 . S
C29 O39 1.268 . S
C30 O36 1.268 . S
C30 O38 1.268 . S
C31 O37 1.268 . S
C31 O40 1.268 . S
O32 Sc22 2.105 . S
O32 C26 1.268 . S
O33 Sc23 2.105 . S
O33 C27 1.268 . S
O34 Sc24 2.121 . S
O34 C28 1.267 1_455 S
O35 Sc22 2.105 . S
O35 C29 1.268 . S
O36 Sc24 2.105 . S
O36 C30 1.268 . S
O37 Sc23 2.105 . S
O37 C31 1.268 . S
O38 Sc22 2.105 . S
O38 C30 1.268 . S
O39 Sc23 2.105 . S
O39 C29 1.268 . S
O40 Sc24 2.105 . S
O40 C31 1.268 . S
O41 Sc22 2.105 . S
O41 C27 1.268 . S
O42 Sc24 2.105 . S
O42 C26 1.268 . S
O43 Sc23 2.105 . S
O43 C28 1.268 1_455 S
Sc44 O47 2.025 . S
Sc44 O54 2.105 . S
Sc44 O57 2.105 . S
Sc44 O60 2.105 . S
Sc44 O63 2.105 . S
Sc45 O47 2.025 . S
Sc45 O55 2.105 . S
Sc45 O59 2.105 . S
Sc45 O61 2.105 . S
Sc45 O65 2.105 . S
Sc46 O47 2.025 . S
Sc46 O56 2.121 . S
Sc46 O58 2.105 . S
Sc46 O62 2.105 . S
Sc46 O64 2.105 . S
O47 Sc44 2.025 . S
O47 Sc45 2.025 . S
O47 Sc46 2.025 . S
C48 O54 1.268 . S
C48 O64 1.268 . S
C49 O55 1.268 . S
C49 O63 1.268 . S
C50 O56 1.267 1_455 S
C50 O65 1.268 1_455 S
C51 O57 1.268 . S
C51 O61 1.268 . S
C52 O58 1.268 . S
C52 O60 1.268 . S
C53 O59 1.268 . S
C53 O62 1.268 . S
O54 Sc44 2.105 . S
O54 C48 1.268 . S
O55 Sc45 2.105 . S
O55 C49 1.268 . S
O56 Sc46 2.121 . S
O56 C50 1.267 1_655 S
O57 Sc44 2.105 . S
O57 C51 1.268 . S
O58 Sc46 2.105 . S
O58 C52 1.268 . S
O59 Sc45 2.105 . S
O59 C53 1.268 . S
O60 Sc44 2.105 . S
O60 C52 1.268 . S
O61 Sc45 2.105 . S
O61 C51 1.268 . S
O62 Sc46 2.105 . S
O62 C53 1.268 . S
O63 Sc44 2.105 . S
O63 C49 1.268 . S
O64 Sc46 2.105 . S
O64 C48 1.268 . S
O65 Sc45 2.105 . S
O65 C50 1.268 1_655 S
Sc66 O69 2.025 . S
Sc66 O76 2.105 . S
Sc66 O79 2.105 . S
Sc66 O82 2.105 . S
Sc66 O85 2.105 . S
Sc67 O69 2.025 . S
Sc67 O77 2.105 . S
Sc67 O81 2.105 . S
Sc67 O83 2.105 . S
Sc67 O87 2.105 . S
Sc68 O69 2.025 . S
Sc68 O78 2.105 . S
Sc68 O80 2.105 . S
Sc68 O84 2.105 . S
Sc68 O86 2.105 . S
O69 Sc66 2.025 . S
O69 Sc67 2.025 . S
O69 Sc68 2.025 . S
C70 O76 1.268 . S
C70 O86 1.268 . S
C71 O77 1.268 . S
C71 O85 1.268 . S
C72 O78 1.268 . S
C72 O87 1.268 . S
C73 O79 1.268 . S
C73 O83 1.268 . S
C74 O80 1.268 . S
C74 O82 1.268 . S
C75 O81 1.268 . S
C75 O84 1.268 . S
O76 Sc66 2.105 . S
O76 C70 1.268 . S
O77 Sc67 2.105 . S
O77 C71 1.268 . S
O78 Sc68 2.105 . S
O78 C72 1.268 . S
O79 Sc66 2.105 . S
O79 C73 1.268 . S
O80 Sc68 2.105 . S
O80 C74 1.268 . S
O81 Sc67 2.105 . S
O81 C75 1.268 . S
O82 Sc66 2.105 . S
O82 C74 1.268 . S
O83 Sc67 2.105 . S
O83 C73 1.268 . S
O84 Sc68 2.105 . S
O84 C75 1.268 . S
O85 Sc66 2.105 . S
O85 C71 1.268 . S
O86 Sc68 2.105 . S
O86 C70 1.268 . S
O87 Sc67 2.105 . S
O87 C72 1.268 . S
Sc88 O91 2.025 . S
Sc88 O98 2.105 . S
Sc88 O101 2.105 . S
Sc88 O104 2.105 . S
Sc88 O107 2.105 . S
Sc89 O91 2.025 . S
Sc89 O99 2.105 . S
Sc89 O103 2.105 . S
Sc89 O105 2.105 . S
Sc89 O109 2.105 . S
Sc90 O91 2.025 . S
Sc90 O100 2.105 . S
Sc90 O102 2.105 . S
Sc90 O106 2.105 . S
Sc90 O108 2.105 . S
O91 Sc88 2.025 . S
O91 Sc89 2.025 . S
O91 Sc90 2.025 . S
C92 O98 1.268 . S
C92 O108 1.268 . S
C93 O99 1.268 . S
C93 O107 1.268 . S
C94 O100 1.268 . S
C94 O109 1.268 . S
C95 O101 1.268 . S
C95 O105 1.268 . S
C96 O102 1.268 . S
C96 O104 1.268 . S
C97 O103 1.268 . S
C97 O106 1.268 . S
O98 Sc88 2.105 . S
O98 C92 1.268 . S
O99 Sc89 2.105 . S
O99 C93 1.268 . S
O100 Sc90 2.105 . S
O100 C94 1.268 . S
O101 Sc88 2.105 . S
O101 C95 1.268 . S
O102 Sc90 2.105 . S
O102 C96 1.268 . S
O103 Sc89 2.105 . S
O103 C97 1.268 . S
O104 Sc88 2.105 . S
O104 C96 1.268 . S
O105 Sc89 2.105 . S
O105 C95 1.268 . S
O106 Sc90 2.105 . S
O106 C97 1.268 . S
O107 Sc88 2.105 . S
O107 C93 1.268 . S
O108 Sc90 2.105 . S
O108 C92 1.268 . S
O109 Sc89 2.105 . S
O109 C94 1.268 . S
Sc110 O113 2.025 . S
Sc110 O120 2.105 . S
Sc110 O123 2.105 . S
Sc110 O126 2.105 . S
Sc110 O129 2.105 . S
Sc111 O113 2.025 . S
Sc111 O121 2.105 . S
Sc111 O125 2.105 . S
Sc111 O127 2.105 . S
Sc111 O131 2.105 . S
Sc112 O113 2.025 . S
Sc112 O122 2.105 . S
Sc112 O124 2.105 . S
Sc112 O128 2.121 . S
Sc112 O130 2.105 . S
O113 Sc110 2.025 . S
O113 Sc111 2.025 . S
O113 Sc112 2.025 . S
C114 O120 1.268 . S
C114 O130 1.268 . S
C115 O121 1.268 . S
C115 O129 1.268 . S
C116 O122 1.268 . S
C116 O131 1.268 . S
C117 O123 1.268 . S
C117 O127 1.268 . S
C118 O124 1.268 . S
C118 O126 1.268 . S
C119 O125 1.268 1_455 S
C119 O128 1.267 1_455 S
O120 Sc110 2.105 . S
O120 C114 1.268 . S
O121 Sc111 2.105 . S
O121 C115 1.268 . S
O122 Sc112 2.105 . S
O122 C116 1.268 . S
O123 Sc110 2.105 . S
O123 C117 1.268 . S
O124 Sc112 2.105 . S
O124 C118 1.268 . S
O125 Sc111 2.105 . S
O125 C119 1.268 1_655 S
O126 Sc110 2.105 . S
O126 C118 1.268 . S
O127 Sc111 2.105 . S
O127 C117 1.268 . S
O128 Sc112 2.121 . S
O128 C119 1.267 1_655 S
O129 Sc110 2.105 . S
O129 C115 1.268 . S
O130 Sc112 2.105 . S
O130 C114 1.268 . S
O131 Sc111 2.105 . S
O131 C116 1.268 . S
Sc132 O135 2.025 . S
Sc132 O142 2.105 . S
Sc132 O145 2.105 . S
Sc132 O148 2.105 . S
Sc132 O151 2.121 . S
Sc133 O135 2.025 . S
Sc133 O143 2.105 . S
Sc133 O147 2.105 . S
Sc133 O149 2.105 . S
Sc133 O153 2.105 . S
Sc134 O135 2.025 . S
Sc134 O144 2.105 . S
Sc134 O146 2.105 . S
Sc134 O150 2.105 . S
Sc134 O152 2.105 . S
O135 Sc132 2.025 . S
O135 Sc133 2.025 . S
O135 Sc134 2.025 . S
C136 O142 1.268 . S
C136 O152 1.268 . S
C137 O143 1.268 1_655 S
C137 O151 1.267 1_655 S
C138 O144 1.268 . S
C138 O153 1.268 . S
C139 O145 1.268 . S
C139 O149 1.268 . S
C140 O146 1.268 . S
C140 O148 1.268 . S
C141 O147 1.268 . S
C141 O150 1.268 . S
O142 Sc132 2.105 . S
O142 C136 1.268 . S
O143 Sc133 2.105 . S
O143 C137 1.268 1_455 S
O144 Sc134 2.105 . S
O144 C138 1.268 . S
O145 Sc132 2.105 . S
O145 C139 1.268 . S
O146 Sc134 2.105 . S
O146 C140 1.268 . S
O147 Sc133 2.105 . S
O147 C141 1.268 . S
O148 Sc132 2.105 . S
O148 C140 1.268 . S
O149 Sc133 2.105 . S
O149 C139 1.268 . S
O150 Sc134 2.105 . S
O150 C141 1.268 . S
O151 Sc132 2.121 . S
O151 C137 1.267 1_455 S
O152 Sc134 2.105 . S
O152 C136 1.268 . S
O153 Sc133 2.105 . S
O153 C138 1.268 . S
Sc154 O157 2.025 . S
Sc154 O164 2.105 . S
Sc154 O167 2.105 . S
Sc154 O170 2.105 . S
Sc154 O173 2.105 . S
Sc155 O157 2.025 . S
Sc155 O165 2.105 . S
Sc155 O169 2.105 . S
Sc155 O171 2.105 . S
Sc155 O175 2.105 . S
Sc156 O157 2.025 . S
Sc156 O166 2.105 . S
Sc156 O168 2.105 . S
Sc156 O172 2.105 . S
Sc156 O174 2.105 . S
O157 Sc154 2.025 . S
O157 Sc155 2.025 . S
O157 Sc156 2.025 . S
C158 O164 1.268 . S
C158 O174 1.268 . S
C159 O165 1.268 . S
C159 O173 1.268 . S
C160 O166 1.268 . S
C160 O175 1.268 . S
C161 O167 1.268 . S
C161 O171 1.268 . S
C162 O168 1.268 . S
C162 O170 1.268 . S
C163 O169 1.268 . S
C163 O172 1.268 . S
O164 Sc154 2.105 . S
O164 C158 1.268 . S
O165 Sc155 2.105 . S
O165 C159 1.268 . S
O166 Sc156 2.105 . S
O166 C160 1.268 . S
O167 Sc154 2.105 . S
O167 C161 1.268 . S
O168 Sc156 2.105 . S
O168 C162 1.268 . S
O169 Sc155 2.105 . S
O169 C163 1.268 . S
O170 Sc154 2.105 . S
O170 C162 1.268 . S
O171 Sc155 2.105 . S
O171 C161 1.268 . S
O172 Sc156 2.105 . S
O172 C163 1.268 . S
O173 Sc154 2.105 . S
O173 C159 1.268 . S
O174 Sc156 2.105 . S
O174 C158 1.268 . S
O175 Sc155 2.105 . S
O175 C160 1.268 . S
C176 C177 1.391 . S
C176 C178 1.394 1_565 S
C176 H192 0.931 . S
C177 C176 1.391 . S
C177 C181 1.376 . S
C178 C176 1.394 1_545 S
C178 C179 1.369 . S
C178 C182 1.531 . S
C179 C178 1.369 . S
C179 C180 1.410 1_545 S
C179 C187 1.503 . S
C180 C179 1.410 1_565 S
C180 C181 1.392 . S
C180 C183 1.511 . S
C181 C177 1.376 . S
C181 C180 1.392 . S
C181 H193 0.929 . S
C182 C178 1.531 . S
C182 H194 0.960 . S
C182 H195 0.962 . S
C182 H196 0.960 . S
C183 C180 1.511 . S
C183 H197 0.961 . S
C183 H198 0.961 1_565 S
C183 H199 0.961 . S
C184 C185 1.370 . S
C184 C186 1.363 . S
C184 H200 0.931 . S
C185 C184 1.370 . S
C185 C189 1.408 . S
C186 C184 1.363 . S
C186 C187 1.370 . S
C186 C190 1.524 . S
C187 C179 1.503 . S
C187 C186 1.370 . S
C187 C188 1.403 . S
C188 C187 1.403 . S
C188 C189 1.404 . S
C188 C191 1.539 . S
C189 C185 1.408 . S
C189 C188 1.404 . S
C189 H201 0.930 . S
C190 C186 1.524 . S
C190 H202 0.956 . S
C190 H203 0.961 . S
C190 H204 0.961 . S
C191 C188 1.539 . S
C191 H205 0.958 . S
C191 H206 0.961 . S
C191 H207 0.960 . S
H192 C176 0.931 . S
H193 C181 0.929 . S
H194 C182 0.960 . S
H195 C182 0.962 . S
H196 C182 0.960 . S
H197 C183 0.961 . S
H198 C183 0.961 1_545 S
H199 C183 0.961 . S
H200 C184 0.931 . S
H201 C189 0.930 . S
H202 C190 0.956 . S
H203 C190 0.961 . S
H204 C190 0.961 . S
H205 C191 0.958 . S
H206 C191 0.961 . S
H207 C191 0.960 . S
C208 C209 1.391 . S
C208 C210 1.394 . S
C208 H224 0.931 . S
C209 C208 1.391 . S
C209 C213 1.376 . S
C210 C208 1.394 . S
C210 C211 1.369 . S
C210 C214 1.531 . S
C211 C210 1.369 . S
C211 C212 1.410 . S
C211 C219 1.503 . S
C212 C211 1.410 . S
C212 C213 1.392 . S
C212 C215 1.511 . S
C213 C209 1.376 . S
C213 C212 1.392 . S
C213 H225 0.929 . S
C214 C210 1.531 . S
C214 H226 0.960 . S
C214 H227 0.962 . S
C214 H228 0.960 . S
C215 C212 1.511 . S
C215 H229 0.961 . S
C215 H230 0.961 . S
C215 H231 0.961 . S
C216 C217 1.370 . S
C216 C218 1.363 . S
C216 H232 0.931 . S
C217 C216 1.370 . S
C217 C221 1.408 . S
C218 C216 1.363 . S
C218 C219 1.370 . S
C218 C222 1.524 . S
C219 C211 1.503 . S
C219 C218 1.370 . S
C219 C220 1.403 . S
C220 C219 1.403 . S
C220 C221 1.404 . S
C220 C223 1.539 . S
C221 C217 1.408 . S
C221 C220 1.404 . S
C221 H233 0.930 . S
C222 C218 1.524 . S
C222 H234 0.956 . S
C222 H235 0.961 . S
C222 H236 0.961 . S
C223 C220 1.539 . S
C223 H237 0.958 . S
C223 H238 0.961 . S
C223 H239 0.960 . S
H224 C208 0.931 . S
H225 C213 0.929 . S
H226 C214 0.960 . S
H227 C214 0.962 . S
H228 C214 0.960 . S
H229 C215 0.961 . S
H230 C215 0.961 . S
H231 C215 0.961 . S
H232 C216 0.931 . S
H233 C221 0.930 . S
H234 C222 0.956 . S
H235 C222 0.961 . S
H236 C222 0.961 . S
H237 C223 0.958 . S
H238 C223 0.961 . S
H239 C223 0.960 . S
C240 C241 1.391 . S
C240 C242 1.394 . S
C240 H256 0.931 . S
C241 C240 1.391 . S
C241 C245 1.376 . S
C242 C240 1.394 . S
C242 C243 1.369 . S
C242 C246 1.531 . S
C243 C242 1.369 . S
C243 C244 1.410 . S
C243 C251 1.503 . S
C244 C243 1.410 . S
C244 C245 1.392 . S
C244 C247 1.511 . S
C245 C241 1.376 . S
C245 C244 1.392 . S
C245 H257 0.929 . S
C246 C242 1.531 . S
C246 H258 0.960 . S
C246 H259 0.962 . S
C246 H260 0.960 . S
C247 C244 1.511 . S
C247 H261 0.961 . S
C247 H262 0.961 . S
C247 H263 0.961 . S
C248 C249 1.370 . S
C248 C250 1.363 . S
C248 H264 0.931 . S
C249 C248 1.370 . S
C249 C253 1.408 . S
C250 C248 1.363 . S
C250 C251 1.370 . S
C250 C254 1.524 . S
C251 C243 1.503 . S
C251 C250 1.370 . S
C251 C252 1.403 . S
C252 C251 1.403 . S
C252 C253 1.404 . S
C252 C255 1.539 . S
C253 C249 1.408 . S
C253 C252 1.404 . S
C253 H265 0.930 . S
C254 C250 1.524 . S
C254 H266 0.956 . S
C254 H267 0.961 . S
C254 H268 0.961 . S
C255 C252 1.539 . S
C255 H269 0.958 . S
C255 H270 0.961 . S
C255 H271 0.960 . S
H256 C240 0.931 . S
H257 C245 0.929 . S
H258 C246 0.960 . S
H259 C246 0.962 . S
H260 C246 0.960 . S
H261 C247 0.961 . S
H262 C247 0.961 . S
H263 C247 0.961 . S
H264 C248 0.931 . S
H265 C253 0.930 . S
H266 C254 0.956 . S
H267 C254 0.961 . S
H268 C254 0.961 . S
H269 C255 0.958 . S
H270 C255 0.961 . S
H271 C255 0.960 . S
C272 C273 1.391 . S
C272 C274 1.394 . S
C272 H288 0.931 . S
C273 C272 1.391 . S
C273 C277 1.376 . S
C274 C272 1.394 . S
C274 C275 1.369 . S
C274 C278 1.531 . S
C275 C274 1.369 . S
C275 C276 1.410 . S
C275 C283 1.503 . S
C276 C275 1.410 . S
C276 C277 1.392 . S
C276 C279 1.511 . S
C277 C273 1.376 . S
C277 C276 1.392 . S
C277 H289 0.929 . S
C278 C274 1.531 . S
C278 H290 0.960 . S
C278 H291 0.962 . S
C278 H292 0.960 . S
C279 C276 1.511 . S
C279 H293 0.961 . S
C279 H294 0.961 . S
C279 H295 0.961 . S
C280 C281 1.370 . S
C280 C282 1.363 1_565 S
C280 H296 0.931 . S
C281 C280 1.370 . S
C281 C285 1.408 . S
C282 C280 1.363 1_545 S
C282 C283 1.370 . S
C282 C286 1.524 . S
C283 C275 1.503 . S
C283 C282 1.370 . S
C283 C284 1.403 1_545 S
C284 C283 1.403 1_565 S
C284 C285 1.404 . S
C284 C287 1.539 1_565 S
C285 C281 1.408 . S
C285 C284 1.404 . S
C285 H297 0.930 . S
C286 C282 1.524 . S
C286 H298 0.956 . S
C286 H299 0.961 . S
C286 H300 0.961 . S
C287 C284 1.539 1_545 S
C287 H301 0.958 1_545 S
C287 H302 0.961 1_545 S
C287 H303 0.960 . S
H288 C272 0.931 . S
H289 C277 0.929 . S
H290 C278 0.960 . S
H291 C278 0.962 . S
H292 C278 0.960 . S
H293 C279 0.961 . S
H294 C279 0.961 . S
H295 C279 0.961 . S
H296 C280 0.931 . S
H297 C285 0.930 . S
H298 C286 0.956 . S
H299 C286 0.961 . S
H300 C286 0.961 . S
H301 C287 0.958 1_565 S
H302 C287 0.961 1_565 S
H303 C287 0.960 . S
C304 C305 1.391 . S
C304 C306 1.394 . S
C304 H320 0.931 . S
C305 C304 1.391 . S
C305 C309 1.376 . S
C306 C304 1.394 . S
C306 C307 1.369 1_545 S
C306 C310 1.530 1_545 S
C307 C306 1.369 1_565 S
C307 C308 1.410 . S
C307 C315 1.503 . S
C308 C307 1.410 . S
C308 C309 1.392 1_565 S
C308 C311 1.511 . S
C309 C305 1.376 . S
C309 C308 1.392 1_545 S
C309 H321 0.929 . S
C310 C306 1.530 1_565 S
C310 H322 0.977 . S
C310 H323 0.957 1_565 S
C310 H324 0.949 1_565 S
C311 C308 1.511 . S
C311 H325 0.961 . S
C311 H326 0.961 . S
C311 H327 0.961 . S
C312 C313 1.370 . S
C312 C314 1.363 . S
C312 H328 0.931 . S
C313 C312 1.370 . S
C313 C317 1.408 . S
C314 C312 1.363 . S
C314 C315 1.370 . S
C314 C318 1.524 . S
C315 C307 1.503 . S
C315 C314 1.370 . S
C315 C316 1.403 . S
C316 C315 1.403 . S
C316 C317 1.404 . S
C316 C319 1.539 . S
C317 C313 1.408 . S
C317 C316 1.404 . S
C317 H329 0.930 . S
C318 C314 1.524 . S
C318 H330 0.956 . S
C318 H331 0.961 . S
C318 H332 0.961 . S
C319 C316 1.539 . S
C319 H333 0.958 . S
C319 H334 0.961 . S
C319 H335 0.960 . S
H320 C304 0.931 . S
H321 C309 0.929 . S
H322 C310 0.977 . S
H323 C310 0.957 1_545 S
H324 C310 0.949 1_545 S
H325 C311 0.961 . S
H326 C311 0.961 . S
H327 C311 0.961 . S
H328 C312 0.931 . S
H329 C317 0.930 . S
H330 C318 0.956 . S
H331 C318 0.961 . S
H332 C318 0.961 . S
H333 C319 0.958 . S
H334 C319 0.961 . S
H335 C319 0.960 . S
C336 C337 1.391 . S
C336 C338 1.394 . S
C336 H352 0.931 . S
C337 C336 1.391 . S
C337 C341 1.376 . S
C338 C336 1.394 . S
C338 C339 1.369 . S
C338 C342 1.531 . S
C339 C338 1.369 . S
C339 C340 1.410 . S
C339 C347 1.503 . S
C340 C339 1.410 . S
C340 C341 1.392 . S
C340 C343 1.511 . S
C341 C337 1.376 . S
C341 C340 1.392 . S
C341 H353 0.929 . S
C342 C338 1.531 . S
C342 H354 0.960 . S
C342 H355 0.962 . S
C342 H356 0.960 . S
C343 C340 1.511 . S
C343 H357 0.961 . S
C343 H358 0.961 . S
C343 H359 0.961 . S
C344 C345 1.370 . S
C344 C346 1.363 . S
C344 H360 0.931 . S
C345 C344 1.370 . S
C345 C349 1.408 . S
C346 C344 1.363 . S
C346 C347 1.370 . S
C346 C350 1.524 . S
C347 C339 1.503 . S
C347 C346 1.370 . S
C347 C348 1.403 . S
C348 C347 1.403 . S
C348 C349 1.404 . S
C348 C351 1.539 . S
C349 C345 1.408 . S
C349 C348 1.404 . S
C349 H361 0.930 . S
C350 C346 1.524 . S
C350 H362 0.956 . S
C350 H363 0.961 . S
C350 H364 0.961 . S
C351 C348 1.539 . S
C351 H365 0.958 . S
C351 H366 0.961 . S
C351 H367 0.960 . S
H352 C336 0.931 . S
H353 C341 0.929 . S
H354 C342 0.960 . S
H355 C342 0.962 . S
H356 C342 0.960 . S
H357 C343 0.961 . S
H358 C343 0.961 . S
H359 C343 0.961 . S
H360 C344 0.931 . S
H361 C349 0.930 . S
H362 C350 0.956 . S
H363 C350 0.961 . S
H364 C350 0.961 . S
H365 C351 0.958 . S
H366 C351 0.961 . S
H367 C351 0.960 . S
C368 C369 1.391 . S
C368 C370 1.394 . S
C368 H384 0.931 . S
C369 C368 1.391 . S
C369 C373 1.376 . S
C370 C368 1.394 . S
C370 C371 1.369 . S
C370 C374 1.531 . S
C371 C370 1.369 . S
C371 C372 1.410 . S
C371 C379 1.503 . S
C372 C371 1.410 . S
C372 C373 1.392 . S
C372 C375 1.511 . S
C373 C369 1.376 . S
C373 C372 1.392 . S
C373 H385 0.929 . S
C374 C370 1.531 . S
C374 H386 0.960 . S
C374 H387 0.962 . S
C374 H388 0.960 . S
C375 C372 1.511 . S
C375 H389 0.961 . S
C375 H390 0.961 . S
C375 H391 0.961 . S
C376 C377 1.370 . S
C376 C378 1.363 . S
C376 H392 0.931 . S
C377 C376 1.370 . S
C377 C381 1.408 . S
C378 C376 1.363 . S
C378 C379 1.370 . S
C378 C382 1.524 . S
C379 C371 1.503 . S
C379 C378 1.370 . S
C379 C380 1.403 . S
C380 C379 1.403 . S
C380 C381 1.404 . S
C380 C383 1.539 . S
C381 C377 1.408 . S
C381 C380 1.404 . S
C381 H393 0.930 . S
C382 C378 1.524 . S
C382 H394 0.956 . S
C382 H395 0.961 . S
C382 H396 0.961 . S
C383 C380 1.539 . S
C383 H397 0.958 . S
C383 H398 0.961 . S
C383 H399 0.960 . S
H384 C368 0.931 . S
H385 C373 0.929 . S
H386 C374 0.960 . S
H387 C374 0.962 . S
H388 C374 0.960 . S
H389 C375 0.961 . S
H390 C375 0.961 . S
H391 C375 0.961 . S
H392 C376 0.931 . S
H393 C381 0.930 . S
H394 C382 0.956 . S
H395 C382 0.961 . S
H396 C382 0.961 . S
H397 C383 0.958 . S
H398 C383 0.961 . S
H399 C383 0.960 . S
C400 C401 1.391 . S
C400 C402 1.394 . S
C400 H416 0.931 . S
C401 C400 1.391 . S
C401 C405 1.376 . S
C402 C400 1.394 . S
C402 C403 1.369 1_545 S
C402 C406 1.531 . S
C403 C402 1.369 1_565 S
C403 C404 1.410 . S
C403 C411 1.503 . S
C404 C403 1.410 . S
C404 C405 1.392 1_565 S
C404 C407 1.511 . S
C405 C401 1.376 . S
C405 C404 1.392 1_545 S
C405 H417 0.929 . S
C406 C402 1.531 . S
C406 H418 0.960 1_545 S
C406 H419 0.962 . S
C406 H420 0.960 . S
C407 C404 1.511 . S
C407 H421 0.961 . S
C407 H422 0.961 . S
C407 H423 0.961 . S
C408 C409 1.370 . S
C408 C410 1.363 . S
C408 H424 0.931 . S
C409 C408 1.370 . S
C409 C413 1.408 . S
C410 C408 1.363 . S
C410 C411 1.370 . S
C410 C414 1.524 . S
C411 C403 1.503 . S
C411 C410 1.370 . S
C411 C412 1.403 . S
C412 C411 1.403 . S
C412 C413 1.404 . S
C412 C415 1.539 . S
C413 C409 1.408 . S
C413 C412 1.404 . S
C413 H425 0.930 . S
C414 C410 1.524 . S
C414 H426 0.956 . S
C414 H427 0.961 . S
C414 H428 0.961 . S
C415 C412 1.539 . S
C415 H429 0.958 . S
C415 H430 0.961 . S
C415 H431 0.960 . S
H416 C400 0.931 . S
H417 C405 0.929 . S
H418 C406 0.960 1_565 S
H419 C406 0.962 . S
H420 C406 0.960 . S
H421 C407 0.961 . S
H422 C407 0.961 . S
H423 C407 0.961 . S
H424 C408 0.931 . S
H425 C413 0.930 . S
H426 C414 0.956 . S
H427 C414 0.961 . S
H428 C414 0.961 . S
H429 C415 0.958 . S
H430 C415 0.961 . S
H431 C415 0.960 . S
C432 C433 1.391 . S
C432 C434 1.394 . S
C432 H448 0.931 . S
C433 C432 1.391 . S
C433 C437 1.376 . S
C434 C432 1.394 . S
C434 C435 1.369 . S
C434 C438 1.531 . S
C435 C434 1.369 . S
C435 C436 1.410 . S
C435 C443 1.503 . S
C436 C435 1.410 . S
C436 C437 1.392 . S
C436 C439 1.511 . S
C437 C433 1.376 . S
C437 C436 1.392 . S
C437 H449 0.929 . S
C438 C434 1.531 . S
C438 H450 0.960 . S
C438 H451 0.962 . S
C438 H452 0.960 . S
C439 C436 1.511 . S
C439 H453 0.961 . S
C439 H454 0.961 . S
C439 H455 0.961 . S
C440 C441 1.370 . S
C440 C442 1.363 . S
C440 H456 0.931 . S
C441 C440 1.370 . S
C441 C445 1.408 . S
C442 C440 1.363 . S
C442 C443 1.370 . S
C442 C446 1.524 . S
C443 C435 1.503 . S
C443 C442 1.370 . S
C443 C444 1.403 . S
C444 C443 1.403 . S
C444 C445 1.404 . S
C444 C447 1.539 . S
C445 C441 1.408 . S
C445 C444 1.404 . S
C445 H457 0.930 . S
C446 C442 1.524 . S
C446 H458 0.956 . S
C446 H459 0.961 . S
C446 H460 0.961 . S
C447 C444 1.539 . S
C447 H461 0.958 . S
C447 H462 0.961 . S
C447 H463 0.960 . S
H448 C432 0.931 . S
H449 C437 0.929 . S
H450 C438 0.960 . S
H451 C438 0.962 . S
H452 C438 0.960 . S
H453 C439 0.961 . S
H454 C439 0.961 . S
H455 C439 0.961 . S
H456 C440 0.931 . S
H457 C445 0.930 . S
H458 C446 0.956 . S
H459 C446 0.961 . S
H460 C446 0.961 . S
H461 C447 0.958 . S
H462 C447 0.961 . S
H463 C447 0.960 . S
C464 C465 1.391 . S
C464 C466 1.394 . S
C464 H480 0.931 . S
C465 C464 1.391 . S
C465 C469 1.376 . S
C466 C464 1.394 . S
C466 C467 1.369 . S
C466 C470 1.531 1_565 S
C467 C466 1.369 . S
C467 C468 1.410 1_654 S
C467 C475 1.495 1_664 S
C468 C467 1.410 1_456 S
C468 C469 1.392 1_456 S
C468 C471 1.511 . S
C469 C465 1.376 . S
C469 C468 1.392 1_654 S
C469 H481 0.929 1_554 S
C470 C466 1.531 1_545 S
C470 H482 0.960 . S
C470 H483 0.962 . S
C470 H484 0.960 . S
C471 C468 1.511 . S
C471 H485 0.961 . S
C471 H486 0.961 . S
C471 H487 0.961 . S
C472 C473 1.370 . S
C472 C474 1.363 . S
C472 H488 0.931 . S
C473 C472 1.370 . S
C473 C477 1.408 1_556 S
C474 C472 1.363 . S
C474 C475 1.390 . S
C474 C478 1.524 1_455 S
C475 C467 1.495 1_446 S
C475 C474 1.390 . S
C475 C476 1.391 1_556 S
C476 C475 1.391 1_554 S
C476 C477 1.404 . S
C476 C479 1.539 . S
C477 C473 1.408 1_554 S
C477 C476 1.404 . S
C477 H489 0.930 . S
C478 C474 1.524 1_655 S
C478 H490 0.956 . S
C478 H491 0.961 1_545 S
C478 H492 0.961 . S
C479 C476 1.539 . S
C479 H493 0.958 . S
C479 H494 0.961 . S
C479 H495 0.960 1_545 S
H480 C464 0.931 . S
H481 C469 0.929 1_556 S
H482 C470 0.960 . S
H483 C470 0.962 . S
H484 C470 0.960 . S
H485 C471 0.961 . S
H486 C471 0.961 . S
H487 C471 0.961 . S
H488 C472 0.931 . S
H489 C477 0.930 . S
H490 C478 0.956 . S
H491 C478 0.961 1_565 S
H492 C478 0.961 . S
H493 C479 0.958 . S
H494 C479 0.961 . S
H495 C479 0.960 1_565 S
C496 C497 1.391 . S
C496 C498 1.394 . S
C496 H512 0.931 . S
C497 C496 1.391 . S
C497 C501 1.376 . S
C498 C496 1.394 . S
C498 C499 1.369 . S
C498 C502 1.531 1_655 S
C499 C498 1.369 . S
C499 C500 1.410 . S
C499 C507 1.503 1_645 S
C500 C499 1.410 . S
C500 C501 1.392 . S
C500 C503 1.511 1_545 S
C501 C497 1.376 . S
C501 C500 1.392 . S
C501 H513 0.929 . S
C502 C498 1.531 1_455 S
C502 H514 0.960 . S
C502 H515 0.962 1_455 S
C502 H516 0.960 . S
C503 C500 1.511 1_565 S
C503 H517 0.961 . S
C503 H518 0.961 . S
C503 H519 0.966 1_655 S
C504 C505 1.370 . S
C504 C506 1.363 1_455 S
C504 H520 0.931 . S
C505 C504 1.370 . S
C505 C509 1.408 . S
C506 C504 1.363 1_655 S
C506 C507 1.370 1_655 S
C506 C510 1.524 . S
C507 C499 1.503 1_465 S
C507 C506 1.370 1_455 S
C507 C508 1.403 . S
C508 C507 1.403 . S
C508 C509 1.404 . S
C508 C511 1.539 1_565 S
C509 C505 1.408 . S
C509 C508 1.404 . S
C509 H521 0.930 . S
C510 C506 1.524 . S
C510 H522 0.956 . S
C510 H523 0.961 . S
C510 H524 0.961 . S
C511 C508 1.539 1_545 S
C511 H525 0.958 . S
C511 H526 0.961 . S
C511 H527 0.960 . S
H512 C496 0.931 . S
H513 C501 0.929 . S
H514 C502 0.960 . S
H515 C502 0.962 1_655 S
H516 C502 0.960 . S
H517 C503 0.961 . S
H518 C503 0.961 . S
H519 C503 0.966 1_455 S
H520 C504 0.931 . S
H521 C509 0.930 . S
H522 C510 0.956 . S
H523 C510 0.961 . S
H524 C510 0.961 . S
H525 C511 0.958 . S
H526 C511 0.961 . S
H527 C511 0.960 . S
C528 C529 1.391 . S
C528 C530 1.394 . S
C528 H544 0.931 . S
C529 C528 1.391 . S
C529 C533 1.376 . S
C530 C528 1.394 . S
C530 C531 1.369 . S
C530 C534 1.531 . S
C531 C530 1.369 . S
C531 C532 1.410 . S
C531 C539 1.505 . S
C532 C531 1.410 . S
C532 C533 1.392 . S
C532 C535 1.511 . S
C533 C529 1.376 . S
C533 C532 1.392 . S
C533 H545 0.929 . S
C534 C530 1.531 . S
C534 H546 0.960 . S
C534 H547 0.952 1_556 S
C534 H548 0.960 . S
C535 C532 1.511 . S
C535 H549 0.961 1_556 S
C535 H550 0.961 1_556 S
C535 H551 0.961 . S
C536 C537 1.370 . S
C536 C538 1.363 . S
C536 H552 0.931 . S
C537 C536 1.370 . S
C537 C541 1.408 1_554 S
C538 C536 1.363 . S
C538 C539 1.365 1_554 S
C538 C542 1.524 . S
C539 C531 1.505 . S
C539 C538 1.365 1_556 S
C539 C540 1.406 . S
C540 C539 1.406 . S
C540 C541 1.404 . S
C540 C543 1.539 . S
C541 C537 1.408 1_556 S
C541 C540 1.404 . S
C541 H553 0.930 . S
C542 C538 1.524 . S
C542 H554 0.956 . S
C542 H555 0.961 . S
C542 H556 0.961 . S
C543 C540 1.539 . S
C543 H557 0.958 . S
C543 H558 0.961 . S
C543 H559 0.960 . S
H544 C528 0.931 . S
H545 C533 0.929 . S
H546 C534 0.960 . S
H547 C534 0.952 1_554 S
H548 C534 0.960 . S
H549 C535 0.961 1_554 S
H550 C535 0.961 1_554 S
H551 C535 0.961 . S
H552 C536 0.931 . S
H553 C541 0.930 . S
H554 C542 0.956 . S
H555 C542 0.961 . S
H556 C542 0.961 . S
H557 C543 0.958 . S
H558 C543 0.961 . S
H559 C543 0.960 . S
C560 C561 1.391 . S
C560 C562 1.394 . S
C560 H576 0.931 . S
C561 C560 1.391 . S
C561 C565 1.376 . S
C562 C560 1.394 . S
C562 C563 1.369 . S
C562 C566 1.531 . S
C563 C562 1.369 . S
C563 C564 1.410 . S
C563 C571 1.503 . S
C564 C563 1.410 . S
C564 C565 1.392 . S
C564 C567 1.511 . S
C565 C561 1.376 . S
C565 C564 1.392 . S
C565 H577 0.929 . S
C566 C562 1.531 . S
C566 H578 0.960 . S
C566 H579 0.962 . S
C566 H580 0.960 . S
C567 C564 1.511 . S
C567 H581 0.961 . S
C567 H582 0.961 . S
C567 H583 0.961 . S
C568 C569 1.370 . S
C568 C570 1.363 . S
C568 H584 0.931 . S
C569 C568 1.370 . S
C569 C573 1.408 . S
C570 C568 1.363 . S
C570 C571 1.370 . S
C570 C574 1.524 . S
C571 C563 1.503 . S
C571 C570 1.370 . S
C571 C572 1.403 . S
C572 C571 1.403 . S
C572 C573 1.404 . S
C572 C575 1.539 . S
C573 C569 1.408 . S
C573 C572 1.404 . S
C573 H585 0.930 . S
C574 C570 1.524 . S
C574 H586 0.956 . S
C574 H587 0.961 . S
C574 H588 0.961 . S
C575 C572 1.539 . S
C575 H589 0.958 . S
C575 H590 0.961 . S
C575 H591 0.960 . S
H576 C560 0.931 . S
H577 C565 0.929 . S
H578 C566 0.960 . S
H579 C566 0.962 . S
H580 C566 0.960 . S
H581 C567 0.961 . S
H582 C567 0.961 . S
H583 C567 0.961 . S
H584 C568 0.931 . S
H585 C573 0.930 . S
H586 C574 0.956 . S
H587 C574 0.961 . S
H588 C574 0.961 . S
H589 C575 0.958 . S
H590 C575 0.961 . S
H591 C575 0.960 . S
C592 C593 1.391 . S
C592 C594 1.394 . S
C592 H608 0.931 . S
C593 C592 1.391 . S
C593 C597 1.376 . S
C594 C592 1.394 . S
C594 C595 1.369 . S
C594 C598 1.531 . S
C595 C594 1.369 . S
C595 C596 1.410 . S
C595 C603 1.503 1_455 S
C596 C595 1.410 . S
C596 C597 1.392 . S
C596 C599 1.511 1_455 S
C597 C593 1.376 . S
C597 C596 1.392 . S
C597 H609 0.929 . S
C598 C594 1.531 . S
C598 H610 0.960 . S
C598 H611 0.962 . S
C598 H612 0.960 . S
C599 C596 1.511 1_655 S
C599 H613 0.961 . S
C599 H614 0.961 . S
C599 H615 0.961 . S
C600 C601 1.370 . S
C600 C602 1.363 . S
C600 H616 0.931 . S
C601 C600 1.370 . S
C601 C605 1.408 . S
C602 C600 1.363 . S
C602 C603 1.370 . S
C602 C606 1.524 . S
C603 C595 1.503 1_655 S
C603 C602 1.370 . S
C603 C604 1.403 1_655 S
C604 C603 1.403 1_455 S
C604 C605 1.404 1_455 S
C604 C607 1.539 . S
C605 C601 1.408 . S
C605 C604 1.404 1_655 S
C605 H617 0.930 1_655 S
C606 C602 1.524 . S
C606 H618 0.956 . S
C606 H619 0.961 . S
C606 H620 0.961 . S
C607 C604 1.539 . S
C607 H621 0.958 . S
C607 H622 0.961 . S
C607 H623 0.960 . S
H608 C592 0.931 . S
H609 C597 0.929 . S
H610 C598 0.960 . S
H611 C598 0.962 . S
H612 C598 0.960 . S
H613 C599 0.961 . S
H614 C599 0.961 . S
H615 C599 0.961 . S
H616 C600 0.931 . S
H617 C605 0.930 1_455 S
H618 C606 0.956 . S
H619 C606 0.961 . S
H620 C606 0.961 . S
H621 C607 0.958 . S
H622 C607 0.961 . S
H623 C607 0.960 . S
C624 C625 1.391 . S
C624 C626 1.394 . S
C624 H640 0.931 . S
C625 C624 1.391 . S
C625 C629 1.376 . S
C626 C624 1.394 . S
C626 C627 1.369 . S
C626 C630 1.531 . S
C627 C626 1.369 . S
C627 C628 1.410 . S
C627 C635 1.503 . S
C628 C627 1.410 . S
C628 C629 1.392 . S
C628 C631 1.511 . S
C629 C625 1.376 . S
C629 C628 1.392 . S
C629 H641 0.929 . S
C630 C626 1.531 . S
C630 H642 0.960 . S
C630 H643 0.962 . S
C630 H644 0.960 . S
C631 C628 1.511 . S
C631 H645 0.961 . S
C631 H646 0.961 . S
C631 H647 0.961 . S
C632 C633 1.370 . S
C632 C634 1.363 . S
C632 H648 0.931 . S
C633 C632 1.370 . S
C633 C637 1.408 . S
C634 C632 1.363 . S
C634 C635 1.370 . S
C634 C638 1.524 . S
C635 C627 1.503 . S
C635 C634 1.370 . S
C635 C636 1.403 . S
C636 C635 1.403 . S
C636 C637 1.404 . S
C636 C639 1.539 . S
C637 C633 1.408 . S
C637 C636 1.404 . S
C637 H649 0.930 . S
C638 C634 1.524 . S
C638 H650 0.956 . S
C638 H651 0.961 . S
C638 H652 0.961 . S
C639 C636 1.539 . S
C639 H653 0.958 . S
C639 H654 0.961 . S
C639 H655 0.960 . S
H640 C624 0.931 . S
H641 C629 0.929 . S
H642 C630 0.960 . S
H643 C630 0.962 . S
H644 C630 0.960 . S
H645 C631 0.961 . S
H646 C631 0.961 . S
H647 C631 0.961 . S
H648 C632 0.931 . S
H649 C637 0.930 . S
H650 C638 0.956 . S
H651 C638 0.961 . S
H652 C638 0.961 . S
H653 C639 0.958 . S
H654 C639 0.961 . S
H655 C639 0.960 . S
C656 C657 1.391 . S
C656 C658 1.394 . S
C656 H672 0.931 . S
C657 C656 1.391 . S
C657 C661 1.376 . S
C658 C656 1.394 . S
C658 C659 1.369 . S
C658 C662 1.531 1_655 S
C659 C658 1.369 . S
C659 C660 1.410 . S
C659 C667 1.503 1_655 S
C660 C659 1.410 . S
C660 C661 1.392 . S
C660 C663 1.511 . S
C661 C657 1.376 . S
C661 C660 1.392 . S
C661 H673 0.929 . S
C662 C658 1.531 1_455 S
C662 H674 0.960 . S
C662 H675 0.962 . S
C662 H676 0.960 . S
C663 C660 1.511 . S
C663 H677 0.961 . S
C663 H678 0.961 . S
C663 H679 0.961 . S
C664 C665 1.370 . S
C664 C666 1.363 . S
C664 H680 0.931 . S
C665 C664 1.370 . S
C665 C669 1.408 . S
C666 C664 1.363 . S
C666 C667 1.370 . S
C666 C670 1.524 . S
C667 C659 1.503 1_455 S
C667 C666 1.370 . S
C667 C668 1.403 1_455 S
C668 C667 1.403 1_655 S
C668 C669 1.404 1_655 S
C668 C671 1.539 . S
C669 C665 1.408 . S
C669 C668 1.404 1_455 S
C669 H681 0.930 1_455 S
C670 C666 1.524 . S
C670 H682 0.956 . S
C670 H683 0.961 . S
C670 H684 0.961 . S
C671 C668 1.539 . S
C671 H685 0.958 . S
C671 H686 0.961 . S
C671 H687 0.960 . S
H672 C656 0.931 . S
H673 C661 0.929 . S
H674 C662 0.960 . S
H675 C662 0.962 . S
H676 C662 0.960 . S
H677 C663 0.961 . S
H678 C663 0.961 . S
H679 C663 0.961 . S
H680 C664 0.931 . S
H681 C669 0.930 1_655 S
H682 C670 0.956 . S
H683 C670 0.961 . S
H684 C670 0.961 . S
H685 C671 0.958 . S
H686 C671 0.961 . S
H687 C671 0.960 . S
C688 C689 1.391 . S
C688 C690 1.394 . S
C688 H704 0.931 . S
C689 C688 1.391 . S
C689 C693 1.376 . S
C690 C688 1.394 . S
C690 C691 1.369 . S
C690 C694 1.531 . S
C691 C690 1.369 . S
C691 C692 1.410 . S
C691 C699 1.503 . S
C692 C691 1.410 . S
C692 C693 1.392 . S
C692 C695 1.511 . S
C693 C689 1.376 . S
C693 C692 1.392 . S
C693 H705 0.929 . S
C694 C690 1.531 . S
C694 H706 0.960 . S
C694 H707 0.962 . S
C694 H708 0.960 . S
C695 C692 1.511 . S
C695 H709 0.961 . S
C695 H710 0.961 . S
C695 H711 0.961 . S
C696 C697 1.370 . S
C696 C698 1.363 . S
C696 H712 0.931 . S
C697 C696 1.370 . S
C697 C701 1.408 . S
C698 C696 1.363 . S
C698 C699 1.370 . S
C698 C702 1.524 . S
C699 C691 1.503 . S
C699 C698 1.370 . S
C699 C700 1.403 . S
C700 C699 1.403 . S
C700 C701 1.404 . S
C700 C703 1.539 . S
C701 C697 1.408 . S
C701 C700 1.404 . S
C701 H713 0.930 . S
C702 C698 1.524 . S
C702 H714 0.956 . S
C702 H715 0.961 . S
C702 H716 0.961 . S
C703 C700 1.539 . S
C703 H717 0.958 . S
C703 H718 0.961 . S
C703 H719 0.960 . S
H704 C688 0.931 . S
H705 C693 0.929 . S
H706 C694 0.960 . S
H707 C694 0.962 . S
H708 C694 0.960 . S
H709 C695 0.961 . S
H710 C695 0.961 . S
H711 C695 0.961 . S
H712 C696 0.931 . S
H713 C701 0.930 . S
H714 C702 0.956 . S
H715 C702 0.961 . S
H716 C702 0.961 . S
H717 C703 0.958 . S
H718 C703 0.961 . S
H719 C703 0.960 . S
C720 C721 1.391 . S
C720 C722 1.394 . S
C720 H736 0.931 . S
C721 C720 1.391 . S
C721 C725 1.376 . S
C722 C720 1.394 . S
C722 C723 1.369 . S
C722 C726 1.531 . S
C723 C722 1.369 . S
C723 C724 1.410 . S
C723 C731 1.503 . S
C724 C723 1.410 . S
C724 C725 1.392 . S
C724 C727 1.511 . S
C725 C721 1.376 . S
C725 C724 1.392 . S
C725 H737 0.929 . S
C726 C722 1.531 . S
C726 H738 0.960 . S
C726 H739 0.962 1_556 S
C726 H740 0.960 . S
C727 C724 1.511 . S
C727 H741 0.961 . S
C727 H742 0.961 . S
C727 H743 0.961 . S
C728 C729 1.370 . S
C728 C730 1.363 . S
C728 H744 0.931 . S
C729 C728 1.370 . S
C729 C733 1.408 . S
C730 C728 1.363 . S
C730 C731 1.370 1_554 S
C730 C734 1.524 . S
C731 C723 1.503 . S
C731 C730 1.370 1_556 S
C731 C732 1.403 . S
C732 C731 1.403 . S
C732 C733 1.404 1_556 S
C732 C735 1.539 . S
C733 C729 1.408 . S
C733 C732 1.404 1_554 S
C733 H745 0.930 . S
C734 C730 1.524 . S
C734 H746 0.956 . S
C734 H747 0.961 . S
C734 H748 0.961 . S
C735 C732 1.539 . S
C735 H749 0.958 . S
C735 H750 0.961 . S
C735 H751 0.960 . S
H736 C720 0.931 . S
H737 C725 0.929 . S
H738 C726 0.960 . S
H739 C726 0.962 1_554 S
H740 C726 0.960 . S
H741 C727 0.961 . S
H742 C727 0.961 . S
H743 C727 0.961 . S
H744 C728 0.931 . S
H745 C733 0.930 . S
H746 C734 0.956 . S
H747 C734 0.961 . S
H748 C734 0.961 . S
H749 C735 0.958 . S
H750 C735 0.961 . S
H751 C735 0.960 . S
C752 C753 1.391 . S
C752 C754 1.394 . S
C752 H768 0.931 . S
C753 C752 1.391 . S
C753 C757 1.376 . S
C754 C752 1.394 . S
C754 C755 1.369 . S
C754 C758 1.531 . S
C755 C754 1.369 . S
C755 C756 1.410 . S
C755 C763 1.503 . S
C756 C755 1.410 . S
C756 C757 1.392 . S
C756 C759 1.511 . S
C757 C753 1.376 . S
C757 C756 1.392 . S
C757 H769 0.929 . S
C758 C754 1.531 . S
C758 H770 0.960 . S
C758 H771 0.962 . S
C758 H772 0.960 . S
C759 C756 1.511 . S
C759 H773 0.961 . S
C759 H774 0.961 . S
C759 H775 0.961 . S
C760 C761 1.370 . S
C760 C762 1.363 . S
C760 H776 0.931 . S
C761 C760 1.370 . S
C761 C765 1.408 . S
C762 C760 1.363 . S
C762 C763 1.370 . S
C762 C766 1.524 . S
C763 C755 1.503 . S
C763 C762 1.370 . S
C763 C764 1.403 . S
C764 C763 1.403 . S
C764 C765 1.404 . S
C764 C767 1.539 . S
C765 C761 1.408 . S
C765 C764 1.404 . S
C765 H777 0.930 . S
C766 C762 1.524 . S
C766 H778 0.956 . S
C766 H779 0.961 . S
C766 H780 0.961 . S
C767 C764 1.539 . S
C767 H781 0.958 . S
C767 H782 0.961 . S
C767 H783 0.960 . S
H768 C752 0.931 . S
H769 C757 0.929 . S
H770 C758 0.960 . S
H771 C758 0.962 . S
H772 C758 0.960 . S
H773 C759 0.961 . S
H774 C759 0.961 . S
H775 C759 0.961 . S
H776 C760 0.931 . S
H777 C765 0.930 . S
H778 C766 0.956 . S
H779 C766 0.961 . S
H780 C766 0.961 . S
H781 C767 0.958 . S
H782 C767 0.961 . S
H783 C767 0.960 . S
C784 C785 1.391 . S
C784 C786 1.394 . S
C784 H800 0.931 . S
C785 C784 1.391 . S
C785 C789 1.376 . S
C786 C784 1.394 . S
C786 C787 1.369 . S
C786 C790 1.531 . S
C787 C786 1.369 . S
C787 C788 1.410 . S
C787 C795 1.503 . S
C788 C787 1.410 . S
C788 C789 1.392 . S
C788 C791 1.511 1_554 S
C789 C785 1.376 . S
C789 C788 1.392 . S
C789 H801 0.929 . S
C790 C786 1.531 . S
C790 H802 0.960 . S
C790 H803 0.962 . S
C790 H804 0.960 . S
C791 C788 1.511 1_556 S
C791 H805 0.961 . S
C791 H806 0.961 . S
C791 H807 0.961 . S
C792 C793 1.370 . S
C792 C794 1.363 . S
C792 H808 0.931 . S
C793 C792 1.370 . S
C793 C797 1.408 . S
C794 C792 1.363 . S
C794 C795 1.370 1_556 S
C794 C798 1.524 1_556 S
C795 C787 1.503 . S
C795 C794 1.370 1_554 S
C795 C796 1.403 1_554 S
C796 C795 1.403 1_556 S
C796 C797 1.404 . S
C796 C799 1.539 1_556 S
C797 C793 1.408 . S
C797 C796 1.404 . S
C797 H809 0.930 . S
C798 C794 1.524 1_554 S
C798 H810 0.956 . S
C798 H811 0.957 1_554 S
C798 H812 0.961 1_554 S
C799 C796 1.539 1_554 S
C799 H813 0.958 . S
C799 H814 0.961 1_554 S
C799 H815 0.960 . S
H800 C784 0.931 . S
H801 C789 0.929 . S
H802 C790 0.960 . S
H803 C790 0.962 . S
H804 C790 0.960 . S
H805 C791 0.961 . S
H806 C791 0.961 . S
H807 C791 0.961 . S
H808 C792 0.931 . S
H809 C797 0.930 . S
H810 C798 0.956 . S
H811 C798 0.957 1_556 S
H812 C798 0.961 1_556 S
H813 C799 0.958 . S
H814 C799 0.961 1_556 S
H815 C799 0.960 . S
C816 C817 1.391 . S
C816 C818 1.394 . S
C816 H832 0.931 . S
C817 C816 1.391 . S
C817 C821 1.376 . S
C818 C816 1.394 . S
C818 C819 1.369 . S
C818 C822 1.531 . S
C819 C818 1.369 . S
C819 C820 1.410 . S
C819 C827 1.503 . S
C820 C819 1.410 . S
C820 C821 1.392 . S
C820 C823 1.511 . S
C821 C817 1.376 . S
C821 C820 1.392 . S
C821 H833 0.929 . S
C822 C818 1.531 . S
C822 H834 0.960 . S
C822 H835 0.962 . S
C822 H836 0.960 . S
C823 C820 1.511 . S
C823 H837 0.961 . S
C823 H838 0.961 . S
C823 H839 0.961 . S
C824 C825 1.370 . S
C824 C826 1.363 . S
C824 H840 0.931 . S
C825 C824 1.370 . S
C825 C829 1.408 . S
C826 C824 1.363 . S
C826 C827 1.370 . S
C826 C830 1.524 . S
C827 C819 1.503 . S
C827 C826 1.370 . S
C827 C828 1.403 . S
C828 C827 1.403 . S
C828 C829 1.404 . S
C828 C831 1.539 . S
C829 C825 1.408 . S
C829 C828 1.404 . S
C829 H841 0.930 . S
C830 C826 1.524 . S
C830 H842 0.956 . S
C830 H843 0.961 . S
C830 H844 0.961 . S
C831 C828 1.539 . S
C831 H845 0.958 . S
C831 H846 0.961 . S
C831 H847 0.960 . S
H832 C816 0.931 . S
H833 C821 0.929 . S
H834 C822 0.960 . S
H835 C822 0.962 . S
H836 C822 0.960 . S
H837 C823 0.961 . S
H838 C823 0.961 . S
H839 C823 0.961 . S
H840 C824 0.931 . S
H841 C829 0.930 . S
H842 C830 0.956 . S
H843 C830 0.961 . S
H844 C830 0.961 . S
H845 C831 0.958 . S
H846 C831 0.961 . S
H847 C831 0.960 . S
C848 C849 1.391 . S
C848 C850 1.394 . S
C848 H864 0.931 . S
C849 C848 1.391 . S
C849 C853 1.376 . S
C850 C848 1.394 . S
C850 C851 1.369 . S
C850 C854 1.531 1_554 S
C851 C850 1.369 . S
C851 C852 1.410 . S
C851 C859 1.503 . S
C852 C851 1.410 . S
C852 C853 1.392 . S
C852 C855 1.511 . S
C853 C849 1.376 . S
C853 C852 1.392 . S
C853 H865 0.929 . S
C854 C850 1.531 1_556 S
C854 H866 0.960 . S
C854 H867 0.962 . S
C854 H868 0.960 . S
C855 C852 1.511 . S
C855 H869 0.961 . S
C855 H870 0.961 . S
C855 H871 0.961 . S
C856 C857 1.370 . S
C856 C858 1.363 . S
C856 H872 0.931 . S
C857 C856 1.370 . S
C857 C861 1.408 . S
C858 C856 1.363 . S
C858 C859 1.370 1_556 S
C858 C862 1.524 1_556 S
C859 C851 1.503 . S
C859 C858 1.370 1_554 S
C859 C860 1.403 1_554 S
C860 C859 1.403 1_556 S
C860 C861 1.404 . S
C860 C863 1.539 1_556 S
C861 C857 1.408 . S
C861 C860 1.404 . S
C861 H873 0.930 . S
C862 C858 1.524 1_554 S
C862 H874 0.949 1_554 S
C862 H875 0.961 . S
C862 H876 0.961 1_554 S
C863 C860 1.539 1_554 S
C863 H877 0.958 1_554 S
C863 H878 0.961 . S
C863 H879 0.960 . S
H864 C848 0.931 . S
H865 C853 0.929 . S
H866 C854 0.960 . S
H867 C854 0.962 . S
H868 C854 0.960 . S
H869 C855 0.961 . S
H870 C855 0.961 . S
H871 C855 0.961 . S
H872 C856 0.931 . S
H873 C861 0.930 . S
H874 C862 0.949 1_556 S
H875 C862 0.961 . S
H876 C862 0.961 1_556 S
H877 C863 0.958 1_556 S
H878 C863 0.961 . S
H879 C863 0.960 . S
C880 C881 1.391 . S
C880 C882 1.394 . S
C880 H896 0.931 . S
C881 C880 1.391 . S
C881 C885 1.376 . S
C882 C880 1.394 . S
C882 C883 1.369 . S
C882 C886 1.531 . S
C883 C882 1.369 . S
C883 C884 1.410 . S
C883 C891 1.503 . S
C884 C883 1.410 . S
C884 C885 1.392 . S
C884 C887 1.511 . S
C885 C881 1.376 . S
C885 C884 1.392 . S
C885 H897 0.929 1_655 S
C886 C882 1.531 . S
C886 H898 0.960 . S
C886 H899 0.962 . S
C886 H900 0.960 . S
C887 C884 1.511 . S
C887 H901 0.961 . S
C887 H902 0.961 . S
C887 H903 0.961 . S
C888 C889 1.370 . S
C888 C890 1.363 . S
C888 H904 0.931 . S
C889 C888 1.370 . S
C889 C893 1.408 . S
C890 C888 1.363 . S
C890 C891 1.370 . S
C890 C894 1.524 . S
C891 C883 1.503 . S
C891 C890 1.370 . S
C891 C892 1.403 . S
C892 C891 1.403 . S
C892 C893 1.404 . S
C892 C895 1.539 . S
C893 C889 1.408 . S
C893 C892 1.404 . S
C893 H905 0.930 . S
C894 C890 1.524 . S
C894 H906 0.956 . S
C894 H907 0.961 . S
C894 H908 0.961 . S
C895 C892 1.539 . S
C895 H909 0.958 . S
C895 H910 0.961 . S
C895 H911 0.960 . S
H896 C880 0.931 . S
H897 C885 0.929 1_455 S
H898 C886 0.960 . S
H899 C886 0.962 . S
H900 C886 0.960 . S
H901 C887 0.961 . S
H902 C887 0.961 . S
H903 C887 0.961 . S
H904 C888 0.931 . S
H905 C893 0.930 . S
H906 C894 0.956 . S
H907 C894 0.961 . S
H908 C894 0.961 . S
H909 C895 0.958 . S
H910 C895 0.961 . S
H911 C895 0.960 . S
C912 C913 1.391 . S
C912 C914 1.394 . S
C912 H928 0.931 . S
C913 C912 1.391 . S
C913 C917 1.376 . S
C914 C912 1.394 . S
C914 C915 1.369 1_554 S
C914 C918 1.531 . S
C915 C914 1.369 1_556 S
C915 C916 1.410 . S
C915 C923 1.503 . S
C916 C915 1.410 . S
C916 C917 1.392 1_556 S
C916 C919 1.511 . S
C917 C913 1.376 . S
C917 C916 1.392 1_554 S
C917 H929 0.929 . S
C918 C914 1.531 . S
C918 H930 0.960 1_554 S
C918 H931 0.962 . S
C918 H932 0.960 . S
C919 C916 1.511 . S
C919 H933 0.961 . S
C919 H934 0.961 . S
C919 H935 0.961 . S
C920 C921 1.370 . S
C920 C922 1.363 . S
C920 H936 0.931 . S
C921 C920 1.370 . S
C921 C925 1.408 . S
C922 C920 1.363 . S
C922 C923 1.370 . S
C922 C926 1.524 1_556 S
C923 C915 1.503 . S
C923 C922 1.370 . S
C923 C924 1.403 . S
C924 C923 1.403 . S
C924 C925 1.404 . S
C924 C927 1.539 . S
C925 C921 1.408 . S
C925 C924 1.404 . S
C925 H937 0.930 . S
C926 C922 1.524 1_554 S
C926 H938 0.956 . S
C926 H939 0.961 . S
C926 H940 0.961 . S
C927 C924 1.539 . S
C927 H941 0.958 . S
C927 H942 0.961 . S
C927 H943 0.960 . S
H928 C912 0.931 . S
H929 C917 0.929 . S
H930 C918 0.960 1_556 S
H931 C918 0.962 . S
H932 C918 0.960 . S
H933 C919 0.961 . S
H934 C919 0.961 . S
H935 C919 0.961 . S
H936 C920 0.931 . S
H937 C925 0.930 . S
H938 C926 0.956 . S
H939 C926 0.961 . S
H940 C926 0.961 . S
H941 C927 0.958 . S
H942 C927 0.961 . S
H943 C927 0.960 . S
C177 C140 1.621 . S
C185 C5 1.536 . S
C209 C27 1.543 . S
C217 C162 1.628 . S
C241 C96 1.633 . S
C249 C49 1.548 . S
C273 C75 1.538 . S
C281 C114 1.628 . S
C305 C52 1.625 . S
C313 C94 1.528 . S
C337 C117 1.540 . S
C345 C70 1.634 . S
C369 C8 1.628 . S
C377 C138 1.528 . S
C401 C30 1.623 . S
C409 C160 1.530 . S
C433 C9 1.142 . S
C441 C95 1.076 . S
C465 C116 1.039 . S
C473 C31 1.120 . S
C497 C53 1.048 . S
C505 C139 1.119 . S
C529 C161 1.048 . S
C537 C71 1.119 . S
C561 C74 1.541 . S
C569 C4 1.534 . S
C593 C26 1.511 . S
C601 C48 1.521 . S
C625 C158 1.505 . S
C633 C92 1.519 . S
C657 C118 1.512 . S
C665 C136 1.524 . S
C689 C6 1.273 . S
C697 C51 1.395 . S
C721 C28 1.371 . S
C729 C72 1.405 . S
C753 C50 1.358 . S
C761 C7 1.391 . S
C785 C73 1.314 . S
C793 C29 1.386 . S
C817 C93 1.306 . S
C825 C141 1.386 . S
C849 C119 1.310 . S
C857 C163 1.386 . S
C881 C137 1.366 . S
C889 C97 1.412 . S
C913 C115 1.416 . S
C921 C159 1.346 . S
