# Generated by pormake.
# Topology uoq, (4)-cn, num edge types: 1
# Building blocks:
#     Node 0, Type 0, BuildingBlock: NAHDIM_clean_sbu_0, # of connection points: 4
#     Node 1, Type 0, BuildingBlock: NAHDIM_clean_sbu_0, # of connection points: 4
#     Node 2, Type 0, BuildingBlock: NAHDIM_clean_sbu_0, # of connection points: 4
#     Node 3, Type 0, BuildingBlock: NAHDIM_clean_sbu_0, # of connection points: 4
#     Node 4, Type 0, BuildingBlock: NAHDIM_clean_sbu_0, # of connection points: 4
#     Node 5, Type 0, BuildingBlock: NAHDIM_clean_sbu_0, # of connection points: 4
#     Node 6, Type 0, BuildingBlock: NAHDIM_clean_sbu_0, # of connection points: 4
#     Node 7, Type 0, BuildingBlock: NAHDIM_clean_sbu_0, # of connection points: 4
#     Node 8, Type 0, BuildingBlock: NAHDIM_clean_sbu_0, # of connection points: 4
#     Node 9, Type 0, BuildingBlock: NAHDIM_clean_sbu_0, # of connection points: 4
#     Node 10, Type 0, BuildingBlock: NAHDIM_clean_sbu_0, # of connection points: 4
#     Node 11, Type 0, BuildingBlock: NAHDIM_clean_sbu_0, # of connection points: 4
#     Edge 12, Type (0, 0), BuildingBlock: AJUNOK_clean_linker_0, # of connection points: 2
#     Edge 13, Type (0, 0), BuildingBlock: AJUNOK_clean_linker_0, # of connection points: 2
#     Edge 14, Type (0, 0), BuildingBlock: AJUNOK_clean_linker_0, # of connection points: 2
#     Edge 15, Type (0, 0), BuildingBlock: AJUNOK_clean_linker_0, # of connection points: 2
#     Edge 16, Type (0, 0), BuildingBlock: AJUNOK_clean_linker_0, # of connection points: 2
#     Edge 17, Type (0, 0), BuildingBlock: AJUNOK_clean_linker_0, # of connection points: 2
#     Edge 18, Type (0, 0), BuildingBlock: AJUNOK_clean_linker_0, # of connection points: 2
#     Edge 19, Type (0, 0), BuildingBlock: AJUNOK_clean_linker_0, # of connection points: 2
#     Edge 20, Type (0, 0), BuildingBlock: AJUNOK_clean_linker_0, # of connection points: 2
#     Edge 21, Type (0, 0), BuildingBlock: AJUNOK_clean_linker_0, # of connection points: 2
#     Edge 22, Type (0, 0), BuildingBlock: AJUNOK_clean_linker_0, # of connection points: 2
#     Edge 23, Type (0, 0), BuildingBlock: AJUNOK_clean_linker_0, # of connection points: 2
#     Edge 24, Type (0, 0), BuildingBlock: AJUNOK_clean_linker_0, # of connection points: 2
#     Edge 25, Type (0, 0), BuildingBlock: AJUNOK_clean_linker_0, # of connection points: 2
#     Edge 26, Type (0, 0), BuildingBlock: AJUNOK_clean_linker_0, # of connection points: 2
#     Edge 27, Type (0, 0), BuildingBlock: AJUNOK_clean_linker_0, # of connection points: 2
#     Edge 28, Type (0, 0), BuildingBlock: AJUNOK_clean_linker_0, # of connection points: 2
#     Edge 29, Type (0, 0), BuildingBlock: AJUNOK_clean_linker_0, # of connection points: 2
#     Edge 30, Type (0, 0), BuildingBlock: AJUNOK_clean_linker_0, # of connection points: 2
#     Edge 31, Type (0, 0), BuildingBlock: AJUNOK_clean_linker_0, # of connection points: 2
#     Edge 32, Type (0, 0), BuildingBlock: AJUNOK_clean_linker_0, # of connection points: 2
#     Edge 33, Type (0, 0), BuildingBlock: AJUNOK_clean_linker_0, # of connection points: 2
#     Edge 34, Type (0, 0), BuildingBlock: AJUNOK_clean_linker_0, # of connection points: 2
#     Edge 35, Type (0, 0), BuildingBlock: AJUNOK_clean_linker_0, # of connection points: 2
# Relax obj value: 0.065
# Max RMSD: 0.071
# Mean RMSD: 0.071
data_MOF--net-uoq--node1-NAHDIM_clean_sbu_0--edge1-AJUNOK_clean_linker_0
_symmetry_space_group_name_H-M    P1
_symmetry_Int_Tables_number       1
_symmetry_cell_setting            triclinic
loop_
_symmetry_equiv_pos_as_xyz
'x, y, z'
_cell_length_a     43.470172
_cell_length_b     43.50502
_cell_length_c     17.789571
_cell_angle_alpha  89.878907
_cell_angle_beta   90.016739
_cell_angle_gamma 119.8758
loop_
_atom_site_label
_atom_site_type_symbol
_atom_site_fract_x
_atom_site_fract_y
_atom_site_fract_z
_atom_type_partial_charge
C0 C 0.25035 0.44501 0.14987 0.0
O1 O 0.24041 0.45477 0.21075 0.0
O2 O 0.33774 0.491 0.26981 0.0
Zn3 Zn 0.29739 0.44098 0.25574 0.0
O4 O 0.25944 0.42838 0.33421 0.0
C5 C 0.34099 0.41361 0.30927 0.0
O6 O 0.35133 0.44043 0.35561 0.0
O7 O 0.27527 0.43778 0.15452 0.0
C8 C 0.25801 0.41569 0.39929 0.0
O9 O 0.28337 0.40976 0.42159 0.0
C10 C 0.34419 0.50804 0.33121 0.0
O11 O 0.32285 0.49324 0.38868 0.0
O12 O 0.31731 0.4079 0.26059 0.0
C13 C 0.79666 0.25008 0.49053 0.0
O14 O 0.7755 0.24265 0.54872 0.0
O15 O 0.84012 0.34063 0.59977 0.0
Zn16 Zn 0.84735 0.29841 0.59644 0.0
O17 O 0.82089 0.26614 0.68299 0.0
C18 C 0.91481 0.32361 0.66983 0.0
O19 O 0.89534 0.31668 0.73069 0.0
O20 O 0.82922 0.27326 0.4977 0.0
C21 C 0.82651 0.24218 0.70907 0.0
O22 O 0.85059 0.23671 0.67705 0.0
C23 C 0.83717 0.35267 0.66276 0.0
O24 O 0.83794 0.33649 0.72453 0.0
O25 O 0.89983 0.31705 0.60585 0.0
C26 C 0.55078 0.80589 0.81948 0.0
O27 O 0.53957 0.7842 0.87737 0.0
O28 O 0.504 0.85079 0.93297 0.0
Zn29 Zn 0.55269 0.85607 0.92856 0.0
O30 O 0.55675 0.82805 0.01405 0.0
C31 C 0.59433 0.92426 -0.00053 0.0
O32 O 0.5785 0.90615 0.0604 0.0
O33 O 0.55848 0.83788 0.8288 0.0
C34 C 0.58503 0.83235 0.04455 0.0
O35 O 0.61584 0.85689 0.01826 0.0
C36 C 0.48862 0.84695 0.99592 0.0
O37 O 0.50481 0.84596 0.05743 0.0
O38 O 0.5882 0.90799 0.93722 0.0
C39 C 0.74396 0.55648 0.13594 0.0
O40 O 0.7539 0.54367 0.19194 0.0
O41 O 0.65525 0.50541 0.252 0.0
Zn42 Zn 0.69587 0.55568 0.24811 0.0
O43 O 0.72987 0.56244 0.3316 0.0
C44 C 0.66629 0.59275 0.32625 0.0
O45 O 0.67086 0.57678 0.38434 0.0
O46 O 0.71976 0.56421 0.14725 0.0
C47 C 0.75173 0.59212 0.36043 0.0
O48 O 0.75368 0.62115 0.33334 0.0
C49 C 0.64529 0.48865 0.31395 0.0
O50 O 0.66226 0.50443 0.37583 0.0
O51 O 0.67573 0.58816 0.26154 0.0
C52 C 0.18745 0.71523 0.44486 0.0
O53 O 0.20159 0.69972 0.48389 0.0
O54 O 0.14444 0.64549 0.57729 0.0
Zn55 Zn 0.13899 0.6889 0.56723 0.0
O56 O 0.16656 0.72244 0.65034 0.0
C57 C 0.07234 0.66377 0.6404 0.0
O58 O 0.09174 0.66526 0.69837 0.0
O59 O 0.15913 0.71359 0.46872 0.0
C60 C 0.15979 0.74475 0.68089 0.0
O61 O 0.1328 0.74764 0.65658 0.0
C62 C 0.15178 0.63741 0.641 0.0
O63 O 0.15612 0.65788 0.69882 0.0
O64 O 0.08705 0.67329 0.57627 0.0
C65 C 0.4392 0.18831 0.80969 0.0
O66 O 0.44606 0.20786 0.8703 0.0
O67 O 0.48302 0.14323 0.93116 0.0
Zn68 Zn 0.43395 0.13687 0.91815 0.0
O69 O 0.42356 0.16291 -0.0008 0.0
C70 C 0.40545 0.06554 0.96818 0.0
O71 O 0.43622 0.08012 0.00268 0.0
O72 O 0.43221 0.15637 0.81645 0.0
C73 C 0.42093 0.15375 0.06781 0.0
O74 O 0.42419 0.12629 0.08619 0.0
C75 C 0.5056 0.16297 0.97995 0.0
O76 O 0.49812 0.18247 0.02421 0.0
O77 O 0.39821 0.08451 0.92528 0.0
C78 C 0.55157 0.74827 0.52436 0.0
O79 O 0.54982 0.76373 0.46231 0.0
O80 O 0.49474 0.65117 0.41689 0.0
Zn81 Zn 0.54416 0.69334 0.42133 0.0
O82 O 0.55036 0.7254 0.33397 0.0
C83 C 0.58531 0.66596 0.35203 0.0
O84 O 0.57002 0.66917 0.29114 0.0
O85 O 0.55 0.71836 0.5201 0.0
C86 C 0.57977 0.74866 0.30614 0.0
O87 O 0.60946 0.75344 0.33616 0.0
C88 C 0.47909 0.63979 0.35426 0.0
O89 O 0.49555 0.6561 0.2922 0.0
O90 O 0.5788 0.67548 0.41473 0.0
C91 C 0.80321 0.56197 0.83902 0.0
O92 O 0.78605 0.56105 0.77755 0.0
O93 O 0.84222 0.50364 0.7323 0.0
Zn94 Zn 0.85002 0.55323 0.73493 0.0
O95 O 0.82491 0.55997 0.64691 0.0
C96 C 0.91854 0.59345 0.66515 0.0
O97 O 0.89978 0.5796 0.60395 0.0
O98 O 0.83115 0.55966 0.83369 0.0
C99 C 0.83078 0.59002 0.62338 0.0
O100 O 0.85408 0.61875 0.65871 0.0
C101 C 0.83938 0.48765 0.67077 0.0
O102 O 0.84097 0.50378 0.60716 0.0
O103 O 0.90264 0.58668 0.72811 0.0
C104 C 0.26084 0.79179 0.17367 0.0
O105 O 0.27689 0.77895 0.13245 0.0
O106 O 0.33637 0.84087 0.06333 0.0
Zn107 Zn 0.29229 0.8449 0.06231 0.0
O108 O 0.2642 0.82027 0.97063 0.0
C109 C 0.31424 0.91346 0.99702 0.0
O110 O 0.30541 0.89531 0.9341 0.0
O111 O 0.26345 0.8212 0.15484 0.0
C112 C 0.23632 0.82034 0.94979 0.0
O113 O 0.22427 0.83723 0.99057 0.0
C114 C 0.3529 0.84362 0.00257 0.0
O115 O 0.34019 0.84822 0.93918 0.0
O116 O 0.30892 0.89707 0.05917 0.0
C117 C 0.4534 0.25615 0.51939 0.0
O118 O 0.46808 0.2492 0.4623 0.0
O119 O 0.49977 0.34329 0.39967 0.0
Zn120 Zn 0.45017 0.30183 0.40934 0.0
O121 O 0.44233 0.26517 0.33134 0.0
C122 C 0.41355 0.33255 0.33306 0.0
O123 O 0.43134 0.33087 0.27509 0.0
O124 O 0.44385 0.27924 0.51139 0.0
C125 C 0.41528 0.24799 0.28984 0.0
O126 O 0.38866 0.25414 0.29364 0.0
C127 C 0.51551 0.35192 0.33644 0.0
O128 O 0.49967 0.33217 0.27755 0.0
O129 O 0.41673 0.32087 0.39645 0.0
C130 C 0.18925 0.44402 0.85802 0.0
O131 O 0.20996 0.45296 0.79869 0.0
O132 O 0.14663 0.4889 0.73428 0.0
Zn133 Zn 0.13916 0.4396 0.74743 0.0
O134 O 0.16693 0.43013 0.6692 0.0
C135 C 0.06827 0.40849 0.68995 0.0
O136 O 0.08411 0.43451 0.64129 0.0
O137 O 0.15725 0.43667 0.84982 0.0
C138 C 0.15447 0.41187 0.60985 0.0
O139 O 0.12035 0.39665 0.59595 0.0
C140 C 0.15466 0.5055 0.67201 0.0
O141 O 0.159 0.49038 0.61223 0.0
O142 O 0.08668 0.4047 0.74078 0.0
C143 C 0.74212 0.19116 0.19402 0.0
O144 O 0.76094 0.20821 0.13471 0.0
O145 O 0.64699 0.15336 0.07473 0.0
Zn146 Zn 0.68902 0.1459 0.08356 0.0
O147 O 0.72265 0.17213 0.99864 0.0
C148 C 0.66718 0.07833 0.0131 0.0
O149 O 0.67459 0.09745 0.95155 0.0
O150 O 0.71164 0.1641 0.18474 0.0
C151 C 0.7474 0.16672 0.97692 0.0
O152 O 0.75277 0.14344 0.01304 0.0
C153 C 0.63355 0.15271 0.01089 0.0
O154 O 0.64743 0.14699 0.95065 0.0
O155 O 0.6716 0.09349 0.07641 0.0
C156 C 0.3715 0.3879 0.38301 0.0
C157 C 0.35709 0.39072 0.31429 0.0
C158 C 0.38859 0.36795 0.38911 0.0
C159 C 0.39259 0.35069 0.32629 0.0
H160 H 0.36973 0.40136 0.4326 0.0
H161 H 0.39973 0.367 0.44297 0.0
S162 S 0.35852 0.3487 0.13406 0.0
N163 N 0.34673 0.37347 0.1827 0.0
N164 N 0.37963 0.33657 0.19375 0.0
C165 C 0.3778 0.35277 0.25746 0.0
C166 C 0.3598 0.37259 0.25158 0.0
C167 C 0.9746 0.36172 0.61296 0.0
C168 C 0.954 0.34244 0.67517 0.0
C169 C 0.01154 0.3825 0.61818 0.0
C170 C 0.02944 0.38444 0.68543 0.0
H171 H 0.96208 0.3617 0.56029 0.0
H172 H 0.02613 0.39743 0.5691 0.0
S173 S 0.98802 0.33699 0.86323 0.0
N174 N 0.95433 0.32522 0.80524 0.0
N175 N 0.0239 0.36397 0.81476 0.0
C176 C 0.00932 0.36427 0.74735 0.0
C177 C 0.97158 0.34339 0.7423 0.0
C178 C 0.61944 0.98132 0.07043 0.0
C179 C 0.61602 0.96353 0.00224 0.0
C180 C 0.63687 0.0184 0.07371 0.0
C181 C 0.65154 0.03929 0.0089 0.0
H182 H 0.60784 0.96655 0.12167 0.0
H183 H 0.63797 0.03066 0.12732 0.0
S184 S 0.65294 0.00601 0.81752 0.0
N185 N 0.6311 0.96987 0.86911 0.0
N186 N 0.66376 0.03948 0.87532 0.0
C187 C 0.64957 0.02195 0.94083 0.0
C188 C 0.63188 0.98413 0.9375 0.0
C189 C 0.63598 0.62354 0.27072 0.0
C190 C 0.64799 0.61363 0.33484 0.0
C191 C 0.6164 0.64102 0.277 0.0
C192 C 0.60814 0.64956 0.34764 0.0
H193 H 0.641 0.61705 0.21498 0.0
H194 H 0.60727 0.64742 0.22581 0.0
S195 S 0.63555 0.63179 0.53312 0.0
N196 N 0.65178 0.61532 0.47141 0.0
N197 N 0.61508 0.64826 0.48327 0.0
C198 C 0.62096 0.64084 0.41229 0.0
C199 C 0.6408 0.62286 0.40587 0.0
C200 C 0.97476 0.62177 0.59033 0.0
C201 C 0.95786 0.6142 0.66091 0.0
C202 C 0.01178 0.63876 0.58427 0.0
C203 C 0.03348 0.6487 0.64854 0.0
H204 H 0.95931 0.61395 0.53903 0.0
H205 H 0.02334 0.64322 0.5286 0.0
S206 S 0.00279 0.63767 0.84674 0.0
N207 N 0.96597 0.62004 0.79664 0.0
N208 N 0.03547 0.65183 0.78518 0.0
C209 C 0.01706 0.64244 0.71951 0.0
C210 C 0.97932 0.62527 0.72571 0.0
C211 C 0.33471 0.97063 0.92822 0.0
C212 C 0.33456 0.95271 0.99438 0.0
C213 C 0.35676 0.00741 0.92102 0.0
C214 C 0.37994 0.02746 0.97917 0.0
H215 H 0.31815 0.95605 0.88098 0.0
H216 H 0.35658 0.01999 0.86851 0.0
S217 S 0.3879 0.99403 0.16606 0.0
N218 N 0.35803 0.95844 0.12112 0.0
N219 N 0.39977 0.02735 0.1069 0.0
C220 C 0.37921 0.01015 0.04652 0.0
C221 C 0.3564 0.97284 0.05436 0.0
C222 C 0.23625 0.44416 0.93921 0.0
C223 C 0.20345 0.44311 0.93329 0.0
C224 C 0.25089 0.44416 0.00937 0.0
C225 C 0.23354 0.44356 0.07652 0.0
H226 H 0.25088 0.445 0.88923 0.0
H227 H 0.27633 0.44525 0.01083 0.0
S228 S 0.14649 0.4397 0.09237 0.0
N229 N 0.15359 0.4406 0.00104 0.0
N230 N 0.18123 0.44088 0.13283 0.0
C231 C 0.20053 0.44215 0.07158 0.0
C232 C 0.18545 0.44182 5e-05 0.0
C233 C 0.80368 0.24679 0.35154 0.0
C234 C 0.78253 0.23327 0.41642 0.0
C235 C 0.79051 0.23271 0.28027 0.0
C236 C 0.75571 0.20434 0.27079 0.0
H237 H 0.83051 0.2689 0.35543 0.0
H238 H 0.8078 0.24445 0.23219 0.0
S239 S 0.68996 0.15801 0.42312 0.0
N240 N 0.72534 0.18893 0.46686 0.0
N241 N 0.70064 0.16239 0.33318 0.0
C242 C 0.73449 0.18998 0.33543 0.0
C243 C 0.74787 0.20446 0.40806 0.0
C244 C 0.54671 0.7579 0.73556 0.0
C245 C 0.5529 0.7927 0.74378 0.0
C246 C 0.54703 0.74409 0.66468 0.0
C247 C 0.5533 0.76439 0.59885 0.0
H248 H 0.54126 0.74094 0.78422 0.0
H249 H 0.54166 0.71699 0.66158 0.0
S250 S 0.57262 0.85764 0.5894 0.0
N251 N 0.56676 0.84767 0.67974 0.0
N252 N 0.5672 0.82165 0.54669 0.0
C253 C 0.56019 0.79947 0.60622 0.0
C254 C 0.56005 0.81363 0.67855 0.0
C255 C 0.78794 0.55347 0.05006 0.0
C256 C 0.7597 0.56017 0.06001 0.0
C257 C 0.8023 0.55495 0.97878 0.0
C258 C 0.78889 0.56296 0.91419 0.0
H259 H 0.79893 0.54661 0.0976 0.0
H260 H 0.82364 0.549 0.9743 0.0
S261 S 0.71639 0.58466 0.90969 0.0
N262 N 0.7198 0.57668 -0.00085 0.0
N263 N 0.74671 0.57929 0.86524 0.0
C264 C 0.76118 0.57053 0.92338 0.0
C265 C 0.74664 0.56921 0.99617 0.0
C266 C 0.22973 0.72806 0.33879 0.0
C267 C 0.20485 0.7347 0.37487 0.0
C268 C 0.2473 0.74641 0.2735 0.0
C269 C 0.24113 0.77256 0.24209 0.0
H270 H 0.23568 0.70838 0.36093 0.0
H271 H 0.26626 0.74029 0.24809 0.0
S272 S 0.17845 0.80007 0.3147 0.0
N273 N 0.17467 0.76913 0.37403 0.0
N274 N 0.20807 0.80398 0.25167 0.0
C275 C 0.21629 0.77952 0.27747 0.0
C276 C 0.19802 0.76047 0.34365 0.0
C277 C 0.44142 0.23642 0.72864 0.0
C278 C 0.44121 0.20404 0.73452 0.0
C279 C 0.44474 0.25276 0.6588 0.0
C280 C 0.44853 0.23765 0.59214 0.0
H281 H 0.43909 0.24941 0.77844 0.0
H282 H 0.44503 0.2778 0.65731 0.0
S283 S 0.44844 0.15251 0.57606 0.0
N284 N 0.44407 0.15691 0.66695 0.0
N285 N 0.45068 0.18781 0.53593 0.0
C286 C 0.44793 0.20506 0.59695 0.0
C287 C 0.44413 0.18819 0.66801 0.0
C288 C 0.21176 0.41437 0.58043 0.0
C289 C 0.17895 0.40962 0.55546 0.0
C290 C 0.23663 0.41486 0.52974 0.0
C291 C 0.22989 0.41133 0.45206 0.0
H292 H 0.21847 0.41812 0.63964 0.0
H293 H 0.26181 0.41931 0.55143 0.0
S294 S 0.14747 0.39674 0.35796 0.0
N295 N 0.14043 0.3998 0.44814 0.0
N296 N 0.18749 0.40138 0.35264 0.0
C297 C 0.19688 0.40574 0.42641 0.0
C298 C 0.1713 0.40467 0.47818 0.0
C299 C 0.78001 0.22744 0.80682 0.0
C300 C 0.80689 0.222 0.77691 0.0
C301 C 0.76128 0.20961 0.87144 0.0
C302 C 0.76854 0.18551 0.90935 0.0
H303 H 0.77321 0.24569 0.7802 0.0
H304 H 0.74082 0.21485 0.89159 0.0
S305 S 0.8366 0.16182 0.85481 0.0
N306 N 0.84003 0.19079 0.79053 0.0
N307 N 0.80473 0.15719 0.91224 0.0
C308 C 0.79539 0.17976 0.88029 0.0
C309 C 0.81454 0.19798 0.81408 0.0
C310 C 0.6142 0.81466 0.14403 0.0
C311 C 0.58297 0.8105 0.11073 0.0
C312 C 0.61293 0.79466 0.20714 0.0
C313 C 0.58039 0.76969 0.23965 0.0
H314 H 0.63994 0.83353 0.12131 0.0
H315 H 0.63775 0.79886 0.23048 0.0
S316 S 0.49074 0.74873 0.17436 0.0
N317 N 0.51837 0.77942 0.11548 0.0
N318 N 0.51602 0.74206 0.23366 0.0
C319 C 0.54891 0.76527 0.20694 0.0
C320 C 0.55019 0.78558 0.14267 0.0
C321 C 0.77058 0.56142 0.45272 0.0
C322 C 0.77321 0.59317 0.42633 0.0
C323 C 0.78933 0.56087 0.51608 0.0
C324 C 0.81165 0.59205 0.55608 0.0
H325 H 0.75369 0.53652 0.42453 0.0
H326 H 0.78615 0.5356 0.53371 0.0
S327 S 0.82819 0.6824 0.51042 0.0
N328 N 0.80017 0.65683 0.44511 0.0
N329 N 0.83552 0.6558 0.56441 0.0
C330 C 0.81483 0.62413 0.53018 0.0
C331 C 0.79562 0.62469 0.46535 0.0
C332 C 0.16861 0.78378 0.79165 0.0
C333 C 0.18068 0.76527 0.74694 0.0
C334 C 0.18684 0.80165 0.85684 0.0
C335 C 0.21792 0.80181 0.87978 0.0
H336 H 0.14454 0.78402 0.77706 0.0
H337 H 0.17623 0.81517 0.88973 0.0
S338 S 0.26176 0.7589 0.78001 0.0
N339 N 0.22652 0.74936 0.72866 0.0
N340 N 0.26067 0.78281 0.85072 0.0
C341 C 0.23068 0.78397 0.83467 0.0
C342 C 0.2121 0.76576 0.76844 0.0
C343 C 0.40169 0.19634 0.11007 0.0
C344 C 0.41763 0.1758 0.1267 0.0
C345 C 0.39983 0.21877 0.16414 0.0
C346 C 0.41465 0.22205 0.23589 0.0
H347 H 0.39069 0.19518 0.05479 0.0
H348 H 0.38775 0.23449 0.14887 0.0
S349 S 0.45842 0.17342 0.30842 0.0
N350 N 0.44746 0.1594 0.2211 0.0
N351 N 0.44463 0.20214 0.32185 0.0
C352 C 0.43021 0.20134 0.25358 0.0
C353 C 0.4315 0.17803 0.19919 0.0
C354 C 0.39775 0.55962 0.27479 0.0
C355 C 0.37715 0.54286 0.33891 0.0
C356 C 0.43019 0.59126 0.28036 0.0
C357 C 0.44361 0.60742 0.35035 0.0
H358 H 0.38903 0.54803 0.2196 0.0
H359 H 0.44516 0.60268 0.22925 0.0
S360 S 0.39923 0.57545 0.53534 0.0
N361 N 0.3719 0.5457 0.47467 0.0
N362 N 0.43297 0.60509 0.48512 0.0
C363 C 0.42293 0.59147 0.41489 0.0
C364 C 0.3897 0.55927 0.40916 0.0
C365 C 0.83934 0.4375 0.60209 0.0
C366 C 0.83647 0.45216 0.67037 0.0
C367 C 0.83879 0.40505 0.60012 0.0
C368 C 0.83531 0.38581 0.66636 0.0
H369 H 0.84273 0.45147 0.54955 0.0
H370 H 0.84177 0.39535 0.54614 0.0
S371 S 0.82408 0.41117 0.85947 0.0
N372 N 0.82803 0.44391 0.80574 0.0
N373 N 0.82696 0.38296 0.80207 0.0
C374 C 0.83134 0.39962 0.73491 0.0
C375 C 0.83194 0.43275 0.73692 0.0
C376 C 0.4366 0.84591 0.93304 0.0
C377 C 0.45345 0.84476 -0.00031 0.0
C378 C 0.40398 0.84508 0.93468 0.0
C379 C 0.38676 0.84303 0.00303 0.0
H380 H 0.44877 0.84776 0.87885 0.0
H381 H 0.39237 0.84631 0.88168 0.0
S382 S 0.41917 0.83853 0.19379 0.0
N383 N 0.45003 0.8408 0.13632 0.0
N384 N 0.38878 0.83923 0.13936 0.0
C385 C 0.40303 0.84135 0.07021 0.0
C386 C 0.43632 0.84222 0.06855 0.0
C387 C 0.59856 0.43789 0.38779 0.0
C388 C 0.61359 0.45269 0.31755 0.0
C389 C 0.56737 0.40502 0.39323 0.0
C390 C 0.54994 0.38537 0.3287 0.0
H391 H 0.6105 0.45212 0.43928 0.0
H392 H 0.55661 0.39523 0.44869 0.0
S393 S 0.57971 0.41112 0.13122 0.0
N394 N 0.60961 0.44431 0.18194 0.0
N395 N 0.55108 0.38247 0.19208 0.0
C396 C 0.56529 0.3993 0.25806 0.0
C397 C 0.59702 0.43294 0.25251 0.0
C398 C 0.15256 0.58462 0.58709 0.0
C399 C 0.15429 0.60479 0.65038 0.0
C400 C 0.1536 0.55305 0.59451 0.0
C401 C 0.15609 0.54019 0.66558 0.0
H402 H 0.1501 0.59306 0.53117 0.0
H403 H 0.15163 0.53826 0.54409 0.0
S404 S 0.16332 0.58382 0.84908 0.0
N405 N 0.16012 0.61019 0.78664 0.0
N406 N 0.16185 0.55088 0.80038 0.0
C407 C 0.15857 0.56042 0.72928 0.0
C408 C 0.15775 0.59269 0.72174 0.0
C409 C 0.58206 0.1471 0.93719 0.0
C410 C 0.60185 0.15696 0.00424 0.0
C411 C 0.55126 0.14951 0.92976 0.0
C412 C 0.5392 0.16235 0.98866 0.0
H413 H 0.59001 0.13681 0.89025 0.0
H414 H 0.53675 0.14114 0.87729 0.0
S415 S 0.58185 0.19264 0.17536 0.0
N416 N 0.60747 0.18072 0.13045 0.0
N417 N 0.54974 0.18555 0.11615 0.0
C418 C 0.55905 0.17295 0.05561 0.0
C419 C 0.59027 0.17014 0.06351 0.0
loop_
_geom_bond_atom_site_label_1
_geom_bond_atom_site_label_2
_geom_bond_distance
_geom_bond_site_symmetry_2
_ccdc_geom_bond_type
C0 O1 1.160 . S
C0 O7 1.185 . S
O1 C0 1.160 . S
O2 Zn3 1.899 . S
O2 C10 1.284 . S
Zn3 O2 1.899 . S
Zn3 O4 2.032 . S
Zn3 O7 2.086 . S
Zn3 O12 1.977 . S
O4 Zn3 2.032 . S
O4 C8 1.278 . S
C5 O6 1.203 . S
C5 O12 1.267 . S
O6 C5 1.203 . S
O7 C0 1.185 . S
O7 Zn3 2.086 . S
C8 O4 1.278 . S
C8 O9 1.211 . S
O9 C8 1.211 . S
C10 O2 1.284 . S
C10 O11 1.273 . S
O11 C10 1.273 . S
O12 Zn3 1.977 . S
O12 C5 1.267 . S
C13 O14 1.160 . S
C13 O20 1.185 . S
O14 C13 1.160 . S
O15 Zn16 1.899 . S
O15 C23 1.284 . S
Zn16 O15 1.899 . S
Zn16 O17 2.032 . S
Zn16 O20 2.086 . S
Zn16 O25 1.977 . S
O17 Zn16 2.032 . S
O17 C21 1.278 . S
C18 O19 1.203 . S
C18 O25 1.267 . S
O19 C18 1.203 . S
O20 C13 1.185 . S
O20 Zn16 2.086 . S
C21 O17 1.278 . S
C21 O22 1.211 . S
O22 C21 1.211 . S
C23 O15 1.284 . S
C23 O24 1.273 . S
O24 C23 1.273 . S
O25 Zn16 1.977 . S
O25 C18 1.267 . S
C26 O27 1.160 . S
C26 O33 1.185 . S
O27 C26 1.160 . S
O28 Zn29 1.899 . S
O28 C36 1.284 . S
Zn29 O28 1.899 . S
Zn29 O30 2.032 . S
Zn29 O33 2.086 . S
Zn29 O38 1.977 . S
O30 Zn29 2.032 . S
O30 C34 1.278 1_556 S
C31 O32 1.203 1_556 S
C31 O38 1.267 . S
O32 C31 1.203 1_554 S
O33 C26 1.185 . S
O33 Zn29 2.086 . S
C34 O30 1.278 1_554 S
C34 O35 1.211 . S
O35 C34 1.211 . S
C36 O28 1.284 . S
C36 O37 1.273 1_556 S
O37 C36 1.273 1_554 S
O38 Zn29 1.977 . S
O38 C31 1.267 . S
C39 O40 1.160 . S
C39 O46 1.185 . S
O40 C39 1.160 . S
O41 Zn42 1.899 . S
O41 C49 1.284 . S
Zn42 O41 1.899 . S
Zn42 O43 2.032 . S
Zn42 O46 2.086 . S
Zn42 O51 1.977 . S
O43 Zn42 2.032 . S
O43 C47 1.278 . S
C44 O45 1.203 . S
C44 O51 1.267 . S
O45 C44 1.203 . S
O46 C39 1.185 . S
O46 Zn42 2.086 . S
C47 O43 1.278 . S
C47 O48 1.211 . S
O48 C47 1.211 . S
C49 O41 1.284 . S
C49 O50 1.273 . S
O50 C49 1.273 . S
O51 Zn42 1.977 . S
O51 C44 1.267 . S
C52 O53 1.160 . S
C52 O59 1.185 . S
O53 C52 1.160 . S
O54 Zn55 1.899 . S
O54 C62 1.284 . S
Zn55 O54 1.899 . S
Zn55 O56 2.032 . S
Zn55 O59 2.086 . S
Zn55 O64 1.977 . S
O56 Zn55 2.032 . S
O56 C60 1.278 . S
C57 O58 1.203 . S
C57 O64 1.267 . S
O58 C57 1.203 . S
O59 C52 1.185 . S
O59 Zn55 2.086 . S
C60 O56 1.278 . S
C60 O61 1.211 . S
O61 C60 1.211 . S
C62 O54 1.284 . S
C62 O63 1.273 . S
O63 C62 1.273 . S
O64 Zn55 1.977 . S
O64 C57 1.267 . S
C65 O66 1.160 . S
C65 O72 1.185 . S
O66 C65 1.160 . S
O67 Zn68 1.899 . S
O67 C75 1.284 . S
Zn68 O67 1.899 . S
Zn68 O69 2.032 . S
Zn68 O72 2.086 . S
Zn68 O77 1.977 . S
O69 Zn68 2.032 . S
O69 C73 1.278 1_556 S
C70 O71 1.203 1_556 S
C70 O77 1.267 . S
O71 C70 1.203 1_554 S
O72 C65 1.185 . S
O72 Zn68 2.086 . S
C73 O69 1.278 1_554 S
C73 O74 1.211 . S
O74 C73 1.211 . S
C75 O67 1.284 . S
C75 O76 1.273 1_556 S
O76 C75 1.273 1_554 S
O77 Zn68 1.977 . S
O77 C70 1.267 . S
C78 O79 1.160 . S
C78 O85 1.185 . S
O79 C78 1.160 . S
O80 Zn81 1.899 . S
O80 C88 1.284 . S
Zn81 O80 1.899 . S
Zn81 O82 2.032 . S
Zn81 O85 2.086 . S
Zn81 O90 1.977 . S
O82 Zn81 2.032 . S
O82 C86 1.278 . S
C83 O84 1.203 . S
C83 O90 1.267 . S
O84 C83 1.203 . S
O85 C78 1.185 . S
O85 Zn81 2.086 . S
C86 O82 1.278 . S
C86 O87 1.211 . S
O87 C86 1.211 . S
C88 O80 1.284 . S
C88 O89 1.273 . S
O89 C88 1.273 . S
O90 Zn81 1.977 . S
O90 C83 1.267 . S
C91 O92 1.160 . S
C91 O98 1.185 . S
O92 C91 1.160 . S
O93 Zn94 1.899 . S
O93 C101 1.284 . S
Zn94 O93 1.899 . S
Zn94 O95 2.032 . S
Zn94 O98 2.086 . S
Zn94 O103 1.977 . S
O95 Zn94 2.032 . S
O95 C99 1.278 . S
C96 O97 1.203 . S
C96 O103 1.267 . S
O97 C96 1.203 . S
O98 C91 1.185 . S
O98 Zn94 2.086 . S
C99 O95 1.278 . S
C99 O100 1.211 . S
O100 C99 1.211 . S
C101 O93 1.284 . S
C101 O102 1.273 . S
O102 C101 1.273 . S
O103 Zn94 1.977 . S
O103 C96 1.267 . S
C104 O105 1.160 . S
C104 O111 1.185 . S
O105 C104 1.160 . S
O106 Zn107 1.899 . S
O106 C114 1.284 . S
Zn107 O106 1.899 . S
Zn107 O108 2.032 . S
Zn107 O111 2.086 . S
Zn107 O116 1.977 . S
O108 Zn107 2.032 . S
O108 C112 1.278 1_554 S
C109 O110 1.203 1_554 S
C109 O116 1.267 . S
O110 C109 1.203 1_556 S
O111 C104 1.185 . S
O111 Zn107 2.086 . S
C112 O108 1.278 1_556 S
C112 O113 1.211 . S
O113 C112 1.211 . S
C114 O106 1.284 . S
C114 O115 1.273 1_554 S
O115 C114 1.273 1_556 S
O116 Zn107 1.977 . S
O116 C109 1.267 . S
C117 O118 1.160 . S
C117 O124 1.185 . S
O118 C117 1.160 . S
O119 Zn120 1.899 . S
O119 C127 1.284 . S
Zn120 O119 1.899 . S
Zn120 O121 2.032 . S
Zn120 O124 2.086 . S
Zn120 O129 1.977 . S
O121 Zn120 2.032 . S
O121 C125 1.278 . S
C122 O123 1.203 . S
C122 O129 1.267 . S
O123 C122 1.203 . S
O124 C117 1.185 . S
O124 Zn120 2.086 . S
C125 O121 1.278 . S
C125 O126 1.211 . S
O126 C125 1.211 . S
C127 O119 1.284 . S
C127 O128 1.273 . S
O128 C127 1.273 . S
O129 Zn120 1.977 . S
O129 C122 1.267 . S
C130 O131 1.160 . S
C130 O137 1.185 . S
O131 C130 1.160 . S
O132 Zn133 1.899 . S
O132 C140 1.284 . S
Zn133 O132 1.899 . S
Zn133 O134 2.032 . S
Zn133 O137 2.086 . S
Zn133 O142 1.977 . S
O134 Zn133 2.032 . S
O134 C138 1.278 . S
C135 O136 1.203 . S
C135 O142 1.267 . S
O136 C135 1.203 . S
O137 C130 1.185 . S
O137 Zn133 2.086 . S
C138 O134 1.278 . S
C138 O139 1.211 . S
O139 C138 1.211 . S
C140 O132 1.284 . S
C140 O141 1.273 . S
O141 C140 1.273 . S
O142 Zn133 1.977 . S
O142 C135 1.267 . S
C143 O144 1.160 . S
C143 O150 1.185 . S
O144 C143 1.160 . S
O145 Zn146 1.899 . S
O145 C153 1.284 . S
Zn146 O145 1.899 . S
Zn146 O147 2.032 . S
Zn146 O150 2.086 . S
Zn146 O155 1.977 . S
O147 Zn146 2.032 . S
O147 C151 1.278 1_554 S
C148 O149 1.203 1_554 S
C148 O155 1.267 . S
O149 C148 1.203 1_556 S
O150 C143 1.185 . S
O150 Zn146 2.086 . S
C151 O147 1.278 1_556 S
C151 O152 1.211 . S
O152 C151 1.211 . S
C153 O145 1.284 . S
C153 O154 1.273 1_554 S
O154 C153 1.273 1_556 S
O155 Zn146 1.977 . S
O155 C148 1.267 . S
C156 C157 1.369 . S
C156 C158 1.419 . S
C156 H160 0.930 . S
C157 C156 1.369 . S
C157 C166 1.429 . S
C158 C156 1.419 . S
C158 C159 1.363 . S
C158 H161 0.929 . S
C159 C158 1.363 . S
C159 C165 1.428 . S
H160 C156 0.930 . S
H161 C158 0.929 . S
S162 N163 1.613 . S
S162 N164 1.610 . S
N163 S162 1.613 . S
N163 C166 1.350 . S
N164 S162 1.610 . S
N164 C165 1.351 . S
C165 C159 1.428 . S
C165 N164 1.351 . S
C165 C166 1.434 . S
C166 C157 1.429 . S
C166 N163 1.350 . S
C166 C165 1.434 . S
C167 C168 1.369 . S
C167 C169 1.419 1_655 S
C167 H171 0.930 . S
C168 C167 1.369 . S
C168 C177 1.429 . S
C169 C167 1.419 1_455 S
C169 C170 1.363 . S
C169 H172 0.929 . S
C170 C169 1.363 . S
C170 C176 1.428 . S
H171 C167 0.930 . S
H172 C169 0.929 . S
S173 N174 1.613 . S
S173 N175 1.610 1_655 S
N174 S173 1.613 . S
N174 C177 1.350 . S
N175 S173 1.610 1_455 S
N175 C176 1.351 . S
C176 C170 1.428 . S
C176 N175 1.351 . S
C176 C177 1.434 1_455 S
C177 C168 1.429 . S
C177 N174 1.350 . S
C177 C176 1.434 1_655 S
C178 C179 1.369 1_554 S
C178 C180 1.419 1_565 S
C178 H182 0.930 . S
C179 C178 1.369 1_556 S
C179 C188 1.429 . S
C180 C178 1.419 1_545 S
C180 C181 1.363 . S
C180 H183 0.929 . S
C181 C180 1.363 . S
C181 C187 1.428 1_554 S
H182 C178 0.930 . S
H183 C180 0.929 . S
S184 N185 1.613 1_545 S
S184 N186 1.610 . S
N185 S184 1.613 1_565 S
N185 C188 1.350 . S
N186 S184 1.610 . S
N186 C187 1.351 . S
C187 C181 1.428 1_556 S
C187 N186 1.351 . S
C187 C188 1.434 1_545 S
C188 C179 1.429 . S
C188 N185 1.350 . S
C188 C187 1.434 1_565 S
C189 C190 1.369 . S
C189 C191 1.419 . S
C189 H193 0.930 . S
C190 C189 1.369 . S
C190 C199 1.429 . S
C191 C189 1.419 . S
C191 C192 1.363 . S
C191 H194 0.929 . S
C192 C191 1.363 . S
C192 C198 1.428 . S
H193 C189 0.930 . S
H194 C191 0.929 . S
S195 N196 1.613 . S
S195 N197 1.610 . S
N196 S195 1.613 . S
N196 C199 1.350 . S
N197 S195 1.610 . S
N197 C198 1.351 . S
C198 C192 1.428 . S
C198 N197 1.351 . S
C198 C199 1.434 . S
C199 C190 1.429 . S
C199 N196 1.350 . S
C199 C198 1.434 . S
C200 C201 1.369 . S
C200 C202 1.419 1_655 S
C200 H204 0.930 . S
C201 C200 1.369 . S
C201 C210 1.429 . S
C202 C200 1.419 1_455 S
C202 C203 1.363 . S
C202 H205 0.929 . S
C203 C202 1.363 . S
C203 C209 1.428 . S
H204 C200 0.930 . S
H205 C202 0.929 . S
S206 N207 1.613 1_455 S
S206 N208 1.610 . S
N207 S206 1.613 1_655 S
N207 C210 1.350 . S
N208 S206 1.610 . S
N208 C209 1.351 . S
C209 C203 1.428 . S
C209 N208 1.351 . S
C209 C210 1.434 1_455 S
C210 C201 1.429 . S
C210 N207 1.350 . S
C210 C209 1.434 1_655 S
C211 C212 1.369 1_556 S
C211 C213 1.419 1_565 S
C211 H215 0.930 . S
C212 C211 1.369 1_554 S
C212 C221 1.429 . S
C213 C211 1.419 1_545 S
C213 C214 1.363 . S
C213 H216 0.929 . S
C214 C213 1.363 . S
C214 C220 1.428 1_556 S
H215 C211 0.930 . S
H216 C213 0.929 . S
S217 N218 1.613 1_545 S
S217 N219 1.610 . S
N218 S217 1.613 1_565 S
N218 C221 1.350 . S
N219 S217 1.610 . S
N219 C220 1.351 . S
C220 C214 1.428 1_554 S
C220 N219 1.351 . S
C220 C221 1.434 1_545 S
C221 C212 1.429 . S
C221 N218 1.350 . S
C221 C220 1.434 1_565 S
C222 C223 1.369 . S
C222 C224 1.419 . S
C222 H226 0.930 . S
C223 C222 1.369 . S
C223 C232 1.429 1_556 S
C224 C222 1.419 . S
C224 C225 1.363 1_556 S
C224 H227 0.929 . S
C225 C224 1.363 1_554 S
C225 C231 1.428 . S
H226 C222 0.930 . S
H227 C224 0.929 . S
S228 N229 1.613 . S
S228 N230 1.610 . S
N229 S228 1.613 . S
N229 C232 1.350 . S
N230 S228 1.610 . S
N230 C231 1.351 . S
C231 C225 1.428 . S
C231 N230 1.351 . S
C231 C232 1.434 . S
C232 C223 1.429 1_554 S
C232 N229 1.350 . S
C232 C231 1.434 . S
C233 C234 1.369 . S
C233 C235 1.419 . S
C233 H237 0.930 . S
C234 C233 1.369 . S
C234 C243 1.429 . S
C235 C233 1.419 . S
C235 C236 1.363 . S
C235 H238 0.929 . S
C236 C235 1.363 . S
C236 C242 1.428 . S
H237 C233 0.930 . S
H238 C235 0.929 . S
S239 N240 1.613 . S
S239 N241 1.610 . S
N240 S239 1.613 . S
N240 C243 1.350 . S
N241 S239 1.610 . S
N241 C242 1.351 . S
C242 C236 1.428 . S
C242 N241 1.351 . S
C242 C243 1.434 . S
C243 C234 1.429 . S
C243 N240 1.350 . S
C243 C242 1.434 . S
C244 C245 1.369 . S
C244 C246 1.419 . S
C244 H248 0.930 . S
C245 C244 1.369 . S
C245 C254 1.429 . S
C246 C244 1.419 . S
C246 C247 1.363 . S
C246 H249 0.929 . S
C247 C246 1.363 . S
C247 C253 1.428 . S
H248 C244 0.930 . S
H249 C246 0.929 . S
S250 N251 1.613 . S
S250 N252 1.610 . S
N251 S250 1.613 . S
N251 C254 1.350 . S
N252 S250 1.610 . S
N252 C253 1.351 . S
C253 C247 1.428 . S
C253 N252 1.351 . S
C253 C254 1.434 . S
C254 C245 1.429 . S
C254 N251 1.350 . S
C254 C253 1.434 . S
C255 C256 1.369 . S
C255 C257 1.419 1_554 S
C255 H259 0.930 . S
C256 C255 1.369 . S
C256 C265 1.429 . S
C257 C255 1.419 1_556 S
C257 C258 1.363 . S
C257 H260 0.929 . S
C258 C257 1.363 . S
C258 C264 1.428 . S
H259 C255 0.930 . S
H260 C257 0.929 . S
S261 N262 1.613 . S
S261 N263 1.610 . S
N262 S261 1.613 . S
N262 C265 1.350 1_556 S
N263 S261 1.610 . S
N263 C264 1.351 . S
C264 C258 1.428 . S
C264 N263 1.351 . S
C264 C265 1.434 1_556 S
C265 C256 1.429 . S
C265 N262 1.350 1_554 S
C265 C264 1.434 1_554 S
C266 C267 1.369 . S
C266 C268 1.419 . S
C266 H270 0.930 . S
C267 C266 1.369 . S
C267 C276 1.429 . S
C268 C266 1.419 . S
C268 C269 1.363 . S
C268 H271 0.929 . S
C269 C268 1.363 . S
C269 C275 1.428 . S
H270 C266 0.930 . S
H271 C268 0.929 . S
S272 N273 1.613 . S
S272 N274 1.610 . S
N273 S272 1.613 . S
N273 C276 1.350 . S
N274 S272 1.610 . S
N274 C275 1.351 . S
C275 C269 1.428 . S
C275 N274 1.351 . S
C275 C276 1.434 . S
C276 C267 1.429 . S
C276 N273 1.350 . S
C276 C275 1.434 . S
C277 C278 1.369 . S
C277 C279 1.419 . S
C277 H281 0.930 . S
C278 C277 1.369 . S
C278 C287 1.429 . S
C279 C277 1.419 . S
C279 C280 1.363 . S
C279 H282 0.929 . S
C280 C279 1.363 . S
C280 C286 1.428 . S
H281 C277 0.930 . S
H282 C279 0.929 . S
S283 N284 1.613 . S
S283 N285 1.610 . S
N284 S283 1.613 . S
N284 C287 1.350 . S
N285 S283 1.610 . S
N285 C286 1.351 . S
C286 C280 1.428 . S
C286 N285 1.351 . S
C286 C287 1.434 . S
C287 C278 1.429 . S
C287 N284 1.350 . S
C287 C286 1.434 . S
C288 C289 1.369 . S
C288 C290 1.419 . S
C288 H292 0.930 . S
C289 C288 1.369 . S
C289 C298 1.429 . S
C290 C288 1.419 . S
C290 C291 1.363 . S
C290 H293 0.929 . S
C291 C290 1.363 . S
C291 C297 1.428 . S
H292 C288 0.930 . S
H293 C290 0.929 . S
S294 N295 1.613 . S
S294 N296 1.610 . S
N295 S294 1.613 . S
N295 C298 1.350 . S
N296 S294 1.610 . S
N296 C297 1.351 . S
C297 C291 1.428 . S
C297 N296 1.351 . S
C297 C298 1.434 . S
C298 C289 1.429 . S
C298 N295 1.350 . S
C298 C297 1.434 . S
C299 C300 1.369 . S
C299 C301 1.419 . S
C299 H303 0.930 . S
C300 C299 1.369 . S
C300 C309 1.429 . S
C301 C299 1.419 . S
C301 C302 1.363 . S
C301 H304 0.929 . S
C302 C301 1.363 . S
C302 C308 1.428 . S
H303 C299 0.930 . S
H304 C301 0.929 . S
S305 N306 1.613 . S
S305 N307 1.610 . S
N306 S305 1.613 . S
N306 C309 1.350 . S
N307 S305 1.610 . S
N307 C308 1.351 . S
C308 C302 1.428 . S
C308 N307 1.351 . S
C308 C309 1.434 . S
C309 C300 1.429 . S
C309 N306 1.350 . S
C309 C308 1.434 . S
C310 C311 1.369 . S
C310 C312 1.419 . S
C310 H314 0.930 . S
C311 C310 1.369 . S
C311 C320 1.429 . S
C312 C310 1.419 . S
C312 C313 1.363 . S
C312 H315 0.929 . S
C313 C312 1.363 . S
C313 C319 1.428 . S
H314 C310 0.930 . S
H315 C312 0.929 . S
S316 N317 1.613 . S
S316 N318 1.610 . S
N317 S316 1.613 . S
N317 C320 1.350 . S
N318 S316 1.610 . S
N318 C319 1.351 . S
C319 C313 1.428 . S
C319 N318 1.351 . S
C319 C320 1.434 . S
C320 C311 1.429 . S
C320 N317 1.350 . S
C320 C319 1.434 . S
C321 C322 1.369 . S
C321 C323 1.419 . S
C321 H325 0.930 . S
C322 C321 1.369 . S
C322 C331 1.429 . S
C323 C321 1.419 . S
C323 C324 1.363 . S
C323 H326 0.929 . S
C324 C323 1.363 . S
C324 C330 1.428 . S
H325 C321 0.930 . S
H326 C323 0.929 . S
S327 N328 1.613 . S
S327 N329 1.610 . S
N328 S327 1.613 . S
N328 C331 1.350 . S
N329 S327 1.610 . S
N329 C330 1.351 . S
C330 C324 1.428 . S
C330 N329 1.351 . S
C330 C331 1.434 . S
C331 C322 1.429 . S
C331 N328 1.350 . S
C331 C330 1.434 . S
C332 C333 1.369 . S
C332 C334 1.419 . S
C332 H336 0.930 . S
C333 C332 1.369 . S
C333 C342 1.429 . S
C334 C332 1.419 . S
C334 C335 1.363 . S
C334 H337 0.929 . S
C335 C334 1.363 . S
C335 C341 1.428 . S
H336 C332 0.930 . S
H337 C334 0.929 . S
S338 N339 1.613 . S
S338 N340 1.610 . S
N339 S338 1.613 . S
N339 C342 1.350 . S
N340 S338 1.610 . S
N340 C341 1.351 . S
C341 C335 1.428 . S
C341 N340 1.351 . S
C341 C342 1.434 . S
C342 C333 1.429 . S
C342 N339 1.350 . S
C342 C341 1.434 . S
C343 C344 1.369 . S
C343 C345 1.419 . S
C343 H347 0.930 . S
C344 C343 1.369 . S
C344 C353 1.429 . S
C345 C343 1.419 . S
C345 C346 1.363 . S
C345 H348 0.929 . S
C346 C345 1.363 . S
C346 C352 1.428 . S
H347 C343 0.930 . S
H348 C345 0.929 . S
S349 N350 1.613 . S
S349 N351 1.610 . S
N350 S349 1.613 . S
N350 C353 1.350 . S
N351 S349 1.610 . S
N351 C352 1.351 . S
C352 C346 1.428 . S
C352 N351 1.351 . S
C352 C353 1.434 . S
C353 C344 1.429 . S
C353 N350 1.350 . S
C353 C352 1.434 . S
C354 C355 1.369 . S
C354 C356 1.419 . S
C354 H358 0.930 . S
C355 C354 1.369 . S
C355 C364 1.429 . S
C356 C354 1.419 . S
C356 C357 1.363 . S
C356 H359 0.929 . S
C357 C356 1.363 . S
C357 C363 1.428 . S
H358 C354 0.930 . S
H359 C356 0.929 . S
S360 N361 1.613 . S
S360 N362 1.610 . S
N361 S360 1.613 . S
N361 C364 1.350 . S
N362 S360 1.610 . S
N362 C363 1.351 . S
C363 C357 1.428 . S
C363 N362 1.351 . S
C363 C364 1.434 . S
C364 C355 1.429 . S
C364 N361 1.350 . S
C364 C363 1.434 . S
C365 C366 1.369 . S
C365 C367 1.419 . S
C365 H369 0.930 . S
C366 C365 1.369 . S
C366 C375 1.429 . S
C367 C365 1.419 . S
C367 C368 1.363 . S
C367 H370 0.929 . S
C368 C367 1.363 . S
C368 C374 1.428 . S
H369 C365 0.930 . S
H370 C367 0.929 . S
S371 N372 1.613 . S
S371 N373 1.610 . S
N372 S371 1.613 . S
N372 C375 1.350 . S
N373 S371 1.610 . S
N373 C374 1.351 . S
C374 C368 1.428 . S
C374 N373 1.351 . S
C374 C375 1.434 . S
C375 C366 1.429 . S
C375 N372 1.350 . S
C375 C374 1.434 . S
C376 C377 1.369 . S
C376 C378 1.419 1_556 S
C376 H380 0.930 . S
C377 C376 1.369 . S
C377 C386 1.425 1_556 S
C378 C376 1.419 1_554 S
C378 C379 1.363 . S
C378 H381 0.929 . S
C379 C378 1.363 . S
C379 C385 1.428 . S
H380 C376 0.930 . S
H381 C378 0.929 . S
S382 N383 1.613 . S
S382 N384 1.610 . S
N383 S382 1.613 . S
N383 C386 1.351 . S
N384 S382 1.610 . S
N384 C385 1.351 . S
C385 C379 1.428 . S
C385 N384 1.351 . S
C385 C386 1.437 . S
C386 C377 1.425 1_554 S
C386 N383 1.351 . S
C386 C385 1.437 . S
C387 C388 1.369 . S
C387 C389 1.419 . S
C387 H391 0.930 . S
C388 C387 1.369 . S
C388 C397 1.429 . S
C389 C387 1.419 . S
C389 C390 1.363 . S
C389 H392 0.929 . S
C390 C389 1.363 . S
C390 C396 1.428 . S
H391 C387 0.930 . S
H392 C389 0.929 . S
S393 N394 1.613 . S
S393 N395 1.610 . S
N394 S393 1.613 . S
N394 C397 1.350 . S
N395 S393 1.610 . S
N395 C396 1.351 . S
C396 C390 1.428 . S
C396 N395 1.351 . S
C396 C397 1.434 . S
C397 C388 1.429 . S
C397 N394 1.350 . S
C397 C396 1.434 . S
C398 C399 1.369 . S
C398 C400 1.419 . S
C398 H402 0.930 . S
C399 C398 1.369 . S
C399 C408 1.429 . S
C400 C398 1.419 . S
C400 C401 1.363 . S
C400 H403 0.929 . S
C401 C400 1.363 . S
C401 C407 1.428 . S
H402 C398 0.930 . S
H403 C400 0.929 . S
S404 N405 1.613 . S
S404 N406 1.610 . S
N405 S404 1.613 . S
N405 C408 1.350 . S
N406 S404 1.610 . S
N406 C407 1.351 . S
C407 C401 1.428 . S
C407 N406 1.351 . S
C407 C408 1.434 . S
C408 C399 1.429 . S
C408 N405 1.350 . S
C408 C407 1.434 . S
C409 C410 1.369 1_556 S
C409 C411 1.419 . S
C409 H413 0.930 . S
C410 C409 1.369 1_554 S
C410 C419 1.429 . S
C411 C409 1.419 . S
C411 C412 1.363 . S
C411 H414 0.929 . S
C412 C411 1.363 . S
C412 C418 1.428 1_556 S
H413 C409 0.930 . S
H414 C411 0.929 . S
S415 N416 1.613 . S
S415 N417 1.610 . S
N416 S415 1.613 . S
N416 C419 1.350 . S
N417 S415 1.610 . S
N417 C418 1.351 . S
C418 C412 1.428 1_554 S
C418 N417 1.351 . S
C418 C419 1.434 . S
C419 C410 1.429 . S
C419 N416 1.350 . S
C419 C418 1.434 . S
C157 C5 1.364 . S
C159 C122 1.360 . S
C168 C18 1.355 . S
C170 C135 1.359 . S
C179 C31 1.364 . S
C181 C148 1.360 . S
C190 C44 1.354 . S
C192 C83 1.357 . S
C201 C96 1.359 . S
C203 C57 1.356 . S
C212 C109 1.364 . S
C214 C70 1.359 . S
C223 C130 1.556 . S
C225 C0 1.558 . S
C234 C13 1.559 . S
C236 C143 1.557 . S
C245 C26 1.557 . S
C247 C78 1.559 . S
C256 C39 1.558 . S
C258 C91 1.560 . S
C267 C52 1.562 . S
C269 C104 1.561 . S
C278 C65 1.557 . S
C280 C117 1.559 . S
C289 C138 1.104 . S
C291 C8 1.107 . S
C300 C21 1.105 . S
C302 C151 1.106 . S
C311 C34 1.106 . S
C313 C86 1.108 . S
C322 C47 1.105 . S
C324 C99 1.106 . S
C333 C60 1.107 . S
C335 C112 1.107 . S
C344 C73 1.102 . S
C346 C125 1.109 . S
C355 C10 1.537 . S
C357 C88 1.541 . S
C366 C101 1.542 . S
C368 C23 1.538 . S
C377 C36 1.538 . S
C379 C114 1.541 . S
C388 C49 1.542 . S
C390 C127 1.538 . S
C399 C62 1.536 . S
C401 C140 1.541 . S
C410 C153 1.542 . S
C412 C75 1.537 . S
