# Generated by pormake.
# Topology unh, (4)-cn, num edge types: 1
# Building blocks:
#     Node 0, Type 0, BuildingBlock: QUQFOY_clean_sbu_1, # of connection points: 4
#     Node 1, Type 0, BuildingBlock: QUQFOY_clean_sbu_1, # of connection points: 4
#     Node 2, Type 0, BuildingBlock: QUQFOY_clean_sbu_1, # of connection points: 4
#     Node 3, Type 0, BuildingBlock: QUQFOY_clean_sbu_1, # of connection points: 4
#     Node 4, Type 0, BuildingBlock: QUQFOY_clean_sbu_1, # of connection points: 4
#     Node 5, Type 0, BuildingBlock: QUQFOY_clean_sbu_1, # of connection points: 4
#     Edge 6, Type (0, 0), BuildingBlock: CIFDUS_clean_linker_0, # of connection points: 2
#     Edge 7, Type (0, 0), BuildingBlock: CIFDUS_clean_linker_0, # of connection points: 2
#     Edge 8, Type (0, 0), BuildingBlock: CIFDUS_clean_linker_0, # of connection points: 2
#     Edge 9, Type (0, 0), BuildingBlock: CIFDUS_clean_linker_0, # of connection points: 2
#     Edge 10, Type (0, 0), BuildingBlock: CIFDUS_clean_linker_0, # of connection points: 2
#     Edge 11, Type (0, 0), BuildingBlock: CIFDUS_clean_linker_0, # of connection points: 2
#     Edge 12, Type (0, 0), BuildingBlock: CIFDUS_clean_linker_0, # of connection points: 2
#     Edge 13, Type (0, 0), BuildingBlock: CIFDUS_clean_linker_0, # of connection points: 2
#     Edge 14, Type (0, 0), BuildingBlock: CIFDUS_clean_linker_0, # of connection points: 2
#     Edge 15, Type (0, 0), BuildingBlock: CIFDUS_clean_linker_0, # of connection points: 2
#     Edge 16, Type (0, 0), BuildingBlock: CIFDUS_clean_linker_0, # of connection points: 2
#     Edge 17, Type (0, 0), BuildingBlock: CIFDUS_clean_linker_0, # of connection points: 2
# Relax obj value: 0.055
# Max RMSD: 0.146
# Mean RMSD: 0.146
data_MOF--net-unh--node1-QUQFOY_clean_sbu_1--edge1-CIFDUS_clean_linker_0
_symmetry_space_group_name_H-M    P1
_symmetry_Int_Tables_number       1
_symmetry_cell_setting            triclinic
loop_
_symmetry_equiv_pos_as_xyz
'x, y, z'
_cell_length_a     38.43597
_cell_length_b     38.287675
_cell_length_c     20.032065
_cell_angle_alpha  89.9182
_cell_angle_beta   90.200182
_cell_angle_gamma 119.88004
loop_
_atom_site_label
_atom_site_type_symbol
_atom_site_fract_x
_atom_site_fract_y
_atom_site_fract_z
_atom_type_partial_charge
O0 O 0.08095 0.57097 0.02696 0.0
Cd1 Cd 0.12192 0.6072 0.09728 0.0
Cd2 Cd 0.16064 0.56707 0.0564 0.0
O3 O 0.10683 0.53208 0.00512 0.0
O4 O 0.09215 0.61757 0.16941 0.0
O5 O 0.12131 0.58065 0.1828 0.0
C6 C 0.09925 0.59425 0.20677 0.0
C7 C 0.19144 0.54073 0.12499 0.0
C8 C 0.0791 0.5408 0.99717 0.0
C9 C 0.20025 0.65716 0.03085 0.0
O10 O 0.19978 0.62414 0.02071 0.0
O11 O 0.17252 0.65822 0.06367 0.0
O12 O 0.19184 0.53772 0.06086 0.0
O13 O 0.17154 0.55646 0.14998 0.0
O14 O 0.53762 0.08201 0.16393 0.0
Cd15 Cd 0.53524 0.11771 0.2393 0.0
Cd16 Cd 0.61116 0.16619 0.20143 0.0
O17 O 0.60301 0.11664 0.14776 0.0
O18 O 0.49447 0.08104 0.30517 0.0
O19 O 0.55965 0.11632 0.32678 0.0
C20 C 0.52391 0.08997 0.34581 0.0
C21 C 0.66992 0.20601 0.26249 0.0
C22 C 0.56898 0.08594 0.13564 0.0
C23 C 0.55108 0.19407 0.17745 0.0
O24 O 0.58501 0.19787 0.16362 0.0
O25 O 0.52605 0.16497 0.21322 0.0
O26 O 0.66947 0.20673 0.19818 0.0
O27 O 0.63724 0.18089 0.29261 0.0
O28 O 0.43923 0.50669 0.36275 0.0
Cd29 Cd 0.40398 0.51254 0.43334 0.0
Cd30 Cd 0.44606 0.59082 0.39649 0.0
O31 O 0.48131 0.5715 0.34785 0.0
O32 O 0.38967 0.46852 0.49988 0.0
O33 O 0.42995 0.53322 0.52192 0.0
C34 C 0.41378 0.49611 0.54083 0.0
C35 C 0.47215 0.64693 0.46696 0.0
C36 C 0.47097 0.53483 0.33674 0.0
C37 C 0.3571 0.54435 0.36533 0.0
O38 O 0.39083 0.57588 0.35556 0.0
O39 O 0.35446 0.51515 0.3996 0.0
O40 O 0.47705 0.65112 0.40317 0.0
O41 O 0.45442 0.61086 0.49097 0.0
O42 O 0.94075 0.46035 0.51604 0.0
Cd43 Cd 0.90414 0.4189 0.58697 0.0
Cd44 Cd 0.85886 0.45113 0.55538 0.0
O45 O 0.90988 0.49574 0.51083 0.0
O46 O 0.94049 0.40791 0.64321 0.0
O47 O 0.90927 0.43946 0.68041 0.0
C48 C 0.93458 0.42706 0.69077 0.0
C49 C 0.81664 0.46618 0.6176 0.0
C50 C 0.93923 0.49096 0.49506 0.0
C51 C 0.83008 0.36512 0.51461 0.0
O52 O 0.82905 0.39731 0.50429 0.0
O53 O 0.85592 0.36497 0.55417 0.0
O54 O 0.81889 0.46969 0.55357 0.0
O55 O 0.84011 0.45597 0.64736 0.0
O56 O 0.49167 0.93215 0.66529 0.0
Cd57 Cd 0.4941 0.89624 0.73913 0.0
Cd58 Cd 0.4128 0.85198 0.7173 0.0
O59 O 0.42562 0.90129 0.65684 0.0
O60 O 0.53602 0.93076 0.80625 0.0
O61 O 0.47066 0.89865 0.82604 0.0
C62 C 0.50671 0.9233 0.8461 0.0
C63 C 0.35747 0.8231 0.78903 0.0
C64 C 0.46016 0.92982 0.64018 0.0
C65 C 0.46416 0.81345 0.68828 0.0
O66 O 0.43013 0.81146 0.68604 0.0
O67 O 0.49503 0.84485 0.70995 0.0
O68 O 0.35284 0.81938 0.72517 0.0
O69 O 0.39332 0.84508 0.81208 0.0
O70 O 0.57099 0.5005 0.86208 0.0
Cd71 Cd 0.60531 0.49347 0.93498 0.0
Cd72 Cd 0.56552 0.41897 0.89062 0.0
O73 O 0.52708 0.43609 0.84906 0.0
O74 O 0.61904 0.53761 1.00059 0.0
O75 O 0.57845 0.473 0.02299 0.0
C76 C 0.59461 0.51025 0.04133 0.0
C77 C 0.54321 0.35907 0.95045 0.0
C78 C 0.53822 0.47284 0.83747 0.0
C79 C 0.65368 0.46749 0.86048 0.0
O80 O 0.61962 0.43877 0.84263 0.0
O81 O 0.65623 0.49191 0.90573 0.0
O82 O 0.53921 0.35907 0.8865 0.0
O83 O 0.55801 0.39318 0.98122 0.0
H84 H 0.06911 0.48098 0.91103 0.0
H85 H 0.01282 0.54816 0.97776 0.0
H86 H 0.96074 0.51566 0.89332 0.0
H87 H 0.93444 0.47296 0.79412 0.0
H88 H 0.99114 0.40676 0.72501 0.0
H89 H 0.03916 0.43357 0.81712 0.0
C90 C 0.04519 0.48816 0.90765 0.0
C91 C 0.04532 0.5174 0.95032 0.0
C92 C 0.01534 0.46962 0.85827 0.0
C93 C 0.01389 0.52613 0.94524 0.0
C94 C 0.98396 0.50754 0.89689 0.0
C95 C 0.95688 0.46386 0.79975 0.0
C96 C 0.95932 0.43814 0.75234 0.0
C97 C 0.98489 0.47994 0.85216 0.0
C98 C 0.98861 0.42665 0.76058 0.0
C99 C 0.01625 0.44211 0.81315 0.0
H100 H 0.57723 0.98457 0.89425 0.0
H101 H 0.45133 0.91196 0.94098 0.0
H102 H 0.46017 0.95432 0.03759 0.0
H103 H 0.50217 0.01529 0.10289 0.0
H104 H 0.62784 0.08885 0.05527 0.0
H105 H 0.62052 0.04266 0.96538 0.0
C106 C 0.55185 0.97761 0.92616 0.0
C107 C 0.51363 0.94529 0.91 0.0
C108 C 0.55698 1.00252 0.98119 0.0
C109 C 0.48107 0.93675 0.95197 0.0
C110 C 0.48605 0.96106 0.00718 0.0
C111 C 0.52809 0.02111 0.07328 0.0
C112 C 0.5654 0.05581 0.0855 0.0
C113 C 0.52363 0.9946 0.02128 0.0
C114 C 0.59869 0.06255 0.04688 0.0
C115 C 0.59453 0.03615 0.99531 0.0
H116 H 0.538 0.5858 0.26542 0.0
H117 H 0.45694 0.45969 0.30486 0.0
H118 H 0.49102 0.44112 0.2221 0.0
H119 H 0.53972 0.46018 0.13157 0.0
H120 H 0.62013 0.58598 0.08974 0.0
H121 H 0.5909 0.60497 0.18094 0.0
C122 C 0.52804 0.55427 0.25642 0.0
C123 C 0.49458 0.52428 0.29087 0.0
C124 C 0.54762 0.54362 0.20815 0.0
C125 C 0.48232 0.48353 0.27876 0.0
C126 C 0.50181 0.47278 0.23136 0.0
C127 C 0.55134 0.49177 0.14304 0.0
C128 C 0.58184 0.52156 0.10345 0.0
C129 C 0.53392 0.50252 0.19475 0.0
C130 C 0.59657 0.56236 0.11923 0.0
C131 C 0.57972 0.57329 0.17122 0.0
H132 H 1.00891 0.49381 0.4601 0.0
H133 H 0.93894 0.55187 0.42386 0.0
H134 H 0.98542 0.5928 0.33617 0.0
H135 H 0.04174 0.60684 0.26194 0.0
H136 H 0.11061 0.5475 0.29705 0.0
H137 H 0.06911 0.51289 0.39352 0.0
C138 C 1.00401 0.51571 0.43356 0.0
C139 C 0.97014 0.51931 0.44801 0.0
C140 C 0.03063 0.5389 0.38274 0.0
C141 C 0.9646 0.54824 0.41359 0.0
C142 C 0.99114 0.57163 0.36325 0.0
C143 C 0.04816 0.58694 0.29144 0.0
C144 C 0.07898 0.57948 0.27182 0.0
C145 C 0.02367 0.56648 0.34626 0.0
C146 C 0.08692 0.55361 0.31071 0.0
C147 C 0.06308 0.53364 0.3658 0.0
H148 H 0.45323 0.03032 0.39561 0.0
H149 H 0.58 0.09986 0.43925 0.0
H150 H 0.57081 0.05794 0.53683 0.0
H151 H 0.52795 0.99841 0.60428 0.0
H152 H 0.4013 0.92808 0.56023 0.0
H153 H 0.40933 0.97367 0.46859 0.0
C154 C 0.47879 0.03666 0.42692 0.0
C155 C 0.51731 0.06803 0.40972 0.0
C156 C 0.4734 0.01209 0.4826 0.0
C157 C 0.55004 0.07586 0.45107 0.0
C158 C 0.54485 0.05179 0.50682 0.0
C159 C 0.50199 0.99313 0.575 0.0
C160 C 0.46415 0.95953 0.58877 0.0
C161 C 0.50684 0.01929 0.52215 0.0
C162 C 0.43081 0.95355 0.55067 0.0
C163 C 0.43539 0.97958 0.49811 0.0
H164 H 0.46978 0.42208 0.76909 0.0
H165 H 0.55348 0.54822 0.80321 0.0
H166 H 0.51915 0.56657 0.71975 0.0
H167 H 0.46962 0.54692 0.62968 0.0
H168 H 0.38708 0.42092 0.59275 0.0
H169 H 0.41626 0.40256 0.68538 0.0
C170 C 0.48027 0.4536 0.75885 0.0
C171 C 0.51452 0.48366 0.79193 0.0
C172 C 0.46063 0.46404 0.71011 0.0
C173 C 0.52746 0.52437 0.7782 0.0
C174 C 0.50783 0.53496 0.73038 0.0
C175 C 0.45751 0.51545 0.64255 0.0
C176 C 0.42642 0.48536 0.6039 0.0
C177 C 0.47499 0.50505 0.69495 0.0
C178 C 0.41109 0.44473 0.62146 0.0
C179 C 0.42791 0.43417 0.67427 0.0
H180 H 0.21949 0.56956 0.24859 0.0
H181 H 0.22087 0.49046 0.09684 0.0
H182 H 0.26937 0.48089 0.16242 0.0
H183 H 0.31613 0.50016 0.25822 0.0
H184 H 0.31935 0.5846 0.40329 0.0
H185 H 0.26419 0.58691 0.34558 0.0
C186 C 0.22985 0.54965 0.23042 0.0
C187 C 0.21654 0.53064 0.16806 0.0
C188 C 0.25881 0.54556 0.26713 0.0
C189 C 0.23071 0.50543 0.1447 0.0
C190 C 0.2585 0.50004 0.18208 0.0
C191 C 0.30409 0.51842 0.27753 0.0
C192 C 0.32109 0.54183 0.33501 0.0
C193 C 0.27345 0.52068 0.24263 0.0
C194 C 0.30621 0.56613 0.35931 0.0
C195 C 0.27486 0.56753 0.32624 0.0
H196 H 0.68834 0.20483 0.39459 0.0
H197 H 0.73163 0.27521 0.21409 0.0
H198 H 0.78612 0.32968 0.27607 0.0
H199 H 0.81833 0.35983 0.38257 0.0
H200 H 0.77916 0.28962 0.56299 0.0
H201 H 0.72638 0.23242 0.50028 0.0
C202 C 0.71004 0.2319 0.36884 0.0
C203 C 0.70564 0.23607 0.29991 0.0
C204 C 0.74186 0.26319 0.40481 0.0
C205 C 0.73422 0.27115 0.26704 0.0
C206 C 0.76536 0.30247 0.30248 0.0
C207 C 0.79849 0.33175 0.40785 0.0
C208 C 0.80212 0.32877 0.47701 0.0
C209 C 0.76894 0.29916 0.37146 0.0
C210 C 0.77676 0.29232 0.50955 0.0
C211 C 0.74655 0.25982 0.47378 0.0
H212 H 0.51598 0.81411 0.59601 0.0
H213 H 0.41754 0.73541 0.72307 0.0
H214 H 0.41546 0.67644 0.67179 0.0
H215 H 0.43663 0.6473 0.58286 0.0
H216 H 0.52922 0.72552 0.44593 0.0
H217 H 0.53904 0.78456 0.50894 0.0
C218 C 0.49473 0.784 0.61317 0.0
C219 C 0.46717 0.77886 0.66344 0.0
C220 C 0.49248 0.7502 0.58117 0.0
C221 C 0.43909 0.73986 0.68453 0.0
C222 C 0.43783 0.70621 0.65512 0.0
C223 C 0.45953 0.67724 0.56765 0.0
C224 C 0.4823 0.68209 0.51007 0.0
C225 C 0.46367 0.71099 0.60225 0.0
C226 C 0.51135 0.72107 0.49017 0.0
C227 C 0.51687 0.75482 0.52606 0.0
H228 H 0.66116 0.46055 0.72898 0.0
H229 H 0.72679 0.48674 0.91411 0.0
H230 H 0.7842 0.48955 0.85535 0.0
H231 H 0.814 0.48091 0.75098 0.0
H232 H 0.74861 0.45965 0.56579 0.0
H233 H 0.69302 0.4589 0.62469 0.0
C234 C 0.68817 0.46709 0.75633 0.0
C235 C 0.68978 0.47293 0.82562 0.0
C236 C 0.72104 0.46951 0.72214 0.0
C237 C 0.72504 0.4821 0.8606 0.0
C238 C 0.75771 0.48355 0.82706 0.0
C239 C 0.7877 0.47648 0.72365 0.0
C240 C 0.78535 0.47004 0.65417 0.0
C241 C 0.75584 0.47678 0.75782 0.0
C242 C 0.75128 0.46475 0.61921 0.0
C243 C 0.71933 0.46414 0.65286 0.0
H244 H 0.36063 0.79573 0.91201 0.0
H245 H 0.27796 0.79541 0.76564 0.0
H246 H 0.22115 0.74755 0.8334 0.0
H247 H 0.19527 0.70016 0.92832 0.0
H248 H 0.27844 0.69483 0.06674 0.0
H249 H 0.33485 0.75064 0.00881 0.0
C250 C 0.33016 0.78581 0.8957 0.0
C251 C 0.3234 0.79914 0.83415 0.0
C252 C 0.29779 0.75699 0.93341 0.0
C253 C 0.28382 0.78552 0.81291 0.0
C254 C 0.25138 0.75808 0.85152 0.0
C255 C 0.22575 0.71199 0.94633 0.0
C256 C 0.23303 0.69415 1.00189 0.0
C257 C 0.25801 0.7428 0.91096 0.0
C258 C 0.27246 0.70866 0.02431 0.0
C259 C 0.30459 0.74036 0.99107 0.0
H260 H 0.54394 0.34708 0.08511 0.0
H261 H 0.52457 0.28699 0.89501 0.0
H262 H 0.52148 0.22875 0.94989 0.0
H263 H 0.53171 0.19782 0.05009 0.0
H264 H 0.54999 0.25632 0.24065 0.0
H265 H 0.54575 0.31206 0.18786 0.0
C266 C 0.5384 0.32098 0.05587 0.0
C267 C 0.53499 0.3217 0.9859 0.0
C268 C 0.53669 0.28737 0.08785 0.0
C269 C 0.52749 0.28744 0.94884 0.0
C270 C 0.52586 0.25408 0.98015 0.0
C271 C 0.53379 0.22241 0.08002 0.0
C272 C 0.54093 0.22322 0.14882 0.0
C273 C 0.53148 0.25416 0.04928 0.0
C274 C 0.54404 0.25514 0.18755 0.0
C275 C 0.54191 0.28704 0.15729 0.0
loop_
_geom_bond_atom_site_label_1
_geom_bond_atom_site_label_2
_geom_bond_distance
_geom_bond_site_symmetry_2
_ccdc_geom_bond_type
O0 Cd1 2.223 . S
O0 C8 1.315 1_554 S
Cd1 O0 2.223 . S
Cd1 O4 2.297 . S
Cd1 O5 2.439 . S
Cd1 O11 2.240 . S
Cd2 O3 2.240 . S
Cd2 O10 2.223 1_554 S
Cd2 O12 2.297 . S
Cd2 O13 2.439 . S
O3 Cd2 2.240 . S
O3 C8 1.279 1_554 S
O4 Cd1 2.297 . S
O4 C6 1.247 . S
O5 Cd1 2.439 . S
O5 C6 1.208 . S
C6 O4 1.247 . S
C6 O5 1.208 . S
C7 O12 1.247 . S
C7 O13 1.208 . S
C8 O0 1.315 1_556 S
C8 O3 1.279 1_556 S
C9 O10 1.315 1_554 S
C9 O11 1.279 . S
O10 Cd2 2.223 1_556 S
O10 C9 1.315 1_556 S
O11 Cd1 2.240 . S
O11 C9 1.279 . S
O12 Cd2 2.297 . S
O12 C7 1.247 . S
O13 Cd2 2.439 . S
O13 C7 1.208 . S
O14 Cd15 2.223 . S
O14 C22 1.315 . S
Cd15 O14 2.223 . S
Cd15 O18 2.297 . S
Cd15 O19 2.439 . S
Cd15 O25 2.240 . S
Cd16 O17 2.240 . S
Cd16 O24 2.223 . S
Cd16 O26 2.297 . S
Cd16 O27 2.439 . S
O17 Cd16 2.240 . S
O17 C22 1.279 . S
O18 Cd15 2.297 . S
O18 C20 1.247 . S
O19 Cd15 2.439 . S
O19 C20 1.208 . S
C20 O18 1.247 . S
C20 O19 1.208 . S
C21 O26 1.247 . S
C21 O27 1.208 . S
C22 O14 1.315 . S
C22 O17 1.279 . S
C23 O24 1.315 . S
C23 O25 1.279 . S
O24 Cd16 2.223 . S
O24 C23 1.315 . S
O25 Cd15 2.240 . S
O25 C23 1.279 . S
O26 Cd16 2.297 . S
O26 C21 1.247 . S
O27 Cd16 2.439 . S
O27 C21 1.208 . S
O28 Cd29 2.223 . S
O28 C36 1.315 . S
Cd29 O28 2.223 . S
Cd29 O32 2.297 . S
Cd29 O33 2.439 . S
Cd29 O39 2.240 . S
Cd30 O31 2.240 . S
Cd30 O38 2.223 . S
Cd30 O40 2.297 . S
Cd30 O41 2.439 . S
O31 Cd30 2.240 . S
O31 C36 1.279 . S
O32 Cd29 2.297 . S
O32 C34 1.247 . S
O33 Cd29 2.439 . S
O33 C34 1.208 . S
C34 O32 1.247 . S
C34 O33 1.208 . S
C35 O40 1.247 . S
C35 O41 1.208 . S
C36 O28 1.315 . S
C36 O31 1.279 . S
C37 O38 1.315 . S
C37 O39 1.279 . S
O38 Cd30 2.223 . S
O38 C37 1.315 . S
O39 Cd29 2.240 . S
O39 C37 1.279 . S
O40 Cd30 2.297 . S
O40 C35 1.247 . S
O41 Cd30 2.439 . S
O41 C35 1.208 . S
O42 Cd43 2.223 . S
O42 C50 1.315 . S
Cd43 O42 2.223 . S
Cd43 O46 2.297 . S
Cd43 O47 2.439 . S
Cd43 O53 2.240 . S
Cd44 O45 2.240 . S
Cd44 O52 2.223 . S
Cd44 O54 2.297 . S
Cd44 O55 2.439 . S
O45 Cd44 2.240 . S
O45 C50 1.279 . S
O46 Cd43 2.297 . S
O46 C48 1.247 . S
O47 Cd43 2.439 . S
O47 C48 1.208 . S
C48 O46 1.247 . S
C48 O47 1.208 . S
C49 O54 1.247 . S
C49 O55 1.208 . S
C50 O42 1.315 . S
C50 O45 1.279 . S
C51 O52 1.315 . S
C51 O53 1.279 . S
O52 Cd44 2.223 . S
O52 C51 1.315 . S
O53 Cd43 2.240 . S
O53 C51 1.279 . S
O54 Cd44 2.297 . S
O54 C49 1.247 . S
O55 Cd44 2.439 . S
O55 C49 1.208 . S
O56 Cd57 2.223 . S
O56 C64 1.315 . S
Cd57 O56 2.223 . S
Cd57 O60 2.297 . S
Cd57 O61 2.439 . S
Cd57 O67 2.240 . S
Cd58 O59 2.240 . S
Cd58 O66 2.223 . S
Cd58 O68 2.297 . S
Cd58 O69 2.439 . S
O59 Cd58 2.240 . S
O59 C64 1.279 . S
O60 Cd57 2.297 . S
O60 C62 1.247 . S
O61 Cd57 2.439 . S
O61 C62 1.208 . S
C62 O60 1.247 . S
C62 O61 1.208 . S
C63 O68 1.247 . S
C63 O69 1.208 . S
C64 O56 1.315 . S
C64 O59 1.279 . S
C65 O66 1.315 . S
C65 O67 1.279 . S
O66 Cd58 2.223 . S
O66 C65 1.315 . S
O67 Cd57 2.240 . S
O67 C65 1.279 . S
O68 Cd58 2.297 . S
O68 C63 1.247 . S
O69 Cd58 2.439 . S
O69 C63 1.208 . S
O70 Cd71 2.223 . S
O70 C78 1.315 . S
Cd71 O70 2.223 . S
Cd71 O74 2.297 . S
Cd71 O75 2.439 1_556 S
Cd71 O81 2.240 . S
Cd72 O73 2.240 . S
Cd72 O80 2.223 . S
Cd72 O82 2.297 . S
Cd72 O83 2.439 . S
O73 Cd72 2.240 . S
O73 C78 1.279 . S
O74 Cd71 2.297 . S
O74 C76 1.247 1_556 S
O75 Cd71 2.439 1_554 S
O75 C76 1.208 . S
C76 O74 1.247 1_554 S
C76 O75 1.208 . S
C77 O82 1.247 . S
C77 O83 1.208 . S
C78 O70 1.315 . S
C78 O73 1.279 . S
C79 O80 1.315 . S
C79 O81 1.279 . S
O80 Cd72 2.223 . S
O80 C79 1.315 . S
O81 Cd71 2.240 . S
O81 C79 1.279 . S
O82 Cd72 2.297 . S
O82 C77 1.247 . S
O83 Cd72 2.439 . S
O83 C77 1.208 . S
H84 C90 0.930 . S
H85 C93 0.930 . S
H86 C94 0.930 . S
H87 C95 0.930 . S
H88 C98 0.930 . S
H89 C99 0.930 . S
C90 H84 0.930 . S
C90 C91 1.355 . S
C90 C92 1.415 . S
C91 C90 1.355 . S
C91 C93 1.419 . S
C92 C90 1.415 . S
C92 C97 1.425 . S
C92 C99 1.409 1_455 S
C93 H85 0.930 . S
C93 C91 1.419 . S
C93 C94 1.362 . S
C94 H86 0.930 . S
C94 C93 1.362 . S
C94 C97 1.409 . S
C95 H87 0.930 . S
C95 C96 1.355 . S
C95 C97 1.415 1_655 S
C96 C95 1.355 . S
C96 C98 1.419 . S
C97 C92 1.425 . S
C97 C94 1.409 . S
C97 C95 1.415 1_455 S
C98 H88 0.930 . S
C98 C96 1.419 . S
C98 C99 1.362 . S
C99 H89 0.930 . S
C99 C92 1.409 1_655 S
C99 C98 1.362 . S
H100 C106 0.930 . S
H101 C109 0.930 . S
H102 C110 0.930 . S
H103 C111 0.930 . S
H104 C114 0.930 . S
H105 C115 0.930 . S
C106 H100 0.930 . S
C106 C107 1.355 1_545 S
C106 C108 1.415 . S
C107 C106 1.355 1_565 S
C107 C109 1.419 . S
C108 C106 1.415 . S
C108 C113 1.425 1_556 S
C108 C115 1.409 . S
C109 H101 0.930 . S
C109 C107 1.419 . S
C109 C110 1.362 1_556 S
C110 H102 0.930 . S
C110 C109 1.362 1_554 S
C110 C113 1.409 1_565 S
C111 H103 0.930 . S
C111 C112 1.355 . S
C111 C113 1.415 . S
C112 C111 1.355 . S
C112 C114 1.419 . S
C113 C108 1.425 1_554 S
C113 C110 1.409 1_545 S
C113 C111 1.415 . S
C114 H104 0.930 . S
C114 C112 1.419 . S
C114 C115 1.362 1_554 S
C115 H105 0.930 . S
C115 C108 1.409 . S
C115 C114 1.362 1_556 S
H116 C122 0.930 . S
H117 C125 0.930 . S
H118 C126 0.930 . S
H119 C127 0.930 . S
H120 C130 0.930 . S
H121 C131 0.930 . S
C122 H116 0.930 . S
C122 C123 1.355 . S
C122 C124 1.415 . S
C123 C122 1.355 . S
C123 C125 1.419 . S
C124 C122 1.415 . S
C124 C129 1.425 . S
C124 C131 1.409 . S
C125 H117 0.930 . S
C125 C123 1.419 . S
C125 C126 1.362 . S
C126 H118 0.930 . S
C126 C125 1.362 . S
C126 C129 1.409 . S
C127 H119 0.930 . S
C127 C128 1.355 . S
C127 C129 1.415 . S
C128 C127 1.355 . S
C128 C130 1.419 . S
C129 C124 1.425 . S
C129 C126 1.409 . S
C129 C127 1.415 . S
C130 H120 0.930 . S
C130 C128 1.419 . S
C130 C131 1.362 . S
C131 H121 0.930 . S
C131 C124 1.409 . S
C131 C130 1.362 . S
H132 C138 0.930 . S
H133 C141 0.930 . S
H134 C142 0.930 . S
H135 C143 0.930 . S
H136 C146 0.930 . S
H137 C147 0.930 . S
C138 H132 0.930 . S
C138 C139 1.355 . S
C138 C140 1.415 . S
C139 C138 1.355 . S
C139 C141 1.419 . S
C140 C138 1.415 . S
C140 C145 1.425 . S
C140 C147 1.409 1_655 S
C141 H133 0.930 . S
C141 C139 1.419 . S
C141 C142 1.362 . S
C142 H134 0.930 . S
C142 C141 1.362 . S
C142 C145 1.409 . S
C143 H135 0.930 . S
C143 C144 1.355 . S
C143 C145 1.415 1_455 S
C144 C143 1.355 . S
C144 C146 1.419 . S
C145 C140 1.425 . S
C145 C142 1.409 . S
C145 C143 1.415 1_655 S
C146 H136 0.930 . S
C146 C144 1.419 . S
C146 C147 1.362 . S
C147 H137 0.930 . S
C147 C140 1.409 1_455 S
C147 C146 1.362 . S
H148 C154 0.930 . S
H149 C157 0.930 . S
H150 C158 0.930 . S
H151 C159 0.930 . S
H152 C162 0.930 . S
H153 C163 0.930 . S
C154 H148 0.930 . S
C154 C155 1.355 1_565 S
C154 C156 1.415 . S
C155 C154 1.355 1_545 S
C155 C157 1.419 . S
C156 C154 1.415 . S
C156 C161 1.425 . S
C156 C163 1.409 . S
C157 H149 0.930 . S
C157 C155 1.419 . S
C157 C158 1.362 . S
C158 H150 0.930 . S
C158 C157 1.362 . S
C158 C161 1.409 1_545 S
C159 H151 0.930 . S
C159 C160 1.355 . S
C159 C161 1.415 . S
C160 C159 1.355 . S
C160 C162 1.419 . S
C161 C156 1.425 . S
C161 C158 1.409 1_565 S
C161 C159 1.415 . S
C162 H152 0.930 . S
C162 C160 1.419 . S
C162 C163 1.362 . S
C163 H153 0.930 . S
C163 C156 1.409 . S
C163 C162 1.362 . S
H164 C170 0.930 . S
H165 C173 0.930 . S
H166 C174 0.930 . S
H167 C175 0.930 . S
H168 C178 0.930 . S
H169 C179 0.930 . S
C170 H164 0.930 . S
C170 C171 1.355 . S
C170 C172 1.415 . S
C171 C170 1.355 . S
C171 C173 1.419 . S
C172 C170 1.415 . S
C172 C177 1.425 . S
C172 C179 1.409 . S
C173 H165 0.930 . S
C173 C171 1.419 . S
C173 C174 1.362 . S
C174 H166 0.930 . S
C174 C173 1.362 . S
C174 C177 1.409 . S
C175 H167 0.930 . S
C175 C176 1.355 . S
C175 C177 1.415 . S
C176 C175 1.355 . S
C176 C178 1.419 . S
C177 C172 1.425 . S
C177 C174 1.409 . S
C177 C175 1.415 . S
C178 H168 0.930 . S
C178 C176 1.419 . S
C178 C179 1.362 . S
C179 H169 0.930 . S
C179 C172 1.409 . S
C179 C178 1.362 . S
H180 C186 0.930 . S
H181 C189 0.930 . S
H182 C190 0.930 . S
H183 C191 0.930 . S
H184 C194 0.930 . S
H185 C195 0.930 . S
C186 H180 0.930 . S
C186 C187 1.355 . S
C186 C188 1.415 . S
C187 C186 1.355 . S
C187 C189 1.419 . S
C188 C186 1.415 . S
C188 C193 1.425 . S
C188 C195 1.409 . S
C189 H181 0.930 . S
C189 C187 1.419 . S
C189 C190 1.362 . S
C190 H182 0.930 . S
C190 C189 1.362 . S
C190 C193 1.409 . S
C191 H183 0.930 . S
C191 C192 1.355 . S
C191 C193 1.415 . S
C192 C191 1.355 . S
C192 C194 1.419 . S
C193 C188 1.425 . S
C193 C190 1.409 . S
C193 C191 1.415 . S
C194 H184 0.930 . S
C194 C192 1.419 . S
C194 C195 1.362 . S
C195 H185 0.930 . S
C195 C188 1.409 . S
C195 C194 1.362 . S
H196 C202 0.930 . S
H197 C205 0.930 . S
H198 C206 0.930 . S
H199 C207 0.930 . S
H200 C210 0.930 . S
H201 C211 0.930 . S
C202 H196 0.930 . S
C202 C203 1.355 . S
C202 C204 1.415 . S
C203 C202 1.355 . S
C203 C205 1.419 . S
C204 C202 1.415 . S
C204 C209 1.425 . S
C204 C211 1.409 . S
C205 H197 0.930 . S
C205 C203 1.419 . S
C205 C206 1.362 . S
C206 H198 0.930 . S
C206 C205 1.362 . S
C206 C209 1.409 . S
C207 H199 0.930 . S
C207 C208 1.355 . S
C207 C209 1.415 . S
C208 C207 1.355 . S
C208 C210 1.419 . S
C209 C204 1.425 . S
C209 C206 1.409 . S
C209 C207 1.415 . S
C210 H200 0.930 . S
C210 C208 1.419 . S
C210 C211 1.362 . S
C211 H201 0.930 . S
C211 C204 1.409 . S
C211 C210 1.362 . S
H212 C218 0.930 . S
H213 C221 0.930 . S
H214 C222 0.930 . S
H215 C223 0.930 . S
H216 C226 0.930 . S
H217 C227 0.930 . S
C218 H212 0.930 . S
C218 C219 1.355 . S
C218 C220 1.415 . S
C219 C218 1.355 . S
C219 C221 1.419 . S
C220 C218 1.415 . S
C220 C225 1.425 . S
C220 C227 1.409 . S
C221 H213 0.930 . S
C221 C219 1.419 . S
C221 C222 1.362 . S
C222 H214 0.930 . S
C222 C221 1.362 . S
C222 C225 1.409 . S
C223 H215 0.930 . S
C223 C224 1.355 . S
C223 C225 1.415 . S
C224 C223 1.355 . S
C224 C226 1.419 . S
C225 C220 1.425 . S
C225 C222 1.409 . S
C225 C223 1.415 . S
C226 H216 0.930 . S
C226 C224 1.419 . S
C226 C227 1.362 . S
C227 H217 0.930 . S
C227 C220 1.409 . S
C227 C226 1.362 . S
H228 C234 0.930 . S
H229 C237 0.930 . S
H230 C238 0.930 . S
H231 C239 0.930 . S
H232 C242 0.930 . S
H233 C243 0.930 . S
C234 H228 0.930 . S
C234 C235 1.355 . S
C234 C236 1.415 . S
C235 C234 1.355 . S
C235 C237 1.419 . S
C236 C234 1.415 . S
C236 C241 1.425 . S
C236 C243 1.409 . S
C237 H229 0.930 . S
C237 C235 1.419 . S
C237 C238 1.362 . S
C238 H230 0.930 . S
C238 C237 1.362 . S
C238 C241 1.409 . S
C239 H231 0.930 . S
C239 C240 1.355 . S
C239 C241 1.415 . S
C240 C239 1.355 . S
C240 C242 1.419 . S
C241 C236 1.425 . S
C241 C238 1.409 . S
C241 C239 1.415 . S
C242 H232 0.930 . S
C242 C240 1.419 . S
C242 C243 1.362 . S
C243 H233 0.930 . S
C243 C236 1.409 . S
C243 C242 1.362 . S
H244 C250 0.930 . S
H245 C253 0.930 . S
H246 C254 0.930 . S
H247 C255 0.930 . S
H248 C258 0.930 . S
H249 C259 0.930 . S
C250 H244 0.930 . S
C250 C251 1.355 . S
C250 C252 1.415 . S
C251 C250 1.355 . S
C251 C253 1.419 . S
C252 C250 1.415 . S
C252 C257 1.425 . S
C252 C259 1.409 . S
C253 H245 0.930 . S
C253 C251 1.419 . S
C253 C254 1.362 . S
C254 H246 0.930 . S
C254 C253 1.362 . S
C254 C257 1.409 . S
C255 H247 0.930 . S
C255 C256 1.355 . S
C255 C257 1.415 . S
C256 C255 1.355 . S
C256 C258 1.419 . S
C257 C252 1.425 . S
C257 C254 1.409 . S
C257 C255 1.415 . S
C258 H248 0.930 . S
C258 C256 1.419 . S
C258 C259 1.362 . S
C259 H249 0.930 . S
C259 C252 1.409 . S
C259 C258 1.362 . S
H260 C266 0.930 . S
H261 C269 0.930 . S
H262 C270 0.930 . S
H263 C271 0.930 . S
H264 C274 0.930 . S
H265 C275 0.930 . S
C266 H260 0.930 . S
C266 C267 1.355 . S
C266 C268 1.415 . S
C267 C266 1.355 . S
C267 C269 1.419 1_554 S
C268 C266 1.415 . S
C268 C273 1.425 . S
C268 C275 1.409 . S
C269 H261 0.930 . S
C269 C267 1.419 1_556 S
C269 C270 1.362 . S
C270 H262 0.930 . S
C270 C269 1.362 . S
C270 C273 1.409 1_556 S
C271 H263 0.930 . S
C271 C272 1.355 . S
C271 C273 1.415 . S
C272 C271 1.355 . S
C272 C274 1.419 . S
C273 C268 1.425 . S
C273 C270 1.409 1_554 S
C273 C271 1.415 . S
C274 H264 0.930 . S
C274 C272 1.419 . S
C274 C275 1.362 . S
C275 H265 0.930 . S
C275 C268 1.409 . S
C275 C274 1.362 . S
C91 C8 1.404 . S
C96 C48 1.446 . S
C107 C62 1.458 . S
C112 C22 1.427 . S
C123 C36 1.406 . S
C128 C76 1.446 . S
C139 C50 1.477 . S
C144 C6 1.506 . S
C155 C20 1.478 . S
C160 C64 1.454 . S
C171 C78 1.390 . S
C176 C34 1.443 . S
C187 C7 1.411 . S
C192 C37 1.401 . S
C203 C21 1.391 . S
C208 C51 1.422 . S
C219 C65 1.394 . S
C224 C35 1.425 . S
C235 C79 1.411 . S
C240 C49 1.399 . S
C251 C63 1.426 . S
C256 C9 1.393 1_556 S
C267 C77 1.392 1_554 S
C272 C23 1.420 . S
