# Generated by pormake.
# Topology whz, (6)-cn, num edge types: 1
# Building blocks:
#     Node 0, Type 0, BuildingBlock: UKALOJ_clean_sbu_0, # of connection points: 6
#     Node 1, Type 0, BuildingBlock: UKALOJ_clean_sbu_0, # of connection points: 6
#     Node 2, Type 0, BuildingBlock: UKALOJ_clean_sbu_0, # of connection points: 6
#     Node 3, Type 0, BuildingBlock: UKALOJ_clean_sbu_0, # of connection points: 6
#     Node 4, Type 0, BuildingBlock: UKALOJ_clean_sbu_0, # of connection points: 6
#     Node 5, Type 0, BuildingBlock: UKALOJ_clean_sbu_0, # of connection points: 6
#     Node 6, Type 0, BuildingBlock: UKALOJ_clean_sbu_0, # of connection points: 6
#     Node 7, Type 0, BuildingBlock: UKALOJ_clean_sbu_0, # of connection points: 6
#     Node 8, Type 0, BuildingBlock: UKALOJ_clean_sbu_0, # of connection points: 6
#     Node 9, Type 0, BuildingBlock: UKALOJ_clean_sbu_0, # of connection points: 6
#     Node 10, Type 0, BuildingBlock: UKALOJ_clean_sbu_0, # of connection points: 6
#     Node 11, Type 0, BuildingBlock: UKALOJ_clean_sbu_0, # of connection points: 6
#     Node 12, Type 0, BuildingBlock: UKALOJ_clean_sbu_0, # of connection points: 6
#     Node 13, Type 0, BuildingBlock: UKALOJ_clean_sbu_0, # of connection points: 6
#     Node 14, Type 0, BuildingBlock: UKALOJ_clean_sbu_0, # of connection points: 6
#     Node 15, Type 0, BuildingBlock: UKALOJ_clean_sbu_0, # of connection points: 6
#     Edge 16, Type (0, 0), BuildingBlock: XIVTED_clean_linker_0, # of connection points: 2
#     Edge 17, Type (0, 0), BuildingBlock: XIVTED_clean_linker_0, # of connection points: 2
#     Edge 18, Type (0, 0), BuildingBlock: XIVTED_clean_linker_0, # of connection points: 2
#     Edge 19, Type (0, 0), BuildingBlock: XIVTED_clean_linker_0, # of connection points: 2
#     Edge 20, Type (0, 0), BuildingBlock: XIVTED_clean_linker_0, # of connection points: 2
#     Edge 21, Type (0, 0), BuildingBlock: XIVTED_clean_linker_0, # of connection points: 2
#     Edge 22, Type (0, 0), BuildingBlock: XIVTED_clean_linker_0, # of connection points: 2
#     Edge 23, Type (0, 0), BuildingBlock: XIVTED_clean_linker_0, # of connection points: 2
#     Edge 24, Type (0, 0), BuildingBlock: XIVTED_clean_linker_0, # of connection points: 2
#     Edge 25, Type (0, 0), BuildingBlock: XIVTED_clean_linker_0, # of connection points: 2
#     Edge 26, Type (0, 0), BuildingBlock: XIVTED_clean_linker_0, # of connection points: 2
#     Edge 27, Type (0, 0), BuildingBlock: XIVTED_clean_linker_0, # of connection points: 2
#     Edge 28, Type (0, 0), BuildingBlock: XIVTED_clean_linker_0, # of connection points: 2
#     Edge 29, Type (0, 0), BuildingBlock: XIVTED_clean_linker_0, # of connection points: 2
#     Edge 30, Type (0, 0), BuildingBlock: XIVTED_clean_linker_0, # of connection points: 2
#     Edge 31, Type (0, 0), BuildingBlock: XIVTED_clean_linker_0, # of connection points: 2
#     Edge 32, Type (0, 0), BuildingBlock: XIVTED_clean_linker_0, # of connection points: 2
#     Edge 33, Type (0, 0), BuildingBlock: XIVTED_clean_linker_0, # of connection points: 2
#     Edge 34, Type (0, 0), BuildingBlock: XIVTED_clean_linker_0, # of connection points: 2
#     Edge 35, Type (0, 0), BuildingBlock: XIVTED_clean_linker_0, # of connection points: 2
#     Edge 36, Type (0, 0), BuildingBlock: XIVTED_clean_linker_0, # of connection points: 2
#     Edge 37, Type (0, 0), BuildingBlock: XIVTED_clean_linker_0, # of connection points: 2
#     Edge 38, Type (0, 0), BuildingBlock: XIVTED_clean_linker_0, # of connection points: 2
#     Edge 39, Type (0, 0), BuildingBlock: XIVTED_clean_linker_0, # of connection points: 2
#     Edge 40, Type (0, 0), BuildingBlock: XIVTED_clean_linker_0, # of connection points: 2
#     Edge 41, Type (0, 0), BuildingBlock: XIVTED_clean_linker_0, # of connection points: 2
#     Edge 42, Type (0, 0), BuildingBlock: XIVTED_clean_linker_0, # of connection points: 2
#     Edge 43, Type (0, 0), BuildingBlock: XIVTED_clean_linker_0, # of connection points: 2
#     Edge 44, Type (0, 0), BuildingBlock: XIVTED_clean_linker_0, # of connection points: 2
#     Edge 45, Type (0, 0), BuildingBlock: XIVTED_clean_linker_0, # of connection points: 2
#     Edge 46, Type (0, 0), BuildingBlock: XIVTED_clean_linker_0, # of connection points: 2
#     Edge 47, Type (0, 0), BuildingBlock: XIVTED_clean_linker_0, # of connection points: 2
#     Edge 48, Type (0, 0), BuildingBlock: XIVTED_clean_linker_0, # of connection points: 2
#     Edge 49, Type (0, 0), BuildingBlock: XIVTED_clean_linker_0, # of connection points: 2
#     Edge 50, Type (0, 0), BuildingBlock: XIVTED_clean_linker_0, # of connection points: 2
#     Edge 51, Type (0, 0), BuildingBlock: XIVTED_clean_linker_0, # of connection points: 2
#     Edge 52, Type (0, 0), BuildingBlock: XIVTED_clean_linker_0, # of connection points: 2
#     Edge 53, Type (0, 0), BuildingBlock: XIVTED_clean_linker_0, # of connection points: 2
#     Edge 54, Type (0, 0), BuildingBlock: XIVTED_clean_linker_0, # of connection points: 2
#     Edge 55, Type (0, 0), BuildingBlock: XIVTED_clean_linker_0, # of connection points: 2
#     Edge 56, Type (0, 0), BuildingBlock: XIVTED_clean_linker_0, # of connection points: 2
#     Edge 57, Type (0, 0), BuildingBlock: XIVTED_clean_linker_0, # of connection points: 2
#     Edge 58, Type (0, 0), BuildingBlock: XIVTED_clean_linker_0, # of connection points: 2
#     Edge 59, Type (0, 0), BuildingBlock: XIVTED_clean_linker_0, # of connection points: 2
#     Edge 60, Type (0, 0), BuildingBlock: XIVTED_clean_linker_0, # of connection points: 2
#     Edge 61, Type (0, 0), BuildingBlock: XIVTED_clean_linker_0, # of connection points: 2
#     Edge 62, Type (0, 0), BuildingBlock: XIVTED_clean_linker_0, # of connection points: 2
#     Edge 63, Type (0, 0), BuildingBlock: XIVTED_clean_linker_0, # of connection points: 2
# Relax obj value: 0.341
# Max RMSD: 0.234
# Mean RMSD: 0.234
data_MOF--net-whz--node1-UKALOJ_clean_sbu_0--edge1-XIVTED_clean_linker_0
_symmetry_space_group_name_H-M    P1
_symmetry_Int_Tables_number       1
_symmetry_cell_setting            triclinic
loop_
_symmetry_equiv_pos_as_xyz
'x, y, z'
_cell_length_a     41.531828
_cell_length_b     41.472622
_cell_length_c     47.311295
_cell_angle_alpha  89.965928
_cell_angle_beta   89.997458
_cell_angle_gamma 89.935903
loop_
_atom_site_label
_atom_site_type_symbol
_atom_site_fract_x
_atom_site_fract_y
_atom_site_fract_z
_atom_type_partial_charge
Zn0 Zn 0.30351 0.15544 0.1179 0.0
O1 O 0.30304 0.17839 0.15803 0.0
C2 C 0.31708 0.09219 0.14425 0.0
Zn3 Zn 0.25801 0.1293 0.12754 0.0
C4 C 0.2797 0.17211 0.17454 0.0
O5 O 0.25893 0.15136 0.16722 0.0
C6 C 0.27825 0.11483 0.06975 0.0
O7 O 0.22951 0.16864 0.11285 0.0
O8 O 0.27482 0.19366 0.10311 0.0
N9 N 0.21896 0.10401 0.14074 0.0
C10 C 0.18887 0.09962 0.13088 0.0
C11 C 0.19364 0.07137 0.16836 0.0
N12 N 0.22178 0.08653 0.16404 0.0
N13 N 0.1725 0.0792 0.14792 0.0
C14 C 0.37053 0.19095 0.11913 0.0
C15 C 0.37469 0.2053 0.07601 0.0
N16 N 0.34411 0.18007 0.10547 0.0
N17 N 0.34689 0.18897 0.07871 0.0
N18 N 0.39013 0.20689 0.101 0.0
H19 H 0.36001 0.20737 0.16082 0.0
H20 H 0.40032 0.19275 0.15692 0.0
H21 H 0.36694 0.16474 0.1582 0.0
C22 C 0.37506 0.18865 0.1505 0.0
C23 C 0.17635 0.11404 0.104 0.0
H24 H 0.19631 0.11972 0.08931 0.0
H25 H 0.16357 0.13685 0.10898 0.0
H26 H 0.15917 0.0974 0.09356 0.0
O27 O 0.2567 0.10775 0.08771 0.0
O28 O 0.30121 0.13352 0.07671 0.0
C29 C 0.24423 0.1937 0.10423 0.0
O30 O 0.33193 0.11673 0.13468 0.0
O31 O 0.28663 0.09127 0.14271 0.0
Zn32 Zn 0.59826 0.55476 0.37031 0.0
O33 O 0.57426 0.55964 0.41013 0.0
C34 C 0.66288 0.55925 0.39633 0.0
Zn35 Zn 0.61652 0.50626 0.38251 0.0
C36 C 0.57894 0.53752 0.42831 0.0
O37 O 0.59734 0.51419 0.42225 0.0
C38 C 0.63233 0.51929 0.32329 0.0
O39 O 0.57359 0.48367 0.37072 0.0
O40 O 0.55657 0.53065 0.35506 0.0
N41 N 0.63544 0.46459 0.39821 0.0
C42 C 0.63729 0.43353 0.38991 0.0
C43 C 0.6632 0.43765 0.42866 0.0
N44 N 0.65134 0.4669 0.42238 0.0
N45 N 0.65472 0.41615 0.40871 0.0
C46 C 0.57009 0.62561 0.36882 0.0
C47 C 0.56367 0.63237 0.32454 0.0
N48 N 0.57999 0.59823 0.35594 0.0
N49 N 0.57591 0.60261 0.32844 0.0
N50 N 0.5596 0.64734 0.34954 0.0
H51 H 0.55087 0.62206 0.41055 0.0
H52 H 0.57439 0.65787 0.40441 0.0
H53 H 0.59409 0.61922 0.4087 0.0
C54 C 0.57266 0.63167 0.39993 0.0
C55 C 0.62322 0.42081 0.36302 0.0
H56 H 0.61606 0.44067 0.34876 0.0
H57 H 0.60137 0.40655 0.368 0.0
H58 H 0.64074 0.40476 0.35224 0.0
O59 O 0.63461 0.49788 0.34237 0.0
O60 O 0.62083 0.54693 0.32947 0.0
C61 C 0.55192 0.50059 0.35886 0.0
O62 O 0.64075 0.57794 0.38731 0.0
O63 O 0.65889 0.52904 0.39461 0.0
Zn64 Zn 0.19727 0.84839 0.62074 0.0
O65 O 0.19152 0.82373 0.66 0.0
C66 C 0.19489 0.91265 0.64857 0.0
Zn67 Zn 0.24622 0.86566 0.63274 0.0
C68 C 0.21431 0.82656 0.67772 0.0
O69 O 0.23818 0.84417 0.67168 0.0
C70 C 0.23309 0.88388 0.57426 0.0
O71 O 0.26722 0.8227 0.61874 0.0
O72 O 0.21942 0.8058 0.60528 0.0
N73 N 0.28916 0.88125 0.64866 0.0
C74 C 0.31785 0.88913 0.63732 0.0
C75 C 0.32189 0.89516 0.68197 0.0
N76 N 0.29182 0.88502 0.67638 0.0
N77 N 0.33868 0.89789 0.6578 0.0
C78 C 0.12608 0.82215 0.61941 0.0
C79 C 0.11891 0.81595 0.57516 0.0
N80 N 0.15331 0.83197 0.60635 0.0
N81 N 0.14868 0.8281 0.57887 0.0
N82 N 0.10421 0.81178 0.60027 0.0
H83 H 0.12955 0.80261 0.66108 0.0
H84 H 0.09419 0.82689 0.65518 0.0
H85 H 0.13311 0.84587 0.65934 0.0
C86 C 0.12029 0.82467 0.65057 0.0
C87 C 0.32589 0.88639 0.60659 0.0
H88 H 0.31473 0.86433 0.59772 0.0
H89 H 0.35231 0.88548 0.60323 0.0
H90 H 0.31603 0.90763 0.59523 0.0
O91 O 0.25451 0.8858 0.59332 0.0
O92 O 0.20575 0.87163 0.5802 0.0
C93 C 0.24952 0.80094 0.60804 0.0
O94 O 0.17593 0.89147 0.63835 0.0
O95 O 0.22506 0.90803 0.64723 0.0
Zn96 Zn 0.8748 0.49333 0.87677 0.0
O97 O 0.91476 0.51972 0.86197 0.0
C98 C 0.8627 0.47052 0.81859 0.0
Zn99 Zn 0.90185 0.44779 0.86793 0.0
C100 C 0.93994 0.50553 0.853 0.0
O101 O 0.94085 0.47487 0.8518 0.0
C102 C 0.83752 0.43618 0.89495 0.0
O103 O 0.92341 0.45078 0.90857 0.0
O104 O 0.89521 0.49454 0.91717 0.0
N105 N 0.92444 0.4046 0.85807 0.0
C106 C 0.94869 0.38671 0.86903 0.0
C107 C 0.93093 0.36146 0.83306 0.0
N108 N 0.91357 0.38867 0.83577 0.0
N109 N 0.9531 0.35949 0.85372 0.0
C110 C 0.85658 0.56398 0.89425 0.0
C111 C 0.80556 0.56201 0.88961 0.0
N112 N 0.84908 0.53414 0.88503 0.0
N113 N 0.81739 0.53306 0.88216 0.0
N114 N 0.8296 0.5819 0.8973 0.0
H115 H 0.90485 0.55423 0.90876 0.0
H116 H 0.88936 0.5935 0.91835 0.0
H117 H 0.9014 0.58524 0.88247 0.0
C118 C 0.88995 0.5748 0.90159 0.0
C119 C 0.96921 0.39694 0.89339 0.0
H120 H 0.97549 0.4228 0.89113 0.0
H121 H 0.99167 0.38252 0.89461 0.0
H122 H 0.95544 0.39375 0.91329 0.0
O123 O 0.86228 0.42136 0.8858 0.0
O124 O 0.83599 0.46656 0.8924 0.0
C125 C 0.91658 0.47439 0.92472 0.0
O126 O 0.85514 0.49259 0.83591 0.0
O127 O 0.88109 0.44776 0.82652 0.0
Zn128 Zn 0.7433 0.86687 0.87282 0.0
O129 O 0.76803 0.82717 0.89061 0.0
C130 C 0.72315 0.88683 0.92891 0.0
Zn131 Zn 0.69612 0.84382 0.88269 0.0
C132 C 0.75216 0.80386 0.9011 0.0
O133 O 0.72154 0.805 0.90121 0.0
C134 C 0.68828 0.90655 0.8525 0.0
O135 O 0.69502 0.81733 0.84409 0.0
O136 O 0.74068 0.84145 0.83478 0.0
N137 N 0.65336 0.82361 0.89577 0.0
C138 C 0.62572 0.81534 0.88253 0.0
C139 C 0.6201 0.80372 0.9261 0.0
N140 N 0.64971 0.81628 0.9228 0.0
N141 N 0.60439 0.80269 0.90118 0.0
C142 C 0.81307 0.8957 0.8702 0.0
C143 C 0.81834 0.9009 0.82555 0.0
N144 N 0.78526 0.88607 0.85824 0.0
N145 N 0.78862 0.88944 0.83055 0.0
N146 N 0.83415 0.90505 0.85007 0.0
H147 H 0.84622 0.89223 0.90522 0.0
H148 H 0.81102 0.91673 0.9113 0.0
H149 H 0.80731 0.87356 0.91102 0.0
C150 C 0.81997 0.89428 0.90123 0.0
C151 C 0.6194 0.82111 0.85177 0.0
H152 H 0.6348 0.84071 0.84349 0.0
H153 H 0.62512 0.79884 0.83979 0.0
H154 H 0.59372 0.82731 0.84822 0.0
O155 O 0.67164 0.88359 0.86284 0.0
O156 O 0.7187 0.90574 0.85468 0.0
C157 C 0.71899 0.82156 0.82778 0.0
O158 O 0.74574 0.89157 0.91129 0.0
O159 O 0.69938 0.86907 0.92215 0.0
Zn160 Zn 0.38025 0.48953 0.62012 0.0
O161 O 0.421 0.51438 0.63596 0.0
C162 C 0.36289 0.47065 0.67701 0.0
Zn163 Zn 0.40385 0.44255 0.62967 0.0
C164 C 0.44515 0.49833 0.64469 0.0
O165 O 0.44367 0.46774 0.64556 0.0
C166 C 0.33997 0.43419 0.60195 0.0
O167 O 0.42842 0.44076 0.59031 0.0
O168 O 0.40378 0.48629 0.58125 0.0
N169 N 0.42427 0.39999 0.64287 0.0
C170 C 0.4349 0.37334 0.62939 0.0
C171 C 0.44244 0.36593 0.67348 0.0
N172 N 0.42905 0.39526 0.67024 0.0
N173 N 0.44652 0.35167 0.64818 0.0
C174 C 0.35169 0.55932 0.61803 0.0
C175 C 0.3443 0.56444 0.5736 0.0
N176 N 0.36057 0.53136 0.60582 0.0
N177 N 0.35585 0.53462 0.57826 0.0
N178 N 0.34145 0.58037 0.59821 0.0
H179 H 0.35666 0.59273 0.65276 0.0
H180 H 0.33294 0.55731 0.65998 0.0
H181 H 0.37603 0.55398 0.65791 0.0
C182 C 0.35469 0.56641 0.64895 0.0
C183 C 0.43208 0.3679 0.5982 0.0
H184 H 0.45363 0.37803 0.58758 0.0
H185 H 0.43068 0.34178 0.59332 0.0
H186 H 0.41043 0.38025 0.58975 0.0
O187 O 0.36343 0.41778 0.61171 0.0
O188 O 0.34062 0.4647 0.60375 0.0
C189 C 0.42352 0.46456 0.57393 0.0
O190 O 0.35735 0.49284 0.65918 0.0
O191 O 0.38054 0.4468 0.67013 0.0
Zn192 Zn 0.80424 0.15418 0.37926 0.0
O193 O 0.80636 0.17796 0.33934 0.0
C194 C 0.81155 0.0899 0.35135 0.0
Zn195 Zn 0.75697 0.13146 0.36911 0.0
C196 C 0.78256 0.17367 0.32286 0.0
O197 O 0.76025 0.15458 0.33011 0.0
C198 C 0.77532 0.11425 0.42658 0.0
O199 O 0.73308 0.17277 0.385 0.0
O200 O 0.77989 0.19457 0.3955 0.0
N201 N 0.71513 0.11165 0.35513 0.0
C202 C 0.68478 0.10911 0.36499 0.0
C203 C 0.68641 0.08539 0.32503 0.0
N204 N 0.71595 0.09704 0.33028 0.0
N205 N 0.66625 0.09268 0.34639 0.0
C206 C 0.86643 0.1979 0.38403 0.0
C207 C 0.89248 0.17248 0.41583 0.0
N208 N 0.8483 0.17231 0.39172 0.0
N209 N 0.86464 0.15666 0.41149 0.0
N210 N 0.89432 0.19842 0.39879 0.0
H211 H 0.82964 0.22767 0.36563 0.0
H212 H 0.86902 0.24622 0.36711 0.0
H213 H 0.86089 0.21488 0.34171 0.0
C214 C 0.85588 0.2233 0.36353 0.0
C215 C 0.67396 0.12155 0.39315 0.0
H216 H 0.66178 0.14512 0.39012 0.0
H217 H 0.6566 0.1046 0.403 0.0
H218 H 0.69468 0.12529 0.40748 0.0
O219 O 0.75344 0.10879 0.40846 0.0
O220 O 0.79948 0.13148 0.41987 0.0
C221 C 0.7493 0.19637 0.39464 0.0
O222 O 0.82809 0.113 0.36147 0.0
O223 O 0.78111 0.09121 0.35279 0.0
Zn224 Zn 0.11467 0.50591 0.11394 0.0
O225 O 0.06999 0.48887 0.12637 0.0
C226 C 0.13108 0.51945 0.1733 0.0
Zn227 Zn 0.09861 0.5554 0.12617 0.0
C228 C 0.04884 0.50655 0.138 0.0
O229 O 0.05463 0.5363 0.14236 0.0
C230 C 0.16431 0.55338 0.09916 0.0
O231 O 0.07558 0.56129 0.08602 0.0
O232 O 0.09587 0.51452 0.07396 0.0
N233 N 0.08627 0.60178 0.13816 0.0
C234 C 0.06134 0.62145 0.13169 0.0
C235 C 0.09222 0.64744 0.15946 0.0
N236 N 0.10535 0.61808 0.15542 0.0
N237 N 0.06465 0.65035 0.14467 0.0
C238 C 0.13302 0.43224 0.11288 0.0
C239 C 0.13948 0.42485 0.06865 0.0
N240 N 0.12747 0.46075 0.10002 0.0
N241 N 0.13142 0.45598 0.07255 0.0
N242 N 0.14055 0.40941 0.09363 0.0
H243 H 0.10749 0.43945 0.1517 0.0
H244 H 0.12631 0.40028 0.1485 0.0
H245 H 0.15051 0.43556 0.15523 0.0
C246 C 0.12902 0.42637 0.14389 0.0
C247 C 0.03301 0.61163 0.11411 0.0
H248 H 0.02864 0.58537 0.11597 0.0
H249 H 0.01104 0.6249 0.12068 0.0
H250 H 0.03804 0.61737 0.09164 0.0
O251 O 0.14321 0.57305 0.1085 0.0
O252 O 0.159 0.52332 0.10078 0.0
C253 C 0.07882 0.53888 0.06791 0.0
O254 O 0.1321 0.49757 0.15456 0.0
O255 O 0.12052 0.54737 0.16692 0.0
Zn256 Zn 0.80572 0.64897 0.61918 0.0
O257 O 0.80817 0.67199 0.65938 0.0
C258 C 0.80823 0.58432 0.64623 0.0
Zn259 Zn 0.75648 0.62903 0.62679 0.0
C260 C 0.78306 0.66939 0.67455 0.0
O261 O 0.75975 0.65262 0.66566 0.0
C262 C 0.77569 0.61121 0.57024 0.0
O263 O 0.73505 0.6704 0.60979 0.0
O264 O 0.78329 0.69102 0.60357 0.0
N265 N 0.71291 0.6124 0.64018 0.0
C266 C 0.6849 0.60475 0.6275 0.0
C267 C 0.67784 0.59973 0.67196 0.0
N268 N 0.7084 0.60916 0.66777 0.0
N269 N 0.66256 0.59687 0.64705 0.0
C270 C 0.87561 0.68022 0.6204 0.0
C271 C 0.88385 0.68582 0.57621 0.0
N272 N 0.85 0.66729 0.60683 0.0
N273 N 0.85544 0.67069 0.57941 0.0
N274 N 0.89715 0.69208 0.60157 0.0
H275 H 0.86221 0.70404 0.65858 0.0
H276 H 0.90265 0.68903 0.65893 0.0
H277 H 0.86927 0.66136 0.66226 0.0
C278 C 0.87783 0.68375 0.65184 0.0
C279 C 0.67913 0.60668 0.59631 0.0
H280 H 0.65309 0.60931 0.59159 0.0
H281 H 0.68806 0.58422 0.58625 0.0
H282 H 0.69253 0.6273 0.58713 0.0
O283 O 0.75306 0.60615 0.58772 0.0
O284 O 0.80033 0.6273 0.57787 0.0
C285 C 0.75283 0.69372 0.60215 0.0
O286 O 0.82728 0.60586 0.63667 0.0
O287 O 0.77806 0.58844 0.644 0.0
Zn288 Zn 0.09835 0.05392 0.87099 0.0
O289 O 0.07461 0.0574 0.91086 0.0
C290 C 0.16281 0.05628 0.89863 0.0
Zn291 Zn 0.11796 0.00473 0.87954 0.0
C292 C 0.07687 0.03237 0.92629 0.0
O293 O 0.09398 0.00891 0.91804 0.0
C294 C 0.13683 0.0232 0.82296 0.0
O295 O 0.07622 0.98338 0.86259 0.0
O296 O 0.0561 0.03179 0.85554 0.0
N297 N 0.13437 0.96104 0.89331 0.0
C298 C 0.14376 0.9335 0.88063 0.0
C299 C 0.14711 0.92597 0.92515 0.0
N300 N 0.13654 0.95624 0.92094 0.0
N301 N 0.15185 0.91121 0.90021 0.0
C302 C 0.07496 0.12642 0.87165 0.0
C303 C 0.06316 0.13293 0.82821 0.0
N304 N 0.081 0.0982 0.85835 0.0
N305 N 0.07357 0.10242 0.8314 0.0
N306 N 0.06365 0.14865 0.85313 0.0
H307 H 0.10123 0.11634 0.90994 0.0
H308 H 0.05972 0.12724 0.91473 0.0
H309 H 0.08869 0.15792 0.9058 0.0
C310 C 0.08177 0.13241 0.90228 0.0
C311 C 0.14323 0.92801 0.84936 0.0
H312 H 0.12223 0.94045 0.83979 0.0
H313 H 0.14213 0.9019 0.84437 0.0
H314 H 0.16549 0.93818 0.83995 0.0
O315 O 0.14129 0.00076 0.84077 0.0
O316 O 0.12052 0.04799 0.82993 0.0
C317 C 0.05293 0.00129 0.85494 0.0
O318 O 0.14151 0.07518 0.88844 0.0
O319 O 0.15862 0.02605 0.89693 0.0
Zn320 Zn 0.74071 0.37416 0.13521 0.0
O321 O 0.76683 0.33184 0.12712 0.0
C322 C 0.73001 0.38631 0.07416 0.0
Zn323 Zn 0.6966 0.35047 0.11985 0.0
C324 C 0.75414 0.30897 0.1132 0.0
O325 O 0.72493 0.31115 0.10531 0.0
C326 C 0.68348 0.4153 0.14452 0.0
O327 O 0.69346 0.32644 0.15973 0.0
O328 O 0.73228 0.35708 0.17584 0.0
N329 N 0.65551 0.32819 0.10542 0.0
C330 C 0.6282 0.31854 0.11842 0.0
C331 C 0.62281 0.30837 0.07453 0.0
N332 N 0.65205 0.32176 0.07817 0.0
N333 N 0.60738 0.3059 0.09947 0.0
C334 C 0.81152 0.39779 0.14392 0.0
C335 C 0.80418 0.43418 0.17515 0.0
N336 N 0.77992 0.39805 0.15029 0.0
N337 N 0.77551 0.4205 0.16981 0.0
N338 N 0.82721 0.42052 0.15912 0.0
H339 H 0.8235 0.34889 0.13453 0.0
H340 H 0.85315 0.37658 0.12262 0.0
H341 H 0.815 0.37325 0.1041 0.0
C342 C 0.82692 0.37309 0.12507 0.0
C343 C 0.62122 0.32331 0.1492 0.0
H344 H 0.62999 0.30199 0.16112 0.0
H345 H 0.59496 0.32582 0.15292 0.0
H346 H 0.63371 0.34497 0.15734 0.0
O347 O 0.66878 0.39029 0.13581 0.0
O348 O 0.71395 0.41574 0.14386 0.0
C349 C 0.71225 0.33447 0.17977 0.0
O350 O 0.75015 0.38992 0.09411 0.0
O351 O 0.70285 0.37332 0.07931 0.0
Zn352 Zn 0.37924 0.99506 0.38189 0.0
O353 O 0.42107 0.02062 0.36968 0.0
C354 C 0.36351 0.98159 0.32211 0.0
Zn355 Zn 0.40121 0.94881 0.36788 0.0
C356 C 0.44359 0.0055 0.35718 0.0
O357 O 0.44061 0.97546 0.35244 0.0
C358 C 0.33772 0.93846 0.39537 0.0
O359 O 0.42582 0.94596 0.40751 0.0
O360 O 0.39942 0.98883 0.42143 0.0
N361 N 0.42271 0.90665 0.35384 0.0
C362 C 0.43332 0.87974 0.36711 0.0
C363 C 0.44608 0.87541 0.32366 0.0
N364 N 0.43055 0.9037 0.32685 0.0
N365 N 0.44814 0.85974 0.34855 0.0
C366 C 0.35616 0.06668 0.38867 0.0
C367 C 0.32839 0.06232 0.42638 0.0
N368 N 0.35788 0.03566 0.3971 0.0
N369 N 0.34078 0.03314 0.4206 0.0
N370 N 0.33772 0.08393 0.40678 0.0
H371 H 0.37793 0.05968 0.34767 0.0
H372 H 0.39379 0.09249 0.36787 0.0
H373 H 0.35488 0.09653 0.35145 0.0
C374 C 0.37139 0.07945 0.36224 0.0
C375 C 0.43189 0.87495 0.39849 0.0
H376 H 0.45245 0.88778 0.40834 0.0
H377 H 0.43366 0.84925 0.4045 0.0
H378 H 0.40922 0.88517 0.40705 0.0
O379 O 0.36126 0.92266 0.38503 0.0
O380 O 0.3384 0.96903 0.39474 0.0
C381 C 0.42001 0.96704 0.42636 0.0
O382 O 0.35983 0.00193 0.3419 0.0
O383 O 0.37777 0.95497 0.3273 0.0
Zn384 Zn 0.24233 0.37134 0.36364 0.0
O385 O 0.26709 0.32922 0.37644 0.0
C386 C 0.23079 0.38869 0.42307 0.0
Zn387 Zn 0.19589 0.35073 0.37848 0.0
C388 C 0.25162 0.30697 0.38897 0.0
O389 O 0.22162 0.31042 0.39349 0.0
C390 C 0.18689 0.41455 0.35092 0.0
O391 O 0.19042 0.32579 0.33904 0.0
O392 O 0.23435 0.35008 0.32473 0.0
N393 N 0.15381 0.33112 0.39386 0.0
C394 C 0.12518 0.3238 0.3819 0.0
C395 C 0.12225 0.31084 0.42538 0.0
N396 N 0.15185 0.32299 0.42086 0.0
N397 N 0.10489 0.3109 0.40129 0.0
C398 C 0.31402 0.39282 0.35568 0.0
C399 C 0.30998 0.41933 0.3172 0.0
N400 N 0.28308 0.39107 0.34725 0.0
N401 N 0.28073 0.40736 0.32326 0.0
N402 N 0.3314 0.41049 0.33711 0.0
H403 H 0.30693 0.37218 0.39722 0.0
H404 H 0.34009 0.35611 0.3776 0.0
H405 H 0.34342 0.39558 0.39307 0.0
C406 C 0.32667 0.37853 0.38258 0.0
C407 C 0.11684 0.33084 0.3517 0.0
H408 H 0.13171 0.35075 0.34327 0.0
H409 H 0.12167 0.30907 0.33876 0.0
H410 H 0.09099 0.33725 0.34966 0.0
O411 O 0.17072 0.39178 0.36204 0.0
O412 O 0.21734 0.41259 0.3504 0.0
C413 C 0.21155 0.33058 0.32001 0.0
O414 O 0.25062 0.39191 0.40287 0.0
O415 O 0.20414 0.37431 0.41864 0.0
Zn416 Zn 0.89761 0.9464 0.1259 0.0
O417 O 0.91858 0.94086 0.08482 0.0
C418 C 0.83088 0.94801 0.10195 0.0
Zn419 Zn 0.88133 0.99592 0.11484 0.0
C420 C 0.91442 0.96359 0.0671 0.0
O421 O 0.89757 0.98778 0.07404 0.0
C422 C 0.86798 0.9827 0.1745 0.0
O423 O 0.92686 0.01352 0.1251 0.0
O424 O 0.94226 0.96568 0.14002 0.0
N425 N 0.86581 0.0401 0.10181 0.0
C426 C 0.8649 0.06977 0.11343 0.0
C427 C 0.8424 0.07282 0.07303 0.0
N428 N 0.85188 0.04215 0.07672 0.0
N429 N 0.85009 0.09083 0.09575 0.0
C430 C 0.93576 0.88065 0.13101 0.0
C431 C 0.90631 0.85526 0.16039 0.0
N432 N 0.91087 0.90025 0.13775 0.0
N433 N 0.89267 0.8843 0.15598 0.0
N434 N 0.93334 0.85217 0.14488 0.0
H435 H 0.96731 0.91656 0.11327 0.0
H436 H 0.98559 0.87738 0.11841 0.0
H437 H 0.95725 0.88371 0.09012 0.0
C438 C 0.96319 0.8902 0.11226 0.0
C439 C 0.87979 0.07793 0.14138 0.0
H440 H 0.89955 0.06104 0.14657 0.0
H441 H 0.88932 0.10291 0.14125 0.0
H442 H 0.86129 0.07576 0.15819 0.0
O443 O 0.86637 0.00457 0.15582 0.0
O444 O 0.87778 0.95459 0.16775 0.0
C445 C 0.94832 0.99541 0.13581 0.0
O446 O 0.8524 0.92814 0.11007 0.0
O447 O 0.83638 0.97796 0.10392 0.0
Zn448 Zn 0.30386 0.64632 0.87532 0.0
O449 O 0.30766 0.66707 0.83437 0.0
C450 C 0.30524 0.58011 0.85068 0.0
Zn451 Zn 0.25457 0.62704 0.86719 0.0
C452 C 0.28305 0.66399 0.81861 0.0
O453 O 0.25932 0.64757 0.82724 0.0
C454 C 0.27231 0.61148 0.92482 0.0
O455 O 0.23441 0.67081 0.88112 0.0
O456 O 0.28288 0.69011 0.88924 0.0
N457 N 0.21122 0.60939 0.85412 0.0
C458 C 0.18089 0.60802 0.8643 0.0
C459 C 0.18072 0.58591 0.82365 0.0
N460 N 0.21092 0.59559 0.82892 0.0
N461 N 0.16113 0.59332 0.8454 0.0
C462 C 0.36796 0.68694 0.87895 0.0
C463 C 0.39373 0.66041 0.91023 0.0
N464 N 0.34919 0.66184 0.8867 0.0
N465 N 0.36536 0.64546 0.90611 0.0
N466 N 0.39608 0.68645 0.89336 0.0
H467 H 0.33166 0.71717 0.86018 0.0
H468 H 0.37101 0.73561 0.86295 0.0
H469 H 0.36365 0.70489 0.83686 0.0
C470 C 0.35794 0.71281 0.85869 0.0
C471 C 0.171 0.62208 0.89214 0.0
H472 H 0.18898 0.63958 0.89992 0.0
H473 H 0.14719 0.63406 0.89031 0.0
H474 H 0.16937 0.60247 0.90803 0.0
O475 O 0.24957 0.60706 0.9073 0.0
O476 O 0.29761 0.62645 0.91712 0.0
C477 C 0.25247 0.69397 0.88874 0.0
O478 O 0.32425 0.60198 0.8595 0.0
O479 O 0.27515 0.58452 0.85268 0.0
Zn480 Zn 0.61879 0.00147 0.61703 0.0
O481 O 0.57694 0.97974 0.63285 0.0
C482 C 0.63927 0.01582 0.67457 0.0
Zn483 Zn 0.60114 0.05035 0.62867 0.0
C484 C 0.55505 0.99747 0.64336 0.0
O485 O 0.55932 0.02778 0.64498 0.0
C486 C 0.66444 0.05331 0.59972 0.0
O487 O 0.5758 0.05552 0.58962 0.0
O488 O 0.5956 0.00828 0.57879 0.0
N489 N 0.58431 0.09408 0.64315 0.0
C490 C 0.5736 0.12114 0.63026 0.0
C491 C 0.56468 0.12652 0.67436 0.0
N492 N 0.57895 0.0977 0.67055 0.0
N493 N 0.56108 0.14184 0.64945 0.0
C494 C 0.64209 0.92995 0.61208 0.0
C495 C 0.6494 0.9268 0.56751 0.0
N496 N 0.63457 0.95888 0.601 0.0
N497 N 0.63908 0.9568 0.57333 0.0
N498 N 0.65144 0.90953 0.59148 0.0
H499 H 0.61998 0.93601 0.65296 0.0
H500 H 0.63311 0.89531 0.64504 0.0
H501 H 0.66224 0.92584 0.6533 0.0
C502 C 0.63892 0.92128 0.64265 0.0
C503 C 0.57281 0.12572 0.59885 0.0
H504 H 0.55089 0.11399 0.59028 0.0
H505 H 0.57198 0.1515 0.59292 0.0
H506 H 0.59431 0.11442 0.58905 0.0
O507 O 0.64354 0.07228 0.61041 0.0
O508 O 0.65984 0.02313 0.60095 0.0
C509 C 0.57826 0.03222 0.57235 0.0
O510 O 0.64142 0.99434 0.65556 0.0
O511 O 0.62518 0.0424 0.66887 0.0
H512 H 0.23681 0.16079 0.21714 0.0
H513 H 0.24421 0.34284 0.27148 0.0
H514 H 0.30484 0.23142 0.18682 0.0
H515 H 0.18708 0.26972 0.31262 0.0
H516 H 0.26185 0.30314 0.23688 0.0
H517 H 0.21625 0.20026 0.25094 0.0
C518 C 0.24786 0.18442 0.21797 0.0
C519 C 0.27258 0.19285 0.19909 0.0
C520 C 0.24519 0.29578 0.25327 0.0
C521 C 0.24852 0.23836 0.23718 0.0
C522 C 0.23478 0.31854 0.27283 0.0
C523 C 0.21431 0.30949 0.29506 0.0
C524 C 0.23514 0.26365 0.25592 0.0
C525 C 0.20278 0.27772 0.29575 0.0
C526 C 0.23589 0.20701 0.2371 0.0
C527 C 0.28591 0.22381 0.20105 0.0
N528 N 0.21369 0.25577 0.27663 0.0
N529 N 0.27346 0.24555 0.21955 0.0
H530 H 0.48279 0.43861 0.56254 0.0
H531 H 0.51975 0.56454 0.43827 0.0
H532 H 0.41309 0.50707 0.53104 0.0
H533 H 0.59093 0.50118 0.47492 0.0
H534 H 0.48059 0.54541 0.47315 0.0
H535 H 0.52223 0.45997 0.52902 0.0
C536 C 0.47555 0.45756 0.5481 0.0
C537 C 0.44468 0.47113 0.5496 0.0
C538 C 0.50493 0.53604 0.47379 0.0
C539 C 0.48983 0.49633 0.51186 0.0
C540 C 0.5274 0.54735 0.45417 0.0
C541 C 0.55851 0.53423 0.4536 0.0
C542 C 0.51374 0.51146 0.4928 0.0
C543 C 0.56706 0.51172 0.47448 0.0
C544 C 0.4982 0.47012 0.52929 0.0
C545 C 0.43671 0.49598 0.53065 0.0
N546 N 0.54469 0.50074 0.49299 0.0
N547 N 0.45921 0.50794 0.51271 0.0
H548 H 0.18591 0.76763 0.68563 0.0
H549 H 0.31367 0.72042 0.80543 0.0
H550 H 0.25221 0.83473 0.72389 0.0
H551 H 0.23956 0.65562 0.7762 0.0
H552 H 0.29408 0.76118 0.77235 0.0
H553 H 0.20489 0.72582 0.71824 0.0
C554 C 0.20371 0.77382 0.70145 0.0
C555 C 0.21763 0.8046 0.70201 0.0
C556 C 0.28232 0.7379 0.77295 0.0
C557 C 0.24025 0.7568 0.73851 0.0
C558 C 0.29389 0.71442 0.79149 0.0
C559 C 0.27812 0.68468 0.79366 0.0
C560 C 0.25488 0.73148 0.75646 0.0
C561 C 0.2523 0.67837 0.77529 0.0
C562 C 0.21494 0.74983 0.71973 0.0
C563 C 0.24098 0.81121 0.72265 0.0
N564 N 0.24127 0.7017 0.75765 0.0
N565 N 0.25184 0.78741 0.73983 0.0
H566 H 0.90952 0.52371 0.96272 0.0
H567 H 0.0887 0.50261 0.02095 0.0
H568 H 0.97256 0.4447 0.94088 0.0
H569 H 0.02078 0.56874 0.0585 0.0
H570 H 0.04799 0.48682 0.98663 0.0
H571 H 0.95039 0.54373 0.99546 0.0
C572 C 0.93168 0.5102 0.96516 0.0
C573 C 0.93763 0.48246 0.94889 0.0
C574 C 0.04204 0.50507 0.00215 0.0
C575 C 0.98477 0.50584 0.98573 0.0
C576 C 0.06541 0.51441 0.02153 0.0
C577 C 0.05803 0.53687 0.04272 0.0
C578 C 0.01098 0.51822 0.00395 0.0
C579 C 0.02751 0.55143 0.04244 0.0
C580 C 0.9551 0.52186 0.98367 0.0
C581 C 0.96685 0.46612 0.95289 0.0
N582 N 0.00488 0.54153 0.02355 0.0
N583 N 0.98943 0.47823 0.97069 0.0
H584 H 0.68826 0.76529 0.81327 0.0
H585 H 0.81572 0.72374 0.69111 0.0
H586 H 0.76431 0.82948 0.78682 0.0
H587 H 0.73775 0.66077 0.71533 0.0
H588 H 0.79895 0.76165 0.72795 0.0
H589 H 0.70583 0.72654 0.77737 0.0
C590 C 0.70824 0.77147 0.7996 0.0
C591 C 0.72489 0.80058 0.80311 0.0
C592 C 0.7857 0.73937 0.72536 0.0
C593 C 0.74561 0.75619 0.76253 0.0
C594 C 0.79555 0.71756 0.70457 0.0
C595 C 0.77804 0.68916 0.70009 0.0
C596 C 0.7582 0.73265 0.74171 0.0
C597 C 0.75183 0.68253 0.71795 0.0
C598 C 0.71851 0.74923 0.77932 0.0
C599 C 0.75084 0.80724 0.78496 0.0
N600 N 0.74256 0.70421 0.73781 0.0
N601 N 0.76051 0.78515 0.76561 0.0
H602 H 0.74842 0.34614 0.22683 0.0
H603 H 0.74244 0.16278 0.27843 0.0
H604 H 0.68827 0.27367 0.18817 0.0
H605 H 0.80776 0.2336 0.3126 0.0
H606 H 0.7224 0.20292 0.24509 0.0
H607 H 0.76779 0.30597 0.26042 0.0
C608 C 0.73871 0.32193 0.22579 0.0
C609 C 0.71683 0.31321 0.20449 0.0
C610 C 0.74137 0.20963 0.25964 0.0
C611 C 0.73959 0.26688 0.2425 0.0
C612 C 0.75308 0.18663 0.27849 0.0
C613 C 0.77679 0.19489 0.29835 0.0
C614 C 0.75326 0.24125 0.26077 0.0
C615 C 0.78964 0.22613 0.29754 0.0
C616 C 0.75011 0.29891 0.24478 0.0
C617 C 0.70511 0.28149 0.20423 0.0
N618 N 0.77743 0.24831 0.27926 0.0
N619 N 0.71692 0.25937 0.22274 0.0
H620 H 0.90311 0.00072 0.02072 0.0
H621 H 0.08637 0.99117 0.97012 0.0
H622 H 0.97307 0.93575 0.05695 0.0
H623 H 0.01745 0.05878 0.93617 0.0
H624 H 0.04524 0.97069 0.00219 0.0
H625 H 0.94365 0.01949 0.98726 0.0
C626 C 0.9268 0.98974 0.0211 0.0
C627 C 0.93479 0.96673 0.04174 0.0
C628 C 0.03914 0.99025 0.98799 0.0
C629 C 0.9816 0.98889 0.00409 0.0
C630 C 0.06272 0.00225 0.96992 0.0
C631 C 0.05529 0.02675 0.9505 0.0
C632 C 0.00777 0.00268 0.98653 0.0
C633 C 0.02427 0.0401 0.95101 0.0
C634 C 0.95006 0.00081 0.00224 0.0
C635 C 0.96581 0.95338 0.04131 0.0
N636 N 0.0015 0.02762 0.96853 0.0
N637 N 0.98826 0.96501 0.02305 0.0
H638 H 0.47948 0.94031 0.43532 0.0
H639 H 0.51921 0.05999 0.56358 0.0
H640 H 0.40974 0.00486 0.47253 0.0
H641 H 0.58848 0.99537 0.5259 0.0
H642 H 0.47913 0.04192 0.52904 0.0
H643 H 0.51938 0.95902 0.46954 0.0
C644 C 0.47232 0.95778 0.45114 0.0
C645 C 0.44133 0.97118 0.45098 0.0
C646 C 0.50324 0.03201 0.52813 0.0
C647 C 0.48702 0.99344 0.48956 0.0
C648 C 0.52623 0.04273 0.54753 0.0
C649 C 0.55708 0.02905 0.54761 0.0
C650 C 0.51133 0.00752 0.50881 0.0
C651 C 0.56483 0.00639 0.52664 0.0
C652 C 0.49523 0.96885 0.4704 0.0
C653 C 0.43347 0.99404 0.47179 0.0
N654 N 0.54202 0.99609 0.50828 0.0
N655 N 0.45626 0.00469 0.49006 0.0
H656 H 0.1746 0.11822 0.91753 0.0
H657 H 0.26247 0.05546 0.05003 0.0
H658 H 0.21233 0.02119 0.92044 0.0
H659 H 0.28041 0.15304 0.02301 0.0
H660 H 0.24276 0.04264 0.00258 0.0
H661 H 0.21228 0.13329 0.95539 0.0
C662 C 0.19128 0.10033 0.92556 0.0
C663 C 0.18987 0.06826 0.91613 0.0
C664 C 0.25171 0.06668 0.00681 0.0
C665 C 0.23228 0.08514 0.95958 0.0
C666 C 0.263 0.07392 0.03381 0.0
C667 C 0.27337 0.10517 0.04016 0.0
C668 C 0.24959 0.09121 0.98639 0.0
C669 C 0.27304 0.1285 0.01865 0.0
C670 C 0.21272 0.10893 0.94716 0.0
C671 C 0.21209 0.04608 0.92735 0.0
N672 N 0.26057 0.12128 0.99279 0.0
N673 N 0.23181 0.05473 0.94889 0.0
H674 H 0.61573 0.4619 0.30144 0.0
H675 H 0.70512 0.47554 0.15848 0.0
H676 H 0.65588 0.55374 0.27733 0.0
H677 H 0.62513 0.41079 0.17102 0.0
H678 H 0.68725 0.50707 0.19932 0.0
H679 H 0.62018 0.44359 0.25296 0.0
C680 C 0.62586 0.47816 0.28591 0.0
C681 C 0.63618 0.50914 0.29356 0.0
C682 C 0.67307 0.48656 0.19258 0.0
C683 C 0.64102 0.48829 0.23753 0.0
C684 C 0.68315 0.46858 0.16921 0.0
C685 C 0.66689 0.44012 0.16163 0.0
C686 C 0.64696 0.4756 0.20869 0.0
C687 C 0.63856 0.43235 0.17621 0.0
C688 C 0.62789 0.46784 0.25807 0.0
C689 C 0.64808 0.52952 0.2723 0.0
N690 N 0.62999 0.44949 0.1995 0.0
N691 N 0.6508 0.51849 0.2452 0.0
H692 H 0.19758 0.90953 0.52992 0.0
H693 H 0.34146 0.87924 0.42057 0.0
H694 H 0.29036 0.8694 0.55099 0.0
H695 H 0.27946 0.96236 0.41277 0.0
H696 H 0.30998 0.86163 0.46144 0.0
H697 H 0.21658 0.91731 0.48075 0.0
C698 C 0.22181 0.90239 0.52421 0.0
C699 C 0.24275 0.88959 0.54463 0.0
C700 C 0.30283 0.88332 0.4503 0.0
C701 C 0.26385 0.8969 0.48881 0.0
C702 C 0.32057 0.89321 0.42679 0.0
C703 C 0.3134 0.92258 0.41352 0.0
C704 C 0.27758 0.90273 0.4604 0.0
C705 C 0.28606 0.93975 0.42267 0.0
C706 C 0.23253 0.90667 0.49628 0.0
C707 C 0.27375 0.88021 0.53614 0.0
N708 N 0.26937 0.92984 0.44585 0.0
N709 N 0.28327 0.88393 0.50895 0.0
H710 H 0.77293 0.53358 0.66531 0.0
H711 H 0.90333 0.46662 0.77369 0.0
H712 H 0.86918 0.57283 0.66765 0.0
H713 H 0.8047 0.48673 0.79593 0.0
H714 H 0.89271 0.4869 0.72561 0.0
H715 H 0.78723 0.49676 0.70342 0.0
C716 C 0.79736 0.534 0.67333 0.0
C717 C 0.81972 0.55691 0.66363 0.0
C718 C 0.8733 0.48601 0.74088 0.0
C719 C 0.83612 0.51438 0.70713 0.0
C720 C 0.87918 0.4742 0.7681 0.0
C721 C 0.8547 0.4749 0.78856 0.0
C722 C 0.84256 0.49765 0.73409 0.0
C723 C 0.82407 0.48568 0.78063 0.0
C724 C 0.80538 0.51295 0.69512 0.0
C725 C 0.85111 0.55581 0.67465 0.0
N726 N 0.81883 0.49663 0.75397 0.0
N727 N 0.85832 0.53515 0.69618 0.0
H728 H 0.78427 0.98599 0.07869 0.0
H729 H 0.71049 0.85294 0.97689 0.0
H730 H 0.81419 0.88646 0.08516 0.0
H731 H 0.74704 0.94423 0.94742 0.0
H732 H 0.72815 0.86676 0.02508 0.0
H733 H 0.74884 0.97149 0.03966 0.0
C734 C 0.78275 0.96088 0.07254 0.0
C735 C 0.80288 0.93748 0.08488 0.0
C736 C 0.73149 0.88397 0.0081 0.0
C737 C 0.76193 0.92095 0.0404 0.0
C738 C 0.72126 0.8763 0.98077 0.0
C739 C 0.7273 0.89762 0.95831 0.0
C740 C 0.74688 0.91349 0.01295 0.0
C741 C 0.74192 0.92726 0.96422 0.0
C742 C 0.76257 0.95276 0.05017 0.0
C743 C 0.79943 0.90532 0.07607 0.0
N744 N 0.7512 0.93437 0.99103 0.0
N745 N 0.77964 0.89802 0.05401 0.0
H746 H 0.36704 0.56683 0.83248 0.0
H747 H 0.3048 0.49185 0.69582 0.0
H748 H 0.26937 0.53145 0.82838 0.0
H749 H 0.3987 0.46202 0.72459 0.0
H750 H 0.29178 0.50915 0.74401 0.0
H751 H 0.38139 0.53025 0.79359 0.0
C752 C 0.34887 0.5508 0.82403 0.0
C753 C 0.31682 0.5527 0.83336 0.0
C754 C 0.31498 0.49814 0.7399 0.0
C755 C 0.33288 0.5117 0.7887 0.0
C756 C 0.32235 0.48831 0.71249 0.0
C757 C 0.35266 0.47526 0.70648 0.0
C758 C 0.33855 0.49608 0.76111 0.0
C759 C 0.37488 0.4716 0.72863 0.0
C760 C 0.35706 0.53002 0.80183 0.0
C761 C 0.29426 0.5313 0.82157 0.0
N762 N 0.36769 0.48272 0.75495 0.0
N763 N 0.30251 0.51236 0.79937 0.0
H764 H 0.78224 0.15142 0.47353 0.0
H765 H 0.71326 0.01779 0.57737 0.0
H766 H 0.75398 0.05643 0.44624 0.0
H767 H 0.67647 0.11519 0.5805 0.0
H768 H 0.74841 0.03324 0.53846 0.0
H769 H 0.76233 0.13878 0.52137 0.0
C770 C 0.7728 0.12759 0.47789 0.0
C771 C 0.76984 0.10476 0.45614 0.0
C772 C 0.73315 0.05135 0.54814 0.0
C773 C 0.74763 0.09029 0.51032 0.0
C774 C 0.71309 0.04268 0.5704 0.0
C775 C 0.6913 0.06511 0.58189 0.0
C776 C 0.73194 0.08278 0.5375 0.0
C777 C 0.69264 0.09708 0.57212 0.0
C778 C 0.76125 0.12059 0.50498 0.0
C779 C 0.75678 0.07453 0.46254 0.0
N780 N 0.71237 0.10493 0.55014 0.0
N781 N 0.74623 0.06811 0.48912 0.0
H782 H 0.12628 0.41353 0.32835 0.0
H783 H 0.16122 0.55358 0.21599 0.0
H784 H 0.21233 0.47161 0.33237 0.0
H785 H 0.11122 0.46479 0.19835 0.0
H786 H 0.16921 0.53515 0.26526 0.0
H787 H 0.10796 0.44572 0.28811 0.0
C788 C 0.14081 0.43372 0.32143 0.0
C789 C 0.17114 0.43952 0.33338 0.0
C790 C 0.15629 0.51998 0.2505 0.0
C791 C 0.15051 0.4761 0.28723 0.0
C792 C 0.15188 0.53037 0.22253 0.0
C793 C 0.13631 0.51024 0.20305 0.0
C794 C 0.14401 0.48988 0.25897 0.0
C795 C 0.12419 0.4806 0.21252 0.0
C796 C 0.1305 0.45187 0.29828 0.0
C797 C 0.18898 0.46603 0.32344 0.0
N798 N 0.12824 0.47136 0.23975 0.0
N799 N 0.17865 0.48308 0.30061 0.0
H800 H 0.78254 0.65107 0.52502 0.0
H801 H 0.71442 0.52448 0.41456 0.0
H802 H 0.75429 0.5546 0.54802 0.0
H803 H 0.67334 0.62009 0.4186 0.0
H804 H 0.74998 0.53812 0.45371 0.0
H805 H 0.76206 0.64151 0.47681 0.0
C806 C 0.77305 0.62754 0.5196 0.0
C807 C 0.77033 0.60338 0.54027 0.0
C808 C 0.73373 0.55632 0.4455 0.0
C809 C 0.74741 0.59242 0.48564 0.0
C810 C 0.71344 0.54871 0.42309 0.0
C811 C 0.69029 0.571 0.41358 0.0
C812 C 0.73145 0.58664 0.45823 0.0
C813 C 0.69061 0.6021 0.42536 0.0
C814 C 0.76114 0.62231 0.49231 0.0
C815 C 0.75706 0.57365 0.53255 0.0
N816 N 0.71061 0.60892 0.44743 0.0
N817 N 0.74619 0.56894 0.50578 0.0
H818 H 0.19503 0.00251 0.80408 0.0
H819 H 0.13298 0.92481 0.66731 0.0
H820 H 0.10025 0.02957 0.77553 0.0
H821 H 0.23028 0.9611 0.67178 0.0
H822 H 0.11827 0.96078 0.7066 0.0
H823 H 0.20788 0.98404 0.75617 0.0
C824 C 0.17724 0.00521 0.78749 0.0
C825 C 0.14679 0.01793 0.79348 0.0
C826 C 0.14261 0.96131 0.69838 0.0
C827 C 0.16068 0.99565 0.73918 0.0
C828 C 0.151 0.9409 0.67594 0.0
C829 C 0.18304 0.9395 0.6665 0.0
C830 C 0.16658 0.9798 0.71165 0.0
C831 C 0.2054 0.96088 0.6786 0.0
C832 C 0.1845 0.99466 0.76024 0.0
C833 C 0.12422 0.02036 0.77147 0.0
N834 N 0.19696 0.97951 0.70097 0.0
N835 N 0.13134 0.00861 0.74532 0.0
H836 H 0.69433 0.40288 0.02682 0.0
H837 H 0.8457 0.38029 0.92467 0.0
H838 H 0.79069 0.38017 0.05459 0.0
H839 H 0.77684 0.45633 0.90934 0.0
H840 H 0.81449 0.36384 0.9661 0.0
H841 H 0.7151 0.40897 0.97806 0.0
C842 C 0.71972 0.39923 0.02267 0.0
C843 C 0.74095 0.39165 0.0448 0.0
C844 C 0.80584 0.38362 0.95319 0.0
C845 C 0.76425 0.39693 0.98951 0.0
C846 C 0.82343 0.39281 0.92938 0.0
C847 C 0.81411 0.42002 0.91379 0.0
C848 C 0.77856 0.40145 0.96118 0.0
C849 C 0.78506 0.43544 0.92104 0.0
C850 C 0.73145 0.40252 0.99498 0.0
C851 C 0.77357 0.38672 0.03831 0.0
N852 N 0.76846 0.42622 0.94449 0.0
N853 N 0.78414 0.38923 0.01131 0.0
H854 H 0.37079 0.10085 0.17648 0.0
H855 H 0.36115 0.94525 0.27279 0.0
H856 H 0.299 0.02992 0.15483 0.0
H857 H 0.35167 0.04257 0.30425 0.0
H858 H 0.35609 0.96658 0.22407 0.0
H859 H 0.38565 0.06822 0.21767 0.0
C860 C 0.3591 0.07779 0.17967 0.0
C861 C 0.33338 0.06824 0.16245 0.0
C862 C 0.35522 0.98295 0.24187 0.0
C863 C 0.35028 0.03103 0.20931 0.0
C864 C 0.35782 0.97089 0.26955 0.0
C865 C 0.35668 0.99209 0.29273 0.0
C866 C 0.35274 0.01638 0.23762 0.0
C867 C 0.35261 0.02517 0.28725 0.0
C868 C 0.36739 0.05938 0.20327 0.0
C869 C 0.31878 0.03823 0.16782 0.0
N870 N 0.35123 0.03625 0.26036 0.0
N871 N 0.32711 0.0208 0.19109 0.0
H872 H 0.27861 0.45511 0.59152 0.0
H873 H 0.29126 0.40517 0.43928 0.0
H874 H 0.34689 0.38114 0.56862 0.0
H875 H 0.19601 0.38894 0.4732 0.0
H876 H 0.31211 0.40935 0.48708 0.0
H877 H 0.24605 0.44086 0.54996 0.0
C878 C 0.28615 0.43514 0.57832 0.0
C879 C 0.31558 0.41937 0.58337 0.0
C880 C 0.28663 0.40496 0.48399 0.0
C881 C 0.27919 0.40394 0.53576 0.0
C882 C 0.27452 0.4029 0.45671 0.0
C883 C 0.24174 0.39648 0.45209 0.0
C884 C 0.26583 0.40151 0.50701 0.0
C885 C 0.22143 0.39388 0.4758 0.0
C886 C 0.26759 0.42712 0.55469 0.0
C887 C 0.32437 0.39385 0.56555 0.0
N888 N 0.23379 0.39668 0.50244 0.0
N889 N 0.30676 0.3876 0.54199 0.0
H890 H 0.89187 0.03615 0.19839 0.0
H891 H 0.78499 0.03318 0.33319 0.0
H892 H 0.83668 0.95111 0.21822 0.0
H893 H 0.87163 0.09017 0.32755 0.0
H894 H 0.80384 1.00039 0.2935 0.0
H895 H 0.88472 0.05515 0.24658 0.0
C896 C 0.87817 0.02146 0.21303 0.0
C897 C 0.86436 0.99231 0.2043 0.0
C898 C 0.81909 0.01952 0.30144 0.0
C899 C 0.85595 0.01401 0.25968 0.0
C900 C 0.80839 0.03826 0.32411 0.0
C901 C 0.82654 0.06483 0.3334 0.0
C902 C 0.84781 0.02782 0.28769 0.0
C903 C 0.85672 0.07014 0.32097 0.0
C904 C 0.8744 0.03215 0.24064 0.0
C905 C 0.84745 0.97386 0.2242 0.0
N906 N 0.86605 0.05228 0.29833 0.0
N907 N 0.84311 0.98537 0.25097 0.0
H908 H 0.18104 0.61564 0.08467 0.0
H909 H 0.28787 0.64572 0.97219 0.0
H910 H 0.2093 0.51634 0.07262 0.0
H911 H 0.24447 0.55675 0.9446 0.0
H912 H 0.2701 0.63399 0.02084 0.0
H913 H 0.21713 0.63109 0.04586 0.0
C914 C 0.19549 0.59724 0.07452 0.0
C915 C 0.19171 0.56459 0.08166 0.0
C916 C 0.26499 0.61691 0.00413 0.0
C917 C 0.23248 0.58201 0.03722 0.0
C918 C 0.27534 0.62336 0.97655 0.0
C919 C 0.26746 0.60213 0.95452 0.0
C920 C 0.24736 0.58872 0.00954 0.0
C921 C 0.25087 0.57372 0.96105 0.0
C922 C 0.21611 0.60609 0.05241 0.0
C923 C 0.21103 0.54176 0.06766 0.0
N924 N 0.24142 0.5678 0.98802 0.0
N925 N 0.22984 0.55079 0.0456 0.0
H926 H 0.63009 0.0507 0.72385 0.0
H927 H 0.63339 0.90129 0.82099 0.0
H928 H 0.66846 0.96075 0.6925 0.0
H929 H 0.71135 0.96653 0.83989 0.0
H930 H 0.61953 0.93477 0.77992 0.0
H931 H 0.63723 0.03032 0.77258 0.0
C932 C 0.64038 0.02698 0.72711 0.0
C933 C 0.64845 0.00729 0.70395 0.0
C934 C 0.63891 0.94223 0.79378 0.0
C935 C 0.65537 0.98388 0.75902 0.0
C936 C 0.64674 0.92331 0.81723 0.0
C937 C 0.67374 0.93101 0.83367 0.0
C938 C 0.65779 0.96922 0.7872 0.0
C939 C 0.6905 0.95965 0.82755 0.0
C940 C 0.64413 0.0154 0.7548 0.0
C941 C 0.66151 0.97667 0.7095 0.0
N942 N 0.68259 0.97753 0.80446 0.0
N943 N 0.6641 0.96575 0.7364 0.0
H944 H 0.40499 0.26648 0.0832 0.0
H945 H 0.5875 0.26159 0.13796 0.0
H946 H 0.44411 0.18438 0.12716 0.0
H947 H 0.55473 0.32144 0.06935 0.0
H948 H 0.533 0.23853 0.14185 0.0
H949 H 0.45772 0.29272 0.08557 0.0
C950 C 0.42464 0.25429 0.09383 0.0
C951 C 0.42005 0.22362 0.1056 0.0
C952 C 0.53772 0.25689 0.12611 0.0
C953 C 0.48057 0.2532 0.10813 0.0
C954 C 0.56864 0.27017 0.12406 0.0
C955 C 0.57533 0.29358 0.10347 0.0
C956 C 0.51338 0.26745 0.10763 0.0
C957 C 0.55039 0.30346 0.08549 0.0
C958 C 0.4547 0.26916 0.09509 0.0
C959 C 0.44635 0.20854 0.11878 0.0
N960 N 0.52051 0.29047 0.08805 0.0
N961 N 0.47556 0.22349 0.1197 0.0
H962 H 0.57582 0.70055 0.32041 0.0
H963 H 0.42724 0.80525 0.3751 0.0
H964 H 0.5124 0.66634 0.3858 0.0
H965 H 0.5078 0.84577 0.33022 0.0
H966 H 0.4566 0.7539 0.37901 0.0
H967 H 0.55 0.75358 0.32291 0.0
C968 C 0.55665 0.70445 0.33554 0.0
C969 C 0.54649 0.67928 0.35317 0.0
C970 C 0.46807 0.77419 0.36872 0.0
C971 C 0.51619 0.73968 0.35582 0.0
C972 C 0.45146 0.80358 0.36678 0.0
C973 C 0.46556 0.83005 0.35305 0.0
C974 C 0.49866 0.77108 0.35624 0.0
C975 C 0.49628 0.82603 0.34124 0.0
C976 C 0.5419 0.73467 0.337 0.0
C977 C 0.52132 0.68536 0.37225 0.0
N978 N 0.51171 0.79716 0.343 0.0
N979 N 0.50679 0.71488 0.37291 0.0
H980 H 0.95003 0.67715 0.63301 0.0
H981 H 0.05069 0.82525 0.57056 0.0
H982 H 0.90993 0.74963 0.57814 0.0
H983 H 0.0867 0.7652 0.63777 0.0
H984 H 0.99872 0.79776 0.57364 0.0
H985 H 1e-05 0.70881 0.63615 0.0
C986 C 0.95153 0.70011 0.62221 0.0
C987 C 0.92566 0.71124 0.60581 0.0
C988 C 0.01777 0.79077 0.58802 0.0
C989 C 0.98292 0.74695 0.60838 0.0
C990 C 0.04739 0.8065 0.58623 0.0
C991 C 0.07277 0.79781 0.6042 0.0
C992 C 0.01356 0.76561 0.60759 0.0
C993 C 0.06748 0.7731 0.62398 0.0
C994 C 0.9801 0.71803 0.62376 0.0
C995 C 0.92928 0.74043 0.59119 0.0
N996 N 0.03853 0.75767 0.62502 0.0
N997 N 0.95732 0.75719 0.59274 0.0
H998 H 0.96376 0.3243 0.90128 0.0
H999 H 0.07487 0.19793 0.81762 0.0
H1000 H 0.99113 0.3335 0.81392 0.0
H1001 H 0.0288 0.17468 0.89663 0.0
H1002 H 0.05269 0.25239 0.82041 0.0
H1003 H 0.99563 0.27417 0.90437 0.0
C1004 C 0.97715 0.31611 0.883 0.0
C1005 C 0.97519 0.33304 0.85737 0.0
C1006 C 0.04772 0.23557 0.83737 0.0
C1007 C 0.01113 0.2759 0.86052 0.0
C1008 C 0.06044 0.20451 0.8358 0.0
C1009 C 0.05395 0.1818 0.85701 0.0
C1010 C 0.028 0.24418 0.86027 0.0
C1011 C 0.03502 0.19158 0.88011 0.0
C1012 C 0.99503 0.28745 0.88466 0.0
C1013 C 0.99223 0.32113 0.83404 0.0
N1014 N 0.02251 0.222 0.88105 0.0
N1015 N 0.00941 0.29335 0.83616 0.0
H1016 H 0.55542 0.80813 0.93809 0.0
H1017 H 0.42901 0.7061 0.84689 0.0
H1018 H 0.57964 0.76833 0.85665 0.0
H1019 H 0.42548 0.7145 0.93751 0.0
H1020 H 0.47892 0.73832 0.84662 0.0
H1021 H 0.50223 0.78331 0.93471 0.0
C1022 C 0.54938 0.79454 0.91929 0.0
C1023 C 0.57197 0.79077 0.89747 0.0
C1024 C 0.46699 0.73337 0.8665 0.0
C1025 C 0.51097 0.76213 0.89345 0.0
C1026 C 0.43848 0.7153 0.86662 0.0
C1027 C 0.42317 0.708 0.89226 0.0
C1028 C 0.47988 0.74446 0.89219 0.0
C1029 C 0.43664 0.71978 0.91736 0.0
C1030 C 0.51904 0.78035 0.91739 0.0
C1031 C 0.56281 0.77279 0.8736 0.0
N1032 N 0.46413 0.73749 0.91671 0.0
N1033 N 0.53301 0.75908 0.87224 0.0
H1034 H 0.49321 0.33485 0.61073 0.0
H1035 H 0.50159 0.1534 0.66899 0.0
H1036 H 0.43247 0.29759 0.67683 0.0
H1037 H 0.5791 0.19667 0.622 0.0
H1038 H 0.47126 0.20386 0.6655 0.0
H1039 H 0.52025 0.28206 0.60774 0.0
C1040 C 0.48519 0.31531 0.62416 0.0
C1041 C 0.46042 0.32027 0.64385 0.0
C1042 C 0.49475 0.20231 0.65565 0.0
C1043 C 0.49128 0.26032 0.64089 0.0
C1044 C 0.51198 0.17354 0.65763 0.0
C1045 C 0.54254 0.1708 0.64534 0.0
C1046 C 0.50824 0.22875 0.64138 0.0
C1047 C 0.55519 0.19759 0.63103 0.0
C1048 C 0.50077 0.28538 0.62267 0.0
C1049 C 0.45142 0.29456 0.66134 0.0
N1050 N 0.53798 0.22554 0.62944 0.0
N1051 N 0.46677 0.26572 0.65944 0.0
H1052 H 0.0581 0.31587 0.44042 0.0
H1053 H 0.92627 0.21768 0.35167 0.0
H1054 H 0.07728 0.27806 0.35725 0.0
H1055 H 0.92488 0.22665 0.4423 0.0
H1056 H 0.97661 0.24907 0.35039 0.0
H1057 H 0.00422 0.29227 0.43857 0.0
C1058 C 0.0508 0.30298 0.42159 0.0
C1059 C 0.07215 0.29948 0.39879 0.0
C1060 C 0.96504 0.24448 0.3705 0.0
C1061 C 0.01038 0.27222 0.39652 0.0
C1062 C 0.93625 0.22691 0.37119 0.0
C1063 C 0.9214 0.21997 0.39712 0.0
C1064 C 0.97879 0.25538 0.39592 0.0
C1065 C 0.93562 0.23168 0.42193 0.0
C1066 C 0.02006 0.28949 0.42056 0.0
C1067 C 0.06142 0.28235 0.37494 0.0
N1068 N 0.96345 0.24884 0.42073 0.0
N1069 N 0.0313 0.26933 0.37444 0.0
H1070 H 0.03707 0.67848 0.09858 0.0
H1071 H 0.95259 0.81763 0.18995 0.0
H1072 H 0.04774 0.6878 0.18874 0.0
H1073 H 0.95973 0.822 0.09924 0.0
H1074 H 0.98443 0.76792 0.1897 0.0
H1075 H 0.00532 0.72857 0.09799 0.0
C1076 C 0.03224 0.6908 0.11829 0.0
C1077 C 0.04449 0.67871 0.14385 0.0
C1078 C 0.97933 0.77983 0.16982 0.0
C1079 C 0.00884 0.73627 0.14331 0.0
C1080 C 0.96118 0.80818 0.16999 0.0
C1081 C 0.95403 0.8242 0.14466 0.0
C1082 C 0.99004 0.76692 0.14402 0.0
C1083 C 0.96541 0.81081 0.11929 0.0
C1084 C 0.01447 0.71956 0.11792 0.0
C1085 C 0.03851 0.69622 0.16866 0.0
N1086 N 0.98274 0.78285 0.11958 0.0
N1087 N 0.02102 0.72395 0.1678 0.0
H1088 H 0.17947 0.20336 0.09416 0.0
H1089 H 0.18867 0.39036 0.1279 0.0
H1090 H 0.26929 0.25404 0.10564 0.0
H1091 H 0.11932 0.35565 0.06756 0.0
H1092 H 0.21256 0.33623 0.13003 0.0
H1093 H 0.15134 0.25576 0.0925 0.0
C1094 C 0.19325 0.22541 0.09603 0.0
C1095 C 0.22678 0.22437 0.09983 0.0
C1096 C 0.19186 0.3404 0.11658 0.0
C1097 C 0.19483 0.28371 0.09901 0.0
C1098 C 0.17811 0.37105 0.11562 0.0
C1099 C 0.15194 0.37709 0.09776 0.0
C1100 C 0.17905 0.3156 0.0998 0.0
C1101 C 0.13945 0.35161 0.08165 0.0
C1102 C 0.17723 0.25515 0.09517 0.0
C1103 C 0.24349 0.25364 0.10239 0.0
N1104 N 0.15305 0.32178 0.08311 0.0
N1105 N 0.22731 0.28204 0.10229 0.0
H1106 H 0.38487 0.37623 0.35186 0.0
H1107 H 0.49971 0.52995 0.33479 0.0
H1108 H 0.35245 0.47 0.32468 0.0
H1109 H 0.53272 0.43803 0.36659 0.0
H1110 H 0.4465 0.50676 0.32728 0.0
H1111 H 0.43999 0.39701 0.35469 0.0
C1112 C 0.38931 0.40128 0.34691 0.0
C1113 C 0.36405 0.42171 0.33876 0.0
C1114 C 0.46541 0.49158 0.33576 0.0
C1115 C 0.42693 0.44537 0.34102 0.0
C1116 C 0.49585 0.5048 0.33997 0.0
C1117 C 0.52064 0.48598 0.35153 0.0
C1118 C 0.45964 0.4593 0.34322 0.0
C1119 C 0.51425 0.45349 0.35776 0.0
C1120 C 0.42078 0.41305 0.34818 0.0
C1121 C 0.37129 0.45359 0.33127 0.0
N1122 N 0.48429 0.44122 0.3537 0.0
N1123 N 0.40201 0.4645 0.33272 0.0
H1124 H 0.31173 0.78576 0.59486 0.0
H1125 H 0.29208 0.60038 0.63075 0.0
H1126 H 0.21862 0.74318 0.61045 0.0
H1127 H 0.3636 0.63288 0.57141 0.0
H1128 H 0.26893 0.65507 0.63149 0.0
H1129 H 0.33525 0.7315 0.59263 0.0
C1130 C 0.29622 0.76497 0.59744 0.0
C1131 C 0.2632 0.76881 0.60264 0.0
C1132 C 0.2898 0.6502 0.61844 0.0
C1133 C 0.28998 0.70721 0.60107 0.0
C1134 C 0.3031 0.61929 0.61829 0.0
C1135 C 0.32976 0.61263 0.60119 0.0
C1136 C 0.30372 0.67446 0.60171 0.0
C1137 C 0.34306 0.63747 0.5849 0.0
C1138 C 0.30963 0.73415 0.59625 0.0
C1139 C 0.24414 0.74118 0.60606 0.0
N1140 N 0.33003 0.66749 0.58567 0.0
N1141 N 0.2579 0.71148 0.6056 0.0
H1142 H 0.9603 0.55737 0.88294 0.0
H1143 H 0.12228 0.58695 0.80015 0.0
H1144 H 0.98753 0.49483 0.81412 0.0
H1145 H 0.12204 0.58104 0.89131 0.0
H1146 H 0.06626 0.5689 0.79985 0.0
H1147 H 0.01348 0.58294 0.8806 0.0
C1148 C 0.97717 0.54964 0.86685 0.0
C1149 C 0.96962 0.52413 0.84854 0.0
C1150 C 0.07851 0.57224 0.81985 0.0
C1151 C 0.02989 0.5533 0.84576 0.0
C1152 C 0.11041 0.5825 0.82014 0.0
C1153 C 0.12708 0.58623 0.84584 0.0
C1154 C 0.06282 0.56626 0.84543 0.0
C1155 C 0.11028 0.57997 0.87104 0.0
C1156 C 0.00748 0.56399 0.86577 0.0
C1157 C 0.99254 0.51449 0.82852 0.0
N1158 N 0.07897 0.57042 0.8702 0.0
N1159 N 0.02173 0.52924 0.82753 0.0
H1160 H 0.72755 0.75361 0.93152 0.0
H1161 H 0.86485 0.63388 0.88093 0.0
H1162 H 0.81423 0.78557 0.88973 0.0
H1163 H 0.78351 0.60515 0.93147 0.0
H1164 H 0.85115 0.69048 0.88958 0.0
H1165 H 0.75167 0.70047 0.93772 0.0
C1166 C 0.75188 0.74958 0.92404 0.0
C1167 C 0.76872 0.7739 0.90973 0.0
C1168 C 0.83669 0.67182 0.8993 0.0
C1169 C 0.79634 0.71288 0.91628 0.0
C1170 C 0.84471 0.63952 0.89456 0.0
C1171 C 0.82536 0.61492 0.9057 0.0
C1172 C 0.8089 0.67942 0.91495 0.0
C1173 C 0.7989 0.62352 0.92247 0.0
C1174 C 0.76567 0.7192 0.92756 0.0
C1175 C 0.8003 0.76743 0.90073 0.0
N1176 N 0.79125 0.65501 0.92636 0.0
N1177 N 0.81289 0.73734 0.9037 0.0
H1178 H 0.64237 0.54694 0.61532 0.0
H1179 H 0.45723 0.56253 0.65445 0.0
H1180 H 0.60988 0.62085 0.67247 0.0
H1181 H 0.50443 0.47069 0.64261 0.0
H1182 H 0.51026 0.58893 0.65374 0.0
H1183 H 0.588 0.52349 0.6157 0.0
C1184 C 0.62348 0.55855 0.62738 0.0
C1185 C 0.63015 0.58585 0.64368 0.0
C1186 C 0.50881 0.56297 0.65157 0.0
C1187 C 0.56861 0.55933 0.64455 0.0
C1188 C 0.47871 0.54792 0.65211 0.0
C1189 C 0.47648 0.51438 0.64878 0.0
C1190 C 0.53655 0.54436 0.64688 0.0
C1191 C 0.50502 0.49657 0.64554 0.0
C1192 C 0.59274 0.54506 0.6279 0.0
C1193 C 0.60529 0.59981 0.65957 0.0
N1194 N 0.53383 0.51183 0.64429 0.0
N1195 N 0.57544 0.58645 0.65958 0.0
H1196 H 0.77616 0.24978 0.41852 0.0
H1197 H 0.62171 0.3619 0.3935 0.0
H1198 H 0.68607 0.21322 0.38623 0.0
H1199 H 0.71403 0.39596 0.42237 0.0
H1200 H 0.64308 0.30669 0.39288 0.0
H1201 H 0.75163 0.30271 0.42375 0.0
C1202 C 0.75107 0.25279 0.41284 0.0
C1203 C 0.73322 0.22708 0.40174 0.0
C1204 C 0.65865 0.32631 0.39927 0.0
C1205 C 0.705 0.28793 0.40727 0.0
C1206 C 0.64658 0.35783 0.39924 0.0
C1207 C 0.6664 0.38355 0.40738 0.0
C1208 C 0.69064 0.32065 0.40768 0.0
C1209 C 0.69805 0.37678 0.41582 0.0
C1210 C 0.73707 0.28311 0.41571 0.0
C1211 C 0.70074 0.23242 0.39483 0.0
N1212 N 0.70919 0.34607 0.41566 0.0
N1213 N 0.68772 0.26237 0.39745 0.0
H1214 H 0.86471 0.43938 0.20254 0.0
H1215 H 0.02187 0.45567 0.11137 0.0
H1216 H 0.8628 0.42991 0.11184 0.0
H1217 H 0.00294 0.52635 0.1763 0.0
H1218 H 0.96769 0.43432 0.11767 0.0
H1219 H 0.91968 0.46133 0.19924 0.0
C1220 C 0.87613 0.44141 0.18204 0.0
C1221 C 0.85991 0.43147 0.15752 0.0
C1222 C 0.97552 0.45438 0.13062 0.0
C1223 C 0.92201 0.4563 0.15369 0.0
C1224 C 0.00642 0.46647 0.12722 0.0
C1225 C 0.0168 0.49283 0.14338 0.0
C1226 C 0.95509 0.46825 0.15073 0.0
C1227 C 0.99568 0.50607 0.1634 0.0
C1228 C 0.9072 0.45402 0.1802 0.0
C1229 C 0.87519 0.43543 0.13135 0.0
N1230 N 0.96567 0.49344 0.1667 0.0
N1231 N 0.90562 0.44713 0.13013 0.0
H1232 H 0.69117 0.706 0.58489 0.0
H1233 H 0.70077 0.89069 0.6244 0.0
H1234 H 0.78092 0.75278 0.60571 0.0
H1235 H 0.63277 0.85716 0.56238 0.0
H1236 H 0.72631 0.83729 0.62445 0.0
H1237 H 0.66541 0.75914 0.5814 0.0
C1238 C 0.7055 0.72746 0.58832 0.0
C1239 C 0.73817 0.72511 0.59559 0.0
C1240 C 0.70569 0.8416 0.61094 0.0
C1241 C 0.70882 0.78537 0.59244 0.0
C1242 C 0.69096 0.87176 0.61123 0.0
C1243 C 0.66453 0.87777 0.59368 0.0
C1244 C 0.69354 0.81736 0.59322 0.0
C1245 C 0.65304 0.85301 0.5763 0.0
C1246 C 0.69082 0.75763 0.58638 0.0
C1247 C 0.75571 0.75356 0.5999 0.0
N1248 N 0.66749 0.82363 0.57662 0.0
N1249 N 0.74067 0.78256 0.59868 0.0
H1250 H 0.85421 0.95493 0.88214 0.0
H1251 H 0.03856 0.93915 0.83995 0.0
H1252 H 0.8864 0.88343 0.82255 0.0
H1253 H 0.99459 0.03062 0.86027 0.0
H1254 H 0.98489 0.91444 0.83914 0.0
H1255 H 0.90837 0.97895 0.88167 0.0
C1256 C 0.87295 0.94405 0.86941 0.0
C1257 C 0.8663 0.91714 0.85258 0.0
C1258 C 0.9871 0.93998 0.84348 0.0
C1259 C 0.9276 0.9443 0.85162 0.0
C1260 C 0.0176 0.95409 0.84383 0.0
C1261 C 0.02095 0.98699 0.85 0.0
C1262 C 0.95999 0.95878 0.85005 0.0
C1263 C 0.99306 0.00524 0.85511 0.0
C1264 C 0.90358 0.95787 0.86885 0.0
C1265 C 0.89095 0.90414 0.83586 0.0
N1266 N 0.96375 0.99079 0.85539 0.0
N1267 N 0.92068 0.91773 0.83589 0.0
H1268 H 0.83423 0.12324 0.1444 0.0
H1269 H 0.74821 0.26615 0.06961 0.0
H1270 H 0.84379 0.13466 0.05408 0.0
H1271 H 0.80065 0.28338 0.14687 0.0
H1272 H 0.7761 0.21413 0.06478 0.0
H1273 H 0.81563 0.17891 0.14769 0.0
C1274 C 0.83356 0.13757 0.12537 0.0
C1275 C 0.84169 0.12438 0.09898 0.0
C1276 C 0.78164 0.22955 0.08259 0.0
C1277 C 0.8182 0.18742 0.10253 0.0
C1278 C 0.76574 0.25904 0.0854 0.0
C1279 C 0.7723 0.27896 0.10859 0.0
C1280 C 0.80337 0.21966 0.1036 0.0
C1281 C 0.79516 0.26874 0.12855 0.0
C1282 C 0.82242 0.16927 0.12726 0.0
C1283 C 0.83803 0.1439 0.07487 0.0
N1284 N 0.80954 0.23948 0.12586 0.0
N1285 N 0.82616 0.17429 0.07715 0.0
H1286 H 0.49452 0.98122 0.32772 0.0
H1287 H 0.61404 0.12616 0.36585 0.0
H1288 H 0.46353 0.06589 0.37336 0.0
H1289 H 0.64332 0.03552 0.32939 0.0
H1290 H 0.55806 0.10717 0.36613 0.0
H1291 H 0.54816 0.0042 0.32386 0.0
C1292 C 0.4989 0.00485 0.33668 0.0
C1293 C 0.47456 0.02153 0.3511 0.0
C1294 C 0.57681 0.09143 0.35821 0.0
C1295 C 0.53627 0.04788 0.34711 0.0
C1296 C 0.60877 0.10209 0.35842 0.0
C1297 C 0.63338 0.08205 0.34817 0.0
C1298 C 0.56956 0.0607 0.34741 0.0
C1299 C 0.62505 0.05162 0.33761 0.0
C1300 C 0.52964 0.01793 0.33458 0.0
C1301 C 0.48164 0.05217 0.36213 0.0
N1302 N 0.59393 0.04187 0.33755 0.0
N1303 N 0.512 0.06427 0.36013 0.0
H1304 H 0.31377 0.28825 0.3776 0.0
H1305 H 0.27855 0.10516 0.41974 0.0
H1306 H 0.22515 0.25484 0.41529 0.0
H1307 H 0.37191 0.13767 0.39204 0.0
H1308 H 0.25931 0.16063 0.41872 0.0
H1309 H 0.33662 0.23419 0.38366 0.0
C1310 C 0.29927 0.26969 0.38746 0.0
C1311 C 0.2674 0.27599 0.39574 0.0
C1312 C 0.28401 0.15575 0.41275 0.0
C1313 C 0.29325 0.21421 0.40244 0.0
C1314 C 0.29496 0.12407 0.4133 0.0
C1315 C 0.32662 0.11673 0.40533 0.0
C1316 C 0.30489 0.18049 0.4042 0.0
C1317 C 0.347 0.14212 0.39734 0.0
C1318 C 0.3123 0.23884 0.39083 0.0
C1319 C 0.24973 0.25107 0.40841 0.0
N1320 N 0.33573 0.17294 0.39685 0.0
N1321 N 0.26281 0.22127 0.41115 0.0
H1322 H 0.96748 0.05815 0.13187 0.0
H1323 H 0.1536 0.0183 0.15761 0.0
H1324 H 0.00316 0.9627 0.15085 0.0
H1325 H 0.1181 0.1125 0.13507 0.0
H1326 H 0.09841 0.99775 0.15697 0.0
H1327 H 0.02216 0.07895 0.13535 0.0
C1328 C 0.9868 0.04157 0.13701 0.0
C1329 C 0.98077 0.00857 0.14097 0.0
C1330 C 0.10265 0.02287 0.15196 0.0
C1331 C 0.04353 0.03227 0.14474 0.0
C1332 C 0.13408 0.03453 0.15229 0.0
C1333 C 0.14032 0.06691 0.14579 0.0
C1334 C 0.07722 0.04388 0.14537 0.0
C1335 C 0.11435 0.08717 0.13932 0.0
C1336 C 0.01805 0.05348 0.1389 0.0
C1337 C 0.00672 0.9883 0.14767 0.0
N1338 N 0.08387 0.0753 0.13927 0.0
N1339 N 0.03703 0.00046 0.14919 0.0
H1340 H 0.12918 0.85751 0.92477 0.0
H1341 H 0.28233 0.75235 0.88443 0.0
H1342 H 0.2034 0.89285 0.86938 0.0
H1343 H 0.19029 0.70875 0.90265 0.0
H1344 H 0.25688 0.8056 0.88625 0.0
H1345 H 0.15387 0.80367 0.92324 0.0
C1346 C 0.1505 0.85364 0.91203 0.0
C1347 C 0.16415 0.87917 0.89684 0.0
C1348 C 0.24236 0.78434 0.88999 0.0
C1349 C 0.19297 0.81848 0.89566 0.0
C1350 C 0.25689 0.75401 0.88929 0.0
C1351 C 0.23836 0.72614 0.89348 0.0
C1352 C 0.20923 0.78679 0.8954 0.0
C1353 C 0.20541 0.72966 0.8993 0.0
C1354 C 0.16457 0.82313 0.91119 0.0
C1355 C 0.19198 0.87343 0.8809 0.0
N1356 N 0.19188 0.75948 0.90019 0.0
N1357 N 0.20573 0.84367 0.88092 0.0
H1358 H 0.3914 0.87589 0.68453 0.0
H1359 H 0.49709 0.02817 0.64415 0.0
H1360 H 0.35774 0.94907 0.62713 0.0
H1361 H 0.54098 0.93483 0.65661 0.0
H1362 H 0.44394 0.00314 0.64816 0.0
H1363 H 0.44538 0.90046 0.68354 0.0
C1364 C 0.39566 0.89698 0.67156 0.0
C1365 C 0.37066 0.91036 0.65552 0.0
C1366 C 0.46526 0.98827 0.65025 0.0
C1367 C 0.43122 0.93898 0.65504 0.0
C1368 C 0.49554 0.00252 0.64828 0.0
C1369 C 0.52339 0.98347 0.65003 0.0
C1370 C 0.4629 0.9549 0.65453 0.0
C1371 C 0.52003 0.95029 0.65506 0.0
C1372 C 0.42619 0.91094 0.67103 0.0
C1373 C 0.37679 0.9379 0.6393 0.0
N1374 N 0.49024 0.937 0.65721 0.0
N1375 N 0.40649 0.95156 0.63965 0.0
loop_
_geom_bond_atom_site_label_1
_geom_bond_atom_site_label_2
_geom_bond_distance
_geom_bond_site_symmetry_2
_ccdc_geom_bond_type
Zn0 O1 2.055 . S
Zn0 O8 2.046 . S
Zn0 N16 2.036 . S
Zn0 O28 2.053 . S
Zn0 O30 2.066 . S
O1 Zn0 2.055 . S
O1 C4 1.259 . S
C2 O30 1.256 . S
C2 O31 1.244 . S
Zn3 O5 2.046 . S
Zn3 O7 2.055 . S
Zn3 N9 2.036 . S
Zn3 O27 2.066 . S
Zn3 O31 2.053 . S
C4 O1 1.259 . S
C4 O5 1.254 . S
O5 Zn3 2.046 . S
O5 C4 1.254 . S
C6 O27 1.256 . S
C6 O28 1.244 . S
O7 Zn3 2.055 . S
O7 C29 1.259 . S
O8 Zn0 2.046 . S
O8 C29 1.254 . S
N9 Zn3 2.036 . S
N9 C10 1.298 . S
N9 N12 1.398 . S
C10 N9 1.298 . S
C10 N13 1.367 . S
C10 C23 1.481 . S
C11 N12 1.299 . S
C11 N13 1.379 . S
N12 N9 1.398 . S
N12 C11 1.299 . S
N13 C10 1.367 . S
N13 C11 1.379 . S
C14 N16 1.298 . S
C14 N18 1.367 . S
C14 C22 1.481 . S
C15 N17 1.299 . S
C15 N18 1.379 . S
N16 Zn0 2.036 . S
N16 C14 1.298 . S
N16 N17 1.398 . S
N17 C15 1.299 . S
N17 N16 1.398 . S
N18 C14 1.367 . S
N18 C15 1.379 . S
H19 C22 0.980 . S
H20 C22 0.981 . S
H21 C22 0.981 . S
C22 C14 1.481 . S
C22 H19 0.980 . S
C22 H20 0.981 . S
C22 H21 0.981 . S
C23 C10 1.481 . S
C23 H24 0.980 . S
C23 H25 0.981 . S
C23 H26 0.981 . S
H24 C23 0.980 . S
H25 C23 0.981 . S
H26 C23 0.981 . S
O27 Zn3 2.066 . S
O27 C6 1.256 . S
O28 Zn0 2.053 . S
O28 C6 1.244 . S
C29 O7 1.259 . S
C29 O8 1.254 . S
O30 Zn0 2.066 . S
O30 C2 1.256 . S
O31 C2 1.244 . S
O31 Zn3 2.053 . S
Zn32 O33 2.055 . S
Zn32 O40 2.046 . S
Zn32 N48 2.036 . S
Zn32 O60 2.053 . S
Zn32 O62 2.066 . S
O33 Zn32 2.055 . S
O33 C36 1.259 . S
C34 O62 1.256 . S
C34 O63 1.244 . S
Zn35 O37 2.046 . S
Zn35 O39 2.055 . S
Zn35 N41 2.036 . S
Zn35 O59 2.066 . S
Zn35 O63 2.053 . S
C36 O33 1.259 . S
C36 O37 1.254 . S
O37 Zn35 2.046 . S
O37 C36 1.254 . S
C38 O59 1.256 . S
C38 O60 1.244 . S
O39 Zn35 2.055 . S
O39 C61 1.259 . S
O40 Zn32 2.046 . S
O40 C61 1.254 . S
N41 Zn35 2.036 . S
N41 C42 1.298 . S
N41 N44 1.398 . S
C42 N41 1.298 . S
C42 N45 1.367 . S
C42 C55 1.481 . S
C43 N44 1.299 . S
C43 N45 1.379 . S
N44 N41 1.398 . S
N44 C43 1.299 . S
N45 C42 1.367 . S
N45 C43 1.379 . S
C46 N48 1.298 . S
C46 N50 1.367 . S
C46 C54 1.481 . S
C47 N49 1.299 . S
C47 N50 1.379 . S
N48 Zn32 2.036 . S
N48 C46 1.298 . S
N48 N49 1.398 . S
N49 C47 1.299 . S
N49 N48 1.398 . S
N50 C46 1.367 . S
N50 C47 1.379 . S
H51 C54 0.980 . S
H52 C54 0.981 . S
H53 C54 0.981 . S
C54 C46 1.481 . S
C54 H51 0.980 . S
C54 H52 0.981 . S
C54 H53 0.981 . S
C55 C42 1.481 . S
C55 H56 0.980 . S
C55 H57 0.981 . S
C55 H58 0.981 . S
H56 C55 0.980 . S
H57 C55 0.981 . S
H58 C55 0.981 . S
O59 Zn35 2.066 . S
O59 C38 1.256 . S
O60 Zn32 2.053 . S
O60 C38 1.244 . S
C61 O39 1.259 . S
C61 O40 1.254 . S
O62 Zn32 2.066 . S
O62 C34 1.256 . S
O63 C34 1.244 . S
O63 Zn35 2.053 . S
Zn64 O65 2.055 . S
Zn64 O72 2.046 . S
Zn64 N80 2.036 . S
Zn64 O92 2.053 . S
Zn64 O94 2.066 . S
O65 Zn64 2.055 . S
O65 C68 1.259 . S
C66 O94 1.256 . S
C66 O95 1.244 . S
Zn67 O69 2.046 . S
Zn67 O71 2.055 . S
Zn67 N73 2.036 . S
Zn67 O91 2.066 . S
Zn67 O95 2.053 . S
C68 O65 1.259 . S
C68 O69 1.254 . S
O69 Zn67 2.046 . S
O69 C68 1.254 . S
C70 O91 1.256 . S
C70 O92 1.244 . S
O71 Zn67 2.055 . S
O71 C93 1.259 . S
O72 Zn64 2.046 . S
O72 C93 1.254 . S
N73 Zn67 2.036 . S
N73 C74 1.298 . S
N73 N76 1.398 . S
C74 N73 1.298 . S
C74 N77 1.367 . S
C74 C87 1.481 . S
C75 N76 1.299 . S
C75 N77 1.379 . S
N76 N73 1.398 . S
N76 C75 1.299 . S
N77 C74 1.367 . S
N77 C75 1.379 . S
C78 N80 1.298 . S
C78 N82 1.367 . S
C78 C86 1.481 . S
C79 N81 1.299 . S
C79 N82 1.379 . S
N80 Zn64 2.036 . S
N80 C78 1.298 . S
N80 N81 1.398 . S
N81 C79 1.299 . S
N81 N80 1.398 . S
N82 C78 1.367 . S
N82 C79 1.379 . S
H83 C86 0.980 . S
H84 C86 0.981 . S
H85 C86 0.981 . S
C86 C78 1.481 . S
C86 H83 0.980 . S
C86 H84 0.981 . S
C86 H85 0.981 . S
C87 C74 1.481 . S
C87 H88 0.980 . S
C87 H89 0.981 . S
C87 H90 0.981 . S
H88 C87 0.980 . S
H89 C87 0.981 . S
H90 C87 0.981 . S
O91 Zn67 2.066 . S
O91 C70 1.256 . S
O92 Zn64 2.053 . S
O92 C70 1.244 . S
C93 O71 1.259 . S
C93 O72 1.254 . S
O94 Zn64 2.066 . S
O94 C66 1.256 . S
O95 C66 1.244 . S
O95 Zn67 2.053 . S
Zn96 O97 2.055 . S
Zn96 O104 2.046 . S
Zn96 N112 2.036 . S
Zn96 O124 2.053 . S
Zn96 O126 2.066 . S
O97 Zn96 2.055 . S
O97 C100 1.259 . S
C98 O126 1.256 . S
C98 O127 1.244 . S
Zn99 O101 2.046 . S
Zn99 O103 2.055 . S
Zn99 N105 2.036 . S
Zn99 O123 2.066 . S
Zn99 O127 2.053 . S
C100 O97 1.259 . S
C100 O101 1.254 . S
O101 Zn99 2.046 . S
O101 C100 1.254 . S
C102 O123 1.256 . S
C102 O124 1.244 . S
O103 Zn99 2.055 . S
O103 C125 1.259 . S
O104 Zn96 2.046 . S
O104 C125 1.254 . S
N105 Zn99 2.036 . S
N105 C106 1.298 . S
N105 N108 1.398 . S
C106 N105 1.298 . S
C106 N109 1.367 . S
C106 C119 1.481 . S
C107 N108 1.299 . S
C107 N109 1.379 . S
N108 N105 1.398 . S
N108 C107 1.299 . S
N109 C106 1.367 . S
N109 C107 1.379 . S
C110 N112 1.298 . S
C110 N114 1.367 . S
C110 C118 1.481 . S
C111 N113 1.299 . S
C111 N114 1.379 . S
N112 Zn96 2.036 . S
N112 C110 1.298 . S
N112 N113 1.398 . S
N113 C111 1.299 . S
N113 N112 1.398 . S
N114 C110 1.367 . S
N114 C111 1.379 . S
H115 C118 0.980 . S
H116 C118 0.981 . S
H117 C118 0.981 . S
C118 C110 1.481 . S
C118 H115 0.980 . S
C118 H116 0.981 . S
C118 H117 0.981 . S
C119 C106 1.481 . S
C119 H120 0.980 . S
C119 H121 0.981 . S
C119 H122 0.981 . S
H120 C119 0.980 . S
H121 C119 0.981 . S
H122 C119 0.981 . S
O123 Zn99 2.066 . S
O123 C102 1.256 . S
O124 Zn96 2.053 . S
O124 C102 1.244 . S
C125 O103 1.259 . S
C125 O104 1.254 . S
O126 Zn96 2.066 . S
O126 C98 1.256 . S
O127 C98 1.244 . S
O127 Zn99 2.053 . S
Zn128 O129 2.055 . S
Zn128 O136 2.046 . S
Zn128 N144 2.036 . S
Zn128 O156 2.053 . S
Zn128 O158 2.066 . S
O129 Zn128 2.055 . S
O129 C132 1.259 . S
C130 O158 1.256 . S
C130 O159 1.244 . S
Zn131 O133 2.046 . S
Zn131 O135 2.055 . S
Zn131 N137 2.036 . S
Zn131 O155 2.066 . S
Zn131 O159 2.053 . S
C132 O129 1.259 . S
C132 O133 1.254 . S
O133 Zn131 2.046 . S
O133 C132 1.254 . S
C134 O155 1.256 . S
C134 O156 1.244 . S
O135 Zn131 2.055 . S
O135 C157 1.259 . S
O136 Zn128 2.046 . S
O136 C157 1.254 . S
N137 Zn131 2.036 . S
N137 C138 1.298 . S
N137 N140 1.398 . S
C138 N137 1.298 . S
C138 N141 1.367 . S
C138 C151 1.481 . S
C139 N140 1.299 . S
C139 N141 1.379 . S
N140 N137 1.398 . S
N140 C139 1.299 . S
N141 C138 1.367 . S
N141 C139 1.379 . S
C142 N144 1.298 . S
C142 N146 1.367 . S
C142 C150 1.481 . S
C143 N145 1.299 . S
C143 N146 1.379 . S
N144 Zn128 2.036 . S
N144 C142 1.298 . S
N144 N145 1.398 . S
N145 C143 1.299 . S
N145 N144 1.398 . S
N146 C142 1.367 . S
N146 C143 1.379 . S
H147 C150 0.980 . S
H148 C150 0.981 . S
H149 C150 0.981 . S
C150 C142 1.481 . S
C150 H147 0.980 . S
C150 H148 0.981 . S
C150 H149 0.981 . S
C151 C138 1.481 . S
C151 H152 0.980 . S
C151 H153 0.981 . S
C151 H154 0.981 . S
H152 C151 0.980 . S
H153 C151 0.981 . S
H154 C151 0.981 . S
O155 Zn131 2.066 . S
O155 C134 1.256 . S
O156 Zn128 2.053 . S
O156 C134 1.244 . S
C157 O135 1.259 . S
C157 O136 1.254 . S
O158 Zn128 2.066 . S
O158 C130 1.256 . S
O159 C130 1.244 . S
O159 Zn131 2.053 . S
Zn160 O161 2.055 . S
Zn160 O168 2.046 . S
Zn160 N176 2.036 . S
Zn160 O188 2.053 . S
Zn160 O190 2.066 . S
O161 Zn160 2.055 . S
O161 C164 1.259 . S
C162 O190 1.256 . S
C162 O191 1.244 . S
Zn163 O165 2.046 . S
Zn163 O167 2.055 . S
Zn163 N169 2.036 . S
Zn163 O187 2.066 . S
Zn163 O191 2.053 . S
C164 O161 1.259 . S
C164 O165 1.254 . S
O165 Zn163 2.046 . S
O165 C164 1.254 . S
C166 O187 1.256 . S
C166 O188 1.244 . S
O167 Zn163 2.055 . S
O167 C189 1.259 . S
O168 Zn160 2.046 . S
O168 C189 1.254 . S
N169 Zn163 2.036 . S
N169 C170 1.298 . S
N169 N172 1.398 . S
C170 N169 1.298 . S
C170 N173 1.367 . S
C170 C183 1.481 . S
C171 N172 1.299 . S
C171 N173 1.379 . S
N172 N169 1.398 . S
N172 C171 1.299 . S
N173 C170 1.367 . S
N173 C171 1.379 . S
C174 N176 1.298 . S
C174 N178 1.367 . S
C174 C182 1.481 . S
C175 N177 1.299 . S
C175 N178 1.379 . S
N176 Zn160 2.036 . S
N176 C174 1.298 . S
N176 N177 1.398 . S
N177 C175 1.299 . S
N177 N176 1.398 . S
N178 C174 1.367 . S
N178 C175 1.379 . S
H179 C182 0.980 . S
H180 C182 0.981 . S
H181 C182 0.981 . S
C182 C174 1.481 . S
C182 H179 0.980 . S
C182 H180 0.981 . S
C182 H181 0.981 . S
C183 C170 1.481 . S
C183 H184 0.980 . S
C183 H185 0.981 . S
C183 H186 0.981 . S
H184 C183 0.980 . S
H185 C183 0.981 . S
H186 C183 0.981 . S
O187 Zn163 2.066 . S
O187 C166 1.256 . S
O188 Zn160 2.053 . S
O188 C166 1.244 . S
C189 O167 1.259 . S
C189 O168 1.254 . S
O190 Zn160 2.066 . S
O190 C162 1.256 . S
O191 C162 1.244 . S
O191 Zn163 2.053 . S
Zn192 O193 2.055 . S
Zn192 O200 2.046 . S
Zn192 N208 2.036 . S
Zn192 O220 2.053 . S
Zn192 O222 2.066 . S
O193 Zn192 2.055 . S
O193 C196 1.259 . S
C194 O222 1.256 . S
C194 O223 1.244 . S
Zn195 O197 2.046 . S
Zn195 O199 2.055 . S
Zn195 N201 2.036 . S
Zn195 O219 2.066 . S
Zn195 O223 2.053 . S
C196 O193 1.259 . S
C196 O197 1.254 . S
O197 Zn195 2.046 . S
O197 C196 1.254 . S
C198 O219 1.256 . S
C198 O220 1.244 . S
O199 Zn195 2.055 . S
O199 C221 1.259 . S
O200 Zn192 2.046 . S
O200 C221 1.254 . S
N201 Zn195 2.036 . S
N201 C202 1.298 . S
N201 N204 1.398 . S
C202 N201 1.298 . S
C202 N205 1.367 . S
C202 C215 1.481 . S
C203 N204 1.299 . S
C203 N205 1.379 . S
N204 N201 1.398 . S
N204 C203 1.299 . S
N205 C202 1.367 . S
N205 C203 1.379 . S
C206 N208 1.298 . S
C206 N210 1.367 . S
C206 C214 1.481 . S
C207 N209 1.299 . S
C207 N210 1.379 . S
N208 Zn192 2.036 . S
N208 C206 1.298 . S
N208 N209 1.398 . S
N209 C207 1.299 . S
N209 N208 1.398 . S
N210 C206 1.367 . S
N210 C207 1.379 . S
H211 C214 0.980 . S
H212 C214 0.981 . S
H213 C214 0.981 . S
C214 C206 1.481 . S
C214 H211 0.980 . S
C214 H212 0.981 . S
C214 H213 0.981 . S
C215 C202 1.481 . S
C215 H216 0.980 . S
C215 H217 0.981 . S
C215 H218 0.981 . S
H216 C215 0.980 . S
H217 C215 0.981 . S
H218 C215 0.981 . S
O219 Zn195 2.066 . S
O219 C198 1.256 . S
O220 Zn192 2.053 . S
O220 C198 1.244 . S
C221 O199 1.259 . S
C221 O200 1.254 . S
O222 Zn192 2.066 . S
O222 C194 1.256 . S
O223 C194 1.244 . S
O223 Zn195 2.053 . S
Zn224 O225 2.055 . S
Zn224 O232 2.046 . S
Zn224 N240 2.036 . S
Zn224 O252 2.053 . S
Zn224 O254 2.066 . S
O225 Zn224 2.055 . S
O225 C228 1.259 . S
C226 O254 1.256 . S
C226 O255 1.244 . S
Zn227 O229 2.046 . S
Zn227 O231 2.055 . S
Zn227 N233 2.036 . S
Zn227 O251 2.066 . S
Zn227 O255 2.053 . S
C228 O225 1.259 . S
C228 O229 1.254 . S
O229 Zn227 2.046 . S
O229 C228 1.254 . S
C230 O251 1.256 . S
C230 O252 1.244 . S
O231 Zn227 2.055 . S
O231 C253 1.259 . S
O232 Zn224 2.046 . S
O232 C253 1.254 . S
N233 Zn227 2.036 . S
N233 C234 1.298 . S
N233 N236 1.398 . S
C234 N233 1.298 . S
C234 N237 1.367 . S
C234 C247 1.481 . S
C235 N236 1.299 . S
C235 N237 1.379 . S
N236 N233 1.398 . S
N236 C235 1.299 . S
N237 C234 1.367 . S
N237 C235 1.379 . S
C238 N240 1.298 . S
C238 N242 1.367 . S
C238 C246 1.481 . S
C239 N241 1.299 . S
C239 N242 1.379 . S
N240 Zn224 2.036 . S
N240 C238 1.298 . S
N240 N241 1.398 . S
N241 C239 1.299 . S
N241 N240 1.398 . S
N242 C238 1.367 . S
N242 C239 1.379 . S
H243 C246 0.980 . S
H244 C246 0.981 . S
H245 C246 0.981 . S
C246 C238 1.481 . S
C246 H243 0.980 . S
C246 H244 0.981 . S
C246 H245 0.981 . S
C247 C234 1.481 . S
C247 H248 0.980 . S
C247 H249 0.981 . S
C247 H250 0.981 . S
H248 C247 0.980 . S
H249 C247 0.981 . S
H250 C247 0.981 . S
O251 Zn227 2.066 . S
O251 C230 1.256 . S
O252 Zn224 2.053 . S
O252 C230 1.244 . S
C253 O231 1.259 . S
C253 O232 1.254 . S
O254 Zn224 2.066 . S
O254 C226 1.256 . S
O255 C226 1.244 . S
O255 Zn227 2.053 . S
Zn256 O257 2.055 . S
Zn256 O264 2.046 . S
Zn256 N272 2.036 . S
Zn256 O284 2.053 . S
Zn256 O286 2.066 . S
O257 Zn256 2.055 . S
O257 C260 1.259 . S
C258 O286 1.256 . S
C258 O287 1.244 . S
Zn259 O261 2.046 . S
Zn259 O263 2.055 . S
Zn259 N265 2.036 . S
Zn259 O283 2.066 . S
Zn259 O287 2.053 . S
C260 O257 1.259 . S
C260 O261 1.254 . S
O261 Zn259 2.046 . S
O261 C260 1.254 . S
C262 O283 1.256 . S
C262 O284 1.244 . S
O263 Zn259 2.055 . S
O263 C285 1.259 . S
O264 Zn256 2.046 . S
O264 C285 1.254 . S
N265 Zn259 2.036 . S
N265 C266 1.298 . S
N265 N268 1.398 . S
C266 N265 1.298 . S
C266 N269 1.367 . S
C266 C279 1.481 . S
C267 N268 1.299 . S
C267 N269 1.379 . S
N268 N265 1.398 . S
N268 C267 1.299 . S
N269 C266 1.367 . S
N269 C267 1.379 . S
C270 N272 1.298 . S
C270 N274 1.367 . S
C270 C278 1.481 . S
C271 N273 1.299 . S
C271 N274 1.379 . S
N272 Zn256 2.036 . S
N272 C270 1.298 . S
N272 N273 1.398 . S
N273 C271 1.299 . S
N273 N272 1.398 . S
N274 C270 1.367 . S
N274 C271 1.379 . S
H275 C278 0.980 . S
H276 C278 0.981 . S
H277 C278 0.981 . S
C278 C270 1.481 . S
C278 H275 0.980 . S
C278 H276 0.981 . S
C278 H277 0.981 . S
C279 C266 1.481 . S
C279 H280 0.980 . S
C279 H281 0.981 . S
C279 H282 0.981 . S
H280 C279 0.980 . S
H281 C279 0.981 . S
H282 C279 0.981 . S
O283 Zn259 2.066 . S
O283 C262 1.256 . S
O284 Zn256 2.053 . S
O284 C262 1.244 . S
C285 O263 1.259 . S
C285 O264 1.254 . S
O286 Zn256 2.066 . S
O286 C258 1.256 . S
O287 C258 1.244 . S
O287 Zn259 2.053 . S
Zn288 O289 2.055 . S
Zn288 O296 2.046 . S
Zn288 N304 2.036 . S
Zn288 O316 2.053 . S
Zn288 O318 2.066 . S
O289 Zn288 2.055 . S
O289 C292 1.259 . S
C290 O318 1.256 . S
C290 O319 1.244 . S
Zn291 O293 2.046 . S
Zn291 O295 2.055 . S
Zn291 N297 2.036 . S
Zn291 O315 2.066 . S
Zn291 O319 2.053 1_565 S
C292 O289 1.259 . S
C292 O293 1.254 1_545 S
O293 Zn291 2.046 . S
O293 C292 1.254 1_565 S
C294 O315 1.256 1_545 S
C294 O316 1.244 . S
O295 Zn291 2.055 . S
O295 C317 1.259 . S
O296 Zn288 2.046 . S
O296 C317 1.254 1_545 S
N297 Zn291 2.036 . S
N297 C298 1.298 . S
N297 N300 1.398 . S
C298 N297 1.298 . S
C298 N301 1.367 . S
C298 C311 1.481 . S
C299 N300 1.299 . S
C299 N301 1.379 . S
N300 N297 1.398 . S
N300 C299 1.299 . S
N301 C298 1.367 . S
N301 C299 1.379 . S
C302 N304 1.298 . S
C302 N306 1.367 . S
C302 C310 1.481 . S
C303 N305 1.299 . S
C303 N306 1.379 . S
N304 Zn288 2.036 . S
N304 C302 1.298 . S
N304 N305 1.398 . S
N305 C303 1.299 . S
N305 N304 1.398 . S
N306 C302 1.367 . S
N306 C303 1.379 . S
H307 C310 0.980 . S
H308 C310 0.981 . S
H309 C310 0.981 . S
C310 C302 1.481 . S
C310 H307 0.980 . S
C310 H308 0.981 . S
C310 H309 0.981 . S
C311 C298 1.481 . S
C311 H312 0.980 . S
C311 H313 0.981 . S
C311 H314 0.981 . S
H312 C311 0.980 . S
H313 C311 0.981 . S
H314 C311 0.981 . S
O315 Zn291 2.066 . S
O315 C294 1.256 1_565 S
O316 Zn288 2.053 . S
O316 C294 1.244 . S
C317 O295 1.259 . S
C317 O296 1.254 1_565 S
O318 Zn288 2.066 . S
O318 C290 1.256 . S
O319 C290 1.244 . S
O319 Zn291 2.053 1_545 S
Zn320 O321 2.055 . S
Zn320 O328 2.046 . S
Zn320 N336 2.036 . S
Zn320 O348 2.053 . S
Zn320 O350 2.066 . S
O321 Zn320 2.055 . S
O321 C324 1.259 . S
C322 O350 1.256 . S
C322 O351 1.244 . S
Zn323 O325 2.046 . S
Zn323 O327 2.055 . S
Zn323 N329 2.036 . S
Zn323 O347 2.066 . S
Zn323 O351 2.053 . S
C324 O321 1.259 . S
C324 O325 1.254 . S
O325 Zn323 2.046 . S
O325 C324 1.254 . S
C326 O347 1.256 . S
C326 O348 1.244 . S
O327 Zn323 2.055 . S
O327 C349 1.259 . S
O328 Zn320 2.046 . S
O328 C349 1.254 . S
N329 Zn323 2.036 . S
N329 C330 1.298 . S
N329 N332 1.398 . S
C330 N329 1.298 . S
C330 N333 1.367 . S
C330 C343 1.481 . S
C331 N332 1.299 . S
C331 N333 1.379 . S
N332 N329 1.398 . S
N332 C331 1.299 . S
N333 C330 1.367 . S
N333 C331 1.379 . S
C334 N336 1.298 . S
C334 N338 1.367 . S
C334 C342 1.481 . S
C335 N337 1.299 . S
C335 N338 1.379 . S
N336 Zn320 2.036 . S
N336 C334 1.298 . S
N336 N337 1.398 . S
N337 C335 1.299 . S
N337 N336 1.398 . S
N338 C334 1.367 . S
N338 C335 1.379 . S
H339 C342 0.980 . S
H340 C342 0.981 . S
H341 C342 0.981 . S
C342 C334 1.481 . S
C342 H339 0.980 . S
C342 H340 0.981 . S
C342 H341 0.981 . S
C343 C330 1.481 . S
C343 H344 0.980 . S
C343 H345 0.981 . S
C343 H346 0.981 . S
H344 C343 0.980 . S
H345 C343 0.981 . S
H346 C343 0.981 . S
O347 Zn323 2.066 . S
O347 C326 1.256 . S
O348 Zn320 2.053 . S
O348 C326 1.244 . S
C349 O327 1.259 . S
C349 O328 1.254 . S
O350 Zn320 2.066 . S
O350 C322 1.256 . S
O351 C322 1.244 . S
O351 Zn323 2.053 . S
Zn352 O353 2.055 . S
Zn352 O360 2.046 . S
Zn352 N368 2.036 . S
Zn352 O380 2.053 1_545 S
Zn352 O382 2.066 . S
O353 Zn352 2.055 . S
O353 C356 1.259 . S
C354 O382 1.256 1_565 S
C354 O383 1.244 . S
Zn355 O357 2.046 . S
Zn355 O359 2.055 . S
Zn355 N361 2.036 . S
Zn355 O379 2.066 . S
Zn355 O383 2.053 . S
C356 O353 1.259 . S
C356 O357 1.254 1_545 S
O357 Zn355 2.046 . S
O357 C356 1.254 1_565 S
C358 O379 1.256 . S
C358 O380 1.244 . S
O359 Zn355 2.055 . S
O359 C381 1.259 . S
O360 Zn352 2.046 . S
O360 C381 1.254 1_545 S
N361 Zn355 2.036 . S
N361 C362 1.298 . S
N361 N364 1.398 . S
C362 N361 1.298 . S
C362 N365 1.367 . S
C362 C375 1.481 . S
C363 N364 1.299 . S
C363 N365 1.379 . S
N364 N361 1.398 . S
N364 C363 1.299 . S
N365 C362 1.367 . S
N365 C363 1.379 . S
C366 N368 1.298 . S
C366 N370 1.367 . S
C366 C374 1.481 . S
C367 N369 1.299 . S
C367 N370 1.379 . S
N368 Zn352 2.036 . S
N368 C366 1.298 . S
N368 N369 1.398 . S
N369 C367 1.299 . S
N369 N368 1.398 . S
N370 C366 1.367 . S
N370 C367 1.379 . S
H371 C374 0.980 . S
H372 C374 0.981 . S
H373 C374 0.981 . S
C374 C366 1.481 . S
C374 H371 0.980 . S
C374 H372 0.981 . S
C374 H373 0.981 . S
C375 C362 1.481 . S
C375 H376 0.980 . S
C375 H377 0.981 . S
C375 H378 0.981 . S
H376 C375 0.980 . S
H377 C375 0.981 . S
H378 C375 0.981 . S
O379 Zn355 2.066 . S
O379 C358 1.256 . S
O380 Zn352 2.053 1_565 S
O380 C358 1.244 . S
C381 O359 1.259 . S
C381 O360 1.254 1_565 S
O382 Zn352 2.066 . S
O382 C354 1.256 1_545 S
O383 C354 1.244 . S
O383 Zn355 2.053 . S
Zn384 O385 2.055 . S
Zn384 O392 2.046 . S
Zn384 N400 2.036 . S
Zn384 O412 2.053 . S
Zn384 O414 2.066 . S
O385 Zn384 2.055 . S
O385 C388 1.259 . S
C386 O414 1.256 . S
C386 O415 1.244 . S
Zn387 O389 2.046 . S
Zn387 O391 2.055 . S
Zn387 N393 2.036 . S
Zn387 O411 2.066 . S
Zn387 O415 2.053 . S
C388 O385 1.259 . S
C388 O389 1.254 . S
O389 Zn387 2.046 . S
O389 C388 1.254 . S
C390 O411 1.256 . S
C390 O412 1.244 . S
O391 Zn387 2.055 . S
O391 C413 1.259 . S
O392 Zn384 2.046 . S
O392 C413 1.254 . S
N393 Zn387 2.036 . S
N393 C394 1.298 . S
N393 N396 1.398 . S
C394 N393 1.298 . S
C394 N397 1.367 . S
C394 C407 1.481 . S
C395 N396 1.299 . S
C395 N397 1.379 . S
N396 N393 1.398 . S
N396 C395 1.299 . S
N397 C394 1.367 . S
N397 C395 1.379 . S
C398 N400 1.298 . S
C398 N402 1.367 . S
C398 C406 1.481 . S
C399 N401 1.299 . S
C399 N402 1.379 . S
N400 Zn384 2.036 . S
N400 C398 1.298 . S
N400 N401 1.398 . S
N401 C399 1.299 . S
N401 N400 1.398 . S
N402 C398 1.367 . S
N402 C399 1.379 . S
H403 C406 0.980 . S
H404 C406 0.981 . S
H405 C406 0.981 . S
C406 C398 1.481 . S
C406 H403 0.980 . S
C406 H404 0.981 . S
C406 H405 0.981 . S
C407 C394 1.481 . S
C407 H408 0.980 . S
C407 H409 0.981 . S
C407 H410 0.981 . S
H408 C407 0.980 . S
H409 C407 0.981 . S
H410 C407 0.981 . S
O411 Zn387 2.066 . S
O411 C390 1.256 . S
O412 Zn384 2.053 . S
O412 C390 1.244 . S
C413 O391 1.259 . S
C413 O392 1.254 . S
O414 Zn384 2.066 . S
O414 C386 1.256 . S
O415 C386 1.244 . S
O415 Zn387 2.053 . S
Zn416 O417 2.055 . S
Zn416 O424 2.046 . S
Zn416 N432 2.036 . S
Zn416 O444 2.053 . S
Zn416 O446 2.066 . S
O417 Zn416 2.055 . S
O417 C420 1.259 . S
C418 O446 1.256 . S
C418 O447 1.244 . S
Zn419 O421 2.046 . S
Zn419 O423 2.055 . S
Zn419 N425 2.036 . S
Zn419 O443 2.066 . S
Zn419 O447 2.053 1_545 S
C420 O417 1.259 . S
C420 O421 1.254 1_565 S
O421 Zn419 2.046 . S
O421 C420 1.254 1_545 S
C422 O443 1.256 1_565 S
C422 O444 1.244 . S
O423 Zn419 2.055 . S
O423 C445 1.259 . S
O424 Zn416 2.046 . S
O424 C445 1.254 1_565 S
N425 Zn419 2.036 . S
N425 C426 1.298 . S
N425 N428 1.398 . S
C426 N425 1.298 . S
C426 N429 1.367 . S
C426 C439 1.481 . S
C427 N428 1.299 . S
C427 N429 1.379 . S
N428 N425 1.398 . S
N428 C427 1.299 . S
N429 C426 1.367 . S
N429 C427 1.379 . S
C430 N432 1.298 . S
C430 N434 1.367 . S
C430 C438 1.481 . S
C431 N433 1.299 . S
C431 N434 1.379 . S
N432 Zn416 2.036 . S
N432 C430 1.298 . S
N432 N433 1.398 . S
N433 C431 1.299 . S
N433 N432 1.398 . S
N434 C430 1.367 . S
N434 C431 1.379 . S
H435 C438 0.980 . S
H436 C438 0.981 . S
H437 C438 0.981 . S
C438 C430 1.481 . S
C438 H435 0.980 . S
C438 H436 0.981 . S
C438 H437 0.981 . S
C439 C426 1.481 . S
C439 H440 0.980 . S
C439 H441 0.981 . S
C439 H442 0.981 . S
H440 C439 0.980 . S
H441 C439 0.981 . S
H442 C439 0.981 . S
O443 Zn419 2.066 . S
O443 C422 1.256 1_545 S
O444 Zn416 2.053 . S
O444 C422 1.244 . S
C445 O423 1.259 . S
C445 O424 1.254 1_545 S
O446 Zn416 2.066 . S
O446 C418 1.256 . S
O447 C418 1.244 . S
O447 Zn419 2.053 1_565 S
Zn448 O449 2.055 . S
Zn448 O456 2.046 . S
Zn448 N464 2.036 . S
Zn448 O476 2.053 . S
Zn448 O478 2.066 . S
O449 Zn448 2.055 . S
O449 C452 1.259 . S
C450 O478 1.256 . S
C450 O479 1.244 . S
Zn451 O453 2.046 . S
Zn451 O455 2.055 . S
Zn451 N457 2.036 . S
Zn451 O475 2.066 . S
Zn451 O479 2.053 . S
C452 O449 1.259 . S
C452 O453 1.254 . S
O453 Zn451 2.046 . S
O453 C452 1.254 . S
C454 O475 1.256 . S
C454 O476 1.244 . S
O455 Zn451 2.055 . S
O455 C477 1.259 . S
O456 Zn448 2.046 . S
O456 C477 1.254 . S
N457 Zn451 2.036 . S
N457 C458 1.298 . S
N457 N460 1.398 . S
C458 N457 1.298 . S
C458 N461 1.367 . S
C458 C471 1.481 . S
C459 N460 1.299 . S
C459 N461 1.379 . S
N460 N457 1.398 . S
N460 C459 1.299 . S
N461 C458 1.367 . S
N461 C459 1.379 . S
C462 N464 1.298 . S
C462 N466 1.367 . S
C462 C470 1.481 . S
C463 N465 1.299 . S
C463 N466 1.379 . S
N464 Zn448 2.036 . S
N464 C462 1.298 . S
N464 N465 1.398 . S
N465 C463 1.299 . S
N465 N464 1.398 . S
N466 C462 1.367 . S
N466 C463 1.379 . S
H467 C470 0.980 . S
H468 C470 0.981 . S
H469 C470 0.981 . S
C470 C462 1.481 . S
C470 H467 0.980 . S
C470 H468 0.981 . S
C470 H469 0.981 . S
C471 C458 1.481 . S
C471 H472 0.980 . S
C471 H473 0.981 . S
C471 H474 0.981 . S
H472 C471 0.980 . S
H473 C471 0.981 . S
H474 C471 0.981 . S
O475 Zn451 2.066 . S
O475 C454 1.256 . S
O476 Zn448 2.053 . S
O476 C454 1.244 . S
C477 O455 1.259 . S
C477 O456 1.254 . S
O478 Zn448 2.066 . S
O478 C450 1.256 . S
O479 C450 1.244 . S
O479 Zn451 2.053 . S
Zn480 O481 2.055 . S
Zn480 O488 2.046 . S
Zn480 N496 2.036 . S
Zn480 O508 2.053 1_565 S
Zn480 O510 2.066 . S
O481 Zn480 2.055 . S
O481 C484 1.259 . S
C482 O510 1.256 1_545 S
C482 O511 1.244 . S
Zn483 O485 2.046 . S
Zn483 O487 2.055 . S
Zn483 N489 2.036 . S
Zn483 O507 2.066 . S
Zn483 O511 2.053 . S
C484 O481 1.259 . S
C484 O485 1.254 1_565 S
O485 Zn483 2.046 . S
O485 C484 1.254 1_545 S
C486 O507 1.256 . S
C486 O508 1.244 . S
O487 Zn483 2.055 . S
O487 C509 1.259 . S
O488 Zn480 2.046 . S
O488 C509 1.254 1_565 S
N489 Zn483 2.036 . S
N489 C490 1.298 . S
N489 N492 1.398 . S
C490 N489 1.298 . S
C490 N493 1.367 . S
C490 C503 1.481 . S
C491 N492 1.299 . S
C491 N493 1.379 . S
N492 N489 1.398 . S
N492 C491 1.299 . S
N493 C490 1.367 . S
N493 C491 1.379 . S
C494 N496 1.298 . S
C494 N498 1.367 . S
C494 C502 1.481 . S
C495 N497 1.299 . S
C495 N498 1.379 . S
N496 Zn480 2.036 . S
N496 C494 1.298 . S
N496 N497 1.398 . S
N497 C495 1.299 . S
N497 N496 1.398 . S
N498 C494 1.367 . S
N498 C495 1.379 . S
H499 C502 0.980 . S
H500 C502 0.981 . S
H501 C502 0.981 . S
C502 C494 1.481 . S
C502 H499 0.980 . S
C502 H500 0.981 . S
C502 H501 0.981 . S
C503 C490 1.481 . S
C503 H504 0.980 . S
C503 H505 0.981 . S
C503 H506 0.981 . S
H504 C503 0.980 . S
H505 C503 0.981 . S
H506 C503 0.981 . S
O507 Zn483 2.066 . S
O507 C486 1.256 . S
O508 Zn480 2.053 1_545 S
O508 C486 1.244 . S
C509 O487 1.259 . S
C509 O488 1.254 1_545 S
O510 Zn480 2.066 . S
O510 C482 1.256 1_565 S
O511 C482 1.244 . S
O511 Zn483 2.053 . S
H512 C518 0.930 . S
H513 C522 0.930 . S
H514 C527 0.929 . S
H515 C525 0.929 . S
H516 C520 0.929 . S
H517 C526 0.929 . S
C518 H512 0.930 . S
C518 C519 1.367 . S
C518 C526 1.378 . S
C519 C518 1.367 . S
C519 C527 1.433 . S
C520 H516 0.929 . S
C520 C522 1.378 . S
C520 C524 1.350 . S
C521 C524 1.463 . S
C521 C526 1.350 . S
C521 N529 1.427 . S
C522 H513 0.930 . S
C522 C520 1.378 . S
C522 C523 1.367 . S
C523 C522 1.367 . S
C523 C525 1.433 . S
C524 C520 1.350 . S
C524 C521 1.463 . S
C524 N528 1.427 . S
C525 H515 0.929 . S
C525 C523 1.433 . S
C525 N528 1.384 . S
C526 H517 0.929 . S
C526 C518 1.378 . S
C526 C521 1.350 . S
C527 H514 0.929 . S
C527 C519 1.433 . S
C527 N529 1.384 . S
N528 C524 1.427 . S
N528 C525 1.384 . S
N529 C521 1.427 . S
N529 C527 1.384 . S
H530 C536 0.930 . S
H531 C540 0.930 . S
H532 C545 0.929 . S
H533 C543 0.929 . S
H534 C538 0.929 . S
H535 C544 0.929 . S
C536 H530 0.930 . S
C536 C537 1.367 . S
C536 C544 1.378 . S
C537 C536 1.367 . S
C537 C545 1.433 . S
C538 H534 0.929 . S
C538 C540 1.378 . S
C538 C542 1.350 . S
C539 C542 1.463 . S
C539 C544 1.350 . S
C539 N547 1.427 . S
C540 H531 0.930 . S
C540 C538 1.378 . S
C540 C541 1.367 . S
C541 C540 1.367 . S
C541 C543 1.433 . S
C542 C538 1.350 . S
C542 C539 1.463 . S
C542 N546 1.427 . S
C543 H533 0.929 . S
C543 C541 1.433 . S
C543 N546 1.384 . S
C544 H535 0.929 . S
C544 C536 1.378 . S
C544 C539 1.350 . S
C545 H532 0.929 . S
C545 C537 1.433 . S
C545 N547 1.384 . S
N546 C542 1.427 . S
N546 C543 1.384 . S
N547 C539 1.427 . S
N547 C545 1.384 . S
H548 C554 0.930 . S
H549 C558 0.930 . S
H550 C563 0.929 . S
H551 C561 0.929 . S
H552 C556 0.929 . S
H553 C562 0.929 . S
C554 H548 0.930 . S
C554 C555 1.367 . S
C554 C562 1.378 . S
C555 C554 1.367 . S
C555 C563 1.433 . S
C556 H552 0.929 . S
C556 C558 1.378 . S
C556 C560 1.350 . S
C557 C560 1.463 . S
C557 C562 1.350 . S
C557 N565 1.427 . S
C558 H549 0.930 . S
C558 C556 1.378 . S
C558 C559 1.367 . S
C559 C558 1.367 . S
C559 C561 1.433 . S
C560 C556 1.350 . S
C560 C557 1.463 . S
C560 N564 1.427 . S
C561 H551 0.929 . S
C561 C559 1.433 . S
C561 N564 1.384 . S
C562 H553 0.929 . S
C562 C554 1.378 . S
C562 C557 1.350 . S
C563 H550 0.929 . S
C563 C555 1.433 . S
C563 N565 1.384 . S
N564 C560 1.427 . S
N564 C561 1.384 . S
N565 C557 1.427 . S
N565 C563 1.384 . S
H566 C572 0.930 . S
H567 C576 0.930 . S
H568 C581 0.929 . S
H569 C579 0.929 . S
H570 C574 0.929 . S
H571 C580 0.929 . S
C572 H566 0.930 . S
C572 C573 1.367 . S
C572 C580 1.378 . S
C573 C572 1.367 . S
C573 C581 1.433 . S
C574 H570 0.929 . S
C574 C576 1.378 . S
C574 C578 1.350 . S
C575 C578 1.463 1_656 S
C575 C580 1.350 . S
C575 N583 1.427 . S
C576 H567 0.930 . S
C576 C574 1.378 . S
C576 C577 1.367 . S
C577 C576 1.367 . S
C577 C579 1.433 . S
C578 C574 1.350 . S
C578 C575 1.463 1_454 S
C578 N582 1.427 . S
C579 H569 0.929 . S
C579 C577 1.433 . S
C579 N582 1.384 . S
C580 H571 0.929 . S
C580 C572 1.378 . S
C580 C575 1.350 . S
C581 H568 0.929 . S
C581 C573 1.433 . S
C581 N583 1.384 . S
N582 C578 1.427 . S
N582 C579 1.384 . S
N583 C575 1.427 . S
N583 C581 1.384 . S
H584 C590 0.930 . S
H585 C594 0.930 . S
H586 C599 0.929 . S
H587 C597 0.929 . S
H588 C592 0.929 . S
H589 C598 0.929 . S
C590 H584 0.930 . S
C590 C591 1.367 . S
C590 C598 1.378 . S
C591 C590 1.367 . S
C591 C599 1.433 . S
C592 H588 0.929 . S
C592 C594 1.378 . S
C592 C596 1.350 . S
C593 C596 1.463 . S
C593 C598 1.350 . S
C593 N601 1.427 . S
C594 H585 0.930 . S
C594 C592 1.378 . S
C594 C595 1.367 . S
C595 C594 1.367 . S
C595 C597 1.433 . S
C596 C592 1.350 . S
C596 C593 1.463 . S
C596 N600 1.427 . S
C597 H587 0.929 . S
C597 C595 1.433 . S
C597 N600 1.384 . S
C598 H589 0.929 . S
C598 C590 1.378 . S
C598 C593 1.350 . S
C599 H586 0.929 . S
C599 C591 1.433 . S
C599 N601 1.384 . S
N600 C596 1.427 . S
N600 C597 1.384 . S
N601 C593 1.427 . S
N601 C599 1.384 . S
H602 C608 0.930 . S
H603 C612 0.930 . S
H604 C617 0.929 . S
H605 C615 0.929 . S
H606 C610 0.929 . S
H607 C616 0.929 . S
C608 H602 0.930 . S
C608 C609 1.367 . S
C608 C616 1.378 . S
C609 C608 1.367 . S
C609 C617 1.433 . S
C610 H606 0.929 . S
C610 C612 1.378 . S
C610 C614 1.350 . S
C611 C614 1.463 . S
C611 C616 1.350 . S
C611 N619 1.427 . S
C612 H603 0.930 . S
C612 C610 1.378 . S
C612 C613 1.367 . S
C613 C612 1.367 . S
C613 C615 1.433 . S
C614 C610 1.350 . S
C614 C611 1.463 . S
C614 N618 1.427 . S
C615 H605 0.929 . S
C615 C613 1.433 . S
C615 N618 1.384 . S
C616 H607 0.929 . S
C616 C608 1.378 . S
C616 C611 1.350 . S
C617 H604 0.929 . S
C617 C609 1.433 . S
C617 N619 1.384 . S
N618 C614 1.427 . S
N618 C615 1.384 . S
N619 C611 1.427 . S
N619 C617 1.384 . S
H620 C626 0.930 . S
H621 C630 0.930 . S
H622 C635 0.929 . S
H623 C633 0.929 . S
H624 C628 0.929 . S
H625 C634 0.929 . S
C626 H620 0.930 . S
C626 C627 1.367 1_545 S
C626 C634 1.378 . S
C627 C626 1.367 1_565 S
C627 C635 1.433 . S
C628 H624 0.929 . S
C628 C630 1.378 . S
C628 C632 1.350 1_565 S
C629 C632 1.463 1_664 S
C629 C634 1.350 1_565 S
C629 N637 1.427 . S
C630 H621 0.930 . S
C630 C628 1.378 . S
C630 C631 1.367 1_565 S
C631 C630 1.367 1_545 S
C631 C633 1.433 . S
C632 C628 1.350 1_545 S
C632 C629 1.463 1_446 S
C632 N636 1.427 . S
C633 H623 0.929 . S
C633 C631 1.433 . S
C633 N636 1.384 . S
C634 H625 0.929 . S
C634 C626 1.378 . S
C634 C629 1.350 1_545 S
C635 H622 0.929 . S
C635 C627 1.433 . S
C635 N637 1.384 . S
N636 C632 1.427 . S
N636 C633 1.384 . S
N637 C629 1.427 . S
N637 C635 1.384 . S
H638 C644 0.931 1_545 S
H639 C648 0.931 1_565 S
H640 C653 0.929 . S
H641 C651 0.929 . S
H642 C646 0.929 . S
H643 C652 0.929 . S
C644 H638 0.931 1_565 S
C644 C645 1.367 . S
C644 C652 1.378 1_565 S
C645 C644 1.367 . S
C645 C653 1.433 . S
C646 H642 0.929 . S
C646 C648 1.378 1_565 S
C646 C650 1.350 1_565 S
C647 C650 1.463 1_565 S
C647 C652 1.350 1_565 S
C647 N655 1.427 . S
C648 H639 0.931 1_545 S
C648 C646 1.378 1_545 S
C648 C649 1.367 . S
C649 C648 1.367 . S
C649 C651 1.433 . S
C650 C646 1.350 1_545 S
C650 C647 1.463 1_545 S
C650 N654 1.427 . S
C651 H641 0.929 . S
C651 C649 1.433 . S
C651 N654 1.384 . S
C652 H643 0.929 . S
C652 C644 1.378 1_545 S
C652 C647 1.350 1_545 S
C653 H640 0.929 . S
C653 C645 1.433 . S
C653 N655 1.384 . S
N654 C650 1.427 . S
N654 C651 1.384 . S
N655 C647 1.427 . S
N655 C653 1.384 . S
H656 C662 0.930 . S
H657 C666 0.930 . S
H658 C671 0.929 . S
H659 C669 0.929 . S
H660 C664 0.929 . S
H661 C670 0.929 . S
C662 H656 0.930 . S
C662 C663 1.367 . S
C662 C670 1.378 . S
C663 C662 1.367 . S
C663 C671 1.433 . S
C664 H660 0.929 . S
C664 C666 1.378 . S
C664 C668 1.350 . S
C665 C668 1.463 1_556 S
C665 C670 1.350 . S
C665 N673 1.427 . S
C666 H657 0.930 . S
C666 C664 1.378 . S
C666 C667 1.367 . S
C667 C666 1.367 . S
C667 C669 1.433 . S
C668 C664 1.350 . S
C668 C665 1.463 1_554 S
C668 N672 1.427 . S
C669 H659 0.929 . S
C669 C667 1.433 . S
C669 N672 1.384 . S
C670 H661 0.929 . S
C670 C662 1.378 . S
C670 C665 1.350 . S
C671 H658 0.929 . S
C671 C663 1.433 . S
C671 N673 1.384 . S
N672 C668 1.427 . S
N672 C669 1.384 . S
N673 C665 1.427 . S
N673 C671 1.384 . S
H674 C680 0.930 . S
H675 C684 0.930 . S
H676 C689 0.929 . S
H677 C687 0.929 . S
H678 C682 0.929 . S
H679 C688 0.929 . S
C680 H674 0.930 . S
C680 C681 1.367 . S
C680 C688 1.378 . S
C681 C680 1.367 . S
C681 C689 1.433 . S
C682 H678 0.929 . S
C682 C684 1.378 . S
C682 C686 1.350 . S
C683 C686 1.463 . S
C683 C688 1.350 . S
C683 N691 1.427 . S
C684 H675 0.930 . S
C684 C682 1.378 . S
C684 C685 1.367 . S
C685 C684 1.367 . S
C685 C687 1.433 . S
C686 C682 1.350 . S
C686 C683 1.463 . S
C686 N690 1.427 . S
C687 H677 0.929 . S
C687 C685 1.433 . S
C687 N690 1.384 . S
C688 H679 0.929 . S
C688 C680 1.378 . S
C688 C683 1.350 . S
C689 H676 0.929 . S
C689 C681 1.433 . S
C689 N691 1.384 . S
N690 C686 1.427 . S
N690 C687 1.384 . S
N691 C683 1.427 . S
N691 C689 1.384 . S
H692 C698 0.930 . S
H693 C702 0.930 . S
H694 C707 0.929 . S
H695 C705 0.929 . S
H696 C700 0.929 . S
H697 C706 0.929 . S
C698 H692 0.930 . S
C698 C699 1.367 . S
C698 C706 1.378 . S
C699 C698 1.367 . S
C699 C707 1.433 . S
C700 H696 0.929 . S
C700 C702 1.378 . S
C700 C704 1.350 . S
C701 C704 1.463 . S
C701 C706 1.350 . S
C701 N709 1.427 . S
C702 H693 0.930 . S
C702 C700 1.378 . S
C702 C703 1.367 . S
C703 C702 1.367 . S
C703 C705 1.433 . S
C704 C700 1.350 . S
C704 C701 1.463 . S
C704 N708 1.427 . S
C705 H695 0.929 . S
C705 C703 1.433 . S
C705 N708 1.384 . S
C706 H697 0.929 . S
C706 C698 1.378 . S
C706 C701 1.350 . S
C707 H694 0.929 . S
C707 C699 1.433 . S
C707 N709 1.384 . S
N708 C704 1.427 . S
N708 C705 1.384 . S
N709 C701 1.427 . S
N709 C707 1.384 . S
H710 C716 0.930 . S
H711 C720 0.930 . S
H712 C725 0.929 . S
H713 C723 0.929 . S
H714 C718 0.929 . S
H715 C724 0.929 . S
C716 H710 0.930 . S
C716 C717 1.367 . S
C716 C724 1.378 . S
C717 C716 1.367 . S
C717 C725 1.433 . S
C718 H714 0.929 . S
C718 C720 1.378 . S
C718 C722 1.350 . S
C719 C722 1.463 . S
C719 C724 1.350 . S
C719 N727 1.427 . S
C720 H711 0.930 . S
C720 C718 1.378 . S
C720 C721 1.367 . S
C721 C720 1.367 . S
C721 C723 1.433 . S
C722 C718 1.350 . S
C722 C719 1.463 . S
C722 N726 1.427 . S
C723 H713 0.929 . S
C723 C721 1.433 . S
C723 N726 1.384 . S
C724 H715 0.929 . S
C724 C716 1.378 . S
C724 C719 1.350 . S
C725 H712 0.929 . S
C725 C717 1.433 . S
C725 N727 1.384 . S
N726 C722 1.427 . S
N726 C723 1.384 . S
N727 C719 1.427 . S
N727 C725 1.384 . S
H728 C734 0.930 . S
H729 C738 0.930 . S
H730 C743 0.929 . S
H731 C741 0.929 . S
H732 C736 0.929 1_554 S
H733 C742 0.929 1_556 S
C734 H728 0.930 . S
C734 C735 1.367 . S
C734 C742 1.378 . S
C735 C734 1.367 . S
C735 C743 1.433 . S
C736 H732 0.929 1_556 S
C736 C738 1.378 . S
C736 C740 1.350 . S
C737 C740 1.463 1_554 S
C737 C742 1.350 . S
C737 N745 1.427 . S
C738 H729 0.930 . S
C738 C736 1.378 . S
C738 C739 1.367 . S
C739 C738 1.367 . S
C739 C741 1.433 . S
C740 C736 1.350 . S
C740 C737 1.463 1_556 S
C740 N744 1.427 . S
C741 H731 0.929 . S
C741 C739 1.433 . S
C741 N744 1.384 . S
C742 H733 0.929 1_554 S
C742 C734 1.378 . S
C742 C737 1.350 . S
C743 H730 0.929 . S
C743 C735 1.433 . S
C743 N745 1.384 . S
N744 C740 1.427 . S
N744 C741 1.384 . S
N745 C737 1.427 . S
N745 C743 1.384 . S
H746 C752 0.930 . S
H747 C756 0.930 . S
H748 C761 0.929 . S
H749 C759 0.929 . S
H750 C754 0.929 . S
H751 C760 0.929 . S
C752 H746 0.930 . S
C752 C753 1.367 . S
C752 C760 1.378 . S
C753 C752 1.367 . S
C753 C761 1.433 . S
C754 H750 0.929 . S
C754 C756 1.378 . S
C754 C758 1.350 . S
C755 C758 1.463 . S
C755 C760 1.350 . S
C755 N763 1.427 . S
C756 H747 0.930 . S
C756 C754 1.378 . S
C756 C757 1.367 . S
C757 C756 1.367 . S
C757 C759 1.433 . S
C758 C754 1.350 . S
C758 C755 1.463 . S
C758 N762 1.427 . S
C759 H749 0.929 . S
C759 C757 1.433 . S
C759 N762 1.384 . S
C760 H751 0.929 . S
C760 C752 1.378 . S
C760 C755 1.350 . S
C761 H748 0.929 . S
C761 C753 1.433 . S
C761 N763 1.384 . S
N762 C758 1.427 . S
N762 C759 1.384 . S
N763 C755 1.427 . S
N763 C761 1.384 . S
H764 C770 0.930 . S
H765 C774 0.930 . S
H766 C779 0.929 . S
H767 C777 0.929 . S
H768 C772 0.929 . S
H769 C778 0.929 . S
C770 H764 0.930 . S
C770 C771 1.367 . S
C770 C778 1.378 . S
C771 C770 1.367 . S
C771 C779 1.433 . S
C772 H768 0.929 . S
C772 C774 1.378 . S
C772 C776 1.350 . S
C773 C776 1.463 . S
C773 C778 1.350 . S
C773 N781 1.427 . S
C774 H765 0.930 . S
C774 C772 1.378 . S
C774 C775 1.367 . S
C775 C774 1.367 . S
C775 C777 1.433 . S
C776 C772 1.350 . S
C776 C773 1.463 . S
C776 N780 1.427 . S
C777 H767 0.929 . S
C777 C775 1.433 . S
C777 N780 1.384 . S
C778 H769 0.929 . S
C778 C770 1.378 . S
C778 C773 1.350 . S
C779 H766 0.929 . S
C779 C771 1.433 . S
C779 N781 1.384 . S
N780 C776 1.427 . S
N780 C777 1.384 . S
N781 C773 1.427 . S
N781 C779 1.384 . S
H782 C788 0.930 . S
H783 C792 0.930 . S
H784 C797 0.929 . S
H785 C795 0.929 . S
H786 C790 0.929 . S
H787 C796 0.929 . S
C788 H782 0.930 . S
C788 C789 1.367 . S
C788 C796 1.378 . S
C789 C788 1.367 . S
C789 C797 1.433 . S
C790 H786 0.929 . S
C790 C792 1.378 . S
C790 C794 1.350 . S
C791 C794 1.463 . S
C791 C796 1.350 . S
C791 N799 1.427 . S
C792 H783 0.930 . S
C792 C790 1.378 . S
C792 C793 1.367 . S
C793 C792 1.367 . S
C793 C795 1.433 . S
C794 C790 1.350 . S
C794 C791 1.463 . S
C794 N798 1.427 . S
C795 H785 0.929 . S
C795 C793 1.433 . S
C795 N798 1.384 . S
C796 H787 0.929 . S
C796 C788 1.378 . S
C796 C791 1.350 . S
C797 H784 0.929 . S
C797 C789 1.433 . S
C797 N799 1.384 . S
N798 C794 1.427 . S
N798 C795 1.384 . S
N799 C791 1.427 . S
N799 C797 1.384 . S
H800 C806 0.930 . S
H801 C810 0.930 . S
H802 C815 0.929 . S
H803 C813 0.929 . S
H804 C808 0.929 . S
H805 C814 0.929 . S
C806 H800 0.930 . S
C806 C807 1.367 . S
C806 C814 1.378 . S
C807 C806 1.367 . S
C807 C815 1.433 . S
C808 H804 0.929 . S
C808 C810 1.378 . S
C808 C812 1.350 . S
C809 C812 1.463 . S
C809 C814 1.350 . S
C809 N817 1.427 . S
C810 H801 0.930 . S
C810 C808 1.378 . S
C810 C811 1.367 . S
C811 C810 1.367 . S
C811 C813 1.433 . S
C812 C808 1.350 . S
C812 C809 1.463 . S
C812 N816 1.427 . S
C813 H803 0.929 . S
C813 C811 1.433 . S
C813 N816 1.384 . S
C814 H805 0.929 . S
C814 C806 1.378 . S
C814 C809 1.350 . S
C815 H802 0.929 . S
C815 C807 1.433 . S
C815 N817 1.384 . S
N816 C812 1.427 . S
N816 C813 1.384 . S
N817 C809 1.427 . S
N817 C815 1.384 . S
H818 C824 0.930 . S
H819 C828 0.930 . S
H820 C833 0.929 . S
H821 C831 0.929 . S
H822 C826 0.929 . S
H823 C832 0.919 1_545 S
C824 H818 0.930 . S
C824 C825 1.368 1_545 S
C824 C832 1.378 1_545 S
C825 C824 1.368 1_565 S
C825 C833 1.431 . S
C826 H822 0.929 . S
C826 C828 1.378 . S
C826 C830 1.350 . S
C827 C830 1.463 . S
C827 C832 1.350 . S
C827 N835 1.427 . S
C828 H819 0.930 . S
C828 C826 1.378 . S
C828 C829 1.367 . S
C829 C828 1.367 . S
C829 C831 1.433 . S
C830 C826 1.350 . S
C830 C827 1.463 . S
C830 N834 1.427 . S
C831 H821 0.929 . S
C831 C829 1.433 . S
C831 N834 1.384 . S
C832 H823 0.919 1_565 S
C832 C824 1.378 1_565 S
C832 C827 1.350 . S
C833 H820 0.929 . S
C833 C825 1.431 . S
C833 N835 1.384 . S
N834 C830 1.427 . S
N834 C831 1.384 . S
N835 C827 1.427 . S
N835 C833 1.384 . S
H836 C842 0.930 . S
H837 C846 0.930 . S
H838 C851 0.929 . S
H839 C849 0.929 . S
H840 C844 0.929 . S
H841 C850 0.929 . S
C842 H836 0.930 . S
C842 C843 1.367 . S
C842 C850 1.378 . S
C843 C842 1.367 . S
C843 C851 1.433 . S
C844 H840 0.929 . S
C844 C846 1.378 . S
C844 C848 1.350 . S
C845 C848 1.463 1_554 S
C845 C850 1.350 . S
C845 N853 1.427 . S
C846 H837 0.930 . S
C846 C844 1.378 . S
C846 C847 1.367 . S
C847 C846 1.367 . S
C847 C849 1.433 . S
C848 C844 1.350 . S
C848 C845 1.463 1_556 S
C848 N852 1.427 . S
C849 H839 0.929 . S
C849 C847 1.433 . S
C849 N852 1.384 . S
C850 H841 0.929 . S
C850 C842 1.378 . S
C850 C845 1.350 . S
C851 H838 0.929 . S
C851 C843 1.433 . S
C851 N853 1.384 . S
N852 C848 1.427 . S
N852 C849 1.384 . S
N853 C845 1.427 . S
N853 C851 1.384 . S
H854 C860 0.930 . S
H855 C864 0.930 . S
H856 C869 0.929 . S
H857 C867 0.929 . S
H858 C862 0.929 1_565 S
H859 C868 0.929 . S
C860 H854 0.930 . S
C860 C861 1.367 . S
C860 C868 1.378 . S
C861 C860 1.367 . S
C861 C869 1.433 . S
C862 H858 0.929 1_545 S
C862 C864 1.378 1_545 S
C862 C866 1.350 . S
C863 C866 1.463 . S
C863 C868 1.350 . S
C863 N871 1.427 . S
C864 H855 0.930 . S
C864 C862 1.378 1_565 S
C864 C865 1.366 . S
C865 C864 1.366 . S
C865 C867 1.436 1_565 S
C866 C862 1.350 . S
C866 C863 1.463 . S
C866 N870 1.427 . S
C867 H857 0.929 . S
C867 C865 1.436 1_545 S
C867 N870 1.384 . S
C868 H859 0.929 . S
C868 C860 1.378 . S
C868 C863 1.350 . S
C869 H856 0.929 . S
C869 C861 1.433 . S
C869 N871 1.384 . S
N870 C866 1.427 . S
N870 C867 1.384 . S
N871 C863 1.427 . S
N871 C869 1.384 . S
H872 C878 0.930 . S
H873 C882 0.930 . S
H874 C887 0.929 . S
H875 C885 0.929 . S
H876 C880 0.929 . S
H877 C886 0.929 . S
C878 H872 0.930 . S
C878 C879 1.367 . S
C878 C886 1.378 . S
C879 C878 1.367 . S
C879 C887 1.433 . S
C880 H876 0.929 . S
C880 C882 1.378 . S
C880 C884 1.350 . S
C881 C884 1.463 . S
C881 C886 1.350 . S
C881 N889 1.427 . S
C882 H873 0.930 . S
C882 C880 1.378 . S
C882 C883 1.367 . S
C883 C882 1.367 . S
C883 C885 1.433 . S
C884 C880 1.350 . S
C884 C881 1.463 . S
C884 N888 1.427 . S
C885 H875 0.929 . S
C885 C883 1.433 . S
C885 N888 1.384 . S
C886 H877 0.929 . S
C886 C878 1.378 . S
C886 C881 1.350 . S
C887 H874 0.929 . S
C887 C879 1.433 . S
C887 N889 1.384 . S
N888 C884 1.427 . S
N888 C885 1.384 . S
N889 C881 1.427 . S
N889 C887 1.384 . S
H890 C896 0.930 . S
H891 C900 0.930 . S
H892 C905 0.929 . S
H893 C903 0.929 . S
H894 C898 0.929 . S
H895 C904 0.929 . S
C896 H890 0.930 . S
C896 C897 1.399 . S
C896 C904 1.378 . S
C897 C896 1.399 . S
C897 C905 1.420 1_545 S
C898 H894 0.929 . S
C898 C900 1.378 . S
C898 C902 1.350 . S
C899 C902 1.463 . S
C899 C904 1.350 . S
C899 N907 1.427 . S
C900 H891 0.930 . S
C900 C898 1.378 . S
C900 C901 1.367 . S
C901 C900 1.367 . S
C901 C903 1.433 . S
C902 C898 1.350 . S
C902 C899 1.463 . S
C902 N906 1.427 . S
C903 H893 0.929 . S
C903 C901 1.433 . S
C903 N906 1.384 . S
C904 H895 0.929 . S
C904 C896 1.378 . S
C904 C899 1.350 . S
C905 H892 0.929 . S
C905 C897 1.420 1_565 S
C905 N907 1.384 1_565 S
N906 C902 1.427 . S
N906 C903 1.384 . S
N907 C899 1.427 . S
N907 C905 1.384 1_545 S
H908 C914 0.930 . S
H909 C918 0.930 . S
H910 C923 0.929 . S
H911 C921 0.929 . S
H912 C916 0.929 1_554 S
H913 C922 0.929 1_556 S
C914 H908 0.930 . S
C914 C915 1.367 . S
C914 C922 1.378 . S
C915 C914 1.367 . S
C915 C923 1.433 . S
C916 H912 0.929 1_556 S
C916 C918 1.378 . S
C916 C920 1.350 . S
C917 C920 1.463 1_554 S
C917 C922 1.350 . S
C917 N925 1.427 . S
C918 H909 0.930 . S
C918 C916 1.378 . S
C918 C919 1.367 . S
C919 C918 1.367 . S
C919 C921 1.433 . S
C920 C916 1.350 . S
C920 C917 1.463 1_556 S
C920 N924 1.427 . S
C921 H911 0.929 . S
C921 C919 1.433 . S
C921 N924 1.384 . S
C922 H913 0.929 1_554 S
C922 C914 1.378 . S
C922 C917 1.350 . S
C923 H910 0.929 . S
C923 C915 1.433 . S
C923 N925 1.384 . S
N924 C920 1.427 . S
N924 C921 1.384 . S
N925 C917 1.427 . S
N925 C923 1.384 . S
H926 C932 0.930 . S
H927 C936 0.930 . S
H928 C941 0.929 . S
H929 C939 0.929 . S
H930 C934 0.929 . S
H931 C940 0.929 . S
C932 H926 0.930 . S
C932 C933 1.366 1_545 S
C932 C940 1.378 1_545 S
C933 C932 1.366 1_565 S
C933 C941 1.436 . S
C934 H930 0.929 . S
C934 C936 1.378 . S
C934 C938 1.350 . S
C935 C938 1.463 . S
C935 C940 1.350 . S
C935 N943 1.427 . S
C936 H927 0.930 . S
C936 C934 1.378 . S
C936 C937 1.367 . S
C937 C936 1.367 . S
C937 C939 1.433 . S
C938 C934 1.350 . S
C938 C935 1.463 . S
C938 N942 1.427 . S
C939 H929 0.929 . S
C939 C937 1.433 . S
C939 N942 1.384 . S
C940 H931 0.929 . S
C940 C932 1.378 1_565 S
C940 C935 1.350 . S
C941 H928 0.929 . S
C941 C933 1.436 . S
C941 N943 1.384 . S
N942 C938 1.427 . S
N942 C939 1.384 . S
N943 C935 1.427 . S
N943 C941 1.384 . S
H944 C950 0.930 . S
H945 C954 0.930 . S
H946 C959 0.929 . S
H947 C957 0.929 . S
H948 C952 0.929 . S
H949 C958 0.929 . S
C950 H944 0.930 . S
C950 C951 1.367 . S
C950 C958 1.378 . S
C951 C950 1.367 . S
C951 C959 1.433 . S
C952 H948 0.929 . S
C952 C954 1.378 . S
C952 C956 1.350 . S
C953 C956 1.463 . S
C953 C958 1.350 . S
C953 N961 1.427 . S
C954 H945 0.930 . S
C954 C952 1.378 . S
C954 C955 1.367 . S
C955 C954 1.367 . S
C955 C957 1.433 . S
C956 C952 1.350 . S
C956 C953 1.463 . S
C956 N960 1.427 . S
C957 H947 0.929 . S
C957 C955 1.433 . S
C957 N960 1.384 . S
C958 H949 0.929 . S
C958 C950 1.378 . S
C958 C953 1.350 . S
C959 H946 0.929 . S
C959 C951 1.433 . S
C959 N961 1.384 . S
N960 C956 1.427 . S
N960 C957 1.384 . S
N961 C953 1.427 . S
N961 C959 1.384 . S
H962 C968 0.930 . S
H963 C972 0.930 . S
H964 C977 0.929 . S
H965 C975 0.929 . S
H966 C970 0.929 . S
H967 C976 0.929 . S
C968 H962 0.930 . S
C968 C969 1.367 . S
C968 C976 1.378 . S
C969 C968 1.367 . S
C969 C977 1.433 . S
C970 H966 0.929 . S
C970 C972 1.378 . S
C970 C974 1.350 . S
C971 C974 1.463 . S
C971 C976 1.350 . S
C971 N979 1.427 . S
C972 H963 0.930 . S
C972 C970 1.378 . S
C972 C973 1.367 . S
C973 C972 1.367 . S
C973 C975 1.433 . S
C974 C970 1.350 . S
C974 C971 1.463 . S
C974 N978 1.427 . S
C975 H965 0.929 . S
C975 C973 1.433 . S
C975 N978 1.384 . S
C976 H967 0.929 . S
C976 C968 1.378 . S
C976 C971 1.350 . S
C977 H964 0.929 . S
C977 C969 1.433 . S
C977 N979 1.384 . S
N978 C974 1.427 . S
N978 C975 1.384 . S
N979 C971 1.427 . S
N979 C977 1.384 . S
H980 C986 0.930 . S
H981 C990 0.930 . S
H982 C995 0.929 . S
H983 C993 0.929 . S
H984 C988 0.929 . S
H985 C994 0.929 . S
C986 H980 0.930 . S
C986 C987 1.367 . S
C986 C994 1.378 . S
C987 C986 1.367 . S
C987 C995 1.433 . S
C988 H984 0.929 . S
C988 C990 1.378 . S
C988 C992 1.350 . S
C989 C992 1.463 1_655 S
C989 C994 1.350 . S
C989 N997 1.427 . S
C990 H981 0.930 . S
C990 C988 1.378 . S
C990 C991 1.367 . S
C991 C990 1.367 . S
C991 C993 1.433 . S
C992 C988 1.350 . S
C992 C989 1.463 1_455 S
C992 N996 1.427 . S
C993 H983 0.929 . S
C993 C991 1.433 . S
C993 N996 1.384 . S
C994 H985 0.929 . S
C994 C986 1.378 . S
C994 C989 1.350 . S
C995 H982 0.929 . S
C995 C987 1.433 . S
C995 N997 1.384 . S
N996 C992 1.427 . S
N996 C993 1.384 . S
N997 C989 1.427 . S
N997 C995 1.384 . S
H998 C1004 0.930 . S
H999 C1008 0.930 . S
H1000 C1013 0.929 . S
H1001 C1011 0.929 . S
H1002 C1006 0.929 . S
H1003 C1012 0.929 . S
C1004 H998 0.930 . S
C1004 C1005 1.367 . S
C1004 C1012 1.378 . S
C1005 C1004 1.367 . S
C1005 C1013 1.433 . S
C1006 H1002 0.929 . S
C1006 C1008 1.378 . S
C1006 C1010 1.350 . S
C1007 C1010 1.463 1_655 S
C1007 C1012 1.350 . S
C1007 N1015 1.427 . S
C1008 H999 0.930 . S
C1008 C1006 1.378 . S
C1008 C1009 1.367 . S
C1009 C1008 1.367 . S
C1009 C1011 1.433 . S
C1010 C1006 1.350 . S
C1010 C1007 1.463 1_455 S
C1010 N1014 1.427 . S
C1011 H1001 0.929 . S
C1011 C1009 1.433 . S
C1011 N1014 1.384 . S
C1012 H1003 0.929 . S
C1012 C1004 1.378 . S
C1012 C1007 1.350 . S
C1013 H1000 0.929 . S
C1013 C1005 1.433 . S
C1013 N1015 1.384 . S
N1014 C1010 1.427 . S
N1014 C1011 1.384 . S
N1015 C1007 1.427 . S
N1015 C1013 1.384 . S
H1016 C1022 0.930 . S
H1017 C1026 0.930 . S
H1018 C1031 0.929 . S
H1019 C1029 0.929 . S
H1020 C1024 0.929 . S
H1021 C1030 0.929 . S
C1022 H1016 0.930 . S
C1022 C1023 1.367 . S
C1022 C1030 1.378 . S
C1023 C1022 1.367 . S
C1023 C1031 1.433 . S
C1024 H1020 0.929 . S
C1024 C1026 1.378 . S
C1024 C1028 1.350 . S
C1025 C1028 1.463 . S
C1025 C1030 1.350 . S
C1025 N1033 1.427 . S
C1026 H1017 0.930 . S
C1026 C1024 1.378 . S
C1026 C1027 1.367 . S
C1027 C1026 1.367 . S
C1027 C1029 1.433 . S
C1028 C1024 1.350 . S
C1028 C1025 1.463 . S
C1028 N1032 1.427 . S
C1029 H1019 0.929 . S
C1029 C1027 1.433 . S
C1029 N1032 1.384 . S
C1030 H1021 0.929 . S
C1030 C1022 1.378 . S
C1030 C1025 1.350 . S
C1031 H1018 0.929 . S
C1031 C1023 1.433 . S
C1031 N1033 1.384 . S
N1032 C1028 1.427 . S
N1032 C1029 1.384 . S
N1033 C1025 1.427 . S
N1033 C1031 1.384 . S
H1034 C1040 0.930 . S
H1035 C1044 0.930 . S
H1036 C1049 0.929 . S
H1037 C1047 0.929 . S
H1038 C1042 0.929 . S
H1039 C1048 0.929 . S
C1040 H1034 0.930 . S
C1040 C1041 1.367 . S
C1040 C1048 1.378 . S
C1041 C1040 1.367 . S
C1041 C1049 1.433 . S
C1042 H1038 0.929 . S
C1042 C1044 1.378 . S
C1042 C1046 1.350 . S
C1043 C1046 1.463 . S
C1043 C1048 1.350 . S
C1043 N1051 1.427 . S
C1044 H1035 0.930 . S
C1044 C1042 1.378 . S
C1044 C1045 1.367 . S
C1045 C1044 1.367 . S
C1045 C1047 1.433 . S
C1046 C1042 1.350 . S
C1046 C1043 1.463 . S
C1046 N1050 1.427 . S
C1047 H1037 0.929 . S
C1047 C1045 1.433 . S
C1047 N1050 1.384 . S
C1048 H1039 0.929 . S
C1048 C1040 1.378 . S
C1048 C1043 1.350 . S
C1049 H1036 0.929 . S
C1049 C1041 1.433 . S
C1049 N1051 1.384 . S
N1050 C1046 1.427 . S
N1050 C1047 1.384 . S
N1051 C1043 1.427 . S
N1051 C1049 1.384 . S
H1052 C1058 0.930 . S
H1053 C1062 0.930 . S
H1054 C1067 0.929 . S
H1055 C1065 0.929 . S
H1056 C1060 0.929 . S
H1057 C1066 0.929 . S
C1058 H1052 0.930 . S
C1058 C1059 1.367 . S
C1058 C1066 1.378 . S
C1059 C1058 1.367 . S
C1059 C1067 1.433 . S
C1060 H1056 0.929 . S
C1060 C1062 1.378 . S
C1060 C1064 1.350 . S
C1061 C1064 1.463 1_455 S
C1061 C1066 1.350 . S
C1061 N1069 1.427 . S
C1062 H1053 0.930 . S
C1062 C1060 1.378 . S
C1062 C1063 1.367 . S
C1063 C1062 1.367 . S
C1063 C1065 1.433 . S
C1064 C1060 1.350 . S
C1064 C1061 1.463 1_655 S
C1064 N1068 1.427 . S
C1065 H1055 0.929 . S
C1065 C1063 1.433 . S
C1065 N1068 1.384 . S
C1066 H1057 0.929 . S
C1066 C1058 1.378 . S
C1066 C1061 1.350 . S
C1067 H1054 0.929 . S
C1067 C1059 1.433 . S
C1067 N1069 1.384 . S
N1068 C1064 1.427 . S
N1068 C1065 1.384 . S
N1069 C1061 1.427 . S
N1069 C1067 1.384 . S
H1070 C1076 0.930 . S
H1071 C1080 0.930 . S
H1072 C1085 0.929 . S
H1073 C1083 0.929 . S
H1074 C1078 0.929 . S
H1075 C1084 0.929 . S
C1076 H1070 0.930 . S
C1076 C1077 1.367 . S
C1076 C1084 1.378 . S
C1077 C1076 1.367 . S
C1077 C1085 1.433 . S
C1078 H1074 0.929 . S
C1078 C1080 1.378 . S
C1078 C1082 1.350 . S
C1079 C1082 1.463 1_455 S
C1079 C1084 1.350 . S
C1079 N1087 1.427 . S
C1080 H1071 0.930 . S
C1080 C1078 1.378 . S
C1080 C1081 1.367 . S
C1081 C1080 1.367 . S
C1081 C1083 1.433 . S
C1082 C1078 1.350 . S
C1082 C1079 1.463 1_655 S
C1082 N1086 1.427 . S
C1083 H1073 0.929 . S
C1083 C1081 1.433 . S
C1083 N1086 1.384 . S
C1084 H1075 0.929 . S
C1084 C1076 1.378 . S
C1084 C1079 1.350 . S
C1085 H1072 0.929 . S
C1085 C1077 1.433 . S
C1085 N1087 1.384 . S
N1086 C1082 1.427 . S
N1086 C1083 1.384 . S
N1087 C1079 1.427 . S
N1087 C1085 1.384 . S
H1088 C1094 0.930 . S
H1089 C1098 0.930 . S
H1090 C1103 0.929 . S
H1091 C1101 0.929 . S
H1092 C1096 0.929 . S
H1093 C1102 0.929 . S
C1094 H1088 0.930 . S
C1094 C1095 1.367 . S
C1094 C1102 1.378 . S
C1095 C1094 1.367 . S
C1095 C1103 1.433 . S
C1096 H1092 0.929 . S
C1096 C1098 1.378 . S
C1096 C1100 1.350 . S
C1097 C1100 1.463 . S
C1097 C1102 1.350 . S
C1097 N1105 1.427 . S
C1098 H1089 0.930 . S
C1098 C1096 1.378 . S
C1098 C1099 1.367 . S
C1099 C1098 1.367 . S
C1099 C1101 1.433 . S
C1100 C1096 1.350 . S
C1100 C1097 1.463 . S
C1100 N1104 1.427 . S
C1101 H1091 0.929 . S
C1101 C1099 1.433 . S
C1101 N1104 1.384 . S
C1102 H1093 0.929 . S
C1102 C1094 1.378 . S
C1102 C1097 1.350 . S
C1103 H1090 0.929 . S
C1103 C1095 1.433 . S
C1103 N1105 1.384 . S
N1104 C1100 1.427 . S
N1104 C1101 1.384 . S
N1105 C1097 1.427 . S
N1105 C1103 1.384 . S
H1106 C1112 0.930 . S
H1107 C1116 0.930 . S
H1108 C1121 0.929 . S
H1109 C1119 0.929 . S
H1110 C1114 0.929 . S
H1111 C1120 0.929 . S
C1112 H1106 0.930 . S
C1112 C1113 1.367 . S
C1112 C1120 1.378 . S
C1113 C1112 1.367 . S
C1113 C1121 1.433 . S
C1114 H1110 0.929 . S
C1114 C1116 1.378 . S
C1114 C1118 1.350 . S
C1115 C1118 1.463 . S
C1115 C1120 1.350 . S
C1115 N1123 1.427 . S
C1116 H1107 0.930 . S
C1116 C1114 1.378 . S
C1116 C1117 1.367 . S
C1117 C1116 1.367 . S
C1117 C1119 1.433 . S
C1118 C1114 1.350 . S
C1118 C1115 1.463 . S
C1118 N1122 1.427 . S
C1119 H1109 0.929 . S
C1119 C1117 1.433 . S
C1119 N1122 1.384 . S
C1120 H1111 0.929 . S
C1120 C1112 1.378 . S
C1120 C1115 1.350 . S
C1121 H1108 0.929 . S
C1121 C1113 1.433 . S
C1121 N1123 1.384 . S
N1122 C1118 1.427 . S
N1122 C1119 1.384 . S
N1123 C1115 1.427 . S
N1123 C1121 1.384 . S
H1124 C1130 0.930 . S
H1125 C1134 0.930 . S
H1126 C1139 0.929 . S
H1127 C1137 0.929 . S
H1128 C1132 0.929 . S
H1129 C1138 0.929 . S
C1130 H1124 0.930 . S
C1130 C1131 1.367 . S
C1130 C1138 1.378 . S
C1131 C1130 1.367 . S
C1131 C1139 1.433 . S
C1132 H1128 0.929 . S
C1132 C1134 1.378 . S
C1132 C1136 1.350 . S
C1133 C1136 1.463 . S
C1133 C1138 1.350 . S
C1133 N1141 1.427 . S
C1134 H1125 0.930 . S
C1134 C1132 1.378 . S
C1134 C1135 1.367 . S
C1135 C1134 1.367 . S
C1135 C1137 1.433 . S
C1136 C1132 1.350 . S
C1136 C1133 1.463 . S
C1136 N1140 1.427 . S
C1137 H1127 0.929 . S
C1137 C1135 1.433 . S
C1137 N1140 1.384 . S
C1138 H1129 0.929 . S
C1138 C1130 1.378 . S
C1138 C1133 1.350 . S
C1139 H1126 0.929 . S
C1139 C1131 1.433 . S
C1139 N1141 1.384 . S
N1140 C1136 1.427 . S
N1140 C1137 1.384 . S
N1141 C1133 1.427 . S
N1141 C1139 1.384 . S
H1142 C1148 0.930 . S
H1143 C1152 0.930 . S
H1144 C1157 0.929 . S
H1145 C1155 0.929 . S
H1146 C1150 0.929 . S
H1147 C1156 0.929 . S
C1148 H1142 0.930 . S
C1148 C1149 1.367 . S
C1148 C1156 1.378 1_655 S
C1149 C1148 1.367 . S
C1149 C1157 1.433 . S
C1150 H1146 0.929 . S
C1150 C1152 1.378 . S
C1150 C1154 1.350 . S
C1151 C1154 1.463 . S
C1151 C1156 1.350 . S
C1151 N1159 1.427 . S
C1152 H1143 0.930 . S
C1152 C1150 1.378 . S
C1152 C1153 1.367 . S
C1153 C1152 1.367 . S
C1153 C1155 1.433 . S
C1154 C1150 1.350 . S
C1154 C1151 1.463 . S
C1154 N1158 1.427 . S
C1155 H1145 0.929 . S
C1155 C1153 1.433 . S
C1155 N1158 1.384 . S
C1156 H1147 0.929 . S
C1156 C1148 1.378 1_455 S
C1156 C1151 1.350 . S
C1157 H1144 0.929 . S
C1157 C1149 1.433 . S
C1157 N1159 1.384 1_655 S
N1158 C1154 1.427 . S
N1158 C1155 1.384 . S
N1159 C1151 1.427 . S
N1159 C1157 1.384 1_455 S
H1160 C1166 0.930 . S
H1161 C1170 0.930 . S
H1162 C1175 0.929 . S
H1163 C1173 0.929 . S
H1164 C1168 0.929 . S
H1165 C1174 0.929 . S
C1166 H1160 0.930 . S
C1166 C1167 1.367 . S
C1166 C1174 1.378 . S
C1167 C1166 1.367 . S
C1167 C1175 1.433 . S
C1168 H1164 0.929 . S
C1168 C1170 1.378 . S
C1168 C1172 1.350 . S
C1169 C1172 1.463 . S
C1169 C1174 1.350 . S
C1169 N1177 1.427 . S
C1170 H1161 0.930 . S
C1170 C1168 1.378 . S
C1170 C1171 1.367 . S
C1171 C1170 1.367 . S
C1171 C1173 1.433 . S
C1172 C1168 1.350 . S
C1172 C1169 1.463 . S
C1172 N1176 1.427 . S
C1173 H1163 0.929 . S
C1173 C1171 1.433 . S
C1173 N1176 1.384 . S
C1174 H1165 0.929 . S
C1174 C1166 1.378 . S
C1174 C1169 1.350 . S
C1175 H1162 0.929 . S
C1175 C1167 1.433 . S
C1175 N1177 1.384 . S
N1176 C1172 1.427 . S
N1176 C1173 1.384 . S
N1177 C1169 1.427 . S
N1177 C1175 1.384 . S
H1178 C1184 0.930 . S
H1179 C1188 0.930 . S
H1180 C1193 0.929 . S
H1181 C1191 0.929 . S
H1182 C1186 0.929 . S
H1183 C1192 0.929 . S
C1184 H1178 0.930 . S
C1184 C1185 1.367 . S
C1184 C1192 1.378 . S
C1185 C1184 1.367 . S
C1185 C1193 1.433 . S
C1186 H1182 0.929 . S
C1186 C1188 1.378 . S
C1186 C1190 1.350 . S
C1187 C1190 1.463 . S
C1187 C1192 1.350 . S
C1187 N1195 1.427 . S
C1188 H1179 0.930 . S
C1188 C1186 1.378 . S
C1188 C1189 1.367 . S
C1189 C1188 1.367 . S
C1189 C1191 1.433 . S
C1190 C1186 1.350 . S
C1190 C1187 1.463 . S
C1190 N1194 1.427 . S
C1191 H1181 0.929 . S
C1191 C1189 1.433 . S
C1191 N1194 1.384 . S
C1192 H1183 0.929 . S
C1192 C1184 1.378 . S
C1192 C1187 1.350 . S
C1193 H1180 0.929 . S
C1193 C1185 1.433 . S
C1193 N1195 1.384 . S
N1194 C1190 1.427 . S
N1194 C1191 1.384 . S
N1195 C1187 1.427 . S
N1195 C1193 1.384 . S
H1196 C1202 0.930 . S
H1197 C1206 0.930 . S
H1198 C1211 0.929 . S
H1199 C1209 0.929 . S
H1200 C1204 0.929 . S
H1201 C1210 0.929 . S
C1202 H1196 0.930 . S
C1202 C1203 1.367 . S
C1202 C1210 1.378 . S
C1203 C1202 1.367 . S
C1203 C1211 1.433 . S
C1204 H1200 0.929 . S
C1204 C1206 1.378 . S
C1204 C1208 1.350 . S
C1205 C1208 1.463 . S
C1205 C1210 1.350 . S
C1205 N1213 1.427 . S
C1206 H1197 0.930 . S
C1206 C1204 1.378 . S
C1206 C1207 1.367 . S
C1207 C1206 1.367 . S
C1207 C1209 1.433 . S
C1208 C1204 1.350 . S
C1208 C1205 1.463 . S
C1208 N1212 1.427 . S
C1209 H1199 0.929 . S
C1209 C1207 1.433 . S
C1209 N1212 1.384 . S
C1210 H1201 0.929 . S
C1210 C1202 1.378 . S
C1210 C1205 1.350 . S
C1211 H1198 0.929 . S
C1211 C1203 1.433 . S
C1211 N1213 1.384 . S
N1212 C1208 1.427 . S
N1212 C1209 1.384 . S
N1213 C1205 1.427 . S
N1213 C1211 1.384 . S
H1214 C1220 0.930 . S
H1215 C1224 0.930 . S
H1216 C1229 0.929 . S
H1217 C1227 0.929 . S
H1218 C1222 0.929 . S
H1219 C1228 0.929 . S
C1220 H1214 0.930 . S
C1220 C1221 1.367 . S
C1220 C1228 1.378 . S
C1221 C1220 1.367 . S
C1221 C1229 1.433 . S
C1222 H1218 0.929 . S
C1222 C1224 1.378 1_655 S
C1222 C1226 1.350 . S
C1223 C1226 1.463 . S
C1223 C1228 1.350 . S
C1223 N1231 1.427 . S
C1224 H1215 0.930 . S
C1224 C1222 1.378 1_455 S
C1224 C1225 1.367 . S
C1225 C1224 1.367 . S
C1225 C1227 1.433 . S
C1226 C1222 1.350 . S
C1226 C1223 1.463 . S
C1226 N1230 1.427 . S
C1227 H1217 0.929 . S
C1227 C1225 1.433 . S
C1227 N1230 1.384 1_455 S
C1228 H1219 0.929 . S
C1228 C1220 1.378 . S
C1228 C1223 1.350 . S
C1229 H1216 0.929 . S
C1229 C1221 1.433 . S
C1229 N1231 1.384 . S
N1230 C1226 1.427 . S
N1230 C1227 1.384 1_655 S
N1231 C1223 1.427 . S
N1231 C1229 1.384 . S
H1232 C1238 0.930 . S
H1233 C1242 0.930 . S
H1234 C1247 0.929 . S
H1235 C1245 0.929 . S
H1236 C1240 0.929 . S
H1237 C1246 0.929 . S
C1238 H1232 0.930 . S
C1238 C1239 1.367 . S
C1238 C1246 1.378 . S
C1239 C1238 1.367 . S
C1239 C1247 1.433 . S
C1240 H1236 0.929 . S
C1240 C1242 1.378 . S
C1240 C1244 1.350 . S
C1241 C1244 1.463 . S
C1241 C1246 1.350 . S
C1241 N1249 1.427 . S
C1242 H1233 0.930 . S
C1242 C1240 1.378 . S
C1242 C1243 1.367 . S
C1243 C1242 1.367 . S
C1243 C1245 1.433 . S
C1244 C1240 1.350 . S
C1244 C1241 1.463 . S
C1244 N1248 1.427 . S
C1245 H1235 0.929 . S
C1245 C1243 1.433 . S
C1245 N1248 1.384 . S
C1246 H1237 0.929 . S
C1246 C1238 1.378 . S
C1246 C1241 1.350 . S
C1247 H1234 0.929 . S
C1247 C1239 1.433 . S
C1247 N1249 1.384 . S
N1248 C1244 1.427 . S
N1248 C1245 1.384 . S
N1249 C1241 1.427 . S
N1249 C1247 1.384 . S
H1250 C1256 0.930 . S
H1251 C1260 0.930 . S
H1252 C1265 0.929 . S
H1253 C1263 0.929 . S
H1254 C1258 0.929 . S
H1255 C1264 0.929 . S
C1256 H1250 0.930 . S
C1256 C1257 1.367 . S
C1256 C1264 1.378 . S
C1257 C1256 1.367 . S
C1257 C1265 1.433 . S
C1258 H1254 0.929 . S
C1258 C1260 1.378 1_655 S
C1258 C1262 1.350 . S
C1259 C1262 1.463 . S
C1259 C1264 1.350 . S
C1259 N1267 1.427 . S
C1260 H1251 0.930 . S
C1260 C1258 1.378 1_455 S
C1260 C1261 1.367 . S
C1261 C1260 1.367 . S
C1261 C1263 1.433 . S
C1262 C1258 1.350 . S
C1262 C1259 1.463 . S
C1262 N1266 1.427 . S
C1263 H1253 0.929 . S
C1263 C1261 1.433 . S
C1263 N1266 1.384 1_455 S
C1264 H1255 0.929 . S
C1264 C1256 1.378 . S
C1264 C1259 1.350 . S
C1265 H1252 0.929 . S
C1265 C1257 1.433 . S
C1265 N1267 1.384 . S
N1266 C1262 1.427 . S
N1266 C1263 1.384 1_655 S
N1267 C1259 1.427 . S
N1267 C1265 1.384 . S
H1268 C1274 0.930 . S
H1269 C1278 0.930 . S
H1270 C1283 0.929 . S
H1271 C1281 0.929 . S
H1272 C1276 0.929 . S
H1273 C1282 0.929 . S
C1274 H1268 0.930 . S
C1274 C1275 1.367 . S
C1274 C1282 1.378 . S
C1275 C1274 1.367 . S
C1275 C1283 1.433 . S
C1276 H1272 0.929 . S
C1276 C1278 1.378 . S
C1276 C1280 1.350 . S
C1277 C1280 1.463 . S
C1277 C1282 1.350 . S
C1277 N1285 1.427 . S
C1278 H1269 0.930 . S
C1278 C1276 1.378 . S
C1278 C1279 1.367 . S
C1279 C1278 1.367 . S
C1279 C1281 1.433 . S
C1280 C1276 1.350 . S
C1280 C1277 1.463 . S
C1280 N1284 1.427 . S
C1281 H1271 0.929 . S
C1281 C1279 1.433 . S
C1281 N1284 1.384 . S
C1282 H1273 0.929 . S
C1282 C1274 1.378 . S
C1282 C1277 1.350 . S
C1283 H1270 0.929 . S
C1283 C1275 1.433 . S
C1283 N1285 1.384 . S
N1284 C1280 1.427 . S
N1284 C1281 1.384 . S
N1285 C1277 1.427 . S
N1285 C1283 1.384 . S
H1286 C1292 0.930 1_565 S
H1287 C1296 0.930 . S
H1288 C1301 0.929 . S
H1289 C1299 0.929 . S
H1290 C1294 0.929 . S
H1291 C1300 0.929 . S
C1292 H1286 0.930 1_545 S
C1292 C1293 1.367 . S
C1292 C1300 1.378 . S
C1293 C1292 1.367 . S
C1293 C1301 1.433 . S
C1294 H1290 0.929 . S
C1294 C1296 1.378 . S
C1294 C1298 1.350 . S
C1295 C1298 1.463 . S
C1295 C1300 1.350 . S
C1295 N1303 1.427 . S
C1296 H1287 0.930 . S
C1296 C1294 1.378 . S
C1296 C1297 1.367 . S
C1297 C1296 1.367 . S
C1297 C1299 1.433 . S
C1298 C1294 1.350 . S
C1298 C1295 1.463 . S
C1298 N1302 1.427 . S
C1299 H1289 0.929 . S
C1299 C1297 1.433 . S
C1299 N1302 1.384 . S
C1300 H1291 0.929 . S
C1300 C1292 1.378 . S
C1300 C1295 1.350 . S
C1301 H1288 0.929 . S
C1301 C1293 1.433 . S
C1301 N1303 1.384 . S
N1302 C1298 1.427 . S
N1302 C1299 1.384 . S
N1303 C1295 1.427 . S
N1303 C1301 1.384 . S
H1304 C1310 0.930 . S
H1305 C1314 0.930 . S
H1306 C1319 0.929 . S
H1307 C1317 0.929 . S
H1308 C1312 0.929 . S
H1309 C1318 0.929 . S
C1310 H1304 0.930 . S
C1310 C1311 1.367 . S
C1310 C1318 1.378 . S
C1311 C1310 1.367 . S
C1311 C1319 1.433 . S
C1312 H1308 0.929 . S
C1312 C1314 1.378 . S
C1312 C1316 1.350 . S
C1313 C1316 1.463 . S
C1313 C1318 1.350 . S
C1313 N1321 1.427 . S
C1314 H1305 0.930 . S
C1314 C1312 1.378 . S
C1314 C1315 1.367 . S
C1315 C1314 1.367 . S
C1315 C1317 1.433 . S
C1316 C1312 1.350 . S
C1316 C1313 1.463 . S
C1316 N1320 1.427 . S
C1317 H1307 0.929 . S
C1317 C1315 1.433 . S
C1317 N1320 1.384 . S
C1318 H1309 0.929 . S
C1318 C1310 1.378 . S
C1318 C1313 1.350 . S
C1319 H1306 0.929 . S
C1319 C1311 1.433 . S
C1319 N1321 1.384 . S
N1320 C1316 1.427 . S
N1320 C1317 1.384 . S
N1321 C1313 1.427 . S
N1321 C1319 1.384 . S
H1322 C1328 0.930 . S
H1323 C1332 0.930 . S
H1324 C1337 0.933 1_565 S
H1325 C1335 0.929 . S
H1326 C1330 0.929 . S
H1327 C1336 0.929 . S
C1328 H1322 0.930 . S
C1328 C1329 1.367 . S
C1328 C1336 1.378 1_655 S
C1329 C1328 1.367 . S
C1329 C1337 1.446 . S
C1330 H1326 0.929 . S
C1330 C1332 1.378 . S
C1330 C1334 1.350 . S
C1331 C1334 1.463 . S
C1331 C1336 1.350 . S
C1331 N1339 1.427 . S
C1332 H1323 0.930 . S
C1332 C1330 1.378 . S
C1332 C1333 1.367 . S
C1333 C1332 1.367 . S
C1333 C1335 1.433 . S
C1334 C1330 1.350 . S
C1334 C1331 1.463 . S
C1334 N1338 1.427 . S
C1335 H1325 0.929 . S
C1335 C1333 1.433 . S
C1335 N1338 1.384 . S
C1336 H1327 0.929 . S
C1336 C1328 1.378 1_455 S
C1336 C1331 1.350 . S
C1337 H1324 0.933 1_545 S
C1337 C1329 1.446 . S
C1337 N1339 1.367 1_655 S
N1338 C1334 1.427 . S
N1338 C1335 1.384 . S
N1339 C1331 1.427 . S
N1339 C1337 1.367 1_455 S
H1340 C1346 0.930 . S
H1341 C1350 0.930 . S
H1342 C1355 0.929 . S
H1343 C1353 0.929 . S
H1344 C1348 0.929 . S
H1345 C1354 0.929 . S
C1346 H1340 0.930 . S
C1346 C1347 1.367 . S
C1346 C1354 1.378 . S
C1347 C1346 1.367 . S
C1347 C1355 1.433 . S
C1348 H1344 0.929 . S
C1348 C1350 1.378 . S
C1348 C1352 1.350 . S
C1349 C1352 1.463 . S
C1349 C1354 1.350 . S
C1349 N1357 1.427 . S
C1350 H1341 0.930 . S
C1350 C1348 1.378 . S
C1350 C1351 1.367 . S
C1351 C1350 1.367 . S
C1351 C1353 1.433 . S
C1352 C1348 1.350 . S
C1352 C1349 1.463 . S
C1352 N1356 1.427 . S
C1353 H1343 0.929 . S
C1353 C1351 1.433 . S
C1353 N1356 1.384 . S
C1354 H1345 0.929 . S
C1354 C1346 1.378 . S
C1354 C1349 1.350 . S
C1355 H1342 0.929 . S
C1355 C1347 1.433 . S
C1355 N1357 1.384 . S
N1356 C1352 1.427 . S
N1356 C1353 1.384 . S
N1357 C1349 1.427 . S
N1357 C1355 1.384 . S
H1358 C1364 0.930 . S
H1359 C1368 0.930 . S
H1360 C1373 0.929 . S
H1361 C1371 0.929 . S
H1362 C1366 0.929 . S
H1363 C1372 0.929 . S
C1364 H1358 0.930 . S
C1364 C1365 1.367 . S
C1364 C1372 1.378 . S
C1365 C1364 1.367 . S
C1365 C1373 1.433 . S
C1366 H1362 0.929 . S
C1366 C1368 1.378 . S
C1366 C1370 1.350 . S
C1367 C1370 1.463 . S
C1367 C1372 1.350 . S
C1367 N1375 1.427 . S
C1368 H1359 0.930 . S
C1368 C1366 1.378 . S
C1368 C1369 1.367 . S
C1369 C1368 1.367 . S
C1369 C1371 1.433 . S
C1370 C1366 1.350 . S
C1370 C1367 1.463 . S
C1370 N1374 1.427 . S
C1371 H1361 0.929 . S
C1371 C1369 1.433 . S
C1371 N1374 1.384 . S
C1372 H1363 0.929 . S
C1372 C1364 1.378 . S
C1372 C1367 1.350 . S
C1373 H1360 0.929 . S
C1373 C1365 1.433 . S
C1373 N1375 1.384 . S
N1374 C1370 1.427 . S
N1374 C1371 1.384 . S
N1375 C1367 1.427 . S
N1375 C1373 1.384 . S
C519 C4 0.659 . S
C523 C413 0.659 . S
C537 C189 0.655 . S
C541 C36 0.655 . S
C555 C68 0.655 . S
C559 C452 0.655 . S
C573 C125 0.665 . S
C577 C253 0.665 . S
C591 C157 0.671 . S
C595 C260 0.671 . S
C609 C349 0.660 . S
C613 C196 0.660 . S
C627 C420 0.656 . S
C631 C292 0.656 . S
C645 C381 0.655 . S
C649 C509 0.655 . S
C663 C290 1.882 . S
C667 C6 1.844 . S
C681 C38 1.842 . S
C685 C326 1.880 . S
C699 C70 1.851 . S
C703 C358 1.874 . S
C717 C258 1.877 . S
C721 C98 1.845 . S
C735 C418 1.875 . S
C739 C130 1.849 . S
C753 C450 1.881 . S
C757 C162 1.845 . S
C771 C198 1.844 . S
C775 C486 1.878 . S
C789 C390 1.876 . S
C793 C226 1.852 . S
C807 C262 1.848 . S
C811 C34 1.875 . S
C825 C294 1.853 1_565 S
C829 C66 1.877 . S
C843 C322 1.852 . S
C847 C102 1.877 . S
C861 C2 1.874 . S
C865 C354 1.852 . S
C879 C166 1.882 . S
C883 C386 1.842 . S
C897 C422 1.830 1_545 S
C901 C194 1.879 . S
C915 C230 1.874 . S
C919 C454 1.852 . S
C933 C482 1.849 1_565 S
C937 C134 1.875 . S
C951 N18 1.323 . S
C955 N333 1.323 . S
C969 N50 1.334 . S
C973 N365 1.336 . S
C987 N274 1.337 . S
C991 N82 1.330 . S
C1005 N109 1.335 . S
C1009 N306 1.325 . S
C1023 N141 1.324 . S
C1027 N466 1.334 . S
C1041 N173 1.329 . S
C1045 N493 1.322 . S
C1059 N397 1.326 . S
C1063 N210 1.336 . S
C1077 N237 1.334 . S
C1081 N434 1.324 . S
C1095 C29 1.024 . S
C1099 N242 1.049 . S
C1113 N402 1.050 . S
C1117 C61 1.018 . S
C1131 C93 1.024 . S
C1135 N178 1.050 . S
C1149 C100 0.999 . S
C1153 N461 1.037 . S
C1167 C132 1.023 . S
C1171 N114 1.051 . S
C1185 N269 1.050 . S
C1189 C164 1.025 . S
C1203 C221 1.019 . S
C1207 N45 1.050 . S
C1221 N338 1.037 . S
C1225 C228 0.999 . S
C1239 C285 1.022 . S
C1243 N498 1.047 . S
C1257 N146 1.050 . S
C1261 C317 1.025 . S
C1275 N429 1.051 . S
C1279 C324 1.020 . S
C1293 C356 1.003 . S
C1297 N205 1.042 . S
C1311 C388 1.007 . S
C1315 N370 1.038 . S
C1329 C445 1.004 . S
C1333 N13 1.037 . S
C1347 N301 1.039 . S
C1351 C477 1.000 . S
C1365 N77 1.037 . S
C1369 C484 0.999 . S
