# Generated by pormake.
# Topology qtz-f, (3)-cn, num edge types: 1
# Building blocks:
#     Node 0, Type 0, BuildingBlock: WUSLED_clean_sbu_0, # of connection points: 3
#     Node 1, Type 0, BuildingBlock: WUSLED_clean_sbu_0, # of connection points: 3
#     Node 2, Type 0, BuildingBlock: WUSLED_clean_sbu_0, # of connection points: 3
#     Node 3, Type 0, BuildingBlock: WUSLED_clean_sbu_0, # of connection points: 3
#     Node 4, Type 0, BuildingBlock: WUSLED_clean_sbu_0, # of connection points: 3
#     Node 5, Type 0, BuildingBlock: WUSLED_clean_sbu_0, # of connection points: 3
#     Node 6, Type 0, BuildingBlock: WUSLED_clean_sbu_0, # of connection points: 3
#     Node 7, Type 0, BuildingBlock: WUSLED_clean_sbu_0, # of connection points: 3
#     Node 8, Type 0, BuildingBlock: WUSLED_clean_sbu_0, # of connection points: 3
#     Node 9, Type 0, BuildingBlock: WUSLED_clean_sbu_0, # of connection points: 3
#     Node 10, Type 0, BuildingBlock: WUSLED_clean_sbu_0, # of connection points: 3
#     Node 11, Type 0, BuildingBlock: WUSLED_clean_sbu_0, # of connection points: 3
#     Edge 12, Type (0, 0), BuildingBlock: CIFDUS_clean_linker_0, # of connection points: 2
#     Edge 13, Type (0, 0), BuildingBlock: CIFDUS_clean_linker_0, # of connection points: 2
#     Edge 14, Type (0, 0), BuildingBlock: CIFDUS_clean_linker_0, # of connection points: 2
#     Edge 15, Type (0, 0), BuildingBlock: CIFDUS_clean_linker_0, # of connection points: 2
#     Edge 16, Type (0, 0), BuildingBlock: CIFDUS_clean_linker_0, # of connection points: 2
#     Edge 17, Type (0, 0), BuildingBlock: CIFDUS_clean_linker_0, # of connection points: 2
#     Edge 18, Type (0, 0), BuildingBlock: CIFDUS_clean_linker_0, # of connection points: 2
#     Edge 19, Type (0, 0), BuildingBlock: CIFDUS_clean_linker_0, # of connection points: 2
#     Edge 20, Type (0, 0), BuildingBlock: CIFDUS_clean_linker_0, # of connection points: 2
#     Edge 21, Type (0, 0), BuildingBlock: CIFDUS_clean_linker_0, # of connection points: 2
#     Edge 22, Type (0, 0), BuildingBlock: CIFDUS_clean_linker_0, # of connection points: 2
#     Edge 23, Type (0, 0), BuildingBlock: CIFDUS_clean_linker_0, # of connection points: 2
#     Edge 24, Type (0, 0), BuildingBlock: CIFDUS_clean_linker_0, # of connection points: 2
#     Edge 25, Type (0, 0), BuildingBlock: CIFDUS_clean_linker_0, # of connection points: 2
#     Edge 26, Type (0, 0), BuildingBlock: CIFDUS_clean_linker_0, # of connection points: 2
#     Edge 27, Type (0, 0), BuildingBlock: CIFDUS_clean_linker_0, # of connection points: 2
#     Edge 28, Type (0, 0), BuildingBlock: CIFDUS_clean_linker_0, # of connection points: 2
#     Edge 29, Type (0, 0), BuildingBlock: CIFDUS_clean_linker_0, # of connection points: 2
# Relax obj value: 0.121
# Max RMSD: 0.088
# Mean RMSD: 0.088
data_MOF--net-qtz-f--node1-WUSLED_clean_sbu_0--edge1-CIFDUS_clean_linker_0
_symmetry_space_group_name_H-M    P1
_symmetry_Int_Tables_number       1
_symmetry_cell_setting            triclinic
loop_
_symmetry_equiv_pos_as_xyz
'x, y, z'
_cell_length_a     87.666361
_cell_length_b     87.625273
_cell_length_c     52.508503
_cell_angle_alpha  89.633752
_cell_angle_beta   90.113229
_cell_angle_gamma 119.98608
loop_
_atom_site_label
_atom_site_type_symbol
_atom_site_fract_x
_atom_site_fract_y
_atom_site_fract_z
_atom_type_partial_charge
C0 C 0.10081 0.41644 0.14639 0.0
C1 C 0.09587 0.42168 0.16867 0.0
C2 C 0.06493 0.40008 0.16104 0.0
C3 C 0.07814 0.4135 0.17601 0.0
C4 C 0.07005 0.39485 0.13885 0.0
C5 C 0.08777 0.40289 0.1317 0.0
U6 U 0.14482 0.45845 0.13731 0.0
O7 O 0.17217 0.46358 0.13801 0.0
O8 O 0.16159 0.46909 0.10337 0.0
C9 C 0.17504 0.46893 0.11412 0.0
C10 C 0.11922 0.42555 0.13727 0.0
C11 C 0.18483 0.46307 0.09789 0.0
C12 C 0.18904 0.4406 0.07716 0.0
C13 C 0.17967 0.44524 0.09423 0.0
C14 C 0.20869 0.47149 0.06767 0.0
C15 C 0.20344 0.45374 0.06336 0.0
C16 C 0.19952 0.47607 0.08476 0.0
C17 C 0.14534 0.50046 0.16304 0.0
C18 C 0.16864 0.53115 0.16094 0.0
C19 C 0.13913 0.52373 0.17353 0.0
C20 C 0.13358 0.50589 0.17099 0.0
C21 C 0.15665 0.53658 0.16829 0.0
C22 C 0.16298 0.51315 0.15813 0.0
C23 C 0.13823 0.48151 0.15894 0.0
O24 O 0.12243 0.4364 0.11804 0.0
O25 O 0.13161 0.43198 0.15478 0.0
O26 O 0.14574 0.4738 0.17103 0.0
O27 O 0.1339 0.47615 0.13538 0.0
H28 H 0.10567 0.43221 0.18026 0.0
H29 H 0.07483 0.41773 0.19344 0.0
H30 H 0.06035 0.38484 0.12652 0.0
H31 H 0.09128 0.39877 0.11431 0.0
H32 H 0.18476 0.42682 0.07416 0.0
H33 H 0.16831 0.43499 0.10418 0.0
H34 H 0.21986 0.48189 0.05758 0.0
H35 H 0.20375 0.48989 0.08738 0.0
H36 H 0.18223 0.54082 0.1568 0.0
H37 H 0.12968 0.52749 0.17965 0.0
H38 H 0.11993 0.49627 0.17489 0.0
H39 H 0.17223 0.50917 0.15183 0.0
C40 C 0.67557 0.09458 0.49226 0.0
C41 C 0.66145 0.0823 0.50704 0.0
C42 C 0.66902 0.0597 0.49766 0.0
C43 C 0.65814 0.06508 0.50963 0.0
C44 C 0.68353 0.07225 0.48329 0.0
C45 C 0.68676 0.08958 0.48053 0.0
U46 U 0.69613 0.14304 0.46679 0.0
O47 O 0.72487 0.15412 0.46572 0.0
O48 O 0.70916 0.14274 0.43122 0.0
C49 C 0.72501 0.15156 0.44108 0.0
C50 C 0.6772 0.11196 0.48832 0.0
C51 C 0.73785 0.16677 0.42589 0.0
C52 C 0.76198 0.17913 0.39542 0.0
C53 C 0.75008 0.16511 0.41078 0.0
C54 C 0.7496 0.19676 0.41025 0.0
C55 C 0.76187 0.19513 0.39486 0.0
C56 C 0.73768 0.1827 0.42559 0.0
C57 C 0.66842 0.16415 0.48126 0.0
C58 C 0.65129 0.17814 0.4916 0.0
C59 C 0.63878 0.14672 0.49814 0.0
C60 C 0.65437 0.1479 0.48935 0.0
C61 C 0.63697 0.1618 0.4992 0.0
C62 C 0.66686 0.17927 0.48267 0.0
C63 C 0.68433 0.16522 0.47019 0.0
O64 O 0.6745 0.11564 0.46504 0.0
O65 O 0.69012 0.12545 0.50007 0.0
O66 O 0.69554 0.16488 0.48653 0.0
O67 O 0.68145 0.155 0.45045 0.0
H68 H 0.65259 0.0859 0.51605 0.0
H69 H 0.6466 0.05584 0.52031 0.0
H70 H 0.69231 0.06867 0.47402 0.0
H71 H 0.69773 0.09893 0.46897 0.0
H72 H 0.77138 0.17747 0.38414 0.0
H73 H 0.75038 0.1529 0.41075 0.0
H74 H 0.74897 0.20879 0.41008 0.0
H75 H 0.72822 0.18418 0.437 0.0
H76 H 0.65047 0.19005 0.49249 0.0
H77 H 0.62798 0.13387 0.5034 0.0
H78 H 0.65532 0.13605 0.48832 0.0
H79 H 0.67761 0.19193 0.47654 0.0
C80 C 0.60785 0.69105 0.80954 0.0
C81 C 0.59954 0.67466 0.82209 0.0
C82 C 0.6276 0.67518 0.82526 0.0
C83 C 0.60933 0.66679 0.82991 0.0
C84 C 0.63579 0.6917 0.81287 0.0
C85 C 0.62601 0.69953 0.80515 0.0
U86 U 0.56439 0.69033 0.7999 0.0
O87 O 0.5577 0.71146 0.80109 0.0
O88 O 0.55388 0.69655 0.76582 0.0
C89 C 0.55283 0.70935 0.77707 0.0
C90 C 0.59774 0.69916 0.79989 0.0
C91 C 0.55793 0.72539 0.76191 0.0
C92 C 0.57778 0.74946 0.7339 0.0
C93 C 0.57417 0.73478 0.7492 0.0
C94 C 0.54903 0.74534 0.74409 0.0
C95 C 0.56521 0.75492 0.73121 0.0
C96 C 0.54549 0.73084 0.75927 0.0
C97 C 0.52273 0.65004 0.82704 0.0
C98 C 0.49252 0.6427 0.81886 0.0
C99 C 0.49851 0.62304 0.84411 0.0
C100 C 0.51654 0.63453 0.84132 0.0
C101 C 0.48626 0.62684 0.83265 0.0
C102 C 0.51067 0.65426 0.81608 0.0
C103 C 0.54176 0.66085 0.82269 0.0
O104 O 0.58694 0.69072 0.78107 0.0
O105 O 0.59077 0.70461 0.81722 0.0
O106 O 0.54988 0.67608 0.83441 0.0
O107 O 0.54694 0.66165 0.79902 0.0
H108 H 0.58548 0.66789 0.82562 0.0
H109 H 0.60261 0.6542 0.83969 0.0
H110 H 0.64973 0.69845 0.80856 0.0
H111 H 0.63262 0.71213 0.79535 0.0
H112 H 0.59039 0.75657 0.72431 0.0
H113 H 0.58393 0.7307 0.75095 0.0
H114 H 0.53884 0.74882 0.74205 0.0
H115 H 0.53281 0.72365 0.76868 0.0
H116 H 0.4834 0.64603 0.80995 0.0
H117 H 0.4942 0.61081 0.85443 0.0
H118 H 0.52569 0.63105 0.84976 0.0
H119 H 0.51527 0.66623 0.80497 0.0
C120 C 0.92633 0.58808 0.16514 0.0
C121 C 0.9347 0.5898 0.18854 0.0
C122 C 0.96104 0.61609 0.17332 0.0
C123 C 0.95183 0.60357 0.19259 0.0
C124 C 0.95222 0.61487 0.15027 0.0
C125 C 0.93503 0.60095 0.14617 0.0
U126 U 0.87914 0.55809 0.13709 0.0
O127 O 0.86606 0.57405 0.13603 0.0
O128 O 0.87994 0.57248 0.10232 0.0
C129 C 0.86956 0.57786 0.11171 0.0
C130 C 0.90973 0.57156 0.16022 0.0
C131 C 0.8546 0.57467 0.09531 0.0
C132 C 0.83938 0.58644 0.07032 0.0
C133 C 0.85219 0.58879 0.08829 0.0
C134 C 0.83077 0.55561 0.06696 0.0
C135 C 0.82883 0.56991 0.05894 0.0
C136 C 0.84353 0.55796 0.08499 0.0
C137 C 0.85931 0.5085 0.14813 0.0
C138 C 0.85204 0.47802 0.14349 0.0
C139 C 0.87089 0.49556 0.17803 0.0
C140 C 0.86941 0.50997 0.16971 0.0
C141 C 0.8625 0.47949 0.16472 0.0
C142 C 0.85046 0.49239 0.13533 0.0
C143 C 0.85843 0.52374 0.13791 0.0
O144 O 0.90705 0.56564 0.13676 0.0
O145 O 0.89539 0.56936 0.17156 0.0
O146 O 0.85744 0.53428 0.15471 0.0
O147 O 0.86945 0.53223 0.11923 0.0
H148 H 0.92829 0.57993 0.20334 0.0
H149 H 0.95814 0.60376 0.21042 0.0
H150 H 0.95872 0.6244 0.13513 0.0
H151 H 0.92883 0.59991 0.12791 0.0
H152 H 0.83829 0.59774 0.06452 0.0
H153 H 0.86063 0.60178 0.09608 0.0
H154 H 0.82263 0.54264 0.05891 0.0
H155 H 0.84511 0.54686 0.09028 0.0
H156 H 0.8456 0.466 0.13252 0.0
H157 H 0.87883 0.4971 0.19469 0.0
H158 H 0.87638 0.52231 0.17988 0.0
H159 H 0.84266 0.49105 0.11857 0.0
C160 C 0.33182 0.92053 0.4789 0.0
C161 C 0.34761 0.92847 0.49281 0.0
C162 C 0.34733 0.9562 0.49372 0.0
C163 C 0.35529 0.94615 0.5002 0.0
C164 C 0.3314 0.94802 0.48003 0.0
C165 C 0.32375 0.93039 0.47276 0.0
U166 U 0.3327 0.87768 0.47031 0.0
O167 O 0.31118 0.84997 0.46959 0.0
O168 O 0.32812 0.86175 0.43602 0.0
C169 C 0.31466 0.8477 0.44601 0.0
C170 C 0.32406 0.90237 0.46939 0.0
C171 C 0.29971 0.83723 0.42887 0.0
C172 C 0.27649 0.8337 0.39974 0.0
C173 C 0.28926 0.84364 0.41821 0.0
C174 C 0.28439 0.81093 0.40301 0.0
C175 C 0.2743 0.81745 0.3915 0.0
C176 C 0.29689 0.82069 0.4215 0.0
C177 C 0.37217 0.8754 0.49833 0.0
C178 C 0.38133 0.85455 0.48567 0.0
C179 C 0.39826 0.87696 0.51692 0.0
C180 C 0.3864 0.88315 0.51519 0.0
C181 C 0.39611 0.86282 0.50178 0.0
C182 C 0.36945 0.8608 0.48393 0.0
C183 C 0.3615 0.88387 0.4944 0.0
O184 O 0.333 0.90018 0.45114 0.0
O185 O 0.31815 0.88978 0.48671 0.0
O186 O 0.34593 0.87635 0.50538 0.0
O187 O 0.36138 0.88915 0.47099 0.0
H188 H 0.35407 0.92105 0.49768 0.0
H189 H 0.36742 0.95191 0.511 0.0
H190 H 0.32502 0.95535 0.47429 0.0
H191 H 0.31164 0.92453 0.46188 0.0
H192 H 0.26888 0.83903 0.39117 0.0
H193 H 0.2913 0.85643 0.42362 0.0
H194 H 0.28283 0.79836 0.39734 0.0
H195 H 0.3048 0.81551 0.42951 0.0
H196 H 0.37917 0.84351 0.47397 0.0
H197 H 0.4096 0.88386 0.52922 0.0
H198 H 0.38875 0.8945 0.52632 0.0
H199 H 0.3585 0.85465 0.47079 0.0
C200 C 0.42123 0.33154 0.82421 0.0
C201 C 0.42986 0.34961 0.82983 0.0
C202 C 0.40148 0.34764 0.83839 0.0
C203 C 0.42004 0.3576 0.83702 0.0
C204 C 0.39315 0.32948 0.83332 0.0
C205 C 0.40292 0.32156 0.82655 0.0
U206 U 0.46013 0.32381 0.80403 0.0
O207 O 0.45876 0.29807 0.80031 0.0
O208 O 0.4616 0.31423 0.76579 0.0
C209 C 0.45987 0.29954 0.77536 0.0
C210 C 0.43016 0.32284 0.81265 0.0
C211 C 0.45974 0.28585 0.75921 0.0
C212 C 0.44874 0.2667 0.72236 0.0
C213 C 0.44792 0.27877 0.73882 0.0
C214 C 0.473 0.26844 0.74688 0.0
C215 C 0.46157 0.2617 0.72586 0.0
C216 C 0.47202 0.28034 0.76347 0.0
C217 C 0.50793 0.36099 0.8285 0.0
C218 C 0.53908 0.3736 0.81853 0.0
C219 C 0.52974 0.38719 0.85028 0.0
C220 C 0.51232 0.37411 0.84671 0.0
C221 C 0.54327 0.3874 0.83577 0.0
C222 C 0.5214 0.36048 0.81471 0.0
C223 C 0.48906 0.34968 0.82309 0.0
O224 O 0.44023 0.33073 0.79285 0.0
O225 O 0.43635 0.3152 0.82776 0.0
O226 O 0.47983 0.33451 0.83502 0.0
O227 O 0.48308 0.35043 0.80042 0.0
H228 H 0.44403 0.35758 0.82801 0.0
H229 H 0.42696 0.37155 0.84116 0.0
H230 H 0.37895 0.32136 0.83353 0.0
H231 H 0.39601 0.30765 0.82198 0.0
H232 H 0.43981 0.26186 0.70632 0.0
H233 H 0.43826 0.28281 0.73538 0.0
H234 H 0.48287 0.26469 0.75033 0.0
H235 H 0.48122 0.28565 0.77917 0.0
H236 H 0.54931 0.37351 0.80711 0.0
H237 H 0.53259 0.39755 0.86383 0.0
H238 H 0.50211 0.37473 0.85748 0.0
H239 H 0.51824 0.35043 0.8005 0.0
C240 C 0.60705 0.91984 0.53229 0.0
C241 C 0.59765 0.92849 0.52627 0.0
C242 C 0.6251 0.9563 0.5222 0.0
C243 C 0.60663 0.94662 0.52143 0.0
C244 C 0.63452 0.94749 0.52677 0.0
C245 C 0.62552 0.92935 0.53187 0.0
U246 U 0.56468 0.8763 0.54246 0.0
O247 O 0.55927 0.84887 0.54384 0.0
O248 O 0.55403 0.8605 0.57732 0.0
C249 C 0.554 0.84669 0.56772 0.0
C250 C 0.59776 0.90152 0.54169 0.0
C251 C 0.55978 0.83728 0.58501 0.0
C252 C 0.58179 0.83122 0.60329 0.0
C253 C 0.57718 0.84054 0.58592 0.0
C254 C 0.55173 0.81556 0.61879 0.0
C255 C 0.56909 0.81878 0.6201 0.0
C256 C 0.54715 0.82467 0.60144 0.0
C257 C 0.52177 0.87297 0.51774 0.0
C258 C 0.49262 0.85545 0.53632 0.0
C259 C 0.49643 0.87206 0.49748 0.0
C260 C 0.51445 0.87788 0.49781 0.0
C261 C 0.48538 0.86123 0.51717 0.0
C262 C 0.51067 0.86127 0.5366 0.0
C263 C 0.54105 0.88178 0.52001 0.0
O264 O 0.58706 0.89868 0.56089 0.0
O265 O 0.59095 0.88911 0.52434 0.0
O266 O 0.54895 0.87436 0.50844 0.0
O267 O 0.5473 0.88754 0.54288 0.0
H268 H 0.58338 0.92137 0.52652 0.0
H269 H 0.59916 0.95324 0.51812 0.0
H270 H 0.64877 0.95479 0.52772 0.0
H271 H 0.63297 0.9229 0.53658 0.0
H272 H 0.59527 0.83393 0.60391 0.0
H273 H 0.58714 0.85027 0.5734 0.0
H274 H 0.5416 0.80585 0.63116 0.0
H275 H 0.53364 0.82191 0.60094 0.0
H276 H 0.48443 0.8469 0.55154 0.0
H277 H 0.49139 0.87695 0.48259 0.0
H278 H 0.52282 0.88693 0.48313 0.0
H279 H 0.51608 0.85725 0.55212 0.0
C280 C 0.69288 0.60107 0.87178 0.0
C281 C 0.68127 0.59449 0.85103 0.0
C282 C 0.67342 0.6174 0.85648 0.0
C283 C 0.67173 0.60264 0.84335 0.0
C284 C 0.68524 0.62398 0.87711 0.0
C285 C 0.69487 0.61593 0.88459 0.0
U286 U 0.69585 0.55946 0.88 0.0
O287 O 0.71847 0.55496 0.88019 0.0
O288 O 0.70151 0.54842 0.91396 0.0
C289 C 0.71554 0.54913 0.90383 0.0
C290 C 0.70218 0.59206 0.88134 0.0
C291 C 0.73091 0.55527 0.92068 0.0
C292 C 0.75298 0.57674 0.94924 0.0
C293 C 0.73944 0.57216 0.93139 0.0
C294 C 0.74964 0.5477 0.94541 0.0
C295 C 0.7581 0.56446 0.95676 0.0
C296 C 0.73628 0.54322 0.92756 0.0
C297 C 0.65695 0.51723 0.85031 0.0
C298 C 0.6395 0.48688 0.86521 0.0
C299 C 0.63485 0.49496 0.8229 0.0
C300 C 0.64831 0.51224 0.8268 0.0
C301 C 0.62981 0.48232 0.84243 0.0
C302 C 0.65299 0.50429 0.86918 0.0
C303 C 0.66761 0.5362 0.85575 0.0
O304 O 0.69399 0.58055 0.89967 0.0
O305 O 0.70899 0.58638 0.86406 0.0
O306 O 0.68311 0.54507 0.84469 0.0
O307 O 0.66747 0.54091 0.87941 0.0
H308 H 0.67944 0.58294 0.84095 0.0
H309 H 0.66302 0.59733 0.82714 0.0
H310 H 0.68672 0.63508 0.88803 0.0
H311 H 0.70363 0.6211 0.9008 0.0
H312 H 0.75933 0.58984 0.95728 0.0
H313 H 0.73542 0.58164 0.92632 0.0
H314 H 0.75285 0.53772 0.95095 0.0
H315 H 0.72974 0.53007 0.91963 0.0
H316 H 0.63577 0.47737 0.88058 0.0
H317 H 0.6276 0.49172 0.80514 0.0
H318 H 0.65115 0.522 0.81202 0.0
H319 H 0.65952 0.50784 0.8875 0.0
C320 C 0.10065 0.67395 0.18594 0.0
C321 C 0.09129 0.6626 0.16598 0.0
C322 C 0.06585 0.66599 0.17459 0.0
C323 C 0.07414 0.65857 0.16046 0.0
C324 C 0.07549 0.67786 0.19427 0.0
C325 C 0.09276 0.68177 0.19999 0.0
U326 U 0.14849 0.69287 0.2153 0.0
O327 O 0.1616 0.72192 0.21598 0.0
O328 O 0.14869 0.70649 0.25038 0.0
C329 C 0.15835 0.72226 0.24035 0.0
C330 C 0.11777 0.67566 0.19256 0.0
C331 C 0.17299 0.73516 0.2563 0.0
C332 C 0.18541 0.76215 0.28098 0.0
C333 C 0.17292 0.75045 0.26375 0.0
C334 C 0.19882 0.74381 0.28292 0.0
C335 C 0.19832 0.75883 0.29121 0.0
C336 C 0.1862 0.73202 0.26567 0.0
C337 C 0.1667 0.66232 0.20181 0.0
C338 C 0.17994 0.64507 0.18807 0.0
C339 C 0.14822 0.63199 0.18822 0.0
C340 C 0.14997 0.64784 0.19694 0.0
C341 C 0.16318 0.6303 0.18389 0.0
C342 C 0.18166 0.66089 0.19699 0.0
C343 C 0.16867 0.67866 0.21281 0.0
O344 O 0.12035 0.67291 0.2164 0.0
O345 O 0.13196 0.68802 0.18114 0.0
O346 O 0.16968 0.69052 0.1964 0.0
O347 O 0.15829 0.67642 0.23222 0.0
H348 H 0.09707 0.65626 0.15513 0.0
H349 H 0.06718 0.64903 0.14566 0.0
H350 H 0.06964 0.68397 0.20544 0.0
H351 H 0.09976 0.69053 0.21559 0.0
H352 H 0.18482 0.77372 0.28655 0.0
H353 H 0.16287 0.75314 0.2567 0.0
H354 H 0.20854 0.74081 0.29048 0.0
H355 H 0.18647 0.72025 0.2602 0.0
H356 H 0.19177 0.64443 0.18452 0.0
H357 H 0.13507 0.62091 0.18561 0.0
H358 H 0.13823 0.64867 0.20044 0.0
H359 H 0.1947 0.67197 0.20046 0.0
C360 C 0.42168 0.09607 0.53405 0.0
C361 C 0.42872 0.09045 0.51468 0.0
C362 C 0.40516 0.06004 0.52086 0.0
C363 C 0.42047 0.07264 0.50802 0.0
C364 C 0.39808 0.06588 0.54001 0.0
C365 C 0.40624 0.08371 0.54646 0.0
U366 U 0.46409 0.13946 0.54236 0.0
O367 O 0.46993 0.16707 0.54091 0.0
O368 O 0.47492 0.1563 0.57584 0.0
C369 C 0.47476 0.16976 0.56496 0.0
C370 C 0.43096 0.11446 0.54284 0.0
C371 C 0.4679 0.17887 0.58068 0.0
C372 C 0.44983 0.17897 0.61573 0.0
C373 C 0.45404 0.16971 0.59808 0.0
C374 C 0.4726 0.20656 0.59782 0.0
C375 C 0.45944 0.1975 0.61628 0.0
C376 C 0.47679 0.19732 0.58024 0.0
C377 C 0.50598 0.13999 0.51764 0.0
C378 C 0.53606 0.16454 0.51577 0.0
C379 C 0.53027 0.13456 0.51185 0.0
C380 C 0.51229 0.12829 0.51422 0.0
C381 C 0.54237 0.15271 0.51277 0.0
C382 C 0.51793 0.1582 0.5184 0.0
C383 C 0.48694 0.13244 0.52112 0.0
O384 O 0.44171 0.11748 0.56204 0.0
O385 O 0.4377 0.12671 0.52502 0.0
O386 O 0.4793 0.1399 0.50871 0.0
O387 O 0.48128 0.12797 0.54461 0.0
H388 H 0.44074 0.09978 0.50497 0.0
H389 H 0.42617 0.06876 0.49287 0.0
H390 H 0.38651 0.05663 0.55065 0.0
H391 H 0.40073 0.08778 0.56165 0.0
H392 H 0.43964 0.1716 0.6297 0.0
H393 H 0.44699 0.15544 0.59872 0.0
H394 H 0.47998 0.22082 0.59737 0.0
H395 H 0.48748 0.20462 0.56692 0.0
H396 H 0.54514 0.1786 0.51655 0.0
H397 H 0.53472 0.12516 0.5091 0.0
H398 H 0.50325 0.11421 0.51356 0.0
H399 H 0.51327 0.16742 0.52118 0.0
C400 C 0.33092 0.41807 0.86945 0.0
C401 C 0.34029 0.42272 0.84634 0.0
C402 C 0.35071 0.40203 0.85503 0.0
C403 C 0.34997 0.41466 0.8391 0.0
C404 C 0.34109 0.39737 0.878 0.0
C405 C 0.33125 0.40521 0.88498 0.0
U406 U 0.3301 0.46051 0.87931 0.0
O407 O 0.30871 0.46682 0.87989 0.0
O408 O 0.32481 0.47092 0.91411 0.0
C409 C 0.31162 0.47183 0.90382 0.0
C410 C 0.322 0.42741 0.87894 0.0
C411 C 0.29617 0.46686 0.92011 0.0
C412 C 0.27101 0.44609 0.94568 0.0
C413 C 0.28537 0.44973 0.92975 0.0
C414 C 0.2784 0.47661 0.94237 0.0
C415 C 0.2673 0.45952 0.95194 0.0
C416 C 0.29259 0.48019 0.92665 0.0
C417 C 0.36978 0.50293 0.85351 0.0
C418 C 0.38254 0.53214 0.87186 0.0
C419 C 0.39381 0.52798 0.83198 0.0
C420 C 0.38136 0.51002 0.83281 0.0
C421 C 0.39494 0.53909 0.85197 0.0
C422 C 0.37 0.51419 0.87259 0.0
C423 C 0.35918 0.48369 0.85633 0.0
O424 O 0.33003 0.43802 0.89809 0.0
O425 O 0.31608 0.43421 0.86181 0.0
O426 O 0.34381 0.47584 0.84487 0.0
O427 O 0.35876 0.47761 0.87942 0.0
H428 H 0.3404 0.43277 0.8341 0.0
H429 H 0.35694 0.41844 0.82111 0.0
H430 H 0.34158 0.38808 0.89117 0.0
H431 H 0.3243 0.4016 0.90302 0.0
H432 H 0.2627 0.4328 0.95276 0.0
H433 H 0.28803 0.43927 0.925 0.0
H434 H 0.27622 0.48737 0.94722 0.0
H435 H 0.30088 0.49352 0.91964 0.0
H436 H 0.383 0.54045 0.88737 0.0
H437 H 0.40328 0.53291 0.81653 0.0
H438 H 0.38137 0.50151 0.81794 0.0
H439 H 0.36107 0.50897 0.88866 0.0
C440 C 0.92535 0.32718 0.20439 0.0
C441 C 0.93403 0.34439 0.19438 0.0
C442 C 0.96094 0.34296 0.18876 0.0
C443 C 0.95167 0.35221 0.18663 0.0
C444 C 0.952 0.32562 0.19847 0.0
C445 C 0.9344 0.31783 0.20615 0.0
U446 U 0.88247 0.32768 0.21364 0.0
O447 O 0.85483 0.3062 0.21435 0.0
O448 O 0.86637 0.32283 0.24806 0.0
C449 C 0.85252 0.30921 0.23816 0.0
C450 C 0.9072 0.31911 0.21422 0.0
C451 C 0.84283 0.29383 0.25515 0.0
C452 C 0.83533 0.26474 0.27109 0.0
C453 C 0.84518 0.27911 0.25469 0.0
C454 C 0.82085 0.27976 0.28847 0.0
C455 C 0.82307 0.26494 0.28826 0.0
C456 C 0.83062 0.294 0.27214 0.0
C457 C 0.88128 0.36797 0.18519 0.0
C458 C 0.85936 0.37657 0.19378 0.0
C459 C 0.88527 0.39562 0.1687 0.0
C460 C 0.89104 0.38347 0.17107 0.0
C461 C 0.86958 0.39252 0.18047 0.0
C462 C 0.86523 0.36438 0.19626 0.0
C463 C 0.88904 0.35673 0.18965 0.0
O464 O 0.90488 0.32783 0.23263 0.0
O465 O 0.89461 0.31322 0.19704 0.0
O466 O 0.88135 0.3412 0.17869 0.0
O467 O 0.89395 0.35638 0.21318 0.0
H468 H 0.92723 0.35182 0.19283 0.0
H469 H 0.95802 0.36547 0.17891 0.0
H470 H 0.95871 0.31815 0.20076 0.0
H471 H 0.92794 0.30458 0.21394 0.0
H472 H 0.83744 0.25358 0.27053 0.0
H473 H 0.85457 0.27872 0.24171 0.0
H474 H 0.81131 0.28026 0.30099 0.0
H475 H 0.82853 0.30519 0.27267 0.0
H476 H 0.84721 0.37385 0.20303 0.0
H477 H 0.89326 0.40761 0.15791 0.0
H478 H 0.90344 0.38643 0.1624 0.0
H479 H 0.85755 0.35245 0.20733 0.0
H480 H 0.25574 0.44058 0.9968 0.0
H481 H 0.24429 0.47113 0.94332 0.0
H482 H 0.22251 0.47071 0.97233 0.0
H483 H 0.2089 0.46446 0.01444 0.0
H484 H 0.2193 0.43361 0.06845 0.0
H485 H 0.23889 0.43093 0.03759 0.0
C486 C 0.2482 0.44681 0.99132 0.0
C487 C 0.25198 0.45624 0.96813 0.0
C488 C 0.23556 0.44654 0.00826 0.0
C489 C 0.24201 0.46418 0.9613 0.0
C490 C 0.22949 0.46391 0.97785 0.0
C491 C 0.2153 0.45696 0.01932 0.0
C492 C 0.21289 0.44945 0.04373 0.0
C493 C 0.22655 0.45562 1.00165 0.0
C494 C 0.22101 0.43953 0.04974 0.0
C495 C 0.23228 0.43811 0.03216 0.0
H496 H 0.77229 0.19363 0.34625 0.0
H497 H 0.77988 0.23025 0.40621 0.0
H498 H 0.79977 0.25483 0.37893 0.0
H499 H 0.81472 0.26605 0.33796 0.0
H500 H 0.80715 0.22964 0.27775 0.0
H501 H 0.78805 0.20487 0.30552 0.0
C502 C 0.77845 0.20696 0.35349 0.0
C503 C 0.77444 0.21003 0.37828 0.0
C504 C 0.78999 0.2211 0.3377 0.0
C505 C 0.78242 0.22746 0.38712 0.0
C506 C 0.79391 0.24155 0.37157 0.0
C507 C 0.80884 0.2527 0.33082 0.0
C508 C 0.81234 0.24977 0.30569 0.0
C509 C 0.79768 0.23854 0.34678 0.0
C510 C 0.80486 0.23233 0.29704 0.0
C511 C 0.79381 0.21814 0.31287 0.0
H512 H 0.56152 0.81505 0.67034 0.0
H513 H 0.58632 0.8003 0.61236 0.0
H514 H 0.58904 0.78026 0.64251 0.0
H515 H 0.581 0.76439 0.68402 0.0
H516 H 0.55664 0.78011 0.7417 0.0
H517 H 0.55699 0.80215 0.71297 0.0
C518 C 0.56769 0.80758 0.6644 0.0
C519 C 0.57348 0.80893 0.63911 0.0
C520 C 0.56904 0.79604 0.68169 0.0
C521 C 0.58175 0.79945 0.63175 0.0
C522 C 0.58319 0.78791 0.64894 0.0
C523 C 0.57612 0.77289 0.69049 0.0
C524 C 0.56839 0.77023 0.71485 0.0
C525 C 0.57641 0.78571 0.67379 0.0
C526 C 0.56219 0.78146 0.72285 0.0
C527 C 0.56245 0.79416 0.70647 0.0
H528 H 0.78273 0.55408 0.95958 0.0
H529 H 0.76375 0.58404 1.00011 0.0
H530 H 0.78421 0.58887 0.03483 0.0
H531 H 0.80648 0.58324 0.05485 0.0
H532 H 0.82424 0.55214 0.01467 0.0
H533 H 0.8048 0.54858 0.97922 0.0
C534 C 0.78289 0.56154 0.97607 0.0
C535 C 0.77154 0.56858 0.97711 0.0
C536 C 0.79431 0.56385 0.99632 0.0
C537 C 0.77242 0.57862 0.99847 0.0
C538 C 0.78401 0.58125 0.01853 0.0
C539 C 0.80615 0.57576 0.03828 0.0
C540 C 0.81671 0.56782 0.0376 0.0
C541 C 0.79488 0.57374 0.01781 0.0
C542 C 0.81602 0.5581 0.01599 0.0
C543 C 0.80501 0.55617 0.99557 0.0
H544 H 0.23372 0.77121 0.29593 0.0
H545 H 0.1904 0.77286 0.33198 0.0
H546 H 0.21002 0.79186 0.3653 0.0
H547 H 0.2395 0.80744 0.38524 0.0
H548 H 0.28255 0.80518 0.34953 0.0
H549 H 0.26316 0.78717 0.31526 0.0
C550 C 0.22855 0.77567 0.31113 0.0
C551 C 0.21058 0.7706 0.31131 0.0
C552 C 0.23992 0.78657 0.3304 0.0
C553 C 0.20421 0.77672 0.33108 0.0
C554 C 0.21541 0.78754 0.35027 0.0
C555 C 0.24462 0.80312 0.3698 0.0
C556 C 0.26241 0.80755 0.37001 0.0
C557 C 0.2333 0.79253 0.35021 0.0
C558 C 0.26885 0.80178 0.34995 0.0
C559 C 0.25778 0.79148 0.33033 0.0
H560 H 0.436 0.23249 0.70151 0.0
H561 H 0.4924 0.26595 0.70697 0.0
H562 H 0.49659 0.24885 0.6742 0.0
H563 H 0.48441 0.22507 0.64308 0.0
H564 H 0.4281 0.19186 0.6363 0.0
H565 H 0.42373 0.2082 0.67044 0.0
C566 C 0.4492 0.23607 0.69545 0.0
C567 C 0.46385 0.25051 0.70676 0.0
C568 C 0.45155 0.22629 0.67627 0.0
C569 C 0.48087 0.25478 0.69893 0.0
C570 C 0.4833 0.24509 0.68 0.0
C571 C 0.47115 0.22151 0.64884 0.0
C572 C 0.4566 0.20739 0.63692 0.0
C573 C 0.46875 0.23096 0.66837 0.0
C574 C 0.43954 0.20266 0.64516 0.0
C575 C 0.43703 0.21203 0.66463 0.0
H576 H 0.18313 0.61554 0.19816 0.0
H577 H 0.13868 0.60605 0.15134 0.0
H578 H 0.13333 0.57665 0.14163 0.0
H579 H 0.14015 0.55299 0.1482 0.0
H580 H 0.18508 0.56249 0.19351 0.0
H581 H 0.19172 0.59277 0.20129 0.0
C582 C 0.17248 0.60723 0.18542 0.0
C583 C 0.16116 0.61304 0.17591 0.0
C584 C 0.16957 0.59032 0.17958 0.0
C585 C 0.14734 0.60187 0.15958 0.0
C586 C 0.14432 0.58505 0.15382 0.0
C587 C 0.15147 0.56174 0.15967 0.0
C588 C 0.16201 0.55549 0.17052 0.0
C589 C 0.15514 0.57903 0.16409 0.0
C590 C 0.17679 0.56703 0.18494 0.0
C591 C 0.18052 0.58429 0.18951 0.0
H592 H 0.56089 0.14049 0.53834 0.0
H593 H 0.56644 0.1787 0.48159 0.0
H594 H 0.59686 0.1859 0.47352 0.0
H595 H 0.62068 0.17904 0.4797 0.0
H596 H 0.61495 0.14106 0.53724 0.0
H597 H 0.58565 0.13585 0.54756 0.0
C598 C 0.56883 0.15049 0.52433 0.0
C599 C 0.56142 0.15891 0.51034 0.0
C600 C 0.58614 0.15439 0.51967 0.0
C601 C 0.5719 0.17207 0.4926 0.0
C602 C 0.58922 0.17608 0.48787 0.0
C603 C 0.6132 0.16988 0.49486 0.0
C604 C 0.61997 0.16024 0.50735 0.0
C605 C 0.59634 0.16701 0.50088 0.0
C606 C 0.60994 0.14834 0.52682 0.0
C607 C 0.59321 0.14542 0.53288 0.0
H608 H 0.46751 0.60704 0.87335 0.0
H609 H 0.46222 0.61653 0.79397 0.0
H610 H 0.4324 0.59116 0.79357 0.0
H611 H 0.40936 0.56407 0.81441 0.0
H612 H 0.41542 0.55431 0.89341 0.0
H613 H 0.44335 0.58188 0.89527 0.0
C614 C 0.45979 0.60363 0.856 0.0
C615 C 0.4672 0.6135 0.83363 0.0
C616 C 0.44283 0.58883 0.85575 0.0
C617 C 0.45685 0.60919 0.81148 0.0
C618 C 0.43984 0.59457 0.81117 0.0
C619 C 0.41672 0.56813 0.83209 0.0
C620 C 0.41036 0.55713 0.8537 0.0
C621 C 0.43294 0.58395 0.83296 0.0
C622 C 0.41992 0.56261 0.87657 0.0
C623 C 0.43598 0.57832 0.87761 0.0
H624 H 0.89069 0.42735 0.18866 0.0
H625 H 0.83711 0.3887 0.17029 0.0
H626 H 0.82975 0.41214 0.16544 0.0
H627 H 0.83917 0.44385 0.16398 0.0
H628 H 0.89334 0.48212 0.18075 0.0
H629 H 0.89971 0.45856 0.189 0.0
C630 C 0.87739 0.42405 0.18353 0.0
C631 C 0.86453 0.40636 0.17946 0.0
C632 C 0.87335 0.43753 0.18054 0.0
C633 C 0.84725 0.40223 0.1735 0.0
C634 C 0.84307 0.41563 0.1706 0.0
C635 C 0.85238 0.44705 0.16939 0.0
C636 C 0.86574 0.46483 0.17167 0.0
C637 C 0.85611 0.43337 0.17365 0.0
C638 C 0.88269 0.46864 0.1792 0.0
C639 C 0.88643 0.45515 0.18369 0.0
H640 H 0.46139 0.85333 0.47891 0.0
H641 H 0.4681 0.86175 0.56005 0.0
H642 H 0.43986 0.86068 0.5629 0.0
H643 H 0.41495 0.86078 0.54181 0.0
H644 H 0.40908 0.85418 0.46032 0.0
H645 H 0.43502 0.85081 0.4583 0.0
C646 C 0.45661 0.85481 0.49724 0.0
C647 C 0.46698 0.85777 0.51917 0.0
C648 C 0.4405 0.85459 0.49871 0.0
C649 C 0.46039 0.8593 0.54285 0.0
C650 C 0.44428 0.85886 0.5445 0.0
C651 C 0.41929 0.85852 0.52361 0.0
C652 C 0.41016 0.85798 0.50124 0.0
C653 C 0.4345 0.85705 0.52246 0.0
C654 C 0.41573 0.85458 0.47791 0.0
C655 C 0.4307 0.85282 0.47668 0.0
H656 H 0.62294 0.44817 0.84764 0.0
H657 H 0.59841 0.47953 0.83335 0.0
H658 H 0.5697 0.453 0.83011 0.0
H659 H 0.55152 0.42113 0.83092 0.0
H660 H 0.57503 0.38876 0.84349 0.0
H661 H 0.60422 0.41533 0.84751 0.0
C662 C 0.61126 0.44907 0.84379 0.0
C663 C 0.61275 0.46573 0.84051 0.0
C664 C 0.59468 0.43363 0.84153 0.0
C665 C 0.59758 0.46683 0.83558 0.0
C666 C 0.58116 0.45169 0.8338 0.0
C667 C 0.56304 0.41989 0.83462 0.0
C668 C 0.56118 0.40308 0.83709 0.0
C669 C 0.57958 0.43507 0.83665 0.0
C670 C 0.57621 0.40161 0.84144 0.0
C671 C 0.59284 0.41678 0.84385 0.0
H672 H 0.03871 0.36585 0.15469 0.0
H673 H 0.04803 0.41593 0.1832 0.0
H674 H 0.01701 0.40278 0.19437 0.0
H675 H 0.9871 0.3771 0.19596 0.0
H676 H 0.97756 0.32762 0.16475 0.0
H677 H 1.00871 0.34064 0.15445 0.0
C678 C 0.034 0.37402 0.16303 0.0
C679 C 0.0459 0.39192 0.1681 0.0
C680 C 0.01601 0.36648 0.16891 0.0
C681 C 0.0394 0.40206 0.17946 0.0
C682 C 0.02156 0.39459 0.18566 0.0
C683 C 0.99175 0.36919 0.18659 0.0
C684 C 0.97989 0.35132 0.18133 0.0
C685 C 1.00972 0.37682 0.18042 0.0
C686 C 0.98634 0.34129 0.1695 0.0
C687 C 1.00418 0.34876 0.16345 0.0
H688 H 0.6552 0.03731 0.53825 0.0
H689 H 0.6724 0.03943 0.46066 0.0
H690 H 0.66163 1.00779 0.46192 0.0
H691 H 0.64482 0.97882 0.48397 0.0
H692 H 0.62556 0.97697 0.55999 0.0
H693 H 0.63919 1.00906 0.56023 0.0
C694 C 0.65651 0.03091 0.52147 0.0
C695 C 0.66443 0.04085 0.49929 0.0
C696 C 0.64967 0.01262 0.52196 0.0
C697 C 0.66651 0.03226 0.47811 0.0
C698 C 0.66016 0.01407 0.4787 0.0
C699 C 0.64377 0.98557 0.50055 0.0
C700 C 0.63422 0.97572 0.52193 0.0
C701 C 0.65136 1.00404 0.50033 0.0
C702 C 0.63283 0.98442 0.54335 0.0
C703 C 0.64062 1.00271 0.54349 0.0
H704 H 0.61807 0.64027 0.8232 0.0
H705 H 0.66104 0.69125 0.8447 0.0
H706 H 0.67905 0.67809 0.85512 0.0
H707 H 0.68287 0.6523 0.85772 0.0
H708 H 0.6393 0.60095 0.83908 0.0
H709 H 0.62146 0.61415 0.82775 0.0
C710 C 0.63128 0.6485 0.83049 0.0
C711 C 0.63815 0.6668 0.83292 0.0
C712 C 0.64159 0.64081 0.83677 0.0
C713 C 0.65544 0.6772 0.84211 0.0
C714 C 0.66577 0.66967 0.84823 0.0
C715 C 0.66941 0.64389 0.85151 0.0
C716 C 0.66258 0.62559 0.84924 0.0
C717 C 0.65901 0.65151 0.84554 0.0
C718 C 0.64515 0.6151 0.84059 0.0
C719 C 0.63482 0.62262 0.83432 0.0
H720 H 0.98718 0.62853 0.13737 0.0
H721 H 0.9782 0.6334 0.217 0.0
H722 H 1.00987 0.65044 0.2242 0.0
H723 H 0.04005 0.66098 0.20885 0.0
H724 H 0.04884 0.6582 0.12851 0.0
H725 H 0.01731 0.64353 0.12078 0.0
C726 C 0.99203 0.63368 0.15621 0.0
C727 C 0.98015 0.62923 0.17669 0.0
C728 C 1.0103 0.64369 0.16024 0.0
C729 C 0.98693 0.63607 0.20095 0.0
C730 C 1.00509 0.64593 0.2051 0.0
C731 C 0.03518 0.65762 0.18953 0.0
C732 C 0.04695 0.66028 0.16947 0.0
C733 C 0.01692 0.64936 0.18504 0.0
C734 C 0.04018 0.65577 0.14457 0.0
C735 C 0.02209 0.64745 0.14003 0.0
H736 H 0.37014 0.03504 0.5207 0.0
H737 H 0.42177 0.04165 0.50793 0.0
H738 H 0.40857 0.01041 0.49846 0.0
H739 H 0.38239 0.98111 0.49367 0.0
H740 H 0.33098 0.97423 0.50936 0.0
H741 H 0.34417 1.00558 0.51811 0.0
C742 C 0.37858 0.02968 0.51617 0.0
C743 C 0.39698 0.04088 0.51493 0.0
C744 C 0.37095 0.01156 0.51129 0.0
C745 C 0.40756 0.03356 0.50854 0.0
C746 C 0.40003 0.0156 0.50335 0.0
C747 C 0.37406 0.98638 0.49937 0.0
C748 C 0.35565 0.97522 0.50063 0.0
C749 C 0.38174 1.00446 0.50468 0.0
C750 C 0.34513 0.98246 0.50772 0.0
C751 C 0.35267 1.00042 0.51288 0.0
H752 H 0.40748 0.38056 0.82458 0.0
H753 H 0.37061 0.33338 0.86538 0.0
H754 H 0.35114 0.34526 0.87149 0.0
H755 H 0.34438 0.36878 0.86557 0.0
H756 H 0.38255 0.41758 0.82964 0.0
H757 H 0.40142 0.40514 0.82099 0.0
C758 C 0.39536 0.37297 0.8352 0.0
C759 C 0.39055 0.35593 0.84416 0.0
C760 C 0.38428 0.38008 0.83934 0.0
C761 C 0.37458 0.34631 0.85761 0.0
C762 C 0.36341 0.35314 0.8613 0.0
C763 C 0.35694 0.3769 0.85621 0.0
C764 C 0.36193 0.39419 0.84845 0.0
C765 C 0.3681 0.36997 0.85222 0.0
C766 C 0.37808 0.40414 0.83556 0.0
C767 C 0.38905 0.39711 0.83085 0.0
loop_
_geom_bond_atom_site_label_1
_geom_bond_atom_site_label_2
_geom_bond_distance
_geom_bond_site_symmetry_2
_ccdc_geom_bond_type
C0 C1 1.264 . S
C0 C5 1.479 . S
C0 C10 1.465 . S
C1 C0 1.264 . S
C1 C3 1.339 . S
C1 H28 0.931 . S
C2 C3 1.395 . S
C2 C4 1.320 . S
C3 C1 1.339 . S
C3 C2 1.395 . S
C3 H29 0.929 . S
C4 C2 1.320 . S
C4 C5 1.405 . S
C4 H30 0.930 . S
C5 C0 1.479 . S
C5 C4 1.405 . S
C5 H31 0.931 . S
U6 O7 2.454 . S
U6 O8 2.458 . S
U6 C9 2.984 . S
U6 C10 2.847 . S
U6 C23 2.882 . S
U6 O24 2.441 . S
U6 O25 2.420 . S
U6 O26 2.455 . S
U6 O27 2.449 . S
O7 U6 2.454 . S
O7 C9 1.353 . S
O8 U6 2.458 . S
O8 C9 1.286 . S
C9 U6 2.984 . S
C9 O7 1.353 . S
C9 O8 1.286 . S
C9 C11 1.363 . S
C10 C0 1.465 . S
C10 U6 2.847 . S
C10 O24 1.249 . S
C10 O25 1.202 . S
C11 C9 1.363 . S
C11 C13 1.408 . S
C11 C16 1.342 . S
C12 C13 1.310 . S
C12 C15 1.461 . S
C12 H32 0.932 . S
C13 C11 1.408 . S
C13 C12 1.310 . S
C13 H33 0.930 . S
C14 C15 1.474 . S
C14 C16 1.285 . S
C14 H34 0.929 . S
C15 C12 1.461 . S
C15 C14 1.474 . S
C16 C11 1.342 . S
C16 C14 1.285 . S
C16 H35 0.930 . S
C17 C20 1.424 . S
C17 C22 1.245 . S
C17 C23 1.428 . S
C18 C21 1.260 . S
C18 C22 1.477 . S
C18 H36 0.932 . S
C19 C20 1.384 . S
C19 C21 1.479 . S
C19 H37 0.929 . S
C20 C17 1.424 . S
C20 C19 1.384 . S
C20 H38 0.928 . S
C21 C18 1.260 . S
C21 C19 1.479 . S
C22 C17 1.245 . S
C22 C18 1.477 . S
C22 H39 0.932 . S
C23 U6 2.882 . S
C23 C17 1.428 . S
C23 O26 1.301 . S
C23 O27 1.282 . S
O24 U6 2.441 . S
O24 C10 1.249 . S
O25 U6 2.420 . S
O25 C10 1.202 . S
O26 U6 2.455 . S
O26 C23 1.301 . S
O27 U6 2.449 . S
O27 C23 1.282 . S
H28 C1 0.931 . S
H29 C3 0.929 . S
H30 C4 0.930 . S
H31 C5 0.931 . S
H32 C12 0.932 . S
H33 C13 0.930 . S
H34 C14 0.929 . S
H35 C16 0.930 . S
H36 C18 0.932 . S
H37 C19 0.929 . S
H38 C20 0.928 . S
H39 C22 0.932 . S
C40 C41 1.264 . S
C40 C45 1.479 . S
C40 C50 1.465 . S
C41 C40 1.264 . S
C41 C43 1.339 . S
C41 H68 0.931 . S
C42 C43 1.395 . S
C42 C44 1.320 . S
C43 C41 1.339 . S
C43 C42 1.395 . S
C43 H69 0.929 . S
C44 C42 1.320 . S
C44 C45 1.405 . S
C44 H70 0.930 . S
C45 C40 1.479 . S
C45 C44 1.405 . S
C45 H71 0.931 . S
U46 O47 2.454 . S
U46 O48 2.458 . S
U46 C49 2.984 . S
U46 C50 2.847 . S
U46 C63 2.882 . S
U46 O64 2.441 . S
U46 O65 2.420 . S
U46 O66 2.455 . S
U46 O67 2.449 . S
O47 U46 2.454 . S
O47 C49 1.353 . S
O48 U46 2.458 . S
O48 C49 1.286 . S
C49 U46 2.984 . S
C49 O47 1.353 . S
C49 O48 1.286 . S
C49 C51 1.363 . S
C50 C40 1.465 . S
C50 U46 2.847 . S
C50 O64 1.249 . S
C50 O65 1.202 . S
C51 C49 1.363 . S
C51 C53 1.408 . S
C51 C56 1.342 . S
C52 C53 1.310 . S
C52 C55 1.461 . S
C52 H72 0.932 . S
C53 C51 1.408 . S
C53 C52 1.310 . S
C53 H73 0.930 . S
C54 C55 1.474 . S
C54 C56 1.285 . S
C54 H74 0.929 . S
C55 C52 1.461 . S
C55 C54 1.474 . S
C56 C51 1.342 . S
C56 C54 1.285 . S
C56 H75 0.930 . S
C57 C60 1.424 . S
C57 C62 1.245 . S
C57 C63 1.428 . S
C58 C61 1.260 . S
C58 C62 1.477 . S
C58 H76 0.932 . S
C59 C60 1.384 . S
C59 C61 1.479 . S
C59 H77 0.929 . S
C60 C57 1.424 . S
C60 C59 1.384 . S
C60 H78 0.928 . S
C61 C58 1.260 . S
C61 C59 1.479 . S
C62 C57 1.245 . S
C62 C58 1.477 . S
C62 H79 0.932 . S
C63 U46 2.882 . S
C63 C57 1.428 . S
C63 O66 1.301 . S
C63 O67 1.282 . S
O64 U46 2.441 . S
O64 C50 1.249 . S
O65 U46 2.420 . S
O65 C50 1.202 . S
O66 U46 2.455 . S
O66 C63 1.301 . S
O67 U46 2.449 . S
O67 C63 1.282 . S
H68 C41 0.931 . S
H69 C43 0.929 . S
H70 C44 0.930 . S
H71 C45 0.931 . S
H72 C52 0.932 . S
H73 C53 0.930 . S
H74 C54 0.929 . S
H75 C56 0.930 . S
H76 C58 0.932 . S
H77 C59 0.929 . S
H78 C60 0.928 . S
H79 C62 0.932 . S
C80 C81 1.264 . S
C80 C85 1.479 . S
C80 C90 1.465 . S
C81 C80 1.264 . S
C81 C83 1.339 . S
C81 H108 0.931 . S
C82 C83 1.395 . S
C82 C84 1.320 . S
C83 C81 1.339 . S
C83 C82 1.395 . S
C83 H109 0.929 . S
C84 C82 1.320 . S
C84 C85 1.405 . S
C84 H110 0.930 . S
C85 C80 1.479 . S
C85 C84 1.405 . S
C85 H111 0.931 . S
U86 O87 2.454 . S
U86 O88 2.458 . S
U86 C89 2.984 . S
U86 C90 2.847 . S
U86 C103 2.882 . S
U86 O104 2.441 . S
U86 O105 2.420 . S
U86 O106 2.455 . S
U86 O107 2.449 . S
O87 U86 2.454 . S
O87 C89 1.353 . S
O88 U86 2.458 . S
O88 C89 1.286 . S
C89 U86 2.984 . S
C89 O87 1.353 . S
C89 O88 1.286 . S
C89 C91 1.363 . S
C90 C80 1.465 . S
C90 U86 2.847 . S
C90 O104 1.249 . S
C90 O105 1.202 . S
C91 C89 1.363 . S
C91 C93 1.408 . S
C91 C96 1.342 . S
C92 C93 1.310 . S
C92 C95 1.461 . S
C92 H112 0.932 . S
C93 C91 1.408 . S
C93 C92 1.310 . S
C93 H113 0.930 . S
C94 C95 1.474 . S
C94 C96 1.285 . S
C94 H114 0.929 . S
C95 C92 1.461 . S
C95 C94 1.474 . S
C96 C91 1.342 . S
C96 C94 1.285 . S
C96 H115 0.930 . S
C97 C100 1.424 . S
C97 C102 1.245 . S
C97 C103 1.428 . S
C98 C101 1.260 . S
C98 C102 1.477 . S
C98 H116 0.932 . S
C99 C100 1.384 . S
C99 C101 1.479 . S
C99 H117 0.929 . S
C100 C97 1.424 . S
C100 C99 1.384 . S
C100 H118 0.928 . S
C101 C98 1.260 . S
C101 C99 1.479 . S
C102 C97 1.245 . S
C102 C98 1.477 . S
C102 H119 0.932 . S
C103 U86 2.882 . S
C103 C97 1.428 . S
C103 O106 1.301 . S
C103 O107 1.282 . S
O104 U86 2.441 . S
O104 C90 1.249 . S
O105 U86 2.420 . S
O105 C90 1.202 . S
O106 U86 2.455 . S
O106 C103 1.301 . S
O107 U86 2.449 . S
O107 C103 1.282 . S
H108 C81 0.931 . S
H109 C83 0.929 . S
H110 C84 0.930 . S
H111 C85 0.931 . S
H112 C92 0.932 . S
H113 C93 0.930 . S
H114 C94 0.929 . S
H115 C96 0.930 . S
H116 C98 0.932 . S
H117 C99 0.929 . S
H118 C100 0.928 . S
H119 C102 0.932 . S
C120 C121 1.264 . S
C120 C125 1.479 . S
C120 C130 1.465 . S
C121 C120 1.264 . S
C121 C123 1.339 . S
C121 H148 0.931 . S
C122 C123 1.395 . S
C122 C124 1.320 . S
C123 C121 1.339 . S
C123 C122 1.395 . S
C123 H149 0.929 . S
C124 C122 1.320 . S
C124 C125 1.405 . S
C124 H150 0.930 . S
C125 C120 1.479 . S
C125 C124 1.405 . S
C125 H151 0.931 . S
U126 O127 2.454 . S
U126 O128 2.458 . S
U126 C129 2.984 . S
U126 C130 2.847 . S
U126 C143 2.882 . S
U126 O144 2.441 . S
U126 O145 2.420 . S
U126 O146 2.455 . S
U126 O147 2.449 . S
O127 U126 2.454 . S
O127 C129 1.353 . S
O128 U126 2.458 . S
O128 C129 1.286 . S
C129 U126 2.984 . S
C129 O127 1.353 . S
C129 O128 1.286 . S
C129 C131 1.363 . S
C130 C120 1.465 . S
C130 U126 2.847 . S
C130 O144 1.249 . S
C130 O145 1.202 . S
C131 C129 1.363 . S
C131 C133 1.408 . S
C131 C136 1.342 . S
C132 C133 1.310 . S
C132 C135 1.461 . S
C132 H152 0.932 . S
C133 C131 1.408 . S
C133 C132 1.310 . S
C133 H153 0.930 . S
C134 C135 1.474 . S
C134 C136 1.285 . S
C134 H154 0.929 . S
C135 C132 1.461 . S
C135 C134 1.474 . S
C136 C131 1.342 . S
C136 C134 1.285 . S
C136 H155 0.930 . S
C137 C140 1.424 . S
C137 C142 1.245 . S
C137 C143 1.428 . S
C138 C141 1.260 . S
C138 C142 1.477 . S
C138 H156 0.932 . S
C139 C140 1.384 . S
C139 C141 1.479 . S
C139 H157 0.929 . S
C140 C137 1.424 . S
C140 C139 1.384 . S
C140 H158 0.928 . S
C141 C138 1.260 . S
C141 C139 1.479 . S
C142 C137 1.245 . S
C142 C138 1.477 . S
C142 H159 0.932 . S
C143 U126 2.882 . S
C143 C137 1.428 . S
C143 O146 1.301 . S
C143 O147 1.282 . S
O144 U126 2.441 . S
O144 C130 1.249 . S
O145 U126 2.420 . S
O145 C130 1.202 . S
O146 U126 2.455 . S
O146 C143 1.301 . S
O147 U126 2.449 . S
O147 C143 1.282 . S
H148 C121 0.931 . S
H149 C123 0.929 . S
H150 C124 0.930 . S
H151 C125 0.931 . S
H152 C132 0.932 . S
H153 C133 0.930 . S
H154 C134 0.929 . S
H155 C136 0.930 . S
H156 C138 0.932 . S
H157 C139 0.929 . S
H158 C140 0.928 . S
H159 C142 0.932 . S
C160 C161 1.264 . S
C160 C165 1.479 . S
C160 C170 1.465 . S
C161 C160 1.264 . S
C161 C163 1.339 . S
C161 H188 0.931 . S
C162 C163 1.395 . S
C162 C164 1.320 . S
C163 C161 1.339 . S
C163 C162 1.395 . S
C163 H189 0.929 . S
C164 C162 1.320 . S
C164 C165 1.405 . S
C164 H190 0.930 . S
C165 C160 1.479 . S
C165 C164 1.405 . S
C165 H191 0.931 . S
U166 O167 2.454 . S
U166 O168 2.458 . S
U166 C169 2.984 . S
U166 C170 2.847 . S
U166 C183 2.882 . S
U166 O184 2.441 . S
U166 O185 2.420 . S
U166 O186 2.455 . S
U166 O187 2.449 . S
O167 U166 2.454 . S
O167 C169 1.353 . S
O168 U166 2.458 . S
O168 C169 1.286 . S
C169 U166 2.984 . S
C169 O167 1.353 . S
C169 O168 1.286 . S
C169 C171 1.363 . S
C170 C160 1.465 . S
C170 U166 2.847 . S
C170 O184 1.249 . S
C170 O185 1.202 . S
C171 C169 1.363 . S
C171 C173 1.408 . S
C171 C176 1.342 . S
C172 C173 1.310 . S
C172 C175 1.461 . S
C172 H192 0.932 . S
C173 C171 1.408 . S
C173 C172 1.310 . S
C173 H193 0.930 . S
C174 C175 1.474 . S
C174 C176 1.285 . S
C174 H194 0.929 . S
C175 C172 1.461 . S
C175 C174 1.474 . S
C176 C171 1.342 . S
C176 C174 1.285 . S
C176 H195 0.930 . S
C177 C180 1.424 . S
C177 C182 1.245 . S
C177 C183 1.428 . S
C178 C181 1.260 . S
C178 C182 1.477 . S
C178 H196 0.932 . S
C179 C180 1.384 . S
C179 C181 1.479 . S
C179 H197 0.929 . S
C180 C177 1.424 . S
C180 C179 1.384 . S
C180 H198 0.928 . S
C181 C178 1.260 . S
C181 C179 1.479 . S
C182 C177 1.245 . S
C182 C178 1.477 . S
C182 H199 0.932 . S
C183 U166 2.882 . S
C183 C177 1.428 . S
C183 O186 1.301 . S
C183 O187 1.282 . S
O184 U166 2.441 . S
O184 C170 1.249 . S
O185 U166 2.420 . S
O185 C170 1.202 . S
O186 U166 2.455 . S
O186 C183 1.301 . S
O187 U166 2.449 . S
O187 C183 1.282 . S
H188 C161 0.931 . S
H189 C163 0.929 . S
H190 C164 0.930 . S
H191 C165 0.931 . S
H192 C172 0.932 . S
H193 C173 0.930 . S
H194 C174 0.929 . S
H195 C176 0.930 . S
H196 C178 0.932 . S
H197 C179 0.929 . S
H198 C180 0.928 . S
H199 C182 0.932 . S
C200 C201 1.264 . S
C200 C205 1.479 . S
C200 C210 1.465 . S
C201 C200 1.264 . S
C201 C203 1.339 . S
C201 H228 0.931 . S
C202 C203 1.395 . S
C202 C204 1.320 . S
C203 C201 1.339 . S
C203 C202 1.395 . S
C203 H229 0.929 . S
C204 C202 1.320 . S
C204 C205 1.405 . S
C204 H230 0.930 . S
C205 C200 1.479 . S
C205 C204 1.405 . S
C205 H231 0.931 . S
U206 O207 2.454 . S
U206 O208 2.458 . S
U206 C209 2.984 . S
U206 C210 2.847 . S
U206 C223 2.882 . S
U206 O224 2.441 . S
U206 O225 2.420 . S
U206 O226 2.455 . S
U206 O227 2.449 . S
O207 U206 2.454 . S
O207 C209 1.353 . S
O208 U206 2.458 . S
O208 C209 1.286 . S
C209 U206 2.984 . S
C209 O207 1.353 . S
C209 O208 1.286 . S
C209 C211 1.363 . S
C210 C200 1.465 . S
C210 U206 2.847 . S
C210 O224 1.249 . S
C210 O225 1.202 . S
C211 C209 1.363 . S
C211 C213 1.408 . S
C211 C216 1.342 . S
C212 C213 1.310 . S
C212 C215 1.461 . S
C212 H232 0.932 . S
C213 C211 1.408 . S
C213 C212 1.310 . S
C213 H233 0.930 . S
C214 C215 1.474 . S
C214 C216 1.285 . S
C214 H234 0.929 . S
C215 C212 1.461 . S
C215 C214 1.474 . S
C216 C211 1.342 . S
C216 C214 1.285 . S
C216 H235 0.930 . S
C217 C220 1.424 . S
C217 C222 1.245 . S
C217 C223 1.428 . S
C218 C221 1.260 . S
C218 C222 1.477 . S
C218 H236 0.932 . S
C219 C220 1.384 . S
C219 C221 1.479 . S
C219 H237 0.929 . S
C220 C217 1.424 . S
C220 C219 1.384 . S
C220 H238 0.928 . S
C221 C218 1.260 . S
C221 C219 1.479 . S
C222 C217 1.245 . S
C222 C218 1.477 . S
C222 H239 0.932 . S
C223 U206 2.882 . S
C223 C217 1.428 . S
C223 O226 1.301 . S
C223 O227 1.282 . S
O224 U206 2.441 . S
O224 C210 1.249 . S
O225 U206 2.420 . S
O225 C210 1.202 . S
O226 U206 2.455 . S
O226 C223 1.301 . S
O227 U206 2.449 . S
O227 C223 1.282 . S
H228 C201 0.931 . S
H229 C203 0.929 . S
H230 C204 0.930 . S
H231 C205 0.931 . S
H232 C212 0.932 . S
H233 C213 0.930 . S
H234 C214 0.929 . S
H235 C216 0.930 . S
H236 C218 0.932 . S
H237 C219 0.929 . S
H238 C220 0.928 . S
H239 C222 0.932 . S
C240 C241 1.264 . S
C240 C245 1.479 . S
C240 C250 1.465 . S
C241 C240 1.264 . S
C241 C243 1.339 . S
C241 H268 0.931 . S
C242 C243 1.395 . S
C242 C244 1.320 . S
C243 C241 1.339 . S
C243 C242 1.395 . S
C243 H269 0.929 . S
C244 C242 1.320 . S
C244 C245 1.405 . S
C244 H270 0.930 . S
C245 C240 1.479 . S
C245 C244 1.405 . S
C245 H271 0.931 . S
U246 O247 2.454 . S
U246 O248 2.458 . S
U246 C249 2.984 . S
U246 C250 2.847 . S
U246 C263 2.882 . S
U246 O264 2.441 . S
U246 O265 2.420 . S
U246 O266 2.455 . S
U246 O267 2.449 . S
O247 U246 2.454 . S
O247 C249 1.353 . S
O248 U246 2.458 . S
O248 C249 1.286 . S
C249 U246 2.984 . S
C249 O247 1.353 . S
C249 O248 1.286 . S
C249 C251 1.363 . S
C250 C240 1.465 . S
C250 U246 2.847 . S
C250 O264 1.249 . S
C250 O265 1.202 . S
C251 C249 1.363 . S
C251 C253 1.408 . S
C251 C256 1.342 . S
C252 C253 1.310 . S
C252 C255 1.461 . S
C252 H272 0.932 . S
C253 C251 1.408 . S
C253 C252 1.310 . S
C253 H273 0.930 . S
C254 C255 1.474 . S
C254 C256 1.285 . S
C254 H274 0.929 . S
C255 C252 1.461 . S
C255 C254 1.474 . S
C256 C251 1.342 . S
C256 C254 1.285 . S
C256 H275 0.930 . S
C257 C260 1.424 . S
C257 C262 1.245 . S
C257 C263 1.428 . S
C258 C261 1.260 . S
C258 C262 1.477 . S
C258 H276 0.932 . S
C259 C260 1.384 . S
C259 C261 1.479 . S
C259 H277 0.929 . S
C260 C257 1.424 . S
C260 C259 1.384 . S
C260 H278 0.928 . S
C261 C258 1.260 . S
C261 C259 1.479 . S
C262 C257 1.245 . S
C262 C258 1.477 . S
C262 H279 0.932 . S
C263 U246 2.882 . S
C263 C257 1.428 . S
C263 O266 1.301 . S
C263 O267 1.282 . S
O264 U246 2.441 . S
O264 C250 1.249 . S
O265 U246 2.420 . S
O265 C250 1.202 . S
O266 U246 2.455 . S
O266 C263 1.301 . S
O267 U246 2.449 . S
O267 C263 1.282 . S
H268 C241 0.931 . S
H269 C243 0.929 . S
H270 C244 0.930 . S
H271 C245 0.931 . S
H272 C252 0.932 . S
H273 C253 0.930 . S
H274 C254 0.929 . S
H275 C256 0.930 . S
H276 C258 0.932 . S
H277 C259 0.929 . S
H278 C260 0.928 . S
H279 C262 0.932 . S
C280 C281 1.264 . S
C280 C285 1.479 . S
C280 C290 1.465 . S
C281 C280 1.264 . S
C281 C283 1.339 . S
C281 H308 0.931 . S
C282 C283 1.395 . S
C282 C284 1.320 . S
C283 C281 1.339 . S
C283 C282 1.395 . S
C283 H309 0.929 . S
C284 C282 1.320 . S
C284 C285 1.405 . S
C284 H310 0.930 . S
C285 C280 1.479 . S
C285 C284 1.405 . S
C285 H311 0.931 . S
U286 O287 2.454 . S
U286 O288 2.458 . S
U286 C289 2.984 . S
U286 C290 2.847 . S
U286 C303 2.882 . S
U286 O304 2.441 . S
U286 O305 2.420 . S
U286 O306 2.455 . S
U286 O307 2.449 . S
O287 U286 2.454 . S
O287 C289 1.353 . S
O288 U286 2.458 . S
O288 C289 1.286 . S
C289 U286 2.984 . S
C289 O287 1.353 . S
C289 O288 1.286 . S
C289 C291 1.363 . S
C290 C280 1.465 . S
C290 U286 2.847 . S
C290 O304 1.249 . S
C290 O305 1.202 . S
C291 C289 1.363 . S
C291 C293 1.408 . S
C291 C296 1.342 . S
C292 C293 1.310 . S
C292 C295 1.461 . S
C292 H312 0.932 . S
C293 C291 1.408 . S
C293 C292 1.310 . S
C293 H313 0.930 . S
C294 C295 1.474 . S
C294 C296 1.285 . S
C294 H314 0.929 . S
C295 C292 1.461 . S
C295 C294 1.474 . S
C296 C291 1.342 . S
C296 C294 1.285 . S
C296 H315 0.930 . S
C297 C300 1.424 . S
C297 C302 1.245 . S
C297 C303 1.428 . S
C298 C301 1.260 . S
C298 C302 1.477 . S
C298 H316 0.932 . S
C299 C300 1.384 . S
C299 C301 1.479 . S
C299 H317 0.929 . S
C300 C297 1.424 . S
C300 C299 1.384 . S
C300 H318 0.928 . S
C301 C298 1.260 . S
C301 C299 1.479 . S
C302 C297 1.245 . S
C302 C298 1.477 . S
C302 H319 0.932 . S
C303 U286 2.882 . S
C303 C297 1.428 . S
C303 O306 1.301 . S
C303 O307 1.282 . S
O304 U286 2.441 . S
O304 C290 1.249 . S
O305 U286 2.420 . S
O305 C290 1.202 . S
O306 U286 2.455 . S
O306 C303 1.301 . S
O307 U286 2.449 . S
O307 C303 1.282 . S
H308 C281 0.931 . S
H309 C283 0.929 . S
H310 C284 0.930 . S
H311 C285 0.931 . S
H312 C292 0.932 . S
H313 C293 0.930 . S
H314 C294 0.929 . S
H315 C296 0.930 . S
H316 C298 0.932 . S
H317 C299 0.929 . S
H318 C300 0.928 . S
H319 C302 0.932 . S
C320 C321 1.264 . S
C320 C325 1.479 . S
C320 C330 1.465 . S
C321 C320 1.264 . S
C321 C323 1.339 . S
C321 H348 0.931 . S
C322 C323 1.395 . S
C322 C324 1.320 . S
C323 C321 1.339 . S
C323 C322 1.395 . S
C323 H349 0.929 . S
C324 C322 1.320 . S
C324 C325 1.405 . S
C324 H350 0.930 . S
C325 C320 1.479 . S
C325 C324 1.405 . S
C325 H351 0.931 . S
U326 O327 2.454 . S
U326 O328 2.458 . S
U326 C329 2.984 . S
U326 C330 2.847 . S
U326 C343 2.882 . S
U326 O344 2.441 . S
U326 O345 2.420 . S
U326 O346 2.455 . S
U326 O347 2.449 . S
O327 U326 2.454 . S
O327 C329 1.353 . S
O328 U326 2.458 . S
O328 C329 1.286 . S
C329 U326 2.984 . S
C329 O327 1.353 . S
C329 O328 1.286 . S
C329 C331 1.363 . S
C330 C320 1.465 . S
C330 U326 2.847 . S
C330 O344 1.249 . S
C330 O345 1.202 . S
C331 C329 1.363 . S
C331 C333 1.408 . S
C331 C336 1.342 . S
C332 C333 1.310 . S
C332 C335 1.461 . S
C332 H352 0.932 . S
C333 C331 1.408 . S
C333 C332 1.310 . S
C333 H353 0.930 . S
C334 C335 1.474 . S
C334 C336 1.285 . S
C334 H354 0.929 . S
C335 C332 1.461 . S
C335 C334 1.474 . S
C336 C331 1.342 . S
C336 C334 1.285 . S
C336 H355 0.930 . S
C337 C340 1.424 . S
C337 C342 1.245 . S
C337 C343 1.428 . S
C338 C341 1.260 . S
C338 C342 1.477 . S
C338 H356 0.932 . S
C339 C340 1.384 . S
C339 C341 1.479 . S
C339 H357 0.929 . S
C340 C337 1.424 . S
C340 C339 1.384 . S
C340 H358 0.928 . S
C341 C338 1.260 . S
C341 C339 1.479 . S
C342 C337 1.245 . S
C342 C338 1.477 . S
C342 H359 0.932 . S
C343 U326 2.882 . S
C343 C337 1.428 . S
C343 O346 1.301 . S
C343 O347 1.282 . S
O344 U326 2.441 . S
O344 C330 1.249 . S
O345 U326 2.420 . S
O345 C330 1.202 . S
O346 U326 2.455 . S
O346 C343 1.301 . S
O347 U326 2.449 . S
O347 C343 1.282 . S
H348 C321 0.931 . S
H349 C323 0.929 . S
H350 C324 0.930 . S
H351 C325 0.931 . S
H352 C332 0.932 . S
H353 C333 0.930 . S
H354 C334 0.929 . S
H355 C336 0.930 . S
H356 C338 0.932 . S
H357 C339 0.929 . S
H358 C340 0.928 . S
H359 C342 0.932 . S
C360 C361 1.264 . S
C360 C365 1.479 . S
C360 C370 1.465 . S
C361 C360 1.264 . S
C361 C363 1.339 . S
C361 H388 0.931 . S
C362 C363 1.395 . S
C362 C364 1.320 . S
C363 C361 1.339 . S
C363 C362 1.395 . S
C363 H389 0.929 . S
C364 C362 1.320 . S
C364 C365 1.405 . S
C364 H390 0.930 . S
C365 C360 1.479 . S
C365 C364 1.405 . S
C365 H391 0.931 . S
U366 O367 2.454 . S
U366 O368 2.458 . S
U366 C369 2.984 . S
U366 C370 2.847 . S
U366 C383 2.882 . S
U366 O384 2.441 . S
U366 O385 2.420 . S
U366 O386 2.455 . S
U366 O387 2.449 . S
O367 U366 2.454 . S
O367 C369 1.353 . S
O368 U366 2.458 . S
O368 C369 1.286 . S
C369 U366 2.984 . S
C369 O367 1.353 . S
C369 O368 1.286 . S
C369 C371 1.363 . S
C370 C360 1.465 . S
C370 U366 2.847 . S
C370 O384 1.249 . S
C370 O385 1.202 . S
C371 C369 1.363 . S
C371 C373 1.408 . S
C371 C376 1.342 . S
C372 C373 1.310 . S
C372 C375 1.461 . S
C372 H392 0.932 . S
C373 C371 1.408 . S
C373 C372 1.310 . S
C373 H393 0.930 . S
C374 C375 1.474 . S
C374 C376 1.285 . S
C374 H394 0.929 . S
C375 C372 1.461 . S
C375 C374 1.474 . S
C376 C371 1.342 . S
C376 C374 1.285 . S
C376 H395 0.930 . S
C377 C380 1.424 . S
C377 C382 1.245 . S
C377 C383 1.428 . S
C378 C381 1.260 . S
C378 C382 1.477 . S
C378 H396 0.932 . S
C379 C380 1.384 . S
C379 C381 1.479 . S
C379 H397 0.929 . S
C380 C377 1.424 . S
C380 C379 1.384 . S
C380 H398 0.928 . S
C381 C378 1.260 . S
C381 C379 1.479 . S
C382 C377 1.245 . S
C382 C378 1.477 . S
C382 H399 0.932 . S
C383 U366 2.882 . S
C383 C377 1.428 . S
C383 O386 1.301 . S
C383 O387 1.282 . S
O384 U366 2.441 . S
O384 C370 1.249 . S
O385 U366 2.420 . S
O385 C370 1.202 . S
O386 U366 2.455 . S
O386 C383 1.301 . S
O387 U366 2.449 . S
O387 C383 1.282 . S
H388 C361 0.931 . S
H389 C363 0.929 . S
H390 C364 0.930 . S
H391 C365 0.931 . S
H392 C372 0.932 . S
H393 C373 0.930 . S
H394 C374 0.929 . S
H395 C376 0.930 . S
H396 C378 0.932 . S
H397 C379 0.929 . S
H398 C380 0.928 . S
H399 C382 0.932 . S
C400 C401 1.264 . S
C400 C405 1.479 . S
C400 C410 1.465 . S
C401 C400 1.264 . S
C401 C403 1.339 . S
C401 H428 0.931 . S
C402 C403 1.395 . S
C402 C404 1.320 . S
C403 C401 1.339 . S
C403 C402 1.395 . S
C403 H429 0.929 . S
C404 C402 1.320 . S
C404 C405 1.405 . S
C404 H430 0.930 . S
C405 C400 1.479 . S
C405 C404 1.405 . S
C405 H431 0.931 . S
U406 O407 2.454 . S
U406 O408 2.458 . S
U406 C409 2.984 . S
U406 C410 2.847 . S
U406 C423 2.882 . S
U406 O424 2.441 . S
U406 O425 2.420 . S
U406 O426 2.455 . S
U406 O427 2.449 . S
O407 U406 2.454 . S
O407 C409 1.353 . S
O408 U406 2.458 . S
O408 C409 1.286 . S
C409 U406 2.984 . S
C409 O407 1.353 . S
C409 O408 1.286 . S
C409 C411 1.363 . S
C410 C400 1.465 . S
C410 U406 2.847 . S
C410 O424 1.249 . S
C410 O425 1.202 . S
C411 C409 1.363 . S
C411 C413 1.408 . S
C411 C416 1.342 . S
C412 C413 1.310 . S
C412 C415 1.461 . S
C412 H432 0.932 . S
C413 C411 1.408 . S
C413 C412 1.310 . S
C413 H433 0.930 . S
C414 C415 1.474 . S
C414 C416 1.285 . S
C414 H434 0.929 . S
C415 C412 1.461 . S
C415 C414 1.474 . S
C416 C411 1.342 . S
C416 C414 1.285 . S
C416 H435 0.930 . S
C417 C420 1.424 . S
C417 C422 1.245 . S
C417 C423 1.428 . S
C418 C421 1.260 . S
C418 C422 1.477 . S
C418 H436 0.932 . S
C419 C420 1.384 . S
C419 C421 1.479 . S
C419 H437 0.929 . S
C420 C417 1.424 . S
C420 C419 1.384 . S
C420 H438 0.928 . S
C421 C418 1.260 . S
C421 C419 1.479 . S
C422 C417 1.245 . S
C422 C418 1.477 . S
C422 H439 0.932 . S
C423 U406 2.882 . S
C423 C417 1.428 . S
C423 O426 1.301 . S
C423 O427 1.282 . S
O424 U406 2.441 . S
O424 C410 1.249 . S
O425 U406 2.420 . S
O425 C410 1.202 . S
O426 U406 2.455 . S
O426 C423 1.301 . S
O427 U406 2.449 . S
O427 C423 1.282 . S
H428 C401 0.931 . S
H429 C403 0.929 . S
H430 C404 0.930 . S
H431 C405 0.931 . S
H432 C412 0.932 . S
H433 C413 0.930 . S
H434 C414 0.929 . S
H435 C416 0.930 . S
H436 C418 0.932 . S
H437 C419 0.929 . S
H438 C420 0.928 . S
H439 C422 0.932 . S
C440 C441 1.264 . S
C440 C445 1.479 . S
C440 C450 1.465 . S
C441 C440 1.264 . S
C441 C443 1.339 . S
C441 H468 0.931 . S
C442 C443 1.395 . S
C442 C444 1.320 . S
C443 C441 1.339 . S
C443 C442 1.395 . S
C443 H469 0.929 . S
C444 C442 1.320 . S
C444 C445 1.405 . S
C444 H470 0.930 . S
C445 C440 1.479 . S
C445 C444 1.405 . S
C445 H471 0.931 . S
U446 O447 2.454 . S
U446 O448 2.458 . S
U446 C449 2.984 . S
U446 C450 2.847 . S
U446 C463 2.882 . S
U446 O464 2.441 . S
U446 O465 2.420 . S
U446 O466 2.455 . S
U446 O467 2.449 . S
O447 U446 2.454 . S
O447 C449 1.353 . S
O448 U446 2.458 . S
O448 C449 1.286 . S
C449 U446 2.984 . S
C449 O447 1.353 . S
C449 O448 1.286 . S
C449 C451 1.363 . S
C450 C440 1.465 . S
C450 U446 2.847 . S
C450 O464 1.249 . S
C450 O465 1.202 . S
C451 C449 1.363 . S
C451 C453 1.408 . S
C451 C456 1.342 . S
C452 C453 1.310 . S
C452 C455 1.461 . S
C452 H472 0.932 . S
C453 C451 1.408 . S
C453 C452 1.310 . S
C453 H473 0.930 . S
C454 C455 1.474 . S
C454 C456 1.285 . S
C454 H474 0.929 . S
C455 C452 1.461 . S
C455 C454 1.474 . S
C456 C451 1.342 . S
C456 C454 1.285 . S
C456 H475 0.930 . S
C457 C460 1.424 . S
C457 C462 1.245 . S
C457 C463 1.428 . S
C458 C461 1.260 . S
C458 C462 1.477 . S
C458 H476 0.932 . S
C459 C460 1.384 . S
C459 C461 1.479 . S
C459 H477 0.929 . S
C460 C457 1.424 . S
C460 C459 1.384 . S
C460 H478 0.928 . S
C461 C458 1.260 . S
C461 C459 1.479 . S
C462 C457 1.245 . S
C462 C458 1.477 . S
C462 H479 0.932 . S
C463 U446 2.882 . S
C463 C457 1.428 . S
C463 O466 1.301 . S
C463 O467 1.282 . S
O464 U446 2.441 . S
O464 C450 1.249 . S
O465 U446 2.420 . S
O465 C450 1.202 . S
O466 U446 2.455 . S
O466 C463 1.301 . S
O467 U446 2.449 . S
O467 C463 1.282 . S
H468 C441 0.931 . S
H469 C443 0.929 . S
H470 C444 0.930 . S
H471 C445 0.931 . S
H472 C452 0.932 . S
H473 C453 0.930 . S
H474 C454 0.929 . S
H475 C456 0.930 . S
H476 C458 0.932 . S
H477 C459 0.929 . S
H478 C460 0.928 . S
H479 C462 0.932 . S
H480 C486 0.930 . S
H481 C489 0.930 . S
H482 C490 0.930 . S
H483 C491 0.930 . S
H484 C494 0.930 . S
H485 C495 0.930 . S
C486 H480 0.930 . S
C486 C487 1.355 . S
C486 C488 1.415 . S
C487 C486 1.355 . S
C487 C489 1.419 . S
C488 C486 1.415 . S
C488 C493 1.425 1_556 S
C488 C495 1.409 1_556 S
C489 H481 0.930 . S
C489 C487 1.419 . S
C489 C490 1.362 . S
C490 H482 0.930 . S
C490 C489 1.362 . S
C490 C493 1.409 1_556 S
C491 H483 0.930 . S
C491 C492 1.355 . S
C491 C493 1.415 . S
C492 C491 1.355 . S
C492 C494 1.419 . S
C493 C488 1.425 1_554 S
C493 C490 1.409 1_554 S
C493 C491 1.415 . S
C494 H484 0.930 . S
C494 C492 1.419 . S
C494 C495 1.362 . S
C495 H485 0.930 . S
C495 C488 1.409 1_554 S
C495 C494 1.362 . S
H496 C502 0.930 . S
H497 C505 0.930 . S
H498 C506 0.930 . S
H499 C507 0.930 . S
H500 C510 0.930 . S
H501 C511 0.930 . S
C502 H496 0.930 . S
C502 C503 1.355 . S
C502 C504 1.415 . S
C503 C502 1.355 . S
C503 C505 1.419 . S
C504 C502 1.415 . S
C504 C509 1.425 . S
C504 C511 1.409 . S
C505 H497 0.930 . S
C505 C503 1.419 . S
C505 C506 1.362 . S
C506 H498 0.930 . S
C506 C505 1.362 . S
C506 C509 1.409 . S
C507 H499 0.930 . S
C507 C508 1.355 . S
C507 C509 1.415 . S
C508 C507 1.355 . S
C508 C510 1.419 . S
C509 C504 1.425 . S
C509 C506 1.409 . S
C509 C507 1.415 . S
C510 H500 0.930 . S
C510 C508 1.419 . S
C510 C511 1.362 . S
C511 H501 0.930 . S
C511 C504 1.409 . S
C511 C510 1.362 . S
H512 C518 0.930 . S
H513 C521 0.930 . S
H514 C522 0.930 . S
H515 C523 0.930 . S
H516 C526 0.930 . S
H517 C527 0.930 . S
C518 H512 0.930 . S
C518 C519 1.355 . S
C518 C520 1.415 . S
C519 C518 1.355 . S
C519 C521 1.419 . S
C520 C518 1.415 . S
C520 C525 1.425 . S
C520 C527 1.409 . S
C521 H513 0.930 . S
C521 C519 1.419 . S
C521 C522 1.362 . S
C522 H514 0.930 . S
C522 C521 1.362 . S
C522 C525 1.409 . S
C523 H515 0.930 . S
C523 C524 1.355 . S
C523 C525 1.415 . S
C524 C523 1.355 . S
C524 C526 1.419 . S
C525 C520 1.425 . S
C525 C522 1.409 . S
C525 C523 1.415 . S
C526 H516 0.930 . S
C526 C524 1.419 . S
C526 C527 1.362 . S
C527 H517 0.930 . S
C527 C520 1.409 . S
C527 C526 1.362 . S
H528 C534 0.930 . S
H529 C537 0.930 . S
H530 C538 0.929 . S
H531 C539 0.930 . S
H532 C542 0.930 . S
H533 C543 0.929 . S
C534 H528 0.930 . S
C534 C535 1.355 . S
C534 C536 1.415 . S
C535 C534 1.355 . S
C535 C537 1.419 . S
C536 C534 1.415 . S
C536 C541 1.425 1_556 S
C536 C543 1.409 1_556 S
C537 H529 0.930 . S
C537 C535 1.419 . S
C537 C538 1.362 . S
C538 H530 0.929 . S
C538 C537 1.362 . S
C538 C541 1.409 1_556 S
C539 H531 0.930 . S
C539 C540 1.355 . S
C539 C541 1.415 . S
C540 C539 1.355 . S
C540 C542 1.419 . S
C541 C536 1.425 1_554 S
C541 C538 1.409 1_554 S
C541 C539 1.415 . S
C542 H532 0.930 . S
C542 C540 1.419 . S
C542 C543 1.362 . S
C543 H533 0.929 . S
C543 C536 1.409 1_554 S
C543 C542 1.362 . S
H544 C550 0.930 . S
H545 C553 0.930 . S
H546 C554 0.930 . S
H547 C555 0.930 . S
H548 C558 0.930 . S
H549 C559 0.930 . S
C550 H544 0.930 . S
C550 C551 1.355 . S
C550 C552 1.415 . S
C551 C550 1.355 . S
C551 C553 1.419 . S
C552 C550 1.415 . S
C552 C557 1.425 . S
C552 C559 1.409 . S
C553 H545 0.930 . S
C553 C551 1.419 . S
C553 C554 1.362 . S
C554 H546 0.930 . S
C554 C553 1.362 . S
C554 C557 1.409 . S
C555 H547 0.930 . S
C555 C556 1.355 . S
C555 C557 1.415 . S
C556 C555 1.355 . S
C556 C558 1.419 . S
C557 C552 1.425 . S
C557 C554 1.409 . S
C557 C555 1.415 . S
C558 H548 0.930 . S
C558 C556 1.419 . S
C558 C559 1.362 . S
C559 H549 0.930 . S
C559 C552 1.409 . S
C559 C558 1.362 . S
H560 C566 0.930 . S
H561 C569 0.930 . S
H562 C570 0.930 . S
H563 C571 0.930 . S
H564 C574 0.930 . S
H565 C575 0.930 . S
C566 H560 0.930 . S
C566 C567 1.355 . S
C566 C568 1.415 . S
C567 C566 1.355 . S
C567 C569 1.419 . S
C568 C566 1.415 . S
C568 C573 1.425 . S
C568 C575 1.409 . S
C569 H561 0.930 . S
C569 C567 1.419 . S
C569 C570 1.362 . S
C570 H562 0.930 . S
C570 C569 1.362 . S
C570 C573 1.409 . S
C571 H563 0.930 . S
C571 C572 1.355 . S
C571 C573 1.415 . S
C572 C571 1.355 . S
C572 C574 1.419 . S
C573 C568 1.425 . S
C573 C570 1.409 . S
C573 C571 1.415 . S
C574 H564 0.930 . S
C574 C572 1.419 . S
C574 C575 1.362 . S
C575 H565 0.930 . S
C575 C568 1.409 . S
C575 C574 1.362 . S
H576 C582 0.930 . S
H577 C585 0.930 . S
H578 C586 0.930 . S
H579 C587 0.930 . S
H580 C590 0.930 . S
H581 C591 0.930 . S
C582 H576 0.930 . S
C582 C583 1.355 . S
C582 C584 1.415 . S
C583 C582 1.355 . S
C583 C585 1.419 . S
C584 C582 1.415 . S
C584 C589 1.425 . S
C584 C591 1.409 . S
C585 H577 0.930 . S
C585 C583 1.419 . S
C585 C586 1.362 . S
C586 H578 0.930 . S
C586 C585 1.362 . S
C586 C589 1.409 . S
C587 H579 0.930 . S
C587 C588 1.355 . S
C587 C589 1.415 . S
C588 C587 1.355 . S
C588 C590 1.419 . S
C589 C584 1.425 . S
C589 C586 1.409 . S
C589 C587 1.415 . S
C590 H580 0.930 . S
C590 C588 1.419 . S
C590 C591 1.362 . S
C591 H581 0.930 . S
C591 C584 1.409 . S
C591 C590 1.362 . S
H592 C598 0.930 . S
H593 C601 0.930 . S
H594 C602 0.930 . S
H595 C603 0.930 . S
H596 C606 0.930 . S
H597 C607 0.930 . S
C598 H592 0.930 . S
C598 C599 1.355 . S
C598 C600 1.415 . S
C599 C598 1.355 . S
C599 C601 1.419 . S
C600 C598 1.415 . S
C600 C605 1.425 . S
C600 C607 1.409 . S
C601 H593 0.930 . S
C601 C599 1.419 . S
C601 C602 1.362 . S
C602 H594 0.930 . S
C602 C601 1.362 . S
C602 C605 1.409 . S
C603 H595 0.930 . S
C603 C604 1.355 . S
C603 C605 1.415 . S
C604 C603 1.355 . S
C604 C606 1.419 . S
C605 C600 1.425 . S
C605 C602 1.409 . S
C605 C603 1.415 . S
C606 H596 0.930 . S
C606 C604 1.419 . S
C606 C607 1.362 . S
C607 H597 0.930 . S
C607 C600 1.409 . S
C607 C606 1.362 . S
H608 C614 0.930 . S
H609 C617 0.930 . S
H610 C618 0.930 . S
H611 C619 0.930 . S
H612 C622 0.930 . S
H613 C623 0.930 . S
C614 H608 0.930 . S
C614 C615 1.355 . S
C614 C616 1.415 . S
C615 C614 1.355 . S
C615 C617 1.419 . S
C616 C614 1.415 . S
C616 C621 1.425 . S
C616 C623 1.409 . S
C617 H609 0.930 . S
C617 C615 1.419 . S
C617 C618 1.362 . S
C618 H610 0.930 . S
C618 C617 1.362 . S
C618 C621 1.409 . S
C619 H611 0.930 . S
C619 C620 1.355 . S
C619 C621 1.415 . S
C620 C619 1.355 . S
C620 C622 1.419 . S
C621 C616 1.425 . S
C621 C618 1.409 . S
C621 C619 1.415 . S
C622 H612 0.930 . S
C622 C620 1.419 . S
C622 C623 1.362 . S
C623 H613 0.930 . S
C623 C616 1.409 . S
C623 C622 1.362 . S
H624 C630 0.930 . S
H625 C633 0.930 . S
H626 C634 0.930 . S
H627 C635 0.930 . S
H628 C638 0.930 . S
H629 C639 0.930 . S
C630 H624 0.930 . S
C630 C631 1.355 . S
C630 C632 1.415 . S
C631 C630 1.355 . S
C631 C633 1.419 . S
C632 C630 1.415 . S
C632 C637 1.425 . S
C632 C639 1.409 . S
C633 H625 0.930 . S
C633 C631 1.419 . S
C633 C634 1.362 . S
C634 H626 0.930 . S
C634 C633 1.362 . S
C634 C637 1.409 . S
C635 H627 0.930 . S
C635 C636 1.355 . S
C635 C637 1.415 . S
C636 C635 1.355 . S
C636 C638 1.419 . S
C637 C632 1.425 . S
C637 C634 1.409 . S
C637 C635 1.415 . S
C638 H628 0.930 . S
C638 C636 1.419 . S
C638 C639 1.362 . S
C639 H629 0.930 . S
C639 C632 1.409 . S
C639 C638 1.362 . S
H640 C646 0.930 . S
H641 C649 0.930 . S
H642 C650 0.930 . S
H643 C651 0.930 . S
H644 C654 0.930 . S
H645 C655 0.930 . S
C646 H640 0.930 . S
C646 C647 1.355 . S
C646 C648 1.415 . S
C647 C646 1.355 . S
C647 C649 1.419 . S
C648 C646 1.415 . S
C648 C653 1.425 . S
C648 C655 1.409 . S
C649 H641 0.930 . S
C649 C647 1.419 . S
C649 C650 1.362 . S
C650 H642 0.930 . S
C650 C649 1.362 . S
C650 C653 1.409 . S
C651 H643 0.930 . S
C651 C652 1.355 . S
C651 C653 1.415 . S
C652 C651 1.355 . S
C652 C654 1.419 . S
C653 C648 1.425 . S
C653 C650 1.409 . S
C653 C651 1.415 . S
C654 H644 0.930 . S
C654 C652 1.419 . S
C654 C655 1.362 . S
C655 H645 0.930 . S
C655 C648 1.409 . S
C655 C654 1.362 . S
H656 C662 0.930 . S
H657 C665 0.930 . S
H658 C666 0.930 . S
H659 C667 0.930 . S
H660 C670 0.930 . S
H661 C671 0.930 . S
C662 H656 0.930 . S
C662 C663 1.355 . S
C662 C664 1.415 . S
C663 C662 1.355 . S
C663 C665 1.419 . S
C664 C662 1.415 . S
C664 C669 1.425 . S
C664 C671 1.409 . S
C665 H657 0.930 . S
C665 C663 1.419 . S
C665 C666 1.362 . S
C666 H658 0.930 . S
C666 C665 1.362 . S
C666 C669 1.409 . S
C667 H659 0.930 . S
C667 C668 1.355 . S
C667 C669 1.415 . S
C668 C667 1.355 . S
C668 C670 1.419 . S
C669 C664 1.425 . S
C669 C666 1.409 . S
C669 C667 1.415 . S
C670 H660 0.930 . S
C670 C668 1.419 . S
C670 C671 1.362 . S
C671 H661 0.930 . S
C671 C664 1.409 . S
C671 C670 1.362 . S
H672 C678 0.930 . S
H673 C681 0.930 . S
H674 C682 0.990 . S
H675 C683 0.930 . S
H676 C686 0.930 . S
H677 C687 0.989 . S
C678 H672 0.930 . S
C678 C679 1.355 . S
C678 C680 1.415 . S
C679 C678 1.355 . S
C679 C681 1.419 . S
C680 C678 1.415 . S
C680 C685 1.425 1_455 S
C680 C687 1.409 1_455 S
C681 H673 0.930 . S
C681 C679 1.419 . S
C681 C682 1.362 . S
C682 H674 0.990 . S
C682 C681 1.362 . S
C682 C685 1.409 1_455 S
C683 H675 0.930 . S
C683 C684 1.355 . S
C683 C685 1.415 . S
C684 C683 1.355 . S
C684 C686 1.419 . S
C685 C680 1.425 1_655 S
C685 C682 1.409 1_655 S
C685 C683 1.415 . S
C686 H676 0.930 . S
C686 C684 1.419 . S
C686 C687 1.362 . S
C687 H677 0.989 . S
C687 C680 1.409 1_655 S
C687 C686 1.362 . S
H688 C694 0.930 . S
H689 C697 0.930 . S
H690 C698 0.930 . S
H691 C699 0.930 . S
H692 C702 0.930 . S
H693 C703 0.930 . S
C694 H688 0.930 . S
C694 C695 1.355 . S
C694 C696 1.420 . S
C695 C694 1.355 . S
C695 C697 1.419 . S
C696 C694 1.420 . S
C696 C701 1.422 1_545 S
C696 C703 1.405 1_545 S
C697 H689 0.930 . S
C697 C695 1.419 . S
C697 C698 1.362 . S
C698 H690 0.930 . S
C698 C697 1.362 . S
C698 C701 1.404 1_545 S
C699 H691 0.930 . S
C699 C700 1.355 . S
C699 C701 1.422 . S
C700 C699 1.355 . S
C700 C702 1.419 . S
C701 C696 1.422 1_565 S
C701 C698 1.404 1_565 S
C701 C699 1.422 . S
C702 H692 0.930 . S
C702 C700 1.419 . S
C702 C703 1.362 . S
C703 H693 0.930 . S
C703 C696 1.405 1_565 S
C703 C702 1.362 . S
H704 C710 0.930 . S
H705 C713 0.930 . S
H706 C714 0.930 . S
H707 C715 0.930 . S
H708 C718 0.930 . S
H709 C719 0.930 . S
C710 H704 0.930 . S
C710 C711 1.355 . S
C710 C712 1.415 . S
C711 C710 1.355 . S
C711 C713 1.419 . S
C712 C710 1.415 . S
C712 C717 1.425 . S
C712 C719 1.409 . S
C713 H705 0.930 . S
C713 C711 1.419 . S
C713 C714 1.362 . S
C714 H706 0.930 . S
C714 C713 1.362 . S
C714 C717 1.409 . S
C715 H707 0.930 . S
C715 C716 1.355 . S
C715 C717 1.415 . S
C716 C715 1.355 . S
C716 C718 1.419 . S
C717 C712 1.425 . S
C717 C714 1.409 . S
C717 C715 1.415 . S
C718 H708 0.930 . S
C718 C716 1.419 . S
C718 C719 1.362 . S
C719 H709 0.930 . S
C719 C712 1.409 . S
C719 C718 1.362 . S
H720 C726 0.930 . S
H721 C729 0.930 . S
H722 C730 0.930 1_455 S
H723 C731 0.930 . S
H724 C734 0.930 . S
H725 C735 0.930 1_655 S
C726 H720 0.930 . S
C726 C727 1.355 . S
C726 C728 1.415 . S
C727 C726 1.355 . S
C727 C729 1.419 . S
C728 C726 1.415 . S
C728 C733 1.425 1_655 S
C728 C735 1.409 1_655 S
C729 H721 0.930 . S
C729 C727 1.419 . S
C729 C730 1.362 . S
C730 H722 0.930 1_655 S
C730 C729 1.362 . S
C730 C733 1.409 1_655 S
C731 H723 0.930 . S
C731 C732 1.355 . S
C731 C733 1.415 . S
C732 C731 1.355 . S
C732 C734 1.419 . S
C733 C728 1.425 1_455 S
C733 C730 1.409 1_455 S
C733 C731 1.415 . S
C734 H724 0.930 . S
C734 C732 1.419 . S
C734 C735 1.362 . S
C735 H725 0.930 1_455 S
C735 C728 1.409 1_455 S
C735 C734 1.362 . S
H736 C742 0.930 . S
H737 C745 0.930 . S
H738 C746 0.930 . S
H739 C747 0.930 . S
H740 C750 0.930 . S
H741 C751 0.930 . S
C742 H736 0.930 . S
C742 C743 1.355 . S
C742 C744 1.415 . S
C743 C742 1.355 . S
C743 C745 1.419 . S
C744 C742 1.415 . S
C744 C749 1.425 1_545 S
C744 C751 1.409 1_545 S
C745 H737 0.930 . S
C745 C743 1.419 . S
C745 C746 1.362 . S
C746 H738 0.930 . S
C746 C745 1.362 . S
C746 C749 1.409 1_545 S
C747 H739 0.930 . S
C747 C748 1.355 . S
C747 C749 1.415 . S
C748 C747 1.355 . S
C748 C750 1.419 . S
C749 C744 1.425 1_565 S
C749 C746 1.409 1_565 S
C749 C747 1.415 . S
C750 H740 0.930 . S
C750 C748 1.419 . S
C750 C751 1.362 . S
C751 H741 0.930 . S
C751 C744 1.409 1_565 S
C751 C750 1.362 . S
H752 C758 0.930 . S
H753 C761 0.930 . S
H754 C762 0.930 . S
H755 C763 0.930 . S
H756 C766 0.930 . S
H757 C767 0.930 . S
C758 H752 0.930 . S
C758 C759 1.355 . S
C758 C760 1.415 . S
C759 C758 1.355 . S
C759 C761 1.419 . S
C760 C758 1.415 . S
C760 C765 1.425 . S
C760 C767 1.409 . S
C761 H753 0.930 . S
C761 C759 1.419 . S
C761 C762 1.362 . S
C762 H754 0.930 . S
C762 C761 1.362 . S
C762 C765 1.409 . S
C763 H755 0.930 . S
C763 C764 1.355 . S
C763 C765 1.415 . S
C764 C763 1.355 . S
C764 C766 1.419 . S
C765 C760 1.425 . S
C765 C762 1.409 . S
C765 C763 1.415 . S
C766 H756 0.930 . S
C766 C764 1.419 . S
C766 C767 1.362 . S
C767 H757 0.930 . S
C767 C760 1.409 . S
C767 C766 1.362 . S
C487 C415 2.461 . S
C492 C15 2.467 . S
C503 C55 2.469 . S
C508 C455 2.466 . S
C519 C255 2.458 . S
C524 C95 2.448 . S
C535 C295 2.406 . S
C540 C135 2.407 . S
C551 C335 2.408 . S
C556 C175 2.406 . S
C567 C215 2.436 . S
C572 C375 2.447 . S
C583 C341 2.449 . S
C588 C21 2.460 . S
C599 C381 2.457 . S
C604 C61 2.444 . S
C615 C101 2.426 . S
C620 C421 2.422 . S
C631 C461 2.450 . S
C636 C141 2.435 . S
C647 C261 2.423 . S
C652 C181 2.432 . S
C663 C301 2.440 . S
C668 C221 2.454 . S
C679 C2 2.257 . S
C684 C442 2.269 . S
C695 C42 2.252 . S
C700 C242 2.244 . S
C711 C82 2.276 . S
C716 C282 2.264 . S
C727 C122 2.282 . S
C732 C322 2.281 . S
C743 C362 2.249 . S
C748 C162 2.261 . S
C759 C202 2.280 . S
C764 C402 2.272 . S
