# Generated by pormake.
# Topology umx, (4)-cn, num edge types: 1
# Building blocks:
#     Node 0, Type 0, BuildingBlock: ESEHIV_clean_sbu_0, # of connection points: 4
#     Node 1, Type 0, BuildingBlock: ESEHIV_clean_sbu_0, # of connection points: 4
#     Node 2, Type 0, BuildingBlock: ESEHIV_clean_sbu_0, # of connection points: 4
#     Node 3, Type 0, BuildingBlock: ESEHIV_clean_sbu_0, # of connection points: 4
#     Node 4, Type 0, BuildingBlock: ESEHIV_clean_sbu_0, # of connection points: 4
#     Node 5, Type 0, BuildingBlock: ESEHIV_clean_sbu_0, # of connection points: 4
#     Node 6, Type 0, BuildingBlock: ESEHIV_clean_sbu_0, # of connection points: 4
#     Node 7, Type 0, BuildingBlock: ESEHIV_clean_sbu_0, # of connection points: 4
#     Edge 8, Type (0, 0), BuildingBlock: ZUJKAS_clean_linker_0, # of connection points: 2
#     Edge 9, Type (0, 0), BuildingBlock: ZUJKAS_clean_linker_0, # of connection points: 2
#     Edge 10, Type (0, 0), BuildingBlock: ZUJKAS_clean_linker_0, # of connection points: 2
#     Edge 11, Type (0, 0), BuildingBlock: ZUJKAS_clean_linker_0, # of connection points: 2
#     Edge 12, Type (0, 0), BuildingBlock: ZUJKAS_clean_linker_0, # of connection points: 2
#     Edge 13, Type (0, 0), BuildingBlock: ZUJKAS_clean_linker_0, # of connection points: 2
#     Edge 14, Type (0, 0), BuildingBlock: ZUJKAS_clean_linker_0, # of connection points: 2
#     Edge 15, Type (0, 0), BuildingBlock: ZUJKAS_clean_linker_0, # of connection points: 2
#     Edge 16, Type (0, 0), BuildingBlock: ZUJKAS_clean_linker_0, # of connection points: 2
#     Edge 17, Type (0, 0), BuildingBlock: ZUJKAS_clean_linker_0, # of connection points: 2
#     Edge 18, Type (0, 0), BuildingBlock: ZUJKAS_clean_linker_0, # of connection points: 2
#     Edge 19, Type (0, 0), BuildingBlock: ZUJKAS_clean_linker_0, # of connection points: 2
#     Edge 20, Type (0, 0), BuildingBlock: ZUJKAS_clean_linker_0, # of connection points: 2
#     Edge 21, Type (0, 0), BuildingBlock: ZUJKAS_clean_linker_0, # of connection points: 2
#     Edge 22, Type (0, 0), BuildingBlock: ZUJKAS_clean_linker_0, # of connection points: 2
#     Edge 23, Type (0, 0), BuildingBlock: ZUJKAS_clean_linker_0, # of connection points: 2
# Relax obj value: 0.104
# Max RMSD: 0.182
# Mean RMSD: 0.173
data_MOF--net-umx--node1-ESEHIV_clean_sbu_0--edge1-ZUJKAS_clean_linker_0
_symmetry_space_group_name_H-M    P1
_symmetry_Int_Tables_number       1
_symmetry_cell_setting            triclinic
loop_
_symmetry_equiv_pos_as_xyz
'x, y, z'
_cell_length_a     50.36965
_cell_length_b     57.740686
_cell_length_c     39.159939
_cell_angle_alpha  89.782525
_cell_angle_beta   90.17603
_cell_angle_gamma 90.363686
loop_
_atom_site_label
_atom_site_type_symbol
_atom_site_fract_x
_atom_site_fract_y
_atom_site_fract_z
_atom_type_partial_charge
Cu0 Cu 0.18698 0.44997 0.06209 0.0
N1 N 0.20145 0.46968 1.02935 0.0
N2 N 0.20817 0.48734 0.97928 0.0
C3 C 0.19572 0.46982 0.99577 0.0
C4 C 0.22232 0.49859 1.00348 0.0
C5 C 0.21816 0.48762 1.03436 0.0
O6 O 0.1994 0.41883 0.05288 0.0
C7 C 0.13213 0.44744 0.08219 0.0
O8 O 0.14054 0.43649 0.10959 0.0
H9 H 0.18195 0.45779 0.98394 0.0
H10 H 0.22632 0.49262 0.05885 0.0
N11 N 0.1996 0.45876 0.10496 0.0
N12 N 0.20216 0.47268 0.15805 0.0
C13 C 0.18711 0.47074 0.12952 0.0
C14 C 0.22337 0.45314 0.11814 0.0
C15 C 0.22501 0.46162 0.15084 0.0
C16 C 0.19981 0.40328 0.07599 0.0
O17 O 0.18875 0.40755 0.10563 0.0
H18 H 0.16742 0.47782 0.12645 0.0
H19 H 0.23824 0.44309 0.10504 0.0
O20 O 0.14869 0.45336 0.05924 0.0
H21 H 0.23469 0.51372 0.99922 0.0
H22 H 0.24152 0.45922 0.16822 0.0
Cu23 Cu 0.53927 0.19237 0.55729 0.0
N24 N 0.54689 0.16077 0.55285 0.0
N25 N 0.54333 0.12214 0.55363 0.0
C26 C 0.53168 0.14241 0.56182 0.0
C27 C 0.56654 0.128 0.53876 0.0
C28 C 0.56857 0.15174 0.53808 0.0
O29 O 0.52054 0.19665 0.60182 0.0
C30 C 0.53657 0.20146 0.48669 0.0
O31 O 0.56204 0.19758 0.49094 0.0
H32 H 0.51249 0.14391 0.57396 0.0
H33 H 0.58458 0.16173 0.52693 0.0
N34 N 0.5717 0.20866 0.56083 0.0
N35 N 0.60341 0.23591 0.55734 0.0
C36 C 0.57739 0.23089 0.55245 0.0
C37 C 0.59482 0.19967 0.57182 0.0
C38 C 0.61431 0.2163 0.56958 0.0
C39 C 0.53344 0.18998 0.62842 0.0
O40 O 0.55656 0.18014 0.6238 0.0
H41 H 0.56298 0.24289 0.54216 0.0
H42 H 0.59744 0.1821 0.58079 0.0
O43 O 0.52166 0.20106 0.51325 0.0
H44 H 0.58066 0.11598 0.52811 0.0
H45 H 0.63496 0.21418 0.57662 0.0
Cu46 Cu 0.8123 0.53197 0.05469 0.0
N47 N 0.79847 0.51543 1.0181 0.0
N48 N 0.7965 0.49296 0.97187 0.0
C49 C 0.81245 0.50411 0.9943 0.0
C50 C 0.77149 0.49756 0.98209 0.0
C51 C 0.77279 0.5114 1.01067 0.0
O52 O 0.79811 0.56324 0.0532 0.0
C53 C 0.86673 0.53802 0.07394 0.0
O54 O 0.85739 0.54882 0.10077 0.0
H55 H 0.83392 0.50424 0.99345 0.0
H56 H 0.75623 0.51785 1.02527 0.0
N57 N 0.80182 0.5168 0.09449 0.0
N58 N 0.80355 0.49641 0.14297 0.0
C59 C 0.8175 0.50539 0.11664 0.0
C60 C 0.77705 0.51479 0.1069 0.0
C61 C 0.77805 0.50225 0.13688 0.0
C62 C 0.79264 0.57479 0.07989 0.0
O63 O 0.79854 0.56617 0.11004 0.0
H64 H 0.83869 0.50356 0.11333 0.0
H65 H 0.75958 0.52219 0.09514 0.0
O66 O 0.85069 0.53086 0.0511 0.0
H67 H 0.75351 0.49109 0.97021 0.0
H68 H 0.76138 0.49828 0.15333 0.0
Cu69 Cu 0.48009 0.81743 0.54132 0.0
N70 N 0.46395 0.84656 0.54121 0.0
N71 N 0.45992 0.8851 0.54456 0.0
C72 C 0.47667 0.86689 0.54582 0.0
C73 C 0.43569 0.8757 0.5388 0.0
C74 C 0.43824 0.85198 0.53671 0.0
O75 O 0.49877 0.81417 0.58623 0.0
C76 C 0.48601 0.81793 0.47051 0.0
O77 O 0.46053 0.8217 0.4747 0.0
H78 H 0.49791 0.86817 0.54954 0.0
H79 H 0.42246 0.83961 0.53207 0.0
N80 N 0.45466 0.79363 0.53899 0.0
N81 N 0.4182 0.77148 0.54398 0.0
C82 C 0.4303 0.79156 0.55311 0.0
C83 C 0.45811 0.77415 0.52089 0.0
C84 C 0.43578 0.76054 0.52382 0.0
C85 C 0.48552 0.82018 0.61271 0.0
O86 O 0.46132 0.82795 0.60808 0.0
H87 H 0.42153 0.80456 0.56929 0.0
H88 H 0.47576 0.77017 0.50644 0.0
O89 O 0.50033 0.81552 0.49751 0.0
H90 H 0.4173 0.88516 0.53652 0.0
H91 H 0.43292 0.74368 0.51234 0.0
Cu92 Cu 0.15235 0.61053 0.56717 0.0
N93 N 0.16841 0.5857 0.5896 0.0
N94 N 0.17928 0.561 0.63153 0.0
C95 C 0.16358 0.57881 0.62185 0.0
C96 C 0.19422 0.55637 0.60376 0.0
C97 C 0.18749 0.57162 0.57802 0.0
O98 O 0.16866 0.63979 0.58135 0.0
C99 C 0.09679 0.61211 0.55272 0.0
O100 O 0.10418 0.62101 0.52332 0.0
H101 H 0.14958 0.5875 0.63818 0.0
H102 H 0.19621 0.57264 0.55286 0.0
N103 N 0.15902 0.60869 0.52049 0.0
N104 N 0.16424 0.59641 0.46692 0.0
C105 C 0.1575 0.59043 0.49922 0.0
C106 C 0.1668 0.62672 0.5011 0.0
C107 C 0.17 0.61926 0.46813 0.0
C108 C 0.1838 0.64233 0.60721 0.0
O109 O 0.18572 0.62548 0.62964 0.0
H110 H 0.15195 0.57314 0.5074 0.0
H111 H 0.16982 0.64417 0.51036 0.0
O112 O 0.11428 0.60808 0.57551 0.0
H113 H 0.20925 0.54315 0.60204 0.0
H114 H 0.17577 0.62998 0.44665 0.0
Cu115 Cu 0.4574 0.18503 0.05987 0.0
N116 N 0.45586 0.15301 0.06676 0.0
N117 N 0.4625 0.11485 0.06445 0.0
C118 C 0.46924 0.1358 0.0514 0.0
C119 C 0.44444 0.11916 0.08895 0.0
C120 C 0.4405 0.14264 0.09039 0.0
O121 O 0.47416 0.19177 1.01459 0.0
C122 C 0.48775 0.18671 0.12252 0.0
O123 O 0.49783 0.16736 0.11092 0.0
H124 H 0.48353 0.13858 1.0312 0.0
H125 H 0.4275 0.15166 0.10772 0.0
N126 N 0.422 0.19476 0.05707 0.0
N127 N 0.38503 0.21605 0.05786 0.0
C128 C 0.41177 0.21605 0.06172 0.0
C129 C 0.40109 0.18096 0.04997 0.0
C130 C 0.37838 0.19397 0.05039 0.0
C131 C 0.4616 0.18417 0.98829 0.0
O132 O 0.43986 0.172 0.9934 0.0
H133 H 0.42364 0.2311 0.0682 0.0
H134 H 0.40228 0.16265 0.04451 0.0
O135 O 0.47238 0.19836 0.10283 0.0
H136 H 0.43526 0.1063 0.10536 0.0
H137 H 0.35854 0.18765 0.04497 0.0
Cu138 Cu 0.85477 0.42147 0.55966 0.0
N139 N 0.86765 0.40725 0.59907 0.0
N140 N 0.86989 0.39859 0.65464 0.0
C141 C 0.8547 0.40691 0.62899 0.0
C142 C 0.89324 0.39305 0.63993 0.0
C143 C 0.89177 0.39841 0.60557 0.0
O144 O 0.81696 0.41414 0.55602 0.0
C145 C 0.87178 0.46538 0.58647 0.0
O146 O 0.86998 0.4554 0.61654 0.0
H147 H 0.83529 0.41451 0.63224 0.0
H148 H 0.90758 0.39707 0.58707 0.0
N149 N 0.87106 0.40992 0.52076 0.0
N150 N 0.88129 0.40845 0.46545 0.0
C151 C 0.87116 0.42131 0.49084 0.0
C152 C 0.88174 0.38907 0.51432 0.0
C153 C 0.88792 0.38805 0.47998 0.0
C154 C 0.8119 0.3925 0.55471 0.0
O155 O 0.83181 0.37797 0.55672 0.0
H156 H 0.86243 0.43826 0.4874 0.0
H157 H 0.88385 0.37528 0.53288 0.0
O158 O 0.86377 0.45448 0.5601 0.0
H159 H 0.91054 0.38654 0.6532 0.0
H160 H 0.89593 0.3733 0.46659 0.0
Cu161 Cu 0.56535 0.81773 0.04044 0.0
N162 N 0.57387 0.84919 0.04278 0.0
N163 N 0.57024 0.88774 0.04119 0.0
C164 C 0.5576 0.86721 0.03697 0.0
C165 C 0.59537 0.88233 0.05006 0.0
C166 C 0.59752 0.85859 0.05109 0.0
O167 O 0.54425 0.81406 0.99739 0.0
C168 C 0.56485 0.81178 0.1119 0.0
O169 O 0.58981 0.81737 0.10651 0.0
H170 H 0.53697 0.86525 1.02967 0.0
H171 H 0.61504 0.84884 0.05783 0.0
N172 N 0.59742 0.80198 1.0343 0.0
N173 N 0.6295 0.77537 1.03422 0.0
C174 C 0.60589 0.7817 0.04759 0.0
C175 C 0.61631 0.80862 1.01206 0.0
C176 C 0.63607 0.79234 1.01197 0.0
C177 C 0.54942 0.7984 0.97526 0.0
O178 O 0.56542 0.78152 0.98407 0.0
H179 H 0.59456 0.77144 0.06564 0.0
H180 H 0.61541 0.82406 0.99638 0.0
O181 O 0.5495 0.80983 0.0858 0.0
H182 H 0.61095 0.89463 0.05622 0.0
H183 H 0.65386 0.79289 0.99654 0.0
H184 H 0.23581 0.48853 0.20708 0.0
H185 H 0.22404 0.50607 0.26141 0.0
H186 H 0.14099 0.49971 0.23612 0.0
H187 H 0.15249 0.48159 0.18183 0.0
H188 H 0.15735 0.5444 0.25978 0.0
H189 H 0.19073 0.47405 0.34631 0.0
H190 H 0.21503 0.48258 0.31514 0.0
H191 H 0.18432 0.46956 0.30138 0.0
C192 C 0.21501 0.49048 0.21312 0.0
C193 C 0.19513 0.48347 0.18996 0.0
C194 C 0.20833 0.50053 0.24427 0.0
C195 C 0.18166 0.50381 0.25298 0.0
C196 C 0.16171 0.49716 0.2299 0.0
H197 H 0.1369 0.55631 0.45565 0.0
H198 H 0.13806 0.53245 0.40396 0.0
C199 C 0.16836 0.48697 0.19875 0.0
C200 C 0.17486 0.51521 0.28555 0.0
H201 H 0.18368 0.51114 0.37186 0.0
C202 C 0.16275 0.537 0.28433 0.0
C203 C 0.18161 0.50537 0.31752 0.0
C204 C 0.19342 0.4815 0.32033 0.0
C205 C 0.15849 0.54977 0.3142 0.0
C206 C 0.16678 0.54055 0.34597 0.0
C207 C 0.17758 0.51824 0.34739 0.0
C208 C 0.16617 0.55453 0.37753 0.0
C209 C 0.14559 0.57322 0.31149 0.0
C210 C 0.18206 0.57446 0.37999 0.0
C211 C 0.18163 0.58794 0.40943 0.0
C212 C 0.16529 0.5818 0.43714 0.0
C213 C 0.1498 0.56148 0.4349 0.0
C214 C 0.15031 0.5479 0.40534 0.0
H215 H 0.13399 0.575 0.28745 0.0
H216 H 0.13223 0.57633 0.33348 0.0
H217 H 0.16123 0.58685 0.31156 0.0
H218 H 0.19492 0.57954 0.35909 0.0
H219 H 0.19433 0.6031 0.4105 0.0
H220 H 0.56393 0.19067 0.68568 0.0
H221 H 0.5505 0.19282 0.74524 0.0
H222 H 0.46869 0.1986 0.71422 0.0
H223 H 0.48216 0.19657 0.65367 0.0
H224 H 0.52135 0.22758 0.78202 0.0
H225 H 0.46996 0.14209 0.78162 0.0
H226 H 0.49297 0.15065 0.74855 0.0
H227 H 0.46012 0.16248 0.74917 0.0
C228 C 0.543 0.1925 0.69125 0.0
C229 C 0.52413 0.19328 0.66452 0.0
C230 C 0.53537 0.1938 0.72558 0.0
C231 C 0.50855 0.19562 0.73462 0.0
C232 C 0.48953 0.19694 0.70809 0.0
H233 H 0.43001 0.18328 0.93208 0.0
H234 H 0.44183 0.18769 0.8723 0.0
C235 C 0.49724 0.19592 0.6734 0.0
C236 C 0.50097 0.1955 0.77181 0.0
H237 H 0.47046 0.16256 0.83331 0.0
C238 C 0.51008 0.21342 0.79322 0.0
C239 C 0.48647 0.17699 0.78674 0.0
C240 C 0.4769 0.15682 0.76555 0.0
C241 C 0.50469 0.21358 0.82869 0.0
C242 C 0.49044 0.19488 0.84379 0.0
C243 C 0.48139 0.17696 0.82222 0.0
C244 C 0.48367 0.19377 0.8814 0.0
C245 C 0.51374 0.23417 0.84935 0.0
C246 C 0.50305 0.19594 0.90744 0.0
C247 C 0.49615 0.19375 0.94234 0.0
C248 C 0.46979 0.18885 0.952 0.0
C249 C 0.45057 0.18691 0.92589 0.0
C250 C 0.45734 0.18939 0.89137 0.0
H251 H 0.51696 0.24967 0.83295 0.0
H252 H 0.49906 0.23855 0.86936 0.0
H253 H 0.5329 0.23005 0.86197 0.0
H254 H 0.52367 0.19873 0.90086 0.0
H255 H 0.51155 0.19511 0.96159 0.0
H256 H 0.87136 0.38006 0.41188 0.0
H257 H 0.86273 0.3922 0.3528 0.0
H258 H 0.88124 0.46286 0.37973 0.0
H259 H 0.88968 0.45082 0.43866 0.0
H260 H 0.83133 0.45706 0.35117 0.0
H261 H 0.9084 0.41483 0.27196 0.0
H262 H 0.89098 0.39594 0.30095 0.0
H263 H 0.91193 0.41855 0.31755 0.0
C264 C 0.87434 0.39804 0.40489 0.0
C265 C 0.88096 0.41456 0.42983 0.0
C266 C 0.86943 0.40496 0.37116 0.0
C267 C 0.87141 0.42842 0.36191 0.0
C268 C 0.87955 0.44468 0.38638 0.0
H269 H 0.85321 0.49995 0.16965 0.0
H270 H 0.86981 0.48136 0.22153 0.0
C271 C 0.8843 0.43781 0.42 0.0
C272 C 0.86202 0.43659 0.32814 0.0
H273 H 0.8732 0.43347 0.24232 0.0
C274 C 0.84051 0.45192 0.32736 0.0
C275 C 0.87409 0.42989 0.29721 0.0
C276 C 0.89778 0.41405 0.29677 0.0
C277 C 0.83074 0.4608 0.2965 0.0
C278 C 0.84251 0.45383 0.26551 0.0
C279 C 0.86409 0.43856 0.26618 0.0
C280 C 0.83318 0.46308 0.23234 0.0
C281 C 0.8083 0.478 0.29739 0.0
C282 C 0.80727 0.4585 0.22087 0.0
C283 C 0.79769 0.46909 0.1912 0.0
C284 C 0.81392 0.48434 0.17236 0.0
C285 C 0.84022 0.48817 0.18331 0.0
C286 C 0.84976 0.4776 0.21301 0.0
H287 H 0.80553 0.48538 0.3233 0.0
H288 H 0.81192 0.49244 0.27914 0.0
H289 H 0.78955 0.46919 0.28987 0.0
H290 H 0.79431 0.44704 0.23522 0.0
H291 H 0.77754 0.46541 0.18312 0.0
H292 H 0.56155 0.76933 0.92263 0.0
H293 H 0.55224 0.77376 0.86195 0.0
H294 H 0.50822 0.83593 0.88244 0.0
H295 H 0.51842 0.83204 0.94361 0.0
H296 H 0.51007 0.7733 0.82396 0.0
H297 H 0.55518 0.86039 0.80914 0.0
H298 H 0.55859 0.8437 0.84789 0.0
H299 H 0.52879 0.85993 0.83976 0.0
C300 C 0.5498 0.784 0.91448 0.0
C301 C 0.5409 0.80039 0.93845 0.0
C302 C 0.54447 0.78651 0.87944 0.0
C303 C 0.52998 0.80547 0.8669 0.0
C304 C 0.52017 0.82148 0.8909 0.0
H305 H 0.46835 0.84439 0.66764 0.0
H306 H 0.48081 0.84037 0.72753 0.0
C307 C 0.52573 0.81909 0.92613 0.0
C308 C 0.52521 0.8081 0.82892 0.0
H309 H 0.53114 0.84584 0.76134 0.0
C310 C 0.51492 0.78916 0.81037 0.0
C311 C 0.53159 0.82866 0.81055 0.0
C312 C 0.5444 0.84924 0.82775 0.0
C313 C 0.51032 0.79036 0.77475 0.0
C314 C 0.51626 0.81102 0.75661 0.0
C315 C 0.52662 0.82993 0.775 0.0
C316 C 0.51014 0.81387 0.71914 0.0
C317 C 0.49838 0.76966 0.75686 0.0
C318 C 0.52285 0.80071 0.69371 0.0
C319 C 0.5159 0.80317 0.65885 0.0
C320 C 0.49586 0.81868 0.6487 0.0
C321 C 0.48375 0.83214 0.67425 0.0
C322 C 0.49089 0.8299 0.70874 0.0
H323 H 0.49067 0.75653 0.77518 0.0
H324 H 0.48194 0.77509 0.73972 0.0
H325 H 0.51379 0.76138 0.74091 0.0
H326 H 0.53804 0.7884 0.70085 0.0
H327 H 0.52561 0.79246 0.64005 0.0
H328 H 0.90491 0.40249 0.70739 0.0
H329 H 0.89428 0.41142 0.76664 0.0
H330 H 0.81073 0.40876 0.74239 0.0
H331 H 0.82114 0.39862 0.68369 0.0
H332 H 0.87025 0.45013 0.78481 0.0
H333 H 0.8105 0.37635 0.83275 0.0
H334 H 0.82995 0.3746 0.7942 0.0
H335 H 0.79739 0.38736 0.79336 0.0
C336 C 0.88427 0.403 0.71485 0.0
C337 C 0.86388 0.40007 0.69057 0.0
C338 C 0.87822 0.40827 0.74875 0.0
C339 C 0.85171 0.41064 0.75908 0.0
C340 C 0.83133 0.40659 0.73531 0.0
H341 H 0.76759 0.48299 0.91501 0.0
H342 H 0.78209 0.46098 0.86533 0.0
C343 C 0.83734 0.40113 0.70153 0.0
C344 C 0.84539 0.42014 0.79324 0.0
H345 H 0.80558 0.4125 0.86294 0.0
C346 C 0.85649 0.44167 0.80216 0.0
C347 C 0.82729 0.40918 0.8158 0.0
C348 C 0.81583 0.38549 0.80868 0.0
C349 C 0.84925 0.45293 0.83235 0.0
C350 C 0.83053 0.44233 0.85426 0.0
C351 C 0.81984 0.42059 0.84587 0.0
C352 C 0.82127 0.45405 0.88545 0.0
C353 C 0.86094 0.47647 0.84008 0.0
C354 C 0.8384 0.45706 0.91335 0.0
C355 C 0.83015 0.46949 0.94191 0.0
C356 C 0.80459 0.47922 0.94304 0.0
C357 C 0.78728 0.47563 0.91523 0.0
C358 C 0.79555 0.4631 0.88675 0.0
H359 H 0.87203 0.48381 0.81803 0.0
H360 H 0.84505 0.48875 0.84732 0.0
H361 H 0.87483 0.47501 0.86203 0.0
H362 H 0.85826 0.44996 0.91288 0.0
H363 H 0.84383 0.47143 0.96305 0.0
H364 H 0.59565 0.80664 0.16867 0.0
H365 H 0.58267 0.80582 0.22846 0.0
H366 H 0.50045 0.81143 0.19893 0.0
H367 H 0.51345 0.81177 0.13834 0.0
H368 H 0.5599 0.83757 0.26634 0.0
H369 H 0.49464 0.76005 0.26772 0.0
H370 H 0.51561 0.76712 0.23184 0.0
H371 H 0.48436 0.78157 0.23736 0.0
C372 C 0.57469 0.80744 0.17464 0.0
C373 C 0.55563 0.80919 0.14827 0.0
C374 C 0.56728 0.80704 0.20915 0.0
C375 C 0.5405 0.80836 0.21881 0.0
C376 C 0.52125 0.80985 0.19255 0.0
H377 H 0.45739 0.8209 0.41159 0.0
H378 H 0.47206 0.81823 0.35279 0.0
C379 C 0.5287 0.81012 0.15773 0.0
C380 C 0.53329 0.80905 0.25626 0.0
H381 H 0.49498 0.78304 0.31791 0.0
C382 C 0.5458 0.8255 0.27755 0.0
C383 C 0.51498 0.79335 0.27145 0.0
C384 C 0.5018 0.77437 0.25103 0.0
C385 C 0.54014 0.82705 0.31284 0.0
C386 C 0.52164 0.81151 0.32792 0.0
C387 C 0.50923 0.79498 0.30671 0.0
C388 C 0.51346 0.81306 0.36492 0.0
C389 C 0.55342 0.84587 0.33346 0.0
C390 C 0.53172 0.81093 0.39224 0.0
C391 C 0.52329 0.81247 0.42663 0.0
C392 C 0.49636 0.81616 0.43453 0.0
C393 C 0.47831 0.81812 0.407 0.0
C394 C 0.48667 0.81653 0.37299 0.0
H395 H 0.56225 0.85954 0.31691 0.0
H396 H 0.53909 0.85407 0.35111 0.0
H397 H 0.56961 0.8382 0.34901 0.0
H398 H 0.55249 0.80782 0.38702 0.0
H399 H 0.53779 0.81073 0.44693 0.0
H400 H 0.21097 0.53033 0.95166 0.0
H401 H 0.20555 0.54081 0.89151 0.0
H402 H 0.19479 0.46874 0.86596 0.0
H403 H 0.19973 0.45823 0.92626 0.0
H404 H 0.23386 0.52958 0.83649 0.0
H405 H 0.13079 0.49702 0.82063 0.0
H406 H 0.14645 0.49977 0.86191 0.0
H407 H 0.1534 0.47523 0.83527 0.0
C408 C 0.20755 0.51671 0.93322 0.0
C409 C 0.20564 0.49346 0.94372 0.0
C410 C 0.20436 0.52272 0.89886 0.0
C411 C 0.19927 0.50561 0.87427 0.0
C412 C 0.19793 0.48231 0.88457 0.0
H413 H 0.21845 0.53286 0.65613 0.0
H414 H 0.22297 0.5178 0.7139 0.0
C415 C 0.20086 0.47631 0.91901 0.0
C416 C 0.19592 0.51223 0.83783 0.0
H417 H 0.1531 0.50902 0.77017 0.0
C418 C 0.21619 0.52511 0.82199 0.0
C419 C 0.17269 0.50665 0.81906 0.0
C420 C 0.14947 0.49411 0.83514 0.0
C421 C 0.21392 0.53256 0.78796 0.0
C422 C 0.19106 0.52636 0.76884 0.0
C423 C 0.17075 0.51352 0.78469 0.0
C424 C 0.18731 0.53393 0.73286 0.0
C425 C 0.23569 0.54762 0.77323 0.0
C426 C 0.16501 0.547 0.7237 0.0
C427 C 0.16197 0.55525 0.69034 0.0
C428 C 0.18129 0.55079 0.66529 0.0
C429 C 0.20313 0.53689 0.67438 0.0
C430 C 0.20597 0.52842 0.70769 0.0
H431 H 0.24774 0.55601 0.79359 0.0
H432 H 0.24919 0.53675 0.75782 0.0
H433 H 0.22742 0.56134 0.75643 0.0
H434 H 0.15015 0.55125 0.74258 0.0
H435 H 0.14452 0.56532 0.68449 0.0
H436 H 0.48542 0.19556 0.46022 0.0
H437 H 0.47207 0.19657 0.39953 0.0
H438 H 0.55209 0.21503 0.37128 0.0
H439 H 0.5653 0.21431 0.43109 0.0
H440 H 0.51598 0.23978 0.33388 0.0
H441 H 0.49012 0.14612 0.33058 0.0
H442 H 0.47247 0.16301 0.36145 0.0
H443 H 0.50765 0.15905 0.36603 0.0
C444 C 0.50003 0.20016 0.4411 0.0
C445 C 0.52651 0.20472 0.45081 0.0
C446 C 0.49246 0.2005 0.40626 0.0
C447 C 0.51115 0.20549 0.38037 0.0
C448 C 0.53721 0.21101 0.39037 0.0
H449 H 0.52067 0.16567 0.16864 0.0
H450 H 0.52423 0.17182 0.23003 0.0
C451 C 0.54476 0.21054 0.42485 0.0
C452 C 0.50437 0.20435 0.34283 0.0
H453 H 0.48618 0.16685 0.27907 0.0
C454 C 0.50916 0.22388 0.32199 0.0
C455 C 0.49586 0.18356 0.32687 0.0
C456 C 0.49139 0.16165 0.3472 0.0
C457 C 0.50607 0.22312 0.28607 0.0
C458 C 0.49766 0.20231 0.27011 0.0
C459 C 0.49248 0.18289 0.29101 0.0
C460 C 0.49585 0.19971 0.23182 0.0
C461 C 0.51293 0.2444 0.26538 0.0
C462 C 0.47885 0.21346 0.21158 0.0
C463 C 0.4768 0.21002 0.17595 0.0
C464 C 0.49164 0.19266 0.15961 0.0
C465 C 0.50892 0.17926 0.17996 0.0
C466 C 0.51091 0.18268 0.21536 0.0
H467 H 0.52471 0.25713 0.28042 0.0
H468 H 0.52438 0.23972 0.24224 0.0
H469 H 0.49435 0.25295 0.25698 0.0
H470 H 0.4666 0.22649 0.22342 0.0
H471 H 0.46305 0.22052 0.16139 0.0
H472 H 0.90594 0.54654 0.12107 0.0
H473 H 0.95137 0.53172 0.12106 0.0
H474 H 0.93697 0.49891 1.02398 0.0
H475 H 0.89153 0.51345 1.02383 0.0
H476 H 0.95899 0.4693 0.0734 0.0
H477 H 0.01581 0.55179 0.06341 0.0
H478 H 0.99168 0.55091 0.09711 0.0
H479 H 0.98085 0.54974 0.05339 0.0
C480 C 0.91253 0.53646 0.09947 0.0
C481 C 0.89506 0.53123 0.07243 0.0
C482 C 0.93854 0.52804 0.09948 0.0
C483 C 0.9476 0.51435 0.0724 0.0
C484 C 0.93039 0.50947 0.0451 0.0
H485 H 0.10911 0.47216 1.03038 0.0
H486 H 0.06399 0.48736 1.02786 0.0
C487 C 0.90443 0.51789 0.04503 0.0
C488 C 0.97456 0.50412 0.07324 0.0
H489 H 0.04061 0.5178 0.07481 0.0
C490 C 0.97685 0.47989 0.07364 0.0
C491 C 0.99781 0.51797 0.07326 0.0
C492 C 0.99656 0.54405 0.07147 0.0
C493 C 1.00179 0.46913 0.07443 0.0
C494 C 0.02503 0.48299 0.07524 0.0
C495 C 0.02275 0.50722 0.07444 0.0
C496 C 0.05196 0.47272 0.07636 0.0
C497 C 1.00307 0.44304 0.07382 0.0
C498 C 0.06016 0.45934 0.10444 0.0
C499 C 0.08599 0.45057 0.10598 0.0
C500 C 0.10413 0.4551 0.0795 0.0
C501 C 0.09568 0.46826 0.0512 0.0
C502 C 0.0699 0.47704 0.04973 0.0
H503 H 0.98407 0.43518 0.06501 0.0
H504 H 0.01929 0.4371 0.05689 0.0
H505 H 0.00719 0.43654 0.1 0.0
H506 H 0.04676 0.4561 0.12553 0.0
H507 H 0.09187 0.44064 0.12823 0.0
H508 H 0.43077 0.92223 0.52372 0.0
H509 H 0.44287 0.96315 0.52847 0.0
H510 H 0.51655 0.94453 0.57711 0.0
H511 H 0.50444 0.90363 0.57355 0.0
H512 H 0.4615 0.98919 0.59469 0.0
H513 H 0.53338 0.98561 0.48711 0.0
H514 H 0.50625 0.96517 0.49138 0.0
H515 H 0.5348 0.96284 0.51861 0.0
C516 C 0.44939 0.92672 0.53587 0.0
C517 C 0.46666 0.90939 0.54803 0.0
C518 C 0.45629 0.95017 0.53844 0.0
C519 C 0.48064 0.95678 0.55293 0.0
C520 C 0.49774 0.9397 0.56558 0.0
H521 H 0.5715 0.08344 0.56621 0.0
H522 H 0.5548 0.04365 0.56831 0.0
C523 C 0.49082 0.91627 0.56326 0.0
C524 C 0.48862 0.98149 0.55402 0.0
H525 H 0.53108 0.02058 0.51765 0.0
C526 C 0.47663 0.99617 0.57782 0.0
C527 C 0.50838 0.99038 0.53201 0.0
C528 C 0.52144 0.97532 0.50562 0.0
C529 C 0.48441 0.01953 0.58075 0.0
C530 C 0.50424 0.02849 0.55867 0.0
C531 C 0.51594 0.01374 0.53462 0.0
C532 C 0.51367 0.05292 0.56027 0.0
C533 C 0.47193 0.03415 0.60814 0.0
C534 C 0.49611 0.07149 0.55543 0.0
C535 C 0.50566 0.09434 0.55452 0.0
C536 C 0.53298 0.09897 0.55781 0.0
C537 C 0.5504 0.08038 0.56322 0.0
C538 C 0.54086 0.05764 0.56449 0.0
H539 H 0.46301 0.0233 0.62866 0.0
H540 H 0.48673 0.04608 0.61981 0.0
H541 H 0.45587 0.0447 0.59664 0.0
H542 H 0.47515 0.0683 0.55129 0.0
H543 H 0.49184 0.10828 0.54986 0.0
H544 H 0.0748 0.59149 0.60932 0.0
H545 H 0.03136 0.57239 0.61347 0.0
H546 H 0.01298 0.59343 0.51043 0.0
H547 H 0.05628 0.61261 0.50595 0.0
H548 H 0.97581 0.58985 0.59955 0.0
H549 H 0.01018 0.52028 0.51234 0.0
H550 H 0.03303 0.53934 0.53429 0.0
H551 H 0.01459 0.54971 0.49813 0.0
C552 C 0.06138 0.5924 0.5877 0.0
C553 C 0.06917 0.60344 0.55719 0.0
C554 C 0.03655 0.58148 0.59015 0.0
C555 C 0.01913 0.58128 0.56212 0.0
C556 C 0.02627 0.59322 0.53224 0.0
H557 H 0.8829 0.48967 0.52769 0.0
H558 H 0.9153 0.5211 0.52071 0.0
C559 C 0.05102 0.60423 0.5298 0.0
C560 C 0.99439 0.56722 0.56336 0.0
H561 H 0.96675 0.51713 0.53332 0.0
C562 C 0.97369 0.57401 0.58496 0.0
C563 C 0.99166 0.54666 0.54412 0.0
C564 C 0.01354 0.53836 0.52102 0.0
C565 C 0.95032 0.56067 0.58795 0.0
C566 C 0.94793 0.53967 0.56953 0.0
C567 C 0.96846 0.53323 0.54737 0.0
C568 C 0.92531 0.52325 0.57441 0.0
C569 C 0.92837 0.56936 0.61057 0.0
C570 C 0.91967 0.51426 0.60697 0.0
C571 C 0.90098 0.49647 0.61109 0.0
C572 C 0.88778 0.48694 0.58264 0.0
C573 C 0.89264 0.49659 0.55018 0.0
C574 C 0.91124 0.51453 0.54613 0.0
H575 H 0.929 0.58854 0.61273 0.0
H576 H 0.90853 0.56409 0.60079 0.0
H577 H 0.93095 0.56206 0.63662 0.0
H578 H 0.93067 0.52019 0.62911 0.0
H579 H 0.8979 0.48941 0.63644 0.0
H580 H 0.51897 0.90007 0.0512 0.0
H581 H 0.50077 0.93923 0.04938 0.0
H582 H 0.57811 0.96667 1.02428 0.0
H583 H 0.59635 0.92753 1.02525 0.0
H584 H 0.51842 0.97606 0.09148 0.0
H585 H 0.52872 0.99801 0.95383 0.0
H586 H 0.52979 0.96858 0.96957 0.0
H587 H 0.55823 0.98725 0.97418 0.0
C588 C 0.53202 0.91435 0.04464 0.0
C589 C 0.55914 0.91064 0.0384 0.0
C590 C 0.52161 0.93674 0.04378 0.0
C591 C 0.53804 0.9558 0.03632 0.0
C592 C 0.565 0.95216 1.02955 0.0
H593 H 0.51208 0.10513 0.04172 0.0
H594 H 0.53094 0.06648 1.03312 0.0
C595 C 0.57545 0.9298 1.03052 0.0
C596 C 0.52731 0.97961 0.03799 0.0
H597 H 0.51574 0.0284 0.99072 0.0
C598 C 0.51771 0.98747 0.06942 0.0
C599 C 0.52671 0.9945 1.00924 0.0
C600 C 0.53621 0.98668 0.97468 0.0
C601 C 0.50765 0.00991 0.07299 0.0
C602 C 0.50662 0.02472 0.04414 0.0
C603 C 0.5165 0.01697 1.01275 0.0
C604 C 0.49478 0.0481 0.04619 0.0
C605 C 0.4986 0.0177 0.10781 0.0
C606 C 0.46803 0.05053 0.05519 0.0
C607 C 0.45729 0.07247 0.06013 0.0
C608 C 0.47303 0.09247 0.05588 0.0
C609 C 0.49947 0.09006 0.0451 0.0
C610 C 0.51027 0.06801 0.0403 0.0
H611 H 0.50729 0.00692 0.12852 0.0
H612 H 0.5041 0.03609 0.11239 0.0
H613 H 0.47667 0.0161 0.10935 0.0
H614 H 0.45555 0.03539 0.05902 0.0
H615 H 0.4367 0.07378 0.06766 0.0
H616 H 0.22876 0.39059 1.01997 0.0
H617 H 0.25985 0.35835 1.01562 0.0
H618 H 0.23954 0.33643 0.11766 0.0
H619 H 0.20856 0.36866 0.1224 0.0
H620 H 0.29462 0.34098 0.10616 0.0
H621 H 0.2455 0.28836 1.00535 0.0
H622 H 0.25037 0.3184 0.9948 0.0
H623 H 0.22827 0.31048 1.02887 0.0
C624 C 0.23057 0.37871 0.04131 0.0
C625 C 0.21614 0.38223 0.07155 0.0
C626 C 0.24833 0.36026 0.03873 0.0
C627 C 0.2519 0.34493 0.06625 0.0
C628 C 0.23706 0.34806 0.09612 0.0
H629 H 0.33287 0.2141 0.07445 0.0
H630 H 0.30164 0.24614 0.07625 0.0
C631 C 0.21928 0.36646 0.09871 0.0
C632 C 0.27205 0.32634 0.06466 0.0
H633 H 0.2886 0.27684 1.02254 0.0
C634 C 0.29334 0.32694 0.08789 0.0
C635 C 0.27021 0.30801 0.04092 0.0
C636 C 0.24726 0.30605 1.01621 0.0
C637 C 0.3129 0.30971 0.08797 0.0
C638 C 0.31125 0.29155 0.06392 0.0
C639 C 0.28992 0.29091 0.04076 0.0
C640 C 0.33075 0.2724 0.06339 0.0
C641 C 0.33481 0.31075 0.11429 0.0
C642 C 0.35757 0.27654 0.0556 0.0
C643 C 0.37557 0.25815 0.05436 0.0
C644 C 0.36699 0.23529 0.06069 0.0
C645 C 0.34013 0.23137 0.06884 0.0
C646 C 0.32222 0.24969 0.07004 0.0
H647 H 0.33012 0.32291 0.13532 0.0
H648 H 0.33851 0.29333 0.12538 0.0
H649 H 0.3534 0.31678 0.10188 0.0
H650 H 0.36449 0.29392 0.04989 0.0
H651 H 0.396 0.26176 0.04762 0.0
H652 H 0.76382 0.41503 0.56165 0.0
H653 H 0.71908 0.39762 0.55703 0.0
H654 H 0.75404 0.33156 0.534 0.0
H655 H 0.79815 0.3485 0.53849 0.0
H656 H 0.70964 0.34645 0.48954 0.0
H657 H 0.6881 0.34942 0.62912 0.0
H658 H 0.69942 0.3752 0.60734 0.0
H659 H 0.72172 0.35147 0.61348 0.0
C660 C 0.76187 0.39684 0.55543 0.0
C661 C 0.78457 0.38314 0.55067 0.0
C662 C 0.73635 0.38692 0.55291 0.0
C663 C 0.73331 0.36326 0.54535 0.0
C664 C 0.75593 0.34983 0.53986 0.0
H665 H 0.653 0.24018 0.53276 0.0
H666 H 0.67897 0.2757 0.52643 0.0
C667 C 0.7812 0.35958 0.54259 0.0
C668 C 0.70694 0.35169 0.54382 0.0
H669 H 0.66143 0.32502 0.59542 0.0
C670 C 0.69863 0.34227 0.51254 0.0
C671 C 0.69253 0.34635 0.5738 0.0
C672 C 0.70075 0.35602 0.60798 0.0
C673 C 0.67746 0.32638 0.51085 0.0
C674 C 0.66459 0.31942 0.54129 0.0
C675 C 0.6714 0.33031 0.57213 0.0
C676 C 0.64741 0.29843 0.54247 0.0
C677 C 0.66989 0.31629 0.47669 0.0
C678 C 0.62098 0.29933 0.55379 0.0
C679 C 0.60598 0.27886 0.55736 0.0
C680 C 0.61745 0.25724 0.55042 0.0
C681 C 0.64372 0.25656 0.53857 0.0
C682 C 0.65851 0.27688 0.53463 0.0
H683 H 0.67478 0.32846 0.45554 0.0
H684 H 0.68126 0.30014 0.47253 0.0
H685 H 0.64838 0.31202 0.47556 0.0
H686 H 0.61213 0.31577 0.56029 0.0
H687 H 0.58584 0.27983 0.5668 0.0
H688 H 0.77947 0.59884 1.02188 0.0
H689 H 0.75176 0.63335 1.01731 0.0
H690 H 0.74257 0.63409 0.12676 0.0
H691 H 0.77077 0.59996 0.13164 0.0
H692 H 0.70029 0.63777 0.0357 0.0
H693 H 0.76168 0.70088 0.10823 0.0
H694 H 0.77442 0.67337 0.09428 0.0
H695 H 0.75401 0.675 0.1318 0.0
C696 C 0.77186 0.60652 0.04504 0.0
C697 C 0.77745 0.59666 0.07714 0.0
C698 C 0.75596 0.62623 0.04237 0.0
C699 C 0.74531 0.63652 0.07171 0.0
C700 C 0.75103 0.62682 0.10381 0.0
H701 H 0.63252 0.7511 0.09362 0.0
H702 H 0.65937 0.71636 0.10458 0.0
C703 C 0.76708 0.60721 0.10653 0.0
C704 C 0.72717 0.65663 0.06844 0.0
H705 H 0.71829 0.71291 0.09257 0.0
C706 C 0.70429 0.6542 0.0481 0.0
C707 C 0.73227 0.67806 0.08478 0.0
C708 C 0.75704 0.68213 0.10574 0.0
C709 C 0.68648 0.67258 0.04359 0.0
C710 C 0.69172 0.694 0.05966 0.0
C711 C 0.71428 0.69638 0.08048 0.0
C712 C 0.67493 0.71456 0.05324 0.0
C713 C 0.66214 0.66899 1.02165 0.0
C714 C 0.67491 0.72498 1.02087 0.0
C715 C 0.65979 0.74473 1.01465 0.0
C716 C 0.64429 0.75449 0.04066 0.0
C717 C 0.64409 0.74386 0.07304 0.0
C718 C 0.65949 0.72414 0.07936 0.0
H719 H 0.65781 0.65032 1.01749 0.0
H720 H 0.64452 0.67717 1.03344 0.0
H721 H 0.66541 0.67725 0.99636 0.0
H722 H 0.68685 0.71795 1.00046 0.0
H723 H 0.66013 0.75232 0.98934 0.0
H724 H 0.39031 0.78124 0.60163 0.0
H725 H 0.34767 0.76397 0.61904 0.0
H726 H 0.34464 0.72526 0.52523 0.0
H727 H 0.3867 0.74254 0.50751 0.0
H728 H 0.295 0.76166 0.58243 0.0
H729 H 0.34196 0.67619 0.60485 0.0
H730 H 0.36088 0.70283 0.60259 0.0
H731 H 0.34934 0.68914 0.56414 0.0
C732 C 0.38036 0.76931 0.58453 0.0
C733 C 0.39218 0.76299 0.55341 0.0
C734 C 0.35606 0.75942 0.59455 0.0
C735 C 0.34326 0.74308 0.57363 0.0
C736 C 0.35444 0.73754 0.542 0.0
H737 H 0.1913 0.67672 0.55957 0.0
H738 H 0.22851 0.70398 0.55629 0.0
C739 C 0.37858 0.74736 0.532 0.0
C740 C 0.31882 0.73089 0.58504 0.0
H741 H 0.29482 0.67682 0.603 0.0
C742 C 0.29493 0.74317 0.58735 0.0
C743 C 0.31887 0.70682 0.59183 0.0
C744 C 0.34415 0.69294 0.59106 0.0
C745 C 0.27085 0.73175 0.5949 0.0
C746 C 0.27073 0.70746 0.59995 0.0
C747 C 0.29485 0.69542 0.59899 0.0
C748 C 0.24587 0.69379 0.60466 0.0
C749 C 0.24577 0.74576 0.59729 0.0
C750 C 0.24299 0.67913 0.6331 0.0
C751 C 0.22179 0.66341 0.63498 0.0
C752 C 0.20309 0.66189 0.60829 0.0
C753 C 0.20523 0.67747 0.58067 0.0
C754 C 0.22648 0.69318 0.57882 0.0
H755 H 0.25017 0.76422 0.60306 0.0
H756 H 0.23516 0.74509 0.57243 0.0
H757 H 0.23234 0.73872 0.61728 0.0
H758 H 0.25775 0.67923 0.65329 0.0
H759 H 0.22079 0.65173 0.65665 0.0
loop_
_geom_bond_atom_site_label_1
_geom_bond_atom_site_label_2
_geom_bond_distance
_geom_bond_site_symmetry_2
_ccdc_geom_bond_type
Cu0 N1 1.999 1_554 S
Cu0 O6 1.974 . S
Cu0 N11 1.985 . S
Cu0 O20 1.959 . S
N1 Cu0 1.999 1_556 S
N1 C3 1.263 . S
N1 C5 1.389 . S
N2 C3 1.358 . S
N2 C4 1.400 . S
C3 N1 1.263 . S
C3 N2 1.358 . S
C3 H9 0.930 . S
C4 N2 1.400 . S
C4 C5 1.351 . S
C4 H21 0.930 . S
C5 N1 1.389 . S
C5 C4 1.351 . S
C5 H10 0.930 . S
O6 Cu0 1.974 . S
O6 C16 1.282 . S
C7 O8 1.261 . S
C7 O20 1.251 . S
O8 C7 1.261 . S
H9 C3 0.930 . S
H10 C5 0.930 . S
N11 Cu0 1.985 . S
N11 C13 1.335 . S
N11 C14 1.390 . S
N12 C13 1.345 . S
N12 C15 1.336 . S
C13 N11 1.335 . S
C13 N12 1.345 . S
C13 H18 0.930 . S
C14 N11 1.390 . S
C14 C15 1.346 . S
C14 H19 0.930 . S
C15 N12 1.336 . S
C15 C14 1.346 . S
C15 H22 0.929 . S
C16 O6 1.282 . S
C16 O17 1.216 . S
O17 C16 1.216 . S
H18 C13 0.930 . S
H19 C14 0.930 . S
O20 Cu0 1.959 . S
O20 C7 1.251 . S
H21 C4 0.930 . S
H22 C15 0.929 . S
Cu23 N24 1.999 . S
Cu23 O29 1.974 . S
Cu23 N34 1.985 . S
Cu23 O43 1.959 . S
N24 Cu23 1.999 . S
N24 C26 1.263 . S
N24 C28 1.389 . S
N25 C26 1.358 . S
N25 C27 1.400 . S
C26 N24 1.263 . S
C26 N25 1.358 . S
C26 H32 0.930 . S
C27 N25 1.400 . S
C27 C28 1.351 . S
C27 H44 0.930 . S
C28 N24 1.389 . S
C28 C27 1.351 . S
C28 H33 0.930 . S
O29 Cu23 1.974 . S
O29 C39 1.282 . S
C30 O31 1.261 . S
C30 O43 1.251 . S
O31 C30 1.261 . S
H32 C26 0.930 . S
H33 C28 0.930 . S
N34 Cu23 1.985 . S
N34 C36 1.335 . S
N34 C37 1.390 . S
N35 C36 1.345 . S
N35 C38 1.336 . S
C36 N34 1.335 . S
C36 N35 1.345 . S
C36 H41 0.930 . S
C37 N34 1.390 . S
C37 C38 1.346 . S
C37 H42 0.930 . S
C38 N35 1.336 . S
C38 C37 1.346 . S
C38 H45 0.929 . S
C39 O29 1.282 . S
C39 O40 1.216 . S
O40 C39 1.216 . S
H41 C36 0.930 . S
H42 C37 0.930 . S
O43 Cu23 1.959 . S
O43 C30 1.251 . S
H44 C27 0.930 . S
H45 C38 0.929 . S
Cu46 N47 1.999 1_554 S
Cu46 O52 1.974 . S
Cu46 N57 1.985 . S
Cu46 O66 1.959 . S
N47 Cu46 1.999 1_556 S
N47 C49 1.263 . S
N47 C51 1.389 . S
N48 C49 1.358 . S
N48 C50 1.400 . S
C49 N47 1.263 . S
C49 N48 1.358 . S
C49 H55 0.930 . S
C50 N48 1.400 . S
C50 C51 1.351 . S
C50 H67 0.930 . S
C51 N47 1.389 . S
C51 C50 1.351 . S
C51 H56 0.930 . S
O52 Cu46 1.974 . S
O52 C62 1.282 . S
C53 O54 1.261 . S
C53 O66 1.251 . S
O54 C53 1.261 . S
H55 C49 0.930 . S
H56 C51 0.930 . S
N57 Cu46 1.985 . S
N57 C59 1.335 . S
N57 C60 1.390 . S
N58 C59 1.345 . S
N58 C61 1.336 . S
C59 N57 1.335 . S
C59 N58 1.345 . S
C59 H64 0.930 . S
C60 N57 1.390 . S
C60 C61 1.346 . S
C60 H65 0.930 . S
C61 N58 1.336 . S
C61 C60 1.346 . S
C61 H68 0.929 . S
C62 O52 1.282 . S
C62 O63 1.216 . S
O63 C62 1.216 . S
H64 C59 0.930 . S
H65 C60 0.930 . S
O66 Cu46 1.959 . S
O66 C53 1.251 . S
H67 C50 0.930 . S
H68 C61 0.929 . S
Cu69 N70 1.999 . S
Cu69 O75 1.974 . S
Cu69 N80 1.985 . S
Cu69 O89 1.959 . S
N70 Cu69 1.999 . S
N70 C72 1.263 . S
N70 C74 1.389 . S
N71 C72 1.358 . S
N71 C73 1.400 . S
C72 N70 1.263 . S
C72 N71 1.358 . S
C72 H78 0.930 . S
C73 N71 1.400 . S
C73 C74 1.351 . S
C73 H90 0.930 . S
C74 N70 1.389 . S
C74 C73 1.351 . S
C74 H79 0.930 . S
O75 Cu69 1.974 . S
O75 C85 1.282 . S
C76 O77 1.261 . S
C76 O89 1.251 . S
O77 C76 1.261 . S
H78 C72 0.930 . S
H79 C74 0.930 . S
N80 Cu69 1.985 . S
N80 C82 1.335 . S
N80 C83 1.390 . S
N81 C82 1.345 . S
N81 C84 1.336 . S
C82 N80 1.335 . S
C82 N81 1.345 . S
C82 H87 0.930 . S
C83 N80 1.390 . S
C83 C84 1.346 . S
C83 H88 0.930 . S
C84 N81 1.336 . S
C84 C83 1.346 . S
C84 H91 0.929 . S
C85 O75 1.282 . S
C85 O86 1.216 . S
O86 C85 1.216 . S
H87 C82 0.930 . S
H88 C83 0.930 . S
O89 Cu69 1.959 . S
O89 C76 1.251 . S
H90 C73 0.930 . S
H91 C84 0.929 . S
Cu92 N93 1.999 . S
Cu92 O98 1.974 . S
Cu92 N103 1.985 . S
Cu92 O112 1.959 . S
N93 Cu92 1.999 . S
N93 C95 1.263 . S
N93 C97 1.389 . S
N94 C95 1.358 . S
N94 C96 1.400 . S
C95 N93 1.263 . S
C95 N94 1.358 . S
C95 H101 0.930 . S
C96 N94 1.400 . S
C96 C97 1.351 . S
C96 H113 0.930 . S
C97 N93 1.389 . S
C97 C96 1.351 . S
C97 H102 0.930 . S
O98 Cu92 1.974 . S
O98 C108 1.282 . S
C99 O100 1.261 . S
C99 O112 1.251 . S
O100 C99 1.261 . S
H101 C95 0.930 . S
H102 C97 0.930 . S
N103 Cu92 1.985 . S
N103 C105 1.335 . S
N103 C106 1.390 . S
N104 C105 1.345 . S
N104 C107 1.336 . S
C105 N103 1.335 . S
C105 N104 1.345 . S
C105 H110 0.930 . S
C106 N103 1.390 . S
C106 C107 1.346 . S
C106 H111 0.930 . S
C107 N104 1.336 . S
C107 C106 1.346 . S
C107 H114 0.929 . S
C108 O98 1.282 . S
C108 O109 1.216 . S
O109 C108 1.216 . S
H110 C105 0.930 . S
H111 C106 0.930 . S
O112 Cu92 1.959 . S
O112 C99 1.251 . S
H113 C96 0.930 . S
H114 C107 0.929 . S
Cu115 N116 1.999 . S
Cu115 O121 1.974 1_554 S
Cu115 N126 1.985 . S
Cu115 O135 1.959 . S
N116 Cu115 1.999 . S
N116 C118 1.263 1_554 S
N116 C120 1.389 . S
N117 C118 1.358 1_554 S
N117 C119 1.400 . S
C118 N116 1.263 1_556 S
C118 N117 1.358 1_556 S
C118 H124 0.930 . S
C119 N117 1.400 . S
C119 C120 1.351 . S
C119 H136 0.930 . S
C120 N116 1.389 . S
C120 C119 1.351 . S
C120 H125 0.930 . S
O121 Cu115 1.974 1_556 S
O121 C131 1.282 . S
C122 O123 1.261 . S
C122 O135 1.251 . S
O123 C122 1.261 . S
H124 C118 0.930 . S
H125 C120 0.930 . S
N126 Cu115 1.985 . S
N126 C128 1.335 . S
N126 C129 1.390 1_554 S
N127 C128 1.345 . S
N127 C130 1.336 1_554 S
C128 N126 1.335 . S
C128 N127 1.345 . S
C128 H133 0.930 . S
C129 N126 1.390 1_556 S
C129 C130 1.346 . S
C129 H134 0.930 . S
C130 N127 1.336 1_556 S
C130 C129 1.346 . S
C130 H137 0.929 . S
C131 O121 1.282 . S
C131 O132 1.216 . S
O132 C131 1.216 . S
H133 C128 0.930 . S
H134 C129 0.930 . S
O135 Cu115 1.959 . S
O135 C122 1.251 . S
H136 C119 0.930 . S
H137 C130 0.929 . S
Cu138 N139 1.999 . S
Cu138 O144 1.974 . S
Cu138 N149 1.985 . S
Cu138 O158 1.959 . S
N139 Cu138 1.999 . S
N139 C141 1.263 . S
N139 C143 1.389 . S
N140 C141 1.358 . S
N140 C142 1.400 . S
C141 N139 1.263 . S
C141 N140 1.358 . S
C141 H147 0.930 . S
C142 N140 1.400 . S
C142 C143 1.351 . S
C142 H159 0.930 . S
C143 N139 1.389 . S
C143 C142 1.351 . S
C143 H148 0.930 . S
O144 Cu138 1.974 . S
O144 C154 1.282 . S
C145 O146 1.261 . S
C145 O158 1.251 . S
O146 C145 1.261 . S
H147 C141 0.930 . S
H148 C143 0.930 . S
N149 Cu138 1.985 . S
N149 C151 1.335 . S
N149 C152 1.390 . S
N150 C151 1.345 . S
N150 C153 1.336 . S
C151 N149 1.335 . S
C151 N150 1.345 . S
C151 H156 0.930 . S
C152 N149 1.390 . S
C152 C153 1.346 . S
C152 H157 0.930 . S
C153 N150 1.336 . S
C153 C152 1.346 . S
C153 H160 0.929 . S
C154 O144 1.282 . S
C154 O155 1.216 . S
O155 C154 1.216 . S
H156 C151 0.930 . S
H157 C152 0.930 . S
O158 Cu138 1.959 . S
O158 C145 1.251 . S
H159 C142 0.930 . S
H160 C153 0.929 . S
Cu161 N162 1.999 . S
Cu161 O167 1.974 1_554 S
Cu161 N172 1.985 . S
Cu161 O181 1.959 . S
N162 Cu161 1.999 . S
N162 C164 1.263 1_554 S
N162 C166 1.389 . S
N163 C164 1.358 1_554 S
N163 C165 1.400 . S
C164 N162 1.263 1_556 S
C164 N163 1.358 1_556 S
C164 H170 0.930 . S
C165 N163 1.400 . S
C165 C166 1.351 . S
C165 H182 0.930 . S
C166 N162 1.389 . S
C166 C165 1.351 . S
C166 H171 0.930 . S
O167 Cu161 1.974 1_556 S
O167 C177 1.282 . S
C168 O169 1.261 . S
C168 O181 1.251 . S
O169 C168 1.261 . S
H170 C164 0.930 . S
H171 C166 0.930 . S
N172 Cu161 1.985 . S
N172 C174 1.335 . S
N172 C175 1.390 1_554 S
N173 C174 1.345 . S
N173 C176 1.336 1_554 S
C174 N172 1.335 . S
C174 N173 1.345 . S
C174 H179 0.930 . S
C175 N172 1.390 1_556 S
C175 C176 1.346 . S
C175 H180 0.930 . S
C176 N173 1.336 1_556 S
C176 C175 1.346 . S
C176 H183 0.929 . S
C177 O167 1.282 . S
C177 O178 1.216 . S
O178 C177 1.216 . S
H179 C174 0.930 . S
H180 C175 0.930 . S
O181 Cu161 1.959 . S
O181 C168 1.251 . S
H182 C165 0.930 . S
H183 C176 0.929 . S
H184 C192 0.929 . S
H185 C194 0.930 . S
H186 C196 0.930 . S
H187 C199 0.929 . S
H188 C202 0.930 . S
H189 C204 0.960 . S
H190 C204 0.960 . S
H191 C204 0.960 . S
C192 H184 0.929 . S
C192 C193 1.377 . S
C192 C194 1.384 . S
C193 C192 1.377 . S
C193 C199 1.390 . S
C194 H185 0.930 . S
C194 C192 1.384 . S
C194 C195 1.372 . S
C195 C194 1.372 . S
C195 C196 1.400 . S
C195 C200 1.490 . S
C196 H186 0.930 . S
C196 C195 1.400 . S
C196 C199 1.386 . S
H197 C213 0.930 . S
H198 C214 0.931 . S
C199 H187 0.929 . S
C199 C193 1.390 . S
C199 C196 1.386 . S
C200 C195 1.490 . S
C200 C202 1.395 . S
C200 C203 1.403 . S
H201 C207 0.930 . S
C202 H188 0.930 . S
C202 C200 1.395 . S
C202 C205 1.403 . S
C203 C200 1.403 . S
C203 C204 1.524 . S
C203 C207 1.400 . S
C204 H189 0.960 . S
C204 H190 0.960 . S
C204 H191 0.960 . S
C204 C203 1.524 . S
C205 C202 1.403 . S
C205 C206 1.392 . S
C205 C209 1.495 . S
C206 C205 1.392 . S
C206 C207 1.385 . S
C206 C208 1.478 . S
C207 H201 0.930 . S
C207 C203 1.400 . S
C207 C206 1.385 . S
C208 C206 1.478 . S
C208 C210 1.381 . S
C208 C214 1.383 . S
C209 C205 1.495 . S
C209 H215 0.959 . S
C209 H216 0.961 . S
C209 H217 0.960 . S
C210 C208 1.381 . S
C210 C211 1.394 . S
C210 H218 0.930 . S
C211 C210 1.394 . S
C211 C212 1.383 . S
C211 H219 0.929 . S
C212 C211 1.383 . S
C212 C213 1.377 . S
C213 H197 0.930 . S
C213 C212 1.377 . S
C213 C214 1.379 . S
C214 H198 0.931 . S
C214 C208 1.383 . S
C214 C213 1.379 . S
H215 C209 0.959 . S
H216 C209 0.961 . S
H217 C209 0.960 . S
H218 C210 0.930 . S
H219 C211 0.929 . S
H220 C228 0.929 . S
H221 C230 0.930 . S
H222 C232 0.930 . S
H223 C235 0.929 . S
H224 C238 0.930 . S
H225 C240 0.960 . S
H226 C240 0.960 . S
H227 C240 0.960 . S
C228 H220 0.929 . S
C228 C229 1.377 . S
C228 C230 1.384 . S
C229 C228 1.377 . S
C229 C235 1.390 . S
C230 H221 0.930 . S
C230 C228 1.384 . S
C230 C231 1.372 . S
C231 C230 1.372 . S
C231 C232 1.400 . S
C231 C236 1.490 . S
C232 H222 0.930 . S
C232 C231 1.400 . S
C232 C235 1.386 . S
H233 C249 0.930 . S
H234 C250 0.931 . S
C235 H223 0.929 . S
C235 C229 1.390 . S
C235 C232 1.386 . S
C236 C231 1.490 . S
C236 C238 1.395 . S
C236 C239 1.403 . S
H237 C243 0.930 . S
C238 H224 0.930 . S
C238 C236 1.395 . S
C238 C241 1.403 . S
C239 C236 1.403 . S
C239 C240 1.524 . S
C239 C243 1.400 . S
C240 H225 0.960 . S
C240 H226 0.960 . S
C240 H227 0.960 . S
C240 C239 1.524 . S
C241 C238 1.403 . S
C241 C242 1.392 . S
C241 C245 1.495 . S
C242 C241 1.392 . S
C242 C243 1.385 . S
C242 C244 1.478 . S
C243 H237 0.930 . S
C243 C239 1.400 . S
C243 C242 1.385 . S
C244 C242 1.478 . S
C244 C246 1.381 . S
C244 C250 1.383 . S
C245 C241 1.495 . S
C245 H251 0.959 . S
C245 H252 0.961 . S
C245 H253 0.960 . S
C246 C244 1.381 . S
C246 C247 1.394 . S
C246 H254 0.930 . S
C247 C246 1.394 . S
C247 C248 1.383 . S
C247 H255 0.929 . S
C248 C247 1.383 . S
C248 C249 1.377 . S
C249 H233 0.930 . S
C249 C248 1.377 . S
C249 C250 1.379 . S
C250 H234 0.931 . S
C250 C244 1.383 . S
C250 C249 1.379 . S
H251 C245 0.959 . S
H252 C245 0.961 . S
H253 C245 0.960 . S
H254 C246 0.930 . S
H255 C247 0.929 . S
H256 C264 0.929 . S
H257 C266 0.930 . S
H258 C268 0.930 . S
H259 C271 0.929 . S
H260 C274 0.930 . S
H261 C276 0.960 . S
H262 C276 0.960 . S
H263 C276 0.960 . S
C264 H256 0.929 . S
C264 C265 1.377 . S
C264 C266 1.384 . S
C265 C264 1.377 . S
C265 C271 1.390 . S
C266 H257 0.930 . S
C266 C264 1.384 . S
C266 C267 1.372 . S
C267 C266 1.372 . S
C267 C268 1.400 . S
C267 C272 1.490 . S
C268 H258 0.930 . S
C268 C267 1.400 . S
C268 C271 1.386 . S
H269 C285 0.930 . S
H270 C286 0.931 . S
C271 H259 0.929 . S
C271 C265 1.390 . S
C271 C268 1.386 . S
C272 C267 1.490 . S
C272 C274 1.395 . S
C272 C275 1.403 . S
H273 C279 0.930 . S
C274 H260 0.930 . S
C274 C272 1.395 . S
C274 C277 1.403 . S
C275 C272 1.403 . S
C275 C276 1.524 . S
C275 C279 1.400 . S
C276 H261 0.960 . S
C276 H262 0.960 . S
C276 H263 0.960 . S
C276 C275 1.524 . S
C277 C274 1.403 . S
C277 C278 1.392 . S
C277 C281 1.495 . S
C278 C277 1.392 . S
C278 C279 1.385 . S
C278 C280 1.478 . S
C279 H273 0.930 . S
C279 C275 1.400 . S
C279 C278 1.385 . S
C280 C278 1.478 . S
C280 C282 1.381 . S
C280 C286 1.383 . S
C281 C277 1.495 . S
C281 H287 0.959 . S
C281 H288 0.961 . S
C281 H289 0.960 . S
C282 C280 1.381 . S
C282 C283 1.394 . S
C282 H290 0.930 . S
C283 C282 1.394 . S
C283 C284 1.383 . S
C283 H291 0.929 . S
C284 C283 1.383 . S
C284 C285 1.377 . S
C285 H269 0.930 . S
C285 C284 1.377 . S
C285 C286 1.379 . S
C286 H270 0.931 . S
C286 C280 1.383 . S
C286 C285 1.379 . S
H287 C281 0.959 . S
H288 C281 0.961 . S
H289 C281 0.960 . S
H290 C282 0.930 . S
H291 C283 0.929 . S
H292 C300 0.929 . S
H293 C302 0.930 . S
H294 C304 0.930 . S
H295 C307 0.929 . S
H296 C310 0.930 . S
H297 C312 0.960 . S
H298 C312 0.960 . S
H299 C312 0.960 . S
C300 H292 0.929 . S
C300 C301 1.377 . S
C300 C302 1.384 . S
C301 C300 1.377 . S
C301 C307 1.390 . S
C302 H293 0.930 . S
C302 C300 1.384 . S
C302 C303 1.372 . S
C303 C302 1.372 . S
C303 C304 1.400 . S
C303 C308 1.490 . S
C304 H294 0.930 . S
C304 C303 1.400 . S
C304 C307 1.386 . S
H305 C321 0.930 . S
H306 C322 0.931 . S
C307 H295 0.929 . S
C307 C301 1.390 . S
C307 C304 1.386 . S
C308 C303 1.490 . S
C308 C310 1.395 . S
C308 C311 1.403 . S
H309 C315 0.930 . S
C310 H296 0.930 . S
C310 C308 1.395 . S
C310 C313 1.403 . S
C311 C308 1.403 . S
C311 C312 1.524 . S
C311 C315 1.400 . S
C312 H297 0.960 . S
C312 H298 0.960 . S
C312 H299 0.960 . S
C312 C311 1.524 . S
C313 C310 1.403 . S
C313 C314 1.392 . S
C313 C317 1.495 . S
C314 C313 1.392 . S
C314 C315 1.385 . S
C314 C316 1.478 . S
C315 H309 0.930 . S
C315 C311 1.400 . S
C315 C314 1.385 . S
C316 C314 1.478 . S
C316 C318 1.381 . S
C316 C322 1.383 . S
C317 C313 1.495 . S
C317 H323 0.959 . S
C317 H324 0.961 . S
C317 H325 0.960 . S
C318 C316 1.381 . S
C318 C319 1.394 . S
C318 H326 0.930 . S
C319 C318 1.394 . S
C319 C320 1.383 . S
C319 H327 0.929 . S
C320 C319 1.383 . S
C320 C321 1.377 . S
C321 H305 0.930 . S
C321 C320 1.377 . S
C321 C322 1.379 . S
C322 H306 0.931 . S
C322 C316 1.383 . S
C322 C321 1.379 . S
H323 C317 0.959 . S
H324 C317 0.961 . S
H325 C317 0.960 . S
H326 C318 0.930 . S
H327 C319 0.929 . S
H328 C336 0.929 . S
H329 C338 0.930 . S
H330 C340 0.930 . S
H331 C343 0.929 . S
H332 C346 0.930 . S
H333 C348 0.960 . S
H334 C348 0.960 . S
H335 C348 0.960 . S
C336 H328 0.929 . S
C336 C337 1.377 . S
C336 C338 1.384 . S
C337 C336 1.377 . S
C337 C343 1.390 . S
C338 H329 0.930 . S
C338 C336 1.384 . S
C338 C339 1.372 . S
C339 C338 1.372 . S
C339 C340 1.400 . S
C339 C344 1.490 . S
C340 H330 0.930 . S
C340 C339 1.400 . S
C340 C343 1.386 . S
H341 C357 0.930 . S
H342 C358 0.931 . S
C343 H331 0.929 . S
C343 C337 1.390 . S
C343 C340 1.386 . S
C344 C339 1.490 . S
C344 C346 1.395 . S
C344 C347 1.403 . S
H345 C351 0.930 . S
C346 H332 0.930 . S
C346 C344 1.395 . S
C346 C349 1.403 . S
C347 C344 1.403 . S
C347 C348 1.524 . S
C347 C351 1.400 . S
C348 H333 0.960 . S
C348 H334 0.960 . S
C348 H335 0.960 . S
C348 C347 1.524 . S
C349 C346 1.403 . S
C349 C350 1.392 . S
C349 C353 1.495 . S
C350 C349 1.392 . S
C350 C351 1.385 . S
C350 C352 1.478 . S
C351 H345 0.930 . S
C351 C347 1.400 . S
C351 C350 1.385 . S
C352 C350 1.478 . S
C352 C354 1.381 . S
C352 C358 1.383 . S
C353 C349 1.495 . S
C353 H359 0.959 . S
C353 H360 0.961 . S
C353 H361 0.960 . S
C354 C352 1.381 . S
C354 C355 1.394 . S
C354 H362 0.930 . S
C355 C354 1.394 . S
C355 C356 1.383 . S
C355 H363 0.929 . S
C356 C355 1.383 . S
C356 C357 1.377 . S
C357 H341 0.930 . S
C357 C356 1.377 . S
C357 C358 1.379 . S
C358 H342 0.931 . S
C358 C352 1.383 . S
C358 C357 1.379 . S
H359 C353 0.959 . S
H360 C353 0.961 . S
H361 C353 0.960 . S
H362 C354 0.930 . S
H363 C355 0.929 . S
H364 C372 0.929 . S
H365 C374 0.930 . S
H366 C376 0.930 . S
H367 C379 0.929 . S
H368 C382 0.930 . S
H369 C384 0.960 . S
H370 C384 0.960 . S
H371 C384 0.960 . S
C372 H364 0.929 . S
C372 C373 1.377 . S
C372 C374 1.384 . S
C373 C372 1.377 . S
C373 C379 1.390 . S
C374 H365 0.930 . S
C374 C372 1.384 . S
C374 C375 1.372 . S
C375 C374 1.372 . S
C375 C376 1.400 . S
C375 C380 1.490 . S
C376 H366 0.930 . S
C376 C375 1.400 . S
C376 C379 1.386 . S
H377 C393 0.930 . S
H378 C394 0.931 . S
C379 H367 0.929 . S
C379 C373 1.390 . S
C379 C376 1.386 . S
C380 C375 1.490 . S
C380 C382 1.395 . S
C380 C383 1.403 . S
H381 C387 0.930 . S
C382 H368 0.930 . S
C382 C380 1.395 . S
C382 C385 1.403 . S
C383 C380 1.403 . S
C383 C384 1.524 . S
C383 C387 1.400 . S
C384 H369 0.960 . S
C384 H370 0.960 . S
C384 H371 0.960 . S
C384 C383 1.524 . S
C385 C382 1.403 . S
C385 C386 1.392 . S
C385 C389 1.495 . S
C386 C385 1.392 . S
C386 C387 1.385 . S
C386 C388 1.478 . S
C387 H381 0.930 . S
C387 C383 1.400 . S
C387 C386 1.385 . S
C388 C386 1.478 . S
C388 C390 1.381 . S
C388 C394 1.383 . S
C389 C385 1.495 . S
C389 H395 0.959 . S
C389 H396 0.961 . S
C389 H397 0.960 . S
C390 C388 1.381 . S
C390 C391 1.394 . S
C390 H398 0.930 . S
C391 C390 1.394 . S
C391 C392 1.383 . S
C391 H399 0.929 . S
C392 C391 1.383 . S
C392 C393 1.377 . S
C393 H377 0.930 . S
C393 C392 1.377 . S
C393 C394 1.379 . S
C394 H378 0.931 . S
C394 C388 1.383 . S
C394 C393 1.379 . S
H395 C389 0.959 . S
H396 C389 0.961 . S
H397 C389 0.960 . S
H398 C390 0.930 . S
H399 C391 0.929 . S
H400 C408 0.929 . S
H401 C410 0.930 . S
H402 C412 0.930 . S
H403 C415 0.929 . S
H404 C418 0.930 . S
H405 C420 0.960 . S
H406 C420 0.960 . S
H407 C420 0.960 . S
C408 H400 0.929 . S
C408 C409 1.377 . S
C408 C410 1.384 . S
C409 C408 1.377 . S
C409 C415 1.390 . S
C410 H401 0.930 . S
C410 C408 1.384 . S
C410 C411 1.372 . S
C411 C410 1.372 . S
C411 C412 1.400 . S
C411 C416 1.490 . S
C412 H402 0.930 . S
C412 C411 1.400 . S
C412 C415 1.386 . S
H413 C429 0.930 . S
H414 C430 0.931 . S
C415 H403 0.929 . S
C415 C409 1.390 . S
C415 C412 1.386 . S
C416 C411 1.490 . S
C416 C418 1.395 . S
C416 C419 1.403 . S
H417 C423 0.930 . S
C418 H404 0.930 . S
C418 C416 1.395 . S
C418 C421 1.403 . S
C419 C416 1.403 . S
C419 C420 1.524 . S
C419 C423 1.400 . S
C420 H405 0.960 . S
C420 H406 0.960 . S
C420 H407 0.960 . S
C420 C419 1.524 . S
C421 C418 1.403 . S
C421 C422 1.392 . S
C421 C425 1.495 . S
C422 C421 1.392 . S
C422 C423 1.385 . S
C422 C424 1.478 . S
C423 H417 0.930 . S
C423 C419 1.400 . S
C423 C422 1.385 . S
C424 C422 1.478 . S
C424 C426 1.381 . S
C424 C430 1.383 . S
C425 C421 1.495 . S
C425 H431 0.959 . S
C425 H432 0.961 . S
C425 H433 0.960 . S
C426 C424 1.381 . S
C426 C427 1.394 . S
C426 H434 0.930 . S
C427 C426 1.394 . S
C427 C428 1.383 . S
C427 H435 0.929 . S
C428 C427 1.383 . S
C428 C429 1.377 . S
C429 H413 0.930 . S
C429 C428 1.377 . S
C429 C430 1.379 . S
C430 H414 0.931 . S
C430 C424 1.383 . S
C430 C429 1.379 . S
H431 C425 0.959 . S
H432 C425 0.961 . S
H433 C425 0.960 . S
H434 C426 0.930 . S
H435 C427 0.929 . S
H436 C444 0.929 . S
H437 C446 0.930 . S
H438 C448 0.930 . S
H439 C451 0.929 . S
H440 C454 0.930 . S
H441 C456 0.960 . S
H442 C456 0.960 . S
H443 C456 0.960 . S
C444 H436 0.929 . S
C444 C445 1.377 . S
C444 C446 1.384 . S
C445 C444 1.377 . S
C445 C451 1.390 . S
C446 H437 0.930 . S
C446 C444 1.384 . S
C446 C447 1.372 . S
C447 C446 1.372 . S
C447 C448 1.400 . S
C447 C452 1.490 . S
C448 H438 0.930 . S
C448 C447 1.400 . S
C448 C451 1.386 . S
H449 C465 0.930 . S
H450 C466 0.931 . S
C451 H439 0.929 . S
C451 C445 1.390 . S
C451 C448 1.386 . S
C452 C447 1.490 . S
C452 C454 1.395 . S
C452 C455 1.403 . S
H453 C459 0.930 . S
C454 H440 0.930 . S
C454 C452 1.395 . S
C454 C457 1.403 . S
C455 C452 1.403 . S
C455 C456 1.524 . S
C455 C459 1.400 . S
C456 H441 0.960 . S
C456 H442 0.960 . S
C456 H443 0.960 . S
C456 C455 1.524 . S
C457 C454 1.403 . S
C457 C458 1.392 . S
C457 C461 1.495 . S
C458 C457 1.392 . S
C458 C459 1.385 . S
C458 C460 1.478 . S
C459 H453 0.930 . S
C459 C455 1.400 . S
C459 C458 1.385 . S
C460 C458 1.478 . S
C460 C462 1.381 . S
C460 C466 1.383 . S
C461 C457 1.495 . S
C461 H467 0.959 . S
C461 H468 0.961 . S
C461 H469 0.960 . S
C462 C460 1.381 . S
C462 C463 1.394 . S
C462 H470 0.930 . S
C463 C462 1.394 . S
C463 C464 1.383 . S
C463 H471 0.929 . S
C464 C463 1.383 . S
C464 C465 1.377 . S
C465 H449 0.930 . S
C465 C464 1.377 . S
C465 C466 1.379 . S
C466 H450 0.931 . S
C466 C460 1.383 . S
C466 C465 1.379 . S
H467 C461 0.959 . S
H468 C461 0.961 . S
H469 C461 0.960 . S
H470 C462 0.930 . S
H471 C463 0.929 . S
H472 C480 0.929 . S
H473 C482 0.930 . S
H474 C484 0.930 . S
H475 C487 0.929 . S
H476 C490 0.930 . S
H477 C492 0.960 . S
H478 C492 0.960 . S
H479 C492 0.960 . S
C480 H472 0.929 . S
C480 C481 1.377 . S
C480 C482 1.384 . S
C481 C480 1.377 . S
C481 C487 1.390 . S
C482 H473 0.930 . S
C482 C480 1.384 . S
C482 C483 1.372 . S
C483 C482 1.372 . S
C483 C484 1.400 . S
C483 C488 1.490 . S
C484 H474 0.930 . S
C484 C483 1.400 . S
C484 C487 1.386 . S
H485 C501 0.943 . S
H486 C502 0.959 . S
C487 H475 0.929 . S
C487 C481 1.390 . S
C487 C484 1.386 . S
C488 C483 1.490 . S
C488 C490 1.395 . S
C488 C491 1.403 . S
H489 C495 0.930 . S
C490 H476 0.930 . S
C490 C488 1.395 . S
C490 C493 1.403 1_655 S
C491 C488 1.403 . S
C491 C492 1.524 . S
C491 C495 1.400 1_655 S
C492 H477 0.960 . S
C492 H478 0.960 . S
C492 H479 0.960 . S
C492 C491 1.524 . S
C493 C490 1.403 1_455 S
C493 C494 1.392 . S
C493 C497 1.495 . S
C494 C493 1.392 . S
C494 C495 1.385 . S
C494 C496 1.478 . S
C495 H489 0.930 . S
C495 C491 1.400 1_455 S
C495 C494 1.385 . S
C496 C494 1.478 . S
C496 C498 1.381 . S
C496 C502 1.383 . S
C497 C493 1.495 . S
C497 H503 0.959 . S
C497 H504 0.961 . S
C497 H505 0.960 . S
C498 C496 1.381 . S
C498 C499 1.394 . S
C498 H506 0.930 . S
C499 C498 1.394 . S
C499 C500 1.383 . S
C499 H507 0.929 . S
C500 C499 1.383 . S
C500 C501 1.377 . S
C501 H485 0.943 . S
C501 C500 1.377 . S
C501 C502 1.379 . S
C502 H486 0.959 . S
C502 C496 1.383 . S
C502 C501 1.379 . S
H503 C497 0.959 . S
H504 C497 0.961 . S
H505 C497 0.960 . S
H506 C498 0.930 . S
H507 C499 0.929 . S
H508 C516 0.929 . S
H509 C518 0.930 . S
H510 C520 0.930 . S
H511 C523 0.929 . S
H512 C526 0.930 . S
H513 C528 0.960 . S
H514 C528 0.960 . S
H515 C528 0.960 . S
C516 H508 0.929 . S
C516 C517 1.377 . S
C516 C518 1.384 . S
C517 C516 1.377 . S
C517 C523 1.390 . S
C518 H509 0.930 . S
C518 C516 1.384 . S
C518 C519 1.372 . S
C519 C518 1.372 . S
C519 C520 1.400 . S
C519 C524 1.490 . S
C520 H510 0.930 . S
C520 C519 1.400 . S
C520 C523 1.386 . S
H521 C537 0.930 . S
H522 C538 0.931 . S
C523 H511 0.929 . S
C523 C517 1.390 . S
C523 C520 1.386 . S
C524 C519 1.490 . S
C524 C526 1.395 . S
C524 C527 1.403 . S
H525 C531 0.930 . S
C526 H512 0.930 . S
C526 C524 1.395 . S
C526 C529 1.403 1_565 S
C527 C524 1.403 . S
C527 C528 1.524 . S
C527 C531 1.400 1_565 S
C528 H513 0.960 . S
C528 H514 0.960 . S
C528 H515 0.960 . S
C528 C527 1.524 . S
C529 C526 1.403 1_545 S
C529 C530 1.392 . S
C529 C533 1.495 . S
C530 C529 1.392 . S
C530 C531 1.385 . S
C530 C532 1.478 . S
C531 H525 0.930 . S
C531 C527 1.400 1_545 S
C531 C530 1.385 . S
C532 C530 1.478 . S
C532 C534 1.381 . S
C532 C538 1.383 . S
C533 C529 1.495 . S
C533 H539 0.959 . S
C533 H540 0.961 . S
C533 H541 0.960 . S
C534 C532 1.381 . S
C534 C535 1.394 . S
C534 H542 0.930 . S
C535 C534 1.394 . S
C535 C536 1.383 . S
C535 H543 0.929 . S
C536 C535 1.383 . S
C536 C537 1.377 . S
C537 H521 0.930 . S
C537 C536 1.377 . S
C537 C538 1.379 . S
C538 H522 0.931 . S
C538 C532 1.383 . S
C538 C537 1.379 . S
H539 C533 0.959 . S
H540 C533 0.961 . S
H541 C533 0.960 . S
H542 C534 0.930 . S
H543 C535 0.929 . S
H544 C552 0.929 . S
H545 C554 0.930 . S
H546 C556 0.930 . S
H547 C559 0.929 . S
H548 C562 0.930 . S
H549 C564 0.960 . S
H550 C564 0.960 . S
H551 C564 0.960 . S
C552 H544 0.929 . S
C552 C553 1.377 . S
C552 C554 1.384 . S
C553 C552 1.377 . S
C553 C559 1.390 . S
C554 H545 0.930 . S
C554 C552 1.384 . S
C554 C555 1.372 . S
C555 C554 1.372 . S
C555 C556 1.400 . S
C555 C560 1.490 . S
C556 H546 0.930 . S
C556 C555 1.400 . S
C556 C559 1.386 . S
H557 C573 0.930 . S
H558 C574 0.931 . S
C559 H547 0.929 . S
C559 C553 1.390 . S
C559 C556 1.386 . S
C560 C555 1.490 . S
C560 C562 1.395 . S
C560 C563 1.403 . S
H561 C567 0.930 . S
C562 H548 0.930 . S
C562 C560 1.395 . S
C562 C565 1.403 1_455 S
C563 C560 1.403 . S
C563 C564 1.524 . S
C563 C567 1.400 1_455 S
C564 H549 0.960 . S
C564 H550 0.960 . S
C564 H551 0.960 . S
C564 C563 1.524 . S
C565 C562 1.403 1_655 S
C565 C566 1.392 . S
C565 C569 1.495 . S
C566 C565 1.392 . S
C566 C567 1.385 . S
C566 C568 1.478 . S
C567 H561 0.930 . S
C567 C563 1.400 1_655 S
C567 C566 1.385 . S
C568 C566 1.478 . S
C568 C570 1.381 . S
C568 C574 1.383 . S
C569 C565 1.495 . S
C569 H575 0.959 . S
C569 H576 0.961 . S
C569 H577 0.960 . S
C570 C568 1.381 . S
C570 C571 1.394 . S
C570 H578 0.930 . S
C571 C570 1.394 . S
C571 C572 1.383 . S
C571 H579 0.929 . S
C572 C571 1.383 . S
C572 C573 1.377 . S
C573 H557 0.930 . S
C573 C572 1.377 . S
C573 C574 1.379 . S
C574 H558 0.931 . S
C574 C568 1.383 . S
C574 C573 1.379 . S
H575 C569 0.959 . S
H576 C569 0.961 . S
H577 C569 0.960 . S
H578 C570 0.930 . S
H579 C571 0.929 . S
H580 C588 0.929 . S
H581 C590 0.930 . S
H582 C592 0.930 . S
H583 C595 0.929 . S
H584 C598 0.930 . S
H585 C600 0.960 . S
H586 C600 0.960 . S
H587 C600 0.960 . S
C588 H580 0.929 . S
C588 C589 1.377 1_554 S
C588 C590 1.384 . S
C589 C588 1.377 1_556 S
C589 C595 1.390 . S
C590 H581 0.930 . S
C590 C588 1.384 . S
C590 C591 1.372 1_554 S
C591 C590 1.372 1_556 S
C591 C592 1.400 . S
C591 C596 1.490 . S
C592 H582 0.930 . S
C592 C591 1.400 . S
C592 C595 1.386 . S
H593 C609 0.930 . S
H594 C610 0.931 . S
C595 H583 0.929 . S
C595 C589 1.390 . S
C595 C592 1.386 . S
C596 C591 1.490 . S
C596 C598 1.395 1_556 S
C596 C599 1.403 . S
H597 C603 0.930 . S
C598 H584 0.930 . S
C598 C596 1.395 1_554 S
C598 C601 1.403 1_565 S
C599 C596 1.403 . S
C599 C600 1.524 . S
C599 C603 1.400 1_565 S
C600 H585 0.960 . S
C600 H586 0.960 . S
C600 H587 0.960 . S
C600 C599 1.524 . S
C601 C598 1.403 1_545 S
C601 C602 1.392 . S
C601 C605 1.495 . S
C602 C601 1.392 . S
C602 C603 1.385 1_554 S
C602 C604 1.478 . S
C603 H597 0.930 . S
C603 C599 1.400 1_545 S
C603 C602 1.385 1_556 S
C604 C602 1.478 . S
C604 C606 1.381 . S
C604 C610 1.383 1_554 S
C605 C601 1.495 . S
C605 H611 0.959 . S
C605 H612 0.961 . S
C605 H613 0.960 . S
C606 C604 1.381 . S
C606 C607 1.394 . S
C606 H614 0.930 . S
C607 C606 1.394 . S
C607 C608 1.383 1_554 S
C607 H615 0.929 . S
C608 C607 1.383 1_556 S
C608 C609 1.377 . S
C609 H593 0.930 . S
C609 C608 1.377 . S
C609 C610 1.379 . S
C610 H594 0.931 . S
C610 C604 1.383 1_556 S
C610 C609 1.379 . S
H611 C605 0.959 . S
H612 C605 0.961 . S
H613 C605 0.960 . S
H614 C606 0.930 . S
H615 C607 0.929 . S
H616 C624 0.929 . S
H617 C626 0.930 . S
H618 C628 0.930 . S
H619 C631 0.929 . S
H620 C634 0.930 . S
H621 C636 0.960 . S
H622 C636 0.960 . S
H623 C636 0.960 . S
C624 H616 0.929 . S
C624 C625 1.377 . S
C624 C626 1.384 . S
C625 C624 1.377 . S
C625 C631 1.390 . S
C626 H617 0.930 . S
C626 C624 1.384 . S
C626 C627 1.372 . S
C627 C626 1.372 . S
C627 C628 1.400 . S
C627 C632 1.490 . S
C628 H618 0.930 . S
C628 C627 1.400 . S
C628 C631 1.386 . S
H629 C645 0.930 . S
H630 C646 0.931 . S
C631 H619 0.929 . S
C631 C625 1.390 . S
C631 C628 1.386 . S
C632 C627 1.490 . S
C632 C634 1.395 . S
C632 C635 1.413 . S
H633 C639 0.930 1_556 S
C634 H620 0.930 . S
C634 C632 1.395 . S
C634 C637 1.403 . S
C635 C632 1.413 . S
C635 C636 1.512 1_554 S
C635 C639 1.401 . S
C636 H621 0.960 . S
C636 H622 0.960 . S
C636 H623 0.960 . S
C636 C635 1.512 1_556 S
C637 C634 1.403 . S
C637 C638 1.392 . S
C637 C641 1.495 . S
C638 C637 1.392 . S
C638 C639 1.385 . S
C638 C640 1.478 . S
C639 H633 0.930 1_554 S
C639 C635 1.401 . S
C639 C638 1.385 . S
C640 C638 1.478 . S
C640 C642 1.381 . S
C640 C646 1.383 . S
C641 C637 1.495 . S
C641 H647 0.959 . S
C641 H648 0.961 . S
C641 H649 0.960 . S
C642 C640 1.381 . S
C642 C643 1.394 . S
C642 H650 0.930 . S
C643 C642 1.394 . S
C643 C644 1.383 . S
C643 H651 0.929 . S
C644 C643 1.383 . S
C644 C645 1.377 . S
C645 H629 0.930 . S
C645 C644 1.377 . S
C645 C646 1.379 . S
C646 H630 0.931 . S
C646 C640 1.383 . S
C646 C645 1.379 . S
H647 C641 0.959 . S
H648 C641 0.961 . S
H649 C641 0.960 . S
H650 C642 0.930 . S
H651 C643 0.929 . S
H652 C660 0.929 . S
H653 C662 0.930 . S
H654 C664 0.930 . S
H655 C667 0.929 . S
H656 C670 0.930 . S
H657 C672 0.960 . S
H658 C672 0.960 . S
H659 C672 0.960 . S
C660 H652 0.929 . S
C660 C661 1.377 . S
C660 C662 1.384 . S
C661 C660 1.377 . S
C661 C667 1.390 . S
C662 H653 0.930 . S
C662 C660 1.384 . S
C662 C663 1.372 . S
C663 C662 1.372 . S
C663 C664 1.400 . S
C663 C668 1.490 . S
C664 H654 0.930 . S
C664 C663 1.400 . S
C664 C667 1.386 . S
H665 C681 0.930 . S
H666 C682 0.931 . S
C667 H655 0.929 . S
C667 C661 1.390 . S
C667 C664 1.386 . S
C668 C663 1.490 . S
C668 C670 1.395 . S
C668 C671 1.403 . S
H669 C675 0.930 . S
C670 H656 0.930 . S
C670 C668 1.395 . S
C670 C673 1.403 . S
C671 C668 1.403 . S
C671 C672 1.524 . S
C671 C675 1.400 . S
C672 H657 0.960 . S
C672 H658 0.960 . S
C672 H659 0.960 . S
C672 C671 1.524 . S
C673 C670 1.403 . S
C673 C674 1.392 . S
C673 C677 1.495 . S
C674 C673 1.392 . S
C674 C675 1.385 . S
C674 C676 1.478 . S
C675 H669 0.930 . S
C675 C671 1.400 . S
C675 C674 1.385 . S
C676 C674 1.478 . S
C676 C678 1.381 . S
C676 C682 1.383 . S
C677 C673 1.495 . S
C677 H683 0.959 . S
C677 H684 0.961 . S
C677 H685 0.960 . S
C678 C676 1.381 . S
C678 C679 1.394 . S
C678 H686 0.930 . S
C679 C678 1.394 . S
C679 C680 1.383 . S
C679 H687 0.929 . S
C680 C679 1.383 . S
C680 C681 1.377 . S
C681 H665 0.930 . S
C681 C680 1.377 . S
C681 C682 1.379 . S
C682 H666 0.931 . S
C682 C676 1.383 . S
C682 C681 1.379 . S
H683 C677 0.959 . S
H684 C677 0.961 . S
H685 C677 0.960 . S
H686 C678 0.930 . S
H687 C679 0.929 . S
H688 C696 0.929 1_556 S
H689 C698 0.930 1_556 S
H690 C700 0.930 . S
H691 C703 0.929 . S
H692 C706 0.930 . S
H693 C708 0.959 1_556 S
H694 C708 0.957 1_556 S
H695 C708 0.962 . S
C696 H688 0.929 1_554 S
C696 C697 1.377 . S
C696 C698 1.384 . S
C697 C696 1.377 . S
C697 C703 1.390 . S
C698 H689 0.930 1_554 S
C698 C696 1.384 . S
C698 C699 1.372 . S
C699 C698 1.372 . S
C699 C700 1.400 . S
C699 C704 1.490 . S
C700 H690 0.930 . S
C700 C699 1.400 . S
C700 C703 1.386 . S
H701 C717 0.930 . S
H702 C718 0.931 . S
C703 H691 0.929 . S
C703 C697 1.390 . S
C703 C700 1.386 . S
C704 C699 1.490 . S
C704 C706 1.395 . S
C704 C707 1.403 . S
H705 C711 0.930 . S
C706 H692 0.930 . S
C706 C704 1.395 . S
C706 C709 1.403 . S
C707 C704 1.403 . S
C707 C708 1.525 . S
C707 C711 1.400 . S
C708 H693 0.959 1_554 S
C708 H694 0.957 1_554 S
C708 H695 0.962 . S
C708 C707 1.525 . S
C709 C706 1.403 . S
C709 C710 1.392 . S
C709 C713 1.495 . S
C710 C709 1.392 . S
C710 C711 1.385 . S
C710 C712 1.478 . S
C711 H705 0.930 . S
C711 C707 1.400 . S
C711 C710 1.385 . S
C712 C710 1.478 . S
C712 C714 1.381 . S
C712 C718 1.383 . S
C713 C709 1.495 . S
C713 H719 0.959 . S
C713 H720 0.961 . S
C713 H721 0.960 . S
C714 C712 1.381 . S
C714 C715 1.394 . S
C714 H722 0.930 1_554 S
C715 C714 1.394 . S
C715 C716 1.383 . S
C715 H723 0.929 1_554 S
C716 C715 1.383 . S
C716 C717 1.377 . S
C717 H701 0.930 . S
C717 C716 1.377 . S
C717 C718 1.379 . S
C718 H702 0.931 . S
C718 C712 1.383 . S
C718 C717 1.379 . S
H719 C713 0.959 . S
H720 C713 0.961 . S
H721 C713 0.960 . S
H722 C714 0.930 1_556 S
H723 C715 0.929 1_556 S
H724 C732 0.929 . S
H725 C734 0.930 . S
H726 C736 0.930 . S
H727 C739 0.929 . S
H728 C742 0.930 . S
H729 C744 0.960 . S
H730 C744 0.960 . S
H731 C744 0.960 . S
C732 H724 0.929 . S
C732 C733 1.377 . S
C732 C734 1.384 . S
C733 C732 1.377 . S
C733 C739 1.390 . S
C734 H725 0.930 . S
C734 C732 1.384 . S
C734 C735 1.372 . S
C735 C734 1.372 . S
C735 C736 1.400 . S
C735 C740 1.490 . S
C736 H726 0.930 . S
C736 C735 1.400 . S
C736 C739 1.386 . S
H737 C753 0.930 . S
H738 C754 0.931 . S
C739 H727 0.929 . S
C739 C733 1.390 . S
C739 C736 1.386 . S
C740 C735 1.490 . S
C740 C742 1.395 . S
C740 C743 1.403 . S
H741 C747 0.930 . S
C742 H728 0.930 . S
C742 C740 1.395 . S
C742 C745 1.403 . S
C743 C740 1.403 . S
C743 C744 1.524 . S
C743 C747 1.400 . S
C744 H729 0.960 . S
C744 H730 0.960 . S
C744 H731 0.960 . S
C744 C743 1.524 . S
C745 C742 1.403 . S
C745 C746 1.392 . S
C745 C749 1.495 . S
C746 C745 1.392 . S
C746 C747 1.385 . S
C746 C748 1.478 . S
C747 H741 0.930 . S
C747 C743 1.400 . S
C747 C746 1.385 . S
C748 C746 1.478 . S
C748 C750 1.381 . S
C748 C754 1.383 . S
C749 C745 1.495 . S
C749 H755 0.959 . S
C749 H756 0.961 . S
C749 H757 0.960 . S
C750 C748 1.381 . S
C750 C751 1.394 . S
C750 H758 0.930 . S
C751 C750 1.394 . S
C751 C752 1.383 . S
C751 H759 0.929 . S
C752 C751 1.383 . S
C752 C753 1.377 . S
C753 H737 0.930 . S
C753 C752 1.377 . S
C753 C754 1.379 . S
C754 H738 0.931 . S
C754 C748 1.383 . S
C754 C753 1.379 . S
H755 C749 0.959 . S
H756 C749 0.961 . S
H757 C749 0.960 . S
H758 C750 0.930 . S
H759 C751 0.929 . S
C193 N12 0.378 . S
C212 N104 0.310 . S
C229 C39 1.669 . S
C248 C131 1.654 . S
C265 N150 0.382 . S
C284 N58 0.307 . S
C301 C177 1.666 . S
C320 C85 1.668 . S
C337 N140 1.418 . S
C356 N48 1.444 . S
C373 C168 2.790 . S
C392 C76 2.783 . S
C409 N2 1.417 . S
C428 N94 1.446 . S
C445 C30 2.789 . S
C464 C122 2.789 . S
C481 C53 1.924 . S
C500 C7 1.903 . S
C517 N71 1.833 . S
C536 N25 1.866 . S
C553 C99 1.925 . S
C572 C145 1.937 . S
C589 N163 1.845 1_556 S
C608 N117 1.817 1_556 S
C625 C16 1.878 . S
C644 N127 1.886 . S
C661 C154 1.878 . S
C680 N35 1.885 . S
C697 C62 1.876 . S
C716 N173 1.879 . S
C733 N81 1.864 . S
C752 C108 1.851 . S
