# Generated by pormake.
# Topology sxc, (6)-cn, num edge types: 1
# Building blocks:
#     Node 0, Type 0, BuildingBlock: BETDAH_clean_sbu_0, # of connection points: 6
#     Node 1, Type 0, BuildingBlock: BETDAH_clean_sbu_0, # of connection points: 6
#     Node 2, Type 0, BuildingBlock: BETDAH_clean_sbu_0, # of connection points: 6
#     Edge 3, Type (0, 0), BuildingBlock: ZUJKAS_clean_linker_0, # of connection points: 2
#     Edge 4, Type (0, 0), BuildingBlock: ZUJKAS_clean_linker_0, # of connection points: 2
#     Edge 5, Type (0, 0), BuildingBlock: ZUJKAS_clean_linker_0, # of connection points: 2
#     Edge 6, Type (0, 0), BuildingBlock: ZUJKAS_clean_linker_0, # of connection points: 2
#     Edge 7, Type (0, 0), BuildingBlock: ZUJKAS_clean_linker_0, # of connection points: 2
#     Edge 8, Type (0, 0), BuildingBlock: ZUJKAS_clean_linker_0, # of connection points: 2
#     Edge 9, Type (0, 0), BuildingBlock: ZUJKAS_clean_linker_0, # of connection points: 2
#     Edge 10, Type (0, 0), BuildingBlock: ZUJKAS_clean_linker_0, # of connection points: 2
#     Edge 11, Type (0, 0), BuildingBlock: ZUJKAS_clean_linker_0, # of connection points: 2
# Relax obj value: 0.212
# Max RMSD: 0.146
# Mean RMSD: 0.080
data_MOF--net-sxc--node1-BETDAH_clean_sbu_0--edge1-ZUJKAS_clean_linker_0
_symmetry_space_group_name_H-M    P1
_symmetry_Int_Tables_number       1
_symmetry_cell_setting            triclinic
loop_
_symmetry_equiv_pos_as_xyz
'x, y, z'
_cell_length_a     20.545779
_cell_length_b     22.411275
_cell_length_c     58.177379
_cell_angle_alpha  95.599939
_cell_angle_beta   90.993373
_cell_angle_gamma 99.036258
loop_
_atom_site_label
_atom_site_type_symbol
_atom_site_fract_x
_atom_site_fract_y
_atom_site_fract_z
_atom_type_partial_charge
Ho0 Ho 0.16691 0.11388 0.01222 0.0
Ho1 Ho 1.03507 0.1023 0.01933 0.0
C2 C 0.10149 0.24805 0.01714 0.0
C3 C 0.28452 0.14157 -0.00264 0.0
C4 C 0.33004 0.19893 -0.0007 0.0
C5 C 0.38119 0.2084 0.98384 0.0
C6 C 0.42211 0.2647 0.985 0.0
C7 C 0.41207 0.31196 0.00165 0.0
C8 C 0.36091 0.30185 0.0172 0.0
C9 C 0.32027 0.24578 0.01604 0.0
C10 C 0.14192 0.11538 0.05797 0.0
C11 C 0.10076 0.96811 0.01453 0.0
C12 C 0.91691 0.07511 0.0338 0.0
C13 C 0.86859 1.01971 0.03002 0.0
C14 C 0.81365 1.01118 0.04392 0.0
C15 C 0.76845 0.95738 0.04045 0.0
C16 C 0.77787 0.9118 0.02301 0.0
C17 C 0.83303 0.9209 0.0091 0.0
C18 C 0.87805 0.97443 0.0126 0.0
C19 C 1.06001 0.10071 0.97358 0.0
O20 O 0.15318 0.21944 0.01118 0.0
O21 O 1.04851 0.21033 0.02325 0.0
O22 O 0.27208 0.11819 0.01678 0.0
O23 O 0.23122 0.14067 0.9847 0.0
O24 O 0.18358 0.08543 0.04754 0.0
O25 O 0.1155 0.14431 0.04371 0.0
O26 O 1.04869 0.99658 0.02015 0.0
O27 O 0.1541 1.00592 0.00874 0.0
O28 O 0.93061 0.10288 0.0154 0.0
O29 O 0.96971 1.07065 0.04592 0.0
O30 O 1.01824 0.13045 0.984 0.0
O31 O 0.08633 1.07173 0.98785 0.0
H32 H 0.38895 0.17258 0.97076 0.0
H33 H 0.46146 0.27131 0.9729 0.0
H34 H 0.35123 0.33774 0.02992 0.0
H35 H 0.28058 0.23927 0.02801 0.0
H36 H 0.80595 1.04589 0.05746 0.0
H37 H 0.72614 0.95146 0.05134 0.0
H38 H 0.84216 0.88608 0.99582 0.0
H39 H 0.92054 0.98036 0.00178 0.0
Ho40 Ho 0.09039 0.16709 0.35101 0.0
Ho41 Ho 1.06396 1.04363 0.3467 0.0
C42 C 0.93682 0.10289 0.35236 0.0
C43 C 0.09538 0.27982 0.34397 0.0
C44 C 0.11633 0.31083 0.32372 0.0
C45 C 0.14277 0.27932 0.305 0.0
C46 C 0.1555 0.3061 0.28449 0.0
C47 C 0.14174 0.36484 0.28248 0.0
C48 C 0.11712 0.39679 0.30164 0.0
C49 C 0.10417 0.36983 0.32205 0.0
C50 C 0.09557 0.12656 0.39379 0.0
C51 C 0.21749 0.10543 0.34771 0.0
C52 C 1.06123 0.92757 0.34289 0.0
C53 C 0.08322 0.89101 0.32313 0.0
C54 C 0.06794 0.82769 0.32103 0.0
C55 C 0.08436 0.79387 0.30111 0.0
C56 C 0.11586 0.82299 0.28293 0.0
C57 C 0.13172 0.88659 0.2853 0.0
C58 C 0.11542 0.92029 0.30523 0.0
C59 C 1.06154 0.08868 0.30446 0.0
O60 O 0.97757 0.14891 0.34535 0.0
O61 O 0.96253 1.05646 0.35869 0.0
O62 O 1.04251 0.23931 0.34026 0.0
O63 O 0.14131 0.26004 0.35544 0.0
O64 O 0.13439 0.17184 0.38689 0.0
O65 O 1.05267 0.10556 0.378 0.0
O66 O 0.17568 1.05987 0.35447 0.0
O67 O 0.19289 0.15187 0.34085 0.0
O68 O 1.01036 0.95285 0.33825 0.0
O69 O 0.10745 0.96558 0.35458 0.0
O70 O 1.01794 1.0472 0.31134 0.0
O71 O 0.10455 0.10528 0.32041 0.0
H72 H 0.152 0.23347 0.30613 0.0
H73 H 0.17442 0.2804 0.27007 0.0
H74 H 0.10761 0.44275 0.30086 0.0
H75 H 0.08353 0.39458 0.33633 0.0
H76 H 1.04274 0.80452 0.33463 0.0
H77 H 0.07269 0.74482 0.30002 0.0
H78 H 0.15555 0.91036 0.2716 0.0
H79 H 0.1269 0.96941 0.3065 0.0
Ho80 Ho 0.08134 1.02639 0.68368 0.0
Ho81 Ho 0.09682 0.1555 0.68226 0.0
C82 C 0.9472 0.09051 0.68196 0.0
C83 C 1.05078 0.91386 0.6913 0.0
C84 C 0.99847 0.86484 0.68226 0.0
C85 C 1.00528 0.80444 0.68434 0.0
C86 C 0.95686 0.75729 0.67484 0.0
C87 C 0.90094 0.77005 0.66312 0.0
C88 C 0.89467 0.83087 0.66101 0.0
C89 C 0.94321 0.87788 0.67042 0.0
C90 C 0.09276 1.05932 0.63982 0.0
C91 C 0.22935 0.09202 0.68492 0.0
C92 C 0.12905 0.26648 0.67278 0.0
C93 C 0.19096 0.30336 0.6672 0.0
C94 C 0.18981 0.35078 0.65329 0.0
C95 C 0.24879 0.38445 0.64705 0.0
C96 C 0.30971 0.37082 0.65457 0.0
C97 C 0.31041 0.32294 0.66845 0.0
C98 C 0.25154 0.28967 0.67478 0.0
C99 C 0.08146 0.12167 0.72572 0.0
O100 O 0.97332 1.04193 0.68629 0.0
O101 O 0.98612 0.14057 0.67756 0.0
O102 O 0.09326 0.93257 0.67615 0.0
O103 O 1.03206 0.95868 0.70427 0.0
O104 O 0.11976 1.01677 0.64765 0.0
O105 O 1.05893 0.08131 0.65545 0.0
O106 O 0.20265 0.13636 0.67687 0.0
O107 O 0.19028 1.04667 0.69292 0.0
O108 O 0.1254 0.25077 0.69381 0.0
O109 O 0.10655 0.22153 0.65729 0.0
O110 O 1.05335 0.16321 0.71745 0.0
O111 O 0.11758 0.10025 0.71065 0.0
H112 H 1.04824 0.79377 0.69317 0.0
H113 H 0.96339 0.71087 0.67652 0.0
H114 H 0.85173 0.84225 0.65242 0.0
H115 H 0.93765 0.92437 0.66842 0.0
H116 H 0.14332 0.36165 0.64723 0.0
H117 H 0.24667 0.42155 0.63659 0.0
H118 H 0.35648 0.31072 0.67425 0.0
H119 H 0.25338 0.2531 0.6855 0.0
H120 H 0.20182 0.34963 0.00608 0.0
H121 H 0.20055 0.45958 0.00568 0.0
H122 H 1.00161 0.43449 0.02836 0.0
H123 H 1.00258 0.32536 0.02816 0.0
H124 H 0.20221 0.56677 0.02501 0.0
H125 H 0.94699 0.5517 0.99287 0.0
H126 H 0.95094 0.51567 0.01891 0.0
H127 H 0.98557 0.48497 0.99285 0.0
C128 C 0.15673 0.36623 0.01089 0.0
C129 C 0.10209 0.32231 0.01698 0.0
C130 C 0.15594 0.43214 0.0107 0.0
C131 C 0.10026 0.46267 0.01631 0.0
C132 C 1.04618 0.41848 0.02276 0.0
H133 H 1.00031 0.8663 0.02534 0.0
H134 H 1.00176 0.75639 0.02576 0.0
C135 C 1.04698 0.35281 0.02297 0.0
C136 C 0.09958 0.53726 0.01588 0.0
H137 H 1.00043 0.64938 0.00666 0.0
C138 C 0.15704 0.58312 0.02077 0.0
C139 C 1.0432 0.5664 0.01054 0.0
C140 C 0.97826 0.52744 0.00327 0.0
C141 C 0.15945 0.64977 0.02114 0.0
C142 C 0.10305 0.67892 0.0158 0.0
C143 C 1.0456 0.63305 0.0109 0.0
C144 C 0.1023 0.75351 0.01537 0.0
C145 C 0.22441 0.6887 0.0284 0.0
C146 C 0.15646 0.79783 0.00906 0.0
C147 C 0.15557 0.86349 0.00886 0.0
C148 C 0.10026 0.89386 0.0147 0.0
C149 C 1.04554 0.84981 0.02065 0.0
C150 C 1.04644 0.78392 0.02085 0.0
H151 H 0.25574 0.66439 0.03875 0.0
H152 H 0.25167 0.70054 0.01275 0.0
H153 H 0.21713 0.73112 0.03885 0.0
H154 H 0.20119 0.78196 0.00356 0.0
H155 H 0.20005 0.89104 0.00379 0.0
H156 H 0.28648 1.01689 0.36111 0.0
H157 H 0.40604 1.01697 0.36223 0.0
H158 H 0.437 0.19146 0.33553 0.0
H159 H 0.31784 0.19205 0.33477 0.0
H160 H 0.49874 1.01801 0.33021 0.0
H161 H 0.56675 0.22877 0.38896 0.0
H162 H 0.48235 0.19223 0.38396 0.0
H163 H 0.52176 0.24041 0.36353 0.0
C164 C 0.31858 1.05554 0.35555 0.0
C165 C 0.2914 0.10468 0.34801 0.0
C166 C 0.38754 1.05551 0.35617 0.0
C167 C 0.43228 0.10479 0.34945 0.0
C168 C 0.40499 0.1534 0.34151 0.0
H169 H 0.86648 0.19072 0.3394 0.0
H170 H 0.74688 0.18973 0.33859 0.0
C171 C 0.33609 0.15346 0.34089 0.0
C172 C 0.50668 0.10474 0.35034 0.0
H173 H 0.65516 0.18815 0.37076 0.0
C174 C 0.53263 1.05521 0.33924 0.0
C175 C 0.55245 0.15294 0.362 0.0
C176 C 0.52951 0.20631 0.37548 0.0
C177 C 0.60147 1.05318 0.33899 0.0
C178 C 0.64725 0.10144 0.35062 0.0
C179 C 0.62128 0.15092 0.36174 0.0
C180 C 0.72172 0.10176 0.35134 0.0
C181 C 0.62444 0.99982 0.32551 0.0
C182 C 0.7497 1.05336 0.35915 0.0
C183 C 0.81872 1.05383 0.35961 0.0
C184 C 0.86281 0.10297 0.35245 0.0
C185 C 0.8349 0.15186 0.34503 0.0
C186 C 0.76588 0.15135 0.34457 0.0
H187 H 0.58706 0.97711 0.31212 0.0
H188 H 0.6714 1.014 0.31693 0.0
H189 H 0.63261 0.96591 0.33749 0.0
H190 H 0.71814 1.01504 0.36514 0.0
H191 H 0.83754 1.01537 0.3656 0.0
H192 H 0.8504 0.66977 0.68386 0.0
H193 H 0.75592 0.59334 0.67085 0.0
H194 H 0.735 0.68218 0.60923 0.0
H195 H 0.83056 0.75887 0.62204 0.0
H196 H 0.62152 0.66452 0.63365 0.0
H197 H 0.72358 0.45043 0.62104 0.0
H198 H 0.75103 0.49208 0.64828 0.0
H199 H 0.77463 0.52409 0.62185 0.0
C200 C 0.827 0.67217 0.66723 0.0
C201 C 0.84787 0.7204 0.654 0.0
C202 C 0.77307 0.62831 0.65977 0.0
C203 C 0.73925 0.6316 0.6389 0.0
C204 C 0.76093 0.67867 0.6253 0.0
H205 H 0.34225 0.41327 0.61291 0.0
H206 H 0.44612 0.47491 0.60345 0.0
C207 C 0.81508 0.72261 0.63273 0.0
C208 C 0.67668 0.5902 0.63306 0.0
H209 H 0.60818 0.44106 0.63142 0.0
C210 C 0.61848 0.61554 0.63242 0.0
C211 C 0.6731 0.52643 0.63136 0.0
C212 C 0.73408 0.4967 0.63042 0.0
C213 C 0.55657 0.57887 0.6322 0.0
C214 C 0.55332 0.51557 0.63249 0.0
C215 C 0.61122 0.48981 0.63135 0.0
C216 C 0.49147 0.47686 0.63738 0.0
C217 C 0.49526 0.60816 0.63347 0.0
C218 C 0.48334 0.45782 0.65952 0.0
C219 C 0.42431 0.42343 0.66504 0.0
C220 C 0.37245 0.40707 0.64844 0.0
C221 C 0.38105 0.42583 0.62614 0.0
C222 C 0.44028 0.46059 0.62065 0.0
H223 H 0.50661 0.65841 0.63397 0.0
H224 H 0.46226 0.59051 0.6182 0.0
H225 H 0.46794 0.59633 0.64912 0.0
H226 H 0.52241 0.47055 0.67266 0.0
H227 H 0.4189 0.4106 0.68246 0.0
H228 H 0.84798 0.99868 0.69253 0.0
H229 H 0.72826 0.99865 0.6928 0.0
H230 H 0.75761 0.17996 0.67206 0.0
H231 H 0.87664 0.18019 0.67164 0.0
H232 H 0.6518 1.07176 0.71797 0.0
H233 H 0.61589 0.09752 0.62519 0.0
H234 H 0.69096 0.07804 0.63677 0.0
H235 H 0.6769 0.15563 0.63975 0.0
C236 C 0.82912 1.03854 0.6879 0.0
C237 C 0.87307 0.08932 0.68194 0.0
C238 C 0.76016 1.03852 0.6881 0.0
C239 C 0.73245 0.08892 0.68207 0.0
C240 C 0.77641 0.13972 0.67628 0.0
H241 H 0.3284 0.17864 0.67062 0.0
H242 H 0.44783 0.17827 0.67069 0.0
C243 C 0.84519 0.13991 0.67619 0.0
C244 C 0.65833 0.08907 0.68232 0.0
H245 H 0.52493 0.10876 0.64894 0.0
C246 C 0.6242 0.07948 0.70278 0.0
C247 C 0.62109 0.09956 0.66269 0.0
C248 C 0.65281 0.10772 0.63979 0.0
C249 C 0.55559 0.08139 0.70431 0.0
C250 C 0.51815 0.09151 0.68463 0.0
C251 C 0.5524 0.10106 0.66416 0.0
C252 C 0.44395 0.09199 0.68484 0.0
C253 C 0.5246 0.07463 0.72742 0.0
C254 C 0.39993 1.04352 0.69243 0.0
C255 C 0.33123 1.04397 0.69261 0.0
C256 C 0.30337 0.09254 0.68491 0.0
C257 C 0.34722 0.14059 0.67692 0.0
C258 C 0.41611 0.14026 0.67686 0.0
H259 H 0.56179 0.08737 0.74187 0.0
H260 H 0.48527 0.10313 0.73011 0.0
H261 H 0.50253 1.02644 0.72822 0.0
H262 H 0.41851 1.00452 0.69801 0.0
H263 H 0.29979 1.0056 0.69865 0.0
H264 H 0.72652 0.84236 0.0563 0.0
H265 H 0.65986 0.74116 0.05056 0.0
H266 H 0.66037 0.74877 0.97676 0.0
H267 H 0.72667 0.85015 0.98234 0.0
H268 H 0.53482 0.69958 0.02629 0.0
H269 H 0.74122 0.59472 0.98763 0.0
H270 H 0.75375 0.66905 0.0036 0.0
H271 H 0.72096 0.65899 0.97442 0.0
C272 C 0.71143 0.82288 0.03889 0.0
C273 C 0.73212 0.8537 0.01974 0.0
C274 C 0.67375 0.76512 0.03564 0.0
C275 C 0.65646 0.73751 0.01325 0.0
C276 C 0.67452 0.76915 0.99414 0.0
H277 H 0.45057 0.37634 0.96536 0.0
H278 H 0.51026 0.48045 0.96725 0.0
C279 C 0.71225 0.82685 -0.00264 0.0
C280 C 0.62123 0.67476 0.00991 0.0
H281 H 0.63894 0.53061 0.98933 0.0
C282 C 0.55737 0.66257 0.01818 0.0
C283 C 0.65122 0.62697 -0.0007 0.0
C284 C 0.72076 0.6377 0.99086 0.0
C285 C 0.52238 0.60335 0.0161 0.0
C286 C 0.55275 0.55549 0.00581 0.0
C287 C 0.61616 0.56776 -0.0028 0.0
C288 C 0.5201 0.49199 0.00456 0.0
C289 C 0.4532 0.59237 0.02482 0.0
C290 C 0.50808 0.46404 0.0249 0.0
C291 C 0.4747 0.40474 0.02389 0.0
C292 C 0.45295 0.37253 0.00249 0.0
C293 C 0.46724 0.39999 0.98206 0.0
C294 C 0.50081 0.45939 0.9831 0.0
H295 H 0.43163 0.63494 0.02718 0.0
H296 H 0.42056 0.55878 0.01273 0.0
H297 H 0.4542 0.57375 0.04179 0.0
H298 H 0.52399 0.48838 0.04157 0.0
H299 H 0.46536 0.38424 0.03987 0.0
H300 H 0.24697 0.36365 0.25376 0.0
H301 H 0.27579 0.431 0.22346 0.0
H302 H 0.09236 0.50016 0.23297 0.0
H303 H 1.06177 0.43058 0.26169 0.0
H304 H 0.13572 0.51402 0.18933 0.0
H305 H 0.34737 0.59709 0.25168 0.0
H306 H 0.33986 0.52411 0.23523 0.0
H307 H 0.28701 0.53542 0.25913 0.0
C308 C 0.21189 0.39174 0.24873 0.0
C309 C 0.15336 0.39395 0.26079 0.0
C310 C 0.22863 0.43049 0.23149 0.0
C311 C 0.18764 0.47258 0.22658 0.0
C312 C 0.1255 0.4688 0.23655 0.0
H313 H 1.04096 0.72409 0.25934 0.0
H314 H 0.07748 0.65212 0.23059 0.0
C315 C 0.10842 0.4297 0.25336 0.0
C316 C 0.21248 0.52907 0.21598 0.0
H317 H 0.2858 0.66796 0.24014 0.0
C318 C 0.17081 0.54781 0.19962 0.0
C319 C 0.26083 0.57341 0.22824 0.0
C320 C 0.31169 0.55683 0.24448 0.0
C321 C 0.16521 0.60942 0.19958 0.0
C322 C 0.20214 0.65216 0.21623 0.0
C323 C 0.25502 0.63483 0.22812 0.0
C324 C 0.17437 0.70485 0.22725 0.0
C325 C 0.11441 0.62707 0.18368 0.0
C326 C 0.21571 0.75955 0.2349 0.0
C327 C 0.19535 0.80011 0.2521 0.0
C328 C 0.13324 0.78662 0.26187 0.0
C329 C 0.0897 0.73499 0.25257 0.0
C330 C 0.11013 0.69441 0.23557 0.0
H331 H 0.11702 0.60372 0.16606 0.0
H332 H 1.06433 0.61185 0.1899 0.0
H333 H 0.12142 0.6769 0.18269 0.0
H334 H 0.26561 0.76854 0.22892 0.0
H335 H 0.23003 0.83969 0.25886 0.0
H336 H 0.96948 1.05703 0.2694 0.0
H337 H 0.98209 1.06775 0.22818 0.0
H338 H 0.18385 0.1534 0.24167 0.0
H339 H 0.17141 0.14254 0.2831 0.0
H340 H 0.11695 0.21061 0.20937 0.0
H341 H 0.08267 0.96187 0.18547 0.0
H342 H 1.01635 0.98651 0.2016 0.0
H343 H 0.09735 0.9953 0.21495 0.0
C344 C 1.01654 0.07837 0.26364 0.0
C345 C 0.06937 0.09902 0.27962 0.0
C346 C 1.02378 0.08426 0.23999 0.0
C347 C 0.08426 0.11053 0.23159 0.0
C348 C 0.13669 0.13281 0.2476 0.0
H349 H 0.2048 1.06045 0.0894 0.0
H350 H 0.19093 1.06326 0.13106 0.0
C351 C 0.12946 0.12681 0.27134 0.0
C352 C 0.0929 0.11313 0.20611 0.0
H353 H 0.0844 1.02364 0.15461 0.0
C354 C 0.1099 0.16972 0.1974 0.0
C355 C 0.08457 1.05986 0.19036 0.0
C356 C 0.06985 0.99739 0.19853 0.0
C357 C 0.11783 0.17445 0.17351 0.0
C358 C 0.10775 0.12119 0.15771 0.0
C359 C 0.09148 1.06466 0.16652 0.0
C360 C 0.11699 0.12229 0.13215 0.0
C361 C 0.13854 0.2364 0.16549 0.0
C362 C 0.07994 0.15435 0.11849 0.0
C363 C 0.08801 0.15291 0.09442 0.0
C364 C 0.13306 0.11912 0.08348 0.0
C365 C 0.1698 0.08712 0.09719 0.0
C366 C 0.16183 0.08861 0.12111 0.0
H367 H 0.16024 0.27024 0.17992 0.0
H368 H 0.17511 0.23473 0.1517 0.0
H369 H 0.0947 0.25238 0.15832 0.0
H370 H 1.04391 0.17965 0.12635 0.0
H371 H 1.05855 0.17767 0.08436 0.0
H372 H 0.99522 1.05866 0.41563 0.0
H373 H 0.98708 1.04812 0.45728 0.0
H374 H 0.17794 0.15925 0.46975 0.0
H375 H 0.18537 0.17104 0.42856 0.0
H376 H 1.05822 1.0012 0.48788 0.0
H377 H 0.074 0.24582 0.51587 0.0
H378 H 1.06202 0.21572 0.48593 0.0
H379 H 0.14348 0.23091 0.49931 0.0
C380 C 1.03532 0.08087 0.4273 0.0
C381 C 0.09062 0.11627 0.41875 0.0
C382 C 1.03066 0.07489 0.45115 0.0
C383 C 0.08111 0.1042 0.46699 0.0
C384 C 0.13721 0.13779 0.45823 0.0
H385 H 0.16358 1.01254 0.60536 0.0
H386 H 0.15718 1.02352 0.56405 0.0
C387 C 0.14167 0.14408 0.43453 0.0
C388 C 0.07624 0.0989 0.49252 0.0
H389 H 0.09221 0.18251 0.54549 0.0
C390 C 0.06514 1.04095 0.50042 0.0
C391 C 0.08385 0.1505 0.50915 0.0
C392 C 0.09077 0.2142 0.50214 0.0
C393 C 1.06386 1.03321 0.52422 0.0
C394 C 0.07561 0.0848 0.54086 0.0
C395 C 0.08423 0.14275 0.53295 0.0
C396 C 0.08033 0.07957 0.56642 0.0
C397 C 1.04896 0.96954 0.53123 0.0
C398 C 1.04157 0.1096 0.58206 0.0
C399 C 1.04595 0.10409 0.60595 0.0
C400 C 0.08929 1.06845 0.61476 0.0
C401 C 0.12907 1.03974 0.59918 0.0
C402 C 0.12501 1.04556 0.57542 0.0
H403 H 1.02011 0.93805 0.51744 0.0
H404 H 0.09598 0.95252 0.5342 0.0
H405 H 1.02091 0.9682 0.54736 0.0
H406 H 1.00715 0.1367 0.57575 0.0
H407 H 1.01481 0.12703 0.61746 0.0
H408 H 0.15348 1.05015 0.74871 0.0
H409 H 0.15397 1.03679 0.79026 0.0
H410 H 1.01132 0.15798 0.80074 0.0
H411 H 1.01025 0.17093 0.75953 0.0
H412 H 0.18548 0.12264 0.82909 0.0
H413 H 0.92589 1.01162 0.83173 0.0
H414 H 0.96815 1.01948 0.80499 0.0
H415 H 0.93399 0.08214 0.81906 0.0
C416 C 0.12194 0.07358 0.75988 0.0
C417 C 0.0816 0.11142 0.75072 0.0
C418 C 0.12237 1.06606 0.78366 0.0
C419 C 0.08192 0.09561 0.79876 0.0
C420 C 1.04197 0.13357 0.78955 0.0
H421 H 0.99653 0.15568 0.94239 0.0
H422 H 1.00622 0.14983 0.90052 0.0
C423 C 1.04167 0.14121 0.76591 0.0
C424 C 0.08187 0.08823 0.82415 0.0
H425 H 0.97924 1.05108 0.86811 0.0
C426 C 0.14057 0.1062 0.83758 0.0
C427 C 1.02344 1.06662 0.8354 0.0
C428 C 0.95944 1.04328 0.82203 0.0
C429 C 0.14168 0.10597 0.86189 0.0
C430 C 0.08269 0.08626 0.87319 0.0
C431 C 1.02453 1.0665 0.85964 0.0
C432 C 0.0788 0.08946 0.89906 0.0
C433 C 0.20544 0.12941 0.87537 0.0
C434 C 0.1161 1.0572 0.91255 0.0
C435 C 0.11055 1.06047 0.93677 0.0
C436 C 0.06738 0.09588 0.94798 0.0
C437 C 1.03021 0.12785 0.93441 0.0
C438 C 1.03566 0.12452 0.91035 0.0
H439 H 0.24249 0.15499 0.8648 0.0
H440 H 0.19686 0.15946 0.89098 0.0
H441 H 0.2265 0.09046 0.88111 0.0
H442 H 0.14893 1.02889 0.90434 0.0
H443 H 0.13981 1.03521 0.94668 0.0
loop_
_geom_bond_atom_site_label_1
_geom_bond_atom_site_label_2
_geom_bond_distance
_geom_bond_site_symmetry_2
_ccdc_geom_bond_type
Ho0 C3 2.811 . S
Ho0 O20 2.322 . S
Ho0 O22 2.378 . S
Ho0 O23 2.524 1_554 S
Ho0 O24 2.381 . S
Ho0 O25 2.669 1_455 S
Ho0 O27 2.346 1_545 S
Ho0 O31 2.305 1_554 S
Ho1 C12 2.804 1_546 S
Ho1 O21 2.347 1_556 S
Ho1 O25 2.279 1_556 S
Ho1 O26 2.326 1_545 S
Ho1 O28 2.386 1_545 S
Ho1 O29 2.502 1_546 S
Ho1 O30 2.416 . S
Ho1 O31 2.687 1_655 S
C2 O20 1.259 . S
C2 O21 1.268 1_455 S
C3 Ho0 2.811 . S
C3 C4 1.488 . S
C3 O22 1.215 . S
C3 O23 1.289 1_554 S
C4 C3 1.488 . S
C4 C5 1.348 1_554 S
C4 C9 1.413 . S
C5 C4 1.348 1_556 S
C5 C6 1.442 . S
C5 H32 0.930 . S
C6 C5 1.442 . S
C6 C7 1.381 1_556 S
C6 H33 0.931 . S
C7 C6 1.381 1_554 S
C7 C8 1.321 . S
C8 C7 1.321 . S
C8 C9 1.403 . S
C8 H34 0.934 . S
C9 C4 1.413 . S
C9 C8 1.403 . S
C9 H35 0.930 . S
C10 O24 1.275 . S
C10 O25 1.256 1_455 S
C11 O26 1.259 1_454 S
C11 O27 1.268 . S
C12 Ho1 2.804 1_564 S
C12 C13 1.488 . S
C12 O28 1.215 1_554 S
C12 O29 1.289 . S
C13 C12 1.488 . S
C13 C14 1.348 . S
C13 C18 1.413 1_554 S
C14 C13 1.348 . S
C14 C15 1.442 . S
C14 H36 0.930 . S
C15 C14 1.442 . S
C15 C16 1.381 . S
C15 H37 0.931 . S
C16 C15 1.381 . S
C16 C17 1.321 1_554 S
C17 C16 1.321 1_556 S
C17 C18 1.403 . S
C17 H38 0.934 . S
C18 C13 1.413 1_556 S
C18 C17 1.403 . S
C18 H39 0.930 . S
C19 O30 1.277 . S
C19 O31 1.256 1_655 S
O20 Ho0 2.322 . S
O20 C2 1.259 . S
O21 Ho1 2.347 1_554 S
O21 C2 1.268 1_655 S
O22 Ho0 2.378 . S
O22 C3 1.215 . S
O23 Ho0 2.524 1_556 S
O23 C3 1.289 1_556 S
O24 Ho0 2.381 . S
O24 C10 1.275 . S
O25 Ho0 2.669 1_655 S
O25 Ho1 2.279 1_554 S
O25 C10 1.256 1_655 S
O26 Ho1 2.326 1_565 S
O26 C11 1.259 1_656 S
O27 Ho0 2.346 1_565 S
O27 C11 1.268 . S
O28 Ho1 2.386 1_565 S
O28 C12 1.215 1_556 S
O29 Ho1 2.502 1_564 S
O29 C12 1.289 . S
O30 Ho1 2.416 . S
O30 C19 1.277 . S
O31 Ho0 2.305 1_556 S
O31 Ho1 2.687 1_455 S
O31 C19 1.256 1_455 S
H32 C5 0.930 . S
H33 C6 0.931 . S
H34 C8 0.934 . S
H35 C9 0.930 . S
H36 C14 0.930 . S
H37 C15 0.931 . S
H38 C17 0.934 . S
H39 C18 0.930 . S
Ho40 C43 2.811 . S
Ho40 O60 2.322 1_455 S
Ho40 O62 2.378 . S
Ho40 O63 2.524 . S
Ho40 O64 2.381 . S
Ho40 O65 2.669 . S
Ho40 O67 2.346 . S
Ho40 O71 2.305 . S
Ho41 C52 2.811 . S
Ho41 O61 2.354 1_455 S
Ho41 O65 2.305 1_565 S
Ho41 O66 2.322 . S
Ho41 O68 2.378 . S
Ho41 O69 2.524 . S
Ho41 O70 2.381 . S
Ho41 O71 2.669 1_565 S
C42 O60 1.259 . S
C42 O61 1.256 1_545 S
C43 Ho40 2.811 . S
C43 C44 1.488 . S
C43 O62 1.215 . S
C43 O63 1.289 . S
C44 C43 1.488 . S
C44 C45 1.348 1_455 S
C44 C49 1.413 . S
C45 C44 1.348 1_655 S
C45 C46 1.442 . S
C45 H72 0.930 . S
C46 C45 1.442 . S
C46 C47 1.381 . S
C46 H73 0.931 . S
C47 C46 1.381 . S
C47 C48 1.321 1_655 S
C48 C47 1.321 1_455 S
C48 C49 1.403 . S
C48 H74 0.934 . S
C49 C44 1.413 . S
C49 C48 1.403 . S
C49 H75 0.930 . S
C50 O64 1.275 . S
C50 O65 1.256 . S
C51 O66 1.259 1_545 S
C51 O67 1.268 . S
C52 Ho41 2.811 . S
C52 C53 1.488 . S
C52 O68 1.215 . S
C52 O69 1.289 . S
C53 C52 1.488 . S
C53 C54 1.348 . S
C53 C58 1.413 . S
C54 C53 1.348 . S
C54 C55 1.442 . S
C54 H76 0.930 . S
C55 C54 1.442 . S
C55 C56 1.381 . S
C55 H77 0.931 . S
C56 C55 1.381 . S
C56 C57 1.321 . S
C57 C56 1.321 . S
C57 C58 1.403 . S
C57 H78 0.934 . S
C58 C53 1.413 . S
C58 C57 1.403 . S
C58 H79 0.930 . S
C59 O70 1.275 1_545 S
C59 O71 1.256 . S
O60 Ho40 2.322 1_655 S
O60 C42 1.259 . S
O61 Ho41 2.354 1_655 S
O61 C42 1.256 1_565 S
O62 Ho40 2.378 . S
O62 C43 1.215 . S
O63 Ho40 2.524 . S
O63 C43 1.289 . S
O64 Ho40 2.381 . S
O64 C50 1.275 . S
O65 Ho40 2.669 . S
O65 Ho41 2.305 1_545 S
O65 C50 1.256 . S
O66 Ho41 2.322 . S
O66 C51 1.259 1_565 S
O67 Ho40 2.346 . S
O67 C51 1.268 . S
O68 Ho41 2.378 . S
O68 C52 1.215 . S
O69 Ho41 2.524 . S
O69 C52 1.289 . S
O70 Ho41 2.381 . S
O70 C59 1.275 1_565 S
O71 Ho40 2.305 . S
O71 Ho41 2.669 1_545 S
O71 C59 1.256 . S
H72 C45 0.930 . S
H73 C46 0.931 . S
H74 C48 0.934 . S
H75 C49 0.930 . S
H76 C54 0.930 . S
H77 C55 0.931 . S
H78 C57 0.934 . S
H79 C58 0.930 . S
Ho80 C83 2.811 1_455 S
Ho80 O100 2.322 1_455 S
Ho80 O102 2.378 1_455 S
Ho80 O103 2.524 1_455 S
Ho80 O104 2.381 . S
Ho80 O105 2.669 1_565 S
Ho80 O107 2.346 . S
Ho80 O111 2.305 1_565 S
Ho81 C92 2.811 . S
Ho81 O101 2.346 1_455 S
Ho81 O105 2.305 . S
Ho81 O106 2.322 . S
Ho81 O108 2.378 . S
Ho81 O109 2.524 . S
Ho81 O110 2.381 . S
Ho81 O111 2.669 . S
C82 O100 1.259 1_545 S
C82 O101 1.268 . S
C83 Ho80 2.811 1_655 S
C83 C84 1.488 . S
C83 O102 1.215 . S
C83 O103 1.289 . S
C84 C83 1.488 . S
C84 C85 1.348 . S
C84 C89 1.413 . S
C85 C84 1.348 . S
C85 C86 1.442 . S
C85 H112 0.930 . S
C86 C85 1.442 . S
C86 C87 1.381 . S
C86 H113 0.931 . S
C87 C86 1.381 . S
C87 C88 1.321 . S
C88 C87 1.321 . S
C88 C89 1.403 . S
C88 H114 0.934 . S
C89 C84 1.413 . S
C89 C88 1.403 . S
C89 H115 0.930 . S
C90 O104 1.264 1_545 S
C90 O105 1.261 . S
C91 O106 1.259 . S
C91 O107 1.268 1_545 S
C92 Ho81 2.811 . S
C92 C93 1.488 . S
C92 O108 1.215 . S
C92 O109 1.289 . S
C93 C92 1.488 . S
C93 C94 1.348 . S
C93 C98 1.413 . S
C94 C93 1.348 . S
C94 C95 1.442 . S
C94 H116 0.930 . S
C95 C94 1.442 . S
C95 C96 1.381 . S
C95 H117 0.931 . S
C96 C95 1.381 . S
C96 C97 1.321 . S
C97 C96 1.321 . S
C97 C98 1.403 . S
C97 H118 0.934 . S
C98 C93 1.413 . S
C98 C97 1.403 . S
C98 H119 0.930 . S
C99 O110 1.275 . S
C99 O111 1.256 . S
O100 Ho80 2.322 1_655 S
O100 C82 1.259 1_565 S
O101 Ho81 2.346 1_655 S
O101 C82 1.268 . S
O102 Ho80 2.378 1_655 S
O102 C83 1.215 . S
O103 Ho80 2.524 1_655 S
O103 C83 1.289 . S
O104 Ho80 2.381 . S
O104 C90 1.264 1_565 S
O105 Ho80 2.669 1_545 S
O105 Ho81 2.305 . S
O105 C90 1.261 . S
O106 Ho81 2.322 . S
O106 C91 1.259 . S
O107 Ho80 2.346 . S
O107 C91 1.268 1_565 S
O108 Ho81 2.378 . S
O108 C92 1.215 . S
O109 Ho81 2.524 . S
O109 C92 1.289 . S
O110 Ho81 2.381 . S
O110 C99 1.275 . S
O111 Ho80 2.305 1_545 S
O111 Ho81 2.669 . S
O111 C99 1.256 . S
H112 C85 0.930 . S
H113 C86 0.931 . S
H114 C88 0.934 . S
H115 C89 0.930 . S
H116 C94 0.930 . S
H117 C95 0.931 . S
H118 C97 0.934 . S
H119 C98 0.930 . S
H120 C128 0.929 . S
H121 C130 0.930 . S
H122 C132 0.930 . S
H123 C135 0.929 . S
H124 C138 0.930 . S
H125 C140 0.965 . S
H126 C140 0.939 1_554 S
H127 C140 0.978 . S
C128 H120 0.929 . S
C128 C129 1.377 . S
C128 C130 1.384 . S
C129 C128 1.377 . S
C129 C135 1.390 1_454 S
C130 H121 0.930 . S
C130 C128 1.384 . S
C130 C131 1.372 . S
C131 C130 1.372 . S
C131 C132 1.400 1_454 S
C131 C136 1.490 . S
C132 H122 0.930 . S
C132 C131 1.400 1_656 S
C132 C135 1.386 . S
H133 C149 0.930 1_655 S
H134 C150 0.931 . S
C135 H123 0.929 . S
C135 C129 1.390 1_656 S
C135 C132 1.386 . S
C136 C131 1.490 . S
C136 C138 1.395 . S
C136 C139 1.403 1_455 S
H137 C143 0.927 1_556 S
C138 H124 0.930 . S
C138 C136 1.395 . S
C138 C141 1.403 . S
C139 C136 1.403 1_655 S
C139 C140 1.523 1_554 S
C139 C143 1.400 . S
C140 H125 0.965 . S
C140 H126 0.939 1_556 S
C140 H127 0.978 . S
C140 C139 1.523 1_556 S
C141 C138 1.403 . S
C141 C142 1.392 . S
C141 C145 1.495 . S
C142 C141 1.392 . S
C142 C143 1.385 1_455 S
C142 C144 1.478 . S
C143 H137 0.927 1_554 S
C143 C139 1.400 . S
C143 C142 1.385 1_655 S
C144 C142 1.478 . S
C144 C146 1.381 . S
C144 C150 1.383 1_554 S
C145 C141 1.495 . S
C145 H151 0.959 . S
C145 H152 0.961 1_554 S
C145 H153 0.960 . S
C146 C144 1.381 . S
C146 C147 1.394 . S
C146 H154 0.930 . S
C147 C146 1.394 . S
C147 C148 1.383 . S
C147 H155 0.929 . S
C148 C147 1.383 . S
C148 C149 1.377 1_554 S
C149 H133 0.930 1_455 S
C149 C148 1.377 1_556 S
C149 C150 1.379 . S
C150 H134 0.931 . S
C150 C144 1.383 1_556 S
C150 C149 1.379 . S
H151 C145 0.959 . S
H152 C145 0.961 1_556 S
H153 C145 0.960 . S
H154 C146 0.930 . S
H155 C147 0.929 . S
H156 C164 0.933 . S
H157 C166 0.930 . S
H158 C168 0.930 . S
H159 C171 0.929 . S
H160 C174 0.930 . S
H161 C176 0.960 . S
H162 C176 0.960 . S
H163 C176 0.960 . S
C164 H156 0.933 . S
C164 C165 1.377 . S
C164 C166 1.384 . S
C165 C164 1.377 . S
C165 C171 1.390 . S
C166 H157 0.930 . S
C166 C164 1.384 . S
C166 C167 1.372 . S
C167 C166 1.372 . S
C167 C168 1.400 . S
C167 C172 1.490 . S
C168 H158 0.930 . S
C168 C167 1.400 . S
C168 C171 1.386 . S
H169 C185 0.930 . S
H170 C186 0.931 . S
C171 H159 0.929 . S
C171 C165 1.390 . S
C171 C168 1.386 . S
C172 C167 1.490 . S
C172 C174 1.395 1_545 S
C172 C175 1.403 . S
H173 C179 0.930 . S
C174 H160 0.930 . S
C174 C172 1.395 1_565 S
C174 C177 1.403 . S
C175 C172 1.403 . S
C175 C176 1.524 . S
C175 C179 1.400 . S
C176 H161 0.960 . S
C176 H162 0.960 . S
C176 H163 0.960 . S
C176 C175 1.524 . S
C177 C174 1.403 . S
C177 C178 1.392 1_565 S
C177 C181 1.495 . S
C178 C177 1.392 1_545 S
C178 C179 1.385 . S
C178 C180 1.478 . S
C179 H173 0.930 . S
C179 C175 1.400 . S
C179 C178 1.385 . S
C180 C178 1.478 . S
C180 C182 1.381 . S
C180 C186 1.383 . S
C181 C177 1.495 . S
C181 H187 0.959 . S
C181 H188 0.961 . S
C181 H189 0.960 . S
C182 C180 1.381 . S
C182 C183 1.394 . S
C182 H190 0.930 . S
C183 C182 1.394 . S
C183 C184 1.383 . S
C183 H191 0.929 . S
C184 C183 1.383 . S
C184 C185 1.377 . S
C185 H169 0.930 . S
C185 C184 1.377 . S
C185 C186 1.379 . S
C186 H170 0.931 . S
C186 C180 1.383 . S
C186 C185 1.379 . S
H187 C181 0.959 . S
H188 C181 0.961 . S
H189 C181 0.960 . S
H190 C182 0.930 . S
H191 C183 0.929 . S
H192 C200 0.929 . S
H193 C202 0.930 . S
H194 C204 0.930 . S
H195 C207 0.929 . S
H196 C210 0.930 . S
H197 C212 0.960 . S
H198 C212 0.960 . S
H199 C212 0.960 . S
C200 H192 0.929 . S
C200 C201 1.377 . S
C200 C202 1.384 . S
C201 C200 1.377 . S
C201 C207 1.390 . S
C202 H193 0.930 . S
C202 C200 1.384 . S
C202 C203 1.372 . S
C203 C202 1.372 . S
C203 C204 1.400 . S
C203 C208 1.490 . S
C204 H194 0.930 . S
C204 C203 1.400 . S
C204 C207 1.386 . S
H205 C221 0.930 . S
H206 C222 0.931 . S
C207 H195 0.929 . S
C207 C201 1.390 . S
C207 C204 1.386 . S
C208 C203 1.490 . S
C208 C210 1.395 . S
C208 C211 1.403 . S
H209 C215 0.930 . S
C210 H196 0.930 . S
C210 C208 1.395 . S
C210 C213 1.403 . S
C211 C208 1.403 . S
C211 C212 1.524 . S
C211 C215 1.400 . S
C212 H197 0.960 . S
C212 H198 0.960 . S
C212 H199 0.960 . S
C212 C211 1.524 . S
C213 C210 1.403 . S
C213 C214 1.392 . S
C213 C217 1.495 . S
C214 C213 1.392 . S
C214 C215 1.385 . S
C214 C216 1.478 . S
C215 H209 0.930 . S
C215 C211 1.400 . S
C215 C214 1.385 . S
C216 C214 1.478 . S
C216 C218 1.381 . S
C216 C222 1.383 . S
C217 C213 1.495 . S
C217 H223 0.959 . S
C217 H224 0.961 . S
C217 H225 0.960 . S
C218 C216 1.381 . S
C218 C219 1.394 . S
C218 H226 0.930 . S
C219 C218 1.394 . S
C219 C220 1.383 . S
C219 H227 0.929 . S
C220 C219 1.383 . S
C220 C221 1.377 . S
C221 H205 0.930 . S
C221 C220 1.377 . S
C221 C222 1.379 . S
C222 H206 0.931 . S
C222 C216 1.383 . S
C222 C221 1.379 . S
H223 C217 0.959 . S
H224 C217 0.961 . S
H225 C217 0.960 . S
H226 C218 0.930 . S
H227 C219 0.929 . S
H228 C236 0.929 . S
H229 C238 0.930 . S
H230 C240 0.930 . S
H231 C243 0.929 . S
H232 C246 0.930 . S
H233 C248 0.960 . S
H234 C248 0.960 . S
H235 C248 0.960 . S
C236 H228 0.929 . S
C236 C237 1.377 1_565 S
C236 C238 1.384 . S
C237 C236 1.377 1_545 S
C237 C243 1.390 . S
C238 H229 0.930 . S
C238 C236 1.384 . S
C238 C239 1.372 1_565 S
C239 C238 1.372 1_545 S
C239 C240 1.400 . S
C239 C244 1.490 . S
C240 H230 0.930 . S
C240 C239 1.400 . S
C240 C243 1.386 . S
H241 C257 0.930 . S
H242 C258 0.931 . S
C243 H231 0.929 . S
C243 C237 1.390 . S
C243 C240 1.386 . S
C244 C239 1.490 . S
C244 C246 1.395 1_545 S
C244 C247 1.403 . S
H245 C251 0.930 . S
C246 H232 0.930 . S
C246 C244 1.395 1_565 S
C246 C249 1.403 . S
C247 C244 1.403 . S
C247 C248 1.524 . S
C247 C251 1.400 . S
C248 H233 0.960 . S
C248 H234 0.960 . S
C248 H235 0.960 . S
C248 C247 1.524 . S
C249 C246 1.403 . S
C249 C250 1.392 1_565 S
C249 C253 1.495 . S
C250 C249 1.392 1_545 S
C250 C251 1.385 . S
C250 C252 1.478 . S
C251 H245 0.930 . S
C251 C247 1.400 . S
C251 C250 1.385 . S
C252 C250 1.478 . S
C252 C254 1.381 1_545 S
C252 C258 1.383 . S
C253 C249 1.495 . S
C253 H259 0.959 . S
C253 H260 0.961 . S
C253 H261 0.960 . S
C254 C252 1.381 1_565 S
C254 C255 1.394 . S
C254 H262 0.930 . S
C255 C254 1.394 . S
C255 C256 1.383 1_565 S
C255 H263 0.929 . S
C256 C255 1.383 1_545 S
C256 C257 1.377 . S
C257 H241 0.930 . S
C257 C256 1.377 . S
C257 C258 1.379 . S
C258 H242 0.931 . S
C258 C252 1.383 . S
C258 C257 1.379 . S
H259 C253 0.959 . S
H260 C253 0.961 . S
H261 C253 0.960 . S
H262 C254 0.930 . S
H263 C255 0.929 . S
H264 C272 0.929 . S
H265 C274 0.930 . S
H266 C276 0.930 . S
H267 C279 0.929 . S
H268 C282 0.930 . S
H269 C284 0.960 . S
H270 C284 0.960 . S
H271 C284 0.960 . S
C272 H264 0.929 . S
C272 C273 1.377 . S
C272 C274 1.384 . S
C273 C272 1.377 . S
C273 C279 1.390 1_554 S
C274 H265 0.930 . S
C274 C272 1.384 . S
C274 C275 1.372 . S
C275 C274 1.372 . S
C275 C276 1.400 1_554 S
C275 C280 1.490 . S
C276 H266 0.930 . S
C276 C275 1.400 1_556 S
C276 C279 1.386 . S
H277 C293 0.930 . S
H278 C294 0.931 . S
C279 H267 0.929 . S
C279 C273 1.390 1_556 S
C279 C276 1.386 . S
C280 C275 1.490 . S
C280 C282 1.395 . S
C280 C283 1.403 1_554 S
H281 C287 0.930 . S
C282 H268 0.930 . S
C282 C280 1.395 . S
C282 C285 1.403 . S
C283 C280 1.403 1_556 S
C283 C284 1.524 . S
C283 C287 1.400 . S
C284 H269 0.960 . S
C284 H270 0.960 . S
C284 H271 0.960 . S
C284 C283 1.524 . S
C285 C282 1.403 . S
C285 C286 1.392 . S
C285 C289 1.495 . S
C286 C285 1.392 . S
C286 C287 1.385 1_554 S
C286 C288 1.478 . S
C287 H281 0.930 . S
C287 C283 1.400 . S
C287 C286 1.385 1_556 S
C288 C286 1.478 . S
C288 C290 1.381 . S
C288 C294 1.383 1_554 S
C289 C285 1.495 . S
C289 H295 0.959 . S
C289 H296 0.961 . S
C289 H297 0.960 . S
C290 C288 1.381 . S
C290 C291 1.394 . S
C290 H298 0.930 . S
C291 C290 1.394 . S
C291 C292 1.383 . S
C291 H299 0.929 . S
C292 C291 1.383 . S
C292 C293 1.377 1_554 S
C293 H277 0.930 . S
C293 C292 1.377 1_556 S
C293 C294 1.379 . S
C294 H278 0.931 . S
C294 C288 1.383 1_556 S
C294 C293 1.379 . S
H295 C289 0.959 . S
H296 C289 0.961 . S
H297 C289 0.960 . S
H298 C290 0.930 . S
H299 C291 0.929 . S
H300 C308 0.929 . S
H301 C310 0.930 . S
H302 C312 0.930 . S
H303 C315 0.929 . S
H304 C318 0.923 1_655 S
H305 C320 0.960 . S
H306 C320 0.960 . S
H307 C320 0.960 . S
C308 H300 0.929 . S
C308 C309 1.377 . S
C308 C310 1.384 1_655 S
C309 C308 1.377 . S
C309 C315 1.390 . S
C310 H301 0.930 . S
C310 C308 1.384 1_455 S
C310 C311 1.372 1_455 S
C311 C310 1.372 1_655 S
C311 C312 1.400 . S
C311 C316 1.490 1_655 S
C312 H302 0.930 . S
C312 C311 1.400 . S
C312 C315 1.386 . S
H313 C329 0.930 . S
H314 C330 0.931 . S
C315 H303 0.929 . S
C315 C309 1.390 . S
C315 C312 1.386 . S
C316 C311 1.490 1_455 S
C316 C318 1.400 . S
C316 C319 1.403 . S
H317 C323 0.930 . S
C318 H304 0.923 1_455 S
C318 C316 1.400 . S
C318 C321 1.404 . S
C319 C316 1.403 . S
C319 C320 1.524 . S
C319 C323 1.400 . S
C320 H305 0.960 . S
C320 H306 0.960 . S
C320 H307 0.960 . S
C320 C319 1.524 . S
C321 C318 1.404 . S
C321 C322 1.392 . S
C321 C325 1.495 1_455 S
C322 C321 1.392 . S
C322 C323 1.385 . S
C322 C324 1.478 . S
C323 H317 0.930 . S
C323 C319 1.400 . S
C323 C322 1.385 . S
C324 C322 1.478 . S
C324 C326 1.381 . S
C324 C330 1.383 . S
C325 C321 1.495 1_655 S
C325 H331 0.959 . S
C325 H332 0.961 . S
C325 H333 0.960 1_655 S
C326 C324 1.381 . S
C326 C327 1.394 . S
C326 H334 0.930 . S
C327 C326 1.394 . S
C327 C328 1.383 . S
C327 H335 0.929 . S
C328 C327 1.383 . S
C328 C329 1.377 . S
C329 H313 0.930 . S
C329 C328 1.377 . S
C329 C330 1.379 . S
C330 H314 0.931 . S
C330 C324 1.383 . S
C330 C329 1.379 . S
H331 C325 0.959 . S
H332 C325 0.961 . S
H333 C325 0.960 1_455 S
H334 C326 0.930 . S
H335 C327 0.929 . S
H336 C344 0.929 . S
H337 C346 0.930 . S
H338 C348 0.930 . S
H339 C351 0.929 . S
H340 C354 0.930 . S
H341 C356 0.960 . S
H342 C356 0.960 . S
H343 C356 0.960 . S
C344 H336 0.929 . S
C344 C345 1.377 1_655 S
C344 C346 1.384 . S
C345 C344 1.377 1_455 S
C345 C351 1.390 . S
C346 H337 0.930 . S
C346 C344 1.384 . S
C346 C347 1.372 1_655 S
C347 C346 1.372 1_455 S
C347 C348 1.400 . S
C347 C352 1.490 . S
C348 H338 0.930 . S
C348 C347 1.400 . S
C348 C351 1.386 . S
H349 C365 0.930 . S
H350 C366 0.931 . S
C351 H339 0.929 . S
C351 C345 1.390 . S
C351 C348 1.386 . S
C352 C347 1.490 . S
C352 C354 1.395 1_455 S
C352 C355 1.408 . S
H353 C359 0.930 1_565 S
C354 H340 0.930 . S
C354 C352 1.395 1_655 S
C354 C357 1.403 . S
C355 C352 1.408 . S
C355 C356 1.516 1_545 S
C355 C359 1.402 . S
C356 H341 0.960 . S
C356 H342 0.960 . S
C356 H343 0.960 . S
C356 C355 1.516 1_565 S
C357 C354 1.403 . S
C357 C358 1.392 1_655 S
C357 C361 1.495 . S
C358 C357 1.392 1_455 S
C358 C359 1.385 . S
C358 C360 1.478 . S
C359 H353 0.930 1_545 S
C359 C355 1.402 . S
C359 C358 1.385 . S
C360 C358 1.478 . S
C360 C362 1.381 1_455 S
C360 C366 1.383 . S
C361 C357 1.495 . S
C361 H367 0.959 . S
C361 H368 0.961 . S
C361 H369 0.960 . S
C362 C360 1.381 1_655 S
C362 C363 1.394 . S
C362 H370 0.930 . S
C363 C362 1.394 . S
C363 C364 1.383 1_655 S
C363 H371 0.929 . S
C364 C363 1.383 1_455 S
C364 C365 1.377 . S
C365 H349 0.930 . S
C365 C364 1.377 . S
C365 C366 1.379 . S
C366 H350 0.931 . S
C366 C360 1.383 . S
C366 C365 1.379 . S
H367 C361 0.959 . S
H368 C361 0.961 . S
H369 C361 0.960 . S
H370 C362 0.930 . S
H371 C363 0.929 . S
H372 C380 0.929 1_655 S
H373 C382 0.913 1_655 S
H374 C384 0.930 . S
H375 C387 0.929 . S
H376 C390 0.930 1_655 S
H377 C392 0.960 . S
H378 C392 0.960 . S
H379 C392 0.960 . S
C380 H372 0.929 1_455 S
C380 C381 1.377 . S
C380 C382 1.384 . S
C381 C380 1.377 . S
C381 C387 1.390 . S
C382 H373 0.913 1_455 S
C382 C380 1.384 . S
C382 C383 1.388 . S
C383 C382 1.388 . S
C383 C384 1.400 . S
C383 C388 1.490 . S
C384 H374 0.930 . S
C384 C383 1.400 . S
C384 C387 1.386 . S
H385 C401 0.925 1_565 S
H386 C402 0.935 . S
C387 H375 0.929 . S
C387 C381 1.390 . S
C387 C384 1.386 . S
C388 C383 1.490 . S
C388 C390 1.395 1_545 S
C388 C391 1.403 . S
H389 C395 0.930 . S
C390 H376 0.930 1_455 S
C390 C388 1.395 1_565 S
C390 C393 1.403 . S
C391 C388 1.403 . S
C391 C392 1.524 . S
C391 C395 1.400 . S
C392 H377 0.960 . S
C392 H378 0.960 . S
C392 H379 0.960 . S
C392 C391 1.524 . S
C393 C390 1.403 . S
C393 C394 1.392 1_565 S
C393 C397 1.495 1_455 S
C394 C393 1.392 1_545 S
C394 C395 1.385 . S
C394 C396 1.478 . S
C395 H389 0.930 . S
C395 C391 1.400 . S
C395 C394 1.385 . S
C396 C394 1.478 . S
C396 C398 1.379 1_455 S
C396 C402 1.378 1_545 S
C397 C393 1.495 1_655 S
C397 H403 0.959 . S
C397 H404 0.961 . S
C397 H405 0.960 . S
C398 C396 1.379 1_655 S
C398 C399 1.394 1_655 S
C398 H406 0.932 . S
C399 C398 1.394 1_455 S
C399 C400 1.383 . S
C399 H407 0.929 1_455 S
C400 C399 1.383 . S
C400 C401 1.380 . S
C401 H385 0.925 1_545 S
C401 C400 1.380 . S
C401 C402 1.382 1_545 S
C402 H386 0.935 . S
C402 C396 1.378 1_565 S
C402 C401 1.382 1_565 S
H403 C397 0.959 . S
H404 C397 0.961 . S
H405 C397 0.960 . S
H406 C398 0.932 . S
H407 C399 0.929 1_655 S
H408 C416 0.929 1_655 S
H409 C418 0.930 1_655 S
H410 C420 0.930 . S
H411 C423 0.929 . S
H412 C426 0.930 . S
H413 C428 0.960 . S
H414 C428 0.960 . S
H415 C428 0.960 1_455 S
C416 H408 0.929 1_455 S
C416 C417 1.377 1_565 S
C416 C418 1.384 . S
C417 C416 1.377 1_545 S
C417 C423 1.390 . S
C418 H409 0.930 1_455 S
C418 C416 1.384 . S
C418 C419 1.372 1_565 S
C419 C418 1.372 1_545 S
C419 C420 1.400 . S
C419 C424 1.490 . S
C420 H410 0.930 . S
C420 C419 1.400 . S
C420 C423 1.386 . S
H421 C437 0.930 . S
H422 C438 0.931 . S
C423 H411 0.929 . S
C423 C417 1.390 . S
C423 C420 1.386 . S
C424 C419 1.490 . S
C424 C426 1.395 1_545 S
C424 C427 1.403 . S
H425 C431 0.924 1_655 S
C426 H412 0.930 . S
C426 C424 1.395 1_565 S
C426 C429 1.403 . S
C427 C424 1.403 . S
C427 C428 1.524 1_455 S
C427 C431 1.400 . S
C428 H413 0.960 . S
C428 H414 0.960 . S
C428 H415 0.960 1_655 S
C428 C427 1.524 1_655 S
C429 C426 1.403 . S
C429 C430 1.392 1_565 S
C429 C433 1.495 . S
C430 C429 1.392 1_545 S
C430 C431 1.385 . S
C430 C432 1.478 . S
C431 H425 0.924 1_455 S
C431 C427 1.400 . S
C431 C430 1.385 . S
C432 C430 1.478 . S
C432 C434 1.381 1_445 S
C432 C438 1.383 . S
C433 C429 1.495 . S
C433 H439 0.959 . S
C433 H440 0.961 . S
C433 H441 0.960 . S
C434 C432 1.381 1_665 S
C434 C435 1.394 . S
C434 H442 0.930 . S
C435 C434 1.394 . S
C435 C436 1.383 1_665 S
C435 H443 0.929 . S
C436 C435 1.383 1_445 S
C436 C437 1.377 . S
C437 H421 0.930 . S
C437 C436 1.377 . S
C437 C438 1.379 . S
C438 H422 0.931 . S
C438 C432 1.383 . S
C438 C437 1.379 . S
H439 C433 0.959 . S
H440 C433 0.961 . S
H441 C433 0.960 . S
H442 C434 0.930 . S
H443 C435 0.929 . S
C129 C2 4.860 . S
C148 C11 4.855 . S
C165 C51 3.039 . S
C184 C42 3.025 . S
C201 C87 0.590 . S
C220 C96 0.571 . S
C237 C82 2.994 . S
C256 C91 2.984 . S
C273 C16 0.598 . S
C292 C7 0.592 . S
C309 C47 0.844 . S
C328 C56 0.833 . S
C345 C59 1.462 . S
C364 C10 1.464 . S
C381 C50 1.470 . S
C400 C90 1.455 . S
C417 C99 1.467 . S
C436 C19 1.479 1_455 S
