# Generated by pormake.
# Topology unc, (4)-cn, num edge types: 1
# Building blocks:
#     Node 0, Type 0, BuildingBlock: NAHDIM_clean_sbu_0, # of connection points: 4
#     Node 1, Type 0, BuildingBlock: NAHDIM_clean_sbu_0, # of connection points: 4
#     Node 2, Type 0, BuildingBlock: NAHDIM_clean_sbu_0, # of connection points: 4
#     Node 3, Type 0, BuildingBlock: NAHDIM_clean_sbu_0, # of connection points: 4
#     Edge 4, Type (0, 0), BuildingBlock: UVAHIK_clean_linker_0, # of connection points: 2
#     Edge 5, Type (0, 0), BuildingBlock: UVAHIK_clean_linker_0, # of connection points: 2
#     Edge 6, Type (0, 0), BuildingBlock: UVAHIK_clean_linker_0, # of connection points: 2
#     Edge 7, Type (0, 0), BuildingBlock: UVAHIK_clean_linker_0, # of connection points: 2
#     Edge 8, Type (0, 0), BuildingBlock: UVAHIK_clean_linker_0, # of connection points: 2
#     Edge 9, Type (0, 0), BuildingBlock: UVAHIK_clean_linker_0, # of connection points: 2
#     Edge 10, Type (0, 0), BuildingBlock: UVAHIK_clean_linker_0, # of connection points: 2
#     Edge 11, Type (0, 0), BuildingBlock: UVAHIK_clean_linker_0, # of connection points: 2
# Relax obj value: 0.113
# Max RMSD: 0.175
# Mean RMSD: 0.175
data_MOF--net-unc--node1-NAHDIM_clean_sbu_0--edge1-UVAHIK_clean_linker_0
_symmetry_space_group_name_H-M    P1
_symmetry_Int_Tables_number       1
_symmetry_cell_setting            triclinic
loop_
_symmetry_equiv_pos_as_xyz
'x, y, z'
_cell_length_a     38.5414
_cell_length_b     38.580892
_cell_length_c     27.755685
_cell_angle_alpha  90.026558
_cell_angle_beta   89.98674
_cell_angle_gamma 96.026658
loop_
_atom_site_label
_atom_site_type_symbol
_atom_site_fract_x
_atom_site_fract_y
_atom_site_fract_z
_atom_type_partial_charge
C0 C 0.94547 0.7153 0.94713 0.0
O1 O 0.97689 0.7196 0.92822 0.0
O2 O 0.00514 0.65316 0.95703 0.0
Zn3 Zn 0.98147 0.67545 0.01151 0.0
O4 O 0.0156 0.71308 0.03925 0.0
C5 C 0.96223 0.60761 0.05452 0.0
O6 O 0.96799 0.59601 0.01106 0.0
O7 O 0.94045 0.69684 0.98486 0.0
C8 C 0.03336 0.70842 0.07683 0.0
O9 O 0.02874 0.67833 0.09931 0.0
C10 C 0.03276 0.63834 0.96272 0.0
O11 O 0.04627 0.63666 0.006 0.0
O12 O 0.96573 0.64023 0.06248 0.0
C13 C 0.3345 0.10398 0.25852 0.0
O14 O 0.36422 0.09951 0.27958 0.0
O15 O 0.37472 0.02685 0.26559 0.0
Zn16 Zn 0.34658 0.04055 0.2093 0.0
O17 O 0.31055 0.00116 0.1915 0.0
C18 C 0.40873 0.06837 0.16071 0.0
O19 O 0.41652 0.08086 0.20386 0.0
O20 O 0.32235 0.08233 0.22668 0.0
C21 C 0.30014 0.97735 0.22138 0.0
O22 O 0.3133 0.97832 0.26506 0.0
C23 C 0.39683 0.0049 0.26082 0.0
O24 O 0.40051 0.99028 0.21861 0.0
O25 O 0.37922 0.05109 0.1538 0.0
C26 C 0.08912 0.31993 0.45119 0.0
O27 O 0.05798 0.31692 0.43138 0.0
O28 O 0.03089 0.38347 0.4601 0.0
Zn29 Zn 0.05435 0.36153 0.51531 0.0
O30 O 0.01988 0.32561 0.54612 0.0
C31 C 0.07618 0.42987 0.55572 0.0
O32 O 0.07018 0.44108 0.51215 0.0
O33 O 0.09433 0.33818 0.48909 0.0
C34 C 0.00015 0.33348 0.58025 0.0
O35 O 0.00285 0.36565 0.59644 0.0
C36 C 0.00443 0.40019 0.46525 0.0
O37 O 0.99164 0.40406 0.50855 0.0
O38 O 0.07179 0.39739 0.56457 0.0
C39 C 0.70235 0.93196 0.75551 0.0
O40 O 0.67065 0.93415 0.77181 0.0
O41 O 0.66258 0.00939 0.769 0.0
Zn42 Zn 0.69329 -0.00127 0.71379 0.0
O43 O 0.7299 0.0387 0.70159 0.0
C44 C 0.63741 0.00827 0.65117 0.0
O45 O 0.63285 0.03186 0.68405 0.0
O46 O 0.71688 0.95632 0.72933 0.0
C47 C 0.72533 0.07025 0.71019 0.0
O48 O 0.69525 0.07767 0.72749 0.0
C49 C 0.67279 0.02162 0.80966 0.0
O50 O 0.70636 0.02801 0.81835 0.0
O51 O 0.66296 0.99017 0.65531 0.0
C52 C 0.94176 0.59441 0.13858 0.0
C53 C 0.95517 0.58307 0.09496 0.0
C54 C 0.93829 0.57224 0.17842 0.0
C55 C 0.94273 0.47997 0.21717 0.0
H56 H 0.97247 0.52389 0.3381 0.0
C57 C -1e-05 0.40873 0.37631 0.0
C58 C 0.98992 0.41713 0.4232 0.0
C59 C 0.98839 0.42649 0.33664 0.0
C60 C 0.96353 0.51129 0.3048 0.0
H61 H 0.9744 0.53931 0.05825 0.0
H62 H 0.96967 0.50106 0.12809 0.0
H63 H 0.96558 0.55981 0.26763 0.0
H64 H 0.95882 0.44987 0.46519 0.0
H65 H 0.93899 0.48134 0.39569 0.0
H66 H 0.94267 0.43125 0.25437 0.0
C67 C 0.96091 0.52671 0.13144 0.0
C68 C 0.95944 0.53188 0.26432 0.0
C69 C 0.96385 0.54873 0.09138 0.0
C70 C 0.96711 0.44289 0.42951 0.0
C71 C 0.95583 0.46095 0.38982 0.0
C72 C 0.94726 0.45934 0.25761 0.0
C73 C 0.94874 0.53842 0.17576 0.0
C74 C 0.94952 0.51649 0.21975 0.0
C75 C 0.96678 0.45325 0.3431 0.0
C76 C 0.95819 0.47483 0.3016 0.0
H77 H 0.93445 0.62065 0.1422 0.0
H78 H 0.92803 0.58188 0.21158 0.0
H79 H 0.93442 0.46724 0.18372 0.0
H80 H 0.01739 0.38885 0.37027 0.0
H81 H -0.00251 0.42026 0.30105 0.0
C82 C 0.44648 0.97612 0.29577 0.0
C83 C 0.41953 -0.00236 0.30166 0.0
C84 C 0.4692 0.97113 0.33382 0.0
C85 C 0.47898 0.98097 0.46604 0.0
H86 H 0.57818 0.99149 0.4383 0.0
C87 C 0.58199 0.01935 0.61039 0.0
C88 C 0.61248 0.00236 0.61087 0.0
C89 C 0.55806 0.01374 0.57284 0.0
C90 C 0.55055 0.98793 0.44651 0.0
H91 H 0.39476 0.03013 0.35236 0.0
H92 H 0.43444 0.02171 0.41829 0.0
H93 H 0.53634 0.98998 0.37212 0.0
H94 H 0.64185 0.96616 0.57229 0.0
H95 H 0.59993 0.95657 0.50621 0.0
H96 H 0.49323 0.97999 0.54048 0.0
C97 C 0.43785 0.00833 0.38457 0.0
C98 C 0.52659 0.98701 0.40864 0.0
C99 C 0.41523 0.01337 0.34662 0.0
C100 C 0.61858 0.97965 0.57289 0.0
C101 C 0.59468 0.97422 0.53504 0.0
C102 C 0.50291 0.98199 0.50384 0.0
C103 C 0.46529 0.98745 0.37849 0.0
C104 C 0.49057 0.9843 0.4181 0.0
C105 C 0.56414 0.99116 0.53478 0.0
C106 C 0.53892 0.98625 0.4945 0.0
H107 H 0.45042 0.96358 0.26157 0.0
H108 H 0.48992 0.95464 0.32821 0.0
H109 H 0.45138 0.97816 0.47441 0.0
H110 H 0.57649 0.037 0.6391 0.0
H111 H 0.53501 0.02758 0.57322 0.0
C112 C 0.07183 0.59664 0.92838 0.0
C113 C 0.04813 0.62146 0.92128 0.0
C114 C 0.08397 0.57863 0.88916 0.0
C115 C 0.09317 0.57928 0.75702 0.0
H116 H 0.07623 0.47878 0.76797 0.0
C117 C 0.07571 0.48914 0.5918 0.0
C118 C 0.08427 0.45477 0.5955 0.0
C119 C 0.07928 0.51141 0.63159 0.0
C120 C 0.08203 0.50673 0.7644 0.0
H121 H 0.01994 0.64819 0.86749 0.0
H122 H 0.04137 0.61694 0.79914 0.0
H123 H 0.06899 0.51492 0.83815 0.0
H124 H 0.10561 0.41745 0.64243 0.0
H125 H 0.11319 0.45667 0.71128 0.0
H126 H 0.10594 0.5712 0.68313 0.0
C127 C 0.0505 0.61137 0.83494 0.0
C128 C 0.07774 0.52744 0.80473 0.0
C129 C 0.03801 0.62903 0.87412 0.0
C130 C 0.09836 0.4437 0.63879 0.0
C131 C 0.1025 0.46614 0.67832 0.0
C132 C 0.09793 0.55855 0.71674 0.0
C133 C 0.07302 0.58553 0.84217 0.0
C134 C 0.08244 0.5639 0.80113 0.0
C135 C 0.09202 0.49994 0.6757 0.0
C136 C 0.09154 0.52201 0.71962 0.0
H137 H 0.08014 0.59032 0.96431 0.0
H138 H 0.10145 0.5589 0.89559 0.0
H139 H 0.09728 0.60738 0.75349 0.0
H140 H 0.06465 0.49834 0.55891 0.0
H141 H 0.07048 0.53704 0.62826 0.0
C142 C 0.47019 0.08323 0.13248 0.0
C143 C 0.43548 0.07033 0.12241 0.0
C144 C 0.49627 0.08115 0.09791 0.0
C145 C 0.51479 0.02894 0.99217 0.0
H146 H 0.59181 0.10046 0.97127 0.0
C147 C 0.61092 0.02093 0.83635 0.0
C148 C 0.64663 0.02904 0.84615 0.0
C149 C 0.58589 0.02764 0.87034 0.0
C150 C 0.57063 0.08015 0.97715 0.0
H151 H 0.40052 0.04706 0.06727 0.0
H152 H 0.44585 0.04398 0.00682 0.0
H153 H 0.54595 0.11069 0.02897 0.0
H154 H 0.68406 0.05095 0.89917 0.0
H155 H 0.64003 0.06255 0.95898 0.0
H156 H 0.53928 -0.00162 0.94058 0.0
C157 C 0.45309 0.05493 0.04179 0.0
C158 C 0.54437 0.08602 0.01006 0.0
C159 C 0.42708 0.0569 0.07634 0.0
C160 C 0.65675 0.04433 0.89062 0.0
C161 C 0.63158 0.05117 0.92471 0.0
C162 C 0.54091 0.02313 0.95934 0.0
C163 C 0.48809 0.06622 0.0526 0.0
C164 C 0.51605 0.06053 0.01764 0.0
C165 C 0.59591 0.04264 0.91497 0.0
C166 C 0.56897 0.04873 0.95121 0.0
H167 H 0.47751 0.09376 0.16765 0.0
H168 H 0.52301 0.08992 0.1074 0.0
H169 H 0.4938 0.00842 -0.00194 0.0
H170 H 0.60217 0.00931 0.80235 0.0
H171 H 0.55859 0.02127 0.8615 0.0
C172 C 0.26488 0.92028 0.23756 0.0
C173 C 0.27321 0.94908 0.2072 0.0
C174 C 0.23931 0.89364 0.22418 0.0
C175 C 0.19082 0.85614 0.11787 0.0
H176 H 0.12619 0.81441 0.21381 0.0
C177 C 0.06725 0.76691 0.06684 0.0
C178 C 0.06005 0.73609 0.09364 0.0
C179 C 0.09336 0.79253 0.08158 0.0
C180 C 0.14427 0.82561 0.18674 0.0
H181 H 0.26106 0.9727 0.13916 0.0
H182 H 0.216 0.92671 0.11633 0.0
H183 H 0.17181 0.85984 0.23771 0.0
H184 H 0.07427 0.70823 0.15735 0.0
H185 H 0.11989 0.75314 0.18313 0.0
H186 H 0.16293 0.82223 0.06682 0.0
C187 C 0.2297 0.92425 0.15001 0.0
C188 C 0.17045 0.85157 0.20041 0.0
C189 C 0.25541 0.95074 0.16324 0.0
C190 C 0.07918 0.73168 0.13592 0.0
C191 C 0.10519 0.75744 0.15081 0.0
C192 C 0.16453 0.83037 0.10419 0.0
C193 C 0.22136 0.89535 0.18028 0.0
C194 C 0.19395 0.86724 0.16608 0.0
C195 C 0.11272 0.78798 0.12355 0.0
C196 C 0.14091 0.81494 0.13843 0.0
H197 H 0.27827 0.91814 0.27157 0.0
H198 H 0.23389 0.87152 0.24802 0.0
H199 H 0.20888 0.86715 0.09067 0.0
H200 H 0.05295 0.77118 0.03415 0.0
H201 H 0.09827 0.81602 0.06021 0.0
C202 C 0.32548 0.15421 0.31268 0.0
C203 C 0.31398 0.13222 0.27423 0.0
C204 C 0.30469 0.17907 0.32991 0.0
C205 C 0.22878 0.22627 0.29925 0.0
H206 H 0.2162 0.22963 0.43775 0.0
C207 C 0.1118 0.28253 0.38734 0.0
C208 C 0.11759 0.30224 0.42968 0.0
C209 C 0.13847 0.26538 0.36726 0.0
C210 C 0.21983 0.22944 0.39905 0.0
H211 H 0.27218 0.11989 0.22264 0.0
H212 H 0.23588 0.16297 0.25293 0.0
H213 H 0.25869 0.1939 0.40393 0.0
H214 H 0.15608 0.3198 0.48388 0.0
H215 H 0.20272 0.2899 0.44862 0.0
H216 H 0.18937 0.26127 0.29437 0.0
C217 C 0.26107 0.16126 0.26952 0.0
C218 C 0.24421 0.209 0.37967 0.0
C219 C 0.2818 0.13639 0.25236 0.0
C220 C 0.15074 0.3047 0.45131 0.0
C221 C 0.17742 0.28749 0.43124 0.0
C222 C 0.2044 0.24671 0.31863 0.0
C223 C 0.27204 0.18252 0.30893 0.0
C224 C 0.24855 0.20676 0.32953 0.0
C225 C 0.17152 0.26755 0.3891 0.0
C226 C 0.19928 0.24807 0.3687 0.0
H227 H 0.35023 0.15176 0.33017 0.0
H228 H 0.31401 0.19539 0.35996 0.0
H229 H 0.23195 0.2255 0.2605 0.0
H230 H 0.08655 0.28008 0.36981 0.0
H231 H 0.13296 0.2498 0.33516 0.0
C232 C 0.78465 0.09052 0.6783 0.0
C233 C 0.75384 0.09819 0.70116 0.0
C234 C 0.81168 0.11676 0.66968 0.0
C235 C 0.83001 0.21224 0.65836 0.0
H236 H 0.92612 0.19193 0.66997 0.0
C237 C 0.94718 0.31684 0.63075 0.0
C238 C 0.97338 0.30703 0.59991 0.0
C239 C 0.92089 0.29202 0.64739 0.0
C240 C 0.8994 0.19791 0.66643 0.0
H241 H 0.72734 0.13938 0.73334 0.0
H242 H 0.77483 0.18517 0.71898 0.0
H243 H 0.87898 0.14749 0.69154 0.0
H244 H 0.99307 0.26341 0.56323 0.0
H245 H 0.94731 0.22013 0.59252 0.0
H246 H 0.85061 0.26272 0.63322 0.0
C247 C 0.77785 0.15893 0.70701 0.0
C248 C 0.87239 0.17246 0.67862 0.0
C249 C 0.75069 0.13267 0.71541 0.0
C250 C 0.97321 0.27181 0.58689 0.0
C251 C 0.94714 0.24698 0.60388 0.0
C252 C 0.85706 0.23779 0.64649 0.0
C253 C 0.80865 0.15127 0.68399 0.0
C254 C 0.83736 0.17913 0.67404 0.0
C255 C 0.92055 0.25688 0.63391 0.0
C256 C 0.89199 0.23069 0.64977 0.0
H257 H 0.78786 0.06425 0.66664 0.0
H258 H 0.83475 0.11004 0.65107 0.0
H259 H 0.80334 0.21812 0.65382 0.0
H260 H 0.94659 0.34377 0.64143 0.0
H261 H 0.90084 0.30029 0.67082 0.0
C262 C 0.75525 0.89984 0.75071 0.0
C263 C 0.72205 0.90285 0.77017 0.0
C264 C 0.77513 0.87404 0.76705 0.0
C265 C 0.78756 0.82147 0.87368 0.0
H266 H 0.84637 0.77361 0.78825 0.0
C267 C 0.8829 0.72754 0.94502 0.0
C268 C 0.91657 0.73192 0.92495 0.0
C269 C 0.85584 0.74393 0.92444 0.0
C270 C 0.83019 0.78689 0.81257 0.0
H271 H 0.68314 0.88041 0.82091 0.0
H272 H 0.71803 0.83523 0.84951 0.0
H273 H 0.80419 0.80981 0.75439 0.0
H274 H 0.94815 0.75658 0.86725 0.0
H275 H 0.90116 0.78548 0.83184 0.0
H276 H 0.8142 0.7994 0.93188 0.0
C277 C 0.7287 0.85307 0.82185 0.0
C278 C 0.80603 0.80754 0.79319 0.0
C279 C 0.70869 0.87883 0.8053 0.0
C280 C 0.92251 0.75264 0.88357 0.0
C281 C 0.89549 0.76899 0.86303 0.0
C282 C 0.81177 0.80086 0.89308 0.0
C283 C 0.7623 0.85072 0.80331 0.0
C284 C 0.78496 0.82561 0.82356 0.0
C285 C 0.86191 0.76497 0.88335 0.0
C286 C 0.83384 0.78392 0.86273 0.0
H287 H 0.76628 0.91789 0.72351 0.0
H288 H 0.8011 0.87317 0.75247 0.0
H289 H 0.77197 0.8354 0.89802 0.0
H290 H 0.87745 0.7116 0.97679 0.0
H291 H 0.83016 0.74008 0.94065 0.0
loop_
_geom_bond_atom_site_label_1
_geom_bond_atom_site_label_2
_geom_bond_distance
_geom_bond_site_symmetry_2
_ccdc_geom_bond_type
C0 O1 1.160 . S
C0 O7 1.185 1_556 S
O1 C0 1.160 . S
O2 Zn3 1.899 1_556 S
O2 C10 1.284 . S
Zn3 O2 1.899 1_554 S
Zn3 O4 2.032 . S
Zn3 O7 2.086 1_455 S
Zn3 O12 1.977 1_455 S
O4 Zn3 2.032 . S
O4 C8 1.278 . S
C5 O6 1.203 . S
C5 O12 1.267 1_455 S
O6 C5 1.203 . S
O7 C0 1.185 1_554 S
O7 Zn3 2.086 1_655 S
C8 O4 1.278 . S
C8 O9 1.211 . S
O9 C8 1.211 . S
C10 O2 1.284 . S
C10 O11 1.273 . S
O11 C10 1.273 . S
O12 Zn3 1.977 1_655 S
O12 C5 1.267 1_655 S
C13 O14 1.160 . S
C13 O20 1.185 . S
O14 C13 1.160 . S
O15 Zn16 1.899 . S
O15 C23 1.284 . S
Zn16 O15 1.899 . S
Zn16 O17 2.032 . S
Zn16 O20 2.086 . S
Zn16 O25 1.977 . S
O17 Zn16 2.032 . S
O17 C21 1.278 1_545 S
C18 O19 1.203 . S
C18 O25 1.267 . S
O19 C18 1.203 . S
O20 C13 1.185 . S
O20 Zn16 2.086 . S
C21 O17 1.278 1_565 S
C21 O22 1.211 . S
O22 C21 1.211 . S
C23 O15 1.284 . S
C23 O24 1.273 1_545 S
O24 C23 1.273 1_565 S
O25 Zn16 1.977 . S
O25 C18 1.267 . S
C26 O27 1.160 . S
C26 O33 1.185 . S
O27 C26 1.160 . S
O28 Zn29 1.899 . S
O28 C36 1.284 . S
Zn29 O28 1.899 . S
Zn29 O30 2.032 . S
Zn29 O33 2.086 . S
Zn29 O38 1.977 . S
O30 Zn29 2.032 . S
O30 C34 1.278 1_455 S
C31 O32 1.203 . S
C31 O38 1.267 . S
O32 C31 1.203 . S
O33 C26 1.185 . S
O33 Zn29 2.086 . S
C34 O30 1.278 1_655 S
C34 O35 1.211 . S
O35 C34 1.211 . S
C36 O28 1.284 . S
C36 O37 1.273 1_455 S
O37 C36 1.273 1_655 S
O38 Zn29 1.977 . S
O38 C31 1.267 . S
C39 O40 1.160 . S
C39 O46 1.185 . S
O40 C39 1.160 . S
O41 Zn42 1.899 . S
O41 C49 1.284 . S
Zn42 O41 1.899 . S
Zn42 O43 2.032 . S
Zn42 O46 2.086 1_545 S
Zn42 O51 1.977 1_545 S
O43 Zn42 2.032 . S
O43 C47 1.278 . S
C44 O45 1.203 . S
C44 O51 1.267 1_545 S
O45 C44 1.203 . S
O46 C39 1.185 . S
O46 Zn42 2.086 1_565 S
C47 O43 1.278 . S
C47 O48 1.211 . S
O48 C47 1.211 . S
C49 O41 1.284 . S
C49 O50 1.273 . S
O50 C49 1.273 . S
O51 Zn42 1.977 1_565 S
O51 C44 1.267 1_565 S
C52 C53 1.329 1_655 S
C52 C54 1.327 . S
C52 H77 0.950 . S
C53 C52 1.329 1_455 S
C53 C69 1.372 . S
C54 C52 1.327 . S
C54 C73 1.429 1_655 S
C54 H78 0.950 . S
C55 C72 1.574 . S
C55 C74 1.368 . S
C55 H79 0.949 . S
H56 C60 0.949 . S
C57 C58 1.349 . S
C57 C59 1.327 . S
C57 H80 0.950 . S
C58 C57 1.349 . S
C58 C70 1.349 1_455 S
C59 C57 1.327 . S
C59 C75 1.429 . S
C59 H81 0.950 . S
C60 H56 0.949 . S
C60 C68 1.574 . S
C60 C76 1.368 1_655 S
H61 C69 0.950 . S
H62 C67 0.950 . S
H63 C68 0.949 . S
H64 C70 0.950 . S
H65 C71 0.950 . S
H66 C72 0.949 . S
C67 H62 0.950 . S
C67 C69 1.327 . S
C67 C73 1.429 . S
C68 C60 1.574 . S
C68 H63 0.949 . S
C68 C74 1.368 1_655 S
C69 C53 1.372 . S
C69 H61 0.950 . S
C69 C67 1.327 . S
C70 C58 1.349 1_655 S
C70 H64 0.950 . S
C70 C71 1.327 . S
C71 H65 0.950 . S
C71 C70 1.327 . S
C71 C75 1.429 1_655 S
C72 C55 1.574 . S
C72 H66 0.949 . S
C72 C76 1.368 . S
C73 C54 1.429 1_455 S
C73 C67 1.429 . S
C73 C74 1.523 . S
C74 C55 1.368 . S
C74 C68 1.368 1_455 S
C74 C73 1.523 . S
C75 C59 1.429 . S
C75 C71 1.429 1_455 S
C75 C76 1.523 . S
C76 C60 1.368 1_455 S
C76 C72 1.368 . S
C76 C75 1.523 . S
H77 C52 0.950 . S
H78 C54 0.950 . S
H79 C55 0.949 . S
H80 C57 0.950 . S
H81 C59 0.950 . S
C82 C83 1.349 1_565 S
C82 C84 1.327 . S
C82 H107 0.950 . S
C83 C82 1.349 1_545 S
C83 C99 1.349 . S
C84 C82 1.327 . S
C84 C103 1.429 1_565 S
C84 H108 0.950 . S
C85 C102 1.574 . S
C85 C104 1.368 . S
C85 H109 0.949 . S
H86 C90 0.949 . S
C87 C88 1.369 . S
C87 C89 1.327 . S
C87 H110 0.950 . S
C88 C87 1.369 . S
C88 C100 1.332 1_545 S
C89 C87 1.327 . S
C89 C105 1.429 . S
C89 H111 0.950 . S
C90 H86 0.949 . S
C90 C98 1.574 . S
C90 C106 1.368 1_565 S
H91 C99 0.950 . S
H92 C97 0.950 . S
H93 C98 0.949 . S
H94 C100 0.950 . S
H95 C101 0.950 . S
H96 C102 0.949 . S
C97 H92 0.950 . S
C97 C99 1.327 . S
C97 C103 1.429 . S
C98 C90 1.574 . S
C98 H93 0.949 . S
C98 C104 1.368 1_565 S
C99 C83 1.349 . S
C99 H91 0.950 . S
C99 C97 1.327 . S
C100 C88 1.332 1_565 S
C100 H94 0.950 . S
C100 C101 1.327 . S
C101 H95 0.950 . S
C101 C100 1.327 . S
C101 C105 1.429 1_565 S
C102 C85 1.574 . S
C102 H96 0.949 . S
C102 C106 1.368 . S
C103 C84 1.429 1_545 S
C103 C97 1.429 . S
C103 C104 1.523 . S
C104 C85 1.368 . S
C104 C98 1.368 1_545 S
C104 C103 1.523 . S
C105 C89 1.429 . S
C105 C101 1.429 1_545 S
C105 C106 1.523 . S
C106 C90 1.368 1_545 S
C106 C102 1.368 . S
C106 C105 1.523 . S
H107 C82 0.950 . S
H108 C84 0.950 . S
H109 C85 0.949 . S
H110 C87 0.950 . S
H111 C89 0.950 . S
C112 C113 1.349 . S
C112 C114 1.327 . S
C112 H137 0.950 . S
C113 C112 1.349 . S
C113 C129 1.349 . S
C114 C112 1.327 . S
C114 C133 1.429 . S
C114 H138 0.950 . S
C115 C132 1.574 . S
C115 C134 1.368 . S
C115 H139 0.949 1_455 S
H116 C120 0.949 . S
C117 C118 1.349 . S
C117 C119 1.327 . S
C117 H140 0.950 1_455 S
C118 C117 1.349 . S
C118 C130 1.349 . S
C119 C117 1.327 . S
C119 C135 1.429 . S
C119 H141 0.950 1_455 S
C120 H116 0.949 . S
C120 C128 1.574 . S
C120 C136 1.368 . S
H121 C129 0.950 1_655 S
H122 C127 0.950 1_655 S
H123 C128 0.949 . S
H124 C130 0.950 . S
H125 C131 0.950 . S
H126 C132 0.949 1_655 S
C127 H122 0.950 1_455 S
C127 C129 1.327 . S
C127 C133 1.429 . S
C128 C120 1.574 . S
C128 H123 0.949 . S
C128 C134 1.368 . S
C129 C113 1.349 . S
C129 H121 0.950 1_455 S
C129 C127 1.327 . S
C130 C118 1.349 . S
C130 H124 0.950 . S
C130 C131 1.327 . S
C131 H125 0.950 . S
C131 C130 1.327 . S
C131 C135 1.429 . S
C132 C115 1.574 . S
C132 H126 0.949 1_455 S
C132 C136 1.368 . S
C133 C114 1.429 . S
C133 C127 1.429 . S
C133 C134 1.523 . S
C134 C115 1.368 . S
C134 C128 1.368 . S
C134 C133 1.523 . S
C135 C119 1.429 . S
C135 C131 1.429 . S
C135 C136 1.523 . S
C136 C120 1.368 . S
C136 C132 1.368 . S
C136 C135 1.523 . S
H137 C112 0.950 . S
H138 C114 0.950 . S
H139 C115 0.949 1_655 S
H140 C117 0.950 1_655 S
H141 C119 0.950 1_655 S
C142 C143 1.349 . S
C142 C144 1.327 . S
C142 H167 0.950 . S
C143 C142 1.349 . S
C143 C159 1.349 . S
C144 C142 1.327 . S
C144 C163 1.429 . S
C144 H168 0.950 . S
C145 C162 1.574 . S
C145 C164 1.368 1_556 S
C145 H169 0.949 1_546 S
H146 C150 0.949 . S
C147 C148 1.349 . S
C147 C149 1.327 . S
C147 H170 0.950 1_545 S
C148 C147 1.349 . S
C148 C160 1.349 . S
C149 C147 1.327 . S
C149 C165 1.429 . S
C149 H171 0.950 1_545 S
C150 H146 0.949 . S
C150 C158 1.574 1_556 S
C150 C166 1.368 . S
H151 C159 0.951 . S
H152 C157 0.950 1_565 S
H153 C158 0.949 . S
H154 C160 0.950 . S
H155 C161 0.950 . S
H156 C162 0.949 1_565 S
C157 H152 0.950 1_545 S
C157 C159 1.327 . S
C157 C163 1.429 . S
C158 C150 1.574 1_554 S
C158 H153 0.949 . S
C158 C164 1.368 . S
C159 C143 1.349 . S
C159 H151 0.951 . S
C159 C157 1.327 . S
C160 C148 1.349 . S
C160 H154 0.950 . S
C160 C161 1.327 . S
C161 H155 0.950 . S
C161 C160 1.327 . S
C161 C165 1.429 . S
C162 C145 1.574 . S
C162 H156 0.949 1_545 S
C162 C166 1.368 . S
C163 C144 1.429 . S
C163 C157 1.429 . S
C163 C164 1.523 . S
C164 C145 1.368 1_554 S
C164 C158 1.368 . S
C164 C163 1.523 . S
C165 C149 1.429 . S
C165 C161 1.429 . S
C165 C166 1.523 . S
C166 C150 1.368 . S
C166 C162 1.368 . S
C166 C165 1.523 . S
H167 C142 0.950 . S
H168 C144 0.950 . S
H169 C145 0.949 1_564 S
H170 C147 0.950 1_565 S
H171 C149 0.950 1_565 S
C172 C173 1.349 . S
C172 C174 1.327 . S
C172 H197 0.950 . S
C173 C172 1.349 . S
C173 C189 1.349 . S
C174 C172 1.327 . S
C174 C193 1.429 . S
C174 H198 0.950 . S
C175 C192 1.574 . S
C175 C194 1.368 . S
C175 H199 0.949 . S
H176 C180 0.949 . S
C177 C178 1.349 . S
C177 C179 1.327 . S
C177 H200 0.950 . S
C178 C177 1.349 . S
C178 C190 1.349 . S
C179 C177 1.327 . S
C179 C195 1.429 . S
C179 H201 0.950 . S
C180 H176 0.949 . S
C180 C188 1.574 . S
C180 C196 1.368 . S
H181 C189 0.950 . S
H182 C187 0.950 . S
H183 C188 0.949 . S
H184 C190 0.950 . S
H185 C191 0.950 . S
H186 C192 0.949 . S
C187 H182 0.950 . S
C187 C189 1.327 . S
C187 C193 1.429 . S
C188 C180 1.574 . S
C188 H183 0.949 . S
C188 C194 1.368 . S
C189 C173 1.349 . S
C189 H181 0.950 . S
C189 C187 1.327 . S
C190 C178 1.349 . S
C190 H184 0.950 . S
C190 C191 1.327 . S
C191 H185 0.950 . S
C191 C190 1.327 . S
C191 C195 1.429 . S
C192 C175 1.574 . S
C192 H186 0.949 . S
C192 C196 1.368 . S
C193 C174 1.429 . S
C193 C187 1.429 . S
C193 C194 1.523 . S
C194 C175 1.368 . S
C194 C188 1.368 . S
C194 C193 1.523 . S
C195 C179 1.429 . S
C195 C191 1.429 . S
C195 C196 1.523 . S
C196 C180 1.368 . S
C196 C192 1.368 . S
C196 C195 1.523 . S
H197 C172 0.950 . S
H198 C174 0.950 . S
H199 C175 0.949 . S
H200 C177 0.950 . S
H201 C179 0.950 . S
C202 C203 1.349 . S
C202 C204 1.327 . S
C202 H227 0.950 . S
C203 C202 1.349 . S
C203 C219 1.349 . S
C204 C202 1.327 . S
C204 C223 1.429 . S
C204 H228 0.950 . S
C205 C222 1.574 . S
C205 C224 1.368 . S
C205 H229 0.949 . S
H206 C210 0.949 . S
C207 C208 1.349 . S
C207 C209 1.327 . S
C207 H230 0.950 . S
C208 C207 1.349 . S
C208 C220 1.349 . S
C209 C207 1.327 . S
C209 C225 1.429 . S
C209 H231 0.950 . S
C210 H206 0.949 . S
C210 C218 1.574 . S
C210 C226 1.368 . S
H211 C219 0.950 . S
H212 C217 0.950 . S
H213 C218 0.949 . S
H214 C220 0.950 . S
H215 C221 0.950 . S
H216 C222 0.949 . S
C217 H212 0.950 . S
C217 C219 1.327 . S
C217 C223 1.429 . S
C218 C210 1.574 . S
C218 H213 0.949 . S
C218 C224 1.368 . S
C219 C203 1.349 . S
C219 H211 0.950 . S
C219 C217 1.327 . S
C220 C208 1.349 . S
C220 H214 0.950 . S
C220 C221 1.327 . S
C221 H215 0.950 . S
C221 C220 1.327 . S
C221 C225 1.429 . S
C222 C205 1.574 . S
C222 H216 0.949 . S
C222 C226 1.368 . S
C223 C204 1.429 . S
C223 C217 1.429 . S
C223 C224 1.523 . S
C224 C205 1.368 . S
C224 C218 1.368 . S
C224 C223 1.523 . S
C225 C209 1.429 . S
C225 C221 1.429 . S
C225 C226 1.523 . S
C226 C210 1.368 . S
C226 C222 1.368 . S
C226 C225 1.523 . S
H227 C202 0.950 . S
H228 C204 0.950 . S
H229 C205 0.949 . S
H230 C207 0.950 . S
H231 C209 0.950 . S
C232 C233 1.349 . S
C232 C234 1.327 . S
C232 H257 0.950 . S
C233 C232 1.349 . S
C233 C249 1.349 . S
C234 C232 1.327 . S
C234 C253 1.429 . S
C234 H258 0.950 . S
C235 C252 1.574 . S
C235 C254 1.368 . S
C235 H259 0.949 . S
H236 C240 0.949 . S
C237 C238 1.349 . S
C237 C239 1.327 . S
C237 H260 0.950 . S
C238 C237 1.349 . S
C238 C250 1.349 . S
C239 C237 1.327 . S
C239 C255 1.429 . S
C239 H261 0.950 . S
C240 H236 0.949 . S
C240 C248 1.574 . S
C240 C256 1.368 . S
H241 C249 0.950 . S
H242 C247 0.950 . S
H243 C248 0.949 . S
H244 C250 0.950 . S
H245 C251 0.950 . S
H246 C252 0.949 . S
C247 H242 0.950 . S
C247 C249 1.327 . S
C247 C253 1.429 . S
C248 C240 1.574 . S
C248 H243 0.949 . S
C248 C254 1.368 . S
C249 C233 1.349 . S
C249 H241 0.950 . S
C249 C247 1.327 . S
C250 C238 1.349 . S
C250 H244 0.950 . S
C250 C251 1.327 . S
C251 H245 0.950 . S
C251 C250 1.327 . S
C251 C255 1.429 . S
C252 C235 1.574 . S
C252 H246 0.949 . S
C252 C256 1.368 . S
C253 C234 1.429 . S
C253 C247 1.429 . S
C253 C254 1.523 . S
C254 C235 1.368 . S
C254 C248 1.368 . S
C254 C253 1.523 . S
C255 C239 1.429 . S
C255 C251 1.429 . S
C255 C256 1.523 . S
C256 C240 1.368 . S
C256 C252 1.368 . S
C256 C255 1.523 . S
H257 C232 0.950 . S
H258 C234 0.950 . S
H259 C235 0.949 . S
H260 C237 0.950 . S
H261 C239 0.950 . S
C262 C263 1.349 . S
C262 C264 1.327 . S
C262 H287 0.950 . S
C263 C262 1.349 . S
C263 C279 1.349 . S
C264 C262 1.327 . S
C264 C283 1.429 . S
C264 H288 0.950 . S
C265 C282 1.574 . S
C265 C284 1.368 . S
C265 H289 0.949 . S
H266 C270 0.949 . S
C267 C268 1.349 . S
C267 C269 1.327 . S
C267 H290 0.950 1_556 S
C268 C267 1.349 . S
C268 C280 1.349 . S
C269 C267 1.327 . S
C269 C285 1.429 . S
C269 H291 0.950 . S
C270 H266 0.949 . S
C270 C278 1.574 . S
C270 C286 1.368 . S
H271 C279 0.950 . S
H272 C277 0.950 . S
H273 C278 0.949 . S
H274 C280 0.950 . S
H275 C281 0.950 . S
H276 C282 0.949 . S
C277 H272 0.950 . S
C277 C279 1.327 . S
C277 C283 1.429 . S
C278 C270 1.574 . S
C278 H273 0.949 . S
C278 C284 1.368 . S
C279 C263 1.349 . S
C279 H271 0.950 . S
C279 C277 1.327 . S
C280 C268 1.349 . S
C280 H274 0.950 . S
C280 C281 1.327 . S
C281 H275 0.950 . S
C281 C280 1.327 . S
C281 C285 1.429 . S
C282 C265 1.574 . S
C282 H276 0.949 . S
C282 C286 1.368 . S
C283 C264 1.429 . S
C283 C277 1.429 . S
C283 C284 1.523 . S
C284 C265 1.368 . S
C284 C278 1.368 . S
C284 C283 1.523 . S
C285 C269 1.429 . S
C285 C281 1.429 . S
C285 C286 1.523 . S
C286 C270 1.368 . S
C286 C282 1.368 . S
C286 C285 1.523 . S
H287 C262 0.950 . S
H288 C264 0.950 . S
H289 C265 0.949 . S
H290 C267 0.950 1_554 S
H291 C269 0.950 . S
C53 C5 0.986 . S
C58 C36 1.010 . S
C83 C23 1.010 . S
C88 C44 0.986 . S
C113 C10 1.011 . S
C118 C31 0.980 . S
C143 C18 0.980 . S
C148 C49 1.010 . S
C173 C21 1.437 . S
C178 C8 1.437 . S
C203 C13 1.417 . S
C208 C26 1.417 . S
C233 C47 1.437 . S
C238 C34 1.437 . S
C263 C39 1.417 . S
C268 C0 1.417 . S
