# Generated by pormake.
# Topology ftb, (5)-cn, num edge types: 1
# Building blocks:
#     Node 0, Type 0, BuildingBlock: BEQFEK_clean_sbu_0, # of connection points: 5
#     Node 1, Type 0, BuildingBlock: BEQFEK_clean_sbu_0, # of connection points: 5
#     Node 2, Type 0, BuildingBlock: BEQFEK_clean_sbu_0, # of connection points: 5
#     Node 3, Type 0, BuildingBlock: BEQFEK_clean_sbu_0, # of connection points: 5
#     Node 4, Type 0, BuildingBlock: BEQFEK_clean_sbu_0, # of connection points: 5
#     Node 5, Type 0, BuildingBlock: BEQFEK_clean_sbu_0, # of connection points: 5
#     Node 6, Type 0, BuildingBlock: BEQFEK_clean_sbu_0, # of connection points: 5
#     Node 7, Type 0, BuildingBlock: BEQFEK_clean_sbu_0, # of connection points: 5
#     Edge 8, Type (0, 0), BuildingBlock: CIFDUS_clean_linker_0, # of connection points: 2
#     Edge 9, Type (0, 0), BuildingBlock: CIFDUS_clean_linker_0, # of connection points: 2
#     Edge 10, Type (0, 0), BuildingBlock: CIFDUS_clean_linker_0, # of connection points: 2
#     Edge 11, Type (0, 0), BuildingBlock: CIFDUS_clean_linker_0, # of connection points: 2
#     Edge 12, Type (0, 0), BuildingBlock: CIFDUS_clean_linker_0, # of connection points: 2
#     Edge 13, Type (0, 0), BuildingBlock: CIFDUS_clean_linker_0, # of connection points: 2
#     Edge 14, Type (0, 0), BuildingBlock: CIFDUS_clean_linker_0, # of connection points: 2
#     Edge 15, Type (0, 0), BuildingBlock: CIFDUS_clean_linker_0, # of connection points: 2
#     Edge 16, Type (0, 0), BuildingBlock: CIFDUS_clean_linker_0, # of connection points: 2
#     Edge 17, Type (0, 0), BuildingBlock: CIFDUS_clean_linker_0, # of connection points: 2
#     Edge 18, Type (0, 0), BuildingBlock: CIFDUS_clean_linker_0, # of connection points: 2
#     Edge 19, Type (0, 0), BuildingBlock: CIFDUS_clean_linker_0, # of connection points: 2
#     Edge 20, Type (0, 0), BuildingBlock: CIFDUS_clean_linker_0, # of connection points: 2
#     Edge 21, Type (0, 0), BuildingBlock: CIFDUS_clean_linker_0, # of connection points: 2
#     Edge 22, Type (0, 0), BuildingBlock: CIFDUS_clean_linker_0, # of connection points: 2
#     Edge 23, Type (0, 0), BuildingBlock: CIFDUS_clean_linker_0, # of connection points: 2
#     Edge 24, Type (0, 0), BuildingBlock: CIFDUS_clean_linker_0, # of connection points: 2
#     Edge 25, Type (0, 0), BuildingBlock: CIFDUS_clean_linker_0, # of connection points: 2
#     Edge 26, Type (0, 0), BuildingBlock: CIFDUS_clean_linker_0, # of connection points: 2
#     Edge 27, Type (0, 0), BuildingBlock: CIFDUS_clean_linker_0, # of connection points: 2
# Relax obj value: 0.123
# Max RMSD: 0.199
# Mean RMSD: 0.199
data_MOF--net-ftb--node1-BEQFEK_clean_sbu_0--edge1-CIFDUS_clean_linker_0
_symmetry_space_group_name_H-M    P1
_symmetry_Int_Tables_number       1
_symmetry_cell_setting            triclinic
loop_
_symmetry_equiv_pos_as_xyz
'x, y, z'
_cell_length_a     49.804725
_cell_length_b     13.532313
_cell_length_c     32.625817
_cell_angle_alpha  89.860218
_cell_angle_beta   92.970535
_cell_angle_gamma 90.173032
loop_
_atom_site_label
_atom_site_type_symbol
_atom_site_fract_x
_atom_site_fract_y
_atom_site_fract_z
_atom_type_partial_charge
Co0 Co 0.34164 0.12813 0.14688 0.0
Co1 Co 0.34644 0.05583 0.05557 0.0
C2 C 0.31834 0.93578 0.11688 0.0
O3 O 0.32437 -0.00457 0.14621 0.0
O4 O 0.32697 0.9478 0.08106 0.0
C5 C 0.34744 0.13617 0.23662 0.0
O6 O 0.34875 0.03924 0.23624 0.0
C7 C 0.3477 0.95484 0.9749 0.0
C8 C 0.37104 0.06368 0.94062 0.0
C9 C 0.35778 0.97388 0.93667 0.0
N10 N 0.35512 0.02949 1.00028 0.0
N11 N 0.36893 0.0943 0.97945 0.0
C12 C 0.32893 0.87369 0.98605 0.0
H13 H 0.31366 0.90276 0.00635 0.0
H14 H 0.34051 0.81531 0.00304 0.0
H15 H 0.31852 0.84089 0.95843 0.0
C16 C 0.39988 0.15672 0.13942 0.0
N17 N 0.37542 0.13024 0.12368 0.0
N18 N 0.37781 0.0899 0.08753 0.0
C19 C 0.40407 0.08225 0.08032 0.0
C20 C 0.41908 0.12643 0.11261 0.0
C21 C 0.40428 0.21438 0.17832 0.0
H22 H 0.38744 0.26664 0.18173 0.0
H23 H 0.40491 0.1628 0.20484 0.0
H24 H 0.42333 0.25704 0.17852 0.0
O25 O 0.31541 0.20785 0.11583 0.0
O26 O 0.31916 0.1622 0.05103 0.0
H27 H 0.41826 0.06762 0.01975 0.0
H28 H 0.4336 0.98365 0.05681 0.0
C29 C 0.41448 0.02021 0.04662 0.0
H30 H 0.3996 0.96248 0.03713 0.0
H31 H 0.37651 0.16059 0.99164 0.0
O32 O 0.34438 0.18319 0.20296 0.0
C33 C 0.30777 0.21203 0.07812 0.0
Co34 Co 0.64997 0.01511 0.05726 0.0
Co35 Co 0.64321 0.9305 0.146 0.0
C36 C 0.65339 0.7976 0.07642 0.0
O37 O 0.65269 0.8701 0.05127 0.0
O38 O 0.64918 0.80965 0.11435 0.0
C39 C 0.63734 0.05041 0.97048 0.0
O40 O 0.62219 0.97091 0.97163 0.0
C41 C 0.63946 0.82557 0.22548 0.0
C42 C 0.62066 0.94131 0.26201 0.0
C43 C 0.63048 0.84563 0.26438 0.0
N44 N 0.63455 0.90512 0.20143 0.0
N45 N 0.6236 0.97418 0.22365 0.0
C46 C 0.65519 0.73812 0.21238 0.0
H47 H 0.66827 0.75905 0.18725 0.0
H48 H 0.64106 0.67974 0.20087 0.0
H49 H 0.66784 0.70805 0.23847 0.0
C50 C 0.5975 0.10272 0.07292 0.0
N51 N 0.6196 0.05186 0.08542 0.0
N52 N 0.61511 0.00496 0.11963 0.0
C53 C 0.58918 0.01709 0.1282 0.0
C54 C 0.57715 0.08166 0.09938 0.0
C55 C 0.59638 0.17093 0.03669 0.0
H56 H 0.61643 0.20457 0.03283 0.0
H57 H 0.59057 0.12852 0.00855 0.0
H58 H 0.58148 0.23056 0.04056 0.0
O59 O 0.68327 0.05317 0.08644 0.0
O60 O 0.67868 0.00069 0.15025 0.0
H61 H 0.57289 0.99175 0.18692 0.0
H62 H 0.55474 0.93155 0.14491 0.0
C63 C 0.5751 0.952 0.15762 0.0
H64 H 0.58669 0.88331 0.16388 0.0
H65 H 0.61862 0.04474 0.21282 0.0
O66 O 0.65012 0.07944 0.00297 0.0
C67 C 0.69245 0.04178 0.12315 0.0
Co68 Co 0.34659 0.5903 0.65771 0.0
Co69 Co 0.35419 0.47698 0.57537 0.0
C70 C 0.32275 0.3864 0.63797 0.0
O71 O 0.32544 0.46516 0.65926 0.0
O72 O 0.33476 0.37482 0.60477 0.0
C73 C 0.34839 0.60427 0.74602 0.0
O74 O 0.34908 0.50726 0.74502 0.0
C75 C 0.35628 0.35882 0.49895 0.0
C76 C 0.38149 0.45706 0.46257 0.0
C77 C 0.36713 0.36925 0.46071 0.0
N78 N 0.36427 0.43647 0.52231 0.0
N79 N 0.37924 0.49478 0.50026 0.0
C80 C 0.33612 0.28384 0.51152 0.0
H81 H 0.32129 0.31887 0.53106 0.0
H82 H 0.34666 0.22501 0.52976 0.0
H83 H 0.32533 0.24995 0.48445 0.0
C84 C 0.40593 0.59067 0.65925 0.0
N85 N 0.38172 0.56865 0.64126 0.0
N86 N 0.38505 0.51707 0.60778 0.0
C87 C 0.41153 0.5007 0.60447 0.0
C88 C 0.42553 0.54781 0.63664 0.0
C89 C 0.41006 0.64716 0.69844 0.0
H90 H 0.39678 0.71287 0.69772 0.0
H91 H 0.40453 0.59935 0.72436 0.0
H92 H 0.4313 0.67077 0.70374 0.0
O93 O 0.32685 0.67868 0.61942 0.0
O94 O 0.32767 0.58468 0.56385 0.0
H95 H 0.42766 0.48709 0.54538 0.0
H96 H 0.44244 0.40464 0.58304 0.0
C97 C 0.42327 0.43913 0.57182 0.0
H98 H 0.40897 0.38033 0.56145 0.0
H99 H 0.38721 0.56222 0.51057 0.0
O100 O 0.3474 0.65257 0.71252 0.0
C101 C 0.3194 0.66039 0.58239 0.0
Co102 Co 0.64976 0.5966 0.57811 0.0
Co103 Co 0.65809 0.53197 0.67085 0.0
C104 C 0.66557 0.3929 0.59952 0.0
O105 O 0.65738 0.45566 0.57259 0.0
O106 O 0.66628 0.41295 0.63783 0.0
C107 C 0.64049 0.61228 0.48978 0.0
O108 O 0.64414 0.5162 0.48947 0.0
C109 C 0.65652 0.4185 0.74878 0.0
C110 C 0.66211 0.53992 0.79369 0.0
C111 C 0.65872 0.43859 0.79062 0.0
N112 N 0.65822 0.50452 0.72828 0.0
N113 N 0.66163 0.57653 0.75535 0.0
C114 C 0.65555 0.31966 0.72831 0.0
H115 H 0.67126 0.31668 0.70554 0.0
H116 H 0.63574 0.31011 0.71159 0.0
H117 H 0.65905 0.25826 0.75044 0.0
C118 C 0.59655 0.64828 0.60605 0.0
N119 N 0.62203 0.61849 0.61396 0.0
N120 N 0.62508 0.59025 0.6525 0.0
C121 C 0.60148 0.60076 0.6704 0.0
C122 C 0.58265 0.63827 0.64161 0.0
C123 C 0.58513 0.67202 0.56382 0.0
H124 H 0.58994 0.61136 0.54262 0.0
H125 H 0.56304 0.68244 0.56302 0.0
H126 H 0.59478 0.74039 0.55274 0.0
O127 O 0.68429 0.65386 0.59785 0.0
O128 O 0.689 0.62113 0.66454 0.0
H129 H 0.57552 0.58201 0.72132 0.0
H130 H 0.60176 0.49041 0.71753 0.0
C131 C 0.59665 0.5697 0.71347 0.0
H132 H 0.60993 0.61309 0.735 0.0
H133 H 0.66384 0.65084 0.74755 0.0
O134 O 0.64133 0.65797 0.52382 0.0
C135 C 0.69764 0.65882 0.63205 0.0
Co136 Co 0.84645 0.10444 0.59408 0.0
Co137 Co 0.84015 0.02929 0.5025 0.0
C138 C 0.83175 0.89441 0.57263 0.0
O139 O 0.83791 0.96232 0.59849 0.0
O140 O 0.83272 0.90895 0.53408 0.0
C141 C 0.84293 0.12949 0.68047 0.0
O142 O 0.82351 0.06414 0.67516 0.0
C143 C 0.83528 0.92191 0.42335 0.0
C144 C 0.84784 0.03829 0.38065 0.0
C145 C 0.83943 0.94075 0.38222 0.0
N146 N 0.8414 0.00423 0.44498 0.0
N147 N 0.84872 0.07352 0.41919 0.0
C148 C 0.82356 0.83085 0.44152 0.0
H149 H 0.80962 0.85168 0.46547 0.0
H150 H 0.84001 0.78596 0.45622 0.0
H151 H 0.81244 0.78581 0.41785 0.0
C152 C 0.89955 0.15941 0.56757 0.0
N153 N 0.8744 0.12718 0.55873 0.0
N154 N 0.87312 0.08617 0.52227 0.0
C155 C 0.89795 0.085 0.50771 0.0
C156 C 0.91566 0.13208 0.53589 0.0
C157 C 0.90774 0.2131 0.60633 0.0
H158 H 0.89168 0.26541 0.61411 0.0
H159 H 0.91038 0.15918 0.6319 0.0
H160 H 0.92675 0.25477 0.60315 0.0
O161 O 0.81275 0.16369 0.57419 0.0
O162 O 0.80823 0.11581 0.50902 0.0
H163 H 0.90495 0.07072 0.44389 0.0
H164 H 0.92575 0.99203 0.47673 0.0
C165 C 0.90531 0.02366 0.4718 0.0
H166 H 0.89085 0.96199 0.46676 0.0
H167 H 0.85434 0.14507 0.42798 0.0
O168 O 0.85571 0.15714 0.64969 0.0
C169 C 0.79948 0.16046 0.5399 0.0
Co170 Co 0.1518 0.09506 0.54595 0.0
Co171 Co 0.14612 0.9616 0.62419 0.0
C172 C 0.17674 0.88791 0.55859 0.0
O173 O 0.17338 0.97131 0.54065 0.0
O174 O 0.16496 0.86622 0.5912 0.0
C175 C 0.13787 0.12546 0.46022 0.0
O176 O 0.12687 0.0375 0.46305 0.0
C177 C 0.14351 0.83148 0.69813 0.0
C178 C 0.12088 0.92966 0.73787 0.0
C179 C 0.13359 0.83891 0.73719 0.0
N180 N 0.1369 0.91437 0.67703 0.0
N181 N 0.12343 0.97245 0.7011 0.0
C182 C 0.15854 0.74719 0.68072 0.0
H183 H 0.15262 0.73812 0.64771 0.0
H184 H 0.15457 0.67735 0.69728 0.0
H185 H 0.1804 0.76361 0.68342 0.0
C186 C 0.09285 0.10672 0.5531 0.0
N187 N 0.1173 0.07144 0.56487 0.0
N188 N 0.11489 0.00825 0.59505 0.0
C189 C 0.08867 -0.00428 0.60165 0.0
C190 C 0.07371 0.05942 0.5759 0.0
C191 C 0.0885 0.19126 0.52384 0.0
H192 H 0.10682 0.23799 0.52348 0.0
H193 H 0.08403 0.16204 0.49248 0.0
H194 H 0.07132 0.23736 0.53256 0.0
O195 O 0.17254 0.17625 0.58543 0.0
O196 O 0.17306 0.06812 0.63686 0.0
H197 H 0.07535 0.94842 0.65996 0.0
H198 H 0.05854 0.88861 0.61662 0.0
C199 C 0.0782 0.91719 0.62913 0.0
H200 H 0.0927 0.85521 0.63236 0.0
H201 H 0.1164 0.04253 0.6926 0.0
O202 O 0.14957 0.16377 0.49194 0.0
C203 C 0.18092 0.14851 0.62104 0.0
Co204 Co 0.83122 0.51128 0.11578 0.0
Co205 Co 0.83598 0.44266 0.02405 0.0
C206 C 0.8256 0.30047 0.09331 0.0
O207 O 0.82801 0.3675 0.12065 0.0
O208 O 0.82858 0.31959 0.05539 0.0
C209 C 0.83814 0.5353 0.2047 0.0
O210 O 0.84494 0.44158 0.20604 0.0
C211 C 0.84338 0.33486 0.94607 0.0
C212 C 0.84769 0.4612 0.90382 0.0
C213 C 0.84642 0.35903 0.90505 0.0
N214 N 0.84277 0.41919 0.96779 0.0
N215 N 0.84537 0.49418 0.94227 0.0
C216 C 0.84171 0.23408 0.96468 0.0
H217 H 0.85246 0.23328 0.99532 0.0
H218 H 0.85056 0.17755 0.94487 0.0
H219 H 0.8203 0.21544 0.96881 0.0
C220 C 0.88491 0.59074 0.10155 0.0
N221 N 0.8619 0.54704 0.08778 0.0
N222 N 0.86445 0.51664 0.0499 0.0
C223 C 0.88938 0.53936 0.03854 0.0
C224 C 0.90298 0.58786 0.07077 0.0
C225 C 0.89016 0.62766 0.14442 0.0
H226 H 0.87392 0.67902 0.15231 0.0
H227 H 0.89007 0.56426 0.16604 0.0
H228 H 0.90979 0.66658 0.14804 0.0
O229 O 0.79757 0.55328 0.087 0.0
O230 O 0.8018 0.51634 0.0214 0.0
H231 H 0.89489 0.55304 0.97433 0.0
H232 H 0.92355 0.50328 0.00299 0.0
C233 C 0.90125 0.50338 1.00009 0.0
H234 H 0.89401 0.42756 0.99284 0.0
H235 H 0.845 0.56824 0.95107 0.0
O236 O 0.83193 0.57553 0.17028 0.0
C237 C 0.78832 0.5512 0.04997 0.0
Co238 Co 0.13314 0.58395 0.047 0.0
Co239 Co 0.14043 0.55507 0.1435 0.0
C240 C 0.16135 0.41011 0.08265 0.0
O241 O 0.15235 0.45771 0.05118 0.0
O242 O 0.15731 0.43883 0.11901 0.0
C243 C 0.14005 0.60468 0.9611 0.0
O244 O 0.16424 0.57172 0.97159 0.0
C245 C 0.13799 0.46207 0.22641 0.0
C246 C 0.14607 0.59277 0.2656 0.0
C247 C 0.1417 0.49166 0.26727 0.0
N248 N 0.14017 0.54222 0.20213 0.0
N249 N 0.14479 0.61994 0.22591 0.0
C250 C 0.13397 0.35914 0.21054 0.0
H251 H 0.13778 0.35485 0.17753 0.0
H252 H 0.11281 0.33651 0.21427 0.0
H253 H 0.14734 0.30693 0.2281 0.0
C254 C 0.07641 0.58858 0.06796 0.0
N255 N 0.10273 0.5845 0.07918 0.0
N256 N 0.10564 0.57731 0.11938 0.0
C257 C 0.08121 0.57901 0.1352 0.0
C258 C 0.06181 0.5859 0.10311 0.0
C259 C 0.06571 0.58442 0.02423 0.0
H260 H 0.0784 0.535 0.00636 0.0
H261 H 0.0447 0.55685 0.02172 0.0
H262 H 0.06648 0.65956 0.01063 0.0
O263 O 0.16001 0.68376 0.06523 0.0
O264 O 0.16545 0.66391 0.1327 0.0
H265 H 0.09128 0.62527 0.19681 0.0
H266 H 0.05607 0.5989 0.18679 0.0
C267 C 0.07674 0.57564 0.1802 0.0
H268 H 0.0802 0.49927 0.1917 0.0
H269 H 0.14768 0.69149 0.21493 0.0
O270 O 0.12308 0.61398 0.98862 0.0
C271 C 0.17177 0.70571 0.0996 0.0
H272 H 0.36053 0.43671 0.38342 0.0
H273 H 0.36446 0.16684 0.45392 0.0
H274 H 0.35818 0.06999 0.39072 0.0
H275 H 0.35241 0.06299 0.31498 0.0
H276 H 0.34905 0.33575 0.24576 0.0
H277 H 0.35443 0.43023 0.3089 0.0
C278 C 0.35999 0.35662 0.38497 0.0
C279 C 0.36258 0.30897 0.42323 0.0
C280 C 0.35658 0.30193 0.3487 0.0
C281 C 0.36186 0.20526 0.42484 0.0
C282 C 0.3585 0.14993 0.3887 0.0
C283 C 0.35281 0.14306 0.31375 0.0
C284 C 0.35033 0.19196 0.27559 0.0
C285 C 0.3559 0.19756 0.35039 0.0
C286 C 0.35087 0.29589 0.2746 0.0
C287 C 0.35398 0.35025 0.31073 0.0
H288 H 0.63372 0.91296 0.34213 0.0
H289 H 0.62916 0.6421 0.27252 0.0
H290 H 0.63215 0.54624 0.33603 0.0
H291 H 0.63604 0.53959 0.4117 0.0
H292 H 0.63803 0.81217 0.48048 0.0
H293 H 0.63544 0.90678 0.41686 0.0
C294 C 0.63334 0.83289 0.34071 0.0
C295 C 0.63209 0.78508 0.30242 0.0
C296 C 0.63434 0.77838 0.3773 0.0
C297 C 0.63132 0.68124 0.30134 0.0
C298 C 0.63262 0.62621 0.33777 0.0
C299 C 0.63581 0.61967 0.41277 0.0
C300 C 0.63736 0.66854 0.45087 0.0
C301 C 0.63425 0.67405 0.37595 0.0
C302 C 0.63689 0.77242 0.45166 0.0
C303 C 0.63548 0.82677 0.41526 0.0
H304 H 0.34632 0.80232 0.75748 0.0
H305 H 0.35328 0.52615 0.82362 0.0
H306 H 0.35626 0.61562 0.88874 0.0
H307 H 0.35825 0.77317 0.92672 0.0
H308 H 0.35088 0.04796 0.85979 0.0
H309 H 0.34708 0.95799 0.79507 0.0
C310 C 0.34842 0.76144 0.7861 0.0
C311 C 0.34962 0.65767 0.78562 0.0
C312 C 0.35013 0.81317 0.8233 0.0
C313 C 0.35232 0.60609 0.82307 0.0
C314 C 0.35404 0.65719 0.86034 0.0
C315 C 0.35522 0.81313 0.89803 0.0
C316 C 0.35436 0.917 0.89808 0.0
C317 C 0.35305 0.76082 0.86082 0.0
C318 C 0.35149 0.96795 0.86055 0.0
C319 C 0.34928 0.91662 0.82353 0.0
H320 H 0.62655 0.27728 0.80089 0.0
H321 H 0.69014 0.44997 0.86049 0.0
H322 H 0.68941 0.34415 0.92106 0.0
H323 H 0.67042 0.20493 0.95735 0.0
H324 H 0.60727 0.02897 0.89821 0.0
H325 H 0.60859 0.13229 0.83666 0.0
C326 C 0.64069 0.29005 0.82672 0.0
C327 C 0.65877 0.36998 0.82592 0.0
C328 C 0.64022 0.22858 0.86147 0.0
C329 C 0.67617 0.38843 0.86033 0.0
C330 C 0.67579 0.32795 0.89493 0.0
C331 C 0.65696 0.18876 0.93099 0.0
C332 C 0.63871 0.10952 0.93244 0.0
C333 C 0.65783 0.24819 0.89588 0.0
C334 C 0.62153 0.0895 0.8979 0.0
C335 C 0.62224 0.14866 0.86273 0.0
H336 H 0.82014 0.08463 0.75232 0.0
H337 H 0.87912 0.27591 0.70034 0.0
H338 H 0.88676 0.35834 0.76634 0.0
H339 H 0.87475 0.38307 0.83757 0.0
H340 H 0.8149 0.19551 0.88904 0.0
H341 H 0.80994 0.10354 0.82481 0.0
C342 C 0.8348 0.1439 0.75547 0.0
C343 C 0.84884 0.17455 0.72128 0.0
C344 C 0.83907 0.19133 0.79352 0.0
C345 C 0.86791 0.25108 0.72603 0.0
C346 C 0.8723 0.29837 0.76379 0.0
C347 C 0.86087 0.32118 0.83484 0.0
C348 C 0.84559 0.29507 0.86828 0.0
C349 C 0.85771 0.27008 0.79753 0.0
C350 C 0.82755 0.21526 0.8643 0.0
C351 C 0.82442 0.16346 0.82732 0.0
H352 H 0.1724 0.60366 0.89617 0.0
H353 H 0.09266 0.68275 0.93038 0.0
H354 H 0.08294 0.7535 0.86242 0.0
H355 H 0.09823 0.80479 0.79535 0.0
H356 H 0.17846 0.73218 0.76197 0.0
H357 H 0.18661 0.64525 0.82706 0.0
C358 C 0.1528 0.63547 0.88866 0.0
C359 C 0.13341 0.63873 0.91856 0.0
C360 C 0.14738 0.6769 0.84955 0.0
C361 C 0.10805 0.67979 0.90814 0.0
C362 C 0.10246 0.72038 0.86925 0.0
C363 C 0.11737 0.76862 0.8021 0.0
C364 C 0.13753 0.77369 0.77353 0.0
C365 C 0.12214 0.72108 0.84004 0.0
C366 C 0.16228 0.727 0.78275 0.0
C367 C 0.1671 0.67844 0.82031 0.0
H368 H 0.85138 0.74407 0.37774 0.0
H369 H 0.82095 0.99073 0.30552 0.0
H370 H 0.81738 0.88669 0.24447 0.0
H371 H 0.82373 0.72742 0.2114 0.0
H372 H 0.85394 0.47922 0.28306 0.0
H373 H 0.85625 0.58174 0.34479 0.0
C374 C 0.84335 0.77434 0.34888 0.0
C375 C 0.83594 0.8745 0.34631 0.0
C376 C 0.8414 0.71403 0.31381 0.0
C377 C 0.82663 0.91369 0.3083 0.0
C378 C 0.82457 0.85428 0.2734 0.0
C379 C 0.83074 0.69536 0.24051 0.0
C380 C 0.83871 0.59575 0.24253 0.0
C381 C 0.83205 0.75459 0.27576 0.0
C382 C 0.84769 0.55568 0.28059 0.0
C383 C 0.84904 0.61429 0.31591 0.0
H384 H 0.16347 0.29621 0.44176 0.0
H385 H 0.1075 0.07993 0.39049 0.0
H386 H 0.10344 0.1736 0.32633 0.0
H387 H 0.11497 0.31923 0.28553 0.0
H388 H 0.17228 0.53158 0.33636 0.0
H389 H 0.17604 0.43827 0.40027 0.0
C390 C 0.15039 0.26937 0.41657 0.0
C391 C 0.13581 0.18117 0.42101 0.0
C392 C 0.14825 0.3232 0.3797 0.0
C393 C 0.11903 0.14745 0.38792 0.0
C394 C 0.11665 0.2011 0.35121 0.0
C395 C 0.12882 0.34398 0.31 0.0
C396 C 0.14373 0.43158 0.30554 0.0
C397 C 0.13117 0.28917 0.34673 0.0
C398 C 0.16058 0.46441 0.33873 0.0
C399 C 0.16284 0.41092 0.37535 0.0
H400 H 0.54325 0.11507 0.16044 0.0
H401 H 0.54555 0.10702 0.02836 0.0
H402 H 0.49772 0.14103 0.02183 0.0
H403 H 0.45452 0.15699 0.0534 0.0
H404 H 0.4507 0.10921 0.18384 0.0
H405 H 0.49956 0.11309 0.19156 0.0
C406 C 0.53332 0.11888 0.13017 0.0
C407 C 0.54829 0.10901 0.09506 0.0
C408 C 0.5053 0.12822 0.1265 0.0
C409 C 0.53502 0.11768 0.0561 0.0
C410 C 0.50743 0.13533 0.05226 0.0
C411 C 0.46427 0.14542 0.08346 0.0
C412 C 0.44879 0.13323 0.11792 0.0
C413 C 0.4923 0.13813 0.08724 0.0
C414 C 0.46193 0.12184 0.15683 0.0
C415 C 0.48995 0.12247 0.16123 0.0
H416 H 0.45756 0.70695 0.63046 0.0
H417 H 0.45836 0.39663 0.65998 0.0
H418 H 0.50759 0.3989 0.66708 0.0
H419 H 0.55025 0.48705 0.65991 0.0
H420 H 0.54981 0.79635 0.62851 0.0
H421 H 0.50048 0.79767 0.62707 0.0
C422 C 0.46868 0.64049 0.63893 0.0
C423 C 0.45479 0.55166 0.64454 0.0
C424 C 0.49685 0.64238 0.64235 0.0
C425 C 0.46898 0.46543 0.65536 0.0
C426 C 0.49699 0.4668 0.65936 0.0
C427 C 0.53926 0.55494 0.65352 0.0
C428 C 0.55329 0.64166 0.6446 0.0
C429 C 0.51112 0.55446 0.65225 0.0
C430 C 0.53913 0.72906 0.63558 0.0
C431 C 0.51106 0.72965 0.63469 0.0
H432 H 0.03978 0.09812 0.50923 0.0
H433 H 0.04148 0.06283 0.6409 0.0
H434 H 0.99285 0.07721 0.63971 0.0
H435 H 0.95 0.09295 0.6011 0.0
H436 H 0.94825 0.1641 0.47204 0.0
H437 H -0.00291 0.14311 0.47225 0.0
C438 C 0.02966 0.09597 0.5378 0.0
C439 C 0.0443 0.07644 0.57496 0.0
C440 C 0.00175 0.11055 0.53729 0.0
C441 C 0.03068 0.07293 0.6116 0.0
C442 C 0.00286 0.08272 0.61107 0.0
C443 C 0.96021 0.10795 0.57327 0.0
C444 C 0.94543 0.1305 0.53665 0.0
C445 C 0.98822 0.10067 0.57406 0.0
C446 C 0.95915 0.14533 0.50056 0.0
C447 C 0.98705 0.13379 0.5007 0.0
H448 H 0.93895 0.49354 0.12063 0.0
H449 H 0.93134 0.72321 0.02926 0.0
H450 H 0.98024 0.74904 0.03376 0.0
H451 H 0.02508 0.70077 0.062 0.0
H452 H 0.03262 0.45897 0.14811 0.0
H453 H 0.98374 0.44465 0.14847 0.0
C454 C 0.94813 0.54988 0.10216 0.0
C455 C 0.93199 0.60735 0.07501 0.0
C456 C 0.97608 0.5621 0.10419 0.0
C457 C 0.94371 0.67899 0.0505 0.0
C458 C 0.97152 0.69348 0.05307 0.0
C459 C 0.01594 0.64496 0.08075 0.0
C460 C 0.03229 0.58143 0.10517 0.0
C461 C 0.98791 0.63464 0.07949 0.0
C462 C 0.02036 0.50992 0.12967 0.0
C463 C 0.99246 0.50106 0.12957 0.0
H464 H 0.1976 0.40937 0.02394 0.0
H465 H 0.17432 0.25429 0.13239 0.0
H466 H 0.21831 0.17501 0.13868 0.0
H467 H 0.26494 0.17109 0.11993 0.0
H468 H 0.28964 0.32855 0.01319 0.0
H469 H 0.24332 0.38802 0.99979 0.0
C470 C 0.20182 0.35544 0.04806 0.0
C471 C 0.18289 0.33784 0.07788 0.0
C472 C 0.22759 0.31425 0.05265 0.0
C473 C 0.18865 0.26873 0.10919 0.0
C474 C 0.21387 0.22462 0.1131 0.0
C475 C 0.26019 0.21914 0.09387 0.0
C476 C 0.2806 0.24939 0.06847 0.0
C477 C 0.23381 0.25103 0.0863 0.0
C478 C 0.2742 0.30723 0.03369 0.0
C479 C 0.24779 0.34028 0.02597 0.0
H480 H 0.74635 0.50967 0.09517 0.0
H481 H 0.7678 0.65676 0.98415 0.0
H482 H 0.72228 0.72512 0.97537 0.0
H483 H 0.68038 0.76783 0.00713 0.0
H484 H 0.66026 0.62592 0.1203 0.0
H485 H 0.70061 0.52502 0.11884 0.0
C486 C 0.74088 0.55591 0.06883 0.0
C487 C 0.76038 0.5817 0.04112 0.0
C488 C 0.71488 0.59439 0.06411 0.0
C489 C 0.75307 0.63818 0.00626 0.0
C490 C 0.7271 0.67678 1.00122 0.0
C491 C 0.68422 0.71234 0.03075 0.0
C492 C 0.66799 0.70772 0.06483 0.0
C493 C 0.70827 0.65885 0.03101 0.0
C494 C 0.67282 0.63298 0.0943 0.0
C495 C 0.69613 0.57627 0.09384 0.0
H496 H 0.21126 0.72049 0.16046 0.0
H497 H 0.18875 0.82131 0.03765 0.0
H498 H 0.23348 0.8908 0.03131 0.0
H499 H 0.27886 0.91829 0.05921 0.0
H500 H 0.3018 0.82902 0.18303 0.0
H501 H 0.25694 0.75624 0.19005 0.0
C502 C 0.21596 0.75928 0.13259 0.0
C503 C 0.19665 0.76539 0.09949 0.0
C504 C 0.24192 0.79796 0.12886 0.0
C505 C 0.20318 0.81546 0.06355 0.0
C506 C 0.22883 0.85435 0.05973 0.0
C507 C 0.27439 0.88043 0.08741 0.0
C508 C 0.29389 0.87552 0.12007 0.0
C509 C 0.24845 0.84396 0.09178 0.0
C510 C 0.28729 0.83093 0.15712 0.0
C511 C 0.2616 0.79077 0.16126 0.0
H512 H 0.73355 0.00357 0.07638 0.0
H513 H 0.71439 0.13818 0.19076 0.0
H514 H 0.75977 0.20987 0.19772 0.0
H515 H 0.80019 0.26139 0.1634 0.0
H516 H 0.81728 0.13508 0.04611 0.0
H517 H 0.77801 0.02801 0.04929 0.0
C518 C 0.73955 0.04732 0.10318 0.0
C519 C 0.72068 0.06878 0.13241 0.0
C520 C 0.76528 0.08892 0.10647 0.0
C521 C 0.72863 0.12249 0.16765 0.0
C522 C 0.75449 0.16333 0.17152 0.0
C523 C 0.79595 0.20803 0.13915 0.0
C524 C 0.81105 0.20906 0.10372 0.0
C525 C 0.77244 0.15102 0.14002 0.0
C526 C 0.80563 0.13754 0.07323 0.0
C527 C 0.78297 0.07714 0.07478 0.0
H528 H 0.22568 0.95566 0.54359 0.0
H529 H 0.18006 0.68663 0.55476 0.0
H530 H 0.2216 0.5897 0.55476 0.0
H531 H 0.27092 0.58505 0.56297 0.0
H532 H 0.3161 0.85703 0.56504 0.0
H533 H 0.27483 0.95037 0.54807 0.0
C534 C 0.22481 0.87553 0.54454 0.0
C535 C 0.19996 0.82772 0.54842 0.0
C536 C 0.24878 0.82157 0.54753 0.0
C537 C 0.19902 0.72435 0.55117 0.0
C538 C 0.22274 0.66932 0.55153 0.0
C539 C 0.27168 0.66448 0.5584 0.0
C540 C 0.29628 0.71469 0.56441 0.0
C541 C 0.24775 0.71752 0.55133 0.0
C542 C 0.29727 0.81756 0.55994 0.0
C543 C 0.27372 0.87057 0.55049 0.0
H544 H 0.68815 0.37347 0.52603 0.0
H545 H 0.68154 0.22864 0.64322 0.0
H546 H 0.7224 0.13554 0.63234 0.0
H547 H 0.76412 0.12162 0.59636 0.0
H548 H 0.77205 0.2696 0.48048 0.0
H549 H 0.72644 0.33695 0.48419 0.0
C550 C 0.69505 0.31905 0.54863 0.0
C551 C 0.68223 0.31012 0.58604 0.0
C552 C 0.71924 0.26942 0.54303 0.0
C553 C 0.69132 0.23832 0.61461 0.0
C554 C 0.71485 0.18591 0.60859 0.0
C555 C 0.75573 0.16825 0.57181 0.0
C556 C 0.77146 0.19394 0.53889 0.0
C557 C 0.72975 0.20571 0.57419 0.0
C558 C 0.76029 0.25097 0.50645 0.0
C559 C 0.73429 0.28895 0.50857 0.0
H560 H 0.23034 0.07532 0.62283 0.0
H561 H 0.18499 0.33036 0.65653 0.0
H562 H 0.22688 0.42047 0.674 0.0
H563 H 0.27557 0.43397 0.66882 0.0
H564 H 0.32016 0.18776 0.62369 0.0
H565 H 0.27953 0.08515 0.62223 0.0
C566 C 0.22981 0.14972 0.63516 0.0
C567 C 0.20499 0.19656 0.6391 0.0
C568 C 0.25381 0.20219 0.64268 0.0
C569 C 0.20409 0.29344 0.65385 0.0
C570 C 0.22796 0.34467 0.66356 0.0
C571 C 0.27657 0.35688 0.65997 0.0
C572 C 0.30076 0.31789 0.64665 0.0
C573 C 0.25287 0.30089 0.65667 0.0
C574 C 0.30172 0.21878 0.63427 0.0
C575 C 0.2785 0.16057 0.63316 0.0
H576 H 0.73295 0.62301 0.57497 0.0
H577 H 0.72473 0.77073 0.69054 0.0
H578 H 0.77038 0.83839 0.6872 0.0
H579 H 0.80911 0.87379 0.64619 0.0
H580 H 0.81621 0.72908 0.52938 0.0
H581 H 0.77502 0.63656 0.53969 0.0
C582 C 0.74123 0.66998 0.59945 0.0
C583 C 0.72541 0.69533 0.63221 0.0
C584 C 0.76734 0.7072 0.59743 0.0
C585 C 0.73652 0.75254 0.66462 0.0
C586 C 0.76257 0.79053 0.66278 0.0
C587 C 0.80221 0.81976 0.62351 0.0
C588 C 0.81524 0.81091 0.58636 0.0
C589 C 0.7778 0.7707 0.62867 0.0
C590 C 0.80627 0.73881 0.55784 0.0
C591 C 0.78251 0.68688 0.56346 0.0
loop_
_geom_bond_atom_site_label_1
_geom_bond_atom_site_label_2
_geom_bond_distance
_geom_bond_site_symmetry_2
_ccdc_geom_bond_type
Co0 O3 1.970 1_545 S
Co0 N17 1.989 . S
Co0 O25 1.967 . S
Co0 O32 1.920 . S
Co1 O4 1.966 1_545 S
Co1 N10 2.022 1_544 S
Co1 N18 1.993 . S
Co1 O26 1.941 . S
C2 O3 1.258 . S
C2 O4 1.263 . S
O3 Co0 1.970 1_565 S
O3 C2 1.258 . S
O4 Co1 1.966 1_565 S
O4 C2 1.263 . S
C5 O6 1.235 1_545 S
C5 O32 1.289 . S
O6 C5 1.235 1_565 S
C7 C9 1.400 . S
C7 N10 1.351 . S
C7 C12 1.501 . S
C8 C9 1.387 . S
C8 N11 1.341 1_565 S
C9 C7 1.400 . S
C9 C8 1.387 . S
N10 Co1 2.022 1_566 S
N10 C7 1.351 . S
N10 N11 1.365 1_565 S
N11 C8 1.341 1_545 S
N11 N10 1.365 1_545 S
N11 H31 0.862 . S
C12 C7 1.501 . S
C12 H13 0.961 1_556 S
C12 H14 0.961 . S
C12 H15 0.960 . S
H13 C12 0.961 1_554 S
H14 C12 0.961 . S
H15 C12 0.960 . S
C16 N17 1.342 . S
C16 C20 1.401 . S
C16 C21 1.499 . S
N17 Co0 1.989 . S
N17 C16 1.342 . S
N17 N18 1.388 . S
N18 Co1 1.993 . S
N18 N17 1.388 . S
N18 C19 1.346 . S
C19 N18 1.346 . S
C19 C20 1.396 . S
C19 C29 1.510 . S
C20 C16 1.401 . S
C20 C19 1.396 . S
C21 C16 1.499 . S
C21 H22 0.959 . S
C21 H23 0.960 . S
C21 H24 0.961 . S
H22 C21 0.959 . S
H23 C21 0.960 . S
H24 C21 0.961 . S
O25 Co0 1.967 . S
O25 C33 1.258 . S
O26 Co1 1.941 . S
O26 C33 1.266 . S
H27 C29 0.959 1_556 S
H28 C29 0.961 1_565 S
C29 C19 1.510 . S
C29 H27 0.959 1_554 S
C29 H28 0.961 1_545 S
C29 H30 0.960 1_544 S
H30 C29 0.960 1_566 S
H31 N11 0.862 . S
O32 Co0 1.920 . S
O32 C5 1.289 . S
C33 O25 1.258 . S
C33 O26 1.266 . S
Co34 O37 1.970 1_545 S
Co34 N51 1.989 . S
Co34 O59 1.967 . S
Co34 O66 1.920 1_554 S
Co35 O38 1.966 1_545 S
Co35 N44 2.022 1_545 S
Co35 N52 1.993 . S
Co35 O60 1.941 . S
C36 O37 1.258 . S
C36 O38 1.263 . S
O37 Co34 1.970 1_565 S
O37 C36 1.258 . S
O38 Co35 1.966 1_565 S
O38 C36 1.263 . S
C39 O40 1.235 1_545 S
C39 O66 1.289 . S
O40 C39 1.235 1_565 S
C41 C43 1.400 . S
C41 N44 1.351 . S
C41 C46 1.501 . S
C42 C43 1.387 . S
C42 N45 1.341 1_565 S
C43 C41 1.400 . S
C43 C42 1.387 . S
N44 Co35 2.022 1_565 S
N44 C41 1.351 . S
N44 N45 1.365 1_565 S
N45 C42 1.341 1_545 S
N45 N44 1.365 1_545 S
N45 H65 0.862 . S
C46 C41 1.501 . S
C46 H47 0.961 . S
C46 H48 0.961 . S
C46 H49 0.960 . S
H47 C46 0.961 . S
H48 C46 0.961 . S
H49 C46 0.960 . S
C50 N51 1.342 . S
C50 C54 1.401 . S
C50 C55 1.499 . S
N51 Co34 1.989 . S
N51 C50 1.342 . S
N51 N52 1.388 . S
N52 Co35 1.993 . S
N52 N51 1.388 . S
N52 C53 1.346 . S
C53 N52 1.346 . S
C53 C54 1.396 . S
C53 C63 1.510 . S
C54 C50 1.401 . S
C54 C53 1.396 . S
C55 C50 1.499 . S
C55 H56 0.959 . S
C55 H57 0.960 . S
C55 H58 0.961 . S
H56 C55 0.959 . S
H57 C55 0.960 . S
H58 C55 0.961 . S
O59 Co34 1.967 . S
O59 C67 1.258 . S
O60 Co35 1.941 . S
O60 C67 1.266 . S
H61 C63 0.959 . S
H62 C63 0.961 1_565 S
C63 C53 1.510 . S
C63 H61 0.959 . S
C63 H62 0.961 1_545 S
C63 H64 0.960 1_545 S
H64 C63 0.960 1_565 S
H65 N45 0.862 . S
O66 Co34 1.920 1_556 S
O66 C39 1.289 . S
C67 O59 1.258 . S
C67 O60 1.266 . S
Co68 O71 1.970 . S
Co68 N85 1.989 . S
Co68 O93 1.967 . S
Co68 O100 1.920 . S
Co69 O72 1.966 . S
Co69 N78 2.022 . S
Co69 N86 1.993 . S
Co69 O94 1.941 . S
C70 O71 1.258 . S
C70 O72 1.263 . S
O71 Co68 1.970 . S
O71 C70 1.258 . S
O72 Co69 1.966 . S
O72 C70 1.263 . S
C73 O74 1.235 . S
C73 O100 1.289 . S
O74 C73 1.235 . S
C75 C77 1.400 . S
C75 N78 1.351 . S
C75 C80 1.501 . S
C76 C77 1.387 . S
C76 N79 1.341 . S
C77 C75 1.400 . S
C77 C76 1.387 . S
N78 Co69 2.022 . S
N78 C75 1.351 . S
N78 N79 1.365 . S
N79 C76 1.341 . S
N79 N78 1.365 . S
N79 H99 0.862 . S
C80 C75 1.501 . S
C80 H81 0.961 . S
C80 H82 0.961 . S
C80 H83 0.960 . S
H81 C80 0.961 . S
H82 C80 0.961 . S
H83 C80 0.960 . S
C84 N85 1.342 . S
C84 C88 1.401 . S
C84 C89 1.499 . S
N85 Co68 1.989 . S
N85 C84 1.342 . S
N85 N86 1.388 . S
N86 Co69 1.993 . S
N86 N85 1.388 . S
N86 C87 1.346 . S
C87 N86 1.346 . S
C87 C88 1.396 . S
C87 C97 1.510 . S
C88 C84 1.401 . S
C88 C87 1.396 . S
C89 C84 1.499 . S
C89 H90 0.959 . S
C89 H91 0.960 . S
C89 H92 0.961 . S
H90 C89 0.959 . S
H91 C89 0.960 . S
H92 C89 0.961 . S
O93 Co68 1.967 . S
O93 C101 1.258 . S
O94 Co69 1.941 . S
O94 C101 1.266 . S
H95 C97 0.959 . S
H96 C97 0.961 . S
C97 C87 1.510 . S
C97 H95 0.959 . S
C97 H96 0.961 . S
C97 H98 0.960 . S
H98 C97 0.960 . S
H99 N79 0.862 . S
O100 Co68 1.920 . S
O100 C73 1.289 . S
C101 O93 1.258 . S
C101 O94 1.266 . S
Co102 O105 1.970 . S
Co102 N119 1.989 . S
Co102 O127 1.967 . S
Co102 O134 1.920 . S
Co103 O106 1.966 . S
Co103 N112 2.022 . S
Co103 N120 1.993 . S
Co103 O128 1.941 . S
C104 O105 1.258 . S
C104 O106 1.263 . S
O105 Co102 1.970 . S
O105 C104 1.258 . S
O106 Co103 1.966 . S
O106 C104 1.263 . S
C107 O108 1.235 . S
C107 O134 1.289 . S
O108 C107 1.235 . S
C109 C111 1.400 . S
C109 N112 1.351 . S
C109 C114 1.501 . S
C110 C111 1.387 . S
C110 N113 1.341 . S
C111 C109 1.400 . S
C111 C110 1.387 . S
N112 Co103 2.022 . S
N112 C109 1.351 . S
N112 N113 1.365 . S
N113 C110 1.341 . S
N113 N112 1.365 . S
N113 H133 0.862 . S
C114 C109 1.501 . S
C114 H115 0.961 . S
C114 H116 0.961 . S
C114 H117 0.960 . S
H115 C114 0.961 . S
H116 C114 0.961 . S
H117 C114 0.960 . S
C118 N119 1.342 . S
C118 C122 1.401 . S
C118 C123 1.499 . S
N119 Co102 1.989 . S
N119 C118 1.342 . S
N119 N120 1.388 . S
N120 Co103 1.993 . S
N120 N119 1.388 . S
N120 C121 1.346 . S
C121 N120 1.346 . S
C121 C122 1.396 . S
C121 C131 1.510 . S
C122 C118 1.401 . S
C122 C121 1.396 . S
C123 C118 1.499 . S
C123 H124 0.959 . S
C123 H125 0.960 . S
C123 H126 0.961 . S
H124 C123 0.959 . S
H125 C123 0.960 . S
H126 C123 0.961 . S
O127 Co102 1.967 . S
O127 C135 1.258 . S
O128 Co103 1.941 . S
O128 C135 1.266 . S
H129 C131 0.959 . S
H130 C131 0.961 . S
C131 C121 1.510 . S
C131 H129 0.959 . S
C131 H130 0.961 . S
C131 H132 0.960 . S
H132 C131 0.960 . S
H133 N113 0.862 . S
O134 Co102 1.920 . S
O134 C107 1.289 . S
C135 O127 1.258 . S
C135 O128 1.266 . S
Co136 O139 1.970 1_545 S
Co136 N153 1.989 . S
Co136 O161 1.967 . S
Co136 O168 1.920 . S
Co137 O140 1.966 1_545 S
Co137 N146 2.022 1_545 S
Co137 N154 1.993 . S
Co137 O162 1.941 . S
C138 O139 1.258 . S
C138 O140 1.263 . S
O139 Co136 1.970 1_565 S
O139 C138 1.258 . S
O140 Co137 1.966 1_565 S
O140 C138 1.263 . S
C141 O142 1.235 1_545 S
C141 O168 1.289 . S
O142 C141 1.235 1_565 S
C143 C145 1.400 . S
C143 N146 1.351 . S
C143 C148 1.501 . S
C144 C145 1.387 . S
C144 N147 1.341 1_565 S
C145 C143 1.400 . S
C145 C144 1.387 . S
N146 Co137 2.022 1_565 S
N146 C143 1.351 . S
N146 N147 1.365 1_565 S
N147 C144 1.341 1_545 S
N147 N146 1.365 1_545 S
N147 H167 0.862 . S
C148 C143 1.501 . S
C148 H149 0.961 . S
C148 H150 0.961 . S
C148 H151 0.960 . S
H149 C148 0.961 . S
H150 C148 0.961 . S
H151 C148 0.960 . S
C152 N153 1.342 . S
C152 C156 1.401 . S
C152 C157 1.499 . S
N153 Co136 1.989 . S
N153 C152 1.342 . S
N153 N154 1.388 . S
N154 Co137 1.993 . S
N154 N153 1.388 . S
N154 C155 1.346 . S
C155 N154 1.346 . S
C155 C156 1.396 . S
C155 C165 1.510 . S
C156 C152 1.401 . S
C156 C155 1.396 . S
C157 C152 1.499 . S
C157 H158 0.959 . S
C157 H159 0.960 . S
C157 H160 0.961 . S
H158 C157 0.959 . S
H159 C157 0.960 . S
H160 C157 0.961 . S
O161 Co136 1.967 . S
O161 C169 1.258 . S
O162 Co137 1.941 . S
O162 C169 1.266 . S
H163 C165 0.959 . S
H164 C165 0.961 1_565 S
C165 C155 1.510 . S
C165 H163 0.959 . S
C165 H164 0.961 1_545 S
C165 H166 0.960 1_545 S
H166 C165 0.960 1_565 S
H167 N147 0.862 . S
O168 Co136 1.920 . S
O168 C141 1.289 . S
C169 O161 1.258 . S
C169 O162 1.266 . S
Co170 O173 1.970 1_545 S
Co170 N187 1.989 . S
Co170 O195 1.967 . S
Co170 O202 1.920 . S
Co171 O174 1.966 1_545 S
Co171 N180 2.022 1_545 S
Co171 N188 1.993 . S
Co171 O196 1.941 . S
C172 O173 1.258 . S
C172 O174 1.263 . S
O173 Co170 1.970 1_565 S
O173 C172 1.258 . S
O174 Co171 1.966 1_565 S
O174 C172 1.263 . S
C175 O176 1.235 1_545 S
C175 O202 1.289 . S
O176 C175 1.235 1_565 S
C177 C179 1.400 . S
C177 N180 1.351 . S
C177 C182 1.501 . S
C178 C179 1.387 . S
C178 N181 1.341 1_565 S
C179 C177 1.400 . S
C179 C178 1.387 . S
N180 Co171 2.022 1_565 S
N180 C177 1.351 . S
N180 N181 1.365 1_565 S
N181 C178 1.341 1_545 S
N181 N180 1.365 1_545 S
N181 H201 0.862 . S
C182 C177 1.501 . S
C182 H183 0.961 . S
C182 H184 0.961 . S
C182 H185 0.960 . S
H183 C182 0.961 . S
H184 C182 0.961 . S
H185 C182 0.960 . S
C186 N187 1.342 . S
C186 C190 1.401 . S
C186 C191 1.499 . S
N187 Co170 1.989 . S
N187 C186 1.342 . S
N187 N188 1.388 . S
N188 Co171 1.993 . S
N188 N187 1.388 . S
N188 C189 1.346 . S
C189 N188 1.346 . S
C189 C190 1.396 . S
C189 C199 1.510 . S
C190 C186 1.401 . S
C190 C189 1.396 . S
C191 C186 1.499 . S
C191 H192 0.959 . S
C191 H193 0.960 . S
C191 H194 0.961 . S
H192 C191 0.959 . S
H193 C191 0.960 . S
H194 C191 0.961 . S
O195 Co170 1.967 . S
O195 C203 1.258 . S
O196 Co171 1.941 . S
O196 C203 1.266 . S
H197 C199 0.959 . S
H198 C199 0.961 1_565 S
C199 C189 1.510 . S
C199 H197 0.959 . S
C199 H198 0.961 1_545 S
C199 H200 0.960 1_545 S
H200 C199 0.960 1_565 S
H201 N181 0.862 . S
O202 Co170 1.920 . S
O202 C175 1.289 . S
C203 O195 1.258 . S
C203 O196 1.266 . S
Co204 O207 1.970 . S
Co204 N221 1.989 . S
Co204 O229 1.967 . S
Co204 O236 1.920 . S
Co205 O208 1.966 . S
Co205 N214 2.022 1_554 S
Co205 N222 1.993 . S
Co205 O230 1.941 . S
C206 O207 1.258 . S
C206 O208 1.263 . S
O207 Co204 1.970 . S
O207 C206 1.258 . S
O208 Co205 1.966 . S
O208 C206 1.263 . S
C209 O210 1.235 . S
C209 O236 1.289 . S
O210 C209 1.235 . S
C211 C213 1.400 . S
C211 N214 1.351 . S
C211 C216 1.501 . S
C212 C213 1.387 . S
C212 N215 1.341 . S
C213 C211 1.400 . S
C213 C212 1.387 . S
N214 Co205 2.022 1_556 S
N214 C211 1.351 . S
N214 N215 1.365 . S
N215 C212 1.341 . S
N215 N214 1.365 . S
N215 H235 0.862 . S
C216 C211 1.501 . S
C216 H217 0.961 1_556 S
C216 H218 0.961 . S
C216 H219 0.960 . S
H217 C216 0.961 1_554 S
H218 C216 0.961 . S
H219 C216 0.960 . S
C220 N221 1.342 . S
C220 C224 1.401 . S
C220 C225 1.499 . S
N221 Co204 1.989 . S
N221 C220 1.342 . S
N221 N222 1.388 . S
N222 Co205 1.993 . S
N222 N221 1.388 . S
N222 C223 1.346 . S
C223 N222 1.346 . S
C223 C224 1.396 . S
C223 C233 1.510 . S
C224 C220 1.401 . S
C224 C223 1.396 . S
C225 C220 1.499 . S
C225 H226 0.959 . S
C225 H227 0.960 . S
C225 H228 0.961 . S
H226 C225 0.959 . S
H227 C225 0.960 . S
H228 C225 0.961 . S
O229 Co204 1.967 . S
O229 C237 1.258 . S
O230 Co205 1.941 . S
O230 C237 1.266 . S
H231 C233 0.959 1_556 S
H232 C233 0.961 . S
C233 C223 1.510 . S
C233 H231 0.959 1_554 S
C233 H232 0.961 . S
C233 H234 0.960 1_554 S
H234 C233 0.960 1_556 S
H235 N215 0.862 . S
O236 Co204 1.920 . S
O236 C209 1.289 . S
C237 O229 1.258 . S
C237 O230 1.266 . S
Co238 O241 1.970 . S
Co238 N255 1.989 . S
Co238 O263 1.967 . S
Co238 O270 1.920 1_554 S
Co239 O242 1.966 . S
Co239 N248 2.022 . S
Co239 N256 1.993 . S
Co239 O264 1.941 . S
C240 O241 1.258 . S
C240 O242 1.263 . S
O241 Co238 1.970 . S
O241 C240 1.258 . S
O242 Co239 1.966 . S
O242 C240 1.263 . S
C243 O244 1.235 . S
C243 O270 1.289 . S
O244 C243 1.235 . S
C245 C247 1.400 . S
C245 N248 1.351 . S
C245 C250 1.501 . S
C246 C247 1.387 . S
C246 N249 1.341 . S
C247 C245 1.400 . S
C247 C246 1.387 . S
N248 Co239 2.022 . S
N248 C245 1.351 . S
N248 N249 1.365 . S
N249 C246 1.341 . S
N249 N248 1.365 . S
N249 H269 0.862 . S
C250 C245 1.501 . S
C250 H251 0.961 . S
C250 H252 0.961 . S
C250 H253 0.960 . S
H251 C250 0.961 . S
H252 C250 0.961 . S
H253 C250 0.960 . S
C254 N255 1.342 . S
C254 C258 1.401 . S
C254 C259 1.499 . S
N255 Co238 1.989 . S
N255 C254 1.342 . S
N255 N256 1.388 . S
N256 Co239 1.993 . S
N256 N255 1.388 . S
N256 C257 1.346 . S
C257 N256 1.346 . S
C257 C258 1.396 . S
C257 C267 1.510 . S
C258 C254 1.401 . S
C258 C257 1.396 . S
C259 C254 1.499 . S
C259 H260 0.959 . S
C259 H261 0.960 . S
C259 H262 0.961 . S
H260 C259 0.959 . S
H261 C259 0.960 . S
H262 C259 0.961 . S
O263 Co238 1.967 . S
O263 C271 1.258 . S
O264 Co239 1.941 . S
O264 C271 1.266 . S
H265 C267 0.959 . S
H266 C267 0.961 . S
C267 C257 1.510 . S
C267 H265 0.959 . S
C267 H266 0.961 . S
C267 H268 0.960 . S
H268 C267 0.960 . S
H269 N249 0.862 . S
O270 Co238 1.920 1_556 S
O270 C243 1.289 . S
C271 O263 1.258 . S
C271 O264 1.266 . S
H272 C278 0.930 . S
H273 C281 0.930 . S
H274 C282 0.930 . S
H275 C283 0.930 . S
H276 C286 0.930 . S
H277 C287 0.930 . S
C278 H272 0.930 . S
C278 C279 1.355 . S
C278 C280 1.415 . S
C279 C278 1.355 . S
C279 C281 1.419 . S
C280 C278 1.415 . S
C280 C285 1.425 . S
C280 C287 1.409 . S
C281 H273 0.930 . S
C281 C279 1.419 . S
C281 C282 1.362 . S
C282 H274 0.930 . S
C282 C281 1.362 . S
C282 C285 1.409 . S
C283 H275 0.930 . S
C283 C284 1.355 . S
C283 C285 1.415 . S
C284 C283 1.355 . S
C284 C286 1.419 . S
C285 C280 1.425 . S
C285 C282 1.409 . S
C285 C283 1.415 . S
C286 H276 0.930 . S
C286 C284 1.419 . S
C286 C287 1.362 . S
C287 H277 0.930 . S
C287 C280 1.409 . S
C287 C286 1.362 . S
H288 C294 0.930 . S
H289 C297 0.930 . S
H290 C298 0.930 . S
H291 C299 0.930 . S
H292 C302 0.930 . S
H293 C303 0.930 . S
C294 H288 0.930 . S
C294 C295 1.355 . S
C294 C296 1.415 . S
C295 C294 1.355 . S
C295 C297 1.419 . S
C296 C294 1.415 . S
C296 C301 1.425 . S
C296 C303 1.409 . S
C297 H289 0.930 . S
C297 C295 1.419 . S
C297 C298 1.362 . S
C298 H290 0.930 . S
C298 C297 1.362 . S
C298 C301 1.409 . S
C299 H291 0.930 . S
C299 C300 1.355 . S
C299 C301 1.415 . S
C300 C299 1.355 . S
C300 C302 1.419 . S
C301 C296 1.425 . S
C301 C298 1.409 . S
C301 C299 1.415 . S
C302 H292 0.930 . S
C302 C300 1.419 . S
C302 C303 1.362 . S
C303 H293 0.930 . S
C303 C296 1.409 . S
C303 C302 1.362 . S
H304 C310 0.930 . S
H305 C313 0.930 . S
H306 C314 0.930 . S
H307 C315 0.930 . S
H308 C318 0.930 . S
H309 C319 0.930 . S
C310 H304 0.930 . S
C310 C311 1.355 . S
C310 C312 1.415 . S
C311 C310 1.355 . S
C311 C313 1.419 . S
C312 C310 1.415 . S
C312 C317 1.425 . S
C312 C319 1.409 . S
C313 H305 0.930 . S
C313 C311 1.419 . S
C313 C314 1.362 . S
C314 H306 0.930 . S
C314 C313 1.362 . S
C314 C317 1.409 . S
C315 H307 0.930 . S
C315 C316 1.355 . S
C315 C317 1.415 . S
C316 C315 1.355 . S
C316 C318 1.419 . S
C317 C312 1.425 . S
C317 C314 1.409 . S
C317 C315 1.415 . S
C318 H308 0.930 . S
C318 C316 1.419 . S
C318 C319 1.362 . S
C319 H309 0.930 . S
C319 C312 1.409 . S
C319 C318 1.362 . S
H320 C326 0.930 . S
H321 C329 0.930 . S
H322 C330 0.930 . S
H323 C331 0.930 . S
H324 C334 0.930 . S
H325 C335 0.930 . S
C326 H320 0.930 . S
C326 C327 1.355 . S
C326 C328 1.415 . S
C327 C326 1.355 . S
C327 C329 1.419 . S
C328 C326 1.415 . S
C328 C333 1.425 . S
C328 C335 1.409 . S
C329 H321 0.930 . S
C329 C327 1.419 . S
C329 C330 1.362 . S
C330 H322 0.930 . S
C330 C329 1.362 . S
C330 C333 1.409 . S
C331 H323 0.930 . S
C331 C332 1.355 . S
C331 C333 1.415 . S
C332 C331 1.355 . S
C332 C334 1.419 . S
C333 C328 1.425 . S
C333 C330 1.409 . S
C333 C331 1.415 . S
C334 H324 0.930 . S
C334 C332 1.419 . S
C334 C335 1.362 . S
C335 H325 0.930 . S
C335 C328 1.409 . S
C335 C334 1.362 . S
H336 C342 0.930 . S
H337 C345 0.930 . S
H338 C346 0.930 . S
H339 C347 0.930 . S
H340 C350 0.930 . S
H341 C351 0.930 . S
C342 H336 0.930 . S
C342 C343 1.355 . S
C342 C344 1.415 . S
C343 C342 1.355 . S
C343 C345 1.419 . S
C344 C342 1.415 . S
C344 C349 1.425 . S
C344 C351 1.409 . S
C345 H337 0.930 . S
C345 C343 1.419 . S
C345 C346 1.362 . S
C346 H338 0.930 . S
C346 C345 1.362 . S
C346 C349 1.409 . S
C347 H339 0.930 . S
C347 C348 1.355 . S
C347 C349 1.415 . S
C348 C347 1.355 . S
C348 C350 1.419 . S
C349 C344 1.425 . S
C349 C346 1.409 . S
C349 C347 1.415 . S
C350 H340 0.930 . S
C350 C348 1.419 . S
C350 C351 1.362 . S
C351 H341 0.930 . S
C351 C344 1.409 . S
C351 C350 1.362 . S
H352 C358 0.930 . S
H353 C361 0.930 . S
H354 C362 0.930 . S
H355 C363 0.930 . S
H356 C366 0.930 . S
H357 C367 0.930 . S
C358 H352 0.930 . S
C358 C359 1.355 . S
C358 C360 1.415 . S
C359 C358 1.355 . S
C359 C361 1.419 . S
C360 C358 1.415 . S
C360 C365 1.425 . S
C360 C367 1.409 . S
C361 H353 0.930 . S
C361 C359 1.419 . S
C361 C362 1.362 . S
C362 H354 0.930 . S
C362 C361 1.362 . S
C362 C365 1.409 . S
C363 H355 0.930 . S
C363 C364 1.355 . S
C363 C365 1.415 . S
C364 C363 1.355 . S
C364 C366 1.419 . S
C365 C360 1.425 . S
C365 C362 1.409 . S
C365 C363 1.415 . S
C366 H356 0.930 . S
C366 C364 1.419 . S
C366 C367 1.362 . S
C367 H357 0.930 . S
C367 C360 1.409 . S
C367 C366 1.362 . S
H368 C374 0.930 . S
H369 C377 0.930 . S
H370 C378 0.930 . S
H371 C379 0.930 . S
H372 C382 0.930 . S
H373 C383 0.930 . S
C374 H368 0.930 . S
C374 C375 1.355 . S
C374 C376 1.415 . S
C375 C374 1.355 . S
C375 C377 1.419 . S
C376 C374 1.415 . S
C376 C381 1.425 . S
C376 C383 1.409 . S
C377 H369 0.930 . S
C377 C375 1.419 . S
C377 C378 1.362 . S
C378 H370 0.930 . S
C378 C377 1.362 . S
C378 C381 1.409 . S
C379 H371 0.930 . S
C379 C380 1.355 . S
C379 C381 1.415 . S
C380 C379 1.355 . S
C380 C382 1.419 . S
C381 C376 1.425 . S
C381 C378 1.409 . S
C381 C379 1.415 . S
C382 H372 0.930 . S
C382 C380 1.419 . S
C382 C383 1.362 . S
C383 H373 0.930 . S
C383 C376 1.409 . S
C383 C382 1.362 . S
H384 C390 0.930 . S
H385 C393 0.930 1_565 S
H386 C394 0.930 . S
H387 C395 0.930 . S
H388 C398 0.930 . S
H389 C399 0.930 . S
C390 H384 0.930 . S
C390 C391 1.355 . S
C390 C392 1.415 . S
C391 C390 1.355 . S
C391 C393 1.419 . S
C392 C390 1.415 . S
C392 C397 1.425 . S
C392 C399 1.409 . S
C393 H385 0.930 1_545 S
C393 C391 1.419 . S
C393 C394 1.362 . S
C394 H386 0.930 . S
C394 C393 1.362 . S
C394 C397 1.409 . S
C395 H387 0.930 . S
C395 C396 1.355 . S
C395 C397 1.415 . S
C396 C395 1.355 . S
C396 C398 1.419 . S
C397 C392 1.425 . S
C397 C394 1.409 . S
C397 C395 1.415 . S
C398 H388 0.930 . S
C398 C396 1.419 . S
C398 C399 1.362 . S
C399 H389 0.930 . S
C399 C392 1.409 . S
C399 C398 1.362 . S
H400 C406 0.930 . S
H401 C409 0.930 . S
H402 C410 0.930 . S
H403 C411 0.930 . S
H404 C414 0.930 . S
H405 C415 0.930 . S
C406 H400 0.930 . S
C406 C407 1.355 . S
C406 C408 1.415 . S
C407 C406 1.355 . S
C407 C409 1.419 . S
C408 C406 1.415 . S
C408 C413 1.425 . S
C408 C415 1.409 . S
C409 H401 0.930 . S
C409 C407 1.419 . S
C409 C410 1.362 . S
C410 H402 0.930 . S
C410 C409 1.362 . S
C410 C413 1.409 . S
C411 H403 0.930 . S
C411 C412 1.355 . S
C411 C413 1.415 . S
C412 C411 1.355 . S
C412 C414 1.419 . S
C413 C408 1.425 . S
C413 C410 1.409 . S
C413 C411 1.415 . S
C414 H404 0.930 . S
C414 C412 1.419 . S
C414 C415 1.362 . S
C415 H405 0.930 . S
C415 C408 1.409 . S
C415 C414 1.362 . S
H416 C422 0.930 . S
H417 C425 0.930 . S
H418 C426 0.930 . S
H419 C427 0.930 . S
H420 C430 0.930 . S
H421 C431 0.930 . S
C422 H416 0.930 . S
C422 C423 1.355 . S
C422 C424 1.415 . S
C423 C422 1.355 . S
C423 C425 1.419 . S
C424 C422 1.415 . S
C424 C429 1.425 . S
C424 C431 1.409 . S
C425 H417 0.930 . S
C425 C423 1.419 . S
C425 C426 1.362 . S
C426 H418 0.930 . S
C426 C425 1.362 . S
C426 C429 1.409 . S
C427 H419 0.930 . S
C427 C428 1.355 . S
C427 C429 1.415 . S
C428 C427 1.355 . S
C428 C430 1.419 . S
C429 C424 1.425 . S
C429 C426 1.409 . S
C429 C427 1.415 . S
C430 H420 0.930 . S
C430 C428 1.419 . S
C430 C431 1.362 . S
C431 H421 0.930 . S
C431 C424 1.409 . S
C431 C430 1.362 . S
H432 C438 0.930 . S
H433 C441 0.930 . S
H434 C442 0.930 . S
H435 C443 0.930 . S
H436 C446 0.930 . S
H437 C447 0.930 . S
C438 H432 0.930 . S
C438 C439 1.355 . S
C438 C440 1.415 . S
C439 C438 1.355 . S
C439 C441 1.419 . S
C440 C438 1.415 . S
C440 C445 1.425 1_455 S
C440 C447 1.409 1_455 S
C441 H433 0.930 . S
C441 C439 1.419 . S
C441 C442 1.362 . S
C442 H434 0.930 . S
C442 C441 1.362 . S
C442 C445 1.409 1_455 S
C443 H435 0.930 . S
C443 C444 1.355 . S
C443 C445 1.415 . S
C444 C443 1.355 . S
C444 C446 1.419 . S
C445 C440 1.425 1_655 S
C445 C442 1.409 1_655 S
C445 C443 1.415 . S
C446 H436 0.930 . S
C446 C444 1.419 . S
C446 C447 1.362 . S
C447 H437 0.930 . S
C447 C440 1.409 1_655 S
C447 C446 1.362 . S
H448 C454 0.930 . S
H449 C457 0.930 . S
H450 C458 0.930 . S
H451 C459 0.930 . S
H452 C462 0.930 . S
H453 C463 0.930 . S
C454 H448 0.930 . S
C454 C455 1.355 . S
C454 C456 1.415 . S
C455 C454 1.355 . S
C455 C457 1.419 . S
C456 C454 1.415 . S
C456 C461 1.425 1_655 S
C456 C463 1.409 1_655 S
C457 H449 0.930 . S
C457 C455 1.419 . S
C457 C458 1.362 . S
C458 H450 0.930 . S
C458 C457 1.362 . S
C458 C461 1.409 1_655 S
C459 H451 0.930 . S
C459 C460 1.355 . S
C459 C461 1.415 . S
C460 C459 1.355 . S
C460 C462 1.419 . S
C461 C456 1.425 1_455 S
C461 C458 1.409 1_455 S
C461 C459 1.415 . S
C462 H452 0.930 . S
C462 C460 1.419 . S
C462 C463 1.362 . S
C463 H453 0.930 . S
C463 C456 1.409 1_455 S
C463 C462 1.362 . S
H464 C470 0.930 . S
H465 C473 0.930 . S
H466 C474 0.930 . S
H467 C475 0.930 . S
H468 C478 0.930 . S
H469 C479 0.930 . S
C470 H464 0.930 . S
C470 C471 1.355 . S
C470 C472 1.415 . S
C471 C470 1.355 . S
C471 C473 1.419 . S
C472 C470 1.415 . S
C472 C477 1.425 . S
C472 C479 1.409 . S
C473 H465 0.930 . S
C473 C471 1.419 . S
C473 C474 1.362 . S
C474 H466 0.930 . S
C474 C473 1.362 . S
C474 C477 1.409 . S
C475 H467 0.930 . S
C475 C476 1.355 . S
C475 C477 1.415 . S
C476 C475 1.355 . S
C476 C478 1.419 . S
C477 C472 1.425 . S
C477 C474 1.409 . S
C477 C475 1.415 . S
C478 H468 0.930 . S
C478 C476 1.419 . S
C478 C479 1.362 . S
C479 H469 0.930 . S
C479 C472 1.409 . S
C479 C478 1.362 . S
H480 C486 0.930 . S
H481 C489 0.930 . S
H482 C490 0.914 1_556 S
H483 C491 0.930 . S
H484 C494 0.930 . S
H485 C495 0.930 . S
C486 H480 0.930 . S
C486 C487 1.355 . S
C486 C488 1.415 . S
C487 C486 1.355 . S
C487 C489 1.419 . S
C488 C486 1.415 . S
C488 C493 1.425 . S
C488 C495 1.409 . S
C489 H481 0.930 . S
C489 C487 1.419 . S
C489 C490 1.362 . S
C490 H482 0.914 1_554 S
C490 C489 1.362 . S
C490 C493 1.409 . S
C491 H483 0.930 . S
C491 C492 1.355 . S
C491 C493 1.415 . S
C492 C491 1.355 . S
C492 C494 1.419 . S
C493 C488 1.425 . S
C493 C490 1.409 . S
C493 C491 1.415 . S
C494 H484 0.930 . S
C494 C492 1.419 . S
C494 C495 1.362 . S
C495 H485 0.930 . S
C495 C488 1.409 . S
C495 C494 1.362 . S
H496 C502 0.930 . S
H497 C505 0.930 . S
H498 C506 0.930 . S
H499 C507 0.930 . S
H500 C510 0.930 . S
H501 C511 0.930 . S
C502 H496 0.930 . S
C502 C503 1.355 . S
C502 C504 1.415 . S
C503 C502 1.355 . S
C503 C505 1.419 . S
C504 C502 1.415 . S
C504 C509 1.425 . S
C504 C511 1.409 . S
C505 H497 0.930 . S
C505 C503 1.419 . S
C505 C506 1.362 . S
C506 H498 0.930 . S
C506 C505 1.362 . S
C506 C509 1.409 . S
C507 H499 0.930 . S
C507 C508 1.355 . S
C507 C509 1.415 . S
C508 C507 1.355 . S
C508 C510 1.419 . S
C509 C504 1.425 . S
C509 C506 1.409 . S
C509 C507 1.415 . S
C510 H500 0.930 . S
C510 C508 1.419 . S
C510 C511 1.362 . S
C511 H501 0.930 . S
C511 C504 1.409 . S
C511 C510 1.362 . S
H512 C518 0.930 . S
H513 C521 0.930 . S
H514 C522 0.930 . S
H515 C523 0.930 . S
H516 C526 0.930 . S
H517 C527 0.930 . S
C518 H512 0.930 . S
C518 C519 1.355 . S
C518 C520 1.415 . S
C519 C518 1.355 . S
C519 C521 1.419 . S
C520 C518 1.415 . S
C520 C525 1.425 . S
C520 C527 1.409 . S
C521 H513 0.930 . S
C521 C519 1.419 . S
C521 C522 1.362 . S
C522 H514 0.930 . S
C522 C521 1.362 . S
C522 C525 1.409 . S
C523 H515 0.930 . S
C523 C524 1.355 . S
C523 C525 1.415 . S
C524 C523 1.355 . S
C524 C526 1.419 . S
C525 C520 1.425 . S
C525 C522 1.409 . S
C525 C523 1.415 . S
C526 H516 0.930 . S
C526 C524 1.419 . S
C526 C527 1.362 . S
C527 H517 0.930 . S
C527 C520 1.409 . S
C527 C526 1.362 . S
H528 C534 0.930 . S
H529 C537 0.930 . S
H530 C538 0.930 . S
H531 C539 0.930 . S
H532 C542 0.930 . S
H533 C543 0.930 . S
C534 H528 0.930 . S
C534 C535 1.355 . S
C534 C536 1.415 . S
C535 C534 1.355 . S
C535 C537 1.419 . S
C536 C534 1.415 . S
C536 C541 1.425 . S
C536 C543 1.409 . S
C537 H529 0.930 . S
C537 C535 1.419 . S
C537 C538 1.362 . S
C538 H530 0.930 . S
C538 C537 1.362 . S
C538 C541 1.409 . S
C539 H531 0.930 . S
C539 C540 1.355 . S
C539 C541 1.415 . S
C540 C539 1.355 . S
C540 C542 1.419 . S
C541 C536 1.425 . S
C541 C538 1.409 . S
C541 C539 1.415 . S
C542 H532 0.930 . S
C542 C540 1.419 . S
C542 C543 1.362 . S
C543 H533 0.930 . S
C543 C536 1.409 . S
C543 C542 1.362 . S
H544 C550 0.930 . S
H545 C553 0.930 . S
H546 C554 0.930 . S
H547 C555 0.930 . S
H548 C558 0.930 . S
H549 C559 0.930 . S
C550 H544 0.930 . S
C550 C551 1.355 . S
C550 C552 1.415 . S
C551 C550 1.355 . S
C551 C553 1.419 . S
C552 C550 1.415 . S
C552 C557 1.425 . S
C552 C559 1.409 . S
C553 H545 0.930 . S
C553 C551 1.419 . S
C553 C554 1.362 . S
C554 H546 0.930 . S
C554 C553 1.362 . S
C554 C557 1.409 . S
C555 H547 0.930 . S
C555 C556 1.355 . S
C555 C557 1.415 . S
C556 C555 1.355 . S
C556 C558 1.419 . S
C557 C552 1.425 . S
C557 C554 1.409 . S
C557 C555 1.415 . S
C558 H548 0.930 . S
C558 C556 1.419 . S
C558 C559 1.362 . S
C559 H549 0.930 . S
C559 C552 1.409 . S
C559 C558 1.362 . S
H560 C566 0.930 . S
H561 C569 0.930 . S
H562 C570 0.930 . S
H563 C571 0.930 . S
H564 C574 0.930 . S
H565 C575 0.930 . S
C566 H560 0.930 . S
C566 C567 1.355 . S
C566 C568 1.415 . S
C567 C566 1.355 . S
C567 C569 1.419 . S
C568 C566 1.415 . S
C568 C573 1.425 . S
C568 C575 1.409 . S
C569 H561 0.930 . S
C569 C567 1.419 . S
C569 C570 1.362 . S
C570 H562 0.930 . S
C570 C569 1.362 . S
C570 C573 1.409 . S
C571 H563 0.930 . S
C571 C572 1.355 . S
C571 C573 1.415 . S
C572 C571 1.355 . S
C572 C574 1.419 . S
C573 C568 1.425 . S
C573 C570 1.409 . S
C573 C571 1.415 . S
C574 H564 0.930 . S
C574 C572 1.419 . S
C574 C575 1.362 . S
C575 H565 0.930 . S
C575 C568 1.409 . S
C575 C574 1.362 . S
H576 C582 0.930 . S
H577 C585 0.930 . S
H578 C586 0.930 . S
H579 C587 0.930 . S
H580 C590 0.930 . S
H581 C591 0.930 . S
C582 H576 0.930 . S
C582 C583 1.355 . S
C582 C584 1.415 . S
C583 C582 1.355 . S
C583 C585 1.419 . S
C584 C582 1.415 . S
C584 C589 1.425 . S
C584 C591 1.409 . S
C585 H577 0.930 . S
C585 C583 1.419 . S
C585 C586 1.362 . S
C586 H578 0.930 . S
C586 C585 1.362 . S
C586 C589 1.409 . S
C587 H579 0.930 . S
C587 C588 1.355 . S
C587 C589 1.415 . S
C588 C587 1.355 . S
C588 C590 1.419 . S
C589 C584 1.425 . S
C589 C586 1.409 . S
C589 C587 1.415 . S
C590 H580 0.930 . S
C590 C588 1.419 . S
C590 C591 1.362 . S
C591 H581 0.930 . S
C591 C584 1.409 . S
C591 C590 1.362 . S
C279 C77 1.543 . S
C284 C5 1.553 . S
C295 C43 1.547 . S
C300 C107 1.551 . S
C311 C73 1.552 . S
C316 C9 1.510 . S
C327 C111 1.493 . S
C332 C39 1.558 . S
C343 C141 1.547 . S
C348 C213 1.532 . S
C359 C243 1.546 . S
C364 C179 1.542 . S
C375 C145 1.494 . S
C380 C209 1.559 . S
C391 C175 1.561 . S
C396 C247 1.493 . S
C407 C54 1.423 . S
C412 C20 1.430 . S
C423 C88 1.420 . S
C428 C122 1.445 . S
C439 C190 1.459 . S
C444 C156 1.446 . S
C455 C224 1.456 . S
C460 C258 1.427 . S
C471 C240 0.938 . S
C476 C33 0.929 . S
C487 C237 0.914 . S
C492 C36 0.928 . S
C503 C271 0.996 . S
C508 C2 1.000 . S
C519 C67 0.870 . S
C524 C206 0.917 . S
C535 C172 0.990 . S
C540 C101 0.996 . S
C551 C104 0.930 . S
C556 C169 0.918 . S
C567 C203 0.874 . S
C572 C70 0.909 . S
C583 C135 0.997 . S
C588 C138 1.000 . S
