# Generated by pormake.
# Topology sxb, (6)-cn, num edge types: 1
# Building blocks:
#     Node 0, Type 0, BuildingBlock: HISSIN_clean_sbu_0, # of connection points: 6
#     Node 1, Type 0, BuildingBlock: HISSIN_clean_sbu_0, # of connection points: 6
#     Node 2, Type 0, BuildingBlock: HISSIN_clean_sbu_0, # of connection points: 6
#     Node 3, Type 0, BuildingBlock: HISSIN_clean_sbu_0, # of connection points: 6
#     Edge 4, Type (0, 0), BuildingBlock: ZUJKAS_clean_linker_0, # of connection points: 2
#     Edge 5, Type (0, 0), BuildingBlock: ZUJKAS_clean_linker_0, # of connection points: 2
#     Edge 6, Type (0, 0), BuildingBlock: ZUJKAS_clean_linker_0, # of connection points: 2
#     Edge 7, Type (0, 0), BuildingBlock: ZUJKAS_clean_linker_0, # of connection points: 2
#     Edge 8, Type (0, 0), BuildingBlock: ZUJKAS_clean_linker_0, # of connection points: 2
#     Edge 9, Type (0, 0), BuildingBlock: ZUJKAS_clean_linker_0, # of connection points: 2
#     Edge 10, Type (0, 0), BuildingBlock: ZUJKAS_clean_linker_0, # of connection points: 2
#     Edge 11, Type (0, 0), BuildingBlock: ZUJKAS_clean_linker_0, # of connection points: 2
#     Edge 12, Type (0, 0), BuildingBlock: ZUJKAS_clean_linker_0, # of connection points: 2
#     Edge 13, Type (0, 0), BuildingBlock: ZUJKAS_clean_linker_0, # of connection points: 2
#     Edge 14, Type (0, 0), BuildingBlock: ZUJKAS_clean_linker_0, # of connection points: 2
#     Edge 15, Type (0, 0), BuildingBlock: ZUJKAS_clean_linker_0, # of connection points: 2
# Relax obj value: 0.277
# Max RMSD: 0.105
# Mean RMSD: 0.080
data_MOF--net-sxb--node1-HISSIN_clean_sbu_0--edge1-ZUJKAS_clean_linker_0
_symmetry_space_group_name_H-M    P1
_symmetry_Int_Tables_number       1
_symmetry_cell_setting            triclinic
loop_
_symmetry_equiv_pos_as_xyz
'x, y, z'
_cell_length_a     21.049712
_cell_length_b     42.667189
_cell_length_c     40.134086
_cell_angle_alpha  97.066702
_cell_angle_beta   94.845662
_cell_angle_gamma 71.636194
loop_
_atom_site_label
_atom_site_type_symbol
_atom_site_fract_x
_atom_site_fract_y
_atom_site_fract_z
_atom_type_partial_charge
Eu0 Eu 1.01891 1.04753 0.93919 0.0
Eu1 Eu 0.15965 0.06352 0.95034 0.0
C2 C 1.08574 0.05439 0.0136 0.0
C3 C 0.88033 1.02779 0.9713 0.0
C4 C 0.8447 0.05489 -0.00694 0.0
C5 C 0.885 0.99116 0.01412 0.0
C6 C 0.83147 0.05034 0.02527 0.0
C7 C 0.89884 0.99573 0.98189 0.0
C8 C 0.85274 1.01857 0.0364 0.0
C9 C 0.90772 1.03371 0.94066 0.0
O10 O 0.19531 1.00666 0.94197 0.0
O11 O 0.09583 0.99669 0.94667 0.0
C12 C 0.16151 0.9857 0.94411 0.0
O13 O 1.05173 1.04186 0.88609 0.0
O14 O 0.21016 0.09772 0.97581 0.0
O15 O 0.26658 0.05444 0.94462 0.0
O16 O 0.13628 0.06608 0.89439 0.0
C17 C 0.09541 0.05354 0.87437 0.0
O18 O 0.98767 0.10254 0.93027 0.0
O19 O 1.08013 0.11483 0.95471 0.0
O20 O 0.1433 1.04863 0.00016 0.0
O21 O 0.9098 0.06378 0.93964 0.0
O22 O 0.96308 1.01159 0.93078 0.0
O23 O 1.02989 0.06109 -0.00495 0.0
C24 C 0.31487 0.06851 -0.00235 0.0
C25 C 0.32909 1.0367 0.00825 0.0
C26 C 0.37053 0.08541 0.04894 0.0
C27 C 0.36456 1.0292 0.03874 0.0
C28 C 0.33577 0.09279 0.01823 0.0
C29 C 0.38522 0.05356 0.05945 0.0
C30 C 0.26937 0.07805 0.96821 0.0
C31 C 1.01792 0.12468 0.94212 0.0
H32 H 0.82925 0.07991 -0.01423 0.0
H33 H 0.90116 0.96634 0.02195 0.0
H34 H 0.80458 0.0718 0.04154 0.0
H35 H 0.9264 0.97431 0.96578 0.0
H36 H 0.31173 1.01779 -0.00671 0.0
H37 H 0.38705 0.10443 0.0642 0.0
H38 H 0.37549 1.00445 0.04629 0.0
H39 H 0.32398 0.11766 0.01086 0.0
Eu40 Eu 0.10457 1.00753 0.44009 0.0
Eu41 Eu 1.05528 0.08708 0.44827 0.0
C42 C 1.08915 1.04754 0.5124 0.0
C43 C 0.12245 0.92302 0.46237 0.0
C44 C 0.10507 0.9344 0.49577 0.0
C45 C 1.07957 0.87694 0.46497 0.0
C46 C 1.07398 0.91757 0.51338 0.0
C47 C 0.11093 0.89377 0.44737 0.0
C48 C 1.05919 0.88919 0.49786 0.0
C49 C 0.14523 0.94354 0.44215 0.0
O50 O 0.16954 0.07675 0.44445 0.0
O51 O 0.20531 1.02001 0.44287 0.0
C52 C 0.21929 1.04837 0.44354 0.0
O53 O 0.10326 1.01903 0.3866 0.0
O54 O 0.99665 0.13179 0.47745 0.0
O55 O 1.04851 0.13602 0.43465 0.0
O56 O 1.04539 0.07483 0.39202 0.0
C57 C 1.07317 1.04698 0.37337 0.0
O58 O 0.98914 1.01817 0.43623 0.0
O59 O 0.955 0.07469 0.44857 0.0
O60 O 0.10243 0.07071 0.49847 0.0
O61 O 0.10165 0.95814 0.41935 0.0
O62 O 0.17543 0.96341 0.45895 0.0
O63 O 1.07184 1.02424 0.49325 0.0
C64 C 1.05036 0.17266 0.48274 0.0
C65 C 0.10342 0.15834 0.5052 0.0
C66 C 1.07099 0.22563 0.49635 0.0
C67 C 0.14086 0.17735 0.52263 0.0
C68 C 1.03338 0.20651 0.47888 0.0
C69 C 0.12618 0.21096 0.51771 0.0
C70 C 1.01719 0.15141 0.46153 0.0
C71 C 0.94012 1.04643 0.44218 0.0
H72 H 0.11317 0.95702 0.50794 0.0
H73 H 1.06803 0.85539 0.45214 0.0
H74 H 1.05956 0.9274 0.53878 0.0
H75 H 0.12346 0.88478 0.42157 0.0
H76 H 0.11741 0.13216 0.50839 0.0
H77 H 1.0591 0.25139 0.49177 0.0
H78 H 0.18272 0.16549 0.53913 0.0
H79 H 0.99277 0.21783 0.46147 0.0
Eu80 Eu 0.51988 0.54758 0.93865 0.0
Eu81 Eu 0.66064 0.56361 0.9498 0.0
C82 C 0.58726 0.55404 0.01304 0.0
C83 C 0.38185 0.52839 0.97163 0.0
C84 C 0.34684 0.55573 -0.00669 0.0
C85 C 0.38729 0.49231 0.01509 0.0
C86 C 0.33423 0.55157 0.02576 0.0
C87 C 0.40049 0.49649 0.98261 0.0
C88 C 0.35553 0.51994 0.03724 0.0
C89 C 0.40872 0.53391 0.94063 0.0
O90 O 0.69648 0.50671 0.94177 0.0
O91 O 0.59679 0.49664 0.94562 0.0
C92 C 0.66256 0.48572 0.94349 0.0
O93 O 0.55234 0.542 0.88547 0.0
O94 O 0.71082 0.59809 0.97492 0.0
O95 O 0.76764 0.55453 0.94423 0.0
O96 O 0.63738 0.56593 0.89379 0.0
C97 C 0.5963 0.55353 0.87375 0.0
O98 O 0.48852 0.6026 0.92988 0.0
O99 O 0.5809 0.61488 0.95444 0.0
O100 O 0.6447 0.54861 -0.00039 0.0
O101 O 0.41074 0.5639 0.93909 0.0
O102 O 0.46395 0.51166 0.93076 0.0
O103 O 0.53133 0.56076 -0.00544 0.0
C104 C 0.81561 0.56935 -0.00292 0.0
C105 C 0.82994 0.53776 0.00823 0.0
C106 C 0.87135 0.58701 0.04799 0.0
C107 C 0.86554 0.53075 0.0388 0.0
C108 C 0.83648 0.59391 0.01721 0.0
C109 C 0.88619 0.55537 0.05904 0.0
C110 C 0.77015 0.57843 0.96752 0.0
C111 C 0.51868 0.62474 0.94185 0.0
H112 H 0.33136 0.58065 -0.01426 0.0
H113 H 0.40346 0.46759 0.02318 0.0
H114 H 0.30771 0.5732 0.04193 0.0
H115 H 0.42765 0.4749 0.96659 0.0
H116 H 0.81261 0.51866 -0.00636 0.0
H117 H 0.88784 0.60624 0.06287 0.0
H118 H 0.87657 0.50615 0.04677 0.0
H119 H 0.8246 0.61862 0.00941 0.0
Eu120 Eu 0.60989 0.50628 0.43951 0.0
Eu121 Eu 0.56061 0.58577 0.44712 0.0
C122 C 0.59397 0.54679 0.51164 0.0
C123 C 0.62473 0.42141 0.45908 0.0
C124 C 0.57057 0.4366 0.47967 0.0
C125 C 0.62687 0.36757 0.47348 0.0
C126 C 0.5443 0.41746 0.49685 0.0
C127 C 0.65331 0.38687 0.45627 0.0
C128 C 0.5717 0.38271 0.49372 0.0
C129 C 0.65051 0.44211 0.44084 0.0
O130 O 0.67481 0.57534 0.44239 0.0
O131 O 0.71058 0.51881 0.44313 0.0
C132 C 0.72462 0.54702 0.44263 0.0
O133 O 0.60985 0.51775 0.38608 0.0
O134 O 0.50334 0.6305 0.47689 0.0
O135 O 0.55037 0.63461 0.43229 0.0
O136 O 0.54864 0.57301 0.39107 0.0
C137 C 0.57784 0.54532 0.37257 0.0
O138 O 0.49446 0.51675 0.43578 0.0
O139 O 0.46055 0.5733 0.44765 0.0
O140 O 0.60733 0.56992 0.49761 0.0
O141 O 0.60993 0.45701 0.41717 0.0
O142 O 0.67725 0.46209 0.45996 0.0
O143 O 0.57674 0.52341 0.49256 0.0
C144 C 0.54932 0.67397 0.4788 0.0
C145 C 0.61877 0.66516 0.48549 0.0
C146 C 0.5369 0.72796 0.50964 0.0
C147 C 0.64732 0.68785 0.50342 0.0
C148 C 0.50837 0.70523 0.49139 0.0
C149 C 0.60687 0.71969 0.51541 0.0
C150 C 0.51974 0.65026 0.4593 0.0
C151 C 0.44553 0.54507 0.44152 0.0
H152 H 0.5479 0.46331 0.48204 0.0
H153 H 0.6491 0.34084 0.47073 0.0
H154 H 0.50099 0.42985 0.51163 0.0
H155 H 0.69544 0.37487 0.44059 0.0
H156 H 0.6511 0.64093 0.47629 0.0
H157 H 0.50431 0.75211 0.51884 0.0
H158 H 0.7014 0.68077 0.50673 0.0
H159 H 0.45449 0.71215 0.48684 0.0
H160 H 0.38427 0.65677 0.92566 0.0
H161 H 0.32557 0.71657 0.9259 0.0
H162 H 0.50955 0.73761 0.95795 0.0
H163 H 0.56834 0.67804 0.95783 0.0
H164 H 0.30545 0.76933 0.97725 0.0
H165 H 0.44863 0.79337 0.87899 0.0
H166 H 0.45185 0.75192 0.8861 0.0
H167 H 0.49984 0.77373 0.91329 0.0
C168 C 0.41263 0.67399 0.93263 0.0
C169 C 0.48184 0.66184 0.94155 0.0
C170 C 0.37864 0.70852 0.93284 0.0
C171 C 0.41251 0.73243 0.94144 0.0
C172 C 0.48156 0.72031 0.95048 0.0
H173 H 0.29857 0.95277 0.94962 0.0
H174 H 0.35679 0.89307 0.94985 0.0
C175 C 0.5154 0.68585 0.9506 0.0
C176 C 0.37573 0.76968 0.94158 0.0
H177 H 0.37458 0.84052 0.90821 0.0
C178 C 0.32059 0.78475 0.96195 0.0
C179 C 0.39474 0.79064 0.92204 0.0
C180 C 0.45158 0.77667 0.89862 0.0
C181 C 0.2857 0.81942 0.96392 0.0
C182 C 0.30406 0.84043 0.94401 0.0
C183 C 0.35933 0.82525 0.92362 0.0
C184 C 0.26726 0.87781 0.944 0.0
C185 C 0.23101 0.83322 -0.0114 0.0
C186 C 0.19665 0.89048 0.94014 0.0
C187 C 0.16294 0.92499 0.94044 0.0
C188 C 0.19822 0.94854 0.94388 0.0
C189 C 0.26891 0.93589 0.94695 0.0
C190 C 0.3026 0.90135 0.94703 0.0
H191 H 0.23851 0.81728 0.00941 0.0
H192 H 0.22871 0.85869 -0.00035 0.0
H193 H 0.18207 0.83399 0.97548 0.0
H194 H 0.16701 0.87362 0.93643 0.0
H195 H 0.10877 0.93317 0.93756 0.0
H196 H 0.79958 0.4527 0.9494 0.0
H197 H 0.85754 0.39297 0.94973 0.0
H198 H 0.66763 0.3737 0.93563 0.0
H199 H 0.60964 0.43326 0.93661 0.0
H200 H 0.87538 0.34034 0.90798 0.0
H201 H 0.73807 0.31756 0.00893 0.0
H202 H 0.68201 0.33429 0.97488 0.0
H203 H 0.72871 0.35891 -0.00086 0.0
C204 C 0.76984 0.43585 0.9466 0.0
C205 C 0.69918 0.44855 0.94328 0.0
C206 C 0.80338 0.40131 0.94674 0.0
C207 C 0.76791 0.37781 0.94355 0.0
C208 C 0.69735 0.39052 0.93945 0.0
H209 H 0.8836 0.15681 0.92576 0.0
H210 H 0.82521 0.21662 0.92582 0.0
C211 C 0.66379 0.42504 0.93967 0.0
C212 C 0.80449 0.34042 0.94366 0.0
H213 H 0.80506 0.26949 0.97694 0.0
C214 C 0.85987 0.32513 0.92337 0.0
C215 C 0.78578 0.31952 0.96355 0.0
C216 C 0.73089 0.33345 -0.0119 0.0
C217 C 0.89507 0.29051 0.92186 0.0
C218 C 0.87572 0.26965 0.94138 0.0
C219 C 0.82046 0.28483 0.96166 0.0
C220 C 0.91228 0.23238 0.94135 0.0
C221 C 0.95202 0.27641 0.89852 0.0
C222 C 0.98128 0.22021 0.95045 0.0
C223 C 1.01494 0.18574 0.95067 0.0
C224 C 0.98124 0.16178 0.94168 0.0
C225 C 0.91206 0.17399 0.9327 0.0
C226 C 0.87826 0.20853 0.9328 0.0
H227 H 0.94924 0.29303 0.87884 0.0
H228 H 1.00022 0.27347 0.91324 0.0
H229 H 0.95225 0.25165 0.88607 0.0
H230 H 1.00939 0.23746 0.9579 0.0
H231 H 1.06786 0.17789 0.95795 0.0
H232 H 0.26196 0.1891 0.51756 0.0
H233 H 0.33878 0.22132 0.53234 0.0
H234 H 0.17366 0.30715 0.5633 0.0
H235 H 0.09572 0.27484 0.54793 0.0
H236 H 0.24229 0.3205 0.51848 0.0
H237 H 0.42449 0.25721 0.61435 0.0
H238 H 0.4164 0.22765 0.57981 0.0
H239 H 0.34511 0.24938 0.60465 0.0
C240 C 0.24212 0.21451 0.52857 0.0
C241 C 0.17283 0.22948 0.53163 0.0
C242 C 0.28629 0.23289 0.53725 0.0
C243 C 0.26225 0.26649 0.54959 0.0
C244 C 0.19332 0.28115 0.55414 0.0
H245 H 0.52262 0.39376 0.55669 0.0
H246 H 0.44896 0.36668 0.57747 0.0
C247 C 0.14888 0.26278 0.54518 0.0
C248 C 0.30757 0.28715 0.55203 0.0
H249 H 0.46727 0.28651 0.57673 0.0
C250 C 0.29065 0.31366 0.53206 0.0
C251 C 0.37065 0.27836 0.56983 0.0
C252 C 0.38979 0.2518 0.59363 0.0
C253 C 0.33701 0.32986 0.52734 0.0
C254 C 0.40194 0.31902 0.54267 0.0
C255 C 0.41756 0.29426 0.56461 0.0
C256 C 0.45513 0.3314 0.53342 0.0
C257 C 0.31762 0.35734 0.50453 0.0
C258 C 0.48416 0.31964 0.50234 0.0
C259 C 0.52563 0.33509 0.4903 0.0
C260 C 0.53851 0.3626 0.50921 0.0
C261 C 0.51275 0.37289 0.54139 0.0
C262 C 0.47118 0.35738 0.55341 0.0
H263 H 0.26256 0.36658 0.49926 0.0
H264 H 0.33511 0.37843 0.51592 0.0
H265 H 0.34211 0.34793 0.48028 0.0
H266 H 0.47184 0.29962 0.48662 0.0
H267 H 0.54409 0.32679 0.46532 0.0
H268 H 1.07291 0.82337 0.49938 0.0
H269 H 0.99012 0.80021 0.51725 0.0
H270 H 0.86595 0.8986 0.55101 0.0
H271 H 0.94751 0.92209 0.53273 0.0
H272 H 0.87947 0.83675 0.59274 0.0
H273 H 0.8022 0.8301 0.45649 0.0
H274 H 0.89045 0.81415 0.46725 0.0
H275 H 0.84779 0.85772 0.47548 0.0
C276 C 1.02856 0.84001 0.51115 0.0
C277 C 1.01638 0.87455 0.5143 0.0
C278 C 0.98175 0.82675 0.5216 0.0
C279 C 0.92229 0.84781 0.53536 0.0
C280 C 0.91203 0.88204 0.54073 0.0
H281 H 0.56896 0.7856 0.50608 0.0
H282 H 0.63542 0.82331 0.52011 0.0
C283 C 0.95875 0.89536 0.53027 0.0
C284 C 0.86663 0.83471 0.53882 0.0
H285 H 0.75169 0.80547 0.49145 0.0
C286 C 0.85096 0.83007 0.57076 0.0
C287 C 0.82903 0.82682 0.51006 0.0
C288 C 0.8426 0.83259 0.47532 0.0
C289 C 0.79963 0.81639 0.57448 0.0
C290 C 0.76413 0.80699 0.54546 0.0
C291 C 0.77864 0.81283 0.51372 0.0
C292 C 0.71574 0.78844 0.54638 0.0
C293 C 0.78405 0.81209 0.6093 0.0
C294 C 0.73716 0.75696 0.55809 0.0
C295 C 0.69861 0.73549 0.55062 0.0
C296 C 0.63872 0.74489 0.53068 0.0
C297 C 0.61462 0.77751 0.52157 0.0
C298 C 0.65276 0.79911 0.52945 0.0
H299 H 0.79774 0.83035 0.62839 0.0
H300 H 0.73011 0.81486 0.61091 0.0
H301 H 0.81385 0.78688 0.61567 0.0
H302 H 0.78598 0.74796 0.57075 0.0
H303 H 0.71783 0.71077 0.55868 0.0
H304 H 0.37045 0.08667 0.12288 0.0
H305 H 0.45592 0.07884 0.16932 0.0
H306 H 0.58317 0.9947 0.10986 0.0
H307 H 0.4971 1.00129 0.06497 0.0
H308 H 0.61555 0.98894 0.17672 0.0
H309 H 0.59568 0.11823 0.15491 0.0
H310 H 0.53024 0.109 0.17386 0.0
H311 H 0.5407 0.09936 0.12924 0.0
C312 C 0.41604 0.06593 0.12041 0.0
C313 C 0.42814 1.04501 0.09016 0.0
C314 C 0.46486 0.06151 0.14688 0.0
C315 C 0.52717 1.03695 0.14276 0.0
C316 C 0.53575 1.01394 0.1139 0.0
H317 H 0.79885 0.97326 0.05413 0.0
H318 H 0.74622 0.97586 0.10608 0.0
C319 C 0.4866 1.01783 0.08796 0.0
C320 C 0.58853 1.03894 0.16294 0.0
H321 H 0.69968 0.07819 0.14922 0.0
C322 C 0.63412 1.009 0.17229 0.0
C323 C 0.61329 0.06571 0.15998 0.0
C324 C 0.56763 0.1 0.1542 0.0
C325 C 0.70316 1.00238 0.16919 0.0
C326 C 0.72561 1.02627 0.15644 0.0
C327 C 0.6822 0.05894 0.15685 0.0
C328 C 0.77927 1.01632 0.13182 0.0
C329 C 0.75004 0.96858 0.17543 0.0
C330 C 0.81799 1.03722 0.12875 0.0
C331 C 0.84591 1.03656 0.0982 0.0
C332 C 0.83747 1.01429 0.07059 0.0
C333 C 0.80634 0.99061 0.07501 0.0
C334 C 0.777 0.9918 0.1052 0.0
H335 H 0.74012 0.96191 0.19994 0.0
H336 H 0.74047 0.9497 0.15575 0.0
H337 H 0.80342 0.96762 0.17558 0.0
H338 H 0.82083 0.0563 0.14878 0.0
H339 H 0.87016 0.05496 0.09546 0.0
H340 H 0.33858 0.99498 0.43709 0.0
H341 H 0.45514 0.99512 0.43638 0.0
H342 H 0.38853 0.10188 0.45058 0.0
H343 H 0.27213 0.10177 0.45023 0.0
H344 H 0.54635 1.01021 0.47554 0.0
H345 H 0.5077 0.09723 0.37965 0.0
H346 H 0.45724 0.11596 0.41488 0.0
H347 H 0.44239 0.08111 0.38884 0.0
C348 C 0.34813 1.01868 0.43981 0.0
C349 C 0.29336 1.04837 0.44336 0.0
C350 C 0.41611 1.01876 0.43948 0.0
C351 C 0.43388 1.04852 0.44254 0.0
C352 C 0.37907 0.07818 0.4468 0.0
H353 H 0.82135 0.09967 0.45152 0.0
H354 H 0.7047 0.09951 0.45189 0.0
C355 C 0.3111 0.07812 0.44695 0.0
C356 C 0.50851 1.04832 0.44206 0.0
H357 H 0.61325 0.08455 0.40978 0.0
C358 C 0.56021 1.02647 0.46081 0.0
C359 C 0.53024 0.06918 0.42321 0.0
C360 C 0.48169 0.09193 0.40025 0.0
C361 C 0.62933 1.02546 0.46192 0.0
C362 C 0.65094 1.04643 0.4432 0.0
C363 C 0.5993 0.06828 0.42447 0.0
C364 C 0.72549 1.04625 0.44279 0.0
C365 C 0.67828 1.00239 0.48446 0.0
C366 C 0.77992 1.01667 0.43701 0.0
C367 C 0.84788 1.01674 0.43675 0.0
C368 C 0.86598 1.04641 0.44206 0.0
C369 C 0.81154 0.07603 0.44739 0.0
C370 C 0.74353 0.07595 0.44754 0.0
H371 H 0.65262 0.99645 0.50481 0.0
H372 H 0.70318 0.97871 0.46938 0.0
H373 H 0.71731 1.01327 0.49613 0.0
H374 H 0.77007 0.99309 0.43213 0.0
H375 H 0.88659 0.99316 0.43228 0.0
H376 H 0.87149 0.58947 0.12202 0.0
H377 H 0.95699 0.58238 0.16843 0.0
H378 H 1.08428 0.49737 0.11008 0.0
H379 H 0.99819 0.50326 0.0652 0.0
H380 H 0.11592 0.49264 0.17723 0.0
H381 H 0.09726 0.62108 0.15265 0.0
H382 H 1.03134 0.61252 0.17186 0.0
H383 H 1.0426 0.60169 0.12742 0.0
C384 C 0.9171 0.56871 0.11979 0.0
C385 C 0.92919 0.54732 0.08983 0.0
C386 C 0.96593 0.56471 0.14624 0.0
C387 C 1.02823 0.54008 0.1424 0.0
C388 C 1.03685 0.51667 0.11388 0.0
H389 H 0.30157 0.47497 0.05559 0.0
H390 H 0.24835 0.4783 0.10751 0.0
C391 C 0.9877 0.52015 0.08795 0.0
C392 C 1.08952 0.54228 0.16252 0.0
H393 H 0.20149 0.58107 0.14879 0.0
C394 C 0.13475 0.51255 0.17258 0.0
C395 C 0.11452 0.56889 0.15918 0.0
C396 C 1.06911 0.60296 0.15242 0.0
C397 C 0.20397 0.50587 0.17005 0.0
C398 C 0.227 0.52944 0.15706 0.0
C399 C 0.18362 0.56205 0.15664 0.0
C400 C 0.28132 0.51897 0.13279 0.0
C401 C 0.25057 0.47225 0.17712 0.0
C402 C 0.32041 0.53965 0.12953 0.0
C403 C 0.34878 0.53854 0.09898 0.0
C404 C 0.34035 0.51603 0.07157 0.0
C405 C 0.30903 0.49251 0.07629 0.0
C406 C 0.27931 0.49413 0.10647 0.0
H407 H 0.23976 0.46607 0.20169 0.0
H408 H 0.24161 0.45304 0.15765 0.0
H409 H 0.304 0.47127 0.17761 0.0
H410 H 0.32317 0.55893 0.14935 0.0
H411 H 0.37337 0.55677 0.09607 0.0
H412 H 0.39131 0.49199 0.43578 0.0
H413 H 0.27414 0.49271 0.43649 0.0
H414 H 0.21026 0.59949 0.44634 0.0
H415 H 0.32711 0.59879 0.44672 0.0
H416 H 0.16362 0.50897 0.40094 0.0
H417 H 0.09708 0.59439 0.51608 0.0
H418 H 0.12445 0.6135 0.48513 0.0
H419 H 0.18221 0.57805 0.50324 0.0
C420 C 0.35267 0.51581 0.43833 0.0
C421 C 0.37124 0.54533 0.44145 0.0
C422 C 0.28435 0.51623 0.43869 0.0
C423 C 0.23009 0.54617 0.44236 0.0
C424 C 0.24876 0.57566 0.44477 0.0
H425 H 0.77827 0.59997 0.44449 0.0
H426 H 0.89554 0.59923 0.44401 0.0
C427 C 0.317 0.57525 0.4446 0.0
C428 C 0.1554 0.54643 0.44283 0.0
H429 H 1.0062 0.58306 0.48307 0.0
C430 C 0.12996 0.52517 0.41926 0.0
C431 C 0.10826 0.56722 0.46628 0.0
C432 C 0.12944 0.58932 0.49432 0.0
C433 C 1.06175 0.52467 0.41791 0.0
C434 C 1.01461 0.54559 0.44123 0.0
C435 C 1.03996 0.56685 0.4648 0.0
C436 C 0.93999 0.54587 0.44162 0.0
C437 C 1.04056 0.50219 0.3903 0.0
C438 C 0.92168 0.51646 0.44105 0.0
C439 C 0.85345 0.51687 0.44136 0.0
C440 C 0.79889 0.54673 0.44242 0.0
C441 C 0.81713 0.5762 0.44346 0.0
C442 C 0.88547 0.57578 0.44327 0.0
H443 H 1.07345 0.49633 0.36867 0.0
H444 H 1.04443 0.47843 0.40012 0.0
H445 H 0.98803 0.51355 0.38106 0.0
H446 H 0.96049 0.49275 0.44087 0.0
H447 H 0.84358 0.4934 0.44085 0.0
H448 H 0.10054 0.99378 0.3249 0.0
H449 H 0.10099 0.99442 0.26409 0.0
H450 H 1.04571 0.1013 0.2766 0.0
H451 H 1.04275 0.10092 0.33732 0.0
H452 H 0.97731 0.0823 0.22477 0.0
H453 H 0.24322 1.00714 0.21256 0.0
H454 H 0.19584 0.98562 0.23045 0.0
H455 H 0.2075 1.02283 0.25285 0.0
C456 C 1.08849 1.01746 0.31476 0.0
C457 C 1.07196 1.04729 0.33618 0.0
C458 C 1.08931 1.01777 0.27988 0.0
C459 C 1.07502 1.04786 0.26556 0.0
C460 C 1.05735 0.0777 0.28687 0.0
H461 H 0.17764 0.06384 0.0631 0.0
H462 H 0.17333 0.063 0.12375 0.0
C463 C 1.05567 0.07744 0.3217 0.0
C464 C 1.07745 1.04842 0.22845 0.0
H465 H 0.17739 1.01728 0.16156 0.0
C466 C 1.02124 0.06817 0.21101 0.0
C467 C 0.13502 1.03044 0.21033 0.0
C468 C 0.19903 1.0106 0.22755 0.0
C469 C 1.02068 0.07025 0.17622 0.0
C470 C 1.07724 0.05118 0.15785 0.0
C471 C 0.13367 1.03166 0.17535 0.0
C472 C 1.07958 0.05163 0.1207 0.0
C473 C 0.96 0.0937 0.15987 0.0
C474 C 1.02909 1.045 0.09837 0.0
C475 C 1.0305 1.04636 0.06372 0.0
C476 C 1.08383 0.05322 0.05039 0.0
C477 C 0.13569 0.05862 0.07255 0.0
C478 C 0.13332 0.05808 0.10729 0.0
H479 H 0.932 0.11375 0.17845 0.0
H480 H 0.97416 0.10531 0.13956 0.0
H481 H 0.92552 0.07974 0.14887 0.0
H482 H 0.98877 1.03847 0.10776 0.0
H483 H 0.99043 1.04142 0.0473 0.0
H484 H 0.16376 0.08337 0.83953 0.0
H485 H 0.16608 0.08262 0.77847 0.0
H486 H 1.03592 1.02131 0.76376 0.0
H487 H 1.03299 1.02195 0.82466 0.0
H488 H 0.15519 0.99969 0.72282 0.0
H489 H 1.00567 0.13203 0.71534 0.0
H490 H 1.07511 0.12385 0.74583 0.0
H491 H 1.00449 0.11019 0.75098 0.0
C492 C 0.13556 0.0697 0.82337 0.0
C493 C 0.09796 0.05282 0.8372 0.0
C494 C 0.13673 0.06944 0.78842 0.0
C495 C 0.10062 0.05219 0.7665 0.0
C496 C 1.06393 1.03491 0.78016 0.0
H497 H 1.04823 1.0084 0.54972 0.0
H498 H 1.05252 1.00943 0.61084 0.0
C499 C 1.06225 1.03538 0.81507 0.0
C500 C 0.1014 0.05186 0.72933 0.0
H501 H 1.04868 0.10104 0.66495 0.0
C502 C 0.1319 1.02183 0.71013 0.0
C503 C 1.07146 0.0808 0.71281 0.0
C504 C 1.03684 0.11358 0.73212 0.0
C505 C 0.13385 1.01998 0.67492 0.0
C506 C 0.10255 0.04879 0.6582 0.0
C507 C 1.07255 0.07891 0.67756 0.0
C508 C 0.09972 1.04821 0.62074 0.0
C509 C 0.17098 0.98729 0.65617 0.0
C510 C 0.1225 0.07046 0.6056 0.0
C511 C 0.11907 0.0703 0.57051 0.0
C512 C 1.09283 1.04783 0.54968 0.0
C513 C 1.06952 1.02578 0.56489 0.0
C514 C 1.0724 1.02617 0.59996 0.0
H515 H 0.20934 0.97136 0.67281 0.0
H516 H 0.13491 0.9737 0.64669 0.0
H517 H 0.19613 0.99102 0.63443 0.0
H518 H 0.14338 0.08789 0.62095 0.0
H519 H 0.13731 0.08771 0.55973 0.0
H520 H 0.5401 0.5989 0.33569 0.0
H521 H 0.53993 0.59885 0.27481 0.0
H522 H 0.60876 0.49181 0.26371 0.0
H523 H 0.61124 0.49169 0.32474 0.0
H524 H 0.67608 0.51369 0.22528 0.0
H525 H 0.40801 0.58171 0.20334 0.0
H526 H 0.44825 0.60534 0.23286 0.0
H527 H 0.44166 0.56659 0.24319 0.0
C528 C 0.55475 0.5753 0.32034 0.0
C529 C 0.5754 0.54529 0.33529 0.0
C530 C 0.55417 0.57531 0.28536 0.0
C531 C 0.57298 0.54532 0.26431 0.0
C532 C 0.59368 0.51533 0.27921 0.0
H533 H 0.49396 0.53873 0.046 0.0
H534 H 0.49344 0.53391 0.10617 0.0
C535 C 0.595 0.51529 0.31422 0.0
C536 C 0.57365 0.54521 0.22699 0.0
H537 H 0.47885 0.5767 0.15818 0.0
C538 C 0.63273 0.52732 0.21062 0.0
C539 C 0.51685 0.56235 0.20745 0.0
C540 C 0.44994 0.57976 0.22255 0.0
C541 C 0.63712 0.52668 0.1757 0.0
C542 C 0.5816 0.54548 0.15649 0.0
C543 C 0.52198 0.56272 0.17274 0.0
C544 C 0.58377 0.5474 0.11957 0.0
C545 C 0.70085 0.50509 0.15978 0.0
C546 C 0.63494 0.55644 0.10669 0.0
C547 C 0.63651 0.55822 0.07211 0.0
C548 C 0.58566 0.55212 0.04969 0.0
C549 C 0.53364 0.54382 0.06261 0.0
C550 C 0.53315 0.54116 0.09707 0.0
H551 H 0.72785 0.48435 0.17496 0.0
H552 H 0.69063 0.49444 0.13398 0.0
H553 H 0.73469 0.5202 0.15839 0.0
H554 H 0.67352 0.56245 0.12338 0.0
H555 H 0.67695 0.56497 0.06301 0.0
H556 H 0.64106 0.58734 0.55911 0.0
H557 H 0.64643 0.58767 0.62037 0.0
H558 H 0.55685 0.50873 0.61003 0.0
H559 H 0.55339 0.50751 0.54891 0.0
H560 H 0.5515 0.60064 0.66413 0.0
H561 H 0.71281 0.47119 0.67256 0.0
H562 H 0.69986 0.49073 0.63412 0.0
H563 H 0.63875 0.47325 0.64624 0.0
C564 C 0.62295 0.56986 0.56986 0.0
C565 C 0.59727 0.54722 0.54896 0.0
C566 C 0.62597 0.57011 0.60496 0.0
C567 C 0.60335 0.54777 0.62007 0.0
C568 C 0.5766 0.52555 0.5992 0.0
H569 H 0.53395 0.52197 0.82392 0.0
H570 H 0.53742 0.52122 0.76301 0.0
C571 C 0.57415 0.52507 0.56413 0.0
C572 C 0.60571 0.54843 0.65755 0.0
H573 H 0.65763 0.49948 0.72234 0.0
C574 C 0.5753 0.57855 0.67681 0.0
C575 C 0.63691 0.51968 0.67439 0.0
C576 C 0.67452 0.48699 0.65579 0.0
C577 C 0.57369 0.58049 0.71205 0.0
C578 C 0.6035 0.55161 0.72868 0.0
C579 C 0.63441 0.52158 0.70958 0.0
C580 C 0.6023 0.55202 0.76586 0.0
C581 C 0.53871 0.61328 0.73125 0.0
C582 C 0.63831 0.56927 0.78785 0.0
C583 C 0.63684 0.56959 0.8228 0.0
C584 C 0.59902 0.55277 0.83658 0.0
C585 C 0.56337 0.53535 0.81437 0.0
C586 C 0.56536 0.53482 0.77946 0.0
H587 H 0.5078 0.6317 0.71436 0.0
H588 H 0.50603 0.60988 0.74994 0.0
H589 H 0.57674 0.62359 0.74515 0.0
H590 H 0.66783 0.5824 0.77797 0.0
H591 H 0.66501 0.58324 0.839 0.0
loop_
_geom_bond_atom_site_label_1
_geom_bond_atom_site_label_2
_geom_bond_distance
_geom_bond_site_symmetry_2
_ccdc_geom_bond_type
Eu0 C9 2.828 . S
Eu0 O11 2.392 1_655 S
Eu0 O13 2.418 . S
Eu0 O18 2.373 1_565 S
Eu0 O21 2.488 . S
Eu0 O22 2.471 1_556 S
Eu0 O23 2.349 1_556 S
Eu1 O10 2.373 1_545 S
Eu1 O14 2.488 . S
Eu1 O15 2.471 1_554 S
Eu1 O16 2.349 1_554 S
Eu1 O19 2.392 1_455 S
Eu1 O20 2.418 . S
Eu1 C30 2.828 . S
C2 O20 1.244 . S
C2 O23 1.265 1_445 S
C3 C4 1.379 1_556 S
C3 C7 1.373 1_545 S
C3 C9 1.505 1_545 S
C4 C3 1.379 1_554 S
C4 C6 1.369 . S
C4 H32 0.930 . S
C5 C7 1.383 1_545 S
C5 C8 1.382 1_556 S
C5 H33 0.930 . S
C6 C4 1.369 . S
C6 C8 1.392 . S
C6 H34 0.930 . S
C7 C3 1.373 1_565 S
C7 C5 1.383 1_565 S
C7 H35 0.931 . S
C8 C5 1.382 1_554 S
C8 C6 1.392 . S
C9 Eu0 2.828 . S
C9 C3 1.505 1_565 S
C9 O21 1.249 . S
C9 O22 1.244 1_556 S
O10 Eu1 2.373 1_565 S
O10 C12 1.258 . S
O11 Eu0 2.392 1_455 S
O11 C12 1.242 1_556 S
C12 O10 1.258 . S
C12 O11 1.242 1_554 S
O13 Eu0 2.418 . S
O13 C17 1.244 . S
O14 Eu1 2.488 . S
O14 C30 1.249 . S
O15 Eu1 2.471 1_556 S
O15 C30 1.244 1_556 S
O16 Eu1 2.349 1_556 S
O16 C17 1.265 1_445 S
C17 O13 1.244 . S
C17 O16 1.265 1_665 S
O18 Eu0 2.373 1_545 S
O18 C31 1.258 1_556 S
O19 Eu1 2.392 1_655 S
O19 C31 1.242 . S
O20 Eu1 2.418 . S
O20 C2 1.244 . S
O21 Eu0 2.488 . S
O21 C9 1.249 . S
O22 Eu0 2.471 1_554 S
O22 C9 1.244 1_554 S
O23 Eu0 2.349 1_554 S
O23 C2 1.265 1_665 S
C24 C25 1.379 1_554 S
C24 C28 1.373 1_565 S
C24 C30 1.505 1_565 S
C25 C24 1.379 1_556 S
C25 C27 1.369 . S
C25 H36 0.930 . S
C26 C28 1.383 1_565 S
C26 C29 1.382 1_554 S
C26 H37 0.930 . S
C27 C25 1.369 . S
C27 C29 1.392 . S
C27 H38 0.930 . S
C28 C24 1.373 1_545 S
C28 C26 1.383 1_545 S
C28 H39 0.931 . S
C29 C26 1.382 1_556 S
C29 C27 1.392 . S
C30 Eu1 2.828 . S
C30 O14 1.249 . S
C30 O15 1.244 1_554 S
C30 C24 1.505 1_545 S
C31 O18 1.258 1_554 S
C31 O19 1.242 . S
H32 C4 0.930 . S
H33 C5 0.930 . S
H34 C6 0.930 . S
H35 C7 0.931 . S
H36 C25 0.930 . S
H37 C26 0.930 . S
H38 C27 0.930 . S
H39 C28 0.931 . S
Eu40 C49 2.828 1_455 S
Eu40 O51 2.392 . S
Eu40 O53 2.418 1_455 S
Eu40 O58 2.373 1_455 S
Eu40 O61 2.488 1_455 S
Eu40 O62 2.471 1_455 S
Eu40 O63 2.349 . S
Eu41 O50 2.373 1_655 S
Eu41 O54 2.488 1_655 S
Eu41 O55 2.471 1_655 S
Eu41 O56 2.349 . S
Eu41 O59 2.392 . S
Eu41 O60 2.418 1_655 S
Eu41 C70 2.828 1_655 S
C42 O60 1.244 . S
C42 O63 1.265 1_545 S
C43 C44 1.379 . S
C43 C47 1.373 . S
C43 C49 1.505 . S
C44 C43 1.379 . S
C44 C46 1.369 . S
C44 H72 0.930 . S
C45 C47 1.383 . S
C45 C48 1.382 . S
C45 H73 0.930 . S
C46 C44 1.369 . S
C46 C48 1.392 . S
C46 H74 0.930 . S
C47 C43 1.373 . S
C47 C45 1.383 . S
C47 H75 0.931 . S
C48 C45 1.382 . S
C48 C46 1.392 . S
C49 Eu40 2.828 1_655 S
C49 C43 1.505 . S
C49 O61 1.249 . S
C49 O62 1.244 . S
O50 Eu41 2.373 1_455 S
O50 C52 1.258 1_545 S
O51 Eu40 2.392 . S
O51 C52 1.242 . S
C52 O50 1.258 1_565 S
C52 O51 1.242 . S
O53 Eu40 2.418 1_655 S
O53 C57 1.244 . S
O54 Eu41 2.488 1_455 S
O54 C70 1.249 . S
O55 Eu41 2.471 1_455 S
O55 C70 1.244 . S
O56 Eu41 2.349 . S
O56 C57 1.265 1_545 S
C57 O53 1.244 . S
C57 O56 1.265 1_565 S
O58 Eu40 2.373 1_655 S
O58 C71 1.258 1_565 S
O59 Eu41 2.392 . S
O59 C71 1.242 . S
O60 Eu41 2.418 1_455 S
O60 C42 1.244 . S
O61 Eu40 2.488 1_655 S
O61 C49 1.249 . S
O62 Eu40 2.471 1_655 S
O62 C49 1.244 . S
O63 Eu40 2.349 . S
O63 C42 1.265 1_565 S
C64 C65 1.379 . S
C64 C68 1.373 . S
C64 C70 1.505 . S
C65 C64 1.379 . S
C65 C67 1.369 . S
C65 H76 0.930 . S
C66 C68 1.383 . S
C66 C69 1.382 . S
C66 H77 0.930 . S
C67 C65 1.369 . S
C67 C69 1.392 . S
C67 H78 0.930 . S
C68 C64 1.373 . S
C68 C66 1.383 . S
C68 H79 0.931 . S
C69 C66 1.382 . S
C69 C67 1.392 . S
C70 Eu41 2.828 1_455 S
C70 O54 1.249 . S
C70 O55 1.244 . S
C70 C64 1.505 . S
C71 O58 1.258 1_545 S
C71 O59 1.242 . S
H72 C44 0.930 . S
H73 C45 0.930 . S
H74 C46 0.930 . S
H75 C47 0.931 . S
H76 C65 0.930 . S
H77 C66 0.930 . S
H78 C67 0.930 . S
H79 C68 0.931 . S
Eu80 C89 2.828 . S
Eu80 O91 2.392 . S
Eu80 O93 2.418 . S
Eu80 O98 2.373 . S
Eu80 O101 2.488 . S
Eu80 O102 2.471 1_556 S
Eu80 O103 2.349 1_556 S
Eu81 O90 2.373 . S
Eu81 O94 2.488 . S
Eu81 O95 2.471 1_554 S
Eu81 O96 2.349 1_554 S
Eu81 O99 2.392 . S
Eu81 O100 2.418 . S
Eu81 C110 2.828 . S
C82 O100 1.244 . S
C82 O103 1.265 . S
C83 C84 1.379 1_556 S
C83 C87 1.373 . S
C83 C89 1.505 . S
C84 C83 1.379 1_554 S
C84 C86 1.369 . S
C84 H112 0.930 . S
C85 C87 1.383 . S
C85 C88 1.382 1_556 S
C85 H113 0.930 . S
C86 C84 1.369 . S
C86 C88 1.392 . S
C86 H114 0.930 . S
C87 C83 1.373 . S
C87 C85 1.383 . S
C87 H115 0.931 . S
C88 C85 1.382 1_554 S
C88 C86 1.392 . S
C89 Eu80 2.828 . S
C89 C83 1.505 . S
C89 O101 1.249 . S
C89 O102 1.244 1_556 S
O90 Eu81 2.373 . S
O90 C92 1.258 . S
O91 Eu80 2.392 . S
O91 C92 1.242 1_556 S
C92 O90 1.258 . S
C92 O91 1.242 1_554 S
O93 Eu80 2.418 . S
O93 C97 1.244 . S
O94 Eu81 2.488 . S
O94 C110 1.249 . S
O95 Eu81 2.471 1_556 S
O95 C110 1.244 1_556 S
O96 Eu81 2.349 1_556 S
O96 C97 1.265 . S
C97 O93 1.244 . S
C97 O96 1.265 . S
O98 Eu80 2.373 . S
O98 C111 1.258 1_556 S
O99 Eu81 2.392 . S
O99 C111 1.242 . S
O100 Eu81 2.418 . S
O100 C82 1.244 . S
O101 Eu80 2.488 . S
O101 C89 1.249 . S
O102 Eu80 2.471 1_554 S
O102 C89 1.244 1_554 S
O103 Eu80 2.349 1_554 S
O103 C82 1.265 . S
C104 C105 1.379 1_554 S
C104 C108 1.373 . S
C104 C110 1.505 . S
C105 C104 1.379 1_556 S
C105 C107 1.369 . S
C105 H116 0.930 . S
C106 C108 1.383 . S
C106 C109 1.382 1_554 S
C106 H117 0.930 . S
C107 C105 1.369 . S
C107 C109 1.392 . S
C107 H118 0.930 . S
C108 C104 1.373 . S
C108 C106 1.383 . S
C108 H119 0.931 . S
C109 C106 1.382 1_556 S
C109 C107 1.392 . S
C110 Eu81 2.828 . S
C110 O94 1.249 . S
C110 O95 1.244 1_554 S
C110 C104 1.505 . S
C111 O98 1.258 1_554 S
C111 O99 1.242 . S
H112 C84 0.930 . S
H113 C85 0.930 . S
H114 C86 0.930 . S
H115 C87 0.931 . S
H116 C105 0.930 . S
H117 C106 0.930 . S
H118 C107 0.930 . S
H119 C108 0.931 . S
Eu120 C129 2.828 . S
Eu120 O131 2.392 . S
Eu120 O133 2.418 . S
Eu120 O138 2.373 . S
Eu120 O141 2.488 . S
Eu120 O142 2.471 . S
Eu120 O143 2.349 . S
Eu121 O130 2.373 . S
Eu121 O134 2.488 . S
Eu121 O135 2.471 . S
Eu121 O136 2.349 . S
Eu121 O139 2.392 . S
Eu121 O140 2.418 . S
Eu121 C150 2.828 . S
C122 O140 1.244 . S
C122 O143 1.265 . S
C123 C124 1.379 . S
C123 C127 1.373 . S
C123 C129 1.505 . S
C124 C123 1.379 . S
C124 C126 1.369 . S
C124 H152 0.930 . S
C125 C127 1.383 . S
C125 C128 1.382 . S
C125 H153 0.930 . S
C126 C124 1.369 . S
C126 C128 1.392 . S
C126 H154 0.930 . S
C127 C123 1.373 . S
C127 C125 1.383 . S
C127 H155 0.931 . S
C128 C125 1.382 . S
C128 C126 1.392 . S
C129 Eu120 2.828 . S
C129 C123 1.505 . S
C129 O141 1.249 . S
C129 O142 1.244 . S
O130 Eu121 2.373 . S
O130 C132 1.258 . S
O131 Eu120 2.392 . S
O131 C132 1.242 . S
C132 O130 1.258 . S
C132 O131 1.242 . S
O133 Eu120 2.418 . S
O133 C137 1.244 . S
O134 Eu121 2.488 . S
O134 C150 1.249 . S
O135 Eu121 2.471 . S
O135 C150 1.244 . S
O136 Eu121 2.349 . S
O136 C137 1.265 . S
C137 O133 1.244 . S
C137 O136 1.265 . S
O138 Eu120 2.373 . S
O138 C151 1.258 . S
O139 Eu121 2.392 . S
O139 C151 1.242 . S
O140 Eu121 2.418 . S
O140 C122 1.244 . S
O141 Eu120 2.488 . S
O141 C129 1.249 . S
O142 Eu120 2.471 . S
O142 C129 1.244 . S
O143 Eu120 2.349 . S
O143 C122 1.265 . S
C144 C145 1.379 . S
C144 C148 1.373 . S
C144 C150 1.505 . S
C145 C144 1.379 . S
C145 C147 1.369 . S
C145 H156 0.930 . S
C146 C148 1.383 . S
C146 C149 1.382 . S
C146 H157 0.930 . S
C147 C145 1.369 . S
C147 C149 1.392 . S
C147 H158 0.930 . S
C148 C144 1.373 . S
C148 C146 1.383 . S
C148 H159 0.931 . S
C149 C146 1.382 . S
C149 C147 1.392 . S
C150 Eu121 2.828 . S
C150 O134 1.249 . S
C150 O135 1.244 . S
C150 C144 1.505 . S
C151 O138 1.258 . S
C151 O139 1.242 . S
H152 C124 0.930 . S
H153 C125 0.930 . S
H154 C126 0.930 . S
H155 C127 0.931 . S
H156 C145 0.930 . S
H157 C146 0.930 . S
H158 C147 0.930 . S
H159 C148 0.931 . S
H160 C168 0.929 . S
H161 C170 0.930 . S
H162 C172 0.930 . S
H163 C175 0.929 . S
H164 C178 0.930 . S
H165 C180 0.960 . S
H166 C180 0.960 . S
H167 C180 0.960 . S
C168 H160 0.929 . S
C168 C169 1.382 . S
C168 C170 1.384 . S
C169 C168 1.382 . S
C169 C175 1.386 1_556 S
C170 H161 0.930 . S
C170 C168 1.384 . S
C170 C171 1.372 . S
C171 C170 1.372 . S
C171 C172 1.400 1_556 S
C171 C176 1.489 . S
C172 H162 0.930 . S
C172 C171 1.400 1_554 S
C172 C175 1.386 . S
H173 C189 0.930 . S
H174 C190 0.931 . S
C175 H163 0.929 . S
C175 C169 1.386 1_554 S
C175 C172 1.386 . S
C176 C171 1.489 . S
C176 C178 1.386 1_556 S
C176 C179 1.412 . S
H177 C183 0.930 . S
C178 H164 0.930 . S
C178 C176 1.386 1_554 S
C178 C181 1.403 . S
C179 C176 1.412 . S
C179 C180 1.524 . S
C179 C183 1.400 . S
C180 H165 0.960 . S
C180 H166 0.960 . S
C180 H167 0.960 . S
C180 C179 1.524 . S
C181 C178 1.403 . S
C181 C182 1.392 . S
C181 C185 1.495 . S
C182 C181 1.392 . S
C182 C183 1.385 1_554 S
C182 C184 1.478 . S
C183 H177 0.930 . S
C183 C179 1.400 . S
C183 C182 1.385 1_556 S
C184 C182 1.478 . S
C184 C186 1.381 1_554 S
C184 C190 1.383 . S
C185 C181 1.495 . S
C185 H191 0.959 . S
C185 H192 0.961 . S
C185 H193 0.960 . S
C186 C184 1.381 1_556 S
C186 C187 1.394 . S
C186 H194 0.930 . S
C187 C186 1.394 . S
C187 C188 1.383 1_556 S
C187 H195 0.929 . S
C188 C187 1.383 1_554 S
C188 C189 1.377 . S
C189 H173 0.930 . S
C189 C188 1.377 . S
C189 C190 1.379 . S
C190 H174 0.931 . S
C190 C184 1.383 . S
C190 C189 1.379 . S
H191 C185 0.959 . S
H192 C185 0.961 . S
H193 C185 0.960 . S
H194 C186 0.930 . S
H195 C187 0.929 . S
H196 C204 0.929 . S
H197 C206 0.930 . S
H198 C208 0.930 . S
H199 C211 0.929 . S
H200 C214 0.930 . S
H201 C216 0.960 . S
H202 C216 0.960 . S
H203 C216 0.960 1_554 S
C204 H196 0.929 . S
C204 C205 1.387 . S
C204 C206 1.384 . S
C205 C204 1.387 . S
C205 C211 1.379 1_556 S
C206 H197 0.930 . S
C206 C204 1.384 . S
C206 C207 1.372 . S
C207 C206 1.372 . S
C207 C208 1.400 1_556 S
C207 C212 1.490 . S
C208 H198 0.930 . S
C208 C207 1.400 1_554 S
C208 C211 1.386 . S
H209 C225 0.930 . S
H210 C226 0.931 . S
C211 H199 0.929 . S
C211 C205 1.379 1_554 S
C211 C208 1.386 . S
C212 C207 1.490 . S
C212 C214 1.395 1_556 S
C212 C215 1.403 . S
H213 C219 0.930 . S
C214 H200 0.930 . S
C214 C212 1.395 1_554 S
C214 C217 1.403 . S
C215 C212 1.403 . S
C215 C216 1.524 . S
C215 C219 1.400 . S
C216 H201 0.960 . S
C216 H202 0.960 . S
C216 H203 0.960 1_556 S
C216 C215 1.524 . S
C217 C214 1.403 . S
C217 C218 1.392 . S
C217 C221 1.495 . S
C218 C217 1.392 . S
C218 C219 1.385 1_554 S
C218 C220 1.478 . S
C219 H213 0.930 . S
C219 C215 1.400 . S
C219 C218 1.385 1_556 S
C220 C218 1.478 . S
C220 C222 1.381 1_554 S
C220 C226 1.383 . S
C221 C217 1.495 . S
C221 H227 0.959 . S
C221 H228 0.961 . S
C221 H229 0.960 1_554 S
C222 C220 1.381 1_556 S
C222 C223 1.394 . S
C222 H230 0.930 . S
C223 C222 1.394 . S
C223 C224 1.362 1_556 S
C223 H231 0.929 . S
C224 C223 1.362 1_554 S
C224 C225 1.396 . S
C225 H209 0.930 . S
C225 C224 1.396 . S
C225 C226 1.379 . S
C226 H210 0.931 . S
C226 C220 1.383 . S
C226 C225 1.379 . S
H227 C221 0.959 . S
H228 C221 0.961 . S
H229 C221 0.960 1_556 S
H230 C222 0.930 . S
H231 C223 0.929 . S
H232 C240 0.929 . S
H233 C242 0.930 . S
H234 C244 0.930 . S
H235 C247 0.929 . S
H236 C250 0.930 . S
H237 C252 0.960 . S
H238 C252 0.960 . S
H239 C252 0.960 . S
C240 H232 0.929 . S
C240 C241 1.377 . S
C240 C242 1.384 . S
C241 C240 1.377 . S
C241 C247 1.390 . S
C242 H233 0.930 . S
C242 C240 1.384 . S
C242 C243 1.372 . S
C243 C242 1.372 . S
C243 C244 1.400 . S
C243 C248 1.490 . S
C244 H234 0.930 . S
C244 C243 1.400 . S
C244 C247 1.386 . S
H245 C261 0.930 . S
H246 C262 0.931 . S
C247 H235 0.929 . S
C247 C241 1.390 . S
C247 C244 1.386 . S
C248 C243 1.490 . S
C248 C250 1.395 . S
C248 C251 1.403 . S
H249 C255 0.930 . S
C250 H236 0.930 . S
C250 C248 1.395 . S
C250 C253 1.403 . S
C251 C248 1.403 . S
C251 C252 1.524 . S
C251 C255 1.400 . S
C252 H237 0.960 . S
C252 H238 0.960 . S
C252 H239 0.960 . S
C252 C251 1.524 . S
C253 C250 1.403 . S
C253 C254 1.392 . S
C253 C257 1.495 . S
C254 C253 1.392 . S
C254 C255 1.385 . S
C254 C256 1.478 . S
C255 H249 0.930 . S
C255 C251 1.400 . S
C255 C254 1.385 . S
C256 C254 1.478 . S
C256 C258 1.381 . S
C256 C262 1.383 . S
C257 C253 1.495 . S
C257 H263 0.959 . S
C257 H264 0.961 . S
C257 H265 0.960 . S
C258 C256 1.381 . S
C258 C259 1.394 . S
C258 H266 0.930 . S
C259 C258 1.394 . S
C259 C260 1.383 . S
C259 H267 0.929 . S
C260 C259 1.383 . S
C260 C261 1.377 . S
C261 H245 0.930 . S
C261 C260 1.377 . S
C261 C262 1.379 . S
C262 H246 0.931 . S
C262 C256 1.383 . S
C262 C261 1.379 . S
H263 C257 0.959 . S
H264 C257 0.961 . S
H265 C257 0.960 . S
H266 C258 0.930 . S
H267 C259 0.929 . S
H268 C276 0.929 . S
H269 C278 0.930 . S
H270 C280 0.930 . S
H271 C283 0.929 . S
H272 C286 0.930 . S
H273 C288 0.960 . S
H274 C288 0.960 . S
H275 C288 0.960 . S
C276 H268 0.929 . S
C276 C277 1.377 . S
C276 C278 1.384 . S
C277 C276 1.377 . S
C277 C283 1.390 . S
C278 H269 0.930 . S
C278 C276 1.384 . S
C278 C279 1.372 . S
C279 C278 1.372 . S
C279 C280 1.400 . S
C279 C284 1.490 . S
C280 H270 0.930 . S
C280 C279 1.400 . S
C280 C283 1.386 . S
H281 C297 0.930 . S
H282 C298 0.931 . S
C283 H271 0.929 . S
C283 C277 1.390 . S
C283 C280 1.386 . S
C284 C279 1.490 . S
C284 C286 1.395 . S
C284 C287 1.403 . S
H285 C291 0.930 . S
C286 H272 0.930 . S
C286 C284 1.395 . S
C286 C289 1.403 . S
C287 C284 1.403 . S
C287 C288 1.524 . S
C287 C291 1.400 . S
C288 H273 0.960 . S
C288 H274 0.960 . S
C288 H275 0.960 . S
C288 C287 1.524 . S
C289 C286 1.403 . S
C289 C290 1.392 . S
C289 C293 1.495 . S
C290 C289 1.392 . S
C290 C291 1.385 . S
C290 C292 1.478 . S
C291 H285 0.930 . S
C291 C287 1.400 . S
C291 C290 1.385 . S
C292 C290 1.478 . S
C292 C294 1.381 . S
C292 C298 1.383 . S
C293 C289 1.495 . S
C293 H299 0.959 . S
C293 H300 0.961 . S
C293 H301 0.960 . S
C294 C292 1.381 . S
C294 C295 1.394 . S
C294 H302 0.930 . S
C295 C294 1.394 . S
C295 C296 1.383 . S
C295 H303 0.929 . S
C296 C295 1.383 . S
C296 C297 1.377 . S
C297 H281 0.930 . S
C297 C296 1.377 . S
C297 C298 1.379 . S
C298 H282 0.931 . S
C298 C292 1.383 . S
C298 C297 1.379 . S
H299 C293 0.959 . S
H300 C293 0.961 . S
H301 C293 0.960 . S
H302 C294 0.930 . S
H303 C295 0.929 . S
H304 C312 0.929 . S
H305 C314 0.930 . S
H306 C316 0.930 1_545 S
H307 C319 0.929 . S
H308 C322 0.930 . S
H309 C324 0.960 . S
H310 C324 0.960 . S
H311 C324 0.960 . S
C312 H304 0.929 . S
C312 C313 1.377 1_554 S
C312 C314 1.384 . S
C313 C312 1.377 1_556 S
C313 C319 1.390 . S
C314 H305 0.930 . S
C314 C312 1.384 . S
C314 C315 1.372 1_554 S
C315 C314 1.372 1_556 S
C315 C316 1.400 . S
C315 C320 1.490 . S
C316 H306 0.930 1_565 S
C316 C315 1.400 . S
C316 C319 1.386 . S
H317 C333 0.930 . S
H318 C334 0.931 . S
C319 H307 0.929 . S
C319 C313 1.390 . S
C319 C316 1.386 . S
C320 C315 1.490 . S
C320 C322 1.395 . S
C320 C323 1.403 1_566 S
H321 C327 0.930 . S
C322 H308 0.930 . S
C322 C320 1.395 . S
C322 C325 1.403 . S
C323 C320 1.403 1_544 S
C323 C324 1.524 . S
C323 C327 1.400 . S
C324 H309 0.960 . S
C324 H310 0.960 . S
C324 H311 0.960 . S
C324 C323 1.524 . S
C325 C322 1.403 . S
C325 C326 1.392 1_566 S
C325 C329 1.495 . S
C326 C325 1.392 1_544 S
C326 C327 1.385 . S
C326 C328 1.478 . S
C327 H321 0.930 . S
C327 C323 1.400 . S
C327 C326 1.385 . S
C328 C326 1.478 . S
C328 C330 1.381 . S
C328 C334 1.383 1_554 S
C329 C325 1.495 . S
C329 H335 0.959 . S
C329 H336 0.961 . S
C329 H337 0.960 . S
C330 C328 1.381 . S
C330 C331 1.394 . S
C330 H338 0.930 1_545 S
C331 C330 1.394 . S
C331 C332 1.383 . S
C331 H339 0.929 . S
C332 C331 1.383 . S
C332 C333 1.377 1_554 S
C333 H317 0.930 . S
C333 C332 1.377 1_556 S
C333 C334 1.379 . S
C334 H318 0.931 . S
C334 C328 1.383 1_556 S
C334 C333 1.379 . S
H335 C329 0.959 . S
H336 C329 0.961 . S
H337 C329 0.960 . S
H338 C330 0.930 1_565 S
H339 C331 0.929 . S
H340 C348 0.929 . S
H341 C350 0.930 . S
H342 C352 0.930 . S
H343 C355 0.929 . S
H344 C358 0.930 . S
H345 C360 0.960 . S
H346 C360 0.960 . S
H347 C360 0.960 . S
C348 H340 0.929 . S
C348 C349 1.387 . S
C348 C350 1.384 . S
C349 C348 1.387 . S
C349 C355 1.371 1_565 S
C350 H341 0.930 . S
C350 C348 1.384 . S
C350 C351 1.386 . S
C351 C350 1.386 . S
C351 C352 1.392 1_565 S
C351 C356 1.484 . S
C352 H342 0.930 . S
C352 C351 1.392 1_545 S
C352 C355 1.386 . S
H353 C369 0.930 . S
H354 C370 0.931 . S
C355 H343 0.929 . S
C355 C349 1.371 1_545 S
C355 C352 1.386 . S
C356 C351 1.484 . S
C356 C358 1.395 . S
C356 C359 1.403 1_565 S
H357 C363 0.930 . S
C358 H344 0.930 . S
C358 C356 1.395 . S
C358 C361 1.403 . S
C359 C356 1.403 1_545 S
C359 C360 1.524 . S
C359 C363 1.400 . S
C360 H345 0.960 . S
C360 H346 0.960 . S
C360 H347 0.960 . S
C360 C359 1.524 . S
C361 C358 1.403 . S
C361 C362 1.392 . S
C361 C365 1.495 . S
C362 C361 1.392 . S
C362 C363 1.385 1_565 S
C362 C364 1.478 . S
C363 H357 0.930 . S
C363 C359 1.400 . S
C363 C362 1.385 1_545 S
C364 C362 1.478 . S
C364 C366 1.381 . S
C364 C370 1.383 1_565 S
C365 C361 1.495 . S
C365 H371 0.959 . S
C365 H372 0.961 . S
C365 H373 0.960 . S
C366 C364 1.381 . S
C366 C367 1.394 . S
C366 H374 0.930 . S
C367 C366 1.394 . S
C367 C368 1.391 . S
C367 H375 0.929 . S
C368 C367 1.391 . S
C368 C369 1.375 1_565 S
C369 H353 0.930 . S
C369 C368 1.375 1_545 S
C369 C370 1.379 . S
C370 H354 0.931 . S
C370 C364 1.383 1_545 S
C370 C369 1.379 . S
H371 C365 0.959 . S
H372 C365 0.961 . S
H373 C365 0.960 . S
H374 C366 0.930 . S
H375 C367 0.929 . S
H376 C384 0.929 . S
H377 C386 0.930 . S
H378 C388 0.930 . S
H379 C391 0.929 . S
H380 C394 0.930 . S
H381 C396 0.960 . S
H382 C396 0.960 1_554 S
H383 C396 0.960 . S
C384 H376 0.929 . S
C384 C385 1.377 1_554 S
C384 C386 1.384 . S
C385 C384 1.377 1_556 S
C385 C391 1.390 . S
C386 H377 0.930 . S
C386 C384 1.384 . S
C386 C387 1.372 1_554 S
C387 C386 1.372 1_556 S
C387 C388 1.400 . S
C387 C392 1.490 . S
C388 H378 0.930 . S
C388 C387 1.400 . S
C388 C391 1.386 . S
H389 C405 0.930 . S
H390 C406 0.931 . S
C391 H379 0.929 . S
C391 C385 1.390 . S
C391 C388 1.386 . S
C392 C387 1.490 . S
C392 C394 1.394 1_556 S
C392 C395 1.403 . S
H393 C399 0.930 . S
C394 H380 0.930 . S
C394 C392 1.394 1_554 S
C394 C397 1.403 1_655 S
C395 C392 1.403 . S
C395 C396 1.524 . S
C395 C399 1.400 1_655 S
C396 H381 0.960 . S
C396 H382 0.960 1_556 S
C396 H383 0.960 . S
C396 C395 1.524 . S
C397 C394 1.403 1_455 S
C397 C398 1.392 . S
C397 C401 1.495 . S
C398 C397 1.392 . S
C398 C399 1.385 1_554 S
C398 C400 1.478 . S
C399 H393 0.930 . S
C399 C395 1.400 1_455 S
C399 C398 1.385 1_556 S
C400 C398 1.478 . S
C400 C402 1.381 . S
C400 C406 1.383 1_554 S
C401 C397 1.495 . S
C401 H407 0.959 . S
C401 H408 0.961 1_554 S
C401 H409 0.960 . S
C402 C400 1.381 . S
C402 C403 1.394 . S
C402 H410 0.930 . S
C403 C402 1.394 . S
C403 C404 1.383 . S
C403 H411 0.929 . S
C404 C403 1.383 . S
C404 C405 1.377 1_554 S
C405 H389 0.930 . S
C405 C404 1.377 1_556 S
C405 C406 1.379 . S
C406 H390 0.931 . S
C406 C400 1.383 1_556 S
C406 C405 1.379 . S
H407 C401 0.959 . S
H408 C401 0.961 1_556 S
H409 C401 0.960 . S
H410 C402 0.930 . S
H411 C403 0.929 . S
H412 C420 0.929 . S
H413 C422 0.930 . S
H414 C424 0.930 . S
H415 C427 0.929 . S
H416 C430 0.930 . S
H417 C432 0.960 1_655 S
H418 C432 0.960 . S
H419 C432 0.960 . S
C420 H412 0.929 . S
C420 C421 1.377 . S
C420 C422 1.384 . S
C421 C420 1.377 . S
C421 C427 1.390 . S
C422 H413 0.930 . S
C422 C420 1.384 . S
C422 C423 1.372 . S
C423 C422 1.372 . S
C423 C424 1.400 . S
C423 C428 1.490 . S
C424 H414 0.930 . S
C424 C423 1.400 . S
C424 C427 1.386 . S
H425 C441 0.930 . S
H426 C442 0.931 . S
C427 H415 0.929 . S
C427 C421 1.390 . S
C427 C424 1.386 . S
C428 C423 1.490 . S
C428 C430 1.395 . S
C428 C431 1.403 . S
H429 C435 0.930 . S
C430 H416 0.930 . S
C430 C428 1.395 . S
C430 C433 1.403 1_455 S
C431 C428 1.403 . S
C431 C432 1.524 . S
C431 C435 1.400 1_455 S
C432 H417 0.960 1_455 S
C432 H418 0.960 . S
C432 H419 0.960 . S
C432 C431 1.524 . S
C433 C430 1.403 1_655 S
C433 C434 1.392 . S
C433 C437 1.495 . S
C434 C433 1.392 . S
C434 C435 1.385 . S
C434 C436 1.478 . S
C435 H429 0.930 . S
C435 C431 1.400 1_655 S
C435 C434 1.385 . S
C436 C434 1.478 . S
C436 C438 1.381 . S
C436 C442 1.383 . S
C437 C433 1.495 . S
C437 H443 0.959 1_655 S
C437 H444 0.961 . S
C437 H445 0.960 . S
C438 C436 1.381 . S
C438 C439 1.394 . S
C438 H446 0.930 . S
C439 C438 1.394 . S
C439 C440 1.383 . S
C439 H447 0.929 . S
C440 C439 1.383 . S
C440 C441 1.377 . S
C441 H425 0.930 . S
C441 C440 1.377 . S
C441 C442 1.379 . S
C442 H426 0.931 . S
C442 C436 1.383 . S
C442 C441 1.379 . S
H443 C437 0.959 1_455 S
H444 C437 0.961 . S
H445 C437 0.960 . S
H446 C438 0.930 . S
H447 C439 0.929 . S
H448 C456 0.929 . S
H449 C458 0.930 . S
H450 C460 0.930 . S
H451 C463 0.929 . S
H452 C466 0.930 . S
H453 C468 0.960 . S
H454 C468 0.960 . S
H455 C468 0.960 . S
C456 H448 0.929 . S
C456 C457 1.377 . S
C456 C458 1.384 . S
C457 C456 1.377 . S
C457 C463 1.390 1_645 S
C458 H449 0.930 . S
C458 C456 1.384 . S
C458 C459 1.372 . S
C459 C458 1.372 . S
C459 C460 1.400 1_645 S
C459 C464 1.490 . S
C460 H450 0.930 . S
C460 C459 1.400 1_465 S
C460 C463 1.386 . S
H461 C477 0.930 . S
H462 C478 0.931 . S
C463 H451 0.929 . S
C463 C457 1.390 1_465 S
C463 C460 1.386 . S
C464 C459 1.490 . S
C464 C466 1.395 . S
C464 C467 1.403 1_645 S
H465 C471 0.930 . S
C466 H452 0.930 . S
C466 C464 1.395 . S
C466 C469 1.403 . S
C467 C464 1.403 1_465 S
C467 C468 1.524 . S
C467 C471 1.400 . S
C468 H453 0.960 . S
C468 H454 0.960 . S
C468 H455 0.960 . S
C468 C467 1.524 . S
C469 C466 1.403 . S
C469 C470 1.392 . S
C469 C473 1.495 . S
C470 C469 1.392 . S
C470 C471 1.385 1_645 S
C470 C472 1.478 . S
C471 H465 0.930 . S
C471 C467 1.400 . S
C471 C470 1.385 1_465 S
C472 C470 1.478 . S
C472 C474 1.381 . S
C472 C478 1.383 1_655 S
C473 C469 1.495 . S
C473 H479 0.959 . S
C473 H480 0.961 . S
C473 H481 0.960 . S
C474 C472 1.381 . S
C474 C475 1.394 . S
C474 H482 0.930 . S
C475 C474 1.394 . S
C475 C476 1.383 . S
C475 H483 0.929 . S
C476 C475 1.383 . S
C476 C477 1.377 1_655 S
C477 H461 0.930 . S
C477 C476 1.377 1_455 S
C477 C478 1.379 . S
C478 H462 0.931 . S
C478 C472 1.383 1_455 S
C478 C477 1.379 . S
H479 C473 0.959 . S
H480 C473 0.961 . S
H481 C473 0.960 . S
H482 C474 0.930 . S
H483 C475 0.929 . S
H484 C492 0.929 . S
H485 C494 0.930 . S
H486 C496 0.930 . S
H487 C499 0.929 . S
H488 C502 0.930 . S
H489 C504 0.960 . S
H490 C504 0.960 . S
H491 C504 0.960 . S
C492 H484 0.929 . S
C492 C493 1.386 . S
C492 C494 1.384 . S
C493 C492 1.386 . S
C493 C499 1.384 1_445 S
C494 H485 0.930 . S
C494 C492 1.384 . S
C494 C495 1.377 . S
C495 C494 1.377 . S
C495 C496 1.393 1_445 S
C495 C500 1.493 1_545 S
C496 H486 0.930 . S
C496 C495 1.393 1_665 S
C496 C499 1.386 . S
H497 C513 0.930 . S
H498 C514 0.931 . S
C499 H487 0.929 . S
C499 C493 1.384 1_665 S
C499 C496 1.386 . S
C500 C495 1.493 1_565 S
C500 C502 1.404 . S
C500 C503 1.392 1_465 S
H501 C507 0.930 . S
C502 H488 0.930 . S
C502 C500 1.404 . S
C502 C505 1.403 . S
C503 C500 1.392 1_645 S
C503 C504 1.524 . S
C503 C507 1.400 . S
C504 H489 0.960 . S
C504 H490 0.960 . S
C504 H491 0.960 . S
C504 C503 1.524 . S
C505 C502 1.403 . S
C505 C506 1.392 . S
C505 C509 1.495 . S
C506 C505 1.392 . S
C506 C507 1.385 1_465 S
C506 C508 1.478 . S
C507 H501 0.930 . S
C507 C503 1.400 . S
C507 C506 1.385 1_645 S
C508 C506 1.478 . S
C508 C510 1.381 1_565 S
C508 C514 1.383 1_455 S
C509 C505 1.495 . S
C509 H515 0.959 . S
C509 H516 0.961 . S
C509 H517 0.960 . S
C510 C508 1.381 1_545 S
C510 C511 1.394 . S
C510 H518 0.930 . S
C511 C510 1.394 . S
C511 C512 1.383 1_545 S
C511 H519 0.929 . S
C512 C511 1.383 1_565 S
C512 C513 1.377 1_455 S
C513 H497 0.930 . S
C513 C512 1.377 1_655 S
C513 C514 1.379 . S
C514 H498 0.931 . S
C514 C508 1.383 1_655 S
C514 C513 1.379 . S
H515 C509 0.959 . S
H516 C509 0.961 . S
H517 C509 0.960 . S
H518 C510 0.930 . S
H519 C511 0.929 . S
H520 C528 0.929 . S
H521 C530 0.930 . S
H522 C532 0.930 . S
H523 C535 0.929 . S
H524 C538 0.930 . S
H525 C540 0.960 . S
H526 C540 0.960 . S
H527 C540 0.960 . S
C528 H520 0.929 . S
C528 C529 1.377 . S
C528 C530 1.384 . S
C529 C528 1.377 . S
C529 C535 1.390 . S
C530 H521 0.930 . S
C530 C528 1.384 . S
C530 C531 1.372 . S
C531 C530 1.372 . S
C531 C532 1.400 . S
C531 C536 1.490 . S
C532 H522 0.930 . S
C532 C531 1.400 . S
C532 C535 1.386 . S
H533 C549 0.930 . S
H534 C550 0.931 . S
C535 H523 0.929 . S
C535 C529 1.390 . S
C535 C532 1.386 . S
C536 C531 1.490 . S
C536 C538 1.395 . S
C536 C539 1.403 . S
H537 C543 0.930 . S
C538 H524 0.930 . S
C538 C536 1.395 . S
C538 C541 1.403 . S
C539 C536 1.403 . S
C539 C540 1.524 . S
C539 C543 1.400 . S
C540 H525 0.960 . S
C540 H526 0.960 . S
C540 H527 0.960 . S
C540 C539 1.524 . S
C541 C538 1.403 . S
C541 C542 1.392 . S
C541 C545 1.495 . S
C542 C541 1.392 . S
C542 C543 1.385 . S
C542 C544 1.478 . S
C543 H537 0.930 . S
C543 C539 1.400 . S
C543 C542 1.385 . S
C544 C542 1.478 . S
C544 C546 1.381 . S
C544 C550 1.383 . S
C545 C541 1.495 . S
C545 H551 0.959 . S
C545 H552 0.961 . S
C545 H553 0.960 . S
C546 C544 1.381 . S
C546 C547 1.394 . S
C546 H554 0.930 . S
C547 C546 1.394 . S
C547 C548 1.383 . S
C547 H555 0.929 . S
C548 C547 1.383 . S
C548 C549 1.377 . S
C549 H533 0.930 . S
C549 C548 1.377 . S
C549 C550 1.379 . S
C550 H534 0.931 . S
C550 C544 1.383 . S
C550 C549 1.379 . S
H551 C545 0.959 . S
H552 C545 0.961 . S
H553 C545 0.960 . S
H554 C546 0.930 . S
H555 C547 0.929 . S
H556 C564 0.929 . S
H557 C566 0.930 . S
H558 C568 0.930 . S
H559 C571 0.929 . S
H560 C574 0.930 . S
H561 C576 0.960 . S
H562 C576 0.960 . S
H563 C576 0.960 . S
C564 H556 0.929 . S
C564 C565 1.377 . S
C564 C566 1.384 . S
C565 C564 1.377 . S
C565 C571 1.390 . S
C566 H557 0.930 . S
C566 C564 1.384 . S
C566 C567 1.372 . S
C567 C566 1.372 . S
C567 C568 1.400 . S
C567 C572 1.490 . S
C568 H558 0.930 . S
C568 C567 1.400 . S
C568 C571 1.386 . S
H569 C585 0.930 . S
H570 C586 0.931 . S
C571 H559 0.929 . S
C571 C565 1.390 . S
C571 C568 1.386 . S
C572 C567 1.490 . S
C572 C574 1.395 . S
C572 C575 1.403 . S
H573 C579 0.930 . S
C574 H560 0.930 . S
C574 C572 1.395 . S
C574 C577 1.403 . S
C575 C572 1.403 . S
C575 C576 1.524 . S
C575 C579 1.400 . S
C576 H561 0.960 . S
C576 H562 0.960 . S
C576 H563 0.960 . S
C576 C575 1.524 . S
C577 C574 1.403 . S
C577 C578 1.392 . S
C577 C581 1.495 . S
C578 C577 1.392 . S
C578 C579 1.385 . S
C578 C580 1.478 . S
C579 H573 0.930 . S
C579 C575 1.400 . S
C579 C578 1.385 . S
C580 C578 1.478 . S
C580 C582 1.381 . S
C580 C586 1.383 . S
C581 C577 1.495 . S
C581 H587 0.959 . S
C581 H588 0.961 . S
C581 H589 0.960 . S
C582 C580 1.381 . S
C582 C583 1.394 . S
C582 H590 0.930 . S
C583 C582 1.394 . S
C583 C584 1.383 . S
C583 H591 0.929 . S
C584 C583 1.383 . S
C584 C585 1.377 . S
C585 H569 0.930 . S
C585 C584 1.377 . S
C585 C586 1.379 . S
C586 H570 0.931 . S
C586 C580 1.383 . S
C586 C585 1.379 . S
H587 C581 0.959 . S
H588 C581 0.961 . S
H589 C581 0.960 . S
H590 C582 0.930 . S
H591 C583 0.929 . S
C169 C111 3.498 1_556 S
C188 C12 3.489 . S
C205 C92 3.499 1_556 S
C224 C31 3.490 . S
C241 C69 0.164 . S
C260 C128 0.226 . S
C277 C48 0.132 . S
C296 C149 0.166 . S
C313 C29 1.024 . S
C332 C8 0.996 . S
C349 C52 4.832 . S
C368 C71 4.812 1_565 S
C385 C109 1.020 . S
C404 C88 0.998 . S
C421 C151 4.822 . S
C440 C132 4.817 . S
C457 C57 1.461 1_545 S
C476 C2 1.457 1_655 S
C493 C17 1.462 1_445 S
C512 C42 1.482 1_565 S
C529 C137 1.468 . S
C548 C82 1.454 . S
C565 C122 1.468 . S
C584 C97 1.477 . S
