# Generated by pormake.
# Topology wjd, (6)-cn, num edge types: 1
# Building blocks:
#     Node 0, Type 0, BuildingBlock: KUMJIN_clean_sbu_0, # of connection points: 6
#     Node 1, Type 0, BuildingBlock: KUMJIN_clean_sbu_0, # of connection points: 6
#     Node 2, Type 0, BuildingBlock: KUMJIN_clean_sbu_0, # of connection points: 6
#     Node 3, Type 0, BuildingBlock: KUMJIN_clean_sbu_0, # of connection points: 6
#     Node 4, Type 0, BuildingBlock: KUMJIN_clean_sbu_0, # of connection points: 6
#     Node 5, Type 0, BuildingBlock: KUMJIN_clean_sbu_0, # of connection points: 6
#     Node 6, Type 0, BuildingBlock: KUMJIN_clean_sbu_0, # of connection points: 6
#     Node 7, Type 0, BuildingBlock: KUMJIN_clean_sbu_0, # of connection points: 6
#     Node 8, Type 0, BuildingBlock: KUMJIN_clean_sbu_0, # of connection points: 6
#     Node 9, Type 0, BuildingBlock: KUMJIN_clean_sbu_0, # of connection points: 6
#     Node 10, Type 0, BuildingBlock: KUMJIN_clean_sbu_0, # of connection points: 6
#     Node 11, Type 0, BuildingBlock: KUMJIN_clean_sbu_0, # of connection points: 6
#     Edge 12, Type (0, 0), BuildingBlock: XUDNAN_clean_linker_2, # of connection points: 2
#     Edge 13, Type (0, 0), BuildingBlock: XUDNAN_clean_linker_2, # of connection points: 2
#     Edge 14, Type (0, 0), BuildingBlock: XUDNAN_clean_linker_2, # of connection points: 2
#     Edge 15, Type (0, 0), BuildingBlock: XUDNAN_clean_linker_2, # of connection points: 2
#     Edge 16, Type (0, 0), BuildingBlock: XUDNAN_clean_linker_2, # of connection points: 2
#     Edge 17, Type (0, 0), BuildingBlock: XUDNAN_clean_linker_2, # of connection points: 2
#     Edge 18, Type (0, 0), BuildingBlock: XUDNAN_clean_linker_2, # of connection points: 2
#     Edge 19, Type (0, 0), BuildingBlock: XUDNAN_clean_linker_2, # of connection points: 2
#     Edge 20, Type (0, 0), BuildingBlock: XUDNAN_clean_linker_2, # of connection points: 2
#     Edge 21, Type (0, 0), BuildingBlock: XUDNAN_clean_linker_2, # of connection points: 2
#     Edge 22, Type (0, 0), BuildingBlock: XUDNAN_clean_linker_2, # of connection points: 2
#     Edge 23, Type (0, 0), BuildingBlock: XUDNAN_clean_linker_2, # of connection points: 2
#     Edge 24, Type (0, 0), BuildingBlock: XUDNAN_clean_linker_2, # of connection points: 2
#     Edge 25, Type (0, 0), BuildingBlock: XUDNAN_clean_linker_2, # of connection points: 2
#     Edge 26, Type (0, 0), BuildingBlock: XUDNAN_clean_linker_2, # of connection points: 2
#     Edge 27, Type (0, 0), BuildingBlock: XUDNAN_clean_linker_2, # of connection points: 2
#     Edge 28, Type (0, 0), BuildingBlock: XUDNAN_clean_linker_2, # of connection points: 2
#     Edge 29, Type (0, 0), BuildingBlock: XUDNAN_clean_linker_2, # of connection points: 2
#     Edge 30, Type (0, 0), BuildingBlock: XUDNAN_clean_linker_2, # of connection points: 2
#     Edge 31, Type (0, 0), BuildingBlock: XUDNAN_clean_linker_2, # of connection points: 2
#     Edge 32, Type (0, 0), BuildingBlock: XUDNAN_clean_linker_2, # of connection points: 2
#     Edge 33, Type (0, 0), BuildingBlock: XUDNAN_clean_linker_2, # of connection points: 2
#     Edge 34, Type (0, 0), BuildingBlock: XUDNAN_clean_linker_2, # of connection points: 2
#     Edge 35, Type (0, 0), BuildingBlock: XUDNAN_clean_linker_2, # of connection points: 2
#     Edge 36, Type (0, 0), BuildingBlock: XUDNAN_clean_linker_2, # of connection points: 2
#     Edge 37, Type (0, 0), BuildingBlock: XUDNAN_clean_linker_2, # of connection points: 2
#     Edge 38, Type (0, 0), BuildingBlock: XUDNAN_clean_linker_2, # of connection points: 2
#     Edge 39, Type (0, 0), BuildingBlock: XUDNAN_clean_linker_2, # of connection points: 2
#     Edge 40, Type (0, 0), BuildingBlock: XUDNAN_clean_linker_2, # of connection points: 2
#     Edge 41, Type (0, 0), BuildingBlock: XUDNAN_clean_linker_2, # of connection points: 2
#     Edge 42, Type (0, 0), BuildingBlock: XUDNAN_clean_linker_2, # of connection points: 2
#     Edge 43, Type (0, 0), BuildingBlock: XUDNAN_clean_linker_2, # of connection points: 2
#     Edge 44, Type (0, 0), BuildingBlock: XUDNAN_clean_linker_2, # of connection points: 2
#     Edge 45, Type (0, 0), BuildingBlock: XUDNAN_clean_linker_2, # of connection points: 2
#     Edge 46, Type (0, 0), BuildingBlock: XUDNAN_clean_linker_2, # of connection points: 2
#     Edge 47, Type (0, 0), BuildingBlock: XUDNAN_clean_linker_2, # of connection points: 2
# Relax obj value: 0.097
# Max RMSD: 0.214
# Mean RMSD: 0.214
data_MOF--net-wjd--node1-KUMJIN_clean_sbu_0--edge1-XUDNAN_clean_linker_2
_symmetry_space_group_name_H-M    P1
_symmetry_Int_Tables_number       1
_symmetry_cell_setting            triclinic
loop_
_symmetry_equiv_pos_as_xyz
'x, y, z'
_cell_length_a     38.451172
_cell_length_b     38.53268
_cell_length_c     55.079963
_cell_angle_alpha  90.015387
_cell_angle_beta   90.010553
_cell_angle_gamma 119.70202
loop_
_atom_site_label
_atom_site_type_symbol
_atom_site_fract_x
_atom_site_fract_y
_atom_site_fract_z
_atom_type_partial_charge
Eu0 Eu 0.38678 0.19311 0.10616 0.0
C1 C 0.40221 0.06459 0.14191 0.0
C2 C 0.40564 0.02356 0.10974 0.0
C3 C 0.4521 0.04311 0.1435 0.0
C4 C 0.38884 0.0457 0.1198 0.0
C5 C 0.43332 0.06248 0.15433 0.0
C6 C 0.43817 0.02353 0.12127 0.0
C7 C 0.42247 0.09521 0.18833 0.0
N8 N 0.38349 0.08319 0.1519 0.0
C9 C 0.39171 0.09625 0.17542 0.0
C10 C 0.44401 0.07905 0.17754 0.0
Eu11 Eu 0.3353 0.08875 0.12711 0.0
N12 N 0.35735 0.04628 0.10909 0.0
C13 C 0.33769 0.02043 0.09033 0.0
C14 C 0.38799 1.00042 0.08907 0.0
C15 C 0.35308 0.99786 0.07982 0.0
H16 H 0.37425 0.10657 0.18492 0.0
H17 H 0.33776 0.97814 0.06477 0.0
H18 H 0.45176 1.00718 0.11362 0.0
H19 H 0.42914 0.10639 0.20676 0.0
H20 H 0.31034 0.01773 0.083 0.0
H21 H 0.30881 0.25894 0.15345 0.0
H22 H 0.39983 0.98284 0.08091 0.0
H23 H 0.41626 0.20697 0.0479 0.0
H24 H 0.35028 0.2269 0.14965 0.0
H25 H 0.39952 0.22787 0.00915 0.0
H26 H 0.47648 0.04188 0.15257 0.0
H27 H 0.28163 0.27386 0.1167 0.0
H28 H 0.27962 0.27645 0.07127 0.0
H29 H 0.46772 0.0781 0.18763 0.0
H30 H 0.30312 0.26652 0.03174 0.0
N31 N 0.3457 0.22235 0.11116 0.0
C32 C 0.3385 0.23298 0.13345 0.0
C33 C 0.29968 0.25956 0.11492 0.0
C34 C 0.30917 0.25078 0.09205 0.0
C35 C 0.3151 0.25134 0.13569 0.0
C36 C 0.3327 0.23205 0.09073 0.0
H37 H 0.34825 0.24885 0.00839 0.0
N38 N 0.37271 0.2132 0.06831 0.0
C39 C 0.38406 0.2274 0.02567 0.0
C40 C 0.34628 0.22688 0.06853 0.0
C41 C 0.3935 0.21567 0.04757 0.0
C42 C 0.35496 0.23902 0.0253 0.0
C43 C 0.33663 0.24014 0.04701 0.0
O44 O 0.44805 0.23694 0.09484 0.0
O45 O 0.39568 0.1432 0.12074 0.0
O46 O 0.34024 0.12768 0.15936 0.0
O47 O 0.38921 0.19178 0.14786 0.0
O48 O 0.42563 0.17139 0.089 0.0
O49 O 0.42231 0.24989 0.1255 0.0
O50 O 0.29768 0.05697 0.15854 0.0
O51 O 0.33012 0.14387 0.12171 0.0
O52 O 0.35095 0.15202 0.07414 0.0
O53 O 0.3422 0.0903 0.08616 0.0
O54 O 0.28413 0.09124 0.10788 0.0
O55 O 0.28215 0.02957 0.12338 0.0
C56 C 0.42077 0.14503 0.10505 0.0
C57 C 0.46829 0.30531 0.10202 0.0
C58 C 0.52019 0.37647 0.10016 0.0
C59 C 0.50624 0.3372 0.10919 0.0
C60 C 0.49526 0.38306 0.08437 0.0
C61 C 0.44452 0.3134 0.08633 0.0
C62 C 0.45786 0.35185 0.07759 0.0
C63 C 0.36652 0.16534 0.16456 0.0
C64 C 0.45285 0.26373 0.11092 0.0
C65 C 0.31113 0.25646 0.04809 0.0
C66 C 0.29775 0.26212 0.0706 0.0
C67 C 0.2964 0.12861 0.11135 0.0
C68 C 0.22827 0.01897 0.14838 0.0
C69 C 0.19558 0.97965 0.14595 0.0
C70 C 0.15576 0.97265 0.14564 0.0
C71 C 0.14925 1.00531 0.14773 0.0
C72 C 0.22049 0.05066 0.15132 0.0
C73 C 0.18137 0.04393 0.15075 0.0
C74 C 0.34204 0.11467 0.06947 0.0
C75 C 0.27033 0.02777 0.14564 0.0
H76 H 0.5249 0.33141 0.12138 0.0
H77 H 0.5045 0.41268 0.07744 0.0
H78 H 0.41544 0.29002 0.08085 0.0
H79 H 0.439 0.35752 0.06553 0.0
H80 H 0.20108 0.9548 0.14391 0.0
H81 H 0.11909 1.00077 0.14769 0.0
H82 H 0.24489 0.08078 0.15372 0.0
H83 H 0.17592 0.0688 0.1527 0.0
Eu84 Eu 0.79714 0.71076 0.37585 0.0
C85 C 0.93316 0.71196 0.43003 0.0
C86 C 0.98803 0.73469 0.4014 0.0
C87 C 1.00205 0.7536 0.44376 0.0
C88 C 0.94641 0.71373 0.40635 0.0
C89 C 0.96115 0.73041 0.44906 0.0
C90 C 1.01546 0.75572 0.41998 0.0
C91 C 0.90756 0.69561 0.47774 0.0
N92 N 0.89351 0.68909 0.43489 0.0
C93 C 0.88113 0.67788 0.45836 0.0
C94 C 0.94756 0.72303 0.47307 0.0
Eu95 Eu 0.85004 0.66134 0.40096 0.0
N96 N 0.91919 0.69309 0.38853 0.0
C97 C 0.93278 0.68883 0.36625 0.0
C98 C 1.00121 0.73298 0.3781 0.0
C99 C 0.97352 0.70927 0.36063 0.0
H100 H 0.8503 0.65608 0.46225 0.0
H101 H 0.98359 0.70613 0.34284 0.0
H102 H 0.04731 0.77256 0.41627 0.0
H103 H 0.89706 0.68794 0.49625 0.0
H104 H 0.91336 0.66897 0.35248 0.0
H105 H 0.65207 0.6156 0.42099 0.0
H106 H 0.03283 0.74852 0.3737 0.0
H107 H 0.81148 0.74164 0.31751 0.0
H108 H 0.72314 0.66315 0.41928 0.0
H109 H 0.77376 0.72518 0.27906 0.0
H110 H 1.02375 0.76853 0.4581 0.0
H111 H 0.6134 0.58787 0.3833 0.0
H112 H 0.61105 0.58801 0.33809 0.0
H113 H 0.96812 0.73654 0.48812 0.0
H114 H 0.64436 0.61706 0.29937 0.0
N115 N 0.72694 0.66477 0.38043 0.0
C116 C 0.7076 0.65302 0.40233 0.0
C117 C 0.64504 0.60956 0.38226 0.0
C118 C 0.66415 0.62289 0.35989 0.0
C119 C 0.6667 0.6253 0.40354 0.0
C120 C 0.70556 0.65112 0.35948 0.0
H121 H 0.70448 0.66885 0.27733 0.0
N122 N 0.76348 0.69605 0.33777 0.0
C123 C 0.75988 0.708 0.29524 0.0
C124 C 0.72436 0.66718 0.33758 0.0
C125 C 0.78086 0.71769 0.31717 0.0
C126 C 0.7207 0.67631 0.29436 0.0
C127 C 0.70216 0.65598 0.31572 0.0
O128 O 0.82104 0.77026 0.39219 0.0
O129 O 0.85593 0.7196 0.38993 0.0
O130 O 0.83258 0.69146 0.43185 0.0
O131 O 0.78875 0.71095 0.41596 0.0
O132 O 0.85728 0.7476 0.35735 0.0
O133 O 0.77313 0.75023 0.36661 0.0
O134 O 0.82032 0.60856 0.42452 0.0
O135 O 0.78892 0.65481 0.39422 0.0
O136 O 0.81518 0.6861 0.34383 0.0
O137 O 0.85132 0.65684 0.35946 0.0
O138 O 0.80066 0.61205 0.37937 0.0
O139 O 0.8727 0.61944 0.40402 0.0
C140 C 0.87874 0.74277 0.37357 0.0
C141 C 0.82022 0.81934 0.36702 0.0
C142 C 0.83987 0.89025 0.36462 0.0
C143 C 0.81947 0.85292 0.37657 0.0
C144 C 0.86104 0.89329 0.34315 0.0
C145 C 0.84188 0.82352 0.3457 0.0
C146 C 0.862 0.86017 0.33383 0.0
C147 C 0.80793 0.70633 0.4343 0.0
C148 C 0.79903 0.78022 0.37943 0.0
C149 C 0.66166 0.62636 0.31601 0.0
C150 C 0.6427 0.60987 0.33806 0.0
C151 C 0.77349 0.62177 0.38286 0.0
C152 C 0.82495 0.55154 0.41115 0.0
C153 C 0.84764 0.53168 0.41143 0.0
C154 C 0.83055 0.49146 0.40366 0.0
C155 C 0.79048 0.47151 0.39581 0.0
C156 C 0.78476 0.53027 0.40371 0.0
C157 C 0.76782 0.49071 0.396 0.0
C158 C 0.83636 0.66785 0.34119 0.0
C159 C 0.8437 0.5945 0.41799 0.0
H160 H 0.80295 0.84994 0.39311 0.0
H161 H 0.87771 0.92159 0.33379 0.0
H162 H 0.84356 0.7986 0.33823 0.0
H163 H 0.87872 0.86301 0.31743 0.0
H164 H 0.87859 0.5476 0.41734 0.0
H165 H 0.77631 0.4406 0.39002 0.0
H166 H 0.76631 0.5441 0.40377 0.0
H167 H 0.73684 0.47478 0.39021 0.0
Eu168 Eu 0.85004 0.19823 0.11223 0.0
C169 C 0.99209 0.31624 0.17134 0.0
C170 C 1.00957 0.3772 0.14945 0.0
C171 C 1.02131 0.37959 0.19293 0.0
C172 C 0.99354 0.3354 0.14989 0.0
C173 C 1.0074 0.33831 0.19295 0.0
C174 C 1.02219 0.39898 0.17122 0.0
C175 C 0.99759 0.27785 0.21235 0.0
N176 N 0.97838 0.27638 0.17071 0.0
C177 C 0.98225 0.2572 0.19057 0.0
C178 C 1.00978 0.3185 0.21364 0.0
Eu179 Eu 0.9532 0.24339 0.13307 0.0
N180 N 0.98197 0.31357 0.12915 0.0
C181 C 0.98861 0.33206 0.10715 0.0
C182 C 1.01399 0.39601 0.12704 0.0
C183 C 1.00428 0.37342 0.10575 0.0
H184 H 0.97248 0.22564 0.18966 0.0
H185 H 1.00857 0.38777 0.08826 0.0
H186 H 0.03411 0.43103 0.1713 0.0
H187 H 0.99996 0.2624 0.22812 0.0
H188 H 0.98116 0.31501 0.09062 0.0
H189 H 0.72658 0.10402 0.17351 0.0
H190 H 0.02611 0.42803 0.12591 0.0
H191 H 0.87616 0.17105 0.05948 0.0
H192 H 0.78002 0.16703 0.15637 0.0
H193 H 0.85955 0.11066 0.03665 0.0
H194 H 0.03261 0.39697 0.20943 0.0
H195 H 0.71206 0.03948 0.15548 0.0
H196 H 0.72404 1.00291 0.12199 0.0
H197 H 1.0217 0.33445 0.23053 0.0
H198 H 0.75962 1.00479 0.08459 0.0
N199 N 0.79903 0.13853 0.13058 0.0
C200 C 0.77503 0.13897 0.14887 0.0
C201 C 0.73627 0.06705 0.14825 0.0
C202 C 0.75801 0.06687 0.12796 0.0
C203 C 0.74438 0.10337 0.15849 0.0
C204 C 0.78948 0.1036 0.1193 0.0
H205 H 0.80925 0.04466 0.05247 0.0
N206 N 0.8378 0.14073 0.0894 0.0
C207 C 0.84532 0.10848 0.05397 0.0
C208 C 0.8091 0.10475 0.098 0.0
C209 C 0.8551 0.14297 0.06733 0.0
C210 C 0.81688 0.07133 0.06292 0.0
C211 C 0.79806 0.06909 0.08502 0.0
O212 O 0.81802 0.1984 0.07937 0.0
O213 O 0.90639 0.25709 0.11816 0.0
O214 O 0.91512 0.23815 0.1658 0.0
O215 O 0.85197 0.18832 0.15344 0.0
O216 O 0.85419 0.24957 0.13406 0.0
O217 O 0.79827 0.20773 0.11402 0.0
O218 O 1.00982 0.26272 0.11381 0.0
O219 O 0.90122 0.18745 0.11789 0.0
O220 O 0.89228 0.23167 0.07983 0.0
O221 O 0.95397 0.24031 0.09232 0.0
O222 O 0.92863 0.18124 0.14888 0.0
O223 O 0.99439 0.22245 0.14398 0.0
C224 C 0.89134 0.27485 0.13001 0.0
C225 C 0.74736 0.16887 0.08556 0.0
C226 C 0.67449 0.14287 0.08828 0.0
C227 C 0.71442 0.17301 0.09334 0.0
C228 C 0.66836 0.10844 0.07575 0.0
C229 C 0.73977 0.1341 0.07293 0.0
C230 C 0.70066 0.1042 0.0682 0.0
C231 C 0.87789 0.21047 0.17054 0.0
C232 C 0.7894 0.19997 0.09118 0.0
C233 C 0.76811 0.03241 0.09419 0.0
C234 C 0.74798 0.03133 0.11553 0.0
C235 C 0.90118 0.16249 0.13288 0.0
C236 C 0.02868 0.21281 0.11179 0.0
C237 C 0.06424 0.21175 0.1162 0.0
C238 C 0.07204 0.18394 0.10399 0.0
C239 C 0.04361 0.15782 0.08705 0.0
C240 C 1.00108 0.18635 0.09484 0.0
C241 C 1.00868 0.15929 0.08245 0.0
C242 C 0.92981 0.24007 0.07537 0.0
C243 C 1.01896 0.2394 0.12603 0.0
H244 H 0.71993 0.19973 0.10303 0.0
H245 H 0.63838 0.08431 0.07202 0.0
H246 H 0.76406 0.12976 0.06676 0.0
H247 H 0.69532 0.07744 0.05865 0.0
H248 H 0.08549 0.23241 0.12925 0.0
H249 H 0.04765 0.13534 0.07772 0.0
H250 H 0.97328 0.18609 0.09148 0.0
H251 H 0.98697 0.13878 0.06954 0.0
Eu252 Eu 0.32613 0.09049 0.38094 0.0
C253 C 0.35377 0.23792 0.43709 0.0
C254 C 0.32077 0.26506 0.41232 0.0
C255 C 0.32671 0.27676 0.45584 0.0
C256 C 0.34034 0.24236 0.41451 0.0
C257 C 0.34766 0.25572 0.45789 0.0
C258 C 0.31381 0.28187 0.43308 0.0
C259 C 0.38936 0.23683 0.48064 0.0
N260 N 0.37588 0.21935 0.43843 0.0
C261 C 0.3956 0.2207 0.45947 0.0
C262 C 0.36477 0.25389 0.47994 0.0
Eu263 Eu 0.38553 0.1933 0.4016 0.0
N264 N 0.34906 0.2273 0.39451 0.0
C265 C 0.34086 0.23587 0.37184 0.0
C266 C 0.31027 0.27175 0.38921 0.0
C267 C 0.32085 0.25755 0.36889 0.0
H268 H 0.41541 0.20832 0.45996 0.0
H269 H 0.31366 0.26333 0.35088 0.0
H270 H 0.29926 0.29972 0.43167 0.0
H271 H 0.40399 0.23661 0.49738 0.0
H272 H 0.34879 0.22563 0.35577 0.0
H273 H 0.3671 1.00735 0.44606 0.0
H274 H 0.295 0.28877 0.38683 0.0
H275 H 0.33295 0.08351 0.31914 0.0
H276 H 0.32509 0.03292 0.43013 0.0
H277 H 0.37822 0.07856 0.28991 0.0
H278 H 0.32175 0.29059 0.4716 0.0
H279 H 0.42161 1.00977 0.42119 0.0
H280 H 0.45664 0.02437 0.38112 0.0
H281 H 0.36061 0.2671 0.49627 0.0
H282 H 0.46006 0.04427 0.33841 0.0
N283 N 0.35788 0.05486 0.39684 0.0
C284 C 0.34977 0.03645 0.4191 0.0
C285 C 0.40367 0.02202 0.41409 0.0
C286 C 0.40927 0.037 0.39047 0.0
C287 C 0.37308 0.0208 0.42821 0.0
C288 C 0.3852 0.05284 0.38212 0.0
H289 H 0.43053 0.06385 0.30413 0.0
N290 N 0.36217 0.07709 0.3504 0.0
C291 C 0.38191 0.07548 0.30913 0.0
C292 C 0.38761 0.06462 0.35822 0.0
C293 C 0.3568 0.07924 0.32597 0.0
C294 C 0.41128 0.06708 0.31721 0.0
C295 C 0.41351 0.06013 0.34192 0.0
O296 O 0.27895 0.05911 0.35384 0.0
O297 O 0.32698 0.14949 0.38524 0.0
O298 O 0.35338 0.15396 0.43522 0.0
O299 O 0.32033 0.08817 0.42125 0.0
O300 O 0.27775 0.09998 0.39856 0.0
O301 O 0.27599 0.03053 0.38819 0.0
O302 O 0.43049 0.25474 0.41139 0.0
O303 O 0.38938 0.13937 0.39007 0.0
O304 O 0.33645 0.12997 0.34818 0.0
O305 O 0.38679 0.19321 0.35981 0.0
O306 O 0.41641 0.16625 0.42266 0.0
O307 O 0.44443 0.22472 0.38386 0.0
C308 C 0.29323 0.13781 0.39513 0.0
C309 C 0.23378 0.9886 0.3565 0.0
C310 C 0.16843 0.92749 0.35307 0.0
C311 C 0.19352 0.96513 0.36372 0.0
C312 C 0.18463 0.91381 0.335 0.0
C313 C 0.24928 0.97431 0.33856 0.0
C314 C 0.22471 0.93703 0.32789 0.0
C315 C 0.33164 0.11473 0.43869 0.0
C316 C 0.25815 0.02821 0.3677 0.0
C317 C 0.43942 0.04708 0.35056 0.0
C318 C 0.43738 0.03563 0.37484 0.0
C319 C 0.41189 0.13926 0.40709 0.0
C320 C 0.47219 0.29489 0.37979 0.0
C321 C 0.50775 0.32998 0.3864 0.0
C322 C 0.52254 0.36504 0.3721 0.0
C323 C 0.50103 0.36413 0.3512 0.0
C324 C 0.45128 0.29532 0.35904 0.0
C325 C 0.46577 0.32959 0.34479 0.0
C326 C 0.36456 0.16682 0.34295 0.0
C327 C 0.45613 0.25843 0.39498 0.0
H328 H 0.18158 0.97665 0.37738 0.0
H329 H 0.16653 0.88486 0.3266 0.0
H330 H 0.28017 0.99197 0.33279 0.0
H331 H 0.23678 0.92602 0.31405 0.0
H332 H 0.52382 0.32988 0.40254 0.0
H333 H 0.51094 0.39051 0.34003 0.0
H334 H 0.42354 0.26927 0.35389 0.0
H335 H 0.44933 0.32951 0.32882 0.0
Eu336 Eu 0.85881 0.67147 0.10512 0.0
C337 C 0.72996 0.67729 0.174 0.0
C338 C 0.66769 0.62988 0.15479 0.0
C339 C 0.66952 0.64137 0.19826 0.0
C340 C 0.70906 0.65757 0.15345 0.0
C341 C 0.71013 0.67056 0.1965 0.0
C342 C 0.64835 0.62091 0.17743 0.0
C343 C 0.77052 0.72551 0.21298 0.0
N344 N 0.769 0.70548 0.17158 0.0
C345 C 0.78916 0.73041 0.19045 0.0
C346 C 0.73117 0.69478 0.21622 0.0
Eu347 Eu 0.79873 0.71283 0.13291 0.0
N348 N 0.7285 0.66782 0.13186 0.0
C349 C 0.70744 0.65415 0.11068 0.0
C350 C 0.64668 0.61338 0.13324 0.0
C351 C 0.66651 0.6262 0.11106 0.0
H352 H 0.81963 0.75419 0.18813 0.0
H353 H 0.65035 0.61451 0.09422 0.0
H354 H 0.61672 0.59939 0.17887 0.0
H355 H 0.78627 0.7457 0.22777 0.0
H356 H 0.72214 0.66352 0.09335 0.0
H357 H 1.01266 0.74529 0.13865 0.0
H358 H 0.61495 0.59187 0.13348 0.0
H359 H 0.82749 0.64669 0.04736 0.0
H360 H 0.93905 0.70446 0.1414 0.0
H361 H 0.85482 0.66533 0.00584 0.0
H362 H 0.6539 0.6354 0.21546 0.0
H363 H 0.04474 0.77425 0.09928 0.0
H364 H 0.03754 0.77985 0.05433 0.0
H365 H 0.71684 0.6911 0.23369 0.0
H366 H 0.99449 0.75791 0.01808 0.0
N367 N 0.92945 0.71174 0.10419 0.0
C368 C 0.95273 0.71731 0.12414 0.0
C369 C 1.01241 0.75656 0.10039 0.0
C370 C 0.98857 0.74838 0.07966 0.0
C371 C 0.99444 0.74022 0.12264 0.0
C372 C 0.94663 0.72486 0.0821 0.0
H373 H 0.92646 0.71458 0.9998 0.0
N374 N 0.8828 0.68614 0.0646 0.0
C375 C 0.87416 0.67874 0.02138 0.0
C376 C 0.92255 0.71178 0.06167 0.0
C377 C 0.85882 0.66814 0.0449 0.0
C378 C 0.91458 0.70667 0.01805 0.0
C379 C 0.93953 0.72292 0.03829 0.0
O380 O 0.88627 0.63932 0.12181 0.0
O381 O 0.79937 0.6573 0.12058 0.0
O382 O 0.80922 0.67998 0.16331 0.0
O383 O 0.86106 0.67064 0.14732 0.0
O384 O 0.7984 0.62706 0.08945 0.0
O385 O 0.84531 0.61229 0.09193 0.0
O386 O 0.82405 0.77753 0.13666 0.0
O387 O 0.85923 0.7248 0.12069 0.0
O388 O 0.85385 0.71564 0.07899 0.0
O389 O 0.79285 0.7069 0.09185 0.0
O390 O 0.85779 0.75571 0.15114 0.0
O391 O 0.77029 0.74387 0.11576 0.0
C392 C 0.7764 0.63036 0.10588 0.0
C393 C 0.85091 0.56869 0.12028 0.0
C394 C 0.85267 0.50683 0.12908 0.0
C395 C 0.86797 0.54387 0.11675 0.0
C396 C 0.8199 0.49538 0.14483 0.0
C397 C 0.81837 0.55631 0.1361 0.0
C398 C 0.80302 0.51988 0.14826 0.0
C399 C 0.83787 0.67047 0.16552 0.0
C400 C 0.86782 0.6079 0.10798 0.0
C401 C 0.98094 0.7487 0.03587 0.0
C402 C 1.00545 0.76126 0.05652 0.0
C403 C 0.88089 0.75024 0.13658 0.0
C404 C 0.78017 0.80357 0.13492 0.0
C405 C 0.79967 0.84488 0.12997 0.0
C406 C 0.78578 0.86954 0.14009 0.0
C407 C 0.75195 0.85176 0.15533 0.0
C408 C 0.74678 0.78679 0.15031 0.0
C409 C 0.73279 0.81083 0.1604 0.0
C410 C 0.82163 0.71939 0.07554 0.0
C411 C 0.79591 0.77884 0.12443 0.0
H412 H 0.89339 0.55368 0.10468 0.0
H413 H 0.80666 0.46699 0.15424 0.0
H414 H 0.80496 0.57494 0.13908 0.0
H415 H 0.77777 0.5105 0.16039 0.0
H416 H 0.82602 0.85777 0.1185 0.0
H417 H 0.73978 0.8693 0.16309 0.0
H418 H 0.73159 0.75518 0.15453 0.0
H419 H 0.70684 0.79765 0.17217 0.0
Eu420 Eu 0.95079 0.24719 0.38806 0.0
C421 C 0.79276 0.09594 0.40474 0.0
C422 C 0.75066 0.07551 0.36894 0.0
C423 C 0.74864 0.02525 0.39637 0.0
C424 C 0.78033 0.10573 0.38361 0.0
C425 C 0.77616 0.05552 0.4117 0.0
C426 C 0.73583 0.03524 0.37503 0.0
C427 C 0.81088 0.07791 0.4499 0.0
N428 N 0.81859 0.12596 0.41947 0.0
C429 C 0.82652 0.11747 0.44224 0.0
C430 C 0.7862 0.04675 0.43438 0.0
Eu431 Eu 0.8436 0.19254 0.40537 0.0
N432 N 0.79432 0.14488 0.37864 0.0
C433 C 0.77595 0.15566 0.36122 0.0
C434 C 0.73507 0.08666 0.3494 0.0
C435 C 0.74715 0.12692 0.34585 0.0
H436 H 0.84477 0.14086 0.45482 0.0
H437 H 0.73411 0.13582 0.33142 0.0
H438 H 0.71343 1.01162 0.36382 0.0
H439 H 0.81789 0.0715 0.4678 0.0
H440 H 0.78509 0.18684 0.35854 0.0
H441 H 1.00586 0.40364 0.41159 0.0
H442 H 0.71233 0.06435 0.33768 0.0
H443 H 0.96809 0.21043 0.33677 0.0
H444 H 0.97959 0.33209 0.41936 0.0
H445 H 0.99417 0.2329 0.29554 0.0
H446 H 0.736 0.99407 0.40127 0.0
H447 H 1.02362 0.43008 0.36979 0.0
H448 H 0.03252 0.41767 0.32602 0.0
H449 H 0.77404 0.01613 0.44039 0.0
H450 H 0.03051 0.37133 0.29454 0.0
N451 N 0.97929 0.31712 0.38215 0.0
C452 C 0.98623 0.34284 0.40095 0.0
C453 C 1.01143 0.39842 0.37305 0.0
C454 C 1.00729 0.37243 0.35412 0.0
C455 C 1.00152 0.38363 0.39666 0.0
C456 C 0.99104 0.33143 0.35936 0.0
H457 H 1.01792 0.30285 0.28335 0.0
N458 N 0.97516 0.26661 0.34776 0.0
C459 C 0.99278 0.25357 0.30829 0.0
C460 C 0.98953 0.30545 0.34165 0.0
C461 C 0.97787 0.24092 0.33171 0.0
C462 C 1.0061 0.29304 0.30146 0.0
C463 C 1.00475 0.31962 0.31822 0.0
O464 O 0.98888 0.21957 0.39134 0.0
O465 O 0.89955 0.18975 0.40241 0.0
O466 O 0.88572 0.20467 0.43883 0.0
O467 O 0.9437 0.26139 0.42699 0.0
O468 O 0.93365 0.185 0.37479 0.0
O469 O 1.00881 0.27728 0.40678 0.0
O470 O 0.81213 0.18866 0.4394 0.0
O471 O 0.89896 0.25343 0.40229 0.0
O472 O 0.91311 0.23949 0.35451 0.0
O473 O 0.85256 0.18315 0.36503 0.0
O474 O 0.84742 0.24589 0.38592 0.0
O475 O 0.79574 0.20824 0.40724 0.0
C476 C 0.90407 0.16545 0.38925 0.0
C477 C 0.05879 0.26414 0.39052 0.0
C478 C 0.1147 0.25297 0.37958 0.0
C479 C 0.07726 0.24001 0.39109 0.0
C480 C 0.13355 0.29061 0.3682 0.0
C481 C 0.07846 0.30125 0.37864 0.0
C482 C 0.11562 0.31441 0.36778 0.0
C483 C 0.92206 0.2353 0.44381 0.0
C484 C 1.01859 0.2503 0.40143 0.0
C485 C 1.01921 0.36001 0.31254 0.0
C486 C 1.02031 0.38636 0.33045 0.0
C487 C 0.88394 0.27153 0.391 0.0
C488 C 0.74192 0.16566 0.43353 0.0
C489 C 0.71025 0.17169 0.4249 0.0
C490 C 0.66936 0.14297 0.42955 0.0
C491 C 0.66113 0.10817 0.44239 0.0
C492 C 0.73176 0.1303 0.4463 0.0
C493 C 0.6919 0.10196 0.45057 0.0
C494 C 0.87792 0.20854 0.34872 0.0
C495 C 0.78537 0.19541 0.42927 0.0
H496 H 0.0621 0.21099 0.39978 0.0
H497 H 0.16231 0.3016 0.35939 0.0
H498 H 0.06502 0.32016 0.37759 0.0
H499 H 0.13048 0.34311 0.35874 0.0
H500 H 0.7174 0.19869 0.41498 0.0
H501 H 0.63054 0.08514 0.44587 0.0
H502 H 0.75465 0.12424 0.45305 0.0
H503 H 0.68477 0.07484 0.46032 0.0
Eu504 Eu 0.09782 0.31689 0.63733 0.0
C505 C 0.22704 0.33135 0.56532 0.0
C506 C 0.26452 0.30246 0.58303 0.0
C507 C 0.25494 0.30018 0.53933 0.0
C508 C 0.24114 0.32118 0.58564 0.0
C509 C 0.23458 0.32179 0.54189 0.0
C510 C 0.27019 0.29084 0.55986 0.0
C511 C 0.20732 0.36127 0.52519 0.0
N512 N 0.20966 0.35427 0.56838 0.0
C513 C 0.20155 0.3709 0.54876 0.0
C514 C 0.22342 0.33615 0.52172 0.0
Eu515 Eu 0.19913 0.36792 0.60891 0.0
N516 N 0.2361 0.33382 0.60768 0.0
C517 C 0.25647 0.33181 0.62744 0.0
C518 C 0.28343 0.29811 0.60358 0.0
C519 C 0.27987 0.3134 0.6258 0.0
H520 H 0.1892 0.39045 0.55137 0.0
H521 H 0.29524 0.31115 0.64166 0.0
H522 H 0.28757 0.27592 0.55754 0.0
H523 H 0.19967 0.37348 0.50972 0.0
H524 H 0.25439 0.34403 0.64466 0.0
H525 H 0.03665 0.41351 0.61349 0.0
H526 H 0.30197 0.28427 0.60231 0.0
H527 H 0.08174 0.26375 0.68837 0.0
H528 H 0.06511 0.36958 0.60587 0.0
H529 H 0.05424 0.25928 0.72935 0.0
H530 H 0.26071 0.29226 0.5215 0.0
H531 H 1.02198 0.425 0.6555 0.0
H532 H 1.01655 0.4065 0.69964 0.0
H533 H 0.22855 0.32932 0.50343 0.0
H534 H 1.02035 0.36342 0.73127 0.0
N535 N 0.06932 0.3585 0.64327 0.0
C536 C 0.05963 0.37494 0.62434 0.0
C537 C 0.03511 0.40618 0.65229 0.0
C538 C 0.04168 0.38627 0.67144 0.0
C539 C 0.04326 0.39972 0.62856 0.0
C540 C 0.05888 0.36215 0.66623 0.0
H541 H 0.03186 0.30651 0.74196 0.0
N542 N 0.07541 0.31348 0.6778 0.0
C543 C 0.05705 0.28232 0.71698 0.0
C544 C 0.06156 0.33847 0.68406 0.0
C545 C 0.07254 0.28493 0.69368 0.0
C546 C 0.04457 0.30917 0.72408 0.0
C547 C 0.04647 0.33757 0.70753 0.0
O548 O 0.06149 0.25169 0.6346 0.0
O549 O 0.15009 0.31211 0.62394 0.0
O550 O 0.15026 0.32342 0.58256 0.0
O551 O 0.09663 0.32858 0.59713 0.0
O552 O 0.11543 0.27122 0.64988 0.0
O553 O 0.03752 0.28813 0.62158 0.0
O554 O 0.24069 0.42808 0.59531 0.0
O555 O 0.15066 0.37652 0.62575 0.0
O556 O 0.13971 0.3464 0.6687 0.0
O557 O 0.2027 0.36543 0.65107 0.0
O558 O 0.17679 0.40822 0.59442 0.0
O559 O 0.25577 0.40716 0.62764 0.0
C560 C 0.14623 0.28249 0.6361 0.0
C561 C 0.99176 0.22431 0.63793 0.0
C562 C 0.9354 0.15632 0.64378 0.0
C563 C 0.97128 0.18335 0.63179 0.0
C564 C 0.92041 0.17126 0.66185 0.0
C565 C 0.97614 0.2382 0.6561 0.0
C566 C 0.94065 0.21179 0.66791 0.0
C567 C 0.11377 0.31874 0.57988 0.0
C568 C 0.03017 0.25189 0.62603 0.0
C569 C 0.03163 0.36334 0.71325 0.0
C570 C 0.02946 0.38786 0.69525 0.0
C571 C 0.15151 0.40277 0.61137 0.0
C572 C 0.30972 0.45063 0.60221 0.0
C573 C 0.34271 0.48681 0.61069 0.0
C574 C 0.38174 0.50044 0.60117 0.0
C575 C 0.38697 0.47658 0.58381 0.0
C576 C 0.31634 0.42844 0.58451 0.0
C577 C 0.3546 0.44108 0.57557 0.0
C578 C 0.17879 0.36002 0.67008 0.0
C579 C 0.26834 0.43555 0.6115 0.0
H580 H 0.9837 0.17253 0.61802 0.0
H581 H 0.89264 0.1517 0.67114 0.0
H582 H 0.99139 0.26943 0.66121 0.0
H583 H 0.92873 0.22279 0.68185 0.0
H584 H 0.3379 0.5045 0.62415 0.0
H585 H 0.41636 0.48532 0.57654 0.0
H586 H 0.29183 0.40128 0.57745 0.0
H587 H 0.35917 0.42332 0.56206 0.0
Eu588 Eu 0.20689 0.84835 0.90013 0.0
C589 C 0.34046 0.97749 0.83558 0.0
C590 C 0.40034 0.99594 0.8592 0.0
C591 C 0.40422 0.99958 0.81521 0.0
C592 C 0.35872 0.98186 0.85798 0.0
C593 C 0.36349 0.98817 0.81409 0.0
C594 C 0.42255 1.00318 0.83772 0.0
C595 C 0.30537 0.97968 0.79216 0.0
N596 N 0.30098 0.96617 0.83487 0.0
C597 C 0.28341 0.96795 0.81369 0.0
C598 C 0.34539 0.98905 0.79224 0.0
Eu599 Eu 0.26631 0.94793 0.8722 0.0
N600 N 0.33674 0.97598 0.87851 0.0
C601 C 0.35582 0.98828 0.90046 0.0
C602 C 0.41894 1.00449 0.88191 0.0
C603 C 0.39679 1.00174 0.90253 0.0
H604 H 0.2522 0.95964 0.81332 0.0
H605 H 0.41127 1.01007 0.9201 0.0
H606 H 0.45435 1.01341 0.83837 0.0
H607 H 0.2913 0.98126 0.77552 0.0
H608 H 0.34023 0.98757 0.91679 0.0
H609 H 0.05613 0.76845 0.86235 0.0
H610 H 0.45074 1.01518 0.88358 0.0
H611 H 0.23464 0.85604 0.95869 0.0
H612 H 0.12984 0.80342 0.86167 0.0
H613 H 0.2043 0.84492 0.99942 0.0
H614 H 0.42215 1.00713 0.79885 0.0
H615 H 1.02039 0.75995 0.90112 0.0
H616 H 1.02368 0.76823 0.94641 0.0
H617 H 0.36231 0.99782 0.77547 0.0
H618 H 0.06409 0.79003 0.98371 0.0
N619 N 0.13612 0.81727 0.89932 0.0
C620 C 0.11471 0.80076 0.87862 0.0
C621 C 0.05283 0.77592 0.90086 0.0
C622 C 0.07487 0.79066 0.92229 0.0
C623 C 0.07287 0.7806 0.87896 0.0
C624 C 0.11706 0.81146 0.92093 0.0
H625 H 0.1314 0.81838 1.00366 0.0
N626 N 0.17988 0.83822 0.93998 0.0
C627 C 0.18579 0.83864 0.98341 0.0
C628 C 0.13971 0.82269 0.94193 0.0
C629 C 0.20285 0.84483 0.9603 0.0
C630 C 0.14467 0.82386 0.98573 0.0
C631 C 0.12093 0.81474 0.96487 0.0
O632 O 0.2198 0.80285 0.91454 0.0
O633 O 0.26775 0.89355 0.88587 0.0
O634 O 0.25698 0.90265 0.84287 0.0
O635 O 0.20399 0.84326 0.85828 0.0
O636 O 0.26606 0.86512 0.91802 0.0
O637 O 0.18618 0.79116 0.88137 0.0
O638 O 0.24168 0.98318 0.88889 0.0
O639 O 0.20539 0.90042 0.8836 0.0
O640 O 0.21117 0.89792 0.92556 0.0
O641 O 0.27269 0.94981 0.91309 0.0
O642 O 0.20886 0.92776 0.85061 0.0
O643 O 0.28756 1.01041 0.86208 0.0
C644 C 0.28936 0.89046 0.90216 0.0
C645 C 0.1711 0.73533 0.90635 0.0
C646 C 0.1468 0.66296 0.9071 0.0
C647 C 0.17406 0.70186 0.89846 0.0
C648 C 0.11619 0.65834 0.92306 0.0
C649 C 0.14063 0.72941 0.92261 0.0
C650 C 0.11326 0.69125 0.93073 0.0
C651 C 0.22839 0.86495 0.84036 0.0
C652 C 0.19952 0.7764 0.89785 0.0
C653 C 0.07904 0.79624 0.96627 0.0
C654 C 0.05604 0.78382 0.94504 0.0
C655 C 0.18485 0.90198 0.86614 0.0
C656 C 0.23861 0.03099 0.86315 0.0
C657 C 0.23507 0.06301 0.87326 0.0
C658 C 0.21272 0.07812 0.86109 0.0
C659 C 0.19305 0.05954 0.83932 0.0
C660 C 0.21966 1.01455 0.84097 0.0
C661 C 0.19675 0.02835 0.82936 0.0
C662 C 0.24392 0.93297 0.92937 0.0
C663 C 0.26186 1.01449 0.87537 0.0
H664 H 0.19784 0.70621 0.88614 0.0
H665 H 0.09424 0.62905 0.92964 0.0
H666 H 0.13804 0.75433 0.92915 0.0
H667 H 0.08969 0.68717 0.94314 0.0
H668 H 0.25017 0.07644 0.89016 0.0
H669 H 0.17448 0.06901 0.82986 0.0
H670 H 0.2225 0.99097 0.83243 0.0
H671 H 0.18183 1.01484 0.81244 0.0
Eu672 Eu 0.72081 0.78296 0.63637 0.0
C673 C 0.71265 0.90288 0.56495 0.0
C674 C 0.7458 0.96798 0.58415 0.0
C675 C 0.7469 0.96285 0.54022 0.0
C676 C 0.72408 0.92592 0.58579 0.0
C677 C 0.72304 0.92113 0.54189 0.0
C678 C 0.75816 0.98625 0.56132 0.0
C679 C 0.68105 0.85622 0.52389 0.0
N680 N 0.68833 0.86285 0.5672 0.0
C681 C 0.67089 0.83966 0.54715 0.0
C682 C 0.70767 0.89707 0.52123 0.0
Eu683 Eu 0.67395 0.83668 0.60722 0.0
N684 N 0.71159 0.90735 0.60759 0.0
C685 C 0.71721 0.92912 0.62824 0.0
C686 C 0.75317 0.99043 0.60542 0.0
C687 C 0.73809 0.97086 0.62747 0.0
H688 H 0.65024 0.80805 0.54917 0.0
H689 H 0.74233 0.98788 0.64388 0.0
H690 H 0.77537 0.01849 0.55974 0.0
H691 H 0.66819 0.83752 0.50805 0.0
H692 H 0.70588 0.91444 0.64544 0.0
H693 H 0.62455 0.62991 0.60419 0.0
H694 H 0.76953 0.02279 0.60493 0.0
H695 H 0.76586 0.81185 0.69039 0.0
H696 H 0.67142 0.70191 0.60019 0.0
H697 H 0.76147 0.78364 0.7313 0.0
H698 H 0.75555 0.9774 0.52268 0.0
H699 H 0.60587 0.599 0.6449 0.0
H700 H 0.61679 0.60626 0.69002 0.0
H701 H 0.71508 0.90994 0.5032 0.0
H702 H 0.65447 0.64823 0.7248 0.0
N703 N 0.67782 0.71267 0.63832 0.0
C704 C 0.66355 0.68913 0.61811 0.0
C705 C 0.62629 0.63082 0.64327 0.0
C706 C 0.64367 0.65448 0.66384 0.0
C707 C 0.6369 0.64811 0.62027 0.0
C708 C 0.66985 0.69583 0.6607 0.0
H709 H 0.70968 0.71396 0.74012 0.0
N710 N 0.71731 0.75846 0.6762 0.0
C711 C 0.74065 0.76559 0.71727 0.0
C712 C 0.69054 0.71943 0.68027 0.0
C713 C 0.74321 0.78137 0.69406 0.0
C714 C 0.71146 0.72619 0.72217 0.0
C715 C 0.68628 0.70238 0.70349 0.0
O716 O 0.78622 0.81141 0.63808 0.0
O717 O 0.72995 0.84051 0.62092 0.0
O718 O 0.71637 0.83015 0.58015 0.0
O719 O 0.71352 0.77284 0.59566 0.0
O720 O 0.76223 0.84486 0.65194 0.0
O721 O 0.75257 0.75336 0.62177 0.0
O722 O 0.61435 0.82097 0.59343 0.0
O723 O 0.6628 0.77905 0.62398 0.0
O724 O 0.68897 0.79421 0.66695 0.0
O725 O 0.67458 0.84148 0.6494 0.0
O726 O 0.6325 0.7753 0.59215 0.0
O727 O 0.63672 0.85721 0.62557 0.0
C728 C 0.75534 0.86496 0.63579 0.0
C729 C 0.81526 0.77018 0.63994 0.0
C730 C 0.88305 0.77989 0.64477 0.0
C731 C 0.85597 0.78925 0.6331 0.0
C732 C 0.86836 0.75084 0.66326 0.0
C733 C 0.80155 0.74149 0.65845 0.0
C734 C 0.82801 0.73188 0.66998 0.0
C735 C 0.72261 0.79925 0.57814 0.0
C736 C 0.78794 0.78173 0.62824 0.0
C737 C 0.65855 0.66175 0.70702 0.0
C738 C 0.63712 0.63785 0.68722 0.0
C739 C 0.63668 0.75481 0.60922 0.0
C740 C 0.59408 0.86939 0.60015 0.0
C741 C 0.55821 0.86739 0.60852 0.0
C742 C 0.54554 0.89361 0.59901 0.0
C743 C 0.56998 0.92227 0.58172 0.0
C744 C 0.61698 0.89792 0.58258 0.0
C745 C 0.60523 0.92429 0.5736 0.0
C746 C 0.67736 0.82125 0.66834 0.0
C747 C 0.60805 0.84217 0.60951 0.0
H748 H 0.86662 0.81188 0.61903 0.0
H749 H 0.88795 0.74231 0.67237 0.0
H750 H 0.77048 0.72664 0.66405 0.0
H751 H 0.8172 0.7096 0.68422 0.0
H752 H 0.54 0.84515 0.6219 0.0
H753 H 0.56191 0.94343 0.57444 0.0
H754 H 0.644 0.89983 0.57568 0.0
H755 H 0.62351 0.94636 0.56018 0.0
Eu756 Eu 0.19834 0.37418 0.90584 0.0
C757 C 0.06942 0.36593 0.83334 0.0
C758 C 0.05 0.41062 0.85187 0.0
C759 C 0.04883 0.40426 0.80798 0.0
C760 C 0.06407 0.38312 0.85382 0.0
C761 C 0.06025 0.37498 0.81022 0.0
C762 C 0.04388 0.42222 0.82881 0.0
C763 C 0.06856 0.32146 0.79386 0.0
N764 N 0.08019 0.33764 0.8362 0.0
C765 C 0.0787 0.31448 0.817 0.0
C766 C 0.06064 0.35275 0.79028 0.0
Eu767 Eu 0.09801 0.32761 0.87575 0.0
N768 N 0.06932 0.37034 0.87573 0.0
C769 C 0.05695 0.38094 0.89633 0.0
C770 C 0.04078 0.42422 0.87311 0.0
C771 C 0.04335 0.40853 0.89541 0.0
H772 H 0.08573 0.29081 0.81958 0.0
H773 H 0.0349 0.41768 0.91193 0.0
H774 H 0.03364 0.44371 0.82695 0.0
H775 H 0.06626 0.30235 0.77892 0.0
H776 H 0.05798 0.36901 0.91374 0.0
H777 H 0.27505 0.29327 0.87855 0.0
H778 H 0.03009 0.44546 0.87243 0.0
H779 H 0.19388 0.40792 0.96179 0.0
H780 H 0.24169 0.33321 0.87248 0.0
H781 H 0.20537 0.39648 1.00441 0.0
H782 H 0.04223 0.41205 0.79034 0.0
H783 H 0.28195 0.27237 0.91987 0.0
H784 H 0.27317 0.27571 0.96481 0.0
H785 H 0.05314 0.35838 0.77231 0.0
H786 H 0.25416 0.30379 0.99907 0.0
N787 N 0.22926 0.33453 0.91 0.0
C788 C 0.24459 0.32438 0.89063 0.0
C789 C 0.26739 0.29004 0.91734 0.0
C790 C 0.25367 0.30246 0.93723 0.0
C791 C 0.26353 0.30174 0.89398 0.0
C792 C 0.23504 0.32557 0.93295 0.0
H793 H 0.22949 0.34929 0.01399 0.0
N794 N 0.20959 0.36619 0.94741 0.0
C795 C 0.21068 0.38069 0.98993 0.0
C796 C 0.22472 0.3417 0.95223 0.0
C797 C 0.20424 0.38711 0.96577 0.0
C798 C 0.2242 0.35396 0.99526 0.0
C799 C 0.23218 0.33469 0.97631 0.0
O800 O 0.23763 0.43864 0.91078 0.0
O801 O 0.15238 0.38481 0.88731 0.0
O802 O 0.14356 0.3592 0.84625 0.0
O803 O 0.20319 0.36861 0.8641 0.0
O804 O 0.17856 0.41718 0.91874 0.0
O805 O 0.26123 0.40512 0.89329 0.0
O806 O 0.04331 0.29086 0.89665 0.0
O807 O 0.14582 0.318 0.89229 0.0
O808 O 0.14991 0.33781 0.93456 0.0
O809 O 0.0943 0.33575 0.91618 0.0
O810 O 0.11682 0.28353 0.86228 0.0
O811 O 0.05349 0.26748 0.86364 0.0
C812 C 0.15385 0.41164 0.90135 0.0
C813 C 0.30723 0.46304 0.91589 0.0
C814 C 0.37797 0.51746 0.91959 0.0
C815 C 0.34349 0.49285 0.90509 0.0
C816 C 0.37409 0.51136 0.945 0.0
C817 C 0.30618 0.45712 0.94099 0.0
C818 C 0.33913 0.48118 0.95536 0.0
C819 C 0.18125 0.36751 0.84498 0.0
C820 C 0.2695 0.43997 0.90166 0.0
C821 C 0.24857 0.30982 0.98069 0.0
C822 C 0.25937 0.2938 0.96118 0.0
C823 C 0.14365 0.29071 0.87851 0.0
C824 C 1.02001 0.22114 0.8951 0.0
C825 C 0.98481 0.18566 0.88854 0.0
C826 C 0.97508 0.1485 0.89938 0.0
C827 C 1.00141 0.14813 0.91707 0.0
C828 C 0.04537 0.21953 0.9128 0.0
C829 C 0.03597 0.1833 0.92376 0.0
C830 C 0.11301 0.33255 0.9354 0.0
C831 C 0.03112 0.25947 0.88282 0.0
H832 H 0.3444 0.49671 0.88561 0.0
H833 H 0.39766 0.53027 0.95741 0.0
H834 H 0.27937 0.4346 0.9497 0.0
H835 H 0.33727 0.47695 0.97485 0.0
H836 H 0.96519 0.18724 0.87501 0.0
H837 H 0.99602 0.12049 0.92544 0.0
H838 H 0.07268 0.24626 0.91799 0.0
H839 H 0.05592 0.18237 0.93728 0.0
Eu840 Eu 0.2581 0.94447 0.63352 0.0
C841 C 0.14509 0.81251 0.56015 0.0
C842 C 0.07795 0.77895 0.57685 0.0
C843 C 0.08744 0.78378 0.53311 0.0
C844 C 0.11986 0.80054 0.58009 0.0
C845 C 0.12913 0.80366 0.53644 0.0
C846 C 0.0619 0.7714 0.55328 0.0
C847 C 0.19659 0.83175 0.52104 0.0
N848 N 0.18523 0.83122 0.56395 0.0
C849 C 0.211 0.83954 0.54487 0.0
C850 C 0.1555 0.81411 0.51678 0.0
Eu851 Eu 0.20695 0.84365 0.60496 0.0
N852 N 0.13622 0.80839 0.60265 0.0
C853 C 0.11248 0.79307 0.62269 0.0
C854 C 0.05342 0.76461 0.59738 0.0
C855 C 0.07082 0.77116 0.62037 0.0
H856 H 0.24281 0.85314 0.54799 0.0
H857 H 0.05218 0.75936 0.6363 0.0
H858 H 0.02979 0.75523 0.55045 0.0
H859 H 0.21717 0.83922 0.50599 0.0
H860 H 0.12564 0.79804 0.64056 0.0
H861 H 0.41076 1.0118 0.59737 0.0
H862 H 1.02111 0.74782 0.59566 0.0
H863 H 0.22851 0.94855 0.68981 0.0
H864 H 0.33774 0.98018 0.59521 0.0
H865 H 0.25781 0.97187 0.73052 0.0
H866 H 0.07464 0.777 0.51503 0.0
H867 H 0.44492 0.02907 0.6372 0.0
H868 H 0.44008 0.03299 0.68247 0.0
H869 H 0.1444 0.80785 0.4983 0.0
H870 H 0.39859 0.02307 0.71866 0.0
N871 N 0.32934 0.97733 0.6336 0.0
C872 C 0.35168 0.98712 0.61281 0.0
C873 C 0.41256 1.0148 0.63641 0.0
C874 C 0.38981 1.00706 0.65757 0.0
C875 C 0.39341 1.00523 0.61391 0.0
C876 C 0.34773 0.98813 0.65553 0.0
H877 H 0.33093 1.00196 0.73648 0.0
N878 N 0.28437 0.96495 0.67305 0.0
C879 C 0.27691 0.97478 0.71532 0.0
C880 C 0.32452 0.98213 0.67587 0.0
C881 C 0.26043 0.96166 0.69226 0.0
C882 C 0.31815 0.99162 0.71864 0.0
C883 C 0.34253 0.99544 0.69882 0.0
O884 O 0.23651 0.98566 0.64371 0.0
O885 O 0.20103 0.89461 0.61886 0.0
O886 O 0.21037 0.89087 0.57781 0.0
O887 O 0.26746 0.94621 0.59272 0.0
O888 O 0.1956 0.92334 0.64893 0.0
O889 O 0.27299 0.99748 0.61173 0.0
O890 O 0.23356 0.8059 0.59791 0.0
O891 O 0.26375 0.89165 0.6216 0.0
O892 O 0.25373 0.90027 0.66194 0.0
O893 O 0.19974 0.8412 0.64688 0.0
O894 O 0.26919 0.8654 0.59013 0.0
O895 O 0.18035 0.78243 0.61969 0.0
C896 C 0.17603 0.89573 0.6332 0.0
C897 C 0.2763 0.05353 0.632 0.0
C898 C 0.27663 0.11661 0.63961 0.0
C899 C 0.25578 0.07555 0.63345 0.0
C900 C 0.31821 0.13519 0.64361 0.0
C901 C 0.31765 0.07297 0.63641 0.0
C902 C 0.33842 0.11357 0.64199 0.0
C903 C 0.24103 0.92783 0.5753 0.0
C904 C 0.25467 1.0104 0.62595 0.0
C905 C 0.38425 1.01304 0.70112 0.0
C906 C 0.40785 0.01867 0.68053 0.0
C907 C 0.28886 0.89091 0.607 0.0
C908 C 0.18942 0.73597 0.59541 0.0
C909 C 0.18339 0.70016 0.60666 0.0
C910 C 0.17156 0.66471 0.59277 0.0
C911 C 0.16669 0.66696 0.56747 0.0
C912 C 0.18228 0.7357 0.57047 0.0
C913 C 0.17121 0.70163 0.55668 0.0
C914 C 0.22417 0.86311 0.66482 0.0
C915 C 0.20574 0.77443 0.60895 0.0
H916 H 0.22374 0.06062 0.63041 0.0
H917 H 0.33518 0.16665 0.64816 0.0
H918 H 0.33394 0.05675 0.63551 0.0
H919 H 0.37036 0.12834 0.64526 0.0
H920 H 0.18819 0.70032 0.62602 0.0
H921 H 0.16017 0.64229 0.55548 0.0
H922 H 0.18645 0.7623 0.56138 0.0
H923 H 0.16694 0.70233 0.53729 0.0
Eu924 Eu 0.6767 0.84057 0.90399 0.0
C925 C 0.67519 0.70969 0.84016 0.0
C926 C 0.64134 0.65254 0.86678 0.0
C927 C 0.63227 0.64354 0.82316 0.0
C928 C 0.66649 0.69403 0.86333 0.0
C929 C 0.65921 0.6844 0.81977 0.0
C930 C 0.62332 0.62764 0.84664 0.0
C931 C 0.70137 0.74065 0.79427 0.0
N932 N 0.70163 0.74915 0.83748 0.0
C933 C 0.71625 0.76455 0.81498 0.0
C934 C 0.6721 0.70059 0.79661 0.0
Eu935 Eu 0.72376 0.78851 0.87336 0.0
N936 N 0.68472 0.71888 0.88239 0.0
C937 C 0.68118 0.70341 0.90523 0.0
C938 C 0.63628 0.63702 0.89024 0.0
C939 C 0.65692 0.66247 0.90947 0.0
H940 H 0.73861 0.79572 0.81303 0.0
H941 H 0.65386 0.65066 0.92765 0.0
H942 H 0.60352 0.59582 0.84899 0.0
H943 H 0.7126 0.75301 0.77654 0.0
H944 H 0.69621 0.72213 0.92057 0.0
H945 H 0.74609 0.99411 0.87115 0.0
H946 H 0.61749 0.60532 0.8936 0.0
H947 H 0.65056 0.8061 0.96114 0.0
H948 H 0.71271 0.92084 0.86765 0.0
H949 H 0.66148 0.8326 1.00291 0.0
H950 H 0.6193 0.62377 0.80773 0.0
H951 H 0.76276 0.02597 0.91162 0.0
H952 H 0.76041 0.01844 0.95689 0.0
H953 H 0.66075 0.68213 0.78051 0.0
H954 H 0.73854 0.97461 0.99269 0.0
N955 N 0.71328 0.91121 0.90565 0.0
C956 C 0.72086 0.93437 0.88541 0.0
C957 C 0.74875 0.99377 0.91017 0.0
C958 C 0.73903 0.96982 0.93095 0.0
C959 C 0.7394 0.97593 0.88731 0.0
C960 C 0.72074 0.92801 0.92809 0.0
H961 H 0.70164 0.90542 0.01002 0.0
N962 N 0.68652 0.86312 0.94483 0.0
C963 C 0.6747 0.8528 0.98773 0.0
C964 C 0.70737 0.90328 0.94826 0.0
C965 C 0.66858 0.8379 0.96404 0.0
C966 C 0.69749 0.8939 0.99166 0.0
C967 C 0.71334 0.91976 0.97181 0.0
O968 O 0.64306 0.86808 0.88943 0.0
O969 O 0.66601 0.7833 0.88666 0.0
O970 O 0.68648 0.79738 0.8451 0.0
O971 O 0.67608 0.84719 0.86216 0.0
O972 O 0.63705 0.77842 0.91899 0.0
O973 O 0.61471 0.82019 0.91535 0.0
O974 O 0.76866 0.77553 0.88877 0.0
O975 O 0.73348 0.84676 0.88881 0.0
O976 O 0.72009 0.83767 0.93171 0.0
O977 O 0.73345 0.79024 0.91418 0.0
O978 O 0.76158 0.84962 0.85622 0.0
O979 O 0.77856 0.80254 0.85347 0.0
C980 C 0.64137 0.75839 0.90171 0.0
C981 C 0.57206 0.83205 0.88914 0.0
C982 C 0.5121 0.83854 0.88191 0.0
C983 C 0.54931 0.8511 0.8937 0.0
C984 C 0.49872 0.80668 0.86524 0.0
C985 C 0.55791 0.8007 0.87237 0.0
C986 C 0.5215 0.7882 0.86049 0.0
C987 C 0.67623 0.82531 0.84346 0.0
C988 C 0.61071 0.84577 0.90179 0.0
C989 C 0.73354 0.96142 0.97475 0.0
C990 C 0.74598 0.98638 0.95437 0.0
C991 C 0.75689 0.8705 0.87283 0.0
C992 C 0.83514 0.82358 0.87852 0.0
C993 C 0.86948 0.82049 0.87305 0.0
C994 C 0.90812 0.85106 0.8803 0.0
C995 C 0.91132 0.88447 0.89271 0.0
C996 C 0.83975 0.85724 0.89099 0.0
C997 C 0.87744 0.88723 0.89809 0.0
C998 C 0.73403 0.81226 0.93276 0.0
C999 C 0.79433 0.79264 0.87118 0.0
H1000 H 0.56094 0.87587 0.90635 0.0
H1001 H 0.47014 0.79524 0.85617 0.0
H1002 H 0.57503 0.78594 0.86849 0.0
H1003 H 0.51064 0.76373 0.84766 0.0
H1004 H 0.86603 0.7944 0.86349 0.0
H1005 H 0.9402 0.90901 0.89804 0.0
H1006 H 0.81398 0.86006 0.89562 0.0
H1007 H 0.88038 0.91274 0.90786 0.0
H1008 H 0.11549 0.1632 0.0728 0.0
H1009 H 0.11154 0.19638 0.14778 0.0
H1010 H 0.17001 0.18871 0.15708 0.0
H1011 H 0.14012 0.08573 0.08806 0.0
H1012 H 0.17098 0.09541 0.0615 0.0
H1013 H 0.1294 0.10462 0.06082 0.0
H1014 H 0.17754 0.17545 0.04663 0.0
H1015 H 0.2216 0.17054 0.04959 0.0
H1016 H 0.21779 0.20915 0.06592 0.0
H1017 H 0.2265 0.17349 0.15902 0.0
H1018 H 0.27894 0.15503 0.15278 0.0
H1019 H 0.2456 0.13037 0.07703 0.0
C1020 C 0.12647 0.16856 0.09128 0.0
C1021 C 0.10857 0.18072 0.10947 0.0
C1022 C 0.12488 0.18799 0.13327 0.0
C1023 C 0.15795 0.18327 0.13885 0.0
C1024 C 0.17435 0.17084 0.12055 0.0
C1025 C 0.15901 0.16332 0.09728 0.0
C1026 C 0.18155 0.14926 0.08108 0.0
C1027 C 0.15385 0.1062 0.07236 0.0
C1028 C 0.20084 0.17778 0.05952 0.0
C1029 C 0.21269 0.15106 0.09874 0.0
C1030 C 0.20759 0.16302 0.1215 0.0
C1031 C 0.23115 0.16473 0.14118 0.0
C1032 C 0.26098 0.15441 0.13745 0.0
C1033 C 0.2673 0.14285 0.11422 0.0
C1034 C 0.24233 0.14049 0.09475 0.0
H1035 H 0.10172 0.8817 0.32463 0.0
H1036 H 0.1382 0.91609 0.39942 0.0
H1037 H 0.06806 0.87423 0.41267 0.0
H1038 H 1.00482 0.87855 0.32991 0.0
H1039 H 0.98008 0.83637 0.30972 0.0
H1040 H 0.03273 0.87124 0.30612 0.0
H1041 H 0.04618 0.81283 0.30839 0.0
H1042 H 0.99453 0.77674 0.31421 0.0
H1043 H 0.03307 0.78232 0.33514 0.0
H1044 H 0.99321 0.82916 0.41782 0.0
H1045 H 0.92076 0.77994 0.41461 0.0
H1046 H 0.93359 0.77207 0.337 0.0
C1047 C 0.09506 0.88042 0.34382 0.0
C1048 C 0.12573 0.9025 0.36095 0.0
C1049 C 0.11536 0.90011 0.38585 0.0
C1050 C 0.07555 0.87626 0.39359 0.0
C1051 C 0.04616 0.85498 0.37624 0.0
C1052 C 0.05541 0.85684 0.35185 0.0
C1053 C 1.01831 0.83041 0.33694 0.0
C1054 C 1.00841 0.85566 0.31966 0.0
C1055 C 1.02325 0.79864 0.32287 0.0
C1056 C 0.98712 0.81208 0.35688 0.0
C1057 C 1.00356 0.82748 0.37935 0.0
C1058 C 0.98018 0.81652 0.40036 0.0
C1059 C 0.93918 0.78837 0.39844 0.0
C1060 C 0.92218 0.77101 0.37576 0.0
C1061 C 0.94628 0.78389 0.35468 0.0
H1062 H 0.86025 0.10194 0.16534 0.0
H1063 H 0.90876 0.12613 0.0925 0.0
H1064 H 0.88443 0.05414 0.08629 0.0
H1065 H 0.88951 0.02742 0.17702 0.0
H1066 H 0.84678 0.99671 0.19583 0.0
H1067 H 0.8658 0.04981 0.19422 0.0
H1068 H 0.79581 0.03849 0.18016 0.0
H1069 H 0.77766 0.98581 0.184 0.0
H1070 H 0.77082 1.00422 0.15552 0.0
H1071 H 0.8519 0.97902 0.0874 0.0
H1072 H 0.81966 0.90717 0.09691 0.0
H1073 H 0.79723 0.93183 0.17048 0.0
C1074 C 0.86488 0.09177 0.14794 0.0
C1075 C 0.88431 0.11915 0.12883 0.0
C1076 C 0.89208 0.10531 0.10684 0.0
C1077 C 0.87868 0.06453 0.10327 0.0
C1078 C 0.85825 0.03799 0.1221 0.0
C1079 C 0.85192 0.05107 0.14416 0.0
C1080 C 0.83212 0.0167 0.16207 0.0
C1081 C 0.86024 0.02304 0.18355 0.0
C1082 C 0.79174 1.01105 0.17095 0.0
C1083 C 0.82663 0.98202 0.14625 0.0
C1084 C 0.84207 0.99503 0.1233 0.0
C1085 C 0.84011 0.96853 0.10541 0.0
C1086 C 0.82192 0.92767 0.11106 0.0
C1087 C 0.80593 0.91339 0.13451 0.0
C1088 C 0.80863 0.94133 0.15228 0.0
H1089 H 0.24694 0.15582 0.42571 0.0
H1090 H 0.27593 0.15271 0.35 0.0
H1091 H 0.22889 0.17584 0.33805 0.0
H1092 H 0.14023 0.12058 0.41459 0.0
H1093 H 0.13604 0.15129 0.43779 0.0
H1094 H 0.17185 0.13428 0.4411 0.0
H1095 H 0.23172 0.2085 0.44493 0.0
H1096 H 0.19316 0.22213 0.4446 0.0
H1097 H 0.23341 0.2444 0.42311 0.0
H1098 H 0.182 0.20263 0.33411 0.0
H1099 H 0.13885 0.23279 0.33833 0.0
H1100 H 0.13692 0.21797 0.41643 0.0
C1101 C 0.24347 0.16039 0.40666 0.0
C1102 C 0.26611 0.15374 0.38877 0.0
C1103 C 0.25982 0.1587 0.364 0.0
C1104 C 0.23291 0.17157 0.35704 0.0
C1105 C 0.21163 0.17865 0.37502 0.0
C1106 C 0.21639 0.17322 0.39935 0.0
C1107 C 0.18916 0.1827 0.4148 0.0
C1108 C 0.15744 0.14496 0.42785 0.0
C1109 C 0.2134 0.21639 0.43298 0.0
C1110 C 0.17007 0.19625 0.39547 0.0
C1111 C 0.18313 0.19295 0.37264 0.0
C1112 C 0.17142 0.20511 0.35188 0.0
C1113 C 0.14687 0.22227 0.35447 0.0
C1114 C 0.13426 0.22769 0.37766 0.0
C1115 C 0.14535 0.21357 0.39843 0.0
H1116 H 0.09513 0.94103 0.11168 0.0
H1117 H 0.13527 0.91294 0.17853 0.0
H1118 H 0.07062 0.84985 0.1818 0.0
H1119 H 0.99485 0.90452 0.12834 0.0
H1120 H 0.97375 0.88381 0.09907 0.0
H1121 H 1.02399 0.92531 0.10116 0.0
H1122 H 0.04875 0.88508 0.07714 0.0
H1123 H 0.99972 0.84129 0.07593 0.0
H1124 H 0.04138 0.83834 0.08869 0.0
H1125 H 0.99753 0.79782 0.18198 0.0
H1126 H 0.92548 0.75198 0.1748 0.0
H1127 H 0.93433 0.80669 0.10478 0.0
C1128 C 0.09062 0.92094 0.12661 0.0
C1129 C 0.12034 0.93162 0.14479 0.0
C1130 C 0.11321 0.905 0.16426 0.0
C1131 C 0.07645 0.86927 0.16633 0.0
C1132 C 0.04739 0.86007 0.14846 0.0
C1133 C 0.0544 0.88456 0.1286 0.0
C1134 C 1.01779 0.86779 0.11214 0.0
C1135 C 1.00166 0.8971 0.11007 0.0
C1136 C 0.02743 0.85746 0.08699 0.0
C1137 C 0.98882 0.83043 0.12608 0.0
C1138 C 1.00633 0.82722 0.1473 0.0
C1139 C 0.98405 0.79897 0.16498 0.0
C1140 C 0.94311 0.77305 0.16077 0.0
C1141 C 0.925 0.77407 0.13861 0.0
C1142 C 0.94814 0.80345 0.12112 0.0
H1143 H 0.83257 0.9479 0.33958 0.0
H1144 H 0.85091 0.91579 0.41203 0.0
H1145 H 0.8619 0.9808 0.42744 0.0
H1146 H 0.90918 0.04756 0.34198 0.0
H1147 H 0.88268 0.0668 0.32461 0.0
H1148 H 0.87179 0.01614 0.32017 0.0
H1149 H 0.798 0.99266 0.32836 0.0
H1150 H 0.80711 0.04224 0.33526 0.0
H1151 H 0.78274 1.00251 0.35716 0.0
H1152 H 0.88234 0.05353 0.43331 0.0
H1153 H 0.90362 0.1255 0.42994 0.0
H1154 H 0.86904 0.10909 0.35427 0.0
C1155 C 0.83832 0.95426 0.35877 0.0
C1156 C 0.84087 0.92668 0.37461 0.0
C1157 C 0.84827 0.93615 0.39961 0.0
C1158 C 0.85478 0.97312 0.40849 0.0
C1159 C 0.85332 1.00011 0.3922 0.0
C1160 C 0.84481 0.9909 0.3679 0.0
C1161 C 0.84729 0.02586 0.35384 0.0
C1162 C 0.87966 0.03991 0.33399 0.0
C1163 C 0.80636 1.01525 0.34302 0.0
C1164 C 0.85932 0.05656 0.37392 0.0
C1165 C 0.86284 0.04122 0.39592 0.0
C1166 C 0.87824 0.0654 0.41642 0.0
C1167 C 0.88997 0.1061 0.41444 0.0
C1168 C 0.88557 0.12198 0.39228 0.0
C1169 C 0.87051 0.09699 0.37175 0.0
H1170 H 0.22462 0.12693 0.60881 0.0
H1171 H 0.28299 0.16134 0.67909 0.0
H1172 H 0.25727 0.20793 0.68479 0.0
H1173 H 0.24436 0.21808 0.58989 0.0
H1174 H 0.19737 0.20861 0.5768 0.0
H1175 H 0.21086 0.17 0.57731 0.0
H1176 H 0.15023 0.12013 0.60096 0.0
H1177 H 0.13086 0.15407 0.59832 0.0
H1178 H 0.13472 0.13574 0.62774 0.0
H1179 H 0.22549 0.25019 0.68364 0.0
H1180 H 0.19072 0.28801 0.67499 0.0
H1181 H 0.15598 0.23222 0.60423 0.0
C1182 C 0.2312 0.1437 0.62558 0.0
C1183 C 0.256 0.14047 0.64352 0.0
C1184 C 0.26436 0.16341 0.66506 0.0
C1185 C 0.24979 0.18995 0.66849 0.0
C1186 C 0.22659 0.1934 0.65028 0.0
C1187 C 0.21681 0.17069 0.62934 0.0
C1188 C 0.19201 0.18142 0.61252 0.0
C1189 C 0.21233 0.19545 0.58766 0.0
C1190 C 0.14943 0.14572 0.60973 0.0
C1191 C 0.19139 0.21514 0.62676 0.0
C1192 C 0.21049 0.22039 0.64884 0.0
C1193 C 0.21111 0.24693 0.66624 0.0
C1194 C 0.1915 0.26854 0.66113 0.0
C1195 C 0.17276 0.26497 0.63846 0.0
C1196 C 0.17229 0.23745 0.62111 0.0
H1197 H 0.13589 0.90413 0.90181 0.0
H1198 H 0.1364 0.86801 0.82744 0.0
H1199 H 0.06412 0.84556 0.82391 0.0
H1200 H 0.02976 0.83034 0.9205 0.0
H1201 H 0.02857 0.87016 0.9365 0.0
H1202 H 0.07565 0.87134 0.93243 0.0
H1203 H 0.09896 0.94337 0.91388 0.0
H1204 H 0.04888 0.9358 0.91537 0.0
H1205 H 0.0747 0.94679 0.88669 0.0
H1206 H 0.99132 0.82745 0.82845 0.0
H1207 H 0.92682 0.82349 0.83878 0.0
H1208 H 0.97507 0.8762 0.90917 0.0
C1209 C 0.12032 0.89034 0.88509 0.0
C1210 C 0.14106 0.88586 0.86523 0.0
C1211 C 0.12056 0.87027 0.84307 0.0
C1212 C 0.07956 0.8575 0.84092 0.0
C1213 C 0.05971 0.86195 0.86083 0.0
C1214 C 0.07956 0.87868 0.88238 0.0
C1215 C 0.05279 0.88556 0.89967 0.0
C1216 C 0.04648 0.86303 0.9237 0.0
C1217 C 0.06985 0.93054 0.90416 0.0
C1218 C 1.01433 0.86812 0.88503 0.0
C1219 C 1.01885 0.85463 0.86269 0.0
C1220 C 0.98744 0.83783 0.84596 0.0
C1221 C 0.95069 0.83532 0.85208 0.0
C1222 C 0.94554 0.84959 0.87476 0.0
C1223 C 0.97787 0.86551 0.8915 0.0
H1224 H 0.79009 0.9233 0.66997 0.0
H1225 H 0.78718 0.90254 0.59253 0.0
H1226 H 0.83563 0.97438 0.58603 0.0
H1227 H 0.79812 0.0207 0.66902 0.0
H1228 H 0.83177 0.03757 0.69444 0.0
H1229 H 0.79631 0.98518 0.69104 0.0
H1230 H 0.85747 0.97295 0.69385 0.0
H1231 H 0.89183 0.02595 0.69527 0.0
H1232 H 0.89728 0.99628 0.67189 0.0
H1233 H 0.88109 0.04998 0.58806 0.0
H1234 H 0.92193 0.12164 0.59846 0.0
H1235 H 0.89754 0.09213 0.67488 0.0
C1236 C 0.79958 0.93406 0.65165 0.0
C1237 C 0.78375 0.90788 0.63161 0.0
C1238 C 0.79787 0.92251 0.608 0.0
C1239 C 0.82565 0.96316 0.60419 0.0
C1240 C 0.83959 0.98862 0.62427 0.0
C1241 C 0.82734 0.9745 0.64758 0.0
C1242 C 0.84744 1.0078 0.66611 0.0
C1243 C 0.81651 1.01303 0.68101 0.0
C1244 C 0.87515 1.00029 0.68276 0.0
C1245 C 0.87134 0.04323 0.64953 0.0
C1246 C 0.8668 0.03156 0.62548 0.0
C1247 C 0.8852 0.05933 0.60686 0.0
C1248 C 0.90853 0.10003 0.61296 0.0
C1249 C 0.91311 0.11279 0.63749 0.0
C1250 C 0.89448 0.08363 0.65593 0.0
H1251 H 0.16989 0.25909 0.8442 0.0
H1252 H 0.14909 0.25702 0.92155 0.0
H1253 H 0.16905 0.20508 0.92664 0.0
H1254 H 0.13074 0.15548 0.83718 0.0
H1255 H 0.16654 0.16004 0.81449 0.0
H1256 H 0.1534 0.19861 0.81759 0.0
H1257 H 0.2283 0.25206 0.82394 0.0
H1258 H 0.24099 0.21327 0.81981 0.0
H1259 H 0.25697 0.24365 0.84675 0.0
H1260 H 0.18876 0.14971 0.9221 0.0
H1261 H 0.20315 0.09666 0.90849 0.0
H1262 H 0.21314 0.13849 0.83434 0.0
C1263 C 0.17029 0.2482 0.86228 0.0
C1264 C 0.15925 0.2629 0.8826 0.0
C1265 C 0.15872 0.24701 0.90587 0.0
C1266 C 0.1698 0.21737 0.90885 0.0
C1267 C 0.18124 0.20392 0.88838 0.0
C1268 C 0.18159 0.21908 0.86555 0.0
C1269 C 0.19314 0.19873 0.8462 0.0
C1270 C 0.15891 0.17692 0.82779 0.0
C1271 C 0.23216 0.22874 0.83344 0.0
C1272 C 0.1991 0.16948 0.86155 0.0
C1273 C 0.19225 0.17274 0.88585 0.0
C1274 C 0.19446 0.14727 0.90312 0.0
C1275 C 0.20296 0.11732 0.89525 0.0
C1276 C 0.20907 0.11292 0.87029 0.0
C1277 C 0.20807 0.14033 0.85352 0.0
H1278 H 0.11838 0.87092 0.66792 0.0
H1279 H 0.13609 0.88525 0.59013 0.0
H1280 H 0.06327 0.85904 0.58438 0.0
H1281 H 1.02338 0.77943 0.66789 0.0
H1282 H 1.00475 0.79478 0.69324 0.0
H1283 H 0.05777 0.81391 0.68997 0.0
H1284 H 0.06781 0.8859 0.69221 0.0
H1285 H 1.01449 0.86594 0.69438 0.0
H1286 H 0.04247 0.90079 0.67058 0.0
H1287 H 0.98732 0.82885 0.58746 0.0
H1288 H 0.91592 0.79877 0.5989 0.0
H1289 H 0.94867 0.80612 0.67489 0.0
C1290 C 0.10676 0.86826 0.64968 0.0
C1291 C 0.13248 0.87876 0.62938 0.0
C1292 C 0.1166 0.87612 0.60583 0.0
C1293 C 0.07535 0.86159 0.60245 0.0
C1294 C 0.05051 0.85038 0.62284 0.0
C1295 C 0.06573 0.8538 0.64602 0.0
C1296 C 0.03293 0.84031 0.66495 0.0
C1297 C 0.02956 0.80503 0.67988 0.0
C1298 C 0.03984 0.87532 0.6815 0.0
C1299 C 0.99661 0.82758 0.64883 0.0
C1300 C 1.00733 0.83389 0.62461 0.0
C1301 C 0.97871 0.82405 0.60639 0.0
C1302 C 0.93817 0.80714 0.61308 0.0
C1303 C 0.9264 0.79992 0.63781 0.0
C1304 C 0.95637 0.81072 0.65581 0.0
H1305 H 0.9278 0.08061 0.92717 0.0
H1306 H 0.93991 0.12767 0.85403 0.0
H1307 H 0.88266 0.06378 0.841 0.0
H1308 H 0.90647 0.98281 0.90789 0.0
H1309 H 0.87237 0.95783 0.93284 0.0
H1310 H 0.91274 1.00824 0.93632 0.0
H1311 H 0.86203 0.02729 0.94992 0.0
H1312 H 0.81895 0.97925 0.9438 0.0
H1313 H 0.82432 0.02395 0.92946 0.0
H1314 H 0.82794 0.99361 0.83474 0.0
H1315 H 0.77791 0.92188 0.83569 0.0
H1316 H 0.79986 0.91787 0.91259 0.0
C1317 C 0.91874 0.07771 0.90834 0.0
C1318 C 0.93879 0.10999 0.89176 0.0
C1319 C 0.92497 0.10431 0.8674 0.0
C1320 C 0.89251 0.06779 0.85971 0.0
C1321 C 0.87398 0.03673 0.87644 0.0
C1322 C 0.88667 0.0412 0.90023 0.0
C1323 C 0.86267 1.00243 0.91428 0.0
C1324 C 0.89018 0.98683 0.92333 0.0
C1325 C 0.84054 1.00847 0.93561 0.0
C1326 C 0.83396 0.97535 0.89466 0.0
C1327 C 0.8415 0.99599 0.87295 0.0
C1328 C 0.82132 0.97732 0.85168 0.0
C1329 C 0.79293 0.93652 0.85239 0.0
C1330 C 0.78402 0.91452 0.87428 0.0
C1331 C 0.80494 0.93426 0.89578 0.0
H1332 H 0.3124 0.12955 0.3053 0.0
H1333 H 0.42985 0.23004 0.32108 0.0
H1334 H 0.44102 0.24494 0.27711 0.0
H1335 H 0.3433 0.09607 0.25439 0.0
H1336 H 0.29713 0.07936 0.238 0.0
H1337 H 0.29719 0.08031 0.27067 0.0
H1338 H 0.26414 0.12497 0.26963 0.0
H1339 H 0.26448 0.12436 0.23692 0.0
H1340 H 0.288 0.17131 0.25296 0.0
H1341 H 0.44067 0.2455 0.23032 0.0
H1342 H 0.42997 0.23032 0.18633 0.0
H1343 H 0.31433 0.12707 0.20201 0.0
C1344 C 0.34046 0.15492 0.29963 0.0
C1345 C 0.37019 0.17872 0.31683 0.0
C1346 C 0.40627 0.21175 0.30843 0.0
C1347 C 0.41297 0.22027 0.28341 0.0
C1348 C 0.38337 0.19543 0.26694 0.0
C1349 C 0.34784 0.16336 0.27482 0.0
C1350 C 0.32191 0.13933 0.25364 0.0
C1351 C 0.31446 0.09623 0.25422 0.0
C1352 C 0.28229 0.14005 0.25327 0.0
C1353 C 0.34844 0.16254 0.2325 0.0
C1354 C 0.38361 0.19509 0.24042 0.0
C1355 C 0.41308 0.2202 0.224 0.0
C1356 C 0.40669 0.21144 0.199 0.0
C1357 C 0.37131 0.17753 0.1906 0.0
C1358 C 0.34171 0.15327 0.20772 0.0
H1359 H 0.86532 0.72255 0.30509 0.0
H1360 H 0.8248 0.59809 0.32024 0.0
H1361 H 0.82934 0.58611 0.27626 0.0
H1362 H 0.81325 0.711 0.2527 0.0
H1363 H 0.85254 0.7546 0.23784 0.0
H1364 H 0.85032 0.75229 0.2704 0.0
H1365 H 0.92358 0.76521 0.27053 0.0
H1366 H 0.92433 0.76583 0.23778 0.0
H1367 H 0.93523 0.73181 0.25409 0.0
H1368 H 0.8299 0.58689 0.22936 0.0
H1369 H 0.82644 0.60034 0.18552 0.0
H1370 H 0.86609 0.72413 0.20217 0.0
C1371 C 0.85826 0.69297 0.29915 0.0
C1372 C 0.84469 0.66119 0.3159 0.0
C1373 C 0.83566 0.62287 0.30763 0.0
C1374 C 0.83815 0.61588 0.2827 0.0
C1375 C 0.85069 0.64779 0.26645 0.0
C1376 C 0.86132 0.68577 0.27454 0.0
C1377 C 0.87164 0.71465 0.25358 0.0
C1378 C 0.84534 0.73431 0.25367 0.0
C1379 C 0.91635 0.74624 0.25403 0.0
C1380 C 0.86198 0.68651 0.23227 0.0
C1381 C 0.85116 0.64827 0.23991 0.0
C1382 C 0.839 0.61689 0.22327 0.0
C1383 C 0.83716 0.62472 0.19841 0.0
C1384 C 0.8466 0.66335 0.19058 0.0
C1385 C 0.85953 0.69453 0.20772 0.0
H1386 H 0.90168 0.26453 0.20784 0.0
H1387 H 0.82848 0.13826 0.19197 0.0
H1388 H 0.81607 0.12402 0.23596 0.0
H1389 H 0.94953 0.26095 0.25898 0.0
H1390 H 0.94574 0.2992 0.27583 0.0
H1391 H 0.94487 0.29973 0.24334 0.0
H1392 H 0.87808 0.29946 0.24399 0.0
H1393 H 0.8788 0.2992 0.27672 0.0
H1394 H 0.83628 0.26103 0.26053 0.0
H1395 H 0.81722 0.12336 0.28239 0.0
H1396 H 0.8305 0.13645 0.32638 0.0
H1397 H 0.9024 0.26332 0.31169 0.0
C1398 C 0.88245 0.23396 0.21364 0.0
C1399 C 0.86605 0.20245 0.1965 0.0
C1400 C 0.841 0.16287 0.20475 0.0
C1401 C 0.83389 0.15452 0.22973 0.0
C1402 C 0.85118 0.1862 0.24622 0.0
C1403 C 0.87421 0.22525 0.23843 0.0
C1404 C 0.88946 0.25386 0.25981 0.0
C1405 C 0.9352 0.27988 0.25946 0.0
C1406 C 0.86946 0.27992 0.26029 0.0
C1407 C 0.87506 0.22465 0.28084 0.0
C1408 C 0.85175 0.18583 0.27272 0.0
C1409 C 0.83516 0.1537 0.28889 0.0
C1410 C 0.84285 0.16141 0.31388 0.0
C1411 C 0.86757 0.20087 0.3225 0.0
C1412 C 0.88356 0.2328 0.30566 0.0
H1413 H 0.15973 0.30684 0.70704 0.0
H1414 H 0.23364 0.43204 0.68949 0.0
H1415 H 0.25126 0.4472 0.73309 0.0
H1416 H 0.11862 0.31439 0.75505 0.0
H1417 H 0.11906 0.27772 0.7754 0.0
H1418 H 0.12025 0.2717 0.74314 0.0
H1419 H 0.18558 0.27073 0.74295 0.0
H1420 H 0.1848 0.27155 0.77569 0.0
H1421 H 0.22819 0.30821 0.75941 0.0
H1422 H 0.25166 0.4492 0.77963 0.0
H1423 H 0.23519 0.43782 0.82355 0.0
H1424 H 0.16229 0.311 0.81016 0.0
C1425 C 0.18109 0.33717 0.71227 0.0
C1426 C 0.19595 0.36822 0.69492 0.0
C1427 C 0.22265 0.40777 0.70247 0.0
C1428 C 0.23279 0.41657 0.72721 0.0
C1429 C 0.21693 0.38527 0.74404 0.0
C1430 C 0.19259 0.34614 0.7367 0.0
C1431 C 0.17679 0.31824 0.75836 0.0
C1432 C 0.13089 0.29405 0.75805 0.0
C1433 C 0.19493 0.29055 0.75915 0.0
C1434 C 0.1926 0.34802 0.77911 0.0
C1435 C 0.21698 0.38644 0.7706 0.0
C1436 C 0.23337 0.41913 0.78643 0.0
C1437 C 0.22405 0.41245 0.81137 0.0
C1438 C 0.19821 0.3735 0.8202 0.0
C1439 C 0.18285 0.34096 0.80387 0.0
H1440 H 0.28213 0.8801 0.80356 0.0
H1441 H 0.15532 0.81483 0.82002 0.0
H1442 H 0.14017 0.79869 0.77651 0.0
H1443 H 0.31755 0.91773 0.73507 0.0
H1444 H 0.31951 0.9175 0.76757 0.0
H1445 H 0.28169 0.92457 0.75251 0.0
H1446 H 0.31326 0.84825 0.76793 0.0
H1447 H 0.31247 0.84801 0.73518 0.0
H1448 H 0.27269 0.80761 0.75185 0.0
H1449 H 0.13872 0.79915 0.73028 0.0
H1450 H 0.15154 0.81489 0.68645 0.0
H1451 H 0.27921 0.87802 0.70038 0.0
C1452 C 0.25125 0.86134 0.79806 0.0
C1453 C 0.21988 0.84877 0.8152 0.0
C1454 C 0.17985 0.82453 0.80731 0.0
C1455 C 0.17096 0.81518 0.78257 0.0
C1456 C 0.2025 0.82903 0.76599 0.0
C1457 C 0.24196 0.8506 0.77354 0.0
C1458 C 0.27024 0.86332 0.75199 0.0
C1459 C 0.29895 0.90856 0.75178 0.0
C1460 C 0.29353 0.84042 0.75172 0.0
C1461 C 0.24062 0.85011 0.73116 0.0
C1462 C 0.20166 0.82881 0.73949 0.0
C1463 C 0.16915 0.81513 0.72358 0.0
C1464 C 0.17668 0.82412 0.69868 0.0
C1465 C 0.21634 0.84744 0.69003 0.0
C1466 C 0.24858 0.85987 0.7065 0.0
H1467 H 0.73178 0.85744 0.7044 0.0
H1468 H 0.60535 0.80348 0.68845 0.0
H1469 H 0.59145 0.8076 0.7321 0.0
H1470 H 0.7253 0.80935 0.75569 0.0
H1471 H 0.76433 0.84934 0.77307 0.0
H1472 H 0.76635 0.85076 0.74046 0.0
H1473 H 0.76896 0.91858 0.73912 0.0
H1474 H 0.76898 0.91943 0.77187 0.0
H1475 H 0.73186 0.92525 0.75519 0.0
H1476 H 0.59103 0.80864 0.77867 0.0
H1477 H 0.60427 0.80669 0.82268 0.0
H1478 H 0.73099 0.86072 0.80775 0.0
C1479 C 0.70136 0.84785 0.71006 0.0
C1480 C 0.66963 0.83073 0.69313 0.0
C1481 C 0.63007 0.81746 0.70113 0.0
C1482 C 0.62198 0.81965 0.72589 0.0
C1483 C 0.65391 0.83595 0.74234 0.0
C1484 C 0.69297 0.8506 0.73459 0.0
C1485 C 0.7217 0.86399 0.75593 0.0
C1486 C 0.74589 0.84206 0.75633 0.0
C1487 C 0.74952 0.90952 0.7555 0.0
C1488 C 0.69257 0.85166 0.777 0.0
C1489 C 0.65367 0.83663 0.76889 0.0
C1490 C 0.62148 0.82118 0.78516 0.0
C1491 C 0.62919 0.82032 0.81014 0.0
C1492 C 0.66868 0.83442 0.81856 0.0
C1493 C 0.70065 0.85077 0.80178 0.0
H1494 H 0.31005 0.96862 0.95827 0.0
H1495 H 0.19058 0.9517 0.95038 0.0
H1496 H 0.20492 1.00131 0.98323 0.0
H1497 H 0.31371 0.97706 0.02372 0.0
H1498 H 0.3664 1.01369 0.02438 0.0
H1499 H 0.34649 0.97764 1.00016 0.0
H1500 H 0.37487 0.03476 0.96867 0.0
H1501 H 0.39465 0.07125 0.99272 0.0
H1502 H 0.36136 0.0733 0.97045 0.0
H1503 H 0.23569 0.05809 0.01494 0.0
H1504 H 0.27354 0.10457 0.04847 0.0
H1505 H 0.37012 0.07893 0.03822 0.0
C1506 C 0.28673 0.97501 0.96371 0.0
C1507 C 0.24914 0.95632 0.95186 0.0
C1508 C 0.21934 0.96529 0.95947 0.0
C1509 C 0.22748 0.99383 0.97788 0.0
C1510 C 0.26539 1.01266 0.98873 0.0
C1511 C 0.2941 1.00271 0.98232 0.0
C1512 C 0.33177 0.02563 0.99745 0.0
C1513 C 0.34008 0.99679 0.01234 0.0
C1514 C 0.36779 0.05284 0.98136 0.0
C1515 C 0.3199 0.05003 0.01357 0.0
C1516 C 0.28194 0.04305 0.00779 0.0
C1517 C 0.26524 0.06339 0.01968 0.0
C1518 C 0.28713 0.09016 0.03852 0.0
C1519 C 0.32492 0.09579 0.0457 0.0
C1520 C 0.34157 0.07571 0.03282 0.0
H1521 H 0.74421 0.71527 0.44905 0.0
H1522 H 0.85872 0.7326 0.47396 0.0
H1523 H 0.85079 0.76169 0.51218 0.0
H1524 H 0.75397 0.80588 0.47331 0.0
H1525 H 0.70207 0.7841 0.48185 0.0
H1526 H 0.71611 0.76375 0.45668 0.0
H1527 H 0.68101 0.69382 0.47675 0.0
H1528 H 0.6662 0.71376 0.50175 0.0
H1529 H 0.69406 0.68829 0.50739 0.0
H1530 H 0.83061 0.79047 0.54765 0.0
H1531 H 0.79762 0.81066 0.57866 0.0
H1532 H 0.69579 0.77464 0.53104 0.0
C1533 C 0.76754 0.72467 0.4626 0.0
C1534 C 0.80191 0.72062 0.45848 0.0
C1535 C 0.83165 0.73398 0.47678 0.0
C1536 C 0.82759 0.75117 0.49847 0.0
C1537 C 0.79355 0.75497 0.50174 0.0
C1538 C 0.76382 0.74169 0.48437 0.0
C1539 C 0.72985 0.74864 0.49244 0.0
C1540 C 0.72524 0.77729 0.47503 0.0
C1541 C 0.69045 0.70876 0.49472 0.0
C1542 C 0.74497 0.76793 0.51714 0.0
C1543 C 0.78199 0.7716 0.52203 0.0
C1544 C 0.80175 0.78779 0.54388 0.0
C1545 C 0.78287 0.79941 0.56137 0.0
C1546 C 0.74455 0.79501 0.55712 0.0
C1547 C 0.72558 0.77947 0.53453 0.0
H1548 H 0.08831 0.27208 0.97024 0.0
H1549 H 0.08726 0.38113 0.95258 0.0
H1550 H 0.03594 0.36607 0.98389 0.0
H1551 H 0.98539 0.21128 0.98236 0.0
H1552 H 0.99063 0.18576 0.00834 0.0
H1553 H 0.02881 0.20527 0.98523 0.0
H1554 H 0.08276 0.24662 0.01744 0.0
H1555 H 0.04487 0.22633 0.04069 0.0
H1556 H 0.07541 0.27967 0.03727 0.0
H1557 H 0.97906 0.33572 0.01401 0.0
H1558 H 0.9323 0.30035 0.04787 0.0
H1559 H 0.97351 0.21415 0.04951 0.0
C1560 C 0.07826 0.29339 0.97361 0.0
C1561 C 0.09171 0.32779 0.95881 0.0
C1562 C 0.07712 0.35446 0.96349 0.0
C1563 C 0.04779 0.34607 0.9812 0.0
C1564 C 0.03357 0.31108 0.99466 0.0
C1565 C 0.04927 0.28582 0.99178 0.0
C1566 C 0.02916 0.25076 0.00931 0.0
C1567 C 1.0072 0.21091 0.99548 0.0
C1568 C 0.05988 0.25086 0.02724 0.0
C1569 C 0.99962 0.26015 0.02212 0.0
C1570 C 1.00214 0.29468 0.01302 0.0
C1571 C 0.97712 0.30883 0.02146 0.0
C1572 C 0.95014 0.28824 0.04046 0.0
C1573 C 0.94887 0.25431 0.05118 0.0
C1574 C 0.97353 0.23981 0.04151 0.0
H1575 H 0.36718 0.09582 0.47575 0.0
H1576 H 0.256 0.08885 0.45343 0.0
H1577 H 0.21971 0.0385 0.48532 0.0
H1578 H 0.32939 0.99511 0.48712 0.0
H1579 H 0.35907 1.00063 0.51369 0.0
H1580 H 0.37738 0.03953 0.49113 0.0
H1581 H 0.38522 0.09138 0.52377 0.0
H1582 H 0.36786 0.05274 0.54652 0.0
H1583 H 0.34307 0.08166 0.54268 0.0
H1584 H 0.19397 0.98114 0.51582 0.0
H1585 H 0.18319 0.93195 0.54821 0.0
H1586 H 0.31135 0.9789 0.55253 0.0
C1587 C 0.33561 0.08529 0.47852 0.0
C1588 C 0.31461 0.0974 0.46271 0.0
C1589 C 0.27285 0.08112 0.46594 0.0
C1590 C 0.25189 0.052 0.48378 0.0
C1591 C 0.2731 0.03944 0.49847 0.0
C1592 C 0.31426 0.05647 0.49656 0.0
C1593 C 0.3297 0.03693 0.51424 0.0
C1594 C 0.3501 0.01688 0.50072 0.0
C1595 C 0.35814 0.0675 0.53291 0.0
C1596 C 0.29086 1.00598 0.52605 0.0
C1597 C 0.25843 1.00742 0.51646 0.0
C1598 C 0.21929 0.98026 0.52373 0.0
C1599 C 0.21332 0.95205 0.54191 0.0
C1600 C 0.24633 0.95159 0.55292 0.0
C1601 C 0.28548 0.97863 0.54453 0.0
H1602 H 0.75391 0.72012 0.05937 0.0
H1603 H 0.87756 0.7606 0.03988 0.0
H1604 H 0.86948 0.79318 1.00325 0.0
H1605 H 0.7144 0.69777 0.99863 0.0
H1606 H 0.67845 0.71411 1.00373 0.0
H1607 H 0.69448 0.69512 0.02864 0.0
H1608 H 0.71558 0.76047 0.05252 0.0
H1609 H 0.70012 0.77992 0.02754 0.0
H1610 H 0.7505 0.80777 0.03908 0.0
H1611 H 0.84782 0.82157 0.96857 0.0
H1612 H 0.81304 0.83778 0.93679 0.0
H1613 H 0.70266 0.77794 0.97765 0.0
C1614 C 0.77943 0.73585 0.04746 0.0
C1615 C 0.81656 0.73769 0.05271 0.0
C1616 C 0.84885 0.75847 0.03638 0.0
C1617 C 0.84456 0.77733 0.01556 0.0
C1618 C 0.80773 0.77523 0.01113 0.0
C1619 C 0.77558 0.75464 0.0265 0.0
C1620 C 0.73875 0.75561 0.0171 0.0
C1621 C 0.7045 0.71313 0.0117 0.0
C1622 C 0.72546 0.77723 0.03514 0.0
C1623 C 0.75503 0.77973 0.99388 0.0
C1624 C 0.79506 0.79112 0.991 0.0
C1625 C 0.81657 0.81286 0.97078 0.0
C1626 C 0.79657 0.82213 0.95277 0.0
C1627 C 0.75537 0.80987 0.95478 0.0
C1628 C 0.73445 0.78878 0.97587 0.0
H1629 H 0.08639 0.35301 0.54705 0.0
H1630 H 0.08268 0.2417 0.56437 0.0
H1631 H 0.02944 0.20678 0.53343 0.0
H1632 H 0.98325 0.31487 0.5368 0.0
H1633 H 0.98912 0.34674 0.51136 0.0
H1634 H 0.02764 0.36317 0.53419 0.0
H1635 H 0.08046 0.3744 0.5014 0.0
H1636 H 0.04232 0.359 0.4784 0.0
H1637 H 0.0715 0.33424 0.48096 0.0
H1638 H 0.9712 0.18308 0.50261 0.0
H1639 H 0.92404 0.17532 0.4695 0.0
H1640 H 0.97002 0.30315 0.46993 0.0
C1641 C 0.07513 0.3215 0.54379 0.0
C1642 C 0.08923 0.30014 0.55777 0.0
C1643 C 0.07307 0.25877 0.55343 0.0
C1644 C 0.04242 0.23865 0.5361 0.0
C1645 C 0.02848 0.26038 0.52296 0.0
C1646 C 0.04523 0.30119 0.52613 0.0
C1647 C 0.02588 0.31796 0.50926 0.0
C1648 C 1.00526 0.3368 0.52378 0.0
C1649 C 0.05688 0.34818 0.49144 0.0
C1650 C 0.99532 0.28028 0.49623 0.0
C1651 C 0.99664 0.24719 0.50469 0.0
C1652 C 0.97028 0.20894 0.49577 0.0
C1653 C 0.94312 0.20467 0.47717 0.0
C1654 C 0.94286 0.23847 0.46729 0.0
C1655 C 0.96911 0.27664 0.47728 0.0
H1656 H 0.60551 0.12184 0.06237 0.0
H1657 H 0.66198 0.17093 0.13174 0.0
H1658 H 0.6008 0.17163 0.14518 0.0
H1659 H 0.55461 0.1778 0.05647 0.0
H1660 H 0.51089 0.13733 0.04251 0.0
H1661 H 0.55895 0.1406 0.03896 0.0
H1662 H 0.52897 0.0689 0.05567 0.0
H1663 H 0.481 0.06547 0.06056 0.0
H1664 H 0.50662 0.0573 0.08541 0.0
H1665 H 0.53233 0.16741 0.15069 0.0
H1666 H 0.46652 0.16407 0.14624 0.0
H1667 H 0.45509 0.11654 0.07366 0.0
C1668 C 0.60506 0.13253 0.08048 0.0
C1669 C 0.63878 0.14616 0.09602 0.0
C1670 C 0.63689 0.16065 0.11938 0.0
C1671 C 0.60202 0.16076 0.12726 0.0
C1672 C 0.56913 0.14634 0.11161 0.0
C1673 C 0.57062 0.13284 0.0886 0.0
C1674 C 0.5319 0.12009 0.07487 0.0
C1675 C 0.53956 0.14548 0.05185 0.0
C1676 C 0.51087 0.07528 0.06877 0.0
C1677 C 0.50842 0.12892 0.09358 0.0
C1678 C 0.53013 0.14367 0.11479 0.0
C1679 C 0.51504 0.15547 0.13424 0.0
C1680 C 0.47745 0.15312 0.13169 0.0
C1681 C 0.45518 0.13878 0.10993 0.0
C1682 C 0.47093 0.12638 0.09077 0.0
H1683 H 0.72515 0.57147 0.34771 0.0
H1684 H 0.73089 0.59511 0.42485 0.0
H1685 H 0.6669 0.53203 0.4308 0.0
H1686 H 0.61455 0.52273 0.34124 0.0
H1687 H 0.61395 0.48784 0.31926 0.0
H1688 H 0.65726 0.53693 0.32179 0.0
H1689 H 0.70086 0.50311 0.32806 0.0
H1690 H 0.65704 0.4543 0.32665 0.0
H1691 H 0.68939 0.4685 0.35282 0.0
H1692 H 0.60405 0.46365 0.42841 0.0
H1693 H 0.54587 0.39819 0.41763 0.0
H1694 H 0.58257 0.41861 0.34208 0.0
C1695 C 0.71211 0.56387 0.3657 0.0
C1696 C 0.73186 0.58888 0.38569 0.0
C1697 C 0.71518 0.57714 0.40919 0.0
C1698 C 0.67911 0.54117 0.41274 0.0
C1699 C 0.66037 0.517 0.39263 0.0
C1700 C 0.67614 0.52807 0.36953 0.0
C1701 C 0.65127 0.49596 0.35115 0.0
C1702 C 0.63321 0.51184 0.33223 0.0
C1703 C 0.67613 0.4795 0.33896 0.0
C1704 C 0.61915 0.46495 0.36747 0.0
C1705 C 0.62489 0.47755 0.39135 0.0
C1706 C 0.59921 0.45361 0.40973 0.0
C1707 C 0.5664 0.41625 0.40347 0.0
C1708 C 0.55939 0.40307 0.37901 0.0
C1709 C 0.58662 0.42784 0.36092 0.0
H1710 H 0.88911 0.32545 0.16372 0.0
H1711 H 0.91025 0.31652 0.08746 0.0
H1712 H 0.91095 0.38008 0.07959 0.0
H1713 H 0.82027 0.35625 0.15559 0.0
H1714 H 0.83525 0.3902 0.18097 0.0
H1715 H 0.84445 0.34878 0.18152 0.0
H1716 H 0.92 0.39695 0.18871 0.0
H1717 H 0.91111 0.43872 0.18855 0.0
H1718 H 0.9474 0.438 0.16814 0.0
H1719 H 0.90024 0.44015 0.07928 0.0
H1720 H 0.87904 0.49028 0.08637 0.0
H1721 H 0.86348 0.45975 0.16293 0.0
C1722 C 0.89571 0.33795 0.14559 0.0
C1723 C 0.90169 0.3171 0.12639 0.0
C1724 C 0.90768 0.33301 0.10261 0.0
C1725 C 0.90773 0.36896 0.09797 0.0
C1726 C 0.90111 0.38854 0.11724 0.0
C1727 C 0.8955 0.37369 0.14065 0.0
C1728 C 0.88488 0.39803 0.15771 0.0
C1729 C 0.84378 0.37174 0.16964 0.0
C1730 C 0.91781 0.41919 0.17692 0.0
C1731 C 0.88375 0.42785 0.14013 0.0
C1732 C 0.89386 0.42235 0.11695 0.0
C1733 C 0.89291 0.44506 0.09746 0.0
C1734 C 0.88093 0.47369 0.10169 0.0
C1735 C 0.86952 0.47933 0.12521 0.0
C1736 C 0.87171 0.45628 0.14467 0.0
H1737 H 0.44978 0.11868 0.44122 0.0
H1738 H 0.45681 0.15179 0.36555 0.0
H1739 H 0.52376 0.1572 0.36261 0.0
H1740 H 0.54944 0.18394 0.45659 0.0
H1741 H 0.55494 0.14994 0.47659 0.0
H1742 H 0.50636 0.14508 0.47201 0.0
H1743 H 0.47757 0.07153 0.45843 0.0
H1744 H 0.52585 0.07579 0.46351 0.0
H1745 H 0.50182 0.05988 0.43433 0.0
H1746 H 0.59471 0.16557 0.36978 0.0
H1747 H 0.65649 0.16702 0.38458 0.0
H1748 H 0.60178 0.12777 0.4554 0.0
C1749 C 0.46498 0.12599 0.42384 0.0
C1750 C 0.44754 0.13395 0.40347 0.0
C1751 C 0.46894 0.14449 0.38124 0.0
C1752 C 0.50727 0.14806 0.37951 0.0
C1753 C 0.52407 0.141 0.40017 0.0
C1754 C 0.50305 0.12937 0.42179 0.0
C1755 C 0.52758 0.12397 0.4415 0.0
C1756 C 0.53501 0.15243 0.46293 0.0
C1757 C 0.50699 0.08019 0.44994 0.0
C1758 C 0.56617 0.13532 0.42792 0.0
C1759 C 0.56381 0.14517 0.40409 0.0
C1760 C 0.5965 0.15751 0.38837 0.0
C1761 C 0.63178 0.15871 0.39701 0.0
C1762 C 0.63436 0.14745 0.42117 0.0
C1763 C 0.60098 0.13623 0.43676 0.0
H1764 H 0.57547 0.43291 0.06959 0.0
H1765 H 0.55495 0.39993 0.1456 0.0
H1766 H 0.617 0.46284 0.1563 0.0
H1767 H 0.68315 0.47826 0.07067 0.0
H1768 H 0.69032 0.51668 0.04931 0.0
H1769 H 0.64522 0.46884 0.04831 0.0
H1770 H 0.60311 0.50428 0.05226 0.0
H1771 H 0.64811 0.55221 0.05379 0.0
H1772 H 0.61146 0.53696 0.07771 0.0
H1773 H 0.68148 0.53318 0.15826 0.0
H1774 H 0.74377 0.59768 0.15069 0.0
H1775 H 0.72048 0.58228 0.07341 0.0
C1776 C 0.58407 0.43871 0.08852 0.0
C1777 C 0.56014 0.41137 0.10677 0.0
C1778 C 0.57288 0.42011 0.13127 0.0
C1779 C 0.60792 0.45603 0.13751 0.0
C1780 C 0.63014 0.48286 0.11905 0.0
C1781 C 0.6188 0.47413 0.095 0.0
C1782 C 0.64758 0.50726 0.07836 0.0
C1783 C 0.66776 0.49183 0.06062 0.0
C1784 C 0.62628 0.52629 0.06473 0.0
C1785 C 0.6772 0.53609 0.09664 0.0
C1786 C 0.66662 0.52201 0.12011 0.0
C1787 C 0.68985 0.54422 0.13991 0.0
C1788 C 0.72503 0.58101 0.1355 0.0
C1789 C 0.73665 0.5952 0.11148 0.0
C1790 C 0.71214 0.57235 0.09197 0.0
H1791 H 0.83712 0.44595 0.36752 0.0
H1792 H 0.87305 0.48466 0.44166 0.0
H1793 H 0.90019 0.43838 0.44496 0.0
H1794 H 0.80285 0.34606 0.37626 0.0
H1795 H 0.82067 0.33735 0.3479 0.0
H1796 H 0.80976 0.37749 0.35037 0.0
H1797 H 0.8818 0.42783 0.33615 0.0
H1798 H 0.89286 0.38763 0.33363 0.0
H1799 H 0.924 0.43056 0.35215 0.0
H1800 H 0.91195 0.37883 0.44226 0.0
H1801 H 0.91102 0.3155 0.43292 0.0
H1802 H 0.8722 0.31889 0.35968 0.0
C1803 C 0.85165 0.44542 0.38425 0.0
C1804 C 0.8531 0.46909 0.40433 0.0
C1805 C 0.87208 0.46729 0.42595 0.0
C1806 C 0.88746 0.44094 0.42799 0.0
C1807 C 0.88445 0.41713 0.40806 0.0
C1808 C 0.86765 0.41977 0.38643 0.0
C1809 C 0.86564 0.38928 0.36819 0.0
C1810 C 0.82216 0.36087 0.36023 0.0
C1811 C 0.89269 0.41008 0.34623 0.0
C1812 C 0.88209 0.36772 0.38325 0.0
C1813 C 0.89314 0.38436 0.40616 0.0
C1814 C 0.90483 0.36656 0.42409 0.0
C1815 C 0.90461 0.33074 0.41858 0.0
C1816 C 0.8937 0.31345 0.39516 0.0
C1817 C 0.88267 0.33256 0.37733 0.0
H1818 H 0.12577 0.587 0.57488 0.0
H1819 H 0.20317 0.65193 0.63561 0.0
H1820 H 0.19688 0.5888 0.65074 0.0
H1821 H 0.06384 0.49093 0.60339 0.0
H1822 H 0.06442 0.46379 0.57686 0.0
H1823 H 0.06846 0.51219 0.57361 0.0
H1824 H 0.13465 0.53734 0.54955 0.0
H1825 H 0.13041 0.48894 0.55258 0.0
H1826 H 0.17506 0.53282 0.56287 0.0
H1827 H 0.18434 0.51631 0.658 0.0
H1828 H 0.17656 0.44869 0.65283 0.0
H1829 H 0.1188 0.43719 0.58355 0.0
C1830 C 0.14215 0.58892 0.59122 0.0
C1831 C 0.16545 0.62578 0.60367 0.0
C1832 C 0.18453 0.62479 0.6256 0.0
C1833 C 0.18128 0.58877 0.63438 0.0
C1834 C 0.15927 0.55361 0.621 0.0
C1835 C 0.14061 0.55384 0.59964 0.0
C1836 C 0.12305 0.51386 0.58674 0.0
C1837 C 0.07722 0.49403 0.58506 0.0
C1838 C 0.14194 0.51854 0.56145 0.0
C1839 C 0.13534 0.49108 0.60386 0.0
C1840 C 0.15491 0.51378 0.62404 0.0
C1841 C 0.16893 0.49847 0.64227 0.0
C1842 C 0.16405 0.45984 0.63933 0.0
C1843 C 0.14629 0.43734 0.61803 0.0
C1844 C 0.13166 0.45333 0.60026 0.0
H1845 H 0.32956 0.88238 0.86246 0.0
H1846 H 0.34189 0.91314 0.93881 0.0
H1847 H 0.40489 0.9111 0.94054 0.0
H1848 H 0.35813 0.81147 0.86715 0.0
H1849 H 0.38611 0.82227 0.83926 0.0
H1850 H 0.34666 0.83429 0.84212 0.0
H1851 H 0.39582 0.90828 0.83137 0.0
H1852 H 0.43522 0.89614 0.82778 0.0
H1853 H 0.44176 0.93541 0.84827 0.0
H1854 H 0.45978 0.89517 0.93616 0.0
H1855 H 0.50463 0.86915 0.92562 0.0
H1856 H 0.45942 0.84889 0.85161 0.0
C1857 C 0.34664 0.89051 0.87917 0.0
C1858 C 0.33146 0.89912 0.90038 0.0
C1859 C 0.35348 0.90742 0.92227 0.0
C1860 C 0.38929 0.90624 0.92344 0.0
C1861 C 0.40284 0.89625 0.90257 0.0
C1862 C 0.38257 0.88897 0.88072 0.0
C1863 C 0.40169 0.87489 0.86176 0.0
C1864 C 0.37133 0.83326 0.85201 0.0
C1865 C 0.41969 0.9055 0.84106 0.0
C1866 C 0.4344 0.87355 0.87671 0.0
C1867 C 0.43484 0.88665 0.90008 0.0
C1868 C 0.46039 0.88575 0.91773 0.0
C1869 C 0.4861 0.871 0.91147 0.0
C1870 C 0.48641 0.85706 0.88766 0.0
C1871 C 0.46025 0.85898 0.87004 0.0
H1872 H 0.59022 0.69851 0.57677 0.0
H1873 H 0.60383 0.7217 0.65409 0.0
H1874 H 0.53942 0.65895 0.66127 0.0
H1875 H 0.48717 0.66271 0.57348 0.0
H1876 H 0.47768 0.62526 0.55083 0.0
H1877 H 0.52599 0.66971 0.5524 0.0
H1878 H 0.56043 0.62681 0.55679 0.0
H1879 H 0.5123 0.5821 0.55484 0.0
H1880 H 0.5445 0.58977 0.58048 0.0
H1881 H 0.46878 0.59417 0.6587 0.0
H1882 H 0.40533 0.53322 0.64724 0.0
H1883 H 0.44 0.55576 0.57152 0.0
C1884 C 0.58002 0.69 0.59528 0.0
C1885 C 0.60225 0.71466 0.61489 0.0
C1886 C 0.58764 0.70285 0.63882 0.0
C1887 C 0.55091 0.66741 0.64301 0.0
C1888 C 0.52916 0.64421 0.62306 0.0
C1889 C 0.54374 0.65501 0.5997 0.0
C1890 C 0.51498 0.62605 0.58114 0.0
C1891 C 0.50062 0.64721 0.56342 0.0
C1892 C 0.53419 0.60492 0.56751 0.0
C1893 C 0.48136 0.59736 0.59748 0.0
C1894 C 0.48976 0.60801 0.62164 0.0
C1895 C 0.46228 0.58563 0.63982 0.0
C1896 C 0.42606 0.55121 0.63314 0.0
C1897 C 0.41757 0.53931 0.60848 0.0
C1898 C 0.4456 0.56345 0.59058 0.0
H1899 H 0.13869 0.60257 0.93696 0.0
H1900 H 0.16109 0.64099 0.86185 0.0
H1901 H 0.16017 0.57798 0.85083 0.0
H1902 H 0.19933 0.55684 0.93871 0.0
H1903 H 0.16568 0.5169 0.95842 0.0
H1904 H 0.16764 0.56449 0.95959 0.0
H1905 H 0.09111 0.5291 0.95169 0.0
H1906 H 0.08908 0.48142 0.95003 0.0
H1907 H 0.07072 0.49814 0.92512 0.0
H1908 H 0.1559 0.50822 0.84857 0.0
H1909 H 0.15634 0.44479 0.85631 0.0
H1910 H 0.13649 0.45429 0.93279 0.0
C1911 C 0.14317 0.59777 0.91811 0.0
C1912 C 0.14965 0.62678 0.90024 0.0
C1913 C 0.15628 0.61944 0.87591 0.0
C1914 C 0.15539 0.5835 0.86947 0.0
C1915 C 0.14795 0.55516 0.88755 0.0
C1916 C 0.14237 0.56231 0.91144 0.0
C1917 C 0.13621 0.52817 0.92779 0.0
C1918 C 0.16919 0.54246 0.94727 0.0
C1919 C 0.09429 0.50803 0.93934 0.0
C1920 C 0.13984 0.50078 0.90958 0.0
C1921 C 0.14599 0.51625 0.88633 0.0
C1922 C 0.15093 0.49595 0.86673 0.0
C1923 C 0.15076 0.45975 0.8712 0.0
C1924 C 0.14568 0.44434 0.89507 0.0
C1925 C 0.13975 0.46507 0.9143 0.0
H1926 H 0.3464 0.90411 0.5745 0.0
H1927 H 0.3236 0.89487 0.65185 0.0
H1928 H 0.38771 0.89538 0.65906 0.0
H1929 H 0.38415 0.83941 0.5712 0.0
H1930 H 0.42166 0.86729 0.54861 0.0
H1931 H 0.37689 0.87101 0.55008 0.0
H1932 H 0.41918 0.94791 0.5546 0.0
H1933 H 0.46427 0.94468 0.55265 0.0
H1934 H 0.45627 0.96898 0.57829 0.0
H1935 H 0.45244 0.8892 0.6565 0.0
H1936 H 0.51308 0.8855 0.64505 0.0
H1937 H 0.49079 0.89813 0.56932 0.0
C1938 C 0.35542 0.90324 0.59303 0.0
C1939 C 0.3303 0.89991 0.61263 0.0
C1940 C 0.34275 0.89818 0.63659 0.0
C1941 C 0.37898 0.89809 0.64079 0.0
C1942 C 0.40241 0.8999 0.62084 0.0
C1943 C 0.39127 0.90324 0.59746 0.0
C1944 C 0.42043 0.90354 0.57891 0.0
C1945 C 0.39952 0.86821 0.56117 0.0
C1946 C 0.44128 0.94366 0.56532 0.0
C1947 C 0.44939 0.89876 0.59528 0.0
C1948 C 0.43882 0.89675 0.61944 0.0
C1949 C 0.46104 0.89121 0.63762 0.0
C1950 C 0.49524 0.8887 0.63095 0.0
C1951 C 0.50707 0.89181 0.6063 0.0
C1952 C 0.48316 0.8963 0.58838 0.0
H1953 H 0.60432 0.6944 0.9317 0.0
H1954 H 0.59792 0.73373 0.85912 0.0
H1955 H 0.53061 0.67394 0.85382 0.0
H1956 H 0.55208 0.58439 0.91582 0.0
H1957 H 0.52944 0.57145 0.94547 0.0
H1958 H 0.57789 0.61521 0.94168 0.0
H1959 H 0.55044 0.65759 0.96189 0.0
H1960 H 0.50169 0.61418 0.96489 0.0
H1961 H 0.50733 0.65751 0.94894 0.0
H1962 H 0.45747 0.61435 0.86044 0.0
H1963 H 0.39356 0.55839 0.8751 0.0
H1964 H 0.4546 0.55251 0.94018 0.0
C1965 C 0.58939 0.68961 0.91433 0.0
C1966 C 0.60667 0.71842 0.8957 0.0
C1967 C 0.58571 0.71165 0.87346 0.0
C1968 C 0.54727 0.67784 0.87039 0.0
C1969 C 0.53063 0.65038 0.88946 0.0
C1970 C 0.55194 0.65533 0.91065 0.0
C1971 C 0.52787 0.62208 0.92856 0.0
C1972 C 0.54804 0.59679 0.93314 0.0
C1973 C 0.52147 0.63886 0.95247 0.0
C1974 C 0.4889 0.59851 0.91475 0.0
C1975 C 0.49059 0.61526 0.89235 0.0
C1976 C 0.45642 0.60048 0.87771 0.0
C1977 C 0.41994 0.56819 0.88625 0.0
C1978 C 0.4175 0.55012 0.9092 0.0
C1979 C 0.4535 0.56537 0.92299 0.0
loop_
_geom_bond_atom_site_label_1
_geom_bond_atom_site_label_2
_geom_bond_distance
_geom_bond_site_symmetry_2
_ccdc_geom_bond_type
Eu0 N31 2.657 . S
Eu0 N38 2.609 . S
Eu0 O44 2.558 . S
Eu0 O45 2.612 . S
Eu0 O47 2.339 . S
Eu0 O48 2.563 . S
Eu0 O49 2.419 . S
Eu0 O51 2.380 . S
Eu0 O52 2.432 . S
Eu0 C64 2.848 . S
C1 C4 1.429 . S
C1 C5 1.411 . S
C1 N8 1.377 . S
C2 C4 1.420 . S
C2 C6 1.423 . S
C2 C14 1.392 . S
C3 C5 1.420 . S
C3 C6 1.351 . S
C3 H26 0.931 1_545 S
C4 C1 1.429 . S
C4 C2 1.420 . S
C4 N12 1.362 . S
C5 C1 1.411 . S
C5 C3 1.420 . S
C5 C10 1.395 . S
C6 C2 1.423 . S
C6 C3 1.351 . S
C6 H18 0.930 1_545 S
C7 C9 1.400 . S
C7 C10 1.386 . S
C7 H19 0.930 . S
N8 C1 1.377 . S
N8 C9 1.321 . S
N8 Eu11 2.609 . S
C9 C7 1.400 . S
C9 N8 1.321 . S
C9 H16 0.930 . S
C10 C5 1.395 . S
C10 C7 1.386 . S
C10 H29 0.930 . S
Eu11 N8 2.609 . S
Eu11 N12 2.657 . S
Eu11 O45 2.380 . S
Eu11 O46 2.432 . S
Eu11 O50 2.558 . S
Eu11 O51 2.612 . S
Eu11 O53 2.339 . S
Eu11 O54 2.563 . S
Eu11 O55 2.419 . S
Eu11 C75 2.848 . S
N12 C4 1.362 . S
N12 Eu11 2.657 . S
N12 C13 1.334 . S
C13 N12 1.334 . S
C13 C15 1.413 . S
C13 H20 0.929 . S
C14 C2 1.392 . S
C14 C15 1.367 . S
C14 H22 0.930 . S
C15 C13 1.413 . S
C15 C14 1.367 . S
C15 H17 0.930 . S
H16 C9 0.930 . S
H17 C15 0.930 . S
H18 C6 0.930 1_565 S
H19 C7 0.930 . S
H20 C13 0.929 . S
H21 C35 0.930 . S
H22 C14 0.930 . S
H23 C41 0.930 . S
H24 C32 0.929 . S
H25 C39 0.930 . S
H26 C3 0.931 1_565 S
H27 C33 0.930 . S
H28 C66 0.930 . S
H29 C10 0.930 . S
H30 C65 0.931 . S
N31 Eu0 2.657 . S
N31 C32 1.334 . S
N31 C36 1.362 . S
C32 H24 0.929 . S
C32 N31 1.334 . S
C32 C35 1.413 . S
C33 H27 0.930 . S
C33 C34 1.392 . S
C33 C35 1.367 . S
C34 C33 1.392 . S
C34 C36 1.420 . S
C34 C66 1.423 . S
C35 H21 0.930 . S
C35 C32 1.413 . S
C35 C33 1.367 . S
C36 N31 1.362 . S
C36 C34 1.420 . S
C36 C40 1.429 . S
H37 C42 0.930 . S
N38 Eu0 2.609 . S
N38 C40 1.377 . S
N38 C41 1.321 . S
C39 H25 0.930 . S
C39 C41 1.400 . S
C39 C42 1.386 . S
C40 C36 1.429 . S
C40 N38 1.377 . S
C40 C43 1.411 . S
C41 H23 0.930 . S
C41 N38 1.321 . S
C41 C39 1.400 . S
C42 H37 0.930 . S
C42 C39 1.386 . S
C42 C43 1.395 . S
C43 C40 1.411 . S
C43 C42 1.395 . S
C43 C65 1.420 . S
O44 Eu0 2.558 . S
O44 C64 1.257 . S
O45 Eu0 2.612 . S
O45 Eu11 2.380 . S
O45 C56 1.276 . S
O46 Eu11 2.432 . S
O46 C63 1.264 . S
O47 Eu0 2.339 . S
O47 C63 1.254 . S
O48 Eu0 2.563 . S
O48 C56 1.235 . S
O49 Eu0 2.419 . S
O49 C64 1.249 . S
O50 Eu11 2.558 . S
O50 C75 1.257 . S
O51 Eu0 2.380 . S
O51 Eu11 2.612 . S
O51 C67 1.276 . S
O52 Eu0 2.432 . S
O52 C74 1.264 . S
O53 Eu11 2.339 . S
O53 C74 1.254 . S
O54 Eu11 2.563 . S
O54 C67 1.235 . S
O55 Eu11 2.419 . S
O55 C75 1.249 . S
C56 O45 1.276 . S
C56 O48 1.235 . S
C57 C59 1.393 . S
C57 C61 1.395 . S
C57 C64 1.492 . S
C58 C59 1.392 . S
C58 C60 1.386 . S
C59 C57 1.393 . S
C59 C58 1.392 . S
C59 H76 0.930 . S
C60 C58 1.386 . S
C60 C62 1.395 . S
C60 H77 0.930 . S
C61 C57 1.395 . S
C61 C62 1.379 . S
C61 H78 0.930 . S
C62 C60 1.395 . S
C62 C61 1.379 . S
C62 H79 0.930 . S
C63 O46 1.264 . S
C63 O47 1.254 . S
C64 Eu0 2.848 . S
C64 O44 1.257 . S
C64 O49 1.249 . S
C64 C57 1.492 . S
C65 H30 0.931 . S
C65 C43 1.420 . S
C65 C66 1.351 . S
C66 H28 0.930 . S
C66 C34 1.423 . S
C66 C65 1.351 . S
C67 O51 1.276 . S
C67 O54 1.235 . S
C68 C69 1.393 . S
C68 C72 1.395 . S
C68 C75 1.492 1_565 S
C69 C68 1.393 . S
C69 C70 1.392 . S
C69 H80 0.930 . S
C70 C69 1.392 . S
C70 C71 1.386 . S
C71 C70 1.386 . S
C71 C73 1.395 . S
C71 H81 0.930 . S
C72 C68 1.395 . S
C72 C73 1.379 . S
C72 H82 0.930 . S
C73 C71 1.395 . S
C73 C72 1.379 . S
C73 H83 0.930 . S
C74 O52 1.264 . S
C74 O53 1.254 . S
C75 Eu11 2.848 . S
C75 O50 1.257 . S
C75 O55 1.249 . S
C75 C68 1.492 1_545 S
H76 C59 0.930 . S
H77 C60 0.930 . S
H78 C61 0.930 . S
H79 C62 0.930 . S
H80 C69 0.930 . S
H81 C71 0.930 . S
H82 C72 0.930 . S
H83 C73 0.930 . S
Eu84 N115 2.657 . S
Eu84 N122 2.609 . S
Eu84 O128 2.558 . S
Eu84 O129 2.612 . S
Eu84 O131 2.339 . S
Eu84 O132 2.563 . S
Eu84 O133 2.419 . S
Eu84 O135 2.380 . S
Eu84 O136 2.432 . S
Eu84 C148 2.848 . S
C85 C88 1.429 . S
C85 C89 1.411 . S
C85 N92 1.377 . S
C86 C88 1.420 . S
C86 C90 1.423 1_655 S
C86 C98 1.395 . S
C87 C89 1.420 1_455 S
C87 C90 1.351 . S
C87 H110 0.931 . S
C88 C85 1.429 . S
C88 C86 1.420 . S
C88 N96 1.362 . S
C89 C85 1.411 . S
C89 C87 1.420 1_655 S
C89 C94 1.395 . S
C90 C86 1.423 1_455 S
C90 C87 1.351 . S
C90 H102 0.930 . S
C91 C93 1.400 . S
C91 C94 1.386 . S
C91 H103 0.930 . S
N92 C85 1.377 . S
N92 C93 1.321 . S
N92 Eu95 2.609 . S
C93 C91 1.400 . S
C93 N92 1.321 . S
C93 H100 0.930 . S
C94 C89 1.395 . S
C94 C91 1.386 . S
C94 H113 0.930 . S
Eu95 N92 2.609 . S
Eu95 N96 2.657 . S
Eu95 O129 2.380 . S
Eu95 O130 2.432 . S
Eu95 O134 2.558 . S
Eu95 O135 2.612 . S
Eu95 O137 2.339 . S
Eu95 O138 2.563 . S
Eu95 O139 2.419 . S
Eu95 C159 2.848 . S
N96 C88 1.362 . S
N96 Eu95 2.657 . S
N96 C97 1.334 . S
C97 N96 1.334 . S
C97 C99 1.413 . S
C97 H104 0.929 . S
C98 C86 1.395 . S
C98 C99 1.378 . S
C98 H106 0.917 1_655 S
C99 C97 1.413 . S
C99 C98 1.378 . S
C99 H101 0.930 . S
H100 C93 0.930 . S
H101 C99 0.930 . S
H102 C90 0.930 . S
H103 C91 0.930 . S
H104 C97 0.929 . S
H105 C119 0.930 . S
H106 C98 0.917 1_455 S
H107 C125 0.930 . S
H108 C116 0.929 . S
H109 C123 0.930 . S
H110 C87 0.931 . S
H111 C117 0.930 . S
H112 C150 0.930 . S
H113 C94 0.930 . S
H114 C149 0.931 . S
N115 Eu84 2.657 . S
N115 C116 1.334 . S
N115 C120 1.362 . S
C116 H108 0.929 . S
C116 N115 1.334 . S
C116 C119 1.413 . S
C117 H111 0.930 . S
C117 C118 1.392 . S
C117 C119 1.367 . S
C118 C117 1.392 . S
C118 C120 1.420 . S
C118 C150 1.423 . S
C119 H105 0.930 . S
C119 C116 1.413 . S
C119 C117 1.367 . S
C120 N115 1.362 . S
C120 C118 1.420 . S
C120 C124 1.429 . S
H121 C126 0.930 . S
N122 Eu84 2.609 . S
N122 C124 1.377 . S
N122 C125 1.321 . S
C123 H109 0.930 . S
C123 C125 1.400 . S
C123 C126 1.386 . S
C124 C120 1.429 . S
C124 N122 1.377 . S
C124 C127 1.411 . S
C125 H107 0.930 . S
C125 N122 1.321 . S
C125 C123 1.400 . S
C126 H121 0.930 . S
C126 C123 1.386 . S
C126 C127 1.395 . S
C127 C124 1.411 . S
C127 C126 1.395 . S
C127 C149 1.420 . S
O128 Eu84 2.558 . S
O128 C148 1.257 . S
O129 Eu84 2.612 . S
O129 Eu95 2.380 . S
O129 C140 1.276 . S
O130 Eu95 2.432 . S
O130 C147 1.264 . S
O131 Eu84 2.339 . S
O131 C147 1.254 . S
O132 Eu84 2.563 . S
O132 C140 1.235 . S
O133 Eu84 2.419 . S
O133 C148 1.249 . S
O134 Eu95 2.558 . S
O134 C159 1.257 . S
O135 Eu84 2.380 . S
O135 Eu95 2.612 . S
O135 C151 1.276 . S
O136 Eu84 2.432 . S
O136 C158 1.264 . S
O137 Eu95 2.339 . S
O137 C158 1.254 . S
O138 Eu95 2.563 . S
O138 C151 1.235 . S
O139 Eu95 2.419 . S
O139 C159 1.249 . S
C140 O129 1.276 . S
C140 O132 1.235 . S
C141 C143 1.393 . S
C141 C145 1.395 . S
C141 C148 1.492 . S
C142 C143 1.392 . S
C142 C144 1.386 . S
C143 C141 1.393 . S
C143 C142 1.392 . S
C143 H160 0.930 . S
C144 C142 1.386 . S
C144 C146 1.395 . S
C144 H161 0.930 . S
C145 C141 1.395 . S
C145 C146 1.379 . S
C145 H162 0.930 . S
C146 C144 1.395 . S
C146 C145 1.379 . S
C146 H163 0.930 . S
C147 O130 1.264 . S
C147 O131 1.254 . S
C148 Eu84 2.848 . S
C148 O128 1.257 . S
C148 O133 1.249 . S
C148 C141 1.492 . S
C149 H114 0.931 . S
C149 C127 1.420 . S
C149 C150 1.351 . S
C150 H112 0.930 . S
C150 C118 1.423 . S
C150 C149 1.351 . S
C151 O135 1.276 . S
C151 O138 1.235 . S
C152 C153 1.393 . S
C152 C156 1.395 . S
C152 C159 1.492 . S
C153 C152 1.393 . S
C153 C154 1.392 . S
C153 H164 0.930 . S
C154 C153 1.392 . S
C154 C155 1.386 . S
C155 C154 1.386 . S
C155 C157 1.395 . S
C155 H165 0.930 . S
C156 C152 1.395 . S
C156 C157 1.379 . S
C156 H166 0.930 . S
C157 C155 1.395 . S
C157 C156 1.379 . S
C157 H167 0.930 . S
C158 O136 1.264 . S
C158 O137 1.254 . S
C159 Eu95 2.848 . S
C159 O134 1.257 . S
C159 O139 1.249 . S
C159 C152 1.492 . S
H160 C143 0.930 . S
H161 C144 0.930 . S
H162 C145 0.930 . S
H163 C146 0.930 . S
H164 C153 0.930 . S
H165 C155 0.930 . S
H166 C156 0.930 . S
H167 C157 0.930 . S
Eu168 N199 2.657 . S
Eu168 N206 2.609 . S
Eu168 O212 2.558 . S
Eu168 O213 2.612 . S
Eu168 O215 2.339 . S
Eu168 O216 2.563 . S
Eu168 O217 2.419 . S
Eu168 O219 2.380 . S
Eu168 O220 2.432 . S
Eu168 C232 2.848 . S
C169 C172 1.429 . S
C169 C173 1.411 . S
C169 N176 1.377 . S
C170 C172 1.420 . S
C170 C174 1.423 . S
C170 C182 1.392 . S
C171 C173 1.420 . S
C171 C174 1.351 . S
C171 H194 0.931 1_655 S
C172 C169 1.429 . S
C172 C170 1.420 . S
C172 N180 1.362 . S
C173 C169 1.411 . S
C173 C171 1.420 . S
C173 C178 1.395 . S
C174 C170 1.423 . S
C174 C171 1.351 . S
C174 H186 0.930 1_655 S
C175 C177 1.400 . S
C175 C178 1.386 . S
C175 H187 0.930 . S
N176 C169 1.377 . S
N176 C177 1.321 . S
N176 Eu179 2.609 . S
C177 C175 1.400 . S
C177 N176 1.321 . S
C177 H184 0.930 . S
C178 C173 1.395 . S
C178 C175 1.386 . S
C178 H197 0.930 . S
Eu179 N176 2.609 . S
Eu179 N180 2.657 . S
Eu179 O213 2.380 . S
Eu179 O214 2.432 . S
Eu179 O218 2.558 . S
Eu179 O219 2.612 . S
Eu179 O221 2.339 . S
Eu179 O222 2.563 . S
Eu179 O223 2.419 . S
Eu179 C243 2.848 . S
N180 C172 1.362 . S
N180 Eu179 2.657 . S
N180 C181 1.334 . S
C181 N180 1.334 . S
C181 C183 1.413 . S
C181 H188 0.929 . S
C182 C170 1.392 . S
C182 C183 1.367 . S
C182 H190 0.930 . S
C183 C181 1.413 . S
C183 C182 1.367 . S
C183 H185 0.930 . S
H184 C177 0.930 . S
H185 C183 0.930 . S
H186 C174 0.930 1_455 S
H187 C175 0.930 . S
H188 C181 0.929 . S
H189 C203 0.930 . S
H190 C182 0.930 . S
H191 C209 0.930 . S
H192 C200 0.929 . S
H193 C207 0.930 . S
H194 C171 0.931 1_455 S
H195 C201 0.917 1_565 S
H196 C234 0.930 . S
H197 C178 0.930 . S
H198 C233 0.931 . S
N199 Eu168 2.657 . S
N199 C200 1.334 . S
N199 C204 1.362 . S
C200 H192 0.929 . S
C200 N199 1.334 . S
C200 C203 1.413 . S
C201 H195 0.917 1_545 S
C201 C202 1.397 . S
C201 C203 1.376 . S
C202 C201 1.397 . S
C202 C204 1.420 . S
C202 C234 1.423 1_545 S
C203 H189 0.930 . S
C203 C200 1.413 . S
C203 C201 1.376 . S
C204 N199 1.362 . S
C204 C202 1.420 . S
C204 C208 1.429 . S
H205 C210 0.930 . S
N206 Eu168 2.609 . S
N206 C208 1.377 . S
N206 C209 1.321 . S
C207 H193 0.930 . S
C207 C209 1.400 . S
C207 C210 1.386 . S
C208 C204 1.429 . S
C208 N206 1.377 . S
C208 C211 1.411 . S
C209 H191 0.930 . S
C209 N206 1.321 . S
C209 C207 1.400 . S
C210 H205 0.930 . S
C210 C207 1.386 . S
C210 C211 1.395 . S
C211 C208 1.411 . S
C211 C210 1.395 . S
C211 C233 1.420 1_545 S
O212 Eu168 2.558 . S
O212 C232 1.257 . S
O213 Eu168 2.612 . S
O213 Eu179 2.380 . S
O213 C224 1.276 . S
O214 Eu179 2.432 . S
O214 C231 1.264 . S
O215 Eu168 2.339 . S
O215 C231 1.254 . S
O216 Eu168 2.563 . S
O216 C224 1.235 . S
O217 Eu168 2.419 . S
O217 C232 1.249 . S
O218 Eu179 2.558 . S
O218 C243 1.257 . S
O219 Eu168 2.380 . S
O219 Eu179 2.612 . S
O219 C235 1.276 . S
O220 Eu168 2.432 . S
O220 C242 1.264 . S
O221 Eu179 2.339 . S
O221 C242 1.254 . S
O222 Eu179 2.563 . S
O222 C235 1.235 . S
O223 Eu179 2.419 . S
O223 C243 1.249 . S
C224 O213 1.276 . S
C224 O216 1.235 . S
C225 C227 1.393 . S
C225 C229 1.395 . S
C225 C232 1.492 . S
C226 C227 1.392 . S
C226 C228 1.386 . S
C227 C225 1.393 . S
C227 C226 1.392 . S
C227 H244 0.930 . S
C228 C226 1.386 . S
C228 C230 1.395 . S
C228 H245 0.930 . S
C229 C225 1.395 . S
C229 C230 1.379 . S
C229 H246 0.930 . S
C230 C228 1.395 . S
C230 C229 1.379 . S
C230 H247 0.930 . S
C231 O214 1.264 . S
C231 O215 1.254 . S
C232 Eu168 2.848 . S
C232 O212 1.257 . S
C232 O217 1.249 . S
C232 C225 1.492 . S
C233 H198 0.931 . S
C233 C211 1.420 1_565 S
C233 C234 1.351 . S
C234 H196 0.930 . S
C234 C202 1.423 1_565 S
C234 C233 1.351 . S
C235 O219 1.276 . S
C235 O222 1.235 . S
C236 C237 1.393 . S
C236 C240 1.395 . S
C236 C243 1.492 1_455 S
C237 C236 1.393 . S
C237 C238 1.392 . S
C237 H248 0.930 . S
C238 C237 1.392 . S
C238 C239 1.386 . S
C239 C238 1.386 . S
C239 C241 1.395 . S
C239 H249 0.930 . S
C240 C236 1.395 . S
C240 C241 1.379 . S
C240 H250 0.930 . S
C241 C239 1.395 . S
C241 C240 1.379 . S
C241 H251 0.930 . S
C242 O220 1.264 . S
C242 O221 1.254 . S
C243 Eu179 2.848 . S
C243 O218 1.257 . S
C243 O223 1.249 . S
C243 C236 1.492 1_655 S
H244 C227 0.930 . S
H245 C228 0.930 . S
H246 C229 0.930 . S
H247 C230 0.930 . S
H248 C237 0.930 . S
H249 C239 0.930 . S
H250 C240 0.930 . S
H251 C241 0.930 . S
Eu252 N283 2.657 . S
Eu252 N290 2.609 . S
Eu252 O296 2.558 . S
Eu252 O297 2.612 . S
Eu252 O299 2.339 . S
Eu252 O300 2.563 . S
Eu252 O301 2.419 . S
Eu252 O303 2.380 . S
Eu252 O304 2.432 . S
Eu252 C316 2.848 . S
C253 C256 1.429 . S
C253 C257 1.411 . S
C253 N260 1.377 . S
C254 C256 1.420 . S
C254 C258 1.423 . S
C254 C266 1.392 . S
C255 C257 1.420 . S
C255 C258 1.351 . S
C255 H278 0.931 . S
C256 C253 1.429 . S
C256 C254 1.420 . S
C256 N264 1.362 . S
C257 C253 1.411 . S
C257 C255 1.420 . S
C257 C262 1.395 . S
C258 C254 1.423 . S
C258 C255 1.351 . S
C258 H270 0.930 . S
C259 C261 1.400 . S
C259 C262 1.386 . S
C259 H271 0.930 . S
N260 C253 1.377 . S
N260 C261 1.321 . S
N260 Eu263 2.609 . S
C261 C259 1.400 . S
C261 N260 1.321 . S
C261 H268 0.930 . S
C262 C257 1.395 . S
C262 C259 1.386 . S
C262 H281 0.930 . S
Eu263 N260 2.609 . S
Eu263 N264 2.657 . S
Eu263 O297 2.380 . S
Eu263 O298 2.432 . S
Eu263 O302 2.558 . S
Eu263 O303 2.612 . S
Eu263 O305 2.339 . S
Eu263 O306 2.563 . S
Eu263 O307 2.419 . S
Eu263 C327 2.848 . S
N264 C256 1.362 . S
N264 Eu263 2.657 . S
N264 C265 1.334 . S
C265 N264 1.334 . S
C265 C267 1.413 . S
C265 H272 0.929 . S
C266 C254 1.392 . S
C266 C267 1.367 . S
C266 H274 0.930 . S
C267 C265 1.413 . S
C267 C266 1.367 . S
C267 H269 0.930 . S
H268 C261 0.930 . S
H269 C267 0.930 . S
H270 C258 0.930 . S
H271 C259 0.930 . S
H272 C265 0.929 . S
H273 C287 0.930 . S
H274 C266 0.930 . S
H275 C293 0.930 . S
H276 C284 0.929 . S
H277 C291 0.930 . S
H278 C255 0.931 . S
H279 C285 0.930 . S
H280 C318 0.930 1_565 S
H281 C262 0.930 . S
H282 C317 0.931 1_565 S
N283 Eu252 2.657 . S
N283 C284 1.334 . S
N283 C288 1.362 . S
C284 H276 0.929 . S
C284 N283 1.334 . S
C284 C287 1.413 . S
C285 H279 0.930 . S
C285 C286 1.392 . S
C285 C287 1.367 . S
C286 C285 1.392 . S
C286 C288 1.420 . S
C286 C318 1.423 . S
C287 H273 0.930 . S
C287 C284 1.413 . S
C287 C285 1.367 . S
C288 N283 1.362 . S
C288 C286 1.420 . S
C288 C292 1.429 . S
H289 C294 0.930 . S
N290 Eu252 2.609 . S
N290 C292 1.377 . S
N290 C293 1.321 . S
C291 H277 0.930 . S
C291 C293 1.400 . S
C291 C294 1.386 . S
C292 C288 1.429 . S
C292 N290 1.377 . S
C292 C295 1.411 . S
C293 H275 0.930 . S
C293 N290 1.321 . S
C293 C291 1.400 . S
C294 H289 0.930 . S
C294 C291 1.386 . S
C294 C295 1.395 . S
C295 C292 1.411 . S
C295 C294 1.395 . S
C295 C317 1.420 . S
O296 Eu252 2.558 . S
O296 C316 1.257 . S
O297 Eu252 2.612 . S
O297 Eu263 2.380 . S
O297 C308 1.276 . S
O298 Eu263 2.432 . S
O298 C315 1.264 . S
O299 Eu252 2.339 . S
O299 C315 1.254 . S
O300 Eu252 2.563 . S
O300 C308 1.235 . S
O301 Eu252 2.419 . S
O301 C316 1.249 . S
O302 Eu263 2.558 . S
O302 C327 1.257 . S
O303 Eu252 2.380 . S
O303 Eu263 2.612 . S
O303 C319 1.276 . S
O304 Eu252 2.432 . S
O304 C326 1.264 . S
O305 Eu263 2.339 . S
O305 C326 1.254 . S
O306 Eu263 2.563 . S
O306 C319 1.235 . S
O307 Eu263 2.419 . S
O307 C327 1.249 . S
C308 O297 1.276 . S
C308 O300 1.235 . S
C309 C311 1.393 . S
C309 C313 1.395 . S
C309 C316 1.492 1_565 S
C310 C311 1.392 . S
C310 C312 1.386 . S
C311 C309 1.393 . S
C311 C310 1.392 . S
C311 H328 0.930 . S
C312 C310 1.386 . S
C312 C314 1.395 . S
C312 H329 0.930 . S
C313 C309 1.395 . S
C313 C314 1.379 . S
C313 H330 0.930 . S
C314 C312 1.395 . S
C314 C313 1.379 . S
C314 H331 0.930 . S
C315 O298 1.264 . S
C315 O299 1.254 . S
C316 Eu252 2.848 . S
C316 O296 1.257 . S
C316 O301 1.249 . S
C316 C309 1.492 1_545 S
C317 H282 0.931 1_545 S
C317 C295 1.420 . S
C317 C318 1.351 . S
C318 H280 0.930 1_545 S
C318 C286 1.423 . S
C318 C317 1.351 . S
C319 O303 1.276 . S
C319 O306 1.235 . S
C320 C321 1.393 . S
C320 C324 1.395 . S
C320 C327 1.492 . S
C321 C320 1.393 . S
C321 C322 1.392 . S
C321 H332 0.930 . S
C322 C321 1.392 . S
C322 C323 1.386 . S
C323 C322 1.386 . S
C323 C325 1.395 . S
C323 H333 0.930 . S
C324 C320 1.395 . S
C324 C325 1.379 . S
C324 H334 0.930 . S
C325 C323 1.395 . S
C325 C324 1.379 . S
C325 H335 0.930 . S
C326 O304 1.264 . S
C326 O305 1.254 . S
C327 Eu263 2.848 . S
C327 O302 1.257 . S
C327 O307 1.249 . S
C327 C320 1.492 . S
H328 C311 0.930 . S
H329 C312 0.930 . S
H330 C313 0.930 . S
H331 C314 0.930 . S
H332 C321 0.930 . S
H333 C323 0.930 . S
H334 C324 0.930 . S
H335 C325 0.930 . S
Eu336 N367 2.657 . S
Eu336 N374 2.609 . S
Eu336 O380 2.558 . S
Eu336 O381 2.612 . S
Eu336 O383 2.339 . S
Eu336 O384 2.563 . S
Eu336 O385 2.419 . S
Eu336 O387 2.380 . S
Eu336 O388 2.432 . S
Eu336 C400 2.848 . S
C337 C340 1.429 . S
C337 C341 1.411 . S
C337 N344 1.377 . S
C338 C340 1.420 . S
C338 C342 1.423 . S
C338 C350 1.392 . S
C339 C341 1.420 . S
C339 C342 1.351 . S
C339 H362 0.931 . S
C340 C337 1.429 . S
C340 C338 1.420 . S
C340 N348 1.362 . S
C341 C337 1.411 . S
C341 C339 1.420 . S
C341 C346 1.395 . S
C342 C338 1.423 . S
C342 C339 1.351 . S
C342 H354 0.930 . S
C343 C345 1.400 . S
C343 C346 1.386 . S
C343 H355 0.930 . S
N344 C337 1.377 . S
N344 C345 1.321 . S
N344 Eu347 2.609 . S
C345 C343 1.400 . S
C345 N344 1.321 . S
C345 H352 0.930 . S
C346 C341 1.395 . S
C346 C343 1.386 . S
C346 H365 0.930 . S
Eu347 N344 2.609 . S
Eu347 N348 2.657 . S
Eu347 O381 2.380 . S
Eu347 O382 2.432 . S
Eu347 O386 2.558 . S
Eu347 O387 2.612 . S
Eu347 O389 2.339 . S
Eu347 O390 2.563 . S
Eu347 O391 2.419 . S
Eu347 C411 2.848 . S
N348 C340 1.362 . S
N348 Eu347 2.657 . S
N348 C349 1.334 . S
C349 N348 1.334 . S
C349 C351 1.413 . S
C349 H356 0.929 . S
C350 C338 1.392 . S
C350 C351 1.367 . S
C350 H358 0.930 . S
C351 C349 1.413 . S
C351 C350 1.367 . S
C351 H353 0.930 . S
H352 C345 0.930 . S
H353 C351 0.930 . S
H354 C342 0.930 . S
H355 C343 0.930 . S
H356 C349 0.929 . S
H357 C371 0.930 . S
H358 C350 0.930 . S
H359 C377 0.930 . S
H360 C368 0.929 . S
H361 C375 0.930 . S
H362 C339 0.931 . S
H363 C369 0.917 1_455 S
H364 C402 0.930 . S
H365 C346 0.930 . S
H366 C401 0.931 . S
N367 Eu336 2.657 . S
N367 C368 1.334 . S
N367 C372 1.362 . S
C368 H360 0.929 . S
C368 N367 1.334 . S
C368 C371 1.413 . S
C369 H363 0.917 1_655 S
C369 C370 1.395 . S
C369 C371 1.378 . S
C370 C369 1.395 . S
C370 C372 1.420 . S
C370 C402 1.423 1_655 S
C371 H357 0.930 . S
C371 C368 1.413 . S
C371 C369 1.378 . S
C372 N367 1.362 . S
C372 C370 1.420 . S
C372 C376 1.429 . S
H373 C378 0.930 . S
N374 Eu336 2.609 . S
N374 C376 1.377 . S
N374 C377 1.321 . S
C375 H361 0.930 . S
C375 C377 1.400 . S
C375 C378 1.386 . S
C376 C372 1.429 . S
C376 N374 1.377 . S
C376 C379 1.411 . S
C377 H359 0.930 . S
C377 N374 1.321 . S
C377 C375 1.400 . S
C378 H373 0.930 . S
C378 C375 1.386 . S
C378 C379 1.395 . S
C379 C376 1.411 . S
C379 C378 1.395 . S
C379 C401 1.420 1_655 S
O380 Eu336 2.558 . S
O380 C400 1.257 . S
O381 Eu336 2.612 . S
O381 Eu347 2.380 . S
O381 C392 1.276 . S
O382 Eu347 2.432 . S
O382 C399 1.264 . S
O383 Eu336 2.339 . S
O383 C399 1.254 . S
O384 Eu336 2.563 . S
O384 C392 1.235 . S
O385 Eu336 2.419 . S
O385 C400 1.249 . S
O386 Eu347 2.558 . S
O386 C411 1.257 . S
O387 Eu336 2.380 . S
O387 Eu347 2.612 . S
O387 C403 1.276 . S
O388 Eu336 2.432 . S
O388 C410 1.264 . S
O389 Eu347 2.339 . S
O389 C410 1.254 . S
O390 Eu347 2.563 . S
O390 C403 1.235 . S
O391 Eu347 2.419 . S
O391 C411 1.249 . S
C392 O381 1.276 . S
C392 O384 1.235 . S
C393 C395 1.393 . S
C393 C397 1.395 . S
C393 C400 1.492 . S
C394 C395 1.392 . S
C394 C396 1.386 . S
C395 C393 1.393 . S
C395 C394 1.392 . S
C395 H412 0.930 . S
C396 C394 1.386 . S
C396 C398 1.395 . S
C396 H413 0.930 . S
C397 C393 1.395 . S
C397 C398 1.379 . S
C397 H414 0.930 . S
C398 C396 1.395 . S
C398 C397 1.379 . S
C398 H415 0.930 . S
C399 O382 1.264 . S
C399 O383 1.254 . S
C400 Eu336 2.848 . S
C400 O380 1.257 . S
C400 O385 1.249 . S
C400 C393 1.492 . S
C401 H366 0.931 . S
C401 C379 1.420 1_455 S
C401 C402 1.351 . S
C402 H364 0.930 . S
C402 C370 1.423 1_455 S
C402 C401 1.351 . S
C403 O387 1.276 . S
C403 O390 1.235 . S
C404 C405 1.393 . S
C404 C408 1.395 . S
C404 C411 1.492 . S
C405 C404 1.393 . S
C405 C406 1.392 . S
C405 H416 0.930 . S
C406 C405 1.392 . S
C406 C407 1.386 . S
C407 C406 1.386 . S
C407 C409 1.395 . S
C407 H417 0.930 . S
C408 C404 1.395 . S
C408 C409 1.379 . S
C408 H418 0.930 . S
C409 C407 1.395 . S
C409 C408 1.379 . S
C409 H419 0.930 . S
C410 O388 1.264 . S
C410 O389 1.254 . S
C411 Eu347 2.848 . S
C411 O386 1.257 . S
C411 O391 1.249 . S
C411 C404 1.492 . S
H412 C395 0.930 . S
H413 C396 0.930 . S
H414 C397 0.930 . S
H415 C398 0.930 . S
H416 C405 0.930 . S
H417 C407 0.930 . S
H418 C408 0.930 . S
H419 C409 0.930 . S
Eu420 N451 2.657 . S
Eu420 N458 2.609 . S
Eu420 O464 2.558 . S
Eu420 O465 2.612 . S
Eu420 O467 2.339 . S
Eu420 O468 2.563 . S
Eu420 O469 2.419 . S
Eu420 O471 2.380 . S
Eu420 O472 2.432 . S
Eu420 C484 2.848 . S
C421 C424 1.429 . S
C421 C425 1.411 . S
C421 N428 1.377 . S
C422 C424 1.420 . S
C422 C426 1.423 1_545 S
C422 C434 1.397 . S
C423 C425 1.420 1_565 S
C423 C426 1.351 . S
C423 H446 0.931 . S
C424 C421 1.429 . S
C424 C422 1.420 . S
C424 N432 1.362 . S
C425 C421 1.411 . S
C425 C423 1.420 1_545 S
C425 C430 1.395 . S
C426 C422 1.423 1_565 S
C426 C423 1.351 . S
C426 H438 0.930 . S
C427 C429 1.400 . S
C427 C430 1.386 . S
C427 H439 0.930 . S
N428 C421 1.377 . S
N428 C429 1.321 . S
N428 Eu431 2.609 . S
C429 C427 1.400 . S
C429 N428 1.321 . S
C429 H436 0.930 . S
C430 C425 1.395 . S
C430 C427 1.386 . S
C430 H449 0.930 . S
Eu431 N428 2.609 . S
Eu431 N432 2.657 . S
Eu431 O465 2.380 . S
Eu431 O466 2.432 . S
Eu431 O470 2.558 . S
Eu431 O471 2.612 . S
Eu431 O473 2.339 . S
Eu431 O474 2.563 . S
Eu431 O475 2.419 . S
Eu431 C495 2.848 . S
N432 C424 1.362 . S
N432 Eu431 2.657 . S
N432 C433 1.334 . S
C433 N432 1.334 . S
C433 C435 1.413 . S
C433 H440 0.929 . S
C434 C422 1.397 . S
C434 C435 1.376 . S
C434 H442 0.917 1_545 S
C435 C433 1.413 . S
C435 C434 1.376 . S
C435 H437 0.930 . S
H436 C429 0.930 . S
H437 C435 0.930 . S
H438 C426 0.930 . S
H439 C427 0.930 . S
H440 C433 0.929 . S
H441 C455 0.930 . S
H442 C434 0.917 1_565 S
H443 C461 0.930 . S
H444 C452 0.929 . S
H445 C459 0.930 . S
H446 C423 0.931 . S
H447 C453 0.930 . S
H448 C486 0.930 1_455 S
H449 C430 0.930 . S
H450 C485 0.931 1_455 S
N451 Eu420 2.657 . S
N451 C452 1.334 . S
N451 C456 1.362 . S
C452 H444 0.929 . S
C452 N451 1.334 . S
C452 C455 1.413 . S
C453 H447 0.930 . S
C453 C454 1.392 . S
C453 C455 1.367 . S
C454 C453 1.392 . S
C454 C456 1.420 . S
C454 C486 1.423 . S
C455 H441 0.930 . S
C455 C452 1.413 . S
C455 C453 1.367 . S
C456 N451 1.362 . S
C456 C454 1.420 . S
C456 C460 1.429 . S
H457 C462 0.930 . S
N458 Eu420 2.609 . S
N458 C460 1.377 . S
N458 C461 1.321 . S
C459 H445 0.930 . S
C459 C461 1.400 . S
C459 C462 1.386 . S
C460 C456 1.429 . S
C460 N458 1.377 . S
C460 C463 1.411 . S
C461 H443 0.930 . S
C461 N458 1.321 . S
C461 C459 1.400 . S
C462 H457 0.930 . S
C462 C459 1.386 . S
C462 C463 1.395 . S
C463 C460 1.411 . S
C463 C462 1.395 . S
C463 C485 1.420 . S
O464 Eu420 2.558 . S
O464 C484 1.257 . S
O465 Eu420 2.612 . S
O465 Eu431 2.380 . S
O465 C476 1.276 . S
O466 Eu431 2.432 . S
O466 C483 1.264 . S
O467 Eu420 2.339 . S
O467 C483 1.254 . S
O468 Eu420 2.563 . S
O468 C476 1.235 . S
O469 Eu420 2.419 . S
O469 C484 1.249 . S
O470 Eu431 2.558 . S
O470 C495 1.257 . S
O471 Eu420 2.380 . S
O471 Eu431 2.612 . S
O471 C487 1.276 . S
O472 Eu420 2.432 . S
O472 C494 1.264 . S
O473 Eu431 2.339 . S
O473 C494 1.254 . S
O474 Eu431 2.563 . S
O474 C487 1.235 . S
O475 Eu431 2.419 . S
O475 C495 1.249 . S
C476 O465 1.276 . S
C476 O468 1.235 . S
C477 C479 1.393 . S
C477 C481 1.395 . S
C477 C484 1.492 1_455 S
C478 C479 1.392 . S
C478 C480 1.386 . S
C479 C477 1.393 . S
C479 C478 1.392 . S
C479 H496 0.930 . S
C480 C478 1.386 . S
C480 C482 1.395 . S
C480 H497 0.930 . S
C481 C477 1.395 . S
C481 C482 1.379 . S
C481 H498 0.930 . S
C482 C480 1.395 . S
C482 C481 1.379 . S
C482 H499 0.930 . S
C483 O466 1.264 . S
C483 O467 1.254 . S
C484 Eu420 2.848 . S
C484 O464 1.257 . S
C484 O469 1.249 . S
C484 C477 1.492 1_655 S
C485 H450 0.931 1_655 S
C485 C463 1.420 . S
C485 C486 1.351 . S
C486 H448 0.930 1_655 S
C486 C454 1.423 . S
C486 C485 1.351 . S
C487 O471 1.276 . S
C487 O474 1.235 . S
C488 C489 1.393 . S
C488 C492 1.395 . S
C488 C495 1.492 . S
C489 C488 1.393 . S
C489 C490 1.392 . S
C489 H500 0.930 . S
C490 C489 1.392 . S
C490 C491 1.386 . S
C491 C490 1.386 . S
C491 C493 1.395 . S
C491 H501 0.930 . S
C492 C488 1.395 . S
C492 C493 1.379 . S
C492 H502 0.930 . S
C493 C491 1.395 . S
C493 C492 1.379 . S
C493 H503 0.930 . S
C494 O472 1.264 . S
C494 O473 1.254 . S
C495 Eu431 2.848 . S
C495 O470 1.257 . S
C495 O475 1.249 . S
C495 C488 1.492 . S
H496 C479 0.930 . S
H497 C480 0.930 . S
H498 C481 0.930 . S
H499 C482 0.930 . S
H500 C489 0.930 . S
H501 C491 0.930 . S
H502 C492 0.930 . S
H503 C493 0.930 . S
Eu504 N535 2.657 . S
Eu504 N542 2.609 . S
Eu504 O548 2.558 . S
Eu504 O549 2.612 . S
Eu504 O551 2.339 . S
Eu504 O552 2.563 . S
Eu504 O553 2.419 . S
Eu504 O555 2.380 . S
Eu504 O556 2.432 . S
Eu504 C568 2.848 . S
C505 C508 1.429 . S
C505 C509 1.411 . S
C505 N512 1.377 . S
C506 C508 1.420 . S
C506 C510 1.423 . S
C506 C518 1.392 . S
C507 C509 1.420 . S
C507 C510 1.351 . S
C507 H530 0.931 . S
C508 C505 1.429 . S
C508 C506 1.420 . S
C508 N516 1.362 . S
C509 C505 1.411 . S
C509 C507 1.420 . S
C509 C514 1.395 . S
C510 C506 1.423 . S
C510 C507 1.351 . S
C510 H522 0.930 . S
C511 C513 1.400 . S
C511 C514 1.386 . S
C511 H523 0.930 . S
N512 C505 1.377 . S
N512 C513 1.321 . S
N512 Eu515 2.609 . S
C513 C511 1.400 . S
C513 N512 1.321 . S
C513 H520 0.930 . S
C514 C509 1.395 . S
C514 C511 1.386 . S
C514 H533 0.930 . S
Eu515 N512 2.609 . S
Eu515 N516 2.657 . S
Eu515 O549 2.380 . S
Eu515 O550 2.432 . S
Eu515 O554 2.558 . S
Eu515 O555 2.612 . S
Eu515 O557 2.339 . S
Eu515 O558 2.563 . S
Eu515 O559 2.419 . S
Eu515 C579 2.848 . S
N516 C508 1.362 . S
N516 Eu515 2.657 . S
N516 C517 1.334 . S
C517 N516 1.334 . S
C517 C519 1.413 . S
C517 H524 0.929 . S
C518 C506 1.392 . S
C518 C519 1.367 . S
C518 H526 0.930 . S
C519 C517 1.413 . S
C519 C518 1.367 . S
C519 H521 0.930 . S
H520 C513 0.930 . S
H521 C519 0.930 . S
H522 C510 0.930 . S
H523 C511 0.930 . S
H524 C517 0.929 . S
H525 C539 0.930 . S
H526 C518 0.930 . S
H527 C545 0.930 . S
H528 C536 0.929 . S
H529 C543 0.930 . S
H530 C507 0.931 . S
H531 C537 0.930 . S
H532 C570 0.930 1_655 S
H533 C514 0.930 . S
H534 C569 0.931 1_655 S
N535 Eu504 2.657 . S
N535 C536 1.334 . S
N535 C540 1.362 . S
C536 H528 0.929 . S
C536 N535 1.334 . S
C536 C539 1.413 . S
C537 H531 0.930 . S
C537 C538 1.392 . S
C537 C539 1.367 . S
C538 C537 1.392 . S
C538 C540 1.420 . S
C538 C570 1.423 . S
C539 H525 0.930 . S
C539 C536 1.413 . S
C539 C537 1.367 . S
C540 N535 1.362 . S
C540 C538 1.420 . S
C540 C544 1.429 . S
H541 C546 0.930 . S
N542 Eu504 2.609 . S
N542 C544 1.377 . S
N542 C545 1.321 . S
C543 H529 0.930 . S
C543 C545 1.400 . S
C543 C546 1.386 . S
C544 C540 1.429 . S
C544 N542 1.377 . S
C544 C547 1.411 . S
C545 H527 0.930 . S
C545 N542 1.321 . S
C545 C543 1.400 . S
C546 H541 0.930 . S
C546 C543 1.386 . S
C546 C547 1.395 . S
C547 C544 1.411 . S
C547 C546 1.395 . S
C547 C569 1.420 . S
O548 Eu504 2.558 . S
O548 C568 1.257 . S
O549 Eu504 2.612 . S
O549 Eu515 2.380 . S
O549 C560 1.276 . S
O550 Eu515 2.432 . S
O550 C567 1.264 . S
O551 Eu504 2.339 . S
O551 C567 1.254 . S
O552 Eu504 2.563 . S
O552 C560 1.235 . S
O553 Eu504 2.419 . S
O553 C568 1.249 . S
O554 Eu515 2.558 . S
O554 C579 1.257 . S
O555 Eu504 2.380 . S
O555 Eu515 2.612 . S
O555 C571 1.276 . S
O556 Eu504 2.432 . S
O556 C578 1.264 . S
O557 Eu515 2.339 . S
O557 C578 1.254 . S
O558 Eu515 2.563 . S
O558 C571 1.235 . S
O559 Eu515 2.419 . S
O559 C579 1.249 . S
C560 O549 1.276 . S
C560 O552 1.235 . S
C561 C563 1.393 . S
C561 C565 1.395 . S
C561 C568 1.492 1_655 S
C562 C563 1.392 . S
C562 C564 1.386 . S
C563 C561 1.393 . S
C563 C562 1.392 . S
C563 H580 0.930 . S
C564 C562 1.386 . S
C564 C566 1.395 . S
C564 H581 0.930 . S
C565 C561 1.395 . S
C565 C566 1.379 . S
C565 H582 0.930 . S
C566 C564 1.395 . S
C566 C565 1.379 . S
C566 H583 0.930 . S
C567 O550 1.264 . S
C567 O551 1.254 . S
C568 Eu504 2.848 . S
C568 O548 1.257 . S
C568 O553 1.249 . S
C568 C561 1.492 1_455 S
C569 H534 0.931 1_455 S
C569 C547 1.420 . S
C569 C570 1.351 . S
C570 H532 0.930 1_455 S
C570 C538 1.423 . S
C570 C569 1.351 . S
C571 O555 1.276 . S
C571 O558 1.235 . S
C572 C573 1.393 . S
C572 C576 1.395 . S
C572 C579 1.492 . S
C573 C572 1.393 . S
C573 C574 1.392 . S
C573 H584 0.930 . S
C574 C573 1.392 . S
C574 C575 1.386 . S
C575 C574 1.386 . S
C575 C577 1.395 . S
C575 H585 0.930 . S
C576 C572 1.395 . S
C576 C577 1.379 . S
C576 H586 0.930 . S
C577 C575 1.395 . S
C577 C576 1.379 . S
C577 H587 0.930 . S
C578 O556 1.264 . S
C578 O557 1.254 . S
C579 Eu515 2.848 . S
C579 O554 1.257 . S
C579 O559 1.249 . S
C579 C572 1.492 . S
H580 C563 0.930 . S
H581 C564 0.930 . S
H582 C565 0.930 . S
H583 C566 0.930 . S
H584 C573 0.930 . S
H585 C575 0.930 . S
H586 C576 0.930 . S
H587 C577 0.930 . S
Eu588 N619 2.657 . S
Eu588 N626 2.609 . S
Eu588 O632 2.558 . S
Eu588 O633 2.612 . S
Eu588 O635 2.339 . S
Eu588 O636 2.563 . S
Eu588 O637 2.419 . S
Eu588 O639 2.380 . S
Eu588 O640 2.432 . S
Eu588 C652 2.848 . S
C589 C592 1.429 . S
C589 C593 1.411 . S
C589 N596 1.377 . S
C590 C592 1.420 . S
C590 C594 1.423 . S
C590 C602 1.392 . S
C591 C593 1.420 . S
C591 C594 1.351 . S
C591 H614 0.931 1_565 S
C592 C589 1.429 . S
C592 C590 1.420 . S
C592 N600 1.362 . S
C593 C589 1.411 . S
C593 C591 1.420 . S
C593 C598 1.395 . S
C594 C590 1.423 . S
C594 C591 1.351 . S
C594 H606 0.930 1_565 S
C595 C597 1.400 . S
C595 C598 1.386 . S
C595 H607 0.930 . S
N596 C589 1.377 . S
N596 C597 1.321 . S
N596 Eu599 2.609 . S
C597 C595 1.400 . S
C597 N596 1.321 . S
C597 H604 0.930 . S
C598 C593 1.395 . S
C598 C595 1.386 . S
C598 H617 0.930 . S
Eu599 N596 2.609 . S
Eu599 N600 2.657 . S
Eu599 O633 2.380 . S
Eu599 O634 2.432 . S
Eu599 O638 2.558 . S
Eu599 O639 2.612 . S
Eu599 O641 2.339 . S
Eu599 O642 2.563 . S
Eu599 O643 2.419 . S
Eu599 C663 2.848 . S
N600 C592 1.362 . S
N600 Eu599 2.657 . S
N600 C601 1.334 . S
C601 N600 1.334 . S
C601 C603 1.413 . S
C601 H608 0.929 . S
C602 C590 1.392 . S
C602 C603 1.367 . S
C602 H610 0.930 . S
C603 C601 1.413 . S
C603 C602 1.367 . S
C603 H605 0.930 . S
H604 C597 0.930 . S
H605 C603 0.930 . S
H606 C594 0.930 1_545 S
H607 C595 0.930 . S
H608 C601 0.929 . S
H609 C623 0.930 . S
H610 C602 0.930 . S
H611 C629 0.930 . S
H612 C620 0.929 . S
H613 C627 0.930 . S
H614 C591 0.931 1_545 S
H615 C621 0.917 1_655 S
H616 C654 0.930 . S
H617 C598 0.930 . S
H618 C653 0.931 . S
N619 Eu588 2.657 . S
N619 C620 1.334 . S
N619 C624 1.362 . S
C620 H612 0.929 . S
C620 N619 1.334 . S
C620 C623 1.413 . S
C621 H615 0.917 1_455 S
C621 C622 1.397 . S
C621 C623 1.376 . S
C622 C621 1.397 . S
C622 C624 1.420 . S
C622 C654 1.423 1_455 S
C623 H609 0.930 . S
C623 C620 1.413 . S
C623 C621 1.376 . S
C624 N619 1.362 . S
C624 C622 1.420 . S
C624 C628 1.429 . S
H625 C630 0.930 . S
N626 Eu588 2.609 . S
N626 C628 1.377 . S
N626 C629 1.321 . S
C627 H613 0.930 . S
C627 C629 1.400 . S
C627 C630 1.386 . S
C628 C624 1.429 . S
C628 N626 1.377 . S
C628 C631 1.411 . S
C629 H611 0.930 . S
C629 N626 1.321 . S
C629 C627 1.400 . S
C630 H625 0.930 . S
C630 C627 1.386 . S
C630 C631 1.395 . S
C631 C628 1.411 . S
C631 C630 1.395 . S
C631 C653 1.420 1_455 S
O632 Eu588 2.558 . S
O632 C652 1.257 . S
O633 Eu588 2.612 . S
O633 Eu599 2.380 . S
O633 C644 1.276 . S
O634 Eu599 2.432 . S
O634 C651 1.264 . S
O635 Eu588 2.339 . S
O635 C651 1.254 . S
O636 Eu588 2.563 . S
O636 C644 1.235 . S
O637 Eu588 2.419 . S
O637 C652 1.249 . S
O638 Eu599 2.558 . S
O638 C663 1.257 . S
O639 Eu588 2.380 . S
O639 Eu599 2.612 . S
O639 C655 1.276 . S
O640 Eu588 2.432 . S
O640 C662 1.264 . S
O641 Eu599 2.339 . S
O641 C662 1.254 . S
O642 Eu599 2.563 . S
O642 C655 1.235 . S
O643 Eu599 2.419 . S
O643 C663 1.249 . S
C644 O633 1.276 . S
C644 O636 1.235 . S
C645 C647 1.393 . S
C645 C649 1.395 . S
C645 C652 1.492 . S
C646 C647 1.392 . S
C646 C648 1.386 . S
C647 C645 1.393 . S
C647 C646 1.392 . S
C647 H664 0.930 . S
C648 C646 1.386 . S
C648 C650 1.395 . S
C648 H665 0.930 . S
C649 C645 1.395 . S
C649 C650 1.379 . S
C649 H666 0.930 . S
C650 C648 1.395 . S
C650 C649 1.379 . S
C650 H667 0.930 . S
C651 O634 1.264 . S
C651 O635 1.254 . S
C652 Eu588 2.848 . S
C652 O632 1.257 . S
C652 O637 1.249 . S
C652 C645 1.492 . S
C653 H618 0.931 . S
C653 C631 1.420 1_655 S
C653 C654 1.351 . S
C654 H616 0.930 . S
C654 C622 1.423 1_655 S
C654 C653 1.351 . S
C655 O639 1.276 . S
C655 O642 1.235 . S
C656 C657 1.393 . S
C656 C660 1.395 . S
C656 C663 1.492 1_545 S
C657 C656 1.393 . S
C657 C658 1.392 . S
C657 H668 0.930 . S
C658 C657 1.392 . S
C658 C659 1.386 . S
C659 C658 1.386 . S
C659 C661 1.395 . S
C659 H669 0.930 . S
C660 C656 1.395 . S
C660 C661 1.379 . S
C660 H670 0.930 . S
C661 C659 1.395 . S
C661 C660 1.379 . S
C661 H671 0.930 . S
C662 O640 1.264 . S
C662 O641 1.254 . S
C663 Eu599 2.848 . S
C663 O638 1.257 . S
C663 O643 1.249 . S
C663 C656 1.492 1_565 S
H664 C647 0.930 . S
H665 C648 0.930 . S
H666 C649 0.930 . S
H667 C650 0.930 . S
H668 C657 0.930 . S
H669 C659 0.930 . S
H670 C660 0.930 . S
H671 C661 0.930 . S
Eu672 N703 2.657 . S
Eu672 N710 2.609 . S
Eu672 O716 2.558 . S
Eu672 O717 2.612 . S
Eu672 O719 2.339 . S
Eu672 O720 2.563 . S
Eu672 O721 2.419 . S
Eu672 O723 2.380 . S
Eu672 O724 2.432 . S
Eu672 C736 2.848 . S
C673 C676 1.429 . S
C673 C677 1.411 . S
C673 N680 1.377 . S
C674 C676 1.420 . S
C674 C678 1.423 1_565 S
C674 C686 1.395 . S
C675 C677 1.420 1_545 S
C675 C678 1.351 . S
C675 H698 0.931 . S
C676 C673 1.429 . S
C676 C674 1.420 . S
C676 N684 1.362 . S
C677 C673 1.411 . S
C677 C675 1.420 1_565 S
C677 C682 1.395 . S
C678 C674 1.423 1_545 S
C678 C675 1.351 . S
C678 H690 0.930 . S
C679 C681 1.400 . S
C679 C682 1.386 . S
C679 H691 0.930 . S
N680 C673 1.377 . S
N680 C681 1.321 . S
N680 Eu683 2.609 . S
C681 C679 1.400 . S
C681 N680 1.321 . S
C681 H688 0.930 . S
C682 C677 1.395 . S
C682 C679 1.386 . S
C682 H701 0.930 . S
Eu683 N680 2.609 . S
Eu683 N684 2.657 . S
Eu683 O717 2.380 . S
Eu683 O718 2.432 . S
Eu683 O722 2.558 . S
Eu683 O723 2.612 . S
Eu683 O725 2.339 . S
Eu683 O726 2.563 . S
Eu683 O727 2.419 . S
Eu683 C747 2.848 . S
N684 C676 1.362 . S
N684 Eu683 2.657 . S
N684 C685 1.334 . S
C685 N684 1.334 . S
C685 C687 1.413 . S
C685 H692 0.929 . S
C686 C674 1.395 . S
C686 C687 1.378 . S
C686 H694 0.917 1_565 S
C687 C685 1.413 . S
C687 C686 1.378 . S
C687 H689 0.930 . S
H688 C681 0.930 . S
H689 C687 0.930 . S
H690 C678 0.930 . S
H691 C679 0.930 . S
H692 C685 0.929 . S
H693 C707 0.930 . S
H694 C686 0.917 1_545 S
H695 C713 0.930 . S
H696 C704 0.929 . S
H697 C711 0.930 . S
H698 C675 0.931 . S
H699 C705 0.930 . S
H700 C738 0.930 . S
H701 C682 0.930 . S
H702 C737 0.931 . S
N703 Eu672 2.657 . S
N703 C704 1.334 . S
N703 C708 1.362 . S
C704 H696 0.929 . S
C704 N703 1.334 . S
C704 C707 1.413 . S
C705 H699 0.930 . S
C705 C706 1.392 . S
C705 C707 1.367 . S
C706 C705 1.392 . S
C706 C708 1.420 . S
C706 C738 1.423 . S
C707 H693 0.930 . S
C707 C704 1.413 . S
C707 C705 1.367 . S
C708 N703 1.362 . S
C708 C706 1.420 . S
C708 C712 1.429 . S
H709 C714 0.930 . S
N710 Eu672 2.609 . S
N710 C712 1.377 . S
N710 C713 1.321 . S
C711 H697 0.930 . S
C711 C713 1.400 . S
C711 C714 1.386 . S
C712 C708 1.429 . S
C712 N710 1.377 . S
C712 C715 1.411 . S
C713 H695 0.930 . S
C713 N710 1.321 . S
C713 C711 1.400 . S
C714 H709 0.930 . S
C714 C711 1.386 . S
C714 C715 1.395 . S
C715 C712 1.411 . S
C715 C714 1.395 . S
C715 C737 1.420 . S
O716 Eu672 2.558 . S
O716 C736 1.257 . S
O717 Eu672 2.612 . S
O717 Eu683 2.380 . S
O717 C728 1.276 . S
O718 Eu683 2.432 . S
O718 C735 1.264 . S
O719 Eu672 2.339 . S
O719 C735 1.254 . S
O720 Eu672 2.563 . S
O720 C728 1.235 . S
O721 Eu672 2.419 . S
O721 C736 1.249 . S
O722 Eu683 2.558 . S
O722 C747 1.257 . S
O723 Eu672 2.380 . S
O723 Eu683 2.612 . S
O723 C739 1.276 . S
O724 Eu672 2.432 . S
O724 C746 1.264 . S
O725 Eu683 2.339 . S
O725 C746 1.254 . S
O726 Eu683 2.563 . S
O726 C739 1.235 . S
O727 Eu683 2.419 . S
O727 C747 1.249 . S
C728 O717 1.276 . S
C728 O720 1.235 . S
C729 C731 1.393 . S
C729 C733 1.395 . S
C729 C736 1.492 . S
C730 C731 1.392 . S
C730 C732 1.386 . S
C731 C729 1.393 . S
C731 C730 1.392 . S
C731 H748 0.930 . S
C732 C730 1.386 . S
C732 C734 1.395 . S
C732 H749 0.930 . S
C733 C729 1.395 . S
C733 C734 1.379 . S
C733 H750 0.930 . S
C734 C732 1.395 . S
C734 C733 1.379 . S
C734 H751 0.930 . S
C735 O718 1.264 . S
C735 O719 1.254 . S
C736 Eu672 2.848 . S
C736 O716 1.257 . S
C736 O721 1.249 . S
C736 C729 1.492 . S
C737 H702 0.931 . S
C737 C715 1.420 . S
C737 C738 1.351 . S
C738 H700 0.930 . S
C738 C706 1.423 . S
C738 C737 1.351 . S
C739 O723 1.276 . S
C739 O726 1.235 . S
C740 C741 1.393 . S
C740 C744 1.395 . S
C740 C747 1.492 . S
C741 C740 1.393 . S
C741 C742 1.392 . S
C741 H752 0.930 . S
C742 C741 1.392 . S
C742 C743 1.386 . S
C743 C742 1.386 . S
C743 C745 1.395 . S
C743 H753 0.930 . S
C744 C740 1.395 . S
C744 C745 1.379 . S
C744 H754 0.930 . S
C745 C743 1.395 . S
C745 C744 1.379 . S
C745 H755 0.930 . S
C746 O724 1.264 . S
C746 O725 1.254 . S
C747 Eu683 2.848 . S
C747 O722 1.257 . S
C747 O727 1.249 . S
C747 C740 1.492 . S
H748 C731 0.930 . S
H749 C732 0.930 . S
H750 C733 0.930 . S
H751 C734 0.930 . S
H752 C741 0.930 . S
H753 C743 0.930 . S
H754 C744 0.930 . S
H755 C745 0.930 . S
Eu756 N787 2.657 . S
Eu756 N794 2.609 . S
Eu756 O800 2.558 . S
Eu756 O801 2.612 . S
Eu756 O803 2.339 . S
Eu756 O804 2.563 . S
Eu756 O805 2.419 . S
Eu756 O807 2.380 . S
Eu756 O808 2.432 . S
Eu756 C820 2.848 . S
C757 C760 1.429 . S
C757 C761 1.411 . S
C757 N764 1.377 . S
C758 C760 1.420 . S
C758 C762 1.423 . S
C758 C770 1.392 . S
C759 C761 1.420 . S
C759 C762 1.351 . S
C759 H782 0.931 1_455 S
C760 C757 1.429 . S
C760 C758 1.420 . S
C760 N768 1.362 . S
C761 C757 1.411 . S
C761 C759 1.420 . S
C761 C766 1.395 . S
C762 C758 1.423 . S
C762 C759 1.351 . S
C762 H774 0.930 1_455 S
C763 C765 1.400 . S
C763 C766 1.386 . S
C763 H775 0.930 . S
N764 C757 1.377 . S
N764 C765 1.321 . S
N764 Eu767 2.609 . S
C765 C763 1.400 . S
C765 N764 1.321 . S
C765 H772 0.930 . S
C766 C761 1.395 . S
C766 C763 1.386 . S
C766 H785 0.930 . S
Eu767 N764 2.609 . S
Eu767 N768 2.657 . S
Eu767 O801 2.380 . S
Eu767 O802 2.432 . S
Eu767 O806 2.558 . S
Eu767 O807 2.612 . S
Eu767 O809 2.339 . S
Eu767 O810 2.563 . S
Eu767 O811 2.419 . S
Eu767 C831 2.848 . S
N768 C760 1.362 . S
N768 Eu767 2.657 . S
N768 C769 1.334 . S
C769 N768 1.334 . S
C769 C771 1.413 . S
C769 H776 0.929 . S
C770 C758 1.392 . S
C770 C771 1.367 . S
C770 H778 0.930 . S
C771 C769 1.413 . S
C771 C770 1.367 . S
C771 H773 0.930 . S
H772 C765 0.930 . S
H773 C771 0.930 . S
H774 C762 0.930 1_655 S
H775 C763 0.930 . S
H776 C769 0.929 . S
H777 C791 0.930 . S
H778 C770 0.930 . S
H779 C797 0.930 . S
H780 C788 0.929 . S
H781 C795 0.930 . S
H782 C759 0.931 1_655 S
H783 C789 0.930 . S
H784 C822 0.930 . S
H785 C766 0.930 . S
H786 C821 0.931 . S
N787 Eu756 2.657 . S
N787 C788 1.334 . S
N787 C792 1.362 . S
C788 H780 0.929 . S
C788 N787 1.334 . S
C788 C791 1.413 . S
C789 H783 0.930 . S
C789 C790 1.392 . S
C789 C791 1.367 . S
C790 C789 1.392 . S
C790 C792 1.420 . S
C790 C822 1.423 . S
C791 H777 0.930 . S
C791 C788 1.413 . S
C791 C789 1.367 . S
C792 N787 1.362 . S
C792 C790 1.420 . S
C792 C796 1.429 . S
H793 C798 0.930 . S
N794 Eu756 2.609 . S
N794 C796 1.377 . S
N794 C797 1.321 . S
C795 H781 0.930 . S
C795 C797 1.400 . S
C795 C798 1.386 . S
C796 C792 1.429 . S
C796 N794 1.377 . S
C796 C799 1.411 . S
C797 H779 0.930 . S
C797 N794 1.321 . S
C797 C795 1.400 . S
C798 H793 0.930 . S
C798 C795 1.386 . S
C798 C799 1.395 . S
C799 C796 1.411 . S
C799 C798 1.395 . S
C799 C821 1.420 . S
O800 Eu756 2.558 . S
O800 C820 1.257 . S
O801 Eu756 2.612 . S
O801 Eu767 2.380 . S
O801 C812 1.276 . S
O802 Eu767 2.432 . S
O802 C819 1.264 . S
O803 Eu756 2.339 . S
O803 C819 1.254 . S
O804 Eu756 2.563 . S
O804 C812 1.235 . S
O805 Eu756 2.419 . S
O805 C820 1.249 . S
O806 Eu767 2.558 . S
O806 C831 1.257 . S
O807 Eu756 2.380 . S
O807 Eu767 2.612 . S
O807 C823 1.276 . S
O808 Eu756 2.432 . S
O808 C830 1.264 . S
O809 Eu767 2.339 . S
O809 C830 1.254 . S
O810 Eu767 2.563 . S
O810 C823 1.235 . S
O811 Eu767 2.419 . S
O811 C831 1.249 . S
C812 O801 1.276 . S
C812 O804 1.235 . S
C813 C815 1.393 . S
C813 C817 1.395 . S
C813 C820 1.492 . S
C814 C815 1.392 . S
C814 C816 1.386 . S
C815 C813 1.393 . S
C815 C814 1.392 . S
C815 H832 0.930 . S
C816 C814 1.386 . S
C816 C818 1.395 . S
C816 H833 0.930 . S
C817 C813 1.395 . S
C817 C818 1.379 . S
C817 H834 0.930 . S
C818 C816 1.395 . S
C818 C817 1.379 . S
C818 H835 0.930 . S
C819 O802 1.264 . S
C819 O803 1.254 . S
C820 Eu756 2.848 . S
C820 O800 1.257 . S
C820 O805 1.249 . S
C820 C813 1.492 . S
C821 H786 0.931 . S
C821 C799 1.420 . S
C821 C822 1.351 . S
C822 H784 0.930 . S
C822 C790 1.423 . S
C822 C821 1.351 . S
C823 O807 1.276 . S
C823 O810 1.235 . S
C824 C825 1.393 . S
C824 C828 1.395 . S
C824 C831 1.492 1_655 S
C825 C824 1.393 . S
C825 C826 1.392 . S
C825 H836 0.930 . S
C826 C825 1.392 . S
C826 C827 1.386 . S
C827 C826 1.386 . S
C827 C829 1.395 . S
C827 H837 0.930 . S
C828 C824 1.395 . S
C828 C829 1.379 . S
C828 H838 0.930 . S
C829 C827 1.395 . S
C829 C828 1.379 . S
C829 H839 0.930 . S
C830 O808 1.264 . S
C830 O809 1.254 . S
C831 Eu767 2.848 . S
C831 O806 1.257 . S
C831 O811 1.249 . S
C831 C824 1.492 1_455 S
H832 C815 0.930 . S
H833 C816 0.930 . S
H834 C817 0.930 . S
H835 C818 0.930 . S
H836 C825 0.930 . S
H837 C827 0.930 . S
H838 C828 0.930 . S
H839 C829 0.930 . S
Eu840 N871 2.657 . S
Eu840 N878 2.609 . S
Eu840 O884 2.558 . S
Eu840 O885 2.612 . S
Eu840 O887 2.339 . S
Eu840 O888 2.563 . S
Eu840 O889 2.419 . S
Eu840 O891 2.380 . S
Eu840 O892 2.432 . S
Eu840 C904 2.848 . S
C841 C844 1.429 . S
C841 C845 1.411 . S
C841 N848 1.377 . S
C842 C844 1.420 . S
C842 C846 1.423 1_455 S
C842 C854 1.397 . S
C843 C845 1.420 1_655 S
C843 C846 1.351 . S
C843 H866 0.931 . S
C844 C841 1.429 . S
C844 C842 1.420 . S
C844 N852 1.362 . S
C845 C841 1.411 . S
C845 C843 1.420 1_455 S
C845 C850 1.395 . S
C846 C842 1.423 1_655 S
C846 C843 1.351 . S
C846 H858 0.930 . S
C847 C849 1.400 . S
C847 C850 1.386 . S
C847 H859 0.930 . S
N848 C841 1.377 . S
N848 C849 1.321 . S
N848 Eu851 2.609 . S
C849 C847 1.400 . S
C849 N848 1.321 . S
C849 H856 0.930 . S
C850 C845 1.395 . S
C850 C847 1.386 . S
C850 H869 0.930 . S
Eu851 N848 2.609 . S
Eu851 N852 2.657 . S
Eu851 O885 2.380 . S
Eu851 O886 2.432 . S
Eu851 O890 2.558 . S
Eu851 O891 2.612 . S
Eu851 O893 2.339 . S
Eu851 O894 2.563 . S
Eu851 O895 2.419 . S
Eu851 C915 2.848 . S
N852 C844 1.362 . S
N852 Eu851 2.657 . S
N852 C853 1.334 . S
C853 N852 1.334 . S
C853 C855 1.413 . S
C853 H860 0.929 . S
C854 C842 1.397 . S
C854 C855 1.376 . S
C854 H862 0.917 1_455 S
C855 C853 1.413 . S
C855 C854 1.376 . S
C855 H857 0.930 . S
H856 C849 0.930 . S
H857 C855 0.930 . S
H858 C846 0.930 . S
H859 C847 0.930 . S
H860 C853 0.929 . S
H861 C875 0.930 . S
H862 C854 0.917 1_655 S
H863 C881 0.930 . S
H864 C872 0.929 . S
H865 C879 0.930 . S
H866 C843 0.931 . S
H867 C873 0.930 . S
H868 C906 0.930 1_545 S
H869 C850 0.930 . S
H870 C905 0.931 1_545 S
N871 Eu840 2.657 . S
N871 C872 1.334 . S
N871 C876 1.362 . S
C872 H864 0.929 . S
C872 N871 1.334 . S
C872 C875 1.413 . S
C873 H867 0.930 . S
C873 C874 1.392 . S
C873 C875 1.367 . S
C874 C873 1.392 . S
C874 C876 1.420 . S
C874 C906 1.423 . S
C875 H861 0.930 . S
C875 C872 1.413 . S
C875 C873 1.367 . S
C876 N871 1.362 . S
C876 C874 1.420 . S
C876 C880 1.429 . S
H877 C882 0.930 . S
N878 Eu840 2.609 . S
N878 C880 1.377 . S
N878 C881 1.321 . S
C879 H865 0.930 . S
C879 C881 1.400 . S
C879 C882 1.386 . S
C880 C876 1.429 . S
C880 N878 1.377 . S
C880 C883 1.411 . S
C881 H863 0.930 . S
C881 N878 1.321 . S
C881 C879 1.400 . S
C882 H877 0.930 . S
C882 C879 1.386 . S
C882 C883 1.395 . S
C883 C880 1.411 . S
C883 C882 1.395 . S
C883 C905 1.420 . S
O884 Eu840 2.558 . S
O884 C904 1.257 . S
O885 Eu840 2.612 . S
O885 Eu851 2.380 . S
O885 C896 1.276 . S
O886 Eu851 2.432 . S
O886 C903 1.264 . S
O887 Eu840 2.339 . S
O887 C903 1.254 . S
O888 Eu840 2.563 . S
O888 C896 1.235 . S
O889 Eu840 2.419 . S
O889 C904 1.249 . S
O890 Eu851 2.558 . S
O890 C915 1.257 . S
O891 Eu840 2.380 . S
O891 Eu851 2.612 . S
O891 C907 1.276 . S
O892 Eu840 2.432 . S
O892 C914 1.264 . S
O893 Eu851 2.339 . S
O893 C914 1.254 . S
O894 Eu851 2.563 . S
O894 C907 1.235 . S
O895 Eu851 2.419 . S
O895 C915 1.249 . S
C896 O885 1.276 . S
C896 O888 1.235 . S
C897 C899 1.393 . S
C897 C901 1.395 . S
C897 C904 1.492 1_545 S
C898 C899 1.392 . S
C898 C900 1.386 . S
C899 C897 1.393 . S
C899 C898 1.392 . S
C899 H916 0.930 . S
C900 C898 1.386 . S
C900 C902 1.395 . S
C900 H917 0.930 . S
C901 C897 1.395 . S
C901 C902 1.379 . S
C901 H918 0.930 . S
C902 C900 1.395 . S
C902 C901 1.379 . S
C902 H919 0.930 . S
C903 O886 1.264 . S
C903 O887 1.254 . S
C904 Eu840 2.848 . S
C904 O884 1.257 . S
C904 O889 1.249 . S
C904 C897 1.492 1_565 S
C905 H870 0.931 1_565 S
C905 C883 1.420 . S
C905 C906 1.351 . S
C906 H868 0.930 1_565 S
C906 C874 1.423 . S
C906 C905 1.351 . S
C907 O891 1.276 . S
C907 O894 1.235 . S
C908 C909 1.393 . S
C908 C912 1.395 . S
C908 C915 1.492 . S
C909 C908 1.393 . S
C909 C910 1.392 . S
C909 H920 0.930 . S
C910 C909 1.392 . S
C910 C911 1.386 . S
C911 C910 1.386 . S
C911 C913 1.395 . S
C911 H921 0.930 . S
C912 C908 1.395 . S
C912 C913 1.379 . S
C912 H922 0.930 . S
C913 C911 1.395 . S
C913 C912 1.379 . S
C913 H923 0.930 . S
C914 O892 1.264 . S
C914 O893 1.254 . S
C915 Eu851 2.848 . S
C915 O890 1.257 . S
C915 O895 1.249 . S
C915 C908 1.492 . S
H916 C899 0.930 . S
H917 C900 0.930 . S
H918 C901 0.930 . S
H919 C902 0.930 . S
H920 C909 0.930 . S
H921 C911 0.930 . S
H922 C912 0.930 . S
H923 C913 0.930 . S
Eu924 N955 2.657 . S
Eu924 N962 2.609 . S
Eu924 O968 2.558 . S
Eu924 O969 2.612 . S
Eu924 O971 2.339 . S
Eu924 O972 2.563 . S
Eu924 O973 2.419 . S
Eu924 O975 2.380 . S
Eu924 O976 2.432 . S
Eu924 C988 2.848 . S
C925 C928 1.429 . S
C925 C929 1.411 . S
C925 N932 1.377 . S
C926 C928 1.420 . S
C926 C930 1.423 . S
C926 C938 1.392 . S
C927 C929 1.420 . S
C927 C930 1.351 . S
C927 H950 0.931 . S
C928 C925 1.429 . S
C928 C926 1.420 . S
C928 N936 1.362 . S
C929 C925 1.411 . S
C929 C927 1.420 . S
C929 C934 1.395 . S
C930 C926 1.423 . S
C930 C927 1.351 . S
C930 H942 0.930 . S
C931 C933 1.400 . S
C931 C934 1.386 . S
C931 H943 0.930 . S
N932 C925 1.377 . S
N932 C933 1.321 . S
N932 Eu935 2.609 . S
C933 C931 1.400 . S
C933 N932 1.321 . S
C933 H940 0.930 . S
C934 C929 1.395 . S
C934 C931 1.386 . S
C934 H953 0.930 . S
Eu935 N932 2.609 . S
Eu935 N936 2.657 . S
Eu935 O969 2.380 . S
Eu935 O970 2.432 . S
Eu935 O974 2.558 . S
Eu935 O975 2.612 . S
Eu935 O977 2.339 . S
Eu935 O978 2.563 . S
Eu935 O979 2.419 . S
Eu935 C999 2.848 . S
N936 C928 1.362 . S
N936 Eu935 2.657 . S
N936 C937 1.334 . S
C937 N936 1.334 . S
C937 C939 1.413 . S
C937 H944 0.929 . S
C938 C926 1.392 . S
C938 C939 1.367 . S
C938 H946 0.930 . S
C939 C937 1.413 . S
C939 C938 1.367 . S
C939 H941 0.930 . S
H940 C933 0.930 . S
H941 C939 0.930 . S
H942 C930 0.930 . S
H943 C931 0.930 . S
H944 C937 0.929 . S
H945 C959 0.930 . S
H946 C938 0.930 . S
H947 C965 0.930 . S
H948 C956 0.929 . S
H949 C963 0.930 . S
H950 C927 0.931 . S
H951 C957 0.917 1_545 S
H952 C990 0.930 . S
H953 C934 0.930 . S
H954 C989 0.931 . S
N955 Eu924 2.657 . S
N955 C956 1.334 . S
N955 C960 1.362 . S
C956 H948 0.929 . S
C956 N955 1.334 . S
C956 C959 1.413 . S
C957 H951 0.917 1_565 S
C957 C958 1.395 . S
C957 C959 1.378 . S
C958 C957 1.395 . S
C958 C960 1.420 . S
C958 C990 1.423 1_565 S
C959 H945 0.930 . S
C959 C956 1.413 . S
C959 C957 1.378 . S
C960 N955 1.362 . S
C960 C958 1.420 . S
C960 C964 1.429 . S
H961 C966 0.930 . S
N962 Eu924 2.609 . S
N962 C964 1.377 . S
N962 C965 1.321 . S
C963 H949 0.930 . S
C963 C965 1.400 . S
C963 C966 1.386 . S
C964 C960 1.429 . S
C964 N962 1.377 . S
C964 C967 1.411 . S
C965 H947 0.930 . S
C965 N962 1.321 . S
C965 C963 1.400 . S
C966 H961 0.930 . S
C966 C963 1.386 . S
C966 C967 1.395 . S
C967 C964 1.411 . S
C967 C966 1.395 . S
C967 C989 1.420 1_565 S
O968 Eu924 2.558 . S
O968 C988 1.257 . S
O969 Eu924 2.612 . S
O969 Eu935 2.380 . S
O969 C980 1.276 . S
O970 Eu935 2.432 . S
O970 C987 1.264 . S
O971 Eu924 2.339 . S
O971 C987 1.254 . S
O972 Eu924 2.563 . S
O972 C980 1.235 . S
O973 Eu924 2.419 . S
O973 C988 1.249 . S
O974 Eu935 2.558 . S
O974 C999 1.257 . S
O975 Eu924 2.380 . S
O975 Eu935 2.612 . S
O975 C991 1.276 . S
O976 Eu924 2.432 . S
O976 C998 1.264 . S
O977 Eu935 2.339 . S
O977 C998 1.254 . S
O978 Eu935 2.563 . S
O978 C991 1.235 . S
O979 Eu935 2.419 . S
O979 C999 1.249 . S
C980 O969 1.276 . S
C980 O972 1.235 . S
C981 C983 1.393 . S
C981 C985 1.395 . S
C981 C988 1.492 . S
C982 C983 1.392 . S
C982 C984 1.386 . S
C983 C981 1.393 . S
C983 C982 1.392 . S
C983 H1000 0.930 . S
C984 C982 1.386 . S
C984 C986 1.395 . S
C984 H1001 0.930 . S
C985 C981 1.395 . S
C985 C986 1.379 . S
C985 H1002 0.930 . S
C986 C984 1.395 . S
C986 C985 1.379 . S
C986 H1003 0.930 . S
C987 O970 1.264 . S
C987 O971 1.254 . S
C988 Eu924 2.848 . S
C988 O968 1.257 . S
C988 O973 1.249 . S
C988 C981 1.492 . S
C989 H954 0.931 . S
C989 C967 1.420 1_545 S
C989 C990 1.351 . S
C990 H952 0.930 . S
C990 C958 1.423 1_545 S
C990 C989 1.351 . S
C991 O975 1.276 . S
C991 O978 1.235 . S
C992 C993 1.393 . S
C992 C996 1.395 . S
C992 C999 1.492 . S
C993 C992 1.393 . S
C993 C994 1.392 . S
C993 H1004 0.930 . S
C994 C993 1.392 . S
C994 C995 1.386 . S
C995 C994 1.386 . S
C995 C997 1.395 . S
C995 H1005 0.930 . S
C996 C992 1.395 . S
C996 C997 1.379 . S
C996 H1006 0.930 . S
C997 C995 1.395 . S
C997 C996 1.379 . S
C997 H1007 0.930 . S
C998 O976 1.264 . S
C998 O977 1.254 . S
C999 Eu935 2.848 . S
C999 O974 1.257 . S
C999 O979 1.249 . S
C999 C992 1.492 . S
H1000 C983 0.930 . S
H1001 C984 0.930 . S
H1002 C985 0.930 . S
H1003 C986 0.930 . S
H1004 C993 0.930 . S
H1005 C995 0.930 . S
H1006 C996 0.930 . S
H1007 C997 0.930 . S
H1008 C1020 0.930 . S
H1009 C1022 0.930 . S
H1010 C1023 0.930 . S
H1011 C1027 0.959 . S
H1012 C1027 0.959 . S
H1013 C1027 0.961 . S
H1014 C1028 0.960 . S
H1015 C1028 0.961 . S
H1016 C1028 0.959 . S
H1017 C1031 0.929 . S
H1018 C1032 0.931 . S
H1019 C1034 0.930 . S
C1020 H1008 0.930 . S
C1020 C1021 1.399 . S
C1020 C1025 1.399 . S
C1021 C1020 1.399 . S
C1021 C1022 1.376 . S
C1022 H1009 0.930 . S
C1022 C1021 1.376 . S
C1022 C1023 1.388 . S
C1023 H1010 0.930 . S
C1023 C1022 1.388 . S
C1023 C1024 1.390 . S
C1024 C1023 1.390 . S
C1024 C1025 1.394 . S
C1024 C1030 1.465 . S
C1025 C1020 1.399 . S
C1025 C1024 1.394 . S
C1025 C1026 1.516 . S
C1026 C1025 1.516 . S
C1026 C1027 1.502 . S
C1026 C1028 1.561 . S
C1026 C1029 1.526 . S
C1027 H1011 0.959 . S
C1027 H1012 0.959 . S
C1027 H1013 0.961 . S
C1027 C1026 1.502 . S
C1028 H1014 0.960 . S
C1028 H1015 0.961 . S
C1028 H1016 0.959 . S
C1028 C1026 1.561 . S
C1029 C1026 1.526 . S
C1029 C1030 1.396 . S
C1029 C1034 1.390 . S
C1030 C1024 1.465 . S
C1030 C1029 1.396 . S
C1030 C1031 1.399 . S
C1031 H1017 0.929 . S
C1031 C1030 1.399 . S
C1031 C1032 1.385 . S
C1032 H1018 0.931 . S
C1032 C1031 1.385 . S
C1032 C1033 1.389 . S
C1033 C1032 1.389 . S
C1033 C1034 1.387 . S
C1034 H1019 0.930 . S
C1034 C1029 1.390 . S
C1034 C1033 1.387 . S
H1035 C1047 0.930 . S
H1036 C1049 0.930 . S
H1037 C1050 0.930 . S
H1038 C1054 0.959 . S
H1039 C1054 0.959 . S
H1040 C1054 0.961 1_455 S
H1041 C1055 0.960 . S
H1042 C1055 0.961 1_655 S
H1043 C1055 0.959 . S
H1044 C1058 0.929 . S
H1045 C1059 0.931 . S
H1046 C1061 0.930 . S
C1047 H1035 0.930 . S
C1047 C1048 1.399 . S
C1047 C1052 1.399 . S
C1048 C1047 1.399 . S
C1048 C1049 1.376 . S
C1049 H1036 0.930 . S
C1049 C1048 1.376 . S
C1049 C1050 1.388 . S
C1050 H1037 0.930 . S
C1050 C1049 1.388 . S
C1050 C1051 1.390 . S
C1051 C1050 1.390 . S
C1051 C1052 1.394 . S
C1051 C1057 1.465 1_455 S
C1052 C1047 1.399 . S
C1052 C1051 1.394 . S
C1052 C1053 1.536 . S
C1053 C1052 1.536 . S
C1053 C1054 1.481 1_455 S
C1053 C1055 1.570 . S
C1053 C1056 1.521 1_455 S
C1054 H1038 0.959 . S
C1054 H1039 0.959 . S
C1054 H1040 0.961 1_655 S
C1054 C1053 1.481 1_655 S
C1055 H1041 0.960 . S
C1055 H1042 0.961 1_455 S
C1055 H1043 0.959 . S
C1055 C1053 1.570 . S
C1056 C1053 1.521 1_655 S
C1056 C1057 1.396 . S
C1056 C1061 1.390 . S
C1057 C1051 1.465 1_655 S
C1057 C1056 1.396 . S
C1057 C1058 1.399 . S
C1058 H1044 0.929 . S
C1058 C1057 1.399 . S
C1058 C1059 1.385 . S
C1059 H1045 0.931 . S
C1059 C1058 1.385 . S
C1059 C1060 1.389 . S
C1060 C1059 1.389 . S
C1060 C1061 1.387 . S
C1061 H1046 0.930 . S
C1061 C1056 1.390 . S
C1061 C1060 1.387 . S
H1062 C1074 0.930 . S
H1063 C1076 0.930 . S
H1064 C1077 0.930 . S
H1065 C1081 0.959 . S
H1066 C1081 0.959 1_565 S
H1067 C1081 0.961 . S
H1068 C1082 0.960 1_545 S
H1069 C1082 0.961 . S
H1070 C1082 0.959 . S
H1071 C1085 0.929 . S
H1072 C1086 0.931 . S
H1073 C1088 0.930 . S
C1074 H1062 0.930 . S
C1074 C1075 1.399 . S
C1074 C1079 1.399 . S
C1075 C1074 1.399 . S
C1075 C1076 1.376 . S
C1076 H1063 0.930 . S
C1076 C1075 1.376 . S
C1076 C1077 1.388 . S
C1077 H1064 0.930 . S
C1077 C1076 1.388 . S
C1077 C1078 1.390 . S
C1078 C1077 1.390 . S
C1078 C1079 1.394 . S
C1078 C1084 1.465 1_545 S
C1079 C1074 1.399 . S
C1079 C1078 1.394 . S
C1079 C1080 1.516 1_545 S
C1080 C1079 1.516 1_565 S
C1080 C1081 1.502 1_565 S
C1080 C1082 1.561 . S
C1080 C1083 1.526 . S
C1081 H1065 0.959 . S
C1081 H1066 0.959 1_545 S
C1081 H1067 0.961 . S
C1081 C1080 1.502 1_545 S
C1082 H1068 0.960 1_565 S
C1082 H1069 0.961 . S
C1082 H1070 0.959 . S
C1082 C1080 1.561 . S
C1083 C1080 1.526 . S
C1083 C1084 1.396 . S
C1083 C1088 1.390 . S
C1084 C1078 1.465 1_565 S
C1084 C1083 1.396 . S
C1084 C1085 1.399 . S
C1085 H1071 0.929 . S
C1085 C1084 1.399 . S
C1085 C1086 1.385 . S
C1086 H1072 0.931 . S
C1086 C1085 1.385 . S
C1086 C1087 1.389 . S
C1087 C1086 1.389 . S
C1087 C1088 1.387 . S
C1088 H1073 0.930 . S
C1088 C1083 1.390 . S
C1088 C1087 1.387 . S
H1089 C1101 0.930 . S
H1090 C1103 0.930 . S
H1091 C1104 0.930 . S
H1092 C1108 0.959 . S
H1093 C1108 0.959 . S
H1094 C1108 0.961 . S
H1095 C1109 0.960 . S
H1096 C1109 0.961 . S
H1097 C1109 0.959 . S
H1098 C1112 0.929 . S
H1099 C1113 0.931 . S
H1100 C1115 0.930 . S
C1101 H1089 0.930 . S
C1101 C1102 1.399 . S
C1101 C1106 1.399 . S
C1102 C1101 1.399 . S
C1102 C1103 1.376 . S
C1103 H1090 0.930 . S
C1103 C1102 1.376 . S
C1103 C1104 1.388 . S
C1104 H1091 0.930 . S
C1104 C1103 1.388 . S
C1104 C1105 1.390 . S
C1105 C1104 1.390 . S
C1105 C1106 1.394 . S
C1105 C1111 1.465 . S
C1106 C1101 1.399 . S
C1106 C1105 1.394 . S
C1106 C1107 1.516 . S
C1107 C1106 1.516 . S
C1107 C1108 1.502 . S
C1107 C1109 1.561 . S
C1107 C1110 1.526 . S
C1108 H1092 0.959 . S
C1108 H1093 0.959 . S
C1108 H1094 0.961 . S
C1108 C1107 1.502 . S
C1109 H1095 0.960 . S
C1109 H1096 0.961 . S
C1109 H1097 0.959 . S
C1109 C1107 1.561 . S
C1110 C1107 1.526 . S
C1110 C1111 1.396 . S
C1110 C1115 1.390 . S
C1111 C1105 1.465 . S
C1111 C1110 1.396 . S
C1111 C1112 1.399 . S
C1112 H1098 0.929 . S
C1112 C1111 1.399 . S
C1112 C1113 1.385 . S
C1113 H1099 0.931 . S
C1113 C1112 1.385 . S
C1113 C1114 1.389 . S
C1114 C1113 1.389 . S
C1114 C1115 1.387 . S
C1115 H1100 0.930 . S
C1115 C1110 1.390 . S
C1115 C1114 1.387 . S
H1116 C1128 0.930 . S
H1117 C1130 0.930 . S
H1118 C1131 0.930 . S
H1119 C1135 0.959 . S
H1120 C1135 0.959 . S
H1121 C1135 0.961 1_455 S
H1122 C1136 0.960 . S
H1123 C1136 0.961 1_655 S
H1124 C1136 0.959 . S
H1125 C1139 0.929 . S
H1126 C1140 0.931 . S
H1127 C1142 0.930 . S
C1128 H1116 0.930 . S
C1128 C1129 1.399 . S
C1128 C1133 1.399 . S
C1129 C1128 1.399 . S
C1129 C1130 1.376 . S
C1130 H1117 0.930 . S
C1130 C1129 1.376 . S
C1130 C1131 1.388 . S
C1131 H1118 0.930 . S
C1131 C1130 1.388 . S
C1131 C1132 1.390 . S
C1132 C1131 1.390 . S
C1132 C1133 1.394 . S
C1132 C1138 1.465 1_455 S
C1133 C1128 1.399 . S
C1133 C1132 1.394 . S
C1133 C1134 1.540 . S
C1134 C1133 1.540 . S
C1134 C1135 1.477 1_455 S
C1134 C1136 1.571 . S
C1134 C1137 1.520 1_455 S
C1135 H1119 0.959 . S
C1135 H1120 0.959 . S
C1135 H1121 0.961 1_655 S
C1135 C1134 1.477 1_655 S
C1136 H1122 0.960 . S
C1136 H1123 0.961 1_455 S
C1136 H1124 0.959 . S
C1136 C1134 1.571 . S
C1137 C1134 1.520 1_655 S
C1137 C1138 1.396 . S
C1137 C1142 1.390 . S
C1138 C1132 1.465 1_655 S
C1138 C1137 1.396 . S
C1138 C1139 1.399 . S
C1139 H1125 0.929 . S
C1139 C1138 1.399 . S
C1139 C1140 1.385 . S
C1140 H1126 0.931 . S
C1140 C1139 1.385 . S
C1140 C1141 1.389 . S
C1141 C1140 1.389 . S
C1141 C1142 1.387 . S
C1142 H1127 0.930 . S
C1142 C1137 1.390 . S
C1142 C1141 1.387 . S
H1143 C1155 0.930 . S
H1144 C1157 0.930 . S
H1145 C1158 0.930 . S
H1146 C1162 0.959 . S
H1147 C1162 0.959 . S
H1148 C1162 0.961 . S
H1149 C1163 0.960 . S
H1150 C1163 0.961 . S
H1151 C1163 0.959 . S
H1152 C1166 0.929 . S
H1153 C1167 0.931 . S
H1154 C1169 0.930 . S
C1155 H1143 0.930 . S
C1155 C1156 1.399 . S
C1155 C1160 1.399 . S
C1156 C1155 1.399 . S
C1156 C1157 1.376 . S
C1157 H1144 0.930 . S
C1157 C1156 1.376 . S
C1157 C1158 1.388 . S
C1158 H1145 0.930 . S
C1158 C1157 1.388 . S
C1158 C1159 1.390 . S
C1159 C1158 1.390 . S
C1159 C1160 1.394 . S
C1159 C1165 1.465 1_565 S
C1160 C1155 1.399 . S
C1160 C1159 1.394 . S
C1160 C1161 1.516 . S
C1161 C1160 1.516 . S
C1161 C1162 1.502 . S
C1161 C1163 1.561 . S
C1161 C1164 1.526 1_565 S
C1162 H1146 0.959 . S
C1162 H1147 0.959 . S
C1162 H1148 0.961 . S
C1162 C1161 1.502 . S
C1163 H1149 0.960 . S
C1163 H1150 0.961 . S
C1163 H1151 0.959 . S
C1163 C1161 1.561 . S
C1164 C1161 1.526 1_545 S
C1164 C1165 1.396 . S
C1164 C1169 1.390 . S
C1165 C1159 1.465 1_545 S
C1165 C1164 1.396 . S
C1165 C1166 1.399 . S
C1166 H1152 0.929 . S
C1166 C1165 1.399 . S
C1166 C1167 1.385 . S
C1167 H1153 0.931 . S
C1167 C1166 1.385 . S
C1167 C1168 1.389 . S
C1168 C1167 1.389 . S
C1168 C1169 1.387 . S
C1169 H1154 0.930 . S
C1169 C1164 1.390 . S
C1169 C1168 1.387 . S
H1170 C1182 0.930 . S
H1171 C1184 0.930 . S
H1172 C1185 0.930 . S
H1173 C1189 0.959 . S
H1174 C1189 0.959 . S
H1175 C1189 0.961 . S
H1176 C1190 0.960 . S
H1177 C1190 0.961 . S
H1178 C1190 0.959 . S
H1179 C1193 0.929 . S
H1180 C1194 0.931 . S
H1181 C1196 0.930 . S
C1182 H1170 0.930 . S
C1182 C1183 1.399 . S
C1182 C1187 1.399 . S
C1183 C1182 1.399 . S
C1183 C1184 1.376 . S
C1184 H1171 0.930 . S
C1184 C1183 1.376 . S
C1184 C1185 1.388 . S
C1185 H1172 0.930 . S
C1185 C1184 1.388 . S
C1185 C1186 1.390 . S
C1186 C1185 1.390 . S
C1186 C1187 1.394 . S
C1186 C1192 1.465 . S
C1187 C1182 1.399 . S
C1187 C1186 1.394 . S
C1187 C1188 1.516 . S
C1188 C1187 1.516 . S
C1188 C1189 1.502 . S
C1188 C1190 1.561 . S
C1188 C1191 1.526 . S
C1189 H1173 0.959 . S
C1189 H1174 0.959 . S
C1189 H1175 0.961 . S
C1189 C1188 1.502 . S
C1190 H1176 0.960 . S
C1190 H1177 0.961 . S
C1190 H1178 0.959 . S
C1190 C1188 1.561 . S
C1191 C1188 1.526 . S
C1191 C1192 1.396 . S
C1191 C1196 1.390 . S
C1192 C1186 1.465 . S
C1192 C1191 1.396 . S
C1192 C1193 1.399 . S
C1193 H1179 0.929 . S
C1193 C1192 1.399 . S
C1193 C1194 1.385 . S
C1194 H1180 0.931 . S
C1194 C1193 1.385 . S
C1194 C1195 1.389 . S
C1195 C1194 1.389 . S
C1195 C1196 1.387 . S
C1196 H1181 0.930 . S
C1196 C1191 1.390 . S
C1196 C1195 1.387 . S
H1197 C1209 0.930 . S
H1198 C1211 0.930 . S
H1199 C1212 0.930 . S
H1200 C1216 0.959 . S
H1201 C1216 0.959 . S
H1202 C1216 0.961 . S
H1203 C1217 0.960 1_455 S
H1204 C1217 0.961 . S
H1205 C1217 0.962 1_455 S
H1206 C1220 0.929 . S
H1207 C1221 0.931 . S
H1208 C1223 0.930 . S
C1209 H1197 0.930 . S
C1209 C1210 1.399 . S
C1209 C1214 1.399 . S
C1210 C1209 1.399 . S
C1210 C1211 1.376 . S
C1211 H1198 0.930 . S
C1211 C1210 1.376 . S
C1211 C1212 1.388 . S
C1212 H1199 0.930 . S
C1212 C1211 1.388 . S
C1212 C1213 1.390 . S
C1213 C1212 1.390 . S
C1213 C1214 1.394 . S
C1213 C1219 1.465 1_455 S
C1214 C1209 1.399 . S
C1214 C1213 1.394 . S
C1214 C1215 1.516 1_455 S
C1215 C1214 1.516 1_655 S
C1215 C1216 1.502 . S
C1215 C1217 1.561 . S
C1215 C1218 1.526 . S
C1216 H1200 0.959 . S
C1216 H1201 0.959 . S
C1216 H1202 0.961 . S
C1216 C1215 1.502 . S
C1217 H1203 0.960 1_655 S
C1217 H1204 0.961 . S
C1217 H1205 0.962 1_655 S
C1217 C1215 1.561 . S
C1218 C1215 1.526 . S
C1218 C1219 1.396 . S
C1218 C1223 1.390 . S
C1219 C1213 1.465 1_655 S
C1219 C1218 1.396 . S
C1219 C1220 1.399 . S
C1220 H1206 0.929 . S
C1220 C1219 1.399 . S
C1220 C1221 1.385 . S
C1221 H1207 0.931 . S
C1221 C1220 1.385 . S
C1221 C1222 1.389 . S
C1222 C1221 1.389 . S
C1222 C1223 1.387 . S
C1223 H1208 0.930 . S
C1223 C1218 1.390 . S
C1223 C1222 1.387 . S
H1224 C1236 0.930 . S
H1225 C1238 0.930 . S
H1226 C1239 0.930 . S
H1227 C1243 0.959 . S
H1228 C1243 0.959 . S
H1229 C1243 0.961 1_565 S
H1230 C1244 0.960 . S
H1231 C1244 0.961 1_545 S
H1232 C1244 0.959 . S
H1233 C1247 0.929 . S
H1234 C1248 0.931 . S
H1235 C1250 0.930 . S
C1236 H1224 0.930 . S
C1236 C1237 1.399 . S
C1236 C1241 1.399 . S
C1237 C1236 1.399 . S
C1237 C1238 1.376 . S
C1238 H1225 0.930 . S
C1238 C1237 1.376 . S
C1238 C1239 1.388 . S
C1239 H1226 0.930 . S
C1239 C1238 1.388 . S
C1239 C1240 1.390 . S
C1240 C1239 1.390 . S
C1240 C1241 1.394 . S
C1240 C1246 1.465 1_565 S
C1241 C1236 1.399 . S
C1241 C1240 1.394 . S
C1241 C1242 1.516 1_565 S
C1242 C1241 1.516 1_545 S
C1242 C1243 1.502 . S
C1242 C1244 1.561 1_545 S
C1242 C1245 1.526 . S
C1243 H1227 0.959 . S
C1243 H1228 0.959 . S
C1243 H1229 0.961 1_545 S
C1243 C1242 1.502 . S
C1244 H1230 0.960 . S
C1244 H1231 0.961 1_565 S
C1244 H1232 0.959 . S
C1244 C1242 1.561 1_565 S
C1245 C1242 1.526 . S
C1245 C1246 1.396 . S
C1245 C1250 1.390 . S
C1246 C1240 1.465 1_545 S
C1246 C1245 1.396 . S
C1246 C1247 1.399 . S
C1247 H1233 0.929 . S
C1247 C1246 1.399 . S
C1247 C1248 1.385 . S
C1248 H1234 0.931 . S
C1248 C1247 1.385 . S
C1248 C1249 1.389 . S
C1249 C1248 1.389 . S
C1249 C1250 1.387 . S
C1250 H1235 0.930 . S
C1250 C1245 1.390 . S
C1250 C1249 1.387 . S
H1251 C1263 0.930 . S
H1252 C1265 0.930 . S
H1253 C1266 0.930 . S
H1254 C1270 0.959 . S
H1255 C1270 0.959 . S
H1256 C1270 0.961 . S
H1257 C1271 0.960 . S
H1258 C1271 0.961 . S
H1259 C1271 0.959 . S
H1260 C1274 0.929 . S
H1261 C1275 0.931 . S
H1262 C1277 0.930 . S
C1263 H1251 0.930 . S
C1263 C1264 1.399 . S
C1263 C1268 1.399 . S
C1264 C1263 1.399 . S
C1264 C1265 1.376 . S
C1265 H1252 0.930 . S
C1265 C1264 1.376 . S
C1265 C1266 1.388 . S
C1266 H1253 0.930 . S
C1266 C1265 1.388 . S
C1266 C1267 1.390 . S
C1267 C1266 1.390 . S
C1267 C1268 1.394 . S
C1267 C1273 1.465 . S
C1268 C1263 1.399 . S
C1268 C1267 1.394 . S
C1268 C1269 1.516 . S
C1269 C1268 1.516 . S
C1269 C1270 1.502 . S
C1269 C1271 1.561 . S
C1269 C1272 1.526 . S
C1270 H1254 0.959 . S
C1270 H1255 0.959 . S
C1270 H1256 0.961 . S
C1270 C1269 1.502 . S
C1271 H1257 0.960 . S
C1271 H1258 0.961 . S
C1271 H1259 0.959 . S
C1271 C1269 1.561 . S
C1272 C1269 1.526 . S
C1272 C1273 1.396 . S
C1272 C1277 1.390 . S
C1273 C1267 1.465 . S
C1273 C1272 1.396 . S
C1273 C1274 1.399 . S
C1274 H1260 0.929 . S
C1274 C1273 1.399 . S
C1274 C1275 1.385 . S
C1275 H1261 0.931 . S
C1275 C1274 1.385 . S
C1275 C1276 1.389 . S
C1276 C1275 1.389 . S
C1276 C1277 1.387 . S
C1277 H1262 0.930 . S
C1277 C1272 1.390 . S
C1277 C1276 1.387 . S
H1278 C1290 0.930 . S
H1279 C1292 0.930 . S
H1280 C1293 0.930 . S
H1281 C1297 0.959 . S
H1282 C1297 0.959 . S
H1283 C1297 0.961 . S
H1284 C1298 0.960 . S
H1285 C1298 0.961 1_655 S
H1286 C1298 0.959 . S
H1287 C1301 0.929 . S
H1288 C1302 0.931 . S
H1289 C1304 0.930 . S
C1290 H1278 0.930 . S
C1290 C1291 1.399 . S
C1290 C1295 1.399 . S
C1291 C1290 1.399 . S
C1291 C1292 1.376 . S
C1292 H1279 0.930 . S
C1292 C1291 1.376 . S
C1292 C1293 1.388 . S
C1293 H1280 0.930 . S
C1293 C1292 1.388 . S
C1293 C1294 1.390 . S
C1294 C1293 1.390 . S
C1294 C1295 1.394 . S
C1294 C1300 1.465 1_455 S
C1295 C1290 1.399 . S
C1295 C1294 1.394 . S
C1295 C1296 1.516 1_455 S
C1296 C1295 1.516 1_655 S
C1296 C1297 1.502 . S
C1296 C1298 1.561 1_655 S
C1296 C1299 1.526 . S
C1297 H1281 0.959 . S
C1297 H1282 0.959 . S
C1297 H1283 0.961 . S
C1297 C1296 1.502 . S
C1298 H1284 0.960 . S
C1298 H1285 0.961 1_455 S
C1298 H1286 0.959 . S
C1298 C1296 1.561 1_455 S
C1299 C1296 1.526 . S
C1299 C1300 1.396 . S
C1299 C1304 1.390 . S
C1300 C1294 1.465 1_655 S
C1300 C1299 1.396 . S
C1300 C1301 1.399 . S
C1301 H1287 0.929 . S
C1301 C1300 1.399 . S
C1301 C1302 1.385 . S
C1302 H1288 0.931 . S
C1302 C1301 1.385 . S
C1302 C1303 1.389 . S
C1303 C1302 1.389 . S
C1303 C1304 1.387 . S
C1304 H1289 0.930 . S
C1304 C1299 1.390 . S
C1304 C1303 1.387 . S
H1305 C1317 0.930 . S
H1306 C1319 0.930 . S
H1307 C1320 0.930 . S
H1308 C1324 0.959 . S
H1309 C1324 0.959 . S
H1310 C1324 0.961 1_545 S
H1311 C1325 0.960 . S
H1312 C1325 0.961 1_565 S
H1313 C1325 0.959 . S
H1314 C1328 0.929 . S
H1315 C1329 0.931 . S
H1316 C1331 0.930 . S
C1317 H1305 0.930 . S
C1317 C1318 1.399 . S
C1317 C1322 1.399 . S
C1318 C1317 1.399 . S
C1318 C1319 1.376 . S
C1319 H1306 0.930 . S
C1319 C1318 1.376 . S
C1319 C1320 1.388 . S
C1320 H1307 0.930 . S
C1320 C1319 1.388 . S
C1320 C1321 1.390 . S
C1321 C1320 1.390 . S
C1321 C1322 1.394 . S
C1321 C1327 1.465 1_545 S
C1322 C1317 1.399 . S
C1322 C1321 1.394 . S
C1322 C1323 1.516 . S
C1323 C1322 1.516 . S
C1323 C1324 1.502 1_545 S
C1323 C1325 1.561 . S
C1323 C1326 1.526 1_545 S
C1324 H1308 0.959 . S
C1324 H1309 0.959 . S
C1324 H1310 0.961 1_565 S
C1324 C1323 1.502 1_565 S
C1325 H1311 0.960 . S
C1325 H1312 0.961 1_545 S
C1325 H1313 0.959 . S
C1325 C1323 1.561 . S
C1326 C1323 1.526 1_565 S
C1326 C1327 1.396 . S
C1326 C1331 1.390 . S
C1327 C1321 1.465 1_565 S
C1327 C1326 1.396 . S
C1327 C1328 1.399 . S
C1328 H1314 0.929 . S
C1328 C1327 1.399 . S
C1328 C1329 1.385 . S
C1329 H1315 0.931 . S
C1329 C1328 1.385 . S
C1329 C1330 1.389 . S
C1330 C1329 1.389 . S
C1330 C1331 1.387 . S
C1331 H1316 0.930 . S
C1331 C1326 1.390 . S
C1331 C1330 1.387 . S
H1332 C1344 0.930 . S
H1333 C1346 0.930 . S
H1334 C1347 0.930 . S
H1335 C1351 0.959 . S
H1336 C1351 0.959 . S
H1337 C1351 0.961 . S
H1338 C1352 0.960 . S
H1339 C1352 0.961 . S
H1340 C1352 0.959 . S
H1341 C1355 0.929 . S
H1342 C1356 0.931 . S
H1343 C1358 0.930 . S
C1344 H1332 0.930 . S
C1344 C1345 1.399 . S
C1344 C1349 1.399 . S
C1345 C1344 1.399 . S
C1345 C1346 1.376 . S
C1346 H1333 0.930 . S
C1346 C1345 1.376 . S
C1346 C1347 1.388 . S
C1347 H1334 0.930 . S
C1347 C1346 1.388 . S
C1347 C1348 1.390 . S
C1348 C1347 1.390 . S
C1348 C1349 1.394 . S
C1348 C1354 1.465 . S
C1349 C1344 1.399 . S
C1349 C1348 1.394 . S
C1349 C1350 1.516 . S
C1350 C1349 1.516 . S
C1350 C1351 1.502 . S
C1350 C1352 1.561 . S
C1350 C1353 1.526 . S
C1351 H1335 0.959 . S
C1351 H1336 0.959 . S
C1351 H1337 0.961 . S
C1351 C1350 1.502 . S
C1352 H1338 0.960 . S
C1352 H1339 0.961 . S
C1352 H1340 0.959 . S
C1352 C1350 1.561 . S
C1353 C1350 1.526 . S
C1353 C1354 1.396 . S
C1353 C1358 1.390 . S
C1354 C1348 1.465 . S
C1354 C1353 1.396 . S
C1354 C1355 1.399 . S
C1355 H1341 0.929 . S
C1355 C1354 1.399 . S
C1355 C1356 1.385 . S
C1356 H1342 0.931 . S
C1356 C1355 1.385 . S
C1356 C1357 1.389 . S
C1357 C1356 1.389 . S
C1357 C1358 1.387 . S
C1358 H1343 0.930 . S
C1358 C1353 1.390 . S
C1358 C1357 1.387 . S
H1359 C1371 0.930 . S
H1360 C1373 0.930 . S
H1361 C1374 0.930 . S
H1362 C1378 0.959 . S
H1363 C1378 0.959 . S
H1364 C1378 0.961 . S
H1365 C1379 0.960 . S
H1366 C1379 0.961 . S
H1367 C1379 0.959 . S
H1368 C1382 0.929 . S
H1369 C1383 0.931 . S
H1370 C1385 0.930 . S
C1371 H1359 0.930 . S
C1371 C1372 1.399 . S
C1371 C1376 1.399 . S
C1372 C1371 1.399 . S
C1372 C1373 1.376 . S
C1373 H1360 0.930 . S
C1373 C1372 1.376 . S
C1373 C1374 1.388 . S
C1374 H1361 0.930 . S
C1374 C1373 1.388 . S
C1374 C1375 1.390 . S
C1375 C1374 1.390 . S
C1375 C1376 1.394 . S
C1375 C1381 1.465 . S
C1376 C1371 1.399 . S
C1376 C1375 1.394 . S
C1376 C1377 1.516 . S
C1377 C1376 1.516 . S
C1377 C1378 1.502 . S
C1377 C1379 1.561 . S
C1377 C1380 1.526 . S
C1378 H1362 0.959 . S
C1378 H1363 0.959 . S
C1378 H1364 0.961 . S
C1378 C1377 1.502 . S
C1379 H1365 0.960 . S
C1379 H1366 0.961 . S
C1379 H1367 0.959 . S
C1379 C1377 1.561 . S
C1380 C1377 1.526 . S
C1380 C1381 1.396 . S
C1380 C1385 1.390 . S
C1381 C1375 1.465 . S
C1381 C1380 1.396 . S
C1381 C1382 1.399 . S
C1382 H1368 0.929 . S
C1382 C1381 1.399 . S
C1382 C1383 1.385 . S
C1383 H1369 0.931 . S
C1383 C1382 1.385 . S
C1383 C1384 1.389 . S
C1384 C1383 1.389 . S
C1384 C1385 1.387 . S
C1385 H1370 0.930 . S
C1385 C1380 1.390 . S
C1385 C1384 1.387 . S
H1386 C1398 0.930 . S
H1387 C1400 0.930 . S
H1388 C1401 0.930 . S
H1389 C1405 0.959 . S
H1390 C1405 0.959 . S
H1391 C1405 0.961 . S
H1392 C1406 0.960 . S
H1393 C1406 0.961 . S
H1394 C1406 0.959 . S
H1395 C1409 0.929 . S
H1396 C1410 0.931 . S
H1397 C1412 0.930 . S
C1398 H1386 0.930 . S
C1398 C1399 1.399 . S
C1398 C1403 1.399 . S
C1399 C1398 1.399 . S
C1399 C1400 1.376 . S
C1400 H1387 0.930 . S
C1400 C1399 1.376 . S
C1400 C1401 1.388 . S
C1401 H1388 0.930 . S
C1401 C1400 1.388 . S
C1401 C1402 1.390 . S
C1402 C1401 1.390 . S
C1402 C1403 1.394 . S
C1402 C1408 1.465 . S
C1403 C1398 1.399 . S
C1403 C1402 1.394 . S
C1403 C1404 1.516 . S
C1404 C1403 1.516 . S
C1404 C1405 1.502 . S
C1404 C1406 1.561 . S
C1404 C1407 1.526 . S
C1405 H1389 0.959 . S
C1405 H1390 0.959 . S
C1405 H1391 0.961 . S
C1405 C1404 1.502 . S
C1406 H1392 0.960 . S
C1406 H1393 0.961 . S
C1406 H1394 0.959 . S
C1406 C1404 1.561 . S
C1407 C1404 1.526 . S
C1407 C1408 1.396 . S
C1407 C1412 1.390 . S
C1408 C1402 1.465 . S
C1408 C1407 1.396 . S
C1408 C1409 1.399 . S
C1409 H1395 0.929 . S
C1409 C1408 1.399 . S
C1409 C1410 1.385 . S
C1410 H1396 0.931 . S
C1410 C1409 1.385 . S
C1410 C1411 1.389 . S
C1411 C1410 1.389 . S
C1411 C1412 1.387 . S
C1412 H1397 0.930 . S
C1412 C1407 1.390 . S
C1412 C1411 1.387 . S
H1413 C1425 0.930 . S
H1414 C1427 0.930 . S
H1415 C1428 0.930 . S
H1416 C1432 0.959 . S
H1417 C1432 0.959 . S
H1418 C1432 0.961 . S
H1419 C1433 0.960 . S
H1420 C1433 0.961 . S
H1421 C1433 0.959 . S
H1422 C1436 0.929 . S
H1423 C1437 0.931 . S
H1424 C1439 0.930 . S
C1425 H1413 0.930 . S
C1425 C1426 1.399 . S
C1425 C1430 1.399 . S
C1426 C1425 1.399 . S
C1426 C1427 1.376 . S
C1427 H1414 0.930 . S
C1427 C1426 1.376 . S
C1427 C1428 1.388 . S
C1428 H1415 0.930 . S
C1428 C1427 1.388 . S
C1428 C1429 1.390 . S
C1429 C1428 1.390 . S
C1429 C1430 1.394 . S
C1429 C1435 1.465 . S
C1430 C1425 1.399 . S
C1430 C1429 1.394 . S
C1430 C1431 1.516 . S
C1431 C1430 1.516 . S
C1431 C1432 1.502 . S
C1431 C1433 1.561 . S
C1431 C1434 1.526 . S
C1432 H1416 0.959 . S
C1432 H1417 0.959 . S
C1432 H1418 0.961 . S
C1432 C1431 1.502 . S
C1433 H1419 0.960 . S
C1433 H1420 0.961 . S
C1433 H1421 0.959 . S
C1433 C1431 1.561 . S
C1434 C1431 1.526 . S
C1434 C1435 1.396 . S
C1434 C1439 1.390 . S
C1435 C1429 1.465 . S
C1435 C1434 1.396 . S
C1435 C1436 1.399 . S
C1436 H1422 0.929 . S
C1436 C1435 1.399 . S
C1436 C1437 1.385 . S
C1437 H1423 0.931 . S
C1437 C1436 1.385 . S
C1437 C1438 1.389 . S
C1438 C1437 1.389 . S
C1438 C1439 1.387 . S
C1439 H1424 0.930 . S
C1439 C1434 1.390 . S
C1439 C1438 1.387 . S
H1440 C1452 0.930 . S
H1441 C1454 0.930 . S
H1442 C1455 0.930 . S
H1443 C1459 0.959 . S
H1444 C1459 0.959 . S
H1445 C1459 0.961 . S
H1446 C1460 0.960 . S
H1447 C1460 0.961 . S
H1448 C1460 0.959 . S
H1449 C1463 0.929 . S
H1450 C1464 0.931 . S
H1451 C1466 0.930 . S
C1452 H1440 0.930 . S
C1452 C1453 1.399 . S
C1452 C1457 1.399 . S
C1453 C1452 1.399 . S
C1453 C1454 1.376 . S
C1454 H1441 0.930 . S
C1454 C1453 1.376 . S
C1454 C1455 1.388 . S
C1455 H1442 0.930 . S
C1455 C1454 1.388 . S
C1455 C1456 1.390 . S
C1456 C1455 1.390 . S
C1456 C1457 1.394 . S
C1456 C1462 1.465 . S
C1457 C1452 1.399 . S
C1457 C1456 1.394 . S
C1457 C1458 1.516 . S
C1458 C1457 1.516 . S
C1458 C1459 1.502 . S
C1458 C1460 1.561 . S
C1458 C1461 1.526 . S
C1459 H1443 0.959 . S
C1459 H1444 0.959 . S
C1459 H1445 0.961 . S
C1459 C1458 1.502 . S
C1460 H1446 0.960 . S
C1460 H1447 0.961 . S
C1460 H1448 0.959 . S
C1460 C1458 1.561 . S
C1461 C1458 1.526 . S
C1461 C1462 1.396 . S
C1461 C1466 1.390 . S
C1462 C1456 1.465 . S
C1462 C1461 1.396 . S
C1462 C1463 1.399 . S
C1463 H1449 0.929 . S
C1463 C1462 1.399 . S
C1463 C1464 1.385 . S
C1464 H1450 0.931 . S
C1464 C1463 1.385 . S
C1464 C1465 1.389 . S
C1465 C1464 1.389 . S
C1465 C1466 1.387 . S
C1466 H1451 0.930 . S
C1466 C1461 1.390 . S
C1466 C1465 1.387 . S
H1467 C1479 0.930 . S
H1468 C1481 0.930 . S
H1469 C1482 0.930 . S
H1470 C1486 0.959 . S
H1471 C1486 0.959 . S
H1472 C1486 0.961 . S
H1473 C1487 0.960 . S
H1474 C1487 0.961 . S
H1475 C1487 0.959 . S
H1476 C1490 0.929 . S
H1477 C1491 0.931 . S
H1478 C1493 0.930 . S
C1479 H1467 0.930 . S
C1479 C1480 1.399 . S
C1479 C1484 1.399 . S
C1480 C1479 1.399 . S
C1480 C1481 1.376 . S
C1481 H1468 0.930 . S
C1481 C1480 1.376 . S
C1481 C1482 1.388 . S
C1482 H1469 0.930 . S
C1482 C1481 1.388 . S
C1482 C1483 1.390 . S
C1483 C1482 1.390 . S
C1483 C1484 1.394 . S
C1483 C1489 1.465 . S
C1484 C1479 1.399 . S
C1484 C1483 1.394 . S
C1484 C1485 1.516 . S
C1485 C1484 1.516 . S
C1485 C1486 1.502 . S
C1485 C1487 1.561 . S
C1485 C1488 1.526 . S
C1486 H1470 0.959 . S
C1486 H1471 0.959 . S
C1486 H1472 0.961 . S
C1486 C1485 1.502 . S
C1487 H1473 0.960 . S
C1487 H1474 0.961 . S
C1487 H1475 0.959 . S
C1487 C1485 1.561 . S
C1488 C1485 1.526 . S
C1488 C1489 1.396 . S
C1488 C1493 1.390 . S
C1489 C1483 1.465 . S
C1489 C1488 1.396 . S
C1489 C1490 1.399 . S
C1490 H1476 0.929 . S
C1490 C1489 1.399 . S
C1490 C1491 1.385 . S
C1491 H1477 0.931 . S
C1491 C1490 1.385 . S
C1491 C1492 1.389 . S
C1492 C1491 1.389 . S
C1492 C1493 1.387 . S
C1493 H1478 0.930 . S
C1493 C1488 1.390 . S
C1493 C1492 1.387 . S
H1494 C1506 0.930 . S
H1495 C1508 0.930 . S
H1496 C1509 0.930 . S
H1497 C1513 0.959 . S
H1498 C1513 0.959 . S
H1499 C1513 0.961 . S
H1500 C1514 0.960 . S
H1501 C1514 0.961 . S
H1502 C1514 0.959 . S
H1503 C1517 0.929 1_565 S
H1504 C1518 0.931 . S
H1505 C1520 0.930 . S
C1506 H1494 0.930 . S
C1506 C1507 1.399 . S
C1506 C1511 1.399 . S
C1507 C1506 1.399 . S
C1507 C1508 1.376 . S
C1508 H1495 0.930 . S
C1508 C1507 1.376 . S
C1508 C1509 1.388 1_556 S
C1509 H1496 0.930 . S
C1509 C1508 1.388 1_554 S
C1509 C1510 1.399 . S
C1510 C1509 1.399 . S
C1510 C1511 1.355 1_554 S
C1510 C1516 1.491 1_565 S
C1511 C1506 1.399 . S
C1511 C1510 1.355 1_556 S
C1511 C1512 1.516 1_565 S
C1512 C1511 1.516 1_545 S
C1512 C1513 1.502 . S
C1512 C1514 1.561 . S
C1512 C1515 1.526 1_556 S
C1513 H1497 0.959 . S
C1513 H1498 0.959 . S
C1513 H1499 0.961 . S
C1513 C1512 1.502 . S
C1514 H1500 0.960 . S
C1514 H1501 0.961 . S
C1514 H1502 0.959 . S
C1514 C1512 1.561 . S
C1515 C1512 1.526 1_554 S
C1515 C1516 1.396 . S
C1515 C1520 1.390 . S
C1516 C1510 1.491 1_545 S
C1516 C1515 1.396 . S
C1516 C1517 1.399 . S
C1517 H1503 0.929 1_545 S
C1517 C1516 1.399 . S
C1517 C1518 1.385 . S
C1518 H1504 0.931 . S
C1518 C1517 1.385 . S
C1518 C1519 1.389 . S
C1519 C1518 1.389 . S
C1519 C1520 1.387 . S
C1520 H1505 0.930 . S
C1520 C1515 1.390 . S
C1520 C1519 1.387 . S
H1521 C1533 0.930 . S
H1522 C1535 0.930 . S
H1523 C1536 0.930 . S
H1524 C1540 0.959 . S
H1525 C1540 0.959 . S
H1526 C1540 0.961 . S
H1527 C1541 0.960 . S
H1528 C1541 0.961 . S
H1529 C1541 0.959 . S
H1530 C1544 0.929 . S
H1531 C1545 0.931 . S
H1532 C1547 0.930 . S
C1533 H1521 0.930 . S
C1533 C1534 1.399 . S
C1533 C1538 1.399 . S
C1534 C1533 1.399 . S
C1534 C1535 1.376 . S
C1535 H1522 0.930 . S
C1535 C1534 1.376 . S
C1535 C1536 1.388 . S
C1536 H1523 0.930 . S
C1536 C1535 1.388 . S
C1536 C1537 1.390 . S
C1537 C1536 1.390 . S
C1537 C1538 1.394 . S
C1537 C1543 1.465 . S
C1538 C1533 1.399 . S
C1538 C1537 1.394 . S
C1538 C1539 1.516 . S
C1539 C1538 1.516 . S
C1539 C1540 1.502 . S
C1539 C1541 1.561 . S
C1539 C1542 1.526 . S
C1540 H1524 0.959 . S
C1540 H1525 0.959 . S
C1540 H1526 0.961 . S
C1540 C1539 1.502 . S
C1541 H1527 0.960 . S
C1541 H1528 0.961 . S
C1541 H1529 0.959 . S
C1541 C1539 1.561 . S
C1542 C1539 1.526 . S
C1542 C1543 1.396 . S
C1542 C1547 1.390 . S
C1543 C1537 1.465 . S
C1543 C1542 1.396 . S
C1543 C1544 1.399 . S
C1544 H1530 0.929 . S
C1544 C1543 1.399 . S
C1544 C1545 1.385 . S
C1545 H1531 0.931 . S
C1545 C1544 1.385 . S
C1545 C1546 1.389 . S
C1546 C1545 1.389 . S
C1546 C1547 1.387 . S
C1547 H1532 0.930 . S
C1547 C1542 1.390 . S
C1547 C1546 1.387 . S
H1548 C1560 0.930 . S
H1549 C1562 0.930 . S
H1550 C1563 0.930 . S
H1551 C1567 0.955 1_656 S
H1552 C1567 0.958 1_655 S
H1553 C1567 0.967 1_556 S
H1554 C1568 0.960 . S
H1555 C1568 0.961 . S
H1556 C1568 0.959 . S
H1557 C1571 0.929 . S
H1558 C1572 0.931 . S
H1559 C1574 0.930 . S
C1560 H1548 0.930 . S
C1560 C1561 1.399 . S
C1560 C1565 1.399 . S
C1561 C1560 1.399 . S
C1561 C1562 1.376 . S
C1562 H1549 0.930 . S
C1562 C1561 1.376 . S
C1562 C1563 1.388 . S
C1563 H1550 0.930 . S
C1563 C1562 1.388 . S
C1563 C1564 1.390 . S
C1564 C1563 1.390 . S
C1564 C1565 1.394 . S
C1564 C1570 1.465 1_456 S
C1565 C1560 1.399 . S
C1565 C1564 1.394 . S
C1565 C1566 1.516 1_556 S
C1566 C1565 1.516 1_554 S
C1566 C1567 1.500 . S
C1566 C1568 1.561 . S
C1566 C1569 1.526 1_455 S
C1567 H1551 0.955 1_454 S
C1567 H1552 0.958 1_455 S
C1567 H1553 0.967 1_554 S
C1567 C1566 1.500 . S
C1568 H1554 0.960 . S
C1568 H1555 0.961 . S
C1568 H1556 0.959 . S
C1568 C1566 1.561 . S
C1569 C1566 1.526 1_655 S
C1569 C1570 1.396 . S
C1569 C1574 1.390 . S
C1570 C1564 1.465 1_654 S
C1570 C1569 1.396 . S
C1570 C1571 1.399 . S
C1571 H1557 0.929 . S
C1571 C1570 1.399 . S
C1571 C1572 1.385 . S
C1572 H1558 0.931 . S
C1572 C1571 1.385 . S
C1572 C1573 1.389 . S
C1573 C1572 1.389 . S
C1573 C1574 1.387 . S
C1574 H1559 0.930 . S
C1574 C1569 1.390 . S
C1574 C1573 1.387 . S
H1575 C1587 0.930 . S
H1576 C1589 0.930 . S
H1577 C1590 0.930 . S
H1578 C1594 0.959 1_565 S
H1579 C1594 0.959 . S
H1580 C1594 0.961 . S
H1581 C1595 0.960 . S
H1582 C1595 0.961 . S
H1583 C1595 0.959 . S
H1584 C1598 0.929 . S
H1585 C1599 0.931 . S
H1586 C1601 0.930 . S
C1587 H1575 0.930 . S
C1587 C1588 1.399 . S
C1587 C1592 1.399 . S
C1588 C1587 1.399 . S
C1588 C1589 1.376 . S
C1589 H1576 0.930 . S
C1589 C1588 1.376 . S
C1589 C1590 1.388 . S
C1590 H1577 0.930 . S
C1590 C1589 1.388 . S
C1590 C1591 1.390 . S
C1591 C1590 1.390 . S
C1591 C1592 1.394 . S
C1591 C1597 1.465 1_545 S
C1592 C1587 1.399 . S
C1592 C1591 1.394 . S
C1592 C1593 1.516 . S
C1593 C1592 1.516 . S
C1593 C1594 1.502 . S
C1593 C1595 1.561 . S
C1593 C1596 1.526 1_545 S
C1594 H1578 0.959 1_545 S
C1594 H1579 0.959 . S
C1594 H1580 0.961 . S
C1594 C1593 1.502 . S
C1595 H1581 0.960 . S
C1595 H1582 0.961 . S
C1595 H1583 0.959 . S
C1595 C1593 1.561 . S
C1596 C1593 1.526 1_565 S
C1596 C1597 1.396 . S
C1596 C1601 1.390 . S
C1597 C1591 1.465 1_565 S
C1597 C1596 1.396 . S
C1597 C1598 1.399 . S
C1598 H1584 0.929 . S
C1598 C1597 1.399 . S
C1598 C1599 1.385 . S
C1599 H1585 0.931 . S
C1599 C1598 1.385 . S
C1599 C1600 1.389 . S
C1600 C1599 1.389 . S
C1600 C1601 1.387 . S
C1601 H1586 0.930 . S
C1601 C1596 1.390 . S
C1601 C1600 1.387 . S
H1602 C1614 0.930 . S
H1603 C1616 0.930 . S
H1604 C1617 0.930 . S
H1605 C1621 0.959 . S
H1606 C1621 0.959 . S
H1607 C1621 0.961 . S
H1608 C1622 0.960 . S
H1609 C1622 0.961 . S
H1610 C1622 0.959 . S
H1611 C1625 0.929 . S
H1612 C1626 0.931 . S
H1613 C1628 0.930 . S
C1614 H1602 0.930 . S
C1614 C1615 1.399 . S
C1614 C1619 1.399 . S
C1615 C1614 1.399 . S
C1615 C1616 1.376 . S
C1616 H1603 0.930 . S
C1616 C1615 1.376 . S
C1616 C1617 1.388 1_554 S
C1617 H1604 0.930 . S
C1617 C1616 1.388 1_556 S
C1617 C1618 1.390 . S
C1618 C1617 1.390 . S
C1618 C1619 1.394 1_556 S
C1618 C1624 1.465 . S
C1619 C1614 1.399 . S
C1619 C1618 1.394 1_554 S
C1619 C1620 1.516 . S
C1620 C1619 1.516 . S
C1620 C1621 1.502 . S
C1620 C1622 1.561 . S
C1620 C1623 1.526 1_554 S
C1621 H1605 0.959 . S
C1621 H1606 0.959 . S
C1621 H1607 0.961 . S
C1621 C1620 1.502 . S
C1622 H1608 0.960 . S
C1622 H1609 0.961 . S
C1622 H1610 0.959 . S
C1622 C1620 1.561 . S
C1623 C1620 1.526 1_556 S
C1623 C1624 1.396 . S
C1623 C1628 1.390 . S
C1624 C1618 1.465 . S
C1624 C1623 1.396 . S
C1624 C1625 1.399 . S
C1625 H1611 0.929 . S
C1625 C1624 1.399 . S
C1625 C1626 1.385 . S
C1626 H1612 0.931 . S
C1626 C1625 1.385 . S
C1626 C1627 1.389 . S
C1627 C1626 1.389 . S
C1627 C1628 1.387 . S
C1628 H1613 0.930 . S
C1628 C1623 1.390 . S
C1628 C1627 1.387 . S
H1629 C1641 0.930 . S
H1630 C1643 0.930 . S
H1631 C1644 0.930 . S
H1632 C1648 0.959 . S
H1633 C1648 0.959 . S
H1634 C1648 0.961 . S
H1635 C1649 0.960 . S
H1636 C1649 0.961 . S
H1637 C1649 0.959 . S
H1638 C1652 0.929 . S
H1639 C1653 0.931 . S
H1640 C1655 0.930 . S
C1641 H1629 0.930 . S
C1641 C1642 1.399 . S
C1641 C1646 1.399 . S
C1642 C1641 1.399 . S
C1642 C1643 1.376 . S
C1643 H1630 0.930 . S
C1643 C1642 1.376 . S
C1643 C1644 1.388 . S
C1644 H1631 0.930 . S
C1644 C1643 1.388 . S
C1644 C1645 1.390 . S
C1645 C1644 1.390 . S
C1645 C1646 1.394 . S
C1645 C1651 1.465 1_455 S
C1646 C1641 1.399 . S
C1646 C1645 1.394 . S
C1646 C1647 1.517 1_455 S
C1647 C1646 1.517 1_655 S
C1647 C1648 1.501 . S
C1647 C1649 1.561 1_655 S
C1647 C1650 1.526 . S
C1648 H1632 0.959 . S
C1648 H1633 0.959 . S
C1648 H1634 0.961 . S
C1648 C1647 1.501 . S
C1649 H1635 0.960 . S
C1649 H1636 0.961 . S
C1649 H1637 0.959 . S
C1649 C1647 1.561 1_455 S
C1650 C1647 1.526 . S
C1650 C1651 1.396 . S
C1650 C1655 1.390 . S
C1651 C1645 1.465 1_655 S
C1651 C1650 1.396 . S
C1651 C1652 1.399 . S
C1652 H1638 0.929 . S
C1652 C1651 1.399 . S
C1652 C1653 1.385 . S
C1653 H1639 0.931 . S
C1653 C1652 1.385 . S
C1653 C1654 1.389 . S
C1654 C1653 1.389 . S
C1654 C1655 1.387 . S
C1655 H1640 0.930 . S
C1655 C1650 1.390 . S
C1655 C1654 1.387 . S
H1656 C1668 0.930 . S
H1657 C1670 0.930 . S
H1658 C1671 0.930 . S
H1659 C1675 0.959 . S
H1660 C1675 0.959 . S
H1661 C1675 0.961 . S
H1662 C1676 0.960 . S
H1663 C1676 0.961 . S
H1664 C1676 0.959 . S
H1665 C1679 0.929 . S
H1666 C1680 0.931 . S
H1667 C1682 0.930 . S
C1668 H1656 0.930 . S
C1668 C1669 1.399 . S
C1668 C1673 1.399 . S
C1669 C1668 1.399 . S
C1669 C1670 1.376 . S
C1670 H1657 0.930 . S
C1670 C1669 1.376 . S
C1670 C1671 1.388 . S
C1671 H1658 0.930 . S
C1671 C1670 1.388 . S
C1671 C1672 1.390 . S
C1672 C1671 1.390 . S
C1672 C1673 1.394 . S
C1672 C1678 1.465 . S
C1673 C1668 1.399 . S
C1673 C1672 1.394 . S
C1673 C1674 1.516 . S
C1674 C1673 1.516 . S
C1674 C1675 1.502 . S
C1674 C1676 1.561 . S
C1674 C1677 1.526 . S
C1675 H1659 0.959 . S
C1675 H1660 0.959 . S
C1675 H1661 0.961 . S
C1675 C1674 1.502 . S
C1676 H1662 0.960 . S
C1676 H1663 0.961 . S
C1676 H1664 0.959 . S
C1676 C1674 1.561 . S
C1677 C1674 1.526 . S
C1677 C1678 1.396 . S
C1677 C1682 1.390 . S
C1678 C1672 1.465 . S
C1678 C1677 1.396 . S
C1678 C1679 1.399 . S
C1679 H1665 0.929 . S
C1679 C1678 1.399 . S
C1679 C1680 1.385 . S
C1680 H1666 0.931 . S
C1680 C1679 1.385 . S
C1680 C1681 1.389 . S
C1681 C1680 1.389 . S
C1681 C1682 1.387 . S
C1682 H1667 0.930 . S
C1682 C1677 1.390 . S
C1682 C1681 1.387 . S
H1683 C1695 0.930 . S
H1684 C1697 0.930 . S
H1685 C1698 0.930 . S
H1686 C1702 0.959 . S
H1687 C1702 0.959 . S
H1688 C1702 0.961 . S
H1689 C1703 0.960 . S
H1690 C1703 0.961 . S
H1691 C1703 0.959 . S
H1692 C1706 0.929 . S
H1693 C1707 0.931 . S
H1694 C1709 0.930 . S
C1695 H1683 0.930 . S
C1695 C1696 1.399 . S
C1695 C1700 1.399 . S
C1696 C1695 1.399 . S
C1696 C1697 1.376 . S
C1697 H1684 0.930 . S
C1697 C1696 1.376 . S
C1697 C1698 1.388 . S
C1698 H1685 0.930 . S
C1698 C1697 1.388 . S
C1698 C1699 1.390 . S
C1699 C1698 1.390 . S
C1699 C1700 1.394 . S
C1699 C1705 1.465 . S
C1700 C1695 1.399 . S
C1700 C1699 1.394 . S
C1700 C1701 1.516 . S
C1701 C1700 1.516 . S
C1701 C1702 1.502 . S
C1701 C1703 1.561 . S
C1701 C1704 1.526 . S
C1702 H1686 0.959 . S
C1702 H1687 0.959 . S
C1702 H1688 0.961 . S
C1702 C1701 1.502 . S
C1703 H1689 0.960 . S
C1703 H1690 0.961 . S
C1703 H1691 0.959 . S
C1703 C1701 1.561 . S
C1704 C1701 1.526 . S
C1704 C1705 1.396 . S
C1704 C1709 1.390 . S
C1705 C1699 1.465 . S
C1705 C1704 1.396 . S
C1705 C1706 1.399 . S
C1706 H1692 0.929 . S
C1706 C1705 1.399 . S
C1706 C1707 1.385 . S
C1707 H1693 0.931 . S
C1707 C1706 1.385 . S
C1707 C1708 1.389 . S
C1708 C1707 1.389 . S
C1708 C1709 1.387 . S
C1709 H1694 0.930 . S
C1709 C1704 1.390 . S
C1709 C1708 1.387 . S
H1710 C1722 0.930 . S
H1711 C1724 0.930 . S
H1712 C1725 0.930 . S
H1713 C1729 0.959 . S
H1714 C1729 0.959 . S
H1715 C1729 0.961 . S
H1716 C1730 0.960 . S
H1717 C1730 0.961 . S
H1718 C1730 0.959 . S
H1719 C1733 0.929 . S
H1720 C1734 0.931 . S
H1721 C1736 0.930 . S
C1722 H1710 0.930 . S
C1722 C1723 1.399 . S
C1722 C1727 1.399 . S
C1723 C1722 1.399 . S
C1723 C1724 1.376 . S
C1724 H1711 0.930 . S
C1724 C1723 1.376 . S
C1724 C1725 1.388 . S
C1725 H1712 0.930 . S
C1725 C1724 1.388 . S
C1725 C1726 1.390 . S
C1726 C1725 1.390 . S
C1726 C1727 1.394 . S
C1726 C1732 1.465 . S
C1727 C1722 1.399 . S
C1727 C1726 1.394 . S
C1727 C1728 1.516 . S
C1728 C1727 1.516 . S
C1728 C1729 1.502 . S
C1728 C1730 1.561 . S
C1728 C1731 1.526 . S
C1729 H1713 0.959 . S
C1729 H1714 0.959 . S
C1729 H1715 0.961 . S
C1729 C1728 1.502 . S
C1730 H1716 0.960 . S
C1730 H1717 0.961 . S
C1730 H1718 0.959 . S
C1730 C1728 1.561 . S
C1731 C1728 1.526 . S
C1731 C1732 1.396 . S
C1731 C1736 1.390 . S
C1732 C1726 1.465 . S
C1732 C1731 1.396 . S
C1732 C1733 1.399 . S
C1733 H1719 0.929 . S
C1733 C1732 1.399 . S
C1733 C1734 1.385 . S
C1734 H1720 0.931 . S
C1734 C1733 1.385 . S
C1734 C1735 1.389 . S
C1735 C1734 1.389 . S
C1735 C1736 1.387 . S
C1736 H1721 0.930 . S
C1736 C1731 1.390 . S
C1736 C1735 1.387 . S
H1737 C1749 0.930 . S
H1738 C1751 0.930 . S
H1739 C1752 0.930 . S
H1740 C1756 0.959 . S
H1741 C1756 0.959 . S
H1742 C1756 0.961 . S
H1743 C1757 0.960 . S
H1744 C1757 0.961 . S
H1745 C1757 0.959 . S
H1746 C1760 0.929 . S
H1747 C1761 0.931 . S
H1748 C1763 0.930 . S
C1749 H1737 0.930 . S
C1749 C1750 1.399 . S
C1749 C1754 1.399 . S
C1750 C1749 1.399 . S
C1750 C1751 1.376 . S
C1751 H1738 0.930 . S
C1751 C1750 1.376 . S
C1751 C1752 1.388 . S
C1752 H1739 0.930 . S
C1752 C1751 1.388 . S
C1752 C1753 1.390 . S
C1753 C1752 1.390 . S
C1753 C1754 1.394 . S
C1753 C1759 1.465 . S
C1754 C1749 1.399 . S
C1754 C1753 1.394 . S
C1754 C1755 1.516 . S
C1755 C1754 1.516 . S
C1755 C1756 1.502 . S
C1755 C1757 1.561 . S
C1755 C1758 1.526 . S
C1756 H1740 0.959 . S
C1756 H1741 0.959 . S
C1756 H1742 0.961 . S
C1756 C1755 1.502 . S
C1757 H1743 0.960 . S
C1757 H1744 0.961 . S
C1757 H1745 0.959 . S
C1757 C1755 1.561 . S
C1758 C1755 1.526 . S
C1758 C1759 1.396 . S
C1758 C1763 1.390 . S
C1759 C1753 1.465 . S
C1759 C1758 1.396 . S
C1759 C1760 1.399 . S
C1760 H1746 0.929 . S
C1760 C1759 1.399 . S
C1760 C1761 1.385 . S
C1761 H1747 0.931 . S
C1761 C1760 1.385 . S
C1761 C1762 1.389 . S
C1762 C1761 1.389 . S
C1762 C1763 1.387 . S
C1763 H1748 0.930 . S
C1763 C1758 1.390 . S
C1763 C1762 1.387 . S
H1764 C1776 0.930 . S
H1765 C1778 0.930 . S
H1766 C1779 0.930 . S
H1767 C1783 0.959 . S
H1768 C1783 0.959 . S
H1769 C1783 0.961 . S
H1770 C1784 0.960 . S
H1771 C1784 0.961 . S
H1772 C1784 0.959 . S
H1773 C1787 0.929 . S
H1774 C1788 0.931 . S
H1775 C1790 0.930 . S
C1776 H1764 0.930 . S
C1776 C1777 1.399 . S
C1776 C1781 1.399 . S
C1777 C1776 1.399 . S
C1777 C1778 1.376 . S
C1778 H1765 0.930 . S
C1778 C1777 1.376 . S
C1778 C1779 1.388 . S
C1779 H1766 0.930 . S
C1779 C1778 1.388 . S
C1779 C1780 1.390 . S
C1780 C1779 1.390 . S
C1780 C1781 1.394 . S
C1780 C1786 1.465 . S
C1781 C1776 1.399 . S
C1781 C1780 1.394 . S
C1781 C1782 1.516 . S
C1782 C1781 1.516 . S
C1782 C1783 1.502 . S
C1782 C1784 1.561 . S
C1782 C1785 1.526 . S
C1783 H1767 0.959 . S
C1783 H1768 0.959 . S
C1783 H1769 0.961 . S
C1783 C1782 1.502 . S
C1784 H1770 0.960 . S
C1784 H1771 0.961 . S
C1784 H1772 0.959 . S
C1784 C1782 1.561 . S
C1785 C1782 1.526 . S
C1785 C1786 1.396 . S
C1785 C1790 1.390 . S
C1786 C1780 1.465 . S
C1786 C1785 1.396 . S
C1786 C1787 1.399 . S
C1787 H1773 0.929 . S
C1787 C1786 1.399 . S
C1787 C1788 1.385 . S
C1788 H1774 0.931 . S
C1788 C1787 1.385 . S
C1788 C1789 1.389 . S
C1789 C1788 1.389 . S
C1789 C1790 1.387 . S
C1790 H1775 0.930 . S
C1790 C1785 1.390 . S
C1790 C1789 1.387 . S
H1791 C1803 0.930 . S
H1792 C1805 0.930 . S
H1793 C1806 0.930 . S
H1794 C1810 0.959 . S
H1795 C1810 0.959 . S
H1796 C1810 0.961 . S
H1797 C1811 0.960 . S
H1798 C1811 0.961 . S
H1799 C1811 0.959 . S
H1800 C1814 0.929 . S
H1801 C1815 0.931 . S
H1802 C1817 0.930 . S
C1803 H1791 0.930 . S
C1803 C1804 1.399 . S
C1803 C1808 1.399 . S
C1804 C1803 1.399 . S
C1804 C1805 1.376 . S
C1805 H1792 0.930 . S
C1805 C1804 1.376 . S
C1805 C1806 1.388 . S
C1806 H1793 0.930 . S
C1806 C1805 1.388 . S
C1806 C1807 1.390 . S
C1807 C1806 1.390 . S
C1807 C1808 1.394 . S
C1807 C1813 1.465 . S
C1808 C1803 1.399 . S
C1808 C1807 1.394 . S
C1808 C1809 1.516 . S
C1809 C1808 1.516 . S
C1809 C1810 1.502 . S
C1809 C1811 1.561 . S
C1809 C1812 1.526 . S
C1810 H1794 0.959 . S
C1810 H1795 0.959 . S
C1810 H1796 0.961 . S
C1810 C1809 1.502 . S
C1811 H1797 0.960 . S
C1811 H1798 0.961 . S
C1811 H1799 0.959 . S
C1811 C1809 1.561 . S
C1812 C1809 1.526 . S
C1812 C1813 1.396 . S
C1812 C1817 1.390 . S
C1813 C1807 1.465 . S
C1813 C1812 1.396 . S
C1813 C1814 1.399 . S
C1814 H1800 0.929 . S
C1814 C1813 1.399 . S
C1814 C1815 1.385 . S
C1815 H1801 0.931 . S
C1815 C1814 1.385 . S
C1815 C1816 1.389 . S
C1816 C1815 1.389 . S
C1816 C1817 1.387 . S
C1817 H1802 0.930 . S
C1817 C1812 1.390 . S
C1817 C1816 1.387 . S
H1818 C1830 0.930 . S
H1819 C1832 0.930 . S
H1820 C1833 0.930 . S
H1821 C1837 0.959 . S
H1822 C1837 0.959 . S
H1823 C1837 0.961 . S
H1824 C1838 0.960 . S
H1825 C1838 0.961 . S
H1826 C1838 0.959 . S
H1827 C1841 0.929 . S
H1828 C1842 0.931 . S
H1829 C1844 0.930 . S
C1830 H1818 0.930 . S
C1830 C1831 1.399 . S
C1830 C1835 1.399 . S
C1831 C1830 1.399 . S
C1831 C1832 1.376 . S
C1832 H1819 0.930 . S
C1832 C1831 1.376 . S
C1832 C1833 1.388 . S
C1833 H1820 0.930 . S
C1833 C1832 1.388 . S
C1833 C1834 1.390 . S
C1834 C1833 1.390 . S
C1834 C1835 1.394 . S
C1834 C1840 1.465 . S
C1835 C1830 1.399 . S
C1835 C1834 1.394 . S
C1835 C1836 1.516 . S
C1836 C1835 1.516 . S
C1836 C1837 1.502 . S
C1836 C1838 1.561 . S
C1836 C1839 1.526 . S
C1837 H1821 0.959 . S
C1837 H1822 0.959 . S
C1837 H1823 0.961 . S
C1837 C1836 1.502 . S
C1838 H1824 0.960 . S
C1838 H1825 0.961 . S
C1838 H1826 0.959 . S
C1838 C1836 1.561 . S
C1839 C1836 1.526 . S
C1839 C1840 1.396 . S
C1839 C1844 1.390 . S
C1840 C1834 1.465 . S
C1840 C1839 1.396 . S
C1840 C1841 1.399 . S
C1841 H1827 0.929 . S
C1841 C1840 1.399 . S
C1841 C1842 1.385 . S
C1842 H1828 0.931 . S
C1842 C1841 1.385 . S
C1842 C1843 1.389 . S
C1843 C1842 1.389 . S
C1843 C1844 1.387 . S
C1844 H1829 0.930 . S
C1844 C1839 1.390 . S
C1844 C1843 1.387 . S
H1845 C1857 0.930 . S
H1846 C1859 0.930 . S
H1847 C1860 0.930 . S
H1848 C1864 0.959 . S
H1849 C1864 0.959 . S
H1850 C1864 0.961 . S
H1851 C1865 0.960 . S
H1852 C1865 0.961 . S
H1853 C1865 0.959 . S
H1854 C1868 0.929 . S
H1855 C1869 0.931 . S
H1856 C1871 0.930 . S
C1857 H1845 0.930 . S
C1857 C1858 1.399 . S
C1857 C1862 1.399 . S
C1858 C1857 1.399 . S
C1858 C1859 1.376 . S
C1859 H1846 0.930 . S
C1859 C1858 1.376 . S
C1859 C1860 1.388 . S
C1860 H1847 0.930 . S
C1860 C1859 1.388 . S
C1860 C1861 1.390 . S
C1861 C1860 1.390 . S
C1861 C1862 1.394 . S
C1861 C1867 1.465 . S
C1862 C1857 1.399 . S
C1862 C1861 1.394 . S
C1862 C1863 1.516 . S
C1863 C1862 1.516 . S
C1863 C1864 1.502 . S
C1863 C1865 1.561 . S
C1863 C1866 1.526 . S
C1864 H1848 0.959 . S
C1864 H1849 0.959 . S
C1864 H1850 0.961 . S
C1864 C1863 1.502 . S
C1865 H1851 0.960 . S
C1865 H1852 0.961 . S
C1865 H1853 0.959 . S
C1865 C1863 1.561 . S
C1866 C1863 1.526 . S
C1866 C1867 1.396 . S
C1866 C1871 1.390 . S
C1867 C1861 1.465 . S
C1867 C1866 1.396 . S
C1867 C1868 1.399 . S
C1868 H1854 0.929 . S
C1868 C1867 1.399 . S
C1868 C1869 1.385 . S
C1869 H1855 0.931 . S
C1869 C1868 1.385 . S
C1869 C1870 1.389 . S
C1870 C1869 1.389 . S
C1870 C1871 1.387 . S
C1871 H1856 0.930 . S
C1871 C1866 1.390 . S
C1871 C1870 1.387 . S
H1872 C1884 0.930 . S
H1873 C1886 0.930 . S
H1874 C1887 0.930 . S
H1875 C1891 0.959 . S
H1876 C1891 0.959 . S
H1877 C1891 0.961 . S
H1878 C1892 0.960 . S
H1879 C1892 0.961 . S
H1880 C1892 0.959 . S
H1881 C1895 0.929 . S
H1882 C1896 0.931 . S
H1883 C1898 0.930 . S
C1884 H1872 0.930 . S
C1884 C1885 1.399 . S
C1884 C1889 1.399 . S
C1885 C1884 1.399 . S
C1885 C1886 1.376 . S
C1886 H1873 0.930 . S
C1886 C1885 1.376 . S
C1886 C1887 1.388 . S
C1887 H1874 0.930 . S
C1887 C1886 1.388 . S
C1887 C1888 1.390 . S
C1888 C1887 1.390 . S
C1888 C1889 1.394 . S
C1888 C1894 1.465 . S
C1889 C1884 1.399 . S
C1889 C1888 1.394 . S
C1889 C1890 1.516 . S
C1890 C1889 1.516 . S
C1890 C1891 1.502 . S
C1890 C1892 1.561 . S
C1890 C1893 1.526 . S
C1891 H1875 0.959 . S
C1891 H1876 0.959 . S
C1891 H1877 0.961 . S
C1891 C1890 1.502 . S
C1892 H1878 0.960 . S
C1892 H1879 0.961 . S
C1892 H1880 0.959 . S
C1892 C1890 1.561 . S
C1893 C1890 1.526 . S
C1893 C1894 1.396 . S
C1893 C1898 1.390 . S
C1894 C1888 1.465 . S
C1894 C1893 1.396 . S
C1894 C1895 1.399 . S
C1895 H1881 0.929 . S
C1895 C1894 1.399 . S
C1895 C1896 1.385 . S
C1896 H1882 0.931 . S
C1896 C1895 1.385 . S
C1896 C1897 1.389 . S
C1897 C1896 1.389 . S
C1897 C1898 1.387 . S
C1898 H1883 0.930 . S
C1898 C1893 1.390 . S
C1898 C1897 1.387 . S
H1899 C1911 0.930 . S
H1900 C1913 0.930 . S
H1901 C1914 0.930 . S
H1902 C1918 0.959 . S
H1903 C1918 0.959 . S
H1904 C1918 0.961 . S
H1905 C1919 0.960 . S
H1906 C1919 0.961 . S
H1907 C1919 0.959 . S
H1908 C1922 0.929 . S
H1909 C1923 0.931 . S
H1910 C1925 0.930 . S
C1911 H1899 0.930 . S
C1911 C1912 1.399 . S
C1911 C1916 1.399 . S
C1912 C1911 1.399 . S
C1912 C1913 1.376 . S
C1913 H1900 0.930 . S
C1913 C1912 1.376 . S
C1913 C1914 1.388 . S
C1914 H1901 0.930 . S
C1914 C1913 1.388 . S
C1914 C1915 1.390 . S
C1915 C1914 1.390 . S
C1915 C1916 1.394 . S
C1915 C1921 1.465 . S
C1916 C1911 1.399 . S
C1916 C1915 1.394 . S
C1916 C1917 1.516 . S
C1917 C1916 1.516 . S
C1917 C1918 1.502 . S
C1917 C1919 1.561 . S
C1917 C1920 1.526 . S
C1918 H1902 0.959 . S
C1918 H1903 0.959 . S
C1918 H1904 0.961 . S
C1918 C1917 1.502 . S
C1919 H1905 0.960 . S
C1919 H1906 0.961 . S
C1919 H1907 0.959 . S
C1919 C1917 1.561 . S
C1920 C1917 1.526 . S
C1920 C1921 1.396 . S
C1920 C1925 1.390 . S
C1921 C1915 1.465 . S
C1921 C1920 1.396 . S
C1921 C1922 1.399 . S
C1922 H1908 0.929 . S
C1922 C1921 1.399 . S
C1922 C1923 1.385 . S
C1923 H1909 0.931 . S
C1923 C1922 1.385 . S
C1923 C1924 1.389 . S
C1924 C1923 1.389 . S
C1924 C1925 1.387 . S
C1925 H1910 0.930 . S
C1925 C1920 1.390 . S
C1925 C1924 1.387 . S
H1926 C1938 0.930 . S
H1927 C1940 0.930 . S
H1928 C1941 0.930 . S
H1929 C1945 0.959 . S
H1930 C1945 0.959 . S
H1931 C1945 0.961 . S
H1932 C1946 0.960 . S
H1933 C1946 0.961 . S
H1934 C1946 0.959 . S
H1935 C1949 0.929 . S
H1936 C1950 0.931 . S
H1937 C1952 0.930 . S
C1938 H1926 0.930 . S
C1938 C1939 1.399 . S
C1938 C1943 1.399 . S
C1939 C1938 1.399 . S
C1939 C1940 1.376 . S
C1940 H1927 0.930 . S
C1940 C1939 1.376 . S
C1940 C1941 1.388 . S
C1941 H1928 0.930 . S
C1941 C1940 1.388 . S
C1941 C1942 1.390 . S
C1942 C1941 1.390 . S
C1942 C1943 1.394 . S
C1942 C1948 1.465 . S
C1943 C1938 1.399 . S
C1943 C1942 1.394 . S
C1943 C1944 1.516 . S
C1944 C1943 1.516 . S
C1944 C1945 1.502 . S
C1944 C1946 1.561 . S
C1944 C1947 1.526 . S
C1945 H1929 0.959 . S
C1945 H1930 0.959 . S
C1945 H1931 0.961 . S
C1945 C1944 1.502 . S
C1946 H1932 0.960 . S
C1946 H1933 0.961 . S
C1946 H1934 0.959 . S
C1946 C1944 1.561 . S
C1947 C1944 1.526 . S
C1947 C1948 1.396 . S
C1947 C1952 1.390 . S
C1948 C1942 1.465 . S
C1948 C1947 1.396 . S
C1948 C1949 1.399 . S
C1949 H1935 0.929 . S
C1949 C1948 1.399 . S
C1949 C1950 1.385 . S
C1950 H1936 0.931 . S
C1950 C1949 1.385 . S
C1950 C1951 1.389 . S
C1951 C1950 1.389 . S
C1951 C1952 1.387 . S
C1952 H1937 0.930 . S
C1952 C1947 1.390 . S
C1952 C1951 1.387 . S
H1953 C1965 0.930 . S
H1954 C1967 0.930 . S
H1955 C1968 0.930 . S
H1956 C1972 0.959 . S
H1957 C1972 0.959 . S
H1958 C1972 0.961 . S
H1959 C1973 0.960 . S
H1960 C1973 0.961 . S
H1961 C1973 0.959 . S
H1962 C1976 0.929 . S
H1963 C1977 0.931 . S
H1964 C1979 0.930 . S
C1965 H1953 0.930 . S
C1965 C1966 1.399 . S
C1965 C1970 1.399 . S
C1966 C1965 1.399 . S
C1966 C1967 1.376 . S
C1967 H1954 0.930 . S
C1967 C1966 1.376 . S
C1967 C1968 1.388 . S
C1968 H1955 0.930 . S
C1968 C1967 1.388 . S
C1968 C1969 1.390 . S
C1969 C1968 1.390 . S
C1969 C1970 1.394 . S
C1969 C1975 1.465 . S
C1970 C1965 1.399 . S
C1970 C1969 1.394 . S
C1970 C1971 1.516 . S
C1971 C1970 1.516 . S
C1971 C1972 1.502 . S
C1971 C1973 1.561 . S
C1971 C1974 1.526 . S
C1972 H1956 0.959 . S
C1972 H1957 0.959 . S
C1972 H1958 0.961 . S
C1972 C1971 1.502 . S
C1973 H1959 0.960 . S
C1973 H1960 0.961 . S
C1973 H1961 0.959 . S
C1973 C1971 1.561 . S
C1974 C1971 1.526 . S
C1974 C1975 1.396 . S
C1974 C1979 1.390 . S
C1975 C1969 1.465 . S
C1975 C1974 1.396 . S
C1975 C1976 1.399 . S
C1976 H1962 0.929 . S
C1976 C1975 1.399 . S
C1976 C1977 1.385 . S
C1977 H1963 0.931 . S
C1977 C1976 1.385 . S
C1977 C1978 1.389 . S
C1978 C1977 1.389 . S
C1978 C1979 1.387 . S
C1979 H1964 0.930 . S
C1979 C1974 1.390 . S
C1979 C1978 1.387 . S
C1021 C238 1.145 . S
C1033 C67 1.281 . S
C1048 C310 1.232 . S
C1060 C140 1.348 . S
C1075 C235 1.349 . S
C1087 C406 1.267 . S
C1102 C308 1.282 . S
C1114 C478 1.141 . S
C1129 C70 1.167 . S
C1141 C403 1.301 . S
C1156 C142 1.283 . S
C1168 C476 1.310 . S
C1183 C898 1.175 . S
C1195 C560 1.261 . S
C1210 C655 1.261 . S
C1222 C994 1.165 . S
C1237 C728 1.325 . S
C1249 C562 1.283 . S
C1264 C823 1.337 . S
C1276 C658 1.283 . S
C1291 C896 1.321 . S
C1303 C730 1.284 . S
C1318 C826 1.148 . S
C1330 C991 1.284 . S
C1345 C326 1.926 . S
C1357 C63 1.915 . S
C1372 C158 1.948 . S
C1384 C399 1.955 . S
C1399 C231 1.942 . S
C1411 C494 1.931 . S
C1426 C578 1.957 . S
C1438 C819 1.960 . S
C1453 C651 1.961 . S
C1465 C914 1.958 . S
C1480 C746 1.959 . S
C1492 C987 1.953 . S
C1507 C662 2.172 . S
C1519 C74 2.132 . S
C1534 C147 2.166 . S
C1546 C735 2.137 . S
C1561 C830 2.114 . S
C1573 C242 2.118 . S
C1588 C315 2.159 . S
C1600 C903 2.172 . S
C1615 C410 2.158 . S
C1627 C998 2.110 . S
C1642 C567 2.172 . S
C1654 C483 2.159 . S
C1669 C226 1.356 . S
C1681 C56 1.443 . S
C1696 C151 1.352 . S
C1708 C322 1.271 . S
C1723 C224 1.402 . S
C1735 C394 1.240 . S
C1750 C319 1.453 . S
C1762 C490 1.343 . S
C1777 C58 1.331 . S
C1789 C392 1.451 . S
C1804 C154 1.241 . S
C1816 C487 1.385 . S
C1831 C910 1.375 . S
C1843 C571 1.416 . S
C1858 C644 1.407 . S
C1870 C982 1.240 . S
C1885 C739 1.454 . S
C1897 C574 1.356 . S
C1912 C646 1.327 . S
C1924 C812 1.452 . S
C1939 C907 1.451 . S
C1951 C742 1.332 . S
C1966 C980 1.392 . S
C1978 C814 1.377 . S
