# Generated by pormake.
# Topology why, (6)-cn, num edge types: 1
# Building blocks:
#     Node 0, Type 0, BuildingBlock: VOLQOD_clean_sbu_1, # of connection points: 6
#     Node 1, Type 0, BuildingBlock: VOLQOD_clean_sbu_1, # of connection points: 6
#     Node 2, Type 0, BuildingBlock: VOLQOD_clean_sbu_1, # of connection points: 6
#     Node 3, Type 0, BuildingBlock: VOLQOD_clean_sbu_1, # of connection points: 6
#     Node 4, Type 0, BuildingBlock: VOLQOD_clean_sbu_1, # of connection points: 6
#     Node 5, Type 0, BuildingBlock: VOLQOD_clean_sbu_1, # of connection points: 6
#     Node 6, Type 0, BuildingBlock: VOLQOD_clean_sbu_1, # of connection points: 6
#     Node 7, Type 0, BuildingBlock: VOLQOD_clean_sbu_1, # of connection points: 6
#     Node 8, Type 0, BuildingBlock: VOLQOD_clean_sbu_1, # of connection points: 6
#     Node 9, Type 0, BuildingBlock: VOLQOD_clean_sbu_1, # of connection points: 6
#     Node 10, Type 0, BuildingBlock: VOLQOD_clean_sbu_1, # of connection points: 6
#     Node 11, Type 0, BuildingBlock: VOLQOD_clean_sbu_1, # of connection points: 6
#     Node 12, Type 0, BuildingBlock: VOLQOD_clean_sbu_1, # of connection points: 6
#     Node 13, Type 0, BuildingBlock: VOLQOD_clean_sbu_1, # of connection points: 6
#     Node 14, Type 0, BuildingBlock: VOLQOD_clean_sbu_1, # of connection points: 6
#     Node 15, Type 0, BuildingBlock: VOLQOD_clean_sbu_1, # of connection points: 6
#     Edge 16, Type (0, 0), BuildingBlock: UVAHIK_clean_linker_0, # of connection points: 2
#     Edge 17, Type (0, 0), BuildingBlock: UVAHIK_clean_linker_0, # of connection points: 2
#     Edge 18, Type (0, 0), BuildingBlock: UVAHIK_clean_linker_0, # of connection points: 2
#     Edge 19, Type (0, 0), BuildingBlock: UVAHIK_clean_linker_0, # of connection points: 2
#     Edge 20, Type (0, 0), BuildingBlock: UVAHIK_clean_linker_0, # of connection points: 2
#     Edge 21, Type (0, 0), BuildingBlock: UVAHIK_clean_linker_0, # of connection points: 2
#     Edge 22, Type (0, 0), BuildingBlock: UVAHIK_clean_linker_0, # of connection points: 2
#     Edge 23, Type (0, 0), BuildingBlock: UVAHIK_clean_linker_0, # of connection points: 2
#     Edge 24, Type (0, 0), BuildingBlock: UVAHIK_clean_linker_0, # of connection points: 2
#     Edge 25, Type (0, 0), BuildingBlock: UVAHIK_clean_linker_0, # of connection points: 2
#     Edge 26, Type (0, 0), BuildingBlock: UVAHIK_clean_linker_0, # of connection points: 2
#     Edge 27, Type (0, 0), BuildingBlock: UVAHIK_clean_linker_0, # of connection points: 2
#     Edge 28, Type (0, 0), BuildingBlock: UVAHIK_clean_linker_0, # of connection points: 2
#     Edge 29, Type (0, 0), BuildingBlock: UVAHIK_clean_linker_0, # of connection points: 2
#     Edge 30, Type (0, 0), BuildingBlock: UVAHIK_clean_linker_0, # of connection points: 2
#     Edge 31, Type (0, 0), BuildingBlock: UVAHIK_clean_linker_0, # of connection points: 2
#     Edge 32, Type (0, 0), BuildingBlock: UVAHIK_clean_linker_0, # of connection points: 2
#     Edge 33, Type (0, 0), BuildingBlock: UVAHIK_clean_linker_0, # of connection points: 2
#     Edge 34, Type (0, 0), BuildingBlock: UVAHIK_clean_linker_0, # of connection points: 2
#     Edge 35, Type (0, 0), BuildingBlock: UVAHIK_clean_linker_0, # of connection points: 2
#     Edge 36, Type (0, 0), BuildingBlock: UVAHIK_clean_linker_0, # of connection points: 2
#     Edge 37, Type (0, 0), BuildingBlock: UVAHIK_clean_linker_0, # of connection points: 2
#     Edge 38, Type (0, 0), BuildingBlock: UVAHIK_clean_linker_0, # of connection points: 2
#     Edge 39, Type (0, 0), BuildingBlock: UVAHIK_clean_linker_0, # of connection points: 2
#     Edge 40, Type (0, 0), BuildingBlock: UVAHIK_clean_linker_0, # of connection points: 2
#     Edge 41, Type (0, 0), BuildingBlock: UVAHIK_clean_linker_0, # of connection points: 2
#     Edge 42, Type (0, 0), BuildingBlock: UVAHIK_clean_linker_0, # of connection points: 2
#     Edge 43, Type (0, 0), BuildingBlock: UVAHIK_clean_linker_0, # of connection points: 2
#     Edge 44, Type (0, 0), BuildingBlock: UVAHIK_clean_linker_0, # of connection points: 2
#     Edge 45, Type (0, 0), BuildingBlock: UVAHIK_clean_linker_0, # of connection points: 2
#     Edge 46, Type (0, 0), BuildingBlock: UVAHIK_clean_linker_0, # of connection points: 2
#     Edge 47, Type (0, 0), BuildingBlock: UVAHIK_clean_linker_0, # of connection points: 2
#     Edge 48, Type (0, 0), BuildingBlock: UVAHIK_clean_linker_0, # of connection points: 2
#     Edge 49, Type (0, 0), BuildingBlock: UVAHIK_clean_linker_0, # of connection points: 2
#     Edge 50, Type (0, 0), BuildingBlock: UVAHIK_clean_linker_0, # of connection points: 2
#     Edge 51, Type (0, 0), BuildingBlock: UVAHIK_clean_linker_0, # of connection points: 2
#     Edge 52, Type (0, 0), BuildingBlock: UVAHIK_clean_linker_0, # of connection points: 2
#     Edge 53, Type (0, 0), BuildingBlock: UVAHIK_clean_linker_0, # of connection points: 2
#     Edge 54, Type (0, 0), BuildingBlock: UVAHIK_clean_linker_0, # of connection points: 2
#     Edge 55, Type (0, 0), BuildingBlock: UVAHIK_clean_linker_0, # of connection points: 2
#     Edge 56, Type (0, 0), BuildingBlock: UVAHIK_clean_linker_0, # of connection points: 2
#     Edge 57, Type (0, 0), BuildingBlock: UVAHIK_clean_linker_0, # of connection points: 2
#     Edge 58, Type (0, 0), BuildingBlock: UVAHIK_clean_linker_0, # of connection points: 2
#     Edge 59, Type (0, 0), BuildingBlock: UVAHIK_clean_linker_0, # of connection points: 2
#     Edge 60, Type (0, 0), BuildingBlock: UVAHIK_clean_linker_0, # of connection points: 2
#     Edge 61, Type (0, 0), BuildingBlock: UVAHIK_clean_linker_0, # of connection points: 2
#     Edge 62, Type (0, 0), BuildingBlock: UVAHIK_clean_linker_0, # of connection points: 2
#     Edge 63, Type (0, 0), BuildingBlock: UVAHIK_clean_linker_0, # of connection points: 2
# Relax obj value: 0.320
# Max RMSD: 0.187
# Mean RMSD: 0.187
data_MOF--net-why--node1-VOLQOD_clean_sbu_1--edge1-UVAHIK_clean_linker_0
_symmetry_space_group_name_H-M    P1
_symmetry_Int_Tables_number       1
_symmetry_cell_setting            triclinic
loop_
_symmetry_equiv_pos_as_xyz
'x, y, z'
_cell_length_a     61.476911
_cell_length_b     61.537553
_cell_length_c     40.294921
_cell_angle_alpha  90.087254
_cell_angle_beta   89.961868
_cell_angle_gamma 90.108203
loop_
_atom_site_label
_atom_site_type_symbol
_atom_site_fract_x
_atom_site_fract_y
_atom_site_fract_z
_atom_type_partial_charge
O0 O 0.33361 0.1951 0.00656 0.0
Zn1 Zn 0.33664 0.16672 0.03006 0.0
O2 O 0.34551 0.17067 0.07582 0.0
Zn3 Zn 0.37372 0.15661 0.08244 0.0
Zn4 Zn 0.34743 0.20179 0.08574 0.0
Zn5 Zn 0.32378 0.15727 0.10448 0.0
O6 O 0.37177 0.13389 0.11805 0.0
O7 O 0.33688 0.13393 0.1322 0.0
O8 O 0.35783 0.14858 0.00502 0.0
O9 O 0.38397 0.1409 0.04093 0.0
O10 O 0.39621 0.17869 0.09576 0.0
O11 O 0.37767 0.20953 0.10045 0.0
O12 O 0.32591 0.21061 0.12134 0.0
O13 O 0.30865 0.15075 0.02677 0.0
O14 O 0.31036 0.17919 0.13444 0.0
O15 O 0.29943 0.14343 0.07876 0.0
C16 C 0.33631 0.21479 0.01527 0.0
C17 C 0.35603 0.12642 0.13516 0.0
C18 C 0.39539 0.19892 0.10247 0.0
C19 C 0.3756 0.13917 0.01213 0.0
C20 C 0.31237 0.19959 0.13842 0.0
C21 C 0.29585 0.14217 0.04776 0.0
O22 O 0.34177 0.21982 0.04479 0.0
O23 O 0.52602 0.56239 0.23108 0.0
Zn24 Zn 0.55591 0.56571 0.2489 0.0
O25 O 0.55604 0.56595 0.2969 0.0
Zn26 Zn 0.56804 0.59347 0.31211 0.0
Zn27 Zn 0.52614 0.5626 0.31324 0.0
Zn28 Zn 0.57452 0.54223 0.31238 0.0
O29 O 0.5924 0.58865 0.34398 0.0
O30 O 0.59866 0.55314 0.34141 0.0
O31 O 0.56948 0.59245 0.23019 0.0
O32 O 0.57978 0.61154 0.27418 0.0
O33 O 0.54541 0.61078 0.33559 0.0
O34 O 0.51658 0.58911 0.33931 0.0
O35 O 0.52378 0.53563 0.3413 0.0
O36 O 0.57305 0.54114 0.23072 0.0
O37 O 0.55683 0.52108 0.33879 0.0
O38 O 0.5882 0.52574 0.27465 0.0
C39 C 0.50737 0.55955 0.24398 0.0
C40 C 0.60322 0.57197 0.35247 0.0
C41 C 0.52604 0.60715 0.3453 0.0
C42 C 0.57877 0.60897 0.24285 0.0
C43 C 0.53714 0.52054 0.34856 0.0
C44 C 0.58548 0.52698 0.24342 0.0
O45 O 0.50478 0.55917 0.27534 0.0
O46 O 0.16948 0.80771 0.50741 0.0
Zn47 Zn 0.16271 0.83306 0.53684 0.0
O48 O 0.15066 0.82361 0.57893 0.0
Zn49 Zn 0.12086 0.8339 0.58214 0.0
Zn50 Zn 0.1514 0.79183 0.58137 0.0
Zn51 Zn 0.16773 0.83607 0.61512 0.0
O52 O 0.11739 0.85433 0.62031 0.0
O53 O 0.1502 0.85671 0.64291 0.0
O54 O 0.14212 0.85197 0.51191 0.0
O55 O 0.11174 0.8507 0.54151 0.0
O56 O 0.10049 0.80914 0.58987 0.0
O57 O 0.12155 0.77987 0.59201 0.0
O58 O 0.17225 0.782 0.61708 0.0
O59 O 0.18985 0.85012 0.54354 0.0
O60 O 0.17982 0.81271 0.64378 0.0
O61 O 0.19388 0.85226 0.59819 0.0
C62 C 0.16776 0.78721 0.51063 0.0
C63 C 0.13025 0.86212 0.64201 0.0
C64 C 0.10289 0.78879 0.59402 0.0
C65 C 0.12233 0.85719 0.51622 0.0
C66 C 0.18149 0.7922 0.64077 0.0
C67 C 0.2003 0.85656 0.56894 0.0
O68 O 0.16087 0.77879 0.53755 0.0
O69 O 0.95813 0.44791 0.73796 0.0
Zn70 Zn 0.93358 0.43586 0.76483 0.0
O71 O 0.94378 0.42445 0.80656 0.0
Zn72 Zn 0.93977 0.3933 0.80561 0.0
Zn73 Zn 0.97461 0.43133 0.81245 0.0
Zn74 Zn 0.92669 0.43691 0.84259 0.0
O75 O 0.91829 0.38439 0.83977 0.0
O76 O 0.91268 0.41376 0.87063 0.0
O77 O 0.92015 0.41272 0.73683 0.0
O78 O 0.92862 0.38186 0.76187 0.0
O79 O 0.967 0.37856 0.81889 0.0
O80 O 0.99141 0.40467 0.82768 0.0
O81 O 0.97806 0.45515 0.84691 0.0
O82 O 0.91015 0.45752 0.77144 0.0
O83 O 0.94532 0.45619 0.87036 0.0
O84 O 0.90276 0.45621 0.82538 0.0
C85 C 0.97869 0.44783 0.74179 0.0
C86 C 0.90981 0.39361 0.86486 0.0
C87 C 0.98581 0.38471 0.82809 0.0
C88 C 0.9201 0.3921 0.73775 0.0
C89 C 0.96494 0.46271 0.8686 0.0
C90 C 0.89877 0.46319 0.79633 0.0
O91 O 0.98735 0.44122 0.7687 0.0
O92 O 0.66749 0.7822 0.02272 0.0
Zn93 Zn 0.66719 0.81071 -0.0013 0.0
O94 O 0.6654 0.80655 0.95096 0.0
Zn95 Zn 0.63936 0.82079 0.93423 0.0
Zn96 Zn 0.66443 0.7755 0.94045 0.0
Zn97 Zn 0.69083 0.81974 0.93048 0.0
O98 O 0.64656 0.84155 0.89779 0.0
O99 O 0.68262 0.84123 0.89547 0.0
O100 O 0.64149 0.82718 0.01538 0.0
O101 O 0.62288 0.83636 0.97042 0.0
O102 O 0.61888 0.79902 0.91516 0.0
O103 O 0.63604 0.76742 0.91831 0.0
O104 O 0.6893 0.76705 0.9103 0.0
O105 O 0.6933 0.8282 0.01159 0.0
O106 O 0.70886 0.79739 0.90777 0.0
O107 O 0.70926 0.8354 0.96347 0.0
C108 C 0.66668 0.76252 0.01305 0.0
C109 C 0.66436 0.84799 0.88501 0.0
C110 C 0.6195 0.77863 0.91018 0.0
C111 C 0.62553 0.83678 0.00175 0.0
C112 C 0.70603 0.77748 0.90046 0.0
C113 C 0.7083 0.8373 0.99485 0.0
O114 O 0.66576 0.7577 0.98231 0.0
O115 O 0.46095 0.35702 0.71098 0.0
Zn116 Zn 0.42993 0.36422 0.70142 0.0
O117 O 0.42254 0.35585 0.6562 0.0
Zn118 Zn 0.39774 0.33618 0.65736 0.0
Zn119 Zn 0.4475 0.3416 0.63487 0.0
Zn120 Zn 0.41446 0.38173 0.6314 0.0
O121 O 0.37211 0.34853 0.63351 0.0
O122 O 0.38326 0.38105 0.61706 0.0
O123 O 0.41099 0.34934 0.73529 0.0
O124 O 0.38823 0.33025 0.70404 0.0
O125 O 0.40506 0.30752 0.63675 0.0
O126 O 0.43984 0.3107 0.62262 0.0
O127 O 0.45626 0.35726 0.5928 0.0
O128 O 0.42703 0.39631 0.70809 0.0
O129 O 0.43242 0.38429 0.59056 0.0
O130 O 0.41871 0.40889 0.65815 0.0
C131 C 0.47641 0.34817 0.69492 0.0
C132 C 0.36853 0.3666 0.61926 0.0
C133 C 0.42236 0.29958 0.62439 0.0
C134 C 0.39489 0.33644 0.73241 0.0
C135 C 0.44836 0.37386 0.57832 0.0
C136 C 0.42315 0.41206 0.68859 0.0
O137 O 0.47371 0.3412 0.6654 0.0
O138 O 0.80775 0.23596 0.52755 0.0
Zn139 Zn 0.80427 0.20425 0.5172 0.0
O140 O 0.81384 0.1985 0.47169 0.0
Zn141 Zn 0.84008 0.18106 0.47218 0.0
Zn142 Zn 0.8194 0.2257 0.44823 0.0
Zn143 Zn 0.79141 0.18251 0.44846 0.0
O144 O 0.8349 0.15192 0.45204 0.0
O145 O 0.8004 0.15229 0.43624 0.0
O146 O 0.82312 0.18839 0.55026 0.0
O147 O 0.84961 0.17521 0.51863 0.0
O148 O 0.86438 0.1952 0.44678 0.0
O149 O 0.84948 0.22576 0.4286 0.0
O150 O 0.79832 0.23018 0.41038 0.0
O151 O 0.77297 0.19533 0.52448 0.0
O152 O 0.7824 0.19783 0.40758 0.0
O153 O 0.76486 0.18023 0.47597 0.0
C154 C 0.81383 0.25242 0.51078 0.0
C155 C 0.81849 0.14253 0.43924 0.0
C156 C 0.86557 0.21282 0.43036 0.0
C157 C 0.841 0.17818 0.547 0.0
C158 C 0.7854 0.21685 0.39624 0.0
C159 C 0.75952 0.1859 0.50517 0.0
O160 O 0.81859 0.25084 0.48009 0.0
O161 O 0.05742 0.63198 0.24023 0.0
Zn162 Zn 0.08614 0.62908 0.21743 0.0
O163 O 0.08368 0.63678 0.17091 0.0
Zn164 Zn 0.10359 0.66068 0.16078 0.0
Zn165 Zn 0.05349 0.64469 0.16028 0.0
Zn166 Zn 0.0922 0.61174 0.14501 0.0
O167 O 0.12349 0.65319 0.12248 0.0
O168 O 0.11833 0.6176 0.11775 0.0
O169 O 0.10799 0.64781 0.2405 0.0
O170 O 0.12151 0.6691 0.20107 0.0
O171 O 0.08669 0.68692 0.1473 0.0
O172 O 0.05211 0.67631 0.14675 0.0
O173 O 0.04158 0.62659 0.12212 0.0
O174 O 0.09495 0.598 0.2237 0.0
O175 O 0.06926 0.60435 0.11248 0.0
O176 O 0.09776 0.58541 0.17239 0.0
C177 C 0.03809 0.63575 0.23054 0.0
C178 C 0.12808 0.63493 0.10935 0.0
C179 C 0.06662 0.6909 0.1426 0.0
C180 C 0.12102 0.66268 0.23114 0.0
C181 C 0.05032 0.61121 0.10566 0.0
C182 C 0.09858 0.5825 0.20355 0.0
O183 O 0.03398 0.64035 0.20033 0.0
O184 O 0.8393 0.70264 0.47998 0.0
Zn185 Zn 0.83852 0.67249 0.49859 0.0
O186 O 0.84478 0.67289 0.54577 0.0
Zn187 Zn 0.86894 0.65308 0.55503 0.0
Zn188 Zn 0.85194 0.70235 0.56054 0.0
Zn189 Zn 0.81879 0.66346 0.5688 0.0
O190 O 0.8601 0.63044 0.58867 0.0
O191 O 0.82546 0.63852 0.59821 0.0
O192 O 0.86091 0.65543 0.47422 0.0
O193 O 0.88095 0.63948 0.51292 0.0
O194 O 0.89401 0.6695 0.57474 0.0
O195 O 0.88268 0.70367 0.57745 0.0
O196 O 0.83227 0.71239 0.59774 0.0
O197 O 0.80977 0.6586 0.48836 0.0
O198 O 0.80743 0.68625 0.59899 0.0
O199 O 0.79512 0.65409 0.53822 0.0
C200 C 0.84435 0.72112 0.49201 0.0
C201 C 0.84222 0.62709 0.60392 0.0
C202 C 0.89732 0.68937 0.58194 0.0
C203 C 0.87634 0.64285 0.48251 0.0
C204 C 0.81479 0.70431 0.60942 0.0
C205 C 0.79414 0.65251 0.50682 0.0
O206 O 0.84963 0.72331 0.52241 0.0
O207 O 0.01991 0.11632 0.75809 0.0
Zn208 Zn 0.05128 0.11023 0.76772 0.0
O209 O 0.05825 0.1195 0.81278 0.0
Zn210 Zn 0.08281 0.13953 0.81153 0.0
Zn211 Zn 0.03305 0.13342 0.8342 0.0
Zn212 Zn 0.06653 0.09412 0.83797 0.0
O213 O 0.10755 0.12924 0.83987 0.0
O214 O 0.09609 0.09707 0.8574 0.0
O215 O 0.06964 0.12605 0.73411 0.0
O216 O 0.09318 0.14458 0.76493 0.0
O217 O 0.07417 0.16856 0.82916 0.0
O218 O 0.03988 0.16477 0.84551 0.0
O219 O 0.024 0.11782 0.87648 0.0
O220 O 0.05647 0.0782 0.76091 0.0
O221 O 0.04692 0.09003 0.87617 0.0
O222 O 0.06604 0.06702 0.81108 0.0
C223 C 0.00449 0.12539 0.77403 0.0
C224 C 0.11041 0.11195 0.85658 0.0
C225 C 0.05694 0.17636 0.8419 0.0
C226 C 0.08598 0.1387 0.73669 0.0
C227 C 0.0313 0.10039 0.88935 0.0
C228 C 0.06203 0.06312 0.78074 0.0
O229 O 0.0073 0.13292 0.8032 0.0
O230 O 0.6688 0.25624 0.95826 0.0
Zn231 Zn 0.6716 0.28806 0.96811 0.0
O232 O 0.65859 0.29454 0.01138 0.0
Zn233 Zn 0.63331 0.31337 0.00611 0.0
Zn234 Zn 0.65059 0.26758 0.03394 0.0
Zn235 Zn 0.67949 0.30958 0.03858 0.0
O236 O 0.63774 0.34267 0.02746 0.0
O237 O 0.67022 0.33939 0.05058 0.0
O238 O 0.65516 0.30315 0.93134 0.0
O239 O 0.62742 0.31851 0.95786 0.0
O240 O 0.60686 0.29999 0.02751 0.0
O241 O 0.61927 0.26872 0.04737 0.0
O242 O 0.66784 0.26264 0.07592 0.0
O243 O 0.7035 0.2965 0.9664 0.0
O244 O 0.6853 0.29402 0.08047 0.0
O245 O 0.70767 0.31191 0.01578 0.0
C246 C 0.66139 0.23995 0.97415 0.0
C247 C 0.65333 0.3505 0.04448 0.0
C248 C 0.60391 0.2823 0.04327 0.0
C249 C 0.63757 0.31408 0.93113 0.0
C250 C 0.68039 0.27542 0.09181 0.0
C251 C 0.71532 0.30606 0.98792 0.0
O252 O 0.654 0.24192 0.00352 0.0
O253 O 0.43751 0.86869 0.22941 0.0
Zn254 Zn 0.40937 0.86994 0.25418 0.0
O255 O 0.41409 0.86305 0.30067 0.0
Zn256 Zn 0.39451 0.83947 0.3141 0.0
Zn257 Zn 0.44466 0.85549 0.30908 0.0
Zn258 Zn 0.40734 0.88869 0.32592 0.0
O259 O 0.37548 0.84832 0.35306 0.0
O260 O 0.38678 0.88206 0.362 0.0
O261 O 0.38894 0.84858 0.23358 0.0
O262 O 0.37654 0.82841 0.27519 0.0
O263 O 0.41222 0.81427 0.33003 0.0
O264 O 0.44675 0.82484 0.32657 0.0
O265 O 0.45893 0.87569 0.3427 0.0
O266 O 0.39692 0.89988 0.24741 0.0
O267 O 0.4333 0.9007 0.34797 0.0
O268 O 0.39483 0.91237 0.29883 0.0
C269 C 0.45695 0.86374 0.23716 0.0
C270 C 0.37518 0.86583 0.37002 0.0
C271 C 0.43244 0.81058 0.33384 0.0
C272 C 0.3768 0.8334 0.24446 0.0
C273 C 0.45227 0.89378 0.35425 0.0
C274 C 0.39193 0.91481 0.26789 0.0
O275 O 0.46196 0.85805 0.2666 0.0
O276 O 0.12672 0.30141 0.48366 0.0
Zn277 Zn 0.12567 0.33082 0.4623 0.0
O278 O 0.12067 0.32877 0.4148 0.0
Zn279 Zn 0.09343 0.34348 0.40396 0.0
Zn280 Zn 0.11907 0.2982 0.40172 0.0
Zn281 Zn 0.14467 0.34283 0.3916 0.0
O282 O 0.09808 0.36586 0.36848 0.0
O283 O 0.13398 0.36691 0.36279 0.0
O284 O 0.10306 0.34896 0.48439 0.0
O285 O 0.08131 0.3596 0.44369 0.0
O286 O 0.07108 0.32199 0.38799 0.0
O287 O 0.08942 0.29104 0.3836 0.0
O288 O 0.1421 0.29068 0.36782 0.0
O289 O 0.15359 0.34599 0.47216 0.0
O290 O 0.16003 0.3218 0.36219 0.0
O291 O 0.16693 0.35517 0.42296 0.0
C292 C 0.12586 0.28216 0.47211 0.0
C293 C 0.11514 0.37386 0.35534 0.0
C294 C 0.07192 0.30188 0.38047 0.0
C295 C 0.08692 0.35994 0.47411 0.0
C296 C 0.15737 0.30187 0.35489 0.0
C297 C 0.16809 0.35508 0.45447 0.0
O298 O 0.12328 0.27863 0.44122 0.0
O299 O 0.96543 0.93953 0.28724 0.0
Zn300 Zn 0.93663 0.93284 0.26677 0.0
O301 O 0.93875 0.93199 0.21869 0.0
Zn302 Zn 0.92918 0.90358 0.20364 0.0
Zn303 Zn 0.96892 0.93684 0.20492 0.0
Zn304 Zn 0.91982 0.95433 0.1999 0.0
O305 O 0.90402 0.90611 0.17319 0.0
O306 O 0.89714 0.94138 0.16984 0.0
O307 O 0.92636 0.90457 0.28551 0.0
O308 O 0.91967 0.88434 0.24118 0.0
O309 O 0.95265 0.88839 0.17895 0.0
O310 O 0.98077 0.91105 0.17927 0.0
O311 O 0.97081 0.96323 0.17558 0.0
O312 O 0.91476 0.9546 0.2818 0.0
O313 O 0.93696 0.97576 0.17328 0.0
O314 O 0.90345 0.97027 0.23535 0.0
C315 C 0.98456 0.94215 0.2758 0.0
C316 C 0.89291 0.92182 0.16187 0.0
C317 C 0.97211 0.89301 0.17094 0.0
C318 C 0.91972 0.88694 0.27249 0.0
C319 C 0.95697 0.97711 0.16543 0.0
C320 C 0.90278 0.96819 0.26673 0.0
O321 O 0.98837 0.94134 0.24473 0.0
O322 O 0.33732 0.67078 0.98157 0.0
Zn323 Zn 0.34242 0.6441 0.95386 0.0
O324 O 0.35878 0.65097 0.91398 0.0
Zn325 Zn 0.38693 0.63661 0.91622 0.0
Zn326 Zn 0.36262 0.68245 0.91071 0.0
Zn327 Zn 0.343 0.64051 0.87513 0.0
O328 O 0.3906 0.61566 0.87857 0.0
O329 O 0.35971 0.61779 0.85027 0.0
O330 O 0.35831 0.62332 0.98298 0.0
O331 O 0.39048 0.61968 0.9587 0.0
O332 O 0.41106 0.65825 0.91186 0.0
O333 O 0.3943 0.68979 0.90404 0.0
O334 O 0.34574 0.69462 0.87202 0.0
O335 O 0.3138 0.63076 0.9425 0.0
O336 O 0.33629 0.66485 0.84435 0.0
O337 O 0.31378 0.62834 0.88746 0.0
C338 C 0.34246 0.69071 0.97832 0.0
C339 C 0.37858 0.6098 0.85447 0.0
C340 C 0.41165 0.67857 0.906 0.0
C341 C 0.37739 0.61544 0.98236 0.0
C342 C 0.33706 0.68543 0.84694 0.0
C343 C 0.30463 0.62545 0.91539 0.0
O344 O 0.35242 0.69747 0.95256 0.0
O345 O 0.51336 0.03852 0.76524 0.0
Zn346 Zn 0.54074 0.04674 0.74158 0.0
O347 O 0.53445 0.05632 0.69673 0.0
Zn348 Zn 0.53919 0.08735 0.69403 0.0
Zn349 Zn 0.50415 0.04974 0.68543 0.0
Zn350 Zn 0.55426 0.04176 0.66643 0.0
O351 O 0.56127 0.09429 0.65981 0.0
O352 O 0.57165 0.06272 0.63867 0.0
O353 O 0.55405 0.0708 0.76824 0.0
O354 O 0.55078 0.09998 0.73642 0.0
O355 O 0.51265 0.10262 0.67859 0.0
O356 O 0.48921 0.07626 0.66629 0.0
O357 O 0.50279 0.02582 0.65073 0.0
O358 O 0.56278 0.02277 0.74232 0.0
O359 O 0.53764 0.02194 0.63685 0.0
O360 O 0.57537 0.02309 0.69069 0.0
C361 C 0.4934 0.03793 0.75687 0.0
C362 C 0.57265 0.08336 0.63952 0.0
C363 C 0.49459 0.09626 0.66659 0.0
C364 C 0.55665 0.09105 0.76342 0.0
C365 C 0.51771 0.01684 0.63349 0.0
C366 C 0.57623 0.01628 0.72041 0.0
O367 O 0.48749 0.04175 0.72709 0.0
C368 C 0.43537 0.19932 0.114 0.0
C369 C 0.41581 0.21074 0.10963 0.0
C370 C 0.45513 0.21045 0.11577 0.0
C371 C 0.47966 0.25926 0.0827 0.0
H372 H 0.52905 0.24224 0.13642 0.0
C373 C 0.56553 0.29286 0.05696 0.0
C374 C 0.58223 0.27728 0.05723 0.0
C375 C 0.54499 0.28783 0.0697 0.0
C376 C 0.51541 0.24714 0.12118 0.0
H377 H 0.40152 0.24291 0.10597 0.0
H378 H 0.43612 0.26227 0.10883 0.0
H379 H 0.49299 0.22772 0.14913 0.0
H380 H 0.59051 0.24431 0.07152 0.0
H381 H 0.55468 0.2354 0.0928 0.0
H382 H 0.50207 0.27775 0.05365 0.0
C383 C 0.4361 0.24471 0.11065 0.0
C384 C 0.4948 0.2389 0.12856 0.0
C385 C 0.41631 0.2336 0.10913 0.0
C386 C 0.57804 0.25672 0.07096 0.0
C387 C 0.55752 0.25167 0.08349 0.0
C388 C 0.50027 0.26737 0.07517 0.0
C389 C 0.45573 0.2332 0.11304 0.0
C390 C 0.47683 0.24447 0.10887 0.0
C391 C 0.5407 0.26709 0.08282 0.0
C392 C 0.51848 0.26094 0.09376 0.0
H393 H 0.43554 0.18173 0.11472 0.0
H394 H 0.47003 0.20114 0.11737 0.0
H395 H 0.46615 0.26361 0.06681 0.0
H396 H 0.56829 0.30892 0.04683 0.0
H397 H 0.53244 0.30015 0.06915 0.0
C398 C 0.49114 0.6241 0.36471 0.0
C399 C 0.51385 0.62518 0.36089 0.0
C400 C 0.47938 0.64264 0.37368 0.0
C401 C 0.48533 0.70044 0.40126 0.0
H402 H 0.43829 0.7101 0.33901 0.0
C403 C 0.4614 0.78469 0.35249 0.0
C404 C 0.43933 0.78914 0.34661 0.0
C405 C 0.46789 0.76411 0.36309 0.0
C406 C 0.45107 0.70757 0.35708 0.0
H407 H 0.54217 0.646 0.3665 0.0
H408 H 0.52178 0.67817 0.38134 0.0
H409 H 0.45403 0.67411 0.34394 0.0
H410 H 0.40667 0.77562 0.34848 0.0
H411 H 0.41809 0.73971 0.36676 0.0
H412 H 0.48307 0.73435 0.41289 0.0
C413 C 0.51295 0.66311 0.3777 0.0
C414 C 0.46006 0.68687 0.36003 0.0
C415 C 0.52466 0.64464 0.36881 0.0
C416 C 0.42384 0.77273 0.35251 0.0
C417 C 0.43034 0.75213 0.36297 0.0
C418 C 0.47641 0.7212 0.39815 0.0
C419 C 0.49011 0.66255 0.37901 0.0
C420 C 0.47778 0.68322 0.38133 0.0
C421 C 0.45245 0.74752 0.36792 0.0
C422 C 0.45965 0.72509 0.37526 0.0
H423 H 0.48234 0.60928 0.3591 0.0
H424 H 0.46181 0.64161 0.37505 0.0
H425 H 0.49871 0.69806 0.41834 0.0
H426 H 0.47374 0.79698 0.34834 0.0
H427 H 0.48509 0.76094 0.36629 0.0
C428 C 0.06338 0.78553 0.60746 0.0
C429 C 0.08347 0.77541 0.60132 0.0
C430 C 0.04477 0.77317 0.61325 0.0
C431 C 0.0211 0.72044 0.59403 0.0
H432 H 0.97651 0.73955 0.65564 0.0
C433 C 0.93619 0.68108 0.59562 0.0
C434 C 0.91903 0.69614 0.59392 0.0
C435 C 0.9572 0.68792 0.60372 0.0
C436 C 0.98883 0.73399 0.63839 0.0
H437 H 0.09983 0.7443 0.59724 0.0
H438 H 0.06709 0.72263 0.60722 0.0
H439 H 0.01235 0.75668 0.65676 0.0
H440 H 0.91032 0.72999 0.60106 0.0
H441 H 0.94694 0.7419 0.61486 0.0
H442 H -0.00264 0.69835 0.57478 0.0
C443 C 0.06587 0.74018 0.60742 0.0
C444 C 0.00932 0.74377 0.63903 0.0
C445 C 0.08459 0.75259 0.60178 0.0
C446 C 0.92316 0.71798 0.602 0.0
C447 C 0.94414 0.72479 0.61018 0.0
C448 C 0.0006 0.71065 0.5934 0.0
C449 C 0.04575 0.75038 0.61298 0.0
C450 C 0.02543 0.73757 0.61615 0.0
C451 C 0.96146 0.70991 0.61045 0.0
C452 C 0.98406 0.71779 0.61488 0.0
H453 H 0.06192 0.80307 0.60742 0.0
H454 H 0.02945 0.78152 0.61689 0.0
H455 H 0.03311 0.71545 0.5759 0.0
H456 H 0.93356 0.6641 0.58976 0.0
H457 H 0.9702 0.67606 0.60409 0.0
C458 C 0.99162 0.35026 0.8582 0.0
C459 C 0.00059 0.36802 0.84117 0.0
C460 C 0.00461 0.33292 0.86771 0.0
C461 C 0.05107 0.30351 0.83828 0.0
H462 H 0.03858 0.26832 0.91584 0.0
C463 C 0.0744 0.21315 0.84357 0.0
C464 C 0.05661 0.19962 0.85125 0.0
C465 C 0.07345 0.23546 0.84972 0.0
C466 C 0.0424 0.27803 0.89419 0.0
H467 H 0.03033 0.38222 0.82217 0.0
H468 H 0.05331 0.35123 0.83819 0.0
H469 H 0.02715 0.3063 0.91454 0.0
H470 H 0.02431 0.1988 0.87293 0.0
H471 H 0.02261 0.23773 0.88348 0.0
H472 H 0.06519 0.27494 0.81713 0.0
C473 C 0.03615 0.35097 0.84433 0.0
C474 C 0.03595 0.29975 0.89349 0.0
C475 C 0.02309 0.36865 0.83524 0.0
C476 C 0.03825 0.20875 0.86658 0.0
C477 C 0.03736 0.23105 0.87291 0.0
C478 C 0.05759 0.28179 0.83902 0.0
C479 C 0.02689 0.33277 0.86012 0.0
C480 C 0.03924 0.31237 0.86486 0.0
C481 C 0.05478 0.24469 0.86393 0.0
C482 C 0.05238 0.26858 0.86635 0.0
H483 H 0.97433 0.34949 0.8634 0.0
H484 H -0.00311 0.31904 0.87935 0.0
H485 H 0.05369 0.31277 0.81578 0.0
H486 H 0.08887 0.20664 0.8319 0.0
H487 H 0.08715 0.24557 0.84274 0.0
C488 C 0.5823 0.78022 0.88553 0.0
C489 C 0.59968 0.76774 0.8977 0.0
C490 C 0.56224 0.77057 0.8789 0.0
C491 C 0.53334 0.71809 0.86934 0.0
H492 H 0.48585 0.74936 0.91104 0.0
C493 C 0.45231 0.67723 0.90451 0.0
C494 C 0.43298 0.68914 0.90063 0.0
C495 C 0.47248 0.68706 0.89925 0.0
C496 C 0.49881 0.74058 0.89873 0.0
H497 H 0.6101 0.73509 0.91018 0.0
H498 H 0.57491 0.71828 0.89896 0.0
H499 H 0.52173 0.76588 0.9085 0.0
H500 H 0.4197 0.72066 0.88765 0.0
H501 H 0.45495 0.73776 0.87821 0.0
H502 H 0.51039 0.69256 0.86021 0.0
C503 C 0.57687 0.73551 0.89437 0.0
C504 C 0.51939 0.75006 0.89724 0.0
C505 C 0.59702 0.74516 0.90091 0.0
C506 C 0.43428 0.71106 0.8911 0.0
C507 C 0.45447 0.72088 0.88574 0.0
C508 C 0.51269 0.7086 0.87076 0.0
C509 C 0.55909 0.74827 0.88438 0.0
C510 C 0.53694 0.73881 0.88293 0.0
C511 C 0.47379 0.709 0.8899 0.0
C512 C 0.49529 0.71963 0.88592 0.0
H513 H 0.58392 0.79762 0.8823 0.0
H514 H 0.54895 0.78073 0.87055 0.0
H515 H 0.54652 0.70915 0.85787 0.0
H516 H 0.45192 0.66031 0.91187 0.0
H517 H 0.48706 0.67756 0.90321 0.0
C518 C 0.40402 0.26332 0.61897 0.0
C519 C 0.42248 0.2765 0.61406 0.0
C520 C 0.40504 0.24094 0.61334 0.0
C521 C 0.44006 0.19713 0.57848 0.0
H522 H 0.42259 0.16556 0.6574 0.0
C523 C 0.49027 0.13096 0.63628 0.0
C524 C 0.48058 0.11258 0.65066 0.0
C525 C 0.47754 0.14716 0.62229 0.0
C526 C 0.427 0.1739 0.63471 0.0
H527 H 0.45599 0.27671 0.59711 0.0
H528 H 0.45786 0.23778 0.5878 0.0
H529 H 0.40986 0.20257 0.64909 0.0
H530 H 0.45001 0.09631 0.66083 0.0
H531 H 0.42741 0.12545 0.63723 0.0
H532 H 0.45862 0.16895 0.56558 0.0
C533 C 0.44251 0.24469 0.5957 0.0
C534 C 0.41973 0.19515 0.62991 0.0
C535 C 0.44152 0.26703 0.60137 0.0
C536 C 0.45783 0.11039 0.64995 0.0
C537 C 0.44496 0.12696 0.63645 0.0
C538 C 0.44738 0.17593 0.58336 0.0
C539 C 0.42449 0.23131 0.60255 0.0
C540 C 0.42716 0.20737 0.60266 0.0
C541 C 0.45478 0.14555 0.62272 0.0
C542 C 0.44186 0.1646 0.61241 0.0
H543 H 0.389 0.27012 0.62842 0.0
H544 H 0.39083 0.23107 0.61852 0.0
H545 H 0.44564 0.20599 0.55687 0.0
H546 H 0.50779 0.13295 0.63612 0.0
H547 H 0.48554 0.16147 0.61242 0.0
C548 C 0.90326 0.20359 0.41139 0.0
C549 C 0.88631 0.21877 0.41409 0.0
C550 C 0.92339 0.20971 0.39829 0.0
C551 C 0.95216 0.25424 0.35315 0.0
H552 H 0.00151 0.23478 0.40497 0.0
C553 C 0.03206 0.30198 0.36759 0.0
C554 C 0.05164 0.29043 0.37107 0.0
C555 C 0.01236 0.29093 0.36388 0.0
C556 C 0.98801 0.24003 0.38973 0.0
H557 H 0.87694 0.2521 0.404 0.0
H558 H 0.91216 0.26293 0.38214 0.0
H559 H 0.96582 0.21941 0.41556 0.0
H560 H 0.06602 0.25822 0.37085 0.0
H561 H 0.03158 0.23898 0.36444 0.0
H562 H 0.97442 0.27572 0.32856 0.0
C563 C 0.90984 0.24616 0.38946 0.0
C564 C 0.96749 0.23119 0.39578 0.0
C565 C 0.88966 0.23999 0.40229 0.0
C566 C 0.05123 0.26764 0.36854 0.0
C567 C 0.03151 0.25659 0.36498 0.0
C568 C 0.97271 0.2632 0.34725 0.0
C569 C 0.92708 0.23121 0.38787 0.0
C570 C 0.94922 0.23854 0.37812 0.0
C571 C 0.01183 0.2681 0.36365 0.0
C572 C 0.99074 0.25652 0.36602 0.0
H573 H 0.90111 0.18702 0.41987 0.0
H574 H 0.93619 0.19768 0.39686 0.0
H575 H 0.9385 0.25997 0.33867 0.0
H576 H 0.0318 0.31955 0.36919 0.0
H577 H -0.00255 0.30025 0.36315 0.0
C578 C 0.0382 0.71827 0.12722 0.0
C579 C 0.06013 0.71319 0.13316 0.0
C580 C 0.03201 0.73967 0.12067 0.0
C581 C 0.04884 0.79479 0.14018 0.0
H582 H 0.00202 0.81044 0.08045 0.0
C583 C 0.00779 0.87797 0.15098 0.0
C584 C 0.98504 0.87631 0.15343 0.0
C585 C 0.01999 0.86055 0.13863 0.0
C586 C 0.01518 0.80635 0.09715 0.0
H587 H 0.09288 0.72648 0.1353 0.0
H588 H 0.08196 0.76377 0.12409 0.0
H589 H 0.0178 0.77409 0.0775 0.0
H590 H 0.95716 0.85582 0.14239 0.0
H591 H 0.97828 0.82559 0.12166 0.0
H592 H 0.04545 0.82645 0.16123 0.0
C593 C 0.06959 0.75121 0.12473 0.0
C594 C 0.02419 0.78556 0.09545 0.0
C595 C 0.07581 0.72983 0.13113 0.0
C596 C 0.97468 0.85756 0.14122 0.0
C597 C 0.98681 0.84026 0.12892 0.0
C598 C 0.03975 0.81551 0.14203 0.0
C599 C 0.0476 0.75641 0.12004 0.0
C600 C 0.0406 0.77936 0.11771 0.0
C601 C 0.00964 0.84126 0.12842 0.0
C602 C 0.02228 0.82126 0.12136 0.0
H603 H 0.02573 0.70585 0.12844 0.0
H604 H 0.01488 0.74323 0.11754 0.0
H605 H 0.06135 0.79042 0.15785 0.0
H606 H 0.01624 0.89227 0.15993 0.0
H607 H 0.03756 0.86191 0.13816 0.0
C608 C 0.13454 0.09003 0.89353 0.0
C609 C 0.12967 0.10994 0.87809 0.0
C610 C 0.15133 0.08872 0.91673 0.0
C611 C 0.18153 0.12238 0.97531 0.0
H612 H 0.22825 0.08055 0.96594 0.0
C613 C 0.27575 0.12344 0.00254 0.0
C614 C 0.27635 0.13086 0.03548 0.0
C615 C 0.25668 0.11484 0.98938 0.0
C616 C 0.21511 0.09207 0.96916 0.0
H617 H 0.13891 0.1439 0.87422 0.0
H618 H 0.16819 0.14155 0.91474 0.0
H619 H 0.19653 0.07825 0.92938 0.0
H620 H 0.25795 0.13393 0.08118 0.0
H621 H 0.2242 0.11928 0.05772 0.0
H622 H 0.20047 0.1369 0.01385 0.0
C623 C 0.15886 0.12706 0.90906 0.0
C624 C 0.19702 0.09073 0.94835 0.0
C625 C 0.14227 0.12834 0.88562 0.0
C626 C 0.25786 0.12843 0.05564 0.0
C627 C 0.23861 0.12006 0.04228 0.0
C628 C 0.19949 0.1236 -0.00373 0.0
C629 C 0.16329 0.10734 0.92514 0.0
C630 C 0.18054 0.10642 0.95044 0.0
C631 C 0.23776 0.1137 0.0088 0.0
C632 C 0.21681 0.10898 0.99249 0.0
H633 H 0.12513 0.07555 0.88815 0.0
H634 H 0.15457 0.07332 0.92874 0.0
H635 H 0.16881 0.13445 0.97764 0.0
H636 H 0.28986 0.12486 0.98656 0.0
H637 H 0.25641 0.11032 0.96338 0.0
C638 C 0.63355 0.38573 0.05196 0.0
C639 C 0.65129 0.37226 0.05956 0.0
C640 C 0.63054 0.40524 0.06906 0.0
C641 C 0.63989 0.42755 0.15024 0.0
H642 H 0.62321 0.4826 0.11126 0.0
C643 C 0.61472 0.4997 0.23223 0.0
C644 C 0.59664 0.51156 0.22124 0.0
C645 C 0.62492 0.48488 0.21109 0.0
C646 C 0.6277 0.46729 0.12252 0.0
H647 H 0.68039 0.36924 0.08982 0.0
H648 H 0.67484 0.40311 0.11989 0.0
H649 H 0.63455 0.45267 0.07532 0.0
H650 H 0.5751 0.51737 0.17953 0.0
H651 H 0.59224 0.49101 0.14327 0.0
H652 H 0.63195 0.44145 0.19719 0.0
C653 C 0.66333 0.39852 0.10076 0.0
C654 C 0.63428 0.45026 0.10194 0.0
C655 C 0.66647 0.37917 0.08347 0.0
C656 C 0.5891 0.50854 0.18867 0.0
C657 C 0.59907 0.49354 0.16774 0.0
C658 C 0.63302 0.44443 0.17076 0.0
C659 C 0.6451 0.41145 0.09419 0.0
C660 C 0.64014 0.43019 0.11566 0.0
C661 C 0.61702 0.48144 0.17873 0.0
C662 C 0.6265 0.46438 0.15712 0.0
H663 H 0.62165 0.38091 0.03353 0.0
H664 H 0.61628 0.41495 0.06375 0.0
H665 H 0.64408 0.41209 0.16134 0.0
H666 H 0.62103 0.50189 0.25711 0.0
H667 H 0.63894 0.47607 0.22016 0.0
C668 C 0.36357 0.88609 0.42063 0.0
C669 C 0.36182 0.86751 0.40036 0.0
C670 C 0.3509 0.8882 0.44909 0.0
C671 C 0.31544 0.85791 0.50704 0.0
H672 H 0.28333 0.91204 0.51157 0.0
C673 C 0.22497 0.87904 0.53452 0.0
C674 C 0.22139 0.86725 0.56375 0.0
C675 C 0.24599 0.88486 0.52528 0.0
C676 C 0.29248 0.89702 0.51109 0.0
H677 H 0.34588 0.83627 0.39471 0.0
H678 H 0.32328 0.84017 0.44418 0.0
H679 H 0.3137 0.90865 0.47308 0.0
H680 H 0.23648 0.85399 0.60789 0.0
H681 H 0.27355 0.86379 0.59124 0.0
H682 H 0.29313 0.84575 0.54321 0.0
C683 C 0.33477 0.85295 0.43822 0.0
C684 C 0.3099 0.89506 0.48914 0.0
C685 C 0.34752 0.8508 0.4097 0.0
C686 C 0.2389 0.86307 0.58517 0.0
C687 C 0.26005 0.8686 0.57564 0.0
C688 C 0.29804 0.85988 0.52905 0.0
C689 C 0.33615 0.8718 0.45794 0.0
C690 C 0.32087 0.87515 0.48581 0.0
C691 C 0.26381 0.8787 0.54491 0.0
C692 C 0.28575 0.87911 0.53003 0.0
H693 H 0.37465 0.89919 0.41446 0.0
H694 H 0.35246 0.90279 0.46398 0.0
H695 H 0.32391 0.84252 0.50539 0.0
H696 H 0.21167 0.88261 0.51777 0.0
H697 H 0.24837 0.89247 0.50133 0.0
C698 C 0.86035 0.6017 0.64348 0.0
C699 C 0.84121 0.61096 0.63094 0.0
C700 C 0.85954 0.58802 0.67098 0.0
C701 C 0.85475 0.5695 0.73977 0.0
H702 H 0.8173 0.51886 0.73433 0.0
C703 C 0.87647 0.49514 0.81382 0.0
C704 C 0.88095 0.47859 0.79083 0.0
C705 C 0.86287 0.51238 0.80489 0.0
C706 C 0.82749 0.53317 0.73668 0.0
H707 H 0.80613 0.61279 0.63703 0.0
H708 H 0.80479 0.58851 0.68482 0.0
H709 H 0.81213 0.54887 0.69558 0.0
H710 H 0.87291 0.4654 0.74249 0.0
H711 H 0.8493 0.49516 0.72697 0.0
H712 H 0.87134 0.55313 0.77885 0.0
C713 C 0.82038 0.59207 0.67349 0.0
C714 C 0.82453 0.55033 0.71454 0.0
C715 C 0.82119 0.6059 0.6461 0.0
C716 C 0.86993 0.47821 0.76041 0.0
C717 C 0.85615 0.49515 0.75173 0.0
C718 C 0.8577 0.55239 0.7619 0.0
C719 C 0.83958 0.58323 0.6864 0.0
C720 C 0.83899 0.56801 0.71468 0.0
C721 C 0.8534 0.51297 0.77313 0.0
C722 C 0.84498 0.53348 0.75914 0.0
H723 H 0.87602 0.60531 0.63246 0.0
H724 H 0.87456 0.58098 0.67998 0.0
H725 H 0.86578 0.58324 0.74082 0.0
H726 H 0.88474 0.49564 0.83754 0.0
H727 H 0.86092 0.52589 0.82189 0.0
C728 C 0.72338 0.85404 0.0465 0.0
C729 C 0.72485 0.85047 0.01212 0.0
C730 C 0.73948 0.8658 0.06299 0.0
C731 C 0.78658 0.90248 0.05074 0.0
H732 H 0.80873 0.87336 0.129 0.0
C733 C 0.85886 0.93314 0.13235 0.0
C734 C 0.87384 0.91686 0.14103 0.0
C735 C 0.83957 0.92768 0.11594 0.0
C736 C 0.80268 0.88169 0.10721 0.0
H737 H 0.74391 0.85717 0.96788 0.0
H738 H 0.77223 0.87728 -0.00314 0.0
H739 H 0.776 0.85974 0.10229 0.0
H740 H 0.88099 0.88236 0.13749 0.0
H741 H 0.84754 0.873 0.10893 0.0
H742 H 0.81395 0.92396 0.05525 0.0
C743 C 0.75847 0.87125 0.01094 0.0
C744 C 0.78381 0.87406 0.09216 0.0
C745 C 0.74236 0.85952 0.99442 0.0
C746 C 0.86968 0.89526 0.13159 0.0
C747 C 0.85049 0.88986 0.11537 0.0
C748 C 0.80551 0.91019 0.06595 0.0
C749 C 0.75737 0.87417 0.04546 0.0
C750 C 0.77582 0.88409 0.0634 0.0
C751 C 0.83504 0.9059 0.10817 0.0
C752 C 0.81396 0.89947 0.0938 0.0
H753 H 0.70995 0.84752 0.0608 0.0
H754 H 0.73811 0.86805 0.08958 0.0
H755 H 0.78061 0.91062 0.02875 0.0
H756 H 0.86165 0.94994 0.1392 0.0
H757 H 0.82787 0.94032 0.1105 0.0
C758 C 0.40872 0.58755 0.83051 0.0
C759 C 0.38653 0.59293 0.83147 0.0
C760 C 0.41605 0.57067 0.81025 0.0
C761 C 0.39911 0.53364 0.74168 0.0
H762 H 0.44038 0.4945 0.78284 0.0
C763 C 0.42345 0.43799 0.73627 0.0
C764 C 0.42324 0.43443 0.70185 0.0
C765 C 0.42235 0.45903 0.74899 0.0
C766 C 0.4288 0.50523 0.77102 0.0
H767 H 0.35471 0.5853 0.81134 0.0
H768 H 0.36731 0.5554 0.77697 0.0
H769 H 0.43136 0.5285 0.81012 0.0
H770 H 0.42257 0.45017 0.6537 0.0
H771 H 0.42113 0.487 0.67597 0.0
H772 H 0.39542 0.50964 0.70376 0.0
C773 C 0.3792 0.56451 0.79115 0.0
C774 C 0.42386 0.52492 0.78642 0.0
C775 C 0.37192 0.58156 0.81107 0.0
C776 C 0.42255 0.45239 0.68037 0.0
C777 C 0.42165 0.47348 0.69312 0.0
C778 C 0.40386 0.51383 0.72647 0.0
C779 C 0.40131 0.55866 0.79086 0.0
C780 C 0.40857 0.53912 0.77233 0.0
C781 C 0.42125 0.47701 0.72759 0.0
C782 C 0.41836 0.49917 0.74141 0.0
H783 H 0.42043 0.59624 0.84565 0.0
H784 H 0.43325 0.56687 0.81014 0.0
H785 H 0.38757 0.5444 0.72984 0.0
H786 H 0.42389 0.42451 0.7535 0.0
H787 H 0.42165 0.4611 0.77566 0.0
C788 C 0.58676 0.11776 0.61508 0.0
C789 C 0.58827 0.09508 0.61831 0.0
C790 C 0.60297 0.1294 0.59873 0.0
C791 C 0.64698 0.14996 0.58836 0.0
H792 H 0.67745 0.1288 0.51058 0.0
C793 C 0.73277 0.17895 0.55082 0.0
C794 C 0.7375 0.18033 0.51681 0.0
C795 C 0.71264 0.17095 0.56137 0.0
C796 C 0.66892 0.13511 0.53205 0.0
H797 H 0.60733 0.06666 0.60547 0.0
H798 H 0.63591 0.08706 0.57731 0.0
H799 H 0.64512 0.10976 0.52998 0.0
H800 H 0.72441 0.17599 0.46718 0.0
H801 H 0.68926 0.16252 0.48561 0.0
H802 H 0.67075 0.17536 0.59035 0.0
C803 C 0.62205 0.09582 0.58714 0.0
C804 C 0.65057 0.12405 0.54335 0.0
C805 C 0.60573 0.08413 0.60336 0.0
C806 C 0.72136 0.17477 0.4936 0.0
C807 C 0.70125 0.16697 0.50412 0.0
C808 C 0.66531 0.16106 0.57701 0.0
C809 C 0.62108 0.11862 0.58543 0.0
C810 C 0.63956 0.13121 0.57184 0.0
C811 C 0.6969 0.1644 0.53806 0.0
C812 C 0.67661 0.15361 0.54896 0.0
H813 H 0.57331 0.12664 0.62594 0.0
H814 H 0.60156 0.14692 0.59715 0.0
H815 H 0.63899 0.15572 0.61066 0.0
H816 H 0.74492 0.1831 0.56923 0.0
H817 H 0.7098 0.16902 0.58773 0.0
C818 C 0.09264 0.40116 0.32487 0.0
C819 C 0.11318 0.39263 0.33277 0.0
C820 C 0.09094 0.42033 0.30664 0.0
C821 C 0.12165 0.45886 0.25384 0.0
H822 H 0.08171 0.50104 0.29124 0.0
C823 C 0.10468 0.54273 0.1947 0.0
C824 C 0.10252 0.56044 0.21654 0.0
C825 C 0.10657 0.52164 0.20699 0.0
C826 C 0.09303 0.48948 0.28066 0.0
H827 H 0.148 0.39689 0.32619 0.0
H828 H 0.14499 0.43046 0.29486 0.0
H829 H 0.08322 0.46461 0.31439 0.0
H830 H 0.10154 0.56999 0.26841 0.0
H831 H 0.10512 0.53321 0.28979 0.0
H832 H 0.1319 0.48406 0.22073 0.0
C833 C 0.13021 0.42225 0.30249 0.0
C834 C 0.09366 0.46852 0.29357 0.0
C835 C 0.13192 0.40307 0.32065 0.0
C836 C 0.10302 0.5567 0.25091 0.0
C837 C 0.10492 0.53562 0.26317 0.0
C838 C 0.12101 0.47988 0.24089 0.0
C839 C 0.10973 0.43134 0.296 0.0
C840 C 0.10808 0.45304 0.28048 0.0
C841 C 0.10634 0.51786 0.24133 0.0
C842 C 0.10685 0.49544 0.25443 0.0
H843 H 0.07787 0.3934 0.33354 0.0
H844 H 0.07492 0.42679 0.30147 0.0
H845 H 0.13282 0.4472 0.24313 0.0
H846 H 0.10437 0.54505 0.16806 0.0
H847 H 0.10751 0.50824 0.18959 0.0
C848 C 0.64073 0.56174 0.36973 0.0
C849 C 0.62229 0.57491 0.37393 0.0
C850 C 0.65988 0.56652 0.38683 0.0
C851 C 0.68387 0.59225 0.45794 0.0
H852 H 0.7286 0.61469 0.39927 0.0
C853 C 0.75465 0.64357 0.50771 0.0
C854 C 0.7749 0.64231 0.49181 0.0
C855 C 0.73656 0.63311 0.49425 0.0
C856 C 0.71659 0.60803 0.4161 0.0
H857 H 0.60878 0.60237 0.40064 0.0
H858 H 0.64219 0.61024 0.43141 0.0
H859 H 0.69599 0.59823 0.3759 0.0
H860 H 0.79239 0.62888 0.44985 0.0
H861 H 0.7611 0.60975 0.42706 0.0
H862 H 0.70441 0.60155 0.49823 0.0
C863 C 0.64183 0.59649 0.41458 0.0
C864 C 0.69791 0.59869 0.40263 0.0
C865 C 0.62285 0.59207 0.39691 0.0
C866 C 0.77684 0.63034 0.46231 0.0
C867 C 0.75887 0.61944 0.44925 0.0
C868 C 0.70278 0.60113 0.47148 0.0
C869 C 0.66058 0.58411 0.40895 0.0
C870 C 0.68131 0.59115 0.42347 0.0
C871 C 0.73847 0.62072 0.46501 0.0
C872 C 0.71917 0.6096 0.45072 0.0
H873 H 0.64068 0.54849 0.352 0.0
H874 H 0.67431 0.55689 0.38217 0.0
H875 H 0.67114 0.58646 0.47432 0.0
H876 H 0.75274 0.65283 0.53043 0.0
H877 H 0.72105 0.63497 0.50665 0.0
C878 C 0.06707 0.02339 0.79048 0.0
C879 C 0.06521 0.04084 0.76816 0.0
C880 C 0.07227 0.00265 0.77903 0.0
C881 C 0.102 0.97656 0.7126 0.0
H882 H 0.07296 0.92362 0.74064 0.0
C883 C 0.09976 0.88358 0.66658 0.0
C884 C 0.12218 0.87931 0.66438 0.0
C885 C 0.09227 0.90182 0.68364 0.0
C886 C 0.08122 0.9383 0.73276 0.0
H887 H 0.06651 0.05007 0.71625 0.0
H888 H 0.07585 0.01376 0.6963 0.0
H889 H 0.05942 0.95893 0.75984 0.0
H890 H 0.15422 0.89004 0.68008 0.0
H891 H 0.14106 0.92206 0.70967 0.0
H892 H 0.12375 0.95609 0.68549 0.0
C893 C 0.07331 0.01626 0.72264 0.0
C894 C 0.07352 0.95842 0.74373 0.0
C895 C 0.06785 0.03697 0.73404 0.0
C896 C 0.13687 0.89293 0.68121 0.0
C897 C 0.12937 0.9113 0.69799 0.0
C898 C 0.10983 0.95649 0.70199 0.0
C899 C 0.07593 -0.00096 0.74512 0.0
C900 C 0.08376 0.9777 0.73348 0.0
C901 C 0.10708 0.9162 0.69855 0.0
C902 C 0.09946 0.93721 0.71183 0.0
H903 H 0.06499 0.02585 0.81692 0.0
H904 H 0.07429 0.98963 0.79683 0.0
H905 H 0.11033 0.9912 0.70471 0.0
H906 H 0.08803 0.87328 0.65408 0.0
H907 H 0.07501 0.9053 0.68364 0.0
C908 C 0.75036 0.32347 0.00387 0.0
C909 C 0.73835 0.31106 0.98091 0.0
C910 C 0.77171 0.32941 -0.00288 0.0
C911 C 0.81974 0.31773 0.94739 0.0
H912 H 0.82878 0.38011 0.95053 0.0
C913 C 0.88704 0.36079 0.87485 0.0
C914 C 0.89511 0.38085 0.88615 0.0
C915 C 0.87099 0.34988 0.89261 0.0
C916 C 0.82685 0.36261 0.95036 0.0
H917 H 0.73968 0.29435 0.93351 0.0
H918 H 0.77737 0.30489 0.92167 0.0
H919 H 0.79449 0.36494 0.96929 0.0
H920 H 0.89411 0.40431 0.92633 0.0
H921 H 0.86648 0.38484 0.95806 0.0
H922 H 0.85213 0.31538 0.92836 0.0
C923 C 0.77003 0.30988 0.9449 0.0
C924 C 0.80711 0.35397 0.96086 0.0
C925 C 0.74847 0.30402 0.95154 0.0
C926 C 0.88791 0.38905 0.91676 0.0
C927 C 0.87205 0.37793 0.93484 0.0
C928 C 0.8397 0.32636 0.93731 0.0
C929 C 0.7816 0.32297 0.9674 0.0
C930 C 0.80324 0.33154 0.9588 0.0
C931 C 0.86286 0.35862 0.92234 0.0
C932 C 0.84326 0.34897 0.93791 0.0
H933 H 0.74316 0.32905 0.02689 0.0
H934 H 0.78042 0.33939 0.0149 0.0
H935 H 0.81712 0.30034 0.946 0.0
H936 H 0.89229 0.354 0.85136 0.0
H937 H 0.86414 0.33522 0.88197 0.0
C938 C 0.3817 0.93992 0.2216 0.0
C939 C 0.38422 0.93605 0.25572 0.0
C940 C 0.37676 0.96075 0.21019 0.0
C941 C 0.35739 0.01501 0.23715 0.0
H942 H 0.3908 0.03465 0.16123 0.0
C943 C 0.38041 0.09824 0.15978 0.0
C944 C 0.3595 0.10708 0.15608 0.0
C945 C 0.38318 0.07816 0.17521 0.0
C946 C 0.38156 0.02951 0.18273 0.0
H947 H 0.38253 0.95077 0.30472 0.0
H948 H 0.37435 0.98698 0.28479 0.0
H949 H 0.39469 -0.00255 0.18041 0.0
H950 H 0.32526 0.10242 0.16748 0.0
H951 H 0.33009 0.0673 0.19378 0.0
H952 H 0.34474 0.04733 0.23999 0.0
C953 C 0.37593 0.97396 0.26684 0.0
C954 C 0.38348 0.00807 0.19334 0.0
C955 C 0.38076 0.95318 0.27824 0.0
C956 C 0.3416 0.09605 0.16984 0.0
C957 C 0.34436 0.07593 0.18507 0.0
C958 C 0.35554 0.03652 0.22663 0.0
C959 C 0.37432 0.97807 0.23268 0.0
C960 C 0.37142 0.00058 0.22064 0.0
C961 C 0.3651 0.0665 0.18707 0.0
C962 C 0.36763 0.04399 0.19932 0.0
H963 H 0.38409 0.92703 0.20363 0.0
H964 H 0.37521 0.96336 0.18372 0.0
H965 H 0.34777 0.00967 0.25815 0.0
H966 H 0.39456 0.10645 0.14978 0.0
H967 H 0.39943 0.07151 0.1771 0.0
C968 C 0.18535 0.37172 0.5043 0.0
C969 C 0.18701 0.36491 0.47114 0.0
C970 C 0.20375 0.37864 0.52152 0.0
C971 C 0.26285 0.39159 0.51237 0.0
H972 H 0.26594 0.36507 0.59947 0.0
C973 C 0.34187 0.39095 0.59047 0.0
C974 C 0.34686 0.37075 0.60487 0.0
C975 C 0.32142 0.39458 0.57647 0.0
C976 C 0.26534 0.3726 0.5752 0.0
H977 H 0.20886 0.36111 0.42932 0.0
H978 H 0.24123 0.37225 0.45975 0.0
H979 H 0.23186 0.36458 0.56935 0.0
H980 H 0.33424 0.33859 0.61595 0.0
H981 H 0.29891 0.34477 0.59109 0.0
H982 H 0.29687 0.3982 0.51754 0.0
C983 C 0.22568 0.37281 0.47233 0.0
C984 C 0.24568 0.37263 0.55807 0.0
C985 C 0.20716 0.36626 0.45492 0.0
C986 C 0.33094 0.35436 0.6052 0.0
C987 C 0.31058 0.35797 0.59118 0.0
C988 C 0.28262 0.39139 0.52945 0.0
C989 C 0.22428 0.37846 0.50613 0.0
C990 C 0.24432 0.3816 0.52607 0.0
C991 C 0.30559 0.37809 0.57663 0.0
C992 C 0.28417 0.38128 0.56061 0.0
H993 H 0.16988 0.37124 0.5172 0.0
H994 H 0.202 0.38343 0.54726 0.0
H995 H 0.26226 0.39896 0.488 0.0
H996 H 0.35377 0.40395 0.58994 0.0
H997 H 0.31797 0.4103 0.56563 0.0
C998 C 0.84078 0.10927 0.43044 0.0
C999 C 0.82075 0.11999 0.42726 0.0
C1000 C 0.84355 0.0885 0.41755 0.0
C1001 C 0.84446 0.04159 0.39854 0.0
H1002 H 0.82588 0.03482 0.30719 0.0
C1003 C 0.88065 0.97446 0.31768 0.0
C1004 C 0.88736 0.98136 0.28608 0.0
C1005 C 0.86648 0.98716 0.33648 0.0
C1006 C 0.83114 0.03643 0.33272 0.0
H1007 H 0.78759 0.11692 0.4093 0.0
H1008 H 0.79249 0.08036 0.38677 0.0
H1009 H 0.81237 0.06526 0.33982 0.0
H1010 H 0.88406 0.00652 0.24885 0.0
H1011 H 0.86025 0.02925 0.28221 0.0
H1012 H 0.86473 0.01403 0.39075 0.0
C1013 C 0.80607 0.08824 0.399 0.0
C1014 C 0.82314 0.05369 0.35158 0.0
C1015 C 0.80328 0.10914 0.41191 0.0
C1016 C 0.87917 0.00085 0.27319 0.0
C1017 C 0.8653 0.01373 0.2922 0.0
C1018 C 0.85267 0.02453 0.3796 0.0
C1019 C 0.82634 0.07785 0.4013 0.0
C1020 C 0.83052 0.05699 0.38419 0.0
C1021 C 0.85905 0.0072 0.32429 0.0
C1022 C 0.84683 0.02233 0.34603 0.0
H1023 H 0.85457 0.11711 0.44219 0.0
H1024 H 0.85952 0.08116 0.41916 0.0
H1025 H 0.85004 0.04345 0.42388 0.0
H1026 H 0.88638 0.95926 0.32796 0.0
H1027 H 0.86167 0.98145 0.36082 0.0
C1028 C 0.1447 0.65047 0.0581 0.0
C1029 C 0.14348 0.63369 0.08157 0.0
C1030 C 0.15714 0.64783 0.02933 0.0
C1031 C 0.18645 0.6051 0.98032 0.0
H1032 H 0.22138 0.65396 0.95124 0.0
C1033 C 0.27488 0.60485 0.94233 0.0
C1034 C 0.28184 0.61856 0.9167 0.0
C1035 C 0.25282 0.603 0.94963 0.0
C1036 C 0.21128 0.64029 0.95837 0.0
H1037 H 0.15467 0.6014 0.09422 0.0
H1038 H 0.17747 0.59732 0.04545 0.0
H1039 H 0.19291 0.65972 0.992 0.0
H1040 H 0.27151 0.63967 0.87674 0.0
H1041 H 0.23275 0.63724 0.89066 0.0
H1042 H 0.20669 0.58541 0.94908 0.0
C1043 C 0.16809 0.61209 0.04809 0.0
C1044 C 0.19495 0.64356 0.98184 0.0
C1045 C 0.15533 0.61455 0.07639 0.0
C1046 C 0.2664 0.62888 0.89651 0.0
C1047 C 0.24431 0.62752 0.90441 0.0
C1048 C 0.20313 0.60178 0.9574 0.0
C1049 C 0.16889 0.62853 0.02389 0.0
C1050 C 0.18301 0.62584 0.99425 0.0
C1051 C 0.23753 0.61532 0.93195 0.0
C1052 C 0.21619 0.61924 0.9473 0.0
H1053 H 0.13537 0.66523 0.06133 0.0
H1054 H 0.15722 0.66077 0.01116 0.0
H1055 H 0.17704 0.5912 0.98845 0.0
H1056 H 0.28659 0.59677 0.95815 0.0
H1057 H 0.24796 0.59368 0.97121 0.0
C1058 C 0.59764 -0.00356 0.76327 0.0
C1059 C 0.59342 0.00078 0.72971 0.0
C1060 C 0.61351 0.98143 0.77212 0.0
C1061 C 0.63703 0.93176 0.74256 0.0
H1062 H 0.67125 0.93781 0.82289 0.0
C1063 C 0.68186 0.8767 0.84999 0.0
C1064 C 0.66368 0.86372 0.85754 0.0
C1065 C 0.68038 0.89286 0.82577 0.0
C1066 C 0.66232 0.93593 0.79989 0.0
H1067 H 0.60299 0.9933 0.67906 0.0
H1068 H 0.63052 0.96662 0.69473 0.0
H1069 H 0.65597 0.97004 0.79668 0.0
H1070 H 0.63027 0.85637 0.84428 0.0
H1071 H 0.6277 0.88445 0.80221 0.0
H1072 H 0.64217 0.8975 0.74706 0.0
C1073 C 0.62158 0.97501 0.71405 0.0
C1074 C 0.65342 0.95434 0.7851 0.0
C1075 C 0.6058 0.99021 0.70516 0.0
C1076 C 0.64445 0.86631 0.83925 0.0
C1077 C 0.64309 0.88219 0.81483 0.0
C1078 C 0.64586 0.91334 0.75744 0.0
C1079 C 0.6254 0.97034 0.74761 0.0
C1080 C 0.63973 0.95224 0.7574 0.0
C1081 C 0.66084 0.89596 0.80841 0.0
C1082 C 0.65754 0.9152 0.78724 0.0
H1083 H 0.5885 0.00444 0.78275 0.0
H1084 H 0.61585 0.97785 0.79819 0.0
H1085 H 0.62654 0.92968 0.7212 0.0
H1086 H 0.69692 0.87496 0.86365 0.0
H1087 H 0.69425 0.90334 0.82128 0.0
C1088 C 0.40562 0.11438 0.99284 0.0
C1089 C 0.38591 0.12518 0.98663 0.0
C1090 C 0.41478 0.10079 0.9687 0.0
C1091 C 0.41416 0.09119 0.87844 0.0
H1092 H 0.44275 0.03707 0.90095 0.0
C1093 C 0.45495 0.04199 0.7766 0.0
C1094 C 0.47681 0.03715 0.78356 0.0
C1095 C 0.44067 0.04753 0.80224 0.0
C1096 C 0.43479 0.05213 0.89429 0.0
H1097 H 0.36022 0.12983 0.95031 0.0
H1098 H 0.37605 0.10615 0.90871 0.0
H1099 H 0.42486 0.05831 0.94445 0.0
H1100 H 0.50004 0.03166 0.82326 0.0
H1101 H 0.47531 0.04158 0.86767 0.0
H1102 H 0.42449 0.08551 0.82865 0.0
C1103 C 0.38463 0.1084 0.93193 0.0
C1104 C 0.42465 0.06434 0.91921 0.0
C1105 C 0.37553 0.12197 0.9559 0.0
C1106 C 0.48338 0.03558 0.81692 0.0
C1107 C 0.46913 0.04118 0.84252 0.0
C1108 C 0.42425 0.07904 0.85362 0.0
C1109 C 0.40441 0.09774 0.93792 0.0
C1110 C 0.41444 0.08414 0.91158 0.0
C1111 C 0.44798 0.04834 0.8353 0.0
C1112 C 0.43491 0.05949 0.86126 0.0
H1113 H 0.414 0.11645 0.01627 0.0
H1114 H 0.43019 0.093 0.97392 0.0
H1115 H 0.40678 0.10654 0.87176 0.0
H1116 H 0.44924 0.04309 0.75123 0.0
H1117 H 0.42427 0.05243 0.79599 0.0
C1118 C 0.59828 0.64431 0.23267 0.0
C1119 C 0.58935 0.62483 0.22045 0.0
C1120 C 0.60862 0.65888 0.21117 0.0
C1121 C 0.61208 0.67305 0.12214 0.0
H1122 H 0.66485 0.70333 0.14788 0.0
C1123 C 0.65945 0.72371 0.02799 0.0
C1124 C 0.66403 0.74512 0.03805 0.0
C1125 C 0.6531 0.70814 0.05121 0.0
C1126 C 0.65009 0.69501 0.14046 0.0
H1127 H 0.58461 0.60526 0.1761 0.0
H1128 H 0.60286 0.63033 0.13904 0.0
H1129 H 0.64739 0.67836 0.18695 0.0
H1130 H 0.66717 0.76648 0.08076 0.0
H1131 H 0.65608 0.73921 0.12122 0.0
H1132 H 0.61474 0.68958 0.07574 0.0
C1133 C 0.6015 0.63465 0.16503 0.0
C1134 C 0.64003 0.68081 0.16284 0.0
C1135 C 0.59108 0.62021 0.18638 0.0
C1136 C 0.66362 0.75017 0.07212 0.0
C1137 C 0.65735 0.73454 0.09536 0.0
C1138 C 0.62219 0.68707 0.09979 0.0
C1139 C 0.6103 0.65421 0.17708 0.0
C1140 C 0.62093 0.66964 0.15386 0.0
C1141 C 0.65131 0.7136 0.08497 0.0
C1142 C 0.64131 0.69815 0.10865 0.0
H1143 H 0.59722 0.64834 0.2588 0.0
H1144 H 0.61504 0.67393 0.22118 0.0
H1145 H 0.59714 0.6651 0.11466 0.0
H1146 H 0.65976 0.71919 0.00201 0.0
H1147 H 0.64891 0.69198 0.04261 0.0
C1148 C -0.00131 0.94419 0.33378 0.0
C1149 C 0.00286 0.94363 0.29949 0.0
C1150 C 0.01552 0.94136 0.3565 0.0
C1151 C 0.06736 0.91299 0.36065 0.0
H1152 H 0.06695 0.9347 0.45106 0.0
C1153 C 0.12253 0.87692 0.46194 0.0
C1154 C 0.11165 0.87129 0.49144 0.0
C1155 C 0.11244 0.89001 0.43829 0.0
C1156 C 0.06728 0.92855 0.42586 0.0
H1157 H 0.0283 0.94172 0.26223 0.0
H1158 H 0.0578 0.93704 0.30207 0.0
H1159 H 0.0443 0.9522 0.40912 0.0
H1160 H 0.08181 0.87544 0.51952 0.0
H1161 H 0.06414 0.89818 0.47805 0.0
H1162 H 0.08981 0.88896 0.37757 0.0
C1163 C 0.04139 0.93919 0.31128 0.0
C1164 C 0.05436 0.93856 0.40186 0.0
C1165 C 0.0245 0.942 0.28848 0.0
C1166 C 0.09061 0.87939 0.49702 0.0
C1167 C 0.08057 0.89259 0.47343 0.0
C1168 C 0.08036 0.90308 0.38458 0.0
C1169 C 0.03694 0.93799 0.34547 0.0
C1170 C 0.05371 0.93043 0.36924 0.0
C1171 C 0.09132 0.89787 0.44371 0.0
C1172 C 0.07993 0.91034 0.41763 0.0
H1173 H 0.98224 0.94564 0.34316 0.0
H1174 H 0.01144 0.94036 0.3826 0.0
H1175 H 0.06703 0.90608 0.33592 0.0
H1176 H 0.1388 0.87104 0.45689 0.0
H1177 H 0.12115 0.89393 0.41568 0.0
C1178 C 0.83356 0.28783 0.51483 0.0
C1179 C 0.81889 0.27279 0.52864 0.0
C1180 C 0.84252 0.30427 0.53443 0.0
C1181 C 0.83837 0.33432 0.61291 0.0
H1182 H 0.90139 0.33016 0.61411 0.0
C1183 C 0.89381 0.39082 0.6906 0.0
C1184 C 0.90883 0.38004 0.7111 0.0
C1185 C 0.88222 0.37942 0.66645 0.0
C1186 C 0.88382 0.33151 0.61392 0.0
H1187 H 0.80048 0.2645 0.57282 0.0
H1188 H 0.81586 0.29354 0.60685 0.0
H1189 H 0.88054 0.3089 0.57385 0.0
H1190 H 0.92378 0.34896 0.72191 0.0
H1191 H 0.90378 0.32908 0.67897 0.0
H1192 H 0.84172 0.3568 0.65329 0.0
C1193 C 0.8206 0.2924 0.581 0.0
C1194 C 0.87192 0.31956 0.59074 0.0
C1195 C 0.81186 0.27575 0.56154 0.0
C1196 C 0.91232 0.35768 0.7065 0.0
C1197 C 0.90096 0.34634 0.68192 0.0
C1198 C 0.85032 0.34656 0.63578 0.0
C1199 C 0.83668 0.30619 0.56798 0.0
C1200 C 0.84909 0.32066 0.5903 0.0
C1201 C 0.88567 0.3571 0.66194 0.0
C1202 C 0.87311 0.345 0.63674 0.0
H1203 H 0.83931 0.28602 0.48955 0.0
H1204 H 0.85473 0.3149 0.5238 0.0
H1205 H 0.82079 0.33536 0.61307 0.0
H1206 H 0.89066 0.40802 0.69362 0.0
H1207 H 0.87061 0.38806 0.65118 0.0
C1208 C 0.58917 0.85447 0.01002 0.0
C1209 C 0.609 0.84715 0.02321 0.0
C1210 C 0.57254 0.86154 0.03109 0.0
C1211 C 0.56031 0.87709 0.11842 0.0
H1212 H 0.50449 0.85014 0.10027 0.0
C1213 C 0.49599 0.86157 0.21948 0.0
C1214 C 0.47405 0.8651 0.21141 0.0
C1215 C 0.51207 0.86306 0.19508 0.0
C1216 C 0.51986 0.85809 0.10545 0.0
H1217 H 0.62743 0.84284 0.0687 0.0
H1218 H 0.59847 0.85481 0.10521 0.0
H1219 H 0.53351 0.84761 0.05937 0.0
H1220 H 0.45183 0.87317 0.17138 0.0
H1221 H 0.47991 0.87568 0.12894 0.0
H1222 H 0.54679 0.88685 0.1651 0.0
C1223 C 0.59573 0.85529 0.07867 0.0
C1224 C 0.53647 0.85672 0.08195 0.0
C1225 C 0.6123 0.84822 0.05769 0.0
C1226 C 0.46856 0.87026 0.17846 0.0
C1227 C 0.48462 0.87167 0.15408 0.0
C1228 C 0.5437 0.87839 0.14198 0.0
C1229 C 0.57548 0.86148 0.0657 0.0
C1230 C 0.55703 0.86578 0.08849 0.0
C1231 C 0.50653 0.86803 0.16212 0.0
C1232 C 0.52347 0.8685 0.136 0.0
H1233 H 0.58616 0.85398 0.98355 0.0
H1234 H 0.55719 0.86652 0.02036 0.0
H1235 H 0.57587 0.88453 0.12395 0.0
H1236 H 0.50079 0.85762 0.24461 0.0
H1237 H 0.5288 0.85988 0.2019 0.0
C1238 C 0.39165 0.33339 0.79435 0.0
C1239 C 0.38405 0.32789 0.7625 0.0
C1240 C 0.38225 0.32408 0.82256 0.0
C1241 C 0.35366 0.27468 0.84713 0.0
H1242 H 0.34361 0.30506 0.93011 0.0
C1243 C 0.32377 0.22773 0.9599 0.0
C1244 C 0.33501 0.23181 0.98959 0.0
C1245 C 0.32542 0.24211 0.93332 0.0
C1246 C 0.34641 0.29636 0.90713 0.0
H1247 H 0.35991 0.3091 0.73547 0.0
H1248 H 0.34358 0.29297 0.78462 0.0
H1249 H 0.35512 0.32546 0.88101 0.0
H1250 H 0.35568 0.2548 0.01553 0.0
H1251 H 0.35915 0.27963 0.96873 0.0
H1252 H 0.34588 0.24554 0.87306 0.0
C1253 C 0.35698 0.30424 0.78772 0.0
C1254 C 0.35298 0.30803 0.87907 0.0
C1255 C 0.36634 0.31354 0.75957 0.0
C1256 C 0.34682 0.25125 0.99293 0.0
C1257 C 0.34873 0.26552 0.96612 0.0
C1258 C 0.34725 0.26304 0.87509 0.0
C1259 C 0.36511 0.30908 0.81945 0.0
C1260 C 0.35682 0.29725 0.84886 0.0
C1261 C 0.33865 0.26071 0.93564 0.0
C1262 C 0.34369 0.27368 0.90552 0.0
H1263 H 0.40521 0.34446 0.7975 0.0
H1264 H 0.38896 0.32798 0.84669 0.0
H1265 H 0.35691 0.26585 0.82439 0.0
H1266 H 0.31425 0.21303 0.95681 0.0
H1267 H 0.31695 0.23823 0.9105 0.0
C1268 C 0.9662 0.13955 0.77284 0.0
C1269 C 0.983 0.12751 0.75788 0.0
C1270 C 0.94637 0.14245 0.75646 0.0
C1271 C 0.91316 0.12166 0.68635 0.0
H1272 H 0.89343 0.18128 0.67916 0.0
C1273 C 0.86904 0.15434 0.57273 0.0
C1274 C 0.85226 0.16961 0.57658 0.0
C1275 C 0.8806 0.14694 0.60017 0.0
C1276 C 0.89839 0.16447 0.68149 0.0
H1277 H 0.99183 0.10849 0.7145 0.0
H1278 H 0.95752 0.11375 0.68598 0.0
H1279 H 0.9221 0.17221 0.71852 0.0
H1280 H 0.83403 0.18865 0.61239 0.0
H1281 H 0.85461 0.17584 0.66056 0.0
H1282 H 0.89019 0.11415 0.64812 0.0
C1283 C 0.95951 0.12075 0.71048 0.0
C1284 C 0.91482 0.15926 0.70404 0.0
C1285 C 0.9793 0.11791 0.72673 0.0
C1286 C 0.84691 0.17691 0.60864 0.0
C1287 C 0.85868 0.16963 0.63617 0.0
C1288 C 0.8968 0.12687 0.66378 0.0
C1289 C 0.94293 0.13327 0.72495 0.0
C1290 C 0.92291 0.13795 0.70581 0.0
C1291 C 0.87576 0.15472 0.6321 0.0
C1292 C 0.88982 0.14847 0.6603 0.0
H1293 H 0.96848 0.14708 0.7969 0.0
H1294 H 0.93381 0.15207 0.76829 0.0
H1295 H 0.91877 0.105 0.68768 0.0
H1296 H 0.87348 0.14828 0.54841 0.0
H1297 H 0.89388 0.13569 0.59618 0.0
C1298 C 0.18029 0.78225 0.45194 0.0
C1299 C 0.17232 0.77316 0.48158 0.0
C1300 C 0.18196 0.76966 0.4232 0.0
C1301 C 0.16502 0.745 0.36361 0.0
H1302 H 0.17914 0.68363 0.36237 0.0
C1303 C 0.13527 0.66548 0.28907 0.0
C1304 C 0.1348 0.67349 0.25641 0.0
C1305 C 0.14603 0.67691 0.31407 0.0
C1306 C 0.17519 0.70077 0.36231 0.0
H1307 H 0.16111 0.74334 0.50468 0.0
H1308 H 0.16372 0.72147 0.45444 0.0
H1309 H 0.18702 0.70523 0.41186 0.0
H1310 H 0.14645 0.69914 0.22403 0.0
H1311 H 0.16537 0.71911 0.26786 0.0
H1312 H 0.15233 0.74045 0.31475 0.0
C1313 C 0.16888 0.7383 0.45348 0.0
C1314 C 0.17969 0.71312 0.39064 0.0
C1315 C 0.16724 0.75088 0.48228 0.0
C1316 C 0.14636 0.6926 0.24898 0.0
C1317 C 0.15712 0.70409 0.27409 0.0
C1318 C 0.1605 0.73266 0.33534 0.0
C1319 C 0.17568 0.7477 0.42341 0.0
C1320 C 0.17409 0.73524 0.39192 0.0
C1321 C 0.15661 0.69663 0.30707 0.0
C1322 C 0.16494 0.71028 0.33472 0.0
H1323 H 0.18461 0.7993 0.45059 0.0
H1324 H 0.18761 0.77728 0.40056 0.0
H1325 H 0.16023 0.76192 0.36388 0.0
H1326 H 0.12667 0.65073 0.29567 0.0
H1327 H 0.14507 0.6708 0.33922 0.0
C1328 C 0.912 0.62789 0.46277 0.0
C1329 C 0.8905 0.63418 0.45596 0.0
C1330 C 0.92659 0.62396 0.43678 0.0
C1331 C 0.93502 0.6413 0.35076 0.0
H1332 H 0.98212 0.59953 0.35187 0.0
C1333 C -0.00167 0.63635 0.24505 0.0
C1334 C 0.02013 0.63395 0.25489 0.0
C1335 C 0.98149 0.63401 0.26814 0.0
C1336 C 0.96911 0.61137 0.35132 0.0
H1337 H 0.86689 0.63928 0.41674 0.0
H1338 H 0.89217 0.63203 0.37161 0.0
H1339 H 0.95419 0.59819 0.39499 0.0
H1340 H 0.04127 0.62727 0.29684 0.0
H1341 H 0.01201 0.62358 0.33696 0.0
H1342 H 0.95011 0.65482 0.30766 0.0
C1343 C 0.89795 0.63075 0.39692 0.0
C1344 C 0.95311 0.61056 0.37598 0.0
C1345 C 0.88345 0.63479 0.4228 0.0
C1346 C 0.02468 0.6292 0.28832 0.0
C1347 C 0.00788 0.62687 0.31133 0.0
C1348 C 0.95099 0.64211 0.32618 0.0
C1349 C 0.91988 0.62613 0.40357 0.0
C1350 C 0.93601 0.62566 0.37614 0.0
C1351 C 0.98609 0.62922 0.30153 0.0
C1352 C 0.96836 0.62733 0.32639 0.0
H1353 H 0.91793 0.62732 0.48806 0.0
H1354 H 0.9434 0.6205 0.44275 0.0
H1355 H 0.9223 0.65345 0.35051 0.0
H1356 H 0.99424 0.63989 0.21949 0.0
H1357 H 0.96485 0.63574 0.25976 0.0
C1358 C 0.10995 0.16592 0.70857 0.0
C1359 C 0.09578 0.14803 0.70634 0.0
C1360 C 0.1172 0.17643 0.67995 0.0
C1361 C 0.10026 0.1853 0.59351 0.0
H1362 H 0.15519 0.21625 0.58875 0.0
C1363 C 0.12084 0.24263 0.48498 0.0
C1364 C 0.12709 0.26358 0.49526 0.0
C1365 C 0.12035 0.22546 0.50764 0.0
C1366 C 0.13983 0.20761 0.58972 0.0
H1367 H 0.07928 0.12625 0.67222 0.0
H1368 H 0.09238 0.14427 0.62221 0.0
H1369 H 0.14872 0.19066 0.63398 0.0
H1370 H 0.13871 0.2827 0.53696 0.0
H1371 H 0.13794 0.25272 0.57637 0.0
H1372 H 0.09129 0.20251 0.54954 0.0
C1373 C 0.0974 0.15055 0.64614 0.0
C1374 C 0.13607 0.19302 0.61565 0.0
C1375 C 0.08997 0.14016 0.6748 0.0
C1376 C 0.13369 0.26679 0.5283 0.0
C1377 C 0.13343 0.24959 0.55081 0.0
C1378 C 0.10411 0.1997 0.56744 0.0
C1379 C 0.11063 0.16917 0.64839 0.0
C1380 C 0.116 0.18215 0.61837 0.0
C1381 C 0.12638 0.22886 0.54086 0.0
C1382 C 0.1237 0.21142 0.56579 0.0
H1383 H 0.11474 0.17243 0.73247 0.0
H1384 H 0.12711 0.19087 0.68274 0.0
H1385 H 0.08448 0.17751 0.59502 0.0
H1386 H 0.11569 0.2396 0.45969 0.0
H1387 H 0.11497 0.2096 0.49931 0.0
C1388 C 0.51447 0.33322 0.6979 0.0
C1389 C 0.49795 0.34646 0.71108 0.0
C1390 C 0.53449 0.33136 0.71425 0.0
C1391 C 0.56882 0.3581 0.77797 0.0
H1392 H 0.58804 0.29982 0.79938 0.0
C1393 C 0.61173 0.33692 0.89871 0.0
C1394 C 0.62793 0.32087 0.8992 0.0
C1395 C 0.60086 0.34187 0.86936 0.0
C1396 C 0.58325 0.31622 0.79302 0.0
H1397 H 0.48975 0.36859 0.7512 0.0
H1398 H 0.52435 0.3653 0.77945 0.0
H1399 H 0.55926 0.30499 0.75844 0.0
H1400 H 0.64605 0.29798 0.86896 0.0
H1401 H 0.62672 0.3065 0.81747 0.0
H1402 H 0.59201 0.36928 0.81375 0.0
C1403 C 0.522 0.35647 0.75645 0.0
C1404 C 0.56676 0.31918 0.76957 0.0
C1405 C 0.50204 0.35816 0.7404 0.0
C1406 C 0.63363 0.31044 0.86935 0.0
C1407 C 0.62253 0.31524 0.83994 0.0
C1408 C 0.58526 0.35516 0.80138 0.0
C1409 C 0.5384 0.34295 0.74375 0.0
C1410 C 0.55878 0.3401 0.76287 0.0
C1411 C 0.6058 0.33077 0.83981 0.0
C1412 C 0.59201 0.33414 0.81012 0.0
H1413 H 0.51182 0.32402 0.67531 0.0
H1414 H 0.54687 0.32082 0.70392 0.0
H1415 H 0.56328 0.37445 0.77277 0.0
H1416 H 0.60704 0.34533 0.92124 0.0
H1417 H 0.58786 0.35371 0.87018 0.0
C1418 C 0.34311 0.72817 0.00305 0.0
C1419 C 0.338 0.70598 0.00599 0.0
C1420 C 0.34086 0.74213 0.03022 0.0
C1421 C 0.34264 0.74092 0.12069 0.0
H1422 H 0.32437 0.80097 0.11312 0.0
C1423 C 0.35439 0.80059 0.22932 0.0
C1424 C 0.36428 0.82031 0.22015 0.0
C1425 C 0.34536 0.78691 0.20515 0.0
C1426 C 0.32953 0.78424 0.11566 0.0
H1427 H 0.32555 0.6813 0.03951 0.0
H1428 H 0.3217 0.70569 0.08686 0.0
H1429 H 0.3195 0.7763 0.06617 0.0
H1430 H 0.37114 0.84173 0.17864 0.0
H1431 H 0.35584 0.81791 0.13683 0.0
H1432 H 0.35362 0.74897 0.1695 0.0
C1433 C 0.32762 0.71221 0.06358 0.0
C1434 C 0.32673 0.77013 0.08877 0.0
C1435 C 0.32976 0.69827 0.03637 0.0
C1436 C 0.3638 0.8266 0.18662 0.0
C1437 C 0.35481 0.81298 0.16257 0.0
C1438 C 0.34556 0.75504 0.1475 0.0
C1439 C 0.33353 0.7342 0.06097 0.0
C1440 C 0.33375 0.74846 0.09073 0.0
C1441 C 0.34599 0.79271 0.17138 0.0
C1442 C 0.33958 0.77702 0.145 0.0
H1443 H 0.34943 0.73469 0.98001 0.0
H1444 H 0.34575 0.75895 0.02751 0.0
H1445 H 0.34843 0.72437 0.12288 0.0
H1446 H 0.35438 0.7953 0.25494 0.0
H1447 H 0.33841 0.77153 0.21281 0.0
C1448 C 0.05775 0.38713 0.48789 0.0
C1449 C 0.07564 0.37449 0.49778 0.0
C1450 C 0.04798 0.40161 0.51019 0.0
C1451 C 0.05801 0.43088 0.58916 0.0
H1452 H -0.00449 0.42742 0.60039 0.0
C1453 C 0.01444 0.44528 0.71238 0.0
C1454 C 0.99253 0.45175 0.71233 0.0
C1455 C 0.02585 0.44327 0.68256 0.0
C1456 C 0.01292 0.42911 0.59712 0.0
H1457 H 0.09725 0.36719 0.53893 0.0
H1458 H 0.08014 0.39211 0.57756 0.0
H1459 H 0.01262 0.40866 0.55413 0.0
H1460 H 0.96632 0.46389 0.6814 0.0
H1461 H 0.98637 0.46067 0.6295 0.0
H1462 H 0.05839 0.4506 0.63298 0.0
C1463 C 0.07385 0.39112 0.5525 0.0
C1464 C 0.02272 0.41827 0.5706 0.0
C1465 C 0.08349 0.37662 0.53039 0.0
C1466 C 0.98307 0.45848 0.68227 0.0
C1467 C -0.00549 0.45654 0.65247 0.0
C1468 C 0.0482 0.44177 0.61565 0.0
C1469 C 0.05606 0.40383 0.54266 0.0
C1470 C 0.04543 0.41839 0.56707 0.0
C1471 C 0.01561 0.44782 0.65214 0.0
C1472 C 0.02562 0.44036 0.62059 0.0
H1473 H 0.05136 0.38596 0.46291 0.0
H1474 H 0.03426 0.41121 0.50196 0.0
H1475 H 0.07554 0.4316 0.58662 0.0
H1476 H 0.02228 0.4401 0.73509 0.0
H1477 H 0.04207 0.43646 0.68325 0.0
C1478 C 0.91127 0.87216 0.32884 0.0
C1479 C 0.91085 0.86971 0.29415 0.0
C1480 C 0.90183 0.85652 0.34933 0.0
C1481 C 0.8843 0.79936 0.35101 0.0
H1482 H 0.85147 0.81786 0.42829 0.0
C1483 C 0.84193 0.73746 0.43532 0.0
C1484 C 0.84625 0.73992 0.46939 0.0
C1485 C 0.84676 0.75416 0.41313 0.0
C1486 C 0.86065 0.81248 0.40686 0.0
H1487 H 0.90034 0.84875 0.25382 0.0
H1488 H 0.88373 0.82152 0.28967 0.0
H1489 H 0.8667 0.84505 0.39078 0.0
H1490 H 0.85779 0.7624 0.50708 0.0
H1491 H 0.86633 0.79148 0.46828 0.0
H1492 H 0.87851 0.76682 0.36726 0.0
C1493 C 0.89155 0.83546 0.30098 0.0
C1494 C 0.86942 0.82802 0.38545 0.0
C1495 C 0.90104 0.8511 0.28044 0.0
C1496 C 0.85432 0.75993 0.481 0.0
C1497 C 0.85913 0.77664 0.45878 0.0
C1498 C 0.8755 0.78384 0.37236 0.0
C1499 C 0.89172 0.83809 0.33563 0.0
C1500 C 0.88155 0.82162 0.35751 0.0
C1501 C 0.85596 0.77369 0.42453 0.0
C1502 C 0.86377 0.79024 0.40067 0.0
H1503 H 0.91877 0.88625 0.34024 0.0
H1504 H 0.90259 0.8588 0.37597 0.0
H1505 H 0.89381 0.79392 0.32995 0.0
H1506 H 0.83553 0.72233 0.42555 0.0
H1507 H 0.84379 0.75159 0.38692 0.0
C1508 C 0.37187 0.60018 0.03931 0.0
C1509 C 0.38473 0.60196 0.01053 0.0
C1510 C 0.37963 0.58916 0.06713 0.0
C1511 C 0.42231 0.55148 0.09633 0.0
H1512 H 0.42251 0.58756 0.17534 0.0
C1513 C 0.49205 0.55251 0.18786 0.0
C1514 C 0.48852 0.55695 0.22164 0.0
C1515 C 0.47473 0.55195 0.1657 0.0
C1516 C 0.42212 0.57692 0.1539 0.0
H1517 H 0.41531 0.59256 0.9878 0.0
H1518 H 0.42886 0.57343 0.03639 0.0
H1519 H 0.40001 0.59773 0.12824 0.0
H1520 H 0.4639 0.56315 0.25903 0.0
H1521 H 0.4334 0.56235 0.21991 0.0
H1522 H 0.44523 0.53122 0.12146 0.0
C1523 C 0.41273 0.58045 0.03736 0.0
C1524 C 0.40926 0.58279 0.12685 0.0
C1525 C 0.40505 0.5916 0.00962 0.0
C1526 C 0.46711 0.5598 0.23309 0.0
C1527 C 0.44969 0.55938 0.21074 0.0
C1528 C 0.43508 0.54554 0.12344 0.0
C1529 C 0.4003 0.57954 0.06662 0.0
C1530 C 0.41 0.57065 0.09731 0.0
C1531 C 0.45341 0.55585 0.17671 0.0
C1532 C 0.4359 0.55878 0.15188 0.0
H1533 H 0.35607 0.60788 0.0408 0.0
H1534 H 0.36968 0.58859 0.08932 0.0
H1535 H 0.42285 0.54163 0.07404 0.0
H1536 H 0.50832 0.55002 0.17826 0.0
H1537 H 0.47824 0.54954 0.13961 0.0
C1538 C 0.66148 0.21813 0.9219 0.0
C1539 C 0.65849 0.2191 0.95644 0.0
C1540 C 0.65443 0.20007 0.90394 0.0
C1541 C 0.61273 0.15758 0.91043 0.0
H1542 H 0.63596 0.14095 0.82459 0.0
C1543 C 0.5712 0.09606 0.82094 0.0
C1544 C 0.56848 0.10398 0.78848 0.0
C1545 C 0.58398 0.10742 0.84378 0.0
C1546 C 0.62936 0.14543 0.84859 0.0
H1547 H 0.64783 0.20093 -0.00037 0.0
H1548 H 0.63611 0.16908 0.9683 0.0
H1549 H 0.65763 0.16386 0.86146 0.0
H1550 H 0.57685 0.13009 0.75462 0.0
H1551 H 0.59933 0.14978 0.79449 0.0
H1552 H 0.58441 0.13915 0.89725 0.0
C1553 C 0.64322 0.18262 0.95498 0.0
C1554 C 0.64171 0.15855 0.86967 0.0
C1555 C 0.65008 0.20081 0.97296 0.0
C1556 C 0.57853 0.12362 0.77947 0.0
C1557 C 0.59158 0.13478 0.80213 0.0
C1558 C 0.60052 0.14419 0.88951 0.0
C1559 C 0.64447 0.18244 0.92013 0.0
C1560 C 0.63326 0.16536 0.9004 0.0
C1561 C 0.59455 0.12668 0.83435 0.0
C1562 C 0.60848 0.13857 0.85805 0.0
H1563 H 0.66797 0.23188 0.90835 0.0
H1564 H 0.65553 0.20065 0.87713 0.0
H1565 H 0.60552 0.16273 0.93365 0.0
H1566 H 0.56363 0.08096 0.82859 0.0
H1567 H 0.58602 0.10093 0.86856 0.0
C1568 C 0.29827 0.2333 0.16629 0.0
C1569 C 0.29784 0.2106 0.16235 0.0
C1570 C 0.28344 0.24355 0.18745 0.0
C1571 C 0.22959 0.23532 0.22487 0.0
H1572 H 0.24704 0.28117 0.28537 0.0
C1573 C 0.17232 0.26902 0.32593 0.0
C1574 C 0.17279 0.29156 0.33156 0.0
C1575 C 0.18758 0.25934 0.3049 0.0
C1576 C 0.24187 0.26856 0.26831 0.0
H1577 H 0.2819 0.18084 0.17837 0.0
H1578 H 0.25629 0.19872 0.21519 0.0
H1579 H 0.27418 0.26415 0.24959 0.0
H1580 H 0.18935 0.32165 0.31893 0.0
H1581 H 0.21563 0.30481 0.28197 0.0
H1582 H 0.19729 0.23974 0.24338 0.0
C1583 C 0.26784 0.2086 0.20158 0.0
C1584 C 0.25742 0.25883 0.24788 0.0
C1585 C 0.28263 0.19837 0.18059 0.0
C1586 C 0.1886 0.30422 0.31533 0.0
C1587 C 0.20377 0.29456 0.29428 0.0
C1588 C 0.21404 0.24508 0.2452 0.0
C1589 C 0.26789 0.23129 0.20491 0.0
C1590 C 0.25143 0.24203 0.2261 0.0
C1591 C 0.20355 0.27201 0.28903 0.0
C1592 C 0.22003 0.26175 0.26723 0.0
H1593 H 0.30977 0.24319 0.15261 0.0
H1594 H 0.28377 0.26111 0.18947 0.0
H1595 H 0.22445 0.22264 0.20791 0.0
H1596 H 0.16041 0.2588 0.33814 0.0
H1597 H 0.18713 0.24188 0.30161 0.0
C1598 C 0.50744 0.49946 0.37635 0.0
C1599 C 0.52951 0.5016 0.36789 0.0
C1600 C 0.50018 0.48135 0.39396 0.0
C1601 C 0.51868 0.43977 0.45183 0.0
H1602 H 0.46292 0.41343 0.43127 0.0
C1603 C 0.47956 0.37634 0.53829 0.0
C1604 C 0.45824 0.38201 0.54737 0.0
C1605 C 0.48957 0.38634 0.5111 0.0
C1606 C 0.47857 0.42055 0.4372 0.0
H1607 H 0.56127 0.48634 0.37126 0.0
H1608 H 0.54851 0.45476 0.4022 0.0
H1609 H 0.47827 0.44061 0.39387 0.0
H1610 H 0.43019 0.40147 0.53387 0.0
H1611 H 0.44756 0.41884 0.48685 0.0
H1612 H 0.51857 0.42041 0.49587 0.0
C1613 C 0.53689 0.46715 0.39521 0.0
C1614 C 0.48731 0.43613 0.41589 0.0
C1615 C 0.54416 0.48523 0.37746 0.0
C1616 C 0.44671 0.39689 0.5277 0.0
C1617 C 0.45661 0.4067 0.5005 0.0
C1618 C 0.50992 0.4242 0.4732 0.0
C1619 C 0.51483 0.46503 0.40358 0.0
C1620 C 0.50711 0.44639 0.42356 0.0
C1621 C 0.47829 0.40194 0.49237 0.0
C1622 C 0.48945 0.41498 0.46663 0.0
H1623 H 0.49572 0.51174 0.36936 0.0
H1624 H 0.48313 0.48033 0.4006 0.0
H1625 H 0.53392 0.44749 0.45846 0.0
H1626 H 0.48881 0.36488 0.55297 0.0
H1627 H 0.50627 0.38229 0.5052 0.0
C1628 C 0.20531 0.79154 0.6909 0.0
C1629 C 0.19608 0.78052 0.66373 0.0
C1630 C 0.22104 0.78154 0.71048 0.0
C1631 C 0.26241 0.73887 0.70676 0.0
H1632 H 0.26323 0.74552 0.80248 0.0
C1633 C 0.31699 0.68854 0.79335 0.0
C1634 C 0.32544 0.69856 0.82197 0.0
C1635 C 0.30301 0.69981 0.77235 0.0
C1636 C 0.26343 0.74384 0.77572 0.0
H1637 H 0.19552 0.75002 0.63663 0.0
H1638 H 0.22292 0.73245 0.67122 0.0
H1639 H 0.23367 0.76144 0.77051 0.0
H1640 H 0.32696 0.72875 0.8498 0.0
H1641 H 0.30262 0.74853 0.81279 0.0
H1642 H 0.29211 0.72112 0.71203 0.0
C1643 C 0.21815 0.74897 0.67694 0.0
C1644 C 0.24644 0.75285 0.75745 0.0
C1645 C 0.20233 0.75896 0.65735 0.0
C1646 C 0.32065 0.72053 0.82804 0.0
C1647 C 0.30658 0.73181 0.80702 0.0
C1648 C 0.27942 0.72986 0.72505 0.0
C1649 C 0.22791 0.76031 0.70336 0.0
C1650 C 0.24571 0.75038 0.72281 0.0
C1651 C 0.29716 0.72135 0.7795 0.0
C1652 C 0.28005 0.73218 0.75973 0.0
H1653 H 0.20084 0.80815 0.69658 0.0
H1654 H 0.22836 0.79075 0.73052 0.0
H1655 H 0.26248 0.73706 0.68002 0.0
H1656 H 0.32046 0.67166 0.78783 0.0
H1657 H 0.29593 0.69126 0.75146 0.0
C1658 C 0.01594 0.60075 0.07586 0.0
C1659 C 0.03876 0.60093 0.07769 0.0
C1660 C 0.00545 0.58909 0.05061 0.0
C1661 C 0.01442 0.56342 0.96872 0.0
H1662 H 0.97221 0.52076 -0.00171 0.0
C1663 C 0.99379 0.48727 0.89192 0.0
C1664 C 0.97208 0.48015 0.89143 0.0
C1665 C 0.00015 0.50417 0.91302 0.0
C1666 C 0.98368 0.53281 0.98945 0.0
H1667 H 0.06847 0.59016 0.05364 0.0
H1668 H 0.05027 0.57011 0.00987 0.0
H1669 H 0.98554 0.5481 0.03713 0.0
H1670 H 0.93996 0.48539 0.91255 0.0
H1671 H 0.95103 0.5149 0.94885 0.0
H1672 H 0.01292 0.54792 0.92123 0.0
C1673 C 0.04043 0.57883 0.02778 0.0
C1674 C 0.99125 0.5485 0.0117 0.0
C1675 C 0.05085 0.59016 0.05308 0.0
C1676 C 0.95688 0.49032 0.91245 0.0
C1677 C 0.96321 0.50723 0.93337 0.0
C1678 C 0.00679 0.5478 0.94644 0.0
C1679 C 0.01766 0.57784 0.02659 0.0
C1680 C 0.00707 0.56362 0.00174 0.0
C1681 C 0.98491 0.51435 0.93393 0.0
C1682 C 0.99171 0.53201 0.95677 0.0
H1683 H 0.00625 0.60893 0.09451 0.0
H1684 H 0.98784 0.58861 0.05012 0.0
H1685 H 0.02645 0.57507 0.96033 0.0
H1686 H 0.0059 0.47978 0.87609 0.0
H1687 H 0.01709 0.50905 0.91326 0.0
C1688 C 0.71555 0.74828 0.85973 0.0
C1689 C 0.72139 0.76724 0.87704 0.0
C1690 C 0.72835 0.74086 0.83345 0.0
C1691 C 0.76637 0.76241 0.77146 0.0
H1692 H 0.77311 0.70167 0.74813 0.0
C1693 C 0.81401 0.73149 0.65593 0.0
C1694 C 0.80397 0.71452 0.63822 0.0
C1695 C 0.80522 0.73865 0.68604 0.0
C1696 C 0.77124 0.71871 0.7543 0.0
H1697 H 0.74615 0.79222 0.88225 0.0
H1698 H 0.76866 0.77899 0.83685 0.0
H1699 H 0.7569 0.7114 0.80136 0.0
H1700 H 0.77609 0.69275 0.63713 0.0
H1701 H 0.76083 0.70535 0.68927 0.0
H1702 H 0.78057 0.76966 0.72418 0.0
C1703 C 0.75389 0.77024 0.84295 0.0
C1704 C 0.76199 0.72426 0.78475 0.0
C1705 C 0.74104 0.77773 0.86908 0.0
C1706 C 0.7844 0.70568 0.6503 0.0
C1707 C 0.77571 0.71277 0.68031 0.0
C1708 C 0.77572 0.75685 0.74105 0.0
C1709 C 0.7473 0.75216 0.82415 0.0
C1710 C 0.75912 0.74617 0.79342 0.0
C1711 C 0.78632 0.7289 0.69888 0.0
C1712 C 0.77786 0.73495 0.73196 0.0
H1713 H 0.70049 0.73985 0.86524 0.0
H1714 H 0.72275 0.72695 0.81931 0.0
H1715 H 0.76408 0.77946 0.77719 0.0
H1716 H 0.8291 0.73861 0.6473 0.0
H1717 H 0.81367 0.75117 0.6999 0.0
C1718 C 0.7031 0.28343 0.14153 0.0
C1719 C 0.68961 0.2689 0.12409 0.0
C1720 C 0.71208 0.2776 0.17189 0.0
C1721 C 0.72743 0.23039 0.22129 0.0
H1722 H 0.73024 0.27248 0.29299 0.0
C1723 C 0.75913 0.20845 0.35088 0.0
C1724 C 0.77351 0.22326 0.366 0.0
C1725 C 0.74802 0.21406 0.32207 0.0
C1726 C 0.72973 0.26066 0.27307 0.0
H1727 H 0.67484 0.23685 0.12501 0.0
H1728 H 0.69059 0.22664 0.17849 0.0
H1729 H 0.71156 0.28184 0.24156 0.0
H1730 H 0.78736 0.25565 0.36284 0.0
H1731 H 0.76795 0.2654 0.31211 0.0
H1732 H 0.74573 0.20926 0.2527 0.0
C1733 C 0.69427 0.24251 0.16831 0.0
C1734 C 0.71902 0.26597 0.24371 0.0
C1735 C 0.68521 0.24838 0.13781 0.0
C1736 C 0.77639 0.2439 0.3518 0.0
C1737 C 0.76521 0.24952 0.32289 0.0
C1738 C 0.73812 0.22507 0.25066 0.0
C1739 C 0.70778 0.2571 0.18559 0.0
C1740 C 0.71792 0.25095 0.21745 0.0
C1741 C 0.75102 0.23458 0.3077 0.0
C1742 C 0.73948 0.2402 0.27674 0.0
H1743 H 0.70689 0.29937 0.1317 0.0
H1744 H 0.72272 0.28903 0.18436 0.0
H1745 H 0.72711 0.21862 0.20127 0.0
H1746 H 0.75641 0.19244 0.36121 0.0
H1747 H 0.73694 0.20235 0.31117 0.0
C1748 C 0.03341 0.07549 0.93754 0.0
C1749 C 0.0219 0.09159 0.92026 0.0
C1750 C 0.02445 0.06562 0.96531 0.0
C1751 C 0.98423 0.06995 0.0314 0.0
H1752 H 0.9913 0.00729 0.03251 0.0
C1753 C 0.94911 0.00997 0.13074 0.0
C1754 C 0.9639 -0.0059 0.1418 0.0
C1755 C 0.95487 0.02425 0.10526 0.0
C1756 C 0.98931 0.02478 0.03261 0.0
H1757 H 0.99231 0.11073 0.91951 0.0
H1758 H 0.97637 0.09308 0.9686 0.0
H1759 H 0.00271 0.0278 0.98402 0.0
H1760 H -0.00326 0.9817 0.13617 0.0
H1761 H 0.00664 0.0065 0.09167 0.0
H1762 H 0.97079 0.06663 0.0804 0.0
C1763 C 0.99241 0.08825 0.9603 0.0
C1764 C -0.00421 0.03651 0.00488 0.0
C1765 C 0.00149 0.09828 0.93227 0.0
C1766 C 0.9849 0.99358 0.1281 0.0
C1767 C 0.99056 0.00772 0.10254 0.0
C1768 C 0.97757 0.05809 0.05928 0.0
C1769 C 0.00367 0.07147 0.97651 0.0
C1770 C 0.99393 0.05925 0.00436 0.0
C1771 C 0.97541 0.02275 0.09031 0.0
C1772 C 0.98066 0.03548 0.06035 0.0
H1773 H 0.04936 0.07022 0.92942 0.0
H1774 H 0.03374 0.05315 0.97785 0.0
H1775 H 0.98263 0.08747 0.03155 0.0
H1776 H 0.93284 0.0109 0.14097 0.0
H1777 H 0.94294 0.03574 0.0962 0.0
C1778 C 0.52716 0.98502 0.59812 0.0
C1779 C 0.51206 0.00107 0.60739 0.0
C1780 C 0.52334 0.9719 0.57046 0.0
C1781 C 0.4995 0.97465 0.49019 0.0
H1782 H 0.4955 0.91175 0.49026 0.0
C1783 C 0.4595 0.92801 0.38496 0.0
C1784 C 0.46568 0.90658 0.37757 0.0
C1785 C 0.46936 0.93934 0.41073 0.0
C1786 C 0.49714 0.92927 0.48963 0.0
H1787 H 0.48089 0.01558 0.59585 0.0
H1788 H 0.47448 0.99292 0.54671 0.0
H1789 H 0.50318 0.93111 0.54205 0.0
H1790 H 0.48814 0.88072 0.38992 0.0
H1791 H 0.50587 0.90085 0.43497 0.0
H1792 H 0.49388 0.97309 0.43799 0.0
C1793 C 0.48912 0.99044 0.56118 0.0
C1794 C 0.50128 0.9403 0.51932 0.0
C1795 C 0.4927 0.00325 0.5893 0.0
C1796 C 0.483 0.8972 0.39514 0.0
C1797 C 0.49299 0.90865 0.4211 0.0
C1798 C 0.4958 0.96366 0.46047 0.0
C1799 C 0.5046 0.97497 0.5513 0.0
C1800 C 0.50182 0.96307 0.51988 0.0
C1801 C 0.48584 0.92964 0.42972 0.0
C1802 C 0.49383 0.94088 0.45999 0.0
H1803 H 0.54219 0.98299 0.61179 0.0
H1804 H 0.53545 0.96004 0.56318 0.0
H1805 H 0.50035 0.99224 0.49007 0.0
H1806 H 0.44633 0.93581 0.37171 0.0
H1807 H 0.46315 0.95531 0.41682 0.0
loop_
_geom_bond_atom_site_label_1
_geom_bond_atom_site_label_2
_geom_bond_distance
_geom_bond_site_symmetry_2
_ccdc_geom_bond_type
O0 Zn1 1.953 . S
O0 C16 1.225 . S
Zn1 O0 1.953 . S
Zn1 O2 1.949 1_556 S
Zn1 O8 1.919 . S
Zn1 O13 1.924 . S
O2 Zn1 1.949 1_554 S
O2 Zn3 1.923 . S
O2 Zn4 1.950 . S
O2 Zn5 1.945 . S
Zn3 O2 1.923 . S
Zn3 O6 1.933 . S
Zn3 O9 1.941 . S
Zn3 O10 1.965 . S
Zn4 O2 1.950 . S
Zn4 O11 1.938 . S
Zn4 O12 1.906 . S
Zn4 O22 1.953 . S
Zn5 O2 1.945 . S
Zn5 O7 1.932 . S
Zn5 O14 1.977 . S
Zn5 O15 1.910 . S
O6 Zn3 1.933 . S
O6 C17 1.226 . S
O7 Zn5 1.932 . S
O7 C17 1.307 . S
O8 Zn1 1.919 . S
O8 C19 1.253 . S
O9 Zn3 1.941 . S
O9 C19 1.283 1_554 S
O10 Zn3 1.965 . S
O10 C18 1.303 . S
O11 Zn4 1.938 . S
O11 C18 1.247 . S
O12 Zn4 1.906 . S
O12 C20 1.304 . S
O13 Zn1 1.924 . S
O13 C21 1.311 . S
O14 Zn5 1.977 . S
O14 C20 1.272 . S
O15 Zn5 1.910 . S
O15 C21 1.231 1_554 S
C16 O0 1.225 . S
C16 O22 1.298 1_556 S
C17 O6 1.226 . S
C17 O7 1.307 . S
C18 O10 1.303 . S
C18 O11 1.247 . S
C19 O8 1.253 . S
C19 O9 1.283 1_556 S
C20 O12 1.304 . S
C20 O14 1.272 . S
C21 O13 1.311 . S
C21 O15 1.231 1_556 S
O22 Zn4 1.953 . S
O22 C16 1.298 1_554 S
O23 Zn24 1.953 . S
O23 C39 1.225 . S
Zn24 O23 1.953 . S
Zn24 O25 1.949 . S
Zn24 O31 1.919 . S
Zn24 O36 1.924 . S
O25 Zn24 1.949 . S
O25 Zn26 1.923 . S
O25 Zn27 1.950 . S
O25 Zn28 1.945 . S
Zn26 O25 1.923 . S
Zn26 O29 1.933 . S
Zn26 O32 1.941 . S
Zn26 O33 1.965 . S
Zn27 O25 1.950 . S
Zn27 O34 1.938 . S
Zn27 O35 1.906 . S
Zn27 O45 1.953 . S
Zn28 O25 1.945 . S
Zn28 O30 1.932 . S
Zn28 O37 1.977 . S
Zn28 O38 1.910 . S
O29 Zn26 1.933 . S
O29 C40 1.226 . S
O30 Zn28 1.932 . S
O30 C40 1.307 . S
O31 Zn24 1.919 . S
O31 C42 1.253 . S
O32 Zn26 1.941 . S
O32 C42 1.283 . S
O33 Zn26 1.965 . S
O33 C41 1.303 . S
O34 Zn27 1.938 . S
O34 C41 1.247 . S
O35 Zn27 1.906 . S
O35 C43 1.304 . S
O36 Zn24 1.924 . S
O36 C44 1.311 . S
O37 Zn28 1.977 . S
O37 C43 1.272 . S
O38 Zn28 1.910 . S
O38 C44 1.231 . S
C39 O23 1.225 . S
C39 O45 1.298 . S
C40 O29 1.226 . S
C40 O30 1.307 . S
C41 O33 1.303 . S
C41 O34 1.247 . S
C42 O31 1.253 . S
C42 O32 1.283 . S
C43 O35 1.304 . S
C43 O37 1.272 . S
C44 O36 1.311 . S
C44 O38 1.231 . S
O45 Zn27 1.953 . S
O45 C39 1.298 . S
O46 Zn47 1.953 . S
O46 C62 1.225 . S
Zn47 O46 1.953 . S
Zn47 O48 1.949 . S
Zn47 O54 1.919 . S
Zn47 O59 1.924 . S
O48 Zn47 1.949 . S
O48 Zn49 1.923 . S
O48 Zn50 1.950 . S
O48 Zn51 1.945 . S
Zn49 O48 1.923 . S
Zn49 O52 1.933 . S
Zn49 O55 1.941 . S
Zn49 O56 1.965 . S
Zn50 O48 1.950 . S
Zn50 O57 1.938 . S
Zn50 O58 1.906 . S
Zn50 O68 1.953 . S
Zn51 O48 1.945 . S
Zn51 O53 1.932 . S
Zn51 O60 1.977 . S
Zn51 O61 1.910 . S
O52 Zn49 1.933 . S
O52 C63 1.226 . S
O53 Zn51 1.932 . S
O53 C63 1.307 . S
O54 Zn47 1.919 . S
O54 C65 1.253 . S
O55 Zn49 1.941 . S
O55 C65 1.283 . S
O56 Zn49 1.965 . S
O56 C64 1.303 . S
O57 Zn50 1.938 . S
O57 C64 1.247 . S
O58 Zn50 1.906 . S
O58 C66 1.304 . S
O59 Zn47 1.924 . S
O59 C67 1.311 . S
O60 Zn51 1.977 . S
O60 C66 1.272 . S
O61 Zn51 1.910 . S
O61 C67 1.231 . S
C62 O46 1.225 . S
C62 O68 1.298 . S
C63 O52 1.226 . S
C63 O53 1.307 . S
C64 O56 1.303 . S
C64 O57 1.247 . S
C65 O54 1.253 . S
C65 O55 1.283 . S
C66 O58 1.304 . S
C66 O60 1.272 . S
C67 O59 1.311 . S
C67 O61 1.231 . S
O68 Zn50 1.953 . S
O68 C62 1.298 . S
O69 Zn70 1.953 . S
O69 C85 1.225 . S
Zn70 O69 1.953 . S
Zn70 O71 1.949 . S
Zn70 O77 1.919 . S
Zn70 O82 1.924 . S
O71 Zn70 1.949 . S
O71 Zn72 1.923 . S
O71 Zn73 1.950 . S
O71 Zn74 1.945 . S
Zn72 O71 1.923 . S
Zn72 O75 1.933 . S
Zn72 O78 1.941 . S
Zn72 O79 1.965 . S
Zn73 O71 1.950 . S
Zn73 O80 1.938 . S
Zn73 O81 1.906 . S
Zn73 O91 1.953 . S
Zn74 O71 1.945 . S
Zn74 O76 1.932 . S
Zn74 O83 1.977 . S
Zn74 O84 1.910 . S
O75 Zn72 1.933 . S
O75 C86 1.226 . S
O76 Zn74 1.932 . S
O76 C86 1.307 . S
O77 Zn70 1.919 . S
O77 C88 1.253 . S
O78 Zn72 1.941 . S
O78 C88 1.283 . S
O79 Zn72 1.965 . S
O79 C87 1.303 . S
O80 Zn73 1.938 . S
O80 C87 1.247 . S
O81 Zn73 1.906 . S
O81 C89 1.304 . S
O82 Zn70 1.924 . S
O82 C90 1.311 . S
O83 Zn74 1.977 . S
O83 C89 1.272 . S
O84 Zn74 1.910 . S
O84 C90 1.231 . S
C85 O69 1.225 . S
C85 O91 1.298 . S
C86 O75 1.226 . S
C86 O76 1.307 . S
C87 O79 1.303 . S
C87 O80 1.247 . S
C88 O77 1.253 . S
C88 O78 1.283 . S
C89 O81 1.304 . S
C89 O83 1.272 . S
C90 O82 1.311 . S
C90 O84 1.231 . S
O91 Zn73 1.953 . S
O91 C85 1.298 . S
O92 Zn93 1.953 . S
O92 C108 1.225 . S
Zn93 O92 1.953 . S
Zn93 O94 1.949 1_554 S
Zn93 O100 1.919 . S
Zn93 O105 1.924 . S
O94 Zn93 1.949 1_556 S
O94 Zn95 1.923 . S
O94 Zn96 1.950 . S
O94 Zn97 1.945 . S
Zn95 O94 1.923 . S
Zn95 O98 1.933 . S
Zn95 O101 1.941 . S
Zn95 O102 1.965 . S
Zn96 O94 1.950 . S
Zn96 O103 1.938 . S
Zn96 O104 1.906 . S
Zn96 O114 1.953 . S
Zn97 O94 1.945 . S
Zn97 O99 1.932 . S
Zn97 O106 1.977 . S
Zn97 O107 1.910 . S
O98 Zn95 1.933 . S
O98 C109 1.226 . S
O99 Zn97 1.932 . S
O99 C109 1.307 . S
O100 Zn93 1.919 . S
O100 C111 1.253 . S
O101 Zn95 1.941 . S
O101 C111 1.283 1_556 S
O102 Zn95 1.965 . S
O102 C110 1.303 . S
O103 Zn96 1.938 . S
O103 C110 1.247 . S
O104 Zn96 1.906 . S
O104 C112 1.304 . S
O105 Zn93 1.924 . S
O105 C113 1.311 . S
O106 Zn97 1.977 . S
O106 C112 1.272 . S
O107 Zn97 1.910 . S
O107 C113 1.231 1_556 S
C108 O92 1.225 . S
C108 O114 1.298 1_554 S
C109 O98 1.226 . S
C109 O99 1.307 . S
C110 O102 1.303 . S
C110 O103 1.247 . S
C111 O100 1.253 . S
C111 O101 1.283 1_554 S
C112 O104 1.304 . S
C112 O106 1.272 . S
C113 O105 1.311 . S
C113 O107 1.231 1_554 S
O114 Zn96 1.953 . S
O114 C108 1.298 1_556 S
O115 Zn116 1.953 . S
O115 C131 1.225 . S
Zn116 O115 1.953 . S
Zn116 O117 1.949 . S
Zn116 O123 1.919 . S
Zn116 O128 1.924 . S
O117 Zn116 1.949 . S
O117 Zn118 1.923 . S
O117 Zn119 1.950 . S
O117 Zn120 1.945 . S
Zn118 O117 1.923 . S
Zn118 O121 1.933 . S
Zn118 O124 1.941 . S
Zn118 O125 1.965 . S
Zn119 O117 1.950 . S
Zn119 O126 1.938 . S
Zn119 O127 1.906 . S
Zn119 O137 1.953 . S
Zn120 O117 1.945 . S
Zn120 O122 1.932 . S
Zn120 O129 1.977 . S
Zn120 O130 1.910 . S
O121 Zn118 1.933 . S
O121 C132 1.226 . S
O122 Zn120 1.932 . S
O122 C132 1.307 . S
O123 Zn116 1.919 . S
O123 C134 1.253 . S
O124 Zn118 1.941 . S
O124 C134 1.283 . S
O125 Zn118 1.965 . S
O125 C133 1.303 . S
O126 Zn119 1.938 . S
O126 C133 1.247 . S
O127 Zn119 1.906 . S
O127 C135 1.304 . S
O128 Zn116 1.924 . S
O128 C136 1.311 . S
O129 Zn120 1.977 . S
O129 C135 1.272 . S
O130 Zn120 1.910 . S
O130 C136 1.231 . S
C131 O115 1.225 . S
C131 O137 1.298 . S
C132 O121 1.226 . S
C132 O122 1.307 . S
C133 O125 1.303 . S
C133 O126 1.247 . S
C134 O123 1.253 . S
C134 O124 1.283 . S
C135 O127 1.304 . S
C135 O129 1.272 . S
C136 O128 1.311 . S
C136 O130 1.231 . S
O137 Zn119 1.953 . S
O137 C131 1.298 . S
O138 Zn139 1.953 . S
O138 C154 1.225 . S
Zn139 O138 1.953 . S
Zn139 O140 1.949 . S
Zn139 O146 1.919 . S
Zn139 O151 1.924 . S
O140 Zn139 1.949 . S
O140 Zn141 1.923 . S
O140 Zn142 1.950 . S
O140 Zn143 1.945 . S
Zn141 O140 1.923 . S
Zn141 O144 1.933 . S
Zn141 O147 1.941 . S
Zn141 O148 1.965 . S
Zn142 O140 1.950 . S
Zn142 O149 1.938 . S
Zn142 O150 1.906 . S
Zn142 O160 1.953 . S
Zn143 O140 1.945 . S
Zn143 O145 1.932 . S
Zn143 O152 1.977 . S
Zn143 O153 1.910 . S
O144 Zn141 1.933 . S
O144 C155 1.226 . S
O145 Zn143 1.932 . S
O145 C155 1.307 . S
O146 Zn139 1.919 . S
O146 C157 1.253 . S
O147 Zn141 1.941 . S
O147 C157 1.283 . S
O148 Zn141 1.965 . S
O148 C156 1.303 . S
O149 Zn142 1.938 . S
O149 C156 1.247 . S
O150 Zn142 1.906 . S
O150 C158 1.304 . S
O151 Zn139 1.924 . S
O151 C159 1.311 . S
O152 Zn143 1.977 . S
O152 C158 1.272 . S
O153 Zn143 1.910 . S
O153 C159 1.231 . S
C154 O138 1.225 . S
C154 O160 1.298 . S
C155 O144 1.226 . S
C155 O145 1.307 . S
C156 O148 1.303 . S
C156 O149 1.247 . S
C157 O146 1.253 . S
C157 O147 1.283 . S
C158 O150 1.304 . S
C158 O152 1.272 . S
C159 O151 1.311 . S
C159 O153 1.231 . S
O160 Zn142 1.953 . S
O160 C154 1.298 . S
O161 Zn162 1.953 . S
O161 C177 1.225 . S
Zn162 O161 1.953 . S
Zn162 O163 1.949 . S
Zn162 O169 1.919 . S
Zn162 O174 1.924 . S
O163 Zn162 1.949 . S
O163 Zn164 1.923 . S
O163 Zn165 1.950 . S
O163 Zn166 1.945 . S
Zn164 O163 1.923 . S
Zn164 O167 1.933 . S
Zn164 O170 1.941 . S
Zn164 O171 1.965 . S
Zn165 O163 1.950 . S
Zn165 O172 1.938 . S
Zn165 O173 1.906 . S
Zn165 O183 1.953 . S
Zn166 O163 1.945 . S
Zn166 O168 1.932 . S
Zn166 O175 1.977 . S
Zn166 O176 1.910 . S
O167 Zn164 1.933 . S
O167 C178 1.226 . S
O168 Zn166 1.932 . S
O168 C178 1.307 . S
O169 Zn162 1.919 . S
O169 C180 1.253 . S
O170 Zn164 1.941 . S
O170 C180 1.283 . S
O171 Zn164 1.965 . S
O171 C179 1.303 . S
O172 Zn165 1.938 . S
O172 C179 1.247 . S
O173 Zn165 1.906 . S
O173 C181 1.304 . S
O174 Zn162 1.924 . S
O174 C182 1.311 . S
O175 Zn166 1.977 . S
O175 C181 1.272 . S
O176 Zn166 1.910 . S
O176 C182 1.231 . S
C177 O161 1.225 . S
C177 O183 1.298 . S
C178 O167 1.226 . S
C178 O168 1.307 . S
C179 O171 1.303 . S
C179 O172 1.247 . S
C180 O169 1.253 . S
C180 O170 1.283 . S
C181 O173 1.304 . S
C181 O175 1.272 . S
C182 O174 1.311 . S
C182 O176 1.231 . S
O183 Zn165 1.953 . S
O183 C177 1.298 . S
O184 Zn185 1.953 . S
O184 C200 1.225 . S
Zn185 O184 1.953 . S
Zn185 O186 1.949 . S
Zn185 O192 1.919 . S
Zn185 O197 1.924 . S
O186 Zn185 1.949 . S
O186 Zn187 1.923 . S
O186 Zn188 1.950 . S
O186 Zn189 1.945 . S
Zn187 O186 1.923 . S
Zn187 O190 1.933 . S
Zn187 O193 1.941 . S
Zn187 O194 1.965 . S
Zn188 O186 1.950 . S
Zn188 O195 1.938 . S
Zn188 O196 1.906 . S
Zn188 O206 1.953 . S
Zn189 O186 1.945 . S
Zn189 O191 1.932 . S
Zn189 O198 1.977 . S
Zn189 O199 1.910 . S
O190 Zn187 1.933 . S
O190 C201 1.226 . S
O191 Zn189 1.932 . S
O191 C201 1.307 . S
O192 Zn185 1.919 . S
O192 C203 1.253 . S
O193 Zn187 1.941 . S
O193 C203 1.283 . S
O194 Zn187 1.965 . S
O194 C202 1.303 . S
O195 Zn188 1.938 . S
O195 C202 1.247 . S
O196 Zn188 1.906 . S
O196 C204 1.304 . S
O197 Zn185 1.924 . S
O197 C205 1.311 . S
O198 Zn189 1.977 . S
O198 C204 1.272 . S
O199 Zn189 1.910 . S
O199 C205 1.231 . S
C200 O184 1.225 . S
C200 O206 1.298 . S
C201 O190 1.226 . S
C201 O191 1.307 . S
C202 O194 1.303 . S
C202 O195 1.247 . S
C203 O192 1.253 . S
C203 O193 1.283 . S
C204 O196 1.304 . S
C204 O198 1.272 . S
C205 O197 1.311 . S
C205 O199 1.231 . S
O206 Zn188 1.953 . S
O206 C200 1.298 . S
O207 Zn208 1.953 . S
O207 C223 1.225 . S
Zn208 O207 1.953 . S
Zn208 O209 1.949 . S
Zn208 O215 1.919 . S
Zn208 O220 1.924 . S
O209 Zn208 1.949 . S
O209 Zn210 1.923 . S
O209 Zn211 1.950 . S
O209 Zn212 1.945 . S
Zn210 O209 1.923 . S
Zn210 O213 1.933 . S
Zn210 O216 1.941 . S
Zn210 O217 1.965 . S
Zn211 O209 1.950 . S
Zn211 O218 1.938 . S
Zn211 O219 1.906 . S
Zn211 O229 1.953 . S
Zn212 O209 1.945 . S
Zn212 O214 1.932 . S
Zn212 O221 1.977 . S
Zn212 O222 1.910 . S
O213 Zn210 1.933 . S
O213 C224 1.226 . S
O214 Zn212 1.932 . S
O214 C224 1.307 . S
O215 Zn208 1.919 . S
O215 C226 1.253 . S
O216 Zn210 1.941 . S
O216 C226 1.283 . S
O217 Zn210 1.965 . S
O217 C225 1.303 . S
O218 Zn211 1.938 . S
O218 C225 1.247 . S
O219 Zn211 1.906 . S
O219 C227 1.304 . S
O220 Zn208 1.924 . S
O220 C228 1.311 . S
O221 Zn212 1.977 . S
O221 C227 1.272 . S
O222 Zn212 1.910 . S
O222 C228 1.231 . S
C223 O207 1.225 . S
C223 O229 1.298 . S
C224 O213 1.226 . S
C224 O214 1.307 . S
C225 O217 1.303 . S
C225 O218 1.247 . S
C226 O215 1.253 . S
C226 O216 1.283 . S
C227 O219 1.304 . S
C227 O221 1.272 . S
C228 O220 1.311 . S
C228 O222 1.231 . S
O229 Zn211 1.953 . S
O229 C223 1.298 . S
O230 Zn231 1.953 . S
O230 C246 1.225 . S
Zn231 O230 1.953 . S
Zn231 O232 1.949 1_556 S
Zn231 O238 1.919 . S
Zn231 O243 1.924 . S
O232 Zn231 1.949 1_554 S
O232 Zn233 1.923 . S
O232 Zn234 1.950 . S
O232 Zn235 1.945 . S
Zn233 O232 1.923 . S
Zn233 O236 1.933 . S
Zn233 O239 1.941 . S
Zn233 O240 1.965 . S
Zn234 O232 1.950 . S
Zn234 O241 1.938 . S
Zn234 O242 1.906 . S
Zn234 O252 1.953 . S
Zn235 O232 1.945 . S
Zn235 O237 1.932 . S
Zn235 O244 1.977 . S
Zn235 O245 1.910 . S
O236 Zn233 1.933 . S
O236 C247 1.226 . S
O237 Zn235 1.932 . S
O237 C247 1.307 . S
O238 Zn231 1.919 . S
O238 C249 1.253 . S
O239 Zn233 1.941 . S
O239 C249 1.283 1_554 S
O240 Zn233 1.965 . S
O240 C248 1.303 . S
O241 Zn234 1.938 . S
O241 C248 1.247 . S
O242 Zn234 1.906 . S
O242 C250 1.304 . S
O243 Zn231 1.924 . S
O243 C251 1.311 . S
O244 Zn235 1.977 . S
O244 C250 1.272 . S
O245 Zn235 1.910 . S
O245 C251 1.231 1_554 S
C246 O230 1.225 . S
C246 O252 1.298 1_556 S
C247 O236 1.226 . S
C247 O237 1.307 . S
C248 O240 1.303 . S
C248 O241 1.247 . S
C249 O238 1.253 . S
C249 O239 1.283 1_556 S
C250 O242 1.304 . S
C250 O244 1.272 . S
C251 O243 1.311 . S
C251 O245 1.231 1_556 S
O252 Zn234 1.953 . S
O252 C246 1.298 1_554 S
O253 Zn254 1.953 . S
O253 C269 1.225 . S
Zn254 O253 1.953 . S
Zn254 O255 1.949 . S
Zn254 O261 1.919 . S
Zn254 O266 1.924 . S
O255 Zn254 1.949 . S
O255 Zn256 1.923 . S
O255 Zn257 1.950 . S
O255 Zn258 1.945 . S
Zn256 O255 1.923 . S
Zn256 O259 1.933 . S
Zn256 O262 1.941 . S
Zn256 O263 1.965 . S
Zn257 O255 1.950 . S
Zn257 O264 1.938 . S
Zn257 O265 1.906 . S
Zn257 O275 1.953 . S
Zn258 O255 1.945 . S
Zn258 O260 1.932 . S
Zn258 O267 1.977 . S
Zn258 O268 1.910 . S
O259 Zn256 1.933 . S
O259 C270 1.226 . S
O260 Zn258 1.932 . S
O260 C270 1.307 . S
O261 Zn254 1.919 . S
O261 C272 1.253 . S
O262 Zn256 1.941 . S
O262 C272 1.283 . S
O263 Zn256 1.965 . S
O263 C271 1.303 . S
O264 Zn257 1.938 . S
O264 C271 1.247 . S
O265 Zn257 1.906 . S
O265 C273 1.304 . S
O266 Zn254 1.924 . S
O266 C274 1.311 . S
O267 Zn258 1.977 . S
O267 C273 1.272 . S
O268 Zn258 1.910 . S
O268 C274 1.231 . S
C269 O253 1.225 . S
C269 O275 1.298 . S
C270 O259 1.226 . S
C270 O260 1.307 . S
C271 O263 1.303 . S
C271 O264 1.247 . S
C272 O261 1.253 . S
C272 O262 1.283 . S
C273 O265 1.304 . S
C273 O267 1.272 . S
C274 O266 1.311 . S
C274 O268 1.231 . S
O275 Zn257 1.953 . S
O275 C269 1.298 . S
O276 Zn277 1.953 . S
O276 C292 1.225 . S
Zn277 O276 1.953 . S
Zn277 O278 1.949 . S
Zn277 O284 1.919 . S
Zn277 O289 1.924 . S
O278 Zn277 1.949 . S
O278 Zn279 1.923 . S
O278 Zn280 1.950 . S
O278 Zn281 1.945 . S
Zn279 O278 1.923 . S
Zn279 O282 1.933 . S
Zn279 O285 1.941 . S
Zn279 O286 1.965 . S
Zn280 O278 1.950 . S
Zn280 O287 1.938 . S
Zn280 O288 1.906 . S
Zn280 O298 1.953 . S
Zn281 O278 1.945 . S
Zn281 O283 1.932 . S
Zn281 O290 1.977 . S
Zn281 O291 1.910 . S
O282 Zn279 1.933 . S
O282 C293 1.226 . S
O283 Zn281 1.932 . S
O283 C293 1.307 . S
O284 Zn277 1.919 . S
O284 C295 1.253 . S
O285 Zn279 1.941 . S
O285 C295 1.283 . S
O286 Zn279 1.965 . S
O286 C294 1.303 . S
O287 Zn280 1.938 . S
O287 C294 1.247 . S
O288 Zn280 1.906 . S
O288 C296 1.304 . S
O289 Zn277 1.924 . S
O289 C297 1.311 . S
O290 Zn281 1.977 . S
O290 C296 1.272 . S
O291 Zn281 1.910 . S
O291 C297 1.231 . S
C292 O276 1.225 . S
C292 O298 1.298 . S
C293 O282 1.226 . S
C293 O283 1.307 . S
C294 O286 1.303 . S
C294 O287 1.247 . S
C295 O284 1.253 . S
C295 O285 1.283 . S
C296 O288 1.304 . S
C296 O290 1.272 . S
C297 O289 1.311 . S
C297 O291 1.231 . S
O298 Zn280 1.953 . S
O298 C292 1.298 . S
O299 Zn300 1.953 . S
O299 C315 1.225 . S
Zn300 O299 1.953 . S
Zn300 O301 1.949 . S
Zn300 O307 1.919 . S
Zn300 O312 1.924 . S
O301 Zn300 1.949 . S
O301 Zn302 1.923 . S
O301 Zn303 1.950 . S
O301 Zn304 1.945 . S
Zn302 O301 1.923 . S
Zn302 O305 1.933 . S
Zn302 O308 1.941 . S
Zn302 O309 1.965 . S
Zn303 O301 1.950 . S
Zn303 O310 1.938 . S
Zn303 O311 1.906 . S
Zn303 O321 1.953 . S
Zn304 O301 1.945 . S
Zn304 O306 1.932 . S
Zn304 O313 1.977 . S
Zn304 O314 1.910 . S
O305 Zn302 1.933 . S
O305 C316 1.226 . S
O306 Zn304 1.932 . S
O306 C316 1.307 . S
O307 Zn300 1.919 . S
O307 C318 1.253 . S
O308 Zn302 1.941 . S
O308 C318 1.283 . S
O309 Zn302 1.965 . S
O309 C317 1.303 . S
O310 Zn303 1.938 . S
O310 C317 1.247 . S
O311 Zn303 1.906 . S
O311 C319 1.304 . S
O312 Zn300 1.924 . S
O312 C320 1.311 . S
O313 Zn304 1.977 . S
O313 C319 1.272 . S
O314 Zn304 1.910 . S
O314 C320 1.231 . S
C315 O299 1.225 . S
C315 O321 1.298 . S
C316 O305 1.226 . S
C316 O306 1.307 . S
C317 O309 1.303 . S
C317 O310 1.247 . S
C318 O307 1.253 . S
C318 O308 1.283 . S
C319 O311 1.304 . S
C319 O313 1.272 . S
C320 O312 1.311 . S
C320 O314 1.231 . S
O321 Zn303 1.953 . S
O321 C315 1.298 . S
O322 Zn323 1.953 . S
O322 C338 1.225 . S
Zn323 O322 1.953 . S
Zn323 O324 1.949 1_554 S
Zn323 O330 1.919 . S
Zn323 O335 1.924 . S
O324 Zn323 1.949 1_556 S
O324 Zn325 1.923 . S
O324 Zn326 1.950 . S
O324 Zn327 1.945 . S
Zn325 O324 1.923 . S
Zn325 O328 1.933 . S
Zn325 O331 1.941 . S
Zn325 O332 1.965 . S
Zn326 O324 1.950 . S
Zn326 O333 1.938 . S
Zn326 O334 1.906 . S
Zn326 O344 1.953 . S
Zn327 O324 1.945 . S
Zn327 O329 1.932 . S
Zn327 O336 1.977 . S
Zn327 O337 1.910 . S
O328 Zn325 1.933 . S
O328 C339 1.226 . S
O329 Zn327 1.932 . S
O329 C339 1.307 . S
O330 Zn323 1.919 . S
O330 C341 1.253 . S
O331 Zn325 1.941 . S
O331 C341 1.283 1_556 S
O332 Zn325 1.965 . S
O332 C340 1.303 . S
O333 Zn326 1.938 . S
O333 C340 1.247 . S
O334 Zn326 1.906 . S
O334 C342 1.304 . S
O335 Zn323 1.924 . S
O335 C343 1.311 . S
O336 Zn327 1.977 . S
O336 C342 1.272 . S
O337 Zn327 1.910 . S
O337 C343 1.231 1_556 S
C338 O322 1.225 . S
C338 O344 1.298 1_554 S
C339 O328 1.226 . S
C339 O329 1.307 . S
C340 O332 1.303 . S
C340 O333 1.247 . S
C341 O330 1.253 . S
C341 O331 1.283 1_554 S
C342 O334 1.304 . S
C342 O336 1.272 . S
C343 O335 1.311 . S
C343 O337 1.231 1_554 S
O344 Zn326 1.953 . S
O344 C338 1.298 1_556 S
O345 Zn346 1.953 . S
O345 C361 1.225 . S
Zn346 O345 1.953 . S
Zn346 O347 1.949 . S
Zn346 O353 1.919 . S
Zn346 O358 1.924 . S
O347 Zn346 1.949 . S
O347 Zn348 1.923 . S
O347 Zn349 1.950 . S
O347 Zn350 1.945 . S
Zn348 O347 1.923 . S
Zn348 O351 1.933 . S
Zn348 O354 1.941 . S
Zn348 O355 1.965 . S
Zn349 O347 1.950 . S
Zn349 O356 1.938 . S
Zn349 O357 1.906 . S
Zn349 O367 1.953 . S
Zn350 O347 1.945 . S
Zn350 O352 1.932 . S
Zn350 O359 1.977 . S
Zn350 O360 1.910 . S
O351 Zn348 1.933 . S
O351 C362 1.226 . S
O352 Zn350 1.932 . S
O352 C362 1.307 . S
O353 Zn346 1.919 . S
O353 C364 1.253 . S
O354 Zn348 1.941 . S
O354 C364 1.283 . S
O355 Zn348 1.965 . S
O355 C363 1.303 . S
O356 Zn349 1.938 . S
O356 C363 1.247 . S
O357 Zn349 1.906 . S
O357 C365 1.304 . S
O358 Zn346 1.924 . S
O358 C366 1.311 . S
O359 Zn350 1.977 . S
O359 C365 1.272 . S
O360 Zn350 1.910 . S
O360 C366 1.231 . S
C361 O345 1.225 . S
C361 O367 1.298 . S
C362 O351 1.226 . S
C362 O352 1.307 . S
C363 O355 1.303 . S
C363 O356 1.247 . S
C364 O353 1.253 . S
C364 O354 1.283 . S
C365 O357 1.304 . S
C365 O359 1.272 . S
C366 O358 1.311 . S
C366 O360 1.231 . S
O367 Zn349 1.953 . S
O367 C361 1.298 . S
C368 C369 1.349 . S
C368 C370 1.327 . S
C368 H393 0.950 . S
C369 C368 1.349 . S
C369 C385 1.349 . S
C370 C368 1.327 . S
C370 C389 1.429 . S
C370 H394 0.950 . S
C371 C388 1.574 . S
C371 C390 1.368 . S
C371 H395 0.949 . S
H372 C376 0.949 . S
C373 C374 1.349 . S
C373 C375 1.327 . S
C373 H396 0.950 . S
C374 C373 1.349 . S
C374 C386 1.349 . S
C375 C373 1.327 . S
C375 C391 1.429 . S
C375 H397 0.950 . S
C376 H372 0.949 . S
C376 C384 1.574 . S
C376 C392 1.368 . S
H377 C385 0.950 . S
H378 C383 0.950 . S
H379 C384 0.949 . S
H380 C386 0.950 . S
H381 C387 0.950 . S
H382 C388 0.949 . S
C383 H378 0.950 . S
C383 C385 1.327 . S
C383 C389 1.429 . S
C384 C376 1.574 . S
C384 H379 0.949 . S
C384 C390 1.368 . S
C385 C369 1.349 . S
C385 H377 0.950 . S
C385 C383 1.327 . S
C386 C374 1.349 . S
C386 H380 0.950 . S
C386 C387 1.327 . S
C387 H381 0.950 . S
C387 C386 1.327 . S
C387 C391 1.429 . S
C388 C371 1.574 . S
C388 H382 0.949 . S
C388 C392 1.368 . S
C389 C370 1.429 . S
C389 C383 1.429 . S
C389 C390 1.523 . S
C390 C371 1.368 . S
C390 C384 1.368 . S
C390 C389 1.523 . S
C391 C375 1.429 . S
C391 C387 1.429 . S
C391 C392 1.523 . S
C392 C376 1.368 . S
C392 C388 1.368 . S
C392 C391 1.523 . S
H393 C368 0.950 . S
H394 C370 0.950 . S
H395 C371 0.949 . S
H396 C373 0.950 . S
H397 C375 0.950 . S
C398 C399 1.349 . S
C398 C400 1.327 . S
C398 H423 0.950 . S
C399 C398 1.349 . S
C399 C415 1.349 . S
C400 C398 1.327 . S
C400 C419 1.429 . S
C400 H424 0.950 . S
C401 C418 1.574 . S
C401 C420 1.368 . S
C401 H425 0.949 . S
H402 C406 0.949 . S
C403 C404 1.349 . S
C403 C405 1.327 . S
C403 H426 0.950 . S
C404 C403 1.349 . S
C404 C416 1.349 . S
C405 C403 1.327 . S
C405 C421 1.429 . S
C405 H427 0.950 . S
C406 H402 0.949 . S
C406 C414 1.574 . S
C406 C422 1.368 . S
H407 C415 0.950 . S
H408 C413 0.950 . S
H409 C414 0.949 . S
H410 C416 0.950 . S
H411 C417 0.950 . S
H412 C418 0.949 . S
C413 H408 0.950 . S
C413 C415 1.327 . S
C413 C419 1.429 . S
C414 C406 1.574 . S
C414 H409 0.949 . S
C414 C420 1.368 . S
C415 C399 1.349 . S
C415 H407 0.950 . S
C415 C413 1.327 . S
C416 C404 1.349 . S
C416 H410 0.950 . S
C416 C417 1.327 . S
C417 H411 0.950 . S
C417 C416 1.327 . S
C417 C421 1.429 . S
C418 C401 1.574 . S
C418 H412 0.949 . S
C418 C422 1.368 . S
C419 C400 1.429 . S
C419 C413 1.429 . S
C419 C420 1.523 . S
C420 C401 1.368 . S
C420 C414 1.368 . S
C420 C419 1.523 . S
C421 C405 1.429 . S
C421 C417 1.429 . S
C421 C422 1.523 . S
C422 C406 1.368 . S
C422 C418 1.368 . S
C422 C421 1.523 . S
H423 C398 0.950 . S
H424 C400 0.950 . S
H425 C401 0.949 . S
H426 C403 0.950 . S
H427 C405 0.950 . S
C428 C429 1.349 . S
C428 C430 1.327 . S
C428 H453 0.950 . S
C429 C428 1.349 . S
C429 C445 1.349 . S
C430 C428 1.327 . S
C430 C449 1.429 . S
C430 H454 0.950 . S
C431 C448 1.574 1_455 S
C431 C450 1.368 . S
C431 H455 0.949 . S
H432 C436 0.949 . S
C433 C434 1.349 . S
C433 C435 1.327 . S
C433 H456 0.950 . S
C434 C433 1.349 . S
C434 C446 1.349 . S
C435 C433 1.327 . S
C435 C451 1.429 . S
C435 H457 0.950 . S
C436 H432 0.949 . S
C436 C444 1.574 1_655 S
C436 C452 1.368 . S
H437 C445 0.950 . S
H438 C443 0.950 . S
H439 C444 0.949 . S
H440 C446 0.950 . S
H441 C447 0.950 . S
H442 C448 0.949 . S
C443 H438 0.950 . S
C443 C445 1.327 . S
C443 C449 1.429 . S
C444 C436 1.574 1_455 S
C444 H439 0.949 . S
C444 C450 1.368 . S
C445 C429 1.349 . S
C445 H437 0.950 . S
C445 C443 1.327 . S
C446 C434 1.349 . S
C446 H440 0.950 . S
C446 C447 1.327 . S
C447 H441 0.950 . S
C447 C446 1.327 . S
C447 C451 1.429 . S
C448 C431 1.574 1_655 S
C448 H442 0.949 . S
C448 C452 1.368 . S
C449 C430 1.429 . S
C449 C443 1.429 . S
C449 C450 1.523 . S
C450 C431 1.368 . S
C450 C444 1.368 . S
C450 C449 1.523 . S
C451 C435 1.429 . S
C451 C447 1.429 . S
C451 C452 1.523 . S
C452 C436 1.368 . S
C452 C448 1.368 . S
C452 C451 1.523 . S
H453 C428 0.950 . S
H454 C430 0.950 . S
H455 C431 0.949 . S
H456 C433 0.950 . S
H457 C435 0.950 . S
C458 C459 1.349 . S
C458 C460 1.327 . S
C458 H483 0.950 . S
C459 C458 1.349 . S
C459 C475 1.349 . S
C460 C458 1.327 . S
C460 C479 1.429 . S
C460 H484 0.950 . S
C461 C478 1.574 . S
C461 C480 1.368 1_455 S
C461 H485 0.949 . S
H462 C466 0.949 . S
C463 C464 1.349 . S
C463 C465 1.327 . S
C463 H486 0.950 . S
C464 C463 1.349 . S
C464 C476 1.349 . S
C465 C463 1.327 . S
C465 C481 1.429 . S
C465 H487 0.950 . S
C466 H462 0.949 . S
C466 C474 1.574 . S
C466 C482 1.368 1_655 S
H467 C475 0.950 . S
H468 C473 0.950 . S
H469 C474 0.949 . S
H470 C476 0.950 . S
H471 C477 0.950 . S
H472 C478 0.949 . S
C473 H468 0.950 . S
C473 C475 1.327 . S
C473 C479 1.429 . S
C474 C466 1.574 . S
C474 H469 0.949 . S
C474 C480 1.368 . S
C475 C459 1.349 . S
C475 H467 0.950 . S
C475 C473 1.327 . S
C476 C464 1.349 . S
C476 H470 0.950 . S
C476 C477 1.327 . S
C477 H471 0.950 . S
C477 C476 1.327 . S
C477 C481 1.429 . S
C478 C461 1.574 . S
C478 H472 0.949 . S
C478 C482 1.368 . S
C479 C460 1.429 . S
C479 C473 1.429 . S
C479 C480 1.523 . S
C480 C461 1.368 1_655 S
C480 C474 1.368 . S
C480 C479 1.523 . S
C481 C465 1.429 . S
C481 C477 1.429 . S
C481 C482 1.523 . S
C482 C466 1.368 1_455 S
C482 C478 1.368 . S
C482 C481 1.523 . S
H483 C458 0.950 . S
H484 C460 0.950 . S
H485 C461 0.949 . S
H486 C463 0.950 . S
H487 C465 0.950 . S
C488 C489 1.349 . S
C488 C490 1.327 . S
C488 H513 0.950 . S
C489 C488 1.349 . S
C489 C505 1.349 . S
C490 C488 1.327 . S
C490 C509 1.429 . S
C490 H514 0.950 . S
C491 C508 1.574 . S
C491 C510 1.368 . S
C491 H515 0.949 . S
H492 C496 0.949 . S
C493 C494 1.349 . S
C493 C495 1.327 . S
C493 H516 0.950 . S
C494 C493 1.349 . S
C494 C506 1.349 . S
C495 C493 1.327 . S
C495 C511 1.429 . S
C495 H517 0.950 . S
C496 H492 0.949 . S
C496 C504 1.574 . S
C496 C512 1.368 . S
H497 C505 0.950 . S
H498 C503 0.950 . S
H499 C504 0.949 . S
H500 C506 0.950 . S
H501 C507 0.950 . S
H502 C508 0.949 . S
C503 H498 0.950 . S
C503 C505 1.327 . S
C503 C509 1.429 . S
C504 C496 1.574 . S
C504 H499 0.949 . S
C504 C510 1.368 . S
C505 C489 1.349 . S
C505 H497 0.950 . S
C505 C503 1.327 . S
C506 C494 1.349 . S
C506 H500 0.950 . S
C506 C507 1.327 . S
C507 H501 0.950 . S
C507 C506 1.327 . S
C507 C511 1.429 . S
C508 C491 1.574 . S
C508 H502 0.949 . S
C508 C512 1.368 . S
C509 C490 1.429 . S
C509 C503 1.429 . S
C509 C510 1.523 . S
C510 C491 1.368 . S
C510 C504 1.368 . S
C510 C509 1.523 . S
C511 C495 1.429 . S
C511 C507 1.429 . S
C511 C512 1.523 . S
C512 C496 1.368 . S
C512 C508 1.368 . S
C512 C511 1.523 . S
H513 C488 0.950 . S
H514 C490 0.950 . S
H515 C491 0.949 . S
H516 C493 0.950 . S
H517 C495 0.950 . S
C518 C519 1.349 . S
C518 C520 1.327 . S
C518 H543 0.950 . S
C519 C518 1.349 . S
C519 C535 1.349 . S
C520 C518 1.327 . S
C520 C539 1.429 . S
C520 H544 0.950 . S
C521 C538 1.574 . S
C521 C540 1.368 . S
C521 H545 0.949 . S
H522 C526 0.949 . S
C523 C524 1.349 . S
C523 C525 1.327 . S
C523 H546 0.950 . S
C524 C523 1.349 . S
C524 C536 1.349 . S
C525 C523 1.327 . S
C525 C541 1.429 . S
C525 H547 0.950 . S
C526 H522 0.949 . S
C526 C534 1.574 . S
C526 C542 1.368 . S
H527 C535 0.950 . S
H528 C533 0.950 . S
H529 C534 0.949 . S
H530 C536 0.950 . S
H531 C537 0.950 . S
H532 C538 0.949 . S
C533 H528 0.950 . S
C533 C535 1.327 . S
C533 C539 1.429 . S
C534 C526 1.574 . S
C534 H529 0.949 . S
C534 C540 1.368 . S
C535 C519 1.349 . S
C535 H527 0.950 . S
C535 C533 1.327 . S
C536 C524 1.349 . S
C536 H530 0.950 . S
C536 C537 1.327 . S
C537 H531 0.950 . S
C537 C536 1.327 . S
C537 C541 1.429 . S
C538 C521 1.574 . S
C538 H532 0.949 . S
C538 C542 1.368 . S
C539 C520 1.429 . S
C539 C533 1.429 . S
C539 C540 1.523 . S
C540 C521 1.368 . S
C540 C534 1.368 . S
C540 C539 1.523 . S
C541 C525 1.429 . S
C541 C537 1.429 . S
C541 C542 1.523 . S
C542 C526 1.368 . S
C542 C538 1.368 . S
C542 C541 1.523 . S
H543 C518 0.950 . S
H544 C520 0.950 . S
H545 C521 0.949 . S
H546 C523 0.950 . S
H547 C525 0.950 . S
C548 C549 1.349 . S
C548 C550 1.327 . S
C548 H573 0.950 . S
C549 C548 1.349 . S
C549 C565 1.349 . S
C550 C548 1.327 . S
C550 C569 1.429 . S
C550 H574 0.950 . S
C551 C568 1.574 1_655 S
C551 C570 1.368 . S
C551 H575 0.949 . S
H552 C556 0.949 . S
C553 C554 1.349 . S
C553 C555 1.327 . S
C553 H576 0.950 . S
C554 C553 1.349 . S
C554 C566 1.349 . S
C555 C553 1.327 . S
C555 C571 1.429 . S
C555 H577 0.950 . S
C556 H552 0.949 . S
C556 C564 1.574 1_455 S
C556 C572 1.368 . S
H557 C565 0.950 . S
H558 C563 0.950 . S
H559 C564 0.949 . S
H560 C566 0.950 . S
H561 C567 0.950 . S
H562 C568 0.949 . S
C563 H558 0.950 . S
C563 C565 1.327 . S
C563 C569 1.429 . S
C564 C556 1.574 1_655 S
C564 H559 0.949 . S
C564 C570 1.368 . S
C565 C549 1.349 . S
C565 H557 0.950 . S
C565 C563 1.327 . S
C566 C554 1.349 . S
C566 H560 0.950 . S
C566 C567 1.327 . S
C567 H561 0.950 . S
C567 C566 1.327 . S
C567 C571 1.429 . S
C568 C551 1.574 1_455 S
C568 H562 0.949 . S
C568 C572 1.368 . S
C569 C550 1.429 . S
C569 C563 1.429 . S
C569 C570 1.523 . S
C570 C551 1.368 . S
C570 C564 1.368 . S
C570 C569 1.523 . S
C571 C555 1.429 . S
C571 C567 1.429 . S
C571 C572 1.523 . S
C572 C556 1.368 . S
C572 C568 1.368 . S
C572 C571 1.523 . S
H573 C548 0.950 . S
H574 C550 0.950 . S
H575 C551 0.949 . S
H576 C553 0.950 . S
H577 C555 0.950 . S
C578 C579 1.349 . S
C578 C580 1.327 . S
C578 H603 0.950 . S
C579 C578 1.349 . S
C579 C595 1.349 . S
C580 C578 1.327 . S
C580 C599 1.429 . S
C580 H604 0.950 . S
C581 C598 1.574 . S
C581 C600 1.368 . S
C581 H605 0.949 . S
H582 C586 0.949 . S
C583 C584 1.349 . S
C583 C585 1.327 . S
C583 H606 0.950 . S
C584 C583 1.349 . S
C584 C596 1.349 . S
C585 C583 1.327 . S
C585 C601 1.429 . S
C585 H607 0.950 . S
C586 H582 0.949 . S
C586 C594 1.574 . S
C586 C602 1.368 . S
H587 C595 0.950 . S
H588 C593 0.950 . S
H589 C594 0.949 . S
H590 C596 0.950 . S
H591 C597 0.950 . S
H592 C598 0.949 . S
C593 H588 0.950 . S
C593 C595 1.327 . S
C593 C599 1.429 . S
C594 C586 1.574 . S
C594 H589 0.949 . S
C594 C600 1.368 1_655 S
C595 C579 1.349 . S
C595 H587 0.950 . S
C595 C593 1.327 . S
C596 C584 1.349 . S
C596 H590 0.950 . S
C596 C597 1.327 . S
C597 H591 0.950 . S
C597 C596 1.327 . S
C597 C601 1.429 . S
C598 C581 1.574 . S
C598 H592 0.949 . S
C598 C602 1.368 1_455 S
C599 C580 1.429 . S
C599 C593 1.429 . S
C599 C600 1.523 . S
C600 C581 1.368 . S
C600 C594 1.368 1_455 S
C600 C599 1.523 . S
C601 C585 1.429 . S
C601 C597 1.429 . S
C601 C602 1.523 . S
C602 C586 1.368 . S
C602 C598 1.368 1_655 S
C602 C601 1.523 . S
H603 C578 0.950 . S
H604 C580 0.950 . S
H605 C581 0.949 . S
H606 C583 0.950 . S
H607 C585 0.950 . S
C608 C609 1.349 . S
C608 C610 1.327 . S
C608 H633 0.950 . S
C609 C608 1.349 . S
C609 C625 1.349 . S
C610 C608 1.327 . S
C610 C629 1.429 . S
C610 H634 0.950 . S
C611 C628 1.574 . S
C611 C630 1.368 . S
C611 H635 0.949 . S
H612 C616 0.949 . S
C613 C614 1.349 . S
C613 C615 1.327 . S
C613 H636 0.950 . S
C614 C613 1.349 . S
C614 C626 1.349 . S
C615 C613 1.327 . S
C615 C631 1.429 . S
C615 H637 0.950 . S
C616 H612 0.949 . S
C616 C624 1.574 . S
C616 C632 1.368 . S
H617 C625 0.950 . S
H618 C623 0.950 . S
H619 C624 0.949 . S
H620 C626 0.950 . S
H621 C627 0.950 . S
H622 C628 0.949 . S
C623 H618 0.950 . S
C623 C625 1.327 . S
C623 C629 1.429 . S
C624 C616 1.574 . S
C624 H619 0.949 . S
C624 C630 1.368 . S
C625 C609 1.349 . S
C625 H617 0.950 . S
C625 C623 1.327 . S
C626 C614 1.349 . S
C626 H620 0.950 . S
C626 C627 1.327 . S
C627 H621 0.950 . S
C627 C626 1.327 . S
C627 C631 1.429 . S
C628 C611 1.574 . S
C628 H622 0.949 . S
C628 C632 1.368 . S
C629 C610 1.429 . S
C629 C623 1.429 . S
C629 C630 1.523 . S
C630 C611 1.368 . S
C630 C624 1.368 . S
C630 C629 1.523 . S
C631 C615 1.429 . S
C631 C627 1.429 . S
C631 C632 1.523 . S
C632 C616 1.368 . S
C632 C628 1.368 . S
C632 C631 1.523 . S
H633 C608 0.950 . S
H634 C610 0.950 . S
H635 C611 0.949 . S
H636 C613 0.950 . S
H637 C615 0.950 . S
C638 C639 1.349 . S
C638 C640 1.327 . S
C638 H663 0.950 . S
C639 C638 1.349 . S
C639 C655 1.349 . S
C640 C638 1.327 . S
C640 C659 1.429 . S
C640 H664 0.950 . S
C641 C658 1.574 . S
C641 C660 1.368 . S
C641 H665 0.949 . S
H642 C646 0.949 . S
C643 C644 1.349 . S
C643 C645 1.327 . S
C643 H666 0.950 . S
C644 C643 1.349 . S
C644 C656 1.349 . S
C645 C643 1.327 . S
C645 C661 1.429 . S
C645 H667 0.950 . S
C646 H642 0.949 . S
C646 C654 1.574 . S
C646 C662 1.368 . S
H647 C655 0.950 . S
H648 C653 0.950 . S
H649 C654 0.949 . S
H650 C656 0.950 . S
H651 C657 0.950 . S
H652 C658 0.949 . S
C653 H648 0.950 . S
C653 C655 1.327 . S
C653 C659 1.429 . S
C654 C646 1.574 . S
C654 H649 0.949 . S
C654 C660 1.368 . S
C655 C639 1.349 . S
C655 H647 0.950 . S
C655 C653 1.327 . S
C656 C644 1.349 . S
C656 H650 0.950 . S
C656 C657 1.327 . S
C657 H651 0.950 . S
C657 C656 1.327 . S
C657 C661 1.429 . S
C658 C641 1.574 . S
C658 H652 0.949 . S
C658 C662 1.368 . S
C659 C640 1.429 . S
C659 C653 1.429 . S
C659 C660 1.523 . S
C660 C641 1.368 . S
C660 C654 1.368 . S
C660 C659 1.523 . S
C661 C645 1.429 . S
C661 C657 1.429 . S
C661 C662 1.523 . S
C662 C646 1.368 . S
C662 C658 1.368 . S
C662 C661 1.523 . S
H663 C638 0.950 . S
H664 C640 0.950 . S
H665 C641 0.949 . S
H666 C643 0.950 . S
H667 C645 0.950 . S
C668 C669 1.349 . S
C668 C670 1.327 . S
C668 H693 0.950 . S
C669 C668 1.349 . S
C669 C685 1.349 . S
C670 C668 1.327 . S
C670 C689 1.429 . S
C670 H694 0.950 . S
C671 C688 1.574 . S
C671 C690 1.368 . S
C671 H695 0.949 . S
H672 C676 0.949 . S
C673 C674 1.349 . S
C673 C675 1.327 . S
C673 H696 0.950 . S
C674 C673 1.349 . S
C674 C686 1.349 . S
C675 C673 1.327 . S
C675 C691 1.429 . S
C675 H697 0.950 . S
C676 H672 0.949 . S
C676 C684 1.574 . S
C676 C692 1.368 . S
H677 C685 0.950 . S
H678 C683 0.950 . S
H679 C684 0.949 . S
H680 C686 0.950 . S
H681 C687 0.950 . S
H682 C688 0.949 . S
C683 H678 0.950 . S
C683 C685 1.327 . S
C683 C689 1.429 . S
C684 C676 1.574 . S
C684 H679 0.949 . S
C684 C690 1.368 . S
C685 C669 1.349 . S
C685 H677 0.950 . S
C685 C683 1.327 . S
C686 C674 1.349 . S
C686 H680 0.950 . S
C686 C687 1.327 . S
C687 H681 0.950 . S
C687 C686 1.327 . S
C687 C691 1.429 . S
C688 C671 1.574 . S
C688 H682 0.949 . S
C688 C692 1.368 . S
C689 C670 1.429 . S
C689 C683 1.429 . S
C689 C690 1.523 . S
C690 C671 1.368 . S
C690 C684 1.368 . S
C690 C689 1.523 . S
C691 C675 1.429 . S
C691 C687 1.429 . S
C691 C692 1.523 . S
C692 C676 1.368 . S
C692 C688 1.368 . S
C692 C691 1.523 . S
H693 C668 0.950 . S
H694 C670 0.950 . S
H695 C671 0.949 . S
H696 C673 0.950 . S
H697 C675 0.950 . S
C698 C699 1.349 . S
C698 C700 1.327 . S
C698 H723 0.950 . S
C699 C698 1.349 . S
C699 C715 1.349 . S
C700 C698 1.327 . S
C700 C719 1.429 . S
C700 H724 0.950 . S
C701 C718 1.574 . S
C701 C720 1.368 . S
C701 H725 0.949 . S
H702 C706 0.949 . S
C703 C704 1.349 . S
C703 C705 1.327 . S
C703 H726 0.950 . S
C704 C703 1.349 . S
C704 C716 1.349 . S
C705 C703 1.327 . S
C705 C721 1.429 . S
C705 H727 0.950 . S
C706 H702 0.949 . S
C706 C714 1.574 . S
C706 C722 1.368 . S
H707 C715 0.950 . S
H708 C713 0.950 . S
H709 C714 0.949 . S
H710 C716 0.950 . S
H711 C717 0.950 . S
H712 C718 0.949 . S
C713 H708 0.950 . S
C713 C715 1.327 . S
C713 C719 1.429 . S
C714 C706 1.574 . S
C714 H709 0.949 . S
C714 C720 1.368 . S
C715 C699 1.349 . S
C715 H707 0.950 . S
C715 C713 1.327 . S
C716 C704 1.349 . S
C716 H710 0.950 . S
C716 C717 1.327 . S
C717 H711 0.950 . S
C717 C716 1.327 . S
C717 C721 1.429 . S
C718 C701 1.574 . S
C718 H712 0.949 . S
C718 C722 1.368 . S
C719 C700 1.429 . S
C719 C713 1.429 . S
C719 C720 1.523 . S
C720 C701 1.368 . S
C720 C714 1.368 . S
C720 C719 1.523 . S
C721 C705 1.429 . S
C721 C717 1.429 . S
C721 C722 1.523 . S
C722 C706 1.368 . S
C722 C718 1.368 . S
C722 C721 1.523 . S
H723 C698 0.950 . S
H724 C700 0.950 . S
H725 C701 0.949 . S
H726 C703 0.950 . S
H727 C705 0.950 . S
C728 C729 1.349 . S
C728 C730 1.327 . S
C728 H753 0.950 . S
C729 C728 1.349 . S
C729 C745 1.349 . S
C730 C728 1.327 . S
C730 C749 1.429 . S
C730 H754 0.950 . S
C731 C748 1.574 . S
C731 C750 1.368 . S
C731 H755 0.949 . S
H732 C736 0.949 . S
C733 C734 1.349 . S
C733 C735 1.327 . S
C733 H756 0.950 . S
C734 C733 1.349 . S
C734 C746 1.349 . S
C735 C733 1.327 . S
C735 C751 1.429 . S
C735 H757 0.950 . S
C736 H732 0.949 . S
C736 C744 1.574 . S
C736 C752 1.368 . S
H737 C745 0.950 . S
H738 C743 0.950 . S
H739 C744 0.949 . S
H740 C746 0.950 . S
H741 C747 0.950 . S
H742 C748 0.949 . S
C743 H738 0.950 . S
C743 C745 1.327 . S
C743 C749 1.429 . S
C744 C736 1.574 . S
C744 H739 0.949 . S
C744 C750 1.368 . S
C745 C729 1.349 . S
C745 H737 0.950 . S
C745 C743 1.327 . S
C746 C734 1.349 . S
C746 H740 0.950 . S
C746 C747 1.327 . S
C747 H741 0.950 . S
C747 C746 1.327 . S
C747 C751 1.429 . S
C748 C731 1.574 . S
C748 H742 0.949 . S
C748 C752 1.368 . S
C749 C730 1.429 . S
C749 C743 1.429 . S
C749 C750 1.523 . S
C750 C731 1.368 . S
C750 C744 1.368 . S
C750 C749 1.523 . S
C751 C735 1.429 . S
C751 C747 1.429 . S
C751 C752 1.523 . S
C752 C736 1.368 . S
C752 C748 1.368 . S
C752 C751 1.523 . S
H753 C728 0.950 . S
H754 C730 0.950 . S
H755 C731 0.949 . S
H756 C733 0.950 . S
H757 C735 0.950 . S
C758 C759 1.349 . S
C758 C760 1.327 . S
C758 H783 0.950 . S
C759 C758 1.349 . S
C759 C775 1.349 . S
C760 C758 1.327 . S
C760 C779 1.429 . S
C760 H784 0.950 . S
C761 C778 1.574 . S
C761 C780 1.368 . S
C761 H785 0.949 . S
H762 C766 0.949 . S
C763 C764 1.349 . S
C763 C765 1.327 . S
C763 H786 0.950 . S
C764 C763 1.349 . S
C764 C776 1.349 . S
C765 C763 1.327 . S
C765 C781 1.429 . S
C765 H787 0.950 . S
C766 H762 0.949 . S
C766 C774 1.574 . S
C766 C782 1.368 . S
H767 C775 0.950 . S
H768 C773 0.950 . S
H769 C774 0.949 . S
H770 C776 0.950 . S
H771 C777 0.950 . S
H772 C778 0.949 . S
C773 H768 0.950 . S
C773 C775 1.327 . S
C773 C779 1.429 . S
C774 C766 1.574 . S
C774 H769 0.949 . S
C774 C780 1.368 . S
C775 C759 1.349 . S
C775 H767 0.950 . S
C775 C773 1.327 . S
C776 C764 1.349 . S
C776 H770 0.950 . S
C776 C777 1.327 . S
C777 H771 0.950 . S
C777 C776 1.327 . S
C777 C781 1.429 . S
C778 C761 1.574 . S
C778 H772 0.949 . S
C778 C782 1.368 . S
C779 C760 1.429 . S
C779 C773 1.429 . S
C779 C780 1.523 . S
C780 C761 1.368 . S
C780 C774 1.368 . S
C780 C779 1.523 . S
C781 C765 1.429 . S
C781 C777 1.429 . S
C781 C782 1.523 . S
C782 C766 1.368 . S
C782 C778 1.368 . S
C782 C781 1.523 . S
H783 C758 0.950 . S
H784 C760 0.950 . S
H785 C761 0.949 . S
H786 C763 0.950 . S
H787 C765 0.950 . S
C788 C789 1.349 . S
C788 C790 1.327 . S
C788 H813 0.950 . S
C789 C788 1.349 . S
C789 C805 1.349 . S
C790 C788 1.327 . S
C790 C809 1.429 . S
C790 H814 0.950 . S
C791 C808 1.574 . S
C791 C810 1.368 . S
C791 H815 0.949 . S
H792 C796 0.949 . S
C793 C794 1.349 . S
C793 C795 1.327 . S
C793 H816 0.950 . S
C794 C793 1.349 . S
C794 C806 1.349 . S
C795 C793 1.327 . S
C795 C811 1.429 . S
C795 H817 0.950 . S
C796 H792 0.949 . S
C796 C804 1.574 . S
C796 C812 1.368 . S
H797 C805 0.950 . S
H798 C803 0.950 . S
H799 C804 0.949 . S
H800 C806 0.950 . S
H801 C807 0.950 . S
H802 C808 0.949 . S
C803 H798 0.950 . S
C803 C805 1.327 . S
C803 C809 1.429 . S
C804 C796 1.574 . S
C804 H799 0.949 . S
C804 C810 1.368 . S
C805 C789 1.349 . S
C805 H797 0.950 . S
C805 C803 1.327 . S
C806 C794 1.349 . S
C806 H800 0.950 . S
C806 C807 1.327 . S
C807 H801 0.950 . S
C807 C806 1.327 . S
C807 C811 1.429 . S
C808 C791 1.574 . S
C808 H802 0.949 . S
C808 C812 1.368 . S
C809 C790 1.429 . S
C809 C803 1.429 . S
C809 C810 1.523 . S
C810 C791 1.368 . S
C810 C804 1.368 . S
C810 C809 1.523 . S
C811 C795 1.429 . S
C811 C807 1.429 . S
C811 C812 1.523 . S
C812 C796 1.368 . S
C812 C808 1.368 . S
C812 C811 1.523 . S
H813 C788 0.950 . S
H814 C790 0.950 . S
H815 C791 0.949 . S
H816 C793 0.950 . S
H817 C795 0.950 . S
C818 C819 1.349 . S
C818 C820 1.327 . S
C818 H843 0.950 . S
C819 C818 1.349 . S
C819 C835 1.349 . S
C820 C818 1.327 . S
C820 C839 1.429 . S
C820 H844 0.950 . S
C821 C838 1.574 . S
C821 C840 1.368 . S
C821 H845 0.949 . S
H822 C826 0.949 . S
C823 C824 1.349 . S
C823 C825 1.327 . S
C823 H846 0.950 . S
C824 C823 1.349 . S
C824 C836 1.349 . S
C825 C823 1.327 . S
C825 C841 1.429 . S
C825 H847 0.950 . S
C826 H822 0.949 . S
C826 C834 1.574 . S
C826 C842 1.368 . S
H827 C835 0.950 . S
H828 C833 0.950 . S
H829 C834 0.949 . S
H830 C836 0.950 . S
H831 C837 0.950 . S
H832 C838 0.949 . S
C833 H828 0.950 . S
C833 C835 1.327 . S
C833 C839 1.429 . S
C834 C826 1.574 . S
C834 H829 0.949 . S
C834 C840 1.368 . S
C835 C819 1.349 . S
C835 H827 0.950 . S
C835 C833 1.327 . S
C836 C824 1.349 . S
C836 H830 0.950 . S
C836 C837 1.327 . S
C837 H831 0.950 . S
C837 C836 1.327 . S
C837 C841 1.429 . S
C838 C821 1.574 . S
C838 H832 0.949 . S
C838 C842 1.368 . S
C839 C820 1.429 . S
C839 C833 1.429 . S
C839 C840 1.523 . S
C840 C821 1.368 . S
C840 C834 1.368 . S
C840 C839 1.523 . S
C841 C825 1.429 . S
C841 C837 1.429 . S
C841 C842 1.523 . S
C842 C826 1.368 . S
C842 C838 1.368 . S
C842 C841 1.523 . S
H843 C818 0.950 . S
H844 C820 0.950 . S
H845 C821 0.949 . S
H846 C823 0.950 . S
H847 C825 0.950 . S
C848 C849 1.349 . S
C848 C850 1.327 . S
C848 H873 0.950 . S
C849 C848 1.349 . S
C849 C865 1.349 . S
C850 C848 1.327 . S
C850 C869 1.429 . S
C850 H874 0.950 . S
C851 C868 1.574 . S
C851 C870 1.368 . S
C851 H875 0.949 . S
H852 C856 0.949 . S
C853 C854 1.349 . S
C853 C855 1.327 . S
C853 H876 0.950 . S
C854 C853 1.349 . S
C854 C866 1.349 . S
C855 C853 1.327 . S
C855 C871 1.429 . S
C855 H877 0.950 . S
C856 H852 0.949 . S
C856 C864 1.574 . S
C856 C872 1.368 . S
H857 C865 0.950 . S
H858 C863 0.950 . S
H859 C864 0.949 . S
H860 C866 0.950 . S
H861 C867 0.950 . S
H862 C868 0.949 . S
C863 H858 0.950 . S
C863 C865 1.327 . S
C863 C869 1.429 . S
C864 C856 1.574 . S
C864 H859 0.949 . S
C864 C870 1.368 . S
C865 C849 1.349 . S
C865 H857 0.950 . S
C865 C863 1.327 . S
C866 C854 1.349 . S
C866 H860 0.950 . S
C866 C867 1.327 . S
C867 H861 0.950 . S
C867 C866 1.327 . S
C867 C871 1.429 . S
C868 C851 1.574 . S
C868 H862 0.949 . S
C868 C872 1.368 . S
C869 C850 1.429 . S
C869 C863 1.429 . S
C869 C870 1.523 . S
C870 C851 1.368 . S
C870 C864 1.368 . S
C870 C869 1.523 . S
C871 C855 1.429 . S
C871 C867 1.429 . S
C871 C872 1.523 . S
C872 C856 1.368 . S
C872 C868 1.368 . S
C872 C871 1.523 . S
H873 C848 0.950 . S
H874 C850 0.950 . S
H875 C851 0.949 . S
H876 C853 0.950 . S
H877 C855 0.950 . S
C878 C879 1.349 . S
C878 C880 1.327 . S
C878 H903 0.950 . S
C879 C878 1.349 . S
C879 C895 1.349 . S
C880 C878 1.327 . S
C880 C899 1.430 . S
C880 H904 0.950 1_545 S
C881 C898 1.574 . S
C881 C900 1.368 . S
C881 H905 0.949 . S
H882 C886 0.949 . S
C883 C884 1.349 . S
C883 C885 1.327 . S
C883 H906 0.950 . S
C884 C883 1.349 . S
C884 C896 1.349 . S
C885 C883 1.327 . S
C885 C901 1.429 . S
C885 H907 0.950 . S
C886 H882 0.949 . S
C886 C894 1.574 . S
C886 C902 1.368 . S
H887 C895 0.950 . S
H888 C893 0.950 . S
H889 C894 0.949 . S
H890 C896 0.950 . S
H891 C897 0.950 . S
H892 C898 0.949 . S
C893 H888 0.950 . S
C893 C895 1.327 . S
C893 C899 1.432 . S
C894 C886 1.574 . S
C894 H889 0.949 . S
C894 C900 1.368 . S
C895 C879 1.349 . S
C895 H887 0.950 . S
C895 C893 1.327 . S
C896 C884 1.349 . S
C896 H890 0.950 . S
C896 C897 1.327 . S
C897 H891 0.950 . S
C897 C896 1.327 . S
C897 C901 1.429 . S
C898 C881 1.574 . S
C898 H892 0.949 . S
C898 C902 1.368 . S
C899 C880 1.430 . S
C899 C893 1.432 . S
C899 C900 1.518 1_545 S
C900 C881 1.368 . S
C900 C894 1.368 . S
C900 C899 1.518 1_565 S
C901 C885 1.429 . S
C901 C897 1.429 . S
C901 C902 1.523 . S
C902 C886 1.368 . S
C902 C898 1.368 . S
C902 C901 1.523 . S
H903 C878 0.950 . S
H904 C880 0.950 1_565 S
H905 C881 0.949 . S
H906 C883 0.950 . S
H907 C885 0.950 . S
C908 C909 1.349 . S
C908 C910 1.327 . S
C908 H933 0.950 . S
C909 C908 1.349 . S
C909 C925 1.349 1_556 S
C910 C908 1.327 . S
C910 C929 1.429 . S
C910 H934 0.950 . S
C911 C928 1.574 . S
C911 C930 1.368 . S
C911 H935 0.949 . S
H912 C916 0.949 . S
C913 C914 1.349 . S
C913 C915 1.327 . S
C913 H936 0.950 . S
C914 C913 1.349 . S
C914 C926 1.349 . S
C915 C913 1.327 . S
C915 C931 1.429 . S
C915 H937 0.950 . S
C916 H912 0.949 . S
C916 C924 1.574 . S
C916 C932 1.368 . S
H917 C925 0.950 . S
H918 C923 0.950 1_554 S
H919 C924 0.949 . S
H920 C926 0.950 . S
H921 C927 0.950 . S
H922 C928 0.949 . S
C923 H918 0.950 1_556 S
C923 C925 1.327 1_556 S
C923 C929 1.429 . S
C924 C916 1.574 . S
C924 H919 0.949 . S
C924 C930 1.368 . S
C925 C909 1.349 1_554 S
C925 H917 0.950 . S
C925 C923 1.327 1_554 S
C926 C914 1.349 . S
C926 H920 0.950 . S
C926 C927 1.327 . S
C927 H921 0.950 . S
C927 C926 1.327 . S
C927 C931 1.429 . S
C928 C911 1.574 . S
C928 H922 0.949 . S
C928 C932 1.368 . S
C929 C910 1.429 . S
C929 C923 1.429 . S
C929 C930 1.523 . S
C930 C911 1.368 . S
C930 C924 1.368 . S
C930 C929 1.523 . S
C931 C915 1.429 . S
C931 C927 1.429 . S
C931 C932 1.523 . S
C932 C916 1.368 . S
C932 C928 1.368 . S
C932 C931 1.523 . S
H933 C908 0.950 . S
H934 C910 0.950 . S
H935 C911 0.949 . S
H936 C913 0.950 . S
H937 C915 0.950 . S
C938 C939 1.349 . S
C938 C940 1.327 . S
C938 H963 0.950 . S
C939 C938 1.349 . S
C939 C955 1.349 . S
C940 C938 1.327 . S
C940 C959 1.433 . S
C940 H964 0.950 . S
C941 C958 1.574 . S
C941 C960 1.368 . S
C941 H965 0.949 . S
H942 C946 0.949 . S
C943 C944 1.349 . S
C943 C945 1.327 . S
C943 H966 0.950 . S
C944 C943 1.349 . S
C944 C956 1.349 . S
C945 C943 1.327 . S
C945 C961 1.429 . S
C945 H967 0.950 . S
C946 H942 0.949 . S
C946 C954 1.574 . S
C946 C962 1.368 . S
H947 C955 0.950 . S
H948 C953 0.950 1_545 S
H949 C954 0.949 . S
H950 C956 0.950 . S
H951 C957 0.950 . S
H952 C958 0.949 . S
C953 H948 0.950 1_565 S
C953 C955 1.327 . S
C953 C959 1.429 . S
C954 C946 1.574 . S
C954 H949 0.949 . S
C954 C960 1.368 . S
C955 C939 1.349 . S
C955 H947 0.950 . S
C955 C953 1.327 . S
C956 C944 1.349 . S
C956 H950 0.950 . S
C956 C957 1.327 . S
C957 H951 0.950 . S
C957 C956 1.327 . S
C957 C961 1.429 . S
C958 C941 1.574 . S
C958 H952 0.949 . S
C958 C962 1.368 . S
C959 C940 1.433 . S
C959 C953 1.429 . S
C959 C960 1.518 1_565 S
C960 C941 1.368 . S
C960 C954 1.368 . S
C960 C959 1.518 1_545 S
C961 C945 1.429 . S
C961 C957 1.429 . S
C961 C962 1.523 . S
C962 C946 1.368 . S
C962 C958 1.368 . S
C962 C961 1.523 . S
H963 C938 0.950 . S
H964 C940 0.950 . S
H965 C941 0.949 . S
H966 C943 0.950 . S
H967 C945 0.950 . S
C968 C969 1.349 . S
C968 C970 1.327 . S
C968 H993 0.950 . S
C969 C968 1.349 . S
C969 C985 1.349 . S
C970 C968 1.327 . S
C970 C989 1.429 . S
C970 H994 0.950 . S
C971 C988 1.574 . S
C971 C990 1.368 . S
C971 H995 0.949 . S
H972 C976 0.949 . S
C973 C974 1.349 . S
C973 C975 1.327 . S
C973 H996 0.950 . S
C974 C973 1.349 . S
C974 C986 1.349 . S
C975 C973 1.327 . S
C975 C991 1.429 . S
C975 H997 0.950 . S
C976 H972 0.949 . S
C976 C984 1.574 . S
C976 C992 1.368 . S
H977 C985 0.950 . S
H978 C983 0.950 . S
H979 C984 0.949 . S
H980 C986 0.950 . S
H981 C987 0.950 . S
H982 C988 0.949 . S
C983 H978 0.950 . S
C983 C985 1.327 . S
C983 C989 1.429 . S
C984 C976 1.574 . S
C984 H979 0.949 . S
C984 C990 1.368 . S
C985 C969 1.349 . S
C985 H977 0.950 . S
C985 C983 1.327 . S
C986 C974 1.349 . S
C986 H980 0.950 . S
C986 C987 1.327 . S
C987 H981 0.950 . S
C987 C986 1.327 . S
C987 C991 1.429 . S
C988 C971 1.574 . S
C988 H982 0.949 . S
C988 C992 1.368 . S
C989 C970 1.429 . S
C989 C983 1.429 . S
C989 C990 1.523 . S
C990 C971 1.368 . S
C990 C984 1.368 . S
C990 C989 1.523 . S
C991 C975 1.429 . S
C991 C987 1.429 . S
C991 C992 1.523 . S
C992 C976 1.368 . S
C992 C988 1.368 . S
C992 C991 1.523 . S
H993 C968 0.950 . S
H994 C970 0.950 . S
H995 C971 0.949 . S
H996 C973 0.950 . S
H997 C975 0.950 . S
C998 C999 1.349 . S
C998 C1000 1.327 . S
C998 H1023 0.950 . S
C999 C998 1.349 . S
C999 C1015 1.349 . S
C1000 C998 1.327 . S
C1000 C1019 1.429 . S
C1000 H1024 0.950 . S
C1001 C1018 1.574 . S
C1001 C1020 1.368 . S
C1001 H1025 0.949 . S
H1002 C1006 0.949 . S
C1003 C1004 1.349 . S
C1003 C1005 1.327 . S
C1003 H1026 0.950 . S
C1004 C1003 1.349 . S
C1004 C1016 1.349 . S
C1005 C1003 1.327 . S
C1005 C1021 1.434 . S
C1005 H1027 0.950 . S
C1006 H1002 0.949 . S
C1006 C1014 1.574 . S
C1006 C1022 1.368 . S
H1007 C1015 0.950 . S
H1008 C1013 0.950 . S
H1009 C1014 0.949 . S
H1010 C1016 0.950 . S
H1011 C1017 0.941 1_545 S
H1012 C1018 0.949 . S
C1013 H1008 0.950 . S
C1013 C1015 1.327 . S
C1013 C1019 1.429 . S
C1014 C1006 1.574 . S
C1014 H1009 0.949 . S
C1014 C1020 1.368 . S
C1015 C999 1.349 . S
C1015 H1007 0.950 . S
C1015 C1013 1.327 . S
C1016 C1004 1.349 . S
C1016 H1010 0.950 . S
C1016 C1017 1.336 . S
C1017 H1011 0.941 1_565 S
C1017 C1016 1.336 . S
C1017 C1021 1.429 . S
C1018 C1001 1.574 . S
C1018 H1012 0.949 . S
C1018 C1022 1.368 . S
C1019 C1000 1.429 . S
C1019 C1013 1.429 . S
C1019 C1020 1.523 . S
C1020 C1001 1.368 . S
C1020 C1014 1.368 . S
C1020 C1019 1.523 . S
C1021 C1005 1.434 . S
C1021 C1017 1.429 . S
C1021 C1022 1.518 1_565 S
C1022 C1006 1.368 . S
C1022 C1018 1.368 . S
C1022 C1021 1.518 1_545 S
H1023 C998 0.950 . S
H1024 C1000 0.950 . S
H1025 C1001 0.949 . S
H1026 C1003 0.950 . S
H1027 C1005 0.950 . S
C1028 C1029 1.349 . S
C1028 C1030 1.327 . S
C1028 H1053 0.950 . S
C1029 C1028 1.349 . S
C1029 C1045 1.349 . S
C1030 C1028 1.327 . S
C1030 C1049 1.429 . S
C1030 H1054 0.950 . S
C1031 C1048 1.574 . S
C1031 C1050 1.368 . S
C1031 H1055 0.949 . S
H1032 C1036 0.949 . S
C1033 C1034 1.349 . S
C1033 C1035 1.327 . S
C1033 H1056 0.950 . S
C1034 C1033 1.349 . S
C1034 C1046 1.349 1_554 S
C1035 C1033 1.327 . S
C1035 C1051 1.429 . S
C1035 H1057 0.950 . S
C1036 H1032 0.949 . S
C1036 C1044 1.574 . S
C1036 C1052 1.368 . S
H1037 C1045 0.950 . S
H1038 C1043 0.950 . S
H1039 C1044 0.949 . S
H1040 C1046 0.950 . S
H1041 C1047 0.939 1_556 S
H1042 C1048 0.949 . S
C1043 H1038 0.950 . S
C1043 C1045 1.327 . S
C1043 C1049 1.429 . S
C1044 C1036 1.574 . S
C1044 H1039 0.949 . S
C1044 C1050 1.368 . S
C1045 C1029 1.349 . S
C1045 H1037 0.950 . S
C1045 C1043 1.327 . S
C1046 C1034 1.349 1_556 S
C1046 H1040 0.950 . S
C1046 C1047 1.327 1_556 S
C1047 H1041 0.939 1_554 S
C1047 C1046 1.327 1_554 S
C1047 C1051 1.429 . S
C1048 C1031 1.574 . S
C1048 H1042 0.949 . S
C1048 C1052 1.368 . S
C1049 C1030 1.429 . S
C1049 C1043 1.429 . S
C1049 C1050 1.523 . S
C1050 C1031 1.368 . S
C1050 C1044 1.368 . S
C1050 C1049 1.523 . S
C1051 C1035 1.429 . S
C1051 C1047 1.429 . S
C1051 C1052 1.523 . S
C1052 C1036 1.368 . S
C1052 C1048 1.368 . S
C1052 C1051 1.523 . S
H1053 C1028 0.950 . S
H1054 C1030 0.950 . S
H1055 C1031 0.949 . S
H1056 C1033 0.950 . S
H1057 C1035 0.950 . S
C1058 C1059 1.349 . S
C1058 C1060 1.327 . S
C1058 H1083 0.950 . S
C1059 C1058 1.349 . S
C1059 C1075 1.349 . S
C1060 C1058 1.327 . S
C1060 C1079 1.432 . S
C1060 H1084 0.950 . S
C1061 C1078 1.574 . S
C1061 C1080 1.368 . S
C1061 H1085 0.949 . S
H1062 C1066 0.949 . S
C1063 C1064 1.349 . S
C1063 C1065 1.327 . S
C1063 H1086 0.950 . S
C1064 C1063 1.349 . S
C1064 C1076 1.349 . S
C1065 C1063 1.327 . S
C1065 C1081 1.429 . S
C1065 H1087 0.950 . S
C1066 H1062 0.949 . S
C1066 C1074 1.574 . S
C1066 C1082 1.368 . S
H1067 C1075 0.950 . S
H1068 C1073 0.950 1_565 S
H1069 C1074 0.949 . S
H1070 C1076 0.950 . S
H1071 C1077 0.950 . S
H1072 C1078 0.949 . S
C1073 H1068 0.950 1_545 S
C1073 C1075 1.327 . S
C1073 C1079 1.430 . S
C1074 C1066 1.574 . S
C1074 H1069 0.949 . S
C1074 C1080 1.368 . S
C1075 C1059 1.349 . S
C1075 H1067 0.950 . S
C1075 C1073 1.327 . S
C1076 C1064 1.349 . S
C1076 H1070 0.950 . S
C1076 C1077 1.327 . S
C1077 H1071 0.950 . S
C1077 C1076 1.327 . S
C1077 C1081 1.429 . S
C1078 C1061 1.574 . S
C1078 H1072 0.949 . S
C1078 C1082 1.368 . S
C1079 C1060 1.432 . S
C1079 C1073 1.430 . S
C1079 C1080 1.518 1_545 S
C1080 C1061 1.368 . S
C1080 C1074 1.368 . S
C1080 C1079 1.518 1_565 S
C1081 C1065 1.429 . S
C1081 C1077 1.429 . S
C1081 C1082 1.523 . S
C1082 C1066 1.368 . S
C1082 C1078 1.368 . S
C1082 C1081 1.523 . S
H1083 C1058 0.950 . S
H1084 C1060 0.950 . S
H1085 C1061 0.949 . S
H1086 C1063 0.950 . S
H1087 C1065 0.950 . S
C1088 C1089 1.349 . S
C1088 C1090 1.327 . S
C1088 H1113 0.950 . S
C1089 C1088 1.349 . S
C1089 C1105 1.349 . S
C1090 C1088 1.327 . S
C1090 C1109 1.429 . S
C1090 H1114 0.950 . S
C1091 C1108 1.574 . S
C1091 C1110 1.368 . S
C1091 H1115 0.949 . S
H1092 C1096 0.949 . S
C1093 C1094 1.349 . S
C1093 C1095 1.327 . S
C1093 H1116 0.950 . S
C1094 C1093 1.349 . S
C1094 C1106 1.349 . S
C1095 C1093 1.327 . S
C1095 C1111 1.429 . S
C1095 H1117 0.950 . S
C1096 H1092 0.949 . S
C1096 C1104 1.574 . S
C1096 C1112 1.368 . S
H1097 C1105 0.950 . S
H1098 C1103 0.950 . S
H1099 C1104 0.949 . S
H1100 C1106 0.950 . S
H1101 C1107 0.950 . S
H1102 C1108 0.949 . S
C1103 H1098 0.950 . S
C1103 C1105 1.327 . S
C1103 C1109 1.429 . S
C1104 C1096 1.574 . S
C1104 H1099 0.949 . S
C1104 C1110 1.368 . S
C1105 C1089 1.349 . S
C1105 H1097 0.950 . S
C1105 C1103 1.327 . S
C1106 C1094 1.349 . S
C1106 H1100 0.950 . S
C1106 C1107 1.327 . S
C1107 H1101 0.950 . S
C1107 C1106 1.327 . S
C1107 C1111 1.429 . S
C1108 C1091 1.574 . S
C1108 H1102 0.949 . S
C1108 C1112 1.368 . S
C1109 C1090 1.429 . S
C1109 C1103 1.429 . S
C1109 C1110 1.523 . S
C1110 C1091 1.368 . S
C1110 C1104 1.368 . S
C1110 C1109 1.523 . S
C1111 C1095 1.429 . S
C1111 C1107 1.429 . S
C1111 C1112 1.523 . S
C1112 C1096 1.368 . S
C1112 C1108 1.368 . S
C1112 C1111 1.523 . S
H1113 C1088 0.950 . S
H1114 C1090 0.950 . S
H1115 C1091 0.949 . S
H1116 C1093 0.950 . S
H1117 C1095 0.950 . S
C1118 C1119 1.349 . S
C1118 C1120 1.327 . S
C1118 H1143 0.950 . S
C1119 C1118 1.349 . S
C1119 C1135 1.349 . S
C1120 C1118 1.327 . S
C1120 C1139 1.429 . S
C1120 H1144 0.950 . S
C1121 C1138 1.574 . S
C1121 C1140 1.368 . S
C1121 H1145 0.949 . S
H1122 C1126 0.949 . S
C1123 C1124 1.349 . S
C1123 C1125 1.327 . S
C1123 H1146 0.950 1_554 S
C1124 C1123 1.349 . S
C1124 C1136 1.349 . S
C1125 C1123 1.327 . S
C1125 C1141 1.429 . S
C1125 H1147 0.950 . S
C1126 H1122 0.949 . S
C1126 C1134 1.574 . S
C1126 C1142 1.368 . S
H1127 C1135 0.950 . S
H1128 C1133 0.950 . S
H1129 C1134 0.949 . S
H1130 C1136 0.950 . S
H1131 C1137 0.950 . S
H1132 C1138 0.949 . S
C1133 H1128 0.950 . S
C1133 C1135 1.327 . S
C1133 C1139 1.429 . S
C1134 C1126 1.574 . S
C1134 H1129 0.949 . S
C1134 C1140 1.368 . S
C1135 C1119 1.349 . S
C1135 H1127 0.950 . S
C1135 C1133 1.327 . S
C1136 C1124 1.349 . S
C1136 H1130 0.950 . S
C1136 C1137 1.327 . S
C1137 H1131 0.950 . S
C1137 C1136 1.327 . S
C1137 C1141 1.429 . S
C1138 C1121 1.574 . S
C1138 H1132 0.949 . S
C1138 C1142 1.368 . S
C1139 C1120 1.429 . S
C1139 C1133 1.429 . S
C1139 C1140 1.523 . S
C1140 C1121 1.368 . S
C1140 C1134 1.368 . S
C1140 C1139 1.523 . S
C1141 C1125 1.429 . S
C1141 C1137 1.429 . S
C1141 C1142 1.523 . S
C1142 C1126 1.368 . S
C1142 C1138 1.368 . S
C1142 C1141 1.523 . S
H1143 C1118 0.950 . S
H1144 C1120 0.950 . S
H1145 C1121 0.949 . S
H1146 C1123 0.950 1_556 S
H1147 C1125 0.950 . S
C1148 C1149 1.349 . S
C1148 C1150 1.361 . S
C1148 H1173 0.950 . S
C1149 C1148 1.349 . S
C1149 C1165 1.337 1_655 S
C1150 C1148 1.361 . S
C1150 C1169 1.393 1_655 S
C1150 H1174 0.953 . S
C1151 C1168 1.574 . S
C1151 C1170 1.368 . S
C1151 H1175 0.949 . S
H1152 C1156 0.949 . S
C1153 C1154 1.349 . S
C1153 C1155 1.327 . S
C1153 H1176 0.950 . S
C1154 C1153 1.349 . S
C1154 C1166 1.349 . S
C1155 C1153 1.327 . S
C1155 C1171 1.429 . S
C1155 H1177 0.950 . S
C1156 H1152 0.949 . S
C1156 C1164 1.574 . S
C1156 C1172 1.368 . S
H1157 C1165 0.950 . S
H1158 C1163 0.950 . S
H1159 C1164 0.949 . S
H1160 C1166 0.950 . S
H1161 C1167 0.950 . S
H1162 C1168 0.949 . S
C1163 H1158 0.950 . S
C1163 C1165 1.339 . S
C1163 C1169 1.429 . S
C1164 C1156 1.574 . S
C1164 H1159 0.949 . S
C1164 C1170 1.368 . S
C1165 C1149 1.337 1_455 S
C1165 H1157 0.950 . S
C1165 C1163 1.339 . S
C1166 C1154 1.349 . S
C1166 H1160 0.950 . S
C1166 C1167 1.327 . S
C1167 H1161 0.950 . S
C1167 C1166 1.327 . S
C1167 C1171 1.429 . S
C1168 C1151 1.574 . S
C1168 H1162 0.949 . S
C1168 C1172 1.368 . S
C1169 C1150 1.393 1_455 S
C1169 C1163 1.429 . S
C1169 C1170 1.523 . S
C1170 C1151 1.368 . S
C1170 C1164 1.368 . S
C1170 C1169 1.523 . S
C1171 C1155 1.429 . S
C1171 C1167 1.429 . S
C1171 C1172 1.523 . S
C1172 C1156 1.368 . S
C1172 C1168 1.368 . S
C1172 C1171 1.523 . S
H1173 C1148 0.950 . S
H1174 C1150 0.953 . S
H1175 C1151 0.949 . S
H1176 C1153 0.950 . S
H1177 C1155 0.950 . S
C1178 C1179 1.349 . S
C1178 C1180 1.327 . S
C1178 H1203 0.950 . S
C1179 C1178 1.349 . S
C1179 C1195 1.349 . S
C1180 C1178 1.327 . S
C1180 C1199 1.429 . S
C1180 H1204 0.950 . S
C1181 C1198 1.574 . S
C1181 C1200 1.368 . S
C1181 H1205 0.949 . S
H1182 C1186 0.949 . S
C1183 C1184 1.349 . S
C1183 C1185 1.327 . S
C1183 H1206 0.950 . S
C1184 C1183 1.349 . S
C1184 C1196 1.349 . S
C1185 C1183 1.327 . S
C1185 C1201 1.429 . S
C1185 H1207 0.950 . S
C1186 H1182 0.949 . S
C1186 C1194 1.574 . S
C1186 C1202 1.368 . S
H1187 C1195 0.950 . S
H1188 C1193 0.950 . S
H1189 C1194 0.949 . S
H1190 C1196 0.950 . S
H1191 C1197 0.950 . S
H1192 C1198 0.949 . S
C1193 H1188 0.950 . S
C1193 C1195 1.327 . S
C1193 C1199 1.429 . S
C1194 C1186 1.574 . S
C1194 H1189 0.949 . S
C1194 C1200 1.368 . S
C1195 C1179 1.349 . S
C1195 H1187 0.950 . S
C1195 C1193 1.327 . S
C1196 C1184 1.349 . S
C1196 H1190 0.950 . S
C1196 C1197 1.327 . S
C1197 H1191 0.950 . S
C1197 C1196 1.327 . S
C1197 C1201 1.429 . S
C1198 C1181 1.574 . S
C1198 H1192 0.949 . S
C1198 C1202 1.368 . S
C1199 C1180 1.429 . S
C1199 C1193 1.429 . S
C1199 C1200 1.523 . S
C1200 C1181 1.368 . S
C1200 C1194 1.368 . S
C1200 C1199 1.523 . S
C1201 C1185 1.429 . S
C1201 C1197 1.429 . S
C1201 C1202 1.523 . S
C1202 C1186 1.368 . S
C1202 C1198 1.368 . S
C1202 C1201 1.523 . S
H1203 C1178 0.950 . S
H1204 C1180 0.950 . S
H1205 C1181 0.949 . S
H1206 C1183 0.950 . S
H1207 C1185 0.950 . S
C1208 C1209 1.349 . S
C1208 C1210 1.327 . S
C1208 H1233 0.950 1_554 S
C1209 C1208 1.349 . S
C1209 C1225 1.349 . S
C1210 C1208 1.327 . S
C1210 C1229 1.429 . S
C1210 H1234 0.950 . S
C1211 C1228 1.574 . S
C1211 C1230 1.368 . S
C1211 H1235 0.949 . S
H1212 C1216 0.949 . S
C1213 C1214 1.349 . S
C1213 C1215 1.327 . S
C1213 H1236 0.950 . S
C1214 C1213 1.349 . S
C1214 C1226 1.349 . S
C1215 C1213 1.327 . S
C1215 C1231 1.429 . S
C1215 H1237 0.950 . S
C1216 H1212 0.949 . S
C1216 C1224 1.574 . S
C1216 C1232 1.368 . S
H1217 C1225 0.950 . S
H1218 C1223 0.950 . S
H1219 C1224 0.949 . S
H1220 C1226 0.950 . S
H1221 C1227 0.950 . S
H1222 C1228 0.949 . S
C1223 H1218 0.950 . S
C1223 C1225 1.327 . S
C1223 C1229 1.429 . S
C1224 C1216 1.574 . S
C1224 H1219 0.949 . S
C1224 C1230 1.368 . S
C1225 C1209 1.349 . S
C1225 H1217 0.950 . S
C1225 C1223 1.327 . S
C1226 C1214 1.349 . S
C1226 H1220 0.950 . S
C1226 C1227 1.327 . S
C1227 H1221 0.950 . S
C1227 C1226 1.327 . S
C1227 C1231 1.429 . S
C1228 C1211 1.574 . S
C1228 H1222 0.949 . S
C1228 C1232 1.368 . S
C1229 C1210 1.429 . S
C1229 C1223 1.429 . S
C1229 C1230 1.523 . S
C1230 C1211 1.368 . S
C1230 C1224 1.368 . S
C1230 C1229 1.523 . S
C1231 C1215 1.429 . S
C1231 C1227 1.429 . S
C1231 C1232 1.523 . S
C1232 C1216 1.368 . S
C1232 C1228 1.368 . S
C1232 C1231 1.523 . S
H1233 C1208 0.950 1_556 S
H1234 C1210 0.950 . S
H1235 C1211 0.949 . S
H1236 C1213 0.950 . S
H1237 C1215 0.950 . S
C1238 C1239 1.349 . S
C1238 C1240 1.327 . S
C1238 H1263 0.950 . S
C1239 C1238 1.349 . S
C1239 C1255 1.349 . S
C1240 C1238 1.327 . S
C1240 C1259 1.429 . S
C1240 H1264 0.950 . S
C1241 C1258 1.574 . S
C1241 C1260 1.368 . S
C1241 H1265 0.949 . S
H1242 C1246 0.949 . S
C1243 C1244 1.349 . S
C1243 C1245 1.327 . S
C1243 H1266 0.950 . S
C1244 C1243 1.349 . S
C1244 C1256 1.349 . S
C1245 C1243 1.327 . S
C1245 C1261 1.429 . S
C1245 H1267 0.950 . S
C1246 H1242 0.949 . S
C1246 C1254 1.574 . S
C1246 C1262 1.368 . S
H1247 C1255 0.950 . S
H1248 C1253 0.950 . S
H1249 C1254 0.949 . S
H1250 C1256 0.964 . S
H1251 C1257 0.950 . S
H1252 C1258 0.949 . S
C1253 H1248 0.950 . S
C1253 C1255 1.327 . S
C1253 C1259 1.429 . S
C1254 C1246 1.574 . S
C1254 H1249 0.949 . S
C1254 C1260 1.368 . S
C1255 C1239 1.349 . S
C1255 H1247 0.950 . S
C1255 C1253 1.327 . S
C1256 C1244 1.349 . S
C1256 H1250 0.964 . S
C1256 C1257 1.327 . S
C1257 H1251 0.950 . S
C1257 C1256 1.327 . S
C1257 C1261 1.429 . S
C1258 C1241 1.574 . S
C1258 H1252 0.949 . S
C1258 C1262 1.368 . S
C1259 C1240 1.429 . S
C1259 C1253 1.429 . S
C1259 C1260 1.523 . S
C1260 C1241 1.368 . S
C1260 C1254 1.368 . S
C1260 C1259 1.523 . S
C1261 C1245 1.429 . S
C1261 C1257 1.429 . S
C1261 C1262 1.523 . S
C1262 C1246 1.368 . S
C1262 C1258 1.368 . S
C1262 C1261 1.523 . S
H1263 C1238 0.950 . S
H1264 C1240 0.950 . S
H1265 C1241 0.949 . S
H1266 C1243 0.950 . S
H1267 C1245 0.950 . S
C1268 C1269 1.349 . S
C1268 C1270 1.327 1_455 S
C1268 H1293 0.950 . S
C1269 C1268 1.349 . S
C1269 C1285 1.349 . S
C1270 C1268 1.327 1_655 S
C1270 C1289 1.429 . S
C1270 H1294 0.950 . S
C1271 C1288 1.574 . S
C1271 C1290 1.368 . S
C1271 H1295 0.949 . S
H1272 C1276 0.949 . S
C1273 C1274 1.349 . S
C1273 C1275 1.327 . S
C1273 H1296 0.950 . S
C1274 C1273 1.349 . S
C1274 C1286 1.349 . S
C1275 C1273 1.327 . S
C1275 C1291 1.429 . S
C1275 H1297 0.950 . S
C1276 H1272 0.949 . S
C1276 C1284 1.574 . S
C1276 C1292 1.368 . S
H1277 C1285 0.950 . S
H1278 C1283 0.950 . S
H1279 C1284 0.949 . S
H1280 C1286 0.950 . S
H1281 C1287 0.950 . S
H1282 C1288 0.949 . S
C1283 H1278 0.950 . S
C1283 C1285 1.327 1_655 S
C1283 C1289 1.429 . S
C1284 C1276 1.574 . S
C1284 H1279 0.949 . S
C1284 C1290 1.368 . S
C1285 C1269 1.349 . S
C1285 H1277 0.950 . S
C1285 C1283 1.327 1_455 S
C1286 C1274 1.349 . S
C1286 H1280 0.950 . S
C1286 C1287 1.327 . S
C1287 H1281 0.950 . S
C1287 C1286 1.327 . S
C1287 C1291 1.429 . S
C1288 C1271 1.574 . S
C1288 H1282 0.949 . S
C1288 C1292 1.368 . S
C1289 C1270 1.429 . S
C1289 C1283 1.429 . S
C1289 C1290 1.523 . S
C1290 C1271 1.368 . S
C1290 C1284 1.368 . S
C1290 C1289 1.523 . S
C1291 C1275 1.429 . S
C1291 C1287 1.429 . S
C1291 C1292 1.523 . S
C1292 C1276 1.368 . S
C1292 C1288 1.368 . S
C1292 C1291 1.523 . S
H1293 C1268 0.950 . S
H1294 C1270 0.950 . S
H1295 C1271 0.949 . S
H1296 C1273 0.950 . S
H1297 C1275 0.950 . S
C1298 C1299 1.349 . S
C1298 C1300 1.327 . S
C1298 H1323 0.950 . S
C1299 C1298 1.349 . S
C1299 C1315 1.349 . S
C1300 C1298 1.327 . S
C1300 C1319 1.429 . S
C1300 H1324 0.950 . S
C1301 C1318 1.574 . S
C1301 C1320 1.368 . S
C1301 H1325 0.949 . S
H1302 C1306 0.949 . S
C1303 C1304 1.349 . S
C1303 C1305 1.327 . S
C1303 H1326 0.950 . S
C1304 C1303 1.349 . S
C1304 C1316 1.349 . S
C1305 C1303 1.327 . S
C1305 C1321 1.429 . S
C1305 H1327 0.950 . S
C1306 H1302 0.949 . S
C1306 C1314 1.574 . S
C1306 C1322 1.368 . S
H1307 C1315 0.950 . S
H1308 C1313 0.950 . S
H1309 C1314 0.949 . S
H1310 C1316 0.950 . S
H1311 C1317 0.950 . S
H1312 C1318 0.949 . S
C1313 H1308 0.950 . S
C1313 C1315 1.327 . S
C1313 C1319 1.429 . S
C1314 C1306 1.574 . S
C1314 H1309 0.949 . S
C1314 C1320 1.368 . S
C1315 C1299 1.349 . S
C1315 H1307 0.950 . S
C1315 C1313 1.327 . S
C1316 C1304 1.349 . S
C1316 H1310 0.950 . S
C1316 C1317 1.327 . S
C1317 H1311 0.950 . S
C1317 C1316 1.327 . S
C1317 C1321 1.429 . S
C1318 C1301 1.574 . S
C1318 H1312 0.949 . S
C1318 C1322 1.368 . S
C1319 C1300 1.429 . S
C1319 C1313 1.429 . S
C1319 C1320 1.523 . S
C1320 C1301 1.368 . S
C1320 C1314 1.368 . S
C1320 C1319 1.523 . S
C1321 C1305 1.429 . S
C1321 C1317 1.429 . S
C1321 C1322 1.523 . S
C1322 C1306 1.368 . S
C1322 C1318 1.368 . S
C1322 C1321 1.523 . S
H1323 C1298 0.950 . S
H1324 C1300 0.950 . S
H1325 C1301 0.949 . S
H1326 C1303 0.950 . S
H1327 C1305 0.950 . S
C1328 C1329 1.349 . S
C1328 C1330 1.327 . S
C1328 H1353 0.950 . S
C1329 C1328 1.349 . S
C1329 C1345 1.349 . S
C1330 C1328 1.327 . S
C1330 C1349 1.429 . S
C1330 H1354 0.950 . S
C1331 C1348 1.574 . S
C1331 C1350 1.368 . S
C1331 H1355 0.949 . S
H1332 C1336 0.949 . S
C1333 C1334 1.357 . S
C1333 C1335 1.319 1_455 S
C1333 H1356 0.950 . S
C1334 C1333 1.357 . S
C1334 C1346 1.349 . S
C1335 C1333 1.319 1_655 S
C1335 C1351 1.429 . S
C1335 H1357 0.950 . S
C1336 H1332 0.949 . S
C1336 C1344 1.574 . S
C1336 C1352 1.368 . S
H1337 C1345 0.950 . S
H1338 C1343 0.950 . S
H1339 C1344 0.949 . S
H1340 C1346 0.950 . S
H1341 C1347 0.949 . S
H1342 C1348 0.949 . S
C1343 H1338 0.950 . S
C1343 C1345 1.327 . S
C1343 C1349 1.429 . S
C1344 C1336 1.574 . S
C1344 H1339 0.949 . S
C1344 C1350 1.368 . S
C1345 C1329 1.349 . S
C1345 H1337 0.950 . S
C1345 C1343 1.327 . S
C1346 C1334 1.349 . S
C1346 H1340 0.950 . S
C1346 C1347 1.333 . S
C1347 H1341 0.949 . S
C1347 C1346 1.333 . S
C1347 C1351 1.423 1_455 S
C1348 C1331 1.574 . S
C1348 H1342 0.949 . S
C1348 C1352 1.368 . S
C1349 C1330 1.429 . S
C1349 C1343 1.429 . S
C1349 C1350 1.523 . S
C1350 C1331 1.368 . S
C1350 C1344 1.368 . S
C1350 C1349 1.523 . S
C1351 C1335 1.429 . S
C1351 C1347 1.423 1_655 S
C1351 C1352 1.523 . S
C1352 C1336 1.368 . S
C1352 C1348 1.368 . S
C1352 C1351 1.523 . S
H1353 C1328 0.950 . S
H1354 C1330 0.950 . S
H1355 C1331 0.949 . S
H1356 C1333 0.950 . S
H1357 C1335 0.950 . S
C1358 C1359 1.349 . S
C1358 C1360 1.327 . S
C1358 H1383 0.950 . S
C1359 C1358 1.349 . S
C1359 C1375 1.349 . S
C1360 C1358 1.327 . S
C1360 C1379 1.429 . S
C1360 H1384 0.950 . S
C1361 C1378 1.574 . S
C1361 C1380 1.368 . S
C1361 H1385 0.949 . S
H1362 C1366 0.949 . S
C1363 C1364 1.349 . S
C1363 C1365 1.327 . S
C1363 H1386 0.950 . S
C1364 C1363 1.349 . S
C1364 C1376 1.349 . S
C1365 C1363 1.327 . S
C1365 C1381 1.429 . S
C1365 H1387 0.950 . S
C1366 H1362 0.949 . S
C1366 C1374 1.574 . S
C1366 C1382 1.368 . S
H1367 C1375 0.950 . S
H1368 C1373 0.950 . S
H1369 C1374 0.949 . S
H1370 C1376 0.950 . S
H1371 C1377 0.950 . S
H1372 C1378 0.949 . S
C1373 H1368 0.950 . S
C1373 C1375 1.327 . S
C1373 C1379 1.429 . S
C1374 C1366 1.574 . S
C1374 H1369 0.949 . S
C1374 C1380 1.368 . S
C1375 C1359 1.349 . S
C1375 H1367 0.950 . S
C1375 C1373 1.327 . S
C1376 C1364 1.349 . S
C1376 H1370 0.950 . S
C1376 C1377 1.327 . S
C1377 H1371 0.950 . S
C1377 C1376 1.327 . S
C1377 C1381 1.429 . S
C1378 C1361 1.574 . S
C1378 H1372 0.949 . S
C1378 C1382 1.368 . S
C1379 C1360 1.429 . S
C1379 C1373 1.429 . S
C1379 C1380 1.523 . S
C1380 C1361 1.368 . S
C1380 C1374 1.368 . S
C1380 C1379 1.523 . S
C1381 C1365 1.429 . S
C1381 C1377 1.429 . S
C1381 C1382 1.523 . S
C1382 C1366 1.368 . S
C1382 C1378 1.368 . S
C1382 C1381 1.523 . S
H1383 C1358 0.950 . S
H1384 C1360 0.950 . S
H1385 C1361 0.949 . S
H1386 C1363 0.950 . S
H1387 C1365 0.950 . S
C1388 C1389 1.349 . S
C1388 C1390 1.327 . S
C1388 H1413 0.950 . S
C1389 C1388 1.349 . S
C1389 C1405 1.349 . S
C1390 C1388 1.327 . S
C1390 C1409 1.429 . S
C1390 H1414 0.950 . S
C1391 C1408 1.574 . S
C1391 C1410 1.368 . S
C1391 H1415 0.949 . S
H1392 C1396 0.949 . S
C1393 C1394 1.349 . S
C1393 C1395 1.327 . S
C1393 H1416 0.950 1_556 S
C1394 C1393 1.349 . S
C1394 C1406 1.349 . S
C1395 C1393 1.327 . S
C1395 C1411 1.429 . S
C1395 H1417 0.950 . S
C1396 H1392 0.949 . S
C1396 C1404 1.574 . S
C1396 C1412 1.368 . S
H1397 C1405 0.950 . S
H1398 C1403 0.950 . S
H1399 C1404 0.949 . S
H1400 C1406 0.950 . S
H1401 C1407 0.950 . S
H1402 C1408 0.949 . S
C1403 H1398 0.950 . S
C1403 C1405 1.327 . S
C1403 C1409 1.429 . S
C1404 C1396 1.574 . S
C1404 H1399 0.949 . S
C1404 C1410 1.368 . S
C1405 C1389 1.349 . S
C1405 H1397 0.950 . S
C1405 C1403 1.327 . S
C1406 C1394 1.349 . S
C1406 H1400 0.950 . S
C1406 C1407 1.327 . S
C1407 H1401 0.950 . S
C1407 C1406 1.327 . S
C1407 C1411 1.429 . S
C1408 C1391 1.574 . S
C1408 H1402 0.949 . S
C1408 C1412 1.368 . S
C1409 C1390 1.429 . S
C1409 C1403 1.429 . S
C1409 C1410 1.523 . S
C1410 C1391 1.368 . S
C1410 C1404 1.368 . S
C1410 C1409 1.523 . S
C1411 C1395 1.429 . S
C1411 C1407 1.429 . S
C1411 C1412 1.523 . S
C1412 C1396 1.368 . S
C1412 C1408 1.368 . S
C1412 C1411 1.523 . S
H1413 C1388 0.950 . S
H1414 C1390 0.950 . S
H1415 C1391 0.949 . S
H1416 C1393 0.950 1_554 S
H1417 C1395 0.950 . S
C1418 C1419 1.349 . S
C1418 C1420 1.327 . S
C1418 H1443 0.950 . S
C1419 C1418 1.349 . S
C1419 C1435 1.349 . S
C1420 C1418 1.327 . S
C1420 C1439 1.429 . S
C1420 H1444 0.950 . S
C1421 C1438 1.574 . S
C1421 C1440 1.368 . S
C1421 H1445 0.949 . S
H1422 C1426 0.949 . S
C1423 C1424 1.349 . S
C1423 C1425 1.327 . S
C1423 H1446 0.950 . S
C1424 C1423 1.349 . S
C1424 C1436 1.349 . S
C1425 C1423 1.327 . S
C1425 C1441 1.429 . S
C1425 H1447 0.950 . S
C1426 H1422 0.949 . S
C1426 C1434 1.574 . S
C1426 C1442 1.368 . S
H1427 C1435 0.950 . S
H1428 C1433 0.950 . S
H1429 C1434 0.949 . S
H1430 C1436 0.950 . S
H1431 C1437 0.950 . S
H1432 C1438 0.949 . S
C1433 H1428 0.950 . S
C1433 C1435 1.327 . S
C1433 C1439 1.429 . S
C1434 C1426 1.574 . S
C1434 H1429 0.949 . S
C1434 C1440 1.368 . S
C1435 C1419 1.349 . S
C1435 H1427 0.950 . S
C1435 C1433 1.327 . S
C1436 C1424 1.349 . S
C1436 H1430 0.950 . S
C1436 C1437 1.327 . S
C1437 H1431 0.950 . S
C1437 C1436 1.327 . S
C1437 C1441 1.429 . S
C1438 C1421 1.574 . S
C1438 H1432 0.949 . S
C1438 C1442 1.368 . S
C1439 C1420 1.429 . S
C1439 C1433 1.429 . S
C1439 C1440 1.523 . S
C1440 C1421 1.368 . S
C1440 C1434 1.368 . S
C1440 C1439 1.523 . S
C1441 C1425 1.429 . S
C1441 C1437 1.429 . S
C1441 C1442 1.523 . S
C1442 C1426 1.368 . S
C1442 C1438 1.368 . S
C1442 C1441 1.523 . S
H1443 C1418 0.950 . S
H1444 C1420 0.950 . S
H1445 C1421 0.949 . S
H1446 C1423 0.950 . S
H1447 C1425 0.950 . S
C1448 C1449 1.349 . S
C1448 C1450 1.327 . S
C1448 H1473 0.950 . S
C1449 C1448 1.349 . S
C1449 C1465 1.349 . S
C1450 C1448 1.327 . S
C1450 C1469 1.429 . S
C1450 H1474 0.950 . S
C1451 C1468 1.574 . S
C1451 C1470 1.368 . S
C1451 H1475 0.949 . S
H1452 C1456 0.949 . S
C1453 C1454 1.349 1_455 S
C1453 C1455 1.327 . S
C1453 H1476 0.950 . S
C1454 C1453 1.349 1_655 S
C1454 C1466 1.349 . S
C1455 C1453 1.327 . S
C1455 C1471 1.429 . S
C1455 H1477 0.950 . S
C1456 H1452 0.949 . S
C1456 C1464 1.574 . S
C1456 C1472 1.368 . S
H1457 C1465 0.950 . S
H1458 C1463 0.950 . S
H1459 C1464 0.949 . S
H1460 C1466 0.950 . S
H1461 C1467 0.950 . S
H1462 C1468 0.949 . S
C1463 H1458 0.950 . S
C1463 C1465 1.327 . S
C1463 C1469 1.429 . S
C1464 C1456 1.574 . S
C1464 H1459 0.949 . S
C1464 C1470 1.368 . S
C1465 C1449 1.349 . S
C1465 H1457 0.950 . S
C1465 C1463 1.327 . S
C1466 C1454 1.349 . S
C1466 H1460 0.950 . S
C1466 C1467 1.327 . S
C1467 H1461 0.950 . S
C1467 C1466 1.327 . S
C1467 C1471 1.429 1_655 S
C1468 C1451 1.574 . S
C1468 H1462 0.949 . S
C1468 C1472 1.368 . S
C1469 C1450 1.429 . S
C1469 C1463 1.429 . S
C1469 C1470 1.523 . S
C1470 C1451 1.368 . S
C1470 C1464 1.368 . S
C1470 C1469 1.523 . S
C1471 C1455 1.429 . S
C1471 C1467 1.429 1_455 S
C1471 C1472 1.523 . S
C1472 C1456 1.368 . S
C1472 C1468 1.368 . S
C1472 C1471 1.523 . S
H1473 C1448 0.950 . S
H1474 C1450 0.950 . S
H1475 C1451 0.949 . S
H1476 C1453 0.950 . S
H1477 C1455 0.950 . S
C1478 C1479 1.349 . S
C1478 C1480 1.327 . S
C1478 H1503 0.950 . S
C1479 C1478 1.349 . S
C1479 C1495 1.349 . S
C1480 C1478 1.327 . S
C1480 C1499 1.429 . S
C1480 H1504 0.950 . S
C1481 C1498 1.574 . S
C1481 C1500 1.368 . S
C1481 H1505 0.949 . S
H1482 C1486 0.949 . S
C1483 C1484 1.349 . S
C1483 C1485 1.327 . S
C1483 H1506 0.950 . S
C1484 C1483 1.349 . S
C1484 C1496 1.349 . S
C1485 C1483 1.327 . S
C1485 C1501 1.429 . S
C1485 H1507 0.950 . S
C1486 H1482 0.949 . S
C1486 C1494 1.574 . S
C1486 C1502 1.368 . S
H1487 C1495 0.950 . S
H1488 C1493 0.950 . S
H1489 C1494 0.949 . S
H1490 C1496 0.950 . S
H1491 C1497 0.950 . S
H1492 C1498 0.949 . S
C1493 H1488 0.950 . S
C1493 C1495 1.327 . S
C1493 C1499 1.429 . S
C1494 C1486 1.574 . S
C1494 H1489 0.949 . S
C1494 C1500 1.368 . S
C1495 C1479 1.349 . S
C1495 H1487 0.950 . S
C1495 C1493 1.327 . S
C1496 C1484 1.349 . S
C1496 H1490 0.950 . S
C1496 C1497 1.327 . S
C1497 H1491 0.950 . S
C1497 C1496 1.327 . S
C1497 C1501 1.429 . S
C1498 C1481 1.574 . S
C1498 H1492 0.949 . S
C1498 C1502 1.368 . S
C1499 C1480 1.429 . S
C1499 C1493 1.429 . S
C1499 C1500 1.523 . S
C1500 C1481 1.368 . S
C1500 C1494 1.368 . S
C1500 C1499 1.523 . S
C1501 C1485 1.429 . S
C1501 C1497 1.429 . S
C1501 C1502 1.523 . S
C1502 C1486 1.368 . S
C1502 C1498 1.368 . S
C1502 C1501 1.523 . S
H1503 C1478 0.950 . S
H1504 C1480 0.950 . S
H1505 C1481 0.949 . S
H1506 C1483 0.950 . S
H1507 C1485 0.950 . S
C1508 C1509 1.349 . S
C1508 C1510 1.327 . S
C1508 H1533 0.950 . S
C1509 C1508 1.349 . S
C1509 C1525 1.349 . S
C1510 C1508 1.327 . S
C1510 C1529 1.429 . S
C1510 H1534 0.950 . S
C1511 C1528 1.574 . S
C1511 C1530 1.368 . S
C1511 H1535 0.949 . S
H1512 C1516 0.949 . S
C1513 C1514 1.349 . S
C1513 C1515 1.327 . S
C1513 H1536 0.950 . S
C1514 C1513 1.349 . S
C1514 C1526 1.349 . S
C1515 C1513 1.327 . S
C1515 C1531 1.429 . S
C1515 H1537 0.950 . S
C1516 H1512 0.949 . S
C1516 C1524 1.574 . S
C1516 C1532 1.368 . S
H1517 C1525 0.950 1_556 S
H1518 C1523 0.950 . S
H1519 C1524 0.949 . S
H1520 C1526 0.950 . S
H1521 C1527 0.950 . S
H1522 C1528 0.949 . S
C1523 H1518 0.950 . S
C1523 C1525 1.327 . S
C1523 C1529 1.429 . S
C1524 C1516 1.574 . S
C1524 H1519 0.949 . S
C1524 C1530 1.368 . S
C1525 C1509 1.349 . S
C1525 H1517 0.950 1_554 S
C1525 C1523 1.327 . S
C1526 C1514 1.349 . S
C1526 H1520 0.950 . S
C1526 C1527 1.327 . S
C1527 H1521 0.950 . S
C1527 C1526 1.327 . S
C1527 C1531 1.429 . S
C1528 C1511 1.574 . S
C1528 H1522 0.949 . S
C1528 C1532 1.368 . S
C1529 C1510 1.429 . S
C1529 C1523 1.429 . S
C1529 C1530 1.523 . S
C1530 C1511 1.368 . S
C1530 C1524 1.368 . S
C1530 C1529 1.523 . S
C1531 C1515 1.429 . S
C1531 C1527 1.429 . S
C1531 C1532 1.523 . S
C1532 C1516 1.368 . S
C1532 C1528 1.368 . S
C1532 C1531 1.523 . S
H1533 C1508 0.950 . S
H1534 C1510 0.950 . S
H1535 C1511 0.949 . S
H1536 C1513 0.950 . S
H1537 C1515 0.950 . S
C1538 C1539 1.349 . S
C1538 C1540 1.327 . S
C1538 H1563 0.950 . S
C1539 C1538 1.349 . S
C1539 C1555 1.349 . S
C1540 C1538 1.327 . S
C1540 C1559 1.429 . S
C1540 H1564 0.950 . S
C1541 C1558 1.574 . S
C1541 C1560 1.368 . S
C1541 H1565 0.949 . S
H1542 C1546 0.949 . S
C1543 C1544 1.349 . S
C1543 C1545 1.327 . S
C1543 H1566 0.950 . S
C1544 C1543 1.349 . S
C1544 C1556 1.349 . S
C1545 C1543 1.327 . S
C1545 C1561 1.429 . S
C1545 H1567 0.950 . S
C1546 H1542 0.949 . S
C1546 C1554 1.574 . S
C1546 C1562 1.368 . S
H1547 C1555 0.950 1_554 S
H1548 C1553 0.950 . S
H1549 C1554 0.949 . S
H1550 C1556 0.950 . S
H1551 C1557 0.950 . S
H1552 C1558 0.949 . S
C1553 H1548 0.950 . S
C1553 C1555 1.327 . S
C1553 C1559 1.429 . S
C1554 C1546 1.574 . S
C1554 H1549 0.949 . S
C1554 C1560 1.368 . S
C1555 C1539 1.349 . S
C1555 H1547 0.950 1_556 S
C1555 C1553 1.327 . S
C1556 C1544 1.349 . S
C1556 H1550 0.950 . S
C1556 C1557 1.327 . S
C1557 H1551 0.950 . S
C1557 C1556 1.327 . S
C1557 C1561 1.429 . S
C1558 C1541 1.574 . S
C1558 H1552 0.949 . S
C1558 C1562 1.368 . S
C1559 C1540 1.429 . S
C1559 C1553 1.429 . S
C1559 C1560 1.523 . S
C1560 C1541 1.368 . S
C1560 C1554 1.368 . S
C1560 C1559 1.523 . S
C1561 C1545 1.429 . S
C1561 C1557 1.429 . S
C1561 C1562 1.523 . S
C1562 C1546 1.368 . S
C1562 C1558 1.368 . S
C1562 C1561 1.523 . S
H1563 C1538 0.950 . S
H1564 C1540 0.950 . S
H1565 C1541 0.949 . S
H1566 C1543 0.950 . S
H1567 C1545 0.950 . S
C1568 C1569 1.349 . S
C1568 C1570 1.327 . S
C1568 H1593 0.950 . S
C1569 C1568 1.349 . S
C1569 C1585 1.349 . S
C1570 C1568 1.327 . S
C1570 C1589 1.429 . S
C1570 H1594 0.950 . S
C1571 C1588 1.574 . S
C1571 C1590 1.368 . S
C1571 H1595 0.949 . S
H1572 C1576 0.949 . S
C1573 C1574 1.349 . S
C1573 C1575 1.327 . S
C1573 H1596 0.950 . S
C1574 C1573 1.349 . S
C1574 C1586 1.349 . S
C1575 C1573 1.327 . S
C1575 C1591 1.429 . S
C1575 H1597 0.950 . S
C1576 H1572 0.949 . S
C1576 C1584 1.574 . S
C1576 C1592 1.368 . S
H1577 C1585 0.950 . S
H1578 C1583 0.950 . S
H1579 C1584 0.949 . S
H1580 C1586 0.950 . S
H1581 C1587 0.950 . S
H1582 C1588 0.949 . S
C1583 H1578 0.950 . S
C1583 C1585 1.327 . S
C1583 C1589 1.429 . S
C1584 C1576 1.574 . S
C1584 H1579 0.949 . S
C1584 C1590 1.368 . S
C1585 C1569 1.349 . S
C1585 H1577 0.950 . S
C1585 C1583 1.327 . S
C1586 C1574 1.349 . S
C1586 H1580 0.950 . S
C1586 C1587 1.327 . S
C1587 H1581 0.950 . S
C1587 C1586 1.327 . S
C1587 C1591 1.429 . S
C1588 C1571 1.574 . S
C1588 H1582 0.949 . S
C1588 C1592 1.368 . S
C1589 C1570 1.429 . S
C1589 C1583 1.429 . S
C1589 C1590 1.523 . S
C1590 C1571 1.368 . S
C1590 C1584 1.368 . S
C1590 C1589 1.523 . S
C1591 C1575 1.429 . S
C1591 C1587 1.429 . S
C1591 C1592 1.523 . S
C1592 C1576 1.368 . S
C1592 C1588 1.368 . S
C1592 C1591 1.523 . S
H1593 C1568 0.950 . S
H1594 C1570 0.950 . S
H1595 C1571 0.949 . S
H1596 C1573 0.950 . S
H1597 C1575 0.950 . S
C1598 C1599 1.349 . S
C1598 C1600 1.327 . S
C1598 H1623 0.950 . S
C1599 C1598 1.349 . S
C1599 C1615 1.349 . S
C1600 C1598 1.327 . S
C1600 C1619 1.429 . S
C1600 H1624 0.950 . S
C1601 C1618 1.574 . S
C1601 C1620 1.368 . S
C1601 H1625 0.949 . S
H1602 C1606 0.949 . S
C1603 C1604 1.349 . S
C1603 C1605 1.327 . S
C1603 H1626 0.950 . S
C1604 C1603 1.349 . S
C1604 C1616 1.349 . S
C1605 C1603 1.327 . S
C1605 C1621 1.429 . S
C1605 H1627 0.950 . S
C1606 H1602 0.949 . S
C1606 C1614 1.574 . S
C1606 C1622 1.368 . S
H1607 C1615 0.950 . S
H1608 C1613 0.950 . S
H1609 C1614 0.949 . S
H1610 C1616 0.950 . S
H1611 C1617 0.950 . S
H1612 C1618 0.949 . S
C1613 H1608 0.950 . S
C1613 C1615 1.327 . S
C1613 C1619 1.429 . S
C1614 C1606 1.574 . S
C1614 H1609 0.949 . S
C1614 C1620 1.368 . S
C1615 C1599 1.349 . S
C1615 H1607 0.950 . S
C1615 C1613 1.327 . S
C1616 C1604 1.349 . S
C1616 H1610 0.950 . S
C1616 C1617 1.327 . S
C1617 H1611 0.950 . S
C1617 C1616 1.327 . S
C1617 C1621 1.429 . S
C1618 C1601 1.574 . S
C1618 H1612 0.949 . S
C1618 C1622 1.368 . S
C1619 C1600 1.429 . S
C1619 C1613 1.429 . S
C1619 C1620 1.523 . S
C1620 C1601 1.368 . S
C1620 C1614 1.368 . S
C1620 C1619 1.523 . S
C1621 C1605 1.429 . S
C1621 C1617 1.429 . S
C1621 C1622 1.523 . S
C1622 C1606 1.368 . S
C1622 C1618 1.368 . S
C1622 C1621 1.523 . S
H1623 C1598 0.950 . S
H1624 C1600 0.950 . S
H1625 C1601 0.949 . S
H1626 C1603 0.950 . S
H1627 C1605 0.950 . S
C1628 C1629 1.349 . S
C1628 C1630 1.327 . S
C1628 H1653 0.950 . S
C1629 C1628 1.349 . S
C1629 C1645 1.349 . S
C1630 C1628 1.327 . S
C1630 C1649 1.429 . S
C1630 H1654 0.950 . S
C1631 C1648 1.574 . S
C1631 C1650 1.368 . S
C1631 H1655 0.949 . S
H1632 C1636 0.949 . S
C1633 C1634 1.349 . S
C1633 C1635 1.327 . S
C1633 H1656 0.950 . S
C1634 C1633 1.349 . S
C1634 C1646 1.349 . S
C1635 C1633 1.327 . S
C1635 C1651 1.429 . S
C1635 H1657 0.950 . S
C1636 H1632 0.949 . S
C1636 C1644 1.574 . S
C1636 C1652 1.368 . S
H1637 C1645 0.950 . S
H1638 C1643 0.950 . S
H1639 C1644 0.949 . S
H1640 C1646 0.950 . S
H1641 C1647 0.950 . S
H1642 C1648 0.949 . S
C1643 H1638 0.950 . S
C1643 C1645 1.327 . S
C1643 C1649 1.429 . S
C1644 C1636 1.574 . S
C1644 H1639 0.949 . S
C1644 C1650 1.368 . S
C1645 C1629 1.349 . S
C1645 H1637 0.950 . S
C1645 C1643 1.327 . S
C1646 C1634 1.349 . S
C1646 H1640 0.950 . S
C1646 C1647 1.327 . S
C1647 H1641 0.950 . S
C1647 C1646 1.327 . S
C1647 C1651 1.429 . S
C1648 C1631 1.574 . S
C1648 H1642 0.949 . S
C1648 C1652 1.368 . S
C1649 C1630 1.429 . S
C1649 C1643 1.429 . S
C1649 C1650 1.523 . S
C1650 C1631 1.368 . S
C1650 C1644 1.368 . S
C1650 C1649 1.523 . S
C1651 C1635 1.429 . S
C1651 C1647 1.429 . S
C1651 C1652 1.523 . S
C1652 C1636 1.368 . S
C1652 C1648 1.368 . S
C1652 C1651 1.523 . S
H1653 C1628 0.950 . S
H1654 C1630 0.950 . S
H1655 C1631 0.949 . S
H1656 C1633 0.950 . S
H1657 C1635 0.950 . S
C1658 C1659 1.349 . S
C1658 C1660 1.327 . S
C1658 H1683 0.950 . S
C1659 C1658 1.349 . S
C1659 C1675 1.349 . S
C1660 C1658 1.327 . S
C1660 C1679 1.429 . S
C1660 H1684 0.991 . S
C1661 C1678 1.574 . S
C1661 C1680 1.368 1_556 S
C1661 H1685 0.949 . S
H1662 C1666 0.949 . S
C1663 C1664 1.349 . S
C1663 C1665 1.327 . S
C1663 H1686 0.950 . S
C1664 C1663 1.349 . S
C1664 C1676 1.349 . S
C1665 C1663 1.327 . S
C1665 C1681 1.429 . S
C1665 H1687 0.991 . S
C1666 H1662 0.949 . S
C1666 C1674 1.574 . S
C1666 C1682 1.368 1_554 S
H1667 C1675 0.950 . S
H1668 C1673 0.950 . S
H1669 C1674 0.949 . S
H1670 C1676 0.950 . S
H1671 C1677 0.950 . S
H1672 C1678 0.949 . S
C1673 H1668 0.950 . S
C1673 C1675 1.327 . S
C1673 C1679 1.429 . S
C1674 C1666 1.574 . S
C1674 H1669 0.949 . S
C1674 C1680 1.368 1_655 S
C1675 C1659 1.349 . S
C1675 H1667 0.950 . S
C1675 C1673 1.327 . S
C1676 C1664 1.349 . S
C1676 H1670 0.950 . S
C1676 C1677 1.327 . S
C1677 H1671 0.950 . S
C1677 C1676 1.327 . S
C1677 C1681 1.429 . S
C1678 C1661 1.574 . S
C1678 H1672 0.949 . S
C1678 C1682 1.368 1_455 S
C1679 C1660 1.429 . S
C1679 C1673 1.429 . S
C1679 C1680 1.523 . S
C1680 C1661 1.368 1_554 S
C1680 C1674 1.368 1_455 S
C1680 C1679 1.523 . S
C1681 C1665 1.429 . S
C1681 C1677 1.429 . S
C1681 C1682 1.523 . S
C1682 C1666 1.368 1_556 S
C1682 C1678 1.368 1_655 S
C1682 C1681 1.523 . S
H1683 C1658 0.950 . S
H1684 C1660 0.991 . S
H1685 C1661 0.949 . S
H1686 C1663 0.950 . S
H1687 C1665 0.991 . S
C1688 C1689 1.349 . S
C1688 C1690 1.327 . S
C1688 H1713 0.950 . S
C1689 C1688 1.349 . S
C1689 C1705 1.349 . S
C1690 C1688 1.327 . S
C1690 C1709 1.429 . S
C1690 H1714 0.950 . S
C1691 C1708 1.574 . S
C1691 C1710 1.368 . S
C1691 H1715 0.949 . S
H1692 C1696 0.949 . S
C1693 C1694 1.349 . S
C1693 C1695 1.327 . S
C1693 H1716 0.950 . S
C1694 C1693 1.349 . S
C1694 C1706 1.349 . S
C1695 C1693 1.327 . S
C1695 C1711 1.429 . S
C1695 H1717 0.950 . S
C1696 H1692 0.949 . S
C1696 C1704 1.574 . S
C1696 C1712 1.368 . S
H1697 C1705 0.950 . S
H1698 C1703 0.950 . S
H1699 C1704 0.949 . S
H1700 C1706 0.950 . S
H1701 C1707 0.950 . S
H1702 C1708 0.949 . S
C1703 H1698 0.950 . S
C1703 C1705 1.327 . S
C1703 C1709 1.429 . S
C1704 C1696 1.574 . S
C1704 H1699 0.949 . S
C1704 C1710 1.368 . S
C1705 C1689 1.349 . S
C1705 H1697 0.950 . S
C1705 C1703 1.327 . S
C1706 C1694 1.349 . S
C1706 H1700 0.950 . S
C1706 C1707 1.327 . S
C1707 H1701 0.950 . S
C1707 C1706 1.327 . S
C1707 C1711 1.429 . S
C1708 C1691 1.574 . S
C1708 H1702 0.949 . S
C1708 C1712 1.368 . S
C1709 C1690 1.429 . S
C1709 C1703 1.429 . S
C1709 C1710 1.523 . S
C1710 C1691 1.368 . S
C1710 C1704 1.368 . S
C1710 C1709 1.523 . S
C1711 C1695 1.429 . S
C1711 C1707 1.429 . S
C1711 C1712 1.523 . S
C1712 C1696 1.368 . S
C1712 C1708 1.368 . S
C1712 C1711 1.523 . S
H1713 C1688 0.950 . S
H1714 C1690 0.950 . S
H1715 C1691 0.949 . S
H1716 C1693 0.950 . S
H1717 C1695 0.950 . S
C1718 C1719 1.349 . S
C1718 C1720 1.327 . S
C1718 H1743 0.950 . S
C1719 C1718 1.349 . S
C1719 C1735 1.349 . S
C1720 C1718 1.327 . S
C1720 C1739 1.429 . S
C1720 H1744 0.950 . S
C1721 C1738 1.574 . S
C1721 C1740 1.368 . S
C1721 H1745 0.949 . S
H1722 C1726 0.949 . S
C1723 C1724 1.349 . S
C1723 C1725 1.327 . S
C1723 H1746 0.950 . S
C1724 C1723 1.349 . S
C1724 C1736 1.349 . S
C1725 C1723 1.327 . S
C1725 C1741 1.429 . S
C1725 H1747 0.950 . S
C1726 H1722 0.949 . S
C1726 C1734 1.574 . S
C1726 C1742 1.368 . S
H1727 C1735 0.950 . S
H1728 C1733 0.950 . S
H1729 C1734 0.949 . S
H1730 C1736 0.950 . S
H1731 C1737 0.950 . S
H1732 C1738 0.949 . S
C1733 H1728 0.950 . S
C1733 C1735 1.327 . S
C1733 C1739 1.429 . S
C1734 C1726 1.574 . S
C1734 H1729 0.949 . S
C1734 C1740 1.368 . S
C1735 C1719 1.349 . S
C1735 H1727 0.950 . S
C1735 C1733 1.327 . S
C1736 C1724 1.349 . S
C1736 H1730 0.950 . S
C1736 C1737 1.327 . S
C1737 H1731 0.950 . S
C1737 C1736 1.327 . S
C1737 C1741 1.429 . S
C1738 C1721 1.574 . S
C1738 H1732 0.949 . S
C1738 C1742 1.368 . S
C1739 C1720 1.429 . S
C1739 C1733 1.429 . S
C1739 C1740 1.523 . S
C1740 C1721 1.368 . S
C1740 C1734 1.368 . S
C1740 C1739 1.523 . S
C1741 C1725 1.429 . S
C1741 C1737 1.429 . S
C1741 C1742 1.523 . S
C1742 C1726 1.368 . S
C1742 C1738 1.368 . S
C1742 C1741 1.523 . S
H1743 C1718 0.950 . S
H1744 C1720 0.950 . S
H1745 C1721 0.949 . S
H1746 C1723 0.950 . S
H1747 C1725 0.950 . S
C1748 C1749 1.349 . S
C1748 C1750 1.327 . S
C1748 H1773 0.950 . S
C1749 C1748 1.349 . S
C1749 C1765 1.349 . S
C1750 C1748 1.327 . S
C1750 C1769 1.429 . S
C1750 H1774 0.950 . S
C1751 C1768 1.612 . S
C1751 C1770 1.330 1_654 S
C1751 H1775 0.949 . S
H1752 C1756 0.949 . S
C1753 C1754 1.349 . S
C1753 C1755 1.327 . S
C1753 H1776 0.950 . S
C1754 C1753 1.349 . S
C1754 C1766 1.349 . S
C1755 C1753 1.327 . S
C1755 C1771 1.429 . S
C1755 H1777 0.950 . S
C1756 H1752 0.949 . S
C1756 C1764 1.612 . S
C1756 C1772 1.330 1_456 S
H1757 C1765 0.950 . S
H1758 C1763 0.950 . S
H1759 C1764 0.949 . S
H1760 C1766 0.950 . S
H1761 C1767 0.950 . S
H1762 C1768 0.949 . S
C1763 H1758 0.950 . S
C1763 C1765 1.327 . S
C1763 C1769 1.429 . S
C1764 C1756 1.612 . S
C1764 H1759 0.949 . S
C1764 C1770 1.368 1_565 S
C1765 C1749 1.349 . S
C1765 H1757 0.950 . S
C1765 C1763 1.327 . S
C1766 C1754 1.349 . S
C1766 H1760 0.950 . S
C1766 C1767 1.327 . S
C1767 H1761 0.950 . S
C1767 C1766 1.327 . S
C1767 C1771 1.429 . S
C1768 C1751 1.612 . S
C1768 H1762 0.949 . S
C1768 C1772 1.368 1_545 S
C1769 C1750 1.429 . S
C1769 C1763 1.429 . S
C1769 C1770 1.523 . S
C1770 C1751 1.330 1_456 S
C1770 C1764 1.368 1_545 S
C1770 C1769 1.523 . S
C1771 C1755 1.429 . S
C1771 C1767 1.429 . S
C1771 C1772 1.523 . S
C1772 C1756 1.330 1_654 S
C1772 C1768 1.368 1_565 S
C1772 C1771 1.523 . S
H1773 C1748 0.950 . S
H1774 C1750 0.950 . S
H1775 C1751 0.949 . S
H1776 C1753 0.950 . S
H1777 C1755 0.950 . S
C1778 C1779 1.349 . S
C1778 C1780 1.327 . S
C1778 H1803 0.950 . S
C1779 C1778 1.349 . S
C1779 C1795 1.349 . S
C1780 C1778 1.327 . S
C1780 C1799 1.429 . S
C1780 H1804 0.950 . S
C1781 C1798 1.574 . S
C1781 C1800 1.368 . S
C1781 H1805 0.949 . S
H1782 C1786 0.949 . S
C1783 C1784 1.349 . S
C1783 C1785 1.327 . S
C1783 H1806 0.950 . S
C1784 C1783 1.349 . S
C1784 C1796 1.349 . S
C1785 C1783 1.327 . S
C1785 C1801 1.429 . S
C1785 H1807 0.950 . S
C1786 H1782 0.949 . S
C1786 C1794 1.574 . S
C1786 C1802 1.368 . S
H1787 C1795 0.950 . S
H1788 C1793 0.950 . S
H1789 C1794 0.949 . S
H1790 C1796 0.950 . S
H1791 C1797 0.950 . S
H1792 C1798 0.949 . S
C1793 H1788 0.950 . S
C1793 C1795 1.327 . S
C1793 C1799 1.429 . S
C1794 C1786 1.574 . S
C1794 H1789 0.949 . S
C1794 C1800 1.368 1_565 S
C1795 C1779 1.349 . S
C1795 H1787 0.950 . S
C1795 C1793 1.327 . S
C1796 C1784 1.349 . S
C1796 H1790 0.950 . S
C1796 C1797 1.327 . S
C1797 H1791 0.950 . S
C1797 C1796 1.327 . S
C1797 C1801 1.429 . S
C1798 C1781 1.574 . S
C1798 H1792 0.949 . S
C1798 C1802 1.368 1_545 S
C1799 C1780 1.429 . S
C1799 C1793 1.429 . S
C1799 C1800 1.523 . S
C1800 C1781 1.368 . S
C1800 C1794 1.368 1_545 S
C1800 C1799 1.523 . S
C1801 C1785 1.429 . S
C1801 C1797 1.429 . S
C1801 C1802 1.523 . S
C1802 C1786 1.368 . S
C1802 C1798 1.368 1_565 S
C1802 C1801 1.523 . S
H1803 C1778 0.950 . S
H1804 C1780 0.950 . S
H1805 C1781 0.949 . S
H1806 C1783 0.950 . S
H1807 C1785 0.950 . S
C369 C18 1.220 . S
C374 C248 1.220 . S
C399 C41 1.220 . S
C404 C271 1.220 . S
C429 C64 1.220 . S
C434 C202 1.220 . S
C459 C87 1.220 . S
C464 C225 1.220 . S
C489 C110 1.220 . S
C494 C340 1.220 . S
C519 C133 1.220 . S
C524 C363 1.220 . S
C549 C156 1.220 . S
C554 C294 1.220 . S
C579 C179 1.220 . S
C584 C317 1.220 . S
C609 C224 0.955 . S
C614 C21 0.950 . S
C639 C247 0.955 . S
C644 C44 0.950 . S
C669 C270 0.955 . S
C674 C67 0.950 . S
C699 C201 0.955 . S
C704 C90 0.950 . S
C729 C113 0.950 . S
C734 C316 0.955 . S
C759 C339 0.955 . S
C764 C136 0.950 . S
C789 C362 0.955 . S
C794 C159 0.950 . S
C819 C293 0.955 . S
C824 C182 0.950 . S
C849 C40 0.955 . S
C854 C205 0.950 . S
C879 C228 0.950 . S
C884 C63 0.955 . S
C909 C251 0.950 . S
C914 C86 0.955 . S
C939 C274 0.950 . S
C944 C17 0.955 . S
C969 C297 0.950 . S
C974 C132 0.955 . S
C999 C155 0.955 . S
C1004 C320 0.950 . S
C1029 C178 0.955 . S
C1034 C343 0.950 . S
C1059 C366 0.950 . S
C1064 C109 0.955 . S
C1089 C19 0.826 . S
C1094 C361 0.840 . S
C1119 C42 0.826 . S
C1124 C108 0.840 . S
C1149 C315 0.840 . S
C1154 C65 0.826 . S
C1179 C154 0.840 . S
C1184 C88 0.826 . S
C1209 C111 0.826 . S
C1214 C269 0.840 . S
C1239 C134 0.826 . S
C1244 C16 0.840 . S
C1269 C223 0.840 . S
C1274 C157 0.826 . S
C1299 C62 0.840 . S
C1304 C180 0.826 . S
C1329 C203 0.826 . S
C1334 C177 0.840 . S
C1359 C226 0.826 . S
C1364 C292 0.840 . S
C1389 C131 0.840 . S
C1394 C249 0.826 . S
C1419 C338 0.840 . S
C1424 C272 0.826 . S
C1449 C295 0.826 . S
C1454 C85 0.840 . S
C1479 C318 0.826 . S
C1484 C200 0.840 . S
C1509 C341 0.826 . S
C1514 C39 0.840 . S
C1539 C246 0.840 . S
C1544 C364 0.826 . S
C1569 C20 2.172 . S
C1574 C296 2.172 . S
C1599 C43 2.172 . S
C1604 C135 2.172 . S
C1629 C66 2.172 . S
C1634 C342 2.172 . S
C1659 C181 2.172 . S
C1664 C89 2.172 . S
C1689 C112 2.172 . S
C1694 C204 2.172 . S
C1719 C250 2.172 . S
C1724 C158 2.172 . S
C1749 C227 2.172 . S
C1754 C319 2.172 . S
C1779 C365 2.172 . S
C1784 C273 2.172 . S
