# Generated by pormake.
# Topology why, (6)-cn, num edge types: 1
# Building blocks:
#     Node 0, Type 0, BuildingBlock: HISSIN_clean_sbu_0, # of connection points: 6
#     Node 1, Type 0, BuildingBlock: HISSIN_clean_sbu_0, # of connection points: 6
#     Node 2, Type 0, BuildingBlock: HISSIN_clean_sbu_0, # of connection points: 6
#     Node 3, Type 0, BuildingBlock: HISSIN_clean_sbu_0, # of connection points: 6
#     Node 4, Type 0, BuildingBlock: HISSIN_clean_sbu_0, # of connection points: 6
#     Node 5, Type 0, BuildingBlock: HISSIN_clean_sbu_0, # of connection points: 6
#     Node 6, Type 0, BuildingBlock: HISSIN_clean_sbu_0, # of connection points: 6
#     Node 7, Type 0, BuildingBlock: HISSIN_clean_sbu_0, # of connection points: 6
#     Node 8, Type 0, BuildingBlock: HISSIN_clean_sbu_0, # of connection points: 6
#     Node 9, Type 0, BuildingBlock: HISSIN_clean_sbu_0, # of connection points: 6
#     Node 10, Type 0, BuildingBlock: HISSIN_clean_sbu_0, # of connection points: 6
#     Node 11, Type 0, BuildingBlock: HISSIN_clean_sbu_0, # of connection points: 6
#     Node 12, Type 0, BuildingBlock: HISSIN_clean_sbu_0, # of connection points: 6
#     Node 13, Type 0, BuildingBlock: HISSIN_clean_sbu_0, # of connection points: 6
#     Node 14, Type 0, BuildingBlock: HISSIN_clean_sbu_0, # of connection points: 6
#     Node 15, Type 0, BuildingBlock: HISSIN_clean_sbu_0, # of connection points: 6
#     Edge 16, Type (0, 0), BuildingBlock: CIFDUS_clean_linker_0, # of connection points: 2
#     Edge 17, Type (0, 0), BuildingBlock: CIFDUS_clean_linker_0, # of connection points: 2
#     Edge 18, Type (0, 0), BuildingBlock: CIFDUS_clean_linker_0, # of connection points: 2
#     Edge 19, Type (0, 0), BuildingBlock: CIFDUS_clean_linker_0, # of connection points: 2
#     Edge 20, Type (0, 0), BuildingBlock: CIFDUS_clean_linker_0, # of connection points: 2
#     Edge 21, Type (0, 0), BuildingBlock: CIFDUS_clean_linker_0, # of connection points: 2
#     Edge 22, Type (0, 0), BuildingBlock: CIFDUS_clean_linker_0, # of connection points: 2
#     Edge 23, Type (0, 0), BuildingBlock: CIFDUS_clean_linker_0, # of connection points: 2
#     Edge 24, Type (0, 0), BuildingBlock: CIFDUS_clean_linker_0, # of connection points: 2
#     Edge 25, Type (0, 0), BuildingBlock: CIFDUS_clean_linker_0, # of connection points: 2
#     Edge 26, Type (0, 0), BuildingBlock: CIFDUS_clean_linker_0, # of connection points: 2
#     Edge 27, Type (0, 0), BuildingBlock: CIFDUS_clean_linker_0, # of connection points: 2
#     Edge 28, Type (0, 0), BuildingBlock: CIFDUS_clean_linker_0, # of connection points: 2
#     Edge 29, Type (0, 0), BuildingBlock: CIFDUS_clean_linker_0, # of connection points: 2
#     Edge 30, Type (0, 0), BuildingBlock: CIFDUS_clean_linker_0, # of connection points: 2
#     Edge 31, Type (0, 0), BuildingBlock: CIFDUS_clean_linker_0, # of connection points: 2
#     Edge 32, Type (0, 0), BuildingBlock: CIFDUS_clean_linker_0, # of connection points: 2
#     Edge 33, Type (0, 0), BuildingBlock: CIFDUS_clean_linker_0, # of connection points: 2
#     Edge 34, Type (0, 0), BuildingBlock: CIFDUS_clean_linker_0, # of connection points: 2
#     Edge 35, Type (0, 0), BuildingBlock: CIFDUS_clean_linker_0, # of connection points: 2
#     Edge 36, Type (0, 0), BuildingBlock: CIFDUS_clean_linker_0, # of connection points: 2
#     Edge 37, Type (0, 0), BuildingBlock: CIFDUS_clean_linker_0, # of connection points: 2
#     Edge 38, Type (0, 0), BuildingBlock: CIFDUS_clean_linker_0, # of connection points: 2
#     Edge 39, Type (0, 0), BuildingBlock: CIFDUS_clean_linker_0, # of connection points: 2
#     Edge 40, Type (0, 0), BuildingBlock: CIFDUS_clean_linker_0, # of connection points: 2
#     Edge 41, Type (0, 0), BuildingBlock: CIFDUS_clean_linker_0, # of connection points: 2
#     Edge 42, Type (0, 0), BuildingBlock: CIFDUS_clean_linker_0, # of connection points: 2
#     Edge 43, Type (0, 0), BuildingBlock: CIFDUS_clean_linker_0, # of connection points: 2
#     Edge 44, Type (0, 0), BuildingBlock: CIFDUS_clean_linker_0, # of connection points: 2
#     Edge 45, Type (0, 0), BuildingBlock: CIFDUS_clean_linker_0, # of connection points: 2
#     Edge 46, Type (0, 0), BuildingBlock: CIFDUS_clean_linker_0, # of connection points: 2
#     Edge 47, Type (0, 0), BuildingBlock: CIFDUS_clean_linker_0, # of connection points: 2
#     Edge 48, Type (0, 0), BuildingBlock: CIFDUS_clean_linker_0, # of connection points: 2
#     Edge 49, Type (0, 0), BuildingBlock: CIFDUS_clean_linker_0, # of connection points: 2
#     Edge 50, Type (0, 0), BuildingBlock: CIFDUS_clean_linker_0, # of connection points: 2
#     Edge 51, Type (0, 0), BuildingBlock: CIFDUS_clean_linker_0, # of connection points: 2
#     Edge 52, Type (0, 0), BuildingBlock: CIFDUS_clean_linker_0, # of connection points: 2
#     Edge 53, Type (0, 0), BuildingBlock: CIFDUS_clean_linker_0, # of connection points: 2
#     Edge 54, Type (0, 0), BuildingBlock: CIFDUS_clean_linker_0, # of connection points: 2
#     Edge 55, Type (0, 0), BuildingBlock: CIFDUS_clean_linker_0, # of connection points: 2
#     Edge 56, Type (0, 0), BuildingBlock: CIFDUS_clean_linker_0, # of connection points: 2
#     Edge 57, Type (0, 0), BuildingBlock: CIFDUS_clean_linker_0, # of connection points: 2
#     Edge 58, Type (0, 0), BuildingBlock: CIFDUS_clean_linker_0, # of connection points: 2
#     Edge 59, Type (0, 0), BuildingBlock: CIFDUS_clean_linker_0, # of connection points: 2
#     Edge 60, Type (0, 0), BuildingBlock: CIFDUS_clean_linker_0, # of connection points: 2
#     Edge 61, Type (0, 0), BuildingBlock: CIFDUS_clean_linker_0, # of connection points: 2
#     Edge 62, Type (0, 0), BuildingBlock: CIFDUS_clean_linker_0, # of connection points: 2
#     Edge 63, Type (0, 0), BuildingBlock: CIFDUS_clean_linker_0, # of connection points: 2
# Relax obj value: 0.458
# Max RMSD: 0.245
# Mean RMSD: 0.245
data_MOF--net-why--node1-HISSIN_clean_sbu_0--edge1-CIFDUS_clean_linker_0
_symmetry_space_group_name_H-M    P1
_symmetry_Int_Tables_number       1
_symmetry_cell_setting            triclinic
loop_
_symmetry_equiv_pos_as_xyz
'x, y, z'
_cell_length_a     44.901264
_cell_length_b     45.137741
_cell_length_c     36.088179
_cell_angle_alpha  89.931274
_cell_angle_beta   90.054978
_cell_angle_gamma 90.345728
loop_
_atom_site_label
_atom_site_type_symbol
_atom_site_fract_x
_atom_site_fract_y
_atom_site_fract_z
_atom_type_partial_charge
Eu0 Eu 0.49524 0.21259 0.06571 0.0
Eu1 Eu 0.45659 0.25196 0.11452 0.0
C2 C 0.47556 0.27509 0.03378 0.0
C3 C 0.54727 0.18634 0.98707 0.0
C4 C 0.55523 0.21587 0.97984 0.0
C5 C 0.57272 0.17109 0.93114 0.0
C6 C 0.57174 0.22301 0.94839 0.0
C7 C 0.55616 0.16396 0.96272 0.0
C8 C 0.58049 0.20073 0.92359 0.0
C9 C 0.52945 0.179 0.0256 0.0
O10 O 0.42012 0.23323 0.07356 0.0
O11 O 0.45131 0.21431 0.0302 0.0
C12 C 0.4239 0.2226 0.03953 0.0
O13 O 0.48062 0.17894 0.11167 0.0
O14 O 0.43489 0.29276 0.13295 0.0
O15 O 0.42663 0.25146 0.16172 0.0
O16 O 0.47153 0.21351 0.15473 0.0
C17 C 0.47549 0.18506 0.14679 0.0
O18 O 0.53016 0.24925 0.08532 0.0
O19 O 0.5001 0.28154 0.11617 0.0
O20 O 0.45495 0.27542 0.05944 0.0
O21 O 0.5374 0.1897 0.05776 0.0
O22 O 0.50127 0.18302 0.01876 0.0
O23 O 0.4964 0.25501 0.03358 0.0
C24 C 0.38525 0.28125 0.14919 0.0
C25 C 0.37091 0.30785 0.15733 0.0
C26 C 0.33751 0.25878 0.13331 0.0
C27 C 0.33995 0.30963 0.15465 0.0
C28 C 0.36846 0.25711 0.13563 0.0
C29 C 0.32291 0.28472 0.14406 0.0
C30 C 0.41746 0.27833 0.15555 0.0
C31 C 0.52672 0.27575 0.10157 0.0
H32 H 0.54814 0.23348 0.99814 0.0
H33 H 0.57945 0.15347 0.91267 0.0
H34 H 0.57706 0.24606 0.94303 0.0
H35 H 0.5499 0.1411 0.96783 0.0
H36 H 0.38348 0.32679 0.16731 0.0
H37 H 0.32488 0.23927 0.12534 0.0
H38 H 0.32922 0.32978 0.16376 0.0
H39 H 0.37907 0.23641 0.12849 0.0
Eu40 Eu 0.72272 0.72913 0.30935 0.0
Eu41 Eu 0.68191 0.6941 0.3615 0.0
C42 C 0.65905 0.71012 0.27892 0.0
C43 C 0.75668 0.77296 0.23024 0.0
C44 C 0.73318 0.76517 0.20649 0.0
C45 C 0.77651 0.80576 0.18294 0.0
C46 C 0.7314 0.7775 0.17113 0.0
C47 C 0.77836 0.79325 0.21832 0.0
C48 C 0.75296 0.79806 0.15898 0.0
C49 C 0.7591 0.75919 0.26689 0.0
O50 O 0.70164 0.65644 0.32447 0.0
O51 O 0.71885 0.684 0.2764 0.0
C52 C 0.71111 0.65751 0.2896 0.0
O53 O 0.75569 0.71633 0.35695 0.0
O54 O 0.64005 0.67413 0.38053 0.0
O55 O 0.68099 0.66545 0.41001 0.0
O56 O 0.72086 0.7094 0.40078 0.0
C57 C 0.74949 0.71235 0.39232 0.0
O58 O 0.68698 0.76553 0.32757 0.0
O59 O 0.65426 0.73803 0.36202 0.0
O60 O 0.65734 0.69149 0.3068 0.0
O61 O 0.74367 0.7712 0.29348 0.0
O62 O 0.75712 0.7304 0.26709 0.0
O63 O 0.68094 0.72917 0.2761 0.0
C64 C 0.65009 0.62469 0.39668 0.0
C65 C 0.67424 0.60767 0.3841 0.0
C66 C 0.61878 0.58089 0.3946 0.0
C67 C 0.67087 0.57738 0.37776 0.0
C68 C 0.62217 0.61124 0.40094 0.0
C69 C 0.64329 0.56353 0.38385 0.0
C70 C 0.65382 0.65663 0.40346 0.0
C71 C 0.66064 0.76358 0.3453 0.0
H72 H 0.71633 0.74936 0.21522 0.0
H73 H 0.79321 0.82185 0.17462 0.0
H74 H 0.7132 0.77081 0.15322 0.0
H75 H 0.79667 0.79942 0.23636 0.0
H76 H 0.696 0.61756 0.37999 0.0
H77 H 0.59734 0.57076 0.40032 0.0
H78 H 0.6901 0.56455 0.36966 0.0
H79 H 0.6032 0.62404 0.41002 0.0
Eu80 Eu 0.20993 0.95833 0.56318 0.0
Eu81 Eu 0.24671 0.91878 0.61578 0.0
C82 C 0.23241 0.89617 0.53158 0.0
C83 C 0.1618 0.99095 0.48609 0.0
C84 C 0.14179 0.96763 0.47889 0.0
C85 C 0.15329 1.01001 0.42404 0.0
C86 C 0.12754 0.96562 0.44458 0.0
C87 C 0.16731 1.01216 0.4585 0.0
C88 C 0.13328 0.98667 0.41663 0.0
C89 C 0.1777 0.99314 0.52167 0.0
O90 O 0.28486 0.93626 0.57766 0.0
O91 O 0.25645 0.95696 0.53202 0.0
C92 C 0.28304 0.9475 0.54363 0.0
O93 O 0.22053 0.99218 0.61083 0.0
O94 O 0.24634 0.89173 0.66587 0.0
O95 O 0.28764 0.89859 0.63581 0.0
O96 O 0.23857 0.96026 0.65348 0.0
C97 C 0.23016 0.98758 0.64498 0.0
O98 O 0.1742 0.92024 0.57752 0.0
O99 O 0.20447 0.88906 0.60942 0.0
O100 O 0.24535 0.89101 0.56358 0.0
O101 O 0.16705 0.97796 0.54954 0.0
O102 O 0.20664 0.99194 0.51987 0.0
O103 O 0.21695 0.92015 0.52538 0.0
C104 C 0.27657 0.85044 0.65702 0.0
C105 C 0.27636 0.83272 0.68877 0.0
C106 C 0.28079 0.80635 0.61871 0.0
C107 C 0.27912 0.80207 0.68564 0.0
C108 C 0.27796 0.83703 0.6219 0.0
C109 C 0.28211 0.78859 0.65061 0.0
C110 C 0.27349 0.88265 0.66042 0.0
C111 C 0.17824 0.89379 0.59373 0.0
H112 H 0.13719 0.95087 0.49966 0.0
H113 H 0.15852 1.02638 0.40302 0.0
H114 H 0.11187 0.94765 0.44009 0.0
H115 H 0.18279 1.03025 0.46347 0.0
H116 H 0.27474 0.84265 0.71602 0.0
H117 H 0.28315 0.79665 0.59144 0.0
H118 H 0.28072 0.78916 0.71088 0.0
H119 H 0.27757 0.85029 0.59692 0.0
Eu120 Eu 0.93805 0.44191 0.80645 0.0
Eu121 Eu 0.97241 0.4826 0.85976 0.0
C122 C 1.00133 0.46933 0.77959 0.0
C123 C 0.90966 0.39823 0.72385 0.0
C124 C 0.9367 0.40217 0.70508 0.0
C125 C 0.88907 0.37332 0.67015 0.0
C126 C 0.94006 0.3914 0.66914 0.0
C127 C 0.88576 0.3841 0.70615 0.0
C128 C 0.91638 0.37655 0.65149 0.0
C129 C 0.90623 0.40901 0.76175 0.0
O130 O 0.95808 0.51888 0.81678 0.0
O131 O 0.93861 0.48721 0.77366 0.0
C132 C 0.94728 0.51463 0.78284 0.0
O133 O 0.90249 0.44738 0.8529 0.0
O134 O 0.98788 0.52469 0.88223 0.0
O135 O 0.99655 0.48384 0.91214 0.0
O136 O 0.92769 0.47639 0.89308 0.0
C137 C 0.90288 0.46195 0.88463 0.0
O138 O 0.97595 0.40847 0.82464 0.0
O139 O 1.00459 0.44142 0.85669 0.0
O140 O 1.00385 0.48394 0.81095 0.0
O141 O 0.92476 0.39832 0.78612 0.0
O142 O 0.90296 0.43753 0.76505 0.0
O143 O 0.97871 0.45161 0.77281 0.0
C144 C 0.98216 0.5249 0.94713 0.0
C145 C 0.95332 0.53696 0.94635 0.0
C146 C 0.98695 0.5344 0.02026 0.0
C147 C 0.94084 0.54889 0.97849 0.0
C148 C 0.99755 0.52325 0.98068 0.0
C149 C 0.95875 0.548 0.0194 0.0
C150 C 0.99585 0.5127 0.91361 0.0
C151 C 1.00165 0.41449 0.84178 0.0
H152 H 0.95525 0.41327 0.71841 0.0
H153 H 0.87058 0.36166 0.65738 0.0
H154 H 0.96125 0.39444 0.65527 0.0
H155 H 0.8647 0.38106 0.72034 0.0
H156 H 0.94072 0.53777 0.92076 0.0
H157 H 1.00028 0.5343 0.04529 0.0
H158 H 0.91925 0.5594 0.97697 0.0
H159 H 1.01957 0.51359 0.9819 0.0
Eu160 Eu 0.72819 0.92022 0.8929 0.0
Eu161 Eu 0.6875 0.95562 0.94446 0.0
C162 C 0.70985 0.9893 0.86591 0.0
C163 C 0.76148 0.85312 0.8548 0.0
C164 C 0.75636 0.8336 0.82541 0.0
C165 C 0.77128 0.8112 0.89546 0.0
C166 C 0.75915 0.80315 0.83078 0.0
C167 C 0.76823 0.84169 0.89014 0.0
C168 C 0.76719 0.79165 0.86569 0.0
C169 C 0.75681 0.88501 0.84936 0.0
O170 O 0.65287 0.91822 0.92621 0.0
O171 O 0.68583 0.88911 0.89571 0.0
C172 C 0.65856 0.89242 0.90959 0.0
O173 O 0.7285 0.89253 0.94548 0.0
O174 O 0.64449 0.97505 0.95793 0.0
O175 O 0.68352 0.98662 0.99023 0.0
O176 O 0.6898 0.91372 0.97685 0.0
C177 C 0.70975 0.89296 0.97339 0.0
O178 O 0.765 0.93581 0.93463 0.0
O179 O 0.73312 0.95498 0.97745 0.0
O180 O 0.69604 0.99051 0.89818 0.0
O181 O 0.72919 0.89249 0.84349 0.0
O182 O 0.77026 0.90264 0.87272 0.0
O183 O 0.72286 0.96389 0.85712 0.0
C184 C 0.64013 0.98111 0.03014 0.0
C185 C 0.61111 0.96933 0.02917 0.0
C186 C 0.63965 0.9777 0.09732 0.0
C187 C 0.59672 0.96136 0.06192 0.0
C188 C 0.65401 0.98576 0.06459 0.0
C189 C 0.611 0.96509 0.09627 0.0
C190 C 0.65456 0.98765 0.98804 0.0
C191 C 0.76075 0.9467 0.96841 0.0
H192 H 0.75051 0.84193 0.7982 0.0
H193 H 0.77777 0.80297 0.92249 0.0
H194 H 0.75659 0.78874 0.80699 0.0
H195 H 0.77152 0.8563 0.91359 0.0
H196 H 0.59774 0.96626 0.99561 0.0
H197 H 0.65124 0.98075 0.12339 0.0
H198 H 0.57435 0.9523 0.06036 0.0
H199 H 0.67628 0.99506 0.06626 0.0
Eu200 Eu 0.49724 0.47791 0.63659 0.0
Eu201 Eu 0.46222 0.44388 0.69609 0.0
C202 C 0.42661 0.4623 0.61657 0.0
C203 C 0.55453 0.48555 0.5624 0.0
C204 C 0.5813 0.5015 0.56109 0.0
C205 C 0.57626 0.4476 0.52306 0.0
C206 C 0.60501 0.49113 0.53996 0.0
C207 C 0.55264 0.45781 0.54461 0.0
C208 C 0.60221 0.46476 0.51933 0.0
C209 C 0.52869 0.49822 0.58175 0.0
O210 O 0.50055 0.40898 0.68573 0.0
O211 O 0.5211 0.43133 0.63533 0.0
C212 C 0.52159 0.40908 0.65967 0.0
O213 O 0.52793 0.48186 0.68573 0.0
O214 O 0.44008 0.40337 0.71424 0.0
O215 O 0.43305 0.44438 0.74432 0.0
O216 O 0.50606 0.44803 0.72474 0.0
C217 C 0.5278 0.46631 0.71644 0.0
O218 O 0.48246 0.51802 0.67362 0.0
O219 O 0.46411 0.49154 0.72268 0.0
O220 O 0.42761 0.44652 0.64753 0.0
O221 O 0.50347 0.48425 0.57744 0.0
O222 O 0.53294 0.50671 0.61583 0.0
O223 O 0.45053 0.47799 0.60798 0.0
C224 C 0.43133 0.40022 0.77893 0.0
C225 C 0.45282 0.37817 0.78418 0.0
C226 C 0.41448 0.39321 0.84219 0.0
C227 C 0.4549 0.36353 0.81813 0.0
C228 C 0.41223 0.40764 0.80811 0.0
C229 C 0.43579 0.37093 0.84755 0.0
C230 C 0.42844 0.41585 0.74344 0.0
C231 C 0.47268 0.51753 0.7086 0.0
H232 H 0.58342 0.52267 0.575 0.0
H233 H 0.57347 0.42736 0.50728 0.0
H234 H 0.6245 0.50521 0.53718 0.0
H235 H 0.53245 0.44459 0.54587 0.0
H236 H 0.46791 0.37211 0.76209 0.0
H237 H 0.39972 0.39972 0.86442 0.0
H238 H 0.47124 0.34614 0.82113 0.0
H239 H 0.39559 0.42471 0.80457 0.0
Eu240 Eu 0.93424 0.25263 0.39757 0.0
Eu241 Eu 0.97272 0.2114 0.44572 0.0
C242 C 0.95019 0.18414 0.36459 0.0
C243 C 0.89517 0.32002 0.36675 0.0
C244 C 0.91665 0.34143 0.37687 0.0
C245 C 0.85634 0.35594 0.37753 0.0
C246 C 0.90801 0.37017 0.38619 0.0
C247 C 0.86498 0.32742 0.36778 0.0
C248 C 0.87776 0.37778 0.38622 0.0
C249 C 0.90366 0.28937 0.35793 0.0
O250 O 1.00818 0.24781 0.42697 0.0
O251 O 0.9774 0.28227 0.40181 0.0
C252 C 1.00442 0.27536 0.41392 0.0
O253 O 0.9371 0.27825 0.45121 0.0
O254 O 1.01578 0.19095 0.45683 0.0
O255 O 0.97701 0.17774 0.4886 0.0
O256 O 0.97212 0.25114 0.48238 0.0
C257 C 0.95474 0.2742 0.47978 0.0
O258 O 0.89741 0.23709 0.43942 0.0
O259 O 0.92791 0.21292 0.47983 0.0
O260 O 0.96094 0.17864 0.39791 0.0
O261 O 0.93193 0.28453 0.35232 0.0
O262 O 0.89127 0.26902 0.37854 0.0
O263 O 0.94126 0.2117 0.35777 0.0
C264 C 1.02279 0.1807 0.51992 0.0
C265 C 1.0137 0.20184 0.54603 0.0
C266 C 0.10858 0.1701 0.55747 0.0
C267 C 1.03074 0.20703 0.57771 0.0
C268 C 1.049 0.16475 0.5259 0.0
C269 C 1.05729 0.19142 0.58353 0.0
C270 C 1.0059 0.17641 0.48558 0.0
C271 C 0.90104 0.22389 0.47204 0.0
H272 H 0.94015 0.33614 0.37716 0.0
H273 H 0.83287 0.36129 0.37627 0.0
H274 H 0.92493 0.38667 0.39229 0.0
H275 H 0.84805 0.31119 0.36063 0.0
H276 H 0.99367 0.21466 0.54167 0.0
H277 H 0.12889 0.15767 0.56149 0.0
H278 H 1.02361 0.22385 0.59711 0.0
H279 H 1.05637 0.14848 0.5059 0.0
Eu280 Eu 0.20861 0.68915 0.14972 0.0
Eu281 Eu 0.24513 0.72998 0.20068 0.0
C282 C 0.27754 0.708 0.12101 0.0
C283 C 0.14365 0.64621 0.11824 0.0
C284 C 0.13713 0.61597 0.11543 0.0
C285 C 1.05176 0.65472 0.14345 0.0
C286 C 0.10932 0.60518 0.1262 0.0
C287 C 0.12218 0.66547 0.13312 0.0
C288 C 1.045 0.62449 0.13982 0.0
C289 C 0.17378 0.65683 0.1091 0.0
O290 O 0.2079 0.76418 0.18167 0.0
O291 O 0.17793 0.7314 0.15137 0.0
C292 C 0.18186 0.7586 0.16499 0.0
O293 O 0.18112 0.68923 0.20262 0.0
O294 O 0.26479 0.77325 0.21308 0.0
O295 O 0.27685 0.73488 0.24586 0.0
O296 O 0.2031 0.72794 0.23342 0.0
C297 C 0.18192 0.70811 0.23034 0.0
O298 O 0.22436 0.65327 0.19228 0.0
O299 O 0.24403 0.68513 0.23484 0.0
O300 O 0.27972 0.72046 0.15408 0.0
O301 O 0.17697 0.68532 0.10409 0.0
O302 O 0.19496 0.64566 0.12938 0.0
O303 O 0.25131 0.69619 0.11207 0.0
C304 C 0.27351 0.78066 0.27661 0.0
C305 C 0.25378 0.77037 0.304 0.0
C306 C 0.28253 0.82507 0.31265 0.0
C307 C 0.24861 0.78729 0.33566 0.0
C308 C 0.28795 0.80799 0.28118 0.0
C309 C 0.26275 0.81488 0.34006 0.0
C310 C 0.27839 0.76361 0.24263 0.0
C311 C 0.23541 0.6576 0.22599 0.0
H312 H 0.15352 0.60069 0.1047 0.0
H313 H 1.03513 0.67007 0.15339 0.0
H314 H 1.06213 0.58187 0.1221 0.0
H315 H 0.12694 0.68886 0.13653 0.0
H316 H 0.24211 0.74945 0.30076 0.0
H317 H 0.29379 0.84623 0.31558 0.0
H318 H 0.23299 0.77918 0.35622 0.0
H319 H 0.30315 0.81626 0.26023 0.0
Eu320 Eu 0.97209 0.69498 0.55969 0.0
Eu321 Eu 0.93155 0.73211 0.61058 0.0
C322 C 0.94712 0.75768 0.52921 0.0
C323 C 1.01806 0.66453 0.47949 0.0
C324 C 1.00968 0.68763 0.45573 0.0
C325 C 1.05018 0.64503 0.43144 0.0
C326 C 1.02165 0.68956 0.42006 0.0
C327 C 1.03822 0.64318 0.46711 0.0
C328 C 1.04218 0.66835 0.40757 0.0
C329 C 1.00574 0.66236 0.51703 0.0
O330 O 0.89541 0.71751 0.56751 0.0
O331 O 0.92665 0.69505 0.52643 0.0
C332 C 0.89944 0.70511 0.53456 0.0
O333 O 0.96405 0.66027 0.60721 0.0
O334 O 0.88802 0.74437 0.63217 0.0
O335 O 0.92818 0.76056 0.65907 0.0
O336 O 0.9404 0.69028 0.64732 0.0
C337 C 0.95171 0.6639 0.6401 0.0
O338 O 1.00579 0.73371 0.57721 0.0
O339 O 0.97316 0.76355 0.60768 0.0
O340 O 0.93238 0.76176 0.56023 0.0
O341 O 1.01623 0.68104 0.54137 0.0
O342 O 0.9769 0.65964 0.51911 0.0
O343 O 0.96376 0.73432 0.52369 0.0
C344 C 0.88876 0.74367 0.69698 0.0
C345 C 0.90772 0.72737 0.72039 0.0
C346 C 0.84771 0.73353 0.73844 0.0
C347 C 0.89682 0.71483 0.75317 0.0
C348 C 0.85864 0.74618 0.70596 0.0
C349 C 0.86674 0.7181 0.76275 0.0
C350 C 0.8995 0.75626 0.66187 0.0
C351 C 1.00017 0.75984 0.59328 0.0
H352 H 0.99392 0.70416 0.46482 0.0
H353 H 0.10862 0.6286 0.42287 0.0
H354 H 1.01481 0.70761 0.40224 0.0
H355 H 1.04488 0.62518 0.48515 0.0
H356 H 0.93104 0.72463 0.71366 0.0
H357 H 0.82457 0.73728 0.74539 0.0
H358 H 0.91201 0.70336 0.7715 0.0
H359 H 0.8436 0.75827 0.68805 0.0
Eu360 Eu 0.24272 0.25069 0.80807 0.0
Eu361 Eu 0.20259 0.21085 0.85789 0.0
C362 C 0.1807 0.22704 0.77466 0.0
C363 C 0.27615 0.29382 0.72716 0.0
C364 C 0.26811 0.27488 0.69779 0.0
C365 C 0.27895 0.33495 0.68395 0.0
C366 C 0.26549 0.28601 0.66171 0.0
C367 C 0.28199 0.32378 0.71982 0.0
C368 C 0.27037 0.31624 0.65472 0.0
C369 C 0.27696 0.28333 0.76582 0.0
O370 O 0.21906 0.17366 0.818 0.0
O371 O 0.24235 0.20456 0.77666 0.0
C372 C 0.23208 0.17745 0.78523 0.0
O373 O 0.27527 0.24393 0.85821 0.0
O374 O 0.18773 0.20458 0.91454 0.0
O375 O 0.17068 0.17557 0.87143 0.0
O376 O 0.24644 0.21366 0.89338 0.0
C377 C 0.27215 0.22789 0.88869 0.0
O378 O 0.20407 0.285 0.82252 0.0
O379 O 0.17476 0.25451 0.85719 0.0
O380 O 0.17322 0.21737 0.80769 0.0
O381 O 0.25672 0.29419 0.78775 0.0
O382 O 0.28095 0.25506 0.77118 0.0
O383 O 0.20677 0.23898 0.76797 0.0
C384 C 0.13649 0.19388 0.91546 0.0
C385 C 0.11458 0.17197 0.9192 0.0
C386 C 1.0589 0.23091 0.93684 0.0
C387 C 1.04416 0.17927 0.93297 0.0
C388 C 0.12921 0.22364 0.92277 0.0
C389 C 1.03773 0.20861 0.94351 0.0
C390 C 0.16702 0.18569 0.90496 0.0
C391 C 0.17851 0.28064 0.84084 0.0
H392 H 0.26319 0.25169 0.70282 0.0
H393 H 0.28279 0.35835 0.67908 0.0
H394 H 0.25853 0.27131 0.63958 0.0
H395 H 0.28816 0.33873 0.74205 0.0
H396 H 0.1196 0.14902 0.91321 0.0
H397 H 1.05457 0.25358 0.94494 0.0
H398 H 1.02847 0.16147 0.9384 0.0
H399 H 0.14556 0.24116 0.9195 0.0
Eu400 Eu 0.68912 0.47764 0.06142 0.0
Eu401 Eu 0.72368 0.4421 0.11855 0.0
C402 C 0.71251 0.41308 0.03735 0.0
C403 C 0.64144 0.50108 0.97141 0.0
C404 C 0.61473 0.48473 0.97036 0.0
C405 C 0.64364 0.49955 0.90419 0.0
C406 C 0.60279 0.47562 0.93659 0.0
C407 C 0.65552 0.5088 0.93799 0.0
C408 C 0.6173 0.48263 0.90321 0.0
C409 C 0.65757 0.50814 0.01451 0.0
O410 O 0.76276 0.45816 0.08006 0.0
O411 O 0.73542 0.47476 0.03114 0.0
C412 C 0.76178 0.46704 0.04482 0.0
O413 O 0.69939 0.51472 0.10439 0.0
O414 O 0.76445 0.42403 0.14178 0.0
O415 O 0.72323 0.42104 0.17297 0.0
O416 O 0.71494 0.48637 0.1518 0.0
C417 C 0.70756 0.51299 0.13945 0.0
O418 O 0.65261 0.44243 0.08051 0.0
O419 O 0.68141 0.41098 0.11399 0.0
O420 O 0.72536 0.41016 0.06997 0.0
O421 O 0.64641 0.49581 0.0442 0.0
O422 O 0.68658 0.50806 0.0147 0.0
O423 O 0.6964 0.43627 0.02909 0.0
C424 C 0.76649 0.43363 0.20572 0.0
C425 C 0.76618 0.41966 0.24024 0.0
C426 C 0.7945 0.47484 0.2321 0.0
C427 C 0.78054 0.43278 0.27031 0.0
C428 C 0.77981 0.46179 0.20205 0.0
C429 C 0.79559 0.46012 0.26635 0.0
C430 C 0.75218 0.41912 0.17398 0.0
C431 C 0.65536 0.41634 0.09785 0.0
H432 H 0.60318 0.47862 0.9956 0.0
H433 H 0.65532 0.50522 0.87889 0.0
H434 H 0.58206 0.46323 0.93662 0.0
H435 H 0.67608 0.52149 0.938 0.0
H436 H 0.7556 0.39819 0.24367 0.0
H437 H 0.80602 0.49576 0.22822 0.0
H438 H 0.78148 0.42045 0.29606 0.0
H439 H 0.7796 0.4733 0.17569 0.0
Eu440 Eu 0.45889 0.92334 0.3097 0.0
Eu441 Eu 0.4949 0.96019 0.36547 0.0
C442 C 0.52396 0.94768 0.28587 0.0
C443 C 0.43437 0.87551 0.22808 0.0
C444 C 0.43394 0.89047 0.19384 0.0
C445 C 0.4487 0.83046 0.19616 0.0
C446 C 0.44125 0.87564 0.16117 0.0
C447 C 0.44131 0.84522 0.22878 0.0
C448 C 0.44908 0.8456 0.1621 0.0
C449 C 0.42799 0.89141 0.26294 0.0
O450 O 0.48321 0.9982 0.32264 0.0
O451 O 0.46053 0.96919 0.27904 0.0
C452 C 0.47114 0.99568 0.28894 0.0
O453 O 0.42225 0.9328 0.35375 0.0
O454 O 0.50458 1.00144 0.39442 0.0
O455 O 0.52557 0.96065 0.4123 0.0
O456 O 0.45111 0.95072 0.3997 0.0
C457 C 0.42439 0.9421 0.38835 0.0
O458 O 0.49415 0.88781 0.32944 0.0
O459 O 0.52581 0.91783 0.36148 0.0
O460 O 0.52505 0.96383 0.31606 0.0
O461 O 0.4397 0.88077 0.29326 0.0
O462 O 0.42957 0.92023 0.26176 0.0
O463 O 0.50211 0.92896 0.2794 0.0
C464 C 0.50917 0.99283 0.45865 0.0
C465 C 0.52957 0.99045 0.48767 0.0
C466 C 0.46991 1.00362 0.50302 0.0
C467 C 0.52048 0.99529 0.52401 0.0
C468 C 0.47905 0.99857 0.46655 0.0
C469 C 0.4907 1.00269 0.53209 0.0
C470 C 0.51944 0.98804 0.42055 0.0
C471 C 0.52052 0.89145 0.34613 0.0
H472 H 0.42837 0.91375 0.19227 0.0
H473 H 0.45409 0.80712 0.19757 0.0
H474 H 0.44143 0.88785 0.13531 0.0
H475 H 0.44136 0.83297 0.25461 0.0
H476 H 0.55275 0.98559 0.48215 0.0
H477 H 0.44693 1.0094 0.50834 0.0
H478 H 0.53737 0.99508 0.54545 0.0
H479 H 0.46273 0.99987 0.4445 0.0
Eu480 Eu 0.24469 0.4367 0.39699 0.0
Eu481 Eu 0.20962 0.47859 0.44793 0.0
C482 C 0.23102 0.50704 0.36702 0.0
C483 C 0.25662 0.37197 0.33491 0.0
C484 C 0.22684 0.36854 0.32325 0.0
C485 C 0.26713 0.32249 0.31314 0.0
C486 C 0.21781 0.34294 0.30459 0.0
C487 C 0.27626 0.34825 0.33128 0.0
C488 C 0.2383 0.32026 0.29789 0.0
C489 C 0.2676 0.40056 0.34907 0.0
O490 O 0.17215 0.44328 0.43127 0.0
O491 O 0.20018 0.40955 0.40046 0.0
C492 C 0.17425 0.41646 0.4155 0.0
O493 O 0.24501 0.4117 0.45181 0.0
O494 O 0.16913 0.50315 0.46007 0.0
O495 O 0.20777 0.50826 0.49546 0.0
O496 O 0.20896 0.4376 0.48216 0.0
C497 C 0.22731 0.41532 0.48044 0.0
O498 O 0.28428 0.45602 0.43102 0.0
O499 O 0.25654 0.47563 0.47783 0.0
O500 O 0.22 0.51206 0.40027 0.0
O501 O 0.25191 0.42361 0.33988 0.0
O502 O 0.27604 0.40126 0.38358 0.0
O503 O 0.23998 0.47958 0.3598 0.0
C504 C 0.16129 0.50649 0.52408 0.0
C505 C 0.15349 0.477 0.53164 0.0
C506 C 0.13682 0.52183 0.58066 0.0
C507 C 0.13754 0.4699 0.56349 0.0
C508 C 0.15299 0.52891 0.54872 0.0
C509 C 0.1289 0.49223 0.58827 0.0
C510 C 0.1794 0.51328 0.49147 0.0
C511 C 0.283 0.46682 0.46526 0.0
H512 H 0.21096 0.38631 0.32656 0.0
H513 H 0.2836 0.30556 0.3079 0.0
H514 H 0.19559 0.34182 0.29293 0.0
H515 H 0.29914 0.35029 0.3406 0.0
H516 H 0.1599 0.45939 0.51298 0.0
H517 H 0.1302 0.5395 0.59912 0.0
H518 H 0.13221 0.44685 0.56886 0.0
H519 H 0.15906 0.55177 0.5433 0.0
Eu520 Eu 0.98084 0.96415 0.15007 0.0
Eu521 Eu 0.94273 0.92266 0.19793 0.0
C522 C 0.91344 0.94383 0.1176 0.0
C523 C 1.00531 1.03613 0.11229 0.0
C524 C 0.97775 1.04928 0.12059 0.0
C525 C 1.02561 0.1242 0.10583 0.0
C526 C 0.97298 0.11936 0.11965 0.0
C527 C 1.03029 1.05411 0.10636 0.0
C528 C 0.99753 0.13738 0.11094 0.0
C529 C 1.00787 1.00378 0.10988 0.0
O530 O 0.98135 0.88948 0.17991 0.0
O531 O 1.01077 0.92161 0.14724 0.0
C532 C 1.0071 0.89476 0.16223 0.0
O533 O 1.00378 0.96604 0.2058 0.0
O534 O 0.92105 0.87977 0.20591 0.0
O535 O 0.91274 0.9156 0.24443 0.0
O536 O 0.98495 0.92344 0.23085 0.0
C537 C 1.0041 0.94534 0.23131 0.0
O538 O 0.95936 0.99936 0.18936 0.0
O539 O 0.94247 0.96692 0.23287 0.0
O540 O 0.90825 0.93466 0.15171 0.0
O541 O 1.02052 0.99085 0.13789 0.0
O542 O 0.98397 0.9898 0.09909 0.0
O543 O 0.94124 0.95194 0.10993 0.0
C544 C 0.91641 0.86817 0.26901 0.0
C545 C 0.94619 0.86245 0.27804 0.0
C546 C 0.90044 0.84161 0.32386 0.0
C547 C 0.9531 0.84656 0.30996 0.0
C548 C 0.89354 0.85757 0.29184 0.0
C549 C 0.93031 0.83621 0.33335 0.0
C550 C 0.90952 0.88741 0.23768 0.0
C551 C 0.94919 0.9948 0.22344 0.0
H552 H 0.95823 1.03578 0.12615 0.0
H553 H 1.04486 0.13749 0.09836 0.0
H554 H 0.95113 0.12896 0.12339 0.0
H555 H 1.05179 1.04436 0.1006 0.0
H556 H 0.96412 0.87084 0.26083 0.0
H557 H 0.88245 0.83356 0.3412 0.0
H558 H 0.97631 0.84305 0.31682 0.0
H559 H 0.87045 0.86206 0.28526 0.0
Eu560 Eu 0.45566 0.72924 0.88443 0.0
Eu561 Eu 0.49172 0.69486 0.94192 0.0
C562 C 0.47529 0.65996 0.86179 0.0
C563 C 0.42066 0.74048 0.79211 0.0
C564 C 0.41214 0.71055 0.78884 0.0
C565 C 0.41309 0.74694 0.72631 0.0
C566 C 0.40293 0.69922 0.75464 0.0
C567 C 0.42211 0.75823 0.76045 0.0
C568 C 0.4023 0.71763 0.72324 0.0
C569 C 0.42901 0.7531 0.8281 0.0
O570 O 0.52756 0.73197 0.92553 0.0
O571 O 0.49722 0.76076 0.89032 0.0
C572 C 0.52332 0.75748 0.90732 0.0
O573 O 0.45209 0.76054 0.93329 0.0
O574 O 0.53432 0.67952 0.96369 0.0
O575 O 0.49311 0.66124 0.98512 0.0
O576 O 0.48326 0.73632 0.9736 0.0
C577 C 0.46611 0.75877 0.96527 0.0
O578 O 0.41691 0.71422 0.92392 0.0
O579 O 0.44485 0.69669 0.97194 0.0
O580 O 0.48531 0.65865 0.89622 0.0
O581 O 0.41475 0.7428 0.85692 0.0
O582 O 0.45757 0.75552 0.83381 0.0
O583 O 0.46497 0.68579 0.85052 0.0
C584 C 0.53504 0.6648 0.03379 0.0
C585 C 0.52879 0.69011 0.05477 0.0
C586 C 0.56288 0.64446 0.08527 0.0
C587 C 0.53981 0.69272 0.0908 0.0
C588 C 0.55185 0.64189 0.04925 0.0
C589 C 0.55723 0.67003 0.10626 0.0
C590 C 0.52197 0.66236 0.98845 0.0
C591 C 0.41825 0.70465 0.95888 0.0
H592 H 0.41161 0.69621 0.81292 0.0
H593 H 0.41243 0.76199 0.70293 0.0
H594 H 0.3947 0.67664 0.75316 0.0
H595 H 0.42922 0.78117 0.76237 0.0
H596 H 0.51557 0.70787 0.0432 0.0
H597 H 0.57659 0.62683 0.09626 0.0
H598 H 0.53488 0.71256 0.10646 0.0
H599 H 0.55673 0.62218 0.03331 0.0
Eu600 Eu 0.68236 0.21193 0.6439 0.0
Eu601 Eu 0.72366 0.24551 0.69863 0.0
C602 C 0.75123 0.22876 0.61469 0.0
C603 C 0.62231 0.16155 0.61569 0.0
C604 C 0.60048 0.173 0.6397 0.0
C605 C 0.5994 0.11306 0.62099 0.0
C606 C 0.57782 0.15471 0.65343 0.0
C607 C 0.62177 0.13138 0.60688 0.0
C608 C 0.577 0.12459 0.64403 0.0
C609 C 0.64739 0.18007 0.60297 0.0
O610 O 0.68496 0.28049 0.68736 0.0
O611 O 0.65598 0.25664 0.64481 0.0
C612 C 0.66031 0.28016 0.66624 0.0
O613 O 0.65611 0.20922 0.69731 0.0
O614 O 0.74496 0.28779 0.7125 0.0
O615 O 0.75568 0.24828 0.74386 0.0
O616 O 0.6837 0.2401 0.73431 0.0
C617 C 0.66037 0.22326 0.72872 0.0
O618 O 0.69742 0.1734 0.68335 0.0
O619 O 0.72291 0.19883 0.72799 0.0
O620 O 0.75676 0.23538 0.6498 0.0
O621 O 0.64432 0.20863 0.60655 0.0
O622 O 0.67363 0.17106 0.61341 0.0
O623 O 0.72314 0.22286 0.60568 0.0
C624 C 0.75296 0.29351 0.77686 0.0
C625 C 0.76214 0.32318 0.77929 0.0
C626 C 0.73234 0.29689 0.83912 0.0
C627 C 0.75601 0.33974 0.81103 0.0
C628 C 0.73815 0.28041 0.80716 0.0
C629 C 0.74082 0.32683 0.84109 0.0
C630 C 0.7578 0.27707 0.74207 0.0
C631 C 0.71103 0.17343 0.71618 0.0
H632 H 0.60079 0.1961 0.64778 0.0
H633 H 0.6006 1.05072 0.61241 0.0
H634 H 0.5606 0.16416 0.6707 0.0
H635 H 0.63863 0.122 0.589 0.0
H636 H 0.77357 0.33372 0.75631 0.0
H637 H 0.72031 0.28655 0.86176 0.0
H638 H 0.76292 0.36277 0.81197 0.0
H639 H 0.73054 0.25761 0.80596 0.0
H640 H 0.52843 0.34024 0.09978 0.0
H641 H 0.58799 0.26594 0.10471 0.0
H642 H 0.63073 0.29999 0.10571 0.0
H643 H 0.65345 0.35205 0.10468 0.0
H644 H 0.59408 0.42608 0.09339 0.0
H645 H 0.55125 0.39216 0.09535 0.0
C646 C 0.55065 0.33113 0.10138 0.0
C647 C 0.55358 0.29917 0.10289 0.0
C648 C 0.57626 0.35155 0.10071 0.0
C649 C 0.58361 0.28949 0.1039 0.0
C650 C 0.60863 0.30941 0.10443 0.0
C651 C 0.63124 0.36116 0.1028 0.0
C652 C 0.62838 0.39303 0.09936 0.0
C653 C 0.60565 0.34071 0.10282 0.0
C654 C 0.5984 0.40262 0.0963 0.0
C655 C 0.57333 0.38277 0.09743 0.0
H656 H 0.59638 0.76594 0.3538 0.0
H657 H 0.67119 0.82458 0.33729 0.0
H658 H 0.6375 0.8672 0.33779 0.0
H659 H 0.58549 0.88999 0.34247 0.0
H660 H 0.51045 0.83069 0.35259 0.0
H661 H 0.54436 0.78838 0.35502 0.0
C662 C 0.60574 0.78795 0.35049 0.0
C663 C 0.63775 0.79066 0.34609 0.0
C664 C 0.58543 0.81334 0.34964 0.0
C665 C 0.64763 0.82036 0.34111 0.0
C666 C 0.62791 0.84531 0.34137 0.0
C667 C 0.57619 0.86793 0.34546 0.0
C668 C 0.54404 0.86496 0.34793 0.0
C669 C 0.59653 0.84249 0.34563 0.0
C670 C 0.53414 0.83511 0.35084 0.0
C671 C 0.55398 0.81033 0.35223 0.0
H672 H 0.11262 0.88957 0.59522 0.0
H673 H 0.19029 0.83424 0.589 0.0
H674 H 0.1586 0.79012 0.5871 0.0
H675 H 0.10775 0.76461 0.58757 0.0
H676 H 0.98788 0.81961 0.59903 0.0
H677 H 1.01943 0.86387 0.59848 0.0
C678 C 0.12297 0.86802 0.5933 0.0
C679 C 0.15514 0.86676 0.59204 0.0
C680 C 1.06157 0.84137 0.59325 0.0
C681 C 0.16641 0.83741 0.5901 0.0
C682 C 0.14791 0.81151 0.58895 0.0
C683 C 1.05502 0.78612 0.59001 0.0
C684 C 1.02294 0.78722 0.59332 0.0
C685 C 0.11642 0.81274 0.59061 0.0
C686 C 1.01169 0.81651 0.59661 0.0
C687 C 1.03012 0.84251 0.59619 0.0
H688 H 1.0063 0.34968 0.84104 0.0
H689 H 1.06203 0.42762 0.84246 0.0
H690 H 0.14884 0.39651 0.84065 0.0
H691 H 0.17438 0.34594 0.83857 0.0
H692 H 0.1184 0.26818 0.84367 0.0
H693 H 1.03176 0.29933 0.84308 0.0
C694 C 1.02802 0.36023 0.84104 0.0
C695 C 1.02929 0.39228 0.84182 0.0
C696 C 1.05471 0.34153 0.84112 0.0
C697 C 1.05884 0.40383 0.84208 0.0
C698 C 0.12727 0.38564 0.84091 0.0
C699 C 0.15265 0.33544 0.83953 0.0
C700 C 0.15128 0.30338 0.84088 0.0
C701 C 0.12595 0.35422 0.8404 0.0
C702 C 0.12171 0.29196 0.8426 0.0
C703 C 1.05334 0.31016 0.84221 0.0
H704 H 0.59314 0.88741 0.91105 0.0
H705 H 0.67121 0.83252 0.90734 0.0
H706 H 0.63975 0.78813 0.90798 0.0
H707 H 0.58888 0.76228 0.90941 0.0
H708 H 0.51086 0.81729 0.90715 0.0
H709 H 0.54234 0.86164 0.90897 0.0
C710 C 0.60365 0.86589 0.91033 0.0
C711 C 0.63588 0.86489 0.90923 0.0
C712 C 0.58471 0.83917 0.90963 0.0
C713 C 0.64731 0.83557 0.90803 0.0
C714 C 0.62892 0.8095 0.9085 0.0
C715 C 0.57839 0.78382 0.90934 0.0
C716 C 0.54615 0.78489 0.90828 0.0
C717 C 0.59735 0.81055 0.90927 0.0
C718 C 0.53476 0.81423 0.90781 0.0
C719 C 0.55316 0.84026 0.90894 0.0
H720 H 0.5652 0.38596 0.71158 0.0
H721 H 0.53562 0.37349 0.59917 0.0
H722 H 0.57269 0.3343 0.59091 0.0
H723 H 0.61502 0.30172 0.61484 0.0
H724 H 0.64818 0.3182 0.72497 0.0
H725 H 0.60983 0.3559 0.73396 0.0
C726 C 0.56645 0.37469 0.68515 0.0
C727 C 0.54582 0.38347 0.65631 0.0
C728 C 0.58945 0.35207 0.67982 0.0
C729 C 0.54983 0.36806 0.62243 0.0
C730 C 0.57156 0.34521 0.61757 0.0
C731 C 0.61426 0.31348 0.64095 0.0
C732 C 0.63592 0.30576 0.66914 0.0
C733 C 0.59179 0.33668 0.64591 0.0
C734 C 0.63309 0.32256 0.70221 0.0
C735 C 0.61057 0.34455 0.70756 0.0
H736 H 1.00552 0.33964 0.41678 0.0
H737 H 0.10814 0.26597 0.40989 0.0
H738 H 0.1505 0.30049 0.4082 0.0
H739 H 0.17255 0.35266 0.40886 0.0
H740 H 0.1128 0.42617 0.42181 0.0
H741 H 1.02784 0.39181 0.42094 0.0
C742 C 1.02783 0.33078 0.41475 0.0
C743 C 1.03111 0.29888 0.41297 0.0
C744 C 1.05318 0.35145 0.41491 0.0
C745 C 1.06117 0.28947 0.41111 0.0
C746 C 0.12831 0.30965 0.41014 0.0
C747 C 0.1503 0.36155 0.41142 0.0
C748 C 0.1472 0.39336 0.41497 0.0
C749 C 0.12498 0.34089 0.412 0.0
C750 C 0.11724 0.40275 0.4188 0.0
C751 C 1.04998 0.38266 0.4183 0.0
H752 H 0.17846 0.82369 0.16259 0.0
H753 H 0.12131 0.74677 0.16612 0.0
H754 H 1.03513 0.77871 0.16692 0.0
H755 H 1.01051 0.8297 0.16681 0.0
H756 H 0.10995 0.90635 0.15711 0.0
H757 H 0.15376 0.87448 0.15846 0.0
C758 C 0.15657 0.81353 0.16348 0.0
C759 C 0.15472 0.78148 0.16443 0.0
C760 C 0.13018 0.83272 0.16278 0.0
C761 C 0.12496 0.7705 0.16521 0.0
C762 C 1.05688 0.78918 0.16576 0.0
C763 C 1.03239 0.83981 0.16482 0.0
C764 C 1.03419 0.8718 0.16183 0.0
C765 C 1.05875 0.82056 0.16454 0.0
C766 C 1.06392 0.88267 0.1592 0.0
C767 C 0.13202 0.86404 0.1601 0.0
H768 H 0.33622 0.23385 0.88459 0.0
H769 H 0.26666 0.21815 0.96442 0.0
H770 H 0.30575 0.21578 0.02159 0.0
H771 H 0.35936 0.21845 0.04476 0.0
H772 H 0.42711 0.22978 0.95631 0.0
H773 H 0.38981 0.23354 0.90713 0.0
C774 C 0.32886 0.22999 0.91277 0.0
C775 C 0.29737 0.22643 0.91939 0.0
C776 C 0.35114 0.22789 0.94218 0.0
C777 C 0.28985 0.22109 0.95702 0.0
C778 C 0.31153 0.21997 0.98604 0.0
C779 C 0.3667 0.22146 0.01641 0.0
C780 C 0.39637 0.22381 1.00186 0.0
C781 C 0.34249 0.22328 0.9794 0.0
C782 C 0.40387 0.22776 0.96398 0.0
C783 C 0.38212 0.23009 0.93526 0.0
H784 H 0.71232 0.52276 0.21908 0.0
H785 H 0.70538 0.57139 0.11661 0.0
H786 H 0.70699 0.61802 0.15073 0.0
H787 H 0.70987 0.64737 0.21051 0.0
H788 H 0.71386 0.59909 0.31335 0.0
H789 H 0.71383 0.55226 0.27926 0.0
C790 C 0.71118 0.54341 0.20384 0.0
C791 C 0.70878 0.5421 0.16398 0.0
C792 C 0.71162 0.57137 0.22433 0.0
C793 C 0.7072 0.57026 0.14649 0.0
C794 C 0.70817 0.59756 0.16637 0.0
C795 C 0.711 0.62675 0.22582 0.0
C796 C 0.71224 0.62815 0.26569 0.0
C797 C 0.71036 0.5988 0.20545 0.0
C798 C 0.71302 0.60006 0.2834 0.0
C799 C 0.71301 0.57269 0.26353 0.0
H800 H 0.41638 0.95016 0.46761 0.0
H801 H 0.36519 0.9366 0.36792 0.0
H802 H 0.31913 0.93836 0.40378 0.0
H803 H 0.29111 0.94328 0.46446 0.0
H804 H 0.34216 0.95326 0.56479 0.0
H805 H 0.38834 0.95345 0.5287 0.0
C806 C 0.39529 0.94757 0.45335 0.0
C807 C 0.39565 0.94327 0.41374 0.0
C808 C 0.36774 0.94809 0.4749 0.0
C809 C 0.367 0.9399 0.39754 0.0
C810 C 0.34005 0.94097 0.41843 0.0
C811 C 0.3122 0.94583 0.47875 0.0
C812 C 0.31184 0.94881 0.5185 0.0
C813 C 0.33975 0.94507 0.4573 0.0
C814 C 0.34046 0.9512 0.53497 0.0
C815 C 0.36742 0.95125 0.51396 0.0
H816 H 0.95403 0.59996 0.63494 0.0
H817 H 0.94715 0.66922 0.71642 0.0
H818 H 0.94577 0.63212 0.76586 0.0
H819 H 0.94663 0.57872 0.78842 0.0
H820 H 0.94938 0.50941 0.70654 0.0
H821 H 0.9522 0.54656 0.65725 0.0
C822 C 0.95231 0.60726 0.66343 0.0
C823 C 0.95101 0.63865 0.67057 0.0
C824 C 0.95068 0.58505 0.69285 0.0
C825 C 0.94831 0.64612 0.70861 0.0
C826 C 0.94753 0.62448 0.73751 0.0
C827 C 0.94769 0.57143 0.75987 0.0
C828 C 0.94761 0.54002 0.75258 0.0
C829 C 0.94867 0.59364 0.7304 0.0
C830 C 0.94902 0.53255 0.71443 0.0
C831 C 0.9508 0.55421 0.68564 0.0
H832 H 0.82513 0.94499 0.96217 0.0
H833 H 0.75804 0.94851 0.05235 0.0
H834 H 0.7957 0.94712 0.10131 0.0
H835 H 0.84937 0.9446 0.12312 0.0
H836 H 0.91869 0.94449 0.04072 0.0
H837 H 0.87909 0.94505 0.98407 0.0
C838 C 0.81802 0.94573 0.99082 0.0
C839 C 0.7865 0.94722 0.99842 0.0
C840 C 0.8425 0.94511 0.02754 0.0
C841 C 0.78122 0.94766 0.04416 0.0
C842 C 0.80317 0.94673 0.07279 0.0
C843 C 0.85657 0.94459 0.09449 0.0
C844 C 0.88813 0.9443 0.08701 0.0
C845 C 0.83409 0.94543 0.06524 0.0
C846 C 0.89547 0.94465 0.04878 0.0
C847 C 0.87349 0.94471 0.02007 0.0
H848 H 0.46916 0.65133 0.7822 0.0
H849 H 0.4806 0.60134 0.88298 0.0
H850 H 0.47964 0.55525 0.8476 0.0
H851 H 0.47583 0.52689 0.78726 0.0
H852 H 0.46845 0.57646 0.68571 0.0
H853 H 0.46758 0.62282 0.72114 0.0
C854 C 0.4715 0.63049 0.79678 0.0
C855 C 0.4749 0.6312 0.83659 0.0
C856 C 0.4716 0.60291 0.77549 0.0
C857 C 0.47799 0.60287 0.85322 0.0
C858 C 0.47739 0.57592 0.8326 0.0
C859 C 0.47385 0.5477 0.7725 0.0
C860 C 0.47179 0.54684 0.73264 0.0
C861 C 0.47419 0.57527 0.79358 0.0
C862 C 0.4699 0.57512 0.71562 0.0
C863 C 0.46942 0.60217 0.73627 0.0
H864 H 0.81508 0.22194 0.61979 0.0
H865 H 0.74615 0.23477 0.53835 0.0
H866 H 0.78361 0.23505 0.48909 0.0
H867 H 0.83721 0.23186 0.4668 0.0
H868 H 0.90561 0.21524 0.54787 0.0
H869 H 0.86831 0.21624 0.59721 0.0
C870 C 0.80793 0.22487 0.59136 0.0
C871 C 0.77656 0.2286 0.5842 0.0
C872 C 0.83022 0.22425 0.56192 0.0
C873 C 0.76924 0.23189 0.54616 0.0
C874 C 0.79108 0.23207 0.51739 0.0
C875 C 0.84425 0.22826 0.49515 0.0
C876 C 0.87547 0.22334 0.50219 0.0
C877 C 0.82187 0.22826 0.5245 0.0
C878 C 0.88261 0.21884 0.54009 0.0
C879 C 0.86088 0.21953 0.56894 0.0
H880 H 0.23091 0.57082 0.37281 0.0
H881 H 0.23462 0.50216 0.2902 0.0
H882 H 0.23561 0.53983 0.24124 0.0
H883 H 0.23509 0.59357 0.21956 0.0
H884 H 0.23553 0.66207 0.30259 0.0
H885 H 0.23334 0.62439 0.35135 0.0
C886 C 0.23198 0.56375 0.34418 0.0
C887 C 0.23247 0.53236 0.33658 0.0
C888 C 0.23336 0.58626 0.31509 0.0
C889 C 0.23417 0.52523 0.29836 0.0
C890 C 0.23472 0.5472 0.26977 0.0
C891 C 0.2349 0.60058 0.24825 0.0
C892 C 0.23563 0.63195 0.25601 0.0
C893 C 0.2343 0.57802 0.27737 0.0
C894 C 0.23532 0.63902 0.29431 0.0
C895 C 0.23392 0.61704 0.3228 0.0
H896 H 0.81284 0.70365 0.38736 0.0
H897 H 0.74461 0.71917 0.46876 0.0
H898 H 0.7823 0.71875 0.51791 0.0
H899 H 0.83591 0.71427 0.53998 0.0
H900 H 0.90354 0.69566 0.45879 0.0
H901 H 0.86598 0.69699 0.40967 0.0
C902 C 0.80589 0.70702 0.41577 0.0
C903 C 0.77468 0.71171 0.42298 0.0
C904 C 0.82828 0.7061 0.44507 0.0
C905 C 0.76758 0.71557 0.46095 0.0
C906 C 0.78955 0.71533 0.48963 0.0
C907 C 0.84272 0.71027 0.51165 0.0
C908 C 0.87379 0.70465 0.50449 0.0
C909 C 0.8202 0.71061 0.48244 0.0
C910 C 0.88066 0.69975 0.46664 0.0
C911 C 0.85879 0.70065 0.43793 0.0
H912 H 0.22816 0.11357 0.79184 0.0
H913 H 0.23695 0.18178 0.70889 0.0
H914 H 0.23543 0.1442 0.66014 0.0
H915 H 0.2332 1.05137 0.63864 0.0
H916 H 0.22878 0.98288 0.72169 0.0
H917 H 0.22885 1.02056 0.77045 0.0
C918 C 0.22996 0.12051 0.76319 0.0
C919 C 0.23278 0.15176 0.75543 0.0
C920 C 0.23153 1.05865 0.73415 0.0
C921 C 0.23501 0.15878 0.71719 0.0
C922 C 0.23403 0.13688 0.68868 0.0
C923 C 0.23223 1.04437 0.66733 0.0
C924 C 0.23073 1.01304 0.67512 0.0
C925 C 0.2314 0.10618 0.6964 0.0
C926 C 0.22991 1.00592 0.71341 0.0
C927 C 0.22993 1.02789 0.74189 0.0
H928 H 0.76931 0.45864 0.9594 0.0
H929 H 0.82043 0.47718 0.0666 0.0
H930 H 0.86693 0.47848 0.03097 0.0
H931 H 0.89376 0.47438 0.96285 0.0
H932 H 0.84451 0.45088 0.86452 0.0
H933 H 0.79811 0.45169 0.89977 0.0
C934 C 0.79006 0.46329 0.97366 0.0
C935 C 0.79101 0.46807 0.0205 0.0
C936 C 0.81778 0.46311 0.9526 0.0
C937 C 0.81923 0.47326 0.03704 0.0
C938 C 0.84634 0.47399 0.01629 0.0
C939 C 0.87301 0.46941 0.94878 0.0
C940 C 0.87399 0.46267 0.90971 0.0
C941 C 0.84533 0.46913 0.9701 0.0
C942 C 0.84581 0.45616 0.89374 0.0
C943 C 0.81868 0.45666 0.91425 0.0
H944 H 0.4784 1.0599 0.29534 0.0
H945 H 0.465 0.99195 0.21306 0.0
H946 H 0.46638 1.02929 0.16418 0.0
H947 H 0.46965 0.12163 0.14205 0.0
H948 H 0.47974 0.19042 0.22372 0.0
H949 H 0.47958 0.153 0.27308 0.0
C950 C 0.47565 1.05295 0.26682 0.0
C951 C 0.47147 1.02175 0.25939 0.0
C952 C 0.47418 0.11478 0.23751 0.0
C953 C 0.46802 1.01484 0.22124 0.0
C954 C 0.46891 1.03662 0.19259 0.0
C955 C 0.47186 0.12879 0.17056 0.0
C956 C 0.47493 0.16009 0.17772 0.0
C957 C 0.47111 0.10653 0.19993 0.0
C958 C 0.47738 0.16738 0.21587 0.0
C959 C 0.4773 0.14555 0.24469 0.0
H960 H 0.29257 0.45769 0.54315 0.0
H961 H 0.34109 0.4786 0.44356 0.0
H962 H 0.38767 0.48033 0.47901 0.0
H963 H 0.41664 0.47548 0.53921 0.0
H964 H 0.36856 0.44987 0.63752 0.0
H965 H 0.32181 0.45044 0.60263 0.0
C966 C 0.31319 0.46293 0.52895 0.0
C967 C 0.31205 0.46857 0.48969 0.0
C968 C 0.34098 0.46293 0.54987 0.0
C969 C 0.34007 0.47441 0.47308 0.0
C970 C 0.36721 0.47536 0.4937 0.0
C971 C 0.39606 0.47004 0.55336 0.0
C972 C 0.39739 0.46282 0.59223 0.0
C973 C 0.36832 0.46961 0.53229 0.0
C974 C 0.36949 0.45558 0.60839 0.0
C975 C 0.34221 0.45595 0.5881 0.0
H976 H 0.95153 0.12058 0.37 0.0
H977 H 0.94583 0.18947 0.2877 0.0
H978 H 0.94503 0.15195 0.23859 0.0
H979 H 0.94801 1.05888 0.21679 0.0
H980 H 0.94989 0.99025 0.29986 0.0
H981 H 0.95179 1.02782 0.34855 0.0
C982 C 0.95005 0.12773 0.3414 0.0
C983 C 0.94892 0.1591 0.33391 0.0
C984 C 0.94883 0.10533 0.31231 0.0
C985 C 0.94676 0.16638 0.29575 0.0
C986 C 0.94632 0.1445 0.26709 0.0
C987 C 0.94858 1.05183 0.24549 0.0
C988 C 0.94854 1.02045 0.25329 0.0
C989 C 0.94734 0.11367 0.27462 0.0
C990 C 0.94946 1.01331 0.29157 0.0
C991 C 0.95072 1.03521 0.32002 0.0
H992 H 0.28585 0.70078 0.04107 0.0
H993 H 0.33657 0.71273 0.14144 0.0
H994 H 0.38277 0.71148 0.10595 0.0
H995 H 0.41119 0.70752 0.04551 0.0
H996 H 0.35899 0.69986 0.93687 0.0
H997 H 0.31253 0.6991 0.97246 0.0
C998 C 0.30686 0.70303 0.05557 0.0
C999 C 0.30625 0.7067 0.09534 0.0
C1000 C 0.3346 0.70297 0.03417 0.0
C1001 C 0.33488 0.70987 0.11173 0.0
C1002 C 0.36194 0.70911 0.09104 0.0
C1003 C 0.39021 0.70534 0.03088 0.0
C1004 C 0.38904 0.70352 0.98354 0.0
C1005 C 0.36249 0.7057 0.05208 0.0
C1006 C 0.36049 0.70143 0.96675 0.0
C1007 C 0.33334 0.70102 0.98751 0.0
H1008 H 0.7112 0.16299 0.79498 0.0
H1009 H 0.71249 0.11512 0.6919 0.0
H1010 H 0.7149 1.02875 0.72592 0.0
H1011 H 0.71447 0.99906 0.78614 0.0
H1012 H 0.70847 1.04742 0.8887 0.0
H1013 H 0.70855 0.13352 0.85467 0.0
C1014 C 0.71191 0.14241 0.77961 0.0
C1015 C 0.71234 0.14392 0.73974 0.0
C1016 C 0.71135 0.11441 0.7999 0.0
C1017 C 0.71244 0.11592 0.72189 0.0
C1018 C 0.71451 1.04914 0.7417 0.0
C1019 C 0.7137 1.01968 0.8014 0.0
C1020 C 0.71158 1.01831 0.84126 0.0
C1021 C 0.71392 1.04769 0.78094 0.0
C1022 C 0.71015 1.04641 0.8588 0.0
C1023 C 0.7095 0.1131 0.83899 0.0
H1024 H 0.57174 0.18027 0.85348 0.0
H1025 H 0.62732 0.23901 0.91823 0.0
H1026 H 0.65524 0.25275 0.86286 0.0
H1027 H 0.66485 0.24699 0.79717 0.0
H1028 H 0.61098 0.18709 0.73169 0.0
H1029 H 0.58117 0.17499 0.78647 0.0
C1030 C 0.59012 0.19589 0.85544 0.0
C1031 C 0.59751 0.20858 0.88987 0.0
C1032 C 0.60621 0.20357 0.8235 0.0
C1033 C 0.62104 0.22916 0.89198 0.0
C1034 C 0.63706 0.23696 0.86039 0.0
C1035 C 0.64647 0.23141 0.79461 0.0
C1036 C 0.64022 0.2179 0.76036 0.0
C1037 C 0.62989 0.22422 0.82612 0.0
C1038 C 0.61626 0.19784 0.75773 0.0
C1039 C 0.5993 0.1908 0.78906 0.0
H1040 H 0.70247 0.818 0.12665 0.0
H1041 H 0.79712 0.81046 0.10864 0.0
H1042 H 0.79235 0.83674 0.04961 0.0
H1043 H 0.75957 0.86499 0.99754 0.0
H1044 H 0.66708 0.87245 0.02469 0.0
H1045 H 0.67143 0.84243 0.08061 0.0
C1046 C 0.72201 0.82154 0.10952 0.0
C1047 C 0.7501 0.81234 0.12209 0.0
C1048 C 0.71912 0.83661 0.0758 0.0
C1049 C 0.77527 0.81769 0.09983 0.0
C1050 C 0.77255 0.83254 0.06598 0.0
C1051 C 0.74184 0.85913 0.02121 0.0
C1052 C 0.71404 0.87068 0.01095 0.0
C1053 C 0.74461 0.84246 0.05392 0.0
C1054 C 0.68875 0.8639 0.03229 0.0
C1055 C 0.69122 0.84682 0.06428 0.0
H1056 H 1.02222 0.99611 0.26413 0.0
H1057 H 1.02914 0.90101 0.27121 0.0
H1058 H 1.05811 0.90554 0.32838 0.0
H1059 H 0.12198 0.9364 0.37738 0.0
H1060 H 0.11126 1.03136 0.37322 0.0
H1061 H 1.04365 1.02706 0.31353 0.0
C1062 C 1.03054 0.97646 0.27793 0.0
C1063 C 1.02392 0.9483 0.26351 0.0
C1064 C 1.04632 0.9792 0.31133 0.0
C1065 C 1.03413 0.92291 0.28193 0.0
C1066 C 1.0506 0.92549 0.31458 0.0
C1067 C 0.11391 0.95617 0.36364 0.0
C1068 C 0.11848 0.98415 0.3799 0.0
C1069 C 1.05642 0.9535 0.32981 0.0
C1070 C 0.10841 1.00956 0.36119 0.0
C1071 C 1.05144 1.00713 0.32713 0.0
H1072 H 0.91192 0.31461 0.49522 0.0
H1073 H 0.99564 0.28017 0.53493 0.0
H1074 H 0.99205 0.31071 0.59033 0.0
H1075 H 0.96337 0.34394 0.62969 0.0
H1076 H 0.8789 0.37739 0.59165 0.0
H1077 H 0.88448 0.35036 0.53332 0.0
C1078 C 0.92957 0.31413 0.51575 0.0
C1079 C 0.95391 0.29507 0.51109 0.0
C1080 C 0.9271 0.33131 0.54795 0.0
C1081 C 0.97654 0.29451 0.53801 0.0
C1082 C 0.97452 0.31194 0.56972 0.0
C1083 C 0.94646 0.34579 0.60834 0.0
C1084 C 0.92078 0.36257 0.61488 0.0
C1085 C 0.94964 0.32996 0.57528 0.0
C1086 C 0.89875 0.36433 0.58728 0.0
C1087 C 0.90197 0.34897 0.55397 0.0
H1088 H 0.6094 0.99495 0.16149 0.0
H1089 H 0.57903 0.91452 0.10857 0.0
H1090 H 0.5514 0.90078 0.16424 0.0
H1091 H 0.53356 0.91311 0.22608 0.0
H1092 H 0.56354 0.99363 0.27922 0.0
H1093 H 0.59459 1.00535 0.22558 0.0
C1094 C 0.59714 0.97419 0.16238 0.0
C1095 C 0.59594 0.95594 0.13087 0.0
C1096 C 0.58141 0.96639 0.19446 0.0
C1097 C 0.57975 0.92923 0.13225 0.0
C1098 C 0.56414 0.92126 0.16411 0.0
C1099 C 0.54711 0.93309 0.22614 0.0
C1100 C 0.54606 0.9526 0.25638 0.0
C1101 C 0.56443 0.93993 0.19509 0.0
C1102 C 0.564 0.97821 0.25625 0.0
C1103 C 0.58158 0.98504 0.2255 0.0
H1104 H 0.48609 0.35401 0.88347 0.0
H1105 H 0.39019 0.35243 0.89238 0.0
H1106 H 0.3937 0.32507 0.95054 0.0
H1107 H 0.42387 0.29913 0.9969 0.0
H1108 H 0.51944 0.29714 0.98513 0.0
H1109 H 0.51622 0.32817 0.92969 0.0
C1110 C 0.46593 0.3475 0.89795 0.0
C1111 C 0.43794 0.3552 0.88351 0.0
C1112 C 0.46806 0.33114 0.93081 0.0
C1113 C 0.41205 0.34713 0.90309 0.0
C1114 C 0.41401 0.33131 0.93623 0.0
C1115 C 0.44398 0.30591 0.98246 0.0
C1116 C 0.47184 0.29617 0.99498 0.0
C1117 C 0.44188 0.32298 0.95014 0.0
C1118 C 0.49775 0.30449 0.9758 0.0
C1119 C 0.49592 0.32215 0.94417 0.0
H1120 H 0.19648 0.22365 0.70292 0.0
H1121 H 0.12037 0.21741 0.77554 0.0
H1122 H 1.0459 0.20595 0.72238 0.0
H1123 H 1.03998 0.19688 0.65531 0.0
H1124 H 0.15936 0.20144 0.58403 0.0
H1125 H 0.19086 0.21402 0.63697 0.0
C1126 C 0.17281 0.22006 0.70716 0.0
C1127 C 0.1607 0.22162 0.74299 0.0
C1128 C 0.15481 0.21288 0.67683 0.0
C1129 C 0.13013 0.21639 0.74812 0.0
C1130 C 0.11183 0.20981 0.7178 0.0
C1131 C 1.06364 0.20077 0.65147 0.0
C1132 C 0.11859 0.19825 0.61595 0.0
C1133 C 0.124 0.20786 0.68205 0.0
C1134 C 0.1493 0.20295 0.61123 0.0
C1135 C 0.16725 0.21033 0.64139 0.0
H1136 H 0.23011 0.9104 0.45939 0.0
H1137 H 0.24738 0.83737 0.53349 0.0
H1138 H 0.25793 0.80531 0.48031 0.0
H1139 H 0.26291 0.79863 0.41258 0.0
H1140 H 0.24742 0.87286 0.33979 0.0
H1141 H 0.23559 0.90411 0.39288 0.0
C1142 C 0.23584 0.88736 0.46397 0.0
C1143 C 0.23764 0.8761 0.50019 0.0
C1144 C 0.24241 0.86945 0.43356 0.0
C1145 C 0.24578 0.84644 0.50575 0.0
C1146 C 0.25181 0.82817 0.47542 0.0
C1147 C 0.2568 0.82162 0.4085 0.0
C1148 C 0.25601 0.83354 0.3725 0.0
C1149 C 0.2503 0.83951 0.43919 0.0
C1150 C 0.24843 0.86338 0.36735 0.0
C1151 C 0.24153 0.88117 0.39761 0.0
H1152 H 1.06345 0.71848 0.37541 0.0
H1153 H 1.05303 0.62461 0.35679 0.0
H1154 H 0.12238 0.62898 0.29815 0.0
H1155 H 0.15191 0.65911 0.25424 0.0
H1156 H 0.16337 0.75265 0.27474 0.0
H1157 H 0.1324 0.74891 0.33004 0.0
C1158 C 0.10894 0.69906 0.35821 0.0
C1159 C 1.05633 0.67126 0.37053 0.0
C1160 C 0.12466 0.70169 0.3248 0.0
C1161 C 1.06103 0.64622 0.34816 0.0
C1162 C 0.11871 0.64872 0.31456 0.0
C1163 C 0.14711 0.67872 0.27048 0.0
C1164 C 0.1599 0.70609 0.26053 0.0
C1165 C 0.12986 0.67628 0.30287 0.0
C1166 C 0.15388 0.73129 0.28201 0.0
C1167 C 0.13623 0.72918 0.31367 0.0
H1168 H 0.2299 0.35763 0.63901 0.0
H1169 H 0.29684 0.30316 0.58839 0.0
H1170 H 0.28846 0.32783 0.52848 0.0
H1171 H 0.26389 0.36743 0.49183 0.0
H1172 H 0.19562 0.41999 0.54417 0.0
H1173 H 0.20257 0.39342 0.60176 0.0
C1174 C 0.24251 0.35113 0.61473 0.0
C1175 C 0.26416 0.32906 0.61789 0.0
C1176 C 0.23736 0.3651 0.5807 0.0
C1177 C 0.28013 0.3203 0.58637 0.0
C1178 C 0.27537 0.33442 0.55226 0.0
C1179 C 0.25031 0.37278 0.5157 0.0
C1180 C 0.22951 0.39596 0.51353 0.0
C1181 C 0.2543 0.35721 0.54922 0.0
C1182 C 0.21196 0.40245 0.54479 0.0
C1183 C 0.21592 0.3873 0.57798 0.0
H1184 H 0.54409 0.429 0.77107 0.0
H1185 H 0.56342 0.51504 0.72432 0.0
H1186 H 0.5955 0.52674 0.77713 0.0
H1187 H 0.61264 0.51478 0.8399 0.0
H1188 H 0.59299 0.42875 0.88658 0.0
H1189 H 0.56605 0.41485 0.83041 0.0
C1190 C 0.55564 0.45017 0.77224 0.0
C1191 C 0.55114 0.4713 0.74428 0.0
C1192 C 0.57355 0.45689 0.80282 0.0
C1193 C 0.56658 0.49843 0.74564 0.0
C1194 C 0.58472 0.50521 0.77592 0.0
C1195 C 0.60304 0.49276 0.83746 0.0
C1196 C 0.60433 0.473 0.86752 0.0
C1197 C 0.58759 0.48495 0.80518 0.0
C1198 C 0.59163 0.4446 0.86408 0.0
C1199 C 0.57639 0.43658 0.83196 0.0
H1200 H 0.49974 0.76508 0.03563 0.0
H1201 H 0.42302 0.80175 0.96848 0.0
H1202 H 0.4134 0.83314 0.02897 0.0
H1203 H 0.42229 0.84731 0.09427 0.0
H1204 H 0.49643 0.80917 0.15333 0.0
H1205 H 0.51022 0.78092 0.0985 0.0
C1206 C 0.48097 0.78004 0.03397 0.0
C1207 C 0.46111 0.78104 0.99454 0.0
C1208 C 0.47413 0.79759 0.06462 0.0
C1209 C 0.43718 0.8009 0.99276 0.0
C1210 C 0.43239 0.8185 0.03062 0.0
C1211 C 0.44167 0.83309 0.0949 0.0
C1212 C 0.45814 0.83003 0.12788 0.0
C1213 C 0.4494 0.81676 0.06326 0.0
C1214 C 0.4831 0.81144 0.12846 0.0
C1215 C 0.4911 0.79544 0.0971 0.0
H1216 H 0.1356 0.51317 0.65875 0.0
H1217 H 1.03986 0.45377 0.59202 0.0
H1218 H 1.01077 0.43979 0.64619 0.0
H1219 H 0.99948 0.44542 0.71121 0.0
H1220 H 1.05033 0.50628 0.77884 0.0
H1221 H 0.12404 0.51863 0.72539 0.0
C1222 C 0.11746 0.49734 0.6561 0.0
C1223 C 0.11116 0.48444 0.62145 0.0
C1224 C 1.05817 0.48958 0.68738 0.0
C1225 C 1.04545 0.46369 0.61846 0.0
C1226 C 1.02872 0.45576 0.64937 0.0
C1227 C 1.01751 0.46125 0.7146 0.0
C1228 C 1.0225 0.47492 0.74904 0.0
C1229 C 1.03485 0.46863 0.68383 0.0
C1230 C 1.04604 0.49537 0.75265 0.0
C1231 C 1.06385 0.50255 0.72207 0.0
H1232 H 0.90612 0.84365 0.40169 0.0
H1233 H 0.97161 0.79288 0.34198 0.0
H1234 H 0.98449 0.76633 0.39857 0.0
H1235 H 0.97584 0.75623 0.46363 0.0
H1236 H 0.9087 0.80462 0.52369 0.0
H1237 H 0.89801 0.83387 0.46814 0.0
C1238 C 0.92304 0.82662 0.40108 0.0
C1239 C 0.93783 0.82014 0.36775 0.0
C1240 C 0.93015 0.81124 0.43364 0.0
C1241 C 0.9601 0.79842 0.3674 0.0
C1242 C 0.96742 0.78319 0.39967 0.0
C1243 C 0.95891 0.77323 0.46482 0.0
C1244 C 0.94292 0.77806 0.49771 0.0
C1245 C 0.95244 0.78931 0.43279 0.0
C1246 C 0.92135 0.80046 0.49871 0.0
C1247 C 0.9151 0.81704 0.46692 0.0
H1248 H 0.58483 0.71909 0.1322 0.0
H1249 H 0.56172 0.62935 0.16235 0.0
H1250 H 0.58947 0.63456 0.22041 0.0
H1251 H 0.62316 0.66366 0.26036 0.0
H1252 H 0.64698 0.75293 0.22842 0.0
H1253 H 0.61555 0.74903 0.1736 0.0
C1254 C 0.58532 0.70087 0.15182 0.0
C1255 C 0.57132 0.6739 0.14304 0.0
C1256 C 0.60151 0.70391 0.18475 0.0
C1257 C 0.57263 0.65027 0.1684 0.0
C1258 C 0.5884 0.65325 0.20159 0.0
C1259 C 0.62107 0.68238 0.24168 0.0
C1260 C 0.63745 0.70846 0.24828 0.0
C1261 C 0.60337 0.67982 0.20975 0.0
C1262 C 0.63476 0.7325 0.22374 0.0
C1263 C 0.61681 0.73032 0.19238 0.0
H1264 H 0.69815 0.42079 0.95734 0.0
H1265 H 0.73854 0.35792 0.04164 0.0
H1266 H 0.74854 0.32521 0.98241 0.0
H1267 H 0.74945 0.31509 0.91468 0.0
H1268 H 0.71275 0.37965 0.8394 0.0
H1269 H 0.69873 0.41099 0.89145 0.0
C1270 C 0.70888 0.39981 0.96309 0.0
C1271 C 0.71631 0.39201 0.99972 0.0
C1272 C 0.71619 0.38139 0.93338 0.0
C1273 C 0.73249 0.36444 0.01375 0.0
C1274 C 0.73744 0.34597 0.97668 0.0
C1275 C 0.73825 0.33597 0.90986 0.0
C1276 C 0.73227 0.3452 0.87331 0.0
C1277 C 0.73059 0.35415 0.94004 0.0
C1278 C 0.71792 0.37232 0.86727 0.0
C1279 C 0.70978 0.39016 0.89699 0.0
H1280 H 0.29544 0.24452 0.18699 0.0
H1281 H 0.27947 0.32402 0.12407 0.0
H1282 H 0.23778 0.33632 0.16448 0.0
H1283 H 0.22168 0.3342 0.22883 0.0
H1284 H 0.24611 0.25998 0.29726 0.0
H1285 H 0.26721 0.23495 0.24352 0.0
C1286 C 0.28176 0.26367 0.18093 0.0
C1287 C 0.29096 0.28395 0.15359 0.0
C1288 C 0.25965 0.27181 0.2062 0.0
C1289 C 0.27303 0.30851 0.14558 0.0
C1290 C 0.24943 0.31566 0.16897 0.0
C1291 C 0.23006 0.3118 0.23152 0.0
C1292 C 0.23357 0.29936 0.26697 0.0
C1293 C 0.2447 0.29903 0.20134 0.0
C1294 C 0.2439 0.27018 0.27021 0.0
C1295 C 0.25639 0.25612 0.23956 0.0
H1296 H 0.68159 0.52763 0.41951 0.0
H1297 H 0.59993 0.52641 0.35662 0.0
H1298 H 0.58431 0.4811 0.38819 0.0
H1299 H 0.58556 0.45693 0.44854 0.0
H1300 H 0.66345 0.46493 0.51758 0.0
H1301 H 0.68977 0.49077 0.46795 0.0
C1302 C 0.66112 0.51657 0.41124 0.0
C1303 C 0.64122 0.53092 0.38715 0.0
C1304 C 0.65143 0.49185 0.43143 0.0
C1305 C 0.61508 0.51615 0.37611 0.0
C1306 C 0.60609 0.49035 0.39436 0.0
C1307 C 0.60889 0.46275 0.45193 0.0
C1308 C 0.62211 0.46069 0.48715 0.0
C1309 C 0.6227 0.48003 0.42462 0.0
C1310 C 0.65257 0.46731 0.49094 0.0
C1311 C 0.66741 0.48256 0.46275 0.0
H1312 H 0.32746 0.76801 0.60889 0.0
H1313 H 0.26165 0.7398 0.68855 0.0
H1314 H 0.29503 0.70127 0.7108 0.0
H1315 H 0.34757 0.69255 0.72381 0.0
H1316 H 0.41469 0.72599 0.64924 0.0
H1317 H 0.37615 0.74405 0.60747 0.0
C1318 C 0.31971 0.75237 0.62965 0.0
C1319 C 0.29294 0.7577 0.64864 0.0
C1320 C 0.33977 0.73158 0.64382 0.0
C1321 C 0.28279 0.73678 0.67466 0.0
C1322 C 0.30199 0.71489 0.68757 0.0
C1323 C 0.35382 0.70219 0.69737 0.0
C1324 C 0.38375 0.70984 0.69066 0.0
C1325 C 0.33154 0.71446 0.67506 0.0
C1326 C 0.3916 0.72113 0.65567 0.0
C1327 C 0.36953 0.73184 0.63203 0.0
H1328 H 0.99657 0.64827 0.10783 0.0
H1329 H 1.0242 0.57548 0.17675 0.0
H1330 H 0.98453 0.54446 0.1513 0.0
H1331 H 0.95911 0.53374 0.09269 0.0
H1332 H 0.93935 0.6051 0.01745 0.0
H1333 H 0.95659 0.64106 0.06274 0.0
C1334 C 0.99276 0.6262 0.11887 0.0
C1335 C 1.014 0.61352 0.14256 0.0
C1336 C 0.97145 0.6079 0.10194 0.0
C1337 C 1.00855 0.58524 0.15747 0.0
C1338 C 0.98606 0.56741 0.14258 0.0
C1339 C 0.95715 0.5573 0.08717 0.0
C1340 C 0.94995 0.56676 0.05115 0.0
C1341 C 0.9698 0.57762 0.11199 0.0
C1342 C 0.94592 0.59717 0.04458 0.0
C1343 C 0.95631 0.61782 0.07033 0.0
H1344 H 0.81897 0.7725 0.8944 0.0
H1345 H 0.73894 0.7413 0.84094 0.0
H1346 H 0.76659 0.70112 0.8121 0.0
H1347 H 0.81472 0.69134 0.78279 0.0
H1348 H 0.89445 0.73039 0.82832 0.0
H1349 H 0.8665 0.74906 0.88079 0.0
C1350 C 0.80724 0.75587 0.87822 0.0
C1351 C 0.77746 0.76063 0.86797 0.0
C1352 C 0.82378 0.73443 0.85941 0.0
C1353 C 0.76223 0.73855 0.84797 0.0
C1354 C 0.77814 0.71577 0.83115 0.0
C1355 C 0.82611 0.70261 0.80531 0.0
C1356 C 0.85598 0.71131 0.80062 0.0
C1357 C 0.80931 0.71582 0.83341 0.0
C1358 C 0.87112 0.72442 0.83056 0.0
C1359 C 0.85498 0.7356 0.86039 0.0
H1360 H 0.78682 0.46306 0.34086 0.0
H1361 H 0.85358 0.47642 0.25677 0.0
H1362 H 0.89215 0.46037 0.29935 0.0
H1363 H 0.90113 0.42313 0.34715 0.0
H1364 H 0.83246 0.40245 0.42645 0.0
H1365 H 0.80094 0.44109 0.40046 0.0
C1366 C 0.81006 0.46391 0.33266 0.0
C1367 C 0.81723 0.46905 0.2953 0.0
C1368 C 0.83174 0.45217 0.35632 0.0
C1369 C 0.84735 0.47154 0.28513 0.0
C1370 C 0.86946 0.46186 0.30938 0.0
C1371 C 0.88001 0.42829 0.36017 0.0
C1372 C 0.8683 0.4091 0.38721 0.0
C1373 C 0.86126 0.44897 0.34325 0.0
C1374 C 0.84135 0.41641 0.40462 0.0
C1375 C 0.8232 0.43829 0.38945 0.0
H1376 H 1.04421 0.23367 0.01784 0.0
H1377 H 0.97884 0.19281 0.93689 0.0
H1378 H 0.95003 0.17522 0.9899 0.0
H1379 H 0.9581 0.15471 0.05964 0.0
H1380 H 1.02818 0.18785 0.13014 0.0
H1381 H 1.04035 0.22595 0.08449 0.0
C1382 C 1.02314 0.22229 0.01344 0.0
C1383 C 1.01325 0.21356 0.97005 0.0
C1384 C 1.00841 0.20998 0.044 0.0
C1385 C 0.98571 0.19936 0.96449 0.0
C1386 C 0.96949 0.18897 0.99486 0.0
C1387 C 0.97488 0.17138 0.0659 0.0
C1388 C 0.99314 0.16788 0.09724 0.0
C1389 C 0.98348 0.19126 0.03807 0.0
C1390 C 1.01441 0.1898 0.10559 0.0
C1391 C 1.02161 0.2113 0.07922 0.0
H1392 H 0.52016 0.1389 0.6296 0.0
H1393 H 0.57604 1.02937 0.67356 0.0
H1394 H 0.53985 0.9926 0.65232 0.0
H1395 H 0.50669 0.98187 0.60012 0.0
H1396 H 0.45979 1.05323 0.54699 0.0
H1397 H 0.47529 0.12686 0.59422 0.0
C1398 C 0.52312 0.11568 0.63644 0.0
C1399 C 0.55032 0.10622 0.65142 0.0
C1400 C 0.50518 1.05533 0.62145 0.0
C1401 C 0.55553 1.03691 0.66095 0.0
C1402 C 0.53497 1.01589 0.64843 0.0
C1403 C 0.49908 1.00465 0.60011 0.0
C1404 C 0.48389 1.01553 0.5689 0.0
C1405 C 0.51165 1.02482 0.62518 0.0
C1406 C 0.47258 1.0445 0.56995 0.0
C1407 C 0.48119 0.10369 0.59671 0.0
loop_
_geom_bond_atom_site_label_1
_geom_bond_atom_site_label_2
_geom_bond_distance
_geom_bond_site_symmetry_2
_ccdc_geom_bond_type
Eu0 C9 2.828 . S
Eu0 O11 2.394 . S
Eu0 O13 2.418 1_556 S
Eu0 O18 2.373 1_556 S
Eu0 O21 2.488 . S
Eu0 O22 2.471 . S
Eu0 O23 2.349 . S
Eu1 O10 2.373 . S
Eu1 O14 2.488 . S
Eu1 O15 2.471 . S
Eu1 O16 2.349 . S
Eu1 O19 2.392 . S
Eu1 O20 2.418 . S
Eu1 C30 2.828 . S
C2 O20 1.244 1_556 S
C2 O23 1.265 . S
C3 C4 1.379 . S
C3 C7 1.373 . S
C3 C9 1.505 . S
C4 C3 1.379 . S
C4 C6 1.369 . S
C4 H32 0.930 . S
C5 C7 1.383 . S
C5 C8 1.382 . S
C5 H33 0.930 . S
C6 C4 1.369 . S
C6 C8 1.392 . S
C6 H34 0.930 . S
C7 C3 1.373 . S
C7 C5 1.383 . S
C7 H35 0.931 . S
C8 C5 1.382 . S
C8 C6 1.392 . S
C9 Eu0 2.828 . S
C9 C3 1.505 . S
C9 O21 1.249 . S
C9 O22 1.244 . S
O10 Eu1 2.373 . S
O10 C12 1.258 . S
O11 Eu0 2.394 . S
O11 C12 1.238 1_556 S
C12 O10 1.258 . S
C12 O11 1.238 1_554 S
O13 Eu0 2.418 1_554 S
O13 C17 1.244 . S
O14 Eu1 2.488 . S
O14 C30 1.249 . S
O15 Eu1 2.471 . S
O15 C30 1.244 . S
O16 Eu1 2.349 . S
O16 C17 1.265 . S
C17 O13 1.244 . S
C17 O16 1.265 . S
O18 Eu0 2.373 1_554 S
O18 C31 1.258 . S
O19 Eu1 2.392 . S
O19 C31 1.242 . S
O20 Eu1 2.418 . S
O20 C2 1.244 1_554 S
O21 Eu0 2.488 . S
O21 C9 1.249 . S
O22 Eu0 2.471 . S
O22 C9 1.244 . S
O23 Eu0 2.349 . S
O23 C2 1.265 . S
C24 C25 1.379 . S
C24 C28 1.373 . S
C24 C30 1.505 . S
C25 C24 1.379 . S
C25 C27 1.369 . S
C25 H36 0.930 . S
C26 C28 1.383 . S
C26 C29 1.382 . S
C26 H37 0.930 . S
C27 C25 1.369 . S
C27 C29 1.392 . S
C27 H38 0.930 . S
C28 C24 1.373 . S
C28 C26 1.383 . S
C28 H39 0.931 . S
C29 C26 1.382 . S
C29 C27 1.392 . S
C30 Eu1 2.828 . S
C30 O14 1.249 . S
C30 O15 1.244 . S
C30 C24 1.505 . S
C31 O18 1.258 . S
C31 O19 1.242 . S
H32 C4 0.930 . S
H33 C5 0.930 . S
H34 C6 0.930 . S
H35 C7 0.931 . S
H36 C25 0.930 . S
H37 C26 0.930 . S
H38 C27 0.930 . S
H39 C28 0.931 . S
Eu40 C49 2.828 . S
Eu40 O51 2.392 . S
Eu40 O53 2.418 . S
Eu40 O58 2.373 . S
Eu40 O61 2.488 . S
Eu40 O62 2.471 . S
Eu40 O63 2.349 . S
Eu41 O50 2.373 . S
Eu41 O54 2.488 . S
Eu41 O55 2.471 . S
Eu41 O56 2.349 . S
Eu41 O59 2.392 . S
Eu41 O60 2.418 . S
Eu41 C70 2.828 . S
C42 O60 1.244 . S
C42 O63 1.265 . S
C43 C44 1.379 . S
C43 C47 1.373 . S
C43 C49 1.505 . S
C44 C43 1.379 . S
C44 C46 1.369 . S
C44 H72 0.930 . S
C45 C47 1.383 . S
C45 C48 1.382 . S
C45 H73 0.930 . S
C46 C44 1.369 . S
C46 C48 1.392 . S
C46 H74 0.930 . S
C47 C43 1.373 . S
C47 C45 1.383 . S
C47 H75 0.931 . S
C48 C45 1.382 . S
C48 C46 1.392 . S
C49 Eu40 2.828 . S
C49 C43 1.505 . S
C49 O61 1.249 . S
C49 O62 1.244 . S
O50 Eu41 2.373 . S
O50 C52 1.258 . S
O51 Eu40 2.392 . S
O51 C52 1.242 . S
C52 O50 1.258 . S
C52 O51 1.242 . S
O53 Eu40 2.418 . S
O53 C57 1.244 . S
O54 Eu41 2.488 . S
O54 C70 1.249 . S
O55 Eu41 2.471 . S
O55 C70 1.244 . S
O56 Eu41 2.349 . S
O56 C57 1.265 . S
C57 O53 1.244 . S
C57 O56 1.265 . S
O58 Eu40 2.373 . S
O58 C71 1.258 . S
O59 Eu41 2.392 . S
O59 C71 1.242 . S
O60 Eu41 2.418 . S
O60 C42 1.244 . S
O61 Eu40 2.488 . S
O61 C49 1.249 . S
O62 Eu40 2.471 . S
O62 C49 1.244 . S
O63 Eu40 2.349 . S
O63 C42 1.265 . S
C64 C65 1.379 . S
C64 C68 1.373 . S
C64 C70 1.505 . S
C65 C64 1.379 . S
C65 C67 1.369 . S
C65 H76 0.930 . S
C66 C68 1.383 . S
C66 C69 1.382 . S
C66 H77 0.930 . S
C67 C65 1.369 . S
C67 C69 1.392 . S
C67 H78 0.930 . S
C68 C64 1.373 . S
C68 C66 1.383 . S
C68 H79 0.931 . S
C69 C66 1.382 . S
C69 C67 1.392 . S
C70 Eu41 2.828 . S
C70 O54 1.249 . S
C70 O55 1.244 . S
C70 C64 1.505 . S
C71 O58 1.258 . S
C71 O59 1.242 . S
H72 C44 0.930 . S
H73 C45 0.930 . S
H74 C46 0.930 . S
H75 C47 0.931 . S
H76 C65 0.930 . S
H77 C66 0.930 . S
H78 C67 0.930 . S
H79 C68 0.931 . S
Eu80 C89 2.828 . S
Eu80 O91 2.392 . S
Eu80 O93 2.418 . S
Eu80 O98 2.373 . S
Eu80 O101 2.488 . S
Eu80 O102 2.471 . S
Eu80 O103 2.349 . S
Eu81 O90 2.373 . S
Eu81 O94 2.488 . S
Eu81 O95 2.471 . S
Eu81 O96 2.349 . S
Eu81 O99 2.392 . S
Eu81 O100 2.418 . S
Eu81 C110 2.828 . S
C82 O100 1.244 . S
C82 O103 1.265 . S
C83 C84 1.379 . S
C83 C87 1.373 . S
C83 C89 1.505 . S
C84 C83 1.379 . S
C84 C86 1.369 . S
C84 H112 0.930 . S
C85 C87 1.383 . S
C85 C88 1.382 1_455 S
C85 H113 0.930 1_455 S
C86 C84 1.369 . S
C86 C88 1.392 1_455 S
C86 H114 0.930 1_455 S
C87 C83 1.373 . S
C87 C85 1.383 . S
C87 H115 0.931 . S
C88 C85 1.382 1_655 S
C88 C86 1.392 1_655 S
C89 Eu80 2.828 . S
C89 C83 1.505 . S
C89 O101 1.249 . S
C89 O102 1.244 . S
O90 Eu81 2.373 . S
O90 C92 1.258 . S
O91 Eu80 2.392 . S
O91 C92 1.242 . S
C92 O90 1.258 . S
C92 O91 1.242 . S
O93 Eu80 2.418 . S
O93 C97 1.244 . S
O94 Eu81 2.488 . S
O94 C110 1.249 . S
O95 Eu81 2.471 . S
O95 C110 1.244 . S
O96 Eu81 2.349 . S
O96 C97 1.265 . S
C97 O93 1.244 . S
C97 O96 1.265 . S
O98 Eu80 2.373 . S
O98 C111 1.258 . S
O99 Eu81 2.392 . S
O99 C111 1.242 . S
O100 Eu81 2.418 . S
O100 C82 1.244 . S
O101 Eu80 2.488 . S
O101 C89 1.249 . S
O102 Eu80 2.471 . S
O102 C89 1.244 . S
O103 Eu80 2.349 . S
O103 C82 1.265 . S
C104 C105 1.379 . S
C104 C108 1.373 . S
C104 C110 1.505 . S
C105 C104 1.379 . S
C105 C107 1.369 . S
C105 H116 0.930 . S
C106 C108 1.383 . S
C106 C109 1.382 . S
C106 H117 0.930 . S
C107 C105 1.369 . S
C107 C109 1.392 . S
C107 H118 0.930 . S
C108 C104 1.373 . S
C108 C106 1.383 . S
C108 H119 0.931 . S
C109 C106 1.382 . S
C109 C107 1.392 . S
C110 Eu81 2.828 . S
C110 O94 1.249 . S
C110 O95 1.244 . S
C110 C104 1.505 . S
C111 O98 1.258 . S
C111 O99 1.242 . S
H112 C84 0.930 . S
H113 C85 0.930 1_655 S
H114 C86 0.930 1_655 S
H115 C87 0.931 . S
H116 C105 0.930 . S
H117 C106 0.930 . S
H118 C107 0.930 . S
H119 C108 0.931 . S
Eu120 C129 2.828 . S
Eu120 O131 2.392 . S
Eu120 O133 2.418 . S
Eu120 O138 2.373 . S
Eu120 O141 2.488 . S
Eu120 O142 2.471 . S
Eu120 O143 2.349 . S
Eu121 O130 2.373 . S
Eu121 O134 2.488 . S
Eu121 O135 2.471 . S
Eu121 O136 2.349 . S
Eu121 O139 2.392 . S
Eu121 O140 2.418 . S
Eu121 C150 2.828 . S
C122 O140 1.244 . S
C122 O143 1.265 . S
C123 C124 1.379 . S
C123 C127 1.373 . S
C123 C129 1.505 . S
C124 C123 1.379 . S
C124 C126 1.369 . S
C124 H152 0.930 . S
C125 C127 1.383 . S
C125 C128 1.382 . S
C125 H153 0.930 . S
C126 C124 1.369 . S
C126 C128 1.392 . S
C126 H154 0.930 . S
C127 C123 1.373 . S
C127 C125 1.383 . S
C127 H155 0.931 . S
C128 C125 1.382 . S
C128 C126 1.392 . S
C129 Eu120 2.828 . S
C129 C123 1.505 . S
C129 O141 1.249 . S
C129 O142 1.244 . S
O130 Eu121 2.373 . S
O130 C132 1.258 . S
O131 Eu120 2.392 . S
O131 C132 1.242 . S
C132 O130 1.258 . S
C132 O131 1.242 . S
O133 Eu120 2.418 . S
O133 C137 1.244 . S
O134 Eu121 2.488 . S
O134 C150 1.249 . S
O135 Eu121 2.471 . S
O135 C150 1.244 . S
O136 Eu121 2.349 . S
O136 C137 1.265 . S
C137 O133 1.244 . S
C137 O136 1.265 . S
O138 Eu120 2.373 . S
O138 C151 1.258 . S
O139 Eu121 2.392 . S
O139 C151 1.242 . S
O140 Eu121 2.418 . S
O140 C122 1.244 . S
O141 Eu120 2.488 . S
O141 C129 1.249 . S
O142 Eu120 2.471 . S
O142 C129 1.244 . S
O143 Eu120 2.349 . S
O143 C122 1.265 . S
C144 C145 1.379 . S
C144 C148 1.373 . S
C144 C150 1.505 . S
C145 C144 1.379 . S
C145 C147 1.369 . S
C145 H156 0.930 . S
C146 C148 1.383 . S
C146 C149 1.382 . S
C146 H157 0.930 . S
C147 C145 1.369 . S
C147 C149 1.392 . S
C147 H158 0.930 . S
C148 C144 1.373 . S
C148 C146 1.383 . S
C148 H159 0.931 . S
C149 C146 1.382 . S
C149 C147 1.392 . S
C150 Eu121 2.828 . S
C150 O134 1.249 . S
C150 O135 1.244 . S
C150 C144 1.505 . S
C151 O138 1.258 . S
C151 O139 1.242 . S
H152 C124 0.930 . S
H153 C125 0.930 . S
H154 C126 0.930 . S
H155 C127 0.931 . S
H156 C145 0.930 . S
H157 C146 0.930 . S
H158 C147 0.930 . S
H159 C148 0.931 . S
Eu160 C169 2.828 . S
Eu160 O171 2.392 . S
Eu160 O173 2.418 . S
Eu160 O178 2.373 . S
Eu160 O181 2.488 . S
Eu160 O182 2.471 . S
Eu160 O183 2.349 . S
Eu161 O170 2.373 1_554 S
Eu161 O174 2.488 . S
Eu161 O175 2.471 . S
Eu161 O176 2.349 . S
Eu161 O179 2.394 . S
Eu161 O180 2.418 1_554 S
Eu161 C190 2.828 . S
C162 O180 1.244 . S
C162 O183 1.265 . S
C163 C164 1.379 . S
C163 C167 1.373 . S
C163 C169 1.505 . S
C164 C163 1.379 . S
C164 C166 1.369 . S
C164 H192 0.930 . S
C165 C167 1.383 . S
C165 C168 1.382 . S
C165 H193 0.930 . S
C166 C164 1.369 . S
C166 C168 1.392 . S
C166 H194 0.930 . S
C167 C163 1.373 . S
C167 C165 1.383 . S
C167 H195 0.931 . S
C168 C165 1.382 . S
C168 C166 1.392 . S
C169 Eu160 2.828 . S
C169 C163 1.505 . S
C169 O181 1.249 . S
C169 O182 1.244 . S
O170 Eu161 2.373 1_556 S
O170 C172 1.258 . S
O171 Eu160 2.392 . S
O171 C172 1.242 . S
C172 O170 1.258 . S
C172 O171 1.242 . S
O173 Eu160 2.418 . S
O173 C177 1.244 1_556 S
O174 Eu161 2.488 . S
O174 C190 1.249 . S
O175 Eu161 2.471 . S
O175 C190 1.244 . S
O176 Eu161 2.349 . S
O176 C177 1.265 . S
C177 O173 1.244 1_554 S
C177 O176 1.265 . S
O178 Eu160 2.373 . S
O178 C191 1.258 . S
O179 Eu161 2.394 . S
O179 C191 1.238 1_554 S
O180 Eu161 2.418 1_556 S
O180 C162 1.244 . S
O181 Eu160 2.488 . S
O181 C169 1.249 . S
O182 Eu160 2.471 . S
O182 C169 1.244 . S
O183 Eu160 2.349 . S
O183 C162 1.265 . S
C184 C185 1.379 . S
C184 C188 1.373 . S
C184 C190 1.505 . S
C185 C184 1.379 . S
C185 C187 1.369 . S
C185 H196 0.930 . S
C186 C188 1.383 . S
C186 C189 1.382 . S
C186 H197 0.930 . S
C187 C185 1.369 . S
C187 C189 1.392 . S
C187 H198 0.930 . S
C188 C184 1.373 . S
C188 C186 1.383 . S
C188 H199 0.931 . S
C189 C186 1.382 . S
C189 C187 1.392 . S
C190 Eu161 2.828 . S
C190 O174 1.249 . S
C190 O175 1.244 . S
C190 C184 1.505 . S
C191 O178 1.258 . S
C191 O179 1.238 1_556 S
H192 C164 0.930 . S
H193 C165 0.930 . S
H194 C166 0.930 . S
H195 C167 0.931 . S
H196 C185 0.930 . S
H197 C186 0.930 . S
H198 C187 0.930 . S
H199 C188 0.931 . S
Eu200 C209 2.828 . S
Eu200 O211 2.392 . S
Eu200 O213 2.418 . S
Eu200 O218 2.373 . S
Eu200 O221 2.488 . S
Eu200 O222 2.471 . S
Eu200 O223 2.349 . S
Eu201 O210 2.373 . S
Eu201 O214 2.488 . S
Eu201 O215 2.471 . S
Eu201 O216 2.349 . S
Eu201 O219 2.392 . S
Eu201 O220 2.418 . S
Eu201 C230 2.828 . S
C202 O220 1.244 . S
C202 O223 1.265 . S
C203 C204 1.379 . S
C203 C207 1.373 . S
C203 C209 1.505 . S
C204 C203 1.379 . S
C204 C206 1.369 . S
C204 H232 0.930 . S
C205 C207 1.383 . S
C205 C208 1.382 . S
C205 H233 0.930 . S
C206 C204 1.369 . S
C206 C208 1.392 . S
C206 H234 0.930 . S
C207 C203 1.373 . S
C207 C205 1.383 . S
C207 H235 0.931 . S
C208 C205 1.382 . S
C208 C206 1.392 . S
C209 Eu200 2.828 . S
C209 C203 1.505 . S
C209 O221 1.249 . S
C209 O222 1.244 . S
O210 Eu201 2.373 . S
O210 C212 1.258 . S
O211 Eu200 2.392 . S
O211 C212 1.242 . S
C212 O210 1.258 . S
C212 O211 1.242 . S
O213 Eu200 2.418 . S
O213 C217 1.244 . S
O214 Eu201 2.488 . S
O214 C230 1.249 . S
O215 Eu201 2.471 . S
O215 C230 1.244 . S
O216 Eu201 2.349 . S
O216 C217 1.265 . S
C217 O213 1.244 . S
C217 O216 1.265 . S
O218 Eu200 2.373 . S
O218 C231 1.258 . S
O219 Eu201 2.392 . S
O219 C231 1.242 . S
O220 Eu201 2.418 . S
O220 C202 1.244 . S
O221 Eu200 2.488 . S
O221 C209 1.249 . S
O222 Eu200 2.471 . S
O222 C209 1.244 . S
O223 Eu200 2.349 . S
O223 C202 1.265 . S
C224 C225 1.379 . S
C224 C228 1.373 . S
C224 C230 1.505 . S
C225 C224 1.379 . S
C225 C227 1.369 . S
C225 H236 0.930 . S
C226 C228 1.383 . S
C226 C229 1.382 . S
C226 H237 0.930 . S
C227 C225 1.369 . S
C227 C229 1.392 . S
C227 H238 0.930 . S
C228 C224 1.373 . S
C228 C226 1.383 . S
C228 H239 0.931 . S
C229 C226 1.382 . S
C229 C227 1.392 . S
C230 Eu201 2.828 . S
C230 O214 1.249 . S
C230 O215 1.244 . S
C230 C224 1.505 . S
C231 O218 1.258 . S
C231 O219 1.242 . S
H232 C204 0.930 . S
H233 C205 0.930 . S
H234 C206 0.930 . S
H235 C207 0.931 . S
H236 C225 0.930 . S
H237 C226 0.930 . S
H238 C227 0.930 . S
H239 C228 0.931 . S
Eu240 C249 2.828 . S
Eu240 O251 2.392 . S
Eu240 O253 2.418 . S
Eu240 O258 2.373 . S
Eu240 O261 2.488 . S
Eu240 O262 2.471 . S
Eu240 O263 2.349 . S
Eu241 O250 2.373 . S
Eu241 O254 2.488 . S
Eu241 O255 2.471 . S
Eu241 O256 2.349 . S
Eu241 O259 2.392 . S
Eu241 O260 2.418 . S
Eu241 C270 2.828 . S
C242 O260 1.244 . S
C242 O263 1.265 . S
C243 C244 1.379 . S
C243 C247 1.373 . S
C243 C249 1.505 . S
C244 C243 1.379 . S
C244 C246 1.369 . S
C244 H272 0.930 . S
C245 C247 1.383 . S
C245 C248 1.382 . S
C245 H273 0.930 . S
C246 C244 1.369 . S
C246 C248 1.392 . S
C246 H274 0.930 . S
C247 C243 1.373 . S
C247 C245 1.383 . S
C247 H275 0.931 . S
C248 C245 1.382 . S
C248 C246 1.392 . S
C249 Eu240 2.828 . S
C249 C243 1.505 . S
C249 O261 1.249 . S
C249 O262 1.244 . S
O250 Eu241 2.373 . S
O250 C252 1.258 . S
O251 Eu240 2.392 . S
O251 C252 1.242 . S
C252 O250 1.258 . S
C252 O251 1.242 . S
O253 Eu240 2.418 . S
O253 C257 1.244 . S
O254 Eu241 2.488 . S
O254 C270 1.249 . S
O255 Eu241 2.471 . S
O255 C270 1.244 . S
O256 Eu241 2.349 . S
O256 C257 1.265 . S
C257 O253 1.244 . S
C257 O256 1.265 . S
O258 Eu240 2.373 . S
O258 C271 1.258 . S
O259 Eu241 2.392 . S
O259 C271 1.242 . S
O260 Eu241 2.418 . S
O260 C242 1.244 . S
O261 Eu240 2.488 . S
O261 C249 1.249 . S
O262 Eu240 2.471 . S
O262 C249 1.244 . S
O263 Eu240 2.349 . S
O263 C242 1.265 . S
C264 C265 1.379 . S
C264 C268 1.373 . S
C264 C270 1.505 . S
C265 C264 1.379 . S
C265 C267 1.369 . S
C265 H276 0.930 . S
C266 C268 1.383 . S
C266 C269 1.382 1_655 S
C266 H277 0.930 1_655 S
C267 C265 1.369 . S
C267 C269 1.392 1_655 S
C267 H278 0.930 1_655 S
C268 C264 1.373 . S
C268 C266 1.383 . S
C268 H279 0.931 . S
C269 C266 1.382 1_455 S
C269 C267 1.392 1_455 S
C270 Eu241 2.828 . S
C270 O254 1.249 . S
C270 O255 1.244 . S
C270 C264 1.505 . S
C271 O258 1.258 . S
C271 O259 1.242 . S
H272 C244 0.930 . S
H273 C245 0.930 . S
H274 C246 0.930 . S
H275 C247 0.931 . S
H276 C265 0.930 . S
H277 C266 0.930 1_455 S
H278 C267 0.930 1_455 S
H279 C268 0.931 . S
Eu280 C289 2.828 . S
Eu280 O291 2.392 . S
Eu280 O293 2.418 . S
Eu280 O298 2.373 . S
Eu280 O301 2.488 . S
Eu280 O302 2.471 . S
Eu280 O303 2.349 . S
Eu281 O290 2.373 . S
Eu281 O294 2.488 . S
Eu281 O295 2.471 . S
Eu281 O296 2.349 . S
Eu281 O299 2.392 . S
Eu281 O300 2.418 . S
Eu281 C310 2.828 . S
C282 O300 1.244 . S
C282 O303 1.265 . S
C283 C284 1.379 . S
C283 C287 1.373 . S
C283 C289 1.505 . S
C284 C283 1.379 . S
C284 C286 1.369 . S
C284 H312 0.930 . S
C285 C287 1.383 . S
C285 C288 1.382 . S
C285 H313 0.930 . S
C286 C284 1.369 . S
C286 C288 1.392 . S
C286 H314 0.930 . S
C287 C283 1.373 . S
C287 C285 1.383 . S
C287 H315 0.931 . S
C288 C285 1.382 . S
C288 C286 1.392 . S
C289 Eu280 2.828 . S
C289 C283 1.505 . S
C289 O301 1.249 . S
C289 O302 1.244 . S
O290 Eu281 2.373 . S
O290 C292 1.258 . S
O291 Eu280 2.392 . S
O291 C292 1.242 . S
C292 O290 1.258 . S
C292 O291 1.242 . S
O293 Eu280 2.418 . S
O293 C297 1.244 . S
O294 Eu281 2.488 . S
O294 C310 1.249 . S
O295 Eu281 2.471 . S
O295 C310 1.244 . S
O296 Eu281 2.349 . S
O296 C297 1.265 . S
C297 O293 1.244 . S
C297 O296 1.265 . S
O298 Eu280 2.373 . S
O298 C311 1.258 . S
O299 Eu281 2.392 . S
O299 C311 1.242 . S
O300 Eu281 2.418 . S
O300 C282 1.244 . S
O301 Eu280 2.488 . S
O301 C289 1.249 . S
O302 Eu280 2.471 . S
O302 C289 1.244 . S
O303 Eu280 2.349 . S
O303 C282 1.265 . S
C304 C305 1.379 . S
C304 C308 1.373 . S
C304 C310 1.505 . S
C305 C304 1.379 . S
C305 C307 1.369 . S
C305 H316 0.930 . S
C306 C308 1.383 . S
C306 C309 1.382 . S
C306 H317 0.930 . S
C307 C305 1.369 . S
C307 C309 1.392 . S
C307 H318 0.930 . S
C308 C304 1.373 . S
C308 C306 1.383 . S
C308 H319 0.931 . S
C309 C306 1.382 . S
C309 C307 1.392 . S
C310 Eu281 2.828 . S
C310 O294 1.249 . S
C310 O295 1.244 . S
C310 C304 1.505 . S
C311 O298 1.258 . S
C311 O299 1.242 . S
H312 C284 0.930 . S
H313 C285 0.930 . S
H314 C286 0.930 . S
H315 C287 0.931 . S
H316 C305 0.930 . S
H317 C306 0.930 . S
H318 C307 0.930 . S
H319 C308 0.931 . S
Eu320 C329 2.828 . S
Eu320 O331 2.392 . S
Eu320 O333 2.418 . S
Eu320 O338 2.373 . S
Eu320 O341 2.488 . S
Eu320 O342 2.471 . S
Eu320 O343 2.349 . S
Eu321 O330 2.373 . S
Eu321 O334 2.488 . S
Eu321 O335 2.471 . S
Eu321 O336 2.349 . S
Eu321 O339 2.392 . S
Eu321 O340 2.418 . S
Eu321 C350 2.828 . S
C322 O340 1.244 . S
C322 O343 1.265 . S
C323 C324 1.379 . S
C323 C327 1.373 . S
C323 C329 1.505 . S
C324 C323 1.379 . S
C324 C326 1.369 . S
C324 H352 0.930 . S
C325 C327 1.383 . S
C325 C328 1.382 1_655 S
C325 H353 0.930 1_655 S
C326 C324 1.369 . S
C326 C328 1.392 1_655 S
C326 H354 0.930 1_655 S
C327 C323 1.373 . S
C327 C325 1.383 . S
C327 H355 0.931 . S
C328 C325 1.382 1_455 S
C328 C326 1.392 1_455 S
C329 Eu320 2.828 . S
C329 C323 1.505 . S
C329 O341 1.249 . S
C329 O342 1.244 . S
O330 Eu321 2.373 . S
O330 C332 1.258 . S
O331 Eu320 2.392 . S
O331 C332 1.242 . S
C332 O330 1.258 . S
C332 O331 1.242 . S
O333 Eu320 2.418 . S
O333 C337 1.244 . S
O334 Eu321 2.488 . S
O334 C350 1.249 . S
O335 Eu321 2.471 . S
O335 C350 1.244 . S
O336 Eu321 2.349 . S
O336 C337 1.265 . S
C337 O333 1.244 . S
C337 O336 1.265 . S
O338 Eu320 2.373 . S
O338 C351 1.258 . S
O339 Eu321 2.392 . S
O339 C351 1.242 . S
O340 Eu321 2.418 . S
O340 C322 1.244 . S
O341 Eu320 2.488 . S
O341 C329 1.249 . S
O342 Eu320 2.471 . S
O342 C329 1.244 . S
O343 Eu320 2.349 . S
O343 C322 1.265 . S
C344 C345 1.379 . S
C344 C348 1.373 . S
C344 C350 1.505 . S
C345 C344 1.379 . S
C345 C347 1.369 . S
C345 H356 0.930 . S
C346 C348 1.383 . S
C346 C349 1.382 . S
C346 H357 0.930 . S
C347 C345 1.369 . S
C347 C349 1.392 . S
C347 H358 0.930 . S
C348 C344 1.373 . S
C348 C346 1.383 . S
C348 H359 0.931 . S
C349 C346 1.382 . S
C349 C347 1.392 . S
C350 Eu321 2.828 . S
C350 O334 1.249 . S
C350 O335 1.244 . S
C350 C344 1.505 . S
C351 O338 1.258 . S
C351 O339 1.242 . S
H352 C324 0.930 . S
H353 C325 0.930 1_455 S
H354 C326 0.930 1_455 S
H355 C327 0.931 . S
H356 C345 0.930 . S
H357 C346 0.930 . S
H358 C347 0.930 . S
H359 C348 0.931 . S
Eu360 C369 2.828 . S
Eu360 O371 2.392 . S
Eu360 O373 2.418 . S
Eu360 O378 2.373 . S
Eu360 O381 2.488 . S
Eu360 O382 2.471 . S
Eu360 O383 2.349 . S
Eu361 O370 2.373 . S
Eu361 O374 2.488 . S
Eu361 O375 2.471 . S
Eu361 O376 2.349 . S
Eu361 O379 2.392 . S
Eu361 O380 2.418 . S
Eu361 C390 2.828 . S
C362 O380 1.244 . S
C362 O383 1.265 . S
C363 C364 1.379 . S
C363 C367 1.373 . S
C363 C369 1.505 . S
C364 C363 1.379 . S
C364 C366 1.369 . S
C364 H392 0.930 . S
C365 C367 1.383 . S
C365 C368 1.382 . S
C365 H393 0.930 . S
C366 C364 1.369 . S
C366 C368 1.392 . S
C366 H394 0.930 . S
C367 C363 1.373 . S
C367 C365 1.383 . S
C367 H395 0.931 . S
C368 C365 1.382 . S
C368 C366 1.392 . S
C369 Eu360 2.828 . S
C369 C363 1.505 . S
C369 O381 1.249 . S
C369 O382 1.244 . S
O370 Eu361 2.373 . S
O370 C372 1.258 . S
O371 Eu360 2.392 . S
O371 C372 1.242 . S
C372 O370 1.258 . S
C372 O371 1.242 . S
O373 Eu360 2.418 . S
O373 C377 1.244 . S
O374 Eu361 2.488 . S
O374 C390 1.249 . S
O375 Eu361 2.471 . S
O375 C390 1.244 . S
O376 Eu361 2.349 . S
O376 C377 1.265 . S
C377 O373 1.244 . S
C377 O376 1.265 . S
O378 Eu360 2.373 . S
O378 C391 1.258 . S
O379 Eu361 2.392 . S
O379 C391 1.242 . S
O380 Eu361 2.418 . S
O380 C362 1.244 . S
O381 Eu360 2.488 . S
O381 C369 1.249 . S
O382 Eu360 2.471 . S
O382 C369 1.244 . S
O383 Eu360 2.349 . S
O383 C362 1.265 . S
C384 C385 1.379 . S
C384 C388 1.373 . S
C384 C390 1.505 . S
C385 C384 1.379 . S
C385 C387 1.369 . S
C385 H396 0.930 . S
C386 C388 1.383 . S
C386 C389 1.382 . S
C386 H397 0.930 . S
C387 C385 1.369 . S
C387 C389 1.392 . S
C387 H398 0.930 . S
C388 C384 1.373 . S
C388 C386 1.383 . S
C388 H399 0.931 . S
C389 C386 1.382 . S
C389 C387 1.392 . S
C390 Eu361 2.828 . S
C390 O374 1.249 . S
C390 O375 1.244 . S
C390 C384 1.505 . S
C391 O378 1.258 . S
C391 O379 1.242 . S
H392 C364 0.930 . S
H393 C365 0.930 . S
H394 C366 0.930 . S
H395 C367 0.931 . S
H396 C385 0.930 . S
H397 C386 0.930 . S
H398 C387 0.930 . S
H399 C388 0.931 . S
Eu400 C409 2.828 . S
Eu400 O411 2.394 . S
Eu400 O413 2.418 1_556 S
Eu400 O418 2.373 1_556 S
Eu400 O421 2.488 . S
Eu400 O422 2.471 . S
Eu400 O423 2.349 . S
Eu401 O410 2.373 . S
Eu401 O414 2.488 . S
Eu401 O415 2.471 . S
Eu401 O416 2.349 . S
Eu401 O419 2.392 . S
Eu401 O420 2.418 . S
Eu401 C430 2.828 . S
C402 O420 1.244 1_556 S
C402 O423 1.265 . S
C403 C404 1.379 . S
C403 C407 1.373 . S
C403 C409 1.505 . S
C404 C403 1.379 . S
C404 C406 1.369 . S
C404 H432 0.930 . S
C405 C407 1.383 . S
C405 C408 1.382 . S
C405 H433 0.930 . S
C406 C404 1.369 . S
C406 C408 1.392 . S
C406 H434 0.930 . S
C407 C403 1.373 . S
C407 C405 1.383 . S
C407 H435 0.931 . S
C408 C405 1.382 . S
C408 C406 1.392 . S
C409 Eu400 2.828 . S
C409 C403 1.505 . S
C409 O421 1.249 . S
C409 O422 1.244 . S
O410 Eu401 2.373 . S
O410 C412 1.258 . S
O411 Eu400 2.394 . S
O411 C412 1.238 1_556 S
C412 O410 1.258 . S
C412 O411 1.238 1_554 S
O413 Eu400 2.418 1_554 S
O413 C417 1.244 . S
O414 Eu401 2.488 . S
O414 C430 1.249 . S
O415 Eu401 2.471 . S
O415 C430 1.244 . S
O416 Eu401 2.349 . S
O416 C417 1.265 . S
C417 O413 1.244 . S
C417 O416 1.265 . S
O418 Eu400 2.373 1_554 S
O418 C431 1.258 . S
O419 Eu401 2.392 . S
O419 C431 1.242 . S
O420 Eu401 2.418 . S
O420 C402 1.244 1_554 S
O421 Eu400 2.488 . S
O421 C409 1.249 . S
O422 Eu400 2.471 . S
O422 C409 1.244 . S
O423 Eu400 2.349 . S
O423 C402 1.265 . S
C424 C425 1.379 . S
C424 C428 1.373 . S
C424 C430 1.505 . S
C425 C424 1.379 . S
C425 C427 1.369 . S
C425 H436 0.930 . S
C426 C428 1.383 . S
C426 C429 1.382 . S
C426 H437 0.930 . S
C427 C425 1.369 . S
C427 C429 1.392 . S
C427 H438 0.930 . S
C428 C424 1.373 . S
C428 C426 1.383 . S
C428 H439 0.931 . S
C429 C426 1.382 . S
C429 C427 1.392 . S
C430 Eu401 2.828 . S
C430 O414 1.249 . S
C430 O415 1.244 . S
C430 C424 1.505 . S
C431 O418 1.258 . S
C431 O419 1.242 . S
H432 C404 0.930 . S
H433 C405 0.930 . S
H434 C406 0.930 . S
H435 C407 0.931 . S
H436 C425 0.930 . S
H437 C426 0.930 . S
H438 C427 0.930 . S
H439 C428 0.931 . S
Eu440 C449 2.828 . S
Eu440 O451 2.392 . S
Eu440 O453 2.418 . S
Eu440 O458 2.373 . S
Eu440 O461 2.488 . S
Eu440 O462 2.471 . S
Eu440 O463 2.349 . S
Eu441 O450 2.373 . S
Eu441 O454 2.488 . S
Eu441 O455 2.471 . S
Eu441 O456 2.349 . S
Eu441 O459 2.392 . S
Eu441 O460 2.418 . S
Eu441 C470 2.828 . S
C442 O460 1.244 . S
C442 O463 1.265 . S
C443 C444 1.379 . S
C443 C447 1.373 . S
C443 C449 1.505 . S
C444 C443 1.379 . S
C444 C446 1.369 . S
C444 H472 0.930 . S
C445 C447 1.383 . S
C445 C448 1.382 . S
C445 H473 0.930 . S
C446 C444 1.369 . S
C446 C448 1.392 . S
C446 H474 0.930 . S
C447 C443 1.373 . S
C447 C445 1.383 . S
C447 H475 0.931 . S
C448 C445 1.382 . S
C448 C446 1.392 . S
C449 Eu440 2.828 . S
C449 C443 1.505 . S
C449 O461 1.249 . S
C449 O462 1.244 . S
O450 Eu441 2.373 . S
O450 C452 1.258 . S
O451 Eu440 2.392 . S
O451 C452 1.242 . S
C452 O450 1.258 . S
C452 O451 1.242 . S
O453 Eu440 2.418 . S
O453 C457 1.244 . S
O454 Eu441 2.488 . S
O454 C470 1.249 . S
O455 Eu441 2.471 . S
O455 C470 1.244 . S
O456 Eu441 2.349 . S
O456 C457 1.265 . S
C457 O453 1.244 . S
C457 O456 1.265 . S
O458 Eu440 2.373 . S
O458 C471 1.258 . S
O459 Eu441 2.392 . S
O459 C471 1.242 . S
O460 Eu441 2.418 . S
O460 C442 1.244 . S
O461 Eu440 2.488 . S
O461 C449 1.249 . S
O462 Eu440 2.471 . S
O462 C449 1.244 . S
O463 Eu440 2.349 . S
O463 C442 1.265 . S
C464 C465 1.379 . S
C464 C468 1.373 . S
C464 C470 1.505 . S
C465 C464 1.379 . S
C465 C467 1.369 . S
C465 H476 0.930 . S
C466 C468 1.383 . S
C466 C469 1.382 . S
C466 H477 0.930 . S
C467 C465 1.369 . S
C467 C469 1.392 . S
C467 H478 0.930 . S
C468 C464 1.373 . S
C468 C466 1.383 . S
C468 H479 0.931 . S
C469 C466 1.382 . S
C469 C467 1.392 . S
C470 Eu441 2.828 . S
C470 O454 1.249 . S
C470 O455 1.244 . S
C470 C464 1.505 . S
C471 O458 1.258 . S
C471 O459 1.242 . S
H472 C444 0.930 . S
H473 C445 0.930 . S
H474 C446 0.930 . S
H475 C447 0.931 . S
H476 C465 0.930 . S
H477 C466 0.930 . S
H478 C467 0.930 . S
H479 C468 0.931 . S
Eu480 C489 2.828 . S
Eu480 O491 2.392 . S
Eu480 O493 2.418 . S
Eu480 O498 2.373 . S
Eu480 O501 2.488 . S
Eu480 O502 2.471 . S
Eu480 O503 2.349 . S
Eu481 O490 2.373 . S
Eu481 O494 2.488 . S
Eu481 O495 2.471 . S
Eu481 O496 2.349 . S
Eu481 O499 2.392 . S
Eu481 O500 2.418 . S
Eu481 C510 2.828 . S
C482 O500 1.244 . S
C482 O503 1.265 . S
C483 C484 1.379 . S
C483 C487 1.373 . S
C483 C489 1.505 . S
C484 C483 1.379 . S
C484 C486 1.369 . S
C484 H512 0.930 . S
C485 C487 1.383 . S
C485 C488 1.382 . S
C485 H513 0.930 . S
C486 C484 1.369 . S
C486 C488 1.392 . S
C486 H514 0.930 . S
C487 C483 1.373 . S
C487 C485 1.383 . S
C487 H515 0.931 . S
C488 C485 1.382 . S
C488 C486 1.392 . S
C489 Eu480 2.828 . S
C489 C483 1.505 . S
C489 O501 1.249 . S
C489 O502 1.244 . S
O490 Eu481 2.373 . S
O490 C492 1.258 . S
O491 Eu480 2.392 . S
O491 C492 1.242 . S
C492 O490 1.258 . S
C492 O491 1.242 . S
O493 Eu480 2.418 . S
O493 C497 1.244 . S
O494 Eu481 2.488 . S
O494 C510 1.249 . S
O495 Eu481 2.471 . S
O495 C510 1.244 . S
O496 Eu481 2.349 . S
O496 C497 1.265 . S
C497 O493 1.244 . S
C497 O496 1.265 . S
O498 Eu480 2.373 . S
O498 C511 1.258 . S
O499 Eu481 2.392 . S
O499 C511 1.242 . S
O500 Eu481 2.418 . S
O500 C482 1.244 . S
O501 Eu480 2.488 . S
O501 C489 1.249 . S
O502 Eu480 2.471 . S
O502 C489 1.244 . S
O503 Eu480 2.349 . S
O503 C482 1.265 . S
C504 C505 1.379 . S
C504 C508 1.373 . S
C504 C510 1.505 . S
C505 C504 1.379 . S
C505 C507 1.369 . S
C505 H516 0.930 . S
C506 C508 1.383 . S
C506 C509 1.382 1_455 S
C506 H517 0.930 1_455 S
C507 C505 1.369 . S
C507 C509 1.392 1_455 S
C507 H518 0.930 1_455 S
C508 C504 1.373 . S
C508 C506 1.383 . S
C508 H519 0.931 . S
C509 C506 1.382 1_655 S
C509 C507 1.392 1_655 S
C510 Eu481 2.828 . S
C510 O494 1.249 . S
C510 O495 1.244 . S
C510 C504 1.505 . S
C511 O498 1.258 . S
C511 O499 1.242 . S
H512 C484 0.930 . S
H513 C485 0.930 . S
H514 C486 0.930 . S
H515 C487 0.931 . S
H516 C505 0.930 . S
H517 C506 0.930 1_655 S
H518 C507 0.930 1_655 S
H519 C508 0.931 . S
Eu520 C529 2.828 . S
Eu520 O531 2.392 . S
Eu520 O533 2.418 . S
Eu520 O538 2.373 . S
Eu520 O541 2.488 . S
Eu520 O542 2.471 . S
Eu520 O543 2.349 . S
Eu521 O530 2.373 . S
Eu521 O534 2.488 . S
Eu521 O535 2.471 . S
Eu521 O536 2.349 . S
Eu521 O539 2.392 . S
Eu521 O540 2.418 . S
Eu521 C550 2.828 . S
C522 O540 1.244 . S
C522 O543 1.265 . S
C523 C524 1.379 . S
C523 C527 1.373 . S
C523 C529 1.505 . S
C524 C523 1.379 . S
C524 C526 1.369 . S
C524 H552 0.930 . S
C525 C527 1.383 . S
C525 C528 1.382 . S
C525 H553 0.930 . S
C526 C524 1.369 . S
C526 C528 1.392 . S
C526 H554 0.930 . S
C527 C523 1.373 . S
C527 C525 1.383 . S
C527 H555 0.931 . S
C528 C525 1.382 . S
C528 C526 1.392 . S
C529 Eu520 2.828 . S
C529 C523 1.505 . S
C529 O541 1.249 . S
C529 O542 1.244 . S
O530 Eu521 2.373 . S
O530 C532 1.258 . S
O531 Eu520 2.392 . S
O531 C532 1.242 . S
C532 O530 1.258 . S
C532 O531 1.242 . S
O533 Eu520 2.418 . S
O533 C537 1.244 . S
O534 Eu521 2.488 . S
O534 C550 1.249 . S
O535 Eu521 2.471 . S
O535 C550 1.244 . S
O536 Eu521 2.349 . S
O536 C537 1.265 . S
C537 O533 1.244 . S
C537 O536 1.265 . S
O538 Eu520 2.373 . S
O538 C551 1.258 . S
O539 Eu521 2.392 . S
O539 C551 1.242 . S
O540 Eu521 2.418 . S
O540 C522 1.244 . S
O541 Eu520 2.488 . S
O541 C529 1.249 . S
O542 Eu520 2.471 . S
O542 C529 1.244 . S
O543 Eu520 2.349 . S
O543 C522 1.265 . S
C544 C545 1.379 . S
C544 C548 1.373 . S
C544 C550 1.505 . S
C545 C544 1.379 . S
C545 C547 1.369 . S
C545 H556 0.930 . S
C546 C548 1.383 . S
C546 C549 1.382 . S
C546 H557 0.930 . S
C547 C545 1.369 . S
C547 C549 1.392 . S
C547 H558 0.930 . S
C548 C544 1.373 . S
C548 C546 1.383 . S
C548 H559 0.931 . S
C549 C546 1.382 . S
C549 C547 1.392 . S
C550 Eu521 2.828 . S
C550 O534 1.249 . S
C550 O535 1.244 . S
C550 C544 1.505 . S
C551 O538 1.258 . S
C551 O539 1.242 . S
H552 C524 0.930 . S
H553 C525 0.930 . S
H554 C526 0.930 . S
H555 C527 0.931 . S
H556 C545 0.930 . S
H557 C546 0.930 . S
H558 C547 0.930 . S
H559 C548 0.931 . S
Eu560 C569 2.828 . S
Eu560 O571 2.392 . S
Eu560 O573 2.418 . S
Eu560 O578 2.373 . S
Eu560 O581 2.488 . S
Eu560 O582 2.471 . S
Eu560 O583 2.349 . S
Eu561 O570 2.373 1_554 S
Eu561 O574 2.488 . S
Eu561 O575 2.471 . S
Eu561 O576 2.349 . S
Eu561 O579 2.394 . S
Eu561 O580 2.418 1_554 S
Eu561 C590 2.828 . S
C562 O580 1.244 . S
C562 O583 1.265 . S
C563 C564 1.379 . S
C563 C567 1.373 . S
C563 C569 1.505 . S
C564 C563 1.379 . S
C564 C566 1.369 . S
C564 H592 0.930 . S
C565 C567 1.383 . S
C565 C568 1.382 . S
C565 H593 0.930 . S
C566 C564 1.369 . S
C566 C568 1.392 . S
C566 H594 0.930 . S
C567 C563 1.373 . S
C567 C565 1.383 . S
C567 H595 0.931 . S
C568 C565 1.382 . S
C568 C566 1.392 . S
C569 Eu560 2.828 . S
C569 C563 1.505 . S
C569 O581 1.249 . S
C569 O582 1.244 . S
O570 Eu561 2.373 1_556 S
O570 C572 1.258 . S
O571 Eu560 2.392 . S
O571 C572 1.242 . S
C572 O570 1.258 . S
C572 O571 1.242 . S
O573 Eu560 2.418 . S
O573 C577 1.244 1_556 S
O574 Eu561 2.488 . S
O574 C590 1.249 . S
O575 Eu561 2.471 . S
O575 C590 1.244 . S
O576 Eu561 2.349 . S
O576 C577 1.265 . S
C577 O573 1.244 1_554 S
C577 O576 1.265 . S
O578 Eu560 2.373 . S
O578 C591 1.258 . S
O579 Eu561 2.394 . S
O579 C591 1.238 1_554 S
O580 Eu561 2.418 1_556 S
O580 C562 1.244 . S
O581 Eu560 2.488 . S
O581 C569 1.249 . S
O582 Eu560 2.471 . S
O582 C569 1.244 . S
O583 Eu560 2.349 . S
O583 C562 1.265 . S
C584 C585 1.379 . S
C584 C588 1.373 . S
C584 C590 1.505 . S
C585 C584 1.379 . S
C585 C587 1.369 . S
C585 H596 0.930 . S
C586 C588 1.383 . S
C586 C589 1.382 . S
C586 H597 0.930 . S
C587 C585 1.369 . S
C587 C589 1.392 . S
C587 H598 0.930 . S
C588 C584 1.373 . S
C588 C586 1.383 . S
C588 H599 0.931 . S
C589 C586 1.382 . S
C589 C587 1.392 . S
C590 Eu561 2.828 . S
C590 O574 1.249 . S
C590 O575 1.244 . S
C590 C584 1.505 . S
C591 O578 1.258 . S
C591 O579 1.238 1_556 S
H592 C564 0.930 . S
H593 C565 0.930 . S
H594 C566 0.930 . S
H595 C567 0.931 . S
H596 C585 0.930 . S
H597 C586 0.930 . S
H598 C587 0.930 . S
H599 C588 0.931 . S
Eu600 C609 2.828 . S
Eu600 O611 2.392 . S
Eu600 O613 2.418 . S
Eu600 O618 2.373 . S
Eu600 O621 2.488 . S
Eu600 O622 2.471 . S
Eu600 O623 2.349 . S
Eu601 O610 2.373 . S
Eu601 O614 2.488 . S
Eu601 O615 2.471 . S
Eu601 O616 2.349 . S
Eu601 O619 2.392 . S
Eu601 O620 2.418 . S
Eu601 C630 2.828 . S
C602 O620 1.244 . S
C602 O623 1.265 . S
C603 C604 1.379 . S
C603 C607 1.373 . S
C603 C609 1.505 . S
C604 C603 1.379 . S
C604 C606 1.369 . S
C604 H632 0.930 . S
C605 C607 1.383 . S
C605 C608 1.382 . S
C605 H633 0.930 . S
C606 C604 1.369 . S
C606 C608 1.392 . S
C606 H634 0.930 . S
C607 C603 1.373 . S
C607 C605 1.383 . S
C607 H635 0.931 . S
C608 C605 1.382 . S
C608 C606 1.392 . S
C609 Eu600 2.828 . S
C609 C603 1.505 . S
C609 O621 1.249 . S
C609 O622 1.244 . S
O610 Eu601 2.373 . S
O610 C612 1.258 . S
O611 Eu600 2.392 . S
O611 C612 1.242 . S
C612 O610 1.258 . S
C612 O611 1.242 . S
O613 Eu600 2.418 . S
O613 C617 1.244 . S
O614 Eu601 2.488 . S
O614 C630 1.249 . S
O615 Eu601 2.471 . S
O615 C630 1.244 . S
O616 Eu601 2.349 . S
O616 C617 1.265 . S
C617 O613 1.244 . S
C617 O616 1.265 . S
O618 Eu600 2.373 . S
O618 C631 1.258 . S
O619 Eu601 2.392 . S
O619 C631 1.242 . S
O620 Eu601 2.418 . S
O620 C602 1.244 . S
O621 Eu600 2.488 . S
O621 C609 1.249 . S
O622 Eu600 2.471 . S
O622 C609 1.244 . S
O623 Eu600 2.349 . S
O623 C602 1.265 . S
C624 C625 1.379 . S
C624 C628 1.373 . S
C624 C630 1.505 . S
C625 C624 1.379 . S
C625 C627 1.369 . S
C625 H636 0.930 . S
C626 C628 1.383 . S
C626 C629 1.382 . S
C626 H637 0.930 . S
C627 C625 1.369 . S
C627 C629 1.392 . S
C627 H638 0.930 . S
C628 C624 1.373 . S
C628 C626 1.383 . S
C628 H639 0.931 . S
C629 C626 1.382 . S
C629 C627 1.392 . S
C630 Eu601 2.828 . S
C630 O614 1.249 . S
C630 O615 1.244 . S
C630 C624 1.505 . S
C631 O618 1.258 . S
C631 O619 1.242 . S
H632 C604 0.930 . S
H633 C605 0.930 . S
H634 C606 0.930 . S
H635 C607 0.931 . S
H636 C625 0.930 . S
H637 C626 0.930 . S
H638 C627 0.930 . S
H639 C628 0.931 . S
H640 C646 0.930 . S
H641 C649 0.930 . S
H642 C650 0.930 . S
H643 C651 0.930 . S
H644 C654 0.930 . S
H645 C655 0.930 1_556 S
C646 H640 0.930 . S
C646 C647 1.355 . S
C646 C648 1.415 . S
C647 C646 1.355 . S
C647 C649 1.419 . S
C648 C646 1.415 . S
C648 C653 1.425 . S
C648 C655 1.409 . S
C649 H641 0.930 . S
C649 C647 1.419 . S
C649 C650 1.362 . S
C650 H642 0.930 . S
C650 C649 1.362 . S
C650 C653 1.409 . S
C651 H643 0.930 . S
C651 C652 1.355 . S
C651 C653 1.415 . S
C652 C651 1.355 . S
C652 C654 1.419 . S
C653 C648 1.425 . S
C653 C650 1.409 . S
C653 C651 1.415 . S
C654 H644 0.930 . S
C654 C652 1.419 . S
C654 C655 1.362 . S
C655 H645 0.930 1_554 S
C655 C648 1.409 . S
C655 C654 1.362 . S
H656 C662 0.930 . S
H657 C665 0.930 . S
H658 C666 0.930 . S
H659 C667 0.930 . S
H660 C670 0.930 . S
H661 C671 0.930 . S
C662 H656 0.930 . S
C662 C663 1.355 . S
C662 C664 1.415 . S
C663 C662 1.355 . S
C663 C665 1.419 . S
C664 C662 1.415 . S
C664 C669 1.425 . S
C664 C671 1.409 . S
C665 H657 0.930 . S
C665 C663 1.419 . S
C665 C666 1.362 . S
C666 H658 0.930 . S
C666 C665 1.362 . S
C666 C669 1.409 . S
C667 H659 0.930 . S
C667 C668 1.355 . S
C667 C669 1.415 . S
C668 C667 1.355 . S
C668 C670 1.419 . S
C669 C664 1.425 . S
C669 C666 1.409 . S
C669 C667 1.415 . S
C670 H660 0.930 . S
C670 C668 1.419 . S
C670 C671 1.362 . S
C671 H661 0.930 . S
C671 C664 1.409 . S
C671 C670 1.362 . S
H672 C678 0.930 1_655 S
H673 C681 0.930 . S
H674 C682 0.930 . S
H675 C683 0.930 1_455 S
H676 C686 0.930 . S
H677 C687 0.930 . S
C678 H672 0.930 1_455 S
C678 C679 1.355 . S
C678 C680 1.415 1_455 S
C679 C678 1.355 . S
C679 C681 1.419 . S
C680 C678 1.415 1_655 S
C680 C685 1.425 1_655 S
C680 C687 1.409 . S
C681 H673 0.930 . S
C681 C679 1.419 . S
C681 C682 1.362 . S
C682 H674 0.930 . S
C682 C681 1.362 . S
C682 C685 1.409 . S
C683 H675 0.930 1_655 S
C683 C684 1.355 . S
C683 C685 1.415 1_655 S
C684 C683 1.355 . S
C684 C686 1.419 . S
C685 C680 1.425 1_455 S
C685 C682 1.409 . S
C685 C683 1.415 1_455 S
C686 H676 0.930 . S
C686 C684 1.419 . S
C686 C687 1.362 . S
C687 H677 0.930 . S
C687 C680 1.409 . S
C687 C686 1.362 . S
H688 C694 0.930 . S
H689 C697 0.930 . S
H690 C698 0.930 . S
H691 C699 0.930 . S
H692 C702 0.930 . S
H693 C703 0.930 . S
C694 H688 0.930 . S
C694 C695 1.355 . S
C694 C696 1.415 . S
C695 C694 1.355 . S
C695 C697 1.419 . S
C696 C694 1.415 . S
C696 C701 1.425 1_655 S
C696 C703 1.409 . S
C697 H689 0.930 . S
C697 C695 1.419 . S
C697 C698 1.362 1_655 S
C698 H690 0.930 . S
C698 C697 1.362 1_455 S
C698 C701 1.409 . S
C699 H691 0.930 . S
C699 C700 1.355 . S
C699 C701 1.415 . S
C700 C699 1.355 . S
C700 C702 1.419 . S
C701 C696 1.425 1_455 S
C701 C698 1.409 . S
C701 C699 1.415 . S
C702 H692 0.930 . S
C702 C700 1.419 . S
C702 C703 1.362 1_455 S
C703 H693 0.930 . S
C703 C696 1.409 . S
C703 C702 1.362 1_655 S
H704 C710 0.930 . S
H705 C713 0.930 . S
H706 C714 0.930 . S
H707 C715 0.930 . S
H708 C718 0.930 . S
H709 C719 0.930 . S
C710 H704 0.930 . S
C710 C711 1.355 . S
C710 C712 1.415 . S
C711 C710 1.355 . S
C711 C713 1.419 . S
C712 C710 1.415 . S
C712 C717 1.425 . S
C712 C719 1.409 . S
C713 H705 0.930 . S
C713 C711 1.419 . S
C713 C714 1.362 . S
C714 H706 0.930 . S
C714 C713 1.362 . S
C714 C717 1.409 . S
C715 H707 0.930 . S
C715 C716 1.355 . S
C715 C717 1.415 . S
C716 C715 1.355 . S
C716 C718 1.419 . S
C717 C712 1.425 . S
C717 C714 1.409 . S
C717 C715 1.415 . S
C718 H708 0.930 . S
C718 C716 1.419 . S
C718 C719 1.362 . S
C719 H709 0.930 . S
C719 C712 1.409 . S
C719 C718 1.362 . S
H720 C726 0.930 . S
H721 C729 0.930 . S
H722 C730 0.930 . S
H723 C731 0.930 . S
H724 C734 0.930 . S
H725 C735 0.930 . S
C726 H720 0.930 . S
C726 C727 1.355 . S
C726 C728 1.415 . S
C727 C726 1.355 . S
C727 C729 1.419 . S
C728 C726 1.415 . S
C728 C733 1.425 . S
C728 C735 1.409 . S
C729 H721 0.930 . S
C729 C727 1.419 . S
C729 C730 1.362 . S
C730 H722 0.930 . S
C730 C729 1.362 . S
C730 C733 1.409 . S
C731 H723 0.930 . S
C731 C732 1.355 . S
C731 C733 1.415 . S
C732 C731 1.355 . S
C732 C734 1.419 . S
C733 C728 1.425 . S
C733 C730 1.409 . S
C733 C731 1.415 . S
C734 H724 0.930 . S
C734 C732 1.419 . S
C734 C735 1.362 . S
C735 H725 0.930 . S
C735 C728 1.409 . S
C735 C734 1.362 . S
H736 C742 0.930 . S
H737 C745 0.923 1_455 S
H738 C746 0.930 . S
H739 C747 0.930 . S
H740 C750 0.923 1_655 S
H741 C751 0.930 . S
C742 H736 0.930 . S
C742 C743 1.355 . S
C742 C744 1.415 . S
C743 C742 1.355 . S
C743 C745 1.419 . S
C744 C742 1.415 . S
C744 C749 1.425 1_655 S
C744 C751 1.409 . S
C745 H737 0.923 1_655 S
C745 C743 1.419 . S
C745 C746 1.362 1_655 S
C746 H738 0.930 . S
C746 C745 1.362 1_455 S
C746 C749 1.409 . S
C747 H739 0.930 . S
C747 C748 1.355 . S
C747 C749 1.415 . S
C748 C747 1.355 . S
C748 C750 1.419 . S
C749 C744 1.425 1_455 S
C749 C746 1.409 . S
C749 C747 1.415 . S
C750 H740 0.923 1_455 S
C750 C748 1.419 . S
C750 C751 1.362 1_455 S
C751 H741 0.930 . S
C751 C744 1.409 . S
C751 C750 1.362 1_655 S
H752 C758 0.930 . S
H753 C761 0.930 . S
H754 C762 0.930 . S
H755 C763 0.930 . S
H756 C766 0.930 . S
H757 C767 0.930 . S
C758 H752 0.930 . S
C758 C759 1.355 . S
C758 C760 1.415 . S
C759 C758 1.355 . S
C759 C761 1.419 . S
C760 C758 1.415 . S
C760 C765 1.425 1_455 S
C760 C767 1.409 . S
C761 H753 0.930 . S
C761 C759 1.419 . S
C761 C762 1.362 1_455 S
C762 H754 0.930 . S
C762 C761 1.362 1_655 S
C762 C765 1.409 . S
C763 H755 0.930 . S
C763 C764 1.355 . S
C763 C765 1.415 . S
C764 C763 1.355 . S
C764 C766 1.419 . S
C765 C760 1.425 1_655 S
C765 C762 1.409 . S
C765 C763 1.415 . S
C766 H756 0.930 . S
C766 C764 1.419 . S
C766 C767 1.362 1_655 S
C767 H757 0.930 . S
C767 C760 1.409 . S
C767 C766 1.362 1_455 S
H768 C774 0.930 . S
H769 C777 0.930 . S
H770 C778 0.930 . S
H771 C779 0.930 . S
H772 C782 0.930 . S
H773 C783 0.930 . S
C774 H768 0.930 . S
C774 C775 1.355 . S
C774 C776 1.415 . S
C775 C774 1.355 . S
C775 C777 1.419 . S
C776 C774 1.415 . S
C776 C781 1.425 . S
C776 C783 1.409 . S
C777 H769 0.930 . S
C777 C775 1.419 . S
C777 C778 1.362 . S
C778 H770 0.930 . S
C778 C777 1.362 . S
C778 C781 1.409 . S
C779 H771 0.930 . S
C779 C780 1.355 . S
C779 C781 1.415 . S
C780 C779 1.355 . S
C780 C782 1.419 . S
C781 C776 1.425 . S
C781 C778 1.409 . S
C781 C779 1.415 . S
C782 H772 0.930 . S
C782 C780 1.419 . S
C782 C783 1.362 . S
C783 H773 0.930 . S
C783 C776 1.409 . S
C783 C782 1.362 . S
H784 C790 0.930 . S
H785 C793 0.930 . S
H786 C794 0.930 . S
H787 C795 0.930 . S
H788 C798 0.930 . S
H789 C799 0.930 . S
C790 H784 0.930 . S
C790 C791 1.355 . S
C790 C792 1.415 . S
C791 C790 1.355 . S
C791 C793 1.419 . S
C792 C790 1.415 . S
C792 C797 1.425 . S
C792 C799 1.409 . S
C793 H785 0.930 . S
C793 C791 1.419 . S
C793 C794 1.362 . S
C794 H786 0.930 . S
C794 C793 1.362 . S
C794 C797 1.409 . S
C795 H787 0.930 . S
C795 C796 1.355 . S
C795 C797 1.415 . S
C796 C795 1.355 . S
C796 C798 1.419 . S
C797 C792 1.425 . S
C797 C794 1.409 . S
C797 C795 1.415 . S
C798 H788 0.930 . S
C798 C796 1.419 . S
C798 C799 1.362 . S
C799 H789 0.930 . S
C799 C792 1.409 . S
C799 C798 1.362 . S
H800 C806 0.930 . S
H801 C809 0.930 . S
H802 C810 0.930 . S
H803 C811 0.930 . S
H804 C814 0.930 . S
H805 C815 0.930 . S
C806 H800 0.930 . S
C806 C807 1.355 . S
C806 C808 1.415 . S
C807 C806 1.355 . S
C807 C809 1.419 . S
C808 C806 1.415 . S
C808 C813 1.425 . S
C808 C815 1.409 . S
C809 H801 0.930 . S
C809 C807 1.419 . S
C809 C810 1.362 . S
C810 H802 0.930 . S
C810 C809 1.362 . S
C810 C813 1.409 . S
C811 H803 0.930 . S
C811 C812 1.355 . S
C811 C813 1.415 . S
C812 C811 1.355 . S
C812 C814 1.419 . S
C813 C808 1.425 . S
C813 C810 1.409 . S
C813 C811 1.415 . S
C814 H804 0.930 . S
C814 C812 1.419 . S
C814 C815 1.362 . S
C815 H805 0.930 . S
C815 C808 1.409 . S
C815 C814 1.362 . S
H816 C822 0.930 . S
H817 C825 0.930 . S
H818 C826 0.930 . S
H819 C827 0.930 . S
H820 C830 0.930 . S
H821 C831 0.930 . S
C822 H816 0.930 . S
C822 C823 1.355 . S
C822 C824 1.415 . S
C823 C822 1.355 . S
C823 C825 1.419 . S
C824 C822 1.415 . S
C824 C829 1.425 . S
C824 C831 1.409 . S
C825 H817 0.930 . S
C825 C823 1.419 . S
C825 C826 1.362 . S
C826 H818 0.930 . S
C826 C825 1.362 . S
C826 C829 1.409 . S
C827 H819 0.930 . S
C827 C828 1.355 . S
C827 C829 1.415 . S
C828 C827 1.355 . S
C828 C830 1.419 . S
C829 C824 1.425 . S
C829 C826 1.409 . S
C829 C827 1.415 . S
C830 H820 0.930 . S
C830 C828 1.419 . S
C830 C831 1.362 . S
C831 H821 0.930 . S
C831 C824 1.409 . S
C831 C830 1.362 . S
H832 C838 0.930 . S
H833 C841 0.930 . S
H834 C842 0.930 . S
H835 C843 0.930 . S
H836 C846 0.930 . S
H837 C847 0.930 . S
C838 H832 0.930 . S
C838 C839 1.355 . S
C838 C840 1.415 . S
C839 C838 1.355 . S
C839 C841 1.419 . S
C840 C838 1.415 . S
C840 C845 1.425 . S
C840 C847 1.409 . S
C841 H833 0.930 . S
C841 C839 1.419 . S
C841 C842 1.362 . S
C842 H834 0.930 . S
C842 C841 1.362 . S
C842 C845 1.409 . S
C843 H835 0.930 . S
C843 C844 1.355 . S
C843 C845 1.415 . S
C844 C843 1.355 . S
C844 C846 1.419 . S
C845 C840 1.425 . S
C845 C842 1.409 . S
C845 C843 1.415 . S
C846 H836 0.930 . S
C846 C844 1.419 . S
C846 C847 1.362 . S
C847 H837 0.930 . S
C847 C840 1.409 . S
C847 C846 1.362 . S
H848 C854 0.930 . S
H849 C857 0.930 . S
H850 C858 0.930 . S
H851 C859 0.930 . S
H852 C862 0.930 . S
H853 C863 0.930 . S
C854 H848 0.930 . S
C854 C855 1.355 . S
C854 C856 1.415 . S
C855 C854 1.355 . S
C855 C857 1.419 . S
C856 C854 1.415 . S
C856 C861 1.425 . S
C856 C863 1.409 . S
C857 H849 0.930 . S
C857 C855 1.419 . S
C857 C858 1.362 . S
C858 H850 0.930 . S
C858 C857 1.362 . S
C858 C861 1.409 . S
C859 H851 0.930 . S
C859 C860 1.355 . S
C859 C861 1.415 . S
C860 C859 1.355 . S
C860 C862 1.419 . S
C861 C856 1.425 . S
C861 C858 1.409 . S
C861 C859 1.415 . S
C862 H852 0.930 . S
C862 C860 1.419 . S
C862 C863 1.362 . S
C863 H853 0.930 . S
C863 C856 1.409 . S
C863 C862 1.362 . S
H864 C870 0.930 . S
H865 C873 0.930 . S
H866 C874 0.930 . S
H867 C875 0.930 . S
H868 C878 0.930 . S
H869 C879 0.930 . S
C870 H864 0.930 . S
C870 C871 1.355 . S
C870 C872 1.415 . S
C871 C870 1.355 . S
C871 C873 1.419 . S
C872 C870 1.415 . S
C872 C877 1.425 . S
C872 C879 1.409 . S
C873 H865 0.930 . S
C873 C871 1.419 . S
C873 C874 1.362 . S
C874 H866 0.930 . S
C874 C873 1.362 . S
C874 C877 1.409 . S
C875 H867 0.930 . S
C875 C876 1.355 . S
C875 C877 1.415 . S
C876 C875 1.355 . S
C876 C878 1.419 . S
C877 C872 1.425 . S
C877 C874 1.409 . S
C877 C875 1.415 . S
C878 H868 0.930 . S
C878 C876 1.419 . S
C878 C879 1.362 . S
C879 H869 0.930 . S
C879 C872 1.409 . S
C879 C878 1.362 . S
H880 C886 0.930 . S
H881 C889 0.930 . S
H882 C890 0.930 . S
H883 C891 0.930 . S
H884 C894 0.930 . S
H885 C895 0.930 . S
C886 H880 0.930 . S
C886 C887 1.355 . S
C886 C888 1.415 . S
C887 C886 1.355 . S
C887 C889 1.419 . S
C888 C886 1.415 . S
C888 C893 1.425 . S
C888 C895 1.409 . S
C889 H881 0.930 . S
C889 C887 1.419 . S
C889 C890 1.362 . S
C890 H882 0.930 . S
C890 C889 1.362 . S
C890 C893 1.409 . S
C891 H883 0.930 . S
C891 C892 1.355 . S
C891 C893 1.415 . S
C892 C891 1.355 . S
C892 C894 1.419 . S
C893 C888 1.425 . S
C893 C890 1.409 . S
C893 C891 1.415 . S
C894 H884 0.930 . S
C894 C892 1.419 . S
C894 C895 1.362 . S
C895 H885 0.930 . S
C895 C888 1.409 . S
C895 C894 1.362 . S
H896 C902 0.930 . S
H897 C905 0.930 . S
H898 C906 0.930 . S
H899 C907 0.930 . S
H900 C910 0.930 . S
H901 C911 0.930 . S
C902 H896 0.930 . S
C902 C903 1.355 . S
C902 C904 1.415 . S
C903 C902 1.355 . S
C903 C905 1.419 . S
C904 C902 1.415 . S
C904 C909 1.425 . S
C904 C911 1.409 . S
C905 H897 0.930 . S
C905 C903 1.419 . S
C905 C906 1.362 . S
C906 H898 0.930 . S
C906 C905 1.362 . S
C906 C909 1.409 . S
C907 H899 0.930 . S
C907 C908 1.355 . S
C907 C909 1.415 . S
C908 C907 1.355 . S
C908 C910 1.419 . S
C909 C904 1.425 . S
C909 C906 1.409 . S
C909 C907 1.415 . S
C910 H900 0.930 . S
C910 C908 1.419 . S
C910 C911 1.362 . S
C911 H901 0.930 . S
C911 C904 1.409 . S
C911 C910 1.362 . S
H912 C918 0.930 . S
H913 C921 0.930 . S
H914 C922 0.930 . S
H915 C923 0.930 . S
H916 C926 0.930 . S
H917 C927 0.930 . S
C918 H912 0.930 . S
C918 C919 1.355 1_565 S
C918 C920 1.415 . S
C919 C918 1.355 1_545 S
C919 C921 1.419 . S
C920 C918 1.415 . S
C920 C925 1.425 . S
C920 C927 1.409 . S
C921 H913 0.930 . S
C921 C919 1.419 . S
C921 C922 1.362 . S
C922 H914 0.930 . S
C922 C921 1.362 . S
C922 C925 1.409 1_545 S
C923 H915 0.930 . S
C923 C924 1.355 . S
C923 C925 1.415 . S
C924 C923 1.355 . S
C924 C926 1.419 . S
C925 C920 1.425 . S
C925 C922 1.409 1_565 S
C925 C923 1.415 . S
C926 H916 0.930 . S
C926 C924 1.419 . S
C926 C927 1.362 . S
C927 H917 0.930 . S
C927 C920 1.409 . S
C927 C926 1.362 . S
H928 C934 0.930 . S
H929 C937 0.930 1_554 S
H930 C938 0.930 . S
H931 C939 0.930 . S
H932 C942 0.930 . S
H933 C943 0.930 . S
C934 H928 0.930 . S
C934 C935 1.355 . S
C934 C936 1.415 . S
C935 C934 1.355 . S
C935 C937 1.419 . S
C936 C934 1.415 . S
C936 C941 1.425 . S
C936 C943 1.409 . S
C937 H929 0.930 1_556 S
C937 C935 1.419 . S
C937 C938 1.362 . S
C938 H930 0.930 . S
C938 C937 1.362 . S
C938 C941 1.409 . S
C939 H931 0.930 . S
C939 C940 1.355 . S
C939 C941 1.415 . S
C940 C939 1.355 . S
C940 C942 1.419 . S
C941 C936 1.425 . S
C941 C938 1.409 . S
C941 C939 1.415 . S
C942 H932 0.930 . S
C942 C940 1.419 . S
C942 C943 1.362 . S
C943 H933 0.930 . S
C943 C936 1.409 . S
C943 C942 1.362 . S
H944 C950 0.929 . S
H945 C953 0.930 . S
H946 C954 0.930 . S
H947 C955 0.930 . S
H948 C958 0.930 . S
H949 C959 0.930 . S
C950 H944 0.929 . S
C950 C951 1.373 . S
C950 C952 1.397 1_565 S
C951 C950 1.373 . S
C951 C953 1.419 . S
C952 C950 1.397 1_545 S
C952 C957 1.425 . S
C952 C959 1.409 . S
C953 H945 0.930 . S
C953 C951 1.419 . S
C953 C954 1.362 . S
C954 H946 0.930 . S
C954 C953 1.362 . S
C954 C957 1.409 1_565 S
C955 H947 0.930 . S
C955 C956 1.355 . S
C955 C957 1.415 . S
C956 C955 1.355 . S
C956 C958 1.419 . S
C957 C952 1.425 . S
C957 C954 1.409 1_545 S
C957 C955 1.415 . S
C958 H948 0.930 . S
C958 C956 1.419 . S
C958 C959 1.362 . S
C959 H949 0.930 . S
C959 C952 1.409 . S
C959 C958 1.362 . S
H960 C966 0.930 . S
H961 C969 0.930 . S
H962 C970 0.930 . S
H963 C971 0.930 . S
H964 C974 0.930 . S
H965 C975 0.930 . S
C966 H960 0.930 . S
C966 C967 1.355 . S
C966 C968 1.415 . S
C967 C966 1.355 . S
C967 C969 1.419 . S
C968 C966 1.415 . S
C968 C973 1.425 . S
C968 C975 1.409 . S
C969 H961 0.930 . S
C969 C967 1.419 . S
C969 C970 1.362 . S
C970 H962 0.930 . S
C970 C969 1.362 . S
C970 C973 1.409 . S
C971 H963 0.930 . S
C971 C972 1.355 . S
C971 C973 1.415 . S
C972 C971 1.355 . S
C972 C974 1.419 . S
C973 C968 1.425 . S
C973 C970 1.409 . S
C973 C971 1.415 . S
C974 H964 0.930 . S
C974 C972 1.419 . S
C974 C975 1.362 . S
C975 H965 0.930 . S
C975 C968 1.409 . S
C975 C974 1.362 . S
H976 C982 0.930 . S
H977 C985 0.930 . S
H978 C986 0.930 . S
H979 C987 0.930 . S
H980 C990 0.930 . S
H981 C991 0.930 . S
C982 H976 0.930 . S
C982 C983 1.355 . S
C982 C984 1.415 . S
C983 C982 1.355 . S
C983 C985 1.419 . S
C984 C982 1.415 . S
C984 C989 1.425 . S
C984 C991 1.409 . S
C985 H977 0.930 . S
C985 C983 1.419 . S
C985 C986 1.362 . S
C986 H978 0.930 . S
C986 C985 1.362 . S
C986 C989 1.409 . S
C987 H979 0.930 . S
C987 C988 1.355 . S
C987 C989 1.415 1_565 S
C988 C987 1.355 . S
C988 C990 1.419 . S
C989 C984 1.425 . S
C989 C986 1.409 . S
C989 C987 1.415 1_545 S
C990 H980 0.930 . S
C990 C988 1.419 . S
C990 C991 1.362 1_565 S
C991 H981 0.930 . S
C991 C984 1.409 . S
C991 C990 1.362 1_545 S
H992 C998 0.930 . S
H993 C1001 0.930 . S
H994 C1002 0.930 . S
H995 C1003 0.930 . S
H996 C1006 0.930 1_556 S
H997 C1007 0.930 . S
C998 H992 0.930 . S
C998 C999 1.355 . S
C998 C1000 1.415 . S
C999 C998 1.355 . S
C999 C1001 1.419 . S
C1000 C998 1.415 . S
C1000 C1005 1.425 . S
C1000 C1007 1.409 . S
C1001 H993 0.930 . S
C1001 C999 1.419 . S
C1001 C1002 1.362 . S
C1002 H994 0.930 . S
C1002 C1001 1.362 . S
C1002 C1005 1.409 . S
C1003 H995 0.930 . S
C1003 C1004 1.355 . S
C1003 C1005 1.415 . S
C1004 C1003 1.355 . S
C1004 C1006 1.419 . S
C1005 C1000 1.425 . S
C1005 C1002 1.409 . S
C1005 C1003 1.415 . S
C1006 H996 0.930 1_554 S
C1006 C1004 1.419 . S
C1006 C1007 1.362 . S
C1007 H997 0.930 . S
C1007 C1000 1.409 . S
C1007 C1006 1.362 . S
H1008 C1014 0.930 . S
H1009 C1017 0.930 . S
H1010 C1018 0.930 . S
H1011 C1019 0.930 . S
H1012 C1022 0.930 . S
H1013 C1023 0.930 . S
C1014 H1008 0.930 . S
C1014 C1015 1.355 . S
C1014 C1016 1.415 1_545 S
C1015 C1014 1.355 . S
C1015 C1017 1.419 . S
C1016 C1014 1.415 1_565 S
C1016 C1021 1.425 . S
C1016 C1023 1.409 . S
C1017 H1009 0.930 . S
C1017 C1015 1.419 . S
C1017 C1018 1.362 1_545 S
C1018 H1010 0.930 . S
C1018 C1017 1.362 1_565 S
C1018 C1021 1.409 . S
C1019 H1011 0.930 . S
C1019 C1020 1.355 . S
C1019 C1021 1.415 . S
C1020 C1019 1.355 . S
C1020 C1022 1.419 . S
C1021 C1016 1.425 . S
C1021 C1018 1.409 . S
C1021 C1019 1.415 . S
C1022 H1012 0.930 . S
C1022 C1020 1.419 . S
C1022 C1023 1.362 . S
C1023 H1013 0.930 . S
C1023 C1016 1.409 . S
C1023 C1022 1.362 . S
H1024 C1030 0.930 . S
H1025 C1033 0.930 . S
H1026 C1034 0.930 . S
H1027 C1035 0.930 . S
H1028 C1038 0.930 . S
H1029 C1039 0.930 . S
C1030 H1024 0.930 . S
C1030 C1031 1.355 . S
C1030 C1032 1.415 . S
C1031 C1030 1.355 . S
C1031 C1033 1.419 . S
C1032 C1030 1.415 . S
C1032 C1037 1.425 . S
C1032 C1039 1.409 . S
C1033 H1025 0.930 . S
C1033 C1031 1.419 . S
C1033 C1034 1.362 . S
C1034 H1026 0.930 . S
C1034 C1033 1.362 . S
C1034 C1037 1.409 . S
C1035 H1027 0.930 . S
C1035 C1036 1.355 . S
C1035 C1037 1.415 . S
C1036 C1035 1.355 . S
C1036 C1038 1.419 . S
C1037 C1032 1.425 . S
C1037 C1034 1.409 . S
C1037 C1035 1.415 . S
C1038 H1028 0.930 . S
C1038 C1036 1.419 . S
C1038 C1039 1.362 . S
C1039 H1029 0.930 . S
C1039 C1032 1.409 . S
C1039 C1038 1.362 . S
H1040 C1046 0.930 . S
H1041 C1049 0.930 . S
H1042 C1050 0.930 . S
H1043 C1051 0.930 . S
H1044 C1054 0.930 . S
H1045 C1055 0.930 . S
C1046 H1040 0.930 . S
C1046 C1047 1.355 . S
C1046 C1048 1.415 . S
C1047 C1046 1.355 . S
C1047 C1049 1.419 . S
C1048 C1046 1.415 . S
C1048 C1053 1.425 . S
C1048 C1055 1.409 . S
C1049 H1041 0.930 . S
C1049 C1047 1.419 . S
C1049 C1050 1.362 . S
C1050 H1042 0.930 . S
C1050 C1049 1.362 . S
C1050 C1053 1.409 . S
C1051 H1043 0.930 . S
C1051 C1052 1.355 . S
C1051 C1053 1.415 . S
C1052 C1051 1.355 . S
C1052 C1054 1.419 . S
C1053 C1048 1.425 . S
C1053 C1050 1.409 . S
C1053 C1051 1.415 . S
C1054 H1044 0.930 . S
C1054 C1052 1.419 . S
C1054 C1055 1.362 . S
C1055 H1045 0.930 . S
C1055 C1048 1.409 . S
C1055 C1054 1.362 . S
H1056 C1062 0.930 . S
H1057 C1065 0.930 . S
H1058 C1066 0.930 . S
H1059 C1067 0.930 . S
H1060 C1070 0.930 . S
H1061 C1071 0.930 . S
C1062 H1056 0.930 . S
C1062 C1063 1.355 . S
C1062 C1064 1.415 . S
C1063 C1062 1.355 . S
C1063 C1065 1.419 . S
C1064 C1062 1.415 . S
C1064 C1069 1.425 . S
C1064 C1071 1.409 . S
C1065 H1057 0.930 . S
C1065 C1063 1.419 . S
C1065 C1066 1.362 . S
C1066 H1058 0.930 . S
C1066 C1065 1.362 . S
C1066 C1069 1.409 . S
C1067 H1059 0.930 . S
C1067 C1068 1.355 . S
C1067 C1069 1.415 . S
C1068 C1067 1.355 . S
C1068 C1070 1.419 . S
C1069 C1064 1.425 . S
C1069 C1066 1.409 . S
C1069 C1067 1.415 . S
C1070 H1060 0.930 . S
C1070 C1068 1.419 . S
C1070 C1071 1.362 . S
C1071 H1061 0.930 . S
C1071 C1064 1.409 . S
C1071 C1070 1.362 . S
H1072 C1078 0.930 . S
H1073 C1081 0.930 . S
H1074 C1082 0.930 . S
H1075 C1083 0.930 . S
H1076 C1086 0.930 . S
H1077 C1087 0.930 . S
C1078 H1072 0.930 . S
C1078 C1079 1.355 . S
C1078 C1080 1.415 . S
C1079 C1078 1.355 . S
C1079 C1081 1.419 . S
C1080 C1078 1.415 . S
C1080 C1085 1.425 . S
C1080 C1087 1.409 . S
C1081 H1073 0.930 . S
C1081 C1079 1.419 . S
C1081 C1082 1.362 . S
C1082 H1074 0.930 . S
C1082 C1081 1.362 . S
C1082 C1085 1.409 . S
C1083 H1075 0.930 . S
C1083 C1084 1.355 . S
C1083 C1085 1.415 . S
C1084 C1083 1.355 . S
C1084 C1086 1.419 . S
C1085 C1080 1.425 . S
C1085 C1082 1.409 . S
C1085 C1083 1.415 . S
C1086 H1076 0.930 . S
C1086 C1084 1.419 . S
C1086 C1087 1.362 . S
C1087 H1077 0.930 . S
C1087 C1080 1.409 . S
C1087 C1086 1.362 . S
H1088 C1094 0.930 . S
H1089 C1097 0.930 . S
H1090 C1098 0.930 . S
H1091 C1099 0.930 . S
H1092 C1102 0.930 . S
H1093 C1103 0.930 . S
C1094 H1088 0.930 . S
C1094 C1095 1.355 . S
C1094 C1096 1.415 . S
C1095 C1094 1.355 . S
C1095 C1097 1.419 . S
C1096 C1094 1.415 . S
C1096 C1101 1.425 . S
C1096 C1103 1.409 . S
C1097 H1089 0.930 . S
C1097 C1095 1.419 . S
C1097 C1098 1.362 . S
C1098 H1090 0.930 . S
C1098 C1097 1.362 . S
C1098 C1101 1.409 . S
C1099 H1091 0.930 . S
C1099 C1100 1.355 . S
C1099 C1101 1.415 . S
C1100 C1099 1.355 . S
C1100 C1102 1.419 . S
C1101 C1096 1.425 . S
C1101 C1098 1.409 . S
C1101 C1099 1.415 . S
C1102 H1092 0.930 . S
C1102 C1100 1.419 . S
C1102 C1103 1.362 . S
C1103 H1093 0.930 . S
C1103 C1096 1.409 . S
C1103 C1102 1.362 . S
H1104 C1110 0.930 . S
H1105 C1113 0.930 . S
H1106 C1114 0.930 . S
H1107 C1115 0.930 . S
H1108 C1118 0.930 . S
H1109 C1119 0.930 . S
C1110 H1104 0.930 . S
C1110 C1111 1.355 . S
C1110 C1112 1.415 . S
C1111 C1110 1.355 . S
C1111 C1113 1.419 . S
C1112 C1110 1.415 . S
C1112 C1117 1.425 . S
C1112 C1119 1.409 . S
C1113 H1105 0.930 . S
C1113 C1111 1.419 . S
C1113 C1114 1.362 . S
C1114 H1106 0.930 . S
C1114 C1113 1.362 . S
C1114 C1117 1.409 . S
C1115 H1107 0.930 . S
C1115 C1116 1.355 . S
C1115 C1117 1.415 . S
C1116 C1115 1.355 . S
C1116 C1118 1.419 . S
C1117 C1112 1.425 . S
C1117 C1114 1.409 . S
C1117 C1115 1.415 . S
C1118 H1108 0.930 . S
C1118 C1116 1.419 . S
C1118 C1119 1.362 . S
C1119 H1109 0.930 . S
C1119 C1112 1.409 . S
C1119 C1118 1.362 . S
H1120 C1126 0.930 . S
H1121 C1129 0.930 . S
H1122 C1130 0.930 1_655 S
H1123 C1131 0.930 1_655 S
H1124 C1134 0.930 . S
H1125 C1135 0.930 . S
C1126 H1120 0.930 . S
C1126 C1127 1.355 . S
C1126 C1128 1.415 . S
C1127 C1126 1.355 . S
C1127 C1129 1.419 . S
C1128 C1126 1.415 . S
C1128 C1133 1.425 . S
C1128 C1135 1.409 . S
C1129 H1121 0.930 . S
C1129 C1127 1.419 . S
C1129 C1130 1.362 . S
C1130 H1122 0.930 1_455 S
C1130 C1129 1.362 . S
C1130 C1133 1.409 . S
C1131 H1123 0.930 1_455 S
C1131 C1132 1.355 . S
C1131 C1133 1.415 . S
C1132 C1131 1.355 . S
C1132 C1134 1.419 . S
C1133 C1128 1.425 . S
C1133 C1130 1.409 . S
C1133 C1131 1.415 . S
C1134 H1124 0.930 . S
C1134 C1132 1.419 . S
C1134 C1135 1.362 . S
C1135 H1125 0.930 . S
C1135 C1128 1.409 . S
C1135 C1134 1.362 . S
H1136 C1142 0.930 . S
H1137 C1145 0.930 . S
H1138 C1146 0.930 . S
H1139 C1147 0.930 . S
H1140 C1150 0.930 . S
H1141 C1151 0.930 . S
C1142 H1136 0.930 . S
C1142 C1143 1.355 . S
C1142 C1144 1.415 . S
C1143 C1142 1.355 . S
C1143 C1145 1.419 . S
C1144 C1142 1.415 . S
C1144 C1149 1.425 . S
C1144 C1151 1.409 . S
C1145 H1137 0.930 . S
C1145 C1143 1.419 . S
C1145 C1146 1.362 . S
C1146 H1138 0.930 . S
C1146 C1145 1.362 . S
C1146 C1149 1.409 . S
C1147 H1139 0.930 . S
C1147 C1148 1.355 . S
C1147 C1149 1.415 . S
C1148 C1147 1.355 . S
C1148 C1150 1.419 . S
C1149 C1144 1.425 . S
C1149 C1146 1.409 . S
C1149 C1147 1.415 . S
C1150 H1140 0.930 . S
C1150 C1148 1.419 . S
C1150 C1151 1.362 . S
C1151 H1141 0.930 . S
C1151 C1144 1.409 . S
C1151 C1150 1.362 . S
H1152 C1158 0.930 . S
H1153 C1161 0.930 . S
H1154 C1162 0.930 . S
H1155 C1163 0.930 . S
H1156 C1166 0.930 . S
H1157 C1167 0.930 . S
C1158 H1152 0.930 . S
C1158 C1159 1.355 . S
C1158 C1160 1.415 . S
C1159 C1158 1.355 . S
C1159 C1161 1.419 . S
C1160 C1158 1.415 . S
C1160 C1165 1.425 . S
C1160 C1167 1.409 . S
C1161 H1153 0.930 . S
C1161 C1159 1.419 . S
C1161 C1162 1.362 . S
C1162 H1154 0.930 . S
C1162 C1161 1.362 . S
C1162 C1165 1.409 . S
C1163 H1155 0.930 . S
C1163 C1164 1.355 . S
C1163 C1165 1.415 . S
C1164 C1163 1.355 . S
C1164 C1166 1.419 . S
C1165 C1160 1.425 . S
C1165 C1162 1.409 . S
C1165 C1163 1.415 . S
C1166 H1156 0.930 . S
C1166 C1164 1.419 . S
C1166 C1167 1.362 . S
C1167 H1157 0.930 . S
C1167 C1160 1.409 . S
C1167 C1166 1.362 . S
H1168 C1174 0.930 . S
H1169 C1177 0.930 . S
H1170 C1178 0.930 . S
H1171 C1179 0.930 . S
H1172 C1182 0.930 . S
H1173 C1183 0.930 . S
C1174 H1168 0.930 . S
C1174 C1175 1.355 . S
C1174 C1176 1.415 . S
C1175 C1174 1.355 . S
C1175 C1177 1.419 . S
C1176 C1174 1.415 . S
C1176 C1181 1.425 . S
C1176 C1183 1.409 . S
C1177 H1169 0.930 . S
C1177 C1175 1.419 . S
C1177 C1178 1.362 . S
C1178 H1170 0.930 . S
C1178 C1177 1.362 . S
C1178 C1181 1.409 . S
C1179 H1171 0.930 . S
C1179 C1180 1.355 . S
C1179 C1181 1.415 . S
C1180 C1179 1.355 . S
C1180 C1182 1.419 . S
C1181 C1176 1.425 . S
C1181 C1178 1.409 . S
C1181 C1179 1.415 . S
C1182 H1172 0.930 . S
C1182 C1180 1.419 . S
C1182 C1183 1.362 . S
C1183 H1173 0.930 . S
C1183 C1176 1.409 . S
C1183 C1182 1.362 . S
H1184 C1190 0.930 . S
H1185 C1193 0.930 . S
H1186 C1194 0.930 . S
H1187 C1195 0.930 . S
H1188 C1198 0.930 . S
H1189 C1199 0.930 . S
C1190 H1184 0.930 . S
C1190 C1191 1.355 . S
C1190 C1192 1.415 . S
C1191 C1190 1.355 . S
C1191 C1193 1.419 . S
C1192 C1190 1.415 . S
C1192 C1197 1.425 . S
C1192 C1199 1.409 . S
C1193 H1185 0.930 . S
C1193 C1191 1.419 . S
C1193 C1194 1.362 . S
C1194 H1186 0.930 . S
C1194 C1193 1.362 . S
C1194 C1197 1.409 . S
C1195 H1187 0.930 . S
C1195 C1196 1.355 . S
C1195 C1197 1.415 . S
C1196 C1195 1.355 . S
C1196 C1198 1.419 . S
C1197 C1192 1.425 . S
C1197 C1194 1.409 . S
C1197 C1195 1.415 . S
C1198 H1188 0.930 . S
C1198 C1196 1.419 . S
C1198 C1199 1.362 . S
C1199 H1189 0.930 . S
C1199 C1192 1.409 . S
C1199 C1198 1.362 . S
H1200 C1206 0.930 . S
H1201 C1209 0.930 . S
H1202 C1210 0.930 . S
H1203 C1211 0.930 . S
H1204 C1214 0.930 . S
H1205 C1215 0.930 . S
C1206 H1200 0.930 . S
C1206 C1207 1.355 . S
C1206 C1208 1.415 . S
C1207 C1206 1.355 . S
C1207 C1209 1.419 . S
C1208 C1206 1.415 . S
C1208 C1213 1.425 . S
C1208 C1215 1.409 . S
C1209 H1201 0.930 . S
C1209 C1207 1.419 . S
C1209 C1210 1.362 . S
C1210 H1202 0.930 . S
C1210 C1209 1.362 . S
C1210 C1213 1.409 . S
C1211 H1203 0.930 . S
C1211 C1212 1.355 . S
C1211 C1213 1.415 . S
C1212 C1211 1.355 . S
C1212 C1214 1.419 . S
C1213 C1208 1.425 . S
C1213 C1210 1.409 . S
C1213 C1211 1.415 . S
C1214 H1204 0.930 . S
C1214 C1212 1.419 . S
C1214 C1215 1.362 . S
C1215 H1205 0.930 . S
C1215 C1208 1.409 . S
C1215 C1214 1.362 . S
H1216 C1222 0.930 . S
H1217 C1225 0.930 . S
H1218 C1226 0.930 . S
H1219 C1227 0.930 . S
H1220 C1230 0.930 . S
H1221 C1231 0.930 . S
C1222 H1216 0.930 . S
C1222 C1223 1.355 . S
C1222 C1224 1.415 . S
C1223 C1222 1.355 . S
C1223 C1225 1.419 . S
C1224 C1222 1.415 . S
C1224 C1229 1.425 . S
C1224 C1231 1.409 . S
C1225 H1217 0.930 . S
C1225 C1223 1.419 . S
C1225 C1226 1.362 . S
C1226 H1218 0.930 . S
C1226 C1225 1.362 . S
C1226 C1229 1.409 . S
C1227 H1219 0.930 . S
C1227 C1228 1.355 . S
C1227 C1229 1.415 . S
C1228 C1227 1.355 . S
C1228 C1230 1.419 . S
C1229 C1224 1.425 . S
C1229 C1226 1.409 . S
C1229 C1227 1.415 . S
C1230 H1220 0.930 . S
C1230 C1228 1.419 . S
C1230 C1231 1.362 . S
C1231 H1221 0.930 . S
C1231 C1224 1.409 . S
C1231 C1230 1.362 . S
H1232 C1238 0.930 . S
H1233 C1241 0.930 . S
H1234 C1242 0.930 . S
H1235 C1243 0.930 . S
H1236 C1246 0.930 . S
H1237 C1247 0.930 . S
C1238 H1232 0.930 . S
C1238 C1239 1.355 . S
C1238 C1240 1.415 . S
C1239 C1238 1.355 . S
C1239 C1241 1.419 . S
C1240 C1238 1.415 . S
C1240 C1245 1.425 . S
C1240 C1247 1.409 . S
C1241 H1233 0.930 . S
C1241 C1239 1.419 . S
C1241 C1242 1.362 . S
C1242 H1234 0.930 . S
C1242 C1241 1.362 . S
C1242 C1245 1.409 . S
C1243 H1235 0.930 . S
C1243 C1244 1.355 . S
C1243 C1245 1.415 . S
C1244 C1243 1.355 . S
C1244 C1246 1.419 . S
C1245 C1240 1.425 . S
C1245 C1242 1.409 . S
C1245 C1243 1.415 . S
C1246 H1236 0.930 . S
C1246 C1244 1.419 . S
C1246 C1247 1.362 . S
C1247 H1237 0.930 . S
C1247 C1240 1.409 . S
C1247 C1246 1.362 . S
H1248 C1254 0.930 . S
H1249 C1257 0.930 . S
H1250 C1258 0.930 . S
H1251 C1259 0.930 . S
H1252 C1262 0.930 . S
H1253 C1263 0.930 . S
C1254 H1248 0.930 . S
C1254 C1255 1.355 . S
C1254 C1256 1.415 . S
C1255 C1254 1.355 . S
C1255 C1257 1.419 . S
C1256 C1254 1.415 . S
C1256 C1261 1.425 . S
C1256 C1263 1.409 . S
C1257 H1249 0.930 . S
C1257 C1255 1.419 . S
C1257 C1258 1.362 . S
C1258 H1250 0.930 . S
C1258 C1257 1.362 . S
C1258 C1261 1.409 . S
C1259 H1251 0.930 . S
C1259 C1260 1.355 . S
C1259 C1261 1.415 . S
C1260 C1259 1.355 . S
C1260 C1262 1.419 . S
C1261 C1256 1.425 . S
C1261 C1258 1.409 . S
C1261 C1259 1.415 . S
C1262 H1252 0.930 . S
C1262 C1260 1.419 . S
C1262 C1263 1.362 . S
C1263 H1253 0.930 . S
C1263 C1256 1.409 . S
C1263 C1262 1.362 . S
H1264 C1270 0.930 . S
H1265 C1273 0.930 . S
H1266 C1274 0.930 . S
H1267 C1275 0.930 . S
H1268 C1278 0.930 . S
H1269 C1279 0.930 . S
C1270 H1264 0.930 . S
C1270 C1271 1.355 . S
C1270 C1272 1.415 . S
C1271 C1270 1.355 . S
C1271 C1273 1.419 . S
C1272 C1270 1.415 . S
C1272 C1277 1.425 . S
C1272 C1279 1.409 . S
C1273 H1265 0.930 . S
C1273 C1271 1.419 . S
C1273 C1274 1.362 . S
C1274 H1266 0.930 . S
C1274 C1273 1.362 . S
C1274 C1277 1.409 . S
C1275 H1267 0.930 . S
C1275 C1276 1.355 . S
C1275 C1277 1.415 . S
C1276 C1275 1.355 . S
C1276 C1278 1.419 . S
C1277 C1272 1.425 . S
C1277 C1274 1.409 . S
C1277 C1275 1.415 . S
C1278 H1268 0.930 . S
C1278 C1276 1.419 . S
C1278 C1279 1.362 . S
C1279 H1269 0.930 . S
C1279 C1272 1.409 . S
C1279 C1278 1.362 . S
H1280 C1286 0.930 . S
H1281 C1289 0.930 . S
H1282 C1290 0.930 . S
H1283 C1291 0.930 . S
H1284 C1294 0.930 . S
H1285 C1295 0.930 . S
C1286 H1280 0.930 . S
C1286 C1287 1.355 . S
C1286 C1288 1.415 . S
C1287 C1286 1.355 . S
C1287 C1289 1.419 . S
C1288 C1286 1.415 . S
C1288 C1293 1.425 . S
C1288 C1295 1.409 . S
C1289 H1281 0.930 . S
C1289 C1287 1.419 . S
C1289 C1290 1.362 . S
C1290 H1282 0.930 . S
C1290 C1289 1.362 . S
C1290 C1293 1.409 . S
C1291 H1283 0.930 . S
C1291 C1292 1.355 . S
C1291 C1293 1.415 . S
C1292 C1291 1.355 . S
C1292 C1294 1.419 . S
C1293 C1288 1.425 . S
C1293 C1290 1.409 . S
C1293 C1291 1.415 . S
C1294 H1284 0.930 . S
C1294 C1292 1.419 . S
C1294 C1295 1.362 . S
C1295 H1285 0.930 . S
C1295 C1288 1.409 . S
C1295 C1294 1.362 . S
H1296 C1302 0.930 . S
H1297 C1305 0.930 . S
H1298 C1306 0.930 . S
H1299 C1307 0.930 . S
H1300 C1310 0.930 . S
H1301 C1311 0.930 . S
C1302 H1296 0.930 . S
C1302 C1303 1.355 . S
C1302 C1304 1.415 . S
C1303 C1302 1.355 . S
C1303 C1305 1.419 . S
C1304 C1302 1.415 . S
C1304 C1309 1.425 . S
C1304 C1311 1.409 . S
C1305 H1297 0.930 . S
C1305 C1303 1.419 . S
C1305 C1306 1.362 . S
C1306 H1298 0.930 . S
C1306 C1305 1.362 . S
C1306 C1309 1.409 . S
C1307 H1299 0.930 . S
C1307 C1308 1.355 . S
C1307 C1309 1.415 . S
C1308 C1307 1.355 . S
C1308 C1310 1.419 . S
C1309 C1304 1.425 . S
C1309 C1306 1.409 . S
C1309 C1307 1.415 . S
C1310 H1300 0.930 . S
C1310 C1308 1.419 . S
C1310 C1311 1.362 . S
C1311 H1301 0.930 . S
C1311 C1304 1.409 . S
C1311 C1310 1.362 . S
H1312 C1318 0.930 . S
H1313 C1321 0.930 . S
H1314 C1322 0.930 . S
H1315 C1323 0.930 . S
H1316 C1326 0.930 . S
H1317 C1327 0.930 . S
C1318 H1312 0.930 . S
C1318 C1319 1.355 . S
C1318 C1320 1.415 . S
C1319 C1318 1.355 . S
C1319 C1321 1.419 . S
C1320 C1318 1.415 . S
C1320 C1325 1.425 . S
C1320 C1327 1.409 . S
C1321 H1313 0.930 . S
C1321 C1319 1.419 . S
C1321 C1322 1.362 . S
C1322 H1314 0.930 . S
C1322 C1321 1.362 . S
C1322 C1325 1.409 . S
C1323 H1315 0.930 . S
C1323 C1324 1.355 . S
C1323 C1325 1.415 . S
C1324 C1323 1.355 . S
C1324 C1326 1.419 . S
C1325 C1320 1.425 . S
C1325 C1322 1.409 . S
C1325 C1323 1.415 . S
C1326 H1316 0.930 . S
C1326 C1324 1.419 . S
C1326 C1327 1.362 . S
C1327 H1317 0.930 . S
C1327 C1320 1.409 . S
C1327 C1326 1.362 . S
H1328 C1334 0.930 . S
H1329 C1337 0.930 . S
H1330 C1338 0.930 . S
H1331 C1339 0.930 . S
H1332 C1342 0.930 . S
H1333 C1343 0.930 . S
C1334 H1328 0.930 . S
C1334 C1335 1.355 . S
C1334 C1336 1.415 1_455 S
C1335 C1334 1.355 . S
C1335 C1337 1.419 . S
C1336 C1334 1.415 1_655 S
C1336 C1341 1.425 1_654 S
C1336 C1343 1.409 . S
C1337 H1329 0.930 . S
C1337 C1335 1.419 . S
C1337 C1338 1.362 1_554 S
C1338 H1330 0.930 . S
C1338 C1337 1.362 1_556 S
C1338 C1341 1.409 . S
C1339 H1331 0.930 . S
C1339 C1340 1.355 . S
C1339 C1341 1.415 1_655 S
C1340 C1339 1.355 . S
C1340 C1342 1.419 . S
C1341 C1336 1.425 1_456 S
C1341 C1338 1.409 . S
C1341 C1339 1.415 1_455 S
C1342 H1332 0.930 . S
C1342 C1340 1.419 . S
C1342 C1343 1.362 1_556 S
C1343 H1333 0.930 . S
C1343 C1336 1.409 . S
C1343 C1342 1.362 1_554 S
H1344 C1350 0.930 . S
H1345 C1353 0.930 . S
H1346 C1354 0.930 . S
H1347 C1355 0.930 . S
H1348 C1358 0.930 . S
H1349 C1359 0.930 . S
C1350 H1344 0.930 . S
C1350 C1351 1.355 . S
C1350 C1352 1.415 . S
C1351 C1350 1.355 . S
C1351 C1353 1.419 . S
C1352 C1350 1.415 . S
C1352 C1357 1.425 . S
C1352 C1359 1.409 . S
C1353 H1345 0.930 . S
C1353 C1351 1.419 . S
C1353 C1354 1.362 . S
C1354 H1346 0.930 . S
C1354 C1353 1.362 . S
C1354 C1357 1.409 . S
C1355 H1347 0.930 . S
C1355 C1356 1.355 . S
C1355 C1357 1.415 . S
C1356 C1355 1.355 . S
C1356 C1358 1.419 . S
C1357 C1352 1.425 . S
C1357 C1354 1.409 . S
C1357 C1355 1.415 . S
C1358 H1348 0.930 . S
C1358 C1356 1.419 . S
C1358 C1359 1.362 . S
C1359 H1349 0.930 . S
C1359 C1352 1.409 . S
C1359 C1358 1.362 . S
H1360 C1366 0.930 . S
H1361 C1369 0.930 . S
H1362 C1370 0.930 . S
H1363 C1371 0.930 . S
H1364 C1374 0.930 . S
H1365 C1375 0.930 . S
C1366 H1360 0.930 . S
C1366 C1367 1.355 . S
C1366 C1368 1.415 . S
C1367 C1366 1.355 . S
C1367 C1369 1.419 . S
C1368 C1366 1.415 . S
C1368 C1373 1.425 . S
C1368 C1375 1.409 . S
C1369 H1361 0.930 . S
C1369 C1367 1.419 . S
C1369 C1370 1.362 . S
C1370 H1362 0.930 . S
C1370 C1369 1.362 . S
C1370 C1373 1.409 . S
C1371 H1363 0.930 . S
C1371 C1372 1.355 . S
C1371 C1373 1.415 . S
C1372 C1371 1.355 . S
C1372 C1374 1.419 . S
C1373 C1368 1.425 . S
C1373 C1370 1.409 . S
C1373 C1371 1.415 . S
C1374 H1364 0.930 . S
C1374 C1372 1.419 . S
C1374 C1375 1.362 . S
C1375 H1365 0.930 . S
C1375 C1368 1.409 . S
C1375 C1374 1.362 . S
H1376 C1382 0.932 1_554 S
H1377 C1385 0.930 . S
H1378 C1386 0.930 . S
H1379 C1387 0.932 1_556 S
H1380 C1390 0.930 . S
H1381 C1391 0.930 . S
C1382 H1376 0.932 1_556 S
C1382 C1383 1.355 . S
C1382 C1384 1.415 1_566 S
C1383 C1382 1.355 . S
C1383 C1385 1.419 . S
C1384 C1382 1.415 1_544 S
C1384 C1389 1.425 1_444 S
C1384 C1391 1.409 . S
C1385 H1377 0.930 . S
C1385 C1383 1.419 . S
C1385 C1386 1.362 1_455 S
C1386 H1378 0.930 . S
C1386 C1385 1.362 1_655 S
C1386 C1389 1.409 . S
C1387 H1379 0.932 1_554 S
C1387 C1388 1.355 . S
C1387 C1389 1.415 1_544 S
C1388 C1387 1.355 . S
C1388 C1390 1.419 . S
C1389 C1384 1.425 1_666 S
C1389 C1386 1.409 . S
C1389 C1387 1.415 1_566 S
C1390 H1380 0.930 . S
C1390 C1388 1.419 . S
C1390 C1391 1.362 1_655 S
C1391 H1381 0.930 . S
C1391 C1384 1.409 . S
C1391 C1390 1.362 1_455 S
H1392 C1398 0.930 . S
H1393 C1401 0.930 . S
H1394 C1402 0.930 . S
H1395 C1403 0.930 . S
H1396 C1406 0.930 . S
H1397 C1407 0.930 . S
C1398 H1392 0.930 . S
C1398 C1399 1.355 . S
C1398 C1400 1.417 . S
C1399 C1398 1.355 . S
C1399 C1401 1.419 . S
C1400 C1398 1.417 . S
C1400 C1405 1.425 1_565 S
C1400 C1407 1.408 1_565 S
C1401 H1393 0.930 . S
C1401 C1399 1.419 . S
C1401 C1402 1.362 . S
C1402 H1394 0.930 . S
C1402 C1401 1.362 . S
C1402 C1405 1.408 1_565 S
C1403 H1395 0.930 . S
C1403 C1404 1.355 . S
C1403 C1405 1.417 . S
C1404 C1403 1.355 . S
C1404 C1406 1.419 . S
C1405 C1400 1.425 1_545 S
C1405 C1402 1.408 1_545 S
C1405 C1403 1.417 . S
C1406 H1396 0.930 . S
C1406 C1404 1.419 . S
C1406 C1407 1.362 . S
C1407 H1397 0.930 . S
C1407 C1400 1.408 1_545 S
C1407 C1406 1.362 . S
C647 C31 3.190 . S
C652 C431 3.180 . S
C663 C71 3.185 . S
C668 C471 3.195 . S
C679 C111 3.176 . S
C684 C351 3.171 . S
C695 C151 3.178 . S
C700 C391 3.172 . S
C711 C172 3.171 . S
C716 C572 3.172 . S
C727 C212 3.181 . S
C732 C612 3.174 . S
C743 C252 3.211 . S
C748 C492 3.203 . S
C759 C292 3.172 . S
C764 C532 3.177 . S
C775 C377 3.747 . S
C780 C12 3.727 1_556 S
C791 C417 3.730 . S
C796 C52 3.746 . S
C807 C457 3.723 . S
C812 C92 3.751 . S
C823 C337 3.742 . S
C828 C132 3.729 . S
C839 C191 3.726 1_554 S
C844 C522 3.748 . S
C855 C562 3.730 . S
C860 C231 3.739 . S
C871 C602 3.746 . S
C876 C271 3.732 . S
C887 C482 3.736 . S
C892 C311 3.741 . S
C903 C57 3.738 . S
C908 C332 3.740 . S
C919 C372 3.727 . S
C924 C97 3.748 . S
C935 C412 3.750 1_556 S
C940 C137 3.723 . S
C951 C452 3.742 . S
C956 C17 3.735 . S
C967 C511 3.752 . S
C972 C202 3.724 . S
C983 C242 3.731 . S
C988 C551 3.746 . S
C999 C282 3.723 . S
C1004 C591 3.750 1_554 S
C1015 C631 3.742 . S
C1020 C162 3.735 . S
C1031 C8 0.585 . S
C1036 C617 0.317 . S
C1047 C48 0.491 . S
C1052 C177 0.388 . S
C1063 C537 0.405 . S
C1068 C88 0.618 . S
C1079 C257 0.406 . S
C1084 C128 0.548 . S
C1095 C189 0.367 . S
C1100 C442 0.266 . S
C1111 C229 0.615 . S
C1116 C2 0.407 . S
C1127 C362 0.389 . S
C1132 C269 0.629 . S
C1143 C82 0.411 . S
C1148 C309 0.600 . S
C1159 C328 0.483 . S
C1164 C297 0.385 . S
C1175 C368 0.367 . S
C1180 C497 0.266 . S
C1191 C217 0.356 . S
C1196 C408 0.427 . S
C1207 C577 0.397 . S
C1212 C448 0.626 . S
C1223 C509 0.448 . S
C1228 C122 0.246 . S
C1239 C549 0.508 . S
C1244 C322 0.265 . S
C1255 C589 0.553 . S
C1260 C42 0.407 . S
C1271 C402 0.244 . S
C1276 C629 0.433 . S
C1287 C29 1.726 . S
C1292 C488 1.726 . S
C1303 C69 1.763 . S
C1308 C208 1.763 . S
C1319 C109 1.727 . S
C1324 C568 1.727 . S
C1335 C288 1.820 . S
C1340 C149 1.820 . S
C1351 C168 1.731 . S
C1356 C349 1.731 . S
C1367 C429 1.758 . S
C1372 C248 1.758 . S
C1383 C389 1.785 1_565 S
C1388 C528 1.785 1_545 S
C1399 C608 1.812 1_565 S
C1404 C469 1.812 1_545 S
