# Generated by pormake.
# Topology unj, (4)-cn, num edge types: 1
# Building blocks:
#     Node 0, Type 0, BuildingBlock: ICAMEG_clean_sbu_1, # of connection points: 4
#     Node 1, Type 0, BuildingBlock: ICAMEG_clean_sbu_1, # of connection points: 4
#     Node 2, Type 0, BuildingBlock: ICAMEG_clean_sbu_1, # of connection points: 4
#     Node 3, Type 0, BuildingBlock: ICAMEG_clean_sbu_1, # of connection points: 4
#     Node 4, Type 0, BuildingBlock: ICAMEG_clean_sbu_1, # of connection points: 4
#     Node 5, Type 0, BuildingBlock: ICAMEG_clean_sbu_1, # of connection points: 4
#     Edge 6, Type (0, 0), BuildingBlock: XIVTED_clean_linker_0, # of connection points: 2
#     Edge 7, Type (0, 0), BuildingBlock: XIVTED_clean_linker_0, # of connection points: 2
#     Edge 8, Type (0, 0), BuildingBlock: XIVTED_clean_linker_0, # of connection points: 2
#     Edge 9, Type (0, 0), BuildingBlock: XIVTED_clean_linker_0, # of connection points: 2
#     Edge 10, Type (0, 0), BuildingBlock: XIVTED_clean_linker_0, # of connection points: 2
#     Edge 11, Type (0, 0), BuildingBlock: XIVTED_clean_linker_0, # of connection points: 2
#     Edge 12, Type (0, 0), BuildingBlock: XIVTED_clean_linker_0, # of connection points: 2
#     Edge 13, Type (0, 0), BuildingBlock: XIVTED_clean_linker_0, # of connection points: 2
#     Edge 14, Type (0, 0), BuildingBlock: XIVTED_clean_linker_0, # of connection points: 2
#     Edge 15, Type (0, 0), BuildingBlock: XIVTED_clean_linker_0, # of connection points: 2
#     Edge 16, Type (0, 0), BuildingBlock: XIVTED_clean_linker_0, # of connection points: 2
#     Edge 17, Type (0, 0), BuildingBlock: XIVTED_clean_linker_0, # of connection points: 2
# Relax obj value: 0.088
# Max RMSD: 0.190
# Mean RMSD: 0.155
data_MOF--net-unj--node1-ICAMEG_clean_sbu_1--edge1-XIVTED_clean_linker_0
_symmetry_space_group_name_H-M    P1
_symmetry_Int_Tables_number       1
_symmetry_cell_setting            triclinic
loop_
_symmetry_equiv_pos_as_xyz
'x, y, z'
_cell_length_a     31.846499
_cell_length_b     35.36743
_cell_length_c     40.237065
_cell_angle_alpha  90.030143
_cell_angle_beta   89.96201
_cell_angle_gamma 120.11401
loop_
_atom_site_label
_atom_site_type_symbol
_atom_site_fract_x
_atom_site_fract_y
_atom_site_fract_z
_atom_type_partial_charge
Co0 Co 0.55991 0.29752 0.58747 0.0
Co1 Co 0.45608 0.20266 0.6088 0.0
O2 O 0.50409 0.24078 0.5759 0.0
C3 C 0.55619 0.3567 0.53675 0.0
O4 O 0.55599 0.38108 0.56132 0.0
C5 C 0.48251 0.14398 0.57224 0.0
O6 O 0.52819 0.17497 0.57376 0.0
O7 O 0.50828 0.20531 0.63794 0.0
O8 O 0.56656 0.27535 0.63175 0.0
H9 H 0.38784 0.15726 0.72389 0.0
H10 H 0.56102 0.25627 0.52355 0.0
O11 O 0.55468 0.32062 0.54294 0.0
H12 H 0.70251 0.27262 0.58581 0.0
H13 H 0.7199 0.43463 0.5657 0.0
H14 H 0.58926 0.35386 0.64731 0.0
H15 H 0.64964 0.29783 0.6099 0.0
H16 H 0.64968 0.36278 0.55152 0.0
O17 O 0.44972 0.1496 0.58558 0.0
H18 H 0.44734 0.20524 0.682 0.0
H19 H 0.36297 0.11761 0.60511 0.0
H20 H 0.65886 0.4256 0.66254 0.0
H21 H 0.61344 0.23129 0.49829 0.0
H22 H 0.72481 0.46649 0.62158 0.0
H23 H 0.68466 0.23923 0.52953 0.0
O24 O 0.51582 0.31607 0.60748 0.0
H25 H 0.37044 0.1852 0.50017 0.0
H26 H 0.36977 0.21314 0.62018 0.0
H27 H 0.30608 0.21145 0.58435 0.0
H28 H 0.30605 0.19724 0.52388 0.0
H29 H 0.43375 0.18762 0.53687 0.0
H30 H 0.30275 0.06851 0.6462 0.0
H31 H 0.31491 0.08834 0.70606 0.0
O32 O 0.45998 0.25443 0.63251 0.0
C33 C 0.54806 0.23873 0.64688 0.0
C34 C 0.38207 0.14833 0.69787 0.0
C35 C 0.33435 0.09849 0.65427 0.0
N36 N 0.40849 0.16439 0.64114 0.0
C37 C 0.41558 0.17541 0.67403 0.0
C38 C 0.36864 0.12636 0.63113 0.0
C39 C 0.34118 0.10964 0.68785 0.0
C40 C 0.5923 0.26038 0.53714 0.0
N41 N 0.6023 0.27866 0.56813 0.0
C42 C 0.6217 0.24594 0.52278 0.0
C43 C 0.66159 0.2503 0.54035 0.0
C44 C 0.67158 0.26898 0.57194 0.0
C45 C 0.64135 0.28301 0.58554 0.0
C46 C 0.69141 0.41712 0.58377 0.0
C47 C 0.61783 0.37144 0.62936 0.0
C48 C 0.65157 0.37641 0.57589 0.0
N49 N 0.6154 0.3541 0.59859 0.0
C50 C 0.65714 0.41205 0.63812 0.0
C51 C 0.69414 0.43498 0.61512 0.0
C52 C 0.48036 0.29562 0.62753 0.0
C53 C 0.37 0.19133 0.52649 0.0
C54 C 0.37018 0.20718 0.59387 0.0
C55 C 0.33393 0.20613 0.57372 0.0
C56 C 0.33391 0.19813 0.5398 0.0
N57 N 0.40537 0.20033 0.58065 0.0
C58 C 0.40568 0.19262 0.5474 0.0
Co59 Co 0.24213 0.44151 0.78063 0.0
Co60 Co 0.25881 0.54147 0.75888 0.0
O61 O 0.2581 0.48728 0.74708 0.0
C62 C 0.33012 0.44933 0.74692 0.0
O63 O 0.35114 0.49209 0.74867 0.0
C64 C 0.20842 0.51731 0.69251 0.0
O65 O 0.19111 0.47553 0.69809 0.0
O66 O 0.19025 0.50642 0.77392 0.0
O67 O 0.19499 0.45509 0.80362 0.0
H68 H 0.22552 0.63706 0.83386 0.0
H69 H 0.23459 0.41765 0.70935 0.0
O70 O 0.2876 0.4254 0.75866 0.0
H71 H 0.07048 0.32411 0.75526 0.0
H72 H 0.20587 0.29298 0.82014 0.0
H73 H 0.22949 0.43646 0.85382 0.0
H74 H 0.13722 0.37611 0.79122 0.0
H75 H 0.22364 0.35001 0.77828 0.0
O76 O 0.23552 0.54583 0.71369 0.0
H77 H 0.22698 0.57033 0.81806 0.0
H78 H 0.28932 0.62646 0.72468 0.0
H79 H 0.21143 0.38026 0.89646 0.0
H80 H 0.16904 0.36547 0.67262 0.0
H81 H 0.19948 0.3079 0.87971 0.0
H82 H 0.08622 0.3184 0.69551 0.0
O83 O 0.29564 0.48421 0.80963 0.0
H84 H 0.39487 0.57956 0.67839 0.0
H85 H 0.35052 0.61602 0.78622 0.0
H86 H 0.4355 0.6573 0.76721 0.0
H87 H 0.45814 0.63923 0.71285 0.0
H88 H 0.3104 0.53873 0.69862 0.0
H89 H 0.28811 0.6936 0.73935 0.0
H90 H 0.25623 0.69929 0.79435 0.0
O91 O 0.28311 0.54079 0.80472 0.0
C92 C 0.17294 0.4753 0.79495 0.0
C93 C 0.23963 0.63502 0.80986 0.0
C94 C 0.27471 0.66674 0.7568 0.0
N95 N 0.25854 0.59459 0.7706 0.0
C96 C 0.24066 0.59736 0.80081 0.0
C97 C 0.27519 0.62858 0.74861 0.0
C98 C 0.25683 0.66991 0.78767 0.0
C99 C 0.19878 0.39695 0.71958 0.0
N100 N 0.18981 0.4 0.75239 0.0
C101 C 0.16175 0.36761 0.69862 0.0
C102 C 0.11527 0.34126 0.71147 0.0
C103 C 0.1064 0.34448 0.74497 0.0
C104 C 0.14432 0.37417 0.76519 0.0
C105 C 0.21095 0.32437 0.82775 0.0
C106 C 0.22412 0.405 0.84631 0.0
C107 C 0.22115 0.35683 0.80417 0.0
N108 N 0.22738 0.39648 0.81357 0.0
C109 C 0.214 0.37333 0.87058 0.0
C110 C 0.20735 0.33275 0.86116 0.0
C111 C 0.3022 0.5211 0.81936 0.0
C112 C 0.38546 0.58779 0.7021 0.0
C113 C 0.36012 0.6077 0.76271 0.0
C114 C 0.40828 0.63133 0.75198 0.0
C115 C 0.42095 0.62121 0.72147 0.0
N116 N 0.32551 0.57493 0.74359 0.0
C117 C 0.33766 0.56488 0.71363 0.0
Co118 Co 0.75044 0.31212 0.92084 0.0
Co119 Co 0.76996 0.22737 0.90697 0.0
O120 O 0.75064 0.25995 0.93682 0.0
C121 C 0.80099 0.34306 0.98605 0.0
O122 O 0.8269 0.32455 0.9794 0.0
C123 C 0.68047 0.15527 0.93973 0.0
O124 O 0.65615 0.17506 0.93224 0.0
O125 O 0.71774 0.21843 0.87499 0.0
O126 O 0.7319 0.28713 0.87493 0.0
H127 H 0.81003 0.18704 0.79644 0.0
H128 H 0.69252 0.2659 0.98013 0.0
O129 O 0.76833 0.33944 0.96597 0.0
H130 H 0.57463 0.26373 0.89962 0.0
H131 H 0.716 0.43621 0.92816 0.0
H132 H 0.78889 0.36748 0.86068 0.0
H133 H 0.66169 0.29977 0.88566 0.0
H134 H 0.71438 0.36941 0.94768 0.0
O135 O 0.72464 0.17171 0.93087 0.0
H136 H 0.78769 0.22878 0.83448 0.0
H137 H 0.79028 0.15432 0.91644 0.0
H138 H 0.79092 0.43403 0.84007 0.0
H139 H 0.60577 0.22979 0.99525 0.0
H140 H 0.75429 0.46886 0.87391 0.0
H141 H 0.54617 0.22849 0.9548 0.0
O142 O 0.82043 0.33906 0.90947 0.0
H143 H 0.83805 0.23053 0.02023 0.0
H144 H 0.87566 0.25729 0.90071 0.0
H145 H 0.94088 0.27077 0.9402 0.0
H146 H 0.92223 0.25724 1.00044 0.0
H147 H 0.77402 0.21802 0.97993 0.0
H148 H 0.81229 0.11155 0.87924 0.0
H149 H 0.82249 0.12793 0.81878 0.0
O150 O 0.81763 0.2823 0.88266 0.0
C151 C 0.71355 0.24921 0.86186 0.0
C152 C 0.8058 0.17965 0.82275 0.0
C153 C 0.807 0.13725 0.86921 0.0
N154 N 0.7879 0.19417 0.87767 0.0
C155 C 0.79323 0.20324 0.84443 0.0
C156 C 0.79439 0.1615 0.89014 0.0
C157 C 0.81274 0.14647 0.83529 0.0
C158 C 0.66681 0.26575 0.96252 0.0
N159 N 0.68216 0.28507 0.93214 0.0
C160 C 0.61774 0.24514 0.97117 0.0
C161 C 0.58431 0.24437 0.94844 0.0
C162 C 0.60025 0.26411 0.91747 0.0
C163 C 0.64959 0.28438 0.90968 0.0
C164 C 0.73199 0.42129 0.91315 0.0
C165 C 0.77262 0.38228 0.87546 0.0
C166 C 0.73127 0.3835 0.9241 0.0
N167 N 0.75118 0.36435 0.9052 0.0
C168 C 0.77399 0.42004 0.8637 0.0
C169 C 0.75347 0.43958 0.88271 0.0
C170 C 0.83913 0.32282 0.89029 0.0
C171 C 0.84661 0.23643 0.99404 0.0
C172 C 0.86726 0.25154 0.9269 0.0
C173 C 0.90434 0.25911 0.94913 0.0
C174 C 0.89384 0.25148 0.98292 0.0
N175 N 0.821 0.23678 0.93799 0.0
C176 C 0.81046 0.22925 0.97108 0.0
Co177 Co 0.45707 0.72216 0.08514 0.0
Co178 Co 0.56379 0.81235 0.10879 0.0
O179 O 0.516 0.77715 0.0749 0.0
C180 C 0.45844 0.66184 0.03459 0.0
O181 O 0.45589 0.63649 0.05929 0.0
C182 C 0.54562 0.87765 0.07404 0.0
O183 O 0.49878 0.85133 0.07807 0.0
O184 O 0.51242 0.81297 0.13693 0.0
O185 O 0.45059 0.74468 0.12935 0.0
H186 H 0.62827 0.8527 0.22515 0.0
H187 H 0.46399 0.76798 0.02199 0.0
O188 O 0.46207 0.69882 0.04063 0.0
H189 H 0.32274 0.75814 0.08048 0.0
H190 H 0.29302 0.59184 0.05951 0.0
H191 H 0.42096 0.66455 0.14419 0.0
H192 H 0.36931 0.72682 0.10529 0.0
H193 H 0.36727 0.66169 0.04706 0.0
O194 O 0.57572 0.86711 0.08541 0.0
H195 H 0.56876 0.80793 0.18214 0.0
H196 H 0.66071 0.89377 0.10688 0.0
H197 H 0.34723 0.59478 0.15771 0.0
H198 H 0.41804 0.79924 0.99605 0.0
H199 H 0.28263 0.55795 0.11519 0.0
H200 H 0.34694 0.79456 0.0254 0.0
O201 O 0.49674 0.6992 0.10589 0.0
H202 H 0.65249 0.82616 1.00207 0.0
H203 H 0.64438 0.79432 0.12196 0.0
H204 H 0.70706 0.79192 0.08752 0.0
H205 H 0.71152 0.80808 0.02713 0.0
H206 H 0.59004 0.82777 0.03737 0.0
H207 H 0.72105 0.93966 0.14909 0.0
H208 H 0.70507 0.9191 0.20871 0.0
O209 O 0.55415 0.75852 0.13244 0.0
C210 C 0.47094 0.781 0.14499 0.0
C211 C 0.63571 0.86193 0.19925 0.0
C212 C 0.68775 0.91077 0.15657 0.0
N213 N 0.61139 0.84806 0.14203 0.0
C214 C 0.60221 0.83666 0.17478 0.0
C215 C 0.65339 0.88473 0.13278 0.0
C216 C 0.67877 0.89921 0.19001 0.0
C217 C 0.4328 0.76541 0.03477 0.0
N218 N 0.41928 0.74543 0.06509 0.0
C219 C 0.40705 0.78334 0.02002 0.0
C220 C 0.36721 0.78077 0.03653 0.0
C221 C 0.35365 0.76039 0.06745 0.0
C222 C 0.3803 0.74286 0.08145 0.0
C223 C 0.32089 0.60759 0.07825 0.0
C224 C 0.39298 0.64875 0.12557 0.0
C225 C 0.36301 0.64714 0.07136 0.0
N226 N 0.3984 0.66722 0.09491 0.0
C227 C 0.35132 0.60924 0.13337 0.0
C228 C 0.31509 0.58859 0.1095 0.0
C229 C 0.53153 0.71741 0.12671 0.0
C230 C 0.65098 0.81916 0.02837 0.0
C231 C 0.64589 0.80116 0.09567 0.0
C232 C 0.68157 0.79988 0.07631 0.0
C233 C 0.68406 0.80897 0.04244 0.0
N234 N 0.61368 0.81135 0.08171 0.0
C235 C 0.61579 0.82013 0.04849 0.0
Co236 Co 0.76792 0.57352 0.27732 0.0
Co237 Co 0.76081 0.47458 0.26339 0.0
O238 O 0.75453 0.52432 0.24763 0.0
C239 C 0.67656 0.5567 0.2408 0.0
O240 O 0.66181 0.51505 0.23682 0.0
C241 C 0.8107 0.49545 0.19689 0.0
O242 O 0.82591 0.5372 0.20071 0.0
O243 O 0.82903 0.51506 0.27766 0.0
O244 O 0.82127 0.56917 0.30005 0.0
H245 H 0.80755 0.39529 0.34566 0.0
H246 H 0.76605 0.58475 0.20451 0.0
O247 O 0.71619 0.58171 0.25582 0.0
H248 H 0.92997 0.6976 0.2399 0.0
H249 H 0.79228 0.72208 0.3056 0.0
H250 H 0.78657 0.58944 0.34955 0.0
H251 H 0.87026 0.64795 0.2809 0.0
H252 H 0.77673 0.66115 0.26822 0.0
O253 O 0.78491 0.46796 0.21907 0.0
H254 H 0.79822 0.45635 0.32511 0.0
H255 H 0.73794 0.38821 0.23483 0.0
H256 H 0.80265 0.64978 0.38776 0.0
H257 H 0.82433 0.63427 0.1627 0.0
H258 H 0.80557 0.7167 0.36582 0.0
H259 H 0.90707 0.69108 0.18029 0.0
O260 O 0.71962 0.53236 0.3102 0.0
H261 H 0.62193 0.41645 0.18266 0.0
H262 H 0.67346 0.39919 0.29438 0.0
H263 H 0.58905 0.35006 0.27659 0.0
H264 H 0.56281 0.35842 0.22028 0.0
H265 H 0.70583 0.46534 0.20173 0.0
H266 H 0.747 0.3266 0.2543 0.0
H267 H 0.78184 0.32981 0.31014 0.0
O268 O 0.7361 0.47783 0.30837 0.0
C269 C 0.84519 0.54959 0.29523 0.0
C270 C 0.79219 0.39345 0.32132 0.0
C271 C 0.75826 0.35492 0.27003 0.0
N272 N 0.76726 0.42577 0.27891 0.0
C273 C 0.78672 0.42788 0.30958 0.0
C274 C 0.75333 0.38998 0.25911 0.0
C275 C 0.7778 0.35674 0.30137 0.0
C276 C 0.8018 0.60967 0.21242 0.0
N277 N 0.8147 0.61335 0.24514 0.0
C278 C 0.83473 0.6375 0.1886 0.0
C279 C 0.88117 0.6693 0.19848 0.0
C280 C 0.89406 0.67293 0.2319 0.0
C281 C 0.86017 0.64452 0.25501 0.0
C282 C 0.79111 0.6931 0.31546 0.0
C283 C 0.78794 0.61851 0.33979 0.0
C284 C 0.78217 0.65841 0.29443 0.0
N285 N 0.78087 0.62178 0.30666 0.0
C286 C 0.79699 0.65255 0.36156 0.0
C287 C 0.79859 0.69007 0.34924 0.0
C288 C 0.71605 0.49736 0.32196 0.0
C289 C 0.63292 0.41246 0.20725 0.0
C290 C 0.66223 0.4034 0.27003 0.0
C291 C 0.61443 0.37529 0.26 0.0
C292 C 0.59975 0.37995 0.22838 0.0
N293 N 0.69454 0.43526 0.24919 0.0
C294 C 0.68043 0.43995 0.21814 0.0
Co295 Co 0.26902 0.69701 0.41453 0.0
Co296 Co 0.26135 0.79025 0.41455 0.0
O297 O 0.27665 0.74937 0.43663 0.0
C298 C 0.21765 0.66252 0.47846 0.0
O299 O 0.19586 0.6852 0.47352 0.0
C300 C 0.34975 0.87605 0.42939 0.0
O301 O 0.35617 0.883 0.39724 0.0
O302 O 0.30662 0.79757 0.37724 0.0
O303 O 0.28955 0.72818 0.37102 0.0
H304 H 0.21987 0.85375 0.31683 0.0
H305 H 0.32944 0.72985 0.47521 0.0
O306 O 0.24836 0.66404 0.45747 0.0
H307 H 0.43922 0.73149 0.38799 0.0
H308 H 0.28298 0.56169 0.40582 0.0
H309 H 0.22615 0.65235 0.35068 0.0
H310 H 0.35326 0.70589 0.37547 0.0
H311 H 0.29375 0.6287 0.43267 0.0
O312 O 0.31562 0.83952 0.4402 0.0
H313 H 0.23818 0.80202 0.34542 0.0
H314 H 0.25355 0.86717 0.43718 0.0
H315 H 0.215 0.58581 0.32281 0.0
H316 H 0.41509 0.75534 0.48891 0.0
H317 H 0.24354 0.53996 0.35042 0.0
H318 H 0.47061 0.75631 0.4451 0.0
O319 O 0.20031 0.67785 0.40387 0.0
H320 H 0.21315 0.77925 0.53468 0.0
H321 H 0.15935 0.77281 0.41894 0.0
H322 H 0.10267 0.76088 0.46478 0.0
H323 H 0.12953 0.76423 0.52319 0.0
H324 H 0.2684 0.79031 0.48804 0.0
H325 H 0.23561 0.9197 0.40956 0.0
H326 H 0.21853 0.91313 0.34896 0.0
O327 O 0.20558 0.74145 0.38955 0.0
C328 C 0.3079 0.76739 0.36061 0.0
C329 C 0.22724 0.85694 0.34325 0.0
C330 C 0.23608 0.89396 0.39529 0.0
N331 N 0.24691 0.83153 0.39292 0.0
C332 C 0.23761 0.82774 0.35957 0.0
C333 C 0.24627 0.86415 0.41078 0.0
C334 C 0.2265 0.89026 0.36129 0.0
C335 C 0.35333 0.72991 0.45609 0.0
N336 N 0.33632 0.71617 0.42466 0.0
C337 C 0.40181 0.74449 0.46396 0.0
C338 C 0.43295 0.74507 0.43936 0.0
C339 C 0.41537 0.73117 0.40731 0.0
C340 C 0.36669 0.71681 0.40035 0.0
C341 C 0.27051 0.58146 0.39349 0.0
C342 C 0.23899 0.63275 0.36273 0.0
C343 C 0.27644 0.6194 0.4086 0.0
N344 N 0.26103 0.64465 0.39309 0.0
C345 C 0.23243 0.59502 0.34689 0.0
C346 C 0.24839 0.56929 0.36241 0.0
C347 C 0.18273 0.69963 0.39057 0.0
C348 C 0.20105 0.77781 0.50934 0.0
C349 C 0.17119 0.77392 0.44422 0.0
C350 C 0.139 0.76736 0.47012 0.0
C351 C 0.15411 0.7693 0.50288 0.0
N352 N 0.21719 0.78227 0.45073 0.0
C353 C 0.23225 0.78424 0.48281 0.0
H354 H 0.53335 0.12955 0.52341 0.0
H355 H 0.32739 0.88012 0.49456 0.0
H356 H 0.39831 0.06553 0.57771 0.0
H357 H 0.42993 0.957 0.418 0.0
H358 H 0.36327 0.94398 0.53096 0.0
H359 H 0.50544 0.0629 0.49003 0.0
C360 C 0.49811 0.10137 0.52857 0.0
C361 C 0.46805 0.10318 0.55335 0.0
C362 C 0.37819 0.94678 0.5063 0.0
C363 C 0.4362 0.02688 0.51547 0.0
C364 C 0.35795 0.91021 0.48551 0.0
C365 C 0.3755 0.9131 0.453 0.0
C366 C 0.41675 0.98663 0.4948 0.0
C367 C 0.41507 0.95324 0.44277 0.0
C368 C 0.48215 0.06347 0.5094 0.0
C369 C 0.42259 0.06573 0.55877 0.0
N370 N 0.43432 0.98845 0.46356 0.0
N371 N 0.40815 0.02919 0.54008 0.0
H372 H 0.51304 0.38426 0.62629 0.0
H373 H 0.30049 0.36234 0.74568 0.0
H374 H 0.40409 0.26361 0.67121 0.0
H375 H 0.41545 0.48707 0.71073 0.0
H376 H 0.33866 0.32645 0.7177 0.0
H377 H 0.47879 0.42312 0.65611 0.0
C378 C 0.48201 0.36589 0.64237 0.0
C379 C 0.46132 0.3204 0.64596 0.0
C380 C 0.35578 0.36169 0.71615 0.0
C381 C 0.42198 0.36482 0.68018 0.0
C382 C 0.33389 0.38232 0.73215 0.0
C383 C 0.35468 0.42792 0.7306 0.0
C384 C 0.39888 0.3866 0.69812 0.0
C385 C 0.39816 0.45186 0.71267 0.0
C386 C 0.46253 0.38816 0.65943 0.0
C387 C 0.42127 0.29854 0.66736 0.0
N388 N 0.41873 0.4309 0.69701 0.0
N389 N 0.40295 0.32087 0.68346 0.0
H390 H 0.91864 0.38853 0.92117 0.0
H391 H 0.09229 0.46605 0.76366 0.0
H392 H 0.86997 0.32168 0.82727 0.0
H393 H 0.14342 0.44963 0.85877 0.0
H394 H 1.00963 0.4329 0.7867 0.0
H395 H 1.00132 0.43119 0.89825 0.0
C396 C 0.92525 0.38346 0.89558 0.0
C397 C 0.88768 0.35167 0.876 0.0
C398 C 0.03922 0.4372 0.80253 0.0
C399 C 0.9812 0.40057 0.8497 0.0
C400 C 0.08624 0.4563 0.78954 0.0
C401 C 0.12454 0.46055 0.80943 0.0
C402 C 0.0309 0.42354 0.83581 0.0
C403 C 0.11475 0.44683 0.84268 0.0
C404 C 0.97226 0.40752 0.88266 0.0
C405 C 0.8981 0.34586 0.84313 0.0
N406 N 0.06888 0.42914 0.85494 0.0
N407 N 0.94389 0.3703 0.83089 0.0
H408 H 0.6399 0.93637 0.05855 0.0
H409 H 0.58521 0.10478 0.96085 0.0
H410 H 0.49444 0.91376 0.04598 0.0
H411 H 0.72451 0.11191 0.96415 0.0
H412 H 0.55071 0.03725 0.99401 0.0
H413 H 0.67094 1.00332 0.02646 0.0
C414 C 0.61435 0.9455 0.04914 0.0
C415 C 0.56435 0.91917 0.05509 0.0
C416 C 0.58879 0.05368 0.98737 0.0
C417 C 0.60004 0.99652 0.01788 0.0
C418 C 0.60852 0.09224 0.96846 0.0
C419 C 0.65787 0.11416 0.95953 0.0
C420 C 0.61872 0.03715 0.9976 0.0
C421 C 0.68627 0.09629 0.97019 0.0
C422 C 0.6322 0.98387 0.03066 0.0
C423 C 0.53325 0.93298 0.04206 0.0
N424 N 0.66637 0.05911 0.9886 0.0
N425 N 0.55159 0.97072 0.02408 0.0
H426 H 0.68794 0.63644 0.25531 0.0
H427 H 0.50133 0.62968 0.11867 0.0
H428 H 0.60302 0.52316 0.19373 0.0
H429 H 0.59842 0.74301 0.17676 0.0
H430 H 0.53206 0.5875 0.14791 0.0
H431 H 0.6491 0.67274 0.22928 0.0
C432 C 0.66097 0.61903 0.23628 0.0
C433 C 0.64921 0.57671 0.2265 0.0
C434 C 0.5464 0.62156 0.15426 0.0
C435 C 0.60414 0.61864 0.19622 0.0
C436 C 0.52886 0.6457 0.13761 0.0
C437 C 0.54744 0.69019 0.14502 0.0
C438 C 0.58258 0.64197 0.17862 0.0
C439 C 0.58304 0.70899 0.1699 0.0
C440 C 0.63867 0.63991 0.22137 0.0
C441 C 0.61331 0.55581 0.20201 0.0
N442 N 0.59936 0.68489 0.18563 0.0
N443 N 0.59224 0.57711 0.18751 0.0
H444 H 0.12624 0.61121 0.37838 0.0
H445 H 0.89253 0.62526 0.33114 0.0
H446 H 0.12665 0.73296 0.36809 0.0
H447 H 0.91006 0.51896 0.29488 0.0
H448 H 0.97441 0.66026 0.35322 0.0
H449 H 0.04383 0.57255 0.35508 0.0
C450 C 0.10911 0.62985 0.37136 0.0
C451 C 0.13343 0.6755 0.37565 0.0
C452 C 0.96045 0.62933 0.34036 0.0
C453 C 0.03913 0.6313 0.34938 0.0
C454 C 0.9135 0.60914 0.32767 0.0
C455 C 0.89429 0.56924 0.31048 0.0
C456 C 0.98861 0.60935 0.33658 0.0
C457 C 0.9234 0.54986 0.30763 0.0
C458 C 0.06219 0.60773 0.35796 0.0
C459 C 0.10942 0.69782 0.36574 0.0
N460 N 0.96916 0.57007 0.32062 0.0
N461 N 0.06359 0.6755 0.35341 0.0
H462 H 0.56501 0.31717 0.48094 0.0
H463 H 0.67132 0.52877 0.36398 0.0
H464 H 0.57737 0.43823 0.5148 0.0
H465 H 0.69638 0.42041 0.35083 0.0
H466 H 0.6249 0.49341 0.41481 0.0
H467 H 0.59857 0.35112 0.4275 0.0
C468 C 0.57416 0.35075 0.47705 0.0
C469 C 0.56882 0.37497 0.50264 0.0
C470 C 0.64043 0.47748 0.4005 0.0
C471 C 0.60795 0.41436 0.44127 0.0
C472 C 0.6669 0.49759 0.37154 0.0
C473 C 0.68764 0.47752 0.35279 0.0
C474 C 0.63425 0.43686 0.41043 0.0
C475 C 0.68086 0.43717 0.36399 0.0
C476 C 0.59363 0.37024 0.44651 0.0
C477 C 0.58112 0.41837 0.49586 0.0
N478 N 0.65476 0.41829 0.39184 0.0
N479 N 0.60053 0.43686 0.46589 0.0
H480 H 0.23435 0.59483 0.48856 0.0
H481 H 0.20249 0.59039 0.68296 0.0
H482 H 0.1793 0.66972 0.53758 0.0
H483 H 0.19416 0.48057 0.63029 0.0
H484 H 0.19682 0.62148 0.63014 0.0
H485 H 0.22324 0.55412 0.54008 0.0
C486 C 0.21969 0.60257 0.51014 0.0
C487 C 0.208 0.63592 0.50887 0.0
C488 C 0.19558 0.59032 0.63011 0.0
C489 C 0.19561 0.58967 0.5679 0.0
C490 C 0.19896 0.5726 0.66021 0.0
C491 C 0.19897 0.53292 0.66091 0.0
C492 C 0.19332 0.56877 0.60032 0.0
C493 C 0.19411 0.51115 0.63078 0.0
C494 C 0.2131 0.57912 0.53945 0.0
C495 C 0.18879 0.64429 0.53748 0.0
N496 N 0.19228 0.52974 0.60157 0.0
N497 N 0.18381 0.62172 0.56598 0.0
H498 H 0.64739 0.1723 0.83006 0.0
H499 H 0.63414 0.30294 0.6718 0.0
H500 H 0.72537 0.31262 0.81865 0.0
H501 H 0.52158 0.16978 0.69079 0.0
H502 H 0.67492 0.30188 0.72213 0.0
H503 H 0.60709 0.16607 0.77621 0.0
C504 C 0.65624 0.20166 0.81625 0.0
C505 C 0.68964 0.24305 0.82906 0.0
C506 C 0.64134 0.27275 0.71541 0.0
C507 C 0.64431 0.23615 0.76773 0.0
C508 C 0.6179 0.27323 0.68644 0.0
C509 C 0.57394 0.23644 0.67691 0.0
C510 C 0.62105 0.23524 0.73547 0.0
C511 C 0.55527 0.19897 0.69718 0.0
C512 C 0.63314 0.19808 0.78567 0.0
C513 C 0.69965 0.28 0.81014 0.0
N514 N 0.57885 0.19935 0.72564 0.0
N515 N 0.67727 0.27562 0.78062 0.0
H516 H 0.34157 0.48798 0.86406 0.0
H517 H 0.45242 0.70241 0.97842 0.0
H518 H 0.32941 0.60212 0.84407 0.0
H519 H 0.43644 0.58019 0.01272 0.0
H520 H 0.42062 0.66911 0.92445 0.0
H521 H 0.3876 0.52378 0.91472 0.0
C522 C 0.34886 0.52058 0.87007 0.0
C523 C 0.33158 0.542 0.84958 0.0
C524 C 0.42442 0.64961 0.94367 0.0
C525 C 0.38442 0.58312 0.90723 0.0
C526 C 0.44286 0.66872 0.97451 0.0
C527 C 0.44668 0.64398 1.00035 0.0
C528 C 0.40958 0.60536 0.93845 0.0
C529 C 0.43385 0.60045 0.99361 0.0
C530 C 0.37508 0.54094 0.89898 0.0
C531 C 0.34203 0.5842 0.85878 0.0
N532 N 0.41545 0.58238 0.96339 0.0
N533 N 0.36765 0.60322 0.88679 0.0
H534 H 0.78174 0.40908 0.99557 0.0
H535 H 0.81773 0.42239 0.18965 0.0
H536 H 0.8409 0.33814 0.0454 0.0
H537 H 0.82393 0.52907 0.13369 0.0
H538 H 0.82307 0.38901 0.13778 0.0
H539 H 0.79289 0.45109 0.04626 0.0
C540 C 0.79716 0.40236 0.01721 0.0
C541 C 0.81006 0.36977 0.01637 0.0
C542 C 0.82393 0.42 0.13685 0.0
C543 C 0.82262 0.41771 0.07457 0.0
C544 C 0.82074 0.43903 0.16641 0.0
C545 C 0.82018 0.47849 0.16591 0.0
C546 C 0.82543 0.44 0.10645 0.0
C547 C 0.82438 0.49872 0.13515 0.0
C548 C 0.80384 0.42663 0.04605 0.0
C549 C 0.83042 0.3629 0.04502 0.0
N550 N 0.82603 0.47886 0.10655 0.0
N551 N 0.83545 0.38627 0.07316 0.0
H552 H 0.38627 0.84322 0.33583 0.0
H553 H 0.37884 0.72309 0.16514 0.0
H554 H 0.27928 0.71127 0.3089 0.0
H555 H 0.50361 0.84649 0.19271 0.0
H556 H 0.33768 0.72523 0.2149 0.0
H557 H 0.42561 0.85159 0.28119 0.0
C558 C 0.37074 0.81634 0.31831 0.0
C559 C 0.32977 0.77634 0.32701 0.0
C560 C 0.37399 0.75208 0.21019 0.0
C561 C 0.37409 0.78562 0.26495 0.0
C562 C 0.39767 0.75096 0.18152 0.0
C563 C 0.44508 0.78459 0.17455 0.0
C564 C 0.39766 0.78687 0.23268 0.0
C565 C 0.46713 0.81977 0.19705 0.0
C566 C 0.39329 0.82102 0.28731 0.0
C567 C 0.31117 0.74248 0.30351 0.0
N568 N 0.44337 0.81985 0.22531 0.0
N569 N 0.33344 0.74788 0.2738 0.0
loop_
_geom_bond_atom_site_label_1
_geom_bond_atom_site_label_2
_geom_bond_distance
_geom_bond_site_symmetry_2
_ccdc_geom_bond_type
Co0 O2 2.143 . S
Co0 O8 2.074 . S
Co0 O11 2.093 . S
Co0 O24 2.097 . S
Co0 N41 2.151 . S
Co0 N49 2.214 . S
Co1 O2 2.160 . S
Co1 O7 2.058 . S
Co1 O17 2.057 . S
Co1 O32 2.037 . S
Co1 N36 2.145 . S
Co1 N57 2.257 . S
O2 Co0 2.143 . S
O2 Co1 2.160 . S
C3 O4 1.278 . S
C3 O11 1.224 . S
O4 C3 1.278 . S
C5 O6 1.245 . S
C5 O17 1.232 . S
O6 C5 1.245 . S
O7 Co1 2.058 . S
O7 C33 1.269 . S
O8 Co0 2.074 . S
O8 C33 1.257 . S
H9 C34 0.930 . S
H10 C40 0.930 . S
O11 Co0 2.093 . S
O11 C3 1.224 . S
H12 C44 0.929 . S
H13 C46 0.930 . S
H14 C47 0.930 . S
H15 C45 0.929 . S
H16 C48 0.928 . S
O17 Co1 2.057 . S
O17 C5 1.232 . S
H18 C37 0.929 . S
H19 C38 0.929 . S
H20 C50 0.931 . S
H21 C42 0.929 . S
H22 C51 0.930 . S
H23 C43 0.931 . S
O24 Co0 2.097 . S
O24 C52 1.214 . S
H25 C53 0.929 . S
H26 C54 0.929 . S
H27 C55 0.930 . S
H28 C56 0.929 . S
H29 C58 0.930 . S
H30 C35 0.930 . S
H31 C39 0.930 . S
O32 Co1 2.037 . S
O32 C52 1.234 . S
C33 O7 1.269 . S
C33 O8 1.257 . S
C34 H9 0.930 . S
C34 C37 1.388 . S
C34 C39 1.418 . S
C35 H30 0.930 . S
C35 C38 1.404 . S
C35 C39 1.353 . S
N36 Co1 2.145 . S
N36 C37 1.397 . S
N36 C38 1.334 . S
C37 H18 0.929 . S
C37 C34 1.388 . S
C37 N36 1.397 . S
C38 H19 0.929 . S
C38 C35 1.404 . S
C38 N36 1.334 . S
C39 H31 0.930 . S
C39 C34 1.418 . S
C39 C35 1.353 . S
C40 H10 0.930 . S
C40 N41 1.330 . S
C40 C42 1.446 . S
N41 Co0 2.151 . S
N41 C40 1.330 . S
N41 C45 1.418 . S
C42 H21 0.929 . S
C42 C40 1.446 . S
C42 C43 1.332 . S
C43 H23 0.931 . S
C43 C42 1.332 . S
C43 C44 1.267 . S
C44 H12 0.929 . S
C44 C43 1.267 . S
C44 C45 1.251 . S
C45 H15 0.929 . S
C45 N41 1.418 . S
C45 C44 1.251 . S
C46 H13 0.930 . S
C46 C48 1.406 . S
C46 C51 1.261 . S
C47 H14 0.930 . S
C47 N49 1.325 . S
C47 C50 1.357 . S
C48 H16 0.928 . S
C48 C46 1.406 . S
C48 N49 1.261 . S
N49 Co0 2.214 . S
N49 C47 1.325 . S
N49 C48 1.261 . S
C50 H20 0.931 . S
C50 C47 1.357 . S
C50 C51 1.312 . S
C51 H22 0.930 . S
C51 C46 1.261 . S
C51 C50 1.312 . S
C52 O24 1.214 . S
C52 O32 1.234 . S
C53 H25 0.929 . S
C53 C56 1.391 . S
C53 C58 1.391 . S
C54 H26 0.929 . S
C54 C55 1.390 . S
C54 N57 1.391 . S
C55 H27 0.930 . S
C55 C54 1.390 . S
C55 C56 1.392 . S
C56 H28 0.929 . S
C56 C53 1.391 . S
C56 C55 1.392 . S
N57 Co1 2.257 . S
N57 C54 1.391 . S
N57 C58 1.388 . S
C58 H29 0.930 . S
C58 C53 1.391 . S
C58 N57 1.388 . S
Co59 O61 2.143 . S
Co59 O67 2.074 . S
Co59 O70 2.093 . S
Co59 O83 2.097 . S
Co59 N100 2.151 . S
Co59 N108 2.214 . S
Co60 O61 2.160 . S
Co60 O66 2.058 . S
Co60 O76 2.057 . S
Co60 O91 2.037 . S
Co60 N95 2.145 . S
Co60 N116 2.257 . S
O61 Co59 2.143 . S
O61 Co60 2.160 . S
C62 O63 1.278 . S
C62 O70 1.224 . S
O63 C62 1.278 . S
C64 O65 1.245 . S
C64 O76 1.232 . S
O65 C64 1.245 . S
O66 Co60 2.058 . S
O66 C92 1.269 . S
O67 Co59 2.074 . S
O67 C92 1.257 . S
H68 C93 0.930 . S
H69 C99 0.930 . S
O70 Co59 2.093 . S
O70 C62 1.224 . S
H71 C103 0.929 . S
H72 C105 0.930 . S
H73 C106 0.930 . S
H74 C104 0.929 . S
H75 C107 0.928 . S
O76 Co60 2.057 . S
O76 C64 1.232 . S
H77 C96 0.929 . S
H78 C97 0.929 . S
H79 C109 0.931 . S
H80 C101 0.929 . S
H81 C110 0.930 . S
H82 C102 0.931 . S
O83 Co59 2.097 . S
O83 C111 1.214 . S
H84 C112 0.929 . S
H85 C113 0.929 . S
H86 C114 0.930 . S
H87 C115 0.929 . S
H88 C117 0.930 . S
H89 C94 0.930 . S
H90 C98 0.930 . S
O91 Co60 2.037 . S
O91 C111 1.234 . S
C92 O66 1.269 . S
C92 O67 1.257 . S
C93 H68 0.930 . S
C93 C96 1.388 . S
C93 C98 1.418 . S
C94 H89 0.930 . S
C94 C97 1.404 . S
C94 C98 1.353 . S
N95 Co60 2.145 . S
N95 C96 1.397 . S
N95 C97 1.334 . S
C96 H77 0.929 . S
C96 C93 1.388 . S
C96 N95 1.397 . S
C97 H78 0.929 . S
C97 C94 1.404 . S
C97 N95 1.334 . S
C98 H90 0.930 . S
C98 C93 1.418 . S
C98 C94 1.353 . S
C99 H69 0.930 . S
C99 N100 1.330 . S
C99 C101 1.446 . S
N100 Co59 2.151 . S
N100 C99 1.330 . S
N100 C104 1.418 . S
C101 H80 0.929 . S
C101 C99 1.446 . S
C101 C102 1.332 . S
C102 H82 0.931 . S
C102 C101 1.332 . S
C102 C103 1.267 . S
C103 H71 0.929 . S
C103 C102 1.267 . S
C103 C104 1.251 . S
C104 H74 0.929 . S
C104 N100 1.418 . S
C104 C103 1.251 . S
C105 H72 0.930 . S
C105 C107 1.406 . S
C105 C110 1.261 . S
C106 H73 0.930 . S
C106 N108 1.325 . S
C106 C109 1.357 . S
C107 H75 0.928 . S
C107 C105 1.406 . S
C107 N108 1.261 . S
N108 Co59 2.214 . S
N108 C106 1.325 . S
N108 C107 1.261 . S
C109 H79 0.931 . S
C109 C106 1.357 . S
C109 C110 1.312 . S
C110 H81 0.930 . S
C110 C105 1.261 . S
C110 C109 1.312 . S
C111 O83 1.214 . S
C111 O91 1.234 . S
C112 H84 0.929 . S
C112 C115 1.391 . S
C112 C117 1.391 . S
C113 H85 0.929 . S
C113 C114 1.390 . S
C113 N116 1.391 . S
C114 H86 0.930 . S
C114 C113 1.390 . S
C114 C115 1.392 . S
C115 H87 0.929 . S
C115 C112 1.391 . S
C115 C114 1.392 . S
N116 Co60 2.257 . S
N116 C113 1.391 . S
N116 C117 1.388 . S
C117 H88 0.930 . S
C117 C112 1.391 . S
C117 N116 1.388 . S
Co118 O120 2.143 . S
Co118 O126 2.074 . S
Co118 O129 2.093 . S
Co118 O142 2.097 . S
Co118 N159 2.151 . S
Co118 N167 2.214 . S
Co119 O120 2.160 . S
Co119 O125 2.058 . S
Co119 O135 2.057 . S
Co119 O150 2.037 . S
Co119 N154 2.145 . S
Co119 N175 2.257 . S
O120 Co118 2.143 . S
O120 Co119 2.160 . S
C121 O122 1.278 . S
C121 O129 1.224 . S
O122 C121 1.278 . S
C123 O124 1.245 . S
C123 O135 1.232 . S
O124 C123 1.245 . S
O125 Co119 2.058 . S
O125 C151 1.269 . S
O126 Co118 2.074 . S
O126 C151 1.257 . S
H127 C152 0.930 . S
H128 C158 0.930 . S
O129 Co118 2.093 . S
O129 C121 1.224 . S
H130 C162 0.929 . S
H131 C164 0.930 . S
H132 C165 0.930 . S
H133 C163 0.929 . S
H134 C166 0.928 . S
O135 Co119 2.057 . S
O135 C123 1.232 . S
H136 C155 0.929 . S
H137 C156 0.929 . S
H138 C168 0.931 . S
H139 C160 0.929 . S
H140 C169 0.930 . S
H141 C161 0.931 . S
O142 Co118 2.097 . S
O142 C170 1.214 . S
H143 C171 0.957 . S
H144 C172 0.929 . S
H145 C173 0.930 . S
H146 C174 0.929 1_554 S
H147 C176 0.930 . S
H148 C153 0.930 . S
H149 C157 0.930 . S
O150 Co119 2.037 . S
O150 C170 1.234 . S
C151 O125 1.269 . S
C151 O126 1.257 . S
C152 H127 0.930 . S
C152 C155 1.388 . S
C152 C157 1.418 . S
C153 H148 0.930 . S
C153 C156 1.404 . S
C153 C157 1.353 . S
N154 Co119 2.145 . S
N154 C155 1.397 . S
N154 C156 1.334 . S
C155 H136 0.929 . S
C155 C152 1.388 . S
C155 N154 1.397 . S
C156 H137 0.929 . S
C156 C153 1.404 . S
C156 N154 1.334 . S
C157 H149 0.930 . S
C157 C152 1.418 . S
C157 C153 1.353 . S
C158 H128 0.930 . S
C158 N159 1.330 . S
C158 C160 1.446 . S
N159 Co118 2.151 . S
N159 C158 1.330 . S
N159 C163 1.418 . S
C160 H139 0.929 . S
C160 C158 1.446 . S
C160 C161 1.332 . S
C161 H141 0.931 . S
C161 C160 1.332 . S
C161 C162 1.267 . S
C162 H130 0.929 . S
C162 C161 1.267 . S
C162 C163 1.251 . S
C163 H133 0.929 . S
C163 N159 1.418 . S
C163 C162 1.251 . S
C164 H131 0.930 . S
C164 C166 1.406 . S
C164 C169 1.261 . S
C165 H132 0.930 . S
C165 N167 1.325 . S
C165 C168 1.357 . S
C166 H134 0.928 . S
C166 C164 1.406 . S
C166 N167 1.261 . S
N167 Co118 2.214 . S
N167 C165 1.325 . S
N167 C166 1.261 . S
C168 H138 0.931 . S
C168 C165 1.357 . S
C168 C169 1.312 . S
C169 H140 0.930 . S
C169 C164 1.261 . S
C169 C168 1.312 . S
C170 O142 1.214 . S
C170 O150 1.234 . S
C171 H143 0.957 . S
C171 C174 1.385 1_554 S
C171 C176 1.370 1_554 S
C172 H144 0.929 . S
C172 C173 1.390 . S
C172 N175 1.391 . S
C173 H145 0.930 . S
C173 C172 1.390 . S
C173 C174 1.392 . S
C174 H146 0.929 1_556 S
C174 C171 1.385 1_556 S
C174 C173 1.392 . S
N175 Co119 2.257 . S
N175 C172 1.391 . S
N175 C176 1.388 . S
C176 H147 0.930 . S
C176 C171 1.370 1_556 S
C176 N175 1.388 . S
Co177 O179 2.143 . S
Co177 O185 2.074 . S
Co177 O188 2.093 . S
Co177 O201 2.097 . S
Co177 N218 2.151 . S
Co177 N226 2.214 . S
Co178 O179 2.160 . S
Co178 O184 2.058 . S
Co178 O194 2.057 . S
Co178 O209 2.037 . S
Co178 N213 2.145 . S
Co178 N234 2.257 . S
O179 Co177 2.143 . S
O179 Co178 2.160 . S
C180 O181 1.278 . S
C180 O188 1.224 . S
O181 C180 1.278 . S
C182 O183 1.245 . S
C182 O194 1.232 . S
O183 C182 1.245 . S
O184 Co178 2.058 . S
O184 C210 1.269 . S
O185 Co177 2.074 . S
O185 C210 1.257 . S
H186 C211 0.930 . S
H187 C217 0.930 . S
O188 Co177 2.093 . S
O188 C180 1.224 . S
H189 C221 0.929 . S
H190 C223 0.930 . S
H191 C224 0.930 . S
H192 C222 0.929 . S
H193 C225 0.928 . S
O194 Co178 2.057 . S
O194 C182 1.232 . S
H195 C214 0.929 . S
H196 C215 0.929 . S
H197 C227 0.931 . S
H198 C219 0.929 . S
H199 C228 0.930 . S
H200 C220 0.931 . S
O201 Co177 2.097 . S
O201 C229 1.214 . S
H202 C230 0.929 1_556 S
H203 C231 0.929 . S
H204 C232 0.930 . S
H205 C233 0.929 1_556 S
H206 C235 0.930 . S
H207 C212 0.930 . S
H208 C216 0.930 . S
O209 Co178 2.037 . S
O209 C229 1.234 . S
C210 O184 1.269 . S
C210 O185 1.257 . S
C211 H186 0.930 . S
C211 C214 1.388 . S
C211 C216 1.418 . S
C212 H207 0.930 . S
C212 C215 1.404 . S
C212 C216 1.353 . S
N213 Co178 2.145 . S
N213 C214 1.397 . S
N213 C215 1.334 . S
C214 H195 0.929 . S
C214 C211 1.388 . S
C214 N213 1.397 . S
C215 H196 0.929 . S
C215 C212 1.404 . S
C215 N213 1.334 . S
C216 H208 0.930 . S
C216 C211 1.418 . S
C216 C212 1.353 . S
C217 H187 0.930 . S
C217 N218 1.330 . S
C217 C219 1.446 . S
N218 Co177 2.151 . S
N218 C217 1.330 . S
N218 C222 1.418 . S
C219 H198 0.929 . S
C219 C217 1.446 . S
C219 C220 1.332 . S
C220 H200 0.931 . S
C220 C219 1.332 . S
C220 C221 1.267 . S
C221 H189 0.929 . S
C221 C220 1.267 . S
C221 C222 1.251 . S
C222 H192 0.929 . S
C222 N218 1.418 . S
C222 C221 1.251 . S
C223 H190 0.930 . S
C223 C225 1.406 . S
C223 C228 1.261 . S
C224 H191 0.930 . S
C224 N226 1.325 . S
C224 C227 1.357 . S
C225 H193 0.928 . S
C225 C223 1.406 . S
C225 N226 1.261 . S
N226 Co177 2.214 . S
N226 C224 1.325 . S
N226 C225 1.261 . S
C227 H197 0.931 . S
C227 C224 1.357 . S
C227 C228 1.312 . S
C228 H199 0.930 . S
C228 C223 1.261 . S
C228 C227 1.312 . S
C229 O201 1.214 . S
C229 O209 1.234 . S
C230 H202 0.929 1_554 S
C230 C233 1.391 . S
C230 C235 1.391 . S
C231 H203 0.929 . S
C231 C232 1.390 . S
C231 N234 1.391 . S
C232 H204 0.930 . S
C232 C231 1.390 . S
C232 C233 1.392 . S
C233 H205 0.929 1_554 S
C233 C230 1.391 . S
C233 C232 1.392 . S
N234 Co178 2.257 . S
N234 C231 1.391 . S
N234 C235 1.388 . S
C235 H206 0.930 . S
C235 C230 1.391 . S
C235 N234 1.388 . S
Co236 O238 2.143 . S
Co236 O244 2.074 . S
Co236 O247 2.093 . S
Co236 O260 2.097 . S
Co236 N277 2.151 . S
Co236 N285 2.214 . S
Co237 O238 2.160 . S
Co237 O243 2.058 . S
Co237 O253 2.057 . S
Co237 O268 2.037 . S
Co237 N272 2.145 . S
Co237 N293 2.257 . S
O238 Co236 2.143 . S
O238 Co237 2.160 . S
C239 O240 1.278 . S
C239 O247 1.224 . S
O240 C239 1.278 . S
C241 O242 1.245 . S
C241 O253 1.232 . S
O242 C241 1.245 . S
O243 Co237 2.058 . S
O243 C269 1.269 . S
O244 Co236 2.074 . S
O244 C269 1.257 . S
H245 C270 0.930 . S
H246 C276 0.930 . S
O247 Co236 2.093 . S
O247 C239 1.224 . S
H248 C280 0.929 . S
H249 C282 0.930 . S
H250 C283 0.930 . S
H251 C281 0.929 . S
H252 C284 0.928 . S
O253 Co237 2.057 . S
O253 C241 1.232 . S
H254 C273 0.929 . S
H255 C274 0.929 . S
H256 C286 0.931 . S
H257 C278 0.929 . S
H258 C287 0.930 . S
H259 C279 0.931 . S
O260 Co236 2.097 . S
O260 C288 1.214 . S
H261 C289 0.929 . S
H262 C290 0.929 . S
H263 C291 0.930 . S
H264 C292 0.929 . S
H265 C294 0.930 . S
H266 C271 0.930 . S
H267 C275 0.930 . S
O268 Co237 2.037 . S
O268 C288 1.234 . S
C269 O243 1.269 . S
C269 O244 1.257 . S
C270 H245 0.930 . S
C270 C273 1.388 . S
C270 C275 1.418 . S
C271 H266 0.930 . S
C271 C274 1.404 . S
C271 C275 1.353 . S
N272 Co237 2.145 . S
N272 C273 1.397 . S
N272 C274 1.334 . S
C273 H254 0.929 . S
C273 C270 1.388 . S
C273 N272 1.397 . S
C274 H255 0.929 . S
C274 C271 1.404 . S
C274 N272 1.334 . S
C275 H267 0.930 . S
C275 C270 1.418 . S
C275 C271 1.353 . S
C276 H246 0.930 . S
C276 N277 1.330 . S
C276 C278 1.446 . S
N277 Co236 2.151 . S
N277 C276 1.330 . S
N277 C281 1.418 . S
C278 H257 0.929 . S
C278 C276 1.446 . S
C278 C279 1.332 . S
C279 H259 0.931 . S
C279 C278 1.332 . S
C279 C280 1.267 . S
C280 H248 0.929 . S
C280 C279 1.267 . S
C280 C281 1.251 . S
C281 H251 0.929 . S
C281 N277 1.418 . S
C281 C280 1.251 . S
C282 H249 0.930 . S
C282 C284 1.406 . S
C282 C287 1.261 . S
C283 H250 0.930 . S
C283 N285 1.325 . S
C283 C286 1.357 . S
C284 H252 0.928 . S
C284 C282 1.406 . S
C284 N285 1.261 . S
N285 Co236 2.214 . S
N285 C283 1.325 . S
N285 C284 1.261 . S
C286 H256 0.931 . S
C286 C283 1.357 . S
C286 C287 1.312 . S
C287 H258 0.930 . S
C287 C282 1.261 . S
C287 C286 1.312 . S
C288 O260 1.214 . S
C288 O268 1.234 . S
C289 H261 0.929 . S
C289 C292 1.391 . S
C289 C294 1.391 . S
C290 H262 0.929 . S
C290 C291 1.390 . S
C290 N293 1.391 . S
C291 H263 0.930 . S
C291 C290 1.390 . S
C291 C292 1.392 . S
C292 H264 0.929 . S
C292 C289 1.391 . S
C292 C291 1.392 . S
N293 Co237 2.257 . S
N293 C290 1.391 . S
N293 C294 1.388 . S
C294 H265 0.930 . S
C294 C289 1.391 . S
C294 N293 1.388 . S
Co295 O297 2.143 . S
Co295 O303 2.074 . S
Co295 O306 2.093 . S
Co295 O319 2.097 . S
Co295 N336 2.151 . S
Co295 N344 2.214 . S
Co296 O297 2.160 . S
Co296 O302 2.058 . S
Co296 O312 2.057 . S
Co296 O327 2.037 . S
Co296 N331 2.145 . S
Co296 N352 2.257 . S
O297 Co295 2.143 . S
O297 Co296 2.160 . S
C298 O299 1.278 . S
C298 O306 1.224 . S
O299 C298 1.278 . S
C300 O301 1.245 . S
C300 O312 1.232 . S
O301 C300 1.245 . S
O302 Co296 2.058 . S
O302 C328 1.269 . S
O303 Co295 2.074 . S
O303 C328 1.257 . S
H304 C329 0.930 . S
H305 C335 0.930 . S
O306 Co295 2.093 . S
O306 C298 1.224 . S
H307 C339 0.929 . S
H308 C341 0.930 . S
H309 C342 0.930 . S
H310 C340 0.929 . S
H311 C343 0.928 . S
O312 Co296 2.057 . S
O312 C300 1.232 . S
H313 C332 0.929 . S
H314 C333 0.929 . S
H315 C345 0.931 . S
H316 C337 0.929 . S
H317 C346 0.930 . S
H318 C338 0.931 . S
O319 Co295 2.097 . S
O319 C347 1.214 . S
H320 C348 0.929 . S
H321 C349 0.929 . S
H322 C350 0.930 . S
H323 C351 0.929 . S
H324 C353 0.930 . S
H325 C330 0.930 . S
H326 C334 0.930 . S
O327 Co296 2.037 . S
O327 C347 1.234 . S
C328 O302 1.269 . S
C328 O303 1.257 . S
C329 H304 0.930 . S
C329 C332 1.388 . S
C329 C334 1.418 . S
C330 H325 0.930 . S
C330 C333 1.404 . S
C330 C334 1.353 . S
N331 Co296 2.145 . S
N331 C332 1.397 . S
N331 C333 1.334 . S
C332 H313 0.929 . S
C332 C329 1.388 . S
C332 N331 1.397 . S
C333 H314 0.929 . S
C333 C330 1.404 . S
C333 N331 1.334 . S
C334 H326 0.930 . S
C334 C329 1.418 . S
C334 C330 1.353 . S
C335 H305 0.930 . S
C335 N336 1.330 . S
C335 C337 1.446 . S
N336 Co295 2.151 . S
N336 C335 1.330 . S
N336 C340 1.418 . S
C337 H316 0.929 . S
C337 C335 1.446 . S
C337 C338 1.332 . S
C338 H318 0.931 . S
C338 C337 1.332 . S
C338 C339 1.267 . S
C339 H307 0.929 . S
C339 C338 1.267 . S
C339 C340 1.251 . S
C340 H310 0.929 . S
C340 N336 1.418 . S
C340 C339 1.251 . S
C341 H308 0.930 . S
C341 C343 1.406 . S
C341 C346 1.261 . S
C342 H309 0.930 . S
C342 N344 1.325 . S
C342 C345 1.357 . S
C343 H311 0.928 . S
C343 C341 1.406 . S
C343 N344 1.261 . S
N344 Co295 2.214 . S
N344 C342 1.325 . S
N344 C343 1.261 . S
C345 H315 0.931 . S
C345 C342 1.357 . S
C345 C346 1.312 . S
C346 H317 0.930 . S
C346 C341 1.261 . S
C346 C345 1.312 . S
C347 O319 1.214 . S
C347 O327 1.234 . S
C348 H320 0.929 . S
C348 C351 1.391 . S
C348 C353 1.391 . S
C349 H321 0.929 . S
C349 C350 1.390 . S
C349 N352 1.391 . S
C350 H322 0.930 . S
C350 C349 1.390 . S
C350 C351 1.392 . S
C351 H323 0.929 . S
C351 C348 1.391 . S
C351 C350 1.392 . S
N352 Co296 2.257 . S
N352 C349 1.391 . S
N352 C353 1.388 . S
C353 H324 0.930 . S
C353 C348 1.391 . S
C353 N352 1.388 . S
H354 C360 0.930 . S
H355 C364 0.930 . S
H356 C369 0.929 . S
H357 C367 0.929 . S
H358 C362 0.929 . S
H359 C368 0.929 . S
C360 H354 0.930 . S
C360 C361 1.367 . S
C360 C368 1.378 . S
C361 C360 1.367 . S
C361 C369 1.433 . S
C362 H358 0.929 . S
C362 C364 1.378 . S
C362 C366 1.350 . S
C363 C366 1.463 1_545 S
C363 C368 1.350 . S
C363 N371 1.427 . S
C364 H355 0.930 . S
C364 C362 1.378 . S
C364 C365 1.367 . S
C365 C364 1.367 . S
C365 C367 1.433 . S
C366 C362 1.350 . S
C366 C363 1.463 1_565 S
C366 N370 1.427 . S
C367 H357 0.929 . S
C367 C365 1.433 . S
C367 N370 1.384 . S
C368 H359 0.929 . S
C368 C360 1.378 . S
C368 C363 1.350 . S
C369 H356 0.929 . S
C369 C361 1.433 . S
C369 N371 1.384 . S
N370 C366 1.427 . S
N370 C367 1.384 . S
N371 C363 1.427 . S
N371 C369 1.384 . S
H372 C378 0.930 . S
H373 C382 0.930 . S
H374 C387 0.929 . S
H375 C385 0.929 . S
H376 C380 0.929 . S
H377 C386 0.929 . S
C378 H372 0.930 . S
C378 C379 1.367 . S
C378 C386 1.378 . S
C379 C378 1.367 . S
C379 C387 1.433 . S
C380 H376 0.929 . S
C380 C382 1.378 . S
C380 C384 1.350 . S
C381 C384 1.463 . S
C381 C386 1.350 . S
C381 N389 1.427 . S
C382 H373 0.930 . S
C382 C380 1.378 . S
C382 C383 1.367 . S
C383 C382 1.367 . S
C383 C385 1.433 . S
C384 C380 1.350 . S
C384 C381 1.463 . S
C384 N388 1.427 . S
C385 H375 0.929 . S
C385 C383 1.433 . S
C385 N388 1.384 . S
C386 H377 0.929 . S
C386 C378 1.378 . S
C386 C381 1.350 . S
C387 H374 0.929 . S
C387 C379 1.433 . S
C387 N389 1.384 . S
N388 C384 1.427 . S
N388 C385 1.384 . S
N389 C381 1.427 . S
N389 C387 1.384 . S
H390 C396 0.930 . S
H391 C400 0.930 . S
H392 C405 0.929 . S
H393 C403 0.929 . S
H394 C398 0.929 1_655 S
H395 C404 0.942 . S
C396 H390 0.930 . S
C396 C397 1.367 . S
C396 C404 1.378 . S
C397 C396 1.367 . S
C397 C405 1.433 . S
C398 H394 0.929 1_455 S
C398 C400 1.378 . S
C398 C402 1.350 . S
C399 C402 1.463 1_655 S
C399 C404 1.350 . S
C399 N407 1.427 . S
C400 H391 0.930 . S
C400 C398 1.378 . S
C400 C401 1.367 . S
C401 C400 1.367 . S
C401 C403 1.433 . S
C402 C398 1.350 . S
C402 C399 1.463 1_455 S
C402 N406 1.427 . S
C403 H393 0.929 . S
C403 C401 1.433 . S
C403 N406 1.384 . S
C404 H395 0.942 . S
C404 C396 1.378 . S
C404 C399 1.350 . S
C405 H392 0.929 . S
C405 C397 1.433 . S
C405 N407 1.384 . S
N406 C402 1.427 . S
N406 C403 1.384 . S
N407 C399 1.427 . S
N407 C405 1.384 . S
H408 C414 0.930 . S
H409 C418 0.930 . S
H410 C423 0.929 . S
H411 C421 0.929 . S
H412 C416 0.929 . S
H413 C422 0.929 . S
C414 H408 0.930 . S
C414 C415 1.367 . S
C414 C422 1.378 . S
C415 C414 1.367 . S
C415 C423 1.433 . S
C416 H412 0.929 . S
C416 C418 1.378 . S
C416 C420 1.350 . S
C417 C420 1.463 1_564 S
C417 C422 1.350 . S
C417 N425 1.427 . S
C418 H409 0.930 . S
C418 C416 1.378 . S
C418 C419 1.367 . S
C419 C418 1.367 . S
C419 C421 1.433 . S
C420 C416 1.350 . S
C420 C417 1.463 1_546 S
C420 N424 1.427 . S
C421 H411 0.929 . S
C421 C419 1.433 . S
C421 N424 1.384 . S
C422 H413 0.929 . S
C422 C414 1.378 . S
C422 C417 1.350 . S
C423 H410 0.929 . S
C423 C415 1.433 . S
C423 N425 1.384 . S
N424 C420 1.427 . S
N424 C421 1.384 . S
N425 C417 1.427 . S
N425 C423 1.384 . S
H426 C432 0.930 . S
H427 C436 0.930 . S
H428 C441 0.929 . S
H429 C439 0.929 . S
H430 C434 0.929 . S
H431 C440 0.929 . S
C432 H426 0.930 . S
C432 C433 1.367 . S
C432 C440 1.378 . S
C433 C432 1.367 . S
C433 C441 1.433 . S
C434 H430 0.929 . S
C434 C436 1.378 . S
C434 C438 1.350 . S
C435 C438 1.463 . S
C435 C440 1.350 . S
C435 N443 1.427 . S
C436 H427 0.930 . S
C436 C434 1.378 . S
C436 C437 1.367 . S
C437 C436 1.367 . S
C437 C439 1.433 . S
C438 C434 1.350 . S
C438 C435 1.463 . S
C438 N442 1.427 . S
C439 H429 0.929 . S
C439 C437 1.433 . S
C439 N442 1.384 . S
C440 H431 0.929 . S
C440 C432 1.378 . S
C440 C435 1.350 . S
C441 H428 0.929 . S
C441 C433 1.433 . S
C441 N443 1.384 . S
N442 C438 1.427 . S
N442 C439 1.384 . S
N443 C435 1.427 . S
N443 C441 1.384 . S
H444 C450 0.930 . S
H445 C454 0.930 . S
H446 C459 0.929 . S
H447 C457 0.929 . S
H448 C452 0.929 . S
H449 C458 0.929 . S
C450 H444 0.930 . S
C450 C451 1.367 . S
C450 C458 1.378 . S
C451 C450 1.367 . S
C451 C459 1.433 . S
C452 H448 0.929 . S
C452 C454 1.378 . S
C452 C456 1.350 . S
C453 C456 1.463 1_455 S
C453 C458 1.350 . S
C453 N461 1.427 . S
C454 H445 0.930 . S
C454 C452 1.378 . S
C454 C455 1.367 . S
C455 C454 1.367 . S
C455 C457 1.433 . S
C456 C452 1.350 . S
C456 C453 1.463 1_655 S
C456 N460 1.427 . S
C457 H447 0.929 . S
C457 C455 1.433 . S
C457 N460 1.384 . S
C458 H449 0.929 . S
C458 C450 1.378 . S
C458 C453 1.350 . S
C459 H446 0.929 . S
C459 C451 1.433 . S
C459 N461 1.384 . S
N460 C456 1.427 . S
N460 C457 1.384 . S
N461 C453 1.427 . S
N461 C459 1.384 . S
H462 C468 0.930 . S
H463 C472 0.930 . S
H464 C477 0.929 . S
H465 C475 0.929 . S
H466 C470 0.929 . S
H467 C476 0.929 . S
C468 H462 0.930 . S
C468 C469 1.367 . S
C468 C476 1.378 . S
C469 C468 1.367 . S
C469 C477 1.433 . S
C470 H466 0.929 . S
C470 C472 1.378 . S
C470 C474 1.350 . S
C471 C474 1.463 . S
C471 C476 1.350 . S
C471 N479 1.427 . S
C472 H463 0.930 . S
C472 C470 1.378 . S
C472 C473 1.367 . S
C473 C472 1.367 . S
C473 C475 1.433 . S
C474 C470 1.350 . S
C474 C471 1.463 . S
C474 N478 1.427 . S
C475 H465 0.929 . S
C475 C473 1.433 . S
C475 N478 1.384 . S
C476 H467 0.929 . S
C476 C468 1.378 . S
C476 C471 1.350 . S
C477 H464 0.929 . S
C477 C469 1.433 . S
C477 N479 1.384 . S
N478 C474 1.427 . S
N478 C475 1.384 . S
N479 C471 1.427 . S
N479 C477 1.384 . S
H480 C486 0.930 . S
H481 C490 0.930 . S
H482 C495 0.929 . S
H483 C493 0.929 . S
H484 C488 0.929 . S
H485 C494 0.929 . S
C486 H480 0.930 . S
C486 C487 1.367 . S
C486 C494 1.378 . S
C487 C486 1.367 . S
C487 C495 1.433 . S
C488 H484 0.929 . S
C488 C490 1.378 . S
C488 C492 1.350 . S
C489 C492 1.463 . S
C489 C494 1.350 . S
C489 N497 1.427 . S
C490 H481 0.930 . S
C490 C488 1.378 . S
C490 C491 1.367 . S
C491 C490 1.367 . S
C491 C493 1.433 . S
C492 C488 1.350 . S
C492 C489 1.463 . S
C492 N496 1.427 . S
C493 H483 0.929 . S
C493 C491 1.433 . S
C493 N496 1.384 . S
C494 H485 0.929 . S
C494 C486 1.378 . S
C494 C489 1.350 . S
C495 H482 0.929 . S
C495 C487 1.433 . S
C495 N497 1.384 . S
N496 C492 1.427 . S
N496 C493 1.384 . S
N497 C489 1.427 . S
N497 C495 1.384 . S
H498 C504 0.930 . S
H499 C508 0.930 . S
H500 C513 0.929 . S
H501 C511 0.929 . S
H502 C506 0.929 . S
H503 C512 0.929 . S
C504 H498 0.930 . S
C504 C505 1.367 . S
C504 C512 1.378 . S
C505 C504 1.367 . S
C505 C513 1.433 . S
C506 H502 0.929 . S
C506 C508 1.378 . S
C506 C510 1.350 . S
C507 C510 1.463 . S
C507 C512 1.350 . S
C507 N515 1.427 . S
C508 H499 0.930 . S
C508 C506 1.378 . S
C508 C509 1.367 . S
C509 C508 1.367 . S
C509 C511 1.433 . S
C510 C506 1.350 . S
C510 C507 1.463 . S
C510 N514 1.427 . S
C511 H501 0.929 . S
C511 C509 1.433 . S
C511 N514 1.384 . S
C512 H503 0.929 . S
C512 C504 1.378 . S
C512 C507 1.350 . S
C513 H500 0.929 . S
C513 C505 1.433 . S
C513 N515 1.384 . S
N514 C510 1.427 . S
N514 C511 1.384 . S
N515 C507 1.427 . S
N515 C513 1.384 . S
H516 C522 0.930 . S
H517 C526 0.930 . S
H518 C531 0.929 . S
H519 C529 0.929 . S
H520 C524 0.929 . S
H521 C530 0.929 . S
C522 H516 0.930 . S
C522 C523 1.367 . S
C522 C530 1.378 . S
C523 C522 1.367 . S
C523 C531 1.433 . S
C524 H520 0.929 . S
C524 C526 1.378 . S
C524 C528 1.350 . S
C525 C528 1.463 . S
C525 C530 1.350 . S
C525 N533 1.427 . S
C526 H517 0.930 . S
C526 C524 1.378 . S
C526 C527 1.367 . S
C527 C526 1.367 . S
C527 C529 1.433 . S
C528 C524 1.350 . S
C528 C525 1.463 . S
C528 N532 1.427 . S
C529 H519 0.929 . S
C529 C527 1.433 . S
C529 N532 1.384 . S
C530 H521 0.929 . S
C530 C522 1.378 . S
C530 C525 1.350 . S
C531 H518 0.929 . S
C531 C523 1.433 . S
C531 N533 1.384 . S
N532 C528 1.427 . S
N532 C529 1.384 . S
N533 C525 1.427 . S
N533 C531 1.384 . S
H534 C540 0.930 1_556 S
H535 C544 0.930 . S
H536 C549 0.929 . S
H537 C547 0.929 . S
H538 C542 0.929 . S
H539 C548 0.929 . S
C540 H534 0.930 1_554 S
C540 C541 1.367 . S
C540 C548 1.378 . S
C541 C540 1.367 . S
C541 C549 1.433 . S
C542 H538 0.929 . S
C542 C544 1.378 . S
C542 C546 1.350 . S
C543 C546 1.463 . S
C543 C548 1.350 . S
C543 N551 1.427 . S
C544 H535 0.930 . S
C544 C542 1.378 . S
C544 C545 1.367 . S
C545 C544 1.367 . S
C545 C547 1.433 . S
C546 C542 1.350 . S
C546 C543 1.463 . S
C546 N550 1.427 . S
C547 H537 0.929 . S
C547 C545 1.433 . S
C547 N550 1.384 . S
C548 H539 0.929 . S
C548 C540 1.378 . S
C548 C543 1.350 . S
C549 H536 0.929 . S
C549 C541 1.433 . S
C549 N551 1.384 . S
N550 C546 1.427 . S
N550 C547 1.384 . S
N551 C543 1.427 . S
N551 C549 1.384 . S
H552 C558 0.930 . S
H553 C562 0.930 . S
H554 C567 0.929 . S
H555 C565 0.929 . S
H556 C560 0.929 . S
H557 C566 0.929 . S
C558 H552 0.930 . S
C558 C559 1.367 . S
C558 C566 1.378 . S
C559 C558 1.367 . S
C559 C567 1.433 . S
C560 H556 0.929 . S
C560 C562 1.378 . S
C560 C564 1.350 . S
C561 C564 1.463 . S
C561 C566 1.350 . S
C561 N569 1.427 . S
C562 H553 0.930 . S
C562 C560 1.378 . S
C562 C563 1.367 . S
C563 C562 1.367 . S
C563 C565 1.433 . S
C564 C560 1.350 . S
C564 C561 1.463 . S
C564 N568 1.427 . S
C565 H555 0.929 . S
C565 C563 1.433 . S
C565 N568 1.384 . S
C566 H557 0.929 . S
C566 C558 1.378 . S
C566 C561 1.350 . S
C567 H554 0.929 . S
C567 C559 1.433 . S
C567 N569 1.384 . S
N568 C564 1.427 . S
N568 C565 1.384 . S
N569 C561 1.427 . S
N569 C567 1.384 . S
C361 C5 1.795 . S
C365 C300 1.794 . S
C379 C52 1.734 . S
C383 C62 1.734 . S
C397 C170 1.673 . S
C401 C92 1.677 . S
C415 C182 1.793 . S
C419 C123 1.795 . S
C433 C239 1.735 . S
C437 C229 1.735 . S
C451 C347 1.676 . S
C455 C269 1.675 . S
C469 C3 1.472 . S
C473 C288 1.468 . S
C487 C298 1.321 . S
C491 C64 1.326 . S
C505 C151 1.580 . S
C509 C33 1.582 . S
C523 C111 1.473 . S
C527 C180 1.477 1_556 S
C541 C121 1.322 1_554 S
C545 C241 1.327 . S
C559 C328 1.580 . S
C563 C210 1.582 . S
