# Generated by pormake.
# Topology wib, (6)-cn, num edge types: 1
# Building blocks:
#     Node 0, Type 0, BuildingBlock: VOLQOD_clean_sbu_1, # of connection points: 6
#     Node 1, Type 0, BuildingBlock: VOLQOD_clean_sbu_1, # of connection points: 6
#     Node 2, Type 0, BuildingBlock: VOLQOD_clean_sbu_1, # of connection points: 6
#     Node 3, Type 0, BuildingBlock: VOLQOD_clean_sbu_1, # of connection points: 6
#     Node 4, Type 0, BuildingBlock: VOLQOD_clean_sbu_1, # of connection points: 6
#     Node 5, Type 0, BuildingBlock: VOLQOD_clean_sbu_1, # of connection points: 6
#     Node 6, Type 0, BuildingBlock: VOLQOD_clean_sbu_1, # of connection points: 6
#     Node 7, Type 0, BuildingBlock: VOLQOD_clean_sbu_1, # of connection points: 6
#     Node 8, Type 0, BuildingBlock: VOLQOD_clean_sbu_1, # of connection points: 6
#     Node 9, Type 0, BuildingBlock: VOLQOD_clean_sbu_1, # of connection points: 6
#     Node 10, Type 0, BuildingBlock: VOLQOD_clean_sbu_1, # of connection points: 6
#     Node 11, Type 0, BuildingBlock: VOLQOD_clean_sbu_1, # of connection points: 6
#     Node 12, Type 0, BuildingBlock: VOLQOD_clean_sbu_1, # of connection points: 6
#     Node 13, Type 0, BuildingBlock: VOLQOD_clean_sbu_1, # of connection points: 6
#     Node 14, Type 0, BuildingBlock: VOLQOD_clean_sbu_1, # of connection points: 6
#     Node 15, Type 0, BuildingBlock: VOLQOD_clean_sbu_1, # of connection points: 6
#     Edge 16, Type (0, 0), BuildingBlock: KIFKEQ_clean_linker_1, # of connection points: 2
#     Edge 17, Type (0, 0), BuildingBlock: KIFKEQ_clean_linker_1, # of connection points: 2
#     Edge 18, Type (0, 0), BuildingBlock: KIFKEQ_clean_linker_1, # of connection points: 2
#     Edge 19, Type (0, 0), BuildingBlock: KIFKEQ_clean_linker_1, # of connection points: 2
#     Edge 20, Type (0, 0), BuildingBlock: KIFKEQ_clean_linker_1, # of connection points: 2
#     Edge 21, Type (0, 0), BuildingBlock: KIFKEQ_clean_linker_1, # of connection points: 2
#     Edge 22, Type (0, 0), BuildingBlock: KIFKEQ_clean_linker_1, # of connection points: 2
#     Edge 23, Type (0, 0), BuildingBlock: KIFKEQ_clean_linker_1, # of connection points: 2
#     Edge 24, Type (0, 0), BuildingBlock: KIFKEQ_clean_linker_1, # of connection points: 2
#     Edge 25, Type (0, 0), BuildingBlock: KIFKEQ_clean_linker_1, # of connection points: 2
#     Edge 26, Type (0, 0), BuildingBlock: KIFKEQ_clean_linker_1, # of connection points: 2
#     Edge 27, Type (0, 0), BuildingBlock: KIFKEQ_clean_linker_1, # of connection points: 2
#     Edge 28, Type (0, 0), BuildingBlock: KIFKEQ_clean_linker_1, # of connection points: 2
#     Edge 29, Type (0, 0), BuildingBlock: KIFKEQ_clean_linker_1, # of connection points: 2
#     Edge 30, Type (0, 0), BuildingBlock: KIFKEQ_clean_linker_1, # of connection points: 2
#     Edge 31, Type (0, 0), BuildingBlock: KIFKEQ_clean_linker_1, # of connection points: 2
#     Edge 32, Type (0, 0), BuildingBlock: KIFKEQ_clean_linker_1, # of connection points: 2
#     Edge 33, Type (0, 0), BuildingBlock: KIFKEQ_clean_linker_1, # of connection points: 2
#     Edge 34, Type (0, 0), BuildingBlock: KIFKEQ_clean_linker_1, # of connection points: 2
#     Edge 35, Type (0, 0), BuildingBlock: KIFKEQ_clean_linker_1, # of connection points: 2
#     Edge 36, Type (0, 0), BuildingBlock: KIFKEQ_clean_linker_1, # of connection points: 2
#     Edge 37, Type (0, 0), BuildingBlock: KIFKEQ_clean_linker_1, # of connection points: 2
#     Edge 38, Type (0, 0), BuildingBlock: KIFKEQ_clean_linker_1, # of connection points: 2
#     Edge 39, Type (0, 0), BuildingBlock: KIFKEQ_clean_linker_1, # of connection points: 2
#     Edge 40, Type (0, 0), BuildingBlock: KIFKEQ_clean_linker_1, # of connection points: 2
#     Edge 41, Type (0, 0), BuildingBlock: KIFKEQ_clean_linker_1, # of connection points: 2
#     Edge 42, Type (0, 0), BuildingBlock: KIFKEQ_clean_linker_1, # of connection points: 2
#     Edge 43, Type (0, 0), BuildingBlock: KIFKEQ_clean_linker_1, # of connection points: 2
#     Edge 44, Type (0, 0), BuildingBlock: KIFKEQ_clean_linker_1, # of connection points: 2
#     Edge 45, Type (0, 0), BuildingBlock: KIFKEQ_clean_linker_1, # of connection points: 2
#     Edge 46, Type (0, 0), BuildingBlock: KIFKEQ_clean_linker_1, # of connection points: 2
#     Edge 47, Type (0, 0), BuildingBlock: KIFKEQ_clean_linker_1, # of connection points: 2
#     Edge 48, Type (0, 0), BuildingBlock: KIFKEQ_clean_linker_1, # of connection points: 2
#     Edge 49, Type (0, 0), BuildingBlock: KIFKEQ_clean_linker_1, # of connection points: 2
#     Edge 50, Type (0, 0), BuildingBlock: KIFKEQ_clean_linker_1, # of connection points: 2
#     Edge 51, Type (0, 0), BuildingBlock: KIFKEQ_clean_linker_1, # of connection points: 2
#     Edge 52, Type (0, 0), BuildingBlock: KIFKEQ_clean_linker_1, # of connection points: 2
#     Edge 53, Type (0, 0), BuildingBlock: KIFKEQ_clean_linker_1, # of connection points: 2
#     Edge 54, Type (0, 0), BuildingBlock: KIFKEQ_clean_linker_1, # of connection points: 2
#     Edge 55, Type (0, 0), BuildingBlock: KIFKEQ_clean_linker_1, # of connection points: 2
#     Edge 56, Type (0, 0), BuildingBlock: KIFKEQ_clean_linker_1, # of connection points: 2
#     Edge 57, Type (0, 0), BuildingBlock: KIFKEQ_clean_linker_1, # of connection points: 2
#     Edge 58, Type (0, 0), BuildingBlock: KIFKEQ_clean_linker_1, # of connection points: 2
#     Edge 59, Type (0, 0), BuildingBlock: KIFKEQ_clean_linker_1, # of connection points: 2
#     Edge 60, Type (0, 0), BuildingBlock: KIFKEQ_clean_linker_1, # of connection points: 2
#     Edge 61, Type (0, 0), BuildingBlock: KIFKEQ_clean_linker_1, # of connection points: 2
#     Edge 62, Type (0, 0), BuildingBlock: KIFKEQ_clean_linker_1, # of connection points: 2
#     Edge 63, Type (0, 0), BuildingBlock: KIFKEQ_clean_linker_1, # of connection points: 2
# Relax obj value: 0.536
# Max RMSD: 0.268
# Mean RMSD: 0.267
data_MOF--net-wib--node1-VOLQOD_clean_sbu_1--edge1-KIFKEQ_clean_linker_1
_symmetry_space_group_name_H-M    P1
_symmetry_Int_Tables_number       1
_symmetry_cell_setting            triclinic
loop_
_symmetry_equiv_pos_as_xyz
'x, y, z'
_cell_length_a     30.559137
_cell_length_b     30.572692
_cell_length_c     66.491633
_cell_angle_alpha  90.018542
_cell_angle_beta   89.978292
_cell_angle_gamma 89.745505
loop_
_atom_site_label
_atom_site_type_symbol
_atom_site_fract_x
_atom_site_fract_y
_atom_site_fract_z
_atom_type_partial_charge
O0 O 0.08396 0.58462 0.26991 0.0
Zn1 Zn 0.13743 0.54603 0.27001 0.0
O2 O 0.13772 0.50466 0.24772 0.0
Zn3 Zn 0.13448 0.44482 0.25828 0.0
Zn4 Zn 0.09006 0.51965 0.22954 0.0
Zn5 Zn 0.19145 0.51138 0.23308 0.0
O6 O 0.19137 0.41 0.25175 0.0
O7 O 0.23287 0.46335 0.23937 0.0
O8 O 0.14631 0.5157 0.29641 0.0
O9 O 0.1373 0.44563 0.28871 0.0
O10 O 0.07459 0.41876 0.2504 0.0
O11 O 0.04468 0.47219 0.23192 0.0
O12 O 0.11059 0.52678 0.20035 0.0
O13 O 0.18464 0.59038 0.26679 0.0
O14 O 0.18186 0.51493 0.20374 0.0
O15 O 0.2192 0.56844 0.23931 0.0
C16 C 0.06211 0.59835 0.25484 0.0
C17 C 0.22848 0.42449 0.2458 0.0
C18 C 0.04238 0.43473 0.24039 0.0
C19 C 0.14455 0.47563 0.30156 0.0
C20 C 0.14889 0.5237 0.19282 0.0
C21 C 0.21331 0.59624 0.25324 0.0
O22 O 0.06335 0.57813 0.23804 0.0
O23 O 0.17317 0.3326 0.51943 0.0
Zn24 Zn 0.21255 0.38505 0.52022 0.0
O25 O 0.25417 0.3853 0.49803 0.0
Zn26 Zn 0.31395 0.3816 0.50867 0.0
Zn27 Zn 0.23956 0.33807 0.4795 0.0
Zn28 Zn 0.24781 0.43947 0.48371 0.0
O29 O 0.34937 0.43766 0.50215 0.0
O30 O 0.29591 0.4801 0.49026 0.0
O31 O 0.24263 0.3918 0.54684 0.0
O32 O 0.31287 0.38406 0.53904 0.0
O33 O 0.34002 0.32188 0.50076 0.0
O34 O 0.28757 0.29245 0.48159 0.0
O35 O 0.2334 0.35958 0.4504 0.0
O36 O 0.16904 0.43363 0.51741 0.0
O37 O 0.24535 0.43053 0.45434 0.0
O38 O 0.19094 0.46808 0.48996 0.0
C39 C 0.1599 0.31071 0.50431 0.0
C40 C 0.33491 0.47504 0.49645 0.0
C41 C 0.3248 0.2902 0.49029 0.0
C42 C 0.28275 0.3902 0.55198 0.0
C43 C 0.23709 0.39801 0.44311 0.0
C44 C 0.16335 0.46267 0.504 0.0
O45 O 0.1807 0.31154 0.48763 0.0
O46 O 0.4224 0.4203 0.77009 0.0
Zn47 Zn 0.37062 0.46117 0.77118 0.0
O48 O 0.36964 0.50246 0.74875 0.0
Zn49 Zn 0.37267 0.56286 0.75907 0.0
Zn50 Zn 0.41733 0.48733 0.73035 0.0
Zn51 Zn 0.31579 0.49518 0.73419 0.0
O52 O 0.31573 0.59805 0.75196 0.0
O53 O 0.27602 0.54536 0.73796 0.0
O54 O 0.36579 0.4919 0.79772 0.0
O55 O 0.37007 0.56216 0.78953 0.0
O56 O 0.43324 0.58837 0.75117 0.0
O57 O 0.46275 0.5346 0.73272 0.0
O58 O 0.39725 0.48032 0.70109 0.0
O59 O 0.32095 0.41909 0.76933 0.0
O60 O 0.32563 0.48704 0.70516 0.0
O61 O 0.28495 0.44114 0.7423 0.0
C62 C 0.44493 0.40752 0.75505 0.0
C63 C 0.27961 0.58415 0.74454 0.0
C64 C 0.46537 0.57207 0.74115 0.0
C65 C 0.36601 0.53213 0.80268 0.0
C66 C 0.35854 0.48038 0.69392 0.0
C67 C 0.29044 0.41416 0.75657 0.0
O68 O 0.44438 0.42876 0.73852 0.0
O69 O 0.32915 0.69554 0.02038 0.0
Zn70 Zn 0.29633 0.63886 0.02217 0.0
O71 O 0.25846 0.62874 0.99923 0.0
Zn72 Zn 0.19753 0.62859 0.00817 0.0
Zn73 Zn 0.27086 0.67408 0.97969 0.0
Zn74 Zn 0.27284 0.57319 0.98742 0.0
O75 O 0.16673 0.57087 4e-05 0.0
O76 O 0.22596 0.53043 0.99338 0.0
O77 O 0.26446 0.63056 0.04824 0.0
O78 O 0.19515 0.62512 0.03858 0.0
O79 O 0.16969 0.68736 -2e-05 0.0
O80 O 0.22173 0.71838 0.98112 0.0
O81 O 0.27767 0.64953 0.95129 0.0
O82 O 0.34576 0.59661 0.02185 0.0
O83 O 0.27967 0.57837 0.95778 0.0
O84 O 0.33062 0.55062 0.99713 0.0
C85 C 0.34618 0.71044 0.00428 0.0
C86 C 0.18511 0.53378 0.99674 0.0
C87 C 0.18419 0.71948 0.98958 0.0
C88 C 0.22414 0.62507 0.05234 0.0
C89 C 0.28173 0.60999 0.9454 0.0
C90 C 0.35598 0.56409 0.01093 0.0
O91 O 0.32898 0.70248 0.98717 0.0
O92 O 0.93422 0.4242 0.72883 0.0
Zn93 Zn 0.8808 0.46287 0.72753 0.0
O94 O 0.87411 0.50051 0.75103 0.0
Zn95 Zn 0.87419 0.56177 0.74225 0.0
Zn96 Zn 0.92116 0.48569 0.76952 0.0
Zn97 Zn 0.82008 0.48744 0.76471 0.0
O98 O 0.81586 0.59284 0.75058 0.0
O99 O 0.77705 0.53511 0.7605 0.0
O100 O 0.8761 0.49575 0.7014 0.0
O101 O 0.87024 0.56448 0.7118 0.0
O102 O 0.93426 0.58854 0.75045 0.0
O103 O 0.96585 0.5336 0.76739 0.0
O104 O 0.90021 0.47932 0.79855 0.0
O105 O 0.8345 0.41765 0.72771 0.0
O106 O 0.82831 0.48181 0.79436 0.0
O107 O 0.79578 0.43025 0.75532 0.0
C108 C 0.95217 0.40822 0.74451 0.0
C109 C 0.77957 0.57544 0.75601 0.0
C110 C 0.96723 0.57197 0.7598 0.0
C111 C 0.87099 0.53631 0.69766 0.0
C112 C 0.86153 0.47831 0.80574 0.0
C113 C 0.80478 0.40678 0.74006 0.0
O114 O 0.94797 0.427 0.76155 0.0
O115 O 0.83083 0.69245 0.48055 0.0
Zn116 Zn 0.79441 0.63736 0.47819 0.0
O117 O 0.75623 0.62754 0.50136 0.0
Zn118 Zn 0.69525 0.62809 0.49267 0.0
Zn119 Zn 0.76934 0.6726 0.52069 0.0
Zn120 Zn 0.76949 0.57252 0.51406 0.0
O121 O 0.66432 0.56987 0.50022 0.0
O122 O 0.72342 0.52952 0.50719 0.0
O123 O 0.76172 0.63252 0.45181 0.0
O124 O 0.69314 0.6255 0.46229 0.0
O125 O 0.66778 0.68737 0.50109 0.0
O126 O 0.72187 0.71817 0.51868 0.0
O127 O 0.77466 0.64941 0.54922 0.0
O128 O 0.84178 0.59247 0.47836 0.0
O129 O 0.77358 0.57777 0.54413 0.0
O130 O 0.82781 0.55051 0.5048 0.0
C131 C 0.8471 0.70623 0.49703 0.0
C132 C 0.68274 0.53273 0.50339 0.0
C133 C 0.68381 0.71993 0.51077 0.0
C134 C 0.72117 0.627 0.44812 0.0
C135 C 0.77633 0.6104 0.55595 0.0
C136 C 0.85234 0.56161 0.49022 0.0
O137 O 0.82838 0.69836 0.51377 0.0
O138 O 0.57607 0.58043 0.22911 0.0
Zn139 Zn 0.63061 0.54319 0.22883 0.0
O140 O 0.63574 0.50565 0.25244 0.0
Zn141 Zn 0.63636 0.4446 0.24353 0.0
Zn142 Zn 0.58751 0.52012 0.27046 0.0
Zn143 Zn 0.68913 0.51836 0.2667 0.0
O144 O 0.69389 0.41333 0.2522 0.0
O145 O 0.73239 0.47067 0.2628 0.0
O146 O 0.6383 0.51025 0.20271 0.0
O147 O 0.64128 0.44151 0.21323 0.0
O148 O 0.57662 0.41766 0.25096 0.0
O149 O 0.54335 0.47131 0.2682 0.0
O150 O 0.60726 0.52833 0.29967 0.0
O151 O 0.67569 0.58965 0.2302 0.0
O152 O 0.67929 0.5245 0.2962 0.0
O153 O 0.71387 0.57571 0.25783 0.0
C154 C 0.55673 0.59636 0.24446 0.0
C155 C 0.72995 0.43045 0.25805 0.0
C156 C 0.54324 0.43322 0.26028 0.0
C157 C 0.64245 0.46951 0.19907 0.0
C158 C 0.64563 0.52918 0.30723 0.0
C159 C 0.70492 0.60007 0.24288 0.0
O160 O 0.56021 0.57807 0.26165 0.0
O161 O 0.67426 0.33879 0.98071 0.0
Zn162 Zn 0.71588 0.38969 0.98042 0.0
O163 O 0.75706 0.38738 0.00295 0.0
Zn164 Zn 0.81705 0.38572 0.99239 0.0
Zn165 Zn 0.74224 0.33778 0.02017 0.0
Zn166 Zn 0.75019 0.43892 0.0193 0.0
O167 O 0.85135 0.44202 4e-05 0.0
O168 O 0.79821 0.48071 0.01458 0.0
O169 O 0.74618 0.39521 0.95351 0.0
O170 O 0.81618 0.39054 0.96211 0.0
O171 O 0.84365 0.32519 0.9991 0.0
O172 O 0.79051 0.29301 0.01691 0.0
O173 O 0.73556 0.35472 0.04989 0.0
O174 O 0.67437 0.43998 0.98382 0.0
O175 O 0.74817 0.42592 0.04855 0.0
O176 O 0.69341 0.468 0.01328 0.0
C177 C 0.66213 0.31387 0.995 0.0
C178 C 0.83683 0.47781 0.00761 0.0
C179 C 0.82812 0.29209 0.00852 0.0
C180 C 0.7866 0.39504 0.94878 0.0
C181 C 0.74002 0.39161 0.05861 0.0
C182 C 0.66747 0.46609 0.99839 0.0
O183 O 0.6839 0.31167 0.01136 0.0
O184 O 0.58948 0.08593 0.76953 0.0
Zn185 Zn 0.64097 0.04456 0.77025 0.0
O186 O 0.63989 1.00314 0.74784 0.0
Zn187 Zn 0.63765 0.94342 0.75838 0.0
Zn188 Zn 0.59145 0.01798 0.73009 0.0
Zn189 Zn 0.69243 0.0092 0.73219 0.0
O190 O 0.69408 0.90872 0.75148 0.0
O191 O 0.73497 0.96246 0.73906 0.0
O192 O 0.64655 0.01454 0.79718 0.0
O193 O 0.64128 0.94457 0.78867 0.0
O194 O 0.57813 0.91667 0.75087 0.0
O195 O 0.54699 0.96966 0.73247 0.0
O196 O 0.61074 0.02445 0.70082 0.0
O197 O 0.69058 0.08638 0.76698 0.0
O198 O 0.68147 0.0087 0.70265 0.0
O199 O 0.71916 0.06717 0.73761 0.0
C200 C 0.56542 0.09813 0.7549 0.0
C201 C 0.73099 0.92358 0.74553 0.0
C202 C 0.54576 0.93207 0.74083 0.0
C203 C 0.64603 0.97418 0.80195 0.0
C204 C 0.64773 0.01829 0.69236 0.0
C205 C 0.71637 0.09349 0.75235 0.0
O206 O 0.56438 0.07634 0.73852 0.0
O207 O 0.67968 0.8227 0.02042 0.0
Zn208 Zn 0.71672 0.87685 0.02149 0.0
O209 O 0.75528 0.88326 0.99853 0.0
Zn210 Zn 0.81614 0.88158 0.00784 0.0
Zn211 Zn 0.74065 0.83699 0.97987 0.0
Zn212 Zn 0.74334 0.93806 0.98529 0.0
O213 O 0.84797 0.93937 0.0003 0.0
O214 O 0.79016 0.98039 0.99194 0.0
O215 O 0.7484 0.88388 0.04754 0.0
O216 O 0.81823 0.88452 0.0384 0.0
O217 O 0.84287 0.82193 0.99939 0.0
O218 O 0.78837 0.79151 0.98189 0.0
O219 O 0.73483 0.85943 0.95114 0.0
O220 O 0.67064 0.9223 0.02069 0.0
O221 O 0.74048 0.93116 0.9554 0.0
O222 O 0.68487 0.96215 0.99369 0.0
C223 C 0.66326 0.80587 0.00461 0.0
C224 C 0.8305 0.97662 0.99634 0.0
C225 C 0.82652 0.78949 0.98973 0.0
C226 C 0.7888 0.88673 0.05195 0.0
C227 C 0.73571 0.89813 0.94399 0.0
C228 C 0.66031 0.95246 0.00847 0.0
O229 O 0.68169 0.81086 0.98754 0.0
O230 O 0.92727 0.92381 0.27061 0.0
Zn231 Zn 0.8747 0.96367 0.27163 0.0
O232 O 0.87265 1.00356 0.2486 0.0
Zn233 Zn 0.87485 0.06432 0.25798 0.0
Zn234 Zn 0.91998 0.98853 0.23018 0.0
Zn235 Zn 0.81879 0.99498 0.23432 0.0
O236 O 0.81766 0.09808 0.2509 0.0
O237 O 0.77676 0.04289 0.23992 0.0
O238 O 0.87007 0.99593 0.29803 0.0
O239 O 0.87218 0.06535 0.28831 0.0
O240 O 0.93448 0.09064 0.24975 0.0
O241 O 0.96498 0.03625 0.23206 0.0
O242 O 0.89933 0.98105 0.2011 0.0
O243 O 0.82624 0.91975 0.27008 0.0
O244 O 0.82769 0.98913 0.20492 0.0
O245 O 0.79205 0.93861 0.24203 0.0
C246 C 0.94869 0.91005 0.2554 0.0
C247 C 0.78067 0.08244 0.24546 0.0
C248 C 0.96687 0.07429 0.23997 0.0
C249 C 0.86929 0.03666 0.30212 0.0
C250 C 0.86076 0.98198 0.19379 0.0
C251 C 0.79764 0.91246 0.25663 0.0
O252 O 0.94712 0.93032 0.23863 0.0
O253 O 0.83254 0.18165 0.52049 0.0
Zn254 Zn 0.79476 0.12778 0.52108 0.0
O255 O 0.75544 0.12378 0.49806 0.0
Zn256 Zn 0.69491 0.12432 0.50773 0.0
Zn257 Zn 0.76921 0.17195 0.48005 0.0
Zn258 Zn 0.76642 0.07032 0.48346 0.0
O259 O 0.66238 0.06753 0.49939 0.0
O260 O 0.71856 0.02801 0.48793 0.0
O261 O 0.76349 0.12002 0.54761 0.0
O262 O 0.69402 0.11899 0.53798 0.0
O263 O 0.66781 0.1845 0.50076 0.0
O264 O 0.72077 0.21656 0.4828 0.0
O265 O 0.77568 0.15249 0.45082 0.0
O266 O 0.84061 0.08189 0.51872 0.0
O267 O 0.77038 0.08054 0.45396 0.0
O268 O 0.82414 0.04417 0.49127 0.0
C269 C 0.8472 0.20146 0.50504 0.0
C270 C 0.67869 0.03121 0.49322 0.0
C271 C 0.68313 0.21746 0.49116 0.0
C272 C 0.72291 0.11674 0.55174 0.0
C273 C 0.77511 0.11433 0.44307 0.0
C274 C 0.84973 0.05257 0.50583 0.0
O275 O 0.82759 0.19868 0.48814 0.0
O276 O 0.43325 0.92649 0.22635 0.0
Zn277 Zn 0.37929 0.96471 0.22525 0.0
O278 O 0.37293 1.00234 0.24883 0.0
Zn279 Zn 0.37255 0.06345 0.24002 0.0
Zn280 Zn 0.42051 0.9884 0.26725 0.0
Zn281 Zn 0.31895 0.98945 0.26261 0.0
O282 O 0.31526 0.09503 0.24881 0.0
O283 O 0.27623 0.03769 0.25896 0.0
O284 O 0.37314 0.99779 0.19909 0.0
O285 O 0.36778 0.06634 0.20974 0.0
O286 O 0.43224 0.09035 0.24753 0.0
O287 O 0.46483 0.03705 0.26521 0.0
O288 O 0.3997 0.98052 0.29625 0.0
O289 O 0.33346 0.91894 0.22584 0.0
O290 O 0.32776 0.98241 0.29212 0.0
O291 O 0.29393 0.93269 0.25309 0.0
C292 C 0.45209 0.91128 0.24198 0.0
C293 C 0.27906 0.07804 0.25454 0.0
C294 C 0.46529 0.07495 0.25713 0.0
C295 C 0.36795 0.03844 0.19552 0.0
C296 C 0.36104 0.97863 0.30344 0.0
C297 C 0.30331 0.90863 0.23808 0.0
O298 O 0.44815 0.93039 0.25896 0.0
O299 O 0.34132 0.17139 0.9781 0.0
Zn300 Zn 0.30005 0.12012 0.97767 0.0
O301 O 0.25735 0.12293 -0.00057 0.0
Zn302 Zn 0.19853 0.12631 0.98773 0.0
Zn303 Zn 0.27165 0.17173 0.01702 0.0
Zn304 Zn 0.26208 0.07077 0.01556 0.0
O305 O 0.16304 0.07055 0.99435 0.0
O306 O 0.21476 0.02932 0.00858 0.0
O307 O 0.27182 0.11194 0.95063 0.0
O308 O 0.20142 0.12224 0.95735 0.0
O309 O 0.17183 0.18636 0.99473 0.0
O310 O 0.22369 0.21691 0.01387 0.0
O311 O 0.27709 0.15329 0.04651 0.0
O312 O 0.34134 0.07053 0.98198 0.0
O313 O 0.26053 0.08288 0.04499 0.0
O314 O 0.32004 0.0421 0.01101 0.0
C315 C 0.35292 0.19585 0.99267 0.0
C316 C 0.17666 0.03378 0.00119 0.0
C317 C 0.18672 0.21861 0.00493 0.0
C318 C 0.23213 0.11433 0.94489 0.0
C319 C 0.27023 0.11669 0.05515 0.0
C320 C 0.34722 0.04442 0.99659 0.0
O321 O 0.33044 0.19767 0.00884 0.0
O322 O 0.06622 0.07441 0.72823 0.0
Zn323 Zn 0.12429 0.04366 0.72625 0.0
O324 O 0.13513 0.00454 0.74866 0.0
Zn325 Zn 0.13586 0.94442 0.73884 0.0
Zn326 Zn 0.09016 0.01612 0.7685 0.0
Zn327 Zn 0.19067 0.01813 0.76043 0.0
O328 O 0.1941 0.91332 0.74643 0.0
O329 O 0.23406 0.97265 0.75285 0.0
O330 O 0.1346 0.01409 0.69966 0.0
O331 O 0.13925 0.94412 0.70837 0.0
O332 O 0.07737 0.91621 0.74686 0.0
O333 O 0.04636 0.96694 0.76665 0.0
O334 O 0.1154 0.02165 0.7969 0.0
O335 O 0.16418 0.09436 0.728 0.0
O336 O 0.18654 0.02131 0.79028 0.0
O337 O 0.21109 0.07753 0.75219 0.0
C338 C 0.05204 0.0916 0.74446 0.0
C339 C 0.23114 0.93192 0.7492 0.0
C340 C 0.04536 0.93002 0.75764 0.0
C341 C 0.13995 0.97399 0.69501 0.0
C342 C 0.15511 0.02374 0.80278 0.0
C343 C 0.19626 0.10422 0.7392 0.0
O344 O 0.0611 0.07451 0.7615 0.0
O345 O 0.17729 0.8211 0.47869 0.0
Zn346 Zn 0.21438 0.87552 0.47602 0.0
O347 O 0.25538 0.88216 0.49858 0.0
Zn348 Zn 0.31554 0.88064 0.48869 0.0
Zn349 Zn 0.24349 0.83686 0.51828 0.0
Zn350 Zn 0.24551 0.93721 0.51163 0.0
O351 O 0.34893 0.93776 0.49555 0.0
O352 O 0.29227 0.97919 0.50484 0.0
O353 O 0.24518 0.87995 0.44907 0.0
O354 O 0.31483 0.88317 0.45843 0.0
O355 O 0.34292 0.82139 0.49657 0.0
O356 O 0.29149 0.79141 0.51612 0.0
O357 O 0.23845 0.8603 0.54704 0.0
O358 O 0.16796 0.92222 0.4773 0.0
O359 O 0.24099 0.93162 0.54132 0.0
O360 O 0.18818 0.96172 0.50361 0.0
C361 C 0.16373 0.8044 0.49512 0.0
C362 C 0.33223 0.97511 0.49989 0.0
C363 C 0.32847 0.78956 0.50718 0.0
C364 C 0.2857 0.88345 0.44475 0.0
C365 C 0.23716 0.89966 0.55339 0.0
C366 C 0.16093 0.95293 0.48981 0.0
O367 O 0.18445 0.81019 0.51157 0.0
H368 H 0.27967 0.37586 0.22035 0.0
H369 H 0.27153 0.42532 0.28081 0.0
H370 H 0.35738 0.36021 0.22505 0.0
H371 H 0.34914 0.41416 0.28523 0.0
H372 H 0.49118 0.40648 0.29127 0.0
H373 H 0.41474 0.38469 0.28925 0.0
H374 H 0.4212 0.39493 0.22431 0.0
H375 H 0.49837 0.41198 0.22667 0.0
C376 C 0.29439 0.38201 0.23489 0.0
C377 C 0.26951 0.40092 0.25036 0.0
C378 C 0.33937 0.37416 0.23752 0.0
C379 C 0.36097 0.38697 0.25538 0.0
C380 C 0.3348 0.40305 0.27129 0.0
C381 C 0.28977 0.40951 0.26883 0.0
C382 C 0.47634 0.40231 0.2766 0.0
C383 C 0.50066 0.41052 0.25913 0.0
C384 C 0.43208 0.39063 0.27535 0.0
C385 C 0.41029 0.38909 0.2566 0.0
C386 C 0.43586 0.395 0.2391 0.0
C387 C 0.4805 0.405 0.24038 0.0
H388 H 0.3509 0.74247 0.47425 0.0
H389 H 0.35406 0.73918 0.53896 0.0
H390 H 0.36798 0.66502 0.47301 0.0
H391 H 0.3758 0.66248 0.53807 0.0
H392 H 0.3325 0.52009 0.53087 0.0
H393 H 0.34474 0.59758 0.53448 0.0
H394 H 0.40292 0.60079 0.47505 0.0
H395 H 0.38639 0.52317 0.4711 0.0
C396 C 0.35733 0.72538 0.48823 0.0
C397 C 0.35102 0.74668 0.50669 0.0
C398 C 0.36737 0.68062 0.4876 0.0
C399 C 0.37252 0.65613 0.50547 0.0
C400 C 0.3704 0.67904 0.52391 0.0
C401 C 0.3587 0.72342 0.52451 0.0
C402 C 0.34949 0.53715 0.51891 0.0
C403 C 0.35901 0.51558 0.50083 0.0
C404 C 0.3566 0.58209 0.52091 0.0
C405 C 0.37418 0.6068 0.50491 0.0
C406 C 0.38789 0.58384 0.48753 0.0
C407 C 0.37951 0.53894 0.48536 0.0
H408 H 0.24462 0.625 0.77747 0.0
H409 H 0.21945 0.59578 0.71516 0.0
H410 H 0.16638 0.6389 0.78274 0.0
H411 H 0.14175 0.60931 0.72026 0.0
H412 H 1.00059 0.6307 0.7324 0.0
H413 H 0.07727 0.65285 0.72902 0.0
H414 H 0.10842 0.58442 0.78403 0.0
H415 H 0.03239 0.56279 0.7874 0.0
C416 C 0.22273 0.62377 0.76467 0.0
C417 C 0.23822 0.60951 0.74588 0.0
C418 C 0.17773 0.63101 0.76774 0.0
C419 C 0.14742 0.62448 0.75202 0.0
C420 C 0.16382 0.61495 0.73273 0.0
C421 C 0.20856 0.60729 0.72975 0.0
C422 C 0.02357 0.62166 0.7441 0.0
C423 C 0.01034 0.59464 0.76008 0.0
C424 C 0.06766 0.63404 0.74208 0.0
C425 C 0.09937 0.62015 0.75615 0.0
C426 C 0.08517 0.59619 0.77297 0.0
C427 C 0.04142 0.58347 0.77485 0.0
H428 H 0.15847 0.26786 0.03651 0.0
H429 H 0.16754 0.26683 0.97189 0.0
H430 H 0.13829 0.34505 0.03584 0.0
H431 H 0.15155 0.34478 0.97099 0.0
H432 H 0.13264 0.48769 0.97084 0.0
H433 H 0.11513 0.40981 0.97374 0.0
H434 H 0.17555 0.40781 0.03265 0.0
H435 H 0.18977 0.48519 0.02999 0.0
C436 C 0.15532 0.28418 0.02212 0.0
C437 C 0.16436 0.26151 0.00426 0.0
C438 C 0.14447 0.32874 0.02167 0.0
C439 C 0.1445 0.35227 0.0034 0.0
C440 C 0.15068 0.32845 0.98541 0.0
C441 C 0.16002 0.28351 0.98586 0.0
C442 C 0.14001 0.4707 0.98474 0.0
C443 C 0.16183 0.49242 0.00035 0.0
C444 C 0.13087 0.42579 0.98631 0.0
C445 C 0.1445 0.40151 0.00331 0.0
C446 C 0.16362 0.42458 0.01941 0.0
C447 C 0.17196 0.46933 0.01794 0.0
H448 H 0.50084 0.62577 0.77001 0.0
H449 H 0.52976 0.56478 0.71297 0.0
H450 H 0.57828 0.64458 0.77386 0.0
H451 H 0.60662 0.5834 0.71677 0.0
H452 H 0.74446 0.62168 0.72466 0.0
H453 H 0.66629 0.63735 0.71992 0.0
H454 H 0.64086 0.59534 0.78079 0.0
H455 H 0.71841 0.57968 0.78534 0.0
C456 C 0.52338 0.61767 0.75799 0.0
C457 C 0.5091 0.59345 0.74126 0.0
C458 C 0.56787 0.62814 0.76026 0.0
C459 C 0.59893 0.6152 0.74571 0.0
C460 C 0.58382 0.59429 0.72821 0.0
C461 C 0.53962 0.58335 0.72608 0.0
C462 C 0.72237 0.61786 0.73729 0.0
C463 C 0.73755 0.59978 0.75542 0.0
C464 C 0.67748 0.62623 0.7345 0.0
C465 C 0.64705 0.61714 0.74989 0.0
C466 C 0.66313 0.60314 0.76865 0.0
C467 C 0.70771 0.59421 0.7713 0.0
H468 H 0.65777 0.26893 0.45984 0.0
H469 H 0.661 0.26355 0.52452 0.0
H470 H 0.6386 0.34631 0.46125 0.0
H471 H 0.64591 0.34165 0.52624 0.0
H472 H 0.62807 0.4852 0.52781 0.0
H473 H 0.61061 0.40752 0.52371 0.0
H474 H 0.67654 0.40826 0.46604 0.0
H475 H 0.69082 0.48541 0.46985 0.0
C476 C 0.65345 0.28431 0.47439 0.0
C477 C 0.6606 0.26032 0.49206 0.0
C478 C 0.64323 0.32899 0.47528 0.0
C479 C 0.64197 0.35136 0.49386 0.0
C480 C 0.64613 0.32626 0.51159 0.0
C481 C 0.65489 0.28121 0.51067 0.0
C482 C 0.63674 0.46888 0.5139 0.0
C483 C 0.66005 0.49133 0.49898 0.0
C484 C 0.6276 0.42406 0.51165 0.0
C485 C 0.64262 0.4006 0.49464 0.0
C486 C 0.66346 0.4244 0.47923 0.0
C487 C 0.67185 0.46902 0.48137 0.0
H488 H 0.79255 0.42711 0.28675 0.0
H489 H 0.7633 0.38314 0.22667 0.0
H490 H 0.8698 0.41104 0.28143 0.0
H491 H 0.84117 0.36725 0.22113 0.0
H492 H 0.97672 0.44224 0.21283 0.0
H493 H 0.9002 0.42279 0.21732 0.0
H494 H 0.93177 0.36045 0.27376 0.0
H495 H 0.00881 0.37995 0.26921 0.0
C496 C 0.80249 0.4121 0.27269 0.0
C497 C 0.7719 0.40614 0.25717 0.0
C498 C 0.84687 0.40292 0.2696 0.0
C499 C 0.86189 0.38831 0.25076 0.0
C500 C 0.83071 0.37878 0.23577 0.0
C501 C 0.78603 0.38733 0.23901 0.0
C502 C 0.96764 0.42321 0.22592 0.0
C503 C 0.99889 0.41302 0.24074 0.0
C504 C 0.92368 0.41181 0.22844 0.0
C505 C 0.90965 0.39037 0.24599 0.0
C506 C 0.94143 0.37726 0.26013 0.0
C507 C 0.98566 0.38817 0.25746 0.0
H508 H 0.87891 0.51087 0.97469 0.0
H509 H 0.84574 0.54001 0.03628 0.0
H510 H 0.89347 0.5886 0.96869 0.0
H511 H 0.8602 0.61716 0.03045 0.0
H512 H 0.88518 0.75648 0.01724 0.0
H513 H 0.9067 0.67969 0.02127 0.0
H514 H 0.83816 0.64737 0.96651 0.0
H515 H 0.81697 0.7236 0.96249 0.0
C516 C 0.87685 0.53352 0.98719 0.0
C517 C 0.86129 0.51938 0.00596 0.0
C518 C 0.88458 0.57817 0.9837 0.0
C519 C 0.87739 0.60936 0.999 0.0
C520 C 0.86639 0.59428 0.01833 0.0
C521 C 0.85813 0.54992 0.02171 0.0
C522 C 0.87598 0.73321 0.00572 0.0
C523 C 0.84897 0.74616 0.98965 0.0
C524 C 0.88804 0.6891 0.00811 0.0
C525 C 0.87385 0.65712 0.99433 0.0
C526 C 0.85007 0.67093 0.97735 0.0
C527 C 0.83763 0.71475 0.9751 0.0
H528 H 0.78032 0.87171 0.72062 0.0
H529 H 0.77583 0.92782 0.77994 0.0
H530 H 0.85796 0.85488 0.72503 0.0
H531 H 0.85333 0.91525 0.78398 0.0
H532 H 0.99457 0.90492 0.78932 0.0
H533 H 0.91801 0.88333 0.78815 0.0
H534 H 0.92225 0.88931 0.72306 0.0
H535 H 0.99957 0.90623 0.72462 0.0
C536 C 0.79581 0.87912 0.73487 0.0
C537 C 0.77209 0.90028 0.7501 0.0
C538 C 0.8407 0.8705 0.7373 0.0
C539 C 0.86323 0.8846 0.7547 0.0
C540 C 0.83815 0.90303 0.77043 0.0
C541 C 0.79324 0.91039 0.76818 0.0
C542 C 0.97924 0.89986 0.77482 0.0
C543 C 1.00291 0.90705 0.75707 0.0
C544 C 0.93495 0.88827 0.77405 0.0
C545 C 0.91254 0.8858 0.7555 0.0
C546 C 0.93748 0.89028 0.73773 0.0
C547 C 0.98217 0.90019 0.73854 0.0
H548 H 0.8817 0.02499 0.97083 0.0
H549 H 0.82665 0.02283 0.0304 0.0
H550 H 0.89861 0.10271 0.97473 0.0
H551 H 0.83997 0.10022 0.03404 0.0
H552 H 0.85564 0.24071 0.03954 0.0
H553 H 0.87542 0.16349 0.03791 0.0
H554 H 0.8631 0.16783 0.97306 0.0
H555 H 0.84759 0.24574 0.97495 0.0
C556 C 0.87464 0.04093 0.98503 0.0
C557 C 0.85373 0.01784 0.00048 0.0
C558 C 0.88337 0.08583 0.98718 0.0
C559 C 0.87001 0.10889 0.00459 0.0
C560 C 0.85168 0.08449 0.02049 0.0
C561 C 0.84391 0.03969 0.01846 0.0
C562 C 0.85895 0.22526 0.02495 0.0
C563 C 0.85042 0.24914 0.00738 0.0
C564 C 0.86951 0.18064 0.02394 0.0
C565 C 0.8697 0.15819 0.00537 0.0
C566 C 0.86386 0.1832 0.9877 0.0
C567 C 0.85481 0.22817 0.98872 0.0
H568 H 0.51162 0.09541 0.22382 0.0
H569 H 0.51598 0.10236 0.28844 0.0
H570 H 0.58898 0.11222 0.22208 0.0
H571 H 0.59258 0.12381 0.28701 0.0
H572 H 0.7309 0.13132 0.21949 0.0
H573 H 0.65296 0.14723 0.22341 0.0
H574 H 0.65791 0.09295 0.28357 0.0
H575 H 0.73565 0.08133 0.27993 0.0
C576 C 0.52891 0.10266 0.23765 0.0
C577 C 0.50791 0.09761 0.25625 0.0
C578 C 0.57363 0.11251 0.23673 0.0
C579 C 0.59842 0.11868 0.25444 0.0
C580 C 0.57581 0.11766 0.27298 0.0
C581 C 0.53146 0.10617 0.27389 0.0
C582 C 0.7154 0.12513 0.23386 0.0
C583 C 0.73937 0.10597 0.24956 0.0
C584 C 0.67032 0.13316 0.23603 0.0
C585 C 0.64778 0.12042 0.25366 0.0
C586 C 0.67303 0.10405 0.2698 0.0
C587 C 0.71811 0.0973 0.26779 0.0
H588 H 0.62766 0.75332 0.48234 0.0
H589 H 0.69095 0.78521 0.53844 0.0
H590 H 0.60737 0.83036 0.47797 0.0
H591 H 0.67082 0.86169 0.53413 0.0
H592 H 0.6322 0.99877 0.52497 0.0
H593 H 0.61584 0.92123 0.53062 0.0
H594 H 0.65703 0.89188 0.46995 0.0
H595 H 0.67344 0.96879 0.46451 0.0
C596 C 0.63589 0.77642 0.49408 0.0
C597 C 0.66129 0.76317 0.51065 0.0
C598 C 0.62455 0.82065 0.49151 0.0
C599 C 0.6378 0.8524 0.5056 0.0
C600 C 0.6597 0.83829 0.52304 0.0
C601 C 0.67151 0.79434 0.52547 0.0
C602 C 0.63569 0.97598 0.51259 0.0
C603 C 0.65393 0.98978 0.49428 0.0
C604 C 0.62688 0.93148 0.51588 0.0
C605 C 0.63562 0.90015 0.50082 0.0
C606 C 0.64953 0.91492 0.48185 0.0
C607 C 0.65893 0.95912 0.47869 0.0
H608 H 0.03114 0.0673 0.21175 0.0
H609 H 1.0012 0.12951 0.26842 0.0
H610 H 0.10772 0.08709 0.21549 0.0
H611 H 0.07837 0.14936 0.27223 0.0
H612 H 0.21792 0.08202 0.28388 0.0
H613 H 0.14059 0.09875 0.27933 0.0
H614 H 0.16692 0.14247 0.21879 0.0
H615 H 0.24488 0.12588 0.22356 0.0
C616 C 0.04071 0.08643 0.22474 0.0
C617 C 0.01008 0.09648 0.23986 0.0
C618 C 0.0847 0.09803 0.22684 0.0
C619 C 0.09941 0.11952 0.24426 0.0
C620 C 0.06818 0.13254 0.25869 0.0
C621 C 0.02389 0.12144 0.25644 0.0
C622 C 0.20749 0.09718 0.26994 0.0
C623 C 0.23741 0.10288 0.25412 0.0
C624 C 0.16307 0.10675 0.26729 0.0
C625 C 0.14734 0.12149 0.2486 0.0
C626 C 0.17793 0.13084 0.23333 0.0
C627 C 0.22266 0.12189 0.23612 0.0
H628 H 0.18013 0.98905 0.96667 0.0
H629 H 0.12537 0.98484 0.02626 0.0
H630 H 0.16797 0.91162 0.96272 0.0
H631 H 0.10872 0.90738 0.02193 0.0
H632 H 0.16016 0.76572 0.02246 0.0
H633 H 0.143 0.84306 0.02387 0.0
H634 H 0.13732 0.84674 0.95876 0.0
H635 H 0.15924 0.7701 0.95775 0.0
C636 C 0.16302 0.97174 0.97851 0.0
C637 C 0.15323 0.99294 0.99665 0.0
C638 C 0.15592 0.92685 0.97632 0.0
C639 C 0.138 0.90186 0.99215 0.0
C640 C 0.12406 0.9245 0.00958 0.0
C641 C 0.13253 0.96931 0.01198 0.0
C642 C 0.15414 0.78301 0.0085 0.0
C643 C 0.16114 0.76207 0.99002 0.0
C644 C 0.14407 0.82774 0.00923 0.0
C645 C 0.13956 0.85254 0.99141 0.0
C646 C 0.14226 0.82995 0.9729 0.0
C647 C 0.15403 0.7856 0.97222 0.0
H648 H 0.49686 0.90799 0.70855 0.0
H649 H 0.49795 0.90785 0.77332 0.0
H650 H 0.4197 0.88819 0.70868 0.0
H651 H 0.41998 0.89199 0.77376 0.0
H652 H 0.27666 0.87393 0.77299 0.0
H653 H 0.35461 0.85591 0.76955 0.0
H654 H 0.35777 0.92748 0.71339 0.0
H655 H 0.2805 0.94264 0.71652 0.0
C656 C 0.48059 0.9028 0.72283 0.0
C657 C 0.50322 0.90933 0.74091 0.0
C658 C 0.43609 0.89214 0.72298 0.0
C659 C 0.41258 0.88979 0.74123 0.0
C660 C 0.43638 0.89312 0.75935 0.0
C661 C 0.4813 0.90235 0.75916 0.0
C662 C 0.29392 0.88377 0.75951 0.0
C663 C 0.27264 0.90907 0.74486 0.0
C664 C 0.33883 0.87425 0.75766 0.0
C665 C 0.36338 0.89066 0.74131 0.0
C666 C 0.3407 0.91335 0.72605 0.0
C667 C 0.29606 0.92226 0.72781 0.0
H668 H 0.34896 0.24016 0.45818 0.0
H669 H 0.34829 0.24256 0.52292 0.0
H670 H 0.37069 0.16342 0.45865 0.0
H671 H 0.36554 0.16501 0.52376 0.0
H672 H 0.38562 0.02286 0.52466 0.0
H673 H 0.40146 0.10078 0.52089 0.0
H674 H 0.33815 0.09902 0.4626 0.0
H675 H 0.32617 0.02146 0.46601 0.0
C676 C 0.35412 0.22419 0.47254 0.0
C677 C 0.34711 0.24719 0.4905 0.0
C678 C 0.36586 0.17984 0.4729 0.0
C679 C 0.36872 0.1567 0.49125 0.0
C680 C 0.36428 0.18089 0.50925 0.0
C681 C 0.35415 0.22566 0.50884 0.0
C682 C 0.37738 0.03903 0.51066 0.0
C683 C 0.35545 0.01613 0.49546 0.0
C684 C 0.38544 0.08405 0.50861 0.0
C685 C 0.37026 0.10741 0.4916 0.0
C686 C 0.35118 0.08315 0.47585 0.0
C687 C 0.34418 0.03822 0.47773 0.0
H688 H 0.25033 0.6317 0.21987 0.0
H689 H 0.22006 0.65943 0.28212 0.0
H690 H 0.26857 0.70782 0.21452 0.0
H691 H 0.2406 0.73553 0.27703 0.0
H692 H 0.23193 0.87586 0.25778 0.0
H693 H 0.21226 0.799 0.26111 0.0
H694 H 0.31828 0.76351 0.22109 0.0
H695 H 0.33623 0.83989 0.21694 0.0
C696 C 0.24888 0.65381 0.2326 0.0
C697 C 0.23361 0.63963 0.25142 0.0
C698 C 0.25925 0.6976 0.2295 0.0
C699 C 0.25537 0.72801 0.24526 0.0
C700 C 0.24267 0.71322 0.26441 0.0
C701 C 0.23158 0.6695 0.26743 0.0
C702 C 0.25026 0.85163 0.24934 0.0
C703 C 0.28558 0.86395 0.23712 0.0
C704 C 0.23948 0.80756 0.25147 0.0
C705 C 0.26426 0.77499 0.24169 0.0
C706 C 0.29823 0.78762 0.22873 0.0
C707 C 0.30849 0.8316 0.22633 0.0
H708 H 0.10019 0.46842 0.53297 0.0
H709 H 0.12901 0.50487 0.47156 0.0
H710 H 0.0247 0.49226 0.5284 0.0
H711 H 0.05339 0.52673 0.46672 0.0
H712 H 0.92201 0.5974 0.47096 0.0
H713 H 0.99839 0.57769 0.47491 0.0
H714 H 0.96125 0.46664 0.51131 0.0
H715 H 0.88455 0.48771 0.50811 0.0
C716 C 0.09052 0.48198 0.51858 0.0
C717 C 0.12047 0.48464 0.50262 0.0
C718 C 0.04715 0.49504 0.51586 0.0
C719 C 0.03279 0.51051 0.49706 0.0
C720 C 0.06334 0.51519 0.48143 0.0
C721 C 0.10681 0.50271 0.48423 0.0
C722 C 0.93 0.56827 0.4795 0.0
C723 C 0.89726 0.54413 0.48929 0.0
C724 C 0.97391 0.55702 0.4818 0.0
C725 C 0.98601 0.52098 0.49368 0.0
C726 C 0.95307 0.49535 0.50252 0.0
C727 C 0.90911 0.507 0.50047 0.0
H728 H 0.28943 0.34981 0.78513 0.0
H729 H 0.23963 0.38312 0.72618 0.0
H730 H 0.26465 0.27486 0.78054 0.0
H731 H 0.21682 0.30817 0.72126 0.0
H732 H 0.15289 0.17503 0.72451 0.0
H733 H 0.16941 0.25135 0.73046 0.0
H734 H 0.28883 0.21384 0.76095 0.0
H735 H 0.27109 0.13697 0.75581 0.0
C736 C 0.27261 0.34132 0.77134 0.0
C737 C 0.26689 0.37226 0.75595 0.0
C738 C 0.25898 0.29827 0.76859 0.0
C739 C 0.23976 0.28532 0.75034 0.0
C740 C 0.2314 0.31701 0.73553 0.0
C741 C 0.24449 0.36011 0.73837 0.0
C742 C 0.1831 0.183 0.73219 0.0
C743 C 0.21083 0.15 0.73966 0.0
C744 C 0.19247 0.22685 0.73566 0.0
C745 C 0.23015 0.23871 0.74639 0.0
C746 C 0.2589 0.20573 0.7531 0.0
C747 C 0.24916 0.16174 0.74989 0.0
H748 H 0.63187 0.50602 0.03123 0.0
H749 H 0.60573 0.47497 0.96892 0.0
H750 H 0.55611 0.52791 0.03573 0.0
H751 H 0.53012 0.49855 0.97326 0.0
H752 H 0.3893 0.49095 0.99272 0.0
H753 H 0.46621 0.47049 0.98986 0.0
H754 H 0.50154 0.58026 0.02743 0.0
H755 H 0.42492 0.59962 0.03095 0.0
C756 C 0.61027 0.505 0.01833 0.0
C757 C 0.62472 0.48839 -0.00025 0.0
C758 C 0.56674 0.51749 0.02093 0.0
C759 C 0.53691 0.51415 0.00495 0.0
C760 C 0.55205 0.50027 0.98602 0.0
C761 C 0.5955 0.48734 0.98346 0.0
C762 C 0.41346 0.51015 0.00067 0.0
C763 C 0.40103 0.54691 0.012 0.0
C764 C 0.45754 0.49882 0.99882 0.0
C765 C 0.49001 0.52429 0.00809 0.0
C766 C 0.47736 0.55983 0.02017 0.0
C767 C 0.43333 0.57086 0.02221 0.0
H768 H 0.73567 0.37227 0.76081 0.0
H769 H 0.83537 0.33981 0.71702 0.0
H770 H 0.71652 0.29513 0.76333 0.0
H771 H 0.81786 0.2631 0.72028 0.0
H772 H 0.7278 0.15422 0.78201 0.0
H773 H 0.74778 0.23065 0.77759 0.0
H774 H 0.76667 0.20802 0.71395 0.0
H775 H 0.74881 0.13152 0.71853 0.0
C776 C 0.75308 0.34878 0.75155 0.0
C777 C 0.78704 0.36214 0.73877 0.0
C778 C 0.7426 0.30454 0.75321 0.0
C779 C 0.76629 0.27286 0.74231 0.0
C780 C 0.79873 0.28657 0.72879 0.0
C781 C 0.80873 0.33073 0.72691 0.0
C782 C 0.73719 0.16544 0.76717 0.0
C783 C 0.73667 0.13691 0.75063 0.0
C784 C 0.74796 0.20935 0.76457 0.0
C785 C 0.75789 0.22565 0.74533 0.0
C786 C 0.75942 0.19656 0.72899 0.0
C787 C 0.74928 0.15258 0.73164 0.0
H788 H 0.75591 0.87639 0.22465 0.0
H789 H 0.79431 0.84983 0.28605 0.0
H790 H 0.73635 0.80058 0.22019 0.0
H791 H 0.77214 0.77383 0.28194 0.0
H792 H 0.777 0.6325 0.26217 0.0
H793 H 0.79681 0.70935 0.26577 0.0
H794 H 0.68731 0.74589 0.22801 0.0
H795 H 0.66939 0.66967 0.2235 0.0
C796 C 0.75892 0.85463 0.23743 0.0
C797 C 0.77687 0.86911 0.2557 0.0
C798 C 0.74766 0.81096 0.23486 0.0
C799 C 0.75316 0.78085 0.25062 0.0
C800 C 0.76864 0.7959 0.2693 0.0
C801 C 0.78069 0.83957 0.27177 0.0
C802 C 0.75792 0.65703 0.25429 0.0
C803 C 0.7219 0.64504 0.24246 0.0
C804 C 0.76877 0.70108 0.2566 0.0
C805 C 0.74329 0.73392 0.24741 0.0
C806 C 0.70809 0.72162 0.23509 0.0
C807 C 0.69784 0.67772 0.23247 0.0
H808 H 0.62495 0.01939 0.98632 0.0
H809 H 0.59399 0.92507 0.03262 0.0
H810 H 0.54776 0.03927 0.98408 0.0
H811 H 0.51719 0.94337 0.02971 0.0
H812 H 0.38599 0.01555 0.03096 0.0
H813 H 0.46264 0.99663 0.03537 0.0
H814 H 0.48266 0.00655 0.97114 0.0
H815 H 0.40625 0.0274 0.96685 0.0
C816 C 0.60181 1.0033 0.99616 0.0
C817 C 0.61559 0.97055 0.00955 0.0
C818 C 0.55754 0.01421 0.99469 0.0
C819 C 0.52625 0.99223 0.00643 0.0
C820 C 0.54039 0.96111 0.02053 0.0
C821 C 0.58458 0.95063 0.02218 0.0
C822 C 0.40653 0.01276 0.01773 0.0
C823 C 0.39024 0.02314 0.99856 0.0
C824 C 0.45055 1.00209 0.02027 0.0
C825 C 0.47896 1.00093 0.00365 0.0
C826 C 0.46192 0.00852 0.98432 0.0
C827 C 0.41803 0.01978 0.98182 0.0
H828 H 0.12614 0.99794 0.52115 0.0
H829 H 0.09616 0.95182 0.46126 0.0
H830 H 0.05069 0.01879 0.52597 0.0
H831 H 0.02036 0.97551 0.46561 0.0
H832 H 0.87948 0.97827 0.48711 0.0
H833 H 0.95575 0.9559 0.48276 0.0
H834 H 0.99694 0.06811 0.51752 0.0
H835 H 0.92148 0.08843 0.52289 0.0
C836 C 0.10365 0.99346 0.50873 0.0
C837 C 0.11716 0.9732 0.4908 0.0
C838 C 0.06017 0.00551 0.51151 0.0
C839 C 0.02919 0.99863 0.49624 0.0
C840 C 0.04312 0.98031 0.47788 0.0
C841 C 0.08666 0.96736 0.47525 0.0
C842 C 0.90497 0.9974 0.49417 0.0
C843 C 0.89452 0.03472 0.50552 0.0
C844 C 0.94866 0.98506 0.49143 0.0
C845 C 0.98263 0.01039 0.49965 0.0
C846 C 0.97183 0.04725 0.51129 0.0
C847 C 0.92835 0.05893 0.5144 0.0
H848 H 0.19171 0.52339 0.32817 0.0
H849 H 0.12591 0.39945 0.32169 0.0
H850 H 0.21716 0.502 0.36118 0.0
H851 H 0.14933 0.37872 0.35556 0.0
H852 H 0.23094 0.34034 0.41115 0.0
H853 H 0.20891 0.3577 0.37657 0.0
H854 H 0.19222 0.49336 0.3935 0.0
H855 H 0.21626 0.47669 0.42707 0.0
C856 C 0.18181 0.49187 0.33401 0.0
C857 C 0.1563 0.46336 0.3224 0.0
C858 C 0.19638 0.47952 0.35304 0.0
C859 C 0.18498 0.43872 0.36128 0.0
C860 C 0.15924 0.41016 0.34967 0.0
C861 C 0.14535 0.42223 0.33036 0.0
C862 C 0.22313 0.37388 0.40728 0.0
C863 C 0.22607 0.40714 0.42181 0.0
C864 C 0.21007 0.38383 0.38754 0.0
C865 C 0.19908 0.4271 0.38209 0.0
C866 C 0.20162 0.45994 0.39681 0.0
C867 C 0.21534 0.45024 0.41623 0.0
H868 H 0.28267 0.44914 0.67899 0.0
H869 H 0.41487 0.48084 0.6613 0.0
H870 H 0.26664 0.42494 0.64536 0.0
H871 H 0.3979 0.45832 0.62672 0.0
H872 H 0.36138 0.37587 0.57096 0.0
H873 H 0.38185 0.39757 0.60507 0.0
H874 H 0.25284 0.45319 0.61366 0.0
H875 H 0.23199 0.4297 0.58029 0.0
C876 C 0.30824 0.45176 0.66777 0.0
C877 C 0.34996 0.4676 0.67281 0.0
C878 C 0.2989 0.43794 0.64834 0.0
C879 C 0.33064 0.44029 0.63312 0.0
C880 C 0.37269 0.4558 0.6381 0.0
C881 C 0.38236 0.46905 0.65783 0.0
C882 C 0.33731 0.39224 0.5803 0.0
C883 C 0.29485 0.40049 0.57301 0.0
C884 C 0.3492 0.40513 0.59976 0.0
C885 C 0.31901 0.42699 0.61224 0.0
C886 C 0.27672 0.43547 0.60477 0.0
C887 C 0.26469 0.42202 0.58553 0.0
H888 H 0.33377 0.47964 0.83218 0.0
H889 H 0.37585 0.61215 0.82094 0.0
H890 H 0.31189 0.49997 0.8659 0.0
H891 H 0.35579 0.63225 0.8553 0.0
H892 H 0.27423 0.66283 0.91194 0.0
H893 H 0.29552 0.64489 0.87738 0.0
H894 H 0.33984 0.51754 0.89726 0.0
H895 H 0.31679 0.53449 0.93112 0.0
C896 C 0.3392 0.513 0.83704 0.0
C897 C 0.35684 0.54418 0.82386 0.0
C898 C 0.32671 0.52471 0.85649 0.0
C899 C 0.3322 0.56779 0.86348 0.0
C900 C 0.35045 0.59894 0.85038 0.0
C901 C 0.36241 0.58731 0.83074 0.0
C902 C 0.28816 0.63091 0.9088 0.0
C903 C 0.29321 0.59993 0.92424 0.0
C904 C 0.30075 0.62073 0.88904 0.0
C905 C 0.31919 0.57958 0.88442 0.0
C906 C 0.32474 0.54908 0.90003 0.0
C907 C 0.31159 0.55894 0.91956 0.0
H908 H 0.14316 0.6309 0.07022 0.0
H909 H 0.2765 0.58994 0.08106 0.0
H910 H 0.12281 0.60648 0.10399 0.0
H911 H 0.25605 0.5632 0.11391 0.0
H912 H 0.22318 0.55951 0.17873 0.0
H913 H 0.23871 0.58666 0.14553 0.0
H914 H 0.11041 0.54611 0.12556 0.0
H915 H 0.09372 0.52116 0.15982 0.0
C916 C 0.16809 0.61674 0.07983 0.0
C917 C 0.21159 0.61306 0.07311 0.0
C918 C 0.15635 0.60225 0.0991 0.0
C919 C 0.18775 0.58305 0.11189 0.0
C920 C 0.23107 0.57894 0.10488 0.0
C921 C 0.24291 0.59423 0.08592 0.0
C922 C 0.19826 0.55588 0.16726 0.0
C923 C 0.15744 0.53739 0.17184 0.0
C924 C 0.20729 0.5714 0.14807 0.0
C925 C 0.17626 0.56794 0.13257 0.0
C926 C 0.13509 0.54963 0.13711 0.0
C927 C 0.1256 0.5349 0.15666 0.0
H928 H 0.80785 0.66838 0.58386 0.0
H929 H 0.7681 0.53384 0.57674 0.0
H930 H 0.83311 0.6523 0.61787 0.0
H931 H 0.79182 0.51811 0.61088 0.0
H932 H 0.88099 0.48903 0.663 0.0
H933 H 0.85752 0.50892 0.62925 0.0
H934 H 0.81255 0.63426 0.65135 0.0
H935 H 0.83751 0.61491 0.685 0.0
C936 C 0.8037 0.63557 0.58968 0.0
C937 C 0.78613 0.60236 0.57751 0.0
C938 C 0.8182 0.62632 0.60922 0.0
C939 C 0.81515 0.5837 0.61711 0.0
C940 C 0.79587 0.55101 0.60518 0.0
C941 C 0.78178 0.56015 0.58563 0.0
C942 C 0.86656 0.52104 0.66063 0.0
C943 C 0.86111 0.55029 0.67675 0.0
C944 C 0.85263 0.53232 0.64128 0.0
C945 C 0.83241 0.57299 0.63755 0.0
C946 C 0.82822 0.6028 0.65357 0.0
C947 C 0.84254 0.59165 0.67291 0.0
H948 H 0.71909 0.51508 0.32943 0.0
H949 H 0.5882 0.56819 0.3337 0.0
H950 H 0.73483 0.54053 0.36323 0.0
H951 H 0.6044 0.59489 0.36759 0.0
H952 H 0.64049 0.59949 0.43541 0.0
H953 H 0.61983 0.57462 0.40194 0.0
H954 H 0.74836 0.60823 0.37988 0.0
H955 H 0.76946 0.63187 0.41345 0.0
C956 C 0.69353 0.53207 0.33764 0.0
C957 C 0.65242 0.53976 0.32879 0.0
C958 C 0.70274 0.54711 0.35699 0.0
C959 C 0.67125 0.57063 0.36804 0.0
C960 C 0.62945 0.57684 0.35954 0.0
C961 C 0.62009 0.56146 0.34012 0.0
C962 C 0.66425 0.60207 0.42338 0.0
C963 C 0.70682 0.61744 0.42721 0.0
C964 C 0.6523 0.58784 0.40414 0.0
C965 C 0.68257 0.58876 0.38822 0.0
C966 C 0.7245 0.60597 0.39188 0.0
C967 C 0.73653 0.61996 0.41112 0.0
H968 H 0.7648 0.45877 0.08278 0.0
H969 H 0.69356 0.33706 0.08362 0.0
H970 H 0.74007 0.47473 0.11671 0.0
H971 H 0.66795 0.35355 0.11773 0.0
H972 H 0.66311 0.38652 0.1863 0.0
H973 H 0.68877 0.36412 0.15308 0.0
H974 H 0.67121 0.49636 0.13161 0.0
H975 H 0.64647 0.51898 0.16482 0.0
C976 C 0.74413 0.43515 0.09029 0.0
C977 C 0.73089 0.39678 0.0804 0.0
C978 C 0.72958 0.44454 0.10971 0.0
C979 C 0.70115 0.41596 0.11979 0.0
C980 C 0.68977 0.37633 0.11038 0.0
C981 C 0.70456 0.36679 0.09086 0.0
C982 C 0.66428 0.41077 0.17444 0.0
C983 C 0.65299 0.4547 0.17832 0.0
C984 C 0.67896 0.39784 0.15537 0.0
C985 C 0.68273 0.42854 0.13975 0.0
C986 C 0.66975 0.47205 0.14343 0.0
C987 C 0.65516 0.48497 0.16246 0.0
H988 H 0.91731 0.43959 0.83286 0.0
H989 H 0.78836 0.49675 0.82752 0.0
H990 H 0.90046 0.41709 0.86725 0.0
H991 H 0.7721 0.476 0.86195 0.0
H992 H 0.73527 0.39308 0.91504 0.0
H993 H 0.75558 0.41323 0.88089 0.0
H994 H 0.88744 0.4399 0.90081 0.0
H995 H 0.86751 0.41802 0.93477 0.0
C996 C 0.88571 0.44811 0.83916 0.0
C997 C 0.8541 0.46971 0.82742 0.0
C998 C 0.87599 0.43522 0.8589 0.0
C999 C 0.8346 0.44407 0.86737 0.0
C1000 C 0.80382 0.46739 0.85581 0.0
C1001 C 0.81332 0.47975 0.83609 0.0
C1002 C 0.76869 0.40285 0.91209 0.0
C1003 C 0.79968 0.40396 0.92767 0.0
C1004 C 0.78032 0.41484 0.89251 0.0
C1005 C 0.82309 0.42885 0.88804 0.0
C1006 C 0.85434 0.42894 0.90357 0.0
C1007 C 0.84283 0.41647 0.92311 0.0
H1008 H 0.64599 0.02577 0.83565 0.0
H1009 H 0.66874 0.89302 0.81581 0.0
H1010 H 0.66813 0.00539 0.86957 0.0
H1011 H 0.69259 0.87303 0.84946 0.0
H1012 H 0.7543 0.97105 0.92207 0.0
H1013 H 0.73189 0.9878 0.88785 0.0
H1014 H 0.67143 0.86062 0.88314 0.0
H1015 H 0.69553 0.84328 0.9172 0.0
C1016 C 0.65563 0.99221 0.83853 0.0
C1017 C 0.65556 0.96109 0.82299 0.0
C1018 C 0.6688 0.98056 0.85796 0.0
C1019 C 0.68279 0.93762 0.86229 0.0
C1020 C 0.68167 0.90627 0.84682 0.0
C1021 C 0.66803 0.9178 0.82745 0.0
C1022 C 0.73669 0.94644 0.91364 0.0
C1023 C 0.72666 0.90585 0.92238 0.0
C1024 C 0.72335 0.95623 0.89406 0.0
C1025 C 0.6991 0.92592 0.88275 0.0
C1026 C 0.69029 0.88471 0.89129 0.0
C1027 C 0.70413 0.8747 0.91084 0.0
H1028 H 0.73647 0.92266 0.0805 0.0
H1029 H 0.86913 0.8785 0.07042 0.0
H1030 H 0.7562 0.94757 0.11372 0.0
H1031 H 0.88868 0.90129 0.10456 0.0
H1032 H 0.91694 0.98488 0.16119 0.0
H1033 H 0.90126 0.96126 0.12666 0.0
H1034 H 0.7717 0.92179 0.14531 0.0
H1035 H 0.78635 0.94747 0.17888 0.0
C1036 C 0.76975 0.91732 0.08557 0.0
C1037 C 0.80107 0.89806 0.07286 0.0
C1038 C 0.78115 0.93155 0.10476 0.0
C1039 C 0.82401 0.92602 0.11209 0.0
C1040 C 0.85547 0.90653 0.0994 0.0
C1041 C 0.84419 0.89301 0.07992 0.0
C1042 C 0.88503 0.9716 0.15771 0.0
C1043 C 0.85263 0.96893 0.17266 0.0
C1044 C 0.87612 0.95766 0.138 0.0
C1045 C 0.83492 0.94006 0.13301 0.0
C1046 C 0.80324 0.93645 0.14824 0.0
C1047 C 0.81176 0.95113 0.16764 0.0
H1048 H 0.81734 0.16977 0.41708 0.0
H1049 H 0.75506 0.04341 0.42026 0.0
H1050 H 0.84294 0.15284 0.38309 0.0
H1051 H 0.77927 0.02707 0.38629 0.0
H1052 H 0.86937 0.9869 0.33634 0.0
H1053 H 0.84612 0.00869 0.3699 0.0
H1054 H 0.82267 0.14028 0.34864 0.0
H1055 H 0.84731 0.11884 0.31521 0.0
C1056 C 0.80829 0.13882 0.41036 0.0
C1057 C 0.78447 0.10781 0.42142 0.0
C1058 C 0.82304 0.12904 0.3909 0.0
C1059 C 0.81394 0.08819 0.38207 0.0
C1060 C 0.78809 0.05828 0.3928 0.0
C1061 C 0.77376 0.06786 0.41224 0.0
C1062 C 0.85976 0.02061 0.33886 0.0
C1063 C 0.86006 0.05101 0.32303 0.0
C1064 C 0.84599 0.03305 0.35808 0.0
C1065 C 0.83172 0.07611 0.36193 0.0
C1066 C 0.83359 0.10693 0.34627 0.0
C1067 C 0.8477 0.09456 0.32707 0.0
H1068 H 0.64078 0.09571 0.56509 0.0
H1069 H 0.77396 0.11203 0.58554 0.0
H1070 H 0.61989 0.0695 0.59832 0.0
H1071 H 0.75277 0.08693 0.61887 0.0
H1072 H 0.71651 0.99471 0.66855 0.0
H1073 H 0.7324 0.01937 0.63461 0.0
H1074 H 0.60954 0.08979 0.63317 0.0
H1075 H 0.59307 0.0641 0.66713 0.0
C1076 C 0.66551 0.09438 0.57674 0.0
C1077 C 0.70918 0.1058 0.57257 0.0
C1078 C 0.65344 0.07938 0.59583 0.0
C1079 C 0.68472 0.07551 0.61123 0.0
C1080 C 0.72802 0.08847 0.60724 0.0
C1081 C 0.74012 0.1033 0.58816 0.0
C1082 C 0.69254 0.01497 0.66093 0.0
C1083 C 0.6536 0.02762 0.67063 0.0
C1084 C 0.70189 0.02952 0.64151 0.0
C1085 C 0.67272 0.05736 0.63128 0.0
C1086 C 0.63275 0.06833 0.64059 0.0
C1087 C 0.62324 0.05352 0.66005 0.0
H1088 H 0.31601 0.17103 0.08044 0.0
H1089 H 0.24574 0.04874 0.07907 0.0
H1090 H 0.34155 0.15424 0.11446 0.0
H1091 H 0.27046 0.03248 0.11298 0.0
H1092 H 0.36452 0.98892 0.16122 0.0
H1093 H 0.33939 0.01132 0.12805 0.0
H1094 H 0.32056 0.14334 0.14963 0.0
H1095 H 0.34658 0.1212 0.18278 0.0
C1096 C 0.3052 0.14108 0.08754 0.0
C1097 C 0.27913 0.11108 0.07695 0.0
C1098 C 0.31994 0.13139 0.10702 0.0
C1099 C 0.30883 0.09155 0.11629 0.0
C1100 C 0.28071 0.06286 0.10609 0.0
C1101 C 0.26614 0.07243 0.08669 0.0
C1102 C 0.3555 0.02284 0.15889 0.0
C1103 C 0.35743 0.05314 0.17476 0.0
C1104 C 0.34066 0.03563 0.13988 0.0
C1105 C 0.32723 0.07901 0.13624 0.0
C1106 C 0.33072 0.10972 0.15188 0.0
C1107 C 0.34562 0.09694 0.17092 0.0
H1108 H 0.15506 0.12949 0.92481 0.0
H1109 H 0.28353 0.07215 0.9175 0.0
H1110 H 0.13572 0.10635 0.89082 0.0
H1111 H 0.26371 0.04718 0.88414 0.0
H1112 H 0.23403 0.04786 0.81792 0.0
H1113 H 0.2515 0.07119 0.85163 0.0
H1114 H 0.11847 0.0455 0.87022 0.0
H1115 H 0.10027 0.02398 0.83579 0.0
C1116 C 0.17919 0.11199 0.91594 0.0
C1117 C 0.22101 0.10311 0.9238 0.0
C1118 C 0.16793 0.09823 0.89652 0.0
C1119 C 0.19805 0.07477 0.88461 0.0
C1120 C 0.23984 0.06593 0.89259 0.0
C1121 C 0.25127 0.08023 0.91182 0.0
C1122 C 0.2084 0.04673 0.82916 0.0
C1123 C 0.16569 0.0338 0.82408 0.0
C1124 C 0.21857 0.06003 0.84865 0.0
C1125 C 0.18656 0.06016 0.86384 0.0
C1126 C 0.14388 0.04649 0.85889 0.0
C1127 C 0.13349 0.03369 0.83919 0.0
H1128 H 0.13414 0.89411 0.67631 0.0
H1129 H 0.17491 0.0275 0.66666 0.0
H1130 H 0.15835 0.87504 0.64239 0.0
H1131 H 0.20143 0.00825 0.6335 0.0
H1132 H 0.2045 0.97584 0.568 0.0
H1133 H 0.1792 0.99202 0.60153 0.0
H1134 H 0.21851 0.86269 0.62099 0.0
H1135 H 0.24167 0.84552 0.5866 0.0
C1136 C 0.14827 0.91933 0.66693 0.0
C1137 C 0.15202 0.96245 0.67408 0.0
C1138 C 0.16267 0.90832 0.64755 0.0
C1139 C 0.18187 0.94002 0.635 0.0
C1140 C 0.18585 0.98304 0.64236 0.0
C1141 C 0.17069 0.99417 0.6615 0.0
C1142 C 0.20824 0.95082 0.57941 0.0
C1143 C 0.22556 0.90944 0.5746 0.0
C1144 C 0.1938 0.96024 0.59881 0.0
C1145 C 0.19708 0.92895 0.61423 0.0
C1146 C 0.21488 0.88753 0.60951 0.0
C1147 C 0.22862 0.87775 0.58984 0.0
H1148 H 0.28716 0.99321 0.32532 0.0
H1149 H 0.41757 0.93918 0.33002 0.0
H1150 H 0.27084 0.96846 0.35918 0.0
H1151 H 0.40075 0.91287 0.36385 0.0
H1152 H 0.23556 0.88013 0.41055 0.0
H1153 H 0.25609 0.90283 0.37674 0.0
H1154 H 0.3863 0.93312 0.39776 0.0
H1155 H 0.36629 0.90892 0.43133 0.0
C1156 C 0.31246 0.9761 0.33363 0.0
C1157 C 0.35366 0.96808 0.32494 0.0
C1158 C 0.30291 0.96143 0.35301 0.0
C1159 C 0.33412 0.93786 0.3642 0.0
C1160 C 0.37592 0.93108 0.35575 0.0
C1161 C 0.38565 0.94621 0.33636 0.0
C1162 C 0.26872 0.89111 0.40791 0.0
C1163 C 0.29916 0.89276 0.42371 0.0
C1164 C 0.28043 0.90458 0.38854 0.0
C1165 C 0.32275 0.9205 0.38451 0.0
C1166 C 0.35357 0.92078 0.40019 0.0
C1167 C 0.34198 0.90695 0.41951 0.0
H1168 H 0.06085 0.65468 0.28688 0.0
H1169 H 0.01617 0.64213 0.22549 0.0
H1170 H 0.03643 0.73039 0.28738 0.0
H1171 H 0.99051 0.71777 0.22622 0.0
H1172 H 0.99413 0.86646 0.22581 0.0
H1173 H 0.01966 0.79078 0.22627 0.0
H1174 H 0.97443 0.77758 0.28752 0.0
H1175 H 0.95014 0.85335 0.28728 0.0
C1176 C 0.045 0.66773 0.27359 0.0
C1177 C 0.04061 0.64208 0.25612 0.0
C1178 C 0.03094 0.71134 0.27389 0.0
C1179 C 0.01188 0.73056 0.25677 0.0
C1180 C 0.00592 0.70443 0.23955 0.0
C1181 C 0.02014 0.66079 0.23922 0.0
C1182 C 0.99028 0.84767 0.23949 0.0
C1183 C 0.97006 0.86624 0.2565 0.0
C1184 C 1.00442 0.804 0.23967 0.0
C1185 C 0.99863 0.77769 0.25685 0.0
C1186 C 0.97978 0.79677 0.27407 0.0
C1187 C 0.96581 0.84041 0.27392 0.0
H1188 H 0.1157 0.2663 0.47463 0.0
H1189 H 0.10371 0.30885 0.53638 0.0
H1190 H 0.03999 0.24126 0.47533 0.0
H1191 H 0.02801 0.2852 0.53685 0.0
H1192 H 0.90449 0.20135 0.53671 0.0
H1193 H 0.98052 0.22424 0.53679 0.0
H1194 H 0.96689 0.2704 0.4757 0.0
H1195 H 0.89094 0.24621 0.4754 0.0
C1196 C 0.09716 0.26993 0.48842 0.0
C1197 C 0.11607 0.28962 0.50544 0.0
C1198 C 0.05347 0.25608 0.48874 0.0
C1199 C 0.02747 0.26164 0.50607 0.0
C1200 C 0.04691 0.27997 0.52328 0.0
C1201 C 0.09054 0.29363 0.52298 0.0
C1202 C 0.91738 0.21697 0.52336 0.0
C1203 C 0.8913 0.22194 0.50605 0.0
C1204 C 0.9612 0.23011 0.5234 0.0
C1205 C 0.98024 0.24887 0.50619 0.0
C1206 C 0.95374 0.25523 0.4891 0.0
C1207 C 0.90991 0.24188 0.48902 0.0
H1208 H 0.49003 0.36437 0.72518 0.0
H1209 H 0.44847 0.35107 0.787 0.0
H1210 H 0.51744 0.28929 0.72569 0.0
H1211 H 0.47481 0.27595 0.78732 0.0
H1212 H 0.56516 0.15576 0.78646 0.0
H1213 H 0.53886 0.2309 0.78677 0.0
H1214 H 0.48984 0.21523 0.72629 0.0
H1215 H 0.51719 0.14014 0.72576 0.0
C1216 C 0.48711 0.34568 0.73895 0.0
C1217 C 0.46701 0.36402 0.75605 0.0
C1218 C 0.50235 0.30236 0.73916 0.0
C1219 C 0.49792 0.27621 0.75647 0.0
C1220 C 0.47912 0.29505 0.77376 0.0
C1221 C 0.46394 0.33831 0.77356 0.0
C1222 C 0.54829 0.16802 0.77328 0.0
C1223 C 0.5434 0.14164 0.75607 0.0
C1224 C 0.53314 0.21128 0.77348 0.0
C1225 C 0.51255 0.22947 0.75649 0.0
C1226 C 0.50633 0.20267 0.73951 0.0
C1227 C 0.52154 0.15934 0.7393 0.0
H1228 H 0.61797 0.76222 0.97511 0.0
H1229 H 0.60598 0.80903 0.03618 0.0
H1230 H 0.54108 0.74109 0.97548 0.0
H1231 H 0.52908 0.78971 0.03629 0.0
H1232 H 0.40143 0.71312 0.0366 0.0
H1233 H 0.47818 0.73289 0.03696 0.0
H1234 H 0.4696 0.77152 0.97456 0.0
H1235 H 0.39286 0.74989 0.97399 0.0
C1236 C 0.5991 0.76764 0.98868 0.0
C1237 C 0.61843 0.78711 0.00564 0.0
C1238 C 0.55474 0.75609 0.98881 0.0
C1239 C 0.5284 0.76408 0.00584 0.0
C1240 C 0.54816 0.78247 0.02296 0.0
C1241 C 0.59252 0.79358 0.02291 0.0
C1242 C 0.41558 0.7265 0.023 0.0
C1243 C 0.39069 0.72995 0.00526 0.0
C1244 C 0.45987 0.73788 0.02321 0.0
C1245 C 0.48058 0.75353 0.00574 0.0
C1246 C 0.45521 0.75865 0.9882 0.0
C1247 C 0.41093 0.74682 0.98793 0.0
H1248 H 0.0475 0.14672 0.71214 0.0
H1249 H 0.01375 0.13852 0.77511 0.0
H1250 H 0.02686 0.22341 0.71187 0.0
H1251 H 0.99125 0.21519 0.77466 0.0
H1252 H 0.99791 0.3636 0.77369 0.0
H1253 H 0.02038 0.28691 0.77329 0.0
H1254 H 0.96922 0.27385 0.713 0.0
H1255 H 0.94854 0.35052 0.71313 0.0
C1256 C 0.03461 0.16094 0.72585 0.0
C1257 C 0.0322 0.13616 0.74365 0.0
C1258 C 0.02274 0.2052 0.72569 0.0
C1259 C 0.00761 0.22598 0.74328 0.0
C1260 C 1.00366 0.20075 0.76092 0.0
C1261 C 0.01598 0.1565 0.76112 0.0
C1262 C 0.9922 0.34454 0.76022 0.0
C1263 C 0.97161 0.36352 0.74342 0.0
C1264 C 1.00454 0.30029 0.76008 0.0
C1265 C 0.99626 0.2737 0.74319 0.0
C1266 C 0.97673 0.29312 0.72621 0.0
C1267 C 0.96482 0.33736 0.72628 0.0
H1268 H 0.9051 0.70592 0.52802 0.0
H1269 H 0.89187 0.74547 0.46601 0.0
H1270 H 0.98175 0.72508 0.52739 0.0
H1271 H 0.96844 0.76788 0.46566 0.0
H1272 H 0.11665 0.76837 0.46407 0.0
H1273 H 0.04041 0.745 0.4646 0.0
H1274 H 0.03285 0.7784 0.52776 0.0
H1275 H 0.10929 0.79854 0.52739 0.0
C1276 C 0.9183 0.71998 0.51436 0.0
C1277 C 0.89211 0.72447 0.49711 0.0
C1278 C 0.96259 0.73115 0.51399 0.0
C1279 C 0.98202 0.74824 0.49647 0.0
C1280 C 0.95532 0.75397 0.47934 0.0
C1281 C 0.9111 0.74174 0.47959 0.0
C1282 C 0.09879 0.76977 0.47813 0.0
C1283 C 0.11929 0.78485 0.49572 0.0
C1284 C 0.05474 0.757 0.47841 0.0
C1285 C 0.0297 0.75996 0.4962 0.0
C1286 C 0.05071 0.77455 0.51382 0.0
C1287 C 0.09488 0.78628 0.51363 0.0
H1288 H 0.51279 0.64275 0.27364 0.0
H1289 H 0.55606 0.65125 0.2119 0.0
H1290 H 0.48929 0.71903 0.27237 0.0
H1291 H 0.53391 0.72762 0.21084 0.0
H1292 H 0.45213 0.85378 0.21035 0.0
H1293 H 0.47419 0.77731 0.21053 0.0
H1294 H 0.51987 0.79093 0.27168 0.0
H1295 H 0.49649 0.86728 0.27172 0.0
C1296 C 0.51689 0.66067 0.25972 0.0
C1297 C 0.53627 0.64057 0.24287 0.0
C1298 C 0.50394 0.70469 0.25907 0.0
C1299 C 0.51019 0.72993 0.24159 0.0
C1300 C 0.52818 0.70935 0.22453 0.0
C1301 C 0.54091 0.66532 0.22515 0.0
C1302 C 0.46752 0.84078 0.22376 0.0
C1303 C 0.4725 0.86696 0.24103 0.0
C1304 C 0.48018 0.7967 0.22387 0.0
C1305 C 0.49843 0.77751 0.2412 0.0
C1306 C 0.50501 0.80417 0.2582 0.0
C1307 C 0.49212 0.84823 0.25814 0.0
H1308 H 0.39434 0.243 0.02219 0.0
H1309 H 0.41121 0.19632 0.96131 0.0
H1310 H 0.4695 0.26954 0.02216 0.0
H1311 H 0.48644 0.22204 0.96147 0.0
H1312 H 0.60636 0.31264 0.96274 0.0
H1313 H 0.53129 0.28662 0.96174 0.0
H1314 H 0.54362 0.24004 0.0228 0.0
H1315 H 0.61865 0.26691 0.02398 0.0
C1316 C 0.41382 0.23879 0.00872 0.0
C1317 C 0.39648 0.21748 0.99175 0.0
C1318 C 0.45719 0.25354 0.00879 0.0
C1319 C 0.48434 0.24747 0.9919 0.0
C1320 C 0.46651 0.22754 0.97471 0.0
C1321 C 0.42322 0.21275 0.97463 0.0
C1322 C 0.59338 0.29637 0.97591 0.0
C1323 C 0.61877 0.29201 0.99347 0.0
C1324 C 0.55018 0.28138 0.97531 0.0
C1325 C 0.53109 0.26162 0.99226 0.0
C1326 C 0.55693 0.25588 0.00959 0.0
C1327 C 0.60022 0.27083 0.01019 0.0
loop_
_geom_bond_atom_site_label_1
_geom_bond_atom_site_label_2
_geom_bond_distance
_geom_bond_site_symmetry_2
_ccdc_geom_bond_type
O0 Zn1 1.953 . S
O0 C16 1.225 . S
Zn1 O0 1.953 . S
Zn1 O2 1.949 . S
Zn1 O8 1.919 . S
Zn1 O13 1.924 . S
O2 Zn1 1.949 . S
O2 Zn3 1.923 . S
O2 Zn4 1.950 . S
O2 Zn5 1.945 . S
Zn3 O2 1.923 . S
Zn3 O6 1.933 . S
Zn3 O9 1.941 . S
Zn3 O10 1.965 . S
Zn4 O2 1.950 . S
Zn4 O11 1.938 . S
Zn4 O12 1.906 . S
Zn4 O22 1.953 . S
Zn5 O2 1.945 . S
Zn5 O7 1.932 . S
Zn5 O14 1.977 . S
Zn5 O15 1.910 . S
O6 Zn3 1.933 . S
O6 C17 1.226 . S
O7 Zn5 1.932 . S
O7 C17 1.307 . S
O8 Zn1 1.919 . S
O8 C19 1.253 . S
O9 Zn3 1.941 . S
O9 C19 1.283 . S
O10 Zn3 1.965 . S
O10 C18 1.303 . S
O11 Zn4 1.938 . S
O11 C18 1.247 . S
O12 Zn4 1.906 . S
O12 C20 1.304 . S
O13 Zn1 1.924 . S
O13 C21 1.311 . S
O14 Zn5 1.977 . S
O14 C20 1.272 . S
O15 Zn5 1.910 . S
O15 C21 1.231 . S
C16 O0 1.225 . S
C16 O22 1.298 . S
C17 O6 1.226 . S
C17 O7 1.307 . S
C18 O10 1.303 . S
C18 O11 1.247 . S
C19 O8 1.253 . S
C19 O9 1.283 . S
C20 O12 1.304 . S
C20 O14 1.272 . S
C21 O13 1.311 . S
C21 O15 1.231 . S
O22 Zn4 1.953 . S
O22 C16 1.298 . S
O23 Zn24 1.953 . S
O23 C39 1.225 . S
Zn24 O23 1.953 . S
Zn24 O25 1.949 . S
Zn24 O31 1.919 . S
Zn24 O36 1.924 . S
O25 Zn24 1.949 . S
O25 Zn26 1.923 . S
O25 Zn27 1.950 . S
O25 Zn28 1.945 . S
Zn26 O25 1.923 . S
Zn26 O29 1.933 . S
Zn26 O32 1.941 . S
Zn26 O33 1.965 . S
Zn27 O25 1.950 . S
Zn27 O34 1.938 . S
Zn27 O35 1.906 . S
Zn27 O45 1.953 . S
Zn28 O25 1.945 . S
Zn28 O30 1.932 . S
Zn28 O37 1.977 . S
Zn28 O38 1.910 . S
O29 Zn26 1.933 . S
O29 C40 1.226 . S
O30 Zn28 1.932 . S
O30 C40 1.307 . S
O31 Zn24 1.919 . S
O31 C42 1.253 . S
O32 Zn26 1.941 . S
O32 C42 1.283 . S
O33 Zn26 1.965 . S
O33 C41 1.303 . S
O34 Zn27 1.938 . S
O34 C41 1.247 . S
O35 Zn27 1.906 . S
O35 C43 1.304 . S
O36 Zn24 1.924 . S
O36 C44 1.311 . S
O37 Zn28 1.977 . S
O37 C43 1.272 . S
O38 Zn28 1.910 . S
O38 C44 1.231 . S
C39 O23 1.225 . S
C39 O45 1.298 . S
C40 O29 1.226 . S
C40 O30 1.307 . S
C41 O33 1.303 . S
C41 O34 1.247 . S
C42 O31 1.253 . S
C42 O32 1.283 . S
C43 O35 1.304 . S
C43 O37 1.272 . S
C44 O36 1.311 . S
C44 O38 1.231 . S
O45 Zn27 1.953 . S
O45 C39 1.298 . S
O46 Zn47 1.953 . S
O46 C62 1.225 . S
Zn47 O46 1.953 . S
Zn47 O48 1.949 . S
Zn47 O54 1.919 . S
Zn47 O59 1.924 . S
O48 Zn47 1.949 . S
O48 Zn49 1.923 . S
O48 Zn50 1.950 . S
O48 Zn51 1.945 . S
Zn49 O48 1.923 . S
Zn49 O52 1.933 . S
Zn49 O55 1.941 . S
Zn49 O56 1.965 . S
Zn50 O48 1.950 . S
Zn50 O57 1.938 . S
Zn50 O58 1.906 . S
Zn50 O68 1.953 . S
Zn51 O48 1.945 . S
Zn51 O53 1.932 . S
Zn51 O60 1.977 . S
Zn51 O61 1.910 . S
O52 Zn49 1.933 . S
O52 C63 1.226 . S
O53 Zn51 1.932 . S
O53 C63 1.307 . S
O54 Zn47 1.919 . S
O54 C65 1.253 . S
O55 Zn49 1.941 . S
O55 C65 1.283 . S
O56 Zn49 1.965 . S
O56 C64 1.303 . S
O57 Zn50 1.938 . S
O57 C64 1.247 . S
O58 Zn50 1.906 . S
O58 C66 1.304 . S
O59 Zn47 1.924 . S
O59 C67 1.311 . S
O60 Zn51 1.977 . S
O60 C66 1.272 . S
O61 Zn51 1.910 . S
O61 C67 1.231 . S
C62 O46 1.225 . S
C62 O68 1.298 . S
C63 O52 1.226 . S
C63 O53 1.307 . S
C64 O56 1.303 . S
C64 O57 1.247 . S
C65 O54 1.253 . S
C65 O55 1.283 . S
C66 O58 1.304 . S
C66 O60 1.272 . S
C67 O59 1.311 . S
C67 O61 1.231 . S
O68 Zn50 1.953 . S
O68 C62 1.298 . S
O69 Zn70 1.953 . S
O69 C85 1.225 . S
Zn70 O69 1.953 . S
Zn70 O71 1.938 1_554 S
Zn70 O77 1.919 . S
Zn70 O82 1.924 . S
O71 Zn70 1.938 1_556 S
O71 Zn72 1.918 1_556 S
O71 Zn73 1.960 . S
O71 Zn74 1.950 . S
Zn72 O71 1.918 1_554 S
Zn72 O75 1.933 . S
Zn72 O78 1.941 . S
Zn72 O79 1.965 . S
Zn73 O71 1.960 . S
Zn73 O80 1.938 . S
Zn73 O81 1.906 . S
Zn73 O91 1.953 . S
Zn74 O71 1.950 . S
Zn74 O76 1.932 . S
Zn74 O83 1.977 . S
Zn74 O84 1.910 . S
O75 Zn72 1.933 . S
O75 C86 1.226 1_554 S
O76 Zn74 1.932 . S
O76 C86 1.307 . S
O77 Zn70 1.919 . S
O77 C88 1.253 . S
O78 Zn72 1.941 . S
O78 C88 1.283 . S
O79 Zn72 1.965 . S
O79 C87 1.303 1_554 S
O80 Zn73 1.938 . S
O80 C87 1.247 . S
O81 Zn73 1.906 . S
O81 C89 1.304 . S
O82 Zn70 1.924 . S
O82 C90 1.311 . S
O83 Zn74 1.977 . S
O83 C89 1.272 . S
O84 Zn74 1.910 . S
O84 C90 1.231 1_556 S
C85 O69 1.225 . S
C85 O91 1.298 1_554 S
C86 O75 1.226 1_556 S
C86 O76 1.307 . S
C87 O79 1.303 1_556 S
C87 O80 1.247 . S
C88 O77 1.253 . S
C88 O78 1.283 . S
C89 O81 1.304 . S
C89 O83 1.272 . S
C90 O82 1.311 . S
C90 O84 1.231 1_554 S
O91 Zn73 1.953 . S
O91 C85 1.298 1_556 S
O92 Zn93 1.953 . S
O92 C108 1.225 . S
Zn93 O92 1.953 . S
Zn93 O94 1.949 . S
Zn93 O100 1.919 . S
Zn93 O105 1.924 . S
O94 Zn93 1.949 . S
O94 Zn95 1.923 . S
O94 Zn96 1.950 . S
O94 Zn97 1.945 . S
Zn95 O94 1.923 . S
Zn95 O98 1.933 . S
Zn95 O101 1.941 . S
Zn95 O102 1.965 . S
Zn96 O94 1.950 . S
Zn96 O103 1.938 . S
Zn96 O104 1.906 . S
Zn96 O114 1.953 . S
Zn97 O94 1.945 . S
Zn97 O99 1.932 . S
Zn97 O106 1.977 . S
Zn97 O107 1.910 . S
O98 Zn95 1.933 . S
O98 C109 1.226 . S
O99 Zn97 1.932 . S
O99 C109 1.307 . S
O100 Zn93 1.919 . S
O100 C111 1.253 . S
O101 Zn95 1.941 . S
O101 C111 1.283 . S
O102 Zn95 1.965 . S
O102 C110 1.303 . S
O103 Zn96 1.938 . S
O103 C110 1.247 . S
O104 Zn96 1.906 . S
O104 C112 1.304 . S
O105 Zn93 1.924 . S
O105 C113 1.311 . S
O106 Zn97 1.977 . S
O106 C112 1.272 . S
O107 Zn97 1.910 . S
O107 C113 1.231 . S
C108 O92 1.225 . S
C108 O114 1.298 . S
C109 O98 1.226 . S
C109 O99 1.307 . S
C110 O102 1.303 . S
C110 O103 1.247 . S
C111 O100 1.253 . S
C111 O101 1.283 . S
C112 O104 1.304 . S
C112 O106 1.272 . S
C113 O105 1.311 . S
C113 O107 1.231 . S
O114 Zn96 1.953 . S
O114 C108 1.298 . S
O115 Zn116 1.953 . S
O115 C131 1.225 . S
Zn116 O115 1.953 . S
Zn116 O117 1.949 . S
Zn116 O123 1.919 . S
Zn116 O128 1.924 . S
O117 Zn116 1.949 . S
O117 Zn118 1.923 . S
O117 Zn119 1.950 . S
O117 Zn120 1.945 . S
Zn118 O117 1.923 . S
Zn118 O121 1.933 . S
Zn118 O124 1.941 . S
Zn118 O125 1.965 . S
Zn119 O117 1.950 . S
Zn119 O126 1.938 . S
Zn119 O127 1.906 . S
Zn119 O137 1.953 . S
Zn120 O117 1.945 . S
Zn120 O122 1.932 . S
Zn120 O129 1.977 . S
Zn120 O130 1.910 . S
O121 Zn118 1.933 . S
O121 C132 1.226 . S
O122 Zn120 1.932 . S
O122 C132 1.307 . S
O123 Zn116 1.919 . S
O123 C134 1.253 . S
O124 Zn118 1.941 . S
O124 C134 1.283 . S
O125 Zn118 1.965 . S
O125 C133 1.303 . S
O126 Zn119 1.938 . S
O126 C133 1.247 . S
O127 Zn119 1.906 . S
O127 C135 1.304 . S
O128 Zn116 1.924 . S
O128 C136 1.311 . S
O129 Zn120 1.977 . S
O129 C135 1.272 . S
O130 Zn120 1.910 . S
O130 C136 1.231 . S
C131 O115 1.225 . S
C131 O137 1.298 . S
C132 O121 1.226 . S
C132 O122 1.307 . S
C133 O125 1.303 . S
C133 O126 1.247 . S
C134 O123 1.253 . S
C134 O124 1.283 . S
C135 O127 1.304 . S
C135 O129 1.272 . S
C136 O128 1.311 . S
C136 O130 1.231 . S
O137 Zn119 1.953 . S
O137 C131 1.298 . S
O138 Zn139 1.953 . S
O138 C154 1.225 . S
Zn139 O138 1.953 . S
Zn139 O140 1.949 . S
Zn139 O146 1.919 . S
Zn139 O151 1.924 . S
O140 Zn139 1.949 . S
O140 Zn141 1.923 . S
O140 Zn142 1.950 . S
O140 Zn143 1.945 . S
Zn141 O140 1.923 . S
Zn141 O144 1.933 . S
Zn141 O147 1.941 . S
Zn141 O148 1.965 . S
Zn142 O140 1.950 . S
Zn142 O149 1.938 . S
Zn142 O150 1.906 . S
Zn142 O160 1.953 . S
Zn143 O140 1.945 . S
Zn143 O145 1.932 . S
Zn143 O152 1.977 . S
Zn143 O153 1.910 . S
O144 Zn141 1.933 . S
O144 C155 1.226 . S
O145 Zn143 1.932 . S
O145 C155 1.307 . S
O146 Zn139 1.919 . S
O146 C157 1.253 . S
O147 Zn141 1.941 . S
O147 C157 1.283 . S
O148 Zn141 1.965 . S
O148 C156 1.303 . S
O149 Zn142 1.938 . S
O149 C156 1.247 . S
O150 Zn142 1.906 . S
O150 C158 1.304 . S
O151 Zn139 1.924 . S
O151 C159 1.311 . S
O152 Zn143 1.977 . S
O152 C158 1.272 . S
O153 Zn143 1.910 . S
O153 C159 1.231 . S
C154 O138 1.225 . S
C154 O160 1.298 . S
C155 O144 1.226 . S
C155 O145 1.307 . S
C156 O148 1.303 . S
C156 O149 1.247 . S
C157 O146 1.253 . S
C157 O147 1.283 . S
C158 O150 1.304 . S
C158 O152 1.272 . S
C159 O151 1.311 . S
C159 O153 1.231 . S
O160 Zn142 1.953 . S
O160 C154 1.298 . S
O161 Zn162 1.953 . S
O161 C177 1.225 . S
Zn162 O161 1.953 . S
Zn162 O163 1.938 1_556 S
Zn162 O169 1.919 . S
Zn162 O174 1.924 . S
O163 Zn162 1.938 1_554 S
O163 Zn164 1.918 1_554 S
O163 Zn165 1.960 . S
O163 Zn166 1.950 . S
Zn164 O163 1.918 1_556 S
Zn164 O167 1.933 . S
Zn164 O170 1.941 . S
Zn164 O171 1.965 . S
Zn165 O163 1.960 . S
Zn165 O172 1.938 . S
Zn165 O173 1.906 . S
Zn165 O183 1.953 . S
Zn166 O163 1.950 . S
Zn166 O168 1.932 . S
Zn166 O175 1.977 . S
Zn166 O176 1.910 . S
O167 Zn164 1.933 . S
O167 C178 1.226 1_556 S
O168 Zn166 1.932 . S
O168 C178 1.307 . S
O169 Zn162 1.919 . S
O169 C180 1.253 . S
O170 Zn164 1.941 . S
O170 C180 1.283 . S
O171 Zn164 1.965 . S
O171 C179 1.303 1_556 S
O172 Zn165 1.938 . S
O172 C179 1.247 . S
O173 Zn165 1.906 . S
O173 C181 1.304 . S
O174 Zn162 1.924 . S
O174 C182 1.311 . S
O175 Zn166 1.977 . S
O175 C181 1.272 . S
O176 Zn166 1.910 . S
O176 C182 1.231 1_554 S
C177 O161 1.225 . S
C177 O183 1.298 1_556 S
C178 O167 1.226 1_554 S
C178 O168 1.307 . S
C179 O171 1.303 1_554 S
C179 O172 1.247 . S
C180 O169 1.253 . S
C180 O170 1.283 . S
C181 O173 1.304 . S
C181 O175 1.272 . S
C182 O174 1.311 . S
C182 O176 1.231 1_556 S
O183 Zn165 1.953 . S
O183 C177 1.298 1_554 S
O184 Zn185 1.953 . S
O184 C200 1.225 . S
Zn185 O184 1.953 . S
Zn185 O186 1.949 . S
Zn185 O192 1.919 . S
Zn185 O197 1.924 . S
O186 Zn185 1.949 . S
O186 Zn187 1.923 1_545 S
O186 Zn188 1.950 . S
O186 Zn189 1.945 . S
Zn187 O186 1.923 1_565 S
Zn187 O190 1.933 . S
Zn187 O193 1.941 . S
Zn187 O194 1.965 . S
Zn188 O186 1.950 . S
Zn188 O195 1.938 1_545 S
Zn188 O196 1.906 . S
Zn188 O206 1.953 . S
Zn189 O186 1.945 . S
Zn189 O191 1.932 1_545 S
Zn189 O198 1.977 . S
Zn189 O199 1.910 . S
O190 Zn187 1.933 . S
O190 C201 1.226 . S
O191 Zn189 1.932 1_565 S
O191 C201 1.307 . S
O192 Zn185 1.919 . S
O192 C203 1.253 . S
O193 Zn187 1.941 . S
O193 C203 1.283 1_565 S
O194 Zn187 1.965 . S
O194 C202 1.303 . S
O195 Zn188 1.938 1_565 S
O195 C202 1.247 . S
O196 Zn188 1.906 . S
O196 C204 1.304 . S
O197 Zn185 1.924 . S
O197 C205 1.311 . S
O198 Zn189 1.977 . S
O198 C204 1.272 . S
O199 Zn189 1.910 . S
O199 C205 1.231 . S
C200 O184 1.225 . S
C200 O206 1.298 . S
C201 O190 1.226 . S
C201 O191 1.307 . S
C202 O194 1.303 . S
C202 O195 1.247 . S
C203 O192 1.253 . S
C203 O193 1.283 1_545 S
C204 O196 1.304 . S
C204 O198 1.272 . S
C205 O197 1.311 . S
C205 O199 1.231 . S
O206 Zn188 1.953 . S
O206 C200 1.298 . S
O207 Zn208 1.953 . S
O207 C223 1.225 . S
Zn208 O207 1.953 . S
Zn208 O209 1.938 1_554 S
Zn208 O215 1.919 . S
Zn208 O220 1.924 . S
O209 Zn208 1.938 1_556 S
O209 Zn210 1.918 1_556 S
O209 Zn211 1.960 . S
O209 Zn212 1.950 . S
Zn210 O209 1.918 1_554 S
Zn210 O213 1.933 . S
Zn210 O216 1.941 . S
Zn210 O217 1.965 . S
Zn211 O209 1.960 . S
Zn211 O218 1.938 . S
Zn211 O219 1.906 . S
Zn211 O229 1.953 . S
Zn212 O209 1.950 . S
Zn212 O214 1.932 1_565 S
Zn212 O221 1.977 . S
Zn212 O222 1.910 . S
O213 Zn210 1.933 . S
O213 C224 1.226 1_564 S
O214 Zn212 1.932 1_545 S
O214 C224 1.307 . S
O215 Zn208 1.919 . S
O215 C226 1.253 . S
O216 Zn210 1.941 . S
O216 C226 1.283 . S
O217 Zn210 1.965 . S
O217 C225 1.303 1_554 S
O218 Zn211 1.938 . S
O218 C225 1.247 . S
O219 Zn211 1.906 . S
O219 C227 1.304 . S
O220 Zn208 1.924 . S
O220 C228 1.311 . S
O221 Zn212 1.977 . S
O221 C227 1.272 . S
O222 Zn212 1.910 . S
O222 C228 1.231 1_556 S
C223 O207 1.225 . S
C223 O229 1.298 1_554 S
C224 O213 1.226 1_546 S
C224 O214 1.307 . S
C225 O217 1.303 1_556 S
C225 O218 1.247 . S
C226 O215 1.253 . S
C226 O216 1.283 . S
C227 O219 1.304 . S
C227 O221 1.272 . S
C228 O220 1.311 . S
C228 O222 1.231 1_554 S
O229 Zn211 1.953 . S
O229 C223 1.298 1_556 S
O230 Zn231 1.953 . S
O230 C246 1.225 . S
Zn231 O230 1.953 . S
Zn231 O232 1.949 . S
Zn231 O238 1.919 . S
Zn231 O243 1.924 . S
O232 Zn231 1.949 . S
O232 Zn233 1.923 1_565 S
O232 Zn234 1.950 . S
O232 Zn235 1.945 . S
Zn233 O232 1.923 1_545 S
Zn233 O236 1.933 . S
Zn233 O239 1.941 . S
Zn233 O240 1.965 . S
Zn234 O232 1.950 . S
Zn234 O241 1.938 1_565 S
Zn234 O242 1.906 . S
Zn234 O252 1.953 . S
Zn235 O232 1.945 . S
Zn235 O237 1.932 1_565 S
Zn235 O244 1.977 . S
Zn235 O245 1.910 . S
O236 Zn233 1.933 . S
O236 C247 1.226 . S
O237 Zn235 1.932 1_545 S
O237 C247 1.307 . S
O238 Zn231 1.919 . S
O238 C249 1.253 . S
O239 Zn233 1.941 . S
O239 C249 1.283 1_545 S
O240 Zn233 1.965 . S
O240 C248 1.303 . S
O241 Zn234 1.938 1_545 S
O241 C248 1.247 . S
O242 Zn234 1.906 . S
O242 C250 1.304 . S
O243 Zn231 1.924 . S
O243 C251 1.311 . S
O244 Zn235 1.977 . S
O244 C250 1.272 . S
O245 Zn235 1.910 . S
O245 C251 1.231 . S
C246 O230 1.225 . S
C246 O252 1.298 . S
C247 O236 1.226 . S
C247 O237 1.307 . S
C248 O240 1.303 . S
C248 O241 1.247 . S
C249 O238 1.253 . S
C249 O239 1.283 1_565 S
C250 O242 1.304 . S
C250 O244 1.272 . S
C251 O243 1.311 . S
C251 O245 1.231 . S
O252 Zn234 1.953 . S
O252 C246 1.298 . S
O253 Zn254 1.953 . S
O253 C269 1.225 . S
Zn254 O253 1.953 . S
Zn254 O255 1.949 . S
Zn254 O261 1.919 . S
Zn254 O266 1.924 . S
O255 Zn254 1.949 . S
O255 Zn256 1.923 . S
O255 Zn257 1.950 . S
O255 Zn258 1.945 . S
Zn256 O255 1.923 . S
Zn256 O259 1.933 . S
Zn256 O262 1.941 . S
Zn256 O263 1.965 . S
Zn257 O255 1.950 . S
Zn257 O264 1.938 . S
Zn257 O265 1.906 . S
Zn257 O275 1.953 . S
Zn258 O255 1.945 . S
Zn258 O260 1.932 1_545 S
Zn258 O267 1.977 . S
Zn258 O268 1.910 . S
O259 Zn256 1.933 . S
O259 C270 1.217 1_545 S
O260 Zn258 1.932 1_565 S
O260 C270 1.309 . S
O261 Zn254 1.919 . S
O261 C272 1.253 . S
O262 Zn256 1.941 . S
O262 C272 1.283 . S
O263 Zn256 1.965 . S
O263 C271 1.303 . S
O264 Zn257 1.938 . S
O264 C271 1.247 . S
O265 Zn257 1.906 . S
O265 C273 1.304 . S
O266 Zn254 1.924 . S
O266 C274 1.311 . S
O267 Zn258 1.977 . S
O267 C273 1.272 . S
O268 Zn258 1.910 . S
O268 C274 1.231 . S
C269 O253 1.225 . S
C269 O275 1.298 . S
C270 O259 1.217 1_565 S
C270 O260 1.309 . S
C271 O263 1.303 . S
C271 O264 1.247 . S
C272 O261 1.253 . S
C272 O262 1.283 . S
C273 O265 1.304 . S
C273 O267 1.272 . S
C274 O266 1.311 . S
C274 O268 1.231 . S
O275 Zn257 1.953 . S
O275 C269 1.298 . S
O276 Zn277 1.953 . S
O276 C292 1.225 . S
Zn277 O276 1.953 . S
Zn277 O278 1.949 . S
Zn277 O284 1.919 . S
Zn277 O289 1.924 . S
O278 Zn277 1.949 . S
O278 Zn279 1.923 1_565 S
O278 Zn280 1.950 . S
O278 Zn281 1.945 . S
Zn279 O278 1.923 1_545 S
Zn279 O282 1.933 . S
Zn279 O285 1.941 . S
Zn279 O286 1.965 . S
Zn280 O278 1.950 . S
Zn280 O287 1.938 1_565 S
Zn280 O288 1.906 . S
Zn280 O298 1.953 . S
Zn281 O278 1.945 . S
Zn281 O283 1.932 1_565 S
Zn281 O290 1.977 . S
Zn281 O291 1.910 . S
O282 Zn279 1.933 . S
O282 C293 1.226 . S
O283 Zn281 1.932 1_545 S
O283 C293 1.307 . S
O284 Zn277 1.919 . S
O284 C295 1.253 . S
O285 Zn279 1.941 . S
O285 C295 1.283 1_545 S
O286 Zn279 1.965 . S
O286 C294 1.303 . S
O287 Zn280 1.938 1_545 S
O287 C294 1.247 . S
O288 Zn280 1.906 . S
O288 C296 1.304 . S
O289 Zn277 1.924 . S
O289 C297 1.311 . S
O290 Zn281 1.977 . S
O290 C296 1.272 . S
O291 Zn281 1.910 . S
O291 C297 1.231 . S
C292 O276 1.225 . S
C292 O298 1.298 . S
C293 O282 1.226 . S
C293 O283 1.307 . S
C294 O286 1.303 . S
C294 O287 1.247 . S
C295 O284 1.253 . S
C295 O285 1.283 1_565 S
C296 O288 1.304 . S
C296 O290 1.272 . S
C297 O289 1.311 . S
C297 O291 1.231 . S
O298 Zn280 1.953 . S
O298 C292 1.298 . S
O299 Zn300 1.953 . S
O299 C315 1.225 . S
Zn300 O299 1.953 . S
Zn300 O301 1.938 1_556 S
Zn300 O307 1.919 . S
Zn300 O312 1.924 . S
O301 Zn300 1.938 1_554 S
O301 Zn302 1.918 1_554 S
O301 Zn303 1.960 . S
O301 Zn304 1.950 . S
Zn302 O301 1.918 1_556 S
Zn302 O305 1.933 . S
Zn302 O308 1.941 . S
Zn302 O309 1.965 . S
Zn303 O301 1.960 . S
Zn303 O310 1.938 . S
Zn303 O311 1.906 . S
Zn303 O321 1.953 . S
Zn304 O301 1.950 . S
Zn304 O306 1.932 1_545 S
Zn304 O313 1.977 . S
Zn304 O314 1.910 . S
O305 Zn302 1.933 . S
O305 C316 1.226 1_546 S
O306 Zn304 1.932 1_565 S
O306 C316 1.307 . S
O307 Zn300 1.919 . S
O307 C318 1.253 . S
O308 Zn302 1.941 . S
O308 C318 1.283 . S
O309 Zn302 1.965 . S
O309 C317 1.303 1_556 S
O310 Zn303 1.938 . S
O310 C317 1.247 . S
O311 Zn303 1.906 . S
O311 C319 1.304 . S
O312 Zn300 1.924 . S
O312 C320 1.311 . S
O313 Zn304 1.977 . S
O313 C319 1.272 . S
O314 Zn304 1.910 . S
O314 C320 1.231 1_554 S
C315 O299 1.225 . S
C315 O321 1.298 1_556 S
C316 O305 1.226 1_564 S
C316 O306 1.307 . S
C317 O309 1.303 1_554 S
C317 O310 1.247 . S
C318 O307 1.253 . S
C318 O308 1.283 . S
C319 O311 1.304 . S
C319 O313 1.272 . S
C320 O312 1.311 . S
C320 O314 1.231 1_556 S
O321 Zn303 1.953 . S
O321 C315 1.298 1_554 S
O322 Zn323 1.953 . S
O322 C338 1.225 . S
Zn323 O322 1.953 . S
Zn323 O324 1.949 . S
Zn323 O330 1.919 . S
Zn323 O335 1.924 . S
O324 Zn323 1.949 . S
O324 Zn325 1.923 1_545 S
O324 Zn326 1.950 . S
O324 Zn327 1.945 . S
Zn325 O324 1.923 1_565 S
Zn325 O328 1.933 . S
Zn325 O331 1.941 . S
Zn325 O332 1.965 . S
Zn326 O324 1.950 . S
Zn326 O333 1.938 1_545 S
Zn326 O334 1.906 . S
Zn326 O344 1.953 . S
Zn327 O324 1.945 . S
Zn327 O329 1.932 1_545 S
Zn327 O336 1.977 . S
Zn327 O337 1.910 . S
O328 Zn325 1.933 . S
O328 C339 1.226 . S
O329 Zn327 1.932 1_565 S
O329 C339 1.307 . S
O330 Zn323 1.919 . S
O330 C341 1.253 . S
O331 Zn325 1.941 . S
O331 C341 1.283 1_565 S
O332 Zn325 1.965 . S
O332 C340 1.303 . S
O333 Zn326 1.938 1_565 S
O333 C340 1.247 . S
O334 Zn326 1.906 . S
O334 C342 1.304 . S
O335 Zn323 1.924 . S
O335 C343 1.311 . S
O336 Zn327 1.977 . S
O336 C342 1.272 . S
O337 Zn327 1.910 . S
O337 C343 1.231 . S
C338 O322 1.225 . S
C338 O344 1.298 . S
C339 O328 1.226 . S
C339 O329 1.307 . S
C340 O332 1.303 . S
C340 O333 1.247 . S
C341 O330 1.253 . S
C341 O331 1.283 1_545 S
C342 O334 1.304 . S
C342 O336 1.272 . S
C343 O335 1.311 . S
C343 O337 1.231 . S
O344 Zn326 1.953 . S
O344 C338 1.298 . S
O345 Zn346 1.953 . S
O345 C361 1.225 . S
Zn346 O345 1.953 . S
Zn346 O347 1.949 . S
Zn346 O353 1.919 . S
Zn346 O358 1.924 . S
O347 Zn346 1.949 . S
O347 Zn348 1.923 . S
O347 Zn349 1.950 . S
O347 Zn350 1.945 . S
Zn348 O347 1.923 . S
Zn348 O351 1.933 . S
Zn348 O354 1.941 . S
Zn348 O355 1.965 . S
Zn349 O347 1.950 . S
Zn349 O356 1.938 . S
Zn349 O357 1.906 . S
Zn349 O367 1.953 . S
Zn350 O347 1.945 . S
Zn350 O352 1.932 1_565 S
Zn350 O359 1.977 . S
Zn350 O360 1.910 . S
O351 Zn348 1.933 . S
O351 C362 1.217 1_565 S
O352 Zn350 1.932 1_545 S
O352 C362 1.309 . S
O353 Zn346 1.919 . S
O353 C364 1.253 . S
O354 Zn348 1.941 . S
O354 C364 1.283 . S
O355 Zn348 1.965 . S
O355 C363 1.303 . S
O356 Zn349 1.938 . S
O356 C363 1.247 . S
O357 Zn349 1.906 . S
O357 C365 1.304 . S
O358 Zn346 1.924 . S
O358 C366 1.311 . S
O359 Zn350 1.977 . S
O359 C365 1.272 . S
O360 Zn350 1.910 . S
O360 C366 1.231 . S
C361 O345 1.225 . S
C361 O367 1.298 . S
C362 O351 1.217 1_545 S
C362 O352 1.309 . S
C363 O355 1.303 . S
C363 O356 1.247 . S
C364 O353 1.253 . S
C364 O354 1.283 . S
C365 O357 1.304 . S
C365 O359 1.272 . S
C366 O358 1.311 . S
C366 O360 1.231 . S
O367 Zn349 1.953 . S
O367 C361 1.298 . S
H368 C376 0.950 . S
H369 C381 0.950 . S
H370 C378 0.950 . S
H371 C380 0.950 . S
H372 C382 0.950 . S
H373 C384 0.950 . S
H374 C386 0.950 . S
H375 C387 0.950 . S
C376 H368 0.950 . S
C376 C377 1.386 . S
C376 C378 1.391 . S
C377 C376 1.386 . S
C377 C381 1.393 . S
C378 H370 0.950 . S
C378 C376 1.391 . S
C378 C379 1.400 . S
C379 C378 1.400 . S
C379 C380 1.398 . S
C379 C385 1.491 . S
C380 H371 0.950 . S
C380 C379 1.398 . S
C380 C381 1.391 . S
C381 H369 0.950 . S
C381 C377 1.393 . S
C381 C380 1.391 . S
C382 H372 0.950 . S
C382 C383 1.386 . S
C382 C384 1.391 . S
C383 C382 1.386 . S
C383 C387 1.393 . S
C384 H373 0.950 . S
C384 C382 1.391 . S
C384 C385 1.400 . S
C385 C379 1.491 . S
C385 C384 1.400 . S
C385 C386 1.398 . S
C386 H374 0.950 . S
C386 C385 1.398 . S
C386 C387 1.391 . S
C387 H375 0.950 . S
C387 C383 1.393 . S
C387 C386 1.391 . S
H388 C396 0.950 . S
H389 C401 0.950 . S
H390 C398 0.950 . S
H391 C400 0.950 . S
H392 C402 0.950 . S
H393 C404 0.950 . S
H394 C406 0.950 . S
H395 C407 0.950 . S
C396 H388 0.950 . S
C396 C397 1.386 . S
C396 C398 1.391 . S
C397 C396 1.386 . S
C397 C401 1.393 . S
C398 H390 0.950 . S
C398 C396 1.391 . S
C398 C399 1.400 . S
C399 C398 1.400 . S
C399 C400 1.398 . S
C399 C405 1.491 . S
C400 H391 0.950 . S
C400 C399 1.398 . S
C400 C401 1.391 . S
C401 H389 0.950 . S
C401 C397 1.393 . S
C401 C400 1.391 . S
C402 H392 0.950 . S
C402 C403 1.386 . S
C402 C404 1.391 . S
C403 C402 1.386 . S
C403 C407 1.393 . S
C404 H393 0.950 . S
C404 C402 1.391 . S
C404 C405 1.400 . S
C405 C399 1.491 . S
C405 C404 1.400 . S
C405 C406 1.398 . S
C406 H394 0.950 . S
C406 C405 1.398 . S
C406 C407 1.391 . S
C407 H395 0.950 . S
C407 C403 1.393 . S
C407 C406 1.391 . S
H408 C416 0.950 . S
H409 C421 0.950 . S
H410 C418 0.950 . S
H411 C420 0.950 . S
H412 C422 0.950 . S
H413 C424 0.950 . S
H414 C426 0.950 . S
H415 C427 0.950 . S
C416 H408 0.950 . S
C416 C417 1.386 . S
C416 C418 1.391 . S
C417 C416 1.386 . S
C417 C421 1.393 . S
C418 H410 0.950 . S
C418 C416 1.391 . S
C418 C419 1.400 . S
C419 C418 1.400 . S
C419 C420 1.398 . S
C419 C425 1.491 . S
C420 H411 0.950 . S
C420 C419 1.398 . S
C420 C421 1.391 . S
C421 H409 0.950 . S
C421 C417 1.393 . S
C421 C420 1.391 . S
C422 H412 0.950 . S
C422 C423 1.386 . S
C422 C424 1.391 1_655 S
C423 C422 1.386 . S
C423 C427 1.393 . S
C424 H413 0.950 . S
C424 C422 1.391 1_455 S
C424 C425 1.400 . S
C425 C419 1.491 . S
C425 C424 1.400 . S
C425 C426 1.398 . S
C426 H414 0.950 . S
C426 C425 1.398 . S
C426 C427 1.391 1_455 S
C427 H415 0.950 . S
C427 C423 1.393 . S
C427 C426 1.391 1_655 S
H428 C436 0.950 . S
H429 C441 0.950 . S
H430 C438 0.950 . S
H431 C440 0.950 . S
H432 C442 0.950 . S
H433 C444 0.950 . S
H434 C446 0.950 . S
H435 C447 0.950 . S
C436 H428 0.950 . S
C436 C437 1.386 . S
C436 C438 1.391 . S
C437 C436 1.386 . S
C437 C441 1.393 1_554 S
C438 H430 0.950 . S
C438 C436 1.391 . S
C438 C439 1.400 . S
C439 C438 1.400 . S
C439 C440 1.398 1_554 S
C439 C445 1.490 . S
C440 H431 0.950 . S
C440 C439 1.398 1_556 S
C440 C441 1.391 . S
C441 H429 0.950 . S
C441 C437 1.393 1_556 S
C441 C440 1.391 . S
C442 H432 0.950 . S
C442 C443 1.386 . S
C442 C444 1.391 . S
C443 C442 1.386 . S
C443 C447 1.393 1_556 S
C444 H433 0.950 . S
C444 C442 1.391 . S
C444 C445 1.402 1_556 S
C445 C439 1.490 . S
C445 C444 1.402 1_554 S
C445 C446 1.397 . S
C446 H434 0.950 . S
C446 C445 1.397 . S
C446 C447 1.391 . S
C447 H435 0.950 . S
C447 C443 1.393 1_554 S
C447 C446 1.391 . S
H448 C456 0.950 . S
H449 C461 0.950 . S
H450 C458 0.950 . S
H451 C460 0.950 . S
H452 C462 0.950 . S
H453 C464 0.950 . S
H454 C466 0.950 . S
H455 C467 0.950 . S
C456 H448 0.950 . S
C456 C457 1.386 . S
C456 C458 1.391 . S
C457 C456 1.386 . S
C457 C461 1.393 . S
C458 H450 0.950 . S
C458 C456 1.391 . S
C458 C459 1.400 . S
C459 C458 1.400 . S
C459 C460 1.398 . S
C459 C465 1.491 . S
C460 H451 0.950 . S
C460 C459 1.398 . S
C460 C461 1.391 . S
C461 H449 0.950 . S
C461 C457 1.393 . S
C461 C460 1.391 . S
C462 H452 0.950 . S
C462 C463 1.386 . S
C462 C464 1.391 . S
C463 C462 1.386 . S
C463 C467 1.393 . S
C464 H453 0.950 . S
C464 C462 1.391 . S
C464 C465 1.400 . S
C465 C459 1.491 . S
C465 C464 1.400 . S
C465 C466 1.398 . S
C466 H454 0.950 . S
C466 C465 1.398 . S
C466 C467 1.391 . S
C467 H455 0.950 . S
C467 C463 1.393 . S
C467 C466 1.391 . S
H468 C476 0.950 . S
H469 C481 0.950 . S
H470 C478 0.950 . S
H471 C480 0.950 . S
H472 C482 0.950 . S
H473 C484 0.950 . S
H474 C486 0.950 . S
H475 C487 0.950 . S
C476 H468 0.950 . S
C476 C477 1.386 . S
C476 C478 1.391 . S
C477 C476 1.386 . S
C477 C481 1.393 . S
C478 H470 0.950 . S
C478 C476 1.391 . S
C478 C479 1.400 . S
C479 C478 1.400 . S
C479 C480 1.398 . S
C479 C485 1.491 . S
C480 H471 0.950 . S
C480 C479 1.398 . S
C480 C481 1.391 . S
C481 H469 0.950 . S
C481 C477 1.393 . S
C481 C480 1.391 . S
C482 H472 0.950 . S
C482 C483 1.386 . S
C482 C484 1.391 . S
C483 C482 1.386 . S
C483 C487 1.393 . S
C484 H473 0.950 . S
C484 C482 1.391 . S
C484 C485 1.400 . S
C485 C479 1.491 . S
C485 C484 1.400 . S
C485 C486 1.398 . S
C486 H474 0.950 . S
C486 C485 1.398 . S
C486 C487 1.391 . S
C487 H475 0.950 . S
C487 C483 1.393 . S
C487 C486 1.391 . S
H488 C496 0.950 . S
H489 C501 0.950 . S
H490 C498 0.950 . S
H491 C500 0.950 . S
H492 C502 0.950 . S
H493 C504 0.950 . S
H494 C506 0.950 . S
H495 C507 0.950 . S
C496 H488 0.950 . S
C496 C497 1.386 . S
C496 C498 1.391 . S
C497 C496 1.386 . S
C497 C501 1.393 . S
C498 H490 0.950 . S
C498 C496 1.391 . S
C498 C499 1.400 . S
C499 C498 1.400 . S
C499 C500 1.398 . S
C499 C505 1.491 . S
C500 H491 0.950 . S
C500 C499 1.398 . S
C500 C501 1.391 . S
C501 H489 0.950 . S
C501 C497 1.393 . S
C501 C500 1.391 . S
C502 H492 0.950 . S
C502 C503 1.386 . S
C502 C504 1.391 1_455 S
C503 C502 1.386 . S
C503 C507 1.393 . S
C504 H493 0.950 . S
C504 C502 1.391 1_655 S
C504 C505 1.400 . S
C505 C499 1.491 . S
C505 C504 1.400 . S
C505 C506 1.398 . S
C506 H494 0.950 . S
C506 C505 1.398 . S
C506 C507 1.391 1_655 S
C507 H495 0.950 . S
C507 C503 1.393 . S
C507 C506 1.391 1_455 S
H508 C516 0.950 . S
H509 C521 0.950 . S
H510 C518 0.950 . S
H511 C520 0.950 . S
H512 C522 0.957 . S
H513 C524 0.950 . S
H514 C526 0.950 . S
H515 C527 0.950 . S
C516 H508 0.950 . S
C516 C517 1.386 1_556 S
C516 C518 1.391 . S
C517 C516 1.386 1_554 S
C517 C521 1.393 . S
C518 H510 0.950 . S
C518 C516 1.391 . S
C518 C519 1.401 . S
C519 C518 1.401 . S
C519 C520 1.397 1_556 S
C519 C525 1.491 . S
C520 H511 0.950 . S
C520 C519 1.397 1_554 S
C520 C521 1.391 . S
C521 H509 0.950 . S
C521 C517 1.393 . S
C521 C520 1.391 . S
C522 H512 0.957 . S
C522 C523 1.378 1_554 S
C522 C524 1.394 . S
C523 C522 1.378 1_556 S
C523 C527 1.393 . S
C524 H513 0.950 . S
C524 C522 1.394 . S
C524 C525 1.400 1_554 S
C525 C519 1.491 . S
C525 C524 1.400 1_556 S
C525 C526 1.398 . S
C526 H514 0.950 . S
C526 C525 1.398 . S
C526 C527 1.391 . S
C527 H515 0.950 . S
C527 C523 1.393 . S
C527 C526 1.391 . S
H528 C536 0.950 . S
H529 C541 0.950 . S
H530 C538 0.950 . S
H531 C540 0.950 . S
H532 C542 0.950 . S
H533 C544 0.950 . S
H534 C546 0.950 . S
H535 C547 0.950 . S
C536 H528 0.950 . S
C536 C537 1.386 . S
C536 C538 1.391 . S
C537 C536 1.386 . S
C537 C541 1.393 . S
C538 H530 0.950 . S
C538 C536 1.391 . S
C538 C539 1.400 . S
C539 C538 1.400 . S
C539 C540 1.398 . S
C539 C545 1.491 . S
C540 H531 0.950 . S
C540 C539 1.398 . S
C540 C541 1.391 . S
C541 H529 0.950 . S
C541 C537 1.393 . S
C541 C540 1.391 . S
C542 H532 0.950 . S
C542 C543 1.386 . S
C542 C544 1.391 1_455 S
C543 C542 1.386 . S
C543 C547 1.393 . S
C544 H533 0.950 . S
C544 C542 1.391 1_655 S
C544 C545 1.400 . S
C545 C539 1.491 . S
C545 C544 1.400 . S
C545 C546 1.398 . S
C546 H534 0.950 . S
C546 C545 1.398 . S
C546 C547 1.391 1_655 S
C547 H535 0.950 . S
C547 C543 1.393 . S
C547 C546 1.391 1_455 S
H548 C556 0.950 . S
H549 C561 0.950 . S
H550 C558 0.950 . S
H551 C560 0.950 . S
H552 C562 0.950 . S
H553 C564 0.950 . S
H554 C566 0.950 . S
H555 C567 0.950 . S
C556 H548 0.950 . S
C556 C557 1.386 . S
C556 C558 1.391 . S
C557 C556 1.386 . S
C557 C561 1.393 1_556 S
C558 H550 0.950 . S
C558 C556 1.391 . S
C558 C559 1.389 1_556 S
C559 C558 1.389 1_554 S
C559 C560 1.408 . S
C559 C565 1.492 . S
C560 H551 0.950 . S
C560 C559 1.408 . S
C560 C561 1.391 . S
C561 H549 0.950 . S
C561 C557 1.393 1_554 S
C561 C560 1.391 . S
C562 H552 0.950 . S
C562 C563 1.386 . S
C562 C564 1.391 . S
C563 C562 1.386 . S
C563 C567 1.393 1_554 S
C564 H553 0.950 . S
C564 C562 1.391 . S
C564 C565 1.400 . S
C565 C559 1.492 . S
C565 C564 1.400 . S
C565 C566 1.398 1_554 S
C566 H554 0.950 . S
C566 C565 1.398 1_556 S
C566 C567 1.391 . S
C567 H555 0.950 . S
C567 C563 1.393 1_556 S
C567 C566 1.391 . S
H568 C576 0.950 1_565 S
H569 C581 0.950 . S
H570 C578 0.950 1_565 S
H571 C580 0.950 . S
H572 C582 0.950 . S
H573 C584 0.950 . S
H574 C586 0.950 1_565 S
H575 C587 0.950 1_565 S
C576 H568 0.950 1_545 S
C576 C577 1.386 . S
C576 C578 1.391 . S
C577 C576 1.386 . S
C577 C581 1.393 . S
C578 H570 0.950 1_545 S
C578 C576 1.391 . S
C578 C579 1.400 . S
C579 C578 1.400 . S
C579 C580 1.398 . S
C579 C585 1.491 . S
C580 H571 0.950 . S
C580 C579 1.398 . S
C580 C581 1.391 . S
C581 H569 0.950 . S
C581 C577 1.393 . S
C581 C580 1.391 . S
C582 H572 0.950 . S
C582 C583 1.386 . S
C582 C584 1.391 . S
C583 C582 1.386 . S
C583 C587 1.393 . S
C584 H573 0.950 . S
C584 C582 1.391 . S
C584 C585 1.400 . S
C585 C579 1.491 . S
C585 C584 1.400 . S
C585 C586 1.398 . S
C586 H574 0.950 1_545 S
C586 C585 1.398 . S
C586 C587 1.391 . S
C587 H575 0.950 1_545 S
C587 C583 1.393 . S
C587 C586 1.391 . S
H588 C596 0.950 . S
H589 C601 0.950 . S
H590 C598 0.950 . S
H591 C600 0.950 . S
H592 C602 0.950 . S
H593 C604 0.950 . S
H594 C606 0.950 . S
H595 C607 0.950 . S
C596 H588 0.950 . S
C596 C597 1.386 . S
C596 C598 1.391 . S
C597 C596 1.386 . S
C597 C601 1.393 . S
C598 H590 0.950 . S
C598 C596 1.391 . S
C598 C599 1.400 . S
C599 C598 1.400 . S
C599 C600 1.398 . S
C599 C605 1.491 . S
C600 H591 0.950 . S
C600 C599 1.398 . S
C600 C601 1.391 . S
C601 H589 0.950 . S
C601 C597 1.393 . S
C601 C600 1.391 . S
C602 H592 0.950 . S
C602 C603 1.386 . S
C602 C604 1.391 . S
C603 C602 1.386 . S
C603 C607 1.393 . S
C604 H593 0.950 . S
C604 C602 1.391 . S
C604 C605 1.400 . S
C605 C599 1.491 . S
C605 C604 1.400 . S
C605 C606 1.398 . S
C606 H594 0.950 . S
C606 C605 1.398 . S
C606 C607 1.391 . S
C607 H595 0.950 . S
C607 C603 1.393 . S
C607 C606 1.391 . S
H608 C616 0.934 1_565 S
H609 C621 0.950 . S
H610 C618 0.954 . S
H611 C620 0.950 . S
H612 C622 0.950 . S
H613 C624 0.950 . S
H614 C626 0.938 1_565 S
H615 C627 0.950 . S
C616 H608 0.934 1_545 S
C616 C617 1.386 . S
C616 C618 1.391 1_655 S
C617 C616 1.386 . S
C617 C621 1.393 . S
C618 H610 0.954 . S
C618 C616 1.391 1_455 S
C618 C619 1.400 . S
C619 C618 1.400 . S
C619 C620 1.398 . S
C619 C625 1.491 . S
C620 H611 0.950 . S
C620 C619 1.398 . S
C620 C621 1.391 1_455 S
C621 H609 0.950 . S
C621 C617 1.393 . S
C621 C620 1.391 1_655 S
C622 H612 0.950 . S
C622 C623 1.386 . S
C622 C624 1.391 . S
C623 C622 1.386 . S
C623 C627 1.393 . S
C624 H613 0.950 . S
C624 C622 1.391 . S
C624 C625 1.400 . S
C625 C619 1.491 . S
C625 C624 1.400 . S
C625 C626 1.398 . S
C626 H614 0.938 1_545 S
C626 C625 1.398 . S
C626 C627 1.391 . S
C627 H615 0.950 . S
C627 C623 1.393 . S
C627 C626 1.391 . S
H628 C636 0.950 . S
H629 C641 0.950 . S
H630 C638 0.950 . S
H631 C640 0.950 . S
H632 C642 0.950 . S
H633 C644 0.950 . S
H634 C646 0.950 . S
H635 C647 0.950 . S
C636 H628 0.950 . S
C636 C637 1.386 1_556 S
C636 C638 1.391 . S
C637 C636 1.386 1_554 S
C637 C641 1.393 . S
C638 H630 0.950 . S
C638 C636 1.391 . S
C638 C639 1.411 . S
C639 C638 1.411 . S
C639 C640 1.387 1_556 S
C639 C645 1.491 . S
C640 H631 0.950 . S
C640 C639 1.387 1_554 S
C640 C641 1.391 . S
C641 H629 0.950 . S
C641 C637 1.393 . S
C641 C640 1.391 . S
C642 H632 0.950 . S
C642 C643 1.386 1_554 S
C642 C644 1.391 . S
C643 C642 1.386 1_556 S
C643 C647 1.393 . S
C644 H633 0.950 . S
C644 C642 1.391 . S
C644 C645 1.400 1_554 S
C645 C639 1.491 . S
C645 C644 1.400 1_556 S
C645 C646 1.398 . S
C646 H634 0.950 . S
C646 C645 1.398 . S
C646 C647 1.391 . S
C647 H635 0.950 . S
C647 C643 1.393 . S
C647 C646 1.391 . S
H648 C656 0.950 . S
H649 C661 0.950 . S
H650 C658 0.950 . S
H651 C660 0.950 . S
H652 C662 0.950 . S
H653 C664 0.950 . S
H654 C666 0.950 . S
H655 C667 0.950 . S
C656 H648 0.950 . S
C656 C657 1.386 . S
C656 C658 1.391 . S
C657 C656 1.386 . S
C657 C661 1.393 . S
C658 H650 0.950 . S
C658 C656 1.391 . S
C658 C659 1.400 . S
C659 C658 1.400 . S
C659 C660 1.398 . S
C659 C665 1.491 . S
C660 H651 0.950 . S
C660 C659 1.398 . S
C660 C661 1.391 . S
C661 H649 0.950 . S
C661 C657 1.393 . S
C661 C660 1.391 . S
C662 H652 0.950 . S
C662 C663 1.386 . S
C662 C664 1.391 . S
C663 C662 1.386 . S
C663 C667 1.393 . S
C664 H653 0.950 . S
C664 C662 1.391 . S
C664 C665 1.400 . S
C665 C659 1.491 . S
C665 C664 1.400 . S
C665 C666 1.398 . S
C666 H654 0.950 . S
C666 C665 1.398 . S
C666 C667 1.391 . S
C667 H655 0.950 . S
C667 C663 1.393 . S
C667 C666 1.391 . S
H668 C676 0.950 . S
H669 C681 0.950 . S
H670 C678 0.950 . S
H671 C680 0.950 . S
H672 C682 0.950 . S
H673 C684 0.950 . S
H674 C686 0.950 . S
H675 C687 0.950 . S
C676 H668 0.950 . S
C676 C677 1.386 . S
C676 C678 1.391 . S
C677 C676 1.386 . S
C677 C681 1.393 . S
C678 H670 0.950 . S
C678 C676 1.391 . S
C678 C679 1.400 . S
C679 C678 1.400 . S
C679 C680 1.398 . S
C679 C685 1.491 . S
C680 H671 0.950 . S
C680 C679 1.398 . S
C680 C681 1.391 . S
C681 H669 0.950 . S
C681 C677 1.393 . S
C681 C680 1.391 . S
C682 H672 0.950 . S
C682 C683 1.386 . S
C682 C684 1.391 . S
C683 C682 1.386 . S
C683 C687 1.393 . S
C684 H673 0.950 . S
C684 C682 1.391 . S
C684 C685 1.400 . S
C685 C679 1.491 . S
C685 C684 1.400 . S
C685 C686 1.398 . S
C686 H674 0.950 . S
C686 C685 1.398 . S
C686 C687 1.391 . S
C687 H675 0.950 . S
C687 C683 1.393 . S
C687 C686 1.391 . S
H688 C696 0.950 . S
H689 C701 0.950 . S
H690 C698 0.950 . S
H691 C700 0.950 . S
H692 C702 0.950 . S
H693 C704 0.950 . S
H694 C706 0.950 . S
H695 C707 0.950 . S
C696 H688 0.950 . S
C696 C697 1.386 . S
C696 C698 1.391 . S
C697 C696 1.386 . S
C697 C701 1.393 . S
C698 H690 0.950 . S
C698 C696 1.391 . S
C698 C699 1.400 . S
C699 C698 1.400 . S
C699 C700 1.398 . S
C699 C705 1.491 . S
C700 H691 0.950 . S
C700 C699 1.398 . S
C700 C701 1.391 . S
C701 H689 0.950 . S
C701 C697 1.393 . S
C701 C700 1.391 . S
C702 H692 0.950 . S
C702 C703 1.386 . S
C702 C704 1.391 . S
C703 C702 1.386 . S
C703 C707 1.393 . S
C704 H693 0.950 . S
C704 C702 1.391 . S
C704 C705 1.400 . S
C705 C699 1.491 . S
C705 C704 1.400 . S
C705 C706 1.398 . S
C706 H694 0.950 . S
C706 C705 1.398 . S
C706 C707 1.391 . S
C707 H695 0.950 . S
C707 C703 1.393 . S
C707 C706 1.391 . S
H708 C716 0.950 . S
H709 C721 0.950 . S
H710 C718 0.950 . S
H711 C720 0.950 . S
H712 C722 0.950 . S
H713 C724 0.950 . S
H714 C726 0.950 . S
H715 C727 0.950 . S
C716 H708 0.950 . S
C716 C717 1.386 . S
C716 C718 1.391 . S
C717 C716 1.386 . S
C717 C721 1.393 . S
C718 H710 0.950 . S
C718 C716 1.391 . S
C718 C719 1.400 . S
C719 C718 1.400 . S
C719 C720 1.398 . S
C719 C725 1.491 1_455 S
C720 H711 0.950 . S
C720 C719 1.398 . S
C720 C721 1.391 . S
C721 H709 0.950 . S
C721 C717 1.393 . S
C721 C720 1.391 . S
C722 H712 0.950 . S
C722 C723 1.386 . S
C722 C724 1.391 . S
C723 C722 1.386 . S
C723 C727 1.393 . S
C724 H713 0.950 . S
C724 C722 1.391 . S
C724 C725 1.400 . S
C725 C719 1.491 1_655 S
C725 C724 1.400 . S
C725 C726 1.398 . S
C726 H714 0.950 . S
C726 C725 1.398 . S
C726 C727 1.391 . S
C727 H715 0.950 . S
C727 C723 1.393 . S
C727 C726 1.391 . S
H728 C736 0.950 . S
H729 C741 0.950 . S
H730 C738 0.950 . S
H731 C740 0.950 . S
H732 C742 0.950 . S
H733 C744 0.950 . S
H734 C746 0.950 . S
H735 C747 0.950 . S
C736 H728 0.950 . S
C736 C737 1.386 . S
C736 C738 1.391 . S
C737 C736 1.386 . S
C737 C741 1.393 . S
C738 H730 0.950 . S
C738 C736 1.391 . S
C738 C739 1.400 . S
C739 C738 1.400 . S
C739 C740 1.398 . S
C739 C745 1.491 . S
C740 H731 0.950 . S
C740 C739 1.398 . S
C740 C741 1.391 . S
C741 H729 0.950 . S
C741 C737 1.393 . S
C741 C740 1.391 . S
C742 H732 0.950 . S
C742 C743 1.386 . S
C742 C744 1.391 . S
C743 C742 1.386 . S
C743 C747 1.393 . S
C744 H733 0.950 . S
C744 C742 1.391 . S
C744 C745 1.400 . S
C745 C739 1.491 . S
C745 C744 1.400 . S
C745 C746 1.398 . S
C746 H734 0.950 . S
C746 C745 1.398 . S
C746 C747 1.391 . S
C747 H735 0.950 . S
C747 C743 1.393 . S
C747 C746 1.391 . S
H748 C756 0.950 . S
H749 C761 0.950 . S
H750 C758 0.950 . S
H751 C760 0.950 . S
H752 C762 0.950 . S
H753 C764 0.950 . S
H754 C766 0.950 . S
H755 C767 0.950 . S
C756 H748 0.950 . S
C756 C757 1.386 1_554 S
C756 C758 1.391 . S
C757 C756 1.386 1_556 S
C757 C761 1.393 . S
C758 H750 0.950 . S
C758 C756 1.391 . S
C758 C759 1.400 1_554 S
C759 C758 1.400 1_556 S
C759 C760 1.398 . S
C759 C765 1.487 1_556 S
C760 H751 0.950 . S
C760 C759 1.398 . S
C760 C761 1.391 . S
C761 H749 0.950 . S
C761 C757 1.393 . S
C761 C760 1.391 . S
C762 H752 0.950 . S
C762 C763 1.386 1_556 S
C762 C764 1.391 . S
C763 C762 1.386 1_554 S
C763 C767 1.393 . S
C764 H753 0.950 . S
C764 C762 1.391 . S
C764 C765 1.370 1_556 S
C765 C759 1.487 1_554 S
C765 C764 1.370 1_554 S
C765 C766 1.433 . S
C766 H754 0.950 . S
C766 C765 1.433 . S
C766 C767 1.391 . S
C767 H755 0.950 . S
C767 C763 1.393 . S
C767 C766 1.391 . S
H768 C776 0.950 . S
H769 C781 0.950 . S
H770 C778 0.950 . S
H771 C780 0.950 . S
H772 C782 0.950 . S
H773 C784 0.950 . S
H774 C786 0.950 . S
H775 C787 0.950 . S
C776 H768 0.950 . S
C776 C777 1.386 . S
C776 C778 1.391 . S
C777 C776 1.386 . S
C777 C781 1.393 . S
C778 H770 0.950 . S
C778 C776 1.391 . S
C778 C779 1.400 . S
C779 C778 1.400 . S
C779 C780 1.398 . S
C779 C785 1.491 . S
C780 H771 0.950 . S
C780 C779 1.398 . S
C780 C781 1.391 . S
C781 H769 0.950 . S
C781 C777 1.393 . S
C781 C780 1.391 . S
C782 H772 0.950 . S
C782 C783 1.386 . S
C782 C784 1.391 . S
C783 C782 1.386 . S
C783 C787 1.393 . S
C784 H773 0.950 . S
C784 C782 1.391 . S
C784 C785 1.400 . S
C785 C779 1.491 . S
C785 C784 1.400 . S
C785 C786 1.398 . S
C786 H774 0.950 . S
C786 C785 1.398 . S
C786 C787 1.391 . S
C787 H775 0.950 . S
C787 C783 1.393 . S
C787 C786 1.391 . S
H788 C796 0.950 . S
H789 C801 0.950 . S
H790 C798 0.950 . S
H791 C800 0.950 . S
H792 C802 0.950 . S
H793 C804 0.950 . S
H794 C806 0.950 . S
H795 C807 0.950 . S
C796 H788 0.950 . S
C796 C797 1.386 . S
C796 C798 1.391 . S
C797 C796 1.386 . S
C797 C801 1.393 . S
C798 H790 0.950 . S
C798 C796 1.391 . S
C798 C799 1.400 . S
C799 C798 1.400 . S
C799 C800 1.398 . S
C799 C805 1.491 . S
C800 H791 0.950 . S
C800 C799 1.398 . S
C800 C801 1.391 . S
C801 H789 0.950 . S
C801 C797 1.393 . S
C801 C800 1.391 . S
C802 H792 0.950 . S
C802 C803 1.386 . S
C802 C804 1.391 . S
C803 C802 1.386 . S
C803 C807 1.393 . S
C804 H793 0.950 . S
C804 C802 1.391 . S
C804 C805 1.400 . S
C805 C799 1.491 . S
C805 C804 1.400 . S
C805 C806 1.398 . S
C806 H794 0.950 . S
C806 C805 1.398 . S
C806 C807 1.391 . S
C807 H795 0.950 . S
C807 C803 1.393 . S
C807 C806 1.391 . S
H808 C816 0.950 . S
H809 C821 0.950 . S
H810 C818 0.950 . S
H811 C820 0.950 . S
H812 C822 0.950 . S
H813 C824 0.950 . S
H814 C826 0.950 . S
H815 C827 0.950 . S
C816 H808 0.950 . S
C816 C817 1.386 1_556 S
C816 C818 1.391 . S
C817 C816 1.386 1_554 S
C817 C821 1.393 1_565 S
C818 H810 0.950 . S
C818 C816 1.391 . S
C818 C819 1.400 1_556 S
C819 C818 1.400 1_554 S
C819 C820 1.398 1_565 S
C819 C825 1.491 1_564 S
C820 H811 0.950 . S
C820 C819 1.398 1_545 S
C820 C821 1.391 . S
C821 H809 0.950 . S
C821 C817 1.393 1_545 S
C821 C820 1.391 . S
C822 H812 0.950 . S
C822 C823 1.386 1_554 S
C822 C824 1.391 . S
C823 C822 1.386 1_556 S
C823 C827 1.393 1_545 S
C824 H813 0.950 . S
C824 C822 1.391 . S
C824 C825 1.400 1_554 S
C825 C819 1.491 1_546 S
C825 C824 1.400 1_556 S
C825 C826 1.398 1_545 S
C826 H814 0.950 . S
C826 C825 1.398 1_565 S
C826 C827 1.391 . S
C827 H815 0.950 . S
C827 C823 1.393 1_565 S
C827 C826 1.391 . S
H828 C836 0.950 . S
H829 C841 0.950 . S
H830 C838 0.950 . S
H831 C840 0.950 . S
H832 C842 0.950 . S
H833 C844 0.950 . S
H834 C846 0.950 . S
H835 C847 0.950 . S
C836 H828 0.950 . S
C836 C837 1.386 1_545 S
C836 C838 1.391 . S
C837 C836 1.386 1_565 S
C837 C841 1.393 . S
C838 H830 0.950 . S
C838 C836 1.391 . S
C838 C839 1.400 1_545 S
C839 C838 1.400 1_565 S
C839 C840 1.398 . S
C839 C845 1.491 1_465 S
C840 H831 0.950 . S
C840 C839 1.398 . S
C840 C841 1.391 . S
C841 H829 0.950 . S
C841 C837 1.393 . S
C841 C840 1.391 . S
C842 H832 0.950 . S
C842 C843 1.386 1_565 S
C842 C844 1.391 . S
C843 C842 1.386 1_545 S
C843 C847 1.393 . S
C844 H833 0.950 . S
C844 C842 1.391 . S
C844 C845 1.400 1_565 S
C845 C839 1.491 1_645 S
C845 C844 1.400 1_545 S
C845 C846 1.398 . S
C846 H834 0.950 . S
C846 C845 1.398 . S
C846 C847 1.391 . S
C847 H835 0.950 . S
C847 C843 1.393 . S
C847 C846 1.391 . S
H848 C856 0.950 . S
H849 C861 0.950 . S
H850 C858 0.950 . S
H851 C860 0.950 . S
H852 C862 0.950 . S
H853 C864 0.950 . S
H854 C866 0.950 . S
H855 C867 0.950 . S
C856 H848 0.950 . S
C856 C857 1.386 . S
C856 C858 1.391 . S
C857 C856 1.386 . S
C857 C861 1.393 . S
C858 H850 0.950 . S
C858 C856 1.391 . S
C858 C859 1.400 . S
C859 C858 1.400 . S
C859 C860 1.398 . S
C859 C865 1.491 . S
C860 H851 0.950 . S
C860 C859 1.398 . S
C860 C861 1.391 . S
C861 H849 0.950 . S
C861 C857 1.393 . S
C861 C860 1.391 . S
C862 H852 0.950 . S
C862 C863 1.386 . S
C862 C864 1.391 . S
C863 C862 1.386 . S
C863 C867 1.393 . S
C864 H853 0.950 . S
C864 C862 1.391 . S
C864 C865 1.400 . S
C865 C859 1.491 . S
C865 C864 1.400 . S
C865 C866 1.398 . S
C866 H854 0.950 . S
C866 C865 1.398 . S
C866 C867 1.391 . S
C867 H855 0.950 . S
C867 C863 1.393 . S
C867 C866 1.391 . S
H868 C876 0.950 . S
H869 C881 0.950 . S
H870 C878 0.950 . S
H871 C880 0.950 . S
H872 C882 0.950 . S
H873 C884 0.950 . S
H874 C886 0.950 . S
H875 C887 0.950 . S
C876 H868 0.950 . S
C876 C877 1.386 . S
C876 C878 1.391 . S
C877 C876 1.386 . S
C877 C881 1.393 . S
C878 H870 0.950 . S
C878 C876 1.391 . S
C878 C879 1.400 . S
C879 C878 1.400 . S
C879 C880 1.398 . S
C879 C885 1.491 . S
C880 H871 0.950 . S
C880 C879 1.398 . S
C880 C881 1.391 . S
C881 H869 0.950 . S
C881 C877 1.393 . S
C881 C880 1.391 . S
C882 H872 0.950 . S
C882 C883 1.386 . S
C882 C884 1.391 . S
C883 C882 1.386 . S
C883 C887 1.393 . S
C884 H873 0.950 . S
C884 C882 1.391 . S
C884 C885 1.400 . S
C885 C879 1.491 . S
C885 C884 1.400 . S
C885 C886 1.398 . S
C886 H874 0.950 . S
C886 C885 1.398 . S
C886 C887 1.391 . S
C887 H875 0.950 . S
C887 C883 1.393 . S
C887 C886 1.391 . S
H888 C896 0.950 . S
H889 C901 0.950 . S
H890 C898 0.950 . S
H891 C900 0.950 . S
H892 C902 0.950 . S
H893 C904 0.950 . S
H894 C906 0.950 . S
H895 C907 0.950 . S
C896 H888 0.950 . S
C896 C897 1.386 . S
C896 C898 1.391 . S
C897 C896 1.386 . S
C897 C901 1.393 . S
C898 H890 0.950 . S
C898 C896 1.391 . S
C898 C899 1.400 . S
C899 C898 1.400 . S
C899 C900 1.398 . S
C899 C905 1.491 . S
C900 H891 0.950 . S
C900 C899 1.398 . S
C900 C901 1.391 . S
C901 H889 0.950 . S
C901 C897 1.393 . S
C901 C900 1.391 . S
C902 H892 0.950 . S
C902 C903 1.386 . S
C902 C904 1.391 . S
C903 C902 1.386 . S
C903 C907 1.393 . S
C904 H893 0.950 . S
C904 C902 1.391 . S
C904 C905 1.400 . S
C905 C899 1.491 . S
C905 C904 1.400 . S
C905 C906 1.398 . S
C906 H894 0.950 . S
C906 C905 1.398 . S
C906 C907 1.391 . S
C907 H895 0.950 . S
C907 C903 1.393 . S
C907 C906 1.391 . S
H908 C916 0.950 . S
H909 C921 0.950 . S
H910 C918 0.950 . S
H911 C920 0.950 . S
H912 C922 0.950 . S
H913 C924 0.950 . S
H914 C926 0.950 . S
H915 C927 0.950 . S
C916 H908 0.950 . S
C916 C917 1.386 . S
C916 C918 1.391 . S
C917 C916 1.386 . S
C917 C921 1.393 . S
C918 H910 0.950 . S
C918 C916 1.391 . S
C918 C919 1.400 . S
C919 C918 1.400 . S
C919 C920 1.398 . S
C919 C925 1.491 . S
C920 H911 0.950 . S
C920 C919 1.398 . S
C920 C921 1.391 . S
C921 H909 0.950 . S
C921 C917 1.393 . S
C921 C920 1.391 . S
C922 H912 0.950 . S
C922 C923 1.386 . S
C922 C924 1.391 . S
C923 C922 1.386 . S
C923 C927 1.393 . S
C924 H913 0.950 . S
C924 C922 1.391 . S
C924 C925 1.400 . S
C925 C919 1.491 . S
C925 C924 1.400 . S
C925 C926 1.398 . S
C926 H914 0.950 . S
C926 C925 1.398 . S
C926 C927 1.391 . S
C927 H915 0.950 . S
C927 C923 1.393 . S
C927 C926 1.391 . S
H928 C936 0.950 . S
H929 C941 0.950 . S
H930 C938 0.950 . S
H931 C940 0.950 . S
H932 C942 0.950 . S
H933 C944 0.950 . S
H934 C946 0.950 . S
H935 C947 0.950 . S
C936 H928 0.950 . S
C936 C937 1.386 . S
C936 C938 1.391 . S
C937 C936 1.386 . S
C937 C941 1.393 . S
C938 H930 0.950 . S
C938 C936 1.391 . S
C938 C939 1.400 . S
C939 C938 1.400 . S
C939 C940 1.398 . S
C939 C945 1.491 . S
C940 H931 0.950 . S
C940 C939 1.398 . S
C940 C941 1.391 . S
C941 H929 0.950 . S
C941 C937 1.393 . S
C941 C940 1.391 . S
C942 H932 0.950 . S
C942 C943 1.386 . S
C942 C944 1.391 . S
C943 C942 1.386 . S
C943 C947 1.393 . S
C944 H933 0.950 . S
C944 C942 1.391 . S
C944 C945 1.400 . S
C945 C939 1.491 . S
C945 C944 1.400 . S
C945 C946 1.398 . S
C946 H934 0.950 . S
C946 C945 1.398 . S
C946 C947 1.391 . S
C947 H935 0.950 . S
C947 C943 1.393 . S
C947 C946 1.391 . S
H948 C956 0.950 . S
H949 C961 0.950 . S
H950 C958 0.950 . S
H951 C960 0.950 . S
H952 C962 0.950 . S
H953 C964 0.950 . S
H954 C966 0.950 . S
H955 C967 0.950 . S
C956 H948 0.950 . S
C956 C957 1.386 . S
C956 C958 1.391 . S
C957 C956 1.386 . S
C957 C961 1.393 . S
C958 H950 0.950 . S
C958 C956 1.391 . S
C958 C959 1.400 . S
C959 C958 1.400 . S
C959 C960 1.398 . S
C959 C965 1.491 . S
C960 H951 0.950 . S
C960 C959 1.398 . S
C960 C961 1.391 . S
C961 H949 0.950 . S
C961 C957 1.393 . S
C961 C960 1.391 . S
C962 H952 0.950 . S
C962 C963 1.386 . S
C962 C964 1.391 . S
C963 C962 1.386 . S
C963 C967 1.393 . S
C964 H953 0.950 . S
C964 C962 1.391 . S
C964 C965 1.400 . S
C965 C959 1.491 . S
C965 C964 1.400 . S
C965 C966 1.398 . S
C966 H954 0.950 . S
C966 C965 1.398 . S
C966 C967 1.391 . S
C967 H955 0.950 . S
C967 C963 1.393 . S
C967 C966 1.391 . S
H968 C976 0.950 . S
H969 C981 0.950 . S
H970 C978 0.950 . S
H971 C980 0.950 . S
H972 C982 0.950 . S
H973 C984 0.950 . S
H974 C986 0.950 . S
H975 C987 0.950 . S
C976 H968 0.950 . S
C976 C977 1.386 . S
C976 C978 1.391 . S
C977 C976 1.386 . S
C977 C981 1.393 . S
C978 H970 0.950 . S
C978 C976 1.391 . S
C978 C979 1.400 . S
C979 C978 1.400 . S
C979 C980 1.398 . S
C979 C985 1.491 . S
C980 H971 0.950 . S
C980 C979 1.398 . S
C980 C981 1.391 . S
C981 H969 0.950 . S
C981 C977 1.393 . S
C981 C980 1.391 . S
C982 H972 0.950 . S
C982 C983 1.386 . S
C982 C984 1.391 . S
C983 C982 1.386 . S
C983 C987 1.393 . S
C984 H973 0.950 . S
C984 C982 1.391 . S
C984 C985 1.400 . S
C985 C979 1.491 . S
C985 C984 1.400 . S
C985 C986 1.398 . S
C986 H974 0.950 . S
C986 C985 1.398 . S
C986 C987 1.391 . S
C987 H975 0.950 . S
C987 C983 1.393 . S
C987 C986 1.391 . S
H988 C996 0.950 . S
H989 C1001 0.950 . S
H990 C998 0.950 . S
H991 C1000 0.950 . S
H992 C1002 0.950 . S
H993 C1004 0.950 . S
H994 C1006 0.950 . S
H995 C1007 0.950 . S
C996 H988 0.950 . S
C996 C997 1.386 . S
C996 C998 1.391 . S
C997 C996 1.386 . S
C997 C1001 1.393 . S
C998 H990 0.950 . S
C998 C996 1.391 . S
C998 C999 1.400 . S
C999 C998 1.400 . S
C999 C1000 1.398 . S
C999 C1005 1.491 . S
C1000 H991 0.950 . S
C1000 C999 1.398 . S
C1000 C1001 1.391 . S
C1001 H989 0.950 . S
C1001 C997 1.393 . S
C1001 C1000 1.391 . S
C1002 H992 0.950 . S
C1002 C1003 1.386 . S
C1002 C1004 1.391 . S
C1003 C1002 1.386 . S
C1003 C1007 1.393 . S
C1004 H993 0.950 . S
C1004 C1002 1.391 . S
C1004 C1005 1.400 . S
C1005 C999 1.491 . S
C1005 C1004 1.400 . S
C1005 C1006 1.398 . S
C1006 H994 0.950 . S
C1006 C1005 1.398 . S
C1006 C1007 1.391 . S
C1007 H995 0.950 . S
C1007 C1003 1.393 . S
C1007 C1006 1.391 . S
H1008 C1016 0.952 . S
H1009 C1021 0.950 . S
H1010 C1018 0.950 . S
H1011 C1020 0.950 . S
H1012 C1022 0.950 . S
H1013 C1024 0.950 . S
H1014 C1026 0.950 . S
H1015 C1027 0.950 . S
C1016 H1008 0.952 . S
C1016 C1017 1.386 . S
C1016 C1018 1.391 . S
C1017 C1016 1.386 . S
C1017 C1021 1.393 . S
C1018 H1010 0.950 . S
C1018 C1016 1.391 . S
C1018 C1019 1.400 . S
C1019 C1018 1.400 . S
C1019 C1020 1.398 . S
C1019 C1025 1.491 . S
C1020 H1011 0.950 . S
C1020 C1019 1.398 . S
C1020 C1021 1.391 . S
C1021 H1009 0.950 . S
C1021 C1017 1.393 . S
C1021 C1020 1.391 . S
C1022 H1012 0.950 . S
C1022 C1023 1.386 . S
C1022 C1024 1.391 . S
C1023 C1022 1.386 . S
C1023 C1027 1.393 . S
C1024 H1013 0.950 . S
C1024 C1022 1.391 . S
C1024 C1025 1.400 . S
C1025 C1019 1.491 . S
C1025 C1024 1.400 . S
C1025 C1026 1.398 . S
C1026 H1014 0.950 . S
C1026 C1025 1.398 . S
C1026 C1027 1.391 . S
C1027 H1015 0.950 . S
C1027 C1023 1.393 . S
C1027 C1026 1.391 . S
H1028 C1036 0.950 . S
H1029 C1041 0.950 . S
H1030 C1038 0.950 . S
H1031 C1040 0.950 . S
H1032 C1042 0.950 . S
H1033 C1044 0.950 . S
H1034 C1046 0.950 . S
H1035 C1047 0.950 1_545 S
C1036 H1028 0.950 . S
C1036 C1037 1.386 . S
C1036 C1038 1.391 . S
C1037 C1036 1.386 . S
C1037 C1041 1.393 . S
C1038 H1030 0.950 . S
C1038 C1036 1.391 . S
C1038 C1039 1.400 . S
C1039 C1038 1.400 . S
C1039 C1040 1.398 . S
C1039 C1045 1.491 . S
C1040 H1031 0.950 . S
C1040 C1039 1.398 . S
C1040 C1041 1.391 . S
C1041 H1029 0.950 . S
C1041 C1037 1.393 . S
C1041 C1040 1.391 . S
C1042 H1032 0.950 . S
C1042 C1043 1.386 . S
C1042 C1044 1.391 . S
C1043 C1042 1.386 . S
C1043 C1047 1.393 . S
C1044 H1033 0.950 . S
C1044 C1042 1.391 . S
C1044 C1045 1.400 . S
C1045 C1039 1.491 . S
C1045 C1044 1.400 . S
C1045 C1046 1.398 . S
C1046 H1034 0.950 . S
C1046 C1045 1.398 . S
C1046 C1047 1.391 . S
C1047 H1035 0.950 1_565 S
C1047 C1043 1.393 . S
C1047 C1046 1.391 . S
H1048 C1056 0.950 . S
H1049 C1061 0.950 1_565 S
H1050 C1058 0.950 . S
H1051 C1060 0.950 1_565 S
H1052 C1062 0.950 . S
H1053 C1064 0.950 . S
H1054 C1066 0.950 . S
H1055 C1067 0.950 . S
C1056 H1048 0.950 . S
C1056 C1057 1.386 . S
C1056 C1058 1.391 . S
C1057 C1056 1.386 . S
C1057 C1061 1.393 . S
C1058 H1050 0.950 . S
C1058 C1056 1.391 . S
C1058 C1059 1.400 . S
C1059 C1058 1.400 . S
C1059 C1060 1.398 . S
C1059 C1065 1.491 . S
C1060 H1051 0.950 1_545 S
C1060 C1059 1.398 . S
C1060 C1061 1.391 . S
C1061 H1049 0.950 1_545 S
C1061 C1057 1.393 . S
C1061 C1060 1.391 . S
C1062 H1052 0.950 . S
C1062 C1063 1.386 1_565 S
C1062 C1064 1.391 . S
C1063 C1062 1.386 1_545 S
C1063 C1067 1.393 . S
C1064 H1053 0.950 . S
C1064 C1062 1.391 . S
C1064 C1065 1.400 1_565 S
C1065 C1059 1.491 . S
C1065 C1064 1.400 1_545 S
C1065 C1066 1.398 . S
C1066 H1054 0.950 . S
C1066 C1065 1.398 . S
C1066 C1067 1.391 . S
C1067 H1055 0.950 . S
C1067 C1063 1.393 . S
C1067 C1066 1.391 . S
H1068 C1076 0.950 . S
H1069 C1081 0.950 . S
H1070 C1078 0.950 . S
H1071 C1080 0.950 . S
H1072 C1082 0.950 . S
H1073 C1084 0.950 . S
H1074 C1086 0.950 . S
H1075 C1087 0.950 . S
C1076 H1068 0.950 . S
C1076 C1077 1.386 . S
C1076 C1078 1.391 . S
C1077 C1076 1.386 . S
C1077 C1081 1.393 . S
C1078 H1070 0.950 . S
C1078 C1076 1.391 . S
C1078 C1079 1.400 . S
C1079 C1078 1.400 . S
C1079 C1080 1.398 . S
C1079 C1085 1.491 . S
C1080 H1071 0.950 . S
C1080 C1079 1.398 . S
C1080 C1081 1.391 . S
C1081 H1069 0.950 . S
C1081 C1077 1.393 . S
C1081 C1080 1.391 . S
C1082 H1072 0.950 . S
C1082 C1083 1.386 . S
C1082 C1084 1.391 . S
C1083 C1082 1.386 . S
C1083 C1087 1.393 . S
C1084 H1073 0.950 . S
C1084 C1082 1.391 . S
C1084 C1085 1.400 . S
C1085 C1079 1.491 . S
C1085 C1084 1.400 . S
C1085 C1086 1.398 . S
C1086 H1074 0.950 . S
C1086 C1085 1.398 . S
C1086 C1087 1.391 . S
C1087 H1075 0.950 . S
C1087 C1083 1.393 . S
C1087 C1086 1.391 . S
H1088 C1096 0.950 . S
H1089 C1101 0.950 . S
H1090 C1098 0.950 . S
H1091 C1100 0.950 . S
H1092 C1102 0.950 . S
H1093 C1104 0.950 1_565 S
H1094 C1106 0.950 . S
H1095 C1107 0.950 . S
C1096 H1088 0.950 . S
C1096 C1097 1.386 . S
C1096 C1098 1.391 . S
C1097 C1096 1.386 . S
C1097 C1101 1.393 . S
C1098 H1090 0.950 . S
C1098 C1096 1.391 . S
C1098 C1099 1.400 . S
C1099 C1098 1.400 . S
C1099 C1100 1.398 . S
C1099 C1105 1.491 . S
C1100 H1091 0.950 . S
C1100 C1099 1.398 . S
C1100 C1101 1.391 . S
C1101 H1089 0.950 . S
C1101 C1097 1.393 . S
C1101 C1100 1.391 . S
C1102 H1092 0.950 . S
C1102 C1103 1.386 1_565 S
C1102 C1104 1.391 1_565 S
C1103 C1102 1.386 1_545 S
C1103 C1107 1.393 . S
C1104 H1093 0.950 1_545 S
C1104 C1102 1.391 1_545 S
C1104 C1105 1.400 . S
C1105 C1099 1.491 . S
C1105 C1104 1.400 . S
C1105 C1106 1.398 . S
C1106 H1094 0.950 . S
C1106 C1105 1.398 . S
C1106 C1107 1.391 . S
C1107 H1095 0.950 . S
C1107 C1103 1.393 . S
C1107 C1106 1.391 . S
H1108 C1116 0.950 . S
H1109 C1121 0.950 . S
H1110 C1118 0.950 . S
H1111 C1120 0.950 . S
H1112 C1122 0.948 1_565 S
H1113 C1124 0.950 1_565 S
H1114 C1126 0.950 . S
H1115 C1127 0.950 . S
C1116 H1108 0.950 . S
C1116 C1117 1.386 . S
C1116 C1118 1.391 . S
C1117 C1116 1.386 . S
C1117 C1121 1.393 . S
C1118 H1110 0.950 . S
C1118 C1116 1.391 . S
C1118 C1119 1.400 . S
C1119 C1118 1.400 . S
C1119 C1120 1.398 . S
C1119 C1125 1.491 . S
C1120 H1111 0.950 . S
C1120 C1119 1.398 . S
C1120 C1121 1.391 . S
C1121 H1109 0.950 . S
C1121 C1117 1.393 . S
C1121 C1120 1.391 . S
C1122 H1112 0.948 1_545 S
C1122 C1123 1.387 . S
C1122 C1124 1.392 . S
C1123 C1122 1.387 . S
C1123 C1127 1.393 . S
C1124 H1113 0.950 1_545 S
C1124 C1122 1.392 . S
C1124 C1125 1.400 . S
C1125 C1119 1.491 . S
C1125 C1124 1.400 . S
C1125 C1126 1.398 . S
C1126 H1114 0.950 . S
C1126 C1125 1.398 . S
C1126 C1127 1.391 . S
C1127 H1115 0.950 . S
C1127 C1123 1.393 . S
C1127 C1126 1.391 . S
H1128 C1136 0.950 . S
H1129 C1141 0.950 . S
H1130 C1138 0.950 . S
H1131 C1140 0.950 . S
H1132 C1142 0.950 1_545 S
H1133 C1144 0.950 1_545 S
H1134 C1146 0.950 . S
H1135 C1147 0.950 . S
C1136 H1128 0.950 . S
C1136 C1137 1.386 . S
C1136 C1138 1.391 . S
C1137 C1136 1.386 . S
C1137 C1141 1.393 1_565 S
C1138 H1130 0.950 . S
C1138 C1136 1.391 . S
C1138 C1139 1.400 . S
C1139 C1138 1.400 . S
C1139 C1140 1.398 1_565 S
C1139 C1145 1.491 . S
C1140 H1131 0.950 . S
C1140 C1139 1.398 1_545 S
C1140 C1141 1.391 . S
C1141 H1129 0.950 . S
C1141 C1137 1.393 1_545 S
C1141 C1140 1.391 . S
C1142 H1132 0.950 1_565 S
C1142 C1143 1.386 . S
C1142 C1144 1.391 . S
C1143 C1142 1.386 . S
C1143 C1147 1.393 . S
C1144 H1133 0.950 1_565 S
C1144 C1142 1.391 . S
C1144 C1145 1.400 . S
C1145 C1139 1.491 . S
C1145 C1144 1.400 . S
C1145 C1146 1.398 . S
C1146 H1134 0.950 . S
C1146 C1145 1.398 . S
C1146 C1147 1.391 . S
C1147 H1135 0.950 . S
C1147 C1143 1.393 . S
C1147 C1146 1.391 . S
H1148 C1156 0.950 . S
H1149 C1161 0.950 . S
H1150 C1158 0.950 1_545 S
H1151 C1160 0.950 . S
H1152 C1162 0.950 . S
H1153 C1164 0.950 . S
H1154 C1166 0.950 1_545 S
H1155 C1167 0.950 . S
C1156 H1148 0.950 . S
C1156 C1157 1.386 1_545 S
C1156 C1158 1.391 1_545 S
C1157 C1156 1.386 1_565 S
C1157 C1161 1.393 . S
C1158 H1150 0.950 1_565 S
C1158 C1156 1.391 1_565 S
C1158 C1159 1.400 . S
C1159 C1158 1.400 . S
C1159 C1160 1.398 . S
C1159 C1165 1.491 . S
C1160 H1151 0.950 . S
C1160 C1159 1.398 . S
C1160 C1161 1.391 . S
C1161 H1149 0.950 . S
C1161 C1157 1.393 . S
C1161 C1160 1.391 . S
C1162 H1152 0.950 . S
C1162 C1163 1.386 . S
C1162 C1164 1.391 . S
C1163 C1162 1.386 . S
C1163 C1167 1.393 . S
C1164 H1153 0.950 . S
C1164 C1162 1.391 . S
C1164 C1165 1.400 . S
C1165 C1159 1.491 . S
C1165 C1164 1.400 . S
C1165 C1166 1.398 . S
C1166 H1154 0.950 1_565 S
C1166 C1165 1.398 . S
C1166 C1167 1.391 . S
C1167 H1155 0.950 . S
C1167 C1163 1.393 . S
C1167 C1166 1.391 . S
H1168 C1176 0.950 . S
H1169 C1181 0.950 . S
H1170 C1178 0.949 . S
H1171 C1180 0.950 . S
H1172 C1182 0.950 . S
H1173 C1184 0.949 . S
H1174 C1186 0.950 . S
H1175 C1187 0.950 . S
C1176 H1168 0.950 . S
C1176 C1177 1.386 . S
C1176 C1178 1.391 . S
C1177 C1176 1.386 . S
C1177 C1181 1.393 . S
C1178 H1170 0.949 . S
C1178 C1176 1.391 . S
C1178 C1179 1.400 . S
C1179 C1178 1.400 . S
C1179 C1180 1.398 . S
C1179 C1185 1.491 1_455 S
C1180 H1171 0.950 . S
C1180 C1179 1.398 . S
C1180 C1181 1.391 . S
C1181 H1169 0.950 . S
C1181 C1177 1.393 . S
C1181 C1180 1.391 . S
C1182 H1172 0.950 . S
C1182 C1183 1.386 . S
C1182 C1184 1.391 . S
C1183 C1182 1.386 . S
C1183 C1187 1.393 . S
C1184 H1173 0.949 . S
C1184 C1182 1.391 . S
C1184 C1185 1.400 . S
C1185 C1179 1.491 1_655 S
C1185 C1184 1.400 . S
C1185 C1186 1.398 . S
C1186 H1174 0.950 . S
C1186 C1185 1.398 . S
C1186 C1187 1.391 . S
C1187 H1175 0.950 . S
C1187 C1183 1.393 . S
C1187 C1186 1.391 . S
H1188 C1196 0.950 . S
H1189 C1201 0.950 . S
H1190 C1198 0.950 . S
H1191 C1200 0.950 . S
H1192 C1202 0.950 . S
H1193 C1204 0.950 . S
H1194 C1206 0.950 . S
H1195 C1207 0.950 . S
C1196 H1188 0.950 . S
C1196 C1197 1.386 . S
C1196 C1198 1.391 . S
C1197 C1196 1.386 . S
C1197 C1201 1.393 . S
C1198 H1190 0.950 . S
C1198 C1196 1.391 . S
C1198 C1199 1.400 . S
C1199 C1198 1.400 . S
C1199 C1200 1.398 . S
C1199 C1205 1.491 1_455 S
C1200 H1191 0.950 . S
C1200 C1199 1.398 . S
C1200 C1201 1.391 . S
C1201 H1189 0.950 . S
C1201 C1197 1.393 . S
C1201 C1200 1.391 . S
C1202 H1192 0.950 . S
C1202 C1203 1.386 . S
C1202 C1204 1.391 . S
C1203 C1202 1.386 . S
C1203 C1207 1.393 . S
C1204 H1193 0.950 . S
C1204 C1202 1.391 . S
C1204 C1205 1.400 . S
C1205 C1199 1.491 1_655 S
C1205 C1204 1.400 . S
C1205 C1206 1.398 . S
C1206 H1194 0.950 . S
C1206 C1205 1.398 . S
C1206 C1207 1.391 . S
C1207 H1195 0.950 . S
C1207 C1203 1.393 . S
C1207 C1206 1.391 . S
H1208 C1216 0.950 . S
H1209 C1221 0.950 . S
H1210 C1218 0.950 . S
H1211 C1220 0.950 . S
H1212 C1222 0.950 . S
H1213 C1224 0.950 . S
H1214 C1226 0.950 . S
H1215 C1227 0.950 . S
C1216 H1208 0.950 . S
C1216 C1217 1.386 . S
C1216 C1218 1.391 . S
C1217 C1216 1.386 . S
C1217 C1221 1.393 . S
C1218 H1210 0.950 . S
C1218 C1216 1.391 . S
C1218 C1219 1.400 . S
C1219 C1218 1.400 . S
C1219 C1220 1.398 . S
C1219 C1225 1.491 . S
C1220 H1211 0.950 . S
C1220 C1219 1.398 . S
C1220 C1221 1.391 . S
C1221 H1209 0.950 . S
C1221 C1217 1.393 . S
C1221 C1220 1.391 . S
C1222 H1212 0.950 . S
C1222 C1223 1.386 . S
C1222 C1224 1.391 . S
C1223 C1222 1.386 . S
C1223 C1227 1.393 . S
C1224 H1213 0.950 . S
C1224 C1222 1.391 . S
C1224 C1225 1.400 . S
C1225 C1219 1.491 . S
C1225 C1224 1.400 . S
C1225 C1226 1.398 . S
C1226 H1214 0.950 . S
C1226 C1225 1.398 . S
C1226 C1227 1.391 . S
C1227 H1215 0.950 . S
C1227 C1223 1.393 . S
C1227 C1226 1.391 . S
H1228 C1236 0.950 . S
H1229 C1241 0.950 . S
H1230 C1238 0.950 . S
H1231 C1240 0.950 . S
H1232 C1242 0.950 . S
H1233 C1244 0.950 . S
H1234 C1246 0.950 . S
H1235 C1247 0.950 . S
C1236 H1228 0.950 . S
C1236 C1237 1.386 1_556 S
C1236 C1238 1.391 . S
C1237 C1236 1.386 1_554 S
C1237 C1241 1.393 . S
C1238 H1230 0.950 . S
C1238 C1236 1.391 . S
C1238 C1239 1.400 1_556 S
C1239 C1238 1.400 1_554 S
C1239 C1240 1.398 . S
C1239 C1245 1.491 . S
C1240 H1231 0.950 . S
C1240 C1239 1.398 . S
C1240 C1241 1.391 . S
C1241 H1229 0.950 . S
C1241 C1237 1.393 . S
C1241 C1240 1.391 . S
C1242 H1232 0.950 . S
C1242 C1243 1.386 . S
C1242 C1244 1.391 . S
C1243 C1242 1.386 . S
C1243 C1247 1.393 1_554 S
C1244 H1233 0.950 . S
C1244 C1242 1.391 . S
C1244 C1245 1.400 . S
C1245 C1239 1.491 . S
C1245 C1244 1.400 . S
C1245 C1246 1.398 1_554 S
C1246 H1234 0.950 . S
C1246 C1245 1.398 1_556 S
C1246 C1247 1.391 . S
C1247 H1235 0.950 . S
C1247 C1243 1.393 1_556 S
C1247 C1246 1.391 . S
H1248 C1256 0.950 . S
H1249 C1261 0.950 . S
H1250 C1258 0.950 1_655 S
H1251 C1260 0.950 . S
H1252 C1262 0.950 . S
H1253 C1264 0.950 1_455 S
H1254 C1266 0.950 . S
H1255 C1267 0.950 . S
C1256 H1248 0.950 . S
C1256 C1257 1.386 . S
C1256 C1258 1.391 . S
C1257 C1256 1.386 . S
C1257 C1261 1.393 . S
C1258 H1250 0.950 1_455 S
C1258 C1256 1.391 . S
C1258 C1259 1.400 . S
C1259 C1258 1.400 . S
C1259 C1260 1.398 . S
C1259 C1265 1.491 1_455 S
C1260 H1251 0.950 . S
C1260 C1259 1.398 . S
C1260 C1261 1.391 . S
C1261 H1249 0.950 . S
C1261 C1257 1.393 . S
C1261 C1260 1.391 . S
C1262 H1252 0.950 . S
C1262 C1263 1.386 . S
C1262 C1264 1.391 . S
C1263 C1262 1.386 . S
C1263 C1267 1.393 . S
C1264 H1253 0.950 1_655 S
C1264 C1262 1.391 . S
C1264 C1265 1.400 . S
C1265 C1259 1.491 1_655 S
C1265 C1264 1.400 . S
C1265 C1266 1.398 . S
C1266 H1254 0.950 . S
C1266 C1265 1.398 . S
C1266 C1267 1.391 . S
C1267 H1255 0.950 . S
C1267 C1263 1.393 . S
C1267 C1266 1.391 . S
H1268 C1276 0.950 . S
H1269 C1281 0.950 . S
H1270 C1278 0.950 . S
H1271 C1280 0.950 . S
H1272 C1282 0.950 . S
H1273 C1284 0.950 . S
H1274 C1286 0.950 . S
H1275 C1287 0.950 . S
C1276 H1268 0.950 . S
C1276 C1277 1.386 . S
C1276 C1278 1.391 . S
C1277 C1276 1.386 . S
C1277 C1281 1.393 . S
C1278 H1270 0.950 . S
C1278 C1276 1.391 . S
C1278 C1279 1.400 . S
C1279 C1278 1.400 . S
C1279 C1280 1.398 . S
C1279 C1285 1.491 1_655 S
C1280 H1271 0.950 . S
C1280 C1279 1.398 . S
C1280 C1281 1.391 . S
C1281 H1269 0.950 . S
C1281 C1277 1.393 . S
C1281 C1280 1.391 . S
C1282 H1272 0.950 . S
C1282 C1283 1.386 . S
C1282 C1284 1.391 . S
C1283 C1282 1.386 . S
C1283 C1287 1.393 . S
C1284 H1273 0.950 . S
C1284 C1282 1.391 . S
C1284 C1285 1.400 . S
C1285 C1279 1.491 1_455 S
C1285 C1284 1.400 . S
C1285 C1286 1.398 . S
C1286 H1274 0.950 . S
C1286 C1285 1.398 . S
C1286 C1287 1.391 . S
C1287 H1275 0.950 . S
C1287 C1283 1.393 . S
C1287 C1286 1.391 . S
H1288 C1296 0.950 . S
H1289 C1301 0.950 . S
H1290 C1298 0.950 . S
H1291 C1300 0.950 . S
H1292 C1302 0.950 . S
H1293 C1304 0.950 . S
H1294 C1306 0.950 . S
H1295 C1307 0.950 . S
C1296 H1288 0.950 . S
C1296 C1297 1.386 . S
C1296 C1298 1.391 . S
C1297 C1296 1.386 . S
C1297 C1301 1.393 . S
C1298 H1290 0.950 . S
C1298 C1296 1.391 . S
C1298 C1299 1.400 . S
C1299 C1298 1.400 . S
C1299 C1300 1.398 . S
C1299 C1305 1.491 . S
C1300 H1291 0.950 . S
C1300 C1299 1.398 . S
C1300 C1301 1.391 . S
C1301 H1289 0.950 . S
C1301 C1297 1.393 . S
C1301 C1300 1.391 . S
C1302 H1292 0.950 . S
C1302 C1303 1.386 . S
C1302 C1304 1.391 . S
C1303 C1302 1.386 . S
C1303 C1307 1.393 . S
C1304 H1293 0.950 . S
C1304 C1302 1.391 . S
C1304 C1305 1.400 . S
C1305 C1299 1.491 . S
C1305 C1304 1.400 . S
C1305 C1306 1.398 . S
C1306 H1294 0.950 . S
C1306 C1305 1.398 . S
C1306 C1307 1.391 . S
C1307 H1295 0.950 . S
C1307 C1303 1.393 . S
C1307 C1306 1.391 . S
H1308 C1316 0.950 . S
H1309 C1321 0.950 . S
H1310 C1318 0.950 . S
H1311 C1320 0.950 . S
H1312 C1322 0.950 . S
H1313 C1324 0.950 . S
H1314 C1326 0.950 . S
H1315 C1327 0.950 . S
C1316 H1308 0.950 . S
C1316 C1317 1.386 1_554 S
C1316 C1318 1.391 . S
C1317 C1316 1.386 1_556 S
C1317 C1321 1.393 . S
C1318 H1310 0.950 . S
C1318 C1316 1.391 . S
C1318 C1319 1.400 1_554 S
C1319 C1318 1.400 1_556 S
C1319 C1320 1.398 . S
C1319 C1325 1.491 . S
C1320 H1311 0.950 . S
C1320 C1319 1.398 . S
C1320 C1321 1.391 . S
C1321 H1309 0.950 . S
C1321 C1317 1.393 . S
C1321 C1320 1.391 . S
C1322 H1312 0.950 . S
C1322 C1323 1.386 . S
C1322 C1324 1.391 . S
C1323 C1322 1.386 . S
C1323 C1327 1.393 1_556 S
C1324 H1313 0.950 . S
C1324 C1322 1.391 . S
C1324 C1325 1.400 . S
C1325 C1319 1.491 . S
C1325 C1324 1.400 . S
C1325 C1326 1.398 1_556 S
C1326 H1314 0.950 . S
C1326 C1325 1.398 1_554 S
C1326 C1327 1.391 . S
C1327 H1315 0.950 . S
C1327 C1323 1.393 1_554 S
C1327 C1326 1.391 . S
C377 C17 1.541 . S
C383 C156 1.612 . S
C397 C363 1.601 . S
C403 C40 1.527 . S
C417 C63 1.548 . S
C423 C110 1.592 . S
C437 C317 1.539 . S
C443 C86 1.517 . S
C457 C64 1.594 . S
C463 C109 1.567 . S
C477 C271 1.599 . S
C483 C132 1.530 . S
C497 C155 1.548 . S
C503 C18 1.592 . S
C517 C178 1.506 . S
C523 C225 1.543 . S
C537 C201 1.528 . S
C543 C340 1.604 . S
C557 C224 1.495 . S
C563 C179 1.553 . S
C577 C294 1.609 . S
C583 C247 1.547 . S
C597 C133 1.590 . S
C603 C270 1.550 . S
C617 C248 1.597 . S
C623 C293 1.534 . S
C637 C316 1.496 . S
C643 C87 1.552 . S
C657 C202 1.613 . S
C663 C339 1.540 . S
C677 C41 1.600 . S
C683 C362 1.539 . S
C697 C21 0.382 . S
C703 C297 0.382 . S
C717 C44 0.397 . S
C723 C136 0.397 . S
C737 C67 0.390 . S
C743 C343 0.390 . S
C757 C182 0.372 . S
C763 C90 0.373 . S
C777 C113 0.382 . S
C783 C205 0.382 . S
C797 C251 0.395 . S
C803 C159 0.395 . S
C817 C228 0.360 . S
C823 C320 0.359 . S
C837 C366 0.375 . S
C843 C274 0.375 . S
C857 C19 1.502 . S
C863 C43 1.483 . S
C877 C66 1.522 . S
C883 C42 1.545 . S
C897 C65 1.698 . S
C903 C89 1.682 . S
C917 C88 1.338 . S
C923 C20 1.298 . S
C937 C135 1.479 . S
C943 C111 1.504 . S
C957 C158 1.505 . S
C963 C134 1.552 . S
C977 C181 1.659 . S
C983 C157 1.713 . S
C997 C112 1.313 . S
C1003 C180 1.328 . S
C1017 C203 1.702 1_565 S
C1023 C227 1.673 . S
C1037 C226 1.332 . S
C1043 C250 1.311 . S
C1057 C273 1.460 . S
C1063 C249 1.513 1_545 S
C1077 C272 1.554 . S
C1083 C204 1.500 . S
C1097 C319 1.670 . S
C1103 C295 1.707 1_545 S
C1117 C318 1.334 . S
C1123 C342 1.305 . S
C1137 C341 1.502 1_565 S
C1143 C365 1.483 . S
C1157 C296 1.508 . S
C1163 C364 1.552 . S
C1177 C16 1.474 . S
C1183 C246 1.474 . S
C1197 C39 1.484 . S
C1203 C269 1.485 . S
C1217 C62 1.498 . S
C1223 C200 1.499 . S
C1237 C223 1.470 . S
C1243 C85 1.470 . S
C1257 C338 1.494 . S
C1263 C108 1.494 . S
C1277 C131 1.474 . S
C1283 C361 1.475 . S
C1297 C154 1.482 . S
C1303 C292 1.482 . S
C1317 C315 1.452 . S
C1323 C177 1.452 . S
