# Generated by pormake.
# Topology rob, (6)-cn, num edge types: 1
# Building blocks:
#     Node 0, Type 0, BuildingBlock: CUWYAW_clean_sbu_0, # of connection points: 6
#     Node 1, Type 0, BuildingBlock: CUWYAW_clean_sbu_0, # of connection points: 6
#     Node 2, Type 0, BuildingBlock: CUWYAW_clean_sbu_0, # of connection points: 6
#     Node 3, Type 0, BuildingBlock: CUWYAW_clean_sbu_0, # of connection points: 6
#     Edge 4, Type (0, 0), BuildingBlock: FUNLAD_clean_linker_0, # of connection points: 2
#     Edge 5, Type (0, 0), BuildingBlock: FUNLAD_clean_linker_0, # of connection points: 2
#     Edge 6, Type (0, 0), BuildingBlock: FUNLAD_clean_linker_0, # of connection points: 2
#     Edge 7, Type (0, 0), BuildingBlock: FUNLAD_clean_linker_0, # of connection points: 2
#     Edge 8, Type (0, 0), BuildingBlock: FUNLAD_clean_linker_0, # of connection points: 2
#     Edge 9, Type (0, 0), BuildingBlock: FUNLAD_clean_linker_0, # of connection points: 2
#     Edge 10, Type (0, 0), BuildingBlock: FUNLAD_clean_linker_0, # of connection points: 2
#     Edge 11, Type (0, 0), BuildingBlock: FUNLAD_clean_linker_0, # of connection points: 2
#     Edge 12, Type (0, 0), BuildingBlock: FUNLAD_clean_linker_0, # of connection points: 2
#     Edge 13, Type (0, 0), BuildingBlock: FUNLAD_clean_linker_0, # of connection points: 2
#     Edge 14, Type (0, 0), BuildingBlock: FUNLAD_clean_linker_0, # of connection points: 2
#     Edge 15, Type (0, 0), BuildingBlock: FUNLAD_clean_linker_0, # of connection points: 2
# Relax obj value: 0.036
# Max RMSD: 0.136
# Mean RMSD: 0.136
data_MOF--net-rob--node1-CUWYAW_clean_sbu_0--edge1-FUNLAD_clean_linker_0
_symmetry_space_group_name_H-M    P1
_symmetry_Int_Tables_number       1
_symmetry_cell_setting            triclinic
loop_
_symmetry_equiv_pos_as_xyz
'x, y, z'
_cell_length_a     18.145518
_cell_length_b     28.42563
_cell_length_c     41.238489
_cell_angle_alpha  95.489264
_cell_angle_beta   90.142677
_cell_angle_gamma 89.721024
loop_
_atom_site_label
_atom_site_type_symbol
_atom_site_fract_x
_atom_site_fract_y
_atom_site_fract_z
_atom_type_partial_charge
C0 C 0.45054 0.22549 0.97339 0.0
Eu1 Eu 0.33203 0.23898 1.00849 0.0
C2 C 0.46679 0.22762 0.93848 0.0
C3 C 0.49978 0.18866 0.92063 0.0
C4 C 0.51196 0.18892 0.88718 0.0
C5 C 0.49167 0.22832 0.87085 0.0
C6 C 0.45896 0.26746 0.88888 0.0
C7 C 0.44653 0.26709 0.9223 0.0
C8 C 0.23285 0.17224 0.02011 0.0
C9 C 0.20107 0.27276 0.96015 0.0
C10 C 0.06894 0.28998 0.07207 0.0
Eu11 Eu 0.18732 0.27719 0.03666 0.0
C12 C 0.05303 0.28974 0.10724 0.0
C13 C 0.01611 0.32828 0.12385 0.0
C14 C 0.0025 0.32935 0.15731 0.0
C15 C 0.02508 0.29167 0.17482 0.0
C16 C 0.06199 0.25304 0.15814 0.0
C17 C 0.07613 0.25216 0.12475 0.0
C18 C 0.28845 0.34372 0.02615 0.0
C19 C 0.31984 0.24433 0.08493 0.0
O20 O 0.43511 0.26551 0.99051 0.0
O21 O 0.40737 0.19113 0.98026 0.0
O22 O 0.3032 0.16785 0.02487 0.0
O23 O 0.21831 0.21046 1.00812 0.0
O24 O 0.27216 0.2661 0.96543 0.0
O25 O 0.15245 0.27319 0.98399 0.0
O26 O 0.08664 0.24946 0.05612 0.0
O27 O 0.10965 0.32477 0.06388 0.0
O28 O 0.21825 0.34903 0.02128 0.0
O29 O 0.3011 0.30498 0.03763 0.0
O30 O 0.24865 0.25192 0.08026 0.0
O31 O 0.36753 0.24293 0.06074 0.0
H32 H 0.51524 0.15768 0.93252 0.0
H33 H 0.53621 0.15787 0.87404 0.0
H34 H 0.44347 0.29863 0.87725 0.0
H35 H 0.42044 0.29758 0.93536 0.0
H36 H 0.99799 0.35771 0.11092 0.0
H37 H 0.97339 0.3594 0.16942 0.0
H38 H 0.0809 0.22377 0.17103 0.0
H39 H 0.10561 0.22219 0.11274 0.0
C40 C 0.93374 0.74049 0.97162 0.0
Eu41 Eu 0.81261 0.75219 1.00532 0.0
C42 C 0.95569 0.73992 0.93716 0.0
C43 C 0.00312 0.70425 0.92369 0.0
C44 C 0.02515 0.70303 0.89116 0.0
C45 C 0.0004 0.73767 0.87141 0.0
C46 C 0.95208 0.77314 0.88494 0.0
C47 C 0.92987 0.77422 0.91747 0.0
C48 C 0.71305 0.68421 0.01483 0.0
C49 C 0.67993 0.78512 0.95805 0.0
C50 C 0.54532 0.79863 0.06783 0.0
Eu51 Eu 0.66725 0.78796 0.03466 0.0
C52 C 0.52368 0.79952 0.10227 0.0
C53 C 0.46766 0.83035 0.11441 0.0
C54 C 0.44621 0.83172 0.14702 0.0
C55 C 0.48047 0.8022 0.16814 0.0
C56 C 0.53724 0.77163 0.15591 0.0
C57 C 0.55862 0.77029 0.12328 0.0
C58 C 0.76477 0.85619 0.02384 0.0
C59 C 0.80116 0.75598 0.08205 0.0
O60 O 0.91288 0.78115 0.98643 0.0
O61 O 0.89261 0.70543 0.97898 0.0
O62 O 0.78336 0.67936 0.01947 0.0
O63 O 0.69927 0.72338 1.00422 0.0
O64 O 0.75157 0.77927 0.96246 0.0
O65 O 0.6326 0.78375 0.98219 0.0
O66 O 0.568 0.75798 0.05364 0.0
O67 O 0.58522 0.8341 0.06017 0.0
O68 O 0.69419 0.86028 0.01958 0.0
O69 O 0.78011 0.8176 0.03512 0.0
O70 O 0.72965 0.76306 0.078 0.0
O71 O 0.84796 0.75548 0.05759 0.0
H72 H 0.02323 0.67725 0.93838 0.0
H73 H 0.06129 0.67472 0.88145 0.0
H74 H 0.93251 0.80067 0.87061 0.0
H75 H 0.89297 0.80208 0.92725 0.0
H76 H 0.44044 0.85342 0.09863 0.0
H77 H 0.40315 0.8562 0.15574 0.0
H78 H 0.56428 0.74808 0.17139 0.0
H79 H 0.60209 0.74618 0.11445 0.0
C80 C 0.44196 0.78704 0.56667 0.0
Eu81 Eu 0.31969 0.77742 0.53347 0.0
C82 C 0.46395 0.78776 0.60106 0.0
C83 C 0.52413 0.81523 0.61255 0.0
C84 C 0.54609 0.81617 0.64511 0.0
C85 C 0.50804 0.78969 0.66681 0.0
C86 C 0.44713 0.76256 0.65523 0.0
C87 C 0.42538 0.76154 0.62263 0.0
C88 C 0.22558 0.84713 0.52025 0.0
C89 C 0.1837 0.75102 0.58128 0.0
C90 C 0.05407 0.73149 0.46976 0.0
Eu91 Eu 0.17402 0.74327 0.50435 0.0
C92 C 0.03281 0.73664 0.43574 0.0
C93 C 0.9898 0.7016 0.41871 0.0
C94 C 0.96988 0.70534 0.38628 0.0
C95 C 0.9923 0.74442 0.37033 0.0
C96 C 0.03568 0.77944 0.38742 0.0
C97 C 0.0561 0.77549 0.41978 0.0
C98 C 0.2694 0.6741 0.51769 0.0
C99 C 0.30782 0.77198 0.45693 0.0
O100 O 0.41869 0.74657 0.55263 0.0
O101 O 0.40215 0.82283 0.55903 0.0
O102 O 0.29642 0.84921 0.51624 0.0
O103 O 0.20814 0.80964 0.53236 0.0
O104 O 0.25541 0.757 0.57742 0.0
O105 O 0.13744 0.7492 0.55645 0.0
O106 O 0.06904 0.77034 0.48824 0.0
O107 O 0.10022 0.69719 0.47408 0.0
O108 O 0.19878 0.67189 0.52229 0.0
O109 O 0.28567 0.71144 0.50521 0.0
O110 O 0.23591 0.76886 0.46145 0.0
O111 O 0.35488 0.76982 0.48117 0.0
H112 H 0.55426 0.83591 0.59629 0.0
H113 H 0.59258 0.83792 0.65337 0.0
H114 H 0.41715 0.74136 0.67119 0.0
H115 H 0.37885 0.73996 0.61423 0.0
H116 H 0.97155 0.67128 0.43053 0.0
H117 H 0.93588 0.67803 0.37385 0.0
H118 H 0.05448 0.80966 0.37564 0.0
H119 H 0.09019 0.80273 0.43225 0.0
C120 C 0.94717 0.29284 0.57059 0.0
Eu121 Eu 0.82766 0.28173 0.53564 0.0
C122 C 0.96351 0.29147 0.60571 0.0
C123 C 0.99726 0.33037 0.62317 0.0
C124 C 0.01021 0.33069 0.65667 0.0
C125 C 0.99002 0.29192 0.67354 0.0
C126 C 0.9564 0.25286 0.65591 0.0
C127 C 0.94318 0.25266 0.62243 0.0
C128 C 0.73101 0.35066 0.52364 0.0
C129 C 0.69699 0.25342 0.58561 0.0
C130 C 0.55788 0.23595 0.47596 0.0
Eu131 Eu 0.67965 0.24683 0.50935 0.0
C132 C 0.53699 0.23923 0.44163 0.0
C133 C 0.49306 0.2039 0.42544 0.0
C134 C 0.47389 0.20585 0.39271 0.0
C135 C 0.49794 0.24341 0.37561 0.0
C136 C 0.54219 0.27872 0.39186 0.0
C137 C 0.56186 0.27655 0.4245 0.0
C138 C 0.77596 0.17785 0.5217 0.0
C139 C 0.8112 0.27355 0.45922 0.0
O140 O 0.92937 0.25287 0.55403 0.0
O141 O 0.9062 0.32816 0.563 0.0
O142 O 0.8013 0.353 0.51816 0.0
O143 O 0.71557 0.31335 0.53641 0.0
O144 O 0.76802 0.25851 0.57978 0.0
O145 O 0.6474 0.25305 0.56212 0.0
O146 O 0.57586 0.27543 0.49309 0.0
O147 O 0.60147 0.20082 0.48145 0.0
O148 O 0.7056 0.17567 0.52707 0.0
O149 O 0.79152 0.21499 0.50875 0.0
O150 O 0.73985 0.26925 0.46493 0.0
O151 O 0.86046 0.27416 0.4829 0.0
H152 H 0.01289 0.36087 0.61092 0.0
H153 H 0.03507 0.36173 0.66941 0.0
H154 H 0.94087 0.22212 0.66788 0.0
H155 H 0.91652 0.22221 0.60975 0.0
H156 H 0.47359 0.17471 0.43814 0.0
H157 H 0.43922 0.17835 0.38093 0.0
H158 H 0.56228 0.30777 0.3792 0.0
H159 H 0.59672 0.30397 0.43626 0.0
C160 C 0.67969 0.60144 0.02478 0.0
C161 C 0.65856 0.6459 0.01568 0.0
C162 C 0.62863 0.56458 0.02414 0.0
C163 C 0.55502 0.57161 0.01456 0.0
C164 C 0.53427 0.61628 1.00561 0.0
C165 C 0.5853 0.65303 1.00623 0.0
C166 C 0.49879 0.5333 0.01233 0.0
C167 C 0.50449 0.49348 0.02758 0.0
C168 C 0.44797 0.45532 0.02552 0.0
C169 C 0.46815 0.41078 0.0349 0.0
C170 C 0.41668 0.3743 0.03455 0.0
C171 C 0.34359 0.38157 0.02493 0.0
H172 H 0.35554 0.49636 1.00916 0.0
C173 C 0.3231 0.42586 0.01534 0.0
C174 C 0.37453 0.46246 0.01574 0.0
H175 H 0.2669 0.43253 1.00804 0.0
H176 H 0.73602 0.59489 0.03192 0.0
H177 H 0.64795 0.53057 0.03038 0.0
H178 H 0.47826 0.6228 0.99796 0.0
H179 H 0.5675 0.68687 0.9989 0.0
H180 H 0.45057 0.53883 0.99757 0.0
H181 H 0.55274 0.48797 0.04234 0.0
H182 H 0.524 0.40419 0.04271 0.0
H183 H 0.43398 0.34057 0.04226 0.0
C184 C 0.39505 0.63753 0.51137 0.0
C185 C 0.32149 0.63486 0.52152 0.0
C186 C 0.44363 0.59966 0.514 0.0
C187 C 0.41942 0.55812 0.52673 0.0
C188 C 0.34622 0.55612 0.53754 0.0
C189 C 0.29768 0.59393 0.53484 0.0
C190 C 0.46879 0.51668 0.52992 0.0
C191 C 0.52996 0.50737 0.51182 0.0
C192 C 0.57963 0.46606 0.51498 0.0
C193 C 0.65234 0.468 0.50355 0.0
C194 C 0.70127 0.43038 0.50616 0.0
C195 C 0.67838 0.38969 0.52002 0.0
H196 H 0.50027 0.42093 0.53643 0.0
C197 C 0.60532 0.38706 0.53084 0.0
C198 C 0.55632 0.42476 0.5283 0.0
H199 H 0.58606 0.35595 0.54144 0.0
H200 H 0.41504 0.66883 0.50122 0.0
H201 H 0.50009 0.60353 0.50642 0.0
H202 H 0.32615 0.52489 0.54778 0.0
H203 H 0.24136 0.591 0.54303 0.0
H204 H 0.45288 0.49279 0.54764 0.0
H205 H 0.54566 0.53126 0.49406 0.0
H206 H 0.67174 0.49904 0.49287 0.0
H207 H 0.75717 0.43328 0.49744 0.0
C208 C 0.10573 0.13855 0.01351 0.0
C209 C 0.17912 0.13426 0.0237 0.0
C210 C 0.05594 0.10156 0.01591 0.0
C211 C 0.07884 0.05944 0.02849 0.0
C212 C 0.15183 0.05591 0.03941 0.0
C213 C 0.20153 0.09277 0.03691 0.0
C214 C 0.02846 0.01882 0.03134 0.0
C215 C 0.9675 1.01058 0.01293 0.0
C216 C 0.9174 0.96983 0.01576 0.0
C217 C 0.84407 0.97337 1.00528 0.0
C218 C 0.79475 0.93628 1.00773 0.0
C219 C 0.81792 0.89455 0.02041 0.0
H220 H 0.99759 0.92255 0.03513 0.0
C221 C 0.89162 0.89029 0.03018 0.0
C222 C 0.94101 0.9275 0.02784 0.0
H223 H 0.91106 0.85831 0.0398 0.0
H224 H 0.08686 0.17036 1.00348 0.0
H225 H 0.99963 0.10653 1.00825 0.0
H226 H 0.17087 0.0242 0.04953 0.0
H227 H 0.2577 0.08862 0.04517 0.0
H228 H 0.0435 0.99445 0.04899 0.0
H229 H 0.95231 0.03495 0.99531 0.0
H230 H 0.8245 1.00525 0.99554 0.0
H231 H 0.73832 0.9404 0.9998 0.0
C232 C 0.90055 0.14019 0.51352 0.0
C233 C 0.82771 0.13821 0.52471 0.0
C234 C 0.94832 0.10163 0.51516 0.0
C235 C 0.92394 0.06017 0.52797 0.0
C236 C 0.85161 0.05895 0.5399 0.0
C237 C 0.80392 0.0974 0.53817 0.0
C238 C 0.97209 0.01789 0.53001 0.0
C239 C 0.03193 1.00809 0.51116 0.0
C240 C 0.07964 0.96564 0.51328 0.0
C241 C 0.15288 0.96702 0.50248 0.0
C242 C 0.20001 0.92831 0.50442 0.0
C243 C 0.17467 0.88712 0.51692 0.0
H244 H 0.99711 0.9205 0.53256 0.0
C245 C 0.10092 0.88502 0.5269 0.0
C246 C 0.05377 0.92381 0.52507 0.0
H247 H 0.07975 0.85351 0.53638 0.0
H248 H 0.92052 0.17141 0.50326 0.0
H249 H 0.00425 0.10487 0.50671 0.0
H250 H 0.83146 0.02781 0.55022 0.0
H251 H 0.74816 0.09499 0.54718 0.0
H252 H 0.95631 0.99363 0.54753 0.0
H253 H 0.04807 0.03233 0.4937 0.0
H254 H 0.17414 0.99847 0.49293 0.0
H255 H 0.2565 0.93081 0.49635 0.0
C256 C 0.47906 0.20592 0.31848 0.0
C257 C 0.47587 0.24615 0.34111 0.0
C258 C 0.4566 0.20838 0.28619 0.0
C259 C 0.43009 0.25116 0.2759 0.0
C260 C 0.42664 0.29121 0.29859 0.0
C261 C 0.44985 0.28888 0.33075 0.0
C262 C 0.40217 0.25477 0.24229 0.0
C263 C 0.42621 0.22715 0.21601 0.0
C264 C 0.39771 0.23148 0.18257 0.0
C265 C 0.44421 0.2203 0.15575 0.0
C266 C 0.41912 0.22441 0.12401 0.0
C267 C 0.34641 0.23897 0.11841 0.0
H268 H 0.28647 0.2529 0.19694 0.0
C269 C 0.2993 0.24903 0.14524 0.0
C270 C 0.32462 0.24539 0.17695 0.0
H271 H 0.24285 0.26012 0.14185 0.0
H272 H 0.49905 0.17253 0.32576 0.0
H273 H 0.4584 0.17646 0.26965 0.0
H274 H 0.40583 0.32448 0.29141 0.0
H275 H 0.44588 0.32033 0.34771 0.0
H276 H 0.36272 0.2828 0.23897 0.0
H277 H 0.47097 0.20229 0.21865 0.0
H278 H 0.5005 0.209 0.15938 0.0
H279 H 0.45671 0.21608 0.1039 0.0
C280 C 0.50777 0.7998 0.22785 0.0
C281 C 0.45618 0.80276 0.20261 0.0
C282 C 0.4846 0.79987 0.2602 0.0
C283 C 0.40904 0.8026 0.26801 0.0
C284 C 0.35778 0.80621 0.24279 0.0
C285 C 0.38092 0.8061 0.21051 0.0
C286 C 0.38094 0.80251 0.30191 0.0
C287 C 0.41928 0.786 0.32653 0.0
C288 C 0.38891 0.78409 0.35989 0.0
C289 C 0.43804 0.78228 0.38612 0.0
C290 C 0.41189 0.77897 0.41769 0.0
C291 C 0.3358 0.77695 0.42371 0.0
H292 H 0.2728 0.78152 0.34638 0.0
C293 C 0.28655 0.77858 0.39747 0.0
C294 C 0.31269 0.78191 0.36593 0.0
H295 H 0.22759 0.77665 0.40113 0.0
H296 H 0.56627 0.79814 0.22267 0.0
H297 H 0.52631 0.79859 0.27886 0.0
H298 H 0.29931 0.80853 0.24802 0.0
H299 H 0.33959 0.80789 0.19167 0.0
H300 H 0.32532 0.81575 0.30631 0.0
H301 H 0.47519 0.77317 0.32245 0.0
H302 H 0.497 0.78343 0.38218 0.0
H303 H 0.45143 0.77759 0.4373 0.0
C304 C 0.70223 0.79396 0.89904 0.0
C305 C 0.65245 0.7912 0.92485 0.0
C306 C 0.67673 0.79777 0.86742 0.0
C307 C 0.6006 0.79845 0.86076 0.0
C308 C 0.55092 0.79707 0.88671 0.0
C309 C 0.57646 0.79331 0.91839 0.0
C310 C 0.5711 0.80127 0.82728 0.0
C311 C 0.60908 0.78625 0.80014 0.0
C312 C 0.58078 0.78837 0.76642 0.0
C313 C 0.63182 0.78618 0.74078 0.0
C314 C 0.60825 0.787 0.70859 0.0
C315 C 0.53281 0.78963 0.70118 0.0
H316 H 0.46366 0.79119 0.77786 0.0
C317 C 0.48148 0.79145 0.72676 0.0
C318 C 0.50509 0.79077 0.75904 0.0
H319 H 0.42295 0.79361 0.72185 0.0
H320 H 0.76115 0.79307 0.90317 0.0
H321 H 0.71709 0.80069 0.84848 0.0
H322 H 0.49203 0.7981 0.88237 0.0
H323 H 0.53655 0.79151 0.93771 0.0
H324 H 0.51576 0.8153 0.82527 0.0
H325 H 0.66413 0.77182 0.80239 0.0
H326 H 0.69037 0.78381 0.74566 0.0
H327 H 0.64918 0.78473 0.68942 0.0
C328 C 0.60027 0.23997 0.62751 0.0
C329 C 0.67403 0.24846 0.6196 0.0
C330 C 0.57993 0.23534 0.65985 0.0
C331 C 0.6331 0.23945 0.68496 0.0
C332 C 0.70666 0.2477 0.67683 0.0
C333 C 0.72686 0.25223 0.6447 0.0
C334 C 0.61585 0.23446 0.71979 0.0
C335 C 0.5475 0.23541 0.73264 0.0
C336 C 0.53357 0.23195 0.76796 0.0
C337 C 0.4679 0.25071 0.78187 0.0
C338 C 0.45393 0.2493 0.81513 0.0
C339 C 0.50528 0.22881 0.83527 0.0
H340 H 0.63391 0.19361 0.77813 0.0
C341 C 0.57014 0.20895 0.82116 0.0
C342 C 0.58391 0.21015 0.78793 0.0
H343 H 0.61106 0.19299 0.83587 0.0
H344 H 0.55828 0.2366 0.60873 0.0
H345 H 0.52288 0.22794 0.66474 0.0
H346 H 0.74903 0.25084 0.69548 0.0
H347 H 0.78419 0.25885 0.63966 0.0
H348 H 0.66287 0.23206 0.73587 0.0
H349 H 0.50019 0.24161 0.71748 0.0
H350 H 0.42758 0.26708 0.76705 0.0
H351 H 0.40263 0.26403 0.82499 0.0
C352 C 0.78387 0.75976 0.14256 0.0
C353 C 0.82945 0.75011 0.11518 0.0
C354 C 0.81089 0.75534 0.1739 0.0
C355 C 0.88422 0.7411 0.17858 0.0
C356 C 0.92925 0.73047 0.15121 0.0
C357 C 0.90243 0.7353 0.11985 0.0
C358 C 0.91452 0.73566 0.21156 0.0
C359 C 0.89137 0.76209 0.23852 0.0
C360 C 0.92086 0.75701 0.27169 0.0
C361 C 0.91714 0.79591 0.29534 0.0
C362 C 0.94163 0.79209 0.32715 0.0
C363 C 0.96931 0.74896 0.33617 0.0
H364 H 0.95119 0.68276 0.26336 0.0
C365 C 0.97296 0.70993 0.31256 0.0
C366 C 0.94911 0.71387 0.28064 0.0
H367 H 0.99424 0.67627 0.31879 0.0
H368 H 0.72733 0.77114 0.13989 0.0
H369 H 0.77382 0.76246 0.19433 0.0
H370 H 0.98569 0.71894 0.1541 0.0
H371 H 0.93891 0.72728 0.0993 0.0
H372 H 0.95977 0.71087 0.21328 0.0
H373 H 0.85133 0.79011 0.23618 0.0
H374 H 0.895 0.82942 0.28921 0.0
H375 H 0.93727 0.82261 0.3449 0.0
C376 C 0.90896 0.28532 0.4174 0.0
C377 C 0.83538 0.27562 0.425 0.0
C378 C 0.93128 0.28543 0.38485 0.0
C379 C 0.88042 0.27555 0.35926 0.0
C380 C 0.80711 0.2659 0.36696 0.0
C381 C 0.78469 0.2663 0.39935 0.0
C382 C 0.90194 0.27265 0.32431 0.0
C383 C 0.95825 0.29692 0.3128 0.0
C384 C 0.97628 0.29452 0.27746 0.0
C385 C 0.0061 0.33432 0.26468 0.0
C386 C 0.02187 0.33348 0.23141 0.0
C387 C 0.00949 0.29244 0.21028 0.0
H388 H 0.94411 0.22137 0.26552 0.0
C389 C 0.9816 0.25216 0.22323 0.0
C390 C 0.96504 0.25317 0.25641 0.0
H391 H 0.97146 0.22001 0.20759 0.0
H392 H 0.94948 0.29243 0.43654 0.0
H393 H 0.98865 0.29199 0.37985 0.0
H394 H 0.76684 0.25792 0.3478 0.0
H395 H 0.72764 0.25841 0.40417 0.0
H396 H 0.86698 0.25162 0.30716 0.0
H397 H 0.98897 0.32166 0.32932 0.0
H398 H 0.0161 0.36643 0.28039 0.0
H399 H 0.04432 0.36486 0.22224 0.0
C400 C 0.0694 0.31218 0.72311 0.0
C401 C 0.00459 0.29204 0.70924 0.0
C402 C 0.08386 0.31179 0.75643 0.0
C403 C 0.03431 0.29054 0.77683 0.0
C404 C 0.9688 0.27134 0.7631 0.0
C405 C 0.95413 0.27196 0.72977 0.0
C406 C 0.04863 0.28812 0.81238 0.0
C407 C 0.11677 0.29112 0.82566 0.0
C408 C 0.1346 0.28698 0.86069 0.0
C409 C 0.20904 0.28209 0.86916 0.0
C410 C 0.22995 0.27791 0.90132 0.0
C411 C 0.17707 0.27863 0.92624 0.0
H412 H 0.02341 0.29298 0.88052 0.0
C413 C 0.1024 0.2841 0.91806 0.0
C414 C 0.08128 0.28834 0.88564 0.0
H415 H 0.06023 0.28498 0.93665 0.0
H416 H 0.10979 0.32781 0.70816 0.0
H417 H 0.13376 0.32861 0.76592 0.0
H418 H 0.92901 0.25533 0.77817 0.0
H419 H 0.90286 0.257 0.72017 0.0
H420 H 0.00179 0.28115 0.82745 0.0
H421 H 0.16359 0.29466 0.80979 0.0
H422 H 0.25162 0.28117 0.85072 0.0
H423 H 0.288 0.27383 0.9065 0.0
C424 C 0.20021 0.75816 0.64193 0.0
C425 C 0.15467 0.74781 0.61458 0.0
C426 C 0.17274 0.7563 0.67341 0.0
C427 C 0.099 0.74342 0.67836 0.0
C428 C 0.05347 0.73337 0.65098 0.0
C429 C 0.08089 0.73548 0.61947 0.0
C430 C 0.06678 0.74179 0.7115 0.0
C431 C 0.10758 0.73841 0.73861 0.0
C432 C 0.0769 0.73756 0.7721 0.0
C433 C 0.12448 0.72554 0.79696 0.0
C434 C 0.09963 0.72539 0.82898 0.0
C435 C 0.02624 0.73729 0.8371 0.0
H436 H 0.96479 0.76026 0.76223 0.0
C437 C 0.97838 0.74941 0.8123 0.0
C438 C 0.00335 0.74975 0.78021 0.0
H439 H 0.92135 0.75845 0.81761 0.0
H440 H 0.25696 0.76861 0.63913 0.0
H441 H 0.20938 0.76607 0.69362 0.0
H442 H 0.99632 0.72378 0.65395 0.0
H443 H 0.04415 0.72743 0.59897 0.0
H444 H 0.00716 0.74187 0.71307 0.0
H445 H 0.16691 0.73472 0.73637 0.0
H446 H 0.18154 0.71644 0.79167 0.0
H447 H 0.13851 0.71674 0.84749 0.0
loop_
_geom_bond_atom_site_label_1
_geom_bond_atom_site_label_2
_geom_bond_distance
_geom_bond_site_symmetry_2
_ccdc_geom_bond_type
C0 Eu1 2.835 . S
C0 C2 1.500 . S
C0 O20 1.257 . S
C0 O21 1.260 . S
Eu1 C0 2.835 . S
Eu1 O20 2.473 . S
Eu1 O21 2.480 . S
Eu1 O22 2.430 . S
Eu1 O23 2.670 1_556 S
Eu1 O24 2.394 . S
Eu1 O29 2.359 . S
Eu1 O31 2.374 1_556 S
C2 C0 1.500 . S
C2 C3 1.377 . S
C2 C7 1.377 . S
C3 C2 1.377 . S
C3 C4 1.395 . S
C3 H32 0.931 . S
C4 C3 1.395 . S
C4 C5 1.383 . S
C4 H33 0.931 . S
C5 C4 1.383 . S
C5 C6 1.394 . S
C6 C5 1.394 . S
C6 C7 1.378 . S
C6 H34 0.931 . S
C7 C2 1.377 . S
C7 C6 1.378 . S
C7 H35 0.931 . S
C8 O22 1.259 1_554 S
C8 O23 1.270 . S
C9 O24 1.251 . S
C9 O25 1.251 . S
C10 Eu11 2.835 . S
C10 C12 1.500 . S
C10 O26 1.257 . S
C10 O27 1.260 . S
Eu11 C10 2.835 . S
Eu11 O23 2.355 . S
Eu11 O25 2.374 1_554 S
Eu11 O26 2.473 . S
Eu11 O27 2.480 . S
Eu11 O28 2.430 . S
Eu11 O29 2.659 1_554 S
Eu11 O30 2.394 . S
C12 C10 1.500 . S
C12 C13 1.377 . S
C12 C17 1.377 . S
C13 C12 1.377 . S
C13 C14 1.395 . S
C13 H36 0.931 . S
C14 C13 1.395 . S
C14 C15 1.383 . S
C14 H37 0.931 . S
C15 C14 1.383 . S
C15 C16 1.394 . S
C16 C15 1.394 . S
C16 C17 1.378 . S
C16 H38 0.931 . S
C17 C12 1.377 . S
C17 C16 1.378 . S
C17 H39 0.931 . S
C18 O28 1.259 . S
C18 O29 1.262 1_554 S
C19 O30 1.251 . S
C19 O31 1.251 . S
O20 C0 1.257 . S
O20 Eu1 2.473 . S
O21 C0 1.260 . S
O21 Eu1 2.480 . S
O22 Eu1 2.430 . S
O22 C8 1.259 1_556 S
O23 Eu1 2.670 1_554 S
O23 C8 1.270 . S
O23 Eu11 2.355 . S
O24 Eu1 2.394 . S
O24 C9 1.251 . S
O25 C9 1.251 . S
O25 Eu11 2.374 1_556 S
O26 C10 1.257 . S
O26 Eu11 2.473 . S
O27 C10 1.260 . S
O27 Eu11 2.480 . S
O28 Eu11 2.430 . S
O28 C18 1.259 . S
O29 Eu1 2.359 . S
O29 Eu11 2.659 1_556 S
O29 C18 1.262 1_556 S
O30 Eu11 2.394 . S
O30 C19 1.251 . S
O31 Eu1 2.374 1_554 S
O31 C19 1.251 . S
H32 C3 0.931 . S
H33 C4 0.931 . S
H34 C6 0.931 . S
H35 C7 0.931 . S
H36 C13 0.931 . S
H37 C14 0.931 . S
H38 C16 0.931 . S
H39 C17 0.931 . S
C40 Eu41 2.835 . S
C40 C42 1.500 . S
C40 O60 1.257 . S
C40 O61 1.260 . S
Eu41 C40 2.835 . S
Eu41 O60 2.473 . S
Eu41 O61 2.480 . S
Eu41 O62 2.430 . S
Eu41 O63 2.670 1_556 S
Eu41 O64 2.394 . S
Eu41 O69 2.359 . S
Eu41 O71 2.374 1_556 S
C42 C40 1.500 . S
C42 C43 1.377 . S
C42 C47 1.377 . S
C43 C42 1.377 . S
C43 C44 1.395 . S
C43 H72 0.931 . S
C44 C43 1.395 . S
C44 C45 1.383 . S
C44 H73 0.931 . S
C45 C44 1.383 . S
C45 C46 1.394 . S
C46 C45 1.394 . S
C46 C47 1.378 . S
C46 H74 0.931 . S
C47 C42 1.377 . S
C47 C46 1.378 . S
C47 H75 0.931 . S
C48 O62 1.259 1_554 S
C48 O63 1.270 . S
C49 O64 1.251 . S
C49 O65 1.251 . S
C50 Eu51 2.835 . S
C50 C52 1.500 . S
C50 O66 1.257 . S
C50 O67 1.260 . S
Eu51 C50 2.835 . S
Eu51 O63 2.355 . S
Eu51 O65 2.374 1_554 S
Eu51 O66 2.473 . S
Eu51 O67 2.480 . S
Eu51 O68 2.430 . S
Eu51 O69 2.659 1_554 S
Eu51 O70 2.394 . S
C52 C50 1.500 . S
C52 C53 1.377 . S
C52 C57 1.377 . S
C53 C52 1.377 . S
C53 C54 1.395 . S
C53 H76 0.931 . S
C54 C53 1.395 . S
C54 C55 1.383 . S
C54 H77 0.931 . S
C55 C54 1.383 . S
C55 C56 1.394 . S
C56 C55 1.394 . S
C56 C57 1.378 . S
C56 H78 0.931 . S
C57 C52 1.377 . S
C57 C56 1.378 . S
C57 H79 0.931 . S
C58 O68 1.259 . S
C58 O69 1.262 1_554 S
C59 O70 1.251 . S
C59 O71 1.251 . S
O60 C40 1.257 . S
O60 Eu41 2.473 . S
O61 C40 1.260 . S
O61 Eu41 2.480 . S
O62 Eu41 2.430 . S
O62 C48 1.259 1_556 S
O63 Eu41 2.670 1_554 S
O63 C48 1.270 . S
O63 Eu51 2.355 . S
O64 Eu41 2.394 . S
O64 C49 1.251 . S
O65 C49 1.251 . S
O65 Eu51 2.374 1_556 S
O66 C50 1.257 . S
O66 Eu51 2.473 . S
O67 C50 1.260 . S
O67 Eu51 2.480 . S
O68 Eu51 2.430 . S
O68 C58 1.259 . S
O69 Eu41 2.359 . S
O69 Eu51 2.659 1_556 S
O69 C58 1.262 1_556 S
O70 Eu51 2.394 . S
O70 C59 1.251 . S
O71 Eu41 2.374 1_554 S
O71 C59 1.251 . S
H72 C43 0.931 . S
H73 C44 0.931 . S
H74 C46 0.931 . S
H75 C47 0.931 . S
H76 C53 0.931 . S
H77 C54 0.931 . S
H78 C56 0.931 . S
H79 C57 0.931 . S
C80 Eu81 2.835 . S
C80 C82 1.500 . S
C80 O100 1.257 . S
C80 O101 1.260 . S
Eu81 C80 2.835 . S
Eu81 O100 2.473 . S
Eu81 O101 2.480 . S
Eu81 O102 2.430 . S
Eu81 O103 2.670 . S
Eu81 O104 2.394 . S
Eu81 O109 2.355 . S
Eu81 O111 2.374 . S
C82 C80 1.500 . S
C82 C83 1.377 . S
C82 C87 1.377 . S
C83 C82 1.377 . S
C83 C84 1.395 . S
C83 H112 0.931 . S
C84 C83 1.395 . S
C84 C85 1.383 . S
C84 H113 0.931 . S
C85 C84 1.383 . S
C85 C86 1.394 . S
C86 C85 1.394 . S
C86 C87 1.378 . S
C86 H114 0.931 . S
C87 C82 1.377 . S
C87 C86 1.378 . S
C87 H115 0.931 . S
C88 O102 1.259 . S
C88 O103 1.270 . S
C89 O104 1.251 . S
C89 O105 1.251 . S
C90 Eu91 2.835 . S
C90 C92 1.500 . S
C90 O106 1.257 . S
C90 O107 1.260 . S
Eu91 C90 2.835 . S
Eu91 O103 2.355 . S
Eu91 O105 2.374 . S
Eu91 O106 2.473 . S
Eu91 O107 2.480 . S
Eu91 O108 2.430 . S
Eu91 O109 2.670 . S
Eu91 O110 2.394 . S
C92 C90 1.500 . S
C92 C93 1.377 . S
C92 C97 1.377 . S
C93 C92 1.377 . S
C93 C94 1.395 . S
C93 H116 0.931 . S
C94 C93 1.395 . S
C94 C95 1.383 . S
C94 H117 0.931 . S
C95 C94 1.383 . S
C95 C96 1.394 . S
C96 C95 1.394 . S
C96 C97 1.378 . S
C96 H118 0.931 . S
C97 C92 1.377 . S
C97 C96 1.378 . S
C97 H119 0.931 . S
C98 O108 1.259 . S
C98 O109 1.270 . S
C99 O110 1.251 . S
C99 O111 1.251 . S
O100 C80 1.257 . S
O100 Eu81 2.473 . S
O101 C80 1.260 . S
O101 Eu81 2.480 . S
O102 Eu81 2.430 . S
O102 C88 1.259 . S
O103 Eu81 2.670 . S
O103 C88 1.270 . S
O103 Eu91 2.355 . S
O104 Eu81 2.394 . S
O104 C89 1.251 . S
O105 C89 1.251 . S
O105 Eu91 2.374 . S
O106 C90 1.257 . S
O106 Eu91 2.473 . S
O107 C90 1.260 . S
O107 Eu91 2.480 . S
O108 Eu91 2.430 . S
O108 C98 1.259 . S
O109 Eu81 2.355 . S
O109 Eu91 2.670 . S
O109 C98 1.270 . S
O110 Eu91 2.394 . S
O110 C99 1.251 . S
O111 Eu81 2.374 . S
O111 C99 1.251 . S
H112 C83 0.931 . S
H113 C84 0.931 . S
H114 C86 0.931 . S
H115 C87 0.931 . S
H116 C93 0.931 . S
H117 C94 0.931 . S
H118 C96 0.931 . S
H119 C97 0.931 . S
C120 Eu121 2.835 . S
C120 C122 1.500 . S
C120 O140 1.257 . S
C120 O141 1.260 . S
Eu121 C120 2.835 . S
Eu121 O140 2.473 . S
Eu121 O141 2.480 . S
Eu121 O142 2.430 . S
Eu121 O143 2.670 . S
Eu121 O144 2.394 . S
Eu121 O149 2.355 . S
Eu121 O151 2.374 . S
C122 C120 1.500 . S
C122 C123 1.377 . S
C122 C127 1.377 . S
C123 C122 1.377 . S
C123 C124 1.395 . S
C123 H152 0.931 . S
C124 C123 1.395 . S
C124 C125 1.383 . S
C124 H153 0.931 . S
C125 C124 1.383 . S
C125 C126 1.394 . S
C126 C125 1.394 . S
C126 C127 1.378 . S
C126 H154 0.931 . S
C127 C122 1.377 . S
C127 C126 1.378 . S
C127 H155 0.931 . S
C128 O142 1.259 . S
C128 O143 1.270 . S
C129 O144 1.251 . S
C129 O145 1.251 . S
C130 Eu131 2.835 . S
C130 C132 1.500 . S
C130 O146 1.257 . S
C130 O147 1.260 . S
Eu131 C130 2.835 . S
Eu131 O143 2.355 . S
Eu131 O145 2.374 . S
Eu131 O146 2.473 . S
Eu131 O147 2.480 . S
Eu131 O148 2.430 . S
Eu131 O149 2.670 . S
Eu131 O150 2.394 . S
C132 C130 1.500 . S
C132 C133 1.377 . S
C132 C137 1.377 . S
C133 C132 1.377 . S
C133 C134 1.395 . S
C133 H156 0.931 . S
C134 C133 1.395 . S
C134 C135 1.383 . S
C134 H157 0.931 . S
C135 C134 1.383 . S
C135 C136 1.394 . S
C136 C135 1.394 . S
C136 C137 1.378 . S
C136 H158 0.931 . S
C137 C132 1.377 . S
C137 C136 1.378 . S
C137 H159 0.931 . S
C138 O148 1.259 . S
C138 O149 1.270 . S
C139 O150 1.251 . S
C139 O151 1.251 . S
O140 C120 1.257 . S
O140 Eu121 2.473 . S
O141 C120 1.260 . S
O141 Eu121 2.480 . S
O142 Eu121 2.430 . S
O142 C128 1.259 . S
O143 Eu121 2.670 . S
O143 C128 1.270 . S
O143 Eu131 2.355 . S
O144 Eu121 2.394 . S
O144 C129 1.251 . S
O145 C129 1.251 . S
O145 Eu131 2.374 . S
O146 C130 1.257 . S
O146 Eu131 2.473 . S
O147 C130 1.260 . S
O147 Eu131 2.480 . S
O148 Eu131 2.430 . S
O148 C138 1.259 . S
O149 Eu121 2.355 . S
O149 Eu131 2.670 . S
O149 C138 1.270 . S
O150 Eu131 2.394 . S
O150 C139 1.251 . S
O151 Eu121 2.374 . S
O151 C139 1.251 . S
H152 C123 0.931 . S
H153 C124 0.931 . S
H154 C126 0.931 . S
H155 C127 0.931 . S
H156 C133 0.931 . S
H157 C134 0.931 . S
H158 C136 0.931 . S
H159 C137 0.931 . S
C160 C161 1.386 . S
C160 C162 1.383 . S
C160 H176 0.951 . S
C161 C160 1.386 . S
C161 C165 1.383 1_554 S
C162 C160 1.383 . S
C162 C163 1.396 1_554 S
C162 H177 0.951 . S
C163 C162 1.396 1_556 S
C163 C164 1.381 . S
C163 C166 1.481 . S
C164 C163 1.381 . S
C164 C165 1.367 . S
C164 H178 0.951 . S
C165 C161 1.383 1_556 S
C165 C164 1.367 . S
C165 H179 0.950 . S
C166 C163 1.481 . S
C166 C167 1.297 1_556 S
C166 H180 0.950 . S
C167 C166 1.297 1_554 S
C167 C168 1.479 . S
C167 H181 0.950 . S
C168 C167 1.479 . S
C168 C169 1.375 . S
C168 C174 1.404 1_554 S
C169 C168 1.375 . S
C169 C170 1.369 . S
C169 H182 0.950 . S
C170 C169 1.369 . S
C170 C171 1.392 . S
C170 H183 0.951 . S
C171 C170 1.392 . S
C171 C173 1.384 1_554 S
H172 C174 0.949 . S
C173 C171 1.384 1_556 S
C173 C174 1.385 . S
C173 H175 0.950 . S
C174 C168 1.404 1_556 S
C174 H172 0.949 . S
C174 C173 1.385 . S
H175 C173 0.950 . S
H176 C160 0.951 . S
H177 C162 0.951 . S
H178 C164 0.951 . S
H179 C165 0.950 . S
H180 C166 0.950 . S
H181 C167 0.950 . S
H182 C169 0.950 . S
H183 C170 0.951 . S
C184 C185 1.386 . S
C184 C186 1.383 . S
C184 H200 0.951 . S
C185 C184 1.386 . S
C185 C189 1.383 . S
C186 C184 1.383 . S
C186 C187 1.402 . S
C186 H201 0.951 . S
C187 C186 1.402 . S
C187 C188 1.375 . S
C187 C190 1.481 . S
C188 C187 1.375 . S
C188 C189 1.367 . S
C188 H202 0.951 . S
C189 C185 1.383 . S
C189 C188 1.367 . S
C189 H203 0.950 . S
C190 C187 1.481 . S
C190 C191 1.297 . S
C190 H204 0.950 . S
C191 C190 1.297 . S
C191 C192 1.479 . S
C191 H205 0.950 . S
C192 C191 1.479 . S
C192 C193 1.375 . S
C192 C198 1.404 . S
C193 C192 1.375 . S
C193 C194 1.369 . S
C193 H206 0.950 . S
C194 C193 1.369 . S
C194 C195 1.392 . S
C194 H207 0.951 . S
C195 C194 1.392 . S
C195 C197 1.384 . S
H196 C198 0.949 . S
C197 C195 1.384 . S
C197 C198 1.385 . S
C197 H199 0.950 . S
C198 C192 1.404 . S
C198 H196 0.949 . S
C198 C197 1.385 . S
H199 C197 0.950 . S
H200 C184 0.951 . S
H201 C186 0.951 . S
H202 C188 0.951 . S
H203 C189 0.950 . S
H204 C190 0.950 . S
H205 C191 0.950 . S
H206 C193 0.950 . S
H207 C194 0.951 . S
C208 C209 1.386 1_556 S
C208 C210 1.383 . S
C208 H224 0.951 . S
C209 C208 1.386 1_554 S
C209 C213 1.383 . S
C210 C208 1.383 . S
C210 C211 1.402 1_556 S
C210 H225 0.951 . S
C211 C210 1.402 1_554 S
C211 C212 1.375 . S
C211 C214 1.481 1_545 S
C212 C211 1.375 . S
C212 C213 1.367 . S
C212 H226 0.951 . S
C213 C209 1.383 . S
C213 C212 1.367 . S
C213 H227 0.950 . S
C214 C211 1.481 1_565 S
C214 C215 1.297 1_454 S
C214 H228 0.950 . S
C215 C214 1.297 1_656 S
C215 C216 1.479 . S
C215 H229 0.950 1_565 S
C216 C215 1.479 . S
C216 C217 1.375 . S
C216 C222 1.404 1_556 S
C217 C216 1.375 . S
C217 C218 1.369 . S
C217 H230 0.950 . S
C218 C217 1.369 . S
C218 C219 1.392 1_556 S
C218 H231 0.951 . S
C219 C218 1.392 1_554 S
C219 C221 1.384 . S
H220 C222 0.949 1_455 S
C221 C219 1.384 . S
C221 C222 1.385 . S
C221 H223 0.950 . S
C222 C216 1.404 1_554 S
C222 H220 0.949 1_655 S
C222 C221 1.385 . S
H223 C221 0.950 . S
H224 C208 0.951 . S
H225 C210 0.951 . S
H226 C212 0.951 . S
H227 C213 0.950 . S
H228 C214 0.950 . S
H229 C215 0.950 1_545 S
H230 C217 0.950 . S
H231 C218 0.951 . S
C232 C233 1.386 . S
C232 C234 1.383 . S
C232 H248 0.951 . S
C233 C232 1.386 . S
C233 C237 1.383 . S
C234 C232 1.383 . S
C234 C235 1.402 . S
C234 H249 0.951 1_655 S
C235 C234 1.402 . S
C235 C236 1.375 . S
C235 C238 1.481 . S
C236 C235 1.375 . S
C236 C237 1.367 . S
C236 H250 0.951 . S
C237 C233 1.383 . S
C237 C236 1.367 . S
C237 H251 0.950 . S
C238 C235 1.481 . S
C238 C239 1.297 1_645 S
C238 H252 0.950 1_545 S
C239 C238 1.297 1_465 S
C239 C240 1.479 . S
C239 H253 0.950 1_565 S
C240 C239 1.479 . S
C240 C241 1.375 . S
C240 C246 1.404 . S
C241 C240 1.375 . S
C241 C242 1.369 . S
C241 H254 0.950 . S
C242 C241 1.369 . S
C242 C243 1.392 . S
C242 H255 0.951 . S
C243 C242 1.392 . S
C243 C245 1.384 . S
H244 C246 0.949 1_655 S
C245 C243 1.384 . S
C245 C246 1.385 . S
C245 H247 0.950 . S
C246 C240 1.404 . S
C246 H244 0.949 1_455 S
C246 C245 1.385 . S
H247 C245 0.950 . S
H248 C232 0.951 . S
H249 C234 0.951 1_455 S
H250 C236 0.951 . S
H251 C237 0.950 . S
H252 C238 0.950 1_565 S
H253 C239 0.950 1_545 S
H254 C241 0.950 . S
H255 C242 0.951 . S
C256 C257 1.386 . S
C256 C258 1.383 . S
C256 H272 0.951 . S
C257 C256 1.386 . S
C257 C261 1.383 . S
C258 C256 1.383 . S
C258 C259 1.402 . S
C258 H273 0.951 . S
C259 C258 1.402 . S
C259 C260 1.375 . S
C259 C262 1.481 . S
C260 C259 1.375 . S
C260 C261 1.367 . S
C260 H274 0.951 . S
C261 C257 1.383 . S
C261 C260 1.367 . S
C261 H275 0.950 . S
C262 C259 1.481 . S
C262 C263 1.297 . S
C262 H276 0.950 . S
C263 C262 1.297 . S
C263 C264 1.479 . S
C263 H277 0.950 . S
C264 C263 1.479 . S
C264 C265 1.375 . S
C264 C270 1.404 . S
C265 C264 1.375 . S
C265 C266 1.369 . S
C265 H278 0.950 . S
C266 C265 1.369 . S
C266 C267 1.392 . S
C266 H279 0.951 . S
C267 C266 1.392 . S
C267 C269 1.384 . S
H268 C270 0.949 . S
C269 C267 1.384 . S
C269 C270 1.385 . S
C269 H271 0.950 . S
C270 C264 1.404 . S
C270 H268 0.949 . S
C270 C269 1.385 . S
H271 C269 0.950 . S
H272 C256 0.951 . S
H273 C258 0.951 . S
H274 C260 0.951 . S
H275 C261 0.950 . S
H276 C262 0.950 . S
H277 C263 0.950 . S
H278 C265 0.950 . S
H279 C266 0.951 . S
C280 C281 1.386 . S
C280 C282 1.383 . S
C280 H296 0.951 . S
C281 C280 1.386 . S
C281 C285 1.383 . S
C282 C280 1.383 . S
C282 C283 1.402 . S
C282 H297 0.951 . S
C283 C282 1.402 . S
C283 C284 1.375 . S
C283 C286 1.481 . S
C284 C283 1.375 . S
C284 C285 1.367 . S
C284 H298 0.951 . S
C285 C281 1.383 . S
C285 C284 1.367 . S
C285 H299 0.950 . S
C286 C283 1.481 . S
C286 C287 1.297 . S
C286 H300 0.950 . S
C287 C286 1.297 . S
C287 C288 1.479 . S
C287 H301 0.950 . S
C288 C287 1.479 . S
C288 C289 1.375 . S
C288 C294 1.404 . S
C289 C288 1.375 . S
C289 C290 1.369 . S
C289 H302 0.950 . S
C290 C289 1.369 . S
C290 C291 1.392 . S
C290 H303 0.951 . S
C291 C290 1.392 . S
C291 C293 1.384 . S
H292 C294 0.949 . S
C293 C291 1.384 . S
C293 C294 1.385 . S
C293 H295 0.950 . S
C294 C288 1.404 . S
C294 H292 0.949 . S
C294 C293 1.385 . S
H295 C293 0.950 . S
H296 C280 0.951 . S
H297 C282 0.951 . S
H298 C284 0.951 . S
H299 C285 0.950 . S
H300 C286 0.950 . S
H301 C287 0.950 . S
H302 C289 0.950 . S
H303 C290 0.951 . S
C304 C305 1.386 . S
C304 C306 1.383 . S
C304 H320 0.951 . S
C305 C304 1.386 . S
C305 C309 1.383 . S
C306 C304 1.383 . S
C306 C307 1.402 . S
C306 H321 0.951 . S
C307 C306 1.402 . S
C307 C308 1.375 . S
C307 C310 1.481 . S
C308 C307 1.375 . S
C308 C309 1.367 . S
C308 H322 0.951 . S
C309 C305 1.383 . S
C309 C308 1.367 . S
C309 H323 0.950 . S
C310 C307 1.481 . S
C310 C311 1.297 . S
C310 H324 0.950 . S
C311 C310 1.297 . S
C311 C312 1.479 . S
C311 H325 0.950 . S
C312 C311 1.479 . S
C312 C313 1.375 . S
C312 C318 1.404 . S
C313 C312 1.375 . S
C313 C314 1.369 . S
C313 H326 0.950 . S
C314 C313 1.369 . S
C314 C315 1.392 . S
C314 H327 0.951 . S
C315 C314 1.392 . S
C315 C317 1.384 . S
H316 C318 0.949 . S
C317 C315 1.384 . S
C317 C318 1.385 . S
C317 H319 0.950 . S
C318 C312 1.404 . S
C318 H316 0.949 . S
C318 C317 1.385 . S
H319 C317 0.950 . S
H320 C304 0.951 . S
H321 C306 0.951 . S
H322 C308 0.951 . S
H323 C309 0.950 . S
H324 C310 0.950 . S
H325 C311 0.950 . S
H326 C313 0.950 . S
H327 C314 0.951 . S
C328 C329 1.386 . S
C328 C330 1.383 . S
C328 H344 0.951 . S
C329 C328 1.386 . S
C329 C333 1.383 . S
C330 C328 1.383 . S
C330 C331 1.402 . S
C330 H345 0.951 . S
C331 C330 1.402 . S
C331 C332 1.375 . S
C331 C334 1.481 . S
C332 C331 1.375 . S
C332 C333 1.367 . S
C332 H346 0.951 . S
C333 C329 1.383 . S
C333 C332 1.367 . S
C333 H347 0.950 . S
C334 C331 1.481 . S
C334 C335 1.297 . S
C334 H348 0.950 . S
C335 C334 1.297 . S
C335 C336 1.479 . S
C335 H349 0.950 . S
C336 C335 1.479 . S
C336 C337 1.375 . S
C336 C342 1.404 . S
C337 C336 1.375 . S
C337 C338 1.369 . S
C337 H350 0.950 . S
C338 C337 1.369 . S
C338 C339 1.392 . S
C338 H351 0.951 . S
C339 C338 1.392 . S
C339 C341 1.384 . S
H340 C342 0.949 . S
C341 C339 1.384 . S
C341 C342 1.385 . S
C341 H343 0.950 . S
C342 C336 1.404 . S
C342 H340 0.949 . S
C342 C341 1.385 . S
H343 C341 0.950 . S
H344 C328 0.951 . S
H345 C330 0.951 . S
H346 C332 0.951 . S
H347 C333 0.950 . S
H348 C334 0.950 . S
H349 C335 0.950 . S
H350 C337 0.950 . S
H351 C338 0.951 . S
C352 C353 1.386 . S
C352 C354 1.383 . S
C352 H368 0.951 . S
C353 C352 1.386 . S
C353 C357 1.383 . S
C354 C352 1.383 . S
C354 C355 1.402 . S
C354 H369 0.951 . S
C355 C354 1.402 . S
C355 C356 1.375 . S
C355 C358 1.481 . S
C356 C355 1.375 . S
C356 C357 1.367 . S
C356 H370 0.951 . S
C357 C353 1.383 . S
C357 C356 1.367 . S
C357 H371 0.950 . S
C358 C355 1.481 . S
C358 C359 1.297 . S
C358 H372 0.950 . S
C359 C358 1.297 . S
C359 C360 1.479 . S
C359 H373 0.950 . S
C360 C359 1.479 . S
C360 C361 1.375 . S
C360 C366 1.404 . S
C361 C360 1.375 . S
C361 C362 1.369 . S
C361 H374 0.950 . S
C362 C361 1.369 . S
C362 C363 1.400 . S
C362 H375 0.951 . S
C363 C362 1.400 . S
C363 C365 1.381 1_655 S
H364 C366 0.949 1_455 S
C365 C363 1.381 1_455 S
C365 C366 1.385 1_455 S
C365 H367 0.950 . S
C366 C360 1.404 . S
C366 H364 0.949 1_655 S
C366 C365 1.385 1_655 S
H367 C365 0.950 . S
H368 C352 0.951 . S
H369 C354 0.951 . S
H370 C356 0.951 . S
H371 C357 0.950 . S
H372 C358 0.950 . S
H373 C359 0.950 . S
H374 C361 0.950 . S
H375 C362 0.951 . S
C376 C377 1.386 . S
C376 C378 1.383 . S
C376 H392 0.951 . S
C377 C376 1.386 . S
C377 C381 1.383 . S
C378 C376 1.383 . S
C378 C379 1.402 . S
C378 H393 0.951 . S
C379 C378 1.402 . S
C379 C380 1.375 . S
C379 C382 1.481 . S
C380 C379 1.375 . S
C380 C381 1.367 . S
C380 H394 0.951 . S
C381 C377 1.383 . S
C381 C380 1.367 . S
C381 H395 0.950 . S
C382 C379 1.481 . S
C382 C383 1.297 . S
C382 H396 0.950 . S
C383 C382 1.297 . S
C383 C384 1.479 . S
C383 H397 0.950 . S
C384 C383 1.479 . S
C384 C385 1.375 1_655 S
C384 C390 1.404 . S
C385 C384 1.375 1_455 S
C385 C386 1.369 . S
C385 H398 0.950 . S
C386 C385 1.369 . S
C386 C387 1.392 . S
C386 H399 0.951 . S
C387 C386 1.392 . S
C387 C389 1.384 1_455 S
H388 C390 0.949 . S
C389 C387 1.384 1_655 S
C389 C390 1.385 . S
C389 H391 0.950 . S
C390 C384 1.404 . S
C390 H388 0.949 . S
C390 C389 1.385 . S
H391 C389 0.950 . S
H392 C376 0.951 . S
H393 C378 0.951 . S
H394 C380 0.951 . S
H395 C381 0.950 . S
H396 C382 0.950 . S
H397 C383 0.950 . S
H398 C385 0.950 . S
H399 C386 0.951 . S
C400 C401 1.386 1_455 S
C400 C402 1.383 . S
C400 H416 0.951 . S
C401 C400 1.386 1_655 S
C401 C405 1.383 . S
C402 C400 1.383 . S
C402 C403 1.402 . S
C402 H417 0.951 . S
C403 C402 1.402 . S
C403 C404 1.375 1_455 S
C403 C406 1.481 . S
C404 C403 1.375 1_655 S
C404 C405 1.367 . S
C404 H418 0.951 . S
C405 C401 1.383 . S
C405 C404 1.367 . S
C405 H419 0.950 . S
C406 C403 1.481 . S
C406 C407 1.297 . S
C406 H420 0.950 . S
C407 C406 1.297 . S
C407 C408 1.479 . S
C407 H421 0.950 . S
C408 C407 1.479 . S
C408 C409 1.375 . S
C408 C414 1.404 . S
C409 C408 1.375 . S
C409 C410 1.369 . S
C409 H422 0.950 . S
C410 C409 1.369 . S
C410 C411 1.392 . S
C410 H423 0.951 . S
C411 C410 1.392 . S
C411 C413 1.384 . S
H412 C414 0.949 . S
C413 C411 1.384 . S
C413 C414 1.385 . S
C413 H415 0.950 . S
C414 C408 1.404 . S
C414 H412 0.949 . S
C414 C413 1.385 . S
H415 C413 0.950 . S
H416 C400 0.951 . S
H417 C402 0.951 . S
H418 C404 0.951 . S
H419 C405 0.950 . S
H420 C406 0.950 . S
H421 C407 0.950 . S
H422 C409 0.950 . S
H423 C410 0.951 . S
C424 C425 1.386 . S
C424 C426 1.383 . S
C424 H440 0.951 . S
C425 C424 1.386 . S
C425 C429 1.383 . S
C426 C424 1.383 . S
C426 C427 1.402 . S
C426 H441 0.951 . S
C427 C426 1.402 . S
C427 C428 1.375 . S
C427 C430 1.481 . S
C428 C427 1.375 . S
C428 C429 1.367 . S
C428 H442 0.951 . S
C429 C425 1.383 . S
C429 C428 1.367 . S
C429 H443 0.950 . S
C430 C427 1.481 . S
C430 C431 1.297 . S
C430 H444 0.950 . S
C431 C430 1.297 . S
C431 C432 1.479 . S
C431 H445 0.950 . S
C432 C431 1.479 . S
C432 C433 1.375 . S
C432 C438 1.404 . S
C433 C432 1.375 . S
C433 C434 1.369 . S
C433 H446 0.950 . S
C434 C433 1.369 . S
C434 C435 1.392 . S
C434 H447 0.951 . S
C435 C434 1.392 . S
C435 C437 1.384 1_455 S
H436 C438 0.949 1_655 S
C437 C435 1.384 1_655 S
C437 C438 1.385 1_655 S
C437 H439 0.950 . S
C438 C432 1.404 . S
C438 H436 0.949 1_455 S
C438 C437 1.385 1_455 S
H439 C437 0.950 . S
H440 C424 0.951 . S
H441 C426 0.951 . S
H442 C428 0.951 . S
H443 C429 0.950 . S
H444 C430 0.950 . S
H445 C431 0.950 . S
H446 C433 0.950 . S
H447 C434 0.951 . S
C161 C48 1.506 . S
C171 C18 1.463 . S
C185 C98 1.519 . S
C195 C128 1.469 . S
C209 C8 1.483 . S
C219 C58 1.519 . S
C233 C138 1.498 . S
C243 C88 1.469 . S
C257 C135 1.240 . S
C267 C19 1.245 . S
C281 C55 1.247 . S
C291 C99 1.246 . S
C305 C49 1.222 . S
C315 C85 1.215 . S
C329 C129 1.249 . S
C339 C5 1.231 . S
C353 C59 1.248 . S
C363 C95 1.249 1_655 S
C377 C139 1.219 . S
C387 C15 1.205 . S
C401 C125 1.221 . S
C411 C9 1.243 . S
C425 C89 1.218 . S
C435 C45 1.230 1_455 S
