# Generated by pormake.
# Topology uku, (4)-cn, num edge types: 1
# Building blocks:
#     Node 0, Type 0, BuildingBlock: QUQFOY_clean_sbu_3, # of connection points: 4
#     Node 1, Type 0, BuildingBlock: QUQFOY_clean_sbu_3, # of connection points: 4
#     Node 2, Type 0, BuildingBlock: QUQFOY_clean_sbu_3, # of connection points: 4
#     Node 3, Type 0, BuildingBlock: QUQFOY_clean_sbu_3, # of connection points: 4
#     Node 4, Type 0, BuildingBlock: QUQFOY_clean_sbu_3, # of connection points: 4
#     Node 5, Type 0, BuildingBlock: QUQFOY_clean_sbu_3, # of connection points: 4
#     Node 6, Type 0, BuildingBlock: QUQFOY_clean_sbu_3, # of connection points: 4
#     Node 7, Type 0, BuildingBlock: QUQFOY_clean_sbu_3, # of connection points: 4
#     Node 8, Type 0, BuildingBlock: QUQFOY_clean_sbu_3, # of connection points: 4
#     Node 9, Type 0, BuildingBlock: QUQFOY_clean_sbu_3, # of connection points: 4
#     Node 10, Type 0, BuildingBlock: QUQFOY_clean_sbu_3, # of connection points: 4
#     Node 11, Type 0, BuildingBlock: QUQFOY_clean_sbu_3, # of connection points: 4
#     Edge 12, Type (0, 0), BuildingBlock: ZUJKAS_clean_linker_0, # of connection points: 2
#     Edge 13, Type (0, 0), BuildingBlock: ZUJKAS_clean_linker_0, # of connection points: 2
#     Edge 14, Type (0, 0), BuildingBlock: ZUJKAS_clean_linker_0, # of connection points: 2
#     Edge 15, Type (0, 0), BuildingBlock: ZUJKAS_clean_linker_0, # of connection points: 2
#     Edge 16, Type (0, 0), BuildingBlock: ZUJKAS_clean_linker_0, # of connection points: 2
#     Edge 17, Type (0, 0), BuildingBlock: ZUJKAS_clean_linker_0, # of connection points: 2
#     Edge 18, Type (0, 0), BuildingBlock: ZUJKAS_clean_linker_0, # of connection points: 2
#     Edge 19, Type (0, 0), BuildingBlock: ZUJKAS_clean_linker_0, # of connection points: 2
#     Edge 20, Type (0, 0), BuildingBlock: ZUJKAS_clean_linker_0, # of connection points: 2
#     Edge 21, Type (0, 0), BuildingBlock: ZUJKAS_clean_linker_0, # of connection points: 2
#     Edge 22, Type (0, 0), BuildingBlock: ZUJKAS_clean_linker_0, # of connection points: 2
#     Edge 23, Type (0, 0), BuildingBlock: ZUJKAS_clean_linker_0, # of connection points: 2
#     Edge 24, Type (0, 0), BuildingBlock: ZUJKAS_clean_linker_0, # of connection points: 2
#     Edge 25, Type (0, 0), BuildingBlock: ZUJKAS_clean_linker_0, # of connection points: 2
#     Edge 26, Type (0, 0), BuildingBlock: ZUJKAS_clean_linker_0, # of connection points: 2
#     Edge 27, Type (0, 0), BuildingBlock: ZUJKAS_clean_linker_0, # of connection points: 2
#     Edge 28, Type (0, 0), BuildingBlock: ZUJKAS_clean_linker_0, # of connection points: 2
#     Edge 29, Type (0, 0), BuildingBlock: ZUJKAS_clean_linker_0, # of connection points: 2
#     Edge 30, Type (0, 0), BuildingBlock: ZUJKAS_clean_linker_0, # of connection points: 2
#     Edge 31, Type (0, 0), BuildingBlock: ZUJKAS_clean_linker_0, # of connection points: 2
#     Edge 32, Type (0, 0), BuildingBlock: ZUJKAS_clean_linker_0, # of connection points: 2
#     Edge 33, Type (0, 0), BuildingBlock: ZUJKAS_clean_linker_0, # of connection points: 2
#     Edge 34, Type (0, 0), BuildingBlock: ZUJKAS_clean_linker_0, # of connection points: 2
#     Edge 35, Type (0, 0), BuildingBlock: ZUJKAS_clean_linker_0, # of connection points: 2
# Relax obj value: 0.368
# Max RMSD: 0.259
# Mean RMSD: 0.259
data_MOF--net-uku--node1-QUQFOY_clean_sbu_3--edge1-ZUJKAS_clean_linker_0
_symmetry_space_group_name_H-M    P1
_symmetry_Int_Tables_number       1
_symmetry_cell_setting            triclinic
loop_
_symmetry_equiv_pos_as_xyz
'x, y, z'
_cell_length_a     56.288806
_cell_length_b     56.219392
_cell_length_c     56.015425
_cell_angle_alpha  90.226716
_cell_angle_beta   89.522878
_cell_angle_gamma 89.804754
loop_
_atom_site_label
_atom_site_type_symbol
_atom_site_fract_x
_atom_site_fract_y
_atom_site_fract_z
_atom_type_partial_charge
C0 C 0.02102 0.17187 0.67626 0.0
O1 O 0.01213 0.1543 0.68731 0.0
Cd2 Cd 0.01553 0.11431 0.67235 0.0
O3 O 0.02907 0.16934 0.6551 0.0
Cd4 Cd 0.03136 0.13937 0.62282 0.0
C5 C 0.07504 0.11489 0.65463 0.0
O6 O -0.0002 0.11131 0.63323 0.0
O7 O 0.02633 0.09964 0.60753 0.0
O8 O 0.00775 0.16524 0.59833 0.0
C9 C 0.00768 0.095 0.61944 0.0
O10 O 0.05834 0.10887 0.66884 0.0
C11 C 0.02265 0.16675 0.58128 0.0
O12 O 0.07098 0.12688 0.63581 0.0
O13 O 0.04236 0.15591 0.58379 0.0
C14 C 0.90397 0.78396 0.67902 0.0
O15 O 0.90995 0.80321 0.68927 0.0
Cd16 Cd 0.91476 0.8408 0.66928 0.0
O17 O 0.90183 0.78307 0.65644 0.0
Cd18 Cd 0.90691 0.80891 0.62134 0.0
C19 C 0.86024 0.84131 0.64075 0.0
O20 O 0.93804 0.83618 0.6343 0.0
O21 O 0.91789 0.84638 0.60332 0.0
O22 O 0.93228 0.77876 0.60377 0.0
C23 C 0.93431 0.85125 0.61788 0.0
O24 O 0.87499 0.84991 0.6556 0.0
C25 C 0.92101 0.77706 0.58432 0.0
O26 O 0.86608 0.82422 0.62679 0.0
O27 O 0.90222 0.78955 0.58241 0.0
C28 C 0.02394 0.76952 0.27007 0.0
O29 O 0.01455 0.78757 0.26034 0.0
Cd30 Cd 0.01879 0.82669 0.27701 0.0
O31 O 0.03272 0.77112 0.29088 0.0
Cd32 Cd 0.03574 0.79989 0.3242 0.0
C33 C 0.07883 0.82448 0.2916 0.0
O34 O 0.00418 0.82907 0.31692 0.0
O35 O 0.03296 0.83969 0.33995 0.0
O36 O 0.01205 0.77415 0.34893 0.0
C37 C 0.01338 0.8449 0.33022 0.0
O38 O 0.06176 0.8314 0.27851 0.0
C39 C 0.02722 0.7717 0.36537 0.0
O40 O 0.07523 0.81176 0.31007 0.0
O41 O 0.04716 0.78195 0.36241 0.0
C42 C 0.91623 0.15839 0.26546 0.0
O43 O 0.92455 0.1396 0.25587 0.0
Cd44 Cd 0.92173 0.10167 0.27525 0.0
O45 O 0.90922 0.15826 0.28711 0.0
Cd46 Cd 0.90851 0.13163 0.32201 0.0
C47 C 0.86291 0.10554 0.29494 0.0
O48 O 0.93972 0.10221 0.31347 0.0
O49 O 0.91273 0.09268 0.33938 0.0
O50 O 0.93334 0.16001 0.34216 0.0
C51 C 0.93174 0.08715 0.32837 0.0
O52 O 0.87908 0.09703 0.28127 0.0
C53 C 0.92027 0.16222 0.3606 0.0
O54 O 0.86797 0.12006 0.31169 0.0
O55 O 0.90084 0.1507 0.36085 0.0
C56 C 0.65183 0.04783 0.18431 0.0
O57 O 0.64613 0.02706 0.17782 0.0
Cd58 Cd 0.62412 0.0428 0.14343 0.0
O59 O 0.64304 0.06494 0.17272 0.0
Cd60 Cd 0.61317 0.04959 0.14108 0.0
C61 C 0.62993 0.09589 0.12559 0.0
O62 O 0.63067 0.01899 0.1108 0.0
O63 O 0.60974 0.04807 0.09741 0.0
O64 O 0.59459 0.01899 0.1664 0.0
C65 C 0.62143 0.02922 0.09297 0.0
O66 O 0.64464 0.07916 0.12887 0.0
C67 C 0.57357 0.02677 0.1641 0.0
O68 O 0.60824 0.09181 0.1302 0.0
O69 O 0.57096 0.04557 0.15182 0.0
C70 C 0.27104 0.91334 0.16408 0.0
O71 O 0.26292 0.92575 0.1471 0.0
Cd72 Cd 0.27976 0.92191 0.10757 0.0
O73 O 0.29054 0.90206 0.16165 0.0
Cd74 Cd 0.32408 0.89853 0.13334 0.0
C75 C 0.28888 0.86046 0.1051 0.0
O76 O 0.3204 0.9329 0.10677 0.0
O77 O 0.34068 0.90269 0.09381 0.0
O78 O 0.34842 0.91745 0.16281 0.0
C79 C 0.33307 0.92362 0.09027 0.0
O80 O 0.2781 0.87932 0.09861 0.0
C81 C 0.3647 0.90179 0.16282 0.0
O82 O 0.3064 0.86147 0.11938 0.0
O83 O 0.36166 0.88358 0.14961 0.0
C84 C 0.67675 0.91617 0.77731 0.0
O85 O 0.68798 0.92531 0.79463 0.0
Cd86 Cd 0.67236 0.9265 0.83486 0.0
O87 O 0.65536 0.90947 0.78007 0.0
Cd88 Cd 0.62366 0.91016 0.81055 0.0
C89 C 0.65356 0.86781 0.83955 0.0
O90 O 0.63386 0.94375 0.8367 0.0
O91 O 0.60932 0.91755 0.85046 0.0
O92 O 0.59989 0.93251 0.78294 0.0
C93 C 0.6205 0.93681 0.85371 0.0
O94 O 0.667 0.88498 0.8456 0.0
C95 C 0.5822 0.91858 0.78319 0.0
O96 O 0.63657 0.87097 0.82493 0.0
O97 O 0.58402 0.89985 0.79576 0.0
C98 C 0.26741 0.02223 0.77713 0.0
O99 O 0.25902 0.01065 0.79466 0.0
Cd100 Cd 0.2764 0.01485 0.83363 0.0
O101 O 0.2874 0.03255 0.77869 0.0
Cd102 Cd 0.32123 0.03448 0.80623 0.0
C103 C 0.28876 0.07568 0.83402 0.0
O104 O 0.31637 0.00154 0.83462 0.0
O105 O 0.33739 0.03173 0.84569 0.0
O106 O 0.34431 0.01235 0.77737 0.0
C107 C 0.32937 0.01122 0.85038 0.0
O108 O 0.27724 0.05762 0.84147 0.0
C109 C 0.36171 0.02662 0.77666 0.0
O110 O 0.30583 0.07329 0.81905 0.0
O111 O 0.35981 0.04566 0.78893 0.0
C112 C 0.15413 0.66609 0.02643 0.0
O113 O 0.13484 0.67402 0.0179 0.0
Cd114 Cd 0.09836 0.65188 0.01807 0.0
O115 O 0.15558 0.64469 0.03361 0.0
Cd116 Cd 0.1315 0.60814 0.03536 0.0
C117 C 0.09851 0.63489 0.07779 0.0
O118 O 0.10491 0.61358 0.00142 0.0
O119 O 0.09472 0.58748 0.02767 0.0
O120 O 0.16508 0.58883 0.01597 0.0
C121 C 0.09018 0.59788 0.00821 0.0
O122 O 0.08964 0.64639 0.06041 0.0
C123 C 0.16522 0.57076 0.02947 0.0
O124 O 0.11578 0.62043 0.0745 0.0
O125 O 0.15018 0.57046 0.04654 0.0
C126 C 0.15685 0.27266 0.91274 0.0
O127 O 0.13778 0.2645 0.92176 0.0
Cd128 Cd 0.10078 0.28609 0.92272 0.0
O129 O 0.15794 0.29418 0.90587 0.0
Cd130 Cd 0.13349 0.33071 0.90561 0.0
C131 C 0.10104 0.30432 0.86326 0.0
O132 O 0.10618 0.32444 0.93927 0.0
O133 O 0.09652 0.35119 0.91356 0.0
O134 O 0.16637 0.34987 0.92554 0.0
C135 C 0.09136 0.34011 0.93254 0.0
O136 O 0.09254 0.29233 0.8806 0.0
C137 C 0.16672 0.36806 0.9122 0.0
O138 O 0.11791 0.31909 0.86647 0.0
O139 O 0.15213 0.36851 0.89498 0.0
C140 C 0.78113 0.67209 0.91728 0.0
O141 O 0.80089 0.68041 0.92415 0.0
Cd142 Cd 0.83749 0.65804 0.92149 0.0
O143 O 0.77945 0.65037 0.91111 0.0
Cd144 Cd 0.80354 0.61388 0.90941 0.0
C145 C 0.83149 0.63835 0.86288 0.0
O146 O 0.83426 0.62014 0.93949 0.0
O147 O 0.84138 0.59385 0.91204 0.0
O148 O 0.77465 0.59628 0.93577 0.0
C149 C 0.84819 0.60441 0.93081 0.0
O150 O 0.84212 0.65035 0.87892 0.0
C151 C 0.77098 0.57787 0.92318 0.0
O152 O 0.81443 0.62438 0.8682 0.0
O153 O 0.78186 0.57652 0.90318 0.0
C154 C 0.77483 0.26761 0.0206 0.0
O155 O 0.79245 0.25879 0.00934 0.0
Cd156 Cd 0.8312 0.27674 0.01343 0.0
O157 O 0.77651 0.28785 0.03062 0.0
Cd158 Cd 0.80384 0.32158 0.03379 0.0
C159 C 0.83109 0.28869 0.07456 0.0
O160 O 0.83297 0.31718 0.00108 0.0
O161 O 0.8429 0.33833 0.03181 0.0
O162 O 0.77646 0.3453 0.01137 0.0
C163 C 0.84831 0.33026 0.01129 0.0
O164 O 0.83855 0.2772 0.05629 0.0
C165 C 0.77355 0.36143 0.02704 0.0
O166 O 0.81638 0.30585 0.07241 0.0
O167 O 0.78439 0.35878 0.04673 0.0
H168 H 0.95994 0.18966 0.36374 0.0
H169 H -0.02056 0.20265 0.40034 0.0
H170 H 0.92049 0.17644 0.44204 0.0
H171 H 0.90075 0.16329 0.4055 0.0
H172 H 0.95301 0.22743 0.4542 0.0
H173 H -0.0053 0.13752 0.44549 0.0
H174 H -0.01039 0.15552 0.41944 0.0
H175 H 0.9649 0.14271 0.43504 0.0
C176 C 0.95076 0.18728 0.38063 0.0
C177 C 0.92898 0.1751 0.38181 0.0
C178 C 0.96189 0.19485 0.40148 0.0
C179 C 0.95137 0.1904 0.42373 0.0
C180 C 0.92873 0.18012 0.4249 0.0
H181 H -0.01959 0.18765 0.57058 0.0
H182 H 0.96653 0.1992 0.53132 0.0
C183 C 0.91754 0.17256 0.40404 0.0
C184 C 0.96569 0.19227 0.44554 0.0
H185 H 0.00276 0.15933 0.48002 0.0
C186 C 0.96412 0.21272 0.45984 0.0
C187 C -0.01965 0.17314 0.45248 0.0
C188 C -0.01735 0.1509 0.43743 0.0
C189 C -0.02356 0.2142 0.48153 0.0
C190 C -0.00984 0.19449 0.48911 0.0
C191 C -0.00762 0.17448 0.47419 0.0
C192 C 0.0002 0.19276 0.51341 0.0
C193 C -0.02547 0.23674 0.4961 0.0
C194 C 0.02388 0.1855 0.51658 0.0
C195 C 0.03179 0.17838 0.53905 0.0
C196 C 0.0161 0.17843 0.55869 0.0
C197 C -0.00706 0.18736 0.5558 0.0
C198 C -0.01498 0.19426 0.53334 0.0
H199 H -0.02842 0.25242 0.48446 0.0
H200 H 0.95904 0.23541 0.50841 0.0
H201 H -0.00927 0.23977 0.50685 0.0
H202 H 0.03587 0.1841 0.50141 0.0
H203 H 0.04976 0.17169 0.54076 0.0
H204 H 0.05507 0.76415 0.40459 0.0
H205 H 0.04166 0.75093 0.44406 0.0
H206 H -0.02895 0.74039 0.4166 0.0
H207 H -0.01555 0.75259 0.37724 0.0
H208 H 0.01099 0.77574 0.46836 0.0
H209 H -0.02605 0.68554 0.46085 0.0
H210 H -0.00699 0.69795 0.43803 0.0
H211 H 0.96152 0.70407 0.43819 0.0
C212 C 0.03689 0.75827 0.40684 0.0
C213 C 0.02076 0.75964 0.38789 0.0
C214 C 0.02925 0.75069 0.42938 0.0
C215 C 0.00537 0.74442 0.43331 0.0
C216 C -0.01033 0.74445 0.41399 0.0
H217 H 0.90388 0.77411 0.53884 0.0
H218 H 0.92565 0.75996 0.5035 0.0
C219 C -0.00266 0.75176 0.39147 0.0
C220 C -0.00421 0.74215 0.45794 0.0
H221 H 0.95595 0.71101 0.49189 0.0
C222 C -0.00048 0.76121 0.47372 0.0
C223 C -0.01929 0.72326 0.46499 0.0
C224 C -0.02269 0.70146 0.44965 0.0
C225 C -0.01257 0.76268 0.49561 0.0
C226 C -0.02881 0.74462 0.50188 0.0
C227 C 0.96828 0.72492 0.4868 0.0
C228 C 0.95597 0.74729 0.52327 0.0
C229 C -0.0089 0.78418 0.51139 0.0
C230 C 0.9655 0.74387 0.54601 0.0
C231 C 0.95316 0.75195 0.5662 0.0
C232 C 0.93117 0.76368 0.56388 0.0
C233 C 0.92081 0.76524 0.54119 0.0
C234 C 0.93317 0.75711 0.521 0.0
H235 H 0.00336 0.79734 0.50321 0.0
H236 H -0.0262 0.79305 0.51514 0.0
H237 H -0.00142 0.77848 0.52872 0.0
H238 H -0.01687 0.73637 0.54799 0.0
H239 H 0.96155 0.75033 0.58345 0.0
H240 H 0.4063 0.87652 0.15927 0.0
H241 H 0.44571 0.89068 0.17061 0.0
H242 H 0.41384 0.9526 0.20367 0.0
H243 H 0.37463 0.93835 0.19301 0.0
H244 H 0.46055 0.93055 0.15047 0.0
H245 H 0.46837 0.94155 0.24797 0.0
H246 H 0.44607 0.92277 0.23466 0.0
H247 H 0.44111 0.95433 0.23771 0.0
C248 C 0.40766 0.89266 0.16979 0.0
C249 C 0.38742 0.90653 0.17491 0.0
C250 C 0.43018 0.90073 0.17626 0.0
C251 C 0.43275 0.92269 0.18803 0.0
C252 C 0.41236 0.9354 0.19503 0.0
H253 H 0.5264 0.0356 0.15701 0.0
H254 H 0.49324 0.00903 0.16623 0.0
C255 C 0.3899 0.92733 0.18866 0.0
C256 C 0.45613 0.93468 0.18855 0.0
H257 H 0.49198 0.96885 0.22359 0.0
C258 C 0.46769 0.93842 0.16659 0.0
C259 C 0.4655 0.945 0.20954 0.0
C260 C 0.45471 0.94048 0.23381 0.0
C261 C 0.48749 0.95329 0.16482 0.0
C262 C 0.49575 0.96498 0.18549 0.0
C263 C 0.4852 0.9602 0.20771 0.0
C264 C 0.51496 -0.01733 0.18382 0.0
C265 C 0.49907 0.95694 0.14071 0.0
C266 C 0.53786 -0.02304 0.19154 0.0
C267 C 0.55683 -0.00794 0.18626 0.0
C268 C 0.5531 0.0131 0.17324 0.0
C269 C 0.52984 0.0195 0.16697 0.0
C270 C 0.51091 0.00435 0.1722 0.0
H271 H 0.49391 0.94292 0.12773 0.0
H272 H 0.49346 -0.02558 0.13349 0.0
H273 H 0.51872 0.95702 0.14224 0.0
H274 H 0.54124 0.96028 0.20054 0.0
H275 H 0.57455 -0.01329 0.19146 0.0
H276 H 0.53923 0.89599 0.78555 0.0
H277 H 0.5008 0.91223 0.7734 0.0
H278 H 0.53594 -0.0265 0.74358 0.0
H279 H 0.57429 0.95728 0.75523 0.0
H280 H 0.48628 0.95398 0.79336 0.0
H281 H 0.48402 0.96176 0.69486 0.0
H282 H 0.50458 0.94238 0.71006 0.0
H283 H 0.51063 -0.02633 0.7076 0.0
C284 C 0.53882 0.91255 0.77574 0.0
C285 C 0.55974 0.9255 0.77161 0.0
C286 C 0.51687 0.92179 0.76879 0.0
C287 C 0.51553 0.94402 0.75749 0.0
C288 C 0.53655 0.95613 0.75185 0.0
H289 H 0.4053 0.04747 0.78106 0.0
H290 H 0.44362 0.02879 0.77166 0.0
C291 C 0.55848 0.94691 0.75875 0.0
C292 C 0.49239 0.95639 0.75543 0.0
H293 H 0.4561 -0.01394 0.71692 0.0
C294 C 0.47957 0.96073 0.77659 0.0
C295 C 0.48374 0.96528 0.73355 0.0
C296 C 0.49634 0.96035 0.71019 0.0
C297 C 0.45861 -0.02586 0.77658 0.0
C298 C 0.45041 -0.0162 0.75489 0.0
C299 C 0.46278 -0.02102 0.73356 0.0
C300 C 0.42834 -0.00199 0.75442 0.0
C301 C 0.44533 -0.02208 0.79984 0.0
C302 C 0.40731 -0.01254 0.74655 0.0
C303 C 0.38542 -0.00197 0.75192 0.0
C304 C 0.38434 0.0193 0.76524 0.0
C305 C 0.40557 0.03104 0.77088 0.0
C306 C 0.42746 0.0204 0.76555 0.0
H307 H 0.45172 0.96585 0.8141 0.0
H308 H 0.44786 -0.00346 0.80596 0.0
H309 H 0.42599 -0.02497 0.79742 0.0
H310 H 0.4077 -0.02983 0.73794 0.0
H311 H 0.36936 -0.01134 0.74713 0.0
H312 H 0.15656 0.41425 0.90303 0.0
H313 H 0.1738 0.44879 0.92228 0.0
H314 H 0.2267 0.40404 0.95514 0.0
H315 H 0.20815 0.36904 0.93716 0.0
H316 H 0.20944 0.42836 -0.01265 0.0
H317 H 0.22634 0.49303 0.91692 0.0
H318 H 0.19642 0.48351 0.91267 0.0
H319 H 0.22052 0.46227 0.90982 0.0
C320 C 0.17232 0.41186 0.91374 0.0
C321 C 0.18096 0.38901 0.91871 0.0
C322 C 0.1824 0.43173 0.92463 0.0
C323 C 0.20189 0.42927 0.93999 0.0
C324 C 0.21169 0.40651 0.94342 0.0
H325 H 0.20728 0.56954 0.00489 0.0
H326 H 0.22634 0.53441 -0.01284 0.0
C327 C 0.20115 0.38652 0.93308 0.0
C328 C 0.20908 0.44967 0.9553 0.0
H329 H 0.20979 0.51019 0.9549 0.0
C330 C 0.2103 0.4462 -0.01988 0.0
C331 C 0.21133 0.47302 0.94624 0.0
C332 C 0.21389 0.47802 0.91991 0.0
C333 C 0.21082 0.46552 -0.00398 0.0
C334 C 0.20876 0.48888 -0.01305 0.0
C335 C 0.2105 0.49234 0.96214 0.0
C336 C 0.20124 0.50934 0.00222 0.0
C337 C 0.21283 0.4605 0.02236 0.0
C338 C 0.18142 0.507 0.01749 0.0
C339 C 0.17105 0.52695 0.02824 0.0
C340 C 0.17972 0.54975 0.02323 0.0
C341 C 0.20025 0.55211 0.00901 0.0
C342 C 0.21108 0.53204 -0.0012 0.0
H343 H 0.22523 0.44542 0.0254 0.0
H344 H 0.21924 0.47621 0.03248 0.0
H345 H 0.19522 0.45511 0.02952 0.0
H346 H 0.17281 0.48998 0.01983 0.0
H347 H 0.15504 0.52466 0.03885 0.0
H348 H 0.74479 0.57723 0.9643 0.0
H349 H 0.73134 0.54197 -0.01418 0.0
H350 H 0.75349 0.49763 0.92672 0.0
H351 H 0.76707 0.53281 0.90496 0.0
H352 H 0.70645 0.48509 0.9584 0.0
H353 H 0.79318 0.49877 0.00401 0.0
H354 H 0.77329 0.52367 0.00063 0.0
H355 H 0.78757 0.51097 -0.02517 0.0
C356 C 0.74614 0.56006 0.95553 0.0
C357 C 0.75739 0.55772 0.93311 0.0
C358 C 0.73834 0.53998 0.96784 0.0
C359 C 0.74163 0.51732 0.95787 0.0
C360 C 0.75076 0.51507 0.93459 0.0
H361 H 0.75267 0.37248 -0.01507 0.0
H362 H 0.73844 0.41118 -0.02762 0.0
C363 C 0.75857 0.53517 0.92223 0.0
C364 C 0.73988 0.49607 -0.0269 0.0
H365 H 0.77265 0.46384 0.01233 0.0
C366 C 0.72068 0.4805 0.97049 0.0
C367 C 0.75835 0.49043 -0.01095 0.0
C368 C 0.77937 0.50671 -0.0076 0.0
C369 C 0.71995 0.45883 -0.0171 0.0
C370 C 0.73926 0.45243 -0.00235 0.0
C371 C 0.75779 0.4687 0.00113 0.0
C372 C 0.74262 0.42799 0.00695 0.0
C373 C 0.69865 0.44295 -0.02017 0.0
C374 C 0.74964 0.42431 0.03069 0.0
C375 C 0.75842 0.40216 0.03783 0.0
C376 C 0.76024 0.38335 0.02132 0.0
C377 C 0.75155 0.38661 -0.0019 0.0
C378 C 0.74306 0.40875 -0.00907 0.0
H379 H 0.6823 0.45367 -0.02298 0.0
H380 H 0.70132 0.43163 0.96374 0.0
H381 H 0.69586 0.43126 -0.00447 0.0
H382 H 0.74958 0.43894 0.04334 0.0
H383 H 0.76489 0.40015 0.05587 0.0
H384 H 0.10698 0.09234 0.62523 0.0
H385 H 0.14319 0.07132 0.63787 0.0
H386 H 0.13341 0.09894 0.70929 0.0
H387 H 0.09686 0.11876 0.69704 0.0
H388 H 0.18551 0.08157 0.6581 0.0
H389 H 0.13191 0.0285 0.72087 0.0
H390 H 0.11856 0.04739 0.69871 0.0
H391 H 0.12769 0.05952 0.72704 0.0
C392 C 0.11294 0.09421 0.64348 0.0
C393 C 0.09919 0.10688 0.66029 0.0
C394 C 0.13349 0.08215 0.6507 0.0
C395 C 0.1405 0.08293 0.67471 0.0
C396 C 0.12784 0.0974 0.69089 0.0
H397 H 0.26673 0.06146 0.74927 0.0
H398 H 0.23762 0.07168 0.71921 0.0
C399 C 0.10714 0.10891 0.68385 0.0
C400 C 0.16018 0.06786 0.68354 0.0
H401 H 0.17375 0.03119 0.72968 0.0
C402 C 0.18296 0.07019 0.67349 0.0
C403 C 0.1567 0.05214 0.70291 0.0
C404 C 0.13231 0.04651 0.71277 0.0
C405 C 0.20267 0.05875 0.68363 0.0
C406 C 0.19957 0.04547 0.7049 0.0
C407 C 0.17645 0.04166 0.71367 0.0
C408 C 0.21978 0.03755 0.71991 0.0
C409 C 0.22653 0.06121 0.67146 0.0
C410 C 0.21952 0.01501 0.73078 0.0
C411 C 0.23561 0.00953 0.74885 0.0
C412 C 0.25265 0.02624 0.7559 0.0
C413 C 0.25396 0.04812 0.74396 0.0
C414 C 0.23742 0.05388 0.72648 0.0
H415 H 0.22446 0.06187 0.65176 0.0
H416 H 0.23481 0.07821 0.67704 0.0
H417 H 0.23867 0.04629 0.67589 0.0
H418 H 0.20612 0.00206 0.72609 0.0
H419 H 0.23431 -0.0075 0.75774 0.0
H420 H 0.66007 0.89155 0.73867 0.0
H421 H 0.68243 0.8794 0.70297 0.0
H422 H 0.74356 0.91771 0.72816 0.0
H423 H 0.72149 0.92993 0.76394 0.0
H424 H 0.73061 0.9207 0.67453 0.0
H425 H 0.73912 0.82968 0.71309 0.0
H426 H 0.71032 0.84367 0.71175 0.0
H427 H 0.73224 0.85506 0.73177 0.0
C428 C 0.67816 0.89774 0.73647 0.0
C429 C 0.6891 0.91151 0.75431 0.0
C430 C 0.69085 0.89076 0.71604 0.0
C431 C 0.7146 0.89757 0.7131 0.0
C432 C 0.72518 0.91234 0.73018 0.0
H433 H 0.84617 0.88468 0.65655 0.0
H434 H 0.80606 0.89771 0.66579 0.0
C435 C 0.71258 0.91922 0.75065 0.0
C436 C 0.7294 0.88756 0.69361 0.0
H437 H 0.76383 0.83914 0.68083 0.0
C438 C 0.73751 0.90269 0.67549 0.0
C439 C 0.73798 0.86395 0.69472 0.0
C440 C 0.72961 0.84702 0.71385 0.0
C441 C 0.75528 0.89527 0.65937 0.0
C442 C 0.76562 0.87245 0.66201 0.0
C443 C 0.75597 0.85666 0.67882 0.0
C444 C 0.78905 0.86636 0.65133 0.0
C445 C 0.76348 0.91232 0.64032 0.0
C446 C 0.79303 0.84435 0.63992 0.0
C447 C 0.81625 0.83666 0.63479 0.0
C448 C 0.83572 0.85075 0.64138 0.0
C449 C 0.83154 0.87333 0.65141 0.0
C450 C 0.8085 0.88099 0.65641 0.0
H451 H 0.74839 0.92331 0.63392 0.0
H452 H 0.7768 0.92463 0.64797 0.0
H453 H 0.77162 0.90285 0.62484 0.0
H454 H 0.77828 0.83266 0.63608 0.0
H455 H 0.81898 0.81914 0.6271 0.0
H456 H 0.23944 0.94416 0.18515 0.0
H457 H 0.21154 0.9353 0.21769 0.0
H458 H 0.2404 0.86418 0.22212 0.0
H459 H 0.26927 0.87362 0.19117 0.0
H460 H 0.17796 0.90785 0.21507 0.0
H461 H 0.22917 0.87326 0.29017 0.0
H462 H 0.24344 0.88867 0.2658 0.0
H463 H 0.23841 0.85696 0.26423 0.0
C464 C 0.24023 0.92692 0.19369 0.0
C465 C 0.25647 0.90958 0.18571 0.0
C466 C 0.22431 0.92184 0.21226 0.0
C467 C 0.22393 0.89911 0.22273 0.0
C468 C 0.24076 0.88211 0.21518 0.0
H469 H 0.09915 0.82216 0.24798 0.0
H470 H 0.13573 0.8415 0.23486 0.0
C471 C 0.25714 0.88744 0.19719 0.0
C472 C 0.20378 0.89183 0.23841 0.0
H473 H 0.18952 0.85504 0.28476 0.0
C474 C 0.18063 0.89685 0.23068 0.0
C475 C 0.20687 0.8779 0.25922 0.0
C476 C 0.23087 0.8742 0.27042 0.0
C477 C 0.16078 0.88688 0.24193 0.0
C478 C 0.16413 0.87045 0.26068 0.0
C479 C 0.18701 0.86696 0.2698 0.0
C480 C 0.14421 0.85577 0.26974 0.0
C481 C 0.1364 0.8938 0.23322 0.0
C482 C 0.13794 0.85565 0.29408 0.0
C483 C 0.11738 0.84382 0.30175 0.0
C484 C 0.10288 0.83228 0.28507 0.0
C485 C 0.11002 0.83115 0.26107 0.0
C486 C 0.13074 0.84241 0.25356 0.0
H487 H 0.13642 0.91213 0.22587 0.0
H488 H 0.13111 0.88157 0.21861 0.0
H489 H 0.12289 0.89288 0.24774 0.0
H490 H 0.14828 0.86559 0.3069 0.0
H491 H 0.11205 0.84499 0.32034 0.0
H492 H 0.66495 0.01745 0.22005 0.0
H493 H 0.69445 0.02474 0.2512 0.0
H494 H 0.70711 0.09473 0.22241 0.0
H495 H 0.67695 0.08804 0.19238 0.0
H496 H 0.73855 0.03007 0.24675 0.0
H497 H 0.70747 0.11198 0.29037 0.0
H498 H 0.68851 0.09511 0.27079 0.0
H499 H 0.70828 0.11752 0.25896 0.0
C500 C 0.67377 0.03453 0.22074 0.0
C501 C 0.66865 0.05221 0.20387 0.0
C502 C 0.69055 0.03872 0.23856 0.0
C503 C 0.70267 0.06053 0.2396 0.0
C504 C 0.69739 0.07815 0.22274 0.0
H505 H 0.84501 0.08686 0.25428 0.0
H506 H 0.80473 0.07377 0.24681 0.0
C507 C 0.68033 0.07418 0.20531 0.0
C508 C 0.72291 0.064 0.25609 0.0
H509 H 0.75127 0.10738 0.28756 0.0
C510 C 0.74098 0.04673 0.25624 0.0
C511 C 0.72602 0.08531 0.26928 0.0
C512 C 0.70633 0.10333 0.27255 0.0
C513 C 0.76287 0.05124 0.26702 0.0
C514 C 0.76714 0.07395 0.27705 0.0
C515 C 0.74829 0.09023 0.2792 0.0
C516 C 0.79155 0.0821 0.28232 0.0
C517 C 0.78148 0.03185 0.26676 0.0
C518 C 0.79734 0.09241 0.30441 0.0
C519 C 0.82048 0.10049 0.30861 0.0
C520 C 0.83809 0.09828 0.29076 0.0
C521 C 0.832 0.08844 0.26856 0.0
C522 C 0.80897 0.08071 0.26432 0.0
H523 H 0.77309 0.01403 0.26799 0.0
H524 H 0.7915 0.03246 0.24963 0.0
H525 H 0.79417 0.03388 0.2817 0.0
H526 H 0.78404 0.09401 0.31842 0.0
H527 H 0.82467 0.10807 0.32587 0.0
H528 H 0.60719 0.12331 0.0926 0.0
H529 H 0.62535 0.15483 0.06825 0.0
H530 H 0.68913 0.15012 0.1102 0.0
H531 H 0.67154 0.11811 0.13368 0.0
H532 H 0.64514 0.19837 0.07478 0.0
H533 H 0.71401 0.135 0.04424 0.0
H534 H 0.68806 0.12566 0.06077 0.0
H535 H 0.71374 0.13685 0.07618 0.0
C536 C 0.62489 0.12943 0.09686 0.0
C537 C 0.63813 0.11822 0.11477 0.0
C538 C 0.63527 0.1473 0.0829 0.0
C539 C 0.65887 0.1542 0.08692 0.0
C540 C 0.67121 0.14446 0.10625 0.0
H541 H 0.74183 0.27344 0.05576 0.0
H542 H 0.70982 0.24667 0.06648 0.0
C543 C 0.66108 0.12636 0.1198 0.0
C544 C 0.67133 0.17063 0.07045 0.0
H545 H 0.72369 0.17656 0.0402 0.0
C546 C 0.66213 0.19355 0.06685 0.0
C547 C 0.693 0.16404 0.05922 0.0
C548 C 0.7026 0.13894 0.06006 0.0
C549 C 0.67503 0.21063 0.05391 0.0
C550 C 0.69803 0.20482 0.04514 0.0
C551 C 0.70628 0.18132 0.0472 0.0
C552 C 0.71496 0.22304 0.03619 0.0
C553 C 0.66385 0.23471 0.05 0.0
C554 C 0.72898 0.21868 0.01571 0.0
C555 C 0.748 0.23364 0.00997 0.0
C556 C 0.75308 0.25343 0.02441 0.0
C557 C 0.73824 0.25848 0.0441 0.0
C558 C 0.71965 0.24327 0.05013 0.0
H559 H 0.6443 0.23309 0.04801 0.0
H560 H 0.66706 0.24614 0.06584 0.0
H561 H 0.67121 0.2436 0.03391 0.0
H562 H 0.72581 0.20316 0.00469 0.0
H563 H 0.75909 0.22935 -0.00536 0.0
H564 H 0.15765 0.71272 0.01313 0.0
H565 H 0.18891 0.74074 0.02358 0.0
H566 H 0.2278 0.68462 0.05828 0.0
H567 H 0.19649 0.65639 0.04807 0.0
H568 H 0.2197 0.72402 0.08707 0.0
H569 H 0.25681 0.75167 -0.00018 0.0
H570 H 0.22497 0.75323 0.00065 0.0
H571 H 0.23958 0.72486 0.00349 0.0
C572 C 0.17304 0.70619 0.02258 0.0
C573 C 0.17448 0.68233 0.02987 0.0
C574 C 0.191 0.72221 0.02839 0.0
C575 C 0.21079 0.71467 0.04145 0.0
C576 C 0.21273 0.69072 0.04804 0.0
H577 H 0.30658 0.81575 0.11439 0.0
H578 H 0.29194 0.7777 0.09878 0.0
C579 C 0.1948 0.67464 0.04217 0.0
C580 C 0.2279 0.73242 0.05046 0.0
H581 H 0.26232 0.779 0.03268 0.0
C582 C 0.2295 0.73573 0.07525 0.0
C583 C 0.24067 0.74756 0.03495 0.0
C584 C 0.24064 0.74402 0.00825 0.0
C585 C 0.24214 0.7549 0.0849 0.0
C586 C 0.25375 0.77088 0.0693 0.0
C587 C 0.25332 0.76673 0.04458 0.0
C588 C 0.2638 0.79354 0.07802 0.0
C589 C 0.24169 0.75881 0.11158 0.0
C590 C 0.25311 0.81493 0.07112 0.0
C591 C 0.26139 0.83655 0.07989 0.0
C592 C 0.28063 0.83727 0.09574 0.0
C593 C 0.29163 0.81579 0.10234 0.0
C594 C 0.28328 0.79406 0.0935 0.0
H595 H 0.22895 0.74681 0.12078 0.0
H596 H 0.25965 0.75542 0.11885 0.0
H597 H 0.2368 0.77751 0.11586 0.0
H598 H 0.23803 0.81488 0.05922 0.0
H599 H 0.25252 0.8527 0.07431 0.0
H600 H 0.73756 0.661 0.89904 0.0
H601 H 0.70568 0.6886 0.88855 0.0
H602 H 0.74596 0.74691 0.91747 0.0
H603 H 0.77796 0.71954 0.9281 0.0
H604 H 0.69353 0.74629 0.92794 0.0
H605 H 0.71828 0.73605 0.83176 0.0
H606 H 0.7126 0.70965 0.84894 0.0
H607 H 0.73822 0.72739 0.85528 0.0
C608 C 0.73952 0.67964 0.90354 0.0
C609 C 0.76047 0.68812 0.91417 0.0
C610 C 0.72128 0.69535 0.89747 0.0
C611 C 0.72366 0.71974 0.90199 0.0
C612 C 0.74388 0.72809 0.91382 0.0
H613 H 0.68264 0.85761 0.87656 0.0
H614 H 0.69316 0.81889 0.89223 0.0
C615 C 0.76216 0.71243 0.91983 0.0
C616 C 0.70621 0.737 0.89275 0.0
H617 H 0.69118 0.76617 0.84175 0.0
C618 C 0.69262 0.75038 0.90906 0.0
C619 C 0.70489 0.74203 0.86808 0.0
C620 C 0.71929 0.72817 0.84989 0.0
C621 C 0.67867 0.76957 0.90142 0.0
C622 C 0.67886 0.77581 0.87697 0.0
C623 C 0.6911 0.76136 0.86048 0.0
C624 C 0.67 0.79918 0.86875 0.0
C625 C 0.6645 0.78348 0.91973 0.0
C626 C 0.65373 0.80101 0.84995 0.0
C627 C 0.64773 0.82336 0.8407 0.0
C628 C 0.65826 0.84409 0.84989 0.0
C629 C 0.67423 0.84206 0.86896 0.0
C630 C 0.68007 0.81989 0.8782 0.0
H631 H 0.65893 0.77192 0.9348 0.0
H632 H 0.67575 0.79784 0.92715 0.0
H633 H 0.64845 0.79167 0.91175 0.0
H634 H 0.64602 0.78516 0.84221 0.0
H635 H 0.6354 0.82434 0.82599 0.0
H636 H 0.3045 0.11963 0.81917 0.0
H637 H 0.29145 0.1587 0.83426 0.0
H638 H 0.24442 0.12428 0.8844 0.0
H639 H 0.25728 0.08559 0.86979 0.0
H640 H 0.24479 0.17603 0.83393 0.0
H641 H 0.27798 0.17289 0.92637 0.0
H642 H 0.28913 0.1534 0.90309 0.0
H643 H 0.26201 0.1464 0.9188 0.0
C644 C 0.29157 0.12043 0.83359 0.0
C645 C 0.28192 0.09947 0.84324 0.0
C646 C 0.28419 0.14273 0.8422 0.0
C647 C 0.26735 0.14433 0.86078 0.0
C648 C 0.25789 0.12345 0.87049 0.0
H649 H 0.16101 0.22579 0.92502 0.0
H650 H 0.19233 0.198 0.91289 0.0
C651 C 0.26512 0.1013 0.8619 0.0
C652 C 0.2578 0.16757 0.86891 0.0
H653 H 0.24385 0.1985 0.9197 0.0
C654 C 0.24509 0.18138 0.85255 0.0
C655 C 0.25829 0.17446 0.89321 0.0
C656 C 0.27281 0.16112 0.91131 0.0
C657 C 0.23128 0.20084 0.8602 0.0
C658 C 0.23048 0.2067 0.88478 0.0
C659 C 0.2444 0.19383 0.90089 0.0
C660 C 0.21332 0.22436 0.89431 0.0
C661 C 0.21639 0.21397 0.84221 0.0
C662 C 0.2152 0.24851 0.88849 0.0
C663 C 0.19731 0.26448 0.8954 0.0
C664 C 0.17726 0.25652 0.90823 0.0
C665 C 0.17611 0.2325 0.91504 0.0
C666 C 0.19401 0.21659 0.90817 0.0
H667 H 0.21656 0.2051 0.82445 0.0
H668 H 0.19771 0.21544 0.84859 0.0
H669 H 0.22339 0.23227 0.83998 0.0
H670 H 0.23016 0.25486 0.87806 0.0
H671 H 0.19884 0.28288 0.88997 0.0
H672 H 0.04768 0.72908 0.28324 0.0
H673 H 0.05852 0.6953 0.25766 0.0
H674 H 0.01876 0.72591 0.19989 0.0
H675 H 0.00769 0.75966 0.22524 0.0
H676 H 0.01533 0.67371 0.20536 0.0
H677 H 0.108 0.70861 0.20321 0.0
H678 H 0.0945 0.70307 0.23187 0.0
H679 H 0.0833 0.72657 0.21349 0.0
C680 C 0.04084 0.72843 0.26524 0.0
C681 C 0.02708 0.74726 0.25617 0.0
C682 C 0.04712 0.70913 0.25066 0.0
C683 C 0.03971 0.70836 0.22685 0.0
C684 C 0.02468 0.72626 0.21824 0.0
H685 H 0.05812 0.65902 0.08951 0.0
H686 H 0.04398 0.67031 0.129 0.0
C687 C 0.01843 0.74557 0.23275 0.0
C688 C 0.04935 0.69039 0.21002 0.0
H689 H 0.09875 0.67815 0.17645 0.0
C690 C 0.03368 0.6743 0.19933 0.0
C691 C 0.07336 0.69109 0.2024 0.0
C692 C 0.09085 0.70829 0.21317 0.0
C693 C 0.04111 0.65971 0.18029 0.0
C694 C 0.06463 0.66177 0.17143 0.0
C695 C 0.08072 0.67663 0.18325 0.0
C696 C 0.07183 0.65184 0.14793 0.0
C697 C 0.02349 0.64281 0.16935 0.0
C698 C 0.09246 0.63788 0.14533 0.0
C699 C 0.10082 0.63152 0.12254 0.0
C700 C 0.08885 0.63934 0.10206 0.0
C701 C 0.06786 0.65274 0.10486 0.0
C702 C 0.05953 0.65898 0.12751 0.0
H703 H 0.0104 0.63662 0.18291 0.0
H704 H 0.01349 0.65219 0.15521 0.0
H705 H 0.03247 0.62707 0.16127 0.0
H706 H 0.10238 0.63245 0.16088 0.0
H707 H 0.11706 0.62121 0.12097 0.0
H708 H 0.00397 0.18472 0.72031 0.0
H709 H 0.01521 0.21947 0.74377 0.0
H710 H 0.05725 0.24544 0.68475 0.0
H711 H 0.04616 0.21064 0.66106 0.0
H712 H 0.08247 0.2398 0.7266 0.0
H713 H 0.00017 0.29075 0.74456 0.0
H714 H -0.00383 0.25953 0.74969 0.0
H715 H 0.00297 0.26988 0.72004 0.0
C716 C 0.01514 0.19808 0.71207 0.0
C717 C 0.02433 0.19478 0.68889 0.0
C718 C 0.02139 0.21806 0.72545 0.0
C719 C 0.03686 0.23515 0.71589 0.0
C720 C 0.04513 0.23255 0.69235 0.0
H721 H 0.11667 0.3222 0.82012 0.0
H722 H 0.10156 0.31219 0.78029 0.0
C723 C 0.03877 0.21262 0.67887 0.0
C724 C 0.04704 0.25347 0.73181 0.0
H725 H 0.03107 0.29394 0.77451 0.0
C726 C 0.07143 0.2522 0.73663 0.0
C727 C 0.03258 0.26967 0.7447 0.0
C728 C 0.00655 0.27274 0.7393 0.0
C729 C 0.08132 0.26498 0.75566 0.0
C730 C 0.06641 0.27972 0.76985 0.0
C731 C 0.04244 0.28255 0.76366 0.0
C732 C 0.07416 0.28857 0.79343 0.0
C733 C 0.10712 0.26099 0.76167 0.0
C734 C 0.06324 0.27926 0.8139 0.0
C735 C 0.07168 0.28496 0.83647 0.0
C736 C 0.0913 0.30014 0.83914 0.0
C737 C 0.10166 0.3103 0.81864 0.0
C738 C 0.09311 0.30456 0.79591 0.0
H739 H 0.1154 0.24673 0.75057 0.0
H740 H 0.11717 0.27766 0.75865 0.0
H741 H 0.10895 0.25612 0.78077 0.0
H742 H 0.04862 0.26686 0.8124 0.0
H743 H 0.06306 0.27697 0.85181 0.0
H744 H 0.80433 0.63399 0.82259 0.0
H745 H 0.81478 0.64827 0.78243 0.0
H746 H 0.88484 0.66649 0.80707 0.0
H747 H 0.87467 0.65227 0.84675 0.0
H748 H 0.82575 0.69498 0.77565 0.0
H749 H 0.89993 0.64001 0.74142 0.0
H750 H 0.88029 0.63001 0.76501 0.0
H751 H 0.90525 0.64884 0.77169 0.0
C752 C 0.82218 0.64034 0.81915 0.0
C753 C 0.83862 0.64226 0.83779 0.0
C754 C 0.82811 0.64849 0.79626 0.0
C755 C 0.85068 0.65818 0.79169 0.0
C756 C 0.86753 0.65859 0.80997 0.0
H757 H 0.90134 0.78093 0.72766 0.0
H758 H 0.88676 0.7476 0.75136 0.0
C759 C 0.86158 0.65071 0.83276 0.0
C760 C 0.85564 0.6716 0.76953 0.0
H761 H 0.89977 0.6817 0.72866 0.0
C762 C 0.84156 0.69168 0.76491 0.0
C763 C 0.87617 0.66725 0.7554 0.0
C764 C 0.89111 0.64518 0.7585 0.0
C765 C 0.84857 0.70856 0.74796 0.0
C766 C 0.8703 0.70534 0.73553 0.0
C767 C 0.88334 0.6843 0.7386 0.0
C768 C 0.88059 0.72463 0.72098 0.0
C769 C 0.83324 0.73027 0.74422 0.0
C770 C 0.88267 0.72235 0.69614 0.0
C771 C 0.89101 0.7414 0.68248 0.0
C772 C 0.89758 0.76294 0.69353 0.0
C773 C 0.89638 0.76468 0.71855 0.0
C774 C 0.88794 0.7457 0.73213 0.0
H775 H 0.81461 0.72716 0.7501 0.0
H776 H 0.84039 0.74529 0.75485 0.0
H777 H 0.83327 0.73559 0.72514 0.0
H778 H 0.87723 0.70611 0.6873 0.0
H779 H 0.89181 0.73943 0.66325 0.0
H780 H 0.92969 0.16552 0.21903 0.0
H781 H 0.91768 0.19806 0.1931 0.0
H782 H 0.88164 0.23225 0.25225 0.0
H783 H 0.89344 0.19963 0.2784 0.0
H784 H 0.85292 0.22487 0.2133 0.0
H785 H 0.93662 0.26746 0.18457 0.0
H786 H 0.93815 0.23571 0.18163 0.0
H787 H 0.93464 0.24892 0.2108 0.0
C788 C 0.91967 0.18019 0.2267 0.0
C789 C 0.9124 0.17987 0.25076 0.0
C790 C 0.91296 0.1989 0.21187 0.0
C791 C 0.89899 0.2177 0.22082 0.0
C792 C 0.89258 0.21799 0.24506 0.0
H793 H 0.82024 0.30832 0.11854 0.0
H794 H 0.83626 0.29644 0.15744 0.0
C795 C 0.89936 0.19931 0.25996 0.0
C796 C 0.88866 0.23512 0.20409 0.0
H797 H 0.9035 0.27071 0.15719 0.0
C798 C 0.86388 0.23547 0.20142 0.0
C799 C 0.90301 0.249 0.18877 0.0
C800 C 0.92957 0.25046 0.19175 0.0
C801 C 0.85323 0.24763 0.18245 0.0
C802 C 0.86781 0.25996 0.16602 0.0
C803 C 0.8924 0.26112 0.16979 0.0
C804 C 0.85849 0.26833 0.14293 0.0
C805 C 0.82674 0.24571 0.17905 0.0
C806 C 0.86591 0.25662 0.12204 0.0
C807 C 0.85688 0.26328 0.1 0.0
C808 C 0.84023 0.2819 0.0983 0.0
C809 C 0.83294 0.29383 0.11927 0.0
C810 C 0.84204 0.28708 0.14147 0.0
H811 H 0.81833 0.23345 0.1921 0.0
H812 H 0.81848 0.26354 0.18123 0.0
H813 H 0.8228 0.2393 0.16073 0.0
H814 H 0.87852 0.24204 0.12283 0.0
H815 H 0.863 0.2537 0.08429 0.0
H816 H -0.0247 0.07587 0.65075 0.0
H817 H 0.96304 0.03409 0.65327 0.0
H818 H 0.00612 0.01746 0.59135 0.0
H819 H 0.0187 0.05885 0.58894 0.0
H820 H 0.94038 0.00469 0.62105 0.0
H821 H 0.03042 -0.02973 0.64053 0.0
H822 H 0.023 0.0015 0.64228 0.0
H823 H 0.02966 -0.01216 0.61388 0.0
C824 C -0.018 0.06332 0.63759 0.0
C825 C -0.00187 0.07057 0.61979 0.0
C826 C -0.02494 0.03948 0.6391 0.0
C827 C -0.01582 0.02261 0.62286 0.0
C828 C -0.00056 0.03006 0.60447 0.0
H829 H 0.93135 0.88532 0.58368 0.0
H830 H 0.94387 0.92675 0.58652 0.0
C831 C 0.00645 0.05377 0.60302 0.0
C832 C -0.02231 -0.0028 0.62483 0.0
H833 H 0.00157 0.94144 0.6286 0.0
C834 C 0.95371 -0.00914 0.62294 0.0
C835 C -0.00491 -0.02077 0.62775 0.0
C836 C 0.02096 -0.01497 0.63148 0.0
C837 C 0.94676 0.96693 0.62287 0.0
C838 C 0.96433 0.94892 0.62424 0.0
C839 C -0.01181 0.95528 0.62717 0.0
C840 C 0.9583 0.9234 0.62204 0.0
C841 C 0.92064 0.96116 0.62133 0.0
C842 C 0.96341 0.9075 0.64058 0.0
C843 C 0.95654 0.88365 0.63888 0.0
C844 C 0.94448 0.87542 0.6186 0.0
C845 C 0.94039 0.89119 0.59964 0.0
C846 C 0.94735 0.91491 0.60131 0.0
H847 H 0.90943 -0.02369 0.62755 0.0
H848 H 0.91607 0.9574 0.60246 0.0
H849 H 0.91617 0.94525 0.63214 0.0
H850 H -0.02791 0.91368 0.65662 0.0
H851 H 0.95993 0.87192 0.65377 0.0
H852 H 0.91337 0.04988 0.35317 0.0
H853 H 0.92799 0.00909 0.35426 0.0
H854 H -0.01266 0.02849 0.30926 0.0
H855 H -0.02765 0.06945 0.30746 0.0
H856 H 0.96633 -0.01184 0.29405 0.0
H857 H -0.01743 -0.01818 0.39114 0.0
H858 H 0.95271 -0.00917 0.38476 0.0
H859 H -0.02289 0.00981 0.37651 0.0
C860 C 0.92967 0.04559 0.34368 0.0
C861 C 0.94177 0.06292 0.33028 0.0
C862 C 0.93808 0.02225 0.34445 0.0
C863 C 0.95898 0.01583 0.3322 0.0
C864 C -0.02876 0.03312 0.31895 0.0
H865 H 0.03403 0.88315 0.35134 0.0
H866 H 0.02047 0.92432 0.35119 0.0
C867 C 0.9627 0.0565 0.31799 0.0
C868 C 0.96733 -0.00918 0.3324 0.0
H869 H -0.01813 0.94513 0.36949 0.0
C870 C 0.96991 -0.02123 0.31053 0.0
C871 C -0.0278 -0.02131 0.3539 0.0
C872 C -0.02875 -0.00897 0.37788 0.0
C873 C -0.0231 0.9548 0.30958 0.0
C874 C -0.01922 0.9424 0.33114 0.0
C875 C -0.02147 0.95456 0.35299 0.0
C876 C -0.01164 0.91714 0.33147 0.0
C877 C -0.01944 0.94319 0.28548 0.0
C878 C -0.02542 0.89928 0.32082 0.0
C879 C -0.01757 0.87563 0.32066 0.0
C880 C 0.00401 0.86946 0.33148 0.0
C881 C 0.01733 0.88729 0.34281 0.0
C882 C 0.00961 0.91087 0.34275 0.0
H883 H -0.01679 0.95659 0.27118 0.0
H884 H -0.00384 0.93105 0.28556 0.0
H885 H 0.96459 0.93262 0.28098 0.0
H886 H 0.9578 0.90364 0.31255 0.0
H887 H -0.02829 0.86225 0.31194 0.0
H888 H 0.64515 -0.02362 0.86811 0.0
H889 H 0.64685 -0.00684 0.90858 0.0
H890 H 0.5987 0.93899 0.93359 0.0
H891 H 0.59644 0.92259 0.8934 0.0
H892 H 0.58665 -0.01763 0.95035 0.0
H893 H 0.68266 0.96535 0.96489 0.0
H894 H 0.67635 -0.0171 0.93897 0.0
H895 H 0.66662 0.95251 0.94026 0.0
C896 C 0.63485 0.96817 0.88224 0.0
C897 C 0.62073 0.94812 0.87758 0.0
C898 C 0.63601 -0.02238 0.90537 0.0
C899 C 0.62326 0.96702 0.92417 0.0
C900 C 0.60879 0.94736 0.91939 0.0
H901 H 0.63861 -0.01411 0.07779 0.0
H902 H 0.63973 -0.02934 0.03659 0.0
C903 C 0.60752 0.93802 0.89636 0.0
C904 C 0.62445 -0.02352 0.94885 0.0
H905 H 0.6622 -0.0128 -0.00491 0.0
C906 C 0.60317 -0.01657 0.96012 0.0
C907 C 0.64598 -0.02256 0.9617 0.0
C908 C 0.66919 0.96895 0.95097 0.0
C909 C 0.60281 -0.00852 -0.01617 0.0
C910 C 0.62442 -0.00678 -0.00358 0.0
C911 C 0.6457 -0.01397 -0.01471 0.0
C912 C 0.62517 0.00271 0.02109 0.0
C913 C 0.57918 -0.0024 -0.00471 0.0
C914 C 0.61722 0.02591 0.02584 0.0
C915 C 0.61637 0.0345 0.0492 0.0
C916 C 0.62379 0.02017 0.06828 0.0
C917 C 0.63269 -0.00274 0.06344 0.0
C918 C 0.63336 -0.01142 0.03996 0.0
H919 H 0.5642 -0.01104 -0.01414 0.0
H920 H 0.57867 -0.00788 0.01431 0.0
H921 H 0.57638 0.01713 -0.00549 0.0
H922 H 0.61138 0.03731 0.01147 0.0
H923 H 0.60972 0.05236 0.0523 0.0
H924 H 0.35596 0.90534 0.05132 0.0
H925 H 0.35715 0.92145 0.01104 0.0
H926 H 0.31741 -0.01703 0.03485 0.0
H927 H 0.31561 0.96662 0.07535 0.0
H928 H 0.29904 0.96309 -0.00541 0.0
H929 H 0.39608 -0.02496 -0.01674 0.0
H930 H 0.38841 0.94541 -0.00782 0.0
H931 H 0.38236 0.96999 0.01203 0.0
C932 C 0.3477 0.92245 0.04812 0.0
C933 C 0.33568 0.93473 0.06654 0.0
C934 C 0.34854 0.9317 0.02508 0.0
C935 C 0.33768 0.95356 0.02003 0.0
C936 C 0.32602 0.96611 0.03844 0.0
H937 H 0.35287 0.03078 0.88781 0.0
H938 H 0.35464 0.01632 0.9287 0.0
C939 C 0.32506 0.9568 0.06155 0.0
C940 C 0.33728 0.96247 -0.0048 0.0
H941 H 0.37295 -0.02383 0.94768 0.0
C942 C 0.31518 0.96614 -0.01563 0.0
C943 C 0.35838 0.96659 -0.01802 0.0
C944 C 0.38264 0.96429 -0.00697 0.0
C945 C 0.31359 -0.02655 0.96052 0.0
C946 C 0.33469 -0.02339 0.94701 0.0
C947 C 0.35679 -0.02665 0.95797 0.0
C948 C 0.33426 -0.0155 0.92183 0.0
C949 C 0.28936 -0.02185 0.95018 0.0
C950 C 0.32266 -0.02891 0.90423 0.0
C951 C 0.32146 -0.02059 0.88076 0.0
C952 C 0.33207 0.00113 0.87452 0.0
C953 C 0.34442 0.01401 0.89203 0.0
C954 C 0.34548 0.00578 0.91543 0.0
H955 H 0.27571 -0.01911 0.96438 0.0
H956 H 0.28961 -0.00594 0.9385 0.0
H957 H 0.28392 0.9626 0.93928 0.0
H958 H 0.31437 0.95432 0.9087 0.0
H959 H 0.31196 0.96904 0.86762 0.0
H960 H 0.86816 0.62266 0.97139 0.0
H961 H 0.90986 0.61987 -0.01663 0.0
H962 H 0.9257 0.57817 0.92035 0.0
H963 H 0.88411 0.58008 0.90881 0.0
H964 H 0.9474 0.56017 0.95762 0.0
H965 H 0.96371 0.65726 0.95499 0.0
H966 H 0.94016 0.64945 -0.02479 0.0
H967 H 0.93686 0.6441 0.9437 0.0
C968 C 0.88054 0.61279 0.9602 0.0
C969 C 0.87289 0.6017 0.93911 0.0
C970 C 0.90439 0.61139 0.96693 0.0
C971 C 0.92101 0.5993 0.95245 0.0
C972 C 0.91323 0.58772 0.93173 0.0
H973 H 0.07415 0.61833 0.967 0.0
H974 H 0.03367 0.61704 0.95123 0.0
C975 C 0.88942 0.58884 0.92517 0.0
C976 C 0.94653 0.59848 0.95879 0.0
H977 H -0.00579 0.63336 0.97191 0.0
C978 C 0.95767 0.57618 0.96062 0.0
C979 C 0.96006 0.61938 0.96215 0.0
C980 C 0.94967 0.6439 0.95867 0.0
C981 C -0.01817 0.57419 0.96623 0.0
C982 C -0.00497 0.59505 0.97088 0.0
C983 C -0.01597 0.61736 0.96852 0.0
C984 C 0.01997 0.59418 -0.02088 0.0
C985 C -0.00702 0.54974 0.96674 0.0
C986 C 0.02573 0.58166 -0.0001 0.0
C987 C 0.04881 0.58209 0.0087 0.0
C988 C 0.06655 0.59549 -0.00281 0.0
C989 C 0.06088 0.60781 -0.02379 0.0
C990 C 0.03776 0.60714 0.96724 0.0
H991 H -0.01671 0.5371 0.95507 0.0
H992 H 0.01188 0.55021 0.96091 0.0
H993 H -0.00786 0.54275 -0.01478 0.0
H994 H 0.0122 0.57208 0.00975 0.0
H995 H 0.05253 0.57256 0.02503 0.0
H996 H 0.07304 0.31659 0.97136 0.0
H997 H 0.03153 0.31633 -0.01499 0.0
H998 H 0.0132 0.36571 0.92929 0.0
H999 H 0.05452 0.36673 0.91617 0.0
H1000 H -0.00872 0.37722 0.96969 0.0
H1001 H -0.02098 0.28096 0.95184 0.0
H1002 H 0.00243 0.28699 -0.02747 0.0
H1003 H 0.00509 0.29691 0.94212 0.0
C1004 C 0.06018 0.32757 0.96222 0.0
C1005 C 0.06702 0.34152 0.94259 0.0
C1006 C 0.03644 0.32722 0.96986 0.0
C1007 C 0.01916 0.34053 0.95776 0.0
C1008 C 0.02618 0.35515 0.93877 0.0
H1009 H 0.8662 0.31576 0.96782 0.0
H1010 H 0.90732 0.31951 0.95339 0.0
C1011 C 0.04985 0.3557 0.9313 0.0
C1012 C -0.00631 0.33928 0.96462 0.0
H1013 H 0.94729 0.30095 0.97182 0.0
C1014 C -0.01835 0.36054 0.97009 0.0
C1015 C -0.019 0.31758 0.96459 0.0
C1016 C -0.00754 0.29435 0.95722 0.0
C1017 C 0.95737 0.36068 -0.02408 0.0
C1018 C 0.94496 0.33886 -0.02297 0.0
C1019 C 0.95687 0.31764 0.97114 0.0
C1020 C 0.91985 0.33756 -0.01492 0.0
C1021 C 0.94523 0.38427 -0.01957 0.0
C1022 C 0.91332 0.34635 0.00765 0.0
C1023 C 0.88993 0.3445 0.01575 0.0
C1024 C 0.87261 0.33339 0.00164 0.0
C1025 C 0.87913 0.32449 -0.02096 0.0
C1026 C 0.9026 0.32657 0.97082 0.0
H1027 H 0.9547 0.39901 0.97129 0.0
H1028 H 0.92654 0.38405 -0.02573 0.0
H1029 H 0.94527 0.38816 -0.00013 0.0
H1030 H 0.92643 0.35428 0.01925 0.0
H1031 H 0.88558 0.35133 0.03337 0.0
loop_
_geom_bond_atom_site_label_1
_geom_bond_atom_site_label_2
_geom_bond_distance
_geom_bond_site_symmetry_2
_ccdc_geom_bond_type
C0 O1 1.306 . S
C0 O3 1.160 . S
O1 C0 1.306 . S
O1 Cd2 2.228 . S
Cd2 O1 2.228 . S
Cd2 O6 2.273 . S
Cd2 O10 2.277 . S
O3 C0 1.160 . S
O3 Cd4 2.203 . S
Cd4 O3 2.203 . S
Cd4 O6 2.411 . S
Cd4 O7 2.333 . S
Cd4 O8 2.352 . S
Cd4 O12 2.277 . S
Cd4 O13 2.356 . S
C5 O10 1.209 . S
C5 O12 1.226 . S
O6 Cd2 2.273 . S
O6 Cd4 2.411 . S
O6 C9 1.320 . S
O7 Cd4 2.333 . S
O7 C9 1.214 . S
O8 Cd4 2.352 . S
O8 C11 1.258 . S
C9 O6 1.320 . S
C9 O7 1.214 . S
O10 Cd2 2.277 . S
O10 C5 1.209 . S
C11 O8 1.258 . S
C11 O13 1.282 . S
O12 Cd4 2.277 . S
O12 C5 1.226 . S
O13 Cd4 2.356 . S
O13 C11 1.282 . S
C14 O15 1.306 . S
C14 O17 1.160 . S
O15 C14 1.306 . S
O15 Cd16 2.228 . S
Cd16 O15 2.228 . S
Cd16 O20 2.273 . S
Cd16 O24 2.277 . S
O17 C14 1.160 . S
O17 Cd18 2.203 . S
Cd18 O17 2.203 . S
Cd18 O20 2.411 . S
Cd18 O21 2.333 . S
Cd18 O22 2.352 . S
Cd18 O26 2.277 . S
Cd18 O27 2.356 . S
C19 O24 1.209 . S
C19 O26 1.226 . S
O20 Cd16 2.273 . S
O20 Cd18 2.411 . S
O20 C23 1.320 . S
O21 Cd18 2.333 . S
O21 C23 1.214 . S
O22 Cd18 2.352 . S
O22 C25 1.258 . S
C23 O20 1.320 . S
C23 O21 1.214 . S
O24 Cd16 2.277 . S
O24 C19 1.209 . S
C25 O22 1.258 . S
C25 O27 1.282 . S
O26 Cd18 2.277 . S
O26 C19 1.226 . S
O27 Cd18 2.356 . S
O27 C25 1.282 . S
C28 O29 1.306 . S
C28 O31 1.160 . S
O29 C28 1.306 . S
O29 Cd30 2.228 . S
Cd30 O29 2.228 . S
Cd30 O34 2.273 . S
Cd30 O38 2.277 . S
O31 C28 1.160 . S
O31 Cd32 2.203 . S
Cd32 O31 2.203 . S
Cd32 O34 2.411 . S
Cd32 O35 2.333 . S
Cd32 O36 2.352 . S
Cd32 O40 2.277 . S
Cd32 O41 2.356 . S
C33 O38 1.209 . S
C33 O40 1.226 . S
O34 Cd30 2.273 . S
O34 Cd32 2.411 . S
O34 C37 1.320 . S
O35 Cd32 2.333 . S
O35 C37 1.214 . S
O36 Cd32 2.352 . S
O36 C39 1.258 . S
C37 O34 1.320 . S
C37 O35 1.214 . S
O38 Cd30 2.277 . S
O38 C33 1.209 . S
C39 O36 1.258 . S
C39 O41 1.282 . S
O40 Cd32 2.277 . S
O40 C33 1.226 . S
O41 Cd32 2.356 . S
O41 C39 1.282 . S
C42 O43 1.306 . S
C42 O45 1.160 . S
O43 C42 1.306 . S
O43 Cd44 2.228 . S
Cd44 O43 2.228 . S
Cd44 O48 2.273 . S
Cd44 O52 2.277 . S
O45 C42 1.160 . S
O45 Cd46 2.203 . S
Cd46 O45 2.203 . S
Cd46 O48 2.411 . S
Cd46 O49 2.333 . S
Cd46 O50 2.352 . S
Cd46 O54 2.277 . S
Cd46 O55 2.356 . S
C47 O52 1.209 . S
C47 O54 1.226 . S
O48 Cd44 2.273 . S
O48 Cd46 2.411 . S
O48 C51 1.320 . S
O49 Cd46 2.333 . S
O49 C51 1.214 . S
O50 Cd46 2.352 . S
O50 C53 1.258 . S
C51 O48 1.320 . S
C51 O49 1.214 . S
O52 Cd44 2.277 . S
O52 C47 1.209 . S
C53 O50 1.258 . S
C53 O55 1.282 . S
O54 Cd46 2.277 . S
O54 C47 1.226 . S
O55 Cd46 2.356 . S
O55 C53 1.282 . S
C56 O57 1.306 . S
C56 O59 1.160 . S
O57 C56 1.306 . S
O57 Cd58 2.228 . S
Cd58 O57 2.228 . S
Cd58 O62 2.273 . S
Cd58 O66 2.277 . S
O59 C56 1.160 . S
O59 Cd60 2.203 . S
Cd60 O59 2.203 . S
Cd60 O62 2.411 . S
Cd60 O63 2.333 . S
Cd60 O64 2.352 . S
Cd60 O68 2.277 . S
Cd60 O69 2.356 . S
C61 O66 1.209 . S
C61 O68 1.226 . S
O62 Cd58 2.273 . S
O62 Cd60 2.411 . S
O62 C65 1.320 . S
O63 Cd60 2.333 . S
O63 C65 1.214 . S
O64 Cd60 2.352 . S
O64 C67 1.258 . S
C65 O62 1.320 . S
C65 O63 1.214 . S
O66 Cd58 2.277 . S
O66 C61 1.209 . S
C67 O64 1.258 . S
C67 O69 1.282 . S
O68 Cd60 2.277 . S
O68 C61 1.226 . S
O69 Cd60 2.356 . S
O69 C67 1.282 . S
C70 O71 1.306 . S
C70 O73 1.160 . S
O71 C70 1.306 . S
O71 Cd72 2.228 . S
Cd72 O71 2.228 . S
Cd72 O76 2.273 . S
Cd72 O80 2.277 . S
O73 C70 1.160 . S
O73 Cd74 2.203 . S
Cd74 O73 2.203 . S
Cd74 O76 2.411 . S
Cd74 O77 2.333 . S
Cd74 O78 2.352 . S
Cd74 O82 2.277 . S
Cd74 O83 2.356 . S
C75 O80 1.209 . S
C75 O82 1.226 . S
O76 Cd72 2.273 . S
O76 Cd74 2.411 . S
O76 C79 1.320 . S
O77 Cd74 2.333 . S
O77 C79 1.214 . S
O78 Cd74 2.352 . S
O78 C81 1.258 . S
C79 O76 1.320 . S
C79 O77 1.214 . S
O80 Cd72 2.277 . S
O80 C75 1.209 . S
C81 O78 1.258 . S
C81 O83 1.282 . S
O82 Cd74 2.277 . S
O82 C75 1.226 . S
O83 Cd74 2.356 . S
O83 C81 1.282 . S
C84 O85 1.306 . S
C84 O87 1.160 . S
O85 C84 1.306 . S
O85 Cd86 2.228 . S
Cd86 O85 2.228 . S
Cd86 O90 2.273 . S
Cd86 O94 2.277 . S
O87 C84 1.160 . S
O87 Cd88 2.203 . S
Cd88 O87 2.203 . S
Cd88 O90 2.411 . S
Cd88 O91 2.333 . S
Cd88 O92 2.352 . S
Cd88 O96 2.277 . S
Cd88 O97 2.356 . S
C89 O94 1.209 . S
C89 O96 1.226 . S
O90 Cd86 2.273 . S
O90 Cd88 2.411 . S
O90 C93 1.320 . S
O91 Cd88 2.333 . S
O91 C93 1.214 . S
O92 Cd88 2.352 . S
O92 C95 1.258 . S
C93 O90 1.320 . S
C93 O91 1.214 . S
O94 Cd86 2.277 . S
O94 C89 1.209 . S
C95 O92 1.258 . S
C95 O97 1.282 . S
O96 Cd88 2.277 . S
O96 C89 1.226 . S
O97 Cd88 2.356 . S
O97 C95 1.282 . S
C98 O99 1.306 . S
C98 O101 1.160 . S
O99 C98 1.306 . S
O99 Cd100 2.228 . S
Cd100 O99 2.228 . S
Cd100 O104 2.273 . S
Cd100 O108 2.277 . S
O101 C98 1.160 . S
O101 Cd102 2.203 . S
Cd102 O101 2.203 . S
Cd102 O104 2.411 . S
Cd102 O105 2.333 . S
Cd102 O106 2.352 . S
Cd102 O110 2.277 . S
Cd102 O111 2.356 . S
C103 O108 1.209 . S
C103 O110 1.226 . S
O104 Cd100 2.273 . S
O104 Cd102 2.411 . S
O104 C107 1.320 . S
O105 Cd102 2.333 . S
O105 C107 1.214 . S
O106 Cd102 2.352 . S
O106 C109 1.258 . S
C107 O104 1.320 . S
C107 O105 1.214 . S
O108 Cd100 2.277 . S
O108 C103 1.209 . S
C109 O106 1.258 . S
C109 O111 1.282 . S
O110 Cd102 2.277 . S
O110 C103 1.226 . S
O111 Cd102 2.356 . S
O111 C109 1.282 . S
C112 O113 1.306 . S
C112 O115 1.160 . S
O113 C112 1.306 . S
O113 Cd114 2.228 . S
Cd114 O113 2.228 . S
Cd114 O118 2.273 . S
Cd114 O122 2.277 . S
O115 C112 1.160 . S
O115 Cd116 2.203 . S
Cd116 O115 2.203 . S
Cd116 O118 2.411 . S
Cd116 O119 2.333 . S
Cd116 O120 2.352 . S
Cd116 O124 2.277 . S
Cd116 O125 2.356 . S
C117 O122 1.209 . S
C117 O124 1.226 . S
O118 Cd114 2.273 . S
O118 Cd116 2.411 . S
O118 C121 1.320 . S
O119 Cd116 2.333 . S
O119 C121 1.214 . S
O120 Cd116 2.352 . S
O120 C123 1.258 . S
C121 O118 1.320 . S
C121 O119 1.214 . S
O122 Cd114 2.277 . S
O122 C117 1.209 . S
C123 O120 1.258 . S
C123 O125 1.282 . S
O124 Cd116 2.277 . S
O124 C117 1.226 . S
O125 Cd116 2.356 . S
O125 C123 1.282 . S
C126 O127 1.306 . S
C126 O129 1.160 . S
O127 C126 1.306 . S
O127 Cd128 2.228 . S
Cd128 O127 2.228 . S
Cd128 O132 2.273 . S
Cd128 O136 2.277 . S
O129 C126 1.160 . S
O129 Cd130 2.203 . S
Cd130 O129 2.203 . S
Cd130 O132 2.411 . S
Cd130 O133 2.333 . S
Cd130 O134 2.352 . S
Cd130 O138 2.277 . S
Cd130 O139 2.356 . S
C131 O136 1.209 . S
C131 O138 1.226 . S
O132 Cd128 2.273 . S
O132 Cd130 2.411 . S
O132 C135 1.320 . S
O133 Cd130 2.333 . S
O133 C135 1.214 . S
O134 Cd130 2.352 . S
O134 C137 1.258 . S
C135 O132 1.320 . S
C135 O133 1.214 . S
O136 Cd128 2.277 . S
O136 C131 1.209 . S
C137 O134 1.258 . S
C137 O139 1.282 . S
O138 Cd130 2.277 . S
O138 C131 1.226 . S
O139 Cd130 2.356 . S
O139 C137 1.282 . S
C140 O141 1.306 . S
C140 O143 1.160 . S
O141 C140 1.306 . S
O141 Cd142 2.228 . S
Cd142 O141 2.228 . S
Cd142 O146 2.273 . S
Cd142 O150 2.277 . S
O143 C140 1.160 . S
O143 Cd144 2.203 . S
Cd144 O143 2.203 . S
Cd144 O146 2.411 . S
Cd144 O147 2.333 . S
Cd144 O148 2.352 . S
Cd144 O152 2.277 . S
Cd144 O153 2.356 . S
C145 O150 1.209 . S
C145 O152 1.226 . S
O146 Cd142 2.273 . S
O146 Cd144 2.411 . S
O146 C149 1.320 . S
O147 Cd144 2.333 . S
O147 C149 1.214 . S
O148 Cd144 2.352 . S
O148 C151 1.258 . S
C149 O146 1.320 . S
C149 O147 1.214 . S
O150 Cd142 2.277 . S
O150 C145 1.209 . S
C151 O148 1.258 . S
C151 O153 1.282 . S
O152 Cd144 2.277 . S
O152 C145 1.226 . S
O153 Cd144 2.356 . S
O153 C151 1.282 . S
C154 O155 1.306 . S
C154 O157 1.160 . S
O155 C154 1.306 . S
O155 Cd156 2.228 . S
Cd156 O155 2.228 . S
Cd156 O160 2.273 . S
Cd156 O164 2.277 . S
O157 C154 1.160 . S
O157 Cd158 2.203 . S
Cd158 O157 2.203 . S
Cd158 O160 2.411 . S
Cd158 O161 2.333 . S
Cd158 O162 2.352 . S
Cd158 O166 2.277 . S
Cd158 O167 2.356 . S
C159 O164 1.209 . S
C159 O166 1.226 . S
O160 Cd156 2.273 . S
O160 Cd158 2.411 . S
O160 C163 1.320 . S
O161 Cd158 2.333 . S
O161 C163 1.214 . S
O162 Cd158 2.352 . S
O162 C165 1.258 . S
C163 O160 1.320 . S
C163 O161 1.214 . S
O164 Cd156 2.277 . S
O164 C159 1.209 . S
C165 O162 1.258 . S
C165 O167 1.282 . S
O166 Cd158 2.277 . S
O166 C159 1.226 . S
O167 Cd158 2.356 . S
O167 C165 1.282 . S
H168 C176 0.929 . S
H169 C178 0.930 . S
H170 C180 0.930 . S
H171 C183 0.929 . S
H172 C186 0.930 . S
H173 C188 0.960 . S
H174 C188 0.960 . S
H175 C188 0.960 1_655 S
C176 H168 0.929 . S
C176 C177 1.377 . S
C176 C178 1.384 . S
C177 C176 1.377 . S
C177 C183 1.390 . S
C178 H169 0.930 . S
C178 C176 1.384 . S
C178 C179 1.372 . S
C179 C178 1.372 . S
C179 C180 1.400 . S
C179 C184 1.490 . S
C180 H170 0.930 . S
C180 C179 1.400 . S
C180 C183 1.386 . S
H181 C197 0.930 . S
H182 C198 0.931 . S
C183 H171 0.929 . S
C183 C177 1.390 . S
C183 C180 1.386 . S
C184 C179 1.490 . S
C184 C186 1.395 . S
C184 C187 1.403 1_655 S
H185 C191 0.930 . S
C186 H172 0.930 . S
C186 C184 1.395 . S
C186 C189 1.403 . S
C187 C184 1.403 1_455 S
C187 C188 1.524 . S
C187 C191 1.400 . S
C188 H173 0.960 . S
C188 H174 0.960 . S
C188 H175 0.960 1_455 S
C188 C187 1.524 . S
C189 C186 1.403 . S
C189 C190 1.392 1_655 S
C189 C193 1.495 . S
C190 C189 1.392 1_455 S
C190 C191 1.385 . S
C190 C192 1.478 . S
C191 H185 0.930 . S
C191 C187 1.400 . S
C191 C190 1.385 . S
C192 C190 1.478 . S
C192 C194 1.381 . S
C192 C198 1.383 . S
C193 C189 1.495 . S
C193 H199 0.959 . S
C193 H200 0.961 . S
C193 H201 0.960 1_655 S
C194 C192 1.381 . S
C194 C195 1.394 . S
C194 H202 0.930 . S
C195 C194 1.394 . S
C195 C196 1.383 . S
C195 H203 0.929 . S
C196 C195 1.383 . S
C196 C197 1.377 . S
C197 H181 0.930 . S
C197 C196 1.377 . S
C197 C198 1.379 . S
C198 H182 0.931 . S
C198 C192 1.383 . S
C198 C197 1.379 . S
H199 C193 0.959 . S
H200 C193 0.961 . S
H201 C193 0.960 1_455 S
H202 C194 0.930 . S
H203 C195 0.929 . S
H204 C212 0.929 . S
H205 C214 0.930 . S
H206 C216 0.930 . S
H207 C219 0.929 . S
H208 C222 0.930 . S
H209 C224 0.960 . S
H210 C224 0.960 . S
H211 C224 0.960 . S
C212 H204 0.929 . S
C212 C213 1.377 . S
C212 C214 1.384 . S
C213 C212 1.377 . S
C213 C219 1.390 . S
C214 H205 0.930 . S
C214 C212 1.384 . S
C214 C215 1.372 . S
C215 C214 1.372 . S
C215 C216 1.400 . S
C215 C220 1.490 . S
C216 H206 0.930 . S
C216 C215 1.400 . S
C216 C219 1.386 . S
H217 C233 0.930 . S
H218 C234 0.931 . S
C219 H207 0.929 . S
C219 C213 1.390 . S
C219 C216 1.386 . S
C220 C215 1.490 . S
C220 C222 1.380 1_455 S
C220 C223 1.403 . S
H221 C227 0.930 . S
C222 H208 0.930 . S
C222 C220 1.380 1_655 S
C222 C225 1.419 . S
C223 C220 1.403 . S
C223 C224 1.524 . S
C223 C227 1.391 1_455 S
C224 H209 0.960 . S
C224 H210 0.960 . S
C224 H211 0.960 . S
C224 C223 1.524 . S
C225 C222 1.419 . S
C225 C226 1.392 . S
C225 C229 1.495 . S
C226 C225 1.392 . S
C226 C227 1.394 . S
C226 C228 1.478 . S
C227 H221 0.930 . S
C227 C223 1.391 1_655 S
C227 C226 1.394 . S
C228 C226 1.478 . S
C228 C230 1.381 . S
C228 C234 1.383 . S
C229 C225 1.495 . S
C229 H235 0.959 . S
C229 H236 0.961 . S
C229 H237 0.960 . S
C230 C228 1.381 . S
C230 C231 1.394 . S
C230 H238 0.930 . S
C231 C230 1.394 . S
C231 C232 1.383 . S
C231 H239 0.929 . S
C232 C231 1.383 . S
C232 C233 1.377 . S
C233 H217 0.930 . S
C233 C232 1.377 . S
C233 C234 1.379 . S
C234 H218 0.931 . S
C234 C228 1.383 . S
C234 C233 1.379 . S
H235 C229 0.959 . S
H236 C229 0.961 . S
H237 C229 0.960 . S
H238 C230 0.930 . S
H239 C231 0.929 . S
H240 C248 0.929 . S
H241 C250 0.930 . S
H242 C252 0.930 . S
H243 C255 0.929 . S
H244 C258 0.930 1_565 S
H245 C260 0.960 . S
H246 C260 0.960 . S
H247 C260 0.960 . S
C248 H240 0.929 . S
C248 C249 1.377 . S
C248 C250 1.384 . S
C249 C248 1.377 . S
C249 C255 1.390 . S
C250 H241 0.930 . S
C250 C248 1.384 . S
C250 C251 1.372 . S
C251 C250 1.372 . S
C251 C252 1.400 . S
C251 C256 1.490 . S
C252 H242 0.930 . S
C252 C251 1.400 . S
C252 C255 1.386 . S
H253 C269 0.930 . S
H254 C270 0.931 . S
C255 H243 0.929 . S
C255 C249 1.390 . S
C255 C252 1.386 . S
C256 C251 1.490 . S
C256 C258 1.393 1_565 S
C256 C259 1.403 . S
H257 C263 0.931 . S
C258 H244 0.930 1_545 S
C258 C256 1.393 1_545 S
C258 C261 1.405 . S
C259 C256 1.403 . S
C259 C260 1.524 . S
C259 C263 1.382 1_565 S
C260 H245 0.960 . S
C260 H246 0.960 . S
C260 H247 0.960 . S
C260 C259 1.524 . S
C261 C258 1.405 . S
C261 C262 1.392 . S
C261 C265 1.495 . S
C262 C261 1.392 . S
C262 C263 1.403 . S
C262 C264 1.478 . S
C263 H257 0.931 . S
C263 C259 1.382 1_545 S
C263 C262 1.403 . S
C264 C262 1.478 . S
C264 C266 1.381 . S
C264 C270 1.383 . S
C265 C261 1.495 . S
C265 H271 0.959 . S
C265 H272 0.961 . S
C265 H273 0.960 . S
C266 C264 1.381 . S
C266 C267 1.394 . S
C266 H274 0.930 . S
C267 C266 1.394 . S
C267 C268 1.383 . S
C267 H275 0.929 . S
C268 C267 1.383 . S
C268 C269 1.377 . S
C269 H253 0.930 . S
C269 C268 1.377 . S
C269 C270 1.379 . S
C270 H254 0.931 . S
C270 C264 1.383 . S
C270 C269 1.379 . S
H271 C265 0.959 . S
H272 C265 0.961 . S
H273 C265 0.960 . S
H274 C266 0.930 . S
H275 C267 0.929 . S
H276 C284 0.929 . S
H277 C286 0.930 . S
H278 C288 0.930 . S
H279 C291 0.929 . S
H280 C294 0.930 . S
H281 C296 0.960 1_545 S
H282 C296 0.960 . S
H283 C296 0.964 . S
C284 H276 0.929 . S
C284 C285 1.377 . S
C284 C286 1.384 . S
C285 C284 1.377 . S
C285 C291 1.390 . S
C286 H277 0.930 . S
C286 C284 1.384 . S
C286 C287 1.372 . S
C287 C286 1.372 . S
C287 C288 1.400 . S
C287 C292 1.490 . S
C288 H278 0.930 . S
C288 C287 1.400 . S
C288 C291 1.386 . S
H289 C305 0.930 . S
H290 C306 0.931 . S
C291 H279 0.929 . S
C291 C285 1.390 . S
C291 C288 1.386 . S
C292 C287 1.490 . S
C292 C294 1.395 . S
C292 C295 1.403 . S
H293 C299 0.930 . S
C294 H280 0.930 . S
C294 C292 1.395 . S
C294 C297 1.403 1_565 S
C295 C292 1.403 . S
C295 C296 1.524 . S
C295 C299 1.400 1_565 S
C296 H281 0.960 1_565 S
C296 H282 0.960 . S
C296 H283 0.964 . S
C296 C295 1.524 . S
C297 C294 1.403 1_545 S
C297 C298 1.392 . S
C297 C301 1.495 . S
C298 C297 1.392 . S
C298 C299 1.385 . S
C298 C300 1.478 . S
C299 H293 0.930 . S
C299 C295 1.400 1_545 S
C299 C298 1.385 . S
C300 C298 1.478 . S
C300 C302 1.381 . S
C300 C306 1.383 . S
C301 C297 1.495 . S
C301 H307 0.959 1_545 S
C301 H308 0.961 . S
C301 H309 0.960 1_545 S
C302 C300 1.381 . S
C302 C303 1.394 . S
C302 H310 0.903 1_545 S
C303 C302 1.394 . S
C303 C304 1.383 . S
C303 H311 0.929 . S
C304 C303 1.383 . S
C304 C305 1.377 . S
C305 H289 0.930 . S
C305 C304 1.377 . S
C305 C306 1.379 . S
C306 H290 0.931 . S
C306 C300 1.383 . S
C306 C305 1.379 . S
H307 C301 0.959 1_565 S
H308 C301 0.961 . S
H309 C301 0.960 1_565 S
H310 C302 0.903 1_565 S
H311 C303 0.929 . S
H312 C320 0.929 . S
H313 C322 0.930 . S
H314 C324 0.930 . S
H315 C327 0.929 . S
H316 C330 0.930 . S
H317 C332 0.960 . S
H318 C332 0.960 . S
H319 C332 0.960 . S
C320 H312 0.929 . S
C320 C321 1.377 . S
C320 C322 1.384 . S
C321 C320 1.377 . S
C321 C327 1.390 . S
C322 H313 0.930 . S
C322 C320 1.384 . S
C322 C323 1.372 . S
C323 C322 1.372 . S
C323 C324 1.400 . S
C323 C328 1.490 . S
C324 H314 0.930 . S
C324 C323 1.400 . S
C324 C327 1.386 . S
H325 C341 0.930 . S
H326 C342 0.931 . S
C327 H315 0.929 . S
C327 C321 1.390 . S
C327 C324 1.386 . S
C328 C323 1.490 . S
C328 C330 1.395 1_556 S
C328 C331 1.403 . S
H329 C335 0.930 . S
C330 H316 0.930 . S
C330 C328 1.395 1_554 S
C330 C333 1.403 . S
C331 C328 1.403 . S
C331 C332 1.524 . S
C331 C335 1.400 . S
C332 H317 0.960 . S
C332 H318 0.960 . S
C332 H319 0.960 . S
C332 C331 1.524 . S
C333 C330 1.403 . S
C333 C334 1.392 . S
C333 C337 1.495 . S
C334 C333 1.392 . S
C334 C335 1.385 1_554 S
C334 C336 1.478 . S
C335 H329 0.930 . S
C335 C331 1.400 . S
C335 C334 1.385 1_556 S
C336 C334 1.478 . S
C336 C338 1.381 . S
C336 C342 1.383 . S
C337 C333 1.495 . S
C337 H343 0.959 . S
C337 H344 0.961 . S
C337 H345 0.960 . S
C338 C336 1.381 . S
C338 C339 1.394 . S
C338 H346 0.930 . S
C339 C338 1.394 . S
C339 C340 1.383 . S
C339 H347 0.929 . S
C340 C339 1.383 . S
C340 C341 1.377 . S
C341 H325 0.930 . S
C341 C340 1.377 . S
C341 C342 1.379 . S
C342 H326 0.931 . S
C342 C336 1.383 . S
C342 C341 1.379 . S
H343 C337 0.959 . S
H344 C337 0.961 . S
H345 C337 0.960 . S
H346 C338 0.930 . S
H347 C339 0.929 . S
H348 C356 0.929 . S
H349 C358 0.930 1_554 S
H350 C360 0.930 . S
H351 C363 0.929 . S
H352 C366 0.931 . S
H353 C368 0.960 . S
H354 C368 0.960 . S
H355 C368 0.960 . S
C356 H348 0.929 . S
C356 C357 1.377 . S
C356 C358 1.384 . S
C357 C356 1.377 . S
C357 C363 1.390 . S
C358 H349 0.930 1_556 S
C358 C356 1.384 . S
C358 C359 1.372 . S
C359 C358 1.372 . S
C359 C360 1.400 . S
C359 C364 1.490 . S
C360 H350 0.930 . S
C360 C359 1.400 . S
C360 C363 1.386 . S
H361 C377 0.930 . S
H362 C378 0.932 1_556 S
C363 H351 0.929 . S
C363 C357 1.390 . S
C363 C360 1.386 . S
C364 C359 1.490 . S
C364 C366 1.395 1_556 S
C364 C367 1.403 . S
H365 C371 0.930 . S
C366 H352 0.931 . S
C366 C364 1.395 1_554 S
C366 C369 1.403 . S
C367 C364 1.403 . S
C367 C368 1.524 . S
C367 C371 1.400 1_556 S
C368 H353 0.960 . S
C368 H354 0.960 . S
C368 H355 0.960 . S
C368 C367 1.524 . S
C369 C366 1.403 . S
C369 C370 1.392 . S
C369 C373 1.495 . S
C370 C369 1.392 . S
C370 C371 1.385 . S
C370 C372 1.478 . S
C371 H365 0.930 . S
C371 C367 1.400 1_554 S
C371 C370 1.385 . S
C372 C370 1.478 . S
C372 C374 1.381 . S
C372 C378 1.383 . S
C373 C369 1.495 . S
C373 H379 0.959 . S
C373 H380 0.961 . S
C373 H381 0.960 . S
C374 C372 1.381 . S
C374 C375 1.394 . S
C374 H382 0.930 . S
C375 C374 1.394 . S
C375 C376 1.383 . S
C375 H383 0.929 . S
C376 C375 1.383 . S
C376 C377 1.377 . S
C377 H361 0.930 . S
C377 C376 1.377 . S
C377 C378 1.379 . S
C378 H362 0.932 1_554 S
C378 C372 1.383 . S
C378 C377 1.379 . S
H379 C373 0.959 . S
H380 C373 0.961 . S
H381 C373 0.960 . S
H382 C374 0.930 . S
H383 C375 0.929 . S
H384 C392 0.929 . S
H385 C394 0.930 . S
H386 C396 0.930 . S
H387 C399 0.929 . S
H388 C402 0.930 . S
H389 C404 0.960 . S
H390 C404 0.960 . S
H391 C404 0.960 . S
C392 H384 0.929 . S
C392 C393 1.377 . S
C392 C394 1.384 . S
C393 C392 1.377 . S
C393 C399 1.390 . S
C394 H385 0.930 . S
C394 C392 1.384 . S
C394 C395 1.372 . S
C395 C394 1.372 . S
C395 C396 1.400 . S
C395 C400 1.490 . S
C396 H386 0.930 . S
C396 C395 1.400 . S
C396 C399 1.386 . S
H397 C413 0.930 . S
H398 C414 0.931 . S
C399 H387 0.929 . S
C399 C393 1.390 . S
C399 C396 1.386 . S
C400 C395 1.490 . S
C400 C402 1.395 . S
C400 C403 1.403 . S
H401 C407 0.930 . S
C402 H388 0.930 . S
C402 C400 1.395 . S
C402 C405 1.403 . S
C403 C400 1.403 . S
C403 C404 1.524 . S
C403 C407 1.400 . S
C404 H389 0.960 . S
C404 H390 0.960 . S
C404 H391 0.960 . S
C404 C403 1.524 . S
C405 C402 1.403 . S
C405 C406 1.392 . S
C405 C409 1.495 . S
C406 C405 1.392 . S
C406 C407 1.385 . S
C406 C408 1.478 . S
C407 H401 0.930 . S
C407 C403 1.400 . S
C407 C406 1.385 . S
C408 C406 1.478 . S
C408 C410 1.381 . S
C408 C414 1.383 . S
C409 C405 1.495 . S
C409 H415 0.959 . S
C409 H416 0.961 . S
C409 H417 0.960 . S
C410 C408 1.381 . S
C410 C411 1.394 . S
C410 H418 0.930 . S
C411 C410 1.394 . S
C411 C412 1.383 . S
C411 H419 0.929 . S
C412 C411 1.383 . S
C412 C413 1.377 . S
C413 H397 0.930 . S
C413 C412 1.377 . S
C413 C414 1.379 . S
C414 H398 0.931 . S
C414 C408 1.383 . S
C414 C413 1.379 . S
H415 C409 0.959 . S
H416 C409 0.961 . S
H417 C409 0.960 . S
H418 C410 0.930 . S
H419 C411 0.929 . S
H420 C428 0.929 . S
H421 C430 0.930 . S
H422 C432 0.930 . S
H423 C435 0.929 . S
H424 C438 0.930 . S
H425 C440 0.960 . S
H426 C440 0.960 . S
H427 C440 0.960 . S
C428 H420 0.929 . S
C428 C429 1.377 . S
C428 C430 1.384 . S
C429 C428 1.377 . S
C429 C435 1.390 . S
C430 H421 0.930 . S
C430 C428 1.384 . S
C430 C431 1.372 . S
C431 C430 1.372 . S
C431 C432 1.400 . S
C431 C436 1.490 . S
C432 H422 0.930 . S
C432 C431 1.400 . S
C432 C435 1.386 . S
H433 C449 0.930 . S
H434 C450 0.931 . S
C435 H423 0.929 . S
C435 C429 1.390 . S
C435 C432 1.386 . S
C436 C431 1.490 . S
C436 C438 1.395 . S
C436 C439 1.403 . S
H437 C443 0.930 . S
C438 H424 0.930 . S
C438 C436 1.395 . S
C438 C441 1.403 . S
C439 C436 1.403 . S
C439 C440 1.524 . S
C439 C443 1.400 . S
C440 H425 0.960 . S
C440 H426 0.960 . S
C440 H427 0.960 . S
C440 C439 1.524 . S
C441 C438 1.403 . S
C441 C442 1.392 . S
C441 C445 1.495 . S
C442 C441 1.392 . S
C442 C443 1.385 . S
C442 C444 1.478 . S
C443 H437 0.930 . S
C443 C439 1.400 . S
C443 C442 1.385 . S
C444 C442 1.478 . S
C444 C446 1.381 . S
C444 C450 1.383 . S
C445 C441 1.495 . S
C445 H451 0.959 . S
C445 H452 0.961 . S
C445 H453 0.960 . S
C446 C444 1.381 . S
C446 C447 1.394 . S
C446 H454 0.930 . S
C447 C446 1.394 . S
C447 C448 1.383 . S
C447 H455 0.929 . S
C448 C447 1.383 . S
C448 C449 1.377 . S
C449 H433 0.930 . S
C449 C448 1.377 . S
C449 C450 1.379 . S
C450 H434 0.931 . S
C450 C444 1.383 . S
C450 C449 1.379 . S
H451 C445 0.959 . S
H452 C445 0.961 . S
H453 C445 0.960 . S
H454 C446 0.930 . S
H455 C447 0.929 . S
H456 C464 0.929 . S
H457 C466 0.930 . S
H458 C468 0.930 . S
H459 C471 0.929 . S
H460 C474 0.930 . S
H461 C476 0.960 . S
H462 C476 0.960 . S
H463 C476 0.960 . S
C464 H456 0.929 . S
C464 C465 1.377 . S
C464 C466 1.384 . S
C465 C464 1.377 . S
C465 C471 1.390 . S
C466 H457 0.930 . S
C466 C464 1.384 . S
C466 C467 1.372 . S
C467 C466 1.372 . S
C467 C468 1.400 . S
C467 C472 1.490 . S
C468 H458 0.930 . S
C468 C467 1.400 . S
C468 C471 1.386 . S
H469 C485 0.930 . S
H470 C486 0.931 . S
C471 H459 0.929 . S
C471 C465 1.390 . S
C471 C468 1.386 . S
C472 C467 1.490 . S
C472 C474 1.395 . S
C472 C475 1.403 . S
H473 C479 0.930 . S
C474 H460 0.930 . S
C474 C472 1.395 . S
C474 C477 1.403 . S
C475 C472 1.403 . S
C475 C476 1.524 . S
C475 C479 1.400 . S
C476 H461 0.960 . S
C476 H462 0.960 . S
C476 H463 0.960 . S
C476 C475 1.524 . S
C477 C474 1.403 . S
C477 C478 1.392 . S
C477 C481 1.495 . S
C478 C477 1.392 . S
C478 C479 1.385 . S
C478 C480 1.478 . S
C479 H473 0.930 . S
C479 C475 1.400 . S
C479 C478 1.385 . S
C480 C478 1.478 . S
C480 C482 1.381 . S
C480 C486 1.383 . S
C481 C477 1.495 . S
C481 H487 0.959 . S
C481 H488 0.961 . S
C481 H489 0.960 . S
C482 C480 1.381 . S
C482 C483 1.394 . S
C482 H490 0.930 . S
C483 C482 1.394 . S
C483 C484 1.383 . S
C483 H491 0.929 . S
C484 C483 1.383 . S
C484 C485 1.377 . S
C485 H469 0.930 . S
C485 C484 1.377 . S
C485 C486 1.379 . S
C486 H470 0.931 . S
C486 C480 1.383 . S
C486 C485 1.379 . S
H487 C481 0.959 . S
H488 C481 0.961 . S
H489 C481 0.960 . S
H490 C482 0.930 . S
H491 C483 0.929 . S
H492 C500 0.929 . S
H493 C502 0.930 . S
H494 C504 0.930 . S
H495 C507 0.929 . S
H496 C510 0.930 . S
H497 C512 0.960 . S
H498 C512 0.960 . S
H499 C512 0.960 . S
C500 H492 0.929 . S
C500 C501 1.377 . S
C500 C502 1.384 . S
C501 C500 1.377 . S
C501 C507 1.390 . S
C502 H493 0.930 . S
C502 C500 1.384 . S
C502 C503 1.372 . S
C503 C502 1.372 . S
C503 C504 1.400 . S
C503 C508 1.490 . S
C504 H494 0.930 . S
C504 C503 1.400 . S
C504 C507 1.386 . S
H505 C521 0.930 . S
H506 C522 0.931 . S
C507 H495 0.929 . S
C507 C501 1.390 . S
C507 C504 1.386 . S
C508 C503 1.490 . S
C508 C510 1.395 . S
C508 C511 1.403 . S
H509 C515 0.930 . S
C510 H496 0.930 . S
C510 C508 1.395 . S
C510 C513 1.403 . S
C511 C508 1.403 . S
C511 C512 1.524 . S
C511 C515 1.400 . S
C512 H497 0.960 . S
C512 H498 0.960 . S
C512 H499 0.960 . S
C512 C511 1.524 . S
C513 C510 1.403 . S
C513 C514 1.392 . S
C513 C517 1.495 . S
C514 C513 1.392 . S
C514 C515 1.385 . S
C514 C516 1.478 . S
C515 H509 0.930 . S
C515 C511 1.400 . S
C515 C514 1.385 . S
C516 C514 1.478 . S
C516 C518 1.381 . S
C516 C522 1.383 . S
C517 C513 1.495 . S
C517 H523 0.959 . S
C517 H524 0.961 . S
C517 H525 0.960 . S
C518 C516 1.381 . S
C518 C519 1.394 . S
C518 H526 0.930 . S
C519 C518 1.394 . S
C519 C520 1.383 . S
C519 H527 0.929 . S
C520 C519 1.383 . S
C520 C521 1.377 . S
C521 H505 0.930 . S
C521 C520 1.377 . S
C521 C522 1.379 . S
C522 H506 0.931 . S
C522 C516 1.383 . S
C522 C521 1.379 . S
H523 C517 0.959 . S
H524 C517 0.961 . S
H525 C517 0.960 . S
H526 C518 0.930 . S
H527 C519 0.929 . S
H528 C536 0.929 . S
H529 C538 0.930 . S
H530 C540 0.930 . S
H531 C543 0.929 . S
H532 C546 0.930 . S
H533 C548 0.960 . S
H534 C548 0.960 . S
H535 C548 0.960 . S
C536 H528 0.929 . S
C536 C537 1.377 . S
C536 C538 1.384 . S
C537 C536 1.377 . S
C537 C543 1.390 . S
C538 H529 0.930 . S
C538 C536 1.384 . S
C538 C539 1.372 . S
C539 C538 1.372 . S
C539 C540 1.400 . S
C539 C544 1.490 . S
C540 H530 0.930 . S
C540 C539 1.400 . S
C540 C543 1.386 . S
H541 C557 0.930 . S
H542 C558 0.931 . S
C543 H531 0.929 . S
C543 C537 1.390 . S
C543 C540 1.386 . S
C544 C539 1.490 . S
C544 C546 1.395 . S
C544 C547 1.403 . S
H545 C551 0.930 . S
C546 H532 0.930 . S
C546 C544 1.395 . S
C546 C549 1.403 . S
C547 C544 1.403 . S
C547 C548 1.524 . S
C547 C551 1.400 . S
C548 H533 0.960 . S
C548 H534 0.960 . S
C548 H535 0.960 . S
C548 C547 1.524 . S
C549 C546 1.403 . S
C549 C550 1.392 . S
C549 C553 1.495 . S
C550 C549 1.392 . S
C550 C551 1.385 . S
C550 C552 1.478 . S
C551 H545 0.930 . S
C551 C547 1.400 . S
C551 C550 1.385 . S
C552 C550 1.478 . S
C552 C554 1.381 . S
C552 C558 1.383 . S
C553 C549 1.495 . S
C553 H559 0.959 . S
C553 H560 0.961 . S
C553 H561 0.960 . S
C554 C552 1.381 . S
C554 C555 1.394 . S
C554 H562 0.930 . S
C555 C554 1.394 . S
C555 C556 1.383 . S
C555 H563 0.929 . S
C556 C555 1.383 . S
C556 C557 1.377 . S
C557 H541 0.930 . S
C557 C556 1.377 . S
C557 C558 1.379 . S
C558 H542 0.931 . S
C558 C552 1.383 . S
C558 C557 1.379 . S
H559 C553 0.959 . S
H560 C553 0.961 . S
H561 C553 0.960 . S
H562 C554 0.930 . S
H563 C555 0.929 . S
H564 C572 0.929 . S
H565 C574 0.930 . S
H566 C576 0.930 . S
H567 C579 0.929 . S
H568 C582 0.930 . S
H569 C584 0.960 . S
H570 C584 0.960 . S
H571 C584 0.960 . S
C572 H564 0.929 . S
C572 C573 1.377 . S
C572 C574 1.384 . S
C573 C572 1.377 . S
C573 C579 1.390 . S
C574 H565 0.930 . S
C574 C572 1.384 . S
C574 C575 1.372 . S
C575 C574 1.372 . S
C575 C576 1.400 . S
C575 C580 1.490 . S
C576 H566 0.930 . S
C576 C575 1.400 . S
C576 C579 1.386 . S
H577 C593 0.930 . S
H578 C594 0.931 . S
C579 H567 0.929 . S
C579 C573 1.390 . S
C579 C576 1.386 . S
C580 C575 1.490 . S
C580 C582 1.395 . S
C580 C583 1.403 . S
H581 C587 0.930 . S
C582 H568 0.930 . S
C582 C580 1.395 . S
C582 C585 1.403 . S
C583 C580 1.403 . S
C583 C584 1.524 . S
C583 C587 1.400 . S
C584 H569 0.960 . S
C584 H570 0.960 . S
C584 H571 0.960 . S
C584 C583 1.524 . S
C585 C582 1.403 . S
C585 C586 1.392 . S
C585 C589 1.495 . S
C586 C585 1.392 . S
C586 C587 1.385 . S
C586 C588 1.478 . S
C587 H581 0.930 . S
C587 C583 1.400 . S
C587 C586 1.385 . S
C588 C586 1.478 . S
C588 C590 1.381 . S
C588 C594 1.383 . S
C589 C585 1.495 . S
C589 H595 0.959 . S
C589 H596 0.961 . S
C589 H597 0.960 . S
C590 C588 1.381 . S
C590 C591 1.394 . S
C590 H598 0.930 . S
C591 C590 1.394 . S
C591 C592 1.383 . S
C591 H599 0.929 . S
C592 C591 1.383 . S
C592 C593 1.377 . S
C593 H577 0.930 . S
C593 C592 1.377 . S
C593 C594 1.379 . S
C594 H578 0.931 . S
C594 C588 1.383 . S
C594 C593 1.379 . S
H595 C589 0.959 . S
H596 C589 0.961 . S
H597 C589 0.960 . S
H598 C590 0.930 . S
H599 C591 0.929 . S
H600 C608 0.929 . S
H601 C610 0.930 . S
H602 C612 0.930 . S
H603 C615 0.929 . S
H604 C618 0.930 . S
H605 C620 0.960 . S
H606 C620 0.960 . S
H607 C620 0.960 . S
C608 H600 0.929 . S
C608 C609 1.377 . S
C608 C610 1.384 . S
C609 C608 1.377 . S
C609 C615 1.390 . S
C610 H601 0.930 . S
C610 C608 1.384 . S
C610 C611 1.372 . S
C611 C610 1.372 . S
C611 C612 1.400 . S
C611 C616 1.490 . S
C612 H602 0.930 . S
C612 C611 1.400 . S
C612 C615 1.386 . S
H613 C629 0.930 . S
H614 C630 0.931 . S
C615 H603 0.929 . S
C615 C609 1.390 . S
C615 C612 1.386 . S
C616 C611 1.490 . S
C616 C618 1.395 . S
C616 C619 1.403 . S
H617 C623 0.930 . S
C618 H604 0.930 . S
C618 C616 1.395 . S
C618 C621 1.403 . S
C619 C616 1.403 . S
C619 C620 1.524 . S
C619 C623 1.400 . S
C620 H605 0.960 . S
C620 H606 0.960 . S
C620 H607 0.960 . S
C620 C619 1.524 . S
C621 C618 1.403 . S
C621 C622 1.392 . S
C621 C625 1.495 . S
C622 C621 1.392 . S
C622 C623 1.385 . S
C622 C624 1.478 . S
C623 H617 0.930 . S
C623 C619 1.400 . S
C623 C622 1.385 . S
C624 C622 1.478 . S
C624 C626 1.381 . S
C624 C630 1.383 . S
C625 C621 1.495 . S
C625 H631 0.959 . S
C625 H632 0.961 . S
C625 H633 0.960 . S
C626 C624 1.381 . S
C626 C627 1.394 . S
C626 H634 0.930 . S
C627 C626 1.394 . S
C627 C628 1.383 . S
C627 H635 0.929 . S
C628 C627 1.383 . S
C628 C629 1.377 . S
C629 H613 0.930 . S
C629 C628 1.377 . S
C629 C630 1.379 . S
C630 H614 0.931 . S
C630 C624 1.383 . S
C630 C629 1.379 . S
H631 C625 0.959 . S
H632 C625 0.961 . S
H633 C625 0.960 . S
H634 C626 0.930 . S
H635 C627 0.929 . S
H636 C644 0.929 . S
H637 C646 0.930 . S
H638 C648 0.930 . S
H639 C651 0.929 . S
H640 C654 0.930 . S
H641 C656 0.960 . S
H642 C656 0.960 . S
H643 C656 0.960 . S
C644 H636 0.929 . S
C644 C645 1.377 . S
C644 C646 1.384 . S
C645 C644 1.377 . S
C645 C651 1.390 . S
C646 H637 0.930 . S
C646 C644 1.384 . S
C646 C647 1.372 . S
C647 C646 1.372 . S
C647 C648 1.400 . S
C647 C652 1.490 . S
C648 H638 0.930 . S
C648 C647 1.400 . S
C648 C651 1.386 . S
H649 C665 0.930 . S
H650 C666 0.931 . S
C651 H639 0.929 . S
C651 C645 1.390 . S
C651 C648 1.386 . S
C652 C647 1.490 . S
C652 C654 1.395 . S
C652 C655 1.403 . S
H653 C659 0.930 . S
C654 H640 0.930 . S
C654 C652 1.395 . S
C654 C657 1.403 . S
C655 C652 1.403 . S
C655 C656 1.524 . S
C655 C659 1.400 . S
C656 H641 0.960 . S
C656 H642 0.960 . S
C656 H643 0.960 . S
C656 C655 1.524 . S
C657 C654 1.403 . S
C657 C658 1.392 . S
C657 C661 1.495 . S
C658 C657 1.392 . S
C658 C659 1.385 . S
C658 C660 1.478 . S
C659 H653 0.930 . S
C659 C655 1.400 . S
C659 C658 1.385 . S
C660 C658 1.478 . S
C660 C662 1.381 . S
C660 C666 1.383 . S
C661 C657 1.495 . S
C661 H667 0.959 . S
C661 H668 0.961 . S
C661 H669 0.960 . S
C662 C660 1.381 . S
C662 C663 1.394 . S
C662 H670 0.930 . S
C663 C662 1.394 . S
C663 C664 1.383 . S
C663 H671 0.929 . S
C664 C663 1.383 . S
C664 C665 1.377 . S
C665 H649 0.930 . S
C665 C664 1.377 . S
C665 C666 1.379 . S
C666 H650 0.931 . S
C666 C660 1.383 . S
C666 C665 1.379 . S
H667 C661 0.959 . S
H668 C661 0.961 . S
H669 C661 0.960 . S
H670 C662 0.930 . S
H671 C663 0.929 . S
H672 C680 0.929 . S
H673 C682 0.930 . S
H674 C684 0.930 . S
H675 C687 0.929 . S
H676 C690 0.930 . S
H677 C692 0.960 . S
H678 C692 0.960 . S
H679 C692 0.960 . S
C680 H672 0.929 . S
C680 C681 1.377 . S
C680 C682 1.384 . S
C681 C680 1.377 . S
C681 C687 1.390 . S
C682 H673 0.930 . S
C682 C680 1.384 . S
C682 C683 1.372 . S
C683 C682 1.372 . S
C683 C684 1.400 . S
C683 C688 1.490 . S
C684 H674 0.930 . S
C684 C683 1.400 . S
C684 C687 1.386 . S
H685 C701 0.930 . S
H686 C702 0.931 . S
C687 H675 0.929 . S
C687 C681 1.390 . S
C687 C684 1.386 . S
C688 C683 1.490 . S
C688 C690 1.395 . S
C688 C691 1.403 . S
H689 C695 0.930 . S
C690 H676 0.930 . S
C690 C688 1.395 . S
C690 C693 1.403 . S
C691 C688 1.403 . S
C691 C692 1.524 . S
C691 C695 1.400 . S
C692 H677 0.960 . S
C692 H678 0.960 . S
C692 H679 0.960 . S
C692 C691 1.524 . S
C693 C690 1.403 . S
C693 C694 1.392 . S
C693 C697 1.495 . S
C694 C693 1.392 . S
C694 C695 1.385 . S
C694 C696 1.478 . S
C695 H689 0.930 . S
C695 C691 1.400 . S
C695 C694 1.385 . S
C696 C694 1.478 . S
C696 C698 1.381 . S
C696 C702 1.383 . S
C697 C693 1.495 . S
C697 H703 0.959 . S
C697 H704 0.961 . S
C697 H705 0.960 . S
C698 C696 1.381 . S
C698 C699 1.394 . S
C698 H706 0.930 . S
C699 C698 1.394 . S
C699 C700 1.383 . S
C699 H707 0.929 . S
C700 C699 1.383 . S
C700 C701 1.377 . S
C701 H685 0.930 . S
C701 C700 1.377 . S
C701 C702 1.379 . S
C702 H686 0.931 . S
C702 C696 1.383 . S
C702 C701 1.379 . S
H703 C697 0.959 . S
H704 C697 0.961 . S
H705 C697 0.960 . S
H706 C698 0.930 . S
H707 C699 0.929 . S
H708 C716 0.929 . S
H709 C718 0.930 . S
H710 C720 0.930 . S
H711 C723 0.929 . S
H712 C726 0.930 . S
H713 C728 0.960 . S
H714 C728 0.960 . S
H715 C728 0.960 . S
C716 H708 0.929 . S
C716 C717 1.377 . S
C716 C718 1.384 . S
C717 C716 1.377 . S
C717 C723 1.390 . S
C718 H709 0.930 . S
C718 C716 1.384 . S
C718 C719 1.372 . S
C719 C718 1.372 . S
C719 C720 1.400 . S
C719 C724 1.490 . S
C720 H710 0.930 . S
C720 C719 1.400 . S
C720 C723 1.386 . S
H721 C737 0.930 . S
H722 C738 0.931 . S
C723 H711 0.929 . S
C723 C717 1.390 . S
C723 C720 1.386 . S
C724 C719 1.490 . S
C724 C726 1.395 . S
C724 C727 1.403 . S
H725 C731 0.930 . S
C726 H712 0.930 . S
C726 C724 1.395 . S
C726 C729 1.403 . S
C727 C724 1.403 . S
C727 C728 1.524 . S
C727 C731 1.400 . S
C728 H713 0.960 . S
C728 H714 0.960 . S
C728 H715 0.960 . S
C728 C727 1.524 . S
C729 C726 1.403 . S
C729 C730 1.392 . S
C729 C733 1.495 . S
C730 C729 1.392 . S
C730 C731 1.385 . S
C730 C732 1.478 . S
C731 H725 0.930 . S
C731 C727 1.400 . S
C731 C730 1.385 . S
C732 C730 1.478 . S
C732 C734 1.381 . S
C732 C738 1.383 . S
C733 C729 1.495 . S
C733 H739 0.959 . S
C733 H740 0.961 . S
C733 H741 0.960 . S
C734 C732 1.381 . S
C734 C735 1.394 . S
C734 H742 0.930 . S
C735 C734 1.394 . S
C735 C736 1.383 . S
C735 H743 0.929 . S
C736 C735 1.383 . S
C736 C737 1.377 . S
C737 H721 0.930 . S
C737 C736 1.377 . S
C737 C738 1.379 . S
C738 H722 0.931 . S
C738 C732 1.383 . S
C738 C737 1.379 . S
H739 C733 0.959 . S
H740 C733 0.961 . S
H741 C733 0.960 . S
H742 C734 0.930 . S
H743 C735 0.929 . S
H744 C752 0.929 . S
H745 C754 0.930 . S
H746 C756 0.930 . S
H747 C759 0.929 . S
H748 C762 0.930 . S
H749 C764 0.960 . S
H750 C764 0.960 . S
H751 C764 0.960 . S
C752 H744 0.929 . S
C752 C753 1.377 . S
C752 C754 1.384 . S
C753 C752 1.377 . S
C753 C759 1.390 . S
C754 H745 0.930 . S
C754 C752 1.384 . S
C754 C755 1.372 . S
C755 C754 1.372 . S
C755 C756 1.400 . S
C755 C760 1.490 . S
C756 H746 0.930 . S
C756 C755 1.400 . S
C756 C759 1.386 . S
H757 C773 0.930 . S
H758 C774 0.931 . S
C759 H747 0.929 . S
C759 C753 1.390 . S
C759 C756 1.386 . S
C760 C755 1.490 . S
C760 C762 1.395 . S
C760 C763 1.403 . S
H761 C767 0.930 . S
C762 H748 0.930 . S
C762 C760 1.395 . S
C762 C765 1.403 . S
C763 C760 1.403 . S
C763 C764 1.524 . S
C763 C767 1.400 . S
C764 H749 0.960 . S
C764 H750 0.960 . S
C764 H751 0.960 . S
C764 C763 1.524 . S
C765 C762 1.403 . S
C765 C766 1.392 . S
C765 C769 1.495 . S
C766 C765 1.392 . S
C766 C767 1.385 . S
C766 C768 1.478 . S
C767 H761 0.930 . S
C767 C763 1.400 . S
C767 C766 1.385 . S
C768 C766 1.478 . S
C768 C770 1.381 . S
C768 C774 1.383 . S
C769 C765 1.495 . S
C769 H775 0.959 . S
C769 H776 0.961 . S
C769 H777 0.960 . S
C770 C768 1.381 . S
C770 C771 1.394 . S
C770 H778 0.930 . S
C771 C770 1.394 . S
C771 C772 1.383 . S
C771 H779 0.929 . S
C772 C771 1.383 . S
C772 C773 1.377 . S
C773 H757 0.930 . S
C773 C772 1.377 . S
C773 C774 1.379 . S
C774 H758 0.931 . S
C774 C768 1.383 . S
C774 C773 1.379 . S
H775 C769 0.959 . S
H776 C769 0.961 . S
H777 C769 0.960 . S
H778 C770 0.930 . S
H779 C771 0.929 . S
H780 C788 0.929 . S
H781 C790 0.930 . S
H782 C792 0.930 . S
H783 C795 0.929 . S
H784 C798 0.930 . S
H785 C800 0.960 . S
H786 C800 0.960 . S
H787 C800 0.960 . S
C788 H780 0.929 . S
C788 C789 1.377 . S
C788 C790 1.384 . S
C789 C788 1.377 . S
C789 C795 1.390 . S
C790 H781 0.930 . S
C790 C788 1.384 . S
C790 C791 1.372 . S
C791 C790 1.372 . S
C791 C792 1.400 . S
C791 C796 1.490 . S
C792 H782 0.930 . S
C792 C791 1.400 . S
C792 C795 1.386 . S
H793 C809 0.930 . S
H794 C810 0.931 . S
C795 H783 0.929 . S
C795 C789 1.390 . S
C795 C792 1.386 . S
C796 C791 1.490 . S
C796 C798 1.395 . S
C796 C799 1.403 . S
H797 C803 0.930 . S
C798 H784 0.930 . S
C798 C796 1.395 . S
C798 C801 1.403 . S
C799 C796 1.403 . S
C799 C800 1.524 . S
C799 C803 1.400 . S
C800 H785 0.960 . S
C800 H786 0.960 . S
C800 H787 0.960 . S
C800 C799 1.524 . S
C801 C798 1.403 . S
C801 C802 1.392 . S
C801 C805 1.495 . S
C802 C801 1.392 . S
C802 C803 1.385 . S
C802 C804 1.478 . S
C803 H797 0.930 . S
C803 C799 1.400 . S
C803 C802 1.385 . S
C804 C802 1.478 . S
C804 C806 1.381 . S
C804 C810 1.383 . S
C805 C801 1.495 . S
C805 H811 0.959 . S
C805 H812 0.961 . S
C805 H813 0.960 . S
C806 C804 1.381 . S
C806 C807 1.394 . S
C806 H814 0.930 . S
C807 C806 1.394 . S
C807 C808 1.383 . S
C807 H815 0.929 . S
C808 C807 1.383 . S
C808 C809 1.377 . S
C809 H793 0.930 . S
C809 C808 1.377 . S
C809 C810 1.379 . S
C810 H794 0.931 . S
C810 C804 1.383 . S
C810 C809 1.379 . S
H811 C805 0.959 . S
H812 C805 0.961 . S
H813 C805 0.960 . S
H814 C806 0.930 . S
H815 C807 0.929 . S
H816 C824 0.929 . S
H817 C826 0.930 . S
H818 C828 0.930 . S
H819 C831 0.929 . S
H820 C834 0.930 . S
H821 C836 0.960 1_565 S
H822 C836 0.960 . S
H823 C836 0.960 . S
C824 H816 0.929 . S
C824 C825 1.377 . S
C824 C826 1.384 . S
C825 C824 1.377 . S
C825 C831 1.390 . S
C826 H817 0.930 . S
C826 C824 1.384 . S
C826 C827 1.372 . S
C827 C826 1.372 . S
C827 C828 1.400 . S
C827 C832 1.490 . S
C828 H818 0.930 . S
C828 C827 1.400 . S
C828 C831 1.386 . S
H829 C845 0.930 . S
H830 C846 0.931 . S
C831 H819 0.929 . S
C831 C825 1.390 . S
C831 C828 1.386 . S
C832 C827 1.490 . S
C832 C834 1.395 1_455 S
C832 C835 1.403 . S
H833 C839 0.930 . S
C834 H820 0.930 . S
C834 C832 1.395 1_655 S
C834 C837 1.403 1_545 S
C835 C832 1.403 . S
C835 C836 1.524 . S
C835 C839 1.400 1_545 S
C836 H821 0.960 1_545 S
C836 H822 0.960 . S
C836 H823 0.960 . S
C836 C835 1.524 . S
C837 C834 1.403 1_565 S
C837 C838 1.392 . S
C837 C841 1.495 . S
C838 C837 1.392 . S
C838 C839 1.385 1_655 S
C838 C840 1.478 . S
C839 H833 0.930 . S
C839 C835 1.400 1_565 S
C839 C838 1.385 1_455 S
C840 C838 1.478 . S
C840 C842 1.381 . S
C840 C846 1.383 . S
C841 C837 1.495 . S
C841 H847 0.959 1_565 S
C841 H848 0.961 . S
C841 H849 0.960 . S
C842 C840 1.381 . S
C842 C843 1.394 . S
C842 H850 0.930 . S
C843 C842 1.394 . S
C843 C844 1.383 . S
C843 H851 0.929 . S
C844 C843 1.383 . S
C844 C845 1.377 . S
C845 H829 0.930 . S
C845 C844 1.377 . S
C845 C846 1.379 . S
C846 H830 0.931 . S
C846 C840 1.383 . S
C846 C845 1.379 . S
H847 C841 0.959 1_545 S
H848 C841 0.961 . S
H849 C841 0.960 . S
H850 C842 0.930 . S
H851 C843 0.929 . S
H852 C860 0.929 . S
H853 C862 0.930 . S
H854 C864 0.930 . S
H855 C867 0.929 . S
H856 C870 0.930 . S
H857 C872 0.960 1_565 S
H858 C872 0.960 . S
H859 C872 0.960 . S
C860 H852 0.929 . S
C860 C861 1.377 . S
C860 C862 1.384 . S
C861 C860 1.377 . S
C861 C867 1.390 . S
C862 H853 0.930 . S
C862 C860 1.384 . S
C862 C863 1.372 . S
C863 C862 1.372 . S
C863 C864 1.400 . S
C863 C868 1.490 . S
C864 H854 0.930 . S
C864 C863 1.400 . S
C864 C867 1.386 . S
H865 C881 0.930 . S
H866 C882 0.931 . S
C867 H855 0.929 . S
C867 C861 1.390 . S
C867 C864 1.386 . S
C868 C863 1.490 . S
C868 C870 1.395 1_655 S
C868 C871 1.403 . S
H869 C875 0.932 . S
C870 H856 0.930 . S
C870 C868 1.395 1_455 S
C870 C873 1.403 1_545 S
C871 C868 1.403 . S
C871 C872 1.524 . S
C871 C875 1.417 1_545 S
C872 H857 0.960 1_545 S
C872 H858 0.960 . S
C872 H859 0.960 . S
C872 C871 1.524 . S
C873 C870 1.403 1_565 S
C873 C874 1.392 . S
C873 C877 1.495 . S
C874 C873 1.392 . S
C874 C875 1.368 1_455 S
C874 C876 1.478 . S
C875 H869 0.932 . S
C875 C871 1.417 1_565 S
C875 C874 1.368 1_655 S
C876 C874 1.478 . S
C876 C878 1.381 . S
C876 C882 1.383 . S
C877 C873 1.495 . S
C877 H883 0.961 . S
C877 H884 0.961 . S
C877 H885 0.960 . S
C878 C876 1.381 . S
C878 C879 1.394 . S
C878 H886 0.930 . S
C879 C878 1.394 . S
C879 C880 1.383 . S
C879 H887 0.929 . S
C880 C879 1.383 . S
C880 C881 1.377 . S
C881 H865 0.930 . S
C881 C880 1.377 . S
C881 C882 1.379 . S
C882 H866 0.931 . S
C882 C876 1.383 . S
C882 C881 1.379 . S
H883 C877 0.961 . S
H884 C877 0.961 . S
H885 C877 0.960 . S
H886 C878 0.930 . S
H887 C879 0.929 . S
H888 C896 0.929 . S
H889 C898 0.930 1_545 S
H890 C900 0.930 . S
H891 C903 0.929 . S
H892 C906 0.930 . S
H893 C908 0.960 1_554 S
H894 C908 0.960 . S
H895 C908 0.960 . S
C896 H888 0.929 . S
C896 C897 1.377 . S
C896 C898 1.384 . S
C897 C896 1.377 . S
C897 C903 1.390 . S
C898 H889 0.930 1_565 S
C898 C896 1.384 . S
C898 C899 1.372 . S
C899 C898 1.372 . S
C899 C900 1.400 . S
C899 C904 1.490 . S
C900 H890 0.930 . S
C900 C899 1.400 . S
C900 C903 1.386 . S
H901 C917 0.930 . S
H902 C918 0.931 1_565 S
C903 H891 0.929 . S
C903 C897 1.390 . S
C903 C900 1.386 . S
C904 C899 1.490 . S
C904 C906 1.395 1_565 S
C904 C907 1.403 . S
H905 C911 0.930 . S
C906 H892 0.930 . S
C906 C904 1.395 1_545 S
C906 C909 1.403 1_556 S
C907 C904 1.403 . S
C907 C908 1.524 . S
C907 C911 1.400 1_556 S
C908 H893 0.960 1_556 S
C908 H894 0.960 . S
C908 H895 0.960 . S
C908 C907 1.524 . S
C909 C906 1.403 1_554 S
C909 C910 1.392 . S
C909 C913 1.495 . S
C910 C909 1.392 . S
C910 C911 1.385 1_545 S
C910 C912 1.478 . S
C911 H905 0.930 . S
C911 C907 1.400 1_554 S
C911 C910 1.385 1_565 S
C912 C910 1.478 . S
C912 C914 1.381 . S
C912 C918 1.383 . S
C913 C909 1.495 . S
C913 H919 0.959 1_554 S
C913 H920 0.961 . S
C913 H921 0.960 . S
C914 C912 1.381 . S
C914 C915 1.394 . S
C914 H922 0.930 . S
C915 C914 1.394 . S
C915 C916 1.383 . S
C915 H923 0.929 . S
C916 C915 1.383 . S
C916 C917 1.377 . S
C917 H901 0.930 . S
C917 C916 1.377 . S
C917 C918 1.379 . S
C918 H902 0.931 1_545 S
C918 C912 1.383 . S
C918 C917 1.379 . S
H919 C913 0.959 1_556 S
H920 C913 0.961 . S
H921 C913 0.960 . S
H922 C914 0.930 . S
H923 C915 0.929 . S
H924 C932 0.929 . S
H925 C934 0.930 . S
H926 C936 0.930 1_545 S
H927 C939 0.929 . S
H928 C942 0.930 . S
H929 C944 0.960 . S
H930 C944 0.960 1_565 S
H931 C944 0.960 . S
C932 H924 0.929 . S
C932 C933 1.377 . S
C932 C934 1.384 . S
C933 C932 1.377 . S
C933 C939 1.390 . S
C934 H925 0.930 . S
C934 C932 1.384 . S
C934 C935 1.372 . S
C935 C934 1.372 . S
C935 C936 1.400 . S
C935 C940 1.490 . S
C936 H926 0.930 1_565 S
C936 C935 1.400 . S
C936 C939 1.386 . S
H937 C953 0.930 . S
H938 C954 0.931 . S
C939 H927 0.929 . S
C939 C933 1.390 . S
C939 C936 1.386 . S
C940 C935 1.490 . S
C940 C942 1.395 . S
C940 C943 1.403 1_565 S
H941 C947 0.930 . S
C942 H928 0.930 . S
C942 C940 1.395 . S
C942 C945 1.403 1_554 S
C943 C940 1.403 1_545 S
C943 C944 1.524 . S
C943 C947 1.400 1_554 S
C944 H929 0.960 . S
C944 H930 0.960 1_545 S
C944 H931 0.960 . S
C944 C943 1.524 . S
C945 C942 1.403 1_556 S
C945 C946 1.392 1_565 S
C945 C949 1.495 . S
C946 C945 1.392 1_545 S
C946 C947 1.385 . S
C946 C948 1.478 . S
C947 H941 0.930 . S
C947 C943 1.400 1_556 S
C947 C946 1.385 . S
C948 C946 1.478 . S
C948 C950 1.381 . S
C948 C954 1.383 . S
C949 C945 1.495 . S
C949 H955 0.959 . S
C949 H956 0.961 1_565 S
C949 H957 0.960 . S
C950 C948 1.381 . S
C950 C951 1.394 . S
C950 H958 0.930 1_545 S
C951 C950 1.394 . S
C951 C952 1.383 . S
C951 H959 0.929 . S
C952 C951 1.383 . S
C952 C953 1.377 . S
C953 H937 0.930 . S
C953 C952 1.377 . S
C953 C954 1.379 . S
C954 H938 0.931 . S
C954 C948 1.383 . S
C954 C953 1.379 . S
H955 C949 0.959 . S
H956 C949 0.961 1_545 S
H957 C949 0.960 . S
H958 C950 0.930 1_565 S
H959 C951 0.929 . S
H960 C968 0.929 . S
H961 C970 0.930 . S
H962 C972 0.930 . S
H963 C975 0.929 . S
H964 C978 0.930 . S
H965 C980 0.960 1_455 S
H966 C980 0.960 . S
H967 C980 0.960 . S
C968 H960 0.929 . S
C968 C969 1.377 . S
C968 C970 1.384 . S
C969 C968 1.377 . S
C969 C975 1.390 . S
C970 H961 0.930 . S
C970 C968 1.384 . S
C970 C971 1.372 . S
C971 C970 1.372 . S
C971 C972 1.400 . S
C971 C976 1.490 . S
C972 H962 0.930 . S
C972 C971 1.400 . S
C972 C975 1.386 . S
H973 C989 0.930 . S
H974 C990 0.931 . S
C975 H963 0.929 . S
C975 C969 1.390 . S
C975 C972 1.386 . S
C976 C971 1.490 . S
C976 C978 1.395 1_556 S
C976 C979 1.403 . S
H977 C983 0.930 . S
C978 H964 0.930 . S
C978 C976 1.395 1_554 S
C978 C981 1.407 . S
C979 C976 1.403 . S
C979 C980 1.524 . S
C979 C983 1.400 1_655 S
C980 H965 0.960 1_655 S
C980 H966 0.960 . S
C980 H967 0.960 . S
C980 C979 1.524 . S
C981 C978 1.407 . S
C981 C982 1.389 1_655 S
C981 C985 1.495 . S
C982 C981 1.389 1_455 S
C982 C983 1.385 1_554 S
C982 C984 1.478 . S
C983 H977 0.930 . S
C983 C979 1.400 1_455 S
C983 C982 1.385 1_556 S
C984 C982 1.478 . S
C984 C986 1.381 . S
C984 C990 1.383 . S
C985 C981 1.495 . S
C985 H991 0.966 . S
C985 H992 0.958 1_655 S
C985 H993 0.956 1_655 S
C986 C984 1.381 . S
C986 C987 1.394 . S
C986 H994 0.930 . S
C987 C986 1.394 . S
C987 C988 1.383 . S
C987 H995 0.929 . S
C988 C987 1.383 . S
C988 C989 1.377 . S
C989 H973 0.930 . S
C989 C988 1.377 . S
C989 C990 1.379 . S
C990 H974 0.931 . S
C990 C984 1.383 . S
C990 C989 1.379 . S
H991 C985 0.966 . S
H992 C985 0.958 1_455 S
H993 C985 0.956 1_455 S
H994 C986 0.930 . S
H995 C987 0.929 . S
H996 C1004 0.929 . S
H997 C1006 0.930 . S
H998 C1008 0.930 . S
H999 C1011 0.929 . S
H1000 C1014 0.930 . S
H1001 C1016 0.960 1_655 S
H1002 C1016 0.960 . S
H1003 C1016 0.960 . S
C1004 H996 0.929 . S
C1004 C1005 1.377 . S
C1004 C1006 1.384 . S
C1005 C1004 1.377 . S
C1005 C1011 1.390 . S
C1006 H997 0.930 . S
C1006 C1004 1.384 . S
C1006 C1007 1.372 . S
C1007 C1006 1.372 . S
C1007 C1008 1.400 . S
C1007 C1012 1.490 . S
C1008 H998 0.930 . S
C1008 C1007 1.400 . S
C1008 C1011 1.386 . S
H1009 C1025 0.930 . S
H1010 C1026 0.931 . S
C1011 H999 0.929 . S
C1011 C1005 1.390 . S
C1011 C1008 1.386 . S
C1012 C1007 1.490 . S
C1012 C1014 1.395 1_556 S
C1012 C1015 1.403 . S
H1013 C1019 0.930 . S
C1014 H1000 0.930 . S
C1014 C1012 1.395 1_554 S
C1014 C1017 1.408 1_455 S
C1015 C1012 1.403 . S
C1015 C1016 1.524 . S
C1015 C1019 1.400 1_455 S
C1016 H1001 0.960 1_455 S
C1016 H1002 0.960 . S
C1016 H1003 0.960 . S
C1016 C1015 1.524 . S
C1017 C1014 1.408 1_655 S
C1017 C1018 1.388 . S
C1017 C1021 1.495 . S
C1018 C1017 1.388 . S
C1018 C1019 1.385 1_554 S
C1018 C1020 1.478 . S
C1019 H1013 0.930 . S
C1019 C1015 1.400 1_655 S
C1019 C1018 1.385 1_556 S
C1020 C1018 1.478 . S
C1020 C1022 1.381 . S
C1020 C1026 1.383 . S
C1021 C1017 1.495 . S
C1021 H1027 0.955 1_655 S
C1021 H1028 0.964 . S
C1021 H1029 0.962 . S
C1022 C1020 1.381 . S
C1022 C1023 1.394 . S
C1022 H1030 0.930 . S
C1023 C1022 1.394 . S
C1023 C1024 1.383 . S
C1023 H1031 0.929 . S
C1024 C1023 1.383 . S
C1024 C1025 1.377 . S
C1025 H1009 0.930 . S
C1025 C1024 1.377 . S
C1025 C1026 1.379 . S
C1026 H1010 0.931 . S
C1026 C1020 1.383 . S
C1026 C1025 1.379 . S
H1027 C1021 0.955 1_455 S
H1028 C1021 0.964 . S
H1029 C1021 0.962 . S
H1030 C1022 0.930 . S
H1031 C1023 0.929 . S
C177 C53 0.744 . S
C196 C11 0.777 . S
C213 C39 0.748 . S
C232 C25 0.718 . S
C249 C81 0.748 . S
C268 C67 0.717 . S
C285 C95 0.753 . S
C304 C109 0.706 . S
C321 C137 0.742 . S
C340 C123 0.744 . S
C357 C151 0.739 . S
C376 C165 0.786 . S
C393 C5 0.740 . S
C412 C98 0.759 . S
C429 C84 0.729 . S
C448 C19 0.768 . S
C465 C70 0.754 . S
C484 C33 0.718 . S
C501 C56 0.754 . S
C520 C47 0.716 . S
C537 C61 0.736 . S
C556 C154 0.790 . S
C573 C112 0.745 . S
C592 C75 0.720 . S
C609 C140 0.742 . S
C628 C89 0.749 . S
C645 C103 0.745 . S
C664 C126 0.684 . S
C681 C28 0.728 . S
C700 C117 0.767 . S
C717 C0 0.754 . S
C736 C131 0.712 . S
C753 C145 0.740 . S
C772 C14 0.705 . S
C789 C42 0.735 . S
C808 C159 0.740 . S
C825 C9 1.171 . S
C844 C23 1.174 . S
C861 C51 1.170 . S
C880 C37 1.179 . S
C897 C93 1.174 . S
C916 C65 1.153 . S
C933 C79 1.168 . S
C952 C107 1.184 . S
C969 C149 1.173 . S
C988 C121 1.161 . S
C1005 C135 1.174 . S
C1024 C163 1.159 . S
