# Generated by pormake.
# Topology son, (6)-cn, num edge types: 1
# Building blocks:
#     Node 0, Type 0, BuildingBlock: INOVEN_clean_sbu_0, # of connection points: 6
#     Node 1, Type 0, BuildingBlock: INOVEN_clean_sbu_0, # of connection points: 6
#     Node 2, Type 0, BuildingBlock: INOVEN_clean_sbu_0, # of connection points: 6
#     Node 3, Type 0, BuildingBlock: INOVEN_clean_sbu_0, # of connection points: 6
#     Node 4, Type 0, BuildingBlock: INOVEN_clean_sbu_0, # of connection points: 6
#     Node 5, Type 0, BuildingBlock: INOVEN_clean_sbu_0, # of connection points: 6
#     Node 6, Type 0, BuildingBlock: INOVEN_clean_sbu_0, # of connection points: 6
#     Node 7, Type 0, BuildingBlock: INOVEN_clean_sbu_0, # of connection points: 6
#     Node 8, Type 0, BuildingBlock: INOVEN_clean_sbu_0, # of connection points: 6
#     Node 9, Type 0, BuildingBlock: INOVEN_clean_sbu_0, # of connection points: 6
#     Node 10, Type 0, BuildingBlock: INOVEN_clean_sbu_0, # of connection points: 6
#     Node 11, Type 0, BuildingBlock: INOVEN_clean_sbu_0, # of connection points: 6
#     Node 12, Type 0, BuildingBlock: INOVEN_clean_sbu_0, # of connection points: 6
#     Node 13, Type 0, BuildingBlock: INOVEN_clean_sbu_0, # of connection points: 6
#     Node 14, Type 0, BuildingBlock: INOVEN_clean_sbu_0, # of connection points: 6
#     Node 15, Type 0, BuildingBlock: INOVEN_clean_sbu_0, # of connection points: 6
#     Node 16, Type 0, BuildingBlock: INOVEN_clean_sbu_0, # of connection points: 6
#     Node 17, Type 0, BuildingBlock: INOVEN_clean_sbu_0, # of connection points: 6
#     Node 18, Type 0, BuildingBlock: INOVEN_clean_sbu_0, # of connection points: 6
#     Node 19, Type 0, BuildingBlock: INOVEN_clean_sbu_0, # of connection points: 6
#     Node 20, Type 0, BuildingBlock: INOVEN_clean_sbu_0, # of connection points: 6
#     Node 21, Type 0, BuildingBlock: INOVEN_clean_sbu_0, # of connection points: 6
#     Node 22, Type 0, BuildingBlock: INOVEN_clean_sbu_0, # of connection points: 6
#     Node 23, Type 0, BuildingBlock: INOVEN_clean_sbu_0, # of connection points: 6
#     Node 24, Type 0, BuildingBlock: INOVEN_clean_sbu_0, # of connection points: 6
#     Node 25, Type 0, BuildingBlock: INOVEN_clean_sbu_0, # of connection points: 6
#     Node 26, Type 0, BuildingBlock: INOVEN_clean_sbu_0, # of connection points: 6
#     Node 27, Type 0, BuildingBlock: INOVEN_clean_sbu_0, # of connection points: 6
#     Node 28, Type 0, BuildingBlock: INOVEN_clean_sbu_0, # of connection points: 6
#     Node 29, Type 0, BuildingBlock: INOVEN_clean_sbu_0, # of connection points: 6
#     Node 30, Type 0, BuildingBlock: INOVEN_clean_sbu_0, # of connection points: 6
#     Node 31, Type 0, BuildingBlock: INOVEN_clean_sbu_0, # of connection points: 6
#     Edge 32, Type (0, 0), BuildingBlock: KIFKEQ_clean_linker_1, # of connection points: 2
#     Edge 33, Type (0, 0), BuildingBlock: KIFKEQ_clean_linker_1, # of connection points: 2
#     Edge 34, Type (0, 0), BuildingBlock: KIFKEQ_clean_linker_1, # of connection points: 2
#     Edge 35, Type (0, 0), BuildingBlock: KIFKEQ_clean_linker_1, # of connection points: 2
#     Edge 36, Type (0, 0), BuildingBlock: KIFKEQ_clean_linker_1, # of connection points: 2
#     Edge 37, Type (0, 0), BuildingBlock: KIFKEQ_clean_linker_1, # of connection points: 2
#     Edge 38, Type (0, 0), BuildingBlock: KIFKEQ_clean_linker_1, # of connection points: 2
#     Edge 39, Type (0, 0), BuildingBlock: KIFKEQ_clean_linker_1, # of connection points: 2
#     Edge 40, Type (0, 0), BuildingBlock: KIFKEQ_clean_linker_1, # of connection points: 2
#     Edge 41, Type (0, 0), BuildingBlock: KIFKEQ_clean_linker_1, # of connection points: 2
#     Edge 42, Type (0, 0), BuildingBlock: KIFKEQ_clean_linker_1, # of connection points: 2
#     Edge 43, Type (0, 0), BuildingBlock: KIFKEQ_clean_linker_1, # of connection points: 2
#     Edge 44, Type (0, 0), BuildingBlock: KIFKEQ_clean_linker_1, # of connection points: 2
#     Edge 45, Type (0, 0), BuildingBlock: KIFKEQ_clean_linker_1, # of connection points: 2
#     Edge 46, Type (0, 0), BuildingBlock: KIFKEQ_clean_linker_1, # of connection points: 2
#     Edge 47, Type (0, 0), BuildingBlock: KIFKEQ_clean_linker_1, # of connection points: 2
#     Edge 48, Type (0, 0), BuildingBlock: KIFKEQ_clean_linker_1, # of connection points: 2
#     Edge 49, Type (0, 0), BuildingBlock: KIFKEQ_clean_linker_1, # of connection points: 2
#     Edge 50, Type (0, 0), BuildingBlock: KIFKEQ_clean_linker_1, # of connection points: 2
#     Edge 51, Type (0, 0), BuildingBlock: KIFKEQ_clean_linker_1, # of connection points: 2
#     Edge 52, Type (0, 0), BuildingBlock: KIFKEQ_clean_linker_1, # of connection points: 2
#     Edge 53, Type (0, 0), BuildingBlock: KIFKEQ_clean_linker_1, # of connection points: 2
#     Edge 54, Type (0, 0), BuildingBlock: KIFKEQ_clean_linker_1, # of connection points: 2
#     Edge 55, Type (0, 0), BuildingBlock: KIFKEQ_clean_linker_1, # of connection points: 2
#     Edge 56, Type (0, 0), BuildingBlock: KIFKEQ_clean_linker_1, # of connection points: 2
#     Edge 57, Type (0, 0), BuildingBlock: KIFKEQ_clean_linker_1, # of connection points: 2
#     Edge 58, Type (0, 0), BuildingBlock: KIFKEQ_clean_linker_1, # of connection points: 2
#     Edge 59, Type (0, 0), BuildingBlock: KIFKEQ_clean_linker_1, # of connection points: 2
#     Edge 60, Type (0, 0), BuildingBlock: KIFKEQ_clean_linker_1, # of connection points: 2
#     Edge 61, Type (0, 0), BuildingBlock: KIFKEQ_clean_linker_1, # of connection points: 2
#     Edge 62, Type (0, 0), BuildingBlock: KIFKEQ_clean_linker_1, # of connection points: 2
#     Edge 63, Type (0, 0), BuildingBlock: KIFKEQ_clean_linker_1, # of connection points: 2
#     Edge 64, Type (0, 0), BuildingBlock: KIFKEQ_clean_linker_1, # of connection points: 2
#     Edge 65, Type (0, 0), BuildingBlock: KIFKEQ_clean_linker_1, # of connection points: 2
#     Edge 66, Type (0, 0), BuildingBlock: KIFKEQ_clean_linker_1, # of connection points: 2
#     Edge 67, Type (0, 0), BuildingBlock: KIFKEQ_clean_linker_1, # of connection points: 2
#     Edge 68, Type (0, 0), BuildingBlock: KIFKEQ_clean_linker_1, # of connection points: 2
#     Edge 69, Type (0, 0), BuildingBlock: KIFKEQ_clean_linker_1, # of connection points: 2
#     Edge 70, Type (0, 0), BuildingBlock: KIFKEQ_clean_linker_1, # of connection points: 2
#     Edge 71, Type (0, 0), BuildingBlock: KIFKEQ_clean_linker_1, # of connection points: 2
#     Edge 72, Type (0, 0), BuildingBlock: KIFKEQ_clean_linker_1, # of connection points: 2
#     Edge 73, Type (0, 0), BuildingBlock: KIFKEQ_clean_linker_1, # of connection points: 2
#     Edge 74, Type (0, 0), BuildingBlock: KIFKEQ_clean_linker_1, # of connection points: 2
#     Edge 75, Type (0, 0), BuildingBlock: KIFKEQ_clean_linker_1, # of connection points: 2
#     Edge 76, Type (0, 0), BuildingBlock: KIFKEQ_clean_linker_1, # of connection points: 2
#     Edge 77, Type (0, 0), BuildingBlock: KIFKEQ_clean_linker_1, # of connection points: 2
#     Edge 78, Type (0, 0), BuildingBlock: KIFKEQ_clean_linker_1, # of connection points: 2
#     Edge 79, Type (0, 0), BuildingBlock: KIFKEQ_clean_linker_1, # of connection points: 2
#     Edge 80, Type (0, 0), BuildingBlock: KIFKEQ_clean_linker_1, # of connection points: 2
#     Edge 81, Type (0, 0), BuildingBlock: KIFKEQ_clean_linker_1, # of connection points: 2
#     Edge 82, Type (0, 0), BuildingBlock: KIFKEQ_clean_linker_1, # of connection points: 2
#     Edge 83, Type (0, 0), BuildingBlock: KIFKEQ_clean_linker_1, # of connection points: 2
#     Edge 84, Type (0, 0), BuildingBlock: KIFKEQ_clean_linker_1, # of connection points: 2
#     Edge 85, Type (0, 0), BuildingBlock: KIFKEQ_clean_linker_1, # of connection points: 2
#     Edge 86, Type (0, 0), BuildingBlock: KIFKEQ_clean_linker_1, # of connection points: 2
#     Edge 87, Type (0, 0), BuildingBlock: KIFKEQ_clean_linker_1, # of connection points: 2
#     Edge 88, Type (0, 0), BuildingBlock: KIFKEQ_clean_linker_1, # of connection points: 2
#     Edge 89, Type (0, 0), BuildingBlock: KIFKEQ_clean_linker_1, # of connection points: 2
#     Edge 90, Type (0, 0), BuildingBlock: KIFKEQ_clean_linker_1, # of connection points: 2
#     Edge 91, Type (0, 0), BuildingBlock: KIFKEQ_clean_linker_1, # of connection points: 2
#     Edge 92, Type (0, 0), BuildingBlock: KIFKEQ_clean_linker_1, # of connection points: 2
#     Edge 93, Type (0, 0), BuildingBlock: KIFKEQ_clean_linker_1, # of connection points: 2
#     Edge 94, Type (0, 0), BuildingBlock: KIFKEQ_clean_linker_1, # of connection points: 2
#     Edge 95, Type (0, 0), BuildingBlock: KIFKEQ_clean_linker_1, # of connection points: 2
#     Edge 96, Type (0, 0), BuildingBlock: KIFKEQ_clean_linker_1, # of connection points: 2
#     Edge 97, Type (0, 0), BuildingBlock: KIFKEQ_clean_linker_1, # of connection points: 2
#     Edge 98, Type (0, 0), BuildingBlock: KIFKEQ_clean_linker_1, # of connection points: 2
#     Edge 99, Type (0, 0), BuildingBlock: KIFKEQ_clean_linker_1, # of connection points: 2
#     Edge 100, Type (0, 0), BuildingBlock: KIFKEQ_clean_linker_1, # of connection points: 2
#     Edge 101, Type (0, 0), BuildingBlock: KIFKEQ_clean_linker_1, # of connection points: 2
#     Edge 102, Type (0, 0), BuildingBlock: KIFKEQ_clean_linker_1, # of connection points: 2
#     Edge 103, Type (0, 0), BuildingBlock: KIFKEQ_clean_linker_1, # of connection points: 2
#     Edge 104, Type (0, 0), BuildingBlock: KIFKEQ_clean_linker_1, # of connection points: 2
#     Edge 105, Type (0, 0), BuildingBlock: KIFKEQ_clean_linker_1, # of connection points: 2
#     Edge 106, Type (0, 0), BuildingBlock: KIFKEQ_clean_linker_1, # of connection points: 2
#     Edge 107, Type (0, 0), BuildingBlock: KIFKEQ_clean_linker_1, # of connection points: 2
#     Edge 108, Type (0, 0), BuildingBlock: KIFKEQ_clean_linker_1, # of connection points: 2
#     Edge 109, Type (0, 0), BuildingBlock: KIFKEQ_clean_linker_1, # of connection points: 2
#     Edge 110, Type (0, 0), BuildingBlock: KIFKEQ_clean_linker_1, # of connection points: 2
#     Edge 111, Type (0, 0), BuildingBlock: KIFKEQ_clean_linker_1, # of connection points: 2
#     Edge 112, Type (0, 0), BuildingBlock: KIFKEQ_clean_linker_1, # of connection points: 2
#     Edge 113, Type (0, 0), BuildingBlock: KIFKEQ_clean_linker_1, # of connection points: 2
#     Edge 114, Type (0, 0), BuildingBlock: KIFKEQ_clean_linker_1, # of connection points: 2
#     Edge 115, Type (0, 0), BuildingBlock: KIFKEQ_clean_linker_1, # of connection points: 2
#     Edge 116, Type (0, 0), BuildingBlock: KIFKEQ_clean_linker_1, # of connection points: 2
#     Edge 117, Type (0, 0), BuildingBlock: KIFKEQ_clean_linker_1, # of connection points: 2
#     Edge 118, Type (0, 0), BuildingBlock: KIFKEQ_clean_linker_1, # of connection points: 2
#     Edge 119, Type (0, 0), BuildingBlock: KIFKEQ_clean_linker_1, # of connection points: 2
#     Edge 120, Type (0, 0), BuildingBlock: KIFKEQ_clean_linker_1, # of connection points: 2
#     Edge 121, Type (0, 0), BuildingBlock: KIFKEQ_clean_linker_1, # of connection points: 2
#     Edge 122, Type (0, 0), BuildingBlock: KIFKEQ_clean_linker_1, # of connection points: 2
#     Edge 123, Type (0, 0), BuildingBlock: KIFKEQ_clean_linker_1, # of connection points: 2
#     Edge 124, Type (0, 0), BuildingBlock: KIFKEQ_clean_linker_1, # of connection points: 2
#     Edge 125, Type (0, 0), BuildingBlock: KIFKEQ_clean_linker_1, # of connection points: 2
#     Edge 126, Type (0, 0), BuildingBlock: KIFKEQ_clean_linker_1, # of connection points: 2
#     Edge 127, Type (0, 0), BuildingBlock: KIFKEQ_clean_linker_1, # of connection points: 2
# Relax obj value: 0.119
# Max RMSD: 0.164
# Mean RMSD: 0.164
data_MOF--net-son--node1-INOVEN_clean_sbu_0--edge1-KIFKEQ_clean_linker_1
_symmetry_space_group_name_H-M    P1
_symmetry_Int_Tables_number       1
_symmetry_cell_setting            triclinic
loop_
_symmetry_equiv_pos_as_xyz
'x, y, z'
_cell_length_a     96.740093
_cell_length_b     52.902679
_cell_length_c     25.366827
_cell_angle_alpha  90.069286
_cell_angle_beta   90.024605
_cell_angle_gamma 90.010374
loop_
_atom_site_label
_atom_site_type_symbol
_atom_site_fract_x
_atom_site_fract_y
_atom_site_fract_z
_atom_type_partial_charge
Gd0 Gd 0.31177 0.27742 0.1819 0.0
Gd1 Gd 0.29309 0.26934 0.28204 0.0
C2 C 0.27837 0.27486 0.16899 0.0
C3 C 0.32242 0.27789 0.08847 0.0
C4 C 0.31735 0.27402 0.03408 0.0
C5 C 0.32562 0.26108 0.99757 0.0
C6 C 0.30445 0.28344 1.01782 0.0
C7 C 0.30846 0.26794 0.9286 0.0
C8 C 0.30007 0.28051 0.96558 0.0
C9 C 0.32122 0.258 0.94537 0.0
C10 C 0.30907 0.31758 0.24815 0.0
C11 C 0.3267 0.26097 0.28696 0.0
C12 C 0.28169 0.27927 0.37198 0.0
C13 C 0.28358 0.27223 0.42787 0.0
C14 C 0.27205 0.2703 0.46109 0.0
C15 C 0.29686 0.2693 0.44942 0.0
C16 C 0.28708 0.26443 0.5375 0.0
C17 C 0.2986 0.26556 0.50359 0.0
C18 C 0.27377 0.26634 0.5153 0.0
C19 C 0.29894 0.22337 0.23959 0.0
O20 O 0.2907 0.27476 0.14718 0.0
O21 O 0.27634 0.27461 0.22072 0.0
O22 O 0.31806 0.29825 0.11276 0.0
O23 O 0.32269 0.25793 0.11899 0.0
O24 O 0.32036 0.31185 0.22318 0.0
O25 O 0.29955 0.30229 0.23511 0.0
O26 O 0.31503 0.26564 0.31278 0.0
O27 O 0.32764 0.26146 0.2351 0.0
O28 O 0.27689 0.26195 0.33981 0.0
O29 O 0.29164 0.29274 0.35124 0.0
O30 O 0.29164 0.22683 0.28191 0.0
O31 O 0.30292 0.24471 0.22283 0.0
H32 H 0.3356 0.25362 1.00928 0.0
H33 H 0.2978 0.29332 0.0453 0.0
H34 H 0.29011 0.28807 0.9541 0.0
H35 H 0.32797 0.24842 0.91778 0.0
H36 H 0.26171 0.27245 0.44529 0.0
H37 H 0.30595 0.27068 0.42466 0.0
H38 H 0.30902 0.26452 0.519 0.0
H39 H 0.26464 0.26507 0.53986 0.0
Gd40 Gd 0.92939 0.99411 0.18165 0.0
Gd41 Gd 0.94744 1.00739 0.27273 0.0
C42 C 0.96258 0.99659 0.16452 0.0
C43 C 0.9179 0.98772 0.08987 0.0
C44 C 0.92168 0.98894 0.03341 0.0
C45 C 0.91218 0.98067 0.9954 0.0
C46 C 0.93457 0.99821 1.0168 0.0
C47 C 0.92833 0.99091 0.9245 0.0
C48 C 0.93787 0.99917 0.96294 0.0
C49 C 0.91543 0.98166 0.94164 0.0
C50 C 0.93214 0.9569 0.25527 0.0
C51 C 0.91369 0.01187 0.28202 0.0
C52 C 0.95866 1.0096 0.36565 0.0
C53 C 0.95475 1.00713 0.42197 0.0
C54 C 0.95946 0.02529 0.45813 0.0
C55 C 0.94669 0.98688 0.44057 0.0
C56 C 0.94832 1.00298 0.53085 0.0
C57 C 0.94355 0.98479 0.49445 0.0
C58 C 0.95627 0.0233 0.51181 0.0
C59 C 0.94453 0.04614 0.20387 0.0
O60 O 0.95015 0.99688 0.14384 0.0
O61 O 0.96463 0.99814 0.21596 0.0
O62 O 0.92336 0.96935 0.11726 0.0
O63 O 0.91769 1.00913 0.11572 0.0
O64 O 0.92069 0.96231 0.23119 0.0
O65 O 0.94176 0.97082 0.23799 0.0
O66 O 0.92567 1.00888 0.30655 0.0
O67 O 0.91262 1.01006 0.23051 0.0
O68 O 0.95394 0.02942 0.3407 0.0
O69 O 0.9585 0.98912 0.33659 0.0
O70 O 0.95583 0.0408 0.22909 0.0
O71 O 0.93491 0.03125 0.21797 0.0
H72 H 0.90216 0.97352 1.00732 0.0
H73 H 0.94208 1.00473 0.04536 0.0
H74 H 0.94796 1.00613 0.95149 0.0
H75 H 0.90772 0.97552 0.91345 0.0
H76 H 0.96573 0.04101 0.44485 0.0
H77 H 0.94285 0.97262 0.41358 0.0
H78 H 0.93727 0.96905 0.50753 0.0
H79 H 0.96029 0.03747 0.53858 0.0
Gd80 Gd 0.3133 0.99577 0.10502 0.0
Gd81 Gd 0.29535 1.00898 1.01302 0.0
C82 C 0.28009 0.99819 0.12122 0.0
C83 C 0.32483 0.99054 0.19698 0.0
C84 C 0.32105 0.9918 0.25338 0.0
C85 C 0.33095 0.98557 0.29154 0.0
C86 C 0.30775 0.99897 0.26977 0.0
C87 C 0.31435 0.99356 0.36218 0.0
C88 C 0.30443 0.99982 0.3236 0.0
C89 C 0.32767 0.98647 0.34528 0.0
C90 C 0.31039 0.95793 0.03285 0.0
C91 C 0.3291 0.01175 1.00349 0.0
C92 C 0.28399 0.0122 0.92049 0.0
C93 C 0.28766 1.00945 0.86411 0.0
C94 C 0.28197 0.02633 0.82747 0.0
C95 C 0.2966 0.99035 0.84609 0.0
C96 C 0.29398 1.00514 0.75528 0.0
C97 C 0.29969 0.98817 0.79217 0.0
C98 C 0.28508 0.02424 0.77378 0.0
C99 C 0.2986 0.04783 0.08142 0.0
O100 O 0.29249 0.99845 0.14221 0.0
O101 O 0.27811 0.9998 0.06974 0.0
O102 O 0.31966 0.97174 0.16993 0.0
O103 O 0.32468 0.01183 0.17081 0.0
O104 O 0.3217 0.96281 0.0584 0.0
O105 O 0.30085 0.9725 0.04858 0.0
O106 O 0.3171 1.00883 0.97906 0.0
O107 O 0.33014 1.01066 0.0551 0.0
O108 O 0.28935 0.03153 0.94529 0.0
O109 O 0.28374 0.9917 0.94931 0.0
O110 O 0.28723 0.04266 0.05655 0.0
O111 O 0.30808 0.03265 0.06746 0.0
H112 H 0.34129 0.98007 0.27977 0.0
H113 H 0.29993 1.00387 0.24107 0.0
H114 H 0.29403 1.00509 0.3349 0.0
H115 H 0.33567 0.98194 0.37361 0.0
H116 H 0.27502 0.04114 0.84042 0.0
H117 H 0.30121 0.97715 0.87359 0.0
H118 H 0.30669 0.97339 0.77947 0.0
H119 H 0.28033 0.03741 0.7466 0.0
Gd120 Gd 0.93016 0.27833 0.09733 0.0
Gd121 Gd 0.94853 0.26679 1.00587 0.0
C122 C 0.96335 0.27681 0.11496 0.0
C123 C 0.91838 0.28336 0.18898 0.0
C124 C 0.92202 0.28184 0.24562 0.0
C125 C 0.91146 0.28016 0.28327 0.0
C126 C 0.93583 0.28234 0.26282 0.0
C127 C 0.92839 0.27971 0.35486 0.0
C128 C 0.93898 0.2813 0.31681 0.0
C129 C 0.91458 0.27912 0.33719 0.0
C130 C 0.93268 0.3165 0.02577 0.0
C131 C 0.91499 0.26131 0.99523 0.0
C132 C 0.96007 0.26541 0.9134 0.0
C133 C 0.95639 0.26815 0.85705 0.0
C134 C 0.96466 0.25635 0.81892 0.0
C135 C 0.9448 0.28207 0.84062 0.0
C136 C 0.94996 0.27248 0.74819 0.0
C137 C 0.94162 0.28422 0.78673 0.0
C138 C 0.9615 0.25845 0.76523 0.0
C139 C 0.94558 0.22703 0.07247 0.0
O140 O 0.95091 0.27541 0.13537 0.0
O141 O 0.96548 0.27629 0.0635 0.0
O142 O 0.92365 0.30218 0.16236 0.0
O143 O 0.91849 0.26217 0.16236 0.0
O144 O 0.92124 0.31038 0.0491 0.0
O145 O 0.94241 0.30269 0.04257 0.0
O146 O 0.92684 0.26627 0.97131 0.0
O147 O 0.91396 0.26134 0.04691 0.0
O148 O 0.95528 0.24541 0.93744 0.0
O149 O 0.95957 0.28576 0.94279 0.0
O150 O 0.95694 0.23286 0.04817 0.0
O151 O 0.93599 0.242 0.0587 0.0
H152 H 0.90073 0.27984 0.27096 0.0
H153 H 0.94417 0.28359 0.23461 0.0
H154 H 0.94973 0.28148 0.32867 0.0
H155 H 0.90612 0.27828 0.36509 0.0
H156 H 0.9736 0.24538 0.83071 0.0
H157 H 0.93823 0.29132 0.86937 0.0
H158 H 0.93273 0.29537 0.77528 0.0
H159 H 0.96803 0.24873 0.73711 0.0
Gd160 Gd 0.69911 0.75585 0.75652 0.0
Gd161 Gd 0.67862 0.74713 0.85379 0.0
C162 C 0.66574 0.76633 0.7471 0.0
C163 C 0.711 0.74635 0.66707 0.0
C164 C 0.70739 0.74823 0.61009 0.0
C165 C 0.71326 0.76719 0.57841 0.0
C166 C 0.69842 0.73062 0.58631 0.0
C167 C 0.70118 0.75105 0.50059 0.0
C168 C 0.69537 0.73201 0.53241 0.0
C169 C 0.71017 0.76864 0.52444 0.0
C170 C 0.69316 0.80066 0.80506 0.0
C171 C 0.71221 0.74799 0.87187 0.0
C172 C 0.66671 0.74525 0.94518 0.0
C173 C 0.67055 0.74846 1.00119 0.0
C174 C 0.66134 0.74055 0.04049 0.0
C175 C 0.68341 0.75856 1.01605 0.0
C176 C 0.67786 0.7523 0.10911 0.0
C177 C 0.68707 0.7603 0.06948 0.0
C178 C 0.66492 0.74253 0.09383 0.0
C179 C 0.68117 0.70888 0.78268 0.0
O180 O 0.67739 0.75954 0.72305 0.0
O181 O 0.66439 0.76673 0.79892 0.0
O182 O 0.71295 0.76745 0.6932 0.0
O183 O 0.70435 0.7294 0.69471 0.0
O184 O 0.70085 0.79877 0.76323 0.0
O185 O 0.68912 0.77876 0.81707 0.0
O186 O 0.69949 0.74849 0.89059 0.0
O187 O 0.71507 0.74905 0.82061 0.0
O188 O 0.67188 0.72539 0.92139 0.0
O189 O 0.66687 0.76559 0.91565 0.0
O190 O 0.66968 0.71474 0.80625 0.0
O191 O 0.69081 0.72291 0.79965 0.0
H192 H 0.72029 0.78092 0.59535 0.0
H193 H 0.6938 0.71553 0.60916 0.0
H194 H 0.68862 0.71782 0.51555 0.0
H195 H 0.71475 0.78374 0.50155 0.0
H196 H 0.6514 0.73261 0.02989 0.0
H197 H 0.69062 0.76502 0.98638 0.0
H198 H 0.69706 0.76813 0.07979 0.0
H199 H 0.65763 0.73591 0.12314 0.0
Gd200 Gd 0.04354 0.01483 0.75806 0.0
Gd201 Gd 0.06237 0.02591 0.84841 0.0
C202 C 0.07707 1.00803 0.74671 0.0
C203 C 0.03223 0.0128 0.66511 0.0
C204 C 0.0362 0.01505 0.60862 0.0
C205 C 0.0334 0.99488 0.57417 0.0
C206 C 0.04234 0.03706 0.58803 0.0
C207 C 0.04265 0.01859 0.49947 0.0
C208 C 0.04549 0.03881 0.53408 0.0
C209 C 0.03661 0.99657 0.52043 0.0
C210 C 0.0462 0.9751 0.82472 0.0
C211 C 0.02929 0.02638 0.86777 0.0
C212 C 0.07406 0.03079 0.94025 0.0
C213 C 0.07015 0.02958 0.99667 0.0
C214 C 0.0785 0.04159 0.0343 0.0
C215 C 0.05823 0.01676 1.01361 0.0
C216 C 0.06316 0.02798 0.10542 0.0
C217 C 0.05477 0.01599 0.06737 0.0
C218 C 0.07508 0.04079 0.08795 0.0
C219 C 0.06017 0.06421 0.77663 0.0
O220 O 0.06523 0.01362 0.72316 0.0
O221 O 0.07822 1.008 0.7983 0.0
O222 O 0.03677 0.99292 0.69028 0.0
O223 O 0.03247 0.03324 0.69423 0.0
O224 O 0.03482 0.98142 0.80107 0.0
O225 O 0.05593 0.98971 0.81071 0.0
O226 O 0.0418 0.02344 0.88681 0.0
O227 O 0.02691 0.02629 0.81634 0.0
O228 O 0.06912 0.04978 0.9133 0.0
O229 O 0.07381 1.00959 0.91366 0.0
O230 O 0.0715 0.05792 0.80065 0.0
O231 O 0.05031 0.05068 0.79351 0.0
H232 H 0.02859 0.97778 0.5888 0.0
H233 H 0.04467 0.05296 0.61346 0.0
H234 H 0.05026 0.05596 0.51956 0.0
H235 H 0.03408 0.98075 0.49508 0.0
H236 H 0.08776 0.05155 0.02218 0.0
H237 H 0.0516 1.00736 0.98532 0.0
H238 H 0.04542 1.00622 0.07901 0.0
H239 H 0.08194 0.04991 0.11585 0.0
Gd240 Gd 0.69857 0.01472 0.03569 0.0
Gd241 Gd 0.67944 0.02816 0.93745 0.0
C242 C 0.66503 1.00897 0.04201 0.0
C243 C 0.71136 0.02106 0.12452 0.0
C244 C 0.70777 0.02198 0.18135 0.0
C245 C 0.71397 1.00482 0.21629 0.0
C246 C 0.69841 0.03992 0.20151 0.0
C247 C 0.70158 0.02342 0.29056 0.0
C248 C 0.69539 0.04066 0.25552 0.0
C249 C 0.71088 1.00545 0.27019 0.0
C250 C 0.69188 0.97181 0.98182 0.0
C251 C 0.71286 0.02155 0.92215 0.0
C252 C 0.6679 0.03339 0.846 0.0
C253 C 0.67164 0.03073 0.78988 0.0
C254 C 0.6618 0.03643 0.75115 0.0
C255 C 0.68499 0.02346 0.77437 0.0
C256 C 0.67869 0.02833 0.68163 0.0
C257 C 0.68849 0.0223 0.72078 0.0
C258 C 0.66526 0.03519 0.69764 0.0
C259 C 0.6824 0.06442 1.01256 0.0
O260 O 0.67675 0.01331 0.06783 0.0
O261 O 0.66403 1.00993 0.99004 0.0
O262 O 0.71025 0.9991 0.10117 0.0
O263 O 0.70714 0.03978 0.09487 0.0
O264 O 0.69917 0.972 0.02484 0.0
O265 O 0.68845 0.99427 0.97139 0.0
O266 O 0.70048 0.02542 0.90188 0.0
O267 O 0.71512 0.01805 0.97326 0.0
O268 O 0.6739 0.05196 0.87146 0.0
O269 O 0.66715 0.01251 0.87373 0.0
O270 O 0.67106 0.06034 0.98651 0.0
O271 O 0.69182 0.04983 0.99573 0.0
H272 H 0.72128 0.99093 0.20187 0.0
H273 H 0.6934 0.0534 0.17567 0.0
H274 H 0.68807 0.05456 0.26976 0.0
H275 H 0.71597 0.99211 0.29608 0.0
H276 H 0.65143 0.04202 0.7623 0.0
H277 H 0.69275 0.01896 0.80359 0.0
H278 H 0.69897 0.01719 0.71014 0.0
H279 H 0.65735 0.03951 0.66879 0.0
Gd280 Gd 0.04316 0.75337 0.03096 0.0
Gd281 Gd 0.06286 0.74667 0.9327 0.0
C282 C 0.07652 0.76499 0.03848 0.0
C283 C 0.03195 0.7426 0.12085 0.0
C284 C 0.03532 0.74666 0.17729 0.0
C285 C 0.02568 0.75827 0.21079 0.0
C286 C 0.04792 0.73822 0.19868 0.0
C287 C 0.04101 0.75242 0.28642 0.0
C288 C 0.05069 0.74096 0.2525 0.0
C289 C 0.0285 0.76121 0.26467 0.0
C290 C 0.04749 0.79945 0.98583 0.0
C291 C 0.02931 0.7451 0.91732 0.0
C292 C 0.07461 0.74611 0.84086 0.0
C293 C 0.07066 0.74997 0.78524 0.0
C294 C 0.08091 0.75037 0.74619 0.0
C295 C 0.05675 0.75248 0.7704 0.0
C296 C 0.06334 0.75458 0.67776 0.0
C297 C 0.0531 0.75453 0.71715 0.0
C298 C 0.0773 0.75279 0.69295 0.0
C299 C 0.06103 0.70722 1.00129 0.0
O300 O 0.06494 0.75871 0.06347 0.0
O301 O 0.07757 0.76534 0.98669 0.0
O302 O 0.0284 0.76244 0.09311 0.0
O303 O 0.04001 0.72714 0.09487 0.0
O304 O 0.0399 0.7956 0.02728 0.0
O305 O 0.05241 0.77842 0.97105 0.0
O306 O 0.04181 0.74712 0.89712 0.0
O307 O 0.02688 0.74538 0.96885 0.0
O308 O 0.06954 0.72594 0.86366 0.0
O309 O 0.07437 0.76609 0.87144 0.0
O310 O 0.07239 0.71409 0.97811 0.0
O311 O 0.0512 0.72108 0.98556 0.0
H312 H 0.01589 0.76493 0.19534 0.0
H313 H 0.0556 0.72914 0.17404 0.0
H314 H 0.06034 0.73353 0.26761 0.0
H315 H 0.02087 0.77048 0.28918 0.0
H316 H 0.09171 0.74848 0.75681 0.0
H317 H 0.04872 0.75268 0.79988 0.0
H318 H 0.04227 0.75621 0.7068 0.0
H319 H 0.08541 0.7526 0.66355 0.0
Gd320 Gd 0.31038 0.7786 0.68511 0.0
Gd321 Gd 0.29249 0.76727 0.77713 0.0
C322 C 0.27722 0.77782 0.66879 0.0
C323 C 0.32192 0.78334 0.59321 0.0
C324 C 0.31794 0.78241 0.53704 0.0
C325 C 0.32648 0.79397 0.49952 0.0
C326 C 0.30577 0.77035 0.52028 0.0
C327 C 0.31086 0.78124 0.4287 0.0
C328 C 0.30227 0.76973 0.46661 0.0
C329 C 0.323 0.7934 0.44598 0.0
C330 C 0.30845 0.81706 0.7564 0.0
C331 C 0.32609 0.76185 0.78618 0.0
C332 C 0.28124 0.76538 0.86995 0.0
C333 C 0.28506 0.76788 0.92638 0.0
C334 C 0.28253 0.74754 0.96056 0.0
C335 C 0.29077 0.79024 0.94716 0.0
C336 C 0.29123 0.77176 0.03543 0.0
C337 C 0.29379 0.79216 1.00113 0.0
C338 C 0.2856 0.74941 1.01431 0.0
C339 C 0.29458 0.72741 0.71054 0.0
O340 O 0.28957 0.77672 0.64759 0.0
O341 O 0.27532 0.77685 0.72036 0.0
O342 O 0.31715 0.80241 0.62044 0.0
O343 O 0.32149 0.76204 0.61933 0.0
O344 O 0.31963 0.81093 0.73138 0.0
O345 O 0.29855 0.80324 0.74095 0.0
O346 O 0.31424 0.76588 0.81083 0.0
O347 O 0.32702 0.76256 0.73454 0.0
O348 O 0.286 0.74552 0.84522 0.0
O349 O 0.28138 0.78575 0.84071 0.0
O350 O 0.28348 0.73402 0.73564 0.0
O351 O 0.30451 0.74201 0.72296 0.0
H352 H 0.33591 0.80338 0.51164 0.0
H353 H 0.29898 0.7614 0.54862 0.0
H354 H 0.29277 0.76046 0.45488 0.0
H355 H 0.32996 0.80216 0.418 0.0
H356 H 0.27803 0.73018 0.9457 0.0
H357 H 0.29286 0.80627 0.92188 0.0
H358 H 0.29824 0.80957 1.01593 0.0
H359 H 0.28331 0.73345 0.03953 0.0
Gd360 Gd 0.92953 0.49686 0.68178 0.0
Gd361 Gd 0.94834 0.50854 0.78178 0.0
C362 C 0.9629 0.50251 0.66855 0.0
C363 C 0.91846 0.49323 0.58921 0.0
C364 C 0.92254 0.49746 0.53391 0.0
C365 C 0.91399 0.4886 0.49336 0.0
C366 C 0.93498 0.50967 0.52097 0.0
C367 C 0.93021 0.50401 0.42711 0.0
C368 C 0.93879 0.51288 0.46806 0.0
C369 C 0.91775 0.49183 0.44056 0.0
C370 C 0.9326 0.45912 0.75335 0.0
C371 C 0.91472 0.51576 0.78599 0.0
C372 C 0.96045 0.50015 0.87118 0.0
C373 C 0.9582 0.50555 0.9276 0.0
C374 C 0.96908 0.50223 0.96341 0.0
C375 C 0.94506 0.51212 0.94669 0.0
C376 C 0.95357 0.51058 0.03731 0.0
C377 C 0.94277 0.51463 1.00099 0.0
C378 C 0.96681 0.50474 1.01769 0.0
C379 C 0.94149 0.55248 0.73238 0.0
O380 O 0.95054 0.50082 0.64708 0.0
O381 O 0.96504 0.50395 0.72016 0.0
O382 O 0.92451 0.47429 0.61313 0.0
O383 O 0.91729 0.51337 0.61911 0.0
O384 O 0.92124 0.46366 0.72775 0.0
O385 O 0.942 0.47419 0.73822 0.0
O386 O 0.92641 0.51189 0.81236 0.0
O387 O 0.91377 0.51409 0.73413 0.0
O388 O 0.96368 0.51922 0.84059 0.0
O389 O 0.95157 0.48462 0.84949 0.0
O390 O 0.94852 0.5515 0.77606 0.0
O391 O 0.93823 0.5302 0.71953 0.0
H392 H 0.9044 0.47897 0.50255 0.0
H393 H 0.94174 0.51671 0.5517 0.0
H394 H 0.94839 0.52253 0.45925 0.0
H395 H 0.911 0.48436 0.41026 0.0
H396 H 0.97929 0.49713 0.94946 0.0
H397 H 0.93649 0.51465 0.91972 0.0
H398 H 0.93241 0.51888 1.01454 0.0
H399 H 0.97543 0.50191 0.04431 0.0
Gd400 Gd 0.31044 0.49664 0.59759 0.0
Gd401 Gd 0.29159 0.5065 0.50653 0.0
C402 C 0.27739 0.49452 0.61624 0.0
C403 C 0.3223 0.49345 0.68945 0.0
C404 C 0.31853 0.49463 0.74597 0.0
C405 C 0.3281 0.48655 0.7839 0.0
C406 C 0.30556 0.50347 0.7627 0.0
C407 C 0.31184 0.4961 0.85487 0.0
C408 C 0.30222 0.50408 0.81658 0.0
C409 C 0.32483 0.48733 0.83767 0.0
C410 C 0.30842 0.4576 0.52754 0.0
C411 C 0.32518 0.51283 0.49465 0.0
C412 C 0.28003 0.508 0.414 0.0
C413 C 0.28378 0.50578 0.35745 0.0
C414 C 0.27832 0.52327 0.32151 0.0
C415 C 0.2925 0.48655 0.33848 0.0
C416 C 0.28999 0.50223 0.24813 0.0
C417 C 0.29555 0.48478 0.28443 0.0
C418 C 0.28139 0.52158 0.26768 0.0
C419 C 0.29391 0.54689 0.57182 0.0
O420 O 0.28982 0.498 0.63562 0.0
O421 O 0.27505 0.49461 0.56479 0.0
O422 O 0.31779 0.47388 0.66308 0.0
O423 O 0.32138 0.51446 0.66252 0.0
O424 O 0.31969 0.46405 0.55179 0.0
O425 O 0.29853 0.47128 0.54349 0.0
O426 O 0.31323 0.50787 0.47131 0.0
O427 O 0.32644 0.51307 0.5462 0.0
O428 O 0.28451 0.52804 0.4388 0.0
O429 O 0.28064 0.48759 0.443 0.0
O430 O 0.28262 0.53971 0.54863 0.0
O431 O 0.3038 0.53243 0.55852 0.0
H432 H 0.33815 0.47957 0.77189 0.0
H433 H 0.29804 0.51 0.73422 0.0
H434 H 0.29218 0.51119 0.82826 0.0
H435 H 0.33243 0.48069 0.86579 0.0
H436 H 0.27162 0.53833 0.33514 0.0
H437 H 0.2969 0.4728 0.36529 0.0
H438 H 0.3021 0.46946 0.27106 0.0
H439 H 0.27712 0.5357 0.24145 0.0
Gd440 Gd 0.9301 0.77872 0.60405 0.0
Gd441 Gd 0.94882 0.76683 0.50395 0.0
C442 C 0.96347 0.77281 0.61725 0.0
C443 C 0.91898 0.78233 0.69649 0.0
C444 C 0.92304 0.77816 0.75184 0.0
C445 C 0.91453 0.78728 0.79227 0.0
C446 C 0.93541 0.76576 0.76493 0.0
C447 C 0.93066 0.7717 0.85872 0.0
C448 C 0.9392 0.76259 0.81789 0.0
C449 C 0.91828 0.78408 0.84511 0.0
C450 C 0.93316 0.81636 0.5323 0.0
C451 C 0.91517 0.76017 0.49954 0.0
C452 C 0.96103 0.77504 0.41472 0.0
C453 C 0.95871 0.76982 0.35827 0.0
C454 C 0.9696 0.77293 0.32245 0.0
C455 C 0.94552 0.76358 0.33919 0.0
C456 C 0.95401 0.76498 0.24857 0.0
C457 C 0.94319 0.76118 0.28489 0.0
C458 C 0.9673 0.77051 0.26817 0.0
C459 C 0.94181 0.72298 0.55342 0.0
O460 O 0.95114 0.77485 0.63883 0.0
O461 O 0.96555 0.77112 0.56564 0.0
O462 O 0.92501 0.8013 0.67259 0.0
O463 O 0.91786 0.76217 0.66664 0.0
O464 O 0.92183 0.81194 0.55812 0.0
O465 O 0.94255 0.80126 0.54738 0.0
O466 O 0.92688 0.76387 0.47321 0.0
O467 O 0.91424 0.76177 0.55144 0.0
O468 O 0.96406 0.75581 0.44512 0.0
O469 O 0.95231 0.79081 0.43653 0.0
O470 O 0.9488 0.72385 0.50966 0.0
O471 O 0.93866 0.74531 0.56625 0.0
H472 H 0.905 0.79705 0.78295 0.0
H473 H 0.94213 0.75854 0.73429 0.0
H474 H 0.94874 0.75278 0.82682 0.0
H475 H 0.91156 0.79174 0.87532 0.0
H476 H 0.97986 0.77776 0.3364 0.0
H477 H 0.93694 0.76123 0.36618 0.0
H478 H 0.9328 0.75717 0.27135 0.0
H479 H 0.97592 0.77316 0.24153 0.0
Gd480 Gd 0.69873 0.25705 0.25917 0.0
Gd481 Gd 0.67912 0.24858 0.349 0.0
C482 C 0.6652 0.26537 0.2448 0.0
C483 C 0.71079 0.25587 0.16731 0.0
C484 C 0.70725 0.25398 0.1105 0.0
C485 C 0.71752 0.25832 0.07259 0.0
C486 C 0.69378 0.24836 0.09341 0.0
C487 C 0.70091 0.252 1.0009 0.0
C488 C 0.69063 0.24745 0.0393 0.0
C489 C 0.71443 0.25727 0.01859 0.0
C490 C 0.69607 0.29805 0.3226 0.0
C491 C 0.71211 0.24674 0.37094 0.0
C492 C 0.66742 0.24548 0.44114 0.0
C493 C 0.67163 0.24613 0.49755 0.0
C494 C 0.66457 0.23101 0.53416 0.0
C495 C 0.68249 0.26156 0.51561 0.0
C496 C 0.67893 0.247 0.6063 0.0
C497 C 0.68607 0.26204 0.56935 0.0
C498 C 0.66817 0.2314 0.58775 0.0
C499 C 0.68162 0.20907 0.28043 0.0
O500 O 0.67717 0.25921 0.22272 0.0
O501 O 0.66368 0.2661 0.2963 0.0
O502 O 0.70722 0.27672 0.19136 0.0
O503 O 0.70873 0.23581 0.1964 0.0
O504 O 0.70754 0.291 0.30043 0.0
O505 O 0.68628 0.28356 0.30858 0.0
O506 O 0.69955 0.25081 0.38859 0.0
O507 O 0.7148 0.2457 0.31978 0.0
O508 O 0.67133 0.22577 0.41386 0.0
O509 O 0.66841 0.26653 0.41433 0.0
O510 O 0.67005 0.2163 0.30151 0.0
O511 O 0.69141 0.22252 0.29802 0.0
H512 H 0.72801 0.26256 0.08478 0.0
H513 H 0.6857 0.24484 0.12192 0.0
H514 H 0.68007 0.24359 0.02768 0.0
H515 H 0.72273 0.26037 0.99072 0.0
H516 H 0.65616 0.21895 0.52132 0.0
H517 H 0.68822 0.27325 0.48823 0.0
H518 H 0.69454 0.27402 0.58188 0.0
H519 H 0.66232 0.21977 0.61485 0.0
Gd520 Gd 0.04351 0.51844 0.26157 0.0
Gd521 Gd 0.06265 0.52888 0.35191 0.0
C522 C 0.07711 0.51016 0.25023 0.0
C523 C 0.03172 0.51827 0.16922 0.0
C524 C 0.03535 0.52019 0.1126 0.0
C525 C 0.02481 0.5191 0.07469 0.0
C526 C 0.0491 0.52272 0.09566 0.0
C527 C 0.04168 0.52258 1.00322 0.0
C528 C 0.05224 0.52388 0.0416 0.0
C529 C 0.02791 0.52032 0.02076 0.0
C530 C 0.04596 0.4786 0.32814 0.0
C531 C 0.02961 0.53049 0.37165 0.0
C532 C 0.07423 0.53367 0.44397 0.0
C533 C 0.0702 0.53247 0.50036 0.0
C534 C 0.0779 0.54601 0.5378 0.0
C535 C 0.05884 0.51808 0.51753 0.0
C536 C 0.06313 0.5306 0.60911 0.0
C537 C 0.05536 0.51712 0.5713 0.0
C538 C 0.07443 0.54511 0.59143 0.0
C539 C 0.06072 0.5668 0.27938 0.0
O540 O 0.06516 0.51497 0.22661 0.0
O541 O 0.07845 0.51105 0.30174 0.0
O542 O 0.03569 0.49781 0.19378 0.0
O543 O 0.03328 0.53863 0.19794 0.0
O544 O 0.03458 0.48518 0.30462 0.0
O545 O 0.05576 0.493 0.31394 0.0
O546 O 0.04209 0.52693 0.39048 0.0
O547 O 0.02716 0.53054 0.32029 0.0
O548 O 0.06942 0.55274 0.41686 0.0
O549 O 0.07401 0.51248 0.41728 0.0
O550 O 0.07209 0.56012 0.30261 0.0
O551 O 0.05078 0.55384 0.29732 0.0
H552 H 0.01412 0.51726 0.08681 0.0
H553 H 0.05742 0.52364 0.12417 0.0
H554 H 0.06297 0.52535 0.02993 0.0
H555 H 0.01945 0.51975 0.99284 0.0
H556 H 0.0867 0.55723 0.52556 0.0
H557 H 0.05266 0.50757 0.48942 0.0
H558 H 0.04649 0.50601 0.58318 0.0
H559 H 0.08077 0.55549 0.61919 0.0
Gd560 Gd 0.69794 0.51851 0.52273 0.0
Gd561 Gd 0.67955 0.53066 0.4315 0.0
C562 C 0.66432 0.51176 0.53191 0.0
C563 C 0.70957 0.51733 0.6152 0.0
C564 C 0.70597 0.52011 0.67161 0.0
C565 C 0.71657 0.5205 0.70933 0.0
C566 C 0.69219 0.52185 0.68855 0.0
C567 C 0.6997 0.52386 0.78065 0.0
C568 C 0.68908 0.52363 0.74252 0.0
C569 C 0.71349 0.52237 0.76317 0.0
C570 C 0.69553 0.47944 0.45413 0.0
C571 C 0.71271 0.52987 0.41394 0.0
C572 C 0.66804 0.53639 0.33968 0.0
C573 C 0.67194 0.53513 0.28329 0.0
C574 C 0.6639 0.54798 0.24598 0.0
C575 C 0.68346 0.52122 0.26599 0.0
C576 C 0.67855 0.53257 0.1743 0.0
C577 C 0.68673 0.51995 0.21209 0.0
C578 C 0.66715 0.54676 0.19222 0.0
C579 C 0.68165 0.56796 0.50549 0.0
O580 O 0.67621 0.51569 0.55648 0.0
O581 O 0.66321 0.51342 0.48039 0.0
O582 O 0.70476 0.49732 0.59108 0.0
O583 O 0.7089 0.53769 0.58604 0.0
O584 O 0.70676 0.48526 0.47942 0.0
O585 O 0.68575 0.49401 0.46798 0.0
O586 O 0.70028 0.52875 0.39336 0.0
O587 O 0.71483 0.52862 0.46537 0.0
O588 O 0.67322 0.55509 0.36703 0.0
O589 O 0.66796 0.51508 0.36584 0.0
O590 O 0.67031 0.56194 0.48123 0.0
O591 O 0.6915 0.55465 0.48795 0.0
H592 H 0.72728 0.51909 0.69715 0.0
H593 H 0.68384 0.52172 0.66014 0.0
H594 H 0.67835 0.52505 0.75432 0.0
H595 H 0.72194 0.52215 0.79118 0.0
H596 H 0.65502 0.55897 0.25844 0.0
H597 H 0.68986 0.51117 0.29407 0.0
H598 H 0.69551 0.50867 0.20001 0.0
H599 H 0.66076 0.55718 0.16474 0.0
Gd600 Gd 0.04405 0.25718 0.52228 0.0
Gd601 Gd 0.06272 0.2454 0.43202 0.0
C602 C 0.07778 0.26314 0.53315 0.0
C603 C 0.03234 0.25931 0.61465 0.0
C604 C 0.03588 0.25671 0.67121 0.0
C605 C 0.02546 0.25972 0.70912 0.0
C606 C 0.04944 0.25182 0.68811 0.0
C607 C 0.04212 0.25355 0.78054 0.0
C608 C 0.05253 0.25027 0.74217 0.0
C609 C 0.02852 0.25813 0.76303 0.0
C610 C 0.04673 0.29656 0.4548 0.0
C611 C 0.0297 0.24597 0.41245 0.0
C612 C 0.07405 0.23972 0.33979 0.0
C613 C 0.07006 0.24135 0.28341 0.0
C614 C 0.07702 0.22636 0.24629 0.0
C615 C 0.05947 0.2575 0.26594 0.0
C616 C 0.06308 0.24384 0.17467 0.0
C617 C 0.05605 0.25878 0.21214 0.0
C618 C 0.07359 0.22755 0.19266 0.0
C619 C 0.06036 0.20736 0.5043 0.0
O620 O 0.06579 0.259 0.55696 0.0
O621 O 0.079 0.26219 0.48163 0.0
O622 O 0.03739 0.27898 0.59022 0.0
O623 O 0.0328 0.23883 0.5858 0.0
O624 O 0.03537 0.2904 0.47867 0.0
O625 O 0.05648 0.28198 0.46902 0.0
O626 O 0.04222 0.24862 0.39349 0.0
O627 O 0.02733 0.24612 0.46388 0.0
O628 O 0.0687 0.2211 0.36673 0.0
O629 O 0.07447 0.26085 0.36665 0.0
O630 O 0.07168 0.2133 0.47989 0.0
O631 O 0.05057 0.22104 0.48741 0.0
H632 H 0.01491 0.26341 0.69701 0.0
H633 H 0.05766 0.24942 0.65957 0.0
H634 H 0.06314 0.24696 0.75386 0.0
H635 H 0.02014 0.26029 0.791 0.0
H636 H 0.08522 0.21375 0.25879 0.0
H637 H 0.05385 0.26912 0.29383 0.0
H638 H 0.04778 0.27129 0.19998 0.0
H639 H 0.07935 0.21599 0.16513 0.0
Gd640 Gd 0.81093 0.27729 0.68883 0.0
Gd641 Gd 0.79286 0.26482 0.7803 0.0
C642 C 0.77781 0.2754 0.6715 0.0
C643 C 0.82233 0.28269 0.59676 0.0
C644 C 0.8183 0.28162 0.54045 0.0
C645 C 0.82532 0.2968 0.50396 0.0
C646 C 0.80767 0.26568 0.52239 0.0
C647 C 0.81154 0.27958 0.43152 0.0
C648 C 0.80435 0.26464 0.46852 0.0
C649 C 0.82198 0.29585 0.45027 0.0
C650 C 0.80865 0.3153 0.76119 0.0
C651 C 0.82646 0.26046 0.7899 0.0
C652 C 0.78118 0.26182 0.8725 0.0
C653 C 0.78446 0.26571 0.92888 0.0
C654 C 0.77402 0.26263 0.96666 0.0
C655 C 0.7979 0.27161 0.94573 0.0
C656 C 0.79047 0.27059 0.03789 0.0
C657 C 0.80089 0.27395 0.99969 0.0
C658 C 0.77696 0.2651 0.02052 0.0
C659 C 0.7958 0.22561 0.71202 0.0
O660 O 0.79022 0.27474 0.65081 0.0
O661 O 0.77576 0.27415 0.72297 0.0
O662 O 0.8174 0.30154 0.62426 0.0
O663 O 0.82228 0.26139 0.62295 0.0
O664 O 0.81986 0.30969 0.73571 0.0
O665 O 0.79884 0.30127 0.74547 0.0
O666 O 0.81463 0.26523 0.81422 0.0
O667 O 0.82735 0.26043 0.73821 0.0
O668 O 0.78733 0.24285 0.84923 0.0
O669 O 0.78061 0.28196 0.84269 0.0
O670 O 0.78447 0.23119 0.73672 0.0
O671 O 0.80536 0.24055 0.72622 0.0
H672 H 0.83347 0.30939 0.51703 0.0
H673 H 0.80203 0.25387 0.54982 0.0
H674 H 0.79632 0.25173 0.45581 0.0
H675 H 0.82756 0.30807 0.42349 0.0
H676 H 0.76358 0.25799 0.95452 0.0
H677 H 0.80609 0.27423 0.9172 0.0
H678 H 0.81136 0.27852 1.01147 0.0
H679 H 0.7687 0.26209 0.04862 0.0
Gd680 Gd 0.43054 0.99225 0.68269 0.0
Gd681 Gd 0.44935 1.00385 0.77336 0.0
C682 C 0.46371 0.99086 0.66448 0.0
C683 C 0.41881 0.98834 0.59068 0.0
C684 C 0.4226 0.98966 0.53416 0.0
C685 C 0.41294 0.98226 0.49595 0.0
C686 C 0.43567 0.99814 0.51767 0.0
C687 C 0.42927 0.99183 0.42521 0.0
C688 C 0.439 0.99909 0.46379 0.0
C689 C 0.4162 0.98337 0.44217 0.0
C690 C 0.43285 0.95409 0.75442 0.0
C691 C 0.41567 1.00906 0.78534 0.0
C692 C 0.46088 1.00649 0.86584 0.0
C693 C 0.45713 1.00423 0.9224 0.0
C694 C 0.46281 0.02135 0.95873 0.0
C695 C 0.4482 0.98525 0.94098 0.0
C696 C 0.45095 1.00041 0.03173 0.0
C697 C 0.44516 0.98335 0.99501 0.0
C698 C 0.45975 0.01953 1.01257 0.0
C699 C 0.44647 0.04309 0.70537 0.0
O700 O 0.45124 0.9934 0.6448 0.0
O701 O 0.46603 0.99196 0.71587 0.0
O702 O 0.42355 0.96902 0.61719 0.0
O703 O 0.41941 1.00943 0.61758 0.0
O704 O 0.42157 0.95981 0.72939 0.0
O705 O 0.44265 0.96792 0.73815 0.0
O706 O 0.42772 1.005 0.80875 0.0
O707 O 0.41435 1.00841 0.7338 0.0
O708 O 0.45608 0.02617 0.84072 0.0
O709 O 0.46062 0.98592 0.83716 0.0
O710 O 0.45793 0.03692 0.72862 0.0
O711 O 0.43683 0.02854 0.72044 0.0
H712 H 0.40281 0.97559 0.50772 0.0
H713 H 0.44328 1.00416 0.54635 0.0
H714 H 0.44911 1.00594 0.45235 0.0
H715 H 0.40851 0.97728 0.41385 0.0
H716 H 0.46967 0.03622 0.9454 0.0
H717 H 0.44364 0.97179 0.91386 0.0
H718 H 0.43846 0.96821 1.00804 0.0
H719 H 0.46421 0.03334 0.03912 0.0
Gd720 Gd 0.81311 0.99401 0.60469 0.0
Gd721 Gd 0.79391 1.00436 0.51485 0.0
C722 C 0.7801 0.99311 0.62549 0.0
C723 C 0.82466 0.98925 0.69675 0.0
C724 C 0.82065 0.99042 0.75326 0.0
C725 C 0.82692 0.97389 0.78925 0.0
C726 C 0.81078 1.00775 0.77207 0.0
C727 C 0.81392 0.99243 0.86249 0.0
C728 C 0.80748 1.00877 0.82601 0.0
C729 C 0.8236 0.97482 0.84302 0.0
C730 C 0.81069 0.95563 0.53339 0.0
C731 C 0.82758 0.01157 0.50218 0.0
C732 C 0.78208 1.00457 0.42259 0.0
C733 C 0.78579 1.00271 0.366 0.0
C734 C 0.77577 1.0082 0.32772 0.0
C735 C 0.79913 0.99575 0.34949 0.0
C736 C 0.79228 0.99983 0.25682 0.0
C737 C 0.80235 0.99439 0.29549 0.0
C738 C 0.77895 1.00676 0.27388 0.0
C739 C 0.79658 0.04433 0.58108 0.0
O740 O 0.79263 0.99662 0.64386 0.0
O741 O 0.77757 0.99271 0.57416 0.0
O742 O 0.81987 0.97016 0.66956 0.0
O743 O 0.82452 1.01042 0.67003 0.0
O744 O 0.82218 0.96223 0.55589 0.0
O745 O 0.80089 0.96899 0.55113 0.0
O746 O 0.81551 1.00705 0.47918 0.0
O747 O 0.82904 1.01093 0.55368 0.0
O748 O 0.78598 0.02504 0.44734 0.0
O749 O 0.78363 0.9842 0.45123 0.0
O750 O 0.78515 0.03775 0.55798 0.0
O751 O 0.80636 0.02991 0.56648 0.0
H752 H 0.83447 0.96021 0.77573 0.0
H753 H 0.8057 0.02064 0.74516 0.0
H754 H 0.80006 0.02273 0.83918 0.0
H755 H 0.82858 0.96151 0.86927 0.0
H756 H 0.76544 0.01371 0.33951 0.0
H757 H 0.80703 0.99134 0.37828 0.0
H758 H 0.81268 0.98873 0.28405 0.0
H759 H 0.77098 0.01149 0.24559 0.0
Gd760 Gd 0.42901 0.27563 0.60067 0.0
Gd761 Gd 0.44767 0.26406 0.51001 0.0
C762 C 0.46214 0.27746 0.61851 0.0
C763 C 0.41733 0.28018 0.69261 0.0
C764 C 0.42115 0.27892 0.74909 0.0
C765 C 0.41179 0.28767 0.78713 0.0
C766 C 0.43395 0.26924 0.76569 0.0
C767 C 0.42795 0.27725 0.85802 0.0
C768 C 0.43734 0.26849 0.81952 0.0
C769 C 0.41511 0.28679 0.84088 0.0
C770 C 0.43083 0.31345 0.52785 0.0
C771 C 0.41403 0.25781 0.49925 0.0
C772 C 0.45906 0.26129 0.41735 0.0
C773 C 0.4552 0.26353 0.36088 0.0
C774 C 0.46036 0.24577 0.32478 0.0
C775 C 0.4467 0.28314 0.34215 0.0
C776 C 0.44874 0.26715 0.25188 0.0
C777 C 0.44355 0.28498 0.28821 0.0
C778 C 0.45716 0.2475 0.27104 0.0
C779 C 0.44529 0.22502 0.57876 0.0
O780 O 0.44972 0.2745 0.63838 0.0
O781 O 0.46436 0.27659 0.56704 0.0
O782 O 0.42226 0.29927 0.66587 0.0
O783 O 0.41773 0.259 0.66599 0.0
O784 O 0.41965 0.30747 0.55317 0.0
O785 O 0.44079 0.30005 0.54431 0.0
O786 O 0.42595 0.26229 0.47527 0.0
O787 O 0.4129 0.25844 0.55082 0.0
O788 O 0.45426 0.24165 0.44262 0.0
O789 O 0.45891 0.28187 0.446 0.0
O790 O 0.45664 0.23144 0.55504 0.0
O791 O 0.43548 0.23922 0.56377 0.0
H792 H 0.40183 0.29511 0.77526 0.0
H793 H 0.44132 0.26225 0.7371 0.0
H794 H 0.44739 0.26131 0.83083 0.0
H795 H 0.40748 0.29327 0.86903 0.0
H796 H 0.46698 0.23055 0.33816 0.0
H797 H 0.4425 0.29705 0.36911 0.0
H798 H 0.43691 0.3002 0.27505 0.0
H799 H 0.4615 0.23363 0.24433 0.0
Gd800 Gd 0.19796 0.75154 0.25511 0.0
Gd801 Gd 0.1782 0.74448 0.35265 0.0
C802 C 0.16453 0.76281 0.24726 0.0
C803 C 0.2092 0.74048 0.16526 0.0
C804 C 0.20581 0.74379 0.10846 0.0
C805 C 0.21327 0.76098 0.07729 0.0
C806 C 0.19543 0.72914 0.0843 0.0
C807 C 0.2 0.74892 0.99915 0.0
C808 C 0.19258 0.73166 0.03049 0.0
C809 C 0.21039 0.76357 0.02336 0.0
C810 C 0.19338 0.79761 0.2998 0.0
C811 C 0.21167 0.74524 0.3694 0.0
C812 C 0.16652 0.74283 0.44454 0.0
C813 C 0.17033 0.74697 0.50024 0.0
C814 C 0.16059 0.74208 0.53982 0.0
C815 C 0.18367 0.75485 0.51461 0.0
C816 C 0.1776 0.75199 0.60781 0.0
C817 C 0.18732 0.75712 0.56791 0.0
C818 C 0.16416 0.74467 0.59305 0.0
C819 C 0.18054 0.7049 0.28437 0.0
O820 O 0.17618 0.75675 0.22238 0.0
O821 O 0.1634 0.76295 0.29901 0.0
O822 O 0.21256 0.76064 0.19246 0.0
O823 O 0.20135 0.72494 0.19189 0.0
O824 O 0.20103 0.79376 0.25849 0.0
O825 O 0.18848 0.77657 0.31473 0.0
O826 O 0.19908 0.74701 0.3888 0.0
O827 O 0.21425 0.74475 0.31795 0.0
O828 O 0.17214 0.72316 0.42167 0.0
O829 O 0.1662 0.7628 0.41404 0.0
O830 O 0.16905 0.71164 0.30677 0.0
O831 O 0.19022 0.71904 0.30043 0.0
H832 H 0.2214 0.77239 0.09459 0.0
H833 H 0.18954 0.71546 0.10675 0.0
H834 H 0.18471 0.71967 1.0133 0.0
H835 H 0.21623 0.77724 1.00076 0.0
H836 H 0.15024 0.73594 0.52957 0.0
H837 H 0.19128 0.75909 0.48471 0.0
H838 H 0.19772 0.76306 0.5779 0.0
H839 H 0.15647 0.74034 0.62272 0.0
Gd840 Gd 0.54328 0.01255 0.25021 0.0
Gd841 Gd 0.56089 0.03093 0.34806 0.0
C842 C 0.57679 1.0102 0.24845 0.0
C843 C 0.53022 0.01256 0.16083 0.0
C844 C 0.53255 0.01932 0.10515 0.0
C845 C 0.52317 1.01067 0.06708 0.0
C846 C 0.54452 0.03214 0.08885 0.0
C847 C 0.53801 0.02622 0.99648 0.0
C848 C 0.5472 0.03566 0.03494 0.0
C849 C 0.52585 0.01408 1.01338 0.0
C850 C 0.54957 0.97215 0.31242 0.0
C851 C 0.52772 0.02088 0.36093 0.0
C852 C 0.57133 0.03967 0.44032 0.0
C853 C 0.56738 0.03713 0.4964 0.0
C854 C 0.57771 0.03404 0.53459 0.0
C855 C 0.55351 0.03855 0.51262 0.0
C856 C 0.56046 0.03467 0.60492 0.0
C857 C 0.55009 0.03735 0.56627 0.0
C858 C 0.57431 0.03279 0.58819 0.0
C859 C 0.55856 0.06473 0.26746 0.0
O860 O 0.5653 0.01374 0.22078 0.0
O861 O 0.57721 0.01211 0.30038 0.0
O862 O 0.53751 0.9935 0.17812 0.0
O863 O 0.52925 0.03095 0.19527 0.0
O864 O 0.5426 0.97055 0.26891 0.0
O865 O 0.55277 0.99503 0.31968 0.0
O866 O 0.53963 0.02788 0.38152 0.0
O867 O 0.52616 0.01457 0.31065 0.0
O868 O 0.56459 0.05664 0.41284 0.0
O869 O 0.57356 0.01868 0.41407 0.0
O870 O 0.56931 0.06235 0.29766 0.0
O871 O 0.54908 0.05001 0.28359 0.0
H872 H 0.5139 1.00066 0.07886 0.0
H873 H 0.55195 0.03877 0.11769 0.0
H874 H 0.5567 0.04496 0.02337 0.0
H875 H 0.51844 1.00695 0.98502 0.0
H876 H 0.58847 0.03281 0.52298 0.0
H877 H 0.54534 0.04097 0.48392 0.0
H878 H 0.53933 0.03908 0.57746 0.0
H879 H 0.58257 0.03023 0.61651 0.0
Gd880 Gd 0.19875 0.01284 0.52883 0.0
Gd881 Gd 0.17986 0.024 0.43837 0.0
C882 C 0.16514 1.00661 0.54019 0.0
C883 C 0.21057 1.0109 0.62111 0.0
C884 C 0.2071 0.01417 0.67761 0.0
C885 C 0.21733 1.01 0.71583 0.0
C886 C 0.19372 0.02071 0.69413 0.0
C887 C 0.20081 0.01828 0.78671 0.0
C888 C 0.19059 0.02264 0.7481 0.0
C889 C 0.21425 0.01208 0.76968 0.0
C890 C 0.19583 0.97302 0.46231 0.0
C891 C 0.21285 0.02389 0.41841 0.0
C892 C 0.16836 0.02915 0.34629 0.0
C893 C 0.17233 0.02789 0.28982 0.0
C894 C 0.16548 0.04335 0.25335 0.0
C895 C 0.18278 0.01161 0.2716 0.0
C896 C 0.17911 0.02585 0.18073 0.0
C897 C 0.18613 1.01059 0.2177 0.0
C898 C 0.16882 0.0424 0.19962 0.0
C899 C 0.18222 0.06235 0.51014 0.0
O900 O 0.17701 0.01216 0.56365 0.0
O901 O 0.16397 1.00635 0.48859 0.0
O902 O 0.20517 0.9913 0.59741 0.0
O903 O 0.21041 0.03113 0.59154 0.0
O904 O 0.20726 0.97914 0.48593 0.0
O905 O 0.1862 0.98785 0.47632 0.0
O906 O 0.20033 0.02079 0.3997 0.0
O907 O 0.2153 0.02405 0.46982 0.0
O908 O 0.17336 0.04805 0.37347 0.0
O909 O 0.16833 1.00797 0.3729 0.0
O910 O 0.17088 0.05623 0.48596 0.0
O911 O 0.19203 0.04866 0.49331 0.0
H912 H 0.22772 1.00486 0.70403 0.0
H913 H 0.1857 0.02421 0.66533 0.0
H914 H 0.18017 0.02776 0.75956 0.0
H915 H 0.22236 1.00828 0.79802 0.0
H916 H 0.15747 0.05621 0.26646 0.0
H917 H 0.18831 0.99957 0.29896 0.0
H918 H 0.19403 0.99746 0.20497 0.0
H919 H 0.16337 0.05488 0.17295 0.0
Gd920 Gd 0.5432 0.75729 0.54011 0.0
Gd921 Gd 0.56232 0.74855 0.4412 0.0
C922 C 0.57686 0.76606 0.54561 0.0
C923 C 0.53153 0.74778 0.62964 0.0
C924 C 0.53431 0.75319 0.68593 0.0
C925 C 0.52351 0.76085 0.71916 0.0
C926 C 0.54755 0.74956 0.70757 0.0
C927 C 0.53896 0.76005 0.79539 0.0
C928 C 0.54982 0.75283 0.7616 0.0
C929 C 0.5258 0.76434 0.77325 0.0
C930 C 0.54949 0.80278 0.49551 0.0
C931 C 0.52934 0.75601 0.42636 0.0
C932 C 0.57247 0.74409 0.34749 0.0
C933 C 0.56793 0.75002 0.29324 0.0
C934 C 0.5777 0.75749 0.2555 0.0
C935 C 0.55404 0.74722 0.27798 0.0
C936 C 0.55992 0.75784 0.18723 0.0
C937 C 0.55009 0.751 0.2255 0.0
C938 C 0.57373 0.76144 0.20303 0.0
C939 C 0.55917 0.70909 0.50938 0.0
O940 O 0.56526 0.76011 0.57097 0.0
O941 O 0.5778 0.76631 0.49366 0.0
O942 O 0.5278 0.76678 0.59968 0.0
O943 O 0.5402 0.7324 0.60631 0.0
O944 O 0.54208 0.80029 0.53789 0.0
O945 O 0.55326 0.78105 0.48087 0.0
O946 O 0.54187 0.75895 0.4072 0.0
O947 O 0.52696 0.75119 0.47689 0.0
O948 O 0.56565 0.72603 0.37144 0.0
O949 O 0.57535 0.76329 0.37843 0.0
O950 O 0.5707 0.715 0.4864 0.0
O951 O 0.54976 0.72403 0.49404 0.0
H952 H 0.51323 0.76381 0.70338 0.0
H953 H 0.55611 0.74365 0.68297 0.0
H954 H 0.56004 0.74897 0.77699 0.0
H955 H 0.51723 0.77032 0.79769 0.0
H956 H 0.58846 0.75976 0.26638 0.0
H957 H 0.54626 0.74161 0.30635 0.0
H958 H 0.53934 0.74843 0.21478 0.0
H959 H 0.58158 0.76651 0.17448 0.0
Gd960 Gd 0.81306 0.77684 0.18461 0.0
Gd961 Gd 0.79393 0.76645 0.28372 0.0
C962 C 0.77962 0.77328 0.1702 0.0
C963 C 0.82453 0.77998 0.0926 0.0
C964 C 0.82065 0.77668 0.03676 0.0
C965 C 0.83022 0.78293 0.99746 0.0
C966 C 0.80745 0.76815 0.02203 0.0
C967 C 0.81338 0.77281 0.92892 0.0
C968 C 0.80384 0.76623 0.96861 0.0
C969 C 0.82665 0.78099 0.94415 0.0
C970 C 0.81031 0.815 0.25563 0.0
C971 C 0.8275 0.75824 0.28954 0.0
C972 C 0.78191 0.77561 0.37305 0.0
C973 C 0.78443 0.77054 0.42939 0.0
C974 C 0.77452 0.77768 0.46682 0.0
C975 C 0.79708 0.76053 0.44657 0.0
C976 C 0.79015 0.76614 0.53843 0.0
C977 C 0.79992 0.75835 0.50054 0.0
C978 C 0.77732 0.77547 0.52079 0.0
C979 C 0.80016 0.72179 0.23554 0.0
O980 O 0.79204 0.77423 0.14909 0.0
O981 O 0.77739 0.77193 0.22175 0.0
O982 O 0.81892 0.79927 0.1169 0.0
O983 O 0.82495 0.75952 0.12171 0.0
O984 O 0.8217 0.80975 0.23089 0.0
O985 O 0.80077 0.80032 0.24009 0.0
O986 O 0.81579 0.76269 0.31528 0.0
O987 O 0.82854 0.75929 0.23766 0.0
O988 O 0.77866 0.75632 0.34305 0.0
O989 O 0.79073 0.79096 0.3507 0.0
O990 O 0.79282 0.72367 0.27831 0.0
O991 O 0.80395 0.74376 0.22226 0.0
H992 H 0.84047 0.7895 1.00801 0.0
H993 H 0.7999 0.76321 0.05173 0.0
H994 H 0.7935 0.7601 0.95847 0.0
H995 H 0.83434 0.78579 0.91484 0.0
H996 H 0.76473 0.78565 0.45432 0.0
H997 H 0.80488 0.75493 0.41826 0.0
H998 H 0.80982 0.75075 0.51259 0.0
H999 H 0.76962 0.78193 0.54867 0.0
Gd1000 Gd 0.42627 0.4898 0.17329 0.0
Gd1001 Gd 0.44492 0.502 0.26379 0.0
C1002 C 0.45925 0.49163 0.15349 0.0
C1003 C 0.41486 0.48402 0.0812 0.0
C1004 C 0.41866 0.48603 0.0247 0.0
C1005 C 0.41166 0.47111 0.98758 0.0
C1006 C 0.42911 0.50245 1.00713 0.0
C1007 C 0.42523 0.48928 0.91563 0.0
C1008 C 0.43236 0.50405 0.95322 0.0
C1009 C 0.4149 0.47267 0.93383 0.0
C1010 C 0.42906 0.45175 0.24522 0.0
C1011 C 0.41117 0.50694 0.27485 0.0
C1012 C 0.45666 0.50432 0.35614 0.0
C1013 C 0.45309 0.50165 0.41266 0.0
C1014 C 0.4635 0.50428 0.45077 0.0
C1015 C 0.43947 0.49707 0.4293 0.0
C1016 C 0.44675 0.49813 0.52181 0.0
C1017 C 0.43633 0.49539 0.48329 0.0
C1018 C 0.46039 0.50252 0.50462 0.0
C1019 C 0.44173 0.54137 0.19665 0.0
O1020 O 0.4467 0.49399 0.13455 0.0
O1021 O 0.46162 0.49147 0.20495 0.0
O1022 O 0.42052 0.46553 0.10764 0.0
O1023 O 0.41423 0.50503 0.10843 0.0
O1024 O 0.41767 0.45724 0.22078 0.0
O1025 O 0.43869 0.46585 0.22854 0.0
O1026 O 0.42322 0.50327 0.29854 0.0
O1027 O 0.40986 0.50581 0.22336 0.0
O1028 O 0.45155 0.52392 0.33165 0.0
O1029 O 0.4563 0.48384 0.32728 0.0
O1030 O 0.4532 0.53554 0.22026 0.0
O1031 O 0.43218 0.52643 0.211 0.0
H1032 H 0.40364 0.45816 1.00019 0.0
H1033 H 0.43471 0.51412 0.03501 0.0
H1034 H 0.44031 0.51721 0.94097 0.0
H1035 H 0.40935 0.46059 0.90658 0.0
H1036 H 0.47406 0.50793 0.43887 0.0
H1037 H 0.43126 0.49488 0.40064 0.0
H1038 H 0.42574 0.49169 0.49481 0.0
H1039 H 0.46868 0.50509 0.53285 0.0
Gd1040 Gd 0.81357 0.49771 0.10231 0.0
Gd1041 Gd 0.79398 0.5073 1.00415 0.0
C1042 C 0.78028 0.50125 0.11853 0.0
C1043 C 0.82455 0.49399 0.19514 0.0
C1044 C 0.82052 0.49794 0.25076 0.0
C1045 C 0.82759 0.48476 0.29034 0.0
C1046 C 0.80943 0.51371 0.26488 0.0
C1047 C 0.81242 0.50255 0.35774 0.0
C1048 C 0.80543 0.51603 0.31791 0.0
C1049 C 0.82362 0.48704 0.34316 0.0
C1050 C 0.81039 0.45863 0.03331 0.0
C1051 C 0.82765 0.51646 0.99772 0.0
C1052 C 0.78235 0.49806 0.91404 0.0
C1053 C 0.78402 0.50452 0.85771 0.0
C1054 C 0.77336 0.49883 0.82216 0.0
C1055 C 0.79664 0.51368 0.83808 0.0
C1056 C 0.78822 0.50956 0.74759 0.0
C1057 C 0.79871 0.51621 0.78361 0.0
C1058 C 0.77541 0.50136 0.76775 0.0
C1059 C 0.80015 0.5523 0.05118 0.0
O1060 O 0.79287 0.50328 0.13774 0.0
O1061 O 0.77773 0.50001 0.06707 0.0
O1062 O 0.81847 0.47515 0.17099 0.0
O1063 O 0.82582 0.51412 0.16535 0.0
O1064 O 0.82183 0.46404 0.05757 0.0
O1065 O 0.80095 0.47366 0.04835 0.0
O1066 O 0.81586 0.51175 0.97256 0.0
O1067 O 0.82891 0.51536 0.04947 0.0
O1068 O 0.77794 0.51573 0.94623 0.0
O1069 O 0.79228 0.48438 0.93426 0.0
O1070 O 0.7925 0.5501 1.00928 0.0
O1071 O 0.80414 0.53047 0.06443 0.0
H1072 H 0.83617 0.47249 0.28031 0.0
H1073 H 0.80375 0.52395 0.23491 0.0
H1074 H 0.79669 0.52794 0.32755 0.0
H1075 H 0.82938 0.47668 0.37269 0.0
H1076 H 0.76356 0.49166 0.83642 0.0
H1077 H 0.80505 0.51801 0.86478 0.0
H1078 H 0.80874 0.52237 0.76971 0.0
H1079 H 0.76701 0.49649 0.74139 0.0
Gd1080 Gd 0.42831 0.77671 0.10572 0.0
Gd1081 Gd 0.44664 0.76387 1.01535 0.0
C1082 C 0.46107 0.7696 0.12656 0.0
C1083 C 0.41712 0.78393 0.19782 0.0
C1084 C 0.42064 0.78084 0.25443 0.0
C1085 C 0.41 0.77788 0.2915 0.0
C1086 C 0.43437 0.78187 0.27238 0.0
C1087 C 0.42672 0.77744 0.36386 0.0
C1088 C 0.43739 0.78004 0.3264 0.0
C1089 C 0.41299 0.77626 0.34551 0.0
C1090 C 0.43179 0.81502 0.03498 0.0
C1091 C 0.41281 0.76131 1.00369 0.0
C1092 C 0.45825 0.76151 0.92288 0.0
C1093 C 0.45456 0.7642 0.86644 0.0
C1094 C 0.46254 0.75161 0.82845 0.0
C1095 C 0.44321 0.77872 0.84977 0.0
C1096 C 0.44789 0.76779 0.75755 0.0
C1097 C 0.43993 0.78055 0.79588 0.0
C1098 C 0.45927 0.75338 0.77478 0.0
C1099 C 0.44248 0.72398 0.08017 0.0
O1100 O 0.44837 0.76849 0.14443 0.0
O1101 O 0.4636 0.7717 0.0754 0.0
O1102 O 0.42395 0.80128 0.172 0.0
O1103 O 0.41527 0.76334 0.17003 0.0
O1104 O 0.42032 0.80988 0.059 0.0
O1105 O 0.44123 0.80033 0.0513 0.0
O1106 O 0.42495 0.76425 0.98022 0.0
O1107 O 0.41153 0.76214 0.05525 0.0
O1108 O 0.45315 0.7419 0.94732 0.0
O1109 O 0.45807 0.78193 0.95202 0.0
O1110 O 0.45405 0.72907 0.0566 0.0
O1111 O 0.43325 0.73982 0.06683 0.0
H1112 H 0.39932 0.7771 0.27869 0.0
H1113 H 0.44276 0.78453 0.24475 0.0
H1114 H 0.44808 0.78129 0.3389 0.0
H1115 H 0.40451 0.77393 0.37293 0.0
H1116 H 0.47135 0.74034 0.84034 0.0
H1117 H 0.43685 0.78853 0.87838 0.0
H1118 H 0.43101 0.79162 0.78436 0.0
H1119 H 0.46579 0.74362 0.74668 0.0
Gd1120 Gd 0.19812 0.25303 0.75543 0.0
Gd1121 Gd 0.17869 0.24367 0.85452 0.0
C1122 C 0.16441 0.26155 0.74938 0.0
C1123 C 0.2097 0.244 0.66521 0.0
C1124 C 0.20788 0.2509 0.60917 0.0
C1125 C 0.21877 0.24717 0.57356 0.0
C1126 C 0.19497 0.25877 0.58982 0.0
C1127 C 0.20364 0.25735 0.49938 0.0
C1128 C 0.19287 0.26195 0.53556 0.0
C1129 C 0.2167 0.2504 0.51929 0.0
C1130 C 0.19176 0.29808 0.80178 0.0
C1131 C 0.21205 0.24654 0.8697 0.0
C1132 C 0.16767 0.24123 0.94745 0.0
C1133 C 0.17177 0.24587 1.00273 0.0
C1134 C 0.16333 0.23689 0.04349 0.0
C1135 C 0.18417 0.25828 1.01549 0.0
C1136 C 0.17966 0.25235 0.1095 0.0
C1137 C 0.18811 0.2614 0.06837 0.0
C1138 C 0.1672 0.24012 0.09624 0.0
C1139 C 0.18166 0.20444 0.78564 0.0
O1140 O 0.1762 0.25696 0.72411 0.0
O1141 O 0.16321 0.26068 0.80117 0.0
O1142 O 0.2142 0.26147 0.69772 0.0
O1143 O 0.19979 0.23023 0.68537 0.0
O1144 O 0.1992 0.29593 0.75937 0.0
O1145 O 0.18802 0.27622 0.81566 0.0
O1146 O 0.19952 0.2483 0.88947 0.0
O1147 O 0.2145 0.24586 0.81812 0.0
O1148 O 0.17365 0.22199 0.92426 0.0
O1149 O 0.16656 0.26105 0.9167 0.0
O1150 O 0.17034 0.20969 0.81088 0.0
O1151 O 0.19111 0.21956 0.8002 0.0
H1152 H 0.2288 0.24104 0.5876 0.0
H1153 H 0.18638 0.26163 0.61653 0.0
H1154 H 0.18264 0.26705 0.52192 0.0
H1155 H 0.22531 0.24713 0.49287 0.0
H1156 H 0.15377 0.2271 0.03449 0.0
H1157 H 0.19082 0.26545 0.98465 0.0
H1158 H 0.1977 0.27109 0.07702 0.0
H1159 H 0.16053 0.23255 0.12666 0.0
Gd1160 Gd 0.54411 0.51648 0.75339 0.0
Gd1161 Gd 0.56318 0.52749 0.85142 0.0
C1162 C 0.57786 0.50929 0.74769 0.0
C1163 C 0.53238 0.52511 0.66322 0.0
C1164 C 0.53521 0.51988 0.6069 0.0
C1165 C 0.52428 0.51945 0.57058 0.0
C1166 C 0.54881 0.51707 0.58835 0.0
C1167 C 0.54053 0.51476 0.4974 0.0
C1168 C 0.55144 0.51457 0.53427 0.0
C1169 C 0.5269 0.51687 0.51647 0.0
C1170 C 0.55112 0.47175 0.79945 0.0
C1171 C 0.5303 0.51657 0.86726 0.0
C1172 C 0.57397 0.53425 0.9439 0.0
C1173 C 0.57083 0.52873 0.99971 0.0
C1174 C 0.57765 0.54236 0.03934 0.0
C1175 C 0.56072 0.51099 1.01401 0.0
C1176 C 0.56407 0.52111 0.1072 0.0
C1177 C 0.5573 0.50731 0.06724 0.0
C1178 C 0.57436 0.53855 0.09248 0.0
C1179 C 0.55945 0.5659 0.78117 0.0
O1180 O 0.56606 0.51349 0.72225 0.0
O1181 O 0.579 0.51042 0.79952 0.0
O1182 O 0.52904 0.50592 0.69327 0.0
O1183 O 0.5409 0.54084 0.6863 0.0
O1184 O 0.54355 0.47368 0.75729 0.0
O1185 O 0.55473 0.49374 0.81354 0.0
O1186 O 0.54298 0.51621 0.88629 0.0
O1187 O 0.52765 0.52042 0.81651 0.0
O1188 O 0.56585 0.55072 0.92098 0.0
O1189 O 0.57709 0.51503 0.91334 0.0
O1190 O 0.57104 0.5608 0.80445 0.0
O1191 O 0.55022 0.55075 0.79734 0.0
H1192 H 0.51371 0.52159 0.58398 0.0
H1193 H 0.55744 0.51747 0.61556 0.0
H1194 H 0.56208 0.51331 0.52133 0.0
H1195 H 0.51821 0.51666 0.48956 0.0
H1196 H 0.58544 0.55625 0.02914 0.0
H1197 H 0.55545 0.50013 0.984 0.0
H1198 H 0.54943 0.49355 0.07712 0.0
H1199 H 0.57967 0.54974 0.122 0.0
Gd1200 Gd 0.19731 0.51255 0.02701 0.0
Gd1201 Gd 0.17949 0.52566 0.9351 0.0
C1202 C 0.16364 0.5077 0.03496 0.0
C1203 C 0.20863 0.51099 0.1198 0.0
C1204 C 0.20495 0.5138 0.17611 0.0
C1205 C 0.21163 0.49854 0.21339 0.0
C1206 C 0.19505 0.53138 0.19344 0.0
C1207 C 0.19881 0.51856 0.28502 0.0
C1208 C 0.19202 0.53374 0.24737 0.0
C1209 C 0.2086 0.50083 0.2671 0.0
C1210 C 0.19423 0.4729 0.96005 0.0
C1211 C 0.21261 0.52215 0.91866 0.0
C1212 C 0.168 0.53254 0.84355 0.0
C1213 C 0.17155 0.53065 0.78699 0.0
C1214 C 0.16112 0.53376 0.74917 0.0
C1215 C 0.18515 0.5261 0.77009 0.0
C1216 C 0.1778 0.52796 0.67792 0.0
C1217 C 0.18825 0.52481 0.71612 0.0
C1218 C 0.16419 0.53244 0.69529 0.0
C1219 C 0.18183 0.56281 1.00937 0.0
O1220 O 0.1755 0.51104 0.06015 0.0
O1221 O 0.16276 0.50928 0.98337 0.0
O1222 O 0.20376 0.49106 0.09562 0.0
O1223 O 0.20834 0.53132 0.09041 0.0
O1224 O 0.20539 0.47801 0.98645 0.0
O1225 O 0.1848 0.48865 0.97192 0.0
O1226 O 0.20021 0.5217 0.89776 0.0
O1227 O 0.2146 0.52112 0.97015 0.0
O1228 O 0.1741 0.55049 0.87031 0.0
O1229 O 0.16723 0.51132 0.8698 0.0
O1230 O 0.17051 0.55724 0.98459 0.0
O1231 O 0.19158 0.54912 0.99222 0.0
H1232 H 0.21925 0.48476 0.20089 0.0
H1233 H 0.18972 0.54335 0.1654 0.0
H1234 H 0.18451 0.54775 0.25958 0.0
H1235 H 0.21385 0.48846 0.29455 0.0
H1236 H 0.15057 0.5374 0.76133 0.0
H1237 H 0.19337 0.52356 0.79848 0.0
H1238 H 0.19882 0.52104 0.70437 0.0
H1239 H 0.15591 0.53534 0.66721 0.0
Gd1240 Gd 0.54405 0.25685 0.02788 0.0
Gd1241 Gd 0.56292 0.24714 0.92789 0.0
C1242 C 0.57766 0.26395 0.03369 0.0
C1243 C 0.53205 0.24754 0.11713 0.0
C1244 C 0.5337 0.25359 0.17357 0.0
C1245 C 0.52317 0.24703 0.20893 0.0
C1246 C 0.54614 0.26349 0.19328 0.0
C1247 C 0.53783 0.25849 0.28359 0.0
C1248 C 0.54818 0.26596 0.24778 0.0
C1249 C 0.52519 0.24948 0.26335 0.0
C1250 C 0.55069 0.30195 0.98228 0.0
C1251 C 0.52957 0.25163 0.91424 0.0
C1252 C 0.57412 0.24469 0.83531 0.0
C1253 C 0.56997 0.24822 0.77982 0.0
C1254 C 0.57775 0.2366 0.74002 0.0
C1255 C 0.55815 0.26215 0.76602 0.0
C1256 C 0.56187 0.25236 0.67295 0.0
C1257 C 0.55416 0.26428 0.71301 0.0
C1258 C 0.57376 0.23864 0.6872 0.0
C1259 C 0.5596 0.20769 0.99557 0.0
O1260 O 0.56595 0.25914 0.05907 0.0
O1261 O 0.57866 0.26366 0.98173 0.0
O1262 O 0.52806 0.26572 0.08552 0.0
O1263 O 0.54181 0.23346 0.09682 0.0
O1264 O 0.54341 0.29979 0.02509 0.0
O1265 O 0.55424 0.28002 0.96783 0.0
O1266 O 0.54195 0.25114 0.89272 0.0
O1267 O 0.52743 0.25192 0.96593 0.0
O1268 O 0.5687 0.22516 0.85928 0.0
O1269 O 0.57462 0.26493 0.86515 0.0
O1270 O 0.57099 0.21282 0.97068 0.0
O1271 O 0.55029 0.22323 0.98178 0.0
H1272 H 0.51351 0.23929 0.19452 0.0
H1273 H 0.55444 0.26851 0.16661 0.0
H1274 H 0.55808 0.27276 0.26185 0.0
H1275 H 0.51691 0.24394 0.28963 0.0
H1276 H 0.58689 0.22575 0.74986 0.0
H1277 H 0.55193 0.27114 0.7962 0.0
H1278 H 0.54488 0.27478 0.7035 0.0
H1279 H 0.58005 0.22953 0.65742 0.0
H1280 H 0.23913 0.26388 0.86281 0.0
H1281 H 0.20989 0.22908 0.96892 0.0
H1282 H 0.25505 0.27027 0.93708 0.0
H1283 H 0.22485 0.23729 0.04243 0.0
H1284 H 0.25848 0.2387 0.16566 0.0
H1285 H 0.24397 0.22841 0.09016 0.0
H1286 H 0.25828 0.29588 1.01061 0.0
H1287 H 0.27339 0.30496 0.08515 0.0
C1288 C 0.23619 0.2573 0.90164 0.0
C1289 C 0.2232 0.24623 0.9099 0.0
C1290 C 0.24516 0.2614 0.94456 0.0
C1291 C 0.24121 0.25474 0.99648 0.0
C1292 C 0.22849 0.24249 1.00359 0.0
C1293 C 0.21977 0.23799 0.96104 0.0
C1294 C 0.25814 0.25168 0.13266 0.0
C1295 C 0.26677 0.2729 0.13162 0.0
C1296 C 0.24991 0.24574 0.08891 0.0
C1297 C 0.24994 0.26118 0.04346 0.0
C1298 C 0.25817 0.28311 0.04391 0.0
C1299 C 0.26659 0.28871 0.08718 0.0
H1300 H 0.00184 0.01176 0.85917 0.0
H1301 H 0.03184 0.04207 0.96829 0.0
H1302 H 0.98574 1.00528 0.9326 0.0
H1303 H 0.01665 0.03368 0.04099 0.0
H1304 H 0.9832 0.03138 0.16458 0.0
H1305 H -0.00219 0.04256 0.09008 0.0
H1306 H 0.98184 0.97844 1.00298 0.0
H1307 H 0.96657 0.96868 0.07651 0.0
C1308 C 0.0049 0.01738 0.89854 0.0
C1309 C 0.01815 0.02719 0.90785 0.0
C1310 C -0.00418 0.01319 0.94096 0.0
C1311 C -0.0001 0.01844 0.99345 0.0
C1312 C 0.0129 0.02956 1.00171 0.0
C1313 C 0.02176 0.03418 0.95963 0.0
C1314 C 0.98318 0.0193 0.13006 0.0
C1315 C 0.97405 0.99883 0.1267 0.0
C1316 C 0.99148 0.02577 0.08689 0.0
C1317 C 0.99105 0.01155 0.03971 0.0
C1318 C 0.98229 0.99032 0.0377 0.0
C1319 C 0.97377 0.98428 0.08038 0.0
H1320 H 0.20981 0.03828 0.31729 0.0
H1321 H 0.24062 1.01103 0.42664 0.0
H1322 H 0.22518 0.03097 0.24462 0.0
H1323 H 0.2568 1.0055 0.35299 0.0
H1324 H 0.27649 0.96986 0.20861 0.0
H1325 H 0.26105 0.97855 0.28222 0.0
H1326 H 0.24397 0.04188 0.19612 0.0
H1327 H 0.25888 0.0319 0.12154 0.0
C1328 C 0.22008 0.03127 0.32604 0.0
C1329 C 0.2239 0.02488 0.37794 0.0
C1330 C 0.22902 0.02728 0.28394 0.0
C1331 C 0.24229 0.01734 0.29223 0.0
C1332 C 0.24652 0.01255 0.34471 0.0
C1333 C 0.23738 0.01617 0.38721 0.0
C1334 C 0.26904 0.98507 0.20497 0.0
C1335 C 0.26856 0.99978 0.15893 0.0
C1336 C 0.26042 0.99048 0.24768 0.0
C1337 C 0.25129 1.01117 0.24595 0.0
C1338 C 0.25063 0.02551 0.19903 0.0
C1339 C 0.25908 0.01971 0.15584 0.0
H1340 H 0.00235 0.26132 0.42078 0.0
H1341 H 0.03223 0.23051 0.31185 0.0
H1342 H 0.98635 0.26828 0.34709 0.0
H1343 H 0.01713 0.23923 0.23906 0.0
H1344 H 0.98368 0.24162 0.11555 0.0
H1345 H -0.00182 0.23036 0.19033 0.0
H1346 H 0.98273 0.29525 0.27621 0.0
H1347 H 0.96759 0.30518 0.20225 0.0
C1348 C 0.0054 0.25566 0.38143 0.0
C1349 C 0.01857 0.24552 0.37226 0.0
C1350 C -0.00362 0.26012 0.33888 0.0
C1351 C 0.00046 0.25478 0.28645 0.0
C1352 C 0.01339 0.2434 0.27831 0.0
C1353 C 0.02218 0.23856 0.32047 0.0
C1354 C 0.98377 0.25385 0.14984 0.0
C1355 C 0.97482 0.2746 0.15275 0.0
C1356 C 0.99199 0.24734 0.19316 0.0
C1357 C 0.99167 0.26176 0.24007 0.0
C1358 C 0.98309 0.28324 0.24166 0.0
C1359 C 0.97465 0.28936 0.19877 0.0
H1360 H 0.73968 0.76285 0.86472 0.0
H1361 H 0.70949 0.73249 0.97289 0.0
H1362 H 0.75586 0.76827 0.93829 0.0
H1363 H 0.72477 0.73997 0.04577 0.0
H1364 H 0.75861 0.73904 0.16845 0.0
H1365 H 0.7436 0.72957 0.09384 0.0
H1366 H 0.76025 0.79402 1.01011 0.0
H1367 H 0.77582 0.80212 0.08355 0.0
C1368 C 0.73653 0.75717 0.90392 0.0
C1369 C 0.72321 0.74763 0.91281 0.0
C1370 C 0.74569 0.7607 0.94643 0.0
C1371 C 0.74162 0.75504 0.99871 0.0
C1372 C 0.7285 0.74438 1.00663 0.0
C1373 C 0.71957 0.74039 0.96442 0.0
C1374 C 0.75873 0.75151 0.13459 0.0
C1375 C 0.76815 0.77157 0.1321 0.0
C1376 C 0.75019 0.74605 0.0914 0.0
C1377 C 0.75068 0.76089 0.0451 0.0
C1378 C 0.75975 0.78169 0.04405 0.0
C1379 C 0.76847 0.78673 0.0867 0.0
H1380 H 0.75222 1.00469 0.61647 0.0
H1381 H 0.78327 0.98003 0.72749 0.0
H1382 H 0.7359 1.01035 0.68959 0.0
H1383 H 0.76765 0.98725 0.79962 0.0
H1384 H 0.73372 0.9868 0.92211 0.0
H1385 H 0.74863 0.97594 0.84792 0.0
H1386 H 0.73175 0.03852 0.75907 0.0
H1387 H 0.71644 0.04832 0.8323 0.0
C1388 C 0.75548 1.00012 0.65617 0.0
C1389 C 0.76906 0.99213 0.66603 0.0
C1390 C 0.74624 1.00378 0.69832 0.0
C1391 C 0.75047 0.99969 0.75105 0.0
C1392 C 0.76384 0.9904 0.76004 0.0
C1393 C 0.77291 0.98645 0.71827 0.0
C1394 C 0.73349 0.99855 0.88716 0.0
C1395 C 0.72409 0.0186 0.88325 0.0
C1396 C 0.74195 0.99226 0.84427 0.0
C1397 C 0.74136 1.00617 0.7968 0.0
C1398 C 0.73229 0.02689 0.79409 0.0
C1399 C 0.7237 0.03287 0.83654 0.0
H1400 H 0.96958 0.80365 0.69891 0.0
H1401 H 0.98186 0.73417 0.62367 0.0
H1402 H 0.9845 0.79429 0.77369 0.0
H1403 H -0.0039 0.7236 0.69977 0.0
H1404 H 0.03051 0.72316 0.82153 0.0
H1405 H 0.01556 0.73063 0.74718 0.0
H1406 H 0.98685 0.77013 0.84898 0.0
H1407 H 0.00281 0.76452 0.92315 0.0
C1408 C 0.97576 0.78657 0.69809 0.0
C1409 C 0.97493 0.76998 0.65497 0.0
C1410 C 0.98406 0.78083 0.74157 0.0
C1411 C 0.99146 0.75794 0.74376 0.0
C1412 C 0.99082 0.74162 0.69967 0.0
C1413 C 0.98274 0.7477 0.65559 0.0
C1414 C 0.02097 0.7334 0.8282 0.0
C1415 C 0.018 0.74378 0.87799 0.0
C1416 C 0.01225 0.73747 0.78536 0.0
C1417 C 0.0 0.75146 0.79119 0.0
C1418 C -0.00359 0.75999 0.84229 0.0
C1419 C 0.00538 0.75633 0.88525 0.0
H1420 H 0.20981 0.72706 0.46823 0.0
H1421 H 0.2384 0.76393 0.36278 0.0
H1422 H 0.22443 0.73658 0.54215 0.0
H1423 H 0.25409 0.77144 0.43711 0.0
H1424 H 0.27215 0.80718 0.58375 0.0
H1425 H 0.25711 0.79713 0.50954 0.0
H1426 H 0.24332 0.72994 0.59154 0.0
H1427 H 0.25757 0.74142 0.66679 0.0
C1428 C 0.21949 0.73671 0.46064 0.0
C1429 C 0.2228 0.74521 0.40964 0.0
C1430 C 0.22804 0.74196 0.50339 0.0
C1431 C 0.2405 0.75518 0.49649 0.0
C1432 C 0.24439 0.76192 0.44457 0.0
C1433 C 0.23556 0.75714 0.40156 0.0
C1434 C 0.26541 0.79086 0.58644 0.0
C1435 C 0.26563 0.77553 0.63157 0.0
C1436 C 0.25705 0.78466 0.54332 0.0
C1437 C 0.24901 0.76246 0.54356 0.0
C1438 C 0.24906 0.74747 0.58965 0.0
C1439 C 0.25715 0.7541 0.63331 0.0
H1440 H 0.98327 0.53804 0.66805 0.0
H1441 H 0.96719 0.47445 0.58117 0.0
H1442 H -0.00202 0.54901 0.59339 0.0
H1443 H 0.98238 0.48425 0.50756 0.0
H1444 H 0.00196 0.51732 0.3633 0.0
H1445 H 0.98581 0.51174 0.4369 0.0
H1446 H 0.01711 0.53891 0.54496 0.0
H1447 H 0.0325 0.54615 0.47209 0.0
C1448 C 0.98334 0.52582 0.63374 0.0
C1449 C 0.97434 0.50514 0.63068 0.0
C1450 C 0.99167 0.53218 0.59055 0.0
C1451 C 0.99133 0.5177 0.54371 0.0
C1452 C 0.98271 0.49631 0.54204 0.0
C1453 C 0.97423 0.4903 0.58474 0.0
C1454 C 0.00513 0.52285 0.40261 0.0
C1455 C 0.01853 0.53193 0.41183 0.0
C1456 C -0.00399 0.51921 0.44508 0.0
C1457 C 0.0002 0.52436 0.49746 0.0
C1458 C 0.01334 0.53487 0.50566 0.0
C1459 C 0.02227 0.53885 0.46353 0.0
H1460 H 0.25031 0.51131 0.61075 0.0
H1461 H 0.27973 0.47474 0.71332 0.0
H1462 H 0.23471 0.51719 0.68598 0.0
H1463 H 0.26507 0.48241 0.7882 0.0
H1464 H 0.23212 0.48543 0.91437 0.0
H1465 H 0.24615 0.47462 0.83791 0.0
H1466 H 0.23226 0.5427 0.75955 0.0
H1467 H 0.21757 0.55223 0.83493 0.0
C1468 C 0.2533 0.50411 0.64903 0.0
C1469 C 0.26627 0.49277 0.65615 0.0
C1470 C 0.24454 0.50796 0.69255 0.0
C1471 C 0.24869 0.50085 0.74397 0.0
C1472 C 0.26131 0.48804 0.7498 0.0
C1473 C 0.26983 0.48378 0.70654 0.0
C1474 C 0.23249 0.49843 0.88141 0.0
C1475 C 0.22409 0.51998 0.88097 0.0
C1476 C 0.24042 0.49217 0.83711 0.0
C1477 C 0.24033 0.50762 0.79168 0.0
C1478 C 0.23239 0.5299 0.79278 0.0
C1479 C 0.22423 0.53579 0.83658 0.0
H1480 H 0.75674 0.24141 0.67133 0.0
H1481 H 0.77424 0.30328 0.58345 0.0
H1482 H 0.7422 0.23054 0.59617 0.0
H1483 H 0.75916 0.29367 0.50917 0.0
H1484 H 0.73988 0.2595 0.36442 0.0
H1485 H 0.75562 0.26581 0.43918 0.0
H1486 H 0.72353 0.24063 0.54573 0.0
H1487 H 0.70857 0.23262 0.47194 0.0
C1488 C 0.75698 0.25338 0.6367 0.0
C1489 C 0.76633 0.27352 0.63356 0.0
C1490 C 0.74875 0.24706 0.59319 0.0
C1491 C 0.74952 0.26104 0.54585 0.0
C1492 C 0.75847 0.28198 0.54407 0.0
C1493 C 0.76688 0.28793 0.58714 0.0
C1494 C 0.73645 0.25456 0.40373 0.0
C1495 C 0.72296 0.24577 0.41217 0.0
C1496 C 0.74534 0.25864 0.44683 0.0
C1497 C 0.74082 0.25423 0.4991 0.0
C1498 C 0.72757 0.24409 0.50661 0.0
C1499 C 0.71888 0.23966 0.4639 0.0
H1500 H 0.73414 0.49684 0.41481 0.0
H1501 H 0.71594 0.55741 0.32507 0.0
H1502 H 0.74905 0.48646 0.34071 0.0
H1503 H 0.7315 0.54849 0.25183 0.0
H1504 H 0.75259 0.51482 0.10909 0.0
H1505 H 0.73629 0.52136 0.18202 0.0
H1506 H 0.76772 0.49718 0.29251 0.0
H1507 H 0.78311 0.48865 0.22085 0.0
C1508 C 0.73382 0.50867 0.37999 0.0
C1509 C 0.72418 0.5283 0.37606 0.0
C1510 C 0.74229 0.50266 0.33706 0.0
C1511 C 0.74154 0.51655 0.28957 0.0
C1512 C 0.73223 0.53692 0.28689 0.0
C1513 C 0.72353 0.54249 0.32935 0.0
C1514 C 0.75577 0.51025 0.1489 0.0
C1515 C 0.7692 0.50152 0.15899 0.0
C1516 C 0.74655 0.51442 0.19096 0.0
C1517 C 0.75067 0.51019 0.24379 0.0
C1518 C 0.76393 0.5004 0.25294 0.0
C1519 C 0.77291 0.49579 0.21135 0.0
H1520 H 0.46206 0.96891 0.56898 0.0
H1521 H 0.49024 1.0101 0.66921 0.0
H1522 H 0.47683 0.97618 0.49386 0.0
H1523 H 0.50579 0.01608 0.59386 0.0
H1524 H 0.52069 0.05177 0.44164 0.0
H1525 H 0.50647 0.04126 0.51767 0.0
H1526 H 0.49683 0.96895 0.44674 0.0
H1527 H 0.5106 0.98025 0.36969 0.0
C1528 C 0.47171 0.97889 0.57526 0.0
C1529 C 0.47492 0.98919 0.62496 0.0
C1530 C 0.48026 0.98297 0.53195 0.0
C1531 C 0.49246 0.99713 0.53713 0.0
C1532 C 0.49628 1.00568 0.58795 0.0
C1533 C 0.48754 1.00183 0.6315 0.0
C1534 C 0.51516 0.03396 0.44178 0.0
C1535 C 0.51649 0.01704 0.39936 0.0
C1536 C 0.50725 0.02765 0.48592 0.0
C1537 C 0.50064 1.00402 0.48921 0.0
C1538 C 0.50161 0.98744 0.4457 0.0
C1539 C 0.50939 0.99396 0.40111 0.0
H1540 H 0.48948 0.26245 0.60986 0.0
H1541 H 0.46006 0.29578 0.71728 0.0
H1542 H 0.50582 0.25733 0.68298 0.0
H1543 H 0.47553 0.28881 0.79007 0.0
H1544 H 0.50954 0.28765 0.91225 0.0
H1545 H 0.49475 0.29804 0.83752 0.0
H1546 H 0.50944 0.2315 0.75533 0.0
H1547 H 0.52483 0.22242 0.82883 0.0
C1548 C 0.4866 0.26904 0.64877 0.0
C1549 C 0.47343 0.27923 0.65781 0.0
C1550 C 0.49582 0.26564 0.69106 0.0
C1551 C 0.49195 0.27209 0.74319 0.0
C1552 C 0.47907 0.28372 0.75102 0.0
C1553 C 0.47007 0.28752 0.70897 0.0
C1554 C 0.50925 0.27494 0.87873 0.0
C1555 C 0.51805 0.25396 0.87666 0.0
C1556 C 0.50086 0.28094 0.83548 0.0
C1557 C 0.50089 0.26577 0.78957 0.0
C1558 C 0.50932 0.2441 0.78897 0.0
C1559 C 0.51792 0.23849 0.83166 0.0
H1560 H 0.48912 0.78195 0.12398 0.0
H1561 H 0.45774 0.74726 0.22114 0.0
H1562 H 0.50568 0.77764 0.19707 0.0
H1563 H 0.47352 0.74482 0.29368 0.0
H1564 H 0.50744 0.72442 0.40798 0.0
H1565 H 0.49215 0.72523 0.33127 0.0
H1566 H 0.51112 0.79506 0.27984 0.0
H1567 H 0.52676 0.79326 0.35491 0.0
C1568 C 0.48576 0.77345 0.16061 0.0
C1569 C 0.47202 0.7655 0.16681 0.0
C1570 C 0.49516 0.77122 0.20283 0.0
C1571 C 0.49095 0.76108 0.25193 0.0
C1572 C 0.47733 0.75241 0.25683 0.0
C1573 C 0.46813 0.75428 0.21497 0.0
C1574 C 0.50805 0.74018 0.38084 0.0
C1575 C 0.51807 0.75897 0.38774 0.0
C1576 C 0.49937 0.74065 0.33652 0.0
C1577 C 0.50039 0.7602 0.29869 0.0
C1578 C 0.51018 0.7794 0.30703 0.0
C1579 C 0.51897 0.77865 0.35069 0.0
H1580 H 0.53308 0.48971 0.95704 0.0
H1581 H 0.50256 0.52998 0.86551 0.0
H1582 H 0.51654 0.48351 0.02727 0.0
H1583 H 0.4856 0.52302 0.93642 0.0
H1584 H 0.45671 0.48039 0.04987 0.0
H1585 H 0.47337 0.48668 0.97993 0.0
H1586 H 0.50392 0.50953 0.09462 0.0
H1587 H 0.48695 0.50365 0.16571 0.0
C1588 C 0.52283 0.49749 0.95203 0.0
C1589 C 0.51925 0.51092 0.90603 0.0
C1590 C 0.51334 0.49386 0.99251 0.0
C1591 C 0.49986 0.50314 0.98792 0.0
C1592 C 0.49599 0.51572 0.94108 0.0
C1593 C 0.50563 0.51962 0.90041 0.0
C1594 C 0.46698 0.48672 0.0606 0.0
C1595 C 0.47046 0.49172 0.11362 0.0
C1596 C 0.47649 0.49049 0.02019 0.0
C1597 C 0.48986 0.49902 0.03154 0.0
C1598 C 0.49363 0.50299 0.08471 0.0
C1599 C 0.48399 0.49945 0.12547 0.0
H1600 H 0.38763 0.26451 0.53219 0.0
H1601 H 0.41178 0.24314 0.39602 0.0
H1602 H 0.36669 0.26208 0.48046 0.0
H1603 H 0.39059 0.23918 0.34435 0.0
H1604 H 0.35302 0.26907 0.25431 0.0
H1605 H 0.3741 0.26502 0.30515 0.0
H1606 H 0.35043 0.23723 0.43775 0.0
H1607 H 0.32918 0.24283 0.38737 0.0
C1608 C 0.38843 0.25874 0.49132 0.0
C1609 C 0.40135 0.25412 0.46803 0.0
C1610 C 0.37636 0.25713 0.46163 0.0
C1611 C 0.37686 0.2504 0.40807 0.0
C1612 C 0.3898 0.24489 0.38523 0.0
C1613 C 0.40195 0.247 0.41481 0.0
C1614 C 0.35233 0.2619 0.29421 0.0
C1615 C 0.33946 0.25642 0.31708 0.0
C1616 C 0.36446 0.25936 0.32332 0.0
C1617 C 0.36404 0.25083 0.37574 0.0
C1618 C 0.35115 0.24439 0.39788 0.0
C1619 C 0.33897 0.24745 0.36902 0.0
H1620 H 0.82898 0.02532 0.39824 0.0
H1621 H 0.85431 1.00634 0.53285 0.0
H1622 H 0.84975 0.02972 0.34445 0.0
H1623 H 0.87487 1.00927 0.47902 0.0
H1624 H 0.9114 0.03047 0.38212 0.0
H1625 H 0.89037 0.03487 0.43423 0.0
H1626 H 0.86649 1.00456 0.3044 0.0
H1627 H 0.88734 1.00167 0.25175 0.0
C1628 C 0.83898 0.02208 0.41626 0.0
C1629 C 0.84002 0.01552 0.46969 0.0
C1630 C 0.85089 0.02444 0.38544 0.0
C1631 C 0.86405 0.01979 0.40723 0.0
C1632 C 0.865 0.01357 0.46096 0.0
C1633 C 0.85316 0.01168 0.49186 0.0
C1634 C 0.90161 0.02503 0.36472 0.0
C1635 C 0.90099 0.0157 0.31302 0.0
C1636 C 0.88955 0.02739 0.39461 0.0
C1637 C 0.87668 0.0199 0.37378 0.0
C1638 C 0.87612 1.01099 0.32158 0.0
C1639 C 0.88812 1.00913 0.29143 0.0
H1640 H 0.41394 0.02389 0.88852 0.0
H1641 H 0.38908 1.00218 0.75437 0.0
H1642 H 0.39302 0.02847 0.94143 0.0
H1643 H 0.36836 1.00531 0.80744 0.0
H1644 H 0.33156 0.02831 0.90196 0.0
H1645 H 0.35267 0.03161 0.84998 0.0
H1646 H 0.37631 1.0036 0.98248 0.0
H1647 H 0.35538 1.00176 0.03488 0.0
C1648 C 0.40401 0.02005 0.87045 0.0
C1649 C 0.40313 0.01272 0.81739 0.0
C1650 C 0.39202 0.02251 0.90076 0.0
C1651 C 0.37895 0.01721 0.87884 0.0
C1652 C 0.37816 1.01011 0.82552 0.0
C1653 C 0.39008 1.00811 0.79508 0.0
C1654 C 0.34131 0.02312 0.91995 0.0
C1655 C 0.34184 0.01477 0.97235 0.0
C1656 C 0.35341 0.02485 0.89014 0.0
C1657 C 0.36624 0.01772 0.91182 0.0
C1658 C 0.36671 1.00973 0.96462 0.0
C1659 C 0.35467 1.00848 0.99464 0.0
H1660 H 0.85124 0.24255 0.75498 0.0
H1661 H 0.83053 0.27018 0.89456 0.0
H1662 H 0.87278 0.23935 0.80419 0.0
H1663 H 0.85212 0.26758 0.9434 0.0
H1664 H 0.89035 0.24249 0.02909 0.0
H1665 H 0.86893 0.23886 0.97936 0.0
H1666 H 0.88957 0.26807 0.84109 0.0
H1667 H 0.91111 0.27104 0.89051 0.0
C1668 C 0.85127 0.24788 0.79623 0.0
C1669 C 0.83919 0.25671 0.82089 0.0
C1670 C 0.86363 0.24616 0.82432 0.0
C1671 C 0.86419 0.25335 0.87758 0.0
C1672 C 0.85201 0.26156 0.90258 0.0
C1673 C 0.83963 0.26314 0.87455 0.0
C1674 C 0.89034 0.24794 0.98794 0.0
C1675 C 0.90238 0.25721 0.96376 0.0
C1676 C 0.87805 0.24597 0.95954 0.0
C1677 C 0.87751 0.25338 0.90644 0.0
C1678 C 0.88967 0.26193 0.88181 0.0
C1679 C 0.90201 0.26374 0.91015 0.0
H1680 H 0.58124 0.75858 0.65109 0.0
H1681 H 0.60138 0.78444 0.50885 0.0
H1682 H 0.60303 0.76235 0.69862 0.0
H1683 H 0.62305 0.78865 0.55665 0.0
H1684 H 0.66149 0.75601 0.64261 0.0
H1685 H 0.63983 0.7595 0.59407 0.0
H1686 H 0.6202 0.79208 0.73124 0.0
H1687 H 0.64173 0.78818 0.78007 0.0
C1688 C 0.59024 0.76546 0.63017 0.0
C1689 C 0.58959 0.77097 0.5761 0.0
C1690 C 0.60272 0.76772 0.65745 0.0
C1691 C 0.61479 0.77564 0.63124 0.0
C1692 C 0.61399 0.78208 0.57768 0.0
C1693 C 0.60154 0.77976 0.5504 0.0
C1694 C 0.65261 0.76428 0.66214 0.0
C1695 C 0.65329 0.77157 0.71531 0.0
C1696 C 0.6402 0.76634 0.6343 0.0
C1697 C 0.62826 0.77584 0.65904 0.0
C1698 C 0.62914 0.78423 0.71144 0.0
C1699 C 0.64151 0.7821 0.73929 0.0
H1700 H 0.08085 0.01679 0.64149 0.0
H1701 H 0.10162 0.98888 0.78073 0.0
H1702 H 0.10237 0.01323 0.59206 0.0
H1703 H 0.12299 0.98476 0.73105 0.0
H1704 H 0.16126 0.01662 0.6449 0.0
H1705 H 0.13974 0.01374 0.69425 0.0
H1706 H 0.11914 0.98384 0.55638 0.0
H1707 H 0.14057 0.98723 0.50674 0.0
C1708 C 0.08994 1.0095 0.66128 0.0
C1709 C 0.08959 1.00337 0.71507 0.0
C1710 C 0.10226 1.00736 0.63295 0.0
C1711 C 0.1144 0.99889 0.65783 0.0
C1712 C 0.11387 0.99179 0.71108 0.0
C1713 C 0.1016 0.99406 0.73943 0.0
C1714 C 0.1522 1.00913 0.62535 0.0
C1715 C 0.15259 1.00236 0.57188 0.0
C1716 C 0.13986 1.00739 0.65365 0.0
C1717 C 0.12772 0.99871 0.62905 0.0
C1718 C 0.12826 0.99103 0.57612 0.0
C1719 C 0.14056 0.99287 0.54781 0.0
H1720 H 0.63861 0.01451 1.00749 0.0
H1721 H 0.66253 0.99432 0.14505 0.0
H1722 H 0.61753 0.01155 0.05839 0.0
H1723 H 0.64125 0.99002 0.19585 0.0
H1724 H 0.60291 0.01958 0.28319 0.0
H1725 H 0.6243 0.01589 0.23378 0.0
H1726 H 0.60158 0.98568 0.10091 0.0
H1727 H 0.58007 0.99076 0.14966 0.0
C1728 C 0.63934 1.00889 0.04845 0.0
C1729 C 0.65224 1.00476 0.07235 0.0
C1730 C 0.6272 1.00701 0.07767 0.0
C1731 C 0.62763 1.00053 0.13137 0.0
C1732 C 0.64053 0.9955 0.15483 0.0
C1733 C 0.65273 0.99782 0.12571 0.0
C1734 C 0.60251 0.01195 0.24357 0.0
C1735 C 0.58983 1.00568 0.22004 0.0
C1736 C 0.61481 1.00964 0.21529 0.0
C1737 C 0.61471 1.00061 0.16313 0.0
C1738 C 0.60203 0.99327 0.14053 0.0
C1739 C 0.5897 0.99604 0.1685 0.0
H1740 H 0.10281 0.7593 1.0038 0.0
H1741 H 0.07915 0.78011 0.14153 0.0
H1742 H 0.12396 0.7622 0.05396 0.0
H1743 H 0.10056 0.78475 0.19162 0.0
H1744 H 0.13824 0.75564 0.28035 0.0
H1745 H 0.11714 0.75974 0.23027 0.0
H1746 H 0.14067 0.78582 0.09577 0.0
H1747 H 0.16204 0.77999 0.14564 0.0
C1748 C 0.10216 0.76514 0.04468 0.0
C1749 C 0.0893 0.76939 0.06885 0.0
C1750 C 0.11437 0.76701 0.07349 0.0
C1751 C 0.11409 0.77369 0.12709 0.0
C1752 C 0.10121 0.779 0.15073 0.0
C1753 C 0.08892 0.77654 0.12205 0.0
C1754 C 0.13892 0.76247 0.24018 0.0
C1755 C 0.1518 0.76743 0.21679 0.0
C1756 C 0.12675 0.76505 0.21146 0.0
C1757 C 0.12707 0.77318 0.15877 0.0
C1758 C 0.13998 0.77902 0.1359 0.0
C1759 C 0.15224 0.77584 0.16445 0.0
H1760 H 0.3284 0.74585 0.88811 0.0
H1761 H 0.3525 0.76987 0.75386 0.0
H1762 H 0.34951 0.74193 0.94 0.0
H1763 H 0.37345 0.76741 0.80613 0.0
H1764 H 0.4108 0.74593 0.90098 0.0
H1765 H 0.3898 0.74212 0.84823 0.0
H1766 H 0.3656 0.76796 0.98123 0.0
H1767 H 0.38638 0.77033 0.03423 0.0
C1768 C 0.33822 0.75033 0.8698 0.0
C1769 C 0.33882 0.75819 0.81707 0.0
C1770 C 0.35031 0.74825 0.89955 0.0
C1771 C 0.36323 0.75453 0.87747 0.0
C1772 C 0.36377 0.76196 0.82432 0.0
C1773 C 0.35173 0.76355 0.79436 0.0
C1774 C 0.40095 0.75055 0.91887 0.0
C1775 C 0.40021 0.75836 0.97166 0.0
C1776 C 0.38891 0.74851 0.88864 0.0
C1777 C 0.37595 0.75475 0.91036 0.0
C1778 C 0.3753 0.76242 0.96337 0.0
C1779 C 0.38727 0.76399 0.99374 0.0
H1780 H 0.91222 0.53507 0.88554 0.0
H1781 H 0.88837 0.5076 0.75331 0.0
H1782 H 0.89098 0.54079 0.9359 0.0
H1783 H 0.86731 0.51192 0.80412 0.0
H1784 H 0.82966 0.53261 0.8954 0.0
H1785 H 0.85074 0.53783 0.84373 0.0
H1786 H 0.87504 0.51505 0.97882 0.0
H1787 H 0.85419 0.51119 0.03057 0.0
C1788 C 0.90243 0.53025 0.86732 0.0
C1789 C 0.90194 0.52078 0.81569 0.0
C1790 C 0.89026 0.5334 0.89617 0.0
C1791 C 0.87739 0.52663 0.8743 0.0
C1792 C 0.87695 0.51779 0.82206 0.0
C1793 C 0.88907 0.5151 0.79297 0.0
C1794 C 0.83954 0.52904 0.91402 0.0
C1795 C 0.84027 0.5214 0.96689 0.0
C1796 C 0.85163 0.53191 0.88443 0.0
C1797 C 0.86464 0.52673 0.90693 0.0
C1798 C 0.86529 0.51972 0.96028 0.0
C1799 C 0.85327 0.51729 0.98997 0.0
H1800 H 0.3517 0.50616 0.52649 0.0
H1801 H 0.32703 0.52626 0.39084 0.0
H1802 H 0.37242 0.50744 0.47316 0.0
H1803 H 0.34797 0.52908 0.33759 0.0
H1804 H 0.38468 0.49768 0.24586 0.0
H1805 H 0.36399 0.5021 0.29881 0.0
H1806 H 0.38859 0.53141 0.42769 0.0
H1807 H 0.40946 0.52549 0.3752 0.0
C1808 C 0.35075 0.51142 0.48538 0.0
C1809 C 0.33775 0.516 0.46268 0.0
C1810 C 0.36268 0.51234 0.45479 0.0
C1811 C 0.36193 0.51833 0.40091 0.0
C1812 C 0.34893 0.52388 0.37869 0.0
C1813 C 0.33693 0.52244 0.40918 0.0
C1814 C 0.38565 0.50521 0.28543 0.0
C1815 C 0.39866 0.51113 0.3066 0.0
C1816 C 0.37375 0.50797 0.31572 0.0
C1817 C 0.37455 0.51717 0.36763 0.0
C1818 C 0.38759 0.52381 0.38823 0.0
C1819 C 0.39955 0.52055 0.35817 0.0
H1820 H 0.82997 0.74234 0.39185 0.0
H1821 H 0.85392 0.76432 0.25564 0.0
H1822 H 0.85122 0.73792 0.44281 0.0
H1823 H 0.87497 0.76124 0.30676 0.0
H1824 H 0.88883 0.7683 0.53254 0.0
H1825 H 0.86771 0.76412 0.48195 0.0
H1826 H 0.89124 0.736 0.34922 0.0
H1827 H 0.91254 0.74155 0.39939 0.0
C1828 C 0.83977 0.7462 0.37284 0.0
C1829 C 0.84027 0.75374 0.31986 0.0
C1830 C 0.85196 0.74381 0.40205 0.0
C1831 C 0.86486 0.74938 0.37909 0.0
C1832 C 0.8653 0.75631 0.32565 0.0
C1833 C 0.85318 0.75826 0.29633 0.0
C1834 C 0.88949 0.761 0.4927 0.0
C1835 C 0.90235 0.75543 0.46975 0.0
C1836 C 0.87734 0.75841 0.46372 0.0
C1837 C 0.87771 0.74976 0.41132 0.0
C1838 C 0.89056 0.74322 0.38909 0.0
C1839 C 0.90278 0.74627 0.41785 0.0
H1840 H 0.66162 0.25282 0.14111 0.0
H1841 H 0.64094 0.28754 0.27366 0.0
H1842 H 0.64044 0.25581 0.08965 0.0
H1843 H 0.61985 0.29108 0.22185 0.0
H1844 H 0.58126 0.25836 0.13993 0.0
H1845 H 0.6027 0.26202 0.1894 0.0
H1846 H 0.62422 0.28391 0.04731 0.0
H1847 H 0.60285 0.27963 0.99744 0.0
C1848 C 0.65265 0.26156 0.1589 0.0
C1849 C 0.65293 0.26977 0.21152 0.0
C1850 C 0.6405 0.26334 0.12936 0.0
C1851 C 0.62842 0.27352 0.15181 0.0
C1852 C 0.6289 0.2827 0.20375 0.0
C1853 C 0.64101 0.28077 0.23334 0.0
C1854 C 0.59053 0.26421 0.11928 0.0
C1855 C 0.59036 0.2685 0.06465 0.0
C1856 C 0.60282 0.26644 0.14772 0.0
C1857 C 0.61519 0.27316 0.12223 0.0
C1858 C 0.61492 0.27829 0.06793 0.0
C1859 C 0.60264 0.27595 0.03942 0.0
H1860 H 0.07867 0.49447 0.14749 0.0
H1861 H 0.10371 0.51561 0.28161 0.0
H1862 H 0.09958 0.48897 0.09482 0.0
H1863 H 0.12439 0.51151 0.2289 0.0
H1864 H 0.16111 0.4894 0.13505 0.0
H1865 H 0.1399 0.48493 0.1861 0.0
H1866 H 0.11637 0.51409 0.05439 0.0
H1867 H 0.13739 0.51707 1.00284 0.0
C1868 C 0.08864 0.49795 0.16561 0.0
C1869 C 0.08958 0.50549 0.21852 0.0
C1870 C 0.10061 0.49493 0.13548 0.0
C1871 C 0.11372 0.49985 0.15751 0.0
C1872 C 0.11456 0.50698 0.21078 0.0
C1873 C 0.10265 0.50955 0.241 0.0
C1874 C 0.15136 0.49455 0.11702 0.0
C1875 C 0.15087 0.50366 0.06518 0.0
C1876 C 0.13921 0.49213 0.14625 0.0
C1877 C 0.12639 0.49935 0.12458 0.0
C1878 C 0.12596 0.5079 0.07218 0.0
C1879 C 0.13805 0.50982 0.04268 0.0
H1880 H 0.63777 0.51884 0.50067 0.0
H1881 H 0.66245 0.494 0.6328 0.0
H1882 H 0.61698 0.51449 0.55304 0.0
H1883 H 0.64149 0.4883 0.68485 0.0
H1884 H 0.60433 0.51664 0.77984 0.0
H1885 H 0.62519 0.51361 0.72751 0.0
H1886 H 0.60106 0.48785 0.59418 0.0
H1887 H 0.58001 0.49224 0.64623 0.0
C1888 C 0.63871 0.51193 0.5407 0.0
C1889 C 0.65173 0.50695 0.56285 0.0
C1890 C 0.62675 0.50923 0.57069 0.0
C1891 C 0.62751 0.50106 0.62332 0.0
C1892 C 0.64053 0.49512 0.64479 0.0
C1893 C 0.65255 0.49827 0.61498 0.0
C1894 C 0.60348 0.51007 0.7395 0.0
C1895 C 0.59053 0.50487 0.71694 0.0
C1896 C 0.61549 0.50814 0.70951 0.0
C1897 C 0.61486 0.50055 0.65645 0.0
C1898 C 0.60192 0.49427 0.63459 0.0
C1899 C 0.58985 0.49665 0.66441 0.0
H1900 H 0.16227 0.27958 0.64863 0.0
H1901 H 0.13796 0.2537 0.78082 0.0
H1902 H 0.14119 0.2848 0.59698 0.0
H1903 H 0.11708 0.25749 0.72884 0.0
H1904 H 0.07972 0.2787 0.63585 0.0
H1905 H 0.10074 0.28321 0.68825 0.0
H1906 H 0.1251 0.25941 0.55402 0.0
H1907 H 0.1043 0.25634 0.50147 0.0
C1908 C 0.15242 0.27498 0.66654 0.0
C1909 C 0.15176 0.26617 0.7186 0.0
C1910 C 0.14034 0.27784 0.63696 0.0
C1911 C 0.12738 0.27141 0.65852 0.0
C1912 C 0.12678 0.26312 0.71108 0.0
C1913 C 0.1388 0.26074 0.74086 0.0
C1914 C 0.08961 0.27472 0.61761 0.0
C1915 C 0.09038 0.26713 0.5647 0.0
C1916 C 0.10166 0.27717 0.64762 0.0
C1917 C 0.11467 0.27157 0.62554 0.0
C1918 C 0.11536 0.26441 0.57223 0.0
C1919 C 0.10338 0.26243 0.54211 0.0
H1920 H 0.30678 0.23749 0.592 0.0
H1921 H 0.27192 0.28729 0.61576 0.0
H1922 H 0.31127 0.23773 0.68628 0.0
H1923 H 0.27585 0.28614 0.71034 0.0
H1924 H 0.29729 0.30484 0.86655 0.0
H1925 H 0.29138 0.30254 0.7734 0.0
H1926 H 0.30381 0.22406 0.77029 0.0
H1927 H 0.31005 0.22668 0.86337 0.0
C1928 C 0.3 0.24836 0.61727 0.0
C1929 C 0.28905 0.26254 0.59583 0.0
C1930 C 0.30246 0.2482 0.67164 0.0
C1931 C 0.29397 0.26205 0.70627 0.0
C1932 C 0.28276 0.27558 0.68499 0.0
C1933 C 0.28037 0.27592 0.63058 0.0
C1934 C 0.29861 0.28702 0.8461 0.0
C1935 C 0.30417 0.26597 0.87236 0.0
C1936 C 0.29519 0.28565 0.79259 0.0
C1937 C 0.2971 0.2631 0.76395 0.0
C1938 C 0.30241 0.24188 0.79062 0.0
C1939 C 0.30596 0.24334 0.84408 0.0
H1940 H 0.94838 0.96031 0.59265 0.0
H1941 H 0.94113 0.04075 0.59991 0.0
H1942 H 0.94395 0.95708 0.6871 0.0
H1943 H 0.93659 0.03754 0.69411 0.0
H1944 H 0.94256 0.02795 0.87105 0.0
H1945 H 0.94762 0.03026 0.77708 0.0
H1946 H 0.92621 0.95957 0.75251 0.0
H1947 H 0.92171 0.95667 0.84675 0.0
C1948 C 0.94569 0.97728 0.61423 0.0
C1949 C 0.94516 1.0008 0.58846 0.0
C1950 C 0.94315 0.97544 0.66855 0.0
C1951 C 0.93995 0.99706 0.69867 0.0
C1952 C 0.93929 0.02053 0.67269 0.0
C1953 C 0.94187 0.02238 0.61846 0.0
C1954 C 0.93908 0.0127 0.8458 0.0
C1955 C 0.93168 0.99215 0.86686 0.0
C1956 C 0.94183 0.01419 0.79161 0.0
C1957 C 0.93727 0.99518 0.75676 0.0
C1958 C 0.93001 0.97449 0.77793 0.0
C1959 C 0.92727 0.97298 0.8321 0.0
H1960 H 0.29831 0.02839 0.41465 0.0
H1961 H 0.32266 0.96111 0.44066 0.0
H1962 H 0.29314 0.03048 0.50855 0.0
H1963 H 0.31802 0.96388 0.53483 0.0
H1964 H 0.29589 0.96213 0.69476 0.0
H1965 H 0.30041 0.95891 0.60032 0.0
H1966 H 0.30392 0.04019 0.59107 0.0
H1967 H 0.29929 0.04337 0.68521 0.0
C1968 C 0.30253 0.01397 0.44027 0.0
C1969 C 0.31095 0.99462 0.41974 0.0
C1970 C 0.29971 0.01536 0.4944 0.0
C1971 C 0.30522 0.99745 0.52968 0.0
C1972 C 0.31349 0.97791 0.50904 0.0
C1973 C 0.3163 0.97651 0.45492 0.0
C1974 C 0.29775 0.9793 0.67266 0.0
C1975 C 0.29717 1.00301 0.69775 0.0
C1976 C 0.30034 0.97747 0.61838 0.0
C1977 C 0.30248 0.9993 0.58768 0.0
C1978 C 0.30204 0.02298 0.61299 0.0
C1979 C 0.29941 0.02481 0.66716 0.0
H1980 H 0.94846 0.30592 0.40909 0.0
H1981 H 0.91573 0.25152 0.43206 0.0
H1982 H 0.95349 0.30498 0.50324 0.0
H1983 H 0.92079 0.25052 0.52611 0.0
H1984 H 0.92445 0.27218 0.69978 0.0
H1985 H 0.91927 0.27477 0.60583 0.0
H1986 H 0.96294 0.27906 0.57146 0.0
H1987 H 0.96807 0.27763 0.66533 0.0
C1988 C 0.94241 0.29356 0.43405 0.0
C1989 C 0.93166 0.27883 0.41262 0.0
C1990 C 0.9453 0.29302 0.48825 0.0
C1991 C 0.93754 0.27772 0.52271 0.0
C1992 C 0.92683 0.26292 0.50121 0.0
C1993 C 0.92393 0.26347 0.44705 0.0
C1994 C 0.93295 0.27402 0.6723 0.0
C1995 C 0.9467 0.27462 0.69054 0.0
C1996 C 0.92999 0.27518 0.61819 0.0
C1997 C 0.94067 0.277 0.58063 0.0
C1998 C 0.9544 0.2779 0.59895 0.0
C1999 C 0.95736 0.27675 0.653 0.0
H2000 H 0.70259 0.74005 0.15578 0.0
H2001 H 0.66175 0.768 0.1917 0.0
H2002 H 0.70834 0.74043 0.24948 0.0
H2003 H 0.66754 0.76894 0.28511 0.0
H2004 H 0.67642 0.74133 0.45134 0.0
H2005 H 0.67124 0.74195 0.35764 0.0
H2006 H 0.71307 0.76583 0.32471 0.0
H2007 H 0.71847 0.76378 0.41843 0.0
C2008 C 0.6949 0.74661 0.18362 0.0
C2009 C 0.68167 0.75383 0.16613 0.0
C2010 C 0.6982 0.74688 0.23749 0.0
C2011 C 0.6884 0.75456 0.27536 0.0
C2012 C 0.67528 0.76234 0.25754 0.0
C2013 C 0.67196 0.76188 0.2038 0.0
C2014 C 0.68459 0.74643 0.42421 0.0
C2015 C 0.69791 0.75239 0.44289 0.0
C2016 C 0.68155 0.74716 0.37024 0.0
C2017 C 0.6917 0.75403 0.33312 0.0
C2018 C 0.705 0.76017 0.3518 0.0
C2019 C 0.70806 0.75933 0.40584 0.0
H2020 H 0.06605 0.06545 0.18001 0.0
H2021 H 0.05233 0.98823 0.16203 0.0
H2022 H 0.06142 0.06326 0.27423 0.0
H2023 H 0.0471 0.98642 0.25592 0.0
H2024 H 0.05345 0.98202 0.43443 0.0
H2025 H 0.05808 0.98448 0.34018 0.0
H2026 H 0.04349 0.06164 0.33877 0.0
H2027 H 0.03898 0.0592 0.43326 0.0
C2028 C 0.06204 0.04797 0.19603 0.0
C2029 C 0.05967 0.02698 0.16303 0.0
C2030 C 0.0592 0.04682 0.25021 0.0
C2031 C 0.05389 0.02464 0.27318 0.0
C2032 C 0.05136 1.00373 0.24006 0.0
C2033 C 0.0542 1.00489 0.18586 0.0
C2034 C 0.05114 0.99948 0.41402 0.0
C2035 C 0.04581 0.02039 0.44173 0.0
C2036 C 0.05377 1.00089 0.35974 0.0
C2037 C 0.05112 0.02323 0.33135 0.0
C2038 C 0.04586 0.04421 0.35916 0.0
C2039 C 0.04327 0.04282 0.41353 0.0
H2040 H 0.67059 0.06119 0.60386 0.0
H2041 H 0.69531 0.99431 0.62941 0.0
H2042 H 0.67601 0.05968 0.51032 0.0
H2043 H 0.7013 0.99354 0.53607 0.0
H2044 H 0.6968 0.98357 0.35716 0.0
H2045 H 0.69157 0.98482 0.45115 0.0
H2046 H 0.6942 0.06635 0.44858 0.0
H2047 H 0.69923 0.06504 0.35444 0.0
C2048 C 0.67718 0.04612 0.5896 0.0
C2049 C 0.68242 0.02777 0.62443 0.0
C2050 C 0.68045 0.04546 0.53587 0.0
C2051 C 0.68912 0.0265 0.51532 0.0
C2052 C 0.69446 1.00826 0.55021 0.0
C2053 C 0.69116 1.00888 0.604 0.0
C2054 C 0.69635 1.00176 0.37674 0.0
C2055 C 0.69841 0.02421 0.34813 0.0
C2056 C 0.69338 1.00249 0.43077 0.0
C2057 C 0.69245 0.02569 0.45776 0.0
C2058 C 0.69459 0.04814 0.4291 0.0
C2059 C 0.69749 0.0474 0.37503 0.0
H2060 H 0.06588 0.7618 0.33536 0.0
H2061 H 0.02275 0.74807 0.36916 0.0
H2062 H 0.07088 0.76264 0.42909 0.0
H2063 H 0.02758 0.75078 0.46305 0.0
H2064 H 0.04328 0.72775 0.62629 0.0
H2065 H 0.03769 0.72827 0.53263 0.0
H2066 H 0.06885 0.78562 0.50748 0.0
H2067 H 0.07472 0.78429 0.60091 0.0
C2068 C 0.05742 0.75905 0.36269 0.0
C2069 C 0.0439 0.75465 0.34422 0.0
C2070 C 0.06026 0.75995 0.41676 0.0
C2071 C 0.04966 0.75677 0.45416 0.0
C2072 C 0.03609 0.75292 0.43571 0.0
C2073 C 0.03326 0.75176 0.38158 0.0
C2074 C 0.04886 0.74059 0.60072 0.0
C2075 C 0.05948 0.7559 0.62098 0.0
C2076 C 0.04562 0.74099 0.54692 0.0
C2077 C 0.05281 0.75696 0.51197 0.0
C2078 C 0.06326 0.77266 0.53267 0.0
C2079 C 0.06661 0.77201 0.58636 0.0
H2080 H 0.28647 0.81191 0.10173 0.0
H2081 H 0.30279 0.73595 0.09989 0.0
H2082 H 0.29071 0.81446 0.19646 0.0
H2083 H 0.3071 0.73852 0.19439 0.0
H2084 H 0.30021 0.7415 0.37197 0.0
H2085 H 0.29516 0.7397 0.27784 0.0
H2086 H 0.30905 0.81686 0.26077 0.0
H2087 H 0.3136 0.81896 0.35518 0.0
C2088 C 0.2911 0.79585 0.12139 0.0
C2089 C 0.29424 0.7737 0.09307 0.0
C2090 C 0.29353 0.79729 0.1758 0.0
C2091 C 0.2992 0.77665 0.20334 0.0
C2092 C 0.30247 0.75461 0.17484 0.0
C2093 C 0.30002 0.75315 0.12052 0.0
C2094 C 0.30202 0.7582 0.3483 0.0
C2095 C 0.30736 0.78035 0.37133 0.0
C2096 C 0.29928 0.75707 0.2941 0.0
C2097 C 0.30177 0.77808 0.26141 0.0
C2098 C 0.3069 0.80036 0.28462 0.0
C2099 C 0.30966 0.80147 0.33878 0.0
H2100 H 0.95594 0.49879 0.38234 0.0
H2101 H 0.91352 0.51629 0.34356 0.0
H2102 H 0.96218 0.50236 0.28942 0.0
H2103 H 0.91965 0.51889 0.25067 0.0
H2104 H 0.93714 0.54375 0.09251 0.0
H2105 H 0.93208 0.54386 0.18673 0.0
H2106 H 0.95885 0.47932 0.20782 0.0
H2107 H 0.96389 0.4792 0.1138 0.0
C2108 C 0.94795 0.50354 0.35411 0.0
C2109 C 0.9342 0.50712 0.37059 0.0
C2110 C 0.95151 0.50532 0.30067 0.0
C2111 C 0.94142 0.5108 0.26232 0.0
C2112 C 0.92773 0.51487 0.27899 0.0
C2113 C 0.92418 0.51306 0.33233 0.0
C2114 C 0.94191 0.52953 0.1172 0.0
C2115 C 0.95092 0.51145 0.09533 0.0
C2116 C 0.93901 0.52959 0.17131 0.0
C2117 C 0.94502 0.51157 0.20506 0.0
C2118 C 0.95419 0.49374 0.18331 0.0
C2119 C 0.95709 0.49368 0.12923 0.0
H2120 H 0.32857 0.51075 0.93683 0.0
H2121 H 0.28742 0.48342 0.90375 0.0
H2122 H 0.32327 0.5117 0.03062 0.0
H2123 H 0.28214 0.48398 0.99778 0.0
H2124 H 0.27259 0.5118 0.16459 0.0
H2125 H 0.27781 0.51075 0.07086 0.0
H2126 H 0.31938 0.48607 0.10578 0.0
H2127 H 0.31438 0.48848 0.19975 0.0
C2128 C 0.31842 0.50468 0.94958 0.0
C2129 C 0.30845 0.49695 0.91247 0.0
C2130 C 0.31537 0.50516 1.0036 0.0
C2131 C 0.30227 0.49782 0.02232 0.0
C2132 C 0.29228 0.49015 0.98511 0.0
C2133 C 0.29531 0.4898 0.931 0.0
C2134 C 0.28291 0.50643 0.15247 0.0
C2135 C 0.29307 0.50041 0.19026 0.0
C2136 C 0.28586 0.50547 0.09839 0.0
C2137 C 0.29905 0.49835 0.08022 0.0
C2138 C 0.30916 0.49201 0.11797 0.0
C2139 C 0.30623 0.49305 0.17211 0.0
H2140 H 0.9139 0.75988 0.94226 0.0
H2141 H 0.95641 0.77653 0.90357 0.0
H2142 H 0.92 0.75728 0.0352 0.0
H2143 H 0.96263 0.77294 0.99653 0.0
H2144 H 0.9645 0.79615 0.17207 0.0
H2145 H 0.95944 0.7961 0.07804 0.0
H2146 H 0.93228 0.7321 0.0992 0.0
H2147 H 0.93735 0.73215 0.19343 0.0
C2148 C 0.92457 0.76293 0.95352 0.0
C2149 C 0.93463 0.76861 0.91527 0.0
C2150 C 0.92811 0.76112 1.00688 0.0
C2151 C 0.94182 0.76493 0.02358 0.0
C2152 C 0.95194 0.77018 0.98525 0.0
C2153 C 0.9484 0.77196 0.93179 0.0
C2154 C 0.95761 0.78181 0.15665 0.0
C2155 C 0.95133 0.76416 0.19056 0.0
C2156 C 0.9547 0.78178 0.10258 0.0
C2157 C 0.94542 0.76413 0.08085 0.0
C2158 C 0.9393 0.74624 0.11462 0.0
C2159 C 0.94221 0.74627 0.16872 0.0
H2160 H 0.68553 0.28828 0.66752 0.0
H2161 H 0.68044 0.20736 0.6762 0.0
H2162 H 0.69058 0.28962 0.76163 0.0
H2163 H 0.68573 0.20855 0.77009 0.0
H2164 H 0.68262 0.22097 0.94766 0.0
H2165 H 0.67726 0.22025 0.85389 0.0
H2166 H 0.7069 0.27998 0.82751 0.0
H2167 H 0.71165 0.28171 0.92153 0.0
C2168 C 0.68565 0.2707 0.68933 0.0
C2169 C 0.68252 0.24772 0.66392 0.0
C2170 C 0.68858 0.27144 0.74357 0.0
C2171 C 0.68857 0.2492 0.77418 0.0
C2172 C 0.68558 0.22619 0.74852 0.0
C2173 C 0.68257 0.22548 0.69437 0.0
C2174 C 0.68788 0.23422 0.92211 0.0
C2175 C 0.69761 0.25139 0.94286 0.0
C2176 C 0.68494 0.23356 0.86787 0.0
C2177 C 0.69165 0.24999 0.83239 0.0
C2178 C 0.70135 0.26719 0.8532 0.0
C2179 C 0.70425 0.26792 0.90742 0.0
H2180 H 0.06164 0.55066 0.95218 0.0
H2181 H 0.02914 0.49653 0.92213 0.0
H2182 H 0.06684 0.55207 0.85824 0.0
H2183 H 0.03387 0.49891 0.82809 0.0
H2184 H 0.05483 0.48939 0.66727 0.0
H2185 H 0.04986 0.48725 0.76139 0.0
H2186 H 0.05841 0.5671 0.77597 0.0
H2187 H 0.06351 0.56913 0.68203 0.0
C2188 C 0.0556 0.539 0.9257 0.0
C2189 C 0.04494 0.5235 0.94529 0.0
C2190 C 0.05846 0.54007 0.87147 0.0
C2191 C 0.05076 0.52569 0.83499 0.0
C2192 C 0.04015 0.51009 0.85465 0.0
C2193 C 0.03731 0.50899 0.90883 0.0
C2194 C 0.05553 0.50656 0.69041 0.0
C2195 C 0.05963 0.52942 0.66671 0.0
C2196 C 0.05267 0.50535 0.74462 0.0
C2197 C 0.05375 0.52698 0.77687 0.0
C2198 C 0.05771 0.54989 0.75298 0.0
C2199 C 0.06062 0.55108 0.69884 0.0
H2200 H 0.70404 0.5317 0.12558 0.0
H2201 H 0.66031 0.52946 0.09134 0.0
H2202 H 0.70909 0.52897 0.03158 0.0
H2203 H 0.66535 0.52803 0.99749 0.0
H2204 H 0.67886 0.50001 0.835 0.0
H2205 H 0.67395 0.50159 0.92918 0.0
H2206 H 0.70827 0.55274 0.95163 0.0
H2207 H 0.71324 0.55094 0.85752 0.0
C2208 C 0.69548 0.5306 0.09815 0.0
C2209 C 0.68175 0.53087 0.1165 0.0
C2210 C 0.69839 0.52936 0.04398 0.0
C2211 C 0.68765 0.52836 1.00647 0.0
C2212 C 0.67392 0.5285 0.0249 0.0
C2213 C 0.67102 0.52968 0.07898 0.0
C2214 C 0.68529 0.51179 0.8599 0.0
C2215 C 0.69647 0.52532 0.83836 0.0
C2216 C 0.68247 0.51271 0.91412 0.0
C2217 C 0.6907 0.52728 0.94849 0.0
C2218 C 0.70184 0.54092 0.92684 0.0
C2219 C 0.70468 0.53993 0.87265 0.0
H2220 H 0.0604 0.22216 0.83222 0.0
H2221 H 0.03117 0.28232 0.86084 0.0
H2222 H 0.06553 0.22031 0.92622 0.0
H2223 H 0.03577 0.27961 0.95495 0.0
H2224 H 0.0572 0.28604 0.1155 0.0
H2225 H 0.05239 0.28857 0.02127 0.0
H2226 H 0.05626 0.20743 1.00884 0.0
H2227 H 0.06123 0.20501 0.10288 0.0
C2228 C 0.05507 0.23504 0.85841 0.0
C2229 C 0.04534 0.25236 0.83844 0.0
C2230 C 0.05788 0.23375 0.91267 0.0
C2231 C 0.05105 0.24973 0.94874 0.0
C2232 C 0.04138 0.26714 0.92868 0.0
C2233 C 0.03859 0.26846 0.87448 0.0
C2234 C 0.0569 0.2687 0.09279 0.0
C2235 C 0.05965 0.24533 0.11708 0.0
C2236 C 0.05413 0.27014 0.03854 0.0
C2237 C 0.05395 0.24822 1.00687 0.0
C2238 C 0.05657 0.22482 0.03138 0.0
C2239 C 0.0594 0.22341 0.08555 0.0
H2240 H 0.775 0.29282 0.11615 0.0
H2241 H 0.81309 0.25212 0.09066 0.0
H2242 H 0.77997 0.29493 0.21028 0.0
H2243 H 0.81799 0.25384 0.18481 0.0
H2244 H 0.82964 0.28225 0.34815 0.0
H2245 H 0.82456 0.28102 0.25441 0.0
H2246 H 0.7812 0.27071 0.28905 0.0
H2247 H 0.7862 0.27339 0.38307 0.0
C2248 C 0.7844 0.28413 0.13065 0.0
C2249 C 0.79365 0.27232 0.09556 0.0
C2250 C 0.78724 0.28527 0.18483 0.0
C2251 C 0.79939 0.27453 0.20566 0.0
C2252 C 0.80864 0.26274 0.17045 0.0
C2253 C 0.80583 0.26173 0.11625 0.0
C2254 C 0.81898 0.28007 0.33598 0.0
C2255 C 0.80835 0.27808 0.37369 0.0
C2256 C 0.81607 0.27898 0.28191 0.0
C2257 C 0.80245 0.2757 0.26363 0.0
C2258 C 0.79181 0.27357 0.30132 0.0
C2259 C 0.79471 0.27476 0.35549 0.0
H2260 H 0.41261 1.00763 0.34399 0.0
H2261 H 0.45357 0.97899 0.37545 0.0
H2262 H 0.41786 1.0093 0.25021 0.0
H2263 H 0.4588 0.98029 0.28142 0.0
H2264 H 0.46846 1.00902 0.11549 0.0
H2265 H 0.4633 1.00747 0.20925 0.0
H2266 H 0.42149 0.98428 0.17391 0.0
H2267 H 0.42645 0.98719 0.07999 0.0
C2268 C 0.42271 1.00143 0.33088 0.0
C2269 C 0.43264 0.99311 0.36758 0.0
C2270 C 0.42573 1.00233 0.27685 0.0
C2271 C 0.43876 0.99483 0.25766 0.0
C2272 C 0.44872 0.98659 0.29445 0.0
C2273 C 0.44571 0.98582 0.34857 0.0
C2274 C 0.4581 1.00388 0.12753 0.0
C2275 C 0.44787 0.9984 0.08962 0.0
C2276 C 0.45518 1.00263 0.18162 0.0
C2277 C 0.44195 0.99576 0.19971 0.0
C2278 C 0.43176 0.99 0.16182 0.0
C2279 C 0.43466 0.99133 0.10768 0.0
H2280 H 0.83163 0.9856 0.94639 0.0
H2281 H 0.78894 1.00242 0.91101 0.0
H2282 H 0.82645 0.98659 0.04009 0.0
H2283 H 0.78391 1.00484 1.00499 0.0
H2284 H 0.77601 0.98178 0.17613 0.0
H2285 H 0.78114 0.98016 0.08222 0.0
H2286 H 0.82119 0.01343 0.11189 0.0
H2287 H 0.81607 0.01476 0.20595 0.0
C2288 C 0.82111 0.98949 0.9584 0.0
C2289 C 0.81072 0.99378 0.92048 0.0
C2290 C 0.81817 0.99044 1.01253 0.0
C2291 C 0.80473 0.99584 0.03075 0.0
C2292 C 0.79435 1.00029 0.99286 0.0
C2293 C 0.79728 0.99925 0.93865 0.0
C2294 C 0.78588 0.98892 0.16268 0.0
C2295 C 0.7956 0.99844 0.19903 0.0
C2296 C 0.78884 0.98804 0.10854 0.0
C2297 C 0.80159 0.99672 0.08883 0.0
C2298 C 0.81133 1.00617 0.12526 0.0
C2299 C 0.80839 1.00695 0.17947 0.0
H2300 H 0.42128 0.31162 0.93563 0.0
H2301 H 0.4425 0.24067 0.91196 0.0
H2302 H 0.42592 0.30912 0.02972 0.0
H2303 H 0.4478 0.23888 1.0057 0.0
H2304 H 0.44227 0.22879 0.18317 0.0
H2305 H 0.43749 0.2315 0.08907 0.0
H2306 H 0.44332 0.31242 0.09525 0.0
H2307 H 0.4479 0.30967 0.18966 0.0
C2308 C 0.42695 0.29546 0.95033 0.0
C2309 C 0.43141 0.27627 0.91571 0.0
C2310 C 0.42979 0.2942 1.00449 0.0
C2311 C 0.43724 0.27376 0.02586 0.0
C2312 C 0.44186 0.25475 0.99114 0.0
C2313 C 0.43898 0.25596 0.93698 0.0
C2314 C 0.44261 0.24717 0.16444 0.0
C2315 C 0.4455 0.269 0.19424 0.0
C2316 C 0.4399 0.24873 0.11024 0.0
C2317 C 0.44006 0.27218 0.08399 0.0
C2318 C 0.44289 0.29405 0.11392 0.0
C2319 C 0.44553 0.29249 0.16824 0.0
H2320 H 0.17477 0.74676 0.94966 0.0
H2321 H 0.2183 0.75642 0.91746 0.0
H2322 H 0.16986 0.74822 0.85585 0.0
H2323 H 0.21329 0.75944 0.82354 0.0
H2324 H 0.20105 0.73432 0.65599 0.0
H2325 H 0.20666 0.73478 0.74976 0.0
H2326 H 0.16859 0.77473 0.78172 0.0
H2327 H 0.16287 0.77355 0.6882 0.0
C2328 C 0.18332 0.74927 0.92263 0.0
C2329 C 0.19696 0.75129 0.9415 0.0
C2330 C 0.18047 0.7505 0.86861 0.0
C2331 C 0.19115 0.754 0.83165 0.0
C2332 C 0.20478 0.75641 0.85054 0.0
C2333 C 0.20765 0.75503 0.90465 0.0
C2334 C 0.19395 0.7434 0.68306 0.0
C2335 C 0.18146 0.75374 0.66463 0.0
C2336 C 0.19718 0.74374 0.73694 0.0
C2337 C 0.18806 0.75466 0.7738 0.0
C2338 C 0.17574 0.76562 0.75495 0.0
C2339 C 0.17246 0.76504 0.7012 0.0
H2340 H 0.57471 0.05599 0.68753 0.0
H2341 H 0.53812 0.01216 0.65298 0.0
H2342 H 0.56939 0.05402 0.78119 0.0
H2343 H 0.53243 1.01128 0.74648 0.0
H2344 H 0.5346 0.98988 0.92071 0.0
H2345 H 0.5398 0.99241 0.82705 0.0
H2346 H 0.55398 0.06923 0.84779 0.0
H2347 H 0.5489 0.06652 0.94196 0.0
C2348 C 0.56553 0.0459 0.69981 0.0
C2349 C 0.55692 0.03408 0.66237 0.0
C2350 C 0.56236 0.04508 0.75367 0.0
C2351 C 0.55047 0.03247 0.77177 0.0
C2352 C 0.54178 0.02088 0.73428 0.0
C2353 C 0.54496 0.02166 0.6804 0.0
C2354 C 0.5387 1.00742 0.90528 0.0
C2355 C 0.54126 0.02804 0.939 0.0
C2356 C 0.54167 1.00889 0.85138 0.0
C2357 C 0.54726 0.03107 0.82944 0.0
C2358 C 0.54986 0.05171 0.86322 0.0
C2359 C 0.54693 0.05019 0.9173 0.0
H2360 H 0.21653 0.03876 0.86645 0.0
H2361 H 0.17764 1.00111 0.8382 0.0
H2362 H 0.21139 0.04051 0.96043 0.0
H2363 H 0.17257 1.00243 0.93226 0.0
H2364 H 0.16118 0.0298 0.09678 0.0
H2365 H 0.16639 0.0289 1.00314 0.0
H2366 H 0.20952 0.01632 0.03855 0.0
H2367 H 0.20442 0.01871 0.13249 0.0
C2368 C 0.20691 0.03065 0.8803 0.0
C2369 C 0.19751 0.0198 0.84442 0.0
C2370 C 0.20397 0.03158 0.93445 0.0
C2371 C 0.19155 0.02157 0.95458 0.0
C2372 C 0.18213 1.01076 0.91857 0.0
C2373 C 0.18505 1.00997 0.86437 0.0
C2374 C 0.17183 0.02719 0.08484 0.0
C2375 C 0.18236 0.02449 0.12282 0.0
C2376 C 0.1748 0.02628 0.03075 0.0
C2377 C 0.1884 0.02249 1.01263 0.0
C2378 C 0.19894 0.01961 0.05059 0.0
C2379 C 0.19597 0.02063 0.10477 0.0
H2380 H 0.56203 0.77764 0.84729 0.0
H2381 H 0.52125 0.74724 0.87585 0.0
H2382 H 0.56653 0.77789 0.94151 0.0
H2383 H 0.52541 0.74914 0.97028 0.0
H2384 H 0.54353 0.72598 0.12986 0.0
H2385 H 0.538 0.72806 0.03638 0.0
H2386 H 0.56158 0.79718 0.02316 0.0
H2387 H 0.5674 0.79459 0.11661 0.0
C2388 C 0.55397 0.77113 0.87358 0.0
C2389 C 0.5413 0.76221 0.85352 0.0
C2390 C 0.55649 0.77164 0.92791 0.0
C2391 C 0.54637 0.76347 0.96392 0.0
C2392 C 0.53356 0.7552 0.94393 0.0
C2393 C 0.53109 0.75448 0.88956 0.0
C2394 C 0.5474 0.74177 0.1071 0.0
C2395 C 0.55593 0.76009 0.1307 0.0
C2396 C 0.5442 0.74303 0.05338 0.0
C2397 C 0.54933 0.76279 0.02179 0.0
C2398 C 0.55764 0.78141 0.04578 0.0
C2399 C 0.56095 0.78 0.09946 0.0
H2400 H 0.7733 0.75294 0.6213 0.0
H2401 H 0.81467 0.77854 0.58603 0.0
H2402 H 0.77857 0.75448 0.71541 0.0
H2403 H 0.82008 0.7792 0.67976 0.0
H2404 H 0.82003 0.80625 0.85049 0.0
H2405 H 0.81439 0.80378 0.75715 0.0
H2406 H 0.79224 0.73411 0.7842 0.0
H2407 H 0.79793 0.73654 0.87791 0.0
C2408 C 0.78353 0.75881 0.63355 0.0
C2409 C 0.79354 0.76565 0.5959 0.0
C2410 C 0.7866 0.75946 0.68756 0.0
C2411 C 0.79974 0.76706 0.70535 0.0
C2412 C 0.80979 0.77357 0.66764 0.0
C2413 C 0.80674 0.77287 0.61372 0.0
C2414 C 0.81407 0.79024 0.83658 0.0
C2415 C 0.80954 0.77149 0.87189 0.0
C2416 C 0.81083 0.78883 0.78291 0.0
C2417 C 0.80294 0.76864 0.76289 0.0
C2418 C 0.79822 0.75006 0.79826 0.0
C2419 C 0.80148 0.75146 0.85206 0.0
H2420 H 0.40717 0.48707 0.83189 0.0
H2421 H 0.45058 0.49582 0.86752 0.0
H2422 H 0.41233 0.4886 0.73814 0.0
H2423 H 0.45566 0.49863 0.77356 0.0
H2424 H 0.46193 0.47577 0.6008 0.0
H2425 H 0.45685 0.47405 0.69479 0.0
H2426 H 0.41911 0.51578 0.66837 0.0
H2427 H 0.42416 0.5173 0.57428 0.0
C2428 C 0.41784 0.48931 0.81987 0.0
C2429 C 0.42844 0.49115 0.8578 0.0
C2430 C 0.42079 0.49054 0.7658 0.0
C2431 C 0.43443 0.49376 0.74772 0.0
C2432 C 0.44504 0.49581 0.78564 0.0
C2433 C 0.44209 0.49454 0.83979 0.0
C2434 C 0.45259 0.48475 0.615 0.0
C2435 C 0.44348 0.49669 0.57957 0.0
C2436 C 0.44967 0.4838 0.66915 0.0
C2437 C 0.43756 0.49482 0.68973 0.0
C2438 C 0.42843 0.50671 0.65423 0.0
C2439 C 0.43133 0.50759 0.60003 0.0
H2440 H 0.81053 0.4642 0.4298 0.0
H2441 H 0.80438 0.54466 0.4138 0.0
H2442 H 0.80435 0.46682 0.52264 0.0
H2443 H 0.79777 0.54719 0.50678 0.0
H2444 H 0.80269 0.54463 0.68922 0.0
H2445 H 0.80798 0.54344 0.59504 0.0
H2446 H 0.78476 0.47411 0.57978 0.0
H2447 H 0.77987 0.47482 0.67387 0.0
C2448 C 0.80786 0.48249 0.44607 0.0
C2449 C 0.80805 0.50424 0.41419 0.0
C2450 C 0.80415 0.48395 0.49932 0.0
C2451 C 0.80053 0.50722 0.52242 0.0
C2452 C 0.80062 0.52899 0.49051 0.0
C2453 C 0.80427 0.5275 0.43702 0.0
C2454 C 0.79874 0.52909 0.66581 0.0
C2455 C 0.79085 0.50981 0.68943 0.0
C2456 C 0.80166 0.52854 0.61163 0.0
C2457 C 0.79685 0.50863 0.57964 0.0
C2458 C 0.78879 0.48959 0.60316 0.0
C2459 C 0.78583 0.49017 0.65718 0.0
H2460 H 0.44912 0.73005 0.68306 0.0
H2461 H 0.43874 0.80898 0.70088 0.0
H2462 H 0.44414 0.73263 0.58911 0.0
H2463 H 0.4337 0.81153 0.6067 0.0
H2464 H 0.41268 0.80005 0.44546 0.0
H2465 H 0.41748 0.79765 0.53973 0.0
H2466 H 0.45295 0.75049 0.50804 0.0
H2467 H 0.4479 0.75229 0.41383 0.0
C2468 C 0.44589 0.74805 0.66697 0.0
C2469 C 0.44441 0.76934 0.69994 0.0
C2470 C 0.44302 0.74953 0.61286 0.0
C2471 C 0.43856 0.77232 0.58989 0.0
C2472 C 0.43694 0.79356 0.6229 0.0
C2473 C 0.43982 0.79209 0.6771 0.0
C2474 C 0.42144 0.78897 0.45855 0.0
C2475 C 0.42985 0.77627 0.42174 0.0
C2476 C 0.42429 0.78783 0.51274 0.0
C2477 C 0.43561 0.77385 0.53188 0.0
C2478 C 0.44405 0.76121 0.49503 0.0
C2479 C 0.44124 0.76247 0.4408 0.0
H2480 H 0.16323 0.26464 0.19382 0.0
H2481 H 0.20547 0.24666 0.15344 0.0
H2482 H 0.1696 0.26698 0.2866 0.0
H2483 H 0.21195 0.24983 0.24631 0.0
H2484 H 0.21372 0.22603 0.42196 0.0
H2485 H 0.2086 0.22658 0.32798 0.0
H2486 H 0.1824 0.29178 0.35045 0.0
H2487 H 0.18759 0.29135 0.44456 0.0
C2488 C 0.1739 0.26125 0.20468 0.0
C2489 C 0.1838 0.25529 0.16599 0.0
C2490 C 0.17759 0.26289 0.25796 0.0
C2491 C 0.1913 0.25858 0.27419 0.0
C2492 C 0.20126 0.25301 0.23542 0.0
C2493 C 0.19757 0.25146 0.18202 0.0
C2494 C 0.20705 0.24078 0.40688 0.0
C2495 C 0.20107 0.25863 0.44122 0.0
C2496 C 0.2041 0.24107 0.3528 0.0
C2497 C 0.19504 0.25917 0.33142 0.0
C2498 C 0.18924 0.27729 0.36556 0.0
C2499 C 0.19222 0.27704 0.41965 0.0
H2500 H 0.56039 0.48698 0.44535 0.0
H2501 H 0.52731 0.54018 0.41743 0.0
H2502 H 0.56575 0.48687 0.3514 0.0
H2503 H 0.53258 0.53976 0.32354 0.0
H2504 H 0.5382 0.51661 0.15087 0.0
H2505 H 0.53214 0.51321 0.24416 0.0
H2506 H 0.57543 0.51544 0.28539 0.0
H2507 H 0.58149 0.51825 0.19227 0.0
C2508 C 0.55427 0.49872 0.41934 0.0
C2509 C 0.54342 0.51364 0.43939 0.0
C2510 C 0.55734 0.49862 0.36533 0.0
C2511 C 0.54962 0.51334 0.32974 0.0
C2512 C 0.53862 0.5279 0.34958 0.0
C2513 C 0.53558 0.5281 0.4036 0.0
C2514 C 0.54643 0.51605 0.1798 0.0
C2515 C 0.56034 0.51779 0.16396 0.0
C2516 C 0.54295 0.51435 0.23337 0.0
C2517 C 0.55329 0.51414 0.27247 0.0
C2518 C 0.5672 0.51534 0.25647 0.0
C2519 C 0.57067 0.51721 0.20302 0.0
H2520 H 0.21699 0.51585 0.36808 0.0
H2521 H 0.17371 0.52686 0.33316 0.0
H2522 H 0.21197 0.5178 0.46196 0.0
H2523 H 0.16877 0.53003 0.4272 0.0
H2524 H 0.1625 0.50598 0.59899 0.0
H2525 H 0.16752 0.50446 0.50497 0.0
H2526 H 0.20542 0.54574 0.53171 0.0
H2527 H 0.20042 0.54713 0.62588 0.0
C2528 C 0.20639 0.51871 0.38033 0.0
C2529 C 0.19576 0.52101 0.34269 0.0
C2530 C 0.20353 0.52016 0.43438 0.0
C2531 C 0.18995 0.52404 0.45253 0.0
C2532 C 0.17933 0.52668 0.4149 0.0
C2533 C 0.18219 0.52519 0.36078 0.0
C2534 C 0.17186 0.51493 0.58484 0.0
C2535 C 0.18103 0.52672 0.62028 0.0
C2536 C 0.17474 0.51409 0.53074 0.0
C2537 C 0.18687 0.52505 0.51037 0.0
C2538 C 0.19607 0.53677 0.54585 0.0
C2539 C 0.1932 0.53756 0.60001 0.0
H2540 H 0.55122 0.29469 0.34266 0.0
H2541 H 0.5305 0.22268 0.35619 0.0
H2542 H 0.55646 0.29369 0.43696 0.0
H2543 H 0.53535 0.22207 0.45036 0.0
H2544 H 0.56165 0.21433 0.59981 0.0
H2545 H 0.55546 0.21672 0.5069 0.0
H2546 H 0.54568 0.29589 0.52518 0.0
H2547 H 0.55224 0.29364 0.61826 0.0
C2548 C 0.54773 0.27871 0.36572 0.0
C2549 C 0.54044 0.25876 0.34165 0.0
C2550 C 0.55062 0.27826 0.41991 0.0
C2551 C 0.54637 0.25776 0.45131 0.0
C2552 C 0.53892 0.23802 0.42734 0.0
C2553 C 0.53599 0.23852 0.37334 0.0
C2554 C 0.55826 0.23231 0.58403 0.0
C2555 C 0.55753 0.25383 0.61655 0.0
C2556 C 0.55456 0.23361 0.5308 0.0
C2557 C 0.55005 0.25649 0.50844 0.0
C2558 C 0.54922 0.27802 0.54097 0.0
C2559 C 0.55285 0.27667 0.59445 0.0
H2560 H 0.28605 0.44171 0.46764 0.0
H2561 H 0.32901 0.42578 0.49729 0.0
H2562 H 0.28572 0.40952 0.39841 0.0
H2563 H 0.32853 0.39232 0.43206 0.0
H2564 H 0.32974 0.34846 0.2816 0.0
H2565 H 0.32899 0.38231 0.34583 0.0
H2566 H 0.28546 0.36805 0.37086 0.0
H2567 H 0.28612 0.33538 0.30253 0.0
C2568 C 0.29543 0.43134 0.45941 0.0
C2569 C 0.30763 0.43685 0.48738 0.0
C2570 C 0.29522 0.41247 0.42002 0.0
C2571 C 0.30715 0.39809 0.4082 0.0
C2572 C 0.31919 0.40322 0.43786 0.0
C2573 C 0.31946 0.42237 0.47617 0.0
C2574 C 0.31997 0.35258 0.30058 0.0
C2575 C 0.30807 0.33867 0.28751 0.0
C2576 C 0.31955 0.37197 0.33834 0.0
C2577 C 0.30723 0.37798 0.36546 0.0
C2578 C 0.29519 0.36436 0.35134 0.0
C2579 C 0.29558 0.34524 0.31248 0.0
H2580 H 0.91266 0.83219 0.46761 0.0
H2581 H 0.95585 0.84434 0.49998 0.0
H2582 H 0.91314 0.86488 0.4009 0.0
H2583 H 0.95628 0.8788 0.43543 0.0
H2584 H 0.95521 0.9301 0.28772 0.0
H2585 H 0.9562 0.89557 0.35194 0.0
H2586 H 0.91271 0.90636 0.38479 0.0
H2587 H 0.91171 0.93914 0.31833 0.0
C2588 C 0.92229 0.84212 0.4607 0.0
C2589 C 0.93419 0.83566 0.4894 0.0
C2590 C 0.92256 0.86131 0.4226 0.0
C2591 C 0.93467 0.87548 0.4127 0.0
C2592 C 0.94672 0.86856 0.44097 0.0
C2593 C 0.9465 0.84877 0.47838 0.0
C2594 C 0.94589 0.92492 0.30873 0.0
C2595 C 0.93334 0.93716 0.29724 0.0
C2596 C 0.94643 0.90511 0.34602 0.0
C2597 C 0.93448 0.89732 0.37379 0.0
C2598 C 0.9221 0.91061 0.36344 0.0
C2599 C 0.92151 0.92984 0.32544 0.0
H2600 H 0.28769 0.94368 0.97269 0.0
H2601 H 0.33023 0.92452 1.00337 0.0
H2602 H 0.28659 0.91052 0.90512 0.0
H2603 H 0.32902 0.89075 0.93888 0.0
H2604 H 0.32916 0.84873 0.78552 0.0
H2605 H 0.32889 0.88265 0.84984 0.0
H2606 H 0.28599 0.86677 0.88375 0.0
H2607 H 0.28616 0.83348 0.81632 0.0
C2608 C 0.2968 0.9324 0.96512 0.0
C2609 C 0.30911 0.93712 0.99305 0.0
C2610 C 0.29615 0.91311 0.92666 0.0
C2611 C 0.30777 0.89782 0.91544 0.0
C2612 C 0.31993 0.90233 0.94469 0.0
C2613 C 0.3206 0.92169 0.98239 0.0
C2614 C 0.31963 0.85247 0.80649 0.0
C2615 C 0.30773 0.83807 0.79593 0.0
C2616 C 0.31949 0.87191 0.84409 0.0
C2617 C 0.30748 0.87752 0.87335 0.0
C2618 C 0.29545 0.86331 0.86219 0.0
C2619 C 0.29556 0.84395 0.82381 0.0
H2620 H 0.91209 0.44171 0.81625 0.0
H2621 H 0.95554 0.43188 0.78577 0.0
H2622 H 0.91282 0.40851 0.88185 0.0
H2623 H 0.95625 0.39696 0.8492 0.0
H2624 H 0.95544 0.34475 0.99554 0.0
H2625 H 0.95612 0.37976 0.93239 0.0
H2626 H 0.91296 0.36684 0.89648 0.0
H2627 H 0.91224 0.33353 0.96188 0.0
C2628 C 0.92183 0.43219 0.82332 0.0
C2629 C 0.93373 0.43944 0.79548 0.0
C2630 C 0.92225 0.41272 0.86078 0.0
C2631 C 0.93453 0.39908 0.87088 0.0
C2632 C 0.94656 0.40678 0.84347 0.0
C2633 C 0.94619 0.42683 0.80669 0.0
C2634 C 0.94612 0.34957 0.97408 0.0
C2635 C 0.93373 0.33656 0.98441 0.0
C2636 C 0.94649 0.36965 0.93741 0.0
C2637 C 0.93453 0.37697 0.90912 0.0
C2638 C 0.92233 0.36294 0.91829 0.0
C2639 C 0.92191 0.34343 0.95568 0.0
H2640 H 0.66113 0.69418 0.7142 0.0
H2641 H 0.70358 0.67931 0.75484 0.0
H2642 H 0.66194 0.6615 0.64706 0.0
H2643 H 0.7043 0.64508 0.68972 0.0
H2644 H 0.70453 0.59457 0.5409 0.0
H2645 H 0.70507 0.62923 0.6051 0.0
H2646 H 0.66118 0.61974 0.63089 0.0
H2647 H 0.66066 0.58666 0.56474 0.0
C2648 C 0.67065 0.68366 0.70904 0.0
C2649 C 0.68226 0.68934 0.74015 0.0
C2650 C 0.67111 0.66454 0.67065 0.0
C2651 C 0.68311 0.64976 0.6628 0.0
C2652 C 0.69485 0.65585 0.6936 0.0
C2653 C 0.69445 0.67548 0.73137 0.0
C2654 C 0.69502 0.60005 0.56036 0.0
C2655 C 0.68252 0.588 0.54711 0.0
C2656 C 0.69531 0.61993 0.59762 0.0
C2657 C 0.68312 0.62805 0.62351 0.0
C2658 C 0.67076 0.61512 0.61114 0.0
C2659 C 0.67045 0.59575 0.57329 0.0
H2660 H 0.03759 0.08076 0.71821 0.0
H2661 H 0.08068 0.09623 0.74678 0.0
H2662 H 0.03704 0.11432 0.65164 0.0
H2663 H 0.08003 0.13052 0.6836 0.0
H2664 H 0.08071 0.17485 0.53338 0.0
H2665 H 0.07997 0.14048 0.59634 0.0
H2666 H 0.03713 0.15744 0.62937 0.0
H2667 H 0.03777 0.19111 0.56304 0.0
C2668 C 0.04694 0.09133 0.71042 0.0
C2669 C 0.05923 0.0854 0.73746 0.0
C2670 C 0.04661 0.11089 0.67249 0.0
C2671 C 0.05854 0.12535 0.66097 0.0
C2672 C 0.07068 0.11964 0.68943 0.0
C2673 C 0.07104 0.09997 0.72648 0.0
C2674 C 0.07109 0.17127 0.55388 0.0
C2675 C 0.05935 0.1861 0.54329 0.0
C2676 C 0.07068 0.15154 0.59079 0.0
C2677 C 0.05855 0.14604 0.61952 0.0
C2678 C 0.04669 0.16073 0.60833 0.0
C2679 C 0.04707 0.18035 0.57056 0.0
H2680 H 0.6621 0.08026 0.07807 0.0
H2681 H 0.70519 0.09243 0.044 0.0
H2682 H 0.66265 0.11364 0.14359 0.0
H2683 H 0.7057 0.12742 0.10752 0.0
H2684 H 0.70456 0.18077 0.25236 0.0
H2685 H 0.70553 0.14487 0.19123 0.0
H2686 H 0.66224 0.1558 0.15518 0.0
H2687 H 0.66124 0.19015 0.21833 0.0
C2688 C 0.67173 0.09028 0.08446 0.0
C2689 C 0.68356 0.0837 0.05551 0.0
C2690 C 0.67204 0.10983 0.12184 0.0
C2691 C 0.68413 0.12419 0.13073 0.0
C2692 C 0.69615 0.11704 0.10259 0.0
C2693 C 0.69589 0.09693 0.06584 0.0
C2694 C 0.69527 0.17533 0.23135 0.0
C2695 C 0.68278 0.18816 0.24085 0.0
C2696 C 0.69581 0.15473 0.19587 0.0
C2697 C 0.68391 0.14665 0.1681 0.0
C2698 C 0.67158 0.16036 0.17664 0.0
C2699 C 0.67099 0.18046 0.21273 0.0
H2700 H 0.08156 0.69126 0.06651 0.0
H2701 H 0.0387 0.67782 0.03029 0.0
H2702 H 0.08091 0.65852 0.13344 0.0
H2703 H 0.03809 0.64359 0.09513 0.0
H2704 H 0.03804 0.59415 0.24492 0.0
H2705 H 0.03761 0.62833 0.17988 0.0
H2706 H 0.08124 0.61692 0.15128 0.0
H2707 H 0.08168 0.5843 0.21832 0.0
C2708 C 0.07199 0.68101 0.0725 0.0
C2709 C 0.06021 0.68717 0.04282 0.0
C2710 C 0.07161 0.66187 0.11082 0.0
C2711 C 0.0595 0.64758 0.12005 0.0
C2712 C 0.04763 0.65401 0.09031 0.0
C2713 C 0.04796 0.67363 0.05263 0.0
C2714 C 0.04752 0.5991 0.22469 0.0
C2715 C 0.05993 0.58664 0.23741 0.0
C2716 C 0.04729 0.6187 0.1869 0.0
C2717 C 0.05944 0.62613 0.1599 0.0
C2718 C 0.07171 0.61282 0.17181 0.0
C2719 C 0.07197 0.59372 0.21019 0.0
H2720 H 0.83082 0.42789 0.9979 0.0
H2721 H 0.78701 0.4404 0.98151 0.0
H2722 H 0.82965 0.39344 0.93518 0.0
H2723 H 0.78587 0.40664 0.91516 0.0
H2724 H 0.78677 0.32973 0.82577 0.0
H2725 H 0.78652 0.36343 0.89233 0.0
H2726 H 0.82817 0.3839 0.84786 0.0
H2727 H 0.82859 0.34958 0.7847 0.0
C2728 C 0.8209 0.4235 0.98031 0.0
C2729 C 0.80907 0.4374 0.9943 0.0
C2730 C 0.82023 0.40373 0.94351 0.0
C2731 C 0.80771 0.39719 0.91838 0.0
C2732 C 0.79574 0.41082 0.93325 0.0
C2733 C 0.7964 0.43049 0.97097 0.0
C2734 C 0.79589 0.34131 0.83076 0.0
C2735 C 0.80777 0.33657 0.80024 0.0
C2736 C 0.79573 0.36091 0.8687 0.0
C2737 C 0.80741 0.37656 0.87679 0.0
C2738 C 0.81908 0.37207 0.84478 0.0
C2739 C 0.81929 0.35237 0.80774 0.0
H2740 H 0.41239 0.92216 0.78492 0.0
H2741 H 0.45535 0.93847 0.81434 0.0
H2742 H 0.41297 0.88874 0.85012 0.0
H2743 H 0.45582 0.90574 0.88277 0.0
H2744 H 0.45464 0.82969 0.97544 0.0
H2745 H 0.45556 0.86236 0.90683 0.0
H2746 H 0.41292 0.88117 0.93896 0.0
H2747 H 0.41188 0.84788 1.0042 0.0
C2748 C 0.42198 0.91878 0.80579 0.0
C2749 C 0.43377 0.93336 0.79456 0.0
C2750 C 0.4223 0.89962 0.84395 0.0
C2751 C 0.43438 0.89446 0.87322 0.0
C2752 C 0.4463 0.90884 0.86134 0.0
C2753 C 0.44601 0.92791 0.82237 0.0
C2754 C 0.44545 0.84063 0.96723 0.0
C2755 C 0.43312 0.83572 0.99488 0.0
C2756 C 0.44599 0.85966 0.92816 0.0
C2757 C 0.43425 0.87451 0.91607 0.0
C2758 C 0.42211 0.8699 0.94525 0.0
C2759 C 0.42153 0.85081 0.98346 0.0
H2760 H 0.78759 0.84283 0.2881 0.0
H2761 H 0.83089 0.83144 0.31958 0.0
H2762 H 0.78705 0.87717 0.35305 0.0
H2763 H 0.83031 0.86411 0.38657 0.0
H2764 H 0.8312 0.93854 0.46975 0.0
H2765 H 0.83042 0.90572 0.40309 0.0
H2766 H 0.78715 0.89326 0.43738 0.0
H2767 H 0.7879 0.92774 0.50194 0.0
C2768 C 0.79695 0.84744 0.3095 0.0
C2769 C 0.80932 0.83453 0.29819 0.0
C2770 C 0.79667 0.86714 0.34717 0.0
C2771 C 0.8087 0.87421 0.37537 0.0
C2772 C 0.82089 0.86035 0.36501 0.0
C2773 C 0.82122 0.84121 0.3267 0.0
C2774 C 0.8215 0.92884 0.46296 0.0
C2775 C 0.80966 0.9357 0.49162 0.0
C2776 C 0.82104 0.90962 0.42481 0.0
C2777 C 0.80878 0.89591 0.41471 0.0
C2778 C 0.79682 0.90316 0.44307 0.0
C2779 C 0.79723 0.92293 0.48056 0.0
H2780 H 0.45304 0.32913 0.46666 0.0
H2781 H 0.41009 0.34484 0.49729 0.0
H2782 H 0.45317 0.36143 0.39748 0.0
H2783 H 0.41033 0.37799 0.43143 0.0
H2784 H 0.40885 0.41969 0.2779 0.0
H2785 H 0.40992 0.38643 0.3434 0.0
H2786 H 0.4529 0.40407 0.3722 0.0
H2787 H 0.45192 0.43649 0.30337 0.0
C2788 C 0.44363 0.33949 0.45875 0.0
C2789 C 0.4315 0.33398 0.48715 0.0
C2790 C 0.44371 0.35834 0.41932 0.0
C2791 C 0.4317 0.37252 0.40761 0.0
C2792 C 0.41972 0.36727 0.4374 0.0
C2793 C 0.4196 0.34827 0.47598 0.0
C2794 C 0.41857 0.41648 0.298 0.0
C2795 C 0.43024 0.43115 0.28558 0.0
C2796 C 0.41918 0.39741 0.33637 0.0
C2797 C 0.43145 0.39245 0.36466 0.0
C2798 C 0.44324 0.40696 0.35159 0.0
C2799 C 0.44266 0.42589 0.31239 0.0
H2800 H 0.16086 0.58036 0.07002 0.0
H2801 H 0.20459 0.58983 0.04508 0.0
H2802 H 0.16115 0.61325 0.13652 0.0
H2803 H 0.20488 0.62438 0.10961 0.0
H2804 H 0.20312 0.67556 0.25741 0.0
H2805 H 0.20407 0.64076 0.19371 0.0
H2806 H 0.16138 0.65498 0.15247 0.0
H2807 H 0.16037 0.68824 0.21827 0.0
C2808 C 0.17057 0.58975 0.07844 0.0
C2809 C 0.18267 0.58251 0.05175 0.0
C2810 C 0.17074 0.60903 0.11649 0.0
C2811 C 0.18298 0.62243 0.12853 0.0
C2812 C 0.19521 0.61474 0.10234 0.0
C2813 C 0.19507 0.59491 0.0649 0.0
C2814 C 0.19396 0.67108 0.23468 0.0
C2815 C 0.18163 0.68457 0.24338 0.0
C2816 C 0.19449 0.65113 0.19766 0.0
C2817 C 0.18275 0.64429 0.16753 0.0
C2818 C 0.17058 0.65859 0.17553 0.0
C2819 C 0.16999 0.67805 0.21317 0.0
H2820 H 0.53642 0.07786 0.20193 0.0
H2821 H 0.57839 0.09823 0.2401 0.0
H2822 H 0.53588 0.11118 0.13447 0.0
H2823 H 0.57768 0.13199 0.17618 0.0
H2824 H 0.5798 0.17557 0.0268 0.0
H2825 H 0.57866 0.14055 0.0879 0.0
H2826 H 0.53525 0.15533 0.1135 0.0
H2827 H 0.53631 0.18983 0.04875 0.0
C2828 C 0.54553 0.08931 0.19591 0.0
C2829 C 0.55752 0.08492 0.2261 0.0
C2830 C 0.5452 0.10872 0.15756 0.0
C2831 C 0.55681 0.12442 0.14869 0.0
C2832 C 0.56862 0.12012 0.17997 0.0
C2833 C 0.56899 0.10071 0.21743 0.0
C2834 C 0.56996 0.17142 0.04524 0.0
C2835 C 0.55823 0.18603 0.03342 0.0
C2836 C 0.56932 0.1513 0.08105 0.0
C2837 C 0.55693 0.1451 0.10734 0.0
C2838 C 0.54502 0.15931 0.09445 0.0
C2839 C 0.54565 0.17939 0.05771 0.0
H2840 H 0.20462 0.0779 0.57089 0.0
H2841 H 0.16199 0.09533 0.53805 0.0
H2842 H 0.20511 0.11105 0.63841 0.0
H2843 H 0.16263 0.1294 0.60176 0.0
H2844 H 0.16111 0.17359 0.75161 0.0
H2845 H 0.16195 0.13945 0.6882 0.0
H2846 H 0.20554 0.15335 0.66406 0.0
H2847 H 0.20476 0.18658 0.7315 0.0
C2848 C 0.19536 0.0888 0.57798 0.0
C2849 C 0.18319 0.08347 0.54956 0.0
C2850 C 0.19565 0.10817 0.61643 0.0
C2851 C 0.18384 0.12311 0.62701 0.0
C2852 C 0.17186 0.1181 0.59692 0.0
C2853 C 0.17151 0.09855 0.5595 0.0
C2854 C 0.17092 0.1694 0.73297 0.0
C2855 C 0.1828 0.18337 0.74615 0.0
C2856 C 0.1714 0.14981 0.69569 0.0
C2857 C 0.18375 0.14356 0.66911 0.0
C2858 C 0.19577 0.15726 0.68318 0.0
C2859 C 0.19532 0.17668 0.72152 0.0
H2860 H 0.57958 0.58285 0.71611 0.0
H2861 H 0.53641 0.59369 0.75065 0.0
H2862 H 0.57869 0.61616 0.65083 0.0
H2863 H 0.53555 0.62867 0.68715 0.0
H2864 H 0.53626 0.68107 0.53987 0.0
H2865 H 0.53549 0.64595 0.603 0.0
H2866 H 0.57874 0.65812 0.63802 0.0
H2867 H 0.57953 0.69161 0.57307 0.0
C2868 C 0.56986 0.5926 0.71 0.0
C2869 C 0.5581 0.5856 0.73901 0.0
C2870 C 0.56935 0.61213 0.67268 0.0
C2871 C 0.55713 0.6261 0.66374 0.0
C2872 C 0.5452 0.61862 0.69211 0.0
C2873 C 0.54566 0.59853 0.72889 0.0
C2874 C 0.54557 0.67609 0.56119 0.0
C2875 C 0.558 0.68901 0.55084 0.0
C2876 C 0.54515 0.65594 0.59779 0.0
C2877 C 0.55712 0.64836 0.62576 0.0
C2878 C 0.56936 0.66224 0.61648 0.0
C2879 C 0.56982 0.68186 0.57933 0.0
H2880 H 0.29126 0.17904 0.2822 0.0
H2881 H 0.31204 0.20951 0.14577 0.0
H2882 H 0.29289 0.13682 0.24562 0.0
H2883 H 0.31373 0.16638 0.1086 0.0
H2884 H 0.32244 0.07658 0.09166 0.0
H2885 H 0.32424 0.1197 0.12855 0.0
H2886 H 0.28075 0.11796 0.16618 0.0
H2887 H 0.27896 0.07557 0.12934 0.0
C2888 C 0.2963 0.17673 0.24437 0.0
C2889 C 0.30141 0.1978 0.21672 0.0
C2890 C 0.29721 0.15241 0.22338 0.0
C2891 C 0.30332 0.14818 0.17399 0.0
C2892 C 0.30901 0.16903 0.1469 0.0
C2893 C 0.308 0.1937 0.16801 0.0
C2894 C 0.31334 0.08541 0.1084 0.0
C2895 C 0.30057 0.07264 0.10795 0.0
C2896 C 0.31433 0.11016 0.12891 0.0
C2897 C 0.30263 0.12229 0.15025 0.0
C2898 C 0.28998 0.10918 0.15039 0.0
C2899 C 0.28896 0.08484 0.12931 0.0
H2900 H 0.96501 0.19911 0.1216 0.0
H2901 H 0.92203 0.19729 0.07691 0.0
H2902 H 0.96353 0.15572 0.1521 0.0
H2903 H 0.92058 0.15296 0.1053 0.0
H2904 H 0.92153 0.07732 0.20248 0.0
H2905 H 0.92068 0.12159 0.17324 0.0
H2906 H 0.96278 0.11529 0.11772 0.0
H2907 H 0.96371 0.07199 0.14913 0.0
C2908 C 0.9552 0.18934 0.11838 0.0
C2909 C 0.94368 0.20162 0.09659 0.0
C2910 C 0.95436 0.16423 0.13529 0.0
C2911 C 0.94202 0.15023 0.13 0.0
C2912 C 0.93028 0.16291 0.11012 0.0
C2913 C 0.93108 0.18837 0.09382 0.0
C2914 C 0.93049 0.08543 0.18333 0.0
C2915 C 0.94273 0.07125 0.17842 0.0
C2916 C 0.93004 0.11086 0.16659 0.0
C2917 C 0.94178 0.12254 0.14412 0.0
C2918 C 0.95367 0.10757 0.13652 0.0
C2919 C 0.95417 0.0825 0.15391 0.0
H2920 H 0.69552 0.96153 0.87694 0.0
H2921 H 0.68114 0.92877 0.02207 0.0
H2922 H 0.69443 0.92027 0.83451 0.0
H2923 H 0.67868 0.88788 0.97936 0.0
H2924 H 0.69085 0.81118 0.9108 0.0
H2925 H 0.68897 0.85273 0.95177 0.0
H2926 H 0.68481 0.88664 0.79718 0.0
H2927 H 0.68804 0.84536 0.75728 0.0
C2928 C 0.6916 0.94558 0.89912 0.0
C2929 C 0.68833 0.94838 0.95261 0.0
C2930 C 0.69092 0.92167 0.87484 0.0
C2931 C 0.68656 0.89995 0.90306 0.0
C2932 C 0.68253 0.90346 0.95605 0.0
C2933 C 0.68368 0.92714 0.9806 0.0
C2934 C 0.68938 0.82759 0.88592 0.0
C2935 C 0.68963 0.82504 0.83091 0.0
C2936 C 0.68823 0.85166 0.90931 0.0
C2937 C 0.68685 0.87382 0.87833 0.0
C2938 C 0.68633 0.87067 0.8231 0.0
C2939 C 0.68796 0.84679 0.79989 0.0
H2940 H 0.02591 0.94568 0.86435 0.0
H2941 H 0.07008 0.9471 0.84128 0.0
H2942 H 0.02752 0.90331 0.90097 0.0
H2943 H 0.07172 0.90407 0.87827 0.0
H2944 H 0.06241 0.81416 0.89659 0.0
H2945 H 0.06349 0.85702 0.85799 0.0
H2946 H 0.03735 0.88483 0.98302 0.0
H2947 H 0.0363 0.84287 0.02086 0.0
C2948 C 0.03601 0.93695 0.86736 0.0
C2949 C 0.04786 0.94988 0.85014 0.0
C2950 C 0.03694 0.91259 0.88842 0.0
C2951 C 0.04975 0.90017 0.89266 0.0
C2952 C 0.06168 0.913 0.87523 0.0
C2953 C 0.06076 0.93772 0.85459 0.0
C2954 C 0.057 0.82953 0.91578 0.0
C2955 C 0.04918 0.82497 0.96158 0.0
C2956 C 0.05766 0.85408 0.89389 0.0
C2957 C 0.05038 0.87438 0.91714 0.0
C2958 C 0.0429 0.86969 0.96353 0.0
C2959 C 0.04234 0.8455 0.98534 0.0
H2960 H 0.27434 0.69257 0.70361 0.0
H2961 H 0.31756 0.70307 0.66762 0.0
H2962 H 0.27547 0.64956 0.67287 0.0
H2963 H 0.31859 0.65941 0.63342 0.0
H2964 H 0.3163 0.56992 0.62152 0.0
H2965 H 0.31764 0.61386 0.65385 0.0
H2966 H 0.27641 0.62739 0.59467 0.0
H2967 H 0.27487 0.58409 0.56577 0.0
C2968 C 0.28412 0.68577 0.68842 0.0
C2969 C 0.29585 0.70145 0.688 0.0
C2970 C 0.28475 0.66093 0.67021 0.0
C2971 C 0.29706 0.6508 0.64957 0.0
C2972 C 0.30892 0.66642 0.64917 0.0
C2973 C 0.30832 0.69151 0.66829 0.0
C2974 C 0.30753 0.58237 0.61595 0.0
C2975 C 0.29541 0.57331 0.59171 0.0
C2976 C 0.30833 0.60762 0.63403 0.0
C2977 C 0.29704 0.62431 0.62782 0.0
C2978 C 0.28518 0.61517 0.60196 0.0
C2979 C 0.28432 0.59014 0.58491 0.0
H2980 H 0.93373 0.67882 0.5092 0.0
H2981 H 0.94259 0.71306 0.65945 0.0
H2982 H 0.93081 0.63794 0.55113 0.0
H2983 H 0.94105 0.67186 0.70175 0.0
H2984 H 0.93373 0.59679 0.77674 0.0
H2985 H 0.93097 0.63771 0.73486 0.0
H2986 H 0.94076 0.60361 0.58403 0.0
H2987 H 0.94215 0.56238 0.62631 0.0
C2988 C 0.93501 0.6775 0.55155 0.0
C2989 C 0.93826 0.69914 0.58112 0.0
C2990 C 0.93358 0.65383 0.5758 0.0
C2991 C 0.93591 0.65078 0.63036 0.0
C2992 C 0.93887 0.67287 0.66002 0.0
C2993 C 0.93982 0.69675 0.63581 0.0
C2994 C 0.93495 0.59808 0.73436 0.0
C2995 C 0.93804 0.57638 0.70473 0.0
C2996 C 0.9336 0.62177 0.71014 0.0
C2997 C 0.93586 0.62478 0.65552 0.0
C2998 C 0.93865 0.60263 0.62581 0.0
C2999 C 0.93952 0.57875 0.65 0.0
H3000 H 0.71509 0.45319 0.40168 0.0
H3001 H 0.67254 0.44834 0.45086 0.0
H3002 H 0.71419 0.40993 0.36975 0.0
H3003 H 0.67171 0.40414 0.42136 0.0
H3004 H 0.67284 0.32855 0.32613 0.0
H3005 H 0.67169 0.37292 0.35433 0.0
H3006 H 0.7146 0.36929 0.40145 0.0
H3007 H 0.7158 0.32585 0.37089 0.0
C3008 C 0.70549 0.44278 0.40553 0.0
C3009 C 0.69392 0.45418 0.42894 0.0
C3010 C 0.705 0.41772 0.38784 0.0
C3011 C 0.69298 0.4029 0.39405 0.0
C3012 C 0.68117 0.41472 0.41565 0.0
C3013 C 0.68161 0.44012 0.43261 0.0
C3014 C 0.68196 0.33731 0.34293 0.0
C3015 C 0.69446 0.32376 0.34583 0.0
C3016 C 0.68132 0.36279 0.3592 0.0
C3017 C 0.69313 0.37524 0.37931 0.0
C3018 C 0.70538 0.361 0.38449 0.0
C3019 C 0.70606 0.33584 0.36754 0.0
H3020 H 0.06964 0.32798 0.45412 0.0
H3021 H 0.02733 0.32295 0.40197 0.0
H3022 H 0.07042 0.3724 0.42619 0.0
H3023 H 0.02819 0.36644 0.3717 0.0
H3024 H 0.02622 0.45045 0.37541 0.0
H3025 H 0.02751 0.40689 0.40507 0.0
H3026 H 0.07056 0.40401 0.35977 0.0
H3027 H 0.0693 0.44845 0.33243 0.0
C3028 C 0.06062 0.33621 0.43557 0.0
C3029 C 0.04838 0.32202 0.43059 0.0
C3030 C 0.06103 0.36173 0.41952 0.0
C3031 C 0.04926 0.37356 0.3976 0.0
C3032 C 0.03734 0.35863 0.39009 0.0
C3033 C 0.03687 0.33345 0.40683 0.0
C3034 C 0.03601 0.4406 0.37233 0.0
C3035 C 0.04762 0.45291 0.35134 0.0
C3036 C 0.03674 0.41538 0.38875 0.0
C3037 C 0.04906 0.40131 0.38375 0.0
C3038 C 0.06087 0.41399 0.36447 0.0
C3039 C 0.06017 0.43953 0.34872 0.0
H3040 H 0.77698 0.07128 0.63169 0.0
H3041 H 0.81966 0.07532 0.58381 0.0
H3042 H 0.77795 0.11474 0.66231 0.0
H3043 H 0.82057 0.1197 0.61225 0.0
H3044 H 0.81915 0.19535 0.70902 0.0
H3045 H 0.82042 0.15108 0.67997 0.0
H3046 H 0.77786 0.15522 0.62864 0.0
H3047 H 0.77653 0.19854 0.6599 0.0
C3048 C 0.78662 0.08155 0.62777 0.0
C3049 C 0.7982 0.06987 0.60508 0.0
C3050 C 0.78715 0.10671 0.64475 0.0
C3051 C 0.79924 0.12133 0.63863 0.0
C3052 C 0.81106 0.10926 0.61777 0.0
C3053 C 0.81056 0.08377 0.60142 0.0
C3054 C 0.81016 0.18675 0.69092 0.0
C3055 C 0.7977 0.20035 0.68714 0.0
C3056 C 0.81085 0.16133 0.67424 0.0
C3057 C 0.79914 0.14903 0.65292 0.0
C3058 C 0.78698 0.16341 0.64654 0.0
C3059 C 0.78624 0.18849 0.66387 0.0
H3060 H 0.46494 0.19831 0.62967 0.0
H3061 H 0.42233 0.19376 0.58089 0.0
H3062 H 0.46412 0.15476 0.65964 0.0
H3063 H 0.42158 0.14932 0.60863 0.0
H3064 H 0.42311 0.07331 0.70312 0.0
H3065 H 0.42177 0.11774 0.67556 0.0
H3066 H 0.46443 0.11436 0.62536 0.0
H3067 H 0.46582 0.07083 0.65514 0.0
C3068 C 0.45535 0.18791 0.62549 0.0
C3069 C 0.44374 0.19949 0.60272 0.0
C3070 C 0.4549 0.1627 0.64206 0.0
C3071 C 0.44289 0.14792 0.63545 0.0
C3072 C 0.43103 0.15988 0.61455 0.0
C3073 C 0.43144 0.18542 0.59861 0.0
C3074 C 0.43212 0.08211 0.68564 0.0
C3075 C 0.44462 0.06862 0.6817 0.0
C3076 C 0.43138 0.10763 0.6698 0.0
C3077 C 0.44308 0.12017 0.64916 0.0
C3078 C 0.4553 0.10597 0.64274 0.0
C3079 C 0.45608 0.08077 0.65922 0.0
H3080 H 0.2159 0.94313 0.42234 0.0
H3081 H 0.17176 0.94555 0.44604 0.0
H3082 H 0.21394 0.9008 0.3854 0.0
H3083 H 0.16978 0.90256 0.40885 0.0
H3084 H 0.17878 0.81228 0.38997 0.0
H3085 H 0.17797 0.85512 0.4291 0.0
H3086 H 0.20363 0.88294 0.30276 0.0
H3087 H 0.2044 0.84105 0.26432 0.0
C3088 C 0.20573 0.93463 0.41943 0.0
C3089 C 0.19399 0.94782 0.43687 0.0
C3090 C 0.20461 0.9103 0.39822 0.0
C3091 C 0.1917 0.89818 0.3941 0.0
C3092 C 0.17988 0.91126 0.4118 0.0
C3093 C 0.181 0.93595 0.43256 0.0
C3094 C 0.18413 0.82766 0.37056 0.0
C3095 C 0.19174 0.82313 0.32422 0.0
C3096 C 0.18363 0.85219 0.39278 0.0
C3097 C 0.19086 0.87246 0.36932 0.0
C3098 C 0.19811 0.86781 0.32238 0.0
C3099 C 0.19851 0.84366 0.30024 0.0
H3100 H 0.5539 0.81307 0.39047 0.0
H3101 H 0.55132 0.84847 0.54312 0.0
H3102 H 0.55546 0.8546 0.34903 0.0
H3103 H 0.55396 0.88986 0.50303 0.0
H3104 H 0.54219 0.96213 0.41434 0.0
H3105 H 0.54342 0.92136 0.45893 0.0
H3106 H 0.56638 0.89078 0.32697 0.0
H3107 H 0.56405 0.93108 0.28155 0.0
C3108 C 0.55405 0.82977 0.41524 0.0
C3109 C 0.55246 0.8275 0.46999 0.0
C3110 C 0.55501 0.85378 0.39159 0.0
C3111 C 0.55475 0.87621 0.4222 0.0
C3112 C 0.5538 0.87351 0.47738 0.0
C3113 C 0.55246 0.84962 0.5007 0.0
C3114 C 0.54778 0.94678 0.39571 0.0
C3115 C 0.55321 0.94985 0.34491 0.0
C3116 C 0.54851 0.92319 0.42118 0.0
C3117 C 0.55493 0.90211 0.39687 0.0
C3118 C 0.561 0.90593 0.34693 0.0
C3119 C 0.55992 0.92928 0.32107 0.0
H3120 H 0.81044 0.71307 0.13525 0.0
H3121 H 0.79614 0.67493 0.27513 0.0
H3122 H 0.8129 0.67201 0.09071 0.0
H3123 H 0.79841 0.63429 0.23112 0.0
H3124 H 0.81126 0.56137 0.15007 0.0
H3125 H 0.81374 0.60249 0.19432 0.0
H3126 H 0.7975 0.63974 0.0561 0.0
H3127 H 0.7952 0.59902 1.01235 0.0
C3128 C 0.80801 0.69595 0.15668 0.0
C3129 C 0.80308 0.6973 0.20868 0.0
C3130 C 0.80932 0.67239 0.13113 0.0
C3131 C 0.80584 0.64964 0.15719 0.0
C3132 C 0.80138 0.65117 0.20983 0.0
C3133 C 0.79997 0.6746 0.23501 0.0
C3134 C 0.80843 0.57841 0.12905 0.0
C3135 C 0.80301 0.57689 0.07776 0.0
C3136 C 0.80976 0.602 0.15443 0.0
C3137 C 0.80581 0.62463 0.12891 0.0
C3138 C 0.80084 0.62295 0.07693 0.0
C3139 C 0.79942 0.59948 0.05192 0.0
H3140 H 0.46093 0.5693 0.14664 0.0
H3141 H 0.4183 0.57152 0.19578 0.0
H3142 H 0.45964 0.61328 0.11984 0.0
H3143 H 0.41704 0.61639 0.17064 0.0
H3144 H 0.41901 0.6939 0.07717 0.0
H3145 H 0.41747 0.64909 0.10265 0.0
H3146 H 0.45928 0.65264 0.16225 0.0
H3147 H 0.46087 0.69654 0.13509 0.0
C3148 C 0.45122 0.57925 0.15143 0.0
C3149 C 0.43976 0.56696 0.1736 0.0
C3150 C 0.4505 0.60466 0.13664 0.0
C3151 C 0.43835 0.61887 0.14437 0.0
C3152 C 0.4266 0.6062 0.16417 0.0
C3153 C 0.42729 0.58046 0.17851 0.0
C3154 C 0.42774 0.68508 0.09653 0.0
C3155 C 0.44011 0.69864 0.10377 0.0
C3156 C 0.42689 0.65937 0.11103 0.0
C3157 C 0.43838 0.64683 0.13333 0.0
C3158 C 0.45037 0.66115 0.14349 0.0
C3159 C 0.45125 0.68651 0.1285 0.0
H3160 H 0.18911 0.34334 0.75353 0.0
H3161 H 0.18779 0.30872 0.90725 0.0
H3162 H 0.18737 0.38521 0.79378 0.0
H3163 H 0.18648 0.35098 0.948 0.0
H3164 H 0.20857 0.43007 0.98262 0.0
H3165 H 0.2052 0.38751 0.94809 0.0
H3166 H 0.17117 0.41404 0.85324 0.0
H3167 H 0.17427 0.45695 0.88945 0.0
C3168 C 0.18821 0.34469 0.79601 0.0
C3169 C 0.18855 0.32273 0.82723 0.0
C3170 C 0.18717 0.36871 0.81903 0.0
C3171 C 0.18681 0.3715 0.87407 0.0
C3172 C 0.18675 0.34946 0.90543 0.0
C3173 C 0.18742 0.32528 0.88219 0.0
C3174 C 0.20027 0.42691 0.95472 0.0
C3175 C 0.19171 0.44702 0.93868 0.0
C3176 C 0.19827 0.40238 0.93528 0.0
C3177 C 0.18786 0.39727 0.89821 0.0
C3178 C 0.17926 0.41735 0.88195 0.0
C3179 C 0.18103 0.4419 0.90258 0.0
H3180 H 0.54631 0.34873 0.02231 0.0
H3181 H 0.56138 0.31108 0.88286 0.0
H3182 H 0.54867 0.38951 0.97905 0.0
H3183 H 0.56399 0.35223 0.83921 0.0
H3184 H 0.54693 0.42496 0.75964 0.0
H3185 H 0.54903 0.38431 0.80339 0.0
H3186 H 0.56378 0.42178 0.94396 0.0
H3187 H 0.56147 0.46289 0.89967 0.0
C3188 C 0.55034 0.34919 0.98248 0.0
C3189 C 0.55363 0.32658 0.95604 0.0
C3190 C 0.5518 0.37271 0.95772 0.0
C3191 C 0.55652 0.37442 0.90543 0.0
C3192 C 0.56019 0.35175 0.87933 0.0
C3193 C 0.5588 0.32812 0.9044 0.0
C3194 C 0.55079 0.42457 0.79973 0.0
C3195 C 0.55401 0.44723 0.82616 0.0
C3196 C 0.55209 0.40112 0.8248 0.0
C3197 C 0.55658 0.39949 0.87741 0.0
C3198 C 0.56017 0.4222 0.90357 0.0
C3199 C 0.55895 0.4458 0.87816 0.0
loop_
_geom_bond_atom_site_label_1
_geom_bond_atom_site_label_2
_geom_bond_distance
_geom_bond_site_symmetry_2
_ccdc_geom_bond_type
Gd0 C3 2.818 . S
Gd0 O20 2.377 . S
Gd0 O22 2.448 . S
Gd0 O23 2.506 . S
Gd0 O24 2.435 . S
Gd0 O25 2.717 . S
Gd0 O27 2.395 . S
Gd0 O31 2.327 . S
Gd1 C12 2.818 . S
Gd1 O21 2.395 . S
Gd1 O25 2.327 . S
Gd1 O26 2.377 . S
Gd1 O28 2.448 . S
Gd1 O29 2.506 . S
Gd1 O30 2.435 . S
Gd1 O31 2.717 . S
C2 O20 1.240 . S
C2 O21 1.240 . S
C3 Gd0 2.818 . S
C3 C4 1.510 . S
C3 O22 1.249 . S
C3 O23 1.252 . S
C4 C3 1.510 . S
C4 C5 1.404 1_554 S
C4 C6 1.352 1_554 S
C5 C4 1.404 1_556 S
C5 C9 1.389 . S
C5 H32 0.930 . S
C6 C4 1.352 1_556 S
C6 C8 1.374 . S
C6 H33 0.931 . S
C7 C8 1.359 . S
C7 C9 1.364 . S
C8 C6 1.374 . S
C8 C7 1.359 . S
C8 H34 0.931 . S
C9 C5 1.389 . S
C9 C7 1.364 . S
C9 H35 0.931 . S
C10 O24 1.256 . S
C10 O25 1.257 . S
C11 O26 1.240 . S
C11 O27 1.240 . S
C12 Gd1 2.818 . S
C12 C13 1.510 . S
C12 O28 1.249 . S
C12 O29 1.252 . S
C13 C12 1.510 . S
C13 C14 1.404 . S
C13 C15 1.352 . S
C14 C13 1.404 . S
C14 C18 1.389 . S
C14 H36 0.930 . S
C15 C13 1.352 . S
C15 C17 1.374 . S
C15 H37 0.931 . S
C16 C17 1.359 . S
C16 C18 1.364 . S
C17 C15 1.374 . S
C17 C16 1.359 . S
C17 H38 0.931 . S
C18 C14 1.389 . S
C18 C16 1.364 . S
C18 H39 0.931 . S
C19 O30 1.256 . S
C19 O31 1.257 . S
O20 Gd0 2.377 . S
O20 C2 1.240 . S
O21 Gd1 2.395 . S
O21 C2 1.240 . S
O22 Gd0 2.448 . S
O22 C3 1.249 . S
O23 Gd0 2.506 . S
O23 C3 1.252 . S
O24 Gd0 2.435 . S
O24 C10 1.256 . S
O25 Gd0 2.717 . S
O25 Gd1 2.327 . S
O25 C10 1.257 . S
O26 Gd1 2.377 . S
O26 C11 1.240 . S
O27 Gd0 2.395 . S
O27 C11 1.240 . S
O28 Gd1 2.448 . S
O28 C12 1.249 . S
O29 Gd1 2.506 . S
O29 C12 1.252 . S
O30 Gd1 2.435 . S
O30 C19 1.256 . S
O31 Gd0 2.327 . S
O31 Gd1 2.717 . S
O31 C19 1.257 . S
H32 C5 0.930 . S
H33 C6 0.931 . S
H34 C8 0.931 . S
H35 C9 0.931 . S
H36 C14 0.930 . S
H37 C15 0.931 . S
H38 C17 0.931 . S
H39 C18 0.931 . S
Gd40 C43 2.818 . S
Gd40 O60 2.377 . S
Gd40 O62 2.448 . S
Gd40 O63 2.506 1_565 S
Gd40 O64 2.435 . S
Gd40 O65 2.717 . S
Gd40 O67 2.395 . S
Gd40 O71 2.327 1_565 S
Gd41 C52 2.818 . S
Gd41 O61 2.395 . S
Gd41 O65 2.327 1_545 S
Gd41 O66 2.377 . S
Gd41 O68 2.448 . S
Gd41 O69 2.506 1_545 S
Gd41 O70 2.435 . S
Gd41 O71 2.717 . S
C42 O60 1.240 . S
C42 O61 1.240 1_565 S
C43 Gd40 2.818 . S
C43 C44 1.527 . S
C43 O62 1.249 . S
C43 O63 1.252 1_565 S
C44 C43 1.527 . S
C44 C45 1.397 1_554 S
C44 C46 1.343 1_564 S
C45 C44 1.397 1_556 S
C45 C49 1.389 . S
C45 H72 0.930 . S
C46 C44 1.343 1_546 S
C46 C48 1.371 1_545 S
C46 H73 0.931 . S
C47 C48 1.387 . S
C47 C49 1.364 . S
C48 C46 1.371 1_565 S
C48 C47 1.387 . S
C48 H74 0.906 1_565 S
C49 C45 1.389 . S
C49 C47 1.364 . S
C49 H75 0.931 . S
C50 O64 1.256 . S
C50 O65 1.257 . S
C51 O66 1.240 . S
C51 O67 1.240 1_545 S
C52 Gd41 2.818 . S
C52 C53 1.510 . S
C52 O68 1.249 . S
C52 O69 1.252 1_545 S
C53 C52 1.510 . S
C53 C54 1.404 . S
C53 C55 1.352 1_545 S
C54 C53 1.404 . S
C54 C58 1.389 . S
C54 H76 0.930 . S
C55 C53 1.352 1_565 S
C55 C57 1.372 1_565 S
C55 H77 0.931 . S
C56 C57 1.377 . S
C56 C58 1.364 . S
C57 C55 1.372 1_545 S
C57 C56 1.377 . S
C57 H78 0.915 1_545 S
C58 C54 1.389 . S
C58 C56 1.364 . S
C58 H79 0.931 . S
C59 O70 1.256 . S
C59 O71 1.257 . S
O60 Gd40 2.377 . S
O60 C42 1.240 . S
O61 Gd41 2.395 . S
O61 C42 1.240 1_545 S
O62 Gd40 2.448 . S
O62 C43 1.249 . S
O63 Gd40 2.506 1_545 S
O63 C43 1.252 1_545 S
O64 Gd40 2.435 . S
O64 C50 1.256 . S
O65 Gd40 2.717 . S
O65 Gd41 2.327 1_565 S
O65 C50 1.257 . S
O66 Gd41 2.377 . S
O66 C51 1.240 . S
O67 Gd40 2.395 . S
O67 C51 1.240 1_565 S
O68 Gd41 2.448 . S
O68 C52 1.249 . S
O69 Gd41 2.506 1_565 S
O69 C52 1.252 1_565 S
O70 Gd41 2.435 . S
O70 C59 1.256 . S
O71 Gd40 2.327 1_545 S
O71 Gd41 2.717 . S
O71 C59 1.257 . S
H72 C45 0.930 . S
H73 C46 0.931 . S
H74 C48 0.906 1_545 S
H75 C49 0.931 . S
H76 C54 0.930 . S
H77 C55 0.931 . S
H78 C57 0.915 1_565 S
H79 C58 0.931 . S
Gd80 C83 2.818 . S
Gd80 O100 2.377 . S
Gd80 O102 2.448 . S
Gd80 O103 2.506 1_565 S
Gd80 O104 2.435 . S
Gd80 O105 2.722 . S
Gd80 O107 2.395 . S
Gd80 O111 2.327 1_565 S
Gd81 C92 2.818 . S
Gd81 O101 2.395 1_556 S
Gd81 O105 2.325 1_546 S
Gd81 O106 2.377 . S
Gd81 O108 2.448 . S
Gd81 O109 2.506 1_545 S
Gd81 O110 2.435 1_556 S
Gd81 O111 2.717 1_556 S
C82 O100 1.240 . S
C82 O101 1.240 1_565 S
C83 Gd80 2.818 . S
C83 C84 1.510 . S
C83 O102 1.249 . S
C83 O103 1.252 1_565 S
C84 C83 1.510 . S
C84 C85 1.404 . S
C84 C86 1.352 1_565 S
C85 C84 1.404 . S
C85 C89 1.389 . S
C85 H112 0.930 . S
C86 C84 1.352 1_545 S
C86 C88 1.371 1_545 S
C86 H113 0.931 . S
C87 C88 1.387 . S
C87 C89 1.364 . S
C88 C86 1.371 1_565 S
C88 C87 1.387 . S
C88 H114 0.906 1_565 S
C89 C85 1.389 . S
C89 C87 1.364 . S
C89 H115 0.931 . S
C90 O104 1.256 . S
C90 O105 1.259 . S
C91 O106 1.240 . S
C91 O107 1.240 1_546 S
C92 Gd81 2.818 . S
C92 C93 1.510 . S
C92 O108 1.249 . S
C92 O109 1.252 1_545 S
C93 C92 1.510 . S
C93 C94 1.404 . S
C93 C95 1.352 1_545 S
C94 C93 1.404 . S
C94 C98 1.389 . S
C94 H116 0.930 . S
C95 C93 1.352 1_565 S
C95 C97 1.372 1_565 S
C95 H117 0.931 . S
C96 C97 1.377 . S
C96 C98 1.364 . S
C97 C95 1.372 1_545 S
C97 C96 1.377 . S
C97 H118 0.915 1_545 S
C98 C94 1.389 . S
C98 C96 1.364 . S
C98 H119 0.931 . S
C99 O110 1.256 . S
C99 O111 1.257 . S
O100 Gd80 2.377 . S
O100 C82 1.240 . S
O101 Gd81 2.395 1_554 S
O101 C82 1.240 1_545 S
O102 Gd80 2.448 . S
O102 C83 1.249 . S
O103 Gd80 2.506 1_545 S
O103 C83 1.252 1_545 S
O104 Gd80 2.435 . S
O104 C90 1.256 . S
O105 Gd80 2.722 . S
O105 Gd81 2.325 1_564 S
O105 C90 1.259 . S
O106 Gd81 2.377 . S
O106 C91 1.240 . S
O107 Gd80 2.395 . S
O107 C91 1.240 1_564 S
O108 Gd81 2.448 . S
O108 C92 1.249 . S
O109 Gd81 2.506 1_565 S
O109 C92 1.252 1_565 S
O110 Gd81 2.435 1_554 S
O110 C99 1.256 . S
O111 Gd80 2.327 1_545 S
O111 Gd81 2.717 1_554 S
O111 C99 1.257 . S
H112 C85 0.930 . S
H113 C86 0.931 . S
H114 C88 0.906 1_545 S
H115 C89 0.931 . S
H116 C94 0.930 . S
H117 C95 0.931 . S
H118 C97 0.915 1_565 S
H119 C98 0.931 . S
Gd120 C123 2.818 . S
Gd120 O140 2.377 . S
Gd120 O142 2.448 . S
Gd120 O143 2.506 . S
Gd120 O144 2.435 . S
Gd120 O145 2.716 1_554 S
Gd120 O147 2.395 . S
Gd120 O151 2.327 . S
Gd121 C132 2.818 . S
Gd121 O141 2.395 1_556 S
Gd121 O145 2.328 . S
Gd121 O146 2.377 . S
Gd121 O148 2.448 . S
Gd121 O149 2.506 . S
Gd121 O150 2.435 1_556 S
Gd121 O151 2.717 1_556 S
C122 O140 1.240 . S
C122 O141 1.240 . S
C123 Gd120 2.818 . S
C123 C124 1.510 . S
C123 O142 1.249 . S
C123 O143 1.252 . S
C124 C123 1.510 . S
C124 C125 1.404 . S
C124 C126 1.352 . S
C125 C124 1.404 . S
C125 C129 1.389 . S
C125 H152 0.930 . S
C126 C124 1.352 . S
C126 C128 1.374 . S
C126 H153 0.931 . S
C127 C128 1.359 . S
C127 C129 1.364 . S
C128 C126 1.374 . S
C128 C127 1.359 . S
C128 H154 0.931 . S
C129 C125 1.389 . S
C129 C127 1.364 . S
C129 H155 0.931 . S
C130 O144 1.256 . S
C130 O145 1.257 1_554 S
C131 O146 1.240 . S
C131 O147 1.240 1_556 S
C132 Gd121 2.818 . S
C132 C133 1.510 . S
C132 O148 1.249 . S
C132 O149 1.252 . S
C133 C132 1.510 . S
C133 C134 1.404 . S
C133 C135 1.352 . S
C134 C133 1.404 . S
C134 C138 1.389 . S
C134 H156 0.930 . S
C135 C133 1.352 . S
C135 C137 1.374 . S
C135 H157 0.931 . S
C136 C137 1.359 . S
C136 C138 1.364 . S
C137 C135 1.374 . S
C137 C136 1.359 . S
C137 H158 0.931 . S
C138 C134 1.389 . S
C138 C136 1.364 . S
C138 H159 0.931 . S
C139 O150 1.256 . S
C139 O151 1.257 . S
O140 Gd120 2.377 . S
O140 C122 1.240 . S
O141 Gd121 2.395 1_554 S
O141 C122 1.240 . S
O142 Gd120 2.448 . S
O142 C123 1.249 . S
O143 Gd120 2.506 . S
O143 C123 1.252 . S
O144 Gd120 2.435 . S
O144 C130 1.256 . S
O145 Gd120 2.716 1_556 S
O145 Gd121 2.328 . S
O145 C130 1.257 1_556 S
O146 Gd121 2.377 . S
O146 C131 1.240 . S
O147 Gd120 2.395 . S
O147 C131 1.240 1_554 S
O148 Gd121 2.448 . S
O148 C132 1.249 . S
O149 Gd121 2.506 . S
O149 C132 1.252 . S
O150 Gd121 2.435 1_554 S
O150 C139 1.256 . S
O151 Gd120 2.327 . S
O151 Gd121 2.717 1_554 S
O151 C139 1.257 . S
H152 C125 0.930 . S
H153 C126 0.931 . S
H154 C128 0.931 . S
H155 C129 0.931 . S
H156 C134 0.930 . S
H157 C135 0.931 . S
H158 C137 0.931 . S
H159 C138 0.931 . S
Gd160 C163 2.818 . S
Gd160 O180 2.377 . S
Gd160 O182 2.448 . S
Gd160 O183 2.506 . S
Gd160 O184 2.435 . S
Gd160 O185 2.717 . S
Gd160 O187 2.395 . S
Gd160 O191 2.327 . S
Gd161 C172 2.818 . S
Gd161 O181 2.395 . S
Gd161 O185 2.327 . S
Gd161 O186 2.377 . S
Gd161 O188 2.448 . S
Gd161 O189 2.506 . S
Gd161 O190 2.435 . S
Gd161 O191 2.717 . S
C162 O180 1.240 . S
C162 O181 1.240 . S
C163 Gd160 2.818 . S
C163 C164 1.510 . S
C163 O182 1.249 . S
C163 O183 1.252 . S
C164 C163 1.510 . S
C164 C165 1.404 . S
C164 C166 1.352 . S
C165 C164 1.404 . S
C165 C169 1.389 . S
C165 H192 0.930 . S
C166 C164 1.352 . S
C166 C168 1.374 . S
C166 H193 0.931 . S
C167 C168 1.359 . S
C167 C169 1.364 . S
C168 C166 1.374 . S
C168 C167 1.359 . S
C168 H194 0.931 . S
C169 C165 1.389 . S
C169 C167 1.364 . S
C169 H195 0.931 . S
C170 O184 1.256 . S
C170 O185 1.257 . S
C171 O186 1.240 . S
C171 O187 1.240 . S
C172 Gd161 2.818 . S
C172 C173 1.510 . S
C172 O188 1.249 . S
C172 O189 1.252 . S
C173 C172 1.510 . S
C173 C174 1.404 1_556 S
C173 C175 1.352 1_556 S
C174 C173 1.404 1_554 S
C174 C178 1.389 . S
C174 H196 0.930 . S
C175 C173 1.352 1_554 S
C175 C177 1.374 . S
C175 H197 0.931 . S
C176 C177 1.359 . S
C176 C178 1.364 . S
C177 C175 1.374 . S
C177 C176 1.359 . S
C177 H198 0.931 . S
C178 C174 1.389 . S
C178 C176 1.364 . S
C178 H199 0.931 . S
C179 O190 1.256 . S
C179 O191 1.257 . S
O180 Gd160 2.377 . S
O180 C162 1.240 . S
O181 Gd161 2.395 . S
O181 C162 1.240 . S
O182 Gd160 2.448 . S
O182 C163 1.249 . S
O183 Gd160 2.506 . S
O183 C163 1.252 . S
O184 Gd160 2.435 . S
O184 C170 1.256 . S
O185 Gd160 2.717 . S
O185 Gd161 2.327 . S
O185 C170 1.257 . S
O186 Gd161 2.377 . S
O186 C171 1.240 . S
O187 Gd160 2.395 . S
O187 C171 1.240 . S
O188 Gd161 2.448 . S
O188 C172 1.249 . S
O189 Gd161 2.506 . S
O189 C172 1.252 . S
O190 Gd161 2.435 . S
O190 C179 1.256 . S
O191 Gd160 2.327 . S
O191 Gd161 2.717 . S
O191 C179 1.257 . S
H192 C165 0.930 . S
H193 C166 0.931 . S
H194 C168 0.931 . S
H195 C169 0.931 . S
H196 C174 0.930 . S
H197 C175 0.931 . S
H198 C177 0.931 . S
H199 C178 0.931 . S
Gd200 C203 2.818 . S
Gd200 O220 2.377 . S
Gd200 O222 2.448 . S
Gd200 O223 2.506 1_565 S
Gd200 O224 2.435 . S
Gd200 O225 2.717 . S
Gd200 O227 2.395 . S
Gd200 O231 2.327 1_565 S
Gd201 C212 2.818 . S
Gd201 O221 2.395 . S
Gd201 O225 2.327 1_545 S
Gd201 O226 2.377 . S
Gd201 O228 2.448 . S
Gd201 O229 2.506 1_545 S
Gd201 O230 2.435 . S
Gd201 O231 2.717 . S
C202 O220 1.240 . S
C202 O221 1.240 1_565 S
C203 Gd200 2.818 . S
C203 C204 1.510 . S
C203 O222 1.249 . S
C203 O223 1.252 1_565 S
C204 C203 1.510 . S
C204 C205 1.404 . S
C204 C206 1.352 1_565 S
C205 C204 1.404 . S
C205 C209 1.389 . S
C205 H232 0.930 . S
C206 C204 1.352 1_545 S
C206 C208 1.372 1_545 S
C206 H233 0.931 . S
C207 C208 1.377 . S
C207 C209 1.364 . S
C208 C206 1.372 1_565 S
C208 C207 1.377 . S
C208 H234 0.915 1_565 S
C209 C205 1.389 . S
C209 C207 1.364 . S
C209 H235 0.931 . S
C210 O224 1.256 . S
C210 O225 1.257 . S
C211 O226 1.240 . S
C211 O227 1.240 1_545 S
C212 Gd201 2.818 . S
C212 C213 1.527 . S
C212 O228 1.249 . S
C212 O229 1.252 1_545 S
C213 C212 1.527 . S
C213 C214 1.397 1_556 S
C213 C215 1.343 1_546 S
C214 C213 1.397 1_554 S
C214 C218 1.389 . S
C214 H236 0.930 . S
C215 C213 1.343 1_564 S
C215 C217 1.371 1_565 S
C215 H237 0.931 . S
C216 C217 1.387 . S
C216 C218 1.364 . S
C217 C215 1.371 1_545 S
C217 C216 1.387 . S
C217 H238 0.906 1_545 S
C218 C214 1.389 . S
C218 C216 1.364 . S
C218 H239 0.931 . S
C219 O230 1.256 . S
C219 O231 1.257 . S
O220 Gd200 2.377 . S
O220 C202 1.240 . S
O221 Gd201 2.395 . S
O221 C202 1.240 1_545 S
O222 Gd200 2.448 . S
O222 C203 1.249 . S
O223 Gd200 2.506 1_545 S
O223 C203 1.252 1_545 S
O224 Gd200 2.435 . S
O224 C210 1.256 . S
O225 Gd200 2.717 . S
O225 Gd201 2.327 1_565 S
O225 C210 1.257 . S
O226 Gd201 2.377 . S
O226 C211 1.240 . S
O227 Gd200 2.395 . S
O227 C211 1.240 1_565 S
O228 Gd201 2.448 . S
O228 C212 1.249 . S
O229 Gd201 2.506 1_565 S
O229 C212 1.252 1_565 S
O230 Gd201 2.435 . S
O230 C219 1.256 . S
O231 Gd200 2.327 1_545 S
O231 Gd201 2.717 . S
O231 C219 1.257 . S
H232 C205 0.930 . S
H233 C206 0.931 . S
H234 C208 0.915 1_545 S
H235 C209 0.931 . S
H236 C214 0.930 . S
H237 C215 0.931 . S
H238 C217 0.906 1_565 S
H239 C218 0.931 . S
Gd240 C243 2.818 . S
Gd240 O260 2.377 . S
Gd240 O262 2.448 . S
Gd240 O263 2.506 1_565 S
Gd240 O264 2.435 1_554 S
Gd240 O265 2.717 1_554 S
Gd240 O267 2.395 1_554 S
Gd240 O271 2.325 1_564 S
Gd241 C252 2.818 . S
Gd241 O261 2.395 . S
Gd241 O265 2.327 1_545 S
Gd241 O266 2.377 . S
Gd241 O268 2.448 . S
Gd241 O269 2.506 1_545 S
Gd241 O270 2.435 . S
Gd241 O271 2.722 . S
C242 O260 1.240 . S
C242 O261 1.240 1_564 S
C243 Gd240 2.818 . S
C243 C244 1.510 . S
C243 O262 1.249 . S
C243 O263 1.252 1_565 S
C244 C243 1.510 . S
C244 C245 1.404 . S
C244 C246 1.352 1_565 S
C245 C244 1.404 . S
C245 C249 1.389 . S
C245 H272 0.930 . S
C246 C244 1.352 1_545 S
C246 C248 1.372 1_545 S
C246 H273 0.931 . S
C247 C248 1.377 . S
C247 C249 1.364 . S
C248 C246 1.372 1_565 S
C248 C247 1.377 . S
C248 H274 0.915 1_565 S
C249 C245 1.389 . S
C249 C247 1.364 . S
C249 H275 0.931 . S
C250 O264 1.256 . S
C250 O265 1.257 . S
C251 O266 1.240 . S
C251 O267 1.240 1_545 S
C252 Gd241 2.818 . S
C252 C253 1.510 . S
C252 O268 1.249 . S
C252 O269 1.252 1_545 S
C253 C252 1.510 . S
C253 C254 1.404 . S
C253 C255 1.352 1_545 S
C254 C253 1.404 . S
C254 C258 1.389 . S
C254 H276 0.930 . S
C255 C253 1.352 1_565 S
C255 C257 1.371 1_565 S
C255 H277 0.931 . S
C256 C257 1.387 . S
C256 C258 1.364 . S
C257 C255 1.371 1_545 S
C257 C256 1.387 . S
C257 H278 0.906 1_545 S
C258 C254 1.389 . S
C258 C256 1.364 . S
C258 H279 0.931 . S
C259 O270 1.256 . S
C259 O271 1.259 . S
O260 Gd240 2.377 . S
O260 C242 1.240 . S
O261 Gd241 2.395 . S
O261 C242 1.240 1_546 S
O262 Gd240 2.448 . S
O262 C243 1.249 . S
O263 Gd240 2.506 1_545 S
O263 C243 1.252 1_545 S
O264 Gd240 2.435 1_556 S
O264 C250 1.256 . S
O265 Gd240 2.717 1_556 S
O265 Gd241 2.327 1_565 S
O265 C250 1.257 . S
O266 Gd241 2.377 . S
O266 C251 1.240 . S
O267 Gd240 2.395 1_556 S
O267 C251 1.240 1_565 S
O268 Gd241 2.448 . S
O268 C252 1.249 . S
O269 Gd241 2.506 1_565 S
O269 C252 1.252 1_565 S
O270 Gd241 2.435 . S
O270 C259 1.256 . S
O271 Gd240 2.325 1_546 S
O271 Gd241 2.722 . S
O271 C259 1.259 . S
H272 C245 0.930 . S
H273 C246 0.931 . S
H274 C248 0.915 1_545 S
H275 C249 0.931 . S
H276 C254 0.930 . S
H277 C255 0.931 . S
H278 C257 0.906 1_565 S
H279 C258 0.931 . S
Gd280 C283 2.818 . S
Gd280 O300 2.377 . S
Gd280 O302 2.448 . S
Gd280 O303 2.506 . S
Gd280 O304 2.435 1_554 S
Gd280 O305 2.717 1_554 S
Gd280 O307 2.395 1_554 S
Gd280 O311 2.328 . S
Gd281 C292 2.818 . S
Gd281 O301 2.395 . S
Gd281 O305 2.327 . S
Gd281 O306 2.377 . S
Gd281 O308 2.448 . S
Gd281 O309 2.506 . S
Gd281 O310 2.435 . S
Gd281 O311 2.716 1_556 S
C282 O300 1.240 . S
C282 O301 1.240 1_554 S
C283 Gd280 2.818 . S
C283 C284 1.510 . S
C283 O302 1.249 . S
C283 O303 1.252 . S
C284 C283 1.510 . S
C284 C285 1.404 . S
C284 C286 1.352 . S
C285 C284 1.404 . S
C285 C289 1.389 . S
C285 H312 0.930 . S
C286 C284 1.352 . S
C286 C288 1.374 . S
C286 H313 0.931 . S
C287 C288 1.359 . S
C287 C289 1.364 . S
C288 C286 1.374 . S
C288 C287 1.359 . S
C288 H314 0.931 . S
C289 C285 1.389 . S
C289 C287 1.364 . S
C289 H315 0.931 . S
C290 O304 1.256 . S
C290 O305 1.257 . S
C291 O306 1.240 . S
C291 O307 1.240 . S
C292 Gd281 2.818 . S
C292 C293 1.510 . S
C292 O308 1.249 . S
C292 O309 1.252 . S
C293 C292 1.510 . S
C293 C294 1.404 . S
C293 C295 1.352 . S
C294 C293 1.404 . S
C294 C298 1.389 . S
C294 H316 0.930 . S
C295 C293 1.352 . S
C295 C297 1.374 . S
C295 H317 0.931 . S
C296 C297 1.359 . S
C296 C298 1.364 . S
C297 C295 1.374 . S
C297 C296 1.359 . S
C297 H318 0.931 . S
C298 C294 1.389 . S
C298 C296 1.364 . S
C298 H319 0.931 . S
C299 O310 1.256 . S
C299 O311 1.257 1_556 S
O300 Gd280 2.377 . S
O300 C282 1.240 . S
O301 Gd281 2.395 . S
O301 C282 1.240 1_556 S
O302 Gd280 2.448 . S
O302 C283 1.249 . S
O303 Gd280 2.506 . S
O303 C283 1.252 . S
O304 Gd280 2.435 1_556 S
O304 C290 1.256 . S
O305 Gd280 2.717 1_556 S
O305 Gd281 2.327 . S
O305 C290 1.257 . S
O306 Gd281 2.377 . S
O306 C291 1.240 . S
O307 Gd280 2.395 1_556 S
O307 C291 1.240 . S
O308 Gd281 2.448 . S
O308 C292 1.249 . S
O309 Gd281 2.506 . S
O309 C292 1.252 . S
O310 Gd281 2.435 . S
O310 C299 1.256 . S
O311 Gd280 2.328 . S
O311 Gd281 2.716 1_554 S
O311 C299 1.257 1_554 S
H312 C285 0.930 . S
H313 C286 0.931 . S
H314 C288 0.931 . S
H315 C289 0.931 . S
H316 C294 0.930 . S
H317 C295 0.931 . S
H318 C297 0.931 . S
H319 C298 0.931 . S
Gd320 C323 2.818 . S
Gd320 O340 2.377 . S
Gd320 O342 2.448 . S
Gd320 O343 2.506 . S
Gd320 O344 2.435 . S
Gd320 O345 2.717 . S
Gd320 O347 2.395 . S
Gd320 O351 2.327 . S
Gd321 C332 2.818 . S
Gd321 O341 2.395 . S
Gd321 O345 2.327 . S
Gd321 O346 2.377 . S
Gd321 O348 2.448 . S
Gd321 O349 2.506 . S
Gd321 O350 2.435 . S
Gd321 O351 2.717 . S
C322 O340 1.240 . S
C322 O341 1.240 . S
C323 Gd320 2.818 . S
C323 C324 1.510 . S
C323 O342 1.249 . S
C323 O343 1.252 . S
C324 C323 1.510 . S
C324 C325 1.404 . S
C324 C326 1.352 . S
C325 C324 1.404 . S
C325 C329 1.389 . S
C325 H352 0.930 . S
C326 C324 1.352 . S
C326 C328 1.374 . S
C326 H353 0.931 . S
C327 C328 1.359 . S
C327 C329 1.364 . S
C328 C326 1.374 . S
C328 C327 1.359 . S
C328 H354 0.931 . S
C329 C325 1.389 . S
C329 C327 1.364 . S
C329 H355 0.931 . S
C330 O344 1.256 . S
C330 O345 1.257 . S
C331 O346 1.240 . S
C331 O347 1.240 . S
C332 Gd321 2.818 . S
C332 C333 1.510 . S
C332 O348 1.249 . S
C332 O349 1.252 . S
C333 C332 1.510 . S
C333 C334 1.404 . S
C333 C335 1.352 . S
C334 C333 1.404 . S
C334 C338 1.389 1_556 S
C334 H356 0.930 . S
C335 C333 1.352 . S
C335 C337 1.374 1_556 S
C335 H357 0.931 . S
C336 C337 1.359 . S
C336 C338 1.364 . S
C337 C335 1.374 1_554 S
C337 C336 1.359 . S
C337 H358 0.931 . S
C338 C334 1.389 1_554 S
C338 C336 1.364 . S
C338 H359 0.931 . S
C339 O350 1.256 . S
C339 O351 1.257 . S
O340 Gd320 2.377 . S
O340 C322 1.240 . S
O341 Gd321 2.395 . S
O341 C322 1.240 . S
O342 Gd320 2.448 . S
O342 C323 1.249 . S
O343 Gd320 2.506 . S
O343 C323 1.252 . S
O344 Gd320 2.435 . S
O344 C330 1.256 . S
O345 Gd320 2.717 . S
O345 Gd321 2.327 . S
O345 C330 1.257 . S
O346 Gd321 2.377 . S
O346 C331 1.240 . S
O347 Gd320 2.395 . S
O347 C331 1.240 . S
O348 Gd321 2.448 . S
O348 C332 1.249 . S
O349 Gd321 2.506 . S
O349 C332 1.252 . S
O350 Gd321 2.435 . S
O350 C339 1.256 . S
O351 Gd320 2.327 . S
O351 Gd321 2.717 . S
O351 C339 1.257 . S
H352 C325 0.930 . S
H353 C326 0.931 . S
H354 C328 0.931 . S
H355 C329 0.931 . S
H356 C334 0.930 . S
H357 C335 0.931 . S
H358 C337 0.931 . S
H359 C338 0.931 . S
Gd360 C363 2.818 . S
Gd360 O380 2.377 . S
Gd360 O382 2.448 . S
Gd360 O383 2.506 . S
Gd360 O384 2.435 . S
Gd360 O385 2.717 . S
Gd360 O387 2.395 . S
Gd360 O391 2.327 . S
Gd361 C372 2.818 . S
Gd361 O381 2.395 . S
Gd361 O385 2.327 . S
Gd361 O386 2.377 . S
Gd361 O388 2.448 . S
Gd361 O389 2.506 . S
Gd361 O390 2.435 . S
Gd361 O391 2.717 . S
C362 O380 1.240 . S
C362 O381 1.240 . S
C363 Gd360 2.818 . S
C363 C364 1.510 . S
C363 O382 1.249 . S
C363 O383 1.252 . S
C364 C363 1.510 . S
C364 C365 1.404 . S
C364 C366 1.352 . S
C365 C364 1.404 . S
C365 C369 1.389 . S
C365 H392 0.930 . S
C366 C364 1.352 . S
C366 C368 1.374 . S
C366 H393 0.931 . S
C367 C368 1.359 . S
C367 C369 1.364 . S
C368 C366 1.374 . S
C368 C367 1.359 . S
C368 H394 0.931 . S
C369 C365 1.389 . S
C369 C367 1.364 . S
C369 H395 0.931 . S
C370 O384 1.256 . S
C370 O385 1.257 . S
C371 O386 1.240 . S
C371 O387 1.240 . S
C372 Gd361 2.818 . S
C372 C373 1.510 . S
C372 O388 1.249 . S
C372 O389 1.252 . S
C373 C372 1.510 . S
C373 C374 1.404 . S
C373 C375 1.352 . S
C374 C373 1.404 . S
C374 C378 1.389 1_556 S
C374 H396 0.930 . S
C375 C373 1.352 . S
C375 C377 1.374 1_556 S
C375 H397 0.931 . S
C376 C377 1.359 . S
C376 C378 1.364 . S
C377 C375 1.374 1_554 S
C377 C376 1.359 . S
C377 H398 0.931 . S
C378 C374 1.389 1_554 S
C378 C376 1.364 . S
C378 H399 0.931 . S
C379 O390 1.256 . S
C379 O391 1.257 . S
O380 Gd360 2.377 . S
O380 C362 1.240 . S
O381 Gd361 2.395 . S
O381 C362 1.240 . S
O382 Gd360 2.448 . S
O382 C363 1.249 . S
O383 Gd360 2.506 . S
O383 C363 1.252 . S
O384 Gd360 2.435 . S
O384 C370 1.256 . S
O385 Gd360 2.717 . S
O385 Gd361 2.327 . S
O385 C370 1.257 . S
O386 Gd361 2.377 . S
O386 C371 1.240 . S
O387 Gd360 2.395 . S
O387 C371 1.240 . S
O388 Gd361 2.448 . S
O388 C372 1.249 . S
O389 Gd361 2.506 . S
O389 C372 1.252 . S
O390 Gd361 2.435 . S
O390 C379 1.256 . S
O391 Gd360 2.327 . S
O391 Gd361 2.717 . S
O391 C379 1.257 . S
H392 C365 0.930 . S
H393 C366 0.931 . S
H394 C368 0.931 . S
H395 C369 0.931 . S
H396 C374 0.930 . S
H397 C375 0.931 . S
H398 C377 0.931 . S
H399 C378 0.931 . S
Gd400 C403 2.818 . S
Gd400 O420 2.377 . S
Gd400 O422 2.448 . S
Gd400 O423 2.506 . S
Gd400 O424 2.435 . S
Gd400 O425 2.717 . S
Gd400 O427 2.395 . S
Gd400 O431 2.327 . S
Gd401 C412 2.818 . S
Gd401 O421 2.395 . S
Gd401 O425 2.327 . S
Gd401 O426 2.377 . S
Gd401 O428 2.448 . S
Gd401 O429 2.506 . S
Gd401 O430 2.435 . S
Gd401 O431 2.717 . S
C402 O420 1.240 . S
C402 O421 1.240 . S
C403 Gd400 2.818 . S
C403 C404 1.510 . S
C403 O422 1.249 . S
C403 O423 1.252 . S
C404 C403 1.510 . S
C404 C405 1.404 . S
C404 C406 1.352 . S
C405 C404 1.404 . S
C405 C409 1.389 . S
C405 H432 0.930 . S
C406 C404 1.352 . S
C406 C408 1.374 . S
C406 H433 0.931 . S
C407 C408 1.359 . S
C407 C409 1.364 . S
C408 C406 1.374 . S
C408 C407 1.359 . S
C408 H434 0.931 . S
C409 C405 1.389 . S
C409 C407 1.364 . S
C409 H435 0.931 . S
C410 O424 1.256 . S
C410 O425 1.257 . S
C411 O426 1.240 . S
C411 O427 1.240 . S
C412 Gd401 2.818 . S
C412 C413 1.510 . S
C412 O428 1.249 . S
C412 O429 1.252 . S
C413 C412 1.510 . S
C413 C414 1.404 . S
C413 C415 1.352 . S
C414 C413 1.404 . S
C414 C418 1.389 . S
C414 H436 0.930 . S
C415 C413 1.352 . S
C415 C417 1.374 . S
C415 H437 0.931 . S
C416 C417 1.359 . S
C416 C418 1.364 . S
C417 C415 1.374 . S
C417 C416 1.359 . S
C417 H438 0.931 . S
C418 C414 1.389 . S
C418 C416 1.364 . S
C418 H439 0.931 . S
C419 O430 1.256 . S
C419 O431 1.257 . S
O420 Gd400 2.377 . S
O420 C402 1.240 . S
O421 Gd401 2.395 . S
O421 C402 1.240 . S
O422 Gd400 2.448 . S
O422 C403 1.249 . S
O423 Gd400 2.506 . S
O423 C403 1.252 . S
O424 Gd400 2.435 . S
O424 C410 1.256 . S
O425 Gd400 2.717 . S
O425 Gd401 2.327 . S
O425 C410 1.257 . S
O426 Gd401 2.377 . S
O426 C411 1.240 . S
O427 Gd400 2.395 . S
O427 C411 1.240 . S
O428 Gd401 2.448 . S
O428 C412 1.249 . S
O429 Gd401 2.506 . S
O429 C412 1.252 . S
O430 Gd401 2.435 . S
O430 C419 1.256 . S
O431 Gd400 2.327 . S
O431 Gd401 2.717 . S
O431 C419 1.257 . S
H432 C405 0.930 . S
H433 C406 0.931 . S
H434 C408 0.931 . S
H435 C409 0.931 . S
H436 C414 0.930 . S
H437 C415 0.931 . S
H438 C417 0.931 . S
H439 C418 0.931 . S
Gd440 C443 2.818 . S
Gd440 O460 2.377 . S
Gd440 O462 2.448 . S
Gd440 O463 2.506 . S
Gd440 O464 2.435 . S
Gd440 O465 2.717 . S
Gd440 O467 2.395 . S
Gd440 O471 2.327 . S
Gd441 C452 2.818 . S
Gd441 O461 2.395 . S
Gd441 O465 2.327 . S
Gd441 O466 2.377 . S
Gd441 O468 2.448 . S
Gd441 O469 2.506 . S
Gd441 O470 2.435 . S
Gd441 O471 2.717 . S
C442 O460 1.240 . S
C442 O461 1.240 . S
C443 Gd440 2.818 . S
C443 C444 1.510 . S
C443 O462 1.249 . S
C443 O463 1.252 . S
C444 C443 1.510 . S
C444 C445 1.404 . S
C444 C446 1.352 . S
C445 C444 1.404 . S
C445 C449 1.389 . S
C445 H472 0.930 . S
C446 C444 1.352 . S
C446 C448 1.374 . S
C446 H473 0.931 . S
C447 C448 1.359 . S
C447 C449 1.364 . S
C448 C446 1.374 . S
C448 C447 1.359 . S
C448 H474 0.931 . S
C449 C445 1.389 . S
C449 C447 1.364 . S
C449 H475 0.931 . S
C450 O464 1.256 . S
C450 O465 1.257 . S
C451 O466 1.240 . S
C451 O467 1.240 . S
C452 Gd441 2.818 . S
C452 C453 1.510 . S
C452 O468 1.249 . S
C452 O469 1.252 . S
C453 C452 1.510 . S
C453 C454 1.404 . S
C453 C455 1.352 . S
C454 C453 1.404 . S
C454 C458 1.389 . S
C454 H476 0.930 . S
C455 C453 1.352 . S
C455 C457 1.374 . S
C455 H477 0.931 . S
C456 C457 1.359 . S
C456 C458 1.364 . S
C457 C455 1.374 . S
C457 C456 1.359 . S
C457 H478 0.931 . S
C458 C454 1.389 . S
C458 C456 1.364 . S
C458 H479 0.931 . S
C459 O470 1.256 . S
C459 O471 1.257 . S
O460 Gd440 2.377 . S
O460 C442 1.240 . S
O461 Gd441 2.395 . S
O461 C442 1.240 . S
O462 Gd440 2.448 . S
O462 C443 1.249 . S
O463 Gd440 2.506 . S
O463 C443 1.252 . S
O464 Gd440 2.435 . S
O464 C450 1.256 . S
O465 Gd440 2.717 . S
O465 Gd441 2.327 . S
O465 C450 1.257 . S
O466 Gd441 2.377 . S
O466 C451 1.240 . S
O467 Gd440 2.395 . S
O467 C451 1.240 . S
O468 Gd441 2.448 . S
O468 C452 1.249 . S
O469 Gd441 2.506 . S
O469 C452 1.252 . S
O470 Gd441 2.435 . S
O470 C459 1.256 . S
O471 Gd440 2.327 . S
O471 Gd441 2.717 . S
O471 C459 1.257 . S
H472 C445 0.930 . S
H473 C446 0.931 . S
H474 C448 0.931 . S
H475 C449 0.931 . S
H476 C454 0.930 . S
H477 C455 0.931 . S
H478 C457 0.931 . S
H479 C458 0.931 . S
Gd480 C483 2.818 . S
Gd480 O500 2.377 . S
Gd480 O502 2.448 . S
Gd480 O503 2.506 . S
Gd480 O504 2.435 . S
Gd480 O505 2.717 . S
Gd480 O507 2.395 . S
Gd480 O511 2.327 . S
Gd481 C492 2.818 . S
Gd481 O501 2.395 . S
Gd481 O505 2.327 . S
Gd481 O506 2.377 . S
Gd481 O508 2.448 . S
Gd481 O509 2.506 . S
Gd481 O510 2.435 . S
Gd481 O511 2.717 . S
C482 O500 1.240 . S
C482 O501 1.240 . S
C483 Gd480 2.818 . S
C483 C484 1.510 . S
C483 O502 1.249 . S
C483 O503 1.252 . S
C484 C483 1.510 . S
C484 C485 1.404 . S
C484 C486 1.352 . S
C485 C484 1.404 . S
C485 C489 1.389 1_554 S
C485 H512 0.930 . S
C486 C484 1.352 . S
C486 C488 1.374 1_554 S
C486 H513 0.931 . S
C487 C488 1.359 . S
C487 C489 1.364 . S
C488 C486 1.374 1_556 S
C488 C487 1.359 . S
C488 H514 0.931 . S
C489 C485 1.389 1_556 S
C489 C487 1.364 . S
C489 H515 0.931 . S
C490 O504 1.256 . S
C490 O505 1.257 . S
C491 O506 1.240 . S
C491 O507 1.240 . S
C492 Gd481 2.818 . S
C492 C493 1.510 . S
C492 O508 1.249 . S
C492 O509 1.252 . S
C493 C492 1.510 . S
C493 C494 1.404 . S
C493 C495 1.352 . S
C494 C493 1.404 . S
C494 C498 1.389 . S
C494 H516 0.930 . S
C495 C493 1.352 . S
C495 C497 1.374 . S
C495 H517 0.931 . S
C496 C497 1.359 . S
C496 C498 1.364 . S
C497 C495 1.374 . S
C497 C496 1.359 . S
C497 H518 0.931 . S
C498 C494 1.389 . S
C498 C496 1.364 . S
C498 H519 0.931 . S
C499 O510 1.256 . S
C499 O511 1.257 . S
O500 Gd480 2.377 . S
O500 C482 1.240 . S
O501 Gd481 2.395 . S
O501 C482 1.240 . S
O502 Gd480 2.448 . S
O502 C483 1.249 . S
O503 Gd480 2.506 . S
O503 C483 1.252 . S
O504 Gd480 2.435 . S
O504 C490 1.256 . S
O505 Gd480 2.717 . S
O505 Gd481 2.327 . S
O505 C490 1.257 . S
O506 Gd481 2.377 . S
O506 C491 1.240 . S
O507 Gd480 2.395 . S
O507 C491 1.240 . S
O508 Gd481 2.448 . S
O508 C492 1.249 . S
O509 Gd481 2.506 . S
O509 C492 1.252 . S
O510 Gd481 2.435 . S
O510 C499 1.256 . S
O511 Gd480 2.327 . S
O511 Gd481 2.717 . S
O511 C499 1.257 . S
H512 C485 0.930 . S
H513 C486 0.931 . S
H514 C488 0.931 . S
H515 C489 0.931 . S
H516 C494 0.930 . S
H517 C495 0.931 . S
H518 C497 0.931 . S
H519 C498 0.931 . S
Gd520 C523 2.818 . S
Gd520 O540 2.377 . S
Gd520 O542 2.448 . S
Gd520 O543 2.506 . S
Gd520 O544 2.435 . S
Gd520 O545 2.717 . S
Gd520 O547 2.395 . S
Gd520 O551 2.327 . S
Gd521 C532 2.818 . S
Gd521 O541 2.395 . S
Gd521 O545 2.327 . S
Gd521 O546 2.377 . S
Gd521 O548 2.448 . S
Gd521 O549 2.506 . S
Gd521 O550 2.435 . S
Gd521 O551 2.717 . S
C522 O540 1.240 . S
C522 O541 1.240 . S
C523 Gd520 2.818 . S
C523 C524 1.510 . S
C523 O542 1.249 . S
C523 O543 1.252 . S
C524 C523 1.510 . S
C524 C525 1.404 . S
C524 C526 1.352 . S
C525 C524 1.404 . S
C525 C529 1.389 1_554 S
C525 H552 0.930 . S
C526 C524 1.352 . S
C526 C528 1.374 1_554 S
C526 H553 0.931 . S
C527 C528 1.359 . S
C527 C529 1.364 . S
C528 C526 1.374 1_556 S
C528 C527 1.359 . S
C528 H554 0.931 . S
C529 C525 1.389 1_556 S
C529 C527 1.364 . S
C529 H555 0.931 . S
C530 O544 1.256 . S
C530 O545 1.257 . S
C531 O546 1.240 . S
C531 O547 1.240 . S
C532 Gd521 2.818 . S
C532 C533 1.510 . S
C532 O548 1.249 . S
C532 O549 1.252 . S
C533 C532 1.510 . S
C533 C534 1.404 . S
C533 C535 1.352 . S
C534 C533 1.404 . S
C534 C538 1.389 . S
C534 H556 0.930 . S
C535 C533 1.352 . S
C535 C537 1.374 . S
C535 H557 0.931 . S
C536 C537 1.359 . S
C536 C538 1.364 . S
C537 C535 1.374 . S
C537 C536 1.359 . S
C537 H558 0.931 . S
C538 C534 1.389 . S
C538 C536 1.364 . S
C538 H559 0.931 . S
C539 O550 1.256 . S
C539 O551 1.257 . S
O540 Gd520 2.377 . S
O540 C522 1.240 . S
O541 Gd521 2.395 . S
O541 C522 1.240 . S
O542 Gd520 2.448 . S
O542 C523 1.249 . S
O543 Gd520 2.506 . S
O543 C523 1.252 . S
O544 Gd520 2.435 . S
O544 C530 1.256 . S
O545 Gd520 2.717 . S
O545 Gd521 2.327 . S
O545 C530 1.257 . S
O546 Gd521 2.377 . S
O546 C531 1.240 . S
O547 Gd520 2.395 . S
O547 C531 1.240 . S
O548 Gd521 2.448 . S
O548 C532 1.249 . S
O549 Gd521 2.506 . S
O549 C532 1.252 . S
O550 Gd521 2.435 . S
O550 C539 1.256 . S
O551 Gd520 2.327 . S
O551 Gd521 2.717 . S
O551 C539 1.257 . S
H552 C525 0.930 . S
H553 C526 0.931 . S
H554 C528 0.931 . S
H555 C529 0.931 . S
H556 C534 0.930 . S
H557 C535 0.931 . S
H558 C537 0.931 . S
H559 C538 0.931 . S
Gd560 C563 2.818 . S
Gd560 O580 2.377 . S
Gd560 O582 2.448 . S
Gd560 O583 2.506 . S
Gd560 O584 2.435 . S
Gd560 O585 2.717 . S
Gd560 O587 2.395 . S
Gd560 O591 2.327 . S
Gd561 C572 2.818 . S
Gd561 O581 2.395 . S
Gd561 O585 2.327 . S
Gd561 O586 2.377 . S
Gd561 O588 2.448 . S
Gd561 O589 2.506 . S
Gd561 O590 2.435 . S
Gd561 O591 2.717 . S
C562 O580 1.240 . S
C562 O581 1.240 . S
C563 Gd560 2.818 . S
C563 C564 1.510 . S
C563 O582 1.249 . S
C563 O583 1.252 . S
C564 C563 1.510 . S
C564 C565 1.404 . S
C564 C566 1.352 . S
C565 C564 1.404 . S
C565 C569 1.389 . S
C565 H592 0.930 . S
C566 C564 1.352 . S
C566 C568 1.374 . S
C566 H593 0.931 . S
C567 C568 1.359 . S
C567 C569 1.364 . S
C568 C566 1.374 . S
C568 C567 1.359 . S
C568 H594 0.931 . S
C569 C565 1.389 . S
C569 C567 1.364 . S
C569 H595 0.931 . S
C570 O584 1.256 . S
C570 O585 1.257 . S
C571 O586 1.240 . S
C571 O587 1.240 . S
C572 Gd561 2.818 . S
C572 C573 1.510 . S
C572 O588 1.249 . S
C572 O589 1.252 . S
C573 C572 1.510 . S
C573 C574 1.404 . S
C573 C575 1.352 . S
C574 C573 1.404 . S
C574 C578 1.389 . S
C574 H596 0.930 . S
C575 C573 1.352 . S
C575 C577 1.374 . S
C575 H597 0.931 . S
C576 C577 1.359 . S
C576 C578 1.364 . S
C577 C575 1.374 . S
C577 C576 1.359 . S
C577 H598 0.931 . S
C578 C574 1.389 . S
C578 C576 1.364 . S
C578 H599 0.931 . S
C579 O590 1.256 . S
C579 O591 1.257 . S
O580 Gd560 2.377 . S
O580 C562 1.240 . S
O581 Gd561 2.395 . S
O581 C562 1.240 . S
O582 Gd560 2.448 . S
O582 C563 1.249 . S
O583 Gd560 2.506 . S
O583 C563 1.252 . S
O584 Gd560 2.435 . S
O584 C570 1.256 . S
O585 Gd560 2.717 . S
O585 Gd561 2.327 . S
O585 C570 1.257 . S
O586 Gd561 2.377 . S
O586 C571 1.240 . S
O587 Gd560 2.395 . S
O587 C571 1.240 . S
O588 Gd561 2.448 . S
O588 C572 1.249 . S
O589 Gd561 2.506 . S
O589 C572 1.252 . S
O590 Gd561 2.435 . S
O590 C579 1.256 . S
O591 Gd560 2.327 . S
O591 Gd561 2.717 . S
O591 C579 1.257 . S
H592 C565 0.930 . S
H593 C566 0.931 . S
H594 C568 0.931 . S
H595 C569 0.931 . S
H596 C574 0.930 . S
H597 C575 0.931 . S
H598 C577 0.931 . S
H599 C578 0.931 . S
Gd600 C603 2.818 . S
Gd600 O620 2.377 . S
Gd600 O622 2.448 . S
Gd600 O623 2.506 . S
Gd600 O624 2.435 . S
Gd600 O625 2.717 . S
Gd600 O627 2.395 . S
Gd600 O631 2.327 . S
Gd601 C612 2.818 . S
Gd601 O621 2.395 . S
Gd601 O625 2.327 . S
Gd601 O626 2.377 . S
Gd601 O628 2.448 . S
Gd601 O629 2.506 . S
Gd601 O630 2.435 . S
Gd601 O631 2.717 . S
C602 O620 1.240 . S
C602 O621 1.240 . S
C603 Gd600 2.818 . S
C603 C604 1.510 . S
C603 O622 1.249 . S
C603 O623 1.252 . S
C604 C603 1.510 . S
C604 C605 1.404 . S
C604 C606 1.352 . S
C605 C604 1.404 . S
C605 C609 1.389 . S
C605 H632 0.930 . S
C606 C604 1.352 . S
C606 C608 1.374 . S
C606 H633 0.931 . S
C607 C608 1.359 . S
C607 C609 1.364 . S
C608 C606 1.374 . S
C608 C607 1.359 . S
C608 H634 0.931 . S
C609 C605 1.389 . S
C609 C607 1.364 . S
C609 H635 0.931 . S
C610 O624 1.256 . S
C610 O625 1.257 . S
C611 O626 1.240 . S
C611 O627 1.240 . S
C612 Gd601 2.818 . S
C612 C613 1.510 . S
C612 O628 1.249 . S
C612 O629 1.252 . S
C613 C612 1.510 . S
C613 C614 1.404 . S
C613 C615 1.352 . S
C614 C613 1.404 . S
C614 C618 1.389 . S
C614 H636 0.930 . S
C615 C613 1.352 . S
C615 C617 1.374 . S
C615 H637 0.931 . S
C616 C617 1.359 . S
C616 C618 1.364 . S
C617 C615 1.374 . S
C617 C616 1.359 . S
C617 H638 0.931 . S
C618 C614 1.389 . S
C618 C616 1.364 . S
C618 H639 0.931 . S
C619 O630 1.256 . S
C619 O631 1.257 . S
O620 Gd600 2.377 . S
O620 C602 1.240 . S
O621 Gd601 2.395 . S
O621 C602 1.240 . S
O622 Gd600 2.448 . S
O622 C603 1.249 . S
O623 Gd600 2.506 . S
O623 C603 1.252 . S
O624 Gd600 2.435 . S
O624 C610 1.256 . S
O625 Gd600 2.717 . S
O625 Gd601 2.327 . S
O625 C610 1.257 . S
O626 Gd601 2.377 . S
O626 C611 1.240 . S
O627 Gd600 2.395 . S
O627 C611 1.240 . S
O628 Gd601 2.448 . S
O628 C612 1.249 . S
O629 Gd601 2.506 . S
O629 C612 1.252 . S
O630 Gd601 2.435 . S
O630 C619 1.256 . S
O631 Gd600 2.327 . S
O631 Gd601 2.717 . S
O631 C619 1.257 . S
H632 C605 0.930 . S
H633 C606 0.931 . S
H634 C608 0.931 . S
H635 C609 0.931 . S
H636 C614 0.930 . S
H637 C615 0.931 . S
H638 C617 0.931 . S
H639 C618 0.931 . S
Gd640 C643 2.818 . S
Gd640 O660 2.377 . S
Gd640 O662 2.448 . S
Gd640 O663 2.506 . S
Gd640 O664 2.435 . S
Gd640 O665 2.717 . S
Gd640 O667 2.395 . S
Gd640 O671 2.327 . S
Gd641 C652 2.818 . S
Gd641 O661 2.395 . S
Gd641 O665 2.327 . S
Gd641 O666 2.377 . S
Gd641 O668 2.448 . S
Gd641 O669 2.506 . S
Gd641 O670 2.435 . S
Gd641 O671 2.717 . S
C642 O660 1.240 . S
C642 O661 1.240 . S
C643 Gd640 2.818 . S
C643 C644 1.510 . S
C643 O662 1.249 . S
C643 O663 1.252 . S
C644 C643 1.510 . S
C644 C645 1.404 . S
C644 C646 1.352 . S
C645 C644 1.404 . S
C645 C649 1.389 . S
C645 H672 0.930 . S
C646 C644 1.352 . S
C646 C648 1.374 . S
C646 H673 0.931 . S
C647 C648 1.359 . S
C647 C649 1.364 . S
C648 C646 1.374 . S
C648 C647 1.359 . S
C648 H674 0.931 . S
C649 C645 1.389 . S
C649 C647 1.364 . S
C649 H675 0.931 . S
C650 O664 1.256 . S
C650 O665 1.257 . S
C651 O666 1.240 . S
C651 O667 1.240 . S
C652 Gd641 2.818 . S
C652 C653 1.510 . S
C652 O668 1.249 . S
C652 O669 1.252 . S
C653 C652 1.510 . S
C653 C654 1.404 . S
C653 C655 1.352 . S
C654 C653 1.404 . S
C654 C658 1.389 1_556 S
C654 H676 0.930 . S
C655 C653 1.352 . S
C655 C657 1.374 1_556 S
C655 H677 0.931 . S
C656 C657 1.359 . S
C656 C658 1.364 . S
C657 C655 1.374 1_554 S
C657 C656 1.359 . S
C657 H678 0.931 . S
C658 C654 1.389 1_554 S
C658 C656 1.364 . S
C658 H679 0.931 . S
C659 O670 1.256 . S
C659 O671 1.257 . S
O660 Gd640 2.377 . S
O660 C642 1.240 . S
O661 Gd641 2.395 . S
O661 C642 1.240 . S
O662 Gd640 2.448 . S
O662 C643 1.249 . S
O663 Gd640 2.506 . S
O663 C643 1.252 . S
O664 Gd640 2.435 . S
O664 C650 1.256 . S
O665 Gd640 2.717 . S
O665 Gd641 2.327 . S
O665 C650 1.257 . S
O666 Gd641 2.377 . S
O666 C651 1.240 . S
O667 Gd640 2.395 . S
O667 C651 1.240 . S
O668 Gd641 2.448 . S
O668 C652 1.249 . S
O669 Gd641 2.506 . S
O669 C652 1.252 . S
O670 Gd641 2.435 . S
O670 C659 1.256 . S
O671 Gd640 2.327 . S
O671 Gd641 2.717 . S
O671 C659 1.257 . S
H672 C645 0.930 . S
H673 C646 0.931 . S
H674 C648 0.931 . S
H675 C649 0.931 . S
H676 C654 0.930 . S
H677 C655 0.931 . S
H678 C657 0.931 . S
H679 C658 0.931 . S
Gd680 C683 2.818 . S
Gd680 O700 2.377 . S
Gd680 O702 2.448 . S
Gd680 O703 2.506 1_565 S
Gd680 O704 2.435 . S
Gd680 O705 2.717 . S
Gd680 O707 2.395 . S
Gd680 O711 2.327 1_565 S
Gd681 C692 2.818 . S
Gd681 O701 2.395 . S
Gd681 O705 2.327 1_545 S
Gd681 O706 2.377 . S
Gd681 O708 2.448 . S
Gd681 O709 2.506 1_545 S
Gd681 O710 2.435 . S
Gd681 O711 2.717 . S
C682 O700 1.240 . S
C682 O701 1.240 1_565 S
C683 Gd680 2.818 . S
C683 C684 1.510 . S
C683 O702 1.249 . S
C683 O703 1.252 1_565 S
C684 C683 1.510 . S
C684 C685 1.404 . S
C684 C686 1.352 1_565 S
C685 C684 1.404 . S
C685 C689 1.389 . S
C685 H712 0.930 . S
C686 C684 1.352 1_545 S
C686 C688 1.371 1_545 S
C686 H713 0.931 . S
C687 C688 1.387 . S
C687 C689 1.364 . S
C688 C686 1.371 1_565 S
C688 C687 1.387 . S
C688 H714 0.906 1_565 S
C689 C685 1.389 . S
C689 C687 1.364 . S
C689 H715 0.931 . S
C690 O704 1.256 . S
C690 O705 1.257 . S
C691 O706 1.240 . S
C691 O707 1.240 1_545 S
C692 Gd681 2.818 . S
C692 C693 1.510 . S
C692 O708 1.249 . S
C692 O709 1.252 1_545 S
C693 C692 1.510 . S
C693 C694 1.404 . S
C693 C695 1.352 1_545 S
C694 C693 1.404 . S
C694 C698 1.389 1_556 S
C694 H716 0.930 . S
C695 C693 1.352 1_565 S
C695 C697 1.372 1_566 S
C695 H717 0.931 . S
C696 C697 1.377 . S
C696 C698 1.364 . S
C697 C695 1.372 1_544 S
C697 C696 1.377 . S
C697 H718 0.915 1_545 S
C698 C694 1.389 1_554 S
C698 C696 1.364 . S
C698 H719 0.931 . S
C699 O710 1.256 . S
C699 O711 1.257 . S
O700 Gd680 2.377 . S
O700 C682 1.240 . S
O701 Gd681 2.395 . S
O701 C682 1.240 1_545 S
O702 Gd680 2.448 . S
O702 C683 1.249 . S
O703 Gd680 2.506 1_545 S
O703 C683 1.252 1_545 S
O704 Gd680 2.435 . S
O704 C690 1.256 . S
O705 Gd680 2.717 . S
O705 Gd681 2.327 1_565 S
O705 C690 1.257 . S
O706 Gd681 2.377 . S
O706 C691 1.240 . S
O707 Gd680 2.395 . S
O707 C691 1.240 1_565 S
O708 Gd681 2.448 . S
O708 C692 1.249 . S
O709 Gd681 2.506 1_565 S
O709 C692 1.252 1_565 S
O710 Gd681 2.435 . S
O710 C699 1.256 . S
O711 Gd680 2.327 1_545 S
O711 Gd681 2.717 . S
O711 C699 1.257 . S
H712 C685 0.930 . S
H713 C686 0.931 . S
H714 C688 0.906 1_545 S
H715 C689 0.931 . S
H716 C694 0.930 . S
H717 C695 0.931 . S
H718 C697 0.915 1_565 S
H719 C698 0.931 . S
Gd720 C723 2.818 . S
Gd720 O740 2.377 . S
Gd720 O742 2.448 . S
Gd720 O743 2.506 1_565 S
Gd720 O744 2.435 . S
Gd720 O745 2.717 . S
Gd720 O747 2.395 . S
Gd720 O751 2.327 1_565 S
Gd721 C732 2.818 . S
Gd721 O741 2.395 . S
Gd721 O745 2.327 1_545 S
Gd721 O746 2.377 . S
Gd721 O748 2.448 . S
Gd721 O749 2.506 1_545 S
Gd721 O750 2.435 . S
Gd721 O751 2.717 . S
C722 O740 1.240 . S
C722 O741 1.240 1_565 S
C723 Gd720 2.818 . S
C723 C724 1.510 . S
C723 O742 1.249 . S
C723 O743 1.252 1_565 S
C724 C723 1.510 . S
C724 C725 1.404 . S
C724 C726 1.352 1_565 S
C725 C724 1.404 . S
C725 C729 1.389 . S
C725 H752 0.930 . S
C726 C724 1.352 1_545 S
C726 C728 1.371 1_545 S
C726 H753 0.931 . S
C727 C728 1.387 . S
C727 C729 1.364 . S
C728 C726 1.371 1_565 S
C728 C727 1.387 . S
C728 H754 0.906 1_565 S
C729 C725 1.389 . S
C729 C727 1.364 . S
C729 H755 0.931 . S
C730 O744 1.256 . S
C730 O745 1.257 . S
C731 O746 1.240 . S
C731 O747 1.240 1_545 S
C732 Gd721 2.818 . S
C732 C733 1.510 . S
C732 O748 1.249 . S
C732 O749 1.252 1_545 S
C733 C732 1.510 . S
C733 C734 1.404 . S
C733 C735 1.352 1_545 S
C734 C733 1.404 . S
C734 C738 1.389 . S
C734 H756 0.930 . S
C735 C733 1.352 1_565 S
C735 C737 1.372 1_565 S
C735 H757 0.931 . S
C736 C737 1.377 . S
C736 C738 1.364 . S
C737 C735 1.372 1_545 S
C737 C736 1.377 . S
C737 H758 0.915 1_545 S
C738 C734 1.389 . S
C738 C736 1.364 . S
C738 H759 0.931 . S
C739 O750 1.256 . S
C739 O751 1.257 . S
O740 Gd720 2.377 . S
O740 C722 1.240 . S
O741 Gd721 2.395 . S
O741 C722 1.240 1_545 S
O742 Gd720 2.448 . S
O742 C723 1.249 . S
O743 Gd720 2.506 1_545 S
O743 C723 1.252 1_545 S
O744 Gd720 2.435 . S
O744 C730 1.256 . S
O745 Gd720 2.717 . S
O745 Gd721 2.327 1_565 S
O745 C730 1.257 . S
O746 Gd721 2.377 . S
O746 C731 1.240 . S
O747 Gd720 2.395 . S
O747 C731 1.240 1_565 S
O748 Gd721 2.448 . S
O748 C732 1.249 . S
O749 Gd721 2.506 1_565 S
O749 C732 1.252 1_565 S
O750 Gd721 2.435 . S
O750 C739 1.256 . S
O751 Gd720 2.327 1_545 S
O751 Gd721 2.717 . S
O751 C739 1.257 . S
H752 C725 0.930 . S
H753 C726 0.931 . S
H754 C728 0.906 1_545 S
H755 C729 0.931 . S
H756 C734 0.930 . S
H757 C735 0.931 . S
H758 C737 0.915 1_565 S
H759 C738 0.931 . S
Gd760 C763 2.818 . S
Gd760 O780 2.377 . S
Gd760 O782 2.448 . S
Gd760 O783 2.506 . S
Gd760 O784 2.435 . S
Gd760 O785 2.717 . S
Gd760 O787 2.395 . S
Gd760 O791 2.327 . S
Gd761 C772 2.818 . S
Gd761 O781 2.395 . S
Gd761 O785 2.327 . S
Gd761 O786 2.377 . S
Gd761 O788 2.448 . S
Gd761 O789 2.506 . S
Gd761 O790 2.435 . S
Gd761 O791 2.717 . S
C762 O780 1.240 . S
C762 O781 1.240 . S
C763 Gd760 2.818 . S
C763 C764 1.510 . S
C763 O782 1.249 . S
C763 O783 1.252 . S
C764 C763 1.510 . S
C764 C765 1.404 . S
C764 C766 1.352 . S
C765 C764 1.404 . S
C765 C769 1.389 . S
C765 H792 0.930 . S
C766 C764 1.352 . S
C766 C768 1.374 . S
C766 H793 0.931 . S
C767 C768 1.359 . S
C767 C769 1.364 . S
C768 C766 1.374 . S
C768 C767 1.359 . S
C768 H794 0.931 . S
C769 C765 1.389 . S
C769 C767 1.364 . S
C769 H795 0.931 . S
C770 O784 1.256 . S
C770 O785 1.257 . S
C771 O786 1.240 . S
C771 O787 1.240 . S
C772 Gd761 2.818 . S
C772 C773 1.510 . S
C772 O788 1.249 . S
C772 O789 1.252 . S
C773 C772 1.510 . S
C773 C774 1.404 . S
C773 C775 1.352 . S
C774 C773 1.404 . S
C774 C778 1.389 . S
C774 H796 0.930 . S
C775 C773 1.352 . S
C775 C777 1.374 . S
C775 H797 0.931 . S
C776 C777 1.359 . S
C776 C778 1.364 . S
C777 C775 1.374 . S
C777 C776 1.359 . S
C777 H798 0.931 . S
C778 C774 1.389 . S
C778 C776 1.364 . S
C778 H799 0.931 . S
C779 O790 1.256 . S
C779 O791 1.257 . S
O780 Gd760 2.377 . S
O780 C762 1.240 . S
O781 Gd761 2.395 . S
O781 C762 1.240 . S
O782 Gd760 2.448 . S
O782 C763 1.249 . S
O783 Gd760 2.506 . S
O783 C763 1.252 . S
O784 Gd760 2.435 . S
O784 C770 1.256 . S
O785 Gd760 2.717 . S
O785 Gd761 2.327 . S
O785 C770 1.257 . S
O786 Gd761 2.377 . S
O786 C771 1.240 . S
O787 Gd760 2.395 . S
O787 C771 1.240 . S
O788 Gd761 2.448 . S
O788 C772 1.249 . S
O789 Gd761 2.506 . S
O789 C772 1.252 . S
O790 Gd761 2.435 . S
O790 C779 1.256 . S
O791 Gd760 2.327 . S
O791 Gd761 2.717 . S
O791 C779 1.257 . S
H792 C765 0.930 . S
H793 C766 0.931 . S
H794 C768 0.931 . S
H795 C769 0.931 . S
H796 C774 0.930 . S
H797 C775 0.931 . S
H798 C777 0.931 . S
H799 C778 0.931 . S
Gd800 C803 2.818 . S
Gd800 O820 2.377 . S
Gd800 O822 2.448 . S
Gd800 O823 2.506 . S
Gd800 O824 2.435 . S
Gd800 O825 2.717 . S
Gd800 O827 2.395 . S
Gd800 O831 2.327 . S
Gd801 C812 2.818 . S
Gd801 O821 2.395 . S
Gd801 O825 2.327 . S
Gd801 O826 2.377 . S
Gd801 O828 2.448 . S
Gd801 O829 2.506 . S
Gd801 O830 2.435 . S
Gd801 O831 2.717 . S
C802 O820 1.240 . S
C802 O821 1.240 . S
C803 Gd800 2.818 . S
C803 C804 1.510 . S
C803 O822 1.249 . S
C803 O823 1.252 . S
C804 C803 1.510 . S
C804 C805 1.404 . S
C804 C806 1.352 . S
C805 C804 1.404 . S
C805 C809 1.389 1_554 S
C805 H832 0.930 . S
C806 C804 1.352 . S
C806 C808 1.374 1_554 S
C806 H833 0.931 . S
C807 C808 1.359 . S
C807 C809 1.364 . S
C808 C806 1.374 1_556 S
C808 C807 1.359 . S
C808 H834 0.931 . S
C809 C805 1.389 1_556 S
C809 C807 1.364 . S
C809 H835 0.931 . S
C810 O824 1.256 . S
C810 O825 1.257 . S
C811 O826 1.240 . S
C811 O827 1.240 . S
C812 Gd801 2.818 . S
C812 C813 1.510 . S
C812 O828 1.249 . S
C812 O829 1.252 . S
C813 C812 1.510 . S
C813 C814 1.404 . S
C813 C815 1.352 . S
C814 C813 1.404 . S
C814 C818 1.389 . S
C814 H836 0.930 . S
C815 C813 1.352 . S
C815 C817 1.374 . S
C815 H837 0.931 . S
C816 C817 1.359 . S
C816 C818 1.364 . S
C817 C815 1.374 . S
C817 C816 1.359 . S
C817 H838 0.931 . S
C818 C814 1.389 . S
C818 C816 1.364 . S
C818 H839 0.931 . S
C819 O830 1.256 . S
C819 O831 1.257 . S
O820 Gd800 2.377 . S
O820 C802 1.240 . S
O821 Gd801 2.395 . S
O821 C802 1.240 . S
O822 Gd800 2.448 . S
O822 C803 1.249 . S
O823 Gd800 2.506 . S
O823 C803 1.252 . S
O824 Gd800 2.435 . S
O824 C810 1.256 . S
O825 Gd800 2.717 . S
O825 Gd801 2.327 . S
O825 C810 1.257 . S
O826 Gd801 2.377 . S
O826 C811 1.240 . S
O827 Gd800 2.395 . S
O827 C811 1.240 . S
O828 Gd801 2.448 . S
O828 C812 1.249 . S
O829 Gd801 2.506 . S
O829 C812 1.252 . S
O830 Gd801 2.435 . S
O830 C819 1.256 . S
O831 Gd800 2.327 . S
O831 Gd801 2.717 . S
O831 C819 1.257 . S
H832 C805 0.930 . S
H833 C806 0.931 . S
H834 C808 0.931 . S
H835 C809 0.931 . S
H836 C814 0.930 . S
H837 C815 0.931 . S
H838 C817 0.931 . S
H839 C818 0.931 . S
Gd840 C843 2.818 . S
Gd840 O860 2.377 . S
Gd840 O862 2.448 . S
Gd840 O863 2.506 1_565 S
Gd840 O864 2.435 . S
Gd840 O865 2.717 . S
Gd840 O867 2.395 . S
Gd840 O871 2.327 1_565 S
Gd841 C852 2.818 . S
Gd841 O861 2.395 . S
Gd841 O865 2.327 1_545 S
Gd841 O866 2.377 . S
Gd841 O868 2.448 . S
Gd841 O869 2.506 1_545 S
Gd841 O870 2.435 . S
Gd841 O871 2.717 . S
C842 O860 1.240 . S
C842 O861 1.240 1_565 S
C843 Gd840 2.818 . S
C843 C844 1.510 . S
C843 O862 1.249 . S
C843 O863 1.252 1_565 S
C844 C843 1.510 . S
C844 C845 1.404 . S
C844 C846 1.352 1_565 S
C845 C844 1.404 . S
C845 C849 1.389 1_554 S
C845 H872 0.930 . S
C846 C844 1.352 1_545 S
C846 C848 1.372 1_544 S
C846 H873 0.931 . S
C847 C848 1.377 . S
C847 C849 1.364 . S
C848 C846 1.372 1_566 S
C848 C847 1.377 . S
C848 H874 0.915 1_565 S
C849 C845 1.389 1_556 S
C849 C847 1.364 . S
C849 H875 0.931 . S
C850 O864 1.256 . S
C850 O865 1.257 . S
C851 O866 1.240 . S
C851 O867 1.240 1_545 S
C852 Gd841 2.818 . S
C852 C853 1.510 . S
C852 O868 1.249 . S
C852 O869 1.252 1_545 S
C853 C852 1.510 . S
C853 C854 1.404 . S
C853 C855 1.352 1_545 S
C854 C853 1.404 . S
C854 C858 1.389 . S
C854 H876 0.930 . S
C855 C853 1.352 1_565 S
C855 C857 1.371 1_565 S
C855 H877 0.931 . S
C856 C857 1.387 . S
C856 C858 1.364 . S
C857 C855 1.371 1_545 S
C857 C856 1.387 . S
C857 H878 0.906 1_545 S
C858 C854 1.389 . S
C858 C856 1.364 . S
C858 H879 0.931 . S
C859 O870 1.256 . S
C859 O871 1.257 . S
O860 Gd840 2.377 . S
O860 C842 1.240 . S
O861 Gd841 2.395 . S
O861 C842 1.240 1_545 S
O862 Gd840 2.448 . S
O862 C843 1.249 . S
O863 Gd840 2.506 1_545 S
O863 C843 1.252 1_545 S
O864 Gd840 2.435 . S
O864 C850 1.256 . S
O865 Gd840 2.717 . S
O865 Gd841 2.327 1_565 S
O865 C850 1.257 . S
O866 Gd841 2.377 . S
O866 C851 1.240 . S
O867 Gd840 2.395 . S
O867 C851 1.240 1_565 S
O868 Gd841 2.448 . S
O868 C852 1.249 . S
O869 Gd841 2.506 1_565 S
O869 C852 1.252 1_565 S
O870 Gd841 2.435 . S
O870 C859 1.256 . S
O871 Gd840 2.327 1_545 S
O871 Gd841 2.717 . S
O871 C859 1.257 . S
H872 C845 0.930 . S
H873 C846 0.931 . S
H874 C848 0.915 1_545 S
H875 C849 0.931 . S
H876 C854 0.930 . S
H877 C855 0.931 . S
H878 C857 0.906 1_565 S
H879 C858 0.931 . S
Gd880 C883 2.818 . S
Gd880 O900 2.377 . S
Gd880 O902 2.448 . S
Gd880 O903 2.506 1_565 S
Gd880 O904 2.435 . S
Gd880 O905 2.717 . S
Gd880 O907 2.395 . S
Gd880 O911 2.327 1_565 S
Gd881 C892 2.818 . S
Gd881 O901 2.395 . S
Gd881 O905 2.327 1_545 S
Gd881 O906 2.377 . S
Gd881 O908 2.448 . S
Gd881 O909 2.506 1_545 S
Gd881 O910 2.435 . S
Gd881 O911 2.717 . S
C882 O900 1.240 . S
C882 O901 1.240 1_565 S
C883 Gd880 2.818 . S
C883 C884 1.510 . S
C883 O902 1.249 . S
C883 O903 1.252 1_565 S
C884 C883 1.510 . S
C884 C885 1.404 . S
C884 C886 1.352 1_565 S
C885 C884 1.404 . S
C885 C889 1.389 . S
C885 H912 0.930 . S
C886 C884 1.352 1_545 S
C886 C888 1.372 1_545 S
C886 H913 0.931 . S
C887 C888 1.377 . S
C887 C889 1.364 . S
C888 C886 1.372 1_565 S
C888 C887 1.377 . S
C888 H914 0.915 1_565 S
C889 C885 1.389 . S
C889 C887 1.364 . S
C889 H915 0.931 . S
C890 O904 1.256 . S
C890 O905 1.257 . S
C891 O906 1.240 . S
C891 O907 1.240 1_545 S
C892 Gd881 2.818 . S
C892 C893 1.510 . S
C892 O908 1.249 . S
C892 O909 1.252 1_545 S
C893 C892 1.510 . S
C893 C894 1.404 . S
C893 C895 1.352 1_545 S
C894 C893 1.404 . S
C894 C898 1.389 . S
C894 H916 0.930 . S
C895 C893 1.352 1_565 S
C895 C897 1.371 1_565 S
C895 H917 0.931 . S
C896 C897 1.387 . S
C896 C898 1.364 . S
C897 C895 1.371 1_545 S
C897 C896 1.387 . S
C897 H918 0.906 1_545 S
C898 C894 1.389 . S
C898 C896 1.364 . S
C898 H919 0.931 . S
C899 O910 1.256 . S
C899 O911 1.257 . S
O900 Gd880 2.377 . S
O900 C882 1.240 . S
O901 Gd881 2.395 . S
O901 C882 1.240 1_545 S
O902 Gd880 2.448 . S
O902 C883 1.249 . S
O903 Gd880 2.506 1_545 S
O903 C883 1.252 1_545 S
O904 Gd880 2.435 . S
O904 C890 1.256 . S
O905 Gd880 2.717 . S
O905 Gd881 2.327 1_565 S
O905 C890 1.257 . S
O906 Gd881 2.377 . S
O906 C891 1.240 . S
O907 Gd880 2.395 . S
O907 C891 1.240 1_565 S
O908 Gd881 2.448 . S
O908 C892 1.249 . S
O909 Gd881 2.506 1_565 S
O909 C892 1.252 1_565 S
O910 Gd881 2.435 . S
O910 C899 1.256 . S
O911 Gd880 2.327 1_545 S
O911 Gd881 2.717 . S
O911 C899 1.257 . S
H912 C885 0.930 . S
H913 C886 0.931 . S
H914 C888 0.915 1_545 S
H915 C889 0.931 . S
H916 C894 0.930 . S
H917 C895 0.931 . S
H918 C897 0.906 1_565 S
H919 C898 0.931 . S
Gd920 C923 2.818 . S
Gd920 O940 2.377 . S
Gd920 O942 2.448 . S
Gd920 O943 2.506 . S
Gd920 O944 2.435 . S
Gd920 O945 2.717 . S
Gd920 O947 2.395 . S
Gd920 O951 2.327 . S
Gd921 C932 2.818 . S
Gd921 O941 2.395 . S
Gd921 O945 2.327 . S
Gd921 O946 2.377 . S
Gd921 O948 2.448 . S
Gd921 O949 2.506 . S
Gd921 O950 2.435 . S
Gd921 O951 2.717 . S
C922 O940 1.240 . S
C922 O941 1.240 . S
C923 Gd920 2.818 . S
C923 C924 1.510 . S
C923 O942 1.249 . S
C923 O943 1.252 . S
C924 C923 1.510 . S
C924 C925 1.404 . S
C924 C926 1.352 . S
C925 C924 1.404 . S
C925 C929 1.389 . S
C925 H952 0.930 . S
C926 C924 1.352 . S
C926 C928 1.374 . S
C926 H953 0.931 . S
C927 C928 1.359 . S
C927 C929 1.364 . S
C928 C926 1.374 . S
C928 C927 1.359 . S
C928 H954 0.931 . S
C929 C925 1.389 . S
C929 C927 1.364 . S
C929 H955 0.931 . S
C930 O944 1.256 . S
C930 O945 1.257 . S
C931 O946 1.240 . S
C931 O947 1.240 . S
C932 Gd921 2.818 . S
C932 C933 1.510 . S
C932 O948 1.249 . S
C932 O949 1.252 . S
C933 C932 1.510 . S
C933 C934 1.404 . S
C933 C935 1.352 . S
C934 C933 1.404 . S
C934 C938 1.389 . S
C934 H956 0.930 . S
C935 C933 1.352 . S
C935 C937 1.374 . S
C935 H957 0.931 . S
C936 C937 1.359 . S
C936 C938 1.364 . S
C937 C935 1.374 . S
C937 C936 1.359 . S
C937 H958 0.931 . S
C938 C934 1.389 . S
C938 C936 1.364 . S
C938 H959 0.931 . S
C939 O950 1.256 . S
C939 O951 1.257 . S
O940 Gd920 2.377 . S
O940 C922 1.240 . S
O941 Gd921 2.395 . S
O941 C922 1.240 . S
O942 Gd920 2.448 . S
O942 C923 1.249 . S
O943 Gd920 2.506 . S
O943 C923 1.252 . S
O944 Gd920 2.435 . S
O944 C930 1.256 . S
O945 Gd920 2.717 . S
O945 Gd921 2.327 . S
O945 C930 1.257 . S
O946 Gd921 2.377 . S
O946 C931 1.240 . S
O947 Gd920 2.395 . S
O947 C931 1.240 . S
O948 Gd921 2.448 . S
O948 C932 1.249 . S
O949 Gd921 2.506 . S
O949 C932 1.252 . S
O950 Gd921 2.435 . S
O950 C939 1.256 . S
O951 Gd920 2.327 . S
O951 Gd921 2.717 . S
O951 C939 1.257 . S
H952 C925 0.930 . S
H953 C926 0.931 . S
H954 C928 0.931 . S
H955 C929 0.931 . S
H956 C934 0.930 . S
H957 C935 0.931 . S
H958 C937 0.931 . S
H959 C938 0.931 . S
Gd960 C963 2.818 . S
Gd960 O980 2.377 . S
Gd960 O982 2.448 . S
Gd960 O983 2.506 . S
Gd960 O984 2.435 . S
Gd960 O985 2.717 . S
Gd960 O987 2.395 . S
Gd960 O991 2.327 . S
Gd961 C972 2.818 . S
Gd961 O981 2.395 . S
Gd961 O985 2.327 . S
Gd961 O986 2.377 . S
Gd961 O988 2.448 . S
Gd961 O989 2.506 . S
Gd961 O990 2.435 . S
Gd961 O991 2.717 . S
C962 O980 1.240 . S
C962 O981 1.240 . S
C963 Gd960 2.818 . S
C963 C964 1.510 . S
C963 O982 1.249 . S
C963 O983 1.252 . S
C964 C963 1.510 . S
C964 C965 1.404 1_554 S
C964 C966 1.352 1_554 S
C965 C964 1.404 1_556 S
C965 C969 1.389 . S
C965 H992 0.930 . S
C966 C964 1.352 1_556 S
C966 C968 1.374 . S
C966 H993 0.931 . S
C967 C968 1.359 . S
C967 C969 1.364 . S
C968 C966 1.374 . S
C968 C967 1.359 . S
C968 H994 0.931 . S
C969 C965 1.389 . S
C969 C967 1.364 . S
C969 H995 0.931 . S
C970 O984 1.256 . S
C970 O985 1.257 . S
C971 O986 1.240 . S
C971 O987 1.240 . S
C972 Gd961 2.818 . S
C972 C973 1.510 . S
C972 O988 1.249 . S
C972 O989 1.252 . S
C973 C972 1.510 . S
C973 C974 1.404 . S
C973 C975 1.352 . S
C974 C973 1.404 . S
C974 C978 1.389 . S
C974 H996 0.930 . S
C975 C973 1.352 . S
C975 C977 1.374 . S
C975 H997 0.931 . S
C976 C977 1.359 . S
C976 C978 1.364 . S
C977 C975 1.374 . S
C977 C976 1.359 . S
C977 H998 0.931 . S
C978 C974 1.389 . S
C978 C976 1.364 . S
C978 H999 0.931 . S
C979 O990 1.256 . S
C979 O991 1.257 . S
O980 Gd960 2.377 . S
O980 C962 1.240 . S
O981 Gd961 2.395 . S
O981 C962 1.240 . S
O982 Gd960 2.448 . S
O982 C963 1.249 . S
O983 Gd960 2.506 . S
O983 C963 1.252 . S
O984 Gd960 2.435 . S
O984 C970 1.256 . S
O985 Gd960 2.717 . S
O985 Gd961 2.327 . S
O985 C970 1.257 . S
O986 Gd961 2.377 . S
O986 C971 1.240 . S
O987 Gd960 2.395 . S
O987 C971 1.240 . S
O988 Gd961 2.448 . S
O988 C972 1.249 . S
O989 Gd961 2.506 . S
O989 C972 1.252 . S
O990 Gd961 2.435 . S
O990 C979 1.256 . S
O991 Gd960 2.327 . S
O991 Gd961 2.717 . S
O991 C979 1.257 . S
H992 C965 0.930 . S
H993 C966 0.931 . S
H994 C968 0.931 . S
H995 C969 0.931 . S
H996 C974 0.930 . S
H997 C975 0.931 . S
H998 C977 0.931 . S
H999 C978 0.931 . S
Gd1000 C1003 2.818 . S
Gd1000 O1020 2.377 . S
Gd1000 O1022 2.448 . S
Gd1000 O1023 2.506 . S
Gd1000 O1024 2.435 . S
Gd1000 O1025 2.717 . S
Gd1000 O1027 2.395 . S
Gd1000 O1031 2.327 . S
Gd1001 C1012 2.818 . S
Gd1001 O1021 2.395 . S
Gd1001 O1025 2.327 . S
Gd1001 O1026 2.377 . S
Gd1001 O1028 2.448 . S
Gd1001 O1029 2.506 . S
Gd1001 O1030 2.435 . S
Gd1001 O1031 2.717 . S
C1002 O1020 1.240 . S
C1002 O1021 1.240 . S
C1003 Gd1000 2.818 . S
C1003 C1004 1.510 . S
C1003 O1022 1.249 . S
C1003 O1023 1.252 . S
C1004 C1003 1.510 . S
C1004 C1005 1.404 1_554 S
C1004 C1006 1.352 1_554 S
C1005 C1004 1.404 1_556 S
C1005 C1009 1.389 . S
C1005 H1032 0.930 . S
C1006 C1004 1.352 1_556 S
C1006 C1008 1.374 . S
C1006 H1033 0.931 . S
C1007 C1008 1.359 . S
C1007 C1009 1.364 . S
C1008 C1006 1.374 . S
C1008 C1007 1.359 . S
C1008 H1034 0.931 . S
C1009 C1005 1.389 . S
C1009 C1007 1.364 . S
C1009 H1035 0.931 . S
C1010 O1024 1.256 . S
C1010 O1025 1.257 . S
C1011 O1026 1.240 . S
C1011 O1027 1.240 . S
C1012 Gd1001 2.818 . S
C1012 C1013 1.510 . S
C1012 O1028 1.249 . S
C1012 O1029 1.252 . S
C1013 C1012 1.510 . S
C1013 C1014 1.404 . S
C1013 C1015 1.352 . S
C1014 C1013 1.404 . S
C1014 C1018 1.389 . S
C1014 H1036 0.930 . S
C1015 C1013 1.352 . S
C1015 C1017 1.374 . S
C1015 H1037 0.931 . S
C1016 C1017 1.359 . S
C1016 C1018 1.364 . S
C1017 C1015 1.374 . S
C1017 C1016 1.359 . S
C1017 H1038 0.931 . S
C1018 C1014 1.389 . S
C1018 C1016 1.364 . S
C1018 H1039 0.931 . S
C1019 O1030 1.256 . S
C1019 O1031 1.257 . S
O1020 Gd1000 2.377 . S
O1020 C1002 1.240 . S
O1021 Gd1001 2.395 . S
O1021 C1002 1.240 . S
O1022 Gd1000 2.448 . S
O1022 C1003 1.249 . S
O1023 Gd1000 2.506 . S
O1023 C1003 1.252 . S
O1024 Gd1000 2.435 . S
O1024 C1010 1.256 . S
O1025 Gd1000 2.717 . S
O1025 Gd1001 2.327 . S
O1025 C1010 1.257 . S
O1026 Gd1001 2.377 . S
O1026 C1011 1.240 . S
O1027 Gd1000 2.395 . S
O1027 C1011 1.240 . S
O1028 Gd1001 2.448 . S
O1028 C1012 1.249 . S
O1029 Gd1001 2.506 . S
O1029 C1012 1.252 . S
O1030 Gd1001 2.435 . S
O1030 C1019 1.256 . S
O1031 Gd1000 2.327 . S
O1031 Gd1001 2.717 . S
O1031 C1019 1.257 . S
H1032 C1005 0.930 . S
H1033 C1006 0.931 . S
H1034 C1008 0.931 . S
H1035 C1009 0.931 . S
H1036 C1014 0.930 . S
H1037 C1015 0.931 . S
H1038 C1017 0.931 . S
H1039 C1018 0.931 . S
Gd1040 C1043 2.818 . S
Gd1040 O1060 2.377 . S
Gd1040 O1062 2.448 . S
Gd1040 O1063 2.506 . S
Gd1040 O1064 2.435 . S
Gd1040 O1065 2.716 1_554 S
Gd1040 O1067 2.395 . S
Gd1040 O1071 2.327 . S
Gd1041 C1052 2.818 . S
Gd1041 O1061 2.395 1_556 S
Gd1041 O1065 2.328 . S
Gd1041 O1066 2.377 . S
Gd1041 O1068 2.448 . S
Gd1041 O1069 2.506 . S
Gd1041 O1070 2.435 1_556 S
Gd1041 O1071 2.717 1_556 S
C1042 O1060 1.240 . S
C1042 O1061 1.240 . S
C1043 Gd1040 2.818 . S
C1043 C1044 1.510 . S
C1043 O1062 1.249 . S
C1043 O1063 1.252 . S
C1044 C1043 1.510 . S
C1044 C1045 1.404 . S
C1044 C1046 1.352 . S
C1045 C1044 1.404 . S
C1045 C1049 1.389 . S
C1045 H1072 0.930 . S
C1046 C1044 1.352 . S
C1046 C1048 1.374 . S
C1046 H1073 0.931 . S
C1047 C1048 1.359 . S
C1047 C1049 1.364 . S
C1048 C1046 1.374 . S
C1048 C1047 1.359 . S
C1048 H1074 0.931 . S
C1049 C1045 1.389 . S
C1049 C1047 1.364 . S
C1049 H1075 0.931 . S
C1050 O1064 1.256 . S
C1050 O1065 1.257 1_554 S
C1051 O1066 1.240 . S
C1051 O1067 1.240 1_556 S
C1052 Gd1041 2.818 . S
C1052 C1053 1.510 . S
C1052 O1068 1.249 . S
C1052 O1069 1.252 . S
C1053 C1052 1.510 . S
C1053 C1054 1.404 . S
C1053 C1055 1.352 . S
C1054 C1053 1.404 . S
C1054 C1058 1.389 . S
C1054 H1076 0.930 . S
C1055 C1053 1.352 . S
C1055 C1057 1.374 . S
C1055 H1077 0.931 . S
C1056 C1057 1.359 . S
C1056 C1058 1.364 . S
C1057 C1055 1.374 . S
C1057 C1056 1.359 . S
C1057 H1078 0.931 . S
C1058 C1054 1.389 . S
C1058 C1056 1.364 . S
C1058 H1079 0.931 . S
C1059 O1070 1.256 . S
C1059 O1071 1.257 . S
O1060 Gd1040 2.377 . S
O1060 C1042 1.240 . S
O1061 Gd1041 2.395 1_554 S
O1061 C1042 1.240 . S
O1062 Gd1040 2.448 . S
O1062 C1043 1.249 . S
O1063 Gd1040 2.506 . S
O1063 C1043 1.252 . S
O1064 Gd1040 2.435 . S
O1064 C1050 1.256 . S
O1065 Gd1040 2.716 1_556 S
O1065 Gd1041 2.328 . S
O1065 C1050 1.257 1_556 S
O1066 Gd1041 2.377 . S
O1066 C1051 1.240 . S
O1067 Gd1040 2.395 . S
O1067 C1051 1.240 1_554 S
O1068 Gd1041 2.448 . S
O1068 C1052 1.249 . S
O1069 Gd1041 2.506 . S
O1069 C1052 1.252 . S
O1070 Gd1041 2.435 1_554 S
O1070 C1059 1.256 . S
O1071 Gd1040 2.327 . S
O1071 Gd1041 2.717 1_554 S
O1071 C1059 1.257 . S
H1072 C1045 0.930 . S
H1073 C1046 0.931 . S
H1074 C1048 0.931 . S
H1075 C1049 0.931 . S
H1076 C1054 0.930 . S
H1077 C1055 0.931 . S
H1078 C1057 0.931 . S
H1079 C1058 0.931 . S
Gd1080 C1083 2.818 . S
Gd1080 O1100 2.377 . S
Gd1080 O1102 2.448 . S
Gd1080 O1103 2.506 . S
Gd1080 O1104 2.435 . S
Gd1080 O1105 2.710 1_554 S
Gd1080 O1107 2.395 . S
Gd1080 O1111 2.327 . S
Gd1081 C1092 2.818 . S
Gd1081 O1101 2.395 1_556 S
Gd1081 O1105 2.330 . S
Gd1081 O1106 2.377 . S
Gd1081 O1108 2.448 . S
Gd1081 O1109 2.506 . S
Gd1081 O1110 2.435 1_556 S
Gd1081 O1111 2.717 1_556 S
C1082 O1100 1.240 . S
C1082 O1101 1.240 . S
C1083 Gd1080 2.818 . S
C1083 C1084 1.510 . S
C1083 O1102 1.249 . S
C1083 O1103 1.252 . S
C1084 C1083 1.510 . S
C1084 C1085 1.404 . S
C1084 C1086 1.352 . S
C1085 C1084 1.404 . S
C1085 C1089 1.389 . S
C1085 H1112 0.930 . S
C1086 C1084 1.352 . S
C1086 C1088 1.374 . S
C1086 H1113 0.931 . S
C1087 C1088 1.359 . S
C1087 C1089 1.364 . S
C1088 C1086 1.374 . S
C1088 C1087 1.359 . S
C1088 H1114 0.931 . S
C1089 C1085 1.389 . S
C1089 C1087 1.364 . S
C1089 H1115 0.931 . S
C1090 O1104 1.256 . S
C1090 O1105 1.255 1_554 S
C1091 O1106 1.240 . S
C1091 O1107 1.240 1_556 S
C1092 Gd1081 2.818 . S
C1092 C1093 1.510 . S
C1092 O1108 1.249 . S
C1092 O1109 1.252 . S
C1093 C1092 1.510 . S
C1093 C1094 1.404 . S
C1093 C1095 1.352 . S
C1094 C1093 1.404 . S
C1094 C1098 1.389 . S
C1094 H1116 0.930 . S
C1095 C1093 1.352 . S
C1095 C1097 1.374 . S
C1095 H1117 0.931 . S
C1096 C1097 1.359 . S
C1096 C1098 1.364 . S
C1097 C1095 1.374 . S
C1097 C1096 1.359 . S
C1097 H1118 0.931 . S
C1098 C1094 1.389 . S
C1098 C1096 1.364 . S
C1098 H1119 0.931 . S
C1099 O1110 1.256 . S
C1099 O1111 1.257 . S
O1100 Gd1080 2.377 . S
O1100 C1082 1.240 . S
O1101 Gd1081 2.395 1_554 S
O1101 C1082 1.240 . S
O1102 Gd1080 2.448 . S
O1102 C1083 1.249 . S
O1103 Gd1080 2.506 . S
O1103 C1083 1.252 . S
O1104 Gd1080 2.435 . S
O1104 C1090 1.256 . S
O1105 Gd1080 2.710 1_556 S
O1105 Gd1081 2.330 . S
O1105 C1090 1.255 1_556 S
O1106 Gd1081 2.377 . S
O1106 C1091 1.240 . S
O1107 Gd1080 2.395 . S
O1107 C1091 1.240 1_554 S
O1108 Gd1081 2.448 . S
O1108 C1092 1.249 . S
O1109 Gd1081 2.506 . S
O1109 C1092 1.252 . S
O1110 Gd1081 2.435 1_554 S
O1110 C1099 1.256 . S
O1111 Gd1080 2.327 . S
O1111 Gd1081 2.717 1_554 S
O1111 C1099 1.257 . S
H1112 C1085 0.930 . S
H1113 C1086 0.931 . S
H1114 C1088 0.931 . S
H1115 C1089 0.931 . S
H1116 C1094 0.930 . S
H1117 C1095 0.931 . S
H1118 C1097 0.931 . S
H1119 C1098 0.931 . S
Gd1120 C1123 2.818 . S
Gd1120 O1140 2.377 . S
Gd1120 O1142 2.448 . S
Gd1120 O1143 2.506 . S
Gd1120 O1144 2.435 . S
Gd1120 O1145 2.717 . S
Gd1120 O1147 2.395 . S
Gd1120 O1151 2.327 . S
Gd1121 C1132 2.818 . S
Gd1121 O1141 2.395 . S
Gd1121 O1145 2.327 . S
Gd1121 O1146 2.377 . S
Gd1121 O1148 2.448 . S
Gd1121 O1149 2.506 . S
Gd1121 O1150 2.435 . S
Gd1121 O1151 2.717 . S
C1122 O1140 1.240 . S
C1122 O1141 1.240 . S
C1123 Gd1120 2.818 . S
C1123 C1124 1.510 . S
C1123 O1142 1.249 . S
C1123 O1143 1.252 . S
C1124 C1123 1.510 . S
C1124 C1125 1.404 . S
C1124 C1126 1.352 . S
C1125 C1124 1.404 . S
C1125 C1129 1.389 . S
C1125 H1152 0.930 . S
C1126 C1124 1.352 . S
C1126 C1128 1.374 . S
C1126 H1153 0.931 . S
C1127 C1128 1.359 . S
C1127 C1129 1.364 . S
C1128 C1126 1.374 . S
C1128 C1127 1.359 . S
C1128 H1154 0.931 . S
C1129 C1125 1.389 . S
C1129 C1127 1.364 . S
C1129 H1155 0.931 . S
C1130 O1144 1.256 . S
C1130 O1145 1.257 . S
C1131 O1146 1.240 . S
C1131 O1147 1.240 . S
C1132 Gd1121 2.818 . S
C1132 C1133 1.510 . S
C1132 O1148 1.249 . S
C1132 O1149 1.252 . S
C1133 C1132 1.510 . S
C1133 C1134 1.404 1_556 S
C1133 C1135 1.352 1_556 S
C1134 C1133 1.404 1_554 S
C1134 C1138 1.389 . S
C1134 H1156 0.930 . S
C1135 C1133 1.352 1_554 S
C1135 C1137 1.374 . S
C1135 H1157 0.931 . S
C1136 C1137 1.359 . S
C1136 C1138 1.364 . S
C1137 C1135 1.374 . S
C1137 C1136 1.359 . S
C1137 H1158 0.931 . S
C1138 C1134 1.389 . S
C1138 C1136 1.364 . S
C1138 H1159 0.931 . S
C1139 O1150 1.256 . S
C1139 O1151 1.257 . S
O1140 Gd1120 2.377 . S
O1140 C1122 1.240 . S
O1141 Gd1121 2.395 . S
O1141 C1122 1.240 . S
O1142 Gd1120 2.448 . S
O1142 C1123 1.249 . S
O1143 Gd1120 2.506 . S
O1143 C1123 1.252 . S
O1144 Gd1120 2.435 . S
O1144 C1130 1.256 . S
O1145 Gd1120 2.717 . S
O1145 Gd1121 2.327 . S
O1145 C1130 1.257 . S
O1146 Gd1121 2.377 . S
O1146 C1131 1.240 . S
O1147 Gd1120 2.395 . S
O1147 C1131 1.240 . S
O1148 Gd1121 2.448 . S
O1148 C1132 1.249 . S
O1149 Gd1121 2.506 . S
O1149 C1132 1.252 . S
O1150 Gd1121 2.435 . S
O1150 C1139 1.256 . S
O1151 Gd1120 2.327 . S
O1151 Gd1121 2.717 . S
O1151 C1139 1.257 . S
H1152 C1125 0.930 . S
H1153 C1126 0.931 . S
H1154 C1128 0.931 . S
H1155 C1129 0.931 . S
H1156 C1134 0.930 . S
H1157 C1135 0.931 . S
H1158 C1137 0.931 . S
H1159 C1138 0.931 . S
Gd1160 C1163 2.818 . S
Gd1160 O1180 2.377 . S
Gd1160 O1182 2.448 . S
Gd1160 O1183 2.506 . S
Gd1160 O1184 2.435 . S
Gd1160 O1185 2.717 . S
Gd1160 O1187 2.395 . S
Gd1160 O1191 2.327 . S
Gd1161 C1172 2.818 . S
Gd1161 O1181 2.395 . S
Gd1161 O1185 2.327 . S
Gd1161 O1186 2.377 . S
Gd1161 O1188 2.448 . S
Gd1161 O1189 2.506 . S
Gd1161 O1190 2.435 . S
Gd1161 O1191 2.717 . S
C1162 O1180 1.240 . S
C1162 O1181 1.240 . S
C1163 Gd1160 2.818 . S
C1163 C1164 1.510 . S
C1163 O1182 1.249 . S
C1163 O1183 1.252 . S
C1164 C1163 1.510 . S
C1164 C1165 1.404 . S
C1164 C1166 1.352 . S
C1165 C1164 1.404 . S
C1165 C1169 1.389 . S
C1165 H1192 0.930 . S
C1166 C1164 1.352 . S
C1166 C1168 1.374 . S
C1166 H1193 0.931 . S
C1167 C1168 1.359 . S
C1167 C1169 1.364 . S
C1168 C1166 1.374 . S
C1168 C1167 1.359 . S
C1168 H1194 0.931 . S
C1169 C1165 1.389 . S
C1169 C1167 1.364 . S
C1169 H1195 0.931 . S
C1170 O1184 1.256 . S
C1170 O1185 1.257 . S
C1171 O1186 1.240 . S
C1171 O1187 1.240 . S
C1172 Gd1161 2.818 . S
C1172 C1173 1.510 . S
C1172 O1188 1.249 . S
C1172 O1189 1.252 . S
C1173 C1172 1.510 . S
C1173 C1174 1.404 1_556 S
C1173 C1175 1.352 1_556 S
C1174 C1173 1.404 1_554 S
C1174 C1178 1.389 . S
C1174 H1196 0.930 . S
C1175 C1173 1.352 1_554 S
C1175 C1177 1.374 . S
C1175 H1197 0.931 . S
C1176 C1177 1.359 . S
C1176 C1178 1.364 . S
C1177 C1175 1.374 . S
C1177 C1176 1.359 . S
C1177 H1198 0.931 . S
C1178 C1174 1.389 . S
C1178 C1176 1.364 . S
C1178 H1199 0.931 . S
C1179 O1190 1.256 . S
C1179 O1191 1.257 . S
O1180 Gd1160 2.377 . S
O1180 C1162 1.240 . S
O1181 Gd1161 2.395 . S
O1181 C1162 1.240 . S
O1182 Gd1160 2.448 . S
O1182 C1163 1.249 . S
O1183 Gd1160 2.506 . S
O1183 C1163 1.252 . S
O1184 Gd1160 2.435 . S
O1184 C1170 1.256 . S
O1185 Gd1160 2.717 . S
O1185 Gd1161 2.327 . S
O1185 C1170 1.257 . S
O1186 Gd1161 2.377 . S
O1186 C1171 1.240 . S
O1187 Gd1160 2.395 . S
O1187 C1171 1.240 . S
O1188 Gd1161 2.448 . S
O1188 C1172 1.249 . S
O1189 Gd1161 2.506 . S
O1189 C1172 1.252 . S
O1190 Gd1161 2.435 . S
O1190 C1179 1.256 . S
O1191 Gd1160 2.327 . S
O1191 Gd1161 2.717 . S
O1191 C1179 1.257 . S
H1192 C1165 0.930 . S
H1193 C1166 0.931 . S
H1194 C1168 0.931 . S
H1195 C1169 0.931 . S
H1196 C1174 0.930 . S
H1197 C1175 0.931 . S
H1198 C1177 0.931 . S
H1199 C1178 0.931 . S
Gd1200 C1203 2.818 . S
Gd1200 O1220 2.377 . S
Gd1200 O1222 2.448 . S
Gd1200 O1223 2.506 . S
Gd1200 O1224 2.435 1_554 S
Gd1200 O1225 2.717 1_554 S
Gd1200 O1227 2.395 1_554 S
Gd1200 O1231 2.328 . S
Gd1201 C1212 2.818 . S
Gd1201 O1221 2.395 . S
Gd1201 O1225 2.327 . S
Gd1201 O1226 2.377 . S
Gd1201 O1228 2.448 . S
Gd1201 O1229 2.506 . S
Gd1201 O1230 2.435 . S
Gd1201 O1231 2.716 1_556 S
C1202 O1220 1.240 . S
C1202 O1221 1.240 1_554 S
C1203 Gd1200 2.818 . S
C1203 C1204 1.510 . S
C1203 O1222 1.249 . S
C1203 O1223 1.252 . S
C1204 C1203 1.510 . S
C1204 C1205 1.404 . S
C1204 C1206 1.352 . S
C1205 C1204 1.404 . S
C1205 C1209 1.389 . S
C1205 H1232 0.930 . S
C1206 C1204 1.352 . S
C1206 C1208 1.374 . S
C1206 H1233 0.931 . S
C1207 C1208 1.359 . S
C1207 C1209 1.364 . S
C1208 C1206 1.374 . S
C1208 C1207 1.359 . S
C1208 H1234 0.931 . S
C1209 C1205 1.389 . S
C1209 C1207 1.364 . S
C1209 H1235 0.931 . S
C1210 O1224 1.256 . S
C1210 O1225 1.257 . S
C1211 O1226 1.240 . S
C1211 O1227 1.240 . S
C1212 Gd1201 2.818 . S
C1212 C1213 1.510 . S
C1212 O1228 1.249 . S
C1212 O1229 1.252 . S
C1213 C1212 1.510 . S
C1213 C1214 1.404 . S
C1213 C1215 1.352 . S
C1214 C1213 1.404 . S
C1214 C1218 1.389 . S
C1214 H1236 0.930 . S
C1215 C1213 1.352 . S
C1215 C1217 1.374 . S
C1215 H1237 0.931 . S
C1216 C1217 1.359 . S
C1216 C1218 1.364 . S
C1217 C1215 1.374 . S
C1217 C1216 1.359 . S
C1217 H1238 0.931 . S
C1218 C1214 1.389 . S
C1218 C1216 1.364 . S
C1218 H1239 0.931 . S
C1219 O1230 1.256 . S
C1219 O1231 1.257 1_556 S
O1220 Gd1200 2.377 . S
O1220 C1202 1.240 . S
O1221 Gd1201 2.395 . S
O1221 C1202 1.240 1_556 S
O1222 Gd1200 2.448 . S
O1222 C1203 1.249 . S
O1223 Gd1200 2.506 . S
O1223 C1203 1.252 . S
O1224 Gd1200 2.435 1_556 S
O1224 C1210 1.256 . S
O1225 Gd1200 2.717 1_556 S
O1225 Gd1201 2.327 . S
O1225 C1210 1.257 . S
O1226 Gd1201 2.377 . S
O1226 C1211 1.240 . S
O1227 Gd1200 2.395 1_556 S
O1227 C1211 1.240 . S
O1228 Gd1201 2.448 . S
O1228 C1212 1.249 . S
O1229 Gd1201 2.506 . S
O1229 C1212 1.252 . S
O1230 Gd1201 2.435 . S
O1230 C1219 1.256 . S
O1231 Gd1200 2.328 . S
O1231 Gd1201 2.716 1_554 S
O1231 C1219 1.257 1_554 S
H1232 C1205 0.930 . S
H1233 C1206 0.931 . S
H1234 C1208 0.931 . S
H1235 C1209 0.931 . S
H1236 C1214 0.930 . S
H1237 C1215 0.931 . S
H1238 C1217 0.931 . S
H1239 C1218 0.931 . S
Gd1240 C1243 2.818 . S
Gd1240 O1260 2.377 . S
Gd1240 O1262 2.448 . S
Gd1240 O1263 2.506 . S
Gd1240 O1264 2.435 1_554 S
Gd1240 O1265 2.717 1_554 S
Gd1240 O1267 2.395 1_554 S
Gd1240 O1271 2.330 . S
Gd1241 C1252 2.818 . S
Gd1241 O1261 2.395 . S
Gd1241 O1265 2.327 . S
Gd1241 O1266 2.377 . S
Gd1241 O1268 2.448 . S
Gd1241 O1269 2.506 . S
Gd1241 O1270 2.435 . S
Gd1241 O1271 2.710 1_556 S
C1242 O1260 1.240 . S
C1242 O1261 1.240 1_554 S
C1243 Gd1240 2.818 . S
C1243 C1244 1.510 . S
C1243 O1262 1.249 . S
C1243 O1263 1.252 . S
C1244 C1243 1.510 . S
C1244 C1245 1.404 . S
C1244 C1246 1.352 . S
C1245 C1244 1.404 . S
C1245 C1249 1.389 . S
C1245 H1272 0.930 . S
C1246 C1244 1.352 . S
C1246 C1248 1.374 . S
C1246 H1273 0.931 . S
C1247 C1248 1.359 . S
C1247 C1249 1.364 . S
C1248 C1246 1.374 . S
C1248 C1247 1.359 . S
C1248 H1274 0.931 . S
C1249 C1245 1.389 . S
C1249 C1247 1.364 . S
C1249 H1275 0.931 . S
C1250 O1264 1.256 . S
C1250 O1265 1.257 . S
C1251 O1266 1.240 . S
C1251 O1267 1.240 . S
C1252 Gd1241 2.818 . S
C1252 C1253 1.510 . S
C1252 O1268 1.249 . S
C1252 O1269 1.252 . S
C1253 C1252 1.510 . S
C1253 C1254 1.404 . S
C1253 C1255 1.352 . S
C1254 C1253 1.404 . S
C1254 C1258 1.389 . S
C1254 H1276 0.930 . S
C1255 C1253 1.352 . S
C1255 C1257 1.374 . S
C1255 H1277 0.931 . S
C1256 C1257 1.359 . S
C1256 C1258 1.364 . S
C1257 C1255 1.374 . S
C1257 C1256 1.359 . S
C1257 H1278 0.931 . S
C1258 C1254 1.389 . S
C1258 C1256 1.364 . S
C1258 H1279 0.931 . S
C1259 O1270 1.256 . S
C1259 O1271 1.255 1_556 S
O1260 Gd1240 2.377 . S
O1260 C1242 1.240 . S
O1261 Gd1241 2.395 . S
O1261 C1242 1.240 1_556 S
O1262 Gd1240 2.448 . S
O1262 C1243 1.249 . S
O1263 Gd1240 2.506 . S
O1263 C1243 1.252 . S
O1264 Gd1240 2.435 1_556 S
O1264 C1250 1.256 . S
O1265 Gd1240 2.717 1_556 S
O1265 Gd1241 2.327 . S
O1265 C1250 1.257 . S
O1266 Gd1241 2.377 . S
O1266 C1251 1.240 . S
O1267 Gd1240 2.395 1_556 S
O1267 C1251 1.240 . S
O1268 Gd1241 2.448 . S
O1268 C1252 1.249 . S
O1269 Gd1241 2.506 . S
O1269 C1252 1.252 . S
O1270 Gd1241 2.435 . S
O1270 C1259 1.256 . S
O1271 Gd1240 2.330 . S
O1271 Gd1241 2.710 1_554 S
O1271 C1259 1.255 1_554 S
H1272 C1245 0.930 . S
H1273 C1246 0.931 . S
H1274 C1248 0.931 . S
H1275 C1249 0.931 . S
H1276 C1254 0.930 . S
H1277 C1255 0.931 . S
H1278 C1257 0.931 . S
H1279 C1258 0.931 . S
H1280 C1288 0.950 . S
H1281 C1293 0.950 . S
H1282 C1290 0.950 . S
H1283 C1292 0.950 . S
H1284 C1294 0.950 . S
H1285 C1296 0.950 . S
H1286 C1298 0.950 . S
H1287 C1299 0.950 . S
C1288 H1280 0.950 . S
C1288 C1289 1.386 . S
C1288 C1290 1.391 . S
C1289 C1288 1.386 . S
C1289 C1293 1.393 . S
C1290 H1282 0.950 . S
C1290 C1288 1.391 . S
C1290 C1291 1.400 . S
C1291 C1290 1.400 . S
C1291 C1292 1.398 . S
C1291 C1297 1.491 1_556 S
C1292 H1283 0.950 . S
C1292 C1291 1.398 . S
C1292 C1293 1.391 . S
C1293 H1281 0.950 . S
C1293 C1289 1.393 . S
C1293 C1292 1.391 . S
C1294 H1284 0.950 . S
C1294 C1295 1.386 . S
C1294 C1296 1.391 . S
C1295 C1294 1.386 . S
C1295 C1299 1.393 . S
C1296 H1285 0.950 . S
C1296 C1294 1.391 . S
C1296 C1297 1.400 . S
C1297 C1291 1.491 1_554 S
C1297 C1296 1.400 . S
C1297 C1298 1.398 . S
C1298 H1286 0.950 . S
C1298 C1297 1.398 . S
C1298 C1299 1.391 . S
C1299 H1287 0.950 . S
C1299 C1295 1.393 . S
C1299 C1298 1.391 . S
H1300 C1308 0.950 . S
H1301 C1313 0.950 . S
H1302 C1310 0.950 1_655 S
H1303 C1312 0.950 . S
H1304 C1314 0.950 . S
H1305 C1316 0.950 1_455 S
H1306 C1318 0.950 . S
H1307 C1319 0.950 . S
C1308 H1300 0.950 . S
C1308 C1309 1.386 1_565 S
C1308 C1310 1.391 . S
C1309 C1308 1.386 1_545 S
C1309 C1313 1.393 . S
C1310 H1302 0.950 1_455 S
C1310 C1308 1.391 . S
C1310 C1311 1.391 1_565 S
C1311 C1310 1.391 1_545 S
C1311 C1312 1.408 . S
C1311 C1317 1.490 1_446 S
C1312 H1303 0.950 . S
C1312 C1311 1.408 . S
C1312 C1313 1.391 . S
C1313 H1301 0.950 . S
C1313 C1309 1.393 . S
C1313 C1312 1.391 . S
C1314 H1304 0.950 . S
C1314 C1315 1.386 1_545 S
C1314 C1316 1.391 . S
C1315 C1314 1.386 1_565 S
C1315 C1319 1.393 . S
C1316 H1305 0.950 1_655 S
C1316 C1314 1.391 . S
C1316 C1317 1.398 1_545 S
C1317 C1311 1.490 1_664 S
C1317 C1316 1.398 1_565 S
C1317 C1318 1.400 . S
C1318 H1306 0.950 . S
C1318 C1317 1.400 . S
C1318 C1319 1.391 . S
C1319 H1307 0.950 . S
C1319 C1315 1.393 . S
C1319 C1318 1.391 . S
H1320 C1328 0.950 . S
H1321 C1333 0.950 . S
H1322 C1330 0.950 . S
H1323 C1332 0.950 . S
H1324 C1334 0.950 . S
H1325 C1336 0.950 . S
H1326 C1338 0.950 . S
H1327 C1339 0.950 . S
C1328 H1320 0.950 . S
C1328 C1329 1.386 . S
C1328 C1330 1.391 . S
C1329 C1328 1.386 . S
C1329 C1333 1.393 1_545 S
C1330 H1322 0.950 . S
C1330 C1328 1.391 . S
C1330 C1331 1.427 . S
C1331 C1330 1.427 . S
C1331 C1332 1.373 1_545 S
C1331 C1337 1.489 1_545 S
C1332 H1323 0.950 . S
C1332 C1331 1.373 1_565 S
C1332 C1333 1.391 . S
C1333 H1321 0.950 . S
C1333 C1329 1.393 1_565 S
C1333 C1332 1.391 . S
C1334 H1324 0.950 . S
C1334 C1335 1.386 . S
C1334 C1336 1.391 . S
C1335 C1334 1.386 . S
C1335 C1339 1.393 1_565 S
C1336 H1325 0.950 . S
C1336 C1334 1.391 . S
C1336 C1337 1.418 . S
C1337 C1331 1.489 1_565 S
C1337 C1336 1.418 . S
C1337 C1338 1.382 1_565 S
C1338 H1326 0.950 . S
C1338 C1337 1.382 1_545 S
C1338 C1339 1.391 . S
C1339 H1327 0.950 . S
C1339 C1335 1.393 1_545 S
C1339 C1338 1.391 . S
H1340 C1348 0.950 . S
H1341 C1353 0.950 . S
H1342 C1350 0.950 . S
H1343 C1352 0.949 . S
H1344 C1354 0.950 . S
H1345 C1356 0.950 . S
H1346 C1358 0.953 1_455 S
H1347 C1359 0.950 . S
C1348 H1340 0.950 . S
C1348 C1349 1.386 . S
C1348 C1350 1.391 . S
C1349 C1348 1.386 . S
C1349 C1353 1.393 . S
C1350 H1342 0.950 . S
C1350 C1348 1.391 . S
C1350 C1351 1.400 . S
C1351 C1350 1.400 . S
C1351 C1352 1.399 1_455 S
C1351 C1357 1.491 1_455 S
C1352 H1343 0.949 . S
C1352 C1351 1.399 1_655 S
C1352 C1353 1.391 1_655 S
C1353 H1341 0.950 . S
C1353 C1349 1.393 . S
C1353 C1352 1.391 1_455 S
C1354 H1344 0.950 . S
C1354 C1355 1.386 . S
C1354 C1356 1.391 . S
C1355 C1354 1.386 . S
C1355 C1359 1.393 . S
C1356 H1345 0.950 . S
C1356 C1354 1.391 . S
C1356 C1357 1.400 . S
C1357 C1351 1.491 1_655 S
C1357 C1356 1.400 . S
C1357 C1358 1.397 . S
C1358 H1346 0.953 1_655 S
C1358 C1357 1.397 . S
C1358 C1359 1.389 . S
C1359 H1347 0.950 . S
C1359 C1355 1.393 . S
C1359 C1358 1.389 . S
H1360 C1368 0.950 . S
H1361 C1373 0.950 . S
H1362 C1370 0.950 . S
H1363 C1372 0.950 1_554 S
H1364 C1374 0.950 . S
H1365 C1376 0.950 . S
H1366 C1378 0.950 1_556 S
H1367 C1379 0.950 . S
C1368 H1360 0.950 . S
C1368 C1369 1.386 . S
C1368 C1370 1.391 . S
C1369 C1368 1.386 . S
C1369 C1373 1.393 . S
C1370 H1362 0.950 . S
C1370 C1368 1.391 . S
C1370 C1371 1.400 . S
C1371 C1370 1.400 . S
C1371 C1372 1.398 . S
C1371 C1377 1.491 1_556 S
C1372 H1363 0.950 1_556 S
C1372 C1371 1.398 . S
C1372 C1373 1.391 . S
C1373 H1361 0.950 . S
C1373 C1369 1.393 . S
C1373 C1372 1.391 . S
C1374 H1364 0.950 . S
C1374 C1375 1.386 . S
C1374 C1376 1.391 . S
C1375 C1374 1.386 . S
C1375 C1379 1.393 . S
C1376 H1365 0.950 . S
C1376 C1374 1.391 . S
C1376 C1377 1.400 . S
C1377 C1371 1.491 1_554 S
C1377 C1376 1.400 . S
C1377 C1378 1.398 . S
C1378 H1366 0.950 1_554 S
C1378 C1377 1.398 . S
C1378 C1379 1.391 . S
C1379 H1367 0.950 . S
C1379 C1375 1.393 . S
C1379 C1378 1.391 . S
H1380 C1388 0.950 . S
H1381 C1393 0.950 . S
H1382 C1390 0.950 . S
H1383 C1392 0.950 . S
H1384 C1394 0.950 . S
H1385 C1396 0.950 . S
H1386 C1398 0.950 . S
H1387 C1399 0.950 . S
C1388 H1380 0.950 . S
C1388 C1389 1.386 1_545 S
C1388 C1390 1.391 . S
C1389 C1388 1.386 1_565 S
C1389 C1393 1.393 . S
C1390 H1382 0.950 . S
C1390 C1388 1.391 . S
C1390 C1391 1.383 1_545 S
C1391 C1390 1.383 1_565 S
C1391 C1392 1.417 . S
C1391 C1397 1.490 1_565 S
C1392 H1383 0.950 . S
C1392 C1391 1.417 . S
C1392 C1393 1.391 . S
C1393 H1381 0.950 . S
C1393 C1389 1.393 . S
C1393 C1392 1.391 . S
C1394 H1384 0.950 . S
C1394 C1395 1.386 1_565 S
C1394 C1396 1.391 . S
C1395 C1394 1.386 1_545 S
C1395 C1399 1.393 . S
C1396 H1385 0.950 . S
C1396 C1394 1.391 . S
C1396 C1397 1.391 1_565 S
C1397 C1391 1.490 1_545 S
C1397 C1396 1.391 1_545 S
C1397 C1398 1.408 . S
C1398 H1386 0.950 . S
C1398 C1397 1.408 . S
C1398 C1399 1.391 . S
C1399 H1387 0.950 . S
C1399 C1395 1.393 . S
C1399 C1398 1.391 . S
H1400 C1408 0.950 . S
H1401 C1413 0.950 . S
H1402 C1410 0.950 . S
H1403 C1412 0.939 1_455 S
H1404 C1414 0.950 . S
H1405 C1416 0.950 . S
H1406 C1418 0.927 1_655 S
H1407 C1419 0.950 . S
C1408 H1400 0.950 . S
C1408 C1409 1.386 . S
C1408 C1410 1.391 . S
C1409 C1408 1.386 . S
C1409 C1413 1.393 . S
C1410 H1402 0.950 . S
C1410 C1408 1.391 . S
C1410 C1411 1.400 . S
C1411 C1410 1.400 . S
C1411 C1412 1.402 . S
C1411 C1417 1.491 1_655 S
C1412 H1403 0.939 1_655 S
C1412 C1411 1.402 . S
C1412 C1413 1.397 . S
C1413 H1401 0.950 . S
C1413 C1409 1.393 . S
C1413 C1412 1.397 . S
C1414 H1404 0.950 . S
C1414 C1415 1.386 . S
C1414 C1416 1.391 . S
C1415 C1414 1.386 . S
C1415 C1419 1.393 . S
C1416 H1405 0.950 . S
C1416 C1414 1.391 . S
C1416 C1417 1.400 . S
C1417 C1411 1.491 1_455 S
C1417 C1416 1.400 . S
C1417 C1418 1.406 . S
C1418 H1406 0.927 1_455 S
C1418 C1417 1.406 . S
C1418 C1419 1.406 . S
C1419 H1407 0.950 . S
C1419 C1415 1.393 . S
C1419 C1418 1.406 . S
H1420 C1428 0.950 . S
H1421 C1433 0.950 . S
H1422 C1430 0.950 . S
H1423 C1432 0.950 . S
H1424 C1434 0.950 . S
H1425 C1436 0.950 . S
H1426 C1438 0.950 . S
H1427 C1439 0.950 . S
C1428 H1420 0.950 . S
C1428 C1429 1.386 . S
C1428 C1430 1.391 . S
C1429 C1428 1.386 . S
C1429 C1433 1.393 . S
C1430 H1422 0.950 . S
C1430 C1428 1.391 . S
C1430 C1431 1.400 . S
C1431 C1430 1.400 . S
C1431 C1432 1.398 . S
C1431 C1437 1.491 . S
C1432 H1423 0.950 . S
C1432 C1431 1.398 . S
C1432 C1433 1.391 . S
C1433 H1421 0.950 . S
C1433 C1429 1.393 . S
C1433 C1432 1.391 . S
C1434 H1424 0.950 . S
C1434 C1435 1.386 . S
C1434 C1436 1.391 . S
C1435 C1434 1.386 . S
C1435 C1439 1.393 . S
C1436 H1425 0.950 . S
C1436 C1434 1.391 . S
C1436 C1437 1.400 . S
C1437 C1431 1.491 . S
C1437 C1436 1.400 . S
C1437 C1438 1.398 . S
C1438 H1426 0.950 . S
C1438 C1437 1.398 . S
C1438 C1439 1.391 . S
C1439 H1427 0.950 . S
C1439 C1435 1.393 . S
C1439 C1438 1.391 . S
H1440 C1448 0.950 . S
H1441 C1453 0.950 . S
H1442 C1450 0.950 . S
H1443 C1452 0.950 . S
H1444 C1454 0.950 . S
H1445 C1456 0.950 . S
H1446 C1458 0.950 . S
H1447 C1459 0.950 . S
C1448 H1440 0.950 . S
C1448 C1449 1.386 . S
C1448 C1450 1.391 . S
C1449 C1448 1.386 . S
C1449 C1453 1.393 . S
C1450 H1442 0.950 . S
C1450 C1448 1.391 . S
C1450 C1451 1.400 . S
C1451 C1450 1.400 . S
C1451 C1452 1.398 1_655 S
C1451 C1457 1.491 1_655 S
C1452 H1443 0.950 . S
C1452 C1451 1.398 1_455 S
C1452 C1453 1.391 1_455 S
C1453 H1441 0.950 . S
C1453 C1449 1.393 . S
C1453 C1452 1.391 1_655 S
C1454 H1444 0.950 . S
C1454 C1455 1.386 . S
C1454 C1456 1.391 . S
C1455 C1454 1.386 . S
C1455 C1459 1.393 . S
C1456 H1445 0.950 . S
C1456 C1454 1.391 . S
C1456 C1457 1.400 . S
C1457 C1451 1.491 1_455 S
C1457 C1456 1.400 . S
C1457 C1458 1.398 1_455 S
C1458 H1446 0.950 . S
C1458 C1457 1.398 1_655 S
C1458 C1459 1.391 1_655 S
C1459 H1447 0.950 . S
C1459 C1455 1.393 . S
C1459 C1458 1.391 1_455 S
H1460 C1468 0.950 . S
H1461 C1473 0.950 . S
H1462 C1470 0.950 . S
H1463 C1472 0.950 . S
H1464 C1474 0.950 . S
H1465 C1476 0.950 . S
H1466 C1478 0.950 . S
H1467 C1479 0.950 . S
C1468 H1460 0.950 . S
C1468 C1469 1.386 . S
C1468 C1470 1.391 . S
C1469 C1468 1.386 . S
C1469 C1473 1.393 . S
C1470 H1462 0.950 . S
C1470 C1468 1.391 . S
C1470 C1471 1.400 . S
C1471 C1470 1.400 . S
C1471 C1472 1.398 . S
C1471 C1477 1.491 . S
C1472 H1463 0.950 . S
C1472 C1471 1.398 . S
C1472 C1473 1.391 . S
C1473 H1461 0.950 . S
C1473 C1469 1.393 . S
C1473 C1472 1.391 . S
C1474 H1464 0.950 . S
C1474 C1475 1.386 . S
C1474 C1476 1.391 . S
C1475 C1474 1.386 . S
C1475 C1479 1.393 . S
C1476 H1465 0.950 . S
C1476 C1474 1.391 . S
C1476 C1477 1.400 . S
C1477 C1471 1.491 . S
C1477 C1476 1.400 . S
C1477 C1478 1.398 . S
C1478 H1466 0.950 . S
C1478 C1477 1.398 . S
C1478 C1479 1.391 . S
C1479 H1467 0.950 . S
C1479 C1475 1.393 . S
C1479 C1478 1.391 . S
H1480 C1488 0.950 . S
H1481 C1493 0.950 . S
H1482 C1490 0.950 . S
H1483 C1492 0.950 . S
H1484 C1494 0.950 . S
H1485 C1496 0.950 . S
H1486 C1498 0.950 . S
H1487 C1499 0.950 . S
C1488 H1480 0.950 . S
C1488 C1489 1.386 . S
C1488 C1490 1.391 . S
C1489 C1488 1.386 . S
C1489 C1493 1.393 . S
C1490 H1482 0.950 . S
C1490 C1488 1.391 . S
C1490 C1491 1.400 . S
C1491 C1490 1.400 . S
C1491 C1492 1.398 . S
C1491 C1497 1.491 . S
C1492 H1483 0.950 . S
C1492 C1491 1.398 . S
C1492 C1493 1.391 . S
C1493 H1481 0.950 . S
C1493 C1489 1.393 . S
C1493 C1492 1.391 . S
C1494 H1484 0.950 . S
C1494 C1495 1.386 . S
C1494 C1496 1.391 . S
C1495 C1494 1.386 . S
C1495 C1499 1.393 . S
C1496 H1485 0.950 . S
C1496 C1494 1.391 . S
C1496 C1497 1.400 . S
C1497 C1491 1.491 . S
C1497 C1496 1.400 . S
C1497 C1498 1.398 . S
C1498 H1486 0.950 . S
C1498 C1497 1.398 . S
C1498 C1499 1.391 . S
C1499 H1487 0.950 . S
C1499 C1495 1.393 . S
C1499 C1498 1.391 . S
H1500 C1508 0.950 . S
H1501 C1513 0.950 . S
H1502 C1510 0.950 . S
H1503 C1512 0.950 . S
H1504 C1514 0.950 . S
H1505 C1516 0.950 . S
H1506 C1518 0.950 . S
H1507 C1519 0.950 . S
C1508 H1500 0.950 . S
C1508 C1509 1.386 . S
C1508 C1510 1.391 . S
C1509 C1508 1.386 . S
C1509 C1513 1.393 . S
C1510 H1502 0.950 . S
C1510 C1508 1.391 . S
C1510 C1511 1.400 . S
C1511 C1510 1.400 . S
C1511 C1512 1.398 . S
C1511 C1517 1.491 . S
C1512 H1503 0.950 . S
C1512 C1511 1.398 . S
C1512 C1513 1.391 . S
C1513 H1501 0.950 . S
C1513 C1509 1.393 . S
C1513 C1512 1.391 . S
C1514 H1504 0.950 . S
C1514 C1515 1.386 . S
C1514 C1516 1.391 . S
C1515 C1514 1.386 . S
C1515 C1519 1.393 . S
C1516 H1505 0.950 . S
C1516 C1514 1.391 . S
C1516 C1517 1.400 . S
C1517 C1511 1.491 . S
C1517 C1516 1.400 . S
C1517 C1518 1.398 . S
C1518 H1506 0.950 . S
C1518 C1517 1.398 . S
C1518 C1519 1.391 . S
C1519 H1507 0.950 . S
C1519 C1515 1.393 . S
C1519 C1518 1.391 . S
H1520 C1528 0.950 . S
H1521 C1533 0.950 . S
H1522 C1530 0.950 . S
H1523 C1532 0.950 . S
H1524 C1534 0.950 . S
H1525 C1536 0.950 . S
H1526 C1538 0.950 . S
H1527 C1539 0.950 . S
C1528 H1520 0.950 . S
C1528 C1529 1.386 . S
C1528 C1530 1.391 . S
C1529 C1528 1.386 . S
C1529 C1533 1.393 1_565 S
C1530 H1522 0.950 . S
C1530 C1528 1.391 . S
C1530 C1531 1.418 . S
C1531 C1530 1.418 . S
C1531 C1532 1.382 1_565 S
C1531 C1537 1.490 1_565 S
C1532 H1523 0.950 . S
C1532 C1531 1.382 1_545 S
C1532 C1533 1.391 . S
C1533 H1521 0.950 . S
C1533 C1529 1.393 1_545 S
C1533 C1532 1.391 . S
C1534 H1524 0.950 . S
C1534 C1535 1.386 . S
C1534 C1536 1.391 . S
C1535 C1534 1.386 . S
C1535 C1539 1.393 1_545 S
C1536 H1525 0.950 . S
C1536 C1534 1.391 . S
C1536 C1537 1.408 . S
C1537 C1531 1.490 1_545 S
C1537 C1536 1.408 . S
C1537 C1538 1.391 1_545 S
C1538 H1526 0.950 . S
C1538 C1537 1.391 1_565 S
C1538 C1539 1.391 . S
C1539 H1527 0.950 . S
C1539 C1535 1.393 1_565 S
C1539 C1538 1.391 . S
H1540 C1548 0.950 . S
H1541 C1553 0.950 . S
H1542 C1550 0.950 . S
H1543 C1552 0.950 . S
H1544 C1554 0.950 . S
H1545 C1556 0.950 . S
H1546 C1558 0.950 . S
H1547 C1559 0.950 . S
C1548 H1540 0.950 . S
C1548 C1549 1.386 . S
C1548 C1550 1.391 . S
C1549 C1548 1.386 . S
C1549 C1553 1.393 . S
C1550 H1542 0.950 . S
C1550 C1548 1.391 . S
C1550 C1551 1.400 . S
C1551 C1550 1.400 . S
C1551 C1552 1.398 . S
C1551 C1557 1.491 . S
C1552 H1543 0.950 . S
C1552 C1551 1.398 . S
C1552 C1553 1.391 . S
C1553 H1541 0.950 . S
C1553 C1549 1.393 . S
C1553 C1552 1.391 . S
C1554 H1544 0.950 . S
C1554 C1555 1.386 . S
C1554 C1556 1.391 . S
C1555 C1554 1.386 . S
C1555 C1559 1.393 . S
C1556 H1545 0.950 . S
C1556 C1554 1.391 . S
C1556 C1557 1.400 . S
C1557 C1551 1.491 . S
C1557 C1556 1.400 . S
C1557 C1558 1.398 . S
C1558 H1546 0.950 . S
C1558 C1557 1.398 . S
C1558 C1559 1.391 . S
C1559 H1547 0.950 . S
C1559 C1555 1.393 . S
C1559 C1558 1.391 . S
H1560 C1568 0.950 . S
H1561 C1573 0.950 . S
H1562 C1570 0.950 . S
H1563 C1572 0.950 . S
H1564 C1574 0.950 . S
H1565 C1576 0.950 . S
H1566 C1578 0.950 . S
H1567 C1579 0.950 . S
C1568 H1560 0.950 . S
C1568 C1569 1.386 . S
C1568 C1570 1.391 . S
C1569 C1568 1.386 . S
C1569 C1573 1.393 . S
C1570 H1562 0.950 . S
C1570 C1568 1.391 . S
C1570 C1571 1.400 . S
C1571 C1570 1.400 . S
C1571 C1572 1.398 . S
C1571 C1577 1.491 . S
C1572 H1563 0.950 . S
C1572 C1571 1.398 . S
C1572 C1573 1.391 . S
C1573 H1561 0.950 . S
C1573 C1569 1.393 . S
C1573 C1572 1.391 . S
C1574 H1564 0.950 . S
C1574 C1575 1.386 . S
C1574 C1576 1.391 . S
C1575 C1574 1.386 . S
C1575 C1579 1.393 . S
C1576 H1565 0.950 . S
C1576 C1574 1.391 . S
C1576 C1577 1.400 . S
C1577 C1571 1.491 . S
C1577 C1576 1.400 . S
C1577 C1578 1.398 . S
C1578 H1566 0.950 . S
C1578 C1577 1.398 . S
C1578 C1579 1.391 . S
C1579 H1567 0.950 . S
C1579 C1575 1.393 . S
C1579 C1578 1.391 . S
H1580 C1588 0.950 . S
H1581 C1593 0.950 . S
H1582 C1590 0.950 1_554 S
H1583 C1592 0.950 . S
H1584 C1594 0.950 . S
H1585 C1596 0.950 1_556 S
H1586 C1598 0.950 . S
H1587 C1599 0.950 . S
C1588 H1580 0.950 . S
C1588 C1589 1.386 . S
C1588 C1590 1.391 . S
C1589 C1588 1.386 . S
C1589 C1593 1.393 . S
C1590 H1582 0.950 1_556 S
C1590 C1588 1.391 . S
C1590 C1591 1.400 . S
C1591 C1590 1.400 . S
C1591 C1592 1.398 . S
C1591 C1597 1.491 1_556 S
C1592 H1583 0.950 . S
C1592 C1591 1.398 . S
C1592 C1593 1.391 . S
C1593 H1581 0.950 . S
C1593 C1589 1.393 . S
C1593 C1592 1.391 . S
C1594 H1584 0.950 . S
C1594 C1595 1.386 . S
C1594 C1596 1.391 . S
C1595 C1594 1.386 . S
C1595 C1599 1.393 . S
C1596 H1585 0.950 1_554 S
C1596 C1594 1.391 . S
C1596 C1597 1.400 . S
C1597 C1591 1.491 1_554 S
C1597 C1596 1.400 . S
C1597 C1598 1.398 . S
C1598 H1586 0.950 . S
C1598 C1597 1.398 . S
C1598 C1599 1.391 . S
C1599 H1587 0.950 . S
C1599 C1595 1.393 . S
C1599 C1598 1.391 . S
H1600 C1608 0.950 . S
H1601 C1613 0.950 . S
H1602 C1610 0.950 . S
H1603 C1612 0.950 . S
H1604 C1614 0.950 . S
H1605 C1616 0.950 . S
H1606 C1618 0.950 . S
H1607 C1619 0.950 . S
C1608 H1600 0.950 . S
C1608 C1609 1.386 . S
C1608 C1610 1.391 . S
C1609 C1608 1.386 . S
C1609 C1613 1.393 . S
C1610 H1602 0.950 . S
C1610 C1608 1.391 . S
C1610 C1611 1.400 . S
C1611 C1610 1.400 . S
C1611 C1612 1.398 . S
C1611 C1617 1.491 . S
C1612 H1603 0.950 . S
C1612 C1611 1.398 . S
C1612 C1613 1.391 . S
C1613 H1601 0.950 . S
C1613 C1609 1.393 . S
C1613 C1612 1.391 . S
C1614 H1604 0.950 . S
C1614 C1615 1.386 . S
C1614 C1616 1.391 . S
C1615 C1614 1.386 . S
C1615 C1619 1.393 . S
C1616 H1605 0.950 . S
C1616 C1614 1.391 . S
C1616 C1617 1.400 . S
C1617 C1611 1.491 . S
C1617 C1616 1.400 . S
C1617 C1618 1.398 . S
C1618 H1606 0.950 . S
C1618 C1617 1.398 . S
C1618 C1619 1.391 . S
C1619 H1607 0.950 . S
C1619 C1615 1.393 . S
C1619 C1618 1.391 . S
H1620 C1628 0.950 . S
H1621 C1633 0.950 . S
H1622 C1630 0.950 . S
H1623 C1632 0.950 . S
H1624 C1634 0.950 . S
H1625 C1636 0.950 . S
H1626 C1638 0.950 . S
H1627 C1639 0.950 . S
C1628 H1620 0.950 . S
C1628 C1629 1.386 . S
C1628 C1630 1.391 . S
C1629 C1628 1.386 . S
C1629 C1633 1.393 1_545 S
C1630 H1622 0.950 . S
C1630 C1628 1.391 . S
C1630 C1631 1.400 . S
C1631 C1630 1.400 . S
C1631 C1632 1.398 1_545 S
C1631 C1637 1.491 . S
C1632 H1623 0.950 . S
C1632 C1631 1.398 1_565 S
C1632 C1633 1.391 . S
C1633 H1621 0.950 . S
C1633 C1629 1.393 1_565 S
C1633 C1632 1.391 . S
C1634 H1624 0.950 . S
C1634 C1635 1.386 1_565 S
C1634 C1636 1.391 . S
C1635 C1634 1.386 1_545 S
C1635 C1639 1.393 . S
C1636 H1625 0.950 . S
C1636 C1634 1.391 . S
C1636 C1637 1.400 1_565 S
C1637 C1631 1.491 . S
C1637 C1636 1.400 1_545 S
C1637 C1638 1.398 . S
C1638 H1626 0.950 . S
C1638 C1637 1.398 . S
C1638 C1639 1.391 . S
C1639 H1627 0.950 . S
C1639 C1635 1.393 . S
C1639 C1638 1.391 . S
H1640 C1648 0.950 . S
H1641 C1653 0.950 . S
H1642 C1650 0.950 . S
H1643 C1652 0.950 . S
H1644 C1654 0.950 . S
H1645 C1656 0.950 . S
H1646 C1658 0.950 . S
H1647 C1659 0.950 . S
C1648 H1640 0.950 . S
C1648 C1649 1.386 1_565 S
C1648 C1650 1.391 . S
C1649 C1648 1.386 1_545 S
C1649 C1653 1.393 . S
C1650 H1642 0.950 . S
C1650 C1648 1.391 . S
C1650 C1651 1.400 1_565 S
C1651 C1650 1.400 1_545 S
C1651 C1652 1.398 . S
C1651 C1657 1.491 . S
C1652 H1643 0.950 . S
C1652 C1651 1.398 . S
C1652 C1653 1.391 . S
C1653 H1641 0.950 . S
C1653 C1649 1.393 . S
C1653 C1652 1.391 . S
C1654 H1644 0.950 . S
C1654 C1655 1.386 . S
C1654 C1656 1.391 . S
C1655 C1654 1.386 . S
C1655 C1659 1.393 1_545 S
C1656 H1645 0.950 . S
C1656 C1654 1.391 . S
C1656 C1657 1.400 . S
C1657 C1651 1.491 . S
C1657 C1656 1.400 . S
C1657 C1658 1.398 1_545 S
C1658 H1646 0.950 . S
C1658 C1657 1.398 1_565 S
C1658 C1659 1.391 . S
C1659 H1647 0.950 . S
C1659 C1655 1.393 1_565 S
C1659 C1658 1.391 . S
H1660 C1668 0.950 . S
H1661 C1673 0.950 . S
H1662 C1670 0.950 . S
H1663 C1672 0.950 . S
H1664 C1674 0.950 . S
H1665 C1676 0.950 . S
H1666 C1678 0.950 . S
H1667 C1679 0.950 . S
C1668 H1660 0.950 . S
C1668 C1669 1.386 . S
C1668 C1670 1.391 . S
C1669 C1668 1.386 . S
C1669 C1673 1.393 . S
C1670 H1662 0.950 . S
C1670 C1668 1.391 . S
C1670 C1671 1.400 . S
C1671 C1670 1.400 . S
C1671 C1672 1.398 . S
C1671 C1677 1.491 . S
C1672 H1663 0.950 . S
C1672 C1671 1.398 . S
C1672 C1673 1.391 . S
C1673 H1661 0.950 . S
C1673 C1669 1.393 . S
C1673 C1672 1.391 . S
C1674 H1664 0.950 . S
C1674 C1675 1.386 . S
C1674 C1676 1.391 . S
C1675 C1674 1.386 . S
C1675 C1679 1.393 . S
C1676 H1665 0.950 . S
C1676 C1674 1.391 . S
C1676 C1677 1.400 . S
C1677 C1671 1.491 . S
C1677 C1676 1.400 . S
C1677 C1678 1.398 . S
C1678 H1666 0.950 . S
C1678 C1677 1.398 . S
C1678 C1679 1.391 . S
C1679 H1667 0.950 . S
C1679 C1675 1.393 . S
C1679 C1678 1.391 . S
H1680 C1688 0.950 . S
H1681 C1693 0.950 . S
H1682 C1690 0.950 . S
H1683 C1692 0.950 . S
H1684 C1694 0.950 . S
H1685 C1696 0.950 . S
H1686 C1698 0.950 . S
H1687 C1699 0.950 . S
C1688 H1680 0.950 . S
C1688 C1689 1.386 . S
C1688 C1690 1.391 . S
C1689 C1688 1.386 . S
C1689 C1693 1.393 . S
C1690 H1682 0.950 . S
C1690 C1688 1.391 . S
C1690 C1691 1.400 . S
C1691 C1690 1.400 . S
C1691 C1692 1.398 . S
C1691 C1697 1.491 . S
C1692 H1683 0.950 . S
C1692 C1691 1.398 . S
C1692 C1693 1.391 . S
C1693 H1681 0.950 . S
C1693 C1689 1.393 . S
C1693 C1692 1.391 . S
C1694 H1684 0.950 . S
C1694 C1695 1.386 . S
C1694 C1696 1.391 . S
C1695 C1694 1.386 . S
C1695 C1699 1.393 . S
C1696 H1685 0.950 . S
C1696 C1694 1.391 . S
C1696 C1697 1.400 . S
C1697 C1691 1.491 . S
C1697 C1696 1.400 . S
C1697 C1698 1.398 . S
C1698 H1686 0.950 . S
C1698 C1697 1.398 . S
C1698 C1699 1.391 . S
C1699 H1687 0.950 . S
C1699 C1695 1.393 . S
C1699 C1698 1.391 . S
H1700 C1708 0.950 . S
H1701 C1713 0.950 . S
H1702 C1710 0.950 . S
H1703 C1712 0.950 . S
H1704 C1714 0.950 . S
H1705 C1716 0.950 . S
H1706 C1718 0.950 . S
H1707 C1719 0.950 . S
C1708 H1700 0.950 . S
C1708 C1709 1.386 1_545 S
C1708 C1710 1.391 . S
C1709 C1708 1.386 1_565 S
C1709 C1713 1.393 . S
C1710 H1702 0.950 . S
C1710 C1708 1.391 . S
C1710 C1711 1.400 1_545 S
C1711 C1710 1.400 1_565 S
C1711 C1712 1.398 . S
C1711 C1717 1.491 . S
C1712 H1703 0.950 . S
C1712 C1711 1.398 . S
C1712 C1713 1.391 . S
C1713 H1701 0.950 . S
C1713 C1709 1.393 . S
C1713 C1712 1.391 . S
C1714 H1704 0.950 . S
C1714 C1715 1.386 . S
C1714 C1716 1.391 . S
C1715 C1714 1.386 . S
C1715 C1719 1.393 1_565 S
C1716 H1705 0.950 . S
C1716 C1714 1.391 . S
C1716 C1717 1.400 . S
C1717 C1711 1.491 . S
C1717 C1716 1.400 . S
C1717 C1718 1.398 1_565 S
C1718 H1706 0.950 . S
C1718 C1717 1.398 1_545 S
C1718 C1719 1.391 . S
C1719 H1707 0.950 . S
C1719 C1715 1.393 1_545 S
C1719 C1718 1.391 . S
H1720 C1728 0.950 . S
H1721 C1733 0.946 1_545 S
H1722 C1730 0.950 . S
H1723 C1732 0.947 1_545 S
H1724 C1734 0.950 . S
H1725 C1736 0.950 . S
H1726 C1738 0.950 . S
H1727 C1739 0.950 . S
C1728 H1720 0.950 . S
C1728 C1729 1.386 . S
C1728 C1730 1.391 . S
C1729 C1728 1.386 . S
C1729 C1733 1.397 . S
C1730 H1722 0.950 . S
C1730 C1728 1.391 . S
C1730 C1731 1.400 . S
C1731 C1730 1.400 . S
C1731 C1732 1.403 . S
C1731 C1737 1.491 . S
C1732 H1723 0.947 1_565 S
C1732 C1731 1.403 . S
C1732 C1733 1.391 . S
C1733 H1721 0.946 1_565 S
C1733 C1729 1.397 . S
C1733 C1732 1.391 . S
C1734 H1724 0.950 . S
C1734 C1735 1.386 1_545 S
C1734 C1736 1.391 . S
C1735 C1734 1.386 1_565 S
C1735 C1739 1.393 . S
C1736 H1725 0.950 . S
C1736 C1734 1.391 . S
C1736 C1737 1.400 1_545 S
C1737 C1731 1.491 . S
C1737 C1736 1.400 1_565 S
C1737 C1738 1.398 . S
C1738 H1726 0.950 . S
C1738 C1737 1.398 . S
C1738 C1739 1.391 . S
C1739 H1727 0.950 . S
C1739 C1735 1.393 . S
C1739 C1738 1.391 . S
H1740 C1748 0.950 . S
H1741 C1753 0.950 . S
H1742 C1750 0.950 . S
H1743 C1752 0.950 . S
H1744 C1754 0.950 . S
H1745 C1756 0.950 . S
H1746 C1758 0.950 . S
H1747 C1759 0.950 . S
C1748 H1740 0.950 . S
C1748 C1749 1.386 . S
C1748 C1750 1.391 . S
C1749 C1748 1.386 . S
C1749 C1753 1.393 . S
C1750 H1742 0.950 . S
C1750 C1748 1.391 . S
C1750 C1751 1.400 . S
C1751 C1750 1.400 . S
C1751 C1752 1.398 . S
C1751 C1757 1.491 . S
C1752 H1743 0.950 . S
C1752 C1751 1.398 . S
C1752 C1753 1.391 . S
C1753 H1741 0.950 . S
C1753 C1749 1.393 . S
C1753 C1752 1.391 . S
C1754 H1744 0.950 . S
C1754 C1755 1.386 . S
C1754 C1756 1.391 . S
C1755 C1754 1.386 . S
C1755 C1759 1.393 . S
C1756 H1745 0.950 . S
C1756 C1754 1.391 . S
C1756 C1757 1.400 . S
C1757 C1751 1.491 . S
C1757 C1756 1.400 . S
C1757 C1758 1.398 . S
C1758 H1746 0.950 . S
C1758 C1757 1.398 . S
C1758 C1759 1.391 . S
C1759 H1747 0.950 . S
C1759 C1755 1.393 . S
C1759 C1758 1.391 . S
H1760 C1768 0.950 . S
H1761 C1773 0.950 . S
H1762 C1770 0.950 . S
H1763 C1772 0.950 . S
H1764 C1774 0.950 . S
H1765 C1776 0.950 . S
H1766 C1778 0.950 . S
H1767 C1779 0.950 . S
C1768 H1760 0.950 . S
C1768 C1769 1.386 . S
C1768 C1770 1.391 . S
C1769 C1768 1.386 . S
C1769 C1773 1.393 . S
C1770 H1762 0.950 . S
C1770 C1768 1.391 . S
C1770 C1771 1.400 . S
C1771 C1770 1.400 . S
C1771 C1772 1.398 . S
C1771 C1777 1.491 . S
C1772 H1763 0.950 . S
C1772 C1771 1.398 . S
C1772 C1773 1.391 . S
C1773 H1761 0.950 . S
C1773 C1769 1.393 . S
C1773 C1772 1.391 . S
C1774 H1764 0.950 . S
C1774 C1775 1.386 . S
C1774 C1776 1.391 . S
C1775 C1774 1.386 . S
C1775 C1779 1.393 . S
C1776 H1765 0.950 . S
C1776 C1774 1.391 . S
C1776 C1777 1.400 . S
C1777 C1771 1.491 . S
C1777 C1776 1.400 . S
C1777 C1778 1.398 . S
C1778 H1766 0.950 . S
C1778 C1777 1.398 . S
C1778 C1779 1.391 . S
C1779 H1767 0.950 . S
C1779 C1775 1.393 . S
C1779 C1778 1.391 . S
H1780 C1788 0.950 . S
H1781 C1793 0.950 . S
H1782 C1790 0.950 . S
H1783 C1792 0.950 . S
H1784 C1794 0.950 . S
H1785 C1796 0.950 . S
H1786 C1798 0.950 . S
H1787 C1799 0.950 . S
C1788 H1780 0.950 . S
C1788 C1789 1.386 . S
C1788 C1790 1.391 . S
C1789 C1788 1.386 . S
C1789 C1793 1.393 . S
C1790 H1782 0.950 . S
C1790 C1788 1.391 . S
C1790 C1791 1.400 . S
C1791 C1790 1.400 . S
C1791 C1792 1.398 . S
C1791 C1797 1.491 . S
C1792 H1783 0.950 . S
C1792 C1791 1.398 . S
C1792 C1793 1.391 . S
C1793 H1781 0.950 . S
C1793 C1789 1.393 . S
C1793 C1792 1.391 . S
C1794 H1784 0.950 . S
C1794 C1795 1.386 . S
C1794 C1796 1.391 . S
C1795 C1794 1.386 . S
C1795 C1799 1.393 . S
C1796 H1785 0.950 . S
C1796 C1794 1.391 . S
C1796 C1797 1.400 . S
C1797 C1791 1.491 . S
C1797 C1796 1.400 . S
C1797 C1798 1.398 . S
C1798 H1786 0.950 . S
C1798 C1797 1.398 . S
C1798 C1799 1.391 . S
C1799 H1787 0.950 . S
C1799 C1795 1.393 . S
C1799 C1798 1.391 . S
H1800 C1808 0.950 . S
H1801 C1813 0.950 . S
H1802 C1810 0.950 . S
H1803 C1812 0.950 . S
H1804 C1814 0.950 . S
H1805 C1816 0.950 . S
H1806 C1818 0.950 . S
H1807 C1819 0.950 . S
C1808 H1800 0.950 . S
C1808 C1809 1.386 . S
C1808 C1810 1.391 . S
C1809 C1808 1.386 . S
C1809 C1813 1.393 . S
C1810 H1802 0.950 . S
C1810 C1808 1.391 . S
C1810 C1811 1.400 . S
C1811 C1810 1.400 . S
C1811 C1812 1.398 . S
C1811 C1817 1.491 . S
C1812 H1803 0.950 . S
C1812 C1811 1.398 . S
C1812 C1813 1.391 . S
C1813 H1801 0.950 . S
C1813 C1809 1.393 . S
C1813 C1812 1.391 . S
C1814 H1804 0.950 . S
C1814 C1815 1.386 . S
C1814 C1816 1.391 . S
C1815 C1814 1.386 . S
C1815 C1819 1.393 . S
C1816 H1805 0.950 . S
C1816 C1814 1.391 . S
C1816 C1817 1.400 . S
C1817 C1811 1.491 . S
C1817 C1816 1.400 . S
C1817 C1818 1.398 . S
C1818 H1806 0.950 . S
C1818 C1817 1.398 . S
C1818 C1819 1.391 . S
C1819 H1807 0.950 . S
C1819 C1815 1.393 . S
C1819 C1818 1.391 . S
H1820 C1828 0.950 . S
H1821 C1833 0.950 . S
H1822 C1830 0.950 . S
H1823 C1832 0.950 . S
H1824 C1834 0.950 . S
H1825 C1836 0.950 . S
H1826 C1838 0.950 . S
H1827 C1839 0.950 . S
C1828 H1820 0.950 . S
C1828 C1829 1.386 . S
C1828 C1830 1.391 . S
C1829 C1828 1.386 . S
C1829 C1833 1.393 . S
C1830 H1822 0.950 . S
C1830 C1828 1.391 . S
C1830 C1831 1.400 . S
C1831 C1830 1.400 . S
C1831 C1832 1.398 . S
C1831 C1837 1.491 . S
C1832 H1823 0.950 . S
C1832 C1831 1.398 . S
C1832 C1833 1.391 . S
C1833 H1821 0.950 . S
C1833 C1829 1.393 . S
C1833 C1832 1.391 . S
C1834 H1824 0.950 . S
C1834 C1835 1.386 . S
C1834 C1836 1.391 . S
C1835 C1834 1.386 . S
C1835 C1839 1.393 . S
C1836 H1825 0.950 . S
C1836 C1834 1.391 . S
C1836 C1837 1.400 . S
C1837 C1831 1.491 . S
C1837 C1836 1.400 . S
C1837 C1838 1.398 . S
C1838 H1826 0.950 . S
C1838 C1837 1.398 . S
C1838 C1839 1.391 . S
C1839 H1827 0.950 . S
C1839 C1835 1.393 . S
C1839 C1838 1.391 . S
H1840 C1848 0.950 . S
H1841 C1853 0.950 . S
H1842 C1850 0.950 . S
H1843 C1852 0.950 . S
H1844 C1854 0.950 . S
H1845 C1856 0.950 . S
H1846 C1858 0.950 . S
H1847 C1859 0.950 . S
C1848 H1840 0.950 . S
C1848 C1849 1.386 . S
C1848 C1850 1.391 . S
C1849 C1848 1.386 . S
C1849 C1853 1.393 . S
C1850 H1842 0.950 . S
C1850 C1848 1.391 . S
C1850 C1851 1.400 . S
C1851 C1850 1.400 . S
C1851 C1852 1.398 . S
C1851 C1857 1.491 . S
C1852 H1843 0.950 . S
C1852 C1851 1.398 . S
C1852 C1853 1.391 . S
C1853 H1841 0.950 . S
C1853 C1849 1.393 . S
C1853 C1852 1.391 . S
C1854 H1844 0.950 . S
C1854 C1855 1.386 . S
C1854 C1856 1.391 . S
C1855 C1854 1.386 . S
C1855 C1859 1.393 . S
C1856 H1845 0.950 . S
C1856 C1854 1.391 . S
C1856 C1857 1.400 . S
C1857 C1851 1.491 . S
C1857 C1856 1.400 . S
C1857 C1858 1.398 . S
C1858 H1846 0.950 . S
C1858 C1857 1.398 . S
C1858 C1859 1.391 . S
C1859 H1847 0.950 . S
C1859 C1855 1.393 . S
C1859 C1858 1.391 . S
H1860 C1868 0.950 . S
H1861 C1873 0.950 . S
H1862 C1870 0.950 . S
H1863 C1872 0.950 . S
H1864 C1874 0.950 . S
H1865 C1876 0.950 . S
H1866 C1878 0.950 . S
H1867 C1879 0.950 . S
C1868 H1860 0.950 . S
C1868 C1869 1.386 . S
C1868 C1870 1.391 . S
C1869 C1868 1.386 . S
C1869 C1873 1.393 . S
C1870 H1862 0.950 . S
C1870 C1868 1.391 . S
C1870 C1871 1.400 . S
C1871 C1870 1.400 . S
C1871 C1872 1.398 . S
C1871 C1877 1.491 . S
C1872 H1863 0.950 . S
C1872 C1871 1.398 . S
C1872 C1873 1.391 . S
C1873 H1861 0.950 . S
C1873 C1869 1.393 . S
C1873 C1872 1.391 . S
C1874 H1864 0.950 . S
C1874 C1875 1.386 . S
C1874 C1876 1.391 . S
C1875 C1874 1.386 . S
C1875 C1879 1.393 . S
C1876 H1865 0.950 . S
C1876 C1874 1.391 . S
C1876 C1877 1.400 . S
C1877 C1871 1.491 . S
C1877 C1876 1.400 . S
C1877 C1878 1.398 . S
C1878 H1866 0.950 . S
C1878 C1877 1.398 . S
C1878 C1879 1.391 . S
C1879 H1867 0.950 . S
C1879 C1875 1.393 . S
C1879 C1878 1.391 . S
H1880 C1888 0.950 . S
H1881 C1893 0.950 . S
H1882 C1890 0.950 . S
H1883 C1892 0.950 . S
H1884 C1894 0.950 . S
H1885 C1896 0.950 . S
H1886 C1898 0.950 . S
H1887 C1899 0.950 . S
C1888 H1880 0.950 . S
C1888 C1889 1.386 . S
C1888 C1890 1.391 . S
C1889 C1888 1.386 . S
C1889 C1893 1.393 . S
C1890 H1882 0.950 . S
C1890 C1888 1.391 . S
C1890 C1891 1.400 . S
C1891 C1890 1.400 . S
C1891 C1892 1.398 . S
C1891 C1897 1.491 . S
C1892 H1883 0.950 . S
C1892 C1891 1.398 . S
C1892 C1893 1.391 . S
C1893 H1881 0.950 . S
C1893 C1889 1.393 . S
C1893 C1892 1.391 . S
C1894 H1884 0.950 . S
C1894 C1895 1.386 . S
C1894 C1896 1.391 . S
C1895 C1894 1.386 . S
C1895 C1899 1.393 . S
C1896 H1885 0.950 . S
C1896 C1894 1.391 . S
C1896 C1897 1.400 . S
C1897 C1891 1.491 . S
C1897 C1896 1.400 . S
C1897 C1898 1.398 . S
C1898 H1886 0.950 . S
C1898 C1897 1.398 . S
C1898 C1899 1.391 . S
C1899 H1887 0.950 . S
C1899 C1895 1.393 . S
C1899 C1898 1.391 . S
H1900 C1908 0.950 . S
H1901 C1913 0.950 . S
H1902 C1910 0.950 . S
H1903 C1912 0.950 . S
H1904 C1914 0.950 . S
H1905 C1916 0.950 . S
H1906 C1918 0.950 . S
H1907 C1919 0.950 . S
C1908 H1900 0.950 . S
C1908 C1909 1.386 . S
C1908 C1910 1.391 . S
C1909 C1908 1.386 . S
C1909 C1913 1.393 . S
C1910 H1902 0.950 . S
C1910 C1908 1.391 . S
C1910 C1911 1.400 . S
C1911 C1910 1.400 . S
C1911 C1912 1.398 . S
C1911 C1917 1.491 . S
C1912 H1903 0.950 . S
C1912 C1911 1.398 . S
C1912 C1913 1.391 . S
C1913 H1901 0.950 . S
C1913 C1909 1.393 . S
C1913 C1912 1.391 . S
C1914 H1904 0.950 . S
C1914 C1915 1.386 . S
C1914 C1916 1.391 . S
C1915 C1914 1.386 . S
C1915 C1919 1.393 . S
C1916 H1905 0.950 . S
C1916 C1914 1.391 . S
C1916 C1917 1.400 . S
C1917 C1911 1.491 . S
C1917 C1916 1.400 . S
C1917 C1918 1.398 . S
C1918 H1906 0.950 . S
C1918 C1917 1.398 . S
C1918 C1919 1.391 . S
C1919 H1907 0.950 . S
C1919 C1915 1.393 . S
C1919 C1918 1.391 . S
H1920 C1928 0.950 . S
H1921 C1933 0.950 . S
H1922 C1930 0.950 . S
H1923 C1932 0.950 . S
H1924 C1934 0.950 . S
H1925 C1936 0.950 . S
H1926 C1938 0.950 . S
H1927 C1939 0.950 . S
C1928 H1920 0.950 . S
C1928 C1929 1.386 . S
C1928 C1930 1.391 . S
C1929 C1928 1.386 . S
C1929 C1933 1.393 . S
C1930 H1922 0.950 . S
C1930 C1928 1.391 . S
C1930 C1931 1.400 . S
C1931 C1930 1.400 . S
C1931 C1932 1.398 . S
C1931 C1937 1.491 . S
C1932 H1923 0.950 . S
C1932 C1931 1.398 . S
C1932 C1933 1.391 . S
C1933 H1921 0.950 . S
C1933 C1929 1.393 . S
C1933 C1932 1.391 . S
C1934 H1924 0.950 . S
C1934 C1935 1.386 . S
C1934 C1936 1.391 . S
C1935 C1934 1.386 . S
C1935 C1939 1.393 . S
C1936 H1925 0.950 . S
C1936 C1934 1.391 . S
C1936 C1937 1.400 . S
C1937 C1931 1.491 . S
C1937 C1936 1.400 . S
C1937 C1938 1.398 . S
C1938 H1926 0.950 . S
C1938 C1937 1.398 . S
C1938 C1939 1.391 . S
C1939 H1927 0.950 . S
C1939 C1935 1.393 . S
C1939 C1938 1.391 . S
H1940 C1948 0.950 . S
H1941 C1953 0.950 . S
H1942 C1950 0.961 . S
H1943 C1952 0.950 . S
H1944 C1954 0.950 . S
H1945 C1956 0.955 . S
H1946 C1958 0.950 . S
H1947 C1959 0.950 . S
C1948 H1940 0.950 . S
C1948 C1949 1.386 . S
C1948 C1950 1.385 1_545 S
C1949 C1948 1.386 . S
C1949 C1953 1.393 . S
C1950 H1942 0.961 . S
C1950 C1948 1.385 1_565 S
C1950 C1951 1.396 1_565 S
C1951 C1950 1.396 1_545 S
C1951 C1952 1.398 . S
C1951 C1957 1.491 1_545 S
C1952 H1943 0.950 . S
C1952 C1951 1.398 . S
C1952 C1953 1.391 . S
C1953 H1941 0.950 . S
C1953 C1949 1.393 . S
C1953 C1952 1.391 . S
C1954 H1944 0.950 . S
C1954 C1955 1.386 . S
C1954 C1956 1.388 1_565 S
C1955 C1954 1.386 . S
C1955 C1959 1.393 . S
C1956 H1945 0.955 . S
C1956 C1954 1.388 1_545 S
C1956 C1957 1.398 1_545 S
C1957 C1951 1.491 1_565 S
C1957 C1956 1.398 1_565 S
C1957 C1958 1.398 . S
C1958 H1946 0.950 . S
C1958 C1957 1.398 . S
C1958 C1959 1.391 . S
C1959 H1947 0.950 . S
C1959 C1955 1.393 . S
C1959 C1958 1.391 . S
H1960 C1968 0.950 1_545 S
H1961 C1973 0.950 . S
H1962 C1970 0.950 . S
H1963 C1972 0.950 . S
H1964 C1974 0.950 1_565 S
H1965 C1976 0.950 . S
H1966 C1978 0.950 . S
H1967 C1979 0.950 . S
C1968 H1960 0.950 1_565 S
C1968 C1969 1.386 . S
C1968 C1970 1.391 1_565 S
C1969 C1968 1.386 . S
C1969 C1973 1.393 . S
C1970 H1962 0.950 . S
C1970 C1968 1.391 1_545 S
C1970 C1971 1.400 1_545 S
C1971 C1970 1.400 1_565 S
C1971 C1972 1.398 . S
C1971 C1977 1.491 1_565 S
C1972 H1963 0.950 . S
C1972 C1971 1.398 . S
C1972 C1973 1.391 . S
C1973 H1961 0.950 . S
C1973 C1969 1.393 . S
C1973 C1972 1.391 . S
C1974 H1964 0.950 1_545 S
C1974 C1975 1.386 . S
C1974 C1976 1.391 1_545 S
C1975 C1974 1.386 . S
C1975 C1979 1.393 . S
C1976 H1965 0.950 . S
C1976 C1974 1.391 1_565 S
C1976 C1977 1.400 1_565 S
C1977 C1971 1.491 1_545 S
C1977 C1976 1.400 1_545 S
C1977 C1978 1.398 . S
C1978 H1966 0.950 . S
C1978 C1977 1.398 . S
C1978 C1979 1.391 . S
C1979 H1967 0.950 . S
C1979 C1975 1.393 . S
C1979 C1978 1.391 . S
H1980 C1988 0.950 . S
H1981 C1993 0.950 . S
H1982 C1990 0.950 . S
H1983 C1992 0.950 . S
H1984 C1994 0.950 . S
H1985 C1996 0.950 . S
H1986 C1998 0.950 . S
H1987 C1999 0.950 . S
C1988 H1980 0.950 . S
C1988 C1989 1.386 . S
C1988 C1990 1.391 . S
C1989 C1988 1.386 . S
C1989 C1993 1.393 . S
C1990 H1982 0.950 . S
C1990 C1988 1.391 . S
C1990 C1991 1.400 . S
C1991 C1990 1.400 . S
C1991 C1992 1.398 . S
C1991 C1997 1.491 . S
C1992 H1983 0.950 . S
C1992 C1991 1.398 . S
C1992 C1993 1.391 . S
C1993 H1981 0.950 . S
C1993 C1989 1.393 . S
C1993 C1992 1.391 . S
C1994 H1984 0.950 . S
C1994 C1995 1.386 . S
C1994 C1996 1.391 . S
C1995 C1994 1.386 . S
C1995 C1999 1.393 . S
C1996 H1985 0.950 . S
C1996 C1994 1.391 . S
C1996 C1997 1.400 . S
C1997 C1991 1.491 . S
C1997 C1996 1.400 . S
C1997 C1998 1.398 . S
C1998 H1986 0.950 . S
C1998 C1997 1.398 . S
C1998 C1999 1.391 . S
C1999 H1987 0.950 . S
C1999 C1995 1.393 . S
C1999 C1998 1.391 . S
H2000 C2008 0.950 . S
H2001 C2013 0.950 . S
H2002 C2010 0.950 . S
H2003 C2012 0.950 . S
H2004 C2014 0.950 . S
H2005 C2016 0.950 . S
H2006 C2018 0.950 . S
H2007 C2019 0.950 . S
C2008 H2000 0.950 . S
C2008 C2009 1.386 . S
C2008 C2010 1.391 . S
C2009 C2008 1.386 . S
C2009 C2013 1.393 . S
C2010 H2002 0.950 . S
C2010 C2008 1.391 . S
C2010 C2011 1.400 . S
C2011 C2010 1.400 . S
C2011 C2012 1.398 . S
C2011 C2017 1.491 . S
C2012 H2003 0.950 . S
C2012 C2011 1.398 . S
C2012 C2013 1.391 . S
C2013 H2001 0.950 . S
C2013 C2009 1.393 . S
C2013 C2012 1.391 . S
C2014 H2004 0.950 . S
C2014 C2015 1.386 . S
C2014 C2016 1.391 . S
C2015 C2014 1.386 . S
C2015 C2019 1.393 . S
C2016 H2005 0.950 . S
C2016 C2014 1.391 . S
C2016 C2017 1.400 . S
C2017 C2011 1.491 . S
C2017 C2016 1.400 . S
C2017 C2018 1.398 . S
C2018 H2006 0.950 . S
C2018 C2017 1.398 . S
C2018 C2019 1.391 . S
C2019 H2007 0.950 . S
C2019 C2015 1.393 . S
C2019 C2018 1.391 . S
H2020 C2028 0.950 . S
H2021 C2033 0.950 . S
H2022 C2030 0.950 . S
H2023 C2032 0.950 . S
H2024 C2034 0.950 . S
H2025 C2036 0.950 . S
H2026 C2038 0.950 . S
H2027 C2039 0.950 . S
C2028 H2020 0.950 . S
C2028 C2029 1.386 . S
C2028 C2030 1.391 . S
C2029 C2028 1.386 . S
C2029 C2033 1.393 . S
C2030 H2022 0.950 . S
C2030 C2028 1.391 . S
C2030 C2031 1.400 . S
C2031 C2030 1.400 . S
C2031 C2032 1.398 1_545 S
C2031 C2037 1.491 1_545 S
C2032 H2023 0.950 . S
C2032 C2031 1.398 1_565 S
C2032 C2033 1.391 1_565 S
C2033 H2021 0.950 . S
C2033 C2029 1.393 . S
C2033 C2032 1.391 1_545 S
C2034 H2024 0.950 . S
C2034 C2035 1.386 . S
C2034 C2036 1.391 . S
C2035 C2034 1.386 . S
C2035 C2039 1.393 . S
C2036 H2025 0.950 . S
C2036 C2034 1.391 . S
C2036 C2037 1.400 . S
C2037 C2031 1.491 1_565 S
C2037 C2036 1.400 . S
C2037 C2038 1.398 1_565 S
C2038 H2026 0.950 . S
C2038 C2037 1.398 1_545 S
C2038 C2039 1.391 1_545 S
C2039 H2027 0.950 . S
C2039 C2035 1.393 . S
C2039 C2038 1.391 1_565 S
H2040 C2048 0.950 . S
H2041 C2053 0.950 1_565 S
H2042 C2050 0.950 . S
H2043 C2052 0.950 . S
H2044 C2054 0.950 . S
H2045 C2056 0.950 . S
H2046 C2058 0.950 . S
H2047 C2059 0.950 1_545 S
C2048 H2040 0.950 . S
C2048 C2049 1.386 . S
C2048 C2050 1.391 . S
C2049 C2048 1.386 . S
C2049 C2053 1.393 . S
C2050 H2042 0.950 . S
C2050 C2048 1.391 . S
C2050 C2051 1.400 . S
C2051 C2050 1.400 . S
C2051 C2052 1.398 1_545 S
C2051 C2057 1.491 1_545 S
C2052 H2043 0.950 . S
C2052 C2051 1.398 1_565 S
C2052 C2053 1.391 1_565 S
C2053 H2041 0.950 1_545 S
C2053 C2049 1.393 . S
C2053 C2052 1.391 1_545 S
C2054 H2044 0.950 . S
C2054 C2055 1.386 . S
C2054 C2056 1.391 . S
C2055 C2054 1.386 . S
C2055 C2059 1.393 . S
C2056 H2045 0.950 . S
C2056 C2054 1.391 . S
C2056 C2057 1.400 . S
C2057 C2051 1.491 1_565 S
C2057 C2056 1.400 . S
C2057 C2058 1.398 1_565 S
C2058 H2046 0.950 . S
C2058 C2057 1.398 1_545 S
C2058 C2059 1.391 1_545 S
C2059 H2047 0.950 1_565 S
C2059 C2055 1.393 . S
C2059 C2058 1.391 1_565 S
H2060 C2068 0.950 . S
H2061 C2073 0.950 . S
H2062 C2070 0.950 . S
H2063 C2072 0.950 . S
H2064 C2074 0.950 . S
H2065 C2076 0.950 . S
H2066 C2078 0.950 . S
H2067 C2079 0.950 . S
C2068 H2060 0.950 . S
C2068 C2069 1.386 . S
C2068 C2070 1.391 . S
C2069 C2068 1.386 . S
C2069 C2073 1.393 . S
C2070 H2062 0.950 . S
C2070 C2068 1.391 . S
C2070 C2071 1.400 . S
C2071 C2070 1.400 . S
C2071 C2072 1.398 . S
C2071 C2077 1.491 . S
C2072 H2063 0.950 . S
C2072 C2071 1.398 . S
C2072 C2073 1.391 . S
C2073 H2061 0.950 . S
C2073 C2069 1.393 . S
C2073 C2072 1.391 . S
C2074 H2064 0.950 . S
C2074 C2075 1.386 . S
C2074 C2076 1.391 . S
C2075 C2074 1.386 . S
C2075 C2079 1.393 . S
C2076 H2065 0.950 . S
C2076 C2074 1.391 . S
C2076 C2077 1.400 . S
C2077 C2071 1.491 . S
C2077 C2076 1.400 . S
C2077 C2078 1.398 . S
C2078 H2066 0.950 . S
C2078 C2077 1.398 . S
C2078 C2079 1.391 . S
C2079 H2067 0.950 . S
C2079 C2075 1.393 . S
C2079 C2078 1.391 . S
H2080 C2088 0.950 . S
H2081 C2093 0.950 . S
H2082 C2090 0.950 . S
H2083 C2092 0.950 . S
H2084 C2094 0.950 . S
H2085 C2096 0.950 . S
H2086 C2098 0.950 . S
H2087 C2099 0.950 . S
C2088 H2080 0.950 . S
C2088 C2089 1.386 . S
C2088 C2090 1.391 . S
C2089 C2088 1.386 . S
C2089 C2093 1.393 . S
C2090 H2082 0.950 . S
C2090 C2088 1.391 . S
C2090 C2091 1.400 . S
C2091 C2090 1.400 . S
C2091 C2092 1.398 . S
C2091 C2097 1.491 . S
C2092 H2083 0.950 . S
C2092 C2091 1.398 . S
C2092 C2093 1.391 . S
C2093 H2081 0.950 . S
C2093 C2089 1.393 . S
C2093 C2092 1.391 . S
C2094 H2084 0.950 . S
C2094 C2095 1.386 . S
C2094 C2096 1.391 . S
C2095 C2094 1.386 . S
C2095 C2099 1.393 . S
C2096 H2085 0.950 . S
C2096 C2094 1.391 . S
C2096 C2097 1.400 . S
C2097 C2091 1.491 . S
C2097 C2096 1.400 . S
C2097 C2098 1.398 . S
C2098 H2086 0.950 . S
C2098 C2097 1.398 . S
C2098 C2099 1.391 . S
C2099 H2087 0.950 . S
C2099 C2095 1.393 . S
C2099 C2098 1.391 . S
H2100 C2108 0.950 . S
H2101 C2113 0.950 . S
H2102 C2110 0.950 . S
H2103 C2112 0.950 . S
H2104 C2114 0.950 . S
H2105 C2116 0.950 . S
H2106 C2118 0.950 . S
H2107 C2119 0.950 . S
C2108 H2100 0.950 . S
C2108 C2109 1.386 . S
C2108 C2110 1.391 . S
C2109 C2108 1.386 . S
C2109 C2113 1.393 . S
C2110 H2102 0.950 . S
C2110 C2108 1.391 . S
C2110 C2111 1.400 . S
C2111 C2110 1.400 . S
C2111 C2112 1.398 . S
C2111 C2117 1.491 . S
C2112 H2103 0.950 . S
C2112 C2111 1.398 . S
C2112 C2113 1.391 . S
C2113 H2101 0.950 . S
C2113 C2109 1.393 . S
C2113 C2112 1.391 . S
C2114 H2104 0.950 . S
C2114 C2115 1.386 . S
C2114 C2116 1.391 . S
C2115 C2114 1.386 . S
C2115 C2119 1.393 . S
C2116 H2105 0.950 . S
C2116 C2114 1.391 . S
C2116 C2117 1.400 . S
C2117 C2111 1.491 . S
C2117 C2116 1.400 . S
C2117 C2118 1.398 . S
C2118 H2106 0.950 . S
C2118 C2117 1.398 . S
C2118 C2119 1.391 . S
C2119 H2107 0.950 . S
C2119 C2115 1.393 . S
C2119 C2118 1.391 . S
H2120 C2128 0.950 . S
H2121 C2133 0.950 . S
H2122 C2130 0.950 . S
H2123 C2132 0.950 . S
H2124 C2134 0.950 . S
H2125 C2136 0.950 . S
H2126 C2138 0.950 . S
H2127 C2139 0.950 . S
C2128 H2120 0.950 . S
C2128 C2129 1.386 . S
C2128 C2130 1.391 . S
C2129 C2128 1.386 . S
C2129 C2133 1.393 . S
C2130 H2122 0.950 . S
C2130 C2128 1.391 . S
C2130 C2131 1.390 1_556 S
C2131 C2130 1.390 1_554 S
C2131 C2132 1.386 1_554 S
C2131 C2137 1.512 . S
C2132 H2123 0.950 . S
C2132 C2131 1.386 1_556 S
C2132 C2133 1.391 . S
C2133 H2121 0.950 . S
C2133 C2129 1.393 . S
C2133 C2132 1.391 . S
C2134 H2124 0.950 . S
C2134 C2135 1.386 . S
C2134 C2136 1.391 . S
C2135 C2134 1.386 . S
C2135 C2139 1.393 . S
C2136 H2125 0.950 . S
C2136 C2134 1.391 . S
C2136 C2137 1.400 . S
C2137 C2131 1.512 . S
C2137 C2136 1.400 . S
C2137 C2138 1.398 . S
C2138 H2126 0.950 . S
C2138 C2137 1.398 . S
C2138 C2139 1.391 . S
C2139 H2127 0.950 . S
C2139 C2135 1.393 . S
C2139 C2138 1.391 . S
H2140 C2148 0.950 . S
H2141 C2153 0.950 . S
H2142 C2150 0.950 1_554 S
H2143 C2152 0.950 . S
H2144 C2154 0.950 . S
H2145 C2156 0.950 . S
H2146 C2158 0.950 . S
H2147 C2159 0.950 . S
C2148 H2140 0.950 . S
C2148 C2149 1.386 . S
C2148 C2150 1.391 . S
C2149 C2148 1.386 . S
C2149 C2153 1.393 . S
C2150 H2142 0.950 1_556 S
C2150 C2148 1.391 . S
C2150 C2151 1.393 1_556 S
C2151 C2150 1.393 1_554 S
C2151 C2152 1.386 1_554 S
C2151 C2157 1.509 . S
C2152 H2143 0.950 . S
C2152 C2151 1.386 1_556 S
C2152 C2153 1.391 . S
C2153 H2141 0.950 . S
C2153 C2149 1.393 . S
C2153 C2152 1.391 . S
C2154 H2144 0.950 . S
C2154 C2155 1.386 . S
C2154 C2156 1.391 . S
C2155 C2154 1.386 . S
C2155 C2159 1.393 . S
C2156 H2145 0.950 . S
C2156 C2154 1.391 . S
C2156 C2157 1.400 . S
C2157 C2151 1.509 . S
C2157 C2156 1.400 . S
C2157 C2158 1.398 . S
C2158 H2146 0.950 . S
C2158 C2157 1.398 . S
C2158 C2159 1.391 . S
C2159 H2147 0.950 . S
C2159 C2155 1.393 . S
C2159 C2158 1.391 . S
H2160 C2168 0.950 . S
H2161 C2173 0.950 . S
H2162 C2170 0.950 . S
H2163 C2172 0.950 . S
H2164 C2174 0.950 . S
H2165 C2176 0.950 . S
H2166 C2178 0.950 . S
H2167 C2179 0.950 . S
C2168 H2160 0.950 . S
C2168 C2169 1.386 . S
C2168 C2170 1.391 . S
C2169 C2168 1.386 . S
C2169 C2173 1.393 . S
C2170 H2162 0.950 . S
C2170 C2168 1.391 . S
C2170 C2171 1.400 . S
C2171 C2170 1.400 . S
C2171 C2172 1.398 . S
C2171 C2177 1.491 . S
C2172 H2163 0.950 . S
C2172 C2171 1.398 . S
C2172 C2173 1.391 . S
C2173 H2161 0.950 . S
C2173 C2169 1.393 . S
C2173 C2172 1.391 . S
C2174 H2164 0.950 . S
C2174 C2175 1.386 . S
C2174 C2176 1.391 . S
C2175 C2174 1.386 . S
C2175 C2179 1.393 . S
C2176 H2165 0.950 . S
C2176 C2174 1.391 . S
C2176 C2177 1.400 . S
C2177 C2171 1.491 . S
C2177 C2176 1.400 . S
C2177 C2178 1.398 . S
C2178 H2166 0.950 . S
C2178 C2177 1.398 . S
C2178 C2179 1.391 . S
C2179 H2167 0.950 . S
C2179 C2175 1.393 . S
C2179 C2178 1.391 . S
H2180 C2188 0.950 . S
H2181 C2193 0.950 . S
H2182 C2190 0.950 . S
H2183 C2192 0.950 . S
H2184 C2194 0.950 . S
H2185 C2196 0.950 . S
H2186 C2198 0.950 . S
H2187 C2199 0.950 . S
C2188 H2180 0.950 . S
C2188 C2189 1.386 . S
C2188 C2190 1.391 . S
C2189 C2188 1.386 . S
C2189 C2193 1.393 . S
C2190 H2182 0.950 . S
C2190 C2188 1.391 . S
C2190 C2191 1.400 . S
C2191 C2190 1.400 . S
C2191 C2192 1.398 . S
C2191 C2197 1.491 . S
C2192 H2183 0.950 . S
C2192 C2191 1.398 . S
C2192 C2193 1.391 . S
C2193 H2181 0.950 . S
C2193 C2189 1.393 . S
C2193 C2192 1.391 . S
C2194 H2184 0.950 . S
C2194 C2195 1.386 . S
C2194 C2196 1.391 . S
C2195 C2194 1.386 . S
C2195 C2199 1.393 . S
C2196 H2185 0.950 . S
C2196 C2194 1.391 . S
C2196 C2197 1.400 . S
C2197 C2191 1.491 . S
C2197 C2196 1.400 . S
C2197 C2198 1.398 . S
C2198 H2186 0.950 . S
C2198 C2197 1.398 . S
C2198 C2199 1.391 . S
C2199 H2187 0.950 . S
C2199 C2195 1.393 . S
C2199 C2198 1.391 . S
H2200 C2208 0.950 . S
H2201 C2213 0.950 . S
H2202 C2210 0.950 . S
H2203 C2212 0.950 . S
H2204 C2214 0.950 . S
H2205 C2216 0.950 . S
H2206 C2218 0.950 . S
H2207 C2219 0.950 . S
C2208 H2200 0.950 . S
C2208 C2209 1.386 . S
C2208 C2210 1.391 . S
C2209 C2208 1.386 . S
C2209 C2213 1.393 . S
C2210 H2202 0.950 . S
C2210 C2208 1.391 . S
C2210 C2211 1.388 1_554 S
C2211 C2210 1.388 1_556 S
C2211 C2212 1.388 1_556 S
C2211 C2217 1.513 . S
C2212 H2203 0.950 . S
C2212 C2211 1.388 1_554 S
C2212 C2213 1.391 . S
C2213 H2201 0.950 . S
C2213 C2209 1.393 . S
C2213 C2212 1.391 . S
C2214 H2204 0.950 . S
C2214 C2215 1.386 . S
C2214 C2216 1.391 . S
C2215 C2214 1.386 . S
C2215 C2219 1.393 . S
C2216 H2205 0.950 . S
C2216 C2214 1.391 . S
C2216 C2217 1.400 . S
C2217 C2211 1.513 . S
C2217 C2216 1.400 . S
C2217 C2218 1.398 . S
C2218 H2206 0.950 . S
C2218 C2217 1.398 . S
C2218 C2219 1.391 . S
C2219 H2207 0.950 . S
C2219 C2215 1.393 . S
C2219 C2218 1.391 . S
H2220 C2228 0.950 . S
H2221 C2233 0.950 . S
H2222 C2230 0.950 . S
H2223 C2232 0.950 . S
H2224 C2234 0.950 . S
H2225 C2236 0.950 . S
H2226 C2238 0.950 1_556 S
H2227 C2239 0.950 . S
C2228 H2220 0.950 . S
C2228 C2229 1.386 . S
C2228 C2230 1.391 . S
C2229 C2228 1.386 . S
C2229 C2233 1.393 . S
C2230 H2222 0.950 . S
C2230 C2228 1.391 . S
C2230 C2231 1.400 . S
C2231 C2230 1.400 . S
C2231 C2232 1.398 . S
C2231 C2237 1.491 . S
C2232 H2223 0.950 . S
C2232 C2231 1.398 . S
C2232 C2233 1.391 . S
C2233 H2221 0.950 . S
C2233 C2229 1.393 . S
C2233 C2232 1.391 . S
C2234 H2224 0.950 . S
C2234 C2235 1.386 . S
C2234 C2236 1.391 . S
C2235 C2234 1.386 . S
C2235 C2239 1.393 . S
C2236 H2225 0.950 . S
C2236 C2234 1.391 . S
C2236 C2237 1.400 1_554 S
C2237 C2231 1.491 . S
C2237 C2236 1.400 1_556 S
C2237 C2238 1.398 1_556 S
C2238 H2226 0.950 1_554 S
C2238 C2237 1.398 1_554 S
C2238 C2239 1.391 . S
C2239 H2227 0.950 . S
C2239 C2235 1.393 . S
C2239 C2238 1.391 . S
H2240 C2248 0.950 . S
H2241 C2253 0.950 . S
H2242 C2250 0.950 . S
H2243 C2252 0.950 . S
H2244 C2254 0.950 . S
H2245 C2256 0.950 . S
H2246 C2258 0.950 . S
H2247 C2259 0.950 . S
C2248 H2240 0.950 . S
C2248 C2249 1.386 . S
C2248 C2250 1.391 . S
C2249 C2248 1.386 . S
C2249 C2253 1.393 . S
C2250 H2242 0.950 . S
C2250 C2248 1.391 . S
C2250 C2251 1.400 . S
C2251 C2250 1.400 . S
C2251 C2252 1.398 . S
C2251 C2257 1.491 . S
C2252 H2243 0.950 . S
C2252 C2251 1.398 . S
C2252 C2253 1.391 . S
C2253 H2241 0.950 . S
C2253 C2249 1.393 . S
C2253 C2252 1.391 . S
C2254 H2244 0.950 . S
C2254 C2255 1.386 . S
C2254 C2256 1.391 . S
C2255 C2254 1.386 . S
C2255 C2259 1.393 . S
C2256 H2245 0.950 . S
C2256 C2254 1.391 . S
C2256 C2257 1.400 . S
C2257 C2251 1.491 . S
C2257 C2256 1.400 . S
C2257 C2258 1.398 . S
C2258 H2246 0.950 . S
C2258 C2257 1.398 . S
C2258 C2259 1.391 . S
C2259 H2247 0.950 . S
C2259 C2255 1.393 . S
C2259 C2258 1.391 . S
H2260 C2268 0.950 . S
H2261 C2273 0.950 . S
H2262 C2270 0.950 1_545 S
H2263 C2272 0.950 . S
H2264 C2274 0.950 . S
H2265 C2276 0.950 1_565 S
H2266 C2278 0.950 . S
H2267 C2279 0.950 . S
C2268 H2260 0.950 . S
C2268 C2269 1.386 . S
C2268 C2270 1.391 . S
C2269 C2268 1.386 . S
C2269 C2273 1.393 . S
C2270 H2262 0.950 1_565 S
C2270 C2268 1.391 . S
C2270 C2271 1.400 . S
C2271 C2270 1.400 . S
C2271 C2272 1.398 . S
C2271 C2277 1.491 1_565 S
C2272 H2263 0.950 . S
C2272 C2271 1.398 . S
C2272 C2273 1.391 . S
C2273 H2261 0.950 . S
C2273 C2269 1.393 . S
C2273 C2272 1.391 . S
C2274 H2264 0.950 . S
C2274 C2275 1.386 . S
C2274 C2276 1.391 . S
C2275 C2274 1.386 . S
C2275 C2279 1.393 . S
C2276 H2265 0.950 1_545 S
C2276 C2274 1.391 . S
C2276 C2277 1.400 . S
C2277 C2271 1.491 1_545 S
C2277 C2276 1.400 . S
C2277 C2278 1.398 . S
C2278 H2266 0.950 . S
C2278 C2277 1.398 . S
C2278 C2279 1.391 . S
C2279 H2267 0.950 . S
C2279 C2275 1.393 . S
C2279 C2278 1.391 . S
H2280 C2288 0.950 . S
H2281 C2293 0.950 . S
H2282 C2290 0.950 1_554 S
H2283 C2292 0.950 . S
H2284 C2294 0.950 . S
H2285 C2296 0.950 . S
H2286 C2298 0.950 . S
H2287 C2299 0.950 . S
C2288 H2280 0.950 . S
C2288 C2289 1.386 . S
C2288 C2290 1.391 . S
C2289 C2288 1.386 . S
C2289 C2293 1.393 1_565 S
C2290 H2282 0.950 1_556 S
C2290 C2288 1.391 . S
C2290 C2291 1.400 1_556 S
C2291 C2290 1.400 1_554 S
C2291 C2292 1.398 1_564 S
C2291 C2297 1.491 1_565 S
C2292 H2283 0.950 . S
C2292 C2291 1.398 1_546 S
C2292 C2293 1.391 . S
C2293 H2281 0.950 . S
C2293 C2289 1.393 1_545 S
C2293 C2292 1.391 . S
C2294 H2284 0.950 . S
C2294 C2295 1.386 . S
C2294 C2296 1.391 . S
C2295 C2294 1.386 . S
C2295 C2299 1.393 1_545 S
C2296 H2285 0.950 . S
C2296 C2294 1.391 . S
C2296 C2297 1.400 . S
C2297 C2291 1.491 1_545 S
C2297 C2296 1.400 . S
C2297 C2298 1.398 1_545 S
C2298 H2286 0.950 . S
C2298 C2297 1.398 1_565 S
C2298 C2299 1.391 . S
C2299 H2287 0.950 . S
C2299 C2295 1.393 1_565 S
C2299 C2298 1.391 . S
H2300 C2308 0.950 . S
H2301 C2313 0.950 . S
H2302 C2310 0.950 1_554 S
H2303 C2312 0.950 . S
H2304 C2314 0.950 . S
H2305 C2316 0.950 . S
H2306 C2318 0.950 . S
H2307 C2319 0.950 . S
C2308 H2300 0.950 . S
C2308 C2309 1.386 . S
C2308 C2310 1.391 . S
C2309 C2308 1.386 . S
C2309 C2313 1.393 . S
C2310 H2302 0.950 1_556 S
C2310 C2308 1.391 . S
C2310 C2311 1.400 1_556 S
C2311 C2310 1.400 1_554 S
C2311 C2312 1.398 1_554 S
C2311 C2317 1.491 . S
C2312 H2303 0.950 . S
C2312 C2311 1.398 1_556 S
C2312 C2313 1.391 . S
C2313 H2301 0.950 . S
C2313 C2309 1.393 . S
C2313 C2312 1.391 . S
C2314 H2304 0.950 . S
C2314 C2315 1.386 . S
C2314 C2316 1.391 . S
C2315 C2314 1.386 . S
C2315 C2319 1.393 . S
C2316 H2305 0.950 . S
C2316 C2314 1.391 . S
C2316 C2317 1.400 . S
C2317 C2311 1.491 . S
C2317 C2316 1.400 . S
C2317 C2318 1.398 . S
C2318 H2306 0.950 . S
C2318 C2317 1.398 . S
C2318 C2319 1.391 . S
C2319 H2307 0.950 . S
C2319 C2315 1.393 . S
C2319 C2318 1.391 . S
H2320 C2328 0.950 . S
H2321 C2333 0.950 . S
H2322 C2330 0.950 . S
H2323 C2332 0.950 . S
H2324 C2334 0.950 . S
H2325 C2336 0.950 . S
H2326 C2338 0.950 . S
H2327 C2339 0.950 . S
C2328 H2320 0.950 . S
C2328 C2329 1.386 . S
C2328 C2330 1.391 . S
C2329 C2328 1.386 . S
C2329 C2333 1.393 . S
C2330 H2322 0.950 . S
C2330 C2328 1.391 . S
C2330 C2331 1.400 . S
C2331 C2330 1.400 . S
C2331 C2332 1.398 . S
C2331 C2337 1.491 . S
C2332 H2323 0.950 . S
C2332 C2331 1.398 . S
C2332 C2333 1.391 . S
C2333 H2321 0.950 . S
C2333 C2329 1.393 . S
C2333 C2332 1.391 . S
C2334 H2324 0.950 . S
C2334 C2335 1.386 . S
C2334 C2336 1.391 . S
C2335 C2334 1.386 . S
C2335 C2339 1.393 . S
C2336 H2325 0.950 . S
C2336 C2334 1.391 . S
C2336 C2337 1.400 . S
C2337 C2331 1.491 . S
C2337 C2336 1.400 . S
C2337 C2338 1.398 . S
C2338 H2326 0.950 . S
C2338 C2337 1.398 . S
C2338 C2339 1.391 . S
C2339 H2327 0.950 . S
C2339 C2335 1.393 . S
C2339 C2338 1.391 . S
H2340 C2348 0.950 . S
H2341 C2353 0.950 . S
H2342 C2350 0.950 . S
H2343 C2352 0.950 . S
H2344 C2354 0.950 . S
H2345 C2356 0.950 . S
H2346 C2358 0.950 . S
H2347 C2359 0.950 . S
C2348 H2340 0.950 . S
C2348 C2349 1.386 . S
C2348 C2350 1.391 . S
C2349 C2348 1.386 . S
C2349 C2353 1.393 1_545 S
C2350 H2342 0.950 . S
C2350 C2348 1.391 . S
C2350 C2351 1.400 . S
C2351 C2350 1.400 . S
C2351 C2352 1.398 1_545 S
C2351 C2357 1.491 1_545 S
C2352 H2343 0.950 . S
C2352 C2351 1.398 1_565 S
C2352 C2353 1.391 . S
C2353 H2341 0.950 . S
C2353 C2349 1.393 1_565 S
C2353 C2352 1.391 . S
C2354 H2344 0.950 . S
C2354 C2355 1.386 . S
C2354 C2356 1.391 . S
C2355 C2354 1.386 . S
C2355 C2359 1.393 1_565 S
C2356 H2345 0.950 . S
C2356 C2354 1.391 . S
C2356 C2357 1.400 . S
C2357 C2351 1.491 1_565 S
C2357 C2356 1.400 . S
C2357 C2358 1.398 1_565 S
C2358 H2346 0.950 . S
C2358 C2357 1.398 1_545 S
C2358 C2359 1.391 . S
C2359 H2347 0.950 . S
C2359 C2355 1.393 1_545 S
C2359 C2358 1.391 . S
H2360 C2368 0.950 . S
H2361 C2373 0.950 . S
H2362 C2370 0.950 . S
H2363 C2372 0.966 . S
H2364 C2374 0.950 . S
H2365 C2376 0.950 1_556 S
H2366 C2378 0.960 . S
H2367 C2379 0.950 . S
C2368 H2360 0.950 . S
C2368 C2369 1.386 . S
C2368 C2370 1.391 . S
C2369 C2368 1.386 . S
C2369 C2373 1.393 . S
C2370 H2362 0.950 . S
C2370 C2368 1.391 . S
C2370 C2371 1.400 . S
C2371 C2370 1.400 . S
C2371 C2372 1.393 1_565 S
C2371 C2377 1.491 1_565 S
C2372 H2363 0.966 . S
C2372 C2371 1.393 1_545 S
C2372 C2373 1.381 1_545 S
C2373 H2361 0.950 . S
C2373 C2369 1.393 . S
C2373 C2372 1.381 1_565 S
C2374 H2364 0.950 . S
C2374 C2375 1.386 . S
C2374 C2376 1.391 . S
C2375 C2374 1.386 . S
C2375 C2379 1.393 . S
C2376 H2365 0.950 1_554 S
C2376 C2374 1.391 . S
C2376 C2377 1.400 1_554 S
C2377 C2371 1.491 1_545 S
C2377 C2376 1.400 1_556 S
C2377 C2378 1.395 1_546 S
C2378 H2366 0.960 . S
C2378 C2377 1.395 1_564 S
C2378 C2379 1.385 1_565 S
C2379 H2367 0.950 . S
C2379 C2375 1.393 . S
C2379 C2378 1.385 1_545 S
H2380 C2388 0.950 . S
H2381 C2393 0.950 . S
H2382 C2390 0.950 . S
H2383 C2392 0.950 . S
H2384 C2394 0.950 . S
H2385 C2396 0.950 . S
H2386 C2398 0.950 . S
H2387 C2399 0.950 . S
C2388 H2380 0.950 . S
C2388 C2389 1.386 . S
C2388 C2390 1.391 . S
C2389 C2388 1.386 . S
C2389 C2393 1.393 . S
C2390 H2382 0.950 . S
C2390 C2388 1.391 . S
C2390 C2391 1.400 . S
C2391 C2390 1.400 . S
C2391 C2392 1.398 . S
C2391 C2397 1.491 . S
C2392 H2383 0.950 . S
C2392 C2391 1.398 . S
C2392 C2393 1.391 . S
C2393 H2381 0.950 . S
C2393 C2389 1.393 . S
C2393 C2392 1.391 . S
C2394 H2384 0.950 . S
C2394 C2395 1.386 . S
C2394 C2396 1.391 . S
C2395 C2394 1.386 . S
C2395 C2399 1.393 . S
C2396 H2385 0.950 . S
C2396 C2394 1.391 . S
C2396 C2397 1.400 1_554 S
C2397 C2391 1.491 . S
C2397 C2396 1.400 1_556 S
C2397 C2398 1.398 1_556 S
C2398 H2386 0.950 . S
C2398 C2397 1.398 1_554 S
C2398 C2399 1.391 . S
C2399 H2387 0.950 . S
C2399 C2395 1.393 . S
C2399 C2398 1.391 . S
H2400 C2408 0.950 . S
H2401 C2413 0.950 . S
H2402 C2410 0.950 . S
H2403 C2412 0.950 . S
H2404 C2414 0.950 . S
H2405 C2416 0.950 . S
H2406 C2418 0.950 . S
H2407 C2419 0.950 . S
C2408 H2400 0.950 . S
C2408 C2409 1.386 . S
C2408 C2410 1.391 . S
C2409 C2408 1.386 . S
C2409 C2413 1.393 . S
C2410 H2402 0.950 . S
C2410 C2408 1.391 . S
C2410 C2411 1.400 . S
C2411 C2410 1.400 . S
C2411 C2412 1.398 . S
C2411 C2417 1.491 . S
C2412 H2403 0.950 . S
C2412 C2411 1.398 . S
C2412 C2413 1.391 . S
C2413 H2401 0.950 . S
C2413 C2409 1.393 . S
C2413 C2412 1.391 . S
C2414 H2404 0.950 . S
C2414 C2415 1.386 . S
C2414 C2416 1.391 . S
C2415 C2414 1.386 . S
C2415 C2419 1.393 . S
C2416 H2405 0.950 . S
C2416 C2414 1.391 . S
C2416 C2417 1.400 . S
C2417 C2411 1.491 . S
C2417 C2416 1.400 . S
C2417 C2418 1.398 . S
C2418 H2406 0.950 . S
C2418 C2417 1.398 . S
C2418 C2419 1.391 . S
C2419 H2407 0.950 . S
C2419 C2415 1.393 . S
C2419 C2418 1.391 . S
H2420 C2428 0.950 . S
H2421 C2433 0.950 . S
H2422 C2430 0.950 . S
H2423 C2432 0.950 . S
H2424 C2434 0.950 . S
H2425 C2436 0.950 . S
H2426 C2438 0.950 . S
H2427 C2439 0.950 . S
C2428 H2420 0.950 . S
C2428 C2429 1.386 . S
C2428 C2430 1.391 . S
C2429 C2428 1.386 . S
C2429 C2433 1.393 . S
C2430 H2422 0.950 . S
C2430 C2428 1.391 . S
C2430 C2431 1.400 . S
C2431 C2430 1.400 . S
C2431 C2432 1.398 . S
C2431 C2437 1.491 . S
C2432 H2423 0.950 . S
C2432 C2431 1.398 . S
C2432 C2433 1.391 . S
C2433 H2421 0.950 . S
C2433 C2429 1.393 . S
C2433 C2432 1.391 . S
C2434 H2424 0.950 . S
C2434 C2435 1.386 . S
C2434 C2436 1.391 . S
C2435 C2434 1.386 . S
C2435 C2439 1.393 . S
C2436 H2425 0.950 . S
C2436 C2434 1.391 . S
C2436 C2437 1.400 . S
C2437 C2431 1.491 . S
C2437 C2436 1.400 . S
C2437 C2438 1.398 . S
C2438 H2426 0.950 . S
C2438 C2437 1.398 . S
C2438 C2439 1.391 . S
C2439 H2427 0.950 . S
C2439 C2435 1.393 . S
C2439 C2438 1.391 . S
H2440 C2448 0.950 . S
H2441 C2453 0.950 . S
H2442 C2450 0.950 . S
H2443 C2452 0.950 . S
H2444 C2454 0.950 . S
H2445 C2456 0.950 . S
H2446 C2458 0.950 . S
H2447 C2459 0.950 . S
C2448 H2440 0.950 . S
C2448 C2449 1.386 . S
C2448 C2450 1.391 . S
C2449 C2448 1.386 . S
C2449 C2453 1.393 . S
C2450 H2442 0.950 . S
C2450 C2448 1.391 . S
C2450 C2451 1.400 . S
C2451 C2450 1.400 . S
C2451 C2452 1.398 . S
C2451 C2457 1.491 . S
C2452 H2443 0.950 . S
C2452 C2451 1.398 . S
C2452 C2453 1.391 . S
C2453 H2441 0.950 . S
C2453 C2449 1.393 . S
C2453 C2452 1.391 . S
C2454 H2444 0.950 . S
C2454 C2455 1.386 . S
C2454 C2456 1.391 . S
C2455 C2454 1.386 . S
C2455 C2459 1.393 . S
C2456 H2445 0.950 . S
C2456 C2454 1.391 . S
C2456 C2457 1.400 . S
C2457 C2451 1.491 . S
C2457 C2456 1.400 . S
C2457 C2458 1.398 . S
C2458 H2446 0.950 . S
C2458 C2457 1.398 . S
C2458 C2459 1.391 . S
C2459 H2447 0.950 . S
C2459 C2455 1.393 . S
C2459 C2458 1.391 . S
H2460 C2468 0.950 . S
H2461 C2473 0.950 . S
H2462 C2470 0.950 . S
H2463 C2472 0.950 . S
H2464 C2474 0.950 . S
H2465 C2476 0.950 . S
H2466 C2478 0.950 . S
H2467 C2479 0.950 . S
C2468 H2460 0.950 . S
C2468 C2469 1.386 . S
C2468 C2470 1.391 . S
C2469 C2468 1.386 . S
C2469 C2473 1.393 . S
C2470 H2462 0.950 . S
C2470 C2468 1.391 . S
C2470 C2471 1.400 . S
C2471 C2470 1.400 . S
C2471 C2472 1.398 . S
C2471 C2477 1.491 . S
C2472 H2463 0.950 . S
C2472 C2471 1.398 . S
C2472 C2473 1.391 . S
C2473 H2461 0.950 . S
C2473 C2469 1.393 . S
C2473 C2472 1.391 . S
C2474 H2464 0.950 . S
C2474 C2475 1.386 . S
C2474 C2476 1.391 . S
C2475 C2474 1.386 . S
C2475 C2479 1.393 . S
C2476 H2465 0.950 . S
C2476 C2474 1.391 . S
C2476 C2477 1.400 . S
C2477 C2471 1.491 . S
C2477 C2476 1.400 . S
C2477 C2478 1.398 . S
C2478 H2466 0.950 . S
C2478 C2477 1.398 . S
C2478 C2479 1.391 . S
C2479 H2467 0.950 . S
C2479 C2475 1.393 . S
C2479 C2478 1.391 . S
H2480 C2488 0.950 . S
H2481 C2493 0.950 . S
H2482 C2490 0.950 . S
H2483 C2492 0.950 . S
H2484 C2494 0.950 . S
H2485 C2496 0.950 . S
H2486 C2498 0.950 . S
H2487 C2499 0.950 . S
C2488 H2480 0.950 . S
C2488 C2489 1.386 . S
C2488 C2490 1.391 . S
C2489 C2488 1.386 . S
C2489 C2493 1.393 . S
C2490 H2482 0.950 . S
C2490 C2488 1.391 . S
C2490 C2491 1.400 . S
C2491 C2490 1.400 . S
C2491 C2492 1.398 . S
C2491 C2497 1.491 . S
C2492 H2483 0.950 . S
C2492 C2491 1.398 . S
C2492 C2493 1.391 . S
C2493 H2481 0.950 . S
C2493 C2489 1.393 . S
C2493 C2492 1.391 . S
C2494 H2484 0.950 . S
C2494 C2495 1.386 . S
C2494 C2496 1.391 . S
C2495 C2494 1.386 . S
C2495 C2499 1.393 . S
C2496 H2485 0.950 . S
C2496 C2494 1.391 . S
C2496 C2497 1.400 . S
C2497 C2491 1.491 . S
C2497 C2496 1.400 . S
C2497 C2498 1.398 . S
C2498 H2486 0.950 . S
C2498 C2497 1.398 . S
C2498 C2499 1.391 . S
C2499 H2487 0.950 . S
C2499 C2495 1.393 . S
C2499 C2498 1.391 . S
H2500 C2508 0.950 . S
H2501 C2513 0.950 . S
H2502 C2510 0.950 . S
H2503 C2512 0.950 . S
H2504 C2514 0.950 . S
H2505 C2516 0.950 . S
H2506 C2518 0.950 . S
H2507 C2519 0.950 . S
C2508 H2500 0.950 . S
C2508 C2509 1.386 . S
C2508 C2510 1.391 . S
C2509 C2508 1.386 . S
C2509 C2513 1.393 . S
C2510 H2502 0.950 . S
C2510 C2508 1.391 . S
C2510 C2511 1.400 . S
C2511 C2510 1.400 . S
C2511 C2512 1.398 . S
C2511 C2517 1.491 . S
C2512 H2503 0.950 . S
C2512 C2511 1.398 . S
C2512 C2513 1.391 . S
C2513 H2501 0.950 . S
C2513 C2509 1.393 . S
C2513 C2512 1.391 . S
C2514 H2504 0.950 . S
C2514 C2515 1.386 . S
C2514 C2516 1.391 . S
C2515 C2514 1.386 . S
C2515 C2519 1.393 . S
C2516 H2505 0.950 . S
C2516 C2514 1.391 . S
C2516 C2517 1.400 . S
C2517 C2511 1.491 . S
C2517 C2516 1.400 . S
C2517 C2518 1.398 . S
C2518 H2506 0.950 . S
C2518 C2517 1.398 . S
C2518 C2519 1.391 . S
C2519 H2507 0.950 . S
C2519 C2515 1.393 . S
C2519 C2518 1.391 . S
H2520 C2528 0.950 . S
H2521 C2533 0.950 . S
H2522 C2530 0.950 . S
H2523 C2532 0.950 . S
H2524 C2534 0.950 . S
H2525 C2536 0.950 . S
H2526 C2538 0.950 . S
H2527 C2539 0.950 . S
C2528 H2520 0.950 . S
C2528 C2529 1.386 . S
C2528 C2530 1.391 . S
C2529 C2528 1.386 . S
C2529 C2533 1.393 . S
C2530 H2522 0.950 . S
C2530 C2528 1.391 . S
C2530 C2531 1.400 . S
C2531 C2530 1.400 . S
C2531 C2532 1.398 . S
C2531 C2537 1.491 . S
C2532 H2523 0.950 . S
C2532 C2531 1.398 . S
C2532 C2533 1.391 . S
C2533 H2521 0.950 . S
C2533 C2529 1.393 . S
C2533 C2532 1.391 . S
C2534 H2524 0.950 . S
C2534 C2535 1.386 . S
C2534 C2536 1.391 . S
C2535 C2534 1.386 . S
C2535 C2539 1.393 . S
C2536 H2525 0.950 . S
C2536 C2534 1.391 . S
C2536 C2537 1.400 . S
C2537 C2531 1.491 . S
C2537 C2536 1.400 . S
C2537 C2538 1.398 . S
C2538 H2526 0.950 . S
C2538 C2537 1.398 . S
C2538 C2539 1.391 . S
C2539 H2527 0.950 . S
C2539 C2535 1.393 . S
C2539 C2538 1.391 . S
H2540 C2548 0.950 . S
H2541 C2553 0.950 . S
H2542 C2550 0.950 . S
H2543 C2552 0.950 . S
H2544 C2554 0.950 . S
H2545 C2556 0.950 . S
H2546 C2558 0.950 . S
H2547 C2559 0.950 . S
C2548 H2540 0.950 . S
C2548 C2549 1.386 . S
C2548 C2550 1.391 . S
C2549 C2548 1.386 . S
C2549 C2553 1.393 . S
C2550 H2542 0.950 . S
C2550 C2548 1.391 . S
C2550 C2551 1.400 . S
C2551 C2550 1.400 . S
C2551 C2552 1.398 . S
C2551 C2557 1.491 . S
C2552 H2543 0.950 . S
C2552 C2551 1.398 . S
C2552 C2553 1.391 . S
C2553 H2541 0.950 . S
C2553 C2549 1.393 . S
C2553 C2552 1.391 . S
C2554 H2544 0.950 . S
C2554 C2555 1.386 . S
C2554 C2556 1.391 . S
C2555 C2554 1.386 . S
C2555 C2559 1.393 . S
C2556 H2545 0.950 . S
C2556 C2554 1.391 . S
C2556 C2557 1.400 . S
C2557 C2551 1.491 . S
C2557 C2556 1.400 . S
C2557 C2558 1.398 . S
C2558 H2546 0.950 . S
C2558 C2557 1.398 . S
C2558 C2559 1.391 . S
C2559 H2547 0.950 . S
C2559 C2555 1.393 . S
C2559 C2558 1.391 . S
H2560 C2568 0.950 . S
H2561 C2573 0.950 . S
H2562 C2570 0.950 . S
H2563 C2572 0.950 . S
H2564 C2574 0.950 . S
H2565 C2576 0.950 . S
H2566 C2578 0.950 . S
H2567 C2579 0.950 . S
C2568 H2560 0.950 . S
C2568 C2569 1.386 . S
C2568 C2570 1.391 . S
C2569 C2568 1.386 . S
C2569 C2573 1.393 . S
C2570 H2562 0.950 . S
C2570 C2568 1.391 . S
C2570 C2571 1.400 . S
C2571 C2570 1.400 . S
C2571 C2572 1.398 . S
C2571 C2577 1.491 . S
C2572 H2563 0.950 . S
C2572 C2571 1.398 . S
C2572 C2573 1.391 . S
C2573 H2561 0.950 . S
C2573 C2569 1.393 . S
C2573 C2572 1.391 . S
C2574 H2564 0.950 . S
C2574 C2575 1.386 . S
C2574 C2576 1.391 . S
C2575 C2574 1.386 . S
C2575 C2579 1.393 . S
C2576 H2565 0.950 . S
C2576 C2574 1.391 . S
C2576 C2577 1.400 . S
C2577 C2571 1.491 . S
C2577 C2576 1.400 . S
C2577 C2578 1.398 . S
C2578 H2566 0.950 . S
C2578 C2577 1.398 . S
C2578 C2579 1.391 . S
C2579 H2567 0.950 . S
C2579 C2575 1.393 . S
C2579 C2578 1.391 . S
H2580 C2588 0.950 . S
H2581 C2593 0.950 . S
H2582 C2590 0.950 . S
H2583 C2592 0.950 . S
H2584 C2594 0.950 . S
H2585 C2596 0.950 . S
H2586 C2598 0.950 . S
H2587 C2599 0.950 . S
C2588 H2580 0.950 . S
C2588 C2589 1.386 . S
C2588 C2590 1.391 . S
C2589 C2588 1.386 . S
C2589 C2593 1.393 . S
C2590 H2582 0.950 . S
C2590 C2588 1.391 . S
C2590 C2591 1.400 . S
C2591 C2590 1.400 . S
C2591 C2592 1.398 . S
C2591 C2597 1.491 . S
C2592 H2583 0.950 . S
C2592 C2591 1.398 . S
C2592 C2593 1.391 . S
C2593 H2581 0.950 . S
C2593 C2589 1.393 . S
C2593 C2592 1.391 . S
C2594 H2584 0.950 . S
C2594 C2595 1.386 . S
C2594 C2596 1.391 . S
C2595 C2594 1.386 . S
C2595 C2599 1.393 . S
C2596 H2585 0.950 . S
C2596 C2594 1.391 . S
C2596 C2597 1.400 . S
C2597 C2591 1.491 . S
C2597 C2596 1.400 . S
C2597 C2598 1.398 . S
C2598 H2586 0.950 . S
C2598 C2597 1.398 . S
C2598 C2599 1.391 . S
C2599 H2587 0.950 . S
C2599 C2595 1.393 . S
C2599 C2598 1.391 . S
H2600 C2608 0.950 . S
H2601 C2613 0.950 . S
H2602 C2610 0.950 . S
H2603 C2612 0.950 . S
H2604 C2614 0.950 . S
H2605 C2616 0.950 . S
H2606 C2618 0.950 . S
H2607 C2619 0.950 . S
C2608 H2600 0.950 . S
C2608 C2609 1.386 . S
C2608 C2610 1.391 . S
C2609 C2608 1.386 . S
C2609 C2613 1.393 . S
C2610 H2602 0.950 . S
C2610 C2608 1.391 . S
C2610 C2611 1.400 . S
C2611 C2610 1.400 . S
C2611 C2612 1.398 . S
C2611 C2617 1.491 . S
C2612 H2603 0.950 . S
C2612 C2611 1.398 . S
C2612 C2613 1.391 . S
C2613 H2601 0.950 . S
C2613 C2609 1.393 . S
C2613 C2612 1.391 . S
C2614 H2604 0.950 . S
C2614 C2615 1.386 . S
C2614 C2616 1.391 . S
C2615 C2614 1.386 . S
C2615 C2619 1.393 . S
C2616 H2605 0.950 . S
C2616 C2614 1.391 . S
C2616 C2617 1.400 . S
C2617 C2611 1.491 . S
C2617 C2616 1.400 . S
C2617 C2618 1.398 . S
C2618 H2606 0.950 . S
C2618 C2617 1.398 . S
C2618 C2619 1.391 . S
C2619 H2607 0.950 . S
C2619 C2615 1.393 . S
C2619 C2618 1.391 . S
H2620 C2628 0.950 . S
H2621 C2633 0.950 . S
H2622 C2630 0.950 . S
H2623 C2632 0.950 . S
H2624 C2634 0.950 . S
H2625 C2636 0.950 . S
H2626 C2638 0.950 . S
H2627 C2639 0.950 1_554 S
C2628 H2620 0.950 . S
C2628 C2629 1.386 . S
C2628 C2630 1.391 . S
C2629 C2628 1.386 . S
C2629 C2633 1.393 . S
C2630 H2622 0.950 . S
C2630 C2628 1.391 . S
C2630 C2631 1.400 . S
C2631 C2630 1.400 . S
C2631 C2632 1.398 . S
C2631 C2637 1.491 . S
C2632 H2623 0.950 . S
C2632 C2631 1.398 . S
C2632 C2633 1.391 . S
C2633 H2621 0.950 . S
C2633 C2629 1.393 . S
C2633 C2632 1.391 . S
C2634 H2624 0.950 . S
C2634 C2635 1.386 . S
C2634 C2636 1.391 . S
C2635 C2634 1.386 . S
C2635 C2639 1.393 . S
C2636 H2625 0.950 . S
C2636 C2634 1.391 . S
C2636 C2637 1.400 . S
C2637 C2631 1.491 . S
C2637 C2636 1.400 . S
C2637 C2638 1.398 . S
C2638 H2626 0.950 . S
C2638 C2637 1.398 . S
C2638 C2639 1.391 . S
C2639 H2627 0.950 1_556 S
C2639 C2635 1.393 . S
C2639 C2638 1.391 . S
H2640 C2648 0.950 . S
H2641 C2653 0.950 . S
H2642 C2650 0.950 . S
H2643 C2652 0.950 . S
H2644 C2654 0.950 . S
H2645 C2656 0.950 . S
H2646 C2658 0.950 . S
H2647 C2659 0.950 . S
C2648 H2640 0.950 . S
C2648 C2649 1.386 . S
C2648 C2650 1.391 . S
C2649 C2648 1.386 . S
C2649 C2653 1.393 . S
C2650 H2642 0.950 . S
C2650 C2648 1.391 . S
C2650 C2651 1.400 . S
C2651 C2650 1.400 . S
C2651 C2652 1.398 . S
C2651 C2657 1.491 . S
C2652 H2643 0.950 . S
C2652 C2651 1.398 . S
C2652 C2653 1.391 . S
C2653 H2641 0.950 . S
C2653 C2649 1.393 . S
C2653 C2652 1.391 . S
C2654 H2644 0.950 . S
C2654 C2655 1.386 . S
C2654 C2656 1.391 . S
C2655 C2654 1.386 . S
C2655 C2659 1.393 . S
C2656 H2645 0.950 . S
C2656 C2654 1.391 . S
C2656 C2657 1.400 . S
C2657 C2651 1.491 . S
C2657 C2656 1.400 . S
C2657 C2658 1.398 . S
C2658 H2646 0.950 . S
C2658 C2657 1.398 . S
C2658 C2659 1.391 . S
C2659 H2647 0.950 . S
C2659 C2655 1.393 . S
C2659 C2658 1.391 . S
H2660 C2668 0.950 . S
H2661 C2673 0.950 . S
H2662 C2670 0.950 . S
H2663 C2672 0.950 . S
H2664 C2674 0.950 . S
H2665 C2676 0.950 . S
H2666 C2678 0.950 . S
H2667 C2679 0.950 . S
C2668 H2660 0.950 . S
C2668 C2669 1.386 . S
C2668 C2670 1.391 . S
C2669 C2668 1.386 . S
C2669 C2673 1.393 . S
C2670 H2662 0.950 . S
C2670 C2668 1.391 . S
C2670 C2671 1.400 . S
C2671 C2670 1.400 . S
C2671 C2672 1.398 . S
C2671 C2677 1.491 . S
C2672 H2663 0.950 . S
C2672 C2671 1.398 . S
C2672 C2673 1.391 . S
C2673 H2661 0.950 . S
C2673 C2669 1.393 . S
C2673 C2672 1.391 . S
C2674 H2664 0.950 . S
C2674 C2675 1.386 . S
C2674 C2676 1.391 . S
C2675 C2674 1.386 . S
C2675 C2679 1.393 . S
C2676 H2665 0.950 . S
C2676 C2674 1.391 . S
C2676 C2677 1.400 . S
C2677 C2671 1.491 . S
C2677 C2676 1.400 . S
C2677 C2678 1.398 . S
C2678 H2666 0.950 . S
C2678 C2677 1.398 . S
C2678 C2679 1.391 . S
C2679 H2667 0.950 . S
C2679 C2675 1.393 . S
C2679 C2678 1.391 . S
H2680 C2688 0.950 1_556 S
H2681 C2693 0.950 . S
H2682 C2690 0.950 . S
H2683 C2692 0.950 . S
H2684 C2694 0.950 . S
H2685 C2696 0.950 . S
H2686 C2698 0.950 . S
H2687 C2699 0.950 . S
C2688 H2680 0.950 1_554 S
C2688 C2689 1.386 . S
C2688 C2690 1.391 . S
C2689 C2688 1.386 . S
C2689 C2693 1.393 . S
C2690 H2682 0.950 . S
C2690 C2688 1.391 . S
C2690 C2691 1.400 . S
C2691 C2690 1.400 . S
C2691 C2692 1.398 . S
C2691 C2697 1.491 . S
C2692 H2683 0.950 . S
C2692 C2691 1.398 . S
C2692 C2693 1.391 . S
C2693 H2681 0.950 . S
C2693 C2689 1.393 . S
C2693 C2692 1.391 . S
C2694 H2684 0.950 . S
C2694 C2695 1.386 . S
C2694 C2696 1.391 . S
C2695 C2694 1.386 . S
C2695 C2699 1.393 . S
C2696 H2685 0.950 . S
C2696 C2694 1.391 . S
C2696 C2697 1.400 . S
C2697 C2691 1.491 . S
C2697 C2696 1.400 . S
C2697 C2698 1.398 . S
C2698 H2686 0.950 . S
C2698 C2697 1.398 . S
C2698 C2699 1.391 . S
C2699 H2687 0.950 . S
C2699 C2695 1.393 . S
C2699 C2698 1.391 . S
H2700 C2708 0.950 . S
H2701 C2713 0.950 1_556 S
H2702 C2710 0.950 . S
H2703 C2712 0.950 . S
H2704 C2714 0.950 . S
H2705 C2716 0.950 . S
H2706 C2718 0.950 . S
H2707 C2719 0.950 . S
C2708 H2700 0.950 . S
C2708 C2709 1.386 . S
C2708 C2710 1.391 . S
C2709 C2708 1.386 . S
C2709 C2713 1.393 . S
C2710 H2702 0.950 . S
C2710 C2708 1.391 . S
C2710 C2711 1.400 . S
C2711 C2710 1.400 . S
C2711 C2712 1.398 . S
C2711 C2717 1.491 . S
C2712 H2703 0.950 . S
C2712 C2711 1.398 . S
C2712 C2713 1.391 . S
C2713 H2701 0.950 1_554 S
C2713 C2709 1.393 . S
C2713 C2712 1.391 . S
C2714 H2704 0.950 . S
C2714 C2715 1.386 . S
C2714 C2716 1.391 . S
C2715 C2714 1.386 . S
C2715 C2719 1.393 . S
C2716 H2705 0.950 . S
C2716 C2714 1.391 . S
C2716 C2717 1.400 . S
C2717 C2711 1.491 . S
C2717 C2716 1.400 . S
C2717 C2718 1.398 . S
C2718 H2706 0.950 . S
C2718 C2717 1.398 . S
C2718 C2719 1.391 . S
C2719 H2707 0.950 . S
C2719 C2715 1.393 . S
C2719 C2718 1.391 . S
H2720 C2728 0.950 . S
H2721 C2733 0.950 . S
H2722 C2730 0.950 . S
H2723 C2732 0.950 . S
H2724 C2734 0.950 . S
H2725 C2736 0.950 . S
H2726 C2738 0.950 . S
H2727 C2739 0.950 . S
C2728 H2720 0.950 . S
C2728 C2729 1.386 . S
C2728 C2730 1.391 . S
C2729 C2728 1.386 . S
C2729 C2733 1.393 . S
C2730 H2722 0.950 . S
C2730 C2728 1.391 . S
C2730 C2731 1.400 . S
C2731 C2730 1.400 . S
C2731 C2732 1.398 . S
C2731 C2737 1.491 . S
C2732 H2723 0.950 . S
C2732 C2731 1.398 . S
C2732 C2733 1.391 . S
C2733 H2721 0.950 . S
C2733 C2729 1.393 . S
C2733 C2732 1.391 . S
C2734 H2724 0.950 . S
C2734 C2735 1.386 . S
C2734 C2736 1.391 . S
C2735 C2734 1.386 . S
C2735 C2739 1.393 . S
C2736 H2725 0.950 . S
C2736 C2734 1.391 . S
C2736 C2737 1.400 . S
C2737 C2731 1.491 . S
C2737 C2736 1.400 . S
C2737 C2738 1.398 . S
C2738 H2726 0.950 . S
C2738 C2737 1.398 . S
C2738 C2739 1.391 . S
C2739 H2727 0.950 . S
C2739 C2735 1.393 . S
C2739 C2738 1.391 . S
H2740 C2748 0.950 . S
H2741 C2753 0.950 . S
H2742 C2750 0.950 . S
H2743 C2752 0.950 . S
H2744 C2754 0.950 . S
H2745 C2756 0.950 . S
H2746 C2758 0.950 . S
H2747 C2759 0.950 1_554 S
C2748 H2740 0.950 . S
C2748 C2749 1.386 . S
C2748 C2750 1.391 . S
C2749 C2748 1.386 . S
C2749 C2753 1.393 . S
C2750 H2742 0.950 . S
C2750 C2748 1.391 . S
C2750 C2751 1.400 . S
C2751 C2750 1.400 . S
C2751 C2752 1.398 . S
C2751 C2757 1.491 . S
C2752 H2743 0.950 . S
C2752 C2751 1.398 . S
C2752 C2753 1.391 . S
C2753 H2741 0.950 . S
C2753 C2749 1.393 . S
C2753 C2752 1.391 . S
C2754 H2744 0.950 . S
C2754 C2755 1.386 . S
C2754 C2756 1.391 . S
C2755 C2754 1.386 . S
C2755 C2759 1.393 . S
C2756 H2745 0.950 . S
C2756 C2754 1.391 . S
C2756 C2757 1.400 . S
C2757 C2751 1.491 . S
C2757 C2756 1.400 . S
C2757 C2758 1.398 . S
C2758 H2746 0.950 . S
C2758 C2757 1.398 . S
C2758 C2759 1.391 . S
C2759 H2747 0.950 1_556 S
C2759 C2755 1.393 . S
C2759 C2758 1.391 . S
H2760 C2768 0.950 . S
H2761 C2773 0.950 . S
H2762 C2770 0.950 . S
H2763 C2772 0.950 . S
H2764 C2774 0.950 . S
H2765 C2776 0.950 . S
H2766 C2778 0.950 . S
H2767 C2779 0.950 . S
C2768 H2760 0.950 . S
C2768 C2769 1.386 . S
C2768 C2770 1.391 . S
C2769 C2768 1.386 . S
C2769 C2773 1.393 . S
C2770 H2762 0.950 . S
C2770 C2768 1.391 . S
C2770 C2771 1.400 . S
C2771 C2770 1.400 . S
C2771 C2772 1.398 . S
C2771 C2777 1.491 . S
C2772 H2763 0.950 . S
C2772 C2771 1.398 . S
C2772 C2773 1.391 . S
C2773 H2761 0.950 . S
C2773 C2769 1.393 . S
C2773 C2772 1.391 . S
C2774 H2764 0.950 . S
C2774 C2775 1.386 . S
C2774 C2776 1.391 . S
C2775 C2774 1.386 . S
C2775 C2779 1.393 . S
C2776 H2765 0.950 . S
C2776 C2774 1.391 . S
C2776 C2777 1.400 . S
C2777 C2771 1.491 . S
C2777 C2776 1.400 . S
C2777 C2778 1.398 . S
C2778 H2766 0.950 . S
C2778 C2777 1.398 . S
C2778 C2779 1.391 . S
C2779 H2767 0.950 . S
C2779 C2775 1.393 . S
C2779 C2778 1.391 . S
H2780 C2788 0.950 . S
H2781 C2793 0.950 . S
H2782 C2790 0.950 . S
H2783 C2792 0.950 . S
H2784 C2794 0.950 . S
H2785 C2796 0.950 . S
H2786 C2798 0.950 . S
H2787 C2799 0.950 . S
C2788 H2780 0.950 . S
C2788 C2789 1.386 . S
C2788 C2790 1.391 . S
C2789 C2788 1.386 . S
C2789 C2793 1.393 . S
C2790 H2782 0.950 . S
C2790 C2788 1.391 . S
C2790 C2791 1.400 . S
C2791 C2790 1.400 . S
C2791 C2792 1.398 . S
C2791 C2797 1.491 . S
C2792 H2783 0.950 . S
C2792 C2791 1.398 . S
C2792 C2793 1.391 . S
C2793 H2781 0.950 . S
C2793 C2789 1.393 . S
C2793 C2792 1.391 . S
C2794 H2784 0.950 . S
C2794 C2795 1.386 . S
C2794 C2796 1.391 . S
C2795 C2794 1.386 . S
C2795 C2799 1.393 . S
C2796 H2785 0.950 . S
C2796 C2794 1.391 . S
C2796 C2797 1.400 . S
C2797 C2791 1.491 . S
C2797 C2796 1.400 . S
C2797 C2798 1.398 . S
C2798 H2786 0.950 . S
C2798 C2797 1.398 . S
C2798 C2799 1.391 . S
C2799 H2787 0.950 . S
C2799 C2795 1.393 . S
C2799 C2798 1.391 . S
H2800 C2808 0.950 . S
H2801 C2813 0.932 1_556 S
H2802 C2810 0.950 . S
H2803 C2812 0.950 . S
H2804 C2814 0.950 . S
H2805 C2816 0.950 . S
H2806 C2818 0.950 . S
H2807 C2819 0.950 . S
C2808 H2800 0.950 . S
C2808 C2809 1.386 . S
C2808 C2810 1.391 . S
C2809 C2808 1.386 . S
C2809 C2813 1.393 . S
C2810 H2802 0.950 . S
C2810 C2808 1.391 . S
C2810 C2811 1.400 . S
C2811 C2810 1.400 . S
C2811 C2812 1.398 . S
C2811 C2817 1.491 . S
C2812 H2803 0.950 . S
C2812 C2811 1.398 . S
C2812 C2813 1.391 . S
C2813 H2801 0.932 1_554 S
C2813 C2809 1.393 . S
C2813 C2812 1.391 . S
C2814 H2804 0.950 . S
C2814 C2815 1.386 . S
C2814 C2816 1.391 . S
C2815 C2814 1.386 . S
C2815 C2819 1.393 . S
C2816 H2805 0.950 . S
C2816 C2814 1.391 . S
C2816 C2817 1.400 . S
C2817 C2811 1.491 . S
C2817 C2816 1.400 . S
C2817 C2818 1.398 . S
C2818 H2806 0.950 . S
C2818 C2817 1.398 . S
C2818 C2819 1.391 . S
C2819 H2807 0.950 . S
C2819 C2815 1.393 . S
C2819 C2818 1.391 . S
H2820 C2828 0.950 . S
H2821 C2833 0.950 . S
H2822 C2830 0.950 . S
H2823 C2832 0.950 . S
H2824 C2834 0.950 . S
H2825 C2836 0.950 . S
H2826 C2838 0.950 . S
H2827 C2839 0.950 1_556 S
C2828 H2820 0.950 . S
C2828 C2829 1.386 . S
C2828 C2830 1.391 . S
C2829 C2828 1.386 . S
C2829 C2833 1.393 . S
C2830 H2822 0.950 . S
C2830 C2828 1.391 . S
C2830 C2831 1.400 . S
C2831 C2830 1.400 . S
C2831 C2832 1.398 . S
C2831 C2837 1.491 . S
C2832 H2823 0.950 . S
C2832 C2831 1.398 . S
C2832 C2833 1.391 . S
C2833 H2821 0.950 . S
C2833 C2829 1.393 . S
C2833 C2832 1.391 . S
C2834 H2824 0.950 . S
C2834 C2835 1.386 . S
C2834 C2836 1.391 . S
C2835 C2834 1.386 . S
C2835 C2839 1.393 . S
C2836 H2825 0.950 . S
C2836 C2834 1.391 . S
C2836 C2837 1.400 . S
C2837 C2831 1.491 . S
C2837 C2836 1.400 . S
C2837 C2838 1.398 . S
C2838 H2826 0.950 . S
C2838 C2837 1.398 . S
C2838 C2839 1.391 . S
C2839 H2827 0.950 1_554 S
C2839 C2835 1.393 . S
C2839 C2838 1.391 . S
H2840 C2848 0.950 . S
H2841 C2853 0.950 . S
H2842 C2850 0.950 . S
H2843 C2852 0.950 . S
H2844 C2854 0.950 . S
H2845 C2856 0.950 . S
H2846 C2858 0.950 . S
H2847 C2859 0.950 . S
C2848 H2840 0.950 . S
C2848 C2849 1.386 . S
C2848 C2850 1.391 . S
C2849 C2848 1.386 . S
C2849 C2853 1.393 . S
C2850 H2842 0.950 . S
C2850 C2848 1.391 . S
C2850 C2851 1.400 . S
C2851 C2850 1.400 . S
C2851 C2852 1.398 . S
C2851 C2857 1.491 . S
C2852 H2843 0.950 . S
C2852 C2851 1.398 . S
C2852 C2853 1.391 . S
C2853 H2841 0.950 . S
C2853 C2849 1.393 . S
C2853 C2852 1.391 . S
C2854 H2844 0.950 . S
C2854 C2855 1.386 . S
C2854 C2856 1.391 . S
C2855 C2854 1.386 . S
C2855 C2859 1.393 . S
C2856 H2845 0.950 . S
C2856 C2854 1.391 . S
C2856 C2857 1.400 . S
C2857 C2851 1.491 . S
C2857 C2856 1.400 . S
C2857 C2858 1.398 . S
C2858 H2846 0.950 . S
C2858 C2857 1.398 . S
C2858 C2859 1.391 . S
C2859 H2847 0.950 . S
C2859 C2855 1.393 . S
C2859 C2858 1.391 . S
H2860 C2868 0.950 . S
H2861 C2873 0.950 . S
H2862 C2870 0.950 . S
H2863 C2872 0.950 . S
H2864 C2874 0.950 . S
H2865 C2876 0.950 . S
H2866 C2878 0.950 . S
H2867 C2879 0.950 . S
C2868 H2860 0.950 . S
C2868 C2869 1.386 . S
C2868 C2870 1.391 . S
C2869 C2868 1.386 . S
C2869 C2873 1.393 . S
C2870 H2862 0.950 . S
C2870 C2868 1.391 . S
C2870 C2871 1.400 . S
C2871 C2870 1.400 . S
C2871 C2872 1.398 . S
C2871 C2877 1.491 . S
C2872 H2863 0.950 . S
C2872 C2871 1.398 . S
C2872 C2873 1.391 . S
C2873 H2861 0.950 . S
C2873 C2869 1.393 . S
C2873 C2872 1.391 . S
C2874 H2864 0.950 . S
C2874 C2875 1.386 . S
C2874 C2876 1.391 . S
C2875 C2874 1.386 . S
C2875 C2879 1.393 . S
C2876 H2865 0.950 . S
C2876 C2874 1.391 . S
C2876 C2877 1.400 . S
C2877 C2871 1.491 . S
C2877 C2876 1.400 . S
C2877 C2878 1.398 . S
C2878 H2866 0.950 . S
C2878 C2877 1.398 . S
C2878 C2879 1.391 . S
C2879 H2867 0.950 . S
C2879 C2875 1.393 . S
C2879 C2878 1.391 . S
H2880 C2888 0.950 . S
H2881 C2893 0.950 . S
H2882 C2890 0.950 . S
H2883 C2892 0.950 . S
H2884 C2894 0.950 . S
H2885 C2896 0.950 . S
H2886 C2898 0.950 . S
H2887 C2899 0.950 . S
C2888 H2880 0.950 . S
C2888 C2889 1.386 . S
C2888 C2890 1.391 . S
C2889 C2888 1.386 . S
C2889 C2893 1.393 . S
C2890 H2882 0.950 . S
C2890 C2888 1.391 . S
C2890 C2891 1.400 . S
C2891 C2890 1.400 . S
C2891 C2892 1.398 . S
C2891 C2897 1.491 . S
C2892 H2883 0.950 . S
C2892 C2891 1.398 . S
C2892 C2893 1.391 . S
C2893 H2881 0.950 . S
C2893 C2889 1.393 . S
C2893 C2892 1.391 . S
C2894 H2884 0.950 . S
C2894 C2895 1.386 . S
C2894 C2896 1.391 . S
C2895 C2894 1.386 . S
C2895 C2899 1.393 . S
C2896 H2885 0.950 . S
C2896 C2894 1.391 . S
C2896 C2897 1.400 . S
C2897 C2891 1.491 . S
C2897 C2896 1.400 . S
C2897 C2898 1.398 . S
C2898 H2886 0.950 . S
C2898 C2897 1.398 . S
C2898 C2899 1.391 . S
C2899 H2887 0.950 . S
C2899 C2895 1.393 . S
C2899 C2898 1.391 . S
H2900 C2908 0.950 . S
H2901 C2913 0.950 . S
H2902 C2910 0.950 . S
H2903 C2912 0.950 . S
H2904 C2914 0.950 . S
H2905 C2916 0.950 . S
H2906 C2918 0.950 . S
H2907 C2919 0.950 . S
C2908 H2900 0.950 . S
C2908 C2909 1.386 . S
C2908 C2910 1.391 . S
C2909 C2908 1.386 . S
C2909 C2913 1.393 . S
C2910 H2902 0.950 . S
C2910 C2908 1.391 . S
C2910 C2911 1.400 . S
C2911 C2910 1.400 . S
C2911 C2912 1.398 . S
C2911 C2917 1.491 . S
C2912 H2903 0.950 . S
C2912 C2911 1.398 . S
C2912 C2913 1.391 . S
C2913 H2901 0.950 . S
C2913 C2909 1.393 . S
C2913 C2912 1.391 . S
C2914 H2904 0.950 . S
C2914 C2915 1.386 . S
C2914 C2916 1.391 . S
C2915 C2914 1.386 . S
C2915 C2919 1.393 . S
C2916 H2905 0.950 . S
C2916 C2914 1.391 . S
C2916 C2917 1.400 . S
C2917 C2911 1.491 . S
C2917 C2916 1.400 . S
C2917 C2918 1.398 . S
C2918 H2906 0.950 . S
C2918 C2917 1.398 . S
C2918 C2919 1.391 . S
C2919 H2907 0.950 . S
C2919 C2915 1.393 . S
C2919 C2918 1.391 . S
H2920 C2928 0.950 . S
H2921 C2933 0.950 . S
H2922 C2930 0.950 . S
H2923 C2932 0.950 . S
H2924 C2934 0.950 . S
H2925 C2936 0.950 . S
H2926 C2938 0.950 . S
H2927 C2939 0.950 . S
C2928 H2920 0.950 . S
C2928 C2929 1.386 . S
C2928 C2930 1.391 . S
C2929 C2928 1.386 . S
C2929 C2933 1.393 . S
C2930 H2922 0.950 . S
C2930 C2928 1.391 . S
C2930 C2931 1.400 . S
C2931 C2930 1.400 . S
C2931 C2932 1.398 . S
C2931 C2937 1.491 . S
C2932 H2923 0.950 . S
C2932 C2931 1.398 . S
C2932 C2933 1.391 . S
C2933 H2921 0.950 . S
C2933 C2929 1.393 . S
C2933 C2932 1.391 . S
C2934 H2924 0.950 . S
C2934 C2935 1.386 . S
C2934 C2936 1.391 . S
C2935 C2934 1.386 . S
C2935 C2939 1.393 . S
C2936 H2925 0.950 . S
C2936 C2934 1.391 . S
C2936 C2937 1.400 . S
C2937 C2931 1.491 . S
C2937 C2936 1.400 . S
C2937 C2938 1.398 . S
C2938 H2926 0.950 . S
C2938 C2937 1.398 . S
C2938 C2939 1.391 . S
C2939 H2927 0.950 . S
C2939 C2935 1.393 . S
C2939 C2938 1.391 . S
H2940 C2948 0.950 . S
H2941 C2953 0.950 . S
H2942 C2950 0.950 . S
H2943 C2952 0.950 . S
H2944 C2954 0.950 . S
H2945 C2956 0.950 . S
H2946 C2958 0.950 . S
H2947 C2959 0.950 . S
C2948 H2940 0.950 . S
C2948 C2949 1.386 . S
C2948 C2950 1.391 . S
C2949 C2948 1.386 . S
C2949 C2953 1.393 . S
C2950 H2942 0.950 . S
C2950 C2948 1.391 . S
C2950 C2951 1.400 . S
C2951 C2950 1.400 . S
C2951 C2952 1.398 . S
C2951 C2957 1.491 . S
C2952 H2943 0.950 . S
C2952 C2951 1.398 . S
C2952 C2953 1.391 . S
C2953 H2941 0.950 . S
C2953 C2949 1.393 . S
C2953 C2952 1.391 . S
C2954 H2944 0.950 . S
C2954 C2955 1.386 . S
C2954 C2956 1.391 . S
C2955 C2954 1.386 . S
C2955 C2959 1.393 . S
C2956 H2945 0.950 . S
C2956 C2954 1.391 . S
C2956 C2957 1.400 . S
C2957 C2951 1.491 . S
C2957 C2956 1.400 . S
C2957 C2958 1.398 . S
C2958 H2946 0.950 . S
C2958 C2957 1.398 . S
C2958 C2959 1.391 . S
C2959 H2947 0.950 . S
C2959 C2955 1.393 . S
C2959 C2958 1.391 . S
H2960 C2968 0.950 . S
H2961 C2973 0.950 . S
H2962 C2970 0.950 . S
H2963 C2972 0.950 . S
H2964 C2974 0.950 . S
H2965 C2976 0.950 . S
H2966 C2978 0.950 . S
H2967 C2979 0.950 . S
C2968 H2960 0.950 . S
C2968 C2969 1.386 . S
C2968 C2970 1.391 . S
C2969 C2968 1.386 . S
C2969 C2973 1.393 . S
C2970 H2962 0.950 . S
C2970 C2968 1.391 . S
C2970 C2971 1.400 . S
C2971 C2970 1.400 . S
C2971 C2972 1.398 . S
C2971 C2977 1.491 . S
C2972 H2963 0.950 . S
C2972 C2971 1.398 . S
C2972 C2973 1.391 . S
C2973 H2961 0.950 . S
C2973 C2969 1.393 . S
C2973 C2972 1.391 . S
C2974 H2964 0.950 . S
C2974 C2975 1.386 . S
C2974 C2976 1.391 . S
C2975 C2974 1.386 . S
C2975 C2979 1.393 . S
C2976 H2965 0.950 . S
C2976 C2974 1.391 . S
C2976 C2977 1.400 . S
C2977 C2971 1.491 . S
C2977 C2976 1.400 . S
C2977 C2978 1.398 . S
C2978 H2966 0.950 . S
C2978 C2977 1.398 . S
C2978 C2979 1.391 . S
C2979 H2967 0.950 . S
C2979 C2975 1.393 . S
C2979 C2978 1.391 . S
H2980 C2988 0.950 . S
H2981 C2993 0.950 . S
H2982 C2990 0.950 . S
H2983 C2992 0.950 . S
H2984 C2994 0.950 . S
H2985 C2996 0.950 . S
H2986 C2998 0.950 . S
H2987 C2999 0.950 . S
C2988 H2980 0.950 . S
C2988 C2989 1.386 . S
C2988 C2990 1.391 . S
C2989 C2988 1.386 . S
C2989 C2993 1.393 . S
C2990 H2982 0.950 . S
C2990 C2988 1.391 . S
C2990 C2991 1.400 . S
C2991 C2990 1.400 . S
C2991 C2992 1.398 . S
C2991 C2997 1.491 . S
C2992 H2983 0.950 . S
C2992 C2991 1.398 . S
C2992 C2993 1.391 . S
C2993 H2981 0.950 . S
C2993 C2989 1.393 . S
C2993 C2992 1.391 . S
C2994 H2984 0.950 . S
C2994 C2995 1.386 . S
C2994 C2996 1.391 . S
C2995 C2994 1.386 . S
C2995 C2999 1.393 . S
C2996 H2985 0.950 . S
C2996 C2994 1.391 . S
C2996 C2997 1.400 . S
C2997 C2991 1.491 . S
C2997 C2996 1.400 . S
C2997 C2998 1.398 . S
C2998 H2986 0.950 . S
C2998 C2997 1.398 . S
C2998 C2999 1.391 . S
C2999 H2987 0.950 . S
C2999 C2995 1.393 . S
C2999 C2998 1.391 . S
H3000 C3008 0.950 . S
H3001 C3013 0.950 . S
H3002 C3010 0.950 . S
H3003 C3012 0.950 . S
H3004 C3014 0.950 . S
H3005 C3016 0.950 . S
H3006 C3018 0.950 . S
H3007 C3019 0.950 . S
C3008 H3000 0.950 . S
C3008 C3009 1.386 . S
C3008 C3010 1.391 . S
C3009 C3008 1.386 . S
C3009 C3013 1.393 . S
C3010 H3002 0.950 . S
C3010 C3008 1.391 . S
C3010 C3011 1.400 . S
C3011 C3010 1.400 . S
C3011 C3012 1.398 . S
C3011 C3017 1.491 . S
C3012 H3003 0.950 . S
C3012 C3011 1.398 . S
C3012 C3013 1.391 . S
C3013 H3001 0.950 . S
C3013 C3009 1.393 . S
C3013 C3012 1.391 . S
C3014 H3004 0.950 . S
C3014 C3015 1.386 . S
C3014 C3016 1.391 . S
C3015 C3014 1.386 . S
C3015 C3019 1.393 . S
C3016 H3005 0.950 . S
C3016 C3014 1.391 . S
C3016 C3017 1.400 . S
C3017 C3011 1.491 . S
C3017 C3016 1.400 . S
C3017 C3018 1.398 . S
C3018 H3006 0.950 . S
C3018 C3017 1.398 . S
C3018 C3019 1.391 . S
C3019 H3007 0.950 . S
C3019 C3015 1.393 . S
C3019 C3018 1.391 . S
H3020 C3028 0.950 . S
H3021 C3033 0.950 . S
H3022 C3030 0.950 . S
H3023 C3032 0.950 . S
H3024 C3034 0.950 . S
H3025 C3036 0.950 . S
H3026 C3038 0.950 . S
H3027 C3039 0.950 . S
C3028 H3020 0.950 . S
C3028 C3029 1.386 . S
C3028 C3030 1.391 . S
C3029 C3028 1.386 . S
C3029 C3033 1.393 . S
C3030 H3022 0.950 . S
C3030 C3028 1.391 . S
C3030 C3031 1.400 . S
C3031 C3030 1.400 . S
C3031 C3032 1.398 . S
C3031 C3037 1.491 . S
C3032 H3023 0.950 . S
C3032 C3031 1.398 . S
C3032 C3033 1.391 . S
C3033 H3021 0.950 . S
C3033 C3029 1.393 . S
C3033 C3032 1.391 . S
C3034 H3024 0.950 . S
C3034 C3035 1.386 . S
C3034 C3036 1.391 . S
C3035 C3034 1.386 . S
C3035 C3039 1.393 . S
C3036 H3025 0.950 . S
C3036 C3034 1.391 . S
C3036 C3037 1.400 . S
C3037 C3031 1.491 . S
C3037 C3036 1.400 . S
C3037 C3038 1.398 . S
C3038 H3026 0.950 . S
C3038 C3037 1.398 . S
C3038 C3039 1.391 . S
C3039 H3027 0.950 . S
C3039 C3035 1.393 . S
C3039 C3038 1.391 . S
H3040 C3048 0.950 . S
H3041 C3053 0.950 . S
H3042 C3050 0.950 . S
H3043 C3052 0.950 . S
H3044 C3054 0.950 . S
H3045 C3056 0.950 . S
H3046 C3058 0.950 . S
H3047 C3059 0.950 . S
C3048 H3040 0.950 . S
C3048 C3049 1.386 . S
C3048 C3050 1.391 . S
C3049 C3048 1.386 . S
C3049 C3053 1.393 . S
C3050 H3042 0.950 . S
C3050 C3048 1.391 . S
C3050 C3051 1.400 . S
C3051 C3050 1.400 . S
C3051 C3052 1.398 . S
C3051 C3057 1.491 . S
C3052 H3043 0.950 . S
C3052 C3051 1.398 . S
C3052 C3053 1.391 . S
C3053 H3041 0.950 . S
C3053 C3049 1.393 . S
C3053 C3052 1.391 . S
C3054 H3044 0.950 . S
C3054 C3055 1.386 . S
C3054 C3056 1.391 . S
C3055 C3054 1.386 . S
C3055 C3059 1.393 . S
C3056 H3045 0.950 . S
C3056 C3054 1.391 . S
C3056 C3057 1.400 . S
C3057 C3051 1.491 . S
C3057 C3056 1.400 . S
C3057 C3058 1.398 . S
C3058 H3046 0.950 . S
C3058 C3057 1.398 . S
C3058 C3059 1.391 . S
C3059 H3047 0.950 . S
C3059 C3055 1.393 . S
C3059 C3058 1.391 . S
H3060 C3068 0.950 . S
H3061 C3073 0.950 . S
H3062 C3070 0.950 . S
H3063 C3072 0.950 . S
H3064 C3074 0.950 . S
H3065 C3076 0.950 . S
H3066 C3078 0.950 . S
H3067 C3079 0.950 . S
C3068 H3060 0.950 . S
C3068 C3069 1.386 . S
C3068 C3070 1.391 . S
C3069 C3068 1.386 . S
C3069 C3073 1.393 . S
C3070 H3062 0.950 . S
C3070 C3068 1.391 . S
C3070 C3071 1.400 . S
C3071 C3070 1.400 . S
C3071 C3072 1.398 . S
C3071 C3077 1.491 . S
C3072 H3063 0.950 . S
C3072 C3071 1.398 . S
C3072 C3073 1.391 . S
C3073 H3061 0.950 . S
C3073 C3069 1.393 . S
C3073 C3072 1.391 . S
C3074 H3064 0.950 . S
C3074 C3075 1.386 . S
C3074 C3076 1.391 . S
C3075 C3074 1.386 . S
C3075 C3079 1.393 . S
C3076 H3065 0.950 . S
C3076 C3074 1.391 . S
C3076 C3077 1.400 . S
C3077 C3071 1.491 . S
C3077 C3076 1.400 . S
C3077 C3078 1.398 . S
C3078 H3066 0.950 . S
C3078 C3077 1.398 . S
C3078 C3079 1.391 . S
C3079 H3067 0.950 . S
C3079 C3075 1.393 . S
C3079 C3078 1.391 . S
H3080 C3088 0.950 . S
H3081 C3093 0.950 . S
H3082 C3090 0.950 . S
H3083 C3092 0.950 . S
H3084 C3094 0.950 . S
H3085 C3096 0.950 . S
H3086 C3098 0.950 . S
H3087 C3099 0.950 . S
C3088 H3080 0.950 . S
C3088 C3089 1.386 . S
C3088 C3090 1.391 . S
C3089 C3088 1.386 . S
C3089 C3093 1.393 . S
C3090 H3082 0.950 . S
C3090 C3088 1.391 . S
C3090 C3091 1.400 . S
C3091 C3090 1.400 . S
C3091 C3092 1.398 . S
C3091 C3097 1.491 . S
C3092 H3083 0.950 . S
C3092 C3091 1.398 . S
C3092 C3093 1.391 . S
C3093 H3081 0.950 . S
C3093 C3089 1.393 . S
C3093 C3092 1.391 . S
C3094 H3084 0.950 . S
C3094 C3095 1.386 . S
C3094 C3096 1.391 . S
C3095 C3094 1.386 . S
C3095 C3099 1.393 . S
C3096 H3085 0.950 . S
C3096 C3094 1.391 . S
C3096 C3097 1.400 . S
C3097 C3091 1.491 . S
C3097 C3096 1.400 . S
C3097 C3098 1.398 . S
C3098 H3086 0.950 . S
C3098 C3097 1.398 . S
C3098 C3099 1.391 . S
C3099 H3087 0.950 . S
C3099 C3095 1.393 . S
C3099 C3098 1.391 . S
H3100 C3108 0.950 . S
H3101 C3113 0.950 . S
H3102 C3110 0.950 . S
H3103 C3112 0.950 . S
H3104 C3114 0.950 . S
H3105 C3116 0.950 . S
H3106 C3118 0.950 . S
H3107 C3119 0.950 . S
C3108 H3100 0.950 . S
C3108 C3109 1.386 . S
C3108 C3110 1.391 . S
C3109 C3108 1.386 . S
C3109 C3113 1.393 . S
C3110 H3102 0.950 . S
C3110 C3108 1.391 . S
C3110 C3111 1.400 . S
C3111 C3110 1.400 . S
C3111 C3112 1.398 . S
C3111 C3117 1.491 . S
C3112 H3103 0.950 . S
C3112 C3111 1.398 . S
C3112 C3113 1.391 . S
C3113 H3101 0.950 . S
C3113 C3109 1.393 . S
C3113 C3112 1.391 . S
C3114 H3104 0.950 . S
C3114 C3115 1.386 . S
C3114 C3116 1.391 . S
C3115 C3114 1.386 . S
C3115 C3119 1.393 . S
C3116 H3105 0.950 . S
C3116 C3114 1.391 . S
C3116 C3117 1.400 . S
C3117 C3111 1.491 . S
C3117 C3116 1.400 . S
C3117 C3118 1.398 . S
C3118 H3106 0.950 . S
C3118 C3117 1.398 . S
C3118 C3119 1.391 . S
C3119 H3107 0.950 . S
C3119 C3115 1.393 . S
C3119 C3118 1.391 . S
H3120 C3128 0.950 . S
H3121 C3133 0.950 . S
H3122 C3130 0.950 . S
H3123 C3132 0.950 . S
H3124 C3134 0.950 . S
H3125 C3136 0.950 . S
H3126 C3138 0.950 . S
H3127 C3139 0.950 . S
C3128 H3120 0.950 . S
C3128 C3129 1.386 . S
C3128 C3130 1.391 . S
C3129 C3128 1.386 . S
C3129 C3133 1.393 . S
C3130 H3122 0.950 . S
C3130 C3128 1.391 . S
C3130 C3131 1.400 . S
C3131 C3130 1.400 . S
C3131 C3132 1.398 . S
C3131 C3137 1.491 . S
C3132 H3123 0.950 . S
C3132 C3131 1.398 . S
C3132 C3133 1.391 . S
C3133 H3121 0.950 . S
C3133 C3129 1.393 . S
C3133 C3132 1.391 . S
C3134 H3124 0.950 . S
C3134 C3135 1.386 . S
C3134 C3136 1.391 . S
C3135 C3134 1.386 . S
C3135 C3139 1.393 . S
C3136 H3125 0.950 . S
C3136 C3134 1.391 . S
C3136 C3137 1.400 . S
C3137 C3131 1.491 . S
C3137 C3136 1.400 . S
C3137 C3138 1.398 . S
C3138 H3126 0.950 . S
C3138 C3137 1.398 . S
C3138 C3139 1.391 . S
C3139 H3127 0.950 . S
C3139 C3135 1.393 . S
C3139 C3138 1.391 . S
H3140 C3148 0.950 . S
H3141 C3153 0.950 . S
H3142 C3150 0.950 . S
H3143 C3152 0.950 . S
H3144 C3154 0.950 . S
H3145 C3156 0.950 . S
H3146 C3158 0.950 . S
H3147 C3159 0.950 . S
C3148 H3140 0.950 . S
C3148 C3149 1.386 . S
C3148 C3150 1.391 . S
C3149 C3148 1.386 . S
C3149 C3153 1.393 . S
C3150 H3142 0.950 . S
C3150 C3148 1.391 . S
C3150 C3151 1.400 . S
C3151 C3150 1.400 . S
C3151 C3152 1.398 . S
C3151 C3157 1.491 . S
C3152 H3143 0.950 . S
C3152 C3151 1.398 . S
C3152 C3153 1.391 . S
C3153 H3141 0.950 . S
C3153 C3149 1.393 . S
C3153 C3152 1.391 . S
C3154 H3144 0.950 . S
C3154 C3155 1.386 . S
C3154 C3156 1.391 . S
C3155 C3154 1.386 . S
C3155 C3159 1.393 . S
C3156 H3145 0.950 . S
C3156 C3154 1.391 . S
C3156 C3157 1.400 . S
C3157 C3151 1.491 . S
C3157 C3156 1.400 . S
C3157 C3158 1.398 . S
C3158 H3146 0.950 . S
C3158 C3157 1.398 . S
C3158 C3159 1.391 . S
C3159 H3147 0.950 . S
C3159 C3155 1.393 . S
C3159 C3158 1.391 . S
H3160 C3168 0.950 . S
H3161 C3173 0.950 . S
H3162 C3170 0.950 . S
H3163 C3172 0.950 . S
H3164 C3174 0.950 . S
H3165 C3176 0.950 . S
H3166 C3178 0.950 . S
H3167 C3179 0.950 . S
C3168 H3160 0.950 . S
C3168 C3169 1.386 . S
C3168 C3170 1.391 . S
C3169 C3168 1.386 . S
C3169 C3173 1.393 . S
C3170 H3162 0.950 . S
C3170 C3168 1.391 . S
C3170 C3171 1.400 . S
C3171 C3170 1.400 . S
C3171 C3172 1.398 . S
C3171 C3177 1.491 . S
C3172 H3163 0.950 . S
C3172 C3171 1.398 . S
C3172 C3173 1.391 . S
C3173 H3161 0.950 . S
C3173 C3169 1.393 . S
C3173 C3172 1.391 . S
C3174 H3164 0.950 . S
C3174 C3175 1.386 . S
C3174 C3176 1.391 . S
C3175 C3174 1.386 . S
C3175 C3179 1.393 . S
C3176 H3165 0.950 . S
C3176 C3174 1.391 . S
C3176 C3177 1.400 . S
C3177 C3171 1.491 . S
C3177 C3176 1.400 . S
C3177 C3178 1.398 . S
C3178 H3166 0.950 . S
C3178 C3177 1.398 . S
C3178 C3179 1.391 . S
C3179 H3167 0.950 . S
C3179 C3175 1.393 . S
C3179 C3178 1.391 . S
H3180 C3188 0.950 . S
H3181 C3193 0.950 . S
H3182 C3190 0.950 . S
H3183 C3192 0.950 . S
H3184 C3194 0.950 . S
H3185 C3196 0.950 . S
H3186 C3198 0.950 . S
H3187 C3199 0.950 . S
C3188 H3180 0.950 . S
C3188 C3189 1.386 . S
C3188 C3190 1.391 . S
C3189 C3188 1.386 . S
C3189 C3193 1.393 . S
C3190 H3182 0.950 . S
C3190 C3188 1.391 . S
C3190 C3191 1.400 . S
C3191 C3190 1.400 . S
C3191 C3192 1.398 . S
C3191 C3197 1.491 . S
C3192 H3183 0.950 . S
C3192 C3191 1.398 . S
C3192 C3193 1.391 . S
C3193 H3181 0.950 . S
C3193 C3189 1.393 . S
C3193 C3192 1.391 . S
C3194 H3184 0.950 . S
C3194 C3195 1.386 . S
C3194 C3196 1.391 . S
C3195 C3194 1.386 . S
C3195 C3199 1.393 . S
C3196 H3185 0.950 . S
C3196 C3194 1.391 . S
C3196 C3197 1.400 . S
C3197 C3191 1.491 . S
C3197 C3196 1.400 . S
C3197 C3198 1.398 . S
C3198 H3186 0.950 . S
C3198 C3197 1.398 . S
C3198 C3199 1.391 . S
C3199 H3187 0.950 . S
C3199 C3195 1.393 . S
C3199 C3198 1.391 . S
C1289 C1131 1.668 . S
C1295 C2 1.668 . S
C1309 C211 1.661 . S
C1315 C42 1.662 . S
C1329 C891 1.669 . S
C1335 C82 1.670 . S
C1349 C611 1.668 . S
C1355 C122 1.668 . S
C1369 C171 1.670 . S
C1375 C962 1.670 . S
C1389 C722 1.670 . S
C1395 C251 1.670 . S
C1409 C442 1.670 . S
C1415 C291 1.670 . S
C1429 C811 1.673 . S
C1435 C322 1.673 . S
C1449 C362 1.671 . S
C1455 C531 1.671 . S
C1469 C402 1.669 . S
C1475 C1211 1.669 . S
C1489 C642 1.676 . S
C1495 C491 1.676 . S
C1509 C571 1.663 . S
C1515 C1042 1.663 . S
C1529 C682 1.660 . S
C1535 C851 1.661 . S
C1549 C762 1.676 . S
C1555 C1251 1.676 . S
C1569 C1082 1.666 . S
C1575 C931 1.666 . S
C1589 C1171 1.667 . S
C1595 C1002 1.667 . S
C1609 C771 1.563 . S
C1615 C11 1.560 . S
C1629 C731 1.558 . S
C1635 C51 1.560 . S
C1649 C691 1.568 . S
C1655 C91 1.571 . S
C1669 C651 1.561 . S
C1675 C131 1.559 . S
C1689 C922 1.560 . S
C1695 C162 1.559 . S
C1709 C202 1.559 . S
C1715 C882 1.558 . S
C1729 C242 1.565 . S
C1735 C842 1.568 . S
C1749 C282 1.569 . S
C1755 C802 1.572 . S
C1769 C331 1.580 . S
C1775 C1091 1.582 . S
C1789 C371 1.561 . S
C1795 C1051 1.563 . S
C1809 C411 1.568 . S
C1815 C1011 1.565 . S
C1829 C971 1.569 . S
C1835 C451 1.568 . S
C1849 C482 1.582 . S
C1855 C1242 1.581 . S
C1869 C522 1.565 . S
C1875 C1202 1.562 . S
C1889 C562 1.561 . S
C1895 C1162 1.564 . S
C1909 C1122 1.574 . S
C1915 C602 1.571 . S
C1929 C16 1.243 . S
C1935 C7 1.243 . S
C1949 C56 1.266 . S
C1955 C47 1.266 . S
C1969 C87 1.242 . S
C1975 C96 1.242 . S
C1989 C127 1.271 . S
C1995 C136 1.271 . S
C2009 C176 1.243 . S
C2015 C167 1.243 . S
C2029 C216 1.239 . S
C2035 C207 1.239 . S
C2049 C256 1.241 . S
C2055 C247 1.241 . S
C2069 C287 1.271 . S
C2075 C296 1.271 . S
C2089 C336 1.276 . S
C2095 C327 1.276 . S
C2109 C367 1.270 . S
C2115 C376 1.270 . S
C2129 C407 1.241 . S
C2135 C416 1.241 . S
C2149 C447 1.248 . S
C2155 C456 1.248 . S
C2169 C496 1.265 . S
C2175 C487 1.265 . S
C2189 C527 1.257 . S
C2195 C536 1.257 . S
C2209 C576 1.242 . S
C2215 C567 1.242 . S
C2229 C607 1.261 . S
C2235 C616 1.261 . S
C2249 C656 1.267 . S
C2255 C647 1.267 . S
C2269 C687 1.239 . S
C2275 C696 1.239 . S
C2289 C727 1.243 . S
C2295 C736 1.243 . S
C2309 C767 1.261 . S
C2315 C776 1.261 . S
C2329 C807 1.271 . S
C2335 C816 1.271 . S
C2349 C856 1.245 . S
C2355 C847 1.245 . S
C2369 C887 1.238 . S
C2375 C896 1.238 . S
C2389 C927 1.271 . S
C2395 C936 1.271 . S
C2409 C976 1.257 . S
C2415 C967 1.257 . S
C2429 C1007 1.241 . S
C2435 C1016 1.241 . S
C2449 C1047 1.266 . S
C2455 C1056 1.266 . S
C2469 C1096 1.257 . S
C2475 C1087 1.257 . S
C2489 C1136 1.270 . S
C2495 C1127 1.270 . S
C2509 C1167 1.268 . S
C2515 C1176 1.268 . S
C2529 C1207 1.242 . S
C2535 C1216 1.242 . S
C2549 C1247 1.274 . S
C2555 C1256 1.274 . S
C2569 C410 2.108 . S
C2575 C10 2.111 . S
C2589 C450 2.074 . S
C2595 C50 2.079 . S
C2609 C90 2.079 1_556 S
C2615 C330 2.074 . S
C2629 C370 2.106 . S
C2635 C130 2.114 1_556 S
C2649 C179 2.107 . S
C2655 C579 2.113 . S
C2669 C219 2.082 . S
C2675 C619 2.071 . S
C2689 C259 2.074 1_554 S
C2695 C499 2.079 . S
C2709 C299 2.115 1_554 S
C2715 C539 2.105 . S
C2729 C1050 2.111 1_556 S
C2735 C650 2.109 . S
C2749 C690 2.075 . S
C2755 C1090 2.078 1_556 S
C2769 C970 2.083 . S
C2775 C730 2.070 . S
C2789 C770 2.108 . S
C2795 C1010 2.112 . S
C2809 C1219 2.113 1_554 S
C2815 C819 2.106 . S
C2829 C859 2.083 . S
C2835 C1259 2.070 1_554 S
C2849 C899 2.081 . S
C2855 C1139 2.073 . S
C2869 C1179 2.114 . S
C2875 C939 2.106 . S
C2889 C19 1.111 . S
C2895 C99 1.131 . S
C2909 C139 1.125 . S
C2915 C59 1.127 . S
C2929 C250 1.108 . S
C2935 C170 1.130 . S
C2949 C210 1.106 . S
C2955 C290 1.128 . S
C2969 C339 1.087 . S
C2975 C419 1.069 . S
C2989 C459 1.073 . S
C2995 C379 1.090 . S
C3009 C570 1.074 . S
C3015 C490 1.068 . S
C3029 C610 1.082 . S
C3035 C530 1.090 . S
C3049 C739 1.124 . S
C3055 C659 1.128 . S
C3069 C779 1.125 . S
C3075 C699 1.128 . S
C3089 C890 1.108 . S
C3095 C810 1.130 . S
C3109 C930 1.110 . S
C3115 C850 1.130 . S
C3129 C979 1.091 . S
C3135 C1059 1.076 . S
C3149 C1019 1.090 . S
C3155 C1099 1.082 . S
C3169 C1130 1.080 . S
C3175 C1210 1.090 . S
C3189 C1250 1.083 . S
C3195 C1170 1.067 . S
