# Generated by pormake.
# Topology svo, (7)-cn, num edge types: 1
# Building blocks:
#     Node 0, Type 0, BuildingBlock: NUHQUE_clean_sbu_2, # of connection points: 7
#     Node 1, Type 0, BuildingBlock: NUHQUE_clean_sbu_2, # of connection points: 7
#     Node 2, Type 0, BuildingBlock: NUHQUE_clean_sbu_2, # of connection points: 7
#     Node 3, Type 0, BuildingBlock: NUHQUE_clean_sbu_2, # of connection points: 7
#     Node 4, Type 0, BuildingBlock: NUHQUE_clean_sbu_2, # of connection points: 7
#     Node 5, Type 0, BuildingBlock: NUHQUE_clean_sbu_2, # of connection points: 7
#     Node 6, Type 0, BuildingBlock: NUHQUE_clean_sbu_2, # of connection points: 7
#     Node 7, Type 0, BuildingBlock: NUHQUE_clean_sbu_2, # of connection points: 7
#     Node 8, Type 0, BuildingBlock: NUHQUE_clean_sbu_2, # of connection points: 7
#     Node 9, Type 0, BuildingBlock: NUHQUE_clean_sbu_2, # of connection points: 7
#     Node 10, Type 0, BuildingBlock: NUHQUE_clean_sbu_2, # of connection points: 7
#     Node 11, Type 0, BuildingBlock: NUHQUE_clean_sbu_2, # of connection points: 7
#     Node 12, Type 0, BuildingBlock: NUHQUE_clean_sbu_2, # of connection points: 7
#     Node 13, Type 0, BuildingBlock: NUHQUE_clean_sbu_2, # of connection points: 7
#     Node 14, Type 0, BuildingBlock: NUHQUE_clean_sbu_2, # of connection points: 7
#     Node 15, Type 0, BuildingBlock: NUHQUE_clean_sbu_2, # of connection points: 7
#     Edge 16, Type (0, 0), BuildingBlock: CIFDUS_clean_linker_0, # of connection points: 2
#     Edge 17, Type (0, 0), BuildingBlock: CIFDUS_clean_linker_0, # of connection points: 2
#     Edge 18, Type (0, 0), BuildingBlock: CIFDUS_clean_linker_0, # of connection points: 2
#     Edge 19, Type (0, 0), BuildingBlock: CIFDUS_clean_linker_0, # of connection points: 2
#     Edge 20, Type (0, 0), BuildingBlock: CIFDUS_clean_linker_0, # of connection points: 2
#     Edge 21, Type (0, 0), BuildingBlock: CIFDUS_clean_linker_0, # of connection points: 2
#     Edge 22, Type (0, 0), BuildingBlock: CIFDUS_clean_linker_0, # of connection points: 2
#     Edge 23, Type (0, 0), BuildingBlock: CIFDUS_clean_linker_0, # of connection points: 2
#     Edge 24, Type (0, 0), BuildingBlock: CIFDUS_clean_linker_0, # of connection points: 2
#     Edge 25, Type (0, 0), BuildingBlock: CIFDUS_clean_linker_0, # of connection points: 2
#     Edge 26, Type (0, 0), BuildingBlock: CIFDUS_clean_linker_0, # of connection points: 2
#     Edge 27, Type (0, 0), BuildingBlock: CIFDUS_clean_linker_0, # of connection points: 2
#     Edge 28, Type (0, 0), BuildingBlock: CIFDUS_clean_linker_0, # of connection points: 2
#     Edge 29, Type (0, 0), BuildingBlock: CIFDUS_clean_linker_0, # of connection points: 2
#     Edge 30, Type (0, 0), BuildingBlock: CIFDUS_clean_linker_0, # of connection points: 2
#     Edge 31, Type (0, 0), BuildingBlock: CIFDUS_clean_linker_0, # of connection points: 2
#     Edge 32, Type (0, 0), BuildingBlock: CIFDUS_clean_linker_0, # of connection points: 2
#     Edge 33, Type (0, 0), BuildingBlock: CIFDUS_clean_linker_0, # of connection points: 2
#     Edge 34, Type (0, 0), BuildingBlock: CIFDUS_clean_linker_0, # of connection points: 2
#     Edge 35, Type (0, 0), BuildingBlock: CIFDUS_clean_linker_0, # of connection points: 2
#     Edge 36, Type (0, 0), BuildingBlock: CIFDUS_clean_linker_0, # of connection points: 2
#     Edge 37, Type (0, 0), BuildingBlock: CIFDUS_clean_linker_0, # of connection points: 2
#     Edge 38, Type (0, 0), BuildingBlock: CIFDUS_clean_linker_0, # of connection points: 2
#     Edge 39, Type (0, 0), BuildingBlock: CIFDUS_clean_linker_0, # of connection points: 2
#     Edge 40, Type (0, 0), BuildingBlock: CIFDUS_clean_linker_0, # of connection points: 2
#     Edge 41, Type (0, 0), BuildingBlock: CIFDUS_clean_linker_0, # of connection points: 2
#     Edge 42, Type (0, 0), BuildingBlock: CIFDUS_clean_linker_0, # of connection points: 2
#     Edge 43, Type (0, 0), BuildingBlock: CIFDUS_clean_linker_0, # of connection points: 2
#     Edge 44, Type (0, 0), BuildingBlock: CIFDUS_clean_linker_0, # of connection points: 2
#     Edge 45, Type (0, 0), BuildingBlock: CIFDUS_clean_linker_0, # of connection points: 2
#     Edge 46, Type (0, 0), BuildingBlock: CIFDUS_clean_linker_0, # of connection points: 2
#     Edge 47, Type (0, 0), BuildingBlock: CIFDUS_clean_linker_0, # of connection points: 2
#     Edge 48, Type (0, 0), BuildingBlock: CIFDUS_clean_linker_0, # of connection points: 2
#     Edge 49, Type (0, 0), BuildingBlock: CIFDUS_clean_linker_0, # of connection points: 2
#     Edge 50, Type (0, 0), BuildingBlock: CIFDUS_clean_linker_0, # of connection points: 2
#     Edge 51, Type (0, 0), BuildingBlock: CIFDUS_clean_linker_0, # of connection points: 2
#     Edge 52, Type (0, 0), BuildingBlock: CIFDUS_clean_linker_0, # of connection points: 2
#     Edge 53, Type (0, 0), BuildingBlock: CIFDUS_clean_linker_0, # of connection points: 2
#     Edge 54, Type (0, 0), BuildingBlock: CIFDUS_clean_linker_0, # of connection points: 2
#     Edge 55, Type (0, 0), BuildingBlock: CIFDUS_clean_linker_0, # of connection points: 2
#     Edge 56, Type (0, 0), BuildingBlock: CIFDUS_clean_linker_0, # of connection points: 2
#     Edge 57, Type (0, 0), BuildingBlock: CIFDUS_clean_linker_0, # of connection points: 2
#     Edge 58, Type (0, 0), BuildingBlock: CIFDUS_clean_linker_0, # of connection points: 2
#     Edge 59, Type (0, 0), BuildingBlock: CIFDUS_clean_linker_0, # of connection points: 2
#     Edge 60, Type (0, 0), BuildingBlock: CIFDUS_clean_linker_0, # of connection points: 2
#     Edge 61, Type (0, 0), BuildingBlock: CIFDUS_clean_linker_0, # of connection points: 2
#     Edge 62, Type (0, 0), BuildingBlock: CIFDUS_clean_linker_0, # of connection points: 2
#     Edge 63, Type (0, 0), BuildingBlock: CIFDUS_clean_linker_0, # of connection points: 2
#     Edge 64, Type (0, 0), BuildingBlock: CIFDUS_clean_linker_0, # of connection points: 2
#     Edge 65, Type (0, 0), BuildingBlock: CIFDUS_clean_linker_0, # of connection points: 2
#     Edge 66, Type (0, 0), BuildingBlock: CIFDUS_clean_linker_0, # of connection points: 2
#     Edge 67, Type (0, 0), BuildingBlock: CIFDUS_clean_linker_0, # of connection points: 2
#     Edge 68, Type (0, 0), BuildingBlock: CIFDUS_clean_linker_0, # of connection points: 2
#     Edge 69, Type (0, 0), BuildingBlock: CIFDUS_clean_linker_0, # of connection points: 2
#     Edge 70, Type (0, 0), BuildingBlock: CIFDUS_clean_linker_0, # of connection points: 2
#     Edge 71, Type (0, 0), BuildingBlock: CIFDUS_clean_linker_0, # of connection points: 2
# Relax obj value: 0.163
# Max RMSD: 0.274
# Mean RMSD: 0.274
data_MOF--net-svo--node1-NUHQUE_clean_sbu_2--edge1-CIFDUS_clean_linker_0
_symmetry_space_group_name_H-M    P1
_symmetry_Int_Tables_number       1
_symmetry_cell_setting            triclinic
loop_
_symmetry_equiv_pos_as_xyz
'x, y, z'
_cell_length_a     34.718262
_cell_length_b     34.517265
_cell_length_c     47.994228
_cell_angle_alpha  90.070599
_cell_angle_beta   90.034827
_cell_angle_gamma 90.001225
loop_
_atom_site_label
_atom_site_type_symbol
_atom_site_fract_x
_atom_site_fract_y
_atom_site_fract_z
_atom_type_partial_charge
O0 O 0.27339 0.2125 0.13547 0.0
Tb1 Tb 0.29521 0.26911 0.12321 0.0
Eu2 Eu 0.21224 0.372 0.10338 0.0
C3 C 0.29124 0.19089 0.154 0.0
O4 O 0.31872 0.20642 0.16917 0.0
C5 C 0.24145 0.3295 0.15459 0.0
O6 O 0.22083 0.43731 0.10568 0.0
C7 C 0.1458 0.35014 0.08375 0.0
C8 C 0.25451 0.45212 0.11272 0.0
O9 O 0.28283 0.42832 0.11879 0.0
C10 C 0.2557 0.3054 0.07111 0.0
C11 C 0.10429 0.35544 0.08934 0.0
C12 C 0.08069 0.32248 0.09247 0.0
C13 C 0.04163 0.32673 0.09918 0.0
C14 C 0.02608 0.36378 0.10235 0.0
C15 C 0.04899 0.39687 0.09933 0.0
C16 C 0.08821 0.39262 0.0927 0.0
O17 O 0.26606 0.32235 0.13453 0.0
O18 O 0.21537 0.35594 0.14902 0.0
O19 O 0.35015 0.278 0.14467 0.0
O20 O 0.35019 0.26366 0.1015 0.0
C21 C 0.37178 0.27106 0.12306 0.0
O22 O 0.26155 0.33888 0.08368 0.0
O23 O 0.27073 0.27325 0.08142 0.0
O24 O 0.1649 0.33083 0.10276 0.0
O25 O 0.16529 0.37964 0.07362 0.0
H26 H 0.09278 0.29369 0.09017 0.0
H27 H 0.99567 0.36675 0.10712 0.0
H28 H 0.10623 0.41812 0.09082 0.0
O29 O 0.83074 0.22165 0.12676 0.0
Tb30 Tb 0.7689 0.23071 0.12994 0.0
Eu31 Eu 0.67509 0.20609 0.13555 0.0
C32 C 0.85337 0.22723 0.14837 0.0
O33 O 0.83768 0.23409 0.17276 0.0
C34 C 0.72736 0.23342 0.18605 0.0
O35 O 0.61459 0.22822 0.12988 0.0
C36 C 0.67296 0.13285 0.14784 0.0
C37 C 0.59405 0.21724 0.10825 0.0
O38 O 0.60979 0.19423 0.08963 0.0
C39 C 0.72331 0.19768 0.08034 0.0
C40 C 0.66499 0.09412 0.13571 0.0
C41 C 0.69468 0.06638 0.13512 0.0
C42 C 0.6872 0.02857 0.12603 0.0
C43 C 0.65 0.01824 0.11768 0.0
C44 C 0.61939 0.04452 0.11968 0.0
C45 C 0.62724 0.08288 0.12805 0.0
O46 O 0.75724 0.21797 0.17339 0.0
O47 O 0.69579 0.24162 0.17206 0.0
O48 O 0.79122 0.28873 0.12188 0.0
O49 O 0.73068 0.2806 0.12243 0.0
C50 C 0.75821 0.30598 0.11932 0.0
O51 O 0.69223 0.2141 0.09059 0.0
O52 O 0.75352 0.1916 0.09624 0.0
O53 O 0.64361 0.15642 0.15114 0.0
O54 O 0.70478 0.15064 0.14017 0.0
H55 H 0.72322 0.07375 0.14264 0.0
H56 H 0.6445 0.98861 0.11124 0.0
H57 H 0.60366 0.10324 0.13007 0.0
O58 O 0.75374 0.79814 0.13705 0.0
Tb59 Tb 0.73481 0.73927 0.12926 0.0
Eu60 Eu 0.8017 0.62337 0.11928 0.0
C61 C 0.73992 0.81751 0.15838 0.0
O62 O 0.71687 0.79972 0.17586 0.0
C63 C 0.76158 0.66856 0.16458 0.0
O64 O 0.80416 0.55894 0.11087 0.0
C65 C 0.86797 0.65813 0.11643 0.0
C66 C 0.77328 0.53706 0.11357 0.0
O67 O 0.74034 0.55354 0.11999 0.0
C68 C 0.76585 0.68926 0.08111 0.0
C69 C 0.90939 0.65199 0.11245 0.0
C70 C 0.93483 0.68308 0.11683 0.0
C71 C 0.97437 0.67836 0.11203 0.0
C72 C 0.98834 0.64242 0.10298 0.0
C73 C 0.96343 0.61086 0.09958 0.0
C74 C 0.9238 0.61575 0.10423 0.0
O75 O 0.77041 0.69271 0.14463 0.0
O76 O 0.77394 0.63299 0.16135 0.0
O77 O 0.68153 0.73003 0.15283 0.0
O78 O 0.67893 0.73812 0.10882 0.0
C79 C 0.6587 0.73262 0.13129 0.0
O80 O 0.75646 0.65999 0.09747 0.0
O81 O 0.75592 0.72493 0.08801 0.0
O82 O 0.85298 0.64578 0.13995 0.0
O83 O 0.84589 0.65171 0.09465 0.0
H84 H 0.92392 0.71083 0.12392 0.0
H85 H 0.0191 0.6384 0.10021 0.0
H86 H 0.9043 0.59147 0.10159 0.0
O87 O 0.20085 0.7809 0.10962 0.0
Tb88 Tb 0.25985 0.76274 0.1167 0.0
Eu89 Eu 0.3537 0.79003 0.13459 0.0
C90 C 0.17457 0.77668 0.12911 0.0
O91 O 0.18556 0.76714 0.15438 0.0
C92 C 0.29015 0.76381 0.17592 0.0
O93 O 0.41678 0.77494 0.13512 0.0
C94 C 0.34454 0.8634 0.14603 0.0
C95 C 0.43478 0.76733 0.1586 0.0
O96 O 0.41551 0.76873 0.18213 0.0
C97 C 0.32071 0.78684 0.07286 0.0
C98 C 0.3582 0.90321 0.13999 0.0
C99 C 0.33447 0.93491 0.14708 0.0
C100 C 0.34881 0.97289 0.14553 0.0
C101 C 0.38663 0.97912 0.13666 0.0
C102 C 0.41097 0.94819 0.12961 0.0
C103 C 0.39634 0.91007 0.13109 0.0
O104 O 0.26554 0.78135 0.15954 0.0
O105 O 0.32366 0.75253 0.16623 0.0
O106 O 0.22848 0.70985 0.10639 0.0
O107 O 0.28704 0.70466 0.11811 0.0
C108 C 0.25625 0.68542 0.11067 0.0
O109 O 0.34908 0.77495 0.08888 0.0
O110 O 0.28651 0.79481 0.08301 0.0
O111 O 0.3689 0.8406 0.15903 0.0
O112 O 0.32375 0.84517 0.1272 0.0
H113 H 0.30565 0.92996 0.15501 0.0
H114 H 0.39776 0.00848 0.13696 0.0
H115 H 0.4149 0.88571 0.12634 0.0
O116 O 0.23372 0.79916 0.39102 0.0
Tb117 Tb 0.2513 0.73896 0.38655 0.0
Eu118 Eu 0.20816 0.6449 0.37666 0.0
C119 C 0.23474 0.82364 0.37002 0.0
O120 O 0.24177 0.8104 0.34486 0.0
C121 C 0.24462 0.6974 0.33116 0.0
O122 O 0.20589 0.57927 0.37816 0.0
C123 C 0.13873 0.67165 0.36816 0.0
C124 C 0.23718 0.55772 0.37649 0.0
O125 O 0.27087 0.57482 0.37444 0.0
C126 C 0.22408 0.68417 0.4357 0.0
C127 C 0.09856 0.66605 0.37775 0.0
C128 C 0.07089 0.69533 0.37315 0.0
C129 C 0.03199 0.68929 0.38037 0.0
C130 C 0.02115 0.65381 0.39218 0.0
C131 C 0.04787 0.62386 0.39573 0.0
C132 C 0.0867 0.63023 0.38882 0.0
O133 O 0.22958 0.72625 0.34527 0.0
O134 O 0.24941 0.66355 0.34313 0.0
O135 O 0.30506 0.77148 0.38952 0.0
O136 O 0.30856 0.71069 0.38433 0.0
C137 C 0.32864 0.74259 0.38665 0.0
O138 O 0.22854 0.6522 0.42102 0.0
O139 O 0.22299 0.71892 0.42439 0.0
O140 O 0.15397 0.6428 0.35412 0.0
O141 O 0.16318 0.68781 0.38556 0.0
H142 H 0.07938 0.72227 0.36333 0.0
H143 H 0.99095 0.64823 0.39639 0.0
H144 H 0.10736 0.60689 0.39114 0.0
O145 O 0.18465 0.23853 0.36795 0.0
Tb146 Tb 0.24567 0.24955 0.36227 0.0
Eu147 Eu 0.33699 0.21415 0.3542 0.0
C148 C 0.16059 0.23929 0.3468 0.0
O149 O 0.17439 0.24266 0.32145 0.0
C150 C 0.2849 0.24442 0.30514 0.0
O151 O 0.40035 0.22678 0.35724 0.0
C152 C 0.32555 0.14039 0.34647 0.0
C153 C 0.4202 0.23349 0.33444 0.0
O154 O 0.40256 0.23188 0.31024 0.0
C155 C 0.29541 0.22302 0.41199 0.0
C156 C 0.33297 0.1017 0.35883 0.0
C157 C 0.3028 0.0744 0.36 0.0
C158 C 0.30991 0.03636 0.36909 0.0
C159 C 0.34736 0.02568 0.37671 0.0
C160 C 0.37821 0.05158 0.37413 0.0
C161 C 0.37068 0.09 0.366 0.0
O162 O 0.25461 0.23244 0.3191 0.0
O163 O 0.31783 0.25026 0.3179 0.0
O164 O 0.22199 0.3079 0.36661 0.0
O165 O 0.2827 0.30106 0.36694 0.0
C166 C 0.25461 0.32614 0.36844 0.0
O167 O 0.3267 0.23297 0.39845 0.0
O168 O 0.26301 0.21618 0.39869 0.0
O169 O 0.3555 0.15935 0.33677 0.0
O170 O 0.29999 0.163 0.35856 0.0
H171 H 0.27416 0.08236 0.35305 0.0
H172 H 0.35296 0.996 0.38292 0.0
H173 H 0.39448 0.11002 0.36361 0.0
O174 O 0.73722 0.20828 0.36138 0.0
Tb175 Tb 0.7183 0.26747 0.36937 0.0
Eu176 Eu 0.80175 0.37207 0.38353 0.0
C177 C 0.72254 0.18734 0.34102 0.0
O178 O 0.70127 0.20447 0.32203 0.0
C179 C 0.77433 0.32182 0.33519 0.0
O180 O 0.79418 0.43573 0.37335 0.0
C181 C 0.8674 0.35799 0.40753 0.0
C182 C 0.76459 0.4562 0.38235 0.0
O183 O 0.73794 0.43904 0.39732 0.0
C184 C 0.75684 0.30995 0.41937 0.0
C185 C 0.90904 0.36544 0.40383 0.0
C186 C 0.93407 0.33345 0.40181 0.0
C187 C 0.97347 0.33911 0.39738 0.0
C188 C 0.98807 0.37664 0.3951 0.0
C189 C 0.9638 0.40894 0.39688 0.0
C190 C 0.92414 0.40333 0.40156 0.0
O191 O 0.74867 0.31837 0.35499 0.0
O192 O 0.80129 0.34779 0.3396 0.0
O193 O 0.66484 0.27259 0.34565 0.0
O194 O 0.66229 0.26919 0.38995 0.0
C195 C 0.64203 0.27167 0.36718 0.0
O196 O 0.75163 0.34167 0.40454 0.0
O197 O 0.74187 0.27664 0.41103 0.0
O198 O 0.85153 0.3348 0.38911 0.0
O199 O 0.84501 0.38708 0.41474 0.0
H200 H 0.92285 0.3042 0.40331 0.0
H201 H 0.0187 0.38065 0.39163 0.0
H202 H 0.90516 0.4282 0.40262 0.0
O203 O 0.7944 0.77289 0.37252 0.0
Tb204 Tb 0.73431 0.76154 0.36208 0.0
Eu205 Eu 0.63557 0.79092 0.35186 0.0
C206 C 0.82245 0.76887 0.35425 0.0
O207 O 0.81373 0.76228 0.32803 0.0
C208 C 0.6937 0.76351 0.30646 0.0
O209 O 0.57175 0.77895 0.35874 0.0
C210 C 0.64517 0.86357 0.33851 0.0
C211 C 0.55683 0.7439 0.35666 0.0
O212 O 0.57956 0.71489 0.35002 0.0
C213 C 0.68178 0.79398 0.40914 0.0
C214 C 0.63416 0.90377 0.34599 0.0
C215 C 0.66014 0.93431 0.34074 0.0
C216 C 0.64856 0.97297 0.34445 0.0
C217 C 0.61094 0.98103 0.35314 0.0
C218 C 0.58436 0.95121 0.35824 0.0
C219 C 0.59656 0.91245 0.35514 0.0
O220 O 0.72009 0.78196 0.32086 0.0
O221 O 0.66138 0.75252 0.31844 0.0
O222 O 0.75726 0.70326 0.35664 0.0
O223 O 0.70171 0.7095 0.37459 0.0
C224 C 0.72814 0.68463 0.36702 0.0
O225 O 0.65068 0.77995 0.39701 0.0
O226 O 0.71449 0.7983 0.39572 0.0
O227 O 0.61791 0.84137 0.32817 0.0
O228 O 0.66877 0.84487 0.35515 0.0
H229 H 0.68874 0.92809 0.33287 0.0
H230 H 0.60187 0.01105 0.35425 0.0
H231 H 0.57646 0.88901 0.35886 0.0
O232 O 0.70713 0.74057 0.88951 0.0
Tb233 Tb 0.76722 0.75465 0.88228 0.0
Eu234 Eu 0.85829 0.73535 0.86638 0.0
C235 C 0.68514 0.72439 0.87044 0.0
O236 O 0.70074 0.71176 0.84723 0.0
C237 C 0.7974 0.76206 0.82367 0.0
O238 O 0.92015 0.75341 0.8612 0.0
C239 C 0.84997 0.66306 0.85223 0.0
C240 C 0.94648 0.7403 0.87843 0.0
O241 O 0.93574 0.71819 0.8993 0.0
C242 C 0.82439 0.72523 0.92664 0.0
C243 C 0.85471 0.62283 0.86222 0.0
C244 C 0.82376 0.59687 0.85907 0.0
C245 C 0.82797 0.55792 0.8666 0.0
C246 C 0.86312 0.54498 0.87739 0.0
C247 C 0.89542 0.56932 0.87826 0.0
C248 C 0.89069 0.60877 0.87151 0.0
O249 O 0.77362 0.74123 0.83862 0.0
O250 O 0.83002 0.77381 0.8346 0.0
O251 O 0.74076 0.81108 0.88974 0.0
O252 O 0.80159 0.80804 0.88649 0.0
C253 C 0.77231 0.83126 0.88998 0.0
O254 O 0.85249 0.74232 0.91297 0.0
O255 O 0.79115 0.71807 0.91461 0.0
O256 O 0.88134 0.68322 0.84738 0.0
O257 O 0.82203 0.68373 0.8632 0.0
H258 H 0.79689 0.60662 0.84992 0.0
H259 H 0.86606 0.51467 0.88289 0.0
H260 H 0.91539 0.62793 0.87185 0.0
O261 O 0.2712 0.69321 0.84945 0.0
Tb262 Tb 0.25145 0.7492 0.86338 0.0
Eu263 Eu 0.31242 0.86474 0.87252 0.0
C264 C 0.25845 0.67895 0.82585 0.0
O265 O 0.23868 0.70163 0.80915 0.0
C266 C 0.27096 0.82221 0.82738 0.0
O267 O 0.31456 0.92754 0.8851 0.0
C268 C 0.37991 0.83216 0.87329 0.0
C269 C 0.28508 0.94428 0.8974 0.0
O270 O 0.25402 0.92377 0.90256 0.0
C271 C 0.28138 0.79897 0.91167 0.0
C272 C 0.42026 0.84333 0.87722 0.0
C273 C 0.44821 0.81491 0.88272 0.0
C274 C 0.48667 0.82578 0.88704 0.0
C275 C 0.4971 0.86491 0.88522 0.0
C276 C 0.46957 0.8934 0.87924 0.0
C277 C 0.43097 0.88241 0.87561 0.0
O278 O 0.28225 0.79788 0.84655 0.0
O279 O 0.2829 0.8578 0.83079 0.0
O280 O 0.19281 0.76155 0.8485 0.0
O281 O 0.20163 0.74031 0.88975 0.0
C282 C 0.17594 0.7513 0.87171 0.0
O283 O 0.26933 0.82728 0.89546 0.0
O284 O 0.27671 0.76269 0.90365 0.0
O285 O 0.3633 0.84479 0.8504 0.0
O286 O 0.35788 0.83524 0.89541 0.0
H287 H 0.44007 0.78462 0.88382 0.0
H288 H 0.52715 0.87291 0.88749 0.0
H289 H 0.40918 0.90419 0.87153 0.0
O290 O 0.30033 0.24716 0.85953 0.0
Tb291 Tb 0.24247 0.23478 0.87462 0.0
Eu292 Eu 0.15836 0.29975 0.85498 0.0
C293 C 0.31579 0.22586 0.83974 0.0
O294 O 0.29392 0.20069 0.82663 0.0
C295 C 0.20438 0.23856 0.81617 0.0
O296 O 0.09748 0.2764 0.85513 0.0
C297 C 0.15745 0.37342 0.84479 0.0
C298 C 0.07725 0.27391 0.83197 0.0
O299 O 0.09393 0.28246 0.80819 0.0
C300 C 0.20175 0.29375 0.91263 0.0
C301 C 0.14586 0.41338 0.85122 0.0
C302 C 0.16987 0.4433 0.84181 0.0
C303 C 0.15685 0.48159 0.84192 0.0
C304 C 0.12042 0.49025 0.85269 0.0
C305 C 0.09612 0.46093 0.86267 0.0
C306 C 0.10906 0.42223 0.86186 0.0
O307 O 0.21114 0.21654 0.83778 0.0
O308 O 0.1913 0.27401 0.81888 0.0
O309 O 0.27671 0.18813 0.89243 0.0
O310 O 0.21685 0.18937 0.90074 0.0
C311 C 0.2486 0.16987 0.90444 0.0
O312 O 0.16788 0.2888 0.90097 0.0
O313 O 0.23366 0.28721 0.89885 0.0
O314 O 0.13052 0.34941 0.8364 0.0
O315 O 0.18516 0.35695 0.85924 0.0
H316 H 0.19762 0.43653 0.83262 0.0
H317 H 0.11029 0.51996 0.85191 0.0
H318 H 0.0901 0.39901 0.86837 0.0
O319 O 0.75892 0.32078 0.87264 0.0
Tb320 Tb 0.77716 0.26076 0.87154 0.0
Eu321 Eu 0.70759 0.14569 0.87734 0.0
C322 C 0.76429 0.34522 0.85207 0.0
O323 O 0.77869 0.33265 0.82842 0.0
C324 C 0.74743 0.19419 0.83323 0.0
O325 O 0.70791 0.08059 0.88301 0.0
C326 C 0.63888 0.1757 0.88015 0.0
C327 C 0.74047 0.06097 0.88383 0.0
O328 O 0.77316 0.07987 0.88148 0.0
C329 C 0.74469 0.20888 0.91786 0.0
C330 C 0.59874 0.16204 0.87931 0.0
C331 C 0.56849 0.18804 0.87329 0.0
C332 C 0.53064 0.17414 0.87019 0.0
C333 C 0.52333 0.13461 0.87384 0.0
C334 C 0.55311 0.10847 0.87969 0.0
C335 C 0.59086 0.12239 0.88249 0.0
O336 O 0.73925 0.21755 0.8539 0.0
O337 O 0.73465 0.15856 0.83551 0.0
O338 O 0.82854 0.25852 0.84495 0.0
O339 O 0.83419 0.2495 0.8887 0.0
C340 C 0.85279 0.25167 0.86518 0.0
O341 O 0.7529 0.18066 0.90033 0.0
O342 O 0.75744 0.24413 0.91276 0.0
O343 O 0.65807 0.17152 0.85678 0.0
O344 O 0.65922 0.16618 0.90228 0.0
H345 H 0.57449 0.21857 0.87034 0.0
H346 H 0.49393 0.12419 0.87228 0.0
H347 H 0.61429 0.10232 0.88638 0.0
O348 O 0.68852 0.29321 0.6256 0.0
Tb349 Tb 0.75012 0.28566 0.63062 0.0
Eu350 Eu 0.84067 0.31818 0.6375 0.0
C351 C 0.66456 0.28248 0.64531 0.0
O352 O 0.67863 0.27122 0.6694 0.0
C353 C 0.79026 0.28805 0.68643 0.0
O354 O 0.90332 0.30654 0.62869 0.0
C355 C 0.83078 0.39077 0.65063 0.0
C356 C 0.9255 0.28742 0.64613 0.0
O357 O 0.911 0.27491 0.66974 0.0
C358 C 0.79459 0.31967 0.58084 0.0
C359 C 0.83775 0.43131 0.64146 0.0
C360 C 0.80654 0.45751 0.63972 0.0
C361 C 0.8131 0.49686 0.63374 0.0
C362 C 0.85085 0.51002 0.63014 0.0
C363 C 0.88226 0.48507 0.63312 0.0
C364 C 0.87565 0.44548 0.63799 0.0
O365 O 0.76109 0.30357 0.67312 0.0
O366 O 0.82187 0.27921 0.67279 0.0
O367 O 0.72998 0.22587 0.62736 0.0
O368 O 0.78979 0.2367 0.62315 0.0
C369 C 0.76333 0.20979 0.6234 0.0
O370 O 0.82671 0.30711 0.59215 0.0
O371 O 0.76309 0.3232 0.59568 0.0
O372 O 0.86092 0.37019 0.65815 0.0
O373 O 0.80447 0.37028 0.63746 0.0
H374 H 0.77745 0.44757 0.64371 0.0
H375 H 0.85596 0.54063 0.62649 0.0
H376 H 0.90009 0.42631 0.64063 0.0
O377 O 0.74309 0.73346 0.60878 0.0
Tb378 Tb 0.75926 0.79383 0.6148 0.0
Eu379 Eu 0.72824 0.88915 0.62392 0.0
C380 C 0.73996 0.70901 0.62969 0.0
O381 O 0.74242 0.72222 0.65532 0.0
C382 C 0.76123 0.8369 0.66938 0.0
O383 O 0.72626 0.95475 0.62073 0.0
C384 C 0.6599 0.86435 0.63748 0.0
C385 C 0.75695 0.97728 0.62078 0.0
O386 O 0.79133 0.96149 0.6222 0.0
C387 C 0.7305 0.8459 0.56557 0.0
C388 C 0.6192 0.86676 0.62897 0.0
C389 C 0.59421 0.83615 0.63572 0.0
C390 C 0.55497 0.83852 0.62904 0.0
C391 C 0.54091 0.87156 0.61554 0.0
C392 C 0.56475 0.90373 0.61064 0.0
C393 C 0.60434 0.90059 0.61668 0.0
O394 O 0.74131 0.81033 0.65612 0.0
O395 O 0.77023 0.86929 0.65657 0.0
O396 O 0.81464 0.76463 0.61771 0.0
O397 O 0.81397 0.82416 0.60655 0.0
C398 C 0.83598 0.7942 0.61139 0.0
O399 O 0.74114 0.87789 0.5785 0.0
O400 O 0.7272 0.81245 0.57847 0.0
O401 O 0.67545 0.89605 0.64762 0.0
O402 O 0.68322 0.84497 0.62111 0.0
H403 H 0.60502 0.81104 0.64681 0.0
H404 H 0.51045 0.87314 0.61069 0.0
H405 H 0.62329 0.92508 0.61336 0.0
O406 O 0.32537 0.74177 0.64099 0.0
Tb407 Tb 0.26618 0.76194 0.63976 0.0
Eu408 Eu 0.1432 0.7129 0.63674 0.0
C409 C 0.35063 0.75703 0.65822 0.0
O410 O 0.33846 0.77995 0.67823 0.0
C411 C 0.19921 0.74169 0.68053 0.0
O412 O 0.07864 0.72031 0.63409 0.0
C413 C 0.16388 0.64133 0.63006 0.0
C414 C 0.06207 0.75199 0.62458 0.0
O415 O 0.08365 0.78115 0.61651 0.0
C416 C 0.20911 0.73581 0.59445 0.0
C417 C 0.15142 0.60077 0.63042 0.0
C418 C 0.17952 0.57246 0.63546 0.0
C419 C 0.16924 0.53343 0.63658 0.0
C420 C 0.131 0.52248 0.63201 0.0
C421 C 0.10259 0.55025 0.6264 0.0
C422 C 0.11281 0.58976 0.62602 0.0
O423 O 0.21912 0.73077 0.65873 0.0
O424 O 0.162 0.73541 0.67903 0.0
O425 O 0.26424 0.8184 0.66074 0.0
O426 O 0.26115 0.8154 0.61637 0.0
C427 C 0.26169 0.83852 0.63777 0.0
O428 O 0.18314 0.75108 0.61134 0.0
O429 O 0.2461 0.73934 0.60026 0.0
O430 O 0.16517 0.65922 0.6542 0.0
O431 O 0.15184 0.6633 0.60945 0.0
H432 H 0.2093 0.5808 0.63877 0.0
H433 H 0.12336 0.49202 0.63291 0.0
H434 H 0.09112 0.61165 0.62203 0.0
O435 O 0.24535 0.31425 0.63456 0.0
Tb436 Tb 0.2263 0.25656 0.62385 0.0
Eu437 Eu 0.2977 0.14679 0.6126 0.0
C438 C 0.26566 0.33529 0.61716 0.0
O439 O 0.27789 0.31962 0.59383 0.0
C440 C 0.26933 0.19342 0.6603 0.0
O441 O 0.29247 0.0823 0.617 0.0
C442 C 0.36574 0.16835 0.59668 0.0
C443 C 0.28048 0.06106 0.59603 0.0
O444 O 0.27286 0.07791 0.57212 0.0
C445 C 0.2536 0.20716 0.57385 0.0
C446 C 0.40604 0.15636 0.60129 0.0
C447 C 0.43316 0.18407 0.61016 0.0
C448 C 0.47095 0.17282 0.61646 0.0
C449 C 0.48198 0.13412 0.61307 0.0
C450 C 0.45547 0.10619 0.60406 0.0
C451 C 0.41735 0.11738 0.5984 0.0
O452 O 0.26541 0.21187 0.63673 0.0
O453 O 0.28713 0.16027 0.65798 0.0
O454 O 0.16682 0.26111 0.6098 0.0
O455 O 0.17816 0.23889 0.65043 0.0
C456 C 0.15125 0.24807 0.63262 0.0
O457 O 0.24816 0.1778 0.59099 0.0
O458 O 0.24256 0.24236 0.58124 0.0
O459 O 0.34812 0.18329 0.6184 0.0
O460 O 0.34369 0.14503 0.58189 0.0
H461 H 0.42458 0.21402 0.613 0.0
H462 H 0.51112 0.12552 0.61844 0.0
H463 H 0.39655 0.09566 0.59207 0.0
H464 H 0.25668 0.35659 0.02844 0.0
H465 H 0.20699 0.24829 0.0548 0.0
H466 H 0.17976 0.23822 0.00833 0.0
H467 H 0.17792 0.25583 0.95858 0.0
H468 H 0.23485 0.35977 0.93111 0.0
H469 H 0.25108 0.37638 0.97935 0.0
C470 C 0.2391 0.33131 0.02409 0.0
C471 C 0.2338 0.30319 0.04484 0.0
C472 C 0.22518 0.32483 0.99697 0.0
C473 C 0.21152 0.2702 0.03899 0.0
C474 C 0.19605 0.2644 0.01244 0.0
C475 C 0.19296 0.28257 0.9634 0.0
C476 C 0.2049 0.30685 0.94166 0.0
C477 C 0.20381 0.29084 0.99101 0.0
C478 C 0.22523 0.34094 0.94776 0.0
C479 C 0.23463 0.3503 0.97527 0.0
H480 H 0.68007 0.22749 0.03826 0.0
H481 H 0.77256 0.14732 0.05496 0.0
H482 H 0.78235 0.13779 0.00504 0.0
H483 H 0.7704 0.1589 0.95679 0.0
H484 H 0.68302 0.24447 0.94061 0.0
H485 H 0.66468 0.2446 0.98987 0.0
C486 C 0.70192 0.20744 0.03097 0.0
C487 C 0.72581 0.18847 0.05028 0.0
C488 C 0.70823 0.20306 0.00221 0.0
C489 C 0.7541 0.16267 0.0405 0.0
C490 C 0.75968 0.15713 0.01195 0.0
C491 C 0.74653 0.17653 0.96403 0.0
C492 C 0.72765 0.20126 0.94531 0.0
C493 C 0.73771 0.17804 0.99261 0.0
C494 C 0.69754 0.22493 0.95481 0.0
C495 C 0.68734 0.22525 0.98296 0.0
H496 H 0.795 0.66414 0.95443 0.0
H497 H 0.86067 0.76897 0.96589 0.0
H498 H 0.85283 0.76382 0.01646 0.0
H499 H 0.81806 0.73531 0.05616 0.0
H500 H 0.75368 0.62966 0.04493 0.0
H501 H 0.77088 0.62869 0.99543 0.0
C502 C 0.8083 0.68533 0.96812 0.0
C503 C 0.82774 0.71727 0.95665 0.0
C504 C 0.80362 0.68214 0.99704 0.0
C505 C 0.84548 0.74424 0.97438 0.0
C506 C 0.84076 0.74143 0.00322 0.0
C507 C 0.80861 0.71162 0.04294 0.0
C508 C 0.7841 0.683 0.05382 0.0
C509 C 0.81851 0.71141 0.01463 0.0
C510 C 0.77249 0.65203 0.03685 0.0
C511 C 0.78206 0.65167 0.00855 0.0
H512 H 0.32737 0.75474 0.94452 0.0
H513 H 0.26288 0.86157 0.94336 0.0
H514 H 0.2728 0.86933 0.9934 0.0
H515 H 0.29249 0.84126 0.03824 0.0
H516 H 0.35938 0.73611 0.03961 0.0
H517 H 0.35635 0.73231 0.98865 0.0
C518 C 0.31609 0.78002 0.95521 0.0
C519 C 0.29385 0.80718 0.94046 0.0
C520 C 0.32209 0.7844 0.98398 0.0
C521 C 0.27996 0.84019 0.95431 0.0
C522 C 0.28542 0.84454 0.98296 0.0
C523 C 0.30699 0.81795 0.02727 0.0
C524 C 0.32566 0.78871 0.04245 0.0
C525 C 0.3053 0.81616 -0.00189 0.0
C526 C 0.34486 0.75891 0.02821 0.0
C527 C 0.34289 0.75661 -0.00086 0.0
H528 H 0.17331 0.72371 0.46735 0.0
H529 H 0.26464 0.6394 0.472 0.0
H530 H 0.26448 0.64416 0.52297 0.0
H531 H 0.24424 0.67914 0.5653 0.0
H532 H 0.15131 0.76174 0.5608 0.0
H533 H 0.14536 0.75016 0.51062 0.0
C534 C 0.1927 0.70595 0.47963 0.0
C535 C 0.21945 0.68177 0.46615 0.0
C536 C 0.19212 0.70861 0.50881 0.0
C537 C 0.24397 0.6583 0.48207 0.0
C538 C 0.24397 0.66116 0.51114 0.0
C539 C 0.2221 0.69388 0.55338 0.0
C540 C 0.19862 0.72166 0.56648 0.0
C541 C 0.21903 0.68717 0.52462 0.0
C542 C 0.16967 0.74024 0.55108 0.0
C543 C 0.16655 0.7339 0.52238 0.0
H544 H 0.29664 0.25351 0.54115 0.0
H545 H 0.23378 0.14584 0.54103 0.0
H546 H 0.242 0.14044 0.49048 0.0
H547 H 0.26222 0.16973 0.44579 0.0
H548 H 0.32948 0.27468 0.4466 0.0
H549 H 0.32458 0.27788 0.49742 0.0
C550 C 0.28531 0.22859 0.53003 0.0
C551 C 0.26432 0.20033 0.54456 0.0
C552 C 0.29062 0.22547 0.50113 0.0
C553 C 0.25012 0.16789 0.53018 0.0
C554 C 0.25456 0.16496 0.50129 0.0
C555 C 0.27606 0.19301 0.45723 0.0
C556 C 0.29572 0.22222 0.44266 0.0
C557 C 0.27393 0.19409 0.48647 0.0
C558 C 0.31416 0.25196 0.45752 0.0
C559 C 0.31126 0.25385 0.48651 0.0
H560 H 0.82431 0.27739 0.53838 0.0
H561 H 0.7589 0.38047 0.55641 0.0
H562 H 0.74702 0.39042 0.50668 0.0
H563 H 0.74833 0.36523 0.45876 0.0
H564 H 0.80614 0.2574 0.44158 0.0
H565 H 0.82851 0.25398 0.48991 0.0
C566 C 0.8082 0.30241 0.53125 0.0
C567 C 0.79254 0.32824 0.55082 0.0
C568 C 0.79992 0.30686 0.50274 0.0
C569 C 0.77109 0.36022 0.54157 0.0
C570 C 0.76427 0.36587 0.51319 0.0
C571 C 0.7666 0.34154 0.46553 0.0
C572 C 0.77577 0.31168 0.44682 0.0
C573 C 0.77754 0.33875 0.49366 0.0
C574 C 0.79879 0.28067 0.45579 0.0
C575 C 0.81143 0.27865 0.4834 0.0
H576 H 0.72502 0.84829 0.43495 0.0
H577 H 0.63694 0.76263 0.44994 0.0
H578 H 0.6423 0.77377 0.50017 0.0
H579 H 0.67648 0.80325 0.5396 0.0
H580 H 0.7634 0.89009 0.52483 0.0
H581 H 0.75375 0.88351 0.47442 0.0
C582 C 0.70678 0.83231 0.44924 0.0
C583 C 0.68109 0.8042 0.43893 0.0
C584 C 0.70994 0.839 0.47795 0.0
C585 C 0.65701 0.78428 0.45748 0.0
C586 C 0.66019 0.79052 0.48615 0.0
C587 C 0.69304 0.82099 0.5253 0.0
C588 C 0.72106 0.84664 0.53569 0.0
C589 C 0.68724 0.81708 0.49658 0.0
C590 C 0.74177 0.8701 0.51717 0.0
C591 C 0.7364 0.86617 0.48843 0.0
H592 H 0.29658 0.01652 0.11746 0.0
H593 H 0.35605 0.0069 0.19585 0.0
H594 H 0.33878 0.07365 0.20759 0.0
H595 H 0.31665 0.1377 0.19176 0.0
H596 H 0.25728 0.14757 0.11308 0.0
H597 H 0.26385 0.078 0.1055 0.0
C598 C 0.30425 0.02865 0.13757 0.0
C599 C 0.32719 0.00692 0.15591 0.0
C600 C 0.29491 0.06743 0.14387 0.0
C601 C 0.33786 0.02306 0.18166 0.0
C602 C 0.32839 0.06136 0.1882 0.0
C603 C 0.30436 0.12449 0.17326 0.0
C604 C 0.28717 0.14804 0.15282 0.0
C605 C 0.30845 0.08435 0.16891 0.0
C606 C 0.27093 0.13032 0.12913 0.0
C607 C 0.27485 0.09044 0.12467 0.0
H608 H 0.01885 0.2983 0.14848 0.0
H609 H 0.00445 0.28396 0.06002 0.0
H610 H 0.94615 0.24535 0.06777 0.0
H611 H 0.8936 0.22659 0.09948 0.0
H612 H 0.90711 0.24412 0.18805 0.0
H613 H 0.97164 0.26985 0.18063 0.0
C614 C 0.00371 0.28527 0.13104 0.0
C615 C 0.01581 0.29344 0.10378 0.0
C616 C 0.96962 0.26441 0.1357 0.0
C617 C 0.9958 0.27735 0.08117 0.0
C618 C 0.96224 0.25577 0.08563 0.0
C619 C 0.91098 0.23518 0.11722 0.0
C620 C 0.89514 0.23419 0.14424 0.0
C621 C 0.94792 0.25073 0.11276 0.0
C622 C 0.91828 0.24507 0.167 0.0
C623 C 0.95523 0.2599 0.16278 0.0
H624 H 0.75904 0.86588 0.11601 0.0
H625 H 0.72694 0.86477 0.20286 0.0
H626 H 0.71695 0.93479 0.20176 0.0
H627 H 0.70448 0.99295 0.17379 0.0
H628 H 0.72887 0.9921 0.0859 0.0
H629 H 0.75576 0.92667 0.08966 0.0
C630 C 0.75092 0.88112 0.13489 0.0
C631 C 0.7431 0.86016 0.15936 0.0
C632 C 0.74364 0.9211 0.13378 0.0
C633 C 0.73259 0.88026 0.18366 0.0
C634 C 0.7268 0.92027 0.18303 0.0
C635 C 0.71732 0.97893 0.1558 0.0
C636 C 0.7153 0.99708 0.1297 0.0
C637 C 0.73042 0.94061 0.15789 0.0
C638 C 0.73085 0.97861 0.10623 0.0
C639 C 0.74567 0.94109 0.10835 0.0
H640 H 0.11242 0.76851 0.16323 0.0
H641 H 0.14492 0.77335 0.07647 0.0
H642 H 0.08193 0.74856 0.06301 0.0
H643 H 0.02255 0.71445 0.07643 0.0
H644 H 0.98984 0.70903 0.16285 0.0
H645 H 0.04762 0.74555 0.17595 0.0
C646 C 0.10538 0.76505 0.14134 0.0
C647 C 0.1337 0.77191 0.12096 0.0
C648 C 0.06917 0.75026 0.13371 0.0
C649 C 0.1239 0.76789 0.09266 0.0
C650 C 0.08789 0.75347 0.0849 0.0
C651 C 0.0276 0.72246 0.09799 0.0
C652 C 1.0024 0.70912 0.11872 0.0
C653 C 0.06104 0.7429 0.10531 0.0
C654 C 0.00893 0.71935 0.14662 0.0
C655 C 0.04209 0.73987 0.1541 0.0
H656 H 0.2844 0.98883 0.40995 0.0
H657 H 0.27271 0.01262 0.3223 0.0
H658 H 0.24277 0.94918 0.31504 0.0
H659 H 0.23116 0.88293 0.33245 0.0
H660 H 0.24358 0.85944 0.42034 0.0
H661 H 0.26142 0.9267 0.42872 0.0
C662 C 0.27396 0.98057 0.38947 0.0
C663 C 0.28078 1.00515 0.36667 0.0
C664 C 0.25765 0.94374 0.38541 0.0
C665 C 0.26739 0.99426 0.34018 0.0
C666 C 0.25077 0.95777 0.33599 0.0
C667 C 0.23694 0.89273 0.35352 0.0
C668 C 0.23679 0.8659 0.37561 0.0
C669 C 0.24748 0.93158 0.35824 0.0
C670 C 0.24379 0.87926 0.40286 0.0
C671 C 0.25418 0.91778 0.4077 0.0
H672 H 0.12401 0.24306 0.39688 0.0
H673 H 0.10356 0.24958 0.30826 0.0
H674 H 0.03889 0.27448 0.31672 0.0
H675 H 0.99338 0.3057 0.34901 0.0
H676 H 0.01548 0.30306 0.43723 0.0
H677 H 0.07393 0.26476 0.4294 0.0
C678 C 0.10513 0.24907 0.37941 0.0
C679 C 0.11896 0.24528 0.35197 0.0
C680 C 0.06829 0.26435 0.38441 0.0
C681 C 0.09389 0.25274 0.32959 0.0
C682 C 0.05689 0.26713 0.3344 0.0
C683 C 0.01032 0.2953 0.36648 0.0
C684 C 1.00035 0.3066 0.39362 0.0
C685 C 0.0445 0.27467 0.36167 0.0
C686 C 0.02261 0.294 0.41623 0.0
C687 C 0.05617 0.27256 0.4117 0.0
H688 H 0.69534 0.01509 0.37805 0.0
H689 H 0.65355 0.00669 0.29382 0.0
H690 H 0.67747 0.07196 0.28382 0.0
H691 H 0.70099 0.13477 0.30141 0.0
H692 H 0.74274 0.14313 0.38592 0.0
H693 H 0.72895 0.07463 0.39328 0.0
C694 C 0.6929 0.02712 0.35725 0.0
C695 C 0.67319 1.00618 0.33657 0.0
C696 C 0.70612 0.06497 0.35186 0.0
C697 C 0.66926 0.02219 0.30985 0.0
C698 C 0.68253 0.05965 0.30426 0.0
C699 C 0.70786 0.12142 0.32125 0.0
C700 C 0.72228 0.14436 0.34319 0.0
C701 C 0.69961 0.08189 0.32544 0.0
C702 C 0.73142 0.12639 0.36866 0.0
C703 C 0.72334 0.08714 0.37298 0.0
H704 H 0.9762 0.71933 0.41355 0.0
H705 H 0.01682 0.71852 0.32877 0.0
H706 H 0.95618 0.74753 0.3131 0.0
H707 H 0.88811 0.76364 0.32285 0.0
H708 H 0.84787 0.7638 0.40796 0.0
H709 H 0.9117 0.74491 0.4241 0.0
C710 C 0.97212 0.72659 0.39176 0.0
C711 C 1.00085 0.71669 0.37233 0.0
C712 C 0.9369 0.74249 0.38288 0.0
C713 C 0.9953 0.72619 0.34415 0.0
C714 C 0.9604 0.74232 0.33516 0.0
C715 C 0.89346 0.76022 0.34497 0.0
C716 C 0.86289 0.76452 0.36407 0.0
C717 C 0.93041 0.74913 0.3542 0.0
C718 C 0.8706 0.76043 0.3927 0.0
C719 C 0.90717 0.74948 0.402 0.0
H720 H 0.71171 0.88036 0.8935 0.0
H721 H 0.83564 0.87843 0.88799 0.0
H722 H 0.83685 0.94942 0.88627 0.0
H723 H 0.80236 0.01193 0.88473 0.0
H724 H 0.67817 0.01318 0.88952 0.0
H725 H 0.67742 0.94265 0.8931 0.0
C726 C 0.73903 0.89549 0.89213 0.0
C727 C 0.77358 0.87418 0.89091 0.0
C728 C 0.73941 0.93621 0.89086 0.0
C729 C 0.80869 0.89418 0.88904 0.0
C730 C 0.80935 0.93476 0.88797 0.0
C731 C 0.77511 0.99683 0.88664 0.0
C732 C 0.74034 0.01803 0.88676 0.0
C733 C 0.77485 0.95609 0.8886 0.0
C734 C 0.70536 0.9978 0.8893 0.0
C735 C 0.70489 0.95738 0.89136 0.0
H736 H 0.00611 0.72526 0.91316 0.0
H737 H 0.97984 0.77245 0.83216 0.0
H738 H 0.04859 0.78107 0.82281 0.0
H739 H 0.11678 0.77279 0.83718 0.0
H740 H 0.14149 0.72625 0.91867 0.0
H741 H 0.07298 0.7199 0.92823 0.0
C742 C 0.01535 0.73759 0.89349 0.0
C743 C 0.98787 0.74798 0.87337 0.0
C744 C 0.0548 0.74249 0.88827 0.0
C745 C 1.0004 0.7642 0.84806 0.0
C746 C 0.03974 0.76905 0.84265 0.0
C747 C 0.10702 0.76148 0.85703 0.0
C748 C 0.13412 0.74982 0.87711 0.0
C749 C 0.06728 0.75794 0.86251 0.0
C750 C 0.12119 0.73533 0.90281 0.0
C751 C 0.08199 0.73164 0.90833 0.0
H752 H 0.31159 0.12434 0.90307 0.0
H753 H 0.19024 0.12256 0.92207 0.0
H754 H 0.19167 0.05164 0.92433 0.0
H755 H 0.22581 0.9903 0.91492 0.0
H756 H 0.34644 0.99315 0.89309 0.0
H757 H 0.34686 0.06345 0.89787 0.0
C758 C 0.28561 0.10848 0.90832 0.0
C759 C 0.25081 0.12856 0.91227 0.0
C760 C 0.2864 0.06784 0.90855 0.0
C761 C 0.21738 0.10769 0.919 0.0
C762 C 0.21815 0.06714 0.92004 0.0
C763 C 0.25231 1.00625 0.91154 0.0
C764 C 0.28592 0.98645 0.90328 0.0
C765 C 0.25222 0.04689 0.91388 0.0
C766 C 0.32003 0.0076 0.89914 0.0
C767 C 0.32034 0.04786 0.90191 0.0
H768 H 0.03362 0.25619 0.87746 0.0
H769 H 0.02601 0.27395 0.78862 0.0
H770 H 0.95611 0.26675 0.79066 0.0
H771 H 0.89639 0.25918 0.81816 0.0
H772 H 0.90448 0.24159 0.90692 0.0
H773 H 0.97462 0.24475 0.90438 0.0
C774 C 0.01676 0.25817 0.85848 0.0
C775 C 0.03519 0.26586 0.83297 0.0
C776 C 0.97645 0.25419 0.8598 0.0
C777 C 0.01272 0.26815 0.8086 0.0
C778 C 0.97264 0.26412 0.80973 0.0
C779 C 0.9136 0.2557 0.83686 0.0
C780 C 0.89527 0.25036 0.8627 0.0
C781 C 0.95409 0.25772 0.83527 0.0
C782 C 0.91788 0.24582 0.88678 0.0
C783 C 0.95803 0.24769 0.88536 0.0
H784 H 0.70855 0.15417 0.62183 0.0
H785 H 0.83167 0.16998 0.62028 0.0
H786 H 0.84082 0.09946 0.61892 0.0
H787 H 0.81348 0.03307 0.61933 0.0
H788 H 0.68993 0.01855 0.62063 0.0
H789 H 0.6814 0.0886 0.62088 0.0
C790 C 0.73743 0.14221 0.62107 0.0
C791 C 0.76941 0.16729 0.62119 0.0
C792 C 0.74238 0.10176 0.62033 0.0
C793 C 0.80659 0.15131 0.62017 0.0
C794 C 0.81179 0.11098 0.61945 0.0
C795 C 0.78468 0.0452 0.61959 0.0
C796 C 0.75241 0.02027 0.62006 0.0
C797 C 0.77987 0.08585 0.6197 0.0
C798 C 0.71534 0.03675 0.62031 0.0
C799 C 0.71038 0.07694 0.62047 0.0
H800 H 0.01744 0.81408 0.60927 0.0
H801 H 0.01037 0.69489 0.63614 0.0
H802 H 0.94039 0.69761 0.63377 0.0
H803 H 0.88108 0.7335 0.62461 0.0
H804 H 0.88648 0.8528 0.59848 0.0
H805 H 0.95717 0.85037 0.59992 0.0
C806 C 1.0006 0.7887 0.61458 0.0
C807 C 0.01935 0.75433 0.62292 0.0
C808 C 0.96004 0.79046 0.61328 0.0
C809 C 0.99693 0.72176 0.62974 0.0
C810 C 0.95679 0.72324 0.62836 0.0
C811 C 0.8977 0.75899 0.61913 0.0
C812 C 0.87863 0.79328 0.61139 0.0
C813 C 0.93807 0.75739 0.62023 0.0
C814 C 0.90054 0.82606 0.60446 0.0
C815 C 0.94093 0.82465 0.60532 0.0
H816 H 0.28331 0.01966 0.64425 0.0
H817 H 0.26468 0.00771 0.55567 0.0
H818 H 0.25563 0.93805 0.56121 0.0
H819 H 0.25447 0.88048 0.59087 0.0
H820 H 0.2726 0.8916 0.67941 0.0
H821 H 0.28002 0.96192 0.6743 0.0
C822 C 0.27731 1.00182 0.62615 0.0
C823 C 0.27489 0.01887 0.59955 0.0
C824 C 0.27188 0.96176 0.6295 0.0
C825 C 0.26676 0.99537 0.57636 0.0
C826 C 0.26156 0.95552 0.5795 0.0
C827 C 0.25979 0.89834 0.60909 0.0
C828 C 0.26307 0.88105 0.63548 0.0
C829 C 0.2642 0.93844 0.60593 0.0
C830 C 0.26989 0.90441 0.65891 0.0
C831 C 0.27428 0.9445 0.65596 0.0
H832 H 0.9808 0.25297 0.67826 0.0
H833 H 0.9625 0.30629 0.59797 0.0
H834 H 0.03005 0.29655 0.58622 0.0
H835 H 0.09485 0.27509 0.59915 0.0
H836 H 0.11442 0.22343 0.67967 0.0
H837 H 0.04583 0.22994 0.69081 0.0
C838 C 0.99155 0.26234 0.65816 0.0
C839 C 0.96652 0.28047 0.63909 0.0
C840 C 0.03066 0.25686 0.65153 0.0
C841 C 0.98102 0.2924 0.61312 0.0
C842 C 0.01971 0.2868 0.60633 0.0
C843 C 0.08402 0.26491 0.61904 0.0
C844 C 0.10953 0.24874 0.63855 0.0
C845 C 0.04482 0.26934 0.62543 0.0
C846 C 0.09523 0.23587 0.66429 0.0
C847 C 0.05607 0.23973 0.67069 0.0
H848 H 0.73262 0.64974 0.66715 0.0
H849 H 0.75155 0.6728 0.57982 0.0
H850 H 0.76827 0.60514 0.57208 0.0
H851 H 0.78909 0.5428 0.59172 0.0
H852 H 0.7718 0.51956 0.6789 0.0
H853 H 0.74185 0.58327 0.68499 0.0
C854 C 0.73958 0.63979 0.64631 0.0
C855 C 0.74165 0.66664 0.62425 0.0
C856 C 0.74955 0.60068 0.64198 0.0
C857 C 0.75016 0.65304 0.5973 0.0
C858 C 0.75985 0.61425 0.59282 0.0
C859 C 0.77717 0.55114 0.61175 0.0
C860 C 0.78247 0.52666 0.63482 0.0
C861 C 0.76121 0.58824 0.61521 0.0
C862 C 0.76751 0.53777 0.6608 0.0
C863 C 0.75098 0.57447 0.66434 0.0
H864 H 0.41202 0.77487 0.69123 0.0
H865 H 0.38199 0.73998 0.60761 0.0
H866 H 0.44658 0.75616 0.5916 0.0
H867 H 0.50717 0.79167 0.59973 0.0
H868 H 0.53784 0.8257 0.68317 0.0
H869 H 0.47797 0.79774 0.70102 0.0
C870 C 0.41996 0.76987 0.66967 0.0
C871 C 0.39196 0.75704 0.65057 0.0
C872 C 0.45725 0.77937 0.66051 0.0
C873 C 0.40282 0.75012 0.62276 0.0
C874 C 0.43976 0.75959 0.6135 0.0
C875 C 0.50129 0.79151 0.62193 0.0
C876 C 0.52659 0.81065 0.64016 0.0
C877 C 0.4666 0.77586 0.63193 0.0
C878 C 0.51881 0.81071 0.66886 0.0
C879 C 0.48438 0.79517 0.679 0.0
H880 H 0.22399 0.50851 0.60113 0.0
H881 H 0.17668 0.48985 0.68294 0.0
H882 H 0.2115 0.42848 0.68675 0.0
H883 H 0.2438 0.37526 0.66293 0.0
H884 H 0.28578 0.3908 0.57905 0.0
H885 H 0.26601 0.4587 0.58017 0.0
C886 C 0.22258 0.49149 0.6201 0.0
C887 C 0.19802 0.50313 0.64173 0.0
C888 C 0.24131 0.45553 0.62155 0.0
C889 C 0.19564 0.48106 0.66616 0.0
C890 C 0.2153 0.44599 0.66822 0.0
C891 C 0.24948 0.39371 0.64511 0.0
C892 C 0.26515 0.37779 0.62065 0.0
C893 C 0.23651 0.43208 0.64546 0.0
C894 C 0.27321 0.40223 0.598 0.0
C895 C 0.26163 0.44101 0.59854 0.0
H896 H 0.51022 0.22884 0.58912 0.0
H897 H 0.49566 0.17609 0.66967 0.0
H898 H 0.55199 0.2109 0.68742 0.0
H899 H 0.61028 0.24844 0.6779 0.0
H900 H 0.62729 0.29834 0.5964 0.0
H901 H 0.56492 0.27334 0.58129 0.0
C902 C 0.51891 0.22602 0.61073 0.0
C903 C 0.49911 0.20028 0.6282 0.0
C904 C 0.55201 0.24521 0.62049 0.0
C905 C 0.51063 0.19607 0.65605 0.0
C906 C 0.54289 0.21574 0.6661 0.0
C907 C 0.60005 0.25456 0.65701 0.0
C908 C 0.62375 0.27468 0.6382 0.0
C909 C 0.56461 0.23924 0.64821 0.0
C910 C 0.60984 0.28257 0.61125 0.0
C911 C 0.57419 0.26815 0.60253 0.0
H912 H 0.77064 0.40521 0.81517 0.0
H913 H 0.75103 0.37998 0.90213 0.0
H914 H 0.76072 0.44777 0.91395 0.0
H915 H 0.78773 0.5109 0.90081 0.0
H916 H 0.80803 0.53663 0.81433 0.0
H917 H 0.78402 0.47259 0.80099 0.0
C918 C 0.76762 0.41472 0.83661 0.0
C919 C 0.76126 0.38731 0.85778 0.0
C920 C 0.77345 0.45394 0.84339 0.0
C921 C 0.75661 0.40024 0.8854 0.0
C922 C 0.7622 0.4391 0.89226 0.0
C923 C 0.78514 0.503 0.879 0.0
C924 C 0.79958 0.52812 0.85856 0.0
C925 C 0.77243 0.46579 0.87162 0.0
C926 C 0.79662 0.51774 0.83034 0.0
C927 C 0.7835 0.4809 0.82277 0.0
H928 H 0.51322 0.77145 0.85125 0.0
H929 H 0.52964 0.81815 0.93366 0.0
H930 H 0.59109 0.78401 0.9378 0.0
H931 H 0.64452 0.75096 0.91477 0.0
H932 H 0.63056 0.70803 0.83086 0.0
H933 H 0.56359 0.72971 0.83068 0.0
C934 C 0.52976 0.7729 0.87041 0.0
C935 C 0.51725 0.79704 0.89216 0.0
C936 C 0.56576 0.75441 0.87216 0.0
C937 C 0.53892 0.79947 0.91678 0.0
C938 C 0.57411 0.78024 0.91903 0.0
C939 C 0.62665 0.74558 0.89663 0.0
C940 C 0.6428 0.72866 0.87266 0.0
C941 C 0.58858 0.75915 0.89636 0.0
C942 C 0.61902 0.72139 0.84951 0.0
C943 C 0.58072 0.73396 0.84932 0.0
H944 H 0.22733 0.50766 0.8572 0.0
H945 H 0.13595 0.52534 0.7978 0.0
H946 H 0.16578 0.58568 0.78229 0.0
H947 H 0.21028 0.63861 0.7922 0.0
H948 H 0.29856 0.62392 0.85463 0.0
H949 H 0.27855 0.55685 0.8617 0.0
C950 C 0.21473 0.52433 0.84035 0.0
C951 C 0.17943 0.51276 0.82885 0.0
C952 C 0.23135 0.55965 0.83225 0.0
C953 C 0.16301 0.53428 0.80707 0.0
C954 C 0.17999 0.5687 0.79825 0.0
C955 C 0.22595 0.62042 0.80673 0.0
C956 C 0.25521 0.63644 0.82334 0.0
C957 C 0.21312 0.58256 0.81164 0.0
C958 C 0.27547 0.61238 0.84189 0.0
C959 C 0.26387 0.5741 0.84611 0.0
H960 H 0.48553 0.16886 0.82478 0.0
H961 H 0.50054 0.2339 0.90059 0.0
H962 H 0.43559 0.26114 0.89553 0.0
H963 H 0.3711 0.25705 0.87376 0.0
H964 H 0.35616 0.18882 0.79906 0.0
H965 H 0.42449 0.17265 0.79922 0.0
C966 C 0.47493 0.19001 0.83966 0.0
C967 C 0.49756 0.19941 0.86303 0.0
C968 C 0.43728 0.20438 0.83706 0.0
C969 C 0.48368 0.22659 0.88233 0.0
C970 C 0.44639 0.24173 0.87958 0.0
C971 C 0.38296 0.23944 0.85712 0.0
C972 C 0.3583 0.22365 0.83667 0.0
C973 C 0.42233 0.22947 0.85768 0.0
C974 C 0.37428 0.20097 0.81525 0.0
C975 C 0.4134 0.19161 0.81534 0.0
H976 H 0.19697 0.37873 0.37267 0.0
H977 H 0.32071 0.36941 0.36952 0.0
H978 H 0.32638 0.44015 0.3721 0.0
H979 H 0.29592 0.50479 0.37443 0.0
H980 H 0.17193 0.51341 0.37774 0.0
H981 H 0.16666 0.44296 0.37598 0.0
C982 C 0.2252 0.39218 0.37263 0.0
C983 C 0.2584 0.36885 0.37086 0.0
C984 C 0.22817 0.43281 0.37411 0.0
C985 C 0.29474 0.38671 0.37086 0.0
C986 C 0.29796 0.42717 0.37231 0.0
C987 C 0.26772 0.4913 0.37483 0.0
C988 C 0.23436 0.51462 0.37616 0.0
C989 C 0.26485 0.45055 0.37381 0.0
C990 C 0.19812 0.49642 0.37671 0.0
C991 C 0.19505 0.45602 0.37568 0.0
H992 H 0.46381 0.244 0.38097 0.0
H993 H 0.47003 0.2439 0.29112 0.0
H994 H 0.53885 0.25792 0.29334 0.0
H995 H 0.5978 0.26801 0.32079 0.0
H996 H 0.5918 0.26755 0.41053 0.0
H997 H 0.52229 0.25635 0.40838 0.0
C998 C 0.48018 0.2471 0.36186 0.0
C999 C 0.46179 0.24269 0.33593 0.0
C1000 C 0.51978 0.2552 0.36327 0.0
C1001 C 0.48344 0.24703 0.31138 0.0
C1002 C 0.52283 0.25508 0.31261 0.0
C1003 C 0.58115 0.26585 0.33984 0.0
C1004 C 0.59974 0.26858 0.36577 0.0
C1005 C 0.54134 0.25898 0.33843 0.0
C1006 C 0.578 0.26558 0.39033 0.0
C1007 C 0.53832 0.25904 0.38911 0.0
H1008 H 0.78227 0.63324 0.35072 0.0
H1009 H 0.67229 0.64034 0.39203 0.0
H1010 H 0.67338 0.5701 0.40005 0.0
H1011 H 0.70676 0.50685 0.39631 0.0
H1012 H 0.81693 0.50098 0.35478 0.0
H1013 H 0.81453 0.57044 0.34587 0.0
C1014 C 0.75841 0.61941 0.36138 0.0
C1015 C 0.72725 0.64198 0.37082 0.0
C1016 C 0.75937 0.57919 0.36595 0.0
C1017 C 0.69658 0.62361 0.38455 0.0
C1018 C 0.69727 0.58346 0.38917 0.0
C1019 C 0.73021 0.52072 0.38524 0.0
C1020 C 0.76207 0.49848 0.37632 0.0
C1021 C 0.72868 0.56096 0.38014 0.0
C1022 C 0.79208 0.51712 0.36193 0.0
C1023 C 0.79076 0.55696 0.35682 0.0
H1024 H 0.50233 0.79582 0.37427 0.0
H1025 H 0.51666 0.67602 0.35074 0.0
H1026 H 0.44819 0.66419 0.3588 0.0
H1027 H 0.38312 0.68818 0.3718 0.0
H1028 H 0.36966 0.80813 0.39508 0.0
H1029 H 0.43829 0.81929 0.3881 0.0
C1030 C 0.49056 0.76709 0.3709 0.0
C1031 C 0.5149 0.73696 0.36181 0.0
C1032 C 0.45099 0.76037 0.37566 0.0
C1033 C 0.49885 0.6999 0.3577 0.0
C1034 C 0.45954 0.69303 0.36233 0.0
C1035 C 0.39535 0.71662 0.37557 0.0
C1036 C 0.37115 0.74722 0.38403 0.0
C1037 C 0.4352 0.72305 0.37127 0.0
C1038 C 0.38749 0.78399 0.3886 0.0
C1039 C 0.42684 0.79049 0.38455 0.0
H1040 H 0.30841 0.62787 0.12341 0.0
H1041 H 0.19269 0.64672 0.09367 0.0
H1042 H 0.18165 0.57705 0.09165 0.0
H1043 H 0.2042 0.51023 0.09883 0.0
H1044 H 0.31984 0.49067 0.12859 0.0
H1045 H 0.33135 0.5604 0.13011 0.0
C1046 C 0.28091 0.61665 0.11636 0.0
C1047 C 0.25149 0.64262 0.10867 0.0
C1048 C 0.27456 0.57616 0.11534 0.0
C1049 C 0.21592 0.62752 0.0997 0.0
C1050 C 0.20949 0.58755 0.09856 0.0
C1051 C 0.23192 0.52115 0.10566 0.0
C1052 C 0.261 0.49493 0.11361 0.0
C1053 C 0.23849 0.56152 0.10645 0.0
C1054 C 0.29679 0.50992 0.12234 0.0
C1055 C 0.30348 0.54996 0.12321 0.0
H1056 H 0.54936 0.25299 0.14719 0.0
H1057 H 0.54643 0.20651 0.06366 0.0
H1058 H 0.47791 0.22153 0.06026 0.0
H1059 H 0.41805 0.24487 0.08178 0.0
H1060 H 0.42014 0.28873 0.16593 0.0
H1061 H 0.48977 0.27805 0.16826 0.0
C1062 C 0.53382 0.24643 0.12815 0.0
C1063 C 0.55304 0.22856 0.10575 0.0
C1064 C 0.49423 0.25463 0.12647 0.0
C1065 C 0.53237 0.22012 0.08128 0.0
C1066 C 0.49315 0.22871 0.07929 0.0
C1067 C 0.43386 0.25245 0.10051 0.0
C1068 C 0.41413 0.26759 0.12364 0.0
C1069 C 0.47369 0.24553 0.10187 0.0
C1070 C 0.43481 0.27706 0.14786 0.0
C1071 C 0.47457 0.27087 0.14921 0.0
H1072 H 0.71499 0.4839 0.11644 0.0
H1073 H 0.83816 0.49349 0.10602 0.0
H1074 H 0.84387 0.42305 0.10567 0.0
H1075 H 0.8145 0.35867 0.11052 0.0
H1076 H 0.69159 0.34836 0.12082 0.0
H1077 H 0.68512 0.41906 0.11886 0.0
C1078 C 0.74308 0.47062 0.11392 0.0
C1079 C 0.77613 0.49415 0.11142 0.0
C1080 C 0.74621 0.42991 0.11378 0.0
C1081 C 0.81223 0.47628 0.10804 0.0
C1082 C 0.81556 0.43591 0.10788 0.0
C1083 C 0.78625 0.3719 0.11213 0.0
C1084 C 0.75355 0.34837 0.11592 0.0
C1085 C 0.78284 0.41246 0.11107 0.0
C1086 C 0.71715 0.36587 0.11788 0.0
C1087 C 0.71349 0.40628 0.11684 0.0
H1088 H 0.48087 0.75678 0.11354 0.0
H1089 H 0.48243 0.75679 0.20347 0.0
H1090 H 0.5516 0.74356 0.20312 0.0
H1091 H 0.61241 0.73469 0.17711 0.0
H1092 H 0.6101 0.7355 0.08724 0.0
H1093 H 0.54051 0.74528 0.08776 0.0
C1094 C 0.49625 0.75379 0.1331 0.0
C1095 C 0.47646 0.758 0.15848 0.0
C1096 C 0.53597 0.74621 0.13276 0.0
C1097 C 0.49692 0.75378 0.1836 0.0
C1098 C 0.53651 0.74621 0.18344 0.0
C1099 C 0.59651 0.73655 0.15769 0.0
C1100 C 0.61627 0.73441 0.13218 0.0
C1101 C 0.55643 0.74267 0.15813 0.0
C1102 C 0.59547 0.73707 0.10715 0.0
C1103 C 0.5557 0.74279 0.10741 0.0
H1104 H 0.22015 0.26294 0.27584 0.0
H1105 H 0.34297 0.2479 0.2673 0.0
H1106 H 0.33965 0.26937 0.21895 0.0
H1107 H 0.30282 0.29805 0.18059 0.0
H1108 H 0.18086 0.31649 0.18942 0.0
H1109 H 0.1827 0.28834 0.23621 0.0
C1110 C 0.24606 0.26385 0.26327 0.0
C1111 C 0.28176 0.254 0.27519 0.0
C1112 C 0.2441 0.27715 0.23562 0.0
C1113 C 0.31517 0.25565 0.2587 0.0
C1114 C 0.31332 0.26791 0.23103 0.0
C1115 C 0.27657 0.29479 0.19241 0.0
C1116 C 0.24179 0.30873 0.18146 0.0
C1117 C 0.27809 0.27944 0.21946 0.0
C1118 C 0.20803 0.30582 0.19745 0.0
C1119 C 0.20908 0.28978 0.22419 0.0
H1120 H 0.71066 0.29705 0.30853 0.0
H1121 H 0.83438 0.29811 0.30282 0.0
H1122 H 0.83097 0.26734 0.25684 0.0
H1123 H 0.79236 0.24473 0.21697 0.0
H1124 H 0.6683 0.24782 0.22189 0.0
H1125 H 0.67214 0.27152 0.26976 0.0
C1126 C 0.73682 0.28936 0.2976 0.0
C1127 C 0.77266 0.29905 0.30919 0.0
C1128 C 0.7345 0.27277 0.27093 0.0
C1129 C 0.80644 0.29061 0.29431 0.0
C1130 C 0.80448 0.27313 0.26803 0.0
C1131 C 0.76618 0.25017 0.22859 0.0
C1132 C 0.73011 0.2447 0.21578 0.0
C1133 C 0.7686 0.26478 0.2559 0.0
C1134 C 0.69645 0.25211 0.23115 0.0
C1135 C 0.6986 0.26564 0.25854 0.0
H1136 H 0.67526 0.69709 0.27856 0.0
H1137 H 0.73376 0.80667 0.26992 0.0
H1138 H 0.7574 0.78767 0.22416 0.0
H1139 H 0.76537 0.73851 0.1881 0.0
H1140 H 0.71236 0.62652 0.19746 0.0
H1141 H 0.68218 0.64772 0.24121 0.0
C1142 C 0.69242 0.71699 0.26627 0.0
C1143 C 0.70265 0.75326 0.2774 0.0
C1144 C 0.70691 0.70537 0.24016 0.0
C1145 C 0.72557 0.77861 0.26168 0.0
C1146 C 0.7391 0.76777 0.23553 0.0
C1147 C 0.74654 0.71906 0.19946 0.0
C1148 C 0.74049 0.68135 0.18954 0.0
C1149 C 0.7305 0.73105 0.22479 0.0
C1150 C 0.71711 0.65584 0.20476 0.0
C1151 C 0.69993 0.66796 0.22971 0.0
H1152 H 0.22664 0.75825 0.29829 0.0
H1153 H 0.28977 0.65053 0.29871 0.0
H1154 H 0.31108 0.66239 0.25088 0.0
H1155 H 0.31146 0.7036 0.20883 0.0
H1156 H 0.24511 0.80925 0.20824 0.0
H1157 H 0.22578 0.79827 0.25648 0.0
C1158 C 0.24515 0.73736 0.28799 0.0
C1159 C 0.25676 0.70367 0.30205 0.0
C1160 C 0.25687 0.74414 0.26053 0.0
C1161 C 0.28039 0.6767 0.28829 0.0
C1162 C 0.29269 0.68352 0.26099 0.0
C1163 C 0.29299 0.72424 0.21942 0.0
C1164 C 0.27982 0.75723 0.20522 0.0
C1165 C 0.28115 0.7172 0.24693 0.0
C1166 C 0.25544 0.78357 0.21885 0.0
C1167 C 0.2444 0.77733 0.24638 0.0
H1168 H 0.73214 0.78213 0.70288 0.0
H1169 H 0.81457 0.87567 0.70127 0.0
H1170 H 0.83394 0.86027 0.74919 0.0
H1171 H 0.82764 0.81916 0.79117 0.0
H1172 H 0.74348 0.72696 0.7917 0.0
H1173 H 0.72476 0.74283 0.74424 0.0
C1174 C 0.75439 0.79924 0.71292 0.0
C1175 C 0.77208 0.82983 0.69858 0.0
C1176 C 0.76515 0.79032 0.74017 0.0
C1177 C 0.8005 0.85199 0.712 0.0
C1178 C 0.81165 0.8431 0.73929 0.0
C1179 C 0.80535 0.80252 0.78079 0.0
C1180 C 0.78707 0.77186 0.79482 0.0
C1181 C 0.79429 0.81212 0.75351 0.0
C1182 C 0.75792 0.75075 0.78134 0.0
C1183 C 0.74719 0.75976 0.75421 0.0
H1184 H 0.30216 0.78498 0.78425 0.0
H1185 H 0.19522 0.83288 0.81367 0.0
H1186 H 0.16303 0.81282 0.77029 0.0
H1187 H 0.16586 0.781 0.72388 0.0
H1188 H 0.2746 0.73679 0.6942 0.0
H1189 H 0.30582 0.75669 0.7374 0.0
C1190 C 0.27176 0.79082 0.78108 0.0
C1191 C 0.25073 0.80964 0.80202 0.0
C1192 C 0.25402 0.78033 0.75589 0.0
C1193 C 0.21165 0.81794 0.79776 0.0
C1194 C 0.19339 0.80661 0.77298 0.0
C1195 C 0.19645 0.77613 0.72682 0.0
C1196 C 0.21798 0.75777 0.70573 0.0
C1197 C 0.21434 0.7878 0.75184 0.0
C1198 C 0.25754 0.75148 0.70986 0.0
C1199 C 0.27537 0.76251 0.73469 0.0
H1200 H 0.20957 0.27925 0.76785 0.0
H1201 H 0.2195 0.16364 0.80137 0.0
H1202 H 0.23903 0.13927 0.75579 0.0
H1203 H 0.25603 0.15123 0.70687 0.0
H1204 H 0.24907 0.26708 0.67409 0.0
H1205 H 0.22526 0.29093 0.71876 0.0
C1206 C 0.21559 0.24864 0.76515 0.0
C1207 C 0.21314 0.22337 0.78804 0.0
C1208 C 0.22736 0.23488 0.73898 0.0
C1209 C 0.2213 0.18381 0.78415 0.0
C1210 C 0.23252 0.16981 0.75809 0.0
C1211 C 0.24908 0.18165 0.7095 0.0
C1212 C 0.25361 0.20735 0.68706 0.0
C1213 C 0.23612 0.19517 0.73545 0.0
C1214 C 0.24487 0.24668 0.69082 0.0
C1215 C 0.23155 0.26033 0.71645 0.0
H1216 H 0.74114 0.26523 0.81119 0.0
H1217 H 0.79359 0.15379 0.79733 0.0
H1218 H 0.81614 0.17506 0.75138 0.0
H1219 H 0.8149 0.22336 0.7133 0.0
H1220 H 0.75504 0.3314 0.72579 0.0
H1221 H 0.74164 0.31386 0.77415 0.0
C1222 C 0.75835 0.24599 0.79836 0.0
C1223 C 0.76618 0.20825 0.80762 0.0
C1224 C 0.76946 0.25779 0.77159 0.0
C1225 C 0.78748 0.18309 0.79058 0.0
C1226 C 0.8002 0.1952 0.76431 0.0
C1227 C 0.79952 0.24321 0.72685 0.0
C1228 C 0.78602 0.27862 0.7162 0.0
C1229 C 0.79049 0.23216 0.7543 0.0
C1230 C 0.76555 0.30394 0.73365 0.0
C1231 C 0.75791 0.29393 0.76125 0.0
H1232 H 0.057 0.46102 0.06684 0.0
H1233 H 1.0009 0.41902 0.14111 0.0
H1234 H 0.96694 0.48041 0.14624 0.0
H1235 H 0.95357 0.54626 0.13002 0.0
H1236 H 0.01153 0.59009 0.05724 0.0
H1237 H 0.0443 0.52777 0.05096 0.0
C1238 C 0.03769 0.46556 0.08429 0.0
C1239 C 0.03129 0.4355 0.10345 0.0
C1240 C 0.0183 0.50105 0.0872 0.0
C1241 C 0.00592 0.44159 0.12587 0.0
C1242 C 0.9865 0.47666 0.12885 0.0
C1243 C 0.9729 0.54183 0.11254 0.0
C1244 C 0.97986 0.57224 0.09389 0.0
C1245 C 0.99226 0.50646 0.10955 0.0
C1246 C 0.00564 0.56674 0.07169 0.0
C1247 C 0.02447 0.53129 0.06821 0.0
H1248 H 0.44248 0.00867 0.10059 0.0
H1249 H 0.4735 0.90698 0.14793 0.0
H1250 H 0.5408 0.927 0.14743 0.0
H1251 H 0.58936 0.97672 0.13849 0.0
H1252 H 0.55864 0.08028 0.09331 0.0
H1253 H 0.49218 0.05701 0.08928 0.0
C1254 C 0.46395 0.99075 0.11073 0.0
C1255 C 0.45261 0.95644 0.12451 0.0
C1256 C 0.50247 1.00328 0.1114 0.0
C1257 C 0.48113 0.93322 0.1369 0.0
C1258 C 0.51966 0.94497 0.13699 0.0
C1259 C 0.56841 0.99396 0.12721 0.0
C1260 C 0.57915 0.0302 0.11607 0.0
C1261 C 0.53042 0.98043 0.125 0.0
C1262 C 0.55118 0.05248 0.10225 0.0
C1263 C 0.51325 0.03905 0.0998 0.0
H1264 H 0.05793 0.55886 0.36553 0.0
H1265 H 1.00301 0.60205 0.43978 0.0
H1266 H 0.97053 0.53963 0.44638 0.0
H1267 H 0.95635 0.47301 0.42995 0.0
H1268 H 0.01009 0.43172 0.35456 0.0
H1269 H 0.04403 0.49311 0.34926 0.0
C1270 C 0.03951 0.55424 0.38348 0.0
C1271 C 0.0333 0.58462 0.40239 0.0
C1272 C 0.02014 0.51884 0.38661 0.0
C1273 C 0.0085 0.57877 0.42515 0.0
C1274 C 0.98972 0.54326 0.42878 0.0
C1275 C 0.97515 0.47778 0.41225 0.0
C1276 C 0.98076 0.44794 0.3927 0.0
C1277 C 0.99485 0.51323 0.40938 0.0
C1278 C 0.0055 0.45424 0.36996 0.0
C1279 C 0.02501 0.48926 0.36695 0.0
H1280 H 0.55509 0.0119 0.38864 0.0
H1281 H 0.52027 0.91383 0.33851 0.0
H1282 H 0.45363 0.93523 0.34074 0.0
H1283 H 0.40629 0.98478 0.3526 0.0
H1284 H 0.44046 0.08516 0.40023 0.0
H1285 H 0.50675 0.06071 0.40212 0.0
C1286 C 0.53299 0.99515 0.37815 0.0
C1287 C 0.54309 0.96128 0.36329 0.0
C1288 C 0.49472 0.00849 0.37852 0.0
C1289 C 0.51367 0.9396 0.35047 0.0
C1290 C 0.47547 0.95213 0.35138 0.0
C1291 C 0.42801 1.00104 0.3639 0.0
C1292 C 0.41833 0.03665 0.37646 0.0
C1293 C 0.46585 0.98693 0.36477 0.0
C1294 C 0.44717 0.05779 0.39029 0.0
C1295 C 0.48499 0.0437 0.39148 0.0
H1296 H 0.07052 0.52251 0.89331 0.0
H1297 H 0.03076 0.42292 0.84697 0.0
H1298 H 0.96481 0.44676 0.84962 0.0
H1299 H 0.92054 0.49956 0.85914 0.0
H1300 H 0.95878 0.60002 0.90528 0.0
H1301 H 0.02386 0.57282 0.9075 0.0
C1302 C 0.04729 0.50578 0.88412 0.0
C1303 C 0.05567 0.47108 0.86976 0.0
C1304 C 0.00949 0.52029 0.88498 0.0
C1305 C 0.02522 0.44944 0.85837 0.0
C1306 C 0.98752 0.46336 0.85954 0.0
C1307 C 0.94257 0.51521 0.87055 0.0
C1308 C 0.93443 0.55189 0.88217 0.0
C1309 C 0.9796 0.49928 0.87199 0.0
C1310 C 0.96414 0.572 0.89589 0.0
C1311 C 1.00132 0.55632 0.89732 0.0
H1312 H 0.5059 0.06617 0.84673 0.0
H1313 H 0.58031 0.0571 0.91848 0.0
H1314 H 0.56109 0.98941 0.92464 0.0
H1315 H 0.5206 0.9341 0.9109 0.0
H1316 H 0.44582 0.9442 0.83934 0.0
H1317 H 0.46656 0.01102 0.83258 0.0
C1318 C 0.51773 0.04948 0.86386 0.0
C1319 C 0.54414 0.06669 0.88231 0.0
C1320 C 0.50599 0.0111 0.86758 0.0
C1321 C 0.56005 0.04441 0.90392 0.0
C1322 C 0.54883 1.00587 0.90759 0.0
C1323 C 0.50908 0.95085 0.8937 0.0
C1324 C 0.48156 0.93428 0.87573 0.0
C1325 C 0.52145 0.9891 0.88973 0.0
C1326 C 0.46651 0.95648 0.85376 0.0
C1327 C 0.47861 0.99455 0.84971 0.0
H1328 H 0.03753 0.57715 0.65111 0.0
H1329 H 0.07819 0.49276 0.59174 0.0
H1330 H 0.01381 0.46442 0.58869 0.0
H1331 H 0.94618 0.46191 0.60448 0.0
H1332 H 0.90608 0.54624 0.66413 0.0
H1333 H 0.96968 0.5762 0.66552 0.0
C1334 C 0.03204 0.55303 0.63714 0.0
C1335 C 0.06247 0.53702 0.62174 0.0
C1336 C 0.99509 0.53653 0.63578 0.0
C1337 C 0.05516 0.50541 0.60395 0.0
C1338 C 0.01841 0.48912 0.60225 0.0
C1339 C 0.95156 0.48672 0.61781 0.0
C1340 C 0.92156 0.50188 0.6341 0.0
C1341 C 0.98827 0.50399 0.61845 0.0
C1342 C 0.92871 0.53427 0.65119 0.0
C1343 C 0.96505 0.55142 0.65203 0.0
H1344 H 0.4953 0.93246 0.62712 0.0
H1345 H 0.59499 0.9615 0.57745 0.0
H1346 H 0.56873 0.02628 0.5696 0.0
H1347 H 0.51912 0.07579 0.57934 0.0
H1348 H 0.41873 0.04469 0.62728 0.0
H1349 H 0.4429 0.97858 0.63209 0.0
C1350 C 0.51096 0.95223 0.61375 0.0
C1351 C 0.54726 0.94175 0.60291 0.0
C1352 C 0.49544 0.98904 0.6089 0.0
C1353 C 0.56734 0.96875 0.58646 0.0
C1354 C 0.55222 1.00577 0.58181 0.0
C1355 C 0.5024 0.0543 0.59053 0.0
C1356 C 0.46734 0.06502 0.60309 0.0
C1357 C 0.51661 0.01642 0.59335 0.0
C1358 C 0.44565 0.037 0.61729 0.0
C1359 C 0.45962 0.99933 0.62024 0.0
loop_
_geom_bond_atom_site_label_1
_geom_bond_atom_site_label_2
_geom_bond_distance
_geom_bond_site_symmetry_2
_ccdc_geom_bond_type
O0 Tb1 2.292 . S
O0 C3 1.255 . S
Tb1 O0 2.292 . S
Tb1 O17 2.326 . S
Tb1 O19 2.500 . S
Tb1 O20 2.473 . S
Tb1 O23 2.324 . S
Eu2 O6 2.292 . S
Eu2 C7 2.852 . S
Eu2 O18 2.324 . S
Eu2 O22 2.326 . S
Eu2 O24 2.500 . S
Eu2 O25 2.473 . S
C3 O0 1.255 . S
C3 O4 1.247 . S
O4 C3 1.247 . S
C5 O17 1.242 . S
C5 O18 1.258 . S
O6 Eu2 2.292 . S
O6 C8 1.255 . S
C7 Eu2 2.852 . S
C7 C11 1.503 . S
C7 O24 1.273 . S
C7 O25 1.257 . S
C8 O6 1.255 . S
C8 O9 1.247 . S
O9 C8 1.247 . S
C10 O22 1.242 . S
C10 O23 1.258 . S
C11 C7 1.503 . S
C11 C12 1.379 . S
C11 C16 1.392 . S
C12 C11 1.379 . S
C12 C13 1.404 . S
C12 H26 0.929 . S
C13 C12 1.404 . S
C13 C14 1.389 . S
C14 C13 1.389 . S
C14 C15 1.399 . S
C14 H27 0.931 1_455 S
C15 C14 1.399 . S
C15 C16 1.390 . S
C16 C11 1.392 . S
C16 C15 1.390 . S
C16 H28 0.929 . S
O17 Tb1 2.326 . S
O17 C5 1.242 . S
O18 Eu2 2.324 . S
O18 C5 1.258 . S
O19 Tb1 2.500 . S
O19 C21 1.273 . S
O20 Tb1 2.473 . S
O20 C21 1.257 . S
C21 O19 1.273 . S
C21 O20 1.257 . S
O22 Eu2 2.326 . S
O22 C10 1.242 . S
O23 Tb1 2.324 . S
O23 C10 1.258 . S
O24 Eu2 2.500 . S
O24 C7 1.273 . S
O25 Eu2 2.473 . S
O25 C7 1.257 . S
H26 C12 0.929 . S
H27 C14 0.931 1_655 S
H28 C16 0.929 . S
O29 Tb30 2.292 . S
O29 C32 1.255 . S
Tb30 O29 2.292 . S
Tb30 O46 2.326 . S
Tb30 O48 2.500 . S
Tb30 O49 2.473 . S
Tb30 O52 2.324 . S
Eu31 O35 2.292 . S
Eu31 C36 2.852 . S
Eu31 O47 2.324 . S
Eu31 O51 2.326 . S
Eu31 O53 2.500 . S
Eu31 O54 2.473 . S
C32 O29 1.255 . S
C32 O33 1.247 . S
O33 C32 1.247 . S
C34 O46 1.242 . S
C34 O47 1.258 . S
O35 Eu31 2.292 . S
O35 C37 1.255 . S
C36 Eu31 2.852 . S
C36 C40 1.503 . S
C36 O53 1.273 . S
C36 O54 1.257 . S
C37 O35 1.255 . S
C37 O38 1.247 . S
O38 C37 1.247 . S
C39 O51 1.242 . S
C39 O52 1.258 . S
C40 C36 1.503 . S
C40 C41 1.379 . S
C40 C45 1.392 . S
C41 C40 1.379 . S
C41 C42 1.404 . S
C41 H55 0.929 . S
C42 C41 1.404 . S
C42 C43 1.389 . S
C43 C42 1.389 . S
C43 C44 1.399 . S
C43 H56 0.931 1_545 S
C44 C43 1.399 . S
C44 C45 1.390 . S
C45 C40 1.392 . S
C45 C44 1.390 . S
C45 H57 0.929 . S
O46 Tb30 2.326 . S
O46 C34 1.242 . S
O47 Eu31 2.324 . S
O47 C34 1.258 . S
O48 Tb30 2.500 . S
O48 C50 1.273 . S
O49 Tb30 2.473 . S
O49 C50 1.257 . S
C50 O48 1.273 . S
C50 O49 1.257 . S
O51 Eu31 2.326 . S
O51 C39 1.242 . S
O52 Tb30 2.324 . S
O52 C39 1.258 . S
O53 Eu31 2.500 . S
O53 C36 1.273 . S
O54 Eu31 2.473 . S
O54 C36 1.257 . S
H55 C41 0.929 . S
H56 C43 0.931 1_565 S
H57 C45 0.929 . S
O58 Tb59 2.292 . S
O58 C61 1.255 . S
Tb59 O58 2.292 . S
Tb59 O75 2.326 . S
Tb59 O77 2.500 . S
Tb59 O78 2.473 . S
Tb59 O81 2.324 . S
Eu60 O64 2.292 . S
Eu60 C65 2.852 . S
Eu60 O76 2.324 . S
Eu60 O80 2.326 . S
Eu60 O82 2.500 . S
Eu60 O83 2.473 . S
C61 O58 1.255 . S
C61 O62 1.247 . S
O62 C61 1.247 . S
C63 O75 1.242 . S
C63 O76 1.258 . S
O64 Eu60 2.292 . S
O64 C66 1.255 . S
C65 Eu60 2.852 . S
C65 C69 1.503 . S
C65 O82 1.273 . S
C65 O83 1.257 . S
C66 O64 1.255 . S
C66 O67 1.247 . S
O67 C66 1.247 . S
C68 O80 1.242 . S
C68 O81 1.258 . S
C69 C65 1.503 . S
C69 C70 1.379 . S
C69 C74 1.392 . S
C70 C69 1.379 . S
C70 C71 1.404 . S
C70 H84 0.929 . S
C71 C70 1.404 . S
C71 C72 1.389 . S
C72 C71 1.389 . S
C72 C73 1.399 . S
C72 H85 0.931 1_655 S
C73 C72 1.399 . S
C73 C74 1.390 . S
C74 C69 1.392 . S
C74 C73 1.390 . S
C74 H86 0.929 . S
O75 Tb59 2.326 . S
O75 C63 1.242 . S
O76 Eu60 2.324 . S
O76 C63 1.258 . S
O77 Tb59 2.500 . S
O77 C79 1.273 . S
O78 Tb59 2.473 . S
O78 C79 1.257 . S
C79 O77 1.273 . S
C79 O78 1.257 . S
O80 Eu60 2.326 . S
O80 C68 1.242 . S
O81 Tb59 2.324 . S
O81 C68 1.258 . S
O82 Eu60 2.500 . S
O82 C65 1.273 . S
O83 Eu60 2.473 . S
O83 C65 1.257 . S
H84 C70 0.929 . S
H85 C72 0.931 1_455 S
H86 C74 0.929 . S
O87 Tb88 2.292 . S
O87 C90 1.255 . S
Tb88 O87 2.292 . S
Tb88 O104 2.326 . S
Tb88 O106 2.500 . S
Tb88 O107 2.473 . S
Tb88 O110 2.324 . S
Eu89 O93 2.292 . S
Eu89 C94 2.852 . S
Eu89 O105 2.324 . S
Eu89 O109 2.326 . S
Eu89 O111 2.500 . S
Eu89 O112 2.473 . S
C90 O87 1.255 . S
C90 O91 1.247 . S
O91 C90 1.247 . S
C92 O104 1.242 . S
C92 O105 1.258 . S
O93 Eu89 2.292 . S
O93 C95 1.255 . S
C94 Eu89 2.852 . S
C94 C98 1.503 . S
C94 O111 1.273 . S
C94 O112 1.257 . S
C95 O93 1.255 . S
C95 O96 1.247 . S
O96 C95 1.247 . S
C97 O109 1.242 . S
C97 O110 1.258 . S
C98 C94 1.503 . S
C98 C99 1.379 . S
C98 C103 1.392 . S
C99 C98 1.379 . S
C99 C100 1.404 . S
C99 H113 0.929 . S
C100 C99 1.404 . S
C100 C101 1.389 . S
C101 C100 1.389 . S
C101 C102 1.399 . S
C101 H114 0.931 1_565 S
C102 C101 1.399 . S
C102 C103 1.390 . S
C103 C98 1.392 . S
C103 C102 1.390 . S
C103 H115 0.929 . S
O104 Tb88 2.326 . S
O104 C92 1.242 . S
O105 Eu89 2.324 . S
O105 C92 1.258 . S
O106 Tb88 2.500 . S
O106 C108 1.273 . S
O107 Tb88 2.473 . S
O107 C108 1.257 . S
C108 O106 1.273 . S
C108 O107 1.257 . S
O109 Eu89 2.326 . S
O109 C97 1.242 . S
O110 Tb88 2.324 . S
O110 C97 1.258 . S
O111 Eu89 2.500 . S
O111 C94 1.273 . S
O112 Eu89 2.473 . S
O112 C94 1.257 . S
H113 C99 0.929 . S
H114 C101 0.931 1_545 S
H115 C103 0.929 . S
O116 Tb117 2.292 . S
O116 C119 1.255 . S
Tb117 O116 2.292 . S
Tb117 O133 2.326 . S
Tb117 O135 2.500 . S
Tb117 O136 2.473 . S
Tb117 O139 2.324 . S
Eu118 O122 2.292 . S
Eu118 C123 2.852 . S
Eu118 O134 2.324 . S
Eu118 O138 2.326 . S
Eu118 O140 2.500 . S
Eu118 O141 2.473 . S
C119 O116 1.255 . S
C119 O120 1.247 . S
O120 C119 1.247 . S
C121 O133 1.242 . S
C121 O134 1.258 . S
O122 Eu118 2.292 . S
O122 C124 1.255 . S
C123 Eu118 2.852 . S
C123 C127 1.503 . S
C123 O140 1.273 . S
C123 O141 1.257 . S
C124 O122 1.255 . S
C124 O125 1.247 . S
O125 C124 1.247 . S
C126 O138 1.242 . S
C126 O139 1.258 . S
C127 C123 1.503 . S
C127 C128 1.379 . S
C127 C132 1.392 . S
C128 C127 1.379 . S
C128 C129 1.404 . S
C128 H142 0.929 . S
C129 C128 1.404 . S
C129 C130 1.389 . S
C130 C129 1.389 . S
C130 C131 1.399 . S
C130 H143 0.931 1_455 S
C131 C130 1.399 . S
C131 C132 1.390 . S
C132 C127 1.392 . S
C132 C131 1.390 . S
C132 H144 0.929 . S
O133 Tb117 2.326 . S
O133 C121 1.242 . S
O134 Eu118 2.324 . S
O134 C121 1.258 . S
O135 Tb117 2.500 . S
O135 C137 1.273 . S
O136 Tb117 2.473 . S
O136 C137 1.257 . S
C137 O135 1.273 . S
C137 O136 1.257 . S
O138 Eu118 2.326 . S
O138 C126 1.242 . S
O139 Tb117 2.324 . S
O139 C126 1.258 . S
O140 Eu118 2.500 . S
O140 C123 1.273 . S
O141 Eu118 2.473 . S
O141 C123 1.257 . S
H142 C128 0.929 . S
H143 C130 0.931 1_655 S
H144 C132 0.929 . S
O145 Tb146 2.292 . S
O145 C148 1.255 . S
Tb146 O145 2.292 . S
Tb146 O162 2.326 . S
Tb146 O164 2.500 . S
Tb146 O165 2.473 . S
Tb146 O168 2.324 . S
Eu147 O151 2.292 . S
Eu147 C152 2.852 . S
Eu147 O163 2.324 . S
Eu147 O167 2.326 . S
Eu147 O169 2.500 . S
Eu147 O170 2.473 . S
C148 O145 1.255 . S
C148 O149 1.247 . S
O149 C148 1.247 . S
C150 O162 1.242 . S
C150 O163 1.258 . S
O151 Eu147 2.292 . S
O151 C153 1.255 . S
C152 Eu147 2.852 . S
C152 C156 1.503 . S
C152 O169 1.273 . S
C152 O170 1.257 . S
C153 O151 1.255 . S
C153 O154 1.247 . S
O154 C153 1.247 . S
C155 O167 1.242 . S
C155 O168 1.258 . S
C156 C152 1.503 . S
C156 C157 1.379 . S
C156 C161 1.392 . S
C157 C156 1.379 . S
C157 C158 1.404 . S
C157 H171 0.929 . S
C158 C157 1.404 . S
C158 C159 1.389 . S
C159 C158 1.389 . S
C159 C160 1.399 . S
C159 H172 0.931 1_545 S
C160 C159 1.399 . S
C160 C161 1.390 . S
C161 C156 1.392 . S
C161 C160 1.390 . S
C161 H173 0.929 . S
O162 Tb146 2.326 . S
O162 C150 1.242 . S
O163 Eu147 2.324 . S
O163 C150 1.258 . S
O164 Tb146 2.500 . S
O164 C166 1.273 . S
O165 Tb146 2.473 . S
O165 C166 1.257 . S
C166 O164 1.273 . S
C166 O165 1.257 . S
O167 Eu147 2.326 . S
O167 C155 1.242 . S
O168 Tb146 2.324 . S
O168 C155 1.258 . S
O169 Eu147 2.500 . S
O169 C152 1.273 . S
O170 Eu147 2.473 . S
O170 C152 1.257 . S
H171 C157 0.929 . S
H172 C159 0.931 1_565 S
H173 C161 0.929 . S
O174 Tb175 2.292 . S
O174 C177 1.255 . S
Tb175 O174 2.292 . S
Tb175 O191 2.326 . S
Tb175 O193 2.500 . S
Tb175 O194 2.473 . S
Tb175 O197 2.324 . S
Eu176 O180 2.292 . S
Eu176 C181 2.852 . S
Eu176 O192 2.324 . S
Eu176 O196 2.326 . S
Eu176 O198 2.500 . S
Eu176 O199 2.473 . S
C177 O174 1.255 . S
C177 O178 1.247 . S
O178 C177 1.247 . S
C179 O191 1.242 . S
C179 O192 1.258 . S
O180 Eu176 2.292 . S
O180 C182 1.255 . S
C181 Eu176 2.852 . S
C181 C185 1.503 . S
C181 O198 1.273 . S
C181 O199 1.257 . S
C182 O180 1.255 . S
C182 O183 1.247 . S
O183 C182 1.247 . S
C184 O196 1.242 . S
C184 O197 1.258 . S
C185 C181 1.503 . S
C185 C186 1.379 . S
C185 C190 1.392 . S
C186 C185 1.379 . S
C186 C187 1.404 . S
C186 H200 0.929 . S
C187 C186 1.404 . S
C187 C188 1.389 . S
C188 C187 1.389 . S
C188 C189 1.399 . S
C188 H201 0.931 1_655 S
C189 C188 1.399 . S
C189 C190 1.390 . S
C190 C185 1.392 . S
C190 C189 1.390 . S
C190 H202 0.929 . S
O191 Tb175 2.326 . S
O191 C179 1.242 . S
O192 Eu176 2.324 . S
O192 C179 1.258 . S
O193 Tb175 2.500 . S
O193 C195 1.273 . S
O194 Tb175 2.473 . S
O194 C195 1.257 . S
C195 O193 1.273 . S
C195 O194 1.257 . S
O196 Eu176 2.326 . S
O196 C184 1.242 . S
O197 Tb175 2.324 . S
O197 C184 1.258 . S
O198 Eu176 2.500 . S
O198 C181 1.273 . S
O199 Eu176 2.473 . S
O199 C181 1.257 . S
H200 C186 0.929 . S
H201 C188 0.931 1_455 S
H202 C190 0.929 . S
O203 Tb204 2.292 . S
O203 C206 1.255 . S
Tb204 O203 2.292 . S
Tb204 O220 2.326 . S
Tb204 O222 2.500 . S
Tb204 O223 2.473 . S
Tb204 O226 2.324 . S
Eu205 O209 2.292 . S
Eu205 C210 2.852 . S
Eu205 O221 2.324 . S
Eu205 O225 2.326 . S
Eu205 O227 2.500 . S
Eu205 O228 2.473 . S
C206 O203 1.255 . S
C206 O207 1.247 . S
O207 C206 1.247 . S
C208 O220 1.242 . S
C208 O221 1.258 . S
O209 Eu205 2.292 . S
O209 C211 1.255 . S
C210 Eu205 2.852 . S
C210 C214 1.503 . S
C210 O227 1.273 . S
C210 O228 1.257 . S
C211 O209 1.255 . S
C211 O212 1.247 . S
O212 C211 1.247 . S
C213 O225 1.242 . S
C213 O226 1.258 . S
C214 C210 1.503 . S
C214 C215 1.379 . S
C214 C219 1.392 . S
C215 C214 1.379 . S
C215 C216 1.404 . S
C215 H229 0.929 . S
C216 C215 1.404 . S
C216 C217 1.389 . S
C217 C216 1.389 . S
C217 C218 1.399 . S
C217 H230 0.931 1_565 S
C218 C217 1.399 . S
C218 C219 1.390 . S
C219 C214 1.392 . S
C219 C218 1.390 . S
C219 H231 0.929 . S
O220 Tb204 2.326 . S
O220 C208 1.242 . S
O221 Eu205 2.324 . S
O221 C208 1.258 . S
O222 Tb204 2.500 . S
O222 C224 1.273 . S
O223 Tb204 2.473 . S
O223 C224 1.257 . S
C224 O222 1.273 . S
C224 O223 1.257 . S
O225 Eu205 2.326 . S
O225 C213 1.242 . S
O226 Tb204 2.324 . S
O226 C213 1.258 . S
O227 Eu205 2.500 . S
O227 C210 1.273 . S
O228 Eu205 2.473 . S
O228 C210 1.257 . S
H229 C215 0.929 . S
H230 C217 0.931 1_545 S
H231 C219 0.929 . S
O232 Tb233 2.292 . S
O232 C235 1.255 . S
Tb233 O232 2.292 . S
Tb233 O249 2.326 . S
Tb233 O251 2.500 . S
Tb233 O252 2.473 . S
Tb233 O255 2.324 . S
Eu234 O238 2.292 . S
Eu234 C239 2.852 . S
Eu234 O250 2.324 . S
Eu234 O254 2.326 . S
Eu234 O256 2.500 . S
Eu234 O257 2.473 . S
C235 O232 1.255 . S
C235 O236 1.247 . S
O236 C235 1.247 . S
C237 O249 1.242 . S
C237 O250 1.258 . S
O238 Eu234 2.292 . S
O238 C240 1.255 . S
C239 Eu234 2.852 . S
C239 C243 1.503 . S
C239 O256 1.273 . S
C239 O257 1.257 . S
C240 O238 1.255 . S
C240 O241 1.247 . S
O241 C240 1.247 . S
C242 O254 1.242 . S
C242 O255 1.258 . S
C243 C239 1.503 . S
C243 C244 1.379 . S
C243 C248 1.392 . S
C244 C243 1.379 . S
C244 C245 1.404 . S
C244 H258 0.929 . S
C245 C244 1.404 . S
C245 C246 1.389 . S
C246 C245 1.389 . S
C246 C247 1.399 . S
C246 H259 0.931 . S
C247 C246 1.399 . S
C247 C248 1.390 . S
C248 C243 1.392 . S
C248 C247 1.390 . S
C248 H260 0.929 . S
O249 Tb233 2.326 . S
O249 C237 1.242 . S
O250 Eu234 2.324 . S
O250 C237 1.258 . S
O251 Tb233 2.500 . S
O251 C253 1.273 . S
O252 Tb233 2.473 . S
O252 C253 1.257 . S
C253 O251 1.273 . S
C253 O252 1.257 . S
O254 Eu234 2.326 . S
O254 C242 1.242 . S
O255 Tb233 2.324 . S
O255 C242 1.258 . S
O256 Eu234 2.500 . S
O256 C239 1.273 . S
O257 Eu234 2.473 . S
O257 C239 1.257 . S
H258 C244 0.929 . S
H259 C246 0.931 . S
H260 C248 0.929 . S
O261 Tb262 2.292 . S
O261 C264 1.255 . S
Tb262 O261 2.292 . S
Tb262 O278 2.326 . S
Tb262 O280 2.500 . S
Tb262 O281 2.473 . S
Tb262 O284 2.324 . S
Eu263 O267 2.292 . S
Eu263 C268 2.852 . S
Eu263 O279 2.324 . S
Eu263 O283 2.326 . S
Eu263 O285 2.500 . S
Eu263 O286 2.473 . S
C264 O261 1.255 . S
C264 O265 1.247 . S
O265 C264 1.247 . S
C266 O278 1.242 . S
C266 O279 1.258 . S
O267 Eu263 2.292 . S
O267 C269 1.255 . S
C268 Eu263 2.852 . S
C268 C272 1.503 . S
C268 O285 1.273 . S
C268 O286 1.257 . S
C269 O267 1.255 . S
C269 O270 1.247 . S
O270 C269 1.247 . S
C271 O283 1.242 . S
C271 O284 1.258 . S
C272 C268 1.503 . S
C272 C273 1.379 . S
C272 C277 1.392 . S
C273 C272 1.379 . S
C273 C274 1.404 . S
C273 H287 0.929 . S
C274 C273 1.404 . S
C274 C275 1.389 . S
C275 C274 1.389 . S
C275 C276 1.399 . S
C275 H288 0.931 . S
C276 C275 1.399 . S
C276 C277 1.390 . S
C277 C272 1.392 . S
C277 C276 1.390 . S
C277 H289 0.929 . S
O278 Tb262 2.326 . S
O278 C266 1.242 . S
O279 Eu263 2.324 . S
O279 C266 1.258 . S
O280 Tb262 2.500 . S
O280 C282 1.273 . S
O281 Tb262 2.473 . S
O281 C282 1.257 . S
C282 O280 1.273 . S
C282 O281 1.257 . S
O283 Eu263 2.326 . S
O283 C271 1.242 . S
O284 Tb262 2.324 . S
O284 C271 1.258 . S
O285 Eu263 2.500 . S
O285 C268 1.273 . S
O286 Eu263 2.473 . S
O286 C268 1.257 . S
H287 C273 0.929 . S
H288 C275 0.931 . S
H289 C277 0.929 . S
O290 Tb291 2.292 . S
O290 C293 1.255 . S
Tb291 O290 2.292 . S
Tb291 O307 2.326 . S
Tb291 O309 2.500 . S
Tb291 O310 2.473 . S
Tb291 O313 2.324 . S
Eu292 O296 2.292 . S
Eu292 C297 2.852 . S
Eu292 O308 2.324 . S
Eu292 O312 2.326 . S
Eu292 O314 2.500 . S
Eu292 O315 2.473 . S
C293 O290 1.255 . S
C293 O294 1.247 . S
O294 C293 1.247 . S
C295 O307 1.242 . S
C295 O308 1.258 . S
O296 Eu292 2.292 . S
O296 C298 1.255 . S
C297 Eu292 2.852 . S
C297 C301 1.503 . S
C297 O314 1.273 . S
C297 O315 1.257 . S
C298 O296 1.255 . S
C298 O299 1.247 . S
O299 C298 1.247 . S
C300 O312 1.242 . S
C300 O313 1.258 . S
C301 C297 1.503 . S
C301 C302 1.379 . S
C301 C306 1.392 . S
C302 C301 1.379 . S
C302 C303 1.404 . S
C302 H316 0.929 . S
C303 C302 1.404 . S
C303 C304 1.389 . S
C304 C303 1.389 . S
C304 C305 1.399 . S
C304 H317 0.931 . S
C305 C304 1.399 . S
C305 C306 1.390 . S
C306 C301 1.392 . S
C306 C305 1.390 . S
C306 H318 0.929 . S
O307 Tb291 2.326 . S
O307 C295 1.242 . S
O308 Eu292 2.324 . S
O308 C295 1.258 . S
O309 Tb291 2.500 . S
O309 C311 1.273 . S
O310 Tb291 2.473 . S
O310 C311 1.257 . S
C311 O309 1.273 . S
C311 O310 1.257 . S
O312 Eu292 2.326 . S
O312 C300 1.242 . S
O313 Tb291 2.324 . S
O313 C300 1.258 . S
O314 Eu292 2.500 . S
O314 C297 1.273 . S
O315 Eu292 2.473 . S
O315 C297 1.257 . S
H316 C302 0.929 . S
H317 C304 0.931 . S
H318 C306 0.929 . S
O319 Tb320 2.292 . S
O319 C322 1.255 . S
Tb320 O319 2.292 . S
Tb320 O336 2.326 . S
Tb320 O338 2.500 . S
Tb320 O339 2.473 . S
Tb320 O342 2.324 . S
Eu321 O325 2.292 . S
Eu321 C326 2.852 . S
Eu321 O337 2.324 . S
Eu321 O341 2.326 . S
Eu321 O343 2.500 . S
Eu321 O344 2.473 . S
C322 O319 1.255 . S
C322 O323 1.247 . S
O323 C322 1.247 . S
C324 O336 1.242 . S
C324 O337 1.258 . S
O325 Eu321 2.292 . S
O325 C327 1.255 . S
C326 Eu321 2.852 . S
C326 C330 1.503 . S
C326 O343 1.273 . S
C326 O344 1.257 . S
C327 O325 1.255 . S
C327 O328 1.247 . S
O328 C327 1.247 . S
C329 O341 1.242 . S
C329 O342 1.258 . S
C330 C326 1.503 . S
C330 C331 1.379 . S
C330 C335 1.392 . S
C331 C330 1.379 . S
C331 C332 1.404 . S
C331 H345 0.929 . S
C332 C331 1.404 . S
C332 C333 1.389 . S
C333 C332 1.389 . S
C333 C334 1.399 . S
C333 H346 0.931 . S
C334 C333 1.399 . S
C334 C335 1.390 . S
C335 C330 1.392 . S
C335 C334 1.390 . S
C335 H347 0.929 . S
O336 Tb320 2.326 . S
O336 C324 1.242 . S
O337 Eu321 2.324 . S
O337 C324 1.258 . S
O338 Tb320 2.500 . S
O338 C340 1.273 . S
O339 Tb320 2.473 . S
O339 C340 1.257 . S
C340 O338 1.273 . S
C340 O339 1.257 . S
O341 Eu321 2.326 . S
O341 C329 1.242 . S
O342 Tb320 2.324 . S
O342 C329 1.258 . S
O343 Eu321 2.500 . S
O343 C326 1.273 . S
O344 Eu321 2.473 . S
O344 C326 1.257 . S
H345 C331 0.929 . S
H346 C333 0.931 . S
H347 C335 0.929 . S
O348 Tb349 2.292 . S
O348 C351 1.255 . S
Tb349 O348 2.292 . S
Tb349 O365 2.326 . S
Tb349 O367 2.500 . S
Tb349 O368 2.473 . S
Tb349 O371 2.324 . S
Eu350 O354 2.292 . S
Eu350 C355 2.852 . S
Eu350 O366 2.324 . S
Eu350 O370 2.326 . S
Eu350 O372 2.500 . S
Eu350 O373 2.473 . S
C351 O348 1.255 . S
C351 O352 1.247 . S
O352 C351 1.247 . S
C353 O365 1.242 . S
C353 O366 1.258 . S
O354 Eu350 2.292 . S
O354 C356 1.255 . S
C355 Eu350 2.852 . S
C355 C359 1.503 . S
C355 O372 1.273 . S
C355 O373 1.257 . S
C356 O354 1.255 . S
C356 O357 1.247 . S
O357 C356 1.247 . S
C358 O370 1.242 . S
C358 O371 1.258 . S
C359 C355 1.503 . S
C359 C360 1.379 . S
C359 C364 1.392 . S
C360 C359 1.379 . S
C360 C361 1.404 . S
C360 H374 0.929 . S
C361 C360 1.404 . S
C361 C362 1.389 . S
C362 C361 1.389 . S
C362 C363 1.399 . S
C362 H375 0.931 . S
C363 C362 1.399 . S
C363 C364 1.390 . S
C364 C359 1.392 . S
C364 C363 1.390 . S
C364 H376 0.929 . S
O365 Tb349 2.326 . S
O365 C353 1.242 . S
O366 Eu350 2.324 . S
O366 C353 1.258 . S
O367 Tb349 2.500 . S
O367 C369 1.273 . S
O368 Tb349 2.473 . S
O368 C369 1.257 . S
C369 O367 1.273 . S
C369 O368 1.257 . S
O370 Eu350 2.326 . S
O370 C358 1.242 . S
O371 Tb349 2.324 . S
O371 C358 1.258 . S
O372 Eu350 2.500 . S
O372 C355 1.273 . S
O373 Eu350 2.473 . S
O373 C355 1.257 . S
H374 C360 0.929 . S
H375 C362 0.931 . S
H376 C364 0.929 . S
O377 Tb378 2.292 . S
O377 C380 1.255 . S
Tb378 O377 2.292 . S
Tb378 O394 2.326 . S
Tb378 O396 2.500 . S
Tb378 O397 2.473 . S
Tb378 O400 2.324 . S
Eu379 O383 2.292 . S
Eu379 C384 2.852 . S
Eu379 O395 2.324 . S
Eu379 O399 2.326 . S
Eu379 O401 2.500 . S
Eu379 O402 2.473 . S
C380 O377 1.255 . S
C380 O381 1.247 . S
O381 C380 1.247 . S
C382 O394 1.242 . S
C382 O395 1.258 . S
O383 Eu379 2.292 . S
O383 C385 1.255 . S
C384 Eu379 2.852 . S
C384 C388 1.503 . S
C384 O401 1.273 . S
C384 O402 1.257 . S
C385 O383 1.255 . S
C385 O386 1.247 . S
O386 C385 1.247 . S
C387 O399 1.242 . S
C387 O400 1.258 . S
C388 C384 1.503 . S
C388 C389 1.379 . S
C388 C393 1.392 . S
C389 C388 1.379 . S
C389 C390 1.404 . S
C389 H403 0.929 . S
C390 C389 1.404 . S
C390 C391 1.389 . S
C391 C390 1.389 . S
C391 C392 1.399 . S
C391 H404 0.931 . S
C392 C391 1.399 . S
C392 C393 1.390 . S
C393 C388 1.392 . S
C393 C392 1.390 . S
C393 H405 0.929 . S
O394 Tb378 2.326 . S
O394 C382 1.242 . S
O395 Eu379 2.324 . S
O395 C382 1.258 . S
O396 Tb378 2.500 . S
O396 C398 1.273 . S
O397 Tb378 2.473 . S
O397 C398 1.257 . S
C398 O396 1.273 . S
C398 O397 1.257 . S
O399 Eu379 2.326 . S
O399 C387 1.242 . S
O400 Tb378 2.324 . S
O400 C387 1.258 . S
O401 Eu379 2.500 . S
O401 C384 1.273 . S
O402 Eu379 2.473 . S
O402 C384 1.257 . S
H403 C389 0.929 . S
H404 C391 0.931 . S
H405 C393 0.929 . S
O406 Tb407 2.292 . S
O406 C409 1.255 . S
Tb407 O406 2.292 . S
Tb407 O423 2.326 . S
Tb407 O425 2.500 . S
Tb407 O426 2.473 . S
Tb407 O429 2.324 . S
Eu408 O412 2.292 . S
Eu408 C413 2.852 . S
Eu408 O424 2.324 . S
Eu408 O428 2.326 . S
Eu408 O430 2.500 . S
Eu408 O431 2.473 . S
C409 O406 1.255 . S
C409 O410 1.247 . S
O410 C409 1.247 . S
C411 O423 1.242 . S
C411 O424 1.258 . S
O412 Eu408 2.292 . S
O412 C414 1.255 . S
C413 Eu408 2.852 . S
C413 C417 1.503 . S
C413 O430 1.273 . S
C413 O431 1.257 . S
C414 O412 1.255 . S
C414 O415 1.247 . S
O415 C414 1.247 . S
C416 O428 1.242 . S
C416 O429 1.258 . S
C417 C413 1.503 . S
C417 C418 1.379 . S
C417 C422 1.392 . S
C418 C417 1.379 . S
C418 C419 1.404 . S
C418 H432 0.929 . S
C419 C418 1.404 . S
C419 C420 1.389 . S
C420 C419 1.389 . S
C420 C421 1.399 . S
C420 H433 0.931 . S
C421 C420 1.399 . S
C421 C422 1.390 . S
C422 C417 1.392 . S
C422 C421 1.390 . S
C422 H434 0.929 . S
O423 Tb407 2.326 . S
O423 C411 1.242 . S
O424 Eu408 2.324 . S
O424 C411 1.258 . S
O425 Tb407 2.500 . S
O425 C427 1.273 . S
O426 Tb407 2.473 . S
O426 C427 1.257 . S
C427 O425 1.273 . S
C427 O426 1.257 . S
O428 Eu408 2.326 . S
O428 C416 1.242 . S
O429 Tb407 2.324 . S
O429 C416 1.258 . S
O430 Eu408 2.500 . S
O430 C413 1.273 . S
O431 Eu408 2.473 . S
O431 C413 1.257 . S
H432 C418 0.929 . S
H433 C420 0.931 . S
H434 C422 0.929 . S
O435 Tb436 2.292 . S
O435 C438 1.255 . S
Tb436 O435 2.292 . S
Tb436 O452 2.326 . S
Tb436 O454 2.500 . S
Tb436 O455 2.473 . S
Tb436 O458 2.324 . S
Eu437 O441 2.292 . S
Eu437 C442 2.852 . S
Eu437 O453 2.324 . S
Eu437 O457 2.326 . S
Eu437 O459 2.500 . S
Eu437 O460 2.473 . S
C438 O435 1.255 . S
C438 O439 1.247 . S
O439 C438 1.247 . S
C440 O452 1.242 . S
C440 O453 1.258 . S
O441 Eu437 2.292 . S
O441 C443 1.255 . S
C442 Eu437 2.852 . S
C442 C446 1.503 . S
C442 O459 1.273 . S
C442 O460 1.257 . S
C443 O441 1.255 . S
C443 O444 1.247 . S
O444 C443 1.247 . S
C445 O457 1.242 . S
C445 O458 1.258 . S
C446 C442 1.503 . S
C446 C447 1.379 . S
C446 C451 1.392 . S
C447 C446 1.379 . S
C447 C448 1.404 . S
C447 H461 0.929 . S
C448 C447 1.404 . S
C448 C449 1.389 . S
C449 C448 1.389 . S
C449 C450 1.399 . S
C449 H462 0.931 . S
C450 C449 1.399 . S
C450 C451 1.390 . S
C451 C446 1.392 . S
C451 C450 1.390 . S
C451 H463 0.929 . S
O452 Tb436 2.326 . S
O452 C440 1.242 . S
O453 Eu437 2.324 . S
O453 C440 1.258 . S
O454 Tb436 2.500 . S
O454 C456 1.273 . S
O455 Tb436 2.473 . S
O455 C456 1.257 . S
C456 O454 1.273 . S
C456 O455 1.257 . S
O457 Eu437 2.326 . S
O457 C445 1.242 . S
O458 Tb436 2.324 . S
O458 C445 1.258 . S
O459 Eu437 2.500 . S
O459 C442 1.273 . S
O460 Eu437 2.473 . S
O460 C442 1.257 . S
H461 C447 0.929 . S
H462 C449 0.931 . S
H463 C451 0.929 . S
H464 C470 0.930 . S
H465 C473 0.930 . S
H466 C474 0.930 . S
H467 C475 0.930 . S
H468 C478 0.930 . S
H469 C479 0.930 . S
C470 H464 0.930 . S
C470 C471 1.355 . S
C470 C472 1.381 1_554 S
C471 C470 1.355 . S
C471 C473 1.419 . S
C472 C470 1.381 1_556 S
C472 C477 1.422 1_556 S
C472 C479 1.446 . S
C473 H465 0.930 . S
C473 C471 1.419 . S
C473 C474 1.362 . S
C474 H466 0.930 . S
C474 C473 1.362 . S
C474 C477 1.446 . S
C475 H467 0.930 . S
C475 C476 1.355 . S
C475 C477 1.381 1_556 S
C476 C475 1.355 . S
C476 C478 1.419 . S
C477 C472 1.422 1_554 S
C477 C474 1.446 . S
C477 C475 1.381 1_554 S
C478 H468 0.930 . S
C478 C476 1.419 . S
C478 C479 1.362 . S
C479 H469 0.930 . S
C479 C472 1.446 . S
C479 C478 1.362 . S
H480 C486 0.930 . S
H481 C489 0.930 . S
H482 C490 0.930 . S
H483 C491 0.930 . S
H484 C494 0.930 . S
H485 C495 0.930 . S
C486 H480 0.930 . S
C486 C487 1.355 . S
C486 C488 1.415 1_554 S
C487 C486 1.355 . S
C487 C489 1.419 . S
C488 C486 1.415 1_556 S
C488 C493 1.425 1_556 S
C488 C495 1.409 . S
C489 H481 0.930 . S
C489 C487 1.419 . S
C489 C490 1.362 . S
C490 H482 0.930 . S
C490 C489 1.362 . S
C490 C493 1.409 . S
C491 H483 0.930 . S
C491 C492 1.355 . S
C491 C493 1.415 1_556 S
C492 C491 1.355 . S
C492 C494 1.419 . S
C493 C488 1.425 1_554 S
C493 C490 1.409 . S
C493 C491 1.415 1_554 S
C494 H484 0.930 . S
C494 C492 1.419 . S
C494 C495 1.362 . S
C495 H485 0.930 . S
C495 C488 1.409 . S
C495 C494 1.362 . S
H496 C502 0.930 . S
H497 C505 0.930 . S
H498 C506 0.949 . S
H499 C507 0.930 . S
H500 C510 0.930 . S
H501 C511 0.949 . S
C502 H496 0.930 . S
C502 C503 1.355 . S
C502 C504 1.415 . S
C503 C502 1.355 . S
C503 C505 1.419 . S
C504 C502 1.415 . S
C504 C509 1.425 1_556 S
C504 C511 1.418 . S
C505 H497 0.930 . S
C505 C503 1.419 . S
C505 C506 1.336 1_556 S
C506 H498 0.949 . S
C506 C505 1.336 1_554 S
C506 C509 1.418 . S
C507 H499 0.930 . S
C507 C508 1.355 . S
C507 C509 1.415 . S
C508 C507 1.355 . S
C508 C510 1.419 . S
C509 C504 1.425 1_554 S
C509 C506 1.418 . S
C509 C507 1.415 . S
C510 H500 0.930 . S
C510 C508 1.419 . S
C510 C511 1.336 1_554 S
C511 H501 0.949 . S
C511 C504 1.418 . S
C511 C510 1.336 1_556 S
H512 C518 0.930 . S
H513 C521 0.930 . S
H514 C522 0.921 1_554 S
H515 C523 0.930 . S
H516 C526 0.930 . S
H517 C527 0.921 1_556 S
C518 H512 0.930 . S
C518 C519 1.355 . S
C518 C520 1.415 . S
C519 C518 1.355 . S
C519 C521 1.419 . S
C520 C518 1.415 . S
C520 C525 1.425 1_556 S
C520 C527 1.404 1_556 S
C521 H513 0.930 . S
C521 C519 1.419 . S
C521 C522 1.376 . S
C522 H514 0.921 1_556 S
C522 C521 1.376 . S
C522 C525 1.404 1_556 S
C523 H515 0.930 . S
C523 C524 1.355 . S
C523 C525 1.415 . S
C524 C523 1.355 . S
C524 C526 1.419 . S
C525 C520 1.425 1_554 S
C525 C522 1.404 1_554 S
C525 C523 1.415 . S
C526 H516 0.930 . S
C526 C524 1.419 . S
C526 C527 1.376 . S
C527 H517 0.921 1_554 S
C527 C520 1.404 1_554 S
C527 C526 1.376 . S
H528 C534 0.930 . S
H529 C537 0.930 . S
H530 C538 0.930 . S
H531 C539 0.930 . S
H532 C542 0.930 . S
H533 C543 0.930 . S
C534 H528 0.930 . S
C534 C535 1.355 . S
C534 C536 1.415 . S
C535 C534 1.355 . S
C535 C537 1.419 . S
C536 C534 1.415 . S
C536 C541 1.425 . S
C536 C543 1.409 . S
C537 H529 0.930 . S
C537 C535 1.419 . S
C537 C538 1.362 . S
C538 H530 0.930 . S
C538 C537 1.362 . S
C538 C541 1.409 . S
C539 H531 0.930 . S
C539 C540 1.355 . S
C539 C541 1.415 . S
C540 C539 1.355 . S
C540 C542 1.419 . S
C541 C536 1.425 . S
C541 C538 1.409 . S
C541 C539 1.415 . S
C542 H532 0.930 . S
C542 C540 1.419 . S
C542 C543 1.362 . S
C543 H533 0.930 . S
C543 C536 1.409 . S
C543 C542 1.362 . S
H544 C550 0.930 . S
H545 C553 0.930 . S
H546 C554 0.930 . S
H547 C555 0.930 . S
H548 C558 0.930 . S
H549 C559 0.930 . S
C550 H544 0.930 . S
C550 C551 1.355 . S
C550 C552 1.415 . S
C551 C550 1.355 . S
C551 C553 1.419 . S
C552 C550 1.415 . S
C552 C557 1.425 . S
C552 C559 1.409 . S
C553 H545 0.930 . S
C553 C551 1.419 . S
C553 C554 1.362 . S
C554 H546 0.930 . S
C554 C553 1.362 . S
C554 C557 1.409 . S
C555 H547 0.930 . S
C555 C556 1.355 . S
C555 C557 1.415 . S
C556 C555 1.355 . S
C556 C558 1.419 . S
C557 C552 1.425 . S
C557 C554 1.409 . S
C557 C555 1.415 . S
C558 H548 0.930 . S
C558 C556 1.419 . S
C558 C559 1.362 . S
C559 H549 0.930 . S
C559 C552 1.409 . S
C559 C558 1.362 . S
H560 C566 0.930 . S
H561 C569 0.930 . S
H562 C570 0.930 . S
H563 C571 0.930 . S
H564 C574 0.930 . S
H565 C575 0.930 . S
C566 H560 0.930 . S
C566 C567 1.355 . S
C566 C568 1.415 . S
C567 C566 1.355 . S
C567 C569 1.419 . S
C568 C566 1.415 . S
C568 C573 1.425 . S
C568 C575 1.409 . S
C569 H561 0.930 . S
C569 C567 1.419 . S
C569 C570 1.362 . S
C570 H562 0.930 . S
C570 C569 1.362 . S
C570 C573 1.409 . S
C571 H563 0.930 . S
C571 C572 1.355 . S
C571 C573 1.415 . S
C572 C571 1.355 . S
C572 C574 1.419 . S
C573 C568 1.425 . S
C573 C570 1.409 . S
C573 C571 1.415 . S
C574 H564 0.930 . S
C574 C572 1.419 . S
C574 C575 1.362 . S
C575 H565 0.930 . S
C575 C568 1.409 . S
C575 C574 1.362 . S
H576 C582 0.930 . S
H577 C585 0.930 . S
H578 C586 0.930 . S
H579 C587 0.930 . S
H580 C590 0.930 . S
H581 C591 0.930 . S
C582 H576 0.930 . S
C582 C583 1.355 . S
C582 C584 1.415 . S
C583 C582 1.355 . S
C583 C585 1.419 . S
C584 C582 1.415 . S
C584 C589 1.425 . S
C584 C591 1.409 . S
C585 H577 0.930 . S
C585 C583 1.419 . S
C585 C586 1.362 . S
C586 H578 0.930 . S
C586 C585 1.362 . S
C586 C589 1.409 . S
C587 H579 0.930 . S
C587 C588 1.355 . S
C587 C589 1.415 . S
C588 C587 1.355 . S
C588 C590 1.419 . S
C589 C584 1.425 . S
C589 C586 1.409 . S
C589 C587 1.415 . S
C590 H580 0.930 . S
C590 C588 1.419 . S
C590 C591 1.362 . S
C591 H581 0.930 . S
C591 C584 1.409 . S
C591 C590 1.362 . S
H592 C598 0.930 . S
H593 C601 0.930 . S
H594 C602 0.930 . S
H595 C603 0.930 . S
H596 C606 0.930 . S
H597 C607 0.930 . S
C598 H592 0.930 . S
C598 C599 1.355 . S
C598 C600 1.415 . S
C599 C598 1.355 . S
C599 C601 1.419 . S
C600 C598 1.415 . S
C600 C605 1.425 . S
C600 C607 1.409 . S
C601 H593 0.930 . S
C601 C599 1.419 . S
C601 C602 1.362 . S
C602 H594 0.930 . S
C602 C601 1.362 . S
C602 C605 1.409 . S
C603 H595 0.930 . S
C603 C604 1.355 . S
C603 C605 1.415 . S
C604 C603 1.355 . S
C604 C606 1.419 . S
C605 C600 1.425 . S
C605 C602 1.409 . S
C605 C603 1.415 . S
C606 H596 0.930 . S
C606 C604 1.419 . S
C606 C607 1.362 . S
C607 H597 0.930 . S
C607 C600 1.409 . S
C607 C606 1.362 . S
H608 C614 0.930 . S
H609 C617 0.930 . S
H610 C618 0.930 . S
H611 C619 0.930 . S
H612 C622 0.930 . S
H613 C623 0.930 . S
C614 H608 0.930 . S
C614 C615 1.355 . S
C614 C616 1.415 . S
C615 C614 1.355 . S
C615 C617 1.419 . S
C616 C614 1.415 . S
C616 C621 1.425 . S
C616 C623 1.409 . S
C617 H609 0.930 . S
C617 C615 1.419 . S
C617 C618 1.362 . S
C618 H610 0.930 . S
C618 C617 1.362 . S
C618 C621 1.409 . S
C619 H611 0.930 . S
C619 C620 1.355 . S
C619 C621 1.415 . S
C620 C619 1.355 . S
C620 C622 1.419 . S
C621 C616 1.425 . S
C621 C618 1.409 . S
C621 C619 1.415 . S
C622 H612 0.930 . S
C622 C620 1.419 . S
C622 C623 1.362 . S
C623 H613 0.930 . S
C623 C616 1.409 . S
C623 C622 1.362 . S
H624 C630 0.930 . S
H625 C633 0.930 . S
H626 C634 0.930 . S
H627 C635 0.910 1_545 S
H628 C638 0.930 . S
H629 C639 0.930 . S
C630 H624 0.930 . S
C630 C631 1.355 . S
C630 C632 1.415 . S
C631 C630 1.355 . S
C631 C633 1.419 . S
C632 C630 1.415 . S
C632 C637 1.425 . S
C632 C639 1.409 . S
C633 H625 0.930 . S
C633 C631 1.419 . S
C633 C634 1.362 . S
C634 H626 0.930 . S
C634 C633 1.362 . S
C634 C637 1.409 . S
C635 H627 0.910 1_565 S
C635 C636 1.355 . S
C635 C637 1.415 . S
C636 C635 1.355 . S
C636 C638 1.419 . S
C637 C632 1.425 . S
C637 C634 1.409 . S
C637 C635 1.415 . S
C638 H628 0.930 . S
C638 C636 1.419 . S
C638 C639 1.362 . S
C639 H629 0.930 . S
C639 C632 1.409 . S
C639 C638 1.362 . S
H640 C646 0.930 . S
H641 C649 0.930 . S
H642 C650 0.930 . S
H643 C651 0.930 . S
H644 C654 0.930 1_655 S
H645 C655 0.930 . S
C646 H640 0.930 . S
C646 C647 1.355 . S
C646 C648 1.415 . S
C647 C646 1.355 . S
C647 C649 1.419 . S
C648 C646 1.415 . S
C648 C653 1.425 . S
C648 C655 1.409 . S
C649 H641 0.930 . S
C649 C647 1.419 . S
C649 C650 1.362 . S
C650 H642 0.930 . S
C650 C649 1.362 . S
C650 C653 1.409 . S
C651 H643 0.930 . S
C651 C652 1.355 . S
C651 C653 1.415 . S
C652 C651 1.355 . S
C652 C654 1.419 . S
C653 C648 1.425 . S
C653 C650 1.409 . S
C653 C651 1.415 . S
C654 H644 0.930 1_455 S
C654 C652 1.419 . S
C654 C655 1.362 . S
C655 H645 0.930 . S
C655 C648 1.409 . S
C655 C654 1.362 . S
H656 C662 0.930 . S
H657 C665 0.930 . S
H658 C666 0.930 . S
H659 C667 0.930 . S
H660 C670 0.930 . S
H661 C671 0.930 . S
C662 H656 0.930 . S
C662 C663 1.355 . S
C662 C664 1.415 . S
C663 C662 1.355 . S
C663 C665 1.419 . S
C664 C662 1.415 . S
C664 C669 1.425 . S
C664 C671 1.409 . S
C665 H657 0.930 . S
C665 C663 1.419 . S
C665 C666 1.362 . S
C666 H658 0.930 . S
C666 C665 1.362 . S
C666 C669 1.409 . S
C667 H659 0.930 . S
C667 C668 1.355 . S
C667 C669 1.415 . S
C668 C667 1.355 . S
C668 C670 1.419 . S
C669 C664 1.425 . S
C669 C666 1.409 . S
C669 C667 1.415 . S
C670 H660 0.930 . S
C670 C668 1.419 . S
C670 C671 1.362 . S
C671 H661 0.930 . S
C671 C664 1.409 . S
C671 C670 1.362 . S
H672 C678 0.930 . S
H673 C681 0.930 . S
H674 C682 0.930 . S
H675 C683 0.930 . S
H676 C686 0.930 . S
H677 C687 0.930 . S
C678 H672 0.930 . S
C678 C679 1.355 . S
C678 C680 1.415 . S
C679 C678 1.355 . S
C679 C681 1.419 . S
C680 C678 1.415 . S
C680 C685 1.425 . S
C680 C687 1.409 . S
C681 H673 0.930 . S
C681 C679 1.419 . S
C681 C682 1.362 . S
C682 H674 0.930 . S
C682 C681 1.362 . S
C682 C685 1.409 . S
C683 H675 0.930 . S
C683 C684 1.355 . S
C683 C685 1.415 . S
C684 C683 1.355 . S
C684 C686 1.419 1_455 S
C685 C680 1.425 . S
C685 C682 1.409 . S
C685 C683 1.415 . S
C686 H676 0.930 . S
C686 C684 1.419 1_655 S
C686 C687 1.362 1_655 S
C687 H677 0.930 . S
C687 C680 1.409 . S
C687 C686 1.362 1_455 S
H688 C694 0.930 . S
H689 C697 0.930 1_565 S
H690 C698 0.930 . S
H691 C699 0.930 . S
H692 C702 0.930 . S
H693 C703 0.930 . S
C694 H688 0.930 . S
C694 C695 1.355 . S
C694 C696 1.415 . S
C695 C694 1.355 . S
C695 C697 1.419 . S
C696 C694 1.415 . S
C696 C701 1.425 . S
C696 C703 1.409 . S
C697 H689 0.930 1_545 S
C697 C695 1.419 . S
C697 C698 1.362 . S
C698 H690 0.930 . S
C698 C697 1.362 . S
C698 C701 1.409 . S
C699 H691 0.930 . S
C699 C700 1.355 . S
C699 C701 1.415 . S
C700 C699 1.355 . S
C700 C702 1.419 . S
C701 C696 1.425 . S
C701 C698 1.409 . S
C701 C699 1.415 . S
C702 H692 0.930 . S
C702 C700 1.419 . S
C702 C703 1.362 . S
C703 H693 0.930 . S
C703 C696 1.409 . S
C703 C702 1.362 . S
H704 C710 0.930 . S
H705 C713 0.925 1_455 S
H706 C714 0.930 . S
H707 C715 0.930 . S
H708 C718 0.930 . S
H709 C719 0.930 . S
C710 H704 0.930 . S
C710 C711 1.355 . S
C710 C712 1.415 . S
C711 C710 1.355 . S
C711 C713 1.419 . S
C712 C710 1.415 . S
C712 C717 1.425 . S
C712 C719 1.409 . S
C713 H705 0.925 1_655 S
C713 C711 1.419 . S
C713 C714 1.367 . S
C714 H706 0.930 . S
C714 C713 1.367 . S
C714 C717 1.409 . S
C715 H707 0.930 . S
C715 C716 1.355 . S
C715 C717 1.415 . S
C716 C715 1.355 . S
C716 C718 1.419 . S
C717 C712 1.425 . S
C717 C714 1.409 . S
C717 C715 1.415 . S
C718 H708 0.930 . S
C718 C716 1.419 . S
C718 C719 1.362 . S
C719 H709 0.930 . S
C719 C712 1.409 . S
C719 C718 1.362 . S
H720 C726 0.930 . S
H721 C729 0.930 . S
H722 C730 0.930 . S
H723 C731 0.930 . S
H724 C734 0.930 . S
H725 C735 0.930 . S
C726 H720 0.930 . S
C726 C727 1.355 . S
C726 C728 1.415 . S
C727 C726 1.355 . S
C727 C729 1.419 . S
C728 C726 1.415 . S
C728 C733 1.425 . S
C728 C735 1.409 . S
C729 H721 0.930 . S
C729 C727 1.419 . S
C729 C730 1.362 . S
C730 H722 0.930 . S
C730 C729 1.362 . S
C730 C733 1.409 . S
C731 H723 0.930 . S
C731 C732 1.355 1_565 S
C731 C733 1.415 . S
C732 C731 1.355 1_545 S
C732 C734 1.419 1_545 S
C733 C728 1.425 . S
C733 C730 1.409 . S
C733 C731 1.415 . S
C734 H724 0.930 . S
C734 C732 1.419 1_565 S
C734 C735 1.362 . S
C735 H725 0.930 . S
C735 C728 1.409 . S
C735 C734 1.362 . S
H736 C742 0.930 . S
H737 C745 0.930 1_655 S
H738 C746 0.930 . S
H739 C747 0.930 . S
H740 C750 0.930 . S
H741 C751 0.930 . S
C742 H736 0.930 . S
C742 C743 1.355 1_455 S
C742 C744 1.415 . S
C743 C742 1.355 1_655 S
C743 C745 1.419 1_655 S
C744 C742 1.415 . S
C744 C749 1.425 . S
C744 C751 1.409 . S
C745 H737 0.930 1_455 S
C745 C743 1.419 1_455 S
C745 C746 1.362 . S
C746 H738 0.930 . S
C746 C745 1.362 . S
C746 C749 1.409 . S
C747 H739 0.930 . S
C747 C748 1.355 . S
C747 C749 1.415 . S
C748 C747 1.355 . S
C748 C750 1.419 . S
C749 C744 1.425 . S
C749 C746 1.409 . S
C749 C747 1.415 . S
C750 H740 0.930 . S
C750 C748 1.419 . S
C750 C751 1.362 . S
C751 H741 0.930 . S
C751 C744 1.409 . S
C751 C750 1.362 . S
H752 C758 0.930 . S
H753 C761 0.930 . S
H754 C762 0.930 . S
H755 C763 0.930 . S
H756 C766 0.930 1_565 S
H757 C767 0.930 . S
C758 H752 0.930 . S
C758 C759 1.355 . S
C758 C760 1.415 . S
C759 C758 1.355 . S
C759 C761 1.419 . S
C760 C758 1.415 . S
C760 C765 1.425 . S
C760 C767 1.409 . S
C761 H753 0.930 . S
C761 C759 1.419 . S
C761 C762 1.362 . S
C762 H754 0.930 . S
C762 C761 1.362 . S
C762 C765 1.409 . S
C763 H755 0.930 . S
C763 C764 1.355 1_545 S
C763 C765 1.415 . S
C764 C763 1.355 1_565 S
C764 C766 1.419 1_565 S
C765 C760 1.425 . S
C765 C762 1.409 . S
C765 C763 1.415 . S
C766 H756 0.930 1_545 S
C766 C764 1.419 1_545 S
C766 C767 1.362 . S
C767 H757 0.930 . S
C767 C760 1.409 . S
C767 C766 1.362 . S
H768 C774 0.930 . S
H769 C777 0.908 1_455 S
H770 C778 0.930 . S
H771 C779 0.930 . S
H772 C782 0.930 . S
H773 C783 0.930 . S
C774 H768 0.930 . S
C774 C775 1.355 1_655 S
C774 C776 1.415 . S
C775 C774 1.355 1_455 S
C775 C777 1.415 1_455 S
C776 C774 1.415 . S
C776 C781 1.425 . S
C776 C783 1.409 . S
C777 H769 0.908 1_655 S
C777 C775 1.415 1_655 S
C777 C778 1.389 . S
C778 H770 0.930 . S
C778 C777 1.389 . S
C778 C781 1.409 . S
C779 H771 0.930 . S
C779 C780 1.355 . S
C779 C781 1.415 . S
C780 C779 1.355 . S
C780 C782 1.419 . S
C781 C776 1.425 . S
C781 C778 1.409 . S
C781 C779 1.415 . S
C782 H772 0.930 . S
C782 C780 1.419 . S
C782 C783 1.362 . S
C783 H773 0.930 . S
C783 C776 1.409 . S
C783 C782 1.362 . S
H784 C790 0.930 . S
H785 C793 0.930 . S
H786 C794 0.930 . S
H787 C795 0.930 . S
H788 C798 0.930 1_565 S
H789 C799 0.930 . S
C790 H784 0.930 . S
C790 C791 1.355 . S
C790 C792 1.415 . S
C791 C790 1.355 . S
C791 C793 1.419 . S
C792 C790 1.415 . S
C792 C797 1.425 . S
C792 C799 1.409 . S
C793 H785 0.930 . S
C793 C791 1.419 . S
C793 C794 1.362 . S
C794 H786 0.930 . S
C794 C793 1.362 . S
C794 C797 1.409 . S
C795 H787 0.930 . S
C795 C796 1.355 1_545 S
C795 C797 1.415 . S
C796 C795 1.355 1_565 S
C796 C798 1.419 1_565 S
C797 C792 1.425 . S
C797 C794 1.409 . S
C797 C795 1.415 . S
C798 H788 0.930 1_545 S
C798 C796 1.419 1_545 S
C798 C799 1.362 . S
C799 H789 0.930 . S
C799 C792 1.409 . S
C799 C798 1.362 . S
H800 C806 0.930 . S
H801 C809 0.930 1_455 S
H802 C810 0.930 . S
H803 C811 0.930 . S
H804 C814 0.930 . S
H805 C815 0.930 . S
C806 H800 0.930 . S
C806 C807 1.355 1_655 S
C806 C808 1.415 . S
C807 C806 1.355 1_455 S
C807 C809 1.419 1_455 S
C808 C806 1.415 . S
C808 C813 1.425 . S
C808 C815 1.409 . S
C809 H801 0.930 1_655 S
C809 C807 1.419 1_655 S
C809 C810 1.362 . S
C810 H802 0.930 . S
C810 C809 1.362 . S
C810 C813 1.409 . S
C811 H803 0.930 . S
C811 C812 1.355 . S
C811 C813 1.415 . S
C812 C811 1.355 . S
C812 C814 1.419 . S
C813 C808 1.425 . S
C813 C810 1.409 . S
C813 C811 1.415 . S
C814 H804 0.930 . S
C814 C812 1.419 . S
C814 C815 1.362 . S
C815 H805 0.930 . S
C815 C808 1.409 . S
C815 C814 1.362 . S
H816 C822 0.930 . S
H817 C825 0.930 1_545 S
H818 C826 0.930 . S
H819 C827 0.930 . S
H820 C830 0.930 . S
H821 C831 0.930 . S
C822 H816 0.930 . S
C822 C823 1.355 1_565 S
C822 C824 1.415 . S
C823 C822 1.355 1_545 S
C823 C825 1.419 1_545 S
C824 C822 1.415 . S
C824 C829 1.425 . S
C824 C831 1.409 . S
C825 H817 0.930 1_565 S
C825 C823 1.419 1_565 S
C825 C826 1.362 . S
C826 H818 0.930 . S
C826 C825 1.362 . S
C826 C829 1.409 . S
C827 H819 0.930 . S
C827 C828 1.355 . S
C827 C829 1.415 . S
C828 C827 1.355 . S
C828 C830 1.419 . S
C829 C824 1.425 . S
C829 C826 1.409 . S
C829 C827 1.415 . S
C830 H820 0.930 . S
C830 C828 1.419 . S
C830 C831 1.362 . S
C831 H821 0.930 . S
C831 C824 1.409 . S
C831 C830 1.362 . S
H832 C838 0.930 . S
H833 C841 0.930 . S
H834 C842 0.930 . S
H835 C843 0.930 . S
H836 C846 0.930 . S
H837 C847 0.930 . S
C838 H832 0.930 . S
C838 C839 1.355 1_455 S
C838 C840 1.415 . S
C839 C838 1.355 1_655 S
C839 C841 1.419 1_655 S
C840 C838 1.415 . S
C840 C845 1.425 . S
C840 C847 1.409 . S
C841 H833 0.930 . S
C841 C839 1.419 1_455 S
C841 C842 1.362 . S
C842 H834 0.930 . S
C842 C841 1.362 . S
C842 C845 1.409 . S
C843 H835 0.930 . S
C843 C844 1.355 . S
C843 C845 1.415 . S
C844 C843 1.355 . S
C844 C846 1.419 . S
C845 C840 1.425 . S
C845 C842 1.409 . S
C845 C843 1.415 . S
C846 H836 0.930 . S
C846 C844 1.419 . S
C846 C847 1.362 . S
C847 H837 0.930 . S
C847 C840 1.409 . S
C847 C846 1.362 . S
H848 C854 0.930 . S
H849 C857 0.930 . S
H850 C858 0.930 . S
H851 C859 0.930 . S
H852 C862 0.930 . S
H853 C863 0.930 . S
C854 H848 0.930 . S
C854 C855 1.355 . S
C854 C856 1.415 . S
C855 C854 1.355 . S
C855 C857 1.419 . S
C856 C854 1.415 . S
C856 C861 1.425 . S
C856 C863 1.409 . S
C857 H849 0.930 . S
C857 C855 1.419 . S
C857 C858 1.362 . S
C858 H850 0.930 . S
C858 C857 1.362 . S
C858 C861 1.409 . S
C859 H851 0.930 . S
C859 C860 1.355 . S
C859 C861 1.415 . S
C860 C859 1.355 . S
C860 C862 1.419 . S
C861 C856 1.425 . S
C861 C858 1.409 . S
C861 C859 1.415 . S
C862 H852 0.930 . S
C862 C860 1.419 . S
C862 C863 1.362 . S
C863 H853 0.930 . S
C863 C856 1.409 . S
C863 C862 1.362 . S
H864 C870 0.930 . S
H865 C873 0.930 . S
H866 C874 0.930 . S
H867 C875 0.930 . S
H868 C878 0.930 . S
H869 C879 0.930 . S
C870 H864 0.930 . S
C870 C871 1.355 . S
C870 C872 1.415 . S
C871 C870 1.355 . S
C871 C873 1.419 . S
C872 C870 1.415 . S
C872 C877 1.425 . S
C872 C879 1.409 . S
C873 H865 0.930 . S
C873 C871 1.419 . S
C873 C874 1.362 . S
C874 H866 0.930 . S
C874 C873 1.362 . S
C874 C877 1.409 . S
C875 H867 0.930 . S
C875 C876 1.355 . S
C875 C877 1.415 . S
C876 C875 1.355 . S
C876 C878 1.419 . S
C877 C872 1.425 . S
C877 C874 1.409 . S
C877 C875 1.415 . S
C878 H868 0.930 . S
C878 C876 1.419 . S
C878 C879 1.362 . S
C879 H869 0.930 . S
C879 C872 1.409 . S
C879 C878 1.362 . S
H880 C886 0.930 . S
H881 C889 0.930 . S
H882 C890 0.930 . S
H883 C891 0.930 . S
H884 C894 0.930 . S
H885 C895 0.930 . S
C886 H880 0.930 . S
C886 C887 1.355 . S
C886 C888 1.415 . S
C887 C886 1.355 . S
C887 C889 1.419 . S
C888 C886 1.415 . S
C888 C893 1.425 . S
C888 C895 1.409 . S
C889 H881 0.930 . S
C889 C887 1.419 . S
C889 C890 1.362 . S
C890 H882 0.930 . S
C890 C889 1.362 . S
C890 C893 1.409 . S
C891 H883 0.930 . S
C891 C892 1.355 . S
C891 C893 1.415 . S
C892 C891 1.355 . S
C892 C894 1.419 . S
C893 C888 1.425 . S
C893 C890 1.409 . S
C893 C891 1.415 . S
C894 H884 0.930 . S
C894 C892 1.419 . S
C894 C895 1.362 . S
C895 H885 0.930 . S
C895 C888 1.409 . S
C895 C894 1.362 . S
H896 C902 0.930 . S
H897 C905 0.930 . S
H898 C906 0.930 . S
H899 C907 0.930 . S
H900 C910 0.930 . S
H901 C911 0.930 . S
C902 H896 0.930 . S
C902 C903 1.355 . S
C902 C904 1.415 . S
C903 C902 1.355 . S
C903 C905 1.419 . S
C904 C902 1.415 . S
C904 C909 1.425 . S
C904 C911 1.409 . S
C905 H897 0.930 . S
C905 C903 1.419 . S
C905 C906 1.362 . S
C906 H898 0.930 . S
C906 C905 1.362 . S
C906 C909 1.409 . S
C907 H899 0.930 . S
C907 C908 1.355 . S
C907 C909 1.415 . S
C908 C907 1.355 . S
C908 C910 1.419 . S
C909 C904 1.425 . S
C909 C906 1.409 . S
C909 C907 1.415 . S
C910 H900 0.930 . S
C910 C908 1.419 . S
C910 C911 1.362 . S
C911 H901 0.930 . S
C911 C904 1.409 . S
C911 C910 1.362 . S
H912 C918 0.930 . S
H913 C921 0.930 . S
H914 C922 0.930 . S
H915 C923 0.930 . S
H916 C926 0.930 . S
H917 C927 0.930 . S
C918 H912 0.930 . S
C918 C919 1.355 . S
C918 C920 1.415 . S
C919 C918 1.355 . S
C919 C921 1.419 . S
C920 C918 1.415 . S
C920 C925 1.425 . S
C920 C927 1.409 . S
C921 H913 0.930 . S
C921 C919 1.419 . S
C921 C922 1.362 . S
C922 H914 0.930 . S
C922 C921 1.362 . S
C922 C925 1.409 . S
C923 H915 0.930 . S
C923 C924 1.355 . S
C923 C925 1.415 . S
C924 C923 1.355 . S
C924 C926 1.419 . S
C925 C920 1.425 . S
C925 C922 1.409 . S
C925 C923 1.415 . S
C926 H916 0.930 . S
C926 C924 1.419 . S
C926 C927 1.362 . S
C927 H917 0.930 . S
C927 C920 1.409 . S
C927 C926 1.362 . S
H928 C934 0.930 . S
H929 C937 0.930 . S
H930 C938 0.930 . S
H931 C939 0.930 . S
H932 C942 0.930 . S
H933 C943 0.930 . S
C934 H928 0.930 . S
C934 C935 1.355 . S
C934 C936 1.415 . S
C935 C934 1.355 . S
C935 C937 1.419 . S
C936 C934 1.415 . S
C936 C941 1.425 . S
C936 C943 1.409 . S
C937 H929 0.930 . S
C937 C935 1.419 . S
C937 C938 1.362 . S
C938 H930 0.930 . S
C938 C937 1.362 . S
C938 C941 1.409 . S
C939 H931 0.930 . S
C939 C940 1.355 . S
C939 C941 1.415 . S
C940 C939 1.355 . S
C940 C942 1.419 . S
C941 C936 1.425 . S
C941 C938 1.409 . S
C941 C939 1.415 . S
C942 H932 0.930 . S
C942 C940 1.419 . S
C942 C943 1.362 . S
C943 H933 0.930 . S
C943 C936 1.409 . S
C943 C942 1.362 . S
H944 C950 0.930 . S
H945 C953 0.930 . S
H946 C954 0.930 . S
H947 C955 0.930 . S
H948 C958 0.930 . S
H949 C959 0.930 . S
C950 H944 0.930 . S
C950 C951 1.355 . S
C950 C952 1.415 . S
C951 C950 1.355 . S
C951 C953 1.419 . S
C952 C950 1.415 . S
C952 C957 1.425 . S
C952 C959 1.409 . S
C953 H945 0.930 . S
C953 C951 1.419 . S
C953 C954 1.362 . S
C954 H946 0.930 . S
C954 C953 1.362 . S
C954 C957 1.409 . S
C955 H947 0.930 . S
C955 C956 1.355 . S
C955 C957 1.415 . S
C956 C955 1.355 . S
C956 C958 1.419 . S
C957 C952 1.425 . S
C957 C954 1.409 . S
C957 C955 1.415 . S
C958 H948 0.930 . S
C958 C956 1.419 . S
C958 C959 1.362 . S
C959 H949 0.930 . S
C959 C952 1.409 . S
C959 C958 1.362 . S
H960 C966 0.930 . S
H961 C969 0.930 . S
H962 C970 0.930 . S
H963 C971 0.930 . S
H964 C974 0.930 . S
H965 C975 0.930 . S
C966 H960 0.930 . S
C966 C967 1.355 . S
C966 C968 1.415 . S
C967 C966 1.355 . S
C967 C969 1.419 . S
C968 C966 1.415 . S
C968 C973 1.425 . S
C968 C975 1.409 . S
C969 H961 0.930 . S
C969 C967 1.419 . S
C969 C970 1.362 . S
C970 H962 0.930 . S
C970 C969 1.362 . S
C970 C973 1.409 . S
C971 H963 0.930 . S
C971 C972 1.355 . S
C971 C973 1.415 . S
C972 C971 1.355 . S
C972 C974 1.419 . S
C973 C968 1.425 . S
C973 C970 1.409 . S
C973 C971 1.415 . S
C974 H964 0.930 . S
C974 C972 1.419 . S
C974 C975 1.362 . S
C975 H965 0.930 . S
C975 C968 1.409 . S
C975 C974 1.362 . S
H976 C982 0.930 . S
H977 C985 0.930 . S
H978 C986 0.930 . S
H979 C987 0.930 . S
H980 C990 0.930 . S
H981 C991 0.930 . S
C982 H976 0.930 . S
C982 C983 1.355 . S
C982 C984 1.415 . S
C983 C982 1.355 . S
C983 C985 1.419 . S
C984 C982 1.415 . S
C984 C989 1.425 . S
C984 C991 1.409 . S
C985 H977 0.930 . S
C985 C983 1.419 . S
C985 C986 1.362 . S
C986 H978 0.930 . S
C986 C985 1.362 . S
C986 C989 1.409 . S
C987 H979 0.930 . S
C987 C988 1.355 . S
C987 C989 1.415 . S
C988 C987 1.355 . S
C988 C990 1.419 . S
C989 C984 1.425 . S
C989 C986 1.409 . S
C989 C987 1.415 . S
C990 H980 0.930 . S
C990 C988 1.419 . S
C990 C991 1.362 . S
C991 H981 0.930 . S
C991 C984 1.409 . S
C991 C990 1.362 . S
H992 C998 0.930 . S
H993 C1001 0.930 . S
H994 C1002 0.930 . S
H995 C1003 0.930 . S
H996 C1006 0.930 . S
H997 C1007 0.930 . S
C998 H992 0.930 . S
C998 C999 1.355 . S
C998 C1000 1.415 . S
C999 C998 1.355 . S
C999 C1001 1.419 . S
C1000 C998 1.415 . S
C1000 C1005 1.425 . S
C1000 C1007 1.409 . S
C1001 H993 0.930 . S
C1001 C999 1.419 . S
C1001 C1002 1.362 . S
C1002 H994 0.930 . S
C1002 C1001 1.362 . S
C1002 C1005 1.409 . S
C1003 H995 0.930 . S
C1003 C1004 1.355 . S
C1003 C1005 1.415 . S
C1004 C1003 1.355 . S
C1004 C1006 1.419 . S
C1005 C1000 1.425 . S
C1005 C1002 1.409 . S
C1005 C1003 1.415 . S
C1006 H996 0.930 . S
C1006 C1004 1.419 . S
C1006 C1007 1.362 . S
C1007 H997 0.930 . S
C1007 C1000 1.409 . S
C1007 C1006 1.362 . S
H1008 C1014 0.930 . S
H1009 C1017 0.930 . S
H1010 C1018 0.930 . S
H1011 C1019 0.930 . S
H1012 C1022 0.930 . S
H1013 C1023 0.930 . S
C1014 H1008 0.930 . S
C1014 C1015 1.355 . S
C1014 C1016 1.415 . S
C1015 C1014 1.355 . S
C1015 C1017 1.419 . S
C1016 C1014 1.415 . S
C1016 C1021 1.425 . S
C1016 C1023 1.409 . S
C1017 H1009 0.930 . S
C1017 C1015 1.419 . S
C1017 C1018 1.362 . S
C1018 H1010 0.930 . S
C1018 C1017 1.362 . S
C1018 C1021 1.409 . S
C1019 H1011 0.930 . S
C1019 C1020 1.355 . S
C1019 C1021 1.415 . S
C1020 C1019 1.355 . S
C1020 C1022 1.419 . S
C1021 C1016 1.425 . S
C1021 C1018 1.409 . S
C1021 C1019 1.415 . S
C1022 H1012 0.930 . S
C1022 C1020 1.419 . S
C1022 C1023 1.362 . S
C1023 H1013 0.930 . S
C1023 C1016 1.409 . S
C1023 C1022 1.362 . S
H1024 C1030 0.930 . S
H1025 C1033 0.930 . S
H1026 C1034 0.930 . S
H1027 C1035 0.930 . S
H1028 C1038 0.930 . S
H1029 C1039 0.930 . S
C1030 H1024 0.930 . S
C1030 C1031 1.355 . S
C1030 C1032 1.415 . S
C1031 C1030 1.355 . S
C1031 C1033 1.419 . S
C1032 C1030 1.415 . S
C1032 C1037 1.425 . S
C1032 C1039 1.409 . S
C1033 H1025 0.930 . S
C1033 C1031 1.419 . S
C1033 C1034 1.362 . S
C1034 H1026 0.930 . S
C1034 C1033 1.362 . S
C1034 C1037 1.409 . S
C1035 H1027 0.930 . S
C1035 C1036 1.355 . S
C1035 C1037 1.415 . S
C1036 C1035 1.355 . S
C1036 C1038 1.419 . S
C1037 C1032 1.425 . S
C1037 C1034 1.409 . S
C1037 C1035 1.415 . S
C1038 H1028 0.930 . S
C1038 C1036 1.419 . S
C1038 C1039 1.362 . S
C1039 H1029 0.930 . S
C1039 C1032 1.409 . S
C1039 C1038 1.362 . S
H1040 C1046 0.930 . S
H1041 C1049 0.930 . S
H1042 C1050 0.930 . S
H1043 C1051 0.930 . S
H1044 C1054 0.930 . S
H1045 C1055 0.930 . S
C1046 H1040 0.930 . S
C1046 C1047 1.355 . S
C1046 C1048 1.415 . S
C1047 C1046 1.355 . S
C1047 C1049 1.419 . S
C1048 C1046 1.415 . S
C1048 C1053 1.425 . S
C1048 C1055 1.409 . S
C1049 H1041 0.930 . S
C1049 C1047 1.419 . S
C1049 C1050 1.362 . S
C1050 H1042 0.930 . S
C1050 C1049 1.362 . S
C1050 C1053 1.409 . S
C1051 H1043 0.930 . S
C1051 C1052 1.355 . S
C1051 C1053 1.415 . S
C1052 C1051 1.355 . S
C1052 C1054 1.419 . S
C1053 C1048 1.425 . S
C1053 C1050 1.409 . S
C1053 C1051 1.415 . S
C1054 H1044 0.930 . S
C1054 C1052 1.419 . S
C1054 C1055 1.362 . S
C1055 H1045 0.930 . S
C1055 C1048 1.409 . S
C1055 C1054 1.362 . S
H1056 C1062 0.930 . S
H1057 C1065 0.930 . S
H1058 C1066 0.930 . S
H1059 C1067 0.930 . S
H1060 C1070 0.930 . S
H1061 C1071 0.930 . S
C1062 H1056 0.930 . S
C1062 C1063 1.355 . S
C1062 C1064 1.415 . S
C1063 C1062 1.355 . S
C1063 C1065 1.419 . S
C1064 C1062 1.415 . S
C1064 C1069 1.425 . S
C1064 C1071 1.409 . S
C1065 H1057 0.930 . S
C1065 C1063 1.419 . S
C1065 C1066 1.362 . S
C1066 H1058 0.930 . S
C1066 C1065 1.362 . S
C1066 C1069 1.409 . S
C1067 H1059 0.930 . S
C1067 C1068 1.355 . S
C1067 C1069 1.415 . S
C1068 C1067 1.355 . S
C1068 C1070 1.419 . S
C1069 C1064 1.425 . S
C1069 C1066 1.409 . S
C1069 C1067 1.415 . S
C1070 H1060 0.930 . S
C1070 C1068 1.419 . S
C1070 C1071 1.362 . S
C1071 H1061 0.930 . S
C1071 C1064 1.409 . S
C1071 C1070 1.362 . S
H1072 C1078 0.930 . S
H1073 C1081 0.930 . S
H1074 C1082 0.930 . S
H1075 C1083 0.930 . S
H1076 C1086 0.930 . S
H1077 C1087 0.930 . S
C1078 H1072 0.930 . S
C1078 C1079 1.355 . S
C1078 C1080 1.415 . S
C1079 C1078 1.355 . S
C1079 C1081 1.419 . S
C1080 C1078 1.415 . S
C1080 C1085 1.425 . S
C1080 C1087 1.409 . S
C1081 H1073 0.930 . S
C1081 C1079 1.419 . S
C1081 C1082 1.362 . S
C1082 H1074 0.930 . S
C1082 C1081 1.362 . S
C1082 C1085 1.409 . S
C1083 H1075 0.930 . S
C1083 C1084 1.355 . S
C1083 C1085 1.415 . S
C1084 C1083 1.355 . S
C1084 C1086 1.419 . S
C1085 C1080 1.425 . S
C1085 C1082 1.409 . S
C1085 C1083 1.415 . S
C1086 H1076 0.930 . S
C1086 C1084 1.419 . S
C1086 C1087 1.362 . S
C1087 H1077 0.930 . S
C1087 C1080 1.409 . S
C1087 C1086 1.362 . S
H1088 C1094 0.930 . S
H1089 C1097 0.930 . S
H1090 C1098 0.930 . S
H1091 C1099 0.930 . S
H1092 C1102 0.930 . S
H1093 C1103 0.930 . S
C1094 H1088 0.930 . S
C1094 C1095 1.355 . S
C1094 C1096 1.415 . S
C1095 C1094 1.355 . S
C1095 C1097 1.419 . S
C1096 C1094 1.415 . S
C1096 C1101 1.425 . S
C1096 C1103 1.409 . S
C1097 H1089 0.930 . S
C1097 C1095 1.419 . S
C1097 C1098 1.362 . S
C1098 H1090 0.930 . S
C1098 C1097 1.362 . S
C1098 C1101 1.409 . S
C1099 H1091 0.930 . S
C1099 C1100 1.355 . S
C1099 C1101 1.415 . S
C1100 C1099 1.355 . S
C1100 C1102 1.419 . S
C1101 C1096 1.425 . S
C1101 C1098 1.409 . S
C1101 C1099 1.415 . S
C1102 H1092 0.930 . S
C1102 C1100 1.419 . S
C1102 C1103 1.362 . S
C1103 H1093 0.930 . S
C1103 C1096 1.409 . S
C1103 C1102 1.362 . S
H1104 C1110 0.930 . S
H1105 C1113 0.930 . S
H1106 C1114 0.930 . S
H1107 C1115 0.930 . S
H1108 C1118 0.930 . S
H1109 C1119 0.930 . S
C1110 H1104 0.930 . S
C1110 C1111 1.355 . S
C1110 C1112 1.415 . S
C1111 C1110 1.355 . S
C1111 C1113 1.419 . S
C1112 C1110 1.415 . S
C1112 C1117 1.425 . S
C1112 C1119 1.409 . S
C1113 H1105 0.930 . S
C1113 C1111 1.419 . S
C1113 C1114 1.362 . S
C1114 H1106 0.930 . S
C1114 C1113 1.362 . S
C1114 C1117 1.409 . S
C1115 H1107 0.930 . S
C1115 C1116 1.355 . S
C1115 C1117 1.415 . S
C1116 C1115 1.355 . S
C1116 C1118 1.419 . S
C1117 C1112 1.425 . S
C1117 C1114 1.409 . S
C1117 C1115 1.415 . S
C1118 H1108 0.930 . S
C1118 C1116 1.419 . S
C1118 C1119 1.362 . S
C1119 H1109 0.930 . S
C1119 C1112 1.409 . S
C1119 C1118 1.362 . S
H1120 C1126 0.930 . S
H1121 C1129 0.930 . S
H1122 C1130 0.930 . S
H1123 C1131 0.930 . S
H1124 C1134 0.930 . S
H1125 C1135 0.930 . S
C1126 H1120 0.930 . S
C1126 C1127 1.355 . S
C1126 C1128 1.415 . S
C1127 C1126 1.355 . S
C1127 C1129 1.419 . S
C1128 C1126 1.415 . S
C1128 C1133 1.425 . S
C1128 C1135 1.409 . S
C1129 H1121 0.930 . S
C1129 C1127 1.419 . S
C1129 C1130 1.362 . S
C1130 H1122 0.930 . S
C1130 C1129 1.362 . S
C1130 C1133 1.409 . S
C1131 H1123 0.930 . S
C1131 C1132 1.355 . S
C1131 C1133 1.415 . S
C1132 C1131 1.355 . S
C1132 C1134 1.419 . S
C1133 C1128 1.425 . S
C1133 C1130 1.409 . S
C1133 C1131 1.415 . S
C1134 H1124 0.930 . S
C1134 C1132 1.419 . S
C1134 C1135 1.362 . S
C1135 H1125 0.930 . S
C1135 C1128 1.409 . S
C1135 C1134 1.362 . S
H1136 C1142 0.930 . S
H1137 C1145 0.930 . S
H1138 C1146 0.930 . S
H1139 C1147 0.930 . S
H1140 C1150 0.930 . S
H1141 C1151 0.930 . S
C1142 H1136 0.930 . S
C1142 C1143 1.355 . S
C1142 C1144 1.415 . S
C1143 C1142 1.355 . S
C1143 C1145 1.419 . S
C1144 C1142 1.415 . S
C1144 C1149 1.425 . S
C1144 C1151 1.409 . S
C1145 H1137 0.930 . S
C1145 C1143 1.419 . S
C1145 C1146 1.362 . S
C1146 H1138 0.930 . S
C1146 C1145 1.362 . S
C1146 C1149 1.409 . S
C1147 H1139 0.930 . S
C1147 C1148 1.355 . S
C1147 C1149 1.415 . S
C1148 C1147 1.355 . S
C1148 C1150 1.419 . S
C1149 C1144 1.425 . S
C1149 C1146 1.409 . S
C1149 C1147 1.415 . S
C1150 H1140 0.930 . S
C1150 C1148 1.419 . S
C1150 C1151 1.362 . S
C1151 H1141 0.930 . S
C1151 C1144 1.409 . S
C1151 C1150 1.362 . S
H1152 C1158 0.930 . S
H1153 C1161 0.930 . S
H1154 C1162 0.930 . S
H1155 C1163 0.930 . S
H1156 C1166 0.930 . S
H1157 C1167 0.930 . S
C1158 H1152 0.930 . S
C1158 C1159 1.355 . S
C1158 C1160 1.415 . S
C1159 C1158 1.355 . S
C1159 C1161 1.419 . S
C1160 C1158 1.415 . S
C1160 C1165 1.425 . S
C1160 C1167 1.409 . S
C1161 H1153 0.930 . S
C1161 C1159 1.419 . S
C1161 C1162 1.362 . S
C1162 H1154 0.930 . S
C1162 C1161 1.362 . S
C1162 C1165 1.409 . S
C1163 H1155 0.930 . S
C1163 C1164 1.355 . S
C1163 C1165 1.415 . S
C1164 C1163 1.355 . S
C1164 C1166 1.419 . S
C1165 C1160 1.425 . S
C1165 C1162 1.409 . S
C1165 C1163 1.415 . S
C1166 H1156 0.930 . S
C1166 C1164 1.419 . S
C1166 C1167 1.362 . S
C1167 H1157 0.930 . S
C1167 C1160 1.409 . S
C1167 C1166 1.362 . S
H1168 C1174 0.930 . S
H1169 C1177 0.930 . S
H1170 C1178 0.930 . S
H1171 C1179 0.930 . S
H1172 C1182 0.930 . S
H1173 C1183 0.930 . S
C1174 H1168 0.930 . S
C1174 C1175 1.355 . S
C1174 C1176 1.415 . S
C1175 C1174 1.355 . S
C1175 C1177 1.419 . S
C1176 C1174 1.415 . S
C1176 C1181 1.425 . S
C1176 C1183 1.409 . S
C1177 H1169 0.930 . S
C1177 C1175 1.419 . S
C1177 C1178 1.362 . S
C1178 H1170 0.930 . S
C1178 C1177 1.362 . S
C1178 C1181 1.409 . S
C1179 H1171 0.930 . S
C1179 C1180 1.355 . S
C1179 C1181 1.415 . S
C1180 C1179 1.355 . S
C1180 C1182 1.419 . S
C1181 C1176 1.425 . S
C1181 C1178 1.409 . S
C1181 C1179 1.415 . S
C1182 H1172 0.930 . S
C1182 C1180 1.419 . S
C1182 C1183 1.362 . S
C1183 H1173 0.930 . S
C1183 C1176 1.409 . S
C1183 C1182 1.362 . S
H1184 C1190 0.930 . S
H1185 C1193 0.930 . S
H1186 C1194 0.930 . S
H1187 C1195 0.930 . S
H1188 C1198 0.930 . S
H1189 C1199 0.930 . S
C1190 H1184 0.930 . S
C1190 C1191 1.355 . S
C1190 C1192 1.415 . S
C1191 C1190 1.355 . S
C1191 C1193 1.419 . S
C1192 C1190 1.415 . S
C1192 C1197 1.425 . S
C1192 C1199 1.409 . S
C1193 H1185 0.930 . S
C1193 C1191 1.419 . S
C1193 C1194 1.362 . S
C1194 H1186 0.930 . S
C1194 C1193 1.362 . S
C1194 C1197 1.409 . S
C1195 H1187 0.930 . S
C1195 C1196 1.355 . S
C1195 C1197 1.415 . S
C1196 C1195 1.355 . S
C1196 C1198 1.419 . S
C1197 C1192 1.425 . S
C1197 C1194 1.409 . S
C1197 C1195 1.415 . S
C1198 H1188 0.930 . S
C1198 C1196 1.419 . S
C1198 C1199 1.362 . S
C1199 H1189 0.930 . S
C1199 C1192 1.409 . S
C1199 C1198 1.362 . S
H1200 C1206 0.930 . S
H1201 C1209 0.930 . S
H1202 C1210 0.930 . S
H1203 C1211 0.930 . S
H1204 C1214 0.930 . S
H1205 C1215 0.930 . S
C1206 H1200 0.930 . S
C1206 C1207 1.355 . S
C1206 C1208 1.415 . S
C1207 C1206 1.355 . S
C1207 C1209 1.419 . S
C1208 C1206 1.415 . S
C1208 C1213 1.425 . S
C1208 C1215 1.409 . S
C1209 H1201 0.930 . S
C1209 C1207 1.419 . S
C1209 C1210 1.362 . S
C1210 H1202 0.930 . S
C1210 C1209 1.362 . S
C1210 C1213 1.409 . S
C1211 H1203 0.930 . S
C1211 C1212 1.355 . S
C1211 C1213 1.415 . S
C1212 C1211 1.355 . S
C1212 C1214 1.419 . S
C1213 C1208 1.425 . S
C1213 C1210 1.409 . S
C1213 C1211 1.415 . S
C1214 H1204 0.930 . S
C1214 C1212 1.419 . S
C1214 C1215 1.362 . S
C1215 H1205 0.930 . S
C1215 C1208 1.409 . S
C1215 C1214 1.362 . S
H1216 C1222 0.930 . S
H1217 C1225 0.930 . S
H1218 C1226 0.930 . S
H1219 C1227 0.930 . S
H1220 C1230 0.930 . S
H1221 C1231 0.930 . S
C1222 H1216 0.930 . S
C1222 C1223 1.355 . S
C1222 C1224 1.415 . S
C1223 C1222 1.355 . S
C1223 C1225 1.419 . S
C1224 C1222 1.415 . S
C1224 C1229 1.425 . S
C1224 C1231 1.409 . S
C1225 H1217 0.930 . S
C1225 C1223 1.419 . S
C1225 C1226 1.362 . S
C1226 H1218 0.930 . S
C1226 C1225 1.362 . S
C1226 C1229 1.409 . S
C1227 H1219 0.930 . S
C1227 C1228 1.355 . S
C1227 C1229 1.415 . S
C1228 C1227 1.355 . S
C1228 C1230 1.419 . S
C1229 C1224 1.425 . S
C1229 C1226 1.409 . S
C1229 C1227 1.415 . S
C1230 H1220 0.930 . S
C1230 C1228 1.419 . S
C1230 C1231 1.362 . S
C1231 H1221 0.930 . S
C1231 C1224 1.409 . S
C1231 C1230 1.362 . S
H1232 C1238 0.930 . S
H1233 C1241 0.930 . S
H1234 C1242 0.930 . S
H1235 C1243 0.930 . S
H1236 C1246 0.930 . S
H1237 C1247 0.930 . S
C1238 H1232 0.930 . S
C1238 C1239 1.355 . S
C1238 C1240 1.415 . S
C1239 C1238 1.355 . S
C1239 C1241 1.419 1_455 S
C1240 C1238 1.415 . S
C1240 C1245 1.425 1_455 S
C1240 C1247 1.409 . S
C1241 H1233 0.930 . S
C1241 C1239 1.419 1_655 S
C1241 C1242 1.362 . S
C1242 H1234 0.930 . S
C1242 C1241 1.362 . S
C1242 C1245 1.409 . S
C1243 H1235 0.930 . S
C1243 C1244 1.355 . S
C1243 C1245 1.415 . S
C1244 C1243 1.355 . S
C1244 C1246 1.419 1_655 S
C1245 C1240 1.425 1_655 S
C1245 C1242 1.409 . S
C1245 C1243 1.415 . S
C1246 H1236 0.930 . S
C1246 C1244 1.419 1_455 S
C1246 C1247 1.362 . S
C1247 H1237 0.930 . S
C1247 C1240 1.409 . S
C1247 C1246 1.362 . S
H1248 C1254 0.930 . S
H1249 C1257 0.930 . S
H1250 C1258 0.930 . S
H1251 C1259 0.930 . S
H1252 C1262 0.930 . S
H1253 C1263 0.930 . S
C1254 H1248 0.930 . S
C1254 C1255 1.355 1_545 S
C1254 C1256 1.415 . S
C1255 C1254 1.355 1_565 S
C1255 C1257 1.419 . S
C1256 C1254 1.415 . S
C1256 C1261 1.425 1_545 S
C1256 C1263 1.409 . S
C1257 H1249 0.930 . S
C1257 C1255 1.419 . S
C1257 C1258 1.362 . S
C1258 H1250 0.930 . S
C1258 C1257 1.362 . S
C1258 C1261 1.409 . S
C1259 H1251 0.930 . S
C1259 C1260 1.355 1_565 S
C1259 C1261 1.415 . S
C1260 C1259 1.355 1_545 S
C1260 C1262 1.419 . S
C1261 C1256 1.425 1_565 S
C1261 C1258 1.409 . S
C1261 C1259 1.415 . S
C1262 H1252 0.930 . S
C1262 C1260 1.419 . S
C1262 C1263 1.362 . S
C1263 H1253 0.930 . S
C1263 C1256 1.409 . S
C1263 C1262 1.362 . S
H1264 C1270 0.930 . S
H1265 C1273 0.930 . S
H1266 C1274 0.930 . S
H1267 C1275 0.930 . S
H1268 C1278 0.930 . S
H1269 C1279 0.930 . S
C1270 H1264 0.930 . S
C1270 C1271 1.355 . S
C1270 C1272 1.415 . S
C1271 C1270 1.355 . S
C1271 C1273 1.419 1_455 S
C1272 C1270 1.415 . S
C1272 C1277 1.425 1_455 S
C1272 C1279 1.409 . S
C1273 H1265 0.930 . S
C1273 C1271 1.419 1_655 S
C1273 C1274 1.362 . S
C1274 H1266 0.930 . S
C1274 C1273 1.362 . S
C1274 C1277 1.409 . S
C1275 H1267 0.930 . S
C1275 C1276 1.355 . S
C1275 C1277 1.415 . S
C1276 C1275 1.355 . S
C1276 C1278 1.419 1_655 S
C1277 C1272 1.425 1_655 S
C1277 C1274 1.409 . S
C1277 C1275 1.415 . S
C1278 H1268 0.930 . S
C1278 C1276 1.419 1_455 S
C1278 C1279 1.362 . S
C1279 H1269 0.930 . S
C1279 C1272 1.409 . S
C1279 C1278 1.362 . S
H1280 C1286 0.930 . S
H1281 C1289 0.930 . S
H1282 C1290 0.930 . S
H1283 C1291 0.930 . S
H1284 C1294 0.930 . S
H1285 C1295 0.930 . S
C1286 H1280 0.930 . S
C1286 C1287 1.355 1_545 S
C1286 C1288 1.415 . S
C1287 C1286 1.355 1_565 S
C1287 C1289 1.419 . S
C1288 C1286 1.415 . S
C1288 C1293 1.425 1_545 S
C1288 C1295 1.409 . S
C1289 H1281 0.930 . S
C1289 C1287 1.419 . S
C1289 C1290 1.362 . S
C1290 H1282 0.930 . S
C1290 C1289 1.362 . S
C1290 C1293 1.409 . S
C1291 H1283 0.930 . S
C1291 C1292 1.355 1_565 S
C1291 C1293 1.415 . S
C1292 C1291 1.355 1_545 S
C1292 C1294 1.419 . S
C1293 C1288 1.425 1_565 S
C1293 C1290 1.409 . S
C1293 C1291 1.415 . S
C1294 H1284 0.930 . S
C1294 C1292 1.419 . S
C1294 C1295 1.362 . S
C1295 H1285 0.930 . S
C1295 C1288 1.409 . S
C1295 C1294 1.362 . S
H1296 C1302 0.930 . S
H1297 C1305 0.930 . S
H1298 C1306 0.930 1_655 S
H1299 C1307 0.930 . S
H1300 C1310 0.930 . S
H1301 C1311 0.930 1_455 S
C1302 H1296 0.930 . S
C1302 C1303 1.355 . S
C1302 C1304 1.415 . S
C1303 C1302 1.355 . S
C1303 C1305 1.419 . S
C1304 C1302 1.415 . S
C1304 C1309 1.425 1_455 S
C1304 C1311 1.409 1_455 S
C1305 H1297 0.930 . S
C1305 C1303 1.419 . S
C1305 C1306 1.362 . S
C1306 H1298 0.930 1_455 S
C1306 C1305 1.362 . S
C1306 C1309 1.409 1_455 S
C1307 H1299 0.930 . S
C1307 C1308 1.355 . S
C1307 C1309 1.415 . S
C1308 C1307 1.355 . S
C1308 C1310 1.419 . S
C1309 C1304 1.425 1_655 S
C1309 C1306 1.409 1_655 S
C1309 C1307 1.415 . S
C1310 H1300 0.930 . S
C1310 C1308 1.419 . S
C1310 C1311 1.362 . S
C1311 H1301 0.930 1_655 S
C1311 C1304 1.409 1_655 S
C1311 C1310 1.362 . S
H1312 C1318 0.930 . S
H1313 C1321 0.930 . S
H1314 C1322 0.930 . S
H1315 C1323 0.930 . S
H1316 C1326 0.930 . S
H1317 C1327 0.930 . S
C1318 H1312 0.930 . S
C1318 C1319 1.355 . S
C1318 C1320 1.415 . S
C1319 C1318 1.355 . S
C1319 C1321 1.419 . S
C1320 C1318 1.415 . S
C1320 C1325 1.425 1_545 S
C1320 C1327 1.409 1_545 S
C1321 H1313 0.930 . S
C1321 C1319 1.419 . S
C1321 C1322 1.362 . S
C1322 H1314 0.930 . S
C1322 C1321 1.362 . S
C1322 C1325 1.409 1_545 S
C1323 H1315 0.930 . S
C1323 C1324 1.355 . S
C1323 C1325 1.415 . S
C1324 C1323 1.355 . S
C1324 C1326 1.419 . S
C1325 C1320 1.425 1_565 S
C1325 C1322 1.409 1_565 S
C1325 C1323 1.415 . S
C1326 H1316 0.930 . S
C1326 C1324 1.419 . S
C1326 C1327 1.362 . S
C1327 H1317 0.930 . S
C1327 C1320 1.409 1_565 S
C1327 C1326 1.362 . S
H1328 C1334 0.930 . S
H1329 C1337 0.930 . S
H1330 C1338 0.930 . S
H1331 C1339 0.930 . S
H1332 C1342 0.930 . S
H1333 C1343 0.930 . S
C1334 H1328 0.930 . S
C1334 C1335 1.355 . S
C1334 C1336 1.415 . S
C1335 C1334 1.355 . S
C1335 C1337 1.419 . S
C1336 C1334 1.415 . S
C1336 C1341 1.425 1_455 S
C1336 C1343 1.409 1_455 S
C1337 H1329 0.930 . S
C1337 C1335 1.419 . S
C1337 C1338 1.362 . S
C1338 H1330 0.930 . S
C1338 C1337 1.362 . S
C1338 C1341 1.409 1_455 S
C1339 H1331 0.930 . S
C1339 C1340 1.355 . S
C1339 C1341 1.415 . S
C1340 C1339 1.355 . S
C1340 C1342 1.419 . S
C1341 C1336 1.425 1_655 S
C1341 C1338 1.409 1_655 S
C1341 C1339 1.415 . S
C1342 H1332 0.930 . S
C1342 C1340 1.419 . S
C1342 C1343 1.362 . S
C1343 H1333 0.930 . S
C1343 C1336 1.409 1_655 S
C1343 C1342 1.362 . S
H1344 C1350 0.930 . S
H1345 C1353 0.930 . S
H1346 C1354 0.930 . S
H1347 C1355 0.930 . S
H1348 C1358 0.930 . S
H1349 C1359 0.930 . S
C1350 H1344 0.930 . S
C1350 C1351 1.355 . S
C1350 C1352 1.415 . S
C1351 C1350 1.355 . S
C1351 C1353 1.419 . S
C1352 C1350 1.415 . S
C1352 C1357 1.425 1_565 S
C1352 C1359 1.409 1_565 S
C1353 H1345 0.930 . S
C1353 C1351 1.419 . S
C1353 C1354 1.362 . S
C1354 H1346 0.930 . S
C1354 C1353 1.362 . S
C1354 C1357 1.409 1_565 S
C1355 H1347 0.930 . S
C1355 C1356 1.355 . S
C1355 C1357 1.415 . S
C1356 C1355 1.355 . S
C1356 C1358 1.419 . S
C1357 C1352 1.425 1_545 S
C1357 C1354 1.409 1_545 S
C1357 C1355 1.415 . S
C1358 H1348 0.930 . S
C1358 C1356 1.419 . S
C1358 C1359 1.362 . S
C1359 H1349 0.930 . S
C1359 C1352 1.409 1_545 S
C1359 C1358 1.362 . S
C471 C10 1.633 . S
C476 C300 1.622 . S
C487 C39 1.635 . S
C492 C329 1.620 . S
C503 C242 1.687 . S
C508 C68 1.699 . S
C519 C271 1.661 . S
C524 C97 1.708 . S
C535 C126 1.705 . S
C540 C416 1.675 . S
C551 C445 1.651 . S
C556 C155 1.708 . S
C567 C358 1.633 . S
C572 C184 1.622 . S
C583 C213 1.656 . S
C588 C387 1.709 . S
C599 C100 1.888 1_545 S
C604 C3 2.001 . S
C615 C13 1.926 1_655 S
C620 C32 2.022 . S
C631 C61 2.019 . S
C636 C42 1.891 1_565 S
C647 C90 1.977 . S
C652 C71 1.928 1_455 S
C663 C158 1.889 1_565 S
C668 C119 1.998 . S
C679 C148 1.995 . S
C684 C187 1.959 1_455 S
C695 C216 1.921 1_545 S
C700 C177 1.978 . S
C711 C129 1.934 1_655 S
C716 C206 1.977 . S
C727 C253 1.588 . S
C732 C327 1.576 . S
C743 C240 1.508 . S
C748 C282 1.530 . S
C759 C311 1.571 . S
C764 C269 1.554 . S
C775 C298 1.514 . S
C780 C340 1.533 . S
C791 C369 1.537 . S
C796 C385 1.515 . S
C807 C414 1.526 . S
C812 C398 1.547 . S
C823 C443 1.573 . S
C828 C427 1.584 . S
C839 C356 1.556 . S
C844 C456 1.572 . S
C855 C380 1.982 . S
C860 C361 1.909 . S
C871 C409 1.982 . S
C876 C390 1.910 . S
C887 C419 1.894 . S
C892 C438 2.021 . S
C903 C448 1.913 . S
C908 C351 1.981 . S
C919 C322 1.980 . S
C924 C245 1.915 . S
C935 C274 1.958 . S
C940 C235 1.996 . S
C951 C303 1.909 . S
C956 C264 1.982 . S
C967 C332 1.955 . S
C972 C293 1.984 . S
C983 C166 1.555 . S
C988 C124 1.536 . S
C999 C153 1.511 . S
C1004 C195 1.532 . S
C1015 C224 1.584 . S
C1020 C182 1.573 . S
C1031 C211 1.515 . S
C1036 C137 1.535 . S
C1047 C108 1.534 . S
C1052 C8 1.515 . S
C1063 C37 1.576 . S
C1068 C21 1.588 . S
C1079 C66 1.522 . S
C1084 C50 1.543 . S
C1095 C95 1.521 . S
C1100 C79 1.539 . S
C1111 C150 1.410 . S
C1116 C5 1.431 . S
C1127 C179 1.442 . S
C1132 C34 1.412 . S
C1143 C208 1.468 . S
C1148 C63 1.436 . S
C1159 C121 1.427 . S
C1164 C92 1.411 . S
C1175 C382 1.415 . S
C1180 C237 1.448 . S
C1191 C266 1.443 . S
C1196 C411 1.471 . S
C1207 C295 1.418 . S
C1212 C440 1.454 . S
C1223 C324 1.426 . S
C1228 C353 1.462 . S
C1239 C15 1.690 . S
C1244 C73 1.717 . S
C1255 C102 1.663 . S
C1260 C44 1.653 . S
C1271 C131 1.717 . S
C1276 C189 1.681 . S
C1287 C218 1.663 . S
C1292 C160 1.653 . S
C1303 C305 1.663 . S
C1308 C247 1.653 . S
C1319 C334 1.702 . S
C1324 C276 1.654 . S
C1335 C421 1.702 . S
C1340 C363 1.712 . S
C1351 C392 1.702 . S
C1356 C450 1.654 . S
