# Generated by pormake.
# Topology zfo, (5)-cn, num edge types: 1
# Building blocks:
#     Node 0, Type 0, BuildingBlock: XOMCOT_clean_sbu_1, # of connection points: 5
#     Node 1, Type 0, BuildingBlock: XOMCOT_clean_sbu_1, # of connection points: 5
#     Node 2, Type 0, BuildingBlock: XOMCOT_clean_sbu_1, # of connection points: 5
#     Node 3, Type 0, BuildingBlock: XOMCOT_clean_sbu_1, # of connection points: 5
#     Node 4, Type 0, BuildingBlock: XOMCOT_clean_sbu_1, # of connection points: 5
#     Node 5, Type 0, BuildingBlock: XOMCOT_clean_sbu_1, # of connection points: 5
#     Node 6, Type 0, BuildingBlock: XOMCOT_clean_sbu_1, # of connection points: 5
#     Node 7, Type 0, BuildingBlock: XOMCOT_clean_sbu_1, # of connection points: 5
#     Node 8, Type 0, BuildingBlock: XOMCOT_clean_sbu_1, # of connection points: 5
#     Node 9, Type 0, BuildingBlock: XOMCOT_clean_sbu_1, # of connection points: 5
#     Node 10, Type 0, BuildingBlock: XOMCOT_clean_sbu_1, # of connection points: 5
#     Node 11, Type 0, BuildingBlock: XOMCOT_clean_sbu_1, # of connection points: 5
#     Node 12, Type 0, BuildingBlock: XOMCOT_clean_sbu_1, # of connection points: 5
#     Node 13, Type 0, BuildingBlock: XOMCOT_clean_sbu_1, # of connection points: 5
#     Node 14, Type 0, BuildingBlock: XOMCOT_clean_sbu_1, # of connection points: 5
#     Node 15, Type 0, BuildingBlock: XOMCOT_clean_sbu_1, # of connection points: 5
#     Edge 16, Type (0, 0), None
#     Edge 17, Type (0, 0), None
#     Edge 18, Type (0, 0), None
#     Edge 19, Type (0, 0), None
#     Edge 20, Type (0, 0), None
#     Edge 21, Type (0, 0), None
#     Edge 22, Type (0, 0), None
#     Edge 23, Type (0, 0), None
#     Edge 24, Type (0, 0), None
#     Edge 25, Type (0, 0), None
#     Edge 26, Type (0, 0), None
#     Edge 27, Type (0, 0), None
#     Edge 28, Type (0, 0), None
#     Edge 29, Type (0, 0), None
#     Edge 30, Type (0, 0), None
#     Edge 31, Type (0, 0), None
#     Edge 32, Type (0, 0), None
#     Edge 33, Type (0, 0), None
#     Edge 34, Type (0, 0), None
#     Edge 35, Type (0, 0), None
#     Edge 36, Type (0, 0), None
#     Edge 37, Type (0, 0), None
#     Edge 38, Type (0, 0), None
#     Edge 39, Type (0, 0), None
#     Edge 40, Type (0, 0), None
#     Edge 41, Type (0, 0), None
#     Edge 42, Type (0, 0), None
#     Edge 43, Type (0, 0), None
#     Edge 44, Type (0, 0), None
#     Edge 45, Type (0, 0), None
#     Edge 46, Type (0, 0), None
#     Edge 47, Type (0, 0), None
#     Edge 48, Type (0, 0), None
#     Edge 49, Type (0, 0), None
#     Edge 50, Type (0, 0), None
#     Edge 51, Type (0, 0), None
#     Edge 52, Type (0, 0), None
#     Edge 53, Type (0, 0), None
#     Edge 54, Type (0, 0), None
#     Edge 55, Type (0, 0), None
# Relax obj value: 0.190
# Max RMSD: 0.154
# Mean RMSD: 0.154
data_MOF--net-zfo--node1-XOMCOT_clean_sbu_1--edge1-none
_symmetry_space_group_name_H-M    P1
_symmetry_Int_Tables_number       1
_symmetry_cell_setting            triclinic
loop_
_symmetry_equiv_pos_as_xyz
'x, y, z'
_cell_length_a     18.960024
_cell_length_b     18.959952
_cell_length_c     22.98584
_cell_angle_alpha  90.000366
_cell_angle_beta   89.999882
_cell_angle_gamma 89.999861
loop_
_atom_site_label
_atom_site_type_symbol
_atom_site_fract_x
_atom_site_fract_y
_atom_site_fract_z
_atom_type_partial_charge
C0 C 0.94015 0.24907 0.25011 0.0
C1 C 0.86801 0.24289 0.24522 0.0
N2 N 0.84865 0.27056 0.19402 0.0
N3 N 0.96683 0.28141 0.20243 0.0
C4 C 0.909 0.29436 0.16903 0.0
H5 H 0.97174 0.22489 0.28381 0.0
Co6 Co 0.06402 0.27264 0.18178 0.0
C7 C 0.03421 0.33241 0.0532 0.0
O8 O 0.01265 0.39758 0.04575 0.0
N9 N 0.16177 0.25952 0.16052 0.0
C10 C 0.2565 0.20824 0.11976 0.0
C11 C 0.18489 0.21966 0.1154 0.0
C12 C 0.22163 0.27315 0.19092 0.0
N13 N 0.2794 0.24121 0.16779 0.0
O14 O 0.08447 0.365 0.20857 0.0
H15 H 0.15122 0.19475 0.08385 0.0
H16 H 0.22242 0.30393 0.23008 0.0
O17 O 0.04582 0.30938 0.10453 0.0
C18 C 0.08532 0.37415 0.26352 0.0
O19 O 0.06096 0.32431 0.29758 0.0
N20 N 0.04575 0.18221 0.16148 0.0
C21 C 0.01466 0.04155 0.1556 0.0
C22 C 0.98283 0.08829 0.1167 0.0
C23 C 0.99878 0.1596 0.12075 0.0
C24 C 0.07598 0.13713 0.20015 0.0
C25 C 0.06161 0.0658 0.19772 0.0
H26 H 0.97126 0.19663 0.0933 0.0
H27 H 0.10948 0.1575 0.2342 0.0
H28 H 0.91162 0.31432 0.12506 0.0
H29 H 0.83321 0.21668 0.27518 0.0
H30 H 0.28812 0.17494 0.09182 0.0
H31 H 0.94444 0.07011 0.08517 0.0
H32 H 0.0852 0.03031 0.2292 0.0
C33 C 0.76046 0.94015 0.75002 0.0
C34 C 0.76663 0.86802 0.74515 0.0
N35 N 0.73899 0.84866 0.69394 0.0
N36 N 0.72815 0.96683 0.70233 0.0
C37 C 0.71521 0.90901 0.66892 0.0
H38 H 0.78462 0.97175 0.78372 0.0
Co39 Co 0.73705 0.06405 0.68185 0.0
C40 C 0.67746 0.03433 0.55338 0.0
O41 O 0.61213 0.01295 0.54663 0.0
N42 N 0.75025 0.16177 0.66073 0.0
C43 C 0.80138 0.25647 0.61981 0.0
C44 C 0.79002 0.18484 0.61553 0.0
C45 C 0.73654 0.22166 0.69103 0.0
N46 N 0.76843 0.27941 0.66782 0.0
O47 O 0.64448 0.08445 0.70835 0.0
H48 H 0.81479 0.15111 0.58393 0.0
H49 H 0.70568 0.22251 0.73015 0.0
O50 O 0.70126 0.04618 0.6044 0.0
C51 C 0.63538 0.08532 0.76332 0.0
O52 O 0.68528 0.06097 0.79733 0.0
N53 N 0.82754 0.0458 0.6618 0.0
C54 C 0.96815 0.01473 0.65571 0.0
C55 C 0.92136 0.98294 0.61684 0.0
C56 C 0.8501 0.9989 0.62098 0.0
C57 C 0.87267 0.07602 0.70042 0.0
C58 C 0.94399 0.06167 0.69788 0.0
H59 H 0.81305 0.97145 0.59349 0.0
H60 H 0.85234 0.10951 0.7345 0.0
H61 H 0.69527 0.91162 0.62495 0.0
H62 H 0.79284 0.83323 0.77512 0.0
H63 H 0.83459 0.28808 0.59179 0.0
H64 H 0.93949 0.94458 0.58526 0.0
H65 H 0.97954 0.08526 0.7293 0.0
C66 C 0.06944 0.76053 0.25012 0.0
C67 C 0.14159 0.7667 0.24524 0.0
N68 N 0.16095 0.73905 0.19403 0.0
N69 N 0.04276 0.7282 0.20244 0.0
C70 C 0.1006 0.71526 0.16904 0.0
H71 H 0.03784 0.7847 0.28383 0.0
Co72 Co 0.94558 0.73694 0.18172 0.0
C73 C 0.97543 0.67713 0.05315 0.0
O74 O 0.99696 0.61197 0.04553 0.0
N75 N 0.84783 0.75004 0.16045 0.0
C76 C 0.75309 0.80135 0.11974 0.0
C77 C 0.82469 0.78992 0.11535 0.0
C78 C 0.78798 0.73644 0.19089 0.0
N79 N 0.73021 0.7684 0.16777 0.0
O80 O 0.92515 0.64466 0.20846 0.0
H81 H 0.85835 0.81486 0.08381 0.0
H82 H 0.78722 0.70573 0.23008 0.0
O83 O 0.96386 0.69998 0.10454 0.0
C84 C 0.92424 0.63544 0.26339 0.0
O85 O 0.94858 0.68522 0.29752 0.0
N86 N 0.96385 0.82736 0.1614 0.0
C87 C 0.99496 0.96802 0.15559 0.0
C88 C 0.02679 0.92129 0.11666 0.0
C89 C 0.01084 0.84998 0.12069 0.0
C90 C 0.93363 0.87242 0.20009 0.0
C91 C 0.94801 0.94375 0.1977 0.0
H92 H 0.03837 0.81295 0.09325 0.0
H93 H 0.90014 0.85203 0.23414 0.0
H94 H 0.09798 0.6953 0.12507 0.0
H95 H 0.17639 0.79291 0.2752 0.0
H96 H 0.72146 0.83468 0.09182 0.0
H97 H 0.06519 0.93949 0.08515 0.0
H98 H 0.92443 0.97922 0.2292 0.0
C99 C 0.24908 0.06945 0.75011 0.0
C100 C 0.24291 0.14159 0.74522 0.0
N101 N 0.27057 0.16095 0.69401 0.0
N102 N 0.28143 0.04277 0.70243 0.0
C103 C 0.29436 0.1006 0.66902 0.0
H104 H 0.22491 0.03786 0.78381 0.0
Co105 Co 0.27265 0.94557 0.68178 0.0
C106 C 0.33242 0.97538 0.55321 0.0
O107 O 0.39759 0.99692 0.54577 0.0
N108 N 0.25953 0.84783 0.66053 0.0
C109 C 0.20824 0.7531 0.61977 0.0
C110 C 0.21966 0.82471 0.6154 0.0
C111 C 0.27315 0.78796 0.69092 0.0
N112 N 0.2412 0.7302 0.66779 0.0
O113 O 0.36502 0.92513 0.70858 0.0
H114 H 0.19476 0.85839 0.58385 0.0
H115 H 0.30394 0.78717 0.73008 0.0
O116 O 0.30938 0.96376 0.60453 0.0
C117 C 0.37416 0.92429 0.76354 0.0
O118 O 0.32431 0.94865 0.79759 0.0
N119 N 0.18224 0.96384 0.66148 0.0
C120 C 0.04162 0.99496 0.65564 0.0
C121 C 0.08834 0.02676 0.6167 0.0
C122 C 0.15963 0.0108 0.62075 0.0
C123 C 0.13717 0.93361 0.70016 0.0
C124 C 0.06586 0.94799 0.69775 0.0
H125 H 0.19667 0.03832 0.59329 0.0
H126 H 0.15755 0.90013 0.73422 0.0
H127 H 0.31431 0.09798 0.62505 0.0
H128 H 0.21669 0.17639 0.77518 0.0
H129 H 0.17494 0.72149 0.59182 0.0
H130 H 0.07015 0.06516 0.58518 0.0
H131 H 0.03037 0.92442 0.72923 0.0
C132 C 0.44016 0.26045 0.8014 0.0
C133 C 0.36803 0.26663 0.80626 0.0
N134 N 0.34866 0.23899 0.85747 0.0
N135 N 0.46684 0.22815 0.84909 0.0
C136 C 0.409 0.21521 0.88249 0.0
H137 H 0.47177 0.28462 0.7677 0.0
Co138 Co 0.56406 0.23706 0.86954 0.0
C139 C 0.53433 0.17752 0.99797 0.0
O140 O 0.51288 0.11219 1.00456 0.0
N141 N 0.66178 0.25028 0.89063 0.0
C142 C 0.75648 0.30138 0.93156 0.0
C143 C 0.68485 0.29003 0.93584 0.0
C144 C 0.72167 0.23656 0.86032 0.0
N145 N 0.77942 0.26844 0.88354 0.0
O146 O 0.58445 0.14445 0.84313 0.0
H147 H 0.65111 0.31477 0.96746 0.0
H148 H 0.72252 0.20571 0.82121 0.0
O149 O 0.54624 0.20148 0.94701 0.0
C150 C 0.58529 0.13534 0.78815 0.0
O151 O 0.56091 0.1852 0.75412 0.0
N152 N 0.54583 0.32755 0.88953 0.0
C153 C 0.51473 0.4681 0.89564 0.0
C154 C 0.48297 0.42133 0.93452 0.0
C155 C 0.49895 0.35008 0.93037 0.0
C156 C 0.57605 0.37268 0.85091 0.0
C157 C 0.5617 0.44399 0.85348 0.0
H158 H 0.47152 0.31303 0.95787 0.0
H159 H 0.60955 0.35237 0.81684 0.0
H160 H 0.41162 0.19527 0.92647 0.0
H161 H 0.33325 0.29285 0.77629 0.0
H162 H 0.7881 0.33457 0.9596 0.0
H163 H 0.4446 0.43945 0.9661 0.0
H164 H 0.58527 0.47956 0.82206 0.0
C165 C 0.74903 0.44016 0.30127 0.0
C166 C 0.74286 0.36801 0.30615 0.0
N167 N 0.77054 0.34866 0.35735 0.0
N168 N 0.78139 0.46684 0.34894 0.0
C169 C 0.79434 0.40901 0.38234 0.0
H170 H 0.72485 0.47176 0.26757 0.0
Co171 Co 0.77266 0.56402 0.36967 0.0
C172 C 0.83249 0.53415 0.49825 0.0
O173 O 0.89762 0.5126 0.50593 0.0
N174 N 0.75957 0.66177 0.39095 0.0
C175 C 0.70825 0.75652 0.43165 0.0
C176 C 0.71969 0.68492 0.43606 0.0
C177 C 0.77315 0.72162 0.36051 0.0
N178 N 0.7412 0.7794 0.38361 0.0
O179 O 0.86492 0.58446 0.34289 0.0
H180 H 0.69474 0.65127 0.46759 0.0
H181 H 0.80385 0.72237 0.3213 0.0
O182 O 0.8097 0.54571 0.44684 0.0
C183 C 0.87416 0.58531 0.28797 0.0
O184 O 0.82443 0.56092 0.25381 0.0
N185 N 0.68227 0.54576 0.39003 0.0
C186 C 0.54165 0.51461 0.39579 0.0
C187 C 0.58835 0.4828 0.43473 0.0
C188 C 0.65965 0.49876 0.43072 0.0
C189 C 0.63722 0.57599 0.35134 0.0
C190 C 0.5659 0.5616 0.35371 0.0
H191 H 0.69668 0.47121 0.45816 0.0
H192 H 0.65761 0.60949 0.31729 0.0
H193 H 0.81431 0.41162 0.4263 0.0
H194 H 0.71665 0.33321 0.2762 0.0
H195 H 0.67492 0.78815 0.45957 0.0
H196 H 0.57014 0.44437 0.46623 0.0
H197 H 0.53043 0.58517 0.3222 0.0
C198 C 0.56945 0.74916 0.8014 0.0
C199 C 0.64158 0.74297 0.80627 0.0
N200 N 0.66095 0.77061 0.85747 0.0
N201 N 0.54279 0.78146 0.84911 0.0
C202 C 0.60062 0.7944 0.88251 0.0
H203 H 0.53784 0.72501 0.7677 0.0
Co204 Co 0.44557 0.77255 0.86957 0.0
C205 C 0.47522 0.83211 0.99799 0.0
O206 O 0.4964 0.89753 1.00458 0.0
N207 N 0.34784 0.75932 0.89064 0.0
C208 C 0.25314 0.70823 0.93157 0.0
C209 C 0.32477 0.71958 0.93584 0.0
C210 C 0.28795 0.77304 0.86032 0.0
N211 N 0.2302 0.74117 0.88354 0.0
O212 O 0.42521 0.86513 0.84323 0.0
H213 H 0.3585 0.69484 0.96747 0.0
H214 H 0.28711 0.80386 0.82119 0.0
O215 O 0.46333 0.80812 0.94704 0.0
C216 C 0.42431 0.87428 0.78828 0.0
O217 O 0.44865 0.82446 0.75419 0.0
N218 N 0.46381 0.68207 0.88954 0.0
C219 C 0.49487 0.54151 0.89565 0.0
C220 C 0.52664 0.58827 0.93454 0.0
C221 C 0.51068 0.65952 0.93039 0.0
C222 C 0.43358 0.63695 0.85092 0.0
C223 C 0.44792 0.56564 0.85348 0.0
H224 H 0.53812 0.69657 0.95788 0.0
H225 H 0.40009 0.65727 0.81685 0.0
H226 H 0.59801 0.81433 0.92648 0.0
H227 H 0.67636 0.71675 0.77629 0.0
H228 H 0.22152 0.67505 0.9596 0.0
H229 H 0.565 0.57014 0.96612 0.0
H230 H 0.42434 0.53007 0.82206 0.0
C231 C 0.26045 0.56945 0.30138 0.0
C232 C 0.26664 0.64159 0.30625 0.0
N233 N 0.239 0.66095 0.35746 0.0
N234 N 0.22816 0.54278 0.34909 0.0
C235 C 0.21522 0.60061 0.38249 0.0
H236 H 0.28461 0.53784 0.26768 0.0
Co237 Co 0.23706 0.44557 0.36957 0.0
C238 C 0.17745 0.47526 0.49801 0.0
O239 O 0.11208 0.49653 0.50474 0.0
N240 N 0.25027 0.34785 0.39067 0.0
C241 C 0.30137 0.25313 0.43158 0.0
C242 C 0.29002 0.32476 0.43586 0.0
C243 C 0.23656 0.28796 0.36034 0.0
N244 N 0.26843 0.2302 0.38355 0.0
O245 O 0.1445 0.42519 0.34319 0.0
H246 H 0.31478 0.35848 0.46748 0.0
H247 H 0.20575 0.28713 0.3212 0.0
O248 O 0.2013 0.46341 0.44701 0.0
C249 C 0.13534 0.4243 0.28824 0.0
O250 O 0.18515 0.44865 0.25415 0.0
N251 N 0.32756 0.46381 0.38958 0.0
C252 C 0.46816 0.49485 0.3957 0.0
C253 C 0.42138 0.52665 0.43457 0.0
C254 C 0.35011 0.5107 0.43041 0.0
C255 C 0.37268 0.4336 0.35096 0.0
C256 C 0.444 0.44793 0.35351 0.0
H257 H 0.31306 0.53815 0.4579 0.0
H258 H 0.35235 0.40012 0.31688 0.0
H259 H 0.19529 0.598 0.42646 0.0
H260 H 0.29285 0.67637 0.27627 0.0
H261 H 0.33457 0.22151 0.4596 0.0
H262 H 0.4395 0.565 0.46615 0.0
H263 H 0.47956 0.42435 0.32209 0.0
C264 C 0.06964 0.75678 0.80323 0.0
C265 C 0.14166 0.76298 0.80749 0.0
N266 N 0.16188 0.73557 0.85862 0.0
N267 N 0.04349 0.72479 0.85122 0.0
C268 C 0.10183 0.71149 0.88412 0.0
H269 H 0.03777 0.78189 0.77019 0.0
Co270 Co 0.94636 0.73686 0.87169 0.0
C271 C 0.96232 0.7228 1.00279 0.0
O272 O 0.94871 0.78924 1.01247 0.0
N273 N 0.84733 0.75282 0.89181 0.0
C274 C 0.75089 0.80636 0.92802 0.0
C275 C 0.8225 0.79779 0.93308 0.0
C276 C 0.78791 0.73522 0.86182 0.0
N277 N 0.72918 0.76783 0.88271 0.0
O278 O 0.92317 0.64488 0.84404 0.0
H279 H 0.85417 0.83038 0.96082 0.0
H280 H 0.78823 0.70238 0.82361 0.0
O281 O 0.96413 0.69845 0.95075 0.0
C282 C 0.92182 0.63744 0.78875 0.0
O283 O 0.94609 0.68826 0.75569 0.0
N284 N 0.96759 0.82735 0.89068 0.0
C285 C 0.99684 0.96796 0.89303 0.0
C286 C 0.03653 0.92218 0.92724 0.0
C287 C 0.02168 0.85087 0.92468 0.0
C288 C 0.93243 0.87159 0.85422 0.0
C289 C 0.94501 0.94304 0.85561 0.0
H290 H 0.05397 0.8149 0.94939 0.0
H291 H 0.89552 0.85063 0.82309 0.0
H292 H 0.09952 0.69235 0.92841 0.0
H293 H 0.17551 0.79037 0.77747 0.0
H294 H 0.71857 0.84275 0.9526 0.0
H295 H 0.07904 0.94129 0.95454 0.0
H296 H 0.91624 0.97811 0.82687 0.0
C297 C 0.25282 0.06965 0.30323 0.0
C298 C 0.24662 0.14167 0.30749 0.0
N299 N 0.27403 0.16189 0.35862 0.0
N300 N 0.28482 0.04349 0.35121 0.0
C301 C 0.29812 0.10183 0.38412 0.0
H302 H 0.22771 0.03778 0.27019 0.0
Co303 Co 0.27277 0.94637 0.37169 0.0
C304 C 0.28685 0.96235 0.50276 0.0
O305 O 0.2204 0.94872 0.51235 0.0
N306 N 0.2568 0.84733 0.39183 0.0
C307 C 0.20325 0.75089 0.42801 0.0
C308 C 0.21181 0.82249 0.43308 0.0
C309 C 0.2744 0.78791 0.36183 0.0
N310 N 0.24178 0.72918 0.3827 0.0
O311 O 0.36471 0.9232 0.34408 0.0
H312 H 0.17921 0.85416 0.46081 0.0
H313 H 0.30724 0.78824 0.32361 0.0
O314 O 0.31126 0.96417 0.45074 0.0
C315 C 0.37216 0.92184 0.2888 0.0
O316 O 0.32136 0.94609 0.25571 0.0
N317 N 0.18225 0.96761 0.39069 0.0
C318 C 0.04163 0.99685 0.39303 0.0
C319 C 0.08741 0.03655 0.42723 0.0
C320 C 0.15873 0.02171 0.42467 0.0
C321 C 0.13802 0.93244 0.35423 0.0
C322 C 0.06656 0.94502 0.35562 0.0
H323 H 0.19469 0.05401 0.44938 0.0
H324 H 0.15899 0.89553 0.3231 0.0
H325 H 0.31726 0.09952 0.4284 0.0
H326 H 0.21922 0.17552 0.27747 0.0
H327 H 0.16685 0.71856 0.45258 0.0
H328 H 0.0683 0.07905 0.45453 0.0
H329 H 0.0315 0.91625 0.32687 0.0
C330 C 0.93997 0.25283 0.80323 0.0
C331 C 0.86795 0.24663 0.80749 0.0
N332 N 0.84774 0.27404 0.85862 0.0
N333 N 0.96612 0.28482 0.85121 0.0
C334 C 0.90779 0.29813 0.88412 0.0
H335 H 0.97184 0.22771 0.77019 0.0
Co336 Co 0.06324 0.27276 0.87169 0.0
C337 C 0.04725 0.28683 1.00276 0.0
O338 O 0.06088 0.22038 1.01236 0.0
N339 N 0.16228 0.25679 0.89182 0.0
C340 C 0.25872 0.20324 0.92801 0.0
C341 C 0.18711 0.2118 0.93308 0.0
C342 C 0.22171 0.27439 0.86183 0.0
N343 N 0.28044 0.24177 0.88271 0.0
O344 O 0.08641 0.3647 0.84407 0.0
H345 H 0.15544 0.1792 0.96081 0.0
H346 H 0.22138 0.30722 0.82362 0.0
O347 O 0.04544 0.31125 0.95074 0.0
C348 C 0.08777 0.37216 0.7888 0.0
O349 O 0.06351 0.32135 0.75571 0.0
N350 N 0.042 0.18225 0.89069 0.0
C351 C 0.01277 0.04164 0.89304 0.0
C352 C 0.97306 0.08741 0.92723 0.0
C353 C 0.9879 0.15873 0.92467 0.0
C354 C 0.07717 0.13801 0.85423 0.0
C355 C 0.0646 0.06656 0.85562 0.0
H356 H 0.95559 0.19469 0.94938 0.0
H357 H 0.11407 0.15898 0.82309 0.0
H358 H 0.9101 0.31726 0.9284 0.0
H359 H 0.8341 0.21924 0.77747 0.0
H360 H 0.29104 0.16684 0.95259 0.0
H361 H 0.93055 0.0683 0.95453 0.0
H362 H 0.09336 0.0315 0.82687 0.0
C363 C 0.75676 0.9399 0.30319 0.0
C364 C 0.763 0.86788 0.30749 0.0
N365 N 0.73555 0.84768 0.35861 0.0
N366 N 0.7247 0.96607 0.35114 0.0
C367 C 0.71142 0.90774 0.38406 0.0
H368 H 0.78189 0.97176 0.27015 0.0
Co369 Co 0.73673 0.06318 0.37167 0.0
C370 C 0.72261 0.04707 0.5026 0.0
O371 O 0.78909 0.06081 0.51191 0.0
N372 N 0.75271 0.16227 0.39184 0.0
C373 C 0.80632 0.25876 0.42795 0.0
C374 C 0.79774 0.18715 0.43306 0.0
C375 C 0.73514 0.22169 0.36181 0.0
N376 N 0.76778 0.28044 0.38263 0.0
O377 O 0.64485 0.08637 0.34401 0.0
H378 H 0.8304 0.15553 0.46078 0.0
H379 H 0.70231 0.22134 0.32359 0.0
O380 O 0.69793 0.04527 0.45067 0.0
C381 C 0.63743 0.08775 0.28874 0.0
O382 O 0.68825 0.06351 0.25566 0.0
N383 N 0.82728 0.04192 0.3907 0.0
C384 C 0.96794 0.01277 0.39304 0.0
C385 C 0.92218 0.97301 0.42721 0.0
C386 C 0.85085 0.98776 0.42462 0.0
C387 C 0.87152 0.07714 0.35427 0.0
C388 C 0.94298 0.0646 0.35564 0.0
H389 H 0.81491 0.9554 0.44929 0.0
H390 H 0.85054 0.11407 0.32315 0.0
H391 H 0.69228 0.91008 0.42835 0.0
H392 H 0.79044 0.83402 0.2775 0.0
H393 H 0.84274 0.29109 0.45249 0.0
H394 H 0.94132 0.9305 0.4545 0.0
H395 H 0.97803 0.09339 0.3269 0.0
C396 C 0.5697 0.75283 0.2482 0.0
C397 C 0.64172 0.74659 0.24389 0.0
N398 N 0.66192 0.77404 0.19278 0.0
N399 N 0.54354 0.78491 0.20026 0.0
C400 C 0.60186 0.79819 0.16733 0.0
H401 H 0.53784 0.7277 0.28123 0.0
Co402 Co 0.44642 0.7729 0.17973 0.0
C403 C 0.46259 0.78704 0.04884 0.0
O404 O 0.44883 0.72056 0.03958 0.0
N405 N 0.34733 0.75692 0.15955 0.0
C406 C 0.25084 0.70331 0.12343 0.0
C407 C 0.32245 0.71189 0.11832 0.0
C408 C 0.28791 0.77447 0.18959 0.0
N409 N 0.22916 0.74182 0.16876 0.0
O410 O 0.42322 0.86477 0.20745 0.0
H411 H 0.35406 0.67924 0.0906 0.0
H412 H 0.28826 0.80729 0.22781 0.0
O413 O 0.46435 0.81178 0.10074 0.0
C414 C 0.42189 0.87218 0.26272 0.0
O415 O 0.44616 0.82139 0.29581 0.0
N416 N 0.46768 0.68233 0.16067 0.0
C417 C 0.49685 0.54166 0.15834 0.0
C418 C 0.5366 0.58742 0.12417 0.0
C419 C 0.52186 0.65876 0.12677 0.0
C420 C 0.43246 0.63809 0.1971 0.0
C421 C 0.44501 0.56662 0.19573 0.0
H422 H 0.55423 0.69469 0.1021 0.0
H423 H 0.39552 0.65907 0.22821 0.0
H424 H 0.59953 0.81734 0.12305 0.0
H425 H 0.67558 0.71913 0.27387 0.0
H426 H 0.21851 0.66689 0.09888 0.0
H427 H 0.5791 0.56829 0.09688 0.0
H428 H 0.41621 0.53158 0.22447 0.0
C429 C 0.25676 0.56969 0.7482 0.0
C430 C 0.263 0.64171 0.74389 0.0
N431 N 0.23556 0.66191 0.69277 0.0
N432 N 0.22469 0.54353 0.70025 0.0
C433 C 0.21141 0.60186 0.66732 0.0
H434 H 0.2819 0.53783 0.78123 0.0
Co435 Co 0.23672 0.44641 0.67973 0.0
C436 C 0.22259 0.46255 0.5488 0.0
O437 O 0.28907 0.44882 0.53949 0.0
N438 N 0.2527 0.34733 0.65954 0.0
C439 C 0.3063 0.25085 0.62342 0.0
C440 C 0.29772 0.32246 0.61832 0.0
C441 C 0.23514 0.28791 0.68958 0.0
N442 N 0.26778 0.22916 0.66874 0.0
O443 O 0.14484 0.42321 0.70744 0.0
H444 H 0.33037 0.35408 0.59059 0.0
H445 H 0.20233 0.28826 0.7278 0.0
O446 O 0.1979 0.46432 0.60073 0.0
C447 C 0.13742 0.42188 0.76272 0.0
O448 O 0.18821 0.44616 0.7958 0.0
N449 N 0.32727 0.46768 0.66067 0.0
C450 C 0.46793 0.49683 0.65833 0.0
C451 C 0.42216 0.53659 0.62417 0.0
C452 C 0.35083 0.52184 0.62677 0.0
C453 C 0.3715 0.43245 0.6971 0.0
C454 C 0.44297 0.445 0.69573 0.0
H455 H 0.3149 0.55421 0.60209 0.0
H456 H 0.35053 0.39552 0.72822 0.0
H457 H 0.19226 0.59952 0.62304 0.0
H458 H 0.29044 0.67557 0.77387 0.0
H459 H 0.34272 0.21852 0.59887 0.0
H460 H 0.4413 0.5791 0.59688 0.0
H461 H 0.47802 0.41621 0.72447 0.0
C462 C 0.4399 0.25676 0.2482 0.0
C463 C 0.36789 0.26301 0.24389 0.0
N464 N 0.34768 0.23556 0.19278 0.0
N465 N 0.46607 0.22469 0.20026 0.0
C466 C 0.40774 0.21141 0.16733 0.0
H467 H 0.47177 0.28189 0.28123 0.0
Co468 Co 0.56317 0.2367 0.17972 0.0
C469 C 0.54704 0.22257 0.04882 0.0
O470 O 0.56081 0.28905 0.03958 0.0
N471 N 0.66227 0.25269 0.15953 0.0
C472 C 0.75875 0.30631 0.12343 0.0
C473 C 0.68715 0.29773 0.11833 0.0
C474 C 0.72169 0.23513 0.18957 0.0
N475 N 0.78044 0.26778 0.16875 0.0
O476 O 0.58638 0.14484 0.20741 0.0
H477 H 0.65553 0.33041 0.09062 0.0
H478 H 0.72134 0.20231 0.22779 0.0
O479 O 0.54524 0.19783 0.10073 0.0
C480 C 0.58771 0.13742 0.26268 0.0
O481 O 0.56345 0.18821 0.29578 0.0
N482 N 0.5419 0.32727 0.16067 0.0
C483 C 0.51275 0.46795 0.15834 0.0
C484 C 0.47298 0.42218 0.12418 0.0
C485 C 0.48773 0.35084 0.12677 0.0
C486 C 0.57713 0.37151 0.19709 0.0
C487 C 0.56458 0.44298 0.19573 0.0
H488 H 0.45536 0.31491 0.1021 0.0
H489 H 0.61406 0.35053 0.2282 0.0
H490 H 0.41007 0.19226 0.12305 0.0
H491 H 0.33403 0.29046 0.27387 0.0
H492 H 0.79108 0.34275 0.09889 0.0
H493 H 0.43048 0.44132 0.09689 0.0
H494 H 0.59339 0.47802 0.22447 0.0
C495 C 0.7528 0.43996 0.74814 0.0
C496 C 0.74662 0.36795 0.74388 0.0
N497 N 0.77403 0.34773 0.69275 0.0
N498 N 0.78479 0.46612 0.70016 0.0
C499 C 0.79811 0.40778 0.66725 0.0
H500 H 0.72768 0.47183 0.78118 0.0
Co501 Co 0.77272 0.56325 0.6797 0.0
C502 C 0.78677 0.54729 0.54858 0.0
O503 O 0.72034 0.56089 0.53889 0.0
N504 N 0.75676 0.66228 0.65958 0.0
C505 C 0.70324 0.75873 0.62338 0.0
C506 C 0.7118 0.68712 0.61831 0.0
C507 C 0.77437 0.7217 0.68958 0.0
N508 N 0.74176 0.78044 0.6687 0.0
O509 O 0.8647 0.58643 0.70735 0.0
H510 H 0.67923 0.65545 0.59056 0.0
H511 H 0.8072 0.72137 0.72779 0.0
O512 O 0.81111 0.54549 0.60063 0.0
C513 C 0.87215 0.58774 0.76264 0.0
O514 O 0.82138 0.56343 0.79573 0.0
N515 N 0.68222 0.54202 0.6607 0.0
C516 C 0.54162 0.51276 0.65835 0.0
C517 C 0.5874 0.47306 0.62415 0.0
C518 C 0.65872 0.48792 0.6267 0.0
C519 C 0.63798 0.57718 0.69716 0.0
C520 C 0.56653 0.56459 0.69577 0.0
H521 H 0.69468 0.45564 0.60199 0.0
H522 H 0.65894 0.61409 0.72829 0.0
H523 H 0.81725 0.4101 0.62297 0.0
H524 H 0.71923 0.33409 0.7739 0.0
H525 H 0.66685 0.79106 0.5988 0.0
H526 H 0.5683 0.43056 0.59684 0.0
H527 H 0.53146 0.59336 0.72451 0.0
loop_
_geom_bond_atom_site_label_1
_geom_bond_atom_site_label_2
_geom_bond_distance
_geom_bond_site_symmetry_2
_ccdc_geom_bond_type
C0 C1 1.351 . S
C0 N3 1.368 . S
C0 H5 0.931 . S
C1 C0 1.351 . S
C1 N2 1.373 . S
C1 H29 0.930 . S
N2 C1 1.373 . S
N2 C4 1.340 . S
N3 C0 1.368 . S
N3 C4 1.321 . S
N3 Co6 2.135 1_655 S
C4 N2 1.340 . S
C4 N3 1.321 . S
C4 H28 0.930 . S
H5 C0 0.931 . S
Co6 N3 2.135 1_455 S
Co6 N9 2.121 . S
Co6 O14 2.055 . S
Co6 O17 2.039 . S
Co6 N20 2.140 . S
C7 O8 1.227 1_455 S
C7 O17 1.265 . S
O8 C7 1.227 1_655 S
N9 Co6 2.121 . S
N9 C11 1.375 . S
N9 C12 1.313 . S
C10 C11 1.338 . S
C10 N13 1.377 . S
C10 H30 0.930 . S
C11 N9 1.375 . S
C11 C10 1.338 . S
C11 H15 0.931 . S
C12 N9 1.313 . S
C12 N13 1.344 . S
C12 H16 0.930 . S
N13 C10 1.377 . S
N13 C12 1.344 . S
O14 Co6 2.055 . S
O14 C18 1.253 . S
H15 C11 0.931 . S
H16 C12 0.930 . S
O17 Co6 2.039 . S
O17 C7 1.265 . S
C18 O14 1.253 . S
C18 O19 1.227 . S
O19 C18 1.227 . S
N20 Co6 2.140 . S
N20 C23 1.346 1_455 S
N20 C24 1.345 . S
C21 C22 1.387 1_455 S
C21 C25 1.391 . S
C22 C21 1.387 1_655 S
C22 C23 1.369 . S
C22 H31 0.929 . S
C23 N20 1.346 1_655 S
C23 C22 1.369 . S
C23 H26 0.928 . S
C24 N20 1.345 . S
C24 C25 1.371 . S
C24 H27 0.931 . S
C25 C21 1.391 . S
C25 C24 1.371 . S
C25 H32 0.930 . S
H26 C23 0.928 . S
H27 C24 0.931 . S
H28 C4 0.930 . S
H29 C1 0.930 . S
H30 C10 0.930 . S
H31 C22 0.929 . S
H32 C25 0.930 . S
C33 C34 1.351 . S
C33 N36 1.368 . S
C33 H38 0.931 . S
C34 C33 1.351 . S
C34 N35 1.373 . S
C34 H62 0.930 . S
N35 C34 1.373 . S
N35 C37 1.340 . S
N36 C33 1.368 . S
N36 C37 1.321 . S
N36 Co39 2.135 1_565 S
C37 N35 1.340 . S
C37 N36 1.321 . S
C37 H61 0.930 . S
H38 C33 0.931 . S
Co39 N36 2.135 1_545 S
Co39 N42 2.121 . S
Co39 O47 2.055 . S
Co39 O50 2.039 . S
Co39 N53 2.140 . S
C40 O41 1.227 1_545 S
C40 O50 1.265 . S
O41 C40 1.227 1_565 S
N42 Co39 2.121 . S
N42 C44 1.375 . S
N42 C45 1.313 . S
C43 C44 1.338 . S
C43 N46 1.377 . S
C43 H63 0.930 . S
C44 N42 1.375 . S
C44 C43 1.338 . S
C44 H48 0.931 . S
C45 N42 1.313 . S
C45 N46 1.344 . S
C45 H49 0.930 . S
N46 C43 1.377 . S
N46 C45 1.344 . S
O47 Co39 2.055 . S
O47 C51 1.253 . S
H48 C44 0.931 . S
H49 C45 0.930 . S
O50 Co39 2.039 . S
O50 C40 1.265 . S
C51 O47 1.253 . S
C51 O52 1.227 . S
O52 C51 1.227 . S
N53 Co39 2.140 . S
N53 C56 1.346 1_545 S
N53 C57 1.345 . S
C54 C55 1.387 1_545 S
C54 C58 1.391 . S
C55 C54 1.387 1_565 S
C55 C56 1.369 . S
C55 H64 0.929 . S
C56 N53 1.346 1_565 S
C56 C55 1.369 . S
C56 H59 0.928 . S
C57 N53 1.345 . S
C57 C58 1.371 . S
C57 H60 0.931 . S
C58 C54 1.391 . S
C58 C57 1.371 . S
C58 H65 0.930 . S
H59 C56 0.928 . S
H60 C57 0.931 . S
H61 C37 0.930 . S
H62 C34 0.930 . S
H63 C43 0.930 . S
H64 C55 0.929 . S
H65 C58 0.930 . S
C66 C67 1.351 . S
C66 N69 1.368 . S
C66 H71 0.931 . S
C67 C66 1.351 . S
C67 N68 1.373 . S
C67 H95 0.930 . S
N68 C67 1.373 . S
N68 C70 1.340 . S
N69 C66 1.368 . S
N69 C70 1.321 . S
N69 Co72 2.135 1_455 S
C70 N68 1.340 . S
C70 N69 1.321 . S
C70 H94 0.930 . S
H71 C66 0.931 . S
Co72 N69 2.135 1_655 S
Co72 N75 2.121 . S
Co72 O80 2.055 . S
Co72 O83 2.039 . S
Co72 N86 2.140 . S
C73 O74 1.227 1_655 S
C73 O83 1.265 . S
O74 C73 1.227 1_455 S
N75 Co72 2.121 . S
N75 C77 1.375 . S
N75 C78 1.313 . S
C76 C77 1.338 . S
C76 N79 1.377 . S
C76 H96 0.930 . S
C77 N75 1.375 . S
C77 C76 1.338 . S
C77 H81 0.931 . S
C78 N75 1.313 . S
C78 N79 1.344 . S
C78 H82 0.930 . S
N79 C76 1.377 . S
N79 C78 1.344 . S
O80 Co72 2.055 . S
O80 C84 1.253 . S
H81 C77 0.931 . S
H82 C78 0.930 . S
O83 Co72 2.039 . S
O83 C73 1.265 . S
C84 O80 1.253 . S
C84 O85 1.227 . S
O85 C84 1.227 . S
N86 Co72 2.140 . S
N86 C89 1.346 1_655 S
N86 C90 1.345 . S
C87 C88 1.387 1_655 S
C87 C91 1.391 . S
C88 C87 1.387 1_455 S
C88 C89 1.369 . S
C88 H97 0.929 . S
C89 N86 1.346 1_455 S
C89 C88 1.369 . S
C89 H92 0.928 . S
C90 N86 1.345 . S
C90 C91 1.371 . S
C90 H93 0.931 . S
C91 C87 1.391 . S
C91 C90 1.371 . S
C91 H98 0.930 . S
H92 C89 0.928 . S
H93 C90 0.931 . S
H94 C70 0.930 . S
H95 C67 0.930 . S
H96 C76 0.930 . S
H97 C88 0.929 . S
H98 C91 0.930 . S
C99 C100 1.351 . S
C99 N102 1.368 . S
C99 H104 0.931 . S
C100 C99 1.351 . S
C100 N101 1.373 . S
C100 H128 0.930 . S
N101 C100 1.373 . S
N101 C103 1.340 . S
N102 C99 1.368 . S
N102 C103 1.321 . S
N102 Co105 2.135 1_545 S
C103 N101 1.340 . S
C103 N102 1.321 . S
C103 H127 0.930 . S
H104 C99 0.931 . S
Co105 N102 2.135 1_565 S
Co105 N108 2.121 . S
Co105 O113 2.055 . S
Co105 O116 2.039 . S
Co105 N119 2.140 . S
C106 O107 1.227 1_565 S
C106 O116 1.265 . S
O107 C106 1.227 1_545 S
N108 Co105 2.121 . S
N108 C110 1.375 . S
N108 C111 1.313 . S
C109 C110 1.338 . S
C109 N112 1.377 . S
C109 H129 0.930 . S
C110 N108 1.375 . S
C110 C109 1.338 . S
C110 H114 0.931 . S
C111 N108 1.313 . S
C111 N112 1.344 . S
C111 H115 0.930 . S
N112 C109 1.377 . S
N112 C111 1.344 . S
O113 Co105 2.055 . S
O113 C117 1.253 . S
H114 C110 0.931 . S
H115 C111 0.930 . S
O116 Co105 2.039 . S
O116 C106 1.265 . S
C117 O113 1.253 . S
C117 O118 1.227 . S
O118 C117 1.227 . S
N119 Co105 2.140 . S
N119 C122 1.346 1_565 S
N119 C123 1.345 . S
C120 C121 1.387 1_565 S
C120 C124 1.391 . S
C121 C120 1.387 1_545 S
C121 C122 1.369 . S
C121 H130 0.929 . S
C122 N119 1.346 1_545 S
C122 C121 1.369 . S
C122 H125 0.928 . S
C123 N119 1.345 . S
C123 C124 1.371 . S
C123 H126 0.931 . S
C124 C120 1.391 . S
C124 C123 1.371 . S
C124 H131 0.930 . S
H125 C122 0.928 . S
H126 C123 0.931 . S
H127 C103 0.930 . S
H128 C100 0.930 . S
H129 C109 0.930 . S
H130 C121 0.929 . S
H131 C124 0.930 . S
C132 C133 1.351 . S
C132 N135 1.368 . S
C132 H137 0.931 . S
C133 C132 1.351 . S
C133 N134 1.373 . S
C133 H161 0.930 . S
N134 C133 1.373 . S
N134 C136 1.340 . S
N135 C132 1.368 . S
N135 C136 1.321 . S
N135 Co138 2.135 . S
C136 N134 1.340 . S
C136 N135 1.321 . S
C136 H160 0.930 . S
H137 C132 0.931 . S
Co138 N135 2.135 . S
Co138 N141 2.121 . S
Co138 O146 2.055 . S
Co138 O149 2.039 . S
Co138 N152 2.140 . S
C139 O140 1.227 . S
C139 O149 1.265 . S
O140 C139 1.227 . S
N141 Co138 2.121 . S
N141 C143 1.375 . S
N141 C144 1.313 . S
C142 C143 1.338 . S
C142 N145 1.377 . S
C142 H162 0.930 . S
C143 N141 1.375 . S
C143 C142 1.338 . S
C143 H147 0.931 . S
C144 N141 1.313 . S
C144 N145 1.344 . S
C144 H148 0.930 . S
N145 C142 1.377 . S
N145 C144 1.344 . S
O146 Co138 2.055 . S
O146 C150 1.253 . S
H147 C143 0.931 . S
H148 C144 0.930 . S
O149 Co138 2.039 . S
O149 C139 1.265 . S
C150 O146 1.253 . S
C150 O151 1.227 . S
O151 C150 1.227 . S
N152 Co138 2.140 . S
N152 C155 1.346 . S
N152 C156 1.345 . S
C153 C154 1.387 . S
C153 C157 1.391 . S
C154 C153 1.387 . S
C154 C155 1.369 . S
C154 H163 0.929 . S
C155 N152 1.346 . S
C155 C154 1.369 . S
C155 H158 0.928 . S
C156 N152 1.345 . S
C156 C157 1.371 . S
C156 H159 0.931 . S
C157 C153 1.391 . S
C157 C156 1.371 . S
C157 H164 0.930 . S
H158 C155 0.928 . S
H159 C156 0.931 . S
H160 C136 0.930 . S
H161 C133 0.930 . S
H162 C142 0.930 . S
H163 C154 0.929 . S
H164 C157 0.930 . S
C165 C166 1.351 . S
C165 N168 1.368 . S
C165 H170 0.931 . S
C166 C165 1.351 . S
C166 N167 1.373 . S
C166 H194 0.930 . S
N167 C166 1.373 . S
N167 C169 1.340 . S
N168 C165 1.368 . S
N168 C169 1.321 . S
N168 Co171 2.135 . S
C169 N167 1.340 . S
C169 N168 1.321 . S
C169 H193 0.930 . S
H170 C165 0.931 . S
Co171 N168 2.135 . S
Co171 N174 2.121 . S
Co171 O179 2.055 . S
Co171 O182 2.039 . S
Co171 N185 2.140 . S
C172 O173 1.227 . S
C172 O182 1.265 . S
O173 C172 1.227 . S
N174 Co171 2.121 . S
N174 C176 1.375 . S
N174 C177 1.313 . S
C175 C176 1.338 . S
C175 N178 1.377 . S
C175 H195 0.930 . S
C176 N174 1.375 . S
C176 C175 1.338 . S
C176 H180 0.931 . S
C177 N174 1.313 . S
C177 N178 1.344 . S
C177 H181 0.930 . S
N178 C175 1.377 . S
N178 C177 1.344 . S
O179 Co171 2.055 . S
O179 C183 1.253 . S
H180 C176 0.931 . S
H181 C177 0.930 . S
O182 Co171 2.039 . S
O182 C172 1.265 . S
C183 O179 1.253 . S
C183 O184 1.227 . S
O184 C183 1.227 . S
N185 Co171 2.140 . S
N185 C188 1.346 . S
N185 C189 1.345 . S
C186 C187 1.387 . S
C186 C190 1.391 . S
C187 C186 1.387 . S
C187 C188 1.369 . S
C187 H196 0.929 . S
C188 N185 1.346 . S
C188 C187 1.369 . S
C188 H191 0.928 . S
C189 N185 1.345 . S
C189 C190 1.371 . S
C189 H192 0.931 . S
C190 C186 1.391 . S
C190 C189 1.371 . S
C190 H197 0.930 . S
H191 C188 0.928 . S
H192 C189 0.931 . S
H193 C169 0.930 . S
H194 C166 0.930 . S
H195 C175 0.930 . S
H196 C187 0.929 . S
H197 C190 0.930 . S
C198 C199 1.351 . S
C198 N201 1.368 . S
C198 H203 0.931 . S
C199 C198 1.351 . S
C199 N200 1.373 . S
C199 H227 0.930 . S
N200 C199 1.373 . S
N200 C202 1.340 . S
N201 C198 1.368 . S
N201 C202 1.321 . S
N201 Co204 2.135 . S
C202 N200 1.340 . S
C202 N201 1.321 . S
C202 H226 0.930 . S
H203 C198 0.931 . S
Co204 N201 2.135 . S
Co204 N207 2.121 . S
Co204 O212 2.055 . S
Co204 O215 2.039 . S
Co204 N218 2.140 . S
C205 O206 1.227 . S
C205 O215 1.265 . S
O206 C205 1.227 . S
N207 Co204 2.121 . S
N207 C209 1.375 . S
N207 C210 1.313 . S
C208 C209 1.338 . S
C208 N211 1.377 . S
C208 H228 0.930 . S
C209 N207 1.375 . S
C209 C208 1.338 . S
C209 H213 0.931 . S
C210 N207 1.313 . S
C210 N211 1.344 . S
C210 H214 0.930 . S
N211 C208 1.377 . S
N211 C210 1.344 . S
O212 Co204 2.055 . S
O212 C216 1.253 . S
H213 C209 0.931 . S
H214 C210 0.930 . S
O215 Co204 2.039 . S
O215 C205 1.265 . S
C216 O212 1.253 . S
C216 O217 1.227 . S
O217 C216 1.227 . S
N218 Co204 2.140 . S
N218 C221 1.346 . S
N218 C222 1.345 . S
C219 C220 1.387 . S
C219 C223 1.391 . S
C220 C219 1.387 . S
C220 C221 1.369 . S
C220 H229 0.929 . S
C221 N218 1.346 . S
C221 C220 1.369 . S
C221 H224 0.928 . S
C222 N218 1.345 . S
C222 C223 1.371 . S
C222 H225 0.931 . S
C223 C219 1.391 . S
C223 C222 1.371 . S
C223 H230 0.930 . S
H224 C221 0.928 . S
H225 C222 0.931 . S
H226 C202 0.930 . S
H227 C199 0.930 . S
H228 C208 0.930 . S
H229 C220 0.929 . S
H230 C223 0.930 . S
C231 C232 1.351 . S
C231 N234 1.368 . S
C231 H236 0.931 . S
C232 C231 1.351 . S
C232 N233 1.373 . S
C232 H260 0.930 . S
N233 C232 1.373 . S
N233 C235 1.340 . S
N234 C231 1.368 . S
N234 C235 1.321 . S
N234 Co237 2.135 . S
C235 N233 1.340 . S
C235 N234 1.321 . S
C235 H259 0.930 . S
H236 C231 0.931 . S
Co237 N234 2.135 . S
Co237 N240 2.121 . S
Co237 O245 2.055 . S
Co237 O248 2.039 . S
Co237 N251 2.140 . S
C238 O239 1.227 . S
C238 O248 1.265 . S
O239 C238 1.227 . S
N240 Co237 2.121 . S
N240 C242 1.375 . S
N240 C243 1.313 . S
C241 C242 1.338 . S
C241 N244 1.377 . S
C241 H261 0.930 . S
C242 N240 1.375 . S
C242 C241 1.338 . S
C242 H246 0.931 . S
C243 N240 1.313 . S
C243 N244 1.344 . S
C243 H247 0.930 . S
N244 C241 1.377 . S
N244 C243 1.344 . S
O245 Co237 2.055 . S
O245 C249 1.253 . S
H246 C242 0.931 . S
H247 C243 0.930 . S
O248 Co237 2.039 . S
O248 C238 1.265 . S
C249 O245 1.253 . S
C249 O250 1.227 . S
O250 C249 1.227 . S
N251 Co237 2.140 . S
N251 C254 1.346 . S
N251 C255 1.345 . S
C252 C253 1.387 . S
C252 C256 1.391 . S
C253 C252 1.387 . S
C253 C254 1.369 . S
C253 H262 0.929 . S
C254 N251 1.346 . S
C254 C253 1.369 . S
C254 H257 0.928 . S
C255 N251 1.345 . S
C255 C256 1.371 . S
C255 H258 0.931 . S
C256 C252 1.391 . S
C256 C255 1.371 . S
C256 H263 0.930 . S
H257 C254 0.928 . S
H258 C255 0.931 . S
H259 C235 0.930 . S
H260 C232 0.930 . S
H261 C241 0.930 . S
H262 C253 0.929 . S
H263 C256 0.930 . S
C264 C265 1.351 . S
C264 N267 1.368 . S
C264 H269 0.931 . S
C265 C264 1.351 . S
C265 N266 1.373 . S
C265 H293 0.930 . S
N266 C265 1.373 . S
N266 C268 1.340 . S
N267 C264 1.368 . S
N267 C268 1.321 . S
N267 Co270 2.135 1_455 S
C268 N266 1.340 . S
C268 N267 1.321 . S
C268 H292 0.930 . S
H269 C264 0.931 . S
Co270 N267 2.135 1_655 S
Co270 N273 2.121 . S
Co270 O278 2.055 . S
Co270 O281 2.039 . S
Co270 N284 2.140 . S
C271 O272 1.227 1_655 S
C271 O281 1.265 . S
O272 C271 1.227 1_455 S
N273 Co270 2.121 . S
N273 C275 1.375 . S
N273 C276 1.313 . S
C274 C275 1.338 . S
C274 N277 1.377 . S
C274 H294 0.930 . S
C275 N273 1.375 . S
C275 C274 1.338 . S
C275 H279 0.931 . S
C276 N273 1.313 . S
C276 N277 1.344 . S
C276 H280 0.930 . S
N277 C274 1.377 . S
N277 C276 1.344 . S
O278 Co270 2.055 . S
O278 C282 1.253 . S
H279 C275 0.931 . S
H280 C276 0.930 . S
O281 Co270 2.039 . S
O281 C271 1.265 . S
C282 O278 1.253 . S
C282 O283 1.227 . S
O283 C282 1.227 . S
N284 Co270 2.140 . S
N284 C287 1.346 1_655 S
N284 C288 1.345 . S
C285 C286 1.387 1_655 S
C285 C289 1.391 . S
C286 C285 1.387 1_455 S
C286 C287 1.369 . S
C286 H295 0.929 . S
C287 N284 1.346 1_455 S
C287 C286 1.369 . S
C287 H290 0.928 . S
C288 N284 1.345 . S
C288 C289 1.371 . S
C288 H291 0.931 . S
C289 C285 1.391 . S
C289 C288 1.371 . S
C289 H296 0.930 . S
H290 C287 0.928 . S
H291 C288 0.931 . S
H292 C268 0.930 . S
H293 C265 0.930 . S
H294 C274 0.930 . S
H295 C286 0.929 . S
H296 C289 0.930 . S
C297 C298 1.351 . S
C297 N300 1.368 . S
C297 H302 0.931 . S
C298 C297 1.351 . S
C298 N299 1.373 . S
C298 H326 0.930 . S
N299 C298 1.373 . S
N299 C301 1.340 . S
N300 C297 1.368 . S
N300 C301 1.321 . S
N300 Co303 2.135 1_545 S
C301 N299 1.340 . S
C301 N300 1.321 . S
C301 H325 0.930 . S
H302 C297 0.931 . S
Co303 N300 2.135 1_565 S
Co303 N306 2.121 . S
Co303 O311 2.055 . S
Co303 O314 2.039 . S
Co303 N317 2.140 . S
C304 O305 1.227 1_565 S
C304 O314 1.265 . S
O305 C304 1.227 1_545 S
N306 Co303 2.121 . S
N306 C308 1.375 . S
N306 C309 1.313 . S
C307 C308 1.338 . S
C307 N310 1.377 . S
C307 H327 0.930 . S
C308 N306 1.375 . S
C308 C307 1.338 . S
C308 H312 0.931 . S
C309 N306 1.313 . S
C309 N310 1.344 . S
C309 H313 0.930 . S
N310 C307 1.377 . S
N310 C309 1.344 . S
O311 Co303 2.055 . S
O311 C315 1.253 . S
H312 C308 0.931 . S
H313 C309 0.930 . S
O314 Co303 2.039 . S
O314 C304 1.265 . S
C315 O311 1.253 . S
C315 O316 1.227 . S
O316 C315 1.227 . S
N317 Co303 2.140 . S
N317 C320 1.346 1_565 S
N317 C321 1.345 . S
C318 C319 1.387 1_565 S
C318 C322 1.391 . S
C319 C318 1.387 1_545 S
C319 C320 1.369 . S
C319 H328 0.929 . S
C320 N317 1.346 1_545 S
C320 C319 1.369 . S
C320 H323 0.928 . S
C321 N317 1.345 . S
C321 C322 1.371 . S
C321 H324 0.931 . S
C322 C318 1.391 . S
C322 C321 1.371 . S
C322 H329 0.930 . S
H323 C320 0.928 . S
H324 C321 0.931 . S
H325 C301 0.930 . S
H326 C298 0.930 . S
H327 C307 0.930 . S
H328 C319 0.929 . S
H329 C322 0.930 . S
C330 C331 1.351 . S
C330 N333 1.368 . S
C330 H335 0.931 . S
C331 C330 1.351 . S
C331 N332 1.373 . S
C331 H359 0.930 . S
N332 C331 1.373 . S
N332 C334 1.340 . S
N333 C330 1.368 . S
N333 C334 1.321 . S
N333 Co336 2.135 1_655 S
C334 N332 1.340 . S
C334 N333 1.321 . S
C334 H358 0.930 . S
H335 C330 0.931 . S
Co336 N333 2.135 1_455 S
Co336 N339 2.121 . S
Co336 O344 2.055 . S
Co336 O347 2.039 . S
Co336 N350 2.140 . S
C337 O338 1.227 1_455 S
C337 O347 1.265 . S
O338 C337 1.227 1_655 S
N339 Co336 2.121 . S
N339 C341 1.375 . S
N339 C342 1.313 . S
C340 C341 1.338 . S
C340 N343 1.377 . S
C340 H360 0.930 . S
C341 N339 1.375 . S
C341 C340 1.338 . S
C341 H345 0.931 . S
C342 N339 1.313 . S
C342 N343 1.344 . S
C342 H346 0.930 . S
N343 C340 1.377 . S
N343 C342 1.344 . S
O344 Co336 2.055 . S
O344 C348 1.253 . S
H345 C341 0.931 . S
H346 C342 0.930 . S
O347 Co336 2.039 . S
O347 C337 1.265 . S
C348 O344 1.253 . S
C348 O349 1.227 . S
O349 C348 1.227 . S
N350 Co336 2.140 . S
N350 C353 1.346 1_455 S
N350 C354 1.345 . S
C351 C352 1.387 1_455 S
C351 C355 1.391 . S
C352 C351 1.387 1_655 S
C352 C353 1.369 . S
C352 H361 0.929 . S
C353 N350 1.346 1_655 S
C353 C352 1.369 . S
C353 H356 0.928 . S
C354 N350 1.345 . S
C354 C355 1.371 . S
C354 H357 0.931 . S
C355 C351 1.391 . S
C355 C354 1.371 . S
C355 H362 0.930 . S
H356 C353 0.928 . S
H357 C354 0.931 . S
H358 C334 0.930 . S
H359 C331 0.930 . S
H360 C340 0.930 . S
H361 C352 0.929 . S
H362 C355 0.930 . S
C363 C364 1.351 . S
C363 N366 1.368 . S
C363 H368 0.931 . S
C364 C363 1.351 . S
C364 N365 1.373 . S
C364 H392 0.930 . S
N365 C364 1.373 . S
N365 C367 1.340 . S
N366 C363 1.368 . S
N366 C367 1.321 . S
N366 Co369 2.135 1_565 S
C367 N365 1.340 . S
C367 N366 1.321 . S
C367 H391 0.930 . S
H368 C363 0.931 . S
Co369 N366 2.135 1_545 S
Co369 N372 2.121 . S
Co369 O377 2.055 . S
Co369 O380 2.039 . S
Co369 N383 2.140 . S
C370 O371 1.227 1_545 S
C370 O380 1.265 . S
O371 C370 1.227 1_565 S
N372 Co369 2.121 . S
N372 C374 1.375 . S
N372 C375 1.313 . S
C373 C374 1.338 . S
C373 N376 1.377 . S
C373 H393 0.930 . S
C374 N372 1.375 . S
C374 C373 1.338 . S
C374 H378 0.931 . S
C375 N372 1.313 . S
C375 N376 1.344 . S
C375 H379 0.930 . S
N376 C373 1.377 . S
N376 C375 1.344 . S
O377 Co369 2.055 . S
O377 C381 1.253 . S
H378 C374 0.931 . S
H379 C375 0.930 . S
O380 Co369 2.039 . S
O380 C370 1.265 . S
C381 O377 1.253 . S
C381 O382 1.227 . S
O382 C381 1.227 . S
N383 Co369 2.140 . S
N383 C386 1.346 1_545 S
N383 C387 1.345 . S
C384 C385 1.387 1_545 S
C384 C388 1.391 . S
C385 C384 1.387 1_565 S
C385 C386 1.369 . S
C385 H394 0.929 . S
C386 N383 1.346 1_565 S
C386 C385 1.369 . S
C386 H389 0.928 . S
C387 N383 1.345 . S
C387 C388 1.371 . S
C387 H390 0.931 . S
C388 C384 1.391 . S
C388 C387 1.371 . S
C388 H395 0.930 . S
H389 C386 0.928 . S
H390 C387 0.931 . S
H391 C367 0.930 . S
H392 C364 0.930 . S
H393 C373 0.930 . S
H394 C385 0.929 . S
H395 C388 0.930 . S
C396 C397 1.351 . S
C396 N399 1.368 . S
C396 H401 0.931 . S
C397 C396 1.351 . S
C397 N398 1.373 . S
C397 H425 0.930 . S
N398 C397 1.373 . S
N398 C400 1.340 . S
N399 C396 1.368 . S
N399 C400 1.321 . S
N399 Co402 2.135 . S
C400 N398 1.340 . S
C400 N399 1.321 . S
C400 H424 0.930 . S
H401 C396 0.931 . S
Co402 N399 2.135 . S
Co402 N405 2.121 . S
Co402 O410 2.055 . S
Co402 O413 2.039 . S
Co402 N416 2.140 . S
C403 O404 1.227 . S
C403 O413 1.265 . S
O404 C403 1.227 . S
N405 Co402 2.121 . S
N405 C407 1.375 . S
N405 C408 1.313 . S
C406 C407 1.338 . S
C406 N409 1.377 . S
C406 H426 0.930 . S
C407 N405 1.375 . S
C407 C406 1.338 . S
C407 H411 0.931 . S
C408 N405 1.313 . S
C408 N409 1.344 . S
C408 H412 0.930 . S
N409 C406 1.377 . S
N409 C408 1.344 . S
O410 Co402 2.055 . S
O410 C414 1.253 . S
H411 C407 0.931 . S
H412 C408 0.930 . S
O413 Co402 2.039 . S
O413 C403 1.265 . S
C414 O410 1.253 . S
C414 O415 1.227 . S
O415 C414 1.227 . S
N416 Co402 2.140 . S
N416 C419 1.346 . S
N416 C420 1.345 . S
C417 C418 1.387 . S
C417 C421 1.391 . S
C418 C417 1.387 . S
C418 C419 1.369 . S
C418 H427 0.929 . S
C419 N416 1.346 . S
C419 C418 1.369 . S
C419 H422 0.928 . S
C420 N416 1.345 . S
C420 C421 1.371 . S
C420 H423 0.931 . S
C421 C417 1.391 . S
C421 C420 1.371 . S
C421 H428 0.930 . S
H422 C419 0.928 . S
H423 C420 0.931 . S
H424 C400 0.930 . S
H425 C397 0.930 . S
H426 C406 0.930 . S
H427 C418 0.929 . S
H428 C421 0.930 . S
C429 C430 1.351 . S
C429 N432 1.368 . S
C429 H434 0.931 . S
C430 C429 1.351 . S
C430 N431 1.373 . S
C430 H458 0.930 . S
N431 C430 1.373 . S
N431 C433 1.340 . S
N432 C429 1.368 . S
N432 C433 1.321 . S
N432 Co435 2.135 . S
C433 N431 1.340 . S
C433 N432 1.321 . S
C433 H457 0.930 . S
H434 C429 0.931 . S
Co435 N432 2.135 . S
Co435 N438 2.121 . S
Co435 O443 2.055 . S
Co435 O446 2.039 . S
Co435 N449 2.140 . S
C436 O437 1.227 . S
C436 O446 1.265 . S
O437 C436 1.227 . S
N438 Co435 2.121 . S
N438 C440 1.375 . S
N438 C441 1.313 . S
C439 C440 1.338 . S
C439 N442 1.377 . S
C439 H459 0.930 . S
C440 N438 1.375 . S
C440 C439 1.338 . S
C440 H444 0.931 . S
C441 N438 1.313 . S
C441 N442 1.344 . S
C441 H445 0.930 . S
N442 C439 1.377 . S
N442 C441 1.344 . S
O443 Co435 2.055 . S
O443 C447 1.253 . S
H444 C440 0.931 . S
H445 C441 0.930 . S
O446 Co435 2.039 . S
O446 C436 1.265 . S
C447 O443 1.253 . S
C447 O448 1.227 . S
O448 C447 1.227 . S
N449 Co435 2.140 . S
N449 C452 1.346 . S
N449 C453 1.345 . S
C450 C451 1.387 . S
C450 C454 1.391 . S
C451 C450 1.387 . S
C451 C452 1.369 . S
C451 H460 0.929 . S
C452 N449 1.346 . S
C452 C451 1.369 . S
C452 H455 0.928 . S
C453 N449 1.345 . S
C453 C454 1.371 . S
C453 H456 0.931 . S
C454 C450 1.391 . S
C454 C453 1.371 . S
C454 H461 0.930 . S
H455 C452 0.928 . S
H456 C453 0.931 . S
H457 C433 0.930 . S
H458 C430 0.930 . S
H459 C439 0.930 . S
H460 C451 0.929 . S
H461 C454 0.930 . S
C462 C463 1.351 . S
C462 N465 1.368 . S
C462 H467 0.931 . S
C463 C462 1.351 . S
C463 N464 1.373 . S
C463 H491 0.930 . S
N464 C463 1.373 . S
N464 C466 1.340 . S
N465 C462 1.368 . S
N465 C466 1.321 . S
N465 Co468 2.135 . S
C466 N464 1.340 . S
C466 N465 1.321 . S
C466 H490 0.930 . S
H467 C462 0.931 . S
Co468 N465 2.135 . S
Co468 N471 2.121 . S
Co468 O476 2.055 . S
Co468 O479 2.039 . S
Co468 N482 2.140 . S
C469 O470 1.227 . S
C469 O479 1.265 . S
O470 C469 1.227 . S
N471 Co468 2.121 . S
N471 C473 1.375 . S
N471 C474 1.313 . S
C472 C473 1.338 . S
C472 N475 1.377 . S
C472 H492 0.930 . S
C473 N471 1.375 . S
C473 C472 1.338 . S
C473 H477 0.931 . S
C474 N471 1.313 . S
C474 N475 1.344 . S
C474 H478 0.930 . S
N475 C472 1.377 . S
N475 C474 1.344 . S
O476 Co468 2.055 . S
O476 C480 1.253 . S
H477 C473 0.931 . S
H478 C474 0.930 . S
O479 Co468 2.039 . S
O479 C469 1.265 . S
C480 O476 1.253 . S
C480 O481 1.227 . S
O481 C480 1.227 . S
N482 Co468 2.140 . S
N482 C485 1.346 . S
N482 C486 1.345 . S
C483 C484 1.387 . S
C483 C487 1.391 . S
C484 C483 1.387 . S
C484 C485 1.369 . S
C484 H493 0.929 . S
C485 N482 1.346 . S
C485 C484 1.369 . S
C485 H488 0.928 . S
C486 N482 1.345 . S
C486 C487 1.371 . S
C486 H489 0.931 . S
C487 C483 1.391 . S
C487 C486 1.371 . S
C487 H494 0.930 . S
H488 C485 0.928 . S
H489 C486 0.931 . S
H490 C466 0.930 . S
H491 C463 0.930 . S
H492 C472 0.930 . S
H493 C484 0.929 . S
H494 C487 0.930 . S
C495 C496 1.351 . S
C495 N498 1.368 . S
C495 H500 0.931 . S
C496 C495 1.351 . S
C496 N497 1.373 . S
C496 H524 0.930 . S
N497 C496 1.373 . S
N497 C499 1.340 . S
N498 C495 1.368 . S
N498 C499 1.321 . S
N498 Co501 2.135 . S
C499 N497 1.340 . S
C499 N498 1.321 . S
C499 H523 0.930 . S
H500 C495 0.931 . S
Co501 N498 2.135 . S
Co501 N504 2.121 . S
Co501 O509 2.055 . S
Co501 O512 2.039 . S
Co501 N515 2.140 . S
C502 O503 1.227 . S
C502 O512 1.265 . S
O503 C502 1.227 . S
N504 Co501 2.121 . S
N504 C506 1.375 . S
N504 C507 1.313 . S
C505 C506 1.338 . S
C505 N508 1.377 . S
C505 H525 0.930 . S
C506 N504 1.375 . S
C506 C505 1.338 . S
C506 H510 0.931 . S
C507 N504 1.313 . S
C507 N508 1.344 . S
C507 H511 0.930 . S
N508 C505 1.377 . S
N508 C507 1.344 . S
O509 Co501 2.055 . S
O509 C513 1.253 . S
H510 C506 0.931 . S
H511 C507 0.930 . S
O512 Co501 2.039 . S
O512 C502 1.265 . S
C513 O509 1.253 . S
C513 O514 1.227 . S
O514 C513 1.227 . S
N515 Co501 2.140 . S
N515 C518 1.346 . S
N515 C519 1.345 . S
C516 C517 1.387 . S
C516 C520 1.391 . S
C517 C516 1.387 . S
C517 C518 1.369 . S
C517 H526 0.929 . S
C518 N515 1.346 . S
C518 C517 1.369 . S
C518 H521 0.928 . S
C519 N515 1.345 . S
C519 C520 1.371 . S
C519 H522 0.931 . S
C520 C516 1.391 . S
C520 C519 1.371 . S
C520 H527 0.930 . S
H521 C518 0.928 . S
H522 C519 0.931 . S
H523 C499 0.930 . S
H524 C496 0.930 . S
H525 C505 0.930 . S
H526 C517 0.929 . S
H527 C520 0.930 . S
C21 C87 1.487 1_445 S
C120 C54 1.487 1_465 S
C219 C153 1.487 . S
C186 C252 1.487 . S
C351 C285 1.487 1_445 S
C318 C384 1.487 1_465 S
C483 C417 1.487 . S
C450 C516 1.487 . S
C7 C337 1.664 1_554 S
C370 C40 1.664 . S
C271 C73 1.664 1_556 S
C304 C106 1.664 . S
C469 C139 1.664 1_554 S
C502 C172 1.664 . S
C403 C205 1.664 1_554 S
C436 C238 1.664 . S
C18 C249 1.733 . S
C51 C150 1.733 . S
C183 C84 1.733 . S
C216 C117 1.733 . S
C282 C513 1.733 . S
C315 C414 1.733 . S
C348 C447 1.733 . S
C381 C480 1.733 . S
N464 N13 1.859 . S
N46 N497 1.859 . S
N398 N79 1.859 . S
N431 N112 1.859 . S
N332 N145 1.859 . S
N178 N365 1.859 . S
N266 N211 1.859 . S
N244 N299 1.859 . S
N200 N277 1.859 . S
N233 N310 1.859 . S
N134 N343 1.859 . S
N376 N167 1.859 . S
N68 N409 1.859 . S
N442 N101 1.859 . S
N475 N2 1.859 . S
N35 N508 1.859 . S
