# Generated by pormake.
# Topology tfs, (6)-cn, num edge types: 1
# Building blocks:
#     Node 0, Type 0, BuildingBlock: CUWYAW_clean_sbu_0, # of connection points: 6
#     Node 1, Type 0, BuildingBlock: CUWYAW_clean_sbu_0, # of connection points: 6
#     Node 2, Type 0, BuildingBlock: CUWYAW_clean_sbu_0, # of connection points: 6
#     Node 3, Type 0, BuildingBlock: CUWYAW_clean_sbu_0, # of connection points: 6
#     Node 4, Type 0, BuildingBlock: CUWYAW_clean_sbu_0, # of connection points: 6
#     Node 5, Type 0, BuildingBlock: CUWYAW_clean_sbu_0, # of connection points: 6
#     Edge 6, Type (0, 0), BuildingBlock: OJICUG_clean_linker_0, # of connection points: 2
#     Edge 7, Type (0, 0), BuildingBlock: OJICUG_clean_linker_0, # of connection points: 2
#     Edge 8, Type (0, 0), BuildingBlock: OJICUG_clean_linker_0, # of connection points: 2
#     Edge 9, Type (0, 0), BuildingBlock: OJICUG_clean_linker_0, # of connection points: 2
#     Edge 10, Type (0, 0), BuildingBlock: OJICUG_clean_linker_0, # of connection points: 2
#     Edge 11, Type (0, 0), BuildingBlock: OJICUG_clean_linker_0, # of connection points: 2
#     Edge 12, Type (0, 0), BuildingBlock: OJICUG_clean_linker_0, # of connection points: 2
#     Edge 13, Type (0, 0), BuildingBlock: OJICUG_clean_linker_0, # of connection points: 2
#     Edge 14, Type (0, 0), BuildingBlock: OJICUG_clean_linker_0, # of connection points: 2
#     Edge 15, Type (0, 0), BuildingBlock: OJICUG_clean_linker_0, # of connection points: 2
#     Edge 16, Type (0, 0), BuildingBlock: OJICUG_clean_linker_0, # of connection points: 2
#     Edge 17, Type (0, 0), BuildingBlock: OJICUG_clean_linker_0, # of connection points: 2
#     Edge 18, Type (0, 0), BuildingBlock: OJICUG_clean_linker_0, # of connection points: 2
#     Edge 19, Type (0, 0), BuildingBlock: OJICUG_clean_linker_0, # of connection points: 2
#     Edge 20, Type (0, 0), BuildingBlock: OJICUG_clean_linker_0, # of connection points: 2
#     Edge 21, Type (0, 0), BuildingBlock: OJICUG_clean_linker_0, # of connection points: 2
#     Edge 22, Type (0, 0), BuildingBlock: OJICUG_clean_linker_0, # of connection points: 2
#     Edge 23, Type (0, 0), BuildingBlock: OJICUG_clean_linker_0, # of connection points: 2
# Relax obj value: 0.568
# Max RMSD: 0.294
# Mean RMSD: 0.294
data_MOF--net-tfs--node1-CUWYAW_clean_sbu_0--edge1-OJICUG_clean_linker_0
_symmetry_space_group_name_H-M    P1
_symmetry_Int_Tables_number       1
_symmetry_cell_setting            triclinic
loop_
_symmetry_equiv_pos_as_xyz
'x, y, z'
_cell_length_a     44.646485
_cell_length_b     44.66206
_cell_length_c     10.40624
_cell_angle_alpha  90.042349
_cell_angle_beta   89.97347
_cell_angle_gamma 120.01784
loop_
_atom_site_label
_atom_site_type_symbol
_atom_site_fract_x
_atom_site_fract_y
_atom_site_fract_z
_atom_type_partial_charge
C0 C 0.20342 0.35022 0.91693 0.0
Eu1 Eu 0.19271 0.40012 0.98936 0.0
C2 C 0.22978 0.33971 0.93096 0.0
C3 C 0.24918 0.34636 0.04426 0.0
C4 C 0.27328 0.33518 0.05674 0.0
C5 C 0.27865 0.31729 0.95589 0.0
C6 C 0.25935 0.31107 0.8421 0.0
C7 C 0.23516 0.32213 0.83 0.0
C8 C 0.19057 0.417 0.23853 0.0
C9 C 0.11164 0.3775 0.99794 0.0
C10 C 0.16142 0.50371 0.10762 0.0
Eu11 Eu 0.17156 0.45405 0.02809 0.0
C12 C 0.17417 0.54104 0.08761 0.0
C13 C 0.16417 0.55276 0.97922 0.0
C14 C 0.17406 0.58768 0.96654 0.0
C15 C 0.19413 0.61172 0.0619 0.0
C16 C 0.20453 0.60007 0.16933 0.0
C17 C 0.19453 0.56511 0.18225 0.0
C18 C 0.17526 0.43881 0.77733 0.0
C19 C 0.25418 0.47802 0.02074 0.0
O20 O 0.18611 0.34896 0.02022 0.0
O21 O 0.21186 0.37765 0.84707 0.0
O22 O 0.2136 0.41023 0.19302 0.0
O23 O 0.16885 0.41289 0.15297 0.0
O24 O 0.13517 0.37272 0.93872 0.0
O25 O 0.1211 0.40569 0.06624 0.0
O26 O 0.18204 0.49512 0.16586 0.0
O27 O 0.14402 0.48258 0.01389 0.0
O28 O 0.15305 0.44686 0.82113 0.0
O29 O 0.19598 0.44179 0.86503 0.0
O30 O 0.2301 0.48607 0.04844 0.0
O31 O 0.24623 0.44652 0.98456 0.0
H32 H 0.24551 0.35994 0.12354 0.0
H33 H 0.28731 0.34011 0.14633 0.0
H34 H 0.26315 0.29796 0.7616 0.0
H35 H 0.22055 0.31687 0.74157 0.0
H36 H 0.14827 0.53492 0.90474 0.0
H37 H 0.16597 0.59587 0.88189 0.0
H38 H 0.21963 0.61781 0.24534 0.0
H39 H 0.20221 0.55681 0.26769 0.0
C40 C 0.85673 0.20088 0.92422 0.0
Eu41 Eu 0.79617 0.19069 0.99539 0.0
C42 C 0.8937 0.22717 0.93478 0.0
C43 C 0.9047 0.26248 0.94731 0.0
C44 C 0.94003 0.28686 0.95673 0.0
C45 C 0.96505 0.27639 0.95441 0.0
C46 C 0.95371 0.24089 0.94245 0.0
C47 C 0.91844 0.2166 0.93265 0.0
C48 C 0.77694 0.18865 0.2441 0.0
C49 C 0.73755 0.10958 1.00359 0.0
C50 C 0.66106 0.1586 0.11658 0.0
Eu51 Eu 0.72094 0.16965 0.03353 0.0
C52 C 0.63608 0.17066 0.10121 0.0
C53 C 0.60204 0.14928 0.14319 0.0
C54 C 0.57732 0.15944 0.12794 0.0
C55 C 0.58616 0.19127 0.07009 0.0
C56 C 0.62051 0.21283 0.02871 0.0
C57 C 0.64528 0.20255 0.04385 0.0
C58 C 0.73994 0.17312 0.78304 0.0
C59 C 0.77967 0.2522 0.024 0.0
O60 O 0.84128 0.18497 0.03026 0.0
O61 O 0.83735 0.20849 0.85266 0.0
O62 O 0.80675 0.21174 0.1988 0.0
O63 O 0.75939 0.16691 0.15843 0.0
O64 O 0.76623 0.13308 0.94627 0.0
O65 O 0.71854 0.11902 0.07013 0.0
O66 O 0.69045 0.17956 0.17311 0.0
O67 O 0.66474 0.14248 0.01833 0.0
O68 O 0.70957 0.15108 0.82662 0.0
O69 O 0.75772 0.19384 0.87074 0.0
O70 O 0.74749 0.22821 0.05193 0.0
O71 O 0.80322 0.24416 0.98869 0.0
H72 H 0.88601 0.27121 0.94947 0.0
H73 H 0.94774 0.31395 0.96428 0.0
H74 H 0.97206 0.23174 0.94249 0.0
H75 H 0.91045 0.18944 0.92376 0.0
H76 H 0.59451 0.12459 0.18784 0.0
H77 H 0.55133 0.14247 0.16284 0.0
H78 H 0.6281 0.23736 0.98281 0.0
H79 H 0.67147 0.21932 1.01027 0.0
C80 C 0.65852 0.85463 0.92394 0.0
Eu81 Eu 0.6089 0.79387 0.99671 0.0
C82 C 0.66894 0.89152 0.93657 0.0
C83 C 0.66264 0.90464 0.04968 0.0
C84 C 0.67392 0.93998 0.06097 0.0
C85 C 0.69157 0.96293 0.95913 0.0
C86 C 0.69742 0.94947 0.84553 0.0
C87 C 0.68626 0.91417 0.83459 0.0
C88 C 0.59206 0.77471 0.24569 0.0
C89 C 0.63194 0.73568 1.00435 0.0
C90 C 0.50649 0.65846 0.11765 0.0
Eu91 Eu 0.55511 0.71851 0.03518 0.0
C92 C 0.46944 0.63345 0.10167 0.0
C93 C 0.45683 0.59926 0.14156 0.0
C94 C 0.42195 0.57457 0.12575 0.0
C95 C 0.39889 0.58356 0.06944 0.0
C96 C 0.41163 0.61804 0.03013 0.0
C97 C 0.44669 0.64279 0.04581 0.0
C98 C 0.57038 0.73753 0.78454 0.0
C99 C 0.5307 0.77673 0.02766 0.0
O100 O 0.65981 0.83886 0.0279 0.0
O101 O 0.63117 0.83535 0.85391 0.0
O102 O 0.59872 0.8045 0.20053 0.0
O103 O 0.59625 0.7572 0.15985 0.0
O104 O 0.63685 0.76423 0.94687 0.0
O105 O 0.60361 0.7166 0.07146 0.0
O106 O 0.51482 0.68776 0.17469 0.0
O107 O 0.52638 0.66232 0.0195 0.0
O108 O 0.56232 0.70725 0.82806 0.0
O109 O 0.56732 0.7552 0.87241 0.0
O110 O 0.52279 0.74464 0.05501 0.0
O111 O 0.56218 0.80047 0.99194 0.0
H112 H 0.64928 0.88765 0.12977 0.0
H113 H 0.66927 0.94937 0.15044 0.0
H114 H 0.71035 0.96614 0.7643 0.0
H115 H 0.69128 0.90455 0.74631 0.0
H116 H 0.47404 0.59162 0.18502 0.0
H117 H 0.41297 0.54846 0.15902 0.0
H118 H 0.39465 0.62576 0.98541 0.0
H119 H 0.45605 0.66909 0.01383 0.0
C120 C 0.80747 0.65635 0.91749 0.0
Eu121 Eu 0.81846 0.60666 0.99021 0.0
C122 C 0.78124 0.66704 0.93156 0.0
C123 C 0.76208 0.66083 0.04529 0.0
C124 C 0.73816 0.67225 0.05777 0.0
C125 C 0.73274 0.68996 0.95652 0.0
C126 C 0.75182 0.69577 0.84235 0.0
C127 C 0.77581 0.68446 0.83023 0.0
C128 C 0.82087 0.59002 0.23949 0.0
C129 C 0.89959 0.62971 0.99756 0.0
C130 C 0.85163 0.50457 0.11252 0.0
Eu131 Eu 0.84004 0.55297 0.0292 0.0
C132 C 0.83961 0.46752 0.09736 0.0
C133 C 0.86101 0.45492 0.13949 0.0
C134 C 0.85081 0.42002 0.12472 0.0
C135 C 0.81893 0.39694 0.06722 0.0
C136 C 0.79736 0.40968 0.02562 0.0
C137 C 0.80768 0.44475 0.04029 0.0
C138 C 0.83623 0.56805 0.77831 0.0
C139 C 0.75736 0.52852 0.02141 0.0
O140 O 0.82496 0.65781 0.02046 0.0
O141 O 0.79885 0.62873 0.84831 0.0
O142 O 0.79772 0.59664 0.19419 0.0
O143 O 0.84255 0.59417 0.15362 0.0
O144 O 0.87591 0.63426 0.93855 0.0
O145 O 0.89035 0.60163 0.06607 0.0
O146 O 0.83066 0.51292 0.16938 0.0
O147 O 0.86755 0.52429 0.01393 0.0
O148 O 0.85851 0.56009 0.82205 0.0
O149 O 0.8155 0.56503 0.86614 0.0
O150 O 0.78153 0.52059 0.04889 0.0
O151 O 0.76515 0.55999 0.98562 0.0
H152 H 0.7658 0.6474 0.12489 0.0
H153 H 0.72431 0.66764 0.14766 0.0
H154 H 0.74797 0.70874 0.76156 0.0
H155 H 0.79025 0.68942 0.74149 0.0
H156 H 0.88574 0.47215 0.18395 0.0
H157 H 0.8678 0.41105 0.15976 0.0
H158 H 0.77279 0.39268 0.97996 0.0
H159 H 0.79088 0.45411 1.00662 0.0
C160 C 0.15408 0.8073 0.92335 0.0
Eu161 Eu 0.21451 0.81724 0.99473 0.0
C162 C 0.11715 0.78092 0.93364 0.0
C163 C 0.10634 0.74567 0.94671 0.0
C164 C 0.07105 0.72116 0.95608 0.0
C165 C 0.0459 0.73145 0.95323 0.0
C166 C 0.05705 0.76688 0.94064 0.0
C167 C 0.09228 0.7913 0.93086 0.0
C168 C 0.2336 0.81932 0.24363 0.0
C169 C 0.27316 0.89832 1.00386 0.0
C170 C 0.34923 0.84786 0.11146 0.0
Eu171 Eu 0.28957 0.83834 0.03294 0.0
C172 C 0.37338 0.83457 0.09066 0.0
C173 C 0.39584 0.84531 0.98428 0.0
C174 C 0.42048 0.83492 0.97096 0.0
C175 C 0.42336 0.81363 0.06377 0.0
C176 C 0.40052 0.80243 0.16901 0.0
C177 C 0.37592 0.8129 0.18254 0.0
C178 C 0.27059 0.83465 0.78236 0.0
C179 C 0.23072 0.75578 0.02505 0.0
O180 O 0.16946 0.82307 0.02969 0.0
O181 O 0.1735 0.79978 0.85155 0.0
O182 O 0.20385 0.79618 0.19805 0.0
O183 O 0.25118 0.8411 0.15819 0.0
O184 O 0.24476 0.87481 0.94504 0.0
O185 O 0.29196 0.88887 0.07161 0.0
O186 O 0.32 0.82762 0.17041 0.0
O187 O 0.34566 0.86536 0.01786 0.0
O188 O 0.30084 0.85691 0.82612 0.0
O189 O 0.25286 0.81391 0.87001 0.0
O190 O 0.26277 0.77988 0.05368 0.0
O191 O 0.20722 0.76368 0.98802 0.0
H192 H 0.12513 0.73708 0.94937 0.0
H193 H 0.06349 0.69411 0.96409 0.0
H194 H 0.03858 0.77588 0.94023 0.0
H195 H 0.10014 0.81842 0.92155 0.0
H196 H 0.39481 0.8622 0.91197 0.0
H197 H 0.43738 0.84367 0.88793 0.0
H198 H 0.40231 0.78637 0.24308 0.0
H199 H 0.35933 0.80459 0.26647 0.0
C200 C 0.35203 0.15303 0.92536 0.0
Eu201 Eu 0.4024 0.21354 0.9966 0.0
C202 C 0.34124 0.11608 0.93679 0.0
C203 C 0.3655 0.10503 0.9498 0.0
C204 C 0.35445 0.06972 0.96009 0.0
C205 C 0.31892 0.04479 0.95821 0.0
C206 C 0.29482 0.05618 0.9458 0.0
C207 C 0.3059 0.09143 0.9351 0.0
C208 C 0.4194 0.23272 0.24545 0.0
C209 C 0.3797 0.27195 1.00404 0.0
C210 C 0.50515 0.34853 0.11853 0.0
Eu211 Eu 0.45638 0.28871 0.03503 0.0
C212 C 0.54223 0.37335 0.10316 0.0
C213 C 0.55506 0.40742 0.1449 0.0
C214 C 0.58997 0.432 0.12914 0.0
C215 C 0.61282 0.42298 0.07102 0.0
C216 C 0.59987 0.38858 0.03012 0.0
C217 C 0.56479 0.36395 0.04575 0.0
C218 C 0.44103 0.26978 0.78439 0.0
C219 C 0.48044 0.23018 0.02539 0.0
O220 O 0.35141 0.1686 0.0309 0.0
O221 O 0.37918 0.17227 0.85423 0.0
O222 O 0.41282 0.20297 0.20001 0.0
O223 O 0.41518 0.25024 0.15984 0.0
O224 O 0.37471 0.24336 0.94668 0.0
O225 O 0.40806 0.29102 0.07101 0.0
O226 O 0.49658 0.31916 0.17524 0.0
O227 O 0.48544 0.34488 0.02004 0.0
O228 O 0.44924 0.3001 0.82816 0.0
O229 O 0.44401 0.25203 0.87201 0.0
O230 O 0.48853 0.26231 0.05329 0.0
O231 O 0.44887 0.20656 0.99006 0.0
H232 H 0.39294 0.12366 0.95166 0.0
H233 H 0.37379 0.06195 0.96796 0.0
H234 H 0.2673 0.0379 0.94616 0.0
H235 H 0.28678 0.09948 0.92587 0.0
H236 H 0.53799 0.41509 0.18958 0.0
H237 H 0.59912 0.45804 0.16367 0.0
H238 H 0.61672 0.38086 0.98408 0.0
H239 H 0.55524 0.33773 1.01237 0.0
C240 C 0.32199 0.26246 0.92887 0.0
C241 C 0.35354 0.2831 0.99266 0.0
H242 H 0.27344 0.25663 0.86924 0.0
C243 C 0.36016 0.31492 0.04475 0.0
H244 H 0.31597 0.23776 0.88799 0.0
C245 C 0.33595 0.32592 0.03286 0.0
C246 C 0.30436 0.30536 0.96901 0.0
H247 H 0.38426 0.33162 0.09397 0.0
H248 H 0.34232 0.35088 0.07208 0.0
C249 C 0.29767 0.27342 0.91741 0.0
C250 C 0.0496 0.35507 0.05887 0.0
C251 C 0.07429 0.35133 0.98741 0.0
H252 H 0.9962 0.33434 0.10638 0.0
C253 C 0.06281 0.3227 0.90503 0.0
H254 H 0.05747 0.3767 0.12378 0.0
C255 C 0.02748 0.2985 0.89399 0.0
C256 C 1.00273 0.30225 0.96542 0.0
H257 H 0.08107 0.3191 0.84802 0.0
H258 H 0.01954 0.2771 0.82792 0.0
C259 C 0.01433 0.33085 0.04821 0.0
C260 C 0.74665 0.06105 0.92885 0.0
C261 C 0.72625 0.07221 0.99295 0.0
H262 H 0.75214 0.01808 0.86981 0.0
C263 C 0.69451 0.04719 0.04616 0.0
H264 H 0.77128 0.07958 0.88707 0.0
C265 C 0.68335 0.01193 0.03519 0.0
C266 C 0.70367 1.00064 0.9711 0.0
H267 H 0.67799 0.05477 0.09566 0.0
H268 H 0.65846 0.99349 0.07535 0.0
C269 C 0.73553 0.02571 0.91825 0.0
C270 C 0.71381 0.73388 0.91701 0.0
C271 C 0.70714 0.70205 0.96954 0.0
H272 H 0.69555 0.76955 0.8868 0.0
C273 C 0.67563 0.68171 0.03418 0.0
H274 H 0.73798 0.7505 0.86813 0.0
C275 C 0.6515 0.69281 0.04597 0.0
C276 C 0.65809 0.72452 0.99302 0.0
H277 H 0.66927 0.65683 0.07409 0.0
H278 H 0.62748 0.67626 0.09583 0.0
C279 C 0.68956 0.74495 0.92841 0.0
C280 C 0.99686 0.67702 0.04786 0.0
C281 C 0.00828 0.70544 0.96445 0.0
H282 H 0.95393 0.63114 0.12405 0.0
C283 C 0.98343 0.70887 0.89261 0.0
H284 H 0.01509 0.67379 0.10637 0.0
C285 C 0.94815 0.68451 0.90382 0.0
C286 C 0.93685 0.65605 0.98677 0.0
H287 H 0.99124 0.73014 0.8261 0.0
H288 H 0.92979 0.68785 0.84649 0.0
C289 C 0.96166 0.65264 0.05866 0.0
C290 C 0.26728 0.94706 0.91034 0.0
C291 C 0.28438 0.93563 0.99305 0.0
H292 H 0.26508 0.99027 0.83236 0.0
C293 C 0.31282 0.96034 0.06437 0.0
H294 H 0.24541 0.92877 0.85341 0.0
C295 C 0.32394 0.9956 0.05318 0.0
C296 C 0.30701 0.00714 0.96997 0.0
H297 H 0.32655 0.9525 0.12953 0.0
H298 H 0.34559 0.01377 0.1112 0.0
C299 C 0.27849 0.98237 0.89874 0.0
C300 C 0.18801 0.69239 0.99943 0.0
C301 C 0.22133 0.71892 0.03327 0.0
H302 H 0.15325 0.63786 0.9828 0.0
C303 C 0.2457 0.70988 0.07553 0.0
H304 H 0.16856 0.69836 0.96676 0.0
C305 C 0.23693 0.67519 0.0843 0.0
C306 C 0.20361 0.64866 0.0507 0.0
H307 H 0.27164 0.72958 0.10217 0.0
H308 H 0.2564 0.66917 0.11628 0.0
C309 C 0.17928 0.65768 1.00785 0.0
C310 C 0.54182 0.24516 0.06844 0.0
C311 C 0.50778 0.22056 0.03303 0.0
H312 H 0.59312 0.25523 0.10859 0.0
C313 C 0.50006 0.18657 1.00634 0.0
H314 H 0.54875 0.2716 0.08962 0.0
C315 C 0.52558 0.17728 0.01661 0.0
C316 C 0.55949 0.20171 0.05384 0.0
H317 H 0.47421 0.16697 0.97815 0.0
H318 H 0.51873 0.15089 0.9949 0.0
C319 C 0.56737 0.23585 0.07854 0.0
C320 C 0.33547 0.56467 0.07862 0.0
C321 C 0.36176 0.55692 0.05258 0.0
H322 H 0.28106 0.54599 0.08977 0.0
C323 C 0.35229 0.52317 0.01319 0.0
H324 H 0.34182 0.59028 0.11039 0.0
C325 C 0.31747 0.4977 1.00193 0.0
C326 C 0.29116 0.5053 0.02976 0.0
H327 H 0.37186 0.51642 0.99045 0.0
H328 H 0.31123 0.47199 0.97195 0.0
C329 C 0.3006 0.53917 0.06752 0.0
C330 C 0.83279 0.35023 0.01458 0.0
C331 C 0.80841 0.35979 0.05157 0.0
H332 H 0.84297 0.30907 0.97659 0.0
C333 C 0.77425 0.3336 0.0765 0.0
H334 H 0.8592 0.36972 0.99272 0.0
C335 C 0.76486 0.29871 0.06674 0.0
C336 C 0.78939 0.28918 0.03148 0.0
H337 H 0.75491 0.34003 0.1064 0.0
H338 H 0.73839 0.27925 0.08803 0.0
C339 C 0.82341 0.31539 1.00466 0.0
C340 C 0.4844 0.82852 0.01382 0.0
C341 C 0.45071 0.80395 0.05266 0.0
H342 H 0.536 0.83937 0.97601 0.0
C343 C 0.44353 0.7703 0.08246 0.0
H344 H 0.49096 0.85481 0.9919 0.0
C345 C 0.46941 0.76144 0.07386 0.0
C346 C 0.50316 0.78607 0.03559 0.0
H347 H 0.41777 0.75066 0.11133 0.0
H348 H 0.46289 0.73525 0.09742 0.0
C349 C 0.51032 0.8197 1.0055 0.0
C350 C 0.71107 0.46725 0.06678 0.0
C351 C 0.72044 0.50117 0.03024 0.0
H352 H 0.66988 0.41607 0.10898 0.0
C353 C 0.69411 0.5088 1.00364 0.0
H354 H 0.73064 0.4604 0.08792 0.0
C355 C 0.65931 0.48333 0.01513 0.0
C356 C 0.64991 0.44955 0.05356 0.0
H357 H 0.70029 0.53456 0.97456 0.0
H358 H 0.63972 0.49011 0.99346 0.0
C359 C 0.67621 0.44173 0.07811 0.0
C360 C 0.20708 0.42928 0.59757 0.0
C361 C 0.17938 0.43328 0.63968 0.0
H362 H 0.23241 0.42112 0.43727 0.0
C363 C 0.15565 0.43229 0.54867 0.0
H364 H 0.22588 0.43014 0.66543 0.0
C365 C 0.15944 0.42728 0.4182 0.0
C366 C 0.18702 0.42309 0.37611 0.0
H367 H 0.13407 0.43536 0.57829 0.0
H368 H 0.14069 0.42656 0.35037 0.0
C369 C 0.21086 0.42423 0.46699 0.0
C370 C 0.72677 0.1536 0.55421 0.0
C371 C 0.74956 0.17727 0.64535 0.0
H372 H 0.71747 0.13875 0.35576 0.0
C373 C 0.78127 0.20497 0.60334 0.0
H374 H 0.70212 0.13202 0.58376 0.0
C375 C 0.79005 0.20883 0.47272 0.0
C376 C 0.7673 0.18505 0.38169 0.0
H377 H 0.79925 0.22372 0.6713 0.0
H378 H 0.81471 0.23038 0.44309 0.0
C379 C 0.73553 0.15746 0.4237 0.0
C380 C 0.57701 0.72454 0.5557 0.0
C381 C 0.57589 0.7472 0.64687 0.0
H382 H 0.58282 0.71539 0.3573 0.0
C383 C 0.57972 0.77882 0.60489 0.0
H384 H 0.57408 0.69996 0.58519 0.0
C385 C 0.58473 0.78766 0.47432 0.0
C386 C 0.58601 0.76504 0.38327 0.0
H387 H 0.57875 0.7967 0.67283 0.0
H388 H 0.58771 0.81225 0.44474 0.0
C389 C 0.58199 0.73335 0.42523 0.0
C390 C 0.85593 0.57481 0.54948 0.0
C391 C 0.83212 0.57363 0.64064 0.0
H392 H 0.87096 0.58075 0.35114 0.0
C393 C 0.80434 0.57751 0.59865 0.0
H394 H 0.87758 0.57186 0.57896 0.0
C395 C 0.80055 0.58261 0.46812 0.0
C396 C 0.82447 0.58393 0.37708 0.0
H397 H 0.78547 0.5765 0.66655 0.0
H398 H 0.77894 0.5856 0.43855 0.0
C399 C 0.85214 0.57988 0.41905 0.0
C400 C 0.22051 0.79898 0.47198 0.0
C401 C 0.24321 0.82286 0.38118 0.0
H402 H 0.21136 0.78395 0.67039 0.0
C403 C 0.27494 0.85049 0.42334 0.0
H404 H 0.19589 0.7774 0.4422 0.0
C405 C 0.28372 0.85429 0.55381 0.0
C406 C 0.26097 0.83052 0.64473 0.0
H407 H 0.29297 0.86928 0.35557 0.0
H408 H 0.30833 0.87591 0.58349 0.0
C409 C 0.22931 0.80277 0.60257 0.0
C410 C 0.43158 0.22848 0.60454 0.0
C411 C 0.43554 0.26016 0.6467 0.0
H412 H 0.42353 0.19505 0.44419 0.0
C413 C 0.43455 0.28289 0.55571 0.0
H414 H 0.43243 0.21054 0.67238 0.0
C415 C 0.42958 0.2741 0.4252 0.0
C416 C 0.42545 0.24237 0.38305 0.0
H417 H 0.43757 0.30751 0.58537 0.0
H418 H 0.42885 0.29212 0.35738 0.0
C419 C 0.4266 0.21968 0.47393 0.0
loop_
_geom_bond_atom_site_label_1
_geom_bond_atom_site_label_2
_geom_bond_distance
_geom_bond_site_symmetry_2
_ccdc_geom_bond_type
C0 Eu1 2.835 1_556 S
C0 C2 1.500 . S
C0 O20 1.257 . S
C0 O21 1.260 1_556 S
Eu1 C0 2.835 1_554 S
Eu1 O20 2.473 1_554 S
Eu1 O21 2.480 . S
Eu1 O22 2.430 . S
Eu1 O23 2.670 . S
Eu1 O24 2.394 . S
Eu1 O29 2.355 1_554 S
Eu1 O31 2.374 . S
C2 C0 1.500 . S
C2 C3 1.377 1_556 S
C2 C7 1.377 . S
C3 C2 1.377 1_554 S
C3 C4 1.395 . S
C3 H32 0.931 . S
C4 C3 1.395 . S
C4 C5 1.383 1_554 S
C4 H33 0.931 . S
C5 C4 1.383 1_556 S
C5 C6 1.394 . S
C6 C5 1.394 . S
C6 C7 1.378 . S
C6 H34 0.931 . S
C7 C2 1.377 . S
C7 C6 1.378 . S
C7 H35 0.931 . S
C8 O22 1.259 . S
C8 O23 1.270 . S
C9 O24 1.251 . S
C9 O25 1.251 . S
C10 Eu11 2.835 1_554 S
C10 C12 1.500 . S
C10 O26 1.257 . S
C10 O27 1.260 1_554 S
Eu11 C10 2.835 1_556 S
Eu11 O23 2.355 1_556 S
Eu11 O25 2.374 1_556 S
Eu11 O26 2.473 1_556 S
Eu11 O27 2.480 . S
Eu11 O28 2.430 . S
Eu11 O29 2.670 . S
Eu11 O30 2.394 . S
C12 C10 1.500 . S
C12 C13 1.377 1_554 S
C12 C17 1.377 . S
C13 C12 1.377 1_556 S
C13 C14 1.395 . S
C13 H36 0.931 . S
C14 C13 1.395 . S
C14 C15 1.383 1_556 S
C14 H37 0.931 . S
C15 C14 1.383 1_554 S
C15 C16 1.394 . S
C16 C15 1.394 . S
C16 C17 1.378 . S
C16 H38 0.931 . S
C17 C12 1.377 . S
C17 C16 1.378 . S
C17 H39 0.931 . S
C18 O28 1.259 . S
C18 O29 1.270 . S
C19 O30 1.251 . S
C19 O31 1.251 1_556 S
O20 C0 1.257 . S
O20 Eu1 2.473 1_556 S
O21 C0 1.260 1_554 S
O21 Eu1 2.480 . S
O22 Eu1 2.430 . S
O22 C8 1.259 . S
O23 Eu1 2.670 . S
O23 C8 1.270 . S
O23 Eu11 2.355 1_554 S
O24 Eu1 2.394 . S
O24 C9 1.251 . S
O25 C9 1.251 . S
O25 Eu11 2.374 1_554 S
O26 C10 1.257 . S
O26 Eu11 2.473 1_554 S
O27 C10 1.260 1_556 S
O27 Eu11 2.480 . S
O28 Eu11 2.430 . S
O28 C18 1.259 . S
O29 Eu1 2.355 1_556 S
O29 Eu11 2.670 . S
O29 C18 1.270 . S
O30 Eu11 2.394 . S
O30 C19 1.251 . S
O31 Eu1 2.374 . S
O31 C19 1.251 1_554 S
H32 C3 0.931 . S
H33 C4 0.931 . S
H34 C6 0.931 . S
H35 C7 0.931 . S
H36 C13 0.931 . S
H37 C14 0.931 . S
H38 C16 0.931 . S
H39 C17 0.931 . S
C40 Eu41 2.835 1_556 S
C40 C42 1.500 . S
C40 O60 1.257 . S
C40 O61 1.260 1_556 S
Eu41 C40 2.835 1_554 S
Eu41 O60 2.473 1_554 S
Eu41 O61 2.480 . S
Eu41 O62 2.430 . S
Eu41 O63 2.670 . S
Eu41 O64 2.394 . S
Eu41 O69 2.355 1_554 S
Eu41 O71 2.374 . S
C42 C40 1.500 . S
C42 C43 1.377 1_556 S
C42 C47 1.377 . S
C43 C42 1.377 1_554 S
C43 C44 1.395 . S
C43 H72 0.931 . S
C44 C43 1.395 . S
C44 C45 1.383 1_554 S
C44 H73 0.931 . S
C45 C44 1.383 1_556 S
C45 C46 1.394 . S
C46 C45 1.394 . S
C46 C47 1.378 . S
C46 H74 0.931 . S
C47 C42 1.377 . S
C47 C46 1.378 . S
C47 H75 0.931 . S
C48 O62 1.259 . S
C48 O63 1.270 . S
C49 O64 1.251 . S
C49 O65 1.251 . S
C50 Eu51 2.835 1_554 S
C50 C52 1.500 . S
C50 O66 1.257 . S
C50 O67 1.260 1_554 S
Eu51 C50 2.835 1_556 S
Eu51 O63 2.355 1_556 S
Eu51 O65 2.374 1_556 S
Eu51 O66 2.473 1_556 S
Eu51 O67 2.480 . S
Eu51 O68 2.430 . S
Eu51 O69 2.670 . S
Eu51 O70 2.394 . S
C52 C50 1.500 . S
C52 C53 1.377 1_554 S
C52 C57 1.377 . S
C53 C52 1.377 1_556 S
C53 C54 1.395 . S
C53 H76 0.931 . S
C54 C53 1.395 . S
C54 C55 1.383 1_556 S
C54 H77 0.931 . S
C55 C54 1.383 1_554 S
C55 C56 1.394 . S
C56 C55 1.394 . S
C56 C57 1.378 . S
C56 H78 0.931 . S
C57 C52 1.377 . S
C57 C56 1.378 . S
C57 H79 0.931 . S
C58 O68 1.259 . S
C58 O69 1.270 . S
C59 O70 1.251 . S
C59 O71 1.251 1_556 S
O60 C40 1.257 . S
O60 Eu41 2.473 1_556 S
O61 C40 1.260 1_554 S
O61 Eu41 2.480 . S
O62 Eu41 2.430 . S
O62 C48 1.259 . S
O63 Eu41 2.670 . S
O63 C48 1.270 . S
O63 Eu51 2.355 1_554 S
O64 Eu41 2.394 . S
O64 C49 1.251 . S
O65 C49 1.251 . S
O65 Eu51 2.374 1_554 S
O66 C50 1.257 . S
O66 Eu51 2.473 1_554 S
O67 C50 1.260 1_556 S
O67 Eu51 2.480 . S
O68 Eu51 2.430 . S
O68 C58 1.259 . S
O69 Eu41 2.355 1_556 S
O69 Eu51 2.670 . S
O69 C58 1.270 . S
O70 Eu51 2.394 . S
O70 C59 1.251 . S
O71 Eu41 2.374 . S
O71 C59 1.251 1_554 S
H72 C43 0.931 . S
H73 C44 0.931 . S
H74 C46 0.931 . S
H75 C47 0.931 . S
H76 C53 0.931 . S
H77 C54 0.931 . S
H78 C56 0.931 . S
H79 C57 0.931 . S
C80 Eu81 2.835 1_556 S
C80 C82 1.500 . S
C80 O100 1.257 . S
C80 O101 1.260 1_556 S
Eu81 C80 2.835 1_554 S
Eu81 O100 2.473 1_554 S
Eu81 O101 2.480 . S
Eu81 O102 2.430 . S
Eu81 O103 2.670 . S
Eu81 O104 2.394 . S
Eu81 O109 2.355 1_554 S
Eu81 O111 2.374 . S
C82 C80 1.500 . S
C82 C83 1.377 1_556 S
C82 C87 1.377 . S
C83 C82 1.377 1_554 S
C83 C84 1.395 . S
C83 H112 0.931 . S
C84 C83 1.395 . S
C84 C85 1.383 1_554 S
C84 H113 0.931 . S
C85 C84 1.383 1_556 S
C85 C86 1.394 . S
C86 C85 1.394 . S
C86 C87 1.378 . S
C86 H114 0.931 . S
C87 C82 1.377 . S
C87 C86 1.378 . S
C87 H115 0.931 . S
C88 O102 1.259 . S
C88 O103 1.270 . S
C89 O104 1.251 . S
C89 O105 1.251 . S
C90 Eu91 2.835 1_554 S
C90 C92 1.500 . S
C90 O106 1.257 . S
C90 O107 1.260 1_554 S
Eu91 C90 2.835 1_556 S
Eu91 O103 2.355 1_556 S
Eu91 O105 2.374 1_556 S
Eu91 O106 2.473 1_556 S
Eu91 O107 2.480 . S
Eu91 O108 2.430 . S
Eu91 O109 2.670 . S
Eu91 O110 2.394 . S
C92 C90 1.500 . S
C92 C93 1.377 1_554 S
C92 C97 1.377 . S
C93 C92 1.377 1_556 S
C93 C94 1.395 . S
C93 H116 0.931 . S
C94 C93 1.395 . S
C94 C95 1.383 1_556 S
C94 H117 0.931 . S
C95 C94 1.383 1_554 S
C95 C96 1.394 . S
C96 C95 1.394 . S
C96 C97 1.378 . S
C96 H118 0.931 . S
C97 C92 1.377 . S
C97 C96 1.378 . S
C97 H119 0.931 . S
C98 O108 1.259 . S
C98 O109 1.270 . S
C99 O110 1.251 . S
C99 O111 1.251 1_556 S
O100 C80 1.257 . S
O100 Eu81 2.473 1_556 S
O101 C80 1.260 1_554 S
O101 Eu81 2.480 . S
O102 Eu81 2.430 . S
O102 C88 1.259 . S
O103 Eu81 2.670 . S
O103 C88 1.270 . S
O103 Eu91 2.355 1_554 S
O104 Eu81 2.394 . S
O104 C89 1.251 . S
O105 C89 1.251 . S
O105 Eu91 2.374 1_554 S
O106 C90 1.257 . S
O106 Eu91 2.473 1_554 S
O107 C90 1.260 1_556 S
O107 Eu91 2.480 . S
O108 Eu91 2.430 . S
O108 C98 1.259 . S
O109 Eu81 2.355 1_556 S
O109 Eu91 2.670 . S
O109 C98 1.270 . S
O110 Eu91 2.394 . S
O110 C99 1.251 . S
O111 Eu81 2.374 . S
O111 C99 1.251 1_554 S
H112 C83 0.931 . S
H113 C84 0.931 . S
H114 C86 0.931 . S
H115 C87 0.931 . S
H116 C93 0.931 . S
H117 C94 0.931 . S
H118 C96 0.931 . S
H119 C97 0.931 . S
C120 Eu121 2.835 1_556 S
C120 C122 1.500 . S
C120 O140 1.257 . S
C120 O141 1.260 1_556 S
Eu121 C120 2.835 1_554 S
Eu121 O140 2.473 1_554 S
Eu121 O141 2.480 . S
Eu121 O142 2.430 . S
Eu121 O143 2.670 . S
Eu121 O144 2.394 . S
Eu121 O149 2.355 1_554 S
Eu121 O151 2.374 . S
C122 C120 1.500 . S
C122 C123 1.377 1_556 S
C122 C127 1.377 . S
C123 C122 1.377 1_554 S
C123 C124 1.395 . S
C123 H152 0.931 . S
C124 C123 1.395 . S
C124 C125 1.383 1_554 S
C124 H153 0.931 . S
C125 C124 1.383 1_556 S
C125 C126 1.394 . S
C126 C125 1.394 . S
C126 C127 1.378 . S
C126 H154 0.931 . S
C127 C122 1.377 . S
C127 C126 1.378 . S
C127 H155 0.931 . S
C128 O142 1.259 . S
C128 O143 1.270 . S
C129 O144 1.251 . S
C129 O145 1.251 . S
C130 Eu131 2.835 1_554 S
C130 C132 1.500 . S
C130 O146 1.257 . S
C130 O147 1.260 1_554 S
Eu131 C130 2.835 1_556 S
Eu131 O143 2.355 1_556 S
Eu131 O145 2.374 1_556 S
Eu131 O146 2.473 1_556 S
Eu131 O147 2.480 . S
Eu131 O148 2.430 . S
Eu131 O149 2.670 . S
Eu131 O150 2.394 . S
C132 C130 1.500 . S
C132 C133 1.377 1_554 S
C132 C137 1.377 . S
C133 C132 1.377 1_556 S
C133 C134 1.395 . S
C133 H156 0.931 . S
C134 C133 1.395 . S
C134 C135 1.383 1_556 S
C134 H157 0.931 . S
C135 C134 1.383 1_554 S
C135 C136 1.394 . S
C136 C135 1.394 . S
C136 C137 1.378 . S
C136 H158 0.931 . S
C137 C132 1.377 . S
C137 C136 1.378 . S
C137 H159 0.931 . S
C138 O148 1.259 . S
C138 O149 1.270 . S
C139 O150 1.251 . S
C139 O151 1.251 1_556 S
O140 C120 1.257 . S
O140 Eu121 2.473 1_556 S
O141 C120 1.260 1_554 S
O141 Eu121 2.480 . S
O142 Eu121 2.430 . S
O142 C128 1.259 . S
O143 Eu121 2.670 . S
O143 C128 1.270 . S
O143 Eu131 2.355 1_554 S
O144 Eu121 2.394 . S
O144 C129 1.251 . S
O145 C129 1.251 . S
O145 Eu131 2.374 1_554 S
O146 C130 1.257 . S
O146 Eu131 2.473 1_554 S
O147 C130 1.260 1_556 S
O147 Eu131 2.480 . S
O148 Eu131 2.430 . S
O148 C138 1.259 . S
O149 Eu121 2.355 1_556 S
O149 Eu131 2.670 . S
O149 C138 1.270 . S
O150 Eu131 2.394 . S
O150 C139 1.251 . S
O151 Eu121 2.374 . S
O151 C139 1.251 1_554 S
H152 C123 0.931 . S
H153 C124 0.931 . S
H154 C126 0.931 . S
H155 C127 0.931 . S
H156 C133 0.931 . S
H157 C134 0.931 . S
H158 C136 0.931 . S
H159 C137 0.931 . S
C160 Eu161 2.835 1_556 S
C160 C162 1.500 . S
C160 O180 1.257 . S
C160 O181 1.260 1_556 S
Eu161 C160 2.835 1_554 S
Eu161 O180 2.473 1_554 S
Eu161 O181 2.480 . S
Eu161 O182 2.430 . S
Eu161 O183 2.670 . S
Eu161 O184 2.394 . S
Eu161 O189 2.355 1_554 S
Eu161 O191 2.374 . S
C162 C160 1.500 . S
C162 C163 1.377 1_556 S
C162 C167 1.377 . S
C163 C162 1.377 1_554 S
C163 C164 1.395 . S
C163 H192 0.931 . S
C164 C163 1.395 . S
C164 C165 1.383 1_554 S
C164 H193 0.931 . S
C165 C164 1.383 1_556 S
C165 C166 1.394 . S
C166 C165 1.394 . S
C166 C167 1.378 . S
C166 H194 0.931 . S
C167 C162 1.377 . S
C167 C166 1.378 . S
C167 H195 0.931 . S
C168 O182 1.259 . S
C168 O183 1.270 . S
C169 O184 1.251 . S
C169 O185 1.251 . S
C170 Eu171 2.835 1_554 S
C170 C172 1.500 . S
C170 O186 1.257 . S
C170 O187 1.260 1_554 S
Eu171 C170 2.835 1_556 S
Eu171 O183 2.355 1_556 S
Eu171 O185 2.374 1_556 S
Eu171 O186 2.473 1_556 S
Eu171 O187 2.480 . S
Eu171 O188 2.430 . S
Eu171 O189 2.670 . S
Eu171 O190 2.394 . S
C172 C170 1.500 . S
C172 C173 1.377 1_554 S
C172 C177 1.377 . S
C173 C172 1.377 1_556 S
C173 C174 1.395 . S
C173 H196 0.931 . S
C174 C173 1.395 . S
C174 C175 1.383 1_556 S
C174 H197 0.931 . S
C175 C174 1.383 1_554 S
C175 C176 1.394 . S
C176 C175 1.394 . S
C176 C177 1.378 . S
C176 H198 0.931 . S
C177 C172 1.377 . S
C177 C176 1.378 . S
C177 H199 0.931 . S
C178 O188 1.259 . S
C178 O189 1.270 . S
C179 O190 1.251 . S
C179 O191 1.251 1_556 S
O180 C160 1.257 . S
O180 Eu161 2.473 1_556 S
O181 C160 1.260 1_554 S
O181 Eu161 2.480 . S
O182 Eu161 2.430 . S
O182 C168 1.259 . S
O183 Eu161 2.670 . S
O183 C168 1.270 . S
O183 Eu171 2.355 1_554 S
O184 Eu161 2.394 . S
O184 C169 1.251 . S
O185 C169 1.251 . S
O185 Eu171 2.374 1_554 S
O186 C170 1.257 . S
O186 Eu171 2.473 1_554 S
O187 C170 1.260 1_556 S
O187 Eu171 2.480 . S
O188 Eu171 2.430 . S
O188 C178 1.259 . S
O189 Eu161 2.355 1_556 S
O189 Eu171 2.670 . S
O189 C178 1.270 . S
O190 Eu171 2.394 . S
O190 C179 1.251 . S
O191 Eu161 2.374 . S
O191 C179 1.251 1_554 S
H192 C163 0.931 . S
H193 C164 0.931 . S
H194 C166 0.931 . S
H195 C167 0.931 . S
H196 C173 0.931 . S
H197 C174 0.931 . S
H198 C176 0.931 . S
H199 C177 0.931 . S
C200 Eu201 2.835 1_556 S
C200 C202 1.500 . S
C200 O220 1.257 . S
C200 O221 1.260 1_556 S
Eu201 C200 2.835 1_554 S
Eu201 O220 2.473 1_554 S
Eu201 O221 2.480 . S
Eu201 O222 2.430 . S
Eu201 O223 2.670 . S
Eu201 O224 2.394 . S
Eu201 O229 2.355 1_554 S
Eu201 O231 2.374 . S
C202 C200 1.500 . S
C202 C203 1.377 1_556 S
C202 C207 1.377 . S
C203 C202 1.377 1_554 S
C203 C204 1.395 . S
C203 H232 0.931 . S
C204 C203 1.395 . S
C204 C205 1.383 1_554 S
C204 H233 0.931 . S
C205 C204 1.383 1_556 S
C205 C206 1.394 . S
C206 C205 1.394 . S
C206 C207 1.378 . S
C206 H234 0.931 . S
C207 C202 1.377 . S
C207 C206 1.378 . S
C207 H235 0.931 . S
C208 O222 1.259 . S
C208 O223 1.270 . S
C209 O224 1.251 . S
C209 O225 1.251 . S
C210 Eu211 2.835 1_554 S
C210 C212 1.500 . S
C210 O226 1.257 . S
C210 O227 1.260 1_554 S
Eu211 C210 2.835 1_556 S
Eu211 O223 2.355 1_556 S
Eu211 O225 2.374 1_556 S
Eu211 O226 2.473 1_556 S
Eu211 O227 2.480 . S
Eu211 O228 2.430 . S
Eu211 O229 2.670 . S
Eu211 O230 2.394 . S
C212 C210 1.500 . S
C212 C213 1.377 1_554 S
C212 C217 1.377 . S
C213 C212 1.377 1_556 S
C213 C214 1.395 . S
C213 H236 0.931 . S
C214 C213 1.395 . S
C214 C215 1.383 1_556 S
C214 H237 0.931 . S
C215 C214 1.383 1_554 S
C215 C216 1.394 . S
C216 C215 1.394 . S
C216 C217 1.378 . S
C216 H238 0.931 . S
C217 C212 1.377 . S
C217 C216 1.378 . S
C217 H239 0.931 . S
C218 O228 1.259 . S
C218 O229 1.270 . S
C219 O230 1.251 . S
C219 O231 1.251 1_556 S
O220 C200 1.257 . S
O220 Eu201 2.473 1_556 S
O221 C200 1.260 1_554 S
O221 Eu201 2.480 . S
O222 Eu201 2.430 . S
O222 C208 1.259 . S
O223 Eu201 2.670 . S
O223 C208 1.270 . S
O223 Eu211 2.355 1_554 S
O224 Eu201 2.394 . S
O224 C209 1.251 . S
O225 C209 1.251 . S
O225 Eu211 2.374 1_554 S
O226 C210 1.257 . S
O226 Eu211 2.473 1_554 S
O227 C210 1.260 1_556 S
O227 Eu211 2.480 . S
O228 Eu211 2.430 . S
O228 C218 1.259 . S
O229 Eu201 2.355 1_556 S
O229 Eu211 2.670 . S
O229 C218 1.270 . S
O230 Eu211 2.394 . S
O230 C219 1.251 . S
O231 Eu201 2.374 . S
O231 C219 1.251 1_554 S
H232 C203 0.931 . S
H233 C204 0.931 . S
H234 C206 0.931 . S
H235 C207 0.931 . S
H236 C213 0.931 . S
H237 C214 0.931 . S
H238 C216 0.931 . S
H239 C217 0.931 . S
C240 C241 1.387 . S
C240 H244 0.950 1_556 S
C240 C249 1.390 . S
C241 C240 1.387 . S
C241 C243 1.387 . S
H242 C249 0.950 . S
C243 C241 1.387 . S
C243 C245 1.390 . S
C243 H247 0.950 . S
H244 C240 0.950 1_554 S
C245 C243 1.390 . S
C245 C246 1.387 . S
C245 H248 0.950 . S
C246 C245 1.387 . S
C246 C249 1.387 . S
H247 C243 0.950 . S
H248 C245 0.950 . S
C249 C240 1.390 . S
C249 H242 0.950 . S
C249 C246 1.387 . S
C250 C251 1.387 1_554 S
C250 H254 0.950 . S
C250 C259 1.390 . S
C251 C250 1.387 1_556 S
C251 C253 1.387 . S
H252 C259 0.950 . S
C253 C251 1.387 . S
C253 C255 1.390 . S
C253 H257 0.950 . S
H254 C250 0.950 . S
C255 C253 1.390 . S
C255 C256 1.387 . S
C255 H258 0.950 . S
C256 C255 1.387 . S
C256 C259 1.387 1_556 S
H257 C253 0.950 . S
H258 C255 0.950 . S
C259 C250 1.390 . S
C259 H252 0.950 . S
C259 C256 1.387 1_554 S
C260 C261 1.387 . S
C260 H264 0.950 . S
C260 C269 1.390 . S
C261 C260 1.387 . S
C261 C263 1.387 1_556 S
H262 C269 0.950 . S
C263 C261 1.387 1_554 S
C263 C265 1.390 . S
C263 H267 0.950 . S
H264 C260 0.950 . S
C265 C263 1.390 . S
C265 C266 1.387 1_554 S
C265 H268 0.950 . S
C266 C265 1.387 1_556 S
C266 C269 1.387 . S
H267 C263 0.950 . S
H268 C265 0.950 . S
C269 C260 1.390 . S
C269 H262 0.950 . S
C269 C266 1.387 . S
C270 C271 1.389 . S
C270 H274 0.949 1_556 S
C270 C279 1.390 1_556 S
C271 C270 1.389 . S
C271 C273 1.387 . S
H272 C279 0.950 . S
C273 C271 1.387 . S
C273 C275 1.390 . S
C273 H277 0.950 . S
H274 C270 0.949 1_554 S
C275 C273 1.390 . S
C275 C276 1.387 . S
C275 H278 0.950 . S
C276 C275 1.387 . S
C276 C279 1.387 1_556 S
H277 C273 0.950 . S
H278 C275 0.950 . S
C279 C270 1.390 1_554 S
C279 H272 0.950 . S
C279 C276 1.387 1_554 S
C280 C281 1.387 1_554 S
C280 H284 0.950 . S
C280 C289 1.390 . S
C281 C280 1.387 1_556 S
C281 C283 1.387 . S
H282 C289 0.950 . S
C283 C281 1.387 . S
C283 C285 1.390 . S
C283 H287 0.950 . S
H284 C280 0.950 . S
C285 C283 1.390 . S
C285 C286 1.387 . S
C285 H288 0.950 . S
C286 C285 1.387 . S
C286 C289 1.387 1_556 S
H287 C283 0.950 . S
H288 C285 0.950 . S
C289 C280 1.390 . S
C289 H282 0.950 . S
C289 C286 1.387 1_554 S
C290 C291 1.387 . S
C290 H294 0.950 . S
C290 C299 1.390 . S
C291 C290 1.387 . S
C291 C293 1.387 1_556 S
H292 C299 0.950 . S
C293 C291 1.387 1_554 S
C293 C295 1.390 . S
C293 H297 0.950 . S
H294 C290 0.950 . S
C295 C293 1.390 . S
C295 C296 1.387 1_554 S
C295 H298 0.950 . S
C296 C295 1.387 1_556 S
C296 C299 1.387 . S
H297 C293 0.950 . S
H298 C295 0.950 . S
C299 C290 1.390 . S
C299 H292 0.950 . S
C299 C296 1.387 . S
C300 C301 1.387 1_556 S
C300 H304 0.950 . S
C300 C309 1.390 . S
C301 C300 1.387 1_554 S
C301 C303 1.387 . S
H302 C309 0.950 . S
C303 C301 1.387 . S
C303 C305 1.390 . S
C303 H307 0.950 . S
H304 C300 0.950 . S
C305 C303 1.390 . S
C305 C306 1.387 . S
C305 H308 0.950 . S
C306 C305 1.387 . S
C306 C309 1.387 1_554 S
H307 C303 0.950 . S
H308 C305 0.950 . S
C309 C300 1.390 . S
C309 H302 0.950 . S
C309 C306 1.387 1_556 S
C310 C311 1.387 . S
C310 H314 0.950 . S
C310 C319 1.390 . S
C311 C310 1.387 . S
C311 C313 1.387 1_554 S
H312 C319 0.950 . S
C313 C311 1.387 1_556 S
C313 C315 1.390 . S
C313 H317 0.950 . S
H314 C310 0.950 . S
C315 C313 1.390 . S
C315 C316 1.387 1_556 S
C315 H318 0.950 . S
C316 C315 1.387 1_554 S
C316 C319 1.387 . S
H317 C313 0.950 . S
H318 C315 0.950 . S
C319 C310 1.390 . S
C319 H312 0.950 . S
C319 C316 1.387 . S
C320 C321 1.387 . S
C320 H324 0.950 . S
C320 C329 1.390 . S
C321 C320 1.387 . S
C321 C323 1.387 1_554 S
H322 C329 0.950 . S
C323 C321 1.387 1_556 S
C323 C325 1.390 . S
C323 H327 0.950 . S
H324 C320 0.950 . S
C325 C323 1.390 . S
C325 C326 1.387 1_556 S
C325 H328 0.950 . S
C326 C325 1.387 1_554 S
C326 C329 1.387 . S
H327 C323 0.950 . S
H328 C325 0.950 . S
C329 C320 1.390 . S
C329 H322 0.950 . S
C329 C326 1.387 . S
C330 C331 1.387 1_556 S
C330 H334 0.950 . S
C330 C339 1.390 . S
C331 C330 1.387 1_554 S
C331 C333 1.387 . S
H332 C339 0.950 . S
C333 C331 1.387 . S
C333 C335 1.390 . S
C333 H337 0.950 . S
H334 C330 0.950 . S
C335 C333 1.390 . S
C335 C336 1.387 . S
C335 H338 0.950 . S
C336 C335 1.387 . S
C336 C339 1.387 1_554 S
H337 C333 0.950 . S
H338 C335 0.950 . S
C339 C330 1.390 . S
C339 H332 0.950 . S
C339 C336 1.387 1_556 S
C340 C341 1.387 . S
C340 H344 0.950 . S
C340 C349 1.390 . S
C341 C340 1.387 . S
C341 C343 1.387 . S
H342 C349 0.950 . S
C343 C341 1.387 . S
C343 C345 1.390 . S
C343 H347 0.950 . S
H344 C340 0.950 . S
C345 C343 1.390 . S
C345 C346 1.387 . S
C345 H348 0.950 1_554 S
C346 C345 1.387 . S
C346 C349 1.387 . S
H347 C343 0.950 . S
H348 C345 0.950 1_556 S
C349 C340 1.390 . S
C349 H342 0.950 . S
C349 C346 1.387 . S
C350 C351 1.387 . S
C350 H354 0.950 . S
C350 C359 1.390 . S
C351 C350 1.387 . S
C351 C353 1.387 1_554 S
H352 C359 0.950 . S
C353 C351 1.387 1_556 S
C353 C355 1.390 . S
C353 H357 0.950 . S
H354 C350 0.950 . S
C355 C353 1.390 . S
C355 C356 1.387 1_556 S
C355 H358 0.950 . S
C356 C355 1.387 1_554 S
C356 C359 1.387 . S
H357 C353 0.950 . S
H358 C355 0.950 . S
C359 C350 1.390 . S
C359 H352 0.950 . S
C359 C356 1.387 . S
C360 C361 1.387 . S
C360 H364 0.950 . S
C360 C369 1.390 . S
C361 C360 1.387 . S
C361 C363 1.387 . S
H362 C369 0.950 . S
C363 C361 1.387 . S
C363 C365 1.390 . S
C363 H367 0.950 . S
H364 C360 0.950 . S
C365 C363 1.390 . S
C365 C366 1.387 . S
C365 H368 0.950 . S
C366 C365 1.387 . S
C366 C369 1.387 . S
H367 C363 0.950 . S
H368 C365 0.950 . S
C369 C360 1.390 . S
C369 H362 0.950 . S
C369 C366 1.387 . S
C370 C371 1.387 . S
C370 H374 0.950 . S
C370 C379 1.390 . S
C371 C370 1.387 . S
C371 C373 1.387 . S
H372 C379 0.950 . S
C373 C371 1.387 . S
C373 C375 1.390 . S
C373 H377 0.950 . S
H374 C370 0.950 . S
C375 C373 1.390 . S
C375 C376 1.387 . S
C375 H378 0.950 . S
C376 C375 1.387 . S
C376 C379 1.387 . S
H377 C373 0.950 . S
H378 C375 0.950 . S
C379 C370 1.390 . S
C379 H372 0.950 . S
C379 C376 1.387 . S
C380 C381 1.387 . S
C380 H384 0.950 . S
C380 C389 1.390 . S
C381 C380 1.387 . S
C381 C383 1.387 . S
H382 C389 0.950 . S
C383 C381 1.387 . S
C383 C385 1.390 . S
C383 H387 0.950 . S
H384 C380 0.950 . S
C385 C383 1.390 . S
C385 C386 1.387 . S
C385 H388 0.950 . S
C386 C385 1.387 . S
C386 C389 1.387 . S
H387 C383 0.950 . S
H388 C385 0.950 . S
C389 C380 1.390 . S
C389 H382 0.950 . S
C389 C386 1.387 . S
C390 C391 1.387 . S
C390 H394 0.950 . S
C390 C399 1.390 . S
C391 C390 1.387 . S
C391 C393 1.387 . S
H392 C399 0.950 . S
C393 C391 1.387 . S
C393 C395 1.390 . S
C393 H397 0.950 . S
H394 C390 0.950 . S
C395 C393 1.390 . S
C395 C396 1.387 . S
C395 H398 0.950 . S
C396 C395 1.387 . S
C396 C399 1.387 . S
H397 C393 0.950 . S
H398 C395 0.950 . S
C399 C390 1.390 . S
C399 H392 0.950 . S
C399 C396 1.387 . S
C400 C401 1.387 . S
C400 H404 0.950 . S
C400 C409 1.390 . S
C401 C400 1.387 . S
C401 C403 1.387 . S
H402 C409 0.950 . S
C403 C401 1.387 . S
C403 C405 1.390 . S
C403 H407 0.950 . S
H404 C400 0.950 . S
C405 C403 1.390 . S
C405 C406 1.387 . S
C405 H408 0.950 . S
C406 C405 1.387 . S
C406 C409 1.387 . S
H407 C403 0.950 . S
H408 C405 0.950 . S
C409 C400 1.390 . S
C409 H402 0.950 . S
C409 C406 1.387 . S
C410 C411 1.387 . S
C410 H414 0.950 . S
C410 C419 1.390 . S
C411 C410 1.387 . S
C411 C413 1.387 . S
H412 C419 0.950 . S
C413 C411 1.387 . S
C413 C415 1.390 . S
C413 H417 0.950 . S
H414 C410 0.950 . S
C415 C413 1.390 . S
C415 C416 1.387 . S
C415 H418 0.950 . S
C416 C415 1.387 . S
C416 C419 1.387 . S
H417 C413 0.950 . S
H418 C415 0.950 . S
C419 C410 1.390 . S
C419 H412 0.950 . S
C419 C416 1.387 . S
C241 C209 2.267 1_556 S
C246 C5 1.940 . S
C251 C9 2.267 1_556 S
C256 C45 1.939 1_455 S
C261 C49 2.267 1_556 S
C266 C85 1.943 1_545 S
C271 C125 1.940 . S
C276 C89 2.267 1_556 S
C281 C165 1.939 1_655 S
C286 C129 2.267 1_556 S
C291 C169 2.267 1_556 S
C296 C205 1.943 1_565 S
C301 C179 1.851 1_554 S
C306 C15 1.834 . S
C311 C219 1.851 1_554 S
C316 C55 1.834 . S
C321 C95 1.834 . S
C326 C19 1.851 1_554 S
C331 C135 1.834 . S
C336 C59 1.850 1_554 S
C341 C175 1.834 . S
C346 C99 1.851 1_554 S
C351 C139 1.851 1_554 S
C356 C215 1.834 . S
C361 C18 1.431 . S
C366 C8 1.431 . S
C371 C58 1.435 . S
C376 C48 1.435 . S
C381 C98 1.435 . S
C386 C88 1.435 . S
C391 C138 1.432 . S
C396 C128 1.432 . S
C401 C168 1.432 . S
C406 C178 1.432 . S
C411 C218 1.431 . S
C416 C208 1.431 . S
