# Generated by pormake.
# Topology wfs, (7)-cn, num edge types: 1
# Building blocks:
#     Node 0, Type 0, BuildingBlock: NUHQUE_clean_sbu_2, # of connection points: 7
#     Node 1, Type 0, BuildingBlock: NUHQUE_clean_sbu_2, # of connection points: 7
#     Node 2, Type 0, BuildingBlock: NUHQUE_clean_sbu_2, # of connection points: 7
#     Node 3, Type 0, BuildingBlock: NUHQUE_clean_sbu_2, # of connection points: 7
#     Node 4, Type 0, BuildingBlock: NUHQUE_clean_sbu_2, # of connection points: 7
#     Node 5, Type 0, BuildingBlock: NUHQUE_clean_sbu_2, # of connection points: 7
#     Node 6, Type 0, BuildingBlock: NUHQUE_clean_sbu_2, # of connection points: 7
#     Node 7, Type 0, BuildingBlock: NUHQUE_clean_sbu_2, # of connection points: 7
#     Edge 8, Type (0, 0), BuildingBlock: XIVTED_clean_linker_0, # of connection points: 2
#     Edge 9, Type (0, 0), BuildingBlock: XIVTED_clean_linker_0, # of connection points: 2
#     Edge 10, Type (0, 0), BuildingBlock: XIVTED_clean_linker_0, # of connection points: 2
#     Edge 11, Type (0, 0), BuildingBlock: XIVTED_clean_linker_0, # of connection points: 2
#     Edge 12, Type (0, 0), BuildingBlock: XIVTED_clean_linker_0, # of connection points: 2
#     Edge 13, Type (0, 0), BuildingBlock: XIVTED_clean_linker_0, # of connection points: 2
#     Edge 14, Type (0, 0), BuildingBlock: XIVTED_clean_linker_0, # of connection points: 2
#     Edge 15, Type (0, 0), BuildingBlock: XIVTED_clean_linker_0, # of connection points: 2
#     Edge 16, Type (0, 0), BuildingBlock: XIVTED_clean_linker_0, # of connection points: 2
#     Edge 17, Type (0, 0), BuildingBlock: XIVTED_clean_linker_0, # of connection points: 2
#     Edge 18, Type (0, 0), BuildingBlock: XIVTED_clean_linker_0, # of connection points: 2
#     Edge 19, Type (0, 0), BuildingBlock: XIVTED_clean_linker_0, # of connection points: 2
#     Edge 20, Type (0, 0), BuildingBlock: XIVTED_clean_linker_0, # of connection points: 2
#     Edge 21, Type (0, 0), BuildingBlock: XIVTED_clean_linker_0, # of connection points: 2
#     Edge 22, Type (0, 0), BuildingBlock: XIVTED_clean_linker_0, # of connection points: 2
#     Edge 23, Type (0, 0), BuildingBlock: XIVTED_clean_linker_0, # of connection points: 2
#     Edge 24, Type (0, 0), BuildingBlock: XIVTED_clean_linker_0, # of connection points: 2
#     Edge 25, Type (0, 0), BuildingBlock: XIVTED_clean_linker_0, # of connection points: 2
#     Edge 26, Type (0, 0), BuildingBlock: XIVTED_clean_linker_0, # of connection points: 2
#     Edge 27, Type (0, 0), BuildingBlock: XIVTED_clean_linker_0, # of connection points: 2
#     Edge 28, Type (0, 0), BuildingBlock: XIVTED_clean_linker_0, # of connection points: 2
#     Edge 29, Type (0, 0), BuildingBlock: XIVTED_clean_linker_0, # of connection points: 2
#     Edge 30, Type (0, 0), BuildingBlock: XIVTED_clean_linker_0, # of connection points: 2
#     Edge 31, Type (0, 0), BuildingBlock: XIVTED_clean_linker_0, # of connection points: 2
#     Edge 32, Type (0, 0), BuildingBlock: XIVTED_clean_linker_0, # of connection points: 2
#     Edge 33, Type (0, 0), BuildingBlock: XIVTED_clean_linker_0, # of connection points: 2
#     Edge 34, Type (0, 0), BuildingBlock: XIVTED_clean_linker_0, # of connection points: 2
#     Edge 35, Type (0, 0), BuildingBlock: XIVTED_clean_linker_0, # of connection points: 2
# Relax obj value: 0.228
# Max RMSD: 0.187
# Mean RMSD: 0.187
data_MOF--net-wfs--node1-NUHQUE_clean_sbu_2--edge1-XIVTED_clean_linker_0
_symmetry_space_group_name_H-M    P1
_symmetry_Int_Tables_number       1
_symmetry_cell_setting            triclinic
loop_
_symmetry_equiv_pos_as_xyz
'x, y, z'
_cell_length_a     31.447736
_cell_length_b     37.310766
_cell_length_c     30.768256
_cell_angle_alpha  89.503354
_cell_angle_beta   89.929066
_cell_angle_gamma 90.033188
loop_
_atom_site_label
_atom_site_type_symbol
_atom_site_fract_x
_atom_site_fract_y
_atom_site_fract_z
_atom_type_partial_charge
O0 O 0.23239 0.08457 0.2345 0.0
Tb1 Tb 0.20923 0.11829 0.18171 0.0
Eu2 Eu 0.2155 0.19434 0.117 0.0
C3 C 0.26544 0.0634 0.22945 0.0
O4 O 0.28827 0.06612 0.19383 0.0
C5 C 0.2473 0.11745 0.09195 0.0
O6 O 0.16983 0.22429 0.07396 0.0
C7 C 0.28706 0.22782 0.12617 0.0
C8 C 0.129 0.21899 0.08054 0.0
O9 O 0.11683 0.19543 0.10997 0.0
C10 C 0.167 0.19055 0.21182 0.0
C11 C 0.30677 0.25981 0.14561 0.0
C12 C 0.34887 0.25714 0.16061 0.0
C13 C 0.37055 0.28755 0.17546 0.0
C14 C 0.34949 0.32063 0.17558 0.0
C15 C 0.30742 0.32388 0.16111 0.0
C16 C 0.28578 0.29324 0.14654 0.0
O17 O 0.25905 0.11625 0.13288 0.0
O18 O 0.22154 0.14308 0.07925 0.0
O19 O 0.17224 0.06986 0.1716 0.0
O20 O 0.1499 0.1189 0.14422 0.0
C21 C 0.14254 0.08467 0.14838 0.0
O22 O 0.17101 0.20488 0.17284 0.0
O23 O 0.18796 0.1615 0.22404 0.0
O24 O 0.26125 0.23321 0.09311 0.0
O25 O 0.27469 0.20191 0.15274 0.0
H26 H 0.36517 0.23156 0.15952 0.0
H27 H 0.36574 0.34409 0.18791 0.0
H28 H 0.25336 0.29562 0.13493 0.0
O29 O 0.23369 0.9354 0.75556 0.0
Tb30 Tb 0.21032 0.90172 0.80837 0.0
Eu31 Eu 0.21612 0.8255 0.87312 0.0
C32 C 0.26681 0.95651 0.76065 0.0
O33 O 0.28954 0.95369 0.79626 0.0
C34 C 0.24806 0.90233 0.89807 0.0
O35 O 0.16962 0.79589 0.91573 0.0
C36 C 0.28765 0.79179 0.86514 0.0
C37 C 0.12893 0.80158 0.90885 0.0
O38 O 0.11739 0.82524 0.87932 0.0
C39 C 0.16795 0.8294 0.77814 0.0
C40 C 0.30772 0.75956 0.84669 0.0
C41 C 0.35026 0.76195 0.83286 0.0
C42 C 0.37234 0.73121 0.81979 0.0
C43 C 0.35135 0.69812 0.82007 0.0
C44 C 0.30871 0.69521 0.83294 0.0
C45 C 0.28666 0.72613 0.84592 0.0
O46 O 0.26004 0.90339 0.85718 0.0
O47 O 0.22204 0.87682 0.91071 0.0
O48 O 0.1741 0.95043 0.81916 0.0
O49 O 0.15073 0.90133 0.84558 0.0
C50 C 0.144 0.93568 0.842 0.0
O51 O 0.17221 0.81481 0.81694 0.0
O52 O 0.18859 0.85869 0.76603 0.0
O53 O 0.26143 0.78681 0.89803 0.0
O54 O 0.27561 0.81733 0.83793 0.0
H55 H 0.36662 0.78754 0.83363 0.0
H56 H 0.36815 0.6744 0.80929 0.0
H57 H 0.25386 0.72399 0.85649 0.0
O58 O 0.79392 0.94515 0.23935 0.0
Tb59 Tb 0.81719 0.9108 0.18792 0.0
Eu60 Eu 0.80385 0.82805 0.13266 0.0
C61 C 0.76065 0.966 0.23353 0.0
O62 O 0.73748 0.96222 0.19841 0.0
C63 C 0.7764 0.90508 0.10033 0.0
O64 O 0.85257 0.79733 0.09482 0.0
C65 C 0.7321 0.79382 0.13858 0.0
C66 C 0.8927 0.80554 0.1013 0.0
O67 O 0.90211 0.83204 0.1274 0.0
C68 C 0.85886 0.83812 0.22418 0.0
C69 C 0.7095 0.76183 0.15569 0.0
C70 C 0.6654 0.76438 0.16326 0.0
C71 C 0.64139 0.73371 0.17369 0.0
C72 C 0.66206 0.70059 0.17735 0.0
C73 C 0.70601 0.69738 0.17054 0.0
C74 C 0.72987 0.72825 0.16004 0.0
O75 O 0.7657 0.90866 0.14128 0.0
O76 O 0.79966 0.87737 0.0896 0.0
O77 O 0.87476 0.91178 0.14763 0.0
O78 O 0.85061 0.96049 0.17319 0.0
C79 C 0.88027 0.94635 0.14953 0.0
O80 O 0.84717 0.81889 0.19043 0.0
O81 O 0.84431 0.87068 0.23202 0.0
O82 O 0.76007 0.78856 0.10744 0.0
O83 O 0.74305 0.81927 0.16591 0.0
H84 H 0.64952 0.79 0.1594 0.0
H85 H 0.64378 0.67701 0.1864 0.0
H86 H 0.7637 0.72595 0.1539 0.0
O87 O 0.79443 0.07531 0.75074 0.0
Tb88 Tb 0.81813 0.10879 0.80273 0.0
Eu89 Eu 0.80494 0.19152 0.85792 0.0
C90 C 0.76148 0.0541 0.75669 0.0
O91 O 0.7389 0.05708 0.79238 0.0
C92 C 0.77741 0.11464 0.8904 0.0
O93 O 0.8536 0.22264 0.89527 0.0
C94 C 0.73304 0.2254 0.85202 0.0
C95 C 0.89372 0.21445 0.88872 0.0
O96 O 0.9031 0.18769 0.86299 0.0
C97 C 0.86052 0.18149 0.76666 0.0
C98 C 0.71066 0.2574 0.83481 0.0
C99 C 0.66662 0.25494 0.82703 0.0
C100 C 0.64283 0.28563 0.81622 0.0
C101 C 0.66373 0.31869 0.81252 0.0
C102 C 0.70764 0.32177 0.81964 0.0
C103 C 0.73124 0.29089 0.83042 0.0
O104 O 0.76664 0.11116 0.84948 0.0
O105 O 0.80089 0.14224 0.90104 0.0
O106 O 0.85035 0.05852 0.81721 0.0
O107 O 0.87559 0.10677 0.84297 0.0
C108 C 0.88028 0.07214 0.84093 0.0
O109 O 0.84816 0.2009 0.80002 0.0
O110 O 0.84657 0.14868 0.75911 0.0
O111 O 0.76081 0.23067 0.88328 0.0
O112 O 0.74422 0.20005 0.82464 0.0
H113 H 0.6506 0.22937 0.83095 0.0
H114 H 0.64572 0.3423 0.80316 0.0
H115 H 0.76503 0.29311 0.83674 0.0
O116 O 0.72249 0.58729 0.71616 0.0
Tb117 Tb 0.70001 0.61983 0.66174 0.0
Eu118 Eu 0.71578 0.70579 0.59813 0.0
C119 C 0.75651 0.56695 0.7125 0.0
O120 O 0.78184 0.5718 0.67902 0.0
C121 C 0.73615 0.62808 0.5729 0.0
O122 O 0.70572 0.75675 0.55946 0.0
C123 C 0.78751 0.71529 0.63897 0.0
C124 C 0.67024 0.77221 0.54618 0.0
O125 O 0.67358 0.80406 0.5279 0.0
C126 C 0.65287 0.6914 0.68017 0.0
C127 C 0.813 0.74746 0.64918 0.0
C128 C 0.85744 0.74505 0.65532 0.0
C129 C 0.88198 0.77633 0.66134 0.0
C130 C 0.8613 0.80966 0.66176 0.0
C131 C 0.81719 0.81244 0.65603 0.0
C132 C 0.7932 0.78123 0.64975 0.0
O133 O 0.74862 0.6287 0.6135 0.0
O134 O 0.71541 0.65595 0.5578 0.0
O135 O 0.66989 0.56915 0.64473 0.0
O136 O 0.63751 0.61753 0.63 0.0
C137 C 0.63565 0.58273 0.62791 0.0
O138 O 0.65655 0.70352 0.63984 0.0
O139 O 0.67877 0.667 0.69679 0.0
O140 O 0.78506 0.70772 0.59752 0.0
O141 O 0.75071 0.71204 0.65893 0.0
H142 H 0.87287 0.7191 0.6545 0.0
H143 H 0.87959 0.8337 0.66808 0.0
H144 H 0.75918 0.78327 0.64454 0.0
O145 O 0.71873 0.432 0.27634 0.0
Tb146 Tb 0.69719 0.39996 0.33168 0.0
Eu147 Eu 0.71667 0.31413 0.39624 0.0
C148 C 0.75295 0.45223 0.27915 0.0
O149 O 0.77881 0.44741 0.31215 0.0
C150 C 0.73606 0.3925 0.41948 0.0
O151 O 0.70784 0.26371 0.43625 0.0
C152 C 0.78692 0.30432 0.35283 0.0
C153 C 0.67245 0.24802 0.44951 0.0
O154 O 0.67594 0.2165 0.46855 0.0
C155 C 0.65027 0.32752 0.31681 0.0
C156 C 0.8124 0.27213 0.34263 0.0
C157 C 0.85683 0.27465 0.33629 0.0
C158 C 0.88148 0.24342 0.33046 0.0
C159 C 0.86094 0.21002 0.33049 0.0
C160 C 0.81686 0.20713 0.33633 0.0
C161 C 0.7927 0.23827 0.34234 0.0
O162 O 0.74717 0.39165 0.37845 0.0
O163 O 0.71704 0.36426 0.43596 0.0
O164 O 0.66758 0.45092 0.34838 0.0
O165 O 0.63555 0.40281 0.36528 0.0
C166 C 0.63378 0.43764 0.36656 0.0
O167 O 0.6559 0.31609 0.35717 0.0
O168 O 0.6747 0.35223 0.29842 0.0
O169 O 0.78595 0.31288 0.39406 0.0
O170 O 0.74938 0.30686 0.33428 0.0
H171 H 0.87218 0.30065 0.33683 0.0
H172 H 0.8793 0.18597 0.32443 0.0
H173 H 0.75869 0.23608 0.3476 0.0
O174 O 0.29156 0.43438 0.72782 0.0
Tb175 Tb 0.31047 0.40154 0.67293 0.0
Eu176 Eu 0.30961 0.32795 0.60188 0.0
C177 C 0.25659 0.45375 0.7266 0.0
O178 O 0.22924 0.44854 0.69509 0.0
C179 C 0.26551 0.40195 0.58686 0.0
O180 O 0.3598 0.30944 0.55395 0.0
C181 C 0.23964 0.2909 0.60906 0.0
C182 C 0.38861 0.33315 0.54138 0.0
O183 O 0.38452 0.36633 0.55464 0.0
C184 C 0.35672 0.32971 0.69708 0.0
C185 C 0.2171 0.25882 0.62617 0.0
C186 C 0.17284 0.26066 0.63458 0.0
C187 C 0.14972 0.22958 0.64622 0.0
C188 C 0.17164 0.197 0.65002 0.0
C189 C 0.21555 0.19478 0.64243 0.0
C190 C 0.23832 0.22584 0.6309 0.0
O191 O 0.25707 0.40024 0.62859 0.0
O192 O 0.29485 0.38099 0.57073 0.0
O193 O 0.34277 0.45172 0.65771 0.0
O194 O 0.37038 0.40318 0.636 0.0
C195 C 0.37448 0.43792 0.63671 0.0
O196 O 0.35617 0.31874 0.65647 0.0
O197 O 0.33214 0.35579 0.7114 0.0
O198 O 0.26775 0.28623 0.57777 0.0
O199 O 0.2504 0.31616 0.63662 0.0
H200 H 0.15624 0.28593 0.63067 0.0
H201 H 0.15441 0.17308 0.65988 0.0
H202 H 0.27215 0.22412 0.62445 0.0
O203 O 0.29191 0.58632 0.26391 0.0
Tb204 Tb 0.31002 0.61911 0.3191 0.0
Eu205 Eu 0.30765 0.69295 0.39019 0.0
C206 C 0.25723 0.56654 0.26489 0.0
O207 O 0.22968 0.57122 0.29641 0.0
C208 C 0.26427 0.61856 0.40479 0.0
O209 O 0.35722 0.71186 0.43844 0.0
C210 C 0.2374 0.72951 0.38268 0.0
C211 C 0.38668 0.6886 0.45055 0.0
O212 O 0.38363 0.65555 0.43657 0.0
C213 C 0.35578 0.69144 0.29531 0.0
C214 C 0.21489 0.76153 0.36546 0.0
C215 C 0.17065 0.75965 0.35707 0.0
C216 C 0.14759 0.79068 0.34527 0.0
C217 C 0.16955 0.82325 0.3413 0.0
C218 C 0.21345 0.8255 0.34885 0.0
C219 C 0.23616 0.7945 0.36055 0.0
O220 O 0.25618 0.6203 0.36301 0.0
O221 O 0.29319 0.63977 0.42118 0.0
O222 O 0.34212 0.56902 0.33502 0.0
O223 O 0.36967 0.61772 0.3563 0.0
C224 C 0.3737 0.58296 0.35602 0.0
O225 O 0.35452 0.70258 0.33585 0.0
O226 O 0.33186 0.66498 0.28084 0.0
O227 O 0.26518 0.73428 0.41418 0.0
O228 O 0.24862 0.70438 0.35512 0.0
H229 H 0.15403 0.73438 0.3611 0.0
H230 H 0.15237 0.84713 0.3313 0.0
H231 H 0.26999 0.79624 0.36696 0.0
H232 H 0.22513 0.04977 0.30672 0.0
H233 H 0.28363 0.84253 0.29986 0.0
H234 H 0.31755 1.00523 0.21855 0.0
H235 H 0.19044 0.88865 0.38562 0.0
H236 H 0.30783 0.90314 0.28026 0.0
H237 H 0.22356 0.99293 0.34641 0.0
C238 C 0.24567 0.02824 0.29613 0.0
C239 C 0.2709 0.03208 0.25877 0.0
C240 C 0.28264 0.89998 0.304 0.0
C241 C 0.26879 0.96659 0.3037 0.0
C242 C 0.26905 0.86542 0.31535 0.0
C243 C 0.2346 0.86077 0.3438 0.0
C244 C 0.26152 0.9299 0.32131 0.0
C245 C 0.21664 0.89122 0.36293 0.0
C246 C 0.24471 0.9957 0.31878 0.0
C247 C 0.29722 1.00335 0.24689 0.0
N248 N 0.2299 0.92446 0.3509 0.0
N249 N 0.29491 0.97159 0.26881 0.0
H250 H 0.13399 0.85797 0.70267 0.0
H251 H 0.92813 0.73223 0.71599 0.0
H252 H 0.12241 0.76737 0.79013 0.0
H253 H 0.94282 0.81911 0.62387 0.0
H254 H 1.003 0.73934 0.73674 0.0
H255 H 0.06843 0.8391 0.66659 0.0
C256 C 0.11831 0.8337 0.71374 0.0
C257 C 0.13381 0.81452 0.74986 0.0
C258 C 0.99001 0.75653 0.71154 0.0
C259 C 0.05798 0.79304 0.70909 0.0
C260 C 0.94731 0.75227 0.69947 0.0
C261 C 0.92895 0.7754 0.66857 0.0
C262 C 0.01457 0.78416 0.6926 0.0
C263 C 0.9554 0.80109 0.64845 0.0
C264 C 0.08061 0.82303 0.69327 0.0
C265 C 0.11168 0.78332 0.76272 0.0
N266 N 0.99654 0.80505 0.66115 0.0
N267 N 0.07477 0.77389 0.7428 0.0
H268 H 0.8409 0.146 0.3789 0.0
H269 H 0.70561 0.02225 0.22167 0.0
H270 H 0.74757 0.18666 0.28859 0.0
H271 H 0.80486 0.98376 0.30687 0.0
H272 H 0.70889 0.08048 0.25728 0.0
H273 H 0.81654 0.0851 0.36454 0.0
C274 C 0.81479 0.14205 0.35649 0.0
C275 C 0.79668 0.17127 0.33431 0.0
C276 C 0.72943 0.0591 0.26869 0.0
C277 C 0.76889 0.10163 0.31729 0.0
C278 C 0.72748 0.02575 0.24846 0.0
C279 C 0.75561 0.99825 0.26073 0.0
C280 C 0.75976 0.06497 0.30133 0.0
C281 C 0.78303 1.00432 0.29585 0.0
C282 C 0.80087 0.1073 0.3483 0.0
C283 C 0.76249 0.1648 0.3062 0.0
N284 N 0.78485 0.03717 0.31446 0.0
N285 N 0.75017 0.13058 0.29788 0.0
H286 H 0.90631 0.2438 0.77758 0.0
H287 H 0.08999 0.18443 0.61272 0.0
H288 H 0.89869 0.15105 0.69499 0.0
H289 H 0.10253 0.27408 0.69914 0.0
H290 H 0.01594 0.17745 0.63523 0.0
H291 H 0.97317 0.26056 0.7423 0.0
C292 C 0.91805 0.22727 0.7514 0.0
C293 C 0.89643 0.19574 0.73951 0.0
C294 C 0.03457 0.19894 0.64903 0.0
C295 C 0.97397 0.21484 0.69915 0.0
C296 C 0.07695 0.20299 0.63611 0.0
C297 C 0.10276 0.22971 0.65434 0.0
C298 C 0.01746 0.22161 0.68079 0.0
C299 C 0.08386 0.25318 0.68416 0.0
C300 C 0.95657 0.23684 0.73143 0.0
C301 C 0.9139 0.17552 0.7055 0.0
N302 N 0.04257 0.24831 0.69685 0.0
N303 N 0.95163 0.18522 0.68691 0.0
H304 H 0.22661 0.97041 0.68348 0.0
H305 H 0.28561 0.17755 0.69131 0.0
H306 H 0.31911 0.01456 0.77168 0.0
H307 H 0.19253 0.13178 0.6053 0.0
H308 H 0.30965 0.11686 0.71056 0.0
H309 H 0.22525 0.02737 0.64405 0.0
C310 C 0.24722 0.99188 0.69413 0.0
C311 C 0.27241 0.98789 0.73143 0.0
C312 C 0.28452 0.12012 0.68684 0.0
C313 C 0.27053 0.05352 0.68679 0.0
C314 C 0.27102 0.15473 0.67569 0.0
C315 C 0.23664 0.1595 0.64726 0.0
C316 C 0.26338 0.09027 0.66937 0.0
C317 C 0.21867 0.12913 0.62797 0.0
C318 C 0.24638 0.02449 0.67162 0.0
C319 C 0.29881 0.01655 0.74339 0.0
N320 N 0.23184 0.09584 0.63981 0.0
N321 N 0.29661 0.04838 0.72161 0.0
H322 H 0.08778 0.83596 0.3784 0.0
H323 H 0.90478 0.77588 0.21355 0.0
H324 H 0.10054 0.74592 0.2926 0.0
H325 H 0.89664 0.86876 0.29587 0.0
H326 H 0.97148 0.7593 0.24903 0.0
H327 H 0.01381 0.84282 0.35577 0.0
C328 C 0.0748 0.81729 0.35513 0.0
C329 C 0.10066 0.7905 0.3371 0.0
C330 C 0.9548 0.78301 0.2598 0.0
C331 C 0.01545 0.79845 0.31052 0.0
C332 C 0.91637 0.79248 0.23971 0.0
C333 C 0.89466 0.82399 0.25146 0.0
C334 C 0.97203 0.80511 0.29205 0.0
C335 C 0.91193 0.8443 0.28547 0.0
C336 C 0.03247 0.82127 0.34213 0.0
C337 C 0.08184 0.76689 0.30742 0.0
N338 N 0.94959 0.83471 0.30417 0.0
N339 N 0.04059 0.77168 0.29465 0.0
H340 H 0.80363 0.03849 0.68128 0.0
H341 H 0.74589 0.83158 0.70169 0.0
H342 H 0.70888 0.99633 0.76958 0.0
H343 H 0.84236 0.87469 0.61625 0.0
H344 H 0.72096 0.89262 0.71558 0.0
H345 H 0.80684 0.98036 0.64579 0.0
C346 C 0.78288 0.01722 0.69271 0.0
C347 C 0.75658 0.02211 0.72904 0.0
C348 C 0.74713 0.88869 0.69322 0.0
C349 C 0.76058 0.95521 0.68894 0.0
C350 C 0.76121 0.85385 0.68513 0.0
C351 C 0.79674 0.84819 0.65845 0.0
C352 C 0.76882 0.91798 0.67452 0.0
C353 C 0.81546 0.87798 0.63785 0.0
C354 C 0.78481 0.98394 0.67248 0.0
C355 C 0.73006 0.99366 0.74204 0.0
N356 N 0.80166 0.91158 0.64677 0.0
N357 N 0.7333 0.96122 0.72252 0.0
H358 H 0.9272 0.28732 0.27505 0.0
H359 H 0.13345 0.16223 0.28772 0.0
H360 H 0.94266 0.20111 0.36791 0.0
H361 H 0.12113 0.2523 0.19961 0.0
H362 H 0.06802 0.18111 0.32418 0.0
H363 H 1.00196 0.28028 0.25372 0.0
C364 C 0.94653 0.26745 0.29161 0.0
C365 C 0.92841 0.24448 0.3229 0.0
C366 C 0.08001 0.19706 0.29727 0.0
C367 C 0.01391 0.23578 0.2982 0.0
C368 C 0.11763 0.18638 0.27657 0.0
C369 C 0.13288 0.20541 0.24018 0.0
C370 C 0.05723 0.2269 0.2814 0.0
C371 C 0.11059 0.23646 0.22724 0.0
C372 C 0.98917 0.26322 0.27921 0.0
C373 C 0.95504 0.219 0.34304 0.0
N374 N 0.07377 0.24591 0.24739 0.0
N375 N 0.99612 0.21506 0.33002 0.0
H376 H 0.71042 0.54811 0.7849 0.0
H377 H 0.77669 0.34233 0.77039 0.0
H378 H 0.81053 0.50999 0.70114 0.0
H379 H 0.68236 0.38344 0.85858 0.0
H380 H 0.79793 0.40418 0.75263 0.0
H381 H 0.70785 0.4893 0.82017 0.0
C382 C 0.73239 0.52758 0.77439 0.0
C383 C 0.76037 0.53398 0.73962 0.0
C384 C 0.77311 0.39965 0.77646 0.0
C385 C 0.75712 0.46609 0.77946 0.0
C386 C 0.76123 0.36435 0.7868 0.0
C387 C 0.7274 0.35785 0.81555 0.0
C388 C 0.75089 0.42851 0.79503 0.0
C389 C 0.70821 0.38734 0.83573 0.0
C390 C 0.73086 0.49388 0.79449 0.0
C391 C 0.78823 0.50628 0.72762 0.0
N392 N 0.71981 0.42128 0.8247 0.0
N393 N 0.78544 0.47341 0.74701 0.0
H394 H 0.40644 0.23761 0.23036 0.0
H395 H 0.59092 0.27843 0.34427 0.0
H396 H 0.43618 0.33288 0.15594 0.0
H397 H 0.62331 0.34652 0.23489 0.0
H398 H 0.52553 0.26166 0.30791 0.0
H399 H 0.47764 0.23937 0.26209 0.0
C400 C 0.42811 0.25876 0.22053 0.0
C401 C 0.41512 0.28552 0.19113 0.0
C402 C 0.54725 0.27948 0.29113 0.0
C403 C 0.49619 0.28861 0.22839 0.0
C404 C 0.5847 0.28939 0.31218 0.0
C405 C 0.61275 0.31412 0.29276 0.0
C406 C 0.53769 0.29436 0.25017 0.0
C407 C 0.60269 0.32747 0.25125 0.0
C408 C 0.46862 0.26013 0.23917 0.0
C409 C 0.44453 0.3122 0.17931 0.0
N410 N 0.56581 0.31771 0.23161 0.0
N411 N 0.48349 0.31319 0.19818 0.0
H412 H 0.33552 0.63463 0.87407 0.0
H413 H 0.19815 0.50818 0.72072 0.0
H414 H 0.23779 0.67399 0.78809 0.0
H415 H 0.30716 0.47335 0.79494 0.0
H416 H 0.20111 0.5661 0.75723 0.0
H417 H 0.31375 0.57323 0.85838 0.0
C418 C 0.30873 0.63024 0.85263 0.0
C419 C 0.28859 0.65929 0.83203 0.0
C420 C 0.22394 0.54558 0.76603 0.0
C421 C 0.26408 0.58906 0.81305 0.0
C422 C 0.2222 0.51239 0.74532 0.0
C423 C 0.25285 0.48594 0.75432 0.0
C424 C 0.25649 0.55238 0.79606 0.0
C425 C 0.28316 0.49301 0.78657 0.0
C426 C 0.29646 0.5952 0.84348 0.0
C427 C 0.25405 0.65226 0.80463 0.0
N428 N 0.28449 0.52563 0.80587 0.0
N429 N 0.2433 0.61777 0.79531 0.0
H430 H 0.40379 0.75171 0.30832 0.0
H431 H 0.58032 0.69066 0.1388 0.0
H432 H 0.3871 0.66447 0.21868 0.0
H433 H 0.59622 0.77979 0.2255 0.0
H434 H 0.50555 0.68667 0.15986 0.0
H435 H 0.46926 0.76846 0.2707 0.0
C436 C 0.41343 0.73641 0.28022 0.0
C437 C 0.39002 0.70627 0.26707 0.0
C438 C 0.52512 0.70744 0.17392 0.0
C439 C 0.46562 0.72518 0.22407 0.0
C440 C 0.56785 0.7097 0.16194 0.0
C441 C 0.59465 0.73529 0.1809 0.0
C442 C 0.50894 0.73074 0.20549 0.0
C443 C 0.57669 0.75963 0.21018 0.0
C444 C 0.45098 0.746 0.25879 0.0
C445 C 0.40407 0.68778 0.23018 0.0
N446 N 0.5351 0.75641 0.22208 0.0
N447 N 0.44125 0.69719 0.21042 0.0
H448 H 0.70548 0.47137 0.20788 0.0
H449 H 0.77468 0.67654 0.21998 0.0
H450 H 0.80802 0.50871 0.28887 0.0
H451 H 0.68044 0.63575 0.13164 0.0
H452 H 0.79513 0.61461 0.23815 0.0
H453 H 0.70321 0.53007 0.17228 0.0
C454 C 0.72803 0.49169 0.21771 0.0
C455 C 0.75665 0.48511 0.25179 0.0
C456 C 0.77051 0.61922 0.21419 0.0
C457 C 0.75377 0.55288 0.21156 0.0
C458 C 0.75909 0.65457 0.20362 0.0
C459 C 0.72549 0.66121 0.17471 0.0
C460 C 0.74804 0.59045 0.19574 0.0
C461 C 0.70611 0.63176 0.15461 0.0
C462 C 0.72667 0.52533 0.1974 0.0
C463 C 0.78522 0.51256 0.26293 0.0
N464 N 0.71723 0.59777 0.16591 0.0
N465 N 0.78261 0.54537 0.24338 0.0
H466 H 0.38601 0.35642 0.77464 0.0
H467 H 0.59799 0.23798 0.76629 0.0
H468 H 0.40659 0.27061 0.68377 0.0
H469 H 0.58145 0.33005 0.84834 0.0
H470 H 0.5228 0.24206 0.7456 0.0
H471 H 0.45171 0.33945 0.81196 0.0
C472 C 0.40376 0.33354 0.76305 0.0
C473 C 0.39092 0.31528 0.72557 0.0
C474 C 0.53549 0.2611 0.76857 0.0
C475 C 0.46665 0.29599 0.76786 0.0
C476 C 0.57834 0.25862 0.78056 0.0
C477 C 0.59614 0.28403 0.80854 0.0
C478 C 0.51025 0.28912 0.78482 0.0
C479 C 0.56922 0.31033 0.82597 0.0
C480 C 0.4415 0.32399 0.78423 0.0
C481 C 0.41545 0.28584 0.71215 0.0
N482 N 0.52784 0.31241 0.81352 0.0
N483 N 0.45231 0.27743 0.7329 0.0
H484 H 0.30749 0.54867 0.19555 0.0
H485 H 0.23406 0.34448 0.2024 0.0
H486 H 0.20049 0.5108 0.27101 0.0
H487 H 0.33684 0.38517 0.12346 0.0
H488 H 0.21256 0.40641 0.2179 0.0
H489 H 0.31032 0.49089 0.1591 0.0
C490 C 0.28411 0.52843 0.20396 0.0
C491 C 0.2541 0.5345 0.23684 0.0
C492 C 0.23927 0.4018 0.19643 0.0
C493 C 0.25755 0.46783 0.19565 0.0
C494 C 0.25127 0.36647 0.18734 0.0
C495 C 0.28746 0.35986 0.162 0.0
C496 C 0.2638 0.43052 0.1801 0.0
C497 C 0.30898 0.38924 0.14354 0.0
C498 C 0.28577 0.49533 0.18316 0.0
C499 C 0.22442 0.50726 0.2461 0.0
N500 N 0.29721 0.42321 0.15343 0.0
N501 N 0.22734 0.47494 0.22616 0.0
H502 H 0.40877 0.77623 0.75943 0.0
H503 H 0.62938 0.66899 0.7619 0.0
H504 H 0.43794 0.68942 0.84785 0.0
H505 H 0.59207 0.74115 0.65821 0.0
H506 H 0.56464 0.68457 0.80116 0.0
H507 H 0.48112 0.77214 0.72966 0.0
C508 C 0.43069 0.75678 0.77305 0.0
C509 C 0.41739 0.73287 0.80576 0.0
C510 C 0.5708 0.69722 0.76998 0.0
C511 C 0.49972 0.72787 0.77192 0.0
C512 C 0.60786 0.68839 0.74752 0.0
C513 C 0.61609 0.70347 0.70642 0.0
C514 C 0.54165 0.72134 0.7513 0.0
C515 C 0.58697 0.72859 0.68964 0.0
C516 C 0.4718 0.75428 0.75592 0.0
C517 C 0.44685 0.70801 0.82219 0.0
N518 N 0.5509 0.73653 0.712 0.0
N519 N 0.4865 0.70601 0.80493 0.0
H520 H 0.0666 0.11274 0.12095 0.0
H521 H 0.95569 0.91962 0.11957 0.0
H522 H 0.13301 0.01285 0.14086 0.0
H523 H 0.8886 0.01853 0.14208 0.0
H524 H 0.02061 0.95418 0.1047 0.0
H525 H 1.00111 0.0789 0.10644 0.0
C526 C 0.06749 0.08371 0.12144 0.0
C527 C 0.10479 0.06543 0.13283 0.0
C528 C 0.99146 0.9683 0.11217 0.0
C529 C 0.03071 0.02681 0.11618 0.0
C530 C 0.95449 0.94862 0.12049 0.0
C531 C 0.91719 0.96635 0.1328 0.0
C532 C 0.99079 1.00583 0.11597 0.0
C533 C 0.91706 1.00392 0.13336 0.0
C534 C 0.03024 0.06445 0.11329 0.0
C535 C 0.10457 0.02787 0.13288 0.0
N536 N 0.95347 0.02245 0.12556 0.0
N537 N 0.06798 1.00976 0.12509 0.0
H538 H 0.8868 0.99983 0.84866 0.0
H539 H 0.13623 1.00735 0.85241 0.0
H540 H 0.95653 0.09763 0.87007 0.0
H541 H 0.06669 0.9083 0.86652 0.0
H542 H 0.07111 0.04066 0.86713 0.0
H543 H 0.95132 0.96544 0.86355 0.0
C544 C 0.91565 0.014 0.85722 0.0
C545 C 0.91674 0.05154 0.85748 0.0
C546 C 0.07008 0.01165 0.86776 0.0
C547 C 0.9907 0.01252 0.87387 0.0
C548 C 0.10721 0.99265 0.85922 0.0
C549 C 0.10645 0.95515 0.85762 0.0
C550 C 0.03172 0.99298 0.8738 0.0
C551 C 0.06835 0.93728 0.86714 0.0
C552 C 0.95243 0.99437 0.86581 0.0
C553 C 0.95461 0.06867 0.86917 0.0
N554 N 0.03218 0.95641 0.87401 0.0
N555 N 0.9904 0.04902 0.8761 0.0
H556 H 0.63124 0.51048 0.61741 0.0
H557 H 0.37937 0.51001 0.62634 0.0
H558 H 0.55532 0.6065 0.60947 0.0
H559 H 0.4534 0.41352 0.61269 0.0
H560 H 0.44296 0.54565 0.6118 0.0
H561 H 0.56703 0.47448 0.60731 0.0
C562 C 0.60104 0.52398 0.61291 0.0
C563 C 0.59835 0.56145 0.61487 0.0
C564 C 0.44536 0.5167 0.61136 0.0
C565 C 0.52472 0.52048 0.60383 0.0
C566 C 0.40904 0.49634 0.61969 0.0
C567 C 0.41139 0.45884 0.62126 0.0
C568 C 0.48456 0.49946 0.60525 0.0
C569 C 0.45042 0.44243 0.61205 0.0
C570 C 0.5644 0.50342 0.60712 0.0
C571 C 0.55864 0.57764 0.60849 0.0
N572 N 0.48571 0.46288 0.60514 0.0
N573 N 0.52325 0.55703 0.60392 0.0
H574 H 0.62985 0.51002 0.37578 0.0
H575 H 0.37817 0.511 0.36784 0.0
H576 H 0.55358 0.41429 0.3868 0.0
H577 H 0.45262 0.60748 0.37976 0.0
H578 H 0.44154 0.47539 0.38321 0.0
H579 H 0.56588 0.54632 0.38573 0.0
C580 C 0.59963 0.49666 0.38096 0.0
C581 C 0.59676 0.45917 0.37986 0.0
C582 C 0.44407 0.50433 0.3831 0.0
C583 C 0.5234 0.50047 0.39069 0.0
C584 C 0.40788 0.52468 0.37428 0.0
C585 C 0.41042 0.56215 0.37198 0.0
C586 C 0.48333 0.52156 0.38894 0.0
C587 C 0.44949 0.57858 0.38096 0.0
C588 C 0.56314 0.51739 0.38666 0.0
C589 C 0.55704 0.44316 0.38709 0.0
N590 N 0.48466 0.55814 0.38833 0.0
N591 N 0.52177 0.46392 0.39151 0.0
H592 H 0.24432 0.11634 0.00306 0.0
H593 H 0.24536 0.90348 0.98692 0.0
H594 H 0.26669 0.04777 0.11418 0.0
H595 H 0.26667 0.97215 0.87561 0.0
H596 H 0.25078 0.95583 0.03418 0.0
H597 H 0.25012 0.06405 0.95572 0.0
C598 C 0.25094 0.09035 0.01749 0.0
C599 C 0.2553 0.08656 0.06273 0.0
C600 C 0.2548 0.95939 -0.00055 0.0
C601 C 0.26118 0.02635 0.00869 0.0
C602 C 0.25168 0.92951 0.97243 0.0
C603 C 0.25587 0.9333 0.92717 0.0
C604 C 0.2613 0.9936 0.98112 0.0
C605 C 0.26381 0.96778 0.91026 0.0
C606 C 0.25428 0.06051 0.99042 0.0
C607 C 0.26366 0.05214 0.07955 0.0
N608 N 0.26578 0.99659 0.93714 0.0
N609 N 0.26584 0.02337 0.05264 0.0
H610 H 0.04745 0.78729 0.88639 0.0
H611 H 0.97513 0.79879 0.12572 0.0
H612 H 0.1358 0.77788 0.99296 0.0
H613 H 0.88829 0.77256 0.02235 0.0
H614 H 0.03454 0.78105 0.07975 0.0
H615 H 0.98941 0.77153 0.93551 0.0
C616 C 0.05463 0.78123 0.9201 0.0
C617 C 0.09612 0.78468 0.93607 0.0
C618 C 1.0025 0.77834 0.06735 0.0
C619 C 0.02997 0.76728 0.99255 0.0
C620 C 0.96861 0.78868 0.09349 0.0
C621 C 0.92703 0.78795 0.07721 0.0
C622 C 0.9947 0.76812 0.0243 0.0
C623 C 0.92005 0.77397 0.03575 0.0
C624 C 0.02155 0.77205 0.94809 0.0
C625 C 0.10405 0.77593 0.97965 0.0
N626 N 0.95374 0.76542 0.01019 0.0
N627 N 0.071 0.76849 0.00676 0.0
H628 H 0.78172 0.11632 0.97938 0.0
H629 H 0.78077 0.90337 0.01134 0.0
H630 H 0.76197 0.04341 0.87337 0.0
H631 H 0.76145 0.97637 0.11737 0.0
H632 H 0.77742 0.95413 0.96028 0.0
H633 H 0.77785 0.06557 0.03044 0.0
C634 C 0.77621 0.08969 0.96681 0.0
C635 C 0.77183 0.08431 0.92188 0.0
C636 C 0.77351 0.95902 0.9947 0.0
C637 C 0.76806 0.02577 0.98032 0.0
C638 C 0.77545 0.93002 0.02391 0.0
C639 C 0.77105 0.93543 0.06884 0.0
C640 C 0.76789 0.99399 0.01041 0.0
C641 C 0.76444 0.97071 0.08311 0.0
C642 C 0.77397 0.0607 0.99603 0.0
C643 C 0.76495 0.04906 0.90762 0.0
N644 N 0.76344 0.99858 0.05412 0.0
N645 N 0.76366 0.0212 0.93661 0.0
H646 H 0.0479 0.23485 0.10286 0.0
H647 H 0.97616 0.22089 0.86392 0.0
H648 H 0.13663 0.24185 -0.00385 0.0
H649 H 0.88937 0.24859 0.96694 0.0
H650 H 0.03561 0.23917 0.90938 0.0
H651 H 0.99029 0.25085 0.05352 0.0
C652 C 0.05527 0.24045 0.06906 0.0
C653 C 0.09669 0.23622 0.05313 0.0
C654 C 1.00357 0.24208 0.92181 0.0
C655 C 0.03102 0.25384 -0.00361 0.0
C656 C 0.96966 0.23143 0.89596 0.0
C657 C 0.92809 0.23238 0.91233 0.0
C658 C 0.9958 0.25285 0.96468 0.0
C659 C 0.92113 0.24696 0.9535 0.0
C660 C 0.02243 0.24976 0.04093 0.0
C661 C 0.1049 0.24441 0.00943 0.0
N662 N 0.95484 0.25581 0.9788 0.0
N663 N 0.07206 0.25195 0.9822 0.0
H664 H 0.72272 0.40366 0.50624 0.0
H665 H 0.72035 0.61711 0.48645 0.0
H666 H 0.74671 0.45988 0.3856 0.0
H667 H 0.74924 0.56081 0.6058 0.0
H668 H 0.71858 0.55942 0.44871 0.0
H669 H 0.72095 0.46139 0.54369 0.0
C670 C 0.72759 0.4281 0.48762 0.0
C671 C 0.73515 0.42695 0.44273 0.0
C672 C 0.72536 0.55986 0.4832 0.0
C673 C 0.73268 0.49282 0.4851 0.0
C674 C 0.72631 0.59268 0.50472 0.0
C675 C 0.73525 0.59377 0.54932 0.0
C676 C 0.73275 0.52802 0.50669 0.0
C677 C 0.74268 0.56132 0.57142 0.0
C678 C 0.72665 0.46096 0.50897 0.0
C679 C 0.74121 0.45943 0.4202 0.0
N680 N 0.74105 0.52975 0.54997 0.0
N681 N 0.73964 0.49107 0.44155 0.0
H682 H 0.45468 0.37635 0.51596 0.0
H683 H 0.59842 0.21311 0.43585 0.0
H684 H 0.41203 0.26649 0.51135 0.0
H685 H 0.64836 0.31888 0.45835 0.0
H686 H 0.52674 0.23543 0.44899 0.0
H687 H 0.52178 0.35857 0.48244 0.0
C688 C 0.45915 0.34848 0.50751 0.0
C689 C 0.42756 0.32279 0.51692 0.0
C690 C 0.55316 0.254 0.45043 0.0
C691 C 0.50484 0.3023 0.47833 0.0
C692 C 0.59415 0.24133 0.44262 0.0
C693 C 0.62948 0.26415 0.4462 0.0
C694 C 0.54718 0.28981 0.46249 0.0
C695 C 0.62203 0.30044 0.45499 0.0
C696 C 0.49764 0.3384 0.48836 0.0
C697 C 0.43539 0.28719 0.50498 0.0
N698 N 0.58172 0.31207 0.46349 0.0
N699 N 0.47328 0.278 0.48662 0.0
H700 H 0.23722 0.46727 0.61496 0.0
H701 H 0.23862 0.55264 0.37618 0.0
H702 H 0.26111 0.40681 0.49862 0.0
H703 H 0.25814 0.61362 0.49292 0.0
H704 H 0.22645 0.49903 0.42064 0.0
H705 H 0.22448 0.52063 0.57027 0.0
C706 C 0.23876 0.46497 0.58002 0.0
C707 C 0.25052 0.43263 0.56049 0.0
C708 C 0.23266 0.5243 0.4365 0.0
C709 C 0.2363 0.49356 0.50923 0.0
C710 C 0.23928 0.55498 0.41114 0.0
C711 C 0.24962 0.58757 0.43089 0.0
C712 C 0.23611 0.52635 0.48189 0.0
C713 C 0.25062 0.5889 0.47642 0.0
C714 C 0.2318 0.49552 0.55454 0.0
C715 C 0.25252 0.43135 0.51498 0.0
N716 N 0.24428 0.55864 0.50042 0.0
N717 N 0.24581 0.46147 0.49086 0.0
H718 H 0.64745 0.70079 0.53897 0.0
H719 H 0.40709 0.75501 0.48325 0.0
H720 H 0.59526 0.8065 0.55615 0.0
H721 H 0.45455 0.64683 0.47413 0.0
H722 H 0.47393 0.77267 0.51781 0.0
H723 H 0.5753 0.67821 0.52455 0.0
C724 C 0.62075 0.71899 0.54098 0.0
C725 C 0.6274 0.75559 0.54848 0.0
C726 C 0.46959 0.74496 0.50864 0.0
C727 C 0.54508 0.73037 0.53084 0.0
C728 C 0.43133 0.7349 0.48887 0.0
C729 C 0.42515 0.69947 0.47539 0.0
C730 C 0.50219 0.7195 0.51475 0.0
C731 C 0.45786 0.67454 0.4837 0.0
C732 C 0.57958 0.70623 0.53226 0.0
C733 C 0.59165 0.77812 0.55005 0.0
N734 N 0.495 0.68508 0.50237 0.0
N735 N 0.55229 0.76531 0.54078 0.0
loop_
_geom_bond_atom_site_label_1
_geom_bond_atom_site_label_2
_geom_bond_distance
_geom_bond_site_symmetry_2
_ccdc_geom_bond_type
O0 Tb1 2.292 . S
O0 C3 1.255 . S
Tb1 O0 2.292 . S
Tb1 O17 2.326 . S
Tb1 O19 2.500 . S
Tb1 O20 2.473 . S
Tb1 O23 2.324 . S
Eu2 O6 2.292 . S
Eu2 C7 2.852 . S
Eu2 O18 2.324 . S
Eu2 O22 2.326 . S
Eu2 O24 2.500 . S
Eu2 O25 2.473 . S
C3 O0 1.255 . S
C3 O4 1.247 . S
O4 C3 1.247 . S
C5 O17 1.242 . S
C5 O18 1.258 . S
O6 Eu2 2.292 . S
O6 C8 1.255 . S
C7 Eu2 2.852 . S
C7 C11 1.503 . S
C7 O24 1.273 . S
C7 O25 1.257 . S
C8 O6 1.255 . S
C8 O9 1.247 . S
O9 C8 1.247 . S
C10 O22 1.242 . S
C10 O23 1.258 . S
C11 C7 1.503 . S
C11 C12 1.379 . S
C11 C16 1.392 . S
C12 C11 1.379 . S
C12 C13 1.404 . S
C12 H26 0.929 . S
C13 C12 1.404 . S
C13 C14 1.389 . S
C14 C13 1.389 . S
C14 C15 1.399 . S
C14 H27 0.931 . S
C15 C14 1.399 . S
C15 C16 1.390 . S
C16 C11 1.392 . S
C16 C15 1.390 . S
C16 H28 0.929 . S
O17 Tb1 2.326 . S
O17 C5 1.242 . S
O18 Eu2 2.324 . S
O18 C5 1.258 . S
O19 Tb1 2.500 . S
O19 C21 1.273 . S
O20 Tb1 2.473 . S
O20 C21 1.257 . S
C21 O19 1.273 . S
C21 O20 1.257 . S
O22 Eu2 2.326 . S
O22 C10 1.242 . S
O23 Tb1 2.324 . S
O23 C10 1.258 . S
O24 Eu2 2.500 . S
O24 C7 1.273 . S
O25 Eu2 2.473 . S
O25 C7 1.257 . S
H26 C12 0.929 . S
H27 C14 0.931 . S
H28 C16 0.929 . S
O29 Tb30 2.292 . S
O29 C32 1.255 . S
Tb30 O29 2.292 . S
Tb30 O46 2.326 . S
Tb30 O48 2.500 . S
Tb30 O49 2.473 . S
Tb30 O52 2.324 . S
Eu31 O35 2.292 . S
Eu31 C36 2.852 . S
Eu31 O47 2.324 . S
Eu31 O51 2.326 . S
Eu31 O53 2.500 . S
Eu31 O54 2.473 . S
C32 O29 1.255 . S
C32 O33 1.247 . S
O33 C32 1.247 . S
C34 O46 1.242 . S
C34 O47 1.258 . S
O35 Eu31 2.292 . S
O35 C37 1.255 . S
C36 Eu31 2.852 . S
C36 C40 1.503 . S
C36 O53 1.273 . S
C36 O54 1.257 . S
C37 O35 1.255 . S
C37 O38 1.247 . S
O38 C37 1.247 . S
C39 O51 1.242 . S
C39 O52 1.258 . S
C40 C36 1.503 . S
C40 C41 1.379 . S
C40 C45 1.392 . S
C41 C40 1.379 . S
C41 C42 1.404 . S
C41 H55 0.929 . S
C42 C41 1.404 . S
C42 C43 1.389 . S
C43 C42 1.389 . S
C43 C44 1.399 . S
C43 H56 0.931 . S
C44 C43 1.399 . S
C44 C45 1.390 . S
C45 C40 1.392 . S
C45 C44 1.390 . S
C45 H57 0.929 . S
O46 Tb30 2.326 . S
O46 C34 1.242 . S
O47 Eu31 2.324 . S
O47 C34 1.258 . S
O48 Tb30 2.500 . S
O48 C50 1.273 . S
O49 Tb30 2.473 . S
O49 C50 1.257 . S
C50 O48 1.273 . S
C50 O49 1.257 . S
O51 Eu31 2.326 . S
O51 C39 1.242 . S
O52 Tb30 2.324 . S
O52 C39 1.258 . S
O53 Eu31 2.500 . S
O53 C36 1.273 . S
O54 Eu31 2.473 . S
O54 C36 1.257 . S
H55 C41 0.929 . S
H56 C43 0.931 . S
H57 C45 0.929 . S
O58 Tb59 2.292 . S
O58 C61 1.255 . S
Tb59 O58 2.292 . S
Tb59 O75 2.326 . S
Tb59 O77 2.500 . S
Tb59 O78 2.473 . S
Tb59 O81 2.324 . S
Eu60 O64 2.292 . S
Eu60 C65 2.852 . S
Eu60 O76 2.324 . S
Eu60 O80 2.326 . S
Eu60 O82 2.500 . S
Eu60 O83 2.473 . S
C61 O58 1.255 . S
C61 O62 1.247 . S
O62 C61 1.247 . S
C63 O75 1.242 . S
C63 O76 1.258 . S
O64 Eu60 2.292 . S
O64 C66 1.255 . S
C65 Eu60 2.852 . S
C65 C69 1.503 . S
C65 O82 1.273 . S
C65 O83 1.257 . S
C66 O64 1.255 . S
C66 O67 1.247 . S
O67 C66 1.247 . S
C68 O80 1.242 . S
C68 O81 1.258 . S
C69 C65 1.503 . S
C69 C70 1.379 . S
C69 C74 1.392 . S
C70 C69 1.379 . S
C70 C71 1.404 . S
C70 H84 0.929 . S
C71 C70 1.404 . S
C71 C72 1.389 . S
C72 C71 1.389 . S
C72 C73 1.399 . S
C72 H85 0.931 . S
C73 C72 1.399 . S
C73 C74 1.390 . S
C74 C69 1.392 . S
C74 C73 1.390 . S
C74 H86 0.929 . S
O75 Tb59 2.326 . S
O75 C63 1.242 . S
O76 Eu60 2.324 . S
O76 C63 1.258 . S
O77 Tb59 2.500 . S
O77 C79 1.273 . S
O78 Tb59 2.473 . S
O78 C79 1.257 . S
C79 O77 1.273 . S
C79 O78 1.257 . S
O80 Eu60 2.326 . S
O80 C68 1.242 . S
O81 Tb59 2.324 . S
O81 C68 1.258 . S
O82 Eu60 2.500 . S
O82 C65 1.273 . S
O83 Eu60 2.473 . S
O83 C65 1.257 . S
H84 C70 0.929 . S
H85 C72 0.931 . S
H86 C74 0.929 . S
O87 Tb88 2.292 . S
O87 C90 1.255 . S
Tb88 O87 2.292 . S
Tb88 O104 2.326 . S
Tb88 O106 2.500 . S
Tb88 O107 2.473 . S
Tb88 O110 2.324 . S
Eu89 O93 2.292 . S
Eu89 C94 2.852 . S
Eu89 O105 2.324 . S
Eu89 O109 2.326 . S
Eu89 O111 2.500 . S
Eu89 O112 2.473 . S
C90 O87 1.255 . S
C90 O91 1.247 . S
O91 C90 1.247 . S
C92 O104 1.242 . S
C92 O105 1.258 . S
O93 Eu89 2.292 . S
O93 C95 1.255 . S
C94 Eu89 2.852 . S
C94 C98 1.503 . S
C94 O111 1.273 . S
C94 O112 1.257 . S
C95 O93 1.255 . S
C95 O96 1.247 . S
O96 C95 1.247 . S
C97 O109 1.242 . S
C97 O110 1.258 . S
C98 C94 1.503 . S
C98 C99 1.379 . S
C98 C103 1.392 . S
C99 C98 1.379 . S
C99 C100 1.404 . S
C99 H113 0.929 . S
C100 C99 1.404 . S
C100 C101 1.389 . S
C101 C100 1.389 . S
C101 C102 1.399 . S
C101 H114 0.931 . S
C102 C101 1.399 . S
C102 C103 1.390 . S
C103 C98 1.392 . S
C103 C102 1.390 . S
C103 H115 0.929 . S
O104 Tb88 2.326 . S
O104 C92 1.242 . S
O105 Eu89 2.324 . S
O105 C92 1.258 . S
O106 Tb88 2.500 . S
O106 C108 1.273 . S
O107 Tb88 2.473 . S
O107 C108 1.257 . S
C108 O106 1.273 . S
C108 O107 1.257 . S
O109 Eu89 2.326 . S
O109 C97 1.242 . S
O110 Tb88 2.324 . S
O110 C97 1.258 . S
O111 Eu89 2.500 . S
O111 C94 1.273 . S
O112 Eu89 2.473 . S
O112 C94 1.257 . S
H113 C99 0.929 . S
H114 C101 0.931 . S
H115 C103 0.929 . S
O116 Tb117 2.292 . S
O116 C119 1.255 . S
Tb117 O116 2.292 . S
Tb117 O133 2.326 . S
Tb117 O135 2.500 . S
Tb117 O136 2.473 . S
Tb117 O139 2.324 . S
Eu118 O122 2.292 . S
Eu118 C123 2.852 . S
Eu118 O134 2.324 . S
Eu118 O138 2.326 . S
Eu118 O140 2.500 . S
Eu118 O141 2.473 . S
C119 O116 1.255 . S
C119 O120 1.247 . S
O120 C119 1.247 . S
C121 O133 1.242 . S
C121 O134 1.258 . S
O122 Eu118 2.292 . S
O122 C124 1.255 . S
C123 Eu118 2.852 . S
C123 C127 1.503 . S
C123 O140 1.273 . S
C123 O141 1.257 . S
C124 O122 1.255 . S
C124 O125 1.247 . S
O125 C124 1.247 . S
C126 O138 1.242 . S
C126 O139 1.258 . S
C127 C123 1.503 . S
C127 C128 1.379 . S
C127 C132 1.392 . S
C128 C127 1.379 . S
C128 C129 1.404 . S
C128 H142 0.929 . S
C129 C128 1.404 . S
C129 C130 1.389 . S
C130 C129 1.389 . S
C130 C131 1.399 . S
C130 H143 0.931 . S
C131 C130 1.399 . S
C131 C132 1.390 . S
C132 C127 1.392 . S
C132 C131 1.390 . S
C132 H144 0.929 . S
O133 Tb117 2.326 . S
O133 C121 1.242 . S
O134 Eu118 2.324 . S
O134 C121 1.258 . S
O135 Tb117 2.500 . S
O135 C137 1.273 . S
O136 Tb117 2.473 . S
O136 C137 1.257 . S
C137 O135 1.273 . S
C137 O136 1.257 . S
O138 Eu118 2.326 . S
O138 C126 1.242 . S
O139 Tb117 2.324 . S
O139 C126 1.258 . S
O140 Eu118 2.500 . S
O140 C123 1.273 . S
O141 Eu118 2.473 . S
O141 C123 1.257 . S
H142 C128 0.929 . S
H143 C130 0.931 . S
H144 C132 0.929 . S
O145 Tb146 2.292 . S
O145 C148 1.255 . S
Tb146 O145 2.292 . S
Tb146 O162 2.326 . S
Tb146 O164 2.500 . S
Tb146 O165 2.473 . S
Tb146 O168 2.324 . S
Eu147 O151 2.292 . S
Eu147 C152 2.852 . S
Eu147 O163 2.324 . S
Eu147 O167 2.326 . S
Eu147 O169 2.500 . S
Eu147 O170 2.473 . S
C148 O145 1.255 . S
C148 O149 1.247 . S
O149 C148 1.247 . S
C150 O162 1.242 . S
C150 O163 1.258 . S
O151 Eu147 2.292 . S
O151 C153 1.255 . S
C152 Eu147 2.852 . S
C152 C156 1.503 . S
C152 O169 1.273 . S
C152 O170 1.257 . S
C153 O151 1.255 . S
C153 O154 1.247 . S
O154 C153 1.247 . S
C155 O167 1.242 . S
C155 O168 1.258 . S
C156 C152 1.503 . S
C156 C157 1.379 . S
C156 C161 1.392 . S
C157 C156 1.379 . S
C157 C158 1.404 . S
C157 H171 0.929 . S
C158 C157 1.404 . S
C158 C159 1.389 . S
C159 C158 1.389 . S
C159 C160 1.399 . S
C159 H172 0.931 . S
C160 C159 1.399 . S
C160 C161 1.390 . S
C161 C156 1.392 . S
C161 C160 1.390 . S
C161 H173 0.929 . S
O162 Tb146 2.326 . S
O162 C150 1.242 . S
O163 Eu147 2.324 . S
O163 C150 1.258 . S
O164 Tb146 2.500 . S
O164 C166 1.273 . S
O165 Tb146 2.473 . S
O165 C166 1.257 . S
C166 O164 1.273 . S
C166 O165 1.257 . S
O167 Eu147 2.326 . S
O167 C155 1.242 . S
O168 Tb146 2.324 . S
O168 C155 1.258 . S
O169 Eu147 2.500 . S
O169 C152 1.273 . S
O170 Eu147 2.473 . S
O170 C152 1.257 . S
H171 C157 0.929 . S
H172 C159 0.931 . S
H173 C161 0.929 . S
O174 Tb175 2.292 . S
O174 C177 1.255 . S
Tb175 O174 2.292 . S
Tb175 O191 2.326 . S
Tb175 O193 2.500 . S
Tb175 O194 2.473 . S
Tb175 O197 2.324 . S
Eu176 O180 2.292 . S
Eu176 C181 2.852 . S
Eu176 O192 2.324 . S
Eu176 O196 2.326 . S
Eu176 O198 2.500 . S
Eu176 O199 2.473 . S
C177 O174 1.255 . S
C177 O178 1.247 . S
O178 C177 1.247 . S
C179 O191 1.242 . S
C179 O192 1.258 . S
O180 Eu176 2.292 . S
O180 C182 1.255 . S
C181 Eu176 2.852 . S
C181 C185 1.503 . S
C181 O198 1.273 . S
C181 O199 1.257 . S
C182 O180 1.255 . S
C182 O183 1.247 . S
O183 C182 1.247 . S
C184 O196 1.242 . S
C184 O197 1.258 . S
C185 C181 1.503 . S
C185 C186 1.379 . S
C185 C190 1.392 . S
C186 C185 1.379 . S
C186 C187 1.404 . S
C186 H200 0.929 . S
C187 C186 1.404 . S
C187 C188 1.389 . S
C188 C187 1.389 . S
C188 C189 1.399 . S
C188 H201 0.931 . S
C189 C188 1.399 . S
C189 C190 1.390 . S
C190 C185 1.392 . S
C190 C189 1.390 . S
C190 H202 0.929 . S
O191 Tb175 2.326 . S
O191 C179 1.242 . S
O192 Eu176 2.324 . S
O192 C179 1.258 . S
O193 Tb175 2.500 . S
O193 C195 1.273 . S
O194 Tb175 2.473 . S
O194 C195 1.257 . S
C195 O193 1.273 . S
C195 O194 1.257 . S
O196 Eu176 2.326 . S
O196 C184 1.242 . S
O197 Tb175 2.324 . S
O197 C184 1.258 . S
O198 Eu176 2.500 . S
O198 C181 1.273 . S
O199 Eu176 2.473 . S
O199 C181 1.257 . S
H200 C186 0.929 . S
H201 C188 0.931 . S
H202 C190 0.929 . S
O203 Tb204 2.292 . S
O203 C206 1.255 . S
Tb204 O203 2.292 . S
Tb204 O220 2.326 . S
Tb204 O222 2.500 . S
Tb204 O223 2.473 . S
Tb204 O226 2.324 . S
Eu205 O209 2.292 . S
Eu205 C210 2.852 . S
Eu205 O221 2.324 . S
Eu205 O225 2.326 . S
Eu205 O227 2.500 . S
Eu205 O228 2.473 . S
C206 O203 1.255 . S
C206 O207 1.247 . S
O207 C206 1.247 . S
C208 O220 1.242 . S
C208 O221 1.258 . S
O209 Eu205 2.292 . S
O209 C211 1.255 . S
C210 Eu205 2.852 . S
C210 C214 1.503 . S
C210 O227 1.273 . S
C210 O228 1.257 . S
C211 O209 1.255 . S
C211 O212 1.247 . S
O212 C211 1.247 . S
C213 O225 1.242 . S
C213 O226 1.258 . S
C214 C210 1.503 . S
C214 C215 1.379 . S
C214 C219 1.392 . S
C215 C214 1.379 . S
C215 C216 1.404 . S
C215 H229 0.929 . S
C216 C215 1.404 . S
C216 C217 1.389 . S
C217 C216 1.389 . S
C217 C218 1.399 . S
C217 H230 0.931 . S
C218 C217 1.399 . S
C218 C219 1.390 . S
C219 C214 1.392 . S
C219 C218 1.390 . S
C219 H231 0.929 . S
O220 Tb204 2.326 . S
O220 C208 1.242 . S
O221 Eu205 2.324 . S
O221 C208 1.258 . S
O222 Tb204 2.500 . S
O222 C224 1.273 . S
O223 Tb204 2.473 . S
O223 C224 1.257 . S
C224 O222 1.273 . S
C224 O223 1.257 . S
O225 Eu205 2.326 . S
O225 C213 1.242 . S
O226 Tb204 2.324 . S
O226 C213 1.258 . S
O227 Eu205 2.500 . S
O227 C210 1.273 . S
O228 Eu205 2.473 . S
O228 C210 1.257 . S
H229 C215 0.929 . S
H230 C217 0.931 . S
H231 C219 0.929 . S
H232 C238 0.930 . S
H233 C242 0.930 . S
H234 C247 0.930 . S
H235 C245 0.929 . S
H236 C240 0.929 . S
H237 C246 0.929 . S
C238 H232 0.930 . S
C238 C239 1.367 . S
C238 C246 1.378 1_545 S
C239 C238 1.367 . S
C239 C247 1.435 . S
C240 H236 0.929 . S
C240 C242 1.378 . S
C240 C244 1.350 . S
C241 C244 1.463 . S
C241 C246 1.350 . S
C241 N249 1.427 . S
C242 H233 0.930 . S
C242 C240 1.378 . S
C242 C243 1.367 . S
C243 C242 1.367 . S
C243 C245 1.433 . S
C244 C240 1.350 . S
C244 C241 1.463 . S
C244 N248 1.427 . S
C245 H235 0.929 . S
C245 C243 1.433 . S
C245 N248 1.384 . S
C246 H237 0.929 . S
C246 C238 1.378 1_565 S
C246 C241 1.350 . S
C247 H234 0.930 . S
C247 C239 1.435 . S
C247 N249 1.381 1_545 S
N248 C244 1.427 . S
N248 C245 1.384 . S
N249 C241 1.427 . S
N249 C247 1.381 1_565 S
H250 C256 0.930 . S
H251 C260 0.930 . S
H252 C265 0.929 . S
H253 C263 0.929 . S
H254 C258 0.929 . S
H255 C264 0.929 . S
C256 H250 0.930 . S
C256 C257 1.367 . S
C256 C264 1.378 1_455 S
C257 C256 1.367 . S
C257 C265 1.433 . S
C258 H254 0.929 . S
C258 C260 1.378 . S
C258 C262 1.350 . S
C259 C262 1.463 . S
C259 C264 1.350 . S
C259 N267 1.427 . S
C260 H251 0.930 . S
C260 C258 1.378 . S
C260 C261 1.367 . S
C261 C260 1.367 . S
C261 C263 1.433 . S
C262 C258 1.350 . S
C262 C259 1.463 . S
C262 N266 1.427 . S
C263 H253 0.929 . S
C263 C261 1.433 . S
C263 N266 1.384 . S
C264 H255 0.929 . S
C264 C256 1.378 1_655 S
C264 C259 1.350 . S
C265 H252 0.929 . S
C265 C257 1.433 . S
C265 N267 1.384 1_455 S
N266 C262 1.427 . S
N266 C263 1.384 . S
N267 C259 1.427 . S
N267 C265 1.384 1_655 S
H268 C274 0.930 . S
H269 C278 0.927 1_565 S
H270 C283 0.929 . S
H271 C281 0.929 . S
H272 C276 0.929 . S
H273 C282 0.929 . S
C274 H268 0.930 . S
C274 C275 1.367 . S
C274 C282 1.378 . S
C275 C274 1.367 . S
C275 C283 1.433 . S
C276 H272 0.929 . S
C276 C278 1.390 . S
C276 C280 1.350 . S
C277 C280 1.463 . S
C277 C282 1.350 . S
C277 N285 1.427 . S
C278 H269 0.927 1_545 S
C278 C276 1.390 . S
C278 C279 1.358 1_545 S
C279 C278 1.358 1_565 S
C279 C281 1.433 . S
C280 C276 1.350 . S
C280 C277 1.463 . S
C280 N284 1.427 . S
C281 H271 0.929 . S
C281 C279 1.433 . S
C281 N284 1.384 1_565 S
C282 H273 0.929 . S
C282 C274 1.378 . S
C282 C277 1.350 . S
C283 H270 0.929 . S
C283 C275 1.433 . S
C283 N285 1.384 . S
N284 C280 1.427 . S
N284 C281 1.384 1_545 S
N285 C277 1.427 . S
N285 C283 1.384 . S
H286 C292 0.930 . S
H287 C296 0.930 . S
H288 C301 0.929 . S
H289 C299 0.929 . S
H290 C294 0.929 . S
H291 C300 0.929 . S
C292 H286 0.930 . S
C292 C293 1.367 . S
C292 C300 1.378 1_655 S
C293 C292 1.367 . S
C293 C301 1.433 . S
C294 H290 0.929 . S
C294 C296 1.378 . S
C294 C298 1.350 . S
C295 C298 1.463 . S
C295 C300 1.350 . S
C295 N303 1.427 . S
C296 H287 0.930 . S
C296 C294 1.378 . S
C296 C297 1.367 . S
C297 C296 1.367 . S
C297 C299 1.433 . S
C298 C294 1.350 . S
C298 C295 1.463 . S
C298 N302 1.427 . S
C299 H289 0.929 . S
C299 C297 1.433 . S
C299 N302 1.384 . S
C300 H291 0.929 . S
C300 C292 1.378 1_455 S
C300 C295 1.350 . S
C301 H288 0.929 . S
C301 C293 1.433 . S
C301 N303 1.384 1_655 S
N302 C298 1.427 . S
N302 C299 1.384 . S
N303 C295 1.427 . S
N303 C301 1.384 1_455 S
H304 C310 0.930 . S
H305 C314 0.930 . S
H306 C319 0.930 . S
H307 C317 0.929 . S
H308 C312 0.929 . S
H309 C318 0.929 . S
C310 H304 0.930 . S
C310 C311 1.367 . S
C310 C318 1.378 1_565 S
C311 C310 1.367 . S
C311 C319 1.435 . S
C312 H308 0.929 . S
C312 C314 1.378 . S
C312 C316 1.350 . S
C313 C316 1.463 . S
C313 C318 1.350 . S
C313 N321 1.427 . S
C314 H305 0.930 . S
C314 C312 1.378 . S
C314 C315 1.367 . S
C315 C314 1.367 . S
C315 C317 1.433 . S
C316 C312 1.350 . S
C316 C313 1.463 . S
C316 N320 1.427 . S
C317 H307 0.929 . S
C317 C315 1.433 . S
C317 N320 1.384 . S
C318 H309 0.929 . S
C318 C310 1.378 1_545 S
C318 C313 1.350 . S
C319 H306 0.930 . S
C319 C311 1.435 . S
C319 N321 1.381 1_565 S
N320 C316 1.427 . S
N320 C317 1.384 . S
N321 C313 1.427 . S
N321 C319 1.381 1_545 S
H322 C328 0.930 . S
H323 C332 0.930 . S
H324 C337 0.929 . S
H325 C335 0.929 . S
H326 C330 0.929 . S
H327 C336 0.929 . S
C328 H322 0.930 . S
C328 C329 1.367 . S
C328 C336 1.378 . S
C329 C328 1.367 . S
C329 C337 1.433 . S
C330 H326 0.929 . S
C330 C332 1.378 1_455 S
C330 C334 1.350 . S
C331 C334 1.463 . S
C331 C336 1.350 . S
C331 N339 1.427 . S
C332 H323 0.930 . S
C332 C330 1.378 1_655 S
C332 C333 1.367 . S
C333 C332 1.367 . S
C333 C335 1.433 . S
C334 C330 1.350 . S
C334 C331 1.463 . S
C334 N338 1.427 . S
C335 H325 0.929 . S
C335 C333 1.433 . S
C335 N338 1.384 1_655 S
C336 H327 0.929 . S
C336 C328 1.378 . S
C336 C331 1.350 . S
C337 H324 0.929 . S
C337 C329 1.433 . S
C337 N339 1.384 . S
N338 C334 1.427 . S
N338 C335 1.384 1_455 S
N339 C331 1.427 . S
N339 C337 1.384 . S
H340 C346 0.930 . S
H341 C350 0.930 . S
H342 C355 0.929 1_545 S
H343 C353 0.929 . S
H344 C348 0.929 . S
H345 C354 0.929 . S
C346 H340 0.930 . S
C346 C347 1.367 . S
C346 C354 1.378 1_545 S
C347 C346 1.367 . S
C347 C355 1.433 1_545 S
C348 H344 0.929 . S
C348 C350 1.378 . S
C348 C352 1.350 . S
C349 C352 1.463 . S
C349 C354 1.350 . S
C349 N357 1.427 . S
C350 H341 0.930 . S
C350 C348 1.378 . S
C350 C351 1.367 . S
C351 C350 1.367 . S
C351 C353 1.433 . S
C352 C348 1.350 . S
C352 C349 1.463 . S
C352 N356 1.427 . S
C353 H343 0.929 . S
C353 C351 1.433 . S
C353 N356 1.384 . S
C354 H345 0.929 . S
C354 C346 1.378 1_565 S
C354 C349 1.350 . S
C355 H342 0.929 1_565 S
C355 C347 1.433 1_565 S
C355 N357 1.384 . S
N356 C352 1.427 . S
N356 C353 1.384 . S
N357 C349 1.427 . S
N357 C355 1.384 . S
H358 C364 0.930 . S
H359 C368 0.930 . S
H360 C373 0.929 . S
H361 C371 0.929 . S
H362 C366 0.929 1_655 S
H363 C372 0.929 . S
C364 H358 0.930 . S
C364 C365 1.367 . S
C364 C372 1.378 . S
C365 C364 1.367 . S
C365 C373 1.433 . S
C366 H362 0.929 1_455 S
C366 C368 1.378 . S
C366 C370 1.350 1_455 S
C367 C370 1.463 . S
C367 C372 1.350 . S
C367 N375 1.427 . S
C368 H359 0.930 . S
C368 C366 1.378 . S
C368 C369 1.367 . S
C369 C368 1.367 . S
C369 C371 1.433 . S
C370 C366 1.350 1_655 S
C370 C367 1.463 . S
C370 N374 1.427 . S
C371 H361 0.929 . S
C371 C369 1.433 . S
C371 N374 1.384 1_455 S
C372 H363 0.929 . S
C372 C364 1.378 . S
C372 C367 1.350 . S
C373 H360 0.929 . S
C373 C365 1.433 . S
C373 N375 1.384 . S
N374 C370 1.427 . S
N374 C371 1.384 1_655 S
N375 C367 1.427 . S
N375 C373 1.384 . S
H376 C382 0.930 . S
H377 C386 0.930 . S
H378 C391 0.929 . S
H379 C389 0.929 . S
H380 C384 0.929 . S
H381 C390 0.929 . S
C382 H376 0.930 . S
C382 C383 1.367 . S
C382 C390 1.378 . S
C383 C382 1.367 . S
C383 C391 1.433 . S
C384 H380 0.929 . S
C384 C386 1.378 . S
C384 C388 1.350 . S
C385 C388 1.463 . S
C385 C390 1.350 . S
C385 N393 1.427 . S
C386 H377 0.930 . S
C386 C384 1.378 . S
C386 C387 1.367 . S
C387 C386 1.367 . S
C387 C389 1.433 . S
C388 C384 1.350 . S
C388 C385 1.463 . S
C388 N392 1.427 . S
C389 H379 0.929 . S
C389 C387 1.433 . S
C389 N392 1.384 . S
C390 H381 0.929 . S
C390 C382 1.378 . S
C390 C385 1.350 . S
C391 H378 0.929 . S
C391 C383 1.433 . S
C391 N393 1.384 . S
N392 C388 1.427 . S
N392 C389 1.384 . S
N393 C385 1.427 . S
N393 C391 1.384 . S
H394 C400 0.930 . S
H395 C404 0.930 . S
H396 C409 0.929 . S
H397 C407 0.929 . S
H398 C402 0.929 . S
H399 C408 0.929 . S
C400 H394 0.930 . S
C400 C401 1.367 . S
C400 C408 1.378 . S
C401 C400 1.367 . S
C401 C409 1.433 . S
C402 H398 0.929 . S
C402 C404 1.378 . S
C402 C406 1.350 . S
C403 C406 1.463 . S
C403 C408 1.350 . S
C403 N411 1.427 . S
C404 H395 0.930 . S
C404 C402 1.378 . S
C404 C405 1.367 . S
C405 C404 1.367 . S
C405 C407 1.433 . S
C406 C402 1.350 . S
C406 C403 1.463 . S
C406 N410 1.427 . S
C407 H397 0.929 . S
C407 C405 1.433 . S
C407 N410 1.384 . S
C408 H399 0.929 . S
C408 C400 1.378 . S
C408 C403 1.350 . S
C409 H396 0.929 . S
C409 C401 1.433 . S
C409 N411 1.384 . S
N410 C406 1.427 . S
N410 C407 1.384 . S
N411 C403 1.427 . S
N411 C409 1.384 . S
H412 C418 0.930 . S
H413 C422 0.930 . S
H414 C427 0.929 . S
H415 C425 0.929 . S
H416 C420 0.929 . S
H417 C426 0.929 . S
C418 H412 0.930 . S
C418 C419 1.367 . S
C418 C426 1.378 . S
C419 C418 1.367 . S
C419 C427 1.433 . S
C420 H416 0.929 . S
C420 C422 1.378 . S
C420 C424 1.350 . S
C421 C424 1.463 . S
C421 C426 1.350 . S
C421 N429 1.427 . S
C422 H413 0.930 . S
C422 C420 1.378 . S
C422 C423 1.367 . S
C423 C422 1.367 . S
C423 C425 1.433 . S
C424 C420 1.350 . S
C424 C421 1.463 . S
C424 N428 1.427 . S
C425 H415 0.929 . S
C425 C423 1.433 . S
C425 N428 1.384 . S
C426 H417 0.929 . S
C426 C418 1.378 . S
C426 C421 1.350 . S
C427 H414 0.929 . S
C427 C419 1.433 . S
C427 N429 1.384 . S
N428 C424 1.427 . S
N428 C425 1.384 . S
N429 C421 1.427 . S
N429 C427 1.384 . S
H430 C436 0.930 . S
H431 C440 0.930 . S
H432 C445 0.929 . S
H433 C443 0.929 . S
H434 C438 0.929 . S
H435 C444 0.929 . S
C436 H430 0.930 . S
C436 C437 1.367 . S
C436 C444 1.378 . S
C437 C436 1.367 . S
C437 C445 1.433 . S
C438 H434 0.929 . S
C438 C440 1.378 . S
C438 C442 1.350 . S
C439 C442 1.463 . S
C439 C444 1.350 . S
C439 N447 1.427 . S
C440 H431 0.930 . S
C440 C438 1.378 . S
C440 C441 1.367 . S
C441 C440 1.367 . S
C441 C443 1.433 . S
C442 C438 1.350 . S
C442 C439 1.463 . S
C442 N446 1.427 . S
C443 H433 0.929 . S
C443 C441 1.433 . S
C443 N446 1.384 . S
C444 H435 0.929 . S
C444 C436 1.378 . S
C444 C439 1.350 . S
C445 H432 0.929 . S
C445 C437 1.433 . S
C445 N447 1.384 . S
N446 C442 1.427 . S
N446 C443 1.384 . S
N447 C439 1.427 . S
N447 C445 1.384 . S
H448 C454 0.930 . S
H449 C458 0.930 . S
H450 C463 0.929 . S
H451 C461 0.929 . S
H452 C456 0.929 . S
H453 C462 0.929 . S
C454 H448 0.930 . S
C454 C455 1.367 . S
C454 C462 1.378 . S
C455 C454 1.367 . S
C455 C463 1.433 . S
C456 H452 0.929 . S
C456 C458 1.378 . S
C456 C460 1.350 . S
C457 C460 1.463 . S
C457 C462 1.350 . S
C457 N465 1.427 . S
C458 H449 0.930 . S
C458 C456 1.378 . S
C458 C459 1.367 . S
C459 C458 1.367 . S
C459 C461 1.433 . S
C460 C456 1.350 . S
C460 C457 1.463 . S
C460 N464 1.427 . S
C461 H451 0.929 . S
C461 C459 1.433 . S
C461 N464 1.384 . S
C462 H453 0.929 . S
C462 C454 1.378 . S
C462 C457 1.350 . S
C463 H450 0.929 . S
C463 C455 1.433 . S
C463 N465 1.384 . S
N464 C460 1.427 . S
N464 C461 1.384 . S
N465 C457 1.427 . S
N465 C463 1.384 . S
H466 C472 0.930 . S
H467 C476 0.930 . S
H468 C481 0.929 . S
H469 C479 0.929 . S
H470 C474 0.929 . S
H471 C480 0.929 . S
C472 H466 0.930 . S
C472 C473 1.367 . S
C472 C480 1.378 . S
C473 C472 1.367 . S
C473 C481 1.433 . S
C474 H470 0.929 . S
C474 C476 1.378 . S
C474 C478 1.350 . S
C475 C478 1.463 . S
C475 C480 1.350 . S
C475 N483 1.427 . S
C476 H467 0.930 . S
C476 C474 1.378 . S
C476 C477 1.367 . S
C477 C476 1.367 . S
C477 C479 1.433 . S
C478 C474 1.350 . S
C478 C475 1.463 . S
C478 N482 1.427 . S
C479 H469 0.929 . S
C479 C477 1.433 . S
C479 N482 1.384 . S
C480 H471 0.929 . S
C480 C472 1.378 . S
C480 C475 1.350 . S
C481 H468 0.929 . S
C481 C473 1.433 . S
C481 N483 1.384 . S
N482 C478 1.427 . S
N482 C479 1.384 . S
N483 C475 1.427 . S
N483 C481 1.384 . S
H484 C490 0.930 . S
H485 C494 0.930 . S
H486 C499 0.929 . S
H487 C497 0.929 . S
H488 C492 0.929 . S
H489 C498 0.929 . S
C490 H484 0.930 . S
C490 C491 1.367 . S
C490 C498 1.378 . S
C491 C490 1.367 . S
C491 C499 1.433 . S
C492 H488 0.929 . S
C492 C494 1.378 . S
C492 C496 1.350 . S
C493 C496 1.463 . S
C493 C498 1.350 . S
C493 N501 1.427 . S
C494 H485 0.930 . S
C494 C492 1.378 . S
C494 C495 1.367 . S
C495 C494 1.367 . S
C495 C497 1.433 . S
C496 C492 1.350 . S
C496 C493 1.463 . S
C496 N500 1.427 . S
C497 H487 0.929 . S
C497 C495 1.433 . S
C497 N500 1.384 . S
C498 H489 0.929 . S
C498 C490 1.378 . S
C498 C493 1.350 . S
C499 H486 0.929 . S
C499 C491 1.433 . S
C499 N501 1.384 . S
N500 C496 1.427 . S
N500 C497 1.384 . S
N501 C493 1.427 . S
N501 C499 1.384 . S
H502 C508 0.930 . S
H503 C512 0.930 . S
H504 C517 0.929 . S
H505 C515 0.929 . S
H506 C510 0.929 . S
H507 C516 0.929 . S
C508 H502 0.930 . S
C508 C509 1.367 . S
C508 C516 1.378 . S
C509 C508 1.367 . S
C509 C517 1.433 . S
C510 H506 0.929 . S
C510 C512 1.378 . S
C510 C514 1.350 . S
C511 C514 1.463 . S
C511 C516 1.350 . S
C511 N519 1.427 . S
C512 H503 0.930 . S
C512 C510 1.378 . S
C512 C513 1.367 . S
C513 C512 1.367 . S
C513 C515 1.433 . S
C514 C510 1.350 . S
C514 C511 1.463 . S
C514 N518 1.427 . S
C515 H505 0.929 . S
C515 C513 1.433 . S
C515 N518 1.384 . S
C516 H507 0.929 . S
C516 C508 1.378 . S
C516 C511 1.350 . S
C517 H504 0.929 . S
C517 C509 1.433 . S
C517 N519 1.384 . S
N518 C514 1.427 . S
N518 C515 1.384 . S
N519 C511 1.427 . S
N519 C517 1.384 . S
H520 C526 0.930 . S
H521 C530 0.930 . S
H522 C535 0.929 . S
H523 C533 0.929 . S
H524 C528 0.929 . S
H525 C534 0.929 . S
C526 H520 0.930 . S
C526 C527 1.367 . S
C526 C534 1.378 . S
C527 C526 1.367 . S
C527 C535 1.433 . S
C528 H524 0.929 . S
C528 C530 1.378 . S
C528 C532 1.350 . S
C529 C532 1.463 1_445 S
C529 C534 1.350 . S
C529 N537 1.427 . S
C530 H521 0.930 . S
C530 C528 1.378 . S
C530 C531 1.367 . S
C531 C530 1.367 . S
C531 C533 1.433 . S
C532 C528 1.350 . S
C532 C529 1.463 1_665 S
C532 N536 1.427 . S
C533 H523 0.929 . S
C533 C531 1.433 . S
C533 N536 1.384 . S
C534 H525 0.929 . S
C534 C526 1.378 . S
C534 C529 1.350 . S
C535 H522 0.929 . S
C535 C527 1.433 . S
C535 N537 1.384 . S
N536 C532 1.427 . S
N536 C533 1.384 . S
N537 C529 1.427 . S
N537 C535 1.384 . S
H538 C544 0.930 . S
H539 C548 0.930 . S
H540 C553 0.929 . S
H541 C551 0.929 . S
H542 C546 0.929 . S
H543 C552 0.929 . S
C544 H538 0.930 . S
C544 C545 1.367 . S
C544 C552 1.378 . S
C545 C544 1.367 . S
C545 C553 1.433 . S
C546 H542 0.929 . S
C546 C548 1.378 . S
C546 C550 1.350 . S
C547 C550 1.463 1_645 S
C547 C552 1.350 . S
C547 N555 1.427 . S
C548 H539 0.930 . S
C548 C546 1.378 . S
C548 C549 1.367 . S
C549 C548 1.367 . S
C549 C551 1.433 . S
C550 C546 1.350 . S
C550 C547 1.463 1_465 S
C550 N554 1.427 . S
C551 H541 0.929 . S
C551 C549 1.433 . S
C551 N554 1.384 . S
C552 H543 0.929 . S
C552 C544 1.378 . S
C552 C547 1.350 . S
C553 H540 0.929 . S
C553 C545 1.433 . S
C553 N555 1.384 . S
N554 C550 1.427 . S
N554 C551 1.384 . S
N555 C547 1.427 . S
N555 C553 1.384 . S
H556 C562 0.930 . S
H557 C566 0.930 . S
H558 C571 0.929 . S
H559 C569 0.929 . S
H560 C564 0.929 . S
H561 C570 0.929 . S
C562 H556 0.930 . S
C562 C563 1.367 . S
C562 C570 1.378 . S
C563 C562 1.367 . S
C563 C571 1.433 . S
C564 H560 0.929 . S
C564 C566 1.378 . S
C564 C568 1.350 . S
C565 C568 1.463 . S
C565 C570 1.350 . S
C565 N573 1.427 . S
C566 H557 0.930 . S
C566 C564 1.378 . S
C566 C567 1.367 . S
C567 C566 1.367 . S
C567 C569 1.433 . S
C568 C564 1.350 . S
C568 C565 1.463 . S
C568 N572 1.427 . S
C569 H559 0.929 . S
C569 C567 1.433 . S
C569 N572 1.384 . S
C570 H561 0.929 . S
C570 C562 1.378 . S
C570 C565 1.350 . S
C571 H558 0.929 . S
C571 C563 1.433 . S
C571 N573 1.384 . S
N572 C568 1.427 . S
N572 C569 1.384 . S
N573 C565 1.427 . S
N573 C571 1.384 . S
H574 C580 0.930 . S
H575 C584 0.930 . S
H576 C589 0.929 . S
H577 C587 0.929 . S
H578 C582 0.929 . S
H579 C588 0.929 . S
C580 H574 0.930 . S
C580 C581 1.367 . S
C580 C588 1.378 . S
C581 C580 1.367 . S
C581 C589 1.433 . S
C582 H578 0.929 . S
C582 C584 1.378 . S
C582 C586 1.350 . S
C583 C586 1.463 . S
C583 C588 1.350 . S
C583 N591 1.427 . S
C584 H575 0.930 . S
C584 C582 1.378 . S
C584 C585 1.367 . S
C585 C584 1.367 . S
C585 C587 1.433 . S
C586 C582 1.350 . S
C586 C583 1.463 . S
C586 N590 1.427 . S
C587 H577 0.929 . S
C587 C585 1.433 . S
C587 N590 1.384 . S
C588 H579 0.929 . S
C588 C580 1.378 . S
C588 C583 1.350 . S
C589 H576 0.929 . S
C589 C581 1.433 . S
C589 N591 1.384 . S
N590 C586 1.427 . S
N590 C587 1.384 . S
N591 C583 1.427 . S
N591 C589 1.384 . S
H592 C598 0.930 . S
H593 C602 0.930 . S
H594 C607 0.929 . S
H595 C605 0.929 . S
H596 C600 0.929 . S
H597 C606 0.929 . S
C598 H592 0.930 . S
C598 C599 1.367 . S
C598 C606 1.378 1_554 S
C599 C598 1.367 . S
C599 C607 1.433 . S
C600 H596 0.929 . S
C600 C602 1.378 1_554 S
C600 C604 1.350 1_554 S
C601 C604 1.463 1_544 S
C601 C606 1.350 1_554 S
C601 N609 1.427 . S
C602 H593 0.930 . S
C602 C600 1.378 1_556 S
C602 C603 1.367 . S
C603 C602 1.367 . S
C603 C605 1.433 . S
C604 C600 1.350 1_556 S
C604 C601 1.463 1_566 S
C604 N608 1.427 . S
C605 H595 0.929 . S
C605 C603 1.433 . S
C605 N608 1.384 . S
C606 H597 0.929 . S
C606 C598 1.378 1_556 S
C606 C601 1.350 1_556 S
C607 H594 0.929 . S
C607 C599 1.433 . S
C607 N609 1.384 . S
N608 C604 1.427 . S
N608 C605 1.384 . S
N609 C601 1.427 . S
N609 C607 1.384 . S
H610 C616 0.930 . S
H611 C620 0.930 . S
H612 C625 0.929 . S
H613 C623 0.929 . S
H614 C618 0.929 1_455 S
H615 C624 0.929 1_655 S
C616 H610 0.930 . S
C616 C617 1.367 . S
C616 C624 1.378 . S
C617 C616 1.367 . S
C617 C625 1.433 . S
C618 H614 0.929 1_655 S
C618 C620 1.378 . S
C618 C622 1.350 . S
C619 C622 1.463 1_456 S
C619 C624 1.350 . S
C619 N627 1.427 . S
C620 H611 0.930 . S
C620 C618 1.378 . S
C620 C621 1.367 . S
C621 C620 1.367 . S
C621 C623 1.433 . S
C622 C618 1.350 . S
C622 C619 1.463 1_654 S
C622 N626 1.427 . S
C623 H613 0.929 . S
C623 C621 1.433 . S
C623 N626 1.384 . S
C624 H615 0.929 1_455 S
C624 C616 1.378 . S
C624 C619 1.350 . S
C625 H612 0.929 . S
C625 C617 1.433 . S
C625 N627 1.384 . S
N626 C622 1.427 . S
N626 C623 1.384 . S
N627 C619 1.427 . S
N627 C625 1.384 . S
H628 C634 0.930 . S
H629 C638 0.930 . S
H630 C643 0.929 . S
H631 C641 0.929 . S
H632 C636 0.929 1_556 S
H633 C642 0.929 1_554 S
C634 H628 0.930 . S
C634 C635 1.367 . S
C634 C642 1.378 . S
C635 C634 1.367 . S
C635 C643 1.433 . S
C636 H632 0.929 1_554 S
C636 C638 1.378 . S
C636 C640 1.350 . S
C637 C640 1.463 1_546 S
C637 C642 1.350 . S
C637 N645 1.427 . S
C638 H629 0.930 . S
C638 C636 1.378 . S
C638 C639 1.367 . S
C639 C638 1.367 . S
C639 C641 1.433 . S
C640 C636 1.350 . S
C640 C637 1.463 1_564 S
C640 N644 1.427 . S
C641 H631 0.929 . S
C641 C639 1.433 . S
C641 N644 1.384 . S
C642 H633 0.929 1_556 S
C642 C634 1.378 . S
C642 C637 1.350 . S
C643 H630 0.929 . S
C643 C635 1.433 . S
C643 N645 1.384 . S
N644 C640 1.427 . S
N644 C641 1.384 . S
N645 C637 1.427 . S
N645 C643 1.384 . S
H646 C652 0.930 . S
H647 C656 0.930 . S
H648 C661 0.929 . S
H649 C659 0.929 . S
H650 C654 0.929 1_455 S
H651 C660 0.929 1_655 S
C652 H646 0.930 . S
C652 C653 1.367 . S
C652 C660 1.378 . S
C653 C652 1.367 . S
C653 C661 1.433 . S
C654 H650 0.929 1_655 S
C654 C656 1.378 . S
C654 C658 1.350 . S
C655 C658 1.463 1_454 S
C655 C660 1.350 . S
C655 N663 1.427 . S
C656 H647 0.930 . S
C656 C654 1.378 . S
C656 C657 1.367 . S
C657 C656 1.367 . S
C657 C659 1.433 . S
C658 C654 1.350 . S
C658 C655 1.463 1_656 S
C658 N662 1.427 . S
C659 H649 0.929 . S
C659 C657 1.433 . S
C659 N662 1.384 . S
C660 H651 0.929 1_455 S
C660 C652 1.378 . S
C660 C655 1.350 . S
C661 H648 0.929 . S
C661 C653 1.433 . S
C661 N663 1.384 . S
N662 C658 1.427 . S
N662 C659 1.384 . S
N663 C655 1.427 . S
N663 C661 1.384 . S
H664 C670 0.930 . S
H665 C674 0.930 . S
H666 C679 0.929 . S
H667 C677 0.929 . S
H668 C672 0.929 . S
H669 C678 0.929 . S
C670 H664 0.930 . S
C670 C671 1.367 . S
C670 C678 1.378 . S
C671 C670 1.367 . S
C671 C679 1.433 . S
C672 H668 0.929 . S
C672 C674 1.378 . S
C672 C676 1.350 . S
C673 C676 1.463 . S
C673 C678 1.350 . S
C673 N681 1.427 . S
C674 H665 0.930 . S
C674 C672 1.378 . S
C674 C675 1.367 . S
C675 C674 1.367 . S
C675 C677 1.433 . S
C676 C672 1.350 . S
C676 C673 1.463 . S
C676 N680 1.427 . S
C677 H667 0.929 . S
C677 C675 1.433 . S
C677 N680 1.384 . S
C678 H669 0.929 . S
C678 C670 1.378 . S
C678 C673 1.350 . S
C679 H666 0.929 . S
C679 C671 1.433 . S
C679 N681 1.384 . S
N680 C676 1.427 . S
N680 C677 1.384 . S
N681 C673 1.427 . S
N681 C679 1.384 . S
H682 C688 0.930 . S
H683 C692 0.930 . S
H684 C697 0.929 . S
H685 C695 0.929 . S
H686 C690 0.929 . S
H687 C696 0.929 . S
C688 H682 0.930 . S
C688 C689 1.367 . S
C688 C696 1.378 . S
C689 C688 1.367 . S
C689 C697 1.433 . S
C690 H686 0.929 . S
C690 C692 1.378 . S
C690 C694 1.350 . S
C691 C694 1.463 . S
C691 C696 1.350 . S
C691 N699 1.427 . S
C692 H683 0.930 . S
C692 C690 1.378 . S
C692 C693 1.367 . S
C693 C692 1.367 . S
C693 C695 1.433 . S
C694 C690 1.350 . S
C694 C691 1.463 . S
C694 N698 1.427 . S
C695 H685 0.929 . S
C695 C693 1.433 . S
C695 N698 1.384 . S
C696 H687 0.929 . S
C696 C688 1.378 . S
C696 C691 1.350 . S
C697 H684 0.929 . S
C697 C689 1.433 . S
C697 N699 1.384 . S
N698 C694 1.427 . S
N698 C695 1.384 . S
N699 C691 1.427 . S
N699 C697 1.384 . S
H700 C706 0.930 . S
H701 C710 0.930 . S
H702 C715 0.929 . S
H703 C713 0.929 . S
H704 C708 0.929 . S
H705 C714 0.929 . S
C706 H700 0.930 . S
C706 C707 1.367 . S
C706 C714 1.378 . S
C707 C706 1.367 . S
C707 C715 1.433 . S
C708 H704 0.929 . S
C708 C710 1.378 . S
C708 C712 1.350 . S
C709 C712 1.463 . S
C709 C714 1.350 . S
C709 N717 1.427 . S
C710 H701 0.930 . S
C710 C708 1.378 . S
C710 C711 1.367 . S
C711 C710 1.367 . S
C711 C713 1.433 . S
C712 C708 1.350 . S
C712 C709 1.463 . S
C712 N716 1.427 . S
C713 H703 0.929 . S
C713 C711 1.433 . S
C713 N716 1.384 . S
C714 H705 0.929 . S
C714 C706 1.378 . S
C714 C709 1.350 . S
C715 H702 0.929 . S
C715 C707 1.433 . S
C715 N717 1.384 . S
N716 C712 1.427 . S
N716 C713 1.384 . S
N717 C709 1.427 . S
N717 C715 1.384 . S
H718 C724 0.930 . S
H719 C728 0.930 . S
H720 C733 0.929 . S
H721 C731 0.929 . S
H722 C726 0.929 . S
H723 C732 0.929 . S
C724 H718 0.930 . S
C724 C725 1.367 . S
C724 C732 1.378 . S
C725 C724 1.367 . S
C725 C733 1.433 . S
C726 H722 0.929 . S
C726 C728 1.378 . S
C726 C730 1.350 . S
C727 C730 1.463 . S
C727 C732 1.350 . S
C727 N735 1.427 . S
C728 H719 0.930 . S
C728 C726 1.378 . S
C728 C729 1.367 . S
C729 C728 1.367 . S
C729 C731 1.433 . S
C730 C726 1.350 . S
C730 C727 1.463 . S
C730 N734 1.427 . S
C731 H721 0.929 . S
C731 C729 1.433 . S
C731 N734 1.384 . S
C732 H723 0.929 . S
C732 C724 1.378 . S
C732 C727 1.350 . S
C733 H720 0.929 . S
C733 C725 1.433 . S
C733 N735 1.384 . S
N734 C730 1.427 . S
N734 C731 1.384 . S
N735 C727 1.427 . S
N735 C733 1.384 . S
C239 C3 1.772 . S
C243 C218 1.783 . S
C257 C39 2.095 . S
C261 C129 2.093 . S
C275 C160 1.788 . S
C279 C61 1.773 . S
C293 C97 2.105 . S
C297 C187 2.080 . S
C311 C32 1.772 . S
C315 C189 1.783 . S
C329 C216 2.080 . S
C333 C68 2.100 . S
C347 C90 1.773 . S
C351 C131 1.782 . S
C365 C158 2.087 . S
C369 C10 2.103 . S
C383 C119 1.773 . S
C387 C102 1.782 . S
C401 C13 2.082 . S
C405 C155 2.105 . S
C419 C44 1.785 . S
C423 C177 1.780 . S
C437 C213 2.104 . S
C441 C71 2.079 . S
C455 C148 1.771 . S
C459 C73 1.784 . S
C473 C184 2.092 . S
C477 C100 2.092 . S
C491 C206 1.774 . S
C495 C15 1.781 . S
C509 C42 2.091 . S
C513 C126 2.091 . S
C527 C21 0.457 . S
C531 C79 0.504 . S
C545 C108 0.454 . S
C549 C50 0.504 . S
C563 C137 0.499 . S
C567 C195 0.458 . S
C581 C166 0.467 . S
C585 C224 0.489 . S
C599 C5 1.581 . S
C603 C34 1.580 . S
C617 C37 1.101 . S
C621 C66 1.087 . S
C635 C92 1.586 . S
C639 C63 1.576 . S
C653 C8 1.101 . S
C657 C95 1.087 . S
C671 C150 1.579 . S
C675 C121 1.582 . S
C689 C182 1.077 . S
C693 C153 1.109 . S
C707 C179 1.582 . S
C711 C208 1.591 . S
C725 C124 1.081 . S
C729 C211 1.101 . S
