# Generated by pormake.
# Topology srs-g, (5)-cn, num edge types: 1
# Building blocks:
#     Node 0, Type 0, BuildingBlock: XOMCOT_clean_sbu_1, # of connection points: 5
#     Node 1, Type 0, BuildingBlock: XOMCOT_clean_sbu_1, # of connection points: 5
#     Node 2, Type 0, BuildingBlock: XOMCOT_clean_sbu_1, # of connection points: 5
#     Node 3, Type 0, BuildingBlock: XOMCOT_clean_sbu_1, # of connection points: 5
#     Node 4, Type 0, BuildingBlock: XOMCOT_clean_sbu_1, # of connection points: 5
#     Node 5, Type 0, BuildingBlock: XOMCOT_clean_sbu_1, # of connection points: 5
#     Node 6, Type 0, BuildingBlock: XOMCOT_clean_sbu_1, # of connection points: 5
#     Node 7, Type 0, BuildingBlock: XOMCOT_clean_sbu_1, # of connection points: 5
#     Node 8, Type 0, BuildingBlock: XOMCOT_clean_sbu_1, # of connection points: 5
#     Node 9, Type 0, BuildingBlock: XOMCOT_clean_sbu_1, # of connection points: 5
#     Node 10, Type 0, BuildingBlock: XOMCOT_clean_sbu_1, # of connection points: 5
#     Node 11, Type 0, BuildingBlock: XOMCOT_clean_sbu_1, # of connection points: 5
#     Node 12, Type 0, BuildingBlock: XOMCOT_clean_sbu_1, # of connection points: 5
#     Node 13, Type 0, BuildingBlock: XOMCOT_clean_sbu_1, # of connection points: 5
#     Node 14, Type 0, BuildingBlock: XOMCOT_clean_sbu_1, # of connection points: 5
#     Node 15, Type 0, BuildingBlock: XOMCOT_clean_sbu_1, # of connection points: 5
#     Node 16, Type 0, BuildingBlock: XOMCOT_clean_sbu_1, # of connection points: 5
#     Node 17, Type 0, BuildingBlock: XOMCOT_clean_sbu_1, # of connection points: 5
#     Node 18, Type 0, BuildingBlock: XOMCOT_clean_sbu_1, # of connection points: 5
#     Node 19, Type 0, BuildingBlock: XOMCOT_clean_sbu_1, # of connection points: 5
#     Node 20, Type 0, BuildingBlock: XOMCOT_clean_sbu_1, # of connection points: 5
#     Node 21, Type 0, BuildingBlock: XOMCOT_clean_sbu_1, # of connection points: 5
#     Node 22, Type 0, BuildingBlock: XOMCOT_clean_sbu_1, # of connection points: 5
#     Node 23, Type 0, BuildingBlock: XOMCOT_clean_sbu_1, # of connection points: 5
#     Node 24, Type 0, BuildingBlock: XOMCOT_clean_sbu_1, # of connection points: 5
#     Node 25, Type 0, BuildingBlock: XOMCOT_clean_sbu_1, # of connection points: 5
#     Node 26, Type 0, BuildingBlock: XOMCOT_clean_sbu_1, # of connection points: 5
#     Node 27, Type 0, BuildingBlock: XOMCOT_clean_sbu_1, # of connection points: 5
#     Node 28, Type 0, BuildingBlock: XOMCOT_clean_sbu_1, # of connection points: 5
#     Node 29, Type 0, BuildingBlock: XOMCOT_clean_sbu_1, # of connection points: 5
#     Node 30, Type 0, BuildingBlock: XOMCOT_clean_sbu_1, # of connection points: 5
#     Node 31, Type 0, BuildingBlock: XOMCOT_clean_sbu_1, # of connection points: 5
#     Node 32, Type 0, BuildingBlock: XOMCOT_clean_sbu_1, # of connection points: 5
#     Node 33, Type 0, BuildingBlock: XOMCOT_clean_sbu_1, # of connection points: 5
#     Node 34, Type 0, BuildingBlock: XOMCOT_clean_sbu_1, # of connection points: 5
#     Node 35, Type 0, BuildingBlock: XOMCOT_clean_sbu_1, # of connection points: 5
#     Node 36, Type 0, BuildingBlock: XOMCOT_clean_sbu_1, # of connection points: 5
#     Node 37, Type 0, BuildingBlock: XOMCOT_clean_sbu_1, # of connection points: 5
#     Node 38, Type 0, BuildingBlock: XOMCOT_clean_sbu_1, # of connection points: 5
#     Node 39, Type 0, BuildingBlock: XOMCOT_clean_sbu_1, # of connection points: 5
#     Node 40, Type 0, BuildingBlock: XOMCOT_clean_sbu_1, # of connection points: 5
#     Node 41, Type 0, BuildingBlock: XOMCOT_clean_sbu_1, # of connection points: 5
#     Node 42, Type 0, BuildingBlock: XOMCOT_clean_sbu_1, # of connection points: 5
#     Node 43, Type 0, BuildingBlock: XOMCOT_clean_sbu_1, # of connection points: 5
#     Node 44, Type 0, BuildingBlock: XOMCOT_clean_sbu_1, # of connection points: 5
#     Node 45, Type 0, BuildingBlock: XOMCOT_clean_sbu_1, # of connection points: 5
#     Node 46, Type 0, BuildingBlock: XOMCOT_clean_sbu_1, # of connection points: 5
#     Node 47, Type 0, BuildingBlock: XOMCOT_clean_sbu_1, # of connection points: 5
#     Edge 48, Type (0, 0), BuildingBlock: OJICUG_clean_linker_0, # of connection points: 2
#     Edge 49, Type (0, 0), BuildingBlock: OJICUG_clean_linker_0, # of connection points: 2
#     Edge 50, Type (0, 0), BuildingBlock: OJICUG_clean_linker_0, # of connection points: 2
#     Edge 51, Type (0, 0), BuildingBlock: OJICUG_clean_linker_0, # of connection points: 2
#     Edge 52, Type (0, 0), BuildingBlock: OJICUG_clean_linker_0, # of connection points: 2
#     Edge 53, Type (0, 0), BuildingBlock: OJICUG_clean_linker_0, # of connection points: 2
#     Edge 54, Type (0, 0), BuildingBlock: OJICUG_clean_linker_0, # of connection points: 2
#     Edge 55, Type (0, 0), BuildingBlock: OJICUG_clean_linker_0, # of connection points: 2
#     Edge 56, Type (0, 0), BuildingBlock: OJICUG_clean_linker_0, # of connection points: 2
#     Edge 57, Type (0, 0), BuildingBlock: OJICUG_clean_linker_0, # of connection points: 2
#     Edge 58, Type (0, 0), BuildingBlock: OJICUG_clean_linker_0, # of connection points: 2
#     Edge 59, Type (0, 0), BuildingBlock: OJICUG_clean_linker_0, # of connection points: 2
#     Edge 60, Type (0, 0), BuildingBlock: OJICUG_clean_linker_0, # of connection points: 2
#     Edge 61, Type (0, 0), BuildingBlock: OJICUG_clean_linker_0, # of connection points: 2
#     Edge 62, Type (0, 0), BuildingBlock: OJICUG_clean_linker_0, # of connection points: 2
#     Edge 63, Type (0, 0), BuildingBlock: OJICUG_clean_linker_0, # of connection points: 2
#     Edge 64, Type (0, 0), BuildingBlock: OJICUG_clean_linker_0, # of connection points: 2
#     Edge 65, Type (0, 0), BuildingBlock: OJICUG_clean_linker_0, # of connection points: 2
#     Edge 66, Type (0, 0), BuildingBlock: OJICUG_clean_linker_0, # of connection points: 2
#     Edge 67, Type (0, 0), BuildingBlock: OJICUG_clean_linker_0, # of connection points: 2
#     Edge 68, Type (0, 0), BuildingBlock: OJICUG_clean_linker_0, # of connection points: 2
#     Edge 69, Type (0, 0), BuildingBlock: OJICUG_clean_linker_0, # of connection points: 2
#     Edge 70, Type (0, 0), BuildingBlock: OJICUG_clean_linker_0, # of connection points: 2
#     Edge 71, Type (0, 0), BuildingBlock: OJICUG_clean_linker_0, # of connection points: 2
#     Edge 72, Type (0, 0), BuildingBlock: OJICUG_clean_linker_0, # of connection points: 2
#     Edge 73, Type (0, 0), BuildingBlock: OJICUG_clean_linker_0, # of connection points: 2
#     Edge 74, Type (0, 0), BuildingBlock: OJICUG_clean_linker_0, # of connection points: 2
#     Edge 75, Type (0, 0), BuildingBlock: OJICUG_clean_linker_0, # of connection points: 2
#     Edge 76, Type (0, 0), BuildingBlock: OJICUG_clean_linker_0, # of connection points: 2
#     Edge 77, Type (0, 0), BuildingBlock: OJICUG_clean_linker_0, # of connection points: 2
#     Edge 78, Type (0, 0), BuildingBlock: OJICUG_clean_linker_0, # of connection points: 2
#     Edge 79, Type (0, 0), BuildingBlock: OJICUG_clean_linker_0, # of connection points: 2
#     Edge 80, Type (0, 0), BuildingBlock: OJICUG_clean_linker_0, # of connection points: 2
#     Edge 81, Type (0, 0), BuildingBlock: OJICUG_clean_linker_0, # of connection points: 2
#     Edge 82, Type (0, 0), BuildingBlock: OJICUG_clean_linker_0, # of connection points: 2
#     Edge 83, Type (0, 0), BuildingBlock: OJICUG_clean_linker_0, # of connection points: 2
#     Edge 84, Type (0, 0), BuildingBlock: OJICUG_clean_linker_0, # of connection points: 2
#     Edge 85, Type (0, 0), BuildingBlock: OJICUG_clean_linker_0, # of connection points: 2
#     Edge 86, Type (0, 0), BuildingBlock: OJICUG_clean_linker_0, # of connection points: 2
#     Edge 87, Type (0, 0), BuildingBlock: OJICUG_clean_linker_0, # of connection points: 2
#     Edge 88, Type (0, 0), BuildingBlock: OJICUG_clean_linker_0, # of connection points: 2
#     Edge 89, Type (0, 0), BuildingBlock: OJICUG_clean_linker_0, # of connection points: 2
#     Edge 90, Type (0, 0), BuildingBlock: OJICUG_clean_linker_0, # of connection points: 2
#     Edge 91, Type (0, 0), BuildingBlock: OJICUG_clean_linker_0, # of connection points: 2
#     Edge 92, Type (0, 0), BuildingBlock: OJICUG_clean_linker_0, # of connection points: 2
#     Edge 93, Type (0, 0), BuildingBlock: OJICUG_clean_linker_0, # of connection points: 2
#     Edge 94, Type (0, 0), BuildingBlock: OJICUG_clean_linker_0, # of connection points: 2
#     Edge 95, Type (0, 0), BuildingBlock: OJICUG_clean_linker_0, # of connection points: 2
#     Edge 96, Type (0, 0), BuildingBlock: OJICUG_clean_linker_0, # of connection points: 2
#     Edge 97, Type (0, 0), BuildingBlock: OJICUG_clean_linker_0, # of connection points: 2
#     Edge 98, Type (0, 0), BuildingBlock: OJICUG_clean_linker_0, # of connection points: 2
#     Edge 99, Type (0, 0), BuildingBlock: OJICUG_clean_linker_0, # of connection points: 2
#     Edge 100, Type (0, 0), BuildingBlock: OJICUG_clean_linker_0, # of connection points: 2
#     Edge 101, Type (0, 0), BuildingBlock: OJICUG_clean_linker_0, # of connection points: 2
#     Edge 102, Type (0, 0), BuildingBlock: OJICUG_clean_linker_0, # of connection points: 2
#     Edge 103, Type (0, 0), BuildingBlock: OJICUG_clean_linker_0, # of connection points: 2
#     Edge 104, Type (0, 0), BuildingBlock: OJICUG_clean_linker_0, # of connection points: 2
#     Edge 105, Type (0, 0), BuildingBlock: OJICUG_clean_linker_0, # of connection points: 2
#     Edge 106, Type (0, 0), BuildingBlock: OJICUG_clean_linker_0, # of connection points: 2
#     Edge 107, Type (0, 0), BuildingBlock: OJICUG_clean_linker_0, # of connection points: 2
#     Edge 108, Type (0, 0), BuildingBlock: OJICUG_clean_linker_0, # of connection points: 2
#     Edge 109, Type (0, 0), BuildingBlock: OJICUG_clean_linker_0, # of connection points: 2
#     Edge 110, Type (0, 0), BuildingBlock: OJICUG_clean_linker_0, # of connection points: 2
#     Edge 111, Type (0, 0), BuildingBlock: OJICUG_clean_linker_0, # of connection points: 2
#     Edge 112, Type (0, 0), BuildingBlock: OJICUG_clean_linker_0, # of connection points: 2
#     Edge 113, Type (0, 0), BuildingBlock: OJICUG_clean_linker_0, # of connection points: 2
#     Edge 114, Type (0, 0), BuildingBlock: OJICUG_clean_linker_0, # of connection points: 2
#     Edge 115, Type (0, 0), BuildingBlock: OJICUG_clean_linker_0, # of connection points: 2
#     Edge 116, Type (0, 0), BuildingBlock: OJICUG_clean_linker_0, # of connection points: 2
#     Edge 117, Type (0, 0), BuildingBlock: OJICUG_clean_linker_0, # of connection points: 2
#     Edge 118, Type (0, 0), BuildingBlock: OJICUG_clean_linker_0, # of connection points: 2
#     Edge 119, Type (0, 0), BuildingBlock: OJICUG_clean_linker_0, # of connection points: 2
#     Edge 120, Type (0, 0), BuildingBlock: OJICUG_clean_linker_0, # of connection points: 2
#     Edge 121, Type (0, 0), BuildingBlock: OJICUG_clean_linker_0, # of connection points: 2
#     Edge 122, Type (0, 0), BuildingBlock: OJICUG_clean_linker_0, # of connection points: 2
#     Edge 123, Type (0, 0), BuildingBlock: OJICUG_clean_linker_0, # of connection points: 2
#     Edge 124, Type (0, 0), BuildingBlock: OJICUG_clean_linker_0, # of connection points: 2
#     Edge 125, Type (0, 0), BuildingBlock: OJICUG_clean_linker_0, # of connection points: 2
#     Edge 126, Type (0, 0), BuildingBlock: OJICUG_clean_linker_0, # of connection points: 2
#     Edge 127, Type (0, 0), BuildingBlock: OJICUG_clean_linker_0, # of connection points: 2
#     Edge 128, Type (0, 0), BuildingBlock: OJICUG_clean_linker_0, # of connection points: 2
#     Edge 129, Type (0, 0), BuildingBlock: OJICUG_clean_linker_0, # of connection points: 2
#     Edge 130, Type (0, 0), BuildingBlock: OJICUG_clean_linker_0, # of connection points: 2
#     Edge 131, Type (0, 0), BuildingBlock: OJICUG_clean_linker_0, # of connection points: 2
#     Edge 132, Type (0, 0), BuildingBlock: OJICUG_clean_linker_0, # of connection points: 2
#     Edge 133, Type (0, 0), BuildingBlock: OJICUG_clean_linker_0, # of connection points: 2
#     Edge 134, Type (0, 0), BuildingBlock: OJICUG_clean_linker_0, # of connection points: 2
#     Edge 135, Type (0, 0), BuildingBlock: OJICUG_clean_linker_0, # of connection points: 2
#     Edge 136, Type (0, 0), BuildingBlock: OJICUG_clean_linker_0, # of connection points: 2
#     Edge 137, Type (0, 0), BuildingBlock: OJICUG_clean_linker_0, # of connection points: 2
#     Edge 138, Type (0, 0), BuildingBlock: OJICUG_clean_linker_0, # of connection points: 2
#     Edge 139, Type (0, 0), BuildingBlock: OJICUG_clean_linker_0, # of connection points: 2
#     Edge 140, Type (0, 0), BuildingBlock: OJICUG_clean_linker_0, # of connection points: 2
#     Edge 141, Type (0, 0), BuildingBlock: OJICUG_clean_linker_0, # of connection points: 2
#     Edge 142, Type (0, 0), BuildingBlock: OJICUG_clean_linker_0, # of connection points: 2
#     Edge 143, Type (0, 0), BuildingBlock: OJICUG_clean_linker_0, # of connection points: 2
#     Edge 144, Type (0, 0), BuildingBlock: OJICUG_clean_linker_0, # of connection points: 2
#     Edge 145, Type (0, 0), BuildingBlock: OJICUG_clean_linker_0, # of connection points: 2
#     Edge 146, Type (0, 0), BuildingBlock: OJICUG_clean_linker_0, # of connection points: 2
#     Edge 147, Type (0, 0), BuildingBlock: OJICUG_clean_linker_0, # of connection points: 2
#     Edge 148, Type (0, 0), BuildingBlock: OJICUG_clean_linker_0, # of connection points: 2
#     Edge 149, Type (0, 0), BuildingBlock: OJICUG_clean_linker_0, # of connection points: 2
#     Edge 150, Type (0, 0), BuildingBlock: OJICUG_clean_linker_0, # of connection points: 2
#     Edge 151, Type (0, 0), BuildingBlock: OJICUG_clean_linker_0, # of connection points: 2
#     Edge 152, Type (0, 0), BuildingBlock: OJICUG_clean_linker_0, # of connection points: 2
#     Edge 153, Type (0, 0), BuildingBlock: OJICUG_clean_linker_0, # of connection points: 2
#     Edge 154, Type (0, 0), BuildingBlock: OJICUG_clean_linker_0, # of connection points: 2
#     Edge 155, Type (0, 0), BuildingBlock: OJICUG_clean_linker_0, # of connection points: 2
#     Edge 156, Type (0, 0), BuildingBlock: OJICUG_clean_linker_0, # of connection points: 2
#     Edge 157, Type (0, 0), BuildingBlock: OJICUG_clean_linker_0, # of connection points: 2
#     Edge 158, Type (0, 0), BuildingBlock: OJICUG_clean_linker_0, # of connection points: 2
#     Edge 159, Type (0, 0), BuildingBlock: OJICUG_clean_linker_0, # of connection points: 2
#     Edge 160, Type (0, 0), BuildingBlock: OJICUG_clean_linker_0, # of connection points: 2
#     Edge 161, Type (0, 0), BuildingBlock: OJICUG_clean_linker_0, # of connection points: 2
#     Edge 162, Type (0, 0), BuildingBlock: OJICUG_clean_linker_0, # of connection points: 2
#     Edge 163, Type (0, 0), BuildingBlock: OJICUG_clean_linker_0, # of connection points: 2
#     Edge 164, Type (0, 0), BuildingBlock: OJICUG_clean_linker_0, # of connection points: 2
#     Edge 165, Type (0, 0), BuildingBlock: OJICUG_clean_linker_0, # of connection points: 2
#     Edge 166, Type (0, 0), BuildingBlock: OJICUG_clean_linker_0, # of connection points: 2
#     Edge 167, Type (0, 0), BuildingBlock: OJICUG_clean_linker_0, # of connection points: 2
# Relax obj value: 0.924
# Max RMSD: 0.246
# Mean RMSD: 0.246
data_MOF--net-srs-g--node1-XOMCOT_clean_sbu_1--edge1-OJICUG_clean_linker_0
_symmetry_space_group_name_H-M    P1
_symmetry_Int_Tables_number       1
_symmetry_cell_setting            triclinic
loop_
_symmetry_equiv_pos_as_xyz
'x, y, z'
_cell_length_a     66.146059
_cell_length_b     66.124092
_cell_length_c     66.117056
_cell_angle_alpha  90.016974
_cell_angle_beta   90.019303
_cell_angle_gamma 90.018062
loop_
_atom_site_label
_atom_site_type_symbol
_atom_site_fract_x
_atom_site_fract_y
_atom_site_fract_z
_atom_type_partial_charge
C0 C 0.05002 0.02062 0.20758 0.0
C1 C 0.06817 0.01677 0.2172 0.0
N2 N 0.08217 0.02921 0.20928 0.0
N3 N 0.05267 0.03564 0.19395 0.0
C4 C 0.07239 0.04051 0.19548 0.0
H5 H 0.03605 0.01253 0.21003 0.0
Co6 Co 0.03534 0.04715 0.17482 0.0
C7 C 0.03704 0.09146 0.18383 0.0
O8 O 0.01746 0.09323 0.18089 0.0
N9 N 0.0187 0.05888 0.15514 0.0
C10 C 0.99482 0.06936 0.13388 0.0
C11 C 0.99906 0.05676 0.14999 0.0
C12 C 0.02602 0.07246 0.14178 0.0
N13 N 0.01191 0.07924 0.12878 0.0
O14 O 0.05608 0.04474 0.15501 0.0
H15 H 0.98837 0.04685 0.15735 0.0
H16 H 0.04145 0.07782 0.14215 0.0
O17 O 0.04545 0.07409 0.1824 0.0
C18 C 0.05817 0.02712 0.14754 0.0
O19 O 0.0466 0.01241 0.15421 0.0
N20 N 0.01465 0.04732 0.19395 0.0
C21 C 0.9924 0.03244 0.22657 0.0
C22 C 0.00178 0.05158 0.22752 0.0
C23 C 0.01365 0.05828 0.2114 0.0
C24 C 0.00323 0.03036 0.19165 0.0
C25 C 0.99211 0.02257 0.20773 0.0
H26 H 0.02341 0.07105 0.21397 0.0
H27 H 0.00487 0.02138 0.17807 0.0
H28 H 0.07962 0.05191 0.18622 0.0
H29 H 0.07105 0.0052 0.22842 0.0
H30 H 0.98031 0.071 0.12651 0.0
H31 H 0.00174 0.06049 0.24122 0.0
H32 H 0.98541 0.00781 0.20572 0.0
C33 C 0.23622 0.79817 0.44188 0.0
C34 C 0.2408 0.81613 0.45155 0.0
N35 N 0.22678 0.82984 0.4462 0.0
N36 N 0.21917 0.80061 0.43087 0.0
C37 C 0.21387 0.82006 0.43385 0.0
H38 H 0.24505 0.78444 0.44249 0.0
Co39 Co 0.20583 0.78316 0.41317 0.0
C40 C 0.16409 0.78052 0.42867 0.0
O41 O 0.16522 0.76079 0.42662 0.0
N42 N 0.19211 0.76629 0.39478 0.0
C43 C 0.18008 0.74292 0.37369 0.0
C44 C 0.19405 0.74686 0.38869 0.0
C45 C 0.17695 0.77366 0.38326 0.0
N46 N 0.16932 0.75989 0.37039 0.0
O47 O 0.205 0.80452 0.39383 0.0
H48 H 0.20489 0.73611 0.39441 0.0
H49 H 0.17184 0.78917 0.38407 0.0
O50 O 0.17942 0.7916 0.42442 0.0
C51 C 0.21811 0.80311 0.37979 0.0
O52 O 0.22949 0.78685 0.37886 0.0
N53 N 0.20913 0.76217 0.43188 0.0
C54 C 0.22975 0.74041 0.46137 0.0
C55 C 0.21246 0.75159 0.46641 0.0
C56 C 0.20258 0.76278 0.45148 0.0
C57 C 0.22484 0.74995 0.42654 0.0
C58 C 0.2352 0.73868 0.44101 0.0
H59 H 0.19157 0.77379 0.4563 0.0
H60 H 0.23109 0.75097 0.41147 0.0
H61 H 0.20094 0.8271 0.42669 0.0
H62 H 0.25383 0.81912 0.461 0.0
H63 H 0.17806 0.72869 0.36585 0.0
H64 H 0.20827 0.75388 0.48209 0.0
H65 H 0.2488 0.73065 0.43665 0.0
C66 C 0.44809 0.98552 0.69384 0.0
C67 C 0.43034 0.98884 0.70439 0.0
N68 N 0.41795 0.97297 0.70111 0.0
N69 N 0.44672 0.96769 0.684 0.0
C70 C 0.42822 0.96059 0.68862 0.0
H71 H 0.46104 0.99549 0.69327 0.0
Co72 Co 0.46463 0.95455 0.66666 0.0
C73 C 0.44833 0.91327 0.6684 0.0
O74 O 0.44563 0.9139 0.64874 0.0
N75 N 0.48239 0.9407 0.64917 0.0
C76 C 0.50323 0.91645 0.63864 0.0
C77 C 0.49793 0.9286 0.65466 0.0
C78 C 0.47898 0.93592 0.62957 0.0
N79 N 0.49094 0.92077 0.62302 0.0
O80 O 0.44394 0.95442 0.64662 0.0
H81 H 0.50366 0.92703 0.66989 0.0
H82 H 0.46658 0.94185 0.62076 0.0
O83 O 0.45591 0.9285 0.67757 0.0
C84 C 0.44221 0.97171 0.6383 0.0
O85 O 0.4544 0.98633 0.64404 0.0
N86 N 0.48482 0.95714 0.68591 0.0
C87 C 0.5069 0.97649 0.71572 0.0
C88 C 0.49472 0.95979 0.72058 0.0
C89 C 0.48355 0.95031 0.70533 0.0
C90 C 0.49848 0.9716 0.68062 0.0
C91 C 0.50981 0.98148 0.69535 0.0
H92 H 0.47227 0.93926 0.70952 0.0
H93 H 0.49887 0.97707 0.66521 0.0
H94 H 0.42209 0.94681 0.68228 0.0
H95 H 0.42686 0.00183 0.71372 0.0
H96 H 0.51365 0.90384 0.63923 0.0
H97 H 0.49187 0.95579 0.73621 0.0
H98 H 0.51896 0.99439 0.69112 0.0
C99 C 0.26301 0.20138 0.9449 0.0
C100 C 0.25876 0.18332 0.95458 0.0
N101 N 0.27221 0.16948 0.94816 0.0
N102 N 0.27928 0.19884 0.93281 0.0
C103 C 0.28444 0.17928 0.93518 0.0
H104 H 0.25455 0.21528 0.94639 0.0
Co105 Co 0.29259 0.21618 0.91497 0.0
C106 C 0.33578 0.21514 0.92771 0.0
O107 O 0.33744 0.23461 0.9241 0.0
N108 N 0.30628 0.23295 0.89647 0.0
C109 C 0.31976 0.25713 0.87729 0.0
C110 C 0.30582 0.25295 0.89221 0.0
C111 C 0.32041 0.22544 0.8838 0.0
N112 N 0.32901 0.23974 0.87217 0.0
O113 O 0.29181 0.19522 0.89521 0.0
H114 H 0.29636 0.26405 0.89949 0.0
H115 H 0.32452 0.20962 0.88333 0.0
O116 O 0.31876 0.20624 0.92528 0.0
C117 C 0.27814 0.1973 0.8818 0.0
O118 O 0.26736 0.21398 0.88155 0.0
N119 N 0.29091 0.23683 0.93407 0.0
C120 C 0.27155 0.25813 0.9646 0.0
C121 C 0.28912 0.24698 0.96881 0.0
C122 C 0.29853 0.23614 0.95326 0.0
C123 C 0.27509 0.24921 0.92951 0.0
C124 C 0.26542 0.26033 0.94449 0.0
H125 H 0.31004 0.22531 0.95729 0.0
H126 H 0.26832 0.2485 0.91463 0.0
H127 H 0.29693 0.1722 0.92731 0.0
H128 H 0.24642 0.18042 0.96492 0.0
H129 H 0.32311 0.27189 0.87106 0.0
H130 H 0.29392 0.2445 0.98428 0.0
H131 H 0.25171 0.2685 0.94077 0.0
C132 C 0.05576 0.98221 0.30928 0.0
C133 C 0.07274 0.98414 0.29721 0.0
N134 N 0.08423 0.96749 0.29971 0.0
N135 N 0.0567 0.96445 0.31928 0.0
C136 C 0.07424 0.95604 0.31329 0.0
H137 H 0.0435 0.99296 0.31057 0.0
Co138 Co 0.03901 0.95227 0.33758 0.0
C139 C 0.0521 0.91002 0.33442 0.0
O140 O 0.05638 0.91041 0.35381 0.0
N141 N 0.02149 0.93923 0.35586 0.0
C142 C 0.00199 0.91391 0.36634 0.0
C143 C 0.0064 0.92652 0.35045 0.0
C144 C 0.02531 0.93455 0.3754 0.0
N145 N 0.01405 0.91889 0.38192 0.0
O146 O 0.06075 0.95051 0.35645 0.0
H147 H 0.00086 0.92457 0.33518 0.0
H148 H 0.03807 0.94029 0.38385 0.0
O149 O 0.04515 0.92585 0.3258 0.0
C150 C 0.06364 0.96751 0.3651 0.0
O151 O 0.05216 0.98289 0.35993 0.0
N152 N 0.01782 0.9565 0.31974 0.0
C153 C 0.9937 0.97726 0.2926 0.0
C154 C 0.00524 0.96066 0.2861 0.0
C155 C 0.01744 0.95042 0.30003 0.0
C156 C 0.00496 0.971 0.32664 0.0
C157 C 0.99261 0.98154 0.31329 0.0
H158 H 0.02812 0.93932 0.29458 0.0
H159 H 0.00588 0.97586 0.34224 0.0
H160 H 0.07983 0.94186 0.31922 0.0
H161 H 0.07622 0.99666 0.28726 0.0
H162 H 0.9925 0.90058 0.36569 0.0
H163 H 0.00672 0.95722 0.27014 0.0
H164 H 0.98403 0.99439 0.31875 0.0
C165 C 0.26594 0.81205 0.54784 0.0
C166 C 0.26485 0.8292 0.53592 0.0
N167 N 0.28112 0.84077 0.53996 0.0
N168 N 0.28284 0.81292 0.55926 0.0
C169 C 0.29157 0.83062 0.55421 0.0
H170 H 0.25484 0.80007 0.5485 0.0
Co171 Co 0.29228 0.79604 0.57971 0.0
C172 C 0.33753 0.79494 0.57405 0.0
O173 O 0.33892 0.77638 0.58099 0.0
N174 N 0.30187 0.77967 0.60078 0.0
C175 C 0.31125 0.7553 0.62201 0.0
C176 C 0.29955 0.75988 0.60533 0.0
C177 C 0.31452 0.78676 0.61515 0.0
N178 N 0.32083 0.77228 0.62795 0.0
O179 O 0.29066 0.81813 0.59797 0.0
H180 H 0.29052 0.74924 0.59686 0.0
H181 H 0.31967 0.80227 0.61567 0.0
O182 O 0.32024 0.80351 0.57254 0.0
C183 C 0.27444 0.81857 0.60832 0.0
O184 O 0.26087 0.80433 0.60547 0.0
N185 N 0.29171 0.77428 0.56181 0.0
C186 C 0.27894 0.74863 0.5308 0.0
C187 C 0.2986 0.75685 0.53081 0.0
C188 C 0.30445 0.77021 0.54611 0.0
C189 C 0.27358 0.7647 0.56325 0.0
C190 C 0.26683 0.75195 0.54795 0.0
H191 H 0.31845 0.77829 0.54426 0.0
H192 H 0.26346 0.76854 0.57552 0.0
H193 H 0.30488 0.83649 0.5617 0.0
H194 H 0.2529 0.83296 0.52538 0.0
H195 H 0.31318 0.74048 0.62867 0.0
H196 H 0.30887 0.75435 0.51833 0.0
H197 H 0.25146 0.74644 0.54889 0.0
C198 C 0.43965 0.02082 0.79777 0.0
C199 C 0.42178 0.0191 0.78703 0.0
N200 N 0.40843 0.03217 0.79504 0.0
N201 N 0.43749 0.03513 0.81222 0.0
C202 C 0.41833 0.04171 0.81003 0.0
H203 H 0.45312 0.01192 0.79532 0.0
Co204 Co 0.45471 0.0449 0.83244 0.0
C205 C 0.45655 0.0896 0.82464 0.0
O206 O 0.47537 0.09068 0.83092 0.0
N207 N 0.47121 0.05496 0.85317 0.0
C208 C 0.49504 0.0636 0.8753 0.0
C209 C 0.49054 0.05158 0.85881 0.0
C210 C 0.46429 0.06861 0.86667 0.0
N211 N 0.47842 0.07436 0.88015 0.0
O212 O 0.43288 0.04409 0.85115 0.0
H213 H 0.50086 0.04131 0.85144 0.0
H214 H 0.44929 0.07504 0.86586 0.0
O215 O 0.4474 0.07255 0.82429 0.0
C216 C 0.42972 0.02679 0.85897 0.0
O217 O 0.4406 0.01134 0.85283 0.0
N218 N 0.47641 0.04349 0.81451 0.0
C219 C 0.50116 0.0286 0.78375 0.0
C220 C 0.49323 0.04837 0.78282 0.0
C221 C 0.48024 0.05524 0.798 0.0
C222 C 0.48599 0.02545 0.81691 0.0
C223 C 0.49829 0.01765 0.80174 0.0
H224 H 0.47213 0.0691 0.7954 0.0
H225 H 0.48228 0.01606 0.82979 0.0
H226 H 0.41163 0.0533 0.81946 0.0
H227 H 0.41864 0.00866 0.77481 0.0
H228 H 0.50946 0.06437 0.883 0.0
H229 H 0.49553 0.0579 0.76974 0.0
H230 H 0.50365 0.00231 0.80353 0.0
C231 C 0.23027 0.19094 0.04853 0.0
C232 C 0.23201 0.17296 0.03796 0.0
N233 N 0.21919 0.15956 0.04631 0.0
N234 N 0.21619 0.18877 0.06321 0.0
C235 C 0.20976 0.16954 0.0613 0.0
H236 H 0.23906 0.20445 0.04589 0.0
Co237 Co 0.20691 0.20591 0.0837 0.0
C238 C 0.16196 0.2073 0.07777 0.0
O239 O 0.16113 0.22614 0.08404 0.0
N240 N 0.19729 0.22233 0.10474 0.0
C241 C 0.18762 0.24646 0.12612 0.0
C242 C 0.19937 0.24212 0.1094 0.0
C243 C 0.18469 0.21504 0.11904 0.0
N244 N 0.17823 0.22934 0.13199 0.0
O245 O 0.20876 0.18416 0.10235 0.0
H246 H 0.20826 0.25293 0.101 0.0
H247 H 0.17969 0.19948 0.11945 0.0
O248 O 0.179 0.1982 0.0766 0.0
C249 C 0.22639 0.18061 0.1092 0.0
O250 O 0.24179 0.19094 0.10206 0.0
N251 N 0.2074 0.22753 0.0657 0.0
C252 C 0.2213 0.25195 0.03426 0.0
C253 C 0.2016 0.24379 0.03389 0.0
C254 C 0.1952 0.23098 0.04944 0.0
C255 C 0.22536 0.23738 0.06757 0.0
C256 C 0.23267 0.24954 0.05205 0.0
H257 H 0.18137 0.22266 0.04731 0.0
H258 H 0.23508 0.23397 0.08029 0.0
H259 H 0.19845 0.16279 0.07103 0.0
H260 H 0.24236 0.16976 0.02569 0.0
H261 H 0.18559 0.26122 0.13289 0.0
H262 H 0.19177 0.24576 0.02096 0.0
H263 H 0.24797 0.25512 0.0534 0.0
C264 C 0.18674 0.0494 0.01722 0.0
C265 C 0.19843 0.06643 0.01393 0.0
N266 N 0.19705 0.07835 0.03041 0.0
N267 N 0.17813 0.05072 0.03567 0.0
C268 C 0.18454 0.06854 0.04315 0.0
H269 H 0.18447 0.03703 0.00676 0.0
Co270 Co 0.15999 0.0337 0.04877 0.0
C271 C 0.17512 0.03263 0.09126 0.0
O272 O 0.17376 0.0128 0.09158 0.0
N273 N 0.14115 0.01728 0.06237 0.0
C274 C 0.11896 0.9947 0.07384 0.0
C275 C 0.13427 0.99817 0.06009 0.0
C276 C 0.12978 0.02494 0.0775 0.0
N277 N 0.11613 0.01169 0.08472 0.0
O278 O 0.14107 0.05526 0.04922 0.0
H279 H 0.13954 0.98737 0.04907 0.0
H280 H 0.13165 0.04015 0.08319 0.0
O281 O 0.17073 0.04231 0.0751 0.0
C282 C 0.12903 0.05517 0.03419 0.0
O283 O 0.13044 0.04046 0.02089 0.0
N284 N 0.17833 0.0125 0.04591 0.0
C285 C 0.20756 0.99156 0.02422 0.0
C286 C 0.21285 0.00224 0.04178 0.0
C287 C 0.19797 0.01296 0.05231 0.0
C288 C 0.17281 0.00063 0.02999 0.0
C289 C 0.18713 0.98971 0.01915 0.0
H290 H 0.20281 0.02366 0.06365 0.0
H291 H 0.15772 0.00188 0.02384 0.0
H292 H 0.17943 0.07463 0.05744 0.0
H293 H 0.20714 0.06978 0.00049 0.0
H294 H 0.1103 0.98089 0.07528 0.0
H295 H 0.22859 0.00454 0.04571 0.0
H296 H 0.1826 0.98207 0.00537 0.0
C297 C 0.19529 0.94312 0.26541 0.0
C298 C 0.17725 0.95324 0.26216 0.0
N299 N 0.16397 0.94697 0.27623 0.0
N300 N 0.19327 0.93091 0.28168 0.0
C301 C 0.17405 0.93365 0.28782 0.0
H302 H 0.20893 0.94462 0.25652 0.0
Co303 Co 0.21116 0.91336 0.29473 0.0
C304 C 0.19663 0.91613 0.3363 0.0
O305 O 0.19373 0.89649 0.33583 0.0
N306 N 0.22883 0.89581 0.30856 0.0
C307 C 0.24841 0.88581 0.33402 0.0
C308 C 0.24323 0.90178 0.3218 0.0
C309 C 0.22611 0.87594 0.31262 0.0
N310 N 0.23753 0.86964 0.32825 0.0
O311 O 0.18997 0.89395 0.29602 0.0
H312 H 0.24787 0.91728 0.32418 0.0
H313 H 0.2141 0.86687 0.30626 0.0
O314 O 0.20349 0.9252 0.32068 0.0
C315 C 0.18816 0.88433 0.27944 0.0
O316 O 0.20118 0.88793 0.26486 0.0
N317 N 0.23194 0.93174 0.29104 0.0
C318 C 0.25617 0.95953 0.27132 0.0
C319 C 0.24436 0.96553 0.28793 0.0
C320 C 0.2321 0.95128 0.29762 0.0
C321 C 0.24504 0.92529 0.27654 0.0
C322 C 0.2574 0.93898 0.26646 0.0
H323 H 0.22128 0.95637 0.30876 0.0
H324 H 0.24434 0.90979 0.27135 0.0
H325 H 0.16748 0.92599 0.30072 0.0
H326 H 0.17402 0.96395 0.25021 0.0
H327 H 0.25767 0.88659 0.3475 0.0
H328 H 0.2428 0.98137 0.29182 0.0
H329 H 0.26622 0.93391 0.25362 0.0
C330 C 0.30517 0.95417 0.51413 0.0
C331 C 0.29479 0.93646 0.51003 0.0
N332 N 0.30059 0.92254 0.52368 0.0
N333 N 0.3171 0.95132 0.53049 0.0
C334 C 0.31386 0.93195 0.53589 0.0
H335 H 0.30447 0.96797 0.50539 0.0
Co336 Co 0.3363 0.96766 0.54316 0.0
C337 C 0.32411 0.96839 0.58645 0.0
O338 O 0.32921 0.98756 0.58765 0.0
N339 N 0.35631 0.98322 0.55614 0.0
C340 C 0.37951 0.00516 0.56682 0.0
C341 C 0.3634 0.00226 0.55391 0.0
C342 C 0.36847 0.97499 0.57035 0.0
N343 N 0.38269 0.98788 0.57714 0.0
O344 O 0.35464 0.94561 0.54252 0.0
H345 H 0.35765 0.01344 0.54352 0.0
H346 H 0.3666 0.95971 0.57586 0.0
O347 O 0.32578 0.95895 0.56963 0.0
C348 C 0.36577 0.94558 0.52683 0.0
O349 O 0.36379 0.96033 0.51366 0.0
N350 N 0.3186 0.98954 0.54146 0.0
C351 C 0.28904 0.01189 0.52174 0.0
C352 C 0.28438 0.00127 0.53953 0.0
C353 C 0.29943 0.98993 0.54914 0.0
C354 C 0.32371 0.00152 0.5255 0.0
C355 C 0.30927 0.01326 0.51574 0.0
H356 H 0.29489 0.97945 0.56079 0.0
H357 H 0.33838 -0.00017 0.5185 0.0
H358 H 0.32154 0.92465 0.54837 0.0
H359 H 0.28456 0.93377 0.49753 0.0
H360 H 0.38838 0.01885 0.56814 0.0
H361 H 0.26882 0.99946 0.54434 0.0
H362 H 0.31337 0.02105 0.50191 0.0
C363 C 0.29832 0.06345 0.76373 0.0
C364 C 0.31577 0.05231 0.76071 0.0
N365 N 0.32764 0.05456 0.77714 0.0
N366 N 0.29936 0.0726 0.78195 0.0
C367 C 0.31741 0.06708 0.78953 0.0
H368 H 0.2857 0.06469 0.7534 0.0
Co369 Co 0.28133 0.0895 0.79542 0.0
C370 C 0.29635 0.08621 0.83702 0.0
O371 O 0.29907 0.10588 0.83704 0.0
N372 N 0.26343 0.10647 0.80962 0.0
C373 C 0.2443 0.11567 0.8357 0.0
C374 C 0.24937 0.10003 0.82299 0.0
C375 C 0.26597 0.12628 0.81406 0.0
N376 N 0.25487 0.13209 0.83009 0.0
O377 O 0.3022 0.10925 0.79681 0.0
H378 H 0.24502 0.08442 0.82514 0.0
H379 H 0.27777 0.13563 0.80772 0.0
O380 O 0.28935 0.0775 0.82125 0.0
C381 C 0.30341 0.11944 0.7805 0.0
O382 O 0.29014 0.11601 0.7661 0.0
N383 N 0.261 0.07061 0.79162 0.0
C384 C 0.23896 0.04183 0.77075 0.0
C385 C 0.25075 0.03619 0.7875 0.0
C386 C 0.26192 0.05093 0.79774 0.0
C387 C 0.24773 0.0766 0.77708 0.0
C388 C 0.23648 0.06238 0.76639 0.0
H389 H 0.27291 0.0462 0.80887 0.0
H390 H 0.24763 0.09221 0.77219 0.0
H391 H 0.3232 0.07258 0.80381 0.0
H392 H 0.31932 0.04314 0.74763 0.0
H393 H 0.23541 0.11445 0.8494 0.0
H394 H 0.25328 0.02039 0.791 0.0
H395 H 0.2277 0.06718 0.75341 0.0
C396 C 0.20586 0.94111 0.4805 0.0
C397 C 0.21775 0.9239 0.48116 0.0
N398 N 0.21284 0.91218 0.46521 0.0
N399 N 0.1936 0.94008 0.46421 0.0
C400 C 0.19816 0.92231 0.4554 0.0
H401 H 0.20577 0.9532 0.4915 0.0
Co402 Co 0.17253 0.95647 0.45536 0.0
C403 C 0.17908 0.95918 0.4105 0.0
O404 O 0.17444 0.97851 0.41009 0.0
N405 N 0.15084 0.97216 0.44614 0.0
C406 C 0.12712 0.99483 0.43884 0.0
C407 C 0.14415 0.99099 0.4503 0.0
C408 C 0.13748 0.96486 0.43254 0.0
N409 N 0.123 0.97828 0.42764 0.0
O410 O 0.15504 0.93383 0.45682 0.0
H411 H 0.15108 0.00138 0.46082 0.0
H412 H 0.13888 0.95005 0.42576 0.0
O413 O 0.17928 0.94964 0.42732 0.0
C414 C 0.14587 0.93251 0.47368 0.0
O415 O 0.14909 0.94648 0.48745 0.0
N416 N 0.18971 0.97878 0.45621 0.0
C417 C 0.22029 0.0041 0.47062 0.0
C418 C 0.22111 0.99602 0.4509 0.0
C419 C 0.20611 0.98267 0.44433 0.0
C420 C 0.18746 0.98834 0.47429 0.0
C421 C 0.20252 0.00095 0.48184 0.0
H422 H 0.20883 0.97428 0.43065 0.0
H423 H 0.17485 0.98438 0.48393 0.0
H424 H 0.18994 0.91633 0.44259 0.0
H425 H 0.22881 0.92017 0.49264 0.0
H426 H 0.11849 0.00873 0.43883 0.0
H427 H 0.23406 0.99843 0.44122 0.0
H428 H 0.20089 0.00634 0.49719 0.0
C429 C 0.30318 0.95742 0.72744 0.0
C430 C 0.32145 0.96717 0.73037 0.0
N431 N 0.335 0.95898 0.71762 0.0
N432 N 0.30531 0.94342 0.71268 0.0
C433 C 0.32483 0.94487 0.70704 0.0
H434 H 0.28949 0.96012 0.73591 0.0
Co435 Co 0.28767 0.92412 0.7019 0.0
C436 C 0.2879 0.93213 0.6572 0.0
O437 O 0.26891 0.92656 0.65551 0.0
N438 N 0.27069 0.90427 0.69084 0.0
C439 C 0.24597 0.88445 0.67941 0.0
C440 C 0.25069 0.90031 0.69218 0.0
C441 C 0.27773 0.89035 0.67768 0.0
N442 N 0.26307 0.87844 0.67013 0.0
O443 O 0.3086 0.90443 0.70363 0.0
H444 H 0.23999 0.90867 0.70125 0.0
H445 H 0.29338 0.88954 0.67304 0.0
O446 O 0.29654 0.93217 0.67454 0.0
C447 C 0.31069 0.89666 0.72113 0.0
O448 O 0.29947 0.90344 0.73606 0.0
N449 N 0.26681 0.94301 0.70253 0.0
C450 C 0.24328 0.97483 0.7171 0.0
C451 C 0.25215 0.97575 0.69773 0.0
C452 C 0.2645 0.95996 0.69103 0.0
C453 C 0.25626 0.94075 0.72004 0.0
C454 C 0.24453 0.95643 0.72767 0.0
H455 H 0.27339 0.96236 0.6776 0.0
H456 H 0.25879 0.92746 0.72925 0.0
H457 H 0.33162 0.93544 0.69551 0.0
H458 H 0.32471 0.97873 0.7415 0.0
H459 H 0.23102 0.87841 0.6766 0.0
H460 H 0.2511 0.9892 0.68848 0.0
H461 H 0.23837 0.9546 0.7427 0.0
C462 C 0.29468 0.05784 0.981 0.0
C463 C 0.28349 0.07544 0.98254 0.0
N464 N 0.28814 0.08733 0.96666 0.0
N465 N 0.30626 0.05876 0.96421 0.0
C466 C 0.30207 0.07693 0.95604 0.0
H467 H 0.29457 0.04537 0.99158 0.0
Co468 Co 0.32542 0.04108 0.95364 0.0
C469 C 0.31633 0.04052 0.90912 0.0
O470 O 0.31945 0.02092 0.908 0.0
N471 N 0.3452 0.024 0.9427 0.0
C472 C 0.36671 -0.00011 0.93333 0.0
C473 C 0.35055 0.00454 0.94573 0.0
C474 C 0.35846 0.03082 0.92877 0.0
N475 N 0.37162 0.01657 0.92267 0.0
O476 O 0.34485 0.06212 0.95501 0.0
H477 H 0.34331 0.99427 0.95616 0.0
H478 H 0.35793 0.04598 0.92269 0.0
O479 O 0.31777 0.04955 0.92618 0.0
C480 C 0.35562 0.0616 0.97095 0.0
O481 O 0.3525 0.04709 0.98416 0.0
N482 N 0.30647 0.02027 0.95462 0.0
C483 C 0.2745 0.99746 0.97009 0.0
C484 C 0.27324 0.00641 0.95078 0.0
C485 C 0.28907 0.01848 0.9437 0.0
C486 C 0.30891 0.00976 0.97214 0.0
C487 C 0.29317 0.99838 0.98021 0.0
H488 H 0.28635 0.02768 0.93055 0.0
H489 H 0.3224 0.01212 0.98109 0.0
H490 H 0.30978 0.08281 0.94289 0.0
H491 H 0.27286 0.07918 0.99441 0.0
H492 H 0.37426 0.98541 0.93237 0.0
H493 H 0.25952 0.00569 0.94191 0.0
H494 H 0.2952 0.99222 0.99521 0.0
C495 C 0.19558 0.04984 0.23579 0.0
C496 C 0.17794 0.03905 0.23881 0.0
N497 N 0.16559 0.04264 0.22303 0.0
N498 N 0.19429 0.0601 0.21816 0.0
C499 C 0.17577 0.05554 0.21101 0.0
H500 H 0.20819 0.05056 0.24616 0.0
Co501 Co 0.21192 0.07877 0.20616 0.0
C502 C 0.19022 0.07526 0.16627 0.0
O503 O 0.17816 0.09042 0.17066 0.0
N504 N 0.2291 0.09766 0.194 0.0
C505 C 0.25429 0.11702 0.18282 0.0
C506 C 0.24912 0.10134 0.19565 0.0
C507 C 0.22255 0.11137 0.18044 0.0
N508 N 0.23739 0.12328 0.17332 0.0
O509 O 0.19127 0.09861 0.20757 0.0
H510 H 0.25941 0.09319 0.20537 0.0
H511 H 0.20708 0.11247 0.17563 0.0
O512 O 0.20352 0.06939 0.17906 0.0
C513 C 0.19069 0.1071 0.22484 0.0
O514 O 0.20339 0.10109 0.2389 0.0
N515 N 0.2326 0.05993 0.20721 0.0
C516 C 0.25655 0.02804 0.22045 0.0
C517 C 0.24908 0.02847 0.20046 0.0
C518 C 0.23675 0.0445 0.19419 0.0
C519 C 0.24211 0.06123 0.22537 0.0
C520 C 0.254 0.04543 0.23239 0.0
H521 H 0.22964 0.04373 0.17952 0.0
H522 H 0.23872 0.07377 0.23533 0.0
H523 H 0.16928 0.06248 0.19778 0.0
H524 H 0.17438 0.0296 0.25169 0.0
H525 H 0.26925 0.1233 0.18076 0.0
H526 H 0.25137 0.0159 0.19024 0.0
H527 H 0.25921 0.04623 0.24787 0.0
C528 C 0.02062 0.20353 0.05981 0.0
C529 C 0.01885 0.21436 0.07762 0.0
N530 N 0.03149 0.2061 0.09123 0.0
N531 N 0.03457 0.18877 0.06227 0.0
C532 C 0.04087 0.19087 0.08153 0.0
H533 H 0.01194 0.20606 0.0462 0.0
Co534 Co 0.04374 0.16808 0.04534 0.0
C535 C 0.08875 0.17356 0.04406 0.0
O536 O 0.08959 0.16711 0.02528 0.0
N537 N 0.05314 0.14684 0.02908 0.0
C538 C 0.0619 0.12469 0.00526 0.0
C539 C 0.05057 0.14174 0.00945 0.0
C540 C 0.06563 0.13248 0.03645 0.0
N541 N 0.07151 0.11908 0.02233 0.0
O542 O 0.04174 0.14959 0.06729 0.0
H543 H 0.0415 0.14997 0.99866 0.0
H544 H 0.07085 0.13225 0.05194 0.0
O545 O 0.07168 0.17495 0.05309 0.0
C546 C 0.02415 0.14246 0.07051 0.0
O547 O 0.00893 0.14909 0.05959 0.0
N548 N 0.04354 0.186 0.02357 0.0
C549 C 0.03022 0.21764 0.99905 0.0
C550 C 0.04978 0.21785 0.00751 0.0
C551 C 0.05589 0.2022 0.02034 0.0
C552 C 0.0257 0.1843 0.01348 0.0
C553 C 0.01869 0.19991 0.00124 0.0
H554 H 0.06961 0.20423 0.02887 0.0
H555 H 0.01581 0.17169 0.01676 0.0
H556 H 0.05204 0.18114 0.0885 0.0
H557 H 0.00857 0.22676 0.08056 0.0
H558 H 0.06342 0.11744 0.99067 0.0
H559 H 0.05968 0.23075 0.00577 0.0
H560 H 0.00345 0.19871 0.99544 0.0
C561 C 0.51244 0.30254 0.94334 0.0
C562 C 0.51055 0.29102 0.92596 0.0
N563 N 0.527 0.29424 0.91437 0.0
N564 N 0.53 0.31291 0.94255 0.0
C565 C 0.53834 0.30765 0.92473 0.0
H566 H 0.50173 0.30335 0.95566 0.0
Co567 Co 0.54145 0.33143 0.96049 0.0
C568 C 0.58367 0.33052 0.94677 0.0
O569 O 0.58232 0.34988 0.94269 0.0
N570 N 0.55364 0.35013 0.97831 0.0
C571 C 0.576 0.36224 0.00041 0.0
C572 C 0.56464 0.3457 0.99498 0.0
C573 C 0.55828 0.36964 0.9743 0.0
N574 N 0.5723 0.37712 0.98706 0.0
O575 O 0.5421 0.35064 0.93904 0.0
H576 H 0.56614 0.33081 0.00155 0.0
H577 H 0.55323 0.37769 0.96102 0.0
O578 O 0.56838 0.3211 0.95393 0.0
C579 C 0.52476 0.35867 0.93657 0.0
O580 O 0.50988 0.35305 0.9485 0.0
N581 N 0.53821 0.313 0.98134 0.0
C582 C 0.51911 0.28443 0.00522 0.0
C583 C 0.53588 0.27899 0.99337 0.0
C584 C 0.54527 0.29363 0.98133 0.0
C585 C 0.52346 0.31891 0.99441 0.0
C586 C 0.51381 0.30486 0.0067 0.0
H587 H 0.55655 0.28895 0.97047 0.0
H588 H 0.51778 0.33424 0.9938 0.0
H589 H 0.55227 0.31414 0.91915 0.0
H590 H 0.49811 0.28106 0.92222 0.0
H591 H 0.58781 0.36246 0.01175 0.0
H592 H 0.54013 0.26326 0.99159 0.0
H593 H 0.50086 0.30954 0.01558 0.0
C594 C 0.9598 0.27128 0.1949 0.0
C595 C 0.96963 0.26851 0.17663 0.0
N596 N 0.96115 0.28105 0.16303 0.0
N597 N 0.9455 0.28571 0.19269 0.0
C598 C 0.94685 0.29134 0.17317 0.0
H599 H 0.96264 0.26294 0.20866 0.0
Co600 Co 0.92582 0.296 0.21006 0.0
C601 C 0.93342 0.34041 0.21054 0.0
O602 O 0.93048 0.34096 0.23019 0.0
N603 N 0.90553 0.30672 0.22673 0.0
C604 C 0.88498 0.318 0.25087 0.0
C605 C 0.90107 0.30538 0.24662 0.0
C606 C 0.89176 0.31982 0.2193 0.0
N607 N 0.87933 0.32721 0.23359 0.0
O608 O 0.90661 0.29356 0.18882 0.0
H609 H 0.90918 0.29638 0.25756 0.0
H610 H 0.89128 0.32431 0.2036 0.0
O611 O 0.93262 0.32351 0.20111 0.0
C612 C 0.89679 0.27701 0.18867 0.0
O613 O 0.9001 0.26375 0.2031 0.0
N614 N 0.94459 0.29609 0.2311 0.0
C615 C 0.97638 0.28242 0.25533 0.0
C616 C 0.97736 0.30136 0.24558 0.0
C617 C 0.96171 0.30747 0.23279 0.0
C618 C 0.94234 0.27896 0.24227 0.0
C619 C 0.95798 0.2718 0.25437 0.0
H620 H 0.96436 0.32025 0.22305 0.0
H621 H 0.92909 0.26963 0.24003 0.0
H622 H 0.93718 0.30264 0.16632 0.0
H623 H 0.98143 0.25765 0.1734 0.0
H624 H 0.87847 0.32065 0.26564 0.0
H625 H 0.99078 0.31068 0.24628 0.0
H626 H 0.9561 0.25703 0.2611 0.0
C627 C 0.98046 0.69656 0.44477 0.0
C628 C 0.9833 0.70694 0.42685 0.0
N629 N 0.97011 0.69958 0.41322 0.0
N630 N 0.96532 0.68302 0.44237 0.0
C631 C 0.95938 0.68536 0.42302 0.0
H632 H 0.98933 0.69843 0.45836 0.0
Co633 Co 0.95473 0.66303 0.4592 0.0
C634 C 0.9101 0.67065 0.4597 0.0
O635 O 0.90879 0.66446 0.47854 0.0
N636 N 0.94397 0.64238 0.47536 0.0
C637 C 0.93441 0.62027 0.49889 0.0
C638 C 0.94632 0.63699 0.49493 0.0
C639 C 0.93097 0.62857 0.4678 0.0
N640 N 0.92466 0.61518 0.48173 0.0
O641 O 0.9563 0.6445 0.4373 0.0
H642 H 0.9558 0.64469 0.50577 0.0
H643 H 0.92592 0.62858 0.45224 0.0
O644 O 0.9273 0.67119 0.45084 0.0
C645 C 0.97234 0.6339 0.43686 0.0
O646 O 0.98583 0.63631 0.45126 0.0
N647 N 0.95536 0.68109 0.48087 0.0
C648 C 0.97054 0.71329 0.50349 0.0
C649 C 0.95081 0.71392 0.49545 0.0
C650 C 0.94382 0.69799 0.48347 0.0
C651 C 0.97304 0.6789 0.49114 0.0
C652 C 0.98101 0.69481 0.50241 0.0
H653 H 0.93021 0.70037 0.47488 0.0
H654 H 0.98228 0.66568 0.48843 0.0
H655 H 0.94755 0.67644 0.41605 0.0
H656 H 0.99467 0.71833 0.42382 0.0
H657 H 0.93275 0.61278 0.51334 0.0
H658 H 0.94154 0.72734 0.49662 0.0
H659 H 0.99623 0.69313 0.50811 0.0
C660 C 0.06342 0.2362 0.20129 0.0
C661 C 0.05192 0.23951 0.18412 0.0
N662 N 0.05331 0.22298 0.17227 0.0
N663 N 0.07195 0.2177 0.20007 0.0
C664 C 0.06566 0.21022 0.18222 0.0
H665 H 0.06549 0.24659 0.21375 0.0
Co666 Co 0.0894 0.20412 0.21745 0.0
C667 C 0.08492 0.16255 0.20225 0.0
O668 O 0.1043 0.16239 0.19802 0.0
N669 N 0.10703 0.1898 0.23475 0.0
C670 C 0.11723 0.16566 0.25591 0.0
C671 C 0.10176 0.17869 0.2511 0.0
C672 C 0.12599 0.18354 0.23035 0.0
N673 N 0.13226 0.16845 0.24251 0.0
O674 O 0.10832 0.20263 0.19583 0.0
H675 H 0.08688 0.17837 0.25782 0.0
H676 H 0.13439 0.18833 0.21721 0.0
O677 O 0.0769 0.17834 0.20998 0.0
C678 C 0.11886 0.21871 0.19449 0.0
O679 O 0.11601 0.23313 0.20787 0.0
N680 N 0.07127 0.20808 0.23842 0.0
C681 C 0.04324 0.22913 0.26121 0.0
C682 C 0.03726 0.2122 0.24987 0.0
C683 C 0.05161 0.20187 0.23831 0.0
C684 C 0.07769 0.22279 0.25132 0.0
C685 C 0.06386 0.23354 0.26298 0.0
H686 H 0.0465 0.19061 0.22763 0.0
H687 H 0.09327 0.22774 0.2508 0.0
H688 H 0.07064 0.19582 0.17628 0.0
H689 H 0.04322 0.25294 0.18067 0.0
H690 H 0.1165 0.15353 0.26689 0.0
H691 H 0.02139 0.20863 0.24789 0.0
H692 H 0.06894 0.24664 0.27142 0.0
C693 C 0.47887 0.8019 0.55314 0.0
C694 C 0.48135 0.7917 0.57122 0.0
N695 N 0.46852 0.79978 0.58476 0.0
N696 N 0.46429 0.81606 0.55536 0.0
C697 C 0.45834 0.81429 0.57476 0.0
H698 H 0.48752 0.79939 0.53952 0.0
Co699 Co 0.45416 0.83585 0.53796 0.0
C700 C 0.40929 0.82947 0.5382 0.0
O701 O 0.40791 0.83497 0.51915 0.0
N702 N 0.44386 0.8562 0.52121 0.0
C703 C 0.43347 0.87696 0.49682 0.0
C704 C 0.44552 0.86048 0.50129 0.0
C705 C 0.43123 0.87048 0.52845 0.0
N706 N 0.42434 0.88299 0.514 0.0
O707 O 0.45667 0.8552 0.55911 0.0
H708 H 0.45437 0.852 0.49051 0.0
H709 H 0.42656 0.87123 0.5441 0.0
O710 O 0.42658 0.82884 0.5469 0.0
C711 C 0.47429 0.86271 0.56094 0.0
O712 O 0.48876 0.85623 0.54896 0.0
N713 N 0.45392 0.81705 0.51695 0.0
C714 C 0.46776 0.7839 0.49492 0.0
C715 C 0.4482 0.78399 0.50336 0.0
C716 C 0.44188 0.8004 0.51505 0.0
C717 C 0.47146 0.81848 0.50632 0.0
C718 C 0.47876 0.8021 0.49532 0.0
H719 H 0.42839 0.79862 0.52396 0.0
H720 H 0.48109 0.83154 0.5085 0.0
H721 H 0.44686 0.82375 0.58159 0.0
H722 H 0.49219 0.77985 0.57436 0.0
H723 H 0.43108 0.88348 0.482 0.0
H724 H 0.43857 0.77078 0.50274 0.0
H725 H 0.4939 0.80323 0.4893 0.0
C726 C 0.94202 0.73239 0.30321 0.0
C727 C 0.95408 0.73414 0.32018 0.0
N728 N 0.95145 0.71745 0.33156 0.0
N729 N 0.93194 0.71465 0.30396 0.0
C730 C 0.93791 0.70607 0.32143 0.0
H731 H 0.94021 0.74369 0.29154 0.0
Co732 Co 0.91172 0.70426 0.28732 0.0
C733 C 0.92007 0.65933 0.28556 0.0
O734 O 0.91253 0.65758 0.26725 0.0
N735 N 0.89095 0.69385 0.2713 0.0
C736 C 0.86831 0.68523 0.24797 0.0
C737 C 0.88491 0.69724 0.2521 0.0
C738 C 0.87764 0.68022 0.27854 0.0
N739 N 0.86384 0.6745 0.26474 0.0
O740 O 0.89375 0.70434 0.30971 0.0
H741 H 0.89207 0.70758 0.24168 0.0
H742 H 0.87881 0.67377 0.29351 0.0
O743 O 0.92077 0.67666 0.29418 0.0
C744 C 0.8851 0.72126 0.31271 0.0
O745 O 0.89023 0.73681 0.30144 0.0
N746 N 0.92907 0.70631 0.26522 0.0
C747 C 0.9606 0.72242 0.24244 0.0
C748 C 0.96083 0.70199 0.24848 0.0
C749 C 0.94529 0.69446 0.26061 0.0
C750 C 0.92696 0.72487 0.2566 0.0
C751 C 0.94261 0.73336 0.24538 0.0
H752 H 0.94749 0.67994 0.26758 0.0
H753 H 0.91412 0.73416 0.26065 0.0
H754 H 0.93147 0.6922 0.32725 0.0
H755 H 0.96363 0.74686 0.32402 0.0
H756 H 0.86029 0.68444 0.23373 0.0
H757 H 0.97377 0.69239 0.24568 0.0
H758 H 0.94123 0.74909 0.24118 0.0
C759 C 0.55007 0.2635 0.80181 0.0
C760 C 0.53964 0.26044 0.81971 0.0
N761 N 0.54626 0.27414 0.83323 0.0
N762 N 0.56285 0.27929 0.80415 0.0
C763 C 0.56008 0.28536 0.8234 0.0
H764 H 0.54863 0.25458 0.78818 0.0
Co765 Co 0.58208 0.29107 0.78716 0.0
C766 C 0.56961 0.33424 0.78543 0.0
O767 O 0.57212 0.33437 0.76571 0.0
N768 N 0.60201 0.3034 0.77097 0.0
C769 C 0.6252 0.31329 0.74866 0.0
C770 C 0.60918 0.30039 0.75207 0.0
C771 C 0.61403 0.31807 0.77861 0.0
N772 N 0.62824 0.32438 0.76549 0.0
O773 O 0.60071 0.29073 0.80896 0.0
H774 H 0.60361 0.28945 0.74134 0.0
H775 H 0.61215 0.32415 0.79367 0.0
O776 O 0.57249 0.3179 0.79537 0.0
C777 C 0.61158 0.27487 0.80953 0.0
O778 O 0.60951 0.2613 0.79515 0.0
N779 N 0.56406 0.28903 0.76556 0.0
C780 C 0.53488 0.27011 0.74195 0.0
C781 C 0.53011 0.28766 0.75293 0.0
C782 C 0.54494 0.29682 0.76494 0.0
C783 C 0.56918 0.27297 0.75373 0.0
C784 C 0.55499 0.26363 0.74137 0.0
H785 H 0.5403 0.30836 0.77551 0.0
H786 H 0.58369 0.26574 0.75578 0.0
H787 H 0.56834 0.29773 0.83025 0.0
H788 H 0.52866 0.24869 0.82277 0.0
H789 H 0.63415 0.31404 0.73498 0.0
H790 H 0.51458 0.29271 0.75425 0.0
H791 H 0.55914 0.24991 0.73343 0.0
C792 C 0.55495 0.51496 0.69092 0.0
C793 C 0.57221 0.5132 0.70256 0.0
N794 N 0.58331 0.53011 0.70004 0.0
N795 N 0.55526 0.5329 0.68118 0.0
C796 C 0.57278 0.54157 0.68689 0.0
H797 H 0.54315 0.50374 0.68949 0.0
Co798 Co 0.53719 0.54456 0.66294 0.0
C799 C 0.55048 0.58704 0.66505 0.0
O800 O 0.55449 0.5867 0.64561 0.0
N801 N 0.5192 0.55699 0.64461 0.0
C802 C 0.49875 0.58138 0.63366 0.0
C803 C 0.50341 0.56898 0.64966 0.0
C804 C 0.52316 0.56188 0.62513 0.0
N805 N 0.51132 0.57697 0.61834 0.0
O806 O 0.5586 0.54597 0.64365 0.0
H807 H 0.49732 0.57065 0.6647 0.0
H808 H 0.53628 0.55672 0.61688 0.0
O809 O 0.5437 0.5712 0.67375 0.0
C810 C 0.5621 0.52897 0.63526 0.0
O811 O 0.5512 0.51324 0.64065 0.0
N812 N 0.51647 0.54088 0.68155 0.0
C813 C 0.49383 0.52412 0.71282 0.0
C814 C 0.50078 0.54426 0.71394 0.0
C815 C 0.51267 0.55215 0.69839 0.0
C816 C 0.50725 0.52273 0.67877 0.0
C817 C 0.49615 0.51387 0.69431 0.0
H818 H 0.5196 0.56678 0.70048 0.0
H819 H 0.51049 0.51408 0.66526 0.0
H820 H 0.57807 0.55581 0.68087 0.0
H821 H 0.57624 0.5005 0.71206 0.0
H822 H 0.48862 0.59423 0.63409 0.0
H823 H 0.49844 0.55341 0.7273 0.0
H824 H 0.49127 0.49841 0.69225 0.0
C825 C 0.73457 0.30941 0.93646 0.0
C826 C 0.73857 0.32684 0.94718 0.0
N827 N 0.7208 0.33524 0.95238 0.0
N828 N 0.71439 0.30711 0.93473 0.0
C829 C 0.70641 0.32305 0.94467 0.0
H830 H 0.74561 0.29985 0.92911 0.0
Co831 Co 0.70201 0.28916 0.9172 0.0
C832 C 0.65833 0.28852 0.92838 0.0
O833 O 0.65797 0.26878 0.92607 0.0
N834 N 0.68973 0.27145 0.89885 0.0
C835 C 0.67937 0.24639 0.87892 0.0
C836 C 0.69225 0.25165 0.89452 0.0
C837 C 0.67556 0.27782 0.88564 0.0
N838 N 0.66882 0.26296 0.87352 0.0
O839 O 0.7025 0.30968 0.89707 0.0
H840 H 0.70272 0.24163 0.90203 0.0
H841 H 0.67035 0.2933 0.88488 0.0
O842 O 0.67496 0.29819 0.92603 0.0
C843 C 0.71625 0.30754 0.88376 0.0
O844 O 0.72751 0.29118 0.88407 0.0
N845 N 0.70402 0.26916 0.93693 0.0
C846 C 0.72121 0.24835 0.96942 0.0
C847 C 0.70177 0.25692 0.97094 0.0
C848 C 0.69389 0.26809 0.95487 0.0
C849 C 0.72169 0.25896 0.93437 0.0
C850 C 0.73064 0.24861 0.95037 0.0
H851 H 0.68075 0.27724 0.95777 0.0
H852 H 0.73001 0.26076 0.9204 0.0
H853 H 0.69048 0.32676 0.94472 0.0
H854 H 0.75329 0.33347 0.94988 0.0
H855 H 0.67781 0.23153 0.87222 0.0
H856 H 0.69338 0.25665 0.98498 0.0
H857 H 0.74569 0.24267 0.94809 0.0
C858 C 0.9492 0.4856 0.19472 0.0
C859 C 0.93148 0.48924 0.20525 0.0
N860 N 0.9178 0.47536 0.1994 0.0
N861 N 0.94659 0.46929 0.18265 0.0
C862 C 0.92734 0.46349 0.18593 0.0
H863 H 0.96297 0.49438 0.19567 0.0
Co864 Co 0.9636 0.45636 0.16417 0.0
C865 C 0.94826 0.41491 0.16702 0.0
O866 O 0.94352 0.41583 0.14777 0.0
N867 N 0.9804 0.44265 0.1455 0.0
C868 C 0.00182 0.41954 0.13356 0.0
C869 C 0.99708 0.43162 0.1498 0.0
C870 C 0.97561 0.43718 0.12636 0.0
N871 N 0.98801 0.42279 0.11901 0.0
O872 O 0.94166 0.45581 0.14563 0.0
H873 H 0.00428 0.43078 0.16446 0.0
H874 H 0.96217 0.44209 0.1185 0.0
O875 O 0.95619 0.43023 0.17575 0.0
C876 C 0.94 0.47247 0.13612 0.0
O877 O 0.95348 0.48671 0.13939 0.0
N878 N 0.98509 0.45944 0.18188 0.0
C879 C 0.00974 0.47904 0.20941 0.0
C880 C 0.99808 0.46234 0.21548 0.0
C881 C 0.98562 0.45269 0.20136 0.0
C882 C 0.99815 0.47392 0.17529 0.0
C883 C 0.01081 0.48385 0.18884 0.0
H884 H 0.97484 0.44158 0.20658 0.0
H885 H 0.99716 0.47927 0.15986 0.0
H886 H 0.92029 0.45078 0.17837 0.0
H887 H 0.92867 0.50143 0.21582 0.0
H888 H 0.01318 0.40776 0.13333 0.0
H889 H 0.99666 0.45844 0.23133 0.0
H890 H 0.01953 0.49673 0.18368 0.0
C891 C 0.76772 0.68838 0.45147 0.0
C892 C 0.76705 0.67103 0.46313 0.0
N893 N 0.78317 0.65954 0.45835 0.0
N894 N 0.78422 0.6877 0.43947 0.0
C895 C 0.79311 0.66993 0.44392 0.0
H896 H 0.75662 0.70037 0.4514 0.0
Co897 Co 0.7932 0.70483 0.41904 0.0
C898 C 0.83845 0.70648 0.42485 0.0
O899 O 0.83968 0.72519 0.41828 0.0
N900 N 0.80237 0.72137 0.39799 0.0
C901 C 0.81029 0.74558 0.37605 0.0
C902 C 0.79883 0.7408 0.39282 0.0
C903 C 0.8155 0.71464 0.3839 0.0
N904 N 0.82087 0.72904 0.37055 0.0
O905 O 0.79164 0.68288 0.40063 0.0
H906 H 0.78891 0.75103 0.40078 0.0
H907 H 0.82195 0.69962 0.38426 0.0
O908 O 0.82125 0.69768 0.426 0.0
C909 C 0.77461 0.68156 0.39174 0.0
O910 O 0.76052 0.69488 0.39607 0.0
N911 N 0.79251 0.72646 0.43708 0.0
C912 C 0.77888 0.75069 0.46881 0.0
C913 C 0.79869 0.74286 0.46879 0.0
C914 C 0.80498 0.73017 0.4531 0.0
C915 C 0.77428 0.73587 0.43567 0.0
C916 C 0.76712 0.74794 0.45132 0.0
H917 H 0.81902 0.72217 0.45493 0.0
H918 H 0.76433 0.73221 0.4232 0.0
H919 H 0.80616 0.66421 0.4359 0.0
H920 H 0.75547 0.66708 0.47401 0.0
H921 H 0.81091 0.76018 0.36869 0.0
H922 H 0.8087 0.745 0.48155 0.0
H923 H 0.75168 0.75321 0.45034 0.0
C924 C 0.55073 0.47952 0.79972 0.0
C925 C 0.56893 0.4834 0.79012 0.0
N926 N 0.58251 0.46983 0.79683 0.0
N927 N 0.55299 0.46336 0.81204 0.0
C928 C 0.57248 0.45791 0.80988 0.0
H929 H 0.53687 0.48799 0.7979 0.0
Co930 Co 0.53524 0.4501 0.8295 0.0
C931 C 0.55201 0.409 0.82776 0.0
O932 O 0.55595 0.41018 0.84719 0.0
N933 N 0.51774 0.43602 0.84719 0.0
C934 C 0.49671 0.41196 0.85788 0.0
C935 C 0.50179 0.42433 0.84195 0.0
C936 C 0.52169 0.43069 0.86656 0.0
N937 N 0.50957 0.41572 0.87318 0.0
O938 O 0.55598 0.45049 0.84947 0.0
H939 H 0.49549 0.42321 0.82691 0.0
H940 H 0.53443 0.43616 0.87517 0.0
O941 O 0.54409 0.42407 0.81863 0.0
C942 C 0.55646 0.46721 0.85906 0.0
O943 O 0.54275 0.48098 0.85491 0.0
N944 N 0.51488 0.45232 0.81034 0.0
C945 C 0.49204 0.47105 0.78073 0.0
C946 C 0.50441 0.4545 0.7758 0.0
C947 C 0.51593 0.44531 0.79096 0.0
C948 C 0.50108 0.46661 0.81572 0.0
C949 C 0.48935 0.47614 0.8011 0.0
H950 H 0.5273 0.43438 0.7867 0.0
H951 H 0.50082 0.47219 0.8311 0.0
H952 H 0.57931 0.44537 0.81788 0.0
H953 H 0.57206 0.49549 0.77954 0.0
H954 H 0.48589 0.39968 0.85744 0.0
H955 H 0.50708 0.45041 0.76016 0.0
H956 H 0.48003 0.48892 0.80538 0.0
C957 C 0.77034 0.30258 0.05811 0.0
C958 C 0.76725 0.31993 0.04687 0.0
N959 N 0.78364 0.33189 0.04897 0.0
N960 N 0.78859 0.30369 0.06715 0.0
C961 C 0.79614 0.32172 0.06146 0.0
H962 H 0.75992 0.29008 0.05967 0.0
Co963 Co 0.80149 0.28581 0.08467 0.0
C964 C 0.84333 0.2837 0.06895 0.0
O965 O 0.84255 0.26388 0.07011 0.0
N966 N 0.81495 0.26847 0.10281 0.0
C967 C 0.82727 0.24442 0.12294 0.0
C968 C 0.81334 0.24876 0.10802 0.0
C969 C 0.82991 0.2756 0.11475 0.0
N970 N 0.83771 0.26141 0.12706 0.0
O971 O 0.80214 0.30658 0.10456 0.0
H972 H 0.80287 0.23801 0.10164 0.0
H973 H 0.83486 0.29118 0.11454 0.0
O974 O 0.82795 0.2943 0.07392 0.0
C975 C 0.78561 0.30688 0.11444 0.0
O976 O 0.77151 0.29367 0.10978 0.0
N977 N 0.79815 0.26533 0.06552 0.0
C978 C 0.77642 0.24479 0.03599 0.0
C979 C 0.79376 0.25582 0.03078 0.0
C980 C 0.80428 0.26637 0.0458 0.0
C981 C 0.7823 0.2533 0.07089 0.0
C982 C 0.77144 0.24259 0.05641 0.0
H983 H 0.81545 0.27729 0.04111 0.0
H984 H 0.77636 0.25409 0.0861 0.0
H985 H 0.81037 0.3276 0.06701 0.0
H986 H 0.75402 0.32344 0.0379 0.0
H987 H 0.82956 0.22988 0.13008 0.0
H988 H 0.79753 0.25846 0.01505 0.0
H989 H 0.75778 0.23472 0.06087 0.0
C990 C 0.94793 0.5196 0.29239 0.0
C991 C 0.92993 0.51636 0.28223 0.0
N992 N 0.91594 0.52869 0.2903 0.0
N993 N 0.94517 0.53412 0.30654 0.0
C994 C 0.92557 0.53934 0.30471 0.0
H995 H 0.96183 0.5114 0.28993 0.0
Co996 Co 0.96199 0.54483 0.32663 0.0
C997 C 0.96065 0.58973 0.3196 0.0
O998 O 0.97936 0.59207 0.32586 0.0
N999 N 0.97817 0.55573 0.34719 0.0
C1000 C 0.00224 0.56626 0.36824 0.0
C1001 C 0.99802 0.55417 0.35175 0.0
C1002 C 0.9707 0.5684 0.36135 0.0
N1003 N 0.98497 0.57534 0.37407 0.0
O1004 O 0.94043 0.54248 0.34551 0.0
H1005 H 0.00894 0.54528 0.3435 0.0
H1006 H 0.95501 0.57295 0.3619 0.0
O1007 O 0.95278 0.57205 0.31888 0.0
C1008 C 0.93773 0.52474 0.35246 0.0
O1009 O 0.94919 0.50994 0.34578 0.0
N1010 N 0.98346 0.54493 0.30846 0.0
C1011 C 0.0081 0.53144 0.27703 0.0
C1012 C -0.00056 0.55093 0.27656 0.0
C1013 C 0.98651 0.55709 0.2921 0.0
C1014 C 0.99394 0.52737 0.31052 0.0
C1015 C 0.00624 0.52027 0.29503 0.0
H1016 H 0.97781 0.57068 0.28991 0.0
H1017 H 0.99093 0.5177 0.32337 0.0
H1018 H 0.91828 0.55053 0.31419 0.0
H1019 H 0.92713 0.50525 0.27053 0.0
H1020 H 0.01697 0.56866 0.37496 0.0
H1021 H 0.00104 0.56068 0.26353 0.0
H1022 H 0.01227 0.50516 0.29657 0.0
C1023 C 0.73712 0.69403 0.56792 0.0
C1024 C 0.74248 0.67691 0.55729 0.0
N1025 N 0.7254 0.66745 0.55155 0.0
N1026 N 0.7168 0.69508 0.56903 0.0
C1027 C 0.71008 0.67871 0.55887 0.0
H1028 H 0.74734 0.70433 0.57547 0.0
Co1029 Co 0.70267 0.71252 0.58569 0.0
C1030 C 0.66142 0.71524 0.56888 0.0
O1031 O 0.66279 0.73501 0.57043 0.0
N1032 N 0.68841 0.72972 0.60326 0.0
C1033 C 0.67636 0.75356 0.62377 0.0
C1034 C 0.69038 0.74927 0.60894 0.0
C1035 C 0.67312 0.72264 0.61476 0.0
N1036 N 0.66553 0.73668 0.62734 0.0
O1037 O 0.70123 0.69137 0.60517 0.0
H1038 H 0.70139 0.75982 0.60315 0.0
H1039 H 0.66804 0.7071 0.61431 0.0
O1040 O 0.67649 0.70408 0.57378 0.0
C1041 C 0.71384 0.69347 0.6196 0.0
O1042 O 0.72458 0.71017 0.62063 0.0
N1043 N 0.70685 0.73309 0.56682 0.0
C1044 C 0.7284 0.75465 0.53784 0.0
C1045 C 0.71125 0.74346 0.53234 0.0
C1046 C 0.70093 0.73233 0.54703 0.0
C1047 C 0.72269 0.74499 0.5725 0.0
C1048 C 0.73352 0.75613 0.5583 0.0
H1049 H 0.6899 0.72141 0.54199 0.0
H1050 H 0.72847 0.74399 0.58777 0.0
H1051 H 0.69438 0.67413 0.55825 0.0
H1052 H 0.75766 0.6713 0.55486 0.0
H1053 H 0.67446 0.76789 0.63143 0.0
H1054 H 0.70738 0.74129 0.51656 0.0
H1055 H 0.74705 0.7641 0.56299 0.0
C1056 C 0.69481 0.56083 0.51291 0.0
C1057 C 0.70617 0.57805 0.50986 0.0
N1058 N 0.7088 0.58713 0.52789 0.0
N1059 N 0.69012 0.55934 0.53271 0.0
C1060 C 0.69894 0.57556 0.54142 0.0
H1061 H 0.68896 0.55096 0.50125 0.0
Co1062 Co 0.67038 0.54267 0.54359 0.0
C1063 C 0.67909 0.54089 0.58786 0.0
O1064 O 0.67517 0.52141 0.58832 0.0
N1065 N 0.64982 0.52647 0.55441 0.0
C1066 C 0.62712 0.50304 0.56252 0.0
C1067 C 0.64371 0.50737 0.55062 0.0
C1068 C 0.63657 0.53344 0.56829 0.0
N1069 N 0.62269 0.51955 0.57366 0.0
O1070 O 0.65221 0.56466 0.54264 0.0
H1071 H 0.65063 0.49719 0.5399 0.0
H1072 H 0.63753 0.54843 0.57475 0.0
O1073 O 0.67842 0.55047 0.57107 0.0
C1074 C 0.64188 0.56494 0.52641 0.0
O1075 O 0.64441 0.55033 0.51318 0.0
N1076 N 0.68832 0.52103 0.54217 0.0
C1077 C 0.71922 0.49694 0.52639 0.0
C1078 C 0.72062 0.50512 0.54604 0.0
C1079 C 0.70541 0.51787 0.55328 0.0
C1080 C 0.68568 0.51142 0.52418 0.0
C1081 C 0.70088 0.49945 0.51594 0.0
H1082 H 0.70843 0.5264 0.56681 0.0
H1083 H 0.67249 0.51484 0.51512 0.0
H1084 H 0.69652 0.58003 0.55697 0.0
H1085 H 0.71099 0.58414 0.49545 0.0
H1086 H 0.6189 0.4889 0.56272 0.0
H1087 H 0.73404 0.50322 0.55518 0.0
H1088 H 0.69877 0.49399 0.50068 0.0
C1089 C 0.69345 0.44211 0.76591 0.0
C1090 C 0.67598 0.4533 0.76332 0.0
N1091 N 0.66396 0.45011 0.77947 0.0
N1092 N 0.69229 0.43197 0.78358 0.0
C1093 C 0.67414 0.43699 0.79128 0.0
H1094 H 0.70619 0.44151 0.75567 0.0
Co1095 Co 0.71054 0.41463 0.79627 0.0
C1096 C 0.69513 0.41584 0.83784 0.0
O1097 O 0.69248 0.39619 0.83699 0.0
N1098 N 0.72868 0.39726 0.80971 0.0
C1099 C 0.74876 0.38747 0.83486 0.0
C1100 C 0.7434 0.40332 0.82256 0.0
C1101 C 0.72596 0.37746 0.81409 0.0
N1102 N 0.73765 0.3713 0.82959 0.0
O1103 O 0.68999 0.39445 0.79673 0.0
H1104 H 0.74811 0.41882 0.82476 0.0
H1105 H 0.71369 0.36841 0.80819 0.0
O1106 O 0.70231 0.42527 0.82256 0.0
C1107 C 0.68778 0.38609 0.77951 0.0
O1108 O 0.69948 0.39188 0.76452 0.0
N1109 N 0.7306 0.43399 0.79338 0.0
C1110 C 0.75309 0.46367 0.77433 0.0
C1111 C 0.74081 0.46859 0.79093 0.0
C1112 C 0.72944 0.4534 0.80027 0.0
C1113 C 0.74419 0.42866 0.77888 0.0
C1114 C 0.7557 0.44332 0.76914 0.0
H1115 H 0.71819 0.4576 0.81135 0.0
H1116 H 0.74448 0.41326 0.77335 0.0
H1117 H 0.66828 0.43071 0.80519 0.0
H1118 H 0.67252 0.46314 0.75071 0.0
H1119 H 0.75819 0.38844 0.84822 0.0
H1120 H 0.73816 0.48423 0.79503 0.0
H1121 H 0.76487 0.43907 0.75625 0.0
C1122 C 0.80053 0.44531 0.01776 0.0
C1123 C 0.79111 0.42688 0.01462 0.0
N1124 N 0.79863 0.41366 0.02814 0.0
N1125 N 0.81355 0.44359 0.03343 0.0
C1126 C 0.81198 0.42416 0.03931 0.0
H1127 H 0.79818 0.45894 0.00904 0.0
Co1128 Co 0.83154 0.46164 0.04549 0.0
C1129 C 0.81938 0.4617 0.08871 0.0
O1130 O 0.82043 0.48155 0.08911 0.0
N1131 N 0.85024 0.47902 0.05818 0.0
C1132 C 0.87017 0.50338 0.07025 0.0
C1133 C 0.85458 0.49899 0.0571 0.0
C1134 C 0.8634 0.4718 0.07202 0.0
N1135 N 0.87561 0.48616 0.07966 0.0
O1136 O 0.85168 0.44113 0.04448 0.0
H1137 H 0.84706 0.50992 0.04765 0.0
H1138 H 0.86402 0.45607 0.07642 0.0
O1139 O 0.82281 0.45223 0.0722 0.0
C1140 C 0.86224 0.44141 0.0284 0.0
O1141 O 0.85912 0.45589 0.01515 0.0
N1142 N 0.81199 0.48189 0.04402 0.0
C1143 C 0.78105 0.50299 0.02507 0.0
C1144 C 0.77708 0.49154 0.04249 0.0
C1145 C 0.79284 0.4808 0.0517 0.0
C1146 C 0.81622 0.49433 0.02817 0.0
C1147 C 0.80107 0.50544 0.01879 0.0
H1148 H 0.78906 0.46974 0.06308 0.0
H1149 H 0.83097 0.49373 0.02115 0.0
H1150 H 0.82068 0.41768 0.05158 0.0
H1151 H 0.78014 0.42331 0.003 0.0
H1152 H 0.87676 0.51813 0.07281 0.0
H1153 H 0.76167 0.48879 0.04732 0.0
H1154 H 0.80458 0.51373 0.00509 0.0
C1155 C 0.8035 0.55295 0.26312 0.0
C1156 C 0.82105 0.54213 0.25978 0.0
N1157 N 0.83299 0.54427 0.27613 0.0
N1158 N 0.80443 0.56178 0.28153 0.0
C1159 C 0.82265 0.55636 0.28885 0.0
H1160 H 0.79122 0.55474 0.25249 0.0
Co1161 Co 0.7867 0.57981 0.29426 0.0
C1162 C 0.80774 0.57647 0.33443 0.0
O1163 O 0.81849 0.59283 0.3311 0.0
N1164 N 0.76937 0.59804 0.30743 0.0
C1165 C 0.74402 0.61327 0.32362 0.0
C1166 C 0.74905 0.59853 0.30967 0.0
C1167 C 0.77612 0.61284 0.31974 0.0
N1168 N 0.76124 0.62198 0.33009 0.0
O1169 O 0.80714 0.59988 0.29315 0.0
H1170 H 0.73854 0.58829 0.30247 0.0
H1171 H 0.79182 0.61674 0.32153 0.0
O1172 O 0.79547 0.56996 0.32095 0.0
C1173 C 0.80833 0.60885 0.27616 0.0
O1174 O 0.79646 0.60301 0.26133 0.0
N1175 N 0.76635 0.56055 0.29295 0.0
C1176 C 0.74357 0.52787 0.27953 0.0
C1177 C 0.75069 0.52866 0.29963 0.0
C1178 C 0.76245 0.54507 0.30598 0.0
C1179 C 0.75687 0.56159 0.27475 0.0
C1180 C 0.74562 0.54535 0.2676 0.0
H1181 H 0.76932 0.54458 0.32077 0.0
H1182 H 0.7599 0.57425 0.26485 0.0
H1183 H 0.82879 0.56212 0.30283 0.0
H1184 H 0.82482 0.53368 0.24628 0.0
H1185 H 0.72902 0.61657 0.32929 0.0
H1186 H 0.74863 0.51609 0.30989 0.0
H1187 H 0.74053 0.54592 0.25207 0.0
C1188 C 0.68305 0.44128 0.98663 0.0
C1189 C 0.69451 0.42432 0.99063 0.0
N1190 N 0.69822 0.41495 0.97296 0.0
N1191 N 0.67935 0.44227 0.96658 0.0
C1192 C 0.68889 0.42606 0.95868 0.0
H1193 H 0.67674 0.45148 0.99774 0.0
Co1194 Co 0.66083 0.45932 0.95413 0.0
C1195 C 0.6713 0.45909 0.9102 0.0
O1196 O 0.66791 0.47865 0.90912 0.0
N1197 N 0.64161 0.47589 0.94169 0.0
C1198 C 0.62154 0.49989 0.92933 0.0
C1199 C 0.63705 0.49577 0.94275 0.0
C1200 C 0.62854 0.46835 0.92796 0.0
N1201 N 0.61642 0.48253 0.91993 0.0
O1202 O 0.64138 0.4383 0.9554 0.0
H1203 H 0.64464 0.50666 0.95229 0.0
H1204 H 0.62824 0.45259 0.92361 0.0
O1205 O 0.66964 0.44995 0.9272 0.0
C1206 C 0.63126 0.43846 0.97177 0.0
O1207 O 0.63535 0.45226 0.98547 0.0
N1208 N 0.67981 0.48009 0.95534 0.0
C1209 C 0.71234 0.50115 0.97207 0.0
C1210 C 0.71347 0.49305 0.95239 0.0
C1211 C 0.69745 0.48165 0.94476 0.0
C1212 C 0.67736 0.49038 0.97299 0.0
C1213 C 0.69345 0.50076 0.9818 0.0
H1214 H 0.70027 0.47268 0.9315 0.0
H1215 H 0.66355 0.48839 0.98154 0.0
H1216 H 0.68768 0.42142 0.94304 0.0
H1217 H 0.69892 0.41877 0.00539 0.0
H1218 H 0.61495 0.51458 0.92639 0.0
H1219 H 0.72727 0.49367 0.94364 0.0
H1220 H 0.69139 0.50652 0.99695 0.0
C1221 C 0.80961 0.44364 0.23508 0.0
C1222 C 0.82638 0.45603 0.23687 0.0
N1223 N 0.83769 0.45386 0.22004 0.0
N1224 N 0.81052 0.43376 0.21724 0.0
C1225 C 0.82779 0.44018 0.20862 0.0
H1226 H 0.79765 0.44184 0.24609 0.0
Co1227 Co 0.79358 0.41446 0.20564 0.0
C1228 C 0.80669 0.41734 0.16324 0.0
O1229 O 0.81252 0.39839 0.16414 0.0
N1230 N 0.77676 0.39491 0.19316 0.0
C1231 C 0.75469 0.38189 0.17124 0.0
C1232 C 0.75925 0.39833 0.18314 0.0
C1233 C 0.7822 0.37605 0.18733 0.0
N1234 N 0.76942 0.36808 0.1736 0.0
O1235 O 0.81611 0.39668 0.20438 0.0
H1236 H 0.75129 0.41259 0.18275 0.0
H1237 H 0.79628 0.3689 0.1914 0.0
O1238 O 0.799 0.42578 0.17883 0.0
C1239 C 0.81788 0.38724 0.2211 0.0
O1240 O 0.80457 0.39075 0.23545 0.0
N1241 N 0.77172 0.4315 0.2096 0.0
C1242 C 0.7467 0.45852 0.22952 0.0
C1243 C 0.75752 0.46463 0.21227 0.0
C1244 C 0.77019 0.4508 0.20251 0.0
C1245 C 0.75969 0.42482 0.22491 0.0
C1246 C 0.7469 0.43809 0.23503 0.0
H1247 H 0.78025 0.45616 0.19082 0.0
H1248 H 0.76153 0.40958 0.23056 0.0
H1249 H 0.83342 0.4343 0.19444 0.0
H1250 H 0.82996 0.46581 0.24951 0.0
H1251 H 0.74272 0.3811 0.16011 0.0
H1252 H 0.758 0.48039 0.20783 0.0
H1253 H 0.73885 0.4329 0.24833 0.0
C1254 C 0.8069 0.54563 0.48187 0.0
C1255 C 0.79725 0.56355 0.48663 0.0
N1256 N 0.80305 0.57755 0.47306 0.0
N1257 N 0.81833 0.54841 0.46515 0.0
C1258 C 0.81564 0.56799 0.46026 0.0
H1259 H 0.80591 0.53165 0.49028 0.0
Co1260 Co 0.83593 0.53125 0.45137 0.0
C1261 C 0.82135 0.53233 0.4089 0.0
O1262 O 0.82233 0.51249 0.40814 0.0
N1263 N 0.85428 0.51477 0.43718 0.0
C1264 C 0.87559 0.49186 0.42475 0.0
C1265 C 0.86042 0.49534 0.43864 0.0
C1266 C 0.86598 0.52263 0.42242 0.0
N1267 N 0.87909 0.50918 0.41459 0.0
O1268 O 0.85571 0.55209 0.45199 0.0
H1269 H 0.85472 0.48428 0.44917 0.0
H1270 H 0.86468 0.53813 0.41738 0.0
O1271 O 0.82563 0.54152 0.4254 0.0
C1272 C 0.86737 0.55157 0.46729 0.0
O1273 O 0.86546 0.53667 0.4803 0.0
N1274 N 0.81677 0.51058 0.4531 0.0
C1275 C 0.78659 0.48942 0.47323 0.0
C1276 C 0.7819 0.50114 0.45619 0.0
C1277 C 0.79725 0.51194 0.44644 0.0
C1278 C 0.8217 0.49767 0.46839 0.0
C1279 C 0.80689 0.48661 0.47842 0.0
H1280 H 0.7929 0.52336 0.43563 0.0
H1281 H 0.83673 0.49812 0.4748 0.0
H1282 H 0.82306 0.57526 0.4476 0.0
H1283 H 0.78737 0.56627 0.49939 0.0
H1284 H 0.88369 0.4778 0.4227 0.0
H1285 H 0.76631 0.50416 0.45218 0.0
H1286 H 0.81099 0.47811 0.49181 0.0
C1287 C 0.69515 0.5532 0.73231 0.0
C1288 C 0.67705 0.54321 0.7353 0.0
N1289 N 0.66382 0.55004 0.72147 0.0
N1290 N 0.69326 0.56595 0.71642 0.0
C1291 C 0.67399 0.56361 0.71025 0.0
H1292 H 0.70862 0.55136 0.74134 0.0
Co1293 Co 0.71136 0.58394 0.7042 0.0
C1294 C 0.69604 0.58344 0.66249 0.0
O1295 O 0.6931 0.60305 0.66348 0.0
N1296 N 0.72925 0.60196 0.69124 0.0
C1297 C 0.74857 0.61283 0.66593 0.0
C1298 C 0.74399 0.59664 0.6781 0.0
C1299 C 0.72587 0.62176 0.68725 0.0
N1300 N 0.73699 0.62852 0.6716 0.0
O1301 O 0.69051 0.60388 0.70418 0.0
H1302 H 0.74926 0.5814 0.67556 0.0
H1303 H 0.7135 0.63036 0.69356 0.0
O1304 O 0.70299 0.57396 0.67781 0.0
C1305 C 0.68708 0.61162 0.72148 0.0
O1306 O 0.69805 0.60571 0.73697 0.0
N1307 N 0.73168 0.56466 0.70635 0.0
C1308 C 0.75348 0.53216 0.72174 0.0
C1309 C 0.74541 0.53152 0.702 0.0
C1310 C 0.73393 0.54772 0.69483 0.0
C1311 C 0.74228 0.56698 0.7238 0.0
C1312 C 0.75301 0.55081 0.73199 0.0
H1313 H 0.72595 0.54602 0.68069 0.0
H1314 H 0.74031 0.58061 0.73264 0.0
H1315 H 0.66744 0.57181 0.69768 0.0
H1316 H 0.67371 0.53225 0.74699 0.0
H1317 H 0.75787 0.61241 0.65245 0.0
H1318 H 0.74643 0.51809 0.69272 0.0
H1319 H 0.75895 0.5526 0.74712 0.0
C1320 C 0.51144 0.68442 0.55864 0.0
C1321 C 0.50657 0.69482 0.57604 0.0
N1322 N 0.5239 0.70027 0.58522 0.0
N1323 N 0.53172 0.68318 0.55709 0.0
C1324 C 0.53889 0.69303 0.57348 0.0
H1325 H 0.50093 0.67719 0.5484 0.0
Co1326 Co 0.54552 0.66699 0.53886 0.0
C1327 C 0.58671 0.68402 0.53613 0.0
O1328 O 0.58514 0.68321 0.51634 0.0
N1329 N 0.55956 0.64999 0.52087 0.0
C1330 C 0.57187 0.6309 0.49601 0.0
C1331 C 0.5576 0.64523 0.50107 0.0
C1332 C 0.57505 0.6384 0.52733 0.0
N1333 N 0.58284 0.62671 0.51264 0.0
O1334 O 0.54723 0.64682 0.55933 0.0
H1335 H 0.54656 0.65142 0.49079 0.0
H1336 H 0.58026 0.63827 0.54284 0.0
O1337 O 0.57178 0.67864 0.54725 0.0
C1338 C 0.5344 0.63269 0.55658 0.0
O1339 O 0.52349 0.63272 0.53997 0.0
N1340 N 0.54096 0.68637 0.51892 0.0
C1341 C 0.51951 0.71518 0.49708 0.0
C1342 C 0.53653 0.7208 0.50844 0.0
C1343 C 0.54682 0.70617 0.51971 0.0
C1344 C 0.52506 0.68065 0.50713 0.0
C1345 C 0.51432 0.69474 0.49581 0.0
H1346 H 0.55792 0.71118 0.53058 0.0
H1347 H 0.51936 0.66536 0.50813 0.0
H1348 H 0.5547 0.69354 0.57765 0.0
H1349 H 0.49153 0.69736 0.58198 0.0
H1350 H 0.57394 0.6241 0.48126 0.0
H1351 H 0.54036 0.73661 0.51047 0.0
H1352 H 0.50085 0.68999 0.48777 0.0
C1353 C 0.01497 0.813 0.44219 0.0
C1354 C 0.00969 0.80267 0.42486 0.0
N1355 N 0.02681 0.79684 0.41552 0.0
N1356 N 0.03529 0.81385 0.44353 0.0
C1357 C 0.04207 0.80381 0.42709 0.0
H1358 H 0.00472 0.82046 0.45252 0.0
Co1359 Co 0.04961 0.82978 0.46161 0.0
C1360 C 0.09067 0.81246 0.4633 0.0
O1361 O 0.08957 0.81307 0.48314 0.0
N1362 N 0.06421 0.84654 0.47945 0.0
C1363 C 0.07723 0.86516 0.50433 0.0
C1364 C 0.06286 0.85087 0.4994 0.0
C1365 C 0.07948 0.85833 0.47278 0.0
N1366 N 0.08766 0.86979 0.48747 0.0
O1367 O 0.05108 0.85003 0.44126 0.0
H1368 H 0.05219 0.84438 0.50987 0.0
H1369 H 0.08423 0.85877 0.45714 0.0
O1370 O 0.07554 0.81804 0.45258 0.0
C1371 C 0.03851 0.86434 0.44418 0.0
O1372 O 0.02799 0.86459 0.46103 0.0
N1373 N 0.04532 0.81022 0.48147 0.0
C1374 C 0.02369 0.78114 0.50281 0.0
C1375 C 0.04055 0.7756 0.4912 0.0
C1376 C 0.05094 0.79037 0.4802 0.0
C1377 C 0.02966 0.81586 0.4936 0.0
C1378 C 0.01883 0.80162 0.50466 0.0
H1379 H 0.06182 0.78546 0.46909 0.0
H1380 H 0.02414 0.83124 0.49301 0.0
H1381 H 0.05782 0.80295 0.42276 0.0
H1382 H 0.99454 0.8004 0.41909 0.0
H1383 H 0.0797 0.87163 0.51916 0.0
H1384 H 0.04416 0.75981 0.48874 0.0
H1385 H 0.00551 0.80635 0.51294 0.0
C1386 C 0.4405 0.76871 0.69554 0.0
C1387 C 0.45212 0.76638 0.67832 0.0
N1388 N 0.44939 0.78279 0.66656 0.0
N1389 N 0.43059 0.78652 0.69453 0.0
C1390 C 0.43618 0.79454 0.67667 0.0
H1391 H 0.43902 0.75787 0.70768 0.0
Co1392 Co 0.41139 0.79802 0.71153 0.0
C1393 C 0.42201 0.8422 0.71236 0.0
O1394 O 0.41788 0.84351 0.73176 0.0
N1395 N 0.39158 0.80978 0.72791 0.0
C1396 C 0.36977 0.82021 0.75129 0.0
C1397 C 0.38563 0.80719 0.74726 0.0
C1398 C 0.37901 0.82404 0.72054 0.0
N1399 N 0.36567 0.83078 0.73433 0.0
O1400 O 0.39266 0.7975 0.68979 0.0
H1401 H 0.39231 0.79667 0.75782 0.0
H1402 H 0.38021 0.82995 0.70535 0.0
O1403 O 0.42049 0.82516 0.7033 0.0
C1404 C 0.38106 0.78215 0.68969 0.0
O1405 O 0.38288 0.76867 0.70418 0.0
N1406 N 0.42965 0.79627 0.73296 0.0
C1407 C 0.46165 0.77902 0.7543 0.0
C1408 C 0.46296 0.79893 0.74684 0.0
C1409 C 0.4472 0.80686 0.73531 0.0
C1410 C 0.42687 0.77846 0.74289 0.0
C1411 C 0.44272 0.7694 0.75342 0.0
H1412 H 0.45021 0.82038 0.72679 0.0
H1413 H 0.41315 0.76993 0.74033 0.0
H1414 H 0.42982 0.80836 0.67068 0.0
H1415 H 0.46159 0.75354 0.67466 0.0
H1416 H 0.36189 0.82167 0.76555 0.0
H1417 H 0.47678 0.80761 0.74796 0.0
H1418 H 0.44053 0.75411 0.75875 0.0
C1419 C 0.47749 0.19906 0.94753 0.0
C1420 C 0.48144 0.2091 0.92964 0.0
N1421 N 0.46852 0.20211 0.91559 0.0
N1422 N 0.46194 0.18607 0.9447 0.0
C1423 C 0.45683 0.18843 0.92511 0.0
H1424 H 0.48602 0.20067 0.96136 0.0
Co1425 Co 0.45045 0.16644 0.96152 0.0
C1426 C 0.40581 0.17505 0.96114 0.0
O1427 O 0.40386 0.16846 0.97978 0.0
N1428 N 0.43893 0.14626 0.9777 0.0
C1429 C 0.42733 0.12569 0.00169 0.0
C1430 C 0.44019 0.14164 0.99756 0.0
C1431 C 0.42574 0.13266 0.97012 0.0
N1432 N 0.4181 0.12031 0.98433 0.0
O1433 O 0.45171 0.14753 0.93983 0.0
H1434 H 0.44931 0.14957 0.00855 0.0
H1435 H 0.42116 0.13239 0.95443 0.0
O1436 O 0.42327 0.17545 0.95274 0.0
C1437 C 0.46881 0.13906 0.93732 0.0
O1438 O 0.48411 0.14473 0.94868 0.0
N1439 N 0.45134 0.18457 0.98311 0.0
C1440 C 0.46646 0.21628 0.00644 0.0
C1441 C 0.4467 0.21701 0.99846 0.0
C1442 C 0.43976 0.20137 0.98608 0.0
C1443 C 0.46895 0.18213 0.99345 0.0
C1444 C 0.47693 0.19782 0.00502 0.0
H1445 H 0.42608 0.20386 0.97765 0.0
H1446 H 0.4781 0.16886 0.99063 0.0
H1447 H 0.44505 0.17976 0.91774 0.0
H1448 H 0.49346 0.21987 0.92692 0.0
H1449 H 0.42444 0.11915 0.01641 0.0
H1450 H 0.43731 0.23029 2e-05 0.0
H1451 H 0.49211 0.19596 0.01074 0.0
C1452 C 0.55687 0.73636 0.69227 0.0
C1453 C 0.54607 0.74047 0.67488 0.0
N1454 N 0.54209 0.72279 0.66561 0.0
N1455 N 0.55992 0.71623 0.69361 0.0
C1456 C 0.55063 0.70842 0.67719 0.0
H1457 H 0.5634 0.74739 0.70244 0.0
Co1458 Co 0.57817 0.70337 0.71066 0.0
C1459 C 0.56532 0.6603 0.71085 0.0
O1460 O 0.56718 0.65947 0.73063 0.0
N1461 N 0.59733 0.69032 0.72725 0.0
C1462 C 0.61936 0.68017 0.75058 0.0
C1463 C 0.60331 0.69283 0.74664 0.0
C1464 C 0.61 0.67609 0.71989 0.0
N1465 N 0.6236 0.66967 0.73364 0.0
O1466 O 0.59721 0.70388 0.68938 0.0
H1467 H 0.59696 0.70334 0.75735 0.0
H1468 H 0.60914 0.67049 0.70455 0.0
O1469 O 0.56859 0.67694 0.7016 0.0
C1470 C 0.60831 0.71958 0.69004 0.0
O1471 O 0.60616 0.73219 0.70526 0.0
N1472 N 0.5595 0.70537 0.73158 0.0
C1473 C 0.5296 0.72511 0.75349 0.0
C1474 C 0.52497 0.70759 0.74242 0.0
C1475 C 0.5402 0.69799 0.73126 0.0
C1476 C 0.56436 0.72146 0.74347 0.0
C1477 C 0.54978 0.73119 0.75502 0.0
H1478 H 0.53587 0.68645 0.72056 0.0
H1479 H 0.5791 0.72839 0.74208 0.0
H1480 H 0.55169 0.69274 0.67266 0.0
H1481 H 0.54246 0.75527 0.66891 0.0
H1482 H 0.62757 0.67926 0.76471 0.0
H1483 H 0.50941 0.70289 0.74036 0.0
H1484 H 0.55381 0.74494 0.76299 0.0
C1485 C 0.98725 0.30881 0.05099 0.0
C1486 C 0.99073 0.29765 0.06832 0.0
N1487 N 0.97448 0.29955 0.08047 0.0
N1488 N 0.9689 0.31762 0.05234 0.0
C1489 C 0.96165 0.31182 0.07045 0.0
H1490 H 0.99755 0.31064 0.03843 0.0
Co1491 Co 0.95592 0.33552 0.03493 0.0
C1492 C 0.91387 0.32034 0.03293 0.0
O1493 O 0.91443 0.32206 0.01314 0.0
N1494 N 0.94248 0.35409 0.01808 0.0
C1495 C 0.93062 0.37518 0.99465 0.0
C1496 C 0.94423 0.35985 0.99854 0.0
C1497 C 0.92775 0.3661 0.02555 0.0
N1498 N 0.92026 0.37903 0.01175 0.0
O1499 O 0.95559 0.35501 0.05607 0.0
H1500 H 0.95466 0.35364 0.98767 0.0
H1501 H 0.92284 0.36558 0.04114 0.0
O1502 O 0.92945 0.32481 0.0435 0.0
C1503 C 0.97221 0.36472 0.05672 0.0
O1504 O 0.98641 0.36017 0.04359 0.0
N1505 N 0.95889 0.31667 0.01408 0.0
C1506 C 0.97978 0.2869 0.99299 0.0
C1507 C 0.96236 0.28199 0.00402 0.0
C1508 C 0.95231 0.29708 0.01487 0.0
C1509 C 0.97478 0.32183 0.00202 0.0
C1510 C 0.98528 0.30723 0.99109 0.0
H1511 H 0.94114 0.29244 0.0258 0.0
H1512 H 0.98104 0.33691 0.00294 0.0
H1513 H 0.9475 0.31727 0.07657 0.0
H1514 H 0.00419 0.28899 0.07174 0.0
H1515 H 0.92856 0.38285 0.98034 0.0
H1516 H 0.95815 0.26633 0.00643 0.0
H1517 H 0.99898 0.31147 0.98319 0.0
C1518 C 0.44804 0.23288 0.80343 0.0
C1519 C 0.45979 0.23451 0.82067 0.0
N1520 N 0.45596 0.21836 0.83249 0.0
N1521 N 0.43693 0.21578 0.80453 0.0
C1522 C 0.44206 0.20744 0.82237 0.0
H1523 H 0.44703 0.24391 0.79141 0.0
Co1524 Co 0.41598 0.20605 0.78847 0.0
C1525 C 0.42169 0.16083 0.78791 0.0
O1526 O 0.41405 0.15908 0.76965 0.0
N1527 N 0.3944 0.19613 0.77304 0.0
C1528 C 0.3721 0.18647 0.74977 0.0
C1529 C 0.38916 0.19796 0.75338 0.0
C1530 C 0.38012 0.18392 0.78101 0.0
N1531 N 0.3666 0.1775 0.76724 0.0
O1532 O 0.39859 0.20804 0.81111 0.0
H1533 H 0.39737 0.20659 0.74221 0.0
H1534 H 0.38009 0.17927 0.79668 0.0
O1535 O 0.42347 0.17828 0.7961 0.0
C1536 C 0.38931 0.22487 0.81179 0.0
O1537 O 0.39267 0.23823 0.79747 0.0
N1538 N 0.43307 0.2064 0.76614 0.0
C1539 C 0.46465 0.22045 0.7421 0.0
C1540 C 0.4645 0.20038 0.74929 0.0
C1541 C 0.44891 0.19388 0.76198 0.0
C1542 C 0.43142 0.22462 0.75677 0.0
C1543 C 0.44706 0.23205 0.74483 0.0
H1544 H 0.45077 0.17968 0.7697 0.0
H1545 H 0.41894 0.23448 0.76059 0.0
H1546 H 0.4346 0.19425 0.82853 0.0
H1547 H 0.46985 0.24686 0.82444 0.0
H1548 H 0.3648 0.18437 0.73527 0.0
H1549 H 0.47719 0.19036 0.74687 0.0
H1550 H 0.44604 0.24759 0.73985 0.0
C1551 C 0.05843 0.76018 0.30832 0.0
C1552 C 0.04783 0.75612 0.32585 0.0
N1553 N 0.04378 0.77384 0.33501 0.0
N1554 N 0.06127 0.78032 0.30677 0.0
C1555 C 0.05207 0.78819 0.32321 0.0
H1556 H 0.06497 0.74912 0.2982 0.0
Co1557 Co 0.0793 0.79321 0.28953 0.0
C1558 C 0.06655 0.83627 0.28933 0.0
O1559 O 0.06813 0.8369 0.26953 0.0
N1560 N 0.09815 0.80642 0.27271 0.0
C1561 C 0.11829 0.81865 0.24864 0.0
C1562 C 0.10262 0.80556 0.25277 0.0
C1563 C 0.11133 0.82013 0.2802 0.0
N1564 N 0.12371 0.82782 0.266 0.0
O1565 O 0.09868 0.79252 0.31061 0.0
H1566 H 0.09514 0.79625 0.24166 0.0
H1567 H 0.11187 0.82434 0.296 0.0
O1568 O 0.06989 0.8197 0.29872 0.0
C1569 C 0.10995 0.77696 0.30953 0.0
O1570 O 0.1076 0.7645 0.29421 0.0
N1571 N 0.06036 0.79131 0.26885 0.0
C1572 C 0.03054 0.77281 0.24571 0.0
C1573 C 0.02598 0.78991 0.25745 0.0
C1574 C 0.04114 0.79884 0.26924 0.0
C1575 C 0.06516 0.77551 0.25655 0.0
C1576 C 0.05064 0.76641 0.24441 0.0
H1577 H 0.03684 0.81009 0.28025 0.0
H1578 H 0.07995 0.76862 0.25767 0.0
H1579 H 0.05304 0.80391 0.3276 0.0
H1580 H 0.04444 0.74133 0.33199 0.0
H1581 H 0.12498 0.82131 0.23395 0.0
H1582 H 0.01047 0.79483 0.25937 0.0
H1583 H 0.05465 0.75303 0.23585 0.0
C1584 C 0.03738 0.11505 0.0928 0.0
C1585 C 0.02095 0.12625 0.08549 0.0
H1586 H 0.04737 0.09082 0.11147 0.0
C1587 C 0.00135 0.12139 0.09213 0.0
H1588 H 0.05262 0.11821 0.08769 0.0
C1589 C 0.9983 0.10581 0.10611 0.0
C1590 C 0.01477 0.09465 0.11358 0.0
H1591 H 0.98837 0.12977 0.08671 0.0
H1592 H 0.98309 0.10281 0.11129 0.0
C1593 C 0.03432 0.09933 0.10653 0.0
C1594 C 0.15315 0.75212 0.33759 0.0
C1595 C 0.1538 0.76345 0.35554 0.0
H1596 H 0.13891 0.74764 0.30891 0.0
C1597 C 0.13958 0.77905 0.35837 0.0
H1598 H 0.16397 0.74017 0.33484 0.0
C1599 C 0.12541 0.78356 0.3434 0.0
C1600 C 0.125 0.77242 0.32535 0.0
H1601 H 0.13934 0.78781 0.37219 0.0
H1602 H 0.11472 0.79569 0.34602 0.0
C1603 C 0.13888 0.75654 0.32267 0.0
C1604 C 0.50276 0.89723 0.59663 0.0
C1605 C 0.48692 0.90761 0.60616 0.0
H1606 H 0.5112 0.87495 0.57472 0.0
C1607 C 0.46688 0.90351 0.60027 0.0
H1608 H 0.51829 0.90009 0.60096 0.0
C1609 C 0.46276 0.88894 0.58556 0.0
C1610 C 0.4786 0.87837 0.57624 0.0
H1611 H 0.45429 0.911 0.60753 0.0
H1612 H 0.44716 0.88589 0.58157 0.0
C1613 C 0.49866 0.88286 0.58168 0.0
C1614 C 0.34706 0.24984 0.84107 0.0
C1615 C 0.34484 0.23666 0.85756 0.0
H1616 H 0.36285 0.25642 0.81364 0.0
C1617 C 0.35797 0.21999 0.85926 0.0
H1618 H 0.33713 0.26271 0.83924 0.0
C1619 C 0.37253 0.21621 0.84448 0.0
C1620 C 0.37442 0.22915 0.8278 0.0
H1621 H 0.35707 0.20981 0.87204 0.0
H1622 H 0.38226 0.20314 0.84613 0.0
C1623 C 0.36173 0.24615 0.82635 0.0
C1624 C 0.02889 0.88661 0.39258 0.0
C1625 C 0.02024 0.90534 0.39762 0.0
H1626 H 0.04202 0.85907 0.40348 0.0
C1627 C 0.01884 0.9111 0.41793 0.0
H1628 H 0.0304 0.88216 0.37689 0.0
C1629 C 0.02526 0.89789 0.43313 0.0
C1630 C 0.03371 0.87901 0.42814 0.0
H1631 H 0.01249 0.92564 0.42195 0.0
H1632 H 0.02353 0.90239 0.44879 0.0
C1633 C 0.03575 0.8736 0.40772 0.0
C1634 C 0.35068 0.78992 0.64194 0.0
C1635 C 0.33605 0.7745 0.6434 0.0
H1636 H 0.37625 0.80447 0.65538 0.0
C1637 C 0.33658 0.76144 0.66012 0.0
H1638 H 0.35113 0.79995 0.62903 0.0
C1639 C 0.35125 0.76389 0.67515 0.0
C1640 C 0.36565 0.77949 0.67376 0.0
H1641 H 0.32549 0.74951 0.66174 0.0
H1642 H 0.35118 0.75365 0.68793 0.0
C1643 C 0.36523 0.79245 0.65699 0.0
C1644 C 0.49314 0.10026 0.90294 0.0
C1645 C 0.47618 0.09002 0.89521 0.0
H1646 H 0.50408 0.12389 0.92222 0.0
C1647 C 0.4568 0.096 0.90173 0.0
H1648 H 0.50825 0.09627 0.89816 0.0
C1649 C 0.4544 0.11212 0.91514 0.0
C1650 C 0.47133 0.12242 0.92267 0.0
H1651 H 0.44337 0.08823 0.89657 0.0
H1652 H 0.43928 0.11631 0.91982 0.0
C1653 C 0.49073 0.11623 0.91661 0.0
C1654 C 0.13516 0.20779 0.16217 0.0
C1655 C 0.13421 0.22128 0.17849 0.0
H1656 H 0.14931 0.20011 0.13431 0.0
C1657 C 0.14787 0.23757 0.17925 0.0
H1658 H 0.12469 0.19523 0.16105 0.0
C1659 C 0.1623 0.24024 0.16405 0.0
C1660 C 0.1633 0.22675 0.14769 0.0
H1661 H 0.14754 0.24823 0.19169 0.0
H1662 H 0.17279 0.25274 0.16526 0.0
C1663 C 0.14944 0.21056 0.14688 0.0
C1664 C 0.09601 0.03544 0.10558 0.0
C1665 C 0.10144 0.01548 0.10042 0.0
H1666 H 0.07827 0.05475 0.12453 0.0
C1667 C 0.0924 0.99941 0.11099 0.0
H1668 H 0.1022 0.04826 0.09755 0.0
C1669 C 0.07836 0.00321 0.12631 0.0
C1670 C 0.07317 0.02316 0.13152 0.0
H1671 H 0.09632 0.98389 0.10762 0.0
H1672 H 0.07169 0.99049 0.1342 0.0
C1673 C 0.08216 0.03923 0.12103 0.0
C1674 C 0.23715 0.83312 0.33498 0.0
C1675 C 0.23256 0.85288 0.34098 0.0
H1676 H 0.23621 0.80168 0.34278 0.0
C1677 C 0.22228 0.8562 0.35924 0.0
H1678 H 0.24486 0.8304 0.32079 0.0
C1679 C 0.21686 0.83993 0.37155 0.0
C1680 C 0.22199 0.82011 0.36592 0.0
H1681 H 0.21841 0.87143 0.36388 0.0
H1682 H 0.20916 0.84291 0.3857 0.0
C1683 C 0.23213 0.81683 0.34749 0.0
C1684 C 0.4076 -0.00032 0.60246 0.0
C1685 C 0.39785 0.98376 0.59231 0.0
H1686 H 0.42918 0.00832 0.62492 0.0
C1687 C 0.40296 0.9637 0.59747 0.0
H1688 H 0.40395 0.01527 0.59916 0.0
C1689 C 0.41721 0.9597 0.61254 0.0
C1690 C 0.42689 0.97566 0.62259 0.0
H1691 H 0.39616 0.95098 0.58977 0.0
H1692 H 0.42084 0.94413 0.61613 0.0
C1693 C 0.42201 0.99567 0.61735 0.0
C1694 C 0.27067 0.14457 0.86123 0.0
C1695 C 0.26025 0.14849 0.84315 0.0
H1696 H 0.28502 0.15708 0.88744 0.0
C1697 C 0.25649 0.16848 0.83736 0.0
H1698 H 0.27399 0.12916 0.86567 0.0
C1699 C 0.26253 0.18444 0.84986 0.0
C1700 C 0.27293 0.18057 0.86802 0.0
H1701 H 0.24875 0.17166 0.82328 0.0
H1702 H 0.25914 0.1998 0.84529 0.0
C1703 C 0.27714 0.1605 0.87349 0.0
C1704 C 0.10176 0.95599 0.4062 0.0
C1705 C 0.10751 0.97556 0.41249 0.0
H1706 H 0.0836 0.93807 0.38618 0.0
C1707 C 0.09849 0.99232 0.40309 0.0
H1708 H 0.108 0.94267 0.41333 0.0
C1709 C 0.0843 0.98962 0.38768 0.0
C1710 C 0.07888 0.97009 0.38121 0.0
H1711 H 0.10267 0.00757 0.4073 0.0
H1712 H 0.07774 0.00289 0.38068 0.0
C1713 C 0.08771 0.9533 0.39065 0.0
C1714 C 0.25483 0.83277 0.63743 0.0
C1715 C 0.27113 0.83427 0.62384 0.0
H1716 H 0.23961 0.84556 0.66302 0.0
C1717 C 0.28432 0.8508 0.62536 0.0
H1718 H 0.24438 0.82018 0.63663 0.0
C1719 C 0.28144 0.86539 0.64031 0.0
C1720 C 0.26542 0.8637 0.65425 0.0
H1721 H 0.29687 0.8525 0.61498 0.0
H1722 H 0.29174 0.87809 0.64078 0.0
C1723 C 0.25202 0.84733 0.6525 0.0
C1724 C 0.40825 0.00467 0.88089 0.0
C1725 C 0.41481 0.02412 0.87534 0.0
H1726 H 0.38918 0.98699 0.90014 0.0
C1727 C 0.40751 0.04091 0.88601 0.0
H1728 H 0.41368 0.99142 0.87294 0.0
C1729 C 0.39382 0.03834 0.90184 0.0
C1730 C 0.38682 0.01893 0.90719 0.0
H1731 H 0.41258 0.05605 0.88232 0.0
H1732 H 0.38885 0.05166 0.90992 0.0
C1733 C 0.39432 0.00211 0.8966 0.0
C1734 C 0.21597 0.14714 0.15411 0.0
C1735 C 0.2351 0.13857 0.15792 0.0
H1736 H 0.19819 0.16674 0.13558 0.0
C1737 C 0.25151 0.14439 0.14574 0.0
H1738 H 0.20306 0.14358 0.16348 0.0
C1739 C 0.24871 0.15811 0.12987 0.0
C1740 C 0.22943 0.16605 0.12577 0.0
H1741 H 0.26638 0.13802 0.14813 0.0
H1742 H 0.26158 0.16223 0.12062 0.0
C1743 C 0.21313 0.16052 0.13811 0.0
C1744 C 0.09966 0.07025 0.01568 0.0
C1745 C 0.11412 0.07151 0.03124 0.0
H1746 H 0.0746 0.08433 0.00076 0.0
C1747 C 0.11448 0.08872 0.04362 0.0
H1748 H 0.09902 0.05714 0.00586 0.0
C1749 C 0.10067 0.10435 0.04052 0.0
C1750 C 0.08602 0.10306 0.02509 0.0
H1751 H 0.12557 0.09025 0.05558 0.0
H1752 H 0.10172 0.11757 0.05009 0.0
C1753 C 0.08574 0.08586 0.01265 0.0
C1754 C 0.60882 0.41949 0.99543 0.0
C1755 C 0.61526 0.42345 0.97556 0.0
H1756 H 0.58989 0.40144 0.01464 0.0
C1757 C 0.60635 0.41292 0.95946 0.0
H1758 H 0.61544 0.42743 0.00814 0.0
C1759 C 0.59149 0.39842 0.96319 0.0
C1760 C 0.58552 0.39392 0.98312 0.0
H1761 H 0.61092 0.41581 0.94399 0.0
H1762 H 0.58527 0.3902 0.95048 0.0
C1763 C 0.59421 0.4047 0.99918 0.0
C1764 C 0.85003 0.37027 0.21079 0.0
C1765 C 0.83384 0.37201 0.22433 0.0
H1766 H 0.87754 0.35525 0.20347 0.0
C1767 C 0.83299 0.35906 0.24119 0.0
H1768 H 0.8512 0.38018 0.1978 0.0
C1769 C 0.84792 0.34445 0.24431 0.0
C1770 C 0.86409 0.34256 0.23071 0.0
H1771 H 0.82064 0.36001 0.2519 0.0
H1772 H 0.84659 0.33445 0.25719 0.0
C1773 C 0.86507 0.35581 0.21402 0.0
C1774 C 0.89649 0.56613 0.48664 0.0
C1775 C 0.88216 0.56788 0.47101 0.0
H1776 H 0.92141 0.57981 0.50223 0.0
C1777 C 0.88174 0.58558 0.45935 0.0
H1778 H 0.89715 0.55266 0.49594 0.0
C1779 C 0.89543 0.60116 0.46314 0.0
C1780 C 0.91002 0.59935 0.47855 0.0
H1781 H 0.87068 0.58752 0.44741 0.0
H1782 H 0.8944 0.61474 0.45406 0.0
C1783 C 0.91031 0.58171 0.49036 0.0
C1784 C 0.15249 0.14897 0.2179 0.0
C1785 C 0.14804 0.15417 0.23807 0.0
H1786 H 0.16926 0.1298 0.1979 0.0
C1787 C 0.15801 0.14401 0.25378 0.0
H1788 H 0.14483 0.15629 0.20544 0.0
C1789 C 0.17207 0.12886 0.24943 0.0
C1790 C 0.17614 0.12337 0.22928 0.0
H1791 H 0.15478 0.14771 0.2694 0.0
H1792 H 0.17945 0.1212 0.26188 0.0
C1793 C 0.16631 0.13363 0.21356 0.0
C1794 C 0.39491 0.89682 0.53232 0.0
C1795 C 0.40925 0.89845 0.51666 0.0
H1796 H 0.37004 0.91042 0.54786 0.0
C1797 C 0.40881 0.9155 0.50405 0.0
H1798 H 0.39443 0.88363 0.54199 0.0
C1799 C 0.39461 0.9308 0.50731 0.0
C1800 C 0.3806 0.92933 0.52326 0.0
H1801 H 0.41969 0.91719 0.49195 0.0
H1802 H 0.39477 0.94389 0.49747 0.0
C1803 C 0.38082 0.91213 0.53565 0.0
C1804 C 0.82993 0.63656 0.28985 0.0
C1805 C 0.82226 0.62598 0.27317 0.0
H1806 H 0.84823 0.6609 0.30025 0.0
C1807 C 0.82761 0.63221 0.25356 0.0
H1808 H 0.82576 0.63233 0.30512 0.0
C1809 C 0.84089 0.64841 0.25071 0.0
C1810 C 0.84888 0.65884 0.26741 0.0
H1811 H 0.82184 0.62432 0.24041 0.0
H1812 H 0.84523 0.65238 0.23545 0.0
C1813 C 0.8429 0.65293 0.287 0.0
C1814 C 0.65306 0.34934 0.75279 0.0
C1815 C 0.6434 0.33969 0.76905 0.0
H1816 H 0.67457 0.37153 0.74336 0.0
C1817 C 0.64862 0.34547 0.78892 0.0
H1818 H 0.64932 0.34553 0.73732 0.0
C1819 C 0.66289 0.36065 0.79239 0.0
C1820 C 0.67248 0.37022 0.77608 0.0
H1821 H 0.64188 0.33817 0.8019 0.0
H1822 H 0.6666 0.36472 0.80783 0.0
C1823 C 0.66748 0.36436 0.75626 0.0
C1824 C 0.51515 0.58551 0.58241 0.0
C1825 C 0.5172 0.5908 0.60278 0.0
H1826 H 0.51903 0.59485 0.55162 0.0
C1827 C 0.5261 0.60938 0.60798 0.0
H1828 H 0.50858 0.57109 0.57825 0.0
C1829 C 0.53261 0.62269 0.59294 0.0
C1830 C 0.52995 0.61774 0.57247 0.0
H1831 H 0.52803 0.61348 0.62372 0.0
H1832 H 0.53909 0.63709 0.59731 0.0
C1833 C 0.52123 0.59901 0.56732 0.0
C1834 C 0.62549 0.28372 0.84348 0.0
C1835 C 0.62597 0.27143 0.8262 0.0
H1836 H 0.63822 0.29015 0.87239 0.0
C1837 C 0.64017 0.25564 0.82511 0.0
H1838 H 0.6145 0.29578 0.84491 0.0
C1839 C 0.65398 0.25252 0.84081 0.0
C1840 C 0.65378 0.26509 0.85791 0.0
H1841 H 0.64085 0.24586 0.81198 0.0
H1842 H 0.66511 0.24063 0.83931 0.0
C1843 C 0.63916 0.28051 0.8592 0.0
C1844 C 0.99592 0.38673 0.07616 0.0
C1845 C 0.97602 0.38035 0.07217 0.0
H1846 H 0.01528 0.40538 0.09434 0.0
C1847 C 0.96003 0.38895 0.08313 0.0
H1848 H 0.00858 0.38035 0.06796 0.0
C1849 C 0.96391 0.4035 0.09796 0.0
C1850 C 0.98387 0.40949 0.1023 0.0
H1851 H 0.94455 0.38439 0.08031 0.0
H1852 H 0.95133 0.40953 0.1065 0.0
C1853 C -0.00019 0.40103 0.09121 0.0
C1854 C 0.84644 0.74444 0.34791 0.0
C1855 C 0.83636 0.72724 0.35528 0.0
H1856 H 0.86985 0.75601 0.32879 0.0
C1857 C 0.84243 0.70805 0.34828 0.0
H1858 H 0.84239 0.75942 0.35307 0.0
C1859 C 0.85847 0.70607 0.33473 0.0
C1860 C 0.86861 0.72326 0.32757 0.0
H1861 H 0.83478 0.69445 0.35318 0.0
H1862 H 0.86274 0.69109 0.32964 0.0
C1863 C 0.86232 0.74247 0.33412 0.0
C1864 C 0.49732 0.39295 0.89997 0.0
C1865 C 0.5134 0.40256 0.89007 0.0
H1866 H 0.48833 0.37164 0.92253 0.0
C1867 C 0.53336 0.39793 0.89586 0.0
H1868 H 0.48185 0.39625 0.89576 0.0
C1869 C 0.53715 0.38365 0.91097 0.0
C1870 C 0.52103 0.37393 0.92073 0.0
H1871 H 0.5461 0.40483 0.88828 0.0
H1872 H 0.55266 0.38019 0.91494 0.0
C1873 C 0.50109 0.37889 0.91526 0.0
C1874 C 0.88125 0.28463 0.1551 0.0
C1875 C 0.88202 0.27259 0.17254 0.0
H1876 H 0.8671 0.29006 0.12663 0.0
C1877 C 0.86862 0.25619 0.17438 0.0
H1878 H 0.8916 0.29718 0.15309 0.0
C1879 C 0.85436 0.25222 0.1593 0.0
C1880 C 0.85328 0.26452 0.14201 0.0
H1881 H 0.86889 0.24661 0.18766 0.0
H1882 H 0.84385 0.23986 0.16145 0.0
C1883 C 0.86713 0.28057 0.13996 0.0
C1884 C 0.96303 0.61848 0.40367 0.0
C1885 C 0.9758 0.61902 0.42059 0.0
H1886 H 0.95628 0.60462 0.37536 0.0
C1887 C 0.99197 0.60527 0.4218 0.0
H1888 H 0.95061 0.62905 0.40218 0.0
C1889 C 0.99511 0.59102 0.40649 0.0
C1890 C 0.98217 0.5903 0.38967 0.0
H1891 H 0.00209 0.60533 0.43468 0.0
H1892 H 0.00743 0.58037 0.40801 0.0
C1893 C 0.96623 0.60435 0.38834 0.0
C1894 C 0.63656 0.74021 0.67588 0.0
C1895 C 0.62274 0.7242 0.67372 0.0
H1896 H 0.66112 0.7567 0.66283 0.0
C1897 C 0.62257 0.71303 0.6557 0.0
H1898 H 0.637 0.74915 0.68961 0.0
C1899 C 0.63616 0.71759 0.64024 0.0
C1900 C 0.65037 0.73328 0.64257 0.0
H1901 H 0.61188 0.70081 0.65347 0.0
H1902 H 0.63554 0.70878 0.62646 0.0
C1903 C 0.65026 0.74469 0.66047 0.0
C1904 C 0.58375 0.50733 0.61315 0.0
C1905 C 0.57767 0.52672 0.61941 0.0
H1906 H 0.60294 0.48982 0.59398 0.0
C1907 C 0.58629 0.54371 0.61013 0.0
H1908 H 0.5774 0.49391 0.62006 0.0
C1909 C 0.60074 0.54136 0.59488 0.0
C1910 C 0.60708 0.52194 0.58875 0.0
H1911 H 0.58172 0.55884 0.61446 0.0
H1912 H 0.60676 0.55482 0.58785 0.0
C1913 C 0.59833 0.50497 0.59806 0.0
C1914 C 0.73145 0.31954 0.8513 0.0
C1915 C 0.72083 0.32381 0.86924 0.0
H1916 H 0.74499 0.33167 0.8243 0.0
C1917 C 0.71576 0.34391 0.87377 0.0
H1918 H 0.73551 0.30414 0.84745 0.0
C1919 C 0.72164 0.3595 0.86082 0.0
C1920 C 0.73233 0.3552 0.84301 0.0
H1921 H 0.70774 0.34765 0.88756 0.0
H1922 H 0.71781 0.37496 0.86462 0.0
C1923 C 0.73695 0.33515 0.83813 0.0
C1924 C 0.90798 0.49643 0.09529 0.0
C1925 C 0.89141 0.48319 0.09438 0.0
H1926 H 0.93637 0.50334 0.1091 0.0
C1927 C 0.89083 0.46652 0.10764 0.0
H1928 H 0.90902 0.50927 0.0852 0.0
C1929 C 0.90666 0.46292 0.12112 0.0
C1930 C 0.9233 0.47605 0.12181 0.0
H1931 H 0.8781 0.45625 0.10774 0.0
H1932 H 0.90579 0.44996 0.13111 0.0
C1933 C 0.92373 0.49293 0.1089 0.0
C1934 C 0.74921 0.65102 0.35038 0.0
C1935 C 0.76402 0.63645 0.34614 0.0
H1936 H 0.74099 0.67684 0.36809 0.0
C1937 C 0.78198 0.63639 0.35759 0.0
H1938 H 0.73528 0.65145 0.3418 0.0
C1939 C 0.78535 0.65092 0.37248 0.0
C1940 C 0.77077 0.66579 0.37641 0.0
H1941 H 0.79349 0.62502 0.35515 0.0
H1942 H 0.79942 0.65052 0.38087 0.0
C1943 C 0.75256 0.66558 0.36537 0.0
C1944 C 0.6037 0.46275 0.89083 0.0
C1945 C 0.6017 0.47926 0.90418 0.0
H1946 H 0.59095 0.4459 0.8663 0.0
C1947 C 0.58486 0.49201 0.9022 0.0
H1948 H 0.61674 0.45291 0.89147 0.0
C1949 C 0.57018 0.4881 0.88748 0.0
C1950 C 0.57201 0.47131 0.87453 0.0
H1951 H 0.58281 0.50475 0.91227 0.0
H1952 H 0.55726 0.4981 0.88645 0.0
C1953 C 0.58896 0.45874 0.87628 0.0
C1954 C 0.75795 0.34002 0.15195 0.0
C1955 C 0.77373 0.35166 0.16 0.0
H1956 H 0.74938 0.31661 0.13137 0.0
C1957 C 0.79364 0.3481 0.15333 0.0
H1958 H 0.74252 0.3425 0.15682 0.0
C1959 C 0.79759 0.33351 0.13857 0.0
C1960 C 0.78175 0.32203 0.13037 0.0
H1961 H 0.8061 0.35704 0.15901 0.0
H1962 H 0.81301 0.33131 0.13349 0.0
C1963 C 0.76193 0.32523 0.1374 0.0
C1964 C 0.90244 0.49699 0.38794 0.0
C1965 C 0.89383 0.51301 0.39895 0.0
H1966 H 0.923 0.48815 0.36457 0.0
C1967 C 0.89978 0.53295 0.39431 0.0
H1968 H 0.89811 0.48149 0.39087 0.0
C1969 C 0.91376 0.53678 0.379 0.0
C1970 C 0.92239 0.52076 0.36814 0.0
H1971 H 0.89392 0.54572 0.40266 0.0
H1972 H 0.91808 0.55228 0.37593 0.0
C1973 C 0.91663 0.50083 0.37276 0.0
C1974 C 0.72682 0.68077 0.6527 0.0
C1975 C 0.71834 0.67674 0.6336 0.0
H1976 H 0.73927 0.66821 0.68002 0.0
C1977 C 0.7159 0.6566 0.62735 0.0
H1978 H 0.72884 0.69619 0.65785 0.0
C1979 C 0.7224 0.6408 0.63976 0.0
C1980 C 0.73109 0.64488 0.65871 0.0
H1981 H 0.70959 0.65308 0.61264 0.0
H1982 H 0.72058 0.62534 0.63466 0.0
C1983 C 0.73288 0.66491 0.6653 0.0
C1984 C 0.62685 0.59858 0.53457 0.0
C1985 C 0.62727 0.58125 0.52237 0.0
H1986 H 0.61289 0.62703 0.54053 0.0
C1987 C 0.6136 0.57959 0.50617 0.0
H1988 H 0.63741 0.60041 0.54696 0.0
C1989 C 0.59935 0.59475 0.50261 0.0
C1990 C 0.59857 0.61189 0.51512 0.0
H1991 H 0.6136 0.56639 0.49647 0.0
H1992 H 0.58858 0.59272 0.49046 0.0
C1993 C 0.61273 0.6138 0.5309 0.0
C1994 C 0.13055 0.89915 0.46475 0.0
C1995 C 0.13157 0.9159 0.47772 0.0
H1996 H 0.11636 0.87096 0.45813 0.0
C1997 C 0.11869 0.91673 0.4946 0.0
H1998 H 0.1405 0.89796 0.45179 0.0
C1999 C 0.10462 0.90139 0.49811 0.0
C2000 C 0.10323 0.88482 0.48488 0.0
H2001 H 0.11915 0.92947 0.5049 0.0
H2002 H 0.09446 0.90284 0.51085 0.0
C2003 C 0.11663 0.88371 0.46837 0.0
C2004 C 0.34358 0.85798 0.74764 0.0
C2005 C 0.35113 0.84676 0.73125 0.0
H2006 H 0.32496 0.88266 0.75727 0.0
C2007 C 0.34495 0.85202 0.71153 0.0
H2008 H 0.34811 0.85451 0.76297 0.0
C2009 C 0.33208 0.86839 0.70824 0.0
C2010 C 0.32475 0.87969 0.72459 0.0
H2011 H 0.34994 0.84347 0.69852 0.0
H2012 H 0.32766 0.87201 0.69288 0.0
C2013 C 0.33044 0.87422 0.74434 0.0
C2014 C 0.3732 0.09378 0.962 0.0
C2015 C 0.37152 0.07683 0.97461 0.0
H2016 H 0.38882 0.12119 0.95561 0.0
C2017 C 0.38514 0.07457 0.99081 0.0
H2018 H 0.36279 0.09606 0.94955 0.0
C2019 C 0.40033 0.08889 0.99415 0.0
C2020 C 0.40217 0.10574 0.98139 0.0
H2021 H 0.38421 0.06163 0.0008 0.0
H2022 H 0.41084 0.08659 0.00649 0.0
C2023 C 0.38826 0.10812 0.96542 0.0
C2024 C 0.66146 0.63591 0.70786 0.0
C2025 C 0.67077 0.62655 0.72445 0.0
H2026 H 0.63965 0.65733 0.6977 0.0
C2027 C 0.66437 0.63155 0.74408 0.0
H2028 H 0.66619 0.63246 0.69256 0.0
C2029 C 0.6489 0.64558 0.74709 0.0
C2030 C 0.63956 0.6551 0.73053 0.0
H2031 H 0.67117 0.62447 0.7572 0.0
H2032 H 0.64414 0.64876 0.76241 0.0
C2033 C 0.64612 0.65012 0.71086 0.0
C2034 C 0.90456 0.41199 0.00353 0.0
C2035 C 0.90517 0.39435 0.01535 0.0
H2036 H 0.89065 0.44076 0.99851 0.0
C2037 C 0.89128 0.39226 0.03137 0.0
H2038 H 0.91513 0.4142 0.99124 0.0
C2039 C 0.87747 0.4076 0.03574 0.0
C2040 C 0.87707 0.4253 0.02407 0.0
H2041 H 0.89097 0.37871 0.04052 0.0
H2042 H 0.86699 0.40549 0.04816 0.0
C2043 C 0.89063 0.42728 0.00782 0.0
C2044 C 0.33384 0.16216 0.75762 0.0
C2045 C 0.35061 0.16303 0.7706 0.0
H2046 H 0.30571 0.14779 0.75065 0.0
C2047 C 0.35157 0.14947 0.78704 0.0
H2048 H 0.3325 0.17245 0.74497 0.0
C2049 C 0.33608 0.13556 0.79049 0.0
C2050 C 0.31941 0.13468 0.77745 0.0
H2051 H 0.36444 0.14926 0.79712 0.0
H2052 H 0.33737 0.12525 0.80316 0.0
C2053 C 0.31843 0.14809 0.76097 0.0
C2054 C 0.15516 0.86888 0.28953 0.0
C2055 C 0.17162 0.86975 0.27619 0.0
H2056 H 0.12669 0.85539 0.2964 0.0
C2057 C 0.17192 0.8569 0.25926 0.0
H2058 H 0.1544 0.87881 0.30255 0.0
C2059 C 0.15616 0.84329 0.25582 0.0
C2060 C 0.13968 0.84232 0.26917 0.0
H2061 H 0.18443 0.85721 0.2487 0.0
H2062 H 0.15708 0.83333 0.24288 0.0
C2063 C 0.13931 0.85539 0.286 0.0
C2064 C 0.13201 0.03213 0.23617 0.0
C2065 C 0.14509 0.03599 0.21982 0.0
H2066 H 0.10128 0.02683 0.2455 0.0
C2067 C 0.13738 0.03503 0.20004 0.0
H2068 H 0.13751 0.03271 0.25157 0.0
C2069 C 0.11686 0.03198 0.19668 0.0
C2070 C 0.10355 0.02951 0.21298 0.0
H2071 H 0.14715 0.03726 0.1871 0.0
H2072 H 0.11126 0.03202 0.18128 0.0
C2073 C 0.11133 0.02882 0.23274 0.0
C2074 C 0.22127 0.86489 0.43559 0.0
C2075 C 0.22629 0.85105 0.45082 0.0
H2076 H 0.21397 0.89535 0.42809 0.0
C2077 C 0.22945 0.85809 0.47062 0.0
H2078 H 0.21928 0.85987 0.42012 0.0
C2079 C 0.22608 0.8785 0.47535 0.0
C2080 C 0.21969 0.89209 0.46025 0.0
H2081 H 0.23345 0.84762 0.48257 0.0
H2082 H 0.22744 0.88337 0.49092 0.0
C2083 C 0.21819 0.88517 0.4402 0.0
C2084 C 0.36964 0.94654 0.71354 0.0
C2085 C 0.35633 0.9628 0.7163 0.0
H2086 H 0.39976 0.93701 0.70737 0.0
C2087 C 0.36402 0.98261 0.71634 0.0
H2088 H 0.36413 0.93112 0.71397 0.0
C2089 C 0.38455 0.98608 0.71223 0.0
C2090 C 0.3976 0.96975 0.7082 0.0
H2091 H 0.35398 0.99535 0.71852 0.0
H2092 H 0.38995 0.0015 0.71125 0.0
C2093 C 0.39002 0.94995 0.70969 0.0
C2094 C 0.28151 0.11429 0.9419 0.0
C2095 C 0.28108 0.10742 0.96201 0.0
H2096 H 0.27885 0.13945 0.92183 0.0
C2097 C 0.27518 0.12095 0.97737 0.0
H2098 H 0.28531 0.10415 0.92963 0.0
C2099 C 0.27116 0.14128 0.97276 0.0
C2100 C 0.27315 0.14829 0.9528 0.0
H2101 H 0.27465 0.1161 0.99299 0.0
H2102 H 0.26758 0.15172 0.98486 0.0
C2103 C 0.27773 0.13447 0.93739 0.0
C2104 C 0.11716 0.97777 0.28472 0.0
C2105 C 0.10345 0.96257 0.29064 0.0
H2106 H 0.14756 0.98457 0.27521 0.0
C2107 C 0.10939 0.94223 0.28898 0.0
H2108 H 0.11302 0.99357 0.28573 0.0
C2109 C 0.12899 0.93721 0.28325 0.0
C2110 C 0.14308 0.95235 0.27868 0.0
H2111 H 0.09905 0.9301 0.2927 0.0
H2112 H 0.13338 0.92143 0.28295 0.0
C2113 C 0.13687 0.97267 0.27869 0.0
C2114 C 0.27076 0.8744 0.52673 0.0
C2115 C 0.28598 0.86067 0.53249 0.0
H2116 H 0.26361 0.90529 0.51925 0.0
C2117 C 0.30619 0.86723 0.53258 0.0
H2118 H 0.25506 0.86979 0.52644 0.0
C2119 C 0.31094 0.88735 0.52874 0.0
C2120 C 0.29566 0.9014 0.52443 0.0
H2121 H 0.31834 0.85692 0.53628 0.0
H2122 H 0.32658 0.89211 0.52969 0.0
C2123 C 0.2756 0.89467 0.52265 0.0
C2124 C 0.361 0.04184 0.76542 0.0
C2125 C 0.3473 0.04607 0.78116 0.0
H2126 H 0.3916 0.03393 0.75761 0.0
C2127 C 0.35358 0.04324 0.80126 0.0
H2128 H 0.35657 0.04382 0.74978 0.0
C2129 C 0.37343 0.03787 0.80564 0.0
C2130 C 0.38747 0.03491 0.79006 0.0
H2131 H 0.34326 0.04566 0.81373 0.0
H2132 H 0.37797 0.03645 0.82132 0.0
C2133 C 0.38098 0.03622 0.76986 0.0
C2134 C 0.21437 0.12465 0.05767 0.0
C2135 C 0.21674 0.13846 0.04177 0.0
H2136 H 0.207 0.09455 0.06646 0.0
C2137 C 0.215 0.13162 0.02173 0.0
H2138 H 0.21614 0.12949 0.07322 0.0
C2139 C 0.20945 0.11151 0.01778 0.0
C2140 C 0.20573 0.09804 0.03386 0.0
H2141 H 0.21684 0.14206 0.00925 0.0
H2142 H 0.20705 0.10682 0.00228 0.0
C2143 C 0.20907 0.10468 0.05377 0.0
C2144 C 0.04123 0.23527 0.13889 0.0
C2145 C 0.04461 0.21936 0.15262 0.0
H2146 H 0.03421 0.2434 0.10813 0.0
C2147 C 0.041 0.1994 0.1463 0.0
H2148 H 0.04382 0.25081 0.14335 0.0
C2149 C 0.03582 0.19525 0.12635 0.0
C2150 C 0.03382 0.21095 0.11226 0.0
H2151 H 0.0428 0.18685 0.15665 0.0
H2152 H 0.03387 0.17965 0.12174 0.0
C2153 C 0.03578 0.23108 0.11879 0.0
C2154 C 0.51628 0.28058 0.88098 0.0
C2155 C 0.53166 0.28618 0.89463 0.0
H2156 H 0.509 0.27215 0.85035 0.0
C2157 C 0.55188 0.2852 0.8882 0.0
H2158 H 0.50056 0.28109 0.88548 0.0
C2159 C 0.55658 0.28036 0.86827 0.0
C2160 C 0.54123 0.27608 0.85429 0.0
H2161 H 0.56415 0.2887 0.89845 0.0
H2162 H 0.57228 0.28043 0.86361 0.0
C2163 C 0.52106 0.27548 0.86092 0.0
C2164 C 0.95182 0.28923 0.10811 0.0
C2165 C 0.97153 0.29176 0.10062 0.0
H2166 H 0.93317 0.28367 0.13389 0.0
C2167 C 0.988 0.28811 0.11363 0.0
H2168 H 0.93881 0.29124 0.09838 0.0
C2169 C 0.98469 0.28343 0.13406 0.0
C2170 C 0.96492 0.28251 0.1417 0.0
H2171 H 0.00337 0.28988 0.10831 0.0
H2172 H 0.99751 0.28165 0.1441 0.0
C2173 C 0.94856 0.2848 0.12841 0.0
C2174 C 0.96409 0.72882 0.36506 0.0
C2175 C 0.9593 0.71316 0.35143 0.0
H2176 H 0.97143 0.73663 0.3958 0.0
C2177 C 0.9606 0.69302 0.35808 0.0
H2178 H 0.96324 0.74448 0.36041 0.0
C2179 C 0.96498 0.68865 0.37818 0.0
C2180 C 0.96846 0.70428 0.39209 0.0
H2181 H 0.95763 0.68059 0.34785 0.0
H2182 H 0.9652 0.673 0.38301 0.0
C2183 C 0.96873 0.72438 0.38527 0.0
C2184 C 0.46329 0.81102 0.6197 0.0
C2185 C 0.46656 0.79524 0.60591 0.0
H2186 H 0.45603 0.81941 0.64995 0.0
C2187 C 0.46645 0.77518 0.61287 0.0
H2188 H 0.46381 0.82663 0.61477 0.0
C2189 C 0.46171 0.77096 0.63312 0.0
C2190 C 0.45718 0.78679 0.64661 0.0
H2191 H 0.46898 0.7628 0.60246 0.0
H2192 H 0.46061 0.75535 0.63791 0.0
C2193 C 0.45879 0.80686 0.63981 0.0
C2194 C 0.60907 0.55526 0.70959 0.0
C2195 C 0.60288 0.53496 0.70833 0.0
H2196 H 0.63341 0.57588 0.71484 0.0
C2197 C 0.61661 0.51968 0.71394 0.0
H2198 H 0.59874 0.56746 0.7061 0.0
C2199 C 0.63649 0.52464 0.71938 0.0
C2200 C 0.64289 0.54488 0.71908 0.0
H2201 H 0.61232 0.5039 0.71319 0.0
H2202 H 0.64714 0.51266 0.72273 0.0
C2203 C 0.62887 0.56014 0.71472 0.0
C2204 C 0.69828 0.37859 0.98071 0.0
C2205 C 0.70631 0.39506 0.97001 0.0
H2206 H 0.69653 0.34621 0.98306 0.0
C2207 C 0.72057 0.3916 0.95471 0.0
H2208 H 0.68701 0.38099 0.99234 0.0
C2209 C 0.72636 0.37188 0.94979 0.0
C2210 C 0.7175 0.35536 0.95974 0.0
H2211 H 0.72674 0.40417 0.94621 0.0
H2212 H 0.73685 0.36946 0.93746 0.0
C2213 C 0.70362 0.35883 0.97539 0.0
C2214 C 0.87093 0.46811 0.23037 0.0
C2215 C 0.85697 0.46282 0.21517 0.0
H2216 H 0.90168 0.47653 0.2371 0.0
C2217 C 0.86279 0.46469 0.19481 0.0
H2218 H 0.86688 0.4669 0.24618 0.0
C2219 C 0.88253 0.46988 0.18975 0.0
C2220 C 0.89687 0.47369 0.20487 0.0
H2221 H 0.85226 0.46143 0.18271 0.0
H2222 H 0.88684 0.47026 0.17395 0.0
C2223 C 0.89079 0.4736 0.22522 0.0
C2224 C 0.77823 0.60545 0.47516 0.0
C2225 C 0.79818 0.5987 0.47253 0.0
H2226 H 0.75762 0.63039 0.47244 0.0
C2227 C 0.81331 0.61273 0.46768 0.0
H2228 H 0.76636 0.59483 0.47893 0.0
C2229 C 0.80846 0.63291 0.46426 0.0
C2230 C 0.7883 0.63952 0.4653 0.0
H2231 H 0.82888 0.60793 0.46604 0.0
H2232 H 0.82049 0.64323 0.46019 0.0
C2233 C 0.77328 0.62576 0.47148 0.0
C2234 C 0.63738 0.4596 0.80372 0.0
C2235 C 0.64416 0.45822 0.78362 0.0
H2236 H 0.61236 0.46455 0.82356 0.0
C2237 C 0.63079 0.46345 0.76789 0.0
H2238 H 0.64742 0.45638 0.81625 0.0
C2239 C 0.61064 0.46854 0.77221 0.0
C2240 C 0.60367 0.4683 0.79227 0.0
H2241 H 0.63558 0.4626 0.75226 0.0
H2242 H 0.60026 0.4715 0.7599 0.0
C2243 C 0.61736 0.46442 0.80797 0.0
C2244 C 0.77097 0.36485 0.03606 0.0
C2245 C 0.78714 0.35181 0.0408 0.0
H2246 H 0.76208 0.39514 0.02807 0.0
C2247 C 0.80702 0.35902 0.03874 0.0
H2248 H 0.75549 0.35977 0.03746 0.0
C2249 C 0.81068 0.37911 0.03366 0.0
C2250 C 0.79458 0.39244 0.03016 0.0
H2251 H 0.81985 0.34928 0.04157 0.0
H2252 H 0.82615 0.38444 0.03295 0.0
C2253 C 0.7747 0.38504 0.03069 0.0
C2254 C 0.86069 0.53473 0.29904 0.0
C2255 C 0.85333 0.53709 0.27924 0.0
H2256 H 0.88646 0.5301 0.31796 0.0
C2257 C 0.86663 0.53401 0.26289 0.0
H2258 H 0.85076 0.53632 0.31195 0.0
C2259 C 0.88718 0.53009 0.26642 0.0
C2260 C 0.89463 0.52941 0.28629 0.0
H2261 H 0.86141 0.53566 0.24747 0.0
H2262 H 0.89742 0.52873 0.25372 0.0
C2263 C 0.8811 0.53109 0.30251 0.0
C2264 C 0.7103 0.6435 0.52745 0.0
C2265 C 0.72359 0.6474 0.54352 0.0
H2266 H 0.69565 0.62084 0.50938 0.0
C2267 C 0.73347 0.6312 0.55304 0.0
H2268 H 0.70247 0.65585 0.52007 0.0
C2269 C 0.72925 0.61131 0.54728 0.0
C2270 C 0.71556 0.60739 0.53156 0.0
H2271 H 0.74355 0.63393 0.56566 0.0
H2272 H 0.73612 0.59891 0.55548 0.0
C2273 C 0.70653 0.62363 0.52131 0.0
C2274 C 0.52013 0.70517 0.64139 0.0
C2275 C 0.53505 0.71973 0.64533 0.0
H2276 H 0.50449 0.68788 0.6188 0.0
C2277 C 0.54494 0.72914 0.62909 0.0
H2278 H 0.51256 0.6976 0.65379 0.0
C2279 C 0.54076 0.72323 0.60921 0.0
C2280 C 0.52625 0.70824 0.60529 0.0
H2281 H 0.55675 0.74015 0.63188 0.0
H2282 H 0.54922 0.72992 0.59688 0.0
C2283 C 0.51554 0.69967 0.62149 0.0
C2284 C 0.04305 0.77355 0.39143 0.0
C2285 C 0.02878 0.78874 0.39546 0.0
H2286 H 0.05856 0.75638 0.36865 0.0
C2287 C 0.01799 0.79737 0.37934 0.0
H2288 H 0.05156 0.7668 0.40368 0.0
C2289 C 0.02228 0.79175 0.35941 0.0
C2290 C 0.03697 0.77701 0.35536 0.0
H2291 H 0.00713 0.8093 0.38211 0.0
H2292 H 0.01465 0.79937 0.34708 0.0
C2293 C 0.04693 0.76753 0.37153 0.0
C2294 C 0.46261 0.19438 0.86009 0.0
C2295 C 0.46263 0.21435 0.85284 0.0
H2296 H 0.46447 0.17492 0.88581 0.0
C2297 C 0.46716 0.23019 0.86634 0.0
H2298 H 0.45981 0.18179 0.85 0.0
C2299 C 0.4701 0.22615 0.88696 0.0
C2300 C 0.46837 0.20629 0.89428 0.0
H2301 H 0.46733 0.24573 0.86121 0.0
H2302 H 0.47264 0.23858 0.89732 0.0
C2303 C 0.46527 0.19042 0.88057 0.0
C2304 C 0.05134 0.14533 0.19783 0.0
C2305 C 0.07255 0.14435 0.19794 0.0
H2306 H 0.02349 0.12946 0.19318 0.0
C2307 C 0.08197 0.12577 0.19364 0.0
H2308 H 0.04362 0.15943 0.201 0.0
C2309 C 0.07046 0.10856 0.18931 0.0
C2310 C 0.04924 0.10957 0.18897 0.0
H2311 H 0.0983 0.12446 0.19367 0.0
H2312 H 0.07822 0.09452 0.18602 0.0
C2313 C 0.03981 0.12815 0.1933 0.0
C2314 C 0.1364 0.77967 0.45401 0.0
C2315 C 0.1456 0.78932 0.43751 0.0
H2316 H 0.11194 0.77973 0.47525 0.0
C2317 C 0.13643 0.80656 0.42914 0.0
H2318 H 0.14317 0.76633 0.46069 0.0
C2319 C 0.1181 0.81383 0.43705 0.0
C2320 C 0.10913 0.8043 0.45381 0.0
H2321 H 0.14318 0.81411 0.41627 0.0
H2322 H 0.11119 0.82711 0.4304 0.0
C2323 C 0.11855 0.78729 0.4623 0.0
C2324 C 0.43748 0.87701 0.66946 0.0
C2325 C 0.4421 0.89502 0.67979 0.0
H2326 H 0.42763 0.84626 0.67157 0.0
C2327 C 0.4403 0.89546 0.70097 0.0
H2328 H 0.43877 0.87613 0.65315 0.0
C2329 C 0.43378 0.87831 0.71154 0.0
C2330 C 0.42912 0.8603 0.70119 0.0
H2331 H 0.44365 0.90913 0.70936 0.0
H2332 H 0.43241 0.8792 0.72784 0.0
C2333 C 0.43115 0.85983 0.68004 0.0
C2334 C 0.37325 0.21031 0.92987 0.0
C2335 C 0.35365 0.20383 0.93501 0.0
H2336 H 0.40519 0.20592 0.93367 0.0
C2337 C 0.3514 0.18696 0.9477 0.0
H2338 H 0.37543 0.22316 0.91995 0.0
C2339 C 0.36843 0.17736 0.95585 0.0
C2340 C 0.38802 0.1841 0.95103 0.0
H2341 H 0.33649 0.18162 0.95189 0.0
H2342 H 0.36626 0.16476 0.96609 0.0
C2343 C 0.39028 0.20037 0.93759 0.0
C2344 C 0.05963 0.87294 0.3329 0.0
C2345 C 0.05521 0.89111 0.32278 0.0
H2346 H 0.06649 0.84142 0.33037 0.0
C2347 C 0.05396 0.89098 0.30156 0.0
H2348 H 0.0606 0.87246 0.34925 0.0
C2349 C 0.05738 0.87312 0.2907 0.0
C2350 C 0.06199 0.85498 0.30083 0.0
H2351 H 0.05061 0.90473 0.29331 0.0
H2352 H 0.05656 0.87359 0.27435 0.0
C2353 C 0.06292 0.85508 0.32207 0.0
C2354 C 0.3717 0.82802 0.54213 0.0
C2355 C 0.391 0.82197 0.54868 0.0
H2356 H 0.33965 0.82445 0.54522 0.0
C2357 C 0.39255 0.80787 0.5645 0.0
H2358 H 0.37005 0.83897 0.53005 0.0
C2359 C 0.37513 0.79932 0.57296 0.0
C2360 C 0.35584 0.80504 0.56608 0.0
H2361 H 0.40722 0.8029 0.56984 0.0
H2362 H 0.37677 0.78809 0.58478 0.0
C2363 C 0.3543 0.81979 0.55088 0.0
C2364 C 0.4537 0.12722 0.8215 0.0
C2365 C 0.44673 0.10784 0.8162 0.0
H2366 H 0.45105 0.1592 0.81695 0.0
C2367 C 0.43085 0.10609 0.80218 0.0
H2368 H 0.46584 0.12904 0.83236 0.0
C2369 C 0.42261 0.12335 0.79313 0.0
C2370 C 0.42978 0.1427 0.79822 0.0
H2371 H 0.42518 0.09136 0.79777 0.0
H2372 H 0.41065 0.12152 0.78207 0.0
C2373 C 0.44518 0.14449 0.81276 0.0
C2374 C 0.12426 0.20405 0.07714 0.0
C2375 C 0.14329 0.19744 0.07034 0.0
H2376 H 0.09206 0.20138 0.07447 0.0
C2377 C 0.14422 0.18205 0.05572 0.0
H2378 H 0.1231 0.21578 0.08852 0.0
C2379 C 0.12645 0.17407 0.04743 0.0
C2380 C 0.10742 0.18099 0.05392 0.0
H2381 H 0.15866 0.17667 0.05018 0.0
H2382 H 0.12761 0.16259 0.03579 0.0
C2383 C 0.1065 0.19575 0.06917 0.0
C2384 C 0.17898 0.07462 0.13015 0.0
C2385 C 0.18761 0.06455 0.14676 0.0
H2386 H 0.16866 0.07259 0.09951 0.0
C2387 C 0.19296 0.04409 0.14469 0.0
H2388 H 0.17479 0.09042 0.13125 0.0
C2389 C 0.18918 0.03377 0.12656 0.0
C2390 C 0.18032 0.0438 0.11002 0.0
H2391 H 0.1995 0.03589 0.15727 0.0
H2392 H 0.19305 0.01789 0.12557 0.0
C2393 C 0.17556 0.06443 0.11192 0.0
C2394 C 0.18532 0.92716 0.39132 0.0
C2395 C 0.18398 0.94836 0.3915 0.0
H2396 H 0.19024 0.90044 0.37383 0.0
C2397 C 0.18705 0.95899 0.37332 0.0
H2398 H 0.18296 0.91848 0.40501 0.0
C2399 C 0.19137 0.9486 0.35537 0.0
C2400 C 0.19245 0.92738 0.3552 0.0
H2401 H 0.18615 0.97534 0.37295 0.0
H2402 H 0.19362 0.95718 0.34159 0.0
C2403 C 0.18941 0.91679 0.37339 0.0
C2404 C 0.32141 0.96462 0.62402 0.0
C2405 C 0.31589 0.95808 0.60453 0.0
H2406 H 0.31726 0.96114 0.65602 0.0
C2407 C 0.30201 0.94214 0.60256 0.0
H2408 H 0.33221 0.97678 0.62597 0.0
C2409 C 0.29315 0.93349 0.61974 0.0
C2410 C 0.29843 0.94025 0.63922 0.0
H2411 H 0.29749 0.9368 0.58774 0.0
H2412 H 0.28205 0.92159 0.6178 0.0
C2413 C 0.31296 0.9556 0.64121 0.0
C2414 C 0.30704 0.04214 0.87228 0.0
C2415 C 0.31094 0.05211 0.89069 0.0
H2416 H 0.2993 0.04503 0.84091 0.0
C2417 C 0.30985 0.07334 0.89124 0.0
H2418 H 0.30775 0.02581 0.87131 0.0
C2419 C 0.30512 0.08433 0.87382 0.0
C2420 C 0.30122 0.07438 0.85542 0.0
H2421 H 0.31283 0.08153 0.9051 0.0
H2422 H 0.30446 0.10067 0.87482 0.0
C2423 C 0.30215 0.05315 0.85486 0.0
C2424 C 0.63868 0.32056 0.93382 0.0
C2425 C 0.63944 0.29933 0.93379 0.0
H2426 H 0.62049 0.34702 0.9379 0.0
C2427 C 0.62177 0.28843 0.9385 0.0
H2428 H 0.65198 0.32942 0.93024 0.0
C2429 C 0.60373 0.29851 0.94299 0.0
C2430 C 0.60289 0.31973 0.94271 0.0
H2431 H 0.62182 0.27205 0.93863 0.0
H2432 H 0.59037 0.28965 0.94637 0.0
C2433 C 0.62059 0.33064 0.93816 0.0
C2434 C 0.94193 0.37738 0.20997 0.0
C2435 C 0.93768 0.35939 0.19942 0.0
H2436 H 0.94876 0.40903 0.20803 0.0
C2437 C 0.93712 0.35981 0.1782 0.0
H2438 H 0.9425 0.37757 0.22634 0.0
C2439 C 0.94051 0.37787 0.16775 0.0
C2440 C 0.94475 0.39587 0.17827 0.0
H2441 H 0.93383 0.34624 0.16962 0.0
H2442 H 0.93989 0.37767 0.15138 0.0
C2443 C 0.94556 0.39542 0.19949 0.0
C2444 C 0.89347 0.6934 0.4343 0.0
C2445 C 0.89186 0.67876 0.44962 0.0
H2446 H 0.87777 0.71385 0.41462 0.0
C2447 C 0.87254 0.6726 0.45598 0.0
H2448 H 0.90817 0.69846 0.42912 0.0
C2449 C 0.85518 0.68115 0.44747 0.0
C2450 C 0.85677 0.69633 0.4327 0.0
H2451 H 0.87083 0.66126 0.46768 0.0
H2452 H 0.84051 0.67634 0.45294 0.0
C2453 C 0.87609 0.70226 0.42608 0.0
C2454 C 0.93356 0.60497 0.29786 0.0
C2455 C 0.94938 0.60745 0.31184 0.0
H2456 H 0.91205 0.61949 0.27843 0.0
C2457 C 0.95484 0.62711 0.31782 0.0
H2458 H 0.92902 0.59001 0.29294 0.0
C2459 C 0.9449 0.64397 0.30976 0.0
C2460 C 0.92956 0.64152 0.29526 0.0
H2461 H 0.96688 0.62949 0.32867 0.0
H2462 H 0.94966 0.65893 0.31444 0.0
C2463 C 0.9239 0.62185 0.2895 0.0
C2464 C 0.55531 0.38898 0.79558 0.0
C2465 C 0.55622 0.38988 0.8168 0.0
H2466 H 0.55885 0.37074 0.76902 0.0
C2467 C 0.56111 0.37222 0.82759 0.0
H2468 H 0.55159 0.4023 0.78681 0.0
C2469 C 0.5651 0.3541 0.81743 0.0
C2470 C 0.56446 0.35323 0.7962 0.0
H2471 H 0.56182 0.37232 0.84396 0.0
H2472 H 0.56892 0.34083 0.82625 0.0
C2473 C 0.55948 0.37087 0.78539 0.0
C2474 C 0.55794 0.62416 0.66687 0.0
C2475 C 0.55377 0.60584 0.67681 0.0
H2476 H 0.56468 0.65568 0.66973 0.0
C2477 C 0.55288 0.6057 0.69806 0.0
H2478 H 0.55865 0.62484 0.65051 0.0
C2479 C 0.55635 0.62343 0.70911 0.0
C2480 C 0.56068 0.64172 0.69916 0.0
H2481 H 0.54977 0.59183 0.7062 0.0
H2482 H 0.55579 0.62273 0.72547 0.0
C2483 C 0.56131 0.64189 0.6779 0.0
C2484 C 0.88743 0.31935 0.06015 0.0
C2485 C 0.89597 0.3111 0.04253 0.0
H2486 H 0.86343 0.31744 0.08206 0.0
C2487 C 0.88706 0.29396 0.03373 0.0
H2488 H 0.89403 0.33264 0.06712 0.0
C2489 C 0.87009 0.28498 0.04255 0.0
C2490 C 0.86128 0.29339 0.05993 0.0
H2491 H 0.89342 0.28731 0.02017 0.0
H2492 H 0.86364 0.27162 0.03558 0.0
C2493 C 0.86995 0.31077 0.06859 0.0
C2494 C 0.61456 0.68272 0.56202 0.0
C2495 C 0.60558 0.69194 0.5451 0.0
H2496 H 0.63993 0.68247 0.58249 0.0
C2497 C 0.61536 0.70838 0.53591 0.0
H2498 H 0.60739 0.66987 0.56922 0.0
C2499 C 0.63355 0.71578 0.54368 0.0
C2500 C 0.64273 0.70645 0.56038 0.0
H2501 H 0.60877 0.71572 0.52281 0.0
H2502 H 0.64056 0.72873 0.53649 0.0
C2503 C 0.63321 0.68974 0.56943 0.0
C2504 C 0.6846 0.573 0.60728 0.0
C2505 C 0.68393 0.55176 0.60685 0.0
H2506 H 0.68881 0.59964 0.62519 0.0
C2507 C 0.68738 0.54101 0.62487 0.0
H2508 H 0.68192 0.58175 0.5937 0.0
C2509 C 0.6914 0.55127 0.64293 0.0
C2510 C 0.69187 0.57251 0.6434 0.0
H2511 H 0.68696 0.52464 0.62506 0.0
H2512 H 0.69394 0.54255 0.65656 0.0
C2513 C 0.68845 0.58326 0.62537 0.0
C2514 C 0.67932 0.42679 0.8919 0.0
C2515 C 0.67777 0.44798 0.89183 0.0
H2516 H 0.68598 0.40005 0.87492 0.0
C2517 C 0.68224 0.45853 0.8739 0.0
H2518 H 0.67593 0.41819 0.90542 0.0
C2519 C 0.68811 0.44815 0.85643 0.0
C2520 C 0.68946 0.42696 0.85644 0.0
H2521 H 0.68122 0.47487 0.87331 0.0
H2522 H 0.69132 0.45673 0.84285 0.0
C2523 C 0.68503 0.41639 0.87438 0.0
C2524 C 0.81011 0.46057 0.12556 0.0
C2525 C 0.81524 0.45033 0.10761 0.0
H2526 H 0.80331 0.45823 0.15718 0.0
C2527 C 0.81708 0.42917 0.10808 0.0
H2528 H 0.80858 0.47687 0.12573 0.0
C2529 C 0.8142 0.41852 0.12612 0.0
C2530 C 0.80925 0.42876 0.14411 0.0
H2531 H 0.82105 0.42079 0.09457 0.0
H2532 H 0.8159 0.40223 0.12595 0.0
C2533 C 0.80706 0.44989 0.14359 0.0
C2534 C 0.80542 0.54472 0.35513 0.0
C2535 C 0.81036 0.56534 0.35371 0.0
H2536 H 0.80508 0.51813 0.37362 0.0
C2537 C 0.81818 0.57521 0.37086 0.0
H2538 H 0.7995 0.53665 0.34216 0.0
C2539 C 0.82118 0.56467 0.38898 0.0
C2540 C 0.8167 0.54392 0.39026 0.0
H2541 H 0.82201 0.59114 0.37029 0.0
H2542 H 0.82744 0.57267 0.40183 0.0
C2543 C 0.80869 0.5341 0.37316 0.0
C2544 C 0.97656 0.98904 0.26078 0.0
C2545 C 0.98828 0.99315 0.27793 0.0
H2546 H 0.96677 0.99918 0.23177 0.0
C2547 C 0.99787 0.01196 0.27966 0.0
H2548 H 0.96886 0.97466 0.25927 0.0
C2549 C 0.99763 0.02557 0.26366 0.0
C2550 C 0.98742 0.02095 0.2455 0.0
H2551 H 0.00717 0.01542 0.29271 0.0
H2552 H 0.00709 0.0388 0.26521 0.0
C2553 C 0.97568 0.00307 0.24492 0.0
C2554 C 0.27583 0.7483 0.49294 0.0
C2555 C 0.2696 0.7406 0.51181 0.0
H2556 H 0.26814 0.75375 0.46213 0.0
C2557 C 0.25203 0.72847 0.51241 0.0
H2558 H 0.28902 0.75784 0.49147 0.0
C2559 C 0.23954 0.72676 0.4954 0.0
C2560 C 0.24489 0.73635 0.47728 0.0
H2561 H 0.24708 0.7215 0.52636 0.0
H2562 H 0.22515 0.71905 0.49675 0.0
C2563 C 0.26371 0.74603 0.47589 0.0
C2564 C 0.51962 -0.00012 0.7662 0.0
C2565 C 0.50828 0.01796 0.76505 0.0
H2566 H 0.52779 0.97206 0.75145 0.0
C2567 C 0.50049 0.02367 0.74604 0.0
H2568 H 0.52668 0.99521 0.7802 0.0
C2569 C 0.50208 0.01084 0.72946 0.0
C2570 C 0.51111 0.99177 0.73143 0.0
H2571 H 0.49147 0.03716 0.7441 0.0
H2572 H 0.49445 0.01507 0.71557 0.0
C2573 C 0.52058 0.98666 0.74968 0.0
C2574 C 0.23791 0.25205 0.97963 0.0
C2575 C 0.25674 0.26172 0.98092 0.0
H2576 H 0.21226 0.24103 0.9951 0.0
C2577 C 0.26208 0.2716 0.99889 0.0
H2578 H 0.23351 0.24409 0.96599 0.0
C2579 C 0.24931 0.27058 0.01576 0.0
C2580 C 0.23146 0.25881 0.01522 0.0
H2581 H 0.27648 0.2793 0.00015 0.0
H2582 H 0.25412 0.27801 0.02952 0.0
C2583 C 0.22554 0.25044 0.99654 0.0
C2584 C 0.2373 0.00075 0.97703 0.0
C2585 C 0.25585 0.99119 0.98131 0.0
H2586 H 0.20757 0.0079 0.98714 0.0
C2587 C 0.25691 0.97853 0.99851 0.0
H2588 H 0.23554 0.01092 0.96436 0.0
C2589 C 0.24077 0.97751 0.01219 0.0
C2590 C 0.22297 0.98834 0.00841 0.0
H2591 H 0.27056 0.97028 0.00209 0.0
H2592 H 0.24248 0.96899 0.02607 0.0
C2593 C 0.22107 0.99916 0.99028 0.0
C2594 C 0.25352 0.99042 0.22413 0.0
C2595 C 0.26267 0.00863 0.23031 0.0
H2596 H 0.24469 0.96052 0.23236 0.0
C2597 C 0.27393 0.00861 0.24848 0.0
H2598 H 0.24461 0.98949 0.21045 0.0
C2599 C 0.27321 0.99198 0.26154 0.0
C2600 C 0.26215 0.97475 0.25614 0.0
H2601 H 0.282 0.02196 0.25343 0.0
H2602 H 0.28029 0.99301 0.27629 0.0
C2603 C 0.25342 0.97365 0.23684 0.0
C2604 C 0.25463 0.02478 0.51181 0.0
C2605 C 0.27295 0.01547 0.50662 0.0
H2606 H 0.22386 0.03016 0.50362 0.0
C2607 C 0.27471 0.00606 0.48768 0.0
H2608 H 0.25296 0.03229 0.52627 0.0
C2609 C 0.25799 0.004 0.47513 0.0
C2610 C 0.23899 0.01164 0.48096 0.0
H2611 H 0.28858 0.99851 0.48333 0.0
H2612 H 0.25987 0.99474 0.46179 0.0
C2613 C 0.23791 0.02327 0.49887 0.0
C2614 C 0.224 0.00893 0.75909 0.0
C2615 C 0.23476 0.02669 0.75493 0.0
H2616 H 0.21647 0.97909 0.74939 0.0
C2617 C 0.24484 0.0286 0.73639 0.0
H2618 H 0.21599 0.00725 0.77328 0.0
C2619 C 0.24605 0.01228 0.72317 0.0
C2620 C 0.23684 0.99366 0.72795 0.0
H2621 H 0.25344 0.04212 0.73294 0.0
H2622 H 0.25582 0.014 0.71019 0.0
C2623 C 0.22459 0.99273 0.74546 0.0
C2624 C 0.02599 0.25536 0.00079 0.0
C2625 C 0.02029 0.23676 0.99208 0.0
H2626 H 0.0177 0.28579 0.00744 0.0
C2627 C 0.00275 0.23632 0.97988 0.0
H2628 H 0.03907 0.25669 0.01051 0.0
C2629 C 0.98995 0.25316 0.97881 0.0
C2630 C 0.99495 0.27099 0.98911 0.0
H2631 H 0.99813 0.22263 0.97221 0.0
H2632 H 0.97569 0.25192 0.97084 0.0
C2633 C 0.01358 0.27226 0.99915 0.0
C2634 C 0.50958 0.2513 0.02132 0.0
C2635 C 0.50411 0.26886 0.01082 0.0
H2636 H 0.50117 0.22143 0.0301 0.0
C2637 C 0.48467 0.27031 0.00254 0.0
H2638 H 0.52446 0.24997 0.02803 0.0
C2639 C 0.47168 0.25379 0.00279 0.0
C2640 C 0.47761 0.23534 0.0117 0.0
H2641 H 0.48012 0.28364 0.99416 0.0
H2642 H 0.45782 0.2553 0.9943 0.0
C2643 C 0.49623 0.23486 0.02221 0.0
C2644 C 0.99419 0.25467 0.275 0.0
C2645 C 0.99518 0.2719 0.26237 0.0
H2646 H 0.00865 0.22704 0.28424 0.0
C2647 C 0.01393 0.27662 0.25338 0.0
H2648 H 0.98049 0.25083 0.28304 0.0
C2649 C 0.03026 0.2635 0.25506 0.0
C2650 C 0.02827 0.24511 0.26538 0.0
H2651 H 0.01578 0.28941 0.24339 0.0
H2652 H 0.04385 0.26686 0.24653 0.0
C2653 C 0.01042 0.2411 0.27603 0.0
C2654 C 0.98937 0.76705 0.49868 0.0
C2655 C 0.00839 0.76572 0.5079 0.0
H2656 H 0.96278 0.75186 0.48968 0.0
C2657 C 0.01331 0.74839 0.51904 0.0
H2658 H 0.9853 0.78022 0.48981 0.0
C2659 C -0.00015 0.73205 0.51976 0.0
C2660 C 0.98168 0.73239 0.50851 0.0
H2661 H 0.02788 0.74717 0.52642 0.0
H2662 H 0.00435 0.71876 0.52816 0.0
C2663 C 0.97627 0.75059 0.4988 0.0
C2664 C 0.50946 0.74746 0.4798 0.0
C2665 C 0.50441 0.73066 0.49166 0.0
H2666 H 0.50089 0.7769 0.46975 0.0
C2667 C 0.48551 0.72998 0.50117 0.0
H2668 H 0.52393 0.74815 0.47216 0.0
C2669 C 0.47272 0.74665 0.50067 0.0
C2670 C 0.47832 0.7644 0.49026 0.0
H2671 H 0.48135 0.7172 0.51057 0.0
H2672 H 0.45936 0.74596 0.51003 0.0
C2673 C 0.49629 0.764 0.47869 0.0
C2674 C 0.97987 0.75255 0.22841 0.0
C2675 C 0.97989 0.73335 0.23779 0.0
H2676 H 0.99588 0.78052 0.22387 0.0
C2677 C 0.99815 0.72638 0.24626 0.0
H2678 H 0.96648 0.75833 0.221 0.0
C2679 C 0.01506 0.7388 0.24711 0.0
C2680 C 0.01424 0.75869 0.23982 0.0
H2681 H 0.9992 0.71201 0.25398 0.0
H2682 H 0.02826 0.73335 0.25515 0.0
C2683 C 0.99676 0.76528 0.22981 0.0
C2684 C 0.50231 0.22394 0.74507 0.0
C2685 C 0.48405 0.23062 0.73636 0.0
H2686 H 0.53253 0.23115 0.75338 0.0
C2687 C 0.48419 0.24916 0.72573 0.0
H2688 H 0.50322 0.21007 0.75365 0.0
C2689 C 0.50121 0.26178 0.72626 0.0
C2690 C 0.51866 0.25567 0.73662 0.0
H2691 H 0.4708 0.25461 0.71809 0.0
H2692 H 0.50041 0.27665 0.71944 0.0
C2693 C 0.51935 0.23622 0.74505 0.0
C2694 C 0.47759 0.48074 0.74692 0.0
C2695 C 0.48725 0.48613 0.76499 0.0
H2696 H 0.47029 0.48926 0.71666 0.0
C2697 C 0.49565 0.5055 0.76685 0.0
H2698 H 0.47088 0.46588 0.74523 0.0
C2699 C 0.49625 0.51852 0.75036 0.0
C2700 C 0.48807 0.5127 0.73154 0.0
H2701 H 0.50343 0.50996 0.78058 0.0
H2702 H 0.50474 0.53236 0.7522 0.0
C2703 C 0.47757 0.49411 0.73048 0.0
C2704 C 0.76435 0.23022 0.00299 0.0
C2705 C 0.76065 0.24141 0.02058 0.0
H2706 H 0.75393 0.22207 0.97351 0.0
C2707 C 0.74253 0.25221 0.02239 0.0
H2708 H 0.77826 0.22173 0.00136 0.0
C2709 C 0.72906 0.25323 0.00629 0.0
C2710 C 0.7331 0.24311 0.98797 0.0
H2711 H 0.73948 0.26124 0.03573 0.0
H2712 H 0.71634 0.26334 0.00797 0.0
C2713 C 0.75046 0.23068 0.98698 0.0
C2714 C 0.02591 0.4896 0.24214 0.0
C2715 C 0.01524 0.49452 0.22452 0.0
H2716 H 0.03397 0.49843 0.27211 0.0
C2717 C 0.00629 0.51367 0.22288 0.0
H2718 H 0.03314 0.47498 0.24362 0.0
C2719 C 0.0058 0.52668 0.23939 0.0
C2720 C 0.0146 0.52104 0.25797 0.0
H2721 H 0.99782 0.51781 0.20947 0.0
H2722 H 0.99673 0.54017 0.23785 0.0
C2723 C 0.02606 0.503 0.25855 0.0
C2724 C 0.77505 0.74891 0.50656 0.0
C2725 C 0.76902 0.7575 0.48801 0.0
H2726 H 0.76693 0.74175 0.53693 0.0
C2727 C 0.7512 0.76925 0.48769 0.0
H2728 H 0.78841 0.73959 0.50779 0.0
C2729 C 0.73837 0.76981 0.50452 0.0
C2730 C 0.74363 0.75943 0.52223 0.0
H2731 H 0.74636 0.77685 0.47403 0.0
H2732 H 0.72387 0.77732 0.50332 0.0
C2733 C 0.76259 0.75004 0.52347 0.0
C2734 C 0.73614 0.47809 0.4975 0.0
C2735 C 0.73767 0.4898 0.51534 0.0
H2736 H 0.75043 0.46907 0.4697 0.0
C2737 C 0.75678 0.49768 0.52052 0.0
H2738 H 0.72204 0.47099 0.49322 0.0
C2739 C 0.77314 0.49564 0.5075 0.0
C2740 C 0.77087 0.48606 0.48872 0.0
H2741 H 0.759 0.50702 0.53375 0.0
H2742 H 0.78714 0.50323 0.51138 0.0
C2743 C 0.75246 0.47667 0.48407 0.0
C2744 C 0.76886 0.49683 0.76451 0.0
C2745 C 0.75796 0.47943 0.75933 0.0
H2746 H 0.77781 0.52659 0.75588 0.0
C2747 C 0.74876 0.47824 0.74029 0.0
H2748 H 0.7762 0.49795 0.77912 0.0
C2749 C 0.74875 0.49482 0.72738 0.0
C2750 C 0.75834 0.51305 0.73296 0.0
H2751 H 0.74004 0.46501 0.73605 0.0
H2752 H 0.73968 0.49357 0.71384 0.0
C2753 C 0.76948 0.51332 0.75122 0.0
C2754 C 0.74721 0.51736 0.01511 0.0
C2755 C 0.76473 0.5065 0.01028 0.0
H2756 H 0.71738 0.5258 0.00606 0.0
C2757 C 0.76588 0.49644 0.99167 0.0
H2758 H 0.74607 0.52529 0.02941 0.0
C2759 C 0.74937 0.49591 0.97874 0.0
C2760 C 0.73119 0.50582 0.98377 0.0
H2761 H 0.77915 0.48766 0.98772 0.0
H2762 H 0.7507 0.48634 0.96556 0.0
C2763 C 0.73072 0.5174 0.00176 0.0
C2764 C 0.74797 0.49034 0.27624 0.0
C2765 C 0.73835 0.50818 0.26969 0.0
H2766 H 0.7578 0.46062 0.26862 0.0
C2767 C 0.7274 0.50755 0.25135 0.0
H2768 H 0.75671 0.48987 0.29005 0.0
C2769 C 0.72872 0.49071 0.23858 0.0
C2770 C 0.74019 0.47387 0.24438 0.0
H2771 H 0.71901 0.52058 0.24609 0.0
H2772 H 0.72177 0.49129 0.22375 0.0
C2773 C 0.74873 0.47338 0.2638 0.0
C2774 C 0.49612 0.7351 0.76873 0.0
C2775 C 0.51357 0.74005 0.75779 0.0
H2776 H 0.46649 0.74422 0.77781 0.0
C2777 C 0.51487 0.759 0.74842 0.0
H2778 H 0.49486 0.72055 0.77615 0.0
C2779 C 0.49855 0.77219 0.7486 0.0
C2780 C 0.48041 0.76703 0.75852 0.0
H2781 H 0.52804 0.76308 0.73956 0.0
H2782 H 0.49995 0.78568 0.73951 0.0
C2783 C 0.47982 0.74866 0.76945 0.0
loop_
_geom_bond_atom_site_label_1
_geom_bond_atom_site_label_2
_geom_bond_distance
_geom_bond_site_symmetry_2
_ccdc_geom_bond_type
C0 C1 1.351 . S
C0 N3 1.368 . S
C0 H5 0.931 . S
C1 C0 1.351 . S
C1 N2 1.373 . S
C1 H29 0.930 . S
N2 C1 1.373 . S
N2 C4 1.340 . S
N3 C0 1.368 . S
N3 C4 1.321 . S
N3 Co6 2.135 . S
C4 N2 1.340 . S
C4 N3 1.321 . S
C4 H28 0.930 . S
H5 C0 0.931 . S
Co6 N3 2.135 . S
Co6 N9 2.121 . S
Co6 O14 2.055 . S
Co6 O17 2.039 . S
Co6 N20 2.140 . S
C7 O8 1.227 . S
C7 O17 1.265 . S
O8 C7 1.227 . S
N9 Co6 2.121 . S
N9 C11 1.375 . S
N9 C12 1.313 . S
C10 C11 1.338 1_655 S
C10 N13 1.377 . S
C10 H30 0.930 . S
C11 N9 1.375 . S
C11 C10 1.338 1_455 S
C11 H15 0.931 . S
C12 N9 1.313 . S
C12 N13 1.344 1_455 S
C12 H16 0.930 . S
N13 C10 1.377 . S
N13 C12 1.344 1_655 S
O14 Co6 2.055 . S
O14 C18 1.253 . S
H15 C11 0.931 . S
H16 C12 0.930 . S
O17 Co6 2.039 . S
O17 C7 1.265 . S
C18 O14 1.253 . S
C18 O19 1.227 . S
O19 C18 1.227 . S
N20 Co6 2.140 . S
N20 C23 1.346 . S
N20 C24 1.345 . S
C21 C22 1.407 . S
C21 C25 1.392 . S
C22 C21 1.407 . S
C22 C23 1.369 . S
C22 H31 0.929 . S
C23 N20 1.346 . S
C23 C22 1.369 . S
C23 H26 0.928 . S
C24 N20 1.345 . S
C24 C25 1.371 . S
C24 H27 0.931 . S
C25 C21 1.392 . S
C25 C24 1.371 . S
C25 H32 0.961 1_545 S
H26 C23 0.928 . S
H27 C24 0.931 . S
H28 C4 0.930 . S
H29 C1 0.930 . S
H30 C10 0.930 . S
H31 C22 0.929 . S
H32 C25 0.961 1_565 S
C33 C34 1.351 . S
C33 N36 1.368 . S
C33 H38 0.931 . S
C34 C33 1.351 . S
C34 N35 1.373 . S
C34 H62 0.930 . S
N35 C34 1.373 . S
N35 C37 1.340 . S
N36 C33 1.368 . S
N36 C37 1.321 . S
N36 Co39 2.135 . S
C37 N35 1.340 . S
C37 N36 1.321 . S
C37 H61 0.930 . S
H38 C33 0.931 . S
Co39 N36 2.135 . S
Co39 N42 2.121 . S
Co39 O47 2.055 . S
Co39 O50 2.039 . S
Co39 N53 2.140 . S
C40 O41 1.227 . S
C40 O50 1.265 . S
O41 C40 1.227 . S
N42 Co39 2.121 . S
N42 C44 1.375 . S
N42 C45 1.313 . S
C43 C44 1.338 . S
C43 N46 1.377 . S
C43 H63 0.930 . S
C44 N42 1.375 . S
C44 C43 1.338 . S
C44 H48 0.931 . S
C45 N42 1.313 . S
C45 N46 1.344 . S
C45 H49 0.930 . S
N46 C43 1.377 . S
N46 C45 1.344 . S
O47 Co39 2.055 . S
O47 C51 1.253 . S
H48 C44 0.931 . S
H49 C45 0.930 . S
O50 Co39 2.039 . S
O50 C40 1.265 . S
C51 O47 1.253 . S
C51 O52 1.227 . S
O52 C51 1.227 . S
N53 Co39 2.140 . S
N53 C56 1.346 . S
N53 C57 1.345 . S
C54 C55 1.387 . S
C54 C58 1.391 . S
C55 C54 1.387 . S
C55 C56 1.369 . S
C55 H64 0.929 . S
C56 N53 1.346 . S
C56 C55 1.369 . S
C56 H59 0.928 . S
C57 N53 1.345 . S
C57 C58 1.371 . S
C57 H60 0.931 . S
C58 C54 1.391 . S
C58 C57 1.371 . S
C58 H65 0.930 . S
H59 C56 0.928 . S
H60 C57 0.931 . S
H61 C37 0.930 . S
H62 C34 0.930 . S
H63 C43 0.930 . S
H64 C55 0.929 . S
H65 C58 0.930 . S
C66 C67 1.351 . S
C66 N69 1.368 . S
C66 H71 0.931 . S
C67 C66 1.351 . S
C67 N68 1.373 . S
C67 H95 0.930 . S
N68 C67 1.373 . S
N68 C70 1.340 . S
N69 C66 1.368 . S
N69 C70 1.321 . S
N69 Co72 2.135 . S
C70 N68 1.340 . S
C70 N69 1.321 . S
C70 H94 0.930 . S
H71 C66 0.931 . S
Co72 N69 2.135 . S
Co72 N75 2.121 . S
Co72 O80 2.055 . S
Co72 O83 2.039 . S
Co72 N86 2.140 . S
C73 O74 1.227 . S
C73 O83 1.265 . S
O74 C73 1.227 . S
N75 Co72 2.121 . S
N75 C77 1.375 . S
N75 C78 1.313 . S
C76 C77 1.338 . S
C76 N79 1.377 . S
C76 H96 0.930 . S
C77 N75 1.375 . S
C77 C76 1.338 . S
C77 H81 0.931 . S
C78 N75 1.313 . S
C78 N79 1.344 . S
C78 H82 0.930 . S
N79 C76 1.377 . S
N79 C78 1.344 . S
O80 Co72 2.055 . S
O80 C84 1.253 . S
H81 C77 0.931 . S
H82 C78 0.930 . S
O83 Co72 2.039 . S
O83 C73 1.265 . S
C84 O80 1.253 . S
C84 O85 1.227 . S
O85 C84 1.227 . S
N86 Co72 2.140 . S
N86 C89 1.346 . S
N86 C90 1.345 . S
C87 C88 1.407 . S
C87 C91 1.392 . S
C88 C87 1.407 . S
C88 C89 1.369 . S
C88 H97 0.929 . S
C89 N86 1.346 . S
C89 C88 1.369 . S
C89 H92 0.928 . S
C90 N86 1.345 . S
C90 C91 1.371 . S
C90 H93 0.931 . S
C91 C87 1.392 . S
C91 C90 1.371 . S
C91 H98 0.930 1_565 S
H92 C89 0.928 . S
H93 C90 0.931 . S
H94 C70 0.930 . S
H95 C67 0.930 . S
H96 C76 0.930 . S
H97 C88 0.929 . S
H98 C91 0.930 1_545 S
C99 C100 1.351 . S
C99 N102 1.368 . S
C99 H104 0.931 . S
C100 C99 1.351 . S
C100 N101 1.373 . S
C100 H128 0.930 . S
N101 C100 1.373 . S
N101 C103 1.340 . S
N102 C99 1.368 . S
N102 C103 1.321 . S
N102 Co105 2.135 . S
C103 N101 1.340 . S
C103 N102 1.321 . S
C103 H127 0.930 . S
H104 C99 0.931 . S
Co105 N102 2.135 . S
Co105 N108 2.121 . S
Co105 O113 2.055 . S
Co105 O116 2.039 . S
Co105 N119 2.140 . S
C106 O107 1.227 . S
C106 O116 1.265 . S
O107 C106 1.227 . S
N108 Co105 2.121 . S
N108 C110 1.375 . S
N108 C111 1.313 . S
C109 C110 1.338 . S
C109 N112 1.377 . S
C109 H129 0.930 . S
C110 N108 1.375 . S
C110 C109 1.338 . S
C110 H114 0.931 . S
C111 N108 1.313 . S
C111 N112 1.344 . S
C111 H115 0.930 . S
N112 C109 1.377 . S
N112 C111 1.344 . S
O113 Co105 2.055 . S
O113 C117 1.253 . S
H114 C110 0.931 . S
H115 C111 0.930 . S
O116 Co105 2.039 . S
O116 C106 1.265 . S
C117 O113 1.253 . S
C117 O118 1.227 . S
O118 C117 1.227 . S
N119 Co105 2.140 . S
N119 C122 1.346 . S
N119 C123 1.345 . S
C120 C121 1.387 . S
C120 C124 1.391 . S
C121 C120 1.387 . S
C121 C122 1.369 . S
C121 H130 0.929 . S
C122 N119 1.346 . S
C122 C121 1.369 . S
C122 H125 0.928 . S
C123 N119 1.345 . S
C123 C124 1.371 . S
C123 H126 0.931 . S
C124 C120 1.391 . S
C124 C123 1.371 . S
C124 H131 0.930 . S
H125 C122 0.928 . S
H126 C123 0.931 . S
H127 C103 0.930 . S
H128 C100 0.930 . S
H129 C109 0.930 . S
H130 C121 0.929 . S
H131 C124 0.930 . S
C132 C133 1.351 . S
C132 N135 1.368 . S
C132 H137 0.931 . S
C133 C132 1.351 . S
C133 N134 1.373 . S
C133 H161 0.930 . S
N134 C133 1.373 . S
N134 C136 1.340 . S
N135 C132 1.368 . S
N135 C136 1.321 . S
N135 Co138 2.135 . S
C136 N134 1.340 . S
C136 N135 1.321 . S
C136 H160 0.930 . S
H137 C132 0.931 . S
Co138 N135 2.135 . S
Co138 N141 2.121 . S
Co138 O146 2.055 . S
Co138 O149 2.039 . S
Co138 N152 2.140 . S
C139 O140 1.227 . S
C139 O149 1.265 . S
O140 C139 1.227 . S
N141 Co138 2.121 . S
N141 C143 1.375 . S
N141 C144 1.313 . S
C142 C143 1.338 1_655 S
C142 N145 1.377 . S
C142 H162 0.930 . S
C143 N141 1.375 . S
C143 C142 1.338 1_455 S
C143 H147 0.931 . S
C144 N141 1.313 . S
C144 N145 1.344 1_455 S
C144 H148 0.930 . S
N145 C142 1.377 . S
N145 C144 1.344 1_655 S
O146 Co138 2.055 . S
O146 C150 1.253 . S
H147 C143 0.931 . S
H148 C144 0.930 . S
O149 Co138 2.039 . S
O149 C139 1.265 . S
C150 O146 1.253 . S
C150 O151 1.227 . S
O151 C150 1.227 . S
N152 Co138 2.140 . S
N152 C155 1.346 . S
N152 C156 1.345 . S
C153 C154 1.411 . S
C153 C157 1.393 . S
C154 C153 1.411 . S
C154 C155 1.369 . S
C154 H163 0.929 . S
C155 N152 1.346 . S
C155 C154 1.369 . S
C155 H158 0.928 . S
C156 N152 1.345 . S
C156 C157 1.371 . S
C156 H159 0.931 . S
C157 C153 1.393 . S
C157 C156 1.371 . S
C157 H164 0.963 1_565 S
H158 C155 0.928 . S
H159 C156 0.931 . S
H160 C136 0.930 . S
H161 C133 0.930 . S
H162 C142 0.930 . S
H163 C154 0.929 . S
H164 C157 0.963 1_545 S
C165 C166 1.351 . S
C165 N168 1.368 . S
C165 H170 0.931 . S
C166 C165 1.351 . S
C166 N167 1.373 . S
C166 H194 0.930 . S
N167 C166 1.373 . S
N167 C169 1.340 . S
N168 C165 1.368 . S
N168 C169 1.321 . S
N168 Co171 2.135 . S
C169 N167 1.340 . S
C169 N168 1.321 . S
C169 H193 0.930 . S
H170 C165 0.931 . S
Co171 N168 2.135 . S
Co171 N174 2.121 . S
Co171 O179 2.055 . S
Co171 O182 2.039 . S
Co171 N185 2.140 . S
C172 O173 1.227 . S
C172 O182 1.265 . S
O173 C172 1.227 . S
N174 Co171 2.121 . S
N174 C176 1.375 . S
N174 C177 1.313 . S
C175 C176 1.338 . S
C175 N178 1.377 . S
C175 H195 0.930 . S
C176 N174 1.375 . S
C176 C175 1.338 . S
C176 H180 0.931 . S
C177 N174 1.313 . S
C177 N178 1.344 . S
C177 H181 0.930 . S
N178 C175 1.377 . S
N178 C177 1.344 . S
O179 Co171 2.055 . S
O179 C183 1.253 . S
H180 C176 0.931 . S
H181 C177 0.930 . S
O182 Co171 2.039 . S
O182 C172 1.265 . S
C183 O179 1.253 . S
C183 O184 1.227 . S
O184 C183 1.227 . S
N185 Co171 2.140 . S
N185 C188 1.346 . S
N185 C189 1.345 . S
C186 C187 1.387 . S
C186 C190 1.391 . S
C187 C186 1.387 . S
C187 C188 1.369 . S
C187 H196 0.929 . S
C188 N185 1.346 . S
C188 C187 1.369 . S
C188 H191 0.928 . S
C189 N185 1.345 . S
C189 C190 1.371 . S
C189 H192 0.931 . S
C190 C186 1.391 . S
C190 C189 1.371 . S
C190 H197 0.930 . S
H191 C188 0.928 . S
H192 C189 0.931 . S
H193 C169 0.930 . S
H194 C166 0.930 . S
H195 C175 0.930 . S
H196 C187 0.929 . S
H197 C190 0.930 . S
C198 C199 1.351 . S
C198 N201 1.368 . S
C198 H203 0.931 . S
C199 C198 1.351 . S
C199 N200 1.373 . S
C199 H227 0.930 . S
N200 C199 1.373 . S
N200 C202 1.340 . S
N201 C198 1.368 . S
N201 C202 1.321 . S
N201 Co204 2.135 . S
C202 N200 1.340 . S
C202 N201 1.321 . S
C202 H226 0.930 . S
H203 C198 0.931 . S
Co204 N201 2.135 . S
Co204 N207 2.121 . S
Co204 O212 2.055 . S
Co204 O215 2.039 . S
Co204 N218 2.140 . S
C205 O206 1.227 . S
C205 O215 1.265 . S
O206 C205 1.227 . S
N207 Co204 2.121 . S
N207 C209 1.375 . S
N207 C210 1.313 . S
C208 C209 1.338 . S
C208 N211 1.377 . S
C208 H228 0.930 . S
C209 N207 1.375 . S
C209 C208 1.338 . S
C209 H213 0.931 . S
C210 N207 1.313 . S
C210 N211 1.344 . S
C210 H214 0.930 . S
N211 C208 1.377 . S
N211 C210 1.344 . S
O212 Co204 2.055 . S
O212 C216 1.253 . S
H213 C209 0.931 . S
H214 C210 0.930 . S
O215 Co204 2.039 . S
O215 C205 1.265 . S
C216 O212 1.253 . S
C216 O217 1.227 . S
O217 C216 1.227 . S
N218 Co204 2.140 . S
N218 C221 1.346 . S
N218 C222 1.345 . S
C219 C220 1.413 . S
C219 C223 1.393 . S
C220 C219 1.413 . S
C220 C221 1.369 . S
C220 H229 0.929 . S
C221 N218 1.346 . S
C221 C220 1.369 . S
C221 H224 0.928 . S
C222 N218 1.345 . S
C222 C223 1.371 . S
C222 H225 0.931 . S
C223 C219 1.393 . S
C223 C222 1.371 . S
C223 H230 0.930 1_545 S
H224 C221 0.928 . S
H225 C222 0.931 . S
H226 C202 0.930 . S
H227 C199 0.930 . S
H228 C208 0.930 . S
H229 C220 0.929 . S
H230 C223 0.930 1_565 S
C231 C232 1.351 . S
C231 N234 1.368 . S
C231 H236 0.931 . S
C232 C231 1.351 . S
C232 N233 1.373 . S
C232 H260 0.930 . S
N233 C232 1.373 . S
N233 C235 1.340 . S
N234 C231 1.368 . S
N234 C235 1.321 . S
N234 Co237 2.135 . S
C235 N233 1.340 . S
C235 N234 1.321 . S
C235 H259 0.930 . S
H236 C231 0.931 . S
Co237 N234 2.135 . S
Co237 N240 2.121 . S
Co237 O245 2.055 . S
Co237 O248 2.039 . S
Co237 N251 2.140 . S
C238 O239 1.227 . S
C238 O248 1.265 . S
O239 C238 1.227 . S
N240 Co237 2.121 . S
N240 C242 1.375 . S
N240 C243 1.313 . S
C241 C242 1.338 . S
C241 N244 1.377 . S
C241 H261 0.930 . S
C242 N240 1.375 . S
C242 C241 1.338 . S
C242 H246 0.931 . S
C243 N240 1.313 . S
C243 N244 1.344 . S
C243 H247 0.930 . S
N244 C241 1.377 . S
N244 C243 1.344 . S
O245 Co237 2.055 . S
O245 C249 1.253 . S
H246 C242 0.931 . S
H247 C243 0.930 . S
O248 Co237 2.039 . S
O248 C238 1.265 . S
C249 O245 1.253 . S
C249 O250 1.227 . S
O250 C249 1.227 . S
N251 Co237 2.140 . S
N251 C254 1.346 . S
N251 C255 1.345 . S
C252 C253 1.387 . S
C252 C256 1.391 . S
C253 C252 1.387 . S
C253 C254 1.369 . S
C253 H262 0.929 . S
C254 N251 1.346 . S
C254 C253 1.369 . S
C254 H257 0.928 . S
C255 N251 1.345 . S
C255 C256 1.371 . S
C255 H258 0.931 . S
C256 C252 1.391 . S
C256 C255 1.371 . S
C256 H263 0.930 . S
H257 C254 0.928 . S
H258 C255 0.931 . S
H259 C235 0.930 . S
H260 C232 0.930 . S
H261 C241 0.930 . S
H262 C253 0.929 . S
H263 C256 0.930 . S
C264 C265 1.351 . S
C264 N267 1.368 . S
C264 H269 0.931 . S
C265 C264 1.351 . S
C265 N266 1.373 . S
C265 H293 0.930 . S
N266 C265 1.373 . S
N266 C268 1.340 . S
N267 C264 1.368 . S
N267 C268 1.321 . S
N267 Co270 2.135 . S
C268 N266 1.340 . S
C268 N267 1.321 . S
C268 H292 0.930 . S
H269 C264 0.931 . S
Co270 N267 2.135 . S
Co270 N273 2.121 . S
Co270 O278 2.055 . S
Co270 O281 2.039 . S
Co270 N284 2.140 . S
C271 O272 1.227 . S
C271 O281 1.265 . S
O272 C271 1.227 . S
N273 Co270 2.121 . S
N273 C275 1.375 . S
N273 C276 1.313 . S
C274 C275 1.338 1_565 S
C274 N277 1.377 . S
C274 H294 0.930 . S
C275 N273 1.375 . S
C275 C274 1.338 1_545 S
C275 H279 0.931 . S
C276 N273 1.313 . S
C276 N277 1.344 1_545 S
C276 H280 0.930 . S
N277 C274 1.377 . S
N277 C276 1.344 1_565 S
O278 Co270 2.055 . S
O278 C282 1.253 . S
H279 C275 0.931 . S
H280 C276 0.930 . S
O281 Co270 2.039 . S
O281 C271 1.265 . S
C282 O278 1.253 . S
C282 O283 1.227 . S
O283 C282 1.227 . S
N284 Co270 2.140 . S
N284 C287 1.346 . S
N284 C288 1.345 . S
C285 C286 1.407 . S
C285 C289 1.392 . S
C286 C285 1.407 . S
C286 C287 1.369 . S
C286 H295 0.929 . S
C287 N284 1.346 . S
C287 C286 1.369 . S
C287 H290 0.928 . S
C288 N284 1.345 . S
C288 C289 1.371 . S
C288 H291 0.931 . S
C289 C285 1.392 . S
C289 C288 1.371 . S
C289 H296 0.961 1_554 S
H290 C287 0.928 . S
H291 C288 0.931 . S
H292 C268 0.930 . S
H293 C265 0.930 . S
H294 C274 0.930 . S
H295 C286 0.929 . S
H296 C289 0.961 1_556 S
C297 C298 1.351 . S
C297 N300 1.368 . S
C297 H302 0.931 . S
C298 C297 1.351 . S
C298 N299 1.373 . S
C298 H326 0.930 . S
N299 C298 1.373 . S
N299 C301 1.340 . S
N300 C297 1.368 . S
N300 C301 1.321 . S
N300 Co303 2.135 . S
C301 N299 1.340 . S
C301 N300 1.321 . S
C301 H325 0.930 . S
H302 C297 0.931 . S
Co303 N300 2.135 . S
Co303 N306 2.121 . S
Co303 O311 2.055 . S
Co303 O314 2.039 . S
Co303 N317 2.140 . S
C304 O305 1.227 . S
C304 O314 1.265 . S
O305 C304 1.227 . S
N306 Co303 2.121 . S
N306 C308 1.375 . S
N306 C309 1.313 . S
C307 C308 1.338 . S
C307 N310 1.377 . S
C307 H327 0.930 . S
C308 N306 1.375 . S
C308 C307 1.338 . S
C308 H312 0.931 . S
C309 N306 1.313 . S
C309 N310 1.344 . S
C309 H313 0.930 . S
N310 C307 1.377 . S
N310 C309 1.344 . S
O311 Co303 2.055 . S
O311 C315 1.253 . S
H312 C308 0.931 . S
H313 C309 0.930 . S
O314 Co303 2.039 . S
O314 C304 1.265 . S
C315 O311 1.253 . S
C315 O316 1.227 . S
O316 C315 1.227 . S
N317 Co303 2.140 . S
N317 C320 1.346 . S
N317 C321 1.345 . S
C318 C319 1.387 . S
C318 C322 1.391 . S
C319 C318 1.387 . S
C319 C320 1.369 . S
C319 H328 0.929 . S
C320 N317 1.346 . S
C320 C319 1.369 . S
C320 H323 0.928 . S
C321 N317 1.345 . S
C321 C322 1.371 . S
C321 H324 0.931 . S
C322 C318 1.391 . S
C322 C321 1.371 . S
C322 H329 0.930 . S
H323 C320 0.928 . S
H324 C321 0.931 . S
H325 C301 0.930 . S
H326 C298 0.930 . S
H327 C307 0.930 . S
H328 C319 0.929 . S
H329 C322 0.930 . S
C330 C331 1.351 . S
C330 N333 1.368 . S
C330 H335 0.931 . S
C331 C330 1.351 . S
C331 N332 1.373 . S
C331 H359 0.930 . S
N332 C331 1.373 . S
N332 C334 1.340 . S
N333 C330 1.368 . S
N333 C334 1.321 . S
N333 Co336 2.135 . S
C334 N332 1.340 . S
C334 N333 1.321 . S
C334 H358 0.930 . S
H335 C330 0.931 . S
Co336 N333 2.135 . S
Co336 N339 2.121 . S
Co336 O344 2.055 . S
Co336 O347 2.039 . S
Co336 N350 2.140 . S
C337 O338 1.227 . S
C337 O347 1.265 . S
O338 C337 1.227 . S
N339 Co336 2.121 . S
N339 C341 1.375 . S
N339 C342 1.313 . S
C340 C341 1.338 1_545 S
C340 N343 1.377 . S
C340 H360 0.930 . S
C341 N339 1.375 . S
C341 C340 1.338 1_565 S
C341 H345 0.931 . S
C342 N339 1.313 . S
C342 N343 1.344 1_565 S
C342 H346 0.930 . S
N343 C340 1.377 . S
N343 C342 1.344 1_545 S
O344 Co336 2.055 . S
O344 C348 1.253 . S
H345 C341 0.931 . S
H346 C342 0.930 . S
O347 Co336 2.039 . S
O347 C337 1.265 . S
C348 O344 1.253 . S
C348 O349 1.227 . S
O349 C348 1.227 . S
N350 Co336 2.140 . S
N350 C353 1.346 . S
N350 C354 1.345 . S
C351 C352 1.387 . S
C351 C355 1.391 . S
C352 C351 1.387 . S
C352 C353 1.369 . S
C352 H361 0.929 . S
C353 N350 1.346 . S
C353 C352 1.369 . S
C353 H356 0.928 . S
C354 N350 1.345 . S
C354 C355 1.371 . S
C354 H357 0.931 . S
C355 C351 1.391 . S
C355 C354 1.371 . S
C355 H362 0.962 . S
H356 C353 0.928 . S
H357 C354 0.931 . S
H358 C334 0.930 . S
H359 C331 0.930 . S
H360 C340 0.930 . S
H361 C352 0.929 . S
H362 C355 0.962 . S
C363 C364 1.351 . S
C363 N366 1.368 . S
C363 H368 0.931 . S
C364 C363 1.351 . S
C364 N365 1.373 . S
C364 H392 0.930 . S
N365 C364 1.373 . S
N365 C367 1.340 . S
N366 C363 1.368 . S
N366 C367 1.321 . S
N366 Co369 2.135 . S
C367 N365 1.340 . S
C367 N366 1.321 . S
C367 H391 0.930 . S
H368 C363 0.931 . S
Co369 N366 2.135 . S
Co369 N372 2.121 . S
Co369 O377 2.055 . S
Co369 O380 2.039 . S
Co369 N383 2.140 . S
C370 O371 1.227 . S
C370 O380 1.265 . S
O371 C370 1.227 . S
N372 Co369 2.121 . S
N372 C374 1.375 . S
N372 C375 1.313 . S
C373 C374 1.338 . S
C373 N376 1.377 . S
C373 H393 0.930 . S
C374 N372 1.375 . S
C374 C373 1.338 . S
C374 H378 0.931 . S
C375 N372 1.313 . S
C375 N376 1.344 . S
C375 H379 0.930 . S
N376 C373 1.377 . S
N376 C375 1.344 . S
O377 Co369 2.055 . S
O377 C381 1.253 . S
H378 C374 0.931 . S
H379 C375 0.930 . S
O380 Co369 2.039 . S
O380 C370 1.265 . S
C381 O377 1.253 . S
C381 O382 1.227 . S
O382 C381 1.227 . S
N383 Co369 2.140 . S
N383 C386 1.346 . S
N383 C387 1.345 . S
C384 C385 1.387 . S
C384 C388 1.391 . S
C385 C384 1.387 . S
C385 C386 1.369 . S
C385 H394 0.929 . S
C386 N383 1.346 . S
C386 C385 1.369 . S
C386 H389 0.928 . S
C387 N383 1.345 . S
C387 C388 1.371 . S
C387 H390 0.931 . S
C388 C384 1.391 . S
C388 C387 1.371 . S
C388 H395 0.930 . S
H389 C386 0.928 . S
H390 C387 0.931 . S
H391 C367 0.930 . S
H392 C364 0.930 . S
H393 C373 0.930 . S
H394 C385 0.929 . S
H395 C388 0.930 . S
C396 C397 1.351 . S
C396 N399 1.368 . S
C396 H401 0.931 . S
C397 C396 1.351 . S
C397 N398 1.373 . S
C397 H425 0.930 . S
N398 C397 1.373 . S
N398 C400 1.340 . S
N399 C396 1.368 . S
N399 C400 1.321 . S
N399 Co402 2.135 . S
C400 N398 1.340 . S
C400 N399 1.321 . S
C400 H424 0.930 . S
H401 C396 0.931 . S
Co402 N399 2.135 . S
Co402 N405 2.121 . S
Co402 O410 2.055 . S
Co402 O413 2.039 . S
Co402 N416 2.140 . S
C403 O404 1.227 . S
C403 O413 1.265 . S
O404 C403 1.227 . S
N405 Co402 2.121 . S
N405 C407 1.375 . S
N405 C408 1.313 . S
C406 C407 1.338 1_545 S
C406 N409 1.377 . S
C406 H426 0.930 . S
C407 N405 1.375 . S
C407 C406 1.338 1_565 S
C407 H411 0.931 . S
C408 N405 1.313 . S
C408 N409 1.344 1_565 S
C408 H412 0.930 . S
N409 C406 1.377 . S
N409 C408 1.344 1_545 S
O410 Co402 2.055 . S
O410 C414 1.253 . S
H411 C407 0.931 . S
H412 C408 0.930 . S
O413 Co402 2.039 . S
O413 C403 1.265 . S
C414 O410 1.253 . S
C414 O415 1.227 . S
O415 C414 1.227 . S
N416 Co402 2.140 . S
N416 C419 1.346 . S
N416 C420 1.345 . S
C417 C418 1.387 . S
C417 C421 1.391 . S
C418 C417 1.387 . S
C418 C419 1.369 . S
C418 H427 0.929 . S
C419 N416 1.346 . S
C419 C418 1.369 . S
C419 H422 0.928 . S
C420 N416 1.345 . S
C420 C421 1.371 . S
C420 H423 0.931 . S
C421 C417 1.391 . S
C421 C420 1.371 . S
C421 H428 0.960 . S
H422 C419 0.928 . S
H423 C420 0.931 . S
H424 C400 0.930 . S
H425 C397 0.930 . S
H426 C406 0.930 . S
H427 C418 0.929 . S
H428 C421 0.960 . S
C429 C430 1.351 . S
C429 N432 1.368 . S
C429 H434 0.931 . S
C430 C429 1.351 . S
C430 N431 1.373 . S
C430 H458 0.930 . S
N431 C430 1.373 . S
N431 C433 1.340 . S
N432 C429 1.368 . S
N432 C433 1.321 . S
N432 Co435 2.135 . S
C433 N431 1.340 . S
C433 N432 1.321 . S
C433 H457 0.930 . S
H434 C429 0.931 . S
Co435 N432 2.135 . S
Co435 N438 2.121 . S
Co435 O443 2.055 . S
Co435 O446 2.039 . S
Co435 N449 2.140 . S
C436 O437 1.227 . S
C436 O446 1.265 . S
O437 C436 1.227 . S
N438 Co435 2.121 . S
N438 C440 1.375 . S
N438 C441 1.313 . S
C439 C440 1.338 . S
C439 N442 1.377 . S
C439 H459 0.930 . S
C440 N438 1.375 . S
C440 C439 1.338 . S
C440 H444 0.931 . S
C441 N438 1.313 . S
C441 N442 1.344 . S
C441 H445 0.930 . S
N442 C439 1.377 . S
N442 C441 1.344 . S
O443 Co435 2.055 . S
O443 C447 1.253 . S
H444 C440 0.931 . S
H445 C441 0.930 . S
O446 Co435 2.039 . S
O446 C436 1.265 . S
C447 O443 1.253 . S
C447 O448 1.227 . S
O448 C447 1.227 . S
N449 Co435 2.140 . S
N449 C452 1.346 . S
N449 C453 1.345 . S
C450 C451 1.387 . S
C450 C454 1.391 . S
C451 C450 1.387 . S
C451 C452 1.369 . S
C451 H460 0.929 . S
C452 N449 1.346 . S
C452 C451 1.369 . S
C452 H455 0.928 . S
C453 N449 1.345 . S
C453 C454 1.371 . S
C453 H456 0.931 . S
C454 C450 1.391 . S
C454 C453 1.371 . S
C454 H461 0.930 . S
H455 C452 0.928 . S
H456 C453 0.931 . S
H457 C433 0.930 . S
H458 C430 0.930 . S
H459 C439 0.930 . S
H460 C451 0.929 . S
H461 C454 0.930 . S
C462 C463 1.351 . S
C462 N465 1.368 . S
C462 H467 0.931 . S
C463 C462 1.351 . S
C463 N464 1.373 . S
C463 H491 0.930 . S
N464 C463 1.373 . S
N464 C466 1.340 . S
N465 C462 1.368 . S
N465 C466 1.321 . S
N465 Co468 2.135 . S
C466 N464 1.340 . S
C466 N465 1.321 . S
C466 H490 0.930 . S
H467 C462 0.931 . S
Co468 N465 2.135 . S
Co468 N471 2.121 . S
Co468 O476 2.055 . S
Co468 O479 2.039 . S
Co468 N482 2.140 . S
C469 O470 1.227 . S
C469 O479 1.265 . S
O470 C469 1.227 . S
N471 Co468 2.121 . S
N471 C473 1.375 . S
N471 C474 1.313 . S
C472 C473 1.338 1_565 S
C472 N475 1.377 . S
C472 H492 0.930 . S
C473 N471 1.375 . S
C473 C472 1.338 1_545 S
C473 H477 0.931 . S
C474 N471 1.313 . S
C474 N475 1.344 1_545 S
C474 H478 0.930 . S
N475 C472 1.377 . S
N475 C474 1.344 1_565 S
O476 Co468 2.055 . S
O476 C480 1.253 . S
H477 C473 0.931 . S
H478 C474 0.930 . S
O479 Co468 2.039 . S
O479 C469 1.265 . S
C480 O476 1.253 . S
C480 O481 1.227 . S
O481 C480 1.227 . S
N482 Co468 2.140 . S
N482 C485 1.346 . S
N482 C486 1.345 . S
C483 C484 1.411 . S
C483 C487 1.393 . S
C484 C483 1.411 . S
C484 C485 1.369 . S
C484 H493 0.929 . S
C485 N482 1.346 . S
C485 C484 1.369 . S
C485 H488 0.928 . S
C486 N482 1.345 . S
C486 C487 1.371 . S
C486 H489 0.931 . S
C487 C483 1.393 . S
C487 C486 1.371 . S
C487 H494 0.963 1_556 S
H488 C485 0.928 . S
H489 C486 0.931 . S
H490 C466 0.930 . S
H491 C463 0.930 . S
H492 C472 0.930 . S
H493 C484 0.929 . S
H494 C487 0.963 1_554 S
C495 C496 1.351 . S
C495 N498 1.368 . S
C495 H500 0.931 . S
C496 C495 1.351 . S
C496 N497 1.373 . S
C496 H524 0.930 . S
N497 C496 1.373 . S
N497 C499 1.340 . S
N498 C495 1.368 . S
N498 C499 1.321 . S
N498 Co501 2.135 . S
C499 N497 1.340 . S
C499 N498 1.321 . S
C499 H523 0.930 . S
H500 C495 0.931 . S
Co501 N498 2.135 . S
Co501 N504 2.121 . S
Co501 O509 2.055 . S
Co501 O512 2.039 . S
Co501 N515 2.140 . S
C502 O503 1.227 . S
C502 O512 1.265 . S
O503 C502 1.227 . S
N504 Co501 2.121 . S
N504 C506 1.375 . S
N504 C507 1.313 . S
C505 C506 1.338 . S
C505 N508 1.377 . S
C505 H525 0.930 . S
C506 N504 1.375 . S
C506 C505 1.338 . S
C506 H510 0.931 . S
C507 N504 1.313 . S
C507 N508 1.344 . S
C507 H511 0.930 . S
N508 C505 1.377 . S
N508 C507 1.344 . S
O509 Co501 2.055 . S
O509 C513 1.253 . S
H510 C506 0.931 . S
H511 C507 0.930 . S
O512 Co501 2.039 . S
O512 C502 1.265 . S
C513 O509 1.253 . S
C513 O514 1.227 . S
O514 C513 1.227 . S
N515 Co501 2.140 . S
N515 C518 1.346 . S
N515 C519 1.345 . S
C516 C517 1.387 . S
C516 C520 1.391 . S
C517 C516 1.387 . S
C517 C518 1.369 . S
C517 H526 0.929 . S
C518 N515 1.346 . S
C518 C517 1.369 . S
C518 H521 0.928 . S
C519 N515 1.345 . S
C519 C520 1.371 . S
C519 H522 0.931 . S
C520 C516 1.391 . S
C520 C519 1.371 . S
C520 H527 0.930 . S
H521 C518 0.928 . S
H522 C519 0.931 . S
H523 C499 0.930 . S
H524 C496 0.930 . S
H525 C505 0.930 . S
H526 C517 0.929 . S
H527 C520 0.930 . S
C528 C529 1.351 . S
C528 N531 1.368 . S
C528 H533 0.931 . S
C529 C528 1.351 . S
C529 N530 1.373 . S
C529 H557 0.930 . S
N530 C529 1.373 . S
N530 C532 1.340 . S
N531 C528 1.368 . S
N531 C532 1.321 . S
N531 Co534 2.135 . S
C532 N530 1.340 . S
C532 N531 1.321 . S
C532 H556 0.930 . S
H533 C528 0.931 . S
Co534 N531 2.135 . S
Co534 N537 2.121 . S
Co534 O542 2.055 . S
Co534 O545 2.039 . S
Co534 N548 2.140 . S
C535 O536 1.227 . S
C535 O545 1.265 . S
O536 C535 1.227 . S
N537 Co534 2.121 . S
N537 C539 1.375 . S
N537 C540 1.313 . S
C538 C539 1.338 1_556 S
C538 N541 1.377 . S
C538 H558 0.930 . S
C539 N537 1.375 . S
C539 C538 1.338 1_554 S
C539 H543 0.931 . S
C540 N537 1.313 . S
C540 N541 1.344 1_554 S
C540 H544 0.930 . S
N541 C538 1.377 . S
N541 C540 1.344 1_556 S
O542 Co534 2.055 . S
O542 C546 1.253 . S
H543 C539 0.931 . S
H544 C540 0.930 . S
O545 Co534 2.039 . S
O545 C535 1.265 . S
C546 O542 1.253 . S
C546 O547 1.227 . S
O547 C546 1.227 . S
N548 Co534 2.140 . S
N548 C551 1.346 . S
N548 C552 1.345 . S
C549 C550 1.407 . S
C549 C553 1.392 . S
C550 C549 1.407 . S
C550 C551 1.369 . S
C550 H559 0.929 . S
C551 N548 1.346 . S
C551 C550 1.369 . S
C551 H554 0.928 . S
C552 N548 1.345 . S
C552 C553 1.371 . S
C552 H555 0.931 . S
C553 C549 1.392 . S
C553 C552 1.371 . S
C553 H560 0.961 1_455 S
H554 C551 0.928 . S
H555 C552 0.931 . S
H556 C532 0.930 . S
H557 C529 0.930 . S
H558 C538 0.930 . S
H559 C550 0.929 . S
H560 C553 0.961 1_655 S
C561 C562 1.351 . S
C561 N564 1.368 . S
C561 H566 0.931 . S
C562 C561 1.351 . S
C562 N563 1.373 . S
C562 H590 0.930 . S
N563 C562 1.373 . S
N563 C565 1.340 . S
N564 C561 1.368 . S
N564 C565 1.321 . S
N564 Co567 2.135 . S
C565 N563 1.340 . S
C565 N564 1.321 . S
C565 H589 0.930 . S
H566 C561 0.931 . S
Co567 N564 2.135 . S
Co567 N570 2.121 . S
Co567 O575 2.055 . S
Co567 O578 2.039 . S
Co567 N581 2.140 . S
C568 O569 1.227 . S
C568 O578 1.265 . S
O569 C568 1.227 . S
N570 Co567 2.121 . S
N570 C572 1.375 . S
N570 C573 1.313 . S
C571 C572 1.338 1_554 S
C571 N574 1.377 . S
C571 H591 0.930 . S
C572 N570 1.375 . S
C572 C571 1.338 1_556 S
C572 H576 0.931 . S
C573 N570 1.313 . S
C573 N574 1.344 1_556 S
C573 H577 0.930 . S
N574 C571 1.377 . S
N574 C573 1.344 1_554 S
O575 Co567 2.055 . S
O575 C579 1.253 . S
H576 C572 0.931 . S
H577 C573 0.930 . S
O578 Co567 2.039 . S
O578 C568 1.265 . S
C579 O575 1.253 . S
C579 O580 1.227 . S
O580 C579 1.227 . S
N581 Co567 2.140 . S
N581 C584 1.346 . S
N581 C585 1.345 . S
C582 C583 1.387 . S
C582 C586 1.391 . S
C583 C582 1.387 . S
C583 C584 1.369 . S
C583 H592 0.929 . S
C584 N581 1.346 . S
C584 C583 1.369 . S
C584 H587 0.928 . S
C585 N581 1.345 . S
C585 C586 1.371 . S
C585 H588 0.931 . S
C586 C582 1.391 . S
C586 C585 1.371 . S
C586 H593 0.962 . S
H587 C584 0.928 . S
H588 C585 0.931 . S
H589 C565 0.930 . S
H590 C562 0.930 . S
H591 C571 0.930 . S
H592 C583 0.929 . S
H593 C586 0.962 . S
C594 C595 1.351 . S
C594 N597 1.368 . S
C594 H599 0.931 . S
C595 C594 1.351 . S
C595 N596 1.373 . S
C595 H623 0.930 . S
N596 C595 1.373 . S
N596 C598 1.340 . S
N597 C594 1.368 . S
N597 C598 1.321 . S
N597 Co600 2.135 . S
C598 N596 1.340 . S
C598 N597 1.321 . S
C598 H622 0.930 . S
H599 C594 0.931 . S
Co600 N597 2.135 . S
Co600 N603 2.121 . S
Co600 O608 2.055 . S
Co600 O611 2.039 . S
Co600 N614 2.140 . S
C601 O602 1.227 . S
C601 O611 1.265 . S
O602 C601 1.227 . S
N603 Co600 2.121 . S
N603 C605 1.375 . S
N603 C606 1.313 . S
C604 C605 1.338 . S
C604 N607 1.377 . S
C604 H624 0.930 . S
C605 N603 1.375 . S
C605 C604 1.338 . S
C605 H609 0.931 . S
C606 N603 1.313 . S
C606 N607 1.344 . S
C606 H610 0.930 . S
N607 C604 1.377 . S
N607 C606 1.344 . S
O608 Co600 2.055 . S
O608 C612 1.253 . S
H609 C605 0.931 . S
H610 C606 0.930 . S
O611 Co600 2.039 . S
O611 C601 1.265 . S
C612 O608 1.253 . S
C612 O613 1.227 . S
O613 C612 1.227 . S
N614 Co600 2.140 . S
N614 C617 1.346 . S
N614 C618 1.345 . S
C615 C616 1.387 . S
C615 C619 1.391 . S
C616 C615 1.387 . S
C616 C617 1.369 . S
C616 H625 0.929 . S
C617 N614 1.346 . S
C617 C616 1.369 . S
C617 H620 0.928 . S
C618 N614 1.345 . S
C618 C619 1.371 . S
C618 H621 0.931 . S
C619 C615 1.391 . S
C619 C618 1.371 . S
C619 H626 0.930 . S
H620 C617 0.928 . S
H621 C618 0.931 . S
H622 C598 0.930 . S
H623 C595 0.930 . S
H624 C604 0.930 . S
H625 C616 0.929 . S
H626 C619 0.930 . S
C627 C628 1.351 . S
C627 N630 1.368 . S
C627 H632 0.931 . S
C628 C627 1.351 . S
C628 N629 1.373 . S
C628 H656 0.930 . S
N629 C628 1.373 . S
N629 C631 1.340 . S
N630 C627 1.368 . S
N630 C631 1.321 . S
N630 Co633 2.135 . S
C631 N629 1.340 . S
C631 N630 1.321 . S
C631 H655 0.930 . S
H632 C627 0.931 . S
Co633 N630 2.135 . S
Co633 N636 2.121 . S
Co633 O641 2.055 . S
Co633 O644 2.039 . S
Co633 N647 2.140 . S
C634 O635 1.227 . S
C634 O644 1.265 . S
O635 C634 1.227 . S
N636 Co633 2.121 . S
N636 C638 1.375 . S
N636 C639 1.313 . S
C637 C638 1.338 . S
C637 N640 1.377 . S
C637 H657 0.930 . S
C638 N636 1.375 . S
C638 C637 1.338 . S
C638 H642 0.931 . S
C639 N636 1.313 . S
C639 N640 1.344 . S
C639 H643 0.930 . S
N640 C637 1.377 . S
N640 C639 1.344 . S
O641 Co633 2.055 . S
O641 C645 1.253 . S
H642 C638 0.931 . S
H643 C639 0.930 . S
O644 Co633 2.039 . S
O644 C634 1.265 . S
C645 O641 1.253 . S
C645 O646 1.227 . S
O646 C645 1.227 . S
N647 Co633 2.140 . S
N647 C650 1.346 . S
N647 C651 1.345 . S
C648 C649 1.407 . S
C648 C652 1.392 . S
C649 C648 1.407 . S
C649 C650 1.369 . S
C649 H658 0.929 . S
C650 N647 1.346 . S
C650 C649 1.369 . S
C650 H653 0.928 . S
C651 N647 1.345 . S
C651 C652 1.371 . S
C651 H654 0.931 . S
C652 C648 1.392 . S
C652 C651 1.371 . S
C652 H659 0.930 1_655 S
H653 C650 0.928 . S
H654 C651 0.931 . S
H655 C631 0.930 . S
H656 C628 0.930 . S
H657 C637 0.930 . S
H658 C649 0.929 . S
H659 C652 0.930 1_455 S
C660 C661 1.351 . S
C660 N663 1.368 . S
C660 H665 0.931 . S
C661 C660 1.351 . S
C661 N662 1.373 . S
C661 H689 0.930 . S
N662 C661 1.373 . S
N662 C664 1.340 . S
N663 C660 1.368 . S
N663 C664 1.321 . S
N663 Co666 2.135 . S
C664 N662 1.340 . S
C664 N663 1.321 . S
C664 H688 0.930 . S
H665 C660 0.931 . S
Co666 N663 2.135 . S
Co666 N669 2.121 . S
Co666 O674 2.055 . S
Co666 O677 2.039 . S
Co666 N680 2.140 . S
C667 O668 1.227 . S
C667 O677 1.265 . S
O668 C667 1.227 . S
N669 Co666 2.121 . S
N669 C671 1.375 . S
N669 C672 1.313 . S
C670 C671 1.338 . S
C670 N673 1.377 . S
C670 H690 0.930 . S
C671 N669 1.375 . S
C671 C670 1.338 . S
C671 H675 0.931 . S
C672 N669 1.313 . S
C672 N673 1.344 . S
C672 H676 0.930 . S
N673 C670 1.377 . S
N673 C672 1.344 . S
O674 Co666 2.055 . S
O674 C678 1.253 . S
H675 C671 0.931 . S
H676 C672 0.930 . S
O677 Co666 2.039 . S
O677 C667 1.265 . S
C678 O674 1.253 . S
C678 O679 1.227 . S
O679 C678 1.227 . S
N680 Co666 2.140 . S
N680 C683 1.346 . S
N680 C684 1.345 . S
C681 C682 1.387 . S
C681 C685 1.391 . S
C682 C681 1.387 . S
C682 C683 1.369 . S
C682 H691 0.929 . S
C683 N680 1.346 . S
C683 C682 1.369 . S
C683 H686 0.928 . S
C684 N680 1.345 . S
C684 C685 1.371 . S
C684 H687 0.931 . S
C685 C681 1.391 . S
C685 C684 1.371 . S
C685 H692 0.930 . S
H686 C683 0.928 . S
H687 C684 0.931 . S
H688 C664 0.930 . S
H689 C661 0.930 . S
H690 C670 0.930 . S
H691 C682 0.929 . S
H692 C685 0.930 . S
C693 C694 1.351 . S
C693 N696 1.368 . S
C693 H698 0.931 . S
C694 C693 1.351 . S
C694 N695 1.373 . S
C694 H722 0.930 . S
N695 C694 1.373 . S
N695 C697 1.340 . S
N696 C693 1.368 . S
N696 C697 1.321 . S
N696 Co699 2.135 . S
C697 N695 1.340 . S
C697 N696 1.321 . S
C697 H721 0.930 . S
H698 C693 0.931 . S
Co699 N696 2.135 . S
Co699 N702 2.121 . S
Co699 O707 2.055 . S
Co699 O710 2.039 . S
Co699 N713 2.140 . S
C700 O701 1.227 . S
C700 O710 1.265 . S
O701 C700 1.227 . S
N702 Co699 2.121 . S
N702 C704 1.375 . S
N702 C705 1.313 . S
C703 C704 1.338 . S
C703 N706 1.377 . S
C703 H723 0.930 . S
C704 N702 1.375 . S
C704 C703 1.338 . S
C704 H708 0.931 . S
C705 N702 1.313 . S
C705 N706 1.344 . S
C705 H709 0.930 . S
N706 C703 1.377 . S
N706 C705 1.344 . S
O707 Co699 2.055 . S
O707 C711 1.253 . S
H708 C704 0.931 . S
H709 C705 0.930 . S
O710 Co699 2.039 . S
O710 C700 1.265 . S
C711 O707 1.253 . S
C711 O712 1.227 . S
O712 C711 1.227 . S
N713 Co699 2.140 . S
N713 C716 1.346 . S
N713 C717 1.345 . S
C714 C715 1.387 . S
C714 C718 1.391 . S
C715 C714 1.387 . S
C715 C716 1.369 . S
C715 H724 0.929 . S
C716 N713 1.346 . S
C716 C715 1.369 . S
C716 H719 0.928 . S
C717 N713 1.345 . S
C717 C718 1.371 . S
C717 H720 0.931 . S
C718 C714 1.391 . S
C718 C717 1.371 . S
C718 H725 0.930 . S
H719 C716 0.928 . S
H720 C717 0.931 . S
H721 C697 0.930 . S
H722 C694 0.930 . S
H723 C703 0.930 . S
H724 C715 0.929 . S
H725 C718 0.930 . S
C726 C727 1.351 . S
C726 N729 1.368 . S
C726 H731 0.931 . S
C727 C726 1.351 . S
C727 N728 1.373 . S
C727 H755 0.930 . S
N728 C727 1.373 . S
N728 C730 1.340 . S
N729 C726 1.368 . S
N729 C730 1.321 . S
N729 Co732 2.135 . S
C730 N728 1.340 . S
C730 N729 1.321 . S
C730 H754 0.930 . S
H731 C726 0.931 . S
Co732 N729 2.135 . S
Co732 N735 2.121 . S
Co732 O740 2.055 . S
Co732 O743 2.039 . S
Co732 N746 2.140 . S
C733 O734 1.227 . S
C733 O743 1.265 . S
O734 C733 1.227 . S
N735 Co732 2.121 . S
N735 C737 1.375 . S
N735 C738 1.313 . S
C736 C737 1.338 . S
C736 N739 1.377 . S
C736 H756 0.930 . S
C737 N735 1.375 . S
C737 C736 1.338 . S
C737 H741 0.931 . S
C738 N735 1.313 . S
C738 N739 1.344 . S
C738 H742 0.930 . S
N739 C736 1.377 . S
N739 C738 1.344 . S
O740 Co732 2.055 . S
O740 C744 1.253 . S
H741 C737 0.931 . S
H742 C738 0.930 . S
O743 Co732 2.039 . S
O743 C733 1.265 . S
C744 O740 1.253 . S
C744 O745 1.227 . S
O745 C744 1.227 . S
N746 Co732 2.140 . S
N746 C749 1.346 . S
N746 C750 1.345 . S
C747 C748 1.387 . S
C747 C751 1.391 . S
C748 C747 1.387 . S
C748 C749 1.369 . S
C748 H757 0.929 . S
C749 N746 1.346 . S
C749 C748 1.369 . S
C749 H752 0.928 . S
C750 N746 1.345 . S
C750 C751 1.371 . S
C750 H753 0.931 . S
C751 C747 1.391 . S
C751 C750 1.371 . S
C751 H758 0.930 . S
H752 C749 0.928 . S
H753 C750 0.931 . S
H754 C730 0.930 . S
H755 C727 0.930 . S
H756 C736 0.930 . S
H757 C748 0.929 . S
H758 C751 0.930 . S
C759 C760 1.351 . S
C759 N762 1.368 . S
C759 H764 0.931 . S
C760 C759 1.351 . S
C760 N761 1.373 . S
C760 H788 0.930 . S
N761 C760 1.373 . S
N761 C763 1.340 . S
N762 C759 1.368 . S
N762 C763 1.321 . S
N762 Co765 2.135 . S
C763 N761 1.340 . S
C763 N762 1.321 . S
C763 H787 0.930 . S
H764 C759 0.931 . S
Co765 N762 2.135 . S
Co765 N768 2.121 . S
Co765 O773 2.055 . S
Co765 O776 2.039 . S
Co765 N779 2.140 . S
C766 O767 1.227 . S
C766 O776 1.265 . S
O767 C766 1.227 . S
N768 Co765 2.121 . S
N768 C770 1.375 . S
N768 C771 1.313 . S
C769 C770 1.338 . S
C769 N772 1.377 . S
C769 H789 0.930 . S
C770 N768 1.375 . S
C770 C769 1.338 . S
C770 H774 0.931 . S
C771 N768 1.313 . S
C771 N772 1.344 . S
C771 H775 0.930 . S
N772 C769 1.377 . S
N772 C771 1.344 . S
O773 Co765 2.055 . S
O773 C777 1.253 . S
H774 C770 0.931 . S
H775 C771 0.930 . S
O776 Co765 2.039 . S
O776 C766 1.265 . S
C777 O773 1.253 . S
C777 O778 1.227 . S
O778 C777 1.227 . S
N779 Co765 2.140 . S
N779 C782 1.346 . S
N779 C783 1.345 . S
C780 C781 1.387 . S
C780 C784 1.391 . S
C781 C780 1.387 . S
C781 C782 1.369 . S
C781 H790 0.929 . S
C782 N779 1.346 . S
C782 C781 1.369 . S
C782 H785 0.928 . S
C783 N779 1.345 . S
C783 C784 1.371 . S
C783 H786 0.931 . S
C784 C780 1.391 . S
C784 C783 1.371 . S
C784 H791 0.930 . S
H785 C782 0.928 . S
H786 C783 0.931 . S
H787 C763 0.930 . S
H788 C760 0.930 . S
H789 C769 0.930 . S
H790 C781 0.929 . S
H791 C784 0.930 . S
C792 C793 1.351 . S
C792 N795 1.368 . S
C792 H797 0.931 . S
C793 C792 1.351 . S
C793 N794 1.373 . S
C793 H821 0.930 . S
N794 C793 1.373 . S
N794 C796 1.340 . S
N795 C792 1.368 . S
N795 C796 1.321 . S
N795 Co798 2.135 . S
C796 N794 1.340 . S
C796 N795 1.321 . S
C796 H820 0.930 . S
H797 C792 0.931 . S
Co798 N795 2.135 . S
Co798 N801 2.121 . S
Co798 O806 2.055 . S
Co798 O809 2.039 . S
Co798 N812 2.140 . S
C799 O800 1.227 . S
C799 O809 1.265 . S
O800 C799 1.227 . S
N801 Co798 2.121 . S
N801 C803 1.375 . S
N801 C804 1.313 . S
C802 C803 1.338 . S
C802 N805 1.377 . S
C802 H822 0.930 . S
C803 N801 1.375 . S
C803 C802 1.338 . S
C803 H807 0.931 . S
C804 N801 1.313 . S
C804 N805 1.344 . S
C804 H808 0.930 . S
N805 C802 1.377 . S
N805 C804 1.344 . S
O806 Co798 2.055 . S
O806 C810 1.253 . S
H807 C803 0.931 . S
H808 C804 0.930 . S
O809 Co798 2.039 . S
O809 C799 1.265 . S
C810 O806 1.253 . S
C810 O811 1.227 . S
O811 C810 1.227 . S
N812 Co798 2.140 . S
N812 C815 1.346 . S
N812 C816 1.345 . S
C813 C814 1.387 . S
C813 C817 1.391 . S
C814 C813 1.387 . S
C814 C815 1.369 . S
C814 H823 0.929 . S
C815 N812 1.346 . S
C815 C814 1.369 . S
C815 H818 0.928 . S
C816 N812 1.345 . S
C816 C817 1.371 . S
C816 H819 0.931 . S
C817 C813 1.391 . S
C817 C816 1.371 . S
C817 H824 0.930 . S
H818 C815 0.928 . S
H819 C816 0.931 . S
H820 C796 0.930 . S
H821 C793 0.930 . S
H822 C802 0.930 . S
H823 C814 0.929 . S
H824 C817 0.930 . S
C825 C826 1.351 . S
C825 N828 1.368 . S
C825 H830 0.931 . S
C826 C825 1.351 . S
C826 N827 1.373 . S
C826 H854 0.930 . S
N827 C826 1.373 . S
N827 C829 1.340 . S
N828 C825 1.368 . S
N828 C829 1.321 . S
N828 Co831 2.135 . S
C829 N827 1.340 . S
C829 N828 1.321 . S
C829 H853 0.930 . S
H830 C825 0.931 . S
Co831 N828 2.135 . S
Co831 N834 2.121 . S
Co831 O839 2.055 . S
Co831 O842 2.039 . S
Co831 N845 2.140 . S
C832 O833 1.227 . S
C832 O842 1.265 . S
O833 C832 1.227 . S
N834 Co831 2.121 . S
N834 C836 1.375 . S
N834 C837 1.313 . S
C835 C836 1.338 . S
C835 N838 1.377 . S
C835 H855 0.930 . S
C836 N834 1.375 . S
C836 C835 1.338 . S
C836 H840 0.931 . S
C837 N834 1.313 . S
C837 N838 1.344 . S
C837 H841 0.930 . S
N838 C835 1.377 . S
N838 C837 1.344 . S
O839 Co831 2.055 . S
O839 C843 1.253 . S
H840 C836 0.931 . S
H841 C837 0.930 . S
O842 Co831 2.039 . S
O842 C832 1.265 . S
C843 O839 1.253 . S
C843 O844 1.227 . S
O844 C843 1.227 . S
N845 Co831 2.140 . S
N845 C848 1.346 . S
N845 C849 1.345 . S
C846 C847 1.387 . S
C846 C850 1.391 . S
C847 C846 1.387 . S
C847 C848 1.369 . S
C847 H856 0.929 . S
C848 N845 1.346 . S
C848 C847 1.369 . S
C848 H851 0.928 . S
C849 N845 1.345 . S
C849 C850 1.371 . S
C849 H852 0.931 . S
C850 C846 1.391 . S
C850 C849 1.371 . S
C850 H857 0.930 . S
H851 C848 0.928 . S
H852 C849 0.931 . S
H853 C829 0.930 . S
H854 C826 0.930 . S
H855 C835 0.930 . S
H856 C847 0.929 . S
H857 C850 0.930 . S
C858 C859 1.351 . S
C858 N861 1.368 . S
C858 H863 0.931 . S
C859 C858 1.351 . S
C859 N860 1.373 . S
C859 H887 0.930 . S
N860 C859 1.373 . S
N860 C862 1.340 . S
N861 C858 1.368 . S
N861 C862 1.321 . S
N861 Co864 2.135 . S
C862 N860 1.340 . S
C862 N861 1.321 . S
C862 H886 0.930 . S
H863 C858 0.931 . S
Co864 N861 2.135 . S
Co864 N867 2.121 . S
Co864 O872 2.055 . S
Co864 O875 2.039 . S
Co864 N878 2.140 . S
C865 O866 1.227 . S
C865 O875 1.265 . S
O866 C865 1.227 . S
N867 Co864 2.121 . S
N867 C869 1.375 . S
N867 C870 1.313 . S
C868 C869 1.338 1_455 S
C868 N871 1.377 . S
C868 H888 0.930 . S
C869 N867 1.375 . S
C869 C868 1.338 1_655 S
C869 H873 0.931 . S
C870 N867 1.313 . S
C870 N871 1.344 1_655 S
C870 H874 0.930 . S
N871 C868 1.377 . S
N871 C870 1.344 1_455 S
O872 Co864 2.055 . S
O872 C876 1.253 . S
H873 C869 0.931 . S
H874 C870 0.930 . S
O875 Co864 2.039 . S
O875 C865 1.265 . S
C876 O872 1.253 . S
C876 O877 1.227 . S
O877 C876 1.227 . S
N878 Co864 2.140 . S
N878 C881 1.346 . S
N878 C882 1.345 . S
C879 C880 1.387 . S
C879 C883 1.391 . S
C880 C879 1.387 . S
C880 C881 1.369 . S
C880 H889 0.929 . S
C881 N878 1.346 . S
C881 C880 1.369 . S
C881 H884 0.928 . S
C882 N878 1.345 . S
C882 C883 1.371 . S
C882 H885 0.931 . S
C883 C879 1.391 . S
C883 C882 1.371 . S
C883 H890 0.960 . S
H884 C881 0.928 . S
H885 C882 0.931 . S
H886 C862 0.930 . S
H887 C859 0.930 . S
H888 C868 0.930 . S
H889 C880 0.929 . S
H890 C883 0.960 . S
C891 C892 1.351 . S
C891 N894 1.368 . S
C891 H896 0.931 . S
C892 C891 1.351 . S
C892 N893 1.373 . S
C892 H920 0.930 . S
N893 C892 1.373 . S
N893 C895 1.340 . S
N894 C891 1.368 . S
N894 C895 1.321 . S
N894 Co897 2.135 . S
C895 N893 1.340 . S
C895 N894 1.321 . S
C895 H919 0.930 . S
H896 C891 0.931 . S
Co897 N894 2.135 . S
Co897 N900 2.121 . S
Co897 O905 2.055 . S
Co897 O908 2.039 . S
Co897 N911 2.140 . S
C898 O899 1.227 . S
C898 O908 1.265 . S
O899 C898 1.227 . S
N900 Co897 2.121 . S
N900 C902 1.375 . S
N900 C903 1.313 . S
C901 C902 1.338 . S
C901 N904 1.377 . S
C901 H921 0.930 . S
C902 N900 1.375 . S
C902 C901 1.338 . S
C902 H906 0.931 . S
C903 N900 1.313 . S
C903 N904 1.344 . S
C903 H907 0.930 . S
N904 C901 1.377 . S
N904 C903 1.344 . S
O905 Co897 2.055 . S
O905 C909 1.253 . S
H906 C902 0.931 . S
H907 C903 0.930 . S
O908 Co897 2.039 . S
O908 C898 1.265 . S
C909 O905 1.253 . S
C909 O910 1.227 . S
O910 C909 1.227 . S
N911 Co897 2.140 . S
N911 C914 1.346 . S
N911 C915 1.345 . S
C912 C913 1.387 . S
C912 C916 1.391 . S
C913 C912 1.387 . S
C913 C914 1.369 . S
C913 H922 0.929 . S
C914 N911 1.346 . S
C914 C913 1.369 . S
C914 H917 0.928 . S
C915 N911 1.345 . S
C915 C916 1.371 . S
C915 H918 0.931 . S
C916 C912 1.391 . S
C916 C915 1.371 . S
C916 H923 0.930 . S
H917 C914 0.928 . S
H918 C915 0.931 . S
H919 C895 0.930 . S
H920 C892 0.930 . S
H921 C901 0.930 . S
H922 C913 0.929 . S
H923 C916 0.930 . S
C924 C925 1.351 . S
C924 N927 1.368 . S
C924 H929 0.931 . S
C925 C924 1.351 . S
C925 N926 1.373 . S
C925 H953 0.930 . S
N926 C925 1.373 . S
N926 C928 1.340 . S
N927 C924 1.368 . S
N927 C928 1.321 . S
N927 Co930 2.135 . S
C928 N926 1.340 . S
C928 N927 1.321 . S
C928 H952 0.930 . S
H929 C924 0.931 . S
Co930 N927 2.135 . S
Co930 N933 2.121 . S
Co930 O938 2.055 . S
Co930 O941 2.039 . S
Co930 N944 2.140 . S
C931 O932 1.227 . S
C931 O941 1.265 . S
O932 C931 1.227 . S
N933 Co930 2.121 . S
N933 C935 1.375 . S
N933 C936 1.313 . S
C934 C935 1.338 . S
C934 N937 1.377 . S
C934 H954 0.930 . S
C935 N933 1.375 . S
C935 C934 1.338 . S
C935 H939 0.931 . S
C936 N933 1.313 . S
C936 N937 1.344 . S
C936 H940 0.930 . S
N937 C934 1.377 . S
N937 C936 1.344 . S
O938 Co930 2.055 . S
O938 C942 1.253 . S
H939 C935 0.931 . S
H940 C936 0.930 . S
O941 Co930 2.039 . S
O941 C931 1.265 . S
C942 O938 1.253 . S
C942 O943 1.227 . S
O943 C942 1.227 . S
N944 Co930 2.140 . S
N944 C947 1.346 . S
N944 C948 1.345 . S
C945 C946 1.387 . S
C945 C949 1.391 . S
C946 C945 1.387 . S
C946 C947 1.369 . S
C946 H955 0.929 . S
C947 N944 1.346 . S
C947 C946 1.369 . S
C947 H950 0.928 . S
C948 N944 1.345 . S
C948 C949 1.371 . S
C948 H951 0.931 . S
C949 C945 1.391 . S
C949 C948 1.371 . S
C949 H956 0.930 . S
H950 C947 0.928 . S
H951 C948 0.931 . S
H952 C928 0.930 . S
H953 C925 0.930 . S
H954 C934 0.930 . S
H955 C946 0.929 . S
H956 C949 0.930 . S
C957 C958 1.351 . S
C957 N960 1.368 . S
C957 H962 0.931 . S
C958 C957 1.351 . S
C958 N959 1.373 . S
C958 H986 0.930 . S
N959 C958 1.373 . S
N959 C961 1.340 . S
N960 C957 1.368 . S
N960 C961 1.321 . S
N960 Co963 2.135 . S
C961 N959 1.340 . S
C961 N960 1.321 . S
C961 H985 0.930 . S
H962 C957 0.931 . S
Co963 N960 2.135 . S
Co963 N966 2.121 . S
Co963 O971 2.055 . S
Co963 O974 2.039 . S
Co963 N977 2.140 . S
C964 O965 1.227 . S
C964 O974 1.265 . S
O965 C964 1.227 . S
N966 Co963 2.121 . S
N966 C968 1.375 . S
N966 C969 1.313 . S
C967 C968 1.338 . S
C967 N970 1.377 . S
C967 H987 0.930 . S
C968 N966 1.375 . S
C968 C967 1.338 . S
C968 H972 0.931 . S
C969 N966 1.313 . S
C969 N970 1.344 . S
C969 H973 0.930 . S
N970 C967 1.377 . S
N970 C969 1.344 . S
O971 Co963 2.055 . S
O971 C975 1.253 . S
H972 C968 0.931 . S
H973 C969 0.930 . S
O974 Co963 2.039 . S
O974 C964 1.265 . S
C975 O971 1.253 . S
C975 O976 1.227 . S
O976 C975 1.227 . S
N977 Co963 2.140 . S
N977 C980 1.346 . S
N977 C981 1.345 . S
C978 C979 1.387 . S
C978 C982 1.391 . S
C979 C978 1.387 . S
C979 C980 1.369 . S
C979 H988 0.929 . S
C980 N977 1.346 . S
C980 C979 1.369 . S
C980 H983 0.928 . S
C981 N977 1.345 . S
C981 C982 1.371 . S
C981 H984 0.931 . S
C982 C978 1.391 . S
C982 C981 1.371 . S
C982 H989 0.930 . S
H983 C980 0.928 . S
H984 C981 0.931 . S
H985 C961 0.930 . S
H986 C958 0.930 . S
H987 C967 0.930 . S
H988 C979 0.929 . S
H989 C982 0.930 . S
C990 C991 1.351 . S
C990 N993 1.368 . S
C990 H995 0.931 . S
C991 C990 1.351 . S
C991 N992 1.373 . S
C991 H1019 0.930 . S
N992 C991 1.373 . S
N992 C994 1.340 . S
N993 C990 1.368 . S
N993 C994 1.321 . S
N993 Co996 2.135 . S
C994 N992 1.340 . S
C994 N993 1.321 . S
C994 H1018 0.930 . S
H995 C990 0.931 . S
Co996 N993 2.135 . S
Co996 N999 2.121 . S
Co996 O1004 2.055 . S
Co996 O1007 2.039 . S
Co996 N1010 2.140 . S
C997 O998 1.227 . S
C997 O1007 1.265 . S
O998 C997 1.227 . S
N999 Co996 2.121 . S
N999 C1001 1.375 . S
N999 C1002 1.313 . S
C1000 C1001 1.338 1_455 S
C1000 N1003 1.377 . S
C1000 H1020 0.930 . S
C1001 N999 1.375 . S
C1001 C1000 1.338 1_655 S
C1001 H1005 0.931 . S
C1002 N999 1.313 . S
C1002 N1003 1.344 1_655 S
C1002 H1006 0.930 . S
N1003 C1000 1.377 . S
N1003 C1002 1.344 1_455 S
O1004 Co996 2.055 . S
O1004 C1008 1.253 . S
H1005 C1001 0.931 . S
H1006 C1002 0.930 . S
O1007 Co996 2.039 . S
O1007 C997 1.265 . S
C1008 O1004 1.253 . S
C1008 O1009 1.227 . S
O1009 C1008 1.227 . S
N1010 Co996 2.140 . S
N1010 C1013 1.346 . S
N1010 C1014 1.345 . S
C1011 C1012 1.387 . S
C1011 C1015 1.391 . S
C1012 C1011 1.387 . S
C1012 C1013 1.369 . S
C1012 H1021 0.929 . S
C1013 N1010 1.346 . S
C1013 C1012 1.369 . S
C1013 H1016 0.928 . S
C1014 N1010 1.345 . S
C1014 C1015 1.371 . S
C1014 H1017 0.931 . S
C1015 C1011 1.391 . S
C1015 C1014 1.371 . S
C1015 H1022 0.962 . S
H1016 C1013 0.928 . S
H1017 C1014 0.931 . S
H1018 C994 0.930 . S
H1019 C991 0.930 . S
H1020 C1000 0.930 . S
H1021 C1012 0.929 . S
H1022 C1015 0.962 . S
C1023 C1024 1.351 . S
C1023 N1026 1.368 . S
C1023 H1028 0.931 . S
C1024 C1023 1.351 . S
C1024 N1025 1.373 . S
C1024 H1052 0.930 . S
N1025 C1024 1.373 . S
N1025 C1027 1.340 . S
N1026 C1023 1.368 . S
N1026 C1027 1.321 . S
N1026 Co1029 2.135 . S
C1027 N1025 1.340 . S
C1027 N1026 1.321 . S
C1027 H1051 0.930 . S
H1028 C1023 0.931 . S
Co1029 N1026 2.135 . S
Co1029 N1032 2.121 . S
Co1029 O1037 2.055 . S
Co1029 O1040 2.039 . S
Co1029 N1043 2.140 . S
C1030 O1031 1.227 . S
C1030 O1040 1.265 . S
O1031 C1030 1.227 . S
N1032 Co1029 2.121 . S
N1032 C1034 1.375 . S
N1032 C1035 1.313 . S
C1033 C1034 1.338 . S
C1033 N1036 1.377 . S
C1033 H1053 0.930 . S
C1034 N1032 1.375 . S
C1034 C1033 1.338 . S
C1034 H1038 0.931 . S
C1035 N1032 1.313 . S
C1035 N1036 1.344 . S
C1035 H1039 0.930 . S
N1036 C1033 1.377 . S
N1036 C1035 1.344 . S
O1037 Co1029 2.055 . S
O1037 C1041 1.253 . S
H1038 C1034 0.931 . S
H1039 C1035 0.930 . S
O1040 Co1029 2.039 . S
O1040 C1030 1.265 . S
C1041 O1037 1.253 . S
C1041 O1042 1.227 . S
O1042 C1041 1.227 . S
N1043 Co1029 2.140 . S
N1043 C1046 1.346 . S
N1043 C1047 1.345 . S
C1044 C1045 1.387 . S
C1044 C1048 1.391 . S
C1045 C1044 1.387 . S
C1045 C1046 1.369 . S
C1045 H1054 0.929 . S
C1046 N1043 1.346 . S
C1046 C1045 1.369 . S
C1046 H1049 0.928 . S
C1047 N1043 1.345 . S
C1047 C1048 1.371 . S
C1047 H1050 0.931 . S
C1048 C1044 1.391 . S
C1048 C1047 1.371 . S
C1048 H1055 0.930 . S
H1049 C1046 0.928 . S
H1050 C1047 0.931 . S
H1051 C1027 0.930 . S
H1052 C1024 0.930 . S
H1053 C1033 0.930 . S
H1054 C1045 0.929 . S
H1055 C1048 0.930 . S
C1056 C1057 1.351 . S
C1056 N1059 1.368 . S
C1056 H1061 0.931 . S
C1057 C1056 1.351 . S
C1057 N1058 1.373 . S
C1057 H1085 0.930 . S
N1058 C1057 1.373 . S
N1058 C1060 1.340 . S
N1059 C1056 1.368 . S
N1059 C1060 1.321 . S
N1059 Co1062 2.135 . S
C1060 N1058 1.340 . S
C1060 N1059 1.321 . S
C1060 H1084 0.930 . S
H1061 C1056 0.931 . S
Co1062 N1059 2.135 . S
Co1062 N1065 2.121 . S
Co1062 O1070 2.055 . S
Co1062 O1073 2.039 . S
Co1062 N1076 2.140 . S
C1063 O1064 1.227 . S
C1063 O1073 1.265 . S
O1064 C1063 1.227 . S
N1065 Co1062 2.121 . S
N1065 C1067 1.375 . S
N1065 C1068 1.313 . S
C1066 C1067 1.338 . S
C1066 N1069 1.377 . S
C1066 H1086 0.930 . S
C1067 N1065 1.375 . S
C1067 C1066 1.338 . S
C1067 H1071 0.931 . S
C1068 N1065 1.313 . S
C1068 N1069 1.344 . S
C1068 H1072 0.930 . S
N1069 C1066 1.377 . S
N1069 C1068 1.344 . S
O1070 Co1062 2.055 . S
O1070 C1074 1.253 . S
H1071 C1067 0.931 . S
H1072 C1068 0.930 . S
O1073 Co1062 2.039 . S
O1073 C1063 1.265 . S
C1074 O1070 1.253 . S
C1074 O1075 1.227 . S
O1075 C1074 1.227 . S
N1076 Co1062 2.140 . S
N1076 C1079 1.346 . S
N1076 C1080 1.345 . S
C1077 C1078 1.387 . S
C1077 C1081 1.391 . S
C1078 C1077 1.387 . S
C1078 C1079 1.369 . S
C1078 H1087 0.929 . S
C1079 N1076 1.346 . S
C1079 C1078 1.369 . S
C1079 H1082 0.928 . S
C1080 N1076 1.345 . S
C1080 C1081 1.371 . S
C1080 H1083 0.931 . S
C1081 C1077 1.391 . S
C1081 C1080 1.371 . S
C1081 H1088 0.930 . S
H1082 C1079 0.928 . S
H1083 C1080 0.931 . S
H1084 C1060 0.930 . S
H1085 C1057 0.930 . S
H1086 C1066 0.930 . S
H1087 C1078 0.929 . S
H1088 C1081 0.930 . S
C1089 C1090 1.351 . S
C1089 N1092 1.368 . S
C1089 H1094 0.931 . S
C1090 C1089 1.351 . S
C1090 N1091 1.373 . S
C1090 H1118 0.930 . S
N1091 C1090 1.373 . S
N1091 C1093 1.340 . S
N1092 C1089 1.368 . S
N1092 C1093 1.321 . S
N1092 Co1095 2.135 . S
C1093 N1091 1.340 . S
C1093 N1092 1.321 . S
C1093 H1117 0.930 . S
H1094 C1089 0.931 . S
Co1095 N1092 2.135 . S
Co1095 N1098 2.121 . S
Co1095 O1103 2.055 . S
Co1095 O1106 2.039 . S
Co1095 N1109 2.140 . S
C1096 O1097 1.227 . S
C1096 O1106 1.265 . S
O1097 C1096 1.227 . S
N1098 Co1095 2.121 . S
N1098 C1100 1.375 . S
N1098 C1101 1.313 . S
C1099 C1100 1.338 . S
C1099 N1102 1.377 . S
C1099 H1119 0.930 . S
C1100 N1098 1.375 . S
C1100 C1099 1.338 . S
C1100 H1104 0.931 . S
C1101 N1098 1.313 . S
C1101 N1102 1.344 . S
C1101 H1105 0.930 . S
N1102 C1099 1.377 . S
N1102 C1101 1.344 . S
O1103 Co1095 2.055 . S
O1103 C1107 1.253 . S
H1104 C1100 0.931 . S
H1105 C1101 0.930 . S
O1106 Co1095 2.039 . S
O1106 C1096 1.265 . S
C1107 O1103 1.253 . S
C1107 O1108 1.227 . S
O1108 C1107 1.227 . S
N1109 Co1095 2.140 . S
N1109 C1112 1.346 . S
N1109 C1113 1.345 . S
C1110 C1111 1.387 . S
C1110 C1114 1.391 . S
C1111 C1110 1.387 . S
C1111 C1112 1.369 . S
C1111 H1120 0.929 . S
C1112 N1109 1.346 . S
C1112 C1111 1.369 . S
C1112 H1115 0.928 . S
C1113 N1109 1.345 . S
C1113 C1114 1.371 . S
C1113 H1116 0.931 . S
C1114 C1110 1.391 . S
C1114 C1113 1.371 . S
C1114 H1121 0.930 . S
H1115 C1112 0.928 . S
H1116 C1113 0.931 . S
H1117 C1093 0.930 . S
H1118 C1090 0.930 . S
H1119 C1099 0.930 . S
H1120 C1111 0.929 . S
H1121 C1114 0.930 . S
C1122 C1123 1.351 . S
C1122 N1125 1.368 . S
C1122 H1127 0.931 . S
C1123 C1122 1.351 . S
C1123 N1124 1.373 . S
C1123 H1151 0.930 . S
N1124 C1123 1.373 . S
N1124 C1126 1.340 . S
N1125 C1122 1.368 . S
N1125 C1126 1.321 . S
N1125 Co1128 2.135 . S
C1126 N1124 1.340 . S
C1126 N1125 1.321 . S
C1126 H1150 0.930 . S
H1127 C1122 0.931 . S
Co1128 N1125 2.135 . S
Co1128 N1131 2.121 . S
Co1128 O1136 2.055 . S
Co1128 O1139 2.039 . S
Co1128 N1142 2.140 . S
C1129 O1130 1.227 . S
C1129 O1139 1.265 . S
O1130 C1129 1.227 . S
N1131 Co1128 2.121 . S
N1131 C1133 1.375 . S
N1131 C1134 1.313 . S
C1132 C1133 1.338 . S
C1132 N1135 1.377 . S
C1132 H1152 0.930 . S
C1133 N1131 1.375 . S
C1133 C1132 1.338 . S
C1133 H1137 0.931 . S
C1134 N1131 1.313 . S
C1134 N1135 1.344 . S
C1134 H1138 0.930 . S
N1135 C1132 1.377 . S
N1135 C1134 1.344 . S
O1136 Co1128 2.055 . S
O1136 C1140 1.253 . S
H1137 C1133 0.931 . S
H1138 C1134 0.930 . S
O1139 Co1128 2.039 . S
O1139 C1129 1.265 . S
C1140 O1136 1.253 . S
C1140 O1141 1.227 . S
O1141 C1140 1.227 . S
N1142 Co1128 2.140 . S
N1142 C1145 1.346 . S
N1142 C1146 1.345 . S
C1143 C1144 1.413 . S
C1143 C1147 1.393 . S
C1144 C1143 1.413 . S
C1144 C1145 1.369 . S
C1144 H1153 0.929 . S
C1145 N1142 1.346 . S
C1145 C1144 1.369 . S
C1145 H1148 0.928 . S
C1146 N1142 1.345 . S
C1146 C1147 1.371 . S
C1146 H1149 0.931 . S
C1147 C1143 1.393 . S
C1147 C1146 1.371 . S
C1147 H1154 0.930 1_554 S
H1148 C1145 0.928 . S
H1149 C1146 0.931 . S
H1150 C1126 0.930 . S
H1151 C1123 0.930 . S
H1152 C1132 0.930 . S
H1153 C1144 0.929 . S
H1154 C1147 0.930 1_556 S
C1155 C1156 1.351 . S
C1155 N1158 1.368 . S
C1155 H1160 0.931 . S
C1156 C1155 1.351 . S
C1156 N1157 1.373 . S
C1156 H1184 0.930 . S
N1157 C1156 1.373 . S
N1157 C1159 1.340 . S
N1158 C1155 1.368 . S
N1158 C1159 1.321 . S
N1158 Co1161 2.135 . S
C1159 N1157 1.340 . S
C1159 N1158 1.321 . S
C1159 H1183 0.930 . S
H1160 C1155 0.931 . S
Co1161 N1158 2.135 . S
Co1161 N1164 2.121 . S
Co1161 O1169 2.055 . S
Co1161 O1172 2.039 . S
Co1161 N1175 2.140 . S
C1162 O1163 1.227 . S
C1162 O1172 1.265 . S
O1163 C1162 1.227 . S
N1164 Co1161 2.121 . S
N1164 C1166 1.375 . S
N1164 C1167 1.313 . S
C1165 C1166 1.338 . S
C1165 N1168 1.377 . S
C1165 H1185 0.930 . S
C1166 N1164 1.375 . S
C1166 C1165 1.338 . S
C1166 H1170 0.931 . S
C1167 N1164 1.313 . S
C1167 N1168 1.344 . S
C1167 H1171 0.930 . S
N1168 C1165 1.377 . S
N1168 C1167 1.344 . S
O1169 Co1161 2.055 . S
O1169 C1173 1.253 . S
H1170 C1166 0.931 . S
H1171 C1167 0.930 . S
O1172 Co1161 2.039 . S
O1172 C1162 1.265 . S
C1173 O1169 1.253 . S
C1173 O1174 1.227 . S
O1174 C1173 1.227 . S
N1175 Co1161 2.140 . S
N1175 C1178 1.346 . S
N1175 C1179 1.345 . S
C1176 C1177 1.387 . S
C1176 C1180 1.391 . S
C1177 C1176 1.387 . S
C1177 C1178 1.369 . S
C1177 H1186 0.929 . S
C1178 N1175 1.346 . S
C1178 C1177 1.369 . S
C1178 H1181 0.928 . S
C1179 N1175 1.345 . S
C1179 C1180 1.371 . S
C1179 H1182 0.931 . S
C1180 C1176 1.391 . S
C1180 C1179 1.371 . S
C1180 H1187 0.930 . S
H1181 C1178 0.928 . S
H1182 C1179 0.931 . S
H1183 C1159 0.930 . S
H1184 C1156 0.930 . S
H1185 C1165 0.930 . S
H1186 C1177 0.929 . S
H1187 C1180 0.930 . S
C1188 C1189 1.351 . S
C1188 N1191 1.368 . S
C1188 H1193 0.931 . S
C1189 C1188 1.351 . S
C1189 N1190 1.373 . S
C1189 H1217 0.930 . S
N1190 C1189 1.373 . S
N1190 C1192 1.340 . S
N1191 C1188 1.368 . S
N1191 C1192 1.321 . S
N1191 Co1194 2.135 . S
C1192 N1190 1.340 . S
C1192 N1191 1.321 . S
C1192 H1216 0.930 . S
H1193 C1188 0.931 . S
Co1194 N1191 2.135 . S
Co1194 N1197 2.121 . S
Co1194 O1202 2.055 . S
Co1194 O1205 2.039 . S
Co1194 N1208 2.140 . S
C1195 O1196 1.227 . S
C1195 O1205 1.265 . S
O1196 C1195 1.227 . S
N1197 Co1194 2.121 . S
N1197 C1199 1.375 . S
N1197 C1200 1.313 . S
C1198 C1199 1.338 . S
C1198 N1201 1.377 . S
C1198 H1218 0.930 . S
C1199 N1197 1.375 . S
C1199 C1198 1.338 . S
C1199 H1203 0.931 . S
C1200 N1197 1.313 . S
C1200 N1201 1.344 . S
C1200 H1204 0.930 . S
N1201 C1198 1.377 . S
N1201 C1200 1.344 . S
O1202 Co1194 2.055 . S
O1202 C1206 1.253 . S
H1203 C1199 0.931 . S
H1204 C1200 0.930 . S
O1205 Co1194 2.039 . S
O1205 C1195 1.265 . S
C1206 O1202 1.253 . S
C1206 O1207 1.227 . S
O1207 C1206 1.227 . S
N1208 Co1194 2.140 . S
N1208 C1211 1.346 . S
N1208 C1212 1.345 . S
C1209 C1210 1.407 . S
C1209 C1213 1.392 . S
C1210 C1209 1.407 . S
C1210 C1211 1.369 . S
C1210 H1219 0.929 . S
C1211 N1208 1.346 . S
C1211 C1210 1.369 . S
C1211 H1214 0.928 . S
C1212 N1208 1.345 . S
C1212 C1213 1.371 . S
C1212 H1215 0.931 . S
C1213 C1209 1.392 . S
C1213 C1212 1.371 . S
C1213 H1220 0.930 1_556 S
H1214 C1211 0.928 . S
H1215 C1212 0.931 . S
H1216 C1192 0.930 . S
H1217 C1189 0.930 . S
H1218 C1198 0.930 . S
H1219 C1210 0.929 . S
H1220 C1213 0.930 1_554 S
C1221 C1222 1.351 . S
C1221 N1224 1.368 . S
C1221 H1226 0.931 . S
C1222 C1221 1.351 . S
C1222 N1223 1.373 . S
C1222 H1250 0.930 . S
N1223 C1222 1.373 . S
N1223 C1225 1.340 . S
N1224 C1221 1.368 . S
N1224 C1225 1.321 . S
N1224 Co1227 2.135 . S
C1225 N1223 1.340 . S
C1225 N1224 1.321 . S
C1225 H1249 0.930 . S
H1226 C1221 0.931 . S
Co1227 N1224 2.135 . S
Co1227 N1230 2.121 . S
Co1227 O1235 2.055 . S
Co1227 O1238 2.039 . S
Co1227 N1241 2.140 . S
C1228 O1229 1.227 . S
C1228 O1238 1.265 . S
O1229 C1228 1.227 . S
N1230 Co1227 2.121 . S
N1230 C1232 1.375 . S
N1230 C1233 1.313 . S
C1231 C1232 1.338 . S
C1231 N1234 1.377 . S
C1231 H1251 0.930 . S
C1232 N1230 1.375 . S
C1232 C1231 1.338 . S
C1232 H1236 0.931 . S
C1233 N1230 1.313 . S
C1233 N1234 1.344 . S
C1233 H1237 0.930 . S
N1234 C1231 1.377 . S
N1234 C1233 1.344 . S
O1235 Co1227 2.055 . S
O1235 C1239 1.253 . S
H1236 C1232 0.931 . S
H1237 C1233 0.930 . S
O1238 Co1227 2.039 . S
O1238 C1228 1.265 . S
C1239 O1235 1.253 . S
C1239 O1240 1.227 . S
O1240 C1239 1.227 . S
N1241 Co1227 2.140 . S
N1241 C1244 1.346 . S
N1241 C1245 1.345 . S
C1242 C1243 1.387 . S
C1242 C1246 1.391 . S
C1243 C1242 1.387 . S
C1243 C1244 1.369 . S
C1243 H1252 0.929 . S
C1244 N1241 1.346 . S
C1244 C1243 1.369 . S
C1244 H1247 0.928 . S
C1245 N1241 1.345 . S
C1245 C1246 1.371 . S
C1245 H1248 0.931 . S
C1246 C1242 1.391 . S
C1246 C1245 1.371 . S
C1246 H1253 0.930 . S
H1247 C1244 0.928 . S
H1248 C1245 0.931 . S
H1249 C1225 0.930 . S
H1250 C1222 0.930 . S
H1251 C1231 0.930 . S
H1252 C1243 0.929 . S
H1253 C1246 0.930 . S
C1254 C1255 1.351 . S
C1254 N1257 1.368 . S
C1254 H1259 0.931 . S
C1255 C1254 1.351 . S
C1255 N1256 1.373 . S
C1255 H1283 0.930 . S
N1256 C1255 1.373 . S
N1256 C1258 1.340 . S
N1257 C1254 1.368 . S
N1257 C1258 1.321 . S
N1257 Co1260 2.135 . S
C1258 N1256 1.340 . S
C1258 N1257 1.321 . S
C1258 H1282 0.930 . S
H1259 C1254 0.931 . S
Co1260 N1257 2.135 . S
Co1260 N1263 2.121 . S
Co1260 O1268 2.055 . S
Co1260 O1271 2.039 . S
Co1260 N1274 2.140 . S
C1261 O1262 1.227 . S
C1261 O1271 1.265 . S
O1262 C1261 1.227 . S
N1263 Co1260 2.121 . S
N1263 C1265 1.375 . S
N1263 C1266 1.313 . S
C1264 C1265 1.338 . S
C1264 N1267 1.377 . S
C1264 H1284 0.930 . S
C1265 N1263 1.375 . S
C1265 C1264 1.338 . S
C1265 H1269 0.931 . S
C1266 N1263 1.313 . S
C1266 N1267 1.344 . S
C1266 H1270 0.930 . S
N1267 C1264 1.377 . S
N1267 C1266 1.344 . S
O1268 Co1260 2.055 . S
O1268 C1272 1.253 . S
H1269 C1265 0.931 . S
H1270 C1266 0.930 . S
O1271 Co1260 2.039 . S
O1271 C1261 1.265 . S
C1272 O1268 1.253 . S
C1272 O1273 1.227 . S
O1273 C1272 1.227 . S
N1274 Co1260 2.140 . S
N1274 C1277 1.346 . S
N1274 C1278 1.345 . S
C1275 C1276 1.387 . S
C1275 C1279 1.391 . S
C1276 C1275 1.387 . S
C1276 C1277 1.369 . S
C1276 H1285 0.929 . S
C1277 N1274 1.346 . S
C1277 C1276 1.369 . S
C1277 H1280 0.928 . S
C1278 N1274 1.345 . S
C1278 C1279 1.371 . S
C1278 H1281 0.931 . S
C1279 C1275 1.391 . S
C1279 C1278 1.371 . S
C1279 H1286 0.930 . S
H1280 C1277 0.928 . S
H1281 C1278 0.931 . S
H1282 C1258 0.930 . S
H1283 C1255 0.930 . S
H1284 C1264 0.930 . S
H1285 C1276 0.929 . S
H1286 C1279 0.930 . S
C1287 C1288 1.351 . S
C1287 N1290 1.368 . S
C1287 H1292 0.931 . S
C1288 C1287 1.351 . S
C1288 N1289 1.373 . S
C1288 H1316 0.930 . S
N1289 C1288 1.373 . S
N1289 C1291 1.340 . S
N1290 C1287 1.368 . S
N1290 C1291 1.321 . S
N1290 Co1293 2.135 . S
C1291 N1289 1.340 . S
C1291 N1290 1.321 . S
C1291 H1315 0.930 . S
H1292 C1287 0.931 . S
Co1293 N1290 2.135 . S
Co1293 N1296 2.121 . S
Co1293 O1301 2.055 . S
Co1293 O1304 2.039 . S
Co1293 N1307 2.140 . S
C1294 O1295 1.227 . S
C1294 O1304 1.265 . S
O1295 C1294 1.227 . S
N1296 Co1293 2.121 . S
N1296 C1298 1.375 . S
N1296 C1299 1.313 . S
C1297 C1298 1.338 . S
C1297 N1300 1.377 . S
C1297 H1317 0.930 . S
C1298 N1296 1.375 . S
C1298 C1297 1.338 . S
C1298 H1302 0.931 . S
C1299 N1296 1.313 . S
C1299 N1300 1.344 . S
C1299 H1303 0.930 . S
N1300 C1297 1.377 . S
N1300 C1299 1.344 . S
O1301 Co1293 2.055 . S
O1301 C1305 1.253 . S
H1302 C1298 0.931 . S
H1303 C1299 0.930 . S
O1304 Co1293 2.039 . S
O1304 C1294 1.265 . S
C1305 O1301 1.253 . S
C1305 O1306 1.227 . S
O1306 C1305 1.227 . S
N1307 Co1293 2.140 . S
N1307 C1310 1.346 . S
N1307 C1311 1.345 . S
C1308 C1309 1.387 . S
C1308 C1312 1.391 . S
C1309 C1308 1.387 . S
C1309 C1310 1.369 . S
C1309 H1318 0.929 . S
C1310 N1307 1.346 . S
C1310 C1309 1.369 . S
C1310 H1313 0.928 . S
C1311 N1307 1.345 . S
C1311 C1312 1.371 . S
C1311 H1314 0.931 . S
C1312 C1308 1.391 . S
C1312 C1311 1.371 . S
C1312 H1319 0.930 . S
H1313 C1310 0.928 . S
H1314 C1311 0.931 . S
H1315 C1291 0.930 . S
H1316 C1288 0.930 . S
H1317 C1297 0.930 . S
H1318 C1309 0.929 . S
H1319 C1312 0.930 . S
C1320 C1321 1.351 . S
C1320 N1323 1.368 . S
C1320 H1325 0.931 . S
C1321 C1320 1.351 . S
C1321 N1322 1.373 . S
C1321 H1349 0.930 . S
N1322 C1321 1.373 . S
N1322 C1324 1.340 . S
N1323 C1320 1.368 . S
N1323 C1324 1.321 . S
N1323 Co1326 2.135 . S
C1324 N1322 1.340 . S
C1324 N1323 1.321 . S
C1324 H1348 0.930 . S
H1325 C1320 0.931 . S
Co1326 N1323 2.135 . S
Co1326 N1329 2.121 . S
Co1326 O1334 2.055 . S
Co1326 O1337 2.039 . S
Co1326 N1340 2.140 . S
C1327 O1328 1.227 . S
C1327 O1337 1.265 . S
O1328 C1327 1.227 . S
N1329 Co1326 2.121 . S
N1329 C1331 1.375 . S
N1329 C1332 1.313 . S
C1330 C1331 1.338 . S
C1330 N1333 1.377 . S
C1330 H1350 0.930 . S
C1331 N1329 1.375 . S
C1331 C1330 1.338 . S
C1331 H1335 0.931 . S
C1332 N1329 1.313 . S
C1332 N1333 1.344 . S
C1332 H1336 0.930 . S
N1333 C1330 1.377 . S
N1333 C1332 1.344 . S
O1334 Co1326 2.055 . S
O1334 C1338 1.253 . S
H1335 C1331 0.931 . S
H1336 C1332 0.930 . S
O1337 Co1326 2.039 . S
O1337 C1327 1.265 . S
C1338 O1334 1.253 . S
C1338 O1339 1.227 . S
O1339 C1338 1.227 . S
N1340 Co1326 2.140 . S
N1340 C1343 1.346 . S
N1340 C1344 1.345 . S
C1341 C1342 1.387 . S
C1341 C1345 1.391 . S
C1342 C1341 1.387 . S
C1342 C1343 1.369 . S
C1342 H1351 0.929 . S
C1343 N1340 1.346 . S
C1343 C1342 1.369 . S
C1343 H1346 0.928 . S
C1344 N1340 1.345 . S
C1344 C1345 1.371 . S
C1344 H1347 0.931 . S
C1345 C1341 1.391 . S
C1345 C1344 1.371 . S
C1345 H1352 0.930 . S
H1346 C1343 0.928 . S
H1347 C1344 0.931 . S
H1348 C1324 0.930 . S
H1349 C1321 0.930 . S
H1350 C1330 0.930 . S
H1351 C1342 0.929 . S
H1352 C1345 0.930 . S
C1353 C1354 1.351 . S
C1353 N1356 1.368 . S
C1353 H1358 0.931 . S
C1354 C1353 1.351 . S
C1354 N1355 1.373 . S
C1354 H1382 0.930 . S
N1355 C1354 1.373 . S
N1355 C1357 1.340 . S
N1356 C1353 1.368 . S
N1356 C1357 1.321 . S
N1356 Co1359 2.135 . S
C1357 N1355 1.340 . S
C1357 N1356 1.321 . S
C1357 H1381 0.930 . S
H1358 C1353 0.931 . S
Co1359 N1356 2.135 . S
Co1359 N1362 2.121 . S
Co1359 O1367 2.055 . S
Co1359 O1370 2.039 . S
Co1359 N1373 2.140 . S
C1360 O1361 1.227 . S
C1360 O1370 1.265 . S
O1361 C1360 1.227 . S
N1362 Co1359 2.121 . S
N1362 C1364 1.375 . S
N1362 C1365 1.313 . S
C1363 C1364 1.338 . S
C1363 N1366 1.377 . S
C1363 H1383 0.930 . S
C1364 N1362 1.375 . S
C1364 C1363 1.338 . S
C1364 H1368 0.931 . S
C1365 N1362 1.313 . S
C1365 N1366 1.344 . S
C1365 H1369 0.930 . S
N1366 C1363 1.377 . S
N1366 C1365 1.344 . S
O1367 Co1359 2.055 . S
O1367 C1371 1.253 . S
H1368 C1364 0.931 . S
H1369 C1365 0.930 . S
O1370 Co1359 2.039 . S
O1370 C1360 1.265 . S
C1371 O1367 1.253 . S
C1371 O1372 1.227 . S
O1372 C1371 1.227 . S
N1373 Co1359 2.140 . S
N1373 C1376 1.346 . S
N1373 C1377 1.345 . S
C1374 C1375 1.413 . S
C1374 C1378 1.393 . S
C1375 C1374 1.413 . S
C1375 C1376 1.369 . S
C1375 H1384 0.929 . S
C1376 N1373 1.346 . S
C1376 C1375 1.369 . S
C1376 H1379 0.928 . S
C1377 N1373 1.345 . S
C1377 C1378 1.371 . S
C1377 H1380 0.931 . S
C1378 C1374 1.393 . S
C1378 C1377 1.371 . S
C1378 H1385 0.930 1_455 S
H1379 C1376 0.928 . S
H1380 C1377 0.931 . S
H1381 C1357 0.930 . S
H1382 C1354 0.930 . S
H1383 C1363 0.930 . S
H1384 C1375 0.929 . S
H1385 C1378 0.930 1_655 S
C1386 C1387 1.351 . S
C1386 N1389 1.368 . S
C1386 H1391 0.931 . S
C1387 C1386 1.351 . S
C1387 N1388 1.373 . S
C1387 H1415 0.930 . S
N1388 C1387 1.373 . S
N1388 C1390 1.340 . S
N1389 C1386 1.368 . S
N1389 C1390 1.321 . S
N1389 Co1392 2.135 . S
C1390 N1388 1.340 . S
C1390 N1389 1.321 . S
C1390 H1414 0.930 . S
H1391 C1386 0.931 . S
Co1392 N1389 2.135 . S
Co1392 N1395 2.121 . S
Co1392 O1400 2.055 . S
Co1392 O1403 2.039 . S
Co1392 N1406 2.140 . S
C1393 O1394 1.227 . S
C1393 O1403 1.265 . S
O1394 C1393 1.227 . S
N1395 Co1392 2.121 . S
N1395 C1397 1.375 . S
N1395 C1398 1.313 . S
C1396 C1397 1.338 . S
C1396 N1399 1.377 . S
C1396 H1416 0.930 . S
C1397 N1395 1.375 . S
C1397 C1396 1.338 . S
C1397 H1401 0.931 . S
C1398 N1395 1.313 . S
C1398 N1399 1.344 . S
C1398 H1402 0.930 . S
N1399 C1396 1.377 . S
N1399 C1398 1.344 . S
O1400 Co1392 2.055 . S
O1400 C1404 1.253 . S
H1401 C1397 0.931 . S
H1402 C1398 0.930 . S
O1403 Co1392 2.039 . S
O1403 C1393 1.265 . S
C1404 O1400 1.253 . S
C1404 O1405 1.227 . S
O1405 C1404 1.227 . S
N1406 Co1392 2.140 . S
N1406 C1409 1.346 . S
N1406 C1410 1.345 . S
C1407 C1408 1.387 . S
C1407 C1411 1.391 . S
C1408 C1407 1.387 . S
C1408 C1409 1.369 . S
C1408 H1417 0.929 . S
C1409 N1406 1.346 . S
C1409 C1408 1.369 . S
C1409 H1412 0.928 . S
C1410 N1406 1.345 . S
C1410 C1411 1.371 . S
C1410 H1413 0.931 . S
C1411 C1407 1.391 . S
C1411 C1410 1.371 . S
C1411 H1418 0.930 . S
H1412 C1409 0.928 . S
H1413 C1410 0.931 . S
H1414 C1390 0.930 . S
H1415 C1387 0.930 . S
H1416 C1396 0.930 . S
H1417 C1408 0.929 . S
H1418 C1411 0.930 . S
C1419 C1420 1.351 . S
C1419 N1422 1.368 . S
C1419 H1424 0.931 . S
C1420 C1419 1.351 . S
C1420 N1421 1.373 . S
C1420 H1448 0.930 . S
N1421 C1420 1.373 . S
N1421 C1423 1.340 . S
N1422 C1419 1.368 . S
N1422 C1423 1.321 . S
N1422 Co1425 2.135 . S
C1423 N1421 1.340 . S
C1423 N1422 1.321 . S
C1423 H1447 0.930 . S
H1424 C1419 0.931 . S
Co1425 N1422 2.135 . S
Co1425 N1428 2.121 . S
Co1425 O1433 2.055 . S
Co1425 O1436 2.039 . S
Co1425 N1439 2.140 . S
C1426 O1427 1.227 . S
C1426 O1436 1.265 . S
O1427 C1426 1.227 . S
N1428 Co1425 2.121 . S
N1428 C1430 1.375 . S
N1428 C1431 1.313 . S
C1429 C1430 1.338 1_554 S
C1429 N1432 1.377 . S
C1429 H1449 0.930 . S
C1430 N1428 1.375 . S
C1430 C1429 1.338 1_556 S
C1430 H1434 0.931 . S
C1431 N1428 1.313 . S
C1431 N1432 1.344 1_556 S
C1431 H1435 0.930 . S
N1432 C1429 1.377 . S
N1432 C1431 1.344 1_554 S
O1433 Co1425 2.055 . S
O1433 C1437 1.253 . S
H1434 C1430 0.931 . S
H1435 C1431 0.930 . S
O1436 Co1425 2.039 . S
O1436 C1426 1.265 . S
C1437 O1433 1.253 . S
C1437 O1438 1.227 . S
O1438 C1437 1.227 . S
N1439 Co1425 2.140 . S
N1439 C1442 1.346 . S
N1439 C1443 1.345 . S
C1440 C1441 1.387 . S
C1440 C1444 1.391 . S
C1441 C1440 1.387 . S
C1441 C1442 1.369 . S
C1441 H1450 0.929 . S
C1442 N1439 1.346 . S
C1442 C1441 1.369 . S
C1442 H1445 0.928 . S
C1443 N1439 1.345 . S
C1443 C1444 1.371 . S
C1443 H1446 0.931 . S
C1444 C1440 1.391 . S
C1444 C1443 1.371 . S
C1444 H1451 0.960 . S
H1445 C1442 0.928 . S
H1446 C1443 0.931 . S
H1447 C1423 0.930 . S
H1448 C1420 0.930 . S
H1449 C1429 0.930 . S
H1450 C1441 0.929 . S
H1451 C1444 0.960 . S
C1452 C1453 1.351 . S
C1452 N1455 1.368 . S
C1452 H1457 0.931 . S
C1453 C1452 1.351 . S
C1453 N1454 1.373 . S
C1453 H1481 0.930 . S
N1454 C1453 1.373 . S
N1454 C1456 1.340 . S
N1455 C1452 1.368 . S
N1455 C1456 1.321 . S
N1455 Co1458 2.135 . S
C1456 N1454 1.340 . S
C1456 N1455 1.321 . S
C1456 H1480 0.930 . S
H1457 C1452 0.931 . S
Co1458 N1455 2.135 . S
Co1458 N1461 2.121 . S
Co1458 O1466 2.055 . S
Co1458 O1469 2.039 . S
Co1458 N1472 2.140 . S
C1459 O1460 1.227 . S
C1459 O1469 1.265 . S
O1460 C1459 1.227 . S
N1461 Co1458 2.121 . S
N1461 C1463 1.375 . S
N1461 C1464 1.313 . S
C1462 C1463 1.338 . S
C1462 N1465 1.377 . S
C1462 H1482 0.930 . S
C1463 N1461 1.375 . S
C1463 C1462 1.338 . S
C1463 H1467 0.931 . S
C1464 N1461 1.313 . S
C1464 N1465 1.344 . S
C1464 H1468 0.930 . S
N1465 C1462 1.377 . S
N1465 C1464 1.344 . S
O1466 Co1458 2.055 . S
O1466 C1470 1.253 . S
H1467 C1463 0.931 . S
H1468 C1464 0.930 . S
O1469 Co1458 2.039 . S
O1469 C1459 1.265 . S
C1470 O1466 1.253 . S
C1470 O1471 1.227 . S
O1471 C1470 1.227 . S
N1472 Co1458 2.140 . S
N1472 C1475 1.346 . S
N1472 C1476 1.345 . S
C1473 C1474 1.387 . S
C1473 C1477 1.391 . S
C1474 C1473 1.387 . S
C1474 C1475 1.369 . S
C1474 H1483 0.929 . S
C1475 N1472 1.346 . S
C1475 C1474 1.369 . S
C1475 H1478 0.928 . S
C1476 N1472 1.345 . S
C1476 C1477 1.371 . S
C1476 H1479 0.931 . S
C1477 C1473 1.391 . S
C1477 C1476 1.371 . S
C1477 H1484 0.930 . S
H1478 C1475 0.928 . S
H1479 C1476 0.931 . S
H1480 C1456 0.930 . S
H1481 C1453 0.930 . S
H1482 C1462 0.930 . S
H1483 C1474 0.929 . S
H1484 C1477 0.930 . S
C1485 C1486 1.351 . S
C1485 N1488 1.368 . S
C1485 H1490 0.931 . S
C1486 C1485 1.351 . S
C1486 N1487 1.373 . S
C1486 H1514 0.930 . S
N1487 C1486 1.373 . S
N1487 C1489 1.340 . S
N1488 C1485 1.368 . S
N1488 C1489 1.321 . S
N1488 Co1491 2.135 . S
C1489 N1487 1.340 . S
C1489 N1488 1.321 . S
C1489 H1513 0.930 . S
H1490 C1485 0.931 . S
Co1491 N1488 2.135 . S
Co1491 N1494 2.121 . S
Co1491 O1499 2.055 . S
Co1491 O1502 2.039 . S
Co1491 N1505 2.140 . S
C1492 O1493 1.227 . S
C1492 O1502 1.265 . S
O1493 C1492 1.227 . S
N1494 Co1491 2.121 . S
N1494 C1496 1.375 . S
N1494 C1497 1.313 . S
C1495 C1496 1.338 1_556 S
C1495 N1498 1.377 . S
C1495 H1515 0.930 . S
C1496 N1494 1.375 . S
C1496 C1495 1.338 1_554 S
C1496 H1500 0.931 . S
C1497 N1494 1.313 . S
C1497 N1498 1.344 1_554 S
C1497 H1501 0.930 . S
N1498 C1495 1.377 . S
N1498 C1497 1.344 1_556 S
O1499 Co1491 2.055 . S
O1499 C1503 1.253 . S
H1500 C1496 0.931 . S
H1501 C1497 0.930 . S
O1502 Co1491 2.039 . S
O1502 C1492 1.265 . S
C1503 O1499 1.253 . S
C1503 O1504 1.227 . S
O1504 C1503 1.227 . S
N1505 Co1491 2.140 . S
N1505 C1508 1.346 . S
N1505 C1509 1.345 . S
C1506 C1507 1.411 . S
C1506 C1510 1.393 . S
C1507 C1506 1.411 . S
C1507 C1508 1.369 . S
C1507 H1516 0.929 . S
C1508 N1505 1.346 . S
C1508 C1507 1.369 . S
C1508 H1511 0.928 . S
C1509 N1505 1.345 . S
C1509 C1510 1.371 . S
C1509 H1512 0.931 . S
C1510 C1506 1.393 . S
C1510 C1509 1.371 . S
C1510 H1517 0.963 1_655 S
H1511 C1508 0.928 . S
H1512 C1509 0.931 . S
H1513 C1489 0.930 . S
H1514 C1486 0.930 . S
H1515 C1495 0.930 . S
H1516 C1507 0.929 . S
H1517 C1510 0.963 1_455 S
C1518 C1519 1.351 . S
C1518 N1521 1.368 . S
C1518 H1523 0.931 . S
C1519 C1518 1.351 . S
C1519 N1520 1.373 . S
C1519 H1547 0.930 . S
N1520 C1519 1.373 . S
N1520 C1522 1.340 . S
N1521 C1518 1.368 . S
N1521 C1522 1.321 . S
N1521 Co1524 2.135 . S
C1522 N1520 1.340 . S
C1522 N1521 1.321 . S
C1522 H1546 0.930 . S
H1523 C1518 0.931 . S
Co1524 N1521 2.135 . S
Co1524 N1527 2.121 . S
Co1524 O1532 2.055 . S
Co1524 O1535 2.039 . S
Co1524 N1538 2.140 . S
C1525 O1526 1.227 . S
C1525 O1535 1.265 . S
O1526 C1525 1.227 . S
N1527 Co1524 2.121 . S
N1527 C1529 1.375 . S
N1527 C1530 1.313 . S
C1528 C1529 1.338 . S
C1528 N1531 1.377 . S
C1528 H1548 0.930 . S
C1529 N1527 1.375 . S
C1529 C1528 1.338 . S
C1529 H1533 0.931 . S
C1530 N1527 1.313 . S
C1530 N1531 1.344 . S
C1530 H1534 0.930 . S
N1531 C1528 1.377 . S
N1531 C1530 1.344 . S
O1532 Co1524 2.055 . S
O1532 C1536 1.253 . S
H1533 C1529 0.931 . S
H1534 C1530 0.930 . S
O1535 Co1524 2.039 . S
O1535 C1525 1.265 . S
C1536 O1532 1.253 . S
C1536 O1537 1.227 . S
O1537 C1536 1.227 . S
N1538 Co1524 2.140 . S
N1538 C1541 1.346 . S
N1538 C1542 1.345 . S
C1539 C1540 1.387 . S
C1539 C1543 1.391 . S
C1540 C1539 1.387 . S
C1540 C1541 1.369 . S
C1540 H1549 0.929 . S
C1541 N1538 1.346 . S
C1541 C1540 1.369 . S
C1541 H1544 0.928 . S
C1542 N1538 1.345 . S
C1542 C1543 1.371 . S
C1542 H1545 0.931 . S
C1543 C1539 1.391 . S
C1543 C1542 1.371 . S
C1543 H1550 0.930 . S
H1544 C1541 0.928 . S
H1545 C1542 0.931 . S
H1546 C1522 0.930 . S
H1547 C1519 0.930 . S
H1548 C1528 0.930 . S
H1549 C1540 0.929 . S
H1550 C1543 0.930 . S
C1551 C1552 1.351 . S
C1551 N1554 1.368 . S
C1551 H1556 0.931 . S
C1552 C1551 1.351 . S
C1552 N1553 1.373 . S
C1552 H1580 0.930 . S
N1553 C1552 1.373 . S
N1553 C1555 1.340 . S
N1554 C1551 1.368 . S
N1554 C1555 1.321 . S
N1554 Co1557 2.135 . S
C1555 N1553 1.340 . S
C1555 N1554 1.321 . S
C1555 H1579 0.930 . S
H1556 C1551 0.931 . S
Co1557 N1554 2.135 . S
Co1557 N1560 2.121 . S
Co1557 O1565 2.055 . S
Co1557 O1568 2.039 . S
Co1557 N1571 2.140 . S
C1558 O1559 1.227 . S
C1558 O1568 1.265 . S
O1559 C1558 1.227 . S
N1560 Co1557 2.121 . S
N1560 C1562 1.375 . S
N1560 C1563 1.313 . S
C1561 C1562 1.338 . S
C1561 N1564 1.377 . S
C1561 H1581 0.930 . S
C1562 N1560 1.375 . S
C1562 C1561 1.338 . S
C1562 H1566 0.931 . S
C1563 N1560 1.313 . S
C1563 N1564 1.344 . S
C1563 H1567 0.930 . S
N1564 C1561 1.377 . S
N1564 C1563 1.344 . S
O1565 Co1557 2.055 . S
O1565 C1569 1.253 . S
H1566 C1562 0.931 . S
H1567 C1563 0.930 . S
O1568 Co1557 2.039 . S
O1568 C1558 1.265 . S
C1569 O1565 1.253 . S
C1569 O1570 1.227 . S
O1570 C1569 1.227 . S
N1571 Co1557 2.140 . S
N1571 C1574 1.346 . S
N1571 C1575 1.345 . S
C1572 C1573 1.387 . S
C1572 C1576 1.391 . S
C1573 C1572 1.387 . S
C1573 C1574 1.369 . S
C1573 H1582 0.929 . S
C1574 N1571 1.346 . S
C1574 C1573 1.369 . S
C1574 H1577 0.928 . S
C1575 N1571 1.345 . S
C1575 C1576 1.371 . S
C1575 H1578 0.931 . S
C1576 C1572 1.391 . S
C1576 C1575 1.371 . S
C1576 H1583 0.930 . S
H1577 C1574 0.928 . S
H1578 C1575 0.931 . S
H1579 C1555 0.930 . S
H1580 C1552 0.930 . S
H1581 C1561 0.930 . S
H1582 C1573 0.929 . S
H1583 C1576 0.930 . S
C1584 C1585 1.387 . S
C1584 H1588 0.950 . S
C1584 C1593 1.390 . S
C1585 C1584 1.387 . S
C1585 C1587 1.387 . S
H1586 C1593 0.950 . S
C1587 C1585 1.387 . S
C1587 C1589 1.390 1_455 S
C1587 H1591 0.950 1_455 S
H1588 C1584 0.950 . S
C1589 C1587 1.390 1_655 S
C1589 C1590 1.387 . S
C1589 H1592 0.950 . S
C1590 C1589 1.387 . S
C1590 C1593 1.387 1_655 S
H1591 C1587 0.950 1_655 S
H1592 C1589 0.950 . S
C1593 C1584 1.390 . S
C1593 H1586 0.950 . S
C1593 C1590 1.387 1_455 S
C1594 C1595 1.387 . S
C1594 H1598 0.950 . S
C1594 C1603 1.390 . S
C1595 C1594 1.387 . S
C1595 C1597 1.387 . S
H1596 C1603 0.950 . S
C1597 C1595 1.387 . S
C1597 C1599 1.390 . S
C1597 H1601 0.950 . S
H1598 C1594 0.950 . S
C1599 C1597 1.390 . S
C1599 C1600 1.387 . S
C1599 H1602 0.950 . S
C1600 C1599 1.387 . S
C1600 C1603 1.387 . S
H1601 C1597 0.950 . S
H1602 C1599 0.950 . S
C1603 C1594 1.390 . S
C1603 H1596 0.950 . S
C1603 C1600 1.387 . S
C1604 C1605 1.387 . S
C1604 H1608 0.950 . S
C1604 C1613 1.390 . S
C1605 C1604 1.387 . S
C1605 C1607 1.387 . S
H1606 C1613 0.950 . S
C1607 C1605 1.387 . S
C1607 C1609 1.390 . S
C1607 H1611 0.950 . S
H1608 C1604 0.950 . S
C1609 C1607 1.390 . S
C1609 C1610 1.387 . S
C1609 H1612 0.950 . S
C1610 C1609 1.387 . S
C1610 C1613 1.387 . S
H1611 C1607 0.950 . S
H1612 C1609 0.950 . S
C1613 C1604 1.390 . S
C1613 H1606 0.950 . S
C1613 C1610 1.387 . S
C1614 C1615 1.387 . S
C1614 H1618 0.950 . S
C1614 C1623 1.390 . S
C1615 C1614 1.387 . S
C1615 C1617 1.387 . S
H1616 C1623 0.950 . S
C1617 C1615 1.387 . S
C1617 C1619 1.390 . S
C1617 H1621 0.950 . S
H1618 C1614 0.950 . S
C1619 C1617 1.390 . S
C1619 C1620 1.387 . S
C1619 H1622 0.950 . S
C1620 C1619 1.387 . S
C1620 C1623 1.387 . S
H1621 C1617 0.950 . S
H1622 C1619 0.950 . S
C1623 C1614 1.390 . S
C1623 H1616 0.950 . S
C1623 C1620 1.387 . S
C1624 C1625 1.387 1_455 S
C1624 H1628 0.950 . S
C1624 C1633 1.390 . S
C1625 C1624 1.387 1_655 S
C1625 C1627 1.387 . S
H1626 C1633 0.950 . S
C1627 C1625 1.387 . S
C1627 C1629 1.390 1_655 S
C1627 H1631 0.950 . S
H1628 C1624 0.950 . S
C1629 C1627 1.390 1_455 S
C1629 C1630 1.387 . S
C1629 H1632 0.950 . S
C1630 C1629 1.387 . S
C1630 C1633 1.387 . S
H1631 C1627 0.950 . S
H1632 C1629 0.950 . S
C1633 C1624 1.390 . S
C1633 H1626 0.950 . S
C1633 C1630 1.387 . S
C1634 C1635 1.387 . S
C1634 H1638 0.950 . S
C1634 C1643 1.390 . S
C1635 C1634 1.387 . S
C1635 C1637 1.387 . S
H1636 C1643 0.950 . S
C1637 C1635 1.387 . S
C1637 C1639 1.390 . S
C1637 H1641 0.950 . S
H1638 C1634 0.950 . S
C1639 C1637 1.390 . S
C1639 C1640 1.387 . S
C1639 H1642 0.950 . S
C1640 C1639 1.387 . S
C1640 C1643 1.387 . S
H1641 C1637 0.950 . S
H1642 C1639 0.950 . S
C1643 C1634 1.390 . S
C1643 H1636 0.950 . S
C1643 C1640 1.387 . S
C1644 C1645 1.387 . S
C1644 H1648 0.950 . S
C1644 C1653 1.390 . S
C1645 C1644 1.387 . S
C1645 C1647 1.387 . S
H1646 C1653 0.950 . S
C1647 C1645 1.387 . S
C1647 C1649 1.390 . S
C1647 H1651 0.950 . S
H1648 C1644 0.950 . S
C1649 C1647 1.390 . S
C1649 C1650 1.387 . S
C1649 H1652 0.950 . S
C1650 C1649 1.387 . S
C1650 C1653 1.387 . S
H1651 C1647 0.950 . S
H1652 C1649 0.950 . S
C1653 C1644 1.390 . S
C1653 H1646 0.950 . S
C1653 C1650 1.387 . S
C1654 C1655 1.387 . S
C1654 H1658 0.950 . S
C1654 C1663 1.390 . S
C1655 C1654 1.387 . S
C1655 C1657 1.387 . S
H1656 C1663 0.950 . S
C1657 C1655 1.387 . S
C1657 C1659 1.390 . S
C1657 H1661 0.950 . S
H1658 C1654 0.950 . S
C1659 C1657 1.390 . S
C1659 C1660 1.387 . S
C1659 H1662 0.950 . S
C1660 C1659 1.387 . S
C1660 C1663 1.387 . S
H1661 C1657 0.950 . S
H1662 C1659 0.950 . S
C1663 C1654 1.390 . S
C1663 H1656 0.950 . S
C1663 C1660 1.387 . S
C1664 C1665 1.387 1_545 S
C1664 H1668 0.950 . S
C1664 C1673 1.390 . S
C1665 C1664 1.387 1_565 S
C1665 C1667 1.387 . S
H1666 C1673 0.950 . S
C1667 C1665 1.387 . S
C1667 C1669 1.390 . S
C1667 H1671 0.950 . S
H1668 C1664 0.950 . S
C1669 C1667 1.390 . S
C1669 C1670 1.387 1_565 S
C1669 H1672 0.950 . S
C1670 C1669 1.387 1_545 S
C1670 C1673 1.387 . S
H1671 C1667 0.950 . S
H1672 C1669 0.950 . S
C1673 C1664 1.390 . S
C1673 H1666 0.950 . S
C1673 C1670 1.387 . S
C1674 C1675 1.387 . S
C1674 H1678 0.950 . S
C1674 C1683 1.390 . S
C1675 C1674 1.387 . S
C1675 C1677 1.387 . S
H1676 C1683 0.950 . S
C1677 C1675 1.387 . S
C1677 C1679 1.390 . S
C1677 H1681 0.950 . S
H1678 C1674 0.950 . S
C1679 C1677 1.390 . S
C1679 C1680 1.387 . S
C1679 H1682 0.950 . S
C1680 C1679 1.387 . S
C1680 C1683 1.387 . S
H1681 C1677 0.950 . S
H1682 C1679 0.950 . S
C1683 C1674 1.390 . S
C1683 H1676 0.950 . S
C1683 C1680 1.387 . S
C1684 C1685 1.387 . S
C1684 H1688 0.950 . S
C1684 C1693 1.390 1_545 S
C1685 C1684 1.387 . S
C1685 C1687 1.387 1_545 S
H1686 C1693 0.950 1_545 S
C1687 C1685 1.387 1_565 S
C1687 C1689 1.390 . S
C1687 H1691 0.950 . S
H1688 C1684 0.950 . S
C1689 C1687 1.390 . S
C1689 C1690 1.387 . S
C1689 H1692 0.950 . S
C1690 C1689 1.387 . S
C1690 C1693 1.387 . S
H1691 C1687 0.950 . S
H1692 C1689 0.950 . S
C1693 C1684 1.390 1_565 S
C1693 H1686 0.950 1_565 S
C1693 C1690 1.387 . S
C1694 C1695 1.387 . S
C1694 H1698 0.950 . S
C1694 C1703 1.390 . S
C1695 C1694 1.387 . S
C1695 C1697 1.387 . S
H1696 C1703 0.950 . S
C1697 C1695 1.387 . S
C1697 C1699 1.390 . S
C1697 H1701 0.950 . S
H1698 C1694 0.950 . S
C1699 C1697 1.390 . S
C1699 C1700 1.387 . S
C1699 H1702 0.950 . S
C1700 C1699 1.387 . S
C1700 C1703 1.387 . S
H1701 C1697 0.950 . S
H1702 C1699 0.950 . S
C1703 C1694 1.390 . S
C1703 H1696 0.950 . S
C1703 C1700 1.387 . S
C1704 C1705 1.387 1_565 S
C1704 H1708 0.950 . S
C1704 C1713 1.390 . S
C1705 C1704 1.387 1_545 S
C1705 C1707 1.387 . S
H1706 C1713 0.950 . S
C1707 C1705 1.387 . S
C1707 C1709 1.390 1_545 S
C1707 H1711 0.950 . S
H1708 C1704 0.950 . S
C1709 C1707 1.390 1_565 S
C1709 C1710 1.387 . S
C1709 H1712 0.950 1_565 S
C1710 C1709 1.387 . S
C1710 C1713 1.387 . S
H1711 C1707 0.950 . S
H1712 C1709 0.950 1_545 S
C1713 C1704 1.390 . S
C1713 H1706 0.950 . S
C1713 C1710 1.387 . S
C1714 C1715 1.387 . S
C1714 H1718 0.950 . S
C1714 C1723 1.390 . S
C1715 C1714 1.387 . S
C1715 C1717 1.387 . S
H1716 C1723 0.950 . S
C1717 C1715 1.387 . S
C1717 C1719 1.390 . S
C1717 H1721 0.950 . S
H1718 C1714 0.950 . S
C1719 C1717 1.390 . S
C1719 C1720 1.387 . S
C1719 H1722 0.950 . S
C1720 C1719 1.387 . S
C1720 C1723 1.387 . S
H1721 C1717 0.950 . S
H1722 C1719 0.950 . S
C1723 C1714 1.390 . S
C1723 H1716 0.950 . S
C1723 C1720 1.387 . S
C1724 C1725 1.387 . S
C1724 H1728 0.950 1_545 S
C1724 C1733 1.390 1_545 S
C1725 C1724 1.387 . S
C1725 C1727 1.387 . S
H1726 C1733 0.950 . S
C1727 C1725 1.387 . S
C1727 C1729 1.390 . S
C1727 H1731 0.950 . S
H1728 C1724 0.950 1_565 S
C1729 C1727 1.390 . S
C1729 C1730 1.387 1_545 S
C1729 H1732 0.950 . S
C1730 C1729 1.387 1_565 S
C1730 C1733 1.387 . S
H1731 C1727 0.950 . S
H1732 C1729 0.950 . S
C1733 C1724 1.390 1_565 S
C1733 H1726 0.950 . S
C1733 C1730 1.387 . S
C1734 C1735 1.387 . S
C1734 H1738 0.950 . S
C1734 C1743 1.390 . S
C1735 C1734 1.387 . S
C1735 C1737 1.387 . S
H1736 C1743 0.950 . S
C1737 C1735 1.387 . S
C1737 C1739 1.390 . S
C1737 H1741 0.950 . S
H1738 C1734 0.950 . S
C1739 C1737 1.390 . S
C1739 C1740 1.387 . S
C1739 H1742 0.950 . S
C1740 C1739 1.387 . S
C1740 C1743 1.387 . S
H1741 C1737 0.950 . S
H1742 C1739 0.950 . S
C1743 C1734 1.390 . S
C1743 H1736 0.950 . S
C1743 C1740 1.387 . S
C1744 C1745 1.387 . S
C1744 H1748 0.950 . S
C1744 C1753 1.390 1_554 S
C1745 C1744 1.387 . S
C1745 C1747 1.387 . S
H1746 C1753 0.950 . S
C1747 C1745 1.387 . S
C1747 C1749 1.390 . S
C1747 H1751 0.950 . S
H1748 C1744 0.950 . S
C1749 C1747 1.390 . S
C1749 C1750 1.387 1_554 S
C1749 H1752 0.950 . S
C1750 C1749 1.387 1_556 S
C1750 C1753 1.387 . S
H1751 C1747 0.950 . S
H1752 C1749 0.950 . S
C1753 C1744 1.390 1_556 S
C1753 H1746 0.950 . S
C1753 C1750 1.387 . S
C1754 C1755 1.387 1_554 S
C1754 H1758 0.950 . S
C1754 C1763 1.390 . S
C1755 C1754 1.387 1_556 S
C1755 C1757 1.387 . S
H1756 C1763 0.950 . S
C1757 C1755 1.387 . S
C1757 C1759 1.390 . S
C1757 H1761 0.950 . S
H1758 C1754 0.950 . S
C1759 C1757 1.390 . S
C1759 C1760 1.387 1_556 S
C1759 H1762 0.950 . S
C1760 C1759 1.387 1_554 S
C1760 C1763 1.387 . S
H1761 C1757 0.950 . S
H1762 C1759 0.950 . S
C1763 C1754 1.390 . S
C1763 H1756 0.950 . S
C1763 C1760 1.387 . S
C1764 C1765 1.387 . S
C1764 H1768 0.950 . S
C1764 C1773 1.390 . S
C1765 C1764 1.387 . S
C1765 C1767 1.387 . S
H1766 C1773 0.950 . S
C1767 C1765 1.387 . S
C1767 C1769 1.390 . S
C1767 H1771 0.950 . S
H1768 C1764 0.950 . S
C1769 C1767 1.390 . S
C1769 C1770 1.387 . S
C1769 H1772 0.950 . S
C1770 C1769 1.387 . S
C1770 C1773 1.387 . S
H1771 C1767 0.950 . S
H1772 C1769 0.950 . S
C1773 C1764 1.390 . S
C1773 H1766 0.950 . S
C1773 C1770 1.387 . S
C1774 C1775 1.387 . S
C1774 H1778 0.950 . S
C1774 C1783 1.390 . S
C1775 C1774 1.387 . S
C1775 C1777 1.387 . S
H1776 C1783 0.950 . S
C1777 C1775 1.387 . S
C1777 C1779 1.390 . S
C1777 H1781 0.950 . S
H1778 C1774 0.950 . S
C1779 C1777 1.390 . S
C1779 C1780 1.387 . S
C1779 H1782 0.950 . S
C1780 C1779 1.387 . S
C1780 C1783 1.387 . S
H1781 C1777 0.950 . S
H1782 C1779 0.950 . S
C1783 C1774 1.390 . S
C1783 H1776 0.950 . S
C1783 C1780 1.387 . S
C1784 C1785 1.387 . S
C1784 H1788 0.950 . S
C1784 C1793 1.390 . S
C1785 C1784 1.387 . S
C1785 C1787 1.387 . S
H1786 C1793 0.950 . S
C1787 C1785 1.387 . S
C1787 C1789 1.390 . S
C1787 H1791 0.950 . S
H1788 C1784 0.950 . S
C1789 C1787 1.390 . S
C1789 C1790 1.387 . S
C1789 H1792 0.950 . S
C1790 C1789 1.387 . S
C1790 C1793 1.387 . S
H1791 C1787 0.950 . S
H1792 C1789 0.950 . S
C1793 C1784 1.390 . S
C1793 H1786 0.950 . S
C1793 C1790 1.387 . S
C1794 C1795 1.387 . S
C1794 H1798 0.950 . S
C1794 C1803 1.390 . S
C1795 C1794 1.387 . S
C1795 C1797 1.387 . S
H1796 C1803 0.950 . S
C1797 C1795 1.387 . S
C1797 C1799 1.390 . S
C1797 H1801 0.950 . S
H1798 C1794 0.950 . S
C1799 C1797 1.390 . S
C1799 C1800 1.387 . S
C1799 H1802 0.950 . S
C1800 C1799 1.387 . S
C1800 C1803 1.387 . S
H1801 C1797 0.950 . S
H1802 C1799 0.950 . S
C1803 C1794 1.390 . S
C1803 H1796 0.950 . S
C1803 C1800 1.387 . S
C1804 C1805 1.387 . S
C1804 H1808 0.950 . S
C1804 C1813 1.390 . S
C1805 C1804 1.387 . S
C1805 C1807 1.387 . S
H1806 C1813 0.950 . S
C1807 C1805 1.387 . S
C1807 C1809 1.390 . S
C1807 H1811 0.950 . S
H1808 C1804 0.950 . S
C1809 C1807 1.390 . S
C1809 C1810 1.387 . S
C1809 H1812 0.950 . S
C1810 C1809 1.387 . S
C1810 C1813 1.387 . S
H1811 C1807 0.950 . S
H1812 C1809 0.950 . S
C1813 C1804 1.390 . S
C1813 H1806 0.950 . S
C1813 C1810 1.387 . S
C1814 C1815 1.387 . S
C1814 H1818 0.950 . S
C1814 C1823 1.390 . S
C1815 C1814 1.387 . S
C1815 C1817 1.387 . S
H1816 C1823 0.950 . S
C1817 C1815 1.387 . S
C1817 C1819 1.390 . S
C1817 H1821 0.950 . S
H1818 C1814 0.950 . S
C1819 C1817 1.390 . S
C1819 C1820 1.387 . S
C1819 H1822 0.950 . S
C1820 C1819 1.387 . S
C1820 C1823 1.387 . S
H1821 C1817 0.950 . S
H1822 C1819 0.950 . S
C1823 C1814 1.390 . S
C1823 H1816 0.950 . S
C1823 C1820 1.387 . S
C1824 C1825 1.387 . S
C1824 H1828 0.950 . S
C1824 C1833 1.390 . S
C1825 C1824 1.387 . S
C1825 C1827 1.387 . S
H1826 C1833 0.950 . S
C1827 C1825 1.387 . S
C1827 C1829 1.390 . S
C1827 H1831 0.950 . S
H1828 C1824 0.950 . S
C1829 C1827 1.390 . S
C1829 C1830 1.387 . S
C1829 H1832 0.950 . S
C1830 C1829 1.387 . S
C1830 C1833 1.387 . S
H1831 C1827 0.950 . S
H1832 C1829 0.950 . S
C1833 C1824 1.390 . S
C1833 H1826 0.950 . S
C1833 C1830 1.387 . S
C1834 C1835 1.387 . S
C1834 H1838 0.950 . S
C1834 C1843 1.390 . S
C1835 C1834 1.387 . S
C1835 C1837 1.387 . S
H1836 C1843 0.950 . S
C1837 C1835 1.387 . S
C1837 C1839 1.390 . S
C1837 H1841 0.950 . S
H1838 C1834 0.950 . S
C1839 C1837 1.390 . S
C1839 C1840 1.387 . S
C1839 H1842 0.950 . S
C1840 C1839 1.387 . S
C1840 C1843 1.387 . S
H1841 C1837 0.950 . S
H1842 C1839 0.950 . S
C1843 C1834 1.390 . S
C1843 H1836 0.950 . S
C1843 C1840 1.387 . S
C1844 C1845 1.387 1_455 S
C1844 H1848 0.950 . S
C1844 C1853 1.390 . S
C1845 C1844 1.387 1_655 S
C1845 C1847 1.387 . S
H1846 C1853 0.950 . S
C1847 C1845 1.387 . S
C1847 C1849 1.390 . S
C1847 H1851 0.950 . S
H1848 C1844 0.950 . S
C1849 C1847 1.390 . S
C1849 C1850 1.387 1_655 S
C1849 H1852 0.950 . S
C1850 C1849 1.387 1_455 S
C1850 C1853 1.387 . S
H1851 C1847 0.950 . S
H1852 C1849 0.950 . S
C1853 C1844 1.390 . S
C1853 H1846 0.950 . S
C1853 C1850 1.387 . S
C1854 C1855 1.387 . S
C1854 H1858 0.950 . S
C1854 C1863 1.390 . S
C1855 C1854 1.387 . S
C1855 C1857 1.387 . S
H1856 C1863 0.950 . S
C1857 C1855 1.387 . S
C1857 C1859 1.390 . S
C1857 H1861 0.950 . S
H1858 C1854 0.950 . S
C1859 C1857 1.390 . S
C1859 C1860 1.387 . S
C1859 H1862 0.950 . S
C1860 C1859 1.387 . S
C1860 C1863 1.387 . S
H1861 C1857 0.950 . S
H1862 C1859 0.950 . S
C1863 C1854 1.390 . S
C1863 H1856 0.950 . S
C1863 C1860 1.387 . S
C1864 C1865 1.387 . S
C1864 H1868 0.950 . S
C1864 C1873 1.390 . S
C1865 C1864 1.387 . S
C1865 C1867 1.387 . S
H1866 C1873 0.950 . S
C1867 C1865 1.387 . S
C1867 C1869 1.390 . S
C1867 H1871 0.950 . S
H1868 C1864 0.950 . S
C1869 C1867 1.390 . S
C1869 C1870 1.387 . S
C1869 H1872 0.950 . S
C1870 C1869 1.387 . S
C1870 C1873 1.387 . S
H1871 C1867 0.950 . S
H1872 C1869 0.950 . S
C1873 C1864 1.390 . S
C1873 H1866 0.950 . S
C1873 C1870 1.387 . S
C1874 C1875 1.387 . S
C1874 H1878 0.950 . S
C1874 C1883 1.390 . S
C1875 C1874 1.387 . S
C1875 C1877 1.387 . S
H1876 C1883 0.950 . S
C1877 C1875 1.387 . S
C1877 C1879 1.390 . S
C1877 H1881 0.950 . S
H1878 C1874 0.950 . S
C1879 C1877 1.390 . S
C1879 C1880 1.387 . S
C1879 H1882 0.950 . S
C1880 C1879 1.387 . S
C1880 C1883 1.387 . S
H1881 C1877 0.950 . S
H1882 C1879 0.950 . S
C1883 C1874 1.390 . S
C1883 H1876 0.950 . S
C1883 C1880 1.387 . S
C1884 C1885 1.387 . S
C1884 H1888 0.950 . S
C1884 C1893 1.390 . S
C1885 C1884 1.387 . S
C1885 C1887 1.387 . S
H1886 C1893 0.950 . S
C1887 C1885 1.387 . S
C1887 C1889 1.390 1_655 S
C1887 H1891 0.950 1_655 S
H1888 C1884 0.950 . S
C1889 C1887 1.390 1_455 S
C1889 C1890 1.387 . S
C1889 H1892 0.950 . S
C1890 C1889 1.387 . S
C1890 C1893 1.387 1_455 S
H1891 C1887 0.950 1_455 S
H1892 C1889 0.950 . S
C1893 C1884 1.390 . S
C1893 H1886 0.950 . S
C1893 C1890 1.387 1_655 S
C1894 C1895 1.387 . S
C1894 H1898 0.950 . S
C1894 C1903 1.390 . S
C1895 C1894 1.387 . S
C1895 C1897 1.387 . S
H1896 C1903 0.950 . S
C1897 C1895 1.387 . S
C1897 C1899 1.390 . S
C1897 H1901 0.950 . S
H1898 C1894 0.950 . S
C1899 C1897 1.390 . S
C1899 C1900 1.387 . S
C1899 H1902 0.950 . S
C1900 C1899 1.387 . S
C1900 C1903 1.387 . S
H1901 C1897 0.950 . S
H1902 C1899 0.950 . S
C1903 C1894 1.390 . S
C1903 H1896 0.950 . S
C1903 C1900 1.387 . S
C1904 C1905 1.387 . S
C1904 H1908 0.950 . S
C1904 C1913 1.390 . S
C1905 C1904 1.387 . S
C1905 C1907 1.387 . S
H1906 C1913 0.950 . S
C1907 C1905 1.387 . S
C1907 C1909 1.390 . S
C1907 H1911 0.950 . S
H1908 C1904 0.950 . S
C1909 C1907 1.390 . S
C1909 C1910 1.387 . S
C1909 H1912 0.950 . S
C1910 C1909 1.387 . S
C1910 C1913 1.387 . S
H1911 C1907 0.950 . S
H1912 C1909 0.950 . S
C1913 C1904 1.390 . S
C1913 H1906 0.950 . S
C1913 C1910 1.387 . S
C1914 C1915 1.387 . S
C1914 H1918 0.950 . S
C1914 C1923 1.390 . S
C1915 C1914 1.387 . S
C1915 C1917 1.387 . S
H1916 C1923 0.950 . S
C1917 C1915 1.387 . S
C1917 C1919 1.390 . S
C1917 H1921 0.950 . S
H1918 C1914 0.950 . S
C1919 C1917 1.390 . S
C1919 C1920 1.387 . S
C1919 H1922 0.950 . S
C1920 C1919 1.387 . S
C1920 C1923 1.387 . S
H1921 C1917 0.950 . S
H1922 C1919 0.950 . S
C1923 C1914 1.390 . S
C1923 H1916 0.950 . S
C1923 C1920 1.387 . S
C1924 C1925 1.387 . S
C1924 H1928 0.950 . S
C1924 C1933 1.390 . S
C1925 C1924 1.387 . S
C1925 C1927 1.387 . S
H1926 C1933 0.950 . S
C1927 C1925 1.387 . S
C1927 C1929 1.390 . S
C1927 H1931 0.950 . S
H1928 C1924 0.950 . S
C1929 C1927 1.390 . S
C1929 C1930 1.387 . S
C1929 H1932 0.950 . S
C1930 C1929 1.387 . S
C1930 C1933 1.387 . S
H1931 C1927 0.950 . S
H1932 C1929 0.950 . S
C1933 C1924 1.390 . S
C1933 H1926 0.950 . S
C1933 C1930 1.387 . S
C1934 C1935 1.387 . S
C1934 H1938 0.950 . S
C1934 C1943 1.390 . S
C1935 C1934 1.387 . S
C1935 C1937 1.387 . S
H1936 C1943 0.950 . S
C1937 C1935 1.387 . S
C1937 C1939 1.390 . S
C1937 H1941 0.950 . S
H1938 C1934 0.950 . S
C1939 C1937 1.390 . S
C1939 C1940 1.387 . S
C1939 H1942 0.950 . S
C1940 C1939 1.387 . S
C1940 C1943 1.387 . S
H1941 C1937 0.950 . S
H1942 C1939 0.950 . S
C1943 C1934 1.390 . S
C1943 H1936 0.950 . S
C1943 C1940 1.387 . S
C1944 C1945 1.387 . S
C1944 H1948 0.950 . S
C1944 C1953 1.390 . S
C1945 C1944 1.387 . S
C1945 C1947 1.387 . S
H1946 C1953 0.950 . S
C1947 C1945 1.387 . S
C1947 C1949 1.390 . S
C1947 H1951 0.950 . S
H1948 C1944 0.950 . S
C1949 C1947 1.390 . S
C1949 C1950 1.387 . S
C1949 H1952 0.950 . S
C1950 C1949 1.387 . S
C1950 C1953 1.387 . S
H1951 C1947 0.950 . S
H1952 C1949 0.950 . S
C1953 C1944 1.390 . S
C1953 H1946 0.950 . S
C1953 C1950 1.387 . S
C1954 C1955 1.387 . S
C1954 H1958 0.950 . S
C1954 C1963 1.390 . S
C1955 C1954 1.387 . S
C1955 C1957 1.387 . S
H1956 C1963 0.950 . S
C1957 C1955 1.387 . S
C1957 C1959 1.390 . S
C1957 H1961 0.950 . S
H1958 C1954 0.950 . S
C1959 C1957 1.390 . S
C1959 C1960 1.387 . S
C1959 H1962 0.950 . S
C1960 C1959 1.387 . S
C1960 C1963 1.387 . S
H1961 C1957 0.950 . S
H1962 C1959 0.950 . S
C1963 C1954 1.390 . S
C1963 H1956 0.950 . S
C1963 C1960 1.387 . S
C1964 C1965 1.387 . S
C1964 H1968 0.950 . S
C1964 C1973 1.390 . S
C1965 C1964 1.387 . S
C1965 C1967 1.387 . S
H1966 C1973 0.950 . S
C1967 C1965 1.387 . S
C1967 C1969 1.390 . S
C1967 H1971 0.950 . S
H1968 C1964 0.950 . S
C1969 C1967 1.390 . S
C1969 C1970 1.387 . S
C1969 H1972 0.950 . S
C1970 C1969 1.387 . S
C1970 C1973 1.387 . S
H1971 C1967 0.950 . S
H1972 C1969 0.950 . S
C1973 C1964 1.390 . S
C1973 H1966 0.950 . S
C1973 C1970 1.387 . S
C1974 C1975 1.387 . S
C1974 H1978 0.950 . S
C1974 C1983 1.390 . S
C1975 C1974 1.387 . S
C1975 C1977 1.387 . S
H1976 C1983 0.950 . S
C1977 C1975 1.387 . S
C1977 C1979 1.390 . S
C1977 H1981 0.950 . S
H1978 C1974 0.950 . S
C1979 C1977 1.390 . S
C1979 C1980 1.387 . S
C1979 H1982 0.950 . S
C1980 C1979 1.387 . S
C1980 C1983 1.387 . S
H1981 C1977 0.950 . S
H1982 C1979 0.950 . S
C1983 C1974 1.390 . S
C1983 H1976 0.950 . S
C1983 C1980 1.387 . S
C1984 C1985 1.387 . S
C1984 H1988 0.950 . S
C1984 C1993 1.390 . S
C1985 C1984 1.387 . S
C1985 C1987 1.387 . S
H1986 C1993 0.950 . S
C1987 C1985 1.387 . S
C1987 C1989 1.390 . S
C1987 H1991 0.950 . S
H1988 C1984 0.950 . S
C1989 C1987 1.390 . S
C1989 C1990 1.387 . S
C1989 H1992 0.950 . S
C1990 C1989 1.387 . S
C1990 C1993 1.387 . S
H1991 C1987 0.950 . S
H1992 C1989 0.950 . S
C1993 C1984 1.390 . S
C1993 H1986 0.950 . S
C1993 C1990 1.387 . S
C1994 C1995 1.387 . S
C1994 H1998 0.950 . S
C1994 C2003 1.390 . S
C1995 C1994 1.387 . S
C1995 C1997 1.387 . S
H1996 C2003 0.950 . S
C1997 C1995 1.387 . S
C1997 C1999 1.390 . S
C1997 H2001 0.950 . S
H1998 C1994 0.950 . S
C1999 C1997 1.390 . S
C1999 C2000 1.387 . S
C1999 H2002 0.950 . S
C2000 C1999 1.387 . S
C2000 C2003 1.387 . S
H2001 C1997 0.950 . S
H2002 C1999 0.950 . S
C2003 C1994 1.390 . S
C2003 H1996 0.950 . S
C2003 C2000 1.387 . S
C2004 C2005 1.387 . S
C2004 H2008 0.950 . S
C2004 C2013 1.390 . S
C2005 C2004 1.387 . S
C2005 C2007 1.387 . S
H2006 C2013 0.950 . S
C2007 C2005 1.387 . S
C2007 C2009 1.390 . S
C2007 H2011 0.950 . S
H2008 C2004 0.950 . S
C2009 C2007 1.390 . S
C2009 C2010 1.387 . S
C2009 H2012 0.950 . S
C2010 C2009 1.387 . S
C2010 C2013 1.387 . S
H2011 C2007 0.950 . S
H2012 C2009 0.950 . S
C2013 C2004 1.390 . S
C2013 H2006 0.950 . S
C2013 C2010 1.387 . S
C2014 C2015 1.387 . S
C2014 H2018 0.950 . S
C2014 C2023 1.390 . S
C2015 C2014 1.387 . S
C2015 C2017 1.387 1_556 S
H2016 C2023 0.950 . S
C2017 C2015 1.387 1_554 S
C2017 C2019 1.390 . S
C2017 H2021 0.950 . S
H2018 C2014 0.950 . S
C2019 C2017 1.390 . S
C2019 C2020 1.387 . S
C2019 H2022 0.950 . S
C2020 C2019 1.387 . S
C2020 C2023 1.387 1_554 S
H2021 C2017 0.950 . S
H2022 C2019 0.950 . S
C2023 C2014 1.390 . S
C2023 H2016 0.950 . S
C2023 C2020 1.387 1_556 S
C2024 C2025 1.387 . S
C2024 H2028 0.950 . S
C2024 C2033 1.390 . S
C2025 C2024 1.387 . S
C2025 C2027 1.387 . S
H2026 C2033 0.950 . S
C2027 C2025 1.387 . S
C2027 C2029 1.390 . S
C2027 H2031 0.950 . S
H2028 C2024 0.950 . S
C2029 C2027 1.390 . S
C2029 C2030 1.387 . S
C2029 H2032 0.950 . S
C2030 C2029 1.387 . S
C2030 C2033 1.387 . S
H2031 C2027 0.950 . S
H2032 C2029 0.950 . S
C2033 C2024 1.390 . S
C2033 H2026 0.950 . S
C2033 C2030 1.387 . S
C2034 C2035 1.387 . S
C2034 H2038 0.950 . S
C2034 C2043 1.390 . S
C2035 C2034 1.387 . S
C2035 C2037 1.387 1_556 S
H2036 C2043 0.950 . S
C2037 C2035 1.387 1_554 S
C2037 C2039 1.390 . S
C2037 H2041 0.950 . S
H2038 C2034 0.950 . S
C2039 C2037 1.390 . S
C2039 C2040 1.387 . S
C2039 H2042 0.950 . S
C2040 C2039 1.387 . S
C2040 C2043 1.387 1_554 S
H2041 C2037 0.950 . S
H2042 C2039 0.950 . S
C2043 C2034 1.390 . S
C2043 H2036 0.950 . S
C2043 C2040 1.387 1_556 S
C2044 C2045 1.387 . S
C2044 H2048 0.950 . S
C2044 C2053 1.390 . S
C2045 C2044 1.387 . S
C2045 C2047 1.387 . S
H2046 C2053 0.950 . S
C2047 C2045 1.387 . S
C2047 C2049 1.390 . S
C2047 H2051 0.950 . S
H2048 C2044 0.950 . S
C2049 C2047 1.390 . S
C2049 C2050 1.387 . S
C2049 H2052 0.950 . S
C2050 C2049 1.387 . S
C2050 C2053 1.387 . S
H2051 C2047 0.950 . S
H2052 C2049 0.950 . S
C2053 C2044 1.390 . S
C2053 H2046 0.950 . S
C2053 C2050 1.387 . S
C2054 C2055 1.387 . S
C2054 H2058 0.950 . S
C2054 C2063 1.390 . S
C2055 C2054 1.387 . S
C2055 C2057 1.387 . S
H2056 C2063 0.950 . S
C2057 C2055 1.387 . S
C2057 C2059 1.390 . S
C2057 H2061 0.950 . S
H2058 C2054 0.950 . S
C2059 C2057 1.390 . S
C2059 C2060 1.387 . S
C2059 H2062 0.950 . S
C2060 C2059 1.387 . S
C2060 C2063 1.387 . S
H2061 C2057 0.950 . S
H2062 C2059 0.950 . S
C2063 C2054 1.390 . S
C2063 H2056 0.950 . S
C2063 C2060 1.387 . S
C2064 C2065 1.387 . S
C2064 H2068 0.950 . S
C2064 C2073 1.390 . S
C2065 C2064 1.387 . S
C2065 C2067 1.387 . S
H2066 C2073 0.950 . S
C2067 C2065 1.387 . S
C2067 C2069 1.390 . S
C2067 H2071 0.950 . S
H2068 C2064 0.950 . S
C2069 C2067 1.390 . S
C2069 C2070 1.387 . S
C2069 H2072 0.950 . S
C2070 C2069 1.387 . S
C2070 C2073 1.387 . S
H2071 C2067 0.950 . S
H2072 C2069 0.950 . S
C2073 C2064 1.390 . S
C2073 H2066 0.950 . S
C2073 C2070 1.387 . S
C2074 C2075 1.387 . S
C2074 H2078 0.950 . S
C2074 C2083 1.390 . S
C2075 C2074 1.387 . S
C2075 C2077 1.387 . S
H2076 C2083 0.950 . S
C2077 C2075 1.387 . S
C2077 C2079 1.390 . S
C2077 H2081 0.950 . S
H2078 C2074 0.950 . S
C2079 C2077 1.390 . S
C2079 C2080 1.387 . S
C2079 H2082 0.950 . S
C2080 C2079 1.387 . S
C2080 C2083 1.387 . S
H2081 C2077 0.950 . S
H2082 C2079 0.950 . S
C2083 C2074 1.390 . S
C2083 H2076 0.950 . S
C2083 C2080 1.387 . S
C2084 C2085 1.387 . S
C2084 H2088 0.950 . S
C2084 C2093 1.390 . S
C2085 C2084 1.387 . S
C2085 C2087 1.387 . S
H2086 C2093 0.950 . S
C2087 C2085 1.387 . S
C2087 C2089 1.390 . S
C2087 H2091 0.950 . S
H2088 C2084 0.950 . S
C2089 C2087 1.390 . S
C2089 C2090 1.387 . S
C2089 H2092 0.950 . S
C2090 C2089 1.387 . S
C2090 C2093 1.387 . S
H2091 C2087 0.950 . S
H2092 C2089 0.950 . S
C2093 C2084 1.390 . S
C2093 H2086 0.950 . S
C2093 C2090 1.387 . S
C2094 C2095 1.387 . S
C2094 H2098 0.950 . S
C2094 C2103 1.390 . S
C2095 C2094 1.387 . S
C2095 C2097 1.387 . S
H2096 C2103 0.950 . S
C2097 C2095 1.387 . S
C2097 C2099 1.390 . S
C2097 H2101 0.950 . S
H2098 C2094 0.950 . S
C2099 C2097 1.390 . S
C2099 C2100 1.387 . S
C2099 H2102 0.950 . S
C2100 C2099 1.387 . S
C2100 C2103 1.387 . S
H2101 C2097 0.950 . S
H2102 C2099 0.950 . S
C2103 C2094 1.390 . S
C2103 H2096 0.950 . S
C2103 C2100 1.387 . S
C2104 C2105 1.387 . S
C2104 H2108 0.950 . S
C2104 C2113 1.390 . S
C2105 C2104 1.387 . S
C2105 C2107 1.387 . S
H2106 C2113 0.950 . S
C2107 C2105 1.387 . S
C2107 C2109 1.390 . S
C2107 H2111 0.950 . S
H2108 C2104 0.950 . S
C2109 C2107 1.390 . S
C2109 C2110 1.387 . S
C2109 H2112 0.950 . S
C2110 C2109 1.387 . S
C2110 C2113 1.387 . S
H2111 C2107 0.950 . S
H2112 C2109 0.950 . S
C2113 C2104 1.390 . S
C2113 H2106 0.950 . S
C2113 C2110 1.387 . S
C2114 C2115 1.387 . S
C2114 H2118 0.950 . S
C2114 C2123 1.390 . S
C2115 C2114 1.387 . S
C2115 C2117 1.387 . S
H2116 C2123 0.950 . S
C2117 C2115 1.387 . S
C2117 C2119 1.390 . S
C2117 H2121 0.950 . S
H2118 C2114 0.950 . S
C2119 C2117 1.390 . S
C2119 C2120 1.387 . S
C2119 H2122 0.950 . S
C2120 C2119 1.387 . S
C2120 C2123 1.387 . S
H2121 C2117 0.950 . S
H2122 C2119 0.950 . S
C2123 C2114 1.390 . S
C2123 H2116 0.950 . S
C2123 C2120 1.387 . S
C2124 C2125 1.387 . S
C2124 H2128 0.950 . S
C2124 C2133 1.390 . S
C2125 C2124 1.387 . S
C2125 C2127 1.387 . S
H2126 C2133 0.950 . S
C2127 C2125 1.387 . S
C2127 C2129 1.390 . S
C2127 H2131 0.950 . S
H2128 C2124 0.950 . S
C2129 C2127 1.390 . S
C2129 C2130 1.387 . S
C2129 H2132 0.950 . S
C2130 C2129 1.387 . S
C2130 C2133 1.387 . S
H2131 C2127 0.950 . S
H2132 C2129 0.950 . S
C2133 C2124 1.390 . S
C2133 H2126 0.950 . S
C2133 C2130 1.387 . S
C2134 C2135 1.387 . S
C2134 H2138 0.950 . S
C2134 C2143 1.390 . S
C2135 C2134 1.387 . S
C2135 C2137 1.387 . S
H2136 C2143 0.950 . S
C2137 C2135 1.387 . S
C2137 C2139 1.390 . S
C2137 H2141 0.950 . S
H2138 C2134 0.950 . S
C2139 C2137 1.390 . S
C2139 C2140 1.387 . S
C2139 H2142 0.950 . S
C2140 C2139 1.387 . S
C2140 C2143 1.387 . S
H2141 C2137 0.950 . S
H2142 C2139 0.950 . S
C2143 C2134 1.390 . S
C2143 H2136 0.950 . S
C2143 C2140 1.387 . S
C2144 C2145 1.387 . S
C2144 H2148 0.950 . S
C2144 C2153 1.390 . S
C2145 C2144 1.387 . S
C2145 C2147 1.387 . S
H2146 C2153 0.950 . S
C2147 C2145 1.387 . S
C2147 C2149 1.390 . S
C2147 H2151 0.950 . S
H2148 C2144 0.950 . S
C2149 C2147 1.390 . S
C2149 C2150 1.387 . S
C2149 H2152 0.950 . S
C2150 C2149 1.387 . S
C2150 C2153 1.387 . S
H2151 C2147 0.950 . S
H2152 C2149 0.950 . S
C2153 C2144 1.390 . S
C2153 H2146 0.950 . S
C2153 C2150 1.387 . S
C2154 C2155 1.387 . S
C2154 H2158 0.950 . S
C2154 C2163 1.390 . S
C2155 C2154 1.387 . S
C2155 C2157 1.387 . S
H2156 C2163 0.950 . S
C2157 C2155 1.387 . S
C2157 C2159 1.390 . S
C2157 H2161 0.950 . S
H2158 C2154 0.950 . S
C2159 C2157 1.390 . S
C2159 C2160 1.387 . S
C2159 H2162 0.950 . S
C2160 C2159 1.387 . S
C2160 C2163 1.387 . S
H2161 C2157 0.950 . S
H2162 C2159 0.950 . S
C2163 C2154 1.390 . S
C2163 H2156 0.950 . S
C2163 C2160 1.387 . S
C2164 C2165 1.387 . S
C2164 H2168 0.950 . S
C2164 C2173 1.390 . S
C2165 C2164 1.387 . S
C2165 C2167 1.387 . S
H2166 C2173 0.950 . S
C2167 C2165 1.387 . S
C2167 C2169 1.390 . S
C2167 H2171 0.950 . S
H2168 C2164 0.950 . S
C2169 C2167 1.390 . S
C2169 C2170 1.387 . S
C2169 H2172 0.950 . S
C2170 C2169 1.387 . S
C2170 C2173 1.387 . S
H2171 C2167 0.950 . S
H2172 C2169 0.950 . S
C2173 C2164 1.390 . S
C2173 H2166 0.950 . S
C2173 C2170 1.387 . S
C2174 C2175 1.387 . S
C2174 H2178 0.950 . S
C2174 C2183 1.390 . S
C2175 C2174 1.387 . S
C2175 C2177 1.387 . S
H2176 C2183 0.950 . S
C2177 C2175 1.387 . S
C2177 C2179 1.390 . S
C2177 H2181 0.950 . S
H2178 C2174 0.950 . S
C2179 C2177 1.390 . S
C2179 C2180 1.387 . S
C2179 H2182 0.950 . S
C2180 C2179 1.387 . S
C2180 C2183 1.387 . S
H2181 C2177 0.950 . S
H2182 C2179 0.950 . S
C2183 C2174 1.390 . S
C2183 H2176 0.950 . S
C2183 C2180 1.387 . S
C2184 C2185 1.387 . S
C2184 H2188 0.950 . S
C2184 C2193 1.390 . S
C2185 C2184 1.387 . S
C2185 C2187 1.387 . S
H2186 C2193 0.950 . S
C2187 C2185 1.387 . S
C2187 C2189 1.390 . S
C2187 H2191 0.950 . S
H2188 C2184 0.950 . S
C2189 C2187 1.390 . S
C2189 C2190 1.387 . S
C2189 H2192 0.950 . S
C2190 C2189 1.387 . S
C2190 C2193 1.387 . S
H2191 C2187 0.950 . S
H2192 C2189 0.950 . S
C2193 C2184 1.390 . S
C2193 H2186 0.950 . S
C2193 C2190 1.387 . S
C2194 C2195 1.387 . S
C2194 H2198 0.950 . S
C2194 C2203 1.390 . S
C2195 C2194 1.387 . S
C2195 C2197 1.387 . S
H2196 C2203 0.950 . S
C2197 C2195 1.387 . S
C2197 C2199 1.390 . S
C2197 H2201 0.950 . S
H2198 C2194 0.950 . S
C2199 C2197 1.390 . S
C2199 C2200 1.387 . S
C2199 H2202 0.950 . S
C2200 C2199 1.387 . S
C2200 C2203 1.387 . S
H2201 C2197 0.950 . S
H2202 C2199 0.950 . S
C2203 C2194 1.390 . S
C2203 H2196 0.950 . S
C2203 C2200 1.387 . S
C2204 C2205 1.387 . S
C2204 H2208 0.950 . S
C2204 C2213 1.390 . S
C2205 C2204 1.387 . S
C2205 C2207 1.387 . S
H2206 C2213 0.950 . S
C2207 C2205 1.387 . S
C2207 C2209 1.390 . S
C2207 H2211 0.950 . S
H2208 C2204 0.950 . S
C2209 C2207 1.390 . S
C2209 C2210 1.387 . S
C2209 H2212 0.950 . S
C2210 C2209 1.387 . S
C2210 C2213 1.387 . S
H2211 C2207 0.950 . S
H2212 C2209 0.950 . S
C2213 C2204 1.390 . S
C2213 H2206 0.950 . S
C2213 C2210 1.387 . S
C2214 C2215 1.387 . S
C2214 H2218 0.950 . S
C2214 C2223 1.390 . S
C2215 C2214 1.387 . S
C2215 C2217 1.387 . S
H2216 C2223 0.950 . S
C2217 C2215 1.387 . S
C2217 C2219 1.390 . S
C2217 H2221 0.950 . S
H2218 C2214 0.950 . S
C2219 C2217 1.390 . S
C2219 C2220 1.387 . S
C2219 H2222 0.950 . S
C2220 C2219 1.387 . S
C2220 C2223 1.387 . S
H2221 C2217 0.950 . S
H2222 C2219 0.950 . S
C2223 C2214 1.390 . S
C2223 H2216 0.950 . S
C2223 C2220 1.387 . S
C2224 C2225 1.387 . S
C2224 H2228 0.950 . S
C2224 C2233 1.390 . S
C2225 C2224 1.387 . S
C2225 C2227 1.387 . S
H2226 C2233 0.950 . S
C2227 C2225 1.387 . S
C2227 C2229 1.390 . S
C2227 H2231 0.950 . S
H2228 C2224 0.950 . S
C2229 C2227 1.390 . S
C2229 C2230 1.387 . S
C2229 H2232 0.950 . S
C2230 C2229 1.387 . S
C2230 C2233 1.387 . S
H2231 C2227 0.950 . S
H2232 C2229 0.950 . S
C2233 C2224 1.390 . S
C2233 H2226 0.950 . S
C2233 C2230 1.387 . S
C2234 C2235 1.387 . S
C2234 H2238 0.950 . S
C2234 C2243 1.390 . S
C2235 C2234 1.387 . S
C2235 C2237 1.387 . S
H2236 C2243 0.950 . S
C2237 C2235 1.387 . S
C2237 C2239 1.390 . S
C2237 H2241 0.950 . S
H2238 C2234 0.950 . S
C2239 C2237 1.390 . S
C2239 C2240 1.387 . S
C2239 H2242 0.950 . S
C2240 C2239 1.387 . S
C2240 C2243 1.387 . S
H2241 C2237 0.950 . S
H2242 C2239 0.950 . S
C2243 C2234 1.390 . S
C2243 H2236 0.950 . S
C2243 C2240 1.387 . S
C2244 C2245 1.387 . S
C2244 H2248 0.950 . S
C2244 C2253 1.390 . S
C2245 C2244 1.387 . S
C2245 C2247 1.387 . S
H2246 C2253 0.950 . S
C2247 C2245 1.387 . S
C2247 C2249 1.390 . S
C2247 H2251 0.950 . S
H2248 C2244 0.950 . S
C2249 C2247 1.390 . S
C2249 C2250 1.387 . S
C2249 H2252 0.950 . S
C2250 C2249 1.387 . S
C2250 C2253 1.387 . S
H2251 C2247 0.950 . S
H2252 C2249 0.950 . S
C2253 C2244 1.390 . S
C2253 H2246 0.950 . S
C2253 C2250 1.387 . S
C2254 C2255 1.387 . S
C2254 H2258 0.950 . S
C2254 C2263 1.390 . S
C2255 C2254 1.387 . S
C2255 C2257 1.387 . S
H2256 C2263 0.950 . S
C2257 C2255 1.387 . S
C2257 C2259 1.390 . S
C2257 H2261 0.950 . S
H2258 C2254 0.950 . S
C2259 C2257 1.390 . S
C2259 C2260 1.387 . S
C2259 H2262 0.950 . S
C2260 C2259 1.387 . S
C2260 C2263 1.387 . S
H2261 C2257 0.950 . S
H2262 C2259 0.950 . S
C2263 C2254 1.390 . S
C2263 H2256 0.950 . S
C2263 C2260 1.387 . S
C2264 C2265 1.387 . S
C2264 H2268 0.950 . S
C2264 C2273 1.390 . S
C2265 C2264 1.387 . S
C2265 C2267 1.387 . S
H2266 C2273 0.950 . S
C2267 C2265 1.387 . S
C2267 C2269 1.390 . S
C2267 H2271 0.950 . S
H2268 C2264 0.950 . S
C2269 C2267 1.390 . S
C2269 C2270 1.387 . S
C2269 H2272 0.950 . S
C2270 C2269 1.387 . S
C2270 C2273 1.387 . S
H2271 C2267 0.950 . S
H2272 C2269 0.950 . S
C2273 C2264 1.390 . S
C2273 H2266 0.950 . S
C2273 C2270 1.387 . S
C2274 C2275 1.387 . S
C2274 H2278 0.950 . S
C2274 C2283 1.390 . S
C2275 C2274 1.387 . S
C2275 C2277 1.387 . S
H2276 C2283 0.950 . S
C2277 C2275 1.387 . S
C2277 C2279 1.390 . S
C2277 H2281 0.950 . S
H2278 C2274 0.950 . S
C2279 C2277 1.390 . S
C2279 C2280 1.387 . S
C2279 H2282 0.950 . S
C2280 C2279 1.387 . S
C2280 C2283 1.387 . S
H2281 C2277 0.950 . S
H2282 C2279 0.950 . S
C2283 C2274 1.390 . S
C2283 H2276 0.950 . S
C2283 C2280 1.387 . S
C2284 C2285 1.387 . S
C2284 H2288 0.950 . S
C2284 C2293 1.390 . S
C2285 C2284 1.387 . S
C2285 C2287 1.387 . S
H2286 C2293 0.950 . S
C2287 C2285 1.387 . S
C2287 C2289 1.390 . S
C2287 H2291 0.950 . S
H2288 C2284 0.950 . S
C2289 C2287 1.390 . S
C2289 C2290 1.387 . S
C2289 H2292 0.950 . S
C2290 C2289 1.387 . S
C2290 C2293 1.387 . S
H2291 C2287 0.950 . S
H2292 C2289 0.950 . S
C2293 C2284 1.390 . S
C2293 H2286 0.950 . S
C2293 C2290 1.387 . S
C2294 C2295 1.387 . S
C2294 H2298 0.950 . S
C2294 C2303 1.390 . S
C2295 C2294 1.387 . S
C2295 C2297 1.387 . S
H2296 C2303 0.950 . S
C2297 C2295 1.387 . S
C2297 C2299 1.390 . S
C2297 H2301 0.950 . S
H2298 C2294 0.950 . S
C2299 C2297 1.390 . S
C2299 C2300 1.387 . S
C2299 H2302 0.950 . S
C2300 C2299 1.387 . S
C2300 C2303 1.387 . S
H2301 C2297 0.950 . S
H2302 C2299 0.950 . S
C2303 C2294 1.390 . S
C2303 H2296 0.950 . S
C2303 C2300 1.387 . S
C2304 C2305 1.387 . S
C2304 H2308 0.950 . S
C2304 C2313 1.390 . S
C2305 C2304 1.387 . S
C2305 C2307 1.387 . S
H2306 C2313 0.950 . S
C2307 C2305 1.387 . S
C2307 C2309 1.390 . S
C2307 H2311 0.950 . S
H2308 C2304 0.950 . S
C2309 C2307 1.390 . S
C2309 C2310 1.387 . S
C2309 H2312 0.950 . S
C2310 C2309 1.387 . S
C2310 C2313 1.387 . S
H2311 C2307 0.950 . S
H2312 C2309 0.950 . S
C2313 C2304 1.390 . S
C2313 H2306 0.950 . S
C2313 C2310 1.387 . S
C2314 C2315 1.387 . S
C2314 H2318 0.950 . S
C2314 C2323 1.390 . S
C2315 C2314 1.387 . S
C2315 C2317 1.387 . S
H2316 C2323 0.950 . S
C2317 C2315 1.387 . S
C2317 C2319 1.390 . S
C2317 H2321 0.950 . S
H2318 C2314 0.950 . S
C2319 C2317 1.390 . S
C2319 C2320 1.387 . S
C2319 H2322 0.950 . S
C2320 C2319 1.387 . S
C2320 C2323 1.387 . S
H2321 C2317 0.950 . S
H2322 C2319 0.950 . S
C2323 C2314 1.390 . S
C2323 H2316 0.950 . S
C2323 C2320 1.387 . S
C2324 C2325 1.387 . S
C2324 H2328 0.950 . S
C2324 C2333 1.390 . S
C2325 C2324 1.387 . S
C2325 C2327 1.387 . S
H2326 C2333 0.950 . S
C2327 C2325 1.387 . S
C2327 C2329 1.390 . S
C2327 H2331 0.950 . S
H2328 C2324 0.950 . S
C2329 C2327 1.390 . S
C2329 C2330 1.387 . S
C2329 H2332 0.950 . S
C2330 C2329 1.387 . S
C2330 C2333 1.387 . S
H2331 C2327 0.950 . S
H2332 C2329 0.950 . S
C2333 C2324 1.390 . S
C2333 H2326 0.950 . S
C2333 C2330 1.387 . S
C2334 C2335 1.387 . S
C2334 H2338 0.950 . S
C2334 C2343 1.390 . S
C2335 C2334 1.387 . S
C2335 C2337 1.387 . S
H2336 C2343 0.950 . S
C2337 C2335 1.387 . S
C2337 C2339 1.390 . S
C2337 H2341 0.950 . S
H2338 C2334 0.950 . S
C2339 C2337 1.390 . S
C2339 C2340 1.387 . S
C2339 H2342 0.950 . S
C2340 C2339 1.387 . S
C2340 C2343 1.387 . S
H2341 C2337 0.950 . S
H2342 C2339 0.950 . S
C2343 C2334 1.390 . S
C2343 H2336 0.950 . S
C2343 C2340 1.387 . S
C2344 C2345 1.387 . S
C2344 H2348 0.950 . S
C2344 C2353 1.390 . S
C2345 C2344 1.387 . S
C2345 C2347 1.387 . S
H2346 C2353 0.950 . S
C2347 C2345 1.387 . S
C2347 C2349 1.390 . S
C2347 H2351 0.950 . S
H2348 C2344 0.950 . S
C2349 C2347 1.390 . S
C2349 C2350 1.387 . S
C2349 H2352 0.950 . S
C2350 C2349 1.387 . S
C2350 C2353 1.387 . S
H2351 C2347 0.950 . S
H2352 C2349 0.950 . S
C2353 C2344 1.390 . S
C2353 H2346 0.950 . S
C2353 C2350 1.387 . S
C2354 C2355 1.387 . S
C2354 H2358 0.950 . S
C2354 C2363 1.390 . S
C2355 C2354 1.387 . S
C2355 C2357 1.387 . S
H2356 C2363 0.950 . S
C2357 C2355 1.387 . S
C2357 C2359 1.390 . S
C2357 H2361 0.950 . S
H2358 C2354 0.950 . S
C2359 C2357 1.390 . S
C2359 C2360 1.387 . S
C2359 H2362 0.950 . S
C2360 C2359 1.387 . S
C2360 C2363 1.387 . S
H2361 C2357 0.950 . S
H2362 C2359 0.950 . S
C2363 C2354 1.390 . S
C2363 H2356 0.950 . S
C2363 C2360 1.387 . S
C2364 C2365 1.387 . S
C2364 H2368 0.950 . S
C2364 C2373 1.390 . S
C2365 C2364 1.387 . S
C2365 C2367 1.387 . S
H2366 C2373 0.950 . S
C2367 C2365 1.387 . S
C2367 C2369 1.390 . S
C2367 H2371 0.950 . S
H2368 C2364 0.950 . S
C2369 C2367 1.390 . S
C2369 C2370 1.387 . S
C2369 H2372 0.950 . S
C2370 C2369 1.387 . S
C2370 C2373 1.387 . S
H2371 C2367 0.950 . S
H2372 C2369 0.950 . S
C2373 C2364 1.390 . S
C2373 H2366 0.950 . S
C2373 C2370 1.387 . S
C2374 C2375 1.387 . S
C2374 H2378 0.950 . S
C2374 C2383 1.390 . S
C2375 C2374 1.387 . S
C2375 C2377 1.387 . S
H2376 C2383 0.950 . S
C2377 C2375 1.387 . S
C2377 C2379 1.390 . S
C2377 H2381 0.950 . S
H2378 C2374 0.950 . S
C2379 C2377 1.390 . S
C2379 C2380 1.387 . S
C2379 H2382 0.950 . S
C2380 C2379 1.387 . S
C2380 C2383 1.387 . S
H2381 C2377 0.950 . S
H2382 C2379 0.950 . S
C2383 C2374 1.390 . S
C2383 H2376 0.950 . S
C2383 C2380 1.387 . S
C2384 C2385 1.387 . S
C2384 H2388 0.950 . S
C2384 C2393 1.390 . S
C2385 C2384 1.387 . S
C2385 C2387 1.387 . S
H2386 C2393 0.950 . S
C2387 C2385 1.387 . S
C2387 C2389 1.390 . S
C2387 H2391 0.950 . S
H2388 C2384 0.950 . S
C2389 C2387 1.390 . S
C2389 C2390 1.387 . S
C2389 H2392 0.950 . S
C2390 C2389 1.387 . S
C2390 C2393 1.387 . S
H2391 C2387 0.950 . S
H2392 C2389 0.950 . S
C2393 C2384 1.390 . S
C2393 H2386 0.950 . S
C2393 C2390 1.387 . S
C2394 C2395 1.387 . S
C2394 H2398 0.950 . S
C2394 C2403 1.390 . S
C2395 C2394 1.387 . S
C2395 C2397 1.387 . S
H2396 C2403 0.950 . S
C2397 C2395 1.387 . S
C2397 C2399 1.390 . S
C2397 H2401 0.950 . S
H2398 C2394 0.950 . S
C2399 C2397 1.390 . S
C2399 C2400 1.387 . S
C2399 H2402 0.950 . S
C2400 C2399 1.387 . S
C2400 C2403 1.387 . S
H2401 C2397 0.950 . S
H2402 C2399 0.950 . S
C2403 C2394 1.390 . S
C2403 H2396 0.950 . S
C2403 C2400 1.387 . S
C2404 C2405 1.387 . S
C2404 H2408 0.950 . S
C2404 C2413 1.390 . S
C2405 C2404 1.387 . S
C2405 C2407 1.387 . S
H2406 C2413 0.950 . S
C2407 C2405 1.387 . S
C2407 C2409 1.390 . S
C2407 H2411 0.950 . S
H2408 C2404 0.950 . S
C2409 C2407 1.390 . S
C2409 C2410 1.387 . S
C2409 H2412 0.950 . S
C2410 C2409 1.387 . S
C2410 C2413 1.387 . S
H2411 C2407 0.950 . S
H2412 C2409 0.950 . S
C2413 C2404 1.390 . S
C2413 H2406 0.950 . S
C2413 C2410 1.387 . S
C2414 C2415 1.387 . S
C2414 H2418 0.950 . S
C2414 C2423 1.390 . S
C2415 C2414 1.387 . S
C2415 C2417 1.387 . S
H2416 C2423 0.950 . S
C2417 C2415 1.387 . S
C2417 C2419 1.390 . S
C2417 H2421 0.950 . S
H2418 C2414 0.950 . S
C2419 C2417 1.390 . S
C2419 C2420 1.387 . S
C2419 H2422 0.950 . S
C2420 C2419 1.387 . S
C2420 C2423 1.387 . S
H2421 C2417 0.950 . S
H2422 C2419 0.950 . S
C2423 C2414 1.390 . S
C2423 H2416 0.950 . S
C2423 C2420 1.387 . S
C2424 C2425 1.387 . S
C2424 H2428 0.950 . S
C2424 C2433 1.390 . S
C2425 C2424 1.387 . S
C2425 C2427 1.387 . S
H2426 C2433 0.950 . S
C2427 C2425 1.387 . S
C2427 C2429 1.390 . S
C2427 H2431 0.950 . S
H2428 C2424 0.950 . S
C2429 C2427 1.390 . S
C2429 C2430 1.387 . S
C2429 H2432 0.950 . S
C2430 C2429 1.387 . S
C2430 C2433 1.387 . S
H2431 C2427 0.950 . S
H2432 C2429 0.950 . S
C2433 C2424 1.390 . S
C2433 H2426 0.950 . S
C2433 C2430 1.387 . S
C2434 C2435 1.387 . S
C2434 H2438 0.950 . S
C2434 C2443 1.390 . S
C2435 C2434 1.387 . S
C2435 C2437 1.387 . S
H2436 C2443 0.950 . S
C2437 C2435 1.387 . S
C2437 C2439 1.390 . S
C2437 H2441 0.950 . S
H2438 C2434 0.950 . S
C2439 C2437 1.390 . S
C2439 C2440 1.387 . S
C2439 H2442 0.950 . S
C2440 C2439 1.387 . S
C2440 C2443 1.387 . S
H2441 C2437 0.950 . S
H2442 C2439 0.950 . S
C2443 C2434 1.390 . S
C2443 H2436 0.950 . S
C2443 C2440 1.387 . S
C2444 C2445 1.387 . S
C2444 H2448 0.950 . S
C2444 C2453 1.390 . S
C2445 C2444 1.387 . S
C2445 C2447 1.387 . S
H2446 C2453 0.950 . S
C2447 C2445 1.387 . S
C2447 C2449 1.390 . S
C2447 H2451 0.950 . S
H2448 C2444 0.950 . S
C2449 C2447 1.390 . S
C2449 C2450 1.387 . S
C2449 H2452 0.950 . S
C2450 C2449 1.387 . S
C2450 C2453 1.387 . S
H2451 C2447 0.950 . S
H2452 C2449 0.950 . S
C2453 C2444 1.390 . S
C2453 H2446 0.950 . S
C2453 C2450 1.387 . S
C2454 C2455 1.387 . S
C2454 H2458 0.950 . S
C2454 C2463 1.390 . S
C2455 C2454 1.387 . S
C2455 C2457 1.387 . S
H2456 C2463 0.950 . S
C2457 C2455 1.387 . S
C2457 C2459 1.390 . S
C2457 H2461 0.950 . S
H2458 C2454 0.950 . S
C2459 C2457 1.390 . S
C2459 C2460 1.387 . S
C2459 H2462 0.950 . S
C2460 C2459 1.387 . S
C2460 C2463 1.387 . S
H2461 C2457 0.950 . S
H2462 C2459 0.950 . S
C2463 C2454 1.390 . S
C2463 H2456 0.950 . S
C2463 C2460 1.387 . S
C2464 C2465 1.387 . S
C2464 H2468 0.950 . S
C2464 C2473 1.390 . S
C2465 C2464 1.387 . S
C2465 C2467 1.387 . S
H2466 C2473 0.950 . S
C2467 C2465 1.387 . S
C2467 C2469 1.390 . S
C2467 H2471 0.950 . S
H2468 C2464 0.950 . S
C2469 C2467 1.390 . S
C2469 C2470 1.387 . S
C2469 H2472 0.950 . S
C2470 C2469 1.387 . S
C2470 C2473 1.387 . S
H2471 C2467 0.950 . S
H2472 C2469 0.950 . S
C2473 C2464 1.390 . S
C2473 H2466 0.950 . S
C2473 C2470 1.387 . S
C2474 C2475 1.387 . S
C2474 H2478 0.950 . S
C2474 C2483 1.390 . S
C2475 C2474 1.387 . S
C2475 C2477 1.387 . S
H2476 C2483 0.950 . S
C2477 C2475 1.387 . S
C2477 C2479 1.390 . S
C2477 H2481 0.950 . S
H2478 C2474 0.950 . S
C2479 C2477 1.390 . S
C2479 C2480 1.387 . S
C2479 H2482 0.950 . S
C2480 C2479 1.387 . S
C2480 C2483 1.387 . S
H2481 C2477 0.950 . S
H2482 C2479 0.950 . S
C2483 C2474 1.390 . S
C2483 H2476 0.950 . S
C2483 C2480 1.387 . S
C2484 C2485 1.387 . S
C2484 H2488 0.950 . S
C2484 C2493 1.390 . S
C2485 C2484 1.387 . S
C2485 C2487 1.387 . S
H2486 C2493 0.950 . S
C2487 C2485 1.387 . S
C2487 C2489 1.390 . S
C2487 H2491 0.950 . S
H2488 C2484 0.950 . S
C2489 C2487 1.390 . S
C2489 C2490 1.387 . S
C2489 H2492 0.950 . S
C2490 C2489 1.387 . S
C2490 C2493 1.387 . S
H2491 C2487 0.950 . S
H2492 C2489 0.950 . S
C2493 C2484 1.390 . S
C2493 H2486 0.950 . S
C2493 C2490 1.387 . S
C2494 C2495 1.387 . S
C2494 H2498 0.950 . S
C2494 C2503 1.390 . S
C2495 C2494 1.387 . S
C2495 C2497 1.387 . S
H2496 C2503 0.950 . S
C2497 C2495 1.387 . S
C2497 C2499 1.390 . S
C2497 H2501 0.950 . S
H2498 C2494 0.950 . S
C2499 C2497 1.390 . S
C2499 C2500 1.387 . S
C2499 H2502 0.950 . S
C2500 C2499 1.387 . S
C2500 C2503 1.387 . S
H2501 C2497 0.950 . S
H2502 C2499 0.950 . S
C2503 C2494 1.390 . S
C2503 H2496 0.950 . S
C2503 C2500 1.387 . S
C2504 C2505 1.387 . S
C2504 H2508 0.950 . S
C2504 C2513 1.390 . S
C2505 C2504 1.387 . S
C2505 C2507 1.387 . S
H2506 C2513 0.950 . S
C2507 C2505 1.387 . S
C2507 C2509 1.390 . S
C2507 H2511 0.950 . S
H2508 C2504 0.950 . S
C2509 C2507 1.390 . S
C2509 C2510 1.387 . S
C2509 H2512 0.950 . S
C2510 C2509 1.387 . S
C2510 C2513 1.387 . S
H2511 C2507 0.950 . S
H2512 C2509 0.950 . S
C2513 C2504 1.390 . S
C2513 H2506 0.950 . S
C2513 C2510 1.387 . S
C2514 C2515 1.387 . S
C2514 H2518 0.950 . S
C2514 C2523 1.390 . S
C2515 C2514 1.387 . S
C2515 C2517 1.387 . S
H2516 C2523 0.950 . S
C2517 C2515 1.387 . S
C2517 C2519 1.390 . S
C2517 H2521 0.950 . S
H2518 C2514 0.950 . S
C2519 C2517 1.390 . S
C2519 C2520 1.387 . S
C2519 H2522 0.950 . S
C2520 C2519 1.387 . S
C2520 C2523 1.387 . S
H2521 C2517 0.950 . S
H2522 C2519 0.950 . S
C2523 C2514 1.390 . S
C2523 H2516 0.950 . S
C2523 C2520 1.387 . S
C2524 C2525 1.387 . S
C2524 H2528 0.950 . S
C2524 C2533 1.390 . S
C2525 C2524 1.387 . S
C2525 C2527 1.387 . S
H2526 C2533 0.950 . S
C2527 C2525 1.387 . S
C2527 C2529 1.390 . S
C2527 H2531 0.950 . S
H2528 C2524 0.950 . S
C2529 C2527 1.390 . S
C2529 C2530 1.387 . S
C2529 H2532 0.950 . S
C2530 C2529 1.387 . S
C2530 C2533 1.387 . S
H2531 C2527 0.950 . S
H2532 C2529 0.950 . S
C2533 C2524 1.390 . S
C2533 H2526 0.950 . S
C2533 C2530 1.387 . S
C2534 C2535 1.387 . S
C2534 H2538 0.950 . S
C2534 C2543 1.390 . S
C2535 C2534 1.387 . S
C2535 C2537 1.387 . S
H2536 C2543 0.950 . S
C2537 C2535 1.387 . S
C2537 C2539 1.390 . S
C2537 H2541 0.950 . S
H2538 C2534 0.950 . S
C2539 C2537 1.390 . S
C2539 C2540 1.387 . S
C2539 H2542 0.950 . S
C2540 C2539 1.387 . S
C2540 C2543 1.387 . S
H2541 C2537 0.950 . S
H2542 C2539 0.950 . S
C2543 C2534 1.390 . S
C2543 H2536 0.950 . S
C2543 C2540 1.387 . S
C2544 C2545 1.387 1_655 S
C2544 H2548 0.950 . S
C2544 C2553 1.390 1_545 S
C2545 C2544 1.387 1_455 S
C2545 C2547 1.387 . S
H2546 C2553 0.950 . S
C2547 C2545 1.387 . S
C2547 C2549 1.390 1_545 S
C2547 H2551 0.950 . S
H2548 C2544 0.950 . S
C2549 C2547 1.390 1_565 S
C2549 C2550 1.387 . S
C2549 H2552 0.950 . S
C2550 C2549 1.387 . S
C2550 C2553 1.387 1_455 S
H2551 C2547 0.950 . S
H2552 C2549 0.950 . S
C2553 C2544 1.390 1_565 S
C2553 H2546 0.950 . S
C2553 C2550 1.387 1_655 S
C2554 C2555 1.387 . S
C2554 H2558 0.950 . S
C2554 C2563 1.390 . S
C2555 C2554 1.387 . S
C2555 C2557 1.387 . S
H2556 C2563 0.950 . S
C2557 C2555 1.387 . S
C2557 C2559 1.390 . S
C2557 H2561 0.950 . S
H2558 C2554 0.950 . S
C2559 C2557 1.390 . S
C2559 C2560 1.387 . S
C2559 H2562 0.950 . S
C2560 C2559 1.387 . S
C2560 C2563 1.387 . S
H2561 C2557 0.950 . S
H2562 C2559 0.950 . S
C2563 C2554 1.390 . S
C2563 H2556 0.950 . S
C2563 C2560 1.387 . S
C2564 C2565 1.387 . S
C2564 H2568 0.950 . S
C2564 C2573 1.390 1_565 S
C2565 C2564 1.387 . S
C2565 C2567 1.387 . S
H2566 C2573 0.950 . S
C2567 C2565 1.387 . S
C2567 C2569 1.390 1_565 S
C2567 H2571 0.950 . S
H2568 C2564 0.950 . S
C2569 C2567 1.390 1_545 S
C2569 C2570 1.387 . S
C2569 H2572 0.950 . S
C2570 C2569 1.387 . S
C2570 C2573 1.387 . S
H2571 C2567 0.950 . S
H2572 C2569 0.950 . S
C2573 C2564 1.390 1_545 S
C2573 H2566 0.950 . S
C2573 C2570 1.387 . S
C2574 C2575 1.387 . S
C2574 H2578 0.950 . S
C2574 C2583 1.390 1_556 S
C2575 C2574 1.387 . S
C2575 C2577 1.387 . S
H2576 C2583 0.950 . S
C2577 C2575 1.387 . S
C2577 C2579 1.390 1_556 S
C2577 H2581 0.950 . S
H2578 C2574 0.950 . S
C2579 C2577 1.390 1_554 S
C2579 C2580 1.387 . S
C2579 H2582 0.950 . S
C2580 C2579 1.387 . S
C2580 C2583 1.387 . S
H2581 C2577 0.950 . S
H2582 C2579 0.950 . S
C2583 C2574 1.390 1_554 S
C2583 H2576 0.950 . S
C2583 C2580 1.387 . S
C2584 C2585 1.387 . S
C2584 H2588 0.950 . S
C2584 C2593 1.390 1_554 S
C2585 C2584 1.387 . S
C2585 C2587 1.387 1_545 S
H2586 C2593 0.950 . S
C2587 C2585 1.387 1_565 S
C2587 C2589 1.390 1_554 S
C2587 H2591 0.950 . S
H2588 C2584 0.950 . S
C2589 C2587 1.390 1_556 S
C2589 C2590 1.387 1_565 S
C2589 H2592 0.950 . S
C2590 C2589 1.387 1_545 S
C2590 C2593 1.387 . S
H2591 C2587 0.950 . S
H2592 C2589 0.950 . S
C2593 C2584 1.390 1_556 S
C2593 H2586 0.950 . S
C2593 C2590 1.387 . S
C2594 C2595 1.387 . S
C2594 H2598 0.950 . S
C2594 C2603 1.390 1_545 S
C2595 C2594 1.387 . S
C2595 C2597 1.387 . S
H2596 C2603 0.950 . S
C2597 C2595 1.387 . S
C2597 C2599 1.390 1_545 S
C2597 H2601 0.950 . S
H2598 C2594 0.950 . S
C2599 C2597 1.390 1_565 S
C2599 C2600 1.387 . S
C2599 H2602 0.950 . S
C2600 C2599 1.387 . S
C2600 C2603 1.387 . S
H2601 C2597 0.950 . S
H2602 C2599 0.950 . S
C2603 C2594 1.390 1_565 S
C2603 H2596 0.950 . S
C2603 C2600 1.387 . S
C2604 C2605 1.387 1_545 S
C2604 H2608 0.950 . S
C2604 C2613 1.390 . S
C2605 C2604 1.387 1_565 S
C2605 C2607 1.387 . S
H2606 C2613 0.950 . S
C2607 C2605 1.387 . S
C2607 C2609 1.390 . S
C2607 H2611 0.950 . S
H2608 C2604 0.950 . S
C2609 C2607 1.390 . S
C2609 C2610 1.387 . S
C2609 H2612 0.950 . S
C2610 C2609 1.387 . S
C2610 C2613 1.387 1_565 S
H2611 C2607 0.950 . S
H2612 C2609 0.950 . S
C2613 C2604 1.390 . S
C2613 H2606 0.950 . S
C2613 C2610 1.387 1_545 S
C2614 C2615 1.387 . S
C2614 H2618 0.950 . S
C2614 C2623 1.390 1_545 S
C2615 C2614 1.387 . S
C2615 C2617 1.387 . S
H2616 C2623 0.950 . S
C2617 C2615 1.387 . S
C2617 C2619 1.390 1_545 S
C2617 H2621 0.950 . S
H2618 C2614 0.950 . S
C2619 C2617 1.390 1_565 S
C2619 C2620 1.387 . S
C2619 H2622 0.950 . S
C2620 C2619 1.387 . S
C2620 C2623 1.387 . S
H2621 C2617 0.950 . S
H2622 C2619 0.950 . S
C2623 C2614 1.390 1_565 S
C2623 H2616 0.950 . S
C2623 C2620 1.387 . S
C2624 C2625 1.387 . S
C2624 H2628 0.950 . S
C2624 C2633 1.390 1_655 S
C2625 C2624 1.387 . S
C2625 C2627 1.387 1_554 S
H2626 C2633 0.950 . S
C2627 C2625 1.387 1_556 S
C2627 C2629 1.390 1_655 S
C2627 H2631 0.950 . S
H2628 C2624 0.950 . S
C2629 C2627 1.390 1_455 S
C2629 C2630 1.387 1_556 S
C2629 H2632 0.950 . S
C2630 C2629 1.387 1_554 S
C2630 C2633 1.387 . S
H2631 C2627 0.950 . S
H2632 C2629 0.950 . S
C2633 C2624 1.390 1_455 S
C2633 H2626 0.950 . S
C2633 C2630 1.387 . S
C2634 C2635 1.387 1_554 S
C2634 H2638 0.950 . S
C2634 C2643 1.390 . S
C2635 C2634 1.387 1_556 S
C2635 C2637 1.387 . S
H2636 C2643 0.950 . S
C2637 C2635 1.387 . S
C2637 C2639 1.390 . S
C2637 H2641 0.950 . S
H2638 C2634 0.950 . S
C2639 C2637 1.390 . S
C2639 C2640 1.387 . S
C2639 H2642 0.950 . S
C2640 C2639 1.387 . S
C2640 C2643 1.387 1_556 S
H2641 C2637 0.950 . S
H2642 C2639 0.950 . S
C2643 C2634 1.390 . S
C2643 H2636 0.950 . S
C2643 C2640 1.387 1_554 S
C2644 C2645 1.387 . S
C2644 H2648 0.950 . S
C2644 C2653 1.390 1_655 S
C2645 C2644 1.387 . S
C2645 C2647 1.387 . S
H2646 C2653 0.950 . S
C2647 C2645 1.387 . S
C2647 C2649 1.390 1_655 S
C2647 H2651 0.950 . S
H2648 C2644 0.950 . S
C2649 C2647 1.390 1_455 S
C2649 C2650 1.387 . S
C2649 H2652 0.950 . S
C2650 C2649 1.387 . S
C2650 C2653 1.387 . S
H2651 C2647 0.950 . S
H2652 C2649 0.950 . S
C2653 C2644 1.390 1_455 S
C2653 H2646 0.950 . S
C2653 C2650 1.387 . S
C2654 C2655 1.387 . S
C2654 H2658 0.950 . S
C2654 C2663 1.390 1_655 S
C2655 C2654 1.387 . S
C2655 C2657 1.387 . S
H2656 C2663 0.950 . S
C2657 C2655 1.387 . S
C2657 C2659 1.390 1_655 S
C2657 H2661 0.950 . S
H2658 C2654 0.950 . S
C2659 C2657 1.390 1_455 S
C2659 C2660 1.387 . S
C2659 H2662 0.950 . S
C2660 C2659 1.387 . S
C2660 C2663 1.387 . S
H2661 C2657 0.950 . S
H2662 C2659 0.950 . S
C2663 C2654 1.390 1_455 S
C2663 H2656 0.950 . S
C2663 C2660 1.387 . S
C2664 C2665 1.387 . S
C2664 H2668 0.950 . S
C2664 C2673 1.390 . S
C2665 C2664 1.387 . S
C2665 C2667 1.387 . S
H2666 C2673 0.950 . S
C2667 C2665 1.387 . S
C2667 C2669 1.390 . S
C2667 H2671 0.950 . S
H2668 C2664 0.950 . S
C2669 C2667 1.390 . S
C2669 C2670 1.387 . S
C2669 H2672 0.950 . S
C2670 C2669 1.387 . S
C2670 C2673 1.387 . S
H2671 C2667 0.950 . S
H2672 C2669 0.950 . S
C2673 C2664 1.390 . S
C2673 H2666 0.950 . S
C2673 C2670 1.387 . S
C2674 C2675 1.387 . S
C2674 H2678 0.950 . S
C2674 C2683 1.390 1_655 S
C2675 C2674 1.387 . S
C2675 C2677 1.387 . S
H2676 C2683 0.950 . S
C2677 C2675 1.387 . S
C2677 C2679 1.390 1_655 S
C2677 H2681 0.950 . S
H2678 C2674 0.950 . S
C2679 C2677 1.390 1_455 S
C2679 C2680 1.387 . S
C2679 H2682 0.950 . S
C2680 C2679 1.387 . S
C2680 C2683 1.387 . S
H2681 C2677 0.950 . S
H2682 C2679 0.950 . S
C2683 C2674 1.390 1_455 S
C2683 H2676 0.950 . S
C2683 C2680 1.387 . S
C2684 C2685 1.387 . S
C2684 H2688 0.950 . S
C2684 C2693 1.390 . S
C2685 C2684 1.387 . S
C2685 C2687 1.387 . S
H2686 C2693 0.950 . S
C2687 C2685 1.387 . S
C2687 C2689 1.390 . S
C2687 H2691 0.950 . S
H2688 C2684 0.950 . S
C2689 C2687 1.390 . S
C2689 C2690 1.387 . S
C2689 H2692 0.950 . S
C2690 C2689 1.387 . S
C2690 C2693 1.387 . S
H2691 C2687 0.950 . S
H2692 C2689 0.950 . S
C2693 C2684 1.390 . S
C2693 H2686 0.950 . S
C2693 C2690 1.387 . S
C2694 C2695 1.387 . S
C2694 H2698 0.950 . S
C2694 C2703 1.390 . S
C2695 C2694 1.387 . S
C2695 C2697 1.387 . S
H2696 C2703 0.950 . S
C2697 C2695 1.387 . S
C2697 C2699 1.390 . S
C2697 H2701 0.950 . S
H2698 C2694 0.950 . S
C2699 C2697 1.390 . S
C2699 C2700 1.387 . S
C2699 H2702 0.950 . S
C2700 C2699 1.387 . S
C2700 C2703 1.387 . S
H2701 C2697 0.950 . S
H2702 C2699 0.950 . S
C2703 C2694 1.390 . S
C2703 H2696 0.950 . S
C2703 C2700 1.387 . S
C2704 C2705 1.387 . S
C2704 H2708 0.950 . S
C2704 C2713 1.390 1_554 S
C2705 C2704 1.387 . S
C2705 C2707 1.387 . S
H2706 C2713 0.950 . S
C2707 C2705 1.387 . S
C2707 C2709 1.390 1_554 S
C2707 H2711 0.950 . S
H2708 C2704 0.950 . S
C2709 C2707 1.390 1_556 S
C2709 C2710 1.387 . S
C2709 H2712 0.950 . S
C2710 C2709 1.387 . S
C2710 C2713 1.387 . S
H2711 C2707 0.950 . S
H2712 C2709 0.950 . S
C2713 C2704 1.390 1_556 S
C2713 H2706 0.950 . S
C2713 C2710 1.387 . S
C2714 C2715 1.387 1_455 S
C2714 H2718 0.950 . S
C2714 C2723 1.390 . S
C2715 C2714 1.387 1_655 S
C2715 C2717 1.387 . S
H2716 C2723 0.950 . S
C2717 C2715 1.387 . S
C2717 C2719 1.390 . S
C2717 H2721 0.950 . S
H2718 C2714 0.950 . S
C2719 C2717 1.390 . S
C2719 C2720 1.387 . S
C2719 H2722 0.950 . S
C2720 C2719 1.387 . S
C2720 C2723 1.387 1_655 S
H2721 C2717 0.950 . S
H2722 C2719 0.950 . S
C2723 C2714 1.390 . S
C2723 H2716 0.950 . S
C2723 C2720 1.387 1_455 S
C2724 C2725 1.387 . S
C2724 H2728 0.950 . S
C2724 C2733 1.390 . S
C2725 C2724 1.387 . S
C2725 C2727 1.387 . S
H2726 C2733 0.950 . S
C2727 C2725 1.387 . S
C2727 C2729 1.390 . S
C2727 H2731 0.950 . S
H2728 C2724 0.950 . S
C2729 C2727 1.390 . S
C2729 C2730 1.387 . S
C2729 H2732 0.950 . S
C2730 C2729 1.387 . S
C2730 C2733 1.387 . S
H2731 C2727 0.950 . S
H2732 C2729 0.950 . S
C2733 C2724 1.390 . S
C2733 H2726 0.950 . S
C2733 C2730 1.387 . S
C2734 C2735 1.387 . S
C2734 H2738 0.950 . S
C2734 C2743 1.390 . S
C2735 C2734 1.387 . S
C2735 C2737 1.387 . S
H2736 C2743 0.950 . S
C2737 C2735 1.387 . S
C2737 C2739 1.390 . S
C2737 H2741 0.950 . S
H2738 C2734 0.950 . S
C2739 C2737 1.390 . S
C2739 C2740 1.387 . S
C2739 H2742 0.950 . S
C2740 C2739 1.387 . S
C2740 C2743 1.387 . S
H2741 C2737 0.950 . S
H2742 C2739 0.950 . S
C2743 C2734 1.390 . S
C2743 H2736 0.950 . S
C2743 C2740 1.387 . S
C2744 C2745 1.387 . S
C2744 H2748 0.950 . S
C2744 C2753 1.390 . S
C2745 C2744 1.387 . S
C2745 C2747 1.387 . S
H2746 C2753 0.950 . S
C2747 C2745 1.387 . S
C2747 C2749 1.390 . S
C2747 H2751 0.950 . S
H2748 C2744 0.950 . S
C2749 C2747 1.390 . S
C2749 C2750 1.387 . S
C2749 H2752 0.950 . S
C2750 C2749 1.387 . S
C2750 C2753 1.387 . S
H2751 C2747 0.950 . S
H2752 C2749 0.950 . S
C2753 C2744 1.390 . S
C2753 H2746 0.950 . S
C2753 C2750 1.387 . S
C2754 C2755 1.387 . S
C2754 H2758 0.950 . S
C2754 C2763 1.390 1_556 S
C2755 C2754 1.387 . S
C2755 C2757 1.387 . S
H2756 C2763 0.950 . S
C2757 C2755 1.387 . S
C2757 C2759 1.390 1_556 S
C2757 H2761 0.950 . S
H2758 C2754 0.950 . S
C2759 C2757 1.390 1_554 S
C2759 C2760 1.387 . S
C2759 H2762 0.950 . S
C2760 C2759 1.387 . S
C2760 C2763 1.387 . S
H2761 C2757 0.950 . S
H2762 C2759 0.950 . S
C2763 C2754 1.390 1_554 S
C2763 H2756 0.950 . S
C2763 C2760 1.387 . S
C2764 C2765 1.387 . S
C2764 H2768 0.950 . S
C2764 C2773 1.390 . S
C2765 C2764 1.387 . S
C2765 C2767 1.387 . S
H2766 C2773 0.950 . S
C2767 C2765 1.387 . S
C2767 C2769 1.390 . S
C2767 H2771 0.950 . S
H2768 C2764 0.950 . S
C2769 C2767 1.390 . S
C2769 C2770 1.387 . S
C2769 H2772 0.950 . S
C2770 C2769 1.387 . S
C2770 C2773 1.387 . S
H2771 C2767 0.950 . S
H2772 C2769 0.950 . S
C2773 C2764 1.390 . S
C2773 H2766 0.950 . S
C2773 C2770 1.387 . S
C2774 C2775 1.387 . S
C2774 H2778 0.950 . S
C2774 C2783 1.390 . S
C2775 C2774 1.387 . S
C2775 C2777 1.387 . S
H2776 C2783 0.950 . S
C2777 C2775 1.387 . S
C2777 C2779 1.390 . S
C2777 H2781 0.950 . S
H2778 C2774 0.950 . S
C2779 C2777 1.390 . S
C2779 C2780 1.387 . S
C2779 H2782 0.950 . S
C2780 C2779 1.387 . S
C2780 C2783 1.387 . S
H2781 C2777 0.950 . S
H2782 C2779 0.950 . S
C2783 C2774 1.390 . S
C2783 H2776 0.950 . S
C2783 C2780 1.387 . S
C1585 C546 2.014 . S
C1590 N13 1.522 . S
C1595 N46 1.525 . S
C1600 C1569 2.014 . S
C1605 N79 1.528 . S
C1610 C711 2.015 . S
C1615 N112 1.524 . S
C1620 C1536 2.014 . S
C1625 N145 1.526 . S
C1630 C1371 2.015 . S
C1635 N178 1.523 . S
C1640 C1404 2.015 . S
C1645 N211 1.527 . S
C1650 C1437 2.014 . S
C1655 C678 2.015 . S
C1660 N244 1.523 . S
C1665 N277 1.522 . S
C1670 C18 2.015 . S
C1675 N310 1.522 . S
C1680 C51 2.014 . S
C1685 N343 1.527 . S
C1690 C84 2.014 . S
C1695 N376 1.527 . S
C1700 C117 2.016 . S
C1705 N409 1.522 . S
C1710 C150 2.015 . S
C1715 C183 2.013 . S
C1720 N442 1.526 . S
C1725 C216 2.014 . S
C1730 N475 1.527 . S
C1735 N508 1.522 . S
C1740 C249 2.015 . S
C1745 C282 2.014 . S
C1750 N541 1.523 . S
C1755 C1206 2.013 . S
C1760 N574 1.525 . S
C1765 C1239 2.015 . S
C1770 N607 1.522 . S
C1775 C1272 2.015 . S
C1780 N640 1.527 . S
C1785 N673 1.522 . S
C1790 C513 2.015 . S
C1795 N706 1.523 . S
C1800 C348 2.015 . S
C1805 C1173 2.014 . S
C1810 N739 1.521 . S
C1815 N772 1.528 . S
C1820 C1107 2.015 . S
C1825 N805 1.522 . S
C1830 C1338 2.014 . S
C1835 C777 2.014 . S
C1840 N838 1.523 . S
C1845 C1503 2.015 . S
C1850 N871 1.527 . S
C1855 N904 1.527 . S
C1860 C744 2.014 . S
C1865 N937 1.527 . S
C1870 C579 2.014 . S
C1875 C612 2.016 . S
C1880 N970 1.524 . S
C1885 C645 2.014 . S
C1890 N1003 1.524 . S
C1895 C1470 2.014 . S
C1900 N1036 1.524 . S
C1905 C810 2.014 . S
C1910 N1069 1.527 . S
C1915 C843 2.014 . S
C1920 N1102 1.523 . S
C1925 N1135 1.526 . S
C1930 C876 2.013 . S
C1935 N1168 1.522 . S
C1940 C909 2.015 . S
C1945 N1201 1.523 . S
C1950 C942 2.016 . S
C1955 N1234 1.526 . S
C1960 C975 2.014 . S
C1965 N1267 1.527 . S
C1970 C1008 2.014 . S
C1975 C1041 2.015 . S
C1980 N1300 1.522 . S
C1985 C1074 2.015 . S
C1990 N1333 1.526 . S
C1995 C414 2.014 . S
C2000 N1366 1.524 . S
C2005 N1399 1.527 . S
C2010 C447 2.014 . S
C2015 C480 2.015 . S
C2020 N1432 1.523 . S
C2025 C1305 2.015 . S
C2030 N1465 1.522 . S
C2035 N1498 1.526 . S
C2040 C1140 2.014 . S
C2045 N1531 1.522 . S
C2050 C381 2.014 . S
C2055 C315 2.016 . S
C2060 N1564 1.523 . S
C2065 N497 0.566 . S
C2070 N2 0.563 . S
C2075 N35 0.561 . S
C2080 N398 0.557 . S
C2085 N431 0.566 . S
C2090 N68 0.558 . S
C2095 N464 0.557 . S
C2100 N101 0.560 . S
C2105 N134 0.566 . S
C2110 N299 0.564 . S
C2115 N167 0.566 . S
C2120 N332 0.561 . S
C2125 N365 0.566 . S
C2130 N200 0.562 . S
C2135 N233 0.562 . S
C2140 N266 0.557 . S
C2145 N662 0.566 . S
C2150 N530 0.562 . S
C2155 N563 0.563 . S
C2160 N761 0.557 . S
C2165 N1487 0.560 . S
C2170 N596 0.566 . S
C2175 N728 0.566 . S
C2180 N629 0.563 . S
C2185 N695 0.559 . S
C2190 N1388 0.558 . S
C2195 N794 0.557 . S
C2200 N1289 0.560 . S
C2205 N1190 0.566 . S
C2210 N827 0.562 . S
C2215 N1223 0.566 . S
C2220 N860 0.564 . S
C2225 N1256 0.559 . S
C2230 N893 0.566 . S
C2235 N1091 0.558 . S
C2240 N926 0.559 . S
C2245 N959 0.565 . S
C2250 N1124 0.558 . S
C2255 N1157 0.558 . S
C2260 N992 0.559 . S
C2265 N1025 0.561 . S
C2270 N1058 0.566 . S
C2275 N1454 0.557 . S
C2280 N1322 0.561 . S
C2285 N1355 0.562 . S
C2290 N1553 0.566 . S
C2295 N1520 0.557 . S
C2300 N1421 0.562 . S
C2305 C667 1.613 . S
C2310 C7 1.612 . S
C2315 C40 1.613 . S
C2320 C1360 1.613 . S
C2325 C73 1.611 . S
C2330 C1393 1.612 . S
C2335 C106 1.613 . S
C2340 C1426 1.613 . S
C2345 C139 1.611 . S
C2350 C1558 1.612 . S
C2355 C700 1.613 . S
C2360 C172 1.613 . S
C2365 C205 1.611 . S
C2370 C1525 1.612 . S
C2375 C238 1.611 . S
C2380 C535 1.611 . S
C2385 C502 1.611 . S
C2390 C271 1.612 . S
C2395 C403 1.612 . S
C2400 C304 1.611 . S
C2405 C337 1.613 . S
C2410 C436 1.613 . S
C2415 C469 1.613 . S
C2420 C370 1.613 . S
C2425 C832 1.612 . S
C2430 C568 1.611 . S
C2435 C601 1.613 . S
C2440 C865 1.613 . S
C2445 C634 1.612 . S
C2450 C898 1.611 . S
C2455 C997 1.614 . S
C2460 C733 1.613 . S
C2465 C931 1.613 . S
C2470 C766 1.612 . S
C2475 C799 1.611 . S
C2480 C1459 1.612 . S
C2485 C1492 1.611 . S
C2490 C964 1.611 . S
C2495 C1327 1.611 . S
C2500 C1030 1.611 . S
C2505 C1063 1.612 . S
C2510 C1294 1.611 . S
C2515 C1195 1.612 . S
C2520 C1096 1.611 . S
C2525 C1129 1.612 . S
C2530 C1228 1.613 . S
C2535 C1162 1.613 . S
C2540 C1261 1.613 . S
C2545 C153 1.963 1_545 S
C2550 C21 1.963 1_565 S
C2555 C186 1.969 . S
C2560 C54 1.969 . S
C2565 C219 1.961 1_565 S
C2570 C87 1.962 1_545 S
C2575 C120 1.970 . S
C2580 C252 1.970 . S
C2585 C483 1.966 1_554 S
C2590 C285 1.966 1_556 S
C2595 C516 1.970 . S
C2600 C318 1.970 . S
C2605 C351 1.966 . S
C2610 C417 1.966 . S
C2615 C384 1.966 . S
C2620 C450 1.966 . S
C2625 C549 1.966 1_655 S
C2630 C1506 1.966 1_455 S
C2635 C582 1.966 . S
C2640 C1440 1.966 . S
C2645 C615 1.967 . S
C2650 C681 1.967 . S
C2655 C1374 1.964 1_655 S
C2660 C648 1.965 1_455 S
C2665 C1341 1.967 . S
C2670 C714 1.967 . S
C2675 C747 1.966 . S
C2680 C1572 1.966 . S
C2685 C1539 1.969 . S
C2690 C780 1.969 . S
C2695 C945 1.967 . S
C2700 C813 1.967 . S
C2705 C978 1.966 . S
C2710 C846 1.966 . S
C2715 C879 1.966 . S
C2720 C1011 1.966 . S
C2725 C912 1.970 . S
C2730 C1044 1.970 . S
C2735 C1077 1.967 . S
C2740 C1275 1.967 . S
C2745 C1110 1.967 . S
C2750 C1308 1.967 . S
C2755 C1143 1.961 1_556 S
C2760 C1209 1.962 1_554 S
C2765 C1176 1.969 . S
C2770 C1242 1.969 . S
C2775 C1473 1.967 . S
C2780 C1407 1.967 . S
