# Generated by pormake.
# Topology whz, (6)-cn, num edge types: 1
# Building blocks:
#     Node 0, Type 0, BuildingBlock: VOLQOD_clean_sbu_1, # of connection points: 6
#     Node 1, Type 0, BuildingBlock: VOLQOD_clean_sbu_1, # of connection points: 6
#     Node 2, Type 0, BuildingBlock: VOLQOD_clean_sbu_1, # of connection points: 6
#     Node 3, Type 0, BuildingBlock: VOLQOD_clean_sbu_1, # of connection points: 6
#     Node 4, Type 0, BuildingBlock: VOLQOD_clean_sbu_1, # of connection points: 6
#     Node 5, Type 0, BuildingBlock: VOLQOD_clean_sbu_1, # of connection points: 6
#     Node 6, Type 0, BuildingBlock: VOLQOD_clean_sbu_1, # of connection points: 6
#     Node 7, Type 0, BuildingBlock: VOLQOD_clean_sbu_1, # of connection points: 6
#     Node 8, Type 0, BuildingBlock: VOLQOD_clean_sbu_1, # of connection points: 6
#     Node 9, Type 0, BuildingBlock: VOLQOD_clean_sbu_1, # of connection points: 6
#     Node 10, Type 0, BuildingBlock: VOLQOD_clean_sbu_1, # of connection points: 6
#     Node 11, Type 0, BuildingBlock: VOLQOD_clean_sbu_1, # of connection points: 6
#     Node 12, Type 0, BuildingBlock: VOLQOD_clean_sbu_1, # of connection points: 6
#     Node 13, Type 0, BuildingBlock: VOLQOD_clean_sbu_1, # of connection points: 6
#     Node 14, Type 0, BuildingBlock: VOLQOD_clean_sbu_1, # of connection points: 6
#     Node 15, Type 0, BuildingBlock: VOLQOD_clean_sbu_1, # of connection points: 6
#     Edge 16, Type (0, 0), BuildingBlock: AJUNOK_clean_linker_0, # of connection points: 2
#     Edge 17, Type (0, 0), BuildingBlock: AJUNOK_clean_linker_0, # of connection points: 2
#     Edge 18, Type (0, 0), BuildingBlock: AJUNOK_clean_linker_0, # of connection points: 2
#     Edge 19, Type (0, 0), BuildingBlock: AJUNOK_clean_linker_0, # of connection points: 2
#     Edge 20, Type (0, 0), BuildingBlock: AJUNOK_clean_linker_0, # of connection points: 2
#     Edge 21, Type (0, 0), BuildingBlock: AJUNOK_clean_linker_0, # of connection points: 2
#     Edge 22, Type (0, 0), BuildingBlock: AJUNOK_clean_linker_0, # of connection points: 2
#     Edge 23, Type (0, 0), BuildingBlock: AJUNOK_clean_linker_0, # of connection points: 2
#     Edge 24, Type (0, 0), BuildingBlock: AJUNOK_clean_linker_0, # of connection points: 2
#     Edge 25, Type (0, 0), BuildingBlock: AJUNOK_clean_linker_0, # of connection points: 2
#     Edge 26, Type (0, 0), BuildingBlock: AJUNOK_clean_linker_0, # of connection points: 2
#     Edge 27, Type (0, 0), BuildingBlock: AJUNOK_clean_linker_0, # of connection points: 2
#     Edge 28, Type (0, 0), BuildingBlock: AJUNOK_clean_linker_0, # of connection points: 2
#     Edge 29, Type (0, 0), BuildingBlock: AJUNOK_clean_linker_0, # of connection points: 2
#     Edge 30, Type (0, 0), BuildingBlock: AJUNOK_clean_linker_0, # of connection points: 2
#     Edge 31, Type (0, 0), BuildingBlock: AJUNOK_clean_linker_0, # of connection points: 2
#     Edge 32, Type (0, 0), BuildingBlock: AJUNOK_clean_linker_0, # of connection points: 2
#     Edge 33, Type (0, 0), BuildingBlock: AJUNOK_clean_linker_0, # of connection points: 2
#     Edge 34, Type (0, 0), BuildingBlock: AJUNOK_clean_linker_0, # of connection points: 2
#     Edge 35, Type (0, 0), BuildingBlock: AJUNOK_clean_linker_0, # of connection points: 2
#     Edge 36, Type (0, 0), BuildingBlock: AJUNOK_clean_linker_0, # of connection points: 2
#     Edge 37, Type (0, 0), BuildingBlock: AJUNOK_clean_linker_0, # of connection points: 2
#     Edge 38, Type (0, 0), BuildingBlock: AJUNOK_clean_linker_0, # of connection points: 2
#     Edge 39, Type (0, 0), BuildingBlock: AJUNOK_clean_linker_0, # of connection points: 2
#     Edge 40, Type (0, 0), BuildingBlock: AJUNOK_clean_linker_0, # of connection points: 2
#     Edge 41, Type (0, 0), BuildingBlock: AJUNOK_clean_linker_0, # of connection points: 2
#     Edge 42, Type (0, 0), BuildingBlock: AJUNOK_clean_linker_0, # of connection points: 2
#     Edge 43, Type (0, 0), BuildingBlock: AJUNOK_clean_linker_0, # of connection points: 2
#     Edge 44, Type (0, 0), BuildingBlock: AJUNOK_clean_linker_0, # of connection points: 2
#     Edge 45, Type (0, 0), BuildingBlock: AJUNOK_clean_linker_0, # of connection points: 2
#     Edge 46, Type (0, 0), BuildingBlock: AJUNOK_clean_linker_0, # of connection points: 2
#     Edge 47, Type (0, 0), BuildingBlock: AJUNOK_clean_linker_0, # of connection points: 2
#     Edge 48, Type (0, 0), BuildingBlock: AJUNOK_clean_linker_0, # of connection points: 2
#     Edge 49, Type (0, 0), BuildingBlock: AJUNOK_clean_linker_0, # of connection points: 2
#     Edge 50, Type (0, 0), BuildingBlock: AJUNOK_clean_linker_0, # of connection points: 2
#     Edge 51, Type (0, 0), BuildingBlock: AJUNOK_clean_linker_0, # of connection points: 2
#     Edge 52, Type (0, 0), BuildingBlock: AJUNOK_clean_linker_0, # of connection points: 2
#     Edge 53, Type (0, 0), BuildingBlock: AJUNOK_clean_linker_0, # of connection points: 2
#     Edge 54, Type (0, 0), BuildingBlock: AJUNOK_clean_linker_0, # of connection points: 2
#     Edge 55, Type (0, 0), BuildingBlock: AJUNOK_clean_linker_0, # of connection points: 2
#     Edge 56, Type (0, 0), BuildingBlock: AJUNOK_clean_linker_0, # of connection points: 2
#     Edge 57, Type (0, 0), BuildingBlock: AJUNOK_clean_linker_0, # of connection points: 2
#     Edge 58, Type (0, 0), BuildingBlock: AJUNOK_clean_linker_0, # of connection points: 2
#     Edge 59, Type (0, 0), BuildingBlock: AJUNOK_clean_linker_0, # of connection points: 2
#     Edge 60, Type (0, 0), BuildingBlock: AJUNOK_clean_linker_0, # of connection points: 2
#     Edge 61, Type (0, 0), BuildingBlock: AJUNOK_clean_linker_0, # of connection points: 2
#     Edge 62, Type (0, 0), BuildingBlock: AJUNOK_clean_linker_0, # of connection points: 2
#     Edge 63, Type (0, 0), BuildingBlock: AJUNOK_clean_linker_0, # of connection points: 2
# Relax obj value: 0.426
# Max RMSD: 0.199
# Mean RMSD: 0.199
data_MOF--net-whz--node1-VOLQOD_clean_sbu_1--edge1-AJUNOK_clean_linker_0
_symmetry_space_group_name_H-M    P1
_symmetry_Int_Tables_number       1
_symmetry_cell_setting            triclinic
loop_
_symmetry_equiv_pos_as_xyz
'x, y, z'
_cell_length_a     28.597911
_cell_length_b     28.639495
_cell_length_c     41.154704
_cell_angle_alpha  90.005491
_cell_angle_beta   90.024721
_cell_angle_gamma 90.088417
loop_
_atom_site_label
_atom_site_type_symbol
_atom_site_fract_x
_atom_site_fract_y
_atom_site_fract_z
_atom_type_partial_charge
O0 O 0.21673 0.19495 0.17305 0.0
Zn1 Zn 0.21798 0.15828 0.13257 0.0
O2 O 0.27789 0.12817 0.1277 0.0
Zn3 Zn 0.2667 0.06385 0.1148 0.0
Zn4 Zn 0.31486 0.13394 0.16616 0.0
Zn5 Zn 0.30735 0.16603 0.0954 0.0
O6 O 0.27715 0.06095 0.06464 0.0
O7 O 0.29799 0.13432 0.05281 0.0
O8 O 0.1663 0.11355 0.13698 0.0
O9 O 0.19891 0.04573 0.12501 0.0
O10 O 0.30209 0.01968 0.14612 0.0
O11 O 0.32019 0.07042 0.18554 0.0
O12 O 0.37829 0.16267 0.15721 0.0
O13 O 0.20508 0.20438 0.09781 0.0
O14 O 0.37481 0.17832 0.10458 0.0
O15 O 0.27739 0.22971 0.09719 0.0
C16 C 0.24442 0.19836 0.19696 0.0
C17 C 0.28708 0.09305 0.04383 0.0
C18 C 0.31609 0.02876 0.17507 0.0
C19 C 0.16367 0.06956 0.13419 0.0
C20 C 0.39704 0.17851 0.13137 0.0
C21 C 0.23382 0.23812 0.09641 0.0
O22 O 0.28295 0.17619 0.19782 0.0
O23 O 0.58286 0.48039 0.45686 0.0
Zn24 Zn 0.57678 0.4752 0.40902 0.0
O25 O 0.59529 0.53141 0.38691 0.0
Zn26 Zn 0.65718 0.52115 0.36924 0.0
Zn27 Zn 0.59176 0.57569 0.4217 0.0
Zn28 Zn 0.55061 0.55003 0.35454 0.0
O29 O 0.65574 0.5326 0.31947 0.0
O30 O 0.57891 0.53695 0.31054 0.0
O31 O 0.6141 0.42019 0.39738 0.0
O32 O 0.67483 0.45276 0.37259 0.0
O33 O 0.70433 0.55368 0.39991 0.0
O34 O 0.65711 0.58438 0.43778 0.0
O35 O 0.56185 0.6357 0.40777 0.0
O36 O 0.50947 0.46424 0.40112 0.0
O37 O 0.53198 0.61825 0.35956 0.0
O38 O 0.49086 0.51378 0.36154 0.0
C39 C 0.55577 0.50946 0.47022 0.0
C40 C 0.62066 0.53266 0.2999 0.0
C41 C 0.69785 0.57472 0.42708 0.0
C42 C 0.65379 0.41714 0.38391 0.0
C43 C 0.53798 0.64704 0.38288 0.0
C44 C 0.47969 0.48208 0.38187 0.0
O45 O 0.55013 0.5494 0.4573 0.0
O46 O 0.25138 0.82489 0.69833 0.0
Zn47 Zn 0.24881 0.82318 0.65004 0.0
O48 O 0.19015 0.84433 0.63283 0.0
Zn49 Zn 0.19966 0.90715 0.61685 0.0
Zn50 Zn 0.14901 0.8404 0.66922 0.0
Zn51 Zn 0.16798 0.80207 0.59976 0.0
O52 O 0.18723 0.90814 0.56745 0.0
O53 O 0.17883 0.83235 0.55643 0.0
O54 O 0.30289 0.85861 0.63362 0.0
O55 O 0.26792 0.92502 0.62039 0.0
O56 O 0.16716 0.95338 0.64748 0.0
O57 O 0.14006 0.90532 0.68607 0.0
O58 O 0.08832 0.80934 0.65726 0.0
O59 O 0.25655 0.75671 0.64011 0.0
O60 O 0.10004 0.78493 0.60673 0.0
O61 O 0.20269 0.7408 0.60277 0.0
C62 C 0.22104 0.80115 0.71354 0.0
C63 C 0.18449 0.87441 0.54695 0.0
C64 C 0.14782 0.94626 0.6751 0.0
C65 C 0.30475 0.90107 0.62503 0.0
C66 C 0.07412 0.78826 0.63184 0.0
C67 C 0.23617 0.72828 0.62121 0.0
O68 O 0.17898 0.79973 0.70346 0.0
O69 O 0.9096 0.50751 0.93992 0.0
Zn70 Zn 0.89906 0.50155 0.89262 0.0
O71 O 0.87726 0.44031 0.88082 0.0
Zn72 Zn 0.81274 0.44621 0.86608 0.0
Zn73 Zn 0.88316 0.4008 0.91807 0.0
Zn74 Zn 0.91878 0.41623 0.848 0.0
O75 O 0.81111 0.43192 0.81676 0.0
O76 O 0.88705 0.42504 0.8052 0.0
O77 O 0.85678 0.55177 0.87971 0.0
O78 O 0.79112 0.51349 0.86892 0.0
O79 O 0.7686 0.41332 0.8985 0.0
O80 O 0.81941 0.39012 0.93647 0.0
O81 O 0.91553 0.34028 0.90726 0.0
O82 O 0.96145 0.51494 0.87494 0.0
O83 O 0.93487 0.34898 0.85543 0.0
O84 O 0.98123 0.44991 0.84931 0.0
C85 C 0.92583 0.47638 0.95868 0.0
C86 C 0.84463 0.42912 0.79603 0.0
C87 C 0.77766 0.39586 0.92647 0.0
C88 C 0.81369 0.55136 0.87276 0.0
C89 C 0.93411 0.32467 0.88132 0.0
C90 C -0.00849 0.49013 0.86039 0.0
O91 O 0.92201 0.43319 0.9518 0.0
O92 O 0.71159 0.84333 0.81584 0.0
Zn93 Zn 0.73203 0.83354 0.86098 0.0
O94 O 0.6834 0.84965 0.89033 0.0
Zn95 Zn 0.69786 0.91131 0.90633 0.0
Zn96 Zn 0.63124 0.84593 0.86114 0.0
Zn97 Zn 0.67473 0.80281 0.92278 0.0
O98 O 0.69241 0.90927 0.95677 0.0
O99 O 0.6909 0.83225 0.96583 0.0
O100 O 0.78949 0.86933 0.86654 0.0
O101 O 0.76566 0.9287 0.8967 0.0
O102 O 0.66195 0.95784 0.87738 0.0
O103 O 0.62262 0.91029 0.84381 0.0
O104 O 0.57419 0.81975 0.88288 0.0
O105 O 0.74651 0.76687 0.8655 0.0
O106 O 0.6077 0.78073 0.9234 0.0
O107 O 0.71291 0.74532 0.91175 0.0
C108 C 0.68478 0.81068 0.80693 0.0
C109 C 0.6942 0.87416 0.97632 0.0
C110 C 0.63644 0.95094 0.85216 0.0
C111 C 0.79733 0.90796 0.88043 0.0
C112 C 0.57176 0.79151 0.90673 0.0
C113 C 0.73778 0.7361 0.88682 0.0
O114 O 0.64906 0.80165 0.82426 0.0
O115 O 0.38005 0.46071 0.56153 0.0
Zn116 Zn 0.38561 0.4819 0.60705 0.0
O117 O 0.37247 0.43208 0.63688 0.0
Zn118 Zn 0.31303 0.44406 0.65699 0.0
Zn119 Zn 0.37298 0.37989 0.60803 0.0
Zn120 Zn 0.42144 0.42238 0.66715 0.0
O121 O 0.31888 0.43405 0.70679 0.0
O122 O 0.39657 0.4362 0.71159 0.0
O123 O 0.34284 0.53483 0.61179 0.0
O124 O 0.29554 0.51202 0.65155 0.0
O125 O 0.26346 0.41147 0.62864 0.0
O126 O 0.30747 0.37471 0.59154 0.0
O127 O 0.39769 0.32181 0.62937 0.0
O128 O 0.45157 0.50269 0.61266 0.0
O129 O 0.44341 0.35605 0.66602 0.0
O130 O 0.47694 0.46157 0.655 0.0
C131 C 0.41183 0.43215 0.5538 0.0
C132 C 0.35594 0.43684 0.72442 0.0
C133 C 0.26783 0.38846 0.60208 0.0
C134 C 0.30898 0.54226 0.6309 0.0
C135 C 0.42952 0.31977 0.65101 0.0
C136 C 0.48384 0.49108 0.63233 0.0
O137 O 0.41817 0.39644 0.57162 0.0
O138 O 0.74736 0.12204 0.32074 0.0
Zn139 Zn 0.7342 0.13681 0.3664 0.0
O140 O 0.78469 0.11734 0.39294 0.0
Zn141 Zn 0.76772 0.05682 0.41028 0.0
Zn142 Zn 0.83435 0.11686 0.36152 0.0
Zn143 Zn 0.79882 0.16392 0.42449 0.0
O144 O 0.77824 0.05902 0.46023 0.0
O145 O 0.7884 0.1356 0.46807 0.0
O146 O 0.67527 0.10507 0.37522 0.0
O147 O 0.69855 0.04246 0.40203 0.0
O148 O 0.79949 0.00749 0.38155 0.0
O149 O 0.84062 0.05115 0.3466 0.0
O150 O 0.89313 0.14585 0.37834 0.0
O151 O 0.72483 0.20501 0.36991 0.0
O152 O 0.86596 0.18475 0.42103 0.0
O153 O 0.75972 0.2218 0.41681 0.0
C154 C 0.77751 0.14844 0.30794 0.0
C155 C 0.7829 0.09438 0.47925 0.0
C156 C 0.82494 0.01179 0.35612 0.0
C157 C 0.66659 0.06556 0.38762 0.0
C158 C 0.89909 0.17447 0.40167 0.0
C159 C 0.7353 0.23377 0.39224 0.0
O160 O 0.8156 0.15619 0.32287 0.0
O161 O 0.08676 0.49871 0.06705 0.0
Zn162 Zn 0.08239 0.48358 0.11361 0.0
O163 O 0.10115 0.53421 0.14059 0.0
Zn164 Zn 0.16292 0.51873 0.15716 0.0
Zn165 Zn 0.10022 0.58423 0.10984 0.0
Zn166 Zn 0.05424 0.5488 0.17244 0.0
O167 O 0.16053 0.52793 0.20773 0.0
O168 O 0.08387 0.53799 0.21589 0.0
O169 O 0.11914 0.42712 0.11898 0.0
O170 O 0.17916 0.44994 0.1489 0.0
O171 O 0.21091 0.55131 0.1268 0.0
O172 O 0.16442 0.58969 0.09213 0.0
O173 O 0.07481 0.64341 0.12763 0.0
O174 O 0.01689 0.46803 0.12216 0.0
O175 O 0.03226 0.61588 0.16848 0.0
O176 O -0.00388 0.50885 0.16564 0.0
C177 C 0.06002 0.53069 0.05699 0.0
C178 C 0.12515 0.53191 0.22697 0.0
C179 C 0.20465 0.57524 0.10078 0.0
C180 C 0.15777 0.41858 0.13265 0.0
C181 C 0.04408 0.64912 0.1496 0.0
C182 C 0.98683 0.47923 0.1434 0.0
O183 O 0.05593 0.56783 0.07352 0.0
O184 O 0.71998 0.65261 0.69751 0.0
Zn185 Zn 0.72303 0.64796 0.64939 0.0
O186 O 0.78255 0.62788 0.63317 0.0
Zn187 Zn 0.77452 0.56481 0.61629 0.0
Zn188 Zn 0.82339 0.63172 0.66987 0.0
Zn189 Zn 0.80519 0.67116 0.60085 0.0
O190 O 0.79065 0.56458 0.56732 0.0
O191 O 0.79615 0.64098 0.55731 0.0
O192 O 0.67064 0.60964 0.63463 0.0
O193 O 0.70601 0.54587 0.61674 0.0
O194 O 0.80486 0.51849 0.64819 0.0
O195 O 0.83011 0.56683 0.68723 0.0
O196 O 0.88517 0.66169 0.65818 0.0
O197 O 0.71082 0.71163 0.63536 0.0
O198 O 0.87276 0.68776 0.60812 0.0
O199 O 0.76998 0.73253 0.60365 0.0
C200 C 0.75147 0.67325 0.71383 0.0
C201 C 0.79274 0.5989 0.54728 0.0
C202 C 0.82234 0.52581 0.67641 0.0
C203 C 0.66902 0.56869 0.62318 0.0
C204 C 0.89916 0.68325 0.63285 0.0
C205 C 0.73199 0.74184 0.6184 0.0
O206 O 0.79385 0.6723 0.70437 0.0
O207 O 0.06134 0.97958 0.94341 0.0
Zn208 Zn 0.07425 0.97652 0.89695 0.0
O209 O 0.09741 0.03522 0.88095 0.0
Zn210 Zn 0.15987 0.02395 0.86296 0.0
Zn211 Zn 0.0982 0.07966 0.91642 0.0
Zn212 Zn 0.05407 0.05826 0.84871 0.0
O213 O 0.15927 0.03829 0.81395 0.0
O214 O 0.08315 0.04894 0.80495 0.0
O215 O 0.11793 0.92455 0.89233 0.0
O216 O 0.17778 0.95549 0.86576 0.0
O217 O 0.20896 0.05367 0.89315 0.0
O218 O 0.16404 0.08974 0.92966 0.0
O219 O 0.06526 0.1394 0.9052 0.0
O220 O 0.01329 0.95947 0.87807 0.0
O221 O 0.03697 0.12557 0.85595 0.0
O222 O -0.00738 0.02339 0.85136 0.0
C223 C 0.0571 0.01224 0.96389 0.0
C224 C 0.12462 0.04288 0.79437 0.0
C225 C 0.20399 0.07702 0.91944 0.0
C226 C 0.15782 0.92096 0.87937 0.0
C227 C 0.042 0.15234 0.88041 0.0
C228 C 0.98295 0.98335 0.86297 0.0
O229 O 0.06692 0.05419 0.95647 0.0
O230 O 0.75307 0.27844 0.18112 0.0
Zn231 Zn 0.74982 0.30889 0.1382 0.0
O232 O 0.68931 0.33719 0.13194 0.0
Zn233 Zn 0.6983 0.40177 0.11838 0.0
Zn234 Zn 0.65092 0.33135 0.16989 0.0
Zn235 Zn 0.66195 0.29805 0.09931 0.0
O236 O 0.68724 0.40402 0.06843 0.0
O237 O 0.67446 0.32887 0.05649 0.0
O238 O 0.80083 0.35411 0.13622 0.0
O239 O 0.76632 0.42113 0.1241 0.0
O240 O 0.6644 0.44597 0.1507 0.0
O241 O 0.64158 0.39507 0.18877 0.0
O242 O 0.58927 0.29976 0.15972 0.0
O243 O 0.76386 0.25794 0.10696 0.0
O244 O 0.59393 0.28616 0.10678 0.0
O245 O 0.69122 0.23376 0.10234 0.0
C246 C 0.7238 0.27306 0.20395 0.0
C247 C 0.68264 0.37084 0.04757 0.0
C248 C 0.64719 0.43683 0.17879 0.0
C249 C 0.80277 0.39756 0.13076 0.0
C250 C 0.57139 0.2844 0.13342 0.0
C251 C 0.73473 0.22499 0.10313 0.0
O252 O 0.68327 0.29128 0.20278 0.0
O253 O 0.44735 0.00348 0.42501 0.0
Zn254 Zn 0.41069 0.00033 0.38437 0.0
O255 O 0.38122 0.94003 0.37972 0.0
Zn256 Zn 0.3166 0.95027 0.36753 0.0
Zn257 Zn 0.38891 0.90342 0.41814 0.0
Zn258 Zn 0.41761 0.91098 0.34621 0.0
O259 O 0.31225 0.94148 0.31763 0.0
O260 O 0.38554 0.9236 0.30364 0.0
O261 O 0.36553 0.05148 0.38744 0.0
O262 O 0.29763 0.01747 0.37722 0.0
O263 O 0.27365 0.91402 0.39873 0.0
O264 O 0.32509 0.89593 0.43779 0.0
O265 O 0.41882 0.84101 0.4076 0.0
O266 O 0.45611 0.0126 0.34907 0.0
O267 O 0.42923 0.84273 0.35417 0.0
O268 O 0.48157 0.94037 0.34895 0.0
C269 C 0.45251 0.97587 0.44882 0.0
C270 C 0.34366 0.93428 0.29583 0.0
C271 C 0.28317 0.89938 0.42741 0.0
C272 C 0.32142 0.0534 0.385 0.0
C273 C 0.43227 0.82157 0.38131 0.0
C274 C 0.48981 0.98394 0.34818 0.0
O275 O 0.43176 0.93646 0.44981 0.0
O276 O 0.23363 0.31985 0.32804 0.0
Zn277 Zn 0.23897 0.32792 0.37515 0.0
O278 O 0.18116 0.34709 0.39448 0.0
Zn279 Zn 0.19003 0.41004 0.41191 0.0
Zn280 Zn 0.13449 0.34456 0.36068 0.0
Zn281 Zn 0.16334 0.30257 0.42733 0.0
O282 O 0.17555 0.40949 0.4614 0.0
O283 O 0.17281 0.33273 0.47037 0.0
O284 O 0.29039 0.37199 0.38149 0.0
O285 O 0.25806 0.42963 0.40956 0.0
O286 O 0.16007 0.45683 0.37967 0.0
O287 O 0.12487 0.40916 0.34431 0.0
O288 O 0.07543 0.31279 0.37536 0.0
O289 O 0.25794 0.26567 0.39062 0.0
O290 O 0.09631 0.28325 0.42309 0.0
O291 O 0.20098 0.24285 0.42354 0.0
C292 C 0.1992 0.30657 0.31102 0.0
C293 C 0.17463 0.3745 0.48099 0.0
C294 C 0.1375 0.44984 0.35319 0.0
C295 C 0.29309 0.41102 0.39571 0.0
C296 C 0.06615 0.2891 0.40076 0.0
C297 C 0.23868 0.23467 0.40812 0.0
O298 O 0.15771 0.30864 0.32197 0.0
O299 O 0.94886 -0.00365 0.10278 0.0
Zn300 Zn 0.90969 -0.00268 0.14214 0.0
O301 O 0.88133 0.9371 0.14908 0.0
Zn302 Zn 0.81637 0.94685 0.16121 0.0
Zn303 Zn 0.88847 0.89808 0.11192 0.0
Zn304 Zn 0.92034 0.91113 0.18232 0.0
O305 O 0.81253 0.93565 0.21132 0.0
O306 O 0.88695 0.92026 0.22406 0.0
O307 O 0.86289 0.04645 0.13482 0.0
O308 O 0.79677 0.01417 0.15138 0.0
O309 O 0.77358 0.91157 0.12858 0.0
O310 O 0.82614 0.89182 0.09079 0.0
O311 O 0.91606 0.83555 0.12346 0.0
O312 O 0.95339 0.0147 0.17761 0.0
O313 O 0.93508 0.84358 0.17535 0.0
O314 O 0.98285 0.94432 0.18032 0.0
C315 C 0.9546 0.96651 0.08042 0.0
C316 C 0.8448 0.92811 0.23254 0.0
C317 C 0.78396 0.89661 0.10008 0.0
C318 C 0.81912 0.04871 0.13946 0.0
C319 C 0.93352 0.81919 0.14956 0.0
C320 C -0.01115 -0.0117 0.1799 0.0
O321 O 0.93281 0.92773 0.08062 0.0
O322 O 0.25994 0.63471 0.81504 0.0
Zn323 Zn 0.24196 0.64194 0.86096 0.0
O324 O 0.29148 0.62291 0.88893 0.0
Zn325 Zn 0.2773 0.56037 0.90405 0.0
Zn326 Zn 0.34375 0.62759 0.85971 0.0
Zn327 Zn 0.30055 0.66736 0.92281 0.0
O328 O 0.28524 0.55896 0.95458 0.0
O329 O 0.28858 0.63539 0.96515 0.0
O330 O 0.1847 0.60512 0.86651 0.0
O331 O 0.20911 0.54402 0.89478 0.0
O332 O 0.3124 0.51509 0.87374 0.0
O333 O 0.35347 0.56344 0.84181 0.0
O334 O 0.40072 0.6548 0.8815 0.0
O335 O 0.22812 0.70911 0.86768 0.0
O336 O 0.36637 0.69183 0.92255 0.0
O337 O 0.26005 0.724 0.91585 0.0
C338 C 0.28998 0.66387 0.80519 0.0
C339 C 0.28556 0.59316 0.9749 0.0
C340 C 0.33901 0.52262 0.84921 0.0
C341 C 0.17707 0.56564 0.87939 0.0
C342 C 0.40237 0.68279 0.90554 0.0
C343 C 0.23613 0.73663 0.89125 0.0
O344 O 0.32599 0.6716 0.82258 0.0
O345 O 0.60111 0.00825 0.56672 0.0
Zn346 Zn 0.58563 -0.00845 0.61171 0.0
O347 O 0.60042 0.04084 0.64052 0.0
Zn348 Zn 0.66095 0.02647 0.65899 0.0
Zn349 Zn 0.59906 0.09203 0.61043 0.0
Zn350 Zn 0.55205 0.04949 0.67153 0.0
O351 O 0.65711 0.03644 0.70883 0.0
O352 O 0.57956 0.0375 0.71561 0.0
O353 O 0.61981 0.93497 0.62042 0.0
O354 O 0.67749 0.95775 0.65255 0.0
O355 O 0.70948 0.05943 0.6304 0.0
O356 O 0.66496 0.10115 0.59633 0.0
O357 O 0.56864 0.14876 0.62988 0.0
O358 O 0.51855 0.97605 0.61425 0.0
O359 O 0.5278 0.11503 0.66952 0.0
O360 O 0.49661 0.00848 0.66089 0.0
C361 C 0.57234 0.03652 0.55442 0.0
C362 C 0.62091 0.03569 0.72736 0.0
C363 C 0.70466 0.08565 0.6054 0.0
C364 C 0.65651 0.92617 0.63632 0.0
C365 C 0.53824 0.15061 0.65247 0.0
C366 C 0.48797 0.9834 0.63599 0.0
O367 O 0.56106 0.07286 0.5704 0.0
C368 C 0.26673 0.24396 0.24569 0.0
C369 C 0.23166 0.22871 0.22437 0.0
C370 C 0.25582 0.27088 0.27278 0.0
C371 C 0.20927 0.28323 0.27989 0.0
H372 H 0.303 0.23471 0.24167 0.0
H373 H 0.28426 0.28074 0.28879 0.0
S374 S 0.10472 0.25482 0.23026 0.0
N375 N 0.14866 0.23002 0.21085 0.0
N376 N 0.12806 0.28058 0.26229 0.0
C377 C 0.1739 0.26964 0.25815 0.0
C378 C 0.18512 0.2424 0.23025 0.0
C379 C 0.44001 0.48817 0.5118 0.0
C380 C 0.44885 0.44882 0.5314 0.0
C381 C 0.47548 0.50918 0.49353 0.0
C382 C 0.52125 0.49145 0.49381 0.0
H383 H 0.40532 0.50325 0.51069 0.0
H384 H 0.46648 0.53864 0.47826 0.0
S385 S 0.56381 0.39056 0.54195 0.0
N386 N 0.50762 0.394 0.55079 0.0
N387 N 0.57414 0.43314 0.51587 0.0
C388 C 0.53084 0.45234 0.51336 0.0
C389 C 0.49471 0.43101 0.53218 0.0
C390 C 0.27686 0.77591 0.7569 0.0
C391 C 0.23754 0.76644 0.73742 0.0
C392 C 0.29539 0.7418 0.7777 0.0
C393 C 0.27568 0.69678 0.7793 0.0
H394 H 0.29311 0.8101 0.7563 0.0
H395 H 0.32447 0.75125 0.79325 0.0
S396 S 0.1763 0.65259 0.7298 0.0
N397 N 0.18184 0.70782 0.71907 0.0
N398 N 0.21727 0.64346 0.75731 0.0
C399 C 0.2376 0.68638 0.75881 0.0
C400 C 0.21827 0.72128 0.73817 0.0
C401 C -0.01011 0.4591 0.99739 0.0
C402 C 0.95679 0.49094 0.98548 0.0
C403 C 0.02406 0.473 0.01949 0.0
C404 C 0.02628 0.51925 0.03103 0.0
H405 H -0.00961 0.42326 0.98896 0.0
H406 H 0.04859 0.44681 0.02782 0.0
S407 S 0.94652 0.61601 1.00834 0.0
N408 N 0.92748 0.57074 0.98727 0.0
N409 N -0.00824 0.59684 0.02937 0.0
C410 C -0.00697 0.55148 0.01969 0.0
C411 C 0.95823 0.53732 0.99688 0.0
C412 C 0.67306 0.74027 0.77173 0.0
C413 C 0.70252 0.7759 0.78325 0.0
C414 C 0.68978 0.70587 0.7505 0.0
C415 C 0.73679 0.70543 0.74015 0.0
H416 H 0.63663 0.73913 0.7789 0.0
H417 H 0.66529 0.67992 0.74166 0.0
S418 S 0.82943 0.78913 0.76512 0.0
N419 N 0.78193 0.80731 0.78393 0.0
N420 N 0.81314 0.74259 0.74438 0.0
C421 C 0.76706 0.73998 0.75236 0.0
C422 C 0.74997 0.77529 0.77369 0.0
C423 C 0.78392 0.23185 0.23702 0.0
C424 C 0.73654 0.2423 0.23119 0.0
C425 C 0.797 0.20082 0.2616 0.0
C426 C 0.76313 0.17861 0.28081 0.0
H427 H 0.81124 0.24789 0.22258 0.0
H428 H 0.83385 0.19414 0.26553 0.0
S429 S 0.63425 0.19469 0.27572 0.0
N430 N 0.65568 0.22847 0.24688 0.0
N431 N 0.68003 0.16999 0.29297 0.0
C432 C 0.71554 0.18876 0.27524 0.0
C433 C 0.70231 0.22074 0.2505 0.0
C434 C -0.01046 0.94571 0.02727 0.0
C435 C 0.98536 0.9779 0.0528 0.0
C436 C 0.01437 0.9568 0.99929 0.0
C437 C 0.03597 0.00067 0.99552 0.0
H438 H 0.97245 0.91196 0.02837 0.0
H439 H 0.0151 0.93105 0.98001 0.0
S440 S 0.04148 0.09497 0.05718 0.0
N441 N 0.00928 0.0538 0.07417 0.0
N442 N 0.05586 0.07476 0.02097 0.0
C443 C 0.03438 0.03239 0.02151 0.0
C444 C 0.00915 0.02096 0.05031 0.0
C445 C 0.49113 0.03821 0.48169 0.0
C446 C 0.48365 -0.00965 0.47556 0.0
C447 C 0.52038 0.05309 0.50697 0.0
C448 C 0.54399 0.02064 0.52651 0.0
H449 H 0.4736 0.06447 0.46719 0.0
H450 H 0.52448 0.0902 0.51126 0.0
S451 S 0.53714 0.89114 0.51979 0.0
N452 N 0.50268 0.91062 0.49065 0.0
N453 N 0.55809 0.93814 0.53788 0.0
C454 C 0.53739 0.97256 0.52024 0.0
C455 C 0.50706 0.95753 0.49486 0.0
C456 C 0.25574 0.12146 0.95648 0.0
C457 C 0.24153 0.07824 0.94394 0.0
C458 C 0.2748 0.12499 0.98778 0.0
C459 C 0.27883 0.08558 1.00834 0.0
H460 H 0.24854 0.15321 0.94307 0.0
H461 H 0.28262 0.15968 0.99677 0.0
S462 S 0.25182 0.96337 0.98488 0.0
N463 N 0.23763 -0.00552 0.95256 0.0
N464 N 0.27212 0.00104 0.01185 0.0
C465 C 0.26833 0.04159 0.99494 0.0
C466 C 0.24998 0.03798 0.96265 0.0
C467 C 0.67265 0.50935 0.25299 0.0
C468 C 0.62757 0.51977 0.26484 0.0
C469 C 0.67905 0.48692 0.22287 0.0
C470 C 0.64074 0.47405 0.20333 0.0
H471 H 0.70316 0.51575 0.26795 0.0
H472 H 0.71404 0.47632 0.21601 0.0
S473 S 0.51613 0.49844 0.22029 0.0
N474 N 0.54416 0.52006 0.252 0.0
N475 N 0.55684 0.47671 0.19623 0.0
C476 C 0.59595 0.48712 0.21355 0.0
C477 C 0.58924 0.51045 0.24399 0.0
C478 C 0.21384 0.92693 0.50243 0.0
C479 C 0.19721 0.88273 0.51216 0.0
C480 C 0.23784 0.93284 0.47295 0.0
C481 C 0.24584 0.89499 0.45193 0.0
H482 H 0.21142 0.95658 0.51868 0.0
H483 H 0.2532 0.96662 0.46767 0.0
S484 S 0.20328 0.77403 0.46267 0.0
N485 N 0.18515 0.8017 0.49554 0.0
N486 N 0.23127 0.81336 0.44067 0.0
C487 C 0.22617 0.85171 0.45976 0.0
C488 C 0.20139 0.84552 0.48967 0.0
C489 C 0.78682 0.48186 0.72178 0.0
C490 C 0.82474 0.48773 0.70041 0.0
C491 C 0.79212 0.45838 0.75151 0.0
C492 C 0.83576 0.44018 0.76106 0.0
H493 H 0.75379 0.49888 0.71671 0.0
H494 H 0.76277 0.45797 0.76813 0.0
S495 S 0.94365 0.43943 0.71043 0.0
N496 N 0.90535 0.4689 0.68852 0.0
N497 N 0.9157 0.42343 0.74374 0.0
C498 C 0.87263 0.44174 0.73811 0.0
C499 C 0.86712 0.46609 0.70801 0.0
C500 C 0.74125 0.93104 0.05351 0.0
C501 C 0.74802 0.89273 0.0744 0.0
C502 C 0.72054 0.92554 0.02272 0.0
C503 C 0.70607 0.88132 0.01148 0.0
H504 H 0.75526 0.96496 0.06002 0.0
H505 H 0.71877 0.95568 1.00688 0.0
S506 S 0.71058 0.771 0.05934 0.0
N507 N 0.73505 0.81027 0.08333 0.0
N508 N 0.69498 0.79939 0.02614 0.0
C509 C 0.70931 0.84341 0.0335 0.0
C510 C 0.73072 0.8492 0.06471 0.0
C511 C 0.30456 0.4722 0.80632 0.0
C512 C 0.34439 0.48664 0.82378 0.0
C513 C 0.30846 0.4529 0.77497 0.0
C514 C 0.35243 0.44696 0.76006 0.0
H515 H 0.26996 0.4798 0.81566 0.0
H516 H 0.27667 0.44545 0.76163 0.0
S517 S 0.46766 0.47167 0.79877 0.0
N518 N 0.42887 0.48886 0.82591 0.0
N519 N 0.43707 0.45085 0.76797 0.0
C520 C 0.39266 0.45698 0.77893 0.0
C521 C 0.38842 0.47735 0.81049 0.0
C522 C 0.77049 0.13074 0.53392 0.0
C523 C 0.7759 0.08979 0.51507 0.0
C524 C 0.75278 0.12912 0.56562 0.0
C525 C 0.74125 0.08647 0.58023 0.0
H526 H 0.77629 0.16489 0.52335 0.0
H527 H 0.74443 0.16163 0.57776 0.0
S528 S 0.75652 0.96871 0.54429 0.0
N529 N 0.77384 0.00483 0.51539 0.0
N530 N 0.74175 0.00195 0.57542 0.0
C531 C 0.75138 0.04503 0.56325 0.0
C532 C 0.76841 0.04661 0.53056 0.0
C533 C 0.17652 0.49123 0.3078 0.0
C534 C 0.1365 0.48578 0.32743 0.0
C535 C 0.17345 0.50952 0.27609 0.0
C536 C 0.13018 0.52328 0.26281 0.0
H537 H 0.20978 0.47733 0.3159 0.0
H538 H 0.2047 0.50987 0.26124 0.0
S539 S 0.01632 0.52295 0.30693 0.0
N540 N 0.0536 0.49981 0.33296 0.0
N541 N 0.04732 0.53618 0.27437 0.0
C542 C 0.0907 0.52212 0.28366 0.0
C543 C 0.09394 0.50274 0.31564 0.0
C544 C 0.76916 0.63038 0.49286 0.0
C545 C 0.78185 0.59149 0.5121 0.0
C546 C 0.74622 0.62488 0.46297 0.0
C547 C 0.73656 0.58038 0.45047 0.0
H548 H 0.7732 0.66557 0.50209 0.0
H549 H 0.7329 0.65561 0.45073 0.0
S550 S 0.76916 0.46725 0.48778 0.0
N551 N 0.78784 0.50675 0.51404 0.0
N552 N 0.74587 0.49679 0.45735 0.0
C553 C 0.75329 0.54132 0.46755 0.0
C554 C 0.77578 0.54676 0.49844 0.0
C555 C 0.17574 0.02101 0.74706 0.0
C556 C 0.13094 0.03183 0.75916 0.0
C557 C 0.18132 -0.00201 0.71717 0.0
C558 C 0.14241 0.98488 0.69838 0.0
H559 H 0.20654 0.02715 0.76179 0.0
H560 H 0.21604 0.98667 0.71017 0.0
S561 S 0.01852 0.01197 0.71553 0.0
N562 N 0.04734 0.0338 0.74682 0.0
N563 N 0.05853 -0.01106 0.6915 0.0
C564 C 0.09801 -0.00089 0.70849 0.0
C565 C 0.09213 0.02323 0.73861 0.0
C566 C 0.70839 0.3398 0.99348 0.0
C567 C 0.69542 0.3786 0.01273 0.0
C568 C 0.73117 0.34542 0.96352 0.0
C569 C 0.74043 0.38997 0.95098 0.0
H570 H 0.70433 0.30457 1.00263 0.0
H571 H 0.7443 0.31475 0.95111 0.0
S572 S 0.70831 0.50291 0.98881 0.0
N573 N 0.68981 0.4633 0.01503 0.0
N574 N 0.73142 0.47353 0.95824 0.0
C575 C 0.72416 0.42895 0.96838 0.0
C576 C 0.70186 0.42338 0.99931 0.0
C577 C 0.28305 -0.01238 0.22258 0.0
C578 C 0.31949 -0.00839 0.1998 0.0
C579 C 0.28981 0.96521 0.25256 0.0
C580 C 0.33355 0.9462 0.26109 0.0
H581 H 0.25003 0.00507 0.2182 0.0
H582 H 0.26145 0.96582 0.26998 0.0
S583 S 0.43815 0.9417 0.20728 0.0
N584 N 0.39893 0.97077 0.1859 0.0
N585 N 0.41212 0.92763 0.24175 0.0
C586 C 0.369 0.94633 0.23704 0.0
C587 C 0.36194 0.96946 0.20657 0.0
C588 C 0.22312 0.42749 0.55851 0.0
C589 C 0.22933 0.38788 0.5783 0.0
C590 C 0.20099 0.42417 0.52808 0.0
C591 C 0.18421 0.38103 0.51642 0.0
H592 H 0.23939 0.46033 0.56519 0.0
H593 H 0.20062 0.45476 0.51261 0.0
S594 S 0.18359 0.26923 0.56265 0.0
N595 N 0.21176 0.30614 0.58651 0.0
N596 N 0.1681 0.29961 0.5303 0.0
C597 C 0.18554 0.34242 0.53793 0.0
C598 C 0.20884 0.34584 0.56856 0.0
C599 C 0.79244 0.95361 0.27839 0.0
C600 C 0.83565 0.93554 0.26793 0.0
C601 C 0.78736 0.97271 0.30963 0.0
C602 C 0.82526 0.97465 0.33144 0.0
H603 H 0.76341 0.95646 0.2616 0.0
H604 H 0.75491 -0.00972 0.31554 0.0
S605 S 0.94259 0.92387 0.31907 0.0
N606 N 0.91463 0.91338 0.28472 0.0
N607 N 0.90496 0.95165 0.34251 0.0
C608 C 0.86697 0.95273 0.32269 0.0
C609 C 0.87211 0.93241 0.29119 0.0
C610 C 0.25284 0.62114 0.06228 0.0
C611 C 0.24106 0.57751 0.07536 0.0
C612 C 0.27111 0.62512 0.03079 0.0
C613 C 0.27701 0.58568 1.01047 0.0
H614 H 0.24451 0.65274 0.07555 0.0
H615 H 0.27732 0.66001 0.02161 0.0
S616 S 0.25644 0.46265 0.03519 0.0
N617 N 0.24115 0.49356 0.06736 0.0
N618 N 0.27441 0.5008 1.00776 0.0
C619 C 0.26885 0.54143 0.02434 0.0
C620 C 0.2511 0.53744 0.05684 0.0
C621 C 0.58525 0.0136 0.78084 0.0
C622 C 0.62555 0.0262 0.76297 0.0
C623 C 0.58848 -0.00599 0.81196 0.0
C624 C 0.63195 -0.0125 0.82704 0.0
H625 H 0.55087 0.01541 0.76986 0.0
H626 H 0.55698 0.98065 0.8233 0.0
S627 S 0.74755 0.02161 0.79375 0.0
N628 N 0.71011 0.03582 0.7648 0.0
N629 N 0.71582 -4e-05 0.82371 0.0
C630 C 0.67212 0.0043 0.81109 0.0
C631 C 0.66903 0.02341 0.77897 0.0
C632 C 0.46277 0.22085 0.10412 0.0
C633 C 0.44287 0.20306 0.13288 0.0
C634 C 0.50342 0.24809 0.10472 0.0
C635 C 0.52605 0.25903 0.13411 0.0
H636 H 0.44665 0.21411 0.08076 0.0
H637 H 0.51722 0.26058 0.0818 0.0
S638 S 0.48932 0.22022 0.21642 0.0
N639 N 0.44962 0.19785 0.19178 0.0
N640 N 0.52611 0.24898 0.19287 0.0
C641 C 0.50679 0.24136 0.16315 0.0
C642 C 0.46537 0.21332 0.16253 0.0
C643 C 0.48908 0.70765 0.35454 0.0
C644 C 0.51254 0.69247 0.38273 0.0
C645 C 0.46236 0.74878 0.35445 0.0
C646 C 0.45733 0.77612 0.38267 0.0
H647 H 0.4913 0.68764 0.33226 0.0
H648 H 0.44552 0.7592 0.33202 0.0
S649 S 0.51191 0.75251 0.46295 0.0
N650 N 0.52914 0.70885 0.43973 0.0
N651 N 0.47882 0.7855 0.43952 0.0
C652 C 0.48043 0.76135 0.41108 0.0
C653 C 0.5081 0.71983 0.4111 0.0
C654 C 0.96609 0.72163 0.60386 0.0
C655 C 0.94484 0.708 0.63324 0.0
C656 C 0.00744 0.7481 0.60359 0.0
C657 C 0.0288 0.76278 0.63268 0.0
H658 H 0.95069 0.71177 0.5808 0.0
H659 H 0.02264 0.75726 0.58034 0.0
S660 S 0.98695 0.73676 0.71629 0.0
N661 N 0.94832 0.71137 0.69228 0.0
N662 N 0.02553 0.76128 0.69183 0.0
C663 C 0.00777 0.74954 0.66227 0.0
C664 C 0.96605 0.72206 0.66254 0.0
C665 C 0.97148 0.2573 0.8526 0.0
C666 C 0.9598 0.27971 0.88194 0.0
C667 C -0.00126 0.21668 0.8523 0.0
C668 C 0.01608 0.19717 0.88127 0.0
H669 H 0.95948 0.27122 0.82959 0.0
H670 H 0.00633 0.20053 0.82909 0.0
S671 S -0.00415 0.24247 0.96472 0.0
N672 N 0.96784 0.2793 0.94084 0.0
N673 N 0.01924 0.20329 0.94027 0.0
C674 C 0.00484 0.21932 0.91082 0.0
C675 C 0.97659 0.26038 0.91116 0.0
C676 C 0.52982 0.71614 0.91374 0.0
C677 C 0.52811 0.76518 0.91166 0.0
C678 C 0.48879 0.6893 0.91262 0.0
C679 C 0.44486 0.71083 0.91056 0.0
H680 H 0.56319 0.69828 0.91438 0.0
H681 H 0.49146 0.65156 0.91272 0.0
S682 S 0.42151 0.83803 0.90648 0.0
N683 N 0.47909 0.83412 0.90829 0.0
N684 N 0.40175 0.78383 0.90781 0.0
C685 C 0.4426 0.75985 0.91009 0.0
C686 C 0.48436 0.78705 0.91021 0.0
C687 C 0.50496 0.27793 0.65703 0.0
C688 C 0.4558 0.27611 0.65532 0.0
C689 C 0.53171 0.23703 0.65682 0.0
C690 C 0.51004 0.1931 0.65602 0.0
H691 H 0.52299 0.31124 0.65699 0.0
H692 H 0.56951 0.23977 0.65685 0.0
S693 S 0.38255 0.16944 0.65301 0.0
N694 N 0.38659 0.22699 0.65342 0.0
N695 N 0.43681 0.14983 0.65449 0.0
C696 C 0.46092 0.19074 0.65565 0.0
C697 C 0.43376 0.23238 0.65489 0.0
C698 C 0.00383 0.24354 0.37315 0.0
C699 C 0.02229 0.262 0.40208 0.0
C700 C 0.96512 0.21371 0.37357 0.0
C701 C 0.94274 0.20195 0.40288 0.0
H702 H 0.02007 0.25127 0.34997 0.0
H703 H 0.95199 0.20066 0.35059 0.0
S704 S 0.97694 0.24161 0.48531 0.0
N705 N 0.01562 0.26628 0.46091 0.0
N706 N 0.94149 0.21133 0.46158 0.0
C707 C 0.96046 0.22054 0.432 0.0
C708 C 0.00061 0.25023 0.43163 0.0
C709 C -0.00304 0.7102 0.17839 0.0
C710 C 0.01637 0.69264 0.14951 0.0
C711 C 0.96901 0.75046 0.17814 0.0
C712 C 0.95845 0.77384 0.1489 0.0
H713 H 0.00396 0.69311 0.20136 0.0
H714 H 0.95584 0.76352 0.20108 0.0
S715 S -0.00214 0.73936 0.06629 0.0
N716 N 0.02126 0.70014 0.0907 0.0
N717 N 0.96838 0.77506 0.09013 0.0
C718 C 0.97651 0.7556 0.11974 0.0
C719 C 0.00562 0.71526 0.12008 0.0
C720 C 0.16788 0.2932 0.10553 0.0
C721 C 0.2164 0.2858 0.10357 0.0
C722 C 0.14968 0.33554 0.11645 0.0
C723 C 0.17905 0.37261 0.12588 0.0
H724 H 0.14346 0.26581 0.09899 0.0
H725 H 0.11199 0.33933 0.11724 0.0
S726 S 0.30868 0.37232 0.12461 0.0
N727 N 0.2938 0.31976 0.1117 0.0
N728 N 0.2591 0.39984 0.13191 0.0
C729 C 0.22764 0.36608 0.12402 0.0
C730 C 0.2464 0.32272 0.11277 0.0
C731 C 0.36823 0.43635 0.41967 0.0
C732 C 0.33733 0.43606 0.39331 0.0
C733 C 0.41427 0.45181 0.41567 0.0
C734 C 0.43051 0.46773 0.38526 0.0
H735 H 0.35738 0.42271 0.44305 0.0
H736 H 0.43745 0.45071 0.43649 0.0
S737 S 0.3614 0.47528 0.30922 0.0
N738 N 0.32466 0.45366 0.3363 0.0
N739 N 0.41114 0.48385 0.32879 0.0
C740 C 0.3991 0.46919 0.35906 0.0
C741 C 0.35246 0.45291 0.3631 0.0
C742 C 0.26187 0.66012 0.65351 0.0
C743 C 0.2501 0.67917 0.62303 0.0
C744 C 0.27847 0.61446 0.65623 0.0
C745 C 0.285 0.58711 0.62841 0.0
H746 H 0.25885 0.68093 0.67539 0.0
H747 H 0.2883 0.60132 0.67996 0.0
S748 S 0.25698 0.61958 0.54339 0.0
N749 N 0.24331 0.66633 0.56489 0.0
N750 N 0.27636 0.58067 0.56978 0.0
C751 C 0.27214 0.60514 0.59793 0.0
C752 C 0.25412 0.65123 0.59527 0.0
C753 C 0.04832 0.55531 0.86025 0.0
C754 C 0.04016 0.50696 0.86089 0.0
C755 C 0.0926 0.57362 0.8666 0.0
C756 C 0.13053 0.54439 0.8743 0.0
H757 H 0.0199 0.57936 0.85549 0.0
H758 H 0.09687 0.61121 0.86595 0.0
S759 S 0.12777 0.41496 0.87835 0.0
N760 N 0.07358 0.42983 0.8691 0.0
N761 N 0.15738 0.46438 0.88115 0.0
C762 C 0.12313 0.4958 0.87453 0.0
C763 C 0.07787 0.47705 0.86764 0.0
C764 C 0.73573 0.65028 0.89812 0.0
C765 C 0.75565 0.68838 0.88146 0.0
C766 C 0.75237 0.60481 0.89332 0.0
C767 C 0.7897 0.59632 0.87202 0.0
H768 H 0.70742 0.6556 0.9152 0.0
H769 H 0.73756 0.57656 0.90751 0.0
S770 S 0.85214 0.68262 0.82101 0.0
N771 N 0.81322 0.71358 0.84129 0.0
N772 N 0.84464 0.62815 0.83302 0.0
C773 C 0.80892 0.63354 0.85449 0.0
C774 C 0.79183 0.67963 0.85901 0.0
C775 C 0.6157 0.50184 0.6333 0.0
C776 C 0.62292 0.54666 0.6205 0.0
C777 C 0.5704 0.48409 0.63705 0.0
C778 C 0.53109 0.51034 0.62758 0.0
H779 H 0.645 0.48138 0.64199 0.0
H780 H 0.56615 0.44974 0.64768 0.0
S781 S 0.53237 0.62796 0.58981 0.0
N782 N 0.58797 0.61582 0.59651 0.0
N783 N 0.50274 0.58208 0.60277 0.0
C784 C 0.53819 0.55426 0.61317 0.0
C785 C 0.58419 0.57254 0.60985 0.0
C786 C 0.70261 0.30532 0.41759 0.0
C787 C 0.71774 0.2818 0.38961 0.0
C788 C 0.68226 0.34952 0.41533 0.0
C789 C 0.67764 0.37204 0.38517 0.0
H790 H 0.70507 0.28884 0.44123 0.0
H791 H 0.66984 0.3662 0.43734 0.0
S792 S 0.71432 0.32662 0.30498 0.0
N793 N 0.72809 0.28474 0.33087 0.0
N794 N 0.69114 0.36893 0.327 0.0
C795 C 0.69411 0.34982 0.35715 0.0
C796 C 0.71381 0.30428 0.35929 0.0
C797 C 0.8552 0.46298 0.14799 0.0
C798 C 0.84893 0.41992 0.13221 0.0
C799 C 0.90018 0.48163 0.15247 0.0
C800 C 0.93994 0.45804 0.14081 0.0
H801 H 0.82537 0.48167 0.15765 0.0
H802 H 0.90376 0.51494 0.1647 0.0
S803 S 0.9412 0.34477 0.0967 0.0
N804 N 0.88546 0.35482 0.10421 0.0
N805 N 0.96969 0.38953 0.1124 0.0
C806 C 0.93372 0.41519 0.12457 0.0
C807 C 0.88825 0.39624 0.1203 0.0
C808 C 0.74299 0.82766 0.62482 0.0
C809 C 0.71324 0.78938 0.61922 0.0
C810 C 0.72455 0.87191 0.63182 0.0
C811 C 0.67592 0.87895 0.63308 0.0
H812 H 0.78059 0.82304 0.62492 0.0
H813 H 0.74837 0.90082 0.63569 0.0
S814 S 0.58358 0.78975 0.61935 0.0
N815 N 0.63327 0.7613 0.61472 0.0
N816 N 0.59854 0.84405 0.62788 0.0
C817 C 0.646 0.84087 0.62712 0.0
C818 C 0.66469 0.79618 0.62011 0.0
C819 C 0.88238 0.89943 0.87089 0.0
C820 C 0.84386 0.929 0.8759 0.0
C821 C 0.92685 0.91753 0.86499 0.0
C822 C 0.9345 0.96593 0.86335 0.0
H823 H 0.87832 0.86183 0.87203 0.0
H824 H 0.95572 0.89336 0.8623 0.0
S825 S 0.84467 0.05836 0.87259 0.0
N826 N 0.81554 0.00898 0.87735 0.0
N827 N 0.89962 0.04332 0.86603 0.0
C828 C 0.89606 -0.00397 0.86725 0.0
C829 C 0.85065 0.97749 0.87373 0.0
C830 C 0.81951 0.1252 0.11049 0.0
C831 C 0.79448 0.0916 0.12855 0.0
C832 C 0.79871 0.16679 0.10036 0.0
C833 C 0.75185 0.17673 0.10763 0.0
H834 H 0.856 0.11992 0.10447 0.0
H835 H 0.8201 0.19214 0.08763 0.0
S836 S 0.66977 0.09996 0.15283 0.0
N837 N 0.71929 0.07039 0.15202 0.0
N838 N 0.68011 0.14902 0.13299 0.0
C839 C 0.72557 0.14281 0.12445 0.0
C840 C 0.74692 0.10022 0.13495 0.0
C841 C 0.55002 0.04605 0.34617 0.0
C842 C 0.53659 0.00158 0.35683 0.0
C843 C 0.59121 0.06676 0.35728 0.0
C844 C 0.62078 0.044 0.37973 0.0
H845 H 0.52827 0.06522 0.32924 0.0
H846 H 0.60005 0.10086 0.34767 0.0
S847 S 0.59855 0.92858 0.41773 0.0
N848 N 0.554 0.93633 0.39278 0.0
N849 N 0.63199 0.97528 0.4136 0.0
C850 C 0.60725 -0.00029 0.39113 0.0
C851 C 0.56513 0.97845 0.37964 0.0
C852 C 0.30661 0.18263 0.40004 0.0
C853 C 0.25877 0.18731 0.40693 0.0
C854 C 0.32607 0.13922 0.39304 0.0
C855 C 0.29851 0.09847 0.39238 0.0
H856 H 0.32918 0.21305 0.39927 0.0
H857 H 0.36307 0.13793 0.38748 0.0
S858 S 0.17153 0.09143 0.41041 0.0
N859 N 0.18426 0.14749 0.41395 0.0
N860 N 0.22107 0.06521 0.40084 0.0
C861 C 0.25072 0.1023 0.40012 0.0
C862 C 0.23085 0.14684 0.40753 0.0
C863 C 0.03896 0.05559 0.16352 0.0
C864 C 0.03543 0.0079 0.17138 0.0
C865 C 0.08 0.07441 0.15061 0.0
C866 C 0.11979 0.04663 0.1451 0.0
H867 H 0.00936 0.07873 0.16658 0.0
H868 H 0.08031 0.11133 0.14489 0.0
S869 S 0.13019 0.92002 0.16295 0.0
N870 N 0.07614 0.93328 0.17354 0.0
N871 N 0.15373 0.96906 0.14958 0.0
C872 C 0.11727 -0.00103 0.15326 0.0
C873 C 0.07516 0.97961 0.16645 0.0
C874 C 0.19749 0.8519 0.85533 0.0
C875 C 0.18213 0.87635 0.88279 0.0
C876 C 0.21512 0.80651 0.85837 0.0
C877 C 0.21878 0.78484 0.88904 0.0
H878 H 0.19421 0.8672 0.83136 0.0
H879 H 0.22583 0.78822 0.83656 0.0
S880 S 0.18604 0.83641 0.96842 0.0
N881 N 0.17316 0.87717 0.94149 0.0
N882 N 0.2076 0.7923 0.94738 0.0
C883 C 0.20523 0.8099 0.91675 0.0
C884 C 0.18649 0.85562 0.91356 0.0
C885 C 0.35684 0.96735 0.63926 0.0
C886 C 0.35068 0.92377 0.62417 0.0
C887 C 0.40158 0.98636 0.64328 0.0
C888 C 0.44129 0.96279 0.63169 0.0
H889 H 0.32713 0.98594 0.6492 0.0
H890 H 0.40508 0.0197 0.6555 0.0
S891 S 0.44303 0.84898 0.58854 0.0
N892 N 0.38725 0.85833 0.59659 0.0
N893 N 0.47139 0.89458 0.60326 0.0
C894 C 0.4353 0.91996 0.61548 0.0
C895 C 0.38992 0.90027 0.61196 0.0
loop_
_geom_bond_atom_site_label_1
_geom_bond_atom_site_label_2
_geom_bond_distance
_geom_bond_site_symmetry_2
_ccdc_geom_bond_type
O0 Zn1 1.953 . S
O0 C16 1.225 . S
Zn1 O0 1.953 . S
Zn1 O2 1.949 . S
Zn1 O8 1.919 . S
Zn1 O13 1.924 . S
O2 Zn1 1.949 . S
O2 Zn3 1.923 . S
O2 Zn4 1.950 . S
O2 Zn5 1.945 . S
Zn3 O2 1.923 . S
Zn3 O6 1.933 . S
Zn3 O9 1.941 . S
Zn3 O10 1.965 . S
Zn4 O2 1.950 . S
Zn4 O11 1.938 . S
Zn4 O12 1.906 . S
Zn4 O22 1.953 . S
Zn5 O2 1.945 . S
Zn5 O7 1.932 . S
Zn5 O14 1.977 . S
Zn5 O15 1.910 . S
O6 Zn3 1.933 . S
O6 C17 1.226 . S
O7 Zn5 1.932 . S
O7 C17 1.307 . S
O8 Zn1 1.919 . S
O8 C19 1.253 . S
O9 Zn3 1.941 . S
O9 C19 1.283 . S
O10 Zn3 1.965 . S
O10 C18 1.303 . S
O11 Zn4 1.938 . S
O11 C18 1.247 . S
O12 Zn4 1.906 . S
O12 C20 1.304 . S
O13 Zn1 1.924 . S
O13 C21 1.311 . S
O14 Zn5 1.977 . S
O14 C20 1.272 . S
O15 Zn5 1.910 . S
O15 C21 1.231 . S
C16 O0 1.225 . S
C16 O22 1.298 . S
C17 O6 1.226 . S
C17 O7 1.307 . S
C18 O10 1.303 . S
C18 O11 1.247 . S
C19 O8 1.253 . S
C19 O9 1.283 . S
C20 O12 1.304 . S
C20 O14 1.272 . S
C21 O13 1.311 . S
C21 O15 1.231 . S
O22 Zn4 1.953 . S
O22 C16 1.298 . S
O23 Zn24 1.953 . S
O23 C39 1.225 . S
Zn24 O23 1.953 . S
Zn24 O25 1.949 . S
Zn24 O31 1.919 . S
Zn24 O36 1.924 . S
O25 Zn24 1.949 . S
O25 Zn26 1.923 . S
O25 Zn27 1.950 . S
O25 Zn28 1.945 . S
Zn26 O25 1.923 . S
Zn26 O29 1.933 . S
Zn26 O32 1.941 . S
Zn26 O33 1.965 . S
Zn27 O25 1.950 . S
Zn27 O34 1.938 . S
Zn27 O35 1.906 . S
Zn27 O45 1.953 . S
Zn28 O25 1.945 . S
Zn28 O30 1.932 . S
Zn28 O37 1.977 . S
Zn28 O38 1.910 . S
O29 Zn26 1.933 . S
O29 C40 1.226 . S
O30 Zn28 1.932 . S
O30 C40 1.307 . S
O31 Zn24 1.919 . S
O31 C42 1.253 . S
O32 Zn26 1.941 . S
O32 C42 1.283 . S
O33 Zn26 1.965 . S
O33 C41 1.303 . S
O34 Zn27 1.938 . S
O34 C41 1.247 . S
O35 Zn27 1.906 . S
O35 C43 1.304 . S
O36 Zn24 1.924 . S
O36 C44 1.311 . S
O37 Zn28 1.977 . S
O37 C43 1.272 . S
O38 Zn28 1.910 . S
O38 C44 1.231 . S
C39 O23 1.225 . S
C39 O45 1.298 . S
C40 O29 1.226 . S
C40 O30 1.307 . S
C41 O33 1.303 . S
C41 O34 1.247 . S
C42 O31 1.253 . S
C42 O32 1.283 . S
C43 O35 1.304 . S
C43 O37 1.272 . S
C44 O36 1.311 . S
C44 O38 1.231 . S
O45 Zn27 1.953 . S
O45 C39 1.298 . S
O46 Zn47 1.953 . S
O46 C62 1.225 . S
Zn47 O46 1.953 . S
Zn47 O48 1.949 . S
Zn47 O54 1.919 . S
Zn47 O59 1.924 . S
O48 Zn47 1.949 . S
O48 Zn49 1.923 . S
O48 Zn50 1.950 . S
O48 Zn51 1.945 . S
Zn49 O48 1.923 . S
Zn49 O52 1.933 . S
Zn49 O55 1.941 . S
Zn49 O56 1.965 . S
Zn50 O48 1.950 . S
Zn50 O57 1.938 . S
Zn50 O58 1.906 . S
Zn50 O68 1.953 . S
Zn51 O48 1.945 . S
Zn51 O53 1.932 . S
Zn51 O60 1.977 . S
Zn51 O61 1.910 . S
O52 Zn49 1.933 . S
O52 C63 1.226 . S
O53 Zn51 1.932 . S
O53 C63 1.307 . S
O54 Zn47 1.919 . S
O54 C65 1.253 . S
O55 Zn49 1.941 . S
O55 C65 1.283 . S
O56 Zn49 1.965 . S
O56 C64 1.303 . S
O57 Zn50 1.938 . S
O57 C64 1.247 . S
O58 Zn50 1.906 . S
O58 C66 1.304 . S
O59 Zn47 1.924 . S
O59 C67 1.311 . S
O60 Zn51 1.977 . S
O60 C66 1.272 . S
O61 Zn51 1.910 . S
O61 C67 1.231 . S
C62 O46 1.225 . S
C62 O68 1.298 . S
C63 O52 1.226 . S
C63 O53 1.307 . S
C64 O56 1.303 . S
C64 O57 1.247 . S
C65 O54 1.253 . S
C65 O55 1.283 . S
C66 O58 1.304 . S
C66 O60 1.272 . S
C67 O59 1.311 . S
C67 O61 1.231 . S
O68 Zn50 1.953 . S
O68 C62 1.298 . S
O69 Zn70 1.953 . S
O69 C85 1.225 . S
Zn70 O69 1.953 . S
Zn70 O71 1.949 . S
Zn70 O77 1.919 . S
Zn70 O82 1.924 . S
O71 Zn70 1.949 . S
O71 Zn72 1.923 . S
O71 Zn73 1.950 . S
O71 Zn74 1.945 . S
Zn72 O71 1.923 . S
Zn72 O75 1.933 . S
Zn72 O78 1.941 . S
Zn72 O79 1.965 . S
Zn73 O71 1.950 . S
Zn73 O80 1.938 . S
Zn73 O81 1.906 . S
Zn73 O91 1.953 . S
Zn74 O71 1.945 . S
Zn74 O76 1.932 . S
Zn74 O83 1.977 . S
Zn74 O84 1.910 . S
O75 Zn72 1.933 . S
O75 C86 1.226 . S
O76 Zn74 1.932 . S
O76 C86 1.307 . S
O77 Zn70 1.919 . S
O77 C88 1.253 . S
O78 Zn72 1.941 . S
O78 C88 1.283 . S
O79 Zn72 1.965 . S
O79 C87 1.303 . S
O80 Zn73 1.938 . S
O80 C87 1.247 . S
O81 Zn73 1.906 . S
O81 C89 1.304 . S
O82 Zn70 1.924 . S
O82 C90 1.311 1_655 S
O83 Zn74 1.977 . S
O83 C89 1.272 . S
O84 Zn74 1.910 . S
O84 C90 1.231 1_655 S
C85 O69 1.225 . S
C85 O91 1.298 . S
C86 O75 1.226 . S
C86 O76 1.307 . S
C87 O79 1.303 . S
C87 O80 1.247 . S
C88 O77 1.253 . S
C88 O78 1.283 . S
C89 O81 1.304 . S
C89 O83 1.272 . S
C90 O82 1.311 1_455 S
C90 O84 1.231 1_455 S
O91 Zn73 1.953 . S
O91 C85 1.298 . S
O92 Zn93 1.953 . S
O92 C108 1.225 . S
Zn93 O92 1.953 . S
Zn93 O94 1.949 . S
Zn93 O100 1.919 . S
Zn93 O105 1.924 . S
O94 Zn93 1.949 . S
O94 Zn95 1.923 . S
O94 Zn96 1.950 . S
O94 Zn97 1.945 . S
Zn95 O94 1.923 . S
Zn95 O98 1.933 . S
Zn95 O101 1.941 . S
Zn95 O102 1.965 . S
Zn96 O94 1.950 . S
Zn96 O103 1.938 . S
Zn96 O104 1.906 . S
Zn96 O114 1.953 . S
Zn97 O94 1.945 . S
Zn97 O99 1.932 . S
Zn97 O106 1.977 . S
Zn97 O107 1.910 . S
O98 Zn95 1.933 . S
O98 C109 1.226 . S
O99 Zn97 1.932 . S
O99 C109 1.307 . S
O100 Zn93 1.919 . S
O100 C111 1.253 . S
O101 Zn95 1.941 . S
O101 C111 1.283 . S
O102 Zn95 1.965 . S
O102 C110 1.303 . S
O103 Zn96 1.938 . S
O103 C110 1.247 . S
O104 Zn96 1.906 . S
O104 C112 1.304 . S
O105 Zn93 1.924 . S
O105 C113 1.311 . S
O106 Zn97 1.977 . S
O106 C112 1.272 . S
O107 Zn97 1.910 . S
O107 C113 1.231 . S
C108 O92 1.225 . S
C108 O114 1.298 . S
C109 O98 1.226 . S
C109 O99 1.307 . S
C110 O102 1.303 . S
C110 O103 1.247 . S
C111 O100 1.253 . S
C111 O101 1.283 . S
C112 O104 1.304 . S
C112 O106 1.272 . S
C113 O105 1.311 . S
C113 O107 1.231 . S
O114 Zn96 1.953 . S
O114 C108 1.298 . S
O115 Zn116 1.953 . S
O115 C131 1.225 . S
Zn116 O115 1.953 . S
Zn116 O117 1.949 . S
Zn116 O123 1.919 . S
Zn116 O128 1.924 . S
O117 Zn116 1.949 . S
O117 Zn118 1.923 . S
O117 Zn119 1.950 . S
O117 Zn120 1.945 . S
Zn118 O117 1.923 . S
Zn118 O121 1.933 . S
Zn118 O124 1.941 . S
Zn118 O125 1.965 . S
Zn119 O117 1.950 . S
Zn119 O126 1.938 . S
Zn119 O127 1.906 . S
Zn119 O137 1.953 . S
Zn120 O117 1.945 . S
Zn120 O122 1.932 . S
Zn120 O129 1.977 . S
Zn120 O130 1.910 . S
O121 Zn118 1.933 . S
O121 C132 1.226 . S
O122 Zn120 1.932 . S
O122 C132 1.307 . S
O123 Zn116 1.919 . S
O123 C134 1.253 . S
O124 Zn118 1.941 . S
O124 C134 1.283 . S
O125 Zn118 1.965 . S
O125 C133 1.303 . S
O126 Zn119 1.938 . S
O126 C133 1.247 . S
O127 Zn119 1.906 . S
O127 C135 1.304 . S
O128 Zn116 1.924 . S
O128 C136 1.311 . S
O129 Zn120 1.977 . S
O129 C135 1.272 . S
O130 Zn120 1.910 . S
O130 C136 1.231 . S
C131 O115 1.225 . S
C131 O137 1.298 . S
C132 O121 1.226 . S
C132 O122 1.307 . S
C133 O125 1.303 . S
C133 O126 1.247 . S
C134 O123 1.253 . S
C134 O124 1.283 . S
C135 O127 1.304 . S
C135 O129 1.272 . S
C136 O128 1.311 . S
C136 O130 1.231 . S
O137 Zn119 1.953 . S
O137 C131 1.298 . S
O138 Zn139 1.953 . S
O138 C154 1.225 . S
Zn139 O138 1.953 . S
Zn139 O140 1.949 . S
Zn139 O146 1.919 . S
Zn139 O151 1.924 . S
O140 Zn139 1.949 . S
O140 Zn141 1.923 . S
O140 Zn142 1.950 . S
O140 Zn143 1.945 . S
Zn141 O140 1.923 . S
Zn141 O144 1.933 . S
Zn141 O147 1.941 . S
Zn141 O148 1.965 . S
Zn142 O140 1.950 . S
Zn142 O149 1.938 . S
Zn142 O150 1.906 . S
Zn142 O160 1.953 . S
Zn143 O140 1.945 . S
Zn143 O145 1.932 . S
Zn143 O152 1.977 . S
Zn143 O153 1.910 . S
O144 Zn141 1.933 . S
O144 C155 1.226 . S
O145 Zn143 1.932 . S
O145 C155 1.307 . S
O146 Zn139 1.919 . S
O146 C157 1.253 . S
O147 Zn141 1.941 . S
O147 C157 1.283 . S
O148 Zn141 1.965 . S
O148 C156 1.303 . S
O149 Zn142 1.938 . S
O149 C156 1.247 . S
O150 Zn142 1.906 . S
O150 C158 1.304 . S
O151 Zn139 1.924 . S
O151 C159 1.311 . S
O152 Zn143 1.977 . S
O152 C158 1.272 . S
O153 Zn143 1.910 . S
O153 C159 1.231 . S
C154 O138 1.225 . S
C154 O160 1.298 . S
C155 O144 1.226 . S
C155 O145 1.307 . S
C156 O148 1.303 . S
C156 O149 1.247 . S
C157 O146 1.253 . S
C157 O147 1.283 . S
C158 O150 1.304 . S
C158 O152 1.272 . S
C159 O151 1.311 . S
C159 O153 1.231 . S
O160 Zn142 1.953 . S
O160 C154 1.298 . S
O161 Zn162 1.953 . S
O161 C177 1.225 . S
Zn162 O161 1.953 . S
Zn162 O163 1.949 . S
Zn162 O169 1.919 . S
Zn162 O174 1.924 . S
O163 Zn162 1.949 . S
O163 Zn164 1.923 . S
O163 Zn165 1.950 . S
O163 Zn166 1.945 . S
Zn164 O163 1.923 . S
Zn164 O167 1.933 . S
Zn164 O170 1.941 . S
Zn164 O171 1.965 . S
Zn165 O163 1.950 . S
Zn165 O172 1.938 . S
Zn165 O173 1.906 . S
Zn165 O183 1.953 . S
Zn166 O163 1.945 . S
Zn166 O168 1.932 . S
Zn166 O175 1.977 . S
Zn166 O176 1.910 . S
O167 Zn164 1.933 . S
O167 C178 1.226 . S
O168 Zn166 1.932 . S
O168 C178 1.307 . S
O169 Zn162 1.919 . S
O169 C180 1.253 . S
O170 Zn164 1.941 . S
O170 C180 1.283 . S
O171 Zn164 1.965 . S
O171 C179 1.303 . S
O172 Zn165 1.938 . S
O172 C179 1.247 . S
O173 Zn165 1.906 . S
O173 C181 1.304 . S
O174 Zn162 1.924 . S
O174 C182 1.311 1_455 S
O175 Zn166 1.977 . S
O175 C181 1.272 . S
O176 Zn166 1.910 . S
O176 C182 1.231 1_455 S
C177 O161 1.225 . S
C177 O183 1.298 . S
C178 O167 1.226 . S
C178 O168 1.307 . S
C179 O171 1.303 . S
C179 O172 1.247 . S
C180 O169 1.253 . S
C180 O170 1.283 . S
C181 O173 1.304 . S
C181 O175 1.272 . S
C182 O174 1.311 1_655 S
C182 O176 1.231 1_655 S
O183 Zn165 1.953 . S
O183 C177 1.298 . S
O184 Zn185 1.953 . S
O184 C200 1.225 . S
Zn185 O184 1.953 . S
Zn185 O186 1.949 . S
Zn185 O192 1.919 . S
Zn185 O197 1.924 . S
O186 Zn185 1.949 . S
O186 Zn187 1.923 . S
O186 Zn188 1.950 . S
O186 Zn189 1.945 . S
Zn187 O186 1.923 . S
Zn187 O190 1.933 . S
Zn187 O193 1.941 . S
Zn187 O194 1.965 . S
Zn188 O186 1.950 . S
Zn188 O195 1.938 . S
Zn188 O196 1.906 . S
Zn188 O206 1.953 . S
Zn189 O186 1.945 . S
Zn189 O191 1.932 . S
Zn189 O198 1.977 . S
Zn189 O199 1.910 . S
O190 Zn187 1.933 . S
O190 C201 1.226 . S
O191 Zn189 1.932 . S
O191 C201 1.307 . S
O192 Zn185 1.919 . S
O192 C203 1.253 . S
O193 Zn187 1.941 . S
O193 C203 1.283 . S
O194 Zn187 1.965 . S
O194 C202 1.303 . S
O195 Zn188 1.938 . S
O195 C202 1.247 . S
O196 Zn188 1.906 . S
O196 C204 1.304 . S
O197 Zn185 1.924 . S
O197 C205 1.311 . S
O198 Zn189 1.977 . S
O198 C204 1.272 . S
O199 Zn189 1.910 . S
O199 C205 1.231 . S
C200 O184 1.225 . S
C200 O206 1.298 . S
C201 O190 1.226 . S
C201 O191 1.307 . S
C202 O194 1.303 . S
C202 O195 1.247 . S
C203 O192 1.253 . S
C203 O193 1.283 . S
C204 O196 1.304 . S
C204 O198 1.272 . S
C205 O197 1.311 . S
C205 O199 1.231 . S
O206 Zn188 1.953 . S
O206 C200 1.298 . S
O207 Zn208 1.956 . S
O207 C223 1.209 1_565 S
Zn208 O207 1.956 . S
Zn208 O209 1.949 1_565 S
Zn208 O215 1.919 . S
Zn208 O220 1.924 . S
O209 Zn208 1.949 1_545 S
O209 Zn210 1.923 . S
O209 Zn211 1.950 . S
O209 Zn212 1.945 . S
Zn210 O209 1.923 . S
Zn210 O213 1.933 . S
Zn210 O216 1.941 1_545 S
Zn210 O217 1.965 . S
Zn211 O209 1.950 . S
Zn211 O218 1.938 . S
Zn211 O219 1.906 . S
Zn211 O229 1.953 . S
Zn212 O209 1.945 . S
Zn212 O214 1.932 . S
Zn212 O221 1.977 . S
Zn212 O222 1.910 . S
O213 Zn210 1.933 . S
O213 C224 1.226 . S
O214 Zn212 1.932 . S
O214 C224 1.307 . S
O215 Zn208 1.919 . S
O215 C226 1.253 . S
O216 Zn210 1.941 1_565 S
O216 C226 1.283 . S
O217 Zn210 1.965 . S
O217 C225 1.303 . S
O218 Zn211 1.938 . S
O218 C225 1.247 . S
O219 Zn211 1.906 . S
O219 C227 1.304 . S
O220 Zn208 1.924 . S
O220 C228 1.311 1_455 S
O221 Zn212 1.977 . S
O221 C227 1.272 . S
O222 Zn212 1.910 . S
O222 C228 1.231 1_445 S
C223 O207 1.209 1_545 S
C223 O229 1.298 . S
C224 O213 1.226 . S
C224 O214 1.307 . S
C225 O217 1.303 . S
C225 O218 1.247 . S
C226 O215 1.253 . S
C226 O216 1.283 . S
C227 O219 1.304 . S
C227 O221 1.272 . S
C228 O220 1.311 1_655 S
C228 O222 1.231 1_665 S
O229 Zn211 1.953 . S
O229 C223 1.298 . S
O230 Zn231 1.953 . S
O230 C246 1.225 . S
Zn231 O230 1.953 . S
Zn231 O232 1.949 . S
Zn231 O238 1.919 . S
Zn231 O243 1.924 . S
O232 Zn231 1.949 . S
O232 Zn233 1.923 . S
O232 Zn234 1.950 . S
O232 Zn235 1.945 . S
Zn233 O232 1.923 . S
Zn233 O236 1.933 . S
Zn233 O239 1.941 . S
Zn233 O240 1.965 . S
Zn234 O232 1.950 . S
Zn234 O241 1.938 . S
Zn234 O242 1.906 . S
Zn234 O252 1.953 . S
Zn235 O232 1.945 . S
Zn235 O237 1.932 . S
Zn235 O244 1.977 . S
Zn235 O245 1.910 . S
O236 Zn233 1.933 . S
O236 C247 1.226 . S
O237 Zn235 1.932 . S
O237 C247 1.307 . S
O238 Zn231 1.919 . S
O238 C249 1.253 . S
O239 Zn233 1.941 . S
O239 C249 1.283 . S
O240 Zn233 1.965 . S
O240 C248 1.303 . S
O241 Zn234 1.938 . S
O241 C248 1.247 . S
O242 Zn234 1.906 . S
O242 C250 1.304 . S
O243 Zn231 1.924 . S
O243 C251 1.311 . S
O244 Zn235 1.977 . S
O244 C250 1.272 . S
O245 Zn235 1.910 . S
O245 C251 1.231 . S
C246 O230 1.225 . S
C246 O252 1.298 . S
C247 O236 1.226 . S
C247 O237 1.307 . S
C248 O240 1.303 . S
C248 O241 1.247 . S
C249 O238 1.253 . S
C249 O239 1.283 . S
C250 O242 1.304 . S
C250 O244 1.272 . S
C251 O243 1.311 . S
C251 O245 1.231 . S
O252 Zn234 1.953 . S
O252 C246 1.298 . S
O253 Zn254 1.956 . S
O253 C269 1.209 1_545 S
Zn254 O253 1.956 . S
Zn254 O255 1.949 1_545 S
Zn254 O261 1.919 . S
Zn254 O266 1.924 . S
O255 Zn254 1.949 1_565 S
O255 Zn256 1.923 . S
O255 Zn257 1.950 . S
O255 Zn258 1.945 . S
Zn256 O255 1.923 . S
Zn256 O259 1.933 . S
Zn256 O262 1.941 1_565 S
Zn256 O263 1.965 . S
Zn257 O255 1.950 . S
Zn257 O264 1.938 . S
Zn257 O265 1.906 . S
Zn257 O275 1.953 . S
Zn258 O255 1.945 . S
Zn258 O260 1.932 . S
Zn258 O267 1.977 . S
Zn258 O268 1.910 . S
O259 Zn256 1.933 . S
O259 C270 1.226 . S
O260 Zn258 1.932 . S
O260 C270 1.307 . S
O261 Zn254 1.919 . S
O261 C272 1.253 . S
O262 Zn256 1.941 1_545 S
O262 C272 1.283 . S
O263 Zn256 1.965 . S
O263 C271 1.303 . S
O264 Zn257 1.938 . S
O264 C271 1.247 . S
O265 Zn257 1.906 . S
O265 C273 1.304 . S
O266 Zn254 1.924 . S
O266 C274 1.311 . S
O267 Zn258 1.977 . S
O267 C273 1.272 . S
O268 Zn258 1.910 . S
O268 C274 1.231 1_565 S
C269 O253 1.209 1_565 S
C269 O275 1.298 . S
C270 O259 1.226 . S
C270 O260 1.307 . S
C271 O263 1.303 . S
C271 O264 1.247 . S
C272 O261 1.253 . S
C272 O262 1.283 . S
C273 O265 1.304 . S
C273 O267 1.272 . S
C274 O266 1.311 . S
C274 O268 1.231 1_545 S
O275 Zn257 1.953 . S
O275 C269 1.298 . S
O276 Zn277 1.953 . S
O276 C292 1.225 . S
Zn277 O276 1.953 . S
Zn277 O278 1.949 . S
Zn277 O284 1.919 . S
Zn277 O289 1.924 . S
O278 Zn277 1.949 . S
O278 Zn279 1.923 . S
O278 Zn280 1.950 . S
O278 Zn281 1.945 . S
Zn279 O278 1.923 . S
Zn279 O282 1.933 . S
Zn279 O285 1.941 . S
Zn279 O286 1.965 . S
Zn280 O278 1.950 . S
Zn280 O287 1.938 . S
Zn280 O288 1.906 . S
Zn280 O298 1.953 . S
Zn281 O278 1.945 . S
Zn281 O283 1.932 . S
Zn281 O290 1.977 . S
Zn281 O291 1.910 . S
O282 Zn279 1.933 . S
O282 C293 1.226 . S
O283 Zn281 1.932 . S
O283 C293 1.307 . S
O284 Zn277 1.919 . S
O284 C295 1.253 . S
O285 Zn279 1.941 . S
O285 C295 1.283 . S
O286 Zn279 1.965 . S
O286 C294 1.303 . S
O287 Zn280 1.938 . S
O287 C294 1.247 . S
O288 Zn280 1.906 . S
O288 C296 1.304 . S
O289 Zn277 1.924 . S
O289 C297 1.311 . S
O290 Zn281 1.977 . S
O290 C296 1.272 . S
O291 Zn281 1.910 . S
O291 C297 1.231 . S
C292 O276 1.225 . S
C292 O298 1.298 . S
C293 O282 1.226 . S
C293 O283 1.307 . S
C294 O286 1.303 . S
C294 O287 1.247 . S
C295 O284 1.253 . S
C295 O285 1.283 . S
C296 O288 1.304 . S
C296 O290 1.272 . S
C297 O289 1.311 . S
C297 O291 1.231 . S
O298 Zn280 1.953 . S
O298 C292 1.298 . S
O299 Zn300 1.956 . S
O299 C315 1.209 1_545 S
Zn300 O299 1.956 . S
Zn300 O301 1.949 1_545 S
Zn300 O307 1.919 . S
Zn300 O312 1.924 . S
O301 Zn300 1.949 1_565 S
O301 Zn302 1.923 . S
O301 Zn303 1.950 . S
O301 Zn304 1.945 . S
Zn302 O301 1.923 . S
Zn302 O305 1.933 . S
Zn302 O308 1.941 1_565 S
Zn302 O309 1.965 . S
Zn303 O301 1.950 . S
Zn303 O310 1.938 . S
Zn303 O311 1.906 . S
Zn303 O321 1.953 . S
Zn304 O301 1.945 . S
Zn304 O306 1.932 . S
Zn304 O313 1.977 . S
Zn304 O314 1.910 . S
O305 Zn302 1.933 . S
O305 C316 1.226 . S
O306 Zn304 1.932 . S
O306 C316 1.307 . S
O307 Zn300 1.919 . S
O307 C318 1.253 . S
O308 Zn302 1.941 1_545 S
O308 C318 1.283 . S
O309 Zn302 1.965 . S
O309 C317 1.303 . S
O310 Zn303 1.938 . S
O310 C317 1.247 . S
O311 Zn303 1.906 . S
O311 C319 1.304 . S
O312 Zn300 1.924 . S
O312 C320 1.311 1_655 S
O313 Zn304 1.977 . S
O313 C319 1.272 . S
O314 Zn304 1.910 . S
O314 C320 1.231 1_665 S
C315 O299 1.209 1_565 S
C315 O321 1.298 . S
C316 O305 1.226 . S
C316 O306 1.307 . S
C317 O309 1.303 . S
C317 O310 1.247 . S
C318 O307 1.253 . S
C318 O308 1.283 . S
C319 O311 1.304 . S
C319 O313 1.272 . S
C320 O312 1.311 1_455 S
C320 O314 1.231 1_445 S
O321 Zn303 1.953 . S
O321 C315 1.298 . S
O322 Zn323 1.953 . S
O322 C338 1.225 . S
Zn323 O322 1.953 . S
Zn323 O324 1.949 . S
Zn323 O330 1.919 . S
Zn323 O335 1.924 . S
O324 Zn323 1.949 . S
O324 Zn325 1.923 . S
O324 Zn326 1.950 . S
O324 Zn327 1.945 . S
Zn325 O324 1.923 . S
Zn325 O328 1.933 . S
Zn325 O331 1.941 . S
Zn325 O332 1.965 . S
Zn326 O324 1.950 . S
Zn326 O333 1.938 . S
Zn326 O334 1.906 . S
Zn326 O344 1.953 . S
Zn327 O324 1.945 . S
Zn327 O329 1.932 . S
Zn327 O336 1.977 . S
Zn327 O337 1.910 . S
O328 Zn325 1.933 . S
O328 C339 1.226 . S
O329 Zn327 1.932 . S
O329 C339 1.307 . S
O330 Zn323 1.919 . S
O330 C341 1.253 . S
O331 Zn325 1.941 . S
O331 C341 1.283 . S
O332 Zn325 1.965 . S
O332 C340 1.303 . S
O333 Zn326 1.938 . S
O333 C340 1.247 . S
O334 Zn326 1.906 . S
O334 C342 1.304 . S
O335 Zn323 1.924 . S
O335 C343 1.311 . S
O336 Zn327 1.977 . S
O336 C342 1.272 . S
O337 Zn327 1.910 . S
O337 C343 1.231 . S
C338 O322 1.225 . S
C338 O344 1.298 . S
C339 O328 1.226 . S
C339 O329 1.307 . S
C340 O332 1.303 . S
C340 O333 1.247 . S
C341 O330 1.253 . S
C341 O331 1.283 . S
C342 O334 1.304 . S
C342 O336 1.272 . S
C343 O335 1.311 . S
C343 O337 1.231 . S
O344 Zn326 1.953 . S
O344 C338 1.298 . S
O345 Zn346 1.956 . S
O345 C361 1.209 1_565 S
Zn346 O345 1.956 . S
Zn346 O347 1.949 1_565 S
Zn346 O353 1.919 . S
Zn346 O358 1.924 . S
O347 Zn346 1.949 1_545 S
O347 Zn348 1.923 . S
O347 Zn349 1.950 . S
O347 Zn350 1.945 . S
Zn348 O347 1.923 . S
Zn348 O351 1.933 . S
Zn348 O354 1.941 1_545 S
Zn348 O355 1.965 . S
Zn349 O347 1.950 . S
Zn349 O356 1.938 . S
Zn349 O357 1.906 . S
Zn349 O367 1.953 . S
Zn350 O347 1.945 . S
Zn350 O352 1.932 . S
Zn350 O359 1.977 . S
Zn350 O360 1.910 . S
O351 Zn348 1.933 . S
O351 C362 1.226 . S
O352 Zn350 1.932 . S
O352 C362 1.307 . S
O353 Zn346 1.919 . S
O353 C364 1.253 . S
O354 Zn348 1.941 1_565 S
O354 C364 1.283 . S
O355 Zn348 1.965 . S
O355 C363 1.303 . S
O356 Zn349 1.938 . S
O356 C363 1.247 . S
O357 Zn349 1.906 . S
O357 C365 1.304 . S
O358 Zn346 1.924 . S
O358 C366 1.311 . S
O359 Zn350 1.977 . S
O359 C365 1.272 . S
O360 Zn350 1.910 . S
O360 C366 1.231 1_545 S
C361 O345 1.209 1_545 S
C361 O367 1.298 . S
C362 O351 1.226 . S
C362 O352 1.307 . S
C363 O355 1.303 . S
C363 O356 1.247 . S
C364 O353 1.253 . S
C364 O354 1.283 . S
C365 O357 1.304 . S
C365 O359 1.272 . S
C366 O358 1.311 . S
C366 O360 1.231 1_565 S
O367 Zn349 1.953 . S
O367 C361 1.298 . S
C368 C369 1.369 . S
C368 C370 1.419 . S
C368 H372 0.930 . S
C369 C368 1.369 . S
C369 C378 1.429 . S
C370 C368 1.419 . S
C370 C371 1.363 . S
C370 H373 0.929 . S
C371 C370 1.363 . S
C371 C377 1.428 . S
H372 C368 0.930 . S
H373 C370 0.929 . S
S374 N375 1.613 . S
S374 N376 1.610 . S
N375 S374 1.613 . S
N375 C378 1.350 . S
N376 S374 1.610 . S
N376 C377 1.351 . S
C377 C371 1.428 . S
C377 N376 1.351 . S
C377 C378 1.434 . S
C378 C369 1.429 . S
C378 N375 1.350 . S
C378 C377 1.434 . S
C379 C380 1.369 . S
C379 C381 1.419 . S
C379 H383 0.930 . S
C380 C379 1.369 . S
C380 C389 1.429 . S
C381 C379 1.419 . S
C381 C382 1.363 . S
C381 H384 0.929 . S
C382 C381 1.363 . S
C382 C388 1.428 . S
H383 C379 0.930 . S
H384 C381 0.929 . S
S385 N386 1.613 . S
S385 N387 1.610 . S
N386 S385 1.613 . S
N386 C389 1.350 . S
N387 S385 1.610 . S
N387 C388 1.351 . S
C388 C382 1.428 . S
C388 N387 1.351 . S
C388 C389 1.434 . S
C389 C380 1.429 . S
C389 N386 1.350 . S
C389 C388 1.434 . S
C390 C391 1.369 . S
C390 C392 1.419 . S
C390 H394 0.930 . S
C391 C390 1.369 . S
C391 C400 1.429 . S
C392 C390 1.419 . S
C392 C393 1.363 . S
C392 H395 0.929 . S
C393 C392 1.363 . S
C393 C399 1.428 . S
H394 C390 0.930 . S
H395 C392 0.929 . S
S396 N397 1.613 . S
S396 N398 1.610 . S
N397 S396 1.613 . S
N397 C400 1.350 . S
N398 S396 1.610 . S
N398 C399 1.351 . S
C399 C393 1.428 . S
C399 N398 1.351 . S
C399 C400 1.434 . S
C400 C391 1.429 . S
C400 N397 1.350 . S
C400 C399 1.434 . S
C401 C402 1.369 1_455 S
C401 C403 1.419 . S
C401 H405 0.930 . S
C402 C401 1.369 1_655 S
C402 C411 1.429 1_556 S
C403 C401 1.419 . S
C403 C404 1.363 1_556 S
C403 H406 0.929 . S
C404 C403 1.363 1_554 S
C404 C410 1.428 1_455 S
H405 C401 0.930 . S
H406 C403 0.929 . S
S407 N408 1.613 . S
S407 N409 1.610 . S
N408 S407 1.613 . S
N408 C411 1.350 . S
N409 S407 1.610 . S
N409 C410 1.351 . S
C410 C404 1.428 1_655 S
C410 N409 1.351 . S
C410 C411 1.434 . S
C411 C402 1.429 1_554 S
C411 N408 1.350 . S
C411 C410 1.434 . S
C412 C413 1.369 . S
C412 C414 1.419 . S
C412 H416 0.930 . S
C413 C412 1.369 . S
C413 C422 1.429 . S
C414 C412 1.419 . S
C414 C415 1.363 . S
C414 H417 0.929 . S
C415 C414 1.363 . S
C415 C421 1.428 . S
H416 C412 0.930 . S
H417 C414 0.929 . S
S418 N419 1.613 . S
S418 N420 1.610 . S
N419 S418 1.613 . S
N419 C422 1.350 . S
N420 S418 1.610 . S
N420 C421 1.351 . S
C421 C415 1.428 . S
C421 N420 1.351 . S
C421 C422 1.434 . S
C422 C413 1.429 . S
C422 N419 1.350 . S
C422 C421 1.434 . S
C423 C424 1.369 . S
C423 C425 1.419 . S
C423 H427 0.930 . S
C424 C423 1.369 . S
C424 C433 1.429 . S
C425 C423 1.419 . S
C425 C426 1.363 . S
C425 H428 0.929 . S
C426 C425 1.363 . S
C426 C432 1.428 . S
H427 C423 0.930 . S
H428 C425 0.929 . S
S429 N430 1.613 . S
S429 N431 1.610 . S
N430 S429 1.613 . S
N430 C433 1.350 . S
N431 S429 1.610 . S
N431 C432 1.351 . S
C432 C426 1.428 . S
C432 N431 1.351 . S
C432 C433 1.434 . S
C433 C424 1.429 . S
C433 N430 1.350 . S
C433 C432 1.434 . S
C434 C435 1.369 1_556 S
C434 C436 1.419 . S
C434 H438 0.930 . S
C435 C434 1.369 1_554 S
C435 C444 1.429 1_665 S
C436 C434 1.419 . S
C436 C437 1.363 1_665 S
C436 H439 0.929 . S
C437 C436 1.363 1_445 S
C437 C443 1.428 1_556 S
H438 C434 0.930 . S
H439 C436 0.929 . S
S440 N441 1.613 . S
S440 N442 1.610 . S
N441 S440 1.613 . S
N441 C444 1.350 . S
N442 S440 1.610 . S
N442 C443 1.351 . S
C443 C437 1.428 1_554 S
C443 N442 1.351 . S
C443 C444 1.434 . S
C444 C435 1.429 1_445 S
C444 N441 1.350 . S
C444 C443 1.434 . S
C445 C446 1.369 1_545 S
C445 C447 1.419 . S
C445 H449 0.930 . S
C446 C445 1.369 1_565 S
C446 C455 1.429 . S
C447 C445 1.419 . S
C447 C448 1.363 . S
C447 H450 0.929 . S
C448 C447 1.363 . S
C448 C454 1.428 1_545 S
H449 C445 0.930 . S
H450 C447 0.929 . S
S451 N452 1.613 . S
S451 N453 1.610 . S
N452 S451 1.613 . S
N452 C455 1.350 . S
N453 S451 1.610 . S
N453 C454 1.351 . S
C454 C448 1.428 1_565 S
C454 N453 1.351 . S
C454 C455 1.434 . S
C455 C446 1.429 . S
C455 N452 1.350 . S
C455 C454 1.434 . S
C456 C457 1.369 . S
C456 C458 1.419 . S
C456 H460 0.930 . S
C457 C456 1.369 . S
C457 C466 1.429 . S
C458 C456 1.419 . S
C458 C459 1.363 1_556 S
C458 H461 0.929 1_556 S
C459 C458 1.363 1_554 S
C459 C465 1.428 1_554 S
H460 C456 0.930 . S
H461 C458 0.929 1_554 S
S462 N463 1.613 1_565 S
S462 N464 1.610 1_566 S
N463 S462 1.613 1_545 S
N463 C466 1.350 . S
N464 S462 1.610 1_544 S
N464 C465 1.351 1_554 S
C465 C459 1.428 1_556 S
C465 N464 1.351 1_556 S
C465 C466 1.434 . S
C466 C457 1.429 . S
C466 N463 1.350 . S
C466 C465 1.434 . S
C467 C468 1.369 . S
C467 C469 1.419 . S
C467 H471 0.930 . S
C468 C467 1.369 . S
C468 C477 1.429 . S
C469 C467 1.419 . S
C469 C470 1.363 . S
C469 H472 0.929 . S
C470 C469 1.363 . S
C470 C476 1.428 . S
H471 C467 0.930 . S
H472 C469 0.929 . S
S473 N474 1.613 . S
S473 N475 1.610 . S
N474 S473 1.613 . S
N474 C477 1.350 . S
N475 S473 1.610 . S
N475 C476 1.351 . S
C476 C470 1.428 . S
C476 N475 1.351 . S
C476 C477 1.434 . S
C477 C468 1.429 . S
C477 N474 1.350 . S
C477 C476 1.434 . S
C478 C479 1.369 . S
C478 C480 1.419 . S
C478 H482 0.930 . S
C479 C478 1.369 . S
C479 C488 1.429 . S
C480 C478 1.419 . S
C480 C481 1.363 . S
C480 H483 0.929 . S
C481 C480 1.363 . S
C481 C487 1.428 . S
H482 C478 0.930 . S
H483 C480 0.929 . S
S484 N485 1.613 . S
S484 N486 1.610 . S
N485 S484 1.613 . S
N485 C488 1.350 . S
N486 S484 1.610 . S
N486 C487 1.351 . S
C487 C481 1.428 . S
C487 N486 1.351 . S
C487 C488 1.434 . S
C488 C479 1.429 . S
C488 N485 1.350 . S
C488 C487 1.434 . S
C489 C490 1.369 . S
C489 C491 1.419 . S
C489 H493 0.930 . S
C490 C489 1.369 . S
C490 C499 1.429 . S
C491 C489 1.419 . S
C491 C492 1.363 . S
C491 H494 0.929 . S
C492 C491 1.363 . S
C492 C498 1.428 . S
H493 C489 0.930 . S
H494 C491 0.929 . S
S495 N496 1.613 . S
S495 N497 1.610 . S
N496 S495 1.613 . S
N496 C499 1.350 . S
N497 S495 1.610 . S
N497 C498 1.351 . S
C498 C492 1.428 . S
C498 N497 1.351 . S
C498 C499 1.434 . S
C499 C490 1.429 . S
C499 N496 1.350 . S
C499 C498 1.434 . S
C500 C501 1.369 . S
C500 C502 1.419 . S
C500 H504 0.930 . S
C501 C500 1.369 . S
C501 C510 1.429 . S
C502 C500 1.419 . S
C502 C503 1.363 1_554 S
C502 H505 0.938 . S
C503 C502 1.363 1_556 S
C503 C509 1.433 . S
H504 C500 0.930 . S
H505 C502 0.938 . S
S506 N507 1.613 . S
S506 N508 1.610 1_554 S
N507 S506 1.613 . S
N507 C510 1.350 . S
N508 S506 1.610 1_556 S
N508 C509 1.357 . S
C509 C503 1.433 . S
C509 N508 1.357 . S
C509 C510 1.423 1_556 S
C510 C501 1.429 . S
C510 N507 1.350 . S
C510 C509 1.423 1_554 S
C511 C512 1.369 . S
C511 C513 1.419 . S
C511 H515 0.930 . S
C512 C511 1.369 . S
C512 C521 1.429 . S
C513 C511 1.419 . S
C513 C514 1.363 . S
C513 H516 0.929 . S
C514 C513 1.363 . S
C514 C520 1.428 . S
H515 C511 0.930 . S
H516 C513 0.929 . S
S517 N518 1.613 . S
S517 N519 1.610 . S
N518 S517 1.613 . S
N518 C521 1.350 . S
N519 S517 1.610 . S
N519 C520 1.351 . S
C520 C514 1.428 . S
C520 N519 1.351 . S
C520 C521 1.434 . S
C521 C512 1.429 . S
C521 N518 1.350 . S
C521 C520 1.434 . S
C522 C523 1.369 . S
C522 C524 1.419 . S
C522 H526 0.930 . S
C523 C522 1.369 . S
C523 C532 1.429 . S
C524 C522 1.419 . S
C524 C525 1.363 . S
C524 H527 0.929 . S
C525 C524 1.363 . S
C525 C531 1.428 . S
H526 C522 0.930 . S
H527 C524 0.929 . S
S528 N529 1.613 1_565 S
S528 N530 1.610 1_565 S
N529 S528 1.613 1_545 S
N529 C532 1.350 . S
N530 S528 1.610 1_545 S
N530 C531 1.351 . S
C531 C525 1.428 . S
C531 N530 1.351 . S
C531 C532 1.434 . S
C532 C523 1.429 . S
C532 N529 1.350 . S
C532 C531 1.434 . S
C533 C534 1.369 . S
C533 C535 1.419 . S
C533 H537 0.930 . S
C534 C533 1.369 . S
C534 C543 1.429 . S
C535 C533 1.419 . S
C535 C536 1.363 . S
C535 H538 0.929 . S
C536 C535 1.363 . S
C536 C542 1.428 . S
H537 C533 0.930 . S
H538 C535 0.929 . S
S539 N540 1.613 . S
S539 N541 1.610 . S
N540 S539 1.613 . S
N540 C543 1.350 . S
N541 S539 1.610 . S
N541 C542 1.351 . S
C542 C536 1.428 . S
C542 N541 1.351 . S
C542 C543 1.434 . S
C543 C534 1.429 . S
C543 N540 1.350 . S
C543 C542 1.434 . S
C544 C545 1.369 . S
C544 C546 1.419 . S
C544 H548 0.930 . S
C545 C544 1.369 . S
C545 C554 1.429 . S
C546 C544 1.419 . S
C546 C547 1.363 . S
C546 H549 0.929 . S
C547 C546 1.363 . S
C547 C553 1.428 . S
H548 C544 0.930 . S
H549 C546 0.929 . S
S550 N551 1.613 . S
S550 N552 1.610 . S
N551 S550 1.613 . S
N551 C554 1.350 . S
N552 S550 1.610 . S
N552 C553 1.351 . S
C553 C547 1.428 . S
C553 N552 1.351 . S
C553 C554 1.434 . S
C554 C545 1.429 . S
C554 N551 1.350 . S
C554 C553 1.434 . S
C555 C556 1.369 . S
C555 C557 1.419 1_545 S
C555 H559 0.930 . S
C556 C555 1.369 . S
C556 C565 1.429 . S
C557 C555 1.419 1_565 S
C557 C558 1.363 . S
C557 H560 0.929 . S
C558 C557 1.363 . S
C558 C564 1.428 . S
H559 C555 0.930 . S
H560 C557 0.929 . S
S561 N562 1.613 . S
S561 N563 1.610 1_545 S
N562 S561 1.613 . S
N562 C565 1.350 . S
N563 S561 1.610 1_565 S
N563 C564 1.351 . S
C564 C558 1.428 . S
C564 N563 1.351 . S
C564 C565 1.434 1_565 S
C565 C556 1.429 . S
C565 N562 1.350 . S
C565 C564 1.434 1_545 S
C566 C567 1.369 1_556 S
C566 C568 1.419 . S
C566 H570 0.930 1_556 S
C567 C566 1.369 1_554 S
C567 C576 1.429 1_554 S
C568 C566 1.419 . S
C568 C569 1.363 . S
C568 H571 0.929 . S
C569 C568 1.363 . S
C569 C575 1.428 . S
H570 C566 0.930 1_554 S
H571 C568 0.929 . S
S572 N573 1.612 . S
S572 N574 1.610 . S
N573 S572 1.612 . S
N573 C576 1.350 . S
N574 S572 1.610 . S
N574 C575 1.351 . S
C575 C569 1.428 . S
C575 N574 1.351 . S
C575 C576 1.434 . S
C576 C567 1.429 1_556 S
C576 N573 1.350 . S
C576 C575 1.434 . S
C577 C578 1.369 . S
C577 C579 1.419 . S
C577 H581 0.930 . S
C578 C577 1.369 . S
C578 C587 1.429 1_545 S
C579 C577 1.419 . S
C579 C580 1.363 1_545 S
C579 H582 0.929 . S
C580 C579 1.363 1_565 S
C580 C586 1.428 . S
H581 C577 0.930 . S
H582 C579 0.929 . S
S583 N584 1.613 . S
S583 N585 1.610 . S
N584 S583 1.613 . S
N584 C587 1.350 . S
N585 S583 1.610 . S
N585 C586 1.351 . S
C586 C580 1.428 . S
C586 N585 1.351 . S
C586 C587 1.434 . S
C587 C578 1.429 1_565 S
C587 N584 1.350 . S
C587 C586 1.434 . S
C588 C589 1.369 . S
C588 C590 1.419 . S
C588 H592 0.930 . S
C589 C588 1.369 . S
C589 C598 1.429 . S
C590 C588 1.419 . S
C590 C591 1.363 . S
C590 H593 0.929 . S
C591 C590 1.363 . S
C591 C597 1.428 . S
H592 C588 0.930 . S
H593 C590 0.929 . S
S594 N595 1.613 . S
S594 N596 1.610 . S
N595 S594 1.613 . S
N595 C598 1.350 . S
N596 S594 1.610 . S
N596 C597 1.351 . S
C597 C591 1.428 . S
C597 N596 1.351 . S
C597 C598 1.434 . S
C598 C589 1.429 . S
C598 N595 1.350 . S
C598 C597 1.434 . S
C599 C600 1.369 . S
C599 C601 1.419 1_565 S
C599 H603 0.930 . S
C600 C599 1.369 . S
C600 C609 1.429 . S
C601 C599 1.419 1_545 S
C601 C602 1.363 . S
C601 H604 0.929 . S
C602 C601 1.363 . S
C602 C608 1.428 1_545 S
H603 C599 0.930 . S
H604 C601 0.929 . S
S605 N606 1.613 . S
S605 N607 1.610 . S
N606 S605 1.613 . S
N606 C609 1.350 . S
N607 S605 1.610 . S
N607 C608 1.351 . S
C608 C602 1.428 1_565 S
C608 N607 1.351 . S
C608 C609 1.434 . S
C609 C600 1.429 . S
C609 N606 1.350 . S
C609 C608 1.434 . S
C610 C611 1.369 . S
C610 C612 1.403 1_554 S
C610 H614 0.930 . S
C611 C610 1.369 . S
C611 C620 1.429 . S
C612 C610 1.403 1_556 S
C612 C613 1.369 . S
C612 H615 0.939 . S
C613 C612 1.369 . S
C613 C619 1.428 1_556 S
H614 C610 0.930 . S
H615 C612 0.939 . S
S616 N617 1.613 . S
S616 N618 1.610 . S
N617 S616 1.613 . S
N617 C620 1.350 . S
N618 S616 1.610 . S
N618 C619 1.351 . S
C619 C613 1.428 1_554 S
C619 N618 1.351 . S
C619 C620 1.434 . S
C620 C611 1.429 . S
C620 N617 1.350 . S
C620 C619 1.434 . S
C621 C622 1.369 . S
C621 C623 1.419 . S
C621 H625 0.930 . S
C622 C621 1.369 . S
C622 C631 1.429 1_545 S
C623 C621 1.419 . S
C623 C624 1.363 1_545 S
C623 H626 0.929 . S
C624 C623 1.363 1_565 S
C624 C630 1.428 . S
H625 C621 0.930 . S
H626 C623 0.929 . S
S627 N628 1.613 . S
S627 N629 1.610 . S
N628 S627 1.613 . S
N628 C631 1.350 . S
N629 S627 1.610 . S
N629 C630 1.351 . S
C630 C624 1.428 . S
C630 N629 1.351 . S
C630 C631 1.434 . S
C631 C622 1.429 1_565 S
C631 N628 1.350 . S
C631 C630 1.434 . S
C632 C633 1.369 . S
C632 C634 1.419 . S
C632 H636 0.930 . S
C633 C632 1.369 . S
C633 C642 1.429 . S
C634 C632 1.419 . S
C634 C635 1.363 . S
C634 H637 0.929 . S
C635 C634 1.363 . S
C635 C641 1.428 . S
H636 C632 0.930 . S
H637 C634 0.929 . S
S638 N639 1.613 . S
S638 N640 1.610 . S
N639 S638 1.613 . S
N639 C642 1.350 . S
N640 S638 1.610 . S
N640 C641 1.351 . S
C641 C635 1.428 . S
C641 N640 1.351 . S
C641 C642 1.434 . S
C642 C633 1.429 . S
C642 N639 1.350 . S
C642 C641 1.434 . S
C643 C644 1.369 . S
C643 C645 1.419 . S
C643 H647 0.930 . S
C644 C643 1.369 . S
C644 C653 1.429 . S
C645 C643 1.419 . S
C645 C646 1.363 . S
C645 H648 0.929 . S
C646 C645 1.363 . S
C646 C652 1.428 . S
H647 C643 0.930 . S
H648 C645 0.929 . S
S649 N650 1.613 . S
S649 N651 1.610 . S
N650 S649 1.613 . S
N650 C653 1.350 . S
N651 S649 1.610 . S
N651 C652 1.351 . S
C652 C646 1.428 . S
C652 N651 1.351 . S
C652 C653 1.434 . S
C653 C644 1.429 . S
C653 N650 1.350 . S
C653 C652 1.434 . S
C654 C655 1.369 . S
C654 C656 1.420 . S
C654 H658 0.930 . S
C655 C654 1.369 . S
C655 C664 1.429 1_655 S
C656 C654 1.420 . S
C656 C657 1.361 1_655 S
C656 H659 0.929 . S
C657 C656 1.361 1_455 S
C657 C663 1.428 . S
H658 C654 0.930 . S
H659 C656 0.929 . S
S660 N661 1.613 . S
S660 N662 1.610 . S
N661 S660 1.613 . S
N661 C664 1.350 . S
N662 S660 1.610 . S
N662 C663 1.351 . S
C663 C657 1.428 . S
C663 N662 1.351 . S
C663 C664 1.434 . S
C664 C655 1.429 1_455 S
C664 N661 1.350 . S
C664 C663 1.434 . S
C665 C666 1.369 1_455 S
C665 C667 1.419 . S
C665 H669 0.930 . S
C666 C665 1.369 1_655 S
C666 C675 1.429 . S
C667 C665 1.419 . S
C667 C668 1.363 . S
C667 H670 0.929 . S
C668 C667 1.363 . S
C668 C674 1.428 1_455 S
H669 C665 0.930 . S
H670 C667 0.929 . S
S671 N672 1.613 . S
S671 N673 1.610 . S
N672 S671 1.613 . S
N672 C675 1.350 . S
N673 S671 1.610 . S
N673 C674 1.351 . S
C674 C668 1.428 1_655 S
C674 N673 1.351 . S
C674 C675 1.434 . S
C675 C666 1.429 . S
C675 N672 1.350 . S
C675 C674 1.434 . S
C676 C677 1.369 . S
C676 C678 1.419 . S
C676 H680 0.930 . S
C677 C676 1.369 . S
C677 C686 1.429 . S
C678 C676 1.419 . S
C678 C679 1.363 . S
C678 H681 0.929 . S
C679 C678 1.363 . S
C679 C685 1.428 . S
H680 C676 0.930 . S
H681 C678 0.929 . S
S682 N683 1.613 . S
S682 N684 1.610 . S
N683 S682 1.613 . S
N683 C686 1.350 . S
N684 S682 1.610 . S
N684 C685 1.351 . S
C685 C679 1.428 . S
C685 N684 1.351 . S
C685 C686 1.434 . S
C686 C677 1.429 . S
C686 N683 1.350 . S
C686 C685 1.434 . S
C687 C688 1.369 . S
C687 C689 1.419 . S
C687 H691 0.930 . S
C688 C687 1.369 . S
C688 C697 1.429 . S
C689 C687 1.419 . S
C689 C690 1.363 . S
C689 H692 0.929 . S
C690 C689 1.363 . S
C690 C696 1.428 . S
H691 C687 0.930 . S
H692 C689 0.929 . S
S693 N694 1.613 . S
S693 N695 1.610 . S
N694 S693 1.613 . S
N694 C697 1.350 . S
N695 S693 1.610 . S
N695 C696 1.351 . S
C696 C690 1.428 . S
C696 N695 1.351 . S
C696 C697 1.434 . S
C697 C688 1.429 . S
C697 N694 1.350 . S
C697 C696 1.434 . S
C698 C699 1.369 . S
C698 C700 1.419 1_455 S
C698 H702 0.930 . S
C699 C698 1.369 . S
C699 C708 1.429 . S
C700 C698 1.419 1_655 S
C700 C701 1.363 . S
C700 H703 0.929 . S
C701 C700 1.363 . S
C701 C707 1.428 . S
H702 C698 0.930 . S
H703 C700 0.929 . S
S704 N705 1.603 1_655 S
S704 N706 1.610 . S
N705 S704 1.603 1_455 S
N705 C708 1.350 . S
N706 S704 1.610 . S
N706 C707 1.351 . S
C707 C701 1.428 . S
C707 N706 1.351 . S
C707 C708 1.434 1_655 S
C708 C699 1.429 . S
C708 N705 1.350 . S
C708 C707 1.434 1_455 S
C709 C710 1.369 . S
C709 C711 1.419 . S
C709 H713 0.930 . S
C710 C709 1.369 . S
C710 C719 1.429 1_455 S
C711 C709 1.419 . S
C711 C712 1.363 1_455 S
C711 H714 0.929 . S
C712 C711 1.363 1_655 S
C712 C718 1.428 . S
H713 C709 0.930 . S
H714 C711 0.929 . S
S715 N716 1.613 . S
S715 N717 1.610 . S
N716 S715 1.613 . S
N716 C719 1.350 . S
N717 S715 1.610 . S
N717 C718 1.351 . S
C718 C712 1.428 . S
C718 N717 1.351 . S
C718 C719 1.434 . S
C719 C710 1.429 1_655 S
C719 N716 1.350 . S
C719 C718 1.434 . S
C720 C721 1.369 . S
C720 C722 1.419 . S
C720 H724 0.930 . S
C721 C720 1.369 . S
C721 C730 1.429 . S
C722 C720 1.419 . S
C722 C723 1.363 . S
C722 H725 0.929 . S
C723 C722 1.363 . S
C723 C729 1.428 . S
H724 C720 0.930 . S
H725 C722 0.929 . S
S726 N727 1.613 . S
S726 N728 1.610 . S
N727 S726 1.613 . S
N727 C730 1.350 . S
N728 S726 1.610 . S
N728 C729 1.351 . S
C729 C723 1.428 . S
C729 N728 1.351 . S
C729 C730 1.434 . S
C730 C721 1.429 . S
C730 N727 1.350 . S
C730 C729 1.434 . S
C731 C732 1.369 . S
C731 C733 1.419 . S
C731 H735 0.930 . S
C732 C731 1.369 . S
C732 C741 1.429 . S
C733 C731 1.419 . S
C733 C734 1.363 . S
C733 H736 0.929 . S
C734 C733 1.363 . S
C734 C740 1.428 . S
H735 C731 0.930 . S
H736 C733 0.929 . S
S737 N738 1.613 . S
S737 N739 1.610 . S
N738 S737 1.613 . S
N738 C741 1.350 . S
N739 S737 1.610 . S
N739 C740 1.351 . S
C740 C734 1.428 . S
C740 N739 1.351 . S
C740 C741 1.434 . S
C741 C732 1.429 . S
C741 N738 1.350 . S
C741 C740 1.434 . S
C742 C743 1.369 . S
C742 C744 1.419 . S
C742 H746 0.930 . S
C743 C742 1.369 . S
C743 C752 1.429 . S
C744 C742 1.419 . S
C744 C745 1.363 . S
C744 H747 0.929 . S
C745 C744 1.363 . S
C745 C751 1.428 . S
H746 C742 0.930 . S
H747 C744 0.929 . S
S748 N749 1.613 . S
S748 N750 1.610 . S
N749 S748 1.613 . S
N749 C752 1.350 . S
N750 S748 1.610 . S
N750 C751 1.351 . S
C751 C745 1.428 . S
C751 N750 1.351 . S
C751 C752 1.434 . S
C752 C743 1.429 . S
C752 N749 1.350 . S
C752 C751 1.434 . S
C753 C754 1.369 . S
C753 C755 1.419 . S
C753 H757 0.930 . S
C754 C753 1.369 . S
C754 C763 1.429 . S
C755 C753 1.419 . S
C755 C756 1.363 . S
C755 H758 0.929 . S
C756 C755 1.363 . S
C756 C762 1.428 . S
H757 C753 0.930 . S
H758 C755 0.929 . S
S759 N760 1.613 . S
S759 N761 1.610 . S
N760 S759 1.613 . S
N760 C763 1.350 . S
N761 S759 1.610 . S
N761 C762 1.351 . S
C762 C756 1.428 . S
C762 N761 1.351 . S
C762 C763 1.434 . S
C763 C754 1.429 . S
C763 N760 1.350 . S
C763 C762 1.434 . S
C764 C765 1.369 . S
C764 C766 1.419 . S
C764 H768 0.930 . S
C765 C764 1.369 . S
C765 C774 1.429 . S
C766 C764 1.419 . S
C766 C767 1.363 . S
C766 H769 0.929 . S
C767 C766 1.363 . S
C767 C773 1.428 . S
H768 C764 0.930 . S
H769 C766 0.929 . S
S770 N771 1.613 . S
S770 N772 1.610 . S
N771 S770 1.613 . S
N771 C774 1.350 . S
N772 S770 1.610 . S
N772 C773 1.351 . S
C773 C767 1.428 . S
C773 N772 1.351 . S
C773 C774 1.434 . S
C774 C765 1.429 . S
C774 N771 1.350 . S
C774 C773 1.434 . S
C775 C776 1.369 . S
C775 C777 1.419 . S
C775 H779 0.930 . S
C776 C775 1.369 . S
C776 C785 1.429 . S
C777 C775 1.419 . S
C777 C778 1.363 . S
C777 H780 0.929 . S
C778 C777 1.363 . S
C778 C784 1.428 . S
H779 C775 0.930 . S
H780 C777 0.929 . S
S781 N782 1.613 . S
S781 N783 1.610 . S
N782 S781 1.613 . S
N782 C785 1.350 . S
N783 S781 1.610 . S
N783 C784 1.351 . S
C784 C778 1.428 . S
C784 N783 1.351 . S
C784 C785 1.434 . S
C785 C776 1.429 . S
C785 N782 1.350 . S
C785 C784 1.434 . S
C786 C787 1.369 . S
C786 C788 1.419 . S
C786 H790 0.930 . S
C787 C786 1.369 . S
C787 C796 1.429 . S
C788 C786 1.419 . S
C788 C789 1.363 . S
C788 H791 0.929 . S
C789 C788 1.363 . S
C789 C795 1.428 . S
H790 C786 0.930 . S
H791 C788 0.929 . S
S792 N793 1.613 . S
S792 N794 1.610 . S
N793 S792 1.613 . S
N793 C796 1.350 . S
N794 S792 1.610 . S
N794 C795 1.351 . S
C795 C789 1.428 . S
C795 N794 1.351 . S
C795 C796 1.434 . S
C796 C787 1.429 . S
C796 N793 1.350 . S
C796 C795 1.434 . S
C797 C798 1.369 . S
C797 C799 1.419 . S
C797 H801 0.930 . S
C798 C797 1.369 . S
C798 C807 1.429 . S
C799 C797 1.419 . S
C799 C800 1.363 . S
C799 H802 0.929 . S
C800 C799 1.363 . S
C800 C806 1.428 . S
H801 C797 0.930 . S
H802 C799 0.929 . S
S803 N804 1.613 . S
S803 N805 1.610 . S
N804 S803 1.613 . S
N804 C807 1.350 . S
N805 S803 1.610 . S
N805 C806 1.351 . S
C806 C800 1.428 . S
C806 N805 1.351 . S
C806 C807 1.434 . S
C807 C798 1.429 . S
C807 N804 1.350 . S
C807 C806 1.434 . S
C808 C809 1.369 . S
C808 C810 1.419 . S
C808 H812 0.930 . S
C809 C808 1.369 . S
C809 C818 1.429 . S
C810 C808 1.419 . S
C810 C811 1.363 . S
C810 H813 0.929 . S
C811 C810 1.363 . S
C811 C817 1.428 . S
H812 C808 0.930 . S
H813 C810 0.929 . S
S814 N815 1.613 . S
S814 N816 1.610 . S
N815 S814 1.613 . S
N815 C818 1.350 . S
N816 S814 1.610 . S
N816 C817 1.351 . S
C817 C811 1.428 . S
C817 N816 1.351 . S
C817 C818 1.434 . S
C818 C809 1.429 . S
C818 N815 1.350 . S
C818 C817 1.434 . S
C819 C820 1.369 . S
C819 C821 1.419 . S
C819 H823 0.930 . S
C820 C819 1.369 . S
C820 C829 1.429 . S
C821 C819 1.419 . S
C821 C822 1.363 . S
C821 H824 0.929 . S
C822 C821 1.363 . S
C822 C828 1.428 . S
H823 C819 0.930 . S
H824 C821 0.929 . S
S825 N826 1.613 1_545 S
S825 N827 1.610 . S
N826 S825 1.613 1_565 S
N826 C829 1.350 . S
N827 S825 1.610 . S
N827 C828 1.351 1_545 S
C828 C822 1.428 . S
C828 N827 1.351 1_565 S
C828 C829 1.434 . S
C829 C820 1.429 . S
C829 N826 1.350 . S
C829 C828 1.434 . S
C830 C831 1.369 . S
C830 C832 1.419 . S
C830 H834 0.930 . S
C831 C830 1.369 . S
C831 C840 1.429 . S
C832 C830 1.419 . S
C832 C833 1.363 . S
C832 H835 0.929 . S
C833 C832 1.363 . S
C833 C839 1.428 . S
H834 C830 0.930 . S
H835 C832 0.929 . S
S836 N837 1.613 . S
S836 N838 1.610 . S
N837 S836 1.613 . S
N837 C840 1.350 . S
N838 S836 1.610 . S
N838 C839 1.351 . S
C839 C833 1.428 . S
C839 N838 1.351 . S
C839 C840 1.434 . S
C840 C831 1.429 . S
C840 N837 1.350 . S
C840 C839 1.434 . S
C841 C842 1.369 . S
C841 C843 1.419 . S
C841 H845 0.930 . S
C842 C841 1.369 . S
C842 C851 1.429 1_545 S
C843 C841 1.419 . S
C843 C844 1.363 . S
C843 H846 0.929 . S
C844 C843 1.363 . S
C844 C850 1.428 . S
H845 C841 0.930 . S
H846 C843 0.929 . S
S847 N848 1.613 . S
S847 N849 1.610 . S
N848 S847 1.613 . S
N848 C851 1.350 . S
N849 S847 1.610 . S
N849 C850 1.351 1_565 S
C850 C844 1.428 . S
C850 N849 1.351 1_545 S
C850 C851 1.434 1_545 S
C851 C842 1.429 1_565 S
C851 N848 1.350 . S
C851 C850 1.434 1_565 S
C852 C853 1.369 . S
C852 C854 1.419 . S
C852 H856 0.930 . S
C853 C852 1.369 . S
C853 C862 1.429 . S
C854 C852 1.419 . S
C854 C855 1.363 . S
C854 H857 0.929 . S
C855 C854 1.363 . S
C855 C861 1.428 . S
H856 C852 0.930 . S
H857 C854 0.929 . S
S858 N859 1.613 . S
S858 N860 1.610 . S
N859 S858 1.613 . S
N859 C862 1.350 . S
N860 S858 1.610 . S
N860 C861 1.351 . S
C861 C855 1.428 . S
C861 N860 1.351 . S
C861 C862 1.434 . S
C862 C853 1.429 . S
C862 N859 1.350 . S
C862 C861 1.434 . S
C863 C864 1.369 . S
C863 C865 1.419 . S
C863 H867 0.930 . S
C864 C863 1.369 . S
C864 C873 1.429 1_545 S
C865 C863 1.419 . S
C865 C866 1.363 . S
C865 H868 0.929 . S
C866 C865 1.363 . S
C866 C872 1.428 . S
H867 C863 0.930 . S
H868 C865 0.929 . S
S869 N870 1.613 . S
S869 N871 1.610 . S
N870 S869 1.613 . S
N870 C873 1.350 . S
N871 S869 1.610 . S
N871 C872 1.351 1_565 S
C872 C866 1.428 . S
C872 N871 1.351 1_545 S
C872 C873 1.434 1_545 S
C873 C864 1.429 1_565 S
C873 N870 1.350 . S
C873 C872 1.434 1_565 S
C874 C875 1.369 . S
C874 C876 1.419 . S
C874 H878 0.930 . S
C875 C874 1.369 . S
C875 C884 1.429 . S
C876 C874 1.419 . S
C876 C877 1.363 . S
C876 H879 0.929 . S
C877 C876 1.363 . S
C877 C883 1.428 . S
H878 C874 0.930 . S
H879 C876 0.929 . S
S880 N881 1.613 . S
S880 N882 1.610 . S
N881 S880 1.613 . S
N881 C884 1.350 . S
N882 S880 1.610 . S
N882 C883 1.351 . S
C883 C877 1.428 . S
C883 N882 1.351 . S
C883 C884 1.434 . S
C884 C875 1.429 . S
C884 N881 1.350 . S
C884 C883 1.434 . S
C885 C886 1.369 . S
C885 C887 1.427 . S
C885 H889 0.930 . S
C886 C885 1.369 . S
C886 C895 1.429 . S
C887 C885 1.427 . S
C887 C888 1.372 . S
C887 H890 0.911 1_565 S
C888 C887 1.372 . S
C888 C894 1.428 . S
H889 C885 0.930 . S
H890 C887 0.911 1_545 S
S891 N892 1.613 . S
S891 N893 1.610 . S
N892 S891 1.613 . S
N892 C895 1.350 . S
N893 S891 1.610 . S
N893 C894 1.351 . S
C894 C888 1.428 . S
C894 N893 1.351 . S
C894 C895 1.434 . S
C895 C886 1.429 . S
C895 N892 1.350 . S
C895 C894 1.434 . S
C369 C16 1.158 . S
C371 C292 1.153 . S
C380 C131 1.162 . S
C382 C39 1.151 . S
C391 C62 1.156 . S
C393 C338 1.156 . S
C402 C85 1.155 . S
C404 C177 1.155 . S
C413 C108 1.161 . S
C415 C200 1.151 . S
C424 C246 1.161 . S
C426 C154 1.151 . S
C435 C315 1.149 . S
C437 C223 1.160 . S
C446 C269 1.162 . S
C448 C361 1.151 . S
C457 C225 1.765 . S
C459 C17 1.668 . S
C468 C40 1.663 . S
C470 C248 1.765 . S
C479 C63 1.669 . S
C481 C271 1.767 . S
C490 C202 1.767 . S
C492 C86 1.671 . S
C501 C317 1.766 . S
C503 C109 1.663 . S
C512 C340 1.767 . S
C514 C132 1.666 . S
C523 C155 1.670 . S
C525 C363 1.766 . S
C534 C294 1.767 . S
C536 C178 1.666 . S
C545 C201 1.666 . S
C547 C41 1.765 . S
C556 C224 1.662 . S
C558 C64 1.766 . S
C567 C247 1.672 . S
C569 C87 1.766 . S
C578 C18 1.767 . S
C580 C270 1.670 . S
C589 C133 1.767 . S
C591 C293 1.665 . S
C600 C316 1.668 . S
C602 C156 1.767 . S
C611 C179 1.766 . S
C613 C339 1.671 . S
C622 C362 1.662 . S
C624 C110 1.765 . S
C633 C20 1.434 . S
C635 C250 1.428 . S
C644 C43 1.434 . S
C646 C273 1.428 . S
C655 C204 1.432 . S
C657 C66 1.429 . S
C666 C89 1.431 . S
C668 C227 1.429 . S
C677 C112 1.438 . S
C679 C342 1.429 . S
C688 C135 1.438 . S
C690 C365 1.431 . S
C699 C296 1.437 . S
C701 C158 1.434 . S
C710 C181 1.427 . S
C712 C319 1.434 . S
C721 C21 1.375 . S
C723 C180 1.333 . S
C732 C295 1.324 . S
C734 C44 1.377 . S
C743 C67 1.378 . S
C745 C134 1.326 . S
C754 C90 1.376 . S
C756 C341 1.331 . S
C765 C113 1.373 . S
C767 C88 1.330 . S
C776 C203 1.331 . S
C778 C136 1.373 . S
C787 C159 1.376 . S
C789 C42 1.332 . S
C798 C249 1.326 . S
C800 C182 1.375 . S
C809 C205 1.373 . S
C811 C364 1.332 . S
C820 C111 1.324 . S
C822 C228 1.378 . S
C831 C318 1.324 . S
C833 C251 1.378 . S
C842 C274 1.376 . S
C844 C157 1.331 . S
C853 C297 1.378 . S
C855 C272 1.327 . S
C864 C320 1.378 . S
C866 C19 1.328 . S
C875 C226 1.324 . S
C877 C343 1.378 . S
C886 C65 1.328 . S
C888 C366 1.374 . S
