# Generated by pormake.
# Topology upa, (4)-cn, num edge types: 1
# Building blocks:
#     Node 0, Type 0, BuildingBlock: UXUYUI_clean_sbu_0, # of connection points: 4
#     Node 1, Type 0, BuildingBlock: UXUYUI_clean_sbu_0, # of connection points: 4
#     Node 2, Type 0, BuildingBlock: UXUYUI_clean_sbu_0, # of connection points: 4
#     Node 3, Type 0, BuildingBlock: UXUYUI_clean_sbu_0, # of connection points: 4
#     Node 4, Type 0, BuildingBlock: UXUYUI_clean_sbu_0, # of connection points: 4
#     Node 5, Type 0, BuildingBlock: UXUYUI_clean_sbu_0, # of connection points: 4
#     Node 6, Type 0, BuildingBlock: UXUYUI_clean_sbu_0, # of connection points: 4
#     Node 7, Type 0, BuildingBlock: UXUYUI_clean_sbu_0, # of connection points: 4
#     Edge 8, Type (0, 0), BuildingBlock: EZIPEK_clean_linker_0, # of connection points: 2
#     Edge 9, Type (0, 0), BuildingBlock: EZIPEK_clean_linker_0, # of connection points: 2
#     Edge 10, Type (0, 0), BuildingBlock: EZIPEK_clean_linker_0, # of connection points: 2
#     Edge 11, Type (0, 0), BuildingBlock: EZIPEK_clean_linker_0, # of connection points: 2
#     Edge 12, Type (0, 0), BuildingBlock: EZIPEK_clean_linker_0, # of connection points: 2
#     Edge 13, Type (0, 0), BuildingBlock: EZIPEK_clean_linker_0, # of connection points: 2
#     Edge 14, Type (0, 0), BuildingBlock: EZIPEK_clean_linker_0, # of connection points: 2
#     Edge 15, Type (0, 0), BuildingBlock: EZIPEK_clean_linker_0, # of connection points: 2
#     Edge 16, Type (0, 0), BuildingBlock: EZIPEK_clean_linker_0, # of connection points: 2
#     Edge 17, Type (0, 0), BuildingBlock: EZIPEK_clean_linker_0, # of connection points: 2
#     Edge 18, Type (0, 0), BuildingBlock: EZIPEK_clean_linker_0, # of connection points: 2
#     Edge 19, Type (0, 0), BuildingBlock: EZIPEK_clean_linker_0, # of connection points: 2
#     Edge 20, Type (0, 0), BuildingBlock: EZIPEK_clean_linker_0, # of connection points: 2
#     Edge 21, Type (0, 0), BuildingBlock: EZIPEK_clean_linker_0, # of connection points: 2
#     Edge 22, Type (0, 0), BuildingBlock: EZIPEK_clean_linker_0, # of connection points: 2
#     Edge 23, Type (0, 0), BuildingBlock: EZIPEK_clean_linker_0, # of connection points: 2
# Relax obj value: 0.344
# Max RMSD: 0.248
# Mean RMSD: 0.248
data_MOF--net-upa--node1-UXUYUI_clean_sbu_0--edge1-EZIPEK_clean_linker_0
_symmetry_space_group_name_H-M    P1
_symmetry_Int_Tables_number       1
_symmetry_cell_setting            triclinic
loop_
_symmetry_equiv_pos_as_xyz
'x, y, z'
_cell_length_a     31.531615
_cell_length_b     31.329587
_cell_length_c     51.348614
_cell_angle_alpha  89.913939
_cell_angle_beta   90.077836
_cell_angle_gamma 90.020183
loop_
_atom_site_label
_atom_site_type_symbol
_atom_site_fract_x
_atom_site_fract_y
_atom_site_fract_z
_atom_type_partial_charge
Li0 Li 0.16015 0.2394 0.32425 0.0
Li1 Li 0.19813 0.22481 0.36753 0.0
Li2 Li 0.23451 0.21159 0.32452 0.0
Li3 Li 0.17439 0.16891 0.3383 0.0
C4 C 0.20545 0.30971 0.34441 0.0
N5 N 0.19015 0.39446 0.35582 0.0
C6 C 0.17573 0.32064 0.36341 0.0
C7 C 0.22732 0.34185 0.33114 0.0
C8 C 0.16848 0.36367 0.36893 0.0
C9 C 0.21913 0.38453 0.33719 0.0
C10 C 0.10637 0.19251 0.3675 0.0
C11 C 0.07726 0.14455 0.39961 0.0
N12 N 0.03794 0.1506 0.3893 0.0
C13 C 0.06565 0.19848 0.35733 0.0
C14 C 0.11225 0.16545 0.38886 0.0
C15 C 0.03148 0.17688 0.36857 0.0
C16 C 0.09518 0.2428 0.28745 0.0
N17 N 0.11279 0.26698 0.30667 0.0
C18 C 0.05231 0.31357 0.30593 0.0
C19 C 0.0924 0.30231 0.31577 0.0
C20 C 0.03319 0.28793 0.2868 0.0
C21 C 0.05549 0.25284 0.27715 0.0
H22 H 0.11053 0.21392 0.28111 0.0
H23 H 0.10583 0.32034 0.33165 0.0
C24 C 0.24692 0.2397 0.41311 0.0
N25 N 0.20693 0.24023 0.40335 0.0
C26 C 0.25423 0.24764 0.43957 0.0
C27 C 0.1791 0.25505 0.44569 0.0
C28 C 0.17319 0.24703 0.41916 0.0
C29 C 0.22038 0.25848 0.45648 0.0
H30 H 0.27314 0.23163 0.40047 0.0
H31 H 0.14142 0.24514 0.41132 0.0
C32 C 0.19408 0.20555 0.2784 0.0
N33 N 0.21188 0.23189 0.22821 0.0
C34 C 0.194 0.17609 0.25799 0.0
C35 C 0.20324 0.24842 0.27329 0.0
C36 C 0.20306 0.19004 0.23275 0.0
C37 C 0.21214 0.2611 0.24778 0.0
C38 C 0.24052 0.13486 0.36556 0.0
C39 C 0.25852 0.10405 0.34933 0.0
C40 C 0.23349 0.12546 0.39182 0.0
C41 C 0.26892 0.06409 0.35964 0.0
C42 C 0.24431 0.08513 0.40138 0.0
N43 N 0.26164 0.05553 0.38523 0.0
C44 C 0.31469 0.24688 0.31024 0.0
C45 C 0.30068 0.17841 0.29266 0.0
C46 C 0.35436 0.24792 0.29802 0.0
N47 N 0.2888 0.21245 0.30738 0.0
C48 C 0.34029 0.17788 0.28037 0.0
C49 C 0.36759 0.21303 0.28293 0.0
H50 H 0.30456 0.27352 0.32206 0.0
H51 H 0.27935 0.15164 0.29042 0.0
C52 C 0.10804 0.12501 0.32066 0.0
N53 N 0.1425 0.11722 0.33584 0.0
C54 C 0.07474 0.09606 0.31956 0.0
C55 C 0.11483 0.0487 0.34747 0.0
C56 C 0.14681 0.0797 0.34899 0.0
C57 C 0.07762 0.05755 0.3333 0.0
H58 H 0.10524 0.15527 0.31072 0.0
H59 H 0.17388 0.07431 0.3614 0.0
O60 O 0.21345 0.2678 0.33886 0.0
O61 O 0.14028 0.21299 0.35653 0.0
O62 O 0.18609 0.19199 0.30327 0.0
O63 O 0.23092 0.17442 0.35597 0.0
H64 H 0.1579 0.29625 0.37348 0.0
H65 H 0.25034 0.3339 0.3163 0.0
H66 H 0.14545 0.37258 0.38354 0.0
H67 H 0.23583 0.40975 0.32708 0.0
H68 H 0.08137 0.12337 0.41607 0.0
H69 H 0.06055 0.21928 0.34082 0.0
H70 H 0.14355 0.16043 0.39692 0.0
H71 H 0.99985 0.181 0.36079 0.0
H72 H 0.03558 0.34068 0.31398 0.0
H73 H 0.04142 0.23217 0.26261 0.0
H74 H 0.28628 0.24331 0.44639 0.0
H75 H 0.15077 0.25664 0.45735 0.0
H76 H 0.18715 0.14276 0.26167 0.0
H77 H 0.20348 0.27173 0.28877 0.0
H78 H 0.20316 0.16757 0.21677 0.0
H79 H 0.21929 0.29416 0.24355 0.0
H80 H 0.26419 0.11082 0.32899 0.0
H81 H 0.21995 0.14906 0.40472 0.0
H82 H 0.28273 0.03987 0.34729 0.0
H83 H 0.23898 0.07738 0.42165 0.0
H84 H 0.37464 0.27557 0.30038 0.0
H85 H 0.34947 0.15048 0.26884 0.0
H86 H 0.04655 0.10405 0.30849 0.0
H87 H 0.11809 0.01912 0.35822 0.0
Li88 Li 0.29421 0.72882 0.82338 0.0
Li89 Li 0.28282 0.70159 0.86592 0.0
Li90 Li 0.33588 0.66834 0.83766 0.0
Li91 Li 0.26038 0.65439 0.82853 0.0
C92 C 0.35262 0.76664 0.85073 0.0
N93 N 0.38376 0.84874 0.84601 0.0
C94 C 0.33194 0.80057 0.86297 0.0
C95 C 0.38933 0.77442 0.83626 0.0
C96 C 0.34814 0.84186 0.86032 0.0
C97 C 0.40449 0.81617 0.83404 0.0
C98 C 0.20182 0.71824 0.85366 0.0
C99 C 0.13478 0.6929 0.87013 0.0
N100 N 0.1299 0.73007 0.88346 0.0
C101 C 0.19612 0.75624 0.86746 0.0
C102 C 0.17092 0.68632 0.85494 0.0
C103 C 0.15955 0.76158 0.88244 0.0
C104 C 0.31703 0.78597 0.7811 0.0
N105 N 0.29381 0.78168 0.8033 0.0
C106 C 0.273 0.85522 0.80087 0.0
C107 C 0.27137 0.81521 0.81298 0.0
C108 C 0.29767 0.86071 0.77842 0.0
C109 C 0.31949 0.82544 0.76831 0.0
H110 H 0.33403 0.759 0.77337 0.0
H111 H 0.25302 0.81121 0.83053 0.0
C112 C 0.30774 0.73036 0.91541 0.0
N113 N 0.2738 0.7135 0.90261 0.0
C114 C 0.30694 0.73566 0.9424 0.0
C115 C 0.23613 0.7063 0.94294 0.0
C116 C 0.23845 0.70113 0.91587 0.0
C117 C 0.27095 0.72331 0.95644 0.0
H118 H 0.33624 0.73823 0.9048 0.0
H119 H 0.21265 0.68582 0.90568 0.0
C120 C 0.33474 0.65694 0.78769 0.0
N121 N 0.39537 0.61893 0.75652 0.0
C122 C 0.32773 0.61632 0.77736 0.0
C123 C 0.3727 0.67817 0.78219 0.0
C124 C 0.35872 0.59764 0.76164 0.0
C125 C 0.40292 0.65846 0.76639 0.0
C126 C 0.29992 0.62321 0.88382 0.0
C127 C 0.33913 0.62863 0.89612 0.0
C128 C 0.26759 0.60093 0.89656 0.0
C129 C 0.34567 0.61077 0.92074 0.0
C130 C 0.27538 0.58356 0.92117 0.0
N131 N 0.31399 0.58864 0.9326 0.0
C132 C 0.42567 0.64292 0.83401 0.0
C133 C 0.37155 0.59041 0.83645 0.0
C134 C 0.45655 0.61097 0.83173 0.0
N135 N 0.38407 0.63193 0.83617 0.0
C136 C 0.40113 0.55779 0.83494 0.0
C137 C 0.4441 0.56786 0.83235 0.0
H138 H 0.43472 0.67619 0.83355 0.0
H139 H 0.33824 0.58256 0.83753 0.0
C140 C 0.21146 0.6062 0.79061 0.0
N141 N 0.2301 0.60584 0.81457 0.0
C142 C 0.20252 0.56759 0.7778 0.0
C143 C 0.22976 0.52934 0.81509 0.0
C144 C 0.2383 0.56838 0.82707 0.0
C145 C 0.21302 0.52867 0.78985 0.0
H146 H 0.20674 0.63622 0.78059 0.0
H147 H 0.25467 0.56855 0.8455 0.0
O148 O 0.33678 0.72609 0.85273 0.0
O149 O 0.23713 0.71242 0.83866 0.0
O150 O 0.30516 0.67525 0.8037 0.0
O151 O 0.29296 0.64023 0.85961 0.0
H152 H 0.30325 0.7952 0.87405 0.0
H153 H 0.4059 0.74855 0.8268 0.0
H154 H 0.33227 0.86845 0.86952 0.0
H155 H 0.43274 0.82269 0.82278 0.0
H156 H 0.11064 0.66844 0.87135 0.0
H157 H 0.21991 0.78108 0.86696 0.0
H158 H 0.17482 0.65676 0.84434 0.0
H159 H 0.15482 0.7907 0.89335 0.0
H160 H 0.25556 0.88175 0.80908 0.0
H161 H 0.33846 0.82855 0.75084 0.0
H162 H 0.33457 0.74825 0.95233 0.0
H163 H 0.20817 0.69573 0.95335 0.0
H164 H 0.29887 0.59925 0.78161 0.0
H165 H 0.37929 0.70907 0.79054 0.0
H166 H 0.35373 0.56615 0.75359 0.0
H167 H 0.43253 0.67445 0.76215 0.0
H168 H 0.3642 0.64666 0.88685 0.0
H169 H 0.2367 0.59732 0.88761 0.0
H170 H 0.3759 0.61458 0.93044 0.0
H171 H 0.2507 0.56613 0.93122 0.0
H172 H 0.48962 0.61962 0.82957 0.0
H173 H 0.39052 0.52489 0.83531 0.0
H174 H 0.19005 0.56811 0.75814 0.0
H175 H 0.23868 0.49994 0.82478 0.0
Li176 Li 0.84118 0.76785 0.31849 0.0
Li177 Li 0.80442 0.78202 0.36152 0.0
Li178 Li 0.76916 0.79811 0.31772 0.0
Li179 Li 0.8297 0.83912 0.3327 0.0
C180 C 0.79593 0.69991 0.32669 0.0
N181 N 0.81616 0.6167 0.31423 0.0
C182 C 0.8085 0.67146 0.34621 0.0
C183 C 0.79348 0.68612 0.30087 0.0
C184 C 0.81859 0.62948 0.3395 0.0
C185 C 0.80393 0.6439 0.29496 0.0
C186 C 0.89828 0.81086 0.36122 0.0
C187 C 0.93287 0.85274 0.39443 0.0
N188 N 0.97061 0.84721 0.3821 0.0
C189 C 0.9375 0.80529 0.34901 0.0
C190 C 0.89598 0.83458 0.3842 0.0
C191 C 0.97365 0.82406 0.3598 0.0
C192 C 0.90186 0.75901 0.2801 0.0
N193 N 0.88613 0.73775 0.30111 0.0
C194 C 0.94725 0.69227 0.30196 0.0
C195 C 0.90759 0.70438 0.31191 0.0
C196 C 0.96511 0.71561 0.2813 0.0
C197 C 0.94143 0.74846 0.26988 0.0
H198 H 0.88516 0.78632 0.27241 0.0
H199 H 0.89547 0.68912 0.32926 0.0
C200 C 0.75719 0.76956 0.40799 0.0
N201 N 0.79591 0.76496 0.39688 0.0
C202 C 0.75128 0.76026 0.43441 0.0
C203 C 0.82537 0.74301 0.43767 0.0
C204 C 0.82981 0.75231 0.41119 0.0
C205 C 0.78503 0.74419 0.44985 0.0
H206 H 0.7311 0.78183 0.3965 0.0
H207 H 0.86076 0.75077 0.4022 0.0
C208 C 0.80601 0.84319 0.27846 0.0
N209 N 0.77753 0.89788 0.23995 0.0
C210 C 0.79082 0.88367 0.28494 0.0
C211 C 0.8069 0.83058 0.25237 0.0
C212 C 0.77653 0.91085 0.26521 0.0
C213 C 0.79231 0.85866 0.23319 0.0
C214 C 0.76303 0.87145 0.36219 0.0
C215 C 0.73813 0.90206 0.34954 0.0
C216 C 0.77624 0.87858 0.38781 0.0
C217 C 0.72781 0.9398 0.36252 0.0
C218 C 0.7652 0.9167 0.40015 0.0
N219 N 0.74149 0.94631 0.38733 0.0
C220 C 0.68097 0.81403 0.31464 0.0
C221 C 0.71017 0.78666 0.27557 0.0
C222 C 0.64062 0.81585 0.30333 0.0
N223 N 0.71476 0.79971 0.3007 0.0
C224 C 0.67038 0.78817 0.26344 0.0
C225 C 0.63503 0.80277 0.27745 0.0
H226 H 0.68532 0.82378 0.33466 0.0
H227 H 0.73733 0.7748 0.265 0.0
C228 C 0.89752 0.88261 0.31618 0.0
N229 N 0.86303 0.88981 0.33137 0.0
C230 C 0.93124 0.91114 0.31607 0.0
C231 C 0.89125 0.95709 0.34479 0.0
C232 C 0.85877 0.92656 0.34521 0.0
C233 C 0.92865 0.94863 0.33079 0.0
H234 H 0.89993 0.85312 0.30537 0.0
H235 H 0.83116 0.93165 0.35719 0.0
O236 O 0.78651 0.74124 0.33279 0.0
O237 O 0.8624 0.79314 0.35073 0.0
O238 O 0.81957 0.81569 0.29747 0.0
O239 O 0.77308 0.83407 0.3499 0.0
H240 H 0.81063 0.68179 0.36628 0.0
H241 H 0.78394 0.70792 0.28557 0.0
H242 H 0.82849 0.60708 0.35437 0.0
H243 H 0.80238 0.63278 0.27504 0.0
H244 H 0.93147 0.87134 0.41214 0.0
H245 H 0.93994 0.78721 0.33118 0.0
H246 H 0.86606 0.83902 0.39401 0.0
H247 H 0.00411 0.82029 0.35041 0.0
H248 H 0.96495 0.66686 0.31128 0.0
H249 H 0.95437 0.76713 0.25399 0.0
H250 H 0.72056 0.76749 0.44252 0.0
H251 H 0.85434 0.73692 0.44809 0.0
H252 H 0.79016 0.89407 0.30494 0.0
H253 H 0.81833 0.79922 0.24701 0.0
H254 H 0.76465 0.94226 0.26999 0.0
H255 H 0.79264 0.84923 0.21293 0.0
H256 H 0.72669 0.8967 0.32994 0.0
H257 H 0.79465 0.85493 0.39814 0.0
H258 H 0.70877 0.96385 0.3529 0.0
H259 H 0.77541 0.9227 0.41993 0.0
H260 H 0.61394 0.827 0.31471 0.0
H261 H 0.66704 0.77758 0.24348 0.0
H262 H 0.9595 0.90359 0.30502 0.0
H263 H 0.88816 0.98599 0.35617 0.0
Li264 Li 0.74073 0.34574 0.82195 0.0
Li265 Li 0.66625 0.32804 0.83036 0.0
Li266 Li 0.72475 0.30425 0.86138 0.0
Li267 Li 0.71694 0.27077 0.82029 0.0
C268 C 0.71672 0.40327 0.85714 0.0
N269 N 0.74037 0.48695 0.86594 0.0
C270 C 0.68853 0.43652 0.85168 0.0
C271 C 0.75697 0.41258 0.86703 0.0
C272 C 0.70106 0.47862 0.85626 0.0
C273 C 0.76834 0.45509 0.87134 0.0
C274 C 0.71294 0.31443 0.77335 0.0
C275 C 0.70104 0.31164 0.72698 0.0
N276 N 0.74311 0.30431 0.72324 0.0
C277 C 0.75606 0.30689 0.76906 0.0
C278 C 0.68518 0.31687 0.75216 0.0
C279 C 0.77069 0.30186 0.74358 0.0
C280 C 0.80469 0.41211 0.8048 0.0
N281 N 0.7647 0.39551 0.80499 0.0
C282 C 0.73812 0.45594 0.7816 0.0
C283 C 0.73198 0.41659 0.79348 0.0
C284 C 0.77849 0.47429 0.78138 0.0
C285 C 0.81238 0.45195 0.7929 0.0
H286 H 0.83029 0.39523 0.81425 0.0
H287 H 0.70047 0.40332 0.79432 0.0
C288 C 0.5875 0.36 0.84798 0.0
N289 N 0.6137 0.35587 0.82714 0.0
C290 C 0.55637 0.39176 0.84802 0.0
C291 C 0.57937 0.41321 0.80499 0.0
C292 C 0.60919 0.38046 0.80549 0.0
C293 C 0.55352 0.41994 0.82677 0.0
H294 H 0.59279 0.34079 0.8652 0.0
H295 H 0.63099 0.37688 0.78945 0.0
C296 C 0.80292 0.28339 0.85222 0.0
N297 N 0.86613 0.26281 0.8874 0.0
C298 C 0.80068 0.2454 0.86648 0.0
C299 C 0.83741 0.31078 0.85576 0.0
C300 C 0.83289 0.23561 0.88421 0.0
C301 C 0.86904 0.29983 0.87364 0.0
C302 C 0.65332 0.23479 0.84505 0.0
C303 C 0.67031 0.19723 0.85542 0.0
C304 C 0.61576 0.23325 0.83062 0.0
C305 C 0.64951 0.15854 0.85097 0.0
C306 C 0.59589 0.19392 0.82663 0.0
N307 N 0.61304 0.15771 0.8368 0.0
C308 C 0.70291 0.27335 0.91084 0.0
C309 C 0.7657 0.31487 0.91206 0.0
C310 C 0.70366 0.26859 0.93789 0.0
N311 N 0.73346 0.29638 0.89844 0.0
C312 C 0.76781 0.31068 0.93921 0.0
C313 C 0.73616 0.28772 0.95234 0.0
H314 H 0.67716 0.25956 0.89982 0.0
H315 H 0.78942 0.33347 0.90202 0.0
C316 C 0.6883 0.20964 0.78358 0.0
N317 N 0.71904 0.21716 0.80166 0.0
C318 C 0.68622 0.1704 0.7707 0.0
C319 C 0.74745 0.14707 0.79519 0.0
C320 C 0.74864 0.18697 0.80742 0.0
C321 C 0.7158 0.13843 0.77667 0.0
H322 H 0.66482 0.23389 0.77952 0.0
H323 H 0.7728 0.19356 0.82177 0.0
O324 O 0.70533 0.36192 0.85221 0.0
O325 O 0.69775 0.31945 0.79811 0.0
O326 O 0.77167 0.29358 0.83479 0.0
O327 O 0.67347 0.27291 0.84886 0.0
H328 H 0.65746 0.42993 0.84377 0.0
H329 H 0.77949 0.38733 0.87081 0.0
H330 H 0.67958 0.50466 0.85206 0.0
H331 H 0.79949 0.46277 0.87884 0.0
H332 H 0.6799 0.31338 0.7104 0.0
H333 H 0.7781 0.30504 0.78515 0.0
H334 H 0.65168 0.32254 0.75515 0.0
H335 H 0.80398 0.29603 0.73997 0.0
H336 H 0.71128 0.47238 0.773 0.0
H337 H 0.84399 0.46545 0.79307 0.0
H338 H 0.53678 0.39624 0.86511 0.0
H339 H 0.57792 0.43442 0.78833 0.0
H340 H 0.77396 0.22407 0.86423 0.0
H341 H 0.83964 0.34026 0.84491 0.0
H342 H 0.83138 0.2065 0.89552 0.0
H343 H 0.89585 0.32082 0.87663 0.0
H344 H 0.69938 0.19793 0.86664 0.0
H345 H 0.6023 0.26208 0.82242 0.0
H346 H 0.6624 0.12916 0.85874 0.0
H347 H 0.5669 0.19217 0.8154 0.0
H348 H 0.6786 0.25097 0.94752 0.0
H349 H 0.79315 0.3261 0.94991 0.0
H350 H 0.66143 0.16479 0.75648 0.0
H351 H 0.77084 0.1231 0.80018 0.0
Li352 Li 0.67634 0.34953 0.18381 0.0
Li353 Li 0.73236 0.29964 0.20031 0.0
Li354 Li 0.70035 0.29422 0.15472 0.0
Li355 Li 0.6578 0.27754 0.193 0.0
C356 C 0.74514 0.38368 0.16881 0.0
N357 N 0.76306 0.46995 0.16672 0.0
C358 C 0.76839 0.40296 0.18877 0.0
C359 C 0.73101 0.40826 0.14777 0.0
C360 C 0.77715 0.44662 0.18735 0.0
C361 C 0.74037 0.45183 0.14708 0.0
C362 C 0.66455 0.30845 0.24119 0.0
C363 C 0.66562 0.26347 0.27934 0.0
N364 N 0.62935 0.28233 0.28782 0.0
C365 C 0.62728 0.32742 0.25029 0.0
C366 C 0.68391 0.27624 0.25583 0.0
C367 C 0.60996 0.31373 0.2739 0.0
C368 C 0.62901 0.41946 0.16644 0.0
N369 N 0.65164 0.40438 0.18701 0.0
C370 C 0.61831 0.45402 0.21566 0.0
C371 C 0.64827 0.42207 0.21109 0.0
C372 C 0.59241 0.46774 0.19509 0.0
C373 C 0.59915 0.45164 0.17004 0.0
H374 H 0.63188 0.40446 0.14767 0.0
H375 H 0.6663 0.40898 0.22715 0.0
C376 C 0.81762 0.27491 0.20843 0.0
N377 N 0.7845 0.29584 0.21957 0.0
C378 C 0.85746 0.27471 0.22048 0.0
C379 C 0.82837 0.31723 0.25539 0.0
C380 C 0.78907 0.31667 0.24266 0.0
C381 C 0.86313 0.29632 0.24413 0.0
H382 H 0.81325 0.25908 0.18991 0.0
H383 H 0.76244 0.33373 0.25086 0.0
C384 C 0.62 0.29907 0.14046 0.0
N385 N 0.57669 0.27394 0.09616 0.0
C386 C 0.59672 0.26105 0.14035 0.0
C387 C 0.62143 0.32411 0.11788 0.0
C388 C 0.57502 0.24895 0.1178 0.0
C389 C 0.59925 0.31093 0.09574 0.0
C390 C 0.70377 0.20624 0.18781 0.0
C391 C 0.67657 0.18119 0.17271 0.0
C392 C 0.72372 0.18848 0.20959 0.0
C393 C 0.66931 0.13878 0.17988 0.0
C394 C 0.71567 0.14593 0.21611 0.0
N395 N 0.68882 0.12218 0.20126 0.0
C396 C 0.74194 0.31047 0.10713 0.0
C397 C 0.69457 0.25189 0.10465 0.0
C398 C 0.74874 0.30904 0.08027 0.0
N399 N 0.71422 0.28305 0.11867 0.0
C400 C 0.70035 0.2494 0.07764 0.0
C401 C 0.72697 0.27892 0.06519 0.0
H402 H 0.75785 0.33443 0.11865 0.0
H403 H 0.67291 0.23022 0.11417 0.0
C404 C 0.5739 0.27708 0.20596 0.0
N405 N 0.60795 0.25057 0.20807 0.0
C406 C 0.53546 0.26703 0.21784 0.0
C407 C 0.56678 0.20161 0.23366 0.0
C408 C 0.60517 0.21332 0.22171 0.0
C409 C 0.53156 0.22908 0.23205 0.0
H410 H 0.57706 0.30705 0.19567 0.0
H411 H 0.63277 0.19331 0.22403 0.0
O412 O 0.7354 0.34118 0.17016 0.0
O413 O 0.68168 0.32087 0.2179 0.0
O414 O 0.64135 0.31169 0.16242 0.0
O415 O 0.71157 0.24768 0.181 0.0
H416 H 0.7794 0.38449 0.20524 0.0
H417 H 0.71245 0.39398 0.13233 0.0
H418 H 0.79507 0.46197 0.20268 0.0
H419 H 0.72945 0.47127 0.13099 0.0
H420 H 0.68023 0.2385 0.29083 0.0
H421 H 0.61149 0.35198 0.23908 0.0
H422 H 0.71263 0.26112 0.24905 0.0
H423 H 0.58098 0.32791 0.28108 0.0
H424 H 0.61354 0.46593 0.23523 0.0
H425 H 0.5794 0.46166 0.15386 0.0
H426 H 0.88372 0.25832 0.21131 0.0
H427 H 0.83183 0.33427 0.27361 0.0
H428 H 0.59561 0.24076 0.15734 0.0
H429 H 0.64024 0.35292 0.11719 0.0
H430 H 0.55695 0.2196 0.11749 0.0
H431 H 0.60017 0.32998 0.07817 0.0
H432 H 0.66114 0.19437 0.1557 0.0
H433 H 0.74536 0.20727 0.22125 0.0
H434 H 0.64816 0.11906 0.16845 0.0
H435 H 0.73079 0.13177 0.23295 0.0
H436 H 0.76962 0.33214 0.07121 0.0
H437 H 0.68308 0.22577 0.06648 0.0
H438 H 0.50911 0.28908 0.2163 0.0
H439 H 0.56487 0.17211 0.24462 0.0
Li440 Li 0.21842 0.22896 0.69796 0.0
Li441 Li 0.22973 0.19575 0.65469 0.0
Li442 Li 0.17949 0.16565 0.68395 0.0
Li443 Li 0.2527 0.15274 0.69377 0.0
C444 C 0.14038 0.24039 0.66237 0.0
N445 N 0.06238 0.27516 0.64983 0.0
C446 C 0.12514 0.2383 0.6368 0.0
C447 C 0.11633 0.26111 0.68138 0.0
C448 C 0.08553 0.25581 0.6309 0.0
C449 C 0.07688 0.27821 0.67471 0.0
C450 C 0.30485 0.22392 0.66479 0.0
C451 C 0.35904 0.20777 0.63324 0.0
N452 N 0.36303 0.25014 0.62794 0.0
C453 C 0.30954 0.2673 0.65913 0.0
C454 C 0.32982 0.19386 0.65185 0.0
C455 C 0.33913 0.27992 0.64041 0.0
C456 C 0.21995 0.28599 0.74198 0.0
N457 N 0.21693 0.283 0.7156 0.0
C458 C 0.20954 0.35888 0.71189 0.0
C459 C 0.21174 0.31839 0.70052 0.0
C460 C 0.21248 0.36286 0.73901 0.0
C461 C 0.21767 0.32591 0.75418 0.0
H462 H 0.22404 0.25738 0.75354 0.0
H463 H 0.20929 0.31509 0.6796 0.0
C464 C 0.24949 0.18161 0.60051 0.0
N465 N 0.24004 0.21118 0.61902 0.0
C466 C 0.2497 0.19302 0.57413 0.0
C467 C 0.23335 0.26557 0.58654 0.0
C468 C 0.23279 0.25266 0.61258 0.0
C469 C 0.24071 0.23531 0.56695 0.0
H470 H 0.25518 0.14883 0.60614 0.0
H471 H 0.22503 0.27542 0.62766 0.0
C472 C 0.17874 0.16465 0.73666 0.0
N473 N 0.11871 0.1435 0.77375 0.0
C474 C 0.17896 0.12418 0.74823 0.0
C475 C 0.14842 0.19455 0.74439 0.0
C476 C 0.14821 0.11402 0.76679 0.0
C477 C 0.11825 0.18323 0.76306 0.0
C478 C 0.20035 0.10665 0.64687 0.0
C479 C 0.17259 0.12164 0.62772 0.0
C480 C 0.20514 0.06263 0.65046 0.0
C481 C 0.15028 0.09251 0.61236 0.0
C482 C 0.18219 0.03448 0.63475 0.0
N483 N 0.15553 0.04988 0.61615 0.0
C484 C 0.08946 0.14277 0.67832 0.0
C485 C 0.1382 0.09193 0.69499 0.0
C486 C 0.05719 0.11206 0.6783 0.0
N487 N 0.12918 0.13198 0.68636 0.0
C488 C 0.10718 0.0605 0.69533 0.0
C489 C 0.06642 0.07035 0.68657 0.0
H490 H 0.083 0.17451 0.67117 0.0
H491 H 0.17027 0.0839 0.70057 0.0
C492 C 0.28782 0.10476 0.73528 0.0
N493 N 0.28661 0.10829 0.70888 0.0
C494 C 0.29659 0.06533 0.74698 0.0
C495 C 0.30696 0.03513 0.70418 0.0
C496 C 0.29807 0.07515 0.69331 0.0
C497 C 0.30427 0.0296 0.73125 0.0
H498 H 0.27784 0.13136 0.74721 0.0
H499 H 0.29648 0.07871 0.67238 0.0
O500 O 0.17931 0.22382 0.66848 0.0
O501 O 0.27495 0.21076 0.68227 0.0
O502 O 0.20833 0.1752 0.71818 0.0
O503 O 0.22207 0.13491 0.6623 0.0
H504 H 0.14376 0.22376 0.62157 0.0
H505 H 0.1281 0.26437 0.70101 0.0
H506 H 0.07331 0.25421 0.61123 0.0
H507 H 0.05788 0.29412 0.68929 0.0
H508 H 0.37843 0.18488 0.62294 0.0
H509 H 0.29021 0.29089 0.66889 0.0
H510 H 0.32625 0.16013 0.65591 0.0
H511 H 0.34298 0.31336 0.63571 0.0
H512 H 0.20575 0.38684 0.69967 0.0
H513 H 0.22032 0.32803 0.77517 0.0
H514 H 0.25564 0.16898 0.55945 0.0
H515 H 0.2264 0.29847 0.58162 0.0
H516 H 0.20204 0.10046 0.74261 0.0
H517 H 0.14829 0.22625 0.73619 0.0
H518 H 0.14776 0.08264 0.77562 0.0
H519 H 0.09452 0.20609 0.76911 0.0
H520 H 0.16823 0.15543 0.62481 0.0
H521 H 0.22574 0.0502 0.66548 0.0
H522 H 0.1287 0.1038 0.59747 0.0
H523 H 0.18547 1.00038 0.63742 0.0
H524 H 0.02583 0.12031 0.6713 0.0
H525 H 0.11521 0.02846 0.70159 0.0
H526 H 0.29415 0.06202 0.76792 0.0
H527 H 0.31277 0.00813 0.69153 0.0
Li528 Li 0.27279 0.71133 0.20291 0.0
Li529 Li 0.3353 0.67173 0.1915 0.0
Li530 Li 0.34116 0.74662 0.20064 0.0
Li531 Li 0.30675 0.7219 0.15876 0.0
C532 C 0.30564 0.69271 0.24818 0.0
N533 N 0.26733 0.67624 0.29552 0.0
C534 C 0.30413 0.65104 0.25792 0.0
C535 C 0.28792 0.72602 0.26261 0.0
C536 C 0.28461 0.64338 0.28189 0.0
C537 C 0.26857 0.71704 0.28645 0.0
C538 C 0.27655 0.62711 0.16777 0.0
C539 C 0.27593 0.56971 0.1365 0.0
N540 N 0.27192 0.54107 0.15627 0.0
C541 C 0.27234 0.5971 0.18776 0.0
C542 C 0.27836 0.61333 0.1419 0.0
C543 C 0.27012 0.55375 0.18157 0.0
C544 C 0.19165 0.74395 0.21679 0.0
N545 N 0.21749 0.70937 0.2192 0.0
C546 C 0.16378 0.67181 0.24304 0.0
C547 C 0.20415 0.67353 0.23183 0.0
C548 C 0.13651 0.70691 0.24065 0.0
C549 C 0.15075 0.74335 0.22736 0.0
H550 H 0.20266 0.77189 0.20642 0.0
H551 H 0.22474 0.64616 0.23323 0.0
C552 C 0.39629 0.62586 0.21793 0.0
N553 N 0.37181 0.62361 0.19612 0.0
C554 C 0.43081 0.59861 0.22117 0.0
C555 C 0.41436 0.56678 0.17949 0.0
C556 C 0.37975 0.59434 0.17719 0.0
C557 C 0.44079 0.56966 0.2014 0.0
H558 H 0.39052 0.65052 0.23218 0.0
H559 H 0.36109 0.59416 0.15956 0.0
C560 C 0.29529 0.80899 0.18671 0.0
N561 N 0.3168 0.89396 0.19223 0.0
C562 C 0.31622 0.8304 0.16659 0.0
C563 C 0.28518 0.83076 0.2096 0.0
C564 C 0.32686 0.87337 0.16977 0.0
C565 C 0.29634 0.87373 0.21203 0.0
C566 C 0.39758 0.69698 0.15741 0.0
C567 C 0.43932 0.70188 0.16608 0.0
C568 C 0.38938 0.67298 0.13503 0.0
C569 C 0.47229 0.68341 0.15187 0.0
C570 C 0.42317 0.65453 0.12156 0.0
N571 N 0.4636 0.6602 0.13014 0.0
C572 C 0.39179 0.77845 0.24128 0.0
C573 C 0.41403 0.79967 0.19912 0.0
C574 C 0.43155 0.78856 0.25162 0.0
N575 N 0.38432 0.78259 0.21529 0.0
C576 C 0.4544 0.81005 0.20866 0.0
C577 C 0.4639 0.80267 0.235 0.0
H578 H 0.36841 0.7635 0.2536 0.0
H579 H 0.40797 0.80106 0.17839 0.0
C580 C 0.2588 0.71886 0.11239 0.0
N581 N 0.2966 0.73191 0.12242 0.0
C582 C 0.2517 0.71996 0.08552 0.0
C583 C 0.32164 0.7502 0.07985 0.0
C584 C 0.32749 0.74833 0.10685 0.0
C585 C 0.28369 0.73507 0.06897 0.0
H586 H 0.23482 0.70591 0.12522 0.0
H587 H 0.35726 0.7585 0.11531 0.0
O588 O 0.32412 0.70084 0.22458 0.0
O589 O 0.27879 0.66969 0.17348 0.0
O590 O 0.28581 0.76662 0.18427 0.0
O591 O 0.36497 0.7161 0.17053 0.0
H592 H 0.31745 0.62479 0.247 0.0
H593 H 0.28874 0.75842 0.25534 0.0
H594 H 0.28303 0.61127 0.28961 0.0
H595 H 0.25446 0.74248 0.29772 0.0
H596 H 0.2774 0.55861 0.11658 0.0
H597 H 0.27153 0.60708 0.20787 0.0
H598 H 0.28192 0.63595 0.12615 0.0
H599 H 0.26711 0.53019 0.19687 0.0
H600 H 0.1537 0.64324 0.2532 0.0
H601 H 0.13042 0.77099 0.22523 0.0
H602 H 0.45089 0.60165 0.2382 0.0
H603 H 0.42159 0.5448 0.16385 0.0
H604 H 0.32453 0.81389 0.14884 0.0
H605 H 0.26894 0.81463 0.22534 0.0
H606 H 0.34323 0.89032 0.1544 0.0
H607 H 0.2888 0.89098 0.22965 0.0
H608 H 0.44627 0.71983 0.18353 0.0
H609 H 0.35725 0.66822 0.12828 0.0
H610 H 0.50479 0.68734 0.15819 0.0
H611 H 0.41723 0.63576 0.10428 0.0
H612 H 0.43802 0.78223 0.27199 0.0
H613 H 0.47887 0.82046 0.1953 0.0
H614 H 0.22214 0.70795 0.07764 0.0
H615 H 0.34696 0.76189 0.06751 0.0
Li616 Li 0.75755 0.85128 0.6855 0.0
Li617 Li 0.83099 0.83895 0.67574 0.0
Li618 Li 0.77968 0.80863 0.64767 0.0
Li619 Li 0.79154 0.77587 0.69039 0.0
C620 C 0.80681 0.88875 0.63282 0.0
N621 N 0.84399 0.92681 0.58991 0.0
C622 C 0.84058 0.86887 0.62008 0.0
C623 C 0.79221 0.92825 0.62382 0.0
C624 C 0.85888 0.88852 0.59841 0.0
C625 C 0.81134 0.94691 0.60207 0.0
C626 C 0.83014 0.84632 0.72776 0.0
C627 C 0.88681 0.83722 0.7589 0.0
N628 N 0.88712 0.88004 0.76319 0.0
C629 C 0.83058 0.89017 0.73283 0.0
C630 C 0.85813 0.81955 0.74117 0.0
C631 C 0.85979 0.90664 0.75065 0.0
C632 C 0.7231 0.89659 0.72791 0.0
N633 N 0.72455 0.89527 0.70143 0.0
C634 C 0.7065 0.9693 0.69878 0.0
C635 C 0.71464 0.93008 0.68679 0.0
C636 C 0.70891 0.97245 0.72601 0.0
C637 C 0.7154 0.93523 0.7407 0.0
H638 H 0.73222 0.86876 0.73908 0.0
H639 H 0.71654 0.92825 0.66583 0.0
C640 C 0.92225 0.85934 0.67805 0.0
N641 N 0.88122 0.8728 0.67783 0.0
C642 C 0.9552 0.88924 0.67958 0.0
C643 C 0.9029 0.94568 0.68073 0.0
C644 C 0.87129 0.91501 0.67909 0.0
C645 C 0.94525 0.93285 0.68093 0.0
H646 H 0.92953 0.82574 0.67702 0.0
H647 H 0.83848 0.92494 0.67909 0.0
C648 C 0.70522 0.78054 0.65729 0.0
N649 N 0.64761 0.75428 0.62008 0.0
C650 C 0.70142 0.73726 0.6512 0.0
C651 C 0.67963 0.81048 0.6446 0.0
C652 C 0.6721 0.72462 0.63229 0.0
C653 C 0.65071 0.79655 0.6258 0.0
C654 C 0.8702 0.76185 0.65982 0.0
C655 C 0.89086 0.75721 0.6359 0.0
C656 C 0.88931 0.74622 0.68246 0.0
C657 C 0.93076 0.73787 0.63517 0.0
C658 C 0.9292 0.72701 0.68093 0.0
N659 N 0.94896 0.72334 0.65751 0.0
C660 C 0.75586 0.82056 0.59351 0.0
C661 C 0.77961 0.75163 0.60585 0.0
C662 C 0.75538 0.80861 0.56725 0.0
N663 N 0.76903 0.79243 0.61208 0.0
C664 C 0.77865 0.73809 0.57996 0.0
C665 C 0.76765 0.76713 0.56026 0.0
H666 H 0.74713 0.85269 0.59893 0.0
H667 H 0.79003 0.72995 0.62097 0.0
C668 C 0.7849 0.72044 0.73487 0.0
N669 N 0.79086 0.72249 0.70874 0.0
C670 C 0.78172 0.6808 0.7474 0.0
C671 C 0.79402 0.64634 0.70645 0.0
C672 C 0.797 0.68646 0.69464 0.0
C673 C 0.78162 0.64231 0.73286 0.0
H674 H 0.78262 0.74961 0.74603 0.0
H675 H 0.80417 0.68889 0.67409 0.0
O676 O 0.78863 0.87021 0.6543 0.0
O677 O 0.80224 0.82966 0.70997 0.0
O678 O 0.73483 0.79377 0.67496 0.0
O679 O 0.83088 0.78026 0.66082 0.0
H680 H 0.85267 0.83873 0.62692 0.0
H681 H 0.76642 0.94444 0.6335 0.0
H682 H 0.88499 0.87336 0.58839 0.0
H683 H 0.80027 0.97741 0.59489 0.0
H684 H 0.90877 0.81685 0.76931 0.0
H685 H 0.80921 0.91151 0.72274 0.0
H686 H 0.85757 0.78547 0.73811 0.0
H687 H 0.86082 0.94058 0.75445 0.0
H688 H 0.70153 0.99748 0.68692 0.0
H689 H 0.7176 0.93667 0.76173 0.0
H690 H 0.98788 0.87864 0.6797 0.0
H691 H 0.89442 0.97915 0.68179 0.0
H692 H 0.72123 0.71377 0.66076 0.0
H693 H 0.68253 0.84415 0.649 0.0
H694 H 0.66895 0.69126 0.62725 0.0
H695 H 0.63087 0.81936 0.61569 0.0
H696 H 0.87617 0.76817 0.61805 0.0
H697 H 0.87353 0.74879 0.701 0.0
H698 H 0.94717 0.73425 0.61682 0.0
H699 H 0.94441 0.71497 0.69834 0.0
H700 H 0.74645 0.83168 0.5525 0.0
H701 H 0.78804 0.70577 0.57522 0.0
H702 H 0.78007 0.68135 0.76835 0.0
H703 H 0.80181 0.61909 0.69457 0.0
C704 C 0.01999 0.01653 0.35675 0.0
C705 C 0.04075 0.02777 0.33316 0.0
C706 C 0.98348 0.99395 0.30847 0.0
C707 C 0.96598 0.97772 0.33192 0.0
N708 N 0.97465 0.96527 0.37816 0.0
N709 N 0.04726 0.01743 0.28672 0.0
C710 C 0.98622 0.98658 0.35605 0.0
C711 C 0.024 0.01351 0.30903 0.0
N712 N 0.03098 0.03565 0.37968 0.0
N713 N 0.96091 0.992 0.28577 0.0
H714 H 0.07797 0.02983 0.28653 0.0
H715 H 0.03788 0.00407 0.26905 0.0
H716 H 0.93021 0.97965 0.28478 0.0
H717 H 0.97083 0.00684 0.26865 0.0
H718 H 0.01374 0.03149 0.3968 0.0
H719 H 0.05442 0.05895 0.38107 0.0
H720 H 0.99146 0.96772 0.39559 0.0
H721 H 0.95121 0.94184 0.37847 0.0
C722 C 0.5054 0.52484 0.84976 0.0
C723 C 0.47515 0.53251 0.82984 0.0
C724 C 0.49327 0.46429 0.80947 0.0
C725 C 0.52618 0.45851 0.828 0.0
N726 N 0.57052 0.48915 0.86163 0.0
N727 N 0.44763 0.51475 0.78733 0.0
C728 C 0.53437 0.49053 0.84694 0.0
C729 C 0.4714 0.50381 0.80859 0.0
N730 N 0.50538 0.54896 0.87192 0.0
N731 N 0.48173 0.43153 0.79341 0.0
H732 H 0.43214 0.54406 0.78572 0.0
H733 H 0.44692 0.49675 0.77029 0.0
H734 H 0.49619 0.4016 0.79399 0.0
H735 H 0.45516 0.43271 0.78135 0.0
H736 H 0.52381 0.54156 0.88817 0.0
H737 H 0.48423 0.57397 0.87507 0.0
H738 H 0.57998 0.51406 0.87375 0.0
H739 H 0.59327 0.46524 0.85977 0.0
C740 C 0.51502 0.47444 0.20496 0.0
C741 C 0.55464 0.49452 0.20008 0.0
C742 C 0.52008 0.56431 0.19763 0.0
C743 C 0.48045 0.5443 0.20274 0.0
N744 N 0.44091 0.48262 0.21667 0.0
N745 N 0.59688 0.55823 0.19665 0.0
C746 C 0.47816 0.49997 0.20805 0.0
C747 C 0.55778 0.53945 0.19802 0.0
N748 N 0.51252 0.43085 0.20587 0.0
N749 N 0.52142 0.60671 0.19134 0.0
H750 H 0.62501 0.54072 0.19637 0.0
H751 H 0.60179 0.59102 0.19785 0.0
H752 H 0.49474 0.62629 0.1916 0.0
H753 H 0.54834 0.62212 0.18435 0.0
H754 H 0.48404 0.41406 0.20609 0.0
H755 H 0.53905 0.41103 0.20492 0.0
H756 H 0.43806 0.45143 0.22346 0.0
H757 H 0.41332 0.50053 0.21912 0.0
C758 C 0.01412 0.02153 0.7079 0.0
C759 C 0.0345 0.03585 0.68489 0.0
C760 C 0.99682 0.982 0.65918 0.0
C761 C 0.97861 0.96591 0.68244 0.0
N762 N 0.97379 0.96555 0.72927 0.0
N763 N 0.05087 0.02637 0.63937 0.0
C764 C 0.98845 0.98428 0.70694 0.0
C765 C 0.02741 0.01516 0.6607 0.0
N766 N 0.01849 0.04429 0.73046 0.0
N767 N 0.98381 0.96649 0.63559 0.0
H768 H 0.07279 0.05129 0.63951 0.0
H769 H 0.05089 0.00917 0.62204 0.0
H770 H 0.96239 0.94129 0.63371 0.0
H771 H 0.99199 0.98035 0.61786 0.0
H772 H 1.00111 0.0382 0.74727 0.0
H773 H 0.03722 0.07166 0.73182 0.0
H774 H 0.9832 0.97469 0.74788 0.0
H775 H 0.95464 0.93838 0.7292 0.0
C776 C 0.19299 0.27348 0.5028 0.0
C777 C 0.22744 0.26725 0.48551 0.0
C778 C 0.27326 0.25327 0.52332 0.0
C779 C 0.23661 0.24777 0.53904 0.0
N780 N 0.16029 0.25258 0.54327 0.0
N781 N 0.30107 0.2871 0.48459 0.0
C782 C 0.1961 0.25822 0.52873 0.0
C783 C 0.26843 0.26712 0.49703 0.0
N784 N 0.16056 0.29995 0.49591 0.0
N785 N 0.31261 0.24536 0.53334 0.0
H786 H 0.29604 0.30461 0.46754 0.0
H787 H 0.33089 0.2916 0.49292 0.0
H788 H 0.31768 0.23742 0.55284 0.0
H789 H 0.3398 0.24434 0.52184 0.0
H790 H 0.13646 0.30869 0.50873 0.0
H791 H 0.16157 0.31774 0.4787 0.0
H792 H 0.12995 0.25632 0.53547 0.0
H793 H 0.16076 0.24073 0.56226 0.0
C794 C 0.2843 0.68957 1.00011 0.0
C795 C 0.27129 0.72573 0.98542 0.0
C796 C 0.26238 0.76687 0.02579 0.0
C797 C 0.27877 0.73186 0.0402 0.0
N798 N 0.3095 0.66142 0.04139 0.0
N799 N 0.25099 0.79977 0.98345 0.0
C800 C 0.29074 0.69355 0.02744 0.0
C801 C 0.26106 0.76467 0.99806 0.0
N802 N 0.28994 0.65123 0.9879 0.0
N803 N 0.24732 0.80184 0.03873 0.0
H804 H 0.24792 0.7988 0.96322 0.0
H805 H 0.24797 0.83038 0.99105 0.0
H806 H 0.24877 0.80484 0.05895 0.0
H807 H 0.23085 0.82661 0.02977 0.0
H808 H 0.2947 0.62252 0.99768 0.0
H809 H 0.28676 0.64742 0.96784 0.0
H810 H 0.3236 0.63481 0.03294 0.0
H811 H 0.3137 0.66257 0.06153 0.0
C812 C 0.73388 0.74785 0.5171 0.0
C813 C 0.77097 0.75433 0.53238 0.0
C814 C 0.81378 0.72885 0.49591 0.0
C815 C 0.77893 0.73474 0.47887 0.0
N816 N 0.70499 0.71636 0.47778 0.0
N817 N 0.84764 0.75192 0.53548 0.0
C818 C 0.73816 0.73479 0.49062 0.0
C819 C 0.81134 0.74486 0.52161 0.0
N820 N 0.69472 0.75436 0.5277 0.0
N821 N 0.84554 0.70142 0.4894 0.0
H822 H 0.84778 0.76482 0.55419 0.0
H823 H 0.87766 0.74837 0.52723 0.0
H824 H 0.84322 0.68196 0.47296 0.0
H825 H 0.86998 0.69332 0.5022 0.0
H826 H 0.667 0.75509 0.51664 0.0
H827 H 0.69017 0.7612 0.54737 0.0
H828 H 0.67519 0.71166 0.48602 0.0
H829 H 0.70932 0.70074 0.46002 0.0
C830 C 0.75659 0.25264 0.99476 0.0
C831 C 0.73517 0.28591 0.98131 0.0
C832 C 0.70585 0.31214 0.02257 0.0
C833 C 0.72958 0.28072 0.03623 0.0
N834 N 0.78165 0.2245 0.03616 0.0
N835 N 0.69436 0.35094 0.98225 0.0
C836 C 0.75609 0.25184 0.02254 0.0
C837 C 0.71123 0.31672 0.9952 0.0
N838 N 0.77657 0.22132 0.98092 0.0
N839 N 0.67709 0.33669 0.03569 0.0
H840 H 0.69675 0.35493 0.96214 0.0
H841 H 0.68081 0.37708 0.99156 0.0
H842 H 0.67261 0.33474 0.05578 0.0
H843 H 0.65527 0.35664 0.02654 0.0
H844 H 0.7887 0.1936 0.98927 0.0
H845 H 0.77866 0.22166 0.96064 0.0
H846 H 0.80505 0.2058 0.02759 0.0
H847 H 0.78154 0.22264 0.05645 0.0
C848 C 0.48747 0.22075 0.27298 0.0
C849 C 0.49048 0.21941 0.24538 0.0
C850 C 0.4128 0.21495 0.24229 0.0
C851 C 0.40999 0.21344 0.26988 0.0
N852 N 0.44534 0.20475 0.31123 0.0
N853 N 0.4569 0.20504 0.20412 0.0
C854 C 0.44759 0.21322 0.28516 0.0
C855 C 0.45334 0.21327 0.23016 0.0
N856 N 0.52217 0.23128 0.2876 0.0
N857 N 0.37692 0.2201 0.22764 0.0
H858 H 0.48613 0.2029 0.19471 0.0
H859 H 0.43131 0.19616 0.19248 0.0
H860 H 0.34669 0.22236 0.23571 0.0
H861 H 0.37748 0.22605 0.20768 0.0
H862 H 0.52065 0.23768 0.30748 0.0
H863 H 0.55193 0.23711 0.27957 0.0
H864 H 0.472 0.19985 0.32286 0.0
H865 H 0.41682 0.19849 0.32078 0.0
C866 C 0.33716 0.92903 0.76856 0.0
C867 C 0.30028 0.90339 0.76551 0.0
C868 C 0.26552 0.96139 0.74135 0.0
C869 C 0.30345 0.98583 0.74275 0.0
N870 N 0.37725 0.99111 0.75432 0.0
N871 N 0.23225 0.89185 0.74527 0.0
C872 C 0.33986 0.96909 0.75539 0.0
C873 C 0.26527 0.91866 0.75082 0.0
N874 N 0.36897 0.91575 0.78477 0.0
N875 N 0.22924 0.97954 0.73175 0.0
H876 H 0.23089 0.8604 0.75191 0.0
H877 H 0.20801 0.89946 0.73228 0.0
H878 H 0.22802 0.01056 0.72438 0.0
H879 H 0.19952 0.9652 0.73299 0.0
H880 H 0.39452 0.93488 0.79014 0.0
H881 H 0.36831 0.88652 0.7945 0.0
H882 H 0.4061 0.97871 0.76067 0.0
H883 H 0.38006 0.02076 0.7452 0.0
C884 C 0.57044 0.76387 0.26091 0.0
C885 C 0.59189 0.80304 0.26539 0.0
C886 C 0.52894 0.8426 0.25045 0.0
C887 C 0.50866 0.80339 0.24445 0.0
N888 N 0.51331 0.72708 0.23868 0.0
N889 N 0.59484 0.87947 0.26019 0.0
C890 C 0.53043 0.76412 0.24809 0.0
C891 C 0.57205 0.8424 0.25893 0.0
N892 N 0.58744 0.72648 0.26989 0.0
N893 N 0.5066 0.87987 0.24877 0.0
H894 H 0.62645 0.88048 0.26619 0.0
H895 H 0.58372 0.90862 0.25323 0.0
H896 H 0.4753 0.88118 0.24219 0.0
H897 H 0.51792 0.909 0.25561 0.0
H898 H 0.57109 0.69759 0.26983 0.0
H899 H 0.61652 0.72484 0.27954 0.0
H900 H 0.52974 0.69826 0.23814 0.0
H901 H 0.48406 0.7258 0.2292 0.0
C902 C 0.67936 0.06773 0.76879 0.0
C903 C 0.71364 0.09597 0.76354 0.0
C904 C 0.74645 0.04152 0.73578 0.0
C905 C 0.7101 0.01514 0.73885 0.0
N906 N 0.63909 0.00563 0.75508 0.0
N907 N 0.7757 0.11291 0.7381 0.0
C908 C 0.67569 0.02898 0.75446 0.0
C909 C 0.74605 0.08374 0.74591 0.0
N910 N 0.65124 0.07714 0.78818 0.0
N911 N 0.78206 0.02572 0.72407 0.0
H912 H 0.7762 0.14433 0.74479 0.0
H913 H 0.79731 0.10715 0.72319 0.0
H914 H 0.78403 0.99479 0.71668 0.0
H915 H 0.81095 0.04184 0.72386 0.0
H916 H 0.62827 0.05584 0.79477 0.0
H917 H 0.65325 0.10483 0.79934 0.0
H918 H 0.61128 0.01631 0.76383 0.0
H919 H 0.63541 0.97705 0.74492 0.0
C920 C 0.95571 0.27008 0.28958 0.0
C921 C 0.98853 0.29488 0.27817 0.0
C922 C 0.93722 0.32597 0.24749 0.0
C923 C 0.9057 0.29738 0.25683 0.0
N924 N 0.88529 0.23955 0.28517 0.0
N925 N 0.01201 0.34435 0.24529 0.0
C926 C 0.91495 0.26891 0.2776 0.0
C927 C 0.97962 0.32253 0.25696 0.0
N928 N 0.9635 0.24804 0.31209 0.0
N929 N 0.92631 0.35691 0.22991 0.0
H930 H 0.04309 0.3437 0.25228 0.0
H931 H 0.00875 0.36104 0.22786 0.0
H932 H 0.89569 0.36007 0.22242 0.0
H933 H 0.94653 0.38151 0.22428 0.0
H934 H 0.94005 0.2328 0.32291 0.0
H935 H 0.99302 0.248 0.32127 0.0
H936 H 0.89159 0.21463 0.29803 0.0
H937 H 0.8549 0.23817 0.27718 0.0
C938 C 0.17307 0.42408 0.75983 0.0
C939 C 0.21198 0.40591 0.75139 0.0
C940 C 0.24993 0.47079 0.76471 0.0
C941 C 0.21171 0.48745 0.77525 0.0
N942 N 0.13766 0.47885 0.78532 0.0
N943 N 0.28815 0.4093 0.7482 0.0
C944 C 0.17339 0.46386 0.77338 0.0
C945 C 0.25061 0.4286 0.75446 0.0
N946 N 0.13579 0.40357 0.75447 0.0
N947 N 0.28544 0.49582 0.76394 0.0
H948 H 0.28991 0.37898 0.73991 0.0
H949 H 0.31775 0.42188 0.75287 0.0
H950 H 0.28634 0.5266 0.77153 0.0
H951 H 0.31298 0.48764 0.75397 0.0
H952 H 0.10604 0.41702 0.75751 0.0
H953 H 0.13453 0.37394 0.74526 0.0
H954 H 0.10988 0.46121 0.78731 0.0
H955 H 0.1366 0.50825 0.79483 0.0
C956 C 0.0854 0.72694 0.2762 0.0
C957 C 0.09313 0.70577 0.25222 0.0
C958 C 0.01749 0.68715 0.24866 0.0
C959 C 0.0097 0.70847 0.27257 0.0
N960 N 0.03594 0.74435 0.31087 0.0
N961 N 0.06869 0.66129 0.217 0.0
C962 C 0.04368 0.72693 0.28692 0.0
C963 C 0.05976 0.6844 0.23891 0.0
N964 N 0.11796 0.74792 0.28835 0.0
N965 N 0.98407 0.67058 0.23497 0.0
H966 H 0.09872 0.66034 0.20855 0.0
H967 H 0.04718 0.64115 0.2078 0.0
H968 H 0.95322 0.66978 0.24226 0.0
H969 H 0.98618 0.6591 0.21602 0.0
H970 H 0.11415 0.76827 0.30414 0.0
H971 H 0.1493 0.74651 0.28193 0.0
H972 H 0.05942 0.75446 0.32369 0.0
H973 H 0.0057 0.74668 0.31888 0.0
C974 C 0.77526 0.55401 0.78471 0.0
C975 C 0.78316 0.51734 0.76933 0.0
C976 C 0.77234 0.56049 0.73004 0.0
C977 C 0.77299 0.59847 0.74521 0.0
N978 N 0.73911 0.6215 0.78481 0.0
N979 N 0.79169 0.48598 0.72686 0.0
C980 C 0.76486 0.59325 0.77229 0.0
C981 C 0.78273 0.52079 0.74183 0.0
N982 N 0.77659 0.55131 0.81123 0.0
N983 N 0.75396 0.5609 0.70597 0.0
H984 H 0.79922 0.45628 0.73487 0.0
H985 H 0.79536 0.48787 0.70671 0.0
H986 H 0.73777 0.58766 0.69902 0.0
H987 H 0.749 0.53341 0.69496 0.0
H988 H 0.77453 0.5781 0.82319 0.0
H989 H 0.7835 0.52295 0.82103 0.0
H990 H 0.72907 0.6174 0.80398 0.0
H991 H 0.72205 0.64465 0.77458 0.0
loop_
_geom_bond_atom_site_label_1
_geom_bond_atom_site_label_2
_geom_bond_distance
_geom_bond_site_symmetry_2
_ccdc_geom_bond_type
Li0 N17 1.990 . S
Li0 O60 1.956 . S
Li0 O61 1.970 . S
Li0 O62 1.961 . S
Li1 N25 1.990 . S
Li1 O60 1.970 . S
Li1 O61 1.956 . S
Li1 O63 1.961 . S
Li2 N47 1.990 . S
Li2 O60 1.961 . S
Li2 O62 1.956 . S
Li2 O63 1.970 . S
Li3 N53 1.990 . S
Li3 O61 1.961 . S
Li3 O62 1.970 . S
Li3 O63 1.956 . S
C4 C6 1.348 . S
C4 C7 1.356 . S
C4 O60 1.325 . S
N5 C8 1.314 . S
N5 C9 1.279 . S
C6 C4 1.348 . S
C6 C8 1.353 . S
C6 H64 0.929 . S
C7 C4 1.356 . S
C7 C9 1.358 . S
C7 H65 0.930 . S
C8 N5 1.314 . S
C8 C6 1.353 . S
C8 H66 0.930 . S
C9 N5 1.279 . S
C9 C7 1.358 . S
C9 H67 0.930 . S
C10 C13 1.348 1_455 S
C10 C14 1.356 . S
C10 O61 1.325 . S
C11 N12 1.279 . S
C11 C14 1.358 1_655 S
C11 H68 0.930 . S
N12 C11 1.279 . S
N12 C15 1.314 . S
C13 C10 1.348 1_655 S
C13 C15 1.353 . S
C13 H69 0.929 . S
C14 C10 1.356 . S
C14 C11 1.358 1_455 S
C14 H70 0.930 . S
C15 N12 1.314 . S
C15 C13 1.353 . S
C15 H71 0.930 . S
C16 N17 1.314 1_655 S
C16 C21 1.353 . S
C16 H22 0.930 . S
N17 Li0 1.990 . S
N17 C16 1.314 1_455 S
N17 C19 1.279 . S
C18 C19 1.358 1_655 S
C18 C20 1.356 . S
C18 H72 0.930 . S
C19 N17 1.279 . S
C19 C18 1.358 1_455 S
C19 H23 0.930 . S
C20 C18 1.356 . S
C20 C21 1.348 . S
C21 C16 1.353 . S
C21 C20 1.348 . S
C21 H73 0.929 . S
H22 C16 0.930 . S
H23 C19 0.930 . S
C24 N25 1.314 . S
C24 C26 1.353 . S
C24 H30 0.930 . S
N25 Li1 1.990 . S
N25 C24 1.314 . S
N25 C28 1.279 . S
C26 C24 1.353 . S
C26 C29 1.348 . S
C26 H74 0.929 . S
C27 C28 1.358 . S
C27 C29 1.356 . S
C27 H75 0.930 . S
C28 N25 1.279 . S
C28 C27 1.358 . S
C28 H31 0.930 . S
C29 C26 1.348 . S
C29 C27 1.356 . S
H30 C24 0.930 . S
H31 C28 0.930 . S
C32 C34 1.348 . S
C32 C35 1.356 . S
C32 O62 1.325 . S
N33 C36 1.314 . S
N33 C37 1.279 . S
C34 C32 1.348 . S
C34 C36 1.353 . S
C34 H76 0.929 . S
C35 C32 1.356 . S
C35 C37 1.358 . S
C35 H77 0.930 . S
C36 N33 1.314 . S
C36 C34 1.353 . S
C36 H78 0.930 . S
C37 N33 1.279 . S
C37 C35 1.358 . S
C37 H79 0.930 . S
C38 C39 1.348 . S
C38 C40 1.356 . S
C38 O63 1.325 . S
C39 C38 1.348 . S
C39 C41 1.353 . S
C39 H80 0.929 . S
C40 C38 1.356 . S
C40 C42 1.358 . S
C40 H81 0.930 . S
C41 C39 1.353 . S
C41 N43 1.314 . S
C41 H82 0.930 . S
C42 C40 1.358 . S
C42 N43 1.279 . S
C42 H83 0.930 . S
N43 C41 1.314 . S
N43 C42 1.279 . S
C44 C46 1.353 . S
C44 N47 1.314 . S
C44 H50 0.930 . S
C45 N47 1.279 . S
C45 C48 1.358 . S
C45 H51 0.930 . S
C46 C44 1.353 . S
C46 C49 1.348 . S
C46 H84 0.929 . S
N47 Li2 1.990 . S
N47 C44 1.314 . S
N47 C45 1.279 . S
C48 C45 1.358 . S
C48 C49 1.356 . S
C48 H85 0.930 . S
C49 C46 1.348 . S
C49 C48 1.356 . S
H50 C44 0.930 . S
H51 C45 0.930 . S
C52 N53 1.314 . S
C52 C54 1.353 . S
C52 H58 0.930 . S
N53 Li3 1.990 . S
N53 C52 1.314 . S
N53 C56 1.279 . S
C54 C52 1.353 . S
C54 C57 1.348 . S
C54 H86 0.929 . S
C55 C56 1.358 . S
C55 C57 1.356 . S
C55 H87 0.930 . S
C56 N53 1.279 . S
C56 C55 1.358 . S
C56 H59 0.930 . S
C57 C54 1.348 . S
C57 C55 1.356 . S
H58 C52 0.930 . S
H59 C56 0.930 . S
O60 Li0 1.956 . S
O60 Li1 1.970 . S
O60 Li2 1.961 . S
O60 C4 1.325 . S
O61 Li0 1.970 . S
O61 Li1 1.956 . S
O61 Li3 1.961 . S
O61 C10 1.325 . S
O62 Li0 1.961 . S
O62 Li2 1.956 . S
O62 Li3 1.970 . S
O62 C32 1.325 . S
O63 Li1 1.961 . S
O63 Li2 1.970 . S
O63 Li3 1.956 . S
O63 C38 1.325 . S
H64 C6 0.929 . S
H65 C7 0.930 . S
H66 C8 0.930 . S
H67 C9 0.930 . S
H68 C11 0.930 . S
H69 C13 0.929 . S
H70 C14 0.930 . S
H71 C15 0.930 . S
H72 C18 0.930 . S
H73 C21 0.929 . S
H74 C26 0.929 . S
H75 C27 0.930 . S
H76 C34 0.929 . S
H77 C35 0.930 . S
H78 C36 0.930 . S
H79 C37 0.930 . S
H80 C39 0.929 . S
H81 C40 0.930 . S
H82 C41 0.930 . S
H83 C42 0.930 . S
H84 C46 0.929 . S
H85 C48 0.930 . S
H86 C54 0.929 . S
H87 C55 0.930 . S
Li88 N105 1.990 . S
Li88 O148 1.956 . S
Li88 O149 1.970 . S
Li88 O150 1.961 . S
Li89 N113 1.990 . S
Li89 O148 1.970 . S
Li89 O149 1.956 . S
Li89 O151 1.961 . S
Li90 N135 1.990 . S
Li90 O148 1.961 . S
Li90 O150 1.956 . S
Li90 O151 1.970 . S
Li91 N141 1.990 . S
Li91 O149 1.961 . S
Li91 O150 1.970 . S
Li91 O151 1.956 . S
C92 C94 1.348 . S
C92 C95 1.356 . S
C92 O148 1.325 . S
N93 C96 1.314 . S
N93 C97 1.279 . S
C94 C92 1.348 . S
C94 C96 1.353 . S
C94 H152 0.929 . S
C95 C92 1.356 . S
C95 C97 1.358 . S
C95 H153 0.930 . S
C96 N93 1.314 . S
C96 C94 1.353 . S
C96 H154 0.930 . S
C97 N93 1.279 . S
C97 C95 1.358 . S
C97 H155 0.930 . S
C98 C101 1.348 . S
C98 C102 1.356 . S
C98 O149 1.325 . S
C99 N100 1.279 . S
C99 C102 1.358 . S
C99 H156 0.930 . S
N100 C99 1.279 . S
N100 C103 1.314 . S
C101 C98 1.348 . S
C101 C103 1.353 . S
C101 H157 0.929 . S
C102 C98 1.356 . S
C102 C99 1.358 . S
C102 H158 0.930 . S
C103 N100 1.314 . S
C103 C101 1.353 . S
C103 H159 0.930 . S
C104 N105 1.314 . S
C104 C109 1.353 . S
C104 H110 0.930 . S
N105 Li88 1.990 . S
N105 C104 1.314 . S
N105 C107 1.279 . S
C106 C107 1.358 . S
C106 C108 1.356 . S
C106 H160 0.930 . S
C107 N105 1.279 . S
C107 C106 1.358 . S
C107 H111 0.930 . S
C108 C106 1.356 . S
C108 C109 1.348 . S
C109 C104 1.353 . S
C109 C108 1.348 . S
C109 H161 0.929 . S
H110 C104 0.930 . S
H111 C107 0.930 . S
C112 N113 1.314 . S
C112 C114 1.353 . S
C112 H118 0.930 . S
N113 Li89 1.990 . S
N113 C112 1.314 . S
N113 C116 1.279 . S
C114 C112 1.353 . S
C114 C117 1.348 . S
C114 H162 0.929 . S
C115 C116 1.358 . S
C115 C117 1.356 . S
C115 H163 0.930 . S
C116 N113 1.279 . S
C116 C115 1.358 . S
C116 H119 0.930 . S
C117 C114 1.348 . S
C117 C115 1.356 . S
H118 C112 0.930 . S
H119 C116 0.930 . S
C120 C122 1.348 . S
C120 C123 1.356 . S
C120 O150 1.325 . S
N121 C124 1.314 . S
N121 C125 1.279 . S
C122 C120 1.348 . S
C122 C124 1.353 . S
C122 H164 0.929 . S
C123 C120 1.356 . S
C123 C125 1.358 . S
C123 H165 0.930 . S
C124 N121 1.314 . S
C124 C122 1.353 . S
C124 H166 0.930 . S
C125 N121 1.279 . S
C125 C123 1.358 . S
C125 H167 0.930 . S
C126 C127 1.348 . S
C126 C128 1.356 . S
C126 O151 1.325 . S
C127 C126 1.348 . S
C127 C129 1.353 . S
C127 H168 0.929 . S
C128 C126 1.356 . S
C128 C130 1.358 . S
C128 H169 0.930 . S
C129 C127 1.353 . S
C129 N131 1.314 . S
C129 H170 0.930 . S
C130 C128 1.358 . S
C130 N131 1.279 . S
C130 H171 0.930 . S
N131 C129 1.314 . S
N131 C130 1.279 . S
C132 C134 1.353 . S
C132 N135 1.314 . S
C132 H138 0.930 . S
C133 N135 1.279 . S
C133 C136 1.358 . S
C133 H139 0.930 . S
C134 C132 1.353 . S
C134 C137 1.348 . S
C134 H172 0.929 . S
N135 Li90 1.990 . S
N135 C132 1.314 . S
N135 C133 1.279 . S
C136 C133 1.358 . S
C136 C137 1.356 . S
C136 H173 0.930 . S
C137 C134 1.348 . S
C137 C136 1.356 . S
H138 C132 0.930 . S
H139 C133 0.930 . S
C140 N141 1.314 . S
C140 C142 1.353 . S
C140 H146 0.930 . S
N141 Li91 1.990 . S
N141 C140 1.314 . S
N141 C144 1.279 . S
C142 C140 1.353 . S
C142 C145 1.348 . S
C142 H174 0.929 . S
C143 C144 1.358 . S
C143 C145 1.356 . S
C143 H175 0.930 . S
C144 N141 1.279 . S
C144 C143 1.358 . S
C144 H147 0.930 . S
C145 C142 1.348 . S
C145 C143 1.356 . S
H146 C140 0.930 . S
H147 C144 0.930 . S
O148 Li88 1.956 . S
O148 Li89 1.970 . S
O148 Li90 1.961 . S
O148 C92 1.325 . S
O149 Li88 1.970 . S
O149 Li89 1.956 . S
O149 Li91 1.961 . S
O149 C98 1.325 . S
O150 Li88 1.961 . S
O150 Li90 1.956 . S
O150 Li91 1.970 . S
O150 C120 1.325 . S
O151 Li89 1.961 . S
O151 Li90 1.970 . S
O151 Li91 1.956 . S
O151 C126 1.325 . S
H152 C94 0.929 . S
H153 C95 0.930 . S
H154 C96 0.930 . S
H155 C97 0.930 . S
H156 C99 0.930 . S
H157 C101 0.929 . S
H158 C102 0.930 . S
H159 C103 0.930 . S
H160 C106 0.930 . S
H161 C109 0.929 . S
H162 C114 0.929 . S
H163 C115 0.930 . S
H164 C122 0.929 . S
H165 C123 0.930 . S
H166 C124 0.930 . S
H167 C125 0.930 . S
H168 C127 0.929 . S
H169 C128 0.930 . S
H170 C129 0.930 . S
H171 C130 0.930 . S
H172 C134 0.929 . S
H173 C136 0.930 . S
H174 C142 0.929 . S
H175 C143 0.930 . S
Li176 N193 1.990 . S
Li176 O236 1.956 . S
Li176 O237 1.970 . S
Li176 O238 1.961 . S
Li177 N201 1.990 . S
Li177 O236 1.970 . S
Li177 O237 1.956 . S
Li177 O239 1.961 . S
Li178 N223 1.990 . S
Li178 O236 1.961 . S
Li178 O238 1.956 . S
Li178 O239 1.970 . S
Li179 N229 1.990 . S
Li179 O237 1.961 . S
Li179 O238 1.970 . S
Li179 O239 1.956 . S
C180 C182 1.348 . S
C180 C183 1.356 . S
C180 O236 1.325 . S
N181 C184 1.314 . S
N181 C185 1.279 . S
C182 C180 1.348 . S
C182 C184 1.353 . S
C182 H240 0.929 . S
C183 C180 1.356 . S
C183 C185 1.358 . S
C183 H241 0.930 . S
C184 N181 1.314 . S
C184 C182 1.353 . S
C184 H242 0.930 . S
C185 N181 1.279 . S
C185 C183 1.358 . S
C185 H243 0.930 . S
C186 C189 1.348 1_655 S
C186 C190 1.356 . S
C186 O237 1.325 . S
C187 N188 1.279 . S
C187 C190 1.358 1_455 S
C187 H244 0.930 . S
N188 C187 1.279 . S
N188 C191 1.314 . S
C189 C186 1.348 1_455 S
C189 C191 1.353 . S
C189 H245 0.929 . S
C190 C186 1.356 . S
C190 C187 1.358 1_655 S
C190 H246 0.930 . S
C191 N188 1.314 . S
C191 C189 1.353 . S
C191 H247 0.930 . S
C192 N193 1.314 1_455 S
C192 C197 1.353 . S
C192 H198 0.930 . S
N193 Li176 1.990 . S
N193 C192 1.314 1_655 S
N193 C195 1.279 . S
C194 C195 1.358 1_455 S
C194 C196 1.356 . S
C194 H248 0.930 . S
C195 N193 1.279 . S
C195 C194 1.358 1_655 S
C195 H199 0.930 . S
C196 C194 1.356 . S
C196 C197 1.348 . S
C197 C192 1.353 . S
C197 C196 1.348 . S
C197 H249 0.929 . S
H198 C192 0.930 . S
H199 C195 0.930 . S
C200 N201 1.314 . S
C200 C202 1.353 . S
C200 H206 0.930 . S
N201 Li177 1.990 . S
N201 C200 1.314 . S
N201 C204 1.279 . S
C202 C200 1.353 . S
C202 C205 1.348 . S
C202 H250 0.929 . S
C203 C204 1.358 . S
C203 C205 1.356 . S
C203 H251 0.930 . S
C204 N201 1.279 . S
C204 C203 1.358 . S
C204 H207 0.930 . S
C205 C202 1.348 . S
C205 C203 1.356 . S
H206 C200 0.930 . S
H207 C204 0.930 . S
C208 C210 1.348 . S
C208 C211 1.356 . S
C208 O238 1.325 . S
N209 C212 1.314 . S
N209 C213 1.279 . S
C210 C208 1.348 . S
C210 C212 1.353 . S
C210 H252 0.929 . S
C211 C208 1.356 . S
C211 C213 1.358 . S
C211 H253 0.930 . S
C212 N209 1.314 . S
C212 C210 1.353 . S
C212 H254 0.930 . S
C213 N209 1.279 . S
C213 C211 1.358 . S
C213 H255 0.930 . S
C214 C215 1.348 . S
C214 C216 1.356 . S
C214 O239 1.325 . S
C215 C214 1.348 . S
C215 C217 1.353 . S
C215 H256 0.929 . S
C216 C214 1.356 . S
C216 C218 1.358 . S
C216 H257 0.930 . S
C217 C215 1.353 . S
C217 N219 1.314 . S
C217 H258 0.930 . S
C218 C216 1.358 . S
C218 N219 1.279 . S
C218 H259 0.930 . S
N219 C217 1.314 . S
N219 C218 1.279 . S
C220 C222 1.353 . S
C220 N223 1.314 . S
C220 H226 0.930 . S
C221 N223 1.279 . S
C221 C224 1.358 . S
C221 H227 0.930 . S
C222 C220 1.353 . S
C222 C225 1.348 . S
C222 H260 0.929 . S
N223 Li178 1.990 . S
N223 C220 1.314 . S
N223 C221 1.279 . S
C224 C221 1.358 . S
C224 C225 1.356 . S
C224 H261 0.930 . S
C225 C222 1.348 . S
C225 C224 1.356 . S
H226 C220 0.930 . S
H227 C221 0.930 . S
C228 N229 1.314 . S
C228 C230 1.353 . S
C228 H234 0.930 . S
N229 Li179 1.990 . S
N229 C228 1.314 . S
N229 C232 1.279 . S
C230 C228 1.353 . S
C230 C233 1.348 . S
C230 H262 0.929 . S
C231 C232 1.358 . S
C231 C233 1.356 . S
C231 H263 0.930 . S
C232 N229 1.279 . S
C232 C231 1.358 . S
C232 H235 0.930 . S
C233 C230 1.348 . S
C233 C231 1.356 . S
H234 C228 0.930 . S
H235 C232 0.930 . S
O236 Li176 1.956 . S
O236 Li177 1.970 . S
O236 Li178 1.961 . S
O236 C180 1.325 . S
O237 Li176 1.970 . S
O237 Li177 1.956 . S
O237 Li179 1.961 . S
O237 C186 1.325 . S
O238 Li176 1.961 . S
O238 Li178 1.956 . S
O238 Li179 1.970 . S
O238 C208 1.325 . S
O239 Li177 1.961 . S
O239 Li178 1.970 . S
O239 Li179 1.956 . S
O239 C214 1.325 . S
H240 C182 0.929 . S
H241 C183 0.930 . S
H242 C184 0.930 . S
H243 C185 0.930 . S
H244 C187 0.930 . S
H245 C189 0.929 . S
H246 C190 0.930 . S
H247 C191 0.930 . S
H248 C194 0.930 . S
H249 C197 0.929 . S
H250 C202 0.929 . S
H251 C203 0.930 . S
H252 C210 0.929 . S
H253 C211 0.930 . S
H254 C212 0.930 . S
H255 C213 0.930 . S
H256 C215 0.929 . S
H257 C216 0.930 . S
H258 C217 0.930 . S
H259 C218 0.930 . S
H260 C222 0.929 . S
H261 C224 0.930 . S
H262 C230 0.929 . S
H263 C231 0.930 . S
Li264 N281 1.990 . S
Li264 O324 1.956 . S
Li264 O325 1.970 . S
Li264 O326 1.961 . S
Li265 N289 1.990 . S
Li265 O324 1.970 . S
Li265 O325 1.956 . S
Li265 O327 1.961 . S
Li266 N311 1.990 . S
Li266 O324 1.961 . S
Li266 O326 1.956 . S
Li266 O327 1.970 . S
Li267 N317 1.990 . S
Li267 O325 1.961 . S
Li267 O326 1.970 . S
Li267 O327 1.956 . S
C268 C270 1.348 . S
C268 C271 1.356 . S
C268 O324 1.325 . S
N269 C272 1.314 . S
N269 C273 1.279 . S
C270 C268 1.348 . S
C270 C272 1.353 . S
C270 H328 0.929 . S
C271 C268 1.356 . S
C271 C273 1.358 . S
C271 H329 0.930 . S
C272 N269 1.314 . S
C272 C270 1.353 . S
C272 H330 0.930 . S
C273 N269 1.279 . S
C273 C271 1.358 . S
C273 H331 0.930 . S
C274 C277 1.348 . S
C274 C278 1.356 . S
C274 O325 1.325 . S
C275 N276 1.279 . S
C275 C278 1.358 . S
C275 H332 0.930 . S
N276 C275 1.279 . S
N276 C279 1.314 . S
C277 C274 1.348 . S
C277 C279 1.353 . S
C277 H333 0.929 . S
C278 C274 1.356 . S
C278 C275 1.358 . S
C278 H334 0.930 . S
C279 N276 1.314 . S
C279 C277 1.353 . S
C279 H335 0.930 . S
C280 N281 1.314 . S
C280 C285 1.353 . S
C280 H286 0.930 . S
N281 Li264 1.990 . S
N281 C280 1.314 . S
N281 C283 1.279 . S
C282 C283 1.358 . S
C282 C284 1.356 . S
C282 H336 0.930 . S
C283 N281 1.279 . S
C283 C282 1.358 . S
C283 H287 0.930 . S
C284 C282 1.356 . S
C284 C285 1.348 . S
C285 C280 1.353 . S
C285 C284 1.348 . S
C285 H337 0.929 . S
H286 C280 0.930 . S
H287 C283 0.930 . S
C288 N289 1.314 . S
C288 C290 1.353 . S
C288 H294 0.930 . S
N289 Li265 1.990 . S
N289 C288 1.314 . S
N289 C292 1.279 . S
C290 C288 1.353 . S
C290 C293 1.348 . S
C290 H338 0.929 . S
C291 C292 1.358 . S
C291 C293 1.356 . S
C291 H339 0.930 . S
C292 N289 1.279 . S
C292 C291 1.358 . S
C292 H295 0.930 . S
C293 C290 1.348 . S
C293 C291 1.356 . S
H294 C288 0.930 . S
H295 C292 0.930 . S
C296 C298 1.348 . S
C296 C299 1.356 . S
C296 O326 1.325 . S
N297 C300 1.314 . S
N297 C301 1.279 . S
C298 C296 1.348 . S
C298 C300 1.353 . S
C298 H340 0.929 . S
C299 C296 1.356 . S
C299 C301 1.358 . S
C299 H341 0.930 . S
C300 N297 1.314 . S
C300 C298 1.353 . S
C300 H342 0.930 . S
C301 N297 1.279 . S
C301 C299 1.358 . S
C301 H343 0.930 . S
C302 C303 1.348 . S
C302 C304 1.356 . S
C302 O327 1.325 . S
C303 C302 1.348 . S
C303 C305 1.353 . S
C303 H344 0.929 . S
C304 C302 1.356 . S
C304 C306 1.358 . S
C304 H345 0.930 . S
C305 C303 1.353 . S
C305 N307 1.314 . S
C305 H346 0.930 . S
C306 C304 1.358 . S
C306 N307 1.279 . S
C306 H347 0.930 . S
N307 C305 1.314 . S
N307 C306 1.279 . S
C308 C310 1.353 . S
C308 N311 1.314 . S
C308 H314 0.930 . S
C309 N311 1.279 . S
C309 C312 1.358 . S
C309 H315 0.930 . S
C310 C308 1.353 . S
C310 C313 1.348 . S
C310 H348 0.929 . S
N311 Li266 1.990 . S
N311 C308 1.314 . S
N311 C309 1.279 . S
C312 C309 1.358 . S
C312 C313 1.356 . S
C312 H349 0.930 . S
C313 C310 1.348 . S
C313 C312 1.356 . S
H314 C308 0.930 . S
H315 C309 0.930 . S
C316 N317 1.314 . S
C316 C318 1.353 . S
C316 H322 0.930 . S
N317 Li267 1.990 . S
N317 C316 1.314 . S
N317 C320 1.279 . S
C318 C316 1.353 . S
C318 C321 1.348 . S
C318 H350 0.929 . S
C319 C320 1.358 . S
C319 C321 1.356 . S
C319 H351 0.930 . S
C320 N317 1.279 . S
C320 C319 1.358 . S
C320 H323 0.930 . S
C321 C318 1.348 . S
C321 C319 1.356 . S
H322 C316 0.930 . S
H323 C320 0.930 . S
O324 Li264 1.956 . S
O324 Li265 1.970 . S
O324 Li266 1.961 . S
O324 C268 1.325 . S
O325 Li264 1.970 . S
O325 Li265 1.956 . S
O325 Li267 1.961 . S
O325 C274 1.325 . S
O326 Li264 1.961 . S
O326 Li266 1.956 . S
O326 Li267 1.970 . S
O326 C296 1.325 . S
O327 Li265 1.961 . S
O327 Li266 1.970 . S
O327 Li267 1.956 . S
O327 C302 1.325 . S
H328 C270 0.929 . S
H329 C271 0.930 . S
H330 C272 0.930 . S
H331 C273 0.930 . S
H332 C275 0.930 . S
H333 C277 0.929 . S
H334 C278 0.930 . S
H335 C279 0.930 . S
H336 C282 0.930 . S
H337 C285 0.929 . S
H338 C290 0.929 . S
H339 C291 0.930 . S
H340 C298 0.929 . S
H341 C299 0.930 . S
H342 C300 0.930 . S
H343 C301 0.930 . S
H344 C303 0.929 . S
H345 C304 0.930 . S
H346 C305 0.930 . S
H347 C306 0.930 . S
H348 C310 0.929 . S
H349 C312 0.930 . S
H350 C318 0.929 . S
H351 C319 0.930 . S
Li352 N369 1.990 . S
Li352 O412 1.956 . S
Li352 O413 1.970 . S
Li352 O414 1.961 . S
Li353 N377 1.990 . S
Li353 O412 1.970 . S
Li353 O413 1.956 . S
Li353 O415 1.961 . S
Li354 N399 1.990 . S
Li354 O412 1.961 . S
Li354 O414 1.956 . S
Li354 O415 1.970 . S
Li355 N405 1.990 . S
Li355 O413 1.961 . S
Li355 O414 1.970 . S
Li355 O415 1.956 . S
C356 C358 1.348 . S
C356 C359 1.356 . S
C356 O412 1.325 . S
N357 C360 1.314 . S
N357 C361 1.279 . S
C358 C356 1.348 . S
C358 C360 1.353 . S
C358 H416 0.929 . S
C359 C356 1.356 . S
C359 C361 1.358 . S
C359 H417 0.930 . S
C360 N357 1.314 . S
C360 C358 1.353 . S
C360 H418 0.930 . S
C361 N357 1.279 . S
C361 C359 1.358 . S
C361 H419 0.930 . S
C362 C365 1.348 . S
C362 C366 1.356 . S
C362 O413 1.325 . S
C363 N364 1.279 . S
C363 C366 1.358 . S
C363 H420 0.930 . S
N364 C363 1.279 . S
N364 C367 1.314 . S
C365 C362 1.348 . S
C365 C367 1.353 . S
C365 H421 0.929 . S
C366 C362 1.356 . S
C366 C363 1.358 . S
C366 H422 0.930 . S
C367 N364 1.314 . S
C367 C365 1.353 . S
C367 H423 0.930 . S
C368 N369 1.314 . S
C368 C373 1.353 . S
C368 H374 0.930 . S
N369 Li352 1.990 . S
N369 C368 1.314 . S
N369 C371 1.279 . S
C370 C371 1.358 . S
C370 C372 1.356 . S
C370 H424 0.930 . S
C371 N369 1.279 . S
C371 C370 1.358 . S
C371 H375 0.930 . S
C372 C370 1.356 . S
C372 C373 1.348 . S
C373 C368 1.353 . S
C373 C372 1.348 . S
C373 H425 0.929 . S
H374 C368 0.930 . S
H375 C371 0.930 . S
C376 N377 1.314 . S
C376 C378 1.353 . S
C376 H382 0.930 . S
N377 Li353 1.990 . S
N377 C376 1.314 . S
N377 C380 1.279 . S
C378 C376 1.353 . S
C378 C381 1.348 . S
C378 H426 0.929 . S
C379 C380 1.358 . S
C379 C381 1.356 . S
C379 H427 0.930 . S
C380 N377 1.279 . S
C380 C379 1.358 . S
C380 H383 0.930 . S
C381 C378 1.348 . S
C381 C379 1.356 . S
H382 C376 0.930 . S
H383 C380 0.930 . S
C384 C386 1.348 . S
C384 C387 1.356 . S
C384 O414 1.325 . S
N385 C388 1.314 . S
N385 C389 1.279 . S
C386 C384 1.348 . S
C386 C388 1.353 . S
C386 H428 0.929 . S
C387 C384 1.356 . S
C387 C389 1.358 . S
C387 H429 0.930 . S
C388 N385 1.314 . S
C388 C386 1.353 . S
C388 H430 0.930 . S
C389 N385 1.279 . S
C389 C387 1.358 . S
C389 H431 0.930 . S
C390 C391 1.348 . S
C390 C392 1.356 . S
C390 O415 1.325 . S
C391 C390 1.348 . S
C391 C393 1.353 . S
C391 H432 0.929 . S
C392 C390 1.356 . S
C392 C394 1.358 . S
C392 H433 0.930 . S
C393 C391 1.353 . S
C393 N395 1.314 . S
C393 H434 0.930 . S
C394 C392 1.358 . S
C394 N395 1.279 . S
C394 H435 0.930 . S
N395 C393 1.314 . S
N395 C394 1.279 . S
C396 C398 1.353 . S
C396 N399 1.314 . S
C396 H402 0.930 . S
C397 N399 1.279 . S
C397 C400 1.358 . S
C397 H403 0.930 . S
C398 C396 1.353 . S
C398 C401 1.348 . S
C398 H436 0.929 . S
N399 Li354 1.990 . S
N399 C396 1.314 . S
N399 C397 1.279 . S
C400 C397 1.358 . S
C400 C401 1.356 . S
C400 H437 0.930 . S
C401 C398 1.348 . S
C401 C400 1.356 . S
H402 C396 0.930 . S
H403 C397 0.930 . S
C404 N405 1.314 . S
C404 C406 1.353 . S
C404 H410 0.930 . S
N405 Li355 1.990 . S
N405 C404 1.314 . S
N405 C408 1.279 . S
C406 C404 1.353 . S
C406 C409 1.348 . S
C406 H438 0.929 . S
C407 C408 1.358 . S
C407 C409 1.356 . S
C407 H439 0.930 . S
C408 N405 1.279 . S
C408 C407 1.358 . S
C408 H411 0.930 . S
C409 C406 1.348 . S
C409 C407 1.356 . S
H410 C404 0.930 . S
H411 C408 0.930 . S
O412 Li352 1.956 . S
O412 Li353 1.970 . S
O412 Li354 1.961 . S
O412 C356 1.325 . S
O413 Li352 1.970 . S
O413 Li353 1.956 . S
O413 Li355 1.961 . S
O413 C362 1.325 . S
O414 Li352 1.961 . S
O414 Li354 1.956 . S
O414 Li355 1.970 . S
O414 C384 1.325 . S
O415 Li353 1.961 . S
O415 Li354 1.970 . S
O415 Li355 1.956 . S
O415 C390 1.325 . S
H416 C358 0.929 . S
H417 C359 0.930 . S
H418 C360 0.930 . S
H419 C361 0.930 . S
H420 C363 0.930 . S
H421 C365 0.929 . S
H422 C366 0.930 . S
H423 C367 0.930 . S
H424 C370 0.930 . S
H425 C373 0.929 . S
H426 C378 0.929 . S
H427 C379 0.930 . S
H428 C386 0.929 . S
H429 C387 0.930 . S
H430 C388 0.930 . S
H431 C389 0.930 . S
H432 C391 0.929 . S
H433 C392 0.930 . S
H434 C393 0.930 . S
H435 C394 0.930 . S
H436 C398 0.929 . S
H437 C400 0.930 . S
H438 C406 0.929 . S
H439 C407 0.930 . S
Li440 N457 1.990 . S
Li440 O500 1.956 . S
Li440 O501 1.970 . S
Li440 O502 1.961 . S
Li441 N465 1.990 . S
Li441 O500 1.970 . S
Li441 O501 1.956 . S
Li441 O503 1.961 . S
Li442 N487 1.990 . S
Li442 O500 1.961 . S
Li442 O502 1.956 . S
Li442 O503 1.970 . S
Li443 N493 1.990 . S
Li443 O501 1.961 . S
Li443 O502 1.970 . S
Li443 O503 1.956 . S
C444 C446 1.348 . S
C444 C447 1.356 . S
C444 O500 1.325 . S
N445 C448 1.314 . S
N445 C449 1.279 . S
C446 C444 1.348 . S
C446 C448 1.353 . S
C446 H504 0.929 . S
C447 C444 1.356 . S
C447 C449 1.358 . S
C447 H505 0.930 . S
C448 N445 1.314 . S
C448 C446 1.353 . S
C448 H506 0.930 . S
C449 N445 1.279 . S
C449 C447 1.358 . S
C449 H507 0.930 . S
C450 C453 1.348 . S
C450 C454 1.356 . S
C450 O501 1.325 . S
C451 N452 1.279 . S
C451 C454 1.358 . S
C451 H508 0.930 . S
N452 C451 1.279 . S
N452 C455 1.314 . S
C453 C450 1.348 . S
C453 C455 1.353 . S
C453 H509 0.929 . S
C454 C450 1.356 . S
C454 C451 1.358 . S
C454 H510 0.930 . S
C455 N452 1.314 . S
C455 C453 1.353 . S
C455 H511 0.930 . S
C456 N457 1.314 . S
C456 C461 1.353 . S
C456 H462 0.930 . S
N457 Li440 1.990 . S
N457 C456 1.314 . S
N457 C459 1.279 . S
C458 C459 1.358 . S
C458 C460 1.356 . S
C458 H512 0.930 . S
C459 N457 1.279 . S
C459 C458 1.358 . S
C459 H463 0.930 . S
C460 C458 1.356 . S
C460 C461 1.348 . S
C461 C456 1.353 . S
C461 C460 1.348 . S
C461 H513 0.929 . S
H462 C456 0.930 . S
H463 C459 0.930 . S
C464 N465 1.314 . S
C464 C466 1.353 . S
C464 H470 0.930 . S
N465 Li441 1.990 . S
N465 C464 1.314 . S
N465 C468 1.279 . S
C466 C464 1.353 . S
C466 C469 1.348 . S
C466 H514 0.929 . S
C467 C468 1.358 . S
C467 C469 1.356 . S
C467 H515 0.930 . S
C468 N465 1.279 . S
C468 C467 1.358 . S
C468 H471 0.930 . S
C469 C466 1.348 . S
C469 C467 1.356 . S
H470 C464 0.930 . S
H471 C468 0.930 . S
C472 C474 1.348 . S
C472 C475 1.356 . S
C472 O502 1.325 . S
N473 C476 1.314 . S
N473 C477 1.279 . S
C474 C472 1.348 . S
C474 C476 1.353 . S
C474 H516 0.929 . S
C475 C472 1.356 . S
C475 C477 1.358 . S
C475 H517 0.930 . S
C476 N473 1.314 . S
C476 C474 1.353 . S
C476 H518 0.930 . S
C477 N473 1.279 . S
C477 C475 1.358 . S
C477 H519 0.930 . S
C478 C479 1.348 . S
C478 C480 1.356 . S
C478 O503 1.325 . S
C479 C478 1.348 . S
C479 C481 1.353 1_545 S
C479 H520 0.929 . S
C480 C478 1.356 . S
C480 C482 1.358 1_545 S
C480 H521 0.930 . S
C481 C479 1.353 1_565 S
C481 N483 1.314 . S
C481 H522 0.930 . S
C482 C480 1.358 1_565 S
C482 N483 1.279 . S
C482 H523 0.930 . S
N483 C481 1.314 . S
N483 C482 1.279 . S
C484 C486 1.353 . S
C484 N487 1.314 . S
C484 H490 0.930 . S
C485 N487 1.279 . S
C485 C488 1.358 . S
C485 H491 0.930 . S
C486 C484 1.353 . S
C486 C489 1.348 . S
C486 H524 0.929 . S
N487 Li442 1.990 . S
N487 C484 1.314 . S
N487 C485 1.279 . S
C488 C485 1.358 . S
C488 C489 1.356 . S
C488 H525 0.930 . S
C489 C486 1.348 . S
C489 C488 1.356 . S
H490 C484 0.930 . S
H491 C485 0.930 . S
C492 N493 1.314 . S
C492 C494 1.353 . S
C492 H498 0.930 . S
N493 Li443 1.990 . S
N493 C492 1.314 . S
N493 C496 1.279 1_545 S
C494 C492 1.353 . S
C494 C497 1.348 1_545 S
C494 H526 0.929 . S
C495 C496 1.358 . S
C495 C497 1.356 . S
C495 H527 0.930 . S
C496 N493 1.279 1_565 S
C496 C495 1.358 . S
C496 H499 0.930 . S
C497 C494 1.348 1_565 S
C497 C495 1.356 . S
H498 C492 0.930 . S
H499 C496 0.930 . S
O500 Li440 1.956 . S
O500 Li441 1.970 . S
O500 Li442 1.961 . S
O500 C444 1.325 . S
O501 Li440 1.970 . S
O501 Li441 1.956 . S
O501 Li443 1.961 . S
O501 C450 1.325 . S
O502 Li440 1.961 . S
O502 Li442 1.956 . S
O502 Li443 1.970 . S
O502 C472 1.325 . S
O503 Li441 1.961 . S
O503 Li442 1.970 . S
O503 Li443 1.956 . S
O503 C478 1.325 . S
H504 C446 0.929 . S
H505 C447 0.930 . S
H506 C448 0.930 . S
H507 C449 0.930 . S
H508 C451 0.930 . S
H509 C453 0.929 . S
H510 C454 0.930 . S
H511 C455 0.930 . S
H512 C458 0.930 . S
H513 C461 0.929 . S
H514 C466 0.929 . S
H515 C467 0.930 . S
H516 C474 0.929 . S
H517 C475 0.930 . S
H518 C476 0.930 . S
H519 C477 0.930 . S
H520 C479 0.929 . S
H521 C480 0.930 . S
H522 C481 0.930 . S
H523 C482 0.930 . S
H524 C486 0.929 . S
H525 C488 0.930 . S
H526 C494 0.929 . S
H527 C495 0.930 . S
Li528 N545 1.990 . S
Li528 O588 1.956 . S
Li528 O589 1.970 . S
Li528 O590 1.961 . S
Li529 N553 1.990 . S
Li529 O588 1.970 . S
Li529 O589 1.956 . S
Li529 O591 1.961 . S
Li530 N575 1.990 . S
Li530 O588 1.961 . S
Li530 O590 1.956 . S
Li530 O591 1.970 . S
Li531 N581 1.990 . S
Li531 O589 1.961 . S
Li531 O590 1.970 . S
Li531 O591 1.956 . S
C532 C534 1.348 . S
C532 C535 1.356 . S
C532 O588 1.325 . S
N533 C536 1.314 . S
N533 C537 1.279 . S
C534 C532 1.348 . S
C534 C536 1.353 . S
C534 H592 0.929 . S
C535 C532 1.356 . S
C535 C537 1.358 . S
C535 H593 0.930 . S
C536 N533 1.314 . S
C536 C534 1.353 . S
C536 H594 0.930 . S
C537 N533 1.279 . S
C537 C535 1.358 . S
C537 H595 0.930 . S
C538 C541 1.348 . S
C538 C542 1.356 . S
C538 O589 1.325 . S
C539 N540 1.279 . S
C539 C542 1.358 . S
C539 H596 0.930 . S
N540 C539 1.279 . S
N540 C543 1.314 . S
C541 C538 1.348 . S
C541 C543 1.353 . S
C541 H597 0.929 . S
C542 C538 1.356 . S
C542 C539 1.358 . S
C542 H598 0.930 . S
C543 N540 1.314 . S
C543 C541 1.353 . S
C543 H599 0.930 . S
C544 N545 1.314 . S
C544 C549 1.353 . S
C544 H550 0.930 . S
N545 Li528 1.990 . S
N545 C544 1.314 . S
N545 C547 1.279 . S
C546 C547 1.358 . S
C546 C548 1.356 . S
C546 H600 0.930 . S
C547 N545 1.279 . S
C547 C546 1.358 . S
C547 H551 0.930 . S
C548 C546 1.356 . S
C548 C549 1.348 . S
C549 C544 1.353 . S
C549 C548 1.348 . S
C549 H601 0.929 . S
H550 C544 0.930 . S
H551 C547 0.930 . S
C552 N553 1.314 . S
C552 C554 1.353 . S
C552 H558 0.930 . S
N553 Li529 1.990 . S
N553 C552 1.314 . S
N553 C556 1.279 . S
C554 C552 1.353 . S
C554 C557 1.348 . S
C554 H602 0.929 . S
C555 C556 1.358 . S
C555 C557 1.356 . S
C555 H603 0.930 . S
C556 N553 1.279 . S
C556 C555 1.358 . S
C556 H559 0.930 . S
C557 C554 1.348 . S
C557 C555 1.356 . S
H558 C552 0.930 . S
H559 C556 0.930 . S
C560 C562 1.348 . S
C560 C563 1.356 . S
C560 O590 1.325 . S
N561 C564 1.314 . S
N561 C565 1.279 . S
C562 C560 1.348 . S
C562 C564 1.353 . S
C562 H604 0.929 . S
C563 C560 1.356 . S
C563 C565 1.358 . S
C563 H605 0.930 . S
C564 N561 1.314 . S
C564 C562 1.353 . S
C564 H606 0.930 . S
C565 N561 1.279 . S
C565 C563 1.358 . S
C565 H607 0.930 . S
C566 C567 1.348 . S
C566 C568 1.356 . S
C566 O591 1.325 . S
C567 C566 1.348 . S
C567 C569 1.353 . S
C567 H608 0.929 . S
C568 C566 1.356 . S
C568 C570 1.358 . S
C568 H609 0.930 . S
C569 C567 1.353 . S
C569 N571 1.314 . S
C569 H610 0.930 . S
C570 C568 1.358 . S
C570 N571 1.279 . S
C570 H611 0.930 . S
N571 C569 1.314 . S
N571 C570 1.279 . S
C572 C574 1.353 . S
C572 N575 1.314 . S
C572 H578 0.930 . S
C573 N575 1.279 . S
C573 C576 1.358 . S
C573 H579 0.930 . S
C574 C572 1.353 . S
C574 C577 1.348 . S
C574 H612 0.929 . S
N575 Li530 1.990 . S
N575 C572 1.314 . S
N575 C573 1.279 . S
C576 C573 1.358 . S
C576 C577 1.356 . S
C576 H613 0.930 . S
C577 C574 1.348 . S
C577 C576 1.356 . S
H578 C572 0.930 . S
H579 C573 0.930 . S
C580 N581 1.314 . S
C580 C582 1.353 . S
C580 H586 0.930 . S
N581 Li531 1.990 . S
N581 C580 1.314 . S
N581 C584 1.279 . S
C582 C580 1.353 . S
C582 C585 1.348 . S
C582 H614 0.929 . S
C583 C584 1.358 . S
C583 C585 1.356 . S
C583 H615 0.930 . S
C584 N581 1.279 . S
C584 C583 1.358 . S
C584 H587 0.930 . S
C585 C582 1.348 . S
C585 C583 1.356 . S
H586 C580 0.930 . S
H587 C584 0.930 . S
O588 Li528 1.956 . S
O588 Li529 1.970 . S
O588 Li530 1.961 . S
O588 C532 1.325 . S
O589 Li528 1.970 . S
O589 Li529 1.956 . S
O589 Li531 1.961 . S
O589 C538 1.325 . S
O590 Li528 1.961 . S
O590 Li530 1.956 . S
O590 Li531 1.970 . S
O590 C560 1.325 . S
O591 Li529 1.961 . S
O591 Li530 1.970 . S
O591 Li531 1.956 . S
O591 C566 1.325 . S
H592 C534 0.929 . S
H593 C535 0.930 . S
H594 C536 0.930 . S
H595 C537 0.930 . S
H596 C539 0.930 . S
H597 C541 0.929 . S
H598 C542 0.930 . S
H599 C543 0.930 . S
H600 C546 0.930 . S
H601 C549 0.929 . S
H602 C554 0.929 . S
H603 C555 0.930 . S
H604 C562 0.929 . S
H605 C563 0.930 . S
H606 C564 0.930 . S
H607 C565 0.930 . S
H608 C567 0.929 . S
H609 C568 0.930 . S
H610 C569 0.930 . S
H611 C570 0.930 . S
H612 C574 0.929 . S
H613 C576 0.930 . S
H614 C582 0.929 . S
H615 C583 0.930 . S
Li616 N633 1.990 . S
Li616 O676 1.956 . S
Li616 O677 1.970 . S
Li616 O678 1.961 . S
Li617 N641 1.990 . S
Li617 O676 1.970 . S
Li617 O677 1.956 . S
Li617 O679 1.961 . S
Li618 N663 1.990 . S
Li618 O676 1.961 . S
Li618 O678 1.956 . S
Li618 O679 1.970 . S
Li619 N669 1.990 . S
Li619 O677 1.961 . S
Li619 O678 1.970 . S
Li619 O679 1.956 . S
C620 C622 1.348 . S
C620 C623 1.356 . S
C620 O676 1.325 . S
N621 C624 1.314 . S
N621 C625 1.279 . S
C622 C620 1.348 . S
C622 C624 1.353 1_565 S
C622 H680 0.929 . S
C623 C620 1.356 . S
C623 C625 1.358 1_565 S
C623 H681 0.930 . S
C624 N621 1.314 . S
C624 C622 1.353 1_545 S
C624 H682 0.930 . S
C625 N621 1.279 . S
C625 C623 1.358 1_545 S
C625 H683 0.930 . S
C626 C629 1.348 . S
C626 C630 1.356 . S
C626 O677 1.325 . S
C627 N628 1.279 . S
C627 C630 1.358 . S
C627 H684 0.930 . S
N628 C627 1.279 . S
N628 C631 1.314 . S
C629 C626 1.348 . S
C629 C631 1.353 . S
C629 H685 0.929 . S
C630 C626 1.356 . S
C630 C627 1.358 . S
C630 H686 0.930 . S
C631 N628 1.314 . S
C631 C629 1.353 . S
C631 H687 0.930 . S
C632 N633 1.314 . S
C632 C637 1.353 . S
C632 H638 0.930 . S
N633 Li616 1.990 . S
N633 C632 1.314 . S
N633 C635 1.279 1_565 S
C634 C635 1.358 . S
C634 C636 1.356 . S
C634 H688 0.930 . S
C635 N633 1.279 1_545 S
C635 C634 1.358 . S
C635 H639 0.930 . S
C636 C634 1.356 . S
C636 C637 1.348 1_545 S
C637 C632 1.353 . S
C637 C636 1.348 1_565 S
C637 H689 0.929 . S
H638 C632 0.930 . S
H639 C635 0.930 . S
C640 N641 1.314 . S
C640 C642 1.353 . S
C640 H646 0.930 . S
N641 Li617 1.990 . S
N641 C640 1.314 . S
N641 C644 1.279 . S
C642 C640 1.353 . S
C642 C645 1.348 . S
C642 H690 0.929 . S
C643 C644 1.358 . S
C643 C645 1.356 . S
C643 H691 0.930 . S
C644 N641 1.279 . S
C644 C643 1.358 . S
C644 H647 0.930 . S
C645 C642 1.348 . S
C645 C643 1.356 . S
H646 C640 0.930 . S
H647 C644 0.930 . S
C648 C650 1.348 . S
C648 C651 1.356 . S
C648 O678 1.325 . S
N649 C652 1.314 . S
N649 C653 1.279 . S
C650 C648 1.348 . S
C650 C652 1.353 . S
C650 H692 0.929 . S
C651 C648 1.356 . S
C651 C653 1.358 . S
C651 H693 0.930 . S
C652 N649 1.314 . S
C652 C650 1.353 . S
C652 H694 0.930 . S
C653 N649 1.279 . S
C653 C651 1.358 . S
C653 H695 0.930 . S
C654 C655 1.348 . S
C654 C656 1.356 . S
C654 O679 1.325 . S
C655 C654 1.348 . S
C655 C657 1.353 . S
C655 H696 0.929 . S
C656 C654 1.356 . S
C656 C658 1.358 . S
C656 H697 0.930 . S
C657 C655 1.353 . S
C657 N659 1.314 . S
C657 H698 0.930 . S
C658 C656 1.358 . S
C658 N659 1.279 . S
C658 H699 0.930 . S
N659 C657 1.314 . S
N659 C658 1.279 . S
C660 C662 1.353 . S
C660 N663 1.314 . S
C660 H666 0.930 . S
C661 N663 1.279 . S
C661 C664 1.358 . S
C661 H667 0.930 . S
C662 C660 1.353 . S
C662 C665 1.348 . S
C662 H700 0.929 . S
N663 Li618 1.990 . S
N663 C660 1.314 . S
N663 C661 1.279 . S
C664 C661 1.358 . S
C664 C665 1.356 . S
C664 H701 0.930 . S
C665 C662 1.348 . S
C665 C664 1.356 . S
H666 C660 0.930 . S
H667 C661 0.930 . S
C668 N669 1.314 . S
C668 C670 1.353 . S
C668 H674 0.930 . S
N669 Li619 1.990 . S
N669 C668 1.314 . S
N669 C672 1.279 . S
C670 C668 1.353 . S
C670 C673 1.348 . S
C670 H702 0.929 . S
C671 C672 1.358 . S
C671 C673 1.356 . S
C671 H703 0.930 . S
C672 N669 1.279 . S
C672 C671 1.358 . S
C672 H675 0.930 . S
C673 C670 1.348 . S
C673 C671 1.356 . S
H674 C668 0.930 . S
H675 C672 0.930 . S
O676 Li616 1.956 . S
O676 Li617 1.970 . S
O676 Li618 1.961 . S
O676 C620 1.325 . S
O677 Li616 1.970 . S
O677 Li617 1.956 . S
O677 Li619 1.961 . S
O677 C626 1.325 . S
O678 Li616 1.961 . S
O678 Li618 1.956 . S
O678 Li619 1.970 . S
O678 C648 1.325 . S
O679 Li617 1.961 . S
O679 Li618 1.970 . S
O679 Li619 1.956 . S
O679 C654 1.325 . S
H680 C622 0.929 . S
H681 C623 0.930 . S
H682 C624 0.930 . S
H683 C625 0.930 . S
H684 C627 0.930 . S
H685 C629 0.929 . S
H686 C630 0.930 . S
H687 C631 0.930 . S
H688 C634 0.930 . S
H689 C637 0.929 . S
H690 C642 0.929 . S
H691 C643 0.930 . S
H692 C650 0.929 . S
H693 C651 0.930 . S
H694 C652 0.930 . S
H695 C653 0.930 . S
H696 C655 0.929 . S
H697 C656 0.930 . S
H698 C657 0.930 . S
H699 C658 0.930 . S
H700 C662 0.929 . S
H701 C664 0.930 . S
H702 C670 0.929 . S
H703 C671 0.930 . S
C704 C705 1.363 . S
C704 C710 1.379 1_455 S
C704 N712 1.356 . S
C705 C704 1.363 . S
C705 C711 1.363 1_565 S
C706 C707 1.363 . S
C706 C711 1.379 1_655 S
C706 N713 1.356 . S
C707 C706 1.363 . S
C707 C710 1.363 1_545 S
N708 C710 1.356 . S
N708 H720 0.984 . S
N708 H721 0.985 . S
N709 C711 1.356 . S
N709 H714 0.984 . S
N709 H715 0.985 . S
C710 C704 1.379 1_655 S
C710 C707 1.363 1_565 S
C710 N708 1.356 . S
C711 C705 1.363 1_545 S
C711 C706 1.379 1_455 S
C711 N709 1.356 . S
N712 C704 1.356 . S
N712 H718 0.984 . S
N712 H719 0.984 . S
N713 C706 1.356 . S
N713 H716 0.984 . S
N713 H717 0.985 . S
H714 N709 0.984 . S
H715 N709 0.985 . S
H716 N713 0.984 . S
H717 N713 0.985 . S
H718 N712 0.984 . S
H719 N712 0.984 . S
H720 N708 0.984 . S
H721 N708 0.985 . S
C722 C723 1.363 . S
C722 C728 1.379 . S
C722 N730 1.356 . S
C723 C722 1.363 . S
C723 C729 1.363 . S
C724 C725 1.363 . S
C724 C729 1.379 . S
C724 N731 1.356 . S
C725 C724 1.363 . S
C725 C728 1.363 . S
N726 C728 1.356 . S
N726 H738 0.984 . S
N726 H739 0.985 . S
N727 C729 1.356 . S
N727 H732 0.984 . S
N727 H733 0.985 . S
C728 C722 1.379 . S
C728 C725 1.363 . S
C728 N726 1.356 . S
C729 C723 1.363 . S
C729 C724 1.379 . S
C729 N727 1.356 . S
N730 C722 1.356 . S
N730 H736 0.984 . S
N730 H737 0.984 . S
N731 C724 1.356 . S
N731 H734 0.984 . S
N731 H735 0.985 . S
H732 N727 0.984 . S
H733 N727 0.985 . S
H734 N731 0.984 . S
H735 N731 0.985 . S
H736 N730 0.984 . S
H737 N730 0.984 . S
H738 N726 0.984 . S
H739 N726 0.985 . S
C740 C741 1.363 . S
C740 C746 1.379 . S
C740 N748 1.356 . S
C741 C740 1.363 . S
C741 C747 1.363 . S
C742 C743 1.363 . S
C742 C747 1.379 . S
C742 N749 1.356 . S
C743 C742 1.363 . S
C743 C746 1.363 . S
N744 C746 1.356 . S
N744 H756 0.984 . S
N744 H757 0.985 . S
N745 C747 1.356 . S
N745 H750 0.984 . S
N745 H751 0.985 . S
C746 C740 1.379 . S
C746 C743 1.363 . S
C746 N744 1.356 . S
C747 C741 1.363 . S
C747 C742 1.379 . S
C747 N745 1.356 . S
N748 C740 1.356 . S
N748 H754 0.984 . S
N748 H755 0.984 . S
N749 C742 1.356 . S
N749 H752 0.984 . S
N749 H753 0.985 . S
H750 N745 0.984 . S
H751 N745 0.985 . S
H752 N749 0.984 . S
H753 N749 0.985 . S
H754 N748 0.984 . S
H755 N748 0.984 . S
H756 N744 0.984 . S
H757 N744 0.985 . S
C758 C759 1.363 1_455 S
C758 C764 1.379 1_545 S
C758 N766 1.356 . S
C759 C758 1.363 1_655 S
C759 C765 1.363 . S
C760 C761 1.363 1_655 S
C760 C765 1.379 1_565 S
C760 N767 1.356 . S
C761 C760 1.363 1_455 S
C761 C764 1.363 . S
N762 C764 1.356 . S
N762 H774 0.984 . S
N762 H775 0.985 . S
N763 C765 1.356 . S
N763 H768 0.984 . S
N763 H769 0.985 . S
C764 C758 1.379 1_565 S
C764 C761 1.363 . S
C764 N762 1.356 . S
C765 C759 1.363 . S
C765 C760 1.379 1_545 S
C765 N763 1.356 . S
N766 C758 1.356 . S
N766 H772 0.984 . S
N766 H773 0.984 . S
N767 C760 1.356 . S
N767 H770 0.984 . S
N767 H771 0.985 . S
H768 N763 0.984 . S
H769 N763 0.985 . S
H770 N767 0.984 . S
H771 N767 0.985 . S
H772 N766 0.984 . S
H773 N766 0.984 . S
H774 N762 0.984 . S
H775 N762 0.985 . S
C776 C777 1.363 . S
C776 C782 1.379 . S
C776 N784 1.356 . S
C777 C776 1.363 . S
C777 C783 1.363 . S
C778 C779 1.363 . S
C778 C783 1.379 . S
C778 N785 1.356 . S
C779 C778 1.363 . S
C779 C782 1.363 . S
N780 C782 1.356 . S
N780 H792 0.984 . S
N780 H793 0.985 . S
N781 C783 1.356 . S
N781 H786 0.984 . S
N781 H787 0.985 . S
C782 C776 1.379 . S
C782 C779 1.363 . S
C782 N780 1.356 . S
C783 C777 1.363 . S
C783 C778 1.379 . S
C783 N781 1.356 . S
N784 C776 1.356 . S
N784 H790 0.984 . S
N784 H791 0.984 . S
N785 C778 1.356 . S
N785 H788 0.984 . S
N785 H789 0.985 . S
H786 N781 0.984 . S
H787 N781 0.985 . S
H788 N785 0.984 . S
H789 N785 0.985 . S
H790 N784 0.984 . S
H791 N784 0.984 . S
H792 N780 0.984 . S
H793 N780 0.985 . S
C794 C795 1.363 1_554 S
C794 C800 1.379 . S
C794 N802 1.354 1_554 S
C795 C794 1.363 1_556 S
C795 C801 1.363 . S
C796 C797 1.363 1_556 S
C796 C801 1.379 . S
C796 N803 1.356 1_556 S
C797 C796 1.363 1_554 S
C797 C800 1.363 . S
N798 C800 1.356 . S
N798 H810 0.984 . S
N798 H811 0.985 . S
N799 C801 1.356 . S
N799 H804 0.984 . S
N799 H805 0.985 . S
C800 C794 1.379 . S
C800 C797 1.363 . S
C800 N798 1.356 . S
C801 C795 1.363 . S
C801 C796 1.379 . S
C801 N799 1.356 . S
N802 C794 1.354 1_556 S
N802 H808 0.973 1_556 S
N802 H809 0.999 . S
N803 C796 1.356 1_554 S
N803 H806 0.984 . S
N803 H807 0.985 1_554 S
H804 N799 0.984 . S
H805 N799 0.985 . S
H806 N803 0.984 . S
H807 N803 0.985 1_556 S
H808 N802 0.973 1_554 S
H809 N802 0.999 . S
H810 N798 0.984 . S
H811 N798 0.985 . S
C812 C813 1.363 . S
C812 C818 1.379 . S
C812 N820 1.356 . S
C813 C812 1.363 . S
C813 C819 1.363 . S
C814 C815 1.363 . S
C814 C819 1.379 . S
C814 N821 1.356 . S
C815 C814 1.363 . S
C815 C818 1.363 . S
N816 C818 1.356 . S
N816 H828 0.984 . S
N816 H829 0.985 . S
N817 C819 1.356 . S
N817 H822 0.984 . S
N817 H823 0.985 . S
C818 C812 1.379 . S
C818 C815 1.363 . S
C818 N816 1.356 . S
C819 C813 1.363 . S
C819 C814 1.379 . S
C819 N817 1.356 . S
N820 C812 1.356 . S
N820 H826 0.984 . S
N820 H827 0.984 . S
N821 C814 1.356 . S
N821 H824 0.984 . S
N821 H825 0.985 . S
H822 N817 0.984 . S
H823 N817 0.985 . S
H824 N821 0.984 . S
H825 N821 0.985 . S
H826 N820 0.984 . S
H827 N820 0.984 . S
H828 N816 0.984 . S
H829 N816 0.985 . S
C830 C831 1.363 . S
C830 C836 1.379 . S
C830 N838 1.356 . S
C831 C830 1.363 . S
C831 C837 1.363 1_556 S
C832 C833 1.363 . S
C832 C837 1.379 . S
C832 N839 1.356 . S
C833 C832 1.363 . S
C833 C836 1.363 1_554 S
N834 C836 1.356 . S
N834 H846 0.984 . S
N834 H847 0.985 1_556 S
N835 C837 1.356 . S
N835 H840 0.984 1_554 S
N835 H841 0.985 . S
C836 C830 1.379 . S
C836 C833 1.363 1_556 S
C836 N834 1.356 . S
C837 C831 1.363 1_554 S
C837 C832 1.379 . S
C837 N835 1.356 . S
N838 C830 1.356 . S
N838 H844 0.984 . S
N838 H845 0.984 . S
N839 C832 1.356 . S
N839 H842 0.984 . S
N839 H843 0.985 . S
H840 N835 0.984 1_556 S
H841 N835 0.985 . S
H842 N839 0.984 . S
H843 N839 0.985 . S
H844 N838 0.984 . S
H845 N838 0.984 . S
H846 N834 0.984 . S
H847 N834 0.985 1_554 S
C848 C849 1.363 . S
C848 C854 1.379 . S
C848 N856 1.356 . S
C849 C848 1.363 . S
C849 C855 1.363 . S
C850 C851 1.363 . S
C850 C855 1.379 . S
C850 N857 1.356 . S
C851 C850 1.363 . S
C851 C854 1.363 . S
N852 C854 1.356 . S
N852 H864 0.984 . S
N852 H865 0.985 . S
N853 C855 1.356 . S
N853 H858 0.984 . S
N853 H859 0.985 . S
C854 C848 1.379 . S
C854 C851 1.363 . S
C854 N852 1.356 . S
C855 C849 1.363 . S
C855 C850 1.379 . S
C855 N853 1.356 . S
N856 C848 1.356 . S
N856 H862 0.984 . S
N856 H863 0.984 . S
N857 C850 1.356 . S
N857 H860 0.984 . S
N857 H861 0.985 . S
H858 N853 0.984 . S
H859 N853 0.985 . S
H860 N857 0.984 . S
H861 N857 0.985 . S
H862 N856 0.984 . S
H863 N856 0.984 . S
H864 N852 0.984 . S
H865 N852 0.985 . S
C866 C867 1.363 . S
C866 C872 1.379 . S
C866 N874 1.356 . S
C867 C866 1.363 . S
C867 C873 1.363 . S
C868 C869 1.363 . S
C868 C873 1.379 . S
C868 N875 1.356 . S
C869 C868 1.363 . S
C869 C872 1.363 . S
N870 C872 1.356 . S
N870 H882 0.984 . S
N870 H883 0.985 . S
N871 C873 1.356 . S
N871 H876 0.984 . S
N871 H877 0.985 . S
C872 C866 1.379 . S
C872 C869 1.363 . S
C872 N870 1.356 . S
C873 C867 1.363 . S
C873 C868 1.379 . S
C873 N871 1.356 . S
N874 C866 1.356 . S
N874 H880 0.984 . S
N874 H881 0.984 . S
N875 C868 1.356 . S
N875 H878 0.984 . S
N875 H879 0.985 . S
H876 N871 0.984 . S
H877 N871 0.985 . S
H878 N875 0.984 . S
H879 N875 0.985 . S
H880 N874 0.984 . S
H881 N874 0.984 . S
H882 N870 0.984 . S
H883 N870 0.985 . S
C884 C885 1.363 . S
C884 C890 1.379 . S
C884 N892 1.356 . S
C885 C884 1.363 . S
C885 C891 1.363 . S
C886 C887 1.363 . S
C886 C891 1.379 . S
C886 N893 1.356 . S
C887 C886 1.363 . S
C887 C890 1.363 . S
N888 C890 1.356 . S
N888 H900 0.984 . S
N888 H901 0.985 . S
N889 C891 1.356 . S
N889 H894 0.984 . S
N889 H895 0.985 . S
C890 C884 1.379 . S
C890 C887 1.363 . S
C890 N888 1.356 . S
C891 C885 1.363 . S
C891 C886 1.379 . S
C891 N889 1.356 . S
N892 C884 1.356 . S
N892 H898 0.984 . S
N892 H899 0.984 . S
N893 C886 1.356 . S
N893 H896 0.984 . S
N893 H897 0.985 . S
H894 N889 0.984 . S
H895 N889 0.985 . S
H896 N893 0.984 . S
H897 N893 0.985 . S
H898 N892 0.984 . S
H899 N892 0.984 . S
H900 N888 0.984 . S
H901 N888 0.985 . S
C902 C903 1.363 . S
C902 C908 1.379 . S
C902 N910 1.356 . S
C903 C902 1.363 . S
C903 C909 1.363 . S
C904 C905 1.363 . S
C904 C909 1.379 . S
C904 N911 1.356 . S
C905 C904 1.363 . S
C905 C908 1.363 . S
N906 C908 1.356 . S
N906 H918 0.984 . S
N906 H919 0.985 . S
N907 C909 1.356 . S
N907 H912 0.984 . S
N907 H913 0.985 . S
C908 C902 1.379 . S
C908 C905 1.363 . S
C908 N906 1.356 . S
C909 C903 1.363 . S
C909 C904 1.379 . S
C909 N907 1.356 . S
N910 C902 1.356 . S
N910 H916 0.984 . S
N910 H917 0.984 . S
N911 C904 1.356 . S
N911 H914 0.984 . S
N911 H915 0.985 . S
H912 N907 0.984 . S
H913 N907 0.985 . S
H914 N911 0.984 . S
H915 N911 0.985 . S
H916 N910 0.984 . S
H917 N910 0.984 . S
H918 N906 0.984 . S
H919 N906 0.985 . S
C920 C921 1.363 . S
C920 C926 1.379 . S
C920 N928 1.356 . S
C921 C920 1.363 . S
C921 C927 1.363 . S
C922 C923 1.363 . S
C922 C927 1.379 . S
C922 N929 1.356 . S
C923 C922 1.363 . S
C923 C926 1.363 . S
N924 C926 1.356 . S
N924 H936 0.984 . S
N924 H937 0.985 . S
N925 C927 1.356 . S
N925 H930 0.984 . S
N925 H931 0.985 . S
C926 C920 1.379 . S
C926 C923 1.363 . S
C926 N924 1.356 . S
C927 C921 1.363 . S
C927 C922 1.379 . S
C927 N925 1.356 . S
N928 C920 1.356 . S
N928 H934 0.984 . S
N928 H935 0.984 . S
N929 C922 1.356 . S
N929 H932 0.984 . S
N929 H933 0.985 . S
H930 N925 0.984 . S
H931 N925 0.985 . S
H932 N929 0.984 . S
H933 N929 0.985 . S
H934 N928 0.984 . S
H935 N928 0.984 . S
H936 N924 0.984 . S
H937 N924 0.985 . S
C938 C939 1.363 . S
C938 C944 1.379 . S
C938 N946 1.356 . S
C939 C938 1.363 . S
C939 C945 1.363 . S
C940 C941 1.363 . S
C940 C945 1.379 . S
C940 N947 1.356 . S
C941 C940 1.363 . S
C941 C944 1.363 . S
N942 C944 1.356 . S
N942 H954 0.984 . S
N942 H955 0.985 . S
N943 C945 1.356 . S
N943 H948 0.984 . S
N943 H949 0.985 . S
C944 C938 1.379 . S
C944 C941 1.363 . S
C944 N942 1.356 . S
C945 C939 1.363 . S
C945 C940 1.379 . S
C945 N943 1.356 . S
N946 C938 1.356 . S
N946 H952 0.984 . S
N946 H953 0.984 . S
N947 C940 1.356 . S
N947 H950 0.984 . S
N947 H951 0.985 . S
H948 N943 0.984 . S
H949 N943 0.985 . S
H950 N947 0.984 . S
H951 N947 0.985 . S
H952 N946 0.984 . S
H953 N946 0.984 . S
H954 N942 0.984 . S
H955 N942 0.985 . S
C956 C957 1.363 . S
C956 C962 1.379 . S
C956 N964 1.356 . S
C957 C956 1.363 . S
C957 C963 1.363 . S
C958 C959 1.363 . S
C958 C963 1.379 . S
C958 N965 1.356 . S
C959 C958 1.363 . S
C959 C962 1.363 . S
N960 C962 1.356 . S
N960 H972 0.984 . S
N960 H973 0.985 . S
N961 C963 1.356 . S
N961 H966 0.984 . S
N961 H967 0.985 . S
C962 C956 1.379 . S
C962 C959 1.363 . S
C962 N960 1.356 . S
C963 C957 1.363 . S
C963 C958 1.379 . S
C963 N961 1.356 . S
N964 C956 1.356 . S
N964 H970 0.984 . S
N964 H971 0.984 . S
N965 C958 1.356 . S
N965 H968 0.984 . S
N965 H969 0.985 . S
H966 N961 0.984 . S
H967 N961 0.985 . S
H968 N965 0.984 . S
H969 N965 0.985 . S
H970 N964 0.984 . S
H971 N964 0.984 . S
H972 N960 0.984 . S
H973 N960 0.985 . S
C974 C975 1.363 . S
C974 C980 1.379 . S
C974 N982 1.356 . S
C975 C974 1.363 . S
C975 C981 1.363 . S
C976 C977 1.363 . S
C976 C981 1.379 . S
C976 N983 1.356 . S
C977 C976 1.363 . S
C977 C980 1.363 . S
N978 C980 1.356 . S
N978 H990 0.984 . S
N978 H991 0.985 . S
N979 C981 1.356 . S
N979 H984 0.984 . S
N979 H985 0.985 . S
C980 C974 1.379 . S
C980 C977 1.363 . S
C980 N978 1.356 . S
C981 C975 1.363 . S
C981 C976 1.379 . S
C981 N979 1.356 . S
N982 C974 1.356 . S
N982 H988 0.984 . S
N982 H989 0.984 . S
N983 C976 1.356 . S
N983 H986 0.984 . S
N983 H987 0.985 . S
H984 N979 0.984 . S
H985 N979 0.985 . S
H986 N983 0.984 . S
H987 N983 0.985 . S
H988 N982 0.984 . S
H989 N982 0.984 . S
H990 N978 0.984 . S
H991 N978 0.985 . S
C705 C57 0.813 1_565 S
C707 C233 0.813 1_545 S
C723 C137 0.838 . S
C725 C293 0.838 . S
C741 C372 0.813 . S
C743 C557 0.813 . S
C759 C489 0.838 1_655 S
C761 C645 0.838 1_455 S
C777 C29 2.118 . S
C779 C469 2.146 . S
C795 C117 2.145 . S
C797 C585 2.118 . S
C813 C665 2.146 . S
C815 C205 2.118 . S
C831 C313 2.146 . S
C833 C401 2.118 . S
C849 C409 1.962 . S
C851 C49 2.129 . S
C867 C108 2.080 . S
C869 C497 1.921 . S
C885 C225 2.129 . S
C887 C577 1.962 . S
C903 C321 2.080 . S
C905 C636 1.921 . S
C921 C20 1.962 . S
C923 C381 2.129 . S
C939 C460 2.080 . S
C941 C145 1.921 . S
C957 C548 2.129 . S
C959 C196 1.962 . S
C975 C284 1.921 . S
C977 C673 2.080 . S
