# Generated by pormake.
# Topology reo-e, (6)-cn, num edge types: 1
# Building blocks:
#     Node 0, Type 0, BuildingBlock: MIDCAF_clean_sbu_0, # of connection points: 6
#     Node 1, Type 0, BuildingBlock: MIDCAF_clean_sbu_0, # of connection points: 6
#     Node 2, Type 0, BuildingBlock: MIDCAF_clean_sbu_0, # of connection points: 6
#     Node 3, Type 0, BuildingBlock: MIDCAF_clean_sbu_0, # of connection points: 6
#     Node 4, Type 0, BuildingBlock: MIDCAF_clean_sbu_0, # of connection points: 6
#     Node 5, Type 0, BuildingBlock: MIDCAF_clean_sbu_0, # of connection points: 6
#     Node 6, Type 0, BuildingBlock: MIDCAF_clean_sbu_0, # of connection points: 6
#     Node 7, Type 0, BuildingBlock: MIDCAF_clean_sbu_0, # of connection points: 6
#     Node 8, Type 0, BuildingBlock: MIDCAF_clean_sbu_0, # of connection points: 6
#     Node 9, Type 0, BuildingBlock: MIDCAF_clean_sbu_0, # of connection points: 6
#     Node 10, Type 0, BuildingBlock: MIDCAF_clean_sbu_0, # of connection points: 6
#     Node 11, Type 0, BuildingBlock: MIDCAF_clean_sbu_0, # of connection points: 6
#     Edge 12, Type (0, 0), BuildingBlock: XIVTED_clean_linker_0, # of connection points: 2
#     Edge 13, Type (0, 0), BuildingBlock: XIVTED_clean_linker_0, # of connection points: 2
#     Edge 14, Type (0, 0), BuildingBlock: XIVTED_clean_linker_0, # of connection points: 2
#     Edge 15, Type (0, 0), BuildingBlock: XIVTED_clean_linker_0, # of connection points: 2
#     Edge 16, Type (0, 0), BuildingBlock: XIVTED_clean_linker_0, # of connection points: 2
#     Edge 17, Type (0, 0), BuildingBlock: XIVTED_clean_linker_0, # of connection points: 2
#     Edge 18, Type (0, 0), BuildingBlock: XIVTED_clean_linker_0, # of connection points: 2
#     Edge 19, Type (0, 0), BuildingBlock: XIVTED_clean_linker_0, # of connection points: 2
#     Edge 20, Type (0, 0), BuildingBlock: XIVTED_clean_linker_0, # of connection points: 2
#     Edge 21, Type (0, 0), BuildingBlock: XIVTED_clean_linker_0, # of connection points: 2
#     Edge 22, Type (0, 0), BuildingBlock: XIVTED_clean_linker_0, # of connection points: 2
#     Edge 23, Type (0, 0), BuildingBlock: XIVTED_clean_linker_0, # of connection points: 2
#     Edge 24, Type (0, 0), BuildingBlock: XIVTED_clean_linker_0, # of connection points: 2
#     Edge 25, Type (0, 0), BuildingBlock: XIVTED_clean_linker_0, # of connection points: 2
#     Edge 26, Type (0, 0), BuildingBlock: XIVTED_clean_linker_0, # of connection points: 2
#     Edge 27, Type (0, 0), BuildingBlock: XIVTED_clean_linker_0, # of connection points: 2
#     Edge 28, Type (0, 0), BuildingBlock: XIVTED_clean_linker_0, # of connection points: 2
#     Edge 29, Type (0, 0), BuildingBlock: XIVTED_clean_linker_0, # of connection points: 2
#     Edge 30, Type (0, 0), BuildingBlock: XIVTED_clean_linker_0, # of connection points: 2
#     Edge 31, Type (0, 0), BuildingBlock: XIVTED_clean_linker_0, # of connection points: 2
#     Edge 32, Type (0, 0), BuildingBlock: XIVTED_clean_linker_0, # of connection points: 2
#     Edge 33, Type (0, 0), BuildingBlock: XIVTED_clean_linker_0, # of connection points: 2
#     Edge 34, Type (0, 0), BuildingBlock: XIVTED_clean_linker_0, # of connection points: 2
#     Edge 35, Type (0, 0), BuildingBlock: XIVTED_clean_linker_0, # of connection points: 2
#     Edge 36, Type (0, 0), BuildingBlock: XIVTED_clean_linker_0, # of connection points: 2
#     Edge 37, Type (0, 0), BuildingBlock: XIVTED_clean_linker_0, # of connection points: 2
#     Edge 38, Type (0, 0), BuildingBlock: XIVTED_clean_linker_0, # of connection points: 2
#     Edge 39, Type (0, 0), BuildingBlock: XIVTED_clean_linker_0, # of connection points: 2
#     Edge 40, Type (0, 0), BuildingBlock: XIVTED_clean_linker_0, # of connection points: 2
#     Edge 41, Type (0, 0), BuildingBlock: XIVTED_clean_linker_0, # of connection points: 2
#     Edge 42, Type (0, 0), BuildingBlock: XIVTED_clean_linker_0, # of connection points: 2
#     Edge 43, Type (0, 0), BuildingBlock: XIVTED_clean_linker_0, # of connection points: 2
#     Edge 44, Type (0, 0), BuildingBlock: XIVTED_clean_linker_0, # of connection points: 2
#     Edge 45, Type (0, 0), BuildingBlock: XIVTED_clean_linker_0, # of connection points: 2
#     Edge 46, Type (0, 0), BuildingBlock: XIVTED_clean_linker_0, # of connection points: 2
#     Edge 47, Type (0, 0), BuildingBlock: XIVTED_clean_linker_0, # of connection points: 2
# Relax obj value: 0.261
# Max RMSD: 0.248
# Mean RMSD: 0.246
data_MOF--net-reo-e--node1-MIDCAF_clean_sbu_0--edge1-XIVTED_clean_linker_0
_symmetry_space_group_name_H-M    P1
_symmetry_Int_Tables_number       1
_symmetry_cell_setting            triclinic
loop_
_symmetry_equiv_pos_as_xyz
'x, y, z'
_cell_length_a     38.188205
_cell_length_b     37.710237
_cell_length_c     37.964933
_cell_angle_alpha  90.653777
_cell_angle_beta   89.630811
_cell_angle_gamma 90.516026
loop_
_atom_site_label
_atom_site_type_symbol
_atom_site_fract_x
_atom_site_fract_y
_atom_site_fract_z
_atom_type_partial_charge
Zn0 Zn 0.13372 0.23568 0.48556 0.0
Zn1 Zn 0.23013 0.13307 0.4795 0.0
Zn2 Zn 0.18171 0.18553 0.48163 0.0
C3 C 0.239 0.17424 0.41875 0.0
C4 C 0.16339 0.10152 0.48332 0.0
O5 O 0.18926 0.21711 0.53026 0.0
O6 O 0.14134 0.24931 0.536 0.0
C7 C 0.1793 0.25119 0.42921 0.0
O8 O 0.21463 0.19244 0.4338 0.0
O9 O 0.24988 0.14607 0.43246 0.0
O10 O 0.19548 0.09381 0.4833 0.0
O11 O 0.15351 0.13401 0.48169 0.0
O12 O 0.15635 0.26556 0.44863 0.0
O13 O 0.19044 0.21991 0.43597 0.0
O14 O 0.12872 0.16046 0.47997 0.0
O15 O 0.09268 0.2054 0.47272 0.0
C16 C 0.09773 0.17244 0.47459 0.0
O17 O 0.21458 0.19058 0.52898 0.0
O18 O 0.25446 0.14849 0.52353 0.0
C19 C 0.17031 0.23916 0.54796 0.0
C20 C 0.2416 0.17431 0.54049 0.0
Zn21 Zn 0.83166 0.23019 0.47992 0.0
Zn22 Zn 0.72796 0.14246 0.48924 0.0
Zn23 Zn 0.77959 0.18924 0.48701 0.0
C24 C 0.72514 0.18392 0.55142 0.0
C25 C 0.78888 0.10345 0.48454 0.0
O26 O 0.77501 0.21822 0.43678 0.0
O27 O 0.82791 0.24109 0.42901 0.0
C28 C 0.79137 0.25816 0.53526 0.0
O29 O 0.74907 0.20184 0.53526 0.0
O30 O 0.71345 0.15527 0.53832 0.0
O31 O 0.7563 0.09901 0.48087 0.0
O32 O 0.80183 0.13487 0.48897 0.0
O33 O 0.81533 0.26666 0.51381 0.0
O34 O 0.77554 0.22799 0.53175 0.0
O35 O 0.8298 0.15859 0.48874 0.0
O36 O 0.87056 0.20012 0.49475 0.0
C37 C 0.86203 0.16779 0.49374 0.0
O38 O 0.74556 0.19642 0.44006 0.0
O39 O 0.69956 0.16185 0.4501 0.0
C40 C 0.79736 0.23537 0.41775 0.0
C41 C 0.71492 0.18477 0.43142 0.0
Zn42 Zn 0.73524 0.82678 0.48945 0.0
Zn43 Zn 0.82513 0.73144 0.47079 0.0
Zn44 Zn 0.77791 0.77868 0.48602 0.0
C45 C 0.86092 0.79517 0.47439 0.0
C46 C 0.77813 0.72181 0.41893 0.0
O47 O 0.74552 0.76717 0.53369 0.0
O48 O 0.70104 0.80089 0.51917 0.0
C49 C 0.7951 0.86098 0.5047 0.0
O50 O 0.83036 0.80511 0.48496 0.0
O51 O 0.86583 0.7636 0.46432 0.0
O52 O 0.80587 0.70731 0.42892 0.0
O53 O 0.76545 0.74851 0.43616 0.0
O54 O 0.7632 0.86502 0.51233 0.0
O55 O 0.80544 0.83122 0.49138 0.0
O56 O 0.74474 0.77828 0.43829 0.0
O57 O 0.72335 0.83242 0.4388 0.0
C58 C 0.72756 0.80306 0.42318 0.0
O59 O 0.77392 0.74205 0.5311 0.0
O60 O 0.81774 0.70678 0.51614 0.0
C61 C 0.71383 0.77769 0.53889 0.0
C62 C 0.79343 0.71517 0.53732 0.0
Zn63 Zn 0.13342 0.73129 0.48693 0.0
Zn64 Zn 0.22846 0.83371 0.4818 0.0
Zn65 Zn 0.18048 0.78084 0.48353 0.0
C66 C 0.16266 0.86481 0.47921 0.0
C67 C 0.24008 0.78967 0.4228 0.0
O68 O 0.19019 0.74776 0.53044 0.0
O69 O 0.15689 0.70028 0.52139 0.0
C70 C 0.09806 0.79377 0.4977 0.0
O71 O 0.15284 0.83234 0.48325 0.0
O72 O 0.1947 0.87281 0.47646 0.0
O73 O 0.253 0.81627 0.43867 0.0
O74 O 0.21279 0.77361 0.43514 0.0
O75 O 0.09391 0.76119 0.50389 0.0
O76 O 0.12801 0.80562 0.48705 0.0
O77 O 0.18517 0.74917 0.43454 0.0
O78 O 0.13567 0.71831 0.43594 0.0
C79 C 0.16315 0.72776 0.41978 0.0
O80 O 0.21345 0.77623 0.53065 0.0
O81 O 0.24757 0.82405 0.52958 0.0
C82 C 0.17994 0.71643 0.53921 0.0
C83 C 0.23724 0.79613 0.54467 0.0
Zn84 Zn 0.47412 0.23774 0.13755 0.0
Zn85 Zn 0.4936 0.14641 0.23826 0.0
Zn86 Zn 0.48605 0.19428 0.18736 0.0
C87 C 0.5518 0.19232 0.24101 0.0
C88 C 0.49074 0.10913 0.17431 0.0
O89 O 0.43506 0.22127 0.19673 0.0
O90 O 0.42414 0.2484 0.14675 0.0
C91 C 0.53233 0.26407 0.1747 0.0
O92 O 0.53512 0.2083 0.21645 0.0
O93 O 0.53988 0.16399 0.25397 0.0
O94 O 0.4922 0.10383 0.20703 0.0
O95 O 0.48878 0.14086 0.16228 0.0
O96 O 0.50967 0.27317 0.15255 0.0
O97 O 0.52957 0.23377 0.18993 0.0
O98 O 0.4864 0.1652 0.13536 0.0
O99 O 0.4852 0.20806 0.09612 0.0
C100 C 0.48748 0.17559 0.1031 0.0
O101 O 0.4405 0.19749 0.22385 0.0
O102 O 0.45166 0.16018 0.26689 0.0
C103 C 0.4146 0.23967 0.17733 0.0
C104 C 0.43215 0.18316 0.25342 0.0
Zn105 Zn 0.71117 0.48399 0.11504 0.0
Zn106 Zn 0.82966 0.49746 0.24569 0.0
Zn107 Zn 0.78759 0.48431 0.19239 0.0
C108 C 0.77901 0.55153 0.24241 0.0
C109 C 0.87066 0.49577 0.18285 0.0
O110 O 0.76016 0.43396 0.1987 0.0
O111 O 0.73647 0.45748 0.15369 0.0
C112 C 0.71726 0.54115 0.17092 0.0
O113 O 0.76799 0.53294 0.21616 0.0
O114 O 0.80554 0.54214 0.25951 0.0
O115 O 0.87316 0.50115 0.21569 0.0
O116 O 0.84074 0.48845 0.16901 0.0
O117 O 0.70141 0.52881 0.14365 0.0
O118 O 0.74425 0.52613 0.18535 0.0
O119 O 0.81642 0.48244 0.1429 0.0
O120 O 0.76185 0.47934 0.13 0.0
C121 C 0.79313 0.48193 0.11912 0.0
O122 O 0.78247 0.43807 0.2267 0.0
O123 O 0.81684 0.4525 0.2715 0.0
C124 C 0.73611 0.43247 0.17567 0.0
C125 C 0.79579 0.43099 0.25679 0.0
Zn126 Zn 0.48095 0.83491 0.23791 0.0
Zn127 Zn 0.48967 0.73279 0.139 0.0
Zn128 Zn 0.4861 0.78324 0.18972 0.0
C129 C 0.49174 0.79776 0.1053 0.0
C130 C 0.4259 0.72429 0.17571 0.0
O131 O 0.53329 0.77985 0.22259 0.0
O132 O 0.52845 0.82711 0.25742 0.0
C133 C 0.47961 0.86762 0.1731 0.0
O134 O 0.4873 0.80892 0.13722 0.0
O135 O 0.49516 0.76513 0.09862 0.0
O136 O 0.44205 0.71289 0.1488 0.0
O137 O 0.43901 0.74943 0.19485 0.0
O138 O 0.47511 0.87479 0.20532 0.0
O139 O 0.48514 0.83547 0.16273 0.0
O140 O 0.43771 0.77469 0.22191 0.0
O141 O 0.43857 0.81722 0.26267 0.0
C142 C 0.42411 0.79017 0.24913 0.0
O143 O 0.53403 0.7514 0.19878 0.0
O144 O 0.5321 0.70932 0.15756 0.0
C145 C 0.5456 0.80052 0.24682 0.0
C146 C 0.54694 0.72351 0.18386 0.0
Zn147 Zn 0.13467 0.47674 0.22905 0.0
Zn148 Zn 0.24516 0.48299 0.14273 0.0
Zn149 Zn 0.18822 0.48308 0.18488 0.0
C150 C 0.2468 0.54581 0.18268 0.0
C151 C 0.1841 0.48367 0.10054 0.0
O152 O 0.19384 0.43576 0.21853 0.0
O153 O 0.15047 0.43636 0.25752 0.0
C154 C 0.16671 0.54384 0.2401 0.0
O155 O 0.21829 0.53268 0.19559 0.0
O156 O 0.26375 0.52937 0.15911 0.0
O157 O 0.21713 0.48267 0.09877 0.0
O158 O 0.16824 0.48384 0.13055 0.0
O159 O 0.13952 0.52623 0.24801 0.0
O160 O 0.18922 0.53121 0.21804 0.0
O161 O 0.13908 0.48198 0.15332 0.0
O162 O 0.09884 0.46736 0.19293 0.0
C163 C 0.1072 0.47384 0.16145 0.0
O164 O 0.22066 0.43539 0.19395 0.0
O165 O 0.26775 0.43926 0.15977 0.0
C166 C 0.17786 0.4223 0.24528 0.0
C167 C 0.25012 0.42301 0.1828 0.0
Zn168 Zn 0.47867 0.73574 0.82862 0.0
Zn169 Zn 0.47194 0.83917 0.73274 0.0
Zn170 Zn 0.4753 0.78677 0.78022 0.0
C171 C 0.46986 0.87055 0.79965 0.0
C172 C 0.41371 0.79425 0.72276 0.0
O173 O 0.52264 0.75563 0.76925 0.0
O174 O 0.51884 0.71072 0.80631 0.0
C175 C 0.48367 0.79995 0.86476 0.0
O176 O 0.47481 0.83825 0.80894 0.0
O177 O 0.4665 0.87827 0.76761 0.0
O178 O 0.42867 0.82102 0.70958 0.0
O179 O 0.42689 0.77857 0.74948 0.0
O180 O 0.48712 0.76718 0.86988 0.0
O181 O 0.47811 0.81174 0.83358 0.0
O182 O 0.42752 0.75349 0.77601 0.0
O183 O 0.43033 0.7175 0.82162 0.0
C184 C 0.41403 0.72904 0.79538 0.0
O185 O 0.52119 0.7825 0.74419 0.0
O186 O 0.51882 0.83004 0.71062 0.0
C187 C 0.53437 0.72636 0.7814 0.0
C188 C 0.53418 0.80204 0.71962 0.0
Zn189 Zn 0.14407 0.48594 0.72004 0.0
Zn190 Zn 0.24565 0.4818 0.83701 0.0
Zn191 Zn 0.1784 0.4838 0.77618 0.0
C192 C 0.16326 0.48473 0.84932 0.0
C193 C 0.24129 0.54449 0.79303 0.0
O194 O 0.19091 0.43679 0.7442 0.0
O195 O 0.17172 0.45118 0.69159 0.0
C196 C 0.09582 0.4712 0.77374 0.0
O197 O 0.14377 0.48339 0.82227 0.0
O198 O 0.1956 0.48357 0.84442 0.0
O199 O 0.25894 0.52777 0.81554 0.0
O200 O 0.21327 0.53153 0.77857 0.0
O201 O 0.09938 0.4688 0.74072 0.0
O202 O 0.12223 0.47987 0.7931 0.0
O203 O 0.19037 0.53403 0.74878 0.0
O204 O 0.14853 0.53703 0.70914 0.0
C205 C 0.17428 0.5511 0.72469 0.0
O206 O 0.21368 0.43703 0.77435 0.0
O207 O 0.2588 0.43747 0.81198 0.0
C208 C 0.18792 0.43006 0.71107 0.0
C209 C 0.24129 0.42281 0.78751 0.0
Zn210 Zn 0.47302 0.23807 0.82473 0.0
Zn211 Zn 0.47681 0.13623 0.73249 0.0
Zn212 Zn 0.47559 0.18758 0.77909 0.0
C213 C 0.48547 0.10586 0.79835 0.0
C214 C 0.53145 0.18154 0.71472 0.0
O215 O 0.42919 0.22076 0.76843 0.0
O216 O 0.43944 0.26914 0.80031 0.0
C217 C 0.46326 0.17759 0.86295 0.0
O218 O 0.4767 0.13733 0.80816 0.0
O219 O 0.4908 0.09879 0.76618 0.0
O220 O 0.51315 0.15722 0.70073 0.0
O221 O 0.52293 0.19437 0.74517 0.0
O222 O 0.45641 0.21018 0.86586 0.0
O223 O 0.47331 0.16466 0.83301 0.0
O224 O 0.52431 0.21833 0.77294 0.0
O225 O 0.52377 0.25027 0.82214 0.0
C226 C 0.53943 0.23993 0.79456 0.0
O227 O 0.42783 0.19095 0.74676 0.0
O228 O 0.42661 0.13941 0.71839 0.0
C229 C 0.42134 0.25271 0.77763 0.0
C230 C 0.41226 0.16851 0.72625 0.0
Zn231 Zn 0.8482 0.48452 0.6977 0.0
Zn232 Zn 0.71768 0.49325 0.8347 0.0
Zn233 Zn 0.76454 0.48909 0.78826 0.0
C234 C 0.78346 0.49613 0.86869 0.0
C235 C 0.70906 0.4276 0.79907 0.0
O236 O 0.76284 0.53452 0.75315 0.0
O237 O 0.80604 0.50778 0.72675 0.0
C238 C 0.84082 0.48512 0.78309 0.0
O239 O 0.79538 0.4907 0.83736 0.0
O240 O 0.75096 0.49912 0.8741 0.0
O241 O 0.69743 0.44489 0.82529 0.0
O242 O 0.73404 0.44035 0.78014 0.0
O243 O 0.82941 0.48654 0.75146 0.0
O244 O 0.81808 0.48734 0.80791 0.0
O245 O 0.75913 0.44224 0.75353 0.0
O246 O 0.80402 0.46635 0.72728 0.0
C247 C 0.78128 0.44124 0.7281 0.0
O248 O 0.736 0.53813 0.77721 0.0
O249 O 0.69443 0.53714 0.81804 0.0
C250 C 0.78527 0.53425 0.72799 0.0
C251 C 0.70898 0.552 0.79207 0.0
H252 H 0.18837 0.22825 0.36101 0.0
H253 H 0.22639 0.42589 0.29641 0.0
H254 H 0.2006 0.31962 0.42921 0.0
H255 H 0.16186 0.35207 0.23805 0.0
H256 H 0.23973 0.37897 0.33837 0.0
H257 H 0.2004 0.2663 0.30977 0.0
C258 C 0.19452 0.25608 0.36516 0.0
C259 C 0.19308 0.27116 0.39906 0.0
C260 C 0.22347 0.37277 0.31581 0.0
C261 C 0.20728 0.31415 0.34137 0.0
C262 C 0.21603 0.3994 0.2919 0.0
C263 C 0.19295 0.39254 0.26417 0.0
C264 C 0.2076 0.33924 0.3118 0.0
C265 C 0.17974 0.35809 0.25936 0.0
C266 C 0.20124 0.27767 0.33608 0.0
C267 C 0.20107 0.30724 0.40333 0.0
N268 N 0.18691 0.33263 0.28331 0.0
N269 N 0.20766 0.32758 0.37479 0.0
H270 H 0.6194 0.17172 0.23283 0.0
H271 H 0.64957 0.21143 0.43002 0.0
H272 H 0.5537 0.24446 0.29043 0.0
H273 H 0.7379 0.18821 0.36278 0.0
H274 H 0.61526 0.22622 0.37817 0.0
H275 H 0.66548 0.18079 0.27689 0.0
C276 C 0.61538 0.19085 0.25394 0.0
C277 C 0.58303 0.20777 0.2579 0.0
C278 C 0.64235 0.21863 0.37465 0.0
C279 C 0.63458 0.21674 0.30928 0.0
C280 C 0.66185 0.21004 0.40423 0.0
C281 C 0.69647 0.1986 0.40051 0.0
C282 C 0.65719 0.21461 0.34091 0.0
C283 C 0.71124 0.19708 0.3666 0.0
C284 C 0.64151 0.19579 0.27925 0.0
C285 C 0.57856 0.23141 0.28625 0.0
N286 N 0.69126 0.20425 0.33793 0.0
N287 N 0.60369 0.23454 0.31136 0.0
H288 H 0.78469 0.74406 0.35134 0.0
H289 H 0.7218 0.55395 0.28482 0.0
H290 H 0.73423 0.66525 0.41576 0.0
H291 H 0.79657 0.6202 0.23075 0.0
H292 H 0.70613 0.60444 0.32285 0.0
H293 H 0.76939 0.70903 0.29857 0.0
C294 C 0.76933 0.71995 0.35414 0.0
C295 C 0.76071 0.70723 0.3876 0.0
C296 C 0.7251 0.60831 0.30188 0.0
C297 C 0.74385 0.66687 0.32797 0.0
C298 C 0.73376 0.57962 0.28002 0.0
C299 C 0.76048 0.58319 0.25487 0.0
C300 C 0.74375 0.64045 0.29872 0.0
C301 C 0.77576 0.61664 0.24993 0.0
C302 C 0.76074 0.69992 0.32416 0.0
C303 C 0.74122 0.67576 0.39021 0.0
N304 N 0.76765 0.64391 0.27213 0.0
N305 N 0.73386 0.65633 0.36078 0.0
H306 H 0.23593 0.82282 0.36042 0.0
H307 H 0.4111 0.73333 0.29133 0.0
H308 H 0.28304 0.7334 0.41052 0.0
H309 H 0.36179 0.82237 0.2427 0.0
H310 H 0.35806 0.72382 0.32718 0.0
H311 H 0.27446 0.81404 0.30946 0.0
C312 C 0.25378 0.80064 0.36008 0.0
C313 C 0.25634 0.77863 0.38934 0.0
C314 C 0.35846 0.74489 0.30804 0.0
C315 C 0.30151 0.76912 0.33191 0.0
C316 C 0.38858 0.75008 0.28744 0.0
C317 C 0.39041 0.77843 0.264 0.0
C318 C 0.33043 0.76869 0.30546 0.0
C319 C 0.3611 0.80006 0.26041 0.0
C320 C 0.27595 0.79572 0.33114 0.0
C321 C 0.28022 0.75067 0.38815 0.0
N322 N 0.33247 0.79501 0.28121 0.0
N323 N 0.30235 0.74701 0.36009 0.0
H324 H 0.20856 0.65134 0.54236 0.0
H325 H 0.23671 0.56036 0.69222 0.0
H326 H 0.1806 0.74147 0.60699 0.0
H327 H 0.14226 0.61515 0.72135 0.0
H328 H 0.25146 0.60827 0.6514 0.0
H329 H 0.22004 0.61753 0.59553 0.0
C330 C 0.20586 0.66424 0.56787 0.0
C331 C 0.19384 0.6991 0.57055 0.0
C332 C 0.22811 0.61034 0.66761 0.0
C333 C 0.20615 0.66058 0.63138 0.0
C334 C 0.22 0.58338 0.69126 0.0
C335 C 0.18851 0.58422 0.7103 0.0
C336 C 0.20421 0.63793 0.66279 0.0
C337 C 0.16691 0.61384 0.70714 0.0
C338 C 0.2126 0.64508 0.59818 0.0
C339 C 0.19012 0.71463 0.60409 0.0
N340 N 0.17493 0.63944 0.68339 0.0
N341 N 0.19525 0.69486 0.6334 0.0
H342 H 0.28691 0.22854 0.55591 0.0
H343 H 0.35506 0.12602 0.71991 0.0
H344 H 0.23199 0.13998 0.60171 0.0
H345 H 0.39444 0.22983 0.69345 0.0
H346 H 0.30477 0.13537 0.68191 0.0
H347 H 0.3214 0.23509 0.61008 0.0
C348 C 0.2815 0.2112 0.57788 0.0
C349 C 0.25677 0.18375 0.57473 0.0
C350 C 0.32393 0.15652 0.68486 0.0
C351 C 0.29646 0.19019 0.63593 0.0
C352 C 0.35262 0.15112 0.70655 0.0
C353 C 0.37881 0.17713 0.70954 0.0
C354 C 0.32204 0.18771 0.66506 0.0
C355 C 0.37458 0.20921 0.69181 0.0
C356 C 0.30118 0.21481 0.60869 0.0
C357 C 0.25095 0.16146 0.60339 0.0
N358 N 0.34708 0.21335 0.66963 0.0
N359 N 0.27101 0.16484 0.63263 0.0
H360 H 0.80921 0.44498 0.66243 0.0
H361 H 0.76347 0.24617 0.60197 0.0
H362 H 0.75146 0.37434 0.73037 0.0
H363 H 0.80064 0.32908 0.53346 0.0
H364 H 0.75785 0.29051 0.65 0.0
H365 H 0.80748 0.40029 0.61596 0.0
C366 C 0.7962 0.41993 0.66762 0.0
C367 C 0.78034 0.41344 0.70029 0.0
C368 C 0.76686 0.29888 0.62427 0.0
C369 C 0.77793 0.36176 0.64676 0.0
C370 C 0.76978 0.27366 0.59684 0.0
C371 C 0.78276 0.28388 0.56374 0.0
C372 C 0.77716 0.33428 0.61833 0.0
C373 C 0.79101 0.31981 0.55865 0.0
C374 C 0.79495 0.3944 0.64091 0.0
C375 C 0.76355 0.38054 0.70533 0.0
N376 N 0.78832 0.34346 0.58558 0.0
N377 N 0.76288 0.35575 0.67885 0.0
H378 H 0.73344 0.77038 0.60774 0.0
H379 H 0.58738 0.84494 0.69776 0.0
H380 H 0.64434 0.76314 0.53893 0.0
H381 H 0.55264 0.73586 0.69595 0.0
H382 H 0.63637 0.82886 0.65868 0.0
H383 H 0.6933 0.7688 0.65886 0.0
C384 C 0.7057 0.76661 0.60342 0.0
C385 C 0.69221 0.7663 0.56917 0.0
C386 C 0.61852 0.80836 0.66775 0.0
C387 C 0.64658 0.76532 0.62693 0.0
C388 C 0.59057 0.81747 0.68979 0.0
C389 C 0.56631 0.79154 0.70043 0.0
C390 C 0.6217 0.77331 0.65563 0.0
C391 C 0.57129 0.7564 0.68893 0.0
C392 C 0.68287 0.76626 0.63248 0.0
C393 C 0.65577 0.76312 0.56496 0.0
N394 N 0.59806 0.74837 0.66636 0.0
N395 N 0.63416 0.76321 0.59351 0.0
H396 H 0.42763 0.21075 0.31931 0.0
H397 H 0.23926 0.14567 0.35266 0.0
H398 H 0.36432 0.17821 0.23101 0.0
H399 H 0.28258 0.23119 0.41509 0.0
H400 H 0.28247 0.15832 0.30618 0.0
H401 H 0.37434 0.21974 0.35442 0.0
C402 C 0.40235 0.20608 0.30724 0.0
C403 C 0.40012 0.19364 0.27245 0.0
C404 C 0.2819 0.17499 0.32959 0.0
C405 C 0.33925 0.20288 0.31251 0.0
C406 C 0.25725 0.16782 0.35599 0.0
C407 C 0.25752 0.18754 0.38746 0.0
C408 C 0.30774 0.20109 0.33549 0.0
C409 C 0.28155 0.21561 0.39097 0.0
C410 C 0.37199 0.21135 0.32715 0.0
C411 C 0.36691 0.18784 0.25785 0.0
N412 N 0.30635 0.22102 0.36566 0.0
N413 N 0.33766 0.19173 0.27823 0.0
H414 H 0.76553 0.4244 0.32108 0.0
H415 H 0.83317 0.23916 0.35574 0.0
H416 H 0.80475 0.36319 0.23307 0.0
H417 H 0.73838 0.27358 0.40741 0.0
H418 H 0.82327 0.28231 0.30913 0.0
H419 H 0.75521 0.36934 0.35346 0.0
C420 C 0.77156 0.39921 0.30854 0.0
C421 C 0.78618 0.398 0.27468 0.0
C422 C 0.80408 0.27967 0.3301 0.0
C423 C 0.77519 0.33537 0.31148 0.0
C424 C 0.80972 0.25511 0.35661 0.0
C425 C 0.78662 0.25312 0.38535 0.0
C426 C 0.77593 0.30317 0.33324 0.0
C427 C 0.75672 0.27441 0.38556 0.0
C428 C 0.76542 0.36789 0.3268 0.0
C429 C 0.79352 0.36493 0.25929 0.0
N430 N 0.75273 0.29938 0.36038 0.0
N431 N 0.78871 0.33479 0.27816 0.0
H432 H 0.57253 0.739 0.27309 0.0
H433 H 0.72348 0.84951 0.36945 0.0
H434 H 0.59659 0.84937 0.25632 0.0
H435 H 0.69361 0.74347 0.39915 0.0
H436 H 0.68744 0.84355 0.31685 0.0
H437 H 0.6262 0.73409 0.30832 0.0
C438 C 0.5897 0.76183 0.27599 0.0
C439 C 0.58028 0.79466 0.26214 0.0
C440 C 0.68909 0.82129 0.33451 0.0
C441 C 0.6409 0.78956 0.30239 0.0
C442 C 0.70968 0.82474 0.36449 0.0
C443 C 0.71114 0.79707 0.38865 0.0
C444 C 0.66907 0.79026 0.3291 0.0
C445 C 0.69314 0.76535 0.38096 0.0
C446 C 0.62008 0.75915 0.29626 0.0
C447 C 0.60287 0.8237 0.267 0.0
N448 N 0.67224 0.76299 0.35211 0.0
N449 N 0.63193 0.82055 0.28694 0.0
H450 H 0.11721 0.72258 0.36621 0.0
H451 H 0.22668 0.57183 0.26873 0.0
H452 H 0.22316 0.69739 0.39421 0.0
H453 H 0.11805 0.59454 0.25038 0.0
H454 H 0.23146 0.62646 0.30452 0.0
H455 H 0.12296 0.68592 0.31324 0.0
C456 C 0.14199 0.70981 0.36067 0.0
C457 C 0.16968 0.71267 0.3845 0.0
C458 C 0.2068 0.61986 0.29202 0.0
C459 C 0.17618 0.66958 0.32467 0.0
C460 C 0.20421 0.58893 0.27139 0.0
C461 C 0.17196 0.57888 0.25676 0.0
C462 C 0.17685 0.64062 0.29787 0.0
C463 C 0.14328 0.60129 0.26158 0.0
C464 C 0.14528 0.68877 0.33053 0.0
C465 C 0.20132 0.69586 0.37622 0.0
N466 N 0.14633 0.63091 0.28192 0.0
N467 N 0.20353 0.67431 0.34726 0.0
H468 H 0.23904 0.83725 0.60317 0.0
H469 H 0.4005 0.73734 0.67967 0.0
H470 H 0.27104 0.73532 0.56275 0.0
H471 H 0.35177 0.82705 0.73036 0.0
H472 H 0.34821 0.72917 0.64291 0.0
H473 H 0.27384 0.82784 0.65579 0.0
C474 C 0.25306 0.81257 0.60582 0.0
C475 C 0.25263 0.78717 0.57873 0.0
C476 C 0.34849 0.74999 0.66278 0.0
C477 C 0.29354 0.77654 0.63821 0.0
C478 C 0.3782 0.75448 0.68383 0.0
C479 C 0.38008 0.78283 0.7079 0.0
C480 C 0.32106 0.77455 0.66557 0.0
C481 C 0.35107 0.80486 0.71201 0.0
C482 C 0.27293 0.80712 0.63584 0.0
C483 C 0.27098 0.75554 0.58324 0.0
N484 N 0.32294 0.80058 0.6907 0.0
N485 N 0.29143 0.7514 0.61215 0.0
H486 H 0.23391 0.27027 0.55675 0.0
H487 H 0.17932 0.36394 0.73795 0.0
H488 H 0.13667 0.24853 0.61082 0.0
H489 H 0.22293 0.41992 0.64933 0.0
H490 H 0.1854 0.30786 0.70475 0.0
H491 H 0.25078 0.31094 0.6049 0.0
C492 C 0.21681 0.273 0.57948 0.0
C493 C 0.18393 0.25624 0.58007 0.0
C494 C 0.19465 0.33237 0.69316 0.0
C495 C 0.20291 0.30224 0.63471 0.0
C496 C 0.19132 0.3642 0.71201 0.0
C497 C 0.20015 0.39636 0.69592 0.0
C498 C 0.20762 0.33296 0.65851 0.0
C499 C 0.21544 0.39555 0.6623 0.0
C500 C 0.22632 0.29627 0.60669 0.0
C501 C 0.1622 0.26119 0.60953 0.0
N502 N 0.21842 0.36431 0.64449 0.0
N503 N 0.17196 0.28404 0.63567 0.0
H504 H 0.53447 0.20295 0.64702 0.0
H505 H 0.72852 0.16121 0.61913 0.0
H506 H 0.59881 0.1884 0.73843 0.0
H507 H 0.67757 0.23644 0.55264 0.0
H508 H 0.68378 0.17181 0.66478 0.0
H509 H 0.58709 0.2158 0.61217 0.0
C510 C 0.55975 0.20312 0.65982 0.0
C511 C 0.5625 0.19469 0.69551 0.0
C512 C 0.68307 0.1869 0.6407 0.0
C513 C 0.6228 0.20836 0.65573 0.0
C514 C 0.70865 0.18099 0.61481 0.0
C515 C 0.70675 0.19832 0.58244 0.0
C516 C 0.65478 0.20913 0.63339 0.0
C517 C 0.68007 0.22299 0.57755 0.0
C518 C 0.58973 0.21059 0.64002 0.0
C519 C 0.59577 0.19499 0.71094 0.0
N520 N 0.65455 0.22701 0.60239 0.0
N521 N 0.62484 0.20091 0.69074 0.0
H522 H 0.81602 0.53146 0.66313 0.0
H523 H 0.77962 0.73063 0.60759 0.0
H524 H 0.75684 0.60088 0.73171 0.0
H525 H 0.79403 0.64411 0.53397 0.0
H526 H 0.77615 0.68732 0.65594 0.0
H527 H 0.81564 0.57686 0.61791 0.0
C528 C 0.80309 0.55635 0.66875 0.0
C529 C 0.78626 0.56231 0.70112 0.0
C530 C 0.77952 0.67797 0.62906 0.0
C531 C 0.78564 0.61453 0.64938 0.0
C532 C 0.78101 0.70259 0.60156 0.0
C533 C 0.78661 0.69083 0.56682 0.0
C534 C 0.78424 0.64168 0.62148 0.0
C535 C 0.7898 0.65429 0.56043 0.0
C536 C 0.80266 0.5822 0.64284 0.0
C537 C 0.76979 0.59511 0.70689 0.0
N538 N 0.78882 0.63115 0.58742 0.0
N539 N 0.76996 0.62014 0.68128 0.0
H540 H 0.4032 0.2722 0.24085 0.0
H541 H 0.22491 0.35588 0.17309 0.0
H542 H 0.35172 0.2412 0.14449 0.0
H543 H 0.30762 0.4157 0.22327 0.0
H544 H 0.2574 0.30095 0.18391 0.0
H545 H 0.35361 0.31112 0.25521 0.0
C546 C 0.38084 0.27257 0.22345 0.0
C547 C 0.38153 0.25402 0.19125 0.0
C548 C 0.26779 0.32603 0.19352 0.0
C549 C 0.32519 0.2979 0.20746 0.0
C550 C 0.24934 0.3572 0.18743 0.0
C551 C 0.26408 0.39002 0.19694 0.0
C552 C 0.3008 0.32801 0.20962 0.0
C553 C 0.29575 0.3907 0.2153 0.0
C554 C 0.35274 0.29482 0.23154 0.0
C555 C 0.35217 0.2555 0.16939 0.0
N556 N 0.31333 0.36012 0.22076 0.0
N557 N 0.32529 0.27745 0.17768 0.0
H558 H 0.28288 0.56047 0.73741 0.0
H559 H 0.35844 0.72455 0.83936 0.0
H560 H 0.23229 0.60629 0.82851 0.0
H561 H 0.39267 0.69685 0.73441 0.0
H562 H 0.30628 0.68755 0.83126 0.0
H563 H 0.31692 0.61528 0.73008 0.0
C564 C 0.27804 0.58275 0.75498 0.0
C565 C 0.25448 0.57949 0.78311 0.0
C566 C 0.32463 0.69016 0.80956 0.0
C567 C 0.29438 0.64126 0.77628 0.0
C568 C 0.35435 0.71128 0.81423 0.0
C569 C 0.37957 0.71359 0.78745 0.0
C570 C 0.32074 0.6703 0.77826 0.0
C571 C 0.37345 0.69588 0.75545 0.0
C572 C 0.29762 0.61389 0.75104 0.0
C573 C 0.24996 0.60827 0.80618 0.0
N574 N 0.34492 0.67428 0.75196 0.0
N575 N 0.27017 0.63783 0.8026 0.0
H576 H 0.23399 0.35488 0.80961 0.0
H577 H 0.42021 0.31586 0.74481 0.0
H578 H 0.28421 0.41947 0.73099 0.0
H579 H 0.35315 0.2305 0.7794 0.0
H580 H 0.36859 0.35168 0.73353 0.0
H581 H 0.27308 0.30588 0.79365 0.0
C582 C 0.25244 0.35814 0.78807 0.0
C583 C 0.25609 0.39086 0.7714 0.0
C584 C 0.36495 0.32479 0.74268 0.0
C585 C 0.30155 0.33598 0.75404 0.0
C586 C 0.39442 0.30443 0.74914 0.0
C587 C 0.39067 0.27046 0.76315 0.0
C588 C 0.33161 0.3115 0.7516 0.0
C589 C 0.35688 0.25671 0.76857 0.0
C590 C 0.27479 0.33032 0.77901 0.0
C591 C 0.2807 0.39437 0.7442 0.0
N592 N 0.32853 0.27767 0.76365 0.0
N593 N 0.3031 0.36749 0.73685 0.0
H594 H 0.68594 0.39977 0.73617 0.0
H595 H 0.59449 0.24086 0.83854 0.0
H596 H 0.69908 0.37545 0.84589 0.0
H597 H 0.563 0.27261 0.7349 0.0
H598 H 0.64676 0.27806 0.83337 0.0
H599 H 0.65361 0.34337 0.72814 0.0
C600 C 0.68261 0.38214 0.7583 0.0
C601 C 0.69458 0.39213 0.79182 0.0
C602 C 0.62885 0.27651 0.81139 0.0
C603 C 0.65825 0.32823 0.78298 0.0
C604 C 0.59916 0.25515 0.81433 0.0
C605 C 0.57447 0.25429 0.78732 0.0
C606 C 0.63322 0.29804 0.78169 0.0
C607 C 0.58157 0.27295 0.75634 0.0
C608 C 0.66423 0.35012 0.75376 0.0
C609 C 0.68973 0.36874 0.81976 0.0
N610 N 0.61002 0.2949 0.75464 0.0
N611 N 0.67175 0.33802 0.81476 0.0
H612 H 0.68042 0.56452 0.7279 0.0
H613 H 0.60062 0.74812 0.79552 0.0
H614 H 0.70375 0.61394 0.82798 0.0
H615 H 0.5412 0.6688 0.73869 0.0
H616 H 0.65351 0.71211 0.78734 0.0
H617 H 0.64439 0.61607 0.71284 0.0
C618 C 0.67877 0.58677 0.74613 0.0
C619 C 0.69446 0.58521 0.77929 0.0
C620 C 0.62911 0.70329 0.7756 0.0
C621 C 0.65434 0.64371 0.76227 0.0
C622 C 0.59913 0.72379 0.78013 0.0
C623 C 0.56688 0.71105 0.76782 0.0
C624 C 0.62652 0.67017 0.75848 0.0
C625 C 0.56582 0.67923 0.74853 0.0
C626 C 0.65833 0.61597 0.7376 0.0
C627 C 0.69166 0.61432 0.80227 0.0
N628 N 0.59525 0.65957 0.74472 0.0
N629 N 0.67167 0.64238 0.79344 0.0
H630 H 0.5541 0.67653 0.23705 0.0
H631 H 0.73277 0.6088 0.1524 0.0
H632 H 0.61224 0.73174 0.15679 0.0
H633 H 0.66819 0.54729 0.22261 0.0
H634 H 0.6981 0.66146 0.16707 0.0
H635 H 0.60419 0.6372 0.24544 0.0
C636 C 0.57796 0.68107 0.22212 0.0
C637 C 0.57937 0.70737 0.1964 0.0
C638 C 0.69197 0.63668 0.17997 0.0
C639 C 0.63611 0.66197 0.20479 0.0
C640 C 0.71188 0.60677 0.17173 0.0
C641 C 0.70313 0.57396 0.18639 0.0
C642 C 0.66275 0.63346 0.20251 0.0
C643 C 0.67564 0.57231 0.2109 0.0
C644 C 0.60642 0.6585 0.22665 0.0
C645 C 0.61043 0.71186 0.1771 0.0
N646 N 0.65605 0.60156 0.21785 0.0
N647 N 0.63743 0.68906 0.18132 0.0
H648 H 0.36984 0.71903 0.13298 0.0
H649 H 0.28755 0.56204 0.2392 0.0
H650 H 0.40509 0.69275 0.23688 0.0
H651 H 0.23888 0.60739 0.14844 0.0
H652 H 0.32457 0.61527 0.24509 0.0
H653 H 0.31652 0.68429 0.14293 0.0
C654 C 0.36585 0.70642 0.15822 0.0
C655 C 0.39158 0.70863 0.18422 0.0
C656 C 0.30504 0.61415 0.22456 0.0
C657 C 0.33122 0.66802 0.19562 0.0
C658 C 0.28375 0.58394 0.22143 0.0
C659 C 0.26006 0.58079 0.19356 0.0
C660 C 0.30319 0.64068 0.19891 0.0
C661 C 0.25668 0.6092 0.17051 0.0
C662 C 0.33542 0.68665 0.16399 0.0
C663 C 0.38548 0.69186 0.21643 0.0
N664 N 0.27846 0.63772 0.1733 0.0
N665 N 0.35615 0.67161 0.22103 0.0
H666 H 0.53287 0.33506 0.16542 0.0
H667 H 0.73317 0.37056 0.21304 0.0
H668 H 0.59925 0.24968 0.19814 0.0
H669 H 0.67313 0.43475 0.14254 0.0
H670 H 0.6835 0.32876 0.21701 0.0
H671 H 0.58273 0.37541 0.16792 0.0
C672 C 0.55795 0.32481 0.17351 0.0
C673 C 0.5619 0.28882 0.18144 0.0
C674 C 0.68137 0.35198 0.20065 0.0
C675 C 0.61943 0.33517 0.18413 0.0
C676 C 0.70961 0.37582 0.19839 0.0
C677 C 0.70726 0.40614 0.17737 0.0
C678 C 0.65047 0.35899 0.18228 0.0
C679 C 0.67619 0.41168 0.1589 0.0
C680 C 0.58646 0.34791 0.17479 0.0
C681 C 0.59498 0.27726 0.19221 0.0
N682 N 0.649 0.38849 0.16197 0.0
N683 N 0.62267 0.30038 0.19304 0.0
H684 H 0.1281 0.89333 0.53525 0.0
H685 H 0.12553 0.07249 0.4298 0.0
H686 H 0.14277 0.90338 0.4233 0.0
H687 H 0.14646 0.0629 0.54053 0.0
H688 H 0.10308 0.01126 0.42887 0.0
H689 H 0.10618 0.95433 0.53791 0.0
C690 C 0.12508 0.90788 0.51103 0.0
C691 C 0.13738 0.89379 0.47906 0.0
C692 C 0.1113 0.02301 0.45367 0.0
C693 C 0.11329 0.96327 0.48188 0.0
C694 C 0.12383 0.05796 0.45422 0.0
C695 C 0.138 0.07226 0.48521 0.0
C696 C 0.11342 0.0025 0.48429 0.0
C697 C 0.13579 0.05247 0.51612 0.0
C698 C 0.11286 0.9427 0.51255 0.0
C699 C 0.13356 0.91363 0.44843 0.0
N700 N 0.12441 0.01827 0.51478 0.0
N701 N 0.12244 0.94768 0.45065 0.0
H702 H 0.07393 0.12849 0.52604 0.0
H703 H 0.8854 0.12888 0.43819 0.0
H704 H 0.05084 0.16482 0.42168 0.0
H705 H 0.90522 0.15171 0.54764 0.0
H706 H 0.94645 0.1101 0.43101 0.0
H707 H 0.01335 0.10616 0.5314 0.0
C708 C 0.05652 0.1303 0.50372 0.0
C709 C 0.06697 0.14872 0.47352 0.0
C710 C 0.93696 0.11766 0.45695 0.0
C711 C -0.00165 0.1233 0.47931 0.0
C712 C 0.90209 0.12799 0.46114 0.0
C713 C 0.89056 0.14193 0.49351 0.0
C714 C 0.96008 0.12114 0.48545 0.0
C715 C 0.9133 0.14105 0.52229 0.0
C716 C 0.02204 0.11776 0.50684 0.0
C717 C 0.04351 0.1509 0.44544 0.0
N718 N 0.94725 0.13149 0.51748 0.0
N719 N 0.01011 0.13874 0.44915 0.0
H720 H 0.82654 0.07966 0.53998 0.0
H721 H 0.83607 0.88703 0.45186 0.0
H722 H 0.79947 0.05473 0.43253 0.0
H723 H 0.80336 0.90799 0.55882 0.0
H724 H 0.85285 0.94981 0.44615 0.0
H725 H 0.84743 0.01856 0.54696 0.0
C726 C 0.82639 0.06171 0.51749 0.0
C727 C 0.8111 0.07183 0.48574 0.0
C728 C 0.84334 0.94027 0.47129 0.0
C729 C 0.83495 0.00261 0.49337 0.0
C730 C 0.83407 0.90446 0.47466 0.0
C731 C 0.8179 0.89267 0.5057 0.0
C732 C 0.83685 0.96396 0.49938 0.0
C733 C 0.81547 0.91631 0.53436 0.0
C734 C 0.83813 0.02695 0.52151 0.0
C735 C 0.81098 0.04767 0.45745 0.0
N736 N 0.82428 0.95103 0.53037 0.0
N737 N 0.82235 0.01399 0.46201 0.0
H738 H 0.0517 0.79982 0.55171 0.0
H739 H 0.90666 0.81064 0.42188 0.0
H740 H 0.07357 0.83798 0.44731 0.0
H741 H 0.88563 0.83134 0.53172 0.0
H742 H 0.96681 0.83154 0.42997 0.0
H743 H -0.00806 0.82177 0.54733 0.0
C744 C 0.04412 0.81395 0.52831 0.0
C745 C 0.06718 0.81673 0.49964 0.0
C746 C 0.94883 0.83282 0.45212 0.0
C747 C -0.0014 0.84054 0.49376 0.0
C748 C 0.91449 0.82091 0.44745 0.0
C749 C 0.89154 0.81897 0.4763 0.0
C750 C 0.96056 0.84134 0.48619 0.0
C751 C 0.90277 0.83235 0.50892 0.0
C752 C 0.01003 0.82652 0.52577 0.0
C753 C 0.05631 0.83519 0.46987 0.0
N754 N 0.93694 0.84189 0.51331 0.0
N755 N 0.02233 0.84538 0.46717 0.0
H756 H 0.5124 0.13007 0.88424 0.0
H757 H 0.54186 0.15972 0.05963 0.0
H758 H 0.41491 0.17807 0.91559 0.0
H759 H 0.43211 0.13917 0.07677 0.0
H760 H 0.53537 0.14142 -0.00198 0.0
H761 H 0.5202 0.10966 0.94503 0.0
C762 C 0.49209 0.13522 0.90364 0.0
C763 C 0.46324 0.15622 0.89524 0.0
C764 C 0.513 0.13907 0.01553 0.0
C765 C 0.47209 0.1335 0.96437 0.0
C766 C 0.5168 0.1494 0.05079 0.0
C767 C 0.48753 0.15057 0.07318 0.0
C768 C 0.47943 0.13105 0.00252 0.0
C769 C 0.45534 0.13818 0.06028 0.0
C770 C 0.49673 0.12392 0.93832 0.0
C771 C 0.43774 0.16234 0.92125 0.0
N772 N 0.45186 0.13006 0.02547 0.0
N773 N 0.44293 0.15136 0.95472 0.0
H774 H 0.82181 0.44476 0.90038 0.0
H775 H 0.75693 0.52238 0.07411 0.0
H776 H 0.79251 0.55453 0.90866 0.0
H777 H 0.84797 0.45596 0.07982 0.0
H778 H 0.76873 0.53128 0.01152 0.0
H779 H 0.83468 0.44518 0.96389 0.0
C780 C 0.81996 0.46941 0.91519 0.0
C781 C 0.80616 0.49969 0.89955 0.0
C782 C 0.78642 0.5151 0.02651 0.0
C783 C 0.8191 0.49992 0.97166 0.0
C784 C 0.77949 0.50976 0.06207 0.0
C785 C 0.80145 0.48833 0.08185 0.0
C786 C 0.81487 0.49795 0.01031 0.0
C787 C 0.83053 0.47273 0.06521 0.0
C788 C 0.82691 0.46955 0.95141 0.0
C789 C 0.80321 0.53072 0.91992 0.0
N790 N 0.83606 0.47721 0.03001 0.0
N791 N 0.80865 0.52981 0.95514 0.0
H792 H 0.54754 0.82269 0.06854 0.0
H793 H 0.42811 0.82474 0.90193 0.0
H794 H 0.43495 0.82468 0.07293 0.0
H795 H 0.54078 0.82554 0.89894 0.0
H796 H 0.42984 0.84394 0.96377 0.0
H797 H 0.54571 0.84347 0.0078 0.0
C798 C 0.52248 0.82893 0.05702 0.0
C799 C 0.49136 0.82205 0.07543 0.0
C800 C 0.45424 0.84119 0.94935 0.0
C801 C 0.48879 0.84396 0.00556 0.0
C802 C 0.4532 0.83056 0.91397 0.0
C803 C 0.48437 0.82364 0.89565 0.0
C804 C 0.48674 0.84423 0.96645 0.0
C805 C 0.51623 0.83071 0.91239 0.0
C806 C 0.52135 0.84048 0.02225 0.0
C807 C 0.45948 0.82989 0.0594 0.0
N808 N 0.51663 0.83999 0.94707 0.0
N809 N 0.45893 0.83963 0.02502 0.0
H810 H 0.11059 0.4516 0.88762 0.0
H811 H 0.18732 0.54264 0.06234 0.0
H812 H 0.19098 0.53244 0.89328 0.0
H813 H 0.14024 0.43846 0.06376 0.0
H814 H 0.16984 0.5489 0.00115 0.0
H815 H 0.10401 0.45563 0.95256 0.0
C816 C 0.12585 0.47094 0.90238 0.0
C817 C 0.1511 0.49193 0.88537 0.0
C818 C 0.16254 0.52491 0.01492 0.0
C819 C 0.14415 0.49639 0.9585 0.0
C820 C 0.17232 0.52148 0.04987 0.0
C821 C 0.16518 0.49003 0.06776 0.0
C822 C 0.14609 0.49635 -0.00257 0.0
C823 C 0.14603 0.46314 0.05057 0.0
C824 C 0.12243 0.47296 0.93924 0.0
C825 C 0.17095 0.51605 0.90547 0.0
N826 N 0.13762 0.46661 0.01591 0.0
N827 N 0.16723 0.51739 0.94084 0.0
H828 H 0.08328 0.53457 0.13375 0.0
H829 H 0.89219 0.44841 0.13216 0.0
H830 H 0.06344 0.42212 0.13705 0.0
H831 H 0.92222 0.54557 0.18512 0.0
H832 H 0.95141 0.44502 0.10613 0.0
H833 H 0.02105 0.54414 0.12203 0.0
C834 C 0.06622 0.51176 0.12979 0.0
C835 C 0.07824 0.47754 0.13659 0.0
C836 C 0.94454 0.4676 0.12257 0.0
C837 C 0.00732 0.48825 0.12402 0.0
C838 C 0.9109 0.46957 0.13734 0.0
C839 C 0.90274 0.49704 0.16111 0.0
C840 C 0.96962 0.49376 0.13113 0.0
C841 C 0.9278 0.52372 0.16725 0.0
C842 C 0.03065 0.51727 0.12364 0.0
C843 C 0.05498 0.44891 0.13198 0.0
N844 N 0.96021 0.52129 0.15259 0.0
N845 N 0.02036 0.4549 0.12675 0.0
H846 H 0.88054 0.50613 0.84023 0.0
H847 H 0.05152 0.41842 0.75532 0.0
H848 H 0.88572 0.44903 0.74128 0.0
H849 H 0.05958 0.51007 0.82376 0.0
H850 H -0.01144 0.41642 0.76582 0.0
H851 H 0.94412 0.49695 0.84762 0.0
C852 C 0.895 0.49147 0.8203 0.0
C853 C 0.87819 0.4788 0.7898 0.0
C854 C 0.00408 0.43664 0.7791 0.0
C855 C 0.94982 0.46744 0.79854 0.0
C856 C 0.04003 0.43763 0.77332 0.0
C857 C 0.06056 0.46468 0.78841 0.0
C858 C -0.01168 0.46327 0.79966 0.0
C859 C 0.04448 0.48883 0.81166 0.0
C860 C 0.93107 0.48627 0.82453 0.0
C861 C 0.89782 0.45982 0.76483 0.0
N862 N 0.00898 0.48804 0.81608 0.0
N863 N 0.93248 0.4547 0.76979 0.0
H864 H 0.43271 0.08229 0.84075 0.0
H865 H 0.52476 0.89505 0.8383 0.0
H866 H 0.53967 0.06202 0.81076 0.0
H867 H 0.41588 0.91346 0.81698 0.0
H868 H 0.5303 0.95624 0.86064 0.0
H869 H 0.42816 0.02181 0.86399 0.0
C870 C 0.45568 0.06563 0.8406 0.0
C871 C 0.48642 0.07656 0.8234 0.0
C872 C 0.50485 0.94635 0.85252 0.0
C873 C 0.48151 0.00804 0.84967 0.0
C874 C 0.50166 0.91147 0.84 0.0
C875 C 0.46997 0.89975 0.82546 0.0
C876 C 0.47607 0.96921 0.85039 0.0
C877 C 0.44082 0.92192 0.82777 0.0
C878 C 0.45305 0.03118 0.85368 0.0
C879 C 0.51542 0.05414 0.8235 0.0
N880 N 0.44469 0.95591 0.83935 0.0
N881 N 0.51212 0.02065 0.83588 0.0
H882 H 0.42418 0.9054 0.15107 0.0
H883 H 0.54665 0.07017 0.15397 0.0
H884 H 0.53637 0.89883 0.14279 0.0
H885 H 0.43469 0.07644 0.1441 0.0
H886 H 0.54426 0.00861 0.13306 0.0
H887 H 0.42724 0.96676 0.13121 0.0
C888 C 0.44935 0.91656 0.14355 0.0
C889 C 0.48007 0.89734 0.14852 0.0
C890 C 0.52024 0.02363 0.1343 0.0
C891 C 0.48414 0.96799 0.12772 0.0
C892 C 0.5217 0.05884 0.14603 0.0
C893 C 0.49081 0.07806 0.15072 0.0
C894 C 0.48749 0.00734 0.12841 0.0
C895 C 0.45905 0.0623 0.14068 0.0
C896 C 0.4512 0.95171 0.13252 0.0
C897 C 0.51212 0.91295 0.13909 0.0
N898 N 0.45807 0.02753 0.13076 0.0
N899 N 0.51345 0.94774 0.13001 0.0
loop_
_geom_bond_atom_site_label_1
_geom_bond_atom_site_label_2
_geom_bond_distance
_geom_bond_site_symmetry_2
_ccdc_geom_bond_type
Zn0 O6 1.920 . S
Zn0 O12 1.898 . S
Zn0 O15 1.905 . S
Zn1 O9 1.905 . S
Zn1 O10 1.898 . S
Zn1 O18 1.920 . S
Zn2 O5 2.080 . S
Zn2 O8 2.114 . S
Zn2 O11 2.120 . S
Zn2 O13 2.120 . S
Zn2 O14 2.114 . S
Zn2 O17 2.080 . S
C3 O8 1.166 . S
C3 O9 1.182 . S
C4 O10 1.167 . S
C4 O11 1.299 . S
O5 Zn2 2.080 . S
O5 C19 1.305 . S
O6 Zn0 1.920 . S
O6 C19 1.234 . S
C7 O12 1.167 . S
C7 O13 1.299 . S
O8 Zn2 2.114 . S
O8 C3 1.166 . S
O9 Zn1 1.905 . S
O9 C3 1.182 . S
O10 Zn1 1.898 . S
O10 C4 1.167 . S
O11 Zn2 2.120 . S
O11 C4 1.299 . S
O12 Zn0 1.898 . S
O12 C7 1.167 . S
O13 Zn2 2.120 . S
O13 C7 1.299 . S
O14 Zn2 2.114 . S
O14 C16 1.166 . S
O15 Zn0 1.905 . S
O15 C16 1.182 . S
C16 O14 1.166 . S
C16 O15 1.182 . S
O17 Zn2 2.080 . S
O17 C20 1.305 . S
O18 Zn1 1.920 . S
O18 C20 1.234 . S
C19 O5 1.305 . S
C19 O6 1.234 . S
C20 O17 1.305 . S
C20 O18 1.234 . S
Zn21 O27 1.920 . S
Zn21 O33 1.898 . S
Zn21 O36 1.905 . S
Zn22 O30 1.905 . S
Zn22 O31 1.898 . S
Zn22 O39 1.920 . S
Zn23 O26 2.080 . S
Zn23 O29 2.114 . S
Zn23 O32 2.120 . S
Zn23 O34 2.120 . S
Zn23 O35 2.114 . S
Zn23 O38 2.080 . S
C24 O29 1.166 . S
C24 O30 1.182 . S
C25 O31 1.167 . S
C25 O32 1.299 . S
O26 Zn23 2.080 . S
O26 C40 1.305 . S
O27 Zn21 1.920 . S
O27 C40 1.234 . S
C28 O33 1.167 . S
C28 O34 1.299 . S
O29 Zn23 2.114 . S
O29 C24 1.166 . S
O30 Zn22 1.905 . S
O30 C24 1.182 . S
O31 Zn22 1.898 . S
O31 C25 1.167 . S
O32 Zn23 2.120 . S
O32 C25 1.299 . S
O33 Zn21 1.898 . S
O33 C28 1.167 . S
O34 Zn23 2.120 . S
O34 C28 1.299 . S
O35 Zn23 2.114 . S
O35 C37 1.166 . S
O36 Zn21 1.905 . S
O36 C37 1.182 . S
C37 O35 1.166 . S
C37 O36 1.182 . S
O38 Zn23 2.080 . S
O38 C41 1.305 . S
O39 Zn22 1.920 . S
O39 C41 1.234 . S
C40 O26 1.305 . S
C40 O27 1.234 . S
C41 O38 1.305 . S
C41 O39 1.234 . S
Zn42 O48 1.920 . S
Zn42 O54 1.898 . S
Zn42 O57 1.905 . S
Zn43 O51 1.905 . S
Zn43 O52 1.898 . S
Zn43 O60 1.920 . S
Zn44 O47 2.080 . S
Zn44 O50 2.114 . S
Zn44 O53 2.120 . S
Zn44 O55 2.120 . S
Zn44 O56 2.114 . S
Zn44 O59 2.080 . S
C45 O50 1.166 . S
C45 O51 1.182 . S
C46 O52 1.167 . S
C46 O53 1.299 . S
O47 Zn44 2.080 . S
O47 C61 1.305 . S
O48 Zn42 1.920 . S
O48 C61 1.234 . S
C49 O54 1.167 . S
C49 O55 1.299 . S
O50 Zn44 2.114 . S
O50 C45 1.166 . S
O51 Zn43 1.905 . S
O51 C45 1.182 . S
O52 Zn43 1.898 . S
O52 C46 1.167 . S
O53 Zn44 2.120 . S
O53 C46 1.299 . S
O54 Zn42 1.898 . S
O54 C49 1.167 . S
O55 Zn44 2.120 . S
O55 C49 1.299 . S
O56 Zn44 2.114 . S
O56 C58 1.166 . S
O57 Zn42 1.905 . S
O57 C58 1.182 . S
C58 O56 1.166 . S
C58 O57 1.182 . S
O59 Zn44 2.080 . S
O59 C62 1.305 . S
O60 Zn43 1.920 . S
O60 C62 1.234 . S
C61 O47 1.305 . S
C61 O48 1.234 . S
C62 O59 1.305 . S
C62 O60 1.234 . S
Zn63 O69 1.920 . S
Zn63 O75 1.898 . S
Zn63 O78 1.905 . S
Zn64 O72 1.905 . S
Zn64 O73 1.898 . S
Zn64 O81 1.920 . S
Zn65 O68 2.080 . S
Zn65 O71 2.114 . S
Zn65 O74 2.120 . S
Zn65 O76 2.120 . S
Zn65 O77 2.114 . S
Zn65 O80 2.080 . S
C66 O71 1.166 . S
C66 O72 1.182 . S
C67 O73 1.167 . S
C67 O74 1.299 . S
O68 Zn65 2.080 . S
O68 C82 1.305 . S
O69 Zn63 1.920 . S
O69 C82 1.234 . S
C70 O75 1.167 . S
C70 O76 1.299 . S
O71 Zn65 2.114 . S
O71 C66 1.166 . S
O72 Zn64 1.905 . S
O72 C66 1.182 . S
O73 Zn64 1.898 . S
O73 C67 1.167 . S
O74 Zn65 2.120 . S
O74 C67 1.299 . S
O75 Zn63 1.898 . S
O75 C70 1.167 . S
O76 Zn65 2.120 . S
O76 C70 1.299 . S
O77 Zn65 2.114 . S
O77 C79 1.166 . S
O78 Zn63 1.905 . S
O78 C79 1.182 . S
C79 O77 1.166 . S
C79 O78 1.182 . S
O80 Zn65 2.080 . S
O80 C83 1.305 . S
O81 Zn64 1.920 . S
O81 C83 1.234 . S
C82 O68 1.305 . S
C82 O69 1.234 . S
C83 O80 1.305 . S
C83 O81 1.234 . S
Zn84 O90 1.920 . S
Zn84 O96 1.898 . S
Zn84 O99 1.905 . S
Zn85 O93 1.905 . S
Zn85 O94 1.898 . S
Zn85 O102 1.920 . S
Zn86 O89 2.080 . S
Zn86 O92 2.114 . S
Zn86 O95 2.120 . S
Zn86 O97 2.120 . S
Zn86 O98 2.114 . S
Zn86 O101 2.080 . S
C87 O92 1.166 . S
C87 O93 1.182 . S
C88 O94 1.167 . S
C88 O95 1.299 . S
O89 Zn86 2.080 . S
O89 C103 1.305 . S
O90 Zn84 1.920 . S
O90 C103 1.234 . S
C91 O96 1.167 . S
C91 O97 1.299 . S
O92 Zn86 2.114 . S
O92 C87 1.166 . S
O93 Zn85 1.905 . S
O93 C87 1.182 . S
O94 Zn85 1.898 . S
O94 C88 1.167 . S
O95 Zn86 2.120 . S
O95 C88 1.299 . S
O96 Zn84 1.898 . S
O96 C91 1.167 . S
O97 Zn86 2.120 . S
O97 C91 1.299 . S
O98 Zn86 2.114 . S
O98 C100 1.166 . S
O99 Zn84 1.905 . S
O99 C100 1.182 . S
C100 O98 1.166 . S
C100 O99 1.182 . S
O101 Zn86 2.080 . S
O101 C104 1.305 . S
O102 Zn85 1.920 . S
O102 C104 1.234 . S
C103 O89 1.305 . S
C103 O90 1.234 . S
C104 O101 1.305 . S
C104 O102 1.234 . S
Zn105 O111 1.920 . S
Zn105 O117 1.898 . S
Zn105 O120 1.905 . S
Zn106 O114 1.905 . S
Zn106 O115 1.898 . S
Zn106 O123 1.920 . S
Zn107 O110 2.080 . S
Zn107 O113 2.114 . S
Zn107 O116 2.120 . S
Zn107 O118 2.120 . S
Zn107 O119 2.114 . S
Zn107 O122 2.080 . S
C108 O113 1.166 . S
C108 O114 1.182 . S
C109 O115 1.167 . S
C109 O116 1.299 . S
O110 Zn107 2.080 . S
O110 C124 1.305 . S
O111 Zn105 1.920 . S
O111 C124 1.234 . S
C112 O117 1.167 . S
C112 O118 1.299 . S
O113 Zn107 2.114 . S
O113 C108 1.166 . S
O114 Zn106 1.905 . S
O114 C108 1.182 . S
O115 Zn106 1.898 . S
O115 C109 1.167 . S
O116 Zn107 2.120 . S
O116 C109 1.299 . S
O117 Zn105 1.898 . S
O117 C112 1.167 . S
O118 Zn107 2.120 . S
O118 C112 1.299 . S
O119 Zn107 2.114 . S
O119 C121 1.166 . S
O120 Zn105 1.905 . S
O120 C121 1.182 . S
C121 O119 1.166 . S
C121 O120 1.182 . S
O122 Zn107 2.080 . S
O122 C125 1.305 . S
O123 Zn106 1.920 . S
O123 C125 1.234 . S
C124 O110 1.305 . S
C124 O111 1.234 . S
C125 O122 1.305 . S
C125 O123 1.234 . S
Zn126 O132 1.920 . S
Zn126 O138 1.898 . S
Zn126 O141 1.905 . S
Zn127 O135 1.905 . S
Zn127 O136 1.898 . S
Zn127 O144 1.920 . S
Zn128 O131 2.080 . S
Zn128 O134 2.114 . S
Zn128 O137 2.120 . S
Zn128 O139 2.120 . S
Zn128 O140 2.114 . S
Zn128 O143 2.080 . S
C129 O134 1.166 . S
C129 O135 1.182 . S
C130 O136 1.167 . S
C130 O137 1.299 . S
O131 Zn128 2.080 . S
O131 C145 1.305 . S
O132 Zn126 1.920 . S
O132 C145 1.234 . S
C133 O138 1.167 . S
C133 O139 1.299 . S
O134 Zn128 2.114 . S
O134 C129 1.166 . S
O135 Zn127 1.905 . S
O135 C129 1.182 . S
O136 Zn127 1.898 . S
O136 C130 1.167 . S
O137 Zn128 2.120 . S
O137 C130 1.299 . S
O138 Zn126 1.898 . S
O138 C133 1.167 . S
O139 Zn128 2.120 . S
O139 C133 1.299 . S
O140 Zn128 2.114 . S
O140 C142 1.166 . S
O141 Zn126 1.905 . S
O141 C142 1.182 . S
C142 O140 1.166 . S
C142 O141 1.182 . S
O143 Zn128 2.080 . S
O143 C146 1.305 . S
O144 Zn127 1.920 . S
O144 C146 1.234 . S
C145 O131 1.305 . S
C145 O132 1.234 . S
C146 O143 1.305 . S
C146 O144 1.234 . S
Zn147 O153 1.920 . S
Zn147 O159 1.898 . S
Zn147 O162 1.905 . S
Zn148 O156 1.905 . S
Zn148 O157 1.898 . S
Zn148 O165 1.920 . S
Zn149 O152 2.080 . S
Zn149 O155 2.114 . S
Zn149 O158 2.120 . S
Zn149 O160 2.120 . S
Zn149 O161 2.114 . S
Zn149 O164 2.080 . S
C150 O155 1.166 . S
C150 O156 1.182 . S
C151 O157 1.167 . S
C151 O158 1.299 . S
O152 Zn149 2.080 . S
O152 C166 1.305 . S
O153 Zn147 1.920 . S
O153 C166 1.234 . S
C154 O159 1.167 . S
C154 O160 1.299 . S
O155 Zn149 2.114 . S
O155 C150 1.166 . S
O156 Zn148 1.905 . S
O156 C150 1.182 . S
O157 Zn148 1.898 . S
O157 C151 1.167 . S
O158 Zn149 2.120 . S
O158 C151 1.299 . S
O159 Zn147 1.898 . S
O159 C154 1.167 . S
O160 Zn149 2.120 . S
O160 C154 1.299 . S
O161 Zn149 2.114 . S
O161 C163 1.166 . S
O162 Zn147 1.905 . S
O162 C163 1.182 . S
C163 O161 1.166 . S
C163 O162 1.182 . S
O164 Zn149 2.080 . S
O164 C167 1.305 . S
O165 Zn148 1.920 . S
O165 C167 1.234 . S
C166 O152 1.305 . S
C166 O153 1.234 . S
C167 O164 1.305 . S
C167 O165 1.234 . S
Zn168 O174 1.920 . S
Zn168 O180 1.898 . S
Zn168 O183 1.905 . S
Zn169 O177 1.905 . S
Zn169 O178 1.898 . S
Zn169 O186 1.920 . S
Zn170 O173 2.080 . S
Zn170 O176 2.114 . S
Zn170 O179 2.120 . S
Zn170 O181 2.120 . S
Zn170 O182 2.114 . S
Zn170 O185 2.080 . S
C171 O176 1.166 . S
C171 O177 1.182 . S
C172 O178 1.167 . S
C172 O179 1.299 . S
O173 Zn170 2.080 . S
O173 C187 1.305 . S
O174 Zn168 1.920 . S
O174 C187 1.234 . S
C175 O180 1.167 . S
C175 O181 1.299 . S
O176 Zn170 2.114 . S
O176 C171 1.166 . S
O177 Zn169 1.905 . S
O177 C171 1.182 . S
O178 Zn169 1.898 . S
O178 C172 1.167 . S
O179 Zn170 2.120 . S
O179 C172 1.299 . S
O180 Zn168 1.898 . S
O180 C175 1.167 . S
O181 Zn170 2.120 . S
O181 C175 1.299 . S
O182 Zn170 2.114 . S
O182 C184 1.166 . S
O183 Zn168 1.905 . S
O183 C184 1.182 . S
C184 O182 1.166 . S
C184 O183 1.182 . S
O185 Zn170 2.080 . S
O185 C188 1.305 . S
O186 Zn169 1.920 . S
O186 C188 1.234 . S
C187 O173 1.305 . S
C187 O174 1.234 . S
C188 O185 1.305 . S
C188 O186 1.234 . S
Zn189 O195 1.920 . S
Zn189 O201 1.898 . S
Zn189 O204 1.905 . S
Zn190 O198 1.905 . S
Zn190 O199 1.898 . S
Zn190 O207 1.920 . S
Zn191 O194 2.080 . S
Zn191 O197 2.114 . S
Zn191 O200 2.120 . S
Zn191 O202 2.120 . S
Zn191 O203 2.114 . S
Zn191 O206 2.080 . S
C192 O197 1.166 . S
C192 O198 1.182 . S
C193 O199 1.167 . S
C193 O200 1.299 . S
O194 Zn191 2.080 . S
O194 C208 1.305 . S
O195 Zn189 1.920 . S
O195 C208 1.234 . S
C196 O201 1.167 . S
C196 O202 1.299 . S
O197 Zn191 2.114 . S
O197 C192 1.166 . S
O198 Zn190 1.905 . S
O198 C192 1.182 . S
O199 Zn190 1.898 . S
O199 C193 1.167 . S
O200 Zn191 2.120 . S
O200 C193 1.299 . S
O201 Zn189 1.898 . S
O201 C196 1.167 . S
O202 Zn191 2.120 . S
O202 C196 1.299 . S
O203 Zn191 2.114 . S
O203 C205 1.166 . S
O204 Zn189 1.905 . S
O204 C205 1.182 . S
C205 O203 1.166 . S
C205 O204 1.182 . S
O206 Zn191 2.080 . S
O206 C209 1.305 . S
O207 Zn190 1.920 . S
O207 C209 1.234 . S
C208 O194 1.305 . S
C208 O195 1.234 . S
C209 O206 1.305 . S
C209 O207 1.234 . S
Zn210 O216 1.920 . S
Zn210 O222 1.898 . S
Zn210 O225 1.905 . S
Zn211 O219 1.905 . S
Zn211 O220 1.898 . S
Zn211 O228 1.920 . S
Zn212 O215 2.080 . S
Zn212 O218 2.114 . S
Zn212 O221 2.120 . S
Zn212 O223 2.120 . S
Zn212 O224 2.114 . S
Zn212 O227 2.080 . S
C213 O218 1.166 . S
C213 O219 1.182 . S
C214 O220 1.167 . S
C214 O221 1.299 . S
O215 Zn212 2.080 . S
O215 C229 1.305 . S
O216 Zn210 1.920 . S
O216 C229 1.234 . S
C217 O222 1.167 . S
C217 O223 1.299 . S
O218 Zn212 2.114 . S
O218 C213 1.166 . S
O219 Zn211 1.905 . S
O219 C213 1.182 . S
O220 Zn211 1.898 . S
O220 C214 1.167 . S
O221 Zn212 2.120 . S
O221 C214 1.299 . S
O222 Zn210 1.898 . S
O222 C217 1.167 . S
O223 Zn212 2.120 . S
O223 C217 1.299 . S
O224 Zn212 2.114 . S
O224 C226 1.166 . S
O225 Zn210 1.905 . S
O225 C226 1.182 . S
C226 O224 1.166 . S
C226 O225 1.182 . S
O227 Zn212 2.080 . S
O227 C230 1.305 . S
O228 Zn211 1.920 . S
O228 C230 1.234 . S
C229 O215 1.305 . S
C229 O216 1.234 . S
C230 O227 1.305 . S
C230 O228 1.234 . S
Zn231 O237 1.920 . S
Zn231 O243 1.898 . S
Zn231 O246 1.905 . S
Zn232 O240 1.905 . S
Zn232 O241 1.898 . S
Zn232 O249 1.920 . S
Zn233 O236 2.080 . S
Zn233 O239 2.114 . S
Zn233 O242 2.120 . S
Zn233 O244 2.120 . S
Zn233 O245 2.114 . S
Zn233 O248 2.080 . S
C234 O239 1.166 . S
C234 O240 1.182 . S
C235 O241 1.167 . S
C235 O242 1.299 . S
O236 Zn233 2.080 . S
O236 C250 1.305 . S
O237 Zn231 1.920 . S
O237 C250 1.234 . S
C238 O243 1.167 . S
C238 O244 1.299 . S
O239 Zn233 2.114 . S
O239 C234 1.166 . S
O240 Zn232 1.905 . S
O240 C234 1.182 . S
O241 Zn232 1.898 . S
O241 C235 1.167 . S
O242 Zn233 2.120 . S
O242 C235 1.299 . S
O243 Zn231 1.898 . S
O243 C238 1.167 . S
O244 Zn233 2.120 . S
O244 C238 1.299 . S
O245 Zn233 2.114 . S
O245 C247 1.166 . S
O246 Zn231 1.905 . S
O246 C247 1.182 . S
C247 O245 1.166 . S
C247 O246 1.182 . S
O248 Zn233 2.080 . S
O248 C251 1.305 . S
O249 Zn232 1.920 . S
O249 C251 1.234 . S
C250 O236 1.305 . S
C250 O237 1.234 . S
C251 O248 1.305 . S
C251 O249 1.234 . S
H252 C258 0.930 . S
H253 C262 0.930 . S
H254 C267 0.929 . S
H255 C265 0.929 . S
H256 C260 0.929 . S
H257 C266 0.929 . S
C258 H252 0.930 . S
C258 C259 1.367 . S
C258 C266 1.378 . S
C259 C258 1.367 . S
C259 C267 1.433 . S
C260 H256 0.929 . S
C260 C262 1.378 . S
C260 C264 1.350 . S
C261 C264 1.463 . S
C261 C266 1.350 . S
C261 N269 1.427 . S
C262 H253 0.930 . S
C262 C260 1.378 . S
C262 C263 1.367 . S
C263 C262 1.367 . S
C263 C265 1.433 . S
C264 C260 1.350 . S
C264 C261 1.463 . S
C264 N268 1.427 . S
C265 H255 0.929 . S
C265 C263 1.433 . S
C265 N268 1.384 . S
C266 H257 0.929 . S
C266 C258 1.378 . S
C266 C261 1.350 . S
C267 H254 0.929 . S
C267 C259 1.433 . S
C267 N269 1.384 . S
N268 C264 1.427 . S
N268 C265 1.384 . S
N269 C261 1.427 . S
N269 C267 1.384 . S
H270 C276 0.930 . S
H271 C280 0.930 . S
H272 C285 0.929 . S
H273 C283 0.929 . S
H274 C278 0.929 . S
H275 C284 0.929 . S
C276 H270 0.930 . S
C276 C277 1.367 . S
C276 C284 1.378 . S
C277 C276 1.367 . S
C277 C285 1.433 . S
C278 H274 0.929 . S
C278 C280 1.378 . S
C278 C282 1.350 . S
C279 C282 1.463 . S
C279 C284 1.350 . S
C279 N287 1.427 . S
C280 H271 0.930 . S
C280 C278 1.378 . S
C280 C281 1.367 . S
C281 C280 1.367 . S
C281 C283 1.433 . S
C282 C278 1.350 . S
C282 C279 1.463 . S
C282 N286 1.427 . S
C283 H273 0.929 . S
C283 C281 1.433 . S
C283 N286 1.384 . S
C284 H275 0.929 . S
C284 C276 1.378 . S
C284 C279 1.350 . S
C285 H272 0.929 . S
C285 C277 1.433 . S
C285 N287 1.384 . S
N286 C282 1.427 . S
N286 C283 1.384 . S
N287 C279 1.427 . S
N287 C285 1.384 . S
H288 C294 0.930 . S
H289 C298 0.930 . S
H290 C303 0.929 . S
H291 C301 0.929 . S
H292 C296 0.929 . S
H293 C302 0.929 . S
C294 H288 0.930 . S
C294 C295 1.367 . S
C294 C302 1.378 . S
C295 C294 1.367 . S
C295 C303 1.433 . S
C296 H292 0.929 . S
C296 C298 1.378 . S
C296 C300 1.350 . S
C297 C300 1.463 . S
C297 C302 1.350 . S
C297 N305 1.427 . S
C298 H289 0.930 . S
C298 C296 1.378 . S
C298 C299 1.367 . S
C299 C298 1.367 . S
C299 C301 1.433 . S
C300 C296 1.350 . S
C300 C297 1.463 . S
C300 N304 1.427 . S
C301 H291 0.929 . S
C301 C299 1.433 . S
C301 N304 1.384 . S
C302 H293 0.929 . S
C302 C294 1.378 . S
C302 C297 1.350 . S
C303 H290 0.929 . S
C303 C295 1.433 . S
C303 N305 1.384 . S
N304 C300 1.427 . S
N304 C301 1.384 . S
N305 C297 1.427 . S
N305 C303 1.384 . S
H306 C312 0.930 . S
H307 C316 0.930 . S
H308 C321 0.929 . S
H309 C319 0.929 . S
H310 C314 0.929 . S
H311 C320 0.929 . S
C312 H306 0.930 . S
C312 C313 1.367 . S
C312 C320 1.378 . S
C313 C312 1.367 . S
C313 C321 1.433 . S
C314 H310 0.929 . S
C314 C316 1.378 . S
C314 C318 1.350 . S
C315 C318 1.463 . S
C315 C320 1.350 . S
C315 N323 1.427 . S
C316 H307 0.930 . S
C316 C314 1.378 . S
C316 C317 1.367 . S
C317 C316 1.367 . S
C317 C319 1.433 . S
C318 C314 1.350 . S
C318 C315 1.463 . S
C318 N322 1.427 . S
C319 H309 0.929 . S
C319 C317 1.433 . S
C319 N322 1.384 . S
C320 H311 0.929 . S
C320 C312 1.378 . S
C320 C315 1.350 . S
C321 H308 0.929 . S
C321 C313 1.433 . S
C321 N323 1.384 . S
N322 C318 1.427 . S
N322 C319 1.384 . S
N323 C315 1.427 . S
N323 C321 1.384 . S
H324 C330 0.930 . S
H325 C334 0.930 . S
H326 C339 0.929 . S
H327 C337 0.929 . S
H328 C332 0.929 . S
H329 C338 0.929 . S
C330 H324 0.930 . S
C330 C331 1.367 . S
C330 C338 1.378 . S
C331 C330 1.367 . S
C331 C339 1.433 . S
C332 H328 0.929 . S
C332 C334 1.378 . S
C332 C336 1.350 . S
C333 C336 1.463 . S
C333 C338 1.350 . S
C333 N341 1.427 . S
C334 H325 0.930 . S
C334 C332 1.378 . S
C334 C335 1.367 . S
C335 C334 1.367 . S
C335 C337 1.433 . S
C336 C332 1.350 . S
C336 C333 1.463 . S
C336 N340 1.427 . S
C337 H327 0.929 . S
C337 C335 1.433 . S
C337 N340 1.384 . S
C338 H329 0.929 . S
C338 C330 1.378 . S
C338 C333 1.350 . S
C339 H326 0.929 . S
C339 C331 1.433 . S
C339 N341 1.384 . S
N340 C336 1.427 . S
N340 C337 1.384 . S
N341 C333 1.427 . S
N341 C339 1.384 . S
H342 C348 0.930 . S
H343 C352 0.930 . S
H344 C357 0.929 . S
H345 C355 0.929 . S
H346 C350 0.929 . S
H347 C356 0.929 . S
C348 H342 0.930 . S
C348 C349 1.367 . S
C348 C356 1.378 . S
C349 C348 1.367 . S
C349 C357 1.433 . S
C350 H346 0.929 . S
C350 C352 1.378 . S
C350 C354 1.350 . S
C351 C354 1.463 . S
C351 C356 1.350 . S
C351 N359 1.427 . S
C352 H343 0.930 . S
C352 C350 1.378 . S
C352 C353 1.367 . S
C353 C352 1.367 . S
C353 C355 1.433 . S
C354 C350 1.350 . S
C354 C351 1.463 . S
C354 N358 1.427 . S
C355 H345 0.929 . S
C355 C353 1.433 . S
C355 N358 1.384 . S
C356 H347 0.929 . S
C356 C348 1.378 . S
C356 C351 1.350 . S
C357 H344 0.929 . S
C357 C349 1.433 . S
C357 N359 1.384 . S
N358 C354 1.427 . S
N358 C355 1.384 . S
N359 C351 1.427 . S
N359 C357 1.384 . S
H360 C366 0.930 . S
H361 C370 0.930 . S
H362 C375 0.929 . S
H363 C373 0.929 . S
H364 C368 0.929 . S
H365 C374 0.929 . S
C366 H360 0.930 . S
C366 C367 1.367 . S
C366 C374 1.378 . S
C367 C366 1.367 . S
C367 C375 1.433 . S
C368 H364 0.929 . S
C368 C370 1.378 . S
C368 C372 1.350 . S
C369 C372 1.463 . S
C369 C374 1.350 . S
C369 N377 1.427 . S
C370 H361 0.930 . S
C370 C368 1.378 . S
C370 C371 1.367 . S
C371 C370 1.367 . S
C371 C373 1.433 . S
C372 C368 1.350 . S
C372 C369 1.463 . S
C372 N376 1.427 . S
C373 H363 0.929 . S
C373 C371 1.433 . S
C373 N376 1.384 . S
C374 H365 0.929 . S
C374 C366 1.378 . S
C374 C369 1.350 . S
C375 H362 0.929 . S
C375 C367 1.433 . S
C375 N377 1.384 . S
N376 C372 1.427 . S
N376 C373 1.384 . S
N377 C369 1.427 . S
N377 C375 1.384 . S
H378 C384 0.930 . S
H379 C388 0.930 . S
H380 C393 0.929 . S
H381 C391 0.929 . S
H382 C386 0.929 . S
H383 C392 0.929 . S
C384 H378 0.930 . S
C384 C385 1.367 . S
C384 C392 1.378 . S
C385 C384 1.367 . S
C385 C393 1.433 . S
C386 H382 0.929 . S
C386 C388 1.378 . S
C386 C390 1.350 . S
C387 C390 1.463 . S
C387 C392 1.350 . S
C387 N395 1.427 . S
C388 H379 0.930 . S
C388 C386 1.378 . S
C388 C389 1.367 . S
C389 C388 1.367 . S
C389 C391 1.433 . S
C390 C386 1.350 . S
C390 C387 1.463 . S
C390 N394 1.427 . S
C391 H381 0.929 . S
C391 C389 1.433 . S
C391 N394 1.384 . S
C392 H383 0.929 . S
C392 C384 1.378 . S
C392 C387 1.350 . S
C393 H380 0.929 . S
C393 C385 1.433 . S
C393 N395 1.384 . S
N394 C390 1.427 . S
N394 C391 1.384 . S
N395 C387 1.427 . S
N395 C393 1.384 . S
H396 C402 0.930 . S
H397 C406 0.930 . S
H398 C411 0.929 . S
H399 C409 0.929 . S
H400 C404 0.929 . S
H401 C410 0.929 . S
C402 H396 0.930 . S
C402 C403 1.367 . S
C402 C410 1.378 . S
C403 C402 1.367 . S
C403 C411 1.433 . S
C404 H400 0.929 . S
C404 C406 1.378 . S
C404 C408 1.350 . S
C405 C408 1.463 . S
C405 C410 1.350 . S
C405 N413 1.427 . S
C406 H397 0.930 . S
C406 C404 1.378 . S
C406 C407 1.367 . S
C407 C406 1.367 . S
C407 C409 1.433 . S
C408 C404 1.350 . S
C408 C405 1.463 . S
C408 N412 1.427 . S
C409 H399 0.929 . S
C409 C407 1.433 . S
C409 N412 1.384 . S
C410 H401 0.929 . S
C410 C402 1.378 . S
C410 C405 1.350 . S
C411 H398 0.929 . S
C411 C403 1.433 . S
C411 N413 1.384 . S
N412 C408 1.427 . S
N412 C409 1.384 . S
N413 C405 1.427 . S
N413 C411 1.384 . S
H414 C420 0.930 . S
H415 C424 0.930 . S
H416 C429 0.929 . S
H417 C427 0.929 . S
H418 C422 0.929 . S
H419 C428 0.929 . S
C420 H414 0.930 . S
C420 C421 1.367 . S
C420 C428 1.378 . S
C421 C420 1.367 . S
C421 C429 1.433 . S
C422 H418 0.929 . S
C422 C424 1.378 . S
C422 C426 1.350 . S
C423 C426 1.463 . S
C423 C428 1.350 . S
C423 N431 1.427 . S
C424 H415 0.930 . S
C424 C422 1.378 . S
C424 C425 1.367 . S
C425 C424 1.367 . S
C425 C427 1.433 . S
C426 C422 1.350 . S
C426 C423 1.463 . S
C426 N430 1.427 . S
C427 H417 0.929 . S
C427 C425 1.433 . S
C427 N430 1.384 . S
C428 H419 0.929 . S
C428 C420 1.378 . S
C428 C423 1.350 . S
C429 H416 0.929 . S
C429 C421 1.433 . S
C429 N431 1.384 . S
N430 C426 1.427 . S
N430 C427 1.384 . S
N431 C423 1.427 . S
N431 C429 1.384 . S
H432 C438 0.930 . S
H433 C442 0.930 . S
H434 C447 0.929 . S
H435 C445 0.929 . S
H436 C440 0.929 . S
H437 C446 0.929 . S
C438 H432 0.930 . S
C438 C439 1.367 . S
C438 C446 1.378 . S
C439 C438 1.367 . S
C439 C447 1.433 . S
C440 H436 0.929 . S
C440 C442 1.378 . S
C440 C444 1.350 . S
C441 C444 1.463 . S
C441 C446 1.350 . S
C441 N449 1.427 . S
C442 H433 0.930 . S
C442 C440 1.378 . S
C442 C443 1.367 . S
C443 C442 1.367 . S
C443 C445 1.433 . S
C444 C440 1.350 . S
C444 C441 1.463 . S
C444 N448 1.427 . S
C445 H435 0.929 . S
C445 C443 1.433 . S
C445 N448 1.384 . S
C446 H437 0.929 . S
C446 C438 1.378 . S
C446 C441 1.350 . S
C447 H434 0.929 . S
C447 C439 1.433 . S
C447 N449 1.384 . S
N448 C444 1.427 . S
N448 C445 1.384 . S
N449 C441 1.427 . S
N449 C447 1.384 . S
H450 C456 0.930 . S
H451 C460 0.930 . S
H452 C465 0.929 . S
H453 C463 0.929 . S
H454 C458 0.929 . S
H455 C464 0.929 . S
C456 H450 0.930 . S
C456 C457 1.367 . S
C456 C464 1.378 . S
C457 C456 1.367 . S
C457 C465 1.433 . S
C458 H454 0.929 . S
C458 C460 1.378 . S
C458 C462 1.350 . S
C459 C462 1.463 . S
C459 C464 1.350 . S
C459 N467 1.427 . S
C460 H451 0.930 . S
C460 C458 1.378 . S
C460 C461 1.367 . S
C461 C460 1.367 . S
C461 C463 1.433 . S
C462 C458 1.350 . S
C462 C459 1.463 . S
C462 N466 1.427 . S
C463 H453 0.929 . S
C463 C461 1.433 . S
C463 N466 1.384 . S
C464 H455 0.929 . S
C464 C456 1.378 . S
C464 C459 1.350 . S
C465 H452 0.929 . S
C465 C457 1.433 . S
C465 N467 1.384 . S
N466 C462 1.427 . S
N466 C463 1.384 . S
N467 C459 1.427 . S
N467 C465 1.384 . S
H468 C474 0.930 . S
H469 C478 0.930 . S
H470 C483 0.929 . S
H471 C481 0.929 . S
H472 C476 0.929 . S
H473 C482 0.929 . S
C474 H468 0.930 . S
C474 C475 1.367 . S
C474 C482 1.378 . S
C475 C474 1.367 . S
C475 C483 1.433 . S
C476 H472 0.929 . S
C476 C478 1.378 . S
C476 C480 1.350 . S
C477 C480 1.463 . S
C477 C482 1.350 . S
C477 N485 1.427 . S
C478 H469 0.930 . S
C478 C476 1.378 . S
C478 C479 1.367 . S
C479 C478 1.367 . S
C479 C481 1.433 . S
C480 C476 1.350 . S
C480 C477 1.463 . S
C480 N484 1.427 . S
C481 H471 0.929 . S
C481 C479 1.433 . S
C481 N484 1.384 . S
C482 H473 0.929 . S
C482 C474 1.378 . S
C482 C477 1.350 . S
C483 H470 0.929 . S
C483 C475 1.433 . S
C483 N485 1.384 . S
N484 C480 1.427 . S
N484 C481 1.384 . S
N485 C477 1.427 . S
N485 C483 1.384 . S
H486 C492 0.930 . S
H487 C496 0.930 . S
H488 C501 0.929 . S
H489 C499 0.929 . S
H490 C494 0.929 . S
H491 C500 0.929 . S
C492 H486 0.930 . S
C492 C493 1.367 . S
C492 C500 1.378 . S
C493 C492 1.367 . S
C493 C501 1.433 . S
C494 H490 0.929 . S
C494 C496 1.378 . S
C494 C498 1.350 . S
C495 C498 1.463 . S
C495 C500 1.350 . S
C495 N503 1.427 . S
C496 H487 0.930 . S
C496 C494 1.378 . S
C496 C497 1.367 . S
C497 C496 1.367 . S
C497 C499 1.433 . S
C498 C494 1.350 . S
C498 C495 1.463 . S
C498 N502 1.427 . S
C499 H489 0.929 . S
C499 C497 1.433 . S
C499 N502 1.384 . S
C500 H491 0.929 . S
C500 C492 1.378 . S
C500 C495 1.350 . S
C501 H488 0.929 . S
C501 C493 1.433 . S
C501 N503 1.384 . S
N502 C498 1.427 . S
N502 C499 1.384 . S
N503 C495 1.427 . S
N503 C501 1.384 . S
H504 C510 0.930 . S
H505 C514 0.930 . S
H506 C519 0.929 . S
H507 C517 0.929 . S
H508 C512 0.929 . S
H509 C518 0.929 . S
C510 H504 0.930 . S
C510 C511 1.367 . S
C510 C518 1.378 . S
C511 C510 1.367 . S
C511 C519 1.433 . S
C512 H508 0.929 . S
C512 C514 1.378 . S
C512 C516 1.350 . S
C513 C516 1.463 . S
C513 C518 1.350 . S
C513 N521 1.427 . S
C514 H505 0.930 . S
C514 C512 1.378 . S
C514 C515 1.367 . S
C515 C514 1.367 . S
C515 C517 1.433 . S
C516 C512 1.350 . S
C516 C513 1.463 . S
C516 N520 1.427 . S
C517 H507 0.929 . S
C517 C515 1.433 . S
C517 N520 1.384 . S
C518 H509 0.929 . S
C518 C510 1.378 . S
C518 C513 1.350 . S
C519 H506 0.929 . S
C519 C511 1.433 . S
C519 N521 1.384 . S
N520 C516 1.427 . S
N520 C517 1.384 . S
N521 C513 1.427 . S
N521 C519 1.384 . S
H522 C528 0.930 . S
H523 C532 0.930 . S
H524 C537 0.929 . S
H525 C535 0.929 . S
H526 C530 0.929 . S
H527 C536 0.929 . S
C528 H522 0.930 . S
C528 C529 1.367 . S
C528 C536 1.378 . S
C529 C528 1.367 . S
C529 C537 1.433 . S
C530 H526 0.929 . S
C530 C532 1.378 . S
C530 C534 1.350 . S
C531 C534 1.463 . S
C531 C536 1.350 . S
C531 N539 1.427 . S
C532 H523 0.930 . S
C532 C530 1.378 . S
C532 C533 1.367 . S
C533 C532 1.367 . S
C533 C535 1.433 . S
C534 C530 1.350 . S
C534 C531 1.463 . S
C534 N538 1.427 . S
C535 H525 0.929 . S
C535 C533 1.433 . S
C535 N538 1.384 . S
C536 H527 0.929 . S
C536 C528 1.378 . S
C536 C531 1.350 . S
C537 H524 0.929 . S
C537 C529 1.433 . S
C537 N539 1.384 . S
N538 C534 1.427 . S
N538 C535 1.384 . S
N539 C531 1.427 . S
N539 C537 1.384 . S
H540 C546 0.930 . S
H541 C550 0.930 . S
H542 C555 0.929 . S
H543 C553 0.929 . S
H544 C548 0.929 . S
H545 C554 0.929 . S
C546 H540 0.930 . S
C546 C547 1.367 . S
C546 C554 1.378 . S
C547 C546 1.367 . S
C547 C555 1.433 . S
C548 H544 0.929 . S
C548 C550 1.378 . S
C548 C552 1.350 . S
C549 C552 1.463 . S
C549 C554 1.350 . S
C549 N557 1.427 . S
C550 H541 0.930 . S
C550 C548 1.378 . S
C550 C551 1.367 . S
C551 C550 1.367 . S
C551 C553 1.433 . S
C552 C548 1.350 . S
C552 C549 1.463 . S
C552 N556 1.427 . S
C553 H543 0.929 . S
C553 C551 1.433 . S
C553 N556 1.384 . S
C554 H545 0.929 . S
C554 C546 1.378 . S
C554 C549 1.350 . S
C555 H542 0.929 . S
C555 C547 1.433 . S
C555 N557 1.384 . S
N556 C552 1.427 . S
N556 C553 1.384 . S
N557 C549 1.427 . S
N557 C555 1.384 . S
H558 C564 0.930 . S
H559 C568 0.930 . S
H560 C573 0.929 . S
H561 C571 0.929 . S
H562 C566 0.929 . S
H563 C572 0.929 . S
C564 H558 0.930 . S
C564 C565 1.367 . S
C564 C572 1.378 . S
C565 C564 1.367 . S
C565 C573 1.433 . S
C566 H562 0.929 . S
C566 C568 1.378 . S
C566 C570 1.350 . S
C567 C570 1.463 . S
C567 C572 1.350 . S
C567 N575 1.427 . S
C568 H559 0.930 . S
C568 C566 1.378 . S
C568 C569 1.367 . S
C569 C568 1.367 . S
C569 C571 1.433 . S
C570 C566 1.350 . S
C570 C567 1.463 . S
C570 N574 1.427 . S
C571 H561 0.929 . S
C571 C569 1.433 . S
C571 N574 1.384 . S
C572 H563 0.929 . S
C572 C564 1.378 . S
C572 C567 1.350 . S
C573 H560 0.929 . S
C573 C565 1.433 . S
C573 N575 1.384 . S
N574 C570 1.427 . S
N574 C571 1.384 . S
N575 C567 1.427 . S
N575 C573 1.384 . S
H576 C582 0.930 . S
H577 C586 0.930 . S
H578 C591 0.929 . S
H579 C589 0.929 . S
H580 C584 0.929 . S
H581 C590 0.929 . S
C582 H576 0.930 . S
C582 C583 1.367 . S
C582 C590 1.378 . S
C583 C582 1.367 . S
C583 C591 1.433 . S
C584 H580 0.929 . S
C584 C586 1.378 . S
C584 C588 1.350 . S
C585 C588 1.463 . S
C585 C590 1.350 . S
C585 N593 1.427 . S
C586 H577 0.930 . S
C586 C584 1.378 . S
C586 C587 1.367 . S
C587 C586 1.367 . S
C587 C589 1.433 . S
C588 C584 1.350 . S
C588 C585 1.463 . S
C588 N592 1.427 . S
C589 H579 0.929 . S
C589 C587 1.433 . S
C589 N592 1.384 . S
C590 H581 0.929 . S
C590 C582 1.378 . S
C590 C585 1.350 . S
C591 H578 0.929 . S
C591 C583 1.433 . S
C591 N593 1.384 . S
N592 C588 1.427 . S
N592 C589 1.384 . S
N593 C585 1.427 . S
N593 C591 1.384 . S
H594 C600 0.930 . S
H595 C604 0.930 . S
H596 C609 0.929 . S
H597 C607 0.929 . S
H598 C602 0.929 . S
H599 C608 0.929 . S
C600 H594 0.930 . S
C600 C601 1.367 . S
C600 C608 1.378 . S
C601 C600 1.367 . S
C601 C609 1.433 . S
C602 H598 0.929 . S
C602 C604 1.378 . S
C602 C606 1.350 . S
C603 C606 1.463 . S
C603 C608 1.350 . S
C603 N611 1.427 . S
C604 H595 0.930 . S
C604 C602 1.378 . S
C604 C605 1.367 . S
C605 C604 1.367 . S
C605 C607 1.433 . S
C606 C602 1.350 . S
C606 C603 1.463 . S
C606 N610 1.427 . S
C607 H597 0.929 . S
C607 C605 1.433 . S
C607 N610 1.384 . S
C608 H599 0.929 . S
C608 C600 1.378 . S
C608 C603 1.350 . S
C609 H596 0.929 . S
C609 C601 1.433 . S
C609 N611 1.384 . S
N610 C606 1.427 . S
N610 C607 1.384 . S
N611 C603 1.427 . S
N611 C609 1.384 . S
H612 C618 0.930 . S
H613 C622 0.930 . S
H614 C627 0.929 . S
H615 C625 0.929 . S
H616 C620 0.929 . S
H617 C626 0.929 . S
C618 H612 0.930 . S
C618 C619 1.367 . S
C618 C626 1.378 . S
C619 C618 1.367 . S
C619 C627 1.433 . S
C620 H616 0.929 . S
C620 C622 1.378 . S
C620 C624 1.350 . S
C621 C624 1.463 . S
C621 C626 1.350 . S
C621 N629 1.427 . S
C622 H613 0.930 . S
C622 C620 1.378 . S
C622 C623 1.367 . S
C623 C622 1.367 . S
C623 C625 1.433 . S
C624 C620 1.350 . S
C624 C621 1.463 . S
C624 N628 1.427 . S
C625 H615 0.929 . S
C625 C623 1.433 . S
C625 N628 1.384 . S
C626 H617 0.929 . S
C626 C618 1.378 . S
C626 C621 1.350 . S
C627 H614 0.929 . S
C627 C619 1.433 . S
C627 N629 1.384 . S
N628 C624 1.427 . S
N628 C625 1.384 . S
N629 C621 1.427 . S
N629 C627 1.384 . S
H630 C636 0.930 . S
H631 C640 0.930 . S
H632 C645 0.929 . S
H633 C643 0.929 . S
H634 C638 0.929 . S
H635 C644 0.929 . S
C636 H630 0.930 . S
C636 C637 1.367 . S
C636 C644 1.378 . S
C637 C636 1.367 . S
C637 C645 1.433 . S
C638 H634 0.929 . S
C638 C640 1.378 . S
C638 C642 1.350 . S
C639 C642 1.463 . S
C639 C644 1.350 . S
C639 N647 1.427 . S
C640 H631 0.930 . S
C640 C638 1.378 . S
C640 C641 1.367 . S
C641 C640 1.367 . S
C641 C643 1.433 . S
C642 C638 1.350 . S
C642 C639 1.463 . S
C642 N646 1.427 . S
C643 H633 0.929 . S
C643 C641 1.433 . S
C643 N646 1.384 . S
C644 H635 0.929 . S
C644 C636 1.378 . S
C644 C639 1.350 . S
C645 H632 0.929 . S
C645 C637 1.433 . S
C645 N647 1.384 . S
N646 C642 1.427 . S
N646 C643 1.384 . S
N647 C639 1.427 . S
N647 C645 1.384 . S
H648 C654 0.930 . S
H649 C658 0.930 . S
H650 C663 0.929 . S
H651 C661 0.929 . S
H652 C656 0.929 . S
H653 C662 0.929 . S
C654 H648 0.930 . S
C654 C655 1.367 . S
C654 C662 1.378 . S
C655 C654 1.367 . S
C655 C663 1.433 . S
C656 H652 0.929 . S
C656 C658 1.378 . S
C656 C660 1.350 . S
C657 C660 1.463 . S
C657 C662 1.350 . S
C657 N665 1.427 . S
C658 H649 0.930 . S
C658 C656 1.378 . S
C658 C659 1.367 . S
C659 C658 1.367 . S
C659 C661 1.433 . S
C660 C656 1.350 . S
C660 C657 1.463 . S
C660 N664 1.427 . S
C661 H651 0.929 . S
C661 C659 1.433 . S
C661 N664 1.384 . S
C662 H653 0.929 . S
C662 C654 1.378 . S
C662 C657 1.350 . S
C663 H650 0.929 . S
C663 C655 1.433 . S
C663 N665 1.384 . S
N664 C660 1.427 . S
N664 C661 1.384 . S
N665 C657 1.427 . S
N665 C663 1.384 . S
H666 C672 0.930 . S
H667 C676 0.930 . S
H668 C681 0.929 . S
H669 C679 0.929 . S
H670 C674 0.929 . S
H671 C680 0.929 . S
C672 H666 0.930 . S
C672 C673 1.367 . S
C672 C680 1.378 . S
C673 C672 1.367 . S
C673 C681 1.433 . S
C674 H670 0.929 . S
C674 C676 1.378 . S
C674 C678 1.350 . S
C675 C678 1.463 . S
C675 C680 1.350 . S
C675 N683 1.427 . S
C676 H667 0.930 . S
C676 C674 1.378 . S
C676 C677 1.367 . S
C677 C676 1.367 . S
C677 C679 1.433 . S
C678 C674 1.350 . S
C678 C675 1.463 . S
C678 N682 1.427 . S
C679 H669 0.929 . S
C679 C677 1.433 . S
C679 N682 1.384 . S
C680 H671 0.929 . S
C680 C672 1.378 . S
C680 C675 1.350 . S
C681 H668 0.929 . S
C681 C673 1.433 . S
C681 N683 1.384 . S
N682 C678 1.427 . S
N682 C679 1.384 . S
N683 C675 1.427 . S
N683 C681 1.384 . S
H684 C690 0.930 . S
H685 C694 0.930 . S
H686 C699 0.929 . S
H687 C697 0.929 . S
H688 C692 0.929 . S
H689 C698 0.929 . S
C690 H684 0.930 . S
C690 C691 1.367 . S
C690 C698 1.378 . S
C691 C690 1.367 . S
C691 C699 1.433 . S
C692 H688 0.929 . S
C692 C694 1.378 . S
C692 C696 1.350 . S
C693 C696 1.463 1_565 S
C693 C698 1.350 . S
C693 N701 1.427 . S
C694 H685 0.930 . S
C694 C692 1.378 . S
C694 C695 1.367 . S
C695 C694 1.367 . S
C695 C697 1.433 . S
C696 C692 1.350 . S
C696 C693 1.463 1_545 S
C696 N700 1.427 . S
C697 H687 0.929 . S
C697 C695 1.433 . S
C697 N700 1.384 . S
C698 H689 0.929 . S
C698 C690 1.378 . S
C698 C693 1.350 . S
C699 H686 0.929 . S
C699 C691 1.433 . S
C699 N701 1.384 . S
N700 C696 1.427 . S
N700 C697 1.384 . S
N701 C693 1.427 . S
N701 C699 1.384 . S
H702 C708 0.930 . S
H703 C712 0.930 . S
H704 C717 0.929 . S
H705 C715 0.929 . S
H706 C710 0.929 . S
H707 C716 0.929 . S
C708 H702 0.930 . S
C708 C709 1.367 . S
C708 C716 1.378 . S
C709 C708 1.367 . S
C709 C717 1.433 . S
C710 H706 0.929 . S
C710 C712 1.378 . S
C710 C714 1.350 . S
C711 C714 1.463 1_455 S
C711 C716 1.350 . S
C711 N719 1.427 . S
C712 H703 0.930 . S
C712 C710 1.378 . S
C712 C713 1.367 . S
C713 C712 1.367 . S
C713 C715 1.433 . S
C714 C710 1.350 . S
C714 C711 1.463 1_655 S
C714 N718 1.427 . S
C715 H705 0.929 . S
C715 C713 1.433 . S
C715 N718 1.384 . S
C716 H707 0.929 . S
C716 C708 1.378 . S
C716 C711 1.350 . S
C717 H704 0.929 . S
C717 C709 1.433 . S
C717 N719 1.384 . S
N718 C714 1.427 . S
N718 C715 1.384 . S
N719 C711 1.427 . S
N719 C717 1.384 . S
H720 C726 0.930 . S
H721 C730 0.930 . S
H722 C735 0.929 . S
H723 C733 0.929 . S
H724 C728 0.929 . S
H725 C734 0.929 . S
C726 H720 0.930 . S
C726 C727 1.367 . S
C726 C734 1.378 . S
C727 C726 1.367 . S
C727 C735 1.433 . S
C728 H724 0.929 . S
C728 C730 1.378 . S
C728 C732 1.350 . S
C729 C732 1.463 1_545 S
C729 C734 1.350 . S
C729 N737 1.427 . S
C730 H721 0.930 . S
C730 C728 1.378 . S
C730 C731 1.367 . S
C731 C730 1.367 . S
C731 C733 1.433 . S
C732 C728 1.350 . S
C732 C729 1.463 1_565 S
C732 N736 1.427 . S
C733 H723 0.929 . S
C733 C731 1.433 . S
C733 N736 1.384 . S
C734 H725 0.929 . S
C734 C726 1.378 . S
C734 C729 1.350 . S
C735 H722 0.929 . S
C735 C727 1.433 . S
C735 N737 1.384 . S
N736 C732 1.427 . S
N736 C733 1.384 . S
N737 C729 1.427 . S
N737 C735 1.384 . S
H738 C744 0.930 . S
H739 C748 0.930 . S
H740 C753 0.929 . S
H741 C751 0.929 . S
H742 C746 0.929 . S
H743 C752 0.929 . S
C744 H738 0.930 . S
C744 C745 1.367 . S
C744 C752 1.378 . S
C745 C744 1.367 . S
C745 C753 1.433 . S
C746 H742 0.929 . S
C746 C748 1.378 . S
C746 C750 1.350 . S
C747 C750 1.463 1_455 S
C747 C752 1.350 . S
C747 N755 1.427 . S
C748 H739 0.930 . S
C748 C746 1.378 . S
C748 C749 1.367 . S
C749 C748 1.367 . S
C749 C751 1.433 . S
C750 C746 1.350 . S
C750 C747 1.463 1_655 S
C750 N754 1.427 . S
C751 H741 0.929 . S
C751 C749 1.433 . S
C751 N754 1.384 . S
C752 H743 0.929 . S
C752 C744 1.378 . S
C752 C747 1.350 . S
C753 H740 0.929 . S
C753 C745 1.433 . S
C753 N755 1.384 . S
N754 C750 1.427 . S
N754 C751 1.384 . S
N755 C747 1.427 . S
N755 C753 1.384 . S
H756 C762 0.930 . S
H757 C766 0.930 . S
H758 C771 0.929 . S
H759 C769 0.929 . S
H760 C764 0.929 . S
H761 C770 0.929 . S
C762 H756 0.930 . S
C762 C763 1.367 . S
C762 C770 1.378 . S
C763 C762 1.367 . S
C763 C771 1.433 . S
C764 H760 0.929 . S
C764 C766 1.378 . S
C764 C768 1.350 . S
C765 C768 1.463 1_556 S
C765 C770 1.350 . S
C765 N773 1.427 . S
C766 H757 0.930 . S
C766 C764 1.378 . S
C766 C767 1.367 . S
C767 C766 1.367 . S
C767 C769 1.433 . S
C768 C764 1.350 . S
C768 C765 1.463 1_554 S
C768 N772 1.427 . S
C769 H759 0.929 . S
C769 C767 1.433 . S
C769 N772 1.384 . S
C770 H761 0.929 . S
C770 C762 1.378 . S
C770 C765 1.350 . S
C771 H758 0.929 . S
C771 C763 1.433 . S
C771 N773 1.384 . S
N772 C768 1.427 . S
N772 C769 1.384 . S
N773 C765 1.427 . S
N773 C771 1.384 . S
H774 C780 0.930 . S
H775 C784 0.930 . S
H776 C789 0.929 . S
H777 C787 0.929 . S
H778 C782 0.929 . S
H779 C788 0.929 . S
C780 H774 0.930 . S
C780 C781 1.367 . S
C780 C788 1.378 . S
C781 C780 1.367 . S
C781 C789 1.433 . S
C782 H778 0.929 . S
C782 C784 1.378 . S
C782 C786 1.350 . S
C783 C786 1.463 1_556 S
C783 C788 1.350 . S
C783 N791 1.427 . S
C784 H775 0.930 . S
C784 C782 1.378 . S
C784 C785 1.367 . S
C785 C784 1.367 . S
C785 C787 1.433 . S
C786 C782 1.350 . S
C786 C783 1.463 1_554 S
C786 N790 1.427 . S
C787 H777 0.929 . S
C787 C785 1.433 . S
C787 N790 1.384 . S
C788 H779 0.929 . S
C788 C780 1.378 . S
C788 C783 1.350 . S
C789 H776 0.929 . S
C789 C781 1.433 . S
C789 N791 1.384 . S
N790 C786 1.427 . S
N790 C787 1.384 . S
N791 C783 1.427 . S
N791 C789 1.384 . S
H792 C798 0.930 . S
H793 C802 0.930 . S
H794 C807 0.929 . S
H795 C805 0.929 . S
H796 C800 0.929 . S
H797 C806 0.929 . S
C798 H792 0.930 . S
C798 C799 1.367 . S
C798 C806 1.378 . S
C799 C798 1.367 . S
C799 C807 1.433 . S
C800 H796 0.929 . S
C800 C802 1.378 . S
C800 C804 1.350 . S
C801 C804 1.463 1_554 S
C801 C806 1.350 . S
C801 N809 1.427 . S
C802 H793 0.930 . S
C802 C800 1.378 . S
C802 C803 1.367 . S
C803 C802 1.367 . S
C803 C805 1.433 . S
C804 C800 1.350 . S
C804 C801 1.463 1_556 S
C804 N808 1.427 . S
C805 H795 0.929 . S
C805 C803 1.433 . S
C805 N808 1.384 . S
C806 H797 0.929 . S
C806 C798 1.378 . S
C806 C801 1.350 . S
C807 H794 0.929 . S
C807 C799 1.433 . S
C807 N809 1.384 . S
N808 C804 1.427 . S
N808 C805 1.384 . S
N809 C801 1.427 . S
N809 C807 1.384 . S
H810 C816 0.930 . S
H811 C820 0.930 . S
H812 C825 0.929 . S
H813 C823 0.929 . S
H814 C818 0.929 . S
H815 C824 0.929 . S
C816 H810 0.930 . S
C816 C817 1.367 . S
C816 C824 1.378 . S
C817 C816 1.367 . S
C817 C825 1.433 . S
C818 H814 0.929 . S
C818 C820 1.378 . S
C818 C822 1.350 . S
C819 C822 1.463 1_556 S
C819 C824 1.350 . S
C819 N827 1.427 . S
C820 H811 0.930 . S
C820 C818 1.378 . S
C820 C821 1.367 . S
C821 C820 1.367 . S
C821 C823 1.433 . S
C822 C818 1.350 . S
C822 C819 1.463 1_554 S
C822 N826 1.427 . S
C823 H813 0.929 . S
C823 C821 1.433 . S
C823 N826 1.384 . S
C824 H815 0.929 . S
C824 C816 1.378 . S
C824 C819 1.350 . S
C825 H812 0.929 . S
C825 C817 1.433 . S
C825 N827 1.384 . S
N826 C822 1.427 . S
N826 C823 1.384 . S
N827 C819 1.427 . S
N827 C825 1.384 . S
H828 C834 0.930 . S
H829 C838 0.930 . S
H830 C843 0.929 . S
H831 C841 0.929 . S
H832 C836 0.929 . S
H833 C842 0.929 . S
C834 H828 0.930 . S
C834 C835 1.367 . S
C834 C842 1.378 . S
C835 C834 1.367 . S
C835 C843 1.433 . S
C836 H832 0.929 . S
C836 C838 1.378 . S
C836 C840 1.350 . S
C837 C840 1.463 1_455 S
C837 C842 1.350 . S
C837 N845 1.427 . S
C838 H829 0.930 . S
C838 C836 1.378 . S
C838 C839 1.367 . S
C839 C838 1.367 . S
C839 C841 1.433 . S
C840 C836 1.350 . S
C840 C837 1.463 1_655 S
C840 N844 1.427 . S
C841 H831 0.929 . S
C841 C839 1.433 . S
C841 N844 1.384 . S
C842 H833 0.929 . S
C842 C834 1.378 . S
C842 C837 1.350 . S
C843 H830 0.929 . S
C843 C835 1.433 . S
C843 N845 1.384 . S
N844 C840 1.427 . S
N844 C841 1.384 . S
N845 C837 1.427 . S
N845 C843 1.384 . S
H846 C852 0.930 . S
H847 C856 0.930 . S
H848 C861 0.929 . S
H849 C859 0.929 . S
H850 C854 0.929 . S
H851 C860 0.929 . S
C852 H846 0.930 . S
C852 C853 1.367 . S
C852 C860 1.378 . S
C853 C852 1.367 . S
C853 C861 1.433 . S
C854 H850 0.929 . S
C854 C856 1.378 . S
C854 C858 1.350 . S
C855 C858 1.463 1_655 S
C855 C860 1.350 . S
C855 N863 1.427 . S
C856 H847 0.930 . S
C856 C854 1.378 . S
C856 C857 1.367 . S
C857 C856 1.367 . S
C857 C859 1.433 . S
C858 C854 1.350 . S
C858 C855 1.463 1_455 S
C858 N862 1.427 . S
C859 H849 0.929 . S
C859 C857 1.433 . S
C859 N862 1.384 . S
C860 H851 0.929 . S
C860 C852 1.378 . S
C860 C855 1.350 . S
C861 H848 0.929 . S
C861 C853 1.433 . S
C861 N863 1.384 . S
N862 C858 1.427 . S
N862 C859 1.384 . S
N863 C855 1.427 . S
N863 C861 1.384 . S
H864 C870 0.930 . S
H865 C874 0.930 . S
H866 C879 0.929 . S
H867 C877 0.929 . S
H868 C872 0.929 . S
H869 C878 0.929 . S
C870 H864 0.930 . S
C870 C871 1.367 . S
C870 C878 1.378 . S
C871 C870 1.367 . S
C871 C879 1.433 . S
C872 H868 0.929 . S
C872 C874 1.378 . S
C872 C876 1.350 . S
C873 C876 1.463 1_545 S
C873 C878 1.350 . S
C873 N881 1.427 . S
C874 H865 0.930 . S
C874 C872 1.378 . S
C874 C875 1.367 . S
C875 C874 1.367 . S
C875 C877 1.433 . S
C876 C872 1.350 . S
C876 C873 1.463 1_565 S
C876 N880 1.427 . S
C877 H867 0.929 . S
C877 C875 1.433 . S
C877 N880 1.384 . S
C878 H869 0.929 . S
C878 C870 1.378 . S
C878 C873 1.350 . S
C879 H866 0.929 . S
C879 C871 1.433 . S
C879 N881 1.384 . S
N880 C876 1.427 . S
N880 C877 1.384 . S
N881 C873 1.427 . S
N881 C879 1.384 . S
H882 C888 0.930 . S
H883 C892 0.930 . S
H884 C897 0.929 . S
H885 C895 0.929 . S
H886 C890 0.929 . S
H887 C896 0.929 . S
C888 H882 0.930 . S
C888 C889 1.367 . S
C888 C896 1.378 . S
C889 C888 1.367 . S
C889 C897 1.433 . S
C890 H886 0.929 . S
C890 C892 1.378 . S
C890 C894 1.350 . S
C891 C894 1.463 1_565 S
C891 C896 1.350 . S
C891 N899 1.427 . S
C892 H883 0.930 . S
C892 C890 1.378 . S
C892 C893 1.367 . S
C893 C892 1.367 . S
C893 C895 1.433 . S
C894 C890 1.350 . S
C894 C891 1.463 1_545 S
C894 N898 1.427 . S
C895 H885 0.929 . S
C895 C893 1.433 . S
C895 N898 1.384 . S
C896 H887 0.929 . S
C896 C888 1.378 . S
C896 C891 1.350 . S
C897 H884 0.929 . S
C897 C889 1.433 . S
C897 N899 1.384 . S
N898 C894 1.427 . S
N898 C895 1.384 . S
N899 C891 1.427 . S
N899 C897 1.384 . S
C259 C7 1.411 . S
C263 C166 1.359 . S
C277 C87 1.400 . S
C281 C41 1.410 . S
C295 C46 1.411 . S
C299 C108 1.373 . S
C313 C67 1.404 . S
C317 C142 1.394 . S
C331 C82 1.428 . S
C335 C205 1.412 . S
C349 C20 1.412 . S
C353 C230 1.365 . S
C367 C247 1.383 . S
C371 C28 1.437 . S
C385 C61 1.405 . S
C389 C188 1.346 . S
C403 C104 1.404 . S
C407 C3 1.392 . S
C421 C125 1.402 . S
C425 C40 1.366 . S
C439 C145 1.433 . S
C443 C58 1.380 . S
C457 C79 1.363 . S
C461 C154 1.410 . S
C475 C83 1.362 . S
C479 C172 1.413 . S
C493 C19 1.336 . S
C497 C208 1.385 . S
C511 C214 1.410 . S
C515 C24 1.400 . S
C529 C250 1.381 . S
C533 C62 1.364 . S
C547 C103 1.364 . S
C551 C167 1.406 . S
C565 C193 1.412 . S
C569 C184 1.361 . S
C583 C209 1.379 . S
C587 C229 1.408 . S
C601 C235 1.423 . S
C605 C226 1.377 . S
C619 C251 1.366 . S
C623 C187 1.393 . S
C637 C146 1.362 . S
C641 C112 1.395 . S
C655 C130 1.398 . S
C659 C150 1.385 . S
C673 C91 1.380 . S
C677 C124 1.362 . S
C691 C66 1.279 . S
C695 C4 1.276 . S
C709 C16 1.312 . S
C713 C37 1.305 . S
C727 C25 1.245 . S
C731 C49 1.261 . S
C745 C70 1.261 . S
C749 C45 1.291 . S
C763 C217 1.290 . S
C767 C100 1.273 . S
C781 C234 1.312 . S
C785 C121 1.287 . S
C799 C129 1.286 . S
C803 C175 1.243 . S
C817 C192 1.290 . S
C821 C151 1.249 . S
C835 C163 1.264 . S
C839 C109 1.273 . S
C853 C238 1.271 . S
C857 C196 1.243 . S
C871 C213 1.305 . S
C875 C171 1.312 . S
C889 C133 1.258 . S
C893 C88 1.232 . S
