# Generated by pormake.
# Topology bsn, (6)-cn, num edge types: 1
# Building blocks:
#     Node 0, Type 0, BuildingBlock: UKALOJ_clean_sbu_0, # of connection points: 6
#     Node 1, Type 0, BuildingBlock: UKALOJ_clean_sbu_0, # of connection points: 6
#     Node 2, Type 0, BuildingBlock: UKALOJ_clean_sbu_0, # of connection points: 6
#     Node 3, Type 0, BuildingBlock: UKALOJ_clean_sbu_0, # of connection points: 6
#     Edge 4, Type (0, 0), BuildingBlock: ZUJKAS_clean_linker_0, # of connection points: 2
#     Edge 5, Type (0, 0), BuildingBlock: ZUJKAS_clean_linker_0, # of connection points: 2
#     Edge 6, Type (0, 0), BuildingBlock: ZUJKAS_clean_linker_0, # of connection points: 2
#     Edge 7, Type (0, 0), BuildingBlock: ZUJKAS_clean_linker_0, # of connection points: 2
#     Edge 8, Type (0, 0), BuildingBlock: ZUJKAS_clean_linker_0, # of connection points: 2
#     Edge 9, Type (0, 0), BuildingBlock: ZUJKAS_clean_linker_0, # of connection points: 2
#     Edge 10, Type (0, 0), BuildingBlock: ZUJKAS_clean_linker_0, # of connection points: 2
#     Edge 11, Type (0, 0), BuildingBlock: ZUJKAS_clean_linker_0, # of connection points: 2
#     Edge 12, Type (0, 0), BuildingBlock: ZUJKAS_clean_linker_0, # of connection points: 2
#     Edge 13, Type (0, 0), BuildingBlock: ZUJKAS_clean_linker_0, # of connection points: 2
#     Edge 14, Type (0, 0), BuildingBlock: ZUJKAS_clean_linker_0, # of connection points: 2
#     Edge 15, Type (0, 0), BuildingBlock: ZUJKAS_clean_linker_0, # of connection points: 2
# Relax obj value: 0.161
# Max RMSD: 0.167
# Mean RMSD: 0.156
data_MOF--net-bsn--node1-UKALOJ_clean_sbu_0--edge1-ZUJKAS_clean_linker_0
_symmetry_space_group_name_H-M    P1
_symmetry_Int_Tables_number       1
_symmetry_cell_setting            triclinic
loop_
_symmetry_equiv_pos_as_xyz
'x, y, z'
_cell_length_a     39.69495
_cell_length_b     44.684754
_cell_length_c     19.463347
_cell_angle_alpha  90.279864
_cell_angle_beta   97.190397
_cell_angle_gamma 89.397431
loop_
_atom_site_label
_atom_site_type_symbol
_atom_site_fract_x
_atom_site_fract_y
_atom_site_fract_z
_atom_type_partial_charge
Zn0 Zn 0.05541 0.30853 0.3398 0.0
O1 O 1.00261 0.308 0.34605 0.0
C2 C 0.06845 0.28762 0.48156 0.0
Zn3 Zn 0.05644 0.25831 0.34248 0.0
C4 C 0.98699 0.28337 0.3491 0.0
O5 O 1.00343 0.25871 0.34883 0.0
C6 C 0.12483 0.28349 0.33175 0.0
O7 O 0.0472 0.25499 0.23475 0.0
O8 O 0.04553 0.3042 0.23235 0.0
N9 N 0.06012 0.21249 0.35362 0.0
C10 C 0.0411 0.18876 0.33019 0.0
C11 C 0.08588 0.17165 0.38942 0.0
N12 N 0.08779 0.20167 0.39055 0.0
N13 N 0.05682 0.16279 0.352 0.0
C14 C 0.04122 0.37788 0.35877 0.0
C15 C 0.07407 0.39565 0.29089 0.0
N16 N 0.05576 0.3544 0.32917 0.0
N17 N 0.07597 0.36564 0.28685 0.0
N18 N 0.05243 0.40406 0.3356 0.0
H19 H 1.01994 0.35276 0.43728 0.0
H20 H 0.99105 0.37783 0.38728 0.0
H21 H 0.02256 0.39282 0.4524 0.0
C22 C 1.01754 0.37505 0.41249 0.0
C23 C 1.0082 0.19118 0.28359 0.0
H24 H 1.00616 0.21283 0.25585 0.0
H25 H 0.98693 0.18993 0.31538 0.0
H26 H 1.00576 0.17245 0.24569 0.0
O27 O 0.10926 0.25899 0.33558 0.0
O28 O 0.1084 0.30799 0.33292 0.0
C29 C 0.0434 0.27923 0.2007 0.0
O30 O 0.0653 0.31183 0.44737 0.0
O31 O 0.06593 0.26265 0.45001 0.0
Zn32 Zn 0.99089 0.78374 0.37633 0.0
O33 O 0.99125 0.73618 0.38928 0.0
C34 C 1.01966 0.79216 0.52122 0.0
Zn35 Zn 0.04742 0.78346 0.38992 0.0
C36 C 1.01923 0.72183 0.40017 0.0
O37 O 0.04688 0.73623 0.40404 0.0
C38 C 1.01913 0.8452 0.3639 0.0
O39 O 0.04658 0.77678 0.28398 0.0
O40 O 0.99069 0.77721 0.27098 0.0
N41 N 0.09934 0.78184 0.40408 0.0
C42 C 0.12205 0.79584 0.45044 0.0
C43 C 0.14911 0.76272 0.39968 0.0
N44 N 0.11626 0.76141 0.3723 0.0
N45 N 0.15342 0.78393 0.44939 0.0
C46 C 0.9168 0.77249 0.40319 0.0
C47 C 0.88883 0.80238 0.33192 0.0
N48 N 0.93907 0.78488 0.36499 0.0
N49 N 0.92157 0.80321 0.32027 0.0
N50 N 0.88514 0.78306 0.3833 0.0
H51 H 0.95376 0.74893 0.47661 0.0
H52 H 0.91471 0.7299 0.45224 0.0
H53 H 0.91559 0.76126 0.51011 0.0
C54 C 0.92613 0.75216 0.46402 0.0
C55 C 0.1138 0.82198 0.49431 0.0
H56 H 0.09199 0.83505 0.46905 0.0
H57 H 0.136 0.83694 0.50484 0.0
H58 H 0.10707 0.81381 0.54437 0.0
O59 O 0.047 0.83062 0.37396 0.0
O60 O 0.99134 0.83114 0.36231 0.0
C61 C 1.01845 0.77475 0.24528 0.0
O62 O 0.99183 0.79074 0.48184 0.0
O63 O 0.04743 0.78968 0.49589 0.0
Zn64 Zn 0.55218 0.80712 0.81911 0.0
O65 O 0.49923 0.80963 0.82479 0.0
C66 C 0.56365 0.78004 0.95736 0.0
Zn67 Zn 0.54925 0.75739 0.81459 0.0
C68 C 0.48183 0.78585 0.82211 0.0
O69 O 0.49675 0.76067 0.81953 0.0
C70 C 0.61879 0.77857 0.80342 0.0
O71 O 0.53987 0.75927 0.70709 0.0
O72 O 0.5421 0.80841 0.71142 0.0
N73 N 0.54531 0.71181 0.8121 0.0
C74 C 0.56029 0.69093 0.85583 0.0
C75 C 0.52215 0.66898 0.78747 0.0
N76 N 0.5218 0.69808 0.76928 0.0
N77 N 0.54593 0.66398 0.84202 0.0
C78 C 0.54767 0.87234 0.87154 0.0
C79 C 0.56936 0.89729 0.79528 0.0
N80 N 0.55547 0.85275 0.82294 0.0
N81 N 0.56878 0.86831 0.77537 0.0
N82 N 0.55641 0.9003 0.85568 0.0
H83 H 0.51378 0.88338 0.94643 0.0
H84 H 0.54949 0.86021 -0.02191 0.0
H85 H 0.51449 0.84427 0.92305 0.0
C86 C 0.53016 0.86451 0.93296 0.0
C87 C 0.58988 0.69659 0.91011 0.0
H88 H 0.60549 0.71524 0.89513 0.0
H89 H 0.60601 0.67618 0.9186 0.0
H90 H 0.58053 0.70258 0.9597 0.0
O91 O 0.6016 0.75486 0.80613 0.0
O92 O 0.60455 0.80388 0.80988 0.0
C93 C 0.53823 0.78436 0.67642 0.0
O94 O 0.56301 0.80502 0.92671 0.0
O95 O 0.55825 0.75626 0.92227 0.0
Zn96 Zn 0.55309 0.25841 0.29392 0.0
O97 O 0.55345 0.25987 0.39977 0.0
C98 C 0.48273 0.28201 0.278 0.0
Zn99 Zn 0.55253 0.30843 0.29271 0.0
C100 C 0.55344 0.28472 0.43148 0.0
O101 O 0.55294 0.30914 0.39849 0.0
C102 C 0.55335 0.28213 0.15527 0.0
O103 O 0.60617 0.30927 0.30661 0.0
O104 O 0.60698 0.26013 0.3065 0.0
N105 N 0.54948 0.35425 0.29009 0.0
C106 C 0.56101 0.374 0.24666 0.0
C107 C 0.53034 0.39844 0.31014 0.0
N108 N 0.53062 0.36953 0.32989 0.0
N109 N 0.54904 0.40175 0.25758 0.0
C110 C 0.54428 0.19213 0.24866 0.0
C111 C 0.57377 0.16872 0.33072 0.0
N112 N 0.55578 0.21264 0.29668 0.0
N113 N 0.57388 0.19801 0.34796 0.0
N114 N 0.55546 0.16454 0.26845 0.0
H115 H 0.5055 0.2189 0.18907 0.0
H116 H 0.50476 0.17947 0.16797 0.0
H117 H 0.53719 0.20277 0.14101 0.0
C118 C 0.52143 0.1988 0.18314 0.0
C119 C 0.58475 0.36643 0.1949 0.0
H120 H 0.60069 0.34665 0.21121 0.0
H121 H 0.6014 0.38567 0.18772 0.0
H122 H 0.56964 0.36145 0.14446 0.0
O123 O 0.5526 0.30692 0.18675 0.0
O124 O 0.55314 0.25777 0.18797 0.0
C125 C 0.62288 0.28477 0.31037 0.0
O126 O 0.49948 0.25754 0.28231 0.0
O127 O 0.49859 0.30665 0.27992 0.0
H128 H 0.99152 0.43064 0.34974 0.0
H129 H 0.98131 0.48437 0.36819 0.0
H130 H 0.08885 0.50029 0.38053 0.0
H131 H 0.09898 0.44695 0.36204 0.0
H132 H 1.00714 0.52641 0.47472 0.0
H133 H 0.04766 0.55403 0.2204 0.0
H134 H 0.03785 0.51637 0.24388 0.0
H135 H 0.07853 0.53216 0.27433 0.0
C136 C 1.01296 0.44554 0.35807 0.0
C137 C 0.04609 0.43463 0.3548 0.0
C138 C 1.00711 0.47624 0.36808 0.0
C139 C 0.03428 0.49643 0.37451 0.0
C140 C 0.06743 0.48527 0.37432 0.0
H141 H 0.07467 0.6845 0.41209 0.0
H142 H 0.0756 0.62982 0.40953 0.0
C143 C 0.07322 0.4548 0.36405 0.0
C144 C 0.02835 0.5293 0.37851 0.0
H145 H 0.04284 0.59485 0.29787 0.0
C146 C 1.01456 0.5414 0.43575 0.0
C147 C 0.03787 0.54884 0.32737 0.0
C148 C 0.05099 0.53722 0.26267 0.0
C149 C 1.01144 0.5726 0.44461 0.0
C150 C 1.02209 0.59209 0.39459 0.0
C151 C 0.03498 0.57991 0.33651 0.0
C152 C 1.02107 0.62523 0.40191 0.0
C153 C 0.99791 0.58454 0.50849 0.0
C154 C 0.99007 0.6409 0.39885 0.0
C155 C 0.98942 0.67229 0.4001 0.0
C156 C 1.01978 0.6886 0.40432 0.0
C157 C 0.0508 0.67274 0.40891 0.0
C158 C 0.0514 0.64144 0.40738 0.0
H159 H 0.99694 0.56692 0.54825 0.0
H160 H 1.01385 0.60319 0.5316 0.0
H161 H 0.97179 0.59342 0.49401 0.0
H162 H 0.96633 0.62889 0.39353 0.0
H163 H 0.96508 0.68376 0.39634 0.0
H164 H 0.65414 0.72844 0.77273 0.0
H165 H 0.70372 0.72651 0.70996 0.0
H166 H 0.70931 0.82283 0.71673 0.0
H167 H 0.66003 0.82504 0.77999 0.0
H168 H 0.701 0.75326 0.58016 0.0
H169 H 0.80891 0.79716 0.75957 0.0
H170 H 0.77063 0.78342 0.78929 0.0
H171 H 0.77152 0.82044 0.75379 0.0
C172 C 0.66651 0.74919 0.76273 0.0
C173 C 0.65297 0.77692 0.7809 0.0
C174 C 0.69477 0.74802 0.72665 0.0
C175 C 0.71016 0.7745 0.70883 0.0
C176 C 0.69811 0.8021 0.73089 0.0
H177 H 0.85064 0.8288 0.43181 0.0
H178 H 0.80629 0.82546 0.50861 0.0
C179 C 0.66985 0.80331 0.76693 0.0
C180 C 0.73591 0.77361 0.66014 0.0
H181 H 0.81605 0.79554 0.63947 0.0
C182 C 0.72633 0.76214 0.59332 0.0
C183 C 0.76875 0.78546 0.67742 0.0
C184 C 0.78074 0.79708 0.74912 0.0
C185 C 0.74845 0.76296 0.54257 0.0
C186 C 0.7811 0.77521 0.55958 0.0
C187 C 0.79088 0.78629 0.62666 0.0
C188 C 0.80552 0.77704 0.5084 0.0
C189 C 0.73638 0.75162 0.47063 0.0
C190 C 0.81917 0.75093 0.482 0.0
C191 C 0.84428 0.75287 0.43796 0.0
C192 C 0.8562 0.7809 0.42027 0.0
C193 C 0.84159 0.80699 0.44458 0.0
C194 C 0.81656 0.80508 0.4887 0.0
H195 H 0.70834 0.74918 0.46191 0.0
H196 H 0.74415 0.76696 0.43085 0.0
H197 H 0.74807 0.72936 0.46324 0.0
H198 H 0.81112 0.72909 0.49707 0.0
H199 H 0.85494 0.73253 0.41889 0.0
H200 H 0.53818 0.40529 0.11823 0.0
H201 H 0.54149 0.44987 0.04759 0.0
H202 H 0.56275 0.5033 0.23291 0.0
H203 H 0.56108 0.45805 0.30391 0.0
H204 H 0.50245 0.49976 0.04361 0.0
H205 H 0.63747 0.529 0.12142 0.0
H206 H 0.62032 0.49319 0.14073 0.0
H207 H 0.61315 0.52547 0.19271 0.0
C208 C 0.54469 0.42635 0.14382 0.0
C209 C 0.55075 0.42814 0.21637 0.0
C210 C 0.54608 0.45188 0.10348 0.0
C211 C 0.55316 0.47979 0.13491 0.0
C212 C 0.55823 0.48184 0.20755 0.0
H213 H 0.54965 0.66005 -0.01872 0.0
H214 H 0.5534 0.61445 0.05046 0.0
C215 C 0.55702 0.45615 0.24801 0.0
C216 C 0.55375 0.50676 0.09121 0.0
H217 H 0.60363 0.56457 0.05247 0.0
C218 C 0.52464 0.51383 0.04523 0.0
C219 C 0.58279 0.525 0.09335 0.0
C220 C 0.61533 0.5177 0.1392 0.0
C221 C 0.52358 0.53895 0.00213 0.0
C222 C 0.55247 0.5573 0.0048 0.0
C223 C 0.5816 0.5503 0.05061 0.0
C224 C 0.55233 0.58462 0.96243 0.0
C225 C 0.49135 0.54613 0.95514 0.0
C226 C 0.55087 0.58285 0.89009 0.0
C227 C 0.54935 0.60899 0.85048 0.0
C228 C 0.54962 0.63715 0.8828 0.0
C229 C 0.55103 0.63873 0.95524 0.0
C230 C 0.55272 0.6127 -0.00525 0.0
H231 H 0.46956 0.53272 -0.03214 0.0
H232 H 0.48477 0.57026 0.95865 0.0
H233 H 0.49525 0.54122 0.90073 0.0
H234 H 0.55064 0.56129 0.86437 0.0
H235 H 0.54786 0.60731 0.79467 0.0
H236 H 0.94454 0.33188 0.35081 0.0
H237 H 0.88288 0.33199 0.3497 0.0
H238 H 0.88348 0.23549 0.34917 0.0
H239 H 0.9452 0.23508 0.35096 0.0
H240 H 0.83526 0.30658 0.24804 0.0
H241 H 0.82724 0.25673 0.50623 0.0
H242 H 0.8661 0.27185 0.48217 0.0
H243 H 0.85217 0.2354 0.45213 0.0
C244 C 0.93163 0.31065 0.35102 0.0
C245 C 0.94983 0.28345 0.35112 0.0
C246 C 0.89639 0.31078 0.35034 0.0
C247 C 0.87869 0.28377 0.35022 0.0
C248 C 0.89674 0.25659 0.35062 0.0
H249 H 0.66618 0.23652 0.31979 0.0
H250 H 0.7282 0.23682 0.32937 0.0
C251 C 0.932 0.25641 0.35127 0.0
C252 C 0.84118 0.2841 0.34646 0.0
H253 H 0.77543 0.26249 0.43185 0.0
C254 C 0.82215 0.2971 0.28838 0.0
C255 C 0.82421 0.27161 0.39907 0.0
C256 C 0.84342 0.25832 0.46377 0.0
C257 C 0.78652 0.29749 0.28086 0.0
C258 C 0.76954 0.28503 0.3335 0.0
C259 C 0.78856 0.27203 0.39162 0.0
C260 C 0.732 0.28508 0.3289 0.0
C261 C 0.76738 0.31059 0.21585 0.0
C262 C 0.71363 0.31214 0.32652 0.0
C263 C 0.67818 0.31207 0.32089 0.0
C264 C 0.66046 0.2849 0.31801 0.0
C265 C 0.67901 0.25783 0.32167 0.0
C266 C 0.71446 0.25795 0.32725 0.0
H267 H 0.78364 0.31217 0.17353 0.0
H268 H 0.7448 0.29694 0.19735 0.0
H269 H 0.75848 0.33351 0.22711 0.0
H270 H 0.72673 0.33333 0.32909 0.0
H271 H 0.66468 0.33331 0.31854 0.0
H272 H 0.43952 0.33025 0.27485 0.0
H273 H 0.37825 0.32989 0.27983 0.0
H274 H 0.37978 0.2334 0.27898 0.0
H275 H 0.4411 0.23346 0.2747 0.0
H276 H 0.32453 0.30356 0.19028 0.0
H277 H 0.33679 0.25521 0.45483 0.0
H278 H 0.37236 0.27073 0.41827 0.0
H279 H 0.35741 0.23397 0.39322 0.0
C280 C 0.42683 0.30893 0.27531 0.0
C281 C 0.44527 0.28187 0.27502 0.0
C282 C 0.39181 0.30878 0.27813 0.0
C283 C 0.37464 0.28163 0.28103 0.0
C284 C 0.39272 0.25459 0.2782 0.0
H285 H 0.16707 0.23502 0.32641 0.0
H286 H 0.22734 0.2349 0.31165 0.0
C287 C 0.42773 0.25469 0.27538 0.0
C288 C 0.33794 0.28164 0.28827 0.0
H289 H 0.28109 0.26092 0.39671 0.0
C290 C 0.31498 0.29432 0.23543 0.0
C291 C 0.32564 0.26959 0.34733 0.0
C292 C 0.34929 0.25683 0.40702 0.0
C293 C 0.2799 0.2948 0.23954 0.0
C294 C 0.26763 0.28277 0.29865 0.0
C295 C 0.2906 0.27008 0.35143 0.0
C296 C 0.23102 0.28309 0.30692 0.0
C297 C 0.25624 0.30762 0.17998 0.0
C298 C 0.21323 0.31027 0.31016 0.0
C299 C 0.17877 0.31044 0.3186 0.0
C300 C 0.16151 0.28341 0.32439 0.0
C301 C 0.17956 0.25624 0.32201 0.0
C302 C 0.214 0.25611 0.31356 0.0
H303 H 0.26855 0.30875 0.13186 0.0
H304 H 0.23285 0.29407 0.16951 0.0
H305 H 0.24869 0.3307 0.19338 0.0
H306 H 0.22608 0.33137 0.30664 0.0
H307 H 0.16567 0.33176 0.32052 0.0
H308 H 0.43826 0.74054 0.78276 0.0
H309 H 0.37871 0.74524 0.73615 0.0
H310 H 0.38023 0.83923 0.78824 0.0
H311 H 0.44067 0.83499 0.83232 0.0
H312 H 0.32062 0.76151 0.7774 0.0
H313 H 0.3543 0.84304 0.58287 0.0
H314 H 0.386 0.8233 0.64026 0.0
H315 H 0.36407 0.85515 0.67106 0.0
C316 C 0.42588 0.76215 0.78555 0.0
C317 C 0.44436 0.78753 0.81001 0.0
C318 C 0.39174 0.76481 0.75878 0.0
C319 C 0.37528 0.79279 0.75668 0.0
C320 C 0.39277 0.81763 0.78717 0.0
H321 H 0.15961 0.79445 0.58831 0.0
H322 H 0.21197 0.80095 0.66609 0.0
C323 C 0.42719 0.81511 0.81298 0.0
C324 C 0.34085 0.79588 0.71768 0.0
H325 H 0.29702 0.82949 0.57607 0.0
C326 C 0.31533 0.77654 0.73368 0.0
C327 C 0.33422 0.81516 0.65986 0.0
C328 C 0.36113 0.83515 0.63692 0.0
C329 C 0.28376 0.77522 0.69237 0.0
C330 C 0.27704 0.79471 0.63497 0.0
C331 C 0.30218 0.8147 0.62024 0.0
C332 C 0.24494 0.79351 0.58698 0.0
C333 C 0.25874 0.75188 0.70874 0.0
C334 C 0.2459 0.78868 0.51586 0.0
C335 C 0.21581 0.78636 0.47058 0.0
C336 C 0.1842 0.78887 0.49546 0.0
C337 C 0.18335 0.79381 0.56667 0.0
C338 C 0.2134 0.79672 0.61171 0.0
H339 H 0.2714 0.73354 0.74098 0.0
H340 H 0.23961 0.76245 0.73833 0.0
H341 H 0.24531 0.74191 0.66071 0.0
H342 H 0.26996 0.78611 0.49553 0.0
H343 H 0.21717 0.78222 0.41612 0.0
H344 H 0.53176 0.95435 0.81301 0.0
H345 H 0.53078 1.00009 0.88409 0.0
H346 H 0.57971 0.95184 0.06112 0.0
H347 H 0.58107 0.90651 -0.00983 0.0
H348 H 0.50056 1.00612 0.01763 0.0
H349 H 0.63924 1.02791 0.03885 0.0
H350 H 0.61749 1.00474 -0.02865 0.0
H351 H 0.62733 0.99036 0.05755 0.0
C352 C 0.54225 0.95373 0.86709 0.0
C353 C 0.5559 0.92701 0.89674 0.0
C354 C 0.54159 0.97965 0.90753 0.0
C355 C 0.55519 0.97919 -0.02234 0.0
C356 C 0.56915 0.95257 0.00705 0.0
H357 H 0.53755 0.10968 0.30696 0.0
H358 H 0.53622 0.06352 0.23672 0.0
C359 C 0.56961 0.9267 -0.03318 0.0
C360 C 0.55493 1.00653 0.02045 0.0
H361 H 0.60705 0.05816 0.10711 0.0
C362 C 0.52377 1.01759 0.0372 0.0
C363 C 0.58531 1.02135 0.04543 0.0
C364 C 0.6193 1.01072 0.02714 0.0
C365 C 0.52225 0.0431 0.07915 0.0
C366 C 0.5527 0.05763 0.105 0.0
C367 C 0.58381 0.04671 0.08762 0.0
C368 C 0.55277 0.08509 0.14755 0.0
C369 C 0.48816 0.05465 0.09465 0.0
C370 C 0.56309 0.11211 0.12097 0.0
C371 C 0.56382 0.13817 0.16073 0.0
C372 C 0.55423 0.13764 0.22773 0.0
C373 C 0.54458 0.11049 0.25503 0.0
C374 C 0.54368 0.08434 0.21498 0.0
H375 H 0.46685 0.04406 0.06102 0.0
H376 H 0.4852 0.04974 0.1494 0.0
H377 H 0.48635 0.07929 0.08769 0.0
H378 H 0.57062 0.11301 0.06939 0.0
H379 H 0.57246 0.15866 0.13964 0.0
H380 H 0.07375 0.88163 0.35772 0.0
H381 H 0.07379 0.93615 0.34639 0.0
H382 H 0.96484 0.93835 0.33954 0.0
H383 H 0.96448 0.88377 0.35089 0.0
H384 H 0.03739 0.97282 0.2371 0.0
H385 H 0.99975 0.99798 0.49748 0.0
H386 H 1.01651 0.9619 0.47573 0.0
H387 H 0.97355 0.97215 0.44412 0.0
C388 C 0.04975 0.89365 0.35374 0.0
C389 C 1.01911 0.87826 0.35543 0.0
C390 C 0.04983 0.92483 0.34718 0.0
C391 C 1.01937 0.94135 0.34285 0.0
C392 C 0.98869 0.9261 0.34374 0.0
H393 H 0.99454 0.13751 0.35229 0.0
H394 H 0.98139 0.08395 0.34102 0.0
C395 C 0.98854 0.89487 0.34994 0.0
C396 C 1.01991 0.97452 0.33734 0.0
H397 H 1.00802 0.03907 0.42653 0.0
C398 C 0.0308 0.98733 0.27833 0.0
C399 C 1.01098 0.99343 0.39086 0.0
C400 C 0.99973 0.98082 0.45597 0.0
C401 C 0.03343 1.01851 0.27175 0.0
C402 C 0.02576 0.03743 0.32645 0.0
C403 C 1.01387 1.02463 0.38457 0.0
C404 C 0.03254 0.07018 0.32699 0.0
C405 C 0.04432 1.03086 0.20607 0.0
C406 C 0.06556 0.08032 0.32288 0.0
C407 C 0.07294 0.11078 0.32848 0.0
C408 C 0.04756 0.13196 0.33862 0.0
C409 C 1.01438 0.12191 0.34227 0.0
C410 C 1.00696 0.09126 0.33664 0.0
H411 H 0.03786 1.01534 0.16171 0.0
H412 H 0.03224 0.05296 0.19285 0.0
H413 H 0.07229 0.03366 0.21317 0.0
H414 H 0.08598 0.06456 0.31743 0.0
H415 H 0.09879 0.11783 0.32628 0.0
H416 H 0.02872 0.3265 0.11445 0.0
H417 H 0.03058 0.32746 -0.01025 0.0
H418 H 0.05177 0.23255 -0.00917 0.0
H419 H 0.04957 0.23121 0.11576 0.0
H420 H 0.09052 0.31039 0.9348 0.0
H421 H 0.97881 0.24449 0.8222 0.0
H422 H 0.98221 0.26052 0.90815 0.0
H423 H 1.00513 0.22679 0.89262 0.0
C424 C 0.03314 0.3057 0.08801 0.0
C425 C 0.03935 0.27881 0.12476 0.0
C426 C 0.03416 0.30633 0.01692 0.0
C427 C 0.04123 0.28009 -0.01835 0.0
C428 C 0.04581 0.25292 0.01741 0.0
H429 H 0.08256 0.24049 0.56847 0.0
H430 H 0.07953 0.2397 0.69284 0.0
C431 C 0.04467 0.25223 0.08865 0.0
C432 C 0.04733 0.28182 0.90903 0.0
H433 H 1.01908 0.25692 0.74679 0.0
C434 C 0.07485 0.29887 0.89346 0.0
C435 C 0.02682 0.26657 0.85596 0.0
C436 C 0.99639 0.24874 0.87022 0.0
C437 C 0.08275 0.30077 0.82565 0.0
C438 C 0.06228 0.2855 0.77259 0.0
C439 C 0.03473 0.26847 0.78813 0.0
C440 C 0.0686 0.28705 0.70009 0.0
C441 C 0.1132 0.31859 0.81142 0.0
C442 C 0.0642 0.31415 0.66401 0.0
C443 C 0.06603 0.31475 0.59301 0.0
C444 C 0.07189 0.28814 0.55745 0.0
C445 C 0.0778 0.26131 0.59453 0.0
C446 C 0.07608 0.26078 0.6654 0.0
H447 H 0.13068 0.32301 0.85949 0.0
H448 H 0.1275 0.30671 0.77384 0.0
H449 H 0.10447 0.34046 0.78856 0.0
H450 H 0.05793 0.33455 0.69015 0.0
H451 H 0.06123 0.33571 0.5656 0.0
H452 H 0.96466 0.79855 0.59061 0.0
H453 H 0.964 0.79566 0.7155 0.0
H454 H 0.07328 0.78762 0.74559 0.0
H455 H 0.07425 0.78961 0.62077 0.0
H456 H 0.03865 0.7422 0.80667 0.0
H457 H 0.9935 0.85598 0.871 0.0
H458 H 0.96796 0.83772 0.80063 0.0
H459 H 1.01089 0.84775 0.79151 0.0
C460 C 0.9886 0.79665 0.62386 0.0
C461 C 1.01955 0.79434 0.59614 0.0
C462 C 0.98815 0.79519 0.695 0.0
C463 C 1.01862 0.79173 0.73899 0.0
C464 C 0.04961 0.79047 0.71183 0.0
H465 H 0.07286 0.76975 0.17349 0.0
H466 H 0.07175 0.76967 0.04785 0.0
C467 C 0.0501 0.79177 0.6407 0.0
C468 C 1.01794 0.78681 0.81288 0.0
H469 H 0.99562 0.81925 0.95909 0.0
C470 C 0.02941 0.75903 0.84029 0.0
C471 C 1.0056 0.80888 0.85559 0.0
C472 C 0.99404 0.83937 0.82847 0.0
C473 C 0.02869 0.75262 0.91018 0.0
C474 C 1.01643 0.77472 0.95281 0.0
C475 C 1.00475 0.80241 0.92537 0.0
C476 C 1.01691 0.7703 0.0271 0.0
C477 C 0.04074 0.72236 0.93788 0.0
C478 C 0.98635 0.77042 0.05586 0.0
C479 C 0.98683 0.77066 0.12732 0.0
C480 C 1.01795 0.77104 0.17051 0.0
C481 C 0.04853 0.76959 0.14131 0.0
C482 C 0.04799 0.76933 0.06981 0.0
H483 H 0.04216 0.70576 0.89564 0.0
H484 H 0.06648 0.72452 -0.03301 0.0
H485 H 0.02362 0.71373 -0.02597 0.0
H486 H 0.96221 0.77132 0.02299 0.0
H487 H 0.96287 0.77159 0.14853 0.0
H488 H 0.55059 0.73294 0.03767 0.0
H489 H 0.54832 0.73361 0.16229 0.0
H490 H 0.58138 0.82536 0.17249 0.0
H491 H 0.58484 0.82467 0.04796 0.0
H492 H 0.61054 0.78703 0.28453 0.0
H493 H 0.46961 0.78259 0.23288 0.0
H494 H 0.49178 0.75332 0.19286 0.0
H495 H 0.49591 0.79147 0.16666 0.0
C496 C 0.55817 0.75304 0.06657 0.0
C497 C 0.56733 0.77896 0.03312 0.0
C498 C 0.55659 0.75342 0.13751 0.0
C499 C 0.56393 0.77974 0.17548 0.0
C500 C 0.57529 0.805 0.1433 0.0
H501 H 0.54514 0.83305 0.59591 0.0
H502 H 0.54951 0.833 0.47176 0.0
C503 C 0.57703 0.80461 0.07234 0.0
C504 C 0.55752 0.78152 0.24779 0.0
H505 H 0.49398 0.77941 0.35021 0.0
C506 C 0.58513 0.78549 0.29913 0.0
C507 C 0.52418 0.77972 0.26572 0.0
C508 C 0.49358 0.7768 0.21169 0.0
C509 C 0.58027 0.78701 0.36895 0.0
C510 C 0.54699 0.78482 0.38679 0.0
C511 C 0.51937 0.78108 0.33552 0.0
C512 C 0.5406 0.78553 0.45906 0.0
C513 C 0.61064 0.79038 0.42333 0.0
C514 C 0.53286 0.75899 0.49121 0.0
C515 C 0.53036 0.75886 0.56183 0.0
C516 C 0.53545 0.78536 0.60071 0.0
C517 C 0.54121 0.81228 0.56721 0.0
C518 C 0.54386 0.81232 0.49663 0.0
H519 H 0.63501 0.7874 0.40148 0.0
H520 H 0.6102 0.81306 0.44672 0.0
H521 H 0.60965 0.77384 0.46541 0.0
H522 H 0.53008 0.73821 0.46221 0.0
H523 H 0.52567 0.73784 0.58631 0.0
H524 H 0.53883 0.23903 0.51332 0.0
H525 H 0.54174 0.23966 0.63929 0.0
H526 H 0.57517 0.33137 0.6438 0.0
H527 H 0.57152 0.33126 0.51762 0.0
H528 H 0.59865 0.2513 0.73509 0.0
H529 H 0.49313 0.33305 0.75214 0.0
H530 H 0.50008 0.31477 0.67215 0.0
H531 H 0.52607 0.34574 0.70426 0.0
C532 C 0.54667 0.25934 0.54123 0.0
C533 C 0.55475 0.28517 0.50636 0.0
C534 C 0.54835 0.25963 0.61275 0.0
C535 C 0.5583 0.28565 0.6497 0.0
C536 C 0.56684 0.31135 0.61526 0.0
H537 H 0.58918 0.3203 0.08678 0.0
H538 H 0.59322 0.32058 0.96254 0.0
C539 C 0.56478 0.31121 0.54363 0.0
C540 C 0.55985 0.28572 0.72467 0.0
H541 H 0.52417 0.3173 0.85773 0.0
C542 C 0.58244 0.26568 0.76216 0.0
C543 C 0.53844 0.30458 0.75867 0.0
C544 C 0.51283 0.32558 0.7198 0.0
C545 C 0.58408 0.26395 0.83393 0.0
C546 C 0.5627 0.28278 0.86758 0.0
C547 C 0.54047 0.30307 0.83047 0.0
C548 C 0.56223 0.28128 0.94168 0.0
C549 C 0.60834 0.24213 0.87356 0.0
C550 C 0.54334 0.25908 -0.03082 0.0
C551 C 0.54044 0.25924 0.03947 0.0
C552 C 0.55635 0.28167 0.08193 0.0
C553 C 0.57581 0.30348 0.0542 0.0
C554 C 0.5786 0.30338 -0.01601 0.0
H555 H 0.6255 0.23107 0.84003 0.0
H556 H 0.62395 0.25383 0.91668 0.0
H557 H 0.59368 0.22462 0.89672 0.0
H558 H 0.53034 0.24215 0.93604 0.0
H559 H 0.52513 0.24242 0.06019 0.0
loop_
_geom_bond_atom_site_label_1
_geom_bond_atom_site_label_2
_geom_bond_distance
_geom_bond_site_symmetry_2
_ccdc_geom_bond_type
Zn0 O1 2.055 1_455 S
Zn0 O8 2.046 . S
Zn0 N16 2.036 . S
Zn0 O28 2.053 . S
Zn0 O30 2.066 . S
O1 Zn0 2.055 1_655 S
O1 C4 1.259 . S
C2 O30 1.256 . S
C2 O31 1.244 . S
Zn3 O5 2.046 1_455 S
Zn3 O7 2.055 . S
Zn3 N9 2.036 . S
Zn3 O27 2.066 . S
Zn3 O31 2.053 . S
C4 O1 1.259 . S
C4 O5 1.254 . S
O5 Zn3 2.046 1_655 S
O5 C4 1.254 . S
C6 O27 1.256 . S
C6 O28 1.244 . S
O7 Zn3 2.055 . S
O7 C29 1.259 . S
O8 Zn0 2.046 . S
O8 C29 1.254 . S
N9 Zn3 2.036 . S
N9 C10 1.298 . S
N9 N12 1.398 . S
C10 N9 1.298 . S
C10 N13 1.367 . S
C10 C23 1.481 . S
C11 N12 1.299 . S
C11 N13 1.379 . S
N12 N9 1.398 . S
N12 C11 1.299 . S
N13 C10 1.367 . S
N13 C11 1.379 . S
C14 N16 1.298 . S
C14 N18 1.367 . S
C14 C22 1.481 1_455 S
C15 N17 1.299 . S
C15 N18 1.379 . S
N16 Zn0 2.036 . S
N16 C14 1.298 . S
N16 N17 1.398 . S
N17 C15 1.299 . S
N17 N16 1.398 . S
N18 C14 1.367 . S
N18 C15 1.379 . S
H19 C22 0.980 . S
H20 C22 0.981 . S
H21 C22 0.981 . S
C22 C14 1.481 1_655 S
C22 H19 0.980 . S
C22 H20 0.981 . S
C22 H21 0.981 . S
C23 C10 1.481 . S
C23 H24 0.980 . S
C23 H25 0.981 . S
C23 H26 0.981 . S
H24 C23 0.980 . S
H25 C23 0.981 . S
H26 C23 0.981 . S
O27 Zn3 2.066 . S
O27 C6 1.256 . S
O28 Zn0 2.053 . S
O28 C6 1.244 . S
C29 O7 1.259 . S
C29 O8 1.254 . S
O30 Zn0 2.066 . S
O30 C2 1.256 . S
O31 C2 1.244 . S
O31 Zn3 2.053 . S
Zn32 O33 2.055 . S
Zn32 O40 2.046 . S
Zn32 N48 2.036 . S
Zn32 O60 2.053 . S
Zn32 O62 2.066 . S
O33 Zn32 2.055 . S
O33 C36 1.259 1_655 S
C34 O62 1.256 1_455 S
C34 O63 1.244 . S
Zn35 O37 2.046 . S
Zn35 O39 2.055 . S
Zn35 N41 2.036 . S
Zn35 O59 2.066 . S
Zn35 O63 2.053 . S
C36 O33 1.259 1_455 S
C36 O37 1.254 . S
O37 Zn35 2.046 . S
O37 C36 1.254 . S
C38 O59 1.256 . S
C38 O60 1.244 1_455 S
O39 Zn35 2.055 . S
O39 C61 1.259 . S
O40 Zn32 2.046 . S
O40 C61 1.254 1_655 S
N41 Zn35 2.036 . S
N41 C42 1.298 . S
N41 N44 1.398 . S
C42 N41 1.298 . S
C42 N45 1.367 . S
C42 C55 1.481 . S
C43 N44 1.299 . S
C43 N45 1.379 . S
N44 N41 1.398 . S
N44 C43 1.299 . S
N45 C42 1.367 . S
N45 C43 1.379 . S
C46 N48 1.298 . S
C46 N50 1.367 . S
C46 C54 1.481 . S
C47 N49 1.299 . S
C47 N50 1.379 . S
N48 Zn32 2.036 . S
N48 C46 1.298 . S
N48 N49 1.398 . S
N49 C47 1.299 . S
N49 N48 1.398 . S
N50 C46 1.367 . S
N50 C47 1.379 . S
H51 C54 0.980 . S
H52 C54 0.981 . S
H53 C54 0.981 . S
C54 C46 1.481 . S
C54 H51 0.980 . S
C54 H52 0.981 . S
C54 H53 0.981 . S
C55 C42 1.481 . S
C55 H56 0.980 . S
C55 H57 0.981 . S
C55 H58 0.981 . S
H56 C55 0.980 . S
H57 C55 0.981 . S
H58 C55 0.981 . S
O59 Zn35 2.066 . S
O59 C38 1.256 . S
O60 Zn32 2.053 . S
O60 C38 1.244 1_655 S
C61 O39 1.259 . S
C61 O40 1.254 1_455 S
O62 Zn32 2.066 . S
O62 C34 1.256 1_655 S
O63 C34 1.244 . S
O63 Zn35 2.053 . S
Zn64 O65 2.055 . S
Zn64 O72 2.046 . S
Zn64 N80 2.036 . S
Zn64 O92 2.053 . S
Zn64 O94 2.066 . S
O65 Zn64 2.055 . S
O65 C68 1.259 . S
C66 O94 1.256 . S
C66 O95 1.244 . S
Zn67 O69 2.046 . S
Zn67 O71 2.055 . S
Zn67 N73 2.036 . S
Zn67 O91 2.066 . S
Zn67 O95 2.053 . S
C68 O65 1.259 . S
C68 O69 1.254 . S
O69 Zn67 2.046 . S
O69 C68 1.254 . S
C70 O91 1.256 . S
C70 O92 1.244 . S
O71 Zn67 2.055 . S
O71 C93 1.259 . S
O72 Zn64 2.046 . S
O72 C93 1.254 . S
N73 Zn67 2.036 . S
N73 C74 1.298 . S
N73 N76 1.398 . S
C74 N73 1.298 . S
C74 N77 1.367 . S
C74 C87 1.481 . S
C75 N76 1.299 . S
C75 N77 1.379 . S
N76 N73 1.398 . S
N76 C75 1.299 . S
N77 C74 1.367 . S
N77 C75 1.379 . S
C78 N80 1.298 . S
C78 N82 1.367 . S
C78 C86 1.481 . S
C79 N81 1.299 . S
C79 N82 1.379 . S
N80 Zn64 2.036 . S
N80 C78 1.298 . S
N80 N81 1.398 . S
N81 C79 1.299 . S
N81 N80 1.398 . S
N82 C78 1.367 . S
N82 C79 1.379 . S
H83 C86 0.980 . S
H84 C86 0.981 . S
H85 C86 0.981 . S
C86 C78 1.481 . S
C86 H83 0.980 . S
C86 H84 0.981 . S
C86 H85 0.981 . S
C87 C74 1.481 . S
C87 H88 0.980 . S
C87 H89 0.981 . S
C87 H90 0.981 . S
H88 C87 0.980 . S
H89 C87 0.981 . S
H90 C87 0.981 . S
O91 Zn67 2.066 . S
O91 C70 1.256 . S
O92 Zn64 2.053 . S
O92 C70 1.244 . S
C93 O71 1.259 . S
C93 O72 1.254 . S
O94 Zn64 2.066 . S
O94 C66 1.256 . S
O95 C66 1.244 . S
O95 Zn67 2.053 . S
Zn96 O97 2.055 . S
Zn96 O104 2.046 . S
Zn96 N112 2.036 . S
Zn96 O124 2.053 . S
Zn96 O126 2.066 . S
O97 Zn96 2.055 . S
O97 C100 1.259 . S
C98 O126 1.256 . S
C98 O127 1.244 . S
Zn99 O101 2.046 . S
Zn99 O103 2.055 . S
Zn99 N105 2.036 . S
Zn99 O123 2.066 . S
Zn99 O127 2.053 . S
C100 O97 1.259 . S
C100 O101 1.254 . S
O101 Zn99 2.046 . S
O101 C100 1.254 . S
C102 O123 1.256 . S
C102 O124 1.244 . S
O103 Zn99 2.055 . S
O103 C125 1.259 . S
O104 Zn96 2.046 . S
O104 C125 1.254 . S
N105 Zn99 2.036 . S
N105 C106 1.298 . S
N105 N108 1.398 . S
C106 N105 1.298 . S
C106 N109 1.367 . S
C106 C119 1.481 . S
C107 N108 1.299 . S
C107 N109 1.379 . S
N108 N105 1.398 . S
N108 C107 1.299 . S
N109 C106 1.367 . S
N109 C107 1.379 . S
C110 N112 1.298 . S
C110 N114 1.367 . S
C110 C118 1.481 . S
C111 N113 1.299 . S
C111 N114 1.379 . S
N112 Zn96 2.036 . S
N112 C110 1.298 . S
N112 N113 1.398 . S
N113 C111 1.299 . S
N113 N112 1.398 . S
N114 C110 1.367 . S
N114 C111 1.379 . S
H115 C118 0.980 . S
H116 C118 0.981 . S
H117 C118 0.981 . S
C118 C110 1.481 . S
C118 H115 0.980 . S
C118 H116 0.981 . S
C118 H117 0.981 . S
C119 C106 1.481 . S
C119 H120 0.980 . S
C119 H121 0.981 . S
C119 H122 0.981 . S
H120 C119 0.980 . S
H121 C119 0.981 . S
H122 C119 0.981 . S
O123 Zn99 2.066 . S
O123 C102 1.256 . S
O124 Zn96 2.053 . S
O124 C102 1.244 . S
C125 O103 1.259 . S
C125 O104 1.254 . S
O126 Zn96 2.066 . S
O126 C98 1.256 . S
O127 C98 1.244 . S
O127 Zn99 2.053 . S
H128 C136 0.929 . S
H129 C138 0.930 . S
H130 C140 0.930 . S
H131 C143 0.929 . S
H132 C146 0.930 . S
H133 C148 0.960 . S
H134 C148 0.960 . S
H135 C148 0.960 . S
C136 H128 0.929 . S
C136 C137 1.377 1_655 S
C136 C138 1.384 . S
C137 C136 1.377 1_455 S
C137 C143 1.390 . S
C138 H129 0.930 . S
C138 C136 1.384 . S
C138 C139 1.372 1_655 S
C139 C138 1.372 1_455 S
C139 C140 1.400 . S
C139 C144 1.490 . S
C140 H130 0.930 . S
C140 C139 1.400 . S
C140 C143 1.386 . S
H141 C157 0.930 . S
H142 C158 0.931 . S
C143 H131 0.929 . S
C143 C137 1.390 . S
C143 C140 1.386 . S
C144 C139 1.490 . S
C144 C146 1.395 1_455 S
C144 C147 1.403 . S
H145 C151 0.930 . S
C146 H132 0.930 . S
C146 C144 1.395 1_655 S
C146 C149 1.403 . S
C147 C144 1.403 . S
C147 C148 1.524 . S
C147 C151 1.400 . S
C148 H133 0.960 . S
C148 H134 0.960 . S
C148 H135 0.960 . S
C148 C147 1.524 . S
C149 C146 1.403 . S
C149 C150 1.392 1_655 S
C149 C153 1.495 . S
C150 C149 1.392 1_455 S
C150 C151 1.385 . S
C150 C152 1.478 . S
C151 H145 0.930 . S
C151 C147 1.400 . S
C151 C150 1.385 . S
C152 C150 1.478 . S
C152 C154 1.381 1_455 S
C152 C158 1.383 . S
C153 C149 1.495 . S
C153 H159 0.959 . S
C153 H160 0.961 . S
C153 H161 0.960 . S
C154 C152 1.381 1_655 S
C154 C155 1.394 . S
C154 H162 0.930 . S
C155 C154 1.394 . S
C155 C156 1.383 1_655 S
C155 H163 0.929 . S
C156 C155 1.383 1_455 S
C156 C157 1.377 . S
C157 H141 0.930 . S
C157 C156 1.377 . S
C157 C158 1.379 . S
C158 H142 0.931 . S
C158 C152 1.383 . S
C158 C157 1.379 . S
H159 C153 0.959 . S
H160 C153 0.961 . S
H161 C153 0.960 . S
H162 C154 0.930 . S
H163 C155 0.929 . S
H164 C172 0.929 . S
H165 C174 0.930 . S
H166 C176 0.930 . S
H167 C179 0.929 . S
H168 C182 0.930 . S
H169 C184 0.960 . S
H170 C184 0.960 . S
H171 C184 0.960 . S
C172 H164 0.929 . S
C172 C173 1.377 . S
C172 C174 1.384 . S
C173 C172 1.377 . S
C173 C179 1.390 . S
C174 H165 0.930 . S
C174 C172 1.384 . S
C174 C175 1.372 . S
C175 C174 1.372 . S
C175 C176 1.400 . S
C175 C180 1.490 . S
C176 H166 0.930 . S
C176 C175 1.400 . S
C176 C179 1.386 . S
H177 C193 0.930 . S
H178 C194 0.931 . S
C179 H167 0.929 . S
C179 C173 1.390 . S
C179 C176 1.386 . S
C180 C175 1.490 . S
C180 C182 1.395 . S
C180 C183 1.403 . S
H181 C187 0.930 . S
C182 H168 0.930 . S
C182 C180 1.395 . S
C182 C185 1.403 . S
C183 C180 1.403 . S
C183 C184 1.524 . S
C183 C187 1.400 . S
C184 H169 0.960 . S
C184 H170 0.960 . S
C184 H171 0.960 . S
C184 C183 1.524 . S
C185 C182 1.403 . S
C185 C186 1.392 . S
C185 C189 1.495 . S
C186 C185 1.392 . S
C186 C187 1.385 . S
C186 C188 1.478 . S
C187 H181 0.930 . S
C187 C183 1.400 . S
C187 C186 1.385 . S
C188 C186 1.478 . S
C188 C190 1.381 . S
C188 C194 1.383 . S
C189 C185 1.495 . S
C189 H195 0.959 . S
C189 H196 0.961 . S
C189 H197 0.960 . S
C190 C188 1.381 . S
C190 C191 1.394 . S
C190 H198 0.930 . S
C191 C190 1.394 . S
C191 C192 1.383 . S
C191 H199 0.929 . S
C192 C191 1.383 . S
C192 C193 1.377 . S
C193 H177 0.930 . S
C193 C192 1.377 . S
C193 C194 1.379 . S
C194 H178 0.931 . S
C194 C188 1.383 . S
C194 C193 1.379 . S
H195 C189 0.959 . S
H196 C189 0.961 . S
H197 C189 0.960 . S
H198 C190 0.930 . S
H199 C191 0.929 . S
H200 C208 0.929 . S
H201 C210 0.930 1_556 S
H202 C212 0.930 . S
H203 C215 0.929 . S
H204 C218 0.930 . S
H205 C220 0.960 . S
H206 C220 0.960 . S
H207 C220 0.960 1_554 S
C208 H200 0.929 . S
C208 C209 1.377 . S
C208 C210 1.384 . S
C209 C208 1.377 . S
C209 C215 1.390 . S
C210 H201 0.930 1_554 S
C210 C208 1.384 . S
C210 C211 1.372 . S
C211 C210 1.372 . S
C211 C212 1.400 . S
C211 C216 1.490 . S
C212 H202 0.930 . S
C212 C211 1.400 . S
C212 C215 1.386 . S
H213 C229 0.930 . S
H214 C230 0.931 1_554 S
C215 H203 0.929 . S
C215 C209 1.390 . S
C215 C212 1.386 . S
C216 C211 1.490 . S
C216 C218 1.395 . S
C216 C219 1.403 1_554 S
H217 C223 0.930 . S
C218 H204 0.930 . S
C218 C216 1.395 . S
C218 C221 1.403 1_554 S
C219 C216 1.403 1_556 S
C219 C220 1.524 . S
C219 C223 1.400 . S
C220 H205 0.960 . S
C220 H206 0.960 . S
C220 H207 0.960 1_556 S
C220 C219 1.524 . S
C221 C218 1.403 1_556 S
C221 C222 1.392 . S
C221 C225 1.495 . S
C222 C221 1.392 . S
C222 C223 1.385 . S
C222 C224 1.478 . S
C223 H217 0.930 . S
C223 C219 1.400 . S
C223 C222 1.385 . S
C224 C222 1.478 . S
C224 C226 1.381 . S
C224 C230 1.383 . S
C225 C221 1.495 . S
C225 H231 0.959 . S
C225 H232 0.961 1_556 S
C225 H233 0.960 . S
C226 C224 1.381 . S
C226 C227 1.394 . S
C226 H234 0.930 . S
C227 C226 1.394 . S
C227 C228 1.383 . S
C227 H235 0.929 . S
C228 C227 1.383 . S
C228 C229 1.377 . S
C229 H213 0.930 . S
C229 C228 1.377 . S
C229 C230 1.379 . S
C230 H214 0.931 1_556 S
C230 C224 1.383 . S
C230 C229 1.379 . S
H231 C225 0.959 . S
H232 C225 0.961 1_554 S
H233 C225 0.960 . S
H234 C226 0.930 . S
H235 C227 0.929 . S
H236 C244 0.929 . S
H237 C246 0.930 . S
H238 C248 0.930 . S
H239 C251 0.929 . S
H240 C254 0.930 . S
H241 C256 0.960 . S
H242 C256 0.960 . S
H243 C256 0.960 . S
C244 H236 0.929 . S
C244 C245 1.377 . S
C244 C246 1.384 . S
C245 C244 1.377 . S
C245 C251 1.390 . S
C246 H237 0.930 . S
C246 C244 1.384 . S
C246 C247 1.372 . S
C247 C246 1.372 . S
C247 C248 1.400 . S
C247 C252 1.490 . S
C248 H238 0.930 . S
C248 C247 1.400 . S
C248 C251 1.386 . S
H249 C265 0.930 . S
H250 C266 0.931 . S
C251 H239 0.929 . S
C251 C245 1.390 . S
C251 C248 1.386 . S
C252 C247 1.490 . S
C252 C254 1.395 . S
C252 C255 1.403 . S
H253 C259 0.930 . S
C254 H240 0.930 . S
C254 C252 1.395 . S
C254 C257 1.403 . S
C255 C252 1.403 . S
C255 C256 1.524 . S
C255 C259 1.400 . S
C256 H241 0.960 . S
C256 H242 0.960 . S
C256 H243 0.960 . S
C256 C255 1.524 . S
C257 C254 1.403 . S
C257 C258 1.392 . S
C257 C261 1.495 . S
C258 C257 1.392 . S
C258 C259 1.385 . S
C258 C260 1.478 . S
C259 H253 0.930 . S
C259 C255 1.400 . S
C259 C258 1.385 . S
C260 C258 1.478 . S
C260 C262 1.381 . S
C260 C266 1.383 . S
C261 C257 1.495 . S
C261 H267 0.959 . S
C261 H268 0.961 . S
C261 H269 0.960 . S
C262 C260 1.381 . S
C262 C263 1.394 . S
C262 H270 0.930 . S
C263 C262 1.394 . S
C263 C264 1.383 . S
C263 H271 0.929 . S
C264 C263 1.383 . S
C264 C265 1.377 . S
C265 H249 0.930 . S
C265 C264 1.377 . S
C265 C266 1.379 . S
C266 H250 0.931 . S
C266 C260 1.383 . S
C266 C265 1.379 . S
H267 C261 0.959 . S
H268 C261 0.961 . S
H269 C261 0.960 . S
H270 C262 0.930 . S
H271 C263 0.929 . S
H272 C280 0.929 . S
H273 C282 0.930 . S
H274 C284 0.930 . S
H275 C287 0.929 . S
H276 C290 0.930 . S
H277 C292 0.960 . S
H278 C292 0.960 . S
H279 C292 0.960 . S
C280 H272 0.929 . S
C280 C281 1.377 . S
C280 C282 1.384 . S
C281 C280 1.377 . S
C281 C287 1.390 . S
C282 H273 0.930 . S
C282 C280 1.384 . S
C282 C283 1.372 . S
C283 C282 1.372 . S
C283 C284 1.400 . S
C283 C288 1.490 . S
C284 H274 0.930 . S
C284 C283 1.400 . S
C284 C287 1.386 . S
H285 C301 0.930 . S
H286 C302 0.931 . S
C287 H275 0.929 . S
C287 C281 1.390 . S
C287 C284 1.386 . S
C288 C283 1.490 . S
C288 C290 1.395 . S
C288 C291 1.403 . S
H289 C295 0.930 . S
C290 H276 0.930 . S
C290 C288 1.395 . S
C290 C293 1.403 . S
C291 C288 1.403 . S
C291 C292 1.524 . S
C291 C295 1.400 . S
C292 H277 0.960 . S
C292 H278 0.960 . S
C292 H279 0.960 . S
C292 C291 1.524 . S
C293 C290 1.403 . S
C293 C294 1.392 . S
C293 C297 1.495 . S
C294 C293 1.392 . S
C294 C295 1.385 . S
C294 C296 1.478 . S
C295 H289 0.930 . S
C295 C291 1.400 . S
C295 C294 1.385 . S
C296 C294 1.478 . S
C296 C298 1.381 . S
C296 C302 1.383 . S
C297 C293 1.495 . S
C297 H303 0.959 . S
C297 H304 0.961 . S
C297 H305 0.960 . S
C298 C296 1.381 . S
C298 C299 1.394 . S
C298 H306 0.930 . S
C299 C298 1.394 . S
C299 C300 1.383 . S
C299 H307 0.929 . S
C300 C299 1.383 . S
C300 C301 1.377 . S
C301 H285 0.930 . S
C301 C300 1.377 . S
C301 C302 1.379 . S
C302 H286 0.931 . S
C302 C296 1.383 . S
C302 C301 1.379 . S
H303 C297 0.959 . S
H304 C297 0.961 . S
H305 C297 0.960 . S
H306 C298 0.930 . S
H307 C299 0.929 . S
H308 C316 0.929 . S
H309 C318 0.930 . S
H310 C320 0.930 . S
H311 C323 0.929 . S
H312 C326 0.930 . S
H313 C328 0.960 . S
H314 C328 0.960 . S
H315 C328 0.960 . S
C316 H308 0.929 . S
C316 C317 1.377 . S
C316 C318 1.384 . S
C317 C316 1.377 . S
C317 C323 1.390 . S
C318 H309 0.930 . S
C318 C316 1.384 . S
C318 C319 1.372 . S
C319 C318 1.372 . S
C319 C320 1.400 . S
C319 C324 1.490 . S
C320 H310 0.930 . S
C320 C319 1.400 . S
C320 C323 1.386 . S
H321 C337 0.930 . S
H322 C338 0.931 . S
C323 H311 0.929 . S
C323 C317 1.390 . S
C323 C320 1.386 . S
C324 C319 1.490 . S
C324 C326 1.395 . S
C324 C327 1.403 . S
H325 C331 0.930 . S
C326 H312 0.930 . S
C326 C324 1.395 . S
C326 C329 1.403 . S
C327 C324 1.403 . S
C327 C328 1.524 . S
C327 C331 1.400 . S
C328 H313 0.960 . S
C328 H314 0.960 . S
C328 H315 0.960 . S
C328 C327 1.524 . S
C329 C326 1.403 . S
C329 C330 1.392 . S
C329 C333 1.495 . S
C330 C329 1.392 . S
C330 C331 1.385 . S
C330 C332 1.478 . S
C331 H325 0.930 . S
C331 C327 1.400 . S
C331 C330 1.385 . S
C332 C330 1.478 . S
C332 C334 1.381 . S
C332 C338 1.383 . S
C333 C329 1.495 . S
C333 H339 0.959 . S
C333 H340 0.961 . S
C333 H341 0.960 . S
C334 C332 1.381 . S
C334 C335 1.394 . S
C334 H342 0.930 . S
C335 C334 1.394 . S
C335 C336 1.383 . S
C335 H343 0.929 . S
C336 C335 1.383 . S
C336 C337 1.377 . S
C337 H321 0.930 . S
C337 C336 1.377 . S
C337 C338 1.379 . S
C338 H322 0.931 . S
C338 C332 1.383 . S
C338 C337 1.379 . S
H339 C333 0.959 . S
H340 C333 0.961 . S
H341 C333 0.960 . S
H342 C334 0.930 . S
H343 C335 0.929 . S
H344 C352 0.929 . S
H345 C354 0.930 . S
H346 C356 0.930 . S
H347 C359 0.929 1_554 S
H348 C362 0.930 . S
H349 C364 0.960 . S
H350 C364 0.960 . S
H351 C364 0.960 . S
C352 H344 0.929 . S
C352 C353 1.377 . S
C352 C354 1.384 . S
C353 C352 1.377 . S
C353 C359 1.390 . S
C354 H345 0.930 . S
C354 C352 1.384 . S
C354 C355 1.372 . S
C355 C354 1.372 . S
C355 C356 1.400 1_556 S
C355 C360 1.490 . S
C356 H346 0.930 . S
C356 C355 1.400 1_554 S
C356 C359 1.386 1_554 S
H357 C373 0.930 . S
H358 C374 0.931 . S
C359 H347 0.929 1_556 S
C359 C353 1.390 . S
C359 C356 1.386 1_556 S
C360 C355 1.490 . S
C360 C362 1.395 . S
C360 C363 1.403 1_556 S
H361 C367 0.930 . S
C362 H348 0.930 . S
C362 C360 1.395 . S
C362 C365 1.403 1_566 S
C363 C360 1.403 1_554 S
C363 C364 1.524 . S
C363 C367 1.400 1_565 S
C364 H349 0.960 . S
C364 H350 0.960 . S
C364 H351 0.960 . S
C364 C363 1.524 . S
C365 C362 1.403 1_544 S
C365 C366 1.392 . S
C365 C369 1.495 1_554 S
C366 C365 1.392 . S
C366 C367 1.385 . S
C366 C368 1.478 . S
C367 H361 0.930 . S
C367 C363 1.400 1_545 S
C367 C366 1.385 . S
C368 C366 1.478 . S
C368 C370 1.381 . S
C368 C374 1.383 . S
C369 C365 1.495 1_556 S
C369 H375 0.959 . S
C369 H376 0.961 1_556 S
C369 H377 0.960 . S
C370 C368 1.381 . S
C370 C371 1.394 . S
C370 H378 0.930 1_554 S
C371 C370 1.394 . S
C371 C372 1.383 . S
C371 H379 0.929 . S
C372 C371 1.383 . S
C372 C373 1.377 . S
C373 H357 0.930 . S
C373 C372 1.377 . S
C373 C374 1.379 . S
C374 H358 0.931 . S
C374 C368 1.383 . S
C374 C373 1.379 . S
H375 C369 0.959 . S
H376 C369 0.961 1_554 S
H377 C369 0.960 . S
H378 C370 0.930 1_556 S
H379 C371 0.929 . S
H380 C388 0.929 . S
H381 C390 0.930 . S
H382 C392 0.930 . S
H383 C395 0.929 . S
H384 C398 0.930 . S
H385 C400 0.960 . S
H386 C400 0.960 . S
H387 C400 0.960 . S
C388 H380 0.929 . S
C388 C389 1.377 . S
C388 C390 1.384 . S
C389 C388 1.377 . S
C389 C395 1.390 . S
C390 H381 0.930 . S
C390 C388 1.384 . S
C390 C391 1.372 . S
C391 C390 1.372 . S
C391 C392 1.400 . S
C391 C396 1.490 . S
C392 H382 0.930 . S
C392 C391 1.400 . S
C392 C395 1.386 . S
H393 C409 0.930 . S
H394 C410 0.931 . S
C395 H383 0.929 . S
C395 C389 1.390 . S
C395 C392 1.386 . S
C396 C391 1.490 . S
C396 C398 1.395 . S
C396 C399 1.403 . S
H397 C403 0.924 1_655 S
C398 H384 0.930 . S
C398 C396 1.395 . S
C398 C401 1.403 . S
C399 C396 1.403 . S
C399 C400 1.524 1_455 S
C399 C403 1.400 . S
C400 H385 0.960 . S
C400 H386 0.960 . S
C400 H387 0.960 . S
C400 C399 1.524 1_655 S
C401 C398 1.403 . S
C401 C402 1.392 . S
C401 C405 1.495 . S
C402 C401 1.392 . S
C402 C403 1.385 . S
C402 C404 1.478 1_565 S
C403 H397 0.924 1_455 S
C403 C399 1.400 . S
C403 C402 1.385 . S
C404 C402 1.478 1_545 S
C404 C406 1.381 . S
C404 C410 1.383 . S
C405 C401 1.495 . S
C405 H411 0.959 . S
C405 H412 0.971 . S
C405 H413 0.960 1_565 S
C406 C404 1.381 . S
C406 C407 1.394 . S
C406 H414 0.930 . S
C407 C406 1.394 . S
C407 C408 1.383 . S
C407 H415 0.929 . S
C408 C407 1.383 . S
C408 C409 1.377 . S
C409 H393 0.930 . S
C409 C408 1.377 . S
C409 C410 1.379 . S
C410 H394 0.931 . S
C410 C404 1.383 . S
C410 C409 1.379 . S
H411 C405 0.959 . S
H412 C405 0.971 . S
H413 C405 0.960 1_545 S
H414 C406 0.930 . S
H415 C407 0.929 . S
H416 C424 0.929 1_655 S
H417 C426 0.920 1_655 S
H418 C428 0.930 . S
H419 C431 0.929 . S
H420 C434 0.930 . S
H421 C436 0.960 . S
H422 C436 0.960 . S
H423 C436 0.960 . S
C424 H416 0.929 1_455 S
C424 C425 1.377 . S
C424 C426 1.383 . S
C425 C424 1.377 . S
C425 C431 1.390 . S
C426 H417 0.920 1_455 S
C426 C424 1.383 . S
C426 C427 1.383 . S
C427 C426 1.383 . S
C427 C428 1.400 . S
C427 C432 1.490 1_554 S
C428 H418 0.930 . S
C428 C427 1.400 . S
C428 C431 1.386 . S
H429 C445 0.930 . S
H430 C446 0.931 . S
C431 H419 0.929 . S
C431 C425 1.390 . S
C431 C428 1.386 . S
C432 C427 1.490 1_556 S
C432 C434 1.395 . S
C432 C435 1.403 . S
H433 C439 0.930 . S
C434 H420 0.930 . S
C434 C432 1.395 . S
C434 C437 1.403 . S
C435 C432 1.403 . S
C435 C436 1.524 . S
C435 C439 1.400 . S
C436 H421 0.960 . S
C436 H422 0.960 . S
C436 H423 0.960 . S
C436 C435 1.524 . S
C437 C434 1.403 . S
C437 C438 1.392 . S
C437 C441 1.495 . S
C438 C437 1.392 . S
C438 C439 1.385 . S
C438 C440 1.478 . S
C439 H433 0.930 . S
C439 C435 1.400 . S
C439 C438 1.385 . S
C440 C438 1.478 . S
C440 C442 1.381 1_455 S
C440 C446 1.383 . S
C441 C437 1.495 . S
C441 H447 0.959 . S
C441 H448 0.961 . S
C441 H449 0.960 1_455 S
C442 C440 1.381 1_655 S
C442 C443 1.394 . S
C442 H450 0.930 . S
C443 C442 1.394 . S
C443 C444 1.383 1_655 S
C443 H451 0.929 . S
C444 C443 1.383 1_455 S
C444 C445 1.377 . S
C445 H429 0.930 . S
C445 C444 1.377 . S
C445 C446 1.379 . S
C446 H430 0.931 . S
C446 C440 1.383 . S
C446 C445 1.379 . S
H447 C441 0.959 . S
H448 C441 0.961 . S
H449 C441 0.960 1_655 S
H450 C442 0.930 . S
H451 C443 0.929 . S
H452 C460 0.929 1_655 S
H453 C462 0.930 1_655 S
H454 C464 0.930 . S
H455 C467 0.929 . S
H456 C470 0.930 . S
H457 C472 0.960 . S
H458 C472 0.960 1_556 S
H459 C472 0.960 1_556 S
C460 H452 0.929 1_455 S
C460 C461 1.377 . S
C460 C462 1.384 . S
C461 C460 1.377 . S
C461 C467 1.390 . S
C462 H453 0.930 1_455 S
C462 C460 1.384 . S
C462 C463 1.372 . S
C463 C462 1.372 . S
C463 C464 1.400 . S
C463 C468 1.490 1_556 S
C464 H454 0.930 . S
C464 C463 1.400 . S
C464 C467 1.386 . S
H465 C481 0.930 . S
H466 C482 0.931 . S
C467 H455 0.929 . S
C467 C461 1.390 . S
C467 C464 1.386 . S
C468 C463 1.490 1_554 S
C468 C470 1.395 . S
C468 C471 1.403 1_455 S
H469 C475 0.930 . S
C470 H456 0.930 . S
C470 C468 1.395 . S
C470 C473 1.403 . S
C471 C468 1.403 1_655 S
C471 C472 1.524 . S
C471 C475 1.400 . S
C472 H457 0.960 . S
C472 H458 0.960 1_554 S
C472 H459 0.960 1_554 S
C472 C471 1.524 . S
C473 C470 1.403 . S
C473 C474 1.392 . S
C473 C477 1.495 . S
C474 C473 1.392 . S
C474 C475 1.385 1_455 S
C474 C476 1.478 . S
C475 H469 0.930 . S
C475 C471 1.400 . S
C475 C474 1.385 1_655 S
C476 C474 1.478 . S
C476 C478 1.381 . S
C476 C482 1.383 . S
C477 C473 1.495 . S
C477 H483 0.959 . S
C477 H484 0.961 . S
C477 H485 0.960 . S
C478 C476 1.381 . S
C478 C479 1.400 . S
C478 H486 0.930 1_455 S
C479 C478 1.400 . S
C479 C480 1.393 . S
C479 H487 0.915 1_455 S
C480 C479 1.393 . S
C480 C481 1.377 . S
C481 H465 0.930 . S
C481 C480 1.377 . S
C481 C482 1.379 . S
C482 H466 0.931 . S
C482 C476 1.383 . S
C482 C481 1.379 . S
H483 C477 0.959 . S
H484 C477 0.961 . S
H485 C477 0.960 . S
H486 C478 0.930 1_655 S
H487 C479 0.915 1_655 S
H488 C496 0.929 . S
H489 C498 0.930 . S
H490 C500 0.930 . S
H491 C503 0.929 . S
H492 C506 0.930 . S
H493 C508 0.960 . S
H494 C508 0.960 . S
H495 C508 0.960 . S
C496 H488 0.929 . S
C496 C497 1.377 . S
C496 C498 1.384 . S
C497 C496 1.377 . S
C497 C503 1.390 . S
C498 H489 0.930 . S
C498 C496 1.384 . S
C498 C499 1.372 . S
C499 C498 1.372 . S
C499 C500 1.400 . S
C499 C504 1.490 . S
C500 H490 0.930 . S
C500 C499 1.400 . S
C500 C503 1.386 . S
H501 C517 0.930 . S
H502 C518 0.931 . S
C503 H491 0.929 . S
C503 C497 1.390 . S
C503 C500 1.386 . S
C504 C499 1.490 . S
C504 C506 1.395 . S
C504 C507 1.403 . S
H505 C511 0.930 . S
C506 H492 0.930 . S
C506 C504 1.395 . S
C506 C509 1.403 . S
C507 C504 1.403 . S
C507 C508 1.524 . S
C507 C511 1.400 . S
C508 H493 0.960 . S
C508 H494 0.960 . S
C508 H495 0.960 . S
C508 C507 1.524 . S
C509 C506 1.403 . S
C509 C510 1.392 . S
C509 C513 1.495 . S
C510 C509 1.392 . S
C510 C511 1.385 . S
C510 C512 1.478 . S
C511 H505 0.930 . S
C511 C507 1.400 . S
C511 C510 1.385 . S
C512 C510 1.478 . S
C512 C514 1.381 . S
C512 C518 1.383 . S
C513 C509 1.495 . S
C513 H519 0.959 . S
C513 H520 0.961 . S
C513 H521 0.960 . S
C514 C512 1.381 . S
C514 C515 1.394 . S
C514 H522 0.930 . S
C515 C514 1.394 . S
C515 C516 1.383 . S
C515 H523 0.929 . S
C516 C515 1.383 . S
C516 C517 1.377 . S
C517 H501 0.930 . S
C517 C516 1.377 . S
C517 C518 1.379 . S
C518 H502 0.931 . S
C518 C512 1.383 . S
C518 C517 1.379 . S
H519 C513 0.959 . S
H520 C513 0.961 . S
H521 C513 0.960 . S
H522 C514 0.930 . S
H523 C515 0.929 . S
H524 C532 0.929 . S
H525 C534 0.930 . S
H526 C536 0.930 . S
H527 C539 0.929 . S
H528 C542 0.930 . S
H529 C544 0.960 . S
H530 C544 0.960 . S
H531 C544 0.960 . S
C532 H524 0.929 . S
C532 C533 1.377 . S
C532 C534 1.384 . S
C533 C532 1.377 . S
C533 C539 1.390 . S
C534 H525 0.930 . S
C534 C532 1.384 . S
C534 C535 1.372 . S
C535 C534 1.372 . S
C535 C536 1.400 . S
C535 C540 1.490 . S
C536 H526 0.930 . S
C536 C535 1.400 . S
C536 C539 1.386 . S
H537 C553 0.930 . S
H538 C554 0.931 . S
C539 H527 0.929 . S
C539 C533 1.390 . S
C539 C536 1.386 . S
C540 C535 1.490 . S
C540 C542 1.395 . S
C540 C543 1.403 . S
H541 C547 0.930 . S
C542 H528 0.930 . S
C542 C540 1.395 . S
C542 C545 1.403 . S
C543 C540 1.403 . S
C543 C544 1.524 . S
C543 C547 1.400 . S
C544 H529 0.960 . S
C544 H530 0.960 . S
C544 H531 0.960 . S
C544 C543 1.524 . S
C545 C542 1.403 . S
C545 C546 1.392 . S
C545 C549 1.495 . S
C546 C545 1.392 . S
C546 C547 1.385 . S
C546 C548 1.478 . S
C547 H541 0.930 . S
C547 C543 1.400 . S
C547 C546 1.385 . S
C548 C546 1.478 . S
C548 C550 1.381 . S
C548 C554 1.383 . S
C549 C545 1.495 . S
C549 H555 0.959 . S
C549 H556 0.961 . S
C549 H557 0.960 . S
C550 C548 1.381 . S
C550 C551 1.394 . S
C550 H558 0.930 . S
C551 C550 1.394 . S
C551 C552 1.383 . S
C551 H559 0.929 . S
C552 C551 1.383 . S
C552 C553 1.377 . S
C553 H537 0.930 . S
C553 C552 1.377 . S
C553 C554 1.379 . S
C554 H538 0.931 . S
C554 C548 1.383 . S
C554 C553 1.379 . S
H555 C549 0.959 . S
H556 C549 0.961 . S
H557 C549 0.960 . S
H558 C550 0.930 . S
H559 C551 0.929 . S
C137 N18 2.330 . S
C156 C36 2.304 . S
C173 C70 1.404 . S
C192 N50 1.396 . S
C209 N109 1.236 . S
C228 N77 1.100 . S
C245 C4 2.073 . S
C264 C125 2.081 . S
C281 C98 2.772 . S
C300 C6 2.762 . S
C317 C68 0.811 . S
C336 N45 0.752 . S
C353 N82 1.073 . S
C372 N114 1.016 . S
C389 C38 2.592 . S
C408 N13 2.437 . S
C425 C29 0.866 . S
C444 C2 0.873 . S
C461 C34 0.876 . S
C480 C61 0.857 . S
C497 C66 0.868 1_554 S
C516 C93 0.870 . S
C533 C100 0.870 . S
C552 C102 0.864 1_556 S
