# Generated by pormake.
# Topology ukv, (4)-cn, num edge types: 1
# Building blocks:
#     Node 0, Type 0, BuildingBlock: GALJAG_clean_sbu_0, # of connection points: 4
#     Node 1, Type 0, BuildingBlock: GALJAG_clean_sbu_0, # of connection points: 4
#     Node 2, Type 0, BuildingBlock: GALJAG_clean_sbu_0, # of connection points: 4
#     Node 3, Type 0, BuildingBlock: GALJAG_clean_sbu_0, # of connection points: 4
#     Node 4, Type 0, BuildingBlock: GALJAG_clean_sbu_0, # of connection points: 4
#     Node 5, Type 0, BuildingBlock: GALJAG_clean_sbu_0, # of connection points: 4
#     Node 6, Type 0, BuildingBlock: GALJAG_clean_sbu_0, # of connection points: 4
#     Node 7, Type 0, BuildingBlock: GALJAG_clean_sbu_0, # of connection points: 4
#     Node 8, Type 0, BuildingBlock: GALJAG_clean_sbu_0, # of connection points: 4
#     Node 9, Type 0, BuildingBlock: GALJAG_clean_sbu_0, # of connection points: 4
#     Node 10, Type 0, BuildingBlock: GALJAG_clean_sbu_0, # of connection points: 4
#     Node 11, Type 0, BuildingBlock: GALJAG_clean_sbu_0, # of connection points: 4
#     Node 12, Type 0, BuildingBlock: GALJAG_clean_sbu_0, # of connection points: 4
#     Node 13, Type 0, BuildingBlock: GALJAG_clean_sbu_0, # of connection points: 4
#     Node 14, Type 0, BuildingBlock: GALJAG_clean_sbu_0, # of connection points: 4
#     Node 15, Type 0, BuildingBlock: GALJAG_clean_sbu_0, # of connection points: 4
#     Node 16, Type 0, BuildingBlock: GALJAG_clean_sbu_0, # of connection points: 4
#     Node 17, Type 0, BuildingBlock: GALJAG_clean_sbu_0, # of connection points: 4
#     Node 18, Type 0, BuildingBlock: GALJAG_clean_sbu_0, # of connection points: 4
#     Node 19, Type 0, BuildingBlock: GALJAG_clean_sbu_0, # of connection points: 4
#     Node 20, Type 0, BuildingBlock: GALJAG_clean_sbu_0, # of connection points: 4
#     Node 21, Type 0, BuildingBlock: GALJAG_clean_sbu_0, # of connection points: 4
#     Node 22, Type 0, BuildingBlock: GALJAG_clean_sbu_0, # of connection points: 4
#     Node 23, Type 0, BuildingBlock: GALJAG_clean_sbu_0, # of connection points: 4
#     Node 24, Type 0, BuildingBlock: GALJAG_clean_sbu_0, # of connection points: 4
#     Node 25, Type 0, BuildingBlock: GALJAG_clean_sbu_0, # of connection points: 4
#     Node 26, Type 0, BuildingBlock: GALJAG_clean_sbu_0, # of connection points: 4
#     Node 27, Type 0, BuildingBlock: GALJAG_clean_sbu_0, # of connection points: 4
#     Node 28, Type 0, BuildingBlock: GALJAG_clean_sbu_0, # of connection points: 4
#     Node 29, Type 0, BuildingBlock: GALJAG_clean_sbu_0, # of connection points: 4
#     Node 30, Type 0, BuildingBlock: GALJAG_clean_sbu_0, # of connection points: 4
#     Node 31, Type 0, BuildingBlock: GALJAG_clean_sbu_0, # of connection points: 4
#     Node 32, Type 0, BuildingBlock: GALJAG_clean_sbu_0, # of connection points: 4
#     Node 33, Type 0, BuildingBlock: GALJAG_clean_sbu_0, # of connection points: 4
#     Node 34, Type 0, BuildingBlock: GALJAG_clean_sbu_0, # of connection points: 4
#     Node 35, Type 0, BuildingBlock: GALJAG_clean_sbu_0, # of connection points: 4
#     Edge 36, Type (0, 0), BuildingBlock: UVAHIK_clean_linker_0, # of connection points: 2
#     Edge 37, Type (0, 0), BuildingBlock: UVAHIK_clean_linker_0, # of connection points: 2
#     Edge 38, Type (0, 0), BuildingBlock: UVAHIK_clean_linker_0, # of connection points: 2
#     Edge 39, Type (0, 0), BuildingBlock: UVAHIK_clean_linker_0, # of connection points: 2
#     Edge 40, Type (0, 0), BuildingBlock: UVAHIK_clean_linker_0, # of connection points: 2
#     Edge 41, Type (0, 0), BuildingBlock: UVAHIK_clean_linker_0, # of connection points: 2
#     Edge 42, Type (0, 0), BuildingBlock: UVAHIK_clean_linker_0, # of connection points: 2
#     Edge 43, Type (0, 0), BuildingBlock: UVAHIK_clean_linker_0, # of connection points: 2
#     Edge 44, Type (0, 0), BuildingBlock: UVAHIK_clean_linker_0, # of connection points: 2
#     Edge 45, Type (0, 0), BuildingBlock: UVAHIK_clean_linker_0, # of connection points: 2
#     Edge 46, Type (0, 0), BuildingBlock: UVAHIK_clean_linker_0, # of connection points: 2
#     Edge 47, Type (0, 0), BuildingBlock: UVAHIK_clean_linker_0, # of connection points: 2
#     Edge 48, Type (0, 0), BuildingBlock: UVAHIK_clean_linker_0, # of connection points: 2
#     Edge 49, Type (0, 0), BuildingBlock: UVAHIK_clean_linker_0, # of connection points: 2
#     Edge 50, Type (0, 0), BuildingBlock: UVAHIK_clean_linker_0, # of connection points: 2
#     Edge 51, Type (0, 0), BuildingBlock: UVAHIK_clean_linker_0, # of connection points: 2
#     Edge 52, Type (0, 0), BuildingBlock: UVAHIK_clean_linker_0, # of connection points: 2
#     Edge 53, Type (0, 0), BuildingBlock: UVAHIK_clean_linker_0, # of connection points: 2
#     Edge 54, Type (0, 0), BuildingBlock: UVAHIK_clean_linker_0, # of connection points: 2
#     Edge 55, Type (0, 0), BuildingBlock: UVAHIK_clean_linker_0, # of connection points: 2
#     Edge 56, Type (0, 0), BuildingBlock: UVAHIK_clean_linker_0, # of connection points: 2
#     Edge 57, Type (0, 0), BuildingBlock: UVAHIK_clean_linker_0, # of connection points: 2
#     Edge 58, Type (0, 0), BuildingBlock: UVAHIK_clean_linker_0, # of connection points: 2
#     Edge 59, Type (0, 0), BuildingBlock: UVAHIK_clean_linker_0, # of connection points: 2
#     Edge 60, Type (0, 0), BuildingBlock: UVAHIK_clean_linker_0, # of connection points: 2
#     Edge 61, Type (0, 0), BuildingBlock: UVAHIK_clean_linker_0, # of connection points: 2
#     Edge 62, Type (0, 0), BuildingBlock: UVAHIK_clean_linker_0, # of connection points: 2
#     Edge 63, Type (0, 0), BuildingBlock: UVAHIK_clean_linker_0, # of connection points: 2
#     Edge 64, Type (0, 0), BuildingBlock: UVAHIK_clean_linker_0, # of connection points: 2
#     Edge 65, Type (0, 0), BuildingBlock: UVAHIK_clean_linker_0, # of connection points: 2
#     Edge 66, Type (0, 0), BuildingBlock: UVAHIK_clean_linker_0, # of connection points: 2
#     Edge 67, Type (0, 0), BuildingBlock: UVAHIK_clean_linker_0, # of connection points: 2
#     Edge 68, Type (0, 0), BuildingBlock: UVAHIK_clean_linker_0, # of connection points: 2
#     Edge 69, Type (0, 0), BuildingBlock: UVAHIK_clean_linker_0, # of connection points: 2
#     Edge 70, Type (0, 0), BuildingBlock: UVAHIK_clean_linker_0, # of connection points: 2
#     Edge 71, Type (0, 0), BuildingBlock: UVAHIK_clean_linker_0, # of connection points: 2
#     Edge 72, Type (0, 0), BuildingBlock: UVAHIK_clean_linker_0, # of connection points: 2
#     Edge 73, Type (0, 0), BuildingBlock: UVAHIK_clean_linker_0, # of connection points: 2
#     Edge 74, Type (0, 0), BuildingBlock: UVAHIK_clean_linker_0, # of connection points: 2
#     Edge 75, Type (0, 0), BuildingBlock: UVAHIK_clean_linker_0, # of connection points: 2
#     Edge 76, Type (0, 0), BuildingBlock: UVAHIK_clean_linker_0, # of connection points: 2
#     Edge 77, Type (0, 0), BuildingBlock: UVAHIK_clean_linker_0, # of connection points: 2
#     Edge 78, Type (0, 0), BuildingBlock: UVAHIK_clean_linker_0, # of connection points: 2
#     Edge 79, Type (0, 0), BuildingBlock: UVAHIK_clean_linker_0, # of connection points: 2
#     Edge 80, Type (0, 0), BuildingBlock: UVAHIK_clean_linker_0, # of connection points: 2
#     Edge 81, Type (0, 0), BuildingBlock: UVAHIK_clean_linker_0, # of connection points: 2
#     Edge 82, Type (0, 0), BuildingBlock: UVAHIK_clean_linker_0, # of connection points: 2
#     Edge 83, Type (0, 0), BuildingBlock: UVAHIK_clean_linker_0, # of connection points: 2
#     Edge 84, Type (0, 0), BuildingBlock: UVAHIK_clean_linker_0, # of connection points: 2
#     Edge 85, Type (0, 0), BuildingBlock: UVAHIK_clean_linker_0, # of connection points: 2
#     Edge 86, Type (0, 0), BuildingBlock: UVAHIK_clean_linker_0, # of connection points: 2
#     Edge 87, Type (0, 0), BuildingBlock: UVAHIK_clean_linker_0, # of connection points: 2
#     Edge 88, Type (0, 0), BuildingBlock: UVAHIK_clean_linker_0, # of connection points: 2
#     Edge 89, Type (0, 0), BuildingBlock: UVAHIK_clean_linker_0, # of connection points: 2
#     Edge 90, Type (0, 0), BuildingBlock: UVAHIK_clean_linker_0, # of connection points: 2
#     Edge 91, Type (0, 0), BuildingBlock: UVAHIK_clean_linker_0, # of connection points: 2
#     Edge 92, Type (0, 0), BuildingBlock: UVAHIK_clean_linker_0, # of connection points: 2
#     Edge 93, Type (0, 0), BuildingBlock: UVAHIK_clean_linker_0, # of connection points: 2
#     Edge 94, Type (0, 0), BuildingBlock: UVAHIK_clean_linker_0, # of connection points: 2
#     Edge 95, Type (0, 0), BuildingBlock: UVAHIK_clean_linker_0, # of connection points: 2
#     Edge 96, Type (0, 0), BuildingBlock: UVAHIK_clean_linker_0, # of connection points: 2
#     Edge 97, Type (0, 0), BuildingBlock: UVAHIK_clean_linker_0, # of connection points: 2
#     Edge 98, Type (0, 0), BuildingBlock: UVAHIK_clean_linker_0, # of connection points: 2
#     Edge 99, Type (0, 0), BuildingBlock: UVAHIK_clean_linker_0, # of connection points: 2
#     Edge 100, Type (0, 0), BuildingBlock: UVAHIK_clean_linker_0, # of connection points: 2
#     Edge 101, Type (0, 0), BuildingBlock: UVAHIK_clean_linker_0, # of connection points: 2
#     Edge 102, Type (0, 0), BuildingBlock: UVAHIK_clean_linker_0, # of connection points: 2
#     Edge 103, Type (0, 0), BuildingBlock: UVAHIK_clean_linker_0, # of connection points: 2
#     Edge 104, Type (0, 0), BuildingBlock: UVAHIK_clean_linker_0, # of connection points: 2
#     Edge 105, Type (0, 0), BuildingBlock: UVAHIK_clean_linker_0, # of connection points: 2
#     Edge 106, Type (0, 0), BuildingBlock: UVAHIK_clean_linker_0, # of connection points: 2
#     Edge 107, Type (0, 0), BuildingBlock: UVAHIK_clean_linker_0, # of connection points: 2
# Relax obj value: 0.157
# Max RMSD: 0.129
# Mean RMSD: 0.129
data_MOF--net-ukv--node1-GALJAG_clean_sbu_0--edge1-UVAHIK_clean_linker_0
_symmetry_space_group_name_H-M    P1
_symmetry_Int_Tables_number       1
_symmetry_cell_setting            triclinic
loop_
_symmetry_equiv_pos_as_xyz
'x, y, z'
_cell_length_a     114.90127
_cell_length_b     114.89065
_cell_length_c     30.83244
_cell_angle_alpha  89.995121
_cell_angle_beta   89.95144
_cell_angle_gamma 120.01331
loop_
_atom_site_label
_atom_site_type_symbol
_atom_site_fract_x
_atom_site_fract_y
_atom_site_fract_z
_atom_type_partial_charge
In0 In 0.24691 0.07232 0.04116 0.0
O1 O 0.25077 0.08307 0.10604 0.0
O2 O 0.23843 0.08581 0.06083 0.0
C3 C 0.27243 0.07874 0.02483 0.0
C4 C 0.23341 0.04843 0.08222 0.0
C5 C 0.24039 0.07539 0.95992 0.0
O6 O 0.26952 0.08581 0.04903 0.0
O7 O 0.26244 0.06823 0.0101 0.0
O8 O 0.23334 0.06461 0.98076 0.0
O9 O 0.25025 0.08442 0.98041 0.0
C10 C 0.2436 0.08827 0.09811 0.0
O11 O 0.22761 0.0545 0.0679 0.0
O12 O 0.24577 0.05402 0.07352 0.0
In13 In 0.92098 0.16878 0.04293 0.0
O14 O 0.90441 0.16029 0.09433 0.0
O15 O 0.9154 0.15018 0.08254 0.0
C16 C 0.9204 0.19033 0.01232 0.0
C17 C 0.94452 0.17993 0.08524 0.0
C18 C 0.91039 0.15331 0.97266 0.0
O19 O 0.91371 0.18389 0.0453 0.0
O20 O 0.92759 0.18605 0.99553 0.0
O21 O 0.92284 0.15874 0.98086 0.0
O22 O 0.90365 0.1557 -0.00014 0.0
C23 C 0.9062 0.15057 0.10369 0.0
O24 O 0.9417 0.17112 0.05621 0.0
O25 O 0.93577 0.18334 0.09102 0.0
In26 In 0.81944 0.74771 0.04097 0.0
O27 O 0.81969 0.76725 0.05886 0.0
O28 O 0.80507 0.7489 0.08796 0.0
C29 C 0.83312 0.75188 0.96665 0.0
C30 C 0.83742 0.74903 0.09941 0.0
C31 C 0.79718 0.7259 0.01249 0.0
O32 O 0.82846 0.75938 0.97767 0.0
O33 O 0.83107 0.74275 0.99341 0.0
O34 O 0.80403 0.72545 0.04388 0.0
O35 O 0.80138 0.73745 0.99635 0.0
C36 C 0.81013 0.76146 0.08566 0.0
O37 O 0.82643 0.73833 0.09257 0.0
O38 O 0.83929 0.75895 0.0767 0.0
In39 In 0.06864 0.24601 0.44474 0.0
O40 O 0.05057 0.22506 0.43164 0.0
O41 O 0.04906 0.24213 0.41444 0.0
C42 C 0.08095 0.24311 0.51449 0.0
C43 C 0.0835 0.24576 0.37749 0.0
C44 C 0.0693 0.26844 0.47301 0.0
O45 O 0.06844 0.23566 0.50863 0.0
O46 O 0.08703 0.25163 0.48497 0.0
O47 O 0.07424 0.26789 0.4369 0.0
O48 O 0.0637 0.25756 0.49419 0.0
C49 C 0.04362 0.22953 0.41445 0.0
O50 O 0.08168 0.25555 0.38477 0.0
O51 O 0.07783 0.23618 0.40402 0.0
In52 In 0.75959 0.82762 0.46791 0.0
O53 O 0.77868 0.82673 0.45316 0.0
O54 O 0.7599 0.80935 0.44081 0.0
C55 C 0.76756 0.84405 0.53668 0.0
C56 C 0.76324 0.84376 0.39997 0.0
C57 C 0.73417 0.81122 0.49499 0.0
O58 O 0.76917 0.83393 0.53534 0.0
O59 O 0.76208 0.84571 0.5037 0.0
O60 O 0.73685 0.81737 0.45917 0.0
O61 O 0.74429 0.81312 0.51661 0.0
C62 C 0.77249 0.81496 0.4382 0.0
O63 O 0.75343 0.83189 0.40197 0.0
O64 O 0.77109 0.84737 0.43198 0.0
In65 In 0.17668 0.92621 0.45522 0.0
O66 O 0.17791 0.94656 0.44443 0.0
O67 O 0.19286 0.94328 0.41594 0.0
C68 C 0.16183 0.91608 0.52732 0.0
C69 C 0.15916 0.91252 0.3914 0.0
C70 C 0.19661 0.92187 0.47983 0.0
O71 O 0.16867 0.92863 0.52099 0.0
O72 O 0.16246 0.90897 0.49733 0.0
O73 O 0.18893 0.9158 0.44829 0.0
O74 O 0.19447 0.93045 0.49832 0.0
C75 C 0.18819 0.95106 0.42052 0.0
O76 O 0.17006 0.91249 0.39615 0.0
O77 O 0.15717 0.91953 0.41863 0.0
In78 In 0.75059 0.92465 0.96962 0.0
O79 O 0.74361 0.91096 0.91054 0.0
O80 O 0.76446 0.92116 0.92601 0.0
C81 C 0.72567 0.91513 0.00146 0.0
C82 C 0.76005 0.94911 0.93366 0.0
C83 C 0.7605 0.9173 0.03643 0.0
O84 O 0.72832 0.90961 0.97061 0.0
O85 O 0.73559 0.92582 0.01562 0.0
O86 O 0.76213 0.92902 0.03413 0.0
O87 O 0.75412 0.90969 0.0053 0.0
C88 C 0.75522 0.91311 0.90112 0.0
O89 O 0.76733 0.94618 0.95653 0.0
O90 O 0.7479 0.94 0.93131 0.0
In91 In 0.06624 0.82629 0.95736 0.0
O92 O 0.0781 0.82947 0.89485 0.0
O93 O 0.0772 0.84612 0.92095 0.0
C94 C 0.06739 0.8045 0.98228 0.0
C95 C 0.04159 0.81831 0.92486 0.0
C96 C 0.07733 0.84035 0.03017 0.0
O97 O 0.07431 0.81193 0.95121 0.0
O98 O 0.05959 0.80787 3e-05 0.0
O99 O 0.06494 0.83544 0.02234 0.0
O100 O 0.08384 0.83834 0.00117 0.0
C101 C 0.08153 0.84173 0.89135 0.0
O102 O 0.04878 0.82986 0.94088 0.0
O103 O 0.04661 0.81078 0.92699 0.0
In104 In 0.17858 0.25358 0.94338 0.0
O105 O 0.1806 0.2348 0.93487 0.0
O106 O 0.19305 0.25224 0.89729 0.0
C107 C 0.16262 0.24915 0.01227 0.0
C108 C 0.16164 0.25127 0.87958 0.0
C109 C 0.20001 0.27561 0.97539 0.0
O110 O 0.16755 0.24168 0.00432 0.0
O111 O 0.16566 0.25851 0.98535 0.0
O112 O 0.19377 0.27597 0.94212 0.0
O113 O 0.1956 0.26408 0.99183 0.0
C114 C 0.18956 0.24021 0.90592 0.0
O115 O 0.1723 0.26219 0.88744 0.0
O116 O 0.15958 0.24158 0.90385 0.0
In117 In 0.92458 0.74985 0.54081 0.0
O118 O 0.90821 0.74006 0.59227 0.0
O119 O 0.91512 0.76047 0.57557 0.0
C120 C 0.92631 0.72864 0.51289 0.0
C121 C 0.94737 0.76459 0.58589 0.0
C122 C 0.91467 0.75326 0.46628 0.0
O123 O 0.91874 0.72783 0.54394 0.0
O124 O 0.93333 0.74027 0.49689 0.0
O125 O 0.92668 0.76131 0.47755 0.0
O126 O 0.9079 0.74394 0.4929 0.0
C127 C 0.90736 0.75049 0.59858 0.0
O128 O 0.94363 0.76983 0.55699 0.0
O129 O 0.93998 0.75206 0.59005 0.0
In130 In 0.24352 0.16575 0.54333 0.0
O131 O 0.25115 0.15462 0.58468 0.0
O132 O 0.22994 0.1465 0.58006 0.0
C133 C 0.26698 0.18591 0.51291 0.0
C134 C 0.2347 0.1777 0.5988 0.0
C135 C 0.2338 0.15163 0.46983 0.0
O136 O 0.26637 0.17728 0.53956 0.0
O137 O 0.25575 0.18448 0.50208 0.0
O138 O 0.23034 0.15999 0.48195 0.0
O139 O 0.24193 0.15057 0.49459 0.0
C140 C 0.23953 0.14539 0.59548 0.0
O141 O 0.22799 0.17154 0.56554 0.0
O142 O 0.2458 0.17809 0.60276 0.0
In143 In 0.81829 0.06473 0.53761 0.0
O144 O 0.82395 0.07929 0.59435 0.0
O145 O 0.83722 0.07208 0.57778 0.0
C146 C 0.79987 0.07029 0.50549 0.0
C147 C 0.80595 0.04058 0.57765 0.0
C148 C 0.83416 0.07208 0.46713 0.0
O149 O 0.80673 0.07605 0.53886 0.0
O150 O 0.8022 0.06163 0.48876 0.0
O151 O 0.82477 0.0601 0.47249 0.0
O152 O 0.83552 0.08006 0.49731 0.0
C153 C 0.83474 0.07932 0.6025 0.0
O154 O 0.8171 0.045 0.5586 0.0
O155 O 0.8008 0.04796 0.57427 0.0
In156 In 0.90764 0.40742 0.36471 0.0
O157 O 0.91444 0.42548 0.4097 0.0
O158 O 0.89354 0.41104 0.40638 0.0
C159 C 0.93153 0.41184 0.33521 0.0
C160 C 0.89779 0.38433 0.40942 0.0
C161 C 0.8998 0.41405 0.29132 0.0
O162 O 0.93051 0.41761 0.36877 0.0
O163 O 0.92051 0.40366 0.31751 0.0
O164 O 0.89598 0.40191 0.30036 0.0
O165 O 0.90708 0.42244 0.31968 0.0
C166 C 0.90265 0.4219 0.42244 0.0
O167 O 0.89075 0.38625 0.38193 0.0
O168 O 0.90976 0.39379 0.4128 0.0
In169 In 0.59428 0.50481 0.371 0.0
O170 O 0.61315 0.50323 0.3832 0.0
O171 O 0.6129 0.52062 0.40517 0.0
C172 C 0.58131 0.48765 0.30591 0.0
C173 C 0.5799 0.49053 0.44002 0.0
C174 C 0.59385 0.52593 0.33551 0.0
O175 O 0.59395 0.49326 0.30987 0.0
O176 O 0.57548 0.49064 0.33477 0.0
O177 O 0.58837 0.52097 0.37161 0.0
O178 O 0.59982 0.52043 0.31793 0.0
C179 C 0.61918 0.51426 0.4033 0.0
O180 O 0.58092 0.50165 0.42988 0.0
O181 O 0.58617 0.48675 0.41556 0.0
In182 In 0.48569 0.08517 0.37706 0.0
O183 O 0.48795 0.10601 0.38658 0.0
O184 O 0.46997 0.08894 0.40806 0.0
C185 C 0.50108 0.08794 0.30782 0.0
C186 C 0.50121 0.08637 0.44435 0.0
C187 C 0.46404 0.06237 0.3505 0.0
O188 O 0.49569 0.09514 0.31263 0.0
O189 O 0.49879 0.07965 0.33797 0.0
O190 O 0.46959 0.06332 0.38674 0.0
O191 O 0.46922 0.07303 0.3282 0.0
C192 C 0.47676 0.10154 0.40533 0.0
O193 O 0.48977 0.07627 0.43751 0.0
O194 O 0.50472 0.09581 0.41748 0.0
In195 In 0.73768 0.57926 0.78348 0.0
O196 O 0.71893 0.55894 0.76743 0.0
O197 O 0.72048 0.57684 0.74199 0.0
C198 C 0.74834 0.57589 0.85651 0.0
C199 C 0.75415 0.57879 0.72221 0.0
C200 C 0.73708 0.60114 0.81043 0.0
O201 O 0.73607 0.5682 0.84729 0.0
O202 O 0.75498 0.58485 0.82871 0.0
O203 O 0.74317 0.60108 0.77633 0.0
O204 O 0.73104 0.59006 0.83044 0.0
C205 C 0.71388 0.56421 0.74354 0.0
O206 O 0.7533 0.58914 0.72979 0.0
O207 O 0.74674 0.56876 0.74557 0.0
In208 In 0.42583 0.16817 0.79838 0.0
O209 O 0.44293 0.16593 0.76902 0.0
O210 O 0.42311 0.15303 0.74633 0.0
C211 C 0.43689 0.18026 0.87426 0.0
C212 C 0.42755 0.18764 0.74579 0.0
C213 C 0.40161 0.14956 0.82926 0.0
O214 O 0.4368 0.16971 0.86218 0.0
O215 O 0.43175 0.18473 0.84779 0.0
O216 O 0.40314 0.15891 0.80415 0.0
O217 O 0.41228 0.14948 0.83827 0.0
C218 C 0.43541 0.15675 0.74303 0.0
O219 O 0.41643 0.17765 0.75683 0.0
O220 O 0.43778 0.18783 0.76151 0.0
In221 In 0.84318 0.2633 0.78613 0.0
O222 O 0.83787 0.24934 0.72766 0.0
O223 O 0.82367 0.25489 0.74836 0.0
C224 C 0.86396 0.2607 0.81311 0.0
C225 C 0.85348 0.28819 0.75228 0.0
C226 C 0.82836 0.25272 0.85791 0.0
O227 O 0.85798 0.25581 0.7776 0.0
O228 O 0.85968 0.26722 0.83432 0.0
O229 O 0.83419 0.26523 0.85043 0.0
O230 O 0.82989 0.24583 0.82903 0.0
C231 C 0.82652 0.24833 0.72191 0.0
O232 O 0.84214 0.2823 0.77055 0.0
O233 O 0.85976 0.28183 0.75317 0.0
In234 In 0.41673 0.25525 0.28716 0.0
O235 O 0.41104 0.23681 0.24509 0.0
O236 O 0.43138 0.24859 0.2651 0.0
C237 C 0.39237 0.25194 0.30454 0.0
C238 C 0.4274 0.27624 0.23203 0.0
C239 C 0.42221 0.25235 0.36974 0.0
O240 O 0.394 0.24364 0.28213 0.0
O241 O 0.4031 0.26215 0.31705 0.0
O242 O 0.42905 0.26337 0.3498 0.0
O243 O 0.41303 0.24304 0.34778 0.0
C244 C 0.42279 0.23856 0.24405 0.0
O245 O 0.43368 0.27594 0.26525 0.0
O246 O 0.41576 0.26626 0.22778 0.0
In247 In 0.73648 0.15889 0.28603 0.0
O248 O 0.71735 0.15985 0.27106 0.0
O249 O 0.71878 0.1432 0.2481 0.0
C250 C 0.74749 0.17375 0.35736 0.0
C251 C 0.75195 0.17558 0.22266 0.0
C252 C 0.73792 0.13749 0.31339 0.0
O253 O 0.73495 0.16803 0.35063 0.0
O254 O 0.75416 0.1721 0.32797 0.0
O255 O 0.74312 0.14344 0.27811 0.0
O256 O 0.73166 0.14211 0.33432 0.0
C257 C 0.7121 0.14916 0.249 0.0
O258 O 0.75136 0.16449 0.23021 0.0
O259 O 0.74473 0.17819 0.24698 0.0
In260 In 0.84421 0.58131 0.28282 0.0
O261 O 0.83796 0.59032 0.22779 0.0
O262 O 0.82487 0.56983 0.24426 0.0
C263 C 0.86605 0.60386 0.3098 0.0
C264 C 0.85405 0.56663 0.2469 0.0
C265 C 0.8297 0.57768 0.355 0.0
O266 O 0.86004 0.60334 0.27491 0.0
O267 O 0.86122 0.59291 0.33048 0.0
O268 O 0.83482 0.57039 0.34678 0.0
O269 O 0.83176 0.58641 0.32663 0.0
C270 C 0.82705 0.57962 0.22034 0.0
O271 O 0.8437 0.56133 0.27062 0.0
O272 O 0.85954 0.57918 0.24296 0.0
In273 In 0.59278 0.0855 0.87661 0.0
O274 O 0.57933 0.07603 0.93582 0.0
O275 O 0.58387 0.09565 0.91694 0.0
C276 C 0.59249 0.06318 0.84928 0.0
C277 C 0.61767 0.10183 0.90814 0.0
C278 C 0.58045 0.08836 0.80685 0.0
O279 O 0.58738 0.06372 0.88503 0.0
O280 O 0.59799 0.074 0.82776 0.0
O281 O 0.59298 0.09578 0.81258 0.0
O282 O 0.57439 0.07982 0.83632 0.0
C283 C 0.57784 0.08602 0.9431 0.0
O284 O 0.6111 0.1064 0.889 0.0
O285 O 0.61195 0.08921 0.90935 0.0
In286 In 0.9062 0.50276 0.85096 0.0
O287 O 0.91196 0.49782 0.91591 0.0
O288 O 0.90031 0.48154 0.87331 0.0
C289 C 0.9323 0.51624 0.82766 0.0
C290 C 0.89444 0.51409 0.89719 0.0
C291 C 0.89449 0.49445 0.77257 0.0
O292 O 0.92589 0.50368 0.83336 0.0
O293 O 0.92554 0.52203 0.83385 0.0
O294 O 0.90385 0.50628 0.77944 0.0
O295 O 0.89055 0.48705 0.80573 0.0
C296 C 0.90601 0.4853 0.90967 0.0
O297 O 0.88785 0.50251 0.88097 0.0
O298 O 0.90677 0.52019 0.88796 0.0
In299 In 0.48544 0.40072 0.87305 0.0
O300 O 0.4873 0.38192 0.88253 0.0
O301 O 0.46934 0.38125 0.90318 0.0
C302 C 0.50096 0.41323 0.804 0.0
C303 C 0.50099 0.41405 0.9414 0.0
C304 C 0.46446 0.40287 0.84534 0.0
O305 O 0.4956 0.40065 0.80911 0.0
O306 O 0.49857 0.41927 0.83376 0.0
O307 O 0.47082 0.40853 0.87963 0.0
O308 O 0.46846 0.39582 0.8259 0.0
C309 C 0.476 0.37529 0.90079 0.0
O310 O 0.48916 0.41197 0.9374 0.0
O311 O 0.50488 0.40948 0.91103 0.0
In312 In 0.57615 0.74421 0.70201 0.0
O313 O 0.58247 0.76439 0.7347 0.0
O314 O 0.56351 0.7476 0.75138 0.0
C315 C 0.60098 0.75177 0.67183 0.0
C316 C 0.5682 0.72195 0.75053 0.0
C317 C 0.5635 0.74519 0.62982 0.0
O318 O 0.59908 0.75598 0.70747 0.0
O319 O 0.59041 0.74368 0.65191 0.0
O320 O 0.56435 0.73494 0.63921 0.0
O321 O 0.5688 0.75463 0.65695 0.0
C322 C 0.57179 0.75993 0.75672 0.0
O323 O 0.56038 0.72316 0.72459 0.0
O324 O 0.58008 0.73168 0.75051 0.0
In325 In 0.26013 0.83217 0.70267 0.0
O326 O 0.24441 0.82691 0.75526 0.0
O327 O 0.25233 0.81381 0.74629 0.0
C328 C 0.25476 0.85099 0.67258 0.0
C329 C 0.28382 0.8436 0.74512 0.0
C330 C 0.2537 0.81689 0.63054 0.0
O331 O 0.24713 0.84191 0.69878 0.0
O332 O 0.26518 0.85064 0.66172 0.0
O333 O 0.26478 0.8277 0.63398 0.0
O334 O 0.2463 0.81375 0.66354 0.0
C335 C 0.24433 0.81632 0.76686 0.0
O336 O 0.27972 0.83295 0.72337 0.0
O337 O 0.27627 0.84859 0.74392 0.0
In338 In 0.1525 0.41648 0.71072 0.0
O339 O 0.15672 0.40753 0.77093 0.0
O340 O 0.17156 0.42711 0.75056 0.0
C341 C 0.1312 0.39427 0.67903 0.0
C342 C 0.14303 0.43192 0.74311 0.0
C343 C 0.16839 0.42024 0.6421 0.0
O344 O 0.13708 0.39415 0.71356 0.0
O345 O 0.13585 0.40567 0.66132 0.0
O346 O 0.16312 0.42749 0.64819 0.0
O347 O 0.16573 0.4114 0.67068 0.0
C348 C 0.16815 0.4177 0.77749 0.0
O349 O 0.15386 0.43685 0.72184 0.0
O350 O 0.13685 0.4193 0.74637 0.0
In351 In 0.40416 0.91428 0.1223 0.0
O352 O 0.38523 0.89397 0.10849 0.0
O353 O 0.38652 0.91176 0.08292 0.0
C354 C 0.41598 0.91073 0.19207 0.0
C355 C 0.41952 0.91375 0.05729 0.0
C356 C 0.40387 0.93593 0.15348 0.0
O357 O 0.40353 0.90318 0.18499 0.0
O358 O 0.4222 0.91967 0.16381 0.0
O359 O 0.41034 0.93639 0.1197 0.0
O360 O 0.39729 0.92446 0.17086 0.0
C361 C 0.37991 0.89914 0.08538 0.0
O362 O 0.41849 0.92399 0.06519 0.0
O363 O 0.41283 0.90389 0.08215 0.0
In364 In 0.08532 0.49699 0.12043 0.0
O365 O 0.10272 0.49352 0.10175 0.0
O366 O 0.08429 0.48301 0.06726 0.0
C367 C 0.09061 0.50773 0.20008 0.0
C368 C 0.09104 0.51874 0.07202 0.0
C369 C 0.06111 0.47642 0.14218 0.0
O370 O 0.09698 0.50231 0.18465 0.0
O371 O 0.08202 0.50789 0.17504 0.0
O372 O 0.06265 0.48454 0.11198 0.0
O373 O 0.07182 0.47846 0.16035 0.0
C374 C 0.0962 0.48546 0.07147 0.0
O375 O 0.07933 0.50868 0.07431 0.0
O376 O 0.09977 0.51775 0.09391 0.0
In377 In 0.51411 0.5978 0.11604 0.0
O378 O 0.51237 0.61642 0.10052 0.0
O379 O 0.53108 0.61748 0.08967 0.0
C380 C 0.49991 0.5872 0.18899 0.0
C381 C 0.49751 0.58373 0.05041 0.0
C382 C 0.53457 0.59411 0.13872 0.0
O383 O 0.5053 0.59964 0.18087 0.0
O384 O 0.50156 0.58037 0.16021 0.0
O385 O 0.52782 0.58911 0.10449 0.0
O386 O 0.53119 0.60122 0.16075 0.0
C387 C 0.52424 0.62322 0.08659 0.0
O388 O 0.50963 0.58656 0.05151 0.0
O389 O 0.49381 0.5879 0.0824 0.0
In390 In 0.09371 0.5949 0.63877 0.0
O391 O 0.11072 0.61428 0.60921 0.0
O392 O 0.09064 0.60947 0.59698 0.0
C393 C 0.10614 0.59678 0.71481 0.0
C394 C 0.09495 0.57863 0.57838 0.0
C395 C 0.06844 0.58322 0.67014 0.0
O396 O 0.1014 0.60431 0.70583 0.0
O397 O 0.10505 0.58884 0.68493 0.0
O398 O 0.07398 0.57658 0.65893 0.0
O399 O 0.07563 0.59579 0.66534 0.0
C400 C 0.10295 0.6174 0.59021 0.0
O401 O 0.0846 0.57962 0.58418 0.0
O402 O 0.10469 0.5859 0.60292 0.0
In403 In 0.40651 0.49421 0.61696 0.0
O404 O 0.42195 0.49961 0.56288 0.0
O405 O 0.41441 0.51286 0.57497 0.0
C406 C 0.40702 0.47257 0.64741 0.0
C407 C 0.38239 0.48474 0.57848 0.0
C408 C 0.41793 0.51027 0.68567 0.0
O409 O 0.41239 0.47812 0.61181 0.0
O410 O 0.40114 0.47779 0.66734 0.0
O411 O 0.40531 0.50414 0.68023 0.0
O412 O 0.42445 0.50825 0.65665 0.0
C413 C 0.42213 0.51036 0.55284 0.0
O414 O 0.38729 0.49504 0.6024 0.0
O415 O 0.38926 0.479 0.57642 0.0
In416 In 0.51095 0.91496 0.62161 0.0
O417 O 0.50604 0.92408 0.56359 0.0
O418 O 0.49172 0.90412 0.5824 0.0
C419 C 0.53285 0.93698 0.65142 0.0
C420 C 0.52001 0.89952 0.5866 0.0
C421 C 0.49569 0.91175 0.6915 0.0
O422 O 0.5267 0.93713 0.6176 0.0
O423 O 0.52815 0.92561 0.6694 0.0
O424 O 0.5006 0.9042 0.68481 0.0
O425 O 0.49835 0.92055 0.66281 0.0
C426 C 0.49476 0.91375 0.55664 0.0
O427 O 0.50988 0.89467 0.61135 0.0
O428 O 0.52572 0.91206 0.58138 0.0
In429 In 0.2624 0.42276 0.21043 0.0
O430 O 0.28054 0.44382 0.22222 0.0
O431 O 0.28198 0.42681 0.24093 0.0
C432 C 0.24925 0.42515 0.14214 0.0
C433 C 0.24783 0.42297 0.27848 0.0
C434 C 0.26223 0.40062 0.18178 0.0
O435 O 0.26182 0.43268 0.14645 0.0
O436 O 0.24355 0.4168 0.17239 0.0
O437 O 0.25737 0.40106 0.21816 0.0
O438 O 0.26747 0.41147 0.16042 0.0
C439 C 0.28745 0.43942 0.24006 0.0
O440 O 0.24945 0.4131 0.27044 0.0
O441 O 0.25358 0.43266 0.25236 0.0
In442 In 0.5663 0.83024 0.19547 0.0
O443 O 0.5476 0.8292 0.22557 0.0
O444 O 0.56573 0.848 0.22523 0.0
C445 C 0.55642 0.82437 0.11398 0.0
C446 C 0.56374 0.81179 0.25454 0.0
C447 C 0.59308 0.84358 0.18169 0.0
O448 O 0.56499 0.83609 0.12567 0.0
O449 O 0.55225 0.81578 0.14405 0.0
O450 O 0.5869 0.84921 0.19643 0.0
O451 O 0.58581 0.83115 0.17475 0.0
C452 C 0.55363 0.84136 0.23716 0.0
O453 O 0.56086 0.80887 0.21509 0.0
O454 O 0.56825 0.824 0.26366 0.0
In455 In 0.15093 0.73858 0.20835 0.0
O456 O 0.14892 0.71809 0.22294 0.0
O457 O 0.13638 0.72368 0.25712 0.0
C458 C 0.16354 0.74611 0.13142 0.0
C459 C 0.17049 0.75389 0.26515 0.0
C460 C 0.12983 0.74123 0.18558 0.0
O461 O 0.1583 0.73409 0.14459 0.0
O462 O 0.16249 0.75406 0.15712 0.0
O463 O 0.13854 0.7489 0.21273 0.0
O464 O 0.1316 0.73197 0.17066 0.0
C465 C 0.14 0.71509 0.25164 0.0
O466 O 0.15992 0.7546 0.26128 0.0
O467 O 0.17118 0.74556 0.24029 0.0
C468 C 0.18541 0.96941 0.38736 0.0
C469 C 0.19339 0.96352 0.39494 0.0
C470 C 0.1894 0.97971 0.35672 0.0
C471 C 0.21848 0.00444 0.29204 0.0
H472 H 0.19177 -0.00111 0.20517 0.0
C473 C 0.23415 0.03099 0.12816 0.0
C474 C 0.22696 0.03706 0.11281 0.0
C475 C 0.22926 0.02203 0.16292 0.0
C476 C 0.19929 0.00066 0.22942 0.0
H477 H 0.2121 0.96426 0.3786 0.0
H478 H 0.2191 0.98225 0.32571 0.0
H479 H 0.18515 0.98448 0.26939 0.0
H480 H 0.20865 0.03795 0.12012 0.0
H481 H 0.20008 0.02224 0.18108 0.0
H482 H 0.23266 0.02047 0.25201 0.0
C483 C 0.20979 0.97896 0.34319 0.0
C484 C 0.1955 0.99246 0.26627 0.0
C485 C 0.20576 0.96862 0.37339 0.0
C486 C 0.21438 0.03338 0.13121 0.0
C487 C 0.20949 0.02441 0.16614 0.0
C488 C 0.22226 0.01262 0.25532 0.0
C489 C 0.20149 0.98437 0.33366 0.0
C490 C 0.20512 0.99411 0.29753 0.0
C491 C 0.2171 0.01897 0.1832 0.0
C492 C 0.21277 0.01065 0.22316 0.0
H493 H 0.1758 0.96562 0.40344 0.0
H494 H 0.18288 0.9838 0.35032 0.0
H495 H 0.22606 0.00608 0.31591 0.0
H496 H 0.24383 0.03357 0.11445 0.0
H497 H 0.23519 0.01773 0.17461 0.0
C498 C 0.95941 0.19575 0.14163 0.0
C499 C 0.9561 0.18468 0.11471 0.0
C500 C 0.96855 0.19893 0.17538 0.0
C501 C 0.99528 0.19371 0.21994 0.0
H502 H 0.98456 0.20322 0.3276 0.0
C503 C 0.02827 0.20847 0.37406 0.0
C504 C 0.0311 0.22103 0.39044 0.0
C505 C 0.01786 0.2017 0.34409 0.0
C506 C 0.98766 0.20054 0.29782 0.0
H507 H 0.96028 0.16866 0.10035 0.0
H508 H 0.97637 0.17424 0.15986 0.0
H509 H 0.96965 0.1965 0.26503 0.0
H510 H 0.02483 0.23596 0.39079 0.0
H511 H 0.00658 0.22408 0.33932 0.0
H512 H 0.01344 0.19804 0.25281 0.0
C513 C 0.97187 0.18046 0.15466 0.0
C514 C 0.97918 0.19677 0.26191 0.0
C515 C 0.96272 0.1773 0.12055 0.0
C516 C 0.02285 0.22628 0.37866 0.0
C517 C 0.01237 0.21946 0.34928 0.0
C518 C 0.00377 0.19746 0.25603 0.0
C519 C 0.97453 0.19105 0.18324 0.0
C520 C 0.98306 0.1937 0.22222 0.0
C521 C 0.01003 0.20731 0.3307 0.0
C522 C 0.00018 0.20125 0.29495 0.0
H523 H 0.95456 0.2017 0.13761 0.0
H524 H 0.9707 0.2074 0.19604 0.0
H525 H -0.00147 0.1914 0.1898 0.0
H526 H 0.03454 0.20425 0.38246 0.0
H527 H 0.01619 0.1923 0.33048 0.0
C528 C 0.79224 0.81744 0.39644 0.0
C529 C 0.77913 0.80918 0.41218 0.0
C530 C 0.79741 0.81279 0.36399 0.0
C531 C 0.79201 0.78228 0.30618 0.0
H532 H 0.80567 0.80577 0.20589 0.0
C533 C 0.79448 0.76147 0.14109 0.0
C534 C 0.80635 0.76869 0.11698 0.0
C535 C 0.79201 0.7673 0.17691 0.0
C536 C 0.80205 0.79917 0.2338 0.0
H537 H 0.76153 0.7893 0.40884 0.0
H538 H 0.77057 0.78113 0.35276 0.0
H539 H 0.80092 0.81398 0.27294 0.0
H540 H 0.82461 0.78792 0.1097 0.0
H541 H 0.82032 0.79817 0.17282 0.0
H542 H 0.79295 0.76742 0.26712 0.0
C543 C 0.77687 0.7912 0.36522 0.0
C544 C 0.79938 0.80387 0.27224 0.0
C545 C 0.77167 0.79588 0.39731 0.0
C546 C 0.81533 0.78216 0.12765 0.0
C547 C 0.81289 0.78801 0.16383 0.0
C548 C 0.7947 0.7776 0.2679 0.0
C549 C 0.7896 0.79975 0.34718 0.0
C550 C 0.79408 0.79538 0.30853 0.0
C551 C 0.80142 0.78045 0.18967 0.0
C552 C 0.79946 0.78588 0.23097 0.0
H553 H 0.79821 0.82776 0.40727 0.0
H554 H 0.80732 0.81953 0.35104 0.0
H555 H 0.78813 0.77558 0.33382 0.0
H556 H 0.78732 0.75109 0.13333 0.0
H557 H 0.78288 0.76135 0.1954 0.0
C558 C 0.75695 0.9642 0.88278 0.0
C559 C 0.76563 0.96104 0.90534 0.0
C560 C 0.76184 0.97366 0.84932 0.0
C561 C 0.78789 0.98639 0.7669 0.0
H562 H 0.77738 0.01318 0.74706 0.0
C563 C 0.8089 0.02475 0.62566 0.0
C564 C 0.80049 0.02913 0.60793 0.0
C565 C 0.80461 0.01599 0.66114 0.0
C566 C 0.78023 0.00559 0.7517 0.0
H567 H 0.78633 0.96581 0.91232 0.0
H568 H 0.79487 0.98232 0.85352 0.0
H569 H 0.77058 5e-05 0.8138 0.0
H570 H 0.78068 0.02701 0.61094 0.0
H571 H 0.77296 0.01129 0.6715 0.0
H572 H 0.79724 0.99163 0.70443 0.0
C573 C 0.78428 0.97742 0.86169 0.0
C574 C 0.77642 0.99817 0.79014 0.0
C575 C 0.77942 0.96808 0.89556 0.0
C576 C 0.7874 0.02386 0.62422 0.0
C577 C 0.78305 0.01499 0.65927 0.0
C578 C 0.79158 0.99372 0.72822 0.0
C579 C 0.77547 0.98001 0.8375 0.0
C580 C 0.78019 0.98849 0.79807 0.0
C581 C 0.79177 0.01134 0.67921 0.0
C582 C 0.78774 0.00337 0.72004 0.0
H583 H 0.74627 0.95891 0.88963 0.0
H584 H 0.75481 0.97543 0.83112 0.0
H585 H 0.79074 0.97882 0.77191 0.0
H586 H 0.81909 0.02875 0.61393 0.0
H587 H 0.81162 0.01346 0.67574 0.0
C588 C 0.02687 0.82419 0.88145 0.0
C589 C 0.02925 0.8144 0.89996 0.0
C590 C 0.01665 0.82051 0.85074 0.0
C591 C 0.98645 0.79125 0.80444 0.0
H592 H -0.00137 0.81017 0.69477 0.0
C593 C 0.9621 0.76559 0.64621 0.0
C594 C 0.95827 0.77243 0.617 0.0
C595 C 0.97045 0.77232 0.68109 0.0
C596 C 0.99502 0.80493 0.72536 0.0
H597 H 0.02233 0.79308 0.90337 0.0
H598 H 0.00446 0.78665 0.85053 0.0
H599 H 0.01274 0.81915 0.75941 0.0
H600 H 0.96081 0.79186 0.59976 0.0
H601 H 0.97569 0.80378 0.66107 0.0
H602 H 0.969 0.77678 0.77023 0.0
C603 C 0.01043 0.79715 0.85942 0.0
C604 C 0.00305 0.81009 0.76238 0.0
C605 C 0.02071 0.80083 0.88958 0.0
C606 C 0.96365 0.78636 0.62178 0.0
C607 C 0.97209 0.79315 0.65687 0.0
C608 C 0.97848 0.78611 0.76757 0.0
C609 C 0.00855 0.80698 0.83869 0.0
C610 C -0.00098 0.80304 0.80192 0.0
C611 C 0.97518 0.78607 0.6876 0.0
C612 C 0.98289 0.79264 0.72737 0.0
H613 H 0.03338 0.83474 0.88878 0.0
H614 H 0.01534 0.82827 0.83546 0.0
H615 H 0.98299 0.78574 0.83464 0.0
H616 H 0.95821 0.75487 0.64315 0.0
H617 H 0.97297 0.76669 0.70363 0.0
C618 C 0.23718 0.18848 0.67071 0.0
C619 C 0.22984 0.18346 0.63215 0.0
C620 C 0.23266 0.19368 0.7032 0.0
C621 C 0.20267 0.19443 0.74317 0.0
H622 H 0.22941 0.22673 0.80145 0.0
C623 C 0.2054 0.24006 0.85136 0.0
C624 C 0.19495 0.23296 0.88118 0.0
C625 C 0.20979 0.23331 0.82446 0.0
C626 C 0.22181 0.21772 0.78546 0.0
H627 H 0.21196 0.17985 0.59737 0.0
H628 H 0.20418 0.18932 0.65397 0.0
H629 H 0.23642 0.21658 0.74576 0.0
H630 H 0.1811 0.21323 0.90709 0.0
H631 H 0.18893 0.20132 0.86002 0.0
H632 H 0.18801 0.19597 0.78194 0.0
C633 C 0.21333 0.189 0.6593 0.0
C634 C 0.22584 0.21181 0.7538 0.0
C635 C 0.21783 0.18369 0.62675 0.0
C636 C 0.1892 0.21895 0.88444 0.0
C637 C 0.1936 0.21214 0.85729 0.0
C638 C 0.19863 0.20039 0.77485 0.0
C639 C 0.22074 0.1941 0.69784 0.0
C640 C 0.21632 0.20015 0.73204 0.0
C641 C 0.20386 0.21926 0.8267 0.0
C642 C 0.20815 0.2122 0.79595 0.0
H643 H 0.24641 0.1883 0.67607 0.0
H644 H 0.23848 0.19727 0.73275 0.0
H645 H 0.19512 0.18536 0.7274 0.0
H646 H 0.21001 0.25087 0.84801 0.0
H647 H 0.21757 0.23908 0.80087 0.0
C648 C 0.87157 0.30734 0.71139 0.0
C649 C 0.85815 0.30031 0.72532 0.0
C650 C 0.87551 0.31689 0.67846 0.0
C651 C 0.86493 0.33686 0.61145 0.0
H652 H 0.88857 0.33423 0.527 0.0
C653 C 0.87836 0.36522 0.44732 0.0
C654 C 0.89224 0.37277 0.43926 0.0
C655 C 0.87341 0.35568 0.48068 0.0
C656 C 0.88199 0.3351 0.55035 0.0
H657 H 0.83848 0.2983 0.71788 0.0
H658 H 0.84529 0.31486 0.65963 0.0
H659 H 0.88187 0.32007 0.59132 0.0
H660 H 0.91176 0.37586 0.4581 0.0
H661 H 0.90313 0.35908 0.51561 0.0
H662 H 0.86504 0.35187 0.56983 0.0
C663 C 0.85282 0.31312 0.67444 0.0
C664 C 0.87823 0.32707 0.58741 0.0
C665 C 0.84892 0.30365 0.70785 0.0
C666 C 0.90101 0.37017 0.4636 0.0
C667 C 0.89607 0.36054 0.49645 0.0
C668 C 0.86864 0.34485 0.57411 0.0
C669 C 0.86605 0.31948 0.65831 0.0
C670 C 0.86982 0.32799 0.61875 0.0
C671 C 0.88226 0.35342 0.50596 0.0
C672 C 0.87734 0.34415 0.54351 0.0
H673 H 0.87892 0.30503 0.72461 0.0
H674 H 0.88587 0.32191 0.66772 0.0
H675 H 0.85848 0.33785 0.63502 0.0
H676 H 0.87139 0.3671 0.42917 0.0
H677 H 0.86271 0.35023 0.48716 0.0
C678 C 0.63543 0.50934 0.44171 0.0
C679 C 0.63162 0.51865 0.42824 0.0
C680 C 0.64563 0.51302 0.47252 0.0
C681 C 0.67346 0.54246 0.52762 0.0
H682 H 0.6635 0.51913 0.62836 0.0
C683 C 0.69703 0.56324 0.69131 0.0
C684 C 0.70251 0.5565 0.71386 0.0
C685 C 0.68847 0.55716 0.65628 0.0
C686 C 0.66649 0.52564 0.60022 0.0
H687 H 0.63598 0.53924 0.43403 0.0
H688 H 0.65379 0.54569 0.48709 0.0
H689 H 0.64962 0.51139 0.56283 0.0
H690 H 0.70259 0.53773 0.71956 0.0
H691 H 0.68738 0.52695 0.65801 0.0
H692 H 0.69002 0.55687 0.56529 0.0
C693 C 0.64897 0.53558 0.47414 0.0
C694 C 0.65861 0.52121 0.56266 0.0
C695 C 0.63873 0.53187 0.44384 0.0
C696 C 0.69846 0.54313 0.70276 0.0
C697 C 0.68983 0.537 0.66751 0.0
C698 C 0.68127 0.54688 0.56504 0.0
C699 C 0.65228 0.5261 0.48977 0.0
C700 C 0.66181 0.52975 0.52646 0.0
C701 C 0.6852 0.54418 0.64298 0.0
C702 C 0.67763 0.53869 0.60214 0.0
H703 H 0.63004 0.49905 0.43032 0.0
H704 H 0.64806 0.50556 0.48374 0.0
H705 H 0.67632 0.54916 0.49997 0.0
H706 H 0.69987 0.57351 0.69939 0.0
H707 H 0.68476 0.56279 0.63863 0.0
C708 C 0.43161 0.14078 0.6828 0.0
C709 C 0.44059 0.15173 0.70832 0.0
C710 C 0.43621 0.13689 0.64684 0.0
C711 C 0.46682 0.14012 0.59569 0.0
H712 H 0.44404 0.12812 0.49362 0.0
C713 C 0.48234 0.12325 0.44094 0.0
C714 C 0.47268 0.11019 0.42819 0.0
C715 C 0.47893 0.13037 0.47022 0.0
C716 C 0.45052 0.1315 0.52185 0.0
H717 H 0.46146 0.16703 0.71692 0.0
H718 H 0.46952 0.16035 0.6536 0.0
H719 H 0.43731 0.13622 0.55655 0.0
H720 H 0.45174 0.09471 0.43325 0.0
H721 H 0.44574 0.10721 0.4836 0.0
H722 H 0.47997 0.13527 0.56087 0.0
C723 C 0.45894 0.15466 0.66168 0.0
C724 C 0.44663 0.13604 0.55802 0.0
C725 C 0.45433 0.15849 0.69794 0.0
C726 C 0.45937 0.10477 0.44263 0.0
C727 C 0.45593 0.11194 0.47134 0.0
C728 C 0.47076 0.13568 0.55933 0.0
C729 C 0.44988 0.14394 0.63531 0.0
C730 C 0.45458 0.14011 0.59575 0.0
C731 C 0.46578 0.12461 0.48656 0.0
C732 C 0.46251 0.13106 0.52242 0.0
H733 H 0.42096 0.13534 0.69018 0.0
H734 H 0.42901 0.12837 0.62794 0.0
H735 H 0.47312 0.14307 0.62428 0.0
H736 H 0.49269 0.12765 0.43039 0.0
H737 H 0.48667 0.14018 0.48121 0.0
C738 C 0.42508 0.2879 0.1675 0.0
C739 C 0.4334 0.28675 0.19843 0.0
C740 C 0.43063 0.29676 0.13273 0.0
C741 C 0.46204 0.32618 0.09289 0.0
H742 H 0.44337 0.31508 0.98264 0.0
C743 C 0.48126 0.35943 0.93975 0.0
C744 C 0.47169 0.36252 0.92366 0.0
C745 C 0.47743 0.34884 0.9691 0.0
C746 C 0.44871 0.31826 0.01318 0.0
H747 H 0.45403 0.29412 0.21787 0.0
H748 H 0.46382 0.30945 0.15637 0.0
H749 H 0.43528 0.29964 0.04405 0.0
H750 H 0.45055 0.3565 0.92298 0.0
H751 H 0.4438 0.33775 0.97312 0.0
H752 H 0.47549 0.34481 0.06156 0.0
C753 C 0.45298 0.30367 0.15936 0.0
C754 C 0.44403 0.30949 0.04851 0.0
C755 C 0.4474 0.2949 0.1946 0.0
C756 C 0.45812 0.3543 0.93491 0.0
C757 C 0.45426 0.34357 0.96351 0.0
C758 C 0.46683 0.33488 0.05732 0.0
C759 C 0.44465 0.30455 0.12762 0.0
C760 C 0.45042 0.31347 0.08915 0.0
C761 C 0.46393 0.34103 0.98196 0.0
C762 C 0.46002 0.3311 0.01746 0.0
H763 H 0.41424 0.2818 0.16986 0.0
H764 H 0.42388 0.29745 0.10973 0.0
H765 H 0.46716 0.32964 0.12369 0.0
H766 H 0.49181 0.36569 0.9318 0.0
H767 H 0.48505 0.34701 0.98278 0.0
C768 C 0.69518 0.13276 0.19792 0.0
C769 C 0.70052 0.14507 0.21989 0.0
C770 C 0.68653 0.12999 0.16295 0.0
C771 C 0.66405 0.13863 0.10601 0.0
H772 H 0.67486 0.12577 0.00597 0.0
C773 C 0.63326 0.12317 0.94705 0.0
C774 C 0.63003 0.11025 0.93307 0.0
C775 C 0.64334 0.12992 0.97805 0.0
C776 C 0.67172 0.12936 0.03356 0.0
H777 H 0.7002 0.16374 0.22473 0.0
H778 H 0.6848 0.15876 0.16341 0.0
H779 H 0.68837 0.13199 0.07176 0.0
H780 H 0.63532 0.09466 0.93809 0.0
H781 H 0.65289 0.10639 0.99153 0.0
H782 H 0.64709 0.1355 0.06817 0.0
C783 C 0.68745 0.15134 0.17326 0.0
C784 C 0.67942 0.13289 0.07124 0.0
C785 C 0.69619 0.15414 0.2084 0.0
C786 C 0.63761 0.10461 0.94829 0.0
C787 C 0.64772 0.11137 0.97883 0.0
C788 C 0.65626 0.13501 0.06823 0.0
C789 C 0.683 0.13947 0.14921 0.0
C790 C 0.67546 0.13717 0.10823 0.0
C791 C 0.65044 0.12392 0.99504 0.0
C792 C 0.65982 0.12997 0.03207 0.0
H793 H 0.69824 0.12552 0.20628 0.0
H794 H 0.68297 0.12061 0.1456 0.0
H795 H 0.66082 0.14195 0.13407 0.0
H796 H 0.6275 0.12771 0.93595 0.0
H797 H 0.64532 0.13964 0.98966 0.0
C798 C 0.87121 0.56549 0.2009 0.0
C799 C 0.85853 0.55884 0.22085 0.0
C800 C 0.87471 0.55895 0.16992 0.0
C801 C 0.85912 0.53287 0.08788 0.0
H802 H 0.89526 0.5388 0.07487 0.0
C803 C 0.87582 0.51083 0.94685 0.0
C804 C 0.88877 0.5192 0.93001 0.0
C805 C 0.87138 0.51481 0.98318 0.0
C806 C 0.88516 0.53716 0.07784 0.0
H807 H 0.8398 0.53993 0.22582 0.0
H808 H 0.84594 0.52842 0.17123 0.0
H809 H 0.88919 0.54631 0.14059 0.0
H810 H 0.9069 0.5386 0.9362 0.0
H811 H 0.89907 0.54566 -0.00111 0.0
H812 H 0.85518 0.52396 0.02465 0.0
C813 C 0.85313 0.53873 0.17954 0.0
C814 C 0.88167 0.54139 0.11559 0.0
C815 C 0.84967 0.54527 0.211 0.0
C816 C 0.8969 0.53191 0.9486 0.0
C817 C 0.89247 0.53589 0.9848 0.0
C818 C 0.86263 0.52864 0.05001 0.0
C819 C 0.86556 0.54564 0.15797 0.0
C820 C 0.8687 0.53952 0.12067 0.0
C821 C 0.87982 0.52723 0.00326 0.0
C822 C 0.87577 0.531 0.04424 0.0
H823 H 0.87823 0.57596 0.2079 0.0
H824 H 0.88432 0.56459 0.15365 0.0
H825 H 0.84909 0.53144 0.09065 0.0
H826 H 0.86936 0.50095 0.93325 0.0
H827 H 0.8616 0.50792 0.99667 0.0
C828 C 0.57289 0.70955 0.80793 0.0
C829 C 0.56354 0.7109 0.78226 0.0
C830 C 0.56855 0.70019 0.84163 0.0
C831 C 0.55592 0.67464 0.89604 0.0
H832 H 0.52939 0.67393 0.97557 0.0
C833 C 0.54283 0.64359 0.05164 0.0
C834 C 0.52912 0.63577 0.06172 0.0
C835 C 0.54721 0.65383 0.02082 0.0
C836 C 0.53671 0.67391 0.95348 0.0
H837 H 0.54232 0.70329 0.77092 0.0
H838 H 0.53472 0.6869 0.83009 0.0
H839 H 0.53624 0.68869 0.91223 0.0
H840 H 0.50932 0.633 0.04952 0.0
H841 H 0.51691 0.65069 0.99494 0.0
H842 H 0.55626 0.65972 0.93636 0.0
C843 C 0.5454 0.69315 0.82417 0.0
C844 C 0.54061 0.68234 0.9172 0.0
C845 C 0.54974 0.70243 0.7901 0.0
C846 C 0.51997 0.63893 0.04251 0.0
C847 C 0.52433 0.64908 0.01121 0.0
C848 C 0.55195 0.66614 0.93203 0.0
C849 C 0.55478 0.69208 0.8506 0.0
C850 C 0.55029 0.68282 0.88823 0.0
C851 C 0.53795 0.65633 -0.00107 0.0
C852 C 0.54235 0.66571 0.96136 0.0
H853 H 0.58359 0.71598 0.80268 0.0
H854 H 0.576 0.69963 0.86164 0.0
H855 H 0.56328 0.67469 0.87396 0.0
H856 H 0.55011 0.64143 0.06626 0.0
H857 H 0.55783 0.65948 0.01309 0.0
C858 C 0.36425 0.878 0.04561 0.0
C859 C 0.3681 0.89125 0.05756 0.0
C860 C 0.35508 0.87171 0.01175 0.0
C861 C 0.34379 0.8813 0.91366 0.0
H862 H 0.3151 0.84413 0.91022 0.0
C863 C 0.30061 0.86192 0.79182 0.0
C864 C 0.29565 0.84909 0.77379 0.0
C865 C 0.31052 0.86656 0.82367 0.0
C866 C 0.32323 0.85447 0.91048 0.0
H867 H 0.36458 0.90786 0.04638 0.0
H868 H 0.34839 0.89681 0.98837 0.0
H869 H 0.32933 0.85271 0.97479 0.0
H870 H 0.29743 0.83117 0.77376 0.0
H871 H 0.31486 0.83933 0.82994 0.0
H872 H 0.33762 0.88318 0.84989 0.0
C873 C 0.35272 0.89141 0.00402 0.0
C874 C 0.33132 0.85938 0.94747 0.0
C875 C 0.36189 0.89769 0.03751 0.0
C876 C 0.30114 0.84115 0.78703 0.0
C877 C 0.311 0.84575 0.81937 0.0
C878 C 0.33573 0.87641 0.87687 0.0
C879 C 0.34963 0.87859 0.98957 0.0
C880 C 0.34148 0.87294 0.94976 0.0
C881 C 0.31563 0.85843 0.83844 0.0
C882 C 0.32519 0.86304 0.87522 0.0
H883 H 0.36894 0.87284 0.06046 0.0
H884 H 0.35285 0.8618 0.00139 0.0
H885 H 0.35179 0.89169 0.91395 0.0
H886 H 0.29654 0.86825 0.78227 0.0
H887 H 0.31378 0.87632 0.83804 0.0
C888 C 0.12535 0.43431 0.78175 0.0
C889 C 0.13869 0.44013 0.76734 0.0
C890 C 0.12159 0.44117 0.81071 0.0
C891 C 0.13509 0.46458 0.89964 0.0
H892 H 0.1019 0.46546 0.89027 0.0
C893 C 0.11615 0.48684 0.03359 0.0
C894 C 0.1022 0.48027 0.04018 0.0
C895 C 0.12152 0.48303 -0.00077 0.0
C896 C 0.11113 0.46516 0.89365 0.0
H897 H 0.1585 0.45784 0.77052 0.0
H898 H 0.15195 0.4698 0.82211 0.0
H899 H 0.10955 0.45756 0.8292 0.0
H900 H 0.08297 0.46411 0.01798 0.0
H901 H 0.09229 0.45713 0.95944 0.0
H902 H 0.13641 0.47162 0.96473 0.0
C903 C 0.14441 0.45996 0.81064 0.0
C904 C 0.11554 0.46075 0.8585 0.0
C905 C 0.14812 0.45318 0.78094 0.0
C906 C 0.09377 0.46943 0.01336 0.0
C907 C 0.09911 0.46554 0.9795 0.0
C908 C 0.13059 0.46887 0.93507 0.0
C909 C 0.13117 0.45389 0.82636 0.0
C910 C 0.12744 0.4602 0.86142 0.0
C911 C 0.113 0.47252 0.97118 0.0
C912 C 0.11841 0.46894 0.93278 0.0
H913 H 0.1179 0.42425 0.77179 0.0
H914 H 0.11134 0.43622 0.82256 0.0
H915 H 0.14423 0.46411 0.90283 0.0
H916 H 0.12286 0.49529 0.05368 0.0
H917 H 0.13226 0.48865 0.9937 0.0
C918 C 0.12067 0.63437 0.54125 0.0
C919 C 0.1077 0.6286 0.55909 0.0
C920 C 0.12456 0.64385 0.5079 0.0
C921 C 0.11711 0.66824 0.45784 0.0
H922 H 0.13139 0.6617 0.35241 0.0
C923 C 0.12353 0.69911 0.30503 0.0
C924 C 0.13524 0.70334 0.28042 0.0
C925 C 0.11999 0.68939 0.33724 0.0
C926 C 0.12759 0.66379 0.38177 0.0
H927 H 0.08881 0.62854 0.55738 0.0
H928 H 0.09572 0.64534 0.49988 0.0
H929 H 0.12643 0.6468 0.41474 0.0
H930 H 0.1522 0.70042 0.26887 0.0
H931 H 0.14626 0.68368 0.32606 0.0
H932 H 0.11849 0.68534 0.42575 0.0
C933 C 0.10283 0.64246 0.51141 0.0
C934 C 0.12475 0.65525 0.41741 0.0
C935 C 0.09888 0.63285 0.54423 0.0
C936 C 0.14306 0.69725 0.28724 0.0
C937 C 0.13963 0.68765 0.32001 0.0
C938 C 0.1201 0.67687 0.42249 0.0
C939 C 0.11561 0.64787 0.49241 0.0
C940 C 0.11937 0.65734 0.45559 0.0
C941 C 0.12822 0.68385 0.34614 0.0
C942 C 0.12523 0.67467 0.38379 0.0
H943 H 0.12764 0.63122 0.55198 0.0
H944 H 0.13451 0.64796 0.49398 0.0
H945 H 0.11311 0.67015 0.48711 0.0
H946 H 0.11726 0.70357 0.30014 0.0
H947 H 0.11092 0.68642 0.35578 0.0
C948 C 0.36627 0.48986 0.5398 0.0
C949 C 0.37094 0.48092 0.54895 0.0
C950 C 0.35758 0.48743 0.50473 0.0
C951 C 0.35006 0.47065 0.39951 0.0
H952 H 0.317 0.47196 0.40088 0.0
C953 C 0.30799 0.44261 0.27726 0.0
C954 C 0.29994 0.44798 0.26417 0.0
C955 C 0.31824 0.44937 0.30737 0.0
C956 C 0.32637 0.47186 0.39972 0.0
H957 H 0.36938 0.46193 0.53106 0.0
H958 H 0.35422 0.45766 0.47052 0.0
H959 H 0.3309 0.47793 0.46633 0.0
H960 H 0.29674 0.46496 0.27032 0.0
H961 H 0.31479 0.47687 0.32334 0.0
H962 H 0.3455 0.46434 0.33347 0.0
C963 C 0.35746 0.46668 0.48965 0.0
C964 C 0.33426 0.4752 0.43723 0.0
C965 C 0.36605 0.46907 0.52455 0.0
C966 C 0.30286 0.46064 0.27975 0.0
C967 C 0.31308 0.46738 0.31036 0.0
C968 C 0.34225 0.46739 0.36211 0.0
C969 C 0.35355 0.47606 0.47839 0.0
C970 C 0.34593 0.47417 0.4378 0.0
C971 C 0.32063 0.46162 0.3253 0.0
C972 C 0.3301 0.46753 0.36219 0.0
H973 H 0.36992 0.4991 0.55802 0.0
H974 H 0.35463 0.49477 0.49682 0.0
H975 H 0.3592 0.4701 0.39879 0.0
H976 H 0.30594 0.43285 0.26577 0.0
H977 H 0.32376 0.44458 0.31848 0.0
C978 C 0.51481 0.87749 0.55393 0.0
C979 C 0.52387 0.89122 0.56063 0.0
C980 C 0.51753 0.87034 0.52259 0.0
C981 C 0.54456 0.87202 0.45226 0.0
H982 H 0.51576 0.8521 0.37003 0.0
C983 C 0.5557 0.86012 0.28307 0.0
C984 C 0.54795 0.84676 0.26895 0.0
C985 C 0.55179 0.86458 0.31932 0.0
C986 C 0.52384 0.85751 0.39297 0.0
H987 H 0.54321 0.90803 0.54213 0.0
H988 H 0.54797 0.89564 0.48794 0.0
H989 H 0.51122 0.86079 0.43647 0.0
H990 H 0.52957 0.82784 0.27985 0.0
H991 H 0.52266 0.83572 0.34326 0.0
H992 H 0.55726 0.86905 0.4084 0.0
C993 C 0.53879 0.89032 0.50665 0.0
C994 C 0.52124 0.86241 0.43111 0.0
C995 C 0.53604 0.89745 0.53761 0.0
C996 C 0.53573 0.83821 0.28998 0.0
C997 C 0.53179 0.8427 0.32631 0.0
C998 C 0.54716 0.86718 0.41417 0.0
C999 C 0.5294 0.8768 0.49788 0.0
C1000 C 0.53166 0.86997 0.4607 0.0
C1001 C 0.54004 0.85579 0.34218 0.0
C1002 C 0.53691 0.86014 0.38368 0.0
H1003 H 0.50533 0.87245 0.57118 0.0
H1004 H 0.51018 0.85988 0.51686 0.0
H1005 H 0.55274 0.8776 0.47478 0.0
H1006 H 0.56513 0.86697 0.26738 0.0
H1007 H 0.55818 0.87482 0.33025 0.0
C1008 C 0.22423 0.12414 0.63524 0.0
C1009 C 0.23732 0.13422 0.62425 0.0
C1010 C 0.22218 0.11386 0.66394 0.0
C1011 C 0.23971 0.09788 0.71721 0.0
H1012 H 0.21504 0.09152 0.81211 0.0
C1013 C 0.2485 0.08699 0.88949 0.0
C1014 C 0.23778 0.07748 0.91472 0.0
C1015 C 0.24627 0.08997 0.84767 0.0
C1016 C 0.22171 0.0929 0.78529 0.0
H1017 H 0.25852 0.1413 0.63374 0.0
H1018 H 0.25499 0.12358 0.6843 0.0
H1019 H 0.21522 0.10455 0.74938 0.0
H1020 H 0.21639 0.06332 0.91594 0.0
H1021 H 0.21236 0.06892 0.8424 0.0
H1022 H 0.24679 0.08697 0.75461 0.0
C1023 C 0.24628 0.12342 0.67028 0.0
C1024 C 0.22184 0.10038 0.74936 0.0
C1025 C 0.24831 0.13366 0.64162 0.0
C1026 C 0.2248 0.07068 0.89696 0.0
C1027 C 0.22251 0.07388 0.85512 0.0
C1028 C 0.23963 0.09048 0.75321 0.0
C1029 C 0.23319 0.11347 0.68212 0.0
C1030 C 0.23123 0.10341 0.71578 0.0
C1031 C 0.23324 0.08364 0.83033 0.0
C1032 C 0.23101 0.0884 0.78831 0.0
H1033 H 0.21556 0.12427 0.6221 0.0
H1034 H 0.21199 0.10629 0.67217 0.0
H1035 H 0.24683 0.09976 0.69136 0.0
H1036 H 0.25863 0.09232 0.90235 0.0
H1037 H 0.2547 0.09767 0.82957 0.0
C1038 C 0.83921 0.09243 0.67102 0.0
C1039 C 0.84364 0.08691 0.63883 0.0
C1040 C 0.84737 0.099 0.70662 0.0
C1041 C 0.882 0.1171 0.74459 0.0
H1042 H 0.86562 0.107 0.85853 0.0
C1043 C 0.91108 0.14175 0.90414 0.0
C1044 C 0.9039 0.14495 0.93413 0.0
C1045 C 0.90455 0.13382 0.86778 0.0
C1046 C 0.87033 0.11001 0.82694 0.0
H1047 H 0.86017 0.08423 0.6178 0.0
H1048 H 0.87455 0.09596 0.67991 0.0
H1049 H 0.85257 0.0952 0.79473 0.0
H1050 H 0.88436 0.14254 0.9494 0.0
H1051 H 0.87318 0.12909 0.88631 0.0
H1052 H 0.89963 0.13225 0.77677 0.0
C1053 C 0.86474 0.0951 0.67763 0.0
C1054 C 0.86286 0.10324 0.79048 0.0
C1055 C 0.8565 0.08836 0.64229 0.0
C1056 C 0.89017 0.14017 0.92711 0.0
C1057 C 0.88371 0.13235 0.89101 0.0
C1058 C 0.88947 0.124 0.78117 0.0
C1059 C 0.86016 0.10031 0.71038 0.0
C1060 C 0.86853 0.10689 0.74894 0.0
C1061 C 0.89076 0.129 0.86103 0.0
C1062 C 0.88359 0.12072 0.82265 0.0
H1063 H 0.82935 0.09146 0.66914 0.0
H1064 H 0.84368 0.10308 0.73126 0.0
H1065 H 0.88658 0.12009 0.71281 0.0
H1066 H 0.92169 0.14533 0.9088 0.0
H1067 H 0.91024 0.13137 0.84526 0.0
C1068 C 0.89745 0.76285 0.63568 0.0
C1069 C 0.89827 0.75112 0.63107 0.0
C1070 C 0.88922 0.76366 0.66751 0.0
C1071 C 0.86085 0.74262 0.74122 0.0
H1072 H 0.87538 0.77492 0.81145 0.0
C1073 C 0.84243 0.74271 0.91263 0.0
C1074 C 0.83989 0.753 0.92493 0.0
C1075 C 0.84849 0.74325 0.87305 0.0
C1076 C 0.87111 0.76594 0.79162 0.0
H1077 H 0.89107 0.73099 0.65574 0.0
H1078 H 0.87689 0.73244 0.71175 0.0
H1079 H 0.88799 0.77424 0.74857 0.0
H1080 H 0.84184 0.77204 0.90566 0.0
H1081 H 0.85281 0.77313 0.83602 0.0
H1082 H 0.84424 0.73415 0.78532 0.0
C1083 C 0.88239 0.74096 0.69034 0.0
C1084 C 0.87831 0.76553 0.75563 0.0
C1085 C 0.89059 0.74014 0.65845 0.0
C1086 C 0.84368 0.76397 0.89691 0.0
C1087 C 0.84995 0.7646 0.85724 0.0
C1088 C 0.85372 0.74301 0.77726 0.0
C1089 C 0.88167 0.75275 0.69539 0.0
C1090 C 0.8734 0.75374 0.73067 0.0
C1091 C 0.85228 0.75416 0.8449 0.0
C1092 C 0.85893 0.75455 0.80339 0.0
H1093 H 0.90323 0.77147 0.61487 0.0
H1094 H 0.88877 0.77282 0.67024 0.0
H1095 H 0.85665 0.7335 0.72208 0.0
H1096 H 0.83963 0.73411 0.93348 0.0
H1097 H 0.85038 0.73518 0.8647 0.0
C1098 C 0.15566 0.26039 0.81521 0.0
C1099 C 0.15225 0.24988 0.84476 0.0
C1100 C 0.14682 0.25901 0.78196 0.0
C1101 C 0.11773 0.23341 0.71965 0.0
H1102 H 0.1152 0.26442 0.68374 0.0
C1103 C 0.08158 0.23247 0.58496 0.0
C1104 C 0.08801 0.24266 0.5538 0.0
C1105 C 0.08839 0.23259 0.62279 0.0
C1106 C 0.11581 0.25568 0.69348 0.0
H1107 H 0.13688 0.22974 0.86317 0.0
H1108 H 0.1213 0.22743 0.80567 0.0
H1109 H 0.12895 0.26618 0.74622 0.0
H1110 H 0.10655 0.26089 0.5375 0.0
H1111 H 0.11828 0.26115 0.60336 0.0
H1112 H 0.10451 0.22296 0.66662 0.0
C1113 C 0.1309 0.23664 0.8076 0.0
C1114 C 0.12374 0.2567 0.72908 0.0
C1115 C 0.1398 0.23799 0.84067 0.0
C1116 C 0.10132 0.25289 0.56091 0.0
C1117 C 0.10802 0.2531 0.59874 0.0
C1118 C 0.10968 0.23237 0.6842 0.0
C1119 C 0.13432 0.24712 0.77779 0.0
C1120 C 0.12503 0.24567 0.74205 0.0
C1121 C 0.10162 0.24302 0.63015 0.0
C1122 C 0.10889 0.24358 0.6703 0.0
H1123 H 0.16522 0.26964 0.81746 0.0
H1124 H 0.14989 0.26719 0.75909 0.0
H1125 H 0.11859 0.22475 0.72851 0.0
H1126 H 0.07132 0.22447 0.58023 0.0
H1127 H 0.08325 0.22471 0.64663 0.0
C1128 C 0.77181 0.86546 0.56969 0.0
C1129 C 0.77068 0.85281 0.57475 0.0
C1130 C 0.77238 0.87298 0.60581 0.0
C1131 C 0.77644 0.87609 0.72494 0.0
H1132 H 0.75195 0.88996 0.71389 0.0
C1133 C 0.77093 0.90925 0.85545 0.0
C1134 C 0.7578 0.9065 0.86446 0.0
C1135 C 0.77337 0.90292 0.82087 0.0
C1136 C 0.75876 0.88608 0.71761 0.0
H1137 H 0.77015 0.8384 0.62118 0.0
H1138 H 0.77088 0.85149 0.68489 0.0
H1139 H 0.75551 0.87888 0.65252 0.0
H1140 H 0.73692 0.89487 0.8449 0.0
H1141 H 0.74117 0.88374 0.78469 0.0
H1142 H 0.77935 0.88303 0.79069 0.0
C1143 C 0.77147 0.85566 0.65291 0.0
C1144 C 0.76096 0.8799 0.68225 0.0
C1145 C 0.77104 0.84816 0.61655 0.0
C1146 C 0.74715 0.89725 0.8385 0.0
C1147 C 0.74959 0.89092 0.80396 0.0
C1148 C 0.77424 0.88231 0.76046 0.0
C1149 C 0.77166 0.86792 0.64778 0.0
C1150 C 0.76982 0.87483 0.68546 0.0
C1151 C 0.76273 0.89373 0.79468 0.0
C1152 C 0.76531 0.8873 0.75715 0.0
H1153 H 0.77175 0.86935 0.53772 0.0
H1154 H 0.77289 0.88256 0.60085 0.0
H1155 H 0.78334 0.87231 0.72829 0.0
H1156 H 0.77933 0.91634 0.875 0.0
H1157 H 0.78362 0.90539 0.81419 0.0
C1158 C 0.15253 0.91763 0.59962 0.0
C1159 C 0.15401 0.9099 0.56709 0.0
C1160 C 0.14529 0.91145 0.63746 0.0
C1161 C 0.1345 0.88124 0.70395 0.0
H1162 H 0.10597 0.88714 0.74509 0.0
C1163 C 0.0944 0.84492 0.82287 0.0
C1164 C 0.09015 0.85034 0.8559 0.0
C1165 C 0.10276 0.85313 0.78974 0.0
C1166 C 0.11404 0.88553 0.73441 0.0
H1167 H 0.14902 0.8897 0.54839 0.0
H1168 H 0.13654 0.87905 0.61401 0.0
H1169 H 0.11994 0.90028 0.68391 0.0
H1170 H 0.09124 0.86857 0.88024 0.0
H1171 H 0.10599 0.88297 0.82258 0.0
H1172 H 0.12864 0.86647 0.75395 0.0
C1173 C 0.14102 0.88984 0.61062 0.0
C1174 C 0.12203 0.89306 0.69944 0.0
C1175 C 0.1481 0.89595 0.5729 0.0
C1176 C 0.09435 0.86412 0.85509 0.0
C1177 C 0.10274 0.87235 0.82199 0.0
C1178 C 0.12659 0.87378 0.73891 0.0
C1179 C 0.13961 0.89751 0.6434 0.0
C1180 C 0.13213 0.89076 0.68334 0.0
C1181 C 0.10709 0.86695 0.78906 0.0
C1182 C 0.11609 0.87563 0.75397 0.0
H1183 H 0.15699 0.9284 0.59589 0.0
H1184 H 0.14434 0.91758 0.66235 0.0
H1185 H 0.14239 0.87943 0.69261 0.0
H1186 H 0.09127 0.83432 0.82257 0.0
H1187 H 0.10573 0.84861 0.7644 0.0
C1188 C 0.77112 0.92033 0.1099 0.0
C1189 C 0.76494 0.91233 0.07331 0.0
C1190 C 0.77417 0.91489 0.14589 0.0
C1191 C 0.77644 0.88494 0.18085 0.0
H1192 H 0.76614 0.89197 0.29335 0.0
C1193 C 0.75907 0.84775 0.32345 0.0
C1194 C 0.76542 0.85285 0.36341 0.0
C1195 C 0.76137 0.85644 0.28871 0.0
C1196 C 0.76921 0.89006 0.26217 0.0
H1197 H 0.75749 0.89255 0.045 0.0
H1198 H 0.76242 0.88307 0.1074 0.0
H1199 H 0.76666 0.9052 0.23061 0.0
H1200 H 0.77898 0.87096 0.39881 0.0
H1201 H 0.78266 0.8862 0.33818 0.0
H1202 H 0.77816 0.86922 0.21218 0.0
C1203 C 0.76523 0.89358 0.10848 0.0
C1204 C 0.7696 0.89768 0.2263 0.0
C1205 C 0.76226 0.899 0.07272 0.0
C1206 C 0.77399 0.86678 0.36823 0.0
C1207 C 0.77608 0.87549 0.33374 0.0
C1208 C 0.77582 0.87719 0.21651 0.0
C1209 C 0.77106 0.90138 0.14574 0.0
C1210 C 0.77286 0.89494 0.18497 0.0
C1211 C 0.76985 0.87037 0.29367 0.0
C1212 C 0.77191 0.87949 0.25719 0.0
H1213 H 0.77332 0.93066 0.1111 0.0
H1214 H 0.77878 0.9212 0.17397 0.0
H1215 H 0.77932 0.88279 0.14971 0.0
H1216 H 0.75245 0.83706 0.31893 0.0
H1217 H 0.75637 0.8523 0.25811 0.0
C1218 C 0.09703 0.85023 0.07932 0.0
C1219 C 0.08386 0.84737 0.0707 0.0
C1220 C 0.10337 0.85646 0.11781 0.0
C1221 C 0.10487 0.87894 0.20214 0.0
H1222 H 0.12398 0.86432 0.26466 0.0
C1223 C 0.13691 0.90426 0.35538 0.0
C1224 C 0.14935 0.90471 0.35731 0.0
C1225 C 0.1275 0.89661 0.32359 0.0
C1226 C 0.11877 0.86858 0.24744 0.0
H1227 H 0.06703 0.84896 0.09528 0.0
H1228 H 0.07837 0.86024 0.16304 0.0
H1229 H 0.10972 0.85198 0.20349 0.0
H1230 H 0.16179 0.8977 0.32735 0.0
H1231 H 0.14552 0.88458 0.27145 0.0
H1232 H 0.11434 0.89581 0.24509 0.0
C1233 C 0.08365 0.85749 0.13978 0.0
C1234 C 0.11055 0.86148 0.21263 0.0
C1235 C 0.07719 0.85105 0.10121 0.0
C1236 C 0.15226 0.89748 0.32676 0.0
C1237 C 0.14289 0.88988 0.29496 0.0
C1238 C 0.11318 0.88611 0.23692 0.0
C1239 C 0.09675 0.8601 0.14849 0.0
C1240 C 0.1038 0.86674 0.18901 0.0
C1241 C 0.13037 0.88929 0.29316 0.0
C1242 C 0.12048 0.88115 0.25921 0.0
H1243 H 0.10245 0.84753 0.05645 0.0
H1244 H 0.11355 0.85856 0.12342 0.0
H1245 H 0.09981 0.88323 0.18421 0.0
H1246 H 0.13439 0.90972 0.37864 0.0
H1247 H 0.11791 0.89628 0.32324 0.0
C1248 C 0.15024 0.2571 0.05834 0.0
C1249 C 0.15432 0.24762 0.05073 0.0
C1250 C 0.14287 0.25625 0.09525 0.0
C1251 C 0.12043 0.23329 0.17799 0.0
H1252 H 0.13099 0.26628 0.24134 0.0
C1253 C 0.09411 0.23474 0.33641 0.0
C1254 C 0.09173 0.24554 0.34115 0.0
C1255 C 0.10203 0.23455 0.30233 0.0
C1256 C 0.12782 0.257 0.22378 0.0
H1257 H 0.15369 0.22964 0.07538 0.0
H1258 H 0.14061 0.22808 0.14036 0.0
H1259 H 0.14433 0.26652 0.17957 0.0
H1260 H 0.09562 0.26453 0.31379 0.0
H1261 H 0.10927 0.26413 0.25385 0.0
H1262 H 0.10375 0.22382 0.22173 0.0
C1263 C 0.14318 0.23618 0.11751 0.0
C1264 C 0.13549 0.25714 0.18852 0.0
C1265 C 0.15068 0.23709 0.0805 0.0
C1266 C 0.09735 0.25611 0.31105 0.0
C1267 C 0.10523 0.25591 0.27689 0.0
C1268 C 0.1127 0.23316 0.21325 0.0
C1269 C 0.13936 0.24586 0.1254 0.0
C1270 C 0.13177 0.24534 0.16488 0.0
C1271 C 0.10771 0.24516 0.27225 0.0
C1272 C 0.11622 0.24507 0.23614 0.0
H1273 H 0.15284 0.26531 0.03594 0.0
H1274 H 0.13987 0.26371 0.1001 0.0
H1275 H 0.11729 0.22407 0.16011 0.0
H1276 H 0.08993 0.22645 0.35924 0.0
H1277 H 0.10387 0.2262 0.29995 0.0
C1278 C 0.85953 0.76206 0.13699 0.0
C1279 C 0.84727 0.75002 0.13197 0.0
C1280 C 0.8687 0.76318 0.16872 0.0
C1281 C 0.87723 0.74279 0.24106 0.0
H1282 H 0.89373 0.77486 0.3126 0.0
C1283 C 0.89635 0.74328 0.41185 0.0
C1284 C 0.90886 0.75405 0.42453 0.0
C1285 C 0.89066 0.74358 0.37237 0.0
C1286 C 0.88939 0.76595 0.2924 0.0
H1287 H 0.835 0.72966 0.15581 0.0
H1288 H 0.85088 0.73165 0.21167 0.0
H1289 H 0.88014 0.77373 0.25013 0.0
H1290 H 0.92523 0.77365 0.40596 0.0
H1291 H 0.91506 0.77429 0.3365 0.0
H1292 H 0.88606 0.73483 0.28435 0.0
C1293 C 0.85355 0.74017 0.19066 0.0
C1294 C 0.8816 0.76529 0.25664 0.0
C1295 C 0.8444 0.73905 0.15886 0.0
C1296 C 0.91557 0.76522 0.39692 0.0
C1297 C 0.90977 0.76559 0.35736 0.0
C1298 C 0.88494 0.74343 0.27686 0.0
C1299 C 0.86578 0.75227 0.19609 0.0
C1300 C 0.87518 0.75356 0.2312 0.0
C1301 C 0.89729 0.75471 0.34469 0.0
C1302 C 0.89081 0.75488 0.30346 0.0
H1303 H 0.86203 0.77067 0.11656 0.0
H1304 H 0.87809 0.77257 0.17175 0.0
H1305 H 0.87268 0.73374 0.22153 0.0
H1306 H 0.89092 0.73452 0.43239 0.0
H1307 H 0.88094 0.73516 0.36378 0.0
C1308 C 0.24336 0.09467 0.17503 0.0
C1309 C 0.24049 0.09555 0.13132 0.0
C1310 C 0.23931 0.10039 0.20726 0.0
C1311 C 0.23243 0.12672 0.23273 0.0
H1312 H 0.21289 0.10376 0.32996 0.0
C1313 C 0.22493 0.14825 0.39359 0.0
C1314 C 0.22931 0.14386 0.42927 0.0
C1315 C 0.22258 0.14164 0.35356 0.0
C1316 C 0.21826 0.11029 0.30295 0.0
H1317 H 0.23156 0.10347 0.08678 0.0
H1318 H 0.22484 0.11394 0.14365 0.0
H1319 H 0.21683 0.09398 0.26531 0.0
H1320 H 0.23392 0.12877 0.45205 0.0
H1321 H 0.22985 0.11733 0.38311 0.0
H1322 H 0.2347 0.14319 0.27163 0.0
C1323 C 0.23004 0.10861 0.15265 0.0
C1324 C 0.22049 0.10469 0.26604 0.0
C1325 C 0.23389 0.10265 0.12029 0.0
C1326 C 0.2306 0.1324 0.42503 0.0
C1327 C 0.22814 0.12576 0.38552 0.0
C1328 C 0.23032 0.13238 0.27002 0.0
C1329 C 0.2325 0.10727 0.19642 0.0
C1330 C 0.22803 0.11292 0.23136 0.0
C1331 C 0.22438 0.13044 0.34906 0.0
C1332 C 0.22371 0.12427 0.3062 0.0
H1333 H 0.2484 0.08923 0.1845 0.0
H1334 H 0.24148 0.0994 0.24083 0.0
H1335 H 0.23826 0.13324 0.20626 0.0
H1336 H 0.22391 0.1571 0.3961 0.0
H1337 H 0.21966 0.14544 0.32598 0.0
C1338 C 0.85456 0.08914 0.42841 0.0
C1339 C 0.84238 0.07688 0.42751 0.0
C1340 C 0.86165 0.09477 0.39024 0.0
C1341 C 0.85597 0.0968 0.27612 0.0
H1342 H 0.89487 0.1149 0.26897 0.0
C1343 C 0.88739 0.14038 0.15761 0.0
C1344 C 0.8983 0.14042 0.13692 0.0
C1345 C 0.88013 0.13084 0.18961 0.0
C1346 C 0.88399 0.10977 0.27023 0.0
H1347 H 0.82826 0.06063 0.38645 0.0
H1348 H 0.84065 0.07067 0.31904 0.0
H1349 H 0.88338 0.10067 0.33144 0.0
H1350 H 0.91006 0.13043 0.1329 0.0
H1351 H 0.89745 0.11387 0.18896 0.0
H1352 H 0.85662 0.10623 0.21547 0.0
C1353 C 0.84469 0.07584 0.34948 0.0
C1354 C 0.87744 0.10169 0.30604 0.0
C1355 C 0.83766 0.07007 0.38794 0.0
C1356 C 0.90172 0.13067 0.14842 0.0
C1357 C 0.89453 0.12121 0.18056 0.0
C1358 C 0.86254 0.10499 0.24045 0.0
C1359 C 0.85663 0.08834 0.35029 0.0
C1360 C 0.86339 0.09532 0.30969 0.0
C1361 C 0.88372 0.12125 0.20166 0.0
C1362 C 0.87663 0.11172 0.23754 0.0
H1363 H 0.85842 0.09458 0.45854 0.0
H1364 H 0.87076 0.10448 0.39177 0.0
H1365 H 0.84513 0.0921 0.27835 0.0
H1366 H 0.88452 0.14776 0.14931 0.0
H1367 H 0.87192 0.13118 0.20571 0.0
C1368 C 0.90229 0.43234 0.24276 0.0
C1369 C 0.89747 0.41857 0.24912 0.0
C1370 C 0.90228 0.43729 0.20165 0.0
C1371 C 0.8878 0.43088 0.09557 0.0
H1372 H 0.92315 0.4597 0.06204 0.0
C1373 C 0.89761 0.46187 0.93698 0.0
C1374 C 0.9054 0.47584 0.94312 0.0
C1375 C 0.89656 0.45302 0.96998 0.0
C1376 C 0.91322 0.45168 0.07089 0.0
H1377 H 0.88805 0.39903 0.21799 0.0
H1378 H 0.88781 0.40781 0.14532 0.0
H1379 H 0.92048 0.44726 0.12881 0.0
H1380 H 0.91831 0.49152 0.98814 0.0
H1381 H 0.91643 0.47619 0.04551 0.0
H1382 H 0.88043 0.43578 0.0386 0.0
C1383 C 0.89171 0.41469 0.17249 0.0
C1384 C 0.91171 0.44454 0.10893 0.0
C1385 C 0.89183 0.40969 0.21391 0.0
C1386 C 0.91228 0.4808 0.9824 0.0
C1387 C 0.91126 0.472 0.01517 0.0
C1388 C 0.88929 0.43812 0.05743 0.0
C1389 C 0.89735 0.42858 0.16601 0.0
C1390 C 0.89895 0.43438 0.12227 0.0
C1391 C 0.90336 0.45802 0.00946 0.0
C1392 C 0.90196 0.44889 0.04556 0.0
H1393 H 0.90659 0.43942 0.26928 0.0
H1394 H 0.90646 0.44802 0.19746 0.0
H1395 H 0.87787 0.42307 0.10539 0.0
H1396 H 0.89219 0.45778 0.90697 0.0
H1397 H 0.89045 0.4423 0.96462 0.0
C1398 C 0.55975 0.47311 0.26782 0.0
C1399 C 0.57375 0.47867 0.26966 0.0
C1400 C 0.55244 0.46516 0.23283 0.0
C1401 C 0.556 0.45862 0.11849 0.0
H1402 H 0.5202 0.42815 0.13612 0.0
C1403 C 0.52315 0.42423 0.97902 0.0
C1404 C 0.50966 0.42112 0.97878 0.0
C1405 C 0.53138 0.43073 0.01453 0.0
C1406 C 0.53015 0.43669 0.13073 0.0
H1407 H 0.59108 0.48008 0.23675 0.0
H1408 H 0.57821 0.46596 0.17537 0.0
H1409 H 0.53411 0.43989 0.19868 0.0
H1410 H 0.49421 0.42238 0.01531 0.0
H1411 H 0.50862 0.43373 0.0776 0.0
H1412 H 0.55197 0.45537 0.05041 0.0
C1413 C 0.57294 0.46792 0.20092 0.0
C1414 C 0.53812 0.4434 0.1665 0.0
C1415 C 0.58029 0.47592 0.23609 0.0
C1416 C 0.50456 0.42465 0.01467 0.0
C1417 C 0.51278 0.43106 0.05037 0.0
C1418 C 0.54804 0.45183 0.08267 0.0
C1419 C 0.55893 0.46252 0.19884 0.0
C1420 C 0.55104 0.45459 0.16081 0.0
C1421 C 0.52627 0.43415 0.05063 0.0
C1422 C 0.53496 0.44094 0.08848 0.0
H1423 H 0.55441 0.47507 0.29312 0.0
H1424 H 0.54171 0.46139 0.23193 0.0
H1425 H 0.56584 0.4673 0.11299 0.0
H1426 H 0.52735 0.42162 0.95176 0.0
H1427 H 0.54171 0.43289 0.01402 0.0
C1428 C 0.56417 0.07615 0.01021 0.0
C1429 C 0.56964 0.08646 0.97917 0.0
C1430 C 0.55648 0.07666 0.04444 0.0
C1431 C 0.54947 0.10022 0.10555 0.0
H1432 H 0.51835 0.06731 0.14509 0.0
C1433 C 0.51226 0.09839 0.23709 0.0
C1434 C 0.50901 0.0886 0.26933 0.0
C1435 C 0.51949 0.09858 0.20027 0.0
C1436 C 0.52705 0.07657 0.13447 0.0
H1437 H 0.57129 0.10534 0.95925 0.0
H1438 H 0.55764 0.1061 0.01847 0.0
H1439 H 0.5312 0.06667 0.08317 0.0
H1440 H 0.51083 0.0714 0.2886 0.0
H1441 H 0.52333 0.07171 0.22454 0.0
H1442 H 0.54519 0.11009 0.15698 0.0
C1443 C 0.55948 0.09775 0.01693 0.0
C1444 C 0.53444 0.0762 0.09914 0.0
C1445 C 0.56725 0.09727 0.98286 0.0
C1446 C 0.51316 0.07907 0.26427 0.0
C1447 C 0.52025 0.07918 0.22747 0.0
C1448 C 0.54199 0.10059 0.14077 0.0
C1449 C 0.55402 0.08746 0.04816 0.0
C1450 C 0.54584 0.08799 0.0846 0.0
C1451 C 0.52343 0.08888 0.195 0.0
C1452 C 0.53083 0.08874 0.15589 0.0
H1453 H 0.56592 0.06773 0.00825 0.0
H1454 H 0.55261 0.06868 0.06834 0.0
H1455 H 0.55828 0.10946 0.0955 0.0
H1456 H 0.50918 0.10585 0.24022 0.0
H1457 H 0.52179 0.10614 0.17559 0.0
C1458 C 0.76753 0.58557 0.9079 0.0
C1459 C 0.75461 0.57509 0.8973 0.0
C1460 C 0.77363 0.58527 0.9465 0.0
C1461 C 0.77488 0.56301 0.02709 0.0
H1462 H 0.79328 0.59565 0.09545 0.0
C1463 C 0.8051 0.56669 0.18171 0.0
C1464 C 0.81751 0.57858 0.18651 0.0
C1465 C 0.79606 0.56568 0.14962 0.0
C1466 C 0.78828 0.58649 0.07658 0.0
H1467 H 0.73796 0.55602 0.91859 0.0
H1468 H 0.74886 0.55538 0.98645 0.0
H1469 H 0.77963 0.59472 0.03368 0.0
H1470 H 0.83025 0.59872 0.16154 0.0
H1471 H 0.81463 0.59689 0.10498 0.0
H1472 H 0.78392 0.55492 0.06901 0.0
C1473 C 0.75415 0.56384 0.96467 0.0
C1474 C 0.78041 0.58594 0.04138 0.0
C1475 C 0.74792 0.56422 0.92603 0.0
C1476 C 0.82073 0.58945 0.1587 0.0
C1477 C 0.81172 0.58842 0.12651 0.0
C1478 C 0.78284 0.56358 0.06222 0.0
C1479 C 0.76703 0.57444 0.97531 0.0
C1480 C 0.77387 0.5743 0.01575 0.0
C1481 C 0.79928 0.57653 0.12161 0.0
C1482 C 0.78986 0.57544 0.08677 0.0
H1483 H 0.77294 0.5941 0.88646 0.0
H1484 H 0.78364 0.59347 0.95355 0.0
H1485 H 0.77002 0.55395 0.00763 0.0
H1486 H 0.80233 0.55817 0.20285 0.0
H1487 H 0.7865 0.55644 0.14701 0.0
C1488 C 0.44125 0.17837 0.95271 0.0
C1489 C 0.44118 0.18617 0.91772 0.0
C1490 C 0.44276 0.18325 0.99516 0.0
C1491 C 0.45207 0.21389 0.06009 0.0
H1492 H 0.422 0.18997 0.13312 0.0
C1493 C 0.43993 0.23321 0.21539 0.0
C1494 C 0.42648 0.23017 0.21766 0.0
C1495 C 0.44372 0.22632 0.18657 0.0
C1496 C 0.43052 0.19673 0.11328 0.0
H1497 H 0.44364 0.20545 0.899 0.0
H1498 H 0.44643 0.214 0.97262 0.0
H1499 H 0.42643 0.18142 0.06637 0.0
H1500 H 0.40634 0.21709 0.1934 0.0
H1501 H 0.41296 0.20516 0.14274 0.0
H1502 H 0.45565 0.22939 0.1054 0.0
C1503 C 0.4453 0.20415 0.96763 0.0
C1504 C 0.43315 0.1918 0.07533 0.0
C1505 C 0.44362 0.19923 0.92545 0.0
C1506 C 0.41678 0.21966 0.19225 0.0
C1507 C 0.42057 0.21276 0.16348 0.0
C1508 C 0.44946 0.2188 0.09806 0.0
C1509 C 0.44444 0.19606 0.00303 0.0
C1510 C 0.44364 0.20047 0.04753 0.0
C1511 C 0.43413 0.21625 0.15954 0.0
C1512 C 0.43835 0.21039 0.1242 0.0
H1513 H 0.43935 0.16824 0.94755 0.0
H1514 H 0.44213 0.17684 0.02189 0.0
H1515 H 0.46029 0.22075 0.03943 0.0
H1516 H 0.44761 0.24121 0.23484 0.0
H1517 H 0.45422 0.22913 0.1846 0.0
C1518 C 0.81712 0.23303 0.90705 0.0
C1519 C 0.82091 0.24645 0.89814 0.0
C1520 C 0.81051 0.22696 0.94544 0.0
C1521 C 0.78858 0.2273 0.02873 0.0
H1522 H 0.8012 0.2069 0.09409 0.0
C1523 C 0.7618 0.19762 0.18408 0.0
C1524 C 0.76048 0.18484 0.1883 0.0
C1525 C 0.76992 0.20643 0.15159 0.0
C1526 C 0.79748 0.21246 0.07604 0.0
H1527 H 0.82057 0.26402 0.92203 0.0
H1528 H 0.80861 0.25318 0.98951 0.0
H1529 H 0.81406 0.22022 0.03189 0.0
H1530 H 0.7665 0.17118 0.16182 0.0
H1531 H 0.78042 0.18637 0.10452 0.0
H1532 H 0.7717 0.21913 0.07181 0.0
C1533 C 0.81093 0.24748 0.9666 0.0
C1534 C 0.80489 0.22014 0.04063 0.0
C1535 C 0.81776 0.25366 0.92819 0.0
C1536 C 0.76739 0.181 0.15945 0.0
C1537 C 0.77545 0.18976 0.12684 0.0
C1538 C 0.78107 0.21951 0.06403 0.0
C1539 C 0.8074 0.23412 0.97566 0.0
C1540 C 0.80037 0.2274 0.01615 0.0
C1541 C 0.77684 0.20259 0.12259 0.0
C1542 C 0.78531 0.21178 0.08751 0.0
H1543 H 0.81941 0.22721 0.88454 0.0
H1544 H 0.80771 0.21658 0.95137 0.0
H1545 H 0.78485 0.23275 0.01012 0.0
H1546 H 0.75661 0.20087 0.20603 0.0
H1547 H 0.77089 0.21628 0.14949 0.0
C1548 C 0.4138 0.23986 0.43879 0.0
C1549 C 0.42439 0.25024 0.41542 0.0
C1550 C 0.41576 0.237 0.4811 0.0
C1551 C 0.44101 0.2371 0.54945 0.0
H1552 H 0.41392 0.22749 0.63883 0.0
C1553 C 0.4411 0.2091 0.70474 0.0
C1554 C 0.42852 0.19808 0.71571 0.0
C1555 C 0.44205 0.21855 0.67425 0.0
C1556 C 0.42158 0.23012 0.61424 0.0
H1557 H 0.44526 0.26602 0.41804 0.0
H1558 H 0.44884 0.26068 0.49244 0.0
H1559 H 0.41308 0.23906 0.57355 0.0
H1560 H 0.40707 0.18846 0.70433 0.0
H1561 H 0.40871 0.20472 0.65063 0.0
H1562 H 0.44904 0.22744 0.58869 0.0
C1563 C 0.43899 0.25491 0.47785 0.0
C1564 C 0.42114 0.23682 0.57706 0.0
C1565 C 0.43694 0.25797 0.43552 0.0
C1566 C 0.4169 0.19686 0.69655 0.0
C1567 C 0.41784 0.20626 0.66603 0.0
C1568 C 0.4414 0.2303 0.58653 0.0
C1569 C 0.42841 0.24432 0.50082 0.0
C1570 C 0.43058 0.23995 0.5437 0.0
C1571 C 0.43044 0.21714 0.65412 0.0
C1572 C 0.4314 0.22632 0.61863 0.0
H1573 H 0.404 0.2338 0.42413 0.0
H1574 H 0.40748 0.22866 0.49779 0.0
H1575 H 0.44833 0.23929 0.52401 0.0
H1576 H 0.45023 0.21033 0.71921 0.0
H1577 H 0.45188 0.22688 0.66614 0.0
C1578 C 0.8212 0.23381 0.65626 0.0
C1579 C 0.81722 0.24006 0.68726 0.0
C1580 C 0.81237 0.226 0.62347 0.0
C1581 C 0.78182 0.22004 0.56493 0.0
H1582 H 0.78191 0.18795 0.52654 0.0
C1583 C 0.74699 0.18398 0.42901 0.0
C1584 C 0.75406 0.18119 0.39731 0.0
C1585 C 0.75346 0.19068 0.46727 0.0
C1586 C 0.78177 0.19688 0.53701 0.0
H1587 H 0.80088 0.243 0.70859 0.0
H1588 H 0.78536 0.22915 0.65175 0.0
H1589 H 0.7956 0.20047 0.58849 0.0
H1590 H 0.77338 0.1833 0.38052 0.0
H1591 H 0.7845 0.19479 0.44694 0.0
H1592 H 0.76797 0.21636 0.51298 0.0
C1593 C 0.79537 0.23046 0.65231 0.0
C1594 C 0.78966 0.2041 0.57229 0.0
C1595 C 0.80423 0.23833 0.68497 0.0
C1596 C 0.76765 0.18528 0.40434 0.0
C1597 C 0.77401 0.19178 0.44251 0.0
C1598 C 0.77382 0.21273 0.52973 0.0
C1599 C 0.79933 0.22419 0.62118 0.0
C1600 C 0.79003 0.21593 0.58604 0.0
C1601 C 0.76699 0.19447 0.47447 0.0
C1602 C 0.774 0.20127 0.51488 0.0
H1603 H 0.83118 0.23503 0.65712 0.0
H1604 H 0.81584 0.22153 0.59953 0.0
H1605 H 0.78194 0.22916 0.57451 0.0
H1606 H 0.73651 0.18093 0.42435 0.0
H1607 H 0.74785 0.19266 0.49153 0.0
C1608 C 0.7643 0.56689 0.68361 0.0
C1609 C 0.76296 0.57833 0.6883 0.0
C1610 C 0.77241 0.56631 0.6509 0.0
C1611 C 0.79973 0.58785 0.57445 0.0
H1612 H 0.78658 0.55492 0.50824 0.0
C1613 C 0.81917 0.58674 0.40488 0.0
C1614 C 0.82242 0.57674 0.39544 0.0
C1615 C 0.81269 0.58636 0.44345 0.0
C1616 C 0.79046 0.56411 0.52688 0.0
H1617 H 0.76904 0.59813 0.66266 0.0
H1618 H 0.78297 0.59703 0.60501 0.0
H1619 H 0.77376 0.55549 0.57066 0.0
H1620 H 0.82129 0.55839 0.41866 0.0
H1621 H 0.80963 0.55761 0.48641 0.0
H1622 H 0.81616 0.59658 0.52967 0.0
C1623 C 0.77799 0.5886 0.62708 0.0
C1624 C 0.78314 0.56445 0.56264 0.0
C1625 C 0.76994 0.58921 0.65992 0.0
C1626 C 0.8189 0.56622 0.42519 0.0
C1627 C 0.81223 0.56576 0.46378 0.0
C1628 C 0.80696 0.58753 0.53858 0.0
C1629 C 0.7793 0.57714 0.62212 0.0
C1630 C 0.78758 0.57641 0.58634 0.0
C1631 C 0.8092 0.57592 0.47335 0.0
C1632 C 0.80227 0.57573 0.514 0.0
H1633 H 0.75907 0.55837 0.70519 0.0
H1634 H 0.77334 0.55741 0.64833 0.0
H1635 H 0.80359 0.59713 0.59259 0.0
H1636 H 0.82175 0.59497 0.38262 0.0
H1637 H 0.81029 0.59421 0.44971 0.0
C1638 C 0.57983 0.09914 0.73666 0.0
C1639 C 0.5733 0.08908 0.76817 0.0
C1640 C 0.57286 0.09942 0.6998 0.0
C1641 C 0.54361 0.07743 0.63258 0.0
H1642 H 0.54451 0.1102 0.59649 0.0
C1643 C 0.50535 0.07672 0.51129 0.0
C1644 C 0.50995 0.08706 0.48042 0.0
C1645 C 0.51372 0.07734 0.54508 0.0
C1646 C 0.5443 0.101 0.60574 0.0
H1647 H 0.55439 0.0715 0.78602 0.0
H1648 H 0.54233 0.07197 0.72196 0.0
H1649 H 0.55841 0.11077 0.6573 0.0
H1650 H 0.5269 0.10615 0.4605 0.0
H1651 H 0.5416 0.10712 0.51905 0.0
H1652 H 0.52956 0.06763 0.58126 0.0
C1653 C 0.55282 0.07958 0.72546 0.0
C1654 C 0.55226 0.10134 0.64055 0.0
C1655 C 0.55971 0.07937 0.76228 0.0
C1656 C 0.52306 0.09805 0.48398 0.0
C1657 C 0.53147 0.09864 0.51764 0.0
C1658 C 0.53573 0.0771 0.5977 0.0
C1659 C 0.55931 0.08955 0.69374 0.0
C1660 C 0.55181 0.08951 0.6547 0.0
C1661 C 0.5269 0.08828 0.54853 0.0
C1662 C 0.53582 0.08883 0.58428 0.0
H1663 H 0.5903 0.10675 0.74044 0.0
H1664 H 0.5781 0.10719 0.67571 0.0
H1665 H 0.54325 0.0682 0.6424 0.0
H1666 H 0.49526 0.06816 0.50944 0.0
H1667 H 0.50981 0.0693 0.56877 0.0
C1668 C 0.90932 0.44306 0.46382 0.0
C1669 C 0.89958 0.42981 0.45324 0.0
C1670 C 0.90627 0.45049 0.49288 0.0
C1671 C 0.88515 0.44616 0.58558 0.0
H1672 H 0.89455 0.48314 0.56467 0.0
C1673 C 0.87934 0.47605 0.72241 0.0
C1674 C 0.89051 0.48889 0.72853 0.0
C1675 C 0.87752 0.46933 0.68305 0.0
C1676 C 0.89192 0.47285 0.57114 0.0
H1677 H 0.87903 0.41397 0.46439 0.0
H1678 H 0.87383 0.42687 0.51592 0.0
H1679 H 0.89785 0.47037 0.50735 0.0
H1680 H 0.90791 0.50529 0.69736 0.0
H1681 H 0.90511 0.49347 0.62957 0.0
H1682 H 0.88001 0.44869 0.64986 0.0
C1683 C 0.88376 0.43151 0.5015 0.0
C1684 C 0.89379 0.46555 0.53827 0.0
C1685 C 0.88674 0.42415 0.47203 0.0
C1686 C 0.89919 0.49538 0.6935 0.0
C1687 C 0.89753 0.48857 0.65445 0.0
C1688 C 0.88348 0.45349 0.6186 0.0
C1689 C 0.8935 0.44473 0.51226 0.0
C1690 C 0.8906 0.45221 0.54548 0.0
C1691 C 0.88702 0.47523 0.64943 0.0
C1692 C 0.88705 0.46701 0.61212 0.0
H1693 H 0.91928 0.44767 0.44963 0.0
H1694 H 0.914 0.46063 0.50106 0.0
H1695 H 0.88275 0.43593 0.59209 0.0
H1696 H 0.87242 0.47089 0.74881 0.0
H1697 H 0.86905 0.45924 0.67987 0.0
C1698 C 0.56598 0.48733 0.50613 0.0
C1699 C 0.5718 0.48234 0.47699 0.0
C1700 C 0.55821 0.47943 0.54082 0.0
C1701 C 0.55126 0.44957 0.60634 0.0
H1702 H 0.51933 0.45078 0.63959 0.0
C1703 C 0.51284 0.41403 0.73476 0.0
C1704 C 0.50907 0.42048 0.76576 0.0
C1705 C 0.52039 0.42109 0.69844 0.0
C1706 C 0.52826 0.45039 0.63074 0.0
H1707 H 0.57405 0.46518 0.461 0.0
H1708 H 0.56027 0.4513 0.52085 0.0
H1709 H 0.53275 0.46415 0.57827 0.0
H1710 H 0.51023 0.43934 0.78323 0.0
H1711 H 0.52328 0.45156 0.71998 0.0
H1712 H 0.54662 0.43568 0.65881 0.0
C1713 C 0.5619 0.46139 0.51758 0.0
C1714 C 0.53598 0.45809 0.59577 0.0
C1715 C 0.56973 0.46932 0.48312 0.0
C1716 C 0.51297 0.43408 0.75987 0.0
C1717 C 0.52038 0.44107 0.72353 0.0
C1718 C 0.54346 0.44177 0.64114 0.0
C1719 C 0.55603 0.46635 0.54685 0.0
C1720 C 0.54765 0.45788 0.58341 0.0
C1721 C 0.52413 0.43465 0.6924 0.0
C1722 C 0.53197 0.44223 0.65394 0.0
H1723 H 0.56746 0.49736 0.50225 0.0
H1724 H 0.55402 0.48365 0.56317 0.0
H1725 H 0.56028 0.4493 0.59804 0.0
H1726 H 0.50995 0.40355 0.73855 0.0
H1727 H 0.52313 0.41591 0.67476 0.0
C1728 C 0.55812 0.78856 0.27704 0.0
C1729 C 0.56114 0.80165 0.28814 0.0
C1730 C 0.55516 0.77892 0.30943 0.0
C1731 C 0.54264 0.77056 0.42068 0.0
H1732 H 0.56495 0.75426 0.43295 0.0
C1733 C 0.55545 0.75751 0.58418 0.0
C1734 C 0.5579 0.74678 0.58873 0.0
C1735 C 0.55212 0.7605 0.54394 0.0
C1736 C 0.55836 0.7584 0.42947 0.0
H1737 H 0.56339 0.81492 0.3415 0.0
H1738 H 0.55806 0.7981 0.39771 0.0
H1739 H 0.56654 0.76683 0.36712 0.0
H1740 H 0.55812 0.73028 0.5554 0.0
H1741 H 0.55229 0.73557 0.48437 0.0
H1742 H 0.53475 0.76257 0.48341 0.0
C1743 C 0.55798 0.79528 0.36412 0.0
C1744 C 0.55932 0.76564 0.39185 0.0
C1745 C 0.56115 0.80493 0.33199 0.0
C1746 C 0.55626 0.73862 0.55269 0.0
C1747 C 0.55301 0.74169 0.51209 0.0
C1748 C 0.54158 0.76324 0.458 0.0
C1749 C 0.55491 0.78218 0.35318 0.0
C1750 C 0.55189 0.77226 0.38808 0.0
C1751 C 0.55122 0.75286 0.50716 0.0
C1752 C 0.54988 0.75762 0.4637 0.0
H1753 H 0.55804 0.78578 0.24343 0.0
H1754 H 0.55288 0.76889 0.30033 0.0
H1755 H 0.53665 0.77541 0.41811 0.0
H1756 H 0.5566 0.76395 0.61146 0.0
H1757 H 0.55101 0.7693 0.54129 0.0
C1758 C 0.25368 0.81564 0.5495 0.0
C1759 C 0.24871 0.80935 0.58972 0.0
C1760 C 0.24682 0.80945 0.51122 0.0
C1761 C 0.21227 0.78591 0.47838 0.0
H1762 H 0.22751 0.78679 0.36538 0.0
C1763 C 0.1796 0.77055 0.32569 0.0
C1764 C 0.18097 0.76172 0.29755 0.0
C1765 C 0.18901 0.77717 0.35846 0.0
C1766 C 0.22313 0.78645 0.3968 0.0
H1767 H 0.23356 0.7912 0.62138 0.0
H1768 H 0.22184 0.78027 0.55478 0.0
H1769 H 0.24231 0.79574 0.42862 0.0
H1770 H 0.19352 0.75324 0.28048 0.0
H1771 H 0.20988 0.76469 0.33808 0.0
H1772 H 0.19314 0.7765 0.4472 0.0
C1773 C 0.23074 0.79013 0.55271 0.0
C1774 C 0.2316 0.79163 0.43287 0.0
C1775 C 0.2375 0.79634 0.5908 0.0
C1776 C 0.19219 0.75998 0.3018 0.0
C1777 C 0.20161 0.7666 0.33459 0.0
C1778 C 0.20386 0.7808 0.4425 0.0
C1779 C 0.23496 0.79686 0.51278 0.0
C1780 C 0.22622 0.79131 0.47409 0.0
C1781 C 0.19998 0.77507 0.36378 0.0
C1782 C 0.20916 0.78098 0.40132 0.0
H1783 H 0.26229 0.82571 0.54787 0.0
H1784 H 0.25031 0.81487 0.4809 0.0
H1785 H 0.20784 0.78575 0.50955 0.0
H1786 H 0.1711 0.77216 0.32296 0.0
H1787 H 0.18761 0.78381 0.38005 0.0
C1788 C 0.18089 0.41204 0.59766 0.0
C1789 C 0.17667 0.42147 0.60392 0.0
C1790 C 0.18833 0.4127 0.56115 0.0
C1791 C 0.21081 0.43532 0.47787 0.0
H1792 H 0.20068 0.40218 0.41611 0.0
C1793 C 0.23719 0.43389 0.31992 0.0
C1794 C 0.23966 0.42315 0.31509 0.0
C1795 C 0.22929 0.43401 0.35411 0.0
C1796 C 0.20374 0.41149 0.43326 0.0
H1797 H 0.1771 0.43914 0.57726 0.0
H1798 H 0.19032 0.44037 0.51307 0.0
H1799 H 0.18724 0.40198 0.47752 0.0
H1800 H 0.23597 0.40422 0.34241 0.0
H1801 H 0.22238 0.40454 0.40268 0.0
H1802 H 0.22748 0.4448 0.43417 0.0
C1803 C 0.1878 0.43246 0.53663 0.0
C1804 C 0.19601 0.41138 0.46831 0.0
C1805 C 0.18022 0.43174 0.57318 0.0
C1806 C 0.23417 0.41259 0.34524 0.0
C1807 C 0.22632 0.41274 0.37958 0.0
C1808 C 0.21861 0.43543 0.4429 0.0
C1809 C 0.1918 0.42285 0.53014 0.0
C1810 C 0.19955 0.42326 0.49125 0.0
C1811 C 0.22373 0.42343 0.38429 0.0
C1812 C 0.21523 0.42348 0.4205 0.0
H1813 H 0.17834 0.40402 0.62083 0.0
H1814 H 0.19146 0.40528 0.55731 0.0
H1815 H 0.21382 0.44459 0.49527 0.0
H1816 H 0.24127 0.44215 0.29702 0.0
H1817 H 0.22736 0.4423 0.35648 0.0
C1818 C 0.48993 0.92342 0.49114 0.0
C1819 C 0.48575 0.91293 0.52129 0.0
C1820 C 0.48138 0.92258 0.45761 0.0
C1821 C 0.45148 0.89827 0.39565 0.0
H1822 H 0.45112 0.93046 0.36016 0.0
C1823 C 0.41624 0.8995 0.26179 0.0
C1824 C 0.42288 0.90981 0.23113 0.0
C1825 C 0.42296 0.89918 0.29929 0.0
C1826 C 0.45114 0.9214 0.3697 0.0
H1827 H 0.46935 0.89337 0.54031 0.0
H1828 H 0.45434 0.89201 0.4822 0.0
H1829 H 0.46468 0.93135 0.42209 0.0
H1830 H 0.44175 0.92776 0.21534 0.0
H1831 H 0.45334 0.92722 0.28043 0.0
H1832 H 0.43789 0.88836 0.34292 0.0
C1833 C 0.46428 0.90078 0.48398 0.0
C1834 C 0.45895 0.92191 0.40502 0.0
C1835 C 0.47286 0.9016 0.51739 0.0
C1836 C 0.43633 0.91969 0.23839 0.0
C1837 C 0.44296 0.91945 0.27582 0.0
C1838 C 0.44358 0.89773 0.3604 0.0
C1839 C 0.46845 0.91127 0.4537 0.0
C1840 C 0.45942 0.91043 0.41792 0.0
C1841 C 0.43634 0.90927 0.30679 0.0
C1842 C 0.44355 0.90937 0.34663 0.0
H1843 H 0.49984 0.93224 0.49324 0.0
H1844 H 0.485 0.93074 0.43438 0.0
H1845 H 0.4517 0.88926 0.40453 0.0
H1846 H 0.40587 0.89176 0.25694 0.0
H1847 H 0.41764 0.89123 0.32278 0.0
C1848 C 0.08435 0.56169 0.51939 0.0
C1849 C 0.09557 0.56965 0.54547 0.0
C1850 C 0.08493 0.55331 0.48781 0.0
C1851 C 0.10863 0.54925 0.41882 0.0
H1852 H 0.07703 0.5148 0.39441 0.0
C1853 C 0.10384 0.51604 0.26927 0.0
C1854 C 0.09239 0.51301 0.24457 0.0
C1855 C 0.10535 0.52143 0.31105 0.0
C1856 C 0.08597 0.52435 0.40111 0.0
H1857 H 0.11616 0.57502 0.5594 0.0
H1858 H 0.11717 0.5603 0.50404 0.0
H1859 H 0.07759 0.5272 0.45932 0.0
H1860 H 0.07344 0.51288 0.24436 0.0
H1861 H 0.076 0.52204 0.31686 0.0
H1862 H 0.11679 0.5465 0.35966 0.0
C1863 C 0.10796 0.56061 0.50791 0.0
C1864 C 0.08627 0.53148 0.43807 0.0
C1865 C 0.10737 0.569 0.53963 0.0
C1866 C 0.0824 0.51517 0.26254 0.0
C1867 C 0.0838 0.5203 0.30423 0.0
C1868 C 0.10835 0.54206 0.38185 0.0
C1869 C 0.09674 0.55269 0.48162 0.0
C1870 C 0.09739 0.54423 0.44647 0.0
C1871 C 0.09529 0.52356 0.32882 0.0
C1872 C 0.09681 0.52979 0.37192 0.0
H1873 H 0.07514 0.562 0.5231 0.0
H1874 H 0.0762 0.54753 0.46754 0.0
H1875 H 0.11732 0.55907 0.42433 0.0
H1876 H 0.11168 0.51446 0.25605 0.0
H1877 H 0.11432 0.5239 0.32947 0.0
C1878 C 0.43174 0.532 0.51206 0.0
C1879 C 0.4308 0.51945 0.51834 0.0
C1880 C 0.44 0.54067 0.47956 0.0
C1881 C 0.46847 0.54702 0.40769 0.0
H1882 H 0.45564 0.56632 0.33746 0.0
C1883 C 0.48956 0.56779 0.23955 0.0
C1884 C 0.49264 0.58095 0.2295 0.0
C1885 C 0.48284 0.56167 0.27779 0.0
C1886 C 0.45942 0.56115 0.35726 0.0
H1887 H 0.43766 0.50605 0.49552 0.0
H1888 H 0.45182 0.52101 0.43806 0.0
H1889 H 0.44212 0.55268 0.39849 0.0
H1890 H 0.49104 0.59803 0.25136 0.0
H1891 H 0.47893 0.5871 0.3185 0.0
H1892 H 0.48553 0.5551 0.36538 0.0
C1893 C 0.44643 0.52433 0.45883 0.0
C1894 C 0.4517 0.55334 0.39221 0.0
C1895 C 0.43824 0.5157 0.49152 0.0
C1896 C 0.48879 0.58787 0.25841 0.0
C1897 C 0.48186 0.58164 0.29662 0.0
C1898 C 0.47611 0.55471 0.3726 0.0
C1899 C 0.44743 0.53693 0.45251 0.0
C1900 C 0.45604 0.546 0.41735 0.0
C1901 C 0.47892 0.5685 0.30669 0.0
C1902 C 0.47154 0.56165 0.34663 0.0
H1903 H 0.42616 0.53518 0.53245 0.0
H1904 H 0.44067 0.55036 0.47594 0.0
H1905 H 0.47226 0.54176 0.42701 0.0
H1906 H 0.49242 0.56221 0.21795 0.0
H1907 H 0.48054 0.55147 0.28448 0.0
C1908 C 0.10731 0.60095 0.79474 0.0
C1909 C 0.11049 0.59558 0.75872 0.0
C1910 C 0.10849 0.59706 0.83675 0.0
C1911 C 0.12075 0.57757 0.90009 0.0
H1912 H 0.08709 0.56446 0.96206 0.0
C1913 C 0.10747 0.54183 0.04594 0.0
C1914 C 0.09443 0.53062 0.04502 0.0
C1915 C 0.11096 0.55279 0.01861 0.0
C1916 C 0.09656 0.56808 0.94524 0.0
H1917 H 0.11861 0.58302 0.73831 0.0
H1918 H 0.12059 0.57618 0.81104 0.0
H1919 H 0.09192 0.57923 0.89991 0.0
H1920 H 0.07471 0.5222 0.01576 0.0
H1921 H 0.08084 0.54115 0.96729 0.0
H1922 H 0.12495 0.56564 0.94345 0.0
C1923 C 0.11723 0.5834 0.80733 0.0
C1924 C 0.09944 0.57674 0.90998 0.0
C1925 C 0.11601 0.58726 0.7655 0.0
C1926 C 0.08484 0.53071 0.01716 0.0
C1927 C 0.08834 0.54164 0.98967 0.0
C1928 C 0.11784 0.56887 0.93522 0.0
C1929 C 0.11294 0.58779 0.84332 0.0
C1930 C 0.11135 0.58119 0.88604 0.0
C1931 C 0.10149 0.55273 0.98965 0.0
C1932 C 0.1055 0.56365 0.95722 0.0
H1933 H 0.10306 0.60743 0.79041 0.0
H1934 H 0.1053 0.60077 0.8639 0.0
H1935 H 0.1301 0.58098 0.88268 0.0
H1936 H 0.11505 0.54208 0.06739 0.0
H1937 H 0.12112 0.56124 0.01981 0.0
C1938 C 0.49338 0.57373 0.97619 0.0
C1939 C 0.4884 0.57644 0.01413 0.0
C1940 C 0.48483 0.56729 0.94124 0.0
C1941 C 0.44959 0.54502 0.91207 0.0
H1942 H 0.46199 0.55908 0.79645 0.0
C1943 C 0.41764 0.52047 0.75759 0.0
C1944 C 0.42481 0.51896 0.72325 0.0
C1945 C 0.4245 0.52839 0.79358 0.0
C1946 C 0.4584 0.555 0.82851 0.0
H1947 H 0.47057 0.57435 0.04568 0.0
H1948 H 0.45559 0.56296 0.98461 0.0
H1949 H 0.47587 0.57086 0.85895 0.0
H1950 H 0.44474 0.52461 0.69937 0.0
H1951 H 0.45656 0.53816 0.76175 0.0
H1952 H 0.43228 0.52892 0.88144 0.0
C1953 C 0.4661 0.56584 0.98195 0.0
C1954 C 0.46635 0.56173 0.86424 0.0
C1955 C 0.47468 0.5724 0.01677 0.0
C1956 C 0.4389 0.5256 0.72524 0.0
C1957 C 0.44571 0.53348 0.76092 0.0
C1958 C 0.44164 0.53821 0.8762 0.0
C1959 C 0.47112 0.56334 0.94371 0.0
C1960 C 0.46216 0.55668 0.90629 0.0
C1961 C 0.43862 0.53496 0.79557 0.0
C1962 C 0.44611 0.54298 0.83397 0.0
H1963 H 0.50391 0.57672 0.9733 0.0
H1964 H 0.48892 0.56532 0.91232 0.0
H1965 H 0.44614 0.54089 0.94417 0.0
H1966 H 0.40676 0.51544 0.75685 0.0
H1967 H 0.41877 0.5294 0.81975 0.0
C1968 C 0.48438 0.92087 0.73767 0.0
C1969 C 0.4879 0.91095 0.73055 0.0
C1970 C 0.47747 0.92066 0.77503 0.0
C1971 C 0.455 0.89885 0.85944 0.0
H1972 H 0.46727 0.93237 0.9215 0.0
C1973 C 0.42956 0.90203 0.0172 0.0
C1974 C 0.42785 0.91325 0.02179 0.0
C1975 C 0.43738 0.90144 0.9835 0.0
C1976 C 0.46363 0.92296 0.90431 0.0
H1977 H 0.48679 0.8929 0.75659 0.0
H1978 H 0.47445 0.89244 0.82225 0.0
H1979 H 0.47999 0.93166 0.8593 0.0
H1980 H 0.43289 0.93262 0.99475 0.0
H1981 H 0.44631 0.93151 0.93531 0.0
H1982 H 0.43843 0.8902 0.9037 0.0
C1983 C 0.47713 0.90038 0.79872 0.0
C1984 C 0.47095 0.92255 0.86883 0.0
C1985 C 0.48419 0.90066 0.76132 0.0
C1986 C 0.4341 0.92388 0.99209 0.0
C1987 C 0.44185 0.92327 0.95823 0.0
C1988 C 0.44761 0.89927 0.89482 0.0
C1989 C 0.47384 0.91048 0.80604 0.0
C1990 C 0.46661 0.91054 0.8457 0.0
C1991 C 0.44359 0.91205 0.95355 0.0
C1992 C 0.45176 0.91138 0.91731 0.0
H1993 H 0.48707 0.92892 0.71453 0.0
H1994 H 0.47488 0.92845 0.77952 0.0
H1995 H 0.45139 0.88949 0.84191 0.0
H1996 H 0.4249 0.8937 0.03978 0.0
H1997 H 0.43865 0.89274 0.98119 0.0
C1998 C 0.17243 0.40863 0.84566 0.0
C1999 C 0.17698 0.41863 0.8136 0.0
C2000 C 0.18084 0.40968 0.87996 0.0
C2001 C 0.21141 0.43437 0.93881 0.0
H2002 H 0.21064 0.40233 0.98225 0.0
C2003 C 0.24789 0.43492 0.07072 0.0
C2004 C 0.24167 0.42539 0.10391 0.0
C2005 C 0.24058 0.43457 0.03394 0.0
C2006 C 0.21092 0.41135 0.97054 0.0
H2007 H 0.19391 0.43748 0.79187 0.0
H2008 H 0.20866 0.43916 0.85113 0.0
H2009 H 0.19672 0.40064 0.92035 0.0
H2010 H 0.22293 0.40814 0.12495 0.0
H2011 H 0.21028 0.40753 0.06103 0.0
H2012 H 0.2257 0.44505 0.98911 0.0
C2013 C 0.19853 0.43065 0.85038 0.0
C2014 C 0.2029 0.41038 0.93522 0.0
C2015 C 0.1901 0.42964 0.81628 0.0
C2016 C 0.22803 0.41561 0.09989 0.0
C2017 C 0.22079 0.41519 0.06315 0.0
C2018 C 0.21951 0.43535 0.974 0.0
C2019 C 0.194 0.4207 0.8827 0.0
C2020 C 0.20292 0.42185 0.91925 0.0
C2021 C 0.227 0.42459 0.02967 0.0
C2022 C 0.21919 0.42381 0.99054 0.0
H2023 H 0.16233 0.40006 0.84447 0.0
H2024 H 0.17695 0.40194 0.90467 0.0
H2025 H 0.21155 0.44338 0.92765 0.0
H2026 H 0.2584 0.44256 0.07302 0.0
H2027 H 0.2456 0.44191 0.00847 0.0
C2028 C 0.55767 0.76247 0.81311 0.0
C2029 C 0.56897 0.7684 0.78585 0.0
C2030 C 0.55493 0.77036 0.84099 0.0
C2031 C 0.57164 0.80317 0.89615 0.0
H2032 H 0.53501 0.79284 0.92765 0.0
C2033 C 0.56164 0.82961 0.03544 0.0
C2034 C 0.5537 0.82048 0.06791 0.0
C2035 C 0.56169 0.82509 0.99343 0.0
C2036 C 0.54528 0.79589 0.91892 0.0
H2037 H 0.58611 0.78727 0.76549 0.0
H2038 H 0.5812 0.80114 0.81374 0.0
H2039 H 0.53912 0.78144 0.86773 0.0
H2040 H 0.53859 0.79978 0.08093 0.0
H2041 H 0.53862 0.79191 0.00758 0.0
H2042 H 0.57779 0.81741 0.9479 0.0
C2043 C 0.57458 0.79035 0.81416 0.0
C2044 C 0.54765 0.78932 0.88482 0.0
C2045 C 0.57738 0.78242 0.78647 0.0
C2046 C 0.54485 0.80703 0.0566 0.0
C2047 C 0.54483 0.80253 0.01451 0.0
C2048 C 0.56927 0.80981 0.92992 0.0
C2049 C 0.56337 0.7844 0.84202 0.0
C2050 C 0.56085 0.79261 0.87391 0.0
C2051 C 0.55373 0.81139 0.98311 0.0
C2052 C 0.55607 0.80599 0.94245 0.0
H2053 H 0.55102 0.75168 0.81339 0.0
H2054 H 0.54637 0.76538 0.86257 0.0
H2055 H 0.58192 0.80587 0.88911 0.0
H2056 H 0.56852 0.84005 0.04317 0.0
H2057 H 0.56851 0.83216 0.96965 0.0
C2058 C 0.227 0.8109 0.82409 0.0
C2059 C 0.23531 0.80737 0.80103 0.0
C2060 C 0.21827 0.80235 0.8559 0.0
C2061 C 0.21258 0.77463 0.92907 0.0
H2062 H 0.17762 0.77165 0.94253 0.0
C2063 C 0.17459 0.74318 0.06524 0.0
C2064 C 0.1703 0.75076 0.08915 0.0
C2065 C 0.18154 0.74818 0.02608 0.0
C2066 C 0.18733 0.77235 0.93901 0.0
H2067 H 0.24102 0.79214 0.79299 0.0
H2068 H 0.22563 0.7771 0.84838 0.0
H2069 H 0.19183 0.78412 0.88127 0.0
H2070 H 0.16955 0.76925 0.09056 0.0
H2071 H 0.18143 0.77781 0.02239 0.0
H2072 H 0.20806 0.76298 0.9874 0.0
C2073 C 0.22598 0.78654 0.8422 0.0
C2074 C 0.1955 0.77955 0.90413 0.0
C2075 C 0.23475 0.79513 0.81042 0.0
C2076 C 0.17277 0.7632 0.07289 0.0
C2077 C 0.17948 0.76807 0.03369 0.0
C2078 C 0.20434 0.76734 0.96389 0.0
C2079 C 0.21761 0.79004 0.86521 0.0
C2080 C 0.20837 0.7811 0.89944 0.0
C2081 C 0.18402 0.76067 0.01004 0.0
C2082 C 0.19181 0.76646 0.96978 0.0
H2083 H 0.22726 0.8203 0.81766 0.0
H2084 H 0.21217 0.80549 0.87363 0.0
H2085 H 0.22247 0.7757 0.92653 0.0
H2086 H 0.17282 0.73356 0.07719 0.0
H2087 H 0.18495 0.7423 0.00834 0.0
C2088 C 0.37675 0.1398 0.83469 0.0
C2089 C 0.38845 0.13987 0.84816 0.0
C2090 C 0.3644 0.13118 0.85424 0.0
C2091 C 0.33855 0.10714 0.88658 0.0
H2092 H 0.33738 0.10631 0.01235 0.0
C2093 C 0.28881 0.07602 0.97874 0.0
C2094 C 0.28633 0.08317 0.01092 0.0
C2095 C 0.30167 0.08116 0.96119 0.0
C2096 C 0.33757 0.10641 0.97723 0.0
H2097 H 0.3964 0.13081 0.89207 0.0
H2098 H 0.37478 0.11577 0.92645 0.0
H2099 H 0.35901 0.1187 0.97513 0.0
H2100 H 0.29548 0.10094 0.05157 0.0
H2101 H 0.31795 0.10992 0.02095 0.0
H2102 H 0.31711 0.09522 0.88858 0.0
C2103 C 0.37519 0.12242 0.90087 0.0
C2104 C 0.34995 0.1134 0.95592 0.0
C2105 C 0.38754 0.13098 0.88105 0.0
C2106 C 0.2971 0.09521 0.02678 0.0
C2107 C 0.30998 0.10032 0.00938 0.0
C2108 C 0.3262 0.10008 0.90785 0.0
C2109 C 0.36352 0.12251 0.88788 0.0
C2110 C 0.35054 0.11404 0.91038 0.0
C2111 C 0.31233 0.09352 0.97563 0.0
C2112 C 0.32555 0.09983 0.9534 0.0
H2113 H 0.37715 0.14655 0.80944 0.0
H2114 H 0.35561 0.13159 0.84388 0.0
H2115 H 0.33871 0.10735 0.85145 0.0
H2116 H 0.28071 0.06668 0.96596 0.0
H2117 H 0.30323 0.07561 0.93561 0.0
C2118 C 0.92363 0.20557 0.95012 0.0
C2119 C 0.91905 0.2013 0.99262 0.0
C2120 C 0.92091 0.21474 0.92932 0.0
C2121 C 0.91098 0.24022 0.94511 0.0
H2122 H 0.8911 0.22628 0.83807 0.0
C2123 C 0.87684 0.25893 0.87525 0.0
C2124 C 0.87419 0.25782 0.83057 0.0
C2125 C 0.88504 0.25439 0.89292 0.0
C2126 C 0.89693 0.23058 0.86724 0.0
H2127 H 0.90873 0.20381 0.04755 0.0
H2128 H 0.90417 0.22006 0.01133 0.0
H2129 H 0.90093 0.21436 0.87345 0.0
H2130 H 0.87875 0.25203 0.76883 0.0
H2131 H 0.89362 0.2447 0.79921 0.0
H2132 H 0.90705 0.25649 0.939 0.0
C2133 C 0.9098 0.21624 0.99414 0.0
C2134 C 0.90251 0.22367 0.88763 0.0
C2135 C 0.91234 0.2069 0.01474 0.0
C2136 C 0.88053 0.25286 0.80349 0.0
C2137 C 0.88896 0.24856 0.82102 0.0
C2138 C 0.9056 0.2473 0.9243 0.0
C2139 C 0.91376 0.21997 0.95089 0.0
C2140 C 0.90933 0.22826 0.92718 0.0
C2141 C 0.89098 0.24885 0.86616 0.0
C2142 C 0.89822 0.24239 0.8856 0.0
H2143 H 0.92884 0.20142 0.93228 0.0
H2144 H 0.92412 0.21752 0.89602 0.0
H2145 H 0.91631 0.24401 0.97545 0.0
H2146 H 0.87202 0.26265 0.89693 0.0
H2147 H 0.88616 0.25463 0.92782 0.0
C2148 C 0.73622 0.6147 0.87215 0.0
C2149 C 0.73804 0.61355 0.82769 0.0
C2150 C 0.73908 0.62705 0.88974 0.0
C2151 C 0.7598 0.66332 0.86478 0.0
H2152 H 0.74462 0.66688 0.97296 0.0
C2153 C 0.78148 0.7141 0.95117 0.0
C2154 C 0.78604 0.71366 0.99307 0.0
C2155 C 0.77254 0.70221 0.9298 0.0
C2156 C 0.74885 0.66602 0.94255 0.0
H2157 H 0.74322 0.62402 0.76611 0.0
H2158 H 0.74753 0.64542 0.79627 0.0
H2159 H 0.73407 0.64524 0.93545 0.0
H2160 H 0.78414 0.70062 0.04672 0.0
H2161 H 0.76833 0.67985 0.00955 0.0
H2162 H 0.77458 0.68408 0.87209 0.0
C2163 C 0.74447 0.63699 0.81805 0.0
C2164 C 0.7429 0.65362 0.92117 0.0
C2165 C 0.7419 0.62471 0.80063 0.0
C2166 C 0.78081 0.70123 0.01436 0.0
C2167 C 0.77172 0.68937 0.99321 0.0
C2168 C 0.76558 0.67573 0.88572 0.0
C2169 C 0.74357 0.63846 0.86308 0.0
C2170 C 0.74854 0.65201 0.88262 0.0
C2171 C 0.76786 0.68973 0.95025 0.0
C2172 C 0.76038 0.67711 0.92533 0.0
H2173 H 0.73331 0.60624 0.89376 0.0
H2174 H 0.73842 0.62775 0.92457 0.0
H2175 H 0.76465 0.6625 0.83575 0.0
H2176 H 0.78534 0.72354 0.93399 0.0
H2177 H 0.76965 0.70274 0.89674 0.0
C2178 C 0.11682 0.3821 0.61537 0.0
C2179 C 0.12064 0.38185 0.65849 0.0
C2180 C 0.10827 0.37013 0.59373 0.0
C2181 C 0.08407 0.33407 0.60736 0.0
H2182 H 0.09987 0.33001 0.50137 0.0
C2183 C 0.06965 0.28233 0.53569 0.0
C2184 C 0.07113 0.28114 0.49099 0.0
C2185 C 0.07318 0.2948 0.55386 0.0
C2186 C 0.09506 0.33099 0.53024 0.0
H2187 H 0.11789 0.36901 0.71363 0.0
H2188 H 0.10278 0.34808 0.67589 0.0
H2189 H 0.11024 0.35161 0.53785 0.0
H2190 H 0.07654 0.29181 0.42973 0.0
H2191 H 0.08214 0.31349 0.46102 0.0
H2192 H 0.06889 0.31344 0.59991 0.0
C2193 C 0.10644 0.35753 0.65886 0.0
C2194 C 0.10107 0.3434 0.55126 0.0
C2195 C 0.11513 0.36949 0.68036 0.0
C2196 C 0.07544 0.29248 0.46439 0.0
C2197 C 0.07875 0.30492 0.48244 0.0
C2198 C 0.07791 0.32167 0.58596 0.0
C2199 C 0.10324 0.35772 0.61499 0.0
C2200 C 0.09581 0.34499 0.59047 0.0
C2201 C 0.07807 0.30634 0.5276 0.0
C2202 C 0.08351 0.31988 0.54762 0.0
H2203 H 0.12089 0.39149 0.5977 0.0
H2204 H 0.10587 0.37055 0.55999 0.0
H2205 H 0.07976 0.33508 0.6374 0.0
H2206 H 0.0664 0.27375 0.55701 0.0
H2207 H 0.07267 0.29546 0.58876 0.0
C2208 C 0.71805 0.80018 0.55603 0.0
C2209 C 0.72033 0.80314 0.51162 0.0
C2210 C 0.70497 0.79347 0.57254 0.0
C2211 C 0.67025 0.78549 0.54448 0.0
H2212 H 0.66091 0.76238 0.64551 0.0
C2213 C 0.61603 0.75428 0.60979 0.0
C2214 C 0.6145 0.75631 0.65387 0.0
C2215 C 0.62882 0.75914 0.59201 0.0
C2216 C 0.66343 0.76884 0.61735 0.0
H2217 H 0.71077 0.80096 0.4493 0.0
H2218 H 0.68791 0.78869 0.4776 0.0
H2219 H 0.68333 0.77187 0.61392 0.0
H2220 H 0.62507 0.76467 0.71423 0.0
H2221 H 0.6475 0.7729 0.68322 0.0
H2222 H 0.65016 0.78211 0.54752 0.0
C2223 C 0.69619 0.79195 0.50012 0.0
C2224 C 0.67628 0.77435 0.59931 0.0
C2225 C 0.70929 0.79889 0.48376 0.0
C2226 C 0.62597 0.763 0.68013 0.0
C2227 C 0.63877 0.76764 0.66248 0.0
C2228 C 0.65734 0.77978 0.56206 0.0
C2229 C 0.69384 0.78936 0.54488 0.0
C2230 C 0.67993 0.78287 0.56286 0.0
C2231 C 0.6403 0.7659 0.61816 0.0
C2232 C 0.65385 0.77151 0.59886 0.0
H2233 H 0.72639 0.80344 0.57832 0.0
H2234 H 0.70364 0.79189 0.60723 0.0
H2235 H 0.6727 0.79221 0.51708 0.0
H2236 H 0.60735 0.74918 0.58878 0.0
H2237 H 0.62975 0.75761 0.55779 0.0
C2238 C 0.2076 0.90786 0.47651 0.0
C2239 C 0.20646 0.91826 0.49625 0.0
C2240 C 0.21562 0.90323 0.49501 0.0
C2241 C 0.23689 0.89791 0.53225 0.0
H2242 H 0.23252 0.8921 0.6565 0.0
C2243 C 0.26012 0.87078 0.62526 0.0
C2244 C 0.25151 0.86099 0.65509 0.0
C2245 C 0.25668 0.87982 0.60726 0.0
C2246 C 0.23384 0.89365 0.62179 0.0
H2247 H 0.21337 0.93247 0.54953 0.0
H2248 H 0.22755 0.9245 0.58162 0.0
H2249 H 0.2231 0.90438 0.62049 0.0
H2250 H 0.23269 0.85314 0.69007 0.0
H2251 H 0.22659 0.86874 0.65832 0.0
H2252 H 0.24703 0.88657 0.53329 0.0
C2253 C 0.22206 0.91977 0.55223 0.0
C2254 C 0.22859 0.90085 0.60119 0.0
C2255 C 0.21401 0.92439 0.53372 0.0
C2256 C 0.23954 0.86058 0.66722 0.0
C2257 C 0.23609 0.8696 0.64924 0.0
C2258 C 0.24211 0.89068 0.55285 0.0
C2259 C 0.22271 0.90893 0.53363 0.0
C2260 C 0.2298 0.90281 0.55603 0.0
C2261 C 0.24456 0.87925 0.61877 0.0
C2262 C 0.24038 0.88821 0.59771 0.0
H2263 H 0.2019 0.90294 0.4476 0.0
H2264 H 0.21575 0.89477 0.48008 0.0
H2265 H 0.23814 0.89939 0.49749 0.0
H2266 H 0.26945 0.87135 0.61544 0.0
H2267 H 0.26349 0.88722 0.58423 0.0
C2268 C 0.70918 0.91561 0.05375 0.0
C2269 C 0.7122 0.9089 0.02142 0.0
C2270 C 0.69666 0.90918 0.0745 0.0
C2271 C 0.66933 0.87566 0.10233 0.0
H2272 H 0.64713 0.89214 0.11247 0.0
C2273 C 0.61328 0.845 0.14624 0.0
C2274 C 0.60749 0.85115 0.17046 0.0
C2275 C 0.62661 0.85244 0.13229 0.0
C2276 C 0.6533 0.88748 0.11071 0.0
H2277 H 0.70447 0.89034 0.98496 0.0
H2278 H 0.68274 0.87913 0.02145 0.0
H2279 H 0.66942 0.90474 0.07967 0.0
H2280 H 0.61119 0.86975 0.20049 0.0
H2281 H 0.63459 0.88268 0.17722 0.0
H2282 H 0.65339 0.85845 0.13355 0.0
C2283 C 0.69003 0.88931 0.03081 0.0
C2284 C 0.66603 0.89469 0.09174 0.0
C2285 C 0.70243 0.89577 0.00975 0.0
C2286 C 0.61539 0.86477 0.18165 0.0
C2287 C 0.62876 0.8722 0.16803 0.0
C2288 C 0.65669 0.86851 0.12172 0.0
C2289 C 0.68708 0.89589 0.06366 0.0
C2290 C 0.67404 0.88874 0.08667 0.0
C2291 C 0.63448 0.86617 0.14262 0.0
C2292 C 0.6484 0.87422 0.12542 0.0
H2293 H 0.71654 0.92574 0.06337 0.0
H2294 H 0.69461 0.91446 0.09978 0.0
H2295 H 0.67543 0.87093 0.09942 0.0
H2296 H 0.60741 0.83453 0.13691 0.0
H2297 H 0.63058 0.8475 0.1122 0.0
C2298 C 0.10994 0.73525 0.13813 0.0
C2299 C 0.1191 0.74364 0.16974 0.0
C2300 C 0.10081 0.73847 0.11958 0.0
C2301 C 0.08648 0.76115 0.13118 0.0
H2302 H 0.0845 0.75889 0.00569 0.0
C2303 C 0.07944 0.79148 0.98229 0.0
C2304 C 0.06926 0.79352 -0.0008 0.0
C2305 C 0.08248 0.78237 0.00188 0.0
C2306 C 0.08492 0.75958 0.04074 0.0
H2307 H 0.12551 0.76166 0.20807 0.0
H2308 H 0.10984 0.76743 0.1753 0.0
H2309 H 0.09553 0.74876 0.04509 0.0
H2310 H 0.05369 0.78705 0.04822 0.0
H2311 H 0.05881 0.77091 0.08202 0.0
H2312 H 0.07668 0.77275 0.12668 0.0
C2313 C 0.1095 0.75824 0.16517 0.0
C2314 C 0.0911 0.75361 0.06342 0.0
C2315 C 0.11857 0.75498 0.1838 0.0
C2316 C 0.06167 0.78575 0.03467 0.0
C2317 C 0.06466 0.77656 0.05417 0.0
C2318 C 0.08038 0.76719 0.10849 0.0
C2319 C 0.10069 0.75018 0.1322 0.0
C2320 C 0.0923 0.75466 0.10884 0.0
C2321 C 0.07534 0.77503 0.0387 0.0
C2322 C 0.07987 0.76681 0.0629 0.0
H2323 H 0.11008 0.72639 0.12684 0.0
H2324 H 0.09403 0.73194 0.09473 0.0
H2325 H 0.08701 0.76194 0.1662 0.0
H2326 H 0.08547 0.79734 0.955 0.0
H2327 H 0.09088 0.78161 0.98939 0.0
C2328 C 0.262 0.38684 0.11899 0.0
C2329 C 0.26071 0.38805 0.16379 0.0
C2330 C 0.25869 0.37442 0.10092 0.0
C2331 C 0.2375 0.33824 0.12549 0.0
H2332 H 0.25211 0.33438 0.01648 0.0
C2333 C 0.21496 0.28739 0.03835 0.0
C2334 C 0.21078 0.28787 0.9959 0.0
C2335 C 0.22378 0.29924 0.0601 0.0
C2336 C 0.24801 0.33533 0.04707 0.0
H2337 H 0.25594 0.37753 0.22529 0.0
H2338 H 0.25072 0.35595 0.1941 0.0
H2339 H 0.26313 0.35598 0.05417 0.0
H2340 H 0.21318 0.30099 0.94193 0.0
H2341 H 0.22875 0.3217 0.97983 0.0
H2342 H 0.22235 0.31761 0.11815 0.0
C2343 C 0.25379 0.36444 0.17258 0.0
C2344 C 0.25425 0.3477 0.06857 0.0
C2345 C 0.25687 0.37683 0.19055 0.0
C2346 C 0.2162 0.30033 0.9747 0.0
C2347 C 0.22516 0.31217 0.99627 0.0
C2348 C 0.23141 0.32585 0.10435 0.0
C2349 C 0.25422 0.36297 0.12736 0.0
C2350 C 0.24886 0.34942 0.1075 0.0
C2351 C 0.22873 0.31175 0.03957 0.0
C2352 C 0.2364 0.32437 0.06444 0.0
H2353 H 0.2649 0.39533 0.09757 0.0
H2354 H 0.25899 0.3737 0.06597 0.0
H2355 H 0.23287 0.33917 0.15486 0.0
H2356 H 0.21096 0.27792 0.05547 0.0
H2357 H 0.22645 0.29865 0.09341 0.0
C2358 C 0.87995 0.61784 0.37169 0.0
C2359 C 0.87707 0.61656 0.32716 0.0
C2360 C 0.88903 0.63033 0.38937 0.0
C2361 C 0.90337 0.66648 0.36462 0.0
H2362 H 0.92225 0.67067 0.47287 0.0
C2363 C 0.9309 0.71733 0.45155 0.0
C2364 C 0.92578 0.71666 0.49345 0.0
C2365 C 0.92839 0.70559 0.43005 0.0
C2366 C 0.91711 0.66964 0.44245 0.0
H2367 H 0.88209 0.62704 0.26561 0.0
H2368 H 0.89846 0.64875 0.29596 0.0
H2369 H 0.91187 0.64907 0.43519 0.0
H2370 H 0.9149 0.70338 0.54695 0.0
H2371 H 0.91073 0.68288 0.50957 0.0
H2372 H 0.9086 0.68704 0.37209 0.0
C2373 C 0.89333 0.64026 0.31769 0.0
C2374 C 0.91108 0.65726 0.42097 0.0
C2375 C 0.88403 0.62781 0.30017 0.0
C2376 C 0.91893 0.70417 0.5146 0.0
C2377 C 0.9166 0.69246 0.49333 0.0
C2378 C 0.9096 0.67889 0.38567 0.0
C2379 C 0.89562 0.6418 0.36275 0.0
C2380 C 0.90378 0.6554 0.38239 0.0
C2381 C 0.92093 0.69303 0.45036 0.0
C2382 C 0.91622 0.68048 0.42532 0.0
H2383 H 0.87467 0.60932 0.39328 0.0
H2384 H 0.89032 0.63107 0.42422 0.0
H2385 H 0.89767 0.66547 0.33555 0.0
H2386 H 0.93622 0.72682 0.43447 0.0
H2387 H 0.93188 0.70628 0.39698 0.0
C2388 C 0.27984 0.20474 0.46062 0.0
C2389 C 0.27978 0.19635 0.49388 0.0
C2390 C 0.29186 0.21379 0.43998 0.0
C2391 C 0.32894 0.23046 0.44953 0.0
H2392 H 0.32816 0.22925 0.3238 0.0
C2393 C 0.3674 0.2374 0.30534 0.0
C2394 C 0.37897 0.24913 0.31908 0.0
C2395 C 0.35492 0.23365 0.32385 0.0
C2396 C 0.32853 0.22976 0.35889 0.0
H2397 H 0.29225 0.19118 0.53277 0.0
H2398 H 0.31318 0.2069 0.49668 0.0
H2399 H 0.30716 0.21766 0.36448 0.0
H2400 H 0.38645 0.26656 0.36104 0.0
H2401 H 0.36459 0.26002 0.39331 0.0
H2402 H 0.35035 0.24197 0.44404 0.0
C2403 C 0.304 0.20659 0.48672 0.0
C2404 C 0.3165 0.22323 0.3822 0.0
C2405 C 0.29199 0.19752 0.50722 0.0
C2406 C 0.3777 0.25743 0.34995 0.0
C2407 C 0.36521 0.25365 0.36859 0.0
C2408 C 0.34097 0.23701 0.42623 0.0
C2409 C 0.30404 0.21467 0.45238 0.0
C2410 C 0.3166 0.2232 0.4278 0.0
C2411 C 0.35375 0.24154 0.35654 0.0
C2412 C 0.34092 0.23642 0.38068 0.0
H2413 H 0.27057 0.20409 0.44977 0.0
H2414 H 0.29159 0.21998 0.41391 0.0
H2415 H 0.32933 0.23076 0.48464 0.0
H2416 H 0.36806 0.23082 0.28156 0.0
H2417 H 0.34631 0.2242 0.31413 0.0
C2418 C 0.78629 0.08178 0.50926 0.0
C2419 C 0.79038 0.07391 0.4861 0.0
C2420 C 0.77804 0.08597 0.48968 0.0
C2421 C 0.77134 0.09511 0.38481 0.0
H2422 H 0.73988 0.09306 0.4388 0.0
C2423 C 0.74444 0.11995 0.30339 0.0
C2424 C 0.74017 0.12683 0.33078 0.0
C2425 C 0.74817 0.11105 0.32062 0.0
C2426 C 0.74871 0.09384 0.42342 0.0
H2427 H 0.78884 0.06399 0.42479 0.0
H2428 H 0.77468 0.07162 0.39025 0.0
H2429 H 0.75112 0.08223 0.47348 0.0
H2430 H 0.73598 0.12951 0.3974 0.0
H2431 H 0.74304 0.11451 0.42779 0.0
H2432 H 0.76959 0.10733 0.3362 0.0
C2433 C 0.77777 0.07443 0.4236 0.0
C2434 C 0.75508 0.08756 0.44322 0.0
C2435 C 0.78583 0.07005 0.4434 0.0
C2436 C 0.73918 0.12427 0.37552 0.0
C2437 C 0.74317 0.11558 0.39289 0.0
C2438 C 0.76514 0.10157 0.36542 0.0
C2439 C 0.77393 0.08255 0.44642 0.0
C2440 C 0.76652 0.08826 0.42423 0.0
C2441 C 0.74801 0.10908 0.36575 0.0
C2442 C 0.75382 0.10116 0.38466 0.0
H2443 H 0.78964 0.08487 0.54227 0.0
H2444 H 0.7753 0.09232 0.5078 0.0
H2445 H 0.78026 0.09594 0.36983 0.0
H2446 H 0.74516 0.12165 0.26868 0.0
H2447 H 0.75148 0.10596 0.29855 0.0
C2448 C 0.94519 0.41197 0.27222 0.0
C2449 C 0.94457 0.41519 0.31582 0.0
C2450 C 0.95758 0.41634 0.2521 0.0
C2451 C 0.99275 0.42713 0.26784 0.0
H2452 H -0.0005 0.45124 0.17103 0.0
C2453 C 0.04611 0.46191 0.20136 0.0
C2454 C 0.04773 0.46629 0.15816 0.0
C2455 C 0.03327 0.45374 0.21854 0.0
C2456 C 0.99776 0.44428 0.1972 0.0
H2457 H 0.95635 0.42492 0.37317 0.0
H2458 H 0.97811 0.43226 0.33805 0.0
H2459 H 0.97752 0.44012 0.20542 0.0
H2460 H 0.03737 0.4649 0.09811 0.0
H2461 H 0.01499 0.44997 0.12711 0.0
H2462 H 0.01281 0.43094 0.25925 0.0
C2463 C 0.96896 0.42647 0.31955 0.0
C2464 C 0.98516 0.438 0.21712 0.0
C2465 C 0.95655 0.42233 0.33951 0.0
C2466 C 0.03636 0.46175 0.13168 0.0
C2467 C 0.02353 0.4533 0.14854 0.0
C2468 C 0.00529 0.43317 0.2473 0.0
C2469 C 0.96955 0.42375 0.27545 0.0
C2470 C 0.98263 0.42955 0.25295 0.0
C2471 C 0.02177 0.44951 0.19259 0.0
C2472 C 0.00805 0.44202 0.21211 0.0
H2473 H 0.93611 0.40651 0.25315 0.0
H2474 H 0.95783 0.41413 0.21806 0.0
H2475 H 0.99094 0.42055 0.29531 0.0
H2476 H 0.05472 0.46535 0.22257 0.0
H2477 H 0.03242 0.45126 0.25269 0.0
C2478 C 0.5498 0.58474 0.12611 0.0
C2479 C 0.54481 0.5909 0.15391 0.0
C2480 C 0.5584 0.58041 0.14195 0.0
C2481 C 0.57844 0.58162 0.23961 0.0
H2482 H 0.57077 0.54671 0.19732 0.0
C2483 C 0.58704 0.54347 0.3362 0.0
C2484 C 0.59234 0.53653 0.3137 0.0
C2485 C 0.58418 0.55239 0.31428 0.0
C2486 C 0.57319 0.55656 0.20899 0.0
H2487 H 0.54519 0.59776 0.21965 0.0
H2488 H 0.55967 0.58975 0.24772 0.0
H2489 H 0.56027 0.55811 0.16264 0.0
H2490 H 0.5993 0.53385 0.25109 0.0
H2491 H 0.59402 0.54924 0.21264 0.0
H2492 H 0.59073 0.57952 0.28778 0.0
C2493 C 0.55734 0.58856 0.21344 0.0
C2494 C 0.56721 0.56316 0.189 0.0
C2495 C 0.54894 0.59309 0.19742 0.0
C2496 C 0.59521 0.53906 0.26926 0.0
C2497 C 0.59216 0.54782 0.24722 0.0
C2498 C 0.58424 0.5749 0.26005 0.0
C2499 C 0.56198 0.58192 0.18612 0.0
C2500 C 0.56957 0.57568 0.20446 0.0
C2501 C 0.58639 0.55437 0.26939 0.0
C2502 C 0.58151 0.56223 0.24528 0.0
H2503 H 0.54687 0.58305 0.0923 0.0
H2504 H 0.56201 0.57563 0.11969 0.0
H2505 H 0.58072 0.59137 0.25188 0.0
H2506 H 0.58476 0.54173 0.37049 0.0
H2507 H 0.57963 0.55723 0.33204 0.0
C2508 C 0.40062 0.94775 0.21627 0.0
C2509 C 0.40497 0.94811 0.17343 0.0
C2510 C 0.40335 0.95961 0.23734 0.0
C2511 C 0.41375 0.99531 0.22192 0.0
H2512 H 0.4338 0.00071 0.32826 0.0
C2513 C 0.45041 0.04783 0.2891 0.0
C2514 C 0.45319 0.04946 0.3337 0.0
C2515 C 0.44152 0.03515 0.27214 0.0
C2516 C 0.42793 -0.00066 0.2993 0.0
H2517 H 0.41481 0.961 0.11813 0.0
H2518 H 0.41944 0.98172 0.15484 0.0
H2519 H 0.42316 0.97888 0.29327 0.0
H2520 H 0.44818 0.0394 0.39602 0.0
H2521 H 0.43222 0.01736 0.36678 0.0
H2522 H 0.41858 0.01581 0.2277 0.0
C2523 C 0.41396 0.97228 0.17212 0.0
C2524 C 0.42187 0.98679 0.27914 0.0
C2525 C 0.41139 0.96044 0.15121 0.0
C2526 C 0.44632 0.03837 0.36141 0.0
C2527 C 0.43725 0.02573 0.34456 0.0
C2528 C 0.41965 0.00784 0.24244 0.0
C2529 C 0.41031 0.97201 0.21575 0.0
C2530 C 0.41501 0.98475 0.23974 0.0
C2531 C 0.43506 0.02386 0.29953 0.0
C2532 C 0.42714 0.01012 0.28081 0.0
H2533 H 0.39564 0.93838 0.23417 0.0
H2534 H 0.40036 0.95914 0.27092 0.0
H2535 H 0.4084 0.99394 0.19173 0.0
H2536 H 0.45561 0.05621 0.26696 0.0
H2537 H 0.44028 0.03414 0.2373 0.0
C2538 C 0.58726 0.03948 0.8598 0.0
C2539 C 0.59111 0.05055 0.83229 0.0
C2540 C 0.58446 0.02707 0.84282 0.0
C2541 C 0.58596 0.01001 0.74091 0.0
H2542 H 0.5542 0.97975 0.79042 0.0
C2543 C 0.54916 0.96166 0.64874 0.0
C2544 C 0.54369 0.94938 0.6711 0.0
C2545 C 0.55795 0.97369 0.6697 0.0
C2546 C 0.56323 0.98804 0.77667 0.0
H2547 H 0.59557 0.05753 0.76581 0.0
H2548 H 0.59015 0.03582 0.73586 0.0
H2549 H 0.56401 0.00152 0.82557 0.0
H2550 H 0.54367 0.93994 0.73205 0.0
H2551 H 0.55888 0.96101 0.76884 0.0
H2552 H 0.5845 0.9965 0.69035 0.0
C2553 C 0.58963 0.03669 0.77067 0.0
C2554 C 0.56892 0.00056 0.79692 0.0
C2555 C 0.59266 0.04915 0.78778 0.0
C2556 C 0.54772 0.94927 0.71404 0.0
C2557 C 0.55637 0.96131 0.73514 0.0
C2558 C 0.58013 0.9975 0.72028 0.0
C2559 C 0.58519 0.0254 0.79784 0.0
C2560 C 0.58022 0.01179 0.77892 0.0
C2561 C 0.56129 0.97365 0.7135 0.0
C2562 C 0.56858 0.98646 0.73764 0.0
H2563 H 0.58614 0.04034 0.89435 0.0
H2564 H 0.58141 0.01871 0.86492 0.0
H2565 H 0.59482 0.01834 0.72654 0.0
H2566 H 0.54625 0.96203 0.61559 0.0
H2567 H 0.56152 0.98307 0.65236 0.0
C2568 C 0.04867 0.58449 0.69842 0.0
C2569 C 0.05464 0.57677 0.68768 0.0
C2570 C 0.0356 0.57833 0.71506 0.0
C2571 C 0.01018 0.54752 0.77023 0.0
H2572 H 0.98499 0.55786 0.72673 0.0
C2573 C 0.95338 0.51654 0.80569 0.0
C2574 C 0.94652 0.52356 0.81397 0.0
C2575 C 0.96675 0.52339 0.79185 0.0
C2576 C 0.99195 0.55498 0.73966 0.0
H2577 H 0.05163 0.55658 0.68592 0.0
H2578 H 0.02882 0.54583 0.71476 0.0
H2579 H 0.00803 0.56921 0.69963 0.0
H2580 H 0.94828 0.54325 0.81475 0.0
H2581 H 0.9717 0.55525 0.79108 0.0
H2582 H 0.99412 0.53328 0.81021 0.0
C2583 C 0.03427 0.55665 0.71074 0.0
C2584 C 0.00514 0.56148 0.7241 0.0
C2585 C 0.04731 0.56279 0.69397 0.0
C2586 C 0.95331 0.53757 0.80847 0.0
C2587 C 0.9667 0.54443 0.79468 0.0
C2588 C 0.997 0.54104 0.78587 0.0
C2589 C 0.02827 0.56434 0.72147 0.0
C2590 C 0.01437 0.55775 0.73899 0.0
C2591 C 0.97356 0.53741 0.78607 0.0
C2592 C 0.9877 0.54463 0.77054 0.0
H2593 H 0.0541 0.59529 0.69399 0.0
H2594 H 0.0313 0.58454 0.72341 0.0
H2595 H 0.01712 0.54457 0.78287 0.0
H2596 H 0.94839 0.50573 0.8095 0.0
H2597 H 0.97167 0.51766 0.78492 0.0
C2598 C 0.41214 0.45399 0.63918 0.0
C2599 C 0.40847 0.46152 0.66583 0.0
C2600 C 0.41497 0.44454 0.65723 0.0
C2601 C 0.41384 0.4269 0.76091 0.0
H2602 H 0.44469 0.42695 0.70958 0.0
C2603 C 0.44959 0.41296 0.85 0.0
C2604 C 0.45413 0.40547 0.82679 0.0
C2605 C 0.44127 0.41701 0.83007 0.0
C2606 C 0.43593 0.42665 0.72391 0.0
H2607 H 0.4044 0.46481 0.73195 0.0
H2608 H 0.40993 0.4488 0.76379 0.0
H2609 H 0.4353 0.43931 0.67464 0.0
H2610 H 0.45298 0.39573 0.76538 0.0
H2611 H 0.43861 0.40299 0.73045 0.0
H2612 H 0.41516 0.41482 0.81169 0.0
C2613 C 0.41027 0.44982 0.72885 0.0
C2614 C 0.43047 0.4337 0.70377 0.0
C2615 C 0.40717 0.45908 0.71065 0.0
C2616 C 0.44967 0.40153 0.78405 0.0
C2617 C 0.44149 0.40571 0.76399 0.0
C2618 C 0.41947 0.42 0.78144 0.0
C2619 C 0.4145 0.44263 0.70245 0.0
C2620 C 0.41944 0.43406 0.72219 0.0
C2621 C 0.43749 0.41376 0.78647 0.0
C2622 C 0.43064 0.41993 0.76329 0.0
H2623 H 0.41305 0.45557 0.60442 0.0
H2624 H 0.41783 0.43894 0.6357 0.0
H2625 H 0.40522 0.42674 0.77569 0.0
H2626 H 0.45286 0.4161 0.88303 0.0
H2627 H 0.4384 0.42329 0.84802 0.0
loop_
_geom_bond_atom_site_label_1
_geom_bond_atom_site_label_2
_geom_bond_distance
_geom_bond_site_symmetry_2
_ccdc_geom_bond_type
In0 O1 2.294 . S
In0 O2 2.326 . S
In0 O6 2.266 . S
In0 O7 2.326 . S
In0 O8 2.266 . S
In0 O9 2.326 . S
In0 O11 2.294 . S
In0 O12 2.326 . S
O1 In0 2.294 . S
O1 C10 1.240 . S
O2 In0 2.326 . S
O2 C10 1.252 . S
C3 O6 1.252 . S
C3 O7 1.260 . S
C4 O11 1.240 . S
C4 O12 1.252 . S
C5 O8 1.252 . S
C5 O9 1.260 . S
O6 In0 2.266 . S
O6 C3 1.252 . S
O7 In0 2.326 . S
O7 C3 1.260 . S
O8 In0 2.266 . S
O8 C5 1.252 . S
O9 In0 2.326 . S
O9 C5 1.260 . S
C10 O1 1.240 . S
C10 O2 1.252 . S
O11 In0 2.294 . S
O11 C4 1.240 . S
O12 In0 2.326 . S
O12 C4 1.252 . S
In13 O14 2.294 . S
In13 O15 2.326 . S
In13 O19 2.266 . S
In13 O20 2.326 . S
In13 O21 2.266 . S
In13 O22 2.326 . S
In13 O24 2.294 . S
In13 O25 2.326 . S
O14 In13 2.294 . S
O14 C23 1.240 . S
O15 In13 2.326 . S
O15 C23 1.252 . S
C16 O19 1.252 . S
C16 O20 1.260 . S
C17 O24 1.240 . S
C17 O25 1.252 . S
C18 O21 1.252 . S
C18 O22 1.260 . S
O19 In13 2.266 . S
O19 C16 1.252 . S
O20 In13 2.326 . S
O20 C16 1.260 . S
O21 In13 2.266 . S
O21 C18 1.252 . S
O22 In13 2.326 . S
O22 C18 1.260 . S
C23 O14 1.240 . S
C23 O15 1.252 . S
O24 In13 2.294 . S
O24 C17 1.240 . S
O25 In13 2.326 . S
O25 C17 1.252 . S
In26 O27 2.294 . S
In26 O28 2.326 . S
In26 O32 2.266 . S
In26 O33 2.326 . S
In26 O34 2.266 . S
In26 O35 2.326 . S
In26 O37 2.294 . S
In26 O38 2.326 . S
O27 In26 2.294 . S
O27 C36 1.240 . S
O28 In26 2.326 . S
O28 C36 1.252 . S
C29 O32 1.252 . S
C29 O33 1.260 . S
C30 O37 1.240 . S
C30 O38 1.252 . S
C31 O34 1.252 . S
C31 O35 1.260 . S
O32 In26 2.266 . S
O32 C29 1.252 . S
O33 In26 2.326 . S
O33 C29 1.260 . S
O34 In26 2.266 . S
O34 C31 1.252 . S
O35 In26 2.326 . S
O35 C31 1.260 . S
C36 O27 1.240 . S
C36 O28 1.252 . S
O37 In26 2.294 . S
O37 C30 1.240 . S
O38 In26 2.326 . S
O38 C30 1.252 . S
In39 O40 2.294 . S
In39 O41 2.326 . S
In39 O45 2.266 . S
In39 O46 2.326 . S
In39 O47 2.266 . S
In39 O48 2.326 . S
In39 O50 2.294 . S
In39 O51 2.326 . S
O40 In39 2.294 . S
O40 C49 1.240 . S
O41 In39 2.326 . S
O41 C49 1.252 . S
C42 O45 1.252 . S
C42 O46 1.260 . S
C43 O50 1.240 . S
C43 O51 1.252 . S
C44 O47 1.252 . S
C44 O48 1.260 . S
O45 In39 2.266 . S
O45 C42 1.252 . S
O46 In39 2.326 . S
O46 C42 1.260 . S
O47 In39 2.266 . S
O47 C44 1.252 . S
O48 In39 2.326 . S
O48 C44 1.260 . S
C49 O40 1.240 . S
C49 O41 1.252 . S
O50 In39 2.294 . S
O50 C43 1.240 . S
O51 In39 2.326 . S
O51 C43 1.252 . S
In52 O53 2.294 . S
In52 O54 2.326 . S
In52 O58 2.266 . S
In52 O59 2.326 . S
In52 O60 2.266 . S
In52 O61 2.326 . S
In52 O63 2.294 . S
In52 O64 2.326 . S
O53 In52 2.294 . S
O53 C62 1.240 . S
O54 In52 2.326 . S
O54 C62 1.252 . S
C55 O58 1.252 . S
C55 O59 1.260 . S
C56 O63 1.240 . S
C56 O64 1.252 . S
C57 O60 1.252 . S
C57 O61 1.260 . S
O58 In52 2.266 . S
O58 C55 1.252 . S
O59 In52 2.326 . S
O59 C55 1.260 . S
O60 In52 2.266 . S
O60 C57 1.252 . S
O61 In52 2.326 . S
O61 C57 1.260 . S
C62 O53 1.240 . S
C62 O54 1.252 . S
O63 In52 2.294 . S
O63 C56 1.240 . S
O64 In52 2.326 . S
O64 C56 1.252 . S
In65 O66 2.294 . S
In65 O67 2.326 . S
In65 O71 2.266 . S
In65 O72 2.326 . S
In65 O73 2.266 . S
In65 O74 2.326 . S
In65 O76 2.294 . S
In65 O77 2.326 . S
O66 In65 2.294 . S
O66 C75 1.240 . S
O67 In65 2.326 . S
O67 C75 1.252 . S
C68 O71 1.252 . S
C68 O72 1.260 . S
C69 O76 1.240 . S
C69 O77 1.252 . S
C70 O73 1.252 . S
C70 O74 1.260 . S
O71 In65 2.266 . S
O71 C68 1.252 . S
O72 In65 2.326 . S
O72 C68 1.260 . S
O73 In65 2.266 . S
O73 C70 1.252 . S
O74 In65 2.326 . S
O74 C70 1.260 . S
C75 O66 1.240 . S
C75 O67 1.252 . S
O76 In65 2.294 . S
O76 C69 1.240 . S
O77 In65 2.326 . S
O77 C69 1.252 . S
In78 O79 2.294 . S
In78 O80 2.326 . S
In78 O84 2.266 . S
In78 O85 2.326 . S
In78 O86 2.266 . S
In78 O87 2.326 . S
In78 O89 2.294 . S
In78 O90 2.326 . S
O79 In78 2.294 . S
O79 C88 1.240 . S
O80 In78 2.326 . S
O80 C88 1.252 . S
C81 O84 1.252 . S
C81 O85 1.260 . S
C82 O89 1.240 . S
C82 O90 1.252 . S
C83 O86 1.252 . S
C83 O87 1.260 . S
O84 In78 2.266 . S
O84 C81 1.252 . S
O85 In78 2.326 . S
O85 C81 1.260 . S
O86 In78 2.266 . S
O86 C83 1.252 . S
O87 In78 2.326 . S
O87 C83 1.260 . S
C88 O79 1.240 . S
C88 O80 1.252 . S
O89 In78 2.294 . S
O89 C82 1.240 . S
O90 In78 2.326 . S
O90 C82 1.252 . S
In91 O92 2.294 . S
In91 O93 2.326 . S
In91 O97 2.266 . S
In91 O98 2.326 . S
In91 O99 2.266 . S
In91 O100 2.326 . S
In91 O102 2.294 . S
In91 O103 2.326 . S
O92 In91 2.294 . S
O92 C101 1.240 . S
O93 In91 2.326 . S
O93 C101 1.252 . S
C94 O97 1.252 . S
C94 O98 1.260 . S
C95 O102 1.240 . S
C95 O103 1.252 . S
C96 O99 1.252 . S
C96 O100 1.260 . S
O97 In91 2.266 . S
O97 C94 1.252 . S
O98 In91 2.326 . S
O98 C94 1.260 . S
O99 In91 2.266 . S
O99 C96 1.252 . S
O100 In91 2.326 . S
O100 C96 1.260 . S
C101 O92 1.240 . S
C101 O93 1.252 . S
O102 In91 2.294 . S
O102 C95 1.240 . S
O103 In91 2.326 . S
O103 C95 1.252 . S
In104 O105 2.294 . S
In104 O106 2.326 . S
In104 O110 2.266 . S
In104 O111 2.326 . S
In104 O112 2.266 . S
In104 O113 2.326 . S
In104 O115 2.294 . S
In104 O116 2.326 . S
O105 In104 2.294 . S
O105 C114 1.240 . S
O106 In104 2.326 . S
O106 C114 1.252 . S
C107 O110 1.252 . S
C107 O111 1.260 . S
C108 O115 1.240 . S
C108 O116 1.252 . S
C109 O112 1.252 . S
C109 O113 1.260 . S
O110 In104 2.266 . S
O110 C107 1.252 . S
O111 In104 2.326 . S
O111 C107 1.260 . S
O112 In104 2.266 . S
O112 C109 1.252 . S
O113 In104 2.326 . S
O113 C109 1.260 . S
C114 O105 1.240 . S
C114 O106 1.252 . S
O115 In104 2.294 . S
O115 C108 1.240 . S
O116 In104 2.326 . S
O116 C108 1.252 . S
In117 O118 2.294 . S
In117 O119 2.326 . S
In117 O123 2.266 . S
In117 O124 2.326 . S
In117 O125 2.266 . S
In117 O126 2.326 . S
In117 O128 2.294 . S
In117 O129 2.326 . S
O118 In117 2.294 . S
O118 C127 1.240 . S
O119 In117 2.326 . S
O119 C127 1.252 . S
C120 O123 1.252 . S
C120 O124 1.260 . S
C121 O128 1.240 . S
C121 O129 1.252 . S
C122 O125 1.252 . S
C122 O126 1.260 . S
O123 In117 2.266 . S
O123 C120 1.252 . S
O124 In117 2.326 . S
O124 C120 1.260 . S
O125 In117 2.266 . S
O125 C122 1.252 . S
O126 In117 2.326 . S
O126 C122 1.260 . S
C127 O118 1.240 . S
C127 O119 1.252 . S
O128 In117 2.294 . S
O128 C121 1.240 . S
O129 In117 2.326 . S
O129 C121 1.252 . S
In130 O131 2.294 . S
In130 O132 2.326 . S
In130 O136 2.266 . S
In130 O137 2.326 . S
In130 O138 2.266 . S
In130 O139 2.326 . S
In130 O141 2.294 . S
In130 O142 2.326 . S
O131 In130 2.294 . S
O131 C140 1.240 . S
O132 In130 2.326 . S
O132 C140 1.252 . S
C133 O136 1.252 . S
C133 O137 1.260 . S
C134 O141 1.240 . S
C134 O142 1.252 . S
C135 O138 1.252 . S
C135 O139 1.260 . S
O136 In130 2.266 . S
O136 C133 1.252 . S
O137 In130 2.326 . S
O137 C133 1.260 . S
O138 In130 2.266 . S
O138 C135 1.252 . S
O139 In130 2.326 . S
O139 C135 1.260 . S
C140 O131 1.240 . S
C140 O132 1.252 . S
O141 In130 2.294 . S
O141 C134 1.240 . S
O142 In130 2.326 . S
O142 C134 1.252 . S
In143 O144 2.294 . S
In143 O145 2.326 . S
In143 O149 2.266 . S
In143 O150 2.326 . S
In143 O151 2.266 . S
In143 O152 2.326 . S
In143 O154 2.294 . S
In143 O155 2.326 . S
O144 In143 2.294 . S
O144 C153 1.240 . S
O145 In143 2.326 . S
O145 C153 1.252 . S
C146 O149 1.252 . S
C146 O150 1.260 . S
C147 O154 1.240 . S
C147 O155 1.252 . S
C148 O151 1.252 . S
C148 O152 1.260 . S
O149 In143 2.266 . S
O149 C146 1.252 . S
O150 In143 2.326 . S
O150 C146 1.260 . S
O151 In143 2.266 . S
O151 C148 1.252 . S
O152 In143 2.326 . S
O152 C148 1.260 . S
C153 O144 1.240 . S
C153 O145 1.252 . S
O154 In143 2.294 . S
O154 C147 1.240 . S
O155 In143 2.326 . S
O155 C147 1.252 . S
In156 O157 2.294 . S
In156 O158 2.326 . S
In156 O162 2.266 . S
In156 O163 2.326 . S
In156 O164 2.266 . S
In156 O165 2.326 . S
In156 O167 2.294 . S
In156 O168 2.326 . S
O157 In156 2.294 . S
O157 C166 1.240 . S
O158 In156 2.326 . S
O158 C166 1.252 . S
C159 O162 1.252 . S
C159 O163 1.260 . S
C160 O167 1.240 . S
C160 O168 1.252 . S
C161 O164 1.252 . S
C161 O165 1.260 . S
O162 In156 2.266 . S
O162 C159 1.252 . S
O163 In156 2.326 . S
O163 C159 1.260 . S
O164 In156 2.266 . S
O164 C161 1.252 . S
O165 In156 2.326 . S
O165 C161 1.260 . S
C166 O157 1.240 . S
C166 O158 1.252 . S
O167 In156 2.294 . S
O167 C160 1.240 . S
O168 In156 2.326 . S
O168 C160 1.252 . S
In169 O170 2.294 . S
In169 O171 2.326 . S
In169 O175 2.266 . S
In169 O176 2.326 . S
In169 O177 2.266 . S
In169 O178 2.326 . S
In169 O180 2.294 . S
In169 O181 2.326 . S
O170 In169 2.294 . S
O170 C179 1.240 . S
O171 In169 2.326 . S
O171 C179 1.252 . S
C172 O175 1.252 . S
C172 O176 1.260 . S
C173 O180 1.240 . S
C173 O181 1.252 . S
C174 O177 1.252 . S
C174 O178 1.260 . S
O175 In169 2.266 . S
O175 C172 1.252 . S
O176 In169 2.326 . S
O176 C172 1.260 . S
O177 In169 2.266 . S
O177 C174 1.252 . S
O178 In169 2.326 . S
O178 C174 1.260 . S
C179 O170 1.240 . S
C179 O171 1.252 . S
O180 In169 2.294 . S
O180 C173 1.240 . S
O181 In169 2.326 . S
O181 C173 1.252 . S
In182 O183 2.294 . S
In182 O184 2.326 . S
In182 O188 2.266 . S
In182 O189 2.326 . S
In182 O190 2.266 . S
In182 O191 2.326 . S
In182 O193 2.294 . S
In182 O194 2.326 . S
O183 In182 2.294 . S
O183 C192 1.240 . S
O184 In182 2.326 . S
O184 C192 1.252 . S
C185 O188 1.252 . S
C185 O189 1.260 . S
C186 O193 1.240 . S
C186 O194 1.252 . S
C187 O190 1.252 . S
C187 O191 1.260 . S
O188 In182 2.266 . S
O188 C185 1.252 . S
O189 In182 2.326 . S
O189 C185 1.260 . S
O190 In182 2.266 . S
O190 C187 1.252 . S
O191 In182 2.326 . S
O191 C187 1.260 . S
C192 O183 1.240 . S
C192 O184 1.252 . S
O193 In182 2.294 . S
O193 C186 1.240 . S
O194 In182 2.326 . S
O194 C186 1.252 . S
In195 O196 2.294 . S
In195 O197 2.326 . S
In195 O201 2.266 . S
In195 O202 2.326 . S
In195 O203 2.266 . S
In195 O204 2.326 . S
In195 O206 2.294 . S
In195 O207 2.326 . S
O196 In195 2.294 . S
O196 C205 1.240 . S
O197 In195 2.326 . S
O197 C205 1.252 . S
C198 O201 1.252 . S
C198 O202 1.260 . S
C199 O206 1.240 . S
C199 O207 1.252 . S
C200 O203 1.252 . S
C200 O204 1.260 . S
O201 In195 2.266 . S
O201 C198 1.252 . S
O202 In195 2.326 . S
O202 C198 1.260 . S
O203 In195 2.266 . S
O203 C200 1.252 . S
O204 In195 2.326 . S
O204 C200 1.260 . S
C205 O196 1.240 . S
C205 O197 1.252 . S
O206 In195 2.294 . S
O206 C199 1.240 . S
O207 In195 2.326 . S
O207 C199 1.252 . S
In208 O209 2.294 . S
In208 O210 2.326 . S
In208 O214 2.266 . S
In208 O215 2.326 . S
In208 O216 2.266 . S
In208 O217 2.326 . S
In208 O219 2.294 . S
In208 O220 2.326 . S
O209 In208 2.294 . S
O209 C218 1.240 . S
O210 In208 2.326 . S
O210 C218 1.252 . S
C211 O214 1.252 . S
C211 O215 1.260 . S
C212 O219 1.240 . S
C212 O220 1.252 . S
C213 O216 1.252 . S
C213 O217 1.260 . S
O214 In208 2.266 . S
O214 C211 1.252 . S
O215 In208 2.326 . S
O215 C211 1.260 . S
O216 In208 2.266 . S
O216 C213 1.252 . S
O217 In208 2.326 . S
O217 C213 1.260 . S
C218 O209 1.240 . S
C218 O210 1.252 . S
O219 In208 2.294 . S
O219 C212 1.240 . S
O220 In208 2.326 . S
O220 C212 1.252 . S
In221 O222 2.294 . S
In221 O223 2.326 . S
In221 O227 2.266 . S
In221 O228 2.326 . S
In221 O229 2.266 . S
In221 O230 2.326 . S
In221 O232 2.294 . S
In221 O233 2.326 . S
O222 In221 2.294 . S
O222 C231 1.240 . S
O223 In221 2.326 . S
O223 C231 1.252 . S
C224 O227 1.252 . S
C224 O228 1.260 . S
C225 O232 1.240 . S
C225 O233 1.252 . S
C226 O229 1.252 . S
C226 O230 1.260 . S
O227 In221 2.266 . S
O227 C224 1.252 . S
O228 In221 2.326 . S
O228 C224 1.260 . S
O229 In221 2.266 . S
O229 C226 1.252 . S
O230 In221 2.326 . S
O230 C226 1.260 . S
C231 O222 1.240 . S
C231 O223 1.252 . S
O232 In221 2.294 . S
O232 C225 1.240 . S
O233 In221 2.326 . S
O233 C225 1.252 . S
In234 O235 2.294 . S
In234 O236 2.326 . S
In234 O240 2.266 . S
In234 O241 2.326 . S
In234 O242 2.266 . S
In234 O243 2.326 . S
In234 O245 2.294 . S
In234 O246 2.326 . S
O235 In234 2.294 . S
O235 C244 1.240 . S
O236 In234 2.326 . S
O236 C244 1.252 . S
C237 O240 1.252 . S
C237 O241 1.260 . S
C238 O245 1.240 . S
C238 O246 1.252 . S
C239 O242 1.252 . S
C239 O243 1.260 . S
O240 In234 2.266 . S
O240 C237 1.252 . S
O241 In234 2.326 . S
O241 C237 1.260 . S
O242 In234 2.266 . S
O242 C239 1.252 . S
O243 In234 2.326 . S
O243 C239 1.260 . S
C244 O235 1.240 . S
C244 O236 1.252 . S
O245 In234 2.294 . S
O245 C238 1.240 . S
O246 In234 2.326 . S
O246 C238 1.252 . S
In247 O248 2.294 . S
In247 O249 2.326 . S
In247 O253 2.266 . S
In247 O254 2.326 . S
In247 O255 2.266 . S
In247 O256 2.326 . S
In247 O258 2.294 . S
In247 O259 2.326 . S
O248 In247 2.294 . S
O248 C257 1.240 . S
O249 In247 2.326 . S
O249 C257 1.252 . S
C250 O253 1.252 . S
C250 O254 1.260 . S
C251 O258 1.240 . S
C251 O259 1.252 . S
C252 O255 1.252 . S
C252 O256 1.260 . S
O253 In247 2.266 . S
O253 C250 1.252 . S
O254 In247 2.326 . S
O254 C250 1.260 . S
O255 In247 2.266 . S
O255 C252 1.252 . S
O256 In247 2.326 . S
O256 C252 1.260 . S
C257 O248 1.240 . S
C257 O249 1.252 . S
O258 In247 2.294 . S
O258 C251 1.240 . S
O259 In247 2.326 . S
O259 C251 1.252 . S
In260 O261 2.294 . S
In260 O262 2.326 . S
In260 O266 2.266 . S
In260 O267 2.326 . S
In260 O268 2.266 . S
In260 O269 2.326 . S
In260 O271 2.294 . S
In260 O272 2.326 . S
O261 In260 2.294 . S
O261 C270 1.240 . S
O262 In260 2.326 . S
O262 C270 1.252 . S
C263 O266 1.252 . S
C263 O267 1.260 . S
C264 O271 1.240 . S
C264 O272 1.252 . S
C265 O268 1.252 . S
C265 O269 1.260 . S
O266 In260 2.266 . S
O266 C263 1.252 . S
O267 In260 2.326 . S
O267 C263 1.260 . S
O268 In260 2.266 . S
O268 C265 1.252 . S
O269 In260 2.326 . S
O269 C265 1.260 . S
C270 O261 1.240 . S
C270 O262 1.252 . S
O271 In260 2.294 . S
O271 C264 1.240 . S
O272 In260 2.326 . S
O272 C264 1.252 . S
In273 O274 2.294 . S
In273 O275 2.326 . S
In273 O279 2.266 . S
In273 O280 2.326 . S
In273 O281 2.266 . S
In273 O282 2.326 . S
In273 O284 2.294 . S
In273 O285 2.326 . S
O274 In273 2.294 . S
O274 C283 1.240 . S
O275 In273 2.326 . S
O275 C283 1.252 . S
C276 O279 1.252 . S
C276 O280 1.260 . S
C277 O284 1.240 . S
C277 O285 1.252 . S
C278 O281 1.252 . S
C278 O282 1.260 . S
O279 In273 2.266 . S
O279 C276 1.252 . S
O280 In273 2.326 . S
O280 C276 1.260 . S
O281 In273 2.266 . S
O281 C278 1.252 . S
O282 In273 2.326 . S
O282 C278 1.260 . S
C283 O274 1.240 . S
C283 O275 1.252 . S
O284 In273 2.294 . S
O284 C277 1.240 . S
O285 In273 2.326 . S
O285 C277 1.252 . S
In286 O287 2.294 . S
In286 O288 2.326 . S
In286 O292 2.266 . S
In286 O293 2.326 . S
In286 O294 2.266 . S
In286 O295 2.326 . S
In286 O297 2.294 . S
In286 O298 2.326 . S
O287 In286 2.294 . S
O287 C296 1.240 . S
O288 In286 2.326 . S
O288 C296 1.252 . S
C289 O292 1.252 . S
C289 O293 1.260 . S
C290 O297 1.240 . S
C290 O298 1.252 . S
C291 O294 1.252 . S
C291 O295 1.260 . S
O292 In286 2.266 . S
O292 C289 1.252 . S
O293 In286 2.326 . S
O293 C289 1.260 . S
O294 In286 2.266 . S
O294 C291 1.252 . S
O295 In286 2.326 . S
O295 C291 1.260 . S
C296 O287 1.240 . S
C296 O288 1.252 . S
O297 In286 2.294 . S
O297 C290 1.240 . S
O298 In286 2.326 . S
O298 C290 1.252 . S
In299 O300 2.294 . S
In299 O301 2.326 . S
In299 O305 2.266 . S
In299 O306 2.326 . S
In299 O307 2.266 . S
In299 O308 2.326 . S
In299 O310 2.294 . S
In299 O311 2.326 . S
O300 In299 2.294 . S
O300 C309 1.240 . S
O301 In299 2.326 . S
O301 C309 1.252 . S
C302 O305 1.252 . S
C302 O306 1.260 . S
C303 O310 1.240 . S
C303 O311 1.252 . S
C304 O307 1.252 . S
C304 O308 1.260 . S
O305 In299 2.266 . S
O305 C302 1.252 . S
O306 In299 2.326 . S
O306 C302 1.260 . S
O307 In299 2.266 . S
O307 C304 1.252 . S
O308 In299 2.326 . S
O308 C304 1.260 . S
C309 O300 1.240 . S
C309 O301 1.252 . S
O310 In299 2.294 . S
O310 C303 1.240 . S
O311 In299 2.326 . S
O311 C303 1.252 . S
In312 O313 2.294 . S
In312 O314 2.326 . S
In312 O318 2.266 . S
In312 O319 2.326 . S
In312 O320 2.266 . S
In312 O321 2.326 . S
In312 O323 2.294 . S
In312 O324 2.326 . S
O313 In312 2.294 . S
O313 C322 1.240 . S
O314 In312 2.326 . S
O314 C322 1.252 . S
C315 O318 1.252 . S
C315 O319 1.260 . S
C316 O323 1.240 . S
C316 O324 1.252 . S
C317 O320 1.252 . S
C317 O321 1.260 . S
O318 In312 2.266 . S
O318 C315 1.252 . S
O319 In312 2.326 . S
O319 C315 1.260 . S
O320 In312 2.266 . S
O320 C317 1.252 . S
O321 In312 2.326 . S
O321 C317 1.260 . S
C322 O313 1.240 . S
C322 O314 1.252 . S
O323 In312 2.294 . S
O323 C316 1.240 . S
O324 In312 2.326 . S
O324 C316 1.252 . S
In325 O326 2.294 . S
In325 O327 2.326 . S
In325 O331 2.266 . S
In325 O332 2.326 . S
In325 O333 2.266 . S
In325 O334 2.326 . S
In325 O336 2.294 . S
In325 O337 2.326 . S
O326 In325 2.294 . S
O326 C335 1.240 . S
O327 In325 2.326 . S
O327 C335 1.252 . S
C328 O331 1.252 . S
C328 O332 1.260 . S
C329 O336 1.240 . S
C329 O337 1.252 . S
C330 O333 1.252 . S
C330 O334 1.260 . S
O331 In325 2.266 . S
O331 C328 1.252 . S
O332 In325 2.326 . S
O332 C328 1.260 . S
O333 In325 2.266 . S
O333 C330 1.252 . S
O334 In325 2.326 . S
O334 C330 1.260 . S
C335 O326 1.240 . S
C335 O327 1.252 . S
O336 In325 2.294 . S
O336 C329 1.240 . S
O337 In325 2.326 . S
O337 C329 1.252 . S
In338 O339 2.294 . S
In338 O340 2.326 . S
In338 O344 2.266 . S
In338 O345 2.326 . S
In338 O346 2.266 . S
In338 O347 2.326 . S
In338 O349 2.294 . S
In338 O350 2.326 . S
O339 In338 2.294 . S
O339 C348 1.240 . S
O340 In338 2.326 . S
O340 C348 1.252 . S
C341 O344 1.252 . S
C341 O345 1.260 . S
C342 O349 1.240 . S
C342 O350 1.252 . S
C343 O346 1.252 . S
C343 O347 1.260 . S
O344 In338 2.266 . S
O344 C341 1.252 . S
O345 In338 2.326 . S
O345 C341 1.260 . S
O346 In338 2.266 . S
O346 C343 1.252 . S
O347 In338 2.326 . S
O347 C343 1.260 . S
C348 O339 1.240 . S
C348 O340 1.252 . S
O349 In338 2.294 . S
O349 C342 1.240 . S
O350 In338 2.326 . S
O350 C342 1.252 . S
In351 O352 2.294 . S
In351 O353 2.326 . S
In351 O357 2.266 . S
In351 O358 2.326 . S
In351 O359 2.266 . S
In351 O360 2.326 . S
In351 O362 2.294 . S
In351 O363 2.326 . S
O352 In351 2.294 . S
O352 C361 1.240 . S
O353 In351 2.326 . S
O353 C361 1.252 . S
C354 O357 1.252 . S
C354 O358 1.260 . S
C355 O362 1.240 . S
C355 O363 1.252 . S
C356 O359 1.252 . S
C356 O360 1.260 . S
O357 In351 2.266 . S
O357 C354 1.252 . S
O358 In351 2.326 . S
O358 C354 1.260 . S
O359 In351 2.266 . S
O359 C356 1.252 . S
O360 In351 2.326 . S
O360 C356 1.260 . S
C361 O352 1.240 . S
C361 O353 1.252 . S
O362 In351 2.294 . S
O362 C355 1.240 . S
O363 In351 2.326 . S
O363 C355 1.252 . S
In364 O365 2.294 . S
In364 O366 2.326 . S
In364 O370 2.266 . S
In364 O371 2.326 . S
In364 O372 2.266 . S
In364 O373 2.326 . S
In364 O375 2.294 . S
In364 O376 2.326 . S
O365 In364 2.294 . S
O365 C374 1.240 . S
O366 In364 2.326 . S
O366 C374 1.252 . S
C367 O370 1.252 . S
C367 O371 1.260 . S
C368 O375 1.240 . S
C368 O376 1.252 . S
C369 O372 1.252 . S
C369 O373 1.260 . S
O370 In364 2.266 . S
O370 C367 1.252 . S
O371 In364 2.326 . S
O371 C367 1.260 . S
O372 In364 2.266 . S
O372 C369 1.252 . S
O373 In364 2.326 . S
O373 C369 1.260 . S
C374 O365 1.240 . S
C374 O366 1.252 . S
O375 In364 2.294 . S
O375 C368 1.240 . S
O376 In364 2.326 . S
O376 C368 1.252 . S
In377 O378 2.294 . S
In377 O379 2.326 . S
In377 O383 2.266 . S
In377 O384 2.326 . S
In377 O385 2.266 . S
In377 O386 2.326 . S
In377 O388 2.294 . S
In377 O389 2.326 . S
O378 In377 2.294 . S
O378 C387 1.240 . S
O379 In377 2.326 . S
O379 C387 1.252 . S
C380 O383 1.252 . S
C380 O384 1.260 . S
C381 O388 1.240 . S
C381 O389 1.252 . S
C382 O385 1.252 . S
C382 O386 1.260 . S
O383 In377 2.266 . S
O383 C380 1.252 . S
O384 In377 2.326 . S
O384 C380 1.260 . S
O385 In377 2.266 . S
O385 C382 1.252 . S
O386 In377 2.326 . S
O386 C382 1.260 . S
C387 O378 1.240 . S
C387 O379 1.252 . S
O388 In377 2.294 . S
O388 C381 1.240 . S
O389 In377 2.326 . S
O389 C381 1.252 . S
In390 O391 2.294 . S
In390 O392 2.326 . S
In390 O396 2.266 . S
In390 O397 2.326 . S
In390 O398 2.266 . S
In390 O399 2.326 . S
In390 O401 2.294 . S
In390 O402 2.326 . S
O391 In390 2.294 . S
O391 C400 1.240 . S
O392 In390 2.326 . S
O392 C400 1.252 . S
C393 O396 1.252 . S
C393 O397 1.260 . S
C394 O401 1.240 . S
C394 O402 1.252 . S
C395 O398 1.252 . S
C395 O399 1.260 . S
O396 In390 2.266 . S
O396 C393 1.252 . S
O397 In390 2.326 . S
O397 C393 1.260 . S
O398 In390 2.266 . S
O398 C395 1.252 . S
O399 In390 2.326 . S
O399 C395 1.260 . S
C400 O391 1.240 . S
C400 O392 1.252 . S
O401 In390 2.294 . S
O401 C394 1.240 . S
O402 In390 2.326 . S
O402 C394 1.252 . S
In403 O404 2.294 . S
In403 O405 2.326 . S
In403 O409 2.266 . S
In403 O410 2.326 . S
In403 O411 2.266 . S
In403 O412 2.326 . S
In403 O414 2.294 . S
In403 O415 2.326 . S
O404 In403 2.294 . S
O404 C413 1.240 . S
O405 In403 2.326 . S
O405 C413 1.252 . S
C406 O409 1.252 . S
C406 O410 1.260 . S
C407 O414 1.240 . S
C407 O415 1.252 . S
C408 O411 1.252 . S
C408 O412 1.260 . S
O409 In403 2.266 . S
O409 C406 1.252 . S
O410 In403 2.326 . S
O410 C406 1.260 . S
O411 In403 2.266 . S
O411 C408 1.252 . S
O412 In403 2.326 . S
O412 C408 1.260 . S
C413 O404 1.240 . S
C413 O405 1.252 . S
O414 In403 2.294 . S
O414 C407 1.240 . S
O415 In403 2.326 . S
O415 C407 1.252 . S
In416 O417 2.294 . S
In416 O418 2.326 . S
In416 O422 2.266 . S
In416 O423 2.326 . S
In416 O424 2.266 . S
In416 O425 2.326 . S
In416 O427 2.294 . S
In416 O428 2.326 . S
O417 In416 2.294 . S
O417 C426 1.240 . S
O418 In416 2.326 . S
O418 C426 1.252 . S
C419 O422 1.252 . S
C419 O423 1.260 . S
C420 O427 1.240 . S
C420 O428 1.252 . S
C421 O424 1.252 . S
C421 O425 1.260 . S
O422 In416 2.266 . S
O422 C419 1.252 . S
O423 In416 2.326 . S
O423 C419 1.260 . S
O424 In416 2.266 . S
O424 C421 1.252 . S
O425 In416 2.326 . S
O425 C421 1.260 . S
C426 O417 1.240 . S
C426 O418 1.252 . S
O427 In416 2.294 . S
O427 C420 1.240 . S
O428 In416 2.326 . S
O428 C420 1.252 . S
In429 O430 2.294 . S
In429 O431 2.326 . S
In429 O435 2.266 . S
In429 O436 2.326 . S
In429 O437 2.266 . S
In429 O438 2.326 . S
In429 O440 2.294 . S
In429 O441 2.326 . S
O430 In429 2.294 . S
O430 C439 1.240 . S
O431 In429 2.326 . S
O431 C439 1.252 . S
C432 O435 1.252 . S
C432 O436 1.260 . S
C433 O440 1.240 . S
C433 O441 1.252 . S
C434 O437 1.252 . S
C434 O438 1.260 . S
O435 In429 2.266 . S
O435 C432 1.252 . S
O436 In429 2.326 . S
O436 C432 1.260 . S
O437 In429 2.266 . S
O437 C434 1.252 . S
O438 In429 2.326 . S
O438 C434 1.260 . S
C439 O430 1.240 . S
C439 O431 1.252 . S
O440 In429 2.294 . S
O440 C433 1.240 . S
O441 In429 2.326 . S
O441 C433 1.252 . S
In442 O443 2.294 . S
In442 O444 2.326 . S
In442 O448 2.266 . S
In442 O449 2.326 . S
In442 O450 2.266 . S
In442 O451 2.326 . S
In442 O453 2.294 . S
In442 O454 2.326 . S
O443 In442 2.294 . S
O443 C452 1.240 . S
O444 In442 2.326 . S
O444 C452 1.252 . S
C445 O448 1.252 . S
C445 O449 1.260 . S
C446 O453 1.240 . S
C446 O454 1.252 . S
C447 O450 1.252 . S
C447 O451 1.260 . S
O448 In442 2.266 . S
O448 C445 1.252 . S
O449 In442 2.326 . S
O449 C445 1.260 . S
O450 In442 2.266 . S
O450 C447 1.252 . S
O451 In442 2.326 . S
O451 C447 1.260 . S
C452 O443 1.240 . S
C452 O444 1.252 . S
O453 In442 2.294 . S
O453 C446 1.240 . S
O454 In442 2.326 . S
O454 C446 1.252 . S
In455 O456 2.294 . S
In455 O457 2.326 . S
In455 O461 2.266 . S
In455 O462 2.326 . S
In455 O463 2.266 . S
In455 O464 2.326 . S
In455 O466 2.294 . S
In455 O467 2.326 . S
O456 In455 2.294 . S
O456 C465 1.240 . S
O457 In455 2.326 . S
O457 C465 1.252 . S
C458 O461 1.252 . S
C458 O462 1.260 . S
C459 O466 1.240 . S
C459 O467 1.252 . S
C460 O463 1.252 . S
C460 O464 1.260 . S
O461 In455 2.266 . S
O461 C458 1.252 . S
O462 In455 2.326 . S
O462 C458 1.260 . S
O463 In455 2.266 . S
O463 C460 1.252 . S
O464 In455 2.326 . S
O464 C460 1.260 . S
C465 O456 1.240 . S
C465 O457 1.252 . S
O466 In455 2.294 . S
O466 C459 1.240 . S
O467 In455 2.326 . S
O467 C459 1.252 . S
C468 C469 1.349 . S
C468 C470 1.327 . S
C468 H493 0.950 . S
C469 C468 1.349 . S
C469 C485 1.349 . S
C470 C468 1.327 . S
C470 C489 1.429 . S
C470 H494 0.950 . S
C471 C488 1.579 . S
C471 C490 1.365 1_545 S
C471 H495 0.945 . S
H472 C476 0.945 . S
C473 C474 1.349 . S
C473 C475 1.327 . S
C473 H496 0.950 . S
C474 C473 1.349 . S
C474 C486 1.349 . S
C475 C473 1.327 . S
C475 C491 1.429 . S
C475 H497 0.950 . S
C476 H472 0.945 . S
C476 C484 1.580 . S
C476 C492 1.365 1_565 S
H477 C485 0.950 . S
H478 C483 0.950 . S
H479 C484 0.949 . S
H480 C486 0.950 . S
H481 C487 0.950 . S
H482 C488 0.949 . S
C483 H478 0.950 . S
C483 C485 1.327 . S
C483 C489 1.429 . S
C484 C476 1.580 . S
C484 H479 0.949 . S
C484 C490 1.368 . S
C485 C469 1.349 . S
C485 H477 0.950 . S
C485 C483 1.327 . S
C486 C474 1.349 . S
C486 H480 0.950 . S
C486 C487 1.327 . S
C487 H481 0.950 . S
C487 C486 1.327 . S
C487 C491 1.429 . S
C488 C471 1.579 . S
C488 H482 0.949 . S
C488 C492 1.368 . S
C489 C470 1.429 . S
C489 C483 1.429 . S
C489 C490 1.523 . S
C490 C471 1.365 1_565 S
C490 C484 1.368 . S
C490 C489 1.523 . S
C491 C475 1.429 . S
C491 C487 1.429 . S
C491 C492 1.523 . S
C492 C476 1.365 1_545 S
C492 C488 1.368 . S
C492 C491 1.523 . S
H493 C468 0.950 . S
H494 C470 0.950 . S
H495 C471 0.945 . S
H496 C473 0.950 . S
H497 C475 0.950 . S
C498 C499 1.349 . S
C498 C500 1.327 . S
C498 H523 0.950 . S
C499 C498 1.349 . S
C499 C515 1.349 . S
C500 C498 1.327 . S
C500 C519 1.429 . S
C500 H524 0.950 . S
C501 C518 1.574 . S
C501 C520 1.368 . S
C501 H525 0.949 . S
H502 C506 0.949 . S
C503 C504 1.349 . S
C503 C505 1.327 . S
C503 H526 0.950 . S
C504 C503 1.349 . S
C504 C516 1.349 . S
C505 C503 1.327 . S
C505 C521 1.429 . S
C505 H527 0.950 . S
C506 H502 0.949 . S
C506 C514 1.574 . S
C506 C522 1.368 . S
H507 C515 0.950 . S
H508 C513 0.950 . S
H509 C514 0.949 . S
H510 C516 0.950 . S
H511 C517 0.950 . S
H512 C518 0.949 . S
C513 H508 0.950 . S
C513 C515 1.327 . S
C513 C519 1.429 . S
C514 C506 1.574 . S
C514 H509 0.949 . S
C514 C520 1.368 1_455 S
C515 C499 1.349 . S
C515 H507 0.950 . S
C515 C513 1.327 . S
C516 C504 1.349 . S
C516 H510 0.950 . S
C516 C517 1.327 . S
C517 H511 0.950 . S
C517 C516 1.327 . S
C517 C521 1.429 . S
C518 C501 1.574 . S
C518 H512 0.949 . S
C518 C522 1.368 1_655 S
C519 C500 1.429 . S
C519 C513 1.429 . S
C519 C520 1.523 . S
C520 C501 1.368 . S
C520 C514 1.368 1_655 S
C520 C519 1.523 . S
C521 C505 1.429 . S
C521 C517 1.429 . S
C521 C522 1.523 . S
C522 C506 1.368 . S
C522 C518 1.368 1_455 S
C522 C521 1.523 . S
H523 C498 0.950 . S
H524 C500 0.950 . S
H525 C501 0.949 . S
H526 C503 0.950 . S
H527 C505 0.950 . S
C528 C529 1.349 . S
C528 C530 1.327 . S
C528 H553 0.950 . S
C529 C528 1.349 . S
C529 C545 1.349 . S
C530 C528 1.327 . S
C530 C549 1.429 . S
C530 H554 0.950 . S
C531 C548 1.574 . S
C531 C550 1.368 . S
C531 H555 0.949 . S
H532 C536 0.949 . S
C533 C534 1.349 . S
C533 C535 1.327 . S
C533 H556 0.950 . S
C534 C533 1.349 . S
C534 C546 1.349 . S
C535 C533 1.327 . S
C535 C551 1.429 . S
C535 H557 0.950 . S
C536 H532 0.949 . S
C536 C544 1.574 . S
C536 C552 1.368 . S
H537 C545 0.950 . S
H538 C543 0.950 . S
H539 C544 0.949 . S
H540 C546 0.950 . S
H541 C547 0.950 . S
H542 C548 0.949 . S
C543 H538 0.950 . S
C543 C545 1.327 . S
C543 C549 1.429 . S
C544 C536 1.574 . S
C544 H539 0.949 . S
C544 C550 1.368 . S
C545 C529 1.349 . S
C545 H537 0.950 . S
C545 C543 1.327 . S
C546 C534 1.349 . S
C546 H540 0.950 . S
C546 C547 1.327 . S
C547 H541 0.950 . S
C547 C546 1.327 . S
C547 C551 1.429 . S
C548 C531 1.574 . S
C548 H542 0.949 . S
C548 C552 1.368 . S
C549 C530 1.429 . S
C549 C543 1.429 . S
C549 C550 1.523 . S
C550 C531 1.368 . S
C550 C544 1.368 . S
C550 C549 1.523 . S
C551 C535 1.429 . S
C551 C547 1.429 . S
C551 C552 1.523 . S
C552 C536 1.368 . S
C552 C548 1.368 . S
C552 C551 1.523 . S
H553 C528 0.950 . S
H554 C530 0.950 . S
H555 C531 0.949 . S
H556 C533 0.950 . S
H557 C535 0.950 . S
C558 C559 1.349 . S
C558 C560 1.327 . S
C558 H583 0.950 . S
C559 C558 1.349 . S
C559 C575 1.349 . S
C560 C558 1.327 . S
C560 C579 1.429 . S
C560 H584 0.950 . S
C561 C578 1.633 . S
C561 C580 1.330 1_545 S
C561 H585 0.937 . S
H562 C566 0.937 . S
C563 C564 1.349 . S
C563 C565 1.327 . S
C563 H586 0.950 . S
C564 C563 1.349 . S
C564 C576 1.349 . S
C565 C563 1.327 . S
C565 C581 1.429 . S
C565 H587 0.950 . S
C566 H562 0.937 . S
C566 C574 1.633 . S
C566 C582 1.330 1_565 S
H567 C575 0.950 . S
H568 C573 0.950 . S
H569 C574 0.949 . S
H570 C576 0.950 . S
H571 C577 0.950 . S
H572 C578 0.949 . S
C573 H568 0.950 . S
C573 C575 1.327 . S
C573 C579 1.429 . S
C574 C566 1.633 . S
C574 H569 0.949 . S
C574 C580 1.368 . S
C575 C559 1.349 . S
C575 H567 0.950 . S
C575 C573 1.327 . S
C576 C564 1.349 . S
C576 H570 0.950 . S
C576 C577 1.327 . S
C577 H571 0.950 . S
C577 C576 1.327 . S
C577 C581 1.429 . S
C578 C561 1.633 . S
C578 H572 0.949 . S
C578 C582 1.368 . S
C579 C560 1.429 . S
C579 C573 1.429 . S
C579 C580 1.523 . S
C580 C561 1.330 1_565 S
C580 C574 1.368 . S
C580 C579 1.523 . S
C581 C565 1.429 . S
C581 C577 1.429 . S
C581 C582 1.523 . S
C582 C566 1.330 1_545 S
C582 C578 1.368 . S
C582 C581 1.523 . S
H583 C558 0.950 . S
H584 C560 0.950 . S
H585 C561 0.937 . S
H586 C563 0.950 . S
H587 C565 0.950 . S
C588 C589 1.349 . S
C588 C590 1.327 . S
C588 H613 0.950 . S
C589 C588 1.349 . S
C589 C605 1.349 . S
C590 C588 1.327 . S
C590 C609 1.429 . S
C590 H614 0.950 . S
C591 C608 1.573 . S
C591 C610 1.369 1_655 S
C591 H615 0.950 1_655 S
H592 C596 0.950 1_655 S
C593 C594 1.349 . S
C593 C595 1.327 . S
C593 H616 0.950 . S
C594 C593 1.349 . S
C594 C606 1.349 . S
C595 C593 1.327 . S
C595 C611 1.429 . S
C595 H617 0.950 . S
C596 H592 0.950 1_455 S
C596 C604 1.573 . S
C596 C612 1.369 1_455 S
H597 C605 0.950 . S
H598 C603 0.950 . S
H599 C604 0.949 . S
H600 C606 0.950 . S
H601 C607 0.950 . S
H602 C608 0.949 . S
C603 H598 0.950 . S
C603 C605 1.327 . S
C603 C609 1.429 . S
C604 C596 1.573 . S
C604 H599 0.949 . S
C604 C610 1.368 . S
C605 C589 1.349 . S
C605 H597 0.950 . S
C605 C603 1.327 . S
C606 C594 1.349 . S
C606 H600 0.950 . S
C606 C607 1.327 . S
C607 H601 0.950 . S
C607 C606 1.327 . S
C607 C611 1.429 . S
C608 C591 1.573 . S
C608 H602 0.949 . S
C608 C612 1.368 . S
C609 C590 1.429 . S
C609 C603 1.429 . S
C609 C610 1.523 . S
C610 C591 1.369 1_455 S
C610 C604 1.368 . S
C610 C609 1.523 . S
C611 C595 1.429 . S
C611 C607 1.429 . S
C611 C612 1.523 . S
C612 C596 1.369 1_655 S
C612 C608 1.368 . S
C612 C611 1.523 . S
H613 C588 0.950 . S
H614 C590 0.950 . S
H615 C591 0.950 1_455 S
H616 C593 0.950 . S
H617 C595 0.950 . S
C618 C619 1.349 . S
C618 C620 1.327 . S
C618 H643 0.950 . S
C619 C618 1.349 . S
C619 C635 1.349 . S
C620 C618 1.327 . S
C620 C639 1.429 . S
C620 H644 0.950 . S
C621 C638 1.574 . S
C621 C640 1.368 . S
C621 H645 0.949 . S
H622 C626 0.949 . S
C623 C624 1.349 . S
C623 C625 1.327 . S
C623 H646 0.950 . S
C624 C623 1.349 . S
C624 C636 1.349 . S
C625 C623 1.327 . S
C625 C641 1.429 . S
C625 H647 0.950 . S
C626 H622 0.949 . S
C626 C634 1.574 . S
C626 C642 1.368 . S
H627 C635 0.950 . S
H628 C633 0.950 . S
H629 C634 0.949 . S
H630 C636 0.950 . S
H631 C637 0.950 . S
H632 C638 0.949 . S
C633 H628 0.950 . S
C633 C635 1.327 . S
C633 C639 1.429 . S
C634 C626 1.574 . S
C634 H629 0.949 . S
C634 C640 1.368 . S
C635 C619 1.349 . S
C635 H627 0.950 . S
C635 C633 1.327 . S
C636 C624 1.349 . S
C636 H630 0.950 . S
C636 C637 1.327 . S
C637 H631 0.950 . S
C637 C636 1.327 . S
C637 C641 1.429 . S
C638 C621 1.574 . S
C638 H632 0.949 . S
C638 C642 1.368 . S
C639 C620 1.429 . S
C639 C633 1.429 . S
C639 C640 1.523 . S
C640 C621 1.368 . S
C640 C634 1.368 . S
C640 C639 1.523 . S
C641 C625 1.429 . S
C641 C637 1.429 . S
C641 C642 1.523 . S
C642 C626 1.368 . S
C642 C638 1.368 . S
C642 C641 1.523 . S
H643 C618 0.950 . S
H644 C620 0.950 . S
H645 C621 0.949 . S
H646 C623 0.950 . S
H647 C625 0.950 . S
C648 C649 1.349 . S
C648 C650 1.327 . S
C648 H673 0.950 . S
C649 C648 1.349 . S
C649 C665 1.349 . S
C650 C648 1.327 . S
C650 C669 1.429 . S
C650 H674 0.950 . S
C651 C668 1.574 . S
C651 C670 1.368 . S
C651 H675 0.949 . S
H652 C656 0.949 . S
C653 C654 1.349 . S
C653 C655 1.327 . S
C653 H676 0.950 . S
C654 C653 1.349 . S
C654 C666 1.349 . S
C655 C653 1.327 . S
C655 C671 1.429 . S
C655 H677 0.950 . S
C656 H652 0.949 . S
C656 C664 1.574 . S
C656 C672 1.368 . S
H657 C665 0.950 . S
H658 C663 0.950 . S
H659 C664 0.949 . S
H660 C666 0.950 . S
H661 C667 0.950 . S
H662 C668 0.949 . S
C663 H658 0.950 . S
C663 C665 1.327 . S
C663 C669 1.429 . S
C664 C656 1.574 . S
C664 H659 0.949 . S
C664 C670 1.368 . S
C665 C649 1.349 . S
C665 H657 0.950 . S
C665 C663 1.327 . S
C666 C654 1.349 . S
C666 H660 0.950 . S
C666 C667 1.327 . S
C667 H661 0.950 . S
C667 C666 1.327 . S
C667 C671 1.429 . S
C668 C651 1.574 . S
C668 H662 0.949 . S
C668 C672 1.368 . S
C669 C650 1.429 . S
C669 C663 1.429 . S
C669 C670 1.523 . S
C670 C651 1.368 . S
C670 C664 1.368 . S
C670 C669 1.523 . S
C671 C655 1.429 . S
C671 C667 1.429 . S
C671 C672 1.523 . S
C672 C656 1.368 . S
C672 C668 1.368 . S
C672 C671 1.523 . S
H673 C648 0.950 . S
H674 C650 0.950 . S
H675 C651 0.949 . S
H676 C653 0.950 . S
H677 C655 0.950 . S
C678 C679 1.349 . S
C678 C680 1.327 . S
C678 H703 0.950 . S
C679 C678 1.349 . S
C679 C695 1.349 . S
C680 C678 1.327 . S
C680 C699 1.429 . S
C680 H704 0.950 . S
C681 C698 1.574 . S
C681 C700 1.368 . S
C681 H705 0.949 . S
H682 C686 0.949 . S
C683 C684 1.349 . S
C683 C685 1.327 . S
C683 H706 0.950 . S
C684 C683 1.349 . S
C684 C696 1.349 . S
C685 C683 1.327 . S
C685 C701 1.429 . S
C685 H707 0.950 . S
C686 H682 0.949 . S
C686 C694 1.574 . S
C686 C702 1.368 . S
H687 C695 0.950 . S
H688 C693 0.950 . S
H689 C694 0.949 . S
H690 C696 0.950 . S
H691 C697 0.950 . S
H692 C698 0.949 . S
C693 H688 0.950 . S
C693 C695 1.327 . S
C693 C699 1.429 . S
C694 C686 1.574 . S
C694 H689 0.949 . S
C694 C700 1.368 . S
C695 C679 1.349 . S
C695 H687 0.950 . S
C695 C693 1.327 . S
C696 C684 1.349 . S
C696 H690 0.950 . S
C696 C697 1.327 . S
C697 H691 0.950 . S
C697 C696 1.327 . S
C697 C701 1.429 . S
C698 C681 1.574 . S
C698 H692 0.949 . S
C698 C702 1.368 . S
C699 C680 1.429 . S
C699 C693 1.429 . S
C699 C700 1.523 . S
C700 C681 1.368 . S
C700 C694 1.368 . S
C700 C699 1.523 . S
C701 C685 1.429 . S
C701 C697 1.429 . S
C701 C702 1.523 . S
C702 C686 1.368 . S
C702 C698 1.368 . S
C702 C701 1.523 . S
H703 C678 0.950 . S
H704 C680 0.950 . S
H705 C681 0.949 . S
H706 C683 0.950 . S
H707 C685 0.950 . S
C708 C709 1.349 . S
C708 C710 1.327 . S
C708 H733 0.950 . S
C709 C708 1.349 . S
C709 C725 1.349 . S
C710 C708 1.327 . S
C710 C729 1.429 . S
C710 H734 0.950 . S
C711 C728 1.574 . S
C711 C730 1.368 . S
C711 H735 0.949 . S
H712 C716 0.949 . S
C713 C714 1.349 . S
C713 C715 1.327 . S
C713 H736 0.950 . S
C714 C713 1.349 . S
C714 C726 1.349 . S
C715 C713 1.327 . S
C715 C731 1.429 . S
C715 H737 0.950 . S
C716 H712 0.949 . S
C716 C724 1.574 . S
C716 C732 1.368 . S
H717 C725 0.950 . S
H718 C723 0.950 . S
H719 C724 0.949 . S
H720 C726 0.950 . S
H721 C727 0.950 . S
H722 C728 0.949 . S
C723 H718 0.950 . S
C723 C725 1.327 . S
C723 C729 1.429 . S
C724 C716 1.574 . S
C724 H719 0.949 . S
C724 C730 1.368 . S
C725 C709 1.349 . S
C725 H717 0.950 . S
C725 C723 1.327 . S
C726 C714 1.349 . S
C726 H720 0.950 . S
C726 C727 1.327 . S
C727 H721 0.950 . S
C727 C726 1.327 . S
C727 C731 1.429 . S
C728 C711 1.574 . S
C728 H722 0.949 . S
C728 C732 1.368 . S
C729 C710 1.429 . S
C729 C723 1.429 . S
C729 C730 1.523 . S
C730 C711 1.368 . S
C730 C724 1.368 . S
C730 C729 1.523 . S
C731 C715 1.429 . S
C731 C727 1.429 . S
C731 C732 1.523 . S
C732 C716 1.368 . S
C732 C728 1.368 . S
C732 C731 1.523 . S
H733 C708 0.950 . S
H734 C710 0.950 . S
H735 C711 0.949 . S
H736 C713 0.950 . S
H737 C715 0.950 . S
C738 C739 1.349 . S
C738 C740 1.327 . S
C738 H763 0.950 . S
C739 C738 1.349 . S
C739 C755 1.349 . S
C740 C738 1.327 . S
C740 C759 1.429 . S
C740 H764 0.950 . S
C741 C758 1.574 . S
C741 C760 1.368 . S
C741 H765 0.949 . S
H742 C746 0.949 . S
C743 C744 1.349 . S
C743 C745 1.327 1_556 S
C743 H766 0.950 . S
C744 C743 1.349 . S
C744 C756 1.349 . S
C745 C743 1.327 1_554 S
C745 C761 1.429 . S
C745 H767 0.950 . S
C746 H742 0.949 . S
C746 C754 1.574 . S
C746 C762 1.368 . S
H747 C755 0.950 . S
H748 C753 0.950 . S
H749 C754 0.949 . S
H750 C756 0.950 . S
H751 C757 0.953 . S
H752 C758 0.949 . S
C753 H748 0.950 . S
C753 C755 1.327 . S
C753 C759 1.429 . S
C754 C746 1.574 . S
C754 H749 0.949 . S
C754 C760 1.368 . S
C755 C739 1.349 . S
C755 H747 0.950 . S
C755 C753 1.327 . S
C756 C744 1.349 . S
C756 H750 0.950 . S
C756 C757 1.310 1_556 S
C757 H751 0.953 . S
C757 C756 1.310 1_554 S
C757 C761 1.443 . S
C758 C741 1.574 . S
C758 H752 0.949 . S
C758 C762 1.368 . S
C759 C740 1.429 . S
C759 C753 1.429 . S
C759 C760 1.523 . S
C760 C741 1.368 . S
C760 C754 1.368 . S
C760 C759 1.523 . S
C761 C745 1.429 . S
C761 C757 1.443 . S
C761 C762 1.523 . S
C762 C746 1.368 . S
C762 C758 1.368 . S
C762 C761 1.523 . S
H763 C738 0.950 . S
H764 C740 0.950 . S
H765 C741 0.949 . S
H766 C743 0.950 . S
H767 C745 0.950 . S
C768 C769 1.349 . S
C768 C770 1.327 . S
C768 H793 0.950 . S
C769 C768 1.349 . S
C769 C785 1.349 . S
C770 C768 1.327 . S
C770 C789 1.429 . S
C770 H794 0.950 . S
C771 C788 1.574 . S
C771 C790 1.368 . S
C771 H795 0.949 . S
H772 C776 0.949 . S
C773 C774 1.349 . S
C773 C775 1.327 . S
C773 H796 0.950 . S
C774 C773 1.349 . S
C774 C786 1.349 1_556 S
C775 C773 1.327 . S
C775 C791 1.429 1_556 S
C775 H797 0.950 . S
C776 H772 0.949 . S
C776 C784 1.574 . S
C776 C792 1.368 . S
H777 C785 0.950 . S
H778 C783 0.950 . S
H779 C784 0.949 . S
H780 C786 0.950 . S
H781 C787 0.950 . S
H782 C788 0.949 . S
C783 H778 0.950 . S
C783 C785 1.327 . S
C783 C789 1.429 . S
C784 C776 1.574 . S
C784 H779 0.949 . S
C784 C790 1.368 . S
C785 C769 1.349 . S
C785 H777 0.950 . S
C785 C783 1.327 . S
C786 C774 1.349 1_554 S
C786 H780 0.950 . S
C786 C787 1.327 . S
C787 H781 0.950 . S
C787 C786 1.327 . S
C787 C791 1.429 . S
C788 C771 1.574 . S
C788 H782 0.949 . S
C788 C792 1.368 . S
C789 C770 1.429 . S
C789 C783 1.429 . S
C789 C790 1.523 . S
C790 C771 1.368 . S
C790 C784 1.368 . S
C790 C789 1.523 . S
C791 C775 1.429 1_554 S
C791 C787 1.429 . S
C791 C792 1.523 . S
C792 C776 1.368 . S
C792 C788 1.368 . S
C792 C791 1.523 . S
H793 C768 0.950 . S
H794 C770 0.950 . S
H795 C771 0.949 . S
H796 C773 0.950 . S
H797 C775 0.950 . S
C798 C799 1.349 . S
C798 C800 1.327 . S
C798 H823 0.950 . S
C799 C798 1.349 . S
C799 C815 1.349 . S
C800 C798 1.327 . S
C800 C819 1.429 . S
C800 H824 0.950 . S
C801 C818 1.574 . S
C801 C820 1.368 . S
C801 H825 0.949 . S
H802 C806 0.949 . S
C803 C804 1.349 . S
C803 C805 1.327 . S
C803 H826 0.950 . S
C804 C803 1.349 . S
C804 C816 1.349 . S
C805 C803 1.327 . S
C805 C821 1.429 1_556 S
C805 H827 0.950 . S
C806 H802 0.949 . S
C806 C814 1.574 . S
C806 C822 1.368 . S
H807 C815 0.950 . S
H808 C813 0.950 . S
H809 C814 0.949 . S
H810 C816 0.951 . S
H811 C817 0.950 . S
H812 C818 0.949 . S
C813 H808 0.950 . S
C813 C815 1.327 . S
C813 C819 1.429 . S
C814 C806 1.574 . S
C814 H809 0.949 . S
C814 C820 1.368 . S
C815 C799 1.349 . S
C815 H807 0.950 . S
C815 C813 1.327 . S
C816 C804 1.349 . S
C816 H810 0.951 . S
C816 C817 1.327 1_556 S
C817 H811 0.950 . S
C817 C816 1.327 1_554 S
C817 C821 1.429 . S
C818 C801 1.574 . S
C818 H812 0.949 . S
C818 C822 1.368 . S
C819 C800 1.429 . S
C819 C813 1.429 . S
C819 C820 1.523 . S
C820 C801 1.368 . S
C820 C814 1.368 . S
C820 C819 1.523 . S
C821 C805 1.429 1_554 S
C821 C817 1.429 . S
C821 C822 1.523 . S
C822 C806 1.368 . S
C822 C818 1.368 . S
C822 C821 1.523 . S
H823 C798 0.950 . S
H824 C800 0.950 . S
H825 C801 0.949 . S
H826 C803 0.950 . S
H827 C805 0.950 . S
C828 C829 1.349 . S
C828 C830 1.327 . S
C828 H853 0.950 . S
C829 C828 1.349 . S
C829 C845 1.349 . S
C830 C828 1.327 . S
C830 C849 1.429 . S
C830 H854 0.950 . S
C831 C848 1.574 . S
C831 C850 1.368 . S
C831 H855 0.949 . S
H832 C836 0.949 . S
C833 C834 1.349 1_556 S
C833 C835 1.327 . S
C833 H856 0.950 . S
C834 C833 1.349 1_554 S
C834 C846 1.349 . S
C835 C833 1.327 . S
C835 C851 1.429 . S
C835 H857 0.950 . S
C836 H832 0.949 . S
C836 C844 1.574 . S
C836 C852 1.368 . S
H837 C845 0.950 . S
H838 C843 0.950 . S
H839 C844 0.949 . S
H840 C846 0.950 . S
H841 C847 0.950 . S
H842 C848 0.949 . S
C843 H838 0.950 . S
C843 C845 1.327 . S
C843 C849 1.429 . S
C844 C836 1.574 . S
C844 H839 0.949 . S
C844 C850 1.368 . S
C845 C829 1.349 . S
C845 H837 0.950 . S
C845 C843 1.327 . S
C846 C834 1.349 . S
C846 H840 0.950 . S
C846 C847 1.327 . S
C847 H841 0.950 . S
C847 C846 1.327 . S
C847 C851 1.429 1_554 S
C848 C831 1.574 . S
C848 H842 0.949 . S
C848 C852 1.368 . S
C849 C830 1.429 . S
C849 C843 1.429 . S
C849 C850 1.523 . S
C850 C831 1.368 . S
C850 C844 1.368 . S
C850 C849 1.523 . S
C851 C835 1.429 . S
C851 C847 1.429 1_556 S
C851 C852 1.523 . S
C852 C836 1.368 . S
C852 C848 1.368 . S
C852 C851 1.523 . S
H853 C828 0.950 . S
H854 C830 0.950 . S
H855 C831 0.949 . S
H856 C833 0.950 . S
H857 C835 0.950 . S
C858 C859 1.349 . S
C858 C860 1.327 . S
C858 H883 0.950 . S
C859 C858 1.349 . S
C859 C875 1.349 1_554 S
C860 C858 1.327 . S
C860 C879 1.429 1_554 S
C860 H884 0.950 . S
C861 C878 1.574 . S
C861 C880 1.368 . S
C861 H885 0.949 . S
H862 C866 0.949 . S
C863 C864 1.349 . S
C863 C865 1.327 . S
C863 H886 0.950 . S
C864 C863 1.349 . S
C864 C876 1.349 . S
C865 C863 1.327 . S
C865 C881 1.429 . S
C865 H887 0.950 . S
C866 H862 0.949 . S
C866 C874 1.574 . S
C866 C882 1.368 . S
H867 C875 0.950 . S
H868 C873 0.950 . S
H869 C874 0.949 . S
H870 C876 0.950 . S
H871 C877 0.950 . S
H872 C878 0.949 . S
C873 H868 0.950 . S
C873 C875 1.327 . S
C873 C879 1.429 . S
C874 C866 1.574 . S
C874 H869 0.949 . S
C874 C880 1.368 . S
C875 C859 1.349 1_556 S
C875 H867 0.950 . S
C875 C873 1.327 . S
C876 C864 1.349 . S
C876 H870 0.950 . S
C876 C877 1.327 . S
C877 H871 0.950 . S
C877 C876 1.327 . S
C877 C881 1.429 . S
C878 C861 1.574 . S
C878 H872 0.949 . S
C878 C882 1.368 . S
C879 C860 1.429 1_556 S
C879 C873 1.429 . S
C879 C880 1.523 . S
C880 C861 1.368 . S
C880 C874 1.368 . S
C880 C879 1.523 . S
C881 C865 1.429 . S
C881 C877 1.429 . S
C881 C882 1.523 . S
C882 C866 1.368 . S
C882 C878 1.368 . S
C882 C881 1.523 . S
H883 C858 0.950 . S
H884 C860 0.950 . S
H885 C861 0.949 . S
H886 C863 0.950 . S
H887 C865 0.950 . S
C888 C889 1.349 . S
C888 C890 1.327 . S
C888 H913 0.950 . S
C889 C888 1.349 . S
C889 C905 1.349 . S
C890 C888 1.327 . S
C890 C909 1.429 . S
C890 H914 0.950 . S
C891 C908 1.574 . S
C891 C910 1.368 . S
C891 H915 0.949 . S
H892 C896 0.949 . S
C893 C894 1.349 . S
C893 C895 1.327 1_554 S
C893 H916 0.950 . S
C894 C893 1.349 . S
C894 C906 1.349 . S
C895 C893 1.327 1_556 S
C895 C911 1.429 . S
C895 H917 0.950 . S
C896 H892 0.949 . S
C896 C904 1.574 . S
C896 C912 1.368 . S
H897 C905 0.950 . S
H898 C903 0.950 . S
H899 C904 0.949 . S
H900 C906 0.950 . S
H901 C907 0.950 . S
H902 C908 0.949 . S
C903 H898 0.950 . S
C903 C905 1.327 . S
C903 C909 1.429 . S
C904 C896 1.574 . S
C904 H899 0.949 . S
C904 C910 1.368 . S
C905 C889 1.349 . S
C905 H897 0.950 . S
C905 C903 1.327 . S
C906 C894 1.349 . S
C906 H900 0.950 . S
C906 C907 1.327 1_554 S
C907 H901 0.950 . S
C907 C906 1.327 1_556 S
C907 C911 1.429 . S
C908 C891 1.574 . S
C908 H902 0.949 . S
C908 C912 1.368 . S
C909 C890 1.429 . S
C909 C903 1.429 . S
C909 C910 1.523 . S
C910 C891 1.368 . S
C910 C904 1.368 . S
C910 C909 1.523 . S
C911 C895 1.429 . S
C911 C907 1.429 . S
C911 C912 1.523 . S
C912 C896 1.368 . S
C912 C908 1.368 . S
C912 C911 1.523 . S
H913 C888 0.950 . S
H914 C890 0.950 . S
H915 C891 0.949 . S
H916 C893 0.950 . S
H917 C895 0.950 . S
C918 C919 1.349 . S
C918 C920 1.327 . S
C918 H943 0.950 . S
C919 C918 1.349 . S
C919 C935 1.349 . S
C920 C918 1.327 . S
C920 C939 1.429 . S
C920 H944 0.950 . S
C921 C938 1.574 . S
C921 C940 1.368 . S
C921 H945 0.949 . S
H922 C926 0.949 . S
C923 C924 1.349 . S
C923 C925 1.327 . S
C923 H946 0.950 . S
C924 C923 1.349 . S
C924 C936 1.349 . S
C925 C923 1.327 . S
C925 C941 1.429 . S
C925 H947 0.950 . S
C926 H922 0.949 . S
C926 C934 1.574 . S
C926 C942 1.368 . S
H927 C935 0.950 . S
H928 C933 0.950 . S
H929 C934 0.949 . S
H930 C936 0.950 . S
H931 C937 0.950 . S
H932 C938 0.949 . S
C933 H928 0.950 . S
C933 C935 1.327 . S
C933 C939 1.429 . S
C934 C926 1.574 . S
C934 H929 0.949 . S
C934 C940 1.368 . S
C935 C919 1.349 . S
C935 H927 0.950 . S
C935 C933 1.327 . S
C936 C924 1.349 . S
C936 H930 0.950 . S
C936 C937 1.327 . S
C937 H931 0.950 . S
C937 C936 1.327 . S
C937 C941 1.429 . S
C938 C921 1.574 . S
C938 H932 0.949 . S
C938 C942 1.368 . S
C939 C920 1.429 . S
C939 C933 1.429 . S
C939 C940 1.523 . S
C940 C921 1.368 . S
C940 C934 1.368 . S
C940 C939 1.523 . S
C941 C925 1.429 . S
C941 C937 1.429 . S
C941 C942 1.523 . S
C942 C926 1.368 . S
C942 C938 1.368 . S
C942 C941 1.523 . S
H943 C918 0.950 . S
H944 C920 0.950 . S
H945 C921 0.949 . S
H946 C923 0.950 . S
H947 C925 0.950 . S
C948 C949 1.349 . S
C948 C950 1.327 . S
C948 H973 0.950 . S
C949 C948 1.349 . S
C949 C965 1.349 . S
C950 C948 1.327 . S
C950 C969 1.429 . S
C950 H974 0.950 . S
C951 C968 1.574 . S
C951 C970 1.368 . S
C951 H975 0.949 . S
H952 C956 0.949 . S
C953 C954 1.349 . S
C953 C955 1.327 . S
C953 H976 0.950 . S
C954 C953 1.349 . S
C954 C966 1.349 . S
C955 C953 1.327 . S
C955 C971 1.429 . S
C955 H977 0.950 . S
C956 H952 0.949 . S
C956 C964 1.574 . S
C956 C972 1.368 . S
H957 C965 0.950 . S
H958 C963 0.950 . S
H959 C964 0.949 . S
H960 C966 0.950 . S
H961 C967 0.950 . S
H962 C968 0.949 . S
C963 H958 0.950 . S
C963 C965 1.327 . S
C963 C969 1.429 . S
C964 C956 1.574 . S
C964 H959 0.949 . S
C964 C970 1.368 . S
C965 C949 1.349 . S
C965 H957 0.950 . S
C965 C963 1.327 . S
C966 C954 1.349 . S
C966 H960 0.950 . S
C966 C967 1.327 . S
C967 H961 0.950 . S
C967 C966 1.327 . S
C967 C971 1.429 . S
C968 C951 1.574 . S
C968 H962 0.949 . S
C968 C972 1.368 . S
C969 C950 1.429 . S
C969 C963 1.429 . S
C969 C970 1.523 . S
C970 C951 1.368 . S
C970 C964 1.368 . S
C970 C969 1.523 . S
C971 C955 1.429 . S
C971 C967 1.429 . S
C971 C972 1.523 . S
C972 C956 1.368 . S
C972 C968 1.368 . S
C972 C971 1.523 . S
H973 C948 0.950 . S
H974 C950 0.950 . S
H975 C951 0.949 . S
H976 C953 0.950 . S
H977 C955 0.950 . S
C978 C979 1.349 . S
C978 C980 1.327 . S
C978 H1003 0.950 . S
C979 C978 1.349 . S
C979 C995 1.349 . S
C980 C978 1.327 . S
C980 C999 1.429 . S
C980 H1004 0.950 . S
C981 C998 1.574 . S
C981 C1000 1.368 . S
C981 H1005 0.949 . S
H982 C986 0.949 . S
C983 C984 1.349 . S
C983 C985 1.327 . S
C983 H1006 0.950 . S
C984 C983 1.349 . S
C984 C996 1.349 . S
C985 C983 1.327 . S
C985 C1001 1.429 . S
C985 H1007 0.950 . S
C986 H982 0.949 . S
C986 C994 1.574 . S
C986 C1002 1.368 . S
H987 C995 0.950 . S
H988 C993 0.950 . S
H989 C994 0.949 . S
H990 C996 0.950 . S
H991 C997 0.950 . S
H992 C998 0.949 . S
C993 H988 0.950 . S
C993 C995 1.327 . S
C993 C999 1.429 . S
C994 C986 1.574 . S
C994 H989 0.949 . S
C994 C1000 1.368 . S
C995 C979 1.349 . S
C995 H987 0.950 . S
C995 C993 1.327 . S
C996 C984 1.349 . S
C996 H990 0.950 . S
C996 C997 1.327 . S
C997 H991 0.950 . S
C997 C996 1.327 . S
C997 C1001 1.429 . S
C998 C981 1.574 . S
C998 H992 0.949 . S
C998 C1002 1.368 . S
C999 C980 1.429 . S
C999 C993 1.429 . S
C999 C1000 1.523 . S
C1000 C981 1.368 . S
C1000 C994 1.368 . S
C1000 C999 1.523 . S
C1001 C985 1.429 . S
C1001 C997 1.429 . S
C1001 C1002 1.523 . S
C1002 C986 1.368 . S
C1002 C998 1.368 . S
C1002 C1001 1.523 . S
H1003 C978 0.950 . S
H1004 C980 0.950 . S
H1005 C981 0.949 . S
H1006 C983 0.950 . S
H1007 C985 0.950 . S
C1008 C1009 1.349 . S
C1008 C1010 1.327 . S
C1008 H1033 0.950 . S
C1009 C1008 1.349 . S
C1009 C1025 1.349 . S
C1010 C1008 1.327 . S
C1010 C1029 1.429 . S
C1010 H1034 0.950 . S
C1011 C1028 1.574 . S
C1011 C1030 1.368 . S
C1011 H1035 0.949 . S
H1012 C1016 0.949 . S
C1013 C1014 1.349 . S
C1013 C1015 1.327 . S
C1013 H1036 0.950 . S
C1014 C1013 1.349 . S
C1014 C1026 1.349 . S
C1015 C1013 1.327 . S
C1015 C1031 1.429 . S
C1015 H1037 0.950 . S
C1016 H1012 0.949 . S
C1016 C1024 1.574 . S
C1016 C1032 1.368 . S
H1017 C1025 0.950 . S
H1018 C1023 0.950 . S
H1019 C1024 0.949 . S
H1020 C1026 0.950 . S
H1021 C1027 0.950 . S
H1022 C1028 0.949 . S
C1023 H1018 0.950 . S
C1023 C1025 1.327 . S
C1023 C1029 1.429 . S
C1024 C1016 1.574 . S
C1024 H1019 0.949 . S
C1024 C1030 1.368 . S
C1025 C1009 1.349 . S
C1025 H1017 0.950 . S
C1025 C1023 1.327 . S
C1026 C1014 1.349 . S
C1026 H1020 0.950 . S
C1026 C1027 1.327 . S
C1027 H1021 0.950 . S
C1027 C1026 1.327 . S
C1027 C1031 1.429 . S
C1028 C1011 1.574 . S
C1028 H1022 0.949 . S
C1028 C1032 1.368 . S
C1029 C1010 1.429 . S
C1029 C1023 1.429 . S
C1029 C1030 1.523 . S
C1030 C1011 1.368 . S
C1030 C1024 1.368 . S
C1030 C1029 1.523 . S
C1031 C1015 1.429 . S
C1031 C1027 1.429 . S
C1031 C1032 1.523 . S
C1032 C1016 1.368 . S
C1032 C1028 1.368 . S
C1032 C1031 1.523 . S
H1033 C1008 0.950 . S
H1034 C1010 0.950 . S
H1035 C1011 0.949 . S
H1036 C1013 0.950 . S
H1037 C1015 0.950 . S
C1038 C1039 1.349 . S
C1038 C1040 1.327 . S
C1038 H1063 0.950 . S
C1039 C1038 1.349 . S
C1039 C1055 1.349 . S
C1040 C1038 1.327 . S
C1040 C1059 1.429 . S
C1040 H1064 0.950 . S
C1041 C1058 1.574 . S
C1041 C1060 1.368 . S
C1041 H1065 0.949 . S
H1042 C1046 0.949 . S
C1043 C1044 1.349 . S
C1043 C1045 1.327 . S
C1043 H1066 0.950 . S
C1044 C1043 1.349 . S
C1044 C1056 1.349 . S
C1045 C1043 1.327 . S
C1045 C1061 1.429 . S
C1045 H1067 0.950 . S
C1046 H1042 0.949 . S
C1046 C1054 1.574 . S
C1046 C1062 1.368 . S
H1047 C1055 0.950 . S
H1048 C1053 0.950 . S
H1049 C1054 0.949 . S
H1050 C1056 0.950 1_554 S
H1051 C1057 0.950 . S
H1052 C1058 0.949 . S
C1053 H1048 0.950 . S
C1053 C1055 1.327 . S
C1053 C1059 1.429 . S
C1054 C1046 1.574 . S
C1054 H1049 0.949 . S
C1054 C1060 1.368 . S
C1055 C1039 1.349 . S
C1055 H1047 0.950 . S
C1055 C1053 1.327 . S
C1056 C1044 1.349 . S
C1056 H1050 0.950 1_556 S
C1056 C1057 1.327 . S
C1057 H1051 0.950 . S
C1057 C1056 1.327 . S
C1057 C1061 1.429 . S
C1058 C1041 1.574 . S
C1058 H1052 0.949 . S
C1058 C1062 1.368 . S
C1059 C1040 1.429 . S
C1059 C1053 1.429 . S
C1059 C1060 1.523 . S
C1060 C1041 1.368 . S
C1060 C1054 1.368 . S
C1060 C1059 1.523 . S
C1061 C1045 1.429 . S
C1061 C1057 1.429 . S
C1061 C1062 1.523 . S
C1062 C1046 1.368 . S
C1062 C1058 1.368 . S
C1062 C1061 1.523 . S
H1063 C1038 0.950 . S
H1064 C1040 0.950 . S
H1065 C1041 0.949 . S
H1066 C1043 0.950 . S
H1067 C1045 0.950 . S
C1068 C1069 1.349 . S
C1068 C1070 1.327 . S
C1068 H1093 0.950 . S
C1069 C1068 1.349 . S
C1069 C1085 1.349 . S
C1070 C1068 1.327 . S
C1070 C1089 1.429 . S
C1070 H1094 0.950 . S
C1071 C1088 1.574 . S
C1071 C1090 1.368 . S
C1071 H1095 0.949 . S
H1072 C1076 0.949 . S
C1073 C1074 1.349 . S
C1073 C1075 1.327 . S
C1073 H1096 0.950 . S
C1074 C1073 1.349 . S
C1074 C1086 1.349 . S
C1075 C1073 1.327 . S
C1075 C1091 1.429 . S
C1075 H1097 0.950 . S
C1076 H1072 0.949 . S
C1076 C1084 1.574 . S
C1076 C1092 1.368 . S
H1077 C1085 0.950 . S
H1078 C1083 0.950 . S
H1079 C1084 0.949 . S
H1080 C1086 0.950 . S
H1081 C1087 0.950 . S
H1082 C1088 0.949 . S
C1083 H1078 0.950 . S
C1083 C1085 1.327 . S
C1083 C1089 1.429 . S
C1084 C1076 1.574 . S
C1084 H1079 0.949 . S
C1084 C1090 1.368 . S
C1085 C1069 1.349 . S
C1085 H1077 0.950 . S
C1085 C1083 1.327 . S
C1086 C1074 1.349 . S
C1086 H1080 0.950 . S
C1086 C1087 1.327 . S
C1087 H1081 0.950 . S
C1087 C1086 1.327 . S
C1087 C1091 1.429 . S
C1088 C1071 1.574 . S
C1088 H1082 0.949 . S
C1088 C1092 1.368 . S
C1089 C1070 1.429 . S
C1089 C1083 1.429 . S
C1089 C1090 1.523 . S
C1090 C1071 1.368 . S
C1090 C1084 1.368 . S
C1090 C1089 1.523 . S
C1091 C1075 1.429 . S
C1091 C1087 1.429 . S
C1091 C1092 1.523 . S
C1092 C1076 1.368 . S
C1092 C1088 1.368 . S
C1092 C1091 1.523 . S
H1093 C1068 0.950 . S
H1094 C1070 0.950 . S
H1095 C1071 0.949 . S
H1096 C1073 0.950 . S
H1097 C1075 0.950 . S
C1098 C1099 1.349 . S
C1098 C1100 1.327 . S
C1098 H1123 0.950 . S
C1099 C1098 1.349 . S
C1099 C1115 1.349 . S
C1100 C1098 1.327 . S
C1100 C1119 1.429 . S
C1100 H1124 0.950 . S
C1101 C1118 1.574 . S
C1101 C1120 1.368 . S
C1101 H1125 0.949 . S
H1102 C1106 0.949 . S
C1103 C1104 1.349 . S
C1103 C1105 1.327 . S
C1103 H1126 0.950 . S
C1104 C1103 1.349 . S
C1104 C1116 1.349 . S
C1105 C1103 1.327 . S
C1105 C1121 1.429 . S
C1105 H1127 0.950 . S
C1106 H1102 0.949 . S
C1106 C1114 1.574 . S
C1106 C1122 1.368 . S
H1107 C1115 0.950 . S
H1108 C1113 0.950 . S
H1109 C1114 0.949 . S
H1110 C1116 0.950 . S
H1111 C1117 0.950 . S
H1112 C1118 0.949 . S
C1113 H1108 0.950 . S
C1113 C1115 1.327 . S
C1113 C1119 1.429 . S
C1114 C1106 1.574 . S
C1114 H1109 0.949 . S
C1114 C1120 1.368 . S
C1115 C1099 1.349 . S
C1115 H1107 0.950 . S
C1115 C1113 1.327 . S
C1116 C1104 1.349 . S
C1116 H1110 0.950 . S
C1116 C1117 1.327 . S
C1117 H1111 0.950 . S
C1117 C1116 1.327 . S
C1117 C1121 1.429 . S
C1118 C1101 1.574 . S
C1118 H1112 0.949 . S
C1118 C1122 1.368 . S
C1119 C1100 1.429 . S
C1119 C1113 1.429 . S
C1119 C1120 1.523 . S
C1120 C1101 1.368 . S
C1120 C1114 1.368 . S
C1120 C1119 1.523 . S
C1121 C1105 1.429 . S
C1121 C1117 1.429 . S
C1121 C1122 1.523 . S
C1122 C1106 1.368 . S
C1122 C1118 1.368 . S
C1122 C1121 1.523 . S
H1123 C1098 0.950 . S
H1124 C1100 0.950 . S
H1125 C1101 0.949 . S
H1126 C1103 0.950 . S
H1127 C1105 0.950 . S
C1128 C1129 1.349 . S
C1128 C1130 1.327 . S
C1128 H1153 0.950 . S
C1129 C1128 1.349 . S
C1129 C1145 1.349 . S
C1130 C1128 1.327 . S
C1130 C1149 1.429 . S
C1130 H1154 0.950 . S
C1131 C1148 1.574 . S
C1131 C1150 1.368 . S
C1131 H1155 0.949 . S
H1132 C1136 0.949 . S
C1133 C1134 1.349 . S
C1133 C1135 1.327 . S
C1133 H1156 0.950 . S
C1134 C1133 1.349 . S
C1134 C1146 1.349 . S
C1135 C1133 1.327 . S
C1135 C1151 1.429 . S
C1135 H1157 0.950 . S
C1136 H1132 0.949 . S
C1136 C1144 1.574 . S
C1136 C1152 1.368 . S
H1137 C1145 0.950 . S
H1138 C1143 0.950 . S
H1139 C1144 0.949 . S
H1140 C1146 0.950 . S
H1141 C1147 0.950 . S
H1142 C1148 0.949 . S
C1143 H1138 0.950 . S
C1143 C1145 1.327 . S
C1143 C1149 1.429 . S
C1144 C1136 1.574 . S
C1144 H1139 0.949 . S
C1144 C1150 1.368 . S
C1145 C1129 1.349 . S
C1145 H1137 0.950 . S
C1145 C1143 1.327 . S
C1146 C1134 1.349 . S
C1146 H1140 0.950 . S
C1146 C1147 1.327 . S
C1147 H1141 0.950 . S
C1147 C1146 1.327 . S
C1147 C1151 1.429 . S
C1148 C1131 1.574 . S
C1148 H1142 0.949 . S
C1148 C1152 1.368 . S
C1149 C1130 1.429 . S
C1149 C1143 1.429 . S
C1149 C1150 1.523 . S
C1150 C1131 1.368 . S
C1150 C1144 1.368 . S
C1150 C1149 1.523 . S
C1151 C1135 1.429 . S
C1151 C1147 1.429 . S
C1151 C1152 1.523 . S
C1152 C1136 1.368 . S
C1152 C1148 1.368 . S
C1152 C1151 1.523 . S
H1153 C1128 0.950 . S
H1154 C1130 0.950 . S
H1155 C1131 0.949 . S
H1156 C1133 0.950 . S
H1157 C1135 0.950 . S
C1158 C1159 1.349 . S
C1158 C1160 1.327 . S
C1158 H1183 0.950 . S
C1159 C1158 1.349 . S
C1159 C1175 1.349 . S
C1160 C1158 1.327 . S
C1160 C1179 1.429 . S
C1160 H1184 0.950 . S
C1161 C1178 1.574 . S
C1161 C1180 1.368 . S
C1161 H1185 0.949 . S
H1162 C1166 0.949 . S
C1163 C1164 1.349 . S
C1163 C1165 1.327 . S
C1163 H1186 0.950 . S
C1164 C1163 1.349 . S
C1164 C1176 1.349 . S
C1165 C1163 1.327 . S
C1165 C1181 1.429 . S
C1165 H1187 0.950 . S
C1166 H1162 0.949 . S
C1166 C1174 1.574 . S
C1166 C1182 1.368 . S
H1167 C1175 0.950 . S
H1168 C1173 0.950 . S
H1169 C1174 0.949 . S
H1170 C1176 0.950 . S
H1171 C1177 0.950 . S
H1172 C1178 0.949 . S
C1173 H1168 0.950 . S
C1173 C1175 1.327 . S
C1173 C1179 1.429 . S
C1174 C1166 1.574 . S
C1174 H1169 0.949 . S
C1174 C1180 1.368 . S
C1175 C1159 1.349 . S
C1175 H1167 0.950 . S
C1175 C1173 1.327 . S
C1176 C1164 1.349 . S
C1176 H1170 0.950 . S
C1176 C1177 1.327 . S
C1177 H1171 0.950 . S
C1177 C1176 1.327 . S
C1177 C1181 1.429 . S
C1178 C1161 1.574 . S
C1178 H1172 0.949 . S
C1178 C1182 1.368 . S
C1179 C1160 1.429 . S
C1179 C1173 1.429 . S
C1179 C1180 1.523 . S
C1180 C1161 1.368 . S
C1180 C1174 1.368 . S
C1180 C1179 1.523 . S
C1181 C1165 1.429 . S
C1181 C1177 1.429 . S
C1181 C1182 1.523 . S
C1182 C1166 1.368 . S
C1182 C1178 1.368 . S
C1182 C1181 1.523 . S
H1183 C1158 0.950 . S
H1184 C1160 0.950 . S
H1185 C1161 0.949 . S
H1186 C1163 0.950 . S
H1187 C1165 0.950 . S
C1188 C1189 1.349 . S
C1188 C1190 1.327 . S
C1188 H1213 0.950 . S
C1189 C1188 1.349 . S
C1189 C1205 1.349 . S
C1190 C1188 1.327 . S
C1190 C1209 1.429 . S
C1190 H1214 0.950 . S
C1191 C1208 1.574 . S
C1191 C1210 1.368 . S
C1191 H1215 0.949 . S
H1192 C1196 0.949 . S
C1193 C1194 1.349 . S
C1193 C1195 1.327 . S
C1193 H1216 0.950 . S
C1194 C1193 1.349 . S
C1194 C1206 1.349 . S
C1195 C1193 1.327 . S
C1195 C1211 1.429 . S
C1195 H1217 0.950 . S
C1196 H1192 0.949 . S
C1196 C1204 1.574 . S
C1196 C1212 1.368 . S
H1197 C1205 0.950 1_556 S
H1198 C1203 0.950 . S
H1199 C1204 0.949 . S
H1200 C1206 0.950 . S
H1201 C1207 0.950 . S
H1202 C1208 0.949 . S
C1203 H1198 0.950 . S
C1203 C1205 1.327 . S
C1203 C1209 1.429 . S
C1204 C1196 1.574 . S
C1204 H1199 0.949 . S
C1204 C1210 1.368 . S
C1205 C1189 1.349 . S
C1205 H1197 0.950 1_554 S
C1205 C1203 1.327 . S
C1206 C1194 1.349 . S
C1206 H1200 0.950 . S
C1206 C1207 1.327 . S
C1207 H1201 0.950 . S
C1207 C1206 1.327 . S
C1207 C1211 1.429 . S
C1208 C1191 1.574 . S
C1208 H1202 0.949 . S
C1208 C1212 1.368 . S
C1209 C1190 1.429 . S
C1209 C1203 1.429 . S
C1209 C1210 1.523 . S
C1210 C1191 1.368 . S
C1210 C1204 1.368 . S
C1210 C1209 1.523 . S
C1211 C1195 1.429 . S
C1211 C1207 1.429 . S
C1211 C1212 1.523 . S
C1212 C1196 1.368 . S
C1212 C1208 1.368 . S
C1212 C1211 1.523 . S
H1213 C1188 0.950 . S
H1214 C1190 0.950 . S
H1215 C1191 0.949 . S
H1216 C1193 0.950 . S
H1217 C1195 0.950 . S
C1218 C1219 1.349 . S
C1218 C1220 1.327 . S
C1218 H1243 0.950 . S
C1219 C1218 1.349 . S
C1219 C1235 1.349 . S
C1220 C1218 1.327 . S
C1220 C1239 1.429 . S
C1220 H1244 0.950 . S
C1221 C1238 1.574 . S
C1221 C1240 1.368 . S
C1221 H1245 0.949 . S
H1222 C1226 0.949 . S
C1223 C1224 1.349 . S
C1223 C1225 1.327 . S
C1223 H1246 0.950 . S
C1224 C1223 1.349 . S
C1224 C1236 1.349 . S
C1225 C1223 1.327 . S
C1225 C1241 1.429 . S
C1225 H1247 0.950 . S
C1226 H1222 0.949 . S
C1226 C1234 1.574 . S
C1226 C1242 1.368 . S
H1227 C1235 0.950 . S
H1228 C1233 0.950 . S
H1229 C1234 0.949 . S
H1230 C1236 0.950 . S
H1231 C1237 0.950 . S
H1232 C1238 0.949 . S
C1233 H1228 0.950 . S
C1233 C1235 1.327 . S
C1233 C1239 1.429 . S
C1234 C1226 1.574 . S
C1234 H1229 0.949 . S
C1234 C1240 1.368 . S
C1235 C1219 1.349 . S
C1235 H1227 0.950 . S
C1235 C1233 1.327 . S
C1236 C1224 1.349 . S
C1236 H1230 0.950 . S
C1236 C1237 1.327 . S
C1237 H1231 0.950 . S
C1237 C1236 1.327 . S
C1237 C1241 1.429 . S
C1238 C1221 1.574 . S
C1238 H1232 0.949 . S
C1238 C1242 1.368 . S
C1239 C1220 1.429 . S
C1239 C1233 1.429 . S
C1239 C1240 1.523 . S
C1240 C1221 1.368 . S
C1240 C1234 1.368 . S
C1240 C1239 1.523 . S
C1241 C1225 1.429 . S
C1241 C1237 1.429 . S
C1241 C1242 1.523 . S
C1242 C1226 1.368 . S
C1242 C1238 1.368 . S
C1242 C1241 1.523 . S
H1243 C1218 0.950 . S
H1244 C1220 0.950 . S
H1245 C1221 0.949 . S
H1246 C1223 0.950 . S
H1247 C1225 0.950 . S
C1248 C1249 1.349 . S
C1248 C1250 1.327 . S
C1248 H1273 0.950 . S
C1249 C1248 1.349 . S
C1249 C1265 1.349 . S
C1250 C1248 1.327 . S
C1250 C1269 1.429 . S
C1250 H1274 0.950 . S
C1251 C1268 1.574 . S
C1251 C1270 1.368 . S
C1251 H1275 0.949 . S
H1252 C1256 0.949 . S
C1253 C1254 1.349 . S
C1253 C1255 1.327 . S
C1253 H1276 0.950 . S
C1254 C1253 1.349 . S
C1254 C1266 1.349 . S
C1255 C1253 1.327 . S
C1255 C1271 1.429 . S
C1255 H1277 0.950 . S
C1256 H1252 0.949 . S
C1256 C1264 1.574 . S
C1256 C1272 1.368 . S
H1257 C1265 0.950 . S
H1258 C1263 0.950 . S
H1259 C1264 0.949 . S
H1260 C1266 0.950 . S
H1261 C1267 0.950 . S
H1262 C1268 0.949 . S
C1263 H1258 0.950 . S
C1263 C1265 1.327 . S
C1263 C1269 1.429 . S
C1264 C1256 1.574 . S
C1264 H1259 0.949 . S
C1264 C1270 1.368 . S
C1265 C1249 1.349 . S
C1265 H1257 0.950 . S
C1265 C1263 1.327 . S
C1266 C1254 1.349 . S
C1266 H1260 0.950 . S
C1266 C1267 1.327 . S
C1267 H1261 0.950 . S
C1267 C1266 1.327 . S
C1267 C1271 1.429 . S
C1268 C1251 1.574 . S
C1268 H1262 0.949 . S
C1268 C1272 1.368 . S
C1269 C1250 1.429 . S
C1269 C1263 1.429 . S
C1269 C1270 1.523 . S
C1270 C1251 1.368 . S
C1270 C1264 1.368 . S
C1270 C1269 1.523 . S
C1271 C1255 1.429 . S
C1271 C1267 1.429 . S
C1271 C1272 1.523 . S
C1272 C1256 1.368 . S
C1272 C1268 1.368 . S
C1272 C1271 1.523 . S
H1273 C1248 0.950 . S
H1274 C1250 0.950 . S
H1275 C1251 0.949 . S
H1276 C1253 0.950 . S
H1277 C1255 0.950 . S
C1278 C1279 1.349 . S
C1278 C1280 1.327 . S
C1278 H1303 0.950 . S
C1279 C1278 1.349 . S
C1279 C1295 1.349 . S
C1280 C1278 1.327 . S
C1280 C1299 1.429 . S
C1280 H1304 0.950 . S
C1281 C1298 1.574 . S
C1281 C1300 1.368 . S
C1281 H1305 0.949 . S
H1282 C1286 0.949 . S
C1283 C1284 1.349 . S
C1283 C1285 1.327 . S
C1283 H1306 0.950 . S
C1284 C1283 1.349 . S
C1284 C1296 1.349 . S
C1285 C1283 1.327 . S
C1285 C1301 1.429 . S
C1285 H1307 0.950 . S
C1286 H1282 0.949 . S
C1286 C1294 1.574 . S
C1286 C1302 1.368 . S
H1287 C1295 0.950 . S
H1288 C1293 0.950 . S
H1289 C1294 0.949 . S
H1290 C1296 0.950 . S
H1291 C1297 0.950 . S
H1292 C1298 0.949 . S
C1293 H1288 0.950 . S
C1293 C1295 1.327 . S
C1293 C1299 1.429 . S
C1294 C1286 1.574 . S
C1294 H1289 0.949 . S
C1294 C1300 1.368 . S
C1295 C1279 1.349 . S
C1295 H1287 0.950 . S
C1295 C1293 1.327 . S
C1296 C1284 1.349 . S
C1296 H1290 0.950 . S
C1296 C1297 1.327 . S
C1297 H1291 0.950 . S
C1297 C1296 1.327 . S
C1297 C1301 1.429 . S
C1298 C1281 1.574 . S
C1298 H1292 0.949 . S
C1298 C1302 1.368 . S
C1299 C1280 1.429 . S
C1299 C1293 1.429 . S
C1299 C1300 1.523 . S
C1300 C1281 1.368 . S
C1300 C1294 1.368 . S
C1300 C1299 1.523 . S
C1301 C1285 1.429 . S
C1301 C1297 1.429 . S
C1301 C1302 1.523 . S
C1302 C1286 1.368 . S
C1302 C1298 1.368 . S
C1302 C1301 1.523 . S
H1303 C1278 0.950 . S
H1304 C1280 0.950 . S
H1305 C1281 0.949 . S
H1306 C1283 0.950 . S
H1307 C1285 0.950 . S
C1308 C1309 1.349 . S
C1308 C1310 1.327 . S
C1308 H1333 0.950 . S
C1309 C1308 1.349 . S
C1309 C1325 1.349 . S
C1310 C1308 1.327 . S
C1310 C1329 1.429 . S
C1310 H1334 0.950 . S
C1311 C1328 1.574 . S
C1311 C1330 1.368 . S
C1311 H1335 0.949 . S
H1312 C1316 0.949 . S
C1313 C1314 1.349 . S
C1313 C1315 1.327 . S
C1313 H1336 0.950 . S
C1314 C1313 1.349 . S
C1314 C1326 1.349 . S
C1315 C1313 1.327 . S
C1315 C1331 1.429 . S
C1315 H1337 0.950 . S
C1316 H1312 0.949 . S
C1316 C1324 1.574 . S
C1316 C1332 1.368 . S
H1317 C1325 0.950 . S
H1318 C1323 0.950 . S
H1319 C1324 0.949 . S
H1320 C1326 0.950 . S
H1321 C1327 0.950 . S
H1322 C1328 0.949 . S
C1323 H1318 0.950 . S
C1323 C1325 1.327 . S
C1323 C1329 1.429 . S
C1324 C1316 1.574 . S
C1324 H1319 0.949 . S
C1324 C1330 1.368 . S
C1325 C1309 1.349 . S
C1325 H1317 0.950 . S
C1325 C1323 1.327 . S
C1326 C1314 1.349 . S
C1326 H1320 0.950 . S
C1326 C1327 1.327 . S
C1327 H1321 0.950 . S
C1327 C1326 1.327 . S
C1327 C1331 1.429 . S
C1328 C1311 1.574 . S
C1328 H1322 0.949 . S
C1328 C1332 1.368 . S
C1329 C1310 1.429 . S
C1329 C1323 1.429 . S
C1329 C1330 1.523 . S
C1330 C1311 1.368 . S
C1330 C1324 1.368 . S
C1330 C1329 1.523 . S
C1331 C1315 1.429 . S
C1331 C1327 1.429 . S
C1331 C1332 1.523 . S
C1332 C1316 1.368 . S
C1332 C1328 1.368 . S
C1332 C1331 1.523 . S
H1333 C1308 0.950 . S
H1334 C1310 0.950 . S
H1335 C1311 0.949 . S
H1336 C1313 0.950 . S
H1337 C1315 0.950 . S
C1338 C1339 1.349 . S
C1338 C1340 1.327 . S
C1338 H1363 0.950 . S
C1339 C1338 1.349 . S
C1339 C1355 1.349 . S
C1340 C1338 1.327 . S
C1340 C1359 1.429 . S
C1340 H1364 0.950 . S
C1341 C1358 1.574 . S
C1341 C1360 1.368 . S
C1341 H1365 0.949 . S
H1342 C1346 0.949 . S
C1343 C1344 1.349 . S
C1343 C1345 1.327 . S
C1343 H1366 0.950 . S
C1344 C1343 1.349 . S
C1344 C1356 1.349 . S
C1345 C1343 1.327 . S
C1345 C1361 1.429 . S
C1345 H1367 0.950 . S
C1346 H1342 0.949 . S
C1346 C1354 1.574 . S
C1346 C1362 1.368 . S
H1347 C1355 0.950 . S
H1348 C1353 0.950 . S
H1349 C1354 0.949 . S
H1350 C1356 0.950 . S
H1351 C1357 0.950 . S
H1352 C1358 0.949 . S
C1353 H1348 0.950 . S
C1353 C1355 1.327 . S
C1353 C1359 1.429 . S
C1354 C1346 1.574 . S
C1354 H1349 0.949 . S
C1354 C1360 1.368 . S
C1355 C1339 1.349 . S
C1355 H1347 0.950 . S
C1355 C1353 1.327 . S
C1356 C1344 1.349 . S
C1356 H1350 0.950 . S
C1356 C1357 1.327 . S
C1357 H1351 0.950 . S
C1357 C1356 1.327 . S
C1357 C1361 1.429 . S
C1358 C1341 1.574 . S
C1358 H1352 0.949 . S
C1358 C1362 1.368 . S
C1359 C1340 1.429 . S
C1359 C1353 1.429 . S
C1359 C1360 1.523 . S
C1360 C1341 1.368 . S
C1360 C1354 1.368 . S
C1360 C1359 1.523 . S
C1361 C1345 1.429 . S
C1361 C1357 1.429 . S
C1361 C1362 1.523 . S
C1362 C1346 1.368 . S
C1362 C1358 1.368 . S
C1362 C1361 1.523 . S
H1363 C1338 0.950 . S
H1364 C1340 0.950 . S
H1365 C1341 0.949 . S
H1366 C1343 0.950 . S
H1367 C1345 0.950 . S
C1368 C1369 1.349 . S
C1368 C1370 1.327 . S
C1368 H1393 0.950 . S
C1369 C1368 1.349 . S
C1369 C1385 1.349 . S
C1370 C1368 1.327 . S
C1370 C1389 1.429 . S
C1370 H1394 0.950 . S
C1371 C1388 1.574 . S
C1371 C1390 1.368 . S
C1371 H1395 0.949 . S
H1372 C1376 0.949 . S
C1373 C1374 1.349 . S
C1373 C1375 1.327 . S
C1373 H1396 0.950 1_554 S
C1374 C1373 1.349 . S
C1374 C1386 1.349 . S
C1375 C1373 1.327 . S
C1375 C1391 1.429 . S
C1375 H1397 0.950 . S
C1376 H1372 0.949 . S
C1376 C1384 1.574 . S
C1376 C1392 1.368 . S
H1377 C1385 0.950 . S
H1378 C1383 0.950 . S
H1379 C1384 0.949 . S
H1380 C1386 0.950 . S
H1381 C1387 0.950 . S
H1382 C1388 0.949 . S
C1383 H1378 0.950 . S
C1383 C1385 1.327 . S
C1383 C1389 1.429 . S
C1384 C1376 1.574 . S
C1384 H1379 0.949 . S
C1384 C1390 1.368 . S
C1385 C1369 1.349 . S
C1385 H1377 0.950 . S
C1385 C1383 1.327 . S
C1386 C1374 1.349 . S
C1386 H1380 0.950 . S
C1386 C1387 1.327 . S
C1387 H1381 0.950 . S
C1387 C1386 1.327 . S
C1387 C1391 1.429 . S
C1388 C1371 1.574 . S
C1388 H1382 0.949 . S
C1388 C1392 1.368 . S
C1389 C1370 1.429 . S
C1389 C1383 1.429 . S
C1389 C1390 1.523 . S
C1390 C1371 1.368 . S
C1390 C1384 1.368 . S
C1390 C1389 1.523 . S
C1391 C1375 1.429 . S
C1391 C1387 1.429 . S
C1391 C1392 1.523 . S
C1392 C1376 1.368 . S
C1392 C1388 1.368 . S
C1392 C1391 1.523 . S
H1393 C1368 0.950 . S
H1394 C1370 0.950 . S
H1395 C1371 0.949 . S
H1396 C1373 0.950 1_556 S
H1397 C1375 0.950 . S
C1398 C1399 1.349 . S
C1398 C1400 1.327 . S
C1398 H1423 0.950 . S
C1399 C1398 1.349 . S
C1399 C1415 1.349 . S
C1400 C1398 1.327 . S
C1400 C1419 1.429 . S
C1400 H1424 0.950 . S
C1401 C1418 1.574 . S
C1401 C1420 1.368 . S
C1401 H1425 0.949 . S
H1402 C1406 0.949 . S
C1403 C1404 1.349 . S
C1403 C1405 1.327 . S
C1403 H1426 0.950 1_554 S
C1404 C1403 1.349 . S
C1404 C1416 1.349 . S
C1405 C1403 1.327 . S
C1405 C1421 1.429 . S
C1405 H1427 0.950 . S
C1406 H1402 0.949 . S
C1406 C1414 1.574 . S
C1406 C1422 1.368 . S
H1407 C1415 0.950 . S
H1408 C1413 0.950 . S
H1409 C1414 0.949 . S
H1410 C1416 0.950 . S
H1411 C1417 0.950 . S
H1412 C1418 0.949 . S
C1413 H1408 0.950 . S
C1413 C1415 1.327 . S
C1413 C1419 1.429 . S
C1414 C1406 1.574 . S
C1414 H1409 0.949 . S
C1414 C1420 1.368 . S
C1415 C1399 1.349 . S
C1415 H1407 0.950 . S
C1415 C1413 1.327 . S
C1416 C1404 1.349 . S
C1416 H1410 0.950 . S
C1416 C1417 1.327 . S
C1417 H1411 0.950 . S
C1417 C1416 1.327 . S
C1417 C1421 1.429 . S
C1418 C1401 1.574 . S
C1418 H1412 0.949 . S
C1418 C1422 1.368 . S
C1419 C1400 1.429 . S
C1419 C1413 1.429 . S
C1419 C1420 1.523 . S
C1420 C1401 1.368 . S
C1420 C1414 1.368 . S
C1420 C1419 1.523 . S
C1421 C1405 1.429 . S
C1421 C1417 1.429 . S
C1421 C1422 1.523 . S
C1422 C1406 1.368 . S
C1422 C1418 1.368 . S
C1422 C1421 1.523 . S
H1423 C1398 0.950 . S
H1424 C1400 0.950 . S
H1425 C1401 0.949 . S
H1426 C1403 0.950 1_556 S
H1427 C1405 0.950 . S
C1428 C1429 1.349 . S
C1428 C1430 1.327 . S
C1428 H1453 0.950 . S
C1429 C1428 1.349 . S
C1429 C1445 1.349 . S
C1430 C1428 1.327 . S
C1430 C1449 1.429 . S
C1430 H1454 0.950 . S
C1431 C1448 1.574 . S
C1431 C1450 1.368 . S
C1431 H1455 0.949 . S
H1432 C1436 0.949 . S
C1433 C1434 1.349 . S
C1433 C1435 1.327 . S
C1433 H1456 0.950 . S
C1434 C1433 1.349 . S
C1434 C1446 1.349 . S
C1435 C1433 1.327 . S
C1435 C1451 1.429 . S
C1435 H1457 0.950 . S
C1436 H1432 0.949 . S
C1436 C1444 1.574 . S
C1436 C1452 1.368 . S
H1437 C1445 0.937 1_556 S
H1438 C1443 0.950 . S
H1439 C1444 0.949 . S
H1440 C1446 0.950 . S
H1441 C1447 0.950 . S
H1442 C1448 0.949 . S
C1443 H1438 0.950 . S
C1443 C1445 1.327 . S
C1443 C1449 1.429 . S
C1444 C1436 1.574 . S
C1444 H1439 0.949 . S
C1444 C1450 1.368 . S
C1445 C1429 1.349 . S
C1445 H1437 0.937 1_554 S
C1445 C1443 1.327 . S
C1446 C1434 1.349 . S
C1446 H1440 0.950 . S
C1446 C1447 1.327 . S
C1447 H1441 0.950 . S
C1447 C1446 1.327 . S
C1447 C1451 1.429 . S
C1448 C1431 1.574 . S
C1448 H1442 0.949 . S
C1448 C1452 1.368 . S
C1449 C1430 1.429 . S
C1449 C1443 1.429 . S
C1449 C1450 1.523 . S
C1450 C1431 1.368 . S
C1450 C1444 1.368 . S
C1450 C1449 1.523 . S
C1451 C1435 1.429 . S
C1451 C1447 1.429 . S
C1451 C1452 1.523 . S
C1452 C1436 1.368 . S
C1452 C1448 1.368 . S
C1452 C1451 1.523 . S
H1453 C1428 0.950 . S
H1454 C1430 0.950 . S
H1455 C1431 0.949 . S
H1456 C1433 0.950 . S
H1457 C1435 0.950 . S
C1458 C1459 1.349 . S
C1458 C1460 1.327 . S
C1458 H1483 0.950 . S
C1459 C1458 1.349 . S
C1459 C1475 1.349 . S
C1460 C1458 1.327 . S
C1460 C1479 1.429 . S
C1460 H1484 0.950 . S
C1461 C1478 1.574 1_556 S
C1461 C1480 1.368 . S
C1461 H1485 0.949 . S
H1462 C1466 0.949 . S
C1463 C1464 1.349 . S
C1463 C1465 1.327 . S
C1463 H1486 0.950 . S
C1464 C1463 1.349 . S
C1464 C1476 1.349 . S
C1465 C1463 1.327 . S
C1465 C1481 1.429 . S
C1465 H1487 0.950 . S
C1466 H1462 0.949 . S
C1466 C1474 1.574 1_554 S
C1466 C1482 1.368 . S
H1467 C1475 0.950 . S
H1468 C1473 0.950 . S
H1469 C1474 0.949 . S
H1470 C1476 0.950 . S
H1471 C1477 0.950 . S
H1472 C1478 0.949 . S
C1473 H1468 0.950 . S
C1473 C1475 1.327 . S
C1473 C1479 1.429 . S
C1474 C1466 1.574 1_556 S
C1474 H1469 0.949 . S
C1474 C1480 1.368 . S
C1475 C1459 1.349 . S
C1475 H1467 0.950 . S
C1475 C1473 1.327 . S
C1476 C1464 1.349 . S
C1476 H1470 0.950 . S
C1476 C1477 1.327 . S
C1477 H1471 0.950 . S
C1477 C1476 1.327 . S
C1477 C1481 1.429 . S
C1478 C1461 1.574 1_554 S
C1478 H1472 0.949 . S
C1478 C1482 1.368 . S
C1479 C1460 1.429 . S
C1479 C1473 1.429 . S
C1479 C1480 1.523 . S
C1480 C1461 1.368 . S
C1480 C1474 1.368 . S
C1480 C1479 1.523 . S
C1481 C1465 1.429 . S
C1481 C1477 1.429 . S
C1481 C1482 1.523 . S
C1482 C1466 1.368 . S
C1482 C1478 1.368 . S
C1482 C1481 1.523 . S
H1483 C1458 0.950 . S
H1484 C1460 0.950 . S
H1485 C1461 0.949 . S
H1486 C1463 0.950 . S
H1487 C1465 0.950 . S
C1488 C1489 1.349 . S
C1488 C1490 1.327 . S
C1488 H1513 0.950 . S
C1489 C1488 1.349 . S
C1489 C1505 1.349 . S
C1490 C1488 1.327 . S
C1490 C1509 1.429 . S
C1490 H1514 0.950 . S
C1491 C1508 1.574 1_556 S
C1491 C1510 1.368 . S
C1491 H1515 0.949 . S
H1492 C1496 0.949 . S
C1493 C1494 1.349 . S
C1493 C1495 1.327 . S
C1493 H1516 0.950 . S
C1494 C1493 1.349 . S
C1494 C1506 1.349 . S
C1495 C1493 1.327 . S
C1495 C1511 1.429 . S
C1495 H1517 0.950 . S
C1496 H1492 0.949 . S
C1496 C1504 1.574 . S
C1496 C1512 1.368 . S
H1497 C1505 0.950 . S
H1498 C1503 0.950 . S
H1499 C1504 0.949 . S
H1500 C1506 0.950 . S
H1501 C1507 0.950 . S
H1502 C1508 0.949 . S
C1503 H1498 0.950 . S
C1503 C1505 1.327 . S
C1503 C1509 1.429 . S
C1504 C1496 1.574 . S
C1504 H1499 0.949 . S
C1504 C1510 1.368 1_554 S
C1505 C1489 1.349 . S
C1505 H1497 0.950 . S
C1505 C1503 1.327 . S
C1506 C1494 1.349 . S
C1506 H1500 0.950 . S
C1506 C1507 1.327 . S
C1507 H1501 0.950 . S
C1507 C1506 1.327 . S
C1507 C1511 1.429 . S
C1508 C1491 1.574 1_554 S
C1508 H1502 0.949 . S
C1508 C1512 1.368 . S
C1509 C1490 1.429 . S
C1509 C1503 1.429 . S
C1509 C1510 1.523 . S
C1510 C1491 1.368 . S
C1510 C1504 1.368 1_556 S
C1510 C1509 1.523 . S
C1511 C1495 1.429 . S
C1511 C1507 1.429 . S
C1511 C1512 1.523 . S
C1512 C1496 1.368 . S
C1512 C1508 1.368 . S
C1512 C1511 1.523 . S
H1513 C1488 0.950 . S
H1514 C1490 0.950 . S
H1515 C1491 0.949 . S
H1516 C1493 0.950 . S
H1517 C1495 0.950 . S
C1518 C1519 1.349 . S
C1518 C1520 1.327 . S
C1518 H1543 0.950 . S
C1519 C1518 1.349 . S
C1519 C1535 1.349 . S
C1520 C1518 1.327 . S
C1520 C1539 1.429 . S
C1520 H1544 0.950 . S
C1521 C1538 1.574 . S
C1521 C1540 1.368 1_554 S
C1521 H1545 0.949 . S
H1522 C1526 0.949 . S
C1523 C1524 1.349 . S
C1523 C1525 1.327 . S
C1523 H1546 0.950 . S
C1524 C1523 1.349 . S
C1524 C1536 1.349 . S
C1525 C1523 1.327 . S
C1525 C1541 1.429 . S
C1525 H1547 0.950 . S
C1526 H1522 0.949 . S
C1526 C1534 1.574 1_554 S
C1526 C1542 1.368 . S
H1527 C1535 0.950 . S
H1528 C1533 0.950 . S
H1529 C1534 0.949 . S
H1530 C1536 0.950 . S
H1531 C1537 0.950 . S
H1532 C1538 0.949 . S
C1533 H1528 0.950 . S
C1533 C1535 1.327 . S
C1533 C1539 1.429 . S
C1534 C1526 1.574 1_556 S
C1534 H1529 0.949 . S
C1534 C1540 1.368 . S
C1535 C1519 1.349 . S
C1535 H1527 0.950 . S
C1535 C1533 1.327 . S
C1536 C1524 1.349 . S
C1536 H1530 0.950 . S
C1536 C1537 1.327 . S
C1537 H1531 0.950 . S
C1537 C1536 1.327 . S
C1537 C1541 1.429 . S
C1538 C1521 1.574 . S
C1538 H1532 0.949 . S
C1538 C1542 1.368 . S
C1539 C1520 1.429 . S
C1539 C1533 1.429 . S
C1539 C1540 1.523 . S
C1540 C1521 1.368 1_556 S
C1540 C1534 1.368 . S
C1540 C1539 1.523 . S
C1541 C1525 1.429 . S
C1541 C1537 1.429 . S
C1541 C1542 1.523 . S
C1542 C1526 1.368 . S
C1542 C1538 1.368 . S
C1542 C1541 1.523 . S
H1543 C1518 0.950 . S
H1544 C1520 0.950 . S
H1545 C1521 0.949 . S
H1546 C1523 0.950 . S
H1547 C1525 0.950 . S
C1548 C1549 1.349 . S
C1548 C1550 1.327 . S
C1548 H1573 0.950 . S
C1549 C1548 1.349 . S
C1549 C1565 1.349 . S
C1550 C1548 1.327 . S
C1550 C1569 1.429 . S
C1550 H1574 0.950 . S
C1551 C1568 1.574 . S
C1551 C1570 1.368 . S
C1551 H1575 0.949 . S
H1552 C1556 0.949 . S
C1553 C1554 1.349 . S
C1553 C1555 1.327 . S
C1553 H1576 0.950 . S
C1554 C1553 1.349 . S
C1554 C1566 1.349 . S
C1555 C1553 1.327 . S
C1555 C1571 1.429 . S
C1555 H1577 0.950 . S
C1556 H1552 0.949 . S
C1556 C1564 1.574 . S
C1556 C1572 1.368 . S
H1557 C1565 0.950 . S
H1558 C1563 0.950 . S
H1559 C1564 0.949 . S
H1560 C1566 0.950 . S
H1561 C1567 0.950 . S
H1562 C1568 0.949 . S
C1563 H1558 0.950 . S
C1563 C1565 1.327 . S
C1563 C1569 1.429 . S
C1564 C1556 1.574 . S
C1564 H1559 0.949 . S
C1564 C1570 1.368 . S
C1565 C1549 1.349 . S
C1565 H1557 0.950 . S
C1565 C1563 1.327 . S
C1566 C1554 1.349 . S
C1566 H1560 0.950 . S
C1566 C1567 1.327 . S
C1567 H1561 0.950 . S
C1567 C1566 1.327 . S
C1567 C1571 1.429 . S
C1568 C1551 1.574 . S
C1568 H1562 0.949 . S
C1568 C1572 1.368 . S
C1569 C1550 1.429 . S
C1569 C1563 1.429 . S
C1569 C1570 1.523 . S
C1570 C1551 1.368 . S
C1570 C1564 1.368 . S
C1570 C1569 1.523 . S
C1571 C1555 1.429 . S
C1571 C1567 1.429 . S
C1571 C1572 1.523 . S
C1572 C1556 1.368 . S
C1572 C1568 1.368 . S
C1572 C1571 1.523 . S
H1573 C1548 0.950 . S
H1574 C1550 0.950 . S
H1575 C1551 0.949 . S
H1576 C1553 0.950 . S
H1577 C1555 0.950 . S
C1578 C1579 1.349 . S
C1578 C1580 1.327 . S
C1578 H1603 0.950 . S
C1579 C1578 1.349 . S
C1579 C1595 1.349 . S
C1580 C1578 1.327 . S
C1580 C1599 1.429 . S
C1580 H1604 0.950 . S
C1581 C1598 1.574 . S
C1581 C1600 1.368 . S
C1581 H1605 0.949 . S
H1582 C1586 0.949 . S
C1583 C1584 1.349 . S
C1583 C1585 1.327 . S
C1583 H1606 0.950 . S
C1584 C1583 1.349 . S
C1584 C1596 1.349 . S
C1585 C1583 1.327 . S
C1585 C1601 1.429 . S
C1585 H1607 0.950 . S
C1586 H1582 0.949 . S
C1586 C1594 1.574 . S
C1586 C1602 1.368 . S
H1587 C1595 0.950 . S
H1588 C1593 0.950 . S
H1589 C1594 0.949 . S
H1590 C1596 0.950 . S
H1591 C1597 0.950 . S
H1592 C1598 0.949 . S
C1593 H1588 0.950 . S
C1593 C1595 1.327 . S
C1593 C1599 1.429 . S
C1594 C1586 1.574 . S
C1594 H1589 0.949 . S
C1594 C1600 1.368 . S
C1595 C1579 1.349 . S
C1595 H1587 0.950 . S
C1595 C1593 1.327 . S
C1596 C1584 1.349 . S
C1596 H1590 0.950 . S
C1596 C1597 1.327 . S
C1597 H1591 0.950 . S
C1597 C1596 1.327 . S
C1597 C1601 1.429 . S
C1598 C1581 1.574 . S
C1598 H1592 0.949 . S
C1598 C1602 1.368 . S
C1599 C1580 1.429 . S
C1599 C1593 1.429 . S
C1599 C1600 1.523 . S
C1600 C1581 1.368 . S
C1600 C1594 1.368 . S
C1600 C1599 1.523 . S
C1601 C1585 1.429 . S
C1601 C1597 1.429 . S
C1601 C1602 1.523 . S
C1602 C1586 1.368 . S
C1602 C1598 1.368 . S
C1602 C1601 1.523 . S
H1603 C1578 0.950 . S
H1604 C1580 0.950 . S
H1605 C1581 0.949 . S
H1606 C1583 0.950 . S
H1607 C1585 0.950 . S
C1608 C1609 1.349 . S
C1608 C1610 1.327 . S
C1608 H1633 0.950 . S
C1609 C1608 1.349 . S
C1609 C1625 1.349 . S
C1610 C1608 1.327 . S
C1610 C1629 1.429 . S
C1610 H1634 0.950 . S
C1611 C1628 1.574 . S
C1611 C1630 1.368 . S
C1611 H1635 0.949 . S
H1612 C1616 0.949 . S
C1613 C1614 1.349 . S
C1613 C1615 1.327 . S
C1613 H1636 0.950 . S
C1614 C1613 1.349 . S
C1614 C1626 1.349 . S
C1615 C1613 1.327 . S
C1615 C1631 1.429 . S
C1615 H1637 0.950 . S
C1616 H1612 0.949 . S
C1616 C1624 1.574 . S
C1616 C1632 1.368 . S
H1617 C1625 0.950 . S
H1618 C1623 0.950 . S
H1619 C1624 0.949 . S
H1620 C1626 0.950 . S
H1621 C1627 0.950 . S
H1622 C1628 0.949 . S
C1623 H1618 0.950 . S
C1623 C1625 1.327 . S
C1623 C1629 1.429 . S
C1624 C1616 1.574 . S
C1624 H1619 0.949 . S
C1624 C1630 1.368 . S
C1625 C1609 1.349 . S
C1625 H1617 0.950 . S
C1625 C1623 1.327 . S
C1626 C1614 1.349 . S
C1626 H1620 0.950 . S
C1626 C1627 1.327 . S
C1627 H1621 0.950 . S
C1627 C1626 1.327 . S
C1627 C1631 1.429 . S
C1628 C1611 1.574 . S
C1628 H1622 0.949 . S
C1628 C1632 1.368 . S
C1629 C1610 1.429 . S
C1629 C1623 1.429 . S
C1629 C1630 1.523 . S
C1630 C1611 1.368 . S
C1630 C1624 1.368 . S
C1630 C1629 1.523 . S
C1631 C1615 1.429 . S
C1631 C1627 1.429 . S
C1631 C1632 1.523 . S
C1632 C1616 1.368 . S
C1632 C1628 1.368 . S
C1632 C1631 1.523 . S
H1633 C1608 0.950 . S
H1634 C1610 0.950 . S
H1635 C1611 0.949 . S
H1636 C1613 0.950 . S
H1637 C1615 0.950 . S
C1638 C1639 1.349 . S
C1638 C1640 1.327 . S
C1638 H1663 0.950 . S
C1639 C1638 1.349 . S
C1639 C1655 1.349 . S
C1640 C1638 1.327 . S
C1640 C1659 1.429 . S
C1640 H1664 0.950 . S
C1641 C1658 1.574 . S
C1641 C1660 1.368 . S
C1641 H1665 0.949 . S
H1642 C1646 0.949 . S
C1643 C1644 1.349 . S
C1643 C1645 1.327 . S
C1643 H1666 0.950 . S
C1644 C1643 1.349 . S
C1644 C1656 1.349 . S
C1645 C1643 1.327 . S
C1645 C1661 1.429 . S
C1645 H1667 0.950 . S
C1646 H1642 0.949 . S
C1646 C1654 1.574 . S
C1646 C1662 1.368 . S
H1647 C1655 0.950 . S
H1648 C1653 0.950 . S
H1649 C1654 0.949 . S
H1650 C1656 0.950 . S
H1651 C1657 0.950 . S
H1652 C1658 0.949 . S
C1653 H1648 0.950 . S
C1653 C1655 1.327 . S
C1653 C1659 1.429 . S
C1654 C1646 1.574 . S
C1654 H1649 0.949 . S
C1654 C1660 1.368 . S
C1655 C1639 1.349 . S
C1655 H1647 0.950 . S
C1655 C1653 1.327 . S
C1656 C1644 1.349 . S
C1656 H1650 0.950 . S
C1656 C1657 1.327 . S
C1657 H1651 0.950 . S
C1657 C1656 1.327 . S
C1657 C1661 1.429 . S
C1658 C1641 1.574 . S
C1658 H1652 0.949 . S
C1658 C1662 1.368 . S
C1659 C1640 1.429 . S
C1659 C1653 1.429 . S
C1659 C1660 1.523 . S
C1660 C1641 1.368 . S
C1660 C1654 1.368 . S
C1660 C1659 1.523 . S
C1661 C1645 1.429 . S
C1661 C1657 1.429 . S
C1661 C1662 1.523 . S
C1662 C1646 1.368 . S
C1662 C1658 1.368 . S
C1662 C1661 1.523 . S
H1663 C1638 0.950 . S
H1664 C1640 0.950 . S
H1665 C1641 0.949 . S
H1666 C1643 0.950 . S
H1667 C1645 0.950 . S
C1668 C1669 1.349 . S
C1668 C1670 1.327 . S
C1668 H1693 0.950 . S
C1669 C1668 1.349 . S
C1669 C1685 1.349 . S
C1670 C1668 1.327 . S
C1670 C1689 1.429 . S
C1670 H1694 0.950 . S
C1671 C1688 1.574 . S
C1671 C1690 1.368 . S
C1671 H1695 0.949 . S
H1672 C1676 0.949 . S
C1673 C1674 1.349 . S
C1673 C1675 1.327 . S
C1673 H1696 0.950 . S
C1674 C1673 1.349 . S
C1674 C1686 1.349 . S
C1675 C1673 1.327 . S
C1675 C1691 1.429 . S
C1675 H1697 0.950 . S
C1676 H1672 0.949 . S
C1676 C1684 1.574 . S
C1676 C1692 1.368 . S
H1677 C1685 0.950 . S
H1678 C1683 0.950 . S
H1679 C1684 0.949 . S
H1680 C1686 0.950 . S
H1681 C1687 0.950 . S
H1682 C1688 0.949 . S
C1683 H1678 0.950 . S
C1683 C1685 1.327 . S
C1683 C1689 1.429 . S
C1684 C1676 1.574 . S
C1684 H1679 0.949 . S
C1684 C1690 1.368 . S
C1685 C1669 1.349 . S
C1685 H1677 0.950 . S
C1685 C1683 1.327 . S
C1686 C1674 1.349 . S
C1686 H1680 0.950 . S
C1686 C1687 1.327 . S
C1687 H1681 0.950 . S
C1687 C1686 1.327 . S
C1687 C1691 1.429 . S
C1688 C1671 1.574 . S
C1688 H1682 0.949 . S
C1688 C1692 1.368 . S
C1689 C1670 1.429 . S
C1689 C1683 1.429 . S
C1689 C1690 1.523 . S
C1690 C1671 1.368 . S
C1690 C1684 1.368 . S
C1690 C1689 1.523 . S
C1691 C1675 1.429 . S
C1691 C1687 1.429 . S
C1691 C1692 1.523 . S
C1692 C1676 1.368 . S
C1692 C1688 1.368 . S
C1692 C1691 1.523 . S
H1693 C1668 0.950 . S
H1694 C1670 0.950 . S
H1695 C1671 0.949 . S
H1696 C1673 0.950 . S
H1697 C1675 0.950 . S
C1698 C1699 1.349 . S
C1698 C1700 1.327 . S
C1698 H1723 0.950 . S
C1699 C1698 1.349 . S
C1699 C1715 1.349 . S
C1700 C1698 1.327 . S
C1700 C1719 1.429 . S
C1700 H1724 0.950 . S
C1701 C1718 1.574 . S
C1701 C1720 1.368 . S
C1701 H1725 0.949 . S
H1702 C1706 0.949 . S
C1703 C1704 1.349 . S
C1703 C1705 1.327 . S
C1703 H1726 0.950 . S
C1704 C1703 1.349 . S
C1704 C1716 1.349 . S
C1705 C1703 1.327 . S
C1705 C1721 1.429 . S
C1705 H1727 0.950 . S
C1706 H1702 0.949 . S
C1706 C1714 1.574 . S
C1706 C1722 1.368 . S
H1707 C1715 0.950 . S
H1708 C1713 0.950 . S
H1709 C1714 0.949 . S
H1710 C1716 0.950 . S
H1711 C1717 0.950 . S
H1712 C1718 0.949 . S
C1713 H1708 0.950 . S
C1713 C1715 1.327 . S
C1713 C1719 1.429 . S
C1714 C1706 1.574 . S
C1714 H1709 0.949 . S
C1714 C1720 1.368 . S
C1715 C1699 1.349 . S
C1715 H1707 0.950 . S
C1715 C1713 1.327 . S
C1716 C1704 1.349 . S
C1716 H1710 0.950 . S
C1716 C1717 1.327 . S
C1717 H1711 0.950 . S
C1717 C1716 1.327 . S
C1717 C1721 1.429 . S
C1718 C1701 1.574 . S
C1718 H1712 0.949 . S
C1718 C1722 1.368 . S
C1719 C1700 1.429 . S
C1719 C1713 1.429 . S
C1719 C1720 1.523 . S
C1720 C1701 1.368 . S
C1720 C1714 1.368 . S
C1720 C1719 1.523 . S
C1721 C1705 1.429 . S
C1721 C1717 1.429 . S
C1721 C1722 1.523 . S
C1722 C1706 1.368 . S
C1722 C1718 1.368 . S
C1722 C1721 1.523 . S
H1723 C1698 0.950 . S
H1724 C1700 0.950 . S
H1725 C1701 0.949 . S
H1726 C1703 0.950 . S
H1727 C1705 0.950 . S
C1728 C1729 1.349 . S
C1728 C1730 1.327 . S
C1728 H1753 0.950 . S
C1729 C1728 1.349 . S
C1729 C1745 1.349 . S
C1730 C1728 1.327 . S
C1730 C1749 1.429 . S
C1730 H1754 0.950 . S
C1731 C1748 1.574 . S
C1731 C1750 1.368 . S
C1731 H1755 0.949 . S
H1732 C1736 0.949 . S
C1733 C1734 1.349 . S
C1733 C1735 1.327 . S
C1733 H1756 0.950 . S
C1734 C1733 1.349 . S
C1734 C1746 1.349 . S
C1735 C1733 1.327 . S
C1735 C1751 1.429 . S
C1735 H1757 0.950 . S
C1736 H1732 0.949 . S
C1736 C1744 1.574 . S
C1736 C1752 1.368 . S
H1737 C1745 0.950 . S
H1738 C1743 0.950 . S
H1739 C1744 0.949 . S
H1740 C1746 0.950 . S
H1741 C1747 0.950 . S
H1742 C1748 0.949 . S
C1743 H1738 0.950 . S
C1743 C1745 1.327 . S
C1743 C1749 1.429 . S
C1744 C1736 1.574 . S
C1744 H1739 0.949 . S
C1744 C1750 1.368 . S
C1745 C1729 1.349 . S
C1745 H1737 0.950 . S
C1745 C1743 1.327 . S
C1746 C1734 1.349 . S
C1746 H1740 0.950 . S
C1746 C1747 1.327 . S
C1747 H1741 0.950 . S
C1747 C1746 1.327 . S
C1747 C1751 1.429 . S
C1748 C1731 1.574 . S
C1748 H1742 0.949 . S
C1748 C1752 1.368 . S
C1749 C1730 1.429 . S
C1749 C1743 1.429 . S
C1749 C1750 1.523 . S
C1750 C1731 1.368 . S
C1750 C1744 1.368 . S
C1750 C1749 1.523 . S
C1751 C1735 1.429 . S
C1751 C1747 1.429 . S
C1751 C1752 1.523 . S
C1752 C1736 1.368 . S
C1752 C1748 1.368 . S
C1752 C1751 1.523 . S
H1753 C1728 0.950 . S
H1754 C1730 0.950 . S
H1755 C1731 0.949 . S
H1756 C1733 0.950 . S
H1757 C1735 0.950 . S
C1758 C1759 1.349 . S
C1758 C1760 1.327 . S
C1758 H1783 0.950 . S
C1759 C1758 1.349 . S
C1759 C1775 1.349 . S
C1760 C1758 1.327 . S
C1760 C1779 1.429 . S
C1760 H1784 0.950 . S
C1761 C1778 1.574 . S
C1761 C1780 1.368 . S
C1761 H1785 0.949 . S
H1762 C1766 0.949 . S
C1763 C1764 1.349 . S
C1763 C1765 1.327 . S
C1763 H1786 0.950 . S
C1764 C1763 1.349 . S
C1764 C1776 1.349 . S
C1765 C1763 1.327 . S
C1765 C1781 1.429 . S
C1765 H1787 0.950 . S
C1766 H1762 0.949 . S
C1766 C1774 1.574 . S
C1766 C1782 1.368 . S
H1767 C1775 0.950 . S
H1768 C1773 0.950 . S
H1769 C1774 0.949 . S
H1770 C1776 0.950 . S
H1771 C1777 0.950 . S
H1772 C1778 0.949 . S
C1773 H1768 0.950 . S
C1773 C1775 1.327 . S
C1773 C1779 1.429 . S
C1774 C1766 1.574 . S
C1774 H1769 0.949 . S
C1774 C1780 1.368 . S
C1775 C1759 1.349 . S
C1775 H1767 0.950 . S
C1775 C1773 1.327 . S
C1776 C1764 1.349 . S
C1776 H1770 0.950 . S
C1776 C1777 1.327 . S
C1777 H1771 0.950 . S
C1777 C1776 1.327 . S
C1777 C1781 1.429 . S
C1778 C1761 1.574 . S
C1778 H1772 0.949 . S
C1778 C1782 1.368 . S
C1779 C1760 1.429 . S
C1779 C1773 1.429 . S
C1779 C1780 1.523 . S
C1780 C1761 1.368 . S
C1780 C1774 1.368 . S
C1780 C1779 1.523 . S
C1781 C1765 1.429 . S
C1781 C1777 1.429 . S
C1781 C1782 1.523 . S
C1782 C1766 1.368 . S
C1782 C1778 1.368 . S
C1782 C1781 1.523 . S
H1783 C1758 0.950 . S
H1784 C1760 0.950 . S
H1785 C1761 0.949 . S
H1786 C1763 0.950 . S
H1787 C1765 0.950 . S
C1788 C1789 1.349 . S
C1788 C1790 1.327 . S
C1788 H1813 0.950 . S
C1789 C1788 1.349 . S
C1789 C1805 1.349 . S
C1790 C1788 1.327 . S
C1790 C1809 1.429 . S
C1790 H1814 0.950 . S
C1791 C1808 1.574 . S
C1791 C1810 1.368 . S
C1791 H1815 0.949 . S
H1792 C1796 0.949 . S
C1793 C1794 1.349 . S
C1793 C1795 1.327 . S
C1793 H1816 0.950 . S
C1794 C1793 1.349 . S
C1794 C1806 1.349 . S
C1795 C1793 1.327 . S
C1795 C1811 1.429 . S
C1795 H1817 0.950 . S
C1796 H1792 0.949 . S
C1796 C1804 1.574 . S
C1796 C1812 1.368 . S
H1797 C1805 0.950 . S
H1798 C1803 0.950 . S
H1799 C1804 0.949 . S
H1800 C1806 0.950 . S
H1801 C1807 0.950 . S
H1802 C1808 0.949 . S
C1803 H1798 0.950 . S
C1803 C1805 1.327 . S
C1803 C1809 1.429 . S
C1804 C1796 1.574 . S
C1804 H1799 0.949 . S
C1804 C1810 1.368 . S
C1805 C1789 1.349 . S
C1805 H1797 0.950 . S
C1805 C1803 1.327 . S
C1806 C1794 1.349 . S
C1806 H1800 0.950 . S
C1806 C1807 1.327 . S
C1807 H1801 0.950 . S
C1807 C1806 1.327 . S
C1807 C1811 1.429 . S
C1808 C1791 1.574 . S
C1808 H1802 0.949 . S
C1808 C1812 1.368 . S
C1809 C1790 1.429 . S
C1809 C1803 1.429 . S
C1809 C1810 1.523 . S
C1810 C1791 1.368 . S
C1810 C1804 1.368 . S
C1810 C1809 1.523 . S
C1811 C1795 1.429 . S
C1811 C1807 1.429 . S
C1811 C1812 1.523 . S
C1812 C1796 1.368 . S
C1812 C1808 1.368 . S
C1812 C1811 1.523 . S
H1813 C1788 0.950 . S
H1814 C1790 0.950 . S
H1815 C1791 0.949 . S
H1816 C1793 0.950 . S
H1817 C1795 0.950 . S
C1818 C1819 1.349 . S
C1818 C1820 1.327 . S
C1818 H1843 0.950 . S
C1819 C1818 1.349 . S
C1819 C1835 1.349 . S
C1820 C1818 1.327 . S
C1820 C1839 1.429 . S
C1820 H1844 0.950 . S
C1821 C1838 1.574 . S
C1821 C1840 1.368 . S
C1821 H1845 0.949 . S
H1822 C1826 0.949 . S
C1823 C1824 1.349 . S
C1823 C1825 1.327 . S
C1823 H1846 0.950 . S
C1824 C1823 1.349 . S
C1824 C1836 1.349 . S
C1825 C1823 1.327 . S
C1825 C1841 1.429 . S
C1825 H1847 0.950 . S
C1826 H1822 0.949 . S
C1826 C1834 1.574 . S
C1826 C1842 1.368 . S
H1827 C1835 0.950 . S
H1828 C1833 0.950 . S
H1829 C1834 0.949 . S
H1830 C1836 0.950 . S
H1831 C1837 0.950 . S
H1832 C1838 0.949 . S
C1833 H1828 0.950 . S
C1833 C1835 1.327 . S
C1833 C1839 1.429 . S
C1834 C1826 1.574 . S
C1834 H1829 0.949 . S
C1834 C1840 1.368 . S
C1835 C1819 1.349 . S
C1835 H1827 0.950 . S
C1835 C1833 1.327 . S
C1836 C1824 1.349 . S
C1836 H1830 0.950 . S
C1836 C1837 1.327 . S
C1837 H1831 0.950 . S
C1837 C1836 1.327 . S
C1837 C1841 1.429 . S
C1838 C1821 1.574 . S
C1838 H1832 0.949 . S
C1838 C1842 1.368 . S
C1839 C1820 1.429 . S
C1839 C1833 1.429 . S
C1839 C1840 1.523 . S
C1840 C1821 1.368 . S
C1840 C1834 1.368 . S
C1840 C1839 1.523 . S
C1841 C1825 1.429 . S
C1841 C1837 1.429 . S
C1841 C1842 1.523 . S
C1842 C1826 1.368 . S
C1842 C1838 1.368 . S
C1842 C1841 1.523 . S
H1843 C1818 0.950 . S
H1844 C1820 0.950 . S
H1845 C1821 0.949 . S
H1846 C1823 0.950 . S
H1847 C1825 0.950 . S
C1848 C1849 1.349 . S
C1848 C1850 1.327 . S
C1848 H1873 0.950 . S
C1849 C1848 1.349 . S
C1849 C1865 1.349 . S
C1850 C1848 1.327 . S
C1850 C1869 1.429 . S
C1850 H1874 0.950 . S
C1851 C1868 1.574 . S
C1851 C1870 1.368 . S
C1851 H1875 0.949 . S
H1852 C1856 0.949 . S
C1853 C1854 1.349 . S
C1853 C1855 1.327 . S
C1853 H1876 0.950 . S
C1854 C1853 1.349 . S
C1854 C1866 1.349 . S
C1855 C1853 1.327 . S
C1855 C1871 1.429 . S
C1855 H1877 0.950 . S
C1856 H1852 0.949 . S
C1856 C1864 1.574 . S
C1856 C1872 1.368 . S
H1857 C1865 0.950 . S
H1858 C1863 0.950 . S
H1859 C1864 0.949 . S
H1860 C1866 0.950 . S
H1861 C1867 0.950 . S
H1862 C1868 0.949 . S
C1863 H1858 0.950 . S
C1863 C1865 1.327 . S
C1863 C1869 1.429 . S
C1864 C1856 1.574 . S
C1864 H1859 0.949 . S
C1864 C1870 1.368 . S
C1865 C1849 1.349 . S
C1865 H1857 0.950 . S
C1865 C1863 1.327 . S
C1866 C1854 1.349 . S
C1866 H1860 0.950 . S
C1866 C1867 1.327 . S
C1867 H1861 0.950 . S
C1867 C1866 1.327 . S
C1867 C1871 1.429 . S
C1868 C1851 1.574 . S
C1868 H1862 0.949 . S
C1868 C1872 1.368 . S
C1869 C1850 1.429 . S
C1869 C1863 1.429 . S
C1869 C1870 1.523 . S
C1870 C1851 1.368 . S
C1870 C1864 1.368 . S
C1870 C1869 1.523 . S
C1871 C1855 1.429 . S
C1871 C1867 1.429 . S
C1871 C1872 1.523 . S
C1872 C1856 1.368 . S
C1872 C1868 1.368 . S
C1872 C1871 1.523 . S
H1873 C1848 0.950 . S
H1874 C1850 0.950 . S
H1875 C1851 0.949 . S
H1876 C1853 0.950 . S
H1877 C1855 0.950 . S
C1878 C1879 1.349 . S
C1878 C1880 1.327 . S
C1878 H1903 0.950 . S
C1879 C1878 1.349 . S
C1879 C1895 1.349 . S
C1880 C1878 1.327 . S
C1880 C1899 1.429 . S
C1880 H1904 0.950 . S
C1881 C1898 1.574 . S
C1881 C1900 1.368 . S
C1881 H1905 0.949 . S
H1882 C1886 0.949 . S
C1883 C1884 1.349 . S
C1883 C1885 1.327 . S
C1883 H1906 0.950 . S
C1884 C1883 1.349 . S
C1884 C1896 1.349 . S
C1885 C1883 1.327 . S
C1885 C1901 1.429 . S
C1885 H1907 0.950 . S
C1886 H1882 0.949 . S
C1886 C1894 1.574 . S
C1886 C1902 1.368 . S
H1887 C1895 0.950 . S
H1888 C1893 0.950 . S
H1889 C1894 0.949 . S
H1890 C1896 0.950 . S
H1891 C1897 0.950 . S
H1892 C1898 0.949 . S
C1893 H1888 0.950 . S
C1893 C1895 1.327 . S
C1893 C1899 1.429 . S
C1894 C1886 1.574 . S
C1894 H1889 0.949 . S
C1894 C1900 1.368 . S
C1895 C1879 1.349 . S
C1895 H1887 0.950 . S
C1895 C1893 1.327 . S
C1896 C1884 1.349 . S
C1896 H1890 0.950 . S
C1896 C1897 1.327 . S
C1897 H1891 0.950 . S
C1897 C1896 1.327 . S
C1897 C1901 1.429 . S
C1898 C1881 1.574 . S
C1898 H1892 0.949 . S
C1898 C1902 1.368 . S
C1899 C1880 1.429 . S
C1899 C1893 1.429 . S
C1899 C1900 1.523 . S
C1900 C1881 1.368 . S
C1900 C1894 1.368 . S
C1900 C1899 1.523 . S
C1901 C1885 1.429 . S
C1901 C1897 1.429 . S
C1901 C1902 1.523 . S
C1902 C1886 1.368 . S
C1902 C1898 1.368 . S
C1902 C1901 1.523 . S
H1903 C1878 0.950 . S
H1904 C1880 0.950 . S
H1905 C1881 0.949 . S
H1906 C1883 0.950 . S
H1907 C1885 0.950 . S
C1908 C1909 1.349 . S
C1908 C1910 1.327 . S
C1908 H1933 0.950 . S
C1909 C1908 1.349 . S
C1909 C1925 1.349 . S
C1910 C1908 1.327 . S
C1910 C1929 1.429 . S
C1910 H1934 0.950 . S
C1911 C1928 1.574 . S
C1911 C1930 1.368 . S
C1911 H1935 0.949 . S
H1912 C1916 0.949 . S
C1913 C1914 1.349 . S
C1913 C1915 1.327 . S
C1913 H1936 0.950 . S
C1914 C1913 1.349 . S
C1914 C1926 1.349 . S
C1915 C1913 1.327 . S
C1915 C1931 1.429 . S
C1915 H1937 0.950 . S
C1916 H1912 0.949 . S
C1916 C1924 1.574 . S
C1916 C1932 1.368 . S
H1917 C1925 0.950 . S
H1918 C1923 0.950 . S
H1919 C1924 0.949 . S
H1920 C1926 0.950 1_554 S
H1921 C1927 0.950 . S
H1922 C1928 0.949 . S
C1923 H1918 0.950 . S
C1923 C1925 1.327 . S
C1923 C1929 1.429 . S
C1924 C1916 1.574 . S
C1924 H1919 0.949 . S
C1924 C1930 1.368 . S
C1925 C1909 1.349 . S
C1925 H1917 0.950 . S
C1925 C1923 1.327 . S
C1926 C1914 1.349 . S
C1926 H1920 0.950 1_556 S
C1926 C1927 1.327 . S
C1927 H1921 0.950 . S
C1927 C1926 1.327 . S
C1927 C1931 1.429 . S
C1928 C1911 1.574 . S
C1928 H1922 0.949 . S
C1928 C1932 1.368 . S
C1929 C1910 1.429 . S
C1929 C1923 1.429 . S
C1929 C1930 1.523 . S
C1930 C1911 1.368 . S
C1930 C1924 1.368 . S
C1930 C1929 1.523 . S
C1931 C1915 1.429 . S
C1931 C1927 1.429 . S
C1931 C1932 1.523 . S
C1932 C1916 1.368 . S
C1932 C1928 1.368 . S
C1932 C1931 1.523 . S
H1933 C1908 0.950 . S
H1934 C1910 0.950 . S
H1935 C1911 0.949 . S
H1936 C1913 0.950 . S
H1937 C1915 0.950 . S
C1938 C1939 1.349 . S
C1938 C1940 1.327 . S
C1938 H1963 0.950 . S
C1939 C1938 1.349 . S
C1939 C1955 1.349 . S
C1940 C1938 1.327 . S
C1940 C1959 1.429 . S
C1940 H1964 0.950 . S
C1941 C1958 1.574 . S
C1941 C1960 1.368 . S
C1941 H1965 0.949 . S
H1942 C1946 0.949 . S
C1943 C1944 1.349 . S
C1943 C1945 1.327 . S
C1943 H1966 0.950 . S
C1944 C1943 1.349 . S
C1944 C1956 1.349 . S
C1945 C1943 1.327 . S
C1945 C1961 1.429 . S
C1945 H1967 0.950 . S
C1946 H1942 0.949 . S
C1946 C1954 1.574 . S
C1946 C1962 1.368 . S
H1947 C1955 0.950 1_554 S
H1948 C1953 0.950 . S
H1949 C1954 0.949 . S
H1950 C1956 0.950 . S
H1951 C1957 0.950 . S
H1952 C1958 0.949 . S
C1953 H1948 0.950 . S
C1953 C1955 1.327 . S
C1953 C1959 1.429 . S
C1954 C1946 1.574 . S
C1954 H1949 0.949 . S
C1954 C1960 1.368 . S
C1955 C1939 1.349 . S
C1955 H1947 0.950 1_556 S
C1955 C1953 1.327 . S
C1956 C1944 1.349 . S
C1956 H1950 0.950 . S
C1956 C1957 1.327 . S
C1957 H1951 0.950 . S
C1957 C1956 1.327 . S
C1957 C1961 1.429 . S
C1958 C1941 1.574 . S
C1958 H1952 0.949 . S
C1958 C1962 1.368 . S
C1959 C1940 1.429 . S
C1959 C1953 1.429 . S
C1959 C1960 1.523 . S
C1960 C1941 1.368 . S
C1960 C1954 1.368 . S
C1960 C1959 1.523 . S
C1961 C1945 1.429 . S
C1961 C1957 1.429 . S
C1961 C1962 1.523 . S
C1962 C1946 1.368 . S
C1962 C1958 1.368 . S
C1962 C1961 1.523 . S
H1963 C1938 0.950 . S
H1964 C1940 0.950 . S
H1965 C1941 0.949 . S
H1966 C1943 0.950 . S
H1967 C1945 0.950 . S
C1968 C1969 1.349 . S
C1968 C1970 1.327 . S
C1968 H1993 0.950 . S
C1969 C1968 1.349 . S
C1969 C1985 1.349 . S
C1970 C1968 1.327 . S
C1970 C1989 1.429 . S
C1970 H1994 0.950 . S
C1971 C1988 1.574 . S
C1971 C1990 1.368 . S
C1971 H1995 0.949 . S
H1972 C1976 0.949 . S
C1973 C1974 1.349 . S
C1973 C1975 1.327 . S
C1973 H1996 0.939 1_556 S
C1974 C1973 1.349 . S
C1974 C1986 1.349 . S
C1975 C1973 1.327 . S
C1975 C1991 1.429 . S
C1975 H1997 0.950 . S
C1976 H1972 0.949 . S
C1976 C1984 1.574 . S
C1976 C1992 1.368 . S
H1977 C1985 0.950 . S
H1978 C1983 0.950 . S
H1979 C1984 0.949 . S
H1980 C1986 0.950 . S
H1981 C1987 0.950 . S
H1982 C1988 0.949 . S
C1983 H1978 0.950 . S
C1983 C1985 1.327 . S
C1983 C1989 1.429 . S
C1984 C1976 1.574 . S
C1984 H1979 0.949 . S
C1984 C1990 1.368 . S
C1985 C1969 1.349 . S
C1985 H1977 0.950 . S
C1985 C1983 1.327 . S
C1986 C1974 1.349 . S
C1986 H1980 0.950 . S
C1986 C1987 1.327 . S
C1987 H1981 0.950 . S
C1987 C1986 1.327 . S
C1987 C1991 1.429 . S
C1988 C1971 1.574 . S
C1988 H1982 0.949 . S
C1988 C1992 1.368 . S
C1989 C1970 1.429 . S
C1989 C1983 1.429 . S
C1989 C1990 1.523 . S
C1990 C1971 1.368 . S
C1990 C1984 1.368 . S
C1990 C1989 1.523 . S
C1991 C1975 1.429 . S
C1991 C1987 1.429 . S
C1991 C1992 1.523 . S
C1992 C1976 1.368 . S
C1992 C1988 1.368 . S
C1992 C1991 1.523 . S
H1993 C1968 0.950 . S
H1994 C1970 0.950 . S
H1995 C1971 0.949 . S
H1996 C1973 0.939 1_554 S
H1997 C1975 0.950 . S
C1998 C1999 1.349 . S
C1998 C2000 1.327 . S
C1998 H2023 0.950 . S
C1999 C1998 1.349 . S
C1999 C2015 1.349 . S
C2000 C1998 1.327 . S
C2000 C2019 1.429 . S
C2000 H2024 0.950 . S
C2001 C2018 1.574 1_556 S
C2001 C2020 1.368 . S
C2001 H2025 0.949 . S
H2002 C2006 0.949 . S
C2003 C2004 1.349 . S
C2003 C2005 1.327 . S
C2003 H2026 0.950 . S
C2004 C2003 1.349 . S
C2004 C2016 1.349 . S
C2005 C2003 1.327 . S
C2005 C2021 1.429 . S
C2005 H2027 0.950 . S
C2006 H2002 0.949 . S
C2006 C2014 1.574 1_554 S
C2006 C2022 1.368 . S
H2007 C2015 0.950 . S
H2008 C2013 0.950 . S
H2009 C2014 0.949 . S
H2010 C2016 0.950 . S
H2011 C2017 0.950 . S
H2012 C2018 0.949 . S
C2013 H2008 0.950 . S
C2013 C2015 1.327 . S
C2013 C2019 1.429 . S
C2014 C2006 1.574 1_556 S
C2014 H2009 0.949 . S
C2014 C2020 1.368 . S
C2015 C1999 1.349 . S
C2015 H2007 0.950 . S
C2015 C2013 1.327 . S
C2016 C2004 1.349 . S
C2016 H2010 0.950 . S
C2016 C2017 1.327 . S
C2017 H2011 0.950 . S
C2017 C2016 1.327 . S
C2017 C2021 1.429 . S
C2018 C2001 1.574 1_554 S
C2018 H2012 0.949 . S
C2018 C2022 1.368 . S
C2019 C2000 1.429 . S
C2019 C2013 1.429 . S
C2019 C2020 1.523 . S
C2020 C2001 1.368 . S
C2020 C2014 1.368 . S
C2020 C2019 1.523 . S
C2021 C2005 1.429 . S
C2021 C2017 1.429 . S
C2021 C2022 1.523 . S
C2022 C2006 1.368 . S
C2022 C2018 1.368 . S
C2022 C2021 1.523 . S
H2023 C1998 0.950 . S
H2024 C2000 0.950 . S
H2025 C2001 0.949 . S
H2026 C2003 0.950 . S
H2027 C2005 0.950 . S
C2028 C2029 1.349 . S
C2028 C2030 1.327 . S
C2028 H2053 0.950 . S
C2029 C2028 1.349 . S
C2029 C2045 1.349 . S
C2030 C2028 1.327 . S
C2030 C2049 1.429 . S
C2030 H2054 0.950 . S
C2031 C2048 1.574 . S
C2031 C2050 1.368 . S
C2031 H2055 0.949 . S
H2032 C2036 0.949 . S
C2033 C2034 1.349 . S
C2033 C2035 1.327 . S
C2033 H2056 0.950 . S
C2034 C2033 1.349 . S
C2034 C2046 1.349 . S
C2035 C2033 1.327 . S
C2035 C2051 1.429 . S
C2035 H2057 0.950 . S
C2036 H2032 0.949 . S
C2036 C2044 1.556 1_554 S
C2036 C2052 1.368 . S
H2037 C2045 0.950 . S
H2038 C2043 0.950 . S
H2039 C2044 0.948 1_554 S
H2040 C2046 0.950 . S
H2041 C2047 0.950 . S
H2042 C2048 0.949 . S
C2043 H2038 0.950 . S
C2043 C2045 1.327 . S
C2043 C2049 1.429 . S
C2044 C2036 1.556 1_556 S
C2044 H2039 0.948 1_556 S
C2044 C2050 1.387 . S
C2045 C2029 1.349 . S
C2045 H2037 0.950 . S
C2045 C2043 1.327 . S
C2046 C2034 1.349 . S
C2046 H2040 0.950 . S
C2046 C2047 1.327 . S
C2047 H2041 0.950 . S
C2047 C2046 1.327 . S
C2047 C2051 1.429 . S
C2048 C2031 1.574 . S
C2048 H2042 0.949 . S
C2048 C2052 1.368 1_556 S
C2049 C2030 1.429 . S
C2049 C2043 1.429 . S
C2049 C2050 1.523 . S
C2050 C2031 1.368 . S
C2050 C2044 1.387 . S
C2050 C2049 1.523 . S
C2051 C2035 1.429 . S
C2051 C2047 1.429 . S
C2051 C2052 1.523 . S
C2052 C2036 1.368 . S
C2052 C2048 1.368 1_554 S
C2052 C2051 1.523 . S
H2053 C2028 0.950 . S
H2054 C2030 0.950 . S
H2055 C2031 0.949 . S
H2056 C2033 0.950 . S
H2057 C2035 0.950 . S
C2058 C2059 1.349 . S
C2058 C2060 1.327 . S
C2058 H2083 0.950 . S
C2059 C2058 1.349 . S
C2059 C2075 1.349 . S
C2060 C2058 1.327 . S
C2060 C2079 1.429 . S
C2060 H2084 0.950 . S
C2061 C2078 1.574 1_556 S
C2061 C2080 1.368 . S
C2061 H2085 0.949 . S
H2062 C2066 0.949 . S
C2063 C2064 1.349 . S
C2063 C2065 1.327 . S
C2063 H2086 0.950 . S
C2064 C2063 1.349 . S
C2064 C2076 1.349 . S
C2065 C2063 1.327 . S
C2065 C2081 1.429 . S
C2065 H2087 0.950 . S
C2066 H2062 0.949 . S
C2066 C2074 1.574 1_554 S
C2066 C2082 1.368 . S
H2067 C2075 0.950 . S
H2068 C2073 0.950 . S
H2069 C2074 0.949 . S
H2070 C2076 0.950 . S
H2071 C2077 0.950 . S
H2072 C2078 0.949 . S
C2073 H2068 0.950 . S
C2073 C2075 1.327 . S
C2073 C2079 1.429 . S
C2074 C2066 1.574 1_556 S
C2074 H2069 0.949 . S
C2074 C2080 1.368 . S
C2075 C2059 1.349 . S
C2075 H2067 0.950 . S
C2075 C2073 1.327 . S
C2076 C2064 1.349 . S
C2076 H2070 0.950 . S
C2076 C2077 1.327 . S
C2077 H2071 0.950 . S
C2077 C2076 1.327 . S
C2077 C2081 1.429 . S
C2078 C2061 1.574 1_554 S
C2078 H2072 0.949 . S
C2078 C2082 1.368 . S
C2079 C2060 1.429 . S
C2079 C2073 1.429 . S
C2079 C2080 1.523 . S
C2080 C2061 1.368 . S
C2080 C2074 1.368 . S
C2080 C2079 1.523 . S
C2081 C2065 1.429 . S
C2081 C2077 1.429 . S
C2081 C2082 1.523 . S
C2082 C2066 1.368 . S
C2082 C2078 1.368 . S
C2082 C2081 1.523 . S
H2083 C2058 0.950 . S
H2084 C2060 0.950 . S
H2085 C2061 0.949 . S
H2086 C2063 0.950 . S
H2087 C2065 0.950 . S
C2088 C2089 1.349 . S
C2088 C2090 1.327 . S
C2088 H2113 0.950 . S
C2089 C2088 1.349 . S
C2089 C2105 1.349 . S
C2090 C2088 1.327 . S
C2090 C2109 1.429 . S
C2090 H2114 0.950 . S
C2091 C2108 1.574 . S
C2091 C2110 1.368 . S
C2091 H2115 0.949 . S
H2092 C2096 0.949 . S
C2093 C2094 1.349 . S
C2093 C2095 1.327 1_554 S
C2093 H2116 0.950 . S
C2094 C2093 1.349 . S
C2094 C2106 1.349 1_554 S
C2095 C2093 1.327 1_556 S
C2095 C2111 1.429 . S
C2095 H2117 0.950 . S
C2096 H2092 0.949 . S
C2096 C2104 1.574 . S
C2096 C2112 1.368 . S
H2097 C2105 0.950 . S
H2098 C2103 0.950 . S
H2099 C2104 0.949 . S
H2100 C2106 0.950 . S
H2101 C2107 0.950 . S
H2102 C2108 0.949 . S
C2103 H2098 0.950 . S
C2103 C2105 1.327 . S
C2103 C2109 1.429 . S
C2104 C2096 1.574 . S
C2104 H2099 0.949 . S
C2104 C2110 1.368 . S
C2105 C2089 1.349 . S
C2105 H2097 0.950 . S
C2105 C2103 1.327 . S
C2106 C2094 1.349 1_556 S
C2106 H2100 0.950 . S
C2106 C2107 1.327 . S
C2107 H2101 0.950 . S
C2107 C2106 1.327 . S
C2107 C2111 1.429 . S
C2108 C2091 1.574 . S
C2108 H2102 0.949 . S
C2108 C2112 1.368 . S
C2109 C2090 1.429 . S
C2109 C2103 1.429 . S
C2109 C2110 1.523 . S
C2110 C2091 1.368 . S
C2110 C2104 1.368 . S
C2110 C2109 1.523 . S
C2111 C2095 1.429 . S
C2111 C2107 1.429 . S
C2111 C2112 1.523 . S
C2112 C2096 1.368 . S
C2112 C2108 1.368 . S
C2112 C2111 1.523 . S
H2113 C2088 0.950 . S
H2114 C2090 0.950 . S
H2115 C2091 0.949 . S
H2116 C2093 0.950 . S
H2117 C2095 0.950 . S
C2118 C2119 1.349 1_556 S
C2118 C2120 1.327 . S
C2118 H2143 0.950 . S
C2119 C2118 1.349 1_554 S
C2119 C2135 1.349 . S
C2120 C2118 1.327 . S
C2120 C2139 1.429 . S
C2120 H2144 0.950 . S
C2121 C2138 1.574 . S
C2121 C2140 1.368 . S
C2121 H2145 0.949 . S
H2122 C2126 0.949 . S
C2123 C2124 1.349 . S
C2123 C2125 1.327 . S
C2123 H2146 0.950 . S
C2124 C2123 1.349 . S
C2124 C2136 1.349 . S
C2125 C2123 1.327 . S
C2125 C2141 1.429 . S
C2125 H2147 0.950 . S
C2126 H2122 0.949 . S
C2126 C2134 1.574 . S
C2126 C2142 1.368 . S
H2127 C2135 0.950 . S
H2128 C2133 0.950 . S
H2129 C2134 0.949 . S
H2130 C2136 0.950 . S
H2131 C2137 0.950 . S
H2132 C2138 0.949 . S
C2133 H2128 0.950 . S
C2133 C2135 1.327 1_556 S
C2133 C2139 1.429 . S
C2134 C2126 1.574 . S
C2134 H2129 0.949 . S
C2134 C2140 1.368 . S
C2135 C2119 1.349 . S
C2135 H2127 0.950 . S
C2135 C2133 1.327 1_554 S
C2136 C2124 1.349 . S
C2136 H2130 0.950 . S
C2136 C2137 1.327 . S
C2137 H2131 0.950 . S
C2137 C2136 1.327 . S
C2137 C2141 1.429 . S
C2138 C2121 1.574 . S
C2138 H2132 0.949 . S
C2138 C2142 1.368 . S
C2139 C2120 1.429 . S
C2139 C2133 1.429 . S
C2139 C2140 1.523 . S
C2140 C2121 1.368 . S
C2140 C2134 1.368 . S
C2140 C2139 1.523 . S
C2141 C2125 1.429 . S
C2141 C2137 1.429 . S
C2141 C2142 1.523 . S
C2142 C2126 1.368 . S
C2142 C2138 1.368 . S
C2142 C2141 1.523 . S
H2143 C2118 0.950 . S
H2144 C2120 0.950 . S
H2145 C2121 0.949 . S
H2146 C2123 0.950 . S
H2147 C2125 0.950 . S
C2148 C2149 1.349 . S
C2148 C2150 1.327 . S
C2148 H2173 0.950 . S
C2149 C2148 1.349 . S
C2149 C2165 1.349 . S
C2150 C2148 1.327 . S
C2150 C2169 1.429 . S
C2150 H2174 0.950 . S
C2151 C2168 1.574 . S
C2151 C2170 1.368 . S
C2151 H2175 0.949 . S
H2152 C2156 0.949 . S
C2153 C2154 1.349 1_556 S
C2153 C2155 1.327 . S
C2153 H2176 0.950 . S
C2154 C2153 1.349 1_554 S
C2154 C2166 1.349 . S
C2155 C2153 1.327 . S
C2155 C2171 1.429 . S
C2155 H2177 0.950 . S
C2156 H2152 0.949 . S
C2156 C2164 1.574 . S
C2156 C2172 1.368 . S
H2157 C2165 0.950 . S
H2158 C2163 0.950 . S
H2159 C2164 0.949 . S
H2160 C2166 0.950 . S
H2161 C2167 0.950 . S
H2162 C2168 0.949 . S
C2163 H2158 0.950 . S
C2163 C2165 1.327 . S
C2163 C2169 1.429 . S
C2164 C2156 1.574 . S
C2164 H2159 0.949 . S
C2164 C2170 1.368 . S
C2165 C2149 1.349 . S
C2165 H2157 0.950 . S
C2165 C2163 1.327 . S
C2166 C2154 1.349 . S
C2166 H2160 0.950 . S
C2166 C2167 1.327 1_554 S
C2167 H2161 0.950 . S
C2167 C2166 1.327 1_556 S
C2167 C2171 1.429 . S
C2168 C2151 1.574 . S
C2168 H2162 0.949 . S
C2168 C2172 1.368 . S
C2169 C2150 1.429 . S
C2169 C2163 1.429 . S
C2169 C2170 1.523 . S
C2170 C2151 1.368 . S
C2170 C2164 1.368 . S
C2170 C2169 1.523 . S
C2171 C2155 1.429 . S
C2171 C2167 1.429 . S
C2171 C2172 1.523 . S
C2172 C2156 1.368 . S
C2172 C2168 1.368 . S
C2172 C2171 1.523 . S
H2173 C2148 0.950 . S
H2174 C2150 0.950 . S
H2175 C2151 0.949 . S
H2176 C2153 0.950 . S
H2177 C2155 0.950 . S
C2178 C2179 1.349 . S
C2178 C2180 1.327 . S
C2178 H2203 0.950 . S
C2179 C2178 1.349 . S
C2179 C2195 1.349 . S
C2180 C2178 1.327 . S
C2180 C2199 1.429 . S
C2180 H2204 0.950 . S
C2181 C2198 1.574 . S
C2181 C2200 1.368 . S
C2181 H2205 0.949 . S
H2182 C2186 0.949 . S
C2183 C2184 1.349 . S
C2183 C2185 1.327 . S
C2183 H2206 0.950 . S
C2184 C2183 1.349 . S
C2184 C2196 1.349 . S
C2185 C2183 1.327 . S
C2185 C2201 1.429 . S
C2185 H2207 0.950 . S
C2186 H2182 0.949 . S
C2186 C2194 1.574 . S
C2186 C2202 1.368 . S
H2187 C2195 0.950 . S
H2188 C2193 0.950 . S
H2189 C2194 0.949 . S
H2190 C2196 0.950 . S
H2191 C2197 0.950 . S
H2192 C2198 0.949 . S
C2193 H2188 0.950 . S
C2193 C2195 1.327 . S
C2193 C2199 1.429 . S
C2194 C2186 1.574 . S
C2194 H2189 0.949 . S
C2194 C2200 1.368 . S
C2195 C2179 1.349 . S
C2195 H2187 0.950 . S
C2195 C2193 1.327 . S
C2196 C2184 1.349 . S
C2196 H2190 0.950 . S
C2196 C2197 1.327 . S
C2197 H2191 0.950 . S
C2197 C2196 1.327 . S
C2197 C2201 1.429 . S
C2198 C2181 1.574 . S
C2198 H2192 0.949 . S
C2198 C2202 1.368 . S
C2199 C2180 1.429 . S
C2199 C2193 1.429 . S
C2199 C2200 1.523 . S
C2200 C2181 1.368 . S
C2200 C2194 1.368 . S
C2200 C2199 1.523 . S
C2201 C2185 1.429 . S
C2201 C2197 1.429 . S
C2201 C2202 1.523 . S
C2202 C2186 1.368 . S
C2202 C2198 1.368 . S
C2202 C2201 1.523 . S
H2203 C2178 0.950 . S
H2204 C2180 0.950 . S
H2205 C2181 0.949 . S
H2206 C2183 0.950 . S
H2207 C2185 0.950 . S
C2208 C2209 1.349 . S
C2208 C2210 1.327 . S
C2208 H2233 0.950 . S
C2209 C2208 1.349 . S
C2209 C2225 1.349 . S
C2210 C2208 1.327 . S
C2210 C2229 1.429 . S
C2210 H2234 0.950 . S
C2211 C2228 1.574 . S
C2211 C2230 1.368 . S
C2211 H2235 0.949 . S
H2212 C2216 0.949 . S
C2213 C2214 1.349 . S
C2213 C2215 1.327 . S
C2213 H2236 0.950 . S
C2214 C2213 1.349 . S
C2214 C2226 1.349 . S
C2215 C2213 1.327 . S
C2215 C2231 1.429 . S
C2215 H2237 0.950 . S
C2216 H2212 0.949 . S
C2216 C2224 1.574 . S
C2216 C2232 1.368 . S
H2217 C2225 0.950 . S
H2218 C2223 0.950 . S
H2219 C2224 0.949 . S
H2220 C2226 0.950 . S
H2221 C2227 0.950 . S
H2222 C2228 0.949 . S
C2223 H2218 0.950 . S
C2223 C2225 1.327 . S
C2223 C2229 1.429 . S
C2224 C2216 1.574 . S
C2224 H2219 0.949 . S
C2224 C2230 1.368 . S
C2225 C2209 1.349 . S
C2225 H2217 0.950 . S
C2225 C2223 1.327 . S
C2226 C2214 1.349 . S
C2226 H2220 0.950 . S
C2226 C2227 1.327 . S
C2227 H2221 0.950 . S
C2227 C2226 1.327 . S
C2227 C2231 1.429 . S
C2228 C2211 1.574 . S
C2228 H2222 0.949 . S
C2228 C2232 1.368 . S
C2229 C2210 1.429 . S
C2229 C2223 1.429 . S
C2229 C2230 1.523 . S
C2230 C2211 1.368 . S
C2230 C2224 1.368 . S
C2230 C2229 1.523 . S
C2231 C2215 1.429 . S
C2231 C2227 1.429 . S
C2231 C2232 1.523 . S
C2232 C2216 1.368 . S
C2232 C2228 1.368 . S
C2232 C2231 1.523 . S
H2233 C2208 0.950 . S
H2234 C2210 0.950 . S
H2235 C2211 0.949 . S
H2236 C2213 0.950 . S
H2237 C2215 0.950 . S
C2238 C2239 1.349 . S
C2238 C2240 1.327 . S
C2238 H2263 0.950 . S
C2239 C2238 1.349 . S
C2239 C2255 1.349 . S
C2240 C2238 1.327 . S
C2240 C2259 1.429 . S
C2240 H2264 0.950 . S
C2241 C2258 1.574 . S
C2241 C2260 1.368 . S
C2241 H2265 0.949 . S
H2242 C2246 0.949 . S
C2243 C2244 1.349 . S
C2243 C2245 1.327 . S
C2243 H2266 0.950 . S
C2244 C2243 1.349 . S
C2244 C2256 1.349 . S
C2245 C2243 1.327 . S
C2245 C2261 1.429 . S
C2245 H2267 0.950 . S
C2246 H2242 0.949 . S
C2246 C2254 1.574 . S
C2246 C2262 1.368 . S
H2247 C2255 0.950 . S
H2248 C2253 0.950 . S
H2249 C2254 0.949 . S
H2250 C2256 0.950 . S
H2251 C2257 0.950 . S
H2252 C2258 0.949 . S
C2253 H2248 0.950 . S
C2253 C2255 1.327 . S
C2253 C2259 1.429 . S
C2254 C2246 1.574 . S
C2254 H2249 0.949 . S
C2254 C2260 1.368 . S
C2255 C2239 1.349 . S
C2255 H2247 0.950 . S
C2255 C2253 1.327 . S
C2256 C2244 1.349 . S
C2256 H2250 0.950 . S
C2256 C2257 1.327 . S
C2257 H2251 0.950 . S
C2257 C2256 1.327 . S
C2257 C2261 1.429 . S
C2258 C2241 1.574 . S
C2258 H2252 0.949 . S
C2258 C2262 1.368 . S
C2259 C2240 1.429 . S
C2259 C2253 1.429 . S
C2259 C2260 1.523 . S
C2260 C2241 1.368 . S
C2260 C2254 1.368 . S
C2260 C2259 1.523 . S
C2261 C2245 1.429 . S
C2261 C2257 1.429 . S
C2261 C2262 1.523 . S
C2262 C2246 1.368 . S
C2262 C2258 1.368 . S
C2262 C2261 1.523 . S
H2263 C2238 0.950 . S
H2264 C2240 0.950 . S
H2265 C2241 0.949 . S
H2266 C2243 0.950 . S
H2267 C2245 0.950 . S
C2268 C2269 1.349 1_554 S
C2268 C2270 1.327 . S
C2268 H2293 0.950 1_554 S
C2269 C2268 1.349 1_556 S
C2269 C2285 1.349 . S
C2270 C2268 1.327 . S
C2270 C2289 1.429 . S
C2270 H2294 0.950 . S
C2271 C2288 1.574 . S
C2271 C2290 1.368 . S
C2271 H2295 0.949 . S
H2272 C2276 0.949 . S
C2273 C2274 1.349 . S
C2273 C2275 1.327 . S
C2273 H2296 0.950 . S
C2274 C2273 1.349 . S
C2274 C2286 1.349 . S
C2275 C2273 1.327 . S
C2275 C2291 1.429 . S
C2275 H2297 0.950 . S
C2276 H2272 0.949 . S
C2276 C2284 1.574 . S
C2276 C2292 1.368 . S
H2277 C2285 0.950 . S
H2278 C2283 0.950 . S
H2279 C2284 0.949 . S
H2280 C2286 0.950 . S
H2281 C2287 0.950 . S
H2282 C2288 0.949 . S
C2283 H2278 0.950 . S
C2283 C2285 1.327 1_554 S
C2283 C2289 1.429 . S
C2284 C2276 1.574 . S
C2284 H2279 0.949 . S
C2284 C2290 1.368 . S
C2285 C2269 1.349 . S
C2285 H2277 0.950 . S
C2285 C2283 1.327 1_556 S
C2286 C2274 1.349 . S
C2286 H2280 0.950 . S
C2286 C2287 1.327 . S
C2287 H2281 0.950 . S
C2287 C2286 1.327 . S
C2287 C2291 1.429 . S
C2288 C2271 1.574 . S
C2288 H2282 0.949 . S
C2288 C2292 1.368 . S
C2289 C2270 1.429 . S
C2289 C2283 1.429 . S
C2289 C2290 1.523 . S
C2290 C2271 1.368 . S
C2290 C2284 1.368 . S
C2290 C2289 1.523 . S
C2291 C2275 1.429 . S
C2291 C2287 1.429 . S
C2291 C2292 1.523 . S
C2292 C2276 1.368 . S
C2292 C2288 1.368 . S
C2292 C2291 1.523 . S
H2293 C2268 0.950 1_556 S
H2294 C2270 0.950 . S
H2295 C2271 0.949 . S
H2296 C2273 0.950 . S
H2297 C2275 0.950 . S
C2298 C2299 1.349 . S
C2298 C2300 1.327 . S
C2298 H2323 0.950 . S
C2299 C2298 1.349 . S
C2299 C2315 1.349 . S
C2300 C2298 1.327 . S
C2300 C2319 1.429 . S
C2300 H2324 0.950 . S
C2301 C2318 1.574 . S
C2301 C2320 1.368 . S
C2301 H2325 0.949 . S
H2302 C2306 0.949 . S
C2303 C2304 1.349 . S
C2303 C2305 1.327 1_556 S
C2303 H2326 0.950 . S
C2304 C2303 1.349 . S
C2304 C2316 1.349 1_556 S
C2305 C2303 1.327 1_554 S
C2305 C2321 1.429 . S
C2305 H2327 0.950 . S
C2306 H2302 0.949 . S
C2306 C2314 1.574 . S
C2306 C2322 1.368 . S
H2307 C2315 0.950 . S
H2308 C2313 0.950 . S
H2309 C2314 0.949 . S
H2310 C2316 0.950 1_556 S
H2311 C2317 0.950 . S
H2312 C2318 0.949 . S
C2313 H2308 0.950 . S
C2313 C2315 1.327 . S
C2313 C2319 1.429 . S
C2314 C2306 1.574 . S
C2314 H2309 0.949 . S
C2314 C2320 1.368 . S
C2315 C2299 1.349 . S
C2315 H2307 0.950 . S
C2315 C2313 1.327 . S
C2316 C2304 1.349 1_554 S
C2316 H2310 0.950 1_554 S
C2316 C2317 1.327 . S
C2317 H2311 0.950 . S
C2317 C2316 1.327 . S
C2317 C2321 1.429 . S
C2318 C2301 1.574 . S
C2318 H2312 0.949 . S
C2318 C2322 1.368 . S
C2319 C2300 1.429 . S
C2319 C2313 1.429 . S
C2319 C2320 1.523 . S
C2320 C2301 1.368 . S
C2320 C2314 1.368 . S
C2320 C2319 1.523 . S
C2321 C2305 1.429 . S
C2321 C2317 1.429 . S
C2321 C2322 1.523 . S
C2322 C2306 1.368 . S
C2322 C2318 1.368 . S
C2322 C2321 1.523 . S
H2323 C2298 0.950 . S
H2324 C2300 0.950 . S
H2325 C2301 0.949 . S
H2326 C2303 0.950 . S
H2327 C2305 0.950 . S
C2328 C2329 1.349 . S
C2328 C2330 1.327 . S
C2328 H2353 0.950 . S
C2329 C2328 1.349 . S
C2329 C2345 1.349 . S
C2330 C2328 1.327 . S
C2330 C2349 1.429 . S
C2330 H2354 0.950 . S
C2331 C2348 1.574 . S
C2331 C2350 1.368 . S
C2331 H2355 0.949 . S
H2332 C2336 0.949 . S
C2333 C2334 1.349 1_554 S
C2333 C2335 1.327 . S
C2333 H2356 0.950 . S
C2334 C2333 1.349 1_556 S
C2334 C2346 1.349 . S
C2335 C2333 1.327 . S
C2335 C2351 1.429 . S
C2335 H2357 0.950 . S
C2336 H2332 0.949 . S
C2336 C2344 1.574 . S
C2336 C2352 1.368 . S
H2337 C2345 0.950 . S
H2338 C2343 0.950 . S
H2339 C2344 0.949 . S
H2340 C2346 0.950 . S
H2341 C2347 0.950 . S
H2342 C2348 0.949 . S
C2343 H2338 0.950 . S
C2343 C2345 1.327 . S
C2343 C2349 1.429 . S
C2344 C2336 1.574 . S
C2344 H2339 0.949 . S
C2344 C2350 1.368 . S
C2345 C2329 1.349 . S
C2345 H2337 0.950 . S
C2345 C2343 1.327 . S
C2346 C2334 1.349 . S
C2346 H2340 0.950 . S
C2346 C2347 1.327 . S
C2347 H2341 0.950 . S
C2347 C2346 1.327 . S
C2347 C2351 1.429 1_556 S
C2348 C2331 1.574 . S
C2348 H2342 0.949 . S
C2348 C2352 1.368 . S
C2349 C2330 1.429 . S
C2349 C2343 1.429 . S
C2349 C2350 1.523 . S
C2350 C2331 1.368 . S
C2350 C2344 1.368 . S
C2350 C2349 1.523 . S
C2351 C2335 1.429 . S
C2351 C2347 1.429 1_554 S
C2351 C2352 1.523 . S
C2352 C2336 1.368 . S
C2352 C2348 1.368 . S
C2352 C2351 1.523 . S
H2353 C2328 0.950 . S
H2354 C2330 0.950 . S
H2355 C2331 0.949 . S
H2356 C2333 0.950 . S
H2357 C2335 0.950 . S
C2358 C2359 1.349 . S
C2358 C2360 1.327 . S
C2358 H2383 0.950 . S
C2359 C2358 1.349 . S
C2359 C2375 1.349 . S
C2360 C2358 1.327 . S
C2360 C2379 1.429 . S
C2360 H2384 0.950 . S
C2361 C2378 1.574 . S
C2361 C2380 1.368 . S
C2361 H2385 0.949 . S
H2362 C2366 0.949 . S
C2363 C2364 1.349 . S
C2363 C2365 1.327 . S
C2363 H2386 0.950 . S
C2364 C2363 1.349 . S
C2364 C2376 1.349 . S
C2365 C2363 1.327 . S
C2365 C2381 1.429 . S
C2365 H2387 0.950 . S
C2366 H2362 0.949 . S
C2366 C2374 1.574 . S
C2366 C2382 1.368 . S
H2367 C2375 0.950 . S
H2368 C2373 0.950 . S
H2369 C2374 0.949 . S
H2370 C2376 0.950 . S
H2371 C2377 0.950 . S
H2372 C2378 0.949 . S
C2373 H2368 0.950 . S
C2373 C2375 1.327 . S
C2373 C2379 1.429 . S
C2374 C2366 1.574 . S
C2374 H2369 0.949 . S
C2374 C2380 1.368 . S
C2375 C2359 1.349 . S
C2375 H2367 0.950 . S
C2375 C2373 1.327 . S
C2376 C2364 1.349 . S
C2376 H2370 0.950 . S
C2376 C2377 1.327 . S
C2377 H2371 0.950 . S
C2377 C2376 1.327 . S
C2377 C2381 1.429 . S
C2378 C2361 1.574 . S
C2378 H2372 0.949 . S
C2378 C2382 1.368 . S
C2379 C2360 1.429 . S
C2379 C2373 1.429 . S
C2379 C2380 1.523 . S
C2380 C2361 1.368 . S
C2380 C2374 1.368 . S
C2380 C2379 1.523 . S
C2381 C2365 1.429 . S
C2381 C2377 1.429 . S
C2381 C2382 1.523 . S
C2382 C2366 1.368 . S
C2382 C2378 1.368 . S
C2382 C2381 1.523 . S
H2383 C2358 0.950 . S
H2384 C2360 0.950 . S
H2385 C2361 0.949 . S
H2386 C2363 0.950 . S
H2387 C2365 0.950 . S
C2388 C2389 1.349 . S
C2388 C2390 1.327 . S
C2388 H2413 0.950 . S
C2389 C2388 1.349 . S
C2389 C2405 1.349 . S
C2390 C2388 1.327 . S
C2390 C2409 1.429 . S
C2390 H2414 0.950 . S
C2391 C2408 1.574 . S
C2391 C2410 1.368 . S
C2391 H2415 0.949 . S
H2392 C2396 0.949 . S
C2393 C2394 1.349 . S
C2393 C2395 1.327 . S
C2393 H2416 0.950 . S
C2394 C2393 1.349 . S
C2394 C2406 1.349 . S
C2395 C2393 1.327 . S
C2395 C2411 1.429 . S
C2395 H2417 0.950 . S
C2396 H2392 0.949 . S
C2396 C2404 1.574 . S
C2396 C2412 1.368 . S
H2397 C2405 0.950 . S
H2398 C2403 0.950 . S
H2399 C2404 0.949 . S
H2400 C2406 0.950 . S
H2401 C2407 0.950 . S
H2402 C2408 0.949 . S
C2403 H2398 0.950 . S
C2403 C2405 1.327 . S
C2403 C2409 1.429 . S
C2404 C2396 1.574 . S
C2404 H2399 0.949 . S
C2404 C2410 1.368 . S
C2405 C2389 1.349 . S
C2405 H2397 0.950 . S
C2405 C2403 1.327 . S
C2406 C2394 1.349 . S
C2406 H2400 0.950 . S
C2406 C2407 1.327 . S
C2407 H2401 0.950 . S
C2407 C2406 1.327 . S
C2407 C2411 1.429 . S
C2408 C2391 1.574 . S
C2408 H2402 0.949 . S
C2408 C2412 1.368 . S
C2409 C2390 1.429 . S
C2409 C2403 1.429 . S
C2409 C2410 1.523 . S
C2410 C2391 1.368 . S
C2410 C2404 1.368 . S
C2410 C2409 1.523 . S
C2411 C2395 1.429 . S
C2411 C2407 1.429 . S
C2411 C2412 1.523 . S
C2412 C2396 1.368 . S
C2412 C2408 1.368 . S
C2412 C2411 1.523 . S
H2413 C2388 0.950 . S
H2414 C2390 0.950 . S
H2415 C2391 0.949 . S
H2416 C2393 0.950 . S
H2417 C2395 0.950 . S
C2418 C2419 1.349 . S
C2418 C2420 1.327 . S
C2418 H2443 0.950 . S
C2419 C2418 1.349 . S
C2419 C2435 1.349 . S
C2420 C2418 1.327 . S
C2420 C2439 1.429 . S
C2420 H2444 0.950 . S
C2421 C2438 1.574 . S
C2421 C2440 1.368 . S
C2421 H2445 0.949 . S
H2422 C2426 0.949 . S
C2423 C2424 1.349 . S
C2423 C2425 1.327 . S
C2423 H2446 0.950 . S
C2424 C2423 1.349 . S
C2424 C2436 1.349 . S
C2425 C2423 1.327 . S
C2425 C2441 1.429 . S
C2425 H2447 0.950 . S
C2426 H2422 0.949 . S
C2426 C2434 1.574 . S
C2426 C2442 1.368 . S
H2427 C2435 0.950 . S
H2428 C2433 0.950 . S
H2429 C2434 0.949 . S
H2430 C2436 0.950 . S
H2431 C2437 0.950 . S
H2432 C2438 0.949 . S
C2433 H2428 0.950 . S
C2433 C2435 1.327 . S
C2433 C2439 1.429 . S
C2434 C2426 1.574 . S
C2434 H2429 0.949 . S
C2434 C2440 1.368 . S
C2435 C2419 1.349 . S
C2435 H2427 0.950 . S
C2435 C2433 1.327 . S
C2436 C2424 1.349 . S
C2436 H2430 0.950 . S
C2436 C2437 1.327 . S
C2437 H2431 0.950 . S
C2437 C2436 1.327 . S
C2437 C2441 1.429 . S
C2438 C2421 1.574 . S
C2438 H2432 0.949 . S
C2438 C2442 1.368 . S
C2439 C2420 1.429 . S
C2439 C2433 1.429 . S
C2439 C2440 1.523 . S
C2440 C2421 1.368 . S
C2440 C2434 1.368 . S
C2440 C2439 1.523 . S
C2441 C2425 1.429 . S
C2441 C2437 1.429 . S
C2441 C2442 1.523 . S
C2442 C2426 1.368 . S
C2442 C2438 1.368 . S
C2442 C2441 1.523 . S
H2443 C2418 0.950 . S
H2444 C2420 0.950 . S
H2445 C2421 0.949 . S
H2446 C2423 0.950 . S
H2447 C2425 0.950 . S
C2448 C2449 1.349 . S
C2448 C2450 1.327 . S
C2448 H2473 0.950 . S
C2449 C2448 1.349 . S
C2449 C2465 1.349 . S
C2450 C2448 1.327 . S
C2450 C2469 1.429 . S
C2450 H2474 0.950 . S
C2451 C2468 1.574 1_655 S
C2451 C2470 1.368 . S
C2451 H2475 0.949 . S
H2452 C2456 0.949 . S
C2453 C2454 1.349 . S
C2453 C2455 1.327 . S
C2453 H2476 0.950 . S
C2454 C2453 1.349 . S
C2454 C2466 1.349 . S
C2455 C2453 1.327 . S
C2455 C2471 1.429 . S
C2455 H2477 0.950 . S
C2456 H2452 0.949 . S
C2456 C2464 1.574 1_455 S
C2456 C2472 1.368 . S
H2457 C2465 0.950 . S
H2458 C2463 0.950 . S
H2459 C2464 0.949 . S
H2460 C2466 0.950 . S
H2461 C2467 0.950 . S
H2462 C2468 0.949 . S
C2463 H2458 0.950 . S
C2463 C2465 1.327 . S
C2463 C2469 1.429 . S
C2464 C2456 1.574 1_655 S
C2464 H2459 0.949 . S
C2464 C2470 1.368 . S
C2465 C2449 1.349 . S
C2465 H2457 0.950 . S
C2465 C2463 1.327 . S
C2466 C2454 1.349 . S
C2466 H2460 0.950 . S
C2466 C2467 1.327 . S
C2467 H2461 0.950 . S
C2467 C2466 1.327 . S
C2467 C2471 1.429 . S
C2468 C2451 1.574 1_455 S
C2468 H2462 0.949 . S
C2468 C2472 1.368 . S
C2469 C2450 1.429 . S
C2469 C2463 1.429 . S
C2469 C2470 1.523 . S
C2470 C2451 1.368 . S
C2470 C2464 1.368 . S
C2470 C2469 1.523 . S
C2471 C2455 1.429 . S
C2471 C2467 1.429 . S
C2471 C2472 1.523 . S
C2472 C2456 1.368 . S
C2472 C2468 1.368 . S
C2472 C2471 1.523 . S
H2473 C2448 0.950 . S
H2474 C2450 0.950 . S
H2475 C2451 0.949 . S
H2476 C2453 0.950 . S
H2477 C2455 0.950 . S
C2478 C2479 1.349 . S
C2478 C2480 1.327 . S
C2478 H2503 0.950 . S
C2479 C2478 1.349 . S
C2479 C2495 1.349 . S
C2480 C2478 1.327 . S
C2480 C2499 1.429 . S
C2480 H2504 0.950 . S
C2481 C2498 1.574 . S
C2481 C2500 1.368 . S
C2481 H2505 0.949 . S
H2482 C2486 0.949 . S
C2483 C2484 1.349 . S
C2483 C2485 1.327 . S
C2483 H2506 0.950 . S
C2484 C2483 1.349 . S
C2484 C2496 1.349 . S
C2485 C2483 1.327 . S
C2485 C2501 1.429 . S
C2485 H2507 0.950 . S
C2486 H2482 0.949 . S
C2486 C2494 1.574 . S
C2486 C2502 1.368 . S
H2487 C2495 0.950 . S
H2488 C2493 0.950 . S
H2489 C2494 0.949 . S
H2490 C2496 0.950 . S
H2491 C2497 0.950 . S
H2492 C2498 0.949 . S
C2493 H2488 0.950 . S
C2493 C2495 1.327 . S
C2493 C2499 1.429 . S
C2494 C2486 1.574 . S
C2494 H2489 0.949 . S
C2494 C2500 1.368 . S
C2495 C2479 1.349 . S
C2495 H2487 0.950 . S
C2495 C2493 1.327 . S
C2496 C2484 1.349 . S
C2496 H2490 0.950 . S
C2496 C2497 1.327 . S
C2497 H2491 0.950 . S
C2497 C2496 1.327 . S
C2497 C2501 1.429 . S
C2498 C2481 1.574 . S
C2498 H2492 0.949 . S
C2498 C2502 1.368 . S
C2499 C2480 1.429 . S
C2499 C2493 1.429 . S
C2499 C2500 1.523 . S
C2500 C2481 1.368 . S
C2500 C2494 1.368 . S
C2500 C2499 1.523 . S
C2501 C2485 1.429 . S
C2501 C2497 1.429 . S
C2501 C2502 1.523 . S
C2502 C2486 1.368 . S
C2502 C2498 1.368 . S
C2502 C2501 1.523 . S
H2503 C2478 0.950 . S
H2504 C2480 0.950 . S
H2505 C2481 0.949 . S
H2506 C2483 0.950 . S
H2507 C2485 0.950 . S
C2508 C2509 1.349 . S
C2508 C2510 1.327 . S
C2508 H2533 0.950 . S
C2509 C2508 1.349 . S
C2509 C2525 1.349 . S
C2510 C2508 1.327 . S
C2510 C2529 1.429 . S
C2510 H2534 0.950 . S
C2511 C2528 1.574 1_565 S
C2511 C2530 1.368 . S
C2511 H2535 0.949 . S
H2512 C2516 0.949 . S
C2513 C2514 1.349 . S
C2513 C2515 1.327 . S
C2513 H2536 0.950 . S
C2514 C2513 1.349 . S
C2514 C2526 1.349 . S
C2515 C2513 1.327 . S
C2515 C2531 1.429 . S
C2515 H2537 0.950 . S
C2516 H2512 0.949 . S
C2516 C2524 1.574 1_545 S
C2516 C2532 1.368 . S
H2517 C2525 0.950 . S
H2518 C2523 0.950 . S
H2519 C2524 0.949 . S
H2520 C2526 0.950 . S
H2521 C2527 0.950 . S
H2522 C2528 0.949 . S
C2523 H2518 0.950 . S
C2523 C2525 1.327 . S
C2523 C2529 1.429 . S
C2524 C2516 1.574 1_565 S
C2524 H2519 0.949 . S
C2524 C2530 1.368 . S
C2525 C2509 1.349 . S
C2525 H2517 0.950 . S
C2525 C2523 1.327 . S
C2526 C2514 1.349 . S
C2526 H2520 0.950 . S
C2526 C2527 1.327 . S
C2527 H2521 0.950 . S
C2527 C2526 1.327 . S
C2527 C2531 1.429 . S
C2528 C2511 1.574 1_545 S
C2528 H2522 0.949 . S
C2528 C2532 1.368 . S
C2529 C2510 1.429 . S
C2529 C2523 1.429 . S
C2529 C2530 1.523 . S
C2530 C2511 1.368 . S
C2530 C2524 1.368 . S
C2530 C2529 1.523 . S
C2531 C2515 1.429 . S
C2531 C2527 1.429 . S
C2531 C2532 1.523 . S
C2532 C2516 1.368 . S
C2532 C2528 1.368 . S
C2532 C2531 1.523 . S
H2533 C2508 0.950 . S
H2534 C2510 0.950 . S
H2535 C2511 0.949 . S
H2536 C2513 0.950 . S
H2537 C2515 0.950 . S
C2538 C2539 1.349 . S
C2538 C2540 1.327 . S
C2538 H2563 0.950 . S
C2539 C2538 1.349 . S
C2539 C2555 1.349 . S
C2540 C2538 1.327 . S
C2540 C2559 1.429 . S
C2540 H2564 0.950 . S
C2541 C2558 1.574 1_545 S
C2541 C2560 1.368 . S
C2541 H2565 0.949 . S
H2542 C2546 0.949 . S
C2543 C2544 1.349 . S
C2543 C2545 1.327 . S
C2543 H2566 0.950 . S
C2544 C2543 1.349 . S
C2544 C2556 1.349 . S
C2545 C2543 1.327 . S
C2545 C2561 1.429 . S
C2545 H2567 0.950 . S
C2546 H2542 0.949 . S
C2546 C2554 1.574 1_565 S
C2546 C2562 1.368 . S
H2547 C2555 0.950 . S
H2548 C2553 0.950 . S
H2549 C2554 0.949 . S
H2550 C2556 0.950 . S
H2551 C2557 0.950 . S
H2552 C2558 0.949 . S
C2553 H2548 0.950 . S
C2553 C2555 1.327 . S
C2553 C2559 1.429 . S
C2554 C2546 1.574 1_545 S
C2554 H2549 0.949 . S
C2554 C2560 1.368 . S
C2555 C2539 1.349 . S
C2555 H2547 0.950 . S
C2555 C2553 1.327 . S
C2556 C2544 1.349 . S
C2556 H2550 0.950 . S
C2556 C2557 1.327 . S
C2557 H2551 0.950 . S
C2557 C2556 1.327 . S
C2557 C2561 1.429 . S
C2558 C2541 1.574 1_565 S
C2558 H2552 0.949 . S
C2558 C2562 1.368 . S
C2559 C2540 1.429 . S
C2559 C2553 1.429 . S
C2559 C2560 1.523 . S
C2560 C2541 1.368 . S
C2560 C2554 1.368 . S
C2560 C2559 1.523 . S
C2561 C2545 1.429 . S
C2561 C2557 1.429 . S
C2561 C2562 1.523 . S
C2562 C2546 1.368 . S
C2562 C2558 1.368 . S
C2562 C2561 1.523 . S
H2563 C2538 0.950 . S
H2564 C2540 0.950 . S
H2565 C2541 0.949 . S
H2566 C2543 0.950 . S
H2567 C2545 0.950 . S
C2568 C2569 1.349 . S
C2568 C2570 1.327 . S
C2568 H2593 0.950 . S
C2569 C2568 1.349 . S
C2569 C2585 1.349 . S
C2570 C2568 1.327 . S
C2570 C2589 1.429 . S
C2570 H2594 0.950 . S
C2571 C2588 1.574 1_455 S
C2571 C2590 1.368 . S
C2571 H2595 0.949 . S
H2572 C2576 0.949 . S
C2573 C2574 1.349 . S
C2573 C2575 1.327 . S
C2573 H2596 0.950 . S
C2574 C2573 1.349 . S
C2574 C2586 1.349 . S
C2575 C2573 1.327 . S
C2575 C2591 1.429 . S
C2575 H2597 0.950 . S
C2576 H2572 0.949 . S
C2576 C2584 1.574 1_655 S
C2576 C2592 1.368 . S
H2577 C2585 0.950 . S
H2578 C2583 0.950 . S
H2579 C2584 0.949 . S
H2580 C2586 0.950 . S
H2581 C2587 0.950 . S
H2582 C2588 0.949 . S
C2583 H2578 0.950 . S
C2583 C2585 1.327 . S
C2583 C2589 1.429 . S
C2584 C2576 1.574 1_455 S
C2584 H2579 0.949 . S
C2584 C2590 1.368 . S
C2585 C2569 1.349 . S
C2585 H2577 0.950 . S
C2585 C2583 1.327 . S
C2586 C2574 1.349 . S
C2586 H2580 0.950 . S
C2586 C2587 1.327 . S
C2587 H2581 0.950 . S
C2587 C2586 1.327 . S
C2587 C2591 1.429 . S
C2588 C2571 1.574 1_655 S
C2588 H2582 0.949 . S
C2588 C2592 1.368 . S
C2589 C2570 1.429 . S
C2589 C2583 1.429 . S
C2589 C2590 1.523 . S
C2590 C2571 1.368 . S
C2590 C2584 1.368 . S
C2590 C2589 1.523 . S
C2591 C2575 1.429 . S
C2591 C2587 1.429 . S
C2591 C2592 1.523 . S
C2592 C2576 1.368 . S
C2592 C2588 1.368 . S
C2592 C2591 1.523 . S
H2593 C2568 0.950 . S
H2594 C2570 0.950 . S
H2595 C2571 0.949 . S
H2596 C2573 0.950 . S
H2597 C2575 0.950 . S
C2598 C2599 1.349 . S
C2598 C2600 1.327 . S
C2598 H2623 0.950 . S
C2599 C2598 1.349 . S
C2599 C2615 1.349 . S
C2600 C2598 1.327 . S
C2600 C2619 1.429 . S
C2600 H2624 0.950 . S
C2601 C2618 1.574 . S
C2601 C2620 1.368 . S
C2601 H2625 0.949 . S
H2602 C2606 0.949 . S
C2603 C2604 1.349 . S
C2603 C2605 1.327 . S
C2603 H2626 0.950 . S
C2604 C2603 1.349 . S
C2604 C2616 1.349 . S
C2605 C2603 1.327 . S
C2605 C2621 1.429 . S
C2605 H2627 0.950 . S
C2606 H2602 0.949 . S
C2606 C2614 1.574 . S
C2606 C2622 1.368 . S
H2607 C2615 0.950 . S
H2608 C2613 0.950 . S
H2609 C2614 0.949 . S
H2610 C2616 0.950 . S
H2611 C2617 0.950 . S
H2612 C2618 0.949 . S
C2613 H2608 0.950 . S
C2613 C2615 1.327 . S
C2613 C2619 1.429 . S
C2614 C2606 1.574 . S
C2614 H2609 0.949 . S
C2614 C2620 1.368 . S
C2615 C2599 1.349 . S
C2615 H2607 0.950 . S
C2615 C2613 1.327 . S
C2616 C2604 1.349 . S
C2616 H2610 0.950 . S
C2616 C2617 1.327 . S
C2617 H2611 0.950 . S
C2617 C2616 1.327 . S
C2617 C2621 1.429 . S
C2618 C2601 1.574 . S
C2618 H2612 0.949 . S
C2618 C2622 1.368 . S
C2619 C2600 1.429 . S
C2619 C2613 1.429 . S
C2619 C2620 1.523 . S
C2620 C2601 1.368 . S
C2620 C2614 1.368 . S
C2620 C2619 1.523 . S
C2621 C2605 1.429 . S
C2621 C2617 1.429 . S
C2621 C2622 1.523 . S
C2622 C2606 1.368 . S
C2622 C2618 1.368 . S
C2622 C2621 1.523 . S
H2623 C2598 0.950 . S
H2624 C2600 0.950 . S
H2625 C2601 0.949 . S
H2626 C2603 0.950 . S
H2627 C2605 0.950 . S
C469 C75 1.023 . S
C474 C4 1.023 . S
C499 C17 1.023 . S
C504 C49 1.023 . S
C529 C62 1.023 . S
C534 C36 1.023 . S
C559 C82 1.023 . S
C564 C147 1.023 . S
C589 C95 1.023 . S
C594 C121 1.023 . S
C619 C134 1.023 . S
C624 C114 1.023 . S
C649 C225 1.023 . S
C654 C160 1.023 . S
C679 C179 1.023 . S
C684 C205 1.023 . S
C709 C218 1.023 . S
C714 C192 1.023 . S
C739 C238 1.023 . S
C744 C309 1.023 . S
C769 C257 1.023 . S
C774 C277 1.023 . S
C799 C264 1.023 . S
C804 C290 1.023 . S
C829 C316 1.023 . S
C834 C387 1.023 . S
C859 C361 1.023 . S
C864 C329 1.023 . S
C889 C342 1.023 . S
C894 C374 1.023 . S
C919 C400 1.023 . S
C924 C465 1.023 . S
C949 C407 1.023 . S
C954 C439 1.023 . S
C979 C420 1.023 . S
C984 C452 1.023 . S
C1009 C140 1.343 . S
C1014 C5 1.333 1_556 S
C1039 C153 1.343 . S
C1044 C18 1.333 1_556 S
C1069 C127 1.343 . S
C1074 C29 1.333 1_556 S
C1099 C108 1.343 . S
C1104 C42 1.333 . S
C1129 C55 1.333 . S
C1134 C88 1.343 . S
C1159 C68 1.333 . S
C1164 C101 1.343 . S
C1189 C83 1.333 1_554 S
C1194 C56 1.343 . S
C1219 C96 1.333 1_554 S
C1224 C69 1.343 . S
C1249 C107 1.333 1_554 S
C1254 C43 1.343 . S
C1279 C30 1.343 . S
C1284 C122 1.333 . S
C1309 C10 1.343 . S
C1314 C135 1.333 . S
C1339 C148 1.333 . S
C1344 C23 1.343 . S
C1369 C161 1.333 . S
C1374 C296 1.343 1_554 S
C1399 C172 1.333 . S
C1404 C303 1.343 1_554 S
C1429 C283 1.343 1_554 S
C1434 C185 1.333 . S
C1459 C198 1.333 . S
C1464 C270 1.343 . S
C1489 C211 1.333 . S
C1494 C244 1.343 . S
C1519 C226 1.333 . S
C1524 C251 1.343 . S
C1549 C239 1.333 . S
C1554 C212 1.343 . S
C1579 C231 1.343 . S
C1584 C250 1.333 . S
C1609 C199 1.343 . S
C1614 C265 1.333 . S
C1639 C278 1.333 . S
C1644 C186 1.343 . S
C1669 C166 1.343 . S
C1674 C291 1.333 . S
C1699 C173 1.343 . S
C1704 C302 1.333 . S
C1729 C446 1.343 . S
C1734 C317 1.333 . S
C1759 C330 1.333 . S
C1764 C459 1.343 . S
C1789 C343 1.333 . S
C1794 C433 1.343 . S
C1819 C426 1.343 . S
C1824 C354 1.333 . S
C1849 C394 1.343 . S
C1854 C367 1.333 . S
C1879 C413 1.343 . S
C1884 C380 1.333 . S
C1909 C393 1.333 . S
C1914 C368 1.343 1_556 S
C1939 C381 1.343 1_556 S
C1944 C408 1.333 . S
C1969 C421 1.333 . S
C1974 C355 1.343 1_556 S
C1999 C348 1.343 . S
C2004 C432 1.333 . S
C2029 C322 1.343 . S
C2034 C445 1.333 . S
C2059 C335 1.343 . S
C2064 C458 1.333 . S
C2089 C213 1.323 . S
C2094 C3 1.323 . S
C2119 C16 1.323 . S
C2124 C224 1.323 . S
C2149 C200 1.323 . S
C2154 C31 1.323 . S
C2179 C341 1.323 . S
C2184 C44 1.323 . S
C2209 C57 1.323 . S
C2214 C315 1.323 . S
C2239 C70 1.323 . S
C2244 C328 1.323 . S
C2269 C81 1.323 . S
C2274 C447 1.323 . S
C2299 C460 1.323 . S
C2304 C94 1.323 . S
C2329 C434 1.323 . S
C2334 C109 1.323 . S
C2359 C263 1.323 . S
C2364 C120 1.323 . S
C2389 C133 1.323 . S
C2394 C237 1.323 . S
C2419 C146 1.323 . S
C2424 C252 1.323 . S
C2449 C159 1.323 . S
C2454 C369 1.323 . S
C2479 C382 1.323 . S
C2484 C174 1.323 . S
C2509 C356 1.323 . S
C2514 C187 1.323 . S
C2539 C276 1.323 . S
C2544 C419 1.323 . S
C2569 C395 1.323 . S
C2574 C289 1.323 . S
C2599 C406 1.323 . S
C2604 C304 1.323 . S
