# Generated by pormake.
# Topology wir, (6)-cn, num edge types: 1
# Building blocks:
#     Node 0, Type 0, BuildingBlock: BETDIP_clean_sbu_0, # of connection points: 6
#     Node 1, Type 0, BuildingBlock: BETDIP_clean_sbu_0, # of connection points: 6
#     Node 2, Type 0, BuildingBlock: BETDIP_clean_sbu_0, # of connection points: 6
#     Node 3, Type 0, BuildingBlock: BETDIP_clean_sbu_0, # of connection points: 6
#     Node 4, Type 0, BuildingBlock: BETDIP_clean_sbu_0, # of connection points: 6
#     Node 5, Type 0, BuildingBlock: BETDIP_clean_sbu_0, # of connection points: 6
#     Node 6, Type 0, BuildingBlock: BETDIP_clean_sbu_0, # of connection points: 6
#     Node 7, Type 0, BuildingBlock: BETDIP_clean_sbu_0, # of connection points: 6
#     Node 8, Type 0, BuildingBlock: BETDIP_clean_sbu_0, # of connection points: 6
#     Node 9, Type 0, BuildingBlock: BETDIP_clean_sbu_0, # of connection points: 6
#     Node 10, Type 0, BuildingBlock: BETDIP_clean_sbu_0, # of connection points: 6
#     Node 11, Type 0, BuildingBlock: BETDIP_clean_sbu_0, # of connection points: 6
#     Node 12, Type 0, BuildingBlock: BETDIP_clean_sbu_0, # of connection points: 6
#     Node 13, Type 0, BuildingBlock: BETDIP_clean_sbu_0, # of connection points: 6
#     Node 14, Type 0, BuildingBlock: BETDIP_clean_sbu_0, # of connection points: 6
#     Node 15, Type 0, BuildingBlock: BETDIP_clean_sbu_0, # of connection points: 6
#     Node 16, Type 0, BuildingBlock: BETDIP_clean_sbu_0, # of connection points: 6
#     Node 17, Type 0, BuildingBlock: BETDIP_clean_sbu_0, # of connection points: 6
#     Node 18, Type 0, BuildingBlock: BETDIP_clean_sbu_0, # of connection points: 6
#     Node 19, Type 0, BuildingBlock: BETDIP_clean_sbu_0, # of connection points: 6
#     Node 20, Type 0, BuildingBlock: BETDIP_clean_sbu_0, # of connection points: 6
#     Node 21, Type 0, BuildingBlock: BETDIP_clean_sbu_0, # of connection points: 6
#     Node 22, Type 0, BuildingBlock: BETDIP_clean_sbu_0, # of connection points: 6
#     Node 23, Type 0, BuildingBlock: BETDIP_clean_sbu_0, # of connection points: 6
#     Node 24, Type 0, BuildingBlock: BETDIP_clean_sbu_0, # of connection points: 6
#     Node 25, Type 0, BuildingBlock: BETDIP_clean_sbu_0, # of connection points: 6
#     Node 26, Type 0, BuildingBlock: BETDIP_clean_sbu_0, # of connection points: 6
#     Node 27, Type 0, BuildingBlock: BETDIP_clean_sbu_0, # of connection points: 6
#     Node 28, Type 0, BuildingBlock: BETDIP_clean_sbu_0, # of connection points: 6
#     Node 29, Type 0, BuildingBlock: BETDIP_clean_sbu_0, # of connection points: 6
#     Node 30, Type 0, BuildingBlock: BETDIP_clean_sbu_0, # of connection points: 6
#     Node 31, Type 0, BuildingBlock: BETDIP_clean_sbu_0, # of connection points: 6
#     Edge 32, Type (0, 0), BuildingBlock: OJICUG_clean_linker_0, # of connection points: 2
#     Edge 33, Type (0, 0), BuildingBlock: OJICUG_clean_linker_0, # of connection points: 2
#     Edge 34, Type (0, 0), BuildingBlock: OJICUG_clean_linker_0, # of connection points: 2
#     Edge 35, Type (0, 0), BuildingBlock: OJICUG_clean_linker_0, # of connection points: 2
#     Edge 36, Type (0, 0), BuildingBlock: OJICUG_clean_linker_0, # of connection points: 2
#     Edge 37, Type (0, 0), BuildingBlock: OJICUG_clean_linker_0, # of connection points: 2
#     Edge 38, Type (0, 0), BuildingBlock: OJICUG_clean_linker_0, # of connection points: 2
#     Edge 39, Type (0, 0), BuildingBlock: OJICUG_clean_linker_0, # of connection points: 2
#     Edge 40, Type (0, 0), BuildingBlock: OJICUG_clean_linker_0, # of connection points: 2
#     Edge 41, Type (0, 0), BuildingBlock: OJICUG_clean_linker_0, # of connection points: 2
#     Edge 42, Type (0, 0), BuildingBlock: OJICUG_clean_linker_0, # of connection points: 2
#     Edge 43, Type (0, 0), BuildingBlock: OJICUG_clean_linker_0, # of connection points: 2
#     Edge 44, Type (0, 0), BuildingBlock: OJICUG_clean_linker_0, # of connection points: 2
#     Edge 45, Type (0, 0), BuildingBlock: OJICUG_clean_linker_0, # of connection points: 2
#     Edge 46, Type (0, 0), BuildingBlock: OJICUG_clean_linker_0, # of connection points: 2
#     Edge 47, Type (0, 0), BuildingBlock: OJICUG_clean_linker_0, # of connection points: 2
#     Edge 48, Type (0, 0), BuildingBlock: OJICUG_clean_linker_0, # of connection points: 2
#     Edge 49, Type (0, 0), BuildingBlock: OJICUG_clean_linker_0, # of connection points: 2
#     Edge 50, Type (0, 0), BuildingBlock: OJICUG_clean_linker_0, # of connection points: 2
#     Edge 51, Type (0, 0), BuildingBlock: OJICUG_clean_linker_0, # of connection points: 2
#     Edge 52, Type (0, 0), BuildingBlock: OJICUG_clean_linker_0, # of connection points: 2
#     Edge 53, Type (0, 0), BuildingBlock: OJICUG_clean_linker_0, # of connection points: 2
#     Edge 54, Type (0, 0), BuildingBlock: OJICUG_clean_linker_0, # of connection points: 2
#     Edge 55, Type (0, 0), BuildingBlock: OJICUG_clean_linker_0, # of connection points: 2
#     Edge 56, Type (0, 0), BuildingBlock: OJICUG_clean_linker_0, # of connection points: 2
#     Edge 57, Type (0, 0), BuildingBlock: OJICUG_clean_linker_0, # of connection points: 2
#     Edge 58, Type (0, 0), BuildingBlock: OJICUG_clean_linker_0, # of connection points: 2
#     Edge 59, Type (0, 0), BuildingBlock: OJICUG_clean_linker_0, # of connection points: 2
#     Edge 60, Type (0, 0), BuildingBlock: OJICUG_clean_linker_0, # of connection points: 2
#     Edge 61, Type (0, 0), BuildingBlock: OJICUG_clean_linker_0, # of connection points: 2
#     Edge 62, Type (0, 0), BuildingBlock: OJICUG_clean_linker_0, # of connection points: 2
#     Edge 63, Type (0, 0), BuildingBlock: OJICUG_clean_linker_0, # of connection points: 2
#     Edge 64, Type (0, 0), BuildingBlock: OJICUG_clean_linker_0, # of connection points: 2
#     Edge 65, Type (0, 0), BuildingBlock: OJICUG_clean_linker_0, # of connection points: 2
#     Edge 66, Type (0, 0), BuildingBlock: OJICUG_clean_linker_0, # of connection points: 2
#     Edge 67, Type (0, 0), BuildingBlock: OJICUG_clean_linker_0, # of connection points: 2
#     Edge 68, Type (0, 0), BuildingBlock: OJICUG_clean_linker_0, # of connection points: 2
#     Edge 69, Type (0, 0), BuildingBlock: OJICUG_clean_linker_0, # of connection points: 2
#     Edge 70, Type (0, 0), BuildingBlock: OJICUG_clean_linker_0, # of connection points: 2
#     Edge 71, Type (0, 0), BuildingBlock: OJICUG_clean_linker_0, # of connection points: 2
#     Edge 72, Type (0, 0), BuildingBlock: OJICUG_clean_linker_0, # of connection points: 2
#     Edge 73, Type (0, 0), BuildingBlock: OJICUG_clean_linker_0, # of connection points: 2
#     Edge 74, Type (0, 0), BuildingBlock: OJICUG_clean_linker_0, # of connection points: 2
#     Edge 75, Type (0, 0), BuildingBlock: OJICUG_clean_linker_0, # of connection points: 2
#     Edge 76, Type (0, 0), BuildingBlock: OJICUG_clean_linker_0, # of connection points: 2
#     Edge 77, Type (0, 0), BuildingBlock: OJICUG_clean_linker_0, # of connection points: 2
#     Edge 78, Type (0, 0), BuildingBlock: OJICUG_clean_linker_0, # of connection points: 2
#     Edge 79, Type (0, 0), BuildingBlock: OJICUG_clean_linker_0, # of connection points: 2
#     Edge 80, Type (0, 0), BuildingBlock: OJICUG_clean_linker_0, # of connection points: 2
#     Edge 81, Type (0, 0), BuildingBlock: OJICUG_clean_linker_0, # of connection points: 2
#     Edge 82, Type (0, 0), BuildingBlock: OJICUG_clean_linker_0, # of connection points: 2
#     Edge 83, Type (0, 0), BuildingBlock: OJICUG_clean_linker_0, # of connection points: 2
#     Edge 84, Type (0, 0), BuildingBlock: OJICUG_clean_linker_0, # of connection points: 2
#     Edge 85, Type (0, 0), BuildingBlock: OJICUG_clean_linker_0, # of connection points: 2
#     Edge 86, Type (0, 0), BuildingBlock: OJICUG_clean_linker_0, # of connection points: 2
#     Edge 87, Type (0, 0), BuildingBlock: OJICUG_clean_linker_0, # of connection points: 2
#     Edge 88, Type (0, 0), BuildingBlock: OJICUG_clean_linker_0, # of connection points: 2
#     Edge 89, Type (0, 0), BuildingBlock: OJICUG_clean_linker_0, # of connection points: 2
#     Edge 90, Type (0, 0), BuildingBlock: OJICUG_clean_linker_0, # of connection points: 2
#     Edge 91, Type (0, 0), BuildingBlock: OJICUG_clean_linker_0, # of connection points: 2
#     Edge 92, Type (0, 0), BuildingBlock: OJICUG_clean_linker_0, # of connection points: 2
#     Edge 93, Type (0, 0), BuildingBlock: OJICUG_clean_linker_0, # of connection points: 2
#     Edge 94, Type (0, 0), BuildingBlock: OJICUG_clean_linker_0, # of connection points: 2
#     Edge 95, Type (0, 0), BuildingBlock: OJICUG_clean_linker_0, # of connection points: 2
#     Edge 96, Type (0, 0), BuildingBlock: OJICUG_clean_linker_0, # of connection points: 2
#     Edge 97, Type (0, 0), BuildingBlock: OJICUG_clean_linker_0, # of connection points: 2
#     Edge 98, Type (0, 0), BuildingBlock: OJICUG_clean_linker_0, # of connection points: 2
#     Edge 99, Type (0, 0), BuildingBlock: OJICUG_clean_linker_0, # of connection points: 2
#     Edge 100, Type (0, 0), BuildingBlock: OJICUG_clean_linker_0, # of connection points: 2
#     Edge 101, Type (0, 0), BuildingBlock: OJICUG_clean_linker_0, # of connection points: 2
#     Edge 102, Type (0, 0), BuildingBlock: OJICUG_clean_linker_0, # of connection points: 2
#     Edge 103, Type (0, 0), BuildingBlock: OJICUG_clean_linker_0, # of connection points: 2
#     Edge 104, Type (0, 0), BuildingBlock: OJICUG_clean_linker_0, # of connection points: 2
#     Edge 105, Type (0, 0), BuildingBlock: OJICUG_clean_linker_0, # of connection points: 2
#     Edge 106, Type (0, 0), BuildingBlock: OJICUG_clean_linker_0, # of connection points: 2
#     Edge 107, Type (0, 0), BuildingBlock: OJICUG_clean_linker_0, # of connection points: 2
#     Edge 108, Type (0, 0), BuildingBlock: OJICUG_clean_linker_0, # of connection points: 2
#     Edge 109, Type (0, 0), BuildingBlock: OJICUG_clean_linker_0, # of connection points: 2
#     Edge 110, Type (0, 0), BuildingBlock: OJICUG_clean_linker_0, # of connection points: 2
#     Edge 111, Type (0, 0), BuildingBlock: OJICUG_clean_linker_0, # of connection points: 2
#     Edge 112, Type (0, 0), BuildingBlock: OJICUG_clean_linker_0, # of connection points: 2
#     Edge 113, Type (0, 0), BuildingBlock: OJICUG_clean_linker_0, # of connection points: 2
#     Edge 114, Type (0, 0), BuildingBlock: OJICUG_clean_linker_0, # of connection points: 2
#     Edge 115, Type (0, 0), BuildingBlock: OJICUG_clean_linker_0, # of connection points: 2
#     Edge 116, Type (0, 0), BuildingBlock: OJICUG_clean_linker_0, # of connection points: 2
#     Edge 117, Type (0, 0), BuildingBlock: OJICUG_clean_linker_0, # of connection points: 2
#     Edge 118, Type (0, 0), BuildingBlock: OJICUG_clean_linker_0, # of connection points: 2
#     Edge 119, Type (0, 0), BuildingBlock: OJICUG_clean_linker_0, # of connection points: 2
#     Edge 120, Type (0, 0), BuildingBlock: OJICUG_clean_linker_0, # of connection points: 2
#     Edge 121, Type (0, 0), BuildingBlock: OJICUG_clean_linker_0, # of connection points: 2
#     Edge 122, Type (0, 0), BuildingBlock: OJICUG_clean_linker_0, # of connection points: 2
#     Edge 123, Type (0, 0), BuildingBlock: OJICUG_clean_linker_0, # of connection points: 2
#     Edge 124, Type (0, 0), BuildingBlock: OJICUG_clean_linker_0, # of connection points: 2
#     Edge 125, Type (0, 0), BuildingBlock: OJICUG_clean_linker_0, # of connection points: 2
#     Edge 126, Type (0, 0), BuildingBlock: OJICUG_clean_linker_0, # of connection points: 2
#     Edge 127, Type (0, 0), BuildingBlock: OJICUG_clean_linker_0, # of connection points: 2
# Relax obj value: 0.605
# Max RMSD: 0.201
# Mean RMSD: 0.201
data_MOF--net-wir--node1-BETDIP_clean_sbu_0--edge1-OJICUG_clean_linker_0
_symmetry_space_group_name_H-M    P1
_symmetry_Int_Tables_number       1
_symmetry_cell_setting            triclinic
loop_
_symmetry_equiv_pos_as_xyz
'x, y, z'
_cell_length_a     28.095454
_cell_length_b     28.173582
_cell_length_c     80.272513
_cell_angle_alpha  89.775717
_cell_angle_beta   89.96428
_cell_angle_gamma 89.958649
loop_
_atom_site_label
_atom_site_type_symbol
_atom_site_fract_x
_atom_site_fract_y
_atom_site_fract_z
_atom_type_partial_charge
Tb0 Tb 0.27977 0.29433 0.45125 0.0
Tb1 Tb 0.24406 0.23678 0.44526 0.0
C2 C 0.32415 0.36857 0.45843 0.0
C3 C 0.30262 0.41575 0.45685 0.0
C4 C 0.26223 0.41965 0.44653 0.0
C5 C 0.22342 0.44673 0.45167 0.0
C6 C 0.22566 0.471 0.46679 0.0
C7 C 0.26975 0.47573 0.4749 0.0
C8 C 0.30824 0.44764 0.47002 0.0
C9 C 0.31715 0.21841 0.47673 0.0
C10 C 0.21753 0.27576 0.47931 0.0
C11 C 0.22377 0.15462 0.43552 0.0
C12 C 0.18338 0.13938 0.4252 0.0
C13 C 0.17526 0.16035 0.40962 0.0
C14 C 0.13624 0.14699 0.40012 0.0
C15 C 0.10393 0.11231 0.40594 0.0
C16 C 0.11041 0.09381 0.4221 0.0
C17 C 0.14997 0.10701 0.43159 0.0
C18 C 0.16171 0.28967 0.4447 0.0
C19 C 0.28542 0.29275 0.41239 0.0
O20 O 0.33104 0.3456 0.44456 0.0
O21 O 0.30257 0.34227 0.46948 0.0
O22 O 0.31379 0.22878 0.46038 0.0
O23 O 0.31508 0.22722 0.46041 0.0
O24 O 0.23358 0.31293 0.47169 0.0
O25 O 0.22305 0.23559 0.47152 0.0
O26 O 0.25625 0.18098 0.42842 0.0
O27 O 0.21171 0.17107 0.44996 0.0
O28 O 0.20463 0.30495 0.4409 0.0
O29 O 0.16689 0.24577 0.44877 0.0
O30 O 0.25582 0.25853 0.41737 0.0
O31 O 0.30467 0.31297 0.42533 0.0
H32 H 0.25719 0.39567 0.43617 0.0
H33 H 0.18985 0.44311 0.4452 0.0
H34 H 0.27203 0.49453 0.48663 0.0
H35 H 0.339 0.44525 0.47812 0.0
H36 H 0.19957 0.18645 0.40453 0.0
H37 H 0.13366 0.16193 0.38772 0.0
H38 H 0.08613 1.0676 0.42713 0.0
H39 H 0.15477 0.09156 0.44385 0.0
Tb40 Tb 0.1367 1.04707 0.70507 0.0
Tb41 Tb 0.19156 1.00887 0.70013 0.0
C42 C 1.06318 0.09343 0.71148 0.0
C43 C 1.01623 0.0714 0.71 0.0
C44 C 1.01256 1.0311 0.69973 0.0
C45 C 0.98193 0.99421 0.70405 0.0
C46 C 0.9541 0.99796 0.71839 0.0
C47 C 0.95165 1.04145 0.72688 0.0
C48 C 0.98296 0.07812 0.72275 0.0
C49 C 0.2114 0.08069 0.73179 0.0
C50 C 0.14531 0.98479 0.73329 0.0
C51 C 0.27341 0.98714 0.69015 0.0
C52 C 0.28681 0.94864 0.67873 0.0
C53 C 0.26432 0.94451 0.66323 0.0
C54 C 0.27364 0.90589 0.65305 0.0
C55 C 0.30578 0.87012 0.65803 0.0
C56 C 0.32737 0.87359 0.67378 0.0
C57 C 0.31787 0.91253 0.68405 0.0
C58 C 0.13758 0.92848 0.69944 0.0
C59 C 0.1383 1.04982 0.66658 0.0
O60 O 0.08678 0.09881 0.69758 0.0
O61 O 0.08913 0.07336 0.72295 0.0
O62 O 0.20251 0.07786 0.71533 0.0
O63 O 0.20418 0.07914 0.71536 0.0
O64 O 0.11066 1.00141 0.72455 0.0
O65 O 0.18746 0.98914 0.7266 0.0
O66 O 0.24894 1.02253 0.68393 0.0
O67 O 0.25563 0.97248 0.70416 0.0
O68 O 0.12321 0.97154 0.69538 0.0
O69 O 0.18127 0.93248 0.70407 0.0
O70 O 0.16729 1.01583 0.67219 0.0
O71 O 0.12328 0.07475 0.67915 0.0
H72 H 1.03779 1.02512 0.68975 0.0
H73 H 0.9839 0.96103 0.69734 0.0
H74 H 0.93033 1.04464 0.73807 0.0
H75 H 0.98548 0.10861 0.73088 0.0
H76 H 0.23971 0.97127 0.6588 0.0
H77 H 0.25729 0.90569 0.64084 0.0
H78 H 0.35248 0.84691 0.67796 0.0
H79 H 0.33474 0.91448 0.69616 0.0
Tb80 Tb 0.32524 0.87367 0.95181 0.0
Tb81 Tb 0.34994 0.92554 0.94135 0.0
C82 C 0.29721 0.79653 0.96452 0.0
C83 C 0.32535 0.75288 0.9658 0.0
C84 C 0.36388 0.74652 0.95479 0.0
C85 C 0.40436 0.72186 0.96004 0.0
C86 C 0.40638 0.70387 0.97626 0.0
C87 C 0.36509 0.70351 0.98614 0.0
C88 C 0.32457 0.72793 0.9809 0.0
C89 C 0.28762 0.94909 0.97657 0.0
C90 C 0.39163 0.92714 0.97426 0.0
C91 C 0.3275 0.98853 0.92082 0.0
C92 C 0.32887 0.98608 0.90253 0.0
C93 C 0.2858 0.98254 0.89371 0.0
C94 C 0.2857 0.97016 0.87691 0.0
C95 C 0.32876 0.96176 0.86856 0.0
C96 C 0.37187 0.96644 0.87732 0.0
C97 C 0.37194 0.97825 0.89413 0.0
C98 C 0.4389 0.88434 0.94179 0.0
C99 C 0.31357 0.85929 0.9129 0.0
O100 O 0.28537 0.81045 0.94964 0.0
O101 O 0.31539 0.83111 0.97299 0.0
O102 O 0.28654 0.93533 0.9605 0.0
O103 O 0.28462 0.93709 0.96059 0.0
O104 O 0.37876 0.88317 0.97151 0.0
O105 O 0.37975 0.95812 0.96295 0.0
O106 O 0.29687 0.95905 0.92741 0.0
O107 O 0.36818 0.98866 0.92881 0.0
O108 O 0.39794 0.86214 0.94092 0.0
O109 O 0.42908 0.9296 0.94227 0.0
O110 O 0.35074 0.8854 0.91654 0.0
O111 O 0.28904 0.85371 0.92681 0.0
H112 H 0.36526 0.76552 0.94304 0.0
H113 H 0.4357 0.7214 0.95221 0.0
H114 H 0.3662 0.68953 0.99874 0.0
H115 H 0.29541 0.73265 0.98959 0.0
H116 H 0.25204 0.98764 0.9 0.0
H117 H 0.25199 0.96717 0.87046 0.0
H118 H 0.40579 0.9618 0.87111 0.0
H119 H 0.40569 0.98 0.90061 0.0
Tb120 Tb 0.55104 0.10372 0.20452 0.0
Tb121 Tb 0.49924 0.13057 0.19499 0.0
C122 C 0.62946 1.07011 0.21408 0.0
C123 C 0.67509 0.09307 0.2104 0.0
C124 C 0.6755 0.12715 0.19751 0.0
C125 C 0.69998 0.16968 0.19971 0.0
C126 C 0.72431 0.17744 0.21464 0.0
C127 C 0.73459 0.13833 0.22501 0.0
C128 C 0.70889 0.09628 0.22314 0.0
C129 C 0.47883 1.06838 0.23085 0.0
C130 C 0.505 0.17091 0.22839 0.0
C131 C 0.43465 0.10831 0.17503 0.0
C132 C 0.43661 0.10456 0.15668 0.0
C133 C 0.44504 1.05992 0.14941 0.0
C134 C 0.45309 1.05577 0.13235 0.0
C135 C 0.45162 0.09599 1.12201 0.0
C136 C 0.44312 0.14071 0.12927 0.0
C137 C 0.43598 0.14499 0.14643 0.0
C138 C 0.54086 0.21798 0.19541 0.0
C139 C 0.56281 0.09338 0.16576 0.0
O140 O 0.60635 1.05393 0.20129 0.0
O141 O 0.60195 0.09575 0.22347 0.0
O142 O 0.48864 1.06817 0.21442 0.0
O143 O 0.48694 1.06661 0.21458 0.0
O144 O 0.54762 0.15462 0.22508 0.0
O145 O 0.47189 0.16173 0.21745 0.0
O146 O 0.46183 0.07747 0.18262 0.0
O147 O 0.43739 0.15054 0.18178 0.0
O148 O 0.56303 0.17704 0.19393 0.0
O149 O 0.49537 0.20884 0.19647 0.0
O150 O 0.53797 0.13107 0.16977 0.0
O151 O 0.56834 1.0682 0.17942 0.0
H152 H 0.65049 0.12492 0.18729 0.0
H153 H 0.69317 0.19882 0.19122 0.0
H154 H 0.7543 0.14342 0.23647 0.0
H155 H 0.70961 1.0702 0.23309 0.0
H156 H 0.44629 1.02805 0.157 0.0
H157 H 0.45972 1.02088 0.12723 0.0
H158 H 0.44046 0.17239 1.12164 0.0
H159 H 0.4301 0.17992 0.15163 0.0
Tb160 Tb 0.3062 0.87222 0.30481 0.0
Tb161 Tb 0.27013 0.92841 0.31095 0.0
C162 C 0.35156 0.7989 0.29707 0.0
C163 C 0.32987 0.75213 0.29618 0.0
C164 C 0.28493 0.74694 0.30375 0.0
C165 C 0.24946 0.72138 0.29572 0.0
C166 C 0.25925 0.70122 0.28024 0.0
C167 C 0.30668 0.69729 0.2748 0.0
C168 C 0.34216 0.72317 0.28276 0.0
C169 C 0.34416 0.94465 0.27909 0.0
C170 C 0.24282 0.89328 0.27697 0.0
C171 C 0.25024 1.00887 0.32218 0.0
C172 C 0.20931 1.02066 0.33294 0.0
C173 C 0.20912 1.00675 0.34971 0.0
C174 C 0.16816 1.01163 0.35926 0.0
C175 C 0.12606 1.03054 0.35235 0.0
C176 C 0.12626 1.04482 0.33557 0.0
C177 C 0.16752 1.03998 0.32596 0.0
C178 C 0.18784 0.87591 0.3108 0.0
C179 C 0.31036 0.87301 0.34369 0.0
O180 O 0.35386 0.81788 0.31182 0.0
O181 O 0.33323 0.82799 0.28622 0.0
O182 O 0.33984 0.93722 0.29561 0.0
O183 O 0.34107 0.93875 0.2955 0.0
O184 O 0.25925 0.8554 0.28418 0.0
O185 O 0.24839 0.93289 0.28501 0.0
O186 O 0.28347 0.9819 0.32859 0.0
O187 O 0.23876 0.9951 0.30732 0.0
O188 O 0.23065 0.85987 0.3143 0.0
O189 O 0.19287 0.9203 0.30739 0.0
O190 O 0.27742 0.90367 0.3386 0.0
O191 O 0.33351 0.85677 0.33079 0.0
H192 H 0.27497 0.76866 0.31431 0.0
H193 H 0.21322 0.72378 0.30021 0.0
H194 H 0.31474 0.68096 0.26292 0.0
H195 H 0.37664 0.72662 0.27682 0.0
H196 H 0.24048 0.99159 0.3555 0.0
H197 H 0.17029 1.00196 0.37231 0.0
H198 H 0.09475 1.06016 0.32994 0.0
H199 H 0.16652 1.0506 0.31298 0.0
Tb200 Tb 0.52433 1.04955 0.54962 0.0
Tb201 Tb 0.46832 1.01132 0.55458 0.0
C202 C 0.59724 0.09812 0.54381 0.0
C203 C 0.64557 0.07979 0.54606 0.0
C204 C 0.65058 1.03865 0.55594 0.0
C205 C 0.68031 1.00208 0.55064 0.0
C206 C 0.7058 1.00745 0.53581 0.0
C207 C 0.70947 1.05268 0.52845 0.0
C208 C 0.67889 0.08892 0.53349 0.0
C209 C 0.45297 0.08861 0.52323 0.0
C210 C 0.51148 0.98967 0.52087 0.0
C211 C 0.38708 0.98766 0.56463 0.0
C212 C 0.37599 0.95073 0.57711 0.0
C213 C 0.39126 0.95608 0.59362 0.0
C214 C 0.38756 0.91866 0.60483 0.0
C215 C 0.36824 0.87478 0.59994 0.0
C216 C 0.35192 0.86952 0.58352 0.0
C217 C 0.35604 0.90717 0.57216 0.0
C218 C 0.52457 0.93142 0.55527 0.0
C219 C 0.51895 1.05314 0.58821 0.0
O220 O 0.57203 0.10277 0.55736 0.0
O221 O 0.57384 0.07548 0.5323 0.0
O222 O 0.45838 0.08139 0.53973 0.0
O223 O 0.45697 0.08239 0.53963 0.0
O224 O 0.54739 1.00539 0.52925 0.0
O225 O 0.47 0.9941 0.52803 0.0
O226 O 0.40929 1.02545 0.56993 0.0
O227 O 0.40597 0.97172 0.55101 0.0
O228 O 0.53732 0.97449 0.55982 0.0
O229 O 0.4813 0.93536 0.55018 0.0
O230 O 0.48751 1.0215 0.58272 0.0
O231 O 0.53879 0.07464 0.57563 0.0
H232 H 0.62556 1.03105 0.56587 0.0
H233 H 0.67738 0.96755 0.55653 0.0
H234 H 0.72943 1.05738 0.517 0.0
H235 H 0.67579 0.12044 0.52579 0.0
H236 H 0.40669 0.98901 0.59794 0.0
H237 H 0.3986 0.92483 0.61757 0.0
H238 H 0.33584 0.83653 0.57954 0.0
H239 H 0.34438 0.90203 0.55943 0.0
Tb240 Tb 0.37846 0.28236 0.80658 0.0
Tb241 Tb 0.41976 0.23099 0.81084 0.0
C242 C 0.32404 0.35142 0.80158 0.0
C243 C 0.33919 0.40064 0.80266 0.0
C244 C 0.38304 0.40914 0.81058 0.0
C245 C 0.4154 0.44036 0.80332 0.0
C246 C 0.403 0.4633 0.78849 0.0
C247 C 0.35506 0.4644 0.78349 0.0
C248 C 0.32317 0.432 0.79036 0.0
C249 C 0.34165 0.21264 0.77953 0.0
C250 C 0.4369 0.27706 0.77721 0.0
C251 C 0.44218 0.14732 0.81864 0.0
C252 C 0.43291 0.10024 0.81197 0.0
C253 C 0.39473 0.09209 0.80112 0.0
C254 C 0.377 1.04614 0.79935 0.0
C255 C 0.39593 1.00935 0.80925 0.0
C256 C 0.44121 1.01623 0.81645 0.0
C257 C 0.45893 1.06198 0.81821 0.0
C258 C 0.49764 0.28841 0.81106 0.0
C259 C 0.37714 0.27827 0.84497 0.0
O260 O 0.32445 0.32751 0.81552 0.0
O261 O 0.34592 0.32884 0.7897 0.0
O262 O 0.34991 0.21633 0.79604 0.0
O263 O 0.34891 0.21477 0.79592 0.0
O264 O 0.41946 0.31095 0.78614 0.0
O265 O 0.43559 0.23505 0.78412 0.0
O266 O 0.40561 0.16972 0.82491 0.0
O267 O 0.46807 0.17456 0.80931 0.0
O268 O 0.45422 0.3002 0.81589 0.0
O269 O 0.49471 0.24565 0.80553 0.0
O270 O 0.41312 0.25247 0.83904 0.0
O271 O 0.35067 0.29202 0.83259 0.0
H272 H 0.3957 0.38566 0.82034 0.0
H273 H 0.4521 0.43963 0.80745 0.0
H274 H 0.34489 0.48292 0.77217 0.0
H275 H 0.28926 0.42632 0.78426 0.0
H276 H 0.37574 0.12139 0.79548 0.0
H277 H 0.34371 1.04136 0.79277 0.0
H278 H 0.45878 0.98839 0.82345 0.0
H279 H 0.48992 1.06776 0.82598 0.0
Tb280 Tb 0.08401 0.12051 1.04974 0.0
Tb281 Tb 0.14197 0.15401 1.05645 0.0
C282 C 1.00658 0.08077 1.04285 0.0
C283 C 0.96028 0.10261 1.04664 0.0
C284 C 0.95912 0.13612 1.05963 0.0
C285 C 0.93666 0.17975 1.05711 0.0
C286 C 0.91482 0.18911 1.04179 0.0
C287 C 0.9044 0.15067 1.03123 0.0
C288 C 0.9277 0.10735 1.03355 0.0
C289 C 0.15442 0.07802 1.02406 0.0
C290 C 0.11399 0.18021 1.02148 0.0
C291 C 0.22567 0.1633 1.06716 0.0
C292 C 0.27472 0.15284 1.06215 0.0
C293 C 0.28794 0.10878 1.05549 0.0
C294 C 0.33588 0.09527 1.05544 0.0
C295 C 0.37042 0.12501 1.0627 0.0
C296 C 0.3575 0.17228 1.0663 0.0
C297 C 0.30989 0.18581 1.06619 0.0
C298 C 0.08928 0.2369 1.056 0.0
C299 C 0.08604 0.11219 1.08879 0.0
O300 O 1.03249 1.06862 1.05563 0.0
O301 O 1.03129 0.10513 1.03206 0.0
O302 O 0.14821 0.08468 1.04057 0.0
O303 O 0.14966 0.08348 1.04043 0.0
O304 O 0.07422 0.16538 1.0279 0.0
O305 O 0.15199 0.1739 1.03053 0.0
O306 O 0.19822 0.12746 1.07093 0.0
O307 O 0.20363 0.1955 1.05854 0.0
O308 O 0.07422 0.19449 1.06049 0.0
O309 O 0.13315 0.23092 1.0517 0.0
O310 O 0.11888 0.14338 1.08408 0.0
O311 O 1.06687 0.09284 1.07563 0.0
H312 H 0.98257 0.13269 1.07025 0.0
H313 H 0.94341 0.2082 1.06579 0.0
H314 H 0.88721 0.15687 1.01936 0.0
H315 H 0.92729 0.08174 1.02351 0.0
H316 H 0.26114 0.08344 1.0517 0.0
H317 H 0.34486 1.05948 1.05169 0.0
H318 H 0.38267 0.19717 1.07152 0.0
H319 H 0.3003 0.22057 1.07087 0.0
Tb320 Tb 0.85736 0.92272 0.80414 0.0
Tb321 Tb 0.82629 0.86289 0.79697 0.0
C322 C 0.87141 1.00363 0.81599 0.0
C323 C 0.90979 1.01616 0.82774 0.0
C324 C 0.90282 1.00974 0.84489 0.0
C325 C 0.94119 1.0119 0.85578 0.0
C326 C 0.98751 1.02073 0.84983 0.0
C327 C 0.99434 1.02959 0.83281 0.0
C328 C 0.95579 1.02725 0.82184 0.0
C329 C 0.94228 0.87331 0.80502 0.0
C330 C 0.81644 0.86438 0.83613 0.0
C331 C 0.79041 0.78561 0.78804 0.0
C332 C 0.81634 0.74044 0.7893 0.0
C333 C 0.85158 0.73634 0.80172 0.0
C334 C 0.89437 0.71319 0.79825 0.0
C335 C 0.9017 0.69383 0.78246 0.0
C336 C 0.86297 0.68944 0.77149 0.0
C337 C 0.82021 0.7127 0.77492 0.0
C338 C 0.78675 0.93663 0.77146 0.0
C339 C 0.89116 0.89271 0.77036 0.0
O340 O 0.83844 0.97502 0.8216 0.0
O341 O 0.88569 0.99105 0.80127 0.0
O342 O 0.89995 0.8558 0.80812 0.0
O343 O 0.9356 0.91752 0.80167 0.0
O344 O 0.84482 0.89987 0.83163 0.0
O345 O 0.79967 0.84322 0.82285 0.0
O346 O 0.77936 0.8062 0.80204 0.0
O347 O 0.81053 0.81526 0.77775 0.0
O348 O 0.78903 0.92641 0.78785 0.0
O349 O 0.78766 0.92788 0.78778 0.0
O350 O 0.87786 0.85294 0.77708 0.0
O351 O 0.88115 0.93113 0.77857 0.0
H352 H 0.86794 1.00147 0.84987 0.0
H353 H 0.93439 1.00699 0.86896 0.0
H354 H 1.02945 1.03756 0.82798 0.0
H355 H 0.96236 1.03251 0.80866 0.0
H356 H 0.84936 0.757 0.81305 0.0
H357 H 0.92346 0.71569 0.80702 0.0
H358 H 0.86805 0.67422 0.75924 0.0
H359 H 0.7936 0.71527 0.76519 0.0
Tb360 Tb 0.99946 0.12799 0.5645 0.0
Tb361 Tb 1.04953 0.10198 0.55497 0.0
C362 C 0.93789 0.1035 0.58537 0.0
C363 C 0.94206 0.09946 0.60367 0.0
C364 C 0.95366 1.05515 0.61079 0.0
C365 C 0.96387 1.05105 0.6277 0.0
C366 C 0.96127 0.09088 0.63809 0.0
C367 C 0.94963 0.13527 0.63097 0.0
C368 C 0.94045 0.13957 0.61393 0.0
C369 C 1.03847 0.21717 0.56332 0.0
C370 C 1.06439 0.09332 0.59372 0.0
C371 C 0.128 1.07041 0.54457 0.0
C372 C 0.17278 0.09687 0.54553 0.0
C373 C 0.1753 0.13438 0.55705 0.0
C374 C 0.19749 0.17682 0.55254 0.0
C375 C 0.21732 0.18132 0.53665 0.0
C376 C 0.22461 0.14029 0.52703 0.0
C377 C 0.2019 0.09803 0.53141 0.0
C378 C 0.97706 1.06311 0.52923 0.0
C379 C 1.00057 0.16716 0.53109 0.0
O380 O 0.96521 0.07365 0.57745 0.0
O381 O 0.93851 0.1459 0.57855 0.0
O382 O 1.06187 0.17668 0.56424 0.0
O383 O 0.99316 0.20653 0.56308 0.0
O384 O 1.04023 0.13118 0.58932 0.0
O385 O 1.06798 1.06695 0.5803 0.0
O386 O 0.10921 1.05764 0.55868 0.0
O387 O 0.09671 0.09097 0.53508 0.0
O388 O 0.98782 1.06423 0.54564 0.0
O389 O 0.98605 1.06251 0.54549 0.0
O390 O 1.04389 0.15272 0.53431 0.0
O391 O 0.96846 0.15726 0.54231 0.0
H392 H 0.95573 1.02353 0.60318 0.0
H393 H 0.97283 1.01644 0.63271 0.0
H394 H 0.94589 0.16659 0.63863 0.0
H395 H 0.93212 0.17424 0.60884 0.0
H396 H 0.15374 0.13392 0.56825 0.0
H397 H 0.19316 0.20762 0.5604 0.0
H398 H 0.24017 0.14303 0.51471 0.0
H399 H 0.20066 1.06946 0.52242 0.0
Tb400 Tb 0.74191 0.23188 0.30551 0.0
Tb401 Tb 0.77862 0.28579 0.30029 0.0
C402 C 0.72852 0.14812 0.3152 0.0
C403 C 0.74035 0.10032 0.30967 0.0
C404 C 0.78495 0.08957 0.30284 0.0
C405 C 0.80109 1.04273 0.30309 0.0
C406 C 0.77374 1.00768 0.31124 0.0
C407 C 0.72497 1.01711 0.31382 0.0
C408 C 0.7087 1.0637 0.31346 0.0
C409 C 0.66023 0.28376 0.3056 0.0
C410 C 0.78267 0.2841 0.33876 0.0
C411 C 0.82211 0.36108 0.29434 0.0
C412 C 0.798 0.40638 0.29704 0.0
C413 C 0.76072 0.4072 0.30881 0.0
C414 C 0.72071 0.43524 0.30598 0.0
C415 C 0.71804 0.46248 0.29146 0.0
C416 C 0.75931 0.46934 0.28179 0.0
C417 C 0.79907 0.4406 0.28439 0.0
C418 C 0.81893 0.21713 0.27356 0.0
C419 C 0.71885 0.2704 0.2714 0.0
O420 O 0.76364 0.17461 0.3204 0.0
O421 O 0.6989 0.17124 0.30584 0.0
O422 O 0.7028 0.29903 0.30992 0.0
O423 O 0.66556 0.24048 0.30077 0.0
O424 O 0.74722 0.25706 0.33326 0.0
O425 O 0.80827 0.2975 0.32607 0.0
O426 O 0.83015 0.33581 0.30769 0.0
O427 O 0.80187 0.33606 0.28273 0.0
O428 O 0.81167 0.22156 0.29009 0.0
O429 O 0.8128 0.22006 0.28996 0.0
O430 O 0.7347 0.30681 0.27941 0.0
O431 O 0.72329 0.22978 0.27909 0.0
H432 H 0.80899 0.11759 0.29904 0.0
H433 H 0.8378 1.036 0.29973 0.0
H434 H 0.70126 0.99078 0.31908 0.0
H435 H 0.67318 0.07146 0.31798 0.0
H436 H 0.75929 0.38152 0.31887 0.0
H437 H 0.68962 0.43029 0.31376 0.0
H438 H 0.75787 0.49051 0.27049 0.0
H439 H 0.82734 0.44054 0.27521 0.0
Tb440 Tb 0.68824 1.00334 1.06033 0.0
Tb441 Tb 0.63421 1.04312 1.05507 0.0
C442 C 0.76824 0.97728 1.07122 0.0
C443 C 0.77776 0.93515 1.08148 0.0
C444 C 0.82414 0.92242 1.08589 0.0
C445 C 0.83186 0.88326 1.09632 0.0
C446 C 0.79323 0.85568 1.1022 0.0
C447 C 0.74739 0.86627 1.09632 0.0
C448 C 0.73963 0.90646 1.08659 0.0
C449 C 0.63199 0.92439 1.05974 0.0
C450 C 0.63515 1.04555 1.09351 0.0
C451 C 0.56407 0.09547 1.04867 0.0
C452 C 0.51436 0.08092 1.04817 0.0
C453 C 0.50328 1.03481 1.05369 0.0
C454 C 0.46826 1.00885 1.04551 0.0
C455 C 0.44438 1.02941 1.03199 0.0
C456 C 0.44783 0.0787 1.02932 0.0
C457 C 0.48367 0.10434 1.03719 0.0
C458 C 0.71021 0.07698 1.0293 0.0
C459 C 0.64562 0.98368 1.02622 0.0
O460 O 0.74269 1.01036 1.07821 0.0
O461 O 0.75282 0.96771 1.0564 0.0
O462 O 0.61866 0.96726 1.0643 0.0
O463 O 0.67551 0.92814 1.05494 0.0
O464 O 0.66367 1.01101 1.08814 0.0
O465 O 0.62045 1.07042 1.08085 0.0
O466 O 0.5845 0.09398 1.06323 0.0
O467 O 0.58972 0.07467 1.03732 0.0
O468 O 0.70127 0.07319 1.04572 0.0
O469 O 0.70289 0.07437 1.04568 0.0
O470 O 0.61012 1.00115 1.0344 0.0
O471 O 0.68673 0.98493 1.0338 0.0
H472 H 0.85406 0.94386 1.08189 0.0
H473 H 0.86776 0.87696 1.10068 0.0
H474 H 0.71686 0.84561 1.10025 0.0
H475 H 0.70342 0.91603 1.08365 0.0
H476 H 0.52651 1.01641 1.06235 0.0
H477 H 0.46562 0.97109 1.04796 0.0
H478 H 0.42855 0.0954 1.01918 0.0
H479 H 0.49146 0.14007 1.03296 0.0
Tb480 Tb 0.91554 0.22739 0.95055 0.0
Tb481 Tb 0.87556 0.27971 0.95469 0.0
C482 C 0.93774 0.14488 0.94144 0.0
C483 C 0.97433 0.12736 0.92998 0.0
C484 C 0.98443 0.15193 0.91522 0.0
C485 C 1.01644 0.13324 0.90379 0.0
C486 C 1.03932 0.08946 0.90687 0.0
C487 C 1.03333 1.06807 0.92263 0.0
C488 C 1.00063 0.08663 0.93402 0.0
C489 C 0.9954 0.28215 0.9501 0.0
C490 C 0.87504 0.2782 0.91645 0.0
C491 C 0.82242 0.34991 0.95886 0.0
C492 C 0.83802 0.39823 0.95537 0.0
C493 C 0.87827 0.40362 0.94506 0.0
C494 C 0.91247 0.43744 0.94898 0.0
C495 C 0.90557 0.46615 0.96291 0.0
C496 C 0.86002 0.46908 0.97012 0.0
C497 C 0.82671 0.43374 0.96682 0.0
C498 C 0.83812 0.21048 0.98187 0.0
C499 C 0.9337 0.27377 0.98413 0.0
O500 O 0.90254 0.16905 0.93495 0.0
O501 O 0.95433 0.16493 0.95472 0.0
O502 O 0.95219 0.29589 0.9457 0.0
O503 O 0.9914 0.23885 0.95514 0.0
O504 O 0.91034 0.25135 0.92241 0.0
O505 O 0.8484 0.29141 0.92877 0.0
O506 O 0.81927 0.3223 0.94591 0.0
O507 O 0.8465 0.33011 0.97091 0.0
O508 O 0.84583 0.21424 0.96535 0.0
O509 O 0.84483 0.21276 0.96548 0.0
O510 O 0.91556 0.30763 0.97531 0.0
O511 O 0.93293 0.23194 0.97718 0.0
H512 H 0.96593 0.18443 0.91208 0.0
H513 H 1.01952 0.15139 0.89193 0.0
H514 H 1.05134 1.03521 0.92572 0.0
H515 H 0.99462 1.06826 0.94572 0.0
H516 H 0.88746 0.37687 0.93596 0.0
H517 H 0.94719 0.4351 0.94316 0.0
H518 H 0.85401 0.49185 0.98078 0.0
H519 H 0.79574 0.43039 0.97479 0.0
Tb520 Tb 0.64299 0.14276 0.69182 0.0
Tb521 Tb 0.58373 0.11485 0.70076 0.0
C522 C 0.7244 0.14899 0.67911 0.0
C523 C 0.77274 0.14203 0.68547 0.0
C524 C 0.7849 0.10305 0.69557 0.0
C525 C 0.83278 0.09306 0.69882 0.0
C526 C 0.8687 0.1215 0.69169 0.0
C527 C 0.85539 0.16475 0.68407 0.0
C528 C 0.80782 0.1745 0.6808 0.0
C529 C 0.59319 0.22823 0.69407 0.0
C530 C 0.58144 0.1026 0.66139 0.0
C531 C 0.50477 0.08488 0.71133 0.0
C532 C 0.45959 0.11053 0.70979 0.0
C533 C 0.45765 0.14803 0.69816 0.0
C534 C 0.43641 0.19092 0.70264 0.0
C535 C 0.41737 0.19592 0.71861 0.0
C536 C 0.40839 0.15485 0.72815 0.0
C537 C 0.42999 0.11204 0.7238 0.0
C538 C 0.65014 1.06169 0.72406 0.0
C539 C 0.63866 0.16589 0.72769 0.0
O540 O 0.69751 0.11144 0.67771 0.0
O541 O 0.70172 0.18473 0.68543 0.0
O542 O 0.57673 0.18717 0.68925 0.0
O543 O 0.63678 0.21963 0.69819 0.0
O544 O 0.61756 0.13065 0.665 0.0
O545 O 0.56102 0.08737 0.67517 0.0
O546 O 0.52412 1.07027 0.69754 0.0
O547 O 0.53546 0.10733 0.72049 0.0
O548 O 0.64514 0.07186 0.70766 0.0
O549 O 0.64641 1.07056 0.70789 0.0
O550 O 0.59405 0.15857 0.72349 0.0
O551 O 0.66967 0.15731 0.71615 0.0
H552 H 0.75782 0.07869 0.69996 0.0
H553 H 0.84173 1.06032 0.70522 0.0
H554 H 0.88152 0.18835 0.6786 0.0
H555 H 0.79876 0.20574 0.67354 0.0
H556 H 0.47946 0.14731 0.68703 0.0
H557 H 0.44161 0.22179 0.69486 0.0
H558 H 0.39341 0.15786 0.74054 0.0
H559 H 0.43061 0.08341 0.73286 0.0
Tb560 Tb 0.77775 0.91137 0.44684 0.0
Tb561 Tb 0.80765 0.86139 0.45486 0.0
C562 C 0.79463 0.97977 0.42774 0.0
C563 C 0.79742 0.9796 0.40942 0.0
C564 C 0.84262 0.97722 0.40193 0.0
C565 C 0.84733 0.96601 0.38517 0.0
C566 C 0.80687 0.95891 0.37526 0.0
C567 C 0.76149 0.963 0.38262 0.0
C568 C 0.75681 0.97278 0.39958 0.0
C569 C 0.69034 0.8684 0.44762 0.0
C570 C 0.81523 0.85244 0.41616 0.0
C571 C 0.84716 0.784 0.46243 0.0
C572 C 0.82571 0.73749 0.45955 0.0
C573 C 0.78619 0.73602 0.44879 0.0
C574 C 0.74636 0.70946 0.45328 0.0
C575 C 0.74695 0.68418 0.46829 0.0
C576 C 0.79087 0.6751 0.47609 0.0
C577 C 0.83029 0.70285 0.47197 0.0
C578 C 0.8454 0.93152 0.4817 0.0
C579 C 0.74222 0.89805 0.48077 0.0
O580 O 0.82757 0.95356 0.43458 0.0
O581 O 0.75306 0.97348 0.43483 0.0
O582 O 0.73202 0.84723 0.44566 0.0
O583 O 0.69923 0.91367 0.44932 0.0
O584 O 0.77633 0.87409 0.42117 0.0
O585 O 0.84254 0.84857 0.42931 0.0
O586 O 0.85772 0.80815 0.44913 0.0
O587 O 0.82329 0.80971 0.47296 0.0
O588 O 0.84274 0.9235 0.46514 0.0
O589 O 0.84431 0.92526 0.46531 0.0
O590 O 0.75955 0.85709 0.47622 0.0
O591 O 0.74893 0.93338 0.47048 0.0
H592 H 0.87466 0.98178 0.40927 0.0
H593 H 0.8828 0.96282 0.38001 0.0
H594 H 0.72943 0.95923 0.37527 0.0
H595 H 0.72152 0.97385 0.405 0.0
H596 H 0.78245 0.76174 0.4388 0.0
H597 H 0.71317 0.71555 0.44678 0.0
H598 H 0.79206 0.6546 0.48754 0.0
H599 H 0.86074 0.70293 0.48024 0.0
Tb600 Tb 0.96961 1.0151 0.19489 0.0
Tb601 Tb 1.02776 1.05049 0.20103 0.0
C602 C 0.88744 0.9919 0.1858 0.0
C603 C 0.87423 0.94751 0.17751 0.0
C604 C 0.90274 0.92971 0.16464 0.0
C605 C 0.89135 0.88703 0.15703 0.0
C606 C 0.8512 0.86071 0.16215 0.0
C607 C 0.82554 0.87647 0.17618 0.0
C608 C 0.83672 0.91977 0.18369 0.0
C609 C 1.02382 0.93329 0.19418 0.0
C610 C 1.02335 1.0602 0.16222 0.0
C611 C 0.10258 0.09244 0.2093 0.0
C612 C 0.14883 1.06834 0.20923 0.0
C613 C 0.15266 1.0266 0.19969 0.0
C614 C 0.17889 0.98813 0.2057 0.0
C615 C 0.20254 0.99185 0.22093 0.0
C616 C 0.20603 1.03632 0.22872 0.0
C617 C 0.17899 0.07454 0.22292 0.0
C618 C 0.95122 0.08637 0.22647 0.0
C619 C 1.00931 0.98637 0.22855 0.0
O620 O 0.91412 1.0214 0.1774 0.0
O621 O 0.90296 0.98607 0.20085 0.0
O622 O 1.03844 0.97627 0.1904 0.0
O623 O 0.97987 0.93804 0.19828 0.0
O624 O 0.98853 1.03118 0.16709 0.0
O625 O 1.04556 0.07707 0.17521 0.0
O626 O 0.08238 0.09879 0.19483 0.0
O627 O 1.07326 0.07366 0.22001 0.0
O628 O 0.96179 0.08404 0.21013 0.0
O629 O 0.96029 0.08529 0.21016 0.0
O630 O 1.04656 1.00226 0.22094 0.0
O631 O 0.96886 0.99291 0.22098 0.0
H632 H 0.93335 0.94928 0.16014 0.0
H633 H 0.91229 0.87692 0.14629 0.0
H634 H 0.79521 0.8567 0.18079 0.0
H635 H 0.81572 0.9319 0.19417 0.0
H636 H 0.12964 1.02092 0.18906 0.0
H637 H 0.17585 0.95409 0.19958 0.0
H638 H 0.22413 1.03959 0.24058 0.0
H639 H 0.17632 0.10616 0.23051 0.0
Tb640 Tb 0.76479 0.80126 0.94875 0.0
Tb641 Tb 0.72734 0.74623 0.94295 0.0
C642 C 0.8122 0.87458 0.95488 0.0
C643 C 0.79382 0.92269 0.95244 0.0
C644 C 0.75165 0.92707 0.94308 0.0
C645 C 0.71483 0.95566 0.94896 0.0
C646 C 0.72104 0.98061 0.96382 0.0
C647 C 0.76728 0.98589 0.97029 0.0
C648 C 0.80373 0.9563 0.96471 0.0
C649 C 0.80575 0.72985 0.97462 0.0
C650 C 0.70653 0.78015 0.97782 0.0
C651 C 0.70947 0.66291 0.93371 0.0
C652 C 0.7177 0.61543 0.94034 0.0
C653 C 0.75556 0.60601 0.95123 0.0
C654 C 0.77102 0.55935 0.95349 0.0
C655 C 0.74975 0.52264 0.94425 0.0
C656 C 0.7055 0.53165 0.93656 0.0
C657 C 0.69014 0.57812 0.93431 0.0
C658 C 0.64694 0.8017 0.94363 0.0
C659 C 0.76893 0.79951 0.9098 0.0
O660 O 0.81816 0.84956 0.94142 0.0
O661 O 0.78857 0.85105 0.96618 0.0
O662 O 0.79768 0.73545 0.95812 0.0
O663 O 0.79878 0.73396 0.95826 0.0
O664 O 0.72203 0.8181 0.97041 0.0
O665 O 0.71024 0.74089 0.96937 0.0
O666 O 0.74705 0.68664 0.92896 0.0
O667 O 0.6802 0.68876 0.9422 0.0
O668 O 0.68972 0.81507 0.93877 0.0
O669 O 0.65163 0.75833 0.94851 0.0
O670 O 0.7371 0.76777 0.915 0.0
O671 O 0.79036 0.8179 0.92266 0.0
H672 H 0.74357 0.90197 0.93329 0.0
H673 H 0.67965 0.95168 0.94366 0.0
H674 H 0.77298 1.00513 0.98175 0.0
H675 H 0.83616 0.95382 0.97197 0.0
H676 H 0.77577 0.63477 0.95663 0.0
H677 H 0.80389 0.55327 0.9602 0.0
H678 H 0.6867 0.50428 0.92981 0.0
H679 H 0.65951 0.58502 0.92646 0.0
Tb680 Tb 0.61933 0.54254 0.20536 0.0
Tb681 Tb 0.67539 0.50537 0.20008 0.0
C682 C 0.54514 0.58803 0.21185 0.0
C683 C 0.49791 0.56671 0.20982 0.0
C684 C 0.49434 0.52769 0.19895 0.0
C685 C 0.46598 0.48895 0.20325 0.0
C686 C 0.44002 0.48987 0.21808 0.0
C687 C 0.43596 0.53263 0.22695 0.0
C688 C 0.46518 0.57104 0.22288 0.0
C689 C 0.69458 0.57869 0.23162 0.0
C690 C 0.63222 0.48113 0.23366 0.0
C691 C 0.76017 0.48845 0.1922 0.0
C692 C 0.80743 0.50063 0.19828 0.0
C693 C 0.81793 0.54654 0.20379 0.0
C694 C 0.8646 0.56295 0.20264 0.0
C695 C 0.89906 0.53452 0.19464 0.0
C696 C 0.89095 0.48508 0.19462 0.0
C697 C 0.84444 0.46841 0.19567 0.0
C698 C 0.62137 0.4249 0.19921 0.0
C699 C 0.62292 0.54721 0.16668 0.0
O700 O 0.5695 0.59476 0.1982 0.0
O701 O 0.57042 0.56649 0.2232 0.0
O702 O 0.68513 0.5748 0.21522 0.0
O703 O 0.68678 0.5761 0.21523 0.0
O704 O 0.59629 0.49637 0.22522 0.0
O705 O 0.67371 0.48694 0.22664 0.0
O706 O 0.73504 0.52286 0.18569 0.0
O707 O 0.73519 0.46116 0.2018 0.0
O708 O 0.60742 0.46784 0.19481 0.0
O709 O 0.66444 0.42934 0.20443 0.0
O710 O 0.65487 0.51562 0.17202 0.0
O711 O 0.60381 0.56863 0.17939 0.0
H712 H 0.51906 0.52353 0.1887 0.0
H713 H 0.46933 0.45633 0.19626 0.0
H714 H 0.416 0.53377 0.2385 0.0
H715 H 0.46742 0.60061 0.23143 0.0
H716 H 0.78979 0.57125 0.20693 0.0
H717 H 0.87056 0.60041 0.2046 0.0
H718 H 0.91764 0.46029 0.19034 0.0
H719 H 0.837 0.43186 0.19241 0.0
Tb720 Tb 0.83776 0.36674 0.44991 0.0
Tb721 Tb 0.86758 0.41655 0.44128 0.0
C722 C 0.798 0.29065 0.45896 0.0
C723 C 0.81965 0.24358 0.45906 0.0
C724 C 0.86437 0.23874 0.45135 0.0
C725 C 0.8995 0.21135 0.45899 0.0
C726 C 0.88919 0.18859 0.47407 0.0
C727 C 0.8415 0.18387 0.47915 0.0
C728 C 0.80663 0.21213 0.47177 0.0
C729 C 0.80381 0.43981 0.47628 0.0
C730 C 0.90539 0.4045 0.47493 0.0
C731 C 0.8506 0.48365 0.42169 0.0
C732 C 0.84908 0.48211 0.40336 0.0
C733 C 0.80451 0.47883 0.39549 0.0
C734 C 0.80126 0.46641 0.37877 0.0
C735 C 0.8426 0.45866 0.36935 0.0
C736 C 0.8873 0.46349 0.37711 0.0
C737 C 0.89052 0.47469 0.39398 0.0
C738 C 0.95417 0.37281 0.44199 0.0
C739 C 0.82889 0.35621 0.41134 0.0
O740 O 0.79166 0.30992 0.44441 0.0
O741 O 0.81872 0.31986 0.4691 0.0
O742 O 0.80379 0.42977 0.45988 0.0
O743 O 0.80213 0.4316 0.45999 0.0
O744 O 0.88807 0.36327 0.47065 0.0
O745 O 0.89794 0.43947 0.46454 0.0
O746 O 0.81758 0.45755 0.42856 0.0
O747 O 0.89186 0.4784 0.42908 0.0
O748 O 0.91248 0.35183 0.4404 0.0
O749 O 0.94603 0.41831 0.44326 0.0
O750 O 0.86825 0.3774 0.41605 0.0
O751 O 0.80167 0.35368 0.42459 0.0
H752 H 0.87469 0.26228 0.44127 0.0
H753 H 0.93594 0.2146 0.45473 0.0
H754 H 0.83293 0.16548 0.49065 0.0
H755 H 0.77215 0.21505 0.47773 0.0
H756 H 0.77188 0.48377 0.40248 0.0
H757 H 0.7663 0.46287 0.37325 0.0
H758 H 0.91999 0.4593 0.37011 0.0
H759 H 0.92536 0.4764 0.39971 0.0
Tb760 Tb 1.05689 0.60885 0.70557 0.0
Tb761 Tb 0.99773 0.64157 0.69819 0.0
C762 C 0.13433 0.57028 0.71351 0.0
C763 C 0.18077 0.59234 0.71016 0.0
C764 C 0.18271 0.62645 0.69729 0.0
C765 C 0.20625 0.66934 0.69994 0.0
C766 C 0.22799 0.67755 0.71533 0.0
C767 C 0.23751 0.63849 0.72581 0.0
C768 C 0.21304 0.59591 0.72339 0.0
C769 C 0.9858 0.56819 0.73133 0.0
C770 C 1.02438 0.67089 0.73284 0.0
C771 C 0.91394 0.64924 0.68743 0.0
C772 C 0.86483 0.6414 0.69304 0.0
C773 C 0.84949 0.59771 0.69955 0.0
C774 C 0.80085 0.58712 0.69994 0.0
C775 C 0.7677 0.6193 0.69305 0.0
C776 C 0.783 0.66617 0.68991 0.0
C777 C 0.83133 0.67683 0.68968 0.0
C778 C 1.04986 0.72429 0.69844 0.0
C779 C 1.05535 0.60003 0.66638 0.0
O780 O 0.10973 0.55763 0.70051 0.0
O781 O 0.10845 0.59479 0.72384 0.0
O782 O 0.99271 0.57328 0.71479 0.0
O783 O 0.99124 0.57205 0.71493 0.0
O784 O 1.06474 0.65638 0.72674 0.0
O785 O 0.98669 0.66316 0.7238 0.0
O786 O 0.94075 0.61211 0.68483 0.0
O787 O 0.9368 0.68335 0.69468 0.0
O788 O 1.06554 0.68202 0.69428 0.0
O789 O 1.00569 0.71857 0.70241 0.0
O790 O 1.02161 0.63051 0.67078 0.0
O791 O 0.07486 0.58142 0.67971 0.0
H792 H 0.1593 0.62401 0.68662 0.0
H793 H 0.20055 0.69826 0.69127 0.0
H794 H 0.25534 0.64381 0.73763 0.0
H795 H 0.21281 0.5698 0.73333 0.0
H796 H 0.87494 0.57044 0.70294 0.0
H797 H 0.79007 0.55155 0.70345 0.0
H798 H 0.75898 0.69299 0.68515 0.0
H799 H 0.84256 0.7114 0.68519 0.0
Tb800 Tb 0.81881 0.36743 0.80562 0.0
Tb801 Tb 0.79113 0.41725 0.81478 0.0
C802 C 0.85371 0.29087 0.79541 0.0
C803 C 0.82848 0.24584 0.79513 0.0
C804 C 0.78623 0.24156 0.80447 0.0
C805 C 0.749 0.21342 0.79862 0.0
C806 C 0.75404 0.18948 0.7835 0.0
C807 C 0.79926 0.18834 0.77573 0.0
C808 C 0.83628 0.21619 0.78159 0.0
C809 C 0.85403 0.44069 0.77955 0.0
C810 C 0.75118 0.41102 0.78149 0.0
C811 C 0.81043 0.482 0.83482 0.0
C812 C 0.81003 0.47952 0.85314 0.0
C813 C 0.85351 0.47454 0.86166 0.0
C814 C 0.85429 0.46272 0.87852 0.0
C815 C 0.81157 0.45676 0.88733 0.0
C816 C 0.76806 0.46256 0.87885 0.0
C817 C 0.76728 0.47353 0.86192 0.0
C818 C 0.70352 0.37466 0.81432 0.0
C819 C 0.82929 0.35385 0.84412 0.0
O820 O 0.86283 0.30815 0.81004 0.0
O821 O 0.83441 0.32236 0.7857 0.0
O822 O 0.85459 0.42968 0.79589 0.0
O823 O 0.85635 0.43148 0.79579 0.0
O824 O 0.76689 0.36864 0.78527 0.0
O825 O 0.76057 0.4445 0.79215 0.0
O826 O 0.84254 0.4544 0.82817 0.0
O827 O 0.76955 0.47967 0.82701 0.0
O828 O 0.74494 0.35321 0.81556 0.0
O829 O 0.71223 0.42012 0.81339 0.0
O830 O 0.79053 0.37693 0.83983 0.0
O831 O 0.8556 0.35088 0.83064 0.0
H832 H 0.77986 0.26415 0.81513 0.0
H833 H 0.71525 0.21342 0.80511 0.0
H834 H 0.80489 0.17049 0.76398 0.0
H835 H 0.86845 0.21939 0.77421 0.0
H836 H 0.88706 0.47825 0.85511 0.0
H837 H 0.88832 0.45871 0.8847 0.0
H838 H 0.7344 0.4598 0.88536 0.0
H839 H 0.73321 0.47646 0.85569 0.0
Tb840 Tb 1.00784 0.56232 1.05013 0.0
Tb841 Tb 0.9588 0.52906 1.05687 0.0
C842 C 0.08341 0.60521 1.04288 0.0
C843 C 0.12998 0.58239 1.04344 0.0
C844 C 0.13395 0.53985 1.05259 0.0
C845 C 0.16494 0.50443 1.04729 0.0
C846 C 0.19211 0.51176 1.03295 0.0
C847 C 0.19449 0.55727 1.02576 0.0
C848 C 0.16305 0.59258 1.03092 0.0
C849 C 0.93457 0.595 1.0226 0.0
C850 C 0.98571 0.49656 1.02335 0.0
C851 C 0.88766 0.54101 1.07519 0.0
C852 C 0.88718 0.54308 1.09353 0.0
C853 C 0.88643 0.5881 1.101 0.0
C854 C 0.90106 0.59393 1.11739 0.0
C855 C 0.91403 0.55451 0.12715 0.0
C856 C 0.91144 0.50892 1.11999 0.0
C857 C 0.89884 0.50332 1.10327 0.0
C858 C 1.00431 0.44419 1.05671 0.0
C859 C 1.01563 0.56613 1.08839 0.0
O860 O 1.06196 0.61006 1.05714 0.0
O861 O 1.05552 0.5863 1.03186 0.0
O862 O 0.94456 0.59435 1.03904 0.0
O863 O 0.94259 0.59607 1.03895 0.0
O864 O 1.02374 0.51449 1.02994 0.0
O865 O 0.94642 0.50153 1.03194 0.0
O866 O 0.91241 0.57556 1.06873 0.0
O867 O 0.89677 0.5004 1.06795 0.0
O868 O 1.02403 0.48631 1.05904 0.0
O869 O 0.95887 0.45125 1.0541 0.0
O870 O 0.99716 0.5267 1.08252 0.0
O871 O 1.01678 0.59595 1.07589 0.0
H872 H 0.10893 0.53152 1.06245 0.0
H873 H 0.16302 0.46962 1.05301 0.0
H874 H 0.21546 0.56324 1.01461 0.0
H875 H 0.1603 0.62504 1.0237 0.0
H876 H 0.87808 0.61954 1.09374 0.0
H877 H 0.90326 0.62972 1.12216 0.0
H878 H 0.91946 0.47739 0.1272 0.0
H879 H 0.90015 0.46819 1.09786 0.0
Tb880 Tb 0.86451 0.78557 0.30456 0.0
Tb881 Tb 0.9038 0.73253 0.30952 0.0
C882 C 0.81778 0.85839 0.29749 0.0
C883 C 0.84069 0.90493 0.29743 0.0
C884 C 0.88162 0.91028 0.3074 0.0
C885 C 0.91967 0.9375 0.30171 0.0
C886 C 0.91678 0.9594 0.28614 0.0
C887 C 0.87273 0.9617 0.27787 0.0
C888 C 0.83464 0.93424 0.28349 0.0
C889 C 0.82623 0.71403 0.27808 0.0
C890 C 0.92469 0.77519 0.27579 0.0
C891 C 0.92362 0.64881 0.31787 0.0
C892 C 0.91622 0.60201 0.31068 0.0
C893 C 0.87592 0.59179 0.30107 0.0
C894 C 0.86246 0.54461 0.29879 0.0
C895 C 0.88747 0.50855 0.30731 0.0
C896 C 0.93427 0.5187 0.31257 0.0
C897 C 0.94786 0.56567 0.31484 0.0
C898 C 0.98324 0.78787 0.30955 0.0
C899 C 0.86087 0.78287 0.34305 0.0
O900 O 0.81441 0.83722 0.31193 0.0
O901 O 0.8358 0.83046 0.28627 0.0
O902 O 0.83378 0.7196 0.29457 0.0
O903 O 0.8327 0.71804 0.29447 0.0
O904 O 0.9093 0.8104 0.2845 0.0
O905 O 0.92014 0.73362 0.28282 0.0
O906 O 0.88586 0.67137 0.32314 0.0
O907 O 0.95211 0.67604 0.30954 0.0
O908 O 0.94013 0.80095 0.31423 0.0
O909 O 0.97937 0.7449 0.30428 0.0
O910 O 0.89641 0.75588 0.33745 0.0
O911 O 0.83527 0.79691 0.33042 0.0
H912 H 0.88702 0.8883 0.31834 0.0
H913 H 0.95313 0.93619 0.30833 0.0
H914 H 0.87006 0.97873 0.26577 0.0
H915 H 0.80356 0.93051 0.27561 0.0
H916 H 0.8525 0.61986 0.29686 0.0
H917 H 0.82788 0.53768 0.29341 0.0
H918 H 0.95676 0.49169 0.31807 0.0
H919 H 0.98065 0.57331 0.32141 0.0
Tb920 Tb 0.60854 0.60859 0.55182 0.0
Tb921 Tb 0.6559 0.63947 0.5595 0.0
C922 C 0.53178 0.57001 0.54374 0.0
C923 C 0.48707 0.59565 0.54552 0.0
C924 C 0.48518 0.63173 0.55762 0.0
C925 C 0.45981 0.67317 0.55446 0.0
C926 C 0.43717 0.67865 0.53912 0.0
C927 C 0.43031 0.63877 0.5289 0.0
C928 C 0.45622 0.59747 0.5319 0.0
C929 C 0.67663 0.57141 0.52462 0.0
C930 C 0.64304 0.67457 0.52567 0.0
C931 C 0.72083 0.62137 0.57997 0.0
C932 C 0.71663 0.6157 0.59826 0.0
C933 C 0.70886 0.56995 0.60485 0.0
C934 C 0.69688 0.56351 0.62152 0.0
C935 C 0.69461 0.60237 0.63236 0.0
C936 C 0.7028 0.64825 0.62582 0.0
C937 C 0.71324 0.65488 0.60892 0.0
C938 C 0.61215 0.72565 0.55842 0.0
C939 C 0.59736 0.60288 0.59011 0.0
O940 O 0.55384 0.55991 0.55754 0.0
O941 O 0.56005 0.59022 0.53309 0.0
O942 O 0.67084 0.57491 0.54126 0.0
O943 O 0.67263 0.57341 0.54106 0.0
O944 O 0.60251 0.65698 0.53064 0.0
O945 O 0.67884 0.66851 0.53586 0.0
O946 O 0.69734 0.58909 0.57184 0.0
O947 O 0.71518 0.66362 0.57336 0.0
O948 O 0.59131 0.68394 0.56023 0.0
O949 O 0.65791 0.71773 0.55698 0.0
O950 O 0.61438 0.64304 0.58435 0.0
O951 O 0.5985 0.57347 0.57754 0.0
H952 H 0.50826 0.63082 0.56843 0.0
H953 H 0.46403 0.70305 0.56275 0.0
H954 H 0.41227 0.64245 0.51703 0.0
H955 H 0.45724 0.57014 0.52245 0.0
H956 H 0.71055 0.53888 0.59696 0.0
H957 H 0.69 0.52779 0.62591 0.0
H958 H 0.7026 0.67911 0.63381 0.0
H959 H 0.7184 0.69059 0.60422 0.0
Tb960 Tb 0.37213 0.41938 0.30682 0.0
Tb961 Tb 0.3364 0.36411 0.30012 0.0
C962 C 0.38393 0.50251 0.31707 0.0
C963 C 0.37657 0.55128 0.31133 0.0
C964 C 0.33127 0.56869 0.30728 0.0
C965 C 0.32255 0.61738 0.30826 0.0
C966 C 0.35831 0.64769 0.31447 0.0
C967 C 0.40573 0.63134 0.31377 0.0
C968 C 0.41462 0.58293 0.31269 0.0
C969 C 0.45402 0.36725 0.30649 0.0
C970 C 0.3311 0.36249 0.33915 0.0
C971 C 0.2901 0.29106 0.29269 0.0
C972 C 0.30903 0.24289 0.29428 0.0
C973 C 0.35025 0.23753 0.3041 0.0
C974 C 0.38888 0.21211 0.29785 0.0
C975 C 0.38526 0.19126 0.28214 0.0
C976 C 0.3401 0.18594 0.27483 0.0
C977 C 0.30175 0.21215 0.28088 0.0
C978 C 0.29945 0.43778 0.27419 0.0
C979 C 0.39956 0.38636 0.27252 0.0
O980 O 0.34648 0.47698 0.32069 0.0
O981 O 0.41627 0.47864 0.3092 0.0
O982 O 0.41129 0.3511 0.31025 0.0
O983 O 0.44883 0.41145 0.30267 0.0
O984 O 0.36294 0.39468 0.33441 0.0
O985 O 0.30978 0.34552 0.326 0.0
O986 O 0.28369 0.31407 0.30656 0.0
O987 O 0.31359 0.31642 0.28185 0.0
O988 O 0.30396 0.42995 0.2907 0.0
O989 O 0.30277 0.43152 0.29061 0.0
O990 O 0.38342 0.34798 0.27948 0.0
O991 O 0.39348 0.4256 0.28082 0.0
H992 H 0.30175 0.54476 0.30515 0.0
H993 H 0.28617 0.62949 0.30705 0.0
H994 H 0.43543 0.65372 0.31713 0.0
H995 H 0.45042 0.57007 0.31497 0.0
H996 H 0.35622 0.26019 0.31477 0.0
H997 H 0.42317 0.21554 0.30386 0.0
H998 H 0.33661 0.1689 0.2628 0.0
H999 H 0.26998 0.21517 0.2733 0.0
Tb1000 Tb 0.49779 0.63499 1.06169 0.0
Tb1001 Tb 0.55776 0.60356 1.05415 0.0
C1002 C 0.4136 0.64252 1.07198 0.0
C1003 C 0.36571 0.6373 1.065 0.0
C1004 C 0.35106 0.59599 1.05674 0.0
C1005 C 0.30253 0.58774 1.05418 0.0
C1006 C 0.2686 0.61978 1.06058 0.0
C1007 C 0.28444 0.66504 1.06556 0.0
C1008 C 0.33267 0.67332 1.06803 0.0
C1009 C 0.54792 0.71888 1.06113 0.0
C1010 C 0.55712 0.5939 1.09329 0.0
C1011 C 0.63514 0.56757 1.04476 0.0
C1012 C 0.68056 0.59324 1.04496 0.0
C1013 C 0.68433 0.63194 1.05595 0.0
C1014 C 0.70412 0.67453 1.05035 0.0
C1015 C 0.72041 0.67803 1.03396 0.0
C1016 C 0.7275 0.63627 1.02474 0.0
C1017 C 0.70737 0.5937 1.03024 0.0
C1018 C 0.48573 0.56091 1.02914 0.0
C1019 C 0.52414 0.66513 1.02708 0.0
O1020 O 0.43928 0.60431 1.07403 0.0
O1021 O 0.43816 0.67765 1.06607 0.0
O1022 O 0.56477 0.67694 1.0653 0.0
O1023 O 0.50403 0.71204 1.05706 0.0
O1024 O 0.52212 0.62312 1.08898 0.0
O1025 O 0.57734 0.57631 1.07993 0.0
O1026 O 0.6159 0.55815 1.05918 0.0
O1027 O 0.60445 0.58685 1.03468 0.0
O1028 O 0.49392 0.5662 1.04558 0.0
O1029 O 0.49245 0.5649 1.04549 0.0
O1030 O 0.56491 0.65344 1.03354 0.0
O1031 O 0.48649 0.65523 1.0359 0.0
H1032 H 0.37648 0.5686 1.05352 0.0
H1033 H 0.2916 0.55357 1.04937 0.0
H1034 H 0.25999 0.69178 1.07005 0.0
H1035 H 0.34365 0.70631 1.07377 0.0
H1036 H 0.66476 0.63223 1.06758 0.0
H1037 H 0.70029 0.70605 1.05783 0.0
H1038 H 0.7408 0.63826 1.01208 0.0
H1039 H 0.70539 0.56419 1.02165 0.0
Tb1040 Tb 0.22894 0.73462 0.80656 0.0
Tb1041 Tb 0.26755 0.78645 0.80172 0.0
C1042 C 0.212 0.65196 0.81684 0.0
C1043 C 0.22526 0.60375 0.81236 0.0
C1044 C 0.2687 0.5942 0.8045 0.0
C1045 C 0.28792 0.54865 0.80539 0.0
C1046 C 0.26438 0.51326 0.81471 0.0
C1047 C 0.21642 0.52101 0.81918 0.0
C1048 C 0.19729 0.56644 0.81826 0.0
C1049 C 0.14859 0.78863 0.80552 0.0
C1050 C 0.26821 0.78584 0.84024 0.0
C1051 C 0.31519 0.85994 0.7968 0.0
C1052 C 0.29425 0.90654 0.79984 0.0
C1053 C 0.25567 0.9089 0.81105 0.0
C1054 C 0.21785 0.93951 0.80783 0.0
C1055 C 0.21902 0.96801 0.79356 0.0
C1056 C 0.26223 0.97351 0.78486 0.0
C1057 C 0.29947 0.94184 0.78771 0.0
C1058 C 0.30867 0.71724 0.77537 0.0
C1059 C 0.21111 0.77215 0.77187 0.0
O1060 O 0.24608 0.67866 0.82269 0.0
O1061 O 0.18543 0.67425 0.80619 0.0
O1062 O 0.19112 0.80278 0.81034 0.0
O1063 O 0.15344 0.74523 0.80077 0.0
O1064 O 0.23204 0.7605 0.83434 0.0
O1065 O 0.29556 0.79743 0.82778 0.0
O1066 O 0.32097 0.83327 0.80995 0.0
O1067 O 0.29373 0.8372 0.78487 0.0
O1068 O 0.29965 0.72135 0.79184 0.0
O1069 O 0.30075 0.71982 0.79169 0.0
O1070 O 0.22788 0.80824 0.77988 0.0
O1071 O 0.21245 0.7319 0.77995 0.0
H1072 H 0.28986 0.62272 0.79932 0.0
H1073 H 0.32405 0.54352 0.80109 0.0
H1074 H 0.19601 0.49455 0.82588 0.0
H1075 H 0.16282 0.57326 0.82384 0.0
H1076 H 0.25109 0.88235 0.8207 0.0
H1077 H 0.18511 0.93522 0.8148 0.0
H1078 H 0.26389 0.99551 0.77378 0.0
H1079 H 0.32891 0.94071 0.77899 0.0
Tb1080 Tb 0.17088 0.50771 0.55969 0.0
Tb1081 Tb 0.11649 0.54539 0.55424 0.0
C1082 C 0.25439 0.48655 0.56794 0.0
C1083 C 0.30084 0.492 0.56018 0.0
C1084 C 0.31275 0.53328 0.55136 0.0
C1085 C 0.36057 0.54486 0.54931 0.0
C1086 C 0.39521 0.51715 0.55755 0.0
C1087 C 0.38334 0.46941 0.56088 0.0
C1088 C 0.33569 0.45764 0.56315 0.0
C1089 C 0.11587 0.42724 0.55937 0.0
C1090 C 0.11929 0.55064 0.59295 0.0
C1091 C 1.04329 0.59294 0.54764 0.0
C1092 C 0.9951 0.57354 0.5481 0.0
C1093 C 0.98958 0.52873 0.5557 0.0
C1094 C 0.96197 0.49418 0.54795 0.0
C1095 C 0.93889 0.5053 0.53302 0.0
C1096 C 0.9351 0.55304 0.52798 0.0
C1097 C 0.9637 0.58727 0.53546 0.0
C1098 C 0.18911 0.58691 0.52844 0.0
C1099 C 0.13352 0.48777 0.52522 0.0
O1100 O 0.23293 0.52523 0.57282 0.0
O1101 O 0.22603 0.45787 0.56032 0.0
O1102 O 0.10246 0.46994 0.56427 0.0
O1103 O 0.15863 0.43251 0.5539 0.0
O1104 O 0.15043 0.51826 0.58773 0.0
O1105 O 0.10085 0.57223 0.5801 0.0
O1106 O 1.06529 0.59552 0.56189 0.0
O1107 O 1.06962 0.57274 0.53635 0.0
O1108 O 0.18266 0.57841 0.5449 0.0
O1109 O 0.18419 0.57953 0.5448 0.0
O1110 O 0.09623 0.50183 0.53326 0.0
O1111 O 0.17386 0.49273 0.53302 0.0
H1112 H 0.28576 0.55893 0.5479 0.0
H1113 H 0.36848 0.58044 0.54515 0.0
H1114 H 0.40954 0.44445 0.56549 0.0
H1115 H 0.32659 0.42396 0.5689 0.0
H1116 H 1.01318 0.51766 0.56566 0.0
H1117 H 0.96497 0.45763 0.55207 0.0
H1118 H 0.91674 0.56217 0.51654 0.0
H1119 H 0.96719 0.62171 0.52953 0.0
Tb1120 Tb 0.39435 0.74211 0.44832 0.0
Tb1121 Tb 0.36082 0.79588 0.45529 0.0
C1122 C 0.39005 0.66708 0.43168 0.0
C1123 C 0.37972 0.66698 0.41361 0.0
C1124 C 0.333 0.67656 0.40814 0.0
C1125 C 0.32402 0.68902 0.39168 0.0
C1126 C 0.36107 0.69024 0.37998 0.0
C1127 C 0.4075 0.67844 0.38522 0.0
C1128 C 0.41679 0.66732 0.4019 0.0
C1129 C 0.47901 0.78942 0.44896 0.0
C1130 C 0.35324 0.80092 0.41673 0.0
C1131 C 0.31954 0.87235 0.46199 0.0
C1132 C 0.34165 0.91832 0.4583 0.0
C1133 C 0.37852 0.91877 0.44638 0.0
C1134 C 0.419 0.9462 0.44908 0.0
C1135 C 0.42186 0.9741 0.46339 0.0
C1136 C 0.38042 0.9823 0.47283 0.0
C1137 C 0.34046 0.95366 0.47047 0.0
C1138 C 0.32543 0.72105 0.48205 0.0
C1139 C 0.42557 0.77232 0.48238 0.0
O1140 O 0.35521 0.68251 0.44077 0.0
O1141 O 0.4303 0.68558 0.4364 0.0
O1142 O 0.43673 0.80778 0.44533 0.0
O1143 O 0.47171 0.74498 0.45286 0.0
O1144 O 0.38914 0.77394 0.42156 0.0
O1145 O 0.32824 0.81144 0.42989 0.0
O1146 O 0.3087 0.84676 0.44906 0.0
O1147 O 0.34306 0.84765 0.473 0.0
O1148 O 0.32724 0.73208 0.46564 0.0
O1149 O 0.32568 0.73029 0.46576 0.0
O1150 O 0.40747 0.81039 0.47587 0.0
O1151 O 0.42119 0.73315 0.47371 0.0
H1152 H 0.30333 0.67703 0.41676 0.0
H1153 H 0.28795 0.69836 0.38823 0.0
H1154 H 0.43678 0.67754 0.37646 0.0
H1155 H 0.45314 0.66048 0.40571 0.0
H1156 H 0.38001 0.89224 0.43667 0.0
H1157 H 0.45034 0.9399 0.44155 0.0
H1158 H 0.38195 1.00411 0.48391 0.0
H1159 H 0.31237 0.95409 0.47973 0.0
Tb1160 Tb 0.15106 0.63946 0.19096 0.0
Tb1161 Tb 0.10216 0.61173 0.20005 0.0
C1162 C 0.21272 0.61569 0.17009 0.0
C1163 C 0.20746 0.61045 0.15188 0.0
C1164 C 0.1966 0.56538 0.1454 0.0
C1165 C 0.1839 0.55995 0.12878 0.0
C1166 C 0.18384 0.59911 1.11793 0.0
C1167 C 0.19482 0.64431 1.12441 0.0
C1168 C 0.20611 0.64997 0.14123 0.0
C1169 C 0.10932 0.72716 0.1917 0.0
C1170 C 0.08898 0.60567 0.1613 0.0
C1171 C 1.02469 0.57865 0.21061 0.0
C1172 C 0.98054 0.60601 0.21048 0.0
C1173 C 0.97604 0.64299 0.19873 0.0
C1174 C 0.95077 0.68391 0.20274 0.0
C1175 C 0.93092 0.68818 0.2186 0.0
C1176 C 0.92753 0.64785 0.22893 0.0
C1177 C 0.95295 0.60692 0.22498 0.0
C1178 C 0.17357 0.5742 0.22635 0.0
C1179 C 0.14798 0.67873 0.22395 0.0
O1180 O 0.18671 0.58552 0.17843 0.0
O1181 O 0.21113 0.65838 0.17655 0.0
O1182 O 0.08718 0.68609 0.19091 0.0
O1183 O 0.15502 0.71809 0.19217 0.0
O1184 O 0.10976 0.6446 0.16633 0.0
O1185 O 0.08761 0.57727 0.17436 0.0
O1186 O 1.04241 0.56779 0.19615 0.0
O1187 O 1.05669 0.59737 0.22015 0.0
O1188 O 0.16397 0.57544 0.20987 0.0
O1189 O 0.16582 0.57369 0.21003 0.0
O1190 O 0.10527 0.66332 0.22041 0.0
O1191 O 0.18105 0.66938 0.21306 0.0
H1192 H 0.1966 0.53417 0.15333 0.0
H1193 H 0.17503 0.52478 1.12438 0.0
H1194 H 0.19644 0.67527 1.1164 0.0
H1195 H 0.21363 0.68523 0.14587 0.0
H1196 H 0.99681 0.64289 0.18735 0.0
H1197 H 0.95209 0.71415 0.19441 0.0
H1198 H 0.91192 0.65059 0.24125 0.0
H1199 H 0.95611 0.57893 0.23421 0.0
Tb1200 Tb 0.29063 0.40831 0.94757 0.0
Tb1201 Tb 0.31772 0.35475 0.95687 0.0
C1202 C 0.3097 0.47633 0.92863 0.0
C1203 C 0.3105 0.47668 0.9103 0.0
C1204 C 0.35468 0.47415 0.90211 0.0
C1205 C 0.35706 0.4639 0.88518 0.0
C1206 C 0.31521 0.45728 0.87596 0.0
C1207 C 0.27093 0.46123 0.88407 0.0
C1208 C 0.26858 0.4705 0.90109 0.0
C1209 C 0.20291 0.36565 0.94765 0.0
C1210 C 0.32908 0.34588 0.91795 0.0
C1211 C 0.349 0.2763 0.96723 0.0
C1212 C 0.32222 0.23178 0.96576 0.0
C1213 C 0.28881 0.22811 0.95273 0.0
C1214 C 0.24515 0.20588 0.95557 0.0
C1215 C 0.23512 0.18732 0.97135 0.0
C1216 C 0.27234 0.18177 0.9829 0.0
C1217 C 0.31593 0.20419 0.98013 0.0
C1218 C 0.35452 0.42817 0.98268 0.0
C1219 C 0.25029 0.39875 0.98093 0.0
O1220 O 0.34188 0.44824 0.93503 0.0
O1221 O 0.26845 0.47202 0.93612 0.0
O1222 O 0.2443 0.34415 0.94608 0.0
O1223 O 0.21183 0.41091 0.94906 0.0
O1224 O 0.29211 0.37208 0.92194 0.0
O1225 O 0.35321 0.33767 0.93169 0.0
O1226 O 0.36299 0.29579 0.95335 0.0
O1227 O 0.328 0.30713 0.97671 0.0
O1228 O 0.35448 0.41683 0.96638 0.0
O1229 O 0.35616 0.41854 0.96649 0.0
O1230 O 0.26496 0.35633 0.9769 0.0
O1231 O 0.26071 0.43307 0.97062 0.0
H1232 H 0.38763 0.47813 0.90898 0.0
H1233 H 0.39167 0.46119 0.87931 0.0
H1234 H 0.23788 0.45791 0.87724 0.0
H1235 H 0.23401 0.47166 0.90706 0.0
H1236 H 0.29307 0.24853 0.94136 0.0
H1237 H 0.2174 0.20891 0.94628 0.0
H1238 H 0.26523 0.167 0.99514 0.0
H1239 H 0.34121 0.20633 0.99029 0.0
Tb1240 Tb 0.46593 0.52122 0.69357 0.0
Tb1241 Tb 0.51435 0.55367 0.70095 0.0
C1242 C 0.39675 0.53553 0.67463 0.0
C1243 C 0.39793 0.53784 0.65632 0.0
C1244 C 0.39931 0.58291 0.64876 0.0
C1245 C 0.41462 0.58816 0.63241 0.0
C1246 C 0.42629 0.54823 0.62283 0.0
C1247 C 0.42238 0.50281 0.63014 0.0
C1248 C 0.40891 0.49769 0.64679 0.0
C1249 C 0.51108 0.43616 0.69368 0.0
C1250 C 0.52364 0.55985 0.6627 0.0
C1251 C 0.58932 0.59717 0.70884 0.0
C1252 C 0.63688 0.57663 0.70969 0.0
C1253 C 0.64369 0.53119 0.70288 0.0
C1254 C 0.67541 0.49972 0.7104 0.0
C1255 C 0.70035 0.51407 0.72458 0.0
C1256 C 0.7008 0.5623 0.72902 0.0
C1257 C 0.6685 0.59356 0.7217 0.0
C1258 C 0.43974 0.58493 0.728 0.0
C1259 C 0.48754 0.48601 0.7271 0.0
O1260 O 0.42183 0.56934 0.68132 0.0
O1261 O 0.40413 0.49451 0.68194 0.0
O1262 O 0.53146 0.47825 0.6922 0.0
O1263 O 0.46533 0.4432 0.69545 0.0
O1264 O 0.50586 0.51976 0.66831 0.0
O1265 O 0.52346 0.58901 0.67534 0.0
O1266 O 0.57031 0.59965 0.69412 0.0
O1267 O 0.56019 0.5784 0.71955 0.0
O1268 O 0.45057 0.58528 0.71164 0.0
O1269 O 0.44861 0.58701 0.71171 0.0
O1270 O 0.5266 0.5046 0.72134 0.0
O1271 O 0.44966 0.49152 0.71784 0.0
H1272 H 0.39166 0.61462 0.65589 0.0
H1273 H 0.41774 0.62373 0.62738 0.0
H1274 H 0.42948 0.47102 0.62304 0.0
H1275 H 0.40873 0.46254 0.6523 0.0
H1276 H 0.6198 0.5178 0.69342 0.0
H1277 H 0.67491 0.46274 0.70676 0.0
H1278 H 0.72043 0.5739 0.73989 0.0
H1279 H 0.66383 0.62856 0.727 0.0
C1280 C 0.17166 0.43165 0.48638 0.0
C1281 C 0.18303 0.47291 0.47731 0.0
H1282 H 0.14554 0.40418 0.50954 0.0
C1283 C 0.16334 0.51643 0.482 0.0
H1284 H 0.1869 0.39771 0.48294 0.0
C1285 C 0.13766 0.51958 0.49687 0.0
C1286 C 0.13368 0.4797 0.50732 0.0
H1287 H 0.17185 0.54842 0.4751 0.0
H1288 H 0.12676 0.55423 0.50126 0.0
C1289 C 0.14779 0.43517 0.50153 0.0
C1290 C 0.8946 0.93795 0.72777 0.0
C1291 C 0.94137 0.95486 0.72762 0.0
H1292 H 0.84259 0.89853 0.74164 0.0
C1293 C 0.97452 0.93724 0.73919 0.0
H1294 H 0.86875 0.95124 0.71889 0.0
C1295 C 0.95932 0.90868 0.75234 0.0
C1296 C 0.91119 0.89677 0.75372 0.0
H1297 H 1.01088 0.95013 0.73917 0.0
H1298 H 0.9838 0.90095 0.76243 0.0
C1299 C 0.87983 0.90796 0.74068 0.0
C1300 C 0.46664 0.73623 0.99522 0.0
C1301 C 0.45241 0.69912 0.98471 0.0
H1302 H 0.50424 0.7544 1.01745 0.0
C1303 C 0.47652 0.65568 0.98527 0.0
H1304 H 0.44845 0.77016 0.99482 0.0
C1305 C 0.51022 0.6476 0.99779 0.0
C1306 C 0.51797 0.68204 1.01007 0.0
H1307 H 0.46609 0.62681 0.97718 0.0
H1308 H 0.52511 0.61242 0.99927 0.0
C1309 C 0.49907 0.72757 1.00798 0.0
C1310 C 0.75253 0.27528 0.24328 0.0
C1311 C 0.7119 0.27112 0.2534 0.0
H1312 H 0.78849 0.24791 0.22168 0.0
C1313 C 0.67072 0.25035 0.24699 0.0
H1314 H 0.78467 0.29143 0.24809 0.0
C1315 C 0.67266 0.22687 0.23179 0.0
C1316 C 0.71635 0.22251 0.22334 0.0
H1317 H 0.63915 0.24674 0.25466 0.0
H1318 H 0.64227 0.20566 0.2281 0.0
C1319 C 0.75497 0.2503 0.22828 0.0
C1320 C 0.22625 0.73454 0.25443 0.0
C1321 C 0.2218 0.70192 0.2676 0.0
H1322 H 0.20354 0.75365 0.22996 0.0
C1323 C 0.18292 0.67093 0.26814 0.0
H1324 H 0.25493 0.76027 0.25422 0.0
C1325 C 0.15253 0.66816 0.25438 0.0
C1326 C 0.16151 0.69633 0.24024 0.0
H1327 H 0.17829 0.64672 0.27853 0.0
H1328 H 0.12577 0.6405 0.25404 0.0
C1329 C 0.19636 0.73158 0.24077 0.0
C1330 C 0.75667 0.90696 0.51079 0.0
C1331 C 0.7244 0.90755 0.49743 0.0
H1332 H 0.77695 0.94046 0.53379 0.0
C1333 C 0.68167 0.93259 0.49881 0.0
H1334 H 0.78985 0.88759 0.50979 0.0
C1335 C 0.67392 0.96151 0.51251 0.0
C1336 C 0.70942 0.96656 0.52468 0.0
H1337 H 0.65663 0.93363 0.48855 0.0
H1338 H 0.64227 0.98356 0.51277 0.0
C1339 C 0.74961 0.93723 0.52436 0.0
C1340 C 0.49126 0.50582 0.75682 0.0
C1341 C 0.4828 0.47185 0.74438 0.0
H1342 H 0.47082 0.53039 0.78115 0.0
C1343 C 0.45724 0.43073 0.74805 0.0
H1344 H 0.51073 0.53805 0.75399 0.0
C1345 C 0.43557 0.4261 0.76348 0.0
C1346 C 0.43805 0.46332 0.77506 0.0
H1347 H 0.45043 0.4044 0.73853 0.0
H1348 H 0.41285 0.39565 0.76573 0.0
C1349 C 0.46834 0.50179 0.77221 0.0
C1350 C 0.8892 0.26225 1.02684 0.0
C1351 C 0.92591 0.23408 1.03323 0.0
H1352 H 0.86415 0.30016 1.00541 0.0
C1353 C 0.97128 0.23674 1.02588 0.0
H1354 H 0.85449 0.26193 1.03269 0.0
C1355 C 0.97667 0.25708 1.01016 0.0
C1356 C 0.93723 0.27723 1.00224 0.0
H1357 H 1.00032 0.21595 1.03088 0.0
H1358 H 1.00961 0.25151 1.0034 0.0
C1359 C 0.89499 0.2843 1.01132 0.0
C1360 C 0.96199 0.73396 0.76534 0.0
C1361 C 0.9496 0.69436 0.77511 0.0
H1362 H 0.99918 0.75776 0.74362 0.0
C1363 C 0.9772 0.65309 0.77424 0.0
H1364 H 0.94118 0.76633 0.766 0.0
C1365 C 1.01247 0.64937 0.76199 0.0
C1366 C 1.01784 0.68561 0.75009 0.0
H1367 H 0.96834 0.62242 0.7818 0.0
H1368 H 1.03018 0.61566 0.7602 0.0
C1369 C 0.99568 0.72942 0.75272 0.0
C1370 C 0.16781 0.23013 0.51836 0.0
C1371 C 0.21057 0.22581 0.52734 0.0
H1372 H 0.13651 0.25057 0.49512 0.0
C1373 C 0.24963 0.25383 0.52287 0.0
H1374 H 0.1371 0.20889 0.52176 0.0
C1375 C 0.24868 0.27901 0.50782 0.0
C1376 C 0.20901 0.2752 0.49724 0.0
H1377 H 0.28267 0.25123 0.52976 0.0
H1378 H 0.28134 0.29513 0.50336 0.0
C1379 C 0.16732 0.25399 0.50315 0.0
C1380 C 0.6322 0.51263 0.26199 0.0
C1381 C 0.62924 0.47293 0.25152 0.0
H1382 H 0.66321 0.54031 0.28435 0.0
C1383 C 0.63987 0.42785 0.25776 0.0
H1384 H 0.62387 0.54776 0.25727 0.0
C1385 C 0.66057 0.42352 0.27344 0.0
C1386 C 0.67279 0.46454 0.28242 0.0
H1387 H 0.63788 0.39695 0.24979 0.0
H1388 H 0.67439 0.38913 0.27715 0.0
C1389 C 0.6545 0.50851 0.27745 0.0
C1390 C 0.44549 0.98075 0.98867 0.0
C1391 C 0.41263 0.94371 0.98974 0.0
H1392 H 0.48079 1.03677 1.00127 0.0
C1393 C 0.39205 0.93199 1.00517 0.0
H1394 H 0.46163 0.99025 0.97684 0.0
C1395 C 0.40205 0.95962 1.01922 0.0
C1396 C 0.43232 0.99906 1.01774 0.0
H1397 H 0.36584 0.90391 1.00608 0.0
H1398 H 0.38496 0.95142 1.03098 0.0
C1399 C 0.45544 1.008 1.00253 0.0
C1400 C 0.95109 0.4312 0.98563 0.0
C1401 C 0.94494 0.46982 0.97467 0.0
H1402 H 0.96827 0.41011 1.01055 0.0
C1403 C 0.96515 0.51375 0.97838 0.0
H1404 H 0.93534 0.39705 0.98288 0.0
C1405 C 0.9858 0.52056 0.99399 0.0
C1406 C 0.98428 0.48394 1.0059 0.0
H1407 H 0.96055 0.54371 0.97004 0.0
H1408 H 0.99743 0.55586 0.9974 0.0
C1409 C 0.96962 0.43854 1.00142 0.0
C1410 C 0.39325 0.2679 0.73441 0.0
C1411 C 0.42927 0.23875 0.72813 0.0
H1412 H 0.36888 0.30636 0.75572 0.0
C1413 C 0.4744 0.23918 0.73571 0.0
H1414 H 0.35871 0.26892 0.72845 0.0
C1415 C 0.47998 0.25938 0.75138 0.0
C1416 C 0.44106 0.28098 0.75912 0.0
H1417 H 0.5029 0.21716 0.73089 0.0
H1418 H 0.51242 0.25251 0.75829 0.0
C1419 C 0.39934 0.28954 0.74992 0.0
C1420 C 0.67186 0.65462 0.48148 0.0
C1421 C 0.70619 0.69002 0.47948 0.0
H1422 H 0.62083 0.62394 0.4982 0.0
C1423 C 0.70782 0.72825 0.49067 0.0
H1424 H 0.66978 0.62549 0.47275 0.0
C1425 C 0.68131 0.72678 0.50526 0.0
C1426 C 0.65173 0.68799 0.50841 0.0
H1427 H 0.73379 0.75636 0.48908 0.0
H1428 H 0.6877 0.75317 0.51479 0.0
C1429 C 0.64384 0.6541 0.4959 0.0
C1430 C 0.1809 0.91095 0.25657 0.0
C1431 C 0.22718 0.89497 0.25969 0.0
H1432 H 0.13675 0.95391 0.24093 0.0
C1433 C 0.26228 0.89999 0.24736 0.0
H1434 H 0.1536 0.90793 0.26606 0.0
C1435 C 0.25335 0.92812 0.2333 0.0
C1436 C 0.20871 0.94944 0.23136 0.0
H1437 H 0.29823 0.88779 0.2497 0.0
H1438 H 0.28225 0.93684 0.22489 0.0
C1439 C 0.17153 0.93766 0.24232 0.0
C1440 C 0.64306 1.02068 0.9985 0.0
C1441 C 0.64415 0.97898 1.00818 0.0
H1442 H 0.66781 1.05441 0.97606 0.0
C1443 C 0.65823 0.93621 1.00098 0.0
H1444 H 0.63265 1.05415 1.00402 0.0
C1445 C 0.67635 0.93615 0.98485 0.0
C1446 C 0.68248 0.97916 0.97614 0.0
H1447 H 0.65975 0.90392 1.00835 0.0
H1448 H 0.69155 0.90356 0.9801 0.0
C1449 C 0.66299 1.02096 0.98254 0.0
C1450 C 0.46131 0.40359 0.25198 0.0
C1451 C 0.4147 0.38892 0.25521 0.0
H1452 H 0.506 0.44666 0.2366 0.0
C1453 C 0.37926 0.39611 0.24315 0.0
H1454 H 0.48892 0.39881 0.26127 0.0
C1455 C 0.38825 0.4256 0.22946 0.0
C1456 C 0.43343 0.44568 0.22749 0.0
H1457 H 0.34317 0.38453 0.24555 0.0
H1458 H 0.35916 0.43633 0.22144 0.0
C1459 C 0.47083 0.43131 0.23798 0.0
C1460 C 0.94895 0.21749 0.51426 0.0
C1461 C 0.98535 0.18377 0.51477 0.0
H1462 H 0.89 0.24504 0.50065 0.0
C1463 C 0.99557 0.15647 0.50059 0.0
H1464 H 0.94069 0.23882 0.5251 0.0
C1465 C 0.96555 0.15894 0.48669 0.0
C1466 C 0.92571 0.1888 0.4871 0.0
H1467 H 1.02345 0.12989 0.50091 0.0
H1468 H 0.9715 0.13554 0.47621 0.0
C1469 C 0.9195 0.22022 0.50046 0.0
C1470 C 0.17259 0.72555 0.7316 0.0
C1471 C 0.2175 0.72237 0.72394 0.0
H1472 H 0.135 0.74492 0.75374 0.0
C1473 C 0.25434 0.75169 0.72943 0.0
H1474 H 0.14356 0.70345 0.72739 0.0
C1475 C 0.24887 0.77703 0.74429 0.0
C1476 C 0.20699 0.77179 0.75373 0.0
H1477 H 0.2887 0.75053 0.72336 0.0
H1478 H 0.2797 0.79449 0.74956 0.0
C1479 C 0.16758 0.74936 0.74666 0.0
C1480 C 0.64344 0.19847 0.75717 0.0
C1481 C 0.65678 0.16565 0.74494 0.0
H1482 H 0.6658 0.2332 0.77968 0.0
C1483 C 0.69516 0.13501 0.74821 0.0
H1484 H 0.61475 0.22333 0.75487 0.0
C1485 C 0.71889 0.13546 0.76318 0.0
C1486 C 0.71205 0.17338 0.77394 0.0
H1487 H 0.71066 0.11336 0.73864 0.0
H1488 H 0.74851 0.11119 0.76483 0.0
C1489 C 0.6721 0.20337 0.7715 0.0
C1490 C 0.18369 0.43307 0.99605 0.0
C1491 C 0.22758 0.40986 0.99666 0.0
H1492 H 0.13802 0.4836 1.0077 0.0
C1493 C 0.25588 0.41269 1.01103 0.0
H1494 H 0.1618 0.43154 0.98495 0.0
C1495 C 0.24333 0.44397 1.02379 0.0
C1496 C 0.20189 0.47117 1.02221 0.0
H1497 H 0.28997 0.39481 1.01153 0.0
H1498 H 0.26739 0.44948 1.03415 0.0
C1499 C 0.17064 0.46325 1.00888 0.0
C1500 C 0.99442 0.92907 0.25086 0.0
C1501 C 1.00939 0.97445 0.24617 0.0
H1502 H 0.95396 0.88872 0.26839 0.0
C1503 C 1.00629 1.01207 0.25755 0.0
H1504 H 0.99611 0.89988 0.24212 0.0
C1505 C 0.98077 1.00616 0.27236 0.0
C1506 C 0.95959 0.96237 0.2758 0.0
H1507 H 1.01742 1.0475 0.25397 0.0
H1508 H 0.9731 1.03674 0.28005 0.0
C1509 C 0.97013 0.92289 0.26581 0.0
C1510 C 0.48335 0.72828 0.52038 0.0
C1511 C 0.44228 0.7238 0.53031 0.0
H1512 H 0.5095 0.74679 0.49617 0.0
C1513 C 0.40205 0.75099 0.52666 0.0
H1514 H 0.51497 0.70768 0.52321 0.0
C1515 C 0.39971 0.775 0.51145 0.0
C1516 C 0.43715 0.77035 0.49997 0.0
H1517 H 0.37046 0.74834 0.53435 0.0
H1518 H 0.36618 0.79083 0.50773 0.0
C1519 C 0.4803 0.75032 0.50491 0.0
C1520 C 0.42531 0.22794 0.25812 0.0
C1521 C 0.42641 0.19383 0.27092 0.0
H1522 H 0.45224 0.2482 0.23428 0.0
C1523 C 0.46436 0.16174 0.27187 0.0
H1524 H 0.39715 0.25425 0.25758 0.0
C1525 C 0.49706 0.15944 0.25871 0.0
C1526 C 0.49099 0.18875 0.24466 0.0
H1527 H 0.46638 0.13623 0.28197 0.0
H1528 H 0.52311 0.13108 0.25859 0.0
C1529 C 0.45728 0.22521 0.245 0.0
C1530 C 0.74541 0.75397 1.02029 0.0
C1531 C 0.7098 0.72135 1.0244 0.0
H1532 H 0.77054 0.80274 1.00171 0.0
C1533 C 0.66606 0.72295 1.01595 0.0
H1534 H 0.77878 0.75385 1.02702 0.0
C1535 C 0.66125 0.75042 1.00162 0.0
C1536 C 0.69991 0.777 0.99583 0.0
H1537 H 0.63797 0.6982 1.01911 0.0
H1538 H 0.62997 0.74569 0.9939 0.0
C1539 C 0.74023 0.78235 1.00603 0.0
C1540 C 0.16327 0.93029 0.77461 0.0
C1541 C 0.17589 0.9716 0.78339 0.0
H1542 H 0.14472 0.90223 0.7507 0.0
C1543 C 0.16178 1.01595 0.77729 0.0
H1544 H 0.17383 0.8956 0.7792 0.0
C1545 C 0.14352 1.01945 0.76118 0.0
C1546 C 0.14056 0.97874 0.7512 0.0
H1547 H 0.17105 1.04804 0.78393 0.0
H1548 H 0.13814 1.05439 0.75582 0.0
C1549 C 0.14698 0.9339 0.75828 0.0
C1550 C 0.90145 0.4338 0.51983 0.0
C1551 C 0.93655 0.46903 0.52001 0.0
H1552 H 0.86495 0.38269 0.50473 0.0
C1553 C 0.96908 0.47249 0.50678 0.0
H1554 H 0.8768 0.43015 0.53014 0.0
C1555 C 0.9626 0.44572 0.49251 0.0
C1556 C 0.924 0.41466 0.49144 0.0
H1557 H 0.99744 0.49858 0.507 0.0
H1558 H 0.98503 0.45251 0.48177 0.0
C1559 C 0.89527 0.40632 0.50549 0.0
C1560 C 0.50166 0.93728 0.49681 0.0
C1561 C 0.51388 0.98192 0.50297 0.0
H1562 H 0.46463 0.89982 0.47778 0.0
C1563 C 0.51052 1.02199 0.49259 0.0
H1564 H 0.5038 0.90609 0.50472 0.0
C1565 C 0.48611 1.01891 0.47748 0.0
C1566 C 0.46695 0.97538 0.47258 0.0
H1567 H 0.52024 1.05671 0.49723 0.0
H1568 H 0.47717 1.05105 0.47074 0.0
C1569 C 0.47924 0.93387 0.48139 0.0
C1570 C 0.89007 0.77836 0.24788 0.0
C1571 C 0.93113 0.77871 0.25785 0.0
H1572 H 0.8579 0.74878 0.22598 0.0
C1573 C 0.97482 0.76523 0.25104 0.0
H1574 H 0.85604 0.78908 0.253 0.0
C1575 C 0.97596 0.74394 0.23542 0.0
C1576 C 0.93304 0.73398 0.22713 0.0
H1577 H 1.00677 0.76531 0.2586 0.0
H1578 H 1.00898 0.72778 0.23133 0.0
C1579 C 0.89093 0.75538 0.2325 0.0
C1580 C 0.15748 0.1524 0.98029 0.0
C1581 C 0.18685 0.19202 0.9782 0.0
H1582 H 0.10414 0.11996 0.99568 0.0
C1583 C 0.17651 0.23401 0.98688 0.0
H1584 H 0.16469 0.12001 0.97352 0.0
C1585 C 0.14348 0.23343 0.99982 0.0
C1586 C 0.11991 0.1912 1.00382 0.0
H1587 H 0.19873 0.26516 0.98529 0.0
H1588 H 0.14172 0.2636 1.00814 0.0
C1589 C 0.12287 0.15258 0.99285 0.0
C1590 C 0.67979 0.48092 0.75194 0.0
C1591 C 0.70899 0.47906 0.73777 0.0
H1592 H 0.67007 0.45865 0.77715 0.0
C1593 C 0.74557 0.44537 0.73684 0.0
H1594 H 0.65034 0.50574 0.75261 0.0
C1595 C 0.75595 0.41728 0.75081 0.0
C1596 C 0.72982 0.42335 0.76558 0.0
H1597 H 0.76773 0.443 0.72582 0.0
H1598 H 0.78699 0.39445 0.7506 0.0
C1599 C 0.69038 0.45351 0.76581 0.0
C1600 C 1.06718 0.28356 0.44358 0.0
C1601 C 0.10926 0.3126 0.44283 0.0
H1602 H 0.98971 0.27648 0.44363 0.0
C1603 C 0.09798 0.36187 0.44145 0.0
H1604 H 1.07162 0.24554 0.44479 0.0
C1605 C 1.04933 0.38008 0.44105 0.0
C1606 C 1.00731 0.35089 0.44173 0.0
H1607 H 0.12695 0.38705 0.44099 0.0
H1608 H 1.04472 0.41817 0.44027 0.0
C1609 C 1.01867 0.30167 0.44292 0.0
C1610 C 0.12274 0.78662 0.6968 0.0
C1611 C 1.07315 0.77641 0.6972 0.0
H1612 H 0.18031 0.83815 0.6973 0.0
C1613 C 1.04464 0.81885 0.69772 0.0
H1614 H 0.14737 0.7573 0.69666 0.0
C1615 C 1.06382 0.86688 0.69774 0.0
C1616 C 0.11353 0.87695 0.69761 0.0
H1617 H 1.00633 0.81507 0.69826 0.0
H1618 H 1.03916 0.89628 0.69839 0.0
C1619 C 0.14195 0.83451 0.69719 0.0
C1620 C 0.53434 0.89235 0.93963 0.0
C1621 C 0.49243 0.86327 0.94131 0.0
H1622 H 0.61203 0.89916 0.93853 0.0
C1623 C 0.50405 0.81437 0.94325 0.0
H1624 H 0.52956 0.93027 0.9382 0.0
C1625 C 0.55252 0.79629 0.94373 0.0
C1626 C 0.59453 0.82501 0.94197 0.0
H1627 H 0.47521 0.78945 0.9447 0.0
H1628 H 0.55695 0.75847 0.94559 0.0
C1629 C 0.58311 0.87411 0.93979 0.0
C1630 C 0.53212 0.31269 0.19387 0.0
C1631 C 0.56174 0.27117 0.19528 0.0
H1632 H 0.52445 0.39008 0.19346 0.0
C1633 C 0.61055 0.28285 0.1975 0.0
H1634 H 0.49419 0.30769 0.19231 0.0
C1635 C 0.62808 0.33119 0.19844 0.0
C1636 C 0.59879 0.37283 0.19694 0.0
H1637 H 0.63577 0.25425 0.19891 0.0
H1638 H 0.66585 0.33583 0.20052 0.0
C1639 C 0.54981 0.36135 0.19451 0.0
C1640 C 0.07774 0.78359 0.31047 0.0
C1641 C 1.03505 0.81172 0.31144 0.0
H1642 H 0.15535 0.77828 0.31001 0.0
C1643 C 1.04511 0.8611 0.31289 0.0
H1644 H 0.07414 0.74553 0.30919 0.0
C1645 C 0.09323 0.88035 0.31296 0.0
C1646 C 0.13587 0.85213 0.31202 0.0
H1647 H 1.01562 0.88556 0.31358 0.0
H1648 H 0.09692 0.91854 0.31366 0.0
C1649 C 0.12581 0.80271 0.31096 0.0
C1650 C 0.59804 0.86923 0.56013 0.0
C1651 C 0.54887 0.87959 0.55726 0.0
H1652 H 0.65528 0.81709 0.5626 0.0
C1653 C 0.52132 0.83704 0.5551 0.0
H1654 H 0.62234 0.89862 0.56173 0.0
C1655 C 0.54048 0.7891 0.55585 0.0
C1656 C 0.58945 0.7785 0.55858 0.0
H1657 H 0.4836 0.84061 0.55263 0.0
H1658 H 0.51642 0.75995 0.55382 0.0
C1659 C 0.61737 0.82099 0.56062 0.0
C1660 C 0.60796 0.38104 0.8158 0.0
C1661 C 0.65047 0.35265 0.81452 0.0
H1662 H 0.53004 0.38657 0.81623 0.0
C1663 C 0.63996 0.30356 0.81264 0.0
H1664 H 0.61196 0.41905 0.81712 0.0
C1665 C 0.59192 0.2847 0.81185 0.0
C1666 C 0.54929 0.31271 0.81321 0.0
H1667 H 0.66934 0.27912 0.81144 0.0
H1668 H 0.58832 0.24682 0.81004 0.0
C1669 C 0.55955 0.36201 0.81532 0.0
C1670 C 0.09495 0.33174 1.05575 0.0
C1671 C 1.06631 0.28958 1.05737 0.0
H1672 H 0.1014 0.40908 1.05458 0.0
C1673 C 1.01702 0.30088 1.05919 0.0
H1674 H 0.13296 0.32745 1.05414 0.0
C1675 C 0.99835 0.34929 1.05908 0.0
C1676 C 1.02709 0.39139 1.05758 0.0
H1677 H 0.99205 0.27205 1.06039 0.0
H1678 H 0.9602 0.35362 1.06018 0.0
C1679 C 0.07646 0.38015 1.05602 0.0
C1680 C 1.05426 0.78331 0.80534 0.0
C1681 C 0.09636 0.81202 0.80675 0.0
H1682 H 0.97698 0.77695 0.80396 0.0
C1683 C 0.08542 0.86133 0.80806 0.0
H1684 H 1.05854 0.74531 0.80403 0.0
C1685 C 1.03692 0.87983 0.80779 0.0
C1686 C 0.99486 0.85088 0.80653 0.0
H1687 H 0.11452 0.8863 0.80888 0.0
H1688 H 1.03246 0.91794 0.80848 0.0
C1689 C 1.00593 0.80172 0.80538 0.0
C1690 C 0.10562 0.28434 0.55871 0.0
C1691 C 1.05832 0.27122 0.56317 0.0
H1692 H 0.15892 0.33855 0.55404 0.0
C1693 C 1.02921 0.31229 0.56654 0.0
H1694 H 0.13015 0.25651 0.55539 0.0
C1695 C 1.0461 0.3615 0.56581 0.0
C1696 C 0.09374 0.37434 0.56135 0.0
H1697 H 0.99229 0.3065 0.56982 0.0
H1698 H 1.02108 0.38963 0.56856 0.0
C1699 C 0.1223 0.33316 0.55779 0.0
C1700 C 0.59675 0.35556 0.30753 0.0
C1701 C 0.6079 0.30629 0.30735 0.0
H1702 H 0.54375 0.4118 0.30726 0.0
C1703 C 0.56597 0.27697 0.30744 0.0
H1704 H 0.62564 0.38076 0.30713 0.0
C1705 C 0.51745 0.29505 0.3078 0.0
C1706 C 0.50633 0.34437 0.30774 0.0
H1707 H 0.57055 0.23884 0.3071 0.0
H1708 H 0.48848 0.26984 0.30768 0.0
C1709 C 0.54828 0.37365 0.30755 0.0
C1710 C 0.63698 0.83117 1.06444 0.0
C1711 C 0.60825 0.87284 1.06191 0.0
H1712 H 0.64319 0.75431 1.06717 0.0
C1713 C 0.55918 0.86167 1.05971 0.0
H1714 H 0.67494 0.83573 1.06606 0.0
C1715 C 0.54104 0.81324 1.05969 0.0
C1716 C 0.56987 0.77157 1.06223 0.0
H1717 H 0.53447 0.89044 1.05737 0.0
H1718 H 0.50335 0.80851 1.05747 0.0
C1719 C 0.61859 0.78296 1.0649 0.0
C1720 C 0.10743 0.37316 0.94557 0.0
C1721 C 0.14953 0.34424 0.94724 0.0
H1722 H 1.02962 0.37978 0.94468 0.0
C1723 C 0.13811 0.29542 0.94945 0.0
H1724 H 0.11202 0.41106 0.94402 0.0
C1725 C 0.08976 0.27721 0.95007 0.0
C1726 C 1.04758 0.30573 0.94827 0.0
H1727 H 0.16698 0.27073 0.95117 0.0
H1728 H 0.08557 0.23945 0.95215 0.0
C1729 C 1.05871 0.35482 0.94592 0.0
C1730 C 0.50595 0.34239 0.68867 0.0
C1731 C 0.53378 0.3835 0.6928 0.0
H1732 H 0.50059 0.26588 0.68468 0.0
C1733 C 0.58169 0.37129 0.69696 0.0
H1734 H 0.46899 0.34763 0.68533 0.0
C1735 C 0.59951 0.32263 0.69725 0.0
C1736 C 0.57167 0.28148 0.69309 0.0
H1737 H 0.60575 0.39951 0.70047 0.0
H1738 H 0.63621 0.31731 0.70091 0.0
C1739 C 0.52421 0.29392 0.6885 0.0
C1740 C 0.59471 0.8773 0.4464 0.0
C1741 C 0.63634 0.84734 0.44718 0.0
H1742 H 0.51717 0.88612 0.44601 0.0
C1743 C 0.62346 0.79835 0.44833 0.0
H1744 H 0.60006 0.91529 0.4457 0.0
C1745 C 0.57432 0.78127 0.44872 0.0
C1746 C 0.53268 0.81108 0.44776 0.0
H1747 H 0.6517 0.77244 0.44927 0.0
H1748 H 0.56905 0.74334 0.44986 0.0
C1749 C 0.54547 0.86015 0.44655 0.0
C1750 C 0.0963 0.87057 0.18891 0.0
C1751 C 1.04771 0.88133 0.19263 0.0
H1752 H 0.15277 0.81792 0.18579 0.0
C1753 C 1.02028 0.83921 0.19578 0.0
H1754 H 0.12033 0.89969 0.18639 0.0
C1755 C 1.0391 0.79121 0.19522 0.0
C1756 C 0.08743 0.78019 0.19155 0.0
H1757 H 0.98302 0.8432 0.19893 0.0
H1758 H 1.01541 0.76232 0.19814 0.0
C1759 C 0.11529 0.82224 0.18853 0.0
C1760 C 0.33034 0.34679 0.38957 0.0
C1761 C 0.29694 0.30971 0.39346 0.0
H1762 H 0.36713 0.39153 0.37134 0.0
C1763 C 0.27537 0.29094 0.37872 0.0
H1764 H 0.34877 0.36367 0.39979 0.0
C1765 C 0.28614 0.30767 0.36187 0.0
C1766 C 0.31959 0.34475 0.358 0.0
H1767 H 0.24945 0.2628 0.38014 0.0
H1768 H 0.26766 0.29088 0.35164 0.0
C1769 C 0.34122 0.36338 0.37273 0.0
C1770 C 0.07628 0.11133 0.62635 0.0
C1771 C 0.08444 0.08147 0.61225 0.0
H1772 H 0.08446 0.12605 0.65283 0.0
C1773 C 0.11204 1.04029 0.61664 0.0
H1774 H 1.05586 0.1435 0.62451 0.0
C1775 C 0.12968 1.03018 0.63347 0.0
C1776 C 0.12104 1.06007 0.64759 0.0
H1777 H 0.12038 1.01513 0.60691 0.0
H1778 H 0.15009 0.99802 0.63538 0.0
C1779 C 0.09332 0.10099 0.64313 0.0
C1780 C 0.33277 0.8426 0.88062 0.0
C1781 C 0.30086 0.8391 0.89449 0.0
H1782 H 0.3494 0.829 0.85453 0.0
C1783 C 0.25714 0.81603 0.88992 0.0
H1784 H 0.36708 0.85905 0.88262 0.0
C1785 C 0.24642 0.79878 0.87312 0.0
C1786 C 0.2785 0.80273 0.85924 0.0
H1787 H 0.23027 0.81139 0.89946 0.0
H1788 H 0.21214 0.78238 0.87103 0.0
C1789 C 0.3222 0.82514 0.86396 0.0
C1790 C 0.61113 1.03982 0.14352 0.0
C1791 C 0.5822 0.08039 0.14737 0.0
H1792 H 0.64996 0.99707 1.12525 0.0
C1793 C 0.57215 0.10843 0.13291 0.0
H1794 H 0.62084 1.01611 0.15359 0.0
C1795 C 0.58895 0.09704 1.11626 0.0
C1796 C 0.61804 1.05675 1.11233 0.0
H1797 H 0.55057 0.13996 0.1344 0.0
H1798 H 0.57878 0.1207 1.10622 0.0
C1799 C 0.62839 1.02859 0.12679 0.0
C1800 C 0.30132 0.84774 0.39358 0.0
C1801 C 0.34219 0.81971 0.398 0.0
H1802 H 0.25917 0.88561 0.37482 0.0
C1803 C 0.37218 0.81109 0.38391 0.0
H1804 H 0.27624 0.85663 0.40332 0.0
C1805 C 0.36209 0.82829 0.36711 0.0
C1806 C 0.32109 0.85587 0.36263 0.0
H1807 H 0.40437 0.79066 0.38581 0.0
H1808 H 0.38745 0.81995 0.35741 0.0
C1809 C 0.29125 0.86501 0.37674 0.0
C1810 C 0.58603 0.10874 0.62807 0.0
C1811 C 0.56465 0.0892 0.64273 0.0
H1812 H 0.58999 0.11424 0.60105 0.0
C1813 C 0.52691 1.0567 0.63883 0.0
H1814 H 0.61494 0.13374 0.62956 0.0
C1815 C 0.51218 1.04486 0.62188 0.0
C1816 C 0.53365 1.06473 0.60723 0.0
H1817 H 0.50825 1.03979 0.64905 0.0
H1818 H 0.48337 1.01978 0.62032 0.0
C1819 C 0.5712 0.0972 0.61122 0.0
C1820 C 0.3237 0.31929 0.86845 0.0
C1821 C 0.36599 0.29376 0.86402 0.0
H1822 H 0.27928 0.3543 0.88701 0.0
C1823 C 0.39595 0.28553 0.8782 0.0
H1824 H 0.29829 0.32702 0.85869 0.0
C1825 C 0.38454 0.30159 0.89508 0.0
C1826 C 0.3422 0.32748 0.89939 0.0
H1827 H 0.42903 0.2666 0.87632 0.0
H1828 H 0.40972 0.29361 0.90489 0.0
C1829 C 0.31239 0.33535 0.88521 0.0
C1830 C 1.03233 1.06656 1.11163 0.0
C1831 C 1.07009 0.09916 1.10769 0.0
H1832 H 0.98843 1.02925 0.13002 0.0
C1833 C 0.09129 0.11834 1.12241 0.0
H1834 H 1.01368 1.0499 1.10141 0.0
C1835 C 0.07637 0.10603 0.13932 0.0
C1836 C 1.03859 0.0735 0.14327 0.0
H1837 H 0.12021 0.14338 1.12095 0.0
H1838 H 0.09514 0.1226 0.14953 0.0
C1839 C 1.01728 1.05436 0.12855 0.0
C1840 C 0.81322 0.85306 0.88666 0.0
C1841 C 0.78054 0.81555 0.89076 0.0
H1842 H 0.84953 0.89728 0.86816 0.0
C1843 C 0.7601 0.79502 0.87611 0.0
H1844 H 0.8308 0.87124 0.89679 0.0
C1845 C 0.77141 0.81036 0.85914 0.0
C1846 C 0.80402 0.84798 0.85506 0.0
H1847 H 0.73487 0.76634 0.87769 0.0
H1848 H 0.75397 0.79213 0.84899 0.0
C1849 C 0.82431 0.86857 0.86972 0.0
C1850 C 0.84876 0.33954 0.37906 0.0
C1851 C 0.81653 0.33686 0.39284 0.0
H1852 H 0.86509 0.326 0.35293 0.0
C1853 C 0.77235 0.31483 0.38825 0.0
H1854 H 0.88341 0.35523 0.38111 0.0
C1855 C 0.76148 0.29755 0.3715 0.0
C1856 C 0.79371 0.3008 0.35768 0.0
H1857 H 0.74529 0.31083 0.39775 0.0
H1858 H 0.72687 0.28183 0.36939 0.0
C1859 C 0.83785 0.32245 0.36238 0.0
C1860 C 0.8111 0.33856 0.87655 0.0
C1861 C 0.84191 0.3334 0.86249 0.0
H1862 H 0.796 0.32703 0.90286 0.0
C1863 C 0.88471 0.30808 0.86674 0.0
H1864 H 0.7776 0.35687 0.87477 0.0
C1865 C 0.89554 0.28993 0.88344 0.0
C1866 C 0.86463 0.29561 0.89752 0.0
H1867 H 0.91063 0.30207 0.85699 0.0
H1868 H 0.92897 0.27153 0.88529 0.0
C1869 C 0.82201 0.32083 0.89317 0.0
C1870 C 0.7952 0.83773 0.38369 0.0
C1871 C 0.82724 0.83382 0.39749 0.0
H1872 H 0.77886 0.82564 0.35747 0.0
C1873 C 0.87109 0.81122 0.39276 0.0
H1874 H 0.76081 0.85397 0.38581 0.0
C1875 C 0.88184 0.79455 0.37591 0.0
C1876 C 0.84981 0.79894 0.36208 0.0
H1877 H 0.89801 0.80629 0.40225 0.0
H1878 H 0.91622 0.77836 0.37374 0.0
C1879 C 0.80597 0.82116 0.3669 0.0
C1880 C 0.56963 0.59145 0.14364 0.0
C1881 C 0.60698 0.55852 0.14767 0.0
H1882 H 0.52534 0.62786 1.12522 0.0
C1883 C 0.62709 0.53754 0.13304 0.0
H1884 H 0.55178 0.60937 0.15378 0.0
C1885 C 0.61143 0.54866 1.1161 0.0
C1886 C 0.57398 0.58158 1.11211 0.0
H1887 H 0.65558 0.51204 0.1346 0.0
H1888 H 0.62923 0.53084 1.10593 0.0
C1889 C 0.55388 0.60239 0.12675 0.0
C1890 C 0.10798 0.55302 0.64358 0.0
C1891 C 1.07166 0.5872 0.64752 0.0
H1892 H 0.1508 0.51483 0.62518 0.0
C1893 C 1.05219 0.60851 0.6328 0.0
H1894 H 0.12526 0.5347 0.65379 0.0
C1895 C 1.06747 0.5969 0.61592 0.0
C1896 C 0.1037 0.56271 0.61195 0.0
H1897 H 1.02451 0.63491 0.63426 0.0
H1898 H 1.05017 0.61531 0.60573 0.0
C1899 C 0.12317 0.54126 0.62666 0.0
C1900 C 1.06615 0.63074 0.12988 0.0
C1901 C 1.07036 0.59509 0.14258 0.0
H1902 H 1.04751 0.6513 1.10444 0.0
C1903 C 1.05692 0.54919 0.13659 0.0
H1904 H 0.07609 0.66676 0.13297 0.0
C1905 C 1.03951 0.54008 1.11976 0.0
C1906 C 1.03465 0.57589 1.10713 0.0
H1907 H 1.05988 0.51938 0.14507 0.0
H1908 H 1.02989 0.50401 1.11663 0.0
C1909 C 1.04925 0.6216 1.11301 0.0
C1910 C 0.55672 0.61709 0.63834 0.0
C1911 C 0.54292 0.57088 0.64409 0.0
H1912 H 0.58303 0.66343 0.61847 0.0
C1913 C 0.5486 0.53559 0.63145 0.0
H1914 H 0.55419 0.64643 0.64695 0.0
C1915 C 0.56612 0.54559 0.61469 0.0
C1916 C 0.57893 0.5919 0.60882 0.0
H1917 H 0.53951 0.49926 0.6345 0.0
H1918 H 0.56963 0.51613 0.60617 0.0
C1919 C 0.57376 0.62714 0.62152 0.0
C1920 C 0.39511 0.15811 0.48282 0.0
C1921 C 0.35259 0.18274 0.48762 0.0
H1922 H 0.4563 0.1138 0.48921 0.0
C1923 C 0.34429 0.1754 0.50533 0.0
H1924 H 0.40643 0.16081 0.46997 0.0
C1925 C 0.37399 0.14733 0.51695 0.0
C1926 C 0.41648 0.12269 0.51216 0.0
H1927 H 0.31327 0.19209 0.51056 0.0
H1928 H 0.36286 0.14498 0.52983 0.0
C1929 C 0.42484 0.12996 0.49443 0.0
C1930 C 0.28312 0.13355 0.7726 0.0
C1931 C 0.30782 0.17644 0.76821 0.0
H1932 H 0.2377 0.0737 0.76576 0.0
C1933 C 0.30013 0.18625 0.7506 0.0
H1934 H 0.28529 0.12142 0.78539 0.0
C1935 C 0.27221 0.15745 0.73872 0.0
C1936 C 0.2476 0.11456 0.74307 0.0
H1937 H 0.31593 0.21817 0.7457 0.0
H1938 H 0.26946 0.16997 0.72599 0.0
C1939 C 0.25483 0.10488 0.76074 0.0
C1940 C 0.23313 1.01907 1.01735 0.0
C1941 C 0.18939 1.04242 1.01301 0.0
H1942 H 0.29445 0.97533 1.01047 0.0
C1943 C 0.17888 1.03357 0.99554 0.0
H1944 H 0.2459 1.02261 1.02999 0.0
C1945 C 0.20787 1.00557 0.98375 0.0
C1946 C 0.25175 0.9826 0.98803 0.0
H1947 H 0.14637 1.04855 0.99063 0.0
H1948 H 0.19512 1.00203 0.9711 0.0
C1949 C 0.26222 0.99105 1.00555 0.0
C1950 C 0.37735 0.97594 0.24964 0.0
C1951 C 0.38013 0.97795 0.26771 0.0
H1952 H 0.40076 0.99754 0.22455 0.0
C1953 C 0.41708 1.01008 0.27254 0.0
H1954 H 0.35107 0.9526 0.24433 0.0
C1955 C 0.44689 1.03678 0.2606 0.0
C1956 C 0.44388 1.03484 0.24253 0.0
H1957 H 0.42354 1.01495 0.28571 0.0
H1958 H 0.47384 1.05953 0.26587 0.0
C1959 C 0.40718 1.0025 0.23772 0.0
C1960 C 0.70635 0.99229 0.76449 0.0
C1961 C 0.75041 0.96996 0.76011 0.0
H1962 H 0.6442 1.03473 0.75759 0.0
C1963 C 0.75989 0.97759 0.74246 0.0
H1964 H 0.69437 0.98937 0.77726 0.0
C1965 C 0.72979 1.00415 0.73056 0.0
C1966 C 0.6857 1.02637 0.73494 0.0
H1967 H 0.79223 0.96268 0.73747 0.0
H1968 H 0.74207 1.00755 0.71784 0.0
C1969 C 0.67624 1.01885 0.75259 0.0
C1970 C 0.90964 0.99131 0.52291 0.0
C1971 C 0.94279 1.02741 0.51788 0.0
H1972 H 0.85727 0.93676 0.5168 0.0
C1973 C 0.94307 1.03056 0.49975 0.0
H1974 H 0.90537 0.98474 0.53612 0.0
C1975 C 0.9143 1.00184 0.48806 0.0
C1976 C 0.88088 0.96596 0.4931 0.0
H1977 H 0.96688 1.05627 0.4942 0.0
H1978 H 0.91851 1.00847 0.47486 0.0
C1979 C 0.88067 0.96277 0.51123 0.0
C1980 C 0.90627 0.11005 0.25501 0.0
C1981 C 0.91488 0.12049 0.2375 0.0
H1982 H 0.87458 0.12604 0.27946 0.0
C1983 C 0.89124 0.1639 0.23311 0.0
H1984 H 0.92221 0.07814 0.25996 0.0
C1985 C 0.86275 0.19252 0.24488 0.0
C1986 C 0.85396 0.182 0.26238 0.0
H1987 H 0.89516 0.17688 0.22048 0.0
H1988 H 0.84774 0.22501 0.24005 0.0
C1989 C 0.87779 0.13868 0.26678 0.0
C1990 C 0.75512 0.10073 1.00081 0.0
C1991 C 0.74614 0.11128 1.01824 0.0
H1992 H 0.78698 0.11705 0.97635 0.0
C1993 C 0.76764 0.15574 1.02241 0.0
H1994 H 0.73991 1.06843 0.99605 0.0
C1995 C 0.79476 0.18521 1.01049 0.0
C1996 C 0.80455 0.17431 0.99315 0.0
H1997 H 0.76276 0.16901 1.03492 0.0
H1998 H 0.80803 0.21851 1.01509 0.0
C1999 C 0.7828 0.12993 0.98895 0.0
C2000 C 0.8616 0.64844 0.98175 0.0
C2001 C 0.84046 0.69351 0.98575 0.0
H2002 H 0.903 0.58581 0.98897 0.0
C2003 C 0.85114 0.70457 1.00305 0.0
H2004 H 0.85672 0.63497 0.96927 0.0
C2005 C 0.87862 0.6751 1.01497 0.0
C2006 C 0.89958 0.62999 1.01104 0.0
H2007 H 0.83848 0.73825 1.00763 0.0
H2008 H 0.88396 0.68881 1.0274 0.0
C2009 C 0.88928 0.61894 0.99367 0.0
C2010 C 0.7377 0.60584 0.26037 0.0
C2011 C 0.73106 0.61351 0.24254 0.0
H2012 H 0.76747 0.62479 0.28489 0.0
C2013 C 0.75705 0.65521 0.23767 0.0
H2014 H 0.72012 0.57543 0.26575 0.0
C2015 C 0.78545 0.68475 0.24923 0.0
C2016 C 0.79201 0.6772 0.26706 0.0
H2017 H 0.75519 0.66611 0.22474 0.0
H2018 H 0.80241 0.71557 0.24389 0.0
C2019 C 0.76609 0.63542 0.27194 0.0
C2020 C 0.77668 0.47682 0.50581 0.0
C2021 C 0.7698 0.47467 0.48787 0.0
H2022 H 0.75837 0.50367 0.53076 0.0
C2023 C 0.73098 0.50499 0.4832 0.0
H2024 H 0.80466 0.45508 0.51102 0.0
C2025 C 0.70319 0.53375 0.49511 0.0
C2026 C 0.71028 0.53618 0.51303 0.0
H2027 H 0.72136 0.50674 0.47017 0.0
H2028 H 0.67438 0.55449 0.48996 0.0
C2029 C 0.74889 0.5056 0.51771 0.0
C2030 C 0.88049 0.47907 0.75005 0.0
C2031 C 0.88912 0.47418 0.76786 0.0
H2032 H 0.89837 0.50753 0.7252 0.0
C2033 C 0.93081 0.50034 0.77233 0.0
H2034 H 0.85005 0.46063 0.74501 0.0
C2035 C 0.95964 0.52802 0.76041 0.0
C2036 C 0.95102 0.53324 0.74263 0.0
H2037 H 0.94189 0.49961 0.78524 0.0
H2038 H 0.99045 0.54567 0.76548 0.0
C2039 C 0.90944 0.50678 0.7381 0.0
C2040 C 0.23529 0.51276 0.26784 0.0
C2041 C 0.26564 0.47423 0.26293 0.0
H2042 H 0.18597 0.57008 0.26142 0.0
C2043 C 0.2644 0.46976 0.24487 0.0
H2044 H 0.23249 0.52056 0.28099 0.0
C2045 C 0.23691 0.49943 0.23308 0.0
C2046 C 0.20678 0.53806 0.23794 0.0
H2047 H 0.2853 0.44167 0.23943 0.0
H2048 H 0.23966 0.49152 0.21993 0.0
C2049 C 0.20776 0.54253 0.25602 0.0
C2050 C 0.45683 0.52172 1.00028 0.0
C2051 C 0.4512 0.52479 1.01827 0.0
H2052 H 0.43682 0.49394 0.97565 0.0
C2053 C 0.41279 0.49467 1.02346 0.0
H2054 H 0.4849 0.54248 0.99467 0.0
C2055 C 0.38397 0.46566 1.01194 0.0
C2056 C 0.3897 0.46268 0.99393 0.0
H2057 H 0.40415 0.49341 1.03659 0.0
H2058 H 0.35607 0.44457 1.01752 0.0
C2059 C 0.42824 0.49257 0.98879 0.0
C2060 C 0.38393 0.66466 0.73547 0.0
C2061 C 0.40421 0.61922 0.7394 0.0
H2062 H 0.34401 0.72772 0.7428 0.0
C2063 C 0.39269 0.60711 0.7566 0.0
H2064 H 0.39038 0.67909 0.72316 0.0
C2065 C 0.36427 0.63601 0.76838 0.0
C2066 C 0.34373 0.68141 0.76438 0.0
H2067 H 0.40609 0.57368 0.76128 0.0
H2068 H 0.35842 0.62188 0.78076 0.0
C2069 C 0.35585 0.69358 0.74727 0.0
C2070 C 0.26786 0.64807 0.52246 0.0
C2071 C 0.22586 0.62236 0.51759 0.0
H2072 H 0.32808 0.69425 0.51639 0.0
C2073 C 0.21832 0.63009 0.49978 0.0
H2074 H 0.27872 0.64581 0.53537 0.0
C2075 C 0.24791 0.65923 0.48831 0.0
C2076 C 0.28988 0.68494 0.49315 0.0
H2077 H 0.18756 0.6133 0.49433 0.0
H2078 H 0.23694 0.66166 0.47542 0.0
C2079 C 0.29754 0.67715 0.51096 0.0
C2080 C 1.07293 1.03831 0.39333 0.0
C2081 C 1.0723 0.08825 0.3937 0.0
H2082 H 0.08847 0.97806 0.37824 0.0
C2083 C 1.06057 0.11223 0.37883 0.0
H2084 H 0.07821 1.01759 0.40456 0.0
C2085 C 1.06933 0.08985 0.36364 0.0
C2086 C 0.08621 1.04289 0.36367 0.0
H2087 H 1.0553 0.15033 0.37881 0.0
H2088 H 1.07125 0.11167 0.35253 0.0
C2089 C 0.07923 1.01541 0.37812 0.0
C2090 C 0.37288 0.83402 0.64261 0.0
C2091 C 0.32348 0.83644 0.64525 0.0
H2092 H 0.42783 0.84153 0.62443 0.0
C2093 C 0.2932 0.82389 0.63201 0.0
H2094 H 0.3977 0.84097 0.65261 0.0
C2095 C 0.31042 0.82631 0.61571 0.0
C2096 C 0.35809 0.83905 0.61302 0.0
H2097 H 0.25504 0.82223 0.63389 0.0
H2098 H 0.28491 0.82716 0.6056 0.0
C2099 C 0.3903 0.83451 0.62633 0.0
C2100 C 0.32005 0.99797 0.82442 0.0
C2101 C 0.36276 0.97778 0.81848 0.0
H2102 H 0.27519 1.00805 0.84544 0.0
C2103 C 0.38081 0.93758 0.82676 0.0
H2104 H 0.30326 1.02762 0.81813 0.0
C2105 C 0.36545 0.92744 0.8429 0.0
C2106 C 0.32992 0.95546 0.85031 0.0
H2107 H 0.4121 0.91951 0.82208 0.0
H2108 H 0.3856 0.90218 0.85023 0.0
C2109 C 0.3037 0.98677 0.84029 0.0
C2110 C 0.40369 1.0612 1.08068 0.0
C2111 C 0.41135 0.10404 1.07199 0.0
H2112 H 0.41005 1.02537 1.1039 0.0
C2113 C 0.44883 0.13346 1.07734 0.0
H2114 H 0.37685 1.03611 1.07676 0.0
C2115 C 0.46799 0.12732 1.09326 0.0
C2116 C 0.45078 0.09088 1.10363 0.0
H2117 H 0.45821 0.16508 1.07037 0.0
H2118 H 0.49182 0.15413 1.09809 0.0
C2119 C 0.42289 1.05493 1.09651 0.0
C2120 C 1.0276 0.99586 0.87599 0.0
C2121 C 1.02658 1.02587 0.862 0.0
H2122 H 1.03495 0.99261 0.90222 0.0
C2123 C 1.05303 1.06807 0.86235 0.0
H2124 H 1.00963 0.96184 0.87575 0.0
C2125 C 1.06962 0.08518 0.87758 0.0
C2126 C 1.05692 1.06142 0.89241 0.0
H2127 H 1.05469 0.09112 0.85153 0.0
H2128 H 0.08422 0.12073 0.87796 0.0
C2129 C 1.04275 1.01362 0.89125 0.0
C2130 C 0.91168 1.05521 0.6787 0.0
C2131 C 0.91453 0.09981 0.68647 0.0
H2132 H 0.92464 1.01727 0.65637 0.0
C2133 C 0.9526 0.12974 0.682 0.0
H2134 H 0.885 1.02949 0.68236 0.0
C2135 C 0.97547 0.12291 0.66674 0.0
C2136 C 0.9614 0.08516 0.65646 0.0
H2137 H 0.95809 0.16293 0.68849 0.0
H2138 H 0.99853 0.15065 0.66201 0.0
C2139 C 0.93463 1.04813 0.66356 0.0
C2140 C 0.84512 0.98129 0.34838 0.0
C2141 C 0.81152 0.9537 0.35698 0.0
H2142 H 0.86141 1.01835 0.32621 0.0
C2143 C 0.77732 0.92865 0.34776 0.0
H2144 H 0.87292 1.00025 0.35489 0.0
C2145 C 0.77126 0.9383 0.33084 0.0
C2146 C 0.79744 0.97519 0.32333 0.0
H2147 H 0.75208 0.90545 0.35391 0.0
H2148 H 0.74154 0.92213 0.32443 0.0
C2149 C 0.83839 0.99168 0.33163 0.0
C2150 C 0.85878 0.80544 0.13796 0.0
C2151 C 0.82985 0.82628 0.15027 0.0
H2152 H 0.86927 0.79836 1.11167 0.0
C2153 C 0.78103 0.83093 0.14684 0.0
H2154 H 0.89576 0.79735 0.14053 0.0
C2155 C 0.76567 0.83109 0.13038 0.0
C2156 C 0.79909 0.82593 1.11742 0.0
H2157 H 0.75634 0.84376 0.15615 0.0
H2158 H 0.72993 0.84377 0.12804 0.0
C2159 C 0.84366 0.80616 1.12137 0.0
C2160 C 0.82467 0.50095 0.93012 0.0
C2161 C 0.78035 0.48601 0.93645 0.0
H2162 H 0.87003 0.50258 0.90898 0.0
C2163 C 0.75935 0.44527 0.92956 0.0
H2164 H 0.84353 0.53077 0.93542 0.0
C2165 C 0.77453 0.42928 0.91401 0.0
C2166 C 0.81157 0.45314 0.9057 0.0
H2167 H 0.72661 0.43112 0.93469 0.0
H2168 H 0.75318 0.40314 0.90758 0.0
C2169 C 0.84015 0.48464 0.91474 0.0
C2170 C 0.95532 0.52738 0.1534 0.0
C2171 C 0.92637 0.5605 0.14503 0.0
H2172 H 0.97592 0.49755 0.17676 0.0
C2173 C 0.90482 0.59661 0.1544 0.0
H2174 H 0.9745 0.50031 0.14664 0.0
C2175 C 0.90479 0.59428 0.17167 0.0
C2176 C 0.92489 0.55477 0.17993 0.0
H2177 H 0.8831 0.6238 0.14865 0.0
H2178 H 0.8828 0.61988 0.17807 0.0
C2179 C 0.95619 0.52586 0.17077 0.0
C2180 C 0.87477 0.42681 0.34245 0.0
C2181 C 0.83973 0.45256 0.35108 0.0
H2182 H 0.91474 0.42077 0.31992 0.0
C2183 C 0.80805 0.48095 0.34194 0.0
H2184 H 0.89861 0.4031 0.34903 0.0
C2185 C 0.81802 0.49191 0.32543 0.0
C2186 C 0.86015 0.47494 0.31796 0.0
H2187 H 0.77961 0.50031 0.34797 0.0
H2188 H 0.79662 0.51935 0.31966 0.0
C2189 C 0.88394 0.4369 0.32573 0.0
C2190 C 0.71662 0.55621 0.65785 0.0
C2191 C 0.69195 0.59463 0.65069 0.0
H2192 H 0.75776 0.53195 0.67821 0.0
C2193 C 0.67441 0.63016 0.66132 0.0
H2194 H 0.72943 0.52697 0.65039 0.0
C2195 C 0.69106 0.63299 0.67769 0.0
C2196 C 0.72647 0.60121 0.68324 0.0
H2197 H 0.65241 0.65864 0.6565 0.0
H2198 H 0.68201 0.66402 0.68496 0.0
C2199 C 0.73306 0.55909 0.67415 0.0
C2200 C 0.38486 0.71899 0.35146 0.0
C2201 C 0.35064 0.69873 0.3621 0.0
H2202 H 0.4108 0.72449 0.32653 0.0
C2203 C 0.30897 0.68009 0.35504 0.0
H2204 H 0.4161 0.73632 0.35645 0.0
C2205 C 0.30629 0.67285 0.33796 0.0
C2206 C 0.34607 0.68249 0.3278 0.0
H2207 H 0.28083 0.66544 0.36269 0.0
H2208 H 0.27618 0.65271 0.3335 0.0
C2209 C 0.38166 0.71236 0.33428 0.0
C2210 C 0.18826 0.63337 1.07323 0.0
C2211 C 0.22423 0.60136 1.06841 0.0
H2212 H 0.14544 0.65763 1.09356 0.0
C2213 C 0.22733 0.55788 1.07705 0.0
H2214 H 0.18212 0.66564 1.06618 0.0
C2215 C 0.20663 0.55338 1.0927 0.0
C2216 C 0.18186 0.59191 1.09962 0.0
H2217 H 0.2523 0.5306 1.07337 0.0
H2218 H 0.21687 0.52296 1.10015 0.0
C2219 C 0.16743 0.62892 1.08897 0.0
C2220 C 0.33489 0.49711 0.83245 0.0
C2221 C 0.29253 0.48009 0.82524 0.0
H2222 H 0.37535 0.50315 0.85466 0.0
C2223 C 0.27011 0.44074 0.83268 0.0
H2224 H 0.35481 0.52599 0.82692 0.0
C2225 C 0.2816 0.42811 0.849 0.0
C2226 C 0.31689 0.45342 0.8576 0.0
H2227 H 0.23922 0.42463 0.82696 0.0
H2228 H 0.25917 0.40277 0.85544 0.0
C2229 C 0.34688 0.48394 0.84861 0.0
C2230 C 0.45954 0.51425 0.57912 0.0
C2231 C 0.42478 0.54067 0.57053 0.0
H2232 H 0.48554 0.49391 0.60307 0.0
C2233 C 0.40607 0.58129 0.57841 0.0
H2234 H 0.47731 0.48471 0.57317 0.0
C2235 C 0.41161 0.58731 0.59543 0.0
C2236 C 0.43652 0.55329 0.6048 0.0
H2237 H 0.38128 0.60483 0.57221 0.0
H2238 H 0.39084 0.61494 0.60129 0.0
C2239 C 0.46416 0.51946 0.59632 0.0
loop_
_geom_bond_atom_site_label_1
_geom_bond_atom_site_label_2
_geom_bond_distance
_geom_bond_site_symmetry_2
_ccdc_geom_bond_type
Tb0 C2 2.809 . S
Tb0 O20 2.484 . S
Tb0 O21 2.440 . S
Tb0 O22 2.658 . S
Tb0 O23 2.409 . S
Tb0 O24 2.378 . S
Tb0 O28 2.325 . S
Tb0 O31 2.341 . S
Tb1 C11 2.809 . S
Tb1 O22 2.325 . S
Tb1 O25 2.341 . S
Tb1 O26 2.484 . S
Tb1 O27 2.440 . S
Tb1 O28 2.658 . S
Tb1 O29 2.409 . S
Tb1 O30 2.378 . S
C2 Tb0 2.809 . S
C2 C3 1.514 . S
C2 O20 1.248 . S
C2 O21 1.266 . S
C3 C2 1.514 . S
C3 C4 1.359 . S
C3 C8 1.348 . S
C4 C3 1.359 . S
C4 C5 1.380 . S
C4 H32 0.929 . S
C5 C4 1.380 . S
C5 C6 1.347 . S
C5 H33 0.931 . S
C6 C5 1.347 . S
C6 C7 1.369 . S
C7 C6 1.369 . S
C7 C8 1.408 . S
C7 H34 0.930 . S
C8 C3 1.348 . S
C8 C7 1.408 . S
C8 H35 0.930 . S
C9 O22 1.281 . S
C9 O23 1.254 . S
C10 O24 1.236 . S
C10 O25 1.266 . S
C11 Tb1 2.809 . S
C11 C12 1.514 . S
C11 O26 1.248 . S
C11 O27 1.266 . S
C12 C11 1.514 . S
C12 C13 1.359 . S
C12 C17 1.348 . S
C13 C12 1.359 . S
C13 C14 1.380 . S
C13 H36 0.929 . S
C14 C13 1.380 . S
C14 C15 1.347 . S
C14 H37 0.931 . S
C15 C14 1.347 . S
C15 C16 1.369 . S
C16 C15 1.369 . S
C16 C17 1.408 . S
C16 H38 0.930 . S
C17 C12 1.348 . S
C17 C16 1.408 . S
C17 H39 0.930 . S
C18 O28 1.281 . S
C18 O29 1.254 . S
C19 O30 1.236 . S
C19 O31 1.266 . S
O20 Tb0 2.484 . S
O20 C2 1.248 . S
O21 Tb0 2.440 . S
O21 C2 1.266 . S
O22 Tb0 2.658 . S
O22 Tb1 2.325 . S
O22 C9 1.281 . S
O23 Tb0 2.409 . S
O23 C9 1.254 . S
O24 Tb0 2.378 . S
O24 C10 1.236 . S
O25 Tb1 2.341 . S
O25 C10 1.266 . S
O26 Tb1 2.484 . S
O26 C11 1.248 . S
O27 Tb1 2.440 . S
O27 C11 1.266 . S
O28 Tb0 2.325 . S
O28 Tb1 2.658 . S
O28 C18 1.281 . S
O29 Tb1 2.409 . S
O29 C18 1.254 . S
O30 Tb1 2.378 . S
O30 C19 1.236 . S
O31 Tb0 2.341 . S
O31 C19 1.266 . S
H32 C4 0.929 . S
H33 C5 0.931 . S
H34 C7 0.930 . S
H35 C8 0.930 . S
H36 C13 0.929 . S
H37 C14 0.931 . S
H38 C16 0.930 . S
H39 C17 0.930 . S
Tb40 C42 2.809 . S
Tb40 O60 2.484 . S
Tb40 O61 2.440 . S
Tb40 O62 2.658 1_655 S
Tb40 O63 2.409 1_665 S
Tb40 O64 2.378 1_655 S
Tb40 O68 2.325 1_655 S
Tb40 O71 2.341 . S
Tb41 C51 2.809 . S
Tb41 O62 2.325 . S
Tb41 O65 2.341 . S
Tb41 O66 2.484 . S
Tb41 O67 2.440 . S
Tb41 O68 2.658 . S
Tb41 O69 2.409 . S
Tb41 O70 2.378 . S
C42 Tb40 2.809 . S
C42 C43 1.514 . S
C42 O60 1.248 . S
C42 O61 1.266 . S
C43 C42 1.514 . S
C43 C44 1.359 . S
C43 C48 1.348 . S
C44 C43 1.359 . S
C44 C45 1.380 . S
C44 H72 0.929 . S
C45 C44 1.380 . S
C45 C46 1.347 . S
C45 H73 0.931 . S
C46 C45 1.347 . S
C46 C47 1.369 . S
C47 C46 1.369 . S
C47 C48 1.408 . S
C47 H74 0.930 . S
C48 C43 1.348 . S
C48 C47 1.408 . S
C48 H75 0.930 . S
C49 O62 1.281 1_545 S
C49 O63 1.254 . S
C50 O64 1.236 . S
C50 O65 1.266 . S
C51 Tb41 2.809 . S
C51 C52 1.514 . S
C51 O66 1.248 . S
C51 O67 1.266 . S
C52 C51 1.514 . S
C52 C53 1.359 1_565 S
C52 C57 1.348 . S
C53 C52 1.359 1_545 S
C53 C54 1.380 . S
C53 H76 0.929 . S
C54 C53 1.380 . S
C54 C55 1.347 1_545 S
C54 H77 0.931 . S
C55 C54 1.347 1_565 S
C55 C56 1.369 . S
C56 C55 1.369 . S
C56 C57 1.408 . S
C56 H78 0.930 . S
C57 C52 1.348 . S
C57 C56 1.408 . S
C57 H79 0.930 . S
C58 O68 1.281 . S
C58 O69 1.254 . S
C59 O70 1.236 . S
C59 O71 1.266 1_455 S
O60 Tb40 2.484 . S
O60 C42 1.248 . S
O61 Tb40 2.440 . S
O61 C42 1.266 . S
O62 Tb40 2.658 1_455 S
O62 Tb41 2.325 . S
O62 C49 1.281 1_565 S
O63 Tb40 2.409 1_445 S
O63 C49 1.254 . S
O64 Tb40 2.378 1_455 S
O64 C50 1.236 . S
O65 Tb41 2.341 . S
O65 C50 1.266 . S
O66 Tb41 2.484 . S
O66 C51 1.248 . S
O67 Tb41 2.440 . S
O67 C51 1.266 . S
O68 Tb40 2.325 1_455 S
O68 Tb41 2.658 . S
O68 C58 1.281 . S
O69 Tb41 2.409 . S
O69 C58 1.254 . S
O70 Tb41 2.378 . S
O70 C59 1.236 . S
O71 Tb40 2.341 . S
O71 C59 1.266 1_655 S
H72 C44 0.929 . S
H73 C45 0.931 . S
H74 C47 0.930 . S
H75 C48 0.930 . S
H76 C53 0.929 . S
H77 C54 0.931 . S
H78 C56 0.930 . S
H79 C57 0.930 . S
Tb80 C82 2.809 . S
Tb80 O100 2.484 . S
Tb80 O101 2.440 . S
Tb80 O102 2.658 . S
Tb80 O103 2.409 . S
Tb80 O104 2.378 . S
Tb80 O108 2.325 . S
Tb80 O111 2.341 . S
Tb81 C91 2.809 . S
Tb81 O102 2.325 . S
Tb81 O105 2.341 . S
Tb81 O106 2.484 . S
Tb81 O107 2.440 . S
Tb81 O108 2.658 . S
Tb81 O109 2.409 . S
Tb81 O110 2.378 . S
C82 Tb80 2.809 . S
C82 C83 1.514 . S
C82 O100 1.248 . S
C82 O101 1.266 . S
C83 C82 1.514 . S
C83 C84 1.359 . S
C83 C88 1.348 . S
C84 C83 1.359 . S
C84 C85 1.380 . S
C84 H112 0.929 . S
C85 C84 1.380 . S
C85 C86 1.347 . S
C85 H113 0.931 . S
C86 C85 1.347 . S
C86 C87 1.369 . S
C87 C86 1.369 . S
C87 C88 1.408 . S
C87 H114 0.930 . S
C88 C83 1.348 . S
C88 C87 1.408 . S
C88 H115 0.930 . S
C89 O102 1.281 . S
C89 O103 1.254 . S
C90 O104 1.236 . S
C90 O105 1.266 . S
C91 Tb81 2.809 . S
C91 C92 1.514 . S
C91 O106 1.248 . S
C91 O107 1.266 . S
C92 C91 1.514 . S
C92 C93 1.359 . S
C92 C97 1.348 . S
C93 C92 1.359 . S
C93 C94 1.380 . S
C93 H116 0.929 . S
C94 C93 1.380 . S
C94 C95 1.347 . S
C94 H117 0.931 . S
C95 C94 1.347 . S
C95 C96 1.369 . S
C96 C95 1.369 . S
C96 C97 1.408 . S
C96 H118 0.930 . S
C97 C92 1.348 . S
C97 C96 1.408 . S
C97 H119 0.930 . S
C98 O108 1.281 . S
C98 O109 1.254 . S
C99 O110 1.236 . S
C99 O111 1.266 . S
O100 Tb80 2.484 . S
O100 C82 1.248 . S
O101 Tb80 2.440 . S
O101 C82 1.266 . S
O102 Tb80 2.658 . S
O102 Tb81 2.325 . S
O102 C89 1.281 . S
O103 Tb80 2.409 . S
O103 C89 1.254 . S
O104 Tb80 2.378 . S
O104 C90 1.236 . S
O105 Tb81 2.341 . S
O105 C90 1.266 . S
O106 Tb81 2.484 . S
O106 C91 1.248 . S
O107 Tb81 2.440 . S
O107 C91 1.266 . S
O108 Tb80 2.325 . S
O108 Tb81 2.658 . S
O108 C98 1.281 . S
O109 Tb81 2.409 . S
O109 C98 1.254 . S
O110 Tb81 2.378 . S
O110 C99 1.236 . S
O111 Tb80 2.341 . S
O111 C99 1.266 . S
H112 C84 0.929 . S
H113 C85 0.931 . S
H114 C87 0.930 . S
H115 C88 0.930 . S
H116 C93 0.929 . S
H117 C94 0.931 . S
H118 C96 0.930 . S
H119 C97 0.930 . S
Tb120 C122 2.809 . S
Tb120 O140 2.484 . S
Tb120 O141 2.440 . S
Tb120 O142 2.658 . S
Tb120 O143 2.409 1_545 S
Tb120 O144 2.378 . S
Tb120 O148 2.325 . S
Tb120 O151 2.341 . S
Tb121 C131 2.809 . S
Tb121 O142 2.325 . S
Tb121 O145 2.341 . S
Tb121 O146 2.484 . S
Tb121 O147 2.440 . S
Tb121 O148 2.658 . S
Tb121 O149 2.409 . S
Tb121 O150 2.378 . S
C122 Tb120 2.809 . S
C122 C123 1.514 . S
C122 O140 1.248 . S
C122 O141 1.266 . S
C123 C122 1.514 . S
C123 C124 1.359 . S
C123 C128 1.348 . S
C124 C123 1.359 . S
C124 C125 1.380 . S
C124 H152 0.929 . S
C125 C124 1.380 . S
C125 C126 1.347 . S
C125 H153 0.931 . S
C126 C125 1.347 . S
C126 C127 1.369 . S
C127 C126 1.369 . S
C127 C128 1.408 . S
C127 H154 0.930 . S
C128 C123 1.348 . S
C128 C127 1.408 . S
C128 H155 0.930 . S
C129 O142 1.281 1_565 S
C129 O143 1.254 . S
C130 O144 1.236 . S
C130 O145 1.266 . S
C131 Tb121 2.809 . S
C131 C132 1.514 . S
C131 O146 1.248 . S
C131 O147 1.266 . S
C132 C131 1.514 . S
C132 C133 1.359 1_545 S
C132 C137 1.348 . S
C133 C132 1.359 1_565 S
C133 C134 1.380 . S
C133 H156 0.929 . S
C134 C133 1.380 . S
C134 C135 1.347 1_565 S
C134 H157 0.931 . S
C135 C134 1.347 1_545 S
C135 C136 1.369 . S
C136 C135 1.369 . S
C136 C137 1.408 . S
C136 H158 0.930 . S
C137 C132 1.348 . S
C137 C136 1.408 . S
C137 H159 0.930 . S
C138 O148 1.281 . S
C138 O149 1.254 . S
C139 O150 1.236 . S
C139 O151 1.266 . S
O140 Tb120 2.484 . S
O140 C122 1.248 . S
O141 Tb120 2.440 . S
O141 C122 1.266 . S
O142 Tb120 2.658 . S
O142 Tb121 2.325 . S
O142 C129 1.281 1_545 S
O143 Tb120 2.409 1_565 S
O143 C129 1.254 . S
O144 Tb120 2.378 . S
O144 C130 1.236 . S
O145 Tb121 2.341 . S
O145 C130 1.266 . S
O146 Tb121 2.484 . S
O146 C131 1.248 . S
O147 Tb121 2.440 . S
O147 C131 1.266 . S
O148 Tb120 2.325 . S
O148 Tb121 2.658 . S
O148 C138 1.281 . S
O149 Tb121 2.409 . S
O149 C138 1.254 . S
O150 Tb121 2.378 . S
O150 C139 1.236 . S
O151 Tb120 2.341 . S
O151 C139 1.266 . S
H152 C124 0.929 . S
H153 C125 0.931 . S
H154 C127 0.930 . S
H155 C128 0.930 . S
H156 C133 0.929 . S
H157 C134 0.931 . S
H158 C136 0.930 . S
H159 C137 0.930 . S
Tb160 C162 2.809 . S
Tb160 O180 2.484 . S
Tb160 O181 2.440 . S
Tb160 O182 2.658 . S
Tb160 O183 2.409 . S
Tb160 O184 2.378 . S
Tb160 O188 2.325 . S
Tb160 O191 2.341 . S
Tb161 C171 2.809 . S
Tb161 O182 2.325 . S
Tb161 O185 2.341 . S
Tb161 O186 2.484 . S
Tb161 O187 2.440 . S
Tb161 O188 2.658 . S
Tb161 O189 2.409 . S
Tb161 O190 2.378 . S
C162 Tb160 2.809 . S
C162 C163 1.514 . S
C162 O180 1.248 . S
C162 O181 1.266 . S
C163 C162 1.514 . S
C163 C164 1.359 . S
C163 C168 1.348 . S
C164 C163 1.359 . S
C164 C165 1.380 . S
C164 H192 0.929 . S
C165 C164 1.380 . S
C165 C166 1.347 . S
C165 H193 0.931 . S
C166 C165 1.347 . S
C166 C167 1.369 . S
C167 C166 1.369 . S
C167 C168 1.408 . S
C167 H194 0.930 . S
C168 C163 1.348 . S
C168 C167 1.408 . S
C168 H195 0.930 . S
C169 O182 1.281 . S
C169 O183 1.254 . S
C170 O184 1.236 . S
C170 O185 1.266 . S
C171 Tb161 2.809 . S
C171 C172 1.514 . S
C171 O186 1.248 . S
C171 O187 1.266 . S
C172 C171 1.514 . S
C172 C173 1.359 . S
C172 C177 1.348 . S
C173 C172 1.359 . S
C173 C174 1.380 . S
C173 H196 0.929 . S
C174 C173 1.380 . S
C174 C175 1.347 . S
C174 H197 0.931 . S
C175 C174 1.347 . S
C175 C176 1.369 . S
C176 C175 1.369 . S
C176 C177 1.408 . S
C176 H198 0.930 . S
C177 C172 1.348 . S
C177 C176 1.408 . S
C177 H199 0.930 . S
C178 O188 1.281 . S
C178 O189 1.254 . S
C179 O190 1.236 . S
C179 O191 1.266 . S
O180 Tb160 2.484 . S
O180 C162 1.248 . S
O181 Tb160 2.440 . S
O181 C162 1.266 . S
O182 Tb160 2.658 . S
O182 Tb161 2.325 . S
O182 C169 1.281 . S
O183 Tb160 2.409 . S
O183 C169 1.254 . S
O184 Tb160 2.378 . S
O184 C170 1.236 . S
O185 Tb161 2.341 . S
O185 C170 1.266 . S
O186 Tb161 2.484 . S
O186 C171 1.248 . S
O187 Tb161 2.440 . S
O187 C171 1.266 . S
O188 Tb160 2.325 . S
O188 Tb161 2.658 . S
O188 C178 1.281 . S
O189 Tb161 2.409 . S
O189 C178 1.254 . S
O190 Tb161 2.378 . S
O190 C179 1.236 . S
O191 Tb160 2.341 . S
O191 C179 1.266 . S
H192 C164 0.929 . S
H193 C165 0.931 . S
H194 C167 0.930 . S
H195 C168 0.930 . S
H196 C173 0.929 . S
H197 C174 0.931 . S
H198 C176 0.930 . S
H199 C177 0.930 . S
Tb200 C202 2.809 . S
Tb200 O220 2.484 . S
Tb200 O221 2.440 . S
Tb200 O222 2.658 . S
Tb200 O223 2.409 1_565 S
Tb200 O224 2.378 . S
Tb200 O228 2.325 . S
Tb200 O231 2.341 . S
Tb201 C211 2.809 . S
Tb201 O222 2.325 . S
Tb201 O225 2.341 . S
Tb201 O226 2.484 . S
Tb201 O227 2.440 . S
Tb201 O228 2.658 . S
Tb201 O229 2.409 . S
Tb201 O230 2.378 . S
C202 Tb200 2.809 . S
C202 C203 1.514 . S
C202 O220 1.248 . S
C202 O221 1.266 . S
C203 C202 1.514 . S
C203 C204 1.359 . S
C203 C208 1.348 . S
C204 C203 1.359 . S
C204 C205 1.380 . S
C204 H232 0.929 . S
C205 C204 1.380 . S
C205 C206 1.347 . S
C205 H233 0.931 . S
C206 C205 1.347 . S
C206 C207 1.369 . S
C207 C206 1.369 . S
C207 C208 1.408 . S
C207 H234 0.930 . S
C208 C203 1.348 . S
C208 C207 1.408 . S
C208 H235 0.930 . S
C209 O222 1.281 1_545 S
C209 O223 1.254 . S
C210 O224 1.236 . S
C210 O225 1.266 . S
C211 Tb201 2.809 . S
C211 C212 1.514 . S
C211 O226 1.248 . S
C211 O227 1.266 . S
C212 C211 1.514 . S
C212 C213 1.359 1_565 S
C212 C217 1.348 . S
C213 C212 1.359 1_545 S
C213 C214 1.380 . S
C213 H236 0.929 . S
C214 C213 1.380 . S
C214 C215 1.347 1_545 S
C214 H237 0.931 . S
C215 C214 1.347 1_565 S
C215 C216 1.369 . S
C216 C215 1.369 . S
C216 C217 1.408 . S
C216 H238 0.930 . S
C217 C212 1.348 . S
C217 C216 1.408 . S
C217 H239 0.930 . S
C218 O228 1.281 . S
C218 O229 1.254 . S
C219 O230 1.236 . S
C219 O231 1.266 . S
O220 Tb200 2.484 . S
O220 C202 1.248 . S
O221 Tb200 2.440 . S
O221 C202 1.266 . S
O222 Tb200 2.658 . S
O222 Tb201 2.325 . S
O222 C209 1.281 1_565 S
O223 Tb200 2.409 1_545 S
O223 C209 1.254 . S
O224 Tb200 2.378 . S
O224 C210 1.236 . S
O225 Tb201 2.341 . S
O225 C210 1.266 . S
O226 Tb201 2.484 . S
O226 C211 1.248 . S
O227 Tb201 2.440 . S
O227 C211 1.266 . S
O228 Tb200 2.325 . S
O228 Tb201 2.658 . S
O228 C218 1.281 . S
O229 Tb201 2.409 . S
O229 C218 1.254 . S
O230 Tb201 2.378 . S
O230 C219 1.236 . S
O231 Tb200 2.341 . S
O231 C219 1.266 . S
H232 C204 0.929 . S
H233 C205 0.931 . S
H234 C207 0.930 . S
H235 C208 0.930 . S
H236 C213 0.929 . S
H237 C214 0.931 . S
H238 C216 0.930 . S
H239 C217 0.930 . S
Tb240 C242 2.809 . S
Tb240 O260 2.484 . S
Tb240 O261 2.440 . S
Tb240 O262 2.658 . S
Tb240 O263 2.409 . S
Tb240 O264 2.378 . S
Tb240 O268 2.325 . S
Tb240 O271 2.341 . S
Tb241 C251 2.809 . S
Tb241 O262 2.325 . S
Tb241 O265 2.341 . S
Tb241 O266 2.484 . S
Tb241 O267 2.440 . S
Tb241 O268 2.658 . S
Tb241 O269 2.409 . S
Tb241 O270 2.378 . S
C242 Tb240 2.809 . S
C242 C243 1.514 . S
C242 O260 1.248 . S
C242 O261 1.266 . S
C243 C242 1.514 . S
C243 C244 1.359 . S
C243 C248 1.348 . S
C244 C243 1.359 . S
C244 C245 1.380 . S
C244 H272 0.929 . S
C245 C244 1.380 . S
C245 C246 1.347 . S
C245 H273 0.931 . S
C246 C245 1.347 . S
C246 C247 1.369 . S
C247 C246 1.369 . S
C247 C248 1.408 . S
C247 H274 0.930 . S
C248 C243 1.348 . S
C248 C247 1.408 . S
C248 H275 0.930 . S
C249 O262 1.281 . S
C249 O263 1.254 . S
C250 O264 1.236 . S
C250 O265 1.266 . S
C251 Tb241 2.809 . S
C251 C252 1.514 . S
C251 O266 1.248 . S
C251 O267 1.266 . S
C252 C251 1.514 . S
C252 C253 1.359 . S
C252 C257 1.348 . S
C253 C252 1.359 . S
C253 C254 1.380 . S
C253 H276 0.929 . S
C254 C253 1.380 . S
C254 C255 1.347 . S
C254 H277 0.931 . S
C255 C254 1.347 . S
C255 C256 1.369 . S
C256 C255 1.369 . S
C256 C257 1.408 . S
C256 H278 0.930 . S
C257 C252 1.348 . S
C257 C256 1.408 . S
C257 H279 0.930 . S
C258 O268 1.281 . S
C258 O269 1.254 . S
C259 O270 1.236 . S
C259 O271 1.266 . S
O260 Tb240 2.484 . S
O260 C242 1.248 . S
O261 Tb240 2.440 . S
O261 C242 1.266 . S
O262 Tb240 2.658 . S
O262 Tb241 2.325 . S
O262 C249 1.281 . S
O263 Tb240 2.409 . S
O263 C249 1.254 . S
O264 Tb240 2.378 . S
O264 C250 1.236 . S
O265 Tb241 2.341 . S
O265 C250 1.266 . S
O266 Tb241 2.484 . S
O266 C251 1.248 . S
O267 Tb241 2.440 . S
O267 C251 1.266 . S
O268 Tb240 2.325 . S
O268 Tb241 2.658 . S
O268 C258 1.281 . S
O269 Tb241 2.409 . S
O269 C258 1.254 . S
O270 Tb241 2.378 . S
O270 C259 1.236 . S
O271 Tb240 2.341 . S
O271 C259 1.266 . S
H272 C244 0.929 . S
H273 C245 0.931 . S
H274 C247 0.930 . S
H275 C248 0.930 . S
H276 C253 0.929 . S
H277 C254 0.931 . S
H278 C256 0.930 . S
H279 C257 0.930 . S
Tb280 C282 2.809 . S
Tb280 O300 2.484 . S
Tb280 O301 2.440 . S
Tb280 O302 2.658 1_655 S
Tb280 O303 2.409 1_645 S
Tb280 O304 2.378 1_655 S
Tb280 O308 2.325 1_655 S
Tb280 O311 2.341 . S
Tb281 C291 2.809 . S
Tb281 O302 2.325 . S
Tb281 O305 2.341 . S
Tb281 O306 2.484 . S
Tb281 O307 2.440 . S
Tb281 O308 2.658 . S
Tb281 O309 2.409 . S
Tb281 O310 2.378 . S
C282 Tb280 2.809 . S
C282 C283 1.514 . S
C282 O300 1.248 . S
C282 O301 1.266 . S
C283 C282 1.514 . S
C283 C284 1.359 . S
C283 C288 1.348 . S
C284 C283 1.359 . S
C284 C285 1.380 . S
C284 H312 0.929 . S
C285 C284 1.380 . S
C285 C286 1.347 . S
C285 H313 0.931 . S
C286 C285 1.347 . S
C286 C287 1.369 . S
C287 C286 1.369 . S
C287 C288 1.408 . S
C287 H314 0.930 . S
C288 C283 1.348 . S
C288 C287 1.408 . S
C288 H315 0.930 . S
C289 O302 1.281 1_565 S
C289 O303 1.254 . S
C290 O304 1.236 . S
C290 O305 1.266 . S
C291 Tb281 2.809 . S
C291 C292 1.514 . S
C291 O306 1.248 . S
C291 O307 1.266 . S
C292 C291 1.514 . S
C292 C293 1.359 1_545 S
C292 C297 1.348 . S
C293 C292 1.359 1_565 S
C293 C294 1.380 . S
C293 H316 0.929 . S
C294 C293 1.380 . S
C294 C295 1.347 1_565 S
C294 H317 0.931 . S
C295 C294 1.347 1_545 S
C295 C296 1.369 . S
C296 C295 1.369 . S
C296 C297 1.408 . S
C296 H318 0.930 . S
C297 C292 1.348 . S
C297 C296 1.408 . S
C297 H319 0.930 . S
C298 O308 1.281 . S
C298 O309 1.254 . S
C299 O310 1.236 . S
C299 O311 1.266 1_455 S
O300 Tb280 2.484 . S
O300 C282 1.248 . S
O301 Tb280 2.440 . S
O301 C282 1.266 . S
O302 Tb280 2.658 1_455 S
O302 Tb281 2.325 . S
O302 C289 1.281 1_545 S
O303 Tb280 2.409 1_465 S
O303 C289 1.254 . S
O304 Tb280 2.378 1_455 S
O304 C290 1.236 . S
O305 Tb281 2.341 . S
O305 C290 1.266 . S
O306 Tb281 2.484 . S
O306 C291 1.248 . S
O307 Tb281 2.440 . S
O307 C291 1.266 . S
O308 Tb280 2.325 1_455 S
O308 Tb281 2.658 . S
O308 C298 1.281 . S
O309 Tb281 2.409 . S
O309 C298 1.254 . S
O310 Tb281 2.378 . S
O310 C299 1.236 . S
O311 Tb280 2.341 . S
O311 C299 1.266 1_655 S
H312 C284 0.929 . S
H313 C285 0.931 . S
H314 C287 0.930 . S
H315 C288 0.930 . S
H316 C293 0.929 . S
H317 C294 0.931 . S
H318 C296 0.930 . S
H319 C297 0.930 . S
Tb320 C322 2.809 . S
Tb320 O340 2.484 . S
Tb320 O341 2.440 . S
Tb320 O342 2.658 . S
Tb320 O343 2.409 . S
Tb320 O344 2.378 . S
Tb320 O348 2.325 . S
Tb320 O351 2.341 . S
Tb321 C331 2.809 . S
Tb321 O342 2.325 . S
Tb321 O345 2.341 . S
Tb321 O346 2.484 . S
Tb321 O347 2.440 . S
Tb321 O348 2.658 . S
Tb321 O349 2.409 . S
Tb321 O350 2.378 . S
C322 Tb320 2.809 . S
C322 C323 1.514 . S
C322 O340 1.248 . S
C322 O341 1.266 . S
C323 C322 1.514 . S
C323 C324 1.359 . S
C323 C328 1.348 . S
C324 C323 1.359 . S
C324 C325 1.380 . S
C324 H352 0.929 . S
C325 C324 1.380 . S
C325 C326 1.347 . S
C325 H353 0.931 . S
C326 C325 1.347 . S
C326 C327 1.369 . S
C327 C326 1.369 . S
C327 C328 1.408 . S
C327 H354 0.930 . S
C328 C323 1.348 . S
C328 C327 1.408 . S
C328 H355 0.930 . S
C329 O342 1.281 . S
C329 O343 1.254 . S
C330 O344 1.236 . S
C330 O345 1.266 . S
C331 Tb321 2.809 . S
C331 C332 1.514 . S
C331 O346 1.248 . S
C331 O347 1.266 . S
C332 C331 1.514 . S
C332 C333 1.359 . S
C332 C337 1.348 . S
C333 C332 1.359 . S
C333 C334 1.380 . S
C333 H356 0.929 . S
C334 C333 1.380 . S
C334 C335 1.347 . S
C334 H357 0.931 . S
C335 C334 1.347 . S
C335 C336 1.369 . S
C336 C335 1.369 . S
C336 C337 1.408 . S
C336 H358 0.930 . S
C337 C332 1.348 . S
C337 C336 1.408 . S
C337 H359 0.930 . S
C338 O348 1.281 . S
C338 O349 1.254 . S
C339 O350 1.236 . S
C339 O351 1.266 . S
O340 Tb320 2.484 . S
O340 C322 1.248 . S
O341 Tb320 2.440 . S
O341 C322 1.266 . S
O342 Tb320 2.658 . S
O342 Tb321 2.325 . S
O342 C329 1.281 . S
O343 Tb320 2.409 . S
O343 C329 1.254 . S
O344 Tb320 2.378 . S
O344 C330 1.236 . S
O345 Tb321 2.341 . S
O345 C330 1.266 . S
O346 Tb321 2.484 . S
O346 C331 1.248 . S
O347 Tb321 2.440 . S
O347 C331 1.266 . S
O348 Tb320 2.325 . S
O348 Tb321 2.658 . S
O348 C338 1.281 . S
O349 Tb321 2.409 . S
O349 C338 1.254 . S
O350 Tb321 2.378 . S
O350 C339 1.236 . S
O351 Tb320 2.341 . S
O351 C339 1.266 . S
H352 C324 0.929 . S
H353 C325 0.931 . S
H354 C327 0.930 . S
H355 C328 0.930 . S
H356 C333 0.929 . S
H357 C334 0.931 . S
H358 C336 0.930 . S
H359 C337 0.930 . S
Tb360 C362 2.809 . S
Tb360 O380 2.484 . S
Tb360 O381 2.440 . S
Tb360 O382 2.658 . S
Tb360 O383 2.409 . S
Tb360 O384 2.378 . S
Tb360 O388 2.325 . S
Tb360 O391 2.341 . S
Tb361 C371 2.809 . S
Tb361 O382 2.325 1_455 S
Tb361 O385 2.341 . S
Tb361 O386 2.484 . S
Tb361 O387 2.440 . S
Tb361 O388 2.658 1_455 S
Tb361 O389 2.409 1_445 S
Tb361 O390 2.378 1_455 S
C362 Tb360 2.809 . S
C362 C363 1.514 . S
C362 O380 1.248 . S
C362 O381 1.266 . S
C363 C362 1.514 . S
C363 C364 1.359 1_545 S
C363 C368 1.348 . S
C364 C363 1.359 1_565 S
C364 C365 1.380 . S
C364 H392 0.929 . S
C365 C364 1.380 . S
C365 C366 1.347 1_565 S
C365 H393 0.931 . S
C366 C365 1.347 1_545 S
C366 C367 1.369 . S
C367 C366 1.369 . S
C367 C368 1.408 . S
C367 H394 0.930 . S
C368 C363 1.348 . S
C368 C367 1.408 . S
C368 H395 0.930 . S
C369 O382 1.281 . S
C369 O383 1.254 . S
C370 O384 1.236 . S
C370 O385 1.266 1_655 S
C371 Tb361 2.809 . S
C371 C372 1.514 . S
C371 O386 1.248 . S
C371 O387 1.266 . S
C372 C371 1.514 . S
C372 C373 1.359 . S
C372 C377 1.348 . S
C373 C372 1.359 . S
C373 C374 1.380 . S
C373 H396 0.929 . S
C374 C373 1.380 . S
C374 C375 1.347 . S
C374 H397 0.931 . S
C375 C374 1.347 . S
C375 C376 1.369 . S
C376 C375 1.369 . S
C376 C377 1.408 . S
C376 H398 0.930 . S
C377 C372 1.348 . S
C377 C376 1.408 . S
C377 H399 0.930 . S
C378 O388 1.281 1_565 S
C378 O389 1.254 . S
C379 O390 1.236 . S
C379 O391 1.266 . S
O380 Tb360 2.484 . S
O380 C362 1.248 . S
O381 Tb360 2.440 . S
O381 C362 1.266 . S
O382 Tb360 2.658 . S
O382 Tb361 2.325 1_655 S
O382 C369 1.281 . S
O383 Tb360 2.409 . S
O383 C369 1.254 . S
O384 Tb360 2.378 . S
O384 C370 1.236 . S
O385 Tb361 2.341 . S
O385 C370 1.266 1_455 S
O386 Tb361 2.484 . S
O386 C371 1.248 . S
O387 Tb361 2.440 . S
O387 C371 1.266 . S
O388 Tb360 2.325 . S
O388 Tb361 2.658 1_655 S
O388 C378 1.281 1_545 S
O389 Tb361 2.409 1_665 S
O389 C378 1.254 . S
O390 Tb361 2.378 1_655 S
O390 C379 1.236 . S
O391 Tb360 2.341 . S
O391 C379 1.266 . S
H392 C364 0.929 . S
H393 C365 0.931 . S
H394 C367 0.930 . S
H395 C368 0.930 . S
H396 C373 0.929 . S
H397 C374 0.931 . S
H398 C376 0.930 . S
H399 C377 0.930 . S
Tb400 C402 2.809 . S
Tb400 O420 2.484 . S
Tb400 O421 2.440 . S
Tb400 O422 2.658 . S
Tb400 O423 2.409 . S
Tb400 O424 2.378 . S
Tb400 O428 2.325 . S
Tb400 O431 2.341 . S
Tb401 C411 2.809 . S
Tb401 O422 2.325 . S
Tb401 O425 2.341 . S
Tb401 O426 2.484 . S
Tb401 O427 2.440 . S
Tb401 O428 2.658 . S
Tb401 O429 2.409 . S
Tb401 O430 2.378 . S
C402 Tb400 2.809 . S
C402 C403 1.514 . S
C402 O420 1.248 . S
C402 O421 1.266 . S
C403 C402 1.514 . S
C403 C404 1.359 . S
C403 C408 1.348 . S
C404 C403 1.359 . S
C404 C405 1.380 . S
C404 H432 0.929 . S
C405 C404 1.380 . S
C405 C406 1.347 . S
C405 H433 0.931 . S
C406 C405 1.347 . S
C406 C407 1.369 . S
C407 C406 1.369 . S
C407 C408 1.408 . S
C407 H434 0.930 . S
C408 C403 1.348 . S
C408 C407 1.408 . S
C408 H435 0.930 . S
C409 O422 1.281 . S
C409 O423 1.254 . S
C410 O424 1.236 . S
C410 O425 1.266 . S
C411 Tb401 2.809 . S
C411 C412 1.514 . S
C411 O426 1.248 . S
C411 O427 1.266 . S
C412 C411 1.514 . S
C412 C413 1.359 . S
C412 C417 1.348 . S
C413 C412 1.359 . S
C413 C414 1.380 . S
C413 H436 0.929 . S
C414 C413 1.380 . S
C414 C415 1.347 . S
C414 H437 0.931 . S
C415 C414 1.347 . S
C415 C416 1.369 . S
C416 C415 1.369 . S
C416 C417 1.408 . S
C416 H438 0.930 . S
C417 C412 1.348 . S
C417 C416 1.408 . S
C417 H439 0.930 . S
C418 O428 1.281 . S
C418 O429 1.254 . S
C419 O430 1.236 . S
C419 O431 1.266 . S
O420 Tb400 2.484 . S
O420 C402 1.248 . S
O421 Tb400 2.440 . S
O421 C402 1.266 . S
O422 Tb400 2.658 . S
O422 Tb401 2.325 . S
O422 C409 1.281 . S
O423 Tb400 2.409 . S
O423 C409 1.254 . S
O424 Tb400 2.378 . S
O424 C410 1.236 . S
O425 Tb401 2.341 . S
O425 C410 1.266 . S
O426 Tb401 2.484 . S
O426 C411 1.248 . S
O427 Tb401 2.440 . S
O427 C411 1.266 . S
O428 Tb400 2.325 . S
O428 Tb401 2.658 . S
O428 C418 1.281 . S
O429 Tb401 2.409 . S
O429 C418 1.254 . S
O430 Tb401 2.378 . S
O430 C419 1.236 . S
O431 Tb400 2.341 . S
O431 C419 1.266 . S
H432 C404 0.929 . S
H433 C405 0.931 . S
H434 C407 0.930 . S
H435 C408 0.930 . S
H436 C413 0.929 . S
H437 C414 0.931 . S
H438 C416 0.930 . S
H439 C417 0.930 . S
Tb440 C442 2.809 . S
Tb440 O460 2.484 . S
Tb440 O461 2.440 . S
Tb440 O462 2.658 . S
Tb440 O463 2.409 . S
Tb440 O464 2.378 . S
Tb440 O468 2.325 . S
Tb440 O471 2.341 . S
Tb441 C451 2.809 . S
Tb441 O462 2.325 . S
Tb441 O465 2.341 . S
Tb441 O466 2.484 . S
Tb441 O467 2.440 . S
Tb441 O468 2.658 . S
Tb441 O469 2.409 1_565 S
Tb441 O470 2.378 . S
C442 Tb440 2.809 . S
C442 C443 1.514 . S
C442 O460 1.248 . S
C442 O461 1.266 . S
C443 C442 1.514 . S
C443 C444 1.359 1_565 S
C443 C448 1.348 . S
C444 C443 1.359 1_545 S
C444 C445 1.380 . S
C444 H472 0.929 . S
C445 C444 1.380 . S
C445 C446 1.347 1_545 S
C445 H473 0.931 . S
C446 C445 1.347 1_565 S
C446 C447 1.369 . S
C447 C446 1.369 . S
C447 C448 1.408 . S
C447 H474 0.930 . S
C448 C443 1.348 . S
C448 C447 1.408 . S
C448 H475 0.930 . S
C449 O462 1.281 . S
C449 O463 1.254 . S
C450 O464 1.236 . S
C450 O465 1.266 . S
C451 Tb441 2.809 . S
C451 C452 1.514 . S
C451 O466 1.248 . S
C451 O467 1.266 . S
C452 C451 1.514 . S
C452 C453 1.359 . S
C452 C457 1.348 . S
C453 C452 1.359 . S
C453 C454 1.380 . S
C453 H476 0.929 . S
C454 C453 1.380 . S
C454 C455 1.347 . S
C454 H477 0.931 . S
C455 C454 1.347 . S
C455 C456 1.369 . S
C456 C455 1.369 . S
C456 C457 1.408 . S
C456 H478 0.930 . S
C457 C452 1.348 . S
C457 C456 1.408 . S
C457 H479 0.930 . S
C458 O468 1.281 1_545 S
C458 O469 1.254 . S
C459 O470 1.236 . S
C459 O471 1.266 . S
O460 Tb440 2.484 . S
O460 C442 1.248 . S
O461 Tb440 2.440 . S
O461 C442 1.266 . S
O462 Tb440 2.658 . S
O462 Tb441 2.325 . S
O462 C449 1.281 . S
O463 Tb440 2.409 . S
O463 C449 1.254 . S
O464 Tb440 2.378 . S
O464 C450 1.236 . S
O465 Tb441 2.341 . S
O465 C450 1.266 . S
O466 Tb441 2.484 . S
O466 C451 1.248 . S
O467 Tb441 2.440 . S
O467 C451 1.266 . S
O468 Tb440 2.325 . S
O468 Tb441 2.658 . S
O468 C458 1.281 1_565 S
O469 Tb441 2.409 1_545 S
O469 C458 1.254 . S
O470 Tb441 2.378 . S
O470 C459 1.236 . S
O471 Tb440 2.341 . S
O471 C459 1.266 . S
H472 C444 0.929 . S
H473 C445 0.931 . S
H474 C447 0.930 . S
H475 C448 0.930 . S
H476 C453 0.929 . S
H477 C454 0.931 . S
H478 C456 0.930 . S
H479 C457 0.930 . S
Tb480 C482 2.809 . S
Tb480 O500 2.484 . S
Tb480 O501 2.440 . S
Tb480 O502 2.658 . S
Tb480 O503 2.409 . S
Tb480 O504 2.378 . S
Tb480 O508 2.325 . S
Tb480 O511 2.341 . S
Tb481 C491 2.809 . S
Tb481 O502 2.325 . S
Tb481 O505 2.341 . S
Tb481 O506 2.484 . S
Tb481 O507 2.440 . S
Tb481 O508 2.658 . S
Tb481 O509 2.409 . S
Tb481 O510 2.378 . S
C482 Tb480 2.809 . S
C482 C483 1.514 . S
C482 O500 1.248 . S
C482 O501 1.266 . S
C483 C482 1.514 . S
C483 C484 1.359 . S
C483 C488 1.348 . S
C484 C483 1.359 . S
C484 C485 1.380 . S
C484 H512 0.929 . S
C485 C484 1.380 . S
C485 C486 1.347 . S
C485 H513 0.931 . S
C486 C485 1.347 . S
C486 C487 1.369 . S
C487 C486 1.369 . S
C487 C488 1.408 . S
C487 H514 0.930 . S
C488 C483 1.348 . S
C488 C487 1.408 . S
C488 H515 0.930 . S
C489 O502 1.281 . S
C489 O503 1.254 . S
C490 O504 1.236 . S
C490 O505 1.266 . S
C491 Tb481 2.809 . S
C491 C492 1.514 . S
C491 O506 1.248 . S
C491 O507 1.266 . S
C492 C491 1.514 . S
C492 C493 1.359 . S
C492 C497 1.348 . S
C493 C492 1.359 . S
C493 C494 1.380 . S
C493 H516 0.929 . S
C494 C493 1.380 . S
C494 C495 1.347 . S
C494 H517 0.931 . S
C495 C494 1.347 . S
C495 C496 1.369 . S
C496 C495 1.369 . S
C496 C497 1.408 . S
C496 H518 0.930 . S
C497 C492 1.348 . S
C497 C496 1.408 . S
C497 H519 0.930 . S
C498 O508 1.281 . S
C498 O509 1.254 . S
C499 O510 1.236 . S
C499 O511 1.266 . S
O500 Tb480 2.484 . S
O500 C482 1.248 . S
O501 Tb480 2.440 . S
O501 C482 1.266 . S
O502 Tb480 2.658 . S
O502 Tb481 2.325 . S
O502 C489 1.281 . S
O503 Tb480 2.409 . S
O503 C489 1.254 . S
O504 Tb480 2.378 . S
O504 C490 1.236 . S
O505 Tb481 2.341 . S
O505 C490 1.266 . S
O506 Tb481 2.484 . S
O506 C491 1.248 . S
O507 Tb481 2.440 . S
O507 C491 1.266 . S
O508 Tb480 2.325 . S
O508 Tb481 2.658 . S
O508 C498 1.281 . S
O509 Tb481 2.409 . S
O509 C498 1.254 . S
O510 Tb481 2.378 . S
O510 C499 1.236 . S
O511 Tb480 2.341 . S
O511 C499 1.266 . S
H512 C484 0.929 . S
H513 C485 0.931 . S
H514 C487 0.930 . S
H515 C488 0.930 . S
H516 C493 0.929 . S
H517 C494 0.931 . S
H518 C496 0.930 . S
H519 C497 0.930 . S
Tb520 C522 2.809 . S
Tb520 O540 2.484 . S
Tb520 O541 2.440 . S
Tb520 O542 2.658 . S
Tb520 O543 2.409 . S
Tb520 O544 2.378 . S
Tb520 O548 2.325 . S
Tb520 O551 2.341 . S
Tb521 C531 2.809 . S
Tb521 O542 2.325 . S
Tb521 O545 2.341 . S
Tb521 O546 2.484 . S
Tb521 O547 2.440 . S
Tb521 O548 2.658 . S
Tb521 O549 2.409 1_545 S
Tb521 O550 2.378 . S
C522 Tb520 2.809 . S
C522 C523 1.514 . S
C522 O540 1.248 . S
C522 O541 1.266 . S
C523 C522 1.514 . S
C523 C524 1.359 1_545 S
C523 C528 1.348 . S
C524 C523 1.359 1_565 S
C524 C525 1.380 . S
C524 H552 0.929 . S
C525 C524 1.380 . S
C525 C526 1.347 1_565 S
C525 H553 0.931 . S
C526 C525 1.347 1_545 S
C526 C527 1.369 . S
C527 C526 1.369 . S
C527 C528 1.408 . S
C527 H554 0.930 . S
C528 C523 1.348 . S
C528 C527 1.408 . S
C528 H555 0.930 . S
C529 O542 1.281 . S
C529 O543 1.254 . S
C530 O544 1.236 . S
C530 O545 1.266 . S
C531 Tb521 2.809 . S
C531 C532 1.514 . S
C531 O546 1.248 . S
C531 O547 1.266 . S
C532 C531 1.514 . S
C532 C533 1.359 . S
C532 C537 1.348 . S
C533 C532 1.359 . S
C533 C534 1.380 . S
C533 H556 0.929 . S
C534 C533 1.380 . S
C534 C535 1.347 . S
C534 H557 0.931 . S
C535 C534 1.347 . S
C535 C536 1.369 . S
C536 C535 1.369 . S
C536 C537 1.408 . S
C536 H558 0.930 . S
C537 C532 1.348 . S
C537 C536 1.408 . S
C537 H559 0.930 . S
C538 O548 1.281 1_565 S
C538 O549 1.254 . S
C539 O550 1.236 . S
C539 O551 1.266 . S
O540 Tb520 2.484 . S
O540 C522 1.248 . S
O541 Tb520 2.440 . S
O541 C522 1.266 . S
O542 Tb520 2.658 . S
O542 Tb521 2.325 . S
O542 C529 1.281 . S
O543 Tb520 2.409 . S
O543 C529 1.254 . S
O544 Tb520 2.378 . S
O544 C530 1.236 . S
O545 Tb521 2.341 . S
O545 C530 1.266 . S
O546 Tb521 2.484 . S
O546 C531 1.248 . S
O547 Tb521 2.440 . S
O547 C531 1.266 . S
O548 Tb520 2.325 . S
O548 Tb521 2.658 . S
O548 C538 1.281 1_545 S
O549 Tb521 2.409 1_565 S
O549 C538 1.254 . S
O550 Tb521 2.378 . S
O550 C539 1.236 . S
O551 Tb520 2.341 . S
O551 C539 1.266 . S
H552 C524 0.929 . S
H553 C525 0.931 . S
H554 C527 0.930 . S
H555 C528 0.930 . S
H556 C533 0.929 . S
H557 C534 0.931 . S
H558 C536 0.930 . S
H559 C537 0.930 . S
Tb560 C562 2.809 . S
Tb560 O580 2.484 . S
Tb560 O581 2.440 . S
Tb560 O582 2.658 . S
Tb560 O583 2.409 . S
Tb560 O584 2.378 . S
Tb560 O588 2.325 . S
Tb560 O591 2.341 . S
Tb561 C571 2.809 . S
Tb561 O582 2.325 . S
Tb561 O585 2.341 . S
Tb561 O586 2.484 . S
Tb561 O587 2.440 . S
Tb561 O588 2.658 . S
Tb561 O589 2.409 . S
Tb561 O590 2.378 . S
C562 Tb560 2.809 . S
C562 C563 1.514 . S
C562 O580 1.248 . S
C562 O581 1.266 . S
C563 C562 1.514 . S
C563 C564 1.359 . S
C563 C568 1.348 . S
C564 C563 1.359 . S
C564 C565 1.380 . S
C564 H592 0.929 . S
C565 C564 1.380 . S
C565 C566 1.347 . S
C565 H593 0.931 . S
C566 C565 1.347 . S
C566 C567 1.369 . S
C567 C566 1.369 . S
C567 C568 1.408 . S
C567 H594 0.930 . S
C568 C563 1.348 . S
C568 C567 1.408 . S
C568 H595 0.930 . S
C569 O582 1.281 . S
C569 O583 1.254 . S
C570 O584 1.236 . S
C570 O585 1.266 . S
C571 Tb561 2.809 . S
C571 C572 1.514 . S
C571 O586 1.248 . S
C571 O587 1.266 . S
C572 C571 1.514 . S
C572 C573 1.359 . S
C572 C577 1.348 . S
C573 C572 1.359 . S
C573 C574 1.380 . S
C573 H596 0.929 . S
C574 C573 1.380 . S
C574 C575 1.347 . S
C574 H597 0.931 . S
C575 C574 1.347 . S
C575 C576 1.369 . S
C576 C575 1.369 . S
C576 C577 1.408 . S
C576 H598 0.930 . S
C577 C572 1.348 . S
C577 C576 1.408 . S
C577 H599 0.930 . S
C578 O588 1.281 . S
C578 O589 1.254 . S
C579 O590 1.236 . S
C579 O591 1.266 . S
O580 Tb560 2.484 . S
O580 C562 1.248 . S
O581 Tb560 2.440 . S
O581 C562 1.266 . S
O582 Tb560 2.658 . S
O582 Tb561 2.325 . S
O582 C569 1.281 . S
O583 Tb560 2.409 . S
O583 C569 1.254 . S
O584 Tb560 2.378 . S
O584 C570 1.236 . S
O585 Tb561 2.341 . S
O585 C570 1.266 . S
O586 Tb561 2.484 . S
O586 C571 1.248 . S
O587 Tb561 2.440 . S
O587 C571 1.266 . S
O588 Tb560 2.325 . S
O588 Tb561 2.658 . S
O588 C578 1.281 . S
O589 Tb561 2.409 . S
O589 C578 1.254 . S
O590 Tb561 2.378 . S
O590 C579 1.236 . S
O591 Tb560 2.341 . S
O591 C579 1.266 . S
H592 C564 0.929 . S
H593 C565 0.931 . S
H594 C567 0.930 . S
H595 C568 0.930 . S
H596 C573 0.929 . S
H597 C574 0.931 . S
H598 C576 0.930 . S
H599 C577 0.930 . S
Tb600 C602 2.809 . S
Tb600 O620 2.484 . S
Tb600 O621 2.440 . S
Tb600 O622 2.658 . S
Tb600 O623 2.409 . S
Tb600 O624 2.378 . S
Tb600 O628 2.325 . S
Tb600 O631 2.341 . S
Tb601 C611 2.809 . S
Tb601 O622 2.325 1_455 S
Tb601 O625 2.341 . S
Tb601 O626 2.484 . S
Tb601 O627 2.440 . S
Tb601 O628 2.658 1_455 S
Tb601 O629 2.409 1_465 S
Tb601 O630 2.378 1_455 S
C602 Tb600 2.809 . S
C602 C603 1.514 . S
C602 O620 1.248 . S
C602 O621 1.266 . S
C603 C602 1.514 . S
C603 C604 1.359 1_565 S
C603 C608 1.348 . S
C604 C603 1.359 1_545 S
C604 C605 1.380 . S
C604 H632 0.929 . S
C605 C604 1.380 . S
C605 C606 1.347 1_545 S
C605 H633 0.931 . S
C606 C605 1.347 1_565 S
C606 C607 1.369 . S
C607 C606 1.369 . S
C607 C608 1.408 . S
C607 H634 0.930 . S
C608 C603 1.348 . S
C608 C607 1.408 . S
C608 H635 0.930 . S
C609 O622 1.281 . S
C609 O623 1.254 . S
C610 O624 1.236 . S
C610 O625 1.266 1_655 S
C611 Tb601 2.809 . S
C611 C612 1.514 . S
C611 O626 1.248 . S
C611 O627 1.266 . S
C612 C611 1.514 . S
C612 C613 1.359 . S
C612 C617 1.348 . S
C613 C612 1.359 . S
C613 C614 1.380 . S
C613 H636 0.929 . S
C614 C613 1.380 . S
C614 C615 1.347 . S
C614 H637 0.931 . S
C615 C614 1.347 . S
C615 C616 1.369 . S
C616 C615 1.369 . S
C616 C617 1.408 . S
C616 H638 0.930 . S
C617 C612 1.348 . S
C617 C616 1.408 . S
C617 H639 0.930 . S
C618 O628 1.281 1_545 S
C618 O629 1.254 . S
C619 O630 1.236 . S
C619 O631 1.266 . S
O620 Tb600 2.484 . S
O620 C602 1.248 . S
O621 Tb600 2.440 . S
O621 C602 1.266 . S
O622 Tb600 2.658 . S
O622 Tb601 2.325 1_655 S
O622 C609 1.281 . S
O623 Tb600 2.409 . S
O623 C609 1.254 . S
O624 Tb600 2.378 . S
O624 C610 1.236 . S
O625 Tb601 2.341 . S
O625 C610 1.266 1_455 S
O626 Tb601 2.484 . S
O626 C611 1.248 . S
O627 Tb601 2.440 . S
O627 C611 1.266 . S
O628 Tb600 2.325 . S
O628 Tb601 2.658 1_655 S
O628 C618 1.281 1_565 S
O629 Tb601 2.409 1_645 S
O629 C618 1.254 . S
O630 Tb601 2.378 1_655 S
O630 C619 1.236 . S
O631 Tb600 2.341 . S
O631 C619 1.266 . S
H632 C604 0.929 . S
H633 C605 0.931 . S
H634 C607 0.930 . S
H635 C608 0.930 . S
H636 C613 0.929 . S
H637 C614 0.931 . S
H638 C616 0.930 . S
H639 C617 0.930 . S
Tb640 C642 2.809 . S
Tb640 O660 2.484 . S
Tb640 O661 2.440 . S
Tb640 O662 2.658 . S
Tb640 O663 2.409 . S
Tb640 O664 2.378 . S
Tb640 O668 2.325 . S
Tb640 O671 2.341 . S
Tb641 C651 2.809 . S
Tb641 O662 2.325 . S
Tb641 O665 2.341 . S
Tb641 O666 2.484 . S
Tb641 O667 2.440 . S
Tb641 O668 2.658 . S
Tb641 O669 2.409 . S
Tb641 O670 2.378 . S
C642 Tb640 2.809 . S
C642 C643 1.514 . S
C642 O660 1.248 . S
C642 O661 1.266 . S
C643 C642 1.514 . S
C643 C644 1.359 . S
C643 C648 1.348 . S
C644 C643 1.359 . S
C644 C645 1.380 . S
C644 H672 0.929 . S
C645 C644 1.380 . S
C645 C646 1.347 . S
C645 H673 0.931 . S
C646 C645 1.347 . S
C646 C647 1.369 . S
C647 C646 1.369 . S
C647 C648 1.408 . S
C647 H674 0.930 . S
C648 C643 1.348 . S
C648 C647 1.408 . S
C648 H675 0.930 . S
C649 O662 1.281 . S
C649 O663 1.254 . S
C650 O664 1.236 . S
C650 O665 1.266 . S
C651 Tb641 2.809 . S
C651 C652 1.514 . S
C651 O666 1.248 . S
C651 O667 1.266 . S
C652 C651 1.514 . S
C652 C653 1.359 . S
C652 C657 1.348 . S
C653 C652 1.359 . S
C653 C654 1.380 . S
C653 H676 0.929 . S
C654 C653 1.380 . S
C654 C655 1.347 . S
C654 H677 0.931 . S
C655 C654 1.347 . S
C655 C656 1.369 . S
C656 C655 1.369 . S
C656 C657 1.408 . S
C656 H678 0.930 . S
C657 C652 1.348 . S
C657 C656 1.408 . S
C657 H679 0.930 . S
C658 O668 1.281 . S
C658 O669 1.254 . S
C659 O670 1.236 . S
C659 O671 1.266 . S
O660 Tb640 2.484 . S
O660 C642 1.248 . S
O661 Tb640 2.440 . S
O661 C642 1.266 . S
O662 Tb640 2.658 . S
O662 Tb641 2.325 . S
O662 C649 1.281 . S
O663 Tb640 2.409 . S
O663 C649 1.254 . S
O664 Tb640 2.378 . S
O664 C650 1.236 . S
O665 Tb641 2.341 . S
O665 C650 1.266 . S
O666 Tb641 2.484 . S
O666 C651 1.248 . S
O667 Tb641 2.440 . S
O667 C651 1.266 . S
O668 Tb640 2.325 . S
O668 Tb641 2.658 . S
O668 C658 1.281 . S
O669 Tb641 2.409 . S
O669 C658 1.254 . S
O670 Tb641 2.378 . S
O670 C659 1.236 . S
O671 Tb640 2.341 . S
O671 C659 1.266 . S
H672 C644 0.929 . S
H673 C645 0.931 . S
H674 C647 0.930 . S
H675 C648 0.930 . S
H676 C653 0.929 . S
H677 C654 0.931 . S
H678 C656 0.930 . S
H679 C657 0.930 . S
Tb680 C682 2.809 . S
Tb680 O700 2.484 . S
Tb680 O701 2.440 . S
Tb680 O702 2.658 . S
Tb680 O703 2.409 . S
Tb680 O704 2.378 . S
Tb680 O708 2.325 . S
Tb680 O711 2.341 . S
Tb681 C691 2.809 . S
Tb681 O702 2.325 . S
Tb681 O705 2.341 . S
Tb681 O706 2.484 . S
Tb681 O707 2.440 . S
Tb681 O708 2.658 . S
Tb681 O709 2.409 . S
Tb681 O710 2.378 . S
C682 Tb680 2.809 . S
C682 C683 1.514 . S
C682 O700 1.248 . S
C682 O701 1.266 . S
C683 C682 1.514 . S
C683 C684 1.359 . S
C683 C688 1.348 . S
C684 C683 1.359 . S
C684 C685 1.380 . S
C684 H712 0.929 . S
C685 C684 1.380 . S
C685 C686 1.347 . S
C685 H713 0.931 . S
C686 C685 1.347 . S
C686 C687 1.369 . S
C687 C686 1.369 . S
C687 C688 1.408 . S
C687 H714 0.930 . S
C688 C683 1.348 . S
C688 C687 1.408 . S
C688 H715 0.930 . S
C689 O702 1.281 . S
C689 O703 1.254 . S
C690 O704 1.236 . S
C690 O705 1.266 . S
C691 Tb681 2.809 . S
C691 C692 1.514 . S
C691 O706 1.248 . S
C691 O707 1.266 . S
C692 C691 1.514 . S
C692 C693 1.359 . S
C692 C697 1.348 . S
C693 C692 1.359 . S
C693 C694 1.380 . S
C693 H716 0.929 . S
C694 C693 1.380 . S
C694 C695 1.347 . S
C694 H717 0.931 . S
C695 C694 1.347 . S
C695 C696 1.369 . S
C696 C695 1.369 . S
C696 C697 1.408 . S
C696 H718 0.930 . S
C697 C692 1.348 . S
C697 C696 1.408 . S
C697 H719 0.930 . S
C698 O708 1.281 . S
C698 O709 1.254 . S
C699 O710 1.236 . S
C699 O711 1.266 . S
O700 Tb680 2.484 . S
O700 C682 1.248 . S
O701 Tb680 2.440 . S
O701 C682 1.266 . S
O702 Tb680 2.658 . S
O702 Tb681 2.325 . S
O702 C689 1.281 . S
O703 Tb680 2.409 . S
O703 C689 1.254 . S
O704 Tb680 2.378 . S
O704 C690 1.236 . S
O705 Tb681 2.341 . S
O705 C690 1.266 . S
O706 Tb681 2.484 . S
O706 C691 1.248 . S
O707 Tb681 2.440 . S
O707 C691 1.266 . S
O708 Tb680 2.325 . S
O708 Tb681 2.658 . S
O708 C698 1.281 . S
O709 Tb681 2.409 . S
O709 C698 1.254 . S
O710 Tb681 2.378 . S
O710 C699 1.236 . S
O711 Tb680 2.341 . S
O711 C699 1.266 . S
H712 C684 0.929 . S
H713 C685 0.931 . S
H714 C687 0.930 . S
H715 C688 0.930 . S
H716 C693 0.929 . S
H717 C694 0.931 . S
H718 C696 0.930 . S
H719 C697 0.930 . S
Tb720 C722 2.809 . S
Tb720 O740 2.484 . S
Tb720 O741 2.440 . S
Tb720 O742 2.658 . S
Tb720 O743 2.409 . S
Tb720 O744 2.378 . S
Tb720 O748 2.325 . S
Tb720 O751 2.341 . S
Tb721 C731 2.809 . S
Tb721 O742 2.325 . S
Tb721 O745 2.341 . S
Tb721 O746 2.484 . S
Tb721 O747 2.440 . S
Tb721 O748 2.658 . S
Tb721 O749 2.409 . S
Tb721 O750 2.378 . S
C722 Tb720 2.809 . S
C722 C723 1.514 . S
C722 O740 1.248 . S
C722 O741 1.266 . S
C723 C722 1.514 . S
C723 C724 1.359 . S
C723 C728 1.348 . S
C724 C723 1.359 . S
C724 C725 1.380 . S
C724 H752 0.929 . S
C725 C724 1.380 . S
C725 C726 1.347 . S
C725 H753 0.931 . S
C726 C725 1.347 . S
C726 C727 1.369 . S
C727 C726 1.369 . S
C727 C728 1.408 . S
C727 H754 0.930 . S
C728 C723 1.348 . S
C728 C727 1.408 . S
C728 H755 0.930 . S
C729 O742 1.281 . S
C729 O743 1.254 . S
C730 O744 1.236 . S
C730 O745 1.266 . S
C731 Tb721 2.809 . S
C731 C732 1.514 . S
C731 O746 1.248 . S
C731 O747 1.266 . S
C732 C731 1.514 . S
C732 C733 1.359 . S
C732 C737 1.348 . S
C733 C732 1.359 . S
C733 C734 1.380 . S
C733 H756 0.929 . S
C734 C733 1.380 . S
C734 C735 1.347 . S
C734 H757 0.931 . S
C735 C734 1.347 . S
C735 C736 1.369 . S
C736 C735 1.369 . S
C736 C737 1.408 . S
C736 H758 0.930 . S
C737 C732 1.348 . S
C737 C736 1.408 . S
C737 H759 0.930 . S
C738 O748 1.281 . S
C738 O749 1.254 . S
C739 O750 1.236 . S
C739 O751 1.266 . S
O740 Tb720 2.484 . S
O740 C722 1.248 . S
O741 Tb720 2.440 . S
O741 C722 1.266 . S
O742 Tb720 2.658 . S
O742 Tb721 2.325 . S
O742 C729 1.281 . S
O743 Tb720 2.409 . S
O743 C729 1.254 . S
O744 Tb720 2.378 . S
O744 C730 1.236 . S
O745 Tb721 2.341 . S
O745 C730 1.266 . S
O746 Tb721 2.484 . S
O746 C731 1.248 . S
O747 Tb721 2.440 . S
O747 C731 1.266 . S
O748 Tb720 2.325 . S
O748 Tb721 2.658 . S
O748 C738 1.281 . S
O749 Tb721 2.409 . S
O749 C738 1.254 . S
O750 Tb721 2.378 . S
O750 C739 1.236 . S
O751 Tb720 2.341 . S
O751 C739 1.266 . S
H752 C724 0.929 . S
H753 C725 0.931 . S
H754 C727 0.930 . S
H755 C728 0.930 . S
H756 C733 0.929 . S
H757 C734 0.931 . S
H758 C736 0.930 . S
H759 C737 0.930 . S
Tb760 C762 2.809 . S
Tb760 O780 2.484 . S
Tb760 O781 2.440 . S
Tb760 O782 2.658 1_455 S
Tb760 O783 2.409 1_455 S
Tb760 O784 2.378 1_455 S
Tb760 O788 2.325 1_455 S
Tb760 O791 2.341 . S
Tb761 C771 2.809 . S
Tb761 O782 2.325 . S
Tb761 O785 2.341 . S
Tb761 O786 2.484 . S
Tb761 O787 2.440 . S
Tb761 O788 2.658 . S
Tb761 O789 2.409 . S
Tb761 O790 2.378 . S
C762 Tb760 2.809 . S
C762 C763 1.514 . S
C762 O780 1.248 . S
C762 O781 1.266 . S
C763 C762 1.514 . S
C763 C764 1.359 . S
C763 C768 1.348 . S
C764 C763 1.359 . S
C764 C765 1.380 . S
C764 H792 0.929 . S
C765 C764 1.380 . S
C765 C766 1.347 . S
C765 H793 0.931 . S
C766 C765 1.347 . S
C766 C767 1.369 . S
C767 C766 1.369 . S
C767 C768 1.408 . S
C767 H794 0.930 . S
C768 C763 1.348 . S
C768 C767 1.408 . S
C768 H795 0.930 . S
C769 O782 1.281 . S
C769 O783 1.254 . S
C770 O784 1.236 . S
C770 O785 1.266 . S
C771 Tb761 2.809 . S
C771 C772 1.514 . S
C771 O786 1.248 . S
C771 O787 1.266 . S
C772 C771 1.514 . S
C772 C773 1.359 . S
C772 C777 1.348 . S
C773 C772 1.359 . S
C773 C774 1.380 . S
C773 H796 0.929 . S
C774 C773 1.380 . S
C774 C775 1.347 . S
C774 H797 0.931 . S
C775 C774 1.347 . S
C775 C776 1.369 . S
C776 C775 1.369 . S
C776 C777 1.408 . S
C776 H798 0.930 . S
C777 C772 1.348 . S
C777 C776 1.408 . S
C777 H799 0.930 . S
C778 O788 1.281 . S
C778 O789 1.254 . S
C779 O790 1.236 . S
C779 O791 1.266 1_655 S
O780 Tb760 2.484 . S
O780 C762 1.248 . S
O781 Tb760 2.440 . S
O781 C762 1.266 . S
O782 Tb760 2.658 1_655 S
O782 Tb761 2.325 . S
O782 C769 1.281 . S
O783 Tb760 2.409 1_655 S
O783 C769 1.254 . S
O784 Tb760 2.378 1_655 S
O784 C770 1.236 . S
O785 Tb761 2.341 . S
O785 C770 1.266 . S
O786 Tb761 2.484 . S
O786 C771 1.248 . S
O787 Tb761 2.440 . S
O787 C771 1.266 . S
O788 Tb760 2.325 1_655 S
O788 Tb761 2.658 . S
O788 C778 1.281 . S
O789 Tb761 2.409 . S
O789 C778 1.254 . S
O790 Tb761 2.378 . S
O790 C779 1.236 . S
O791 Tb760 2.341 . S
O791 C779 1.266 1_455 S
H792 C764 0.929 . S
H793 C765 0.931 . S
H794 C767 0.930 . S
H795 C768 0.930 . S
H796 C773 0.929 . S
H797 C774 0.931 . S
H798 C776 0.930 . S
H799 C777 0.930 . S
Tb800 C802 2.809 . S
Tb800 O820 2.484 . S
Tb800 O821 2.440 . S
Tb800 O822 2.658 . S
Tb800 O823 2.409 . S
Tb800 O824 2.378 . S
Tb800 O828 2.325 . S
Tb800 O831 2.341 . S
Tb801 C811 2.809 . S
Tb801 O822 2.325 . S
Tb801 O825 2.341 . S
Tb801 O826 2.484 . S
Tb801 O827 2.440 . S
Tb801 O828 2.658 . S
Tb801 O829 2.409 . S
Tb801 O830 2.378 . S
C802 Tb800 2.809 . S
C802 C803 1.514 . S
C802 O820 1.248 . S
C802 O821 1.266 . S
C803 C802 1.514 . S
C803 C804 1.359 . S
C803 C808 1.348 . S
C804 C803 1.359 . S
C804 C805 1.380 . S
C804 H832 0.929 . S
C805 C804 1.380 . S
C805 C806 1.347 . S
C805 H833 0.931 . S
C806 C805 1.347 . S
C806 C807 1.369 . S
C807 C806 1.369 . S
C807 C808 1.408 . S
C807 H834 0.930 . S
C808 C803 1.348 . S
C808 C807 1.408 . S
C808 H835 0.930 . S
C809 O822 1.281 . S
C809 O823 1.254 . S
C810 O824 1.236 . S
C810 O825 1.266 . S
C811 Tb801 2.809 . S
C811 C812 1.514 . S
C811 O826 1.248 . S
C811 O827 1.266 . S
C812 C811 1.514 . S
C812 C813 1.359 . S
C812 C817 1.348 . S
C813 C812 1.359 . S
C813 C814 1.380 . S
C813 H836 0.929 . S
C814 C813 1.380 . S
C814 C815 1.347 . S
C814 H837 0.931 . S
C815 C814 1.347 . S
C815 C816 1.369 . S
C816 C815 1.369 . S
C816 C817 1.408 . S
C816 H838 0.930 . S
C817 C812 1.348 . S
C817 C816 1.408 . S
C817 H839 0.930 . S
C818 O828 1.281 . S
C818 O829 1.254 . S
C819 O830 1.236 . S
C819 O831 1.266 . S
O820 Tb800 2.484 . S
O820 C802 1.248 . S
O821 Tb800 2.440 . S
O821 C802 1.266 . S
O822 Tb800 2.658 . S
O822 Tb801 2.325 . S
O822 C809 1.281 . S
O823 Tb800 2.409 . S
O823 C809 1.254 . S
O824 Tb800 2.378 . S
O824 C810 1.236 . S
O825 Tb801 2.341 . S
O825 C810 1.266 . S
O826 Tb801 2.484 . S
O826 C811 1.248 . S
O827 Tb801 2.440 . S
O827 C811 1.266 . S
O828 Tb800 2.325 . S
O828 Tb801 2.658 . S
O828 C818 1.281 . S
O829 Tb801 2.409 . S
O829 C818 1.254 . S
O830 Tb801 2.378 . S
O830 C819 1.236 . S
O831 Tb800 2.341 . S
O831 C819 1.266 . S
H832 C804 0.929 . S
H833 C805 0.931 . S
H834 C807 0.930 . S
H835 C808 0.930 . S
H836 C813 0.929 . S
H837 C814 0.931 . S
H838 C816 0.930 . S
H839 C817 0.930 . S
Tb840 C842 2.809 . S
Tb840 O860 2.484 . S
Tb840 O861 2.440 . S
Tb840 O862 2.658 1_455 S
Tb840 O863 2.409 1_455 S
Tb840 O864 2.378 1_455 S
Tb840 O868 2.325 1_455 S
Tb840 O871 2.341 . S
Tb841 C851 2.809 . S
Tb841 O862 2.325 . S
Tb841 O865 2.341 . S
Tb841 O866 2.484 . S
Tb841 O867 2.440 . S
Tb841 O868 2.658 . S
Tb841 O869 2.409 . S
Tb841 O870 2.378 . S
C842 Tb840 2.809 . S
C842 C843 1.514 . S
C842 O860 1.248 . S
C842 O861 1.266 . S
C843 C842 1.514 . S
C843 C844 1.359 . S
C843 C848 1.348 . S
C844 C843 1.359 . S
C844 C845 1.380 . S
C844 H872 0.929 . S
C845 C844 1.380 . S
C845 C846 1.347 . S
C845 H873 0.931 . S
C846 C845 1.347 . S
C846 C847 1.369 . S
C847 C846 1.369 . S
C847 C848 1.408 . S
C847 H874 0.930 . S
C848 C843 1.348 . S
C848 C847 1.408 . S
C848 H875 0.930 . S
C849 O862 1.281 . S
C849 O863 1.254 . S
C850 O864 1.236 . S
C850 O865 1.266 . S
C851 Tb841 2.809 . S
C851 C852 1.514 . S
C851 O866 1.248 . S
C851 O867 1.266 . S
C852 C851 1.514 . S
C852 C853 1.359 . S
C852 C857 1.348 . S
C853 C852 1.359 . S
C853 C854 1.380 . S
C853 H876 0.929 . S
C854 C853 1.380 . S
C854 C855 1.347 . S
C854 H877 0.931 . S
C855 C854 1.347 . S
C855 C856 1.369 . S
C856 C855 1.369 . S
C856 C857 1.408 . S
C856 H878 0.930 . S
C857 C852 1.348 . S
C857 C856 1.408 . S
C857 H879 0.930 . S
C858 O868 1.281 . S
C858 O869 1.254 . S
C859 O870 1.236 . S
C859 O871 1.266 1_655 S
O860 Tb840 2.484 . S
O860 C842 1.248 . S
O861 Tb840 2.440 . S
O861 C842 1.266 . S
O862 Tb840 2.658 1_655 S
O862 Tb841 2.325 . S
O862 C849 1.281 . S
O863 Tb840 2.409 1_655 S
O863 C849 1.254 . S
O864 Tb840 2.378 1_655 S
O864 C850 1.236 . S
O865 Tb841 2.341 . S
O865 C850 1.266 . S
O866 Tb841 2.484 . S
O866 C851 1.248 . S
O867 Tb841 2.440 . S
O867 C851 1.266 . S
O868 Tb840 2.325 1_655 S
O868 Tb841 2.658 . S
O868 C858 1.281 . S
O869 Tb841 2.409 . S
O869 C858 1.254 . S
O870 Tb841 2.378 . S
O870 C859 1.236 . S
O871 Tb840 2.341 . S
O871 C859 1.266 1_455 S
H872 C844 0.929 . S
H873 C845 0.931 . S
H874 C847 0.930 . S
H875 C848 0.930 . S
H876 C853 0.929 . S
H877 C854 0.931 . S
H878 C856 0.930 . S
H879 C857 0.930 . S
Tb880 C882 2.809 . S
Tb880 O900 2.484 . S
Tb880 O901 2.440 . S
Tb880 O902 2.658 . S
Tb880 O903 2.409 . S
Tb880 O904 2.378 . S
Tb880 O908 2.325 . S
Tb880 O911 2.341 . S
Tb881 C891 2.809 . S
Tb881 O902 2.325 . S
Tb881 O905 2.341 . S
Tb881 O906 2.484 . S
Tb881 O907 2.440 . S
Tb881 O908 2.658 . S
Tb881 O909 2.409 . S
Tb881 O910 2.378 . S
C882 Tb880 2.809 . S
C882 C883 1.514 . S
C882 O900 1.248 . S
C882 O901 1.266 . S
C883 C882 1.514 . S
C883 C884 1.359 . S
C883 C888 1.348 . S
C884 C883 1.359 . S
C884 C885 1.380 . S
C884 H912 0.929 . S
C885 C884 1.380 . S
C885 C886 1.347 . S
C885 H913 0.931 . S
C886 C885 1.347 . S
C886 C887 1.369 . S
C887 C886 1.369 . S
C887 C888 1.408 . S
C887 H914 0.930 . S
C888 C883 1.348 . S
C888 C887 1.408 . S
C888 H915 0.930 . S
C889 O902 1.281 . S
C889 O903 1.254 . S
C890 O904 1.236 . S
C890 O905 1.266 . S
C891 Tb881 2.809 . S
C891 C892 1.514 . S
C891 O906 1.248 . S
C891 O907 1.266 . S
C892 C891 1.514 . S
C892 C893 1.359 . S
C892 C897 1.348 . S
C893 C892 1.359 . S
C893 C894 1.380 . S
C893 H916 0.929 . S
C894 C893 1.380 . S
C894 C895 1.347 . S
C894 H917 0.931 . S
C895 C894 1.347 . S
C895 C896 1.369 . S
C896 C895 1.369 . S
C896 C897 1.408 . S
C896 H918 0.930 . S
C897 C892 1.348 . S
C897 C896 1.408 . S
C897 H919 0.930 . S
C898 O908 1.281 . S
C898 O909 1.254 . S
C899 O910 1.236 . S
C899 O911 1.266 . S
O900 Tb880 2.484 . S
O900 C882 1.248 . S
O901 Tb880 2.440 . S
O901 C882 1.266 . S
O902 Tb880 2.658 . S
O902 Tb881 2.325 . S
O902 C889 1.281 . S
O903 Tb880 2.409 . S
O903 C889 1.254 . S
O904 Tb880 2.378 . S
O904 C890 1.236 . S
O905 Tb881 2.341 . S
O905 C890 1.266 . S
O906 Tb881 2.484 . S
O906 C891 1.248 . S
O907 Tb881 2.440 . S
O907 C891 1.266 . S
O908 Tb880 2.325 . S
O908 Tb881 2.658 . S
O908 C898 1.281 . S
O909 Tb881 2.409 . S
O909 C898 1.254 . S
O910 Tb881 2.378 . S
O910 C899 1.236 . S
O911 Tb880 2.341 . S
O911 C899 1.266 . S
H912 C884 0.929 . S
H913 C885 0.931 . S
H914 C887 0.930 . S
H915 C888 0.930 . S
H916 C893 0.929 . S
H917 C894 0.931 . S
H918 C896 0.930 . S
H919 C897 0.930 . S
Tb920 C922 2.809 . S
Tb920 O940 2.484 . S
Tb920 O941 2.440 . S
Tb920 O942 2.658 . S
Tb920 O943 2.409 . S
Tb920 O944 2.378 . S
Tb920 O948 2.325 . S
Tb920 O951 2.341 . S
Tb921 C931 2.809 . S
Tb921 O942 2.325 . S
Tb921 O945 2.341 . S
Tb921 O946 2.484 . S
Tb921 O947 2.440 . S
Tb921 O948 2.658 . S
Tb921 O949 2.409 . S
Tb921 O950 2.378 . S
C922 Tb920 2.809 . S
C922 C923 1.514 . S
C922 O940 1.248 . S
C922 O941 1.266 . S
C923 C922 1.514 . S
C923 C924 1.359 . S
C923 C928 1.348 . S
C924 C923 1.359 . S
C924 C925 1.380 . S
C924 H952 0.929 . S
C925 C924 1.380 . S
C925 C926 1.347 . S
C925 H953 0.931 . S
C926 C925 1.347 . S
C926 C927 1.369 . S
C927 C926 1.369 . S
C927 C928 1.408 . S
C927 H954 0.930 . S
C928 C923 1.348 . S
C928 C927 1.408 . S
C928 H955 0.930 . S
C929 O942 1.281 . S
C929 O943 1.254 . S
C930 O944 1.236 . S
C930 O945 1.266 . S
C931 Tb921 2.809 . S
C931 C932 1.514 . S
C931 O946 1.248 . S
C931 O947 1.266 . S
C932 C931 1.514 . S
C932 C933 1.359 . S
C932 C937 1.348 . S
C933 C932 1.359 . S
C933 C934 1.380 . S
C933 H956 0.929 . S
C934 C933 1.380 . S
C934 C935 1.347 . S
C934 H957 0.931 . S
C935 C934 1.347 . S
C935 C936 1.369 . S
C936 C935 1.369 . S
C936 C937 1.408 . S
C936 H958 0.930 . S
C937 C932 1.348 . S
C937 C936 1.408 . S
C937 H959 0.930 . S
C938 O948 1.281 . S
C938 O949 1.254 . S
C939 O950 1.236 . S
C939 O951 1.266 . S
O940 Tb920 2.484 . S
O940 C922 1.248 . S
O941 Tb920 2.440 . S
O941 C922 1.266 . S
O942 Tb920 2.658 . S
O942 Tb921 2.325 . S
O942 C929 1.281 . S
O943 Tb920 2.409 . S
O943 C929 1.254 . S
O944 Tb920 2.378 . S
O944 C930 1.236 . S
O945 Tb921 2.341 . S
O945 C930 1.266 . S
O946 Tb921 2.484 . S
O946 C931 1.248 . S
O947 Tb921 2.440 . S
O947 C931 1.266 . S
O948 Tb920 2.325 . S
O948 Tb921 2.658 . S
O948 C938 1.281 . S
O949 Tb921 2.409 . S
O949 C938 1.254 . S
O950 Tb921 2.378 . S
O950 C939 1.236 . S
O951 Tb920 2.341 . S
O951 C939 1.266 . S
H952 C924 0.929 . S
H953 C925 0.931 . S
H954 C927 0.930 . S
H955 C928 0.930 . S
H956 C933 0.929 . S
H957 C934 0.931 . S
H958 C936 0.930 . S
H959 C937 0.930 . S
Tb960 C962 2.809 . S
Tb960 O980 2.484 . S
Tb960 O981 2.440 . S
Tb960 O982 2.658 . S
Tb960 O983 2.409 . S
Tb960 O984 2.378 . S
Tb960 O988 2.325 . S
Tb960 O991 2.341 . S
Tb961 C971 2.809 . S
Tb961 O982 2.325 . S
Tb961 O985 2.341 . S
Tb961 O986 2.484 . S
Tb961 O987 2.440 . S
Tb961 O988 2.658 . S
Tb961 O989 2.409 . S
Tb961 O990 2.378 . S
C962 Tb960 2.809 . S
C962 C963 1.514 . S
C962 O980 1.248 . S
C962 O981 1.266 . S
C963 C962 1.514 . S
C963 C964 1.359 . S
C963 C968 1.348 . S
C964 C963 1.359 . S
C964 C965 1.380 . S
C964 H992 0.929 . S
C965 C964 1.380 . S
C965 C966 1.347 . S
C965 H993 0.931 . S
C966 C965 1.347 . S
C966 C967 1.369 . S
C967 C966 1.369 . S
C967 C968 1.408 . S
C967 H994 0.930 . S
C968 C963 1.348 . S
C968 C967 1.408 . S
C968 H995 0.930 . S
C969 O982 1.281 . S
C969 O983 1.254 . S
C970 O984 1.236 . S
C970 O985 1.266 . S
C971 Tb961 2.809 . S
C971 C972 1.514 . S
C971 O986 1.248 . S
C971 O987 1.266 . S
C972 C971 1.514 . S
C972 C973 1.359 . S
C972 C977 1.348 . S
C973 C972 1.359 . S
C973 C974 1.380 . S
C973 H996 0.929 . S
C974 C973 1.380 . S
C974 C975 1.347 . S
C974 H997 0.931 . S
C975 C974 1.347 . S
C975 C976 1.369 . S
C976 C975 1.369 . S
C976 C977 1.408 . S
C976 H998 0.930 . S
C977 C972 1.348 . S
C977 C976 1.408 . S
C977 H999 0.930 . S
C978 O988 1.281 . S
C978 O989 1.254 . S
C979 O990 1.236 . S
C979 O991 1.266 . S
O980 Tb960 2.484 . S
O980 C962 1.248 . S
O981 Tb960 2.440 . S
O981 C962 1.266 . S
O982 Tb960 2.658 . S
O982 Tb961 2.325 . S
O982 C969 1.281 . S
O983 Tb960 2.409 . S
O983 C969 1.254 . S
O984 Tb960 2.378 . S
O984 C970 1.236 . S
O985 Tb961 2.341 . S
O985 C970 1.266 . S
O986 Tb961 2.484 . S
O986 C971 1.248 . S
O987 Tb961 2.440 . S
O987 C971 1.266 . S
O988 Tb960 2.325 . S
O988 Tb961 2.658 . S
O988 C978 1.281 . S
O989 Tb961 2.409 . S
O989 C978 1.254 . S
O990 Tb961 2.378 . S
O990 C979 1.236 . S
O991 Tb960 2.341 . S
O991 C979 1.266 . S
H992 C964 0.929 . S
H993 C965 0.931 . S
H994 C967 0.930 . S
H995 C968 0.930 . S
H996 C973 0.929 . S
H997 C974 0.931 . S
H998 C976 0.930 . S
H999 C977 0.930 . S
Tb1000 C1002 2.809 . S
Tb1000 O1020 2.484 . S
Tb1000 O1021 2.440 . S
Tb1000 O1022 2.658 . S
Tb1000 O1023 2.409 . S
Tb1000 O1024 2.378 . S
Tb1000 O1028 2.325 . S
Tb1000 O1031 2.341 . S
Tb1001 C1011 2.809 . S
Tb1001 O1022 2.325 . S
Tb1001 O1025 2.341 . S
Tb1001 O1026 2.484 . S
Tb1001 O1027 2.440 . S
Tb1001 O1028 2.658 . S
Tb1001 O1029 2.409 . S
Tb1001 O1030 2.378 . S
C1002 Tb1000 2.809 . S
C1002 C1003 1.514 . S
C1002 O1020 1.248 . S
C1002 O1021 1.266 . S
C1003 C1002 1.514 . S
C1003 C1004 1.359 . S
C1003 C1008 1.348 . S
C1004 C1003 1.359 . S
C1004 C1005 1.380 . S
C1004 H1032 0.929 . S
C1005 C1004 1.380 . S
C1005 C1006 1.347 . S
C1005 H1033 0.931 . S
C1006 C1005 1.347 . S
C1006 C1007 1.369 . S
C1007 C1006 1.369 . S
C1007 C1008 1.408 . S
C1007 H1034 0.930 . S
C1008 C1003 1.348 . S
C1008 C1007 1.408 . S
C1008 H1035 0.930 . S
C1009 O1022 1.281 . S
C1009 O1023 1.254 . S
C1010 O1024 1.236 . S
C1010 O1025 1.266 . S
C1011 Tb1001 2.809 . S
C1011 C1012 1.514 . S
C1011 O1026 1.248 . S
C1011 O1027 1.266 . S
C1012 C1011 1.514 . S
C1012 C1013 1.359 . S
C1012 C1017 1.348 . S
C1013 C1012 1.359 . S
C1013 C1014 1.380 . S
C1013 H1036 0.929 . S
C1014 C1013 1.380 . S
C1014 C1015 1.347 . S
C1014 H1037 0.931 . S
C1015 C1014 1.347 . S
C1015 C1016 1.369 . S
C1016 C1015 1.369 . S
C1016 C1017 1.408 . S
C1016 H1038 0.930 . S
C1017 C1012 1.348 . S
C1017 C1016 1.408 . S
C1017 H1039 0.930 . S
C1018 O1028 1.281 . S
C1018 O1029 1.254 . S
C1019 O1030 1.236 . S
C1019 O1031 1.266 . S
O1020 Tb1000 2.484 . S
O1020 C1002 1.248 . S
O1021 Tb1000 2.440 . S
O1021 C1002 1.266 . S
O1022 Tb1000 2.658 . S
O1022 Tb1001 2.325 . S
O1022 C1009 1.281 . S
O1023 Tb1000 2.409 . S
O1023 C1009 1.254 . S
O1024 Tb1000 2.378 . S
O1024 C1010 1.236 . S
O1025 Tb1001 2.341 . S
O1025 C1010 1.266 . S
O1026 Tb1001 2.484 . S
O1026 C1011 1.248 . S
O1027 Tb1001 2.440 . S
O1027 C1011 1.266 . S
O1028 Tb1000 2.325 . S
O1028 Tb1001 2.658 . S
O1028 C1018 1.281 . S
O1029 Tb1001 2.409 . S
O1029 C1018 1.254 . S
O1030 Tb1001 2.378 . S
O1030 C1019 1.236 . S
O1031 Tb1000 2.341 . S
O1031 C1019 1.266 . S
H1032 C1004 0.929 . S
H1033 C1005 0.931 . S
H1034 C1007 0.930 . S
H1035 C1008 0.930 . S
H1036 C1013 0.929 . S
H1037 C1014 0.931 . S
H1038 C1016 0.930 . S
H1039 C1017 0.930 . S
Tb1040 C1042 2.809 . S
Tb1040 O1060 2.484 . S
Tb1040 O1061 2.440 . S
Tb1040 O1062 2.658 . S
Tb1040 O1063 2.409 . S
Tb1040 O1064 2.378 . S
Tb1040 O1068 2.325 . S
Tb1040 O1071 2.341 . S
Tb1041 C1051 2.809 . S
Tb1041 O1062 2.325 . S
Tb1041 O1065 2.341 . S
Tb1041 O1066 2.484 . S
Tb1041 O1067 2.440 . S
Tb1041 O1068 2.658 . S
Tb1041 O1069 2.409 . S
Tb1041 O1070 2.378 . S
C1042 Tb1040 2.809 . S
C1042 C1043 1.514 . S
C1042 O1060 1.248 . S
C1042 O1061 1.266 . S
C1043 C1042 1.514 . S
C1043 C1044 1.359 . S
C1043 C1048 1.348 . S
C1044 C1043 1.359 . S
C1044 C1045 1.380 . S
C1044 H1072 0.929 . S
C1045 C1044 1.380 . S
C1045 C1046 1.347 . S
C1045 H1073 0.931 . S
C1046 C1045 1.347 . S
C1046 C1047 1.369 . S
C1047 C1046 1.369 . S
C1047 C1048 1.408 . S
C1047 H1074 0.930 . S
C1048 C1043 1.348 . S
C1048 C1047 1.408 . S
C1048 H1075 0.930 . S
C1049 O1062 1.281 . S
C1049 O1063 1.254 . S
C1050 O1064 1.236 . S
C1050 O1065 1.266 . S
C1051 Tb1041 2.809 . S
C1051 C1052 1.514 . S
C1051 O1066 1.248 . S
C1051 O1067 1.266 . S
C1052 C1051 1.514 . S
C1052 C1053 1.359 . S
C1052 C1057 1.348 . S
C1053 C1052 1.359 . S
C1053 C1054 1.380 . S
C1053 H1076 0.929 . S
C1054 C1053 1.380 . S
C1054 C1055 1.347 . S
C1054 H1077 0.931 . S
C1055 C1054 1.347 . S
C1055 C1056 1.369 . S
C1056 C1055 1.369 . S
C1056 C1057 1.408 . S
C1056 H1078 0.930 . S
C1057 C1052 1.348 . S
C1057 C1056 1.408 . S
C1057 H1079 0.930 . S
C1058 O1068 1.281 . S
C1058 O1069 1.254 . S
C1059 O1070 1.236 . S
C1059 O1071 1.266 . S
O1060 Tb1040 2.484 . S
O1060 C1042 1.248 . S
O1061 Tb1040 2.440 . S
O1061 C1042 1.266 . S
O1062 Tb1040 2.658 . S
O1062 Tb1041 2.325 . S
O1062 C1049 1.281 . S
O1063 Tb1040 2.409 . S
O1063 C1049 1.254 . S
O1064 Tb1040 2.378 . S
O1064 C1050 1.236 . S
O1065 Tb1041 2.341 . S
O1065 C1050 1.266 . S
O1066 Tb1041 2.484 . S
O1066 C1051 1.248 . S
O1067 Tb1041 2.440 . S
O1067 C1051 1.266 . S
O1068 Tb1040 2.325 . S
O1068 Tb1041 2.658 . S
O1068 C1058 1.281 . S
O1069 Tb1041 2.409 . S
O1069 C1058 1.254 . S
O1070 Tb1041 2.378 . S
O1070 C1059 1.236 . S
O1071 Tb1040 2.341 . S
O1071 C1059 1.266 . S
H1072 C1044 0.929 . S
H1073 C1045 0.931 . S
H1074 C1047 0.930 . S
H1075 C1048 0.930 . S
H1076 C1053 0.929 . S
H1077 C1054 0.931 . S
H1078 C1056 0.930 . S
H1079 C1057 0.930 . S
Tb1080 C1082 2.809 . S
Tb1080 O1100 2.484 . S
Tb1080 O1101 2.440 . S
Tb1080 O1102 2.658 . S
Tb1080 O1103 2.409 . S
Tb1080 O1104 2.378 . S
Tb1080 O1108 2.325 . S
Tb1080 O1111 2.341 . S
Tb1081 C1091 2.809 . S
Tb1081 O1102 2.325 1_655 S
Tb1081 O1105 2.341 . S
Tb1081 O1106 2.484 . S
Tb1081 O1107 2.440 . S
Tb1081 O1108 2.658 1_655 S
Tb1081 O1109 2.409 1_655 S
Tb1081 O1110 2.378 1_655 S
C1082 Tb1080 2.809 . S
C1082 C1083 1.514 . S
C1082 O1100 1.248 . S
C1082 O1101 1.266 . S
C1083 C1082 1.514 . S
C1083 C1084 1.359 . S
C1083 C1088 1.348 . S
C1084 C1083 1.359 . S
C1084 C1085 1.380 . S
C1084 H1112 0.929 . S
C1085 C1084 1.380 . S
C1085 C1086 1.347 . S
C1085 H1113 0.931 . S
C1086 C1085 1.347 . S
C1086 C1087 1.369 . S
C1087 C1086 1.369 . S
C1087 C1088 1.408 . S
C1087 H1114 0.930 . S
C1088 C1083 1.348 . S
C1088 C1087 1.408 . S
C1088 H1115 0.930 . S
C1089 O1102 1.281 . S
C1089 O1103 1.254 . S
C1090 O1104 1.236 . S
C1090 O1105 1.266 1_455 S
C1091 Tb1081 2.809 . S
C1091 C1092 1.514 . S
C1091 O1106 1.248 . S
C1091 O1107 1.266 . S
C1092 C1091 1.514 . S
C1092 C1093 1.359 . S
C1092 C1097 1.348 . S
C1093 C1092 1.359 . S
C1093 C1094 1.380 . S
C1093 H1116 0.929 . S
C1094 C1093 1.380 . S
C1094 C1095 1.347 . S
C1094 H1117 0.931 . S
C1095 C1094 1.347 . S
C1095 C1096 1.369 . S
C1096 C1095 1.369 . S
C1096 C1097 1.408 . S
C1096 H1118 0.930 . S
C1097 C1092 1.348 . S
C1097 C1096 1.408 . S
C1097 H1119 0.930 . S
C1098 O1108 1.281 . S
C1098 O1109 1.254 . S
C1099 O1110 1.236 . S
C1099 O1111 1.266 . S
O1100 Tb1080 2.484 . S
O1100 C1082 1.248 . S
O1101 Tb1080 2.440 . S
O1101 C1082 1.266 . S
O1102 Tb1080 2.658 . S
O1102 Tb1081 2.325 1_455 S
O1102 C1089 1.281 . S
O1103 Tb1080 2.409 . S
O1103 C1089 1.254 . S
O1104 Tb1080 2.378 . S
O1104 C1090 1.236 . S
O1105 Tb1081 2.341 . S
O1105 C1090 1.266 1_655 S
O1106 Tb1081 2.484 . S
O1106 C1091 1.248 . S
O1107 Tb1081 2.440 . S
O1107 C1091 1.266 . S
O1108 Tb1080 2.325 . S
O1108 Tb1081 2.658 1_455 S
O1108 C1098 1.281 . S
O1109 Tb1081 2.409 1_455 S
O1109 C1098 1.254 . S
O1110 Tb1081 2.378 1_455 S
O1110 C1099 1.236 . S
O1111 Tb1080 2.341 . S
O1111 C1099 1.266 . S
H1112 C1084 0.929 . S
H1113 C1085 0.931 . S
H1114 C1087 0.930 . S
H1115 C1088 0.930 . S
H1116 C1093 0.929 . S
H1117 C1094 0.931 . S
H1118 C1096 0.930 . S
H1119 C1097 0.930 . S
Tb1120 C1122 2.809 . S
Tb1120 O1140 2.484 . S
Tb1120 O1141 2.440 . S
Tb1120 O1142 2.658 . S
Tb1120 O1143 2.409 . S
Tb1120 O1144 2.378 . S
Tb1120 O1148 2.325 . S
Tb1120 O1151 2.341 . S
Tb1121 C1131 2.809 . S
Tb1121 O1142 2.325 . S
Tb1121 O1145 2.341 . S
Tb1121 O1146 2.484 . S
Tb1121 O1147 2.440 . S
Tb1121 O1148 2.658 . S
Tb1121 O1149 2.409 . S
Tb1121 O1150 2.378 . S
C1122 Tb1120 2.809 . S
C1122 C1123 1.514 . S
C1122 O1140 1.248 . S
C1122 O1141 1.266 . S
C1123 C1122 1.514 . S
C1123 C1124 1.359 . S
C1123 C1128 1.348 . S
C1124 C1123 1.359 . S
C1124 C1125 1.380 . S
C1124 H1152 0.929 . S
C1125 C1124 1.380 . S
C1125 C1126 1.347 . S
C1125 H1153 0.931 . S
C1126 C1125 1.347 . S
C1126 C1127 1.369 . S
C1127 C1126 1.369 . S
C1127 C1128 1.408 . S
C1127 H1154 0.930 . S
C1128 C1123 1.348 . S
C1128 C1127 1.408 . S
C1128 H1155 0.930 . S
C1129 O1142 1.281 . S
C1129 O1143 1.254 . S
C1130 O1144 1.236 . S
C1130 O1145 1.266 . S
C1131 Tb1121 2.809 . S
C1131 C1132 1.514 . S
C1131 O1146 1.248 . S
C1131 O1147 1.266 . S
C1132 C1131 1.514 . S
C1132 C1133 1.359 . S
C1132 C1137 1.348 . S
C1133 C1132 1.359 . S
C1133 C1134 1.380 . S
C1133 H1156 0.929 . S
C1134 C1133 1.380 . S
C1134 C1135 1.347 . S
C1134 H1157 0.931 . S
C1135 C1134 1.347 . S
C1135 C1136 1.369 . S
C1136 C1135 1.369 . S
C1136 C1137 1.408 . S
C1136 H1158 0.930 . S
C1137 C1132 1.348 . S
C1137 C1136 1.408 . S
C1137 H1159 0.930 . S
C1138 O1148 1.281 . S
C1138 O1149 1.254 . S
C1139 O1150 1.236 . S
C1139 O1151 1.266 . S
O1140 Tb1120 2.484 . S
O1140 C1122 1.248 . S
O1141 Tb1120 2.440 . S
O1141 C1122 1.266 . S
O1142 Tb1120 2.658 . S
O1142 Tb1121 2.325 . S
O1142 C1129 1.281 . S
O1143 Tb1120 2.409 . S
O1143 C1129 1.254 . S
O1144 Tb1120 2.378 . S
O1144 C1130 1.236 . S
O1145 Tb1121 2.341 . S
O1145 C1130 1.266 . S
O1146 Tb1121 2.484 . S
O1146 C1131 1.248 . S
O1147 Tb1121 2.440 . S
O1147 C1131 1.266 . S
O1148 Tb1120 2.325 . S
O1148 Tb1121 2.658 . S
O1148 C1138 1.281 . S
O1149 Tb1121 2.409 . S
O1149 C1138 1.254 . S
O1150 Tb1121 2.378 . S
O1150 C1139 1.236 . S
O1151 Tb1120 2.341 . S
O1151 C1139 1.266 . S
H1152 C1124 0.929 . S
H1153 C1125 0.931 . S
H1154 C1127 0.930 . S
H1155 C1128 0.930 . S
H1156 C1133 0.929 . S
H1157 C1134 0.931 . S
H1158 C1136 0.930 . S
H1159 C1137 0.930 . S
Tb1160 C1162 2.809 . S
Tb1160 O1180 2.484 . S
Tb1160 O1181 2.440 . S
Tb1160 O1182 2.658 . S
Tb1160 O1183 2.409 . S
Tb1160 O1184 2.378 . S
Tb1160 O1188 2.325 . S
Tb1160 O1191 2.341 . S
Tb1161 C1171 2.809 . S
Tb1161 O1182 2.325 1_655 S
Tb1161 O1185 2.341 . S
Tb1161 O1186 2.484 . S
Tb1161 O1187 2.440 . S
Tb1161 O1188 2.658 1_655 S
Tb1161 O1189 2.409 1_655 S
Tb1161 O1190 2.378 1_655 S
C1162 Tb1160 2.809 . S
C1162 C1163 1.514 . S
C1162 O1180 1.248 . S
C1162 O1181 1.266 . S
C1163 C1162 1.514 . S
C1163 C1164 1.359 . S
C1163 C1168 1.348 . S
C1164 C1163 1.359 . S
C1164 C1165 1.380 . S
C1164 H1192 0.929 . S
C1165 C1164 1.380 . S
C1165 C1166 1.347 . S
C1165 H1193 0.931 . S
C1166 C1165 1.347 . S
C1166 C1167 1.369 . S
C1167 C1166 1.369 . S
C1167 C1168 1.408 . S
C1167 H1194 0.930 . S
C1168 C1163 1.348 . S
C1168 C1167 1.408 . S
C1168 H1195 0.930 . S
C1169 O1182 1.281 . S
C1169 O1183 1.254 . S
C1170 O1184 1.236 . S
C1170 O1185 1.266 1_455 S
C1171 Tb1161 2.809 . S
C1171 C1172 1.514 . S
C1171 O1186 1.248 . S
C1171 O1187 1.266 . S
C1172 C1171 1.514 . S
C1172 C1173 1.359 . S
C1172 C1177 1.348 . S
C1173 C1172 1.359 . S
C1173 C1174 1.380 . S
C1173 H1196 0.929 . S
C1174 C1173 1.380 . S
C1174 C1175 1.347 . S
C1174 H1197 0.931 . S
C1175 C1174 1.347 . S
C1175 C1176 1.369 . S
C1176 C1175 1.369 . S
C1176 C1177 1.408 . S
C1176 H1198 0.930 . S
C1177 C1172 1.348 . S
C1177 C1176 1.408 . S
C1177 H1199 0.930 . S
C1178 O1188 1.281 . S
C1178 O1189 1.254 . S
C1179 O1190 1.236 . S
C1179 O1191 1.266 . S
O1180 Tb1160 2.484 . S
O1180 C1162 1.248 . S
O1181 Tb1160 2.440 . S
O1181 C1162 1.266 . S
O1182 Tb1160 2.658 . S
O1182 Tb1161 2.325 1_455 S
O1182 C1169 1.281 . S
O1183 Tb1160 2.409 . S
O1183 C1169 1.254 . S
O1184 Tb1160 2.378 . S
O1184 C1170 1.236 . S
O1185 Tb1161 2.341 . S
O1185 C1170 1.266 1_655 S
O1186 Tb1161 2.484 . S
O1186 C1171 1.248 . S
O1187 Tb1161 2.440 . S
O1187 C1171 1.266 . S
O1188 Tb1160 2.325 . S
O1188 Tb1161 2.658 1_455 S
O1188 C1178 1.281 . S
O1189 Tb1161 2.409 1_455 S
O1189 C1178 1.254 . S
O1190 Tb1161 2.378 1_455 S
O1190 C1179 1.236 . S
O1191 Tb1160 2.341 . S
O1191 C1179 1.266 . S
H1192 C1164 0.929 . S
H1193 C1165 0.931 . S
H1194 C1167 0.930 . S
H1195 C1168 0.930 . S
H1196 C1173 0.929 . S
H1197 C1174 0.931 . S
H1198 C1176 0.930 . S
H1199 C1177 0.930 . S
Tb1200 C1202 2.809 . S
Tb1200 O1220 2.484 . S
Tb1200 O1221 2.440 . S
Tb1200 O1222 2.658 . S
Tb1200 O1223 2.409 . S
Tb1200 O1224 2.378 . S
Tb1200 O1228 2.325 . S
Tb1200 O1231 2.341 . S
Tb1201 C1211 2.809 . S
Tb1201 O1222 2.325 . S
Tb1201 O1225 2.341 . S
Tb1201 O1226 2.484 . S
Tb1201 O1227 2.440 . S
Tb1201 O1228 2.658 . S
Tb1201 O1229 2.409 . S
Tb1201 O1230 2.378 . S
C1202 Tb1200 2.809 . S
C1202 C1203 1.514 . S
C1202 O1220 1.248 . S
C1202 O1221 1.266 . S
C1203 C1202 1.514 . S
C1203 C1204 1.359 . S
C1203 C1208 1.348 . S
C1204 C1203 1.359 . S
C1204 C1205 1.380 . S
C1204 H1232 0.929 . S
C1205 C1204 1.380 . S
C1205 C1206 1.347 . S
C1205 H1233 0.931 . S
C1206 C1205 1.347 . S
C1206 C1207 1.369 . S
C1207 C1206 1.369 . S
C1207 C1208 1.408 . S
C1207 H1234 0.930 . S
C1208 C1203 1.348 . S
C1208 C1207 1.408 . S
C1208 H1235 0.930 . S
C1209 O1222 1.281 . S
C1209 O1223 1.254 . S
C1210 O1224 1.236 . S
C1210 O1225 1.266 . S
C1211 Tb1201 2.809 . S
C1211 C1212 1.514 . S
C1211 O1226 1.248 . S
C1211 O1227 1.266 . S
C1212 C1211 1.514 . S
C1212 C1213 1.359 . S
C1212 C1217 1.348 . S
C1213 C1212 1.359 . S
C1213 C1214 1.380 . S
C1213 H1236 0.929 . S
C1214 C1213 1.380 . S
C1214 C1215 1.347 . S
C1214 H1237 0.931 . S
C1215 C1214 1.347 . S
C1215 C1216 1.369 . S
C1216 C1215 1.369 . S
C1216 C1217 1.408 . S
C1216 H1238 0.930 . S
C1217 C1212 1.348 . S
C1217 C1216 1.408 . S
C1217 H1239 0.930 . S
C1218 O1228 1.281 . S
C1218 O1229 1.254 . S
C1219 O1230 1.236 . S
C1219 O1231 1.266 . S
O1220 Tb1200 2.484 . S
O1220 C1202 1.248 . S
O1221 Tb1200 2.440 . S
O1221 C1202 1.266 . S
O1222 Tb1200 2.658 . S
O1222 Tb1201 2.325 . S
O1222 C1209 1.281 . S
O1223 Tb1200 2.409 . S
O1223 C1209 1.254 . S
O1224 Tb1200 2.378 . S
O1224 C1210 1.236 . S
O1225 Tb1201 2.341 . S
O1225 C1210 1.266 . S
O1226 Tb1201 2.484 . S
O1226 C1211 1.248 . S
O1227 Tb1201 2.440 . S
O1227 C1211 1.266 . S
O1228 Tb1200 2.325 . S
O1228 Tb1201 2.658 . S
O1228 C1218 1.281 . S
O1229 Tb1201 2.409 . S
O1229 C1218 1.254 . S
O1230 Tb1201 2.378 . S
O1230 C1219 1.236 . S
O1231 Tb1200 2.341 . S
O1231 C1219 1.266 . S
H1232 C1204 0.929 . S
H1233 C1205 0.931 . S
H1234 C1207 0.930 . S
H1235 C1208 0.930 . S
H1236 C1213 0.929 . S
H1237 C1214 0.931 . S
H1238 C1216 0.930 . S
H1239 C1217 0.930 . S
Tb1240 C1242 2.809 . S
Tb1240 O1260 2.484 . S
Tb1240 O1261 2.440 . S
Tb1240 O1262 2.658 . S
Tb1240 O1263 2.409 . S
Tb1240 O1264 2.378 . S
Tb1240 O1268 2.325 . S
Tb1240 O1271 2.341 . S
Tb1241 C1251 2.809 . S
Tb1241 O1262 2.325 . S
Tb1241 O1265 2.341 . S
Tb1241 O1266 2.484 . S
Tb1241 O1267 2.440 . S
Tb1241 O1268 2.658 . S
Tb1241 O1269 2.409 . S
Tb1241 O1270 2.378 . S
C1242 Tb1240 2.809 . S
C1242 C1243 1.514 . S
C1242 O1260 1.248 . S
C1242 O1261 1.266 . S
C1243 C1242 1.514 . S
C1243 C1244 1.359 . S
C1243 C1248 1.348 . S
C1244 C1243 1.359 . S
C1244 C1245 1.380 . S
C1244 H1272 0.929 . S
C1245 C1244 1.380 . S
C1245 C1246 1.347 . S
C1245 H1273 0.931 . S
C1246 C1245 1.347 . S
C1246 C1247 1.369 . S
C1247 C1246 1.369 . S
C1247 C1248 1.408 . S
C1247 H1274 0.930 . S
C1248 C1243 1.348 . S
C1248 C1247 1.408 . S
C1248 H1275 0.930 . S
C1249 O1262 1.281 . S
C1249 O1263 1.254 . S
C1250 O1264 1.236 . S
C1250 O1265 1.266 . S
C1251 Tb1241 2.809 . S
C1251 C1252 1.514 . S
C1251 O1266 1.248 . S
C1251 O1267 1.266 . S
C1252 C1251 1.514 . S
C1252 C1253 1.359 . S
C1252 C1257 1.348 . S
C1253 C1252 1.359 . S
C1253 C1254 1.380 . S
C1253 H1276 0.929 . S
C1254 C1253 1.380 . S
C1254 C1255 1.347 . S
C1254 H1277 0.931 . S
C1255 C1254 1.347 . S
C1255 C1256 1.369 . S
C1256 C1255 1.369 . S
C1256 C1257 1.408 . S
C1256 H1278 0.930 . S
C1257 C1252 1.348 . S
C1257 C1256 1.408 . S
C1257 H1279 0.930 . S
C1258 O1268 1.281 . S
C1258 O1269 1.254 . S
C1259 O1270 1.236 . S
C1259 O1271 1.266 . S
O1260 Tb1240 2.484 . S
O1260 C1242 1.248 . S
O1261 Tb1240 2.440 . S
O1261 C1242 1.266 . S
O1262 Tb1240 2.658 . S
O1262 Tb1241 2.325 . S
O1262 C1249 1.281 . S
O1263 Tb1240 2.409 . S
O1263 C1249 1.254 . S
O1264 Tb1240 2.378 . S
O1264 C1250 1.236 . S
O1265 Tb1241 2.341 . S
O1265 C1250 1.266 . S
O1266 Tb1241 2.484 . S
O1266 C1251 1.248 . S
O1267 Tb1241 2.440 . S
O1267 C1251 1.266 . S
O1268 Tb1240 2.325 . S
O1268 Tb1241 2.658 . S
O1268 C1258 1.281 . S
O1269 Tb1241 2.409 . S
O1269 C1258 1.254 . S
O1270 Tb1241 2.378 . S
O1270 C1259 1.236 . S
O1271 Tb1240 2.341 . S
O1271 C1259 1.266 . S
H1272 C1244 0.929 . S
H1273 C1245 0.931 . S
H1274 C1247 0.930 . S
H1275 C1248 0.930 . S
H1276 C1253 0.929 . S
H1277 C1254 0.931 . S
H1278 C1256 0.930 . S
H1279 C1257 0.930 . S
C1280 C1281 1.387 . S
C1280 H1284 0.950 . S
C1280 C1289 1.390 . S
C1281 C1280 1.387 . S
C1281 C1283 1.387 . S
H1282 C1289 0.950 . S
C1283 C1281 1.387 . S
C1283 C1285 1.390 . S
C1283 H1287 0.950 . S
H1284 C1280 0.950 . S
C1285 C1283 1.390 . S
C1285 C1286 1.387 . S
C1285 H1288 0.950 . S
C1286 C1285 1.387 . S
C1286 C1289 1.387 . S
H1287 C1283 0.950 . S
H1288 C1285 0.950 . S
C1289 C1280 1.390 . S
C1289 H1282 0.950 . S
C1289 C1286 1.387 . S
C1290 C1291 1.387 . S
C1290 H1294 0.950 . S
C1290 C1299 1.390 . S
C1291 C1290 1.387 . S
C1291 C1293 1.387 . S
H1292 C1299 0.950 . S
C1293 C1291 1.387 . S
C1293 C1295 1.390 . S
C1293 H1297 0.950 . S
H1294 C1290 0.950 . S
C1295 C1293 1.390 . S
C1295 C1296 1.387 . S
C1295 H1298 0.950 . S
C1296 C1295 1.387 . S
C1296 C1299 1.387 . S
H1297 C1293 0.950 . S
H1298 C1295 0.950 . S
C1299 C1290 1.390 . S
C1299 H1292 0.950 . S
C1299 C1296 1.387 . S
C1300 C1301 1.387 . S
C1300 H1304 0.950 . S
C1300 C1309 1.390 . S
C1301 C1300 1.387 . S
C1301 C1303 1.387 . S
H1302 C1309 0.950 . S
C1303 C1301 1.387 . S
C1303 C1305 1.390 . S
C1303 H1307 0.950 . S
H1304 C1300 0.950 . S
C1305 C1303 1.390 . S
C1305 C1306 1.387 . S
C1305 H1308 0.950 . S
C1306 C1305 1.387 . S
C1306 C1309 1.387 . S
H1307 C1303 0.950 . S
H1308 C1305 0.950 . S
C1309 C1300 1.390 . S
C1309 H1302 0.950 . S
C1309 C1306 1.387 . S
C1310 C1311 1.387 . S
C1310 H1314 0.950 . S
C1310 C1319 1.390 . S
C1311 C1310 1.387 . S
C1311 C1313 1.387 . S
H1312 C1319 0.950 . S
C1313 C1311 1.387 . S
C1313 C1315 1.390 . S
C1313 H1317 0.950 . S
H1314 C1310 0.950 . S
C1315 C1313 1.390 . S
C1315 C1316 1.387 . S
C1315 H1318 0.950 . S
C1316 C1315 1.387 . S
C1316 C1319 1.387 . S
H1317 C1313 0.950 . S
H1318 C1315 0.950 . S
C1319 C1310 1.390 . S
C1319 H1312 0.950 . S
C1319 C1316 1.387 . S
C1320 C1321 1.387 . S
C1320 H1324 0.950 . S
C1320 C1329 1.390 . S
C1321 C1320 1.387 . S
C1321 C1323 1.387 . S
H1322 C1329 0.950 . S
C1323 C1321 1.387 . S
C1323 C1325 1.390 . S
C1323 H1327 0.950 . S
H1324 C1320 0.950 . S
C1325 C1323 1.390 . S
C1325 C1326 1.387 . S
C1325 H1328 0.950 . S
C1326 C1325 1.387 . S
C1326 C1329 1.387 . S
H1327 C1323 0.950 . S
H1328 C1325 0.950 . S
C1329 C1320 1.390 . S
C1329 H1322 0.950 . S
C1329 C1326 1.387 . S
C1330 C1331 1.387 . S
C1330 H1334 0.950 . S
C1330 C1339 1.390 . S
C1331 C1330 1.387 . S
C1331 C1333 1.387 . S
H1332 C1339 0.950 . S
C1333 C1331 1.387 . S
C1333 C1335 1.390 . S
C1333 H1337 0.950 . S
H1334 C1330 0.950 . S
C1335 C1333 1.390 . S
C1335 C1336 1.387 . S
C1335 H1338 0.950 . S
C1336 C1335 1.387 . S
C1336 C1339 1.387 . S
H1337 C1333 0.950 . S
H1338 C1335 0.950 . S
C1339 C1330 1.390 . S
C1339 H1332 0.950 . S
C1339 C1336 1.387 . S
C1340 C1341 1.387 . S
C1340 H1344 0.950 . S
C1340 C1349 1.390 . S
C1341 C1340 1.387 . S
C1341 C1343 1.387 . S
H1342 C1349 0.950 . S
C1343 C1341 1.387 . S
C1343 C1345 1.390 . S
C1343 H1347 0.950 . S
H1344 C1340 0.950 . S
C1345 C1343 1.390 . S
C1345 C1346 1.387 . S
C1345 H1348 0.950 . S
C1346 C1345 1.387 . S
C1346 C1349 1.387 . S
H1347 C1343 0.950 . S
H1348 C1345 0.950 . S
C1349 C1340 1.390 . S
C1349 H1342 0.950 . S
C1349 C1346 1.387 . S
C1350 C1351 1.387 . S
C1350 H1354 0.950 . S
C1350 C1359 1.390 . S
C1351 C1350 1.387 . S
C1351 C1353 1.387 . S
H1352 C1359 0.950 . S
C1353 C1351 1.387 . S
C1353 C1355 1.390 . S
C1353 H1357 0.950 . S
H1354 C1350 0.950 . S
C1355 C1353 1.390 . S
C1355 C1356 1.387 . S
C1355 H1358 0.950 . S
C1356 C1355 1.387 . S
C1356 C1359 1.387 . S
H1357 C1353 0.950 . S
H1358 C1355 0.950 . S
C1359 C1350 1.390 . S
C1359 H1352 0.950 . S
C1359 C1356 1.387 . S
C1360 C1361 1.387 . S
C1360 H1364 0.950 . S
C1360 C1369 1.390 . S
C1361 C1360 1.387 . S
C1361 C1363 1.387 . S
H1362 C1369 0.950 . S
C1363 C1361 1.387 . S
C1363 C1365 1.390 . S
C1363 H1367 0.950 . S
H1364 C1360 0.950 . S
C1365 C1363 1.390 . S
C1365 C1366 1.387 . S
C1365 H1368 0.950 . S
C1366 C1365 1.387 . S
C1366 C1369 1.387 . S
H1367 C1363 0.950 . S
H1368 C1365 0.950 . S
C1369 C1360 1.390 . S
C1369 H1362 0.950 . S
C1369 C1366 1.387 . S
C1370 C1371 1.387 . S
C1370 H1374 0.950 . S
C1370 C1379 1.390 . S
C1371 C1370 1.387 . S
C1371 C1373 1.387 . S
H1372 C1379 0.950 . S
C1373 C1371 1.387 . S
C1373 C1375 1.390 . S
C1373 H1377 0.950 . S
H1374 C1370 0.950 . S
C1375 C1373 1.390 . S
C1375 C1376 1.387 . S
C1375 H1378 0.950 . S
C1376 C1375 1.387 . S
C1376 C1379 1.387 . S
H1377 C1373 0.950 . S
H1378 C1375 0.950 . S
C1379 C1370 1.390 . S
C1379 H1372 0.950 . S
C1379 C1376 1.387 . S
C1380 C1381 1.387 . S
C1380 H1384 0.950 . S
C1380 C1389 1.390 . S
C1381 C1380 1.387 . S
C1381 C1383 1.387 . S
H1382 C1389 0.950 . S
C1383 C1381 1.387 . S
C1383 C1385 1.390 . S
C1383 H1387 0.950 . S
H1384 C1380 0.950 . S
C1385 C1383 1.390 . S
C1385 C1386 1.387 . S
C1385 H1388 0.950 . S
C1386 C1385 1.387 . S
C1386 C1389 1.387 . S
H1387 C1383 0.950 . S
H1388 C1385 0.950 . S
C1389 C1380 1.390 . S
C1389 H1382 0.950 . S
C1389 C1386 1.387 . S
C1390 C1391 1.387 . S
C1390 H1394 0.950 . S
C1390 C1399 1.390 . S
C1391 C1390 1.387 . S
C1391 C1393 1.387 . S
H1392 C1399 0.950 . S
C1393 C1391 1.387 . S
C1393 C1395 1.390 . S
C1393 H1397 0.950 . S
H1394 C1390 0.950 . S
C1395 C1393 1.390 . S
C1395 C1396 1.387 . S
C1395 H1398 0.950 . S
C1396 C1395 1.387 . S
C1396 C1399 1.387 . S
H1397 C1393 0.950 . S
H1398 C1395 0.950 . S
C1399 C1390 1.390 . S
C1399 H1392 0.950 . S
C1399 C1396 1.387 . S
C1400 C1401 1.387 . S
C1400 H1404 0.950 . S
C1400 C1409 1.390 . S
C1401 C1400 1.387 . S
C1401 C1403 1.387 . S
H1402 C1409 0.950 . S
C1403 C1401 1.387 . S
C1403 C1405 1.390 . S
C1403 H1407 0.950 . S
H1404 C1400 0.950 . S
C1405 C1403 1.390 . S
C1405 C1406 1.387 . S
C1405 H1408 0.950 . S
C1406 C1405 1.387 . S
C1406 C1409 1.387 . S
H1407 C1403 0.950 . S
H1408 C1405 0.950 . S
C1409 C1400 1.390 . S
C1409 H1402 0.950 . S
C1409 C1406 1.387 . S
C1410 C1411 1.387 . S
C1410 H1414 0.950 . S
C1410 C1419 1.390 . S
C1411 C1410 1.387 . S
C1411 C1413 1.387 . S
H1412 C1419 0.950 . S
C1413 C1411 1.387 . S
C1413 C1415 1.390 . S
C1413 H1417 0.950 . S
H1414 C1410 0.950 . S
C1415 C1413 1.390 . S
C1415 C1416 1.387 . S
C1415 H1418 0.950 . S
C1416 C1415 1.387 . S
C1416 C1419 1.387 . S
H1417 C1413 0.950 . S
H1418 C1415 0.950 . S
C1419 C1410 1.390 . S
C1419 H1412 0.950 . S
C1419 C1416 1.387 . S
C1420 C1421 1.387 . S
C1420 H1424 0.950 . S
C1420 C1429 1.390 . S
C1421 C1420 1.387 . S
C1421 C1423 1.387 . S
H1422 C1429 0.950 . S
C1423 C1421 1.387 . S
C1423 C1425 1.390 . S
C1423 H1427 0.950 . S
H1424 C1420 0.950 . S
C1425 C1423 1.390 . S
C1425 C1426 1.387 . S
C1425 H1428 0.950 . S
C1426 C1425 1.387 . S
C1426 C1429 1.387 . S
H1427 C1423 0.950 . S
H1428 C1425 0.950 . S
C1429 C1420 1.390 . S
C1429 H1422 0.950 . S
C1429 C1426 1.387 . S
C1430 C1431 1.387 . S
C1430 H1434 0.950 . S
C1430 C1439 1.390 . S
C1431 C1430 1.387 . S
C1431 C1433 1.387 . S
H1432 C1439 0.950 . S
C1433 C1431 1.387 . S
C1433 C1435 1.390 . S
C1433 H1437 0.950 . S
H1434 C1430 0.950 . S
C1435 C1433 1.390 . S
C1435 C1436 1.387 . S
C1435 H1438 0.950 . S
C1436 C1435 1.387 . S
C1436 C1439 1.387 . S
H1437 C1433 0.950 . S
H1438 C1435 0.950 . S
C1439 C1430 1.390 . S
C1439 H1432 0.950 . S
C1439 C1436 1.387 . S
C1440 C1441 1.387 . S
C1440 H1444 0.950 . S
C1440 C1449 1.390 . S
C1441 C1440 1.387 . S
C1441 C1443 1.387 . S
H1442 C1449 0.950 . S
C1443 C1441 1.387 . S
C1443 C1445 1.390 . S
C1443 H1447 0.950 . S
H1444 C1440 0.950 . S
C1445 C1443 1.390 . S
C1445 C1446 1.387 . S
C1445 H1448 0.950 . S
C1446 C1445 1.387 . S
C1446 C1449 1.387 . S
H1447 C1443 0.950 . S
H1448 C1445 0.950 . S
C1449 C1440 1.390 . S
C1449 H1442 0.950 . S
C1449 C1446 1.387 . S
C1450 C1451 1.387 . S
C1450 H1454 0.950 . S
C1450 C1459 1.390 . S
C1451 C1450 1.387 . S
C1451 C1453 1.387 . S
H1452 C1459 0.950 . S
C1453 C1451 1.387 . S
C1453 C1455 1.390 . S
C1453 H1457 0.950 . S
H1454 C1450 0.950 . S
C1455 C1453 1.390 . S
C1455 C1456 1.387 . S
C1455 H1458 0.950 . S
C1456 C1455 1.387 . S
C1456 C1459 1.387 . S
H1457 C1453 0.950 . S
H1458 C1455 0.950 . S
C1459 C1450 1.390 . S
C1459 H1452 0.950 . S
C1459 C1456 1.387 . S
C1460 C1461 1.387 . S
C1460 H1464 0.950 . S
C1460 C1469 1.390 . S
C1461 C1460 1.387 . S
C1461 C1463 1.387 . S
H1462 C1469 0.950 . S
C1463 C1461 1.387 . S
C1463 C1465 1.390 . S
C1463 H1467 0.950 . S
H1464 C1460 0.950 . S
C1465 C1463 1.390 . S
C1465 C1466 1.387 . S
C1465 H1468 0.950 . S
C1466 C1465 1.387 . S
C1466 C1469 1.387 . S
H1467 C1463 0.950 . S
H1468 C1465 0.950 . S
C1469 C1460 1.390 . S
C1469 H1462 0.950 . S
C1469 C1466 1.387 . S
C1470 C1471 1.387 . S
C1470 H1474 0.950 . S
C1470 C1479 1.390 . S
C1471 C1470 1.387 . S
C1471 C1473 1.387 . S
H1472 C1479 0.950 . S
C1473 C1471 1.387 . S
C1473 C1475 1.390 . S
C1473 H1477 0.950 . S
H1474 C1470 0.950 . S
C1475 C1473 1.390 . S
C1475 C1476 1.387 . S
C1475 H1478 0.950 . S
C1476 C1475 1.387 . S
C1476 C1479 1.387 . S
H1477 C1473 0.950 . S
H1478 C1475 0.950 . S
C1479 C1470 1.390 . S
C1479 H1472 0.950 . S
C1479 C1476 1.387 . S
C1480 C1481 1.387 . S
C1480 H1484 0.950 . S
C1480 C1489 1.390 . S
C1481 C1480 1.387 . S
C1481 C1483 1.387 . S
H1482 C1489 0.950 . S
C1483 C1481 1.387 . S
C1483 C1485 1.390 . S
C1483 H1487 0.950 . S
H1484 C1480 0.950 . S
C1485 C1483 1.390 . S
C1485 C1486 1.387 . S
C1485 H1488 0.950 . S
C1486 C1485 1.387 . S
C1486 C1489 1.387 . S
H1487 C1483 0.950 . S
H1488 C1485 0.950 . S
C1489 C1480 1.390 . S
C1489 H1482 0.950 . S
C1489 C1486 1.387 . S
C1490 C1491 1.387 . S
C1490 H1494 0.950 . S
C1490 C1499 1.390 . S
C1491 C1490 1.387 . S
C1491 C1493 1.387 . S
H1492 C1499 0.950 . S
C1493 C1491 1.387 . S
C1493 C1495 1.390 . S
C1493 H1497 0.950 . S
H1494 C1490 0.950 . S
C1495 C1493 1.390 . S
C1495 C1496 1.387 . S
C1495 H1498 0.950 . S
C1496 C1495 1.387 . S
C1496 C1499 1.387 . S
H1497 C1493 0.950 . S
H1498 C1495 0.950 . S
C1499 C1490 1.390 . S
C1499 H1492 0.950 . S
C1499 C1496 1.387 . S
C1500 C1501 1.387 . S
C1500 H1504 0.950 . S
C1500 C1509 1.390 . S
C1501 C1500 1.387 . S
C1501 C1503 1.387 . S
H1502 C1509 0.950 . S
C1503 C1501 1.387 . S
C1503 C1505 1.390 . S
C1503 H1507 0.950 . S
H1504 C1500 0.950 . S
C1505 C1503 1.390 . S
C1505 C1506 1.387 . S
C1505 H1508 0.950 . S
C1506 C1505 1.387 . S
C1506 C1509 1.387 . S
H1507 C1503 0.950 . S
H1508 C1505 0.950 . S
C1509 C1500 1.390 . S
C1509 H1502 0.950 . S
C1509 C1506 1.387 . S
C1510 C1511 1.387 . S
C1510 H1514 0.950 . S
C1510 C1519 1.390 . S
C1511 C1510 1.387 . S
C1511 C1513 1.387 . S
H1512 C1519 0.950 . S
C1513 C1511 1.387 . S
C1513 C1515 1.390 . S
C1513 H1517 0.950 . S
H1514 C1510 0.950 . S
C1515 C1513 1.390 . S
C1515 C1516 1.387 . S
C1515 H1518 0.950 . S
C1516 C1515 1.387 . S
C1516 C1519 1.387 . S
H1517 C1513 0.950 . S
H1518 C1515 0.950 . S
C1519 C1510 1.390 . S
C1519 H1512 0.950 . S
C1519 C1516 1.387 . S
C1520 C1521 1.387 . S
C1520 H1524 0.950 . S
C1520 C1529 1.390 . S
C1521 C1520 1.387 . S
C1521 C1523 1.387 . S
H1522 C1529 0.950 . S
C1523 C1521 1.387 . S
C1523 C1525 1.390 . S
C1523 H1527 0.950 . S
H1524 C1520 0.950 . S
C1525 C1523 1.390 . S
C1525 C1526 1.387 . S
C1525 H1528 0.950 . S
C1526 C1525 1.387 . S
C1526 C1529 1.387 . S
H1527 C1523 0.950 . S
H1528 C1525 0.950 . S
C1529 C1520 1.390 . S
C1529 H1522 0.950 . S
C1529 C1526 1.387 . S
C1530 C1531 1.387 . S
C1530 H1534 0.950 . S
C1530 C1539 1.390 . S
C1531 C1530 1.387 . S
C1531 C1533 1.387 . S
H1532 C1539 0.950 . S
C1533 C1531 1.387 . S
C1533 C1535 1.390 . S
C1533 H1537 0.950 . S
H1534 C1530 0.950 . S
C1535 C1533 1.390 . S
C1535 C1536 1.387 . S
C1535 H1538 0.950 . S
C1536 C1535 1.387 . S
C1536 C1539 1.387 . S
H1537 C1533 0.950 . S
H1538 C1535 0.950 . S
C1539 C1530 1.390 . S
C1539 H1532 0.950 . S
C1539 C1536 1.387 . S
C1540 C1541 1.387 . S
C1540 H1544 0.950 . S
C1540 C1549 1.390 . S
C1541 C1540 1.387 . S
C1541 C1543 1.387 . S
H1542 C1549 0.950 . S
C1543 C1541 1.387 . S
C1543 C1545 1.390 . S
C1543 H1547 0.950 . S
H1544 C1540 0.950 . S
C1545 C1543 1.390 . S
C1545 C1546 1.387 . S
C1545 H1548 0.950 . S
C1546 C1545 1.387 . S
C1546 C1549 1.387 . S
H1547 C1543 0.950 . S
H1548 C1545 0.950 . S
C1549 C1540 1.390 . S
C1549 H1542 0.950 . S
C1549 C1546 1.387 . S
C1550 C1551 1.387 . S
C1550 H1554 0.950 . S
C1550 C1559 1.390 . S
C1551 C1550 1.387 . S
C1551 C1553 1.387 . S
H1552 C1559 0.950 . S
C1553 C1551 1.387 . S
C1553 C1555 1.390 . S
C1553 H1557 0.950 . S
H1554 C1550 0.950 . S
C1555 C1553 1.390 . S
C1555 C1556 1.387 . S
C1555 H1558 0.950 . S
C1556 C1555 1.387 . S
C1556 C1559 1.387 . S
H1557 C1553 0.950 . S
H1558 C1555 0.950 . S
C1559 C1550 1.390 . S
C1559 H1552 0.950 . S
C1559 C1556 1.387 . S
C1560 C1561 1.387 . S
C1560 H1564 0.950 . S
C1560 C1569 1.390 . S
C1561 C1560 1.387 . S
C1561 C1563 1.387 . S
H1562 C1569 0.950 . S
C1563 C1561 1.387 . S
C1563 C1565 1.390 . S
C1563 H1567 0.950 . S
H1564 C1560 0.950 . S
C1565 C1563 1.390 . S
C1565 C1566 1.387 . S
C1565 H1568 0.950 . S
C1566 C1565 1.387 . S
C1566 C1569 1.387 . S
H1567 C1563 0.950 . S
H1568 C1565 0.950 . S
C1569 C1560 1.390 . S
C1569 H1562 0.950 . S
C1569 C1566 1.387 . S
C1570 C1571 1.387 . S
C1570 H1574 0.950 . S
C1570 C1579 1.390 . S
C1571 C1570 1.387 . S
C1571 C1573 1.387 . S
H1572 C1579 0.950 . S
C1573 C1571 1.387 . S
C1573 C1575 1.390 . S
C1573 H1577 0.950 . S
H1574 C1570 0.950 . S
C1575 C1573 1.390 . S
C1575 C1576 1.387 . S
C1575 H1578 0.950 . S
C1576 C1575 1.387 . S
C1576 C1579 1.387 . S
H1577 C1573 0.950 . S
H1578 C1575 0.950 . S
C1579 C1570 1.390 . S
C1579 H1572 0.950 . S
C1579 C1576 1.387 . S
C1580 C1581 1.387 . S
C1580 H1584 0.950 . S
C1580 C1589 1.390 . S
C1581 C1580 1.387 . S
C1581 C1583 1.387 . S
H1582 C1589 0.950 . S
C1583 C1581 1.387 . S
C1583 C1585 1.390 . S
C1583 H1587 0.950 . S
H1584 C1580 0.950 . S
C1585 C1583 1.390 . S
C1585 C1586 1.387 . S
C1585 H1588 0.950 . S
C1586 C1585 1.387 . S
C1586 C1589 1.387 . S
H1587 C1583 0.950 . S
H1588 C1585 0.950 . S
C1589 C1580 1.390 . S
C1589 H1582 0.950 . S
C1589 C1586 1.387 . S
C1590 C1591 1.387 . S
C1590 H1594 0.950 . S
C1590 C1599 1.390 . S
C1591 C1590 1.387 . S
C1591 C1593 1.387 . S
H1592 C1599 0.950 . S
C1593 C1591 1.387 . S
C1593 C1595 1.390 . S
C1593 H1597 0.950 . S
H1594 C1590 0.950 . S
C1595 C1593 1.390 . S
C1595 C1596 1.387 . S
C1595 H1598 0.950 . S
C1596 C1595 1.387 . S
C1596 C1599 1.387 . S
H1597 C1593 0.950 . S
H1598 C1595 0.950 . S
C1599 C1590 1.390 . S
C1599 H1592 0.950 . S
C1599 C1596 1.387 . S
C1600 C1601 1.387 . S
C1600 H1604 0.950 . S
C1600 C1609 1.390 1_455 S
C1601 C1600 1.387 . S
C1601 C1603 1.387 . S
H1602 C1609 0.950 . S
C1603 C1601 1.387 . S
C1603 C1605 1.390 1_455 S
C1603 H1607 0.950 . S
H1604 C1600 0.950 . S
C1605 C1603 1.390 1_655 S
C1605 C1606 1.387 . S
C1605 H1608 0.950 . S
C1606 C1605 1.387 . S
C1606 C1609 1.387 . S
H1607 C1603 0.950 . S
H1608 C1605 0.950 . S
C1609 C1600 1.390 1_655 S
C1609 H1602 0.950 . S
C1609 C1606 1.387 . S
C1610 C1611 1.387 . S
C1610 H1614 0.950 . S
C1610 C1619 1.390 1_455 S
C1611 C1610 1.387 . S
C1611 C1613 1.387 . S
H1612 C1619 0.950 . S
C1613 C1611 1.387 . S
C1613 C1615 1.390 1_455 S
C1613 H1617 0.950 . S
H1614 C1610 0.950 . S
C1615 C1613 1.390 1_655 S
C1615 C1616 1.387 . S
C1615 H1618 0.950 . S
C1616 C1615 1.387 . S
C1616 C1619 1.387 . S
H1617 C1613 0.950 . S
H1618 C1615 0.950 . S
C1619 C1610 1.390 1_655 S
C1619 H1612 0.950 . S
C1619 C1616 1.387 . S
C1620 C1621 1.387 . S
C1620 H1624 0.950 . S
C1620 C1629 1.390 . S
C1621 C1620 1.387 . S
C1621 C1623 1.387 . S
H1622 C1629 0.950 . S
C1623 C1621 1.387 . S
C1623 C1625 1.390 . S
C1623 H1627 0.950 . S
H1624 C1620 0.950 . S
C1625 C1623 1.390 . S
C1625 C1626 1.387 . S
C1625 H1628 0.950 . S
C1626 C1625 1.387 . S
C1626 C1629 1.387 . S
H1627 C1623 0.950 . S
H1628 C1625 0.950 . S
C1629 C1620 1.390 . S
C1629 H1622 0.950 . S
C1629 C1626 1.387 . S
C1630 C1631 1.387 . S
C1630 H1634 0.950 . S
C1630 C1639 1.390 . S
C1631 C1630 1.387 . S
C1631 C1633 1.387 . S
H1632 C1639 0.950 . S
C1633 C1631 1.387 . S
C1633 C1635 1.390 . S
C1633 H1637 0.950 . S
H1634 C1630 0.950 . S
C1635 C1633 1.390 . S
C1635 C1636 1.387 . S
C1635 H1638 0.950 . S
C1636 C1635 1.387 . S
C1636 C1639 1.387 . S
H1637 C1633 0.950 . S
H1638 C1635 0.950 . S
C1639 C1630 1.390 . S
C1639 H1632 0.950 . S
C1639 C1636 1.387 . S
C1640 C1641 1.387 . S
C1640 H1644 0.950 . S
C1640 C1649 1.390 1_655 S
C1641 C1640 1.387 . S
C1641 C1643 1.387 . S
H1642 C1649 0.950 . S
C1643 C1641 1.387 . S
C1643 C1645 1.390 1_655 S
C1643 H1647 0.950 . S
H1644 C1640 0.950 . S
C1645 C1643 1.390 1_455 S
C1645 C1646 1.387 . S
C1645 H1648 0.950 . S
C1646 C1645 1.387 . S
C1646 C1649 1.387 . S
H1647 C1643 0.950 . S
H1648 C1645 0.950 . S
C1649 C1640 1.390 1_455 S
C1649 H1642 0.950 . S
C1649 C1646 1.387 . S
C1650 C1651 1.387 . S
C1650 H1654 0.950 . S
C1650 C1659 1.390 . S
C1651 C1650 1.387 . S
C1651 C1653 1.387 . S
H1652 C1659 0.950 . S
C1653 C1651 1.387 . S
C1653 C1655 1.390 . S
C1653 H1657 0.950 . S
H1654 C1650 0.950 . S
C1655 C1653 1.390 . S
C1655 C1656 1.387 . S
C1655 H1658 0.950 . S
C1656 C1655 1.387 . S
C1656 C1659 1.387 . S
H1657 C1653 0.950 . S
H1658 C1655 0.950 . S
C1659 C1650 1.390 . S
C1659 H1652 0.950 . S
C1659 C1656 1.387 . S
C1660 C1661 1.387 . S
C1660 H1664 0.950 . S
C1660 C1669 1.390 . S
C1661 C1660 1.387 . S
C1661 C1663 1.387 . S
H1662 C1669 0.950 . S
C1663 C1661 1.387 . S
C1663 C1665 1.390 . S
C1663 H1667 0.950 . S
H1664 C1660 0.950 . S
C1665 C1663 1.390 . S
C1665 C1666 1.387 . S
C1665 H1668 0.950 . S
C1666 C1665 1.387 . S
C1666 C1669 1.387 . S
H1667 C1663 0.950 . S
H1668 C1665 0.950 . S
C1669 C1660 1.390 . S
C1669 H1662 0.950 . S
C1669 C1666 1.387 . S
C1670 C1671 1.387 . S
C1670 H1674 0.950 . S
C1670 C1679 1.390 1_655 S
C1671 C1670 1.387 . S
C1671 C1673 1.387 . S
H1672 C1679 0.950 . S
C1673 C1671 1.387 . S
C1673 C1675 1.390 1_655 S
C1673 H1677 0.950 . S
H1674 C1670 0.950 . S
C1675 C1673 1.390 1_455 S
C1675 C1676 1.387 . S
C1675 H1678 0.950 . S
C1676 C1675 1.387 . S
C1676 C1679 1.387 . S
H1677 C1673 0.950 . S
H1678 C1675 0.950 . S
C1679 C1670 1.390 1_455 S
C1679 H1672 0.950 . S
C1679 C1676 1.387 . S
C1680 C1681 1.387 . S
C1680 H1684 0.950 . S
C1680 C1689 1.390 1_455 S
C1681 C1680 1.387 . S
C1681 C1683 1.387 . S
H1682 C1689 0.950 . S
C1683 C1681 1.387 . S
C1683 C1685 1.390 1_455 S
C1683 H1687 0.950 . S
H1684 C1680 0.950 . S
C1685 C1683 1.390 1_655 S
C1685 C1686 1.387 . S
C1685 H1688 0.950 . S
C1686 C1685 1.387 . S
C1686 C1689 1.387 . S
H1687 C1683 0.950 . S
H1688 C1685 0.950 . S
C1689 C1680 1.390 1_655 S
C1689 H1682 0.950 . S
C1689 C1686 1.387 . S
C1690 C1691 1.387 . S
C1690 H1694 0.950 . S
C1690 C1699 1.390 1_455 S
C1691 C1690 1.387 . S
C1691 C1693 1.387 . S
H1692 C1699 0.950 . S
C1693 C1691 1.387 . S
C1693 C1695 1.390 1_455 S
C1693 H1697 0.950 . S
H1694 C1690 0.950 . S
C1695 C1693 1.390 1_655 S
C1695 C1696 1.387 . S
C1695 H1698 0.950 . S
C1696 C1695 1.387 . S
C1696 C1699 1.387 . S
H1697 C1693 0.950 . S
H1698 C1695 0.950 . S
C1699 C1690 1.390 1_655 S
C1699 H1692 0.950 . S
C1699 C1696 1.387 . S
C1700 C1701 1.387 . S
C1700 H1704 0.950 . S
C1700 C1709 1.390 . S
C1701 C1700 1.387 . S
C1701 C1703 1.387 . S
H1702 C1709 0.950 . S
C1703 C1701 1.387 . S
C1703 C1705 1.390 . S
C1703 H1707 0.950 . S
H1704 C1700 0.950 . S
C1705 C1703 1.390 . S
C1705 C1706 1.387 . S
C1705 H1708 0.950 . S
C1706 C1705 1.387 . S
C1706 C1709 1.387 . S
H1707 C1703 0.950 . S
H1708 C1705 0.950 . S
C1709 C1700 1.390 . S
C1709 H1702 0.950 . S
C1709 C1706 1.387 . S
C1710 C1711 1.387 . S
C1710 H1714 0.950 . S
C1710 C1719 1.390 . S
C1711 C1710 1.387 . S
C1711 C1713 1.387 . S
H1712 C1719 0.950 . S
C1713 C1711 1.387 . S
C1713 C1715 1.390 . S
C1713 H1717 0.950 . S
H1714 C1710 0.950 . S
C1715 C1713 1.390 . S
C1715 C1716 1.387 . S
C1715 H1718 0.950 . S
C1716 C1715 1.387 . S
C1716 C1719 1.387 . S
H1717 C1713 0.950 . S
H1718 C1715 0.950 . S
C1719 C1710 1.390 . S
C1719 H1712 0.950 . S
C1719 C1716 1.387 . S
C1720 C1721 1.387 . S
C1720 H1724 0.950 . S
C1720 C1729 1.390 1_455 S
C1721 C1720 1.387 . S
C1721 C1723 1.387 . S
H1722 C1729 0.950 . S
C1723 C1721 1.387 . S
C1723 C1725 1.390 1_455 S
C1723 H1727 0.950 . S
H1724 C1720 0.950 . S
C1725 C1723 1.390 1_655 S
C1725 C1726 1.387 . S
C1725 H1728 0.950 . S
C1726 C1725 1.387 . S
C1726 C1729 1.387 . S
H1727 C1723 0.950 . S
H1728 C1725 0.950 . S
C1729 C1720 1.390 1_655 S
C1729 H1722 0.950 . S
C1729 C1726 1.387 . S
C1730 C1731 1.387 . S
C1730 H1734 0.950 . S
C1730 C1739 1.390 . S
C1731 C1730 1.387 . S
C1731 C1733 1.387 . S
H1732 C1739 0.950 . S
C1733 C1731 1.387 . S
C1733 C1735 1.390 . S
C1733 H1737 0.950 . S
H1734 C1730 0.950 . S
C1735 C1733 1.390 . S
C1735 C1736 1.387 . S
C1735 H1738 0.950 . S
C1736 C1735 1.387 . S
C1736 C1739 1.387 . S
H1737 C1733 0.950 . S
H1738 C1735 0.950 . S
C1739 C1730 1.390 . S
C1739 H1732 0.950 . S
C1739 C1736 1.387 . S
C1740 C1741 1.387 . S
C1740 H1744 0.950 . S
C1740 C1749 1.390 . S
C1741 C1740 1.387 . S
C1741 C1743 1.387 . S
H1742 C1749 0.950 . S
C1743 C1741 1.387 . S
C1743 C1745 1.390 . S
C1743 H1747 0.950 . S
H1744 C1740 0.950 . S
C1745 C1743 1.390 . S
C1745 C1746 1.387 . S
C1745 H1748 0.950 . S
C1746 C1745 1.387 . S
C1746 C1749 1.387 . S
H1747 C1743 0.950 . S
H1748 C1745 0.950 . S
C1749 C1740 1.390 . S
C1749 H1742 0.950 . S
C1749 C1746 1.387 . S
C1750 C1751 1.387 . S
C1750 H1754 0.950 . S
C1750 C1759 1.390 1_455 S
C1751 C1750 1.387 . S
C1751 C1753 1.387 . S
H1752 C1759 0.950 . S
C1753 C1751 1.387 . S
C1753 C1755 1.390 1_455 S
C1753 H1757 0.950 . S
H1754 C1750 0.950 . S
C1755 C1753 1.390 1_655 S
C1755 C1756 1.387 . S
C1755 H1758 0.950 . S
C1756 C1755 1.387 . S
C1756 C1759 1.387 . S
H1757 C1753 0.950 . S
H1758 C1755 0.950 . S
C1759 C1750 1.390 1_655 S
C1759 H1752 0.950 . S
C1759 C1756 1.387 . S
C1760 C1761 1.387 . S
C1760 H1764 0.950 . S
C1760 C1769 1.390 . S
C1761 C1760 1.387 . S
C1761 C1763 1.387 . S
H1762 C1769 0.950 . S
C1763 C1761 1.387 . S
C1763 C1765 1.390 . S
C1763 H1767 0.950 . S
H1764 C1760 0.950 . S
C1765 C1763 1.390 . S
C1765 C1766 1.387 . S
C1765 H1768 0.950 . S
C1766 C1765 1.387 . S
C1766 C1769 1.387 . S
H1767 C1763 0.950 . S
H1768 C1765 0.950 . S
C1769 C1760 1.390 . S
C1769 H1762 0.950 . S
C1769 C1766 1.387 . S
C1770 C1771 1.379 1_445 S
C1770 H1774 0.950 . S
C1770 C1779 1.390 . S
C1771 C1770 1.379 1_665 S
C1771 C1773 1.396 . S
H1772 C1779 0.950 . S
C1773 C1771 1.396 . S
C1773 C1775 1.390 . S
C1773 H1777 0.950 . S
H1774 C1770 0.950 . S
C1775 C1773 1.390 . S
C1775 C1776 1.379 1_665 S
C1775 H1778 0.950 . S
C1776 C1775 1.379 1_445 S
C1776 C1779 1.396 . S
H1777 C1773 0.950 . S
H1778 C1775 0.950 . S
C1779 C1770 1.390 . S
C1779 H1772 0.950 . S
C1779 C1776 1.396 . S
C1780 C1781 1.387 . S
C1780 H1784 0.950 . S
C1780 C1789 1.390 . S
C1781 C1780 1.387 . S
C1781 C1783 1.387 . S
H1782 C1789 0.950 . S
C1783 C1781 1.387 . S
C1783 C1785 1.390 . S
C1783 H1787 0.950 . S
H1784 C1780 0.950 . S
C1785 C1783 1.390 . S
C1785 C1786 1.387 . S
C1785 H1788 0.950 . S
C1786 C1785 1.387 . S
C1786 C1789 1.387 . S
H1787 C1783 0.950 . S
H1788 C1785 0.950 . S
C1789 C1780 1.390 . S
C1789 H1782 0.950 . S
C1789 C1786 1.387 . S
C1790 C1791 1.396 . S
C1790 H1794 0.950 . S
C1790 C1799 1.390 1_554 S
C1791 C1790 1.396 . S
C1791 C1793 1.379 1_565 S
H1792 C1799 0.950 . S
C1793 C1791 1.379 1_545 S
C1793 C1795 1.390 1_554 S
C1793 H1797 0.950 . S
H1794 C1790 0.950 . S
C1795 C1793 1.390 1_556 S
C1795 C1796 1.396 . S
C1795 H1798 0.950 . S
C1796 C1795 1.396 . S
C1796 C1799 1.379 1_545 S
H1797 C1793 0.950 . S
H1798 C1795 0.950 . S
C1799 C1790 1.390 1_556 S
C1799 H1792 0.950 . S
C1799 C1796 1.379 1_565 S
C1800 C1801 1.387 . S
C1800 H1804 0.950 . S
C1800 C1809 1.390 . S
C1801 C1800 1.387 . S
C1801 C1803 1.387 . S
H1802 C1809 0.950 . S
C1803 C1801 1.387 . S
C1803 C1805 1.390 . S
C1803 H1807 0.950 . S
H1804 C1800 0.950 . S
C1805 C1803 1.390 . S
C1805 C1806 1.387 . S
C1805 H1808 0.950 . S
C1806 C1805 1.387 . S
C1806 C1809 1.387 . S
H1807 C1803 0.950 . S
H1808 C1805 0.950 . S
C1809 C1800 1.390 . S
C1809 H1802 0.950 . S
C1809 C1806 1.387 . S
C1810 C1811 1.380 1_545 S
C1810 H1814 0.950 . S
C1810 C1819 1.390 . S
C1811 C1810 1.380 1_565 S
C1811 C1813 1.395 . S
H1812 C1819 0.950 . S
C1813 C1811 1.395 . S
C1813 C1815 1.390 . S
C1813 H1817 0.950 . S
H1814 C1810 0.950 . S
C1815 C1813 1.390 . S
C1815 C1816 1.380 1_565 S
C1815 H1818 0.950 . S
C1816 C1815 1.380 1_545 S
C1816 C1819 1.395 . S
H1817 C1813 0.950 . S
H1818 C1815 0.950 . S
C1819 C1810 1.390 . S
C1819 H1812 0.950 . S
C1819 C1816 1.395 . S
C1820 C1821 1.387 . S
C1820 H1824 0.950 . S
C1820 C1829 1.390 . S
C1821 C1820 1.387 . S
C1821 C1823 1.387 . S
H1822 C1829 0.950 . S
C1823 C1821 1.387 . S
C1823 C1825 1.390 . S
C1823 H1827 0.950 . S
H1824 C1820 0.950 . S
C1825 C1823 1.390 . S
C1825 C1826 1.387 . S
C1825 H1828 0.950 . S
C1826 C1825 1.387 . S
C1826 C1829 1.387 . S
H1827 C1823 0.950 . S
H1828 C1825 0.950 . S
C1829 C1820 1.390 . S
C1829 H1822 0.950 . S
C1829 C1826 1.387 . S
C1830 C1831 1.395 1_655 S
C1830 H1834 0.950 . S
C1830 C1839 1.390 1_556 S
C1831 C1830 1.395 1_455 S
C1831 C1833 1.380 1_565 S
H1832 C1839 0.950 . S
C1833 C1831 1.380 1_545 S
C1833 C1835 1.390 1_556 S
C1833 H1837 0.950 . S
H1834 C1830 0.950 . S
C1835 C1833 1.390 1_554 S
C1835 C1836 1.395 1_455 S
C1835 H1838 0.950 . S
C1836 C1835 1.395 1_655 S
C1836 C1839 1.380 1_545 S
H1837 C1833 0.950 . S
H1838 C1835 0.950 . S
C1839 C1830 1.390 1_554 S
C1839 H1832 0.950 . S
C1839 C1836 1.380 1_565 S
C1840 C1841 1.387 . S
C1840 H1844 0.950 . S
C1840 C1849 1.390 . S
C1841 C1840 1.387 . S
C1841 C1843 1.387 . S
H1842 C1849 0.950 . S
C1843 C1841 1.387 . S
C1843 C1845 1.390 . S
C1843 H1847 0.950 . S
H1844 C1840 0.950 . S
C1845 C1843 1.390 . S
C1845 C1846 1.387 . S
C1845 H1848 0.950 . S
C1846 C1845 1.387 . S
C1846 C1849 1.387 . S
H1847 C1843 0.950 . S
H1848 C1845 0.950 . S
C1849 C1840 1.390 . S
C1849 H1842 0.950 . S
C1849 C1846 1.387 . S
C1850 C1851 1.387 . S
C1850 H1854 0.950 . S
C1850 C1859 1.390 . S
C1851 C1850 1.387 . S
C1851 C1853 1.387 . S
H1852 C1859 0.950 . S
C1853 C1851 1.387 . S
C1853 C1855 1.390 . S
C1853 H1857 0.950 . S
H1854 C1850 0.950 . S
C1855 C1853 1.390 . S
C1855 C1856 1.387 . S
C1855 H1858 0.950 . S
C1856 C1855 1.387 . S
C1856 C1859 1.387 . S
H1857 C1853 0.950 . S
H1858 C1855 0.950 . S
C1859 C1850 1.390 . S
C1859 H1852 0.950 . S
C1859 C1856 1.387 . S
C1860 C1861 1.387 . S
C1860 H1864 0.950 . S
C1860 C1869 1.390 . S
C1861 C1860 1.387 . S
C1861 C1863 1.387 . S
H1862 C1869 0.950 . S
C1863 C1861 1.387 . S
C1863 C1865 1.390 . S
C1863 H1867 0.950 . S
H1864 C1860 0.950 . S
C1865 C1863 1.390 . S
C1865 C1866 1.387 . S
C1865 H1868 0.950 . S
C1866 C1865 1.387 . S
C1866 C1869 1.387 . S
H1867 C1863 0.950 . S
H1868 C1865 0.950 . S
C1869 C1860 1.390 . S
C1869 H1862 0.950 . S
C1869 C1866 1.387 . S
C1870 C1871 1.387 . S
C1870 H1874 0.950 . S
C1870 C1879 1.390 . S
C1871 C1870 1.387 . S
C1871 C1873 1.387 . S
H1872 C1879 0.950 . S
C1873 C1871 1.387 . S
C1873 C1875 1.390 . S
C1873 H1877 0.950 . S
H1874 C1870 0.950 . S
C1875 C1873 1.390 . S
C1875 C1876 1.387 . S
C1875 H1878 0.950 . S
C1876 C1875 1.387 . S
C1876 C1879 1.387 . S
H1877 C1873 0.950 . S
H1878 C1875 0.950 . S
C1879 C1870 1.390 . S
C1879 H1872 0.950 . S
C1879 C1876 1.387 . S
C1880 C1881 1.387 . S
C1880 H1884 0.950 . S
C1880 C1889 1.390 1_554 S
C1881 C1880 1.387 . S
C1881 C1883 1.387 . S
H1882 C1889 0.950 . S
C1883 C1881 1.387 . S
C1883 C1885 1.390 1_554 S
C1883 H1887 0.950 . S
H1884 C1880 0.950 . S
C1885 C1883 1.390 1_556 S
C1885 C1886 1.387 . S
C1885 H1888 0.950 . S
C1886 C1885 1.387 . S
C1886 C1889 1.387 . S
H1887 C1883 0.950 . S
H1888 C1885 0.950 . S
C1889 C1880 1.390 1_556 S
C1889 H1882 0.950 . S
C1889 C1886 1.387 . S
C1890 C1891 1.387 . S
C1890 H1894 0.950 . S
C1890 C1899 1.390 . S
C1891 C1890 1.387 . S
C1891 C1893 1.387 1_655 S
H1892 C1899 0.950 . S
C1893 C1891 1.387 1_455 S
C1893 C1895 1.390 . S
C1893 H1897 0.950 . S
H1894 C1890 0.950 . S
C1895 C1893 1.390 . S
C1895 C1896 1.387 . S
C1895 H1898 0.950 . S
C1896 C1895 1.387 . S
C1896 C1899 1.387 1_455 S
H1897 C1893 0.950 . S
H1898 C1895 0.950 . S
C1899 C1890 1.390 . S
C1899 H1892 0.950 . S
C1899 C1896 1.387 1_655 S
C1900 C1901 1.386 1_655 S
C1900 H1904 0.950 . S
C1900 C1909 1.391 1_554 S
C1901 C1900 1.386 1_455 S
C1901 C1903 1.387 . S
H1902 C1909 0.950 . S
C1903 C1901 1.387 . S
C1903 C1905 1.391 1_554 S
C1903 H1907 0.950 . S
H1904 C1900 0.950 . S
C1905 C1903 1.391 1_556 S
C1905 C1906 1.386 1_455 S
C1905 H1908 0.950 . S
C1906 C1905 1.386 1_655 S
C1906 C1909 1.387 . S
H1907 C1903 0.950 . S
H1908 C1905 0.950 . S
C1909 C1900 1.391 1_556 S
C1909 H1902 0.950 . S
C1909 C1906 1.387 . S
C1910 C1911 1.387 . S
C1910 H1914 0.950 . S
C1910 C1919 1.390 . S
C1911 C1910 1.387 . S
C1911 C1913 1.387 . S
H1912 C1919 0.950 . S
C1913 C1911 1.387 . S
C1913 C1915 1.390 . S
C1913 H1917 0.950 . S
H1914 C1910 0.950 . S
C1915 C1913 1.390 . S
C1915 C1916 1.387 . S
C1915 H1918 0.950 . S
C1916 C1915 1.387 . S
C1916 C1919 1.387 . S
H1917 C1913 0.950 . S
H1918 C1915 0.950 . S
C1919 C1910 1.390 . S
C1919 H1912 0.950 . S
C1919 C1916 1.387 . S
C1920 C1921 1.387 . S
C1920 H1924 0.950 . S
C1920 C1929 1.390 . S
C1921 C1920 1.387 . S
C1921 C1923 1.387 . S
H1922 C1929 0.950 . S
C1923 C1921 1.387 . S
C1923 C1925 1.390 . S
C1923 H1927 0.950 . S
H1924 C1920 0.950 . S
C1925 C1923 1.390 . S
C1925 C1926 1.387 . S
C1925 H1928 0.950 . S
C1926 C1925 1.387 . S
C1926 C1929 1.387 . S
H1927 C1923 0.950 . S
H1928 C1925 0.950 . S
C1929 C1920 1.390 . S
C1929 H1922 0.950 . S
C1929 C1926 1.387 . S
C1930 C1931 1.387 . S
C1930 H1934 0.950 . S
C1930 C1939 1.390 . S
C1931 C1930 1.387 . S
C1931 C1933 1.387 . S
H1932 C1939 0.950 . S
C1933 C1931 1.387 . S
C1933 C1935 1.390 . S
C1933 H1937 0.950 . S
H1934 C1930 0.950 . S
C1935 C1933 1.390 . S
C1935 C1936 1.387 . S
C1935 H1938 0.950 . S
C1936 C1935 1.387 . S
C1936 C1939 1.387 . S
H1937 C1933 0.950 . S
H1938 C1935 0.950 . S
C1939 C1930 1.390 . S
C1939 H1932 0.950 . S
C1939 C1936 1.387 . S
C1940 C1941 1.387 . S
C1940 H1944 0.950 . S
C1940 C1949 1.390 . S
C1941 C1940 1.387 . S
C1941 C1943 1.387 . S
H1942 C1949 0.950 . S
C1943 C1941 1.387 . S
C1943 C1945 1.390 . S
C1943 H1947 0.950 . S
H1944 C1940 0.950 . S
C1945 C1943 1.390 . S
C1945 C1946 1.387 . S
C1945 H1948 0.950 . S
C1946 C1945 1.387 . S
C1946 C1949 1.387 . S
H1947 C1943 0.950 . S
H1948 C1945 0.950 . S
C1949 C1940 1.390 . S
C1949 H1942 0.950 . S
C1949 C1946 1.387 . S
C1950 C1951 1.387 . S
C1950 H1954 0.950 . S
C1950 C1959 1.390 . S
C1951 C1950 1.387 . S
C1951 C1953 1.387 . S
H1952 C1959 0.950 . S
C1953 C1951 1.387 . S
C1953 C1955 1.390 . S
C1953 H1957 0.950 . S
H1954 C1950 0.950 . S
C1955 C1953 1.390 . S
C1955 C1956 1.387 . S
C1955 H1958 0.950 . S
C1956 C1955 1.387 . S
C1956 C1959 1.387 . S
H1957 C1953 0.950 . S
H1958 C1955 0.950 . S
C1959 C1950 1.390 . S
C1959 H1952 0.950 . S
C1959 C1956 1.387 . S
C1960 C1961 1.387 . S
C1960 H1964 0.950 . S
C1960 C1969 1.390 . S
C1961 C1960 1.387 . S
C1961 C1963 1.387 . S
H1962 C1969 0.950 . S
C1963 C1961 1.387 . S
C1963 C1965 1.390 . S
C1963 H1967 0.950 . S
H1964 C1960 0.950 . S
C1965 C1963 1.390 . S
C1965 C1966 1.387 . S
C1965 H1968 0.950 . S
C1966 C1965 1.387 . S
C1966 C1969 1.387 . S
H1967 C1963 0.950 . S
H1968 C1965 0.950 . S
C1969 C1960 1.390 . S
C1969 H1962 0.950 . S
C1969 C1966 1.387 . S
C1970 C1971 1.387 . S
C1970 H1974 0.950 . S
C1970 C1979 1.390 . S
C1971 C1970 1.387 . S
C1971 C1973 1.387 . S
H1972 C1979 0.950 . S
C1973 C1971 1.387 . S
C1973 C1975 1.390 . S
C1973 H1977 0.950 . S
H1974 C1970 0.950 . S
C1975 C1973 1.390 . S
C1975 C1976 1.387 . S
C1975 H1978 0.950 . S
C1976 C1975 1.387 . S
C1976 C1979 1.387 . S
H1977 C1973 0.950 . S
H1978 C1975 0.950 . S
C1979 C1970 1.390 . S
C1979 H1972 0.950 . S
C1979 C1976 1.387 . S
C1980 C1981 1.387 . S
C1980 H1984 0.950 . S
C1980 C1989 1.390 . S
C1981 C1980 1.387 . S
C1981 C1983 1.387 . S
H1982 C1989 0.950 . S
C1983 C1981 1.387 . S
C1983 C1985 1.390 . S
C1983 H1987 0.950 . S
H1984 C1980 0.950 . S
C1985 C1983 1.390 . S
C1985 C1986 1.387 . S
C1985 H1988 0.950 . S
C1986 C1985 1.387 . S
C1986 C1989 1.387 . S
H1987 C1983 0.950 . S
H1988 C1985 0.950 . S
C1989 C1980 1.390 . S
C1989 H1982 0.950 . S
C1989 C1986 1.387 . S
C1990 C1991 1.387 . S
C1990 H1994 0.950 . S
C1990 C1999 1.390 . S
C1991 C1990 1.387 . S
C1991 C1993 1.387 . S
H1992 C1999 0.950 . S
C1993 C1991 1.387 . S
C1993 C1995 1.390 . S
C1993 H1997 0.950 . S
H1994 C1990 0.950 . S
C1995 C1993 1.390 . S
C1995 C1996 1.387 . S
C1995 H1998 0.950 . S
C1996 C1995 1.387 . S
C1996 C1999 1.387 . S
H1997 C1993 0.950 . S
H1998 C1995 0.950 . S
C1999 C1990 1.390 . S
C1999 H1992 0.950 . S
C1999 C1996 1.387 . S
C2000 C2001 1.387 . S
C2000 H2004 0.950 . S
C2000 C2009 1.390 . S
C2001 C2000 1.387 . S
C2001 C2003 1.387 . S
H2002 C2009 0.950 . S
C2003 C2001 1.387 . S
C2003 C2005 1.390 . S
C2003 H2007 0.950 . S
H2004 C2000 0.950 . S
C2005 C2003 1.390 . S
C2005 C2006 1.387 . S
C2005 H2008 0.950 . S
C2006 C2005 1.387 . S
C2006 C2009 1.387 . S
H2007 C2003 0.950 . S
H2008 C2005 0.950 . S
C2009 C2000 1.390 . S
C2009 H2002 0.950 . S
C2009 C2006 1.387 . S
C2010 C2011 1.387 . S
C2010 H2014 0.950 . S
C2010 C2019 1.390 . S
C2011 C2010 1.387 . S
C2011 C2013 1.387 . S
H2012 C2019 0.950 . S
C2013 C2011 1.387 . S
C2013 C2015 1.390 . S
C2013 H2017 0.950 . S
H2014 C2010 0.950 . S
C2015 C2013 1.390 . S
C2015 C2016 1.387 . S
C2015 H2018 0.950 . S
C2016 C2015 1.387 . S
C2016 C2019 1.387 . S
H2017 C2013 0.950 . S
H2018 C2015 0.950 . S
C2019 C2010 1.390 . S
C2019 H2012 0.950 . S
C2019 C2016 1.387 . S
C2020 C2021 1.387 . S
C2020 H2024 0.950 . S
C2020 C2029 1.390 . S
C2021 C2020 1.387 . S
C2021 C2023 1.387 . S
H2022 C2029 0.950 . S
C2023 C2021 1.387 . S
C2023 C2025 1.390 . S
C2023 H2027 0.950 . S
H2024 C2020 0.950 . S
C2025 C2023 1.390 . S
C2025 C2026 1.387 . S
C2025 H2028 0.950 . S
C2026 C2025 1.387 . S
C2026 C2029 1.387 . S
H2027 C2023 0.950 . S
H2028 C2025 0.950 . S
C2029 C2020 1.390 . S
C2029 H2022 0.950 . S
C2029 C2026 1.387 . S
C2030 C2031 1.387 . S
C2030 H2034 0.950 . S
C2030 C2039 1.390 . S
C2031 C2030 1.387 . S
C2031 C2033 1.387 . S
H2032 C2039 0.950 . S
C2033 C2031 1.387 . S
C2033 C2035 1.390 . S
C2033 H2037 0.950 . S
H2034 C2030 0.950 . S
C2035 C2033 1.390 . S
C2035 C2036 1.387 . S
C2035 H2038 0.950 . S
C2036 C2035 1.387 . S
C2036 C2039 1.387 . S
H2037 C2033 0.950 . S
H2038 C2035 0.950 . S
C2039 C2030 1.390 . S
C2039 H2032 0.950 . S
C2039 C2036 1.387 . S
C2040 C2041 1.387 . S
C2040 H2044 0.950 . S
C2040 C2049 1.390 . S
C2041 C2040 1.387 . S
C2041 C2043 1.387 . S
H2042 C2049 0.950 . S
C2043 C2041 1.387 . S
C2043 C2045 1.390 . S
C2043 H2047 0.950 . S
H2044 C2040 0.950 . S
C2045 C2043 1.390 . S
C2045 C2046 1.387 . S
C2045 H2048 0.950 . S
C2046 C2045 1.387 . S
C2046 C2049 1.387 . S
H2047 C2043 0.950 . S
H2048 C2045 0.950 . S
C2049 C2040 1.390 . S
C2049 H2042 0.950 . S
C2049 C2046 1.387 . S
C2050 C2051 1.387 . S
C2050 H2054 0.950 . S
C2050 C2059 1.390 . S
C2051 C2050 1.387 . S
C2051 C2053 1.387 . S
H2052 C2059 0.950 . S
C2053 C2051 1.387 . S
C2053 C2055 1.390 . S
C2053 H2057 0.950 . S
H2054 C2050 0.950 . S
C2055 C2053 1.390 . S
C2055 C2056 1.387 . S
C2055 H2058 0.950 . S
C2056 C2055 1.387 . S
C2056 C2059 1.387 . S
H2057 C2053 0.950 . S
H2058 C2055 0.950 . S
C2059 C2050 1.390 . S
C2059 H2052 0.950 . S
C2059 C2056 1.387 . S
C2060 C2061 1.387 . S
C2060 H2064 0.950 . S
C2060 C2069 1.390 . S
C2061 C2060 1.387 . S
C2061 C2063 1.387 . S
H2062 C2069 0.950 . S
C2063 C2061 1.387 . S
C2063 C2065 1.390 . S
C2063 H2067 0.950 . S
H2064 C2060 0.950 . S
C2065 C2063 1.390 . S
C2065 C2066 1.387 . S
C2065 H2068 0.950 . S
C2066 C2065 1.387 . S
C2066 C2069 1.387 . S
H2067 C2063 0.950 . S
H2068 C2065 0.950 . S
C2069 C2060 1.390 . S
C2069 H2062 0.950 . S
C2069 C2066 1.387 . S
C2070 C2071 1.387 . S
C2070 H2074 0.950 . S
C2070 C2079 1.390 . S
C2071 C2070 1.387 . S
C2071 C2073 1.387 . S
H2072 C2079 0.950 . S
C2073 C2071 1.387 . S
C2073 C2075 1.390 . S
C2073 H2077 0.950 . S
H2074 C2070 0.950 . S
C2075 C2073 1.390 . S
C2075 C2076 1.387 . S
C2075 H2078 0.950 . S
C2076 C2075 1.387 . S
C2076 C2079 1.387 . S
H2077 C2073 0.950 . S
H2078 C2075 0.950 . S
C2079 C2070 1.390 . S
C2079 H2072 0.950 . S
C2079 C2076 1.387 . S
C2080 C2081 1.387 . S
C2080 H2084 0.950 . S
C2080 C2089 1.390 1_545 S
C2081 C2080 1.387 . S
C2081 C2083 1.387 . S
H2082 C2089 0.950 . S
C2083 C2081 1.387 . S
C2083 C2085 1.390 1_545 S
C2083 H2087 0.950 . S
H2084 C2080 0.950 . S
C2085 C2083 1.390 1_565 S
C2085 C2086 1.387 . S
C2085 H2088 0.950 . S
C2086 C2085 1.387 . S
C2086 C2089 1.387 . S
H2087 C2083 0.950 . S
H2088 C2085 0.950 . S
C2089 C2080 1.390 1_565 S
C2089 H2082 0.950 . S
C2089 C2086 1.387 . S
C2090 C2091 1.389 1_565 S
C2090 H2094 0.950 . S
C2090 C2099 1.390 . S
C2091 C2090 1.389 1_545 S
C2091 C2093 1.386 . S
H2092 C2099 0.950 . S
C2093 C2091 1.386 . S
C2093 C2095 1.390 . S
C2093 H2097 0.950 . S
H2094 C2090 0.950 . S
C2095 C2093 1.390 . S
C2095 C2096 1.386 . S
C2095 H2098 0.950 . S
C2096 C2095 1.386 . S
C2096 C2099 1.389 1_545 S
H2097 C2093 0.950 . S
H2098 C2095 0.950 . S
C2099 C2090 1.390 . S
C2099 H2092 0.950 . S
C2099 C2096 1.389 1_565 S
C2100 C2101 1.387 . S
C2100 H2104 0.950 . S
C2100 C2109 1.390 1_545 S
C2101 C2100 1.387 . S
C2101 C2103 1.387 . S
H2102 C2109 0.950 . S
C2103 C2101 1.387 . S
C2103 C2105 1.390 1_545 S
C2103 H2107 0.950 . S
H2104 C2100 0.950 . S
C2105 C2103 1.390 1_565 S
C2105 C2106 1.387 . S
C2105 H2108 0.950 . S
C2106 C2105 1.387 . S
C2106 C2109 1.387 . S
H2107 C2103 0.950 . S
H2108 C2105 0.950 . S
C2109 C2100 1.390 1_565 S
C2109 H2102 0.950 . S
C2109 C2106 1.387 . S
C2110 C2111 1.388 . S
C2110 H2114 0.949 . S
C2110 C2119 1.385 1_556 S
C2111 C2110 1.388 . S
C2111 C2113 1.393 1_565 S
H2112 C2119 0.949 . S
C2113 C2111 1.393 1_545 S
C2113 C2115 1.385 1_556 S
C2113 H2117 0.949 . S
H2114 C2110 0.949 . S
C2115 C2113 1.385 1_554 S
C2115 C2116 1.393 1_545 S
C2115 H2118 0.949 . S
C2116 C2115 1.393 1_565 S
C2116 C2119 1.389 . S
H2117 C2113 0.949 . S
H2118 C2115 0.949 . S
C2119 C2110 1.385 1_554 S
C2119 H2112 0.949 . S
C2119 C2116 1.389 . S
C2120 C2121 1.387 . S
C2120 H2124 0.950 . S
C2120 C2129 1.390 1_565 S
C2121 C2120 1.387 . S
C2121 C2123 1.387 . S
H2122 C2129 0.950 . S
C2123 C2121 1.387 . S
C2123 C2125 1.390 1_565 S
C2123 H2127 0.950 . S
H2124 C2120 0.950 . S
C2125 C2123 1.390 1_545 S
C2125 C2126 1.387 . S
C2125 H2128 0.950 . S
C2126 C2125 1.387 . S
C2126 C2129 1.387 . S
H2127 C2123 0.950 . S
H2128 C2125 0.950 . S
C2129 C2120 1.390 1_545 S
C2129 H2122 0.950 . S
C2129 C2126 1.387 . S
C2130 C2131 1.386 . S
C2130 H2134 0.950 . S
C2130 C2139 1.390 . S
C2131 C2130 1.386 . S
C2131 C2133 1.389 1_565 S
H2132 C2139 0.950 . S
C2133 C2131 1.389 1_545 S
C2133 C2135 1.390 . S
C2133 H2137 0.950 . S
H2134 C2130 0.950 . S
C2135 C2133 1.390 . S
C2135 C2136 1.389 1_545 S
C2135 H2138 0.950 . S
C2136 C2135 1.389 1_565 S
C2136 C2139 1.386 . S
H2137 C2133 0.950 . S
H2138 C2135 0.950 . S
C2139 C2130 1.390 . S
C2139 H2132 0.950 . S
C2139 C2136 1.386 . S
C2140 C2141 1.387 . S
C2140 H2144 0.950 . S
C2140 C2149 1.390 1_565 S
C2141 C2140 1.387 . S
C2141 C2143 1.387 . S
H2142 C2149 0.950 . S
C2143 C2141 1.387 . S
C2143 C2145 1.390 1_565 S
C2143 H2147 0.950 . S
H2144 C2140 0.950 . S
C2145 C2143 1.390 1_545 S
C2145 C2146 1.387 . S
C2145 H2148 0.950 . S
C2146 C2145 1.387 . S
C2146 C2149 1.387 . S
H2147 C2143 0.950 . S
H2148 C2145 0.950 . S
C2149 C2140 1.390 1_545 S
C2149 H2142 0.950 . S
C2149 C2146 1.387 . S
C2150 C2151 1.389 . S
C2150 H2154 0.954 . S
C2150 C2159 1.384 1_554 S
C2151 C2150 1.389 . S
C2151 C2153 1.393 1_545 S
H2152 C2159 0.955 . S
C2153 C2151 1.393 1_565 S
C2153 C2155 1.384 1_554 S
C2153 H2157 0.955 . S
H2154 C2150 0.954 . S
C2155 C2153 1.384 1_556 S
C2155 C2156 1.393 1_565 S
C2155 H2158 0.955 . S
C2156 C2155 1.393 1_545 S
C2156 C2159 1.389 . S
H2157 C2153 0.955 . S
H2158 C2155 0.955 . S
C2159 C2150 1.384 1_556 S
C2159 H2152 0.955 . S
C2159 C2156 1.389 . S
C2160 C2161 1.387 . S
C2160 H2164 0.950 . S
C2160 C2169 1.390 . S
C2161 C2160 1.387 . S
C2161 C2163 1.387 . S
H2162 C2169 0.950 . S
C2163 C2161 1.387 . S
C2163 C2165 1.390 . S
C2163 H2167 0.950 . S
H2164 C2160 0.950 . S
C2165 C2163 1.390 . S
C2165 C2166 1.387 . S
C2165 H2168 0.950 . S
C2166 C2165 1.387 . S
C2166 C2169 1.387 . S
H2167 C2163 0.950 . S
H2168 C2165 0.950 . S
C2169 C2160 1.390 . S
C2169 H2162 0.950 . S
C2169 C2166 1.387 . S
C2170 C2171 1.391 . S
C2170 H2174 0.955 . S
C2170 C2179 1.384 1_556 S
C2171 C2170 1.391 . S
C2171 C2173 1.391 . S
H2172 C2179 0.955 . S
C2173 C2171 1.391 . S
C2173 C2175 1.384 1_556 S
C2173 H2177 0.955 . S
H2174 C2170 0.955 . S
C2175 C2173 1.384 1_554 S
C2175 C2176 1.391 . S
C2175 H2178 0.954 . S
C2176 C2175 1.391 . S
C2176 C2179 1.391 . S
H2177 C2173 0.955 . S
H2178 C2175 0.954 . S
C2179 C2170 1.384 1_554 S
C2179 H2172 0.955 . S
C2179 C2176 1.391 . S
C2180 C2181 1.387 . S
C2180 H2184 0.950 . S
C2180 C2189 1.390 . S
C2181 C2180 1.387 . S
C2181 C2183 1.387 . S
H2182 C2189 0.950 . S
C2183 C2181 1.387 . S
C2183 C2185 1.390 . S
C2183 H2187 0.950 . S
H2184 C2180 0.950 . S
C2185 C2183 1.390 . S
C2185 C2186 1.387 . S
C2185 H2188 0.950 . S
C2186 C2185 1.387 . S
C2186 C2189 1.387 . S
H2187 C2183 0.950 . S
H2188 C2185 0.950 . S
C2189 C2180 1.390 . S
C2189 H2182 0.950 . S
C2189 C2186 1.387 . S
C2190 C2191 1.387 . S
C2190 H2194 0.950 . S
C2190 C2199 1.390 . S
C2191 C2190 1.387 . S
C2191 C2193 1.387 . S
H2192 C2199 0.950 . S
C2193 C2191 1.387 . S
C2193 C2195 1.390 . S
C2193 H2197 0.950 . S
H2194 C2190 0.950 . S
C2195 C2193 1.390 . S
C2195 C2196 1.387 . S
C2195 H2198 0.950 . S
C2196 C2195 1.387 . S
C2196 C2199 1.387 . S
H2197 C2193 0.950 . S
H2198 C2195 0.950 . S
C2199 C2190 1.390 . S
C2199 H2192 0.950 . S
C2199 C2196 1.387 . S
C2200 C2201 1.387 . S
C2200 H2204 0.950 . S
C2200 C2209 1.390 . S
C2201 C2200 1.387 . S
C2201 C2203 1.387 . S
H2202 C2209 0.950 . S
C2203 C2201 1.387 . S
C2203 C2205 1.390 . S
C2203 H2207 0.950 . S
H2204 C2200 0.950 . S
C2205 C2203 1.390 . S
C2205 C2206 1.387 . S
C2205 H2208 0.950 . S
C2206 C2205 1.387 . S
C2206 C2209 1.387 . S
H2207 C2203 0.950 . S
H2208 C2205 0.950 . S
C2209 C2200 1.390 . S
C2209 H2202 0.950 . S
C2209 C2206 1.387 . S
C2210 C2211 1.391 . S
C2210 H2214 0.949 . S
C2210 C2219 1.385 1_556 S
C2211 C2210 1.391 . S
C2211 C2213 1.391 . S
H2212 C2219 0.949 . S
C2213 C2211 1.391 . S
C2213 C2215 1.385 1_556 S
C2213 H2217 0.949 . S
H2214 C2210 0.949 . S
C2215 C2213 1.385 1_554 S
C2215 C2216 1.391 . S
C2215 H2218 0.949 . S
C2216 C2215 1.391 . S
C2216 C2219 1.390 . S
H2217 C2213 0.949 . S
H2218 C2215 0.949 . S
C2219 C2210 1.385 1_554 S
C2219 H2212 0.949 . S
C2219 C2216 1.390 . S
C2220 C2221 1.387 . S
C2220 H2224 0.950 . S
C2220 C2229 1.390 . S
C2221 C2220 1.387 . S
C2221 C2223 1.387 . S
H2222 C2229 0.950 . S
C2223 C2221 1.387 . S
C2223 C2225 1.390 . S
C2223 H2227 0.950 . S
H2224 C2220 0.950 . S
C2225 C2223 1.390 . S
C2225 C2226 1.387 . S
C2225 H2228 0.950 . S
C2226 C2225 1.387 . S
C2226 C2229 1.387 . S
H2227 C2223 0.950 . S
H2228 C2225 0.950 . S
C2229 C2220 1.390 . S
C2229 H2222 0.950 . S
C2229 C2226 1.387 . S
C2230 C2231 1.387 . S
C2230 H2234 0.950 . S
C2230 C2239 1.390 . S
C2231 C2230 1.387 . S
C2231 C2233 1.387 . S
H2232 C2239 0.950 . S
C2233 C2231 1.387 . S
C2233 C2235 1.390 . S
C2233 H2237 0.950 . S
H2234 C2230 0.950 . S
C2235 C2233 1.390 . S
C2235 C2236 1.387 . S
C2235 H2238 0.950 . S
C2236 C2235 1.387 . S
C2236 C2239 1.387 . S
H2237 C2233 0.950 . S
H2238 C2235 0.950 . S
C2239 C2230 1.390 . S
C2239 H2232 0.950 . S
C2239 C2236 1.387 . S
C1281 C6 0.952 . S
C1286 C1099 0.919 . S
C1291 C46 0.958 . S
C1296 C339 0.925 . S
C1301 C86 0.952 . S
C1306 C1019 0.919 . S
C1311 C419 0.924 . S
C1316 C126 0.957 . S
C1321 C166 0.952 . S
C1326 C1179 0.919 . S
C1331 C579 0.926 . S
C1336 C206 0.959 . S
C1341 C1259 0.928 . S
C1346 C246 0.961 . S
C1351 C286 0.958 . S
C1356 C499 0.925 . S
C1361 C335 0.960 . S
C1366 C770 0.928 . S
C1371 C375 0.961 . S
C1376 C10 0.928 . S
C1381 C690 0.919 . S
C1386 C415 0.952 . S
C1391 C90 0.923 . S
C1396 C455 0.956 . S
C1401 C495 0.960 . S
C1406 C850 0.928 . S
C1411 C535 0.953 . S
C1416 C250 0.920 . S
C1421 C575 0.952 . S
C1426 C930 0.919 . S
C1431 C170 0.928 . S
C1436 C615 0.961 . S
C1441 C459 0.927 . S
C1446 C646 0.960 . S
C1451 C979 0.922 . S
C1456 C686 0.955 . S
C1461 C379 0.919 . S
C1466 C726 0.952 . S
C1471 C766 0.953 . S
C1476 C1059 0.919 . S
C1481 C539 0.923 . S
C1486 C806 0.956 . S
C1491 C1219 0.919 . S
C1496 C846 0.952 . S
C1501 C619 0.919 . S
C1506 C886 0.952 . S
C1511 C926 0.952 . S
C1516 C1139 0.919 . S
C1521 C975 0.960 . S
C1526 C130 0.928 . S
C1531 C1015 0.955 . S
C1536 C650 0.922 . S
C1541 C1055 0.960 . S
C1546 C50 0.928 . S
C1551 C1095 0.952 . S
C1556 C730 0.919 . S
C1561 C210 0.928 . S
C1566 C1135 0.961 . S
C1571 C890 0.922 . S
C1576 C1175 0.955 . S
C1581 C1215 0.955 . S
C1586 C290 0.922 . S
C1591 C1255 0.960 . S
C1596 C810 0.927 . S
C1601 C18 2.984 . S
C1606 C738 2.984 . S
C1611 C778 2.987 1_455 S
C1616 C58 2.987 1_655 S
C1621 C98 2.985 . S
C1626 C658 2.985 . S
C1631 C138 2.984 . S
C1636 C698 2.985 . S
C1641 C898 2.987 . S
C1646 C178 2.987 . S
C1651 C218 2.987 . S
C1656 C938 2.987 . S
C1661 C818 2.987 . S
C1666 C258 2.987 . S
C1671 C298 2.987 1_655 S
C1676 C858 2.987 1_455 S
C1681 C1049 2.987 . S
C1686 C329 2.987 . S
C1691 C369 2.987 1_455 S
C1696 C1089 2.987 1_655 S
C1701 C409 2.985 . S
C1706 C969 2.985 . S
C1711 C449 2.987 . S
C1716 C1009 2.987 . S
C1721 C1209 2.987 . S
C1726 C489 2.987 . S
C1731 C1249 2.987 . S
C1736 C529 2.987 . S
C1741 C569 2.985 . S
C1746 C1129 2.985 . S
C1751 C609 2.987 1_455 S
C1756 C1169 2.987 1_655 S
C1761 C19 3.478 . S
C1766 C970 3.478 . S
C1771 C370 3.477 1_565 S
C1776 C59 3.477 1_545 S
C1781 C99 3.479 . S
C1786 C1050 3.479 . S
C1791 C139 3.477 1_565 S
C1796 C450 3.477 1_545 S
C1801 C1130 3.477 . S
C1806 C179 3.477 . S
C1811 C530 3.477 1_565 S
C1816 C219 3.477 1_545 S
C1821 C259 3.478 . S
C1826 C1210 3.478 . S
C1831 C299 3.477 1_565 S
C1836 C610 3.477 1_545 S
C1841 C659 3.478 . S
C1846 C330 3.478 . S
C1851 C739 3.478 . S
C1856 C410 3.478 . S
C1861 C819 3.477 . S
C1866 C490 3.477 . S
C1871 C570 3.478 . S
C1876 C899 3.478 . S
C1881 C699 3.478 . S
C1886 C1010 3.478 . S
C1891 C779 3.478 . S
C1896 C1090 3.478 . S
C1901 C1170 3.478 . S
C1906 C859 3.478 . S
C1911 C1250 3.478 . S
C1916 C939 3.478 . S
C1921 C9 4.560 . S
C1926 C209 4.560 . S
C1931 C249 4.559 . S
C1936 C49 4.559 . S
C1941 C289 4.560 . S
C1946 C89 4.559 . S
C1951 C169 4.560 . S
C1956 C129 4.560 . S
C1961 C338 4.560 . S
C1966 C538 4.560 . S
C1971 C378 4.559 . S
C1976 C578 4.559 . S
C1981 C618 4.560 . S
C1986 C418 4.560 . S
C1991 C458 4.560 . S
C1996 C498 4.560 . S
C2001 C649 4.559 . S
C2006 C849 4.559 . S
C2011 C689 4.560 . S
C2016 C889 4.560 . S
C2021 C729 4.559 . S
C2026 C929 4.560 . S
C2031 C809 4.560 . S
C2036 C769 4.560 . S
C2041 C978 4.559 . S
C2046 C1178 4.559 . S
C2051 C1018 4.560 . S
C2056 C1218 4.559 . S
C2061 C1258 4.559 . S
C2066 C1058 4.559 . S
C2071 C1098 4.559 . S
C2076 C1138 4.559 . S
C2081 C15 0.686 . S
C2086 C175 0.686 . S
C2091 C55 0.687 1_545 S
C2096 C215 0.687 1_545 S
C2101 C255 0.696 . S
C2106 C95 0.696 . S
C2111 C295 0.696 1_565 S
C2116 C135 0.696 1_565 S
C2121 C326 0.696 . S
C2126 C486 0.696 . S
C2131 C526 0.687 1_565 S
C2136 C366 0.687 1_565 S
C2141 C566 0.686 . S
C2146 C406 0.686 . S
C2151 C606 0.687 1_545 S
C2156 C446 0.687 1_545 S
C2161 C655 0.696 . S
C2166 C815 0.696 . S
C2171 C855 0.686 . S
C2176 C695 0.686 . S
C2181 C735 0.686 . S
C2186 C895 0.686 . S
C2191 C935 0.696 . S
C2196 C775 0.696 . S
C2201 C1126 0.696 . S
C2206 C966 0.696 . S
C2211 C1006 0.696 . S
C2216 C1166 0.696 . S
C2221 C1046 0.686 . S
C2226 C1206 0.686 . S
C2231 C1086 0.696 . S
C2236 C1246 0.696 . S
