# Generated by pormake.
# Topology yfu, (5)-cn, num edge types: 1
# Building blocks:
#     Node 0, Type 0, BuildingBlock: XOMCOT_clean_sbu_0, # of connection points: 5
#     Node 1, Type 0, BuildingBlock: XOMCOT_clean_sbu_0, # of connection points: 5
#     Node 2, Type 0, BuildingBlock: XOMCOT_clean_sbu_0, # of connection points: 5
#     Node 3, Type 0, BuildingBlock: XOMCOT_clean_sbu_0, # of connection points: 5
#     Node 4, Type 0, BuildingBlock: XOMCOT_clean_sbu_0, # of connection points: 5
#     Node 5, Type 0, BuildingBlock: XOMCOT_clean_sbu_0, # of connection points: 5
#     Node 6, Type 0, BuildingBlock: XOMCOT_clean_sbu_0, # of connection points: 5
#     Node 7, Type 0, BuildingBlock: XOMCOT_clean_sbu_0, # of connection points: 5
#     Node 8, Type 0, BuildingBlock: XOMCOT_clean_sbu_0, # of connection points: 5
#     Node 9, Type 0, BuildingBlock: XOMCOT_clean_sbu_0, # of connection points: 5
#     Node 10, Type 0, BuildingBlock: XOMCOT_clean_sbu_0, # of connection points: 5
#     Node 11, Type 0, BuildingBlock: XOMCOT_clean_sbu_0, # of connection points: 5
#     Node 12, Type 0, BuildingBlock: XOMCOT_clean_sbu_0, # of connection points: 5
#     Node 13, Type 0, BuildingBlock: XOMCOT_clean_sbu_0, # of connection points: 5
#     Node 14, Type 0, BuildingBlock: XOMCOT_clean_sbu_0, # of connection points: 5
#     Node 15, Type 0, BuildingBlock: XOMCOT_clean_sbu_0, # of connection points: 5
#     Node 16, Type 0, BuildingBlock: XOMCOT_clean_sbu_0, # of connection points: 5
#     Node 17, Type 0, BuildingBlock: XOMCOT_clean_sbu_0, # of connection points: 5
#     Node 18, Type 0, BuildingBlock: XOMCOT_clean_sbu_0, # of connection points: 5
#     Node 19, Type 0, BuildingBlock: XOMCOT_clean_sbu_0, # of connection points: 5
#     Node 20, Type 0, BuildingBlock: XOMCOT_clean_sbu_0, # of connection points: 5
#     Node 21, Type 0, BuildingBlock: XOMCOT_clean_sbu_0, # of connection points: 5
#     Node 22, Type 0, BuildingBlock: XOMCOT_clean_sbu_0, # of connection points: 5
#     Node 23, Type 0, BuildingBlock: XOMCOT_clean_sbu_0, # of connection points: 5
#     Node 24, Type 0, BuildingBlock: XOMCOT_clean_sbu_0, # of connection points: 5
#     Node 25, Type 0, BuildingBlock: XOMCOT_clean_sbu_0, # of connection points: 5
#     Node 26, Type 0, BuildingBlock: XOMCOT_clean_sbu_0, # of connection points: 5
#     Node 27, Type 0, BuildingBlock: XOMCOT_clean_sbu_0, # of connection points: 5
#     Node 28, Type 0, BuildingBlock: XOMCOT_clean_sbu_0, # of connection points: 5
#     Node 29, Type 0, BuildingBlock: XOMCOT_clean_sbu_0, # of connection points: 5
#     Node 30, Type 0, BuildingBlock: XOMCOT_clean_sbu_0, # of connection points: 5
#     Node 31, Type 0, BuildingBlock: XOMCOT_clean_sbu_0, # of connection points: 5
#     Edge 32, Type (0, 0), BuildingBlock: KIFKEQ_clean_linker_1, # of connection points: 2
#     Edge 33, Type (0, 0), BuildingBlock: KIFKEQ_clean_linker_1, # of connection points: 2
#     Edge 34, Type (0, 0), BuildingBlock: KIFKEQ_clean_linker_1, # of connection points: 2
#     Edge 35, Type (0, 0), BuildingBlock: KIFKEQ_clean_linker_1, # of connection points: 2
#     Edge 36, Type (0, 0), BuildingBlock: KIFKEQ_clean_linker_1, # of connection points: 2
#     Edge 37, Type (0, 0), BuildingBlock: KIFKEQ_clean_linker_1, # of connection points: 2
#     Edge 38, Type (0, 0), BuildingBlock: KIFKEQ_clean_linker_1, # of connection points: 2
#     Edge 39, Type (0, 0), BuildingBlock: KIFKEQ_clean_linker_1, # of connection points: 2
#     Edge 40, Type (0, 0), BuildingBlock: KIFKEQ_clean_linker_1, # of connection points: 2
#     Edge 41, Type (0, 0), BuildingBlock: KIFKEQ_clean_linker_1, # of connection points: 2
#     Edge 42, Type (0, 0), BuildingBlock: KIFKEQ_clean_linker_1, # of connection points: 2
#     Edge 43, Type (0, 0), BuildingBlock: KIFKEQ_clean_linker_1, # of connection points: 2
#     Edge 44, Type (0, 0), BuildingBlock: KIFKEQ_clean_linker_1, # of connection points: 2
#     Edge 45, Type (0, 0), BuildingBlock: KIFKEQ_clean_linker_1, # of connection points: 2
#     Edge 46, Type (0, 0), BuildingBlock: KIFKEQ_clean_linker_1, # of connection points: 2
#     Edge 47, Type (0, 0), BuildingBlock: KIFKEQ_clean_linker_1, # of connection points: 2
#     Edge 48, Type (0, 0), BuildingBlock: KIFKEQ_clean_linker_1, # of connection points: 2
#     Edge 49, Type (0, 0), BuildingBlock: KIFKEQ_clean_linker_1, # of connection points: 2
#     Edge 50, Type (0, 0), BuildingBlock: KIFKEQ_clean_linker_1, # of connection points: 2
#     Edge 51, Type (0, 0), BuildingBlock: KIFKEQ_clean_linker_1, # of connection points: 2
#     Edge 52, Type (0, 0), BuildingBlock: KIFKEQ_clean_linker_1, # of connection points: 2
#     Edge 53, Type (0, 0), BuildingBlock: KIFKEQ_clean_linker_1, # of connection points: 2
#     Edge 54, Type (0, 0), BuildingBlock: KIFKEQ_clean_linker_1, # of connection points: 2
#     Edge 55, Type (0, 0), BuildingBlock: KIFKEQ_clean_linker_1, # of connection points: 2
#     Edge 56, Type (0, 0), BuildingBlock: KIFKEQ_clean_linker_1, # of connection points: 2
#     Edge 57, Type (0, 0), BuildingBlock: KIFKEQ_clean_linker_1, # of connection points: 2
#     Edge 58, Type (0, 0), BuildingBlock: KIFKEQ_clean_linker_1, # of connection points: 2
#     Edge 59, Type (0, 0), BuildingBlock: KIFKEQ_clean_linker_1, # of connection points: 2
#     Edge 60, Type (0, 0), BuildingBlock: KIFKEQ_clean_linker_1, # of connection points: 2
#     Edge 61, Type (0, 0), BuildingBlock: KIFKEQ_clean_linker_1, # of connection points: 2
#     Edge 62, Type (0, 0), BuildingBlock: KIFKEQ_clean_linker_1, # of connection points: 2
#     Edge 63, Type (0, 0), BuildingBlock: KIFKEQ_clean_linker_1, # of connection points: 2
#     Edge 64, Type (0, 0), BuildingBlock: KIFKEQ_clean_linker_1, # of connection points: 2
#     Edge 65, Type (0, 0), BuildingBlock: KIFKEQ_clean_linker_1, # of connection points: 2
#     Edge 66, Type (0, 0), BuildingBlock: KIFKEQ_clean_linker_1, # of connection points: 2
#     Edge 67, Type (0, 0), BuildingBlock: KIFKEQ_clean_linker_1, # of connection points: 2
#     Edge 68, Type (0, 0), BuildingBlock: KIFKEQ_clean_linker_1, # of connection points: 2
#     Edge 69, Type (0, 0), BuildingBlock: KIFKEQ_clean_linker_1, # of connection points: 2
#     Edge 70, Type (0, 0), BuildingBlock: KIFKEQ_clean_linker_1, # of connection points: 2
#     Edge 71, Type (0, 0), BuildingBlock: KIFKEQ_clean_linker_1, # of connection points: 2
#     Edge 72, Type (0, 0), BuildingBlock: KIFKEQ_clean_linker_1, # of connection points: 2
#     Edge 73, Type (0, 0), BuildingBlock: KIFKEQ_clean_linker_1, # of connection points: 2
#     Edge 74, Type (0, 0), BuildingBlock: KIFKEQ_clean_linker_1, # of connection points: 2
#     Edge 75, Type (0, 0), BuildingBlock: KIFKEQ_clean_linker_1, # of connection points: 2
#     Edge 76, Type (0, 0), BuildingBlock: KIFKEQ_clean_linker_1, # of connection points: 2
#     Edge 77, Type (0, 0), BuildingBlock: KIFKEQ_clean_linker_1, # of connection points: 2
#     Edge 78, Type (0, 0), BuildingBlock: KIFKEQ_clean_linker_1, # of connection points: 2
#     Edge 79, Type (0, 0), BuildingBlock: KIFKEQ_clean_linker_1, # of connection points: 2
#     Edge 80, Type (0, 0), BuildingBlock: KIFKEQ_clean_linker_1, # of connection points: 2
#     Edge 81, Type (0, 0), BuildingBlock: KIFKEQ_clean_linker_1, # of connection points: 2
#     Edge 82, Type (0, 0), BuildingBlock: KIFKEQ_clean_linker_1, # of connection points: 2
#     Edge 83, Type (0, 0), BuildingBlock: KIFKEQ_clean_linker_1, # of connection points: 2
#     Edge 84, Type (0, 0), BuildingBlock: KIFKEQ_clean_linker_1, # of connection points: 2
#     Edge 85, Type (0, 0), BuildingBlock: KIFKEQ_clean_linker_1, # of connection points: 2
#     Edge 86, Type (0, 0), BuildingBlock: KIFKEQ_clean_linker_1, # of connection points: 2
#     Edge 87, Type (0, 0), BuildingBlock: KIFKEQ_clean_linker_1, # of connection points: 2
#     Edge 88, Type (0, 0), BuildingBlock: KIFKEQ_clean_linker_1, # of connection points: 2
#     Edge 89, Type (0, 0), BuildingBlock: KIFKEQ_clean_linker_1, # of connection points: 2
#     Edge 90, Type (0, 0), BuildingBlock: KIFKEQ_clean_linker_1, # of connection points: 2
#     Edge 91, Type (0, 0), BuildingBlock: KIFKEQ_clean_linker_1, # of connection points: 2
#     Edge 92, Type (0, 0), BuildingBlock: KIFKEQ_clean_linker_1, # of connection points: 2
#     Edge 93, Type (0, 0), BuildingBlock: KIFKEQ_clean_linker_1, # of connection points: 2
#     Edge 94, Type (0, 0), BuildingBlock: KIFKEQ_clean_linker_1, # of connection points: 2
#     Edge 95, Type (0, 0), BuildingBlock: KIFKEQ_clean_linker_1, # of connection points: 2
#     Edge 96, Type (0, 0), BuildingBlock: KIFKEQ_clean_linker_1, # of connection points: 2
#     Edge 97, Type (0, 0), BuildingBlock: KIFKEQ_clean_linker_1, # of connection points: 2
#     Edge 98, Type (0, 0), BuildingBlock: KIFKEQ_clean_linker_1, # of connection points: 2
#     Edge 99, Type (0, 0), BuildingBlock: KIFKEQ_clean_linker_1, # of connection points: 2
#     Edge 100, Type (0, 0), BuildingBlock: KIFKEQ_clean_linker_1, # of connection points: 2
#     Edge 101, Type (0, 0), BuildingBlock: KIFKEQ_clean_linker_1, # of connection points: 2
#     Edge 102, Type (0, 0), BuildingBlock: KIFKEQ_clean_linker_1, # of connection points: 2
#     Edge 103, Type (0, 0), BuildingBlock: KIFKEQ_clean_linker_1, # of connection points: 2
#     Edge 104, Type (0, 0), BuildingBlock: KIFKEQ_clean_linker_1, # of connection points: 2
#     Edge 105, Type (0, 0), BuildingBlock: KIFKEQ_clean_linker_1, # of connection points: 2
#     Edge 106, Type (0, 0), BuildingBlock: KIFKEQ_clean_linker_1, # of connection points: 2
#     Edge 107, Type (0, 0), BuildingBlock: KIFKEQ_clean_linker_1, # of connection points: 2
#     Edge 108, Type (0, 0), BuildingBlock: KIFKEQ_clean_linker_1, # of connection points: 2
#     Edge 109, Type (0, 0), BuildingBlock: KIFKEQ_clean_linker_1, # of connection points: 2
#     Edge 110, Type (0, 0), BuildingBlock: KIFKEQ_clean_linker_1, # of connection points: 2
#     Edge 111, Type (0, 0), BuildingBlock: KIFKEQ_clean_linker_1, # of connection points: 2
# Relax obj value: 0.359
# Max RMSD: 0.246
# Mean RMSD: 0.246
data_MOF--net-yfu--node1-XOMCOT_clean_sbu_0--edge1-KIFKEQ_clean_linker_1
_symmetry_space_group_name_H-M    P1
_symmetry_Int_Tables_number       1
_symmetry_cell_setting            triclinic
loop_
_symmetry_equiv_pos_as_xyz
'x, y, z'
_cell_length_a     44.603673
_cell_length_b     44.600361
_cell_length_c     99.211884
_cell_angle_alpha  89.997683
_cell_angle_beta   90.00667
_cell_angle_gamma 89.986368
loop_
_atom_site_label
_atom_site_type_symbol
_atom_site_fract_x
_atom_site_fract_y
_atom_site_fract_z
_atom_type_partial_charge
Co0 Co 0.04483 0.05753 0.35022 0.0
C1 C 0.06789 0.99768 0.35815 0.0
C2 C 0.02828 0.00965 0.36902 0.0
C3 C 0.03935 0.98346 0.37435 0.0
N4 N 0.04567 0.01823 0.3586 0.0
N5 N 0.06443 0.97602 0.36755 0.0
H6 H 0.08781 4e-05 0.35211 0.0
H7 H 0.01004 0.02265 0.37316 0.0
C8 C 0.97968 0.03889 0.35004 0.0
O9 O 0.98668 0.01164 0.34614 0.0
N10 N 0.04435 0.09693 0.34239 0.0
C11 C 0.06209 0.10718 0.33244 0.0
C12 C 0.05641 0.13725 0.33067 0.0
C13 C 0.02836 0.12067 0.34665 0.0
N14 N 0.03526 0.1457 0.33965 0.0
C15 C 0.06821 0.02655 0.32687 0.0
C16 C 0.0209 0.04029 0.30997 0.0
C17 C 0.04575 0.02525 0.3046 0.0
C18 C 0.0695 0.01808 0.31329 0.0
C19 C 0.02041 0.0481 0.3236 0.0
N20 N 0.04361 0.04077 0.33201 0.0
H21 H 0.08786 0.0233 0.33299 0.0
H22 H 0.002 0.06166 0.32713 0.0
H23 H 0.07835 0.09384 0.32701 0.0
H24 H 0.01278 0.11975 0.355 0.0
O25 O 0.08792 0.06159 0.35285 0.0
O26 O 0.05289 0.07489 0.36752 0.0
O27 O -0.00023 0.05893 0.35166 0.0
C28 C 0.08116 0.07349 0.36448 0.0
H29 H 0.03042 0.97175 0.38302 0.0
H30 H 0.06703 0.15169 0.32333 0.0
H31 H 0.00219 0.04663 0.30362 0.0
H32 H 0.08958 0.00738 0.30948 0.0
Co33 Co 0.18914 0.80263 0.59765 0.0
C34 C 0.24772 0.8265 0.60683 0.0
C35 C 0.23688 0.78519 0.61664 0.0
C36 C 0.26293 0.79612 0.62216 0.0
N37 N 0.22764 0.80383 0.60676 0.0
N38 N 0.26968 0.82219 0.616 0.0
H39 H 0.24501 0.847 0.60121 0.0
H40 H 0.22466 0.76596 0.62028 0.0
C41 C 0.20518 0.73625 0.5985 0.0
O42 O 0.2314 0.74043 0.59278 0.0
N43 N 0.15067 0.8017 0.58892 0.0
C44 C 0.14208 0.81809 0.57818 0.0
C45 C 0.11307 0.81047 0.57495 0.0
C46 C 0.12683 0.78479 0.59226 0.0
N47 N 0.1036 0.78964 0.58384 0.0
C48 C 0.22351 0.82357 0.57491 0.0
C49 C 0.21025 0.77593 0.55813 0.0
C50 C 0.22657 0.80013 0.55288 0.0
C51 C 0.2334 0.82406 0.56153 0.0
C52 C 0.20076 0.77638 0.57155 0.0
N53 N 0.20789 0.79971 0.5799 0.0
H54 H 0.22683 0.84331 0.58096 0.0
H55 H 0.18624 0.7586 0.57496 0.0
H56 H 0.15601 0.8343 0.57304 0.0
H57 H 0.12666 0.76899 0.60054 0.0
O58 O 0.18503 0.84602 0.59945 0.0
O59 O 0.17002 0.81218 0.61434 0.0
O60 O 0.18694 0.75796 0.60019 0.0
C61 C 0.17174 0.84018 0.61089 0.0
H62 H 0.27523 0.78616 0.63043 0.0
H63 H 0.09983 0.81975 0.56681 0.0
H64 H 0.20418 0.75702 0.55186 0.0
H65 H 0.24497 0.84375 0.55784 0.0
Co66 Co 0.44184 0.93577 0.84684 0.0
C67 C 0.42001 0.99532 0.85628 0.0
C68 C 0.45261 0.97591 0.86953 0.0
C69 C 0.44095 0.001 0.87564 0.0
N70 N 0.43972 0.97241 0.85732 0.0
N71 N 0.42046 0.0131 0.8673 0.0
H72 H 0.40379 0.99768 0.8483 0.0
H73 H 0.4681 0.96018 0.87405 0.0
C74 C 0.50676 0.95474 0.85017 0.0
O75 O 0.49995 0.98334 0.84944 0.0
N76 N 0.44382 0.8988 0.83687 0.0
C77 C 0.42865 0.89136 0.82561 0.0
C78 C 0.43631 0.86249 0.82207 0.0
C79 C 0.46005 0.87443 0.84016 0.0
N80 N 0.45593 0.85193 0.83127 0.0
C81 C 0.41746 0.96942 0.82455 0.0
C82 C 0.46791 0.96585 0.80846 0.0
C83 C 0.44162 0.97785 0.80296 0.0
C84 C 0.41629 0.98014 0.81127 0.0
C85 C 0.46818 0.95555 0.82174 0.0
N86 N 0.44325 0.95752 0.82973 0.0
H87 H 0.39699 0.96889 0.83032 0.0
H88 H 0.48803 0.94407 0.82511 0.0
H89 H 0.41291 0.90573 0.82043 0.0
H90 H 0.47461 0.87326 0.84888 0.0
O91 O 0.39869 0.93007 0.84905 0.0
O92 O 0.43389 0.91349 0.86292 0.0
O93 O 0.48668 0.93463 0.84867 0.0
C94 C 0.40564 0.91523 0.85996 0.0
H95 H 0.44608 0.00893 0.88569 0.0
H96 H 0.42761 0.84998 0.81358 0.0
H97 H 0.48796 0.96343 0.8024 0.0
H98 H 0.39525 0.98852 0.80733 0.0
Co99 Co 0.31315 0.18239 0.09703 0.0
C100 C 0.25294 0.16033 0.10492 0.0
C101 C 0.26526 0.19995 0.11571 0.0
C102 C 0.23901 0.1891 0.12107 0.0
N103 N 0.27379 0.18226 0.10538 0.0
N104 N 0.23126 0.16401 0.11432 0.0
H105 H 0.25476 0.14094 0.09854 0.0
H106 H 0.27837 0.21808 0.11986 0.0
C107 C 0.29892 0.24913 0.09799 0.0
O108 O 0.27291 0.24572 0.09198 0.0
N109 N 0.35246 0.18222 0.08911 0.0
C110 C 0.3622 0.16396 0.07924 0.0
C111 C 0.39175 0.17055 0.07663 0.0
C112 C 0.37605 0.19945 0.09249 0.0
N113 N 0.4004 0.19286 0.08497 0.0
C114 C 0.28104 0.16274 0.07341 0.0
C115 C 0.29595 0.21111 0.05735 0.0
C116 C 0.27951 0.18752 0.05164 0.0
C117 C 0.27205 0.1631 0.05989 0.0
C118 C 0.3046 0.20977 0.07088 0.0
N119 N 0.2964 0.18622 0.0789 0.0
H120 H 0.277 0.14276 0.07919 0.0
H121 H 0.31925 0.22707 0.07467 0.0
H122 H 0.34876 0.14697 0.07434 0.0
H123 H 0.37524 0.2166 0.10019 0.0
O124 O 0.31575 0.13887 0.09865 0.0
O125 O 0.33012 0.17181 0.1141 0.0
O126 O 0.31646 0.22692 0.09983 0.0
C127 C 0.32782 0.144 0.11041 0.0
H128 H 0.22786 0.19791 0.1299 0.0
H129 H 0.40585 0.15946 0.06928 0.0
H130 H 0.30327 0.22989 0.05126 0.0
H131 H 0.25981 0.14411 0.0559 0.0
Co132 Co 0.04954 0.93922 0.16034 0.0
C133 C 0.07344 0.99778 0.15057 0.0
C134 C 0.03753 0.98099 0.1384 0.0
C135 C 0.04941 0.0057 0.13212 0.0
N136 N 0.05215 0.97624 0.15012 0.0
N137 N 0.07207 0.01614 0.13975 0.0
H138 H 0.0914 0.99847 0.15782 0.0
H139 H 0.0208 0.96617 0.1342 0.0
C140 C 0.98557 0.9599 0.15774 0.0
O141 O 0.99365 0.98762 0.16032 0.0
N142 N 0.04721 0.90184 0.17001 0.0
C143 C 0.06103 0.89497 0.1817 0.0
C144 C 0.0539 0.86594 0.1851 0.0
C145 C 0.03248 0.87682 0.16627 0.0
N146 N 0.03612 0.85464 0.17537 0.0
C147 C 0.07145 0.974 0.18285 0.0
C148 C 0.02176 0.96534 0.19903 0.0
C149 C 0.04705 0.97923 0.20459 0.0
C150 C 0.07192 0.9841 0.19623 0.0
C151 C 0.02212 0.95579 0.18563 0.0
N152 N 0.04666 0.96027 0.1776 0.0
H153 H 0.09189 0.9752 0.1771 0.0
H154 H 0.00335 0.94271 0.18215 0.0
H155 H 0.07548 0.9099 0.1873 0.0
H156 H 0.01939 0.8749 0.15712 0.0
O157 O 0.0928 0.93389 0.15894 0.0
O158 O 0.05918 0.91787 0.14412 0.0
O159 O 0.00466 0.93856 0.15785 0.0
C160 C 0.08712 0.91996 0.14766 0.0
H161 H 0.04291 0.01432 0.12235 0.0
H162 H 0.06174 0.85379 0.19387 0.0
H163 H 0.00214 0.96084 0.20514 0.0
H164 H 0.09227 0.99395 0.20021 0.0
Co165 Co 0.3123 0.82055 0.4081 0.0
C166 C 0.25092 0.83894 0.40012 0.0
C167 C 0.26366 0.79769 0.39074 0.0
C168 C 0.23617 0.8061 0.38577 0.0
N169 N 0.27266 0.81784 0.40005 0.0
N170 N 0.2282 0.83216 0.39163 0.0
H171 H 0.2528 0.8601 0.40531 0.0
H172 H 0.27687 0.77921 0.38701 0.0
C173 C 0.30367 0.75286 0.40763 0.0
O174 O 0.27851 0.75428 0.41447 0.0
N175 N 0.3518 0.82368 0.41577 0.0
C176 C 0.36049 0.84343 0.42526 0.0
C177 C 0.39017 0.83834 0.42821 0.0
C178 C 0.37616 0.80699 0.41298 0.0
N179 N 0.39997 0.81538 0.42051 0.0
C180 C 0.27735 0.8353 0.43171 0.0
C181 C 0.3002 0.79017 0.44782 0.0
C182 C 0.27999 0.81067 0.45351 0.0
C183 C 0.26846 0.83342 0.44522 0.0
C184 C 0.30853 0.79291 0.43431 0.0
N185 N 0.29659 0.81479 0.42628 0.0
H186 H 0.26986 0.85415 0.42585 0.0
H187 H 0.32549 0.77793 0.43044 0.0
H188 H 0.34614 0.86022 0.42976 0.0
H189 H 0.37625 0.78876 0.40579 0.0
O190 O 0.31147 0.86417 0.40677 0.0
O191 O 0.32773 0.8329 0.39098 0.0
O192 O 0.31885 0.77644 0.40509 0.0
C193 C 0.32349 0.86033 0.39489 0.0
H194 H 0.22372 0.79446 0.37801 0.0
H195 H 0.40349 0.85076 0.43541 0.0
H196 H 0.30989 0.7723 0.45379 0.0
H197 H 0.25363 0.85043 0.44925 0.0
Co198 Co 0.4372 0.0613 0.65781 0.0
C199 C 0.41524 0.00135 0.64951 0.0
C200 C 0.45779 0.01132 0.64065 0.0
C201 C 0.44782 0.98452 0.6355 0.0
N202 N 0.43775 0.0216 0.64975 0.0
N203 N 0.42098 0.97831 0.64106 0.0
H204 H 0.3939 0.00462 0.65441 0.0
H205 H 0.47736 0.02329 0.63719 0.0
C206 C 0.50403 0.04756 0.6585 0.0
O207 O 0.50006 0.02253 0.66524 0.0
N208 N 0.43628 0.10089 0.66547 0.0
C209 C 0.41794 0.11036 0.67538 0.0
C210 C 0.42494 0.13962 0.67839 0.0
C211 C 0.45383 0.12445 0.66238 0.0
N212 N 0.44745 0.14837 0.67021 0.0
C213 C 0.41759 0.02764 0.68109 0.0
C214 C 0.46231 0.04755 0.69818 0.0
C215 C 0.43969 0.02914 0.70343 0.0
C216 C 0.41724 0.01896 0.69465 0.0
C217 C 0.46193 0.05549 0.68456 0.0
N218 N 0.44008 0.04514 0.67607 0.0
H219 H 0.39883 0.02156 0.67486 0.0
H220 H 0.47859 0.07115 0.68098 0.0
H221 H 0.40098 0.09675 0.6802 0.0
H222 H 0.47132 0.12389 0.65483 0.0
O223 O 0.3938 0.06368 0.65564 0.0
O224 O 0.4276 0.07763 0.64049 0.0
O225 O 0.48194 0.06461 0.65564 0.0
C226 C 0.39959 0.07535 0.64386 0.0
H227 H 0.45896 0.97133 0.62784 0.0
H228 H 0.4143 0.15344 0.68598 0.0
H229 H 0.47997 0.05618 0.70459 0.0
H230 H 0.39878 0.0055 0.69835 0.0
Co231 Co 0.18669 0.18978 0.90777 0.0
C232 C 0.24664 0.16797 0.89889 0.0
C233 C 0.22816 0.20109 0.88564 0.0
C234 C 0.25347 0.18943 0.87973 0.0
N235 N 0.22395 0.18789 0.89773 0.0
N236 N 0.26499 0.16861 0.88807 0.0
H237 H 0.24839 0.15144 0.90678 0.0
H238 H 0.21273 0.21673 0.88102 0.0
C239 C 0.20509 0.25495 0.90466 0.0
O240 O 0.2337 0.2485 0.90586 0.0
N241 N 0.1492 0.19147 0.91734 0.0
C242 C 0.1414 0.17559 0.92831 0.0
C243 C 0.11259 0.18329 0.93184 0.0
C244 C 0.12511 0.20827 0.91421 0.0
N245 N 0.10224 0.20383 0.92295 0.0
C246 C 0.21957 0.16642 0.93051 0.0
C247 C 0.21515 0.21729 0.94628 0.0
C248 C 0.22739 0.1913 0.95201 0.0
C249 C 0.22996 0.16573 0.94384 0.0
C250 C 0.20491 0.21698 0.93298 0.0
N251 N 0.20746 0.1919 0.92513 0.0
H252 H 0.21952 0.1458 0.92484 0.0
H253 H 0.19318 0.23655 0.92946 0.0
H254 H 0.1556 0.15953 0.93339 0.0
H255 H 0.1244 0.22301 0.90557 0.0
O256 O 0.18158 0.14657 0.90586 0.0
O257 O 0.16561 0.18101 0.89139 0.0
O258 O 0.18515 0.23458 0.90574 0.0
C259 C 0.16771 0.15295 0.89464 0.0
H260 H 0.26192 0.19476 0.86978 0.0
H261 H 0.10049 0.17446 0.94041 0.0
H262 H 0.21257 0.2376 0.95214 0.0
H263 H 0.23844 0.14485 0.94791 0.0
Co264 Co 0.94859 0.93464 0.65812 0.0
C265 C 0.92492 0.99368 0.6489 0.0
C266 C 0.95541 0.97371 0.6348 0.0
C267 C 0.94285 0.99854 0.62888 0.0
N268 N 0.94439 0.97071 0.6474 0.0
N269 N 0.9237 0.01098 0.63774 0.0
H270 H 0.91013 0.99647 0.65741 0.0
H271 H 0.97037 0.9579 0.62999 0.0
C272 C 0.01174 0.95738 0.65391 0.0
O273 O 0.00264 0.98537 0.65394 0.0
N274 N 0.95243 0.89817 0.66837 0.0
C275 C 0.93782 0.89094 0.67978 0.0
C276 C 0.94531 0.8621 0.68328 0.0
C277 C 0.96829 0.8736 0.66497 0.0
N278 N 0.96434 0.85104 0.67391 0.0
C279 C 0.9227 0.96627 0.68056 0.0
C280 C 0.97409 0.96815 0.69606 0.0
C281 C 0.94679 0.97613 0.7021 0.0
C282 C 0.92095 0.97581 0.694 0.0
C283 C 0.97476 0.95813 0.68274 0.0
N284 N 0.94929 0.95712 0.67508 0.0
H285 H 0.90215 0.9641 0.67491 0.0
H286 H 0.99566 0.94926 0.67911 0.0
H287 H 0.92228 0.90531 0.68508 0.0
H288 H 0.98154 0.87213 0.65587 0.0
O289 O 0.90572 0.92698 0.65627 0.0
O290 O 0.94097 0.91152 0.64216 0.0
O291 O 0.99355 0.93578 0.65606 0.0
C292 C 0.91275 0.91254 0.64529 0.0
H293 H 0.94646 0.0061 0.61864 0.0
H294 H 0.93706 0.85029 0.69204 0.0
H295 H 0.99484 0.9684 0.70172 0.0
H296 H 0.89916 0.98113 0.69816 0.0
Co297 Co 0.80843 0.19287 0.41068 0.0
C298 C 0.74857 0.17242 0.40127 0.0
C299 C 0.76561 0.2089 0.38952 0.0
C300 C 0.74001 0.19835 0.38343 0.0
N301 N 0.77078 0.19303 0.40087 0.0
N302 N 0.72941 0.1753 0.3908 0.0
H303 H 0.74789 0.15387 0.40822 0.0
H304 H 0.78055 0.22569 0.38544 0.0
C305 C 0.79259 0.25893 0.409 0.0
O306 O 0.76401 0.25351 0.41106 0.0
N307 N 0.84628 0.19239 0.42001 0.0
C308 C 0.8533 0.17664 0.43116 0.0
C309 C 0.88272 0.1824 0.43444 0.0
C310 C 0.87149 0.20701 0.41647 0.0
N311 N 0.89405 0.20136 0.42516 0.0
C312 C 0.77405 0.17025 0.43323 0.0
C313 C 0.78385 0.219 0.44985 0.0
C314 C 0.76928 0.19387 0.45519 0.0
C315 C 0.76393 0.16943 0.44662 0.0
C316 C 0.79345 0.21897 0.43647 0.0
N317 N 0.78829 0.19496 0.4282 0.0
H318 H 0.77225 0.15015 0.42726 0.0
H319 H 0.80694 0.2376 0.43318 0.0
H320 H 0.83818 0.16187 0.4365 0.0
H321 H 0.87323 0.22156 0.40777 0.0
O322 O 0.81171 0.14956 0.40813 0.0
O323 O 0.82873 0.18431 0.39414 0.0
O324 O 0.81179 0.2377 0.40915 0.0
C325 C 0.82587 0.15608 0.39699 0.0
H326 H 0.7308 0.20609 0.37396 0.0
H327 H 0.89504 0.17293 0.44283 0.0
H328 H 0.78874 0.23831 0.45611 0.0
H329 H 0.75356 0.14916 0.45041 0.0
Co330 Co 0.56188 0.06143 0.15781 0.0
C331 C 0.58282 0.00033 0.15028 0.0
C332 C 0.54915 0.01715 0.13692 0.0
C333 C 0.56006 0.99077 0.13171 0.0
N334 N 0.56303 0.02297 0.1487 0.0
N335 N 0.58143 0.98022 0.14009 0.0
H336 H 0.59917 -0.00053 0.15822 0.0
H337 H 0.53356 0.03212 0.13197 0.0
C338 C 0.49658 0.04429 0.15502 0.0
O339 O 0.50261 0.01612 0.15778 0.0
N340 N 0.56098 0.10011 0.16637 0.0
C341 C 0.57677 0.10884 0.17723 0.0
C342 C 0.57053 0.13852 0.17972 0.0
C343 C 0.54568 0.12447 0.16227 0.0
N344 N 0.55103 0.14842 0.17028 0.0
C345 C 0.58216 0.02957 0.18141 0.0
C346 C 0.5319 0.04053 0.19692 0.0
C347 C 0.55653 0.0263 0.20291 0.0
C348 C 0.58175 0.02045 0.19491 0.0
C349 C 0.53308 0.04892 0.18336 0.0
N350 N 0.55781 0.04304 0.17563 0.0
H351 H 0.60291 0.0276 0.17593 0.0
H352 H 0.51471 0.06196 0.17944 0.0
H353 H 0.59187 0.09467 0.18291 0.0
H354 H 0.53147 0.12464 0.15344 0.0
O355 O 0.60526 0.06462 0.15658 0.0
O356 O 0.573 0.08022 0.1411 0.0
O357 O 0.51725 0.0641 0.15513 0.0
C358 C 0.60066 0.07771 0.14502 0.0
H359 H 0.55416 0.98138 0.12202 0.0
H360 H 0.57956 0.15158 0.18796 0.0
H361 H 0.51213 0.04592 0.20278 0.0
H362 H 0.60167 0.01046 0.19925 0.0
Co363 Co 0.68484 0.80887 0.9099 0.0
C364 C 0.74409 0.82985 0.89995 0.0
C365 C 0.72606 0.79409 0.88806 0.0
C366 C 0.75096 0.80513 0.88161 0.0
N367 N 0.72192 0.80922 0.8997 0.0
N368 N 0.76217 0.82771 0.88907 0.0
H369 H 0.74539 0.84799 0.90711 0.0
H370 H 0.71071 0.77764 0.884 0.0
C371 C 0.70102 0.74315 0.90733 0.0
O372 O 0.72957 0.74888 0.90933 0.0
N373 N 0.64747 0.80872 0.91958 0.0
C374 C 0.64049 0.82465 0.93065 0.0
C375 C 0.61125 0.81852 0.93408 0.0
C376 C 0.62249 0.79346 0.9163 0.0
N377 N 0.59983 0.79894 0.92502 0.0
C378 C 0.72008 0.83036 0.93226 0.0
C379 C 0.71216 0.78056 0.94845 0.0
C380 C 0.7269 0.80559 0.95383 0.0
C381 C 0.731 0.83066 0.94549 0.0
C382 C 0.70139 0.78128 0.93524 0.0
N383 N 0.70581 0.80575 0.92716 0.0
H384 H 0.72151 0.8507 0.92643 0.0
H385 H 0.68774 0.76276 0.93194 0.0
H386 H 0.65556 0.83973 0.93584 0.0
H387 H 0.62097 0.77917 0.90752 0.0
O388 O 0.68165 0.85227 0.90813 0.0
O389 O 0.66394 0.81883 0.89361 0.0
O390 O 0.68153 0.7641 0.90783 0.0
C391 C 0.6674 0.84676 0.89692 0.0
H392 H 0.7592 0.79819 0.87183 0.0
H393 H 0.59954 0.82777 0.94267 0.0
H394 H 0.70746 0.76112 0.95464 0.0
H395 H 0.74189 0.85068 0.94926 0.0
Co396 Co 0.93847 0.0624 0.84613 0.0
C397 C 0.91189 0.00479 0.85444 0.0
C398 C 0.95207 0.01487 0.86545 0.0
C399 C 0.93986 0.98899 0.87058 0.0
N400 N 0.93454 0.02467 0.85535 0.0
N401 N 0.91448 0.98262 0.8637 0.0
H402 H 0.89356 0.00718 0.84739 0.0
H403 H 0.97161 0.02648 0.86925 0.0
C404 C 0.00427 0.06926 0.84024 0.0
O405 O 0.99794 0.08061 0.82836 0.0
N406 N 0.94245 0.10106 0.83723 0.0
C407 C 0.92852 0.11139 0.82606 0.0
C408 C 0.93789 0.14017 0.82357 0.0
C409 C 0.95917 0.12435 0.84165 0.0
N410 N 0.95719 0.14822 0.83334 0.0
C411 C 0.91161 0.04286 0.8213 0.0
C412 C 0.9607 0.01262 0.81126 0.0
C413 C 0.93631 0.01796 0.80261 0.0
C414 C 0.91101 0.03228 0.80804 0.0
C415 C 0.96046 0.02407 0.82441 0.0
N416 N 0.93711 0.04123 0.82886 0.0
H417 H 0.89196 0.05404 0.82519 0.0
H418 H 0.97929 0.01927 0.83087 0.0
H419 H 0.91215 0.09966 0.82013 0.0
H420 H 0.97309 0.12354 0.85058 0.0
O421 O 0.89601 0.07058 0.8488 0.0
O422 O 0.9324 0.08287 0.86296 0.0
O423 O 0.98344 0.05901 0.84777 0.0
C424 C 0.904 0.08316 0.86009 0.0
H425 H 0.9484 0.97677 0.87918 0.0
H426 H 0.93065 0.15433 0.81532 0.0
H427 H 0.98004 -2e-05 0.80791 0.0
H428 H 0.89126 0.03657 0.80202 0.0
Co429 Co 0.68716 0.1846 0.60043 0.0
C430 C 0.74822 0.16411 0.60823 0.0
C431 C 0.73286 0.20088 0.62026 0.0
C432 C 0.75918 0.19036 0.62572 0.0
N433 N 0.72609 0.1847 0.60916 0.0
N434 N 0.76874 0.16732 0.61811 0.0
H435 H 0.748 0.14525 0.60144 0.0
H436 H 0.71848 0.21764 0.62474 0.0
C437 C 0.70157 0.25088 0.60209 0.0
O438 O 0.72787 0.24707 0.59639 0.0
N439 N 0.64816 0.18431 0.59214 0.0
C440 C 0.63877 0.16554 0.5824 0.0
C441 C 0.60963 0.17262 0.57919 0.0
C442 C 0.62475 0.20239 0.59483 0.0
N443 N 0.60086 0.19583 0.587 0.0
C444 C 0.72012 0.16611 0.57685 0.0
C445 C 0.70406 0.21431 0.56091 0.0
C446 C 0.72063 0.19094 0.55509 0.0
C447 C 0.7289 0.16674 0.56331 0.0
C448 C 0.69594 0.2129 0.57451 0.0
N449 N 0.7045 0.18932 0.58245 0.0
H450 H 0.72423 0.14598 0.58252 0.0
H451 H 0.6813 0.23009 0.5784 0.0
H452 H 0.65223 0.14796 0.57794 0.0
H453 H 0.6254 0.22021 0.60222 0.0
O454 O 0.6852 0.14107 0.60163 0.0
O455 O 0.66951 0.17292 0.61728 0.0
O456 O 0.68345 0.22899 0.60353 0.0
C457 C 0.67244 0.14535 0.61331 0.0
H458 H 0.76962 0.19796 0.63496 0.0
H459 H 0.5959 0.16129 0.57178 0.0
H460 H 0.69679 0.23329 0.55493 0.0
H461 H 0.7407 0.14764 0.55915 0.0
Co462 Co 0.55344 0.94128 0.34732 0.0
C463 C 0.57684 0.00065 0.35613 0.0
C464 C 0.5428 0.98369 0.36928 0.0
C465 C 0.55477 0.0091 0.37498 0.0
N466 N 0.55627 0.97857 0.35733 0.0
N467 N 0.57637 0.01973 0.36675 0.0
H468 H 0.59295 0.00188 0.3481 0.0
H469 H 0.52662 0.96888 0.37393 0.0
C470 C 0.48899 0.96173 0.35019 0.0
O471 O 0.49659 0.98997 0.34864 0.0
N472 N 0.55094 0.90371 0.3378 0.0
C473 C 0.56565 0.89604 0.32645 0.0
C474 C 0.55805 0.86709 0.32312 0.0
C475 C 0.53507 0.87927 0.3414 0.0
N476 N 0.53895 0.85662 0.33255 0.0
C477 C 0.5775 0.97374 0.32457 0.0
C478 C 0.52714 0.96848 0.30852 0.0
C479 C 0.55324 0.98058 0.3029 0.0
C480 C 0.57852 0.98372 0.31117 0.0
C481 C 0.52696 0.95911 0.32194 0.0
N482 N 0.55183 0.96197 0.32992 0.0
H483 H 0.59807 0.97353 0.33027 0.0
H484 H 0.50731 0.94751 0.32546 0.0
H485 H 0.58108 0.91033 0.32104 0.0
H486 H 0.52099 0.87813 0.35027 0.0
O487 O 0.59655 0.9353 0.34935 0.0
O488 O 0.56165 0.91991 0.36364 0.0
O489 O 0.50855 0.94091 0.34932 0.0
C490 C 0.58984 0.9212 0.36048 0.0
H491 H 0.54931 0.01778 0.38486 0.0
H492 H 0.56645 0.85442 0.31462 0.0
H493 H 0.50721 0.96528 0.30244 0.0
H494 H 0.59944 0.9921 0.30712 0.0
Co495 Co 0.81341 0.80686 0.09842 0.0
C496 C 0.75313 0.82691 0.10738 0.0
C497 C 0.76915 0.78948 0.11881 0.0
C498 C 0.74297 0.79945 0.12458 0.0
N499 N 0.77535 0.80635 0.10787 0.0
N500 N 0.73299 0.82305 0.1174 0.0
H501 H 0.75303 0.84604 0.10075 0.0
H502 H 0.78372 0.77249 0.12296 0.0
C503 C 0.7998 0.74025 0.10035 0.0
O504 O 0.77253 0.7435 0.09558 0.0
N505 N 0.85151 0.80754 0.08934 0.0
C506 C 0.85847 0.82294 0.07807 0.0
C507 C 0.88737 0.81588 0.07441 0.0
C508 C 0.87629 0.79192 0.0926 0.0
N509 N 0.89841 0.79655 0.08358 0.0
C510 C 0.77901 0.82688 0.07552 0.0
C511 C 0.79157 0.77811 0.05929 0.0
C512 C 0.77622 0.80252 0.05365 0.0
C513 C 0.76958 0.82698 0.06205 0.0
C514 C 0.80071 0.779 0.07275 0.0
N515 N 0.79407 0.80296 0.08082 0.0
H516 H 0.77607 0.84703 0.08134 0.0
H517 H 0.81491 0.76114 0.07632 0.0
H518 H 0.84342 0.83785 0.07277 0.0
H519 H 0.87787 0.77695 0.10116 0.0
O520 O 0.81562 0.85043 0.10024 0.0
O521 O 0.83272 0.81724 0.11496 0.0
O522 O 0.81779 0.76241 0.10106 0.0
C523 C 0.82939 0.84513 0.11161 0.0
H524 H 0.73289 0.79094 0.13374 0.0
H525 H 0.89942 0.82429 0.06572 0.0
H526 H 0.79739 0.75874 0.05326 0.0
H527 H 0.75869 0.8468 0.05808 0.0
Co528 Co 0.55849 0.56218 0.84822 0.0
C529 C 0.57885 0.50218 0.85748 0.0
C530 C 0.54296 0.51956 0.86949 0.0
C531 C 0.55356 0.49394 0.87554 0.0
N532 N 0.5584 0.52453 0.85801 0.0
N533 N 0.57626 0.48313 0.86801 0.0
H534 H 0.59714 0.50136 0.85039 0.0
H535 H 0.52651 0.53469 0.87372 0.0
C536 C 0.49215 0.54756 0.85077 0.0
O537 O 0.4967 0.51881 0.84874 0.0
N538 N 0.55885 0.59999 0.83887 0.0
C539 C 0.57531 0.60723 0.82799 0.0
C540 C 0.5688 0.63632 0.82444 0.0
C541 C 0.5429 0.62469 0.84193 0.0
N542 N 0.54841 0.64738 0.83322 0.0
C543 C 0.57932 0.52776 0.82543 0.0
C544 C 0.52951 0.53761 0.80946 0.0
C545 C 0.5543 0.52302 0.80378 0.0
C546 C 0.5793 0.5177 0.81204 0.0
C547 C 0.5305 0.54738 0.82281 0.0
N548 N 0.55501 0.54214 0.83076 0.0
H549 H 0.59972 0.52575 0.83117 0.0
H550 H 0.51213 0.56094 0.82633 0.0
H551 H 0.59082 0.59236 0.82295 0.0
H552 H 0.5279 0.62592 0.85047 0.0
O553 O 0.60195 0.56487 0.85009 0.0
O554 O 0.5685 0.58218 0.86469 0.0
O555 O 0.51383 0.5662 0.85034 0.0
C556 C 0.59643 0.57879 0.86139 0.0
H557 H 0.54617 0.48491 0.8851 0.0
H558 H 0.5782 0.64809 0.81591 0.0
H559 H 0.50972 0.54238 0.80351 0.0
H560 H 0.59934 0.50733 0.80801 0.0
Co561 Co 0.68581 0.31004 0.09952 0.0
C562 C 0.74515 0.33408 0.10748 0.0
C563 C 0.73444 0.2939 0.11818 0.0
C564 C 0.76049 0.30551 0.12344 0.0
N565 N 0.72509 0.31145 0.10794 0.0
N566 N 0.76717 0.33094 0.11674 0.0
H567 H 0.7426 0.35352 0.10118 0.0
H568 H 0.72209 0.2752 0.1223 0.0
C569 C 0.70268 0.2441 0.10025 0.0
O570 O 0.72837 0.24884 0.09415 0.0
N571 N 0.64658 0.30907 0.0915 0.0
C572 C 0.63623 0.32819 0.08209 0.0
C573 C 0.60707 0.32073 0.07916 0.0
C574 C 0.62373 0.29034 0.09425 0.0
N575 N 0.59923 0.29688 0.08678 0.0
C576 C 0.71808 0.33042 0.07602 0.0
C577 C 0.7035 0.28227 0.05976 0.0
C578 C 0.72015 0.3059 0.05422 0.0
C579 C 0.72752 0.33015 0.06257 0.0
C580 C 0.69475 0.28332 0.07329 0.0
N581 N 0.70275 0.30678 0.08141 0.0
H582 H 0.72163 0.35048 0.0818 0.0
H583 H 0.68032 0.26578 0.07702 0.0
H584 H 0.64898 0.3464 0.07775 0.0
H585 H 0.62518 0.27221 0.10146 0.0
O586 O 0.68178 0.35341 0.10113 0.0
O587 O 0.66838 0.32002 0.1166 0.0
O588 O 0.68414 0.26542 0.10224 0.0
C589 C 0.66983 0.34786 0.11288 0.0
H590 H 0.7723 0.29695 0.13216 0.0
H591 H 0.59268 0.33234 0.07211 0.0
H592 H 0.69684 0.26329 0.05365 0.0
H593 H 0.73927 0.34947 0.05859 0.0
Co594 Co 0.93318 0.43884 0.3479 0.0
C595 C 0.9089 0.49809 0.35466 0.0
C596 C 0.9516 0.49086 0.36411 0.0
C597 C 0.94053 0.51814 0.3683 0.0
N598 N 0.93171 0.47843 0.35556 0.0
N599 N 0.9136 0.52253 0.36242 0.0
H600 H 0.88895 0.49413 0.34872 0.0
H601 H 0.97207 0.48036 0.36753 0.0
C602 C 0.99841 0.42665 0.34251 0.0
O603 O 0.99154 0.41557 0.33063 0.0
N604 N 0.93438 0.39857 0.34049 0.0
C605 C 0.91657 0.3864 0.33093 0.0
C606 C 0.92263 0.35633 0.32996 0.0
C607 C 0.95032 0.37532 0.34547 0.0
N608 N 0.94384 0.34939 0.33909 0.0
C609 C 0.90907 0.45495 0.32201 0.0
C610 C 0.95983 0.48244 0.31205 0.0
C611 C 0.93589 0.47691 0.30316 0.0
C612 C 0.90981 0.4639 0.30852 0.0
C613 C 0.95824 0.47259 0.32543 0.0
N614 N 0.93399 0.4568 0.32993 0.0
H615 H 0.88853 0.44572 0.32596 0.0
H616 H 0.97669 0.4776 0.33208 0.0
H617 H 0.89929 0.39773 0.32536 0.0
H618 H 0.96568 0.37723 0.35387 0.0
O619 O 0.89014 0.43415 0.35049 0.0
O620 O 0.9252 0.42202 0.36535 0.0
O621 O 0.97819 0.43886 0.34978 0.0
C622 C 0.89696 0.42289 0.36223 0.0
H623 H 0.95078 0.53279 0.37567 0.0
H624 H 0.91202 0.34074 0.32309 0.0
H625 H 0.97975 0.49415 0.30873 0.0
H626 H 0.8903 0.45969 0.30233 0.0
Co627 Co 0.81472 0.68426 0.59659 0.0
C628 C 0.75452 0.66358 0.60486 0.0
C629 C 0.76861 0.7017 0.6163 0.0
C630 C 0.7422 0.69118 0.6217 0.0
N631 N 0.77599 0.68485 0.60549 0.0
N632 N 0.73357 0.66703 0.61455 0.0
H633 H 0.75528 0.64455 0.59819 0.0
H634 H 0.78258 0.71901 0.62063 0.0
C635 C 0.80144 0.75121 0.59844 0.0
O636 O 0.77292 0.7477 0.59553 0.0
N637 N 0.85344 0.68328 0.58811 0.0
C638 C 0.86163 0.66678 0.57739 0.0
C639 C 0.89115 0.67292 0.57451 0.0
C640 C 0.87793 0.69884 0.59177 0.0
N641 N 0.90147 0.69311 0.58357 0.0
C642 C 0.78149 0.66424 0.5733 0.0
C643 C 0.79477 0.71309 0.55724 0.0
C644 C 0.77875 0.68917 0.55162 0.0
C645 C 0.77182 0.66464 0.55988 0.0
C646 C 0.80371 0.71194 0.57072 0.0
N647 N 0.79665 0.68796 0.57872 0.0
H648 H 0.77836 0.64399 0.57903 0.0
H649 H 0.81795 0.72967 0.57439 0.0
H650 H 0.8471 0.65156 0.57198 0.0
H651 H 0.87836 0.71376 0.60035 0.0
O652 O 0.81674 0.64077 0.59848 0.0
O653 O 0.83276 0.67398 0.61348 0.0
O654 O 0.81925 0.72884 0.59875 0.0
C655 C 0.82966 0.64609 0.61004 0.0
H656 H 0.7316 0.69909 0.63085 0.0
H657 H 0.90371 0.66348 0.56621 0.0
H658 H 0.80098 0.73232 0.55119 0.0
H659 H 0.76038 0.64522 0.55581 0.0
Co660 Co 0.55912 0.43522 0.65926 0.0
C661 C 0.58143 0.49501 0.65111 0.0
C662 C 0.54509 0.48037 0.63866 0.0
C663 C 0.55638 0.50657 0.63337 0.0
N664 N 0.56036 0.47345 0.64999 0.0
N665 N 0.5794 0.51556 0.64116 0.0
H666 H 0.59924 0.49471 0.65843 0.0
H667 H 0.52828 0.46628 0.63402 0.0
C668 C 0.49297 0.45118 0.65642 0.0
O669 O 0.49779 0.47972 0.65889 0.0
N670 N 0.55818 0.39692 0.66811 0.0
C671 C 0.57378 0.38849 0.67907 0.0
C672 C 0.56679 0.35914 0.68192 0.0
C673 C 0.5423 0.37275 0.66432 0.0
N674 N 0.54696 0.34914 0.67262 0.0
C675 C 0.58029 0.46733 0.68252 0.0
C676 C 0.52963 0.45938 0.69814 0.0
C677 C 0.55485 0.4729 0.70398 0.0
C678 C 0.58032 0.47707 0.69592 0.0
C679 C 0.53057 0.44988 0.68471 0.0
N680 N 0.5555 0.45434 0.67693 0.0
H681 H 0.60097 0.46861 0.67696 0.0
H682 H 0.5118 0.43715 0.68098 0.0
H683 H 0.58917 0.40264 0.68458 0.0
H684 H 0.52798 0.37263 0.65553 0.0
O685 O 0.60248 0.43166 0.65791 0.0
O686 O 0.56989 0.41582 0.64262 0.0
O687 O 0.51445 0.43227 0.6567 0.0
C688 C 0.59762 0.41817 0.64646 0.0
H689 H 0.54976 0.51682 0.62393 0.0
H690 H 0.57567 0.34645 0.69029 0.0
H691 H 0.50982 0.45468 0.70408 0.0
H692 H 0.60047 0.48709 0.70001 0.0
Co693 Co 0.8145 0.31342 0.9106 0.0
C694 C 0.75384 0.33414 0.90244 0.0
C695 C 0.77082 0.29977 0.88949 0.0
C696 C 0.74477 0.31078 0.88398 0.0
N697 N 0.77632 0.31403 0.90121 0.0
N698 N 0.73414 0.33261 0.89209 0.0
H699 H 0.75289 0.35085 0.91023 0.0
H700 H 0.78586 0.28392 0.88476 0.0
C701 C 0.79898 0.24736 0.90769 0.0
O702 O 0.7703 0.25219 0.90979 0.0
N703 N 0.85283 0.31308 0.9195 0.0
C704 C 0.86092 0.32884 0.9305 0.0
C705 C 0.89015 0.32176 0.93364 0.0
C706 C 0.87718 0.29708 0.91595 0.0
N707 N 0.90027 0.30186 0.92447 0.0
C708 C 0.78166 0.33426 0.93385 0.0
C709 C 0.79038 0.28355 0.94936 0.0
C710 C 0.77586 0.30822 0.95516 0.0
C711 C 0.77125 0.33374 0.94717 0.0
C712 C 0.80021 0.28491 0.93601 0.0
N713 N 0.79533 0.30982 0.92826 0.0
H714 H 0.78029 0.35504 0.92834 0.0
H715 H 0.81336 0.26643 0.9323 0.0
H716 H 0.84658 0.34433 0.93586 0.0
H717 H 0.87781 0.28194 0.90743 0.0
O718 O 0.8176 0.35689 0.90889 0.0
O719 O 0.83373 0.32356 0.89396 0.0
O720 O 0.81787 0.2688 0.90824 0.0
C721 C 0.83083 0.35145 0.89742 0.0
H722 H 0.73572 0.30466 0.87424 0.0
H723 H 0.90307 0.33079 0.94194 0.0
H724 H 0.79482 0.2635 0.9552 0.0
H725 H 0.76108 0.35371 0.95137 0.0
Co726 Co 0.94913 0.5589 0.15891 0.0
C727 C 0.92543 0.50034 0.14918 0.0
C728 C 0.95765 0.51972 0.13573 0.0
C729 C 0.94565 0.49482 0.12965 0.0
N730 N 0.94535 0.523 0.14807 0.0
N731 N 0.92528 0.48276 0.13809 0.0
H732 H 0.9096 0.49804 0.15732 0.0
H733 H 0.97321 0.53532 0.13118 0.0
C734 C 0.01263 0.53758 0.15456 0.0
O735 O 0.00429 0.50941 0.1553 0.0
N736 N 0.95273 0.59528 0.16927 0.0
C737 C 0.94056 0.60127 0.18142 0.0
C738 C 0.94821 0.63003 0.18506 0.0
C739 C 0.96703 0.62057 0.16554 0.0
N740 N 0.96467 0.64205 0.17504 0.0
C741 C 0.92559 0.5253 0.18123 0.0
C742 C 0.97725 0.52572 0.19656 0.0
C743 C 0.95051 0.51601 0.20261 0.0
C744 C 0.92458 0.51524 0.19458 0.0
C745 C 0.97714 0.53624 0.18331 0.0
N746 N 0.95154 0.53601 0.17572 0.0
H747 H 0.90479 0.52672 0.17573 0.0
H748 H 0.99738 0.54658 0.17969 0.0
H749 H 0.92673 0.58608 0.18718 0.0
H750 H 0.97885 0.62319 0.15608 0.0
O751 O 0.90609 0.56527 0.15783 0.0
O752 O 0.93946 0.58214 0.14313 0.0
O753 O 0.99392 0.55893 0.15629 0.0
C754 C 0.9116 0.58021 0.14683 0.0
H755 H 0.95057 0.48697 0.11957 0.0
H756 H 0.94154 0.64154 0.19419 0.0
H757 H 0.99805 0.52649 0.20217 0.0
H758 H 0.90313 0.50875 0.19876 0.0
Co759 Co 0.68689 0.70314 0.40807 0.0
C760 C 0.74533 0.67879 0.39894 0.0
C761 C 0.73047 0.71544 0.38673 0.0
C762 C 0.75563 0.70325 0.38087 0.0
N763 N 0.72432 0.7005 0.39823 0.0
N764 N 0.76477 0.68003 0.38852 0.0
H765 H 0.74542 0.66121 0.40637 0.0
H766 H 0.71648 0.73278 0.38242 0.0
C767 C 0.70912 0.76719 0.40669 0.0
O768 O 0.73716 0.75877 0.40805 0.0
N769 N 0.64928 0.70544 0.41743 0.0
C770 C 0.6395 0.68706 0.42725 0.0
C771 C 0.6106 0.69504 0.43051 0.0
C772 C 0.62639 0.72414 0.41476 0.0
N773 N 0.60238 0.71832 0.42262 0.0
C774 C 0.71819 0.67598 0.43042 0.0
C775 C 0.71415 0.72488 0.44743 0.0
C776 C 0.72599 0.69807 0.45248 0.0
C777 C 0.72837 0.67351 0.44373 0.0
C778 C 0.70453 0.72649 0.43406 0.0
N779 N 0.70699 0.70241 0.42559 0.0
H780 H 0.71756 0.65602 0.42431 0.0
H781 H 0.69327 0.74669 0.43094 0.0
H782 H 0.65222 0.6687 0.43149 0.0
H783 H 0.62733 0.74141 0.40711 0.0
O784 O 0.67997 0.66047 0.40513 0.0
O785 O 0.66586 0.69708 0.39144 0.0
O786 O 0.68772 0.74822 0.40703 0.0
C787 C 0.66646 0.66857 0.39404 0.0
H788 H 0.76503 0.70953 0.37122 0.0
H789 H 0.59646 0.68388 0.43781 0.0
H790 H 0.71151 0.7443 0.45388 0.0
H791 H 0.73647 0.65207 0.44735 0.0
Co792 Co 0.43487 0.43567 0.15909 0.0
C793 C 0.40981 0.49455 0.15163 0.0
C794 C 0.44936 0.48392 0.14026 0.0
C795 C 0.4379 0.51058 0.13558 0.0
N796 N 0.43176 0.474 0.15032 0.0
N797 N 0.41293 0.5173 0.14269 0.0
H798 H 0.39161 0.49232 0.15875 0.0
H799 H 0.46843 0.47197 0.13621 0.0
C800 C 0.50061 0.4267 0.16472 0.0
O801 O 0.49404 0.41462 0.17643 0.0
N802 N 0.43788 0.3965 0.16756 0.0
C803 C 0.42344 0.38602 0.17856 0.0
C804 C 0.43214 0.35693 0.18084 0.0
C805 C 0.45413 0.37304 0.16298 0.0
N806 N 0.45149 0.34888 0.17108 0.0
C807 C 0.40837 0.45496 0.184 0.0
C808 C 0.45911 0.48005 0.19523 0.0
C809 C 0.43402 0.4752 0.20349 0.0
C810 C 0.40793 0.46387 0.19748 0.0
C811 C 0.45851 0.47076 0.18173 0.0
N812 N 0.43424 0.4558 0.17665 0.0
H813 H 0.38819 0.44558 0.17974 0.0
H814 H 0.4779 0.47512 0.17557 0.0
H815 H 0.40722 0.39796 0.18451 0.0
H816 H 0.46835 0.37398 0.15415 0.0
O817 O 0.39225 0.42873 0.15654 0.0
O818 O 0.42778 0.41609 0.14203 0.0
O819 O 0.47997 0.43796 0.15735 0.0
C820 C 0.3995 0.41615 0.14515 0.0
H821 H 0.44663 0.52316 0.12713 0.0
H822 H 0.42456 0.34263 0.18897 0.0
H823 H 0.47945 0.48981 0.19926 0.0
H824 H 0.38749 0.46117 0.20325 0.0
Co825 Co 0.30994 0.69502 0.90939 0.0
C826 C 0.25038 0.67248 0.90009 0.0
C827 C 0.26941 0.70534 0.88687 0.0
C828 C 0.24438 0.6936 0.88078 0.0
N829 N 0.2731 0.69239 0.89906 0.0
N830 N 0.23252 0.67295 0.88911 0.0
H831 H 0.24821 0.65611 0.90802 0.0
H832 H 0.28499 0.72097 0.88235 0.0
C833 C 0.28898 0.75892 0.90631 0.0
O834 O 0.26085 0.75074 0.90757 0.0
N835 N 0.34714 0.69744 0.91915 0.0
C836 C 0.3549 0.68183 0.93025 0.0
C837 C 0.3836 0.68983 0.93387 0.0
C838 C 0.37119 0.71429 0.91602 0.0
N839 N 0.39376 0.71013 0.92488 0.0
C840 C 0.2765 0.6715 0.93192 0.0
C841 C 0.28323 0.72145 0.94813 0.0
C842 C 0.27088 0.69543 0.95373 0.0
C843 C 0.26688 0.67043 0.94536 0.0
C844 C 0.29224 0.7217 0.93467 0.0
N845 N 0.28881 0.69699 0.92663 0.0
H846 H 0.27609 0.65107 0.92612 0.0
H847 H 0.30417 0.74118 0.93116 0.0
H848 H 0.34083 0.66558 0.93527 0.0
H849 H 0.37208 0.72931 0.90746 0.0
O850 O 0.31571 0.65188 0.90764 0.0
O851 O 0.33167 0.68626 0.89317 0.0
O852 O 0.31028 0.73993 0.90728 0.0
C853 C 0.32981 0.65816 0.89648 0.0
H854 H 0.23634 0.69876 0.87075 0.0
H855 H 0.39627 0.6809 0.94226 0.0
H856 H 0.287 0.74119 0.95427 0.0
H857 H 0.25818 0.6496 0.94939 0.0
Co858 Co 0.06152 0.55861 0.65841 0.0
C859 C 0.0816 0.49779 0.6502 0.0
C860 C 0.04885 0.51611 0.63676 0.0
C861 C 0.05976 0.49005 0.63124 0.0
N862 N 0.06219 0.5208 0.64877 0.0
N863 N 0.08059 0.47857 0.63965 0.0
H864 H 0.09747 0.49611 0.65832 0.0
H865 H 0.03373 0.53169 0.6319 0.0
C866 C 0.99602 0.54256 0.65505 0.0
O867 O 0.00164 0.51406 0.65722 0.0
N868 N 0.06127 0.5966 0.66761 0.0
C869 C 0.07754 0.60406 0.67854 0.0
C870 C 0.07116 0.63329 0.68191 0.0
C871 C 0.04562 0.62135 0.6643 0.0
N872 N 0.05118 0.64409 0.67293 0.0
C873 C 0.08185 0.52582 0.68172 0.0
C874 C 0.03099 0.53483 0.69709 0.0
C875 C 0.05603 0.52152 0.70318 0.0
C876 C 0.08155 0.51659 0.69522 0.0
C877 C 0.03224 0.54377 0.6836 0.0
N878 N 0.05731 0.53896 0.67595 0.0
H879 H 0.10267 0.52432 0.67626 0.0
H880 H 0.01358 0.55645 0.67975 0.0
H881 H 0.09308 0.58936 0.68367 0.0
H882 H 0.03035 0.6226 0.65584 0.0
O883 O 0.10497 0.56128 0.6571 0.0
O884 O 0.07268 0.57842 0.64196 0.0
O885 O 0.0169 0.56209 0.65575 0.0
C886 C 0.10036 0.57506 0.6457 0.0
H887 H 0.05433 0.48158 0.62131 0.0
H888 H 0.08086 0.64581 0.69017 0.0
H889 H 0.01081 0.5393 0.70281 0.0
H890 H 0.10179 0.50728 0.69956 0.0
Co891 Co 0.18777 0.29747 0.40884 0.0
C892 C 0.24237 0.3271 0.39871 0.0
C893 C 0.23008 0.28903 0.38665 0.0
C894 C 0.25372 0.30345 0.3805 0.0
N895 N 0.22299 0.30395 0.39801 0.0
N896 N 0.26136 0.32726 0.38812 0.0
H897 H 0.24143 0.34447 0.40631 0.0
H898 H 0.21792 0.26993 0.38275 0.0
C899 C 0.18495 0.23132 0.4148 0.0
O900 O 0.17456 0.23666 0.42695 0.0
N901 N 0.15172 0.29103 0.41953 0.0
C902 C 0.14704 0.29654 0.43277 0.0
C903 C 0.11864 0.28733 0.43616 0.0
C904 C 0.12577 0.2789 0.41507 0.0
N905 N 0.10538 0.27635 0.42504 0.0
C906 C 0.21179 0.32961 0.43147 0.0
C907 C 0.23977 0.28157 0.44372 0.0
C908 C 0.23663 0.30837 0.45106 0.0
C909 C 0.22383 0.33305 0.4444 0.0
C910 C 0.22799 0.27931 0.43069 0.0
N911 N 0.21197 0.30236 0.42518 0.0
H912 H 0.2005 0.34848 0.42694 0.0
H913 H 0.23119 0.25861 0.42532 0.0
H914 H 0.16295 0.30582 0.43976 0.0
H915 H 0.12214 0.27119 0.40486 0.0
O916 O 0.17521 0.33883 0.40569 0.0
O917 O 0.16366 0.30003 0.39283 0.0
O918 O 0.19451 0.25282 0.40745 0.0
C919 C 0.16134 0.32856 0.39508 0.0
H920 H 0.26398 0.29744 0.37098 0.0
H921 H 0.10848 0.28862 0.44606 0.0
H922 H 0.25008 0.26193 0.44814 0.0
H923 H 0.22213 0.35471 0.44927 0.0
Co924 Co 0.43999 0.56287 0.3467 0.0
C925 C 0.41181 0.50655 0.35592 0.0
C926 C 0.44834 0.52018 0.36866 0.0
C927 C 0.43459 0.49574 0.37444 0.0
N928 N 0.43399 0.52695 0.3571 0.0
N929 N 0.41174 0.48727 0.36641 0.0
H930 H 0.39501 0.50694 0.34806 0.0
H931 H 0.46653 0.53309 0.37293 0.0
C932 C 0.50647 0.5684 0.34227 0.0
O933 O 0.50182 0.57816 0.32995 0.0
N934 N 0.44609 0.59971 0.33651 0.0
C935 C 0.4407 0.60533 0.32334 0.0
C936 C 0.44981 0.63397 0.32037 0.0
C937 C 0.45799 0.62543 0.34137 0.0
N938 N 0.46062 0.64652 0.3317 0.0
C939 C 0.41292 0.53879 0.32284 0.0
C940 C 0.46316 0.51076 0.31258 0.0
C941 C 0.43783 0.51375 0.30428 0.0
C942 C 0.41203 0.5268 0.30984 0.0
C943 C 0.46301 0.52297 0.32559 0.0
N944 N 0.43892 0.53901 0.33013 0.0
H945 H 0.39323 0.55015 0.32654 0.0
H946 H 0.48256 0.51988 0.33181 0.0
H947 H 0.43151 0.58998 0.31609 0.0
H948 H 0.46558 0.62832 0.35165 0.0
O949 O 0.3977 0.57285 0.34841 0.0
O950 O 0.43325 0.58621 0.36277 0.0
O951 O 0.48465 0.55858 0.34934 0.0
C952 C 0.40513 0.58683 0.35944 0.0
H953 H 0.44032 0.48552 0.384 0.0
H954 H 0.44864 0.64478 0.31061 0.0
H955 H 0.48312 0.49947 0.30898 0.0
H956 H 0.39175 0.52941 0.30396 0.0
Co957 Co 0.1873 0.69556 0.09785 0.0
C958 C 0.24634 0.67504 0.10813 0.0
C959 C 0.22728 0.70984 0.12027 0.0
C960 C 0.25207 0.69872 0.12682 0.0
N961 N 0.22385 0.69533 0.10843 0.0
N962 N 0.26393 0.67674 0.11918 0.0
H963 H 0.24822 0.65737 0.10077 0.0
H964 H 0.21155 0.7259 0.12435 0.0
C965 C 0.20216 0.76175 0.10104 0.0
O966 O 0.23113 0.757 0.1 0.0
N967 N 0.15043 0.6956 0.08779 0.0
C968 C 0.14448 0.68178 0.07599 0.0
C969 C 0.11551 0.68858 0.07225 0.0
C970 C 0.12504 0.70997 0.09123 0.0
N971 N 0.10347 0.7061 0.0819 0.0
C972 C 0.22292 0.67343 0.07575 0.0
C973 C 0.21459 0.72271 0.05928 0.0
C974 C 0.22814 0.69709 0.05387 0.0
C975 C 0.23301 0.67249 0.06238 0.0
C976 C 0.20513 0.72286 0.07269 0.0
N977 N 0.20917 0.6984 0.08082 0.0
H978 H 0.22406 0.65315 0.08163 0.0
H979 H 0.19232 0.74191 0.07604 0.0
H980 H 0.16006 0.66788 0.07046 0.0
H981 H 0.12256 0.72334 0.10027 0.0
O982 O 0.18393 0.65215 0.09988 0.0
O983 O 0.16538 0.68614 0.11386 0.0
O984 O 0.18349 0.74026 0.09978 0.0
C985 C 0.16865 0.65807 0.11078 0.0
H986 H 0.25978 0.70516 0.13675 0.0
H987 H 0.10404 0.68101 0.06326 0.0
H988 H 0.21019 0.74215 0.05303 0.0
H989 H 0.24272 0.65196 0.05851 0.0
Co990 Co 0.06019 0.43772 0.84799 0.0
C991 C 0.08021 0.4984 0.85676 0.0
C992 C 0.04682 0.47947 0.86974 0.0
C993 C 0.05758 0.50514 0.87567 0.0
N994 N 0.06072 0.47532 0.85779 0.0
N995 N 0.07857 0.51693 0.8675 0.0
H996 H 0.09723 0.50029 0.8491 0.0
H997 H 0.03141 0.46373 0.87429 0.0
C998 C 0.99478 0.45449 0.85076 0.0
O999 O 0.00079 0.48296 0.84872 0.0
N1000 N 0.0598 0.39979 0.83877 0.0
C1001 C 0.07573 0.39202 0.82779 0.0
C1002 C 0.07014 0.36234 0.82498 0.0
C1003 C 0.04507 0.37486 0.84259 0.0
N1004 N 0.05093 0.35148 0.83432 0.0
C1005 C 0.08185 0.4712 0.82516 0.0
C1006 C 0.03175 0.46312 0.80918 0.0
C1007 C 0.05696 0.47707 0.80355 0.0
C1008 C 0.08217 0.48131 0.81179 0.0
C1009 C 0.0324 0.45327 0.82254 0.0
N1010 N 0.05705 0.45773 0.8305 0.0
H1011 H 0.1023 0.4726 0.8309 0.0
H1012 H 0.01365 0.44023 0.82607 0.0
H1013 H 0.0906 0.40677 0.82231 0.0
H1014 H 0.03102 0.37385 0.85146 0.0
O1015 O 0.10357 0.43444 0.8497 0.0
O1016 O 0.07026 0.4176 0.86447 0.0
O1017 O 0.01546 0.43474 0.85018 0.0
C1018 C 0.09816 0.42062 0.86103 0.0
H1019 H 0.05164 0.5136 0.88554 0.0
H1020 H 0.07951 0.34989 0.81663 0.0
H1021 H 0.01216 0.45831 0.8031 0.0
H1022 H 0.10232 0.49166 0.80787 0.0
Co1023 Co 0.31363 0.30672 0.59703 0.0
C1024 C 0.25286 0.32685 0.60549 0.0
C1025 C 0.2679 0.2884 0.61648 0.0
C1026 C 0.24167 0.29831 0.6222 0.0
N1027 N 0.2747 0.30584 0.60578 0.0
N1028 N 0.23231 0.32257 0.6153 0.0
H1029 H 0.25342 0.34664 0.59926 0.0
H1030 H 0.28216 0.27095 0.6205 0.0
C1031 C 0.29824 0.24052 0.59738 0.0
O1032 O 0.27031 0.24599 0.59396 0.0
N1033 N 0.35269 0.30779 0.58886 0.0
C1034 C 0.36233 0.32679 0.57925 0.0
C1035 C 0.39196 0.32053 0.57657 0.0
C1036 C 0.37638 0.29049 0.592 0.0
N1037 N 0.40075 0.2977 0.5846 0.0
C1038 C 0.28044 0.32796 0.57385 0.0
C1039 C 0.29736 0.28175 0.5569 0.0
C1040 C 0.28076 0.30559 0.55157 0.0
C1041 C 0.27185 0.3287 0.56027 0.0
C1042 C 0.30498 0.28161 0.57055 0.0
N1043 N 0.29629 0.30433 0.57896 0.0
H1044 H 0.27597 0.34735 0.57998 0.0
H1045 H 0.31961 0.26403 0.57408 0.0
H1046 H 0.34881 0.34409 0.57462 0.0
H1047 H 0.37564 0.27291 0.5995 0.0
O1048 O 0.31593 0.35002 0.59945 0.0
O1049 O 0.33133 0.31588 0.61416 0.0
O1050 O 0.31717 0.26183 0.59855 0.0
C1051 C 0.3286 0.34399 0.61099 0.0
H1052 H 0.23119 0.28932 0.63117 0.0
H1053 H 0.40603 0.33228 0.56943 0.0
H1054 H 0.30511 0.2637 0.55048 0.0
H1055 H 0.2598 0.34799 0.55643 0.0
H1056 H 0.19297 0.21538 0.38843 0.0
H1057 H 0.16638 0.17951 0.42708 0.0
H1058 H 0.17434 0.1706 0.37738 0.0
H1059 H 0.14877 0.13398 0.41604 0.0
H1060 H 0.07258 0.09366 0.38995 0.0
H1061 H 0.10518 0.12576 0.40302 0.0
H1062 H 0.17367 0.11821 0.37237 0.0
H1063 H 0.14018 0.08648 0.35897 0.0
C1064 C 0.18402 0.19753 0.39464 0.0
C1065 C 0.1806 0.20134 0.40863 0.0
C1066 C 0.17346 0.17164 0.38828 0.0
C1067 C 0.15947 0.1488 0.39577 0.0
C1068 C 0.15869 0.15144 0.40991 0.0
C1069 C 0.16898 0.17749 0.41626 0.0
C1070 C 0.09479 0.09835 0.38608 0.0
C1071 C 0.10364 0.08785 0.37334 0.0
C1072 C 0.11371 0.11661 0.39367 0.0
C1073 C 0.14211 0.12485 0.38875 0.0
C1074 C 0.15178 0.11269 0.37638 0.0
C1075 C 0.13271 0.09432 0.36874 0.0
H1076 H 0.0382 0.97027 0.63006 0.0
H1077 H 0.05319 0.92633 0.66813 0.0
H1078 H 0.08316 0.94677 0.62089 0.0
H1079 H 0.09962 0.90475 0.65953 0.0
H1080 H 0.14141 0.83109 0.6341 0.0
H1081 H 0.10859 0.86511 0.64569 0.0
H1082 H 0.13405 0.93626 0.61832 0.0
H1083 H 0.1661 0.90091 0.60607 0.0
C1084 C 0.05197 0.95655 0.63662 0.0
C1085 C 0.0424 0.94987 0.64973 0.0
C1086 C 0.07786 0.94311 0.6314 0.0
C1087 C 0.09492 0.92316 0.63932 0.0
C1088 C 0.08661 0.91903 0.65292 0.0
C1089 C 0.06025 0.93168 0.65796 0.0
C1090 C 0.14044 0.85408 0.63061 0.0
C1091 C 0.15615 0.86317 0.61905 0.0
C1092 C 0.1217 0.8739 0.63741 0.0
C1093 C 0.11841 0.90373 0.63304 0.0
C1094 C 0.13555 0.91337 0.62189 0.0
C1095 C 0.15414 0.89323 0.61492 0.0
H1096 H 0.27313 0.78554 0.88284 0.0
H1097 H 0.32339 0.79944 0.91939 0.0
H1098 H 0.29708 0.82931 0.8727 0.0
H1099 H 0.34569 0.8446 0.90983 0.0
H1100 H 0.41725 0.8816 0.88198 0.0
H1101 H 0.38365 0.84985 0.8944 0.0
H1102 H 0.30944 0.88039 0.86988 0.0
H1103 H 0.34416 0.91161 0.8568 0.0
C1104 C 0.28835 0.79888 0.88888 0.0
C1105 C 0.29661 0.78932 0.90183 0.0
C1106 C 0.30207 0.82403 0.88311 0.0
C1107 C 0.32396 0.84026 0.8903 0.0
C1108 C 0.32977 0.83214 0.90379 0.0
C1109 C 0.31674 0.80654 0.90938 0.0
C1110 C 0.39373 0.88193 0.87927 0.0
C1111 C 0.38344 0.89902 0.86831 0.0
C1112 C 0.3742 0.86384 0.88656 0.0
C1113 C 0.34355 0.86252 0.88329 0.0
C1114 C 0.33293 0.88056 0.87263 0.0
C1115 C 0.35274 0.89859 0.86517 0.0
H1116 H 0.35431 0.09198 0.10184 0.0
H1117 H 0.33507 0.1441 0.13745 0.0
H1118 H 0.39064 0.06221 0.11468 0.0
H1119 H 0.37068 0.11415 0.1503 0.0
H1120 H 0.47261 0.09995 0.15683 0.0
H1121 H 0.42546 0.11761 0.1476 0.0
H1122 H 0.4043 0.02786 0.13427 0.0
H1123 H 0.45209 0.00998 0.14363 0.0
C1124 C 0.35692 0.09621 0.11253 0.0
C1125 C 0.34225 0.12054 0.11863 0.0
C1126 C 0.37774 0.07922 0.11988 0.0
C1127 C 0.38396 0.0863 0.13343 0.0
C1128 C 0.36684 0.1086 0.13981 0.0
C1129 C 0.34634 0.12564 0.13247 0.0
C1130 C 0.45775 0.08382 0.15213 0.0
C1131 C 0.46609 0.05359 0.15093 0.0
C1132 C 0.43056 0.09391 0.14691 0.0
C1133 C 0.41104 0.0741 0.14024 0.0
C1134 C 0.41892 0.04362 0.13935 0.0
C1135 C 0.44613 0.03338 0.14477 0.0
H1136 H 0.2313 0.80737 0.11439 0.0
H1137 H 0.14565 0.78244 0.09746 0.0
H1138 H 0.20828 0.85218 0.12437 0.0
H1139 H 0.12277 0.82621 0.10752 0.0
H1140 H 0.08614 0.91136 0.12071 0.0
H1141 H 0.11904 0.87939 0.10744 0.0
H1142 H 0.1728 0.86207 0.14284 0.0
H1143 H 0.14029 0.89531 0.15602 0.0
C1144 C 0.20777 0.81178 0.11256 0.0
C1145 C 0.19026 0.79133 0.10519 0.0
C1146 C 0.19452 0.83725 0.11839 0.0
C1147 C 0.16365 0.84283 0.11679 0.0
C1148 C 0.14667 0.82303 0.10883 0.0
C1149 C 0.15977 0.79769 0.10311 0.0
C1150 C 0.1054 0.90125 0.12558 0.0
C1151 C 0.11049 0.90543 0.13941 0.0
C1152 C 0.12418 0.88281 0.118 0.0
C1153 C 0.14818 0.86756 0.12413 0.0
C1154 C 0.1546 0.87352 0.13778 0.0
C1155 C 0.13596 0.89248 0.14535 0.0
H1156 H 0.46195 0.90811 0.34623 0.0
H1157 H 0.44667 0.99595 0.3632 0.0
H1158 H 0.41479 0.89079 0.35552 0.0
H1159 H 0.39876 0.9785 0.37257 0.0
H1160 H 0.35049 0.91148 0.40396 0.0
H1161 H 0.38538 0.94253 0.39099 0.0
H1162 H 0.36058 0.8951 0.35471 0.0
H1163 H 0.32662 0.86364 0.36774 0.0
C1164 C 0.44815 0.92392 0.35174 0.0
C1165 C 0.45807 0.95334 0.35403 0.0
C1166 C 0.42092 0.91406 0.357 0.0
C1167 C 0.40289 0.93329 0.36478 0.0
C1168 C 0.4122 0.96315 0.36665 0.0
C1169 C 0.43948 0.97318 0.36121 0.0
C1170 C 0.35167 0.90859 0.39313 0.0
C1171 C 0.3362 0.88501 0.38685 0.0
C1172 C 0.37169 0.92632 0.38569 0.0
C1173 C 0.37626 0.92079 0.37186 0.0
C1174 C 0.35811 0.89943 0.36539 0.0
C1175 C 0.33849 0.88156 0.37283 0.0
H1176 H 0.40168 0.08224 0.6168 0.0
H1177 H 0.34628 0.10083 0.65146 0.0
H1178 H 0.37163 0.11648 0.60327 0.0
H1179 H 0.31641 0.13585 0.63795 0.0
H1180 H 0.2644 0.19511 0.60827 0.0
H1181 H 0.2831 0.14795 0.61798 0.0
H1182 H 0.37282 0.1712 0.60534 0.0
H1183 H 0.3543 0.21768 0.59575 0.0
C1184 C 0.38254 0.0931 0.62143 0.0
C1185 C 0.3765 0.0892 0.63521 0.0
C1186 C 0.36542 0.11282 0.6137 0.0
C1187 C 0.34208 0.12939 0.61961 0.0
C1188 C 0.33422 0.12337 0.63309 0.0
C1189 C 0.35129 0.10331 0.64084 0.0
C1190 C 0.28797 0.18966 0.60732 0.0
C1191 C 0.30793 0.21005 0.60129 0.0
C1192 C 0.29869 0.16284 0.61296 0.0
C1193 C 0.32942 0.15578 0.61241 0.0
C1194 C 0.34897 0.17564 0.60578 0.0
C1195 C 0.33839 0.20244 0.60035 0.0
H1196 H 0.17265 0.14571 0.86772 0.0
H1197 H 0.12735 0.11112 0.90276 0.0
H1198 H 0.13893 0.11757 0.85311 0.0
H1199 H 0.09197 0.08464 0.88831 0.0
H1200 H 0.03024 0.03713 0.8606 0.0
H1201 H 0.07611 0.04935 0.87281 0.0
H1202 H 0.09059 0.12455 0.84602 0.0
H1203 H 0.04599 0.11112 0.83349 0.0
C1204 C 0.15573 0.13149 0.87226 0.0
C1205 C 0.15254 0.13036 0.8863 0.0
C1206 C 0.13607 0.1157 0.86391 0.0
C1207 C 0.11202 0.09932 0.86942 0.0
C1208 C 0.11022 0.09667 0.88358 0.0
C1209 C 0.1305 0.11185 0.89194 0.0
C1210 C 0.04376 0.0558 0.85716 0.0
C1211 C 0.03451 0.07321 0.84611 0.0
C1212 C 0.06993 0.06303 0.86424 0.0
C1213 C 0.08714 0.08824 0.8606 0.0
C1214 C 0.0785 0.10466 0.84908 0.0
C1215 C 0.0527 0.09705 0.84186 0.0
H1216 H 0.85904 0.76965 0.59676 0.0
H1217 H 0.77148 0.79873 0.60996 0.0
H1218 H 0.88147 0.81368 0.60682 0.0
H1219 H 0.79413 0.84376 0.61998 0.0
H1220 H 0.85853 0.88872 0.65285 0.0
H1221 H 0.8274 0.85432 0.63957 0.0
H1222 H 0.88591 0.86714 0.60534 0.0
H1223 H 0.91729 0.90039 0.6187 0.0
C1224 C 0.84447 0.78583 0.60162 0.0
C1225 C 0.81351 0.78065 0.60262 0.0
C1226 C 0.85733 0.81128 0.60732 0.0
C1227 C 0.83962 0.83236 0.61422 0.0
C1228 C 0.80839 0.82784 0.61481 0.0
C1229 C 0.7954 0.80226 0.60896 0.0
C1230 C 0.86426 0.8846 0.6424 0.0
C1231 C 0.89056 0.89672 0.63686 0.0
C1232 C 0.84641 0.86501 0.63477 0.0
C1233 C 0.8545 0.85753 0.62146 0.0
C1234 C 0.87946 0.87179 0.61566 0.0
C1235 C 0.89739 0.89093 0.6233 0.0
H1236 H 0.93709 0.07014 0.33657 0.0
H1237 H 0.95501 0.02516 0.37413 0.0
H1238 H 0.89191 0.09242 0.34625 0.0
H1239 H 0.91127 0.04889 0.38425 0.0
H1240 H 0.83002 0.09486 0.40074 0.0
H1241 H 0.8601 0.05956 0.38747 0.0
H1242 H 0.88612 0.13202 0.36094 0.0
H1243 H 0.85541 0.16623 0.37363 0.0
C1244 C 0.93083 0.06452 0.34682 0.0
C1245 C 0.94922 0.04595 0.35462 0.0
C1246 C 0.90523 0.07757 0.35246 0.0
C1247 C 0.89818 0.07315 0.36619 0.0
C1248 C 0.91564 0.05275 0.37366 0.0
C1249 C 0.94086 0.0392 0.3679 0.0
C1250 C 0.84169 0.10291 0.39188 0.0
C1251 C 0.84051 0.13337 0.38832 0.0
C1252 C 0.85912 0.08278 0.38432 0.0
C1253 C 0.87579 0.09279 0.37309 0.0
C1254 C 0.8733 0.12306 0.36928 0.0
C1255 C 0.85582 0.14293 0.37672 0.0
H1256 H 0.65322 0.10007 0.15483 0.0
H1257 H 0.60171 0.0905 0.11824 0.0
H1258 H 0.6862 0.136 0.14347 0.0
H1259 H 0.63502 0.12588 0.10685 0.0
H1260 H 0.7099 0.18741 0.08981 0.0
H1261 H 0.69268 0.14005 0.1001 0.0
H1262 H 0.66412 0.18876 0.13543 0.0
H1263 H 0.6801 0.23556 0.12508 0.0
C1264 C 0.64967 0.10474 0.14423 0.0
C1265 C 0.62478 0.0928 0.13744 0.0
C1266 C 0.66847 0.12531 0.13775 0.0
C1267 C 0.66303 0.13371 0.12431 0.0
C1268 C 0.63985 0.11958 0.11717 0.0
C1269 C 0.62071 0.0995 0.12372 0.0
C1270 C 0.70036 0.18772 0.09985 0.0
C1271 C 0.69611 0.215 0.10664 0.0
C1272 C 0.69057 0.16077 0.10571 0.0
C1273 C 0.67739 0.16082 0.1186 0.0
C1274 C 0.67462 0.18801 0.12559 0.0
C1275 C 0.68355 0.21481 0.11962 0.0
H1276 H 0.64119 0.89902 0.90525 0.0
H1277 H 0.66197 0.84697 0.86983 0.0
H1278 H 0.60775 0.93077 0.89184 0.0
H1279 H 0.62987 0.87928 0.85629 0.0
H1280 H 0.53152 0.90014 0.84591 0.0
H1281 H 0.57669 0.8799 0.85583 0.0
H1282 H 0.59641 0.96614 0.87363 0.0
H1283 H 0.55017 0.98644 0.86379 0.0
C1284 C 0.63945 0.89514 0.8945 0.0
C1285 C 0.65368 0.87037 0.88858 0.0
C1286 C 0.62037 0.91333 0.88679 0.0
C1287 C 0.61559 0.90716 0.87302 0.0
C1288 C 0.63235 0.88415 0.86693 0.0
C1289 C 0.65088 0.86574 0.87465 0.0
C1290 C 0.54571 0.91502 0.85173 0.0
C1291 C 0.53715 0.94483 0.85414 0.0
C1292 C 0.57186 0.90345 0.85736 0.0
C1293 C 0.5903 0.92136 0.86557 0.0
C1294 C 0.58258 0.9517 0.86745 0.0
C1295 C 0.55628 0.96339 0.86171 0.0
H1296 H 0.84993 0.10804 0.85327 0.0
H1297 H 0.91045 0.09502 0.88671 0.0
H1298 H 0.82038 0.14304 0.86687 0.0
H1299 H 0.8805 0.12888 0.90044 0.0
H1300 H 0.856 0.22685 0.90941 0.0
H1301 H 0.87688 0.18206 0.8994 0.0
H1302 H 0.78851 0.15491 0.88633 0.0
H1303 H 0.76747 0.20079 0.89622 0.0
C1304 C 0.85636 0.11198 0.86365 0.0
C1305 C 0.88272 0.09927 0.86888 0.0
C1306 C 0.83939 0.13193 0.87147 0.0
C1307 C 0.84839 0.13923 0.88468 0.0
C1308 C 0.87336 0.1244 0.8902 0.0
C1309 C 0.89047 0.10488 0.88235 0.0
C1310 C 0.84086 0.21119 0.90457 0.0
C1311 C 0.8101 0.2175 0.90352 0.0
C1312 C 0.85283 0.18525 0.89892 0.0
C1313 C 0.8344 0.16477 0.89204 0.0
C1314 C 0.80335 0.17037 0.89147 0.0
C1315 C 0.79126 0.19646 0.89723 0.0
H1316 H 0.64769 0.09408 0.60332 0.0
H1317 H 0.66222 0.14306 0.64026 0.0
H1318 H 0.61085 0.06236 0.61483 0.0
H1319 H 0.6259 0.11104 0.65179 0.0
H1320 H 0.56079 0.0387 0.6687 0.0
H1321 H 0.60849 0.05445 0.65828 0.0
H1322 H 0.55996 0.08661 0.62352 0.0
H1323 H 0.51288 0.07198 0.63397 0.0
C1324 C 0.64397 0.09721 0.61402 0.0
C1325 C 0.65756 0.12112 0.62089 0.0
C1326 C 0.62283 0.07918 0.62058 0.0
C1327 C 0.61547 0.08443 0.63417 0.0
C1328 C 0.63132 0.10638 0.64136 0.0
C1329 C 0.65199 0.12476 0.63474 0.0
C1330 C 0.56054 0.04885 0.65879 0.0
C1331 C 0.53322 0.05442 0.65219 0.0
C1332 C 0.58769 0.05777 0.65284 0.0
C1333 C 0.58784 0.07141 0.64004 0.0
C1334 C 0.56056 0.07573 0.63329 0.0
C1335 C 0.53359 0.06764 0.63934 0.0
H1336 H 0.67422 0.80701 0.41994 0.0
H1337 H 0.72552 0.79489 0.38357 0.0
H1338 H 0.65096 0.85172 0.41042 0.0
H1339 H 0.70069 0.83818 0.37346 0.0
H1340 H 0.65138 0.9191 0.35749 0.0
H1341 H 0.68677 0.88881 0.37065 0.0
H1342 H 0.61308 0.85589 0.39484 0.0
H1343 H 0.57873 0.88676 0.38232 0.0
C1344 C 0.68099 0.81448 0.41001 0.0
C1345 C 0.70166 0.79783 0.40248 0.0
C1346 C 0.66737 0.8398 0.40442 0.0
C1347 C 0.67316 0.84818 0.39097 0.0
C1348 C 0.69567 0.83267 0.38385 0.0
C1349 C 0.70995 0.80781 0.38961 0.0
C1350 C 0.64302 0.90574 0.3658 0.0
C1351 C 0.61226 0.90529 0.36884 0.0
C1352 C 0.66323 0.88825 0.3733 0.0
C1353 C 0.65298 0.86985 0.38391 0.0
C1354 C 0.62223 0.87022 0.38705 0.0
C1355 C 0.60229 0.8878 0.37971 0.0
H1356 H 0.93926 0.93475 0.17136 0.0
H1357 H 0.96502 0.96917 0.13249 0.0
H1358 H 0.89323 0.91441 0.16161 0.0
H1359 H 0.92036 0.94716 0.1224 0.0
H1360 H 0.83793 0.90501 0.1057 0.0
H1361 H 0.86887 0.94061 0.1184 0.0
H1362 H 0.88481 0.87251 0.14863 0.0
H1363 H 0.85322 0.8382 0.13645 0.0
C1364 C 0.93464 0.9384 0.16076 0.0
C1365 C 0.9554 0.95343 0.15263 0.0
C1366 C 0.90851 0.92648 0.1551 0.0
C1367 C 0.90322 0.92845 0.1411 0.0
C1368 C 0.9233 0.94532 0.13319 0.0
C1369 C 0.94906 0.95781 0.13894 0.0
C1370 C 0.84746 0.89811 0.11526 0.0
C1371 C 0.84343 0.86872 0.11999 0.0
C1372 C 0.86542 0.91837 0.12249 0.0
C1373 C 0.87973 0.90952 0.13454 0.0
C1374 C 0.87399 0.88061 0.13957 0.0
C1375 C 0.85601 0.86063 0.13245 0.0
H1376 H 0.73376 0.69827 0.89531 0.0
H1377 H 0.64505 0.72022 0.90972 0.0
H1378 H 0.71423 0.6515 0.88562 0.0
H1379 H 0.62571 0.67423 0.90006 0.0
H1380 H 0.59558 0.58597 0.88838 0.0
H1381 H 0.62652 0.61995 0.90162 0.0
H1382 H 0.67987 0.63931 0.86634 0.0
H1383 H 0.64921 0.60434 0.85316 0.0
C1384 C 0.71029 0.69281 0.89665 0.0
C1385 C 0.69091 0.71292 0.90323 0.0
C1386 C 0.69909 0.6662 0.89102 0.0
C1387 C 0.66845 0.65909 0.89208 0.0
C1388 C 0.64951 0.67867 0.89922 0.0
C1389 C 0.66057 0.70523 0.90469 0.0
C1390 C 0.61449 0.5968 0.88356 0.0
C1391 C 0.61985 0.59287 0.86974 0.0
C1392 C 0.63211 0.61639 0.89112 0.0
C1393 C 0.65519 0.63289 0.88496 0.0
C1394 C 0.66229 0.62689 0.87139 0.0
C1395 C 0.64477 0.60689 0.86383 0.0
H1396 H 0.67342 0.35622 0.13984 0.0
H1397 H 0.6297 0.38907 0.10404 0.0
H1398 H 0.63784 0.38358 0.15384 0.0
H1399 H 0.59257 0.41468 0.11786 0.0
H1400 H 0.54317 0.38598 0.17183 0.0
H1401 H 0.58921 0.37442 0.16002 0.0
H1402 H 0.57387 0.4492 0.13308 0.0
H1403 H 0.52663 0.45955 0.14456 0.0
C1404 C 0.65652 0.36997 0.135 0.0
C1405 C 0.65425 0.37073 0.12092 0.0
C1406 C 0.63577 0.38528 0.143 0.0
C1407 C 0.61159 0.40075 0.13707 0.0
C1408 C 0.61085 0.4033 0.1229 0.0
C1409 C 0.63218 0.38865 0.1149 0.0
C1410 C 0.54991 0.40033 0.16356 0.0
C1411 C 0.53115 0.42352 0.15907 0.0
C1412 C 0.57657 0.39383 0.15677 0.0
C1413 C 0.58551 0.41073 0.14544 0.0
C1414 C 0.56755 0.43521 0.14153 0.0
C1415 C 0.54055 0.44134 0.14818 0.0
H1416 H 0.84909 0.28064 0.41117 0.0
H1417 H 0.76027 0.30517 0.39778 0.0
H1418 H 0.86911 0.32635 0.40157 0.0
H1419 H 0.78045 0.35175 0.38821 0.0
H1420 H 0.84301 0.39825 0.35514 0.0
H1421 H 0.81304 0.36365 0.36874 0.0
H1422 H 0.87097 0.38011 0.40286 0.0
H1423 H 0.90129 0.41375 0.38915 0.0
C1424 C 0.8337 0.29617 0.4064 0.0
C1425 C 0.80313 0.2892 0.40516 0.0
C1426 C 0.84516 0.32258 0.40097 0.0
C1427 C 0.8264 0.34281 0.3941 0.0
C1428 C 0.79551 0.33653 0.39336 0.0
C1429 C 0.78392 0.31002 0.39893 0.0
C1430 C 0.84875 0.39508 0.36565 0.0
C1431 C 0.87469 0.40827 0.37105 0.0
C1432 C 0.83157 0.3753 0.37347 0.0
C1433 C 0.83998 0.36865 0.38682 0.0
C1434 C 0.86431 0.38417 0.39251 0.0
C1435 C 0.8816 0.40356 0.38469 0.0
H1436 H 0.83739 0.64678 0.63704 0.0
H1437 H 0.85495 0.59333 0.60167 0.0
H1438 H 0.87218 0.61613 0.65001 0.0
H1439 H 0.8906 0.56292 0.61459 0.0
H1440 H 0.951 0.50954 0.6433 0.0
H1441 H 0.90377 0.52867 0.63389 0.0
H1442 H 0.92658 0.61758 0.64781 0.0
H1443 H 0.97307 0.59864 0.65716 0.0
C1444 C 0.84816 0.62793 0.63214 0.0
C1445 C 0.8438 0.62259 0.61834 0.0
C1446 C 0.86821 0.61048 0.63954 0.0
C1447 C 0.8847 0.58757 0.63325 0.0
C1448 C 0.87822 0.58039 0.61973 0.0
C1449 C 0.8578 0.59776 0.61233 0.0
C1450 C 0.94551 0.53303 0.64456 0.0
C1451 C 0.96577 0.55262 0.65092 0.0
C1452 C 0.91862 0.54399 0.6391 0.0
C1453 C 0.91135 0.57461 0.64013 0.0
C1454 C 0.93116 0.59379 0.64701 0.0
C1455 C 0.958 0.58297 0.65229 0.0
H1456 H 0.7102 0.30804 0.59241 0.0
H1457 H 0.67446 0.25834 0.6261 0.0
H1458 H 0.69176 0.35502 0.60263 0.0
H1459 H 0.65729 0.30483 0.63642 0.0
H1460 H 0.64927 0.3944 0.65654 0.0
H1461 H 0.68169 0.35766 0.64535 0.0
H1462 H 0.63177 0.36898 0.60846 0.0
H1463 H 0.59888 0.40509 0.6197 0.0
C1464 C 0.699 0.30728 0.60209 0.0
C1465 C 0.69354 0.27968 0.60845 0.0
C1466 C 0.68851 0.33401 0.60791 0.0
C1467 C 0.67344 0.33344 0.62036 0.0
C1468 C 0.66921 0.30592 0.62692 0.0
C1469 C 0.67883 0.27932 0.62096 0.0
C1470 C 0.64588 0.3898 0.64592 0.0
C1471 C 0.62148 0.40238 0.63899 0.0
C1472 C 0.66435 0.36876 0.63955 0.0
C1473 C 0.65914 0.36057 0.62607 0.0
C1474 C 0.63641 0.37515 0.61881 0.0
C1475 C 0.61754 0.39567 0.62527 0.0
H1476 H 0.97102 0.39887 0.84838 0.0
H1477 H 0.95064 0.48777 0.86302 0.0
H1478 H 0.92499 0.38009 0.85822 0.0
H1479 H 0.90386 0.46881 0.87292 0.0
H1480 H 0.85725 0.40381 0.90562 0.0
H1481 H 0.89202 0.43429 0.89225 0.0
H1482 H 0.87058 0.38179 0.85695 0.0
H1483 H 0.83677 0.35103 0.87036 0.0
C1484 C 0.95636 0.41455 0.8535 0.0
C1485 C 0.9645 0.44477 0.85496 0.0
C1486 C 0.92979 0.40382 0.85907 0.0
C1487 C 0.91066 0.42298 0.86634 0.0
C1488 C 0.91821 0.45351 0.86741 0.0
C1489 C 0.94482 0.46438 0.86167 0.0
C1490 C 0.85929 0.39954 0.89491 0.0
C1491 C 0.84475 0.37488 0.88903 0.0
C1492 C 0.87918 0.41696 0.88724 0.0
C1493 C 0.88453 0.41001 0.8736 0.0
C1494 C 0.8675 0.38725 0.8675 0.0
C1495 C 0.84802 0.36974 0.87516 0.0
H1496 H 0.82625 0.73586 0.1246 0.0
H1497 H 0.79456 0.68211 0.09134 0.0
H1498 H 0.84597 0.6912 0.13558 0.0
H1499 H 0.81576 0.63698 0.10222 0.0
H1500 H 0.91186 0.59486 0.12025 0.0
H1501 H 0.87727 0.62862 0.10856 0.0
H1502 H 0.82449 0.63664 0.14481 0.0
H1503 H 0.85864 0.60213 0.15645 0.0
C1504 C 0.82322 0.71434 0.11972 0.0
C1505 C 0.80892 0.71232 0.10714 0.0
C1506 C 0.83435 0.6888 0.12604 0.0
C1507 C 0.83214 0.66074 0.11977 0.0
C1508 C 0.81743 0.65845 0.10727 0.0
C1509 C 0.80537 0.6841 0.10108 0.0
C1510 C 0.89239 0.60319 0.1256 0.0
C1511 C 0.88799 0.59613 0.13927 0.0
C1512 C 0.87252 0.62226 0.11889 0.0
C1513 C 0.84827 0.63507 0.1258 0.0
C1514 C 0.84295 0.6268 0.13927 0.0
C1515 C 0.86247 0.60714 0.1459 0.0
H1516 H 0.64443 0.67974 0.36911 0.0
H1517 H 0.65154 0.60972 0.399 0.0
H1518 H 0.61115 0.64874 0.35583 0.0
H1519 H 0.61842 0.57792 0.3854 0.0
H1520 H 0.52115 0.56024 0.36879 0.0
H1521 H 0.56553 0.57855 0.38034 0.0
H1522 H 0.60353 0.60558 0.34216 0.0
H1523 H 0.55854 0.58817 0.33063 0.0
C1524 C 0.63935 0.65738 0.37272 0.0
C1525 C 0.65036 0.64731 0.38519 0.0
C1526 C 0.62042 0.6394 0.365 0.0
C1527 C 0.61194 0.61076 0.36953 0.0
C1528 C 0.62423 0.6 0.38169 0.0
C1529 C 0.64334 0.6181 0.38944 0.0
C1530 C 0.53921 0.5695 0.3628 0.0
C1531 C 0.536 0.57325 0.34879 0.0
C1532 C 0.56484 0.57987 0.36944 0.0
C1533 C 0.58796 0.59405 0.36223 0.0
C1534 C 0.58583 0.59542 0.34808 0.0
C1535 C 0.56009 0.58527 0.34144 0.0
H1536 H 0.346 0.3928 0.15329 0.0
H1537 H 0.40413 0.40057 0.11866 0.0
H1538 H 0.3153 0.35617 0.14113 0.0
H1539 H 0.37292 0.36451 0.10643 0.0
H1540 H 0.29386 0.3064 0.08788 0.0
H1541 H 0.31271 0.35285 0.09847 0.0
H1542 H 0.34025 0.30207 0.13335 0.0
H1543 H 0.32273 0.25607 0.12271 0.0
C1544 C 0.35162 0.38747 0.14294 0.0
C1545 C 0.37757 0.39932 0.13695 0.0
C1546 C 0.33408 0.36652 0.13601 0.0
C1547 C 0.34179 0.35766 0.12287 0.0
C1548 C 0.36636 0.37126 0.1165 0.0
C1549 C 0.38428 0.39172 0.12353 0.0
C1550 C 0.30363 0.30542 0.09786 0.0
C1551 C 0.307 0.27777 0.10448 0.0
C1552 C 0.31438 0.33183 0.10388 0.0
C1553 C 0.32763 0.33092 0.11675 0.0
C1554 C 0.32979 0.3034 0.12351 0.0
C1555 C 0.31994 0.2771 0.11738 0.0
H1556 H 0.44565 0.51705 0.86278 0.0
H1557 H 0.47179 0.60442 0.84815 0.0
H1558 H 0.39987 0.53895 0.87241 0.0
H1559 H 0.42699 0.62614 0.85782 0.0
H1560 H 0.3401 0.66072 0.86967 0.0
H1561 H 0.37341 0.62895 0.85651 0.0
H1562 H 0.38857 0.57317 0.89146 0.0
H1563 H 0.35412 0.60461 0.90454 0.0
C1564 C 0.44133 0.54074 0.86139 0.0
C1565 C 0.46234 0.55904 0.85477 0.0
C1566 C 0.4153 0.55332 0.86699 0.0
C1567 C 0.40973 0.5843 0.8659 0.0
C1568 C 0.4302 0.60215 0.85871 0.0
C1569 C 0.4561 0.58971 0.85323 0.0
C1570 C 0.35001 0.64125 0.87446 0.0
C1571 C 0.34493 0.63532 0.88816 0.0
C1572 C 0.3692 0.62312 0.86694 0.0
C1573 C 0.38422 0.59892 0.87301 0.0
C1574 C 0.37731 0.59158 0.88646 0.0
C1575 C 0.35766 0.6096 0.89397 0.0
H1576 H 0.18185 0.72989 0.62331 0.0
H1577 H 0.21183 0.67865 0.58895 0.0
H1578 H 0.16526 0.68416 0.63436 0.0
H1579 H 0.19384 0.63233 0.59994 0.0
H1580 H 0.1013 0.58626 0.61881 0.0
H1581 H 0.1353 0.62003 0.60686 0.0
H1582 H 0.18713 0.63144 0.64322 0.0
H1583 H 0.15344 0.59702 0.65515 0.0
C1584 C 0.18521 0.7087 0.61819 0.0
C1585 C 0.19804 0.70772 0.60528 0.0
C1586 C 0.17592 0.68251 0.62457 0.0
C1587 C 0.17853 0.65475 0.61805 0.0
C1588 C 0.19189 0.65352 0.6052 0.0
C1589 C 0.2021 0.67987 0.59894 0.0
C1590 C 0.12056 0.59518 0.62412 0.0
C1591 C 0.12466 0.5893 0.63792 0.0
C1592 C 0.14011 0.61432 0.61726 0.0
C1593 C 0.16372 0.62834 0.62415 0.0
C1594 C 0.1691 0.62076 0.6377 0.0
C1595 C 0.14989 0.60109 0.6445 0.0
H1596 H 0.14861 0.3888 0.39733 0.0
H1597 H 0.13134 0.31083 0.3727 0.0
H1598 H 0.11429 0.41815 0.38324 0.0
H1599 H 0.09682 0.33951 0.35901 0.0
H1600 H 0.01743 0.44055 0.36796 0.0
H1601 H 0.06107 0.42089 0.37961 0.0
H1602 H 0.0905 0.37826 0.3428 0.0
H1603 H 0.04613 0.39711 0.33122 0.0
C1604 C 0.1377 0.37802 0.38887 0.0
C1605 C 0.14258 0.34749 0.38618 0.0
C1606 C 0.11795 0.39475 0.38082 0.0
C1607 C 0.10276 0.38125 0.36994 0.0
C1608 C 0.10847 0.35092 0.3671 0.0
C1609 C 0.12813 0.33433 0.37507 0.0
C1610 C 0.03346 0.42744 0.36225 0.0
C1611 C 0.02797 0.42001 0.34868 0.0
C1612 C 0.05867 0.41629 0.36895 0.0
C1613 C 0.07914 0.39756 0.36223 0.0
C1614 C 0.07483 0.39205 0.34838 0.0
C1615 C 0.04949 0.40305 0.3417 0.0
H1616 H 0.35341 0.61303 0.35065 0.0
H1617 H 0.4087 0.60131 0.38599 0.0
H1618 H 0.32288 0.64985 0.36286 0.0
H1619 H 0.37772 0.63747 0.39824 0.0
H1620 H 0.29939 0.69493 0.41698 0.0
H1621 H 0.31856 0.64937 0.4058 0.0
H1622 H 0.34665 0.7027 0.37178 0.0
H1623 H 0.32868 0.74782 0.38298 0.0
C1624 C 0.35845 0.61765 0.36113 0.0
C1625 C 0.38351 0.60459 0.36736 0.0
C1626 C 0.34104 0.63867 0.36809 0.0
C1627 C 0.348 0.64634 0.38147 0.0
C1628 C 0.37175 0.63168 0.38798 0.0
C1629 C 0.38955 0.61119 0.38094 0.0
C1630 C 0.30944 0.6967 0.40708 0.0
C1631 C 0.31282 0.72482 0.40089 0.0
C1632 C 0.32033 0.67078 0.40071 0.0
C1633 C 0.33376 0.67265 0.3879 0.0
C1634 C 0.33604 0.70064 0.38157 0.0
C1635 C 0.326 0.72645 0.38804 0.0
H1636 H 0.13665 0.66706 0.13353 0.0
H1637 H 0.16546 0.59699 0.10641 0.0
H1638 H 0.10517 0.63211 0.14533 0.0
H1639 H 0.13454 0.56086 0.11883 0.0
H1640 H 0.03902 0.52459 0.1307 0.0
H1641 H 0.0833 0.54902 0.12128 0.0
H1642 H 0.09926 0.59221 0.15969 0.0
H1643 H 0.05362 0.56952 0.16857 0.0
C1644 C 0.13681 0.64388 0.13026 0.0
C1645 C 0.15335 0.63489 0.11892 0.0
C1646 C 0.11888 0.62356 0.13719 0.0
C1647 C 0.11719 0.5934 0.13314 0.0
C1648 C 0.13496 0.58397 0.12216 0.0
C1649 C 0.15284 0.60458 0.11509 0.0
C1650 C 0.05259 0.53872 0.13716 0.0
C1651 C 0.0431 0.54542 0.15028 0.0
C1652 C 0.07805 0.55269 0.1318 0.0
C1653 C 0.09464 0.57324 0.1396 0.0
C1654 C 0.08655 0.57738 0.15321 0.0
C1655 C 0.06065 0.56413 0.1584 0.0
H1656 H 0.23714 0.29986 0.89224 0.0
H1657 H 0.14996 0.27874 0.90865 0.0
H1658 H 0.21713 0.34716 0.88331 0.0
H1659 H 0.13008 0.32504 0.89965 0.0
H1660 H 0.09814 0.41243 0.88801 0.0
H1661 H 0.13008 0.37859 0.90086 0.0
H1662 H 0.18203 0.36042 0.86501 0.0
H1663 H 0.15058 0.39543 0.85229 0.0
C1664 C 0.21393 0.30559 0.89417 0.0
C1665 C 0.19507 0.28553 0.90107 0.0
C1666 C 0.20243 0.33252 0.88898 0.0
C1667 C 0.172 0.33994 0.89075 0.0
C1668 C 0.15371 0.32043 0.89825 0.0
C1669 C 0.16508 0.29364 0.90333 0.0
C1670 C 0.11695 0.40186 0.88299 0.0
C1671 C 0.12174 0.40618 0.86915 0.0
C1672 C 0.13514 0.38234 0.89031 0.0
C1673 C 0.15814 0.3662 0.88389 0.0
C1674 C 0.16457 0.37254 0.87028 0.0
C1675 C 0.14655 0.39254 0.86298 0.0
H1676 H 0.33833 0.34124 0.63789 0.0
H1677 H 0.35219 0.398 0.60323 0.0
H1678 H 0.37241 0.37229 0.65103 0.0
H1679 H 0.38722 0.42876 0.61629 0.0
H1680 H 0.44645 0.48292 0.64503 0.0
H1681 H 0.39986 0.46224 0.63563 0.0
H1682 H 0.42631 0.3739 0.649 0.0
H1683 H 0.47201 0.39437 0.6584 0.0
C1684 C 0.3482 0.36081 0.63317 0.0
C1685 C 0.34293 0.36704 0.61951 0.0
C1686 C 0.36786 0.3785 0.64067 0.0
C1687 C 0.3831 0.40259 0.63463 0.0
C1688 C 0.37581 0.41042 0.62127 0.0
C1689 C 0.35576 0.39281 0.61377 0.0
C1690 C 0.44187 0.45922 0.64618 0.0
C1691 C 0.46294 0.44025 0.6524 0.0
C1692 C 0.41534 0.44735 0.64072 0.0
C1693 C 0.40929 0.41643 0.64157 0.0
C1694 C 0.42989 0.39787 0.64832 0.0
C1695 C 0.45631 0.4096 0.65363 0.0
H1696 H 0.1056 0.95084 0.35096 0.0
H1697 H 0.07179 0.94828 0.39177 0.0
H1698 H 0.14421 0.91476 0.357 0.0
H1699 H 0.10933 0.91103 0.3976 0.0
H1700 H 0.20328 0.87547 0.40723 0.0
H1701 H 0.16236 0.90891 0.40125 0.0
H1702 H 0.15287 0.86352 0.36301 0.0
H1703 H 0.19483 0.8312 0.36866 0.0
C1704 C 0.10625 0.94247 0.36119 0.0
C1705 C 0.08567 0.95276 0.37088 0.0
C1706 C 0.12818 0.92146 0.36462 0.0
C1707 C 0.12996 0.91005 0.37781 0.0
C1708 C 0.10888 0.91969 0.3874 0.0
C1709 C 0.08704 0.94081 0.38399 0.0
C1710 C 0.19267 0.87273 0.3975 0.0
C1711 C 0.20266 0.85072 0.38841 0.0
C1712 C 0.16888 0.89168 0.39414 0.0
C1713 C 0.15433 0.88895 0.38163 0.0
C1714 C 0.16384 0.86651 0.37266 0.0
C1715 C 0.18774 0.84768 0.37599 0.0
H1716 H 0.37688 0.95498 0.65661 0.0
H1717 H 0.41942 0.94661 0.61766 0.0
H1718 H 0.34115 0.91615 0.65039 0.0
H1719 H 0.3846 0.90682 0.61169 0.0
H1720 H 0.2945 0.86452 0.59991 0.0
H1721 H 0.33216 0.90149 0.60614 0.0
H1722 H 0.33721 0.86307 0.64606 0.0
H1723 H 0.29856 0.82706 0.64004 0.0
C1724 C 0.3787 0.94481 0.64674 0.0
C1725 C 0.40094 0.95411 0.63762 0.0
C1726 C 0.35843 0.92226 0.64323 0.0
C1727 C 0.35999 0.90839 0.63053 0.0
C1728 C 0.38255 0.91731 0.62149 0.0
C1729 C 0.40278 0.9399 0.62499 0.0
C1730 C 0.30347 0.86407 0.61004 0.0
C1731 C 0.29328 0.8429 0.61948 0.0
C1732 C 0.32536 0.88504 0.61357 0.0
C1733 C 0.33767 0.88527 0.62661 0.0
C1734 C 0.32791 0.86374 0.63598 0.0
C1735 C 0.30597 0.84282 0.63246 0.0
H1736 H 0.3071 0.14794 0.90521 0.0
H1737 H 0.27611 0.14213 0.86416 0.0
H1738 H 0.34703 0.11214 0.9002 0.0
H1739 H 0.31464 0.10517 0.85919 0.0
H1740 H 0.40069 0.0561 0.8504 0.0
H1741 H 0.36491 0.09597 0.8555 0.0
H1742 H 0.35644 0.06199 0.89619 0.0
H1743 H 0.3934 0.02348 0.89115 0.0
C1744 C 0.30883 0.13877 0.89514 0.0
C1745 C 0.28875 0.14786 0.88506 0.0
C1746 C 0.33154 0.1181 0.89224 0.0
C1747 C 0.33423 0.10552 0.87926 0.0
C1748 C 0.31392 0.11474 0.86921 0.0
C1749 C 0.29166 0.13585 0.87205 0.0
C1750 C 0.39121 0.05747 0.86043 0.0
C1751 C 0.39985 0.03692 0.8704 0.0
C1752 C 0.37054 0.08014 0.86337 0.0
C1753 C 0.3575 0.08234 0.87628 0.0
C1754 C 0.36634 0.06162 0.88623 0.0
C1755 C 0.38745 0.03938 0.88335 0.0
H1756 H 0.22463 0.10579 0.10615 0.0
H1757 H 0.18249 0.17511 0.13013 0.0
H1758 H 0.18489 0.07139 0.11223 0.0
H1759 H 0.14321 0.13998 0.13649 0.0
H1760 H 0.10173 0.05375 0.15644 0.0
H1761 H 0.13971 0.09092 0.15011 0.0
H1762 H 0.12887 0.06654 0.10828 0.0
H1763 H 0.09127 0.02944 0.11459 0.0
C1764 C 0.20696 0.114 0.11261 0.0
C1765 C 0.20715 0.14355 0.11763 0.0
C1766 C 0.18413 0.09407 0.11613 0.0
C1767 C 0.16104 0.10301 0.12485 0.0
C1768 C 0.16098 0.13242 0.12987 0.0
C1769 C 0.18362 0.15252 0.12622 0.0
C1770 C 0.1075 0.05645 0.14591 0.0
C1771 C 0.09351 0.03879 0.13602 0.0
C1772 C 0.129 0.0778 0.14228 0.0
C1773 C 0.13721 0.08153 0.12871 0.0
C1774 C 0.12309 0.06399 0.11882 0.0
C1775 C 0.10136 0.04296 0.12243 0.0
H1776 H 0.90771 0.05591 0.65444 0.0
H1777 H 0.8921 0.019 0.61494 0.0
H1778 H 0.87214 0.09629 0.64971 0.0
H1779 H 0.85532 0.05788 0.61036 0.0
H1780 H 0.80783 0.14354 0.60048 0.0
H1781 H 0.84763 0.10759 0.60532 0.0
H1782 H 0.82186 0.10773 0.64739 0.0
H1783 H 0.7835 0.14508 0.64249 0.0
C1784 C 0.8964 0.05644 0.64479 0.0
C1785 C 0.90272 0.03465 0.63501 0.0
C1786 C 0.87588 0.0794 0.64206 0.0
C1787 C 0.86072 0.08059 0.6296 0.0
C1788 C 0.867 0.05839 0.61992 0.0
C1789 C 0.88796 0.03592 0.62254 0.0
C1790 C 0.81104 0.13594 0.61075 0.0
C1791 C 0.79282 0.14702 0.62112 0.0
C1792 C 0.83364 0.11516 0.61355 0.0
C1793 C 0.83799 0.10435 0.62677 0.0
C1794 C 0.81973 0.1158 0.63715 0.0
C1795 C 0.79761 0.13712 0.63436 0.0
H1796 H 0.71152 0.16012 0.36559 0.0
H1797 H 0.69363 0.14401 0.40773 0.0
H1798 H 0.67286 0.12398 0.35943 0.0
H1799 H 0.65513 0.10741 0.40156 0.0
H1800 H 0.5686 0.06571 0.38443 0.0
H1801 H 0.60462 0.10471 0.39022 0.0
H1802 H 0.66708 0.06837 0.36131 0.0
H1803 H 0.63166 0.02903 0.3557 0.0
C1804 C 0.69911 0.14912 0.37354 0.0
C1805 C 0.70561 0.15496 0.38716 0.0
C1806 C 0.67717 0.12819 0.37001 0.0
C1807 C 0.66103 0.1128 0.38001 0.0
C1808 C 0.66705 0.11908 0.39363 0.0
C1809 C 0.68923 0.13982 0.39717 0.0
C1810 C 0.59004 0.06582 0.37934 0.0
C1811 C 0.59704 0.04392 0.36961 0.0
C1812 C 0.61067 0.08826 0.38267 0.0
C1813 C 0.63868 0.08958 0.37623 0.0
C1814 C 0.64551 0.06816 0.36632 0.0
C1815 C 0.62504 0.04557 0.36308 0.0
H1816 H 0.63617 0.96975 0.15152 0.0
H1817 H 0.5726 0.93351 0.12287 0.0
H1818 H 0.67064 0.92938 0.14634 0.0
H1819 H 0.60785 0.89354 0.11745 0.0
H1820 H 0.6981 0.85465 0.10026 0.0
H1821 H 0.65926 0.89109 0.10624 0.0
H1822 H 0.6746 0.87306 0.14844 0.0
H1823 H 0.71351 0.83696 0.14247 0.0
C1824 C 0.6292 0.95313 0.14425 0.0
C1825 C 0.60139 0.95524 0.13759 0.0
C1826 C 0.64914 0.92994 0.14126 0.0
C1827 C 0.64196 0.90841 0.13146 0.0
C1828 C 0.61409 0.91009 0.12494 0.0
C1829 C 0.59395 0.9331 0.12804 0.0
C1830 C 0.69303 0.85844 0.11079 0.0
C1831 C 0.70884 0.843 0.12089 0.0
C1832 C 0.67069 0.87907 0.11421 0.0
C1833 C 0.66399 0.88491 0.1278 0.0
C1834 C 0.67945 0.86911 0.13789 0.0
C1835 C 0.70153 0.84826 0.13447 0.0
H1836 H 0.80111 0.85636 0.90546 0.0
H1837 H 0.77503 0.84653 0.8638 0.0
H1838 H 0.8391 0.89323 0.89885 0.0
H1839 H 0.81295 0.88316 0.85719 0.0
H1840 H 0.85641 0.97804 0.85519 0.0
H1841 H 0.82049 0.93922 0.86103 0.0
H1842 H 0.88763 0.89441 0.88499 0.0
H1843 H 0.92406 0.93257 0.87888 0.0
C1844 C 0.8036 0.86204 0.8949 0.0
C1845 C 0.78524 0.84852 0.88515 0.0
C1846 C 0.8254 0.88293 0.89111 0.0
C1847 C 0.82892 0.89101 0.87751 0.0
C1848 C 0.8106 0.87745 0.86775 0.0
C1849 C 0.78911 0.85628 0.87152 0.0
C1850 C 0.86388 0.95981 0.86153 0.0
C1851 C 0.89336 0.95885 0.8666 0.0
C1852 C 0.84315 0.93755 0.8649 0.0
C1853 C 0.85125 0.91395 0.87353 0.0
C1854 C 0.88068 0.91263 0.87847 0.0
C1855 C 0.90154 0.93465 0.87497 0.0
H1856 H 0.68758 0.32334 0.87484 0.0
H1857 H 0.72445 0.38831 0.90266 0.0
H1858 H 0.64789 0.35859 0.86898 0.0
H1859 H 0.68445 0.42289 0.89701 0.0
H1860 H 0.59225 0.46593 0.89321 0.0
H1861 H 0.6288 0.42768 0.89934 0.0
H1862 H 0.64419 0.40885 0.85722 0.0
H1863 H 0.60712 0.44698 0.85106 0.0
C1864 C 0.68737 0.34502 0.87972 0.0
C1865 C 0.70953 0.35279 0.88922 0.0
C1866 C 0.66453 0.3652 0.87636 0.0
C1867 C 0.66308 0.39349 0.88253 0.0
C1868 C 0.68477 0.40108 0.89221 0.0
C1869 C 0.70775 0.38108 0.89547 0.0
C1870 C 0.60305 0.45335 0.88525 0.0
C1871 C 0.59676 0.45946 0.87163 0.0
C1872 C 0.62422 0.43164 0.88877 0.0
C1873 C 0.63943 0.41536 0.87876 0.0
C1874 C 0.63266 0.42092 0.86515 0.0
C1875 C 0.61166 0.44288 0.86162 0.0
H1876 H 0.81826 0.32029 0.13099 0.0
H1877 H 0.77022 0.39 0.10965 0.0
H1878 H 0.8577 0.35617 0.13647 0.0
H1879 H 0.80996 0.42513 0.1148 0.0
H1880 H 0.90202 0.46938 0.11366 0.0
H1881 H 0.86473 0.43115 0.10853 0.0
H1882 H 0.86299 0.40485 0.15041 0.0
H1883 H 0.90075 0.44314 0.15555 0.0
C1884 C 0.81592 0.34313 0.12749 0.0
C1885 C 0.79086 0.35199 0.11981 0.0
C1886 C 0.8386 0.36364 0.13062 0.0
C1887 C 0.8369 0.39333 0.12599 0.0
C1888 C 0.81203 0.40222 0.11832 0.0
C1889 C 0.78924 0.3819 0.11532 0.0
C1890 C 0.89405 0.45518 0.12175 0.0
C1891 C 0.90433 0.4592 0.13501 0.0
C1892 C 0.8725 0.4335 0.11883 0.0
C1893 C 0.86092 0.41517 0.12908 0.0
C1894 C 0.87168 0.41861 0.14231 0.0
C1895 C 0.89306 0.44061 0.14526 0.0
H1896 H 0.85296 0.51973 0.36126 0.0
H1897 H 0.9267 0.57929 0.37018 0.0
H1898 H 0.81758 0.55898 0.36728 0.0
H1899 H 0.89114 0.61841 0.37664 0.0
H1900 H 0.81539 0.68952 0.37409 0.0
H1901 H 0.85211 0.6519 0.36705 0.0
H1902 H 0.80205 0.58369 0.38823 0.0
H1903 H 0.76508 0.62089 0.39487 0.0
C1904 C 0.86166 0.54128 0.36437 0.0
C1905 C 0.8927 0.54635 0.36524 0.0
C1906 C 0.84135 0.56367 0.36799 0.0
C1907 C 0.85158 0.59168 0.37256 0.0
C1908 C 0.88259 0.59708 0.37311 0.0
C1909 C 0.90294 0.57461 0.36952 0.0
C1910 C 0.81226 0.66647 0.3772 0.0
C1911 C 0.78734 0.65824 0.38505 0.0
C1912 C 0.83337 0.64499 0.37326 0.0
C1913 C 0.82985 0.61482 0.37703 0.0
C1914 C 0.80517 0.6067 0.38502 0.0
C1915 C 0.78418 0.62814 0.38899 0.0
H1916 H 0.63897 0.51534 0.6464 0.0
H1917 H 0.56813 0.56837 0.62873 0.0
H1918 H 0.67539 0.55345 0.64013 0.0
H1919 H 0.60492 0.60652 0.62219 0.0
H1920 H 0.67989 0.67994 0.62584 0.0
H1921 H 0.64118 0.64405 0.63278 0.0
H1922 H 0.69602 0.57122 0.61812 0.0
H1923 H 0.73462 0.60677 0.61145 0.0
C1924 C 0.63109 0.53533 0.64134 0.0
C1925 C 0.60063 0.5389 0.63809 0.0
C1926 C 0.65203 0.557 0.6376 0.0
C1927 C 0.64301 0.58283 0.63059 0.0
C1928 C 0.61246 0.58686 0.62763 0.0
C1929 C 0.59148 0.56499 0.63128 0.0
C1930 C 0.68355 0.65625 0.62412 0.0
C1931 C 0.7102 0.64619 0.61806 0.0
C1932 C 0.66138 0.63578 0.62799 0.0
C1933 C 0.6657 0.60487 0.62604 0.0
C1934 C 0.69223 0.5949 0.61988 0.0
C1935 C 0.71418 0.61531 0.6159 0.0
H1936 H 0.3036 0.64933 0.10274 0.0
H1937 H 0.2761 0.65649 0.14433 0.0
H1938 H 0.34103 0.6117 0.10908 0.0
H1939 H 0.31352 0.61907 0.15068 0.0
H1940 H 0.35503 0.52291 0.15128 0.0
H1941 H 0.32029 0.56328 0.1461 0.0
H1942 H 0.38894 0.60822 0.1231 0.0
H1943 H 0.42418 0.56845 0.12855 0.0
C1944 C 0.3057 0.64294 0.11323 0.0
C1945 C 0.28703 0.65588 0.12303 0.0
C1946 C 0.32719 0.6216 0.11687 0.0
C1947 C 0.33012 0.61247 0.13037 0.0
C1948 C 0.31161 0.62558 0.14019 0.0
C1949 C 0.29042 0.6472 0.13657 0.0
C1950 C 0.36308 0.5415 0.14531 0.0
C1951 C 0.3926 0.54202 0.14027 0.0
C1952 C 0.34303 0.56466 0.14232 0.0
C1953 C 0.35188 0.58876 0.13412 0.0
C1954 C 0.3814 0.58967 0.12927 0.0
C1955 C 0.40158 0.56672 0.13239 0.0
H1956 H 0.09905 0.55946 0.85057 0.0
H1957 H 0.10411 0.52815 0.89159 0.0
H1958 H 0.13437 0.59964 0.85583 0.0
H1959 H 0.14062 0.56693 0.89682 0.0
H1960 H 0.18934 0.65308 0.90586 0.0
H1961 H 0.14959 0.61727 0.9006 0.0
H1962 H 0.18448 0.60875 0.86006 0.0
H1963 H 0.22282 0.64574 0.86526 0.0
C1964 C 0.10794 0.5612 0.8607 0.0
C1965 C 0.09883 0.54094 0.87069 0.0
C1966 C 0.12833 0.58403 0.86373 0.0
C1967 C 0.14061 0.58665 0.87678 0.0
C1968 C 0.13129 0.56622 0.88675 0.0
C1969 C 0.11044 0.54384 0.88377 0.0
C1970 C 0.18819 0.64357 0.89583 0.0
C1971 C 0.2089 0.6522 0.88595 0.0
C1972 C 0.16559 0.62291 0.8928 0.0
C1973 C 0.16368 0.60989 0.87987 0.0
C1974 C 0.18462 0.61867 0.87002 0.0
C1975 C 0.20676 0.63978 0.87299 0.0
H1976 H 0.21219 0.33477 0.64047 0.0
H1977 H 0.19851 0.35616 0.59848 0.0
H1978 H 0.17336 0.37065 0.64677 0.0
H1979 H 0.15974 0.39242 0.6048 0.0
H1980 H 0.07246 0.43353 0.6215 0.0
H1981 H 0.10792 0.39408 0.61561 0.0
H1982 H 0.16946 0.42703 0.64571 0.0
H1983 H 0.13475 0.46689 0.65139 0.0
C1984 C 0.20062 0.34686 0.63257 0.0
C1985 C 0.20836 0.34265 0.61897 0.0
C1986 C 0.17859 0.36759 0.63619 0.0
C1987 C 0.1636 0.38434 0.62628 0.0
C1988 C 0.17079 0.37964 0.61265 0.0
C1989 C 0.1931 0.35912 0.60904 0.0
C1990 C 0.09357 0.43259 0.62684 0.0
C1991 C 0.10059 0.45378 0.63688 0.0
C1992 C 0.11385 0.40988 0.62346 0.0
C1993 C 0.14144 0.40755 0.63018 0.0
C1994 C 0.14819 0.4281 0.64046 0.0
C1995 C 0.12811 0.45099 0.64374 0.0
H1996 H 0.38384 0.47807 0.39005 0.0
H1997 H 0.39034 0.44556 0.3493 0.0
H1998 H 0.34663 0.43986 0.3952 0.0
H1999 H 0.3547 0.40562 0.35451 0.0
H2000 H 0.27025 0.35324 0.36396 0.0
H2001 H 0.3059 0.39282 0.35855 0.0
H2002 H 0.33857 0.39039 0.39964 0.0
H2003 H 0.3012 0.35236 0.40506 0.0
C2004 C 0.37748 0.46231 0.38226 0.0
C2005 C 0.38985 0.46456 0.36931 0.0
C2006 C 0.35632 0.44018 0.3852 0.0
C2007 C 0.34758 0.41918 0.37534 0.0
C2008 C 0.36024 0.42155 0.36234 0.0
C2009 C 0.38083 0.44426 0.35933 0.0
C2010 C 0.28516 0.36131 0.37177 0.0
C2011 C 0.2831 0.34991 0.38491 0.0
C2012 C 0.3058 0.38388 0.36868 0.0
C2013 C 0.32543 0.39507 0.37861 0.0
C2014 C 0.32351 0.38309 0.39175 0.0
C2015 C 0.3023 0.36109 0.39489 0.0
H2016 H 0.03104 0.06224 0.28362 0.0
H2017 H 0.06468 0.97353 0.29231 0.0
H2018 H 0.03269 0.05128 0.25953 0.0
H2019 H 0.06672 0.96269 0.26815 0.0
H2020 H 0.02899 0.94381 0.22551 0.0
H2021 H 0.03003 0.95509 0.24955 0.0
H2022 H 0.06947 0.04144 0.24104 0.0
H2023 H 0.06807 0.03025 0.21686 0.0
C2024 C 0.03872 0.04035 0.28038 0.0
C2025 C 0.04748 0.01865 0.2899 0.0
C2026 C 0.03998 0.0342 0.26657 0.0
C2027 C 0.0498 0.00611 0.26191 0.0
C2028 C 0.0588 0.98447 0.27141 0.0
C2029 C 0.05783 0.99073 0.28525 0.0
C2030 C 0.0377 0.9653 0.22874 0.0
C2031 C 0.04818 0.98627 0.21925 0.0
C2032 C 0.03861 0.97162 0.24254 0.0
C2033 C 0.04983 0.99915 0.24722 0.0
C2034 C 0.06046 0.02011 0.23775 0.0
C2035 C 0.05984 0.01365 0.22392 0.0
H2036 H 0.27851 0.82128 0.54144 0.0
H2037 H 0.193 0.7819 0.53121 0.0
H2038 H 0.29105 0.82457 0.51757 0.0
H2039 H 0.20609 0.7839 0.50742 0.0
H2040 H 0.22535 0.82101 0.4654 0.0
H2041 H 0.21281 0.8191 0.48931 0.0
H2042 H 0.304 0.79373 0.49857 0.0
H2043 H 0.31686 0.79701 0.47479 0.0
C2044 C 0.2624 0.81325 0.53412 0.0
C2045 C 0.23477 0.80124 0.5383 0.0
C2046 C 0.26973 0.81483 0.52041 0.0
C2047 C 0.24961 0.80447 0.51052 0.0
C2048 C 0.22201 0.79241 0.51472 0.0
C2049 C 0.21468 0.79086 0.52841 0.0
C2050 C 0.2428 0.81531 0.47255 0.0
C2051 C 0.2721 0.80909 0.46811 0.0
C2052 C 0.23553 0.81386 0.48626 0.0
C2053 C 0.25736 0.80617 0.49591 0.0
C2054 C 0.28666 0.80003 0.49147 0.0
C2055 C 0.29394 0.8015 0.47777 0.0
H2056 H 0.45003 0.06661 0.7248 0.0
H2057 H 0.42705 0.97501 0.7152 0.0
H2058 H 0.44941 0.05438 0.74879 0.0
H2059 H 0.42588 0.96291 0.73922 0.0
H2060 H 0.46363 0.94567 0.78175 0.0
H2061 H 0.46224 0.95827 0.75786 0.0
H2062 H 0.41414 0.03977 0.76709 0.0
H2063 H 0.41602 0.02734 0.79113 0.0
C2064 C 0.44492 0.04383 0.72781 0.0
C2065 C 0.4388 0.02173 0.71807 0.0
C2066 C 0.44423 0.03692 0.74157 0.0
C2067 C 0.43763 0.00767 0.74593 0.0
C2068 C 0.43132 0.9856 0.7362 0.0
C2069 C 0.43176 0.99258 0.72244 0.0
C2070 C 0.45296 0.96641 0.77871 0.0
C2071 C 0.44017 0.98565 0.78837 0.0
C2072 C 0.45186 0.97346 0.76499 0.0
C2073 C 0.43807 1e-05 0.76055 0.0
C2074 C 0.42516 0.01925 0.77019 0.0
C2075 C 0.42603 0.01205 0.78394 0.0
H2076 H 0.27519 0.16305 0.96416 0.0
H2077 H 0.19738 0.21722 0.97311 0.0
H2078 H 0.28779 0.16183 0.98814 0.0
H2079 H 0.2101 0.2162 0.99693 0.0
H2080 H 0.25931 0.23479 0.03651 0.0
H2081 H 0.24767 0.23561 0.01248 0.0
H2082 H 0.26966 0.14151 0.00966 0.0
H2083 H 0.28216 0.1409 0.03361 0.0
C2084 C 0.2607 0.17459 0.97122 0.0
C2085 C 0.23542 0.19047 0.96663 0.0
C2086 C 0.26791 0.17388 0.98497 0.0
C2087 C 0.25004 0.18906 0.99448 0.0
C2088 C 0.2247 0.20476 0.98989 0.0
C2089 C 0.21745 0.20539 0.97618 0.0
C2090 C 0.26183 0.21431 0.03075 0.0
C2091 C 0.2716 0.18777 0.03703 0.0
C2092 C 0.2549 0.2147 0.01699 0.0
C2093 C 0.25767 0.1886 0.00912 0.0
C2094 C 0.26752 0.16208 0.01538 0.0
C2095 C 0.27432 0.16165 0.02916 0.0
H2096 H 0.98038 0.95102 0.72244 0.0
H2097 H 0.90893 0.01491 0.71565 0.0
H2098 H 0.97792 0.96095 0.74649 0.0
H2099 H 0.90564 0.0235 0.73994 0.0
H2100 H 0.89018 0.00036 0.7857 0.0
H2101 H 0.89238 0.99136 0.76147 0.0
H2102 H 0.98774 0.00711 0.76193 0.0
H2103 H 0.98563 0.01772 0.78597 0.0
C2104 C 0.96436 0.96747 0.72597 0.0
C2105 C 0.94512 0.98243 0.71692 0.0
C2106 C 0.96283 0.97291 0.73983 0.0
C2107 C 0.94162 0.99298 0.74508 0.0
C2108 C 0.92205 0.00769 0.73616 0.0
C2109 C 0.92392 0.00267 0.72223 0.0
C2110 C 0.91163 0.00233 0.78068 0.0
C2111 C 0.93772 0.00992 0.78796 0.0
C2112 C 0.91283 0.99704 0.76677 0.0
C2113 C 0.9402 0.99862 0.75983 0.0
C2114 C 0.96636 0.00551 0.76706 0.0
C2115 C 0.96511 0.01133 0.78091 0.0
H2116 H 0.68394 0.20676 0.53409 0.0
H2117 H 0.77324 0.17473 0.5428 0.0
H2118 H 0.69548 0.20669 0.51003 0.0
H2119 H 0.78457 0.17407 0.51871 0.0
H2120 H 0.80422 0.21144 0.47638 0.0
H2121 H 0.79223 0.21036 0.50033 0.0
H2122 H 0.70597 0.17132 0.49127 0.0
H2123 H 0.71781 0.17294 0.46717 0.0
C2124 C 0.70609 0.19984 0.53088 0.0
C2125 C 0.72774 0.19095 0.5404 0.0
C2126 C 0.71257 0.19944 0.51707 0.0
C2127 C 0.74094 0.19037 0.51242 0.0
C2128 C 0.76258 0.18145 0.52194 0.0
C2129 C 0.75602 0.18161 0.53575 0.0
C2130 C 0.78258 0.20283 0.47947 0.0
C2131 C 0.76185 0.19252 0.46983 0.0
C2132 C 0.77585 0.2019 0.49323 0.0
C2133 C 0.74814 0.19076 0.49774 0.0
C2134 C 0.72741 0.1803 0.48813 0.0
C2135 C 0.73427 0.181 0.47433 0.0
H2136 H 0.53935 0.06292 0.22359 0.0
H2137 H 0.57443 0.97456 0.21542 0.0
H2138 H 0.53964 0.05206 0.24775 0.0
H2139 H 0.57477 0.96369 0.23962 0.0
H2140 H 0.53413 0.94566 0.28203 0.0
H2141 H 0.53579 0.95674 0.25794 0.0
H2142 H 0.57751 0.042 0.26643 0.0
H2143 H 0.57582 0.03088 0.29063 0.0
C2144 C 0.54697 0.04111 0.22696 0.0
C2145 C 0.55667 0.01951 0.2176 0.0
C2146 C 0.54743 0.03502 0.2408 0.0
C2147 C 0.55723 0.00703 0.24559 0.0
C2148 C 0.56691 0.98539 0.23623 0.0
C2149 C 0.56686 0.99165 0.22239 0.0
C2150 C 0.54353 0.96684 0.27876 0.0
C2151 C 0.55465 0.98752 0.28823 0.0
C2152 C 0.54474 0.97305 0.26496 0.0
C2153 C 0.55677 0.00023 0.26028 0.0
C2154 C 0.56792 0.02094 0.26974 0.0
C2155 C 0.56711 0.01453 0.28357 0.0
H2156 H 0.81067 0.782 0.0327 0.0
H2157 H 0.72605 0.82529 0.04115 0.0
H2158 H 0.79953 0.78327 0.0087 0.0
H2159 H 0.71512 0.82688 0.01703 0.0
H2160 H 0.7201 0.8513 0.97205 0.0
H2161 H 0.73241 0.85109 0.99604 0.0
H2162 H 0.76512 0.76029 0.99246 0.0
H2163 H 0.7535 0.76077 0.96843 0.0
C2164 C 0.7895 0.79147 0.02948 0.0
C2165 C 0.76914 0.80329 0.03894 0.0
C2166 C 0.78318 0.79229 0.01568 0.0
C2167 C 0.75641 0.80511 0.01092 0.0
C2168 C 0.73612 0.81717 0.02034 0.0
C2169 C 0.74239 0.81623 0.03417 0.0
C2170 C 0.73033 0.83145 0.97634 0.0
C2171 C 0.7359 0.80608 0.9683 0.0
C2172 C 0.73703 0.8312 0.99013 0.0
C2173 C 0.74965 0.80564 0.9962 0.0
C2174 C 0.75564 0.78044 0.98811 0.0
C2175 C 0.74877 0.78063 0.97434 0.0
H2176 H 0.57743 0.47276 0.7915 0.0
H2177 H 0.53254 0.55638 0.78277 0.0
H2178 H 0.57783 0.46074 0.76746 0.0
H2179 H 0.53281 0.54433 0.75887 0.0
H2180 H 0.50993 0.49863 0.71889 0.0
H2181 H 0.50981 0.50987 0.74296 0.0
H2182 H 0.60053 0.47676 0.7462 0.0
H2183 H 0.6003 0.46462 0.72223 0.0
C2184 C 0.56778 0.48864 0.78447 0.0
C2185 C 0.5547 0.5154 0.78913 0.0
C2186 C 0.56802 0.48177 0.77068 0.0
C2187 C 0.5552 0.5015 0.76122 0.0
C2188 C 0.54234 0.52833 0.76588 0.0
C2189 C 0.54215 0.53521 0.77963 0.0
C2190 C 0.5298 0.49361 0.72475 0.0
C2191 C 0.55515 0.48081 0.71859 0.0
C2192 C 0.52984 0.5003 0.73853 0.0
C2193 C 0.55518 0.49426 0.74654 0.0
C2194 C 0.58053 0.48145 0.74038 0.0
C2195 C 0.58053 0.47486 0.72659 0.0
H2196 H 0.77368 0.32212 0.04284 0.0
H2197 H 0.68509 0.29035 0.03266 0.0
H2198 H 0.78685 0.3232 0.01893 0.0
H2199 H 0.69841 0.29098 0.00878 0.0
H2200 H 0.72374 0.32823 0.96676 0.0
H2201 H 0.71028 0.32796 0.99068 0.0
H2202 H 0.79548 0.28719 1.00026 0.0
H2203 H 0.80907 0.28789 0.97645 0.0
C2204 C 0.75702 0.31538 0.0355 0.0
C2205 C 0.72838 0.30605 0.03967 0.0
C2206 C 0.76463 0.31579 0.02181 0.0
C2207 C 0.74367 0.30716 0.01194 0.0
C2208 C 0.71498 0.29799 0.01611 0.0
C2209 C 0.70747 0.29731 0.0298 0.0
C2210 C 0.73961 0.31933 0.97399 0.0
C2211 C 0.7674 0.30795 0.96969 0.0
C2212 C 0.73182 0.31896 0.98768 0.0
C2213 C 0.75181 0.30752 0.99738 0.0
C2214 C 0.77967 0.29636 0.99307 0.0
C2215 C 0.78732 0.29647 0.9794 0.0
H2216 H 0.89117 0.49432 0.28548 0.0
H2217 H 0.98623 0.47508 0.28714 0.0
H2218 H 0.89503 0.50196 0.26121 0.0
H2219 H 0.99002 0.48457 0.26302 0.0
H2220 H 0.98334 0.54171 0.2231 0.0
H2221 H 0.98043 0.5318 0.24715 0.0
H2222 H 0.91034 0.46708 0.24022 0.0
H2223 H 0.91427 0.47543 0.21595 0.0
C2224 C 0.91288 0.4916 0.28076 0.0
C2225 C 0.93836 0.48388 0.28843 0.0
C2226 C 0.91503 0.49614 0.26684 0.0
C2227 C 0.94278 0.49373 0.26027 0.0
C2228 C 0.96837 0.48673 0.26787 0.0
C2229 C 0.96616 0.48158 0.28175 0.0
C2230 C 0.9678 0.52473 0.22654 0.0
C2231 C 0.94922 0.50922 0.21739 0.0
C2232 C 0.96599 0.51932 0.24039 0.0
C2233 C 0.94512 0.49877 0.24552 0.0
C2234 C 0.92644 0.48328 0.23651 0.0
C2235 C 0.92865 0.48821 0.2226 0.0
H2236 H 0.81471 0.70429 0.53039 0.0
H2237 H 0.72539 0.6736 0.53989 0.0
H2238 H 0.80195 0.70502 0.50644 0.0
H2239 H 0.71266 0.67409 0.51587 0.0
H2240 H 0.69306 0.7168 0.47408 0.0
H2241 H 0.70581 0.71332 0.49795 0.0
H2242 H 0.78888 0.66915 0.4877 0.0
H2243 H 0.77617 0.67284 0.46372 0.0
C2244 C 0.79231 0.69779 0.52735 0.0
C2245 C 0.77097 0.6891 0.53703 0.0
C2246 C 0.78511 0.6979 0.51363 0.0
C2247 C 0.75631 0.68963 0.50927 0.0
C2248 C 0.73499 0.6808 0.51894 0.0
C2249 C 0.74231 0.68034 0.53267 0.0
C2250 C 0.71412 0.70647 0.47691 0.0
C2251 C 0.73374 0.69531 0.46701 0.0
C2252 C 0.72126 0.7042 0.49059 0.0
C2253 C 0.74834 0.69098 0.49471 0.0
C2254 C 0.76794 0.67967 0.48483 0.0
C2255 C 0.76061 0.6816 0.47112 0.0
H2256 H 0.48398 0.52101 0.28632 0.0
H2257 H 0.39333 0.48752 0.28916 0.0
H2258 H 0.48401 0.51078 0.26218 0.0
H2259 H 0.39286 0.47861 0.26497 0.0
H2260 H 0.41091 0.43988 0.2234 0.0
H2261 H 0.41303 0.44741 0.24765 0.0
H2262 H 0.46226 0.52974 0.24161 0.0
H2263 H 0.46036 0.52198 0.21724 0.0
C2264 C 0.46415 0.51117 0.28184 0.0
C2265 C 0.43864 0.50511 0.28974 0.0
C2266 C 0.464 0.50574 0.26794 0.0
C2267 C 0.43836 0.49408 0.26155 0.0
C2268 C 0.41312 0.48738 0.26951 0.0
C2269 C 0.41327 0.49277 0.28341 0.0
C2270 C 0.42192 0.45979 0.22722 0.0
C2271 C 0.43522 0.48047 0.21833 0.0
C2272 C 0.42317 0.46409 0.24116 0.0
C2273 C 0.43772 0.48925 0.24665 0.0
C2274 C 0.45122 0.50988 0.23777 0.0
C2275 C 0.45006 0.5055 0.22379 0.0
H2276 H 0.22074 0.6736 0.96637 0.0
H2277 H 0.30721 0.71331 0.97431 0.0
H2278 H 0.21053 0.67213 0.99065 0.0
H2279 H 0.29702 0.71192 0.99848 0.0
H2280 H 0.27917 0.67658 0.04148 0.0
H2281 H 0.28952 0.67418 0.01723 0.0
H2282 H 0.20181 0.71075 0.00894 0.0
H2283 H 0.19147 0.71305 0.03308 0.0
C2284 C 0.23757 0.68188 0.9733 0.0
C2285 C 0.26463 0.69383 0.96844 0.0
C2286 C 0.2317 0.68118 0.98718 0.0
C2287 C 0.25298 0.69195 0.99647 0.0
C2288 C 0.28028 0.70328 0.99159 0.0
C2289 C 0.28596 0.70435 0.97774 0.0
C2290 C 0.26211 0.68398 0.03446 0.0
C2291 C 0.23464 0.69527 0.03919 0.0
C2292 C 0.26806 0.68275 0.0206 0.0
C2293 C 0.24646 0.69229 0.01118 0.0
C2294 C 0.2188 0.70303 0.01593 0.0
C2295 C 0.21303 0.70465 0.02976 0.0
H2296 H 0.0805 0.47301 0.7163 0.0
H2297 H 0.0325 0.55557 0.72358 0.0
H2298 H 0.08123 0.46299 0.74051 0.0
H2299 H 0.03319 0.54555 0.74768 0.0
H2300 H 0.01194 0.502 0.78841 0.0
H2301 H 0.01172 0.51213 0.76427 0.0
H2302 H 0.10322 0.481 0.76145 0.0
H2303 H 0.10307 0.46984 0.78552 0.0
C2304 C 0.07022 0.48909 0.72305 0.0
C2305 C 0.05622 0.51497 0.71794 0.0
C2306 C 0.07068 0.48338 0.73694 0.0
C2307 C 0.0572 0.50343 0.74608 0.0
C2308 C 0.04332 0.52934 0.74095 0.0
C2309 C 0.04286 0.53504 0.72709 0.0
C2310 C 0.03199 0.49722 0.78264 0.0
C2311 C 0.05752 0.48511 0.78895 0.0
C2312 C 0.03196 0.50328 0.7688 0.0
C2313 C 0.05745 0.49736 0.76087 0.0
C2314 C 0.08308 0.48552 0.7672 0.0
C2315 C 0.08313 0.47952 0.78105 0.0
H2316 H 0.20981 0.34161 0.47108 0.0
H2317 H 0.28205 0.2786 0.46454 0.0
H2318 H 0.22159 0.34296 0.49487 0.0
H2319 H 0.29194 0.27776 0.48856 0.0
H2320 H 0.32091 0.29981 0.53106 0.0
H2321 H 0.31159 0.30259 0.50692 0.0
H2322 H 0.21717 0.31646 0.51476 0.0
H2323 H 0.22713 0.31532 0.53894 0.0
C2324 C 0.22836 0.32812 0.47463 0.0
C2325 C 0.24495 0.31004 0.46568 0.0
C2326 C 0.23474 0.32842 0.48844 0.0
C2327 C 0.25758 0.31025 0.49384 0.0
C2328 C 0.2744 0.2924 0.48488 0.0
C2329 C 0.26836 0.2925 0.47102 0.0
C2330 C 0.29818 0.30346 0.52757 0.0
C2331 C 0.27471 0.30724 0.53686 0.0
C2332 C 0.29274 0.30489 0.5137 0.0
C2333 C 0.26354 0.3096 0.50871 0.0
C2334 C 0.24006 0.31337 0.5181 0.0
C2335 C 0.24565 0.31251 0.53199 0.0
H2336 H 0.98113 0.16001 0.35031 0.0
H2337 H 0.06137 0.19872 0.3332 0.0
H2338 H 0.95952 0.20985 0.35258 0.0
H2339 H 0.03919 0.2484 0.33489 0.0
H2340 H -0.00021 0.33695 0.34818 0.0
H2341 H 0.0226 0.28736 0.35045 0.0
H2342 H 0.93998 0.24655 0.33698 0.0
H2343 H 0.91702 0.29578 0.33524 0.0
C2344 C 0.99427 0.17912 0.34712 0.0
C2345 C 0.02291 0.17528 0.34146 0.0
C2346 C 0.98176 0.20768 0.34831 0.0
C2347 C 0.99756 0.23307 0.34384 0.0
C2348 C 0.02653 0.22934 0.33854 0.0
C2349 C 0.03907 0.20078 0.33738 0.0
C2350 C 0.98639 0.31732 0.34596 0.0
C2351 C 0.9567 0.32026 0.34142 0.0
C2352 C -0.00048 0.28897 0.34713 0.0
C2353 C 0.98314 0.26304 0.34382 0.0
C2354 C 0.95314 0.26602 0.33973 0.0
C2355 C 0.94009 0.29428 0.33855 0.0
H2356 H 0.95175 0.67429 0.57042 0.0
H2357 H 0.91922 0.74205 0.59807 0.0
H2358 H 0.00092 0.6976 0.57072 0.0
H2359 H 0.96886 0.76441 0.59864 0.0
H2360 H 0.07221 0.77301 0.60588 0.0
H2361 H 0.02291 0.74872 0.60627 0.0
H2362 H 0.02097 0.74946 0.56276 0.0
H2363 H 0.0701 0.7738 0.56239 0.0
C2364 C 0.95482 0.69408 0.57655 0.0
C2365 C 0.93108 0.70621 0.58416 0.0
C2366 C 0.98314 0.70734 0.57674 0.0
C2367 C 0.98855 0.73275 0.58469 0.0
C2368 C 0.96524 0.74462 0.59252 0.0
C2369 C 0.93676 0.73166 0.59219 0.0
C2370 C 0.06123 0.76782 0.59643 0.0
C2371 C 0.07482 0.77525 0.58411 0.0
C2372 C 0.03305 0.75416 0.59665 0.0
C2373 C 0.01831 0.74725 0.58454 0.0
C2374 C 0.03203 0.75442 0.57222 0.0
C2375 C 0.05994 0.76851 0.57201 0.0
H2376 H 0.47217 0.8179 0.80999 0.0
H2377 H 0.46962 0.81956 0.85347 0.0
H2378 H 0.49473 0.76792 0.81064 0.0
H2379 H 0.49223 0.76956 0.85413 0.0
H2380 H 0.4989 0.6663 0.84702 0.0
H2381 H 0.47685 0.71616 0.84681 0.0
H2382 H 0.54473 0.74593 0.8189 0.0
H2383 H 0.56761 0.69656 0.81936 0.0
C2384 C 0.47633 0.80749 0.81967 0.0
C2385 C 0.46921 0.82256 0.83167 0.0
C2386 C 0.48942 0.77905 0.82004 0.0
C2387 C 0.49521 0.76496 0.83244 0.0
C2388 C 0.48784 0.77989 0.84445 0.0
C2389 C 0.47516 0.80854 0.84407 0.0
C2390 C 0.50953 0.68339 0.84096 0.0
C2391 C 0.53521 0.67702 0.83319 0.0
C2392 C 0.49674 0.71201 0.84083 0.0
C2393 C 0.50905 0.7348 0.8328 0.0
C2394 C 0.53459 0.72861 0.82505 0.0
C2395 C 0.54764 0.70016 0.8253 0.0
H2396 H 0.42578 0.22074 0.10644 0.0
H2397 H 0.4409 0.19716 0.06475 0.0
H2398 H 0.47417 0.24609 0.10707 0.0
H2399 H 0.48971 0.22129 0.06555 0.0
H2400 H 0.55791 0.29641 0.06674 0.0
H2401 H 0.50966 0.27138 0.06675 0.0
H2402 H 0.52783 0.23609 0.10648 0.0
H2403 H 0.57565 0.26246 0.10678 0.0
C2404 C 0.4394 0.22094 0.09741 0.0
C2405 C 0.42939 0.20702 0.08552 0.0
C2406 C 0.4673 0.23515 0.09783 0.0
C2407 C 0.48574 0.23577 0.08635 0.0
C2408 C 0.47586 0.22155 0.07451 0.0
C2409 C 0.44801 0.20739 0.0741 0.0
C2410 C 0.55158 0.28367 0.07557 0.0
C2411 C 0.57076 0.28158 0.08677 0.0
C2412 C 0.52402 0.26895 0.07549 0.0
C2413 C 0.51498 0.2516 0.08658 0.0
C2414 C 0.53406 0.24949 0.09782 0.0
C2415 C 0.56165 0.26433 0.09792 0.0
H2416 H 0.99178 0.67188 0.19512 0.0
H2417 H 0.96309 0.67977 0.15382 0.0
H2418 H 0.00969 0.72343 0.19473 0.0
H2419 H 0.97911 0.73215 0.15349 0.0
H2420 H 0.03478 0.81822 0.15369 0.0
H2421 H 0.01861 0.76588 0.15317 0.0
H2422 H 0.99342 0.77224 0.19522 0.0
H2423 H 0.01148 0.82372 0.19574 0.0
C2424 C 0.98914 0.68493 0.18599 0.0
C2425 C 0.97612 0.67208 0.17452 0.0
C2426 C 0.99911 0.71457 0.18576 0.0
C2427 C 0.99554 0.73236 0.17413 0.0
C2428 C 0.98269 0.7192 0.16258 0.0
C2429 C 0.97338 0.68925 0.16274 0.0
C2430 C 0.02563 0.80823 0.16274 0.0
C2431 C 0.02446 0.8247 0.17477 0.0
C2432 C 0.01624 0.7783 0.16248 0.0
C2433 C 0.00489 0.76448 0.17419 0.0
C2434 C 0.00285 0.7816 0.18609 0.0
C2435 C 0.0129 0.81121 0.18641 0.0
H2436 H 0.57769 0.74888 0.40169 0.0
H2437 H 0.5614 0.72096 0.44276 0.0
H2438 H 0.52903 0.77347 0.40117 0.0
H2439 H 0.51217 0.74429 0.442 0.0
H2440 H 0.43992 0.8158 0.44109 0.0
H2441 H 0.48956 0.79339 0.44139 0.0
H2442 H 0.47615 0.7609 0.40081 0.0
H2443 H 0.42695 0.78457 0.40027 0.0
C2444 C 0.56384 0.74803 0.41062 0.0
C2445 C 0.57357 0.73295 0.42228 0.0
C2446 C 0.53574 0.76181 0.41026 0.0
C2447 C 0.5167 0.76079 0.42153 0.0
C2448 C 0.52644 0.74578 0.43319 0.0
C2449 C 0.55455 0.73207 0.43357 0.0
C2450 C 0.44765 0.80426 0.43216 0.0
C2451 C 0.4294 0.80206 0.42065 0.0
C2452 C 0.476 0.79106 0.4324 0.0
C2453 C 0.48677 0.77526 0.42115 0.0
C2454 C 0.46862 0.77316 0.4096 0.0
C2455 C 0.44025 0.78642 0.40935 0.0
H2456 H 0.46964 0.17809 0.64868 0.0
H2457 H 0.4589 0.18299 0.69185 0.0
H2458 H 0.49481 0.22696 0.64884 0.0
H2459 H 0.48396 0.23169 0.69204 0.0
H2460 H 0.5608 0.29961 0.68761 0.0
H2461 H 0.53705 0.25082 0.68669 0.0
H2462 H 0.47911 0.28148 0.65473 0.0
H2463 H 0.50204 0.3307 0.65573 0.0
C2464 C 0.47282 0.18959 0.65818 0.0
C2465 C 0.46232 0.17691 0.67025 0.0
C2466 C 0.48698 0.21754 0.65827 0.0
C2467 C 0.49131 0.23295 0.67046 0.0
C2468 C 0.48106 0.22012 0.68253 0.0
C2469 C 0.46652 0.19245 0.68241 0.0
C2470 C 0.54294 0.29638 0.68041 0.0
C2471 C 0.53348 0.31968 0.6718 0.0
C2472 C 0.52937 0.26822 0.67989 0.0
C2473 C 0.50629 0.26249 0.67066 0.0
C2474 C 0.4971 0.28532 0.66187 0.0
C2475 C 0.51037 0.31363 0.66248 0.0
H2476 H 0.05268 0.18718 0.93722 0.0
H2477 H 0.08454 0.25282 0.90842 0.0
H2478 H 0.00406 0.21152 0.93744 0.0
H2479 H 0.03536 0.27635 0.90842 0.0
H2480 H 0.93161 0.28599 0.90225 0.0
H2481 H 0.98107 0.26212 0.90159 0.0
H2482 H 0.98415 0.26283 0.94509 0.0
H2483 H 0.9348 0.28661 0.94573 0.0
C2484 C 0.04962 0.20678 0.93097 0.0
C2485 C 0.07301 0.21792 0.92285 0.0
C2486 C 0.02157 0.22067 0.93109 0.0
C2487 C 0.01602 0.2458 0.92297 0.0
C2488 C 0.03902 0.2568 0.9147 0.0
C2489 C 0.06726 0.24317 0.9147 0.0
C2490 C 0.94287 0.28093 0.91164 0.0
C2491 C 0.92942 0.28812 0.92404 0.0
C2492 C 0.97119 0.26752 0.91127 0.0
C2493 C 0.98633 0.26063 0.92329 0.0
C2494 C 0.97285 0.26774 0.93568 0.0
C2495 C 0.94476 0.28154 0.93604 0.0
H2496 H 0.94542 0.80183 0.68779 0.0
H2497 H 0.01133 0.83136 0.65865 0.0
H2498 H 0.96668 0.75185 0.68723 0.0
H2499 H 0.03186 0.78075 0.65786 0.0
H2500 H 0.03583 0.6767 0.65097 0.0
H2501 H 0.01458 0.72741 0.65078 0.0
H2502 H 0.01678 0.72898 0.69428 0.0
H2503 H 0.03785 0.67846 0.69446 0.0
C2504 C 0.96449 0.79794 0.68131 0.0
C2505 C 0.97667 0.82107 0.67334 0.0
C2506 C 0.97658 0.76912 0.68097 0.0
C2507 C 0.00092 0.7625 0.67253 0.0
C2508 C 0.01289 0.78525 0.66437 0.0
C2509 C 0.00103 0.81427 0.66483 0.0
C2510 C 0.03159 0.68789 0.66046 0.0
C2511 C 0.03846 0.67371 0.67273 0.0
C2512 C 0.01971 0.71692 0.66035 0.0
C2513 C 0.01406 0.73203 0.67252 0.0
C2514 C 0.02076 0.71775 0.68476 0.0
C2515 C 0.033 0.68896 0.68487 0.0
H2516 H 0.06501 0.28478 0.40513 0.0
H2517 H 0.07908 0.24007 0.4431 0.0
H2518 H 0.0131 0.26709 0.40474 0.0
H2519 H 0.02802 0.22092 0.44252 0.0
H2520 H 0.92777 0.21871 0.44621 0.0
H2521 H 0.97913 0.23698 0.44563 0.0
H2522 H 0.98024 0.22646 0.40226 0.0
H2523 H 0.92811 0.20963 0.40296 0.0
C2524 C 0.05701 0.2707 0.41326 0.0
C2525 C 0.07573 0.26398 0.42421 0.0
C2526 C 0.02735 0.26045 0.41305 0.0
C2527 C 0.01608 0.24282 0.42369 0.0
C2528 C 0.03546 0.23519 0.43436 0.0
C2529 C 0.0648 0.24593 0.43468 0.0
C2530 C 0.9391 0.22037 0.43658 0.0
C2531 C 0.92415 0.21272 0.42465 0.0
C2532 C 0.96862 0.23063 0.43622 0.0
C2533 C 0.98417 0.23288 0.42391 0.0
C2534 C 0.96898 0.22541 0.41192 0.0
C2535 C 0.93917 0.21568 0.41229 0.0
H2536 H 0.47277 0.3161 0.19171 0.0
H2537 H 0.46599 0.31857 0.14835 0.0
H2538 H 0.49861 0.26798 0.19043 0.0
H2539 H 0.49192 0.27001 0.14702 0.0
H2540 H 0.50145 0.16539 0.15608 0.0
H2541 H 0.47923 0.21526 0.15511 0.0
H2542 H 0.54906 0.24908 0.18106 0.0
H2543 H 0.57203 0.19972 0.18173 0.0
C2544 C 0.47676 0.30623 0.18191 0.0
C2545 C 0.46729 0.32089 0.17013 0.0
C2546 C 0.49176 0.27887 0.18116 0.0
C2547 C 0.49727 0.26538 0.16863 0.0
C2548 C 0.48783 0.27997 0.1568 0.0
C2549 C 0.47321 0.30771 0.15755 0.0
C2550 C 0.5125 0.18344 0.16139 0.0
C2551 C 0.53849 0.1782 0.16912 0.0
C2552 C 0.49968 0.21204 0.16082 0.0
C2553 C 0.51236 0.23587 0.16808 0.0
C2554 C 0.53865 0.23093 0.17551 0.0
C2555 C 0.55168 0.20251 0.17595 0.0
H2556 H 0.57982 0.75098 0.91047 0.0
H2557 H 0.55082 0.81893 0.93879 0.0
H2558 H 0.52928 0.73063 0.91003 0.0
H2559 H 0.5007 0.79773 0.93858 0.0
H2560 H 0.42724 0.72574 0.94641 0.0
H2561 H 0.47734 0.74796 0.94616 0.0
H2562 H 0.47641 0.74769 0.90264 0.0
H2563 H 0.42623 0.72539 0.90291 0.0
C2564 C 0.56286 0.76182 0.91654 0.0
C2565 C 0.56979 0.78675 0.92469 0.0
C2566 C 0.53384 0.75002 0.91628 0.0
C2567 C 0.51117 0.76259 0.92429 0.0
C2568 C 0.5179 0.78742 0.93242 0.0
C2569 C 0.54678 0.79949 0.93255 0.0
C2570 C 0.4378 0.73039 0.93681 0.0
C2571 C 0.42292 0.72385 0.92469 0.0
C2572 C 0.46631 0.74328 0.93666 0.0
C2573 C 0.48068 0.7495 0.92438 0.0
C2574 C 0.46585 0.74294 0.91224 0.0
C2575 C 0.43711 0.73045 0.9124 0.0
H2576 H 0.97096 0.179 0.85604 0.0
H2577 H 0.97894 0.18071 0.81271 0.0
H2578 H 0.99574 0.22813 0.85731 0.0
H2579 H 0.00358 0.22946 0.81393 0.0
H2580 H 0.07354 0.30123 0.82253 0.0
H2581 H 0.05251 0.251 0.82314 0.0
H2582 H 0.98164 0.28187 0.84927 0.0
H2583 H 0.00196 0.33252 0.8484 0.0
C2584 C 0.97827 0.18979 0.84683 0.0
C2585 C 0.97293 0.17626 0.83427 0.0
C2586 C 0.99221 0.21787 0.84754 0.0
C2587 C 0.00154 0.23251 0.83571 0.0
C2588 C 0.99681 0.21857 0.82321 0.0
C2589 C 0.9825 0.19084 0.82249 0.0
C2590 C 0.05336 0.29759 0.82834 0.0
C2591 C 0.03937 0.32128 0.83529 0.0
C2592 C 0.04144 0.26867 0.82874 0.0
C2593 C 0.01545 0.26262 0.83622 0.0
C2594 C 0.00191 0.28591 0.84353 0.0
C2595 C 0.01362 0.31497 0.84301 0.0
H2596 H 0.57498 0.22733 0.60733 0.0
H2597 H 0.56151 0.19837 0.5662 0.0
H2598 H 0.52693 0.25324 0.60679 0.0
H2599 H 0.51295 0.22304 0.56589 0.0
H2600 H 0.4427 0.2965 0.56483 0.0
H2601 H 0.49177 0.27283 0.56567 0.0
H2602 H 0.47373 0.24241 0.60622 0.0
H2603 H 0.42523 0.2673 0.60562 0.0
C2604 C 0.56184 0.22649 0.59817 0.0
C2605 C 0.5722 0.21076 0.5868 0.0
C2606 C 0.53412 0.24106 0.59792 0.0
C2607 C 0.51611 0.24022 0.5863 0.0
C2608 C 0.52643 0.22445 0.57495 0.0
C2609 C 0.55415 0.20994 0.57519 0.0
C2610 C 0.4493 0.28513 0.57399 0.0
C2611 C 0.42991 0.28382 0.58514 0.0
C2612 C 0.47732 0.27122 0.57441 0.0
C2613 C 0.48661 0.2556 0.58599 0.0
C2614 C 0.46737 0.25448 0.59719 0.0
C2615 C 0.43936 0.26845 0.59677 0.0
H2616 H 0.53 0.82252 0.35473 0.0
H2617 H 0.51924 0.82407 0.31157 0.0
H2618 H 0.51189 0.77075 0.35532 0.0
H2619 H 0.49985 0.77313 0.31206 0.0
H2620 H 0.49729 0.67325 0.31395 0.0
H2621 H 0.51659 0.72418 0.31488 0.0
H2622 H 0.47061 0.73798 0.35278 0.0
H2623 H 0.45259 0.68611 0.35201 0.0
C2624 C 0.52327 0.81185 0.34541 0.0
C2625 C 0.52623 0.82705 0.33309 0.0
C2626 C 0.51283 0.78225 0.34572 0.0
C2627 C 0.50474 0.76746 0.33371 0.0
C2628 C 0.50672 0.78331 0.32147 0.0
C2629 C 0.51763 0.8126 0.32116 0.0
C2630 C 0.49147 0.68723 0.32248 0.0
C2631 C 0.47331 0.676 0.33285 0.0
C2632 C 0.5023 0.71651 0.323 0.0
C2633 C 0.49471 0.73557 0.33378 0.0
C2634 C 0.47712 0.72398 0.34437 0.0
C2635 C 0.46671 0.69435 0.34394 0.0
H2636 H 0.92563 0.771 0.06238 0.0
H2637 H 0.93627 0.79139 0.10453 0.0
H2638 H 0.97487 0.74735 0.06203 0.0
H2639 H 0.98658 0.76989 0.10418 0.0
H2640 H 0.06555 0.70655 0.10293 0.0
H2641 H 0.01486 0.72704 0.10341 0.0
H2642 H 0.02533 0.75614 0.06202 0.0
H2643 H 0.07503 0.7335 0.06148 0.0
C2644 C 0.9389 0.77068 0.07153 0.0
C2645 C 0.92746 0.78288 0.08347 0.0
C2646 C 0.96721 0.75738 0.07135 0.0
C2647 C 0.98508 0.75678 0.08306 0.0
C2648 C 0.97343 0.76927 0.09502 0.0
C2649 C 0.94474 0.78181 0.09525 0.0
C2650 C 0.05671 0.71727 0.09398 0.0
C2651 C 0.07384 0.71845 0.08216 0.0
C2652 C 0.02779 0.72925 0.09423 0.0
C2653 C 0.01573 0.74343 0.08275 0.0
C2654 C 0.03333 0.74482 0.07097 0.0
C2655 C 0.0619 0.73208 0.07063 0.0
loop_
_geom_bond_atom_site_label_1
_geom_bond_atom_site_label_2
_geom_bond_distance
_geom_bond_site_symmetry_2
_ccdc_geom_bond_type
Co0 N4 2.148 . S
Co0 N10 2.128 . S
Co0 N20 2.194 . S
Co0 O25 2.351 . S
Co0 O26 2.155 . S
Co0 O27 2.096 . S
C1 N4 1.301 . S
C1 N5 1.328 1_545 S
C1 H6 0.930 . S
C2 C3 1.333 1_545 S
C2 N4 1.317 . S
C2 H7 0.930 . S
C3 C2 1.333 1_565 S
C3 N5 1.350 . S
C3 H29 0.931 . S
N4 Co0 2.148 . S
N4 C1 1.301 . S
N4 C2 1.317 . S
N5 C1 1.328 1_565 S
N5 C3 1.350 . S
H6 C1 0.930 . S
H7 C2 0.930 . S
C8 O9 1.224 . S
C8 O27 1.247 1_655 S
O9 C8 1.224 . S
N10 Co0 2.128 . S
N10 C11 1.355 . S
N10 C13 1.311 . S
C11 N10 1.355 . S
C11 C12 1.363 . S
C11 H23 0.929 . S
C12 C11 1.363 . S
C12 N14 1.375 . S
C12 H30 0.931 . S
C13 N10 1.311 . S
C13 N14 1.347 . S
C13 H24 0.941 . S
N14 C12 1.375 . S
N14 C13 1.347 . S
C15 C18 1.365 . S
C15 N20 1.328 . S
C15 H21 0.929 . S
C16 C17 1.362 . S
C16 C19 1.378 . S
C16 H31 0.929 . S
C17 C16 1.362 . S
C17 C18 1.366 . S
C18 C15 1.365 . S
C18 C17 1.366 . S
C18 H32 0.930 . S
C19 C16 1.378 . S
C19 N20 1.315 . S
C19 H22 0.930 . S
N20 Co0 2.194 . S
N20 C15 1.328 . S
N20 C19 1.315 . S
H21 C15 0.929 . S
H22 C19 0.930 . S
H23 C11 0.929 . S
H24 C13 0.941 . S
O25 Co0 2.351 . S
O25 C28 1.244 . S
O26 Co0 2.155 . S
O26 C28 1.240 . S
O27 Co0 2.096 . S
O27 C8 1.247 1_455 S
C28 O25 1.244 . S
C28 O26 1.240 . S
H29 C3 0.931 . S
H30 C12 0.931 . S
H31 C16 0.929 . S
H32 C18 0.930 . S
Co33 N37 2.148 . S
Co33 N43 2.128 . S
Co33 N53 2.194 . S
Co33 O58 2.351 . S
Co33 O59 2.155 . S
Co33 O60 2.096 . S
C34 N37 1.301 . S
C34 N38 1.328 . S
C34 H39 0.930 . S
C35 C36 1.333 . S
C35 N37 1.317 . S
C35 H40 0.930 . S
C36 C35 1.333 . S
C36 N38 1.350 . S
C36 H62 0.931 . S
N37 Co33 2.148 . S
N37 C34 1.301 . S
N37 C35 1.317 . S
N38 C34 1.328 . S
N38 C36 1.350 . S
H39 C34 0.930 . S
H40 C35 0.930 . S
C41 O42 1.224 . S
C41 O60 1.247 . S
O42 C41 1.224 . S
N43 Co33 2.128 . S
N43 C44 1.355 . S
N43 C46 1.311 . S
C44 N43 1.355 . S
C44 C45 1.363 . S
C44 H56 0.929 . S
C45 C44 1.363 . S
C45 N47 1.375 . S
C45 H63 0.931 . S
C46 N43 1.311 . S
C46 N47 1.347 . S
C46 H57 0.929 . S
N47 C45 1.375 . S
N47 C46 1.347 . S
C48 C51 1.365 . S
C48 N53 1.328 . S
C48 H54 0.929 . S
C49 C50 1.362 . S
C49 C52 1.378 . S
C49 H64 0.929 . S
C50 C49 1.362 . S
C50 C51 1.366 . S
C51 C48 1.365 . S
C51 C50 1.366 . S
C51 H65 0.930 . S
C52 C49 1.378 . S
C52 N53 1.315 . S
C52 H55 0.930 . S
N53 Co33 2.194 . S
N53 C48 1.328 . S
N53 C52 1.315 . S
H54 C48 0.929 . S
H55 C52 0.930 . S
H56 C44 0.929 . S
H57 C46 0.929 . S
O58 Co33 2.351 . S
O58 C61 1.244 . S
O59 Co33 2.155 . S
O59 C61 1.240 . S
O60 Co33 2.096 . S
O60 C41 1.247 . S
C61 O58 1.244 . S
C61 O59 1.240 . S
H62 C36 0.931 . S
H63 C45 0.931 . S
H64 C49 0.929 . S
H65 C51 0.930 . S
Co66 N70 2.148 . S
Co66 N76 2.128 . S
Co66 N86 2.194 . S
Co66 O91 2.351 . S
Co66 O92 2.155 . S
Co66 O93 2.096 . S
C67 N70 1.301 . S
C67 N71 1.328 1_565 S
C67 H72 0.930 . S
C68 C69 1.333 1_565 S
C68 N70 1.317 . S
C68 H73 0.930 . S
C69 C68 1.333 1_545 S
C69 N71 1.350 . S
C69 H95 0.931 . S
N70 Co66 2.148 . S
N70 C67 1.301 . S
N70 C68 1.317 . S
N71 C67 1.328 1_545 S
N71 C69 1.350 . S
H72 C67 0.930 . S
H73 C68 0.930 . S
C74 O75 1.224 . S
C74 O93 1.247 . S
O75 C74 1.224 . S
N76 Co66 2.128 . S
N76 C77 1.355 . S
N76 C79 1.311 . S
C77 N76 1.355 . S
C77 C78 1.363 . S
C77 H89 0.929 . S
C78 C77 1.363 . S
C78 N80 1.375 . S
C78 H96 0.931 . S
C79 N76 1.311 . S
C79 N80 1.347 . S
C79 H90 0.929 . S
N80 C78 1.375 . S
N80 C79 1.347 . S
C81 C84 1.365 . S
C81 N86 1.328 . S
C81 H87 0.929 . S
C82 C83 1.362 . S
C82 C85 1.378 . S
C82 H97 0.929 . S
C83 C82 1.362 . S
C83 C84 1.366 . S
C84 C81 1.365 . S
C84 C83 1.366 . S
C84 H98 0.930 . S
C85 C82 1.378 . S
C85 N86 1.315 . S
C85 H88 0.930 . S
N86 Co66 2.194 . S
N86 C81 1.328 . S
N86 C85 1.315 . S
H87 C81 0.929 . S
H88 C85 0.930 . S
H89 C77 0.929 . S
H90 C79 0.929 . S
O91 Co66 2.351 . S
O91 C94 1.244 . S
O92 Co66 2.155 . S
O92 C94 1.240 . S
O93 Co66 2.096 . S
O93 C74 1.247 . S
C94 O91 1.244 . S
C94 O92 1.240 . S
H95 C69 0.931 . S
H96 C78 0.931 . S
H97 C82 0.929 . S
H98 C84 0.930 . S
Co99 N103 2.148 . S
Co99 N109 2.128 . S
Co99 N119 2.194 . S
Co99 O124 2.351 . S
Co99 O125 2.155 . S
Co99 O126 2.096 . S
C100 N103 1.301 . S
C100 N104 1.328 . S
C100 H105 0.930 . S
C101 C102 1.333 . S
C101 N103 1.317 . S
C101 H106 0.930 . S
C102 C101 1.333 . S
C102 N104 1.350 . S
C102 H128 0.931 . S
N103 Co99 2.148 . S
N103 C100 1.301 . S
N103 C101 1.317 . S
N104 C100 1.328 . S
N104 C102 1.350 . S
H105 C100 0.930 . S
H106 C101 0.930 . S
C107 O108 1.224 . S
C107 O126 1.247 . S
O108 C107 1.224 . S
N109 Co99 2.128 . S
N109 C110 1.355 . S
N109 C112 1.311 . S
C110 N109 1.355 . S
C110 C111 1.363 . S
C110 H122 0.929 . S
C111 C110 1.363 . S
C111 N113 1.375 . S
C111 H129 0.931 . S
C112 N109 1.311 . S
C112 N113 1.347 . S
C112 H123 0.929 . S
N113 C111 1.375 . S
N113 C112 1.347 . S
C114 C117 1.365 . S
C114 N119 1.328 . S
C114 H120 0.929 . S
C115 C116 1.362 . S
C115 C118 1.378 . S
C115 H130 0.929 . S
C116 C115 1.362 . S
C116 C117 1.366 . S
C117 C114 1.365 . S
C117 C116 1.366 . S
C117 H131 0.930 . S
C118 C115 1.378 . S
C118 N119 1.315 . S
C118 H121 0.930 . S
N119 Co99 2.194 . S
N119 C114 1.328 . S
N119 C118 1.315 . S
H120 C114 0.929 . S
H121 C118 0.930 . S
H122 C110 0.929 . S
H123 C112 0.929 . S
O124 Co99 2.351 . S
O124 C127 1.244 . S
O125 Co99 2.155 . S
O125 C127 1.240 . S
O126 Co99 2.096 . S
O126 C107 1.247 . S
C127 O124 1.244 . S
C127 O125 1.240 . S
H128 C102 0.931 . S
H129 C111 0.931 . S
H130 C115 0.929 . S
H131 C117 0.930 . S
Co132 N136 2.148 . S
Co132 N142 2.128 . S
Co132 N152 2.194 . S
Co132 O157 2.351 . S
Co132 O158 2.155 . S
Co132 O159 2.096 . S
C133 N136 1.301 . S
C133 N137 1.328 1_565 S
C133 H138 0.930 . S
C134 C135 1.333 1_565 S
C134 N136 1.317 . S
C134 H139 0.930 . S
C135 C134 1.333 1_545 S
C135 N137 1.350 . S
C135 H161 0.931 . S
N136 Co132 2.148 . S
N136 C133 1.301 . S
N136 C134 1.317 . S
N137 C133 1.328 1_545 S
N137 C135 1.350 . S
H138 C133 0.930 . S
H139 C134 0.930 . S
C140 O141 1.224 . S
C140 O159 1.247 1_655 S
O141 C140 1.224 . S
N142 Co132 2.128 . S
N142 C143 1.355 . S
N142 C145 1.311 . S
C143 N142 1.355 . S
C143 C144 1.363 . S
C143 H155 0.929 . S
C144 C143 1.363 . S
C144 N146 1.375 . S
C144 H162 0.931 . S
C145 N142 1.311 . S
C145 N146 1.347 . S
C145 H156 0.940 . S
N146 C144 1.375 . S
N146 C145 1.347 . S
C147 C150 1.365 . S
C147 N152 1.328 . S
C147 H153 0.929 . S
C148 C149 1.362 . S
C148 C151 1.378 . S
C148 H163 0.929 . S
C149 C148 1.362 . S
C149 C150 1.366 . S
C150 C147 1.365 . S
C150 C149 1.366 . S
C150 H164 0.930 . S
C151 C148 1.378 . S
C151 N152 1.315 . S
C151 H154 0.930 . S
N152 Co132 2.194 . S
N152 C147 1.328 . S
N152 C151 1.315 . S
H153 C147 0.929 . S
H154 C151 0.930 . S
H155 C143 0.929 . S
H156 C145 0.940 . S
O157 Co132 2.351 . S
O157 C160 1.244 . S
O158 Co132 2.155 . S
O158 C160 1.240 . S
O159 Co132 2.096 . S
O159 C140 1.247 1_455 S
C160 O157 1.244 . S
C160 O158 1.240 . S
H161 C135 0.931 . S
H162 C144 0.931 . S
H163 C148 0.929 . S
H164 C150 0.930 . S
Co165 N169 2.148 . S
Co165 N175 2.128 . S
Co165 N185 2.194 . S
Co165 O190 2.351 . S
Co165 O191 2.155 . S
Co165 O192 2.096 . S
C166 N169 1.301 . S
C166 N170 1.328 . S
C166 H171 0.930 . S
C167 C168 1.333 . S
C167 N169 1.317 . S
C167 H172 0.930 . S
C168 C167 1.333 . S
C168 N170 1.350 . S
C168 H194 0.931 . S
N169 Co165 2.148 . S
N169 C166 1.301 . S
N169 C167 1.317 . S
N170 C166 1.328 . S
N170 C168 1.350 . S
H171 C166 0.930 . S
H172 C167 0.930 . S
C173 O174 1.224 . S
C173 O192 1.247 . S
O174 C173 1.224 . S
N175 Co165 2.128 . S
N175 C176 1.355 . S
N175 C178 1.311 . S
C176 N175 1.355 . S
C176 C177 1.363 . S
C176 H188 0.929 . S
C177 C176 1.363 . S
C177 N179 1.375 . S
C177 H195 0.931 . S
C178 N175 1.311 . S
C178 N179 1.347 . S
C178 H189 0.929 . S
N179 C177 1.375 . S
N179 C178 1.347 . S
C180 C183 1.365 . S
C180 N185 1.328 . S
C180 H186 0.929 . S
C181 C182 1.362 . S
C181 C184 1.378 . S
C181 H196 0.929 . S
C182 C181 1.362 . S
C182 C183 1.366 . S
C183 C180 1.365 . S
C183 C182 1.366 . S
C183 H197 0.930 . S
C184 C181 1.378 . S
C184 N185 1.315 . S
C184 H187 0.930 . S
N185 Co165 2.194 . S
N185 C180 1.328 . S
N185 C184 1.315 . S
H186 C180 0.929 . S
H187 C184 0.930 . S
H188 C176 0.929 . S
H189 C178 0.929 . S
O190 Co165 2.351 . S
O190 C193 1.244 . S
O191 Co165 2.155 . S
O191 C193 1.240 . S
O192 Co165 2.096 . S
O192 C173 1.247 . S
C193 O190 1.244 . S
C193 O191 1.240 . S
H194 C168 0.931 . S
H195 C177 0.931 . S
H196 C181 0.929 . S
H197 C183 0.930 . S
Co198 N202 2.148 . S
Co198 N208 2.128 . S
Co198 N218 2.194 . S
Co198 O223 2.351 . S
Co198 O224 2.155 . S
Co198 O225 2.096 . S
C199 N202 1.301 . S
C199 N203 1.328 1_545 S
C199 H204 0.930 . S
C200 C201 1.333 1_545 S
C200 N202 1.317 . S
C200 H205 0.930 . S
C201 C200 1.333 1_565 S
C201 N203 1.350 . S
C201 H227 0.931 . S
N202 Co198 2.148 . S
N202 C199 1.301 . S
N202 C200 1.317 . S
N203 C199 1.328 1_565 S
N203 C201 1.350 . S
H204 C199 0.930 . S
H205 C200 0.930 . S
C206 O207 1.224 . S
C206 O225 1.247 . S
O207 C206 1.224 . S
N208 Co198 2.128 . S
N208 C209 1.355 . S
N208 C211 1.311 . S
C209 N208 1.355 . S
C209 C210 1.363 . S
C209 H221 0.929 . S
C210 C209 1.363 . S
C210 N212 1.375 . S
C210 H228 0.931 . S
C211 N208 1.311 . S
C211 N212 1.347 . S
C211 H222 0.929 . S
N212 C210 1.375 . S
N212 C211 1.347 . S
C213 C216 1.365 . S
C213 N218 1.328 . S
C213 H219 0.929 . S
C214 C215 1.362 . S
C214 C217 1.378 . S
C214 H229 0.929 . S
C215 C214 1.362 . S
C215 C216 1.366 . S
C216 C213 1.365 . S
C216 C215 1.366 . S
C216 H230 0.930 . S
C217 C214 1.378 . S
C217 N218 1.315 . S
C217 H220 0.930 . S
N218 Co198 2.194 . S
N218 C213 1.328 . S
N218 C217 1.315 . S
H219 C213 0.929 . S
H220 C217 0.930 . S
H221 C209 0.929 . S
H222 C211 0.929 . S
O223 Co198 2.351 . S
O223 C226 1.244 . S
O224 Co198 2.155 . S
O224 C226 1.240 . S
O225 Co198 2.096 . S
O225 C206 1.247 . S
C226 O223 1.244 . S
C226 O224 1.240 . S
H227 C201 0.931 . S
H228 C210 0.931 . S
H229 C214 0.929 . S
H230 C216 0.930 . S
Co231 N235 2.148 . S
Co231 N241 2.128 . S
Co231 N251 2.194 . S
Co231 O256 2.351 . S
Co231 O257 2.155 . S
Co231 O258 2.096 . S
C232 N235 1.301 . S
C232 N236 1.328 . S
C232 H237 0.930 . S
C233 C234 1.333 . S
C233 N235 1.317 . S
C233 H238 0.930 . S
C234 C233 1.333 . S
C234 N236 1.350 . S
C234 H260 0.931 . S
N235 Co231 2.148 . S
N235 C232 1.301 . S
N235 C233 1.317 . S
N236 C232 1.328 . S
N236 C234 1.350 . S
H237 C232 0.930 . S
H238 C233 0.930 . S
C239 O240 1.224 . S
C239 O258 1.247 . S
O240 C239 1.224 . S
N241 Co231 2.128 . S
N241 C242 1.355 . S
N241 C244 1.311 . S
C242 N241 1.355 . S
C242 C243 1.363 . S
C242 H254 0.929 . S
C243 C242 1.363 . S
C243 N245 1.375 . S
C243 H261 0.931 . S
C244 N241 1.311 . S
C244 N245 1.347 . S
C244 H255 0.929 . S
N245 C243 1.375 . S
N245 C244 1.347 . S
C246 C249 1.365 . S
C246 N251 1.328 . S
C246 H252 0.929 . S
C247 C248 1.362 . S
C247 C250 1.378 . S
C247 H262 0.929 . S
C248 C247 1.362 . S
C248 C249 1.366 . S
C249 C246 1.365 . S
C249 C248 1.366 . S
C249 H263 0.930 . S
C250 C247 1.378 . S
C250 N251 1.315 . S
C250 H253 0.930 . S
N251 Co231 2.194 . S
N251 C246 1.328 . S
N251 C250 1.315 . S
H252 C246 0.929 . S
H253 C250 0.930 . S
H254 C242 0.929 . S
H255 C244 0.929 . S
O256 Co231 2.351 . S
O256 C259 1.244 . S
O257 Co231 2.155 . S
O257 C259 1.240 . S
O258 Co231 2.096 . S
O258 C239 1.247 . S
C259 O256 1.244 . S
C259 O257 1.240 . S
H260 C234 0.931 . S
H261 C243 0.931 . S
H262 C247 0.929 . S
H263 C249 0.930 . S
Co264 N268 2.148 . S
Co264 N274 2.128 . S
Co264 N284 2.194 . S
Co264 O289 2.351 . S
Co264 O290 2.155 . S
Co264 O291 2.096 . S
C265 N268 1.301 . S
C265 N269 1.328 1_565 S
C265 H270 0.930 . S
C266 C267 1.333 1_565 S
C266 N268 1.317 . S
C266 H271 0.930 . S
C267 C266 1.333 1_545 S
C267 N269 1.350 . S
C267 H293 0.931 . S
N268 Co264 2.148 . S
N268 C265 1.301 . S
N268 C266 1.317 . S
N269 C265 1.328 1_545 S
N269 C267 1.350 . S
H270 C265 0.930 . S
H271 C266 0.930 . S
C272 O273 1.224 . S
C272 O291 1.247 1_455 S
O273 C272 1.224 . S
N274 Co264 2.128 . S
N274 C275 1.355 . S
N274 C277 1.311 . S
C275 N274 1.355 . S
C275 C276 1.363 . S
C275 H287 0.929 . S
C276 C275 1.363 . S
C276 N278 1.375 . S
C276 H294 0.931 . S
C277 N274 1.311 . S
C277 N278 1.347 . S
C277 H288 0.941 . S
N278 C276 1.375 . S
N278 C277 1.347 . S
C279 C282 1.365 . S
C279 N284 1.328 . S
C279 H285 0.929 . S
C280 C281 1.362 . S
C280 C283 1.378 . S
C280 H295 0.929 . S
C281 C280 1.362 . S
C281 C282 1.366 . S
C282 C279 1.365 . S
C282 C281 1.366 . S
C282 H296 0.930 . S
C283 C280 1.378 . S
C283 N284 1.315 . S
C283 H286 0.930 . S
N284 Co264 2.194 . S
N284 C279 1.328 . S
N284 C283 1.315 . S
H285 C279 0.929 . S
H286 C283 0.930 . S
H287 C275 0.929 . S
H288 C277 0.941 . S
O289 Co264 2.351 . S
O289 C292 1.244 . S
O290 Co264 2.155 . S
O290 C292 1.240 . S
O291 Co264 2.096 . S
O291 C272 1.247 1_655 S
C292 O289 1.244 . S
C292 O290 1.240 . S
H293 C267 0.931 . S
H294 C276 0.931 . S
H295 C280 0.929 . S
H296 C282 0.930 . S
Co297 N301 2.148 . S
Co297 N307 2.128 . S
Co297 N317 2.194 . S
Co297 O322 2.351 . S
Co297 O323 2.155 . S
Co297 O324 2.096 . S
C298 N301 1.301 . S
C298 N302 1.328 . S
C298 H303 0.930 . S
C299 C300 1.333 . S
C299 N301 1.317 . S
C299 H304 0.930 . S
C300 C299 1.333 . S
C300 N302 1.350 . S
C300 H326 0.931 . S
N301 Co297 2.148 . S
N301 C298 1.301 . S
N301 C299 1.317 . S
N302 C298 1.328 . S
N302 C300 1.350 . S
H303 C298 0.930 . S
H304 C299 0.930 . S
C305 O306 1.224 . S
C305 O324 1.247 . S
O306 C305 1.224 . S
N307 Co297 2.128 . S
N307 C308 1.355 . S
N307 C310 1.311 . S
C308 N307 1.355 . S
C308 C309 1.363 . S
C308 H320 0.929 . S
C309 C308 1.363 . S
C309 N311 1.375 . S
C309 H327 0.931 . S
C310 N307 1.311 . S
C310 N311 1.347 . S
C310 H321 0.929 . S
N311 C309 1.375 . S
N311 C310 1.347 . S
C312 C315 1.365 . S
C312 N317 1.328 . S
C312 H318 0.929 . S
C313 C314 1.362 . S
C313 C316 1.378 . S
C313 H328 0.929 . S
C314 C313 1.362 . S
C314 C315 1.366 . S
C315 C312 1.365 . S
C315 C314 1.366 . S
C315 H329 0.930 . S
C316 C313 1.378 . S
C316 N317 1.315 . S
C316 H319 0.930 . S
N317 Co297 2.194 . S
N317 C312 1.328 . S
N317 C316 1.315 . S
H318 C312 0.929 . S
H319 C316 0.930 . S
H320 C308 0.929 . S
H321 C310 0.929 . S
O322 Co297 2.351 . S
O322 C325 1.244 . S
O323 Co297 2.155 . S
O323 C325 1.240 . S
O324 Co297 2.096 . S
O324 C305 1.247 . S
C325 O322 1.244 . S
C325 O323 1.240 . S
H326 C300 0.931 . S
H327 C309 0.931 . S
H328 C313 0.929 . S
H329 C315 0.930 . S
Co330 N334 2.148 . S
Co330 N340 2.128 . S
Co330 N350 2.194 . S
Co330 O355 2.351 . S
Co330 O356 2.155 . S
Co330 O357 2.096 . S
C331 N334 1.301 . S
C331 N335 1.328 1_545 S
C331 H336 0.930 . S
C332 C333 1.333 1_545 S
C332 N334 1.317 . S
C332 H337 0.930 . S
C333 C332 1.333 1_565 S
C333 N335 1.350 . S
C333 H359 0.931 . S
N334 Co330 2.148 . S
N334 C331 1.301 . S
N334 C332 1.317 . S
N335 C331 1.328 1_565 S
N335 C333 1.350 . S
H336 C331 0.930 . S
H337 C332 0.930 . S
C338 O339 1.224 . S
C338 O357 1.247 . S
O339 C338 1.224 . S
N340 Co330 2.128 . S
N340 C341 1.355 . S
N340 C343 1.311 . S
C341 N340 1.355 . S
C341 C342 1.363 . S
C341 H353 0.929 . S
C342 C341 1.363 . S
C342 N344 1.375 . S
C342 H360 0.931 . S
C343 N340 1.311 . S
C343 N344 1.347 . S
C343 H354 0.929 . S
N344 C342 1.375 . S
N344 C343 1.347 . S
C345 C348 1.365 . S
C345 N350 1.328 . S
C345 H351 0.929 . S
C346 C347 1.362 . S
C346 C349 1.378 . S
C346 H361 0.929 . S
C347 C346 1.362 . S
C347 C348 1.366 . S
C348 C345 1.365 . S
C348 C347 1.366 . S
C348 H362 0.930 . S
C349 C346 1.378 . S
C349 N350 1.315 . S
C349 H352 0.930 . S
N350 Co330 2.194 . S
N350 C345 1.328 . S
N350 C349 1.315 . S
H351 C345 0.929 . S
H352 C349 0.930 . S
H353 C341 0.929 . S
H354 C343 0.929 . S
O355 Co330 2.351 . S
O355 C358 1.244 . S
O356 Co330 2.155 . S
O356 C358 1.240 . S
O357 Co330 2.096 . S
O357 C338 1.247 . S
C358 O355 1.244 . S
C358 O356 1.240 . S
H359 C333 0.931 . S
H360 C342 0.931 . S
H361 C346 0.929 . S
H362 C348 0.930 . S
Co363 N367 2.148 . S
Co363 N373 2.128 . S
Co363 N383 2.194 . S
Co363 O388 2.351 . S
Co363 O389 2.155 . S
Co363 O390 2.096 . S
C364 N367 1.301 . S
C364 N368 1.328 . S
C364 H369 0.930 . S
C365 C366 1.333 . S
C365 N367 1.317 . S
C365 H370 0.930 . S
C366 C365 1.333 . S
C366 N368 1.350 . S
C366 H392 0.931 . S
N367 Co363 2.148 . S
N367 C364 1.301 . S
N367 C365 1.317 . S
N368 C364 1.328 . S
N368 C366 1.350 . S
H369 C364 0.930 . S
H370 C365 0.930 . S
C371 O372 1.224 . S
C371 O390 1.247 . S
O372 C371 1.224 . S
N373 Co363 2.128 . S
N373 C374 1.355 . S
N373 C376 1.311 . S
C374 N373 1.355 . S
C374 C375 1.363 . S
C374 H386 0.929 . S
C375 C374 1.363 . S
C375 N377 1.375 . S
C375 H393 0.931 . S
C376 N373 1.311 . S
C376 N377 1.347 . S
C376 H387 0.929 . S
N377 C375 1.375 . S
N377 C376 1.347 . S
C378 C381 1.365 . S
C378 N383 1.328 . S
C378 H384 0.929 . S
C379 C380 1.362 . S
C379 C382 1.378 . S
C379 H394 0.929 . S
C380 C379 1.362 . S
C380 C381 1.366 . S
C381 C378 1.365 . S
C381 C380 1.366 . S
C381 H395 0.930 . S
C382 C379 1.378 . S
C382 N383 1.315 . S
C382 H385 0.930 . S
N383 Co363 2.194 . S
N383 C378 1.328 . S
N383 C382 1.315 . S
H384 C378 0.929 . S
H385 C382 0.930 . S
H386 C374 0.929 . S
H387 C376 0.929 . S
O388 Co363 2.351 . S
O388 C391 1.244 . S
O389 Co363 2.155 . S
O389 C391 1.240 . S
O390 Co363 2.096 . S
O390 C371 1.247 . S
C391 O388 1.244 . S
C391 O389 1.240 . S
H392 C366 0.931 . S
H393 C375 0.931 . S
H394 C379 0.929 . S
H395 C381 0.930 . S
Co396 N400 2.148 . S
Co396 N406 2.128 . S
Co396 N416 2.194 . S
Co396 O421 2.351 . S
Co396 O422 2.155 . S
Co396 O423 2.096 . S
C397 N400 1.301 . S
C397 N401 1.328 1_545 S
C397 H402 0.930 . S
C398 C399 1.333 1_545 S
C398 N400 1.317 . S
C398 H403 0.930 . S
C399 C398 1.333 1_565 S
C399 N401 1.350 . S
C399 H425 0.931 . S
N400 Co396 2.148 . S
N400 C397 1.301 . S
N400 C398 1.317 . S
N401 C397 1.328 1_565 S
N401 C399 1.350 . S
H402 C397 0.930 . S
H403 C398 0.930 . S
C404 O405 1.224 . S
C404 O423 1.247 1_455 S
O405 C404 1.224 . S
N406 Co396 2.128 . S
N406 C407 1.355 . S
N406 C409 1.311 . S
C407 N406 1.355 . S
C407 C408 1.363 . S
C407 H419 0.929 . S
C408 C407 1.363 . S
C408 N410 1.375 . S
C408 H426 0.931 . S
C409 N406 1.311 . S
C409 N410 1.347 . S
C409 H420 0.940 . S
N410 C408 1.375 . S
N410 C409 1.347 . S
C411 C414 1.365 . S
C411 N416 1.328 . S
C411 H417 0.929 . S
C412 C413 1.362 . S
C412 C415 1.378 . S
C412 H427 0.929 . S
C413 C412 1.362 . S
C413 C414 1.366 . S
C414 C411 1.365 . S
C414 C413 1.366 . S
C414 H428 0.930 . S
C415 C412 1.378 . S
C415 N416 1.315 . S
C415 H418 0.930 . S
N416 Co396 2.194 . S
N416 C411 1.328 . S
N416 C415 1.315 . S
H417 C411 0.929 . S
H418 C415 0.930 . S
H419 C407 0.929 . S
H420 C409 0.940 . S
O421 Co396 2.351 . S
O421 C424 1.244 . S
O422 Co396 2.155 . S
O422 C424 1.240 . S
O423 Co396 2.096 . S
O423 C404 1.247 1_655 S
C424 O421 1.244 . S
C424 O422 1.240 . S
H425 C399 0.931 . S
H426 C408 0.931 . S
H427 C412 0.929 . S
H428 C414 0.930 . S
Co429 N433 2.148 . S
Co429 N439 2.128 . S
Co429 N449 2.194 . S
Co429 O454 2.351 . S
Co429 O455 2.155 . S
Co429 O456 2.096 . S
C430 N433 1.301 . S
C430 N434 1.328 . S
C430 H435 0.930 . S
C431 C432 1.333 . S
C431 N433 1.317 . S
C431 H436 0.930 . S
C432 C431 1.333 . S
C432 N434 1.350 . S
C432 H458 0.931 . S
N433 Co429 2.148 . S
N433 C430 1.301 . S
N433 C431 1.317 . S
N434 C430 1.328 . S
N434 C432 1.350 . S
H435 C430 0.930 . S
H436 C431 0.930 . S
C437 O438 1.224 . S
C437 O456 1.247 . S
O438 C437 1.224 . S
N439 Co429 2.128 . S
N439 C440 1.355 . S
N439 C442 1.311 . S
C440 N439 1.355 . S
C440 C441 1.363 . S
C440 H452 0.929 . S
C441 C440 1.363 . S
C441 N443 1.375 . S
C441 H459 0.931 . S
C442 N439 1.311 . S
C442 N443 1.347 . S
C442 H453 0.929 . S
N443 C441 1.375 . S
N443 C442 1.347 . S
C444 C447 1.365 . S
C444 N449 1.328 . S
C444 H450 0.929 . S
C445 C446 1.362 . S
C445 C448 1.378 . S
C445 H460 0.929 . S
C446 C445 1.362 . S
C446 C447 1.366 . S
C447 C444 1.365 . S
C447 C446 1.366 . S
C447 H461 0.930 . S
C448 C445 1.378 . S
C448 N449 1.315 . S
C448 H451 0.930 . S
N449 Co429 2.194 . S
N449 C444 1.328 . S
N449 C448 1.315 . S
H450 C444 0.929 . S
H451 C448 0.930 . S
H452 C440 0.929 . S
H453 C442 0.929 . S
O454 Co429 2.351 . S
O454 C457 1.244 . S
O455 Co429 2.155 . S
O455 C457 1.240 . S
O456 Co429 2.096 . S
O456 C437 1.247 . S
C457 O454 1.244 . S
C457 O455 1.240 . S
H458 C432 0.931 . S
H459 C441 0.931 . S
H460 C445 0.929 . S
H461 C447 0.930 . S
Co462 N466 2.148 . S
Co462 N472 2.128 . S
Co462 N482 2.194 . S
Co462 O487 2.351 . S
Co462 O488 2.155 . S
Co462 O489 2.096 . S
C463 N466 1.301 . S
C463 N467 1.328 1_565 S
C463 H468 0.930 . S
C464 C465 1.333 1_565 S
C464 N466 1.317 . S
C464 H469 0.930 . S
C465 C464 1.333 1_545 S
C465 N467 1.350 . S
C465 H491 0.931 . S
N466 Co462 2.148 . S
N466 C463 1.301 . S
N466 C464 1.317 . S
N467 C463 1.328 1_545 S
N467 C465 1.350 . S
H468 C463 0.930 . S
H469 C464 0.930 . S
C470 O471 1.224 . S
C470 O489 1.247 . S
O471 C470 1.224 . S
N472 Co462 2.128 . S
N472 C473 1.355 . S
N472 C475 1.311 . S
C473 N472 1.355 . S
C473 C474 1.363 . S
C473 H485 0.929 . S
C474 C473 1.363 . S
C474 N476 1.375 . S
C474 H492 0.931 . S
C475 N472 1.311 . S
C475 N476 1.347 . S
C475 H486 0.929 . S
N476 C474 1.375 . S
N476 C475 1.347 . S
C477 C480 1.365 . S
C477 N482 1.328 . S
C477 H483 0.929 . S
C478 C479 1.362 . S
C478 C481 1.378 . S
C478 H493 0.929 . S
C479 C478 1.362 . S
C479 C480 1.366 . S
C480 C477 1.365 . S
C480 C479 1.366 . S
C480 H494 0.930 . S
C481 C478 1.378 . S
C481 N482 1.315 . S
C481 H484 0.930 . S
N482 Co462 2.194 . S
N482 C477 1.328 . S
N482 C481 1.315 . S
H483 C477 0.929 . S
H484 C481 0.930 . S
H485 C473 0.929 . S
H486 C475 0.929 . S
O487 Co462 2.351 . S
O487 C490 1.244 . S
O488 Co462 2.155 . S
O488 C490 1.240 . S
O489 Co462 2.096 . S
O489 C470 1.247 . S
C490 O487 1.244 . S
C490 O488 1.240 . S
H491 C465 0.931 . S
H492 C474 0.931 . S
H493 C478 0.929 . S
H494 C480 0.930 . S
Co495 N499 2.148 . S
Co495 N505 2.128 . S
Co495 N515 2.194 . S
Co495 O520 2.351 . S
Co495 O521 2.155 . S
Co495 O522 2.096 . S
C496 N499 1.301 . S
C496 N500 1.328 . S
C496 H501 0.930 . S
C497 C498 1.333 . S
C497 N499 1.317 . S
C497 H502 0.930 . S
C498 C497 1.333 . S
C498 N500 1.350 . S
C498 H524 0.931 . S
N499 Co495 2.148 . S
N499 C496 1.301 . S
N499 C497 1.317 . S
N500 C496 1.328 . S
N500 C498 1.350 . S
H501 C496 0.930 . S
H502 C497 0.930 . S
C503 O504 1.224 . S
C503 O522 1.247 . S
O504 C503 1.224 . S
N505 Co495 2.128 . S
N505 C506 1.355 . S
N505 C508 1.311 . S
C506 N505 1.355 . S
C506 C507 1.363 . S
C506 H518 0.929 . S
C507 C506 1.363 . S
C507 N509 1.375 . S
C507 H525 0.931 . S
C508 N505 1.311 . S
C508 N509 1.347 . S
C508 H519 0.929 . S
N509 C507 1.375 . S
N509 C508 1.347 . S
C510 C513 1.365 . S
C510 N515 1.328 . S
C510 H516 0.929 . S
C511 C512 1.362 . S
C511 C514 1.378 . S
C511 H526 0.929 . S
C512 C511 1.362 . S
C512 C513 1.366 . S
C513 C510 1.365 . S
C513 C512 1.366 . S
C513 H527 0.930 . S
C514 C511 1.378 . S
C514 N515 1.315 . S
C514 H517 0.930 . S
N515 Co495 2.194 . S
N515 C510 1.328 . S
N515 C514 1.315 . S
H516 C510 0.929 . S
H517 C514 0.930 . S
H518 C506 0.929 . S
H519 C508 0.929 . S
O520 Co495 2.351 . S
O520 C523 1.244 . S
O521 Co495 2.155 . S
O521 C523 1.240 . S
O522 Co495 2.096 . S
O522 C503 1.247 . S
C523 O520 1.244 . S
C523 O521 1.240 . S
H524 C498 0.931 . S
H525 C507 0.931 . S
H526 C511 0.929 . S
H527 C513 0.930 . S
Co528 N532 2.148 . S
Co528 N538 2.128 . S
Co528 N548 2.194 . S
Co528 O553 2.351 . S
Co528 O554 2.155 . S
Co528 O555 2.096 . S
C529 N532 1.301 . S
C529 N533 1.328 . S
C529 H534 0.930 . S
C530 C531 1.333 . S
C530 N532 1.317 . S
C530 H535 0.930 . S
C531 C530 1.333 . S
C531 N533 1.350 . S
C531 H557 0.931 . S
N532 Co528 2.148 . S
N532 C529 1.301 . S
N532 C530 1.317 . S
N533 C529 1.328 . S
N533 C531 1.350 . S
H534 C529 0.930 . S
H535 C530 0.930 . S
C536 O537 1.224 . S
C536 O555 1.247 . S
O537 C536 1.224 . S
N538 Co528 2.128 . S
N538 C539 1.355 . S
N538 C541 1.311 . S
C539 N538 1.355 . S
C539 C540 1.363 . S
C539 H551 0.929 . S
C540 C539 1.363 . S
C540 N542 1.375 . S
C540 H558 0.931 . S
C541 N538 1.311 . S
C541 N542 1.347 . S
C541 H552 0.929 . S
N542 C540 1.375 . S
N542 C541 1.347 . S
C543 C546 1.365 . S
C543 N548 1.328 . S
C543 H549 0.929 . S
C544 C545 1.362 . S
C544 C547 1.378 . S
C544 H559 0.929 . S
C545 C544 1.362 . S
C545 C546 1.366 . S
C546 C543 1.365 . S
C546 C545 1.366 . S
C546 H560 0.930 . S
C547 C544 1.378 . S
C547 N548 1.315 . S
C547 H550 0.930 . S
N548 Co528 2.194 . S
N548 C543 1.328 . S
N548 C547 1.315 . S
H549 C543 0.929 . S
H550 C547 0.930 . S
H551 C539 0.929 . S
H552 C541 0.929 . S
O553 Co528 2.351 . S
O553 C556 1.244 . S
O554 Co528 2.155 . S
O554 C556 1.240 . S
O555 Co528 2.096 . S
O555 C536 1.247 . S
C556 O553 1.244 . S
C556 O554 1.240 . S
H557 C531 0.931 . S
H558 C540 0.931 . S
H559 C544 0.929 . S
H560 C546 0.930 . S
Co561 N565 2.148 . S
Co561 N571 2.128 . S
Co561 N581 2.194 . S
Co561 O586 2.351 . S
Co561 O587 2.155 . S
Co561 O588 2.096 . S
C562 N565 1.301 . S
C562 N566 1.328 . S
C562 H567 0.930 . S
C563 C564 1.333 . S
C563 N565 1.317 . S
C563 H568 0.930 . S
C564 C563 1.333 . S
C564 N566 1.350 . S
C564 H590 0.931 . S
N565 Co561 2.148 . S
N565 C562 1.301 . S
N565 C563 1.317 . S
N566 C562 1.328 . S
N566 C564 1.350 . S
H567 C562 0.930 . S
H568 C563 0.930 . S
C569 O570 1.224 . S
C569 O588 1.247 . S
O570 C569 1.224 . S
N571 Co561 2.128 . S
N571 C572 1.355 . S
N571 C574 1.311 . S
C572 N571 1.355 . S
C572 C573 1.363 . S
C572 H584 0.929 . S
C573 C572 1.363 . S
C573 N575 1.375 . S
C573 H591 0.931 . S
C574 N571 1.311 . S
C574 N575 1.347 . S
C574 H585 0.929 . S
N575 C573 1.375 . S
N575 C574 1.347 . S
C576 C579 1.365 . S
C576 N581 1.328 . S
C576 H582 0.929 . S
C577 C578 1.362 . S
C577 C580 1.378 . S
C577 H592 0.929 . S
C578 C577 1.362 . S
C578 C579 1.366 . S
C579 C576 1.365 . S
C579 C578 1.366 . S
C579 H593 0.930 . S
C580 C577 1.378 . S
C580 N581 1.315 . S
C580 H583 0.930 . S
N581 Co561 2.194 . S
N581 C576 1.328 . S
N581 C580 1.315 . S
H582 C576 0.929 . S
H583 C580 0.930 . S
H584 C572 0.929 . S
H585 C574 0.929 . S
O586 Co561 2.351 . S
O586 C589 1.244 . S
O587 Co561 2.155 . S
O587 C589 1.240 . S
O588 Co561 2.096 . S
O588 C569 1.247 . S
C589 O586 1.244 . S
C589 O587 1.240 . S
H590 C564 0.931 . S
H591 C573 0.931 . S
H592 C577 0.929 . S
H593 C579 0.930 . S
Co594 N598 2.148 . S
Co594 N604 2.128 . S
Co594 N614 2.194 . S
Co594 O619 2.351 . S
Co594 O620 2.155 . S
Co594 O621 2.096 . S
C595 N598 1.301 . S
C595 N599 1.328 . S
C595 H600 0.930 . S
C596 C597 1.333 . S
C596 N598 1.317 . S
C596 H601 0.930 . S
C597 C596 1.333 . S
C597 N599 1.350 . S
C597 H623 0.931 . S
N598 Co594 2.148 . S
N598 C595 1.301 . S
N598 C596 1.317 . S
N599 C595 1.328 . S
N599 C597 1.350 . S
H600 C595 0.930 . S
H601 C596 0.930 . S
C602 O603 1.224 . S
C602 O621 1.247 1_455 S
O603 C602 1.224 . S
N604 Co594 2.128 . S
N604 C605 1.355 . S
N604 C607 1.311 . S
C605 N604 1.355 . S
C605 C606 1.363 . S
C605 H617 0.929 . S
C606 C605 1.363 . S
C606 N608 1.375 . S
C606 H624 0.931 . S
C607 N604 1.311 . S
C607 N608 1.347 . S
C607 H618 0.940 . S
N608 C606 1.375 . S
N608 C607 1.347 . S
C609 C612 1.365 . S
C609 N614 1.328 . S
C609 H615 0.929 . S
C610 C611 1.362 . S
C610 C613 1.378 . S
C610 H625 0.929 . S
C611 C610 1.362 . S
C611 C612 1.366 . S
C612 C609 1.365 . S
C612 C611 1.366 . S
C612 H626 0.930 . S
C613 C610 1.378 . S
C613 N614 1.315 . S
C613 H616 0.930 . S
N614 Co594 2.194 . S
N614 C609 1.328 . S
N614 C613 1.315 . S
H615 C609 0.929 . S
H616 C613 0.930 . S
H617 C605 0.929 . S
H618 C607 0.940 . S
O619 Co594 2.351 . S
O619 C622 1.244 . S
O620 Co594 2.155 . S
O620 C622 1.240 . S
O621 Co594 2.096 . S
O621 C602 1.247 1_655 S
C622 O619 1.244 . S
C622 O620 1.240 . S
H623 C597 0.931 . S
H624 C606 0.931 . S
H625 C610 0.929 . S
H626 C612 0.930 . S
Co627 N631 2.148 . S
Co627 N637 2.128 . S
Co627 N647 2.194 . S
Co627 O652 2.351 . S
Co627 O653 2.155 . S
Co627 O654 2.096 . S
C628 N631 1.301 . S
C628 N632 1.328 . S
C628 H633 0.930 . S
C629 C630 1.333 . S
C629 N631 1.317 . S
C629 H634 0.930 . S
C630 C629 1.333 . S
C630 N632 1.350 . S
C630 H656 0.931 . S
N631 Co627 2.148 . S
N631 C628 1.301 . S
N631 C629 1.317 . S
N632 C628 1.328 . S
N632 C630 1.350 . S
H633 C628 0.930 . S
H634 C629 0.930 . S
C635 O636 1.224 . S
C635 O654 1.247 . S
O636 C635 1.224 . S
N637 Co627 2.128 . S
N637 C638 1.355 . S
N637 C640 1.311 . S
C638 N637 1.355 . S
C638 C639 1.363 . S
C638 H650 0.929 . S
C639 C638 1.363 . S
C639 N641 1.375 . S
C639 H657 0.931 . S
C640 N637 1.311 . S
C640 N641 1.347 . S
C640 H651 0.929 . S
N641 C639 1.375 . S
N641 C640 1.347 . S
C642 C645 1.365 . S
C642 N647 1.328 . S
C642 H648 0.929 . S
C643 C644 1.362 . S
C643 C646 1.378 . S
C643 H658 0.929 . S
C644 C643 1.362 . S
C644 C645 1.366 . S
C645 C642 1.365 . S
C645 C644 1.366 . S
C645 H659 0.930 . S
C646 C643 1.378 . S
C646 N647 1.315 . S
C646 H649 0.930 . S
N647 Co627 2.194 . S
N647 C642 1.328 . S
N647 C646 1.315 . S
H648 C642 0.929 . S
H649 C646 0.930 . S
H650 C638 0.929 . S
H651 C640 0.929 . S
O652 Co627 2.351 . S
O652 C655 1.244 . S
O653 Co627 2.155 . S
O653 C655 1.240 . S
O654 Co627 2.096 . S
O654 C635 1.247 . S
C655 O652 1.244 . S
C655 O653 1.240 . S
H656 C630 0.931 . S
H657 C639 0.931 . S
H658 C643 0.929 . S
H659 C645 0.930 . S
Co660 N664 2.148 . S
Co660 N670 2.128 . S
Co660 N680 2.194 . S
Co660 O685 2.351 . S
Co660 O686 2.155 . S
Co660 O687 2.096 . S
C661 N664 1.301 . S
C661 N665 1.328 . S
C661 H666 0.930 . S
C662 C663 1.333 . S
C662 N664 1.317 . S
C662 H667 0.930 . S
C663 C662 1.333 . S
C663 N665 1.350 . S
C663 H689 0.931 . S
N664 Co660 2.148 . S
N664 C661 1.301 . S
N664 C662 1.317 . S
N665 C661 1.328 . S
N665 C663 1.350 . S
H666 C661 0.930 . S
H667 C662 0.930 . S
C668 O669 1.224 . S
C668 O687 1.247 . S
O669 C668 1.224 . S
N670 Co660 2.128 . S
N670 C671 1.355 . S
N670 C673 1.311 . S
C671 N670 1.355 . S
C671 C672 1.363 . S
C671 H683 0.929 . S
C672 C671 1.363 . S
C672 N674 1.375 . S
C672 H690 0.931 . S
C673 N670 1.311 . S
C673 N674 1.347 . S
C673 H684 0.929 . S
N674 C672 1.375 . S
N674 C673 1.347 . S
C675 C678 1.365 . S
C675 N680 1.328 . S
C675 H681 0.929 . S
C676 C677 1.362 . S
C676 C679 1.378 . S
C676 H691 0.929 . S
C677 C676 1.362 . S
C677 C678 1.366 . S
C678 C675 1.365 . S
C678 C677 1.366 . S
C678 H692 0.930 . S
C679 C676 1.378 . S
C679 N680 1.315 . S
C679 H682 0.930 . S
N680 Co660 2.194 . S
N680 C675 1.328 . S
N680 C679 1.315 . S
H681 C675 0.929 . S
H682 C679 0.930 . S
H683 C671 0.929 . S
H684 C673 0.929 . S
O685 Co660 2.351 . S
O685 C688 1.244 . S
O686 Co660 2.155 . S
O686 C688 1.240 . S
O687 Co660 2.096 . S
O687 C668 1.247 . S
C688 O685 1.244 . S
C688 O686 1.240 . S
H689 C663 0.931 . S
H690 C672 0.931 . S
H691 C676 0.929 . S
H692 C678 0.930 . S
Co693 N697 2.148 . S
Co693 N703 2.128 . S
Co693 N713 2.194 . S
Co693 O718 2.351 . S
Co693 O719 2.155 . S
Co693 O720 2.096 . S
C694 N697 1.301 . S
C694 N698 1.328 . S
C694 H699 0.930 . S
C695 C696 1.333 . S
C695 N697 1.317 . S
C695 H700 0.930 . S
C696 C695 1.333 . S
C696 N698 1.350 . S
C696 H722 0.931 . S
N697 Co693 2.148 . S
N697 C694 1.301 . S
N697 C695 1.317 . S
N698 C694 1.328 . S
N698 C696 1.350 . S
H699 C694 0.930 . S
H700 C695 0.930 . S
C701 O702 1.224 . S
C701 O720 1.247 . S
O702 C701 1.224 . S
N703 Co693 2.128 . S
N703 C704 1.355 . S
N703 C706 1.311 . S
C704 N703 1.355 . S
C704 C705 1.363 . S
C704 H716 0.929 . S
C705 C704 1.363 . S
C705 N707 1.375 . S
C705 H723 0.931 . S
C706 N703 1.311 . S
C706 N707 1.347 . S
C706 H717 0.929 . S
N707 C705 1.375 . S
N707 C706 1.347 . S
C708 C711 1.365 . S
C708 N713 1.328 . S
C708 H714 0.929 . S
C709 C710 1.362 . S
C709 C712 1.378 . S
C709 H724 0.929 . S
C710 C709 1.362 . S
C710 C711 1.366 . S
C711 C708 1.365 . S
C711 C710 1.366 . S
C711 H725 0.930 . S
C712 C709 1.378 . S
C712 N713 1.315 . S
C712 H715 0.930 . S
N713 Co693 2.194 . S
N713 C708 1.328 . S
N713 C712 1.315 . S
H714 C708 0.929 . S
H715 C712 0.930 . S
H716 C704 0.929 . S
H717 C706 0.929 . S
O718 Co693 2.351 . S
O718 C721 1.244 . S
O719 Co693 2.155 . S
O719 C721 1.240 . S
O720 Co693 2.096 . S
O720 C701 1.247 . S
C721 O718 1.244 . S
C721 O719 1.240 . S
H722 C696 0.931 . S
H723 C705 0.931 . S
H724 C709 0.929 . S
H725 C711 0.930 . S
Co726 N730 2.148 . S
Co726 N736 2.128 . S
Co726 N746 2.194 . S
Co726 O751 2.351 . S
Co726 O752 2.155 . S
Co726 O753 2.096 . S
C727 N730 1.301 . S
C727 N731 1.328 . S
C727 H732 0.930 . S
C728 C729 1.333 . S
C728 N730 1.317 . S
C728 H733 0.930 . S
C729 C728 1.333 . S
C729 N731 1.350 . S
C729 H755 0.931 . S
N730 Co726 2.148 . S
N730 C727 1.301 . S
N730 C728 1.317 . S
N731 C727 1.328 . S
N731 C729 1.350 . S
H732 C727 0.930 . S
H733 C728 0.930 . S
C734 O735 1.224 . S
C734 O753 1.247 1_455 S
O735 C734 1.224 . S
N736 Co726 2.128 . S
N736 C737 1.355 . S
N736 C739 1.311 . S
C737 N736 1.355 . S
C737 C738 1.363 . S
C737 H749 0.929 . S
C738 C737 1.363 . S
C738 N740 1.375 . S
C738 H756 0.931 . S
C739 N736 1.311 . S
C739 N740 1.347 . S
C739 H750 0.941 . S
N740 C738 1.375 . S
N740 C739 1.347 . S
C741 C744 1.365 . S
C741 N746 1.328 . S
C741 H747 0.929 . S
C742 C743 1.362 . S
C742 C745 1.378 . S
C742 H757 0.929 . S
C743 C742 1.362 . S
C743 C744 1.366 . S
C744 C741 1.365 . S
C744 C743 1.366 . S
C744 H758 0.930 . S
C745 C742 1.378 . S
C745 N746 1.315 . S
C745 H748 0.930 . S
N746 Co726 2.194 . S
N746 C741 1.328 . S
N746 C745 1.315 . S
H747 C741 0.929 . S
H748 C745 0.930 . S
H749 C737 0.929 . S
H750 C739 0.941 . S
O751 Co726 2.351 . S
O751 C754 1.244 . S
O752 Co726 2.155 . S
O752 C754 1.240 . S
O753 Co726 2.096 . S
O753 C734 1.247 1_655 S
C754 O751 1.244 . S
C754 O752 1.240 . S
H755 C729 0.931 . S
H756 C738 0.931 . S
H757 C742 0.929 . S
H758 C744 0.930 . S
Co759 N763 2.148 . S
Co759 N769 2.128 . S
Co759 N779 2.194 . S
Co759 O784 2.351 . S
Co759 O785 2.155 . S
Co759 O786 2.096 . S
C760 N763 1.301 . S
C760 N764 1.328 . S
C760 H765 0.930 . S
C761 C762 1.333 . S
C761 N763 1.317 . S
C761 H766 0.930 . S
C762 C761 1.333 . S
C762 N764 1.350 . S
C762 H788 0.931 . S
N763 Co759 2.148 . S
N763 C760 1.301 . S
N763 C761 1.317 . S
N764 C760 1.328 . S
N764 C762 1.350 . S
H765 C760 0.930 . S
H766 C761 0.930 . S
C767 O768 1.224 . S
C767 O786 1.247 . S
O768 C767 1.224 . S
N769 Co759 2.128 . S
N769 C770 1.355 . S
N769 C772 1.311 . S
C770 N769 1.355 . S
C770 C771 1.363 . S
C770 H782 0.929 . S
C771 C770 1.363 . S
C771 N773 1.375 . S
C771 H789 0.931 . S
C772 N769 1.311 . S
C772 N773 1.347 . S
C772 H783 0.929 . S
N773 C771 1.375 . S
N773 C772 1.347 . S
C774 C777 1.365 . S
C774 N779 1.328 . S
C774 H780 0.929 . S
C775 C776 1.362 . S
C775 C778 1.378 . S
C775 H790 0.929 . S
C776 C775 1.362 . S
C776 C777 1.366 . S
C777 C774 1.365 . S
C777 C776 1.366 . S
C777 H791 0.930 . S
C778 C775 1.378 . S
C778 N779 1.315 . S
C778 H781 0.930 . S
N779 Co759 2.194 . S
N779 C774 1.328 . S
N779 C778 1.315 . S
H780 C774 0.929 . S
H781 C778 0.930 . S
H782 C770 0.929 . S
H783 C772 0.929 . S
O784 Co759 2.351 . S
O784 C787 1.244 . S
O785 Co759 2.155 . S
O785 C787 1.240 . S
O786 Co759 2.096 . S
O786 C767 1.247 . S
C787 O784 1.244 . S
C787 O785 1.240 . S
H788 C762 0.931 . S
H789 C771 0.931 . S
H790 C775 0.929 . S
H791 C777 0.930 . S
Co792 N796 2.148 . S
Co792 N802 2.128 . S
Co792 N812 2.194 . S
Co792 O817 2.351 . S
Co792 O818 2.155 . S
Co792 O819 2.096 . S
C793 N796 1.301 . S
C793 N797 1.328 . S
C793 H798 0.930 . S
C794 C795 1.333 . S
C794 N796 1.317 . S
C794 H799 0.930 . S
C795 C794 1.333 . S
C795 N797 1.350 . S
C795 H821 0.931 . S
N796 Co792 2.148 . S
N796 C793 1.301 . S
N796 C794 1.317 . S
N797 C793 1.328 . S
N797 C795 1.350 . S
H798 C793 0.930 . S
H799 C794 0.930 . S
C800 O801 1.224 . S
C800 O819 1.247 . S
O801 C800 1.224 . S
N802 Co792 2.128 . S
N802 C803 1.355 . S
N802 C805 1.311 . S
C803 N802 1.355 . S
C803 C804 1.363 . S
C803 H815 0.929 . S
C804 C803 1.363 . S
C804 N806 1.375 . S
C804 H822 0.931 . S
C805 N802 1.311 . S
C805 N806 1.347 . S
C805 H816 0.929 . S
N806 C804 1.375 . S
N806 C805 1.347 . S
C807 C810 1.365 . S
C807 N812 1.328 . S
C807 H813 0.929 . S
C808 C809 1.362 . S
C808 C811 1.378 . S
C808 H823 0.929 . S
C809 C808 1.362 . S
C809 C810 1.366 . S
C810 C807 1.365 . S
C810 C809 1.366 . S
C810 H824 0.930 . S
C811 C808 1.378 . S
C811 N812 1.315 . S
C811 H814 0.930 . S
N812 Co792 2.194 . S
N812 C807 1.328 . S
N812 C811 1.315 . S
H813 C807 0.929 . S
H814 C811 0.930 . S
H815 C803 0.929 . S
H816 C805 0.929 . S
O817 Co792 2.351 . S
O817 C820 1.244 . S
O818 Co792 2.155 . S
O818 C820 1.240 . S
O819 Co792 2.096 . S
O819 C800 1.247 . S
C820 O817 1.244 . S
C820 O818 1.240 . S
H821 C795 0.931 . S
H822 C804 0.931 . S
H823 C808 0.929 . S
H824 C810 0.930 . S
Co825 N829 2.148 . S
Co825 N835 2.128 . S
Co825 N845 2.194 . S
Co825 O850 2.351 . S
Co825 O851 2.155 . S
Co825 O852 2.096 . S
C826 N829 1.301 . S
C826 N830 1.328 . S
C826 H831 0.930 . S
C827 C828 1.333 . S
C827 N829 1.317 . S
C827 H832 0.930 . S
C828 C827 1.333 . S
C828 N830 1.350 . S
C828 H854 0.931 . S
N829 Co825 2.148 . S
N829 C826 1.301 . S
N829 C827 1.317 . S
N830 C826 1.328 . S
N830 C828 1.350 . S
H831 C826 0.930 . S
H832 C827 0.930 . S
C833 O834 1.224 . S
C833 O852 1.247 . S
O834 C833 1.224 . S
N835 Co825 2.128 . S
N835 C836 1.355 . S
N835 C838 1.311 . S
C836 N835 1.355 . S
C836 C837 1.363 . S
C836 H848 0.929 . S
C837 C836 1.363 . S
C837 N839 1.375 . S
C837 H855 0.931 . S
C838 N835 1.311 . S
C838 N839 1.347 . S
C838 H849 0.929 . S
N839 C837 1.375 . S
N839 C838 1.347 . S
C840 C843 1.365 . S
C840 N845 1.328 . S
C840 H846 0.929 . S
C841 C842 1.362 . S
C841 C844 1.378 . S
C841 H856 0.929 . S
C842 C841 1.362 . S
C842 C843 1.366 . S
C843 C840 1.365 . S
C843 C842 1.366 . S
C843 H857 0.930 . S
C844 C841 1.378 . S
C844 N845 1.315 . S
C844 H847 0.930 . S
N845 Co825 2.194 . S
N845 C840 1.328 . S
N845 C844 1.315 . S
H846 C840 0.929 . S
H847 C844 0.930 . S
H848 C836 0.929 . S
H849 C838 0.929 . S
O850 Co825 2.351 . S
O850 C853 1.244 . S
O851 Co825 2.155 . S
O851 C853 1.240 . S
O852 Co825 2.096 . S
O852 C833 1.247 . S
C853 O850 1.244 . S
C853 O851 1.240 . S
H854 C828 0.931 . S
H855 C837 0.931 . S
H856 C841 0.929 . S
H857 C843 0.930 . S
Co858 N862 2.148 . S
Co858 N868 2.128 . S
Co858 N878 2.194 . S
Co858 O883 2.351 . S
Co858 O884 2.155 . S
Co858 O885 2.096 . S
C859 N862 1.301 . S
C859 N863 1.328 . S
C859 H864 0.930 . S
C860 C861 1.333 . S
C860 N862 1.317 . S
C860 H865 0.930 . S
C861 C860 1.333 . S
C861 N863 1.350 . S
C861 H887 0.931 . S
N862 Co858 2.148 . S
N862 C859 1.301 . S
N862 C860 1.317 . S
N863 C859 1.328 . S
N863 C861 1.350 . S
H864 C859 0.930 . S
H865 C860 0.930 . S
C866 O867 1.224 . S
C866 O885 1.247 1_655 S
O867 C866 1.224 . S
N868 Co858 2.128 . S
N868 C869 1.355 . S
N868 C871 1.311 . S
C869 N868 1.355 . S
C869 C870 1.363 . S
C869 H881 0.929 . S
C870 C869 1.363 . S
C870 N872 1.375 . S
C870 H888 0.931 . S
C871 N868 1.311 . S
C871 N872 1.347 . S
C871 H882 0.940 . S
N872 C870 1.375 . S
N872 C871 1.347 . S
C873 C876 1.365 . S
C873 N878 1.328 . S
C873 H879 0.929 . S
C874 C875 1.362 . S
C874 C877 1.378 . S
C874 H889 0.929 . S
C875 C874 1.362 . S
C875 C876 1.366 . S
C876 C873 1.365 . S
C876 C875 1.366 . S
C876 H890 0.930 . S
C877 C874 1.378 . S
C877 N878 1.315 . S
C877 H880 0.930 . S
N878 Co858 2.194 . S
N878 C873 1.328 . S
N878 C877 1.315 . S
H879 C873 0.929 . S
H880 C877 0.930 . S
H881 C869 0.929 . S
H882 C871 0.940 . S
O883 Co858 2.351 . S
O883 C886 1.244 . S
O884 Co858 2.155 . S
O884 C886 1.240 . S
O885 Co858 2.096 . S
O885 C866 1.247 1_455 S
C886 O883 1.244 . S
C886 O884 1.240 . S
H887 C861 0.931 . S
H888 C870 0.931 . S
H889 C874 0.929 . S
H890 C876 0.930 . S
Co891 N895 2.148 . S
Co891 N901 2.128 . S
Co891 N911 2.194 . S
Co891 O916 2.351 . S
Co891 O917 2.155 . S
Co891 O918 2.096 . S
C892 N895 1.301 . S
C892 N896 1.328 . S
C892 H897 0.930 . S
C893 C894 1.333 . S
C893 N895 1.317 . S
C893 H898 0.930 . S
C894 C893 1.333 . S
C894 N896 1.350 . S
C894 H920 0.931 . S
N895 Co891 2.148 . S
N895 C892 1.301 . S
N895 C893 1.317 . S
N896 C892 1.328 . S
N896 C894 1.350 . S
H897 C892 0.930 . S
H898 C893 0.930 . S
C899 O900 1.224 . S
C899 O918 1.247 . S
O900 C899 1.224 . S
N901 Co891 2.128 . S
N901 C902 1.355 . S
N901 C904 1.311 . S
C902 N901 1.355 . S
C902 C903 1.363 . S
C902 H914 0.929 . S
C903 C902 1.363 . S
C903 N905 1.375 . S
C903 H921 0.931 . S
C904 N901 1.311 . S
C904 N905 1.347 . S
C904 H915 0.929 . S
N905 C903 1.375 . S
N905 C904 1.347 . S
C906 C909 1.365 . S
C906 N911 1.328 . S
C906 H912 0.929 . S
C907 C908 1.362 . S
C907 C910 1.378 . S
C907 H922 0.929 . S
C908 C907 1.362 . S
C908 C909 1.366 . S
C909 C906 1.365 . S
C909 C908 1.366 . S
C909 H923 0.930 . S
C910 C907 1.378 . S
C910 N911 1.315 . S
C910 H913 0.930 . S
N911 Co891 2.194 . S
N911 C906 1.328 . S
N911 C910 1.315 . S
H912 C906 0.929 . S
H913 C910 0.930 . S
H914 C902 0.929 . S
H915 C904 0.929 . S
O916 Co891 2.351 . S
O916 C919 1.244 . S
O917 Co891 2.155 . S
O917 C919 1.240 . S
O918 Co891 2.096 . S
O918 C899 1.247 . S
C919 O916 1.244 . S
C919 O917 1.240 . S
H920 C894 0.931 . S
H921 C903 0.931 . S
H922 C907 0.929 . S
H923 C909 0.930 . S
Co924 N928 2.148 . S
Co924 N934 2.128 . S
Co924 N944 2.194 . S
Co924 O949 2.351 . S
Co924 O950 2.155 . S
Co924 O951 2.096 . S
C925 N928 1.301 . S
C925 N929 1.328 . S
C925 H930 0.930 . S
C926 C927 1.333 . S
C926 N928 1.317 . S
C926 H931 0.930 . S
C927 C926 1.333 . S
C927 N929 1.350 . S
C927 H953 0.931 . S
N928 Co924 2.148 . S
N928 C925 1.301 . S
N928 C926 1.317 . S
N929 C925 1.328 . S
N929 C927 1.350 . S
H930 C925 0.930 . S
H931 C926 0.930 . S
C932 O933 1.224 . S
C932 O951 1.247 . S
O933 C932 1.224 . S
N934 Co924 2.128 . S
N934 C935 1.355 . S
N934 C937 1.311 . S
C935 N934 1.355 . S
C935 C936 1.363 . S
C935 H947 0.929 . S
C936 C935 1.363 . S
C936 N938 1.375 . S
C936 H954 0.931 . S
C937 N934 1.311 . S
C937 N938 1.347 . S
C937 H948 0.929 . S
N938 C936 1.375 . S
N938 C937 1.347 . S
C939 C942 1.365 . S
C939 N944 1.328 . S
C939 H945 0.929 . S
C940 C941 1.362 . S
C940 C943 1.378 . S
C940 H955 0.929 . S
C941 C940 1.362 . S
C941 C942 1.366 . S
C942 C939 1.365 . S
C942 C941 1.366 . S
C942 H956 0.930 . S
C943 C940 1.378 . S
C943 N944 1.315 . S
C943 H946 0.930 . S
N944 Co924 2.194 . S
N944 C939 1.328 . S
N944 C943 1.315 . S
H945 C939 0.929 . S
H946 C943 0.930 . S
H947 C935 0.929 . S
H948 C937 0.929 . S
O949 Co924 2.351 . S
O949 C952 1.244 . S
O950 Co924 2.155 . S
O950 C952 1.240 . S
O951 Co924 2.096 . S
O951 C932 1.247 . S
C952 O949 1.244 . S
C952 O950 1.240 . S
H953 C927 0.931 . S
H954 C936 0.931 . S
H955 C940 0.929 . S
H956 C942 0.930 . S
Co957 N961 2.148 . S
Co957 N967 2.128 . S
Co957 N977 2.194 . S
Co957 O982 2.351 . S
Co957 O983 2.155 . S
Co957 O984 2.096 . S
C958 N961 1.301 . S
C958 N962 1.328 . S
C958 H963 0.930 . S
C959 C960 1.333 . S
C959 N961 1.317 . S
C959 H964 0.930 . S
C960 C959 1.333 . S
C960 N962 1.350 . S
C960 H986 0.931 . S
N961 Co957 2.148 . S
N961 C958 1.301 . S
N961 C959 1.317 . S
N962 C958 1.328 . S
N962 C960 1.350 . S
H963 C958 0.930 . S
H964 C959 0.930 . S
C965 O966 1.224 . S
C965 O984 1.247 . S
O966 C965 1.224 . S
N967 Co957 2.128 . S
N967 C968 1.355 . S
N967 C970 1.311 . S
C968 N967 1.355 . S
C968 C969 1.363 . S
C968 H980 0.929 . S
C969 C968 1.363 . S
C969 N971 1.375 . S
C969 H987 0.931 . S
C970 N967 1.311 . S
C970 N971 1.347 . S
C970 H981 0.929 . S
N971 C969 1.375 . S
N971 C970 1.347 . S
C972 C975 1.365 . S
C972 N977 1.328 . S
C972 H978 0.929 . S
C973 C974 1.362 . S
C973 C976 1.378 . S
C973 H988 0.929 . S
C974 C973 1.362 . S
C974 C975 1.366 . S
C975 C972 1.365 . S
C975 C974 1.366 . S
C975 H989 0.930 . S
C976 C973 1.378 . S
C976 N977 1.315 . S
C976 H979 0.930 . S
N977 Co957 2.194 . S
N977 C972 1.328 . S
N977 C976 1.315 . S
H978 C972 0.929 . S
H979 C976 0.930 . S
H980 C968 0.929 . S
H981 C970 0.929 . S
O982 Co957 2.351 . S
O982 C985 1.244 . S
O983 Co957 2.155 . S
O983 C985 1.240 . S
O984 Co957 2.096 . S
O984 C965 1.247 . S
C985 O982 1.244 . S
C985 O983 1.240 . S
H986 C960 0.931 . S
H987 C969 0.931 . S
H988 C973 0.929 . S
H989 C975 0.930 . S
Co990 N994 2.148 . S
Co990 N1000 2.128 . S
Co990 N1010 2.194 . S
Co990 O1015 2.351 . S
Co990 O1016 2.155 . S
Co990 O1017 2.096 . S
C991 N994 1.301 . S
C991 N995 1.328 . S
C991 H996 0.930 . S
C992 C993 1.333 . S
C992 N994 1.317 . S
C992 H997 0.930 . S
C993 C992 1.333 . S
C993 N995 1.350 . S
C993 H1019 0.931 . S
N994 Co990 2.148 . S
N994 C991 1.301 . S
N994 C992 1.317 . S
N995 C991 1.328 . S
N995 C993 1.350 . S
H996 C991 0.930 . S
H997 C992 0.930 . S
C998 O999 1.224 . S
C998 O1017 1.247 1_655 S
O999 C998 1.224 . S
N1000 Co990 2.128 . S
N1000 C1001 1.355 . S
N1000 C1003 1.311 . S
C1001 N1000 1.355 . S
C1001 C1002 1.363 . S
C1001 H1013 0.929 . S
C1002 C1001 1.363 . S
C1002 N1004 1.375 . S
C1002 H1020 0.931 . S
C1003 N1000 1.311 . S
C1003 N1004 1.347 . S
C1003 H1014 0.941 . S
N1004 C1002 1.375 . S
N1004 C1003 1.347 . S
C1005 C1008 1.365 . S
C1005 N1010 1.328 . S
C1005 H1011 0.929 . S
C1006 C1007 1.362 . S
C1006 C1009 1.378 . S
C1006 H1021 0.929 . S
C1007 C1006 1.362 . S
C1007 C1008 1.366 . S
C1008 C1005 1.365 . S
C1008 C1007 1.366 . S
C1008 H1022 0.930 . S
C1009 C1006 1.378 . S
C1009 N1010 1.315 . S
C1009 H1012 0.930 . S
N1010 Co990 2.194 . S
N1010 C1005 1.328 . S
N1010 C1009 1.315 . S
H1011 C1005 0.929 . S
H1012 C1009 0.930 . S
H1013 C1001 0.929 . S
H1014 C1003 0.941 . S
O1015 Co990 2.351 . S
O1015 C1018 1.244 . S
O1016 Co990 2.155 . S
O1016 C1018 1.240 . S
O1017 Co990 2.096 . S
O1017 C998 1.247 1_455 S
C1018 O1015 1.244 . S
C1018 O1016 1.240 . S
H1019 C993 0.931 . S
H1020 C1002 0.931 . S
H1021 C1006 0.929 . S
H1022 C1008 0.930 . S
Co1023 N1027 2.148 . S
Co1023 N1033 2.128 . S
Co1023 N1043 2.194 . S
Co1023 O1048 2.351 . S
Co1023 O1049 2.155 . S
Co1023 O1050 2.096 . S
C1024 N1027 1.301 . S
C1024 N1028 1.328 . S
C1024 H1029 0.930 . S
C1025 C1026 1.333 . S
C1025 N1027 1.317 . S
C1025 H1030 0.930 . S
C1026 C1025 1.333 . S
C1026 N1028 1.350 . S
C1026 H1052 0.931 . S
N1027 Co1023 2.148 . S
N1027 C1024 1.301 . S
N1027 C1025 1.317 . S
N1028 C1024 1.328 . S
N1028 C1026 1.350 . S
H1029 C1024 0.930 . S
H1030 C1025 0.930 . S
C1031 O1032 1.224 . S
C1031 O1050 1.247 . S
O1032 C1031 1.224 . S
N1033 Co1023 2.128 . S
N1033 C1034 1.355 . S
N1033 C1036 1.311 . S
C1034 N1033 1.355 . S
C1034 C1035 1.363 . S
C1034 H1046 0.929 . S
C1035 C1034 1.363 . S
C1035 N1037 1.375 . S
C1035 H1053 0.931 . S
C1036 N1033 1.311 . S
C1036 N1037 1.347 . S
C1036 H1047 0.929 . S
N1037 C1035 1.375 . S
N1037 C1036 1.347 . S
C1038 C1041 1.365 . S
C1038 N1043 1.328 . S
C1038 H1044 0.929 . S
C1039 C1040 1.362 . S
C1039 C1042 1.378 . S
C1039 H1054 0.929 . S
C1040 C1039 1.362 . S
C1040 C1041 1.366 . S
C1041 C1038 1.365 . S
C1041 C1040 1.366 . S
C1041 H1055 0.930 . S
C1042 C1039 1.378 . S
C1042 N1043 1.315 . S
C1042 H1045 0.930 . S
N1043 Co1023 2.194 . S
N1043 C1038 1.328 . S
N1043 C1042 1.315 . S
H1044 C1038 0.929 . S
H1045 C1042 0.930 . S
H1046 C1034 0.929 . S
H1047 C1036 0.929 . S
O1048 Co1023 2.351 . S
O1048 C1051 1.244 . S
O1049 Co1023 2.155 . S
O1049 C1051 1.240 . S
O1050 Co1023 2.096 . S
O1050 C1031 1.247 . S
C1051 O1048 1.244 . S
C1051 O1049 1.240 . S
H1052 C1026 0.931 . S
H1053 C1035 0.931 . S
H1054 C1039 0.929 . S
H1055 C1041 0.930 . S
H1056 C1064 0.950 . S
H1057 C1069 0.950 . S
H1058 C1066 0.950 . S
H1059 C1068 0.950 . S
H1060 C1070 0.950 . S
H1061 C1072 0.950 . S
H1062 C1074 0.950 . S
H1063 C1075 0.950 . S
C1064 H1056 0.950 . S
C1064 C1065 1.386 . S
C1064 C1066 1.391 . S
C1065 C1064 1.386 . S
C1065 C1069 1.393 . S
C1066 H1058 0.950 . S
C1066 C1064 1.391 . S
C1066 C1067 1.400 . S
C1067 C1066 1.400 . S
C1067 C1068 1.398 . S
C1067 C1073 1.491 . S
C1068 H1059 0.950 . S
C1068 C1067 1.398 . S
C1068 C1069 1.391 . S
C1069 H1057 0.950 . S
C1069 C1065 1.393 . S
C1069 C1068 1.391 . S
C1070 H1060 0.950 . S
C1070 C1071 1.386 . S
C1070 C1072 1.391 . S
C1071 C1070 1.386 . S
C1071 C1075 1.393 . S
C1072 H1061 0.950 . S
C1072 C1070 1.391 . S
C1072 C1073 1.400 . S
C1073 C1067 1.491 . S
C1073 C1072 1.400 . S
C1073 C1074 1.398 . S
C1074 H1062 0.950 . S
C1074 C1073 1.398 . S
C1074 C1075 1.391 . S
C1075 H1063 0.950 . S
C1075 C1071 1.393 . S
C1075 C1074 1.391 . S
H1076 C1084 0.950 . S
H1077 C1089 0.950 . S
H1078 C1086 0.950 . S
H1079 C1088 0.950 . S
H1080 C1090 0.950 . S
H1081 C1092 0.950 . S
H1082 C1094 0.950 . S
H1083 C1095 0.950 . S
C1084 H1076 0.950 . S
C1084 C1085 1.386 . S
C1084 C1086 1.391 . S
C1085 C1084 1.386 . S
C1085 C1089 1.393 . S
C1086 H1078 0.950 . S
C1086 C1084 1.391 . S
C1086 C1087 1.400 . S
C1087 C1086 1.400 . S
C1087 C1088 1.398 . S
C1087 C1093 1.491 . S
C1088 H1079 0.950 . S
C1088 C1087 1.398 . S
C1088 C1089 1.391 . S
C1089 H1077 0.950 . S
C1089 C1085 1.393 . S
C1089 C1088 1.391 . S
C1090 H1080 0.950 . S
C1090 C1091 1.386 . S
C1090 C1092 1.391 . S
C1091 C1090 1.386 . S
C1091 C1095 1.393 . S
C1092 H1081 0.950 . S
C1092 C1090 1.391 . S
C1092 C1093 1.400 . S
C1093 C1087 1.491 . S
C1093 C1092 1.400 . S
C1093 C1094 1.398 . S
C1094 H1082 0.950 . S
C1094 C1093 1.398 . S
C1094 C1095 1.391 . S
C1095 H1083 0.950 . S
C1095 C1091 1.393 . S
C1095 C1094 1.391 . S
H1096 C1104 0.950 . S
H1097 C1109 0.950 . S
H1098 C1106 0.950 . S
H1099 C1108 0.950 . S
H1100 C1110 0.950 . S
H1101 C1112 0.950 . S
H1102 C1114 0.950 . S
H1103 C1115 0.950 . S
C1104 H1096 0.950 . S
C1104 C1105 1.386 . S
C1104 C1106 1.391 . S
C1105 C1104 1.386 . S
C1105 C1109 1.393 . S
C1106 H1098 0.950 . S
C1106 C1104 1.391 . S
C1106 C1107 1.400 . S
C1107 C1106 1.400 . S
C1107 C1108 1.398 . S
C1107 C1113 1.491 . S
C1108 H1099 0.950 . S
C1108 C1107 1.398 . S
C1108 C1109 1.391 . S
C1109 H1097 0.950 . S
C1109 C1105 1.393 . S
C1109 C1108 1.391 . S
C1110 H1100 0.950 . S
C1110 C1111 1.386 . S
C1110 C1112 1.391 . S
C1111 C1110 1.386 . S
C1111 C1115 1.393 . S
C1112 H1101 0.950 . S
C1112 C1110 1.391 . S
C1112 C1113 1.400 . S
C1113 C1107 1.491 . S
C1113 C1112 1.400 . S
C1113 C1114 1.398 . S
C1114 H1102 0.950 . S
C1114 C1113 1.398 . S
C1114 C1115 1.391 . S
C1115 H1103 0.950 . S
C1115 C1111 1.393 . S
C1115 C1114 1.391 . S
H1116 C1124 0.950 . S
H1117 C1129 0.950 . S
H1118 C1126 0.950 . S
H1119 C1128 0.950 . S
H1120 C1130 0.950 . S
H1121 C1132 0.950 . S
H1122 C1134 0.950 . S
H1123 C1135 0.950 . S
C1124 H1116 0.950 . S
C1124 C1125 1.386 . S
C1124 C1126 1.391 . S
C1125 C1124 1.386 . S
C1125 C1129 1.393 . S
C1126 H1118 0.950 . S
C1126 C1124 1.391 . S
C1126 C1127 1.400 . S
C1127 C1126 1.400 . S
C1127 C1128 1.398 . S
C1127 C1133 1.491 . S
C1128 H1119 0.950 . S
C1128 C1127 1.398 . S
C1128 C1129 1.391 . S
C1129 H1117 0.950 . S
C1129 C1125 1.393 . S
C1129 C1128 1.391 . S
C1130 H1120 0.950 . S
C1130 C1131 1.386 . S
C1130 C1132 1.391 . S
C1131 C1130 1.386 . S
C1131 C1135 1.393 . S
C1132 H1121 0.950 . S
C1132 C1130 1.391 . S
C1132 C1133 1.400 . S
C1133 C1127 1.491 . S
C1133 C1132 1.400 . S
C1133 C1134 1.398 . S
C1134 H1122 0.950 . S
C1134 C1133 1.398 . S
C1134 C1135 1.391 . S
C1135 H1123 0.950 . S
C1135 C1131 1.393 . S
C1135 C1134 1.391 . S
H1136 C1144 0.950 . S
H1137 C1149 0.950 . S
H1138 C1146 0.950 . S
H1139 C1148 0.950 . S
H1140 C1150 0.950 . S
H1141 C1152 0.950 . S
H1142 C1154 0.950 . S
H1143 C1155 0.950 . S
C1144 H1136 0.950 . S
C1144 C1145 1.386 . S
C1144 C1146 1.391 . S
C1145 C1144 1.386 . S
C1145 C1149 1.393 . S
C1146 H1138 0.950 . S
C1146 C1144 1.391 . S
C1146 C1147 1.400 . S
C1147 C1146 1.400 . S
C1147 C1148 1.398 . S
C1147 C1153 1.491 . S
C1148 H1139 0.950 . S
C1148 C1147 1.398 . S
C1148 C1149 1.391 . S
C1149 H1137 0.950 . S
C1149 C1145 1.393 . S
C1149 C1148 1.391 . S
C1150 H1140 0.950 . S
C1150 C1151 1.386 . S
C1150 C1152 1.391 . S
C1151 C1150 1.386 . S
C1151 C1155 1.393 . S
C1152 H1141 0.950 . S
C1152 C1150 1.391 . S
C1152 C1153 1.400 . S
C1153 C1147 1.491 . S
C1153 C1152 1.400 . S
C1153 C1154 1.398 . S
C1154 H1142 0.950 . S
C1154 C1153 1.398 . S
C1154 C1155 1.391 . S
C1155 H1143 0.950 . S
C1155 C1151 1.393 . S
C1155 C1154 1.391 . S
H1156 C1164 0.950 . S
H1157 C1169 0.950 . S
H1158 C1166 0.950 . S
H1159 C1168 0.950 . S
H1160 C1170 0.950 . S
H1161 C1172 0.950 . S
H1162 C1174 0.950 . S
H1163 C1175 0.950 . S
C1164 H1156 0.950 . S
C1164 C1165 1.386 . S
C1164 C1166 1.391 . S
C1165 C1164 1.386 . S
C1165 C1169 1.393 . S
C1166 H1158 0.950 . S
C1166 C1164 1.391 . S
C1166 C1167 1.400 . S
C1167 C1166 1.400 . S
C1167 C1168 1.398 . S
C1167 C1173 1.491 . S
C1168 H1159 0.950 . S
C1168 C1167 1.398 . S
C1168 C1169 1.391 . S
C1169 H1157 0.950 . S
C1169 C1165 1.393 . S
C1169 C1168 1.391 . S
C1170 H1160 0.950 . S
C1170 C1171 1.386 . S
C1170 C1172 1.391 . S
C1171 C1170 1.386 . S
C1171 C1175 1.393 . S
C1172 H1161 0.950 . S
C1172 C1170 1.391 . S
C1172 C1173 1.400 . S
C1173 C1167 1.491 . S
C1173 C1172 1.400 . S
C1173 C1174 1.398 . S
C1174 H1162 0.950 . S
C1174 C1173 1.398 . S
C1174 C1175 1.391 . S
C1175 H1163 0.950 . S
C1175 C1171 1.393 . S
C1175 C1174 1.391 . S
H1176 C1184 0.950 . S
H1177 C1189 0.950 . S
H1178 C1186 0.950 . S
H1179 C1188 0.950 . S
H1180 C1190 0.950 . S
H1181 C1192 0.950 . S
H1182 C1194 0.950 . S
H1183 C1195 0.950 . S
C1184 H1176 0.950 . S
C1184 C1185 1.386 . S
C1184 C1186 1.391 . S
C1185 C1184 1.386 . S
C1185 C1189 1.393 . S
C1186 H1178 0.950 . S
C1186 C1184 1.391 . S
C1186 C1187 1.400 . S
C1187 C1186 1.400 . S
C1187 C1188 1.398 . S
C1187 C1193 1.491 . S
C1188 H1179 0.950 . S
C1188 C1187 1.398 . S
C1188 C1189 1.391 . S
C1189 H1177 0.950 . S
C1189 C1185 1.393 . S
C1189 C1188 1.391 . S
C1190 H1180 0.950 . S
C1190 C1191 1.386 . S
C1190 C1192 1.391 . S
C1191 C1190 1.386 . S
C1191 C1195 1.393 . S
C1192 H1181 0.950 . S
C1192 C1190 1.391 . S
C1192 C1193 1.400 . S
C1193 C1187 1.491 . S
C1193 C1192 1.400 . S
C1193 C1194 1.398 . S
C1194 H1182 0.950 . S
C1194 C1193 1.398 . S
C1194 C1195 1.391 . S
C1195 H1183 0.950 . S
C1195 C1191 1.393 . S
C1195 C1194 1.391 . S
H1196 C1204 0.950 . S
H1197 C1209 0.950 . S
H1198 C1206 0.950 . S
H1199 C1208 0.950 . S
H1200 C1210 0.950 . S
H1201 C1212 0.950 . S
H1202 C1214 0.950 . S
H1203 C1215 0.950 . S
C1204 H1196 0.950 . S
C1204 C1205 1.386 . S
C1204 C1206 1.391 . S
C1205 C1204 1.386 . S
C1205 C1209 1.393 . S
C1206 H1198 0.950 . S
C1206 C1204 1.391 . S
C1206 C1207 1.400 . S
C1207 C1206 1.400 . S
C1207 C1208 1.398 . S
C1207 C1213 1.491 . S
C1208 H1199 0.950 . S
C1208 C1207 1.398 . S
C1208 C1209 1.391 . S
C1209 H1197 0.950 . S
C1209 C1205 1.393 . S
C1209 C1208 1.391 . S
C1210 H1200 0.950 . S
C1210 C1211 1.386 . S
C1210 C1212 1.391 . S
C1211 C1210 1.386 . S
C1211 C1215 1.393 . S
C1212 H1201 0.950 . S
C1212 C1210 1.391 . S
C1212 C1213 1.400 . S
C1213 C1207 1.491 . S
C1213 C1212 1.400 . S
C1213 C1214 1.398 . S
C1214 H1202 0.950 . S
C1214 C1213 1.398 . S
C1214 C1215 1.391 . S
C1215 H1203 0.950 . S
C1215 C1211 1.393 . S
C1215 C1214 1.391 . S
H1216 C1224 0.950 . S
H1217 C1229 0.950 . S
H1218 C1226 0.950 . S
H1219 C1228 0.950 . S
H1220 C1230 0.950 . S
H1221 C1232 0.950 . S
H1222 C1234 0.950 . S
H1223 C1235 0.950 . S
C1224 H1216 0.950 . S
C1224 C1225 1.386 . S
C1224 C1226 1.391 . S
C1225 C1224 1.386 . S
C1225 C1229 1.393 . S
C1226 H1218 0.950 . S
C1226 C1224 1.391 . S
C1226 C1227 1.400 . S
C1227 C1226 1.400 . S
C1227 C1228 1.398 . S
C1227 C1233 1.491 . S
C1228 H1219 0.950 . S
C1228 C1227 1.398 . S
C1228 C1229 1.391 . S
C1229 H1217 0.950 . S
C1229 C1225 1.393 . S
C1229 C1228 1.391 . S
C1230 H1220 0.950 . S
C1230 C1231 1.386 . S
C1230 C1232 1.391 . S
C1231 C1230 1.386 . S
C1231 C1235 1.393 . S
C1232 H1221 0.950 . S
C1232 C1230 1.391 . S
C1232 C1233 1.400 . S
C1233 C1227 1.491 . S
C1233 C1232 1.400 . S
C1233 C1234 1.398 . S
C1234 H1222 0.950 . S
C1234 C1233 1.398 . S
C1234 C1235 1.391 . S
C1235 H1223 0.950 . S
C1235 C1231 1.393 . S
C1235 C1234 1.391 . S
H1236 C1244 0.950 . S
H1237 C1249 0.950 . S
H1238 C1246 0.950 . S
H1239 C1248 0.950 . S
H1240 C1250 0.950 . S
H1241 C1252 0.950 . S
H1242 C1254 0.950 . S
H1243 C1255 0.950 . S
C1244 H1236 0.950 . S
C1244 C1245 1.386 . S
C1244 C1246 1.391 . S
C1245 C1244 1.386 . S
C1245 C1249 1.393 . S
C1246 H1238 0.950 . S
C1246 C1244 1.391 . S
C1246 C1247 1.400 . S
C1247 C1246 1.400 . S
C1247 C1248 1.398 . S
C1247 C1253 1.491 . S
C1248 H1239 0.950 . S
C1248 C1247 1.398 . S
C1248 C1249 1.391 . S
C1249 H1237 0.950 . S
C1249 C1245 1.393 . S
C1249 C1248 1.391 . S
C1250 H1240 0.950 . S
C1250 C1251 1.386 . S
C1250 C1252 1.391 . S
C1251 C1250 1.386 . S
C1251 C1255 1.393 . S
C1252 H1241 0.950 . S
C1252 C1250 1.391 . S
C1252 C1253 1.400 . S
C1253 C1247 1.491 . S
C1253 C1252 1.400 . S
C1253 C1254 1.398 . S
C1254 H1242 0.950 . S
C1254 C1253 1.398 . S
C1254 C1255 1.391 . S
C1255 H1243 0.950 . S
C1255 C1251 1.393 . S
C1255 C1254 1.391 . S
H1256 C1264 0.950 . S
H1257 C1269 0.950 . S
H1258 C1266 0.950 . S
H1259 C1268 0.950 . S
H1260 C1270 0.950 . S
H1261 C1272 0.950 . S
H1262 C1274 0.950 . S
H1263 C1275 0.950 . S
C1264 H1256 0.950 . S
C1264 C1265 1.386 . S
C1264 C1266 1.391 . S
C1265 C1264 1.386 . S
C1265 C1269 1.393 . S
C1266 H1258 0.950 . S
C1266 C1264 1.391 . S
C1266 C1267 1.400 . S
C1267 C1266 1.400 . S
C1267 C1268 1.398 . S
C1267 C1273 1.491 . S
C1268 H1259 0.950 . S
C1268 C1267 1.398 . S
C1268 C1269 1.391 . S
C1269 H1257 0.950 . S
C1269 C1265 1.393 . S
C1269 C1268 1.391 . S
C1270 H1260 0.950 . S
C1270 C1271 1.386 . S
C1270 C1272 1.391 . S
C1271 C1270 1.386 . S
C1271 C1275 1.393 . S
C1272 H1261 0.950 . S
C1272 C1270 1.391 . S
C1272 C1273 1.400 . S
C1273 C1267 1.491 . S
C1273 C1272 1.400 . S
C1273 C1274 1.398 . S
C1274 H1262 0.950 . S
C1274 C1273 1.398 . S
C1274 C1275 1.391 . S
C1275 H1263 0.950 . S
C1275 C1271 1.393 . S
C1275 C1274 1.391 . S
H1276 C1284 0.950 . S
H1277 C1289 0.950 . S
H1278 C1286 0.950 . S
H1279 C1288 0.950 . S
H1280 C1290 0.950 . S
H1281 C1292 0.950 . S
H1282 C1294 0.950 . S
H1283 C1295 0.950 . S
C1284 H1276 0.950 . S
C1284 C1285 1.386 . S
C1284 C1286 1.391 . S
C1285 C1284 1.386 . S
C1285 C1289 1.393 . S
C1286 H1278 0.950 . S
C1286 C1284 1.391 . S
C1286 C1287 1.400 . S
C1287 C1286 1.400 . S
C1287 C1288 1.398 . S
C1287 C1293 1.491 . S
C1288 H1279 0.950 . S
C1288 C1287 1.398 . S
C1288 C1289 1.391 . S
C1289 H1277 0.950 . S
C1289 C1285 1.393 . S
C1289 C1288 1.391 . S
C1290 H1280 0.950 . S
C1290 C1291 1.386 . S
C1290 C1292 1.391 . S
C1291 C1290 1.386 . S
C1291 C1295 1.393 . S
C1292 H1281 0.950 . S
C1292 C1290 1.391 . S
C1292 C1293 1.400 . S
C1293 C1287 1.491 . S
C1293 C1292 1.400 . S
C1293 C1294 1.398 . S
C1294 H1282 0.950 . S
C1294 C1293 1.398 . S
C1294 C1295 1.391 . S
C1295 H1283 0.950 . S
C1295 C1291 1.393 . S
C1295 C1294 1.391 . S
H1296 C1304 0.950 . S
H1297 C1309 0.950 . S
H1298 C1306 0.950 . S
H1299 C1308 0.950 . S
H1300 C1310 0.950 . S
H1301 C1312 0.950 . S
H1302 C1314 0.950 . S
H1303 C1315 0.950 . S
C1304 H1296 0.950 . S
C1304 C1305 1.386 . S
C1304 C1306 1.391 . S
C1305 C1304 1.386 . S
C1305 C1309 1.393 . S
C1306 H1298 0.950 . S
C1306 C1304 1.391 . S
C1306 C1307 1.400 . S
C1307 C1306 1.400 . S
C1307 C1308 1.398 . S
C1307 C1313 1.491 . S
C1308 H1299 0.950 . S
C1308 C1307 1.398 . S
C1308 C1309 1.391 . S
C1309 H1297 0.950 . S
C1309 C1305 1.393 . S
C1309 C1308 1.391 . S
C1310 H1300 0.950 . S
C1310 C1311 1.386 . S
C1310 C1312 1.391 . S
C1311 C1310 1.386 . S
C1311 C1315 1.393 . S
C1312 H1301 0.950 . S
C1312 C1310 1.391 . S
C1312 C1313 1.400 . S
C1313 C1307 1.491 . S
C1313 C1312 1.400 . S
C1313 C1314 1.398 . S
C1314 H1302 0.950 . S
C1314 C1313 1.398 . S
C1314 C1315 1.391 . S
C1315 H1303 0.950 . S
C1315 C1311 1.393 . S
C1315 C1314 1.391 . S
H1316 C1324 0.950 . S
H1317 C1329 0.950 . S
H1318 C1326 0.950 . S
H1319 C1328 0.950 . S
H1320 C1330 0.950 . S
H1321 C1332 0.950 . S
H1322 C1334 0.950 . S
H1323 C1335 0.950 . S
C1324 H1316 0.950 . S
C1324 C1325 1.386 . S
C1324 C1326 1.391 . S
C1325 C1324 1.386 . S
C1325 C1329 1.393 . S
C1326 H1318 0.950 . S
C1326 C1324 1.391 . S
C1326 C1327 1.400 . S
C1327 C1326 1.400 . S
C1327 C1328 1.398 . S
C1327 C1333 1.491 . S
C1328 H1319 0.950 . S
C1328 C1327 1.398 . S
C1328 C1329 1.391 . S
C1329 H1317 0.950 . S
C1329 C1325 1.393 . S
C1329 C1328 1.391 . S
C1330 H1320 0.950 . S
C1330 C1331 1.386 . S
C1330 C1332 1.391 . S
C1331 C1330 1.386 . S
C1331 C1335 1.393 . S
C1332 H1321 0.950 . S
C1332 C1330 1.391 . S
C1332 C1333 1.400 . S
C1333 C1327 1.491 . S
C1333 C1332 1.400 . S
C1333 C1334 1.398 . S
C1334 H1322 0.950 . S
C1334 C1333 1.398 . S
C1334 C1335 1.391 . S
C1335 H1323 0.950 . S
C1335 C1331 1.393 . S
C1335 C1334 1.391 . S
H1336 C1344 0.950 . S
H1337 C1349 0.950 . S
H1338 C1346 0.950 . S
H1339 C1348 0.950 . S
H1340 C1350 0.950 . S
H1341 C1352 0.950 . S
H1342 C1354 0.950 . S
H1343 C1355 0.950 . S
C1344 H1336 0.950 . S
C1344 C1345 1.386 . S
C1344 C1346 1.391 . S
C1345 C1344 1.386 . S
C1345 C1349 1.393 . S
C1346 H1338 0.950 . S
C1346 C1344 1.391 . S
C1346 C1347 1.400 . S
C1347 C1346 1.400 . S
C1347 C1348 1.398 . S
C1347 C1353 1.491 . S
C1348 H1339 0.950 . S
C1348 C1347 1.398 . S
C1348 C1349 1.391 . S
C1349 H1337 0.950 . S
C1349 C1345 1.393 . S
C1349 C1348 1.391 . S
C1350 H1340 0.950 . S
C1350 C1351 1.386 . S
C1350 C1352 1.391 . S
C1351 C1350 1.386 . S
C1351 C1355 1.393 . S
C1352 H1341 0.950 . S
C1352 C1350 1.391 . S
C1352 C1353 1.400 . S
C1353 C1347 1.491 . S
C1353 C1352 1.400 . S
C1353 C1354 1.398 . S
C1354 H1342 0.950 . S
C1354 C1353 1.398 . S
C1354 C1355 1.391 . S
C1355 H1343 0.950 . S
C1355 C1351 1.393 . S
C1355 C1354 1.391 . S
H1356 C1364 0.950 . S
H1357 C1369 0.950 . S
H1358 C1366 0.950 . S
H1359 C1368 0.950 . S
H1360 C1370 0.950 . S
H1361 C1372 0.950 . S
H1362 C1374 0.950 . S
H1363 C1375 0.950 . S
C1364 H1356 0.950 . S
C1364 C1365 1.386 . S
C1364 C1366 1.391 . S
C1365 C1364 1.386 . S
C1365 C1369 1.393 . S
C1366 H1358 0.950 . S
C1366 C1364 1.391 . S
C1366 C1367 1.400 . S
C1367 C1366 1.400 . S
C1367 C1368 1.398 . S
C1367 C1373 1.491 . S
C1368 H1359 0.950 . S
C1368 C1367 1.398 . S
C1368 C1369 1.391 . S
C1369 H1357 0.950 . S
C1369 C1365 1.393 . S
C1369 C1368 1.391 . S
C1370 H1360 0.950 . S
C1370 C1371 1.386 . S
C1370 C1372 1.391 . S
C1371 C1370 1.386 . S
C1371 C1375 1.393 . S
C1372 H1361 0.950 . S
C1372 C1370 1.391 . S
C1372 C1373 1.400 . S
C1373 C1367 1.491 . S
C1373 C1372 1.400 . S
C1373 C1374 1.398 . S
C1374 H1362 0.950 . S
C1374 C1373 1.398 . S
C1374 C1375 1.391 . S
C1375 H1363 0.950 . S
C1375 C1371 1.393 . S
C1375 C1374 1.391 . S
H1376 C1384 0.950 . S
H1377 C1389 0.950 . S
H1378 C1386 0.950 . S
H1379 C1388 0.950 . S
H1380 C1390 0.950 . S
H1381 C1392 0.950 . S
H1382 C1394 0.950 . S
H1383 C1395 0.950 . S
C1384 H1376 0.950 . S
C1384 C1385 1.386 . S
C1384 C1386 1.391 . S
C1385 C1384 1.386 . S
C1385 C1389 1.393 . S
C1386 H1378 0.950 . S
C1386 C1384 1.391 . S
C1386 C1387 1.400 . S
C1387 C1386 1.400 . S
C1387 C1388 1.398 . S
C1387 C1393 1.491 . S
C1388 H1379 0.950 . S
C1388 C1387 1.398 . S
C1388 C1389 1.391 . S
C1389 H1377 0.950 . S
C1389 C1385 1.393 . S
C1389 C1388 1.391 . S
C1390 H1380 0.950 . S
C1390 C1391 1.386 . S
C1390 C1392 1.391 . S
C1391 C1390 1.386 . S
C1391 C1395 1.393 . S
C1392 H1381 0.950 . S
C1392 C1390 1.391 . S
C1392 C1393 1.400 . S
C1393 C1387 1.491 . S
C1393 C1392 1.400 . S
C1393 C1394 1.398 . S
C1394 H1382 0.950 . S
C1394 C1393 1.398 . S
C1394 C1395 1.391 . S
C1395 H1383 0.950 . S
C1395 C1391 1.393 . S
C1395 C1394 1.391 . S
H1396 C1404 0.950 . S
H1397 C1409 0.950 . S
H1398 C1406 0.950 . S
H1399 C1408 0.950 . S
H1400 C1410 0.950 . S
H1401 C1412 0.950 . S
H1402 C1414 0.950 . S
H1403 C1415 0.950 . S
C1404 H1396 0.950 . S
C1404 C1405 1.386 . S
C1404 C1406 1.391 . S
C1405 C1404 1.386 . S
C1405 C1409 1.393 . S
C1406 H1398 0.950 . S
C1406 C1404 1.391 . S
C1406 C1407 1.400 . S
C1407 C1406 1.400 . S
C1407 C1408 1.398 . S
C1407 C1413 1.491 . S
C1408 H1399 0.950 . S
C1408 C1407 1.398 . S
C1408 C1409 1.391 . S
C1409 H1397 0.950 . S
C1409 C1405 1.393 . S
C1409 C1408 1.391 . S
C1410 H1400 0.950 . S
C1410 C1411 1.386 . S
C1410 C1412 1.391 . S
C1411 C1410 1.386 . S
C1411 C1415 1.393 . S
C1412 H1401 0.950 . S
C1412 C1410 1.391 . S
C1412 C1413 1.400 . S
C1413 C1407 1.491 . S
C1413 C1412 1.400 . S
C1413 C1414 1.398 . S
C1414 H1402 0.950 . S
C1414 C1413 1.398 . S
C1414 C1415 1.391 . S
C1415 H1403 0.950 . S
C1415 C1411 1.393 . S
C1415 C1414 1.391 . S
H1416 C1424 0.950 . S
H1417 C1429 0.950 . S
H1418 C1426 0.950 . S
H1419 C1428 0.950 . S
H1420 C1430 0.950 . S
H1421 C1432 0.950 . S
H1422 C1434 0.950 . S
H1423 C1435 0.950 . S
C1424 H1416 0.950 . S
C1424 C1425 1.386 . S
C1424 C1426 1.391 . S
C1425 C1424 1.386 . S
C1425 C1429 1.393 . S
C1426 H1418 0.950 . S
C1426 C1424 1.391 . S
C1426 C1427 1.400 . S
C1427 C1426 1.400 . S
C1427 C1428 1.398 . S
C1427 C1433 1.491 . S
C1428 H1419 0.950 . S
C1428 C1427 1.398 . S
C1428 C1429 1.391 . S
C1429 H1417 0.950 . S
C1429 C1425 1.393 . S
C1429 C1428 1.391 . S
C1430 H1420 0.950 . S
C1430 C1431 1.386 . S
C1430 C1432 1.391 . S
C1431 C1430 1.386 . S
C1431 C1435 1.393 . S
C1432 H1421 0.950 . S
C1432 C1430 1.391 . S
C1432 C1433 1.400 . S
C1433 C1427 1.491 . S
C1433 C1432 1.400 . S
C1433 C1434 1.398 . S
C1434 H1422 0.950 . S
C1434 C1433 1.398 . S
C1434 C1435 1.391 . S
C1435 H1423 0.950 . S
C1435 C1431 1.393 . S
C1435 C1434 1.391 . S
H1436 C1444 0.950 . S
H1437 C1449 0.950 . S
H1438 C1446 0.950 . S
H1439 C1448 0.950 . S
H1440 C1450 0.950 . S
H1441 C1452 0.950 . S
H1442 C1454 0.950 . S
H1443 C1455 0.950 . S
C1444 H1436 0.950 . S
C1444 C1445 1.386 . S
C1444 C1446 1.391 . S
C1445 C1444 1.386 . S
C1445 C1449 1.393 . S
C1446 H1438 0.950 . S
C1446 C1444 1.391 . S
C1446 C1447 1.400 . S
C1447 C1446 1.400 . S
C1447 C1448 1.398 . S
C1447 C1453 1.491 . S
C1448 H1439 0.950 . S
C1448 C1447 1.398 . S
C1448 C1449 1.391 . S
C1449 H1437 0.950 . S
C1449 C1445 1.393 . S
C1449 C1448 1.391 . S
C1450 H1440 0.950 . S
C1450 C1451 1.386 . S
C1450 C1452 1.391 . S
C1451 C1450 1.386 . S
C1451 C1455 1.393 . S
C1452 H1441 0.950 . S
C1452 C1450 1.391 . S
C1452 C1453 1.400 . S
C1453 C1447 1.491 . S
C1453 C1452 1.400 . S
C1453 C1454 1.398 . S
C1454 H1442 0.950 . S
C1454 C1453 1.398 . S
C1454 C1455 1.391 . S
C1455 H1443 0.950 . S
C1455 C1451 1.393 . S
C1455 C1454 1.391 . S
H1456 C1464 0.950 . S
H1457 C1469 0.950 . S
H1458 C1466 0.950 . S
H1459 C1468 0.950 . S
H1460 C1470 0.950 . S
H1461 C1472 0.950 . S
H1462 C1474 0.950 . S
H1463 C1475 0.950 . S
C1464 H1456 0.950 . S
C1464 C1465 1.386 . S
C1464 C1466 1.391 . S
C1465 C1464 1.386 . S
C1465 C1469 1.393 . S
C1466 H1458 0.950 . S
C1466 C1464 1.391 . S
C1466 C1467 1.400 . S
C1467 C1466 1.400 . S
C1467 C1468 1.398 . S
C1467 C1473 1.491 . S
C1468 H1459 0.950 . S
C1468 C1467 1.398 . S
C1468 C1469 1.391 . S
C1469 H1457 0.950 . S
C1469 C1465 1.393 . S
C1469 C1468 1.391 . S
C1470 H1460 0.950 . S
C1470 C1471 1.386 . S
C1470 C1472 1.391 . S
C1471 C1470 1.386 . S
C1471 C1475 1.393 . S
C1472 H1461 0.950 . S
C1472 C1470 1.391 . S
C1472 C1473 1.400 . S
C1473 C1467 1.491 . S
C1473 C1472 1.400 . S
C1473 C1474 1.398 . S
C1474 H1462 0.950 . S
C1474 C1473 1.398 . S
C1474 C1475 1.391 . S
C1475 H1463 0.950 . S
C1475 C1471 1.393 . S
C1475 C1474 1.391 . S
H1476 C1484 0.950 . S
H1477 C1489 0.950 . S
H1478 C1486 0.950 . S
H1479 C1488 0.950 . S
H1480 C1490 0.950 . S
H1481 C1492 0.950 . S
H1482 C1494 0.950 . S
H1483 C1495 0.950 . S
C1484 H1476 0.950 . S
C1484 C1485 1.386 . S
C1484 C1486 1.391 . S
C1485 C1484 1.386 . S
C1485 C1489 1.393 . S
C1486 H1478 0.950 . S
C1486 C1484 1.391 . S
C1486 C1487 1.400 . S
C1487 C1486 1.400 . S
C1487 C1488 1.398 . S
C1487 C1493 1.491 . S
C1488 H1479 0.950 . S
C1488 C1487 1.398 . S
C1488 C1489 1.391 . S
C1489 H1477 0.950 . S
C1489 C1485 1.393 . S
C1489 C1488 1.391 . S
C1490 H1480 0.950 . S
C1490 C1491 1.386 . S
C1490 C1492 1.391 . S
C1491 C1490 1.386 . S
C1491 C1495 1.393 . S
C1492 H1481 0.950 . S
C1492 C1490 1.391 . S
C1492 C1493 1.400 . S
C1493 C1487 1.491 . S
C1493 C1492 1.400 . S
C1493 C1494 1.398 . S
C1494 H1482 0.950 . S
C1494 C1493 1.398 . S
C1494 C1495 1.391 . S
C1495 H1483 0.950 . S
C1495 C1491 1.393 . S
C1495 C1494 1.391 . S
H1496 C1504 0.950 . S
H1497 C1509 0.950 . S
H1498 C1506 0.950 . S
H1499 C1508 0.950 . S
H1500 C1510 0.950 . S
H1501 C1512 0.950 . S
H1502 C1514 0.950 . S
H1503 C1515 0.950 . S
C1504 H1496 0.950 . S
C1504 C1505 1.386 . S
C1504 C1506 1.391 . S
C1505 C1504 1.386 . S
C1505 C1509 1.393 . S
C1506 H1498 0.950 . S
C1506 C1504 1.391 . S
C1506 C1507 1.400 . S
C1507 C1506 1.400 . S
C1507 C1508 1.398 . S
C1507 C1513 1.491 . S
C1508 H1499 0.950 . S
C1508 C1507 1.398 . S
C1508 C1509 1.391 . S
C1509 H1497 0.950 . S
C1509 C1505 1.393 . S
C1509 C1508 1.391 . S
C1510 H1500 0.950 . S
C1510 C1511 1.386 . S
C1510 C1512 1.391 . S
C1511 C1510 1.386 . S
C1511 C1515 1.393 . S
C1512 H1501 0.950 . S
C1512 C1510 1.391 . S
C1512 C1513 1.400 . S
C1513 C1507 1.491 . S
C1513 C1512 1.400 . S
C1513 C1514 1.398 . S
C1514 H1502 0.950 . S
C1514 C1513 1.398 . S
C1514 C1515 1.391 . S
C1515 H1503 0.950 . S
C1515 C1511 1.393 . S
C1515 C1514 1.391 . S
H1516 C1524 0.950 . S
H1517 C1529 0.950 . S
H1518 C1526 0.950 . S
H1519 C1528 0.950 . S
H1520 C1530 0.950 . S
H1521 C1532 0.950 . S
H1522 C1534 0.950 . S
H1523 C1535 0.950 . S
C1524 H1516 0.950 . S
C1524 C1525 1.386 . S
C1524 C1526 1.391 . S
C1525 C1524 1.386 . S
C1525 C1529 1.393 . S
C1526 H1518 0.950 . S
C1526 C1524 1.391 . S
C1526 C1527 1.400 . S
C1527 C1526 1.400 . S
C1527 C1528 1.398 . S
C1527 C1533 1.491 . S
C1528 H1519 0.950 . S
C1528 C1527 1.398 . S
C1528 C1529 1.391 . S
C1529 H1517 0.950 . S
C1529 C1525 1.393 . S
C1529 C1528 1.391 . S
C1530 H1520 0.950 . S
C1530 C1531 1.386 . S
C1530 C1532 1.391 . S
C1531 C1530 1.386 . S
C1531 C1535 1.393 . S
C1532 H1521 0.950 . S
C1532 C1530 1.391 . S
C1532 C1533 1.400 . S
C1533 C1527 1.491 . S
C1533 C1532 1.400 . S
C1533 C1534 1.398 . S
C1534 H1522 0.950 . S
C1534 C1533 1.398 . S
C1534 C1535 1.391 . S
C1535 H1523 0.950 . S
C1535 C1531 1.393 . S
C1535 C1534 1.391 . S
H1536 C1544 0.950 . S
H1537 C1549 0.950 . S
H1538 C1546 0.950 . S
H1539 C1548 0.950 . S
H1540 C1550 0.950 . S
H1541 C1552 0.950 . S
H1542 C1554 0.950 . S
H1543 C1555 0.950 . S
C1544 H1536 0.950 . S
C1544 C1545 1.386 . S
C1544 C1546 1.391 . S
C1545 C1544 1.386 . S
C1545 C1549 1.393 . S
C1546 H1538 0.950 . S
C1546 C1544 1.391 . S
C1546 C1547 1.400 . S
C1547 C1546 1.400 . S
C1547 C1548 1.398 . S
C1547 C1553 1.491 . S
C1548 H1539 0.950 . S
C1548 C1547 1.398 . S
C1548 C1549 1.391 . S
C1549 H1537 0.950 . S
C1549 C1545 1.393 . S
C1549 C1548 1.391 . S
C1550 H1540 0.950 . S
C1550 C1551 1.386 . S
C1550 C1552 1.391 . S
C1551 C1550 1.386 . S
C1551 C1555 1.393 . S
C1552 H1541 0.950 . S
C1552 C1550 1.391 . S
C1552 C1553 1.400 . S
C1553 C1547 1.491 . S
C1553 C1552 1.400 . S
C1553 C1554 1.398 . S
C1554 H1542 0.950 . S
C1554 C1553 1.398 . S
C1554 C1555 1.391 . S
C1555 H1543 0.950 . S
C1555 C1551 1.393 . S
C1555 C1554 1.391 . S
H1556 C1564 0.950 . S
H1557 C1569 0.950 . S
H1558 C1566 0.950 . S
H1559 C1568 0.950 . S
H1560 C1570 0.950 . S
H1561 C1572 0.950 . S
H1562 C1574 0.950 . S
H1563 C1575 0.950 . S
C1564 H1556 0.950 . S
C1564 C1565 1.386 . S
C1564 C1566 1.391 . S
C1565 C1564 1.386 . S
C1565 C1569 1.393 . S
C1566 H1558 0.950 . S
C1566 C1564 1.391 . S
C1566 C1567 1.400 . S
C1567 C1566 1.400 . S
C1567 C1568 1.398 . S
C1567 C1573 1.491 . S
C1568 H1559 0.950 . S
C1568 C1567 1.398 . S
C1568 C1569 1.391 . S
C1569 H1557 0.950 . S
C1569 C1565 1.393 . S
C1569 C1568 1.391 . S
C1570 H1560 0.950 . S
C1570 C1571 1.386 . S
C1570 C1572 1.391 . S
C1571 C1570 1.386 . S
C1571 C1575 1.393 . S
C1572 H1561 0.950 . S
C1572 C1570 1.391 . S
C1572 C1573 1.400 . S
C1573 C1567 1.491 . S
C1573 C1572 1.400 . S
C1573 C1574 1.398 . S
C1574 H1562 0.950 . S
C1574 C1573 1.398 . S
C1574 C1575 1.391 . S
C1575 H1563 0.950 . S
C1575 C1571 1.393 . S
C1575 C1574 1.391 . S
H1576 C1584 0.950 . S
H1577 C1589 0.950 . S
H1578 C1586 0.950 . S
H1579 C1588 0.950 . S
H1580 C1590 0.950 . S
H1581 C1592 0.950 . S
H1582 C1594 0.950 . S
H1583 C1595 0.950 . S
C1584 H1576 0.950 . S
C1584 C1585 1.386 . S
C1584 C1586 1.391 . S
C1585 C1584 1.386 . S
C1585 C1589 1.393 . S
C1586 H1578 0.950 . S
C1586 C1584 1.391 . S
C1586 C1587 1.400 . S
C1587 C1586 1.400 . S
C1587 C1588 1.398 . S
C1587 C1593 1.491 . S
C1588 H1579 0.950 . S
C1588 C1587 1.398 . S
C1588 C1589 1.391 . S
C1589 H1577 0.950 . S
C1589 C1585 1.393 . S
C1589 C1588 1.391 . S
C1590 H1580 0.950 . S
C1590 C1591 1.386 . S
C1590 C1592 1.391 . S
C1591 C1590 1.386 . S
C1591 C1595 1.393 . S
C1592 H1581 0.950 . S
C1592 C1590 1.391 . S
C1592 C1593 1.400 . S
C1593 C1587 1.491 . S
C1593 C1592 1.400 . S
C1593 C1594 1.398 . S
C1594 H1582 0.950 . S
C1594 C1593 1.398 . S
C1594 C1595 1.391 . S
C1595 H1583 0.950 . S
C1595 C1591 1.393 . S
C1595 C1594 1.391 . S
H1596 C1604 0.950 . S
H1597 C1609 0.950 . S
H1598 C1606 0.950 . S
H1599 C1608 0.950 . S
H1600 C1610 0.950 . S
H1601 C1612 0.950 . S
H1602 C1614 0.950 . S
H1603 C1615 0.950 . S
C1604 H1596 0.950 . S
C1604 C1605 1.386 . S
C1604 C1606 1.391 . S
C1605 C1604 1.386 . S
C1605 C1609 1.393 . S
C1606 H1598 0.950 . S
C1606 C1604 1.391 . S
C1606 C1607 1.400 . S
C1607 C1606 1.400 . S
C1607 C1608 1.398 . S
C1607 C1613 1.491 . S
C1608 H1599 0.950 . S
C1608 C1607 1.398 . S
C1608 C1609 1.391 . S
C1609 H1597 0.950 . S
C1609 C1605 1.393 . S
C1609 C1608 1.391 . S
C1610 H1600 0.950 . S
C1610 C1611 1.386 . S
C1610 C1612 1.391 . S
C1611 C1610 1.386 . S
C1611 C1615 1.393 . S
C1612 H1601 0.950 . S
C1612 C1610 1.391 . S
C1612 C1613 1.400 . S
C1613 C1607 1.491 . S
C1613 C1612 1.400 . S
C1613 C1614 1.398 . S
C1614 H1602 0.950 . S
C1614 C1613 1.398 . S
C1614 C1615 1.391 . S
C1615 H1603 0.950 . S
C1615 C1611 1.393 . S
C1615 C1614 1.391 . S
H1616 C1624 0.950 . S
H1617 C1629 0.950 . S
H1618 C1626 0.950 . S
H1619 C1628 0.950 . S
H1620 C1630 0.950 . S
H1621 C1632 0.950 . S
H1622 C1634 0.950 . S
H1623 C1635 0.950 . S
C1624 H1616 0.950 . S
C1624 C1625 1.386 . S
C1624 C1626 1.391 . S
C1625 C1624 1.386 . S
C1625 C1629 1.393 . S
C1626 H1618 0.950 . S
C1626 C1624 1.391 . S
C1626 C1627 1.400 . S
C1627 C1626 1.400 . S
C1627 C1628 1.398 . S
C1627 C1633 1.491 . S
C1628 H1619 0.950 . S
C1628 C1627 1.398 . S
C1628 C1629 1.391 . S
C1629 H1617 0.950 . S
C1629 C1625 1.393 . S
C1629 C1628 1.391 . S
C1630 H1620 0.950 . S
C1630 C1631 1.386 . S
C1630 C1632 1.391 . S
C1631 C1630 1.386 . S
C1631 C1635 1.393 . S
C1632 H1621 0.950 . S
C1632 C1630 1.391 . S
C1632 C1633 1.400 . S
C1633 C1627 1.491 . S
C1633 C1632 1.400 . S
C1633 C1634 1.398 . S
C1634 H1622 0.950 . S
C1634 C1633 1.398 . S
C1634 C1635 1.391 . S
C1635 H1623 0.950 . S
C1635 C1631 1.393 . S
C1635 C1634 1.391 . S
H1636 C1644 0.950 . S
H1637 C1649 0.950 . S
H1638 C1646 0.950 . S
H1639 C1648 0.950 . S
H1640 C1650 0.950 . S
H1641 C1652 0.950 . S
H1642 C1654 0.950 . S
H1643 C1655 0.950 . S
C1644 H1636 0.950 . S
C1644 C1645 1.386 . S
C1644 C1646 1.391 . S
C1645 C1644 1.386 . S
C1645 C1649 1.393 . S
C1646 H1638 0.950 . S
C1646 C1644 1.391 . S
C1646 C1647 1.400 . S
C1647 C1646 1.400 . S
C1647 C1648 1.398 . S
C1647 C1653 1.491 . S
C1648 H1639 0.950 . S
C1648 C1647 1.398 . S
C1648 C1649 1.391 . S
C1649 H1637 0.950 . S
C1649 C1645 1.393 . S
C1649 C1648 1.391 . S
C1650 H1640 0.950 . S
C1650 C1651 1.386 . S
C1650 C1652 1.391 . S
C1651 C1650 1.386 . S
C1651 C1655 1.393 . S
C1652 H1641 0.950 . S
C1652 C1650 1.391 . S
C1652 C1653 1.400 . S
C1653 C1647 1.491 . S
C1653 C1652 1.400 . S
C1653 C1654 1.398 . S
C1654 H1642 0.950 . S
C1654 C1653 1.398 . S
C1654 C1655 1.391 . S
C1655 H1643 0.950 . S
C1655 C1651 1.393 . S
C1655 C1654 1.391 . S
H1656 C1664 0.950 . S
H1657 C1669 0.950 . S
H1658 C1666 0.950 . S
H1659 C1668 0.950 . S
H1660 C1670 0.950 . S
H1661 C1672 0.950 . S
H1662 C1674 0.950 . S
H1663 C1675 0.950 . S
C1664 H1656 0.950 . S
C1664 C1665 1.386 . S
C1664 C1666 1.391 . S
C1665 C1664 1.386 . S
C1665 C1669 1.393 . S
C1666 H1658 0.950 . S
C1666 C1664 1.391 . S
C1666 C1667 1.400 . S
C1667 C1666 1.400 . S
C1667 C1668 1.398 . S
C1667 C1673 1.491 . S
C1668 H1659 0.950 . S
C1668 C1667 1.398 . S
C1668 C1669 1.391 . S
C1669 H1657 0.950 . S
C1669 C1665 1.393 . S
C1669 C1668 1.391 . S
C1670 H1660 0.950 . S
C1670 C1671 1.386 . S
C1670 C1672 1.391 . S
C1671 C1670 1.386 . S
C1671 C1675 1.393 . S
C1672 H1661 0.950 . S
C1672 C1670 1.391 . S
C1672 C1673 1.400 . S
C1673 C1667 1.491 . S
C1673 C1672 1.400 . S
C1673 C1674 1.398 . S
C1674 H1662 0.950 . S
C1674 C1673 1.398 . S
C1674 C1675 1.391 . S
C1675 H1663 0.950 . S
C1675 C1671 1.393 . S
C1675 C1674 1.391 . S
H1676 C1684 0.950 . S
H1677 C1689 0.950 . S
H1678 C1686 0.950 . S
H1679 C1688 0.950 . S
H1680 C1690 0.950 . S
H1681 C1692 0.950 . S
H1682 C1694 0.950 . S
H1683 C1695 0.950 . S
C1684 H1676 0.950 . S
C1684 C1685 1.386 . S
C1684 C1686 1.391 . S
C1685 C1684 1.386 . S
C1685 C1689 1.393 . S
C1686 H1678 0.950 . S
C1686 C1684 1.391 . S
C1686 C1687 1.400 . S
C1687 C1686 1.400 . S
C1687 C1688 1.398 . S
C1687 C1693 1.491 . S
C1688 H1679 0.950 . S
C1688 C1687 1.398 . S
C1688 C1689 1.391 . S
C1689 H1677 0.950 . S
C1689 C1685 1.393 . S
C1689 C1688 1.391 . S
C1690 H1680 0.950 . S
C1690 C1691 1.386 . S
C1690 C1692 1.391 . S
C1691 C1690 1.386 . S
C1691 C1695 1.393 . S
C1692 H1681 0.950 . S
C1692 C1690 1.391 . S
C1692 C1693 1.400 . S
C1693 C1687 1.491 . S
C1693 C1692 1.400 . S
C1693 C1694 1.398 . S
C1694 H1682 0.950 . S
C1694 C1693 1.398 . S
C1694 C1695 1.391 . S
C1695 H1683 0.950 . S
C1695 C1691 1.393 . S
C1695 C1694 1.391 . S
H1696 C1704 0.950 . S
H1697 C1709 0.950 . S
H1698 C1706 0.950 . S
H1699 C1708 0.950 . S
H1700 C1710 0.950 . S
H1701 C1712 0.950 . S
H1702 C1714 0.950 . S
H1703 C1715 0.950 . S
C1704 H1696 0.950 . S
C1704 C1705 1.386 . S
C1704 C1706 1.391 . S
C1705 C1704 1.386 . S
C1705 C1709 1.393 . S
C1706 H1698 0.950 . S
C1706 C1704 1.391 . S
C1706 C1707 1.400 . S
C1707 C1706 1.400 . S
C1707 C1708 1.398 . S
C1707 C1713 1.491 . S
C1708 H1699 0.950 . S
C1708 C1707 1.398 . S
C1708 C1709 1.391 . S
C1709 H1697 0.950 . S
C1709 C1705 1.393 . S
C1709 C1708 1.391 . S
C1710 H1700 0.950 . S
C1710 C1711 1.386 . S
C1710 C1712 1.391 . S
C1711 C1710 1.386 . S
C1711 C1715 1.393 . S
C1712 H1701 0.950 . S
C1712 C1710 1.391 . S
C1712 C1713 1.400 . S
C1713 C1707 1.491 . S
C1713 C1712 1.400 . S
C1713 C1714 1.398 . S
C1714 H1702 0.950 . S
C1714 C1713 1.398 . S
C1714 C1715 1.391 . S
C1715 H1703 0.950 . S
C1715 C1711 1.393 . S
C1715 C1714 1.391 . S
H1716 C1724 0.950 . S
H1717 C1729 0.987 . S
H1718 C1726 0.950 . S
H1719 C1728 0.950 . S
H1720 C1730 0.950 . S
H1721 C1732 0.950 . S
H1722 C1734 0.950 . S
H1723 C1735 0.950 . S
C1724 H1716 0.950 . S
C1724 C1725 1.386 . S
C1724 C1726 1.391 . S
C1725 C1724 1.386 . S
C1725 C1729 1.393 . S
C1726 H1718 0.950 . S
C1726 C1724 1.391 . S
C1726 C1727 1.400 . S
C1727 C1726 1.400 . S
C1727 C1728 1.398 . S
C1727 C1733 1.491 . S
C1728 H1719 0.950 . S
C1728 C1727 1.398 . S
C1728 C1729 1.391 . S
C1729 H1717 0.987 . S
C1729 C1725 1.393 . S
C1729 C1728 1.391 . S
C1730 H1720 0.950 . S
C1730 C1731 1.386 . S
C1730 C1732 1.391 . S
C1731 C1730 1.386 . S
C1731 C1735 1.393 . S
C1732 H1721 0.950 . S
C1732 C1730 1.391 . S
C1732 C1733 1.400 . S
C1733 C1727 1.491 . S
C1733 C1732 1.400 . S
C1733 C1734 1.398 . S
C1734 H1722 0.950 . S
C1734 C1733 1.398 . S
C1734 C1735 1.391 . S
C1735 H1723 0.950 . S
C1735 C1731 1.393 . S
C1735 C1734 1.391 . S
H1736 C1744 0.950 . S
H1737 C1749 0.950 . S
H1738 C1746 0.950 . S
H1739 C1748 0.950 . S
H1740 C1750 0.950 . S
H1741 C1752 0.950 . S
H1742 C1754 0.950 . S
H1743 C1755 0.950 . S
C1744 H1736 0.950 . S
C1744 C1745 1.386 . S
C1744 C1746 1.391 . S
C1745 C1744 1.386 . S
C1745 C1749 1.393 . S
C1746 H1738 0.950 . S
C1746 C1744 1.391 . S
C1746 C1747 1.400 . S
C1747 C1746 1.400 . S
C1747 C1748 1.398 . S
C1747 C1753 1.491 . S
C1748 H1739 0.950 . S
C1748 C1747 1.398 . S
C1748 C1749 1.391 . S
C1749 H1737 0.950 . S
C1749 C1745 1.393 . S
C1749 C1748 1.391 . S
C1750 H1740 0.950 . S
C1750 C1751 1.386 . S
C1750 C1752 1.391 . S
C1751 C1750 1.386 . S
C1751 C1755 1.393 . S
C1752 H1741 0.950 . S
C1752 C1750 1.391 . S
C1752 C1753 1.400 . S
C1753 C1747 1.491 . S
C1753 C1752 1.400 . S
C1753 C1754 1.398 . S
C1754 H1742 0.950 . S
C1754 C1753 1.398 . S
C1754 C1755 1.391 . S
C1755 H1743 0.950 . S
C1755 C1751 1.393 . S
C1755 C1754 1.391 . S
H1756 C1764 0.950 . S
H1757 C1769 0.950 . S
H1758 C1766 0.950 . S
H1759 C1768 0.950 . S
H1760 C1770 0.950 . S
H1761 C1772 0.950 . S
H1762 C1774 0.950 . S
H1763 C1775 0.958 . S
C1764 H1756 0.950 . S
C1764 C1765 1.386 . S
C1764 C1766 1.391 . S
C1765 C1764 1.386 . S
C1765 C1769 1.393 . S
C1766 H1758 0.950 . S
C1766 C1764 1.391 . S
C1766 C1767 1.400 . S
C1767 C1766 1.400 . S
C1767 C1768 1.398 . S
C1767 C1773 1.491 . S
C1768 H1759 0.950 . S
C1768 C1767 1.398 . S
C1768 C1769 1.391 . S
C1769 H1757 0.950 . S
C1769 C1765 1.393 . S
C1769 C1768 1.391 . S
C1770 H1760 0.950 . S
C1770 C1771 1.386 . S
C1770 C1772 1.391 . S
C1771 C1770 1.386 . S
C1771 C1775 1.393 . S
C1772 H1761 0.950 . S
C1772 C1770 1.391 . S
C1772 C1773 1.400 . S
C1773 C1767 1.491 . S
C1773 C1772 1.400 . S
C1773 C1774 1.398 . S
C1774 H1762 0.950 . S
C1774 C1773 1.398 . S
C1774 C1775 1.391 . S
C1775 H1763 0.958 . S
C1775 C1771 1.393 . S
C1775 C1774 1.391 . S
H1776 C1784 0.950 . S
H1777 C1789 0.950 . S
H1778 C1786 0.950 . S
H1779 C1788 0.950 . S
H1780 C1790 0.950 . S
H1781 C1792 0.950 . S
H1782 C1794 0.950 . S
H1783 C1795 0.950 . S
C1784 H1776 0.950 . S
C1784 C1785 1.386 . S
C1784 C1786 1.391 . S
C1785 C1784 1.386 . S
C1785 C1789 1.393 . S
C1786 H1778 0.950 . S
C1786 C1784 1.391 . S
C1786 C1787 1.400 . S
C1787 C1786 1.400 . S
C1787 C1788 1.398 . S
C1787 C1793 1.491 . S
C1788 H1779 0.950 . S
C1788 C1787 1.398 . S
C1788 C1789 1.391 . S
C1789 H1777 0.950 . S
C1789 C1785 1.393 . S
C1789 C1788 1.391 . S
C1790 H1780 0.950 . S
C1790 C1791 1.386 . S
C1790 C1792 1.391 . S
C1791 C1790 1.386 . S
C1791 C1795 1.393 . S
C1792 H1781 0.950 . S
C1792 C1790 1.391 . S
C1792 C1793 1.400 . S
C1793 C1787 1.491 . S
C1793 C1792 1.400 . S
C1793 C1794 1.398 . S
C1794 H1782 0.950 . S
C1794 C1793 1.398 . S
C1794 C1795 1.391 . S
C1795 H1783 0.950 . S
C1795 C1791 1.393 . S
C1795 C1794 1.391 . S
H1796 C1804 0.950 . S
H1797 C1809 0.950 . S
H1798 C1806 0.950 . S
H1799 C1808 0.950 . S
H1800 C1810 0.950 . S
H1801 C1812 0.950 . S
H1802 C1814 0.950 . S
H1803 C1815 0.950 . S
C1804 H1796 0.950 . S
C1804 C1805 1.386 . S
C1804 C1806 1.391 . S
C1805 C1804 1.386 . S
C1805 C1809 1.393 . S
C1806 H1798 0.950 . S
C1806 C1804 1.391 . S
C1806 C1807 1.400 . S
C1807 C1806 1.400 . S
C1807 C1808 1.398 . S
C1807 C1813 1.491 . S
C1808 H1799 0.950 . S
C1808 C1807 1.398 . S
C1808 C1809 1.391 . S
C1809 H1797 0.950 . S
C1809 C1805 1.393 . S
C1809 C1808 1.391 . S
C1810 H1800 0.950 . S
C1810 C1811 1.386 . S
C1810 C1812 1.391 . S
C1811 C1810 1.386 . S
C1811 C1815 1.393 . S
C1812 H1801 0.950 . S
C1812 C1810 1.391 . S
C1812 C1813 1.400 . S
C1813 C1807 1.491 . S
C1813 C1812 1.400 . S
C1813 C1814 1.398 . S
C1814 H1802 0.950 . S
C1814 C1813 1.398 . S
C1814 C1815 1.391 . S
C1815 H1803 0.950 . S
C1815 C1811 1.393 . S
C1815 C1814 1.391 . S
H1816 C1824 0.950 . S
H1817 C1829 0.950 . S
H1818 C1826 0.950 . S
H1819 C1828 0.950 . S
H1820 C1830 0.950 . S
H1821 C1832 0.950 . S
H1822 C1834 0.950 . S
H1823 C1835 0.950 . S
C1824 H1816 0.950 . S
C1824 C1825 1.386 . S
C1824 C1826 1.391 . S
C1825 C1824 1.386 . S
C1825 C1829 1.393 . S
C1826 H1818 0.950 . S
C1826 C1824 1.391 . S
C1826 C1827 1.400 . S
C1827 C1826 1.400 . S
C1827 C1828 1.398 . S
C1827 C1833 1.491 . S
C1828 H1819 0.950 . S
C1828 C1827 1.398 . S
C1828 C1829 1.391 . S
C1829 H1817 0.950 . S
C1829 C1825 1.393 . S
C1829 C1828 1.391 . S
C1830 H1820 0.950 . S
C1830 C1831 1.386 . S
C1830 C1832 1.391 . S
C1831 C1830 1.386 . S
C1831 C1835 1.393 . S
C1832 H1821 0.950 . S
C1832 C1830 1.391 . S
C1832 C1833 1.400 . S
C1833 C1827 1.491 . S
C1833 C1832 1.400 . S
C1833 C1834 1.398 . S
C1834 H1822 0.950 . S
C1834 C1833 1.398 . S
C1834 C1835 1.391 . S
C1835 H1823 0.950 . S
C1835 C1831 1.393 . S
C1835 C1834 1.391 . S
H1836 C1844 0.950 . S
H1837 C1849 0.950 . S
H1838 C1846 0.950 . S
H1839 C1848 0.950 . S
H1840 C1850 0.950 . S
H1841 C1852 0.950 . S
H1842 C1854 0.950 . S
H1843 C1855 0.950 . S
C1844 H1836 0.950 . S
C1844 C1845 1.386 . S
C1844 C1846 1.391 . S
C1845 C1844 1.386 . S
C1845 C1849 1.393 . S
C1846 H1838 0.950 . S
C1846 C1844 1.391 . S
C1846 C1847 1.400 . S
C1847 C1846 1.400 . S
C1847 C1848 1.398 . S
C1847 C1853 1.491 . S
C1848 H1839 0.950 . S
C1848 C1847 1.398 . S
C1848 C1849 1.391 . S
C1849 H1837 0.950 . S
C1849 C1845 1.393 . S
C1849 C1848 1.391 . S
C1850 H1840 0.950 . S
C1850 C1851 1.386 . S
C1850 C1852 1.391 . S
C1851 C1850 1.386 . S
C1851 C1855 1.393 . S
C1852 H1841 0.950 . S
C1852 C1850 1.391 . S
C1852 C1853 1.400 . S
C1853 C1847 1.491 . S
C1853 C1852 1.400 . S
C1853 C1854 1.398 . S
C1854 H1842 0.950 . S
C1854 C1853 1.398 . S
C1854 C1855 1.391 . S
C1855 H1843 0.950 . S
C1855 C1851 1.393 . S
C1855 C1854 1.391 . S
H1856 C1864 0.950 . S
H1857 C1869 0.950 . S
H1858 C1866 0.950 . S
H1859 C1868 0.950 . S
H1860 C1870 0.950 . S
H1861 C1872 0.950 . S
H1862 C1874 0.950 . S
H1863 C1875 0.950 . S
C1864 H1856 0.950 . S
C1864 C1865 1.386 . S
C1864 C1866 1.391 . S
C1865 C1864 1.386 . S
C1865 C1869 1.393 . S
C1866 H1858 0.950 . S
C1866 C1864 1.391 . S
C1866 C1867 1.400 . S
C1867 C1866 1.400 . S
C1867 C1868 1.398 . S
C1867 C1873 1.491 . S
C1868 H1859 0.950 . S
C1868 C1867 1.398 . S
C1868 C1869 1.391 . S
C1869 H1857 0.950 . S
C1869 C1865 1.393 . S
C1869 C1868 1.391 . S
C1870 H1860 0.950 . S
C1870 C1871 1.386 . S
C1870 C1872 1.391 . S
C1871 C1870 1.386 . S
C1871 C1875 1.393 . S
C1872 H1861 0.950 . S
C1872 C1870 1.391 . S
C1872 C1873 1.400 . S
C1873 C1867 1.491 . S
C1873 C1872 1.400 . S
C1873 C1874 1.398 . S
C1874 H1862 0.950 . S
C1874 C1873 1.398 . S
C1874 C1875 1.391 . S
C1875 H1863 0.950 . S
C1875 C1871 1.393 . S
C1875 C1874 1.391 . S
H1876 C1884 0.950 . S
H1877 C1889 0.950 . S
H1878 C1886 0.950 . S
H1879 C1888 0.950 . S
H1880 C1890 0.950 . S
H1881 C1892 0.950 . S
H1882 C1894 0.950 . S
H1883 C1895 0.950 . S
C1884 H1876 0.950 . S
C1884 C1885 1.386 . S
C1884 C1886 1.391 . S
C1885 C1884 1.386 . S
C1885 C1889 1.393 . S
C1886 H1878 0.950 . S
C1886 C1884 1.391 . S
C1886 C1887 1.400 . S
C1887 C1886 1.400 . S
C1887 C1888 1.398 . S
C1887 C1893 1.491 . S
C1888 H1879 0.950 . S
C1888 C1887 1.398 . S
C1888 C1889 1.391 . S
C1889 H1877 0.950 . S
C1889 C1885 1.393 . S
C1889 C1888 1.391 . S
C1890 H1880 0.950 . S
C1890 C1891 1.386 . S
C1890 C1892 1.391 . S
C1891 C1890 1.386 . S
C1891 C1895 1.393 . S
C1892 H1881 0.950 . S
C1892 C1890 1.391 . S
C1892 C1893 1.400 . S
C1893 C1887 1.491 . S
C1893 C1892 1.400 . S
C1893 C1894 1.398 . S
C1894 H1882 0.950 . S
C1894 C1893 1.398 . S
C1894 C1895 1.391 . S
C1895 H1883 0.950 . S
C1895 C1891 1.393 . S
C1895 C1894 1.391 . S
H1896 C1904 0.950 . S
H1897 C1909 0.950 . S
H1898 C1906 0.950 . S
H1899 C1908 0.950 . S
H1900 C1910 0.950 . S
H1901 C1912 0.950 . S
H1902 C1914 0.950 . S
H1903 C1915 0.950 . S
C1904 H1896 0.950 . S
C1904 C1905 1.386 . S
C1904 C1906 1.391 . S
C1905 C1904 1.386 . S
C1905 C1909 1.393 . S
C1906 H1898 0.950 . S
C1906 C1904 1.391 . S
C1906 C1907 1.400 . S
C1907 C1906 1.400 . S
C1907 C1908 1.398 . S
C1907 C1913 1.491 . S
C1908 H1899 0.950 . S
C1908 C1907 1.398 . S
C1908 C1909 1.391 . S
C1909 H1897 0.950 . S
C1909 C1905 1.393 . S
C1909 C1908 1.391 . S
C1910 H1900 0.950 . S
C1910 C1911 1.386 . S
C1910 C1912 1.391 . S
C1911 C1910 1.386 . S
C1911 C1915 1.393 . S
C1912 H1901 0.950 . S
C1912 C1910 1.391 . S
C1912 C1913 1.400 . S
C1913 C1907 1.491 . S
C1913 C1912 1.400 . S
C1913 C1914 1.398 . S
C1914 H1902 0.950 . S
C1914 C1913 1.398 . S
C1914 C1915 1.391 . S
C1915 H1903 0.950 . S
C1915 C1911 1.393 . S
C1915 C1914 1.391 . S
H1916 C1924 0.950 . S
H1917 C1929 0.950 . S
H1918 C1926 0.950 . S
H1919 C1928 0.950 . S
H1920 C1930 0.950 . S
H1921 C1932 0.950 . S
H1922 C1934 0.950 . S
H1923 C1935 0.950 . S
C1924 H1916 0.950 . S
C1924 C1925 1.386 . S
C1924 C1926 1.391 . S
C1925 C1924 1.386 . S
C1925 C1929 1.393 . S
C1926 H1918 0.950 . S
C1926 C1924 1.391 . S
C1926 C1927 1.400 . S
C1927 C1926 1.400 . S
C1927 C1928 1.398 . S
C1927 C1933 1.491 . S
C1928 H1919 0.950 . S
C1928 C1927 1.398 . S
C1928 C1929 1.391 . S
C1929 H1917 0.950 . S
C1929 C1925 1.393 . S
C1929 C1928 1.391 . S
C1930 H1920 0.950 . S
C1930 C1931 1.386 . S
C1930 C1932 1.391 . S
C1931 C1930 1.386 . S
C1931 C1935 1.393 . S
C1932 H1921 0.950 . S
C1932 C1930 1.391 . S
C1932 C1933 1.400 . S
C1933 C1927 1.491 . S
C1933 C1932 1.400 . S
C1933 C1934 1.398 . S
C1934 H1922 0.950 . S
C1934 C1933 1.398 . S
C1934 C1935 1.391 . S
C1935 H1923 0.950 . S
C1935 C1931 1.393 . S
C1935 C1934 1.391 . S
H1936 C1944 0.950 . S
H1937 C1949 0.950 . S
H1938 C1946 0.950 . S
H1939 C1948 0.950 . S
H1940 C1950 0.950 . S
H1941 C1952 0.950 . S
H1942 C1954 0.950 . S
H1943 C1955 0.950 . S
C1944 H1936 0.950 . S
C1944 C1945 1.386 . S
C1944 C1946 1.391 . S
C1945 C1944 1.386 . S
C1945 C1949 1.393 . S
C1946 H1938 0.950 . S
C1946 C1944 1.391 . S
C1946 C1947 1.400 . S
C1947 C1946 1.400 . S
C1947 C1948 1.398 . S
C1947 C1953 1.491 . S
C1948 H1939 0.950 . S
C1948 C1947 1.398 . S
C1948 C1949 1.391 . S
C1949 H1937 0.950 . S
C1949 C1945 1.393 . S
C1949 C1948 1.391 . S
C1950 H1940 0.950 . S
C1950 C1951 1.386 . S
C1950 C1952 1.391 . S
C1951 C1950 1.386 . S
C1951 C1955 1.393 . S
C1952 H1941 0.950 . S
C1952 C1950 1.391 . S
C1952 C1953 1.400 . S
C1953 C1947 1.491 . S
C1953 C1952 1.400 . S
C1953 C1954 1.398 . S
C1954 H1942 0.950 . S
C1954 C1953 1.398 . S
C1954 C1955 1.391 . S
C1955 H1943 0.950 . S
C1955 C1951 1.393 . S
C1955 C1954 1.391 . S
H1956 C1964 0.950 . S
H1957 C1969 0.950 . S
H1958 C1966 0.950 . S
H1959 C1968 0.950 . S
H1960 C1970 0.950 . S
H1961 C1972 0.950 . S
H1962 C1974 0.950 . S
H1963 C1975 0.950 . S
C1964 H1956 0.950 . S
C1964 C1965 1.386 . S
C1964 C1966 1.391 . S
C1965 C1964 1.386 . S
C1965 C1969 1.393 . S
C1966 H1958 0.950 . S
C1966 C1964 1.391 . S
C1966 C1967 1.400 . S
C1967 C1966 1.400 . S
C1967 C1968 1.398 . S
C1967 C1973 1.491 . S
C1968 H1959 0.950 . S
C1968 C1967 1.398 . S
C1968 C1969 1.391 . S
C1969 H1957 0.950 . S
C1969 C1965 1.393 . S
C1969 C1968 1.391 . S
C1970 H1960 0.950 . S
C1970 C1971 1.386 . S
C1970 C1972 1.391 . S
C1971 C1970 1.386 . S
C1971 C1975 1.393 . S
C1972 H1961 0.950 . S
C1972 C1970 1.391 . S
C1972 C1973 1.400 . S
C1973 C1967 1.491 . S
C1973 C1972 1.400 . S
C1973 C1974 1.398 . S
C1974 H1962 0.950 . S
C1974 C1973 1.398 . S
C1974 C1975 1.391 . S
C1975 H1963 0.950 . S
C1975 C1971 1.393 . S
C1975 C1974 1.391 . S
H1976 C1984 0.950 . S
H1977 C1989 0.950 . S
H1978 C1986 0.950 . S
H1979 C1988 0.950 . S
H1980 C1990 0.950 . S
H1981 C1992 0.950 . S
H1982 C1994 0.950 . S
H1983 C1995 0.950 . S
C1984 H1976 0.950 . S
C1984 C1985 1.386 . S
C1984 C1986 1.391 . S
C1985 C1984 1.386 . S
C1985 C1989 1.393 . S
C1986 H1978 0.950 . S
C1986 C1984 1.391 . S
C1986 C1987 1.400 . S
C1987 C1986 1.400 . S
C1987 C1988 1.398 . S
C1987 C1993 1.491 . S
C1988 H1979 0.950 . S
C1988 C1987 1.398 . S
C1988 C1989 1.391 . S
C1989 H1977 0.950 . S
C1989 C1985 1.393 . S
C1989 C1988 1.391 . S
C1990 H1980 0.950 . S
C1990 C1991 1.386 . S
C1990 C1992 1.391 . S
C1991 C1990 1.386 . S
C1991 C1995 1.393 . S
C1992 H1981 0.950 . S
C1992 C1990 1.391 . S
C1992 C1993 1.400 . S
C1993 C1987 1.491 . S
C1993 C1992 1.400 . S
C1993 C1994 1.398 . S
C1994 H1982 0.950 . S
C1994 C1993 1.398 . S
C1994 C1995 1.391 . S
C1995 H1983 0.950 . S
C1995 C1991 1.393 . S
C1995 C1994 1.391 . S
H1996 C2004 0.950 . S
H1997 C2009 0.950 . S
H1998 C2006 0.950 . S
H1999 C2008 0.950 . S
H2000 C2010 0.950 . S
H2001 C2012 0.950 . S
H2002 C2014 0.950 . S
H2003 C2015 0.950 . S
C2004 H1996 0.950 . S
C2004 C2005 1.386 . S
C2004 C2006 1.391 . S
C2005 C2004 1.386 . S
C2005 C2009 1.393 . S
C2006 H1998 0.950 . S
C2006 C2004 1.391 . S
C2006 C2007 1.400 . S
C2007 C2006 1.400 . S
C2007 C2008 1.398 . S
C2007 C2013 1.491 . S
C2008 H1999 0.950 . S
C2008 C2007 1.398 . S
C2008 C2009 1.391 . S
C2009 H1997 0.950 . S
C2009 C2005 1.393 . S
C2009 C2008 1.391 . S
C2010 H2000 0.950 . S
C2010 C2011 1.386 . S
C2010 C2012 1.391 . S
C2011 C2010 1.386 . S
C2011 C2015 1.393 . S
C2012 H2001 0.950 . S
C2012 C2010 1.391 . S
C2012 C2013 1.400 . S
C2013 C2007 1.491 . S
C2013 C2012 1.400 . S
C2013 C2014 1.398 . S
C2014 H2002 0.950 . S
C2014 C2013 1.398 . S
C2014 C2015 1.391 . S
C2015 H2003 0.950 . S
C2015 C2011 1.393 . S
C2015 C2014 1.391 . S
H2016 C2024 0.950 . S
H2017 C2029 0.962 . S
H2018 C2026 0.950 . S
H2019 C2028 0.950 . S
H2020 C2030 0.950 . S
H2021 C2032 0.950 . S
H2022 C2034 0.950 . S
H2023 C2035 0.963 . S
C2024 H2016 0.950 . S
C2024 C2025 1.386 . S
C2024 C2026 1.391 . S
C2025 C2024 1.386 . S
C2025 C2029 1.373 1_545 S
C2026 H2018 0.950 . S
C2026 C2024 1.391 . S
C2026 C2027 1.400 . S
C2027 C2026 1.400 . S
C2027 C2028 1.398 1_545 S
C2027 C2033 1.491 1_545 S
C2028 H2019 0.950 . S
C2028 C2027 1.398 1_565 S
C2028 C2029 1.399 . S
C2029 H2017 0.962 . S
C2029 C2025 1.373 1_565 S
C2029 C2028 1.399 . S
C2030 H2020 0.950 . S
C2030 C2031 1.386 . S
C2030 C2032 1.391 . S
C2031 C2030 1.386 . S
C2031 C2035 1.373 1_565 S
C2032 H2021 0.950 . S
C2032 C2030 1.391 . S
C2032 C2033 1.400 . S
C2033 C2027 1.491 1_565 S
C2033 C2032 1.400 . S
C2033 C2034 1.398 1_565 S
C2034 H2022 0.950 . S
C2034 C2033 1.398 1_545 S
C2034 C2035 1.399 . S
C2035 H2023 0.963 . S
C2035 C2031 1.373 1_545 S
C2035 C2034 1.399 . S
H2036 C2044 0.950 . S
H2037 C2049 0.950 . S
H2038 C2046 0.950 . S
H2039 C2048 0.950 . S
H2040 C2050 0.950 . S
H2041 C2052 0.950 . S
H2042 C2054 0.950 . S
H2043 C2055 0.950 . S
C2044 H2036 0.950 . S
C2044 C2045 1.386 . S
C2044 C2046 1.391 . S
C2045 C2044 1.386 . S
C2045 C2049 1.393 . S
C2046 H2038 0.950 . S
C2046 C2044 1.391 . S
C2046 C2047 1.400 . S
C2047 C2046 1.400 . S
C2047 C2048 1.398 . S
C2047 C2053 1.491 . S
C2048 H2039 0.950 . S
C2048 C2047 1.398 . S
C2048 C2049 1.391 . S
C2049 H2037 0.950 . S
C2049 C2045 1.393 . S
C2049 C2048 1.391 . S
C2050 H2040 0.950 . S
C2050 C2051 1.386 . S
C2050 C2052 1.391 . S
C2051 C2050 1.386 . S
C2051 C2055 1.393 . S
C2052 H2041 0.950 . S
C2052 C2050 1.391 . S
C2052 C2053 1.400 . S
C2053 C2047 1.491 . S
C2053 C2052 1.400 . S
C2053 C2054 1.398 . S
C2054 H2042 0.950 . S
C2054 C2053 1.398 . S
C2054 C2055 1.391 . S
C2055 H2043 0.950 . S
C2055 C2051 1.393 . S
C2055 C2054 1.391 . S
H2056 C2064 0.950 . S
H2057 C2069 0.950 . S
H2058 C2066 0.950 . S
H2059 C2068 0.950 . S
H2060 C2070 0.950 . S
H2061 C2072 0.950 . S
H2062 C2074 0.950 . S
H2063 C2075 0.950 . S
C2064 H2056 0.950 . S
C2064 C2065 1.386 . S
C2064 C2066 1.391 . S
C2065 C2064 1.386 . S
C2065 C2069 1.393 1_545 S
C2066 H2058 0.950 . S
C2066 C2064 1.391 . S
C2066 C2067 1.400 . S
C2067 C2066 1.400 . S
C2067 C2068 1.398 1_545 S
C2067 C2073 1.491 1_545 S
C2068 H2059 0.950 . S
C2068 C2067 1.398 1_565 S
C2068 C2069 1.391 . S
C2069 H2057 0.950 . S
C2069 C2065 1.393 1_565 S
C2069 C2068 1.391 . S
C2070 H2060 0.950 . S
C2070 C2071 1.386 . S
C2070 C2072 1.391 . S
C2071 C2070 1.386 . S
C2071 C2075 1.393 1_565 S
C2072 H2061 0.950 . S
C2072 C2070 1.391 . S
C2072 C2073 1.400 . S
C2073 C2067 1.491 1_565 S
C2073 C2072 1.400 . S
C2073 C2074 1.398 1_565 S
C2074 H2062 0.950 . S
C2074 C2073 1.398 1_545 S
C2074 C2075 1.391 . S
C2075 H2063 0.950 . S
C2075 C2071 1.393 1_545 S
C2075 C2074 1.391 . S
H2076 C2084 0.950 . S
H2077 C2089 0.950 . S
H2078 C2086 0.950 . S
H2079 C2088 0.950 . S
H2080 C2090 0.950 . S
H2081 C2092 0.950 . S
H2082 C2094 0.950 . S
H2083 C2095 0.950 . S
C2084 H2076 0.950 . S
C2084 C2085 1.386 . S
C2084 C2086 1.391 . S
C2085 C2084 1.386 . S
C2085 C2089 1.393 . S
C2086 H2078 0.950 . S
C2086 C2084 1.391 . S
C2086 C2087 1.400 . S
C2087 C2086 1.400 . S
C2087 C2088 1.398 . S
C2087 C2093 1.491 1_556 S
C2088 H2079 0.950 . S
C2088 C2087 1.398 . S
C2088 C2089 1.391 . S
C2089 H2077 0.950 . S
C2089 C2085 1.393 . S
C2089 C2088 1.391 . S
C2090 H2080 0.950 . S
C2090 C2091 1.386 . S
C2090 C2092 1.391 . S
C2091 C2090 1.386 . S
C2091 C2095 1.393 . S
C2092 H2081 0.950 . S
C2092 C2090 1.391 . S
C2092 C2093 1.400 . S
C2093 C2087 1.491 1_554 S
C2093 C2092 1.400 . S
C2093 C2094 1.398 . S
C2094 H2082 0.950 . S
C2094 C2093 1.398 . S
C2094 C2095 1.391 . S
C2095 H2083 0.950 . S
C2095 C2091 1.393 . S
C2095 C2094 1.391 . S
H2096 C2104 0.950 . S
H2097 C2109 0.950 . S
H2098 C2106 0.950 . S
H2099 C2108 0.950 . S
H2100 C2110 0.950 . S
H2101 C2112 0.950 . S
H2102 C2114 0.950 . S
H2103 C2115 0.950 . S
C2104 H2096 0.950 . S
C2104 C2105 1.386 . S
C2104 C2106 1.391 . S
C2105 C2104 1.386 . S
C2105 C2109 1.393 . S
C2106 H2098 0.950 . S
C2106 C2104 1.391 . S
C2106 C2107 1.400 . S
C2107 C2106 1.400 . S
C2107 C2108 1.398 . S
C2107 C2113 1.491 1_565 S
C2108 H2099 0.950 . S
C2108 C2107 1.398 . S
C2108 C2109 1.391 . S
C2109 H2097 0.950 . S
C2109 C2105 1.393 . S
C2109 C2108 1.391 . S
C2110 H2100 0.950 . S
C2110 C2111 1.386 . S
C2110 C2112 1.391 . S
C2111 C2110 1.386 . S
C2111 C2115 1.393 . S
C2112 H2101 0.950 . S
C2112 C2110 1.391 . S
C2112 C2113 1.400 . S
C2113 C2107 1.491 1_545 S
C2113 C2112 1.400 . S
C2113 C2114 1.398 . S
C2114 H2102 0.950 . S
C2114 C2113 1.398 . S
C2114 C2115 1.391 . S
C2115 H2103 0.950 . S
C2115 C2111 1.393 . S
C2115 C2114 1.391 . S
H2116 C2124 0.950 . S
H2117 C2129 0.950 . S
H2118 C2126 0.950 . S
H2119 C2128 0.950 . S
H2120 C2130 0.950 . S
H2121 C2132 0.950 . S
H2122 C2134 0.950 . S
H2123 C2135 0.950 . S
C2124 H2116 0.950 . S
C2124 C2125 1.386 . S
C2124 C2126 1.391 . S
C2125 C2124 1.386 . S
C2125 C2129 1.393 . S
C2126 H2118 0.950 . S
C2126 C2124 1.391 . S
C2126 C2127 1.400 . S
C2127 C2126 1.400 . S
C2127 C2128 1.398 . S
C2127 C2133 1.491 . S
C2128 H2119 0.950 . S
C2128 C2127 1.398 . S
C2128 C2129 1.391 . S
C2129 H2117 0.950 . S
C2129 C2125 1.393 . S
C2129 C2128 1.391 . S
C2130 H2120 0.950 . S
C2130 C2131 1.386 . S
C2130 C2132 1.391 . S
C2131 C2130 1.386 . S
C2131 C2135 1.393 . S
C2132 H2121 0.950 . S
C2132 C2130 1.391 . S
C2132 C2133 1.400 . S
C2133 C2127 1.491 . S
C2133 C2132 1.400 . S
C2133 C2134 1.398 . S
C2134 H2122 0.950 . S
C2134 C2133 1.398 . S
C2134 C2135 1.391 . S
C2135 H2123 0.950 . S
C2135 C2131 1.393 . S
C2135 C2134 1.391 . S
H2136 C2144 0.950 . S
H2137 C2149 0.950 . S
H2138 C2146 0.950 . S
H2139 C2148 0.950 . S
H2140 C2150 0.950 . S
H2141 C2152 0.950 . S
H2142 C2154 0.950 . S
H2143 C2155 0.950 . S
C2144 H2136 0.950 . S
C2144 C2145 1.386 . S
C2144 C2146 1.391 . S
C2145 C2144 1.386 . S
C2145 C2149 1.393 1_545 S
C2146 H2138 0.950 . S
C2146 C2144 1.391 . S
C2146 C2147 1.400 . S
C2147 C2146 1.400 . S
C2147 C2148 1.398 1_545 S
C2147 C2153 1.491 1_545 S
C2148 H2139 0.950 . S
C2148 C2147 1.398 1_565 S
C2148 C2149 1.391 . S
C2149 H2137 0.950 . S
C2149 C2145 1.393 1_565 S
C2149 C2148 1.391 . S
C2150 H2140 0.950 . S
C2150 C2151 1.386 . S
C2150 C2152 1.391 . S
C2151 C2150 1.386 . S
C2151 C2155 1.393 1_565 S
C2152 H2141 0.950 . S
C2152 C2150 1.391 . S
C2152 C2153 1.400 . S
C2153 C2147 1.491 1_565 S
C2153 C2152 1.400 . S
C2153 C2154 1.398 1_565 S
C2154 H2142 0.950 . S
C2154 C2153 1.398 1_545 S
C2154 C2155 1.391 . S
C2155 H2143 0.950 . S
C2155 C2151 1.393 1_545 S
C2155 C2154 1.391 . S
H2156 C2164 0.950 . S
H2157 C2169 0.950 . S
H2158 C2166 0.950 . S
H2159 C2168 0.950 . S
H2160 C2170 0.950 . S
H2161 C2172 0.950 . S
H2162 C2174 0.950 . S
H2163 C2175 0.950 . S
C2164 H2156 0.950 . S
C2164 C2165 1.386 . S
C2164 C2166 1.391 . S
C2165 C2164 1.386 . S
C2165 C2169 1.393 . S
C2166 H2158 0.950 . S
C2166 C2164 1.391 . S
C2166 C2167 1.400 . S
C2167 C2166 1.400 . S
C2167 C2168 1.398 . S
C2167 C2173 1.491 1_554 S
C2168 H2159 0.950 . S
C2168 C2167 1.398 . S
C2168 C2169 1.391 . S
C2169 H2157 0.950 . S
C2169 C2165 1.393 . S
C2169 C2168 1.391 . S
C2170 H2160 0.950 . S
C2170 C2171 1.386 . S
C2170 C2172 1.391 . S
C2171 C2170 1.386 . S
C2171 C2175 1.393 . S
C2172 H2161 0.950 . S
C2172 C2170 1.391 . S
C2172 C2173 1.400 . S
C2173 C2167 1.491 1_556 S
C2173 C2172 1.400 . S
C2173 C2174 1.398 . S
C2174 H2162 0.950 . S
C2174 C2173 1.398 . S
C2174 C2175 1.391 . S
C2175 H2163 0.950 . S
C2175 C2171 1.393 . S
C2175 C2174 1.391 . S
H2176 C2184 0.950 . S
H2177 C2189 0.950 . S
H2178 C2186 0.950 . S
H2179 C2188 0.950 . S
H2180 C2190 0.950 . S
H2181 C2192 0.950 . S
H2182 C2194 0.950 . S
H2183 C2195 0.950 . S
C2184 H2176 0.950 . S
C2184 C2185 1.386 . S
C2184 C2186 1.391 . S
C2185 C2184 1.386 . S
C2185 C2189 1.393 . S
C2186 H2178 0.950 . S
C2186 C2184 1.391 . S
C2186 C2187 1.400 . S
C2187 C2186 1.400 . S
C2187 C2188 1.398 . S
C2187 C2193 1.491 . S
C2188 H2179 0.950 . S
C2188 C2187 1.398 . S
C2188 C2189 1.391 . S
C2189 H2177 0.950 . S
C2189 C2185 1.393 . S
C2189 C2188 1.391 . S
C2190 H2180 0.950 . S
C2190 C2191 1.386 . S
C2190 C2192 1.391 . S
C2191 C2190 1.386 . S
C2191 C2195 1.393 . S
C2192 H2181 0.950 . S
C2192 C2190 1.391 . S
C2192 C2193 1.400 . S
C2193 C2187 1.491 . S
C2193 C2192 1.400 . S
C2193 C2194 1.398 . S
C2194 H2182 0.950 . S
C2194 C2193 1.398 . S
C2194 C2195 1.391 . S
C2195 H2183 0.950 . S
C2195 C2191 1.393 . S
C2195 C2194 1.391 . S
H2196 C2204 0.950 . S
H2197 C2209 0.950 . S
H2198 C2206 0.950 . S
H2199 C2208 0.950 . S
H2200 C2210 0.950 . S
H2201 C2212 0.950 . S
H2202 C2214 0.950 . S
H2203 C2215 0.950 . S
C2204 H2196 0.950 . S
C2204 C2205 1.386 . S
C2204 C2206 1.391 . S
C2205 C2204 1.386 . S
C2205 C2209 1.393 . S
C2206 H2198 0.950 . S
C2206 C2204 1.391 . S
C2206 C2207 1.400 . S
C2207 C2206 1.400 . S
C2207 C2208 1.398 . S
C2207 C2213 1.491 1_554 S
C2208 H2199 0.950 . S
C2208 C2207 1.398 . S
C2208 C2209 1.391 . S
C2209 H2197 0.950 . S
C2209 C2205 1.393 . S
C2209 C2208 1.391 . S
C2210 H2200 0.950 . S
C2210 C2211 1.386 . S
C2210 C2212 1.391 . S
C2211 C2210 1.386 . S
C2211 C2215 1.393 . S
C2212 H2201 0.950 . S
C2212 C2210 1.391 . S
C2212 C2213 1.400 . S
C2213 C2207 1.491 1_556 S
C2213 C2212 1.400 . S
C2213 C2214 1.398 . S
C2214 H2202 0.950 . S
C2214 C2213 1.398 . S
C2214 C2215 1.391 . S
C2215 H2203 0.950 . S
C2215 C2211 1.393 . S
C2215 C2214 1.391 . S
H2216 C2224 0.950 . S
H2217 C2229 0.950 . S
H2218 C2226 0.950 . S
H2219 C2228 0.950 . S
H2220 C2230 0.950 . S
H2221 C2232 0.950 . S
H2222 C2234 0.950 . S
H2223 C2235 0.950 . S
C2224 H2216 0.950 . S
C2224 C2225 1.386 . S
C2224 C2226 1.391 . S
C2225 C2224 1.386 . S
C2225 C2229 1.393 . S
C2226 H2218 0.950 . S
C2226 C2224 1.391 . S
C2226 C2227 1.400 . S
C2227 C2226 1.400 . S
C2227 C2228 1.398 . S
C2227 C2233 1.491 . S
C2228 H2219 0.950 . S
C2228 C2227 1.398 . S
C2228 C2229 1.391 . S
C2229 H2217 0.950 . S
C2229 C2225 1.393 . S
C2229 C2228 1.391 . S
C2230 H2220 0.950 . S
C2230 C2231 1.386 . S
C2230 C2232 1.391 . S
C2231 C2230 1.386 . S
C2231 C2235 1.393 . S
C2232 H2221 0.950 . S
C2232 C2230 1.391 . S
C2232 C2233 1.400 . S
C2233 C2227 1.491 . S
C2233 C2232 1.400 . S
C2233 C2234 1.398 . S
C2234 H2222 0.950 . S
C2234 C2233 1.398 . S
C2234 C2235 1.391 . S
C2235 H2223 0.950 . S
C2235 C2231 1.393 . S
C2235 C2234 1.391 . S
H2236 C2244 0.950 . S
H2237 C2249 0.950 . S
H2238 C2246 0.950 . S
H2239 C2248 0.950 . S
H2240 C2250 0.950 . S
H2241 C2252 0.950 . S
H2242 C2254 0.950 . S
H2243 C2255 0.950 . S
C2244 H2236 0.950 . S
C2244 C2245 1.386 . S
C2244 C2246 1.391 . S
C2245 C2244 1.386 . S
C2245 C2249 1.393 . S
C2246 H2238 0.950 . S
C2246 C2244 1.391 . S
C2246 C2247 1.400 . S
C2247 C2246 1.400 . S
C2247 C2248 1.398 . S
C2247 C2253 1.491 . S
C2248 H2239 0.950 . S
C2248 C2247 1.398 . S
C2248 C2249 1.391 . S
C2249 H2237 0.950 . S
C2249 C2245 1.393 . S
C2249 C2248 1.391 . S
C2250 H2240 0.950 . S
C2250 C2251 1.386 . S
C2250 C2252 1.391 . S
C2251 C2250 1.386 . S
C2251 C2255 1.393 . S
C2252 H2241 0.950 . S
C2252 C2250 1.391 . S
C2252 C2253 1.400 . S
C2253 C2247 1.491 . S
C2253 C2252 1.400 . S
C2253 C2254 1.398 . S
C2254 H2242 0.950 . S
C2254 C2253 1.398 . S
C2254 C2255 1.391 . S
C2255 H2243 0.950 . S
C2255 C2251 1.393 . S
C2255 C2254 1.391 . S
H2256 C2264 0.950 . S
H2257 C2269 0.950 . S
H2258 C2266 0.950 . S
H2259 C2268 0.950 . S
H2260 C2270 0.950 . S
H2261 C2272 0.950 . S
H2262 C2274 0.950 . S
H2263 C2275 0.950 . S
C2264 H2256 0.950 . S
C2264 C2265 1.386 . S
C2264 C2266 1.391 . S
C2265 C2264 1.386 . S
C2265 C2269 1.393 . S
C2266 H2258 0.950 . S
C2266 C2264 1.391 . S
C2266 C2267 1.400 . S
C2267 C2266 1.400 . S
C2267 C2268 1.398 . S
C2267 C2273 1.491 . S
C2268 H2259 0.950 . S
C2268 C2267 1.398 . S
C2268 C2269 1.391 . S
C2269 H2257 0.950 . S
C2269 C2265 1.393 . S
C2269 C2268 1.391 . S
C2270 H2260 0.950 . S
C2270 C2271 1.386 . S
C2270 C2272 1.391 . S
C2271 C2270 1.386 . S
C2271 C2275 1.393 . S
C2272 H2261 0.950 . S
C2272 C2270 1.391 . S
C2272 C2273 1.400 . S
C2273 C2267 1.491 . S
C2273 C2272 1.400 . S
C2273 C2274 1.398 . S
C2274 H2262 0.950 . S
C2274 C2273 1.398 . S
C2274 C2275 1.391 . S
C2275 H2263 0.950 . S
C2275 C2271 1.393 . S
C2275 C2274 1.391 . S
H2276 C2284 0.950 . S
H2277 C2289 0.950 . S
H2278 C2286 0.950 . S
H2279 C2288 0.950 . S
H2280 C2290 0.950 . S
H2281 C2292 0.950 . S
H2282 C2294 0.950 . S
H2283 C2295 0.950 . S
C2284 H2276 0.950 . S
C2284 C2285 1.386 . S
C2284 C2286 1.391 . S
C2285 C2284 1.386 . S
C2285 C2289 1.393 . S
C2286 H2278 0.950 . S
C2286 C2284 1.391 . S
C2286 C2287 1.400 . S
C2287 C2286 1.400 . S
C2287 C2288 1.398 . S
C2287 C2293 1.491 1_556 S
C2288 H2279 0.950 . S
C2288 C2287 1.398 . S
C2288 C2289 1.391 . S
C2289 H2277 0.950 . S
C2289 C2285 1.393 . S
C2289 C2288 1.391 . S
C2290 H2280 0.950 . S
C2290 C2291 1.386 . S
C2290 C2292 1.391 . S
C2291 C2290 1.386 . S
C2291 C2295 1.393 . S
C2292 H2281 0.950 . S
C2292 C2290 1.391 . S
C2292 C2293 1.400 . S
C2293 C2287 1.491 1_554 S
C2293 C2292 1.400 . S
C2293 C2294 1.398 . S
C2294 H2282 0.950 . S
C2294 C2293 1.398 . S
C2294 C2295 1.391 . S
C2295 H2283 0.950 . S
C2295 C2291 1.393 . S
C2295 C2294 1.391 . S
H2296 C2304 0.950 . S
H2297 C2309 0.950 . S
H2298 C2306 0.950 . S
H2299 C2308 0.950 . S
H2300 C2310 0.950 . S
H2301 C2312 0.950 . S
H2302 C2314 0.950 . S
H2303 C2315 0.950 . S
C2304 H2296 0.950 . S
C2304 C2305 1.386 . S
C2304 C2306 1.391 . S
C2305 C2304 1.386 . S
C2305 C2309 1.393 . S
C2306 H2298 0.950 . S
C2306 C2304 1.391 . S
C2306 C2307 1.400 . S
C2307 C2306 1.400 . S
C2307 C2308 1.398 . S
C2307 C2313 1.491 . S
C2308 H2299 0.950 . S
C2308 C2307 1.398 . S
C2308 C2309 1.391 . S
C2309 H2297 0.950 . S
C2309 C2305 1.393 . S
C2309 C2308 1.391 . S
C2310 H2300 0.950 . S
C2310 C2311 1.386 . S
C2310 C2312 1.391 . S
C2311 C2310 1.386 . S
C2311 C2315 1.393 . S
C2312 H2301 0.950 . S
C2312 C2310 1.391 . S
C2312 C2313 1.400 . S
C2313 C2307 1.491 . S
C2313 C2312 1.400 . S
C2313 C2314 1.398 . S
C2314 H2302 0.950 . S
C2314 C2313 1.398 . S
C2314 C2315 1.391 . S
C2315 H2303 0.950 . S
C2315 C2311 1.393 . S
C2315 C2314 1.391 . S
H2316 C2324 0.950 . S
H2317 C2329 0.950 . S
H2318 C2326 0.950 . S
H2319 C2328 0.950 . S
H2320 C2330 0.950 . S
H2321 C2332 0.950 . S
H2322 C2334 0.950 . S
H2323 C2335 0.950 . S
C2324 H2316 0.950 . S
C2324 C2325 1.386 . S
C2324 C2326 1.391 . S
C2325 C2324 1.386 . S
C2325 C2329 1.393 . S
C2326 H2318 0.950 . S
C2326 C2324 1.391 . S
C2326 C2327 1.400 . S
C2327 C2326 1.400 . S
C2327 C2328 1.398 . S
C2327 C2333 1.491 . S
C2328 H2319 0.950 . S
C2328 C2327 1.398 . S
C2328 C2329 1.391 . S
C2329 H2317 0.950 . S
C2329 C2325 1.393 . S
C2329 C2328 1.391 . S
C2330 H2320 0.950 . S
C2330 C2331 1.386 . S
C2330 C2332 1.391 . S
C2331 C2330 1.386 . S
C2331 C2335 1.393 . S
C2332 H2321 0.950 . S
C2332 C2330 1.391 . S
C2332 C2333 1.400 . S
C2333 C2327 1.491 . S
C2333 C2332 1.400 . S
C2333 C2334 1.398 . S
C2334 H2322 0.950 . S
C2334 C2333 1.398 . S
C2334 C2335 1.391 . S
C2335 H2323 0.950 . S
C2335 C2331 1.393 . S
C2335 C2334 1.391 . S
H2336 C2344 0.950 . S
H2337 C2349 0.950 . S
H2338 C2346 0.950 . S
H2339 C2348 0.950 . S
H2340 C2350 0.950 . S
H2341 C2352 0.950 . S
H2342 C2354 0.950 . S
H2343 C2355 0.950 . S
C2344 H2336 0.950 . S
C2344 C2345 1.386 . S
C2344 C2346 1.391 . S
C2345 C2344 1.386 . S
C2345 C2349 1.393 1_655 S
C2346 H2338 0.950 . S
C2346 C2344 1.391 . S
C2346 C2347 1.424 . S
C2347 C2346 1.424 . S
C2347 C2348 1.377 1_655 S
C2347 C2353 1.489 1_655 S
C2348 H2339 0.950 . S
C2348 C2347 1.377 1_455 S
C2348 C2349 1.391 . S
C2349 H2337 0.950 . S
C2349 C2345 1.393 1_455 S
C2349 C2348 1.391 . S
C2350 H2340 0.950 . S
C2350 C2351 1.386 . S
C2350 C2352 1.391 . S
C2351 C2350 1.386 . S
C2351 C2355 1.393 1_455 S
C2352 H2341 0.950 . S
C2352 C2350 1.391 . S
C2352 C2353 1.425 . S
C2353 C2347 1.489 1_455 S
C2353 C2352 1.425 . S
C2353 C2354 1.376 1_455 S
C2354 H2342 0.950 . S
C2354 C2353 1.376 1_655 S
C2354 C2355 1.391 . S
C2355 H2343 0.950 . S
C2355 C2351 1.393 1_655 S
C2355 C2354 1.391 . S
H2356 C2364 0.950 . S
H2357 C2369 0.950 . S
H2358 C2366 0.950 . S
H2359 C2368 0.950 . S
H2360 C2370 0.950 . S
H2361 C2372 0.950 . S
H2362 C2374 0.950 . S
H2363 C2375 0.950 . S
C2364 H2356 0.950 . S
C2364 C2365 1.386 . S
C2364 C2366 1.391 . S
C2365 C2364 1.386 . S
C2365 C2369 1.393 . S
C2366 H2358 0.950 . S
C2366 C2364 1.391 . S
C2366 C2367 1.400 . S
C2367 C2366 1.400 . S
C2367 C2368 1.398 . S
C2367 C2373 1.491 1_655 S
C2368 H2359 0.950 . S
C2368 C2367 1.398 . S
C2368 C2369 1.391 . S
C2369 H2357 0.950 . S
C2369 C2365 1.393 . S
C2369 C2368 1.391 . S
C2370 H2360 0.950 . S
C2370 C2371 1.386 . S
C2370 C2372 1.391 . S
C2371 C2370 1.386 . S
C2371 C2375 1.393 . S
C2372 H2361 0.950 . S
C2372 C2370 1.391 . S
C2372 C2373 1.400 . S
C2373 C2367 1.491 1_455 S
C2373 C2372 1.400 . S
C2373 C2374 1.398 . S
C2374 H2362 0.950 . S
C2374 C2373 1.398 . S
C2374 C2375 1.391 . S
C2375 H2363 0.950 . S
C2375 C2371 1.393 . S
C2375 C2374 1.391 . S
H2376 C2384 0.950 . S
H2377 C2389 0.950 . S
H2378 C2386 0.950 . S
H2379 C2388 0.950 . S
H2380 C2390 0.950 . S
H2381 C2392 0.950 . S
H2382 C2394 0.950 . S
H2383 C2395 0.950 . S
C2384 H2376 0.950 . S
C2384 C2385 1.386 . S
C2384 C2386 1.391 . S
C2385 C2384 1.386 . S
C2385 C2389 1.393 . S
C2386 H2378 0.950 . S
C2386 C2384 1.391 . S
C2386 C2387 1.400 . S
C2387 C2386 1.400 . S
C2387 C2388 1.398 . S
C2387 C2393 1.491 . S
C2388 H2379 0.950 . S
C2388 C2387 1.398 . S
C2388 C2389 1.391 . S
C2389 H2377 0.950 . S
C2389 C2385 1.393 . S
C2389 C2388 1.391 . S
C2390 H2380 0.950 . S
C2390 C2391 1.386 . S
C2390 C2392 1.391 . S
C2391 C2390 1.386 . S
C2391 C2395 1.393 . S
C2392 H2381 0.950 . S
C2392 C2390 1.391 . S
C2392 C2393 1.400 . S
C2393 C2387 1.491 . S
C2393 C2392 1.400 . S
C2393 C2394 1.398 . S
C2394 H2382 0.950 . S
C2394 C2393 1.398 . S
C2394 C2395 1.391 . S
C2395 H2383 0.950 . S
C2395 C2391 1.393 . S
C2395 C2394 1.391 . S
H2396 C2404 0.950 . S
H2397 C2409 0.950 . S
H2398 C2406 0.950 . S
H2399 C2408 0.950 . S
H2400 C2410 0.950 . S
H2401 C2412 0.950 . S
H2402 C2414 0.950 . S
H2403 C2415 0.950 . S
C2404 H2396 0.950 . S
C2404 C2405 1.386 . S
C2404 C2406 1.391 . S
C2405 C2404 1.386 . S
C2405 C2409 1.393 . S
C2406 H2398 0.950 . S
C2406 C2404 1.391 . S
C2406 C2407 1.400 . S
C2407 C2406 1.400 . S
C2407 C2408 1.398 . S
C2407 C2413 1.491 . S
C2408 H2399 0.950 . S
C2408 C2407 1.398 . S
C2408 C2409 1.391 . S
C2409 H2397 0.950 . S
C2409 C2405 1.393 . S
C2409 C2408 1.391 . S
C2410 H2400 0.950 . S
C2410 C2411 1.386 . S
C2410 C2412 1.391 . S
C2411 C2410 1.386 . S
C2411 C2415 1.393 . S
C2412 H2401 0.950 . S
C2412 C2410 1.391 . S
C2412 C2413 1.400 . S
C2413 C2407 1.491 . S
C2413 C2412 1.400 . S
C2413 C2414 1.398 . S
C2414 H2402 0.950 . S
C2414 C2413 1.398 . S
C2414 C2415 1.391 . S
C2415 H2403 0.950 . S
C2415 C2411 1.393 . S
C2415 C2414 1.391 . S
H2416 C2424 0.950 . S
H2417 C2429 0.953 . S
H2418 C2426 0.950 . S
H2419 C2428 0.950 . S
H2420 C2430 0.950 . S
H2421 C2432 0.950 . S
H2422 C2434 0.950 . S
H2423 C2435 0.953 . S
C2424 H2416 0.950 . S
C2424 C2425 1.386 . S
C2424 C2426 1.391 . S
C2425 C2424 1.386 . S
C2425 C2429 1.389 1_455 S
C2426 H2418 0.950 . S
C2426 C2424 1.391 . S
C2426 C2427 1.400 . S
C2427 C2426 1.400 . S
C2427 C2428 1.398 1_455 S
C2427 C2433 1.491 1_455 S
C2428 H2419 0.950 . S
C2428 C2427 1.398 1_655 S
C2428 C2429 1.392 . S
C2429 H2417 0.953 . S
C2429 C2425 1.389 1_655 S
C2429 C2428 1.392 . S
C2430 H2420 0.950 . S
C2430 C2431 1.386 . S
C2430 C2432 1.391 . S
C2431 C2430 1.386 . S
C2431 C2435 1.389 1_655 S
C2432 H2421 0.950 . S
C2432 C2430 1.391 . S
C2432 C2433 1.400 . S
C2433 C2427 1.491 1_655 S
C2433 C2432 1.400 . S
C2433 C2434 1.398 1_655 S
C2434 H2422 0.950 . S
C2434 C2433 1.398 1_455 S
C2434 C2435 1.392 . S
C2435 H2423 0.953 . S
C2435 C2431 1.389 1_455 S
C2435 C2434 1.392 . S
H2436 C2444 0.950 . S
H2437 C2449 0.950 . S
H2438 C2446 0.950 . S
H2439 C2448 0.950 . S
H2440 C2450 0.950 . S
H2441 C2452 0.950 . S
H2442 C2454 0.950 . S
H2443 C2455 0.950 . S
C2444 H2436 0.950 . S
C2444 C2445 1.386 . S
C2444 C2446 1.391 . S
C2445 C2444 1.386 . S
C2445 C2449 1.393 . S
C2446 H2438 0.950 . S
C2446 C2444 1.391 . S
C2446 C2447 1.400 . S
C2447 C2446 1.400 . S
C2447 C2448 1.398 . S
C2447 C2453 1.491 . S
C2448 H2439 0.950 . S
C2448 C2447 1.398 . S
C2448 C2449 1.391 . S
C2449 H2437 0.950 . S
C2449 C2445 1.393 . S
C2449 C2448 1.391 . S
C2450 H2440 0.950 . S
C2450 C2451 1.386 . S
C2450 C2452 1.391 . S
C2451 C2450 1.386 . S
C2451 C2455 1.393 . S
C2452 H2441 0.950 . S
C2452 C2450 1.391 . S
C2452 C2453 1.400 . S
C2453 C2447 1.491 . S
C2453 C2452 1.400 . S
C2453 C2454 1.398 . S
C2454 H2442 0.950 . S
C2454 C2453 1.398 . S
C2454 C2455 1.391 . S
C2455 H2443 0.950 . S
C2455 C2451 1.393 . S
C2455 C2454 1.391 . S
H2456 C2464 0.950 . S
H2457 C2469 0.950 . S
H2458 C2466 0.950 . S
H2459 C2468 0.950 . S
H2460 C2470 0.950 . S
H2461 C2472 0.950 . S
H2462 C2474 0.950 . S
H2463 C2475 0.950 . S
C2464 H2456 0.950 . S
C2464 C2465 1.386 . S
C2464 C2466 1.391 . S
C2465 C2464 1.386 . S
C2465 C2469 1.393 . S
C2466 H2458 0.950 . S
C2466 C2464 1.391 . S
C2466 C2467 1.400 . S
C2467 C2466 1.400 . S
C2467 C2468 1.398 . S
C2467 C2473 1.491 . S
C2468 H2459 0.950 . S
C2468 C2467 1.398 . S
C2468 C2469 1.391 . S
C2469 H2457 0.950 . S
C2469 C2465 1.393 . S
C2469 C2468 1.391 . S
C2470 H2460 0.950 . S
C2470 C2471 1.386 . S
C2470 C2472 1.391 . S
C2471 C2470 1.386 . S
C2471 C2475 1.393 . S
C2472 H2461 0.950 . S
C2472 C2470 1.391 . S
C2472 C2473 1.400 . S
C2473 C2467 1.491 . S
C2473 C2472 1.400 . S
C2473 C2474 1.398 . S
C2474 H2462 0.950 . S
C2474 C2473 1.398 . S
C2474 C2475 1.391 . S
C2475 H2463 0.950 . S
C2475 C2471 1.393 . S
C2475 C2474 1.391 . S
H2476 C2484 0.950 . S
H2477 C2489 0.950 . S
H2478 C2486 0.950 . S
H2479 C2488 0.950 . S
H2480 C2490 0.950 . S
H2481 C2492 0.950 . S
H2482 C2494 0.950 . S
H2483 C2495 0.950 . S
C2484 H2476 0.950 . S
C2484 C2485 1.386 . S
C2484 C2486 1.391 . S
C2485 C2484 1.386 . S
C2485 C2489 1.393 . S
C2486 H2478 0.950 . S
C2486 C2484 1.391 . S
C2486 C2487 1.400 . S
C2487 C2486 1.400 . S
C2487 C2488 1.398 . S
C2487 C2493 1.491 1_455 S
C2488 H2479 0.950 . S
C2488 C2487 1.398 . S
C2488 C2489 1.391 . S
C2489 H2477 0.950 . S
C2489 C2485 1.393 . S
C2489 C2488 1.391 . S
C2490 H2480 0.950 . S
C2490 C2491 1.386 . S
C2490 C2492 1.391 . S
C2491 C2490 1.386 . S
C2491 C2495 1.393 . S
C2492 H2481 0.950 . S
C2492 C2490 1.391 . S
C2492 C2493 1.400 . S
C2493 C2487 1.491 1_655 S
C2493 C2492 1.400 . S
C2493 C2494 1.398 . S
C2494 H2482 0.950 . S
C2494 C2493 1.398 . S
C2494 C2495 1.391 . S
C2495 H2483 0.950 . S
C2495 C2491 1.393 . S
C2495 C2494 1.391 . S
H2496 C2504 0.950 . S
H2497 C2509 0.950 . S
H2498 C2506 0.950 . S
H2499 C2508 0.950 . S
H2500 C2510 0.950 . S
H2501 C2512 0.950 . S
H2502 C2514 0.950 . S
H2503 C2515 0.950 . S
C2504 H2496 0.950 . S
C2504 C2505 1.386 1_655 S
C2504 C2506 1.391 . S
C2505 C2504 1.386 1_455 S
C2505 C2509 1.393 . S
C2506 H2498 0.950 . S
C2506 C2504 1.391 . S
C2506 C2507 1.394 1_655 S
C2507 C2506 1.394 1_455 S
C2507 C2508 1.404 . S
C2507 C2513 1.490 1_455 S
C2508 H2499 0.950 . S
C2508 C2507 1.404 . S
C2508 C2509 1.391 . S
C2509 H2497 0.950 . S
C2509 C2505 1.393 . S
C2509 C2508 1.391 . S
C2510 H2500 0.950 . S
C2510 C2511 1.386 1_455 S
C2510 C2512 1.391 . S
C2511 C2510 1.386 1_655 S
C2511 C2515 1.393 . S
C2512 H2501 0.950 . S
C2512 C2510 1.391 . S
C2512 C2513 1.394 1_455 S
C2513 C2507 1.490 1_655 S
C2513 C2512 1.394 1_655 S
C2513 C2514 1.405 . S
C2514 H2502 0.950 . S
C2514 C2513 1.405 . S
C2514 C2515 1.391 . S
C2515 H2503 0.950 . S
C2515 C2511 1.393 . S
C2515 C2514 1.391 . S
H2516 C2524 0.950 . S
H2517 C2529 0.950 . S
H2518 C2526 0.950 . S
H2519 C2528 0.950 . S
H2520 C2530 0.950 . S
H2521 C2532 0.950 . S
H2522 C2534 0.950 . S
H2523 C2535 0.950 . S
C2524 H2516 0.950 . S
C2524 C2525 1.386 . S
C2524 C2526 1.391 . S
C2525 C2524 1.386 . S
C2525 C2529 1.393 . S
C2526 H2518 0.950 . S
C2526 C2524 1.391 . S
C2526 C2527 1.400 . S
C2527 C2526 1.400 . S
C2527 C2528 1.398 . S
C2527 C2533 1.491 1_455 S
C2528 H2519 0.950 . S
C2528 C2527 1.398 . S
C2528 C2529 1.391 . S
C2529 H2517 0.950 . S
C2529 C2525 1.393 . S
C2529 C2528 1.391 . S
C2530 H2520 0.950 . S
C2530 C2531 1.386 . S
C2530 C2532 1.391 . S
C2531 C2530 1.386 . S
C2531 C2535 1.393 . S
C2532 H2521 0.950 . S
C2532 C2530 1.391 . S
C2532 C2533 1.400 . S
C2533 C2527 1.491 1_655 S
C2533 C2532 1.400 . S
C2533 C2534 1.398 . S
C2534 H2522 0.950 . S
C2534 C2533 1.398 . S
C2534 C2535 1.391 . S
C2535 H2523 0.950 . S
C2535 C2531 1.393 . S
C2535 C2534 1.391 . S
H2536 C2544 0.950 . S
H2537 C2549 0.950 . S
H2538 C2546 0.950 . S
H2539 C2548 0.950 . S
H2540 C2550 0.950 . S
H2541 C2552 0.950 . S
H2542 C2554 0.950 . S
H2543 C2555 0.950 . S
C2544 H2536 0.950 . S
C2544 C2545 1.386 . S
C2544 C2546 1.391 . S
C2545 C2544 1.386 . S
C2545 C2549 1.393 . S
C2546 H2538 0.950 . S
C2546 C2544 1.391 . S
C2546 C2547 1.400 . S
C2547 C2546 1.400 . S
C2547 C2548 1.398 . S
C2547 C2553 1.491 . S
C2548 H2539 0.950 . S
C2548 C2547 1.398 . S
C2548 C2549 1.391 . S
C2549 H2537 0.950 . S
C2549 C2545 1.393 . S
C2549 C2548 1.391 . S
C2550 H2540 0.950 . S
C2550 C2551 1.386 . S
C2550 C2552 1.391 . S
C2551 C2550 1.386 . S
C2551 C2555 1.393 . S
C2552 H2541 0.950 . S
C2552 C2550 1.391 . S
C2552 C2553 1.400 . S
C2553 C2547 1.491 . S
C2553 C2552 1.400 . S
C2553 C2554 1.398 . S
C2554 H2542 0.950 . S
C2554 C2553 1.398 . S
C2554 C2555 1.391 . S
C2555 H2543 0.950 . S
C2555 C2551 1.393 . S
C2555 C2554 1.391 . S
H2556 C2564 0.950 . S
H2557 C2569 0.950 . S
H2558 C2566 0.950 . S
H2559 C2568 0.950 . S
H2560 C2570 0.950 . S
H2561 C2572 0.950 . S
H2562 C2574 0.950 . S
H2563 C2575 0.950 . S
C2564 H2556 0.950 . S
C2564 C2565 1.386 . S
C2564 C2566 1.391 . S
C2565 C2564 1.386 . S
C2565 C2569 1.393 . S
C2566 H2558 0.950 . S
C2566 C2564 1.391 . S
C2566 C2567 1.400 . S
C2567 C2566 1.400 . S
C2567 C2568 1.398 . S
C2567 C2573 1.491 . S
C2568 H2559 0.950 . S
C2568 C2567 1.398 . S
C2568 C2569 1.391 . S
C2569 H2557 0.950 . S
C2569 C2565 1.393 . S
C2569 C2568 1.391 . S
C2570 H2560 0.950 . S
C2570 C2571 1.386 . S
C2570 C2572 1.391 . S
C2571 C2570 1.386 . S
C2571 C2575 1.393 . S
C2572 H2561 0.950 . S
C2572 C2570 1.391 . S
C2572 C2573 1.400 . S
C2573 C2567 1.491 . S
C2573 C2572 1.400 . S
C2573 C2574 1.398 . S
C2574 H2562 0.950 . S
C2574 C2573 1.398 . S
C2574 C2575 1.391 . S
C2575 H2563 0.950 . S
C2575 C2571 1.393 . S
C2575 C2574 1.391 . S
H2576 C2584 0.950 . S
H2577 C2589 0.950 . S
H2578 C2586 0.950 . S
H2579 C2588 0.950 . S
H2580 C2590 0.950 . S
H2581 C2592 0.950 . S
H2582 C2594 0.950 . S
H2583 C2595 0.950 . S
C2584 H2576 0.950 . S
C2584 C2585 1.386 1_655 S
C2584 C2586 1.391 . S
C2585 C2584 1.386 1_455 S
C2585 C2589 1.393 . S
C2586 H2578 0.950 . S
C2586 C2584 1.391 . S
C2586 C2587 1.375 1_655 S
C2587 C2586 1.375 1_455 S
C2587 C2588 1.425 . S
C2587 C2593 1.489 1_455 S
C2588 H2579 0.950 . S
C2588 C2587 1.425 . S
C2588 C2589 1.391 . S
C2589 H2577 0.950 . S
C2589 C2585 1.393 . S
C2589 C2588 1.391 . S
C2590 H2580 0.950 . S
C2590 C2591 1.386 1_455 S
C2590 C2592 1.391 . S
C2591 C2590 1.386 1_655 S
C2591 C2595 1.393 . S
C2592 H2581 0.950 . S
C2592 C2590 1.391 . S
C2592 C2593 1.376 1_455 S
C2593 C2587 1.489 1_655 S
C2593 C2592 1.376 1_655 S
C2593 C2594 1.425 . S
C2594 H2582 0.950 . S
C2594 C2593 1.425 . S
C2594 C2595 1.391 . S
C2595 H2583 0.950 . S
C2595 C2591 1.393 . S
C2595 C2594 1.391 . S
H2596 C2604 0.950 . S
H2597 C2609 0.950 . S
H2598 C2606 0.950 . S
H2599 C2608 0.950 . S
H2600 C2610 0.950 . S
H2601 C2612 0.950 . S
H2602 C2614 0.950 . S
H2603 C2615 0.950 . S
C2604 H2596 0.950 . S
C2604 C2605 1.386 . S
C2604 C2606 1.391 . S
C2605 C2604 1.386 . S
C2605 C2609 1.393 . S
C2606 H2598 0.950 . S
C2606 C2604 1.391 . S
C2606 C2607 1.400 . S
C2607 C2606 1.400 . S
C2607 C2608 1.398 . S
C2607 C2613 1.491 . S
C2608 H2599 0.950 . S
C2608 C2607 1.398 . S
C2608 C2609 1.391 . S
C2609 H2597 0.950 . S
C2609 C2605 1.393 . S
C2609 C2608 1.391 . S
C2610 H2600 0.950 . S
C2610 C2611 1.386 . S
C2610 C2612 1.391 . S
C2611 C2610 1.386 . S
C2611 C2615 1.393 . S
C2612 H2601 0.950 . S
C2612 C2610 1.391 . S
C2612 C2613 1.400 . S
C2613 C2607 1.491 . S
C2613 C2612 1.400 . S
C2613 C2614 1.398 . S
C2614 H2602 0.950 . S
C2614 C2613 1.398 . S
C2614 C2615 1.391 . S
C2615 H2603 0.950 . S
C2615 C2611 1.393 . S
C2615 C2614 1.391 . S
H2616 C2624 0.950 . S
H2617 C2629 0.950 . S
H2618 C2626 0.950 . S
H2619 C2628 0.950 . S
H2620 C2630 0.950 . S
H2621 C2632 0.950 . S
H2622 C2634 0.950 . S
H2623 C2635 0.950 . S
C2624 H2616 0.950 . S
C2624 C2625 1.386 . S
C2624 C2626 1.391 . S
C2625 C2624 1.386 . S
C2625 C2629 1.393 . S
C2626 H2618 0.950 . S
C2626 C2624 1.391 . S
C2626 C2627 1.400 . S
C2627 C2626 1.400 . S
C2627 C2628 1.398 . S
C2627 C2633 1.491 . S
C2628 H2619 0.950 . S
C2628 C2627 1.398 . S
C2628 C2629 1.391 . S
C2629 H2617 0.950 . S
C2629 C2625 1.393 . S
C2629 C2628 1.391 . S
C2630 H2620 0.950 . S
C2630 C2631 1.386 . S
C2630 C2632 1.391 . S
C2631 C2630 1.386 . S
C2631 C2635 1.393 . S
C2632 H2621 0.950 . S
C2632 C2630 1.391 . S
C2632 C2633 1.400 . S
C2633 C2627 1.491 . S
C2633 C2632 1.400 . S
C2633 C2634 1.398 . S
C2634 H2622 0.950 . S
C2634 C2633 1.398 . S
C2634 C2635 1.391 . S
C2635 H2623 0.950 . S
C2635 C2631 1.393 . S
C2635 C2634 1.391 . S
H2636 C2644 0.950 . S
H2637 C2649 0.950 . S
H2638 C2646 0.950 . S
H2639 C2648 0.950 . S
H2640 C2650 0.950 . S
H2641 C2652 0.950 . S
H2642 C2654 0.950 . S
H2643 C2655 0.950 . S
C2644 H2636 0.950 . S
C2644 C2645 1.386 . S
C2644 C2646 1.391 . S
C2645 C2644 1.386 . S
C2645 C2649 1.393 . S
C2646 H2638 0.950 . S
C2646 C2644 1.391 . S
C2646 C2647 1.400 . S
C2647 C2646 1.400 . S
C2647 C2648 1.398 . S
C2647 C2653 1.491 1_655 S
C2648 H2639 0.950 . S
C2648 C2647 1.398 . S
C2648 C2649 1.391 . S
C2649 H2637 0.950 . S
C2649 C2645 1.393 . S
C2649 C2648 1.391 . S
C2650 H2640 0.950 . S
C2650 C2651 1.386 . S
C2650 C2652 1.391 . S
C2651 C2650 1.386 . S
C2651 C2655 1.393 . S
C2652 H2641 0.950 . S
C2652 C2650 1.391 . S
C2652 C2653 1.400 . S
C2653 C2647 1.491 1_455 S
C2653 C2652 1.400 . S
C2653 C2654 1.398 . S
C2654 H2642 0.950 . S
C2654 C2653 1.398 . S
C2654 C2655 1.391 . S
C2655 H2643 0.950 . S
C2655 C2651 1.393 . S
C2655 C2654 1.391 . S
C1065 C899 0.958 . S
C1071 C28 0.915 . S
C1085 C272 0.946 . S
C1091 C61 0.931 . S
C1105 C833 0.946 . S
C1111 C94 0.931 . S
C1125 C127 0.911 . S
C1131 C338 0.962 . S
C1145 C965 0.960 . S
C1151 C160 0.914 . S
C1165 C470 0.927 . S
C1171 C193 0.955 . S
C1185 C226 0.941 . S
C1191 C1031 0.937 . S
C1205 C259 0.938 . S
C1211 C404 0.941 . S
C1225 C635 0.959 . S
C1231 C292 0.914 . S
C1245 C8 0.953 . S
C1251 C325 0.923 . S
C1265 C358 0.953 . S
C1271 C569 0.928 . S
C1285 C391 0.948 . S
C1291 C74 0.931 . S
C1305 C424 0.929 . S
C1311 C701 0.947 . S
C1325 C457 0.954 . S
C1331 C206 0.927 . S
C1345 C767 0.949 . S
C1351 C490 0.927 . S
C1365 C140 0.956 . S
C1371 C523 0.919 . S
C1385 C371 0.961 . S
C1391 C556 0.912 . S
C1405 C589 0.937 . S
C1411 C800 0.941 . S
C1425 C305 0.934 . S
C1431 C622 0.945 . S
C1445 C655 0.955 . S
C1451 C866 0.927 . S
C1465 C437 0.928 . S
C1471 C688 0.954 . S
C1485 C998 0.930 . S
C1491 C721 0.950 . S
C1505 C503 0.961 . S
C1511 C754 0.911 . S
C1525 C787 0.946 . S
C1531 C932 0.934 . S
C1545 C820 0.955 . S
C1551 C107 0.927 . S
C1565 C536 0.931 . S
C1571 C853 0.949 . S
C1585 C41 0.928 . S
C1591 C886 0.953 . S
C1605 C919 0.924 . S
C1611 C602 0.951 . S
C1625 C952 0.955 . S
C1631 C173 0.927 . S
C1645 C985 0.936 . S
C1651 C734 0.943 . S
C1665 C239 0.927 . S
C1671 C1018 0.955 . S
C1685 C1051 0.915 . S
C1691 C668 0.959 . S
C1705 N5 1.554 . S
C1711 N170 1.551 . S
C1725 N203 1.556 . S
C1731 N38 1.555 . S
C1745 N236 1.553 . S
C1751 N71 1.550 . S
C1765 N104 1.544 . S
C1771 N137 1.543 . S
C1785 N269 1.544 . S
C1791 N434 1.546 . S
C1805 N302 1.555 . S
C1811 N467 1.556 . S
C1825 N335 1.550 . S
C1831 N500 1.553 . S
C1845 N368 1.543 . S
C1851 N401 1.544 . S
C1865 N698 1.549 . S
C1871 N533 1.552 . S
C1885 N566 1.555 . S
C1891 N731 1.556 . S
C1905 N599 1.543 . S
C1911 N764 1.544 . S
C1925 N665 1.543 . S
C1931 N632 1.543 . S
C1945 N962 1.544 . S
C1951 N797 1.543 . S
C1965 N995 1.544 . S
C1971 N830 1.546 . S
C1985 N1028 1.554 . S
C1991 N863 1.551 . S
C2005 N929 1.548 . S
C2011 N896 1.545 . S
C2025 C17 1.286 . S
C2031 C149 1.285 . S
C2045 C50 1.283 . S
C2051 C182 1.284 . S
C2065 C215 1.285 . S
C2071 C83 1.285 . S
C2085 C248 1.285 . S
C2091 C116 1.286 . S
C2105 C281 1.286 . S
C2111 C413 1.286 . S
C2125 C446 1.285 . S
C2131 C314 1.285 . S
C2145 C347 1.285 . S
C2151 C479 1.285 . S
C2165 C512 1.285 . S
C2171 C380 1.285 . S
C2185 C545 1.286 . S
C2191 C677 1.286 . S
C2205 C578 1.283 . S
C2211 C710 1.284 . S
C2225 C611 1.286 . S
C2231 C743 1.286 . S
C2245 C644 1.284 . S
C2251 C776 1.284 . S
C2265 C941 1.285 . S
C2271 C809 1.286 . S
C2285 C842 1.285 . S
C2291 C974 1.285 . S
C2305 C875 1.284 . S
C2311 C1007 1.284 . S
C2325 C908 1.285 . S
C2331 C1040 1.285 . S
C2345 N14 1.020 1_655 S
C2351 N608 1.024 1_455 S
C2365 N641 1.021 . S
C2371 N47 1.016 . S
C2385 N80 1.005 . S
C2391 N542 1.010 . S
C2405 N113 1.006 . S
C2411 N575 1.001 . S
C2425 N740 1.034 1_455 S
C2431 N146 1.035 1_655 S
C2445 N773 0.990 . S
C2451 N179 0.995 . S
C2465 N212 0.999 . S
C2471 N674 0.995 . S
C2485 N245 1.025 . S
C2491 N707 1.021 . S
C2505 N278 0.992 1_455 S
C2511 N872 0.997 1_655 S
C2525 N905 1.030 . S
C2531 N311 1.033 . S
C2545 N806 1.007 . S
C2551 N344 1.002 . S
C2565 N377 1.013 . S
C2571 N839 1.008 . S
C2585 N410 1.018 1_455 S
C2591 N1004 1.022 1_655 S
C2605 N443 1.023 . S
C2611 N1037 1.027 . S
C2625 N476 1.034 . S
C2631 N938 1.032 . S
C2645 N509 0.988 . S
C2651 N971 0.984 . S
