# Generated by pormake.
# Topology wkf, (6)-cn, num edge types: 1
# Building blocks:
#     Node 0, Type 0, BuildingBlock: OJICUG_clean_sbu_0, # of connection points: 6
#     Node 1, Type 0, BuildingBlock: OJICUG_clean_sbu_0, # of connection points: 6
#     Node 2, Type 0, BuildingBlock: OJICUG_clean_sbu_0, # of connection points: 6
#     Node 3, Type 0, BuildingBlock: OJICUG_clean_sbu_0, # of connection points: 6
#     Node 4, Type 0, BuildingBlock: OJICUG_clean_sbu_0, # of connection points: 6
#     Node 5, Type 0, BuildingBlock: OJICUG_clean_sbu_0, # of connection points: 6
#     Node 6, Type 0, BuildingBlock: OJICUG_clean_sbu_0, # of connection points: 6
#     Node 7, Type 0, BuildingBlock: OJICUG_clean_sbu_0, # of connection points: 6
#     Node 8, Type 0, BuildingBlock: OJICUG_clean_sbu_0, # of connection points: 6
#     Node 9, Type 0, BuildingBlock: OJICUG_clean_sbu_0, # of connection points: 6
#     Node 10, Type 0, BuildingBlock: OJICUG_clean_sbu_0, # of connection points: 6
#     Node 11, Type 0, BuildingBlock: OJICUG_clean_sbu_0, # of connection points: 6
#     Edge 12, Type (0, 0), BuildingBlock: XUDNAN_clean_linker_2, # of connection points: 2
#     Edge 13, Type (0, 0), BuildingBlock: XUDNAN_clean_linker_2, # of connection points: 2
#     Edge 14, Type (0, 0), BuildingBlock: XUDNAN_clean_linker_2, # of connection points: 2
#     Edge 15, Type (0, 0), BuildingBlock: XUDNAN_clean_linker_2, # of connection points: 2
#     Edge 16, Type (0, 0), BuildingBlock: XUDNAN_clean_linker_2, # of connection points: 2
#     Edge 17, Type (0, 0), BuildingBlock: XUDNAN_clean_linker_2, # of connection points: 2
#     Edge 18, Type (0, 0), BuildingBlock: XUDNAN_clean_linker_2, # of connection points: 2
#     Edge 19, Type (0, 0), BuildingBlock: XUDNAN_clean_linker_2, # of connection points: 2
#     Edge 20, Type (0, 0), BuildingBlock: XUDNAN_clean_linker_2, # of connection points: 2
#     Edge 21, Type (0, 0), BuildingBlock: XUDNAN_clean_linker_2, # of connection points: 2
#     Edge 22, Type (0, 0), BuildingBlock: XUDNAN_clean_linker_2, # of connection points: 2
#     Edge 23, Type (0, 0), BuildingBlock: XUDNAN_clean_linker_2, # of connection points: 2
#     Edge 24, Type (0, 0), BuildingBlock: XUDNAN_clean_linker_2, # of connection points: 2
#     Edge 25, Type (0, 0), BuildingBlock: XUDNAN_clean_linker_2, # of connection points: 2
#     Edge 26, Type (0, 0), BuildingBlock: XUDNAN_clean_linker_2, # of connection points: 2
#     Edge 27, Type (0, 0), BuildingBlock: XUDNAN_clean_linker_2, # of connection points: 2
#     Edge 28, Type (0, 0), BuildingBlock: XUDNAN_clean_linker_2, # of connection points: 2
#     Edge 29, Type (0, 0), BuildingBlock: XUDNAN_clean_linker_2, # of connection points: 2
#     Edge 30, Type (0, 0), BuildingBlock: XUDNAN_clean_linker_2, # of connection points: 2
#     Edge 31, Type (0, 0), BuildingBlock: XUDNAN_clean_linker_2, # of connection points: 2
#     Edge 32, Type (0, 0), BuildingBlock: XUDNAN_clean_linker_2, # of connection points: 2
#     Edge 33, Type (0, 0), BuildingBlock: XUDNAN_clean_linker_2, # of connection points: 2
#     Edge 34, Type (0, 0), BuildingBlock: XUDNAN_clean_linker_2, # of connection points: 2
#     Edge 35, Type (0, 0), BuildingBlock: XUDNAN_clean_linker_2, # of connection points: 2
#     Edge 36, Type (0, 0), BuildingBlock: XUDNAN_clean_linker_2, # of connection points: 2
#     Edge 37, Type (0, 0), BuildingBlock: XUDNAN_clean_linker_2, # of connection points: 2
#     Edge 38, Type (0, 0), BuildingBlock: XUDNAN_clean_linker_2, # of connection points: 2
#     Edge 39, Type (0, 0), BuildingBlock: XUDNAN_clean_linker_2, # of connection points: 2
#     Edge 40, Type (0, 0), BuildingBlock: XUDNAN_clean_linker_2, # of connection points: 2
#     Edge 41, Type (0, 0), BuildingBlock: XUDNAN_clean_linker_2, # of connection points: 2
#     Edge 42, Type (0, 0), BuildingBlock: XUDNAN_clean_linker_2, # of connection points: 2
#     Edge 43, Type (0, 0), BuildingBlock: XUDNAN_clean_linker_2, # of connection points: 2
#     Edge 44, Type (0, 0), BuildingBlock: XUDNAN_clean_linker_2, # of connection points: 2
#     Edge 45, Type (0, 0), BuildingBlock: XUDNAN_clean_linker_2, # of connection points: 2
#     Edge 46, Type (0, 0), BuildingBlock: XUDNAN_clean_linker_2, # of connection points: 2
#     Edge 47, Type (0, 0), BuildingBlock: XUDNAN_clean_linker_2, # of connection points: 2
# Relax obj value: 0.170
# Max RMSD: 0.210
# Mean RMSD: 0.210
data_MOF--net-wkf--node1-OJICUG_clean_sbu_0--edge1-XUDNAN_clean_linker_2
_symmetry_space_group_name_H-M    P1
_symmetry_Int_Tables_number       1
_symmetry_cell_setting            triclinic
loop_
_symmetry_equiv_pos_as_xyz
'x, y, z'
_cell_length_a     28.29248
_cell_length_b     28.342611
_cell_length_c     72.376827
_cell_angle_alpha  90.084248
_cell_angle_beta   90.168229
_cell_angle_gamma 119.98161
loop_
_atom_site_label
_atom_site_type_symbol
_atom_site_fract_x
_atom_site_fract_y
_atom_site_fract_z
_atom_type_partial_charge
Sc0 Sc 0.45917 0.10906 0.35649 0.0
Sc1 Sc 0.31977 0.05968 0.36107 0.0
Sc2 Sc 0.39094 0.0321 0.3946 0.0
O3 O 0.38957 0.0669 0.37063 0.0
C4 C 0.46627 0.00728 0.37135 0.0
C5 C 0.37468 0.04057 0.32532 0.0
C6 C 0.27132 0.94713 0.37976 0.0
C7 C 0.40089 0.17843 0.34828 0.0
C8 C 0.50151 0.14467 0.39633 0.0
C9 C 0.32048 0.08518 0.4043 0.0
O10 O 0.48857 0.05518 0.36475 0.0
O11 O 0.33622 0.04387 0.33326 0.0
O12 O 0.30868 0.96477 0.39196 0.0
O13 O 0.43989 0.16887 0.34621 0.0
O14 O 0.47252 0.09557 0.40157 0.0
O15 O 0.29822 0.07461 0.38831 0.0
O16 O 0.49739 0.16015 0.3802 0.0
O17 O 0.35616 0.1448 0.35577 0.0
O18 O 0.35991 0.07771 0.40868 0.0
O19 O 0.42179 0.05834 0.33254 0.0
O20 O 0.42231 0.98642 0.38064 0.0
O21 O 0.27517 0.97365 0.36524 0.0
Sc22 Sc 0.27631 0.406 0.5565 0.0
Sc23 Sc 0.17654 0.3005 0.52999 0.0
Sc24 Sc 0.28468 0.41337 0.50816 0.0
O25 O 0.24622 0.37317 0.5315 0.0
C26 C 0.2957 0.50937 0.53323 0.0
C27 C 0.15143 0.35732 0.56345 0.0
C28 C 0.15914 0.36666 0.49848 0.0
C29 C 0.23584 0.28018 0.56299 0.0
C30 C 0.38421 0.43719 0.53514 0.0
C31 C 0.24595 0.2928 0.49643 0.0
O32 O 0.29688 0.48558 0.54788 0.0
O33 O 0.13841 0.31654 0.55303 0.0
O34 O 0.20942 0.39259 0.49422 0.0
O35 O 0.25775 0.3294 0.56834 0.0
O36 O 0.3641 0.43957 0.51966 0.0
O37 O 0.20396 0.27432 0.50661 0.0
O38 O 0.35625 0.42008 0.54983 0.0
O39 O 0.20916 0.26301 0.54794 0.0
O40 O 0.28394 0.34235 0.49682 0.0
O41 O 0.19983 0.39668 0.56502 0.0
O42 O 0.28857 0.4882 0.51723 0.0
O43 O 0.14064 0.33466 0.51224 0.0
Sc44 Sc 0.88376 0.35219 0.7021 0.0
Sc45 Sc 0.89817 0.23615 0.70329 0.0
Sc46 Sc 0.96656 0.34066 0.73601 0.0
O47 O 0.91602 0.30973 0.71381 0.0
C48 C 0.00217 0.44812 0.7127 0.0
C49 C 0.92235 0.30948 0.6676 0.0
C50 C 0.02353 0.28707 0.7144 0.0
C51 C 0.78496 0.2328 0.69601 0.0
C52 C 0.87382 0.36866 0.74527 0.0
C53 C 0.89059 0.21404 0.74599 0.0
O54 O 0.9586 0.42766 0.70329 0.0
O55 O 0.9236 0.27089 0.67621 0.0
O56 O 0.02678 0.32673 0.72353 0.0
O57 O 0.80349 0.28308 0.69904 0.0
O58 O 0.91064 0.35821 0.75037 0.0
O59 O 0.87129 0.19837 0.72981 0.0
O60 O 0.86019 0.36822 0.72846 0.0
O61 O 0.81482 0.21119 0.69661 0.0
O62 O 0.92827 0.26239 0.74971 0.0
O63 O 0.90662 0.34019 0.67491 0.0
O64 O 0.01137 0.42249 0.72524 0.0
O65 O 0.97904 0.24849 0.70806 0.0
Sc66 Sc 0.54398 0.88322 0.89637 0.0
Sc67 Sc 0.6325 0.8571 0.86998 0.0
Sc68 Sc 0.53256 0.87583 0.84768 0.0
O69 O 0.56952 0.87205 0.87133 0.0
C70 C 0.43164 0.81268 0.87446 0.0
C71 C 0.56218 0.78128 0.90287 0.0
C72 C 0.5593 0.78446 0.83613 0.0
C73 C 0.67104 0.94172 0.90355 0.0
C74 C 0.53061 0.9686 0.87228 0.0
C75 C 0.66028 0.94414 0.8382 0.0
O76 O 0.45995 0.83213 0.88906 0.0
O77 O 0.59316 0.79076 0.88901 0.0
O78 O 0.53058 0.80704 0.8348 0.0
O79 O 0.62497 0.93782 0.90614 0.0
O80 O 0.52773 0.94441 0.85721 0.0
O81 O 0.67489 0.92236 0.85068 0.0
O82 O 0.53948 0.95363 0.8878 0.0
O83 O 0.67882 0.91314 0.89178 0.0
O84 O 0.61062 0.9306 0.83514 0.0
O85 O 0.54422 0.81261 0.90783 0.0
O86 O 0.4516 0.82192 0.85826 0.0
O87 O 0.59722 0.79894 0.84796 0.0
Sc88 Sc 0.57697 0.48019 0.02849 0.0
Sc89 Sc 0.68641 0.61269 0.0255 0.0
Sc90 Sc 0.61322 0.56694 0.06601 0.0
O91 O 0.62637 0.55346 0.0398 0.0
C92 C 0.50074 0.51437 0.04737 0.0
C93 C 0.58607 0.55901 0.99678 0.0
C94 C 0.65441 0.6834 0.04888 0.0
C95 C 0.69123 0.51087 0.01047 0.0
C96 C 0.59247 0.44945 0.06787 0.0
C97 C 0.73847 0.61653 0.06575 0.0
O98 O 0.50801 0.47464 0.04339 0.0
O99 O 0.63469 0.5946 0.00137 0.0
O100 O 0.64538 0.65255 0.06265 0.0
O101 O 0.64022 0.47891 0.01232 0.0
O102 O 0.57823 0.48261 0.07374 0.0
O103 O 0.74081 0.63489 0.04939 0.0
O104 O 0.59898 0.44466 0.05075 0.0
O105 O 0.71561 0.55963 0.01645 0.0
O106 O 0.69378 0.58309 0.07369 0.0
O107 O 0.55659 0.51551 0.00579 0.0
O108 O 0.53584 0.55478 0.05675 0.0
O109 O 0.662 0.67089 0.03281 0.0
Sc110 Sc 0.11752 0.67349 0.20788 0.0
Sc111 Sc 0.11118 0.78092 0.18633 0.0
Sc112 Sc 0.14497 0.69565 0.16045 0.0
O113 O 0.1242 0.71655 0.18483 0.0
C114 C 0.22397 0.68467 0.18863 0.0
C115 C 0.17973 0.79537 0.22306 0.0
C116 C 0.21031 0.82571 0.1582 0.0
C117 C 0.01936 0.69625 0.21336 0.0
C118 C 0.06943 0.57868 0.17865 0.0
C119 C 0.05121 0.72048 0.14857 0.0
O120 O 0.19035 0.67248 0.20178 0.0
O121 O 0.16046 0.81395 0.21102 0.0
O122 O 0.19862 0.77884 0.15235 0.0
O123 O 0.0441 0.67025 0.21663 0.0
O124 O 0.09687 0.6094 0.16539 0.0
O125 O 0.06187 0.75497 0.16152 0.0
O126 O 0.06808 0.59637 0.19462 0.0
O127 O 0.0377 0.73685 0.20251 0.0
O128 O 0.07552 0.69311 0.14669 0.0
O129 O 0.16798 0.74594 0.2235 0.0
O130 O 0.21564 0.69651 0.17245 0.0
O131 O 0.18347 0.83271 0.17087 0.0
Sc132 Sc 0.85056 0.54315 0.49677 0.0
Sc133 Sc 0.85494 0.66177 0.47933 0.0
Sc134 Sc 0.86967 0.57268 0.44932 0.0
O135 O 0.85862 0.59265 0.4752 0.0
C136 C 0.93553 0.52885 0.47219 0.0
C137 C 0.92881 0.66204 0.513 0.0
C138 C 0.95015 0.6989 0.44938 0.0
C139 C 0.76709 0.5821 0.50829 0.0
C140 C 0.77539 0.46045 0.46528 0.0
C141 C 0.78957 0.62019 0.44187 0.0
O142 O 0.9123 0.52687 0.48732 0.0
O143 O 0.91119 0.68524 0.50216 0.0
O144 O 0.93822 0.65116 0.44464 0.0
O145 O 0.78691 0.5509 0.50963 0.0
O146 O 0.80167 0.49287 0.45223 0.0
O147 O 0.79715 0.64404 0.45734 0.0
O148 O 0.78796 0.47164 0.48231 0.0
O149 O 0.78626 0.62286 0.49758 0.0
O150 O 0.81508 0.59595 0.43703 0.0
O151 O 0.91233 0.61116 0.51256 0.0
O152 O 0.92532 0.54563 0.45733 0.0
O153 O 0.9226 0.70938 0.46087 0.0
Sc154 Sc 0.3549 0.93244 0.60313 0.0
Sc155 Sc 0.27509 0.91194 0.6415 0.0
Sc156 Sc 0.37176 0.86961 0.64142 0.0
O157 O 0.3329 0.90376 0.62889 0.0
C158 C 0.36775 0.82993 0.60153 0.0
C159 C 0.22931 0.86647 0.60038 0.0
C160 C 0.25087 0.7974 0.65686 0.0
C161 C 0.31813 0.01451 0.6176 0.0
C162 C 0.46215 0.9802 0.62509 0.0
C163 C 0.36567 0.94331 0.67306 0.0
O164 O 0.3852 0.8784 0.59625 0.0
O165 O 0.22522 0.88314 0.61648 0.0
O166 O 0.29924 0.80618 0.6547 0.0
O167 O 0.32872 0.99149 0.60458 0.0
O168 O 0.44881 0.93159 0.62969 0.0
O169 O 0.3228 0.94132 0.66654 0.0
O170 O 0.43186 0.99046 0.61478 0.0
O171 O 0.30851 -0.00448 0.6338 0.0
O172 O 0.39018 0.9211 0.66543 0.0
O173 O 0.27433 0.87427 0.59355 0.0
O174 O 0.35328 0.8156 0.61812 0.0
O175 O 0.23554 0.83023 0.65145 0.0
Sc176 Sc 0.4609 0.34117 0.81906 0.0
Sc177 Sc 0.35344 0.22701 0.7969 0.0
Sc178 Sc 0.46003 0.32844 0.77055 0.0
O179 O 0.42472 0.29884 0.7955 0.0
C180 C 0.48122 0.43571 0.79061 0.0
C181 C 0.33541 0.30206 0.82565 0.0
C182 C 0.33464 0.27637 0.75989 0.0
C183 C 0.41537 0.22026 0.83287 0.0
C184 C 0.56332 0.35886 0.79659 0.0
C185 C 0.42157 0.20202 0.76719 0.0
O186 O 0.4813 0.41722 0.80656 0.0
O187 O 0.31733 0.26141 0.81472 0.0
O188 O 0.38498 0.30804 0.75693 0.0
O189 O 0.44645 0.27119 0.83448 0.0
O190 O 0.54013 0.35378 0.78106 0.0
O191 O 0.38386 0.18709 0.77915 0.0
O192 O 0.53915 0.35157 0.81194 0.0
O193 O 0.38058 0.19871 0.81992 0.0
O194 O 0.45262 0.25155 0.76263 0.0
O195 O 0.38594 0.3344 0.82859 0.0
O196 O 0.47021 0.40769 0.7759 0.0
O197 O 0.31706 0.2454 0.77388 0.0
Sc198 Sc 0.02784 0.40503 0.92715 0.0
Sc199 Sc 0.10285 0.36824 0.9568 0.0
Sc200 Sc 0.09083 0.48316 0.96708 0.0
O201 O 0.074 0.41892 0.95032 0.0
C202 C 0.10943 0.53361 0.92675 0.0
C203 C 0.11841 0.37681 0.9134 0.0
C204 C 0.20187 0.48024 0.97127 0.0
C205 C 0.98278 0.28487 0.94167 0.0
C206 C 0.96936 0.44737 0.9545 0.0
C207 C 0.06005 0.38688 0.99541 0.0
O208 O 0.07735 0.4887 0.91873 0.0
O209 O 0.13387 0.37194 0.92944 0.0
O210 O 0.17374 0.5036 0.9728 0.0
O211 O 0.97553 0.32043 0.93351 0.0
O212 O 0.01097 0.47267 0.96476 0.0
O213 O 0.07452 0.36052 0.9848 0.0
O214 O 0.96859 0.42014 0.94047 0.0
O215 O 0.02703 0.29616 0.94985 0.0
O216 O 0.06223 0.43133 0.99096 0.0
O217 O 0.0797 0.38652 0.91063 0.0
O218 O 0.11902 0.53834 0.94407 0.0
O219 O 0.18227 0.43238 0.96484 0.0
Sc220 Sc 0.70325 0.13558 0.15653 0.0
Sc221 Sc 0.78787 0.1007 0.13138 0.0
Sc222 Sc 0.69669 0.1285 0.10752 0.0
O223 O 0.72891 0.12139 0.13182 0.0
C224 C 0.59202 0.0735 0.1337 0.0
C225 C 0.71616 0.03233 0.16547 0.0
C226 C 0.7077 0.02455 0.09967 0.0
C227 C 0.83194 0.1928 0.16239 0.0
C228 C 0.70645 0.22832 0.13101 0.0
C229 C 0.82256 0.18133 0.09719 0.0
O230 O 0.61891 0.08963 0.14871 0.0
O231 O 0.75003 0.04224 0.15261 0.0
O232 O 0.68708 0.05427 0.09609 0.0
O233 O 0.78525 0.18582 0.16651 0.0
O234 O 0.70321 0.20333 0.11609 0.0
O235 O 0.83208 0.15625 0.10981 0.0
O236 O 0.70634 0.20933 0.14692 0.0
O237 O 0.83875 0.16429 0.1503 0.0
O238 O 0.77565 0.17598 0.09455 0.0
O239 O 0.69584 0.06249 0.16907 0.0
O240 O 0.61395 0.08279 0.1178 0.0
O241 O 0.74351 0.03587 0.11214 0.0
Sc242 Sc 0.58802 0.62392 0.2672 0.0
Sc243 Sc 0.65996 0.73242 0.29716 0.0
Sc244 Sc 0.52034 0.64772 0.30335 0.0
O245 O 0.58888 0.6676 0.28927 0.0
C246 C 0.48144 0.63292 0.26129 0.0
C247 C 0.65618 0.74989 0.25512 0.0
C248 C 0.57861 0.77199 0.31101 0.0
C249 C 0.70376 0.65786 0.28016 0.0
C250 C 0.50364 0.53079 0.29349 0.0
C251 C 0.6124 0.66656 0.33353 0.0
O252 O 0.51867 0.62401 0.25564 0.0
O253 O 0.66286 0.77005 0.27132 0.0
O254 O 0.53602 0.72924 0.30592 0.0
O255 O 0.65679 0.61849 0.27659 0.0
O256 O 0.49347 0.56289 0.30258 0.0
O257 O 0.6531 0.69183 0.32272 0.0
O258 O 0.53795 0.54629 0.28039 0.0
O259 O 0.71115 0.70353 0.28564 0.0
O260 O 0.5632 0.65324 0.32924 0.0
O261 O 0.63792 0.69915 0.25199 0.0
O262 O 0.47612 0.64227 0.27819 0.0
O263 O 0.62538 0.77654 0.31016 0.0
H264 H 0.18244 0.88343 0.23997 0.0
H265 H 0.26667 0.79108 0.23707 0.0
H266 H 0.33332 0.85193 0.26032 0.0
H267 H 0.30277 0.01866 0.24851 0.0
H268 H 0.26722 0.03782 0.26481 0.0
H269 H 0.23025 0.99154 0.24618 0.0
H270 H 0.16457 0.92022 0.26975 0.0
H271 H 0.20109 0.96636 0.28839 0.0
H272 H 0.19235 0.89886 0.28826 0.0
H273 H 0.38806 0.9197 0.28493 0.0
H274 H 0.42055 0.9828 0.31159 0.0
H275 H 0.29753 0.02754 0.29985 0.0
C276 C 0.21552 0.87677 0.24403 0.0
C277 C 0.21983 0.83299 0.23665 0.0
C278 C 0.26277 0.8245 0.24258 0.0
C279 C 0.30105 0.85907 0.25566 0.0
C280 C 0.29549 0.90165 0.26282 0.0
C281 C 0.25347 0.91026 0.25739 0.0
C282 C 0.25338 0.95528 0.26863 0.0
C283 C 0.26405 0.0037 0.25629 0.0
C284 C 0.19968 0.93388 0.2794 0.0
C285 C 0.30115 0.96979 0.28146 0.0
C286 C 0.32569 0.93928 0.2776 0.0
C287 C 0.36951 0.9442 0.28799 0.0
C288 C 0.38786 0.98032 0.30305 0.0
C289 C 0.36164 0.01012 0.30773 0.0
C290 C 0.31847 0.00542 0.29654 0.0
H291 H 0.33639 0.29366 0.48175 0.0
H292 H 0.15919 0.20653 0.4804 0.0
H293 H 0.15949 0.1429 0.45735 0.0
H294 H 0.35735 0.28094 0.43362 0.0
H295 H 0.41414 0.26985 0.43717 0.0
H296 H 0.40056 0.30915 0.45368 0.0
H297 H 0.39591 0.24469 0.47986 0.0
H298 H 0.40938 0.20515 0.46339 0.0
H299 H 0.34947 0.17246 0.47771 0.0
H300 H 0.17794 0.09255 0.43324 0.0
H301 H 0.21436 0.05349 0.41064 0.0
H302 H 0.37915 0.1675 0.42892 0.0
C303 C 0.2978 0.26116 0.47656 0.0
C304 C 0.24779 0.25501 0.48282 0.0
C305 C 0.19798 0.21175 0.47588 0.0
C306 C 0.19766 0.17546 0.46275 0.0
C307 C 0.24746 0.18244 0.45688 0.0
C308 C 0.29665 0.2237 0.46365 0.0
C309 C 0.34419 0.22112 0.45511 0.0
C310 C 0.38123 0.27337 0.44425 0.0
C311 C 0.37664 0.21019 0.4699 0.0
C312 C 0.31383 0.17257 0.44232 0.0
C313 C 0.25809 0.15124 0.44349 0.0
C314 C 0.22146 0.10829 0.43233 0.0
C315 C 0.24242 0.08653 0.41954 0.0
C316 C 0.29927 0.10721 0.41829 0.0
C317 C 0.3354 0.1504 0.42993 0.0
H318 H 0.93694 0.24315 0.64363 0.0
H319 H 0.96039 0.40602 0.64936 0.0
H320 H 0.01142 0.43264 0.62013 0.0
H321 H 0.06382 0.27994 0.62878 0.0
H322 H 0.04468 0.22554 0.6123 0.0
H323 H 0.00142 0.216 0.63172 0.0
H324 H 0.91985 0.19121 0.60967 0.0
H325 H 0.96285 0.2002 0.59011 0.0
H326 H 0.92674 0.23749 0.59145 0.0
H327 H 0.07504 0.44678 0.59444 0.0
H328 H 0.14001 0.44459 0.57214 0.0
H329 H 0.0706 0.27148 0.58165 0.0
C330 C 0.95146 0.28394 0.63845 0.0
C331 C 0.94474 0.32247 0.64874 0.0
C332 C 0.96465 0.37562 0.64162 0.0
C333 C -0.00632 0.39116 0.62502 0.0
C334 C 0.00131 0.35274 0.61554 0.0
C335 C 0.97982 0.29986 0.62178 0.0
C336 C -0.00222 0.26782 0.60988 0.0
C337 C 0.02877 0.2461 0.62136 0.0
C338 C 0.94888 0.22144 0.59967 0.0
C339 C 0.03524 0.31182 0.59664 0.0
C340 C 0.0364 0.36043 0.60003 0.0
C341 C 0.07324 0.40862 0.59121 0.0
C342 C 0.11014 0.40712 0.5787 0.0
C343 C 0.10931 0.35767 0.57508 0.0
C344 C 0.07069 0.30935 0.58384 0.0
H345 H 0.78591 0.12954 0.74882 0.0
H346 H 0.94065 0.21243 0.77812 0.0
H347 H 0.89888 0.15073 0.8047 0.0
H348 H 0.70372 0.11373 0.78796 0.0
H349 H 0.64854 0.04789 0.78108 0.0
H350 H 0.69144 0.09576 0.76382 0.0
H351 H 0.71393 0.02429 0.75055 0.0
H352 H 0.67081 0.97602 0.76769 0.0
H353 H 0.74104 -0.00704 0.76565 0.0
H354 H 0.84026 0.08064 0.82802 0.0
H355 H 0.76784 0.00929 0.84717 0.0
H356 H 0.65005 0.97569 0.80329 0.0
C357 C 0.81119 0.1341 0.76072 0.0
C358 C 0.86661 0.17528 0.76139 0.0
C359 C 0.89811 0.18096 0.77735 0.0
C360 C 0.8748 0.14611 0.79247 0.0
C361 C 0.81985 0.10634 0.79145 0.0
C362 C 0.78835 0.10034 0.77604 0.0
C363 C 0.7296 0.05625 0.77885 0.0
C364 C 0.69107 0.07984 0.77787 0.0
C365 C 0.71288 0.00962 0.76486 0.0
C366 C 0.733 0.03835 0.79826 0.0
C367 C 0.78552 0.0674 0.8052 0.0
C368 C 0.79895 0.05766 0.82276 0.0
C369 C 0.75757 0.01702 0.8335 0.0
C370 C 0.70331 0.98711 0.82674 0.0
C371 C 0.69103 -0.00178 0.8089 0.0
H372 H 0.54031 0.76679 0.93986 0.0
H373 H 0.5546 0.68642 0.89092 0.0
H374 H 0.54255 0.60913 0.90997 0.0
H375 H 0.62073 0.74104 0.96704 0.0
H376 H 0.5834 0.72955 0.98827 0.0
H377 H 0.57853 0.7713 0.97061 0.0
H378 H 0.47309 0.70947 0.97013 0.0
H379 H 0.4779 0.66743 0.98789 0.0
H380 H 0.44344 0.63718 0.96645 0.0
H381 H 0.54405 0.54832 0.9344 0.0
H382 H 0.56642 0.51331 0.96252 0.0
H383 H 0.55578 0.635 0.99556 0.0
C384 C 0.53886 0.73196 0.93311 0.0
C385 C 0.54797 0.73229 0.91395 0.0
C386 C 0.54762 0.68688 0.90562 0.0
C387 C 0.54025 0.64254 0.91629 0.0
C388 C 0.5332 0.64417 0.93528 0.0
C389 C 0.53232 0.6877 0.94364 0.0
C390 C 0.53278 0.68362 0.9645 0.0
C391 C 0.58178 0.73435 0.97309 0.0
C392 C 0.47858 0.67385 0.97272 0.0
C393 C 0.5383 0.63348 0.96649 0.0
C394 C 0.53614 0.60994 0.94952 0.0
C395 C 0.54465 0.56566 0.94779 0.0
C396 C 0.55733 0.54605 0.96373 0.0
C397 C 0.56225 0.57156 0.98094 0.0
C398 C 0.55131 0.61468 0.98244 0.0
H399 H 0.96675 0.62544 0.13418 0.0
H400 H 0.04236 0.80142 0.13223 0.0
H401 H 0.97273 0.79309 0.10976 0.0
H402 H 0.92379 0.59862 0.0859 0.0
H403 H 0.85907 0.53891 0.09058 0.0
H404 H 0.91644 0.5569 0.10567 0.0
H405 H 0.86135 0.55802 0.13388 0.0
H406 H 0.80302 0.53876 0.11917 0.0
H407 H 0.82921 0.59919 0.1333 0.0
H408 H 0.89683 0.76669 0.0875 0.0
H409 H 0.81247 0.7234 0.06875 0.0
H410 H 0.77912 0.56401 0.08705 0.0
C411 C 0.9688 0.66205 0.12879 0.0
C412 C 0.0101 0.71416 0.13471 0.0
C413 C 0.01105 0.76125 0.12777 0.0
C414 C 0.97185 0.75691 0.11499 0.0
C415 C 0.93137 0.70511 0.10952 0.0
C416 C 0.92896 0.65841 0.11633 0.0
C417 C 0.87889 0.60782 0.10896 0.0
C418 C 0.89556 0.57353 0.09708 0.0
C419 C 0.84087 0.57397 0.12477 0.0
C420 C 0.85333 0.63357 0.09721 0.0
C421 C 0.88514 0.68973 0.09744 0.0
C422 C 0.87138 0.72279 0.08727 0.0
C423 C 0.82357 0.6979 0.07664 0.0
C424 C 0.78946 0.64063 0.07659 0.0
C425 C 0.80441 0.60798 0.08704 0.0
H426 H 0.19865 0.78248 0.57552 0.0
H427 H 0.14858 0.89138 0.59922 0.0
H428 H 0.06607 0.84982 0.5796 0.0
H429 H 0.15149 0.77975 0.52933 0.0
H430 H 0.12697 0.70827 0.52565 0.0
H431 H 0.1827 0.74665 0.54142 0.0
H432 H 0.12958 0.67837 0.56754 0.0
H433 H 0.07371 0.6396 0.55185 0.0
H434 H 0.06183 0.6644 0.57328 0.0
H435 H -0.00711 0.80142 0.55648 0.0
H436 H 0.92733 0.74246 0.53265 0.0
H437 H 0.01922 0.65877 0.52538 0.0
C438 C 0.17021 0.79744 0.57652 0.0
C439 C 0.17983 0.84017 0.58879 0.0
C440 C 0.14163 0.85844 0.58995 0.0
C441 C 0.09483 0.83526 0.57884 0.0
C442 C 0.08639 0.79322 0.56689 0.0
C443 C 0.12246 0.77383 0.5658 0.0
C444 C 0.10253 0.72711 0.55208 0.0
C445 C 0.14336 0.74133 0.53618 0.0
C446 C 0.09123 0.67424 0.56177 0.0
C447 C 0.05009 0.724 0.54548 0.0
C448 C 0.04207 0.76296 0.55412 0.0
C449 C -0.00175 0.77029 0.54976 0.0
C450 C 0.96142 0.73683 0.53618 0.0
C451 C 0.96817 0.69601 0.52736 0.0
C452 C 0.01284 0.68921 0.53216 0.0
H453 H 0.42489 0.0527 0.67616 0.0
H454 H 0.35367 0.90366 0.70787 0.0
H455 H 0.37633 0.95723 0.73691 0.0
H456 H 0.53573 0.14031 0.71144 0.0
H457 H 0.52848 0.19846 0.70606 0.0
H458 H 0.51771 0.14924 0.68833 0.0
H459 H 0.42179 0.13609 0.68182 0.0
H460 H 0.43178 0.18457 0.69956 0.0
H461 H 0.37348 0.11678 0.70046 0.0
H462 H 0.38843 0.02428 0.76129 0.0
H463 H 0.39271 0.1 0.77952 0.0
H464 H 0.45948 0.20676 0.73218 0.0
C465 C 0.41621 0.03183 0.68931 0.0
C466 C 0.38842 0.97457 0.69006 0.0
C467 C 0.37592 0.94775 0.70726 0.0
C468 C 0.3887 0.97784 0.72374 0.0
C469 C 0.41463 0.03453 0.72263 0.0
C470 C 0.42918 0.06136 0.70584 0.0
C471 C 0.45097 0.12184 0.70824 0.0
C472 C 0.51184 0.15438 0.70323 0.0
C473 C 0.41748 0.14087 0.69686 0.0
C474 C 0.44256 0.12429 0.7288 0.0
C475 C 0.42262 0.07369 0.73691 0.0
C476 C 0.40544 0.06438 0.75524 0.0
C477 C 0.40763 0.10751 0.76545 0.0
C478 C 0.42681 0.15927 0.75728 0.0
C479 C 0.44592 0.16799 0.7389 0.0
H480 H 0.21924 0.38562 0.91184 0.0
H481 H 0.07682 0.34788 0.87843 0.0
H482 H 0.11777 0.32655 0.85195 0.0
H483 H 0.31873 0.4495 0.87486 0.0
H484 H 0.36083 0.42268 0.88306 0.0
H485 H 0.3209 0.43668 0.89916 0.0
H486 H 0.27526 0.33712 0.91085 0.0
H487 H 0.31473 0.32266 0.89473 0.0
H488 H 0.24134 0.28182 0.89456 0.0
H489 H 0.1705 0.30128 0.83007 0.0
H490 H 0.23602 0.28315 0.81332 0.0
H491 H 0.34594 0.34296 0.86043 0.0
C492 C 0.19684 0.37326 0.89891 0.0
C493 C 0.14478 0.36817 0.8972 0.0
C494 C 0.11689 0.35226 0.88002 0.0
C495 C 0.1397 0.33987 0.86492 0.0
C496 C 0.19071 0.34444 0.86717 0.0
C497 C 0.21933 0.36158 0.88364 0.0
C498 C 0.27341 0.36307 0.88245 0.0
C499 C 0.32129 0.42146 0.88503 0.0
C500 C 0.27632 0.32383 0.89648 0.0
C501 C 0.27034 0.34325 0.86284 0.0
C502 C 0.22213 0.33227 0.8543 0.0
C503 C 0.20876 0.31047 0.83651 0.0
C504 C 0.24595 0.30004 0.82716 0.0
C505 C 0.29602 0.31219 0.83556 0.0
C506 C 0.30829 0.3342 0.85359 0.0
H507 H 0.82613 0.2526 0.07046 0.0
H508 H 0.92268 0.18951 0.09591 0.0
H509 H -0.00252 0.2431 0.07448 0.0
H510 H 0.86426 0.24889 0.02489 0.0
H511 H 0.86789 0.31155 0.0178 0.0
H512 H 0.82325 0.27242 0.03631 0.0
H513 H 0.86999 0.35669 0.0579 0.0
H514 H 0.91481 0.39613 0.03939 0.0
H515 H 0.94292 0.39096 0.06118 0.0
H516 H 0.0565 0.29253 0.04824 0.0
H517 H 0.09912 0.34064 0.01921 0.0
H518 H 0.96884 0.37739 0.01155 0.0
C519 C 0.86328 0.25065 0.07168 0.0
C520 C 0.86828 0.21665 0.08487 0.0
C521 C 0.91763 0.21521 0.08598 0.0
C522 C 0.9606 0.24564 0.07389 0.0
C523 C 0.95408 0.27801 0.06091 0.0
C524 C 0.90706 0.28135 0.0598 0.0
C525 C 0.90997 0.31748 0.04392 0.0
C526 C 0.8636 0.28566 0.0299 0.0
C527 C 0.9094 0.36834 0.05103 0.0
C528 C 0.96508 0.33208 0.03594 0.0
C529 C 0.98981 0.30894 0.04602 0.0
C530 C 0.03835 0.31202 0.04044 0.0
C531 C 0.06209 0.33911 0.02396 0.0
C532 C 0.03756 0.36321 0.01348 0.0
C533 C 0.98901 0.36048 0.01968 0.0
H534 H 0.66786 0.85195 0.25529 0.0
H535 H 0.66593 0.72902 0.21882 0.0
H536 H 0.6754 0.78635 0.19192 0.0
H537 H 0.58953 0.88904 0.22564 0.0
H538 H 0.62786 0.96044 0.23144 0.0
H539 H 0.62145 0.91025 0.24803 0.0
H540 H 0.72673 0.95711 0.25078 0.0
H541 H 0.73348 0.00785 0.2344 0.0
H542 H 0.76686 0.96885 0.23021 0.0
H543 H 0.6862 0.85628 0.16927 0.0
H544 H 0.70219 0.93745 0.15187 0.0
H545 H 0.69464 0.01479 0.20273 0.0
C546 C 0.67 0.83726 0.24167 0.0
C547 C 0.6664 0.78605 0.23916 0.0
C548 C 0.66864 0.76809 0.22108 0.0
C549 C 0.67381 0.80024 0.20572 0.0
C550 C 0.67626 0.84997 0.20869 0.0
C551 C 0.67467 0.86859 0.22617 0.0
C552 C 0.67837 0.92379 0.22549 0.0
C553 C 0.62619 0.92067 0.2331 0.0
C554 C 0.7294 0.96695 0.23583 0.0
C555 C 0.68321 0.93369 0.20485 0.0
C556 C 0.68157 0.8903 0.19547 0.0
C557 C 0.68733 0.8904 0.17642 0.0
C558 C 0.69643 0.93667 0.16669 0.0
C559 C 0.69953 0.98216 0.17601 0.0
C560 C 0.69162 0.9802 0.19529 0.0
H561 H 0.78759 0.60632 0.40462 0.0
H562 H 0.70515 0.63943 0.44894 0.0
H563 H 0.6434 0.64588 0.42603 0.0
H564 H 0.78911 0.70115 0.37387 0.0
H565 H 0.7791 0.66046 0.35351 0.0
H566 H 0.81166 0.65186 0.37356 0.0
H567 H 0.73976 0.54882 0.37415 0.0
H568 H 0.70686 0.55714 0.35407 0.0
H569 H 0.6682 0.52774 0.37482 0.0
H570 H 0.59336 0.65267 0.39772 0.0
H571 H 0.56559 0.66721 0.36663 0.0
H572 H 0.68527 0.63428 0.34166 0.0
C573 C 0.75593 0.61394 0.40959 0.0
C574 C 0.75086 0.62198 0.42855 0.0
C575 C 0.70969 0.63312 0.43444 0.0
C576 C 0.67426 0.6365 0.42156 0.0
C577 C 0.68083 0.62887 0.4029 0.0
C578 C 0.72093 0.61813 0.39697 0.0
C579 C 0.72303 0.61624 0.37616 0.0
C580 C 0.77903 0.66005 0.36886 0.0
C581 C 0.70859 0.55908 0.36941 0.0
C582 C 0.67876 0.629 0.37122 0.0
C583 C 0.6539 0.63496 0.38676 0.0
C584 C 0.61242 0.64787 0.38546 0.0
C585 C 0.59681 0.65591 0.36782 0.0
C586 C 0.62363 0.65214 0.35189 0.0
C587 C 0.6644 0.63771 0.35367 0.0
H588 H 0.48371 0.77159 0.31895 0.0
H589 H 0.66011 0.87021 0.32402 0.0
H590 H 0.64958 0.93795 0.34224 0.0
H591 H 0.45799 0.88384 0.3144 0.0
H592 H 0.39564 0.85025 0.32746 0.0
H593 H 0.41765 0.81053 0.31447 0.0
H594 H 0.4132 0.75777 0.34429 0.0
H595 H 0.39236 0.79822 0.35745 0.0
H596 H 0.4519 0.79491 0.36436 0.0
H597 H 0.62035 -0.00513 0.35956 0.0
H598 H 0.574 0.04096 0.37312 0.0
H599 H 0.41685 0.90357 0.35796 0.0
C600 C 0.52026 0.80764 0.32371 0.0
C601 C 0.57279 0.81552 0.32006 0.0
C602 C 0.61944 0.86326 0.32662 0.0
C603 C 0.6139 0.90182 0.33706 0.0
C604 C 0.5615 0.89192 0.34083 0.0
C605 C 0.51551 0.84636 0.33421 0.0
C606 C 0.46388 0.84577 0.34005 0.0
C607 C 0.43193 0.84773 0.32309 0.0
C608 C 0.42825 0.79622 0.35227 0.0
C609 C 0.48809 0.8982 0.35103 0.0
C610 C 0.54449 0.92413 0.3513 0.0
C611 C 0.57624 0.97477 0.35962 0.0
C612 C 0.54967 0.00043 0.36735 0.0
C613 C 0.49208 0.97507 0.36684 0.0
C614 C 0.46085 0.92282 0.359 0.0
H615 H 0.46093 0.5105 0.512 0.0
H616 H 0.4409 0.41223 0.56046 0.0
H617 H 0.54062 0.44767 0.56115 0.0
H618 H 0.55896 0.49117 0.48993 0.0
H619 H 0.59681 0.55951 0.48101 0.0
H620 H 0.52504 0.52955 0.48547 0.0
H621 H 0.54472 0.61108 0.50681 0.0
H622 H 0.61678 0.64108 0.50251 0.0
H623 H 0.59168 0.62813 0.52588 0.0
H624 H 0.64029 0.48593 0.55421 0.0
H625 H 0.73215 0.52473 0.5405 0.0
H626 H 0.68618 0.60151 0.49776 0.0
C627 C 0.47745 0.49653 0.52283 0.0
C628 C 0.44337 0.45833 0.53609 0.0
C629 C 0.46652 0.44153 0.55017 0.0
C630 C 0.52298 0.46156 0.5507 0.0
C631 C 0.55539 0.49903 0.53729 0.0
C632 C 0.53342 0.51663 0.52372 0.0
C633 C 0.57632 0.55514 0.51041 0.0
C634 C 0.56351 0.53246 0.49054 0.0
C635 C 0.58275 0.61224 0.51148 0.0
C636 C 0.62577 0.55499 0.51818 0.0
C637 C 0.61306 0.52271 0.53376 0.0
C638 C 0.65104 0.51221 0.54227 0.0
C639 C 0.70295 0.53428 0.53438 0.0
C640 C 0.71621 0.56659 0.51824 0.0
C641 C 0.67757 0.57819 0.51039 0.0
H642 H 0.24845 0.69965 0.66252 0.0
H643 H 0.16431 0.78827 0.67586 0.0
H644 H 0.09882 0.71167 0.69472 0.0
H645 H 0.12802 0.57092 0.65729 0.0
H646 H 0.15649 0.53215 0.66714 0.0
H647 H 0.20036 0.59599 0.65593 0.0
H648 H 0.2594 0.63104 0.68565 0.0
H649 H 0.21524 0.56738 0.69702 0.0
H650 H 0.22762 0.6306 0.70725 0.0
H651 H 0.03956 0.62594 0.71038 0.0
H652 H 0.98419 0.53025 0.72028 0.0
H653 H 0.10388 0.49417 0.69726 0.0
C654 C 0.2165 0.70295 0.66956 0.0
C655 C 0.21153 0.74994 0.66772 0.0
C656 C 0.16875 0.75256 0.67693 0.0
C657 C 0.1316 0.70948 0.68785 0.0
C658 C 0.1375 0.66386 0.6894 0.0
C659 C 0.17835 0.65978 0.68042 0.0
C660 C 0.17233 0.60403 0.68335 0.0
C661 C 0.16377 0.57401 0.66483 0.0
C662 C 0.22159 0.60856 0.69395 0.0
C663 C 0.12116 0.57739 0.69508 0.0
C664 C 0.10245 0.6132 0.69858 0.0
C665 C 0.05409 0.59765 0.70802 0.0
C666 C 0.02307 0.54349 0.71362 0.0
C667 C 0.04072 0.50589 0.70982 0.0
C668 C 0.09076 0.52301 0.70076 0.0
H669 H 0.3853 0.11436 0.82688 0.0
H670 H 0.47089 0.24717 0.86591 0.0
H671 H 0.50296 0.19268 0.88282 0.0
H672 H 0.35008 -0.00074 0.85958 0.0
H673 H 0.36262 0.96186 0.84197 0.0
H674 H 0.33714 0.00658 0.83565 0.0
H675 H 0.41846 0.05726 0.81319 0.0
H676 H 0.44491 0.01374 0.81969 0.0
H677 H 0.48719 0.08657 0.82196 0.0
H678 H 0.53522 0.12759 0.893 0.0
H679 H 0.5638 0.05783 0.89522 0.0
H680 H 0.46067 0.97311 0.8481 0.0
C681 C 0.40897 0.13128 0.8394 0.0
C682 C 0.42527 0.18472 0.84516 0.0
C683 C 0.45772 0.20603 0.86131 0.0
C684 C 0.47604 0.17539 0.87103 0.0
C685 C 0.46142 0.1237 0.86439 0.0
C686 C 0.42818 0.10173 0.84901 0.0
C687 C 0.42376 0.04862 0.84318 0.0
C688 C 0.3649 0.00128 0.84523 0.0
C689 C 0.44486 0.0518 0.82334 0.0
C690 C 0.46121 0.04505 0.85724 0.0
C691 C 0.4818 0.08788 0.86965 0.0
C692 C 0.5189 0.09355 0.88346 0.0
C693 C 0.53511 0.05412 0.88458 0.0
C694 C 0.51508 0.01086 0.87164 0.0
C695 C 0.47743 0.00634 0.85799 0.0
H696 H 0.27591 0.44483 0.97004 0.0
H697 H 0.24976 0.57087 0.99363 0.0
H698 H 0.32776 0.5974 0.01468 0.0
H699 H 0.29945 0.39859 0.00948 0.0
H700 H 0.35292 0.38683 0.0014 0.0
H701 H 0.30347 0.38504 0.98535 0.0
H702 H 0.38027 0.45897 0.96528 0.0
H703 H 0.43072 0.46086 0.98102 0.0
H704 H 0.42988 0.52252 0.9757 0.0
H705 H 0.39859 0.60001 0.03655 0.0
H706 H 0.46364 0.58522 0.05507 0.0
H707 H 0.44039 0.45547 0.0176 0.0
C708 C 0.28765 0.47927 0.97917 0.0
C709 C 0.25639 0.50551 0.9802 0.0
C710 C 0.27307 0.55019 0.99247 0.0
C711 C 0.3173 0.5655 0.00456 0.0
C712 C 0.3449 0.53632 0.004 0.0
C713 C 0.3316 0.49506 0.99128 0.0
C714 C 0.36477 0.46726 0.99441 0.0
C715 C 0.32792 0.40582 0.99787 0.0
C716 C 0.40372 0.47804 0.97814 0.0
C717 C 0.39591 0.49671 0.01164 0.0
C718 C 0.38493 0.53722 0.01674 0.0
C719 C 0.40803 0.56886 0.03253 0.0
C720 C 0.44441 0.55973 0.04308 0.0
C721 C 0.45659 0.51869 0.03795 0.0
C722 C 0.4314 0.48659 0.0221 0.0
H723 H 0.97241 0.50005 0.19295 0.0
H724 H 0.10839 0.52448 0.15872 0.0
H725 H 0.06893 0.42491 0.15609 0.0
H726 H 0.94921 0.37543 0.2166 0.0
H727 H 0.87599 0.34443 0.21552 0.0
H728 H 0.91806 0.41751 0.21685 0.0
H729 H 0.87338 0.42786 0.18691 0.0
H730 H 0.83049 0.3551 0.1858 0.0
H731 H 0.87268 0.39144 0.16637 0.0
H732 H 0.01385 0.32423 0.15603 0.0
H733 H 0.93849 0.23 0.15297 0.0
H734 H 0.83541 0.2704 0.18597 0.0
C735 C -0.00608 0.48421 0.18504 0.0
C736 C 0.04336 0.51951 0.17608 0.0
C737 C 0.07016 0.4978 0.16556 0.0
C738 C 0.04855 0.44145 0.16424 0.0
C739 C -6e-05 0.40757 0.17338 0.0
C740 C 0.9723 0.42802 0.18324 0.0
C741 C 0.91746 0.38283 0.18973 0.0
C742 C 0.91507 0.3799 0.21094 0.0
C743 C 0.87077 0.38971 0.18171 0.0
C744 C 0.918 0.33395 0.18152 0.0
C745 C 0.96669 0.34904 0.17266 0.0
C746 C 0.97562 0.31173 0.16301 0.0
C747 C 0.93249 0.25813 0.16142 0.0
C748 C 0.88072 0.24276 0.1691 0.0
C749 C 0.87448 0.28063 0.18004 0.0
H750 H 0.9443 0.46431 0.49812 0.0
H751 H 0.00844 0.54041 0.44502 0.0
H752 H 0.0661 0.49748 0.44411 0.0
H753 H 0.06677 0.48054 0.51645 0.0
H754 H 0.03415 0.41606 0.52829 0.0
H755 H -0.00296 0.45117 0.52401 0.0
H756 H 0.92147 0.36524 0.50728 0.0
H757 H 0.95901 0.33023 0.51125 0.0
H758 H 0.9394 0.33675 0.48809 0.0
H759 H 0.1213 0.45157 0.45035 0.0
H760 H 0.17187 0.40946 0.46372 0.0
H761 H 0.06651 0.36022 0.51175 0.0
C762 C 0.9705 0.47221 0.48627 0.0
C763 C 0.97217 0.50595 0.47168 0.0
C764 C 0.00665 0.51471 0.45637 0.0
C765 C 0.03923 0.49029 0.45568 0.0
C766 C 0.03603 0.45676 0.47027 0.0
C767 C 0.00249 0.44777 0.48526 0.0
C768 C 0.00767 0.41176 0.4995 0.0
C769 C 0.02762 0.44168 0.51815 0.0
C770 C 0.95367 0.35779 0.50164 0.0
C771 C 0.05058 0.40295 0.49044 0.0
C772 C 0.06625 0.42886 0.47353 0.0
C773 C 0.10876 0.43036 0.46341 0.0
C774 C 0.13715 0.40632 0.47109 0.0
C775 C 0.12261 0.38111 0.48866 0.0
C776 C 0.07763 0.37792 0.49809 0.0
H777 H 0.54698 0.97904 0.64325 0.0
H778 H 0.48168 0.08425 0.62901 0.0
H779 H 0.55128 0.15682 0.64869 0.0
H780 H 0.58082 0.02273 0.69063 0.0
H781 H 0.64322 0.02017 0.69053 0.0
H782 H 0.58728 0.9753 0.67571 0.0
H783 H 0.65006 0.0113 0.647 0.0
H784 H 0.70637 0.05525 0.66178 0.0
H785 H 0.68784 0.08357 0.64268 0.0
H786 H 0.62694 0.21755 0.67012 0.0
H787 H 0.71267 0.26767 0.68778 0.0
H788 H 0.73 0.1237 0.68755 0.0
C789 C 0.54771 0.01755 0.6441 0.0
C790 C 0.50909 0.02601 0.63448 0.0
C791 C 0.51131 0.07698 0.63602 0.0
C792 C 0.55022 0.11826 0.64737 0.0
C793 C 0.58684 0.1081 0.65699 0.0
C794 C 0.58662 0.05943 0.65522 0.0
C795 C 0.63228 0.06 0.66632 0.0
C796 C 0.60952 0.01699 0.68171 0.0
C797 C 0.67146 0.0521 0.65369 0.0
C798 C 0.65895 0.11707 0.67426 0.0
C799 C 0.63135 0.14366 0.66905 0.0
C800 C 0.64903 0.19724 0.67427 0.0
C801 C 0.6977 0.22529 0.68439 0.0
C802 C 0.72843 0.19983 0.68897 0.0
C803 C 0.70758 0.14441 0.68432 0.0
H804 H 0.60665 0.72125 0.83673 0.0
H805 H 0.48547 0.74402 0.80738 0.0
H806 H 0.463 0.66364 0.78799 0.0
H807 H 0.64935 0.66701 0.79716 0.0
H808 H 0.65587 0.61943 0.81194 0.0
H809 H 0.66924 0.68427 0.821 0.0
H810 H 0.59807 0.63498 0.8469 0.0
H811 H 0.58479 0.57034 0.838 0.0
H812 H 0.52942 0.58401 0.84067 0.0
H813 H 0.44576 0.574 0.77465 0.0
H814 H 0.43115 0.4806 0.77056 0.0
H815 H 0.56261 0.51818 0.8092 0.0
C816 C 0.57625 0.71028 0.82595 0.0
C817 C 0.54795 0.73897 0.82355 0.0
C818 C 0.5078 0.72262 0.80946 0.0
C819 C 0.49506 0.67731 0.79827 0.0
C820 C 0.52317 0.64929 0.80128 0.0
C821 C 0.56299 0.66533 0.8148 0.0
C822 C 0.5826 0.62502 0.81698 0.0
C823 C 0.64284 0.65047 0.81143 0.0
C824 C 0.5731 0.60225 0.8368 0.0
C825 C 0.54575 0.58239 0.80321 0.0
C826 C 0.51268 0.59749 0.79388 0.0
C827 C 0.47213 0.56215 0.78161 0.0
C828 C 0.46414 0.50942 0.77932 0.0
C829 C 0.4959 0.49294 0.7896 0.0
C830 C 0.53814 0.53035 0.80115 0.0
H831 H 0.80154 0.55283 0.01187 0.0
H832 H 0.65363 0.42432 0.98651 0.0
H833 H 0.70856 0.39438 0.96874 0.0
H834 H 0.88703 0.58709 0.97249 0.0
H835 H 0.94637 0.59856 0.98545 0.0
H836 H 0.89522 0.60929 0.99623 0.0
H837 H 0.88413 0.54191 0.02235 0.0
H838 H 0.93559 0.53136 0.01173 0.0
H839 H 0.86908 0.47397 0.01642 0.0
H840 H 0.78094 0.3808 0.95295 0.0
H841 H 0.86398 0.38068 0.94227 0.0
H842 H 0.96245 0.51716 0.97879 0.0
C843 C 0.78061 0.51838 0.00259 0.0
C844 C 0.7234 0.49109 0.00049 0.0
C845 C 0.6975 0.44575 0.98836 0.0
C846 C 0.72833 0.42859 0.97816 0.0
C847 C 0.7848 0.45688 0.98042 0.0
C848 C 0.81055 0.50041 0.99249 0.0
C849 C 0.87154 0.5234 0.99272 0.0
C850 C 0.9018 0.58312 0.98633 0.0
C851 C 0.89122 0.51727 0.01194 0.0
C852 C 0.87625 0.48646 0.97871 0.0
C853 C 0.82595 0.44842 0.97168 0.0
C854 C 0.82056 0.4103 0.9584 0.0
C855 C 0.8679 0.41071 0.95236 0.0
C856 C 0.91967 0.44881 0.95972 0.0
C857 C 0.92353 0.48727 0.97294 0.0
H858 H 0.51458 0.97252 0.12123 0.0
H859 H 0.53662 0.11658 0.14984 0.0
H860 H 0.43716 0.07268 0.15474 0.0
H861 H 0.37767 0.93012 0.10019 0.0
H862 H 0.35344 0.85895 0.10432 0.0
H863 H 0.42486 0.90487 0.1 0.0
H864 H 0.44974 0.87555 0.13075 0.0
H865 H 0.37861 0.82958 0.13511 0.0
H866 H 0.41951 0.88087 0.15198 0.0
H867 H 0.33848 0.01102 0.15957 0.0
H868 H 0.24754 0.93318 0.16622 0.0
H869 H 0.28872 0.82673 0.13559 0.0
C870 C 0.49794 -0.00495 0.12804 0.0
C871 C 0.53253 0.04794 0.13497 0.0
C872 C 0.51022 0.07603 0.14437 0.0
C873 C 0.45392 0.05161 0.14709 0.0
C874 C 0.42065 -0.00107 0.14043 0.0
C875 C 0.4417 0.97075 0.13119 0.0
C876 C 0.39783 0.91225 0.12763 0.0
C877 C 0.38787 0.9009 0.10679 0.0
C878 C 0.41229 0.87223 0.13693 0.0
C879 C 0.34948 0.91162 0.13685 0.0
C880 C 0.36331 0.96238 0.14377 0.0
C881 C 0.32681 0.97119 0.154 0.0
C882 C 0.27522 0.92662 0.15773 0.0
C883 C 0.26077 0.87372 0.15142 0.0
C884 C 0.29807 0.86668 0.14041 0.0
H885 H 0.54386 0.46077 0.29401 0.0
H886 H 0.40093 0.47347 0.30693 0.0
H887 H 0.35767 0.38261 0.32128 0.0
H888 H 0.47119 0.3117 0.28508 0.0
H889 H 0.52414 0.30366 0.29594 0.0
H890 H 0.54095 0.36663 0.28456 0.0
H891 H 0.58659 0.41947 0.31473 0.0
H892 H 0.56912 0.35668 0.3263 0.0
H893 H 0.54749 0.40166 0.33577 0.0
H894 H 0.3335 0.29568 0.33657 0.0
H895 H 0.32711 0.2138 0.35068 0.0
H896 H 0.4866 0.25773 0.32855 0.0
C897 C 0.50282 0.44355 0.29936 0.0
C898 C 0.47539 0.47359 0.29928 0.0
C899 C 0.42239 0.45075 0.30686 0.0
C900 C 0.39752 0.39929 0.31501 0.0
C901 C 0.42634 0.37144 0.3155 0.0
C902 C 0.47758 0.39237 0.30777 0.0
C903 C 0.50106 0.35554 0.31136 0.0
C904 C 0.50983 0.33304 0.29315 0.0
C905 C 0.5542 0.38512 0.32272 0.0
C906 C 0.45531 0.31123 0.32253 0.0
C907 C 0.41257 0.32117 0.32466 0.0
C908 C 0.36638 0.287 0.33486 0.0
C909 C 0.3633 0.24073 0.34289 0.0
C910 C 0.40629 0.22919 0.3407 0.0
C911 C 0.45301 0.26529 0.33047 0.0
H912 H 0.05847 0.73253 0.45027 0.0
H913 H 0.93696 0.76034 0.42385 0.0
H914 H 0.005 0.81918 0.40062 0.0
H915 H 0.17171 0.8721 0.44393 0.0
H916 H 0.22075 0.85 0.44048 0.0
H917 H 0.16202 0.8107 0.4548 0.0
H918 H 0.13706 0.72567 0.4346 0.0
H919 H 0.19472 0.76527 0.41983 0.0
H920 H 0.12702 0.72813 0.41008 0.0
H921 H 0.08332 0.868 0.37913 0.0
H922 H 0.17328 0.92413 0.36493 0.0
H923 H 0.24635 0.87014 0.40669 0.0
C924 C 0.04693 0.75233 0.43985 0.0
C925 C -0.00675 0.74306 0.43881 0.0
C926 C 0.97855 0.76836 0.42493 0.0
C927 C 0.01655 0.80096 0.41158 0.0
C928 C 0.06889 0.80803 0.41258 0.0
C929 C 0.08469 0.78599 0.42668 0.0
C930 C 0.14427 0.80239 0.4251 0.0
C931 C 0.1766 0.8358 0.44208 0.0
C932 C 0.15113 0.75237 0.42223 0.0
C933 C 0.15945 0.83705 0.40787 0.0
C934 C 0.11497 0.83852 0.40063 0.0
C935 C 0.11864 0.86767 0.38474 0.0
C936 C 0.16995 0.89897 0.37667 0.0
C937 C 0.217 0.9018 0.38478 0.0
C938 C 0.21116 0.86872 0.40016 0.0
H939 H 0.24059 0.19024 0.5521 0.0
H940 H 0.25169 0.2869 0.60022 0.0
H941 H 0.27443 0.22953 0.61968 0.0
H942 H 0.18284 0.05914 0.57543 0.0
H943 H 0.22199 0.03734 0.56195 0.0
H944 H 0.20271 0.08373 0.55218 0.0
H945 H 0.30436 0.15207 0.54515 0.0
H946 H 0.32403 0.10625 0.55513 0.0
H947 H 0.35374 0.17508 0.56368 0.0
H948 H 0.29756 0.1628 0.63376 0.0
H949 H 0.3189 0.09035 0.64142 0.0
H950 H 0.29707 0.04124 0.58372 0.0
C951 C 0.24682 0.19863 0.56678 0.0
C952 C 0.24415 0.24264 0.57471 0.0
C953 C 0.25364 0.25324 0.59391 0.0
C954 C 0.26653 0.22095 0.60507 0.0
C955 C 0.27014 0.17862 0.59676 0.0
C956 C 0.2605 0.16732 0.57807 0.0
C957 C 0.26926 0.12094 0.57244 0.0
C958 C 0.21603 0.07242 0.56507 0.0
C959 C 0.31561 0.13974 0.55827 0.0
C960 C 0.28548 0.10813 0.59086 0.0
C961 C 0.28541 0.14153 0.60475 0.0
C962 C 0.29792 0.13641 0.62301 0.0
C963 C 0.31007 0.09535 0.62722 0.0
C964 C 0.31012 0.06065 0.61315 0.0
C965 C 0.29824 0.06771 0.59474 0.0
H966 H 0.22429 0.20582 0.75812 0.0
H967 H 0.35517 0.35074 0.73256 0.0
H968 H 0.288 0.35914 0.71329 0.0
H969 H 0.13374 0.15478 0.71573 0.0
H970 H 0.07317 0.1311 0.72954 0.0
H971 H 0.13204 0.13048 0.73886 0.0
H972 H 0.13287 0.18811 0.76684 0.0
H973 H 0.07424 0.18885 0.75766 0.0
H974 H 0.13554 0.25216 0.7628 0.0
H975 H 0.2077 0.36328 0.70195 0.0
H976 H 0.11896 0.35972 0.69835 0.0
H977 H 0.0397 0.20909 0.7292 0.0
C978 C 0.23896 0.23853 0.74814 0.0
C979 C 0.29496 0.27762 0.74688 0.0
C980 C 0.31248 0.32009 0.73374 0.0
C981 C 0.27465 0.32511 0.72265 0.0
C982 C 0.2196 0.28675 0.72459 0.0
C983 C 0.20178 0.24378 0.73681 0.0
C984 C 0.14014 0.21135 0.73761 0.0
C985 C 0.11851 0.1535 0.72997 0.0
C986 C 0.11953 0.21011 0.75739 0.0
C987 C 0.12618 0.24482 0.72481 0.0
C988 C 0.17262 0.28774 0.71723 0.0
C989 C 0.17084 0.32879 0.70719 0.0
C990 C 0.12053 0.32658 0.70522 0.0
C991 C 0.07298 0.28328 0.71304 0.0
C992 C 0.07547 0.2412 0.72246 0.0
H993 H 0.69087 0.04306 0.91265 0.0
H994 H 0.75919 0.93634 0.91619 0.0
H995 H 0.84308 0.01095 0.9304 0.0
H996 H 0.80959 0.15504 0.89765 0.0
H997 H 0.79991 0.20521 0.90974 0.0
H998 H 0.74175 0.14127 0.90315 0.0
H999 H 0.70934 0.12335 0.93718 0.0
H1000 H 0.76742 0.18753 0.94389 0.0
H1001 H 0.75512 0.1255 0.95498 0.0
H1002 H 0.9217 0.09859 0.94169 0.0
H1003 H -0.00756 0.19445 0.94681 0.0
H1004 H 0.87458 0.24527 0.93384 0.0
C1005 C 0.72288 0.03503 0.91696 0.0
C1006 C 0.71853 0.98396 0.91368 0.0
C1007 C 0.76186 0.97525 0.91879 0.0
C1008 C 0.80939 0.0172 0.92693 0.0
C1009 C 0.81293 0.06758 0.92964 0.0
C1010 C 0.77096 0.07676 0.9247 0.0
C1011 C 0.78756 0.13619 0.92685 0.0
C1012 C 0.78454 0.16085 0.90824 0.0
C1013 C 0.75279 0.14356 0.94161 0.0
C1014 C 0.84589 0.15925 0.93331 0.0
C1015 C 0.85932 0.11885 0.93526 0.0
C1016 C 0.91156 0.13055 0.94038 0.0
C1017 C 0.95143 0.18512 0.94327 0.0
C1018 C 0.93902 0.22731 0.94067 0.0
C1019 C 0.88529 0.21391 0.93592 0.0
H1020 H 0.70505 0.93273 0.11126 0.0
H1021 H 0.67209 0.0048 0.06366 0.0
H1022 H 0.65219 0.92351 0.04491 0.0
H1023 H 0.77301 0.87627 0.08814 0.0
H1024 H 0.74462 0.81533 0.10194 0.0
H1025 H 0.75246 0.87733 0.11163 0.0
H1026 H 0.64945 0.82831 0.11964 0.0
H1027 H 0.64128 0.76587 0.11015 0.0
H1028 H 0.59959 0.79286 0.10171 0.0
H1029 H 0.64417 0.83676 0.03097 0.0
H1030 H 0.64045 0.74912 0.024 0.0
H1031 H 0.67677 0.73671 0.08151 0.0
C1032 C 0.69318 0.93125 0.09693 0.0
C1033 C 0.69037 0.97481 0.0888 0.0
C1034 C 0.67419 0.9714 0.07009 0.0
C1035 C 0.66306 0.92565 0.05936 0.0
C1036 C 0.66757 0.88379 0.06774 0.0
C1037 C 0.68143 0.88602 0.08619 0.0
C1038 C 0.68435 0.83659 0.09203 0.0
C1039 C 0.74203 0.85235 0.09882 0.0
C1040 C 0.64107 0.80398 0.10675 0.0
C1041 C 0.6711 0.80651 0.07388 0.0
C1042 C 0.66161 0.83407 0.05996 0.0
C1043 C 0.65088 0.81451 0.04183 0.0
C1044 C 0.6492 0.76508 0.03797 0.0
C1045 C 0.65791 0.73616 0.05226 0.0
C1046 C 0.66913 0.75748 0.07034 0.0
H1047 H 0.80012 0.73979 0.26744 0.0
H1048 H 0.71243 0.56604 0.27822 0.0
H1049 H 0.78593 0.55743 0.26294 0.0
H1050 H 0.83839 0.72947 0.22288 0.0
H1051 H 0.90442 0.79036 0.22379 0.0
H1052 H 0.84981 0.78483 0.23801 0.0
H1053 H 0.90926 0.80373 0.26741 0.0
H1054 H 0.9646 0.81056 0.25325 0.0
H1055 H 0.94009 0.76258 0.27205 0.0
H1056 H 0.86546 0.56709 0.24476 0.0
H1057 H 0.94674 0.5943 0.22539 0.0
H1058 H 0.9784 0.76075 0.22472 0.0
C1059 C 0.79727 0.70024 0.26716 0.0
C1060 C 0.7512 0.65365 0.27425 0.0
C1061 C 0.74784 0.60223 0.27302 0.0
C1062 C 0.78923 0.59699 0.26436 0.0
C1063 C 0.83314 0.64349 0.25688 0.0
C1064 C 0.83754 0.69416 0.25826 0.0
C1065 C 0.88631 0.73686 0.24773 0.0
C1066 C 0.86864 0.76182 0.23219 0.0
C1067 C 0.92751 0.78103 0.2609 0.0
C1068 C 0.9084 0.70219 0.24003 0.0
C1069 C 0.8775 0.64859 0.24563 0.0
C1070 C 0.89008 0.60894 0.24034 0.0
C1071 C 0.93612 0.62474 0.22931 0.0
C1072 C 0.96844 0.67951 0.2235 0.0
C1073 C 0.95393 0.71848 0.22876 0.0
H1074 H 0.71778 0.43842 0.43339 0.0
H1075 H 0.72732 0.36347 0.48447 0.0
H1076 H 0.65507 0.27365 0.47275 0.0
H1077 H 0.57052 0.35296 0.42617 0.0
H1078 H 0.57807 0.35217 0.40147 0.0
H1079 H 0.62625 0.41025 0.41482 0.0
H1080 H 0.70539 0.40023 0.40116 0.0
H1081 H 0.65754 0.34169 0.388 0.0
H1082 H 0.70449 0.33648 0.4036 0.0
H1083 H 0.58746 0.19164 0.45407 0.0
H1084 H 0.52625 0.12457 0.43104 0.0
H1085 H 0.56348 0.25546 0.3923 0.0
C1086 C 0.70441 0.40329 0.44226 0.0
C1087 C 0.72833 0.40767 0.4598 0.0
C1088 C 0.7093 0.36088 0.47102 0.0
C1089 C 0.66852 0.30984 0.46445 0.0
C1090 C 0.64715 0.30688 0.44678 0.0
C1091 C 0.66406 0.35259 0.43598 0.0
C1092 C 0.63652 0.33882 0.41726 0.0
C1093 C 0.6007 0.3651 0.4148 0.0
C1094 C 0.6785 0.35527 0.40159 0.0
C1095 C 0.6023 0.27776 0.41895 0.0
C1096 C 0.60861 0.26007 0.4361 0.0
C1097 C 0.58188 0.2051 0.44067 0.0
C1098 C 0.54738 0.16734 0.42744 0.0
C1099 C 0.54012 0.18473 0.4098 0.0
C1100 C 0.56822 0.24075 0.40558 0.0
H1101 H 0.29492 0.721 0.60171 0.0
H1102 H 0.42586 0.84799 0.56965 0.0
H1103 H 0.41191 0.78066 0.54537 0.0
H1104 H 0.32342 0.61702 0.59264 0.0
H1105 H 0.2529 0.56409 0.59111 0.0
H1106 H 0.27166 0.62359 0.60494 0.0
H1107 H 0.20275 0.64061 0.58647 0.0
H1108 H 0.1848 0.58157 0.57231 0.0
H1109 H 0.20837 0.64704 0.56169 0.0
H1110 H 0.38887 0.69733 0.52601 0.0
H1111 H 0.36265 0.6045 0.51478 0.0
H1112 H 0.24388 0.5349 0.55873 0.0
C1113 C 0.32076 0.73456 0.58961 0.0
C1114 C 0.36181 0.78938 0.58761 0.0
C1115 C 0.39426 0.80593 0.57144 0.0
C1116 C 0.38635 0.76815 0.55753 0.0
C1117 C 0.34503 0.71437 0.55983 0.0
C1118 C 0.31271 0.69772 0.57547 0.0
C1119 C 0.27273 0.63733 0.57507 0.0
C1120 C 0.28071 0.60886 0.59193 0.0
C1121 C 0.21367 0.62599 0.57381 0.0
C1122 C 0.28973 0.62204 0.5573 0.0
C1123 C 0.33068 0.667 0.54843 0.0
C1124 C 0.35606 0.66188 0.53261 0.0
C1125 C 0.34078 0.60923 0.52623 0.0
C1126 C 0.30113 0.56315 0.53586 0.0
C1127 C 0.27387 0.56983 0.55103 0.0
H1128 H 0.63814 0.42029 0.77118 0.0
H1129 H 0.6167 0.32742 0.82104 0.0
H1130 H 0.70806 0.33744 0.81659 0.0
H1131 H 0.68696 0.35931 0.7453 0.0
H1132 H 0.73552 0.41788 0.73239 0.0
H1133 H 0.67699 0.41688 0.74221 0.0
H1134 H 0.73951 0.5067 0.7599 0.0
H1135 H 0.79866 0.50833 0.74994 0.0
H1136 H 0.79304 0.51118 0.77467 0.0
H1137 H 0.79056 0.33976 0.80283 0.0
H1138 H 0.85567 0.33449 0.78136 0.0
H1139 H 0.82189 0.4261 0.74071 0.0
C1140 C 0.65353 0.40365 0.78149 0.0
C1141 C 0.62078 0.37299 0.79637 0.0
C1142 C 0.6417 0.35147 0.80961 0.0
C1143 C 0.69351 0.35713 0.8072 0.0
C1144 C 0.72386 0.38542 0.79176 0.0
C1145 C 0.70484 0.40917 0.77931 0.0
C1146 C 0.74069 0.43036 0.76247 0.0
C1147 C 0.70809 0.40451 0.74456 0.0
C1148 C 0.76971 0.49286 0.76171 0.0
C1149 C 0.78044 0.41103 0.76664 0.0
C1150 C 0.77136 0.38666 0.78381 0.0
C1151 C 0.79908 0.36009 0.7896 0.0
C1152 C 0.83585 0.35717 0.77732 0.0
C1153 C 0.84343 0.37978 0.75941 0.0
C1154 C 0.81686 0.40861 0.75436 0.0
H1155 H 0.36193 0.70693 0.86453 0.0
H1156 H 0.37038 0.84776 0.8912 0.0
H1157 H 0.27578 0.79159 0.90201 0.0
H1158 H 0.2067 0.63238 0.85371 0.0
H1159 H 0.201 0.56763 0.85903 0.0
H1160 H 0.26262 0.62098 0.84876 0.0
H1161 H 0.31908 0.61365 0.8757 0.0
H1162 H 0.25794 0.56091 0.88608 0.0
H1163 H 0.3025 0.62138 0.89915 0.0
H1164 H 0.19419 0.71968 0.91662 0.0
H1165 H 0.12725 0.63591 0.93268 0.0
H1166 H 0.16677 0.53957 0.89613 0.0
C1167 C 0.34249 0.72603 0.87182 0.0
C1168 C 0.37243 0.78141 0.87686 0.0
C1169 C 0.34732 0.8053 0.8871 0.0
C1170 C 0.29364 0.77381 0.8932 0.0
C1171 C 0.26567 0.71852 0.88888 0.0
C1172 C 0.28878 0.69477 0.87818 0.0
C1173 C 0.25336 0.63326 0.87809 0.0
C1174 C 0.2295 0.61234 0.85874 0.0
C1175 C 0.28512 0.60575 0.88519 0.0
C1176 C 0.20926 0.62622 0.8915 0.0
C1177 C 0.21654 0.67599 0.89724 0.0
C1178 C 0.18654 0.68037 0.91174 0.0
C1179 C 0.14892 0.6328 0.92085 0.0
C1180 C 0.14135 0.58175 0.91526 0.0
C1181 C 0.17059 0.57821 0.90009 0.0
H1182 H 0.74748 0.30087 0.10322 0.0
H1183 H 0.65411 0.26464 0.15376 0.0
H1184 H 0.62261 0.32841 0.14452 0.0
H1185 H 0.77703 0.4482 0.09794 0.0
H1186 H 0.76954 0.43958 0.07323 0.0
H1187 H 0.79756 0.40509 0.0863 0.0
H1188 H 0.72414 0.31326 0.0723 0.0
H1189 H 0.69443 0.34644 0.05963 0.0
H1190 H 0.65293 0.29186 0.07527 0.0
H1191 H 0.58593 0.37929 0.12669 0.0
H1192 H 0.55413 0.42043 0.10312 0.0
H1193 H 0.66747 0.41724 0.0636 0.0
C1194 C 0.72253 0.30847 0.11274 0.0
C1195 C 0.70319 0.27822 0.12917 0.0
C1196 C 0.66998 0.28824 0.14124 0.0
C1197 C 0.65166 0.3241 0.13603 0.0
C1198 C 0.66782 0.34988 0.11892 0.0
C1199 C 0.70373 0.34356 0.10767 0.0
C1200 C 0.70911 0.36933 0.08894 0.0
C1201 C 0.76673 0.41848 0.08646 0.0
C1202 C 0.69422 0.32771 0.07313 0.0
C1203 C 0.6674 0.38729 0.09086 0.0
C1204 C 0.64515 0.37729 0.10839 0.0
C1205 C 0.60381 0.3882 0.11305 0.0
C1206 C 0.5856 0.41093 0.09954 0.0
C1207 C 0.60785 0.4211 0.08151 0.0
C1208 C 0.64913 0.409 0.07719 0.0
H1209 H 0.42151 0.68411 0.26426 0.0
H1210 H 0.4634 0.59265 0.22602 0.0
H1211 H 0.41154 0.60687 0.20133 0.0
H1212 H 0.28617 0.63352 0.24875 0.0
H1213 H 0.28788 0.6975 0.25181 0.0
H1214 H 0.33054 0.68169 0.26589 0.0
H1215 H 0.41519 0.77159 0.25525 0.0
H1216 H 0.37259 0.78674 0.24077 0.0
H1217 H 0.4296 0.78393 0.23093 0.0
H1218 H 0.35059 0.62703 0.18119 0.0
H1219 H 0.27875 0.64431 0.16866 0.0
H1220 H 0.28115 0.72479 0.21987 0.0
C1221 C 0.41951 0.66675 0.25074 0.0
C1222 C 0.44626 0.63713 0.24709 0.0
C1223 C 0.44315 0.61556 0.22913 0.0
C1224 C 0.41417 0.62374 0.21497 0.0
C1225 C 0.38914 0.65411 0.21894 0.0
C1226 C 0.39136 0.67503 0.23642 0.0
C1227 C 0.35902 0.70409 0.23737 0.0
C1228 C 0.31318 0.67758 0.2518 0.0
C1229 C 0.39635 0.76521 0.24131 0.0
C1230 C 0.33667 0.69449 0.21791 0.0
C1231 C 0.35508 0.66644 0.20731 0.0
C1232 C 0.33644 0.6497 0.18925 0.0
C1233 C 0.2961 0.65995 0.18218 0.0
C1234 C 0.27501 0.68598 0.19334 0.0
C1235 C 0.29716 0.70521 0.21105 0.0
loop_
_geom_bond_atom_site_label_1
_geom_bond_atom_site_label_2
_geom_bond_distance
_geom_bond_site_symmetry_2
_ccdc_geom_bond_type
Sc0 O3 2.025 . S
Sc0 O10 2.105 . S
Sc0 O13 2.105 . S
Sc0 O16 2.105 . S
Sc0 O19 2.105 . S
Sc1 O3 2.025 . S
Sc1 O11 2.105 . S
Sc1 O15 2.105 . S
Sc1 O17 2.105 . S
Sc1 O21 2.105 . S
Sc2 O3 2.025 . S
Sc2 O12 2.105 . S
Sc2 O14 2.105 . S
Sc2 O18 2.105 . S
Sc2 O20 2.105 . S
O3 Sc0 2.025 . S
O3 Sc1 2.025 . S
O3 Sc2 2.025 . S
C4 O10 1.268 . S
C4 O20 1.268 . S
C5 O11 1.268 . S
C5 O19 1.268 . S
C6 O12 1.268 . S
C6 O21 1.268 . S
C7 O13 1.268 . S
C7 O17 1.268 . S
C8 O14 1.268 . S
C8 O16 1.268 . S
C9 O15 1.268 . S
C9 O18 1.268 . S
O10 Sc0 2.105 . S
O10 C4 1.268 . S
O11 Sc1 2.105 . S
O11 C5 1.268 . S
O12 Sc2 2.105 . S
O12 C6 1.268 . S
O13 Sc0 2.105 . S
O13 C7 1.268 . S
O14 Sc2 2.105 . S
O14 C8 1.268 . S
O15 Sc1 2.105 . S
O15 C9 1.268 . S
O16 Sc0 2.105 . S
O16 C8 1.268 . S
O17 Sc1 2.105 . S
O17 C7 1.268 . S
O18 Sc2 2.105 . S
O18 C9 1.268 . S
O19 Sc0 2.105 . S
O19 C5 1.268 . S
O20 Sc2 2.105 . S
O20 C4 1.268 . S
O21 Sc1 2.105 . S
O21 C6 1.268 . S
Sc22 O25 2.025 . S
Sc22 O32 2.105 . S
Sc22 O35 2.105 . S
Sc22 O38 2.105 . S
Sc22 O41 2.105 . S
Sc23 O25 2.025 . S
Sc23 O33 2.105 . S
Sc23 O37 2.105 . S
Sc23 O39 2.105 . S
Sc23 O43 2.105 . S
Sc24 O25 2.025 . S
Sc24 O34 2.105 . S
Sc24 O36 2.105 . S
Sc24 O40 2.105 . S
Sc24 O42 2.105 . S
O25 Sc22 2.025 . S
O25 Sc23 2.025 . S
O25 Sc24 2.025 . S
C26 O32 1.268 . S
C26 O42 1.268 . S
C27 O33 1.268 . S
C27 O41 1.268 . S
C28 O34 1.268 . S
C28 O43 1.268 . S
C29 O35 1.268 . S
C29 O39 1.268 . S
C30 O36 1.268 . S
C30 O38 1.268 . S
C31 O37 1.268 . S
C31 O40 1.268 . S
O32 Sc22 2.105 . S
O32 C26 1.268 . S
O33 Sc23 2.105 . S
O33 C27 1.268 . S
O34 Sc24 2.105 . S
O34 C28 1.268 . S
O35 Sc22 2.105 . S
O35 C29 1.268 . S
O36 Sc24 2.105 . S
O36 C30 1.268 . S
O37 Sc23 2.105 . S
O37 C31 1.268 . S
O38 Sc22 2.105 . S
O38 C30 1.268 . S
O39 Sc23 2.105 . S
O39 C29 1.268 . S
O40 Sc24 2.105 . S
O40 C31 1.268 . S
O41 Sc22 2.105 . S
O41 C27 1.268 . S
O42 Sc24 2.105 . S
O42 C26 1.268 . S
O43 Sc23 2.105 . S
O43 C28 1.268 . S
Sc44 O47 2.025 . S
Sc44 O54 2.105 . S
Sc44 O57 2.105 . S
Sc44 O60 2.105 . S
Sc44 O63 2.105 . S
Sc45 O47 2.025 . S
Sc45 O55 2.105 . S
Sc45 O59 2.105 . S
Sc45 O61 2.105 . S
Sc45 O65 2.105 . S
Sc46 O47 2.025 . S
Sc46 O56 2.105 . S
Sc46 O58 2.105 . S
Sc46 O62 2.105 . S
Sc46 O64 2.105 . S
O47 Sc44 2.025 . S
O47 Sc45 2.025 . S
O47 Sc46 2.025 . S
C48 O54 1.268 . S
C48 O64 1.268 . S
C49 O55 1.268 . S
C49 O63 1.268 . S
C50 O56 1.268 . S
C50 O65 1.268 . S
C51 O57 1.268 . S
C51 O61 1.268 . S
C52 O58 1.268 . S
C52 O60 1.268 . S
C53 O59 1.268 . S
C53 O62 1.268 . S
O54 Sc44 2.105 . S
O54 C48 1.268 . S
O55 Sc45 2.105 . S
O55 C49 1.268 . S
O56 Sc46 2.105 . S
O56 C50 1.268 . S
O57 Sc44 2.105 . S
O57 C51 1.268 . S
O58 Sc46 2.105 . S
O58 C52 1.268 . S
O59 Sc45 2.105 . S
O59 C53 1.268 . S
O60 Sc44 2.105 . S
O60 C52 1.268 . S
O61 Sc45 2.105 . S
O61 C51 1.268 . S
O62 Sc46 2.105 . S
O62 C53 1.268 . S
O63 Sc44 2.105 . S
O63 C49 1.268 . S
O64 Sc46 2.105 . S
O64 C48 1.268 . S
O65 Sc45 2.105 . S
O65 C50 1.268 . S
Sc66 O69 2.025 . S
Sc66 O76 2.105 . S
Sc66 O79 2.105 . S
Sc66 O82 2.105 . S
Sc66 O85 2.105 . S
Sc67 O69 2.025 . S
Sc67 O77 2.105 . S
Sc67 O81 2.105 . S
Sc67 O83 2.105 . S
Sc67 O87 2.105 . S
Sc68 O69 2.025 . S
Sc68 O78 2.105 . S
Sc68 O80 2.105 . S
Sc68 O84 2.105 . S
Sc68 O86 2.105 . S
O69 Sc66 2.025 . S
O69 Sc67 2.025 . S
O69 Sc68 2.025 . S
C70 O76 1.268 . S
C70 O86 1.268 . S
C71 O77 1.268 . S
C71 O85 1.268 . S
C72 O78 1.268 . S
C72 O87 1.268 . S
C73 O79 1.268 . S
C73 O83 1.268 . S
C74 O80 1.268 . S
C74 O82 1.268 . S
C75 O81 1.268 . S
C75 O84 1.268 . S
O76 Sc66 2.105 . S
O76 C70 1.268 . S
O77 Sc67 2.105 . S
O77 C71 1.268 . S
O78 Sc68 2.105 . S
O78 C72 1.268 . S
O79 Sc66 2.105 . S
O79 C73 1.268 . S
O80 Sc68 2.105 . S
O80 C74 1.268 . S
O81 Sc67 2.105 . S
O81 C75 1.268 . S
O82 Sc66 2.105 . S
O82 C74 1.268 . S
O83 Sc67 2.105 . S
O83 C73 1.268 . S
O84 Sc68 2.105 . S
O84 C75 1.268 . S
O85 Sc66 2.105 . S
O85 C71 1.268 . S
O86 Sc68 2.105 . S
O86 C70 1.268 . S
O87 Sc67 2.105 . S
O87 C72 1.268 . S
Sc88 O91 2.025 . S
Sc88 O98 2.105 . S
Sc88 O101 2.105 . S
Sc88 O104 2.105 . S
Sc88 O107 2.105 1_554 S
Sc89 O91 2.025 . S
Sc89 O99 2.105 . S
Sc89 O103 2.105 . S
Sc89 O105 2.105 . S
Sc89 O109 2.105 . S
Sc90 O91 2.025 . S
Sc90 O100 2.105 . S
Sc90 O102 2.105 . S
Sc90 O106 2.105 . S
Sc90 O108 2.105 . S
O91 Sc88 2.025 . S
O91 Sc89 2.025 . S
O91 Sc90 2.025 . S
C92 O98 1.268 . S
C92 O108 1.268 . S
C93 O99 1.268 1_556 S
C93 O107 1.268 . S
C94 O100 1.268 . S
C94 O109 1.268 . S
C95 O101 1.268 . S
C95 O105 1.268 . S
C96 O102 1.268 . S
C96 O104 1.268 . S
C97 O103 1.268 . S
C97 O106 1.268 . S
O98 Sc88 2.105 . S
O98 C92 1.268 . S
O99 Sc89 2.105 . S
O99 C93 1.268 1_554 S
O100 Sc90 2.105 . S
O100 C94 1.268 . S
O101 Sc88 2.105 . S
O101 C95 1.268 . S
O102 Sc90 2.105 . S
O102 C96 1.268 . S
O103 Sc89 2.105 . S
O103 C97 1.268 . S
O104 Sc88 2.105 . S
O104 C96 1.268 . S
O105 Sc89 2.105 . S
O105 C95 1.268 . S
O106 Sc90 2.105 . S
O106 C97 1.268 . S
O107 Sc88 2.105 1_556 S
O107 C93 1.268 . S
O108 Sc90 2.105 . S
O108 C92 1.268 . S
O109 Sc89 2.105 . S
O109 C94 1.268 . S
Sc110 O113 2.025 . S
Sc110 O120 2.105 . S
Sc110 O123 2.105 . S
Sc110 O126 2.105 . S
Sc110 O129 2.105 . S
Sc111 O113 2.025 . S
Sc111 O121 2.105 . S
Sc111 O125 2.105 . S
Sc111 O127 2.105 . S
Sc111 O131 2.105 . S
Sc112 O113 2.025 . S
Sc112 O122 2.105 . S
Sc112 O124 2.105 . S
Sc112 O128 2.105 . S
Sc112 O130 2.105 . S
O113 Sc110 2.025 . S
O113 Sc111 2.025 . S
O113 Sc112 2.025 . S
C114 O120 1.268 . S
C114 O130 1.268 . S
C115 O121 1.268 . S
C115 O129 1.268 . S
C116 O122 1.268 . S
C116 O131 1.268 . S
C117 O123 1.268 . S
C117 O127 1.268 . S
C118 O124 1.268 . S
C118 O126 1.268 . S
C119 O125 1.268 . S
C119 O128 1.268 . S
O120 Sc110 2.105 . S
O120 C114 1.268 . S
O121 Sc111 2.105 . S
O121 C115 1.268 . S
O122 Sc112 2.105 . S
O122 C116 1.268 . S
O123 Sc110 2.105 . S
O123 C117 1.268 . S
O124 Sc112 2.105 . S
O124 C118 1.268 . S
O125 Sc111 2.105 . S
O125 C119 1.268 . S
O126 Sc110 2.105 . S
O126 C118 1.268 . S
O127 Sc111 2.105 . S
O127 C117 1.268 . S
O128 Sc112 2.105 . S
O128 C119 1.268 . S
O129 Sc110 2.105 . S
O129 C115 1.268 . S
O130 Sc112 2.105 . S
O130 C114 1.268 . S
O131 Sc111 2.105 . S
O131 C116 1.268 . S
Sc132 O135 2.025 . S
Sc132 O142 2.105 . S
Sc132 O145 2.105 . S
Sc132 O148 2.105 . S
Sc132 O151 2.105 . S
Sc133 O135 2.025 . S
Sc133 O143 2.105 . S
Sc133 O147 2.105 . S
Sc133 O149 2.105 . S
Sc133 O153 2.105 . S
Sc134 O135 2.025 . S
Sc134 O144 2.105 . S
Sc134 O146 2.105 . S
Sc134 O150 2.105 . S
Sc134 O152 2.105 . S
O135 Sc132 2.025 . S
O135 Sc133 2.025 . S
O135 Sc134 2.025 . S
C136 O142 1.268 . S
C136 O152 1.268 . S
C137 O143 1.268 . S
C137 O151 1.268 . S
C138 O144 1.268 . S
C138 O153 1.268 . S
C139 O145 1.268 . S
C139 O149 1.268 . S
C140 O146 1.268 . S
C140 O148 1.268 . S
C141 O147 1.268 . S
C141 O150 1.268 . S
O142 Sc132 2.105 . S
O142 C136 1.268 . S
O143 Sc133 2.105 . S
O143 C137 1.268 . S
O144 Sc134 2.105 . S
O144 C138 1.268 . S
O145 Sc132 2.105 . S
O145 C139 1.268 . S
O146 Sc134 2.105 . S
O146 C140 1.268 . S
O147 Sc133 2.105 . S
O147 C141 1.268 . S
O148 Sc132 2.105 . S
O148 C140 1.268 . S
O149 Sc133 2.105 . S
O149 C139 1.268 . S
O150 Sc134 2.105 . S
O150 C141 1.268 . S
O151 Sc132 2.105 . S
O151 C137 1.268 . S
O152 Sc134 2.105 . S
O152 C136 1.268 . S
O153 Sc133 2.105 . S
O153 C138 1.268 . S
Sc154 O157 2.025 . S
Sc154 O164 2.105 . S
Sc154 O167 2.105 . S
Sc154 O170 2.105 . S
Sc154 O173 2.105 . S
Sc155 O157 2.025 . S
Sc155 O165 2.105 . S
Sc155 O169 2.105 . S
Sc155 O171 2.105 . S
Sc155 O175 2.105 . S
Sc156 O157 2.025 . S
Sc156 O166 2.105 . S
Sc156 O168 2.105 . S
Sc156 O172 2.105 . S
Sc156 O174 2.105 . S
O157 Sc154 2.025 . S
O157 Sc155 2.025 . S
O157 Sc156 2.025 . S
C158 O164 1.268 . S
C158 O174 1.268 . S
C159 O165 1.268 . S
C159 O173 1.268 . S
C160 O166 1.268 . S
C160 O175 1.268 . S
C161 O167 1.268 . S
C161 O171 1.268 . S
C162 O168 1.268 . S
C162 O170 1.268 . S
C163 O169 1.268 . S
C163 O172 1.268 . S
O164 Sc154 2.105 . S
O164 C158 1.268 . S
O165 Sc155 2.105 . S
O165 C159 1.268 . S
O166 Sc156 2.105 . S
O166 C160 1.268 . S
O167 Sc154 2.105 . S
O167 C161 1.268 . S
O168 Sc156 2.105 . S
O168 C162 1.268 . S
O169 Sc155 2.105 . S
O169 C163 1.268 . S
O170 Sc154 2.105 . S
O170 C162 1.268 . S
O171 Sc155 2.105 . S
O171 C161 1.268 . S
O172 Sc156 2.105 . S
O172 C163 1.268 . S
O173 Sc154 2.105 . S
O173 C159 1.268 . S
O174 Sc156 2.105 . S
O174 C158 1.268 . S
O175 Sc155 2.105 . S
O175 C160 1.268 . S
Sc176 O179 2.025 . S
Sc176 O186 2.105 . S
Sc176 O189 2.105 . S
Sc176 O192 2.105 . S
Sc176 O195 2.105 . S
Sc177 O179 2.025 . S
Sc177 O187 2.105 . S
Sc177 O191 2.105 . S
Sc177 O193 2.105 . S
Sc177 O197 2.105 . S
Sc178 O179 2.025 . S
Sc178 O188 2.105 . S
Sc178 O190 2.105 . S
Sc178 O194 2.105 . S
Sc178 O196 2.105 . S
O179 Sc176 2.025 . S
O179 Sc177 2.025 . S
O179 Sc178 2.025 . S
C180 O186 1.268 . S
C180 O196 1.268 . S
C181 O187 1.268 . S
C181 O195 1.268 . S
C182 O188 1.268 . S
C182 O197 1.268 . S
C183 O189 1.268 . S
C183 O193 1.268 . S
C184 O190 1.268 . S
C184 O192 1.268 . S
C185 O191 1.268 . S
C185 O194 1.268 . S
O186 Sc176 2.105 . S
O186 C180 1.268 . S
O187 Sc177 2.105 . S
O187 C181 1.268 . S
O188 Sc178 2.105 . S
O188 C182 1.268 . S
O189 Sc176 2.105 . S
O189 C183 1.268 . S
O190 Sc178 2.105 . S
O190 C184 1.268 . S
O191 Sc177 2.105 . S
O191 C185 1.268 . S
O192 Sc176 2.105 . S
O192 C184 1.268 . S
O193 Sc177 2.105 . S
O193 C183 1.268 . S
O194 Sc178 2.105 . S
O194 C185 1.268 . S
O195 Sc176 2.105 . S
O195 C181 1.268 . S
O196 Sc178 2.105 . S
O196 C180 1.268 . S
O197 Sc177 2.105 . S
O197 C182 1.268 . S
Sc198 O201 2.025 . S
Sc198 O208 2.105 . S
Sc198 O211 2.105 . S
Sc198 O214 2.105 . S
Sc198 O217 2.105 . S
Sc199 O201 2.025 . S
Sc199 O209 2.105 . S
Sc199 O213 2.105 . S
Sc199 O215 2.105 . S
Sc199 O219 2.105 . S
Sc200 O201 2.025 . S
Sc200 O210 2.105 . S
Sc200 O212 2.105 . S
Sc200 O216 2.078 1_556 S
Sc200 O218 2.105 . S
O201 Sc198 2.025 . S
O201 Sc199 2.025 . S
O201 Sc200 2.025 . S
C202 O208 1.268 . S
C202 O218 1.268 . S
C203 O209 1.268 . S
C203 O217 1.268 . S
C204 O210 1.268 . S
C204 O219 1.268 . S
C205 O211 1.268 . S
C205 O215 1.268 . S
C206 O212 1.268 . S
C206 O214 1.268 . S
C207 O213 1.268 1_554 S
C207 O216 1.270 . S
O208 Sc198 2.105 . S
O208 C202 1.268 . S
O209 Sc199 2.105 . S
O209 C203 1.268 . S
O210 Sc200 2.105 . S
O210 C204 1.268 . S
O211 Sc198 2.105 . S
O211 C205 1.268 . S
O212 Sc200 2.105 . S
O212 C206 1.268 . S
O213 Sc199 2.105 . S
O213 C207 1.268 1_556 S
O214 Sc198 2.105 . S
O214 C206 1.268 . S
O215 Sc199 2.105 . S
O215 C205 1.268 . S
O216 Sc200 2.078 1_554 S
O216 C207 1.270 . S
O217 Sc198 2.105 . S
O217 C203 1.268 . S
O218 Sc200 2.105 . S
O218 C202 1.268 . S
O219 Sc199 2.105 . S
O219 C204 1.268 . S
Sc220 O223 2.025 . S
Sc220 O230 2.105 . S
Sc220 O233 2.105 . S
Sc220 O236 2.105 . S
Sc220 O239 2.105 . S
Sc221 O223 2.025 . S
Sc221 O231 2.105 . S
Sc221 O235 2.105 . S
Sc221 O237 2.105 . S
Sc221 O241 2.105 . S
Sc222 O223 2.025 . S
Sc222 O232 2.105 . S
Sc222 O234 2.105 . S
Sc222 O238 2.105 . S
Sc222 O240 2.105 . S
O223 Sc220 2.025 . S
O223 Sc221 2.025 . S
O223 Sc222 2.025 . S
C224 O230 1.268 . S
C224 O240 1.268 . S
C225 O231 1.268 . S
C225 O239 1.268 . S
C226 O232 1.268 . S
C226 O241 1.268 . S
C227 O233 1.268 . S
C227 O237 1.268 . S
C228 O234 1.268 . S
C228 O236 1.268 . S
C229 O235 1.268 . S
C229 O238 1.268 . S
O230 Sc220 2.105 . S
O230 C224 1.268 . S
O231 Sc221 2.105 . S
O231 C225 1.268 . S
O232 Sc222 2.105 . S
O232 C226 1.268 . S
O233 Sc220 2.105 . S
O233 C227 1.268 . S
O234 Sc222 2.105 . S
O234 C228 1.268 . S
O235 Sc221 2.105 . S
O235 C229 1.268 . S
O236 Sc220 2.105 . S
O236 C228 1.268 . S
O237 Sc221 2.105 . S
O237 C227 1.268 . S
O238 Sc222 2.105 . S
O238 C229 1.268 . S
O239 Sc220 2.105 . S
O239 C225 1.268 . S
O240 Sc222 2.105 . S
O240 C224 1.268 . S
O241 Sc221 2.105 . S
O241 C226 1.268 . S
Sc242 O245 2.025 . S
Sc242 O252 2.105 . S
Sc242 O255 2.105 . S
Sc242 O258 2.105 . S
Sc242 O261 2.105 . S
Sc243 O245 2.025 . S
Sc243 O253 2.105 . S
Sc243 O257 2.105 . S
Sc243 O259 2.105 . S
Sc243 O263 2.105 . S
Sc244 O245 2.025 . S
Sc244 O254 2.105 . S
Sc244 O256 2.105 . S
Sc244 O260 2.105 . S
Sc244 O262 2.105 . S
O245 Sc242 2.025 . S
O245 Sc243 2.025 . S
O245 Sc244 2.025 . S
C246 O252 1.268 . S
C246 O262 1.268 . S
C247 O253 1.268 . S
C247 O261 1.268 . S
C248 O254 1.268 . S
C248 O263 1.268 . S
C249 O255 1.268 . S
C249 O259 1.268 . S
C250 O256 1.268 . S
C250 O258 1.268 . S
C251 O257 1.268 . S
C251 O260 1.268 . S
O252 Sc242 2.105 . S
O252 C246 1.268 . S
O253 Sc243 2.105 . S
O253 C247 1.268 . S
O254 Sc244 2.105 . S
O254 C248 1.268 . S
O255 Sc242 2.105 . S
O255 C249 1.268 . S
O256 Sc244 2.105 . S
O256 C250 1.268 . S
O257 Sc243 2.105 . S
O257 C251 1.268 . S
O258 Sc242 2.105 . S
O258 C250 1.268 . S
O259 Sc243 2.105 . S
O259 C249 1.268 . S
O260 Sc244 2.105 . S
O260 C251 1.268 . S
O261 Sc242 2.105 . S
O261 C247 1.268 . S
O262 Sc244 2.105 . S
O262 C246 1.268 . S
O263 Sc243 2.105 . S
O263 C248 1.268 . S
H264 C276 0.930 . S
H265 C278 0.930 . S
H266 C279 0.930 . S
H267 C283 0.959 . S
H268 C283 0.959 . S
H269 C283 0.961 . S
H270 C284 0.960 . S
H271 C284 0.961 . S
H272 C284 0.959 . S
H273 C287 0.929 . S
H274 C288 0.931 . S
H275 C290 0.930 . S
C276 H264 0.930 . S
C276 C277 1.399 . S
C276 C281 1.399 . S
C277 C276 1.399 . S
C277 C278 1.376 . S
C278 H265 0.930 . S
C278 C277 1.376 . S
C278 C279 1.388 . S
C279 H266 0.930 . S
C279 C278 1.388 . S
C279 C280 1.390 . S
C280 C279 1.390 . S
C280 C281 1.394 . S
C280 C286 1.465 . S
C281 C276 1.399 . S
C281 C280 1.394 . S
C281 C282 1.516 . S
C282 C281 1.516 . S
C282 C283 1.502 . S
C282 C284 1.561 . S
C282 C285 1.526 . S
C283 H267 0.959 . S
C283 H268 0.959 . S
C283 H269 0.961 . S
C283 C282 1.502 . S
C284 H270 0.960 . S
C284 H271 0.961 . S
C284 H272 0.959 . S
C284 C282 1.561 . S
C285 C282 1.526 . S
C285 C286 1.396 . S
C285 C290 1.390 . S
C286 C280 1.465 . S
C286 C285 1.396 . S
C286 C287 1.399 1_565 S
C287 H273 0.929 . S
C287 C286 1.399 1_545 S
C287 C288 1.385 . S
C288 H274 0.931 . S
C288 C287 1.385 . S
C288 C289 1.389 . S
C289 C288 1.389 . S
C289 C290 1.387 1_545 S
C290 H275 0.930 . S
C290 C285 1.390 . S
C290 C289 1.387 1_565 S
H291 C303 0.930 . S
H292 C305 0.930 . S
H293 C306 0.930 . S
H294 C310 0.959 . S
H295 C310 0.959 . S
H296 C310 0.961 . S
H297 C311 0.960 . S
H298 C311 0.961 . S
H299 C311 0.959 . S
H300 C314 0.929 . S
H301 C315 0.931 . S
H302 C317 0.930 . S
C303 H291 0.930 . S
C303 C304 1.399 . S
C303 C308 1.399 . S
C304 C303 1.399 . S
C304 C305 1.376 . S
C305 H292 0.930 . S
C305 C304 1.376 . S
C305 C306 1.388 . S
C306 H293 0.930 . S
C306 C305 1.388 . S
C306 C307 1.390 . S
C307 C306 1.390 . S
C307 C308 1.394 . S
C307 C313 1.465 . S
C308 C303 1.399 . S
C308 C307 1.394 . S
C308 C309 1.516 . S
C309 C308 1.516 . S
C309 C310 1.502 . S
C309 C311 1.561 . S
C309 C312 1.526 . S
C310 H294 0.959 . S
C310 H295 0.959 . S
C310 H296 0.961 . S
C310 C309 1.502 . S
C311 H297 0.960 . S
C311 H298 0.961 . S
C311 H299 0.959 . S
C311 C309 1.561 . S
C312 C309 1.526 . S
C312 C313 1.396 . S
C312 C317 1.390 . S
C313 C307 1.465 . S
C313 C312 1.396 . S
C313 C314 1.399 . S
C314 H300 0.929 . S
C314 C313 1.399 . S
C314 C315 1.385 . S
C315 H301 0.931 . S
C315 C314 1.385 . S
C315 C316 1.389 . S
C316 C315 1.389 . S
C316 C317 1.387 . S
C317 H302 0.930 . S
C317 C312 1.390 . S
C317 C316 1.387 . S
H318 C330 0.930 . S
H319 C332 0.930 . S
H320 C333 0.930 . S
H321 C337 0.959 . S
H322 C337 0.959 . S
H323 C337 0.961 . S
H324 C338 0.960 . S
H325 C338 0.961 1_455 S
H326 C338 0.959 . S
H327 C341 0.929 . S
H328 C342 0.931 . S
H329 C344 0.930 . S
C330 H318 0.930 . S
C330 C331 1.399 . S
C330 C335 1.399 1_655 S
C331 C330 1.399 . S
C331 C332 1.376 . S
C332 H319 0.930 . S
C332 C331 1.376 . S
C332 C333 1.388 1_655 S
C333 H320 0.930 . S
C333 C332 1.388 1_455 S
C333 C334 1.390 . S
C334 C333 1.390 . S
C334 C335 1.394 . S
C334 C340 1.465 . S
C335 C330 1.399 1_455 S
C335 C334 1.394 . S
C335 C336 1.516 . S
C336 C335 1.516 . S
C336 C337 1.502 . S
C336 C338 1.561 1_455 S
C336 C339 1.526 . S
C337 H321 0.959 . S
C337 H322 0.959 . S
C337 H323 0.961 . S
C337 C336 1.502 . S
C338 H324 0.960 . S
C338 H325 0.961 1_655 S
C338 H326 0.959 . S
C338 C336 1.561 1_655 S
C339 C336 1.526 . S
C339 C340 1.396 . S
C339 C344 1.390 . S
C340 C334 1.465 . S
C340 C339 1.396 . S
C340 C341 1.399 . S
C341 H327 0.929 . S
C341 C340 1.399 . S
C341 C342 1.385 . S
C342 H328 0.931 . S
C342 C341 1.385 . S
C342 C343 1.389 . S
C343 C342 1.389 . S
C343 C344 1.387 . S
C344 H329 0.930 . S
C344 C339 1.390 . S
C344 C343 1.387 . S
H345 C357 0.930 . S
H346 C359 0.930 . S
H347 C360 0.930 . S
H348 C364 0.959 . S
H349 C364 0.959 . S
H350 C364 0.961 . S
H351 C365 0.961 . S
H352 C365 0.960 1_565 S
H353 C365 0.957 1_565 S
H354 C368 0.929 . S
H355 C369 0.931 . S
H356 C371 0.930 . S
C357 H345 0.930 . S
C357 C358 1.399 . S
C357 C362 1.399 . S
C358 C357 1.399 . S
C358 C359 1.376 . S
C359 H346 0.930 . S
C359 C358 1.376 . S
C359 C360 1.388 . S
C360 H347 0.930 . S
C360 C359 1.388 . S
C360 C361 1.390 . S
C361 C360 1.390 . S
C361 C362 1.394 . S
C361 C367 1.465 . S
C362 C357 1.399 . S
C362 C361 1.394 . S
C362 C363 1.516 . S
C363 C362 1.516 . S
C363 C364 1.502 . S
C363 C365 1.562 . S
C363 C366 1.526 . S
C364 H348 0.959 . S
C364 H349 0.959 . S
C364 H350 0.961 . S
C364 C363 1.502 . S
C365 H351 0.961 . S
C365 H352 0.960 1_545 S
C365 H353 0.957 1_545 S
C365 C363 1.562 . S
C366 C363 1.526 . S
C366 C367 1.396 . S
C366 C371 1.390 1_545 S
C367 C361 1.465 . S
C367 C366 1.396 . S
C367 C368 1.399 . S
C368 H354 0.929 . S
C368 C367 1.399 . S
C368 C369 1.385 1_545 S
C369 H355 0.931 . S
C369 C368 1.385 1_565 S
C369 C370 1.389 . S
C370 C369 1.389 . S
C370 C371 1.387 . S
C371 H356 0.930 . S
C371 C366 1.390 1_565 S
C371 C370 1.387 . S
H372 C384 0.930 . S
H373 C386 0.930 . S
H374 C387 0.930 . S
H375 C391 0.959 . S
H376 C391 0.959 . S
H377 C391 0.961 . S
H378 C392 0.960 . S
H379 C392 0.961 . S
H380 C392 0.959 . S
H381 C395 0.929 . S
H382 C396 0.931 . S
H383 C398 0.930 . S
C384 H372 0.930 . S
C384 C385 1.399 . S
C384 C389 1.399 . S
C385 C384 1.399 . S
C385 C386 1.376 . S
C386 H373 0.930 . S
C386 C385 1.376 . S
C386 C387 1.388 . S
C387 H374 0.930 . S
C387 C386 1.388 . S
C387 C388 1.390 . S
C388 C387 1.390 . S
C388 C389 1.394 . S
C388 C394 1.465 . S
C389 C384 1.399 . S
C389 C388 1.394 . S
C389 C390 1.516 . S
C390 C389 1.516 . S
C390 C391 1.502 . S
C390 C392 1.561 . S
C390 C393 1.526 . S
C391 H375 0.959 . S
C391 H376 0.959 . S
C391 H377 0.961 . S
C391 C390 1.502 . S
C392 H378 0.960 . S
C392 H379 0.961 . S
C392 H380 0.959 . S
C392 C390 1.561 . S
C393 C390 1.526 . S
C393 C394 1.396 . S
C393 C398 1.390 . S
C394 C388 1.465 . S
C394 C393 1.396 . S
C394 C395 1.399 . S
C395 H381 0.929 . S
C395 C394 1.399 . S
C395 C396 1.385 . S
C396 H382 0.931 . S
C396 C395 1.385 . S
C396 C397 1.389 . S
C397 C396 1.389 . S
C397 C398 1.387 . S
C398 H383 0.930 . S
C398 C393 1.390 . S
C398 C397 1.387 . S
H399 C411 0.930 . S
H400 C413 0.930 . S
H401 C414 0.930 . S
H402 C418 0.959 . S
H403 C418 0.959 . S
H404 C418 0.961 . S
H405 C419 0.960 . S
H406 C419 0.961 . S
H407 C419 0.959 . S
H408 C422 0.929 . S
H409 C423 0.931 . S
H410 C425 0.930 . S
C411 H399 0.930 . S
C411 C412 1.399 . S
C411 C416 1.399 1_455 S
C412 C411 1.399 . S
C412 C413 1.376 . S
C413 H400 0.930 . S
C413 C412 1.376 . S
C413 C414 1.388 1_455 S
C414 H401 0.930 . S
C414 C413 1.388 1_655 S
C414 C415 1.390 . S
C415 C414 1.390 . S
C415 C416 1.394 . S
C415 C421 1.465 . S
C416 C411 1.399 1_655 S
C416 C415 1.394 . S
C416 C417 1.516 . S
C417 C416 1.516 . S
C417 C418 1.502 . S
C417 C419 1.561 . S
C417 C420 1.526 . S
C418 H402 0.959 . S
C418 H403 0.959 . S
C418 H404 0.961 . S
C418 C417 1.502 . S
C419 H405 0.960 . S
C419 H406 0.961 . S
C419 H407 0.959 . S
C419 C417 1.561 . S
C420 C417 1.526 . S
C420 C421 1.396 . S
C420 C425 1.390 . S
C421 C415 1.465 . S
C421 C420 1.396 . S
C421 C422 1.399 . S
C422 H408 0.929 . S
C422 C421 1.399 . S
C422 C423 1.385 . S
C423 H409 0.931 . S
C423 C422 1.385 . S
C423 C424 1.389 . S
C424 C423 1.389 . S
C424 C425 1.387 . S
C425 H410 0.930 . S
C425 C420 1.390 . S
C425 C424 1.387 . S
H426 C438 0.930 . S
H427 C440 0.930 . S
H428 C441 0.930 . S
H429 C445 0.959 . S
H430 C445 0.959 . S
H431 C445 0.961 . S
H432 C446 0.960 . S
H433 C446 0.961 . S
H434 C446 0.959 . S
H435 C449 0.929 . S
H436 C450 0.931 . S
H437 C452 0.930 . S
C438 H426 0.930 . S
C438 C439 1.399 . S
C438 C443 1.399 . S
C439 C438 1.399 . S
C439 C440 1.376 . S
C440 H427 0.930 . S
C440 C439 1.376 . S
C440 C441 1.388 . S
C441 H428 0.930 . S
C441 C440 1.388 . S
C441 C442 1.390 . S
C442 C441 1.390 . S
C442 C443 1.394 . S
C442 C448 1.465 . S
C443 C438 1.399 . S
C443 C442 1.394 . S
C443 C444 1.516 . S
C444 C443 1.516 . S
C444 C445 1.502 . S
C444 C446 1.561 . S
C444 C447 1.526 . S
C445 H429 0.959 . S
C445 H430 0.959 . S
C445 H431 0.961 . S
C445 C444 1.502 . S
C446 H432 0.960 . S
C446 H433 0.961 . S
C446 H434 0.959 . S
C446 C444 1.561 . S
C447 C444 1.526 . S
C447 C448 1.396 . S
C447 C452 1.390 . S
C448 C442 1.465 . S
C448 C447 1.396 . S
C448 C449 1.399 1_455 S
C449 H435 0.929 . S
C449 C448 1.399 1_655 S
C449 C450 1.385 . S
C450 H436 0.931 . S
C450 C449 1.385 . S
C450 C451 1.389 . S
C451 C450 1.389 . S
C451 C452 1.387 1_655 S
C452 H437 0.930 . S
C452 C447 1.390 . S
C452 C451 1.387 1_455 S
H453 C465 0.930 . S
H454 C467 0.930 . S
H455 C468 0.930 . S
H456 C472 0.959 . S
H457 C472 0.959 . S
H458 C472 0.961 . S
H459 C473 0.960 . S
H460 C473 0.961 . S
H461 C473 0.959 . S
H462 C476 0.929 . S
H463 C477 0.931 . S
H464 C479 0.930 . S
C465 H453 0.930 . S
C465 C466 1.399 1_545 S
C465 C470 1.399 . S
C466 C465 1.399 1_565 S
C466 C467 1.376 . S
C467 H454 0.930 . S
C467 C466 1.376 . S
C467 C468 1.388 . S
C468 H455 0.930 . S
C468 C467 1.388 . S
C468 C469 1.390 1_565 S
C469 C468 1.390 1_545 S
C469 C470 1.394 . S
C469 C475 1.465 . S
C470 C465 1.399 . S
C470 C469 1.394 . S
C470 C471 1.516 . S
C471 C470 1.516 . S
C471 C472 1.502 . S
C471 C473 1.561 . S
C471 C474 1.526 . S
C472 H456 0.959 . S
C472 H457 0.959 . S
C472 H458 0.961 . S
C472 C471 1.502 . S
C473 H459 0.960 . S
C473 H460 0.961 . S
C473 H461 0.959 . S
C473 C471 1.561 . S
C474 C471 1.526 . S
C474 C475 1.396 . S
C474 C479 1.390 . S
C475 C469 1.465 . S
C475 C474 1.396 . S
C475 C476 1.399 . S
C476 H462 0.929 . S
C476 C475 1.399 . S
C476 C477 1.385 . S
C477 H463 0.931 . S
C477 C476 1.385 . S
C477 C478 1.389 . S
C478 C477 1.389 . S
C478 C479 1.387 . S
C479 H464 0.930 . S
C479 C474 1.390 . S
C479 C478 1.387 . S
H480 C492 0.930 . S
H481 C494 0.930 . S
H482 C495 0.930 . S
H483 C499 0.959 . S
H484 C499 0.959 . S
H485 C499 0.961 . S
H486 C500 0.960 . S
H487 C500 0.961 . S
H488 C500 0.959 . S
H489 C503 0.929 . S
H490 C504 0.931 . S
H491 C506 0.930 . S
C492 H480 0.930 . S
C492 C493 1.399 . S
C492 C497 1.399 . S
C493 C492 1.399 . S
C493 C494 1.376 . S
C494 H481 0.930 . S
C494 C493 1.376 . S
C494 C495 1.388 . S
C495 H482 0.930 . S
C495 C494 1.388 . S
C495 C496 1.390 . S
C496 C495 1.390 . S
C496 C497 1.394 . S
C496 C502 1.465 . S
C497 C492 1.399 . S
C497 C496 1.394 . S
C497 C498 1.516 . S
C498 C497 1.516 . S
C498 C499 1.502 . S
C498 C500 1.561 . S
C498 C501 1.526 . S
C499 H483 0.959 . S
C499 H484 0.959 . S
C499 H485 0.961 . S
C499 C498 1.502 . S
C500 H486 0.960 . S
C500 H487 0.961 . S
C500 H488 0.959 . S
C500 C498 1.561 . S
C501 C498 1.526 . S
C501 C502 1.396 . S
C501 C506 1.390 . S
C502 C496 1.465 . S
C502 C501 1.396 . S
C502 C503 1.399 . S
C503 H489 0.929 . S
C503 C502 1.399 . S
C503 C504 1.385 . S
C504 H490 0.931 . S
C504 C503 1.385 . S
C504 C505 1.389 . S
C505 C504 1.389 . S
C505 C506 1.387 . S
C506 H491 0.930 . S
C506 C501 1.390 . S
C506 C505 1.387 . S
H507 C519 0.930 . S
H508 C521 0.930 . S
H509 C522 0.930 . S
H510 C526 0.959 . S
H511 C526 0.959 . S
H512 C526 0.961 . S
H513 C527 0.960 . S
H514 C527 0.961 . S
H515 C527 0.959 . S
H516 C530 0.929 . S
H517 C531 0.931 . S
H518 C533 0.939 . S
C519 H507 0.930 . S
C519 C520 1.399 . S
C519 C524 1.399 . S
C520 C519 1.399 . S
C520 C521 1.376 . S
C521 H508 0.930 . S
C521 C520 1.376 . S
C521 C522 1.388 . S
C522 H509 0.930 . S
C522 C521 1.388 . S
C522 C523 1.390 . S
C523 C522 1.390 . S
C523 C524 1.394 . S
C523 C529 1.465 . S
C524 C519 1.399 . S
C524 C523 1.394 . S
C524 C525 1.516 . S
C525 C524 1.516 . S
C525 C526 1.502 . S
C525 C527 1.561 . S
C525 C528 1.526 . S
C526 H510 0.959 . S
C526 H511 0.959 . S
C526 H512 0.961 . S
C526 C525 1.502 . S
C527 H513 0.960 . S
C527 H514 0.961 . S
C527 H515 0.959 . S
C527 C525 1.561 . S
C528 C525 1.526 . S
C528 C529 1.396 . S
C528 C533 1.395 . S
C529 C523 1.465 . S
C529 C528 1.396 . S
C529 C530 1.399 1_655 S
C530 H516 0.929 . S
C530 C529 1.399 1_455 S
C530 C531 1.385 . S
C531 H517 0.931 . S
C531 C530 1.385 . S
C531 C532 1.389 . S
C532 C531 1.389 . S
C532 C533 1.372 1_455 S
C533 H518 0.939 . S
C533 C528 1.395 . S
C533 C532 1.372 1_655 S
H534 C546 0.930 . S
H535 C548 0.930 . S
H536 C549 0.930 . S
H537 C553 0.959 1_565 S
H538 C553 0.959 . S
H539 C553 0.962 . S
H540 C554 0.960 . S
H541 C554 0.961 . S
H542 C554 0.959 . S
H543 C557 0.929 . S
H544 C558 0.931 . S
H545 C560 0.930 . S
C546 H534 0.930 . S
C546 C547 1.399 . S
C546 C551 1.399 . S
C547 C546 1.399 . S
C547 C548 1.376 . S
C548 H535 0.930 . S
C548 C547 1.376 . S
C548 C549 1.388 . S
C549 H536 0.930 . S
C549 C548 1.388 . S
C549 C550 1.390 . S
C550 C549 1.390 . S
C550 C551 1.394 . S
C550 C556 1.465 . S
C551 C546 1.399 . S
C551 C550 1.394 . S
C551 C552 1.516 . S
C552 C551 1.516 . S
C552 C553 1.502 1_565 S
C552 C554 1.561 1_565 S
C552 C555 1.526 . S
C553 H537 0.959 1_545 S
C553 H538 0.959 . S
C553 H539 0.962 . S
C553 C552 1.502 1_545 S
C554 H540 0.960 . S
C554 H541 0.961 . S
C554 H542 0.959 . S
C554 C552 1.561 1_545 S
C555 C552 1.526 . S
C555 C556 1.396 . S
C555 C560 1.390 1_565 S
C556 C550 1.465 . S
C556 C555 1.396 . S
C556 C557 1.399 . S
C557 H543 0.929 . S
C557 C556 1.399 . S
C557 C558 1.385 . S
C558 H544 0.931 . S
C558 C557 1.385 . S
C558 C559 1.389 1_565 S
C559 C558 1.389 1_545 S
C559 C560 1.387 . S
C560 H545 0.930 . S
C560 C555 1.390 1_545 S
C560 C559 1.387 . S
H561 C573 0.930 . S
H562 C575 0.930 . S
H563 C576 0.930 . S
H564 C580 0.959 . S
H565 C580 0.959 . S
H566 C580 0.961 . S
H567 C581 0.960 . S
H568 C581 0.961 . S
H569 C581 0.959 . S
H570 C584 0.929 . S
H571 C585 0.931 . S
H572 C587 0.930 . S
C573 H561 0.930 . S
C573 C574 1.399 . S
C573 C578 1.399 . S
C574 C573 1.399 . S
C574 C575 1.376 . S
C575 H562 0.930 . S
C575 C574 1.376 . S
C575 C576 1.388 . S
C576 H563 0.930 . S
C576 C575 1.388 . S
C576 C577 1.390 . S
C577 C576 1.390 . S
C577 C578 1.394 . S
C577 C583 1.465 . S
C578 C573 1.399 . S
C578 C577 1.394 . S
C578 C579 1.516 . S
C579 C578 1.516 . S
C579 C580 1.502 . S
C579 C581 1.561 . S
C579 C582 1.526 . S
C580 H564 0.959 . S
C580 H565 0.959 . S
C580 H566 0.961 . S
C580 C579 1.502 . S
C581 H567 0.960 . S
C581 H568 0.961 . S
C581 H569 0.959 . S
C581 C579 1.561 . S
C582 C579 1.526 . S
C582 C583 1.396 . S
C582 C587 1.390 . S
C583 C577 1.465 . S
C583 C582 1.396 . S
C583 C584 1.399 . S
C584 H570 0.929 . S
C584 C583 1.399 . S
C584 C585 1.385 . S
C585 H571 0.931 . S
C585 C584 1.385 . S
C585 C586 1.389 . S
C586 C585 1.389 . S
C586 C587 1.387 . S
C587 H572 0.930 . S
C587 C582 1.390 . S
C587 C586 1.387 . S
H588 C600 0.930 . S
H589 C602 0.930 . S
H590 C603 0.930 . S
H591 C607 0.959 . S
H592 C607 0.959 . S
H593 C607 0.972 . S
H594 C608 0.960 . S
H595 C608 0.961 . S
H596 C608 0.959 . S
H597 C611 0.929 . S
H598 C612 0.931 . S
H599 C614 0.930 . S
C600 H588 0.930 . S
C600 C601 1.399 . S
C600 C605 1.399 . S
C601 C600 1.399 . S
C601 C602 1.376 . S
C602 H589 0.930 . S
C602 C601 1.376 . S
C602 C603 1.388 . S
C603 H590 0.930 . S
C603 C602 1.388 . S
C603 C604 1.390 . S
C604 C603 1.390 . S
C604 C605 1.394 . S
C604 C610 1.465 . S
C605 C600 1.399 . S
C605 C604 1.394 . S
C605 C606 1.516 . S
C606 C605 1.516 . S
C606 C607 1.502 1_565 S
C606 C608 1.561 . S
C606 C609 1.526 . S
C607 H591 0.959 . S
C607 H592 0.959 . S
C607 H593 0.972 . S
C607 C606 1.502 1_545 S
C608 H594 0.960 . S
C608 H595 0.961 . S
C608 H596 0.959 . S
C608 C606 1.561 . S
C609 C606 1.526 . S
C609 C610 1.396 . S
C609 C614 1.390 1_565 S
C610 C604 1.465 . S
C610 C609 1.396 . S
C610 C611 1.399 . S
C611 H597 0.929 . S
C611 C610 1.399 . S
C611 C612 1.385 . S
C612 H598 0.931 . S
C612 C611 1.385 . S
C612 C613 1.389 1_565 S
C613 C612 1.389 1_545 S
C613 C614 1.387 . S
C614 H599 0.930 . S
C614 C609 1.390 1_545 S
C614 C613 1.387 . S
H615 C627 0.930 . S
H616 C629 0.930 . S
H617 C630 0.930 . S
H618 C634 0.959 . S
H619 C634 0.959 . S
H620 C634 0.961 . S
H621 C635 0.960 . S
H622 C635 0.961 . S
H623 C635 0.959 . S
H624 C638 0.929 . S
H625 C639 0.931 . S
H626 C641 0.930 . S
C627 H615 0.930 . S
C627 C628 1.399 . S
C627 C632 1.399 . S
C628 C627 1.399 . S
C628 C629 1.376 . S
C629 H616 0.930 . S
C629 C628 1.376 . S
C629 C630 1.388 . S
C630 H617 0.930 . S
C630 C629 1.388 . S
C630 C631 1.390 . S
C631 C630 1.390 . S
C631 C632 1.394 . S
C631 C637 1.465 . S
C632 C627 1.399 . S
C632 C631 1.394 . S
C632 C633 1.516 . S
C633 C632 1.516 . S
C633 C634 1.502 . S
C633 C635 1.561 . S
C633 C636 1.526 . S
C634 H618 0.959 . S
C634 H619 0.959 . S
C634 H620 0.961 . S
C634 C633 1.502 . S
C635 H621 0.960 . S
C635 H622 0.961 . S
C635 H623 0.959 . S
C635 C633 1.561 . S
C636 C633 1.526 . S
C636 C637 1.396 . S
C636 C641 1.390 . S
C637 C631 1.465 . S
C637 C636 1.396 . S
C637 C638 1.399 . S
C638 H624 0.929 . S
C638 C637 1.399 . S
C638 C639 1.385 . S
C639 H625 0.931 . S
C639 C638 1.385 . S
C639 C640 1.389 . S
C640 C639 1.389 . S
C640 C641 1.387 . S
C641 H626 0.930 . S
C641 C636 1.390 . S
C641 C640 1.387 . S
H642 C654 0.930 . S
H643 C656 0.930 . S
H644 C657 0.930 . S
H645 C661 0.959 . S
H646 C661 0.959 . S
H647 C661 0.961 . S
H648 C662 0.960 . S
H649 C662 0.961 . S
H650 C662 0.959 . S
H651 C665 0.929 . S
H652 C666 0.931 . S
H653 C668 0.930 . S
C654 H642 0.930 . S
C654 C655 1.399 . S
C654 C659 1.399 . S
C655 C654 1.399 . S
C655 C656 1.376 . S
C656 H643 0.930 . S
C656 C655 1.376 . S
C656 C657 1.388 . S
C657 H644 0.930 . S
C657 C656 1.388 . S
C657 C658 1.390 . S
C658 C657 1.390 . S
C658 C659 1.394 . S
C658 C664 1.465 . S
C659 C654 1.399 . S
C659 C658 1.394 . S
C659 C660 1.516 . S
C660 C659 1.516 . S
C660 C661 1.502 . S
C660 C662 1.561 . S
C660 C663 1.526 . S
C661 H645 0.959 . S
C661 H646 0.959 . S
C661 H647 0.961 . S
C661 C660 1.502 . S
C662 H648 0.960 . S
C662 H649 0.961 . S
C662 H650 0.959 . S
C662 C660 1.561 . S
C663 C660 1.526 . S
C663 C664 1.396 . S
C663 C668 1.390 . S
C664 C658 1.465 . S
C664 C663 1.396 . S
C664 C665 1.399 1_455 S
C665 H651 0.929 . S
C665 C664 1.399 1_655 S
C665 C666 1.385 . S
C666 H652 0.931 . S
C666 C665 1.385 . S
C666 C667 1.389 . S
C667 C666 1.389 . S
C667 C668 1.387 1_655 S
C668 H653 0.930 . S
C668 C663 1.390 . S
C668 C667 1.387 1_455 S
H669 C681 0.930 . S
H670 C683 0.930 . S
H671 C684 0.930 . S
H672 C688 0.959 . S
H673 C688 0.959 . S
H674 C688 0.961 . S
H675 C689 0.960 . S
H676 C689 0.961 1_565 S
H677 C689 0.959 . S
H678 C692 0.929 . S
H679 C693 0.931 . S
H680 C695 0.930 . S
C681 H669 0.930 . S
C681 C682 1.399 . S
C681 C686 1.399 . S
C682 C681 1.399 . S
C682 C683 1.376 . S
C683 H670 0.930 . S
C683 C682 1.376 . S
C683 C684 1.388 . S
C684 H671 0.930 . S
C684 C683 1.388 . S
C684 C685 1.390 . S
C685 C684 1.390 . S
C685 C686 1.394 . S
C685 C691 1.465 . S
C686 C681 1.399 . S
C686 C685 1.394 . S
C686 C687 1.516 . S
C687 C686 1.516 . S
C687 C688 1.502 1_545 S
C687 C689 1.561 . S
C687 C690 1.526 . S
C688 H672 0.959 . S
C688 H673 0.959 . S
C688 H674 0.961 . S
C688 C687 1.502 1_565 S
C689 H675 0.960 . S
C689 H676 0.961 1_545 S
C689 H677 0.959 . S
C689 C687 1.561 . S
C690 C687 1.526 . S
C690 C691 1.396 . S
C690 C695 1.390 1_545 S
C691 C685 1.465 . S
C691 C690 1.396 . S
C691 C692 1.399 . S
C692 H678 0.929 . S
C692 C691 1.399 . S
C692 C693 1.385 . S
C693 H679 0.931 . S
C693 C692 1.385 . S
C693 C694 1.389 1_545 S
C694 C693 1.389 1_565 S
C694 C695 1.387 . S
C695 H680 0.930 . S
C695 C690 1.390 1_565 S
C695 C694 1.387 . S
H696 C708 0.930 . S
H697 C710 0.930 . S
H698 C711 0.930 . S
H699 C715 0.959 . S
H700 C715 0.959 . S
H701 C715 0.961 . S
H702 C716 0.960 . S
H703 C716 0.961 . S
H704 C716 0.959 . S
H705 C719 0.929 . S
H706 C720 0.931 . S
H707 C722 0.930 . S
C708 H696 0.930 . S
C708 C709 1.399 . S
C708 C713 1.399 . S
C709 C708 1.399 . S
C709 C710 1.376 1_556 S
C710 H697 0.930 . S
C710 C709 1.376 1_554 S
C710 C711 1.388 . S
C711 H698 0.930 . S
C711 C710 1.388 . S
C711 C712 1.390 . S
C712 C711 1.390 . S
C712 C713 1.394 1_554 S
C712 C718 1.465 . S
C713 C708 1.399 . S
C713 C712 1.394 1_556 S
C713 C714 1.516 . S
C714 C713 1.516 . S
C714 C715 1.502 . S
C714 C716 1.561 . S
C714 C717 1.526 1_556 S
C715 H699 0.959 . S
C715 H700 0.959 . S
C715 H701 0.961 . S
C715 C714 1.502 . S
C716 H702 0.960 . S
C716 H703 0.961 . S
C716 H704 0.959 . S
C716 C714 1.561 . S
C717 C714 1.526 1_554 S
C717 C718 1.396 . S
C717 C722 1.390 . S
C718 C712 1.465 . S
C718 C717 1.396 . S
C718 C719 1.399 . S
C719 H705 0.929 . S
C719 C718 1.399 . S
C719 C720 1.385 . S
C720 H706 0.931 . S
C720 C719 1.385 . S
C720 C721 1.389 . S
C721 C720 1.389 . S
C721 C722 1.387 . S
C722 H707 0.930 . S
C722 C717 1.390 . S
C722 C721 1.387 . S
H723 C735 0.930 1_455 S
H724 C737 0.930 . S
H725 C738 0.930 . S
H726 C742 0.959 1_455 S
H727 C742 0.959 . S
H728 C742 0.961 . S
H729 C743 0.960 . S
H730 C743 0.961 . S
H731 C743 0.959 . S
H732 C746 0.929 . S
H733 C747 0.931 . S
H734 C749 0.930 . S
C735 H723 0.930 1_655 S
C735 C736 1.399 1_655 S
C735 C740 1.399 . S
C736 C735 1.399 1_455 S
C736 C737 1.376 1_455 S
C737 H724 0.930 . S
C737 C736 1.376 1_655 S
C737 C738 1.388 . S
C738 H725 0.930 . S
C738 C737 1.388 . S
C738 C739 1.390 . S
C739 C738 1.390 . S
C739 C740 1.394 . S
C739 C745 1.465 . S
C740 C735 1.399 . S
C740 C739 1.394 . S
C740 C741 1.516 . S
C741 C740 1.516 . S
C741 C742 1.502 . S
C741 C743 1.561 . S
C741 C744 1.526 . S
C742 H726 0.959 1_655 S
C742 H727 0.959 . S
C742 H728 0.961 . S
C742 C741 1.502 . S
C743 H729 0.960 . S
C743 H730 0.961 . S
C743 H731 0.959 . S
C743 C741 1.561 . S
C744 C741 1.526 . S
C744 C745 1.396 . S
C744 C749 1.390 . S
C745 C739 1.465 . S
C745 C744 1.396 . S
C745 C746 1.399 . S
C746 H732 0.929 . S
C746 C745 1.399 . S
C746 C747 1.385 . S
C747 H733 0.931 . S
C747 C746 1.385 . S
C747 C748 1.389 . S
C748 C747 1.389 . S
C748 C749 1.387 . S
C749 H734 0.930 . S
C749 C744 1.390 . S
C749 C748 1.387 . S
H750 C762 0.930 . S
H751 C764 0.930 . S
H752 C765 0.930 . S
H753 C769 0.959 . S
H754 C769 0.959 . S
H755 C769 0.961 . S
H756 C770 0.960 . S
H757 C770 0.961 . S
H758 C770 0.959 . S
H759 C773 0.929 . S
H760 C774 0.931 . S
H761 C776 0.930 . S
C762 H750 0.930 . S
C762 C763 1.399 1_455 S
C762 C767 1.399 . S
C763 C762 1.399 1_655 S
C763 C764 1.376 . S
C764 H751 0.930 . S
C764 C763 1.376 . S
C764 C765 1.388 . S
C765 H752 0.930 . S
C765 C764 1.388 . S
C765 C766 1.390 1_655 S
C766 C765 1.390 1_455 S
C766 C767 1.394 . S
C766 C772 1.465 . S
C767 C762 1.399 . S
C767 C766 1.394 . S
C767 C768 1.516 . S
C768 C767 1.516 . S
C768 C769 1.502 . S
C768 C770 1.561 . S
C768 C771 1.526 . S
C769 H753 0.959 . S
C769 H754 0.959 . S
C769 H755 0.961 . S
C769 C768 1.502 . S
C770 H756 0.960 . S
C770 H757 0.961 . S
C770 H758 0.959 . S
C770 C768 1.561 . S
C771 C768 1.526 . S
C771 C772 1.396 . S
C771 C776 1.390 . S
C772 C766 1.465 . S
C772 C771 1.396 . S
C772 C773 1.399 . S
C773 H759 0.929 . S
C773 C772 1.399 . S
C773 C774 1.385 . S
C774 H760 0.931 . S
C774 C773 1.385 . S
C774 C775 1.389 . S
C775 C774 1.389 . S
C775 C776 1.387 . S
C776 H761 0.930 . S
C776 C771 1.390 . S
C776 C775 1.387 . S
H777 C789 0.930 . S
H778 C791 0.930 . S
H779 C792 0.930 . S
H780 C796 0.959 . S
H781 C796 0.959 . S
H782 C796 0.961 . S
H783 C797 0.960 . S
H784 C797 0.961 . S
H785 C797 0.959 . S
H786 C800 0.929 . S
H787 C801 0.931 . S
H788 C803 0.930 . S
C789 H777 0.930 . S
C789 C790 1.399 . S
C789 C794 1.399 1_565 S
C790 C789 1.399 . S
C790 C791 1.376 1_565 S
C791 H778 0.930 . S
C791 C790 1.376 1_545 S
C791 C792 1.388 . S
C792 H779 0.930 . S
C792 C791 1.388 . S
C792 C793 1.390 . S
C793 C792 1.390 . S
C793 C794 1.394 . S
C793 C799 1.465 . S
C794 C789 1.399 1_545 S
C794 C793 1.394 . S
C794 C795 1.516 . S
C795 C794 1.516 . S
C795 C796 1.502 1_545 S
C795 C797 1.561 . S
C795 C798 1.526 . S
C796 H780 0.959 . S
C796 H781 0.959 . S
C796 H782 0.961 . S
C796 C795 1.502 1_565 S
C797 H783 0.960 . S
C797 H784 0.961 . S
C797 H785 0.959 . S
C797 C795 1.561 . S
C798 C795 1.526 . S
C798 C799 1.396 . S
C798 C803 1.390 . S
C799 C793 1.465 . S
C799 C798 1.396 . S
C799 C800 1.399 . S
C800 H786 0.929 . S
C800 C799 1.399 . S
C800 C801 1.385 . S
C801 H787 0.931 . S
C801 C800 1.385 . S
C801 C802 1.389 . S
C802 C801 1.389 . S
C802 C803 1.387 . S
C803 H788 0.930 . S
C803 C798 1.390 . S
C803 C802 1.387 . S
H804 C816 0.930 . S
H805 C818 0.930 . S
H806 C819 0.930 . S
H807 C823 0.959 . S
H808 C823 0.959 . S
H809 C823 0.961 . S
H810 C824 0.960 . S
H811 C824 0.961 . S
H812 C824 0.959 . S
H813 C827 0.929 . S
H814 C828 0.931 . S
H815 C830 0.930 . S
C816 H804 0.930 . S
C816 C817 1.399 . S
C816 C821 1.399 . S
C817 C816 1.399 . S
C817 C818 1.376 . S
C818 H805 0.930 . S
C818 C817 1.376 . S
C818 C819 1.388 . S
C819 H806 0.930 . S
C819 C818 1.388 . S
C819 C820 1.390 . S
C820 C819 1.390 . S
C820 C821 1.394 . S
C820 C826 1.465 . S
C821 C816 1.399 . S
C821 C820 1.394 . S
C821 C822 1.516 . S
C822 C821 1.516 . S
C822 C823 1.502 . S
C822 C824 1.561 . S
C822 C825 1.526 . S
C823 H807 0.959 . S
C823 H808 0.959 . S
C823 H809 0.961 . S
C823 C822 1.502 . S
C824 H810 0.960 . S
C824 H811 0.961 . S
C824 H812 0.959 . S
C824 C822 1.561 . S
C825 C822 1.526 . S
C825 C826 1.396 . S
C825 C830 1.390 . S
C826 C820 1.465 . S
C826 C825 1.396 . S
C826 C827 1.399 . S
C827 H813 0.929 . S
C827 C826 1.399 . S
C827 C828 1.385 . S
C828 H814 0.931 . S
C828 C827 1.385 . S
C828 C829 1.389 . S
C829 C828 1.389 . S
C829 C830 1.387 . S
C830 H815 0.930 . S
C830 C825 1.390 . S
C830 C829 1.387 . S
H831 C843 0.930 . S
H832 C845 0.930 . S
H833 C846 0.930 . S
H834 C850 0.959 . S
H835 C850 0.959 . S
H836 C850 0.961 . S
H837 C851 0.960 . S
H838 C851 0.961 . S
H839 C851 0.959 . S
H840 C854 0.929 . S
H841 C855 0.931 1_455 S
H842 C857 0.930 . S
C843 H831 0.930 . S
C843 C844 1.399 . S
C843 C848 1.399 . S
C844 C843 1.399 . S
C844 C845 1.376 1_554 S
C845 H832 0.930 . S
C845 C844 1.376 1_556 S
C845 C846 1.388 . S
C846 H833 0.930 . S
C846 C845 1.388 . S
C846 C847 1.390 . S
C847 C846 1.390 . S
C847 C848 1.394 1_556 S
C847 C853 1.465 . S
C848 C843 1.399 . S
C848 C847 1.394 1_554 S
C848 C849 1.516 . S
C849 C848 1.516 . S
C849 C850 1.502 . S
C849 C851 1.561 . S
C849 C852 1.526 1_554 S
C850 H834 0.959 . S
C850 H835 0.959 . S
C850 H836 0.961 . S
C850 C849 1.502 . S
C851 H837 0.960 . S
C851 H838 0.961 . S
C851 H839 0.959 . S
C851 C849 1.561 . S
C852 C849 1.526 1_556 S
C852 C853 1.396 . S
C852 C857 1.390 . S
C853 C847 1.465 . S
C853 C852 1.396 . S
C853 C854 1.399 . S
C854 H840 0.929 . S
C854 C853 1.399 . S
C854 C855 1.385 . S
C855 H841 0.931 1_655 S
C855 C854 1.385 . S
C855 C856 1.389 1_655 S
C856 C855 1.389 1_455 S
C856 C857 1.387 1_455 S
C857 H842 0.930 . S
C857 C852 1.390 . S
C857 C856 1.387 1_655 S
H858 C870 0.930 . S
H859 C872 0.930 1_545 S
H860 C873 0.930 . S
H861 C877 0.959 . S
H862 C877 0.959 . S
H863 C877 0.961 . S
H864 C878 0.960 . S
H865 C878 0.961 . S
H866 C878 0.959 . S
H867 C881 0.929 . S
H868 C882 0.931 . S
H869 C884 0.930 . S
C870 H858 0.930 . S
C870 C871 1.399 1_565 S
C870 C875 1.399 . S
C871 C870 1.399 1_545 S
C871 C872 1.376 1_545 S
C872 H859 0.930 1_565 S
C872 C871 1.376 1_565 S
C872 C873 1.388 . S
C873 H860 0.930 . S
C873 C872 1.388 . S
C873 C874 1.390 . S
C874 C873 1.390 . S
C874 C875 1.394 . S
C874 C880 1.465 . S
C875 C870 1.399 . S
C875 C874 1.394 . S
C875 C876 1.516 . S
C876 C875 1.516 . S
C876 C877 1.502 . S
C876 C878 1.561 . S
C876 C879 1.526 . S
C877 H861 0.959 . S
C877 H862 0.959 . S
C877 H863 0.961 . S
C877 C876 1.502 . S
C878 H864 0.960 . S
C878 H865 0.961 . S
C878 H866 0.959 . S
C878 C876 1.561 . S
C879 C876 1.526 . S
C879 C880 1.396 . S
C879 C884 1.390 . S
C880 C874 1.465 . S
C880 C879 1.396 . S
C880 C881 1.399 . S
C881 H867 0.929 . S
C881 C880 1.399 . S
C881 C882 1.385 . S
C882 H868 0.931 . S
C882 C881 1.385 . S
C882 C883 1.389 . S
C883 C882 1.389 . S
C883 C884 1.387 . S
C884 H869 0.930 . S
C884 C879 1.390 . S
C884 C883 1.387 . S
H885 C897 0.930 . S
H886 C899 0.930 . S
H887 C900 0.930 . S
H888 C904 0.959 . S
H889 C904 0.959 . S
H890 C904 0.961 . S
H891 C905 0.960 . S
H892 C905 0.961 . S
H893 C905 0.959 . S
H894 C908 0.929 . S
H895 C909 0.931 . S
H896 C911 0.930 . S
C897 H885 0.930 . S
C897 C898 1.399 . S
C897 C902 1.399 . S
C898 C897 1.399 . S
C898 C899 1.376 . S
C899 H886 0.930 . S
C899 C898 1.376 . S
C899 C900 1.388 . S
C900 H887 0.930 . S
C900 C899 1.388 . S
C900 C901 1.390 . S
C901 C900 1.390 . S
C901 C902 1.394 . S
C901 C907 1.465 . S
C902 C897 1.399 . S
C902 C901 1.394 . S
C902 C903 1.516 . S
C903 C902 1.516 . S
C903 C904 1.502 . S
C903 C905 1.561 . S
C903 C906 1.526 . S
C904 H888 0.959 . S
C904 H889 0.959 . S
C904 H890 0.961 . S
C904 C903 1.502 . S
C905 H891 0.960 . S
C905 H892 0.961 . S
C905 H893 0.959 . S
C905 C903 1.561 . S
C906 C903 1.526 . S
C906 C907 1.396 . S
C906 C911 1.390 . S
C907 C901 1.465 . S
C907 C906 1.396 . S
C907 C908 1.399 . S
C908 H894 0.929 . S
C908 C907 1.399 . S
C908 C909 1.385 . S
C909 H895 0.931 . S
C909 C908 1.385 . S
C909 C910 1.389 . S
C910 C909 1.389 . S
C910 C911 1.387 . S
C911 H896 0.930 . S
C911 C906 1.390 . S
C911 C910 1.387 . S
H912 C924 0.930 . S
H913 C926 0.930 . S
H914 C927 0.930 . S
H915 C931 0.959 . S
H916 C931 0.959 . S
H917 C931 0.961 . S
H918 C932 0.960 . S
H919 C932 0.961 . S
H920 C932 0.959 . S
H921 C935 0.929 . S
H922 C936 0.931 1_545 S
H923 C938 0.930 . S
C924 H912 0.930 . S
C924 C925 1.399 . S
C924 C929 1.399 . S
C925 C924 1.399 . S
C925 C926 1.376 . S
C926 H913 0.930 . S
C926 C925 1.376 . S
C926 C927 1.388 . S
C927 H914 0.930 . S
C927 C926 1.388 . S
C927 C928 1.390 . S
C928 C927 1.390 . S
C928 C929 1.394 . S
C928 C934 1.465 . S
C929 C924 1.399 . S
C929 C928 1.394 . S
C929 C930 1.516 . S
C930 C929 1.516 . S
C930 C931 1.502 . S
C930 C932 1.561 . S
C930 C933 1.526 . S
C931 H915 0.959 . S
C931 H916 0.959 . S
C931 H917 0.961 . S
C931 C930 1.502 . S
C932 H918 0.960 . S
C932 H919 0.961 . S
C932 H920 0.959 . S
C932 C930 1.561 . S
C933 C930 1.526 . S
C933 C934 1.396 . S
C933 C938 1.390 . S
C934 C928 1.465 . S
C934 C933 1.396 . S
C934 C935 1.399 . S
C935 H921 0.929 . S
C935 C934 1.399 . S
C935 C936 1.385 . S
C936 H922 0.931 1_565 S
C936 C935 1.385 . S
C936 C937 1.389 . S
C937 C936 1.389 . S
C937 C938 1.387 . S
C938 H923 0.930 . S
C938 C933 1.390 . S
C938 C937 1.387 . S
H939 C951 0.930 . S
H940 C953 0.930 . S
H941 C954 0.930 . S
H942 C958 0.959 . S
H943 C958 0.959 . S
H944 C958 0.961 . S
H945 C959 0.960 . S
H946 C959 0.961 . S
H947 C959 0.959 . S
H948 C962 0.929 . S
H949 C963 0.931 . S
H950 C965 0.930 . S
C951 H939 0.930 . S
C951 C952 1.399 . S
C951 C956 1.399 . S
C952 C951 1.399 . S
C952 C953 1.376 . S
C953 H940 0.930 . S
C953 C952 1.376 . S
C953 C954 1.388 . S
C954 H941 0.930 . S
C954 C953 1.388 . S
C954 C955 1.390 . S
C955 C954 1.390 . S
C955 C956 1.394 . S
C955 C961 1.465 . S
C956 C951 1.399 . S
C956 C955 1.394 . S
C956 C957 1.516 . S
C957 C956 1.516 . S
C957 C958 1.502 . S
C957 C959 1.561 . S
C957 C960 1.526 . S
C958 H942 0.959 . S
C958 H943 0.959 . S
C958 H944 0.961 . S
C958 C957 1.502 . S
C959 H945 0.960 . S
C959 H946 0.961 . S
C959 H947 0.959 . S
C959 C957 1.561 . S
C960 C957 1.526 . S
C960 C961 1.396 . S
C960 C965 1.390 . S
C961 C955 1.465 . S
C961 C960 1.396 . S
C961 C962 1.399 . S
C962 H948 0.929 . S
C962 C961 1.399 . S
C962 C963 1.385 . S
C963 H949 0.931 . S
C963 C962 1.385 . S
C963 C964 1.389 . S
C964 C963 1.389 . S
C964 C965 1.387 . S
C965 H950 0.930 . S
C965 C960 1.390 . S
C965 C964 1.387 . S
H966 C978 0.930 . S
H967 C980 0.930 . S
H968 C981 0.930 . S
H969 C985 0.959 . S
H970 C985 0.959 . S
H971 C985 0.961 . S
H972 C986 0.960 . S
H973 C986 0.961 . S
H974 C986 0.959 . S
H975 C989 0.929 . S
H976 C990 0.931 . S
H977 C992 0.930 . S
C978 H966 0.930 . S
C978 C979 1.399 . S
C978 C983 1.399 . S
C979 C978 1.399 . S
C979 C980 1.376 . S
C980 H967 0.930 . S
C980 C979 1.376 . S
C980 C981 1.388 . S
C981 H968 0.930 . S
C981 C980 1.388 . S
C981 C982 1.390 . S
C982 C981 1.390 . S
C982 C983 1.394 . S
C982 C988 1.465 . S
C983 C978 1.399 . S
C983 C982 1.394 . S
C983 C984 1.516 . S
C984 C983 1.516 . S
C984 C985 1.502 . S
C984 C986 1.561 . S
C984 C987 1.526 . S
C985 H969 0.959 . S
C985 H970 0.959 . S
C985 H971 0.961 . S
C985 C984 1.502 . S
C986 H972 0.960 . S
C986 H973 0.961 . S
C986 H974 0.959 . S
C986 C984 1.561 . S
C987 C984 1.526 . S
C987 C988 1.396 . S
C987 C992 1.390 . S
C988 C982 1.465 . S
C988 C987 1.396 . S
C988 C989 1.399 . S
C989 H975 0.929 . S
C989 C988 1.399 . S
C989 C990 1.385 . S
C990 H976 0.931 . S
C990 C989 1.385 . S
C990 C991 1.389 . S
C991 C990 1.389 . S
C991 C992 1.387 . S
C992 H977 0.930 . S
C992 C987 1.390 . S
C992 C991 1.387 . S
H993 C1005 0.930 . S
H994 C1007 0.930 1_565 S
H995 C1008 0.930 . S
H996 C1012 0.959 . S
H997 C1012 0.959 . S
H998 C1012 0.961 . S
H999 C1013 0.960 . S
H1000 C1013 0.961 . S
H1001 C1013 0.959 . S
H1002 C1016 0.929 . S
H1003 C1017 0.931 1_455 S
H1004 C1019 0.930 . S
C1005 H993 0.930 . S
C1005 C1006 1.399 . S
C1005 C1010 1.399 . S
C1006 C1005 1.399 . S
C1006 C1007 1.376 . S
C1007 H994 0.930 1_545 S
C1007 C1006 1.376 . S
C1007 C1008 1.388 . S
C1008 H995 0.930 . S
C1008 C1007 1.388 . S
C1008 C1009 1.390 . S
C1009 C1008 1.390 . S
C1009 C1010 1.394 . S
C1009 C1015 1.465 . S
C1010 C1005 1.399 . S
C1010 C1009 1.394 . S
C1010 C1011 1.516 . S
C1011 C1010 1.516 . S
C1011 C1012 1.502 . S
C1011 C1013 1.561 . S
C1011 C1014 1.526 . S
C1012 H996 0.959 . S
C1012 H997 0.959 . S
C1012 H998 0.961 . S
C1012 C1011 1.502 . S
C1013 H999 0.960 . S
C1013 H1000 0.961 . S
C1013 H1001 0.959 . S
C1013 C1011 1.561 . S
C1014 C1011 1.526 . S
C1014 C1015 1.396 . S
C1014 C1019 1.390 . S
C1015 C1009 1.465 . S
C1015 C1014 1.396 . S
C1015 C1016 1.399 . S
C1016 H1002 0.929 . S
C1016 C1015 1.399 . S
C1016 C1017 1.385 . S
C1017 H1003 0.931 1_655 S
C1017 C1016 1.385 . S
C1017 C1018 1.389 . S
C1018 C1017 1.389 . S
C1018 C1019 1.387 . S
C1019 H1004 0.930 . S
C1019 C1014 1.390 . S
C1019 C1018 1.387 . S
H1020 C1032 0.930 . S
H1021 C1034 0.930 . S
H1022 C1035 0.930 . S
H1023 C1039 0.959 . S
H1024 C1039 0.959 . S
H1025 C1039 0.961 . S
H1026 C1040 0.960 . S
H1027 C1040 0.961 . S
H1028 C1040 0.959 . S
H1029 C1043 0.929 . S
H1030 C1044 0.931 . S
H1031 C1046 0.930 . S
C1032 H1020 0.930 . S
C1032 C1033 1.399 . S
C1032 C1037 1.399 . S
C1033 C1032 1.399 . S
C1033 C1034 1.376 . S
C1034 H1021 0.930 . S
C1034 C1033 1.376 . S
C1034 C1035 1.388 . S
C1035 H1022 0.930 . S
C1035 C1034 1.388 . S
C1035 C1036 1.390 . S
C1036 C1035 1.390 . S
C1036 C1037 1.394 . S
C1036 C1042 1.465 . S
C1037 C1032 1.399 . S
C1037 C1036 1.394 . S
C1037 C1038 1.516 . S
C1038 C1037 1.516 . S
C1038 C1039 1.502 . S
C1038 C1040 1.561 . S
C1038 C1041 1.526 . S
C1039 H1023 0.959 . S
C1039 H1024 0.959 . S
C1039 H1025 0.961 . S
C1039 C1038 1.502 . S
C1040 H1026 0.960 . S
C1040 H1027 0.961 . S
C1040 H1028 0.959 . S
C1040 C1038 1.561 . S
C1041 C1038 1.526 . S
C1041 C1042 1.396 . S
C1041 C1046 1.390 . S
C1042 C1036 1.465 . S
C1042 C1041 1.396 . S
C1042 C1043 1.399 . S
C1043 H1029 0.929 . S
C1043 C1042 1.399 . S
C1043 C1044 1.385 . S
C1044 H1030 0.931 . S
C1044 C1043 1.385 . S
C1044 C1045 1.389 . S
C1045 C1044 1.389 . S
C1045 C1046 1.387 . S
C1046 H1031 0.930 . S
C1046 C1041 1.390 . S
C1046 C1045 1.387 . S
H1047 C1059 0.930 . S
H1048 C1061 0.930 . S
H1049 C1062 0.930 . S
H1050 C1066 0.959 . S
H1051 C1066 0.959 . S
H1052 C1066 0.961 . S
H1053 C1067 0.960 . S
H1054 C1067 0.961 . S
H1055 C1067 0.959 . S
H1056 C1070 0.929 . S
H1057 C1071 0.931 . S
H1058 C1073 0.930 . S
C1059 H1047 0.930 . S
C1059 C1060 1.399 . S
C1059 C1064 1.399 . S
C1060 C1059 1.399 . S
C1060 C1061 1.376 . S
C1061 H1048 0.930 . S
C1061 C1060 1.376 . S
C1061 C1062 1.388 . S
C1062 H1049 0.930 . S
C1062 C1061 1.388 . S
C1062 C1063 1.390 . S
C1063 C1062 1.390 . S
C1063 C1064 1.394 . S
C1063 C1069 1.465 . S
C1064 C1059 1.399 . S
C1064 C1063 1.394 . S
C1064 C1065 1.516 . S
C1065 C1064 1.516 . S
C1065 C1066 1.502 . S
C1065 C1067 1.561 . S
C1065 C1068 1.526 . S
C1066 H1050 0.959 . S
C1066 H1051 0.959 . S
C1066 H1052 0.961 . S
C1066 C1065 1.502 . S
C1067 H1053 0.960 . S
C1067 H1054 0.961 . S
C1067 H1055 0.959 . S
C1067 C1065 1.561 . S
C1068 C1065 1.526 . S
C1068 C1069 1.396 . S
C1068 C1073 1.390 . S
C1069 C1063 1.465 . S
C1069 C1068 1.396 . S
C1069 C1070 1.399 . S
C1070 H1056 0.929 . S
C1070 C1069 1.399 . S
C1070 C1071 1.385 . S
C1071 H1057 0.931 . S
C1071 C1070 1.385 . S
C1071 C1072 1.389 . S
C1072 C1071 1.389 . S
C1072 C1073 1.387 . S
C1073 H1058 0.930 . S
C1073 C1068 1.390 . S
C1073 C1072 1.387 . S
H1074 C1086 0.930 . S
H1075 C1088 0.930 . S
H1076 C1089 0.930 . S
H1077 C1093 0.959 . S
H1078 C1093 0.959 . S
H1079 C1093 0.961 . S
H1080 C1094 0.960 . S
H1081 C1094 0.961 . S
H1082 C1094 0.959 . S
H1083 C1097 0.929 . S
H1084 C1098 0.931 . S
H1085 C1100 0.930 . S
C1086 H1074 0.930 . S
C1086 C1087 1.399 . S
C1086 C1091 1.399 . S
C1087 C1086 1.399 . S
C1087 C1088 1.376 . S
C1088 H1075 0.930 . S
C1088 C1087 1.376 . S
C1088 C1089 1.388 . S
C1089 H1076 0.930 . S
C1089 C1088 1.388 . S
C1089 C1090 1.390 . S
C1090 C1089 1.390 . S
C1090 C1091 1.394 . S
C1090 C1096 1.465 . S
C1091 C1086 1.399 . S
C1091 C1090 1.394 . S
C1091 C1092 1.516 . S
C1092 C1091 1.516 . S
C1092 C1093 1.502 . S
C1092 C1094 1.561 . S
C1092 C1095 1.526 . S
C1093 H1077 0.959 . S
C1093 H1078 0.959 . S
C1093 H1079 0.961 . S
C1093 C1092 1.502 . S
C1094 H1080 0.960 . S
C1094 H1081 0.961 . S
C1094 H1082 0.959 . S
C1094 C1092 1.561 . S
C1095 C1092 1.526 . S
C1095 C1096 1.396 . S
C1095 C1100 1.390 . S
C1096 C1090 1.465 . S
C1096 C1095 1.396 . S
C1096 C1097 1.399 . S
C1097 H1083 0.929 . S
C1097 C1096 1.399 . S
C1097 C1098 1.385 . S
C1098 H1084 0.931 . S
C1098 C1097 1.385 . S
C1098 C1099 1.389 . S
C1099 C1098 1.389 . S
C1099 C1100 1.387 . S
C1100 H1085 0.930 . S
C1100 C1095 1.390 . S
C1100 C1099 1.387 . S
H1101 C1113 0.930 . S
H1102 C1115 0.930 . S
H1103 C1116 0.930 . S
H1104 C1120 0.959 . S
H1105 C1120 0.959 . S
H1106 C1120 0.961 . S
H1107 C1121 0.960 . S
H1108 C1121 0.961 . S
H1109 C1121 0.959 . S
H1110 C1124 0.929 . S
H1111 C1125 0.931 . S
H1112 C1127 0.930 . S
C1113 H1101 0.930 . S
C1113 C1114 1.399 . S
C1113 C1118 1.399 . S
C1114 C1113 1.399 . S
C1114 C1115 1.376 . S
C1115 H1102 0.930 . S
C1115 C1114 1.376 . S
C1115 C1116 1.388 . S
C1116 H1103 0.930 . S
C1116 C1115 1.388 . S
C1116 C1117 1.390 . S
C1117 C1116 1.390 . S
C1117 C1118 1.394 . S
C1117 C1123 1.465 . S
C1118 C1113 1.399 . S
C1118 C1117 1.394 . S
C1118 C1119 1.516 . S
C1119 C1118 1.516 . S
C1119 C1120 1.502 . S
C1119 C1121 1.561 . S
C1119 C1122 1.526 . S
C1120 H1104 0.959 . S
C1120 H1105 0.959 . S
C1120 H1106 0.961 . S
C1120 C1119 1.502 . S
C1121 H1107 0.960 . S
C1121 H1108 0.961 . S
C1121 H1109 0.959 . S
C1121 C1119 1.561 . S
C1122 C1119 1.526 . S
C1122 C1123 1.396 . S
C1122 C1127 1.390 . S
C1123 C1117 1.465 . S
C1123 C1122 1.396 . S
C1123 C1124 1.399 . S
C1124 H1110 0.929 . S
C1124 C1123 1.399 . S
C1124 C1125 1.385 . S
C1125 H1111 0.931 . S
C1125 C1124 1.385 . S
C1125 C1126 1.389 . S
C1126 C1125 1.389 . S
C1126 C1127 1.387 . S
C1127 H1112 0.930 . S
C1127 C1122 1.390 . S
C1127 C1126 1.387 . S
H1128 C1140 0.930 . S
H1129 C1142 0.930 . S
H1130 C1143 0.930 . S
H1131 C1147 0.959 . S
H1132 C1147 0.959 . S
H1133 C1147 0.961 . S
H1134 C1148 0.960 . S
H1135 C1148 0.961 . S
H1136 C1148 0.959 . S
H1137 C1151 0.929 . S
H1138 C1152 0.931 . S
H1139 C1154 0.930 . S
C1140 H1128 0.930 . S
C1140 C1141 1.399 . S
C1140 C1145 1.399 . S
C1141 C1140 1.399 . S
C1141 C1142 1.376 . S
C1142 H1129 0.930 . S
C1142 C1141 1.376 . S
C1142 C1143 1.388 . S
C1143 H1130 0.930 . S
C1143 C1142 1.388 . S
C1143 C1144 1.390 . S
C1144 C1143 1.390 . S
C1144 C1145 1.394 . S
C1144 C1150 1.465 . S
C1145 C1140 1.399 . S
C1145 C1144 1.394 . S
C1145 C1146 1.516 . S
C1146 C1145 1.516 . S
C1146 C1147 1.502 . S
C1146 C1148 1.561 . S
C1146 C1149 1.526 . S
C1147 H1131 0.959 . S
C1147 H1132 0.959 . S
C1147 H1133 0.961 . S
C1147 C1146 1.502 . S
C1148 H1134 0.960 . S
C1148 H1135 0.961 . S
C1148 H1136 0.959 . S
C1148 C1146 1.561 . S
C1149 C1146 1.526 . S
C1149 C1150 1.396 . S
C1149 C1154 1.390 . S
C1150 C1144 1.465 . S
C1150 C1149 1.396 . S
C1150 C1151 1.399 . S
C1151 H1137 0.929 . S
C1151 C1150 1.399 . S
C1151 C1152 1.385 . S
C1152 H1138 0.931 . S
C1152 C1151 1.385 . S
C1152 C1153 1.389 . S
C1153 C1152 1.389 . S
C1153 C1154 1.387 . S
C1154 H1139 0.930 . S
C1154 C1149 1.390 . S
C1154 C1153 1.387 . S
H1155 C1167 0.930 . S
H1156 C1169 0.930 . S
H1157 C1170 0.930 . S
H1158 C1174 0.959 . S
H1159 C1174 0.959 . S
H1160 C1174 0.961 . S
H1161 C1175 0.960 . S
H1162 C1175 0.961 . S
H1163 C1175 0.959 . S
H1164 C1178 0.929 . S
H1165 C1179 0.931 . S
H1166 C1181 0.930 . S
C1167 H1155 0.930 . S
C1167 C1168 1.399 . S
C1167 C1172 1.399 . S
C1168 C1167 1.399 . S
C1168 C1169 1.376 . S
C1169 H1156 0.930 . S
C1169 C1168 1.376 . S
C1169 C1170 1.388 . S
C1170 H1157 0.930 . S
C1170 C1169 1.388 . S
C1170 C1171 1.390 . S
C1171 C1170 1.390 . S
C1171 C1172 1.394 . S
C1171 C1177 1.465 . S
C1172 C1167 1.399 . S
C1172 C1171 1.394 . S
C1172 C1173 1.516 . S
C1173 C1172 1.516 . S
C1173 C1174 1.502 . S
C1173 C1175 1.561 . S
C1173 C1176 1.526 . S
C1174 H1158 0.959 . S
C1174 H1159 0.959 . S
C1174 H1160 0.961 . S
C1174 C1173 1.502 . S
C1175 H1161 0.960 . S
C1175 H1162 0.961 . S
C1175 H1163 0.959 . S
C1175 C1173 1.561 . S
C1176 C1173 1.526 . S
C1176 C1177 1.396 . S
C1176 C1181 1.390 . S
C1177 C1171 1.465 . S
C1177 C1176 1.396 . S
C1177 C1178 1.399 . S
C1178 H1164 0.929 . S
C1178 C1177 1.399 . S
C1178 C1179 1.385 . S
C1179 H1165 0.931 . S
C1179 C1178 1.385 . S
C1179 C1180 1.389 . S
C1180 C1179 1.389 . S
C1180 C1181 1.387 . S
C1181 H1166 0.930 . S
C1181 C1176 1.390 . S
C1181 C1180 1.387 . S
H1182 C1194 0.930 . S
H1183 C1196 0.930 . S
H1184 C1197 0.930 . S
H1185 C1201 0.959 . S
H1186 C1201 0.959 . S
H1187 C1201 0.961 . S
H1188 C1202 0.960 . S
H1189 C1202 0.961 . S
H1190 C1202 0.959 . S
H1191 C1205 0.929 . S
H1192 C1206 0.931 . S
H1193 C1208 0.930 . S
C1194 H1182 0.930 . S
C1194 C1195 1.399 . S
C1194 C1199 1.399 . S
C1195 C1194 1.399 . S
C1195 C1196 1.376 . S
C1196 H1183 0.930 . S
C1196 C1195 1.376 . S
C1196 C1197 1.388 . S
C1197 H1184 0.930 . S
C1197 C1196 1.388 . S
C1197 C1198 1.390 . S
C1198 C1197 1.390 . S
C1198 C1199 1.394 . S
C1198 C1204 1.465 . S
C1199 C1194 1.399 . S
C1199 C1198 1.394 . S
C1199 C1200 1.516 . S
C1200 C1199 1.516 . S
C1200 C1201 1.502 . S
C1200 C1202 1.561 . S
C1200 C1203 1.526 . S
C1201 H1185 0.959 . S
C1201 H1186 0.959 . S
C1201 H1187 0.961 . S
C1201 C1200 1.502 . S
C1202 H1188 0.960 . S
C1202 H1189 0.961 . S
C1202 H1190 0.959 . S
C1202 C1200 1.561 . S
C1203 C1200 1.526 . S
C1203 C1204 1.396 . S
C1203 C1208 1.390 . S
C1204 C1198 1.465 . S
C1204 C1203 1.396 . S
C1204 C1205 1.399 . S
C1205 H1191 0.929 . S
C1205 C1204 1.399 . S
C1205 C1206 1.385 . S
C1206 H1192 0.931 . S
C1206 C1205 1.385 . S
C1206 C1207 1.389 . S
C1207 C1206 1.389 . S
C1207 C1208 1.387 . S
C1208 H1193 0.930 . S
C1208 C1203 1.390 . S
C1208 C1207 1.387 . S
H1209 C1221 0.930 . S
H1210 C1223 0.930 . S
H1211 C1224 0.930 . S
H1212 C1228 0.959 . S
H1213 C1228 0.959 . S
H1214 C1228 0.961 . S
H1215 C1229 0.960 . S
H1216 C1229 0.961 . S
H1217 C1229 0.959 . S
H1218 C1232 0.929 . S
H1219 C1233 0.931 . S
H1220 C1235 0.930 . S
C1221 H1209 0.930 . S
C1221 C1222 1.399 . S
C1221 C1226 1.399 . S
C1222 C1221 1.399 . S
C1222 C1223 1.376 . S
C1223 H1210 0.930 . S
C1223 C1222 1.376 . S
C1223 C1224 1.388 . S
C1224 H1211 0.930 . S
C1224 C1223 1.388 . S
C1224 C1225 1.390 . S
C1225 C1224 1.390 . S
C1225 C1226 1.394 . S
C1225 C1231 1.465 . S
C1226 C1221 1.399 . S
C1226 C1225 1.394 . S
C1226 C1227 1.516 . S
C1227 C1226 1.516 . S
C1227 C1228 1.502 . S
C1227 C1229 1.561 . S
C1227 C1230 1.526 . S
C1228 H1212 0.959 . S
C1228 H1213 0.959 . S
C1228 H1214 0.961 . S
C1228 C1227 1.502 . S
C1229 H1215 0.960 . S
C1229 H1216 0.961 . S
C1229 H1217 0.959 . S
C1229 C1227 1.561 . S
C1230 C1227 1.526 . S
C1230 C1231 1.396 . S
C1230 C1235 1.390 . S
C1231 C1225 1.465 . S
C1231 C1230 1.396 . S
C1231 C1232 1.399 . S
C1232 H1218 0.929 . S
C1232 C1231 1.399 . S
C1232 C1233 1.385 . S
C1233 H1219 0.931 . S
C1233 C1232 1.385 . S
C1233 C1234 1.389 . S
C1234 C1233 1.389 . S
C1234 C1235 1.387 . S
C1235 H1220 0.930 . S
C1235 C1230 1.390 . S
C1235 C1234 1.387 . S
C277 C115 1.153 . S
C289 C5 1.143 . S
C304 C31 1.144 . S
C316 C9 1.124 . S
C331 C49 1.142 . S
C343 C27 1.159 . S
C358 C53 1.104 . S
C370 C75 1.144 . S
C385 C71 1.159 . S
C397 C93 1.143 . S
C412 C119 1.143 . S
C424 C97 1.105 . S
C439 C159 1.136 . S
C451 C137 1.144 . S
C466 C163 1.144 . S
C478 C185 1.124 . S
C493 C203 1.119 . S
C505 C181 1.142 . S
C520 C229 1.115 . S
C532 C207 1.144 . S
C547 C247 1.115 . S
C559 C225 1.142 . S
C574 C141 1.155 . S
C586 C251 1.142 . S
C601 C248 1.333 . S
C613 C4 1.375 . S
C628 C30 1.379 . S
C640 C139 1.344 . S
C655 C160 1.379 . S
C667 C48 1.319 . S
C682 C183 1.340 . S
C694 C74 1.379 . S
C709 C204 1.333 . S
C721 C92 1.368 . S
C736 C118 1.359 . S
C748 C227 1.369 . S
C763 C136 1.323 . S
C775 C28 1.364 . S
C790 C162 1.376 . S
C802 C51 1.351 . S
C817 C72 1.333 . S
C829 C180 1.376 . S
C844 C95 1.334 . S
C856 C206 1.362 . S
C871 C224 1.350 . S
C883 C116 1.375 . S
C898 C250 1.361 . S
C910 C7 1.367 . S
C925 C138 1.147 1_455 S
C937 C6 1.122 1_565 S
C952 C29 1.197 . S
C964 C161 1.190 1_545 S
C979 C182 1.205 . S
C991 C50 1.165 1_455 S
C1006 C73 1.131 1_545 S
C1018 C205 1.131 1_655 S
C1033 C226 1.167 1_565 S
C1045 C94 1.204 . S
C1060 C249 1.204 . S
C1072 C117 1.177 1_655 S
C1087 C140 0.924 . S
C1099 C8 0.920 . S
C1114 C158 0.913 . S
C1126 C26 0.952 . S
C1141 C184 0.952 . S
C1153 C52 0.925 . S
C1168 C70 0.916 . S
C1180 C202 0.929 . S
C1195 C228 0.953 . S
C1207 C96 0.913 . S
C1222 C246 0.910 . S
C1234 C114 0.938 . S
