# Generated by pormake.
# Topology xfw, (5)-cn, num edge types: 1
# Building blocks:
#     Node 0, Type 0, BuildingBlock: BEQFEK_clean_sbu_0, # of connection points: 5
#     Node 1, Type 0, BuildingBlock: BEQFEK_clean_sbu_0, # of connection points: 5
#     Node 2, Type 0, BuildingBlock: BEQFEK_clean_sbu_0, # of connection points: 5
#     Node 3, Type 0, BuildingBlock: BEQFEK_clean_sbu_0, # of connection points: 5
#     Node 4, Type 0, BuildingBlock: BEQFEK_clean_sbu_0, # of connection points: 5
#     Node 5, Type 0, BuildingBlock: BEQFEK_clean_sbu_0, # of connection points: 5
#     Node 6, Type 0, BuildingBlock: BEQFEK_clean_sbu_0, # of connection points: 5
#     Node 7, Type 0, BuildingBlock: BEQFEK_clean_sbu_0, # of connection points: 5
#     Edge 8, Type (0, 0), BuildingBlock: EZIPEK_clean_linker_0, # of connection points: 2
#     Edge 9, Type (0, 0), BuildingBlock: EZIPEK_clean_linker_0, # of connection points: 2
#     Edge 10, Type (0, 0), BuildingBlock: EZIPEK_clean_linker_0, # of connection points: 2
#     Edge 11, Type (0, 0), BuildingBlock: EZIPEK_clean_linker_0, # of connection points: 2
#     Edge 12, Type (0, 0), BuildingBlock: EZIPEK_clean_linker_0, # of connection points: 2
#     Edge 13, Type (0, 0), BuildingBlock: EZIPEK_clean_linker_0, # of connection points: 2
#     Edge 14, Type (0, 0), BuildingBlock: EZIPEK_clean_linker_0, # of connection points: 2
#     Edge 15, Type (0, 0), BuildingBlock: EZIPEK_clean_linker_0, # of connection points: 2
#     Edge 16, Type (0, 0), BuildingBlock: EZIPEK_clean_linker_0, # of connection points: 2
#     Edge 17, Type (0, 0), BuildingBlock: EZIPEK_clean_linker_0, # of connection points: 2
#     Edge 18, Type (0, 0), BuildingBlock: EZIPEK_clean_linker_0, # of connection points: 2
#     Edge 19, Type (0, 0), BuildingBlock: EZIPEK_clean_linker_0, # of connection points: 2
#     Edge 20, Type (0, 0), BuildingBlock: EZIPEK_clean_linker_0, # of connection points: 2
#     Edge 21, Type (0, 0), BuildingBlock: EZIPEK_clean_linker_0, # of connection points: 2
#     Edge 22, Type (0, 0), BuildingBlock: EZIPEK_clean_linker_0, # of connection points: 2
#     Edge 23, Type (0, 0), BuildingBlock: EZIPEK_clean_linker_0, # of connection points: 2
#     Edge 24, Type (0, 0), BuildingBlock: EZIPEK_clean_linker_0, # of connection points: 2
#     Edge 25, Type (0, 0), BuildingBlock: EZIPEK_clean_linker_0, # of connection points: 2
#     Edge 26, Type (0, 0), BuildingBlock: EZIPEK_clean_linker_0, # of connection points: 2
#     Edge 27, Type (0, 0), BuildingBlock: EZIPEK_clean_linker_0, # of connection points: 2
# Relax obj value: 0.335
# Max RMSD: 0.196
# Mean RMSD: 0.196
data_MOF--net-xfw--node1-BEQFEK_clean_sbu_0--edge1-EZIPEK_clean_linker_0
_symmetry_space_group_name_H-M    P1
_symmetry_Int_Tables_number       1
_symmetry_cell_setting            triclinic
loop_
_symmetry_equiv_pos_as_xyz
'x, y, z'
_cell_length_a     22.097518
_cell_length_b     22.098018
_cell_length_c     48.798909
_cell_angle_alpha  90.031192
_cell_angle_beta   90.11443
_cell_angle_gamma 90.038336
loop_
_atom_site_label
_atom_site_type_symbol
_atom_site_fract_x
_atom_site_fract_y
_atom_site_fract_z
_atom_type_partial_charge
Co0 Co 0.21635 0.04035 0.57589 0.0
Co1 Co 0.21076 0.13031 0.62669 0.0
C2 C 0.11423 0.03858 0.61608 0.0
O3 O 0.14099 0.01771 0.59499 0.0
O4 O 0.13708 0.0804 0.63079 0.0
C5 C 0.20405 0.93687 0.53995 0.0
O6 O 0.16002 0.92087 0.55647 0.0
C7 C 0.20883 0.16079 0.68535 0.0
C8 C 0.24651 0.25335 0.68611 0.0
C9 C 0.22501 0.20757 0.70288 0.0
N10 N 0.22051 0.17788 0.65942 0.0
N11 N 0.24282 0.2334 0.66003 0.0
C12 C 0.18212 0.10092 0.69297 0.0
H13 H 0.13247 0.10267 0.68961 0.0
H14 H 0.20073 0.06487 0.67957 0.0
H15 H 0.19077 0.08985 0.71479 0.0
C16 C 0.33572 0.01678 0.59857 0.0
N17 N 0.28206 0.04504 0.59967 0.0
N18 N 0.28035 0.08063 0.62127 0.0
C19 C 0.33296 0.07459 0.63508 0.0
C20 C 0.36969 0.03446 0.62097 0.0
C21 C 0.35477 0.97579 0.57571 0.0
H22 H 0.34814 -0.00077 0.55584 0.0
H23 H 0.32584 0.93473 0.57578 0.0
H24 H 0.40291 0.96217 0.57751 0.0
O25 O 0.20049 0.11871 0.55973 0.0
O26 O 0.19434 0.18451 0.59417 0.0
H27 H 0.34166 0.1544 0.65958 0.0
H28 H 0.39385 0.09451 0.66869 0.0
C29 C 0.34719 0.10477 0.66166 0.0
H30 H 0.31478 0.08802 0.67716 0.0
H31 H 0.25627 0.25741 0.64265 0.0
O32 O 0.23441 0.9843 0.54509 0.0
C33 C 0.19116 0.17188 0.56864 0.0
Co34 Co 0.03544 0.77946 0.43762 0.0
Co35 Co 0.13291 0.77292 0.39033 0.0
C36 C 0.04046 0.87434 0.39582 0.0
O37 O 0.01456 0.85176 0.41675 0.0
O38 O 0.08443 0.84799 0.38385 0.0
C39 C 0.93257 0.79308 0.4741 0.0
O40 O 0.91574 0.83718 0.45775 0.0
C41 C 0.16115 0.76778 0.33204 0.0
C42 C 0.25083 0.72378 0.33114 0.0
C43 C 0.2055 0.74669 0.31442 0.0
N44 N 0.17912 0.75756 0.35797 0.0
N45 N 0.23286 0.73137 0.35731 0.0
C46 C 0.10256 0.79741 0.32453 0.0
H47 H 0.06546 0.77808 0.3371 0.0
H48 H 0.09195 0.79207 0.30245 0.0
H49 H 0.10566 0.84644 0.32925 0.0
C50 C 0.00403 0.66188 0.41553 0.0
N51 N 0.03781 0.71218 0.41485 0.0
N52 N 0.08139 0.70571 0.3968 0.0
C53 C 0.07807 0.64933 0.38622 0.0
C54 C 0.02856 0.62032 0.39763 0.0
C55 C 0.95147 0.65229 0.43434 0.0
H56 H 0.92204 0.69287 0.43406 0.0
H57 H 0.92442 0.61211 0.42826 0.0
H58 H 0.96846 0.6456 0.45553 0.0
O59 O 0.11435 0.79613 0.45415 0.0
O60 O 0.18642 0.79063 0.42248 0.0
H61 H 0.16993 0.62867 0.37638 0.0
H62 H 0.11558 0.57305 0.36431 0.0
C63 C 0.12407 0.62204 0.36759 0.0
H64 H 0.12234 0.64557 0.34764 0.0
H65 H 0.25688 0.7179 0.37471 0.0
O66 O 0.98005 0.76322 0.46871 0.0
C67 C 0.16949 0.80031 0.44707 0.0
Co68 Co 0.768 0.95159 0.57292 0.0
Co69 Co 0.77478 0.86231 0.62389 0.0
C70 C 0.86941 0.95432 0.61456 0.0
O71 O 0.84265 0.97411 0.59322 0.0
O72 O 0.84709 0.9124 0.62921 0.0
C73 C 0.74307 0.06546 0.54303 0.0
O74 O 0.72513 0.08828 0.56649 0.0
C75 C 0.77841 0.8281 0.68197 0.0
C76 C 0.73873 0.73634 0.68172 0.0
C77 C 0.76195 0.7806 0.69889 0.0
N78 N 0.76516 0.81302 0.65592 0.0
N79 N 0.74173 0.75793 0.65591 0.0
C80 C 0.80669 0.88682 0.69034 0.0
H81 H 0.78909 0.92417 0.6774 0.0
H82 H 0.79825 0.89682 0.71228 0.0
H83 H 0.8563 0.88391 0.68709 0.0
C84 C 0.64392 0.96793 0.59482 0.0
N85 N 0.69994 0.94426 0.59604 0.0
N86 N 0.70468 0.91131 0.61846 0.0
C87 C 0.653 0.91649 0.63295 0.0
C88 C 0.61304 0.95213 0.61831 0.0
C89 C 0.61738 -0.00059 0.57053 0.0
H90 H 0.64322 0.98797 0.55189 0.0
H91 H 0.61784 0.04898 0.574 0.0
H92 H 0.56943 0.98567 0.56767 0.0
O93 O 0.78529 0.8739 0.55649 0.0
O94 O 0.79262 0.80913 0.59124 0.0
H95 H 0.6453 0.83956 0.65921 0.0
H96 H 0.59758 0.90233 0.66891 0.0
C97 C 0.64246 0.88954 0.66056 0.0
H98 H 0.67805 0.90597 0.67471 0.0
H99 H 0.72706 0.73537 0.6383 0.0
O100 O 0.7592 0.01025 0.54191 0.0
C101 C 0.79562 0.82116 0.56567 0.0
Co102 Co 0.95503 0.20936 0.43847 0.0
Co103 Co 0.85886 0.21184 0.39001 0.0
C104 C 0.95501 0.11489 0.39585 0.0
O105 O 0.97931 0.13848 0.41701 0.0
O106 O 0.91037 0.13943 0.38359 0.0
C107 C 0.05713 0.19793 0.47595 0.0
O108 O 0.07459 0.15302 0.46021 0.0
C109 C 0.8234 0.2099 0.33178 0.0
C110 C 0.73785 0.26147 0.33178 0.0
C111 C 0.77859 0.23247 0.31469 0.0
N112 N 0.81018 0.22525 0.35781 0.0
N113 N 0.75874 0.25579 0.35764 0.0
C114 C 0.87855 0.1752 0.32353 0.0
H115 H 0.91903 0.19456 0.33379 0.0
H116 H 0.88504 0.17553 0.30099 0.0
H117 H 0.87372 0.12763 0.33046 0.0
C118 C 0.97604 0.33122 0.4193 0.0
N119 N 0.94703 0.27839 0.41702 0.0
N120 N 0.90682 0.28163 0.39734 0.0
C121 C 0.90912 0.33738 0.38617 0.0
C122 C 0.94878 0.37343 0.40183 0.0
C123 C 0.03608 0.33613 0.43366 0.0
H124 H 0.06173 0.29343 0.43083 0.0
H125 H 0.06385 0.37376 0.42545 0.0
H126 H 0.02917 0.34222 0.45599 0.0
O127 O 0.87739 0.18942 0.4548 0.0
O128 O 0.80591 0.19329 0.42262 0.0
H129 H 0.84066 0.35741 0.35611 0.0
H130 H 0.91639 0.38399 0.34712 0.0
C131 C 0.88984 0.34764 0.35709 0.0
H132 H 0.89815 0.30584 0.34521 0.0
H133 H 0.7385 0.27385 0.37514 0.0
O134 O 0.00979 0.22741 0.46982 0.0
C135 C 0.82252 0.18402 0.44738 0.0
Co136 Co 0.74617 0.02239 0.07765 0.0
Co137 Co 0.7692 0.11472 0.12519 0.0
C138 C 0.85859 0.02314 0.11531 0.0
O139 O 0.82801 0.00739 0.09424 0.0
O140 O 0.83882 0.0622 0.13216 0.0
C141 C 0.76531 0.92019 0.04235 0.0
O142 O 0.81826 0.91811 0.05454 0.0
C143 C 0.77692 0.16152 0.18121 0.0
C144 C 0.74703 0.25639 0.17717 0.0
C145 C 0.76532 0.21348 0.19616 0.0
N146 N 0.76579 0.17273 0.15456 0.0
N147 N 0.74824 0.22972 0.15227 0.0
C148 C 0.79798 0.10188 0.19215 0.0
H149 H 0.84814 0.10045 0.19132 0.0
H150 H 0.78016 0.06432 0.17938 0.0
H151 H 0.78382 0.0957 0.21378 0.0
C152 C 0.63367 0.00266 0.106 0.0
N153 N 0.68803 0.02903 0.10422 0.0
N154 N 0.69557 0.06765 0.12445 0.0
C155 C 0.64593 0.06509 0.14056 0.0
C156 C 0.60514 0.02426 0.12916 0.0
C157 C 0.6083 0.96103 0.08462 0.0
H158 H 0.6328 0.91725 0.08545 0.0
H159 H 0.5592 0.95283 0.08747 0.0
H160 H 0.61552 0.98094 0.06403 0.0
O161 O 0.7459 0.09816 0.05741 0.0
O162 O 0.79372 0.15325 0.08858 0.0
H163 H 0.64495 0.14933 0.16196 0.0
H164 H 0.59142 0.09423 0.1749 0.0
C165 C 0.63738 0.10066 0.16626 0.0
H166 H 0.67095 0.08558 0.18167 0.0
H167 H 0.73597 0.2501 0.13378 0.0
O168 O 0.72617 0.9585 0.05018 0.0
C169 C 0.78022 0.14201 0.06355 0.0
Co170 Co 0.03624 0.22355 0.94525 0.0
Co171 Co 0.1312 0.21141 0.897 0.0
C172 C 0.03451 0.11851 0.90712 0.0
O173 O 0.00979 0.15081 0.92556 0.0
O174 O 0.08192 0.13584 0.89455 0.0
C175 C 0.92117 0.23449 0.9725 0.0
O176 O 0.8991 0.22726 0.94771 0.0
C177 C 0.16432 0.20652 0.83861 0.0
C178 C 0.26021 0.2346 0.83906 0.0
C179 C 0.21338 0.21785 0.82172 0.0
N180 N 0.18102 0.21643 0.86478 0.0
N181 N 0.23855 0.23297 0.86488 0.0
C182 C 0.10258 0.18633 0.83003 0.0
H183 H 0.06878 0.19865 0.84586 0.0
H184 H 0.08983 0.20667 0.81006 0.0
H185 H 0.10279 0.13641 0.82755 0.0
C186 C 0.01859 0.34272 0.9207 0.0
N187 N 0.04551 0.28832 0.9213 0.0
N188 N 0.08203 0.28289 0.90013 0.0
C189 C 0.07791 0.33382 0.88496 0.0
C190 C 0.03783 0.3731 0.89759 0.0
C191 C 0.97639 0.36586 0.94224 0.0
H192 H 0.99167 0.35079 0.96278 0.0
H193 H 0.93046 0.34745 0.93839 0.0
H194 H 0.97385 0.41603 0.94192 0.0
O195 O 0.11297 0.20267 0.9626 0.0
O196 O 0.18397 0.20015 0.93039 0.0
H197 H 0.15904 0.33545 0.86116 0.0
H198 H 0.10348 0.39122 0.85096 0.0
C199 C 0.11003 0.34434 0.85853 0.0
H200 H 0.09154 0.3127 0.84304 0.0
H201 H 0.26288 0.24388 0.88257 0.0
O202 O 0.97812 0.23842 0.97563 0.0
C203 C 0.16751 0.19429 0.95533 0.0
Co204 Co 0.2154 0.95071 0.07682 0.0
Co205 Co 0.20289 0.85122 0.12314 0.0
C206 C 0.10868 0.94644 0.11376 0.0
O207 O 0.14262 0.97473 0.09705 0.0
O208 O 0.12553 0.89733 0.1251 0.0
C209 C 0.24298 0.06822 0.04997 0.0
O210 O 0.25904 0.08881 0.07416 0.0
C211 C 0.19669 0.80945 0.18038 0.0
C212 C 0.22855 0.71502 0.17728 0.0
C213 C 0.20982 0.75859 0.19579 0.0
N214 N 0.20757 0.79707 0.15386 0.0
N215 N 0.22611 0.74028 0.15214 0.0
C216 C 0.17521 0.86922 0.19084 0.0
H217 H 0.1843 0.90529 0.17559 0.0
H218 H 0.19762 0.88038 0.21058 0.0
H219 H 0.12578 0.8665 0.1946 0.0
C220 C 0.33645 0.9632 0.10214 0.0
N221 N 0.28074 0.93885 0.10096 0.0
N222 N 0.27311 0.90255 0.12212 0.0
C223 C 0.32294 0.90564 0.13814 0.0
C224 C 0.36439 0.94396 0.12591 0.0
C225 C 0.36554 -0.0011 0.07973 0.0
H226 H 0.342 0.99079 0.06007 0.0
H227 H 0.36441 0.04771 0.08495 0.0
H228 H 0.41383 0.98583 0.07763 0.0
O229 O 0.19539 0.87529 0.05791 0.0
O230 O 0.19645 0.80157 0.08889 0.0
H231 H 0.32572 0.82328 0.1608 0.0
H232 H 0.37662 0.88088 0.17357 0.0
C233 C 0.33135 0.87245 0.16449 0.0
H234 H 0.29678 0.88773 0.1793 0.0
H235 H 0.23835 0.71911 0.13384 0.0
O236 O 0.22751 0.01299 0.04747 0.0
C237 C 0.18956 0.81981 0.06428 0.0
Co238 Co 0.95027 0.76273 0.94305 0.0
Co239 Co 0.86142 0.7758 0.89243 0.0
C240 C 0.95367 0.86961 0.90501 0.0
O241 O 0.97541 0.83693 0.9241 0.0
O242 O 0.90888 0.85213 0.89059 0.0
C243 C 0.06625 0.73817 0.96988 0.0
O244 O 0.08632 0.72435 0.94536 0.0
C245 C 0.827 0.78152 0.83413 0.0
C246 C 0.73361 0.74585 0.83463 0.0
C247 C 0.77848 0.767 0.81733 0.0
N248 N 0.81185 0.76915 0.86022 0.0
N249 N 0.75581 0.74811 0.86037 0.0
C250 C 0.88676 0.80684 0.82555 0.0
H251 H 0.88345 0.85692 0.82491 0.0
H252 H 0.92234 0.79418 0.84056 0.0
H253 H 0.89929 0.79065 0.8048 0.0
C254 C 0.9666 0.64189 0.91908 0.0
N255 N 0.94305 0.69787 0.91864 0.0
N256 N 0.91131 0.70508 0.89599 0.0
C257 C 0.9169 0.6545 0.88063 0.0
C258 C 0.95186 0.61315 0.8949 0.0
C259 C -0.00319 0.61349 0.94329 0.0
H260 H 0.98314 0.63713 0.96226 0.0
H261 H 0.0466 0.61564 0.94078 0.0
H262 H 0.98412 0.56497 0.94485 0.0
O263 O 0.87221 0.77993 0.9599 0.0
O264 O 0.80714 0.78603 0.92519 0.0
H265 H 0.84005 0.65035 0.85414 0.0
H266 H 0.90119 0.60062 0.8443 0.0
C267 C 0.8899 0.64572 0.85288 0.0
H268 H 0.90771 0.68106 0.83899 0.0
H269 H 0.73298 0.73446 0.87803 0.0
O270 O 0.01055 0.75095 0.97304 0.0
C271 C 0.81896 0.7886 0.95079 0.0
C272 C 0.21618 0.92827 0.48855 0.0
C273 C 0.21629 0.90065 0.51491 0.0
C274 C 0.21497 0.80034 0.49354 0.0
C275 C 0.21026 0.82822 0.46755 0.0
N276 N 0.23236 0.91501 0.43974 0.0
N277 N 0.23701 0.81185 0.54202 0.0
C278 C 0.22079 0.89098 0.46494 0.0
C279 C 0.22297 0.83695 0.51724 0.0
N280 N 0.20616 0.98901 0.48573 0.0
N281 N 0.20824 0.73909 0.49545 0.0
H282 H 0.24454 0.838 0.55952 0.0
H283 H 0.24684 0.76614 0.54464 0.0
H284 H 0.20516 0.71176 0.47803 0.0
H285 H 0.20371 0.71609 0.51396 0.0
H286 H 0.19875 0.0097 0.46685 0.0
H287 H 0.19967 0.01832 0.50216 0.0
H288 H 0.24464 0.96006 0.43677 0.0
H289 H 0.2365 0.88806 0.42231 0.0
C290 C 0.7959 0.77361 0.51986 0.0
C291 C 0.82347 0.77871 0.54593 0.0
C292 C 0.92367 0.77703 0.52524 0.0
C293 C 0.89627 0.77851 0.49881 0.0
N294 N 0.80848 0.75657 0.47105 0.0
N295 N 0.91012 0.75514 0.57359 0.0
C296 C 0.8329 0.76932 0.49613 0.0
C297 C 0.88629 0.76918 0.54859 0.0
N298 N 0.73437 0.77713 0.518 0.0
N299 N 0.98411 0.7883 0.52845 0.0
H300 H 0.88278 0.74778 0.59066 0.0
H301 H 0.95545 0.74382 0.5765 0.0
H302 H 0.01332 0.7971 0.51223 0.0
H303 H 0.00441 0.79431 0.54755 0.0
H304 H 0.71089 0.7812 0.49958 0.0
H305 H 0.70721 0.77785 0.5355 0.0
H306 H 0.76325 0.74505 0.4681 0.0
H307 H 0.83486 0.75215 0.45345 0.0
C308 C 0.77581 0.16193 0.51903 0.0
C309 C 0.74794 0.10385 0.51796 0.0
C310 C 0.75151 0.10679 0.46762 0.0
C311 C 0.77971 0.16433 0.46899 0.0
N312 N 0.79688 0.25526 0.49476 0.0
N313 N 0.69073 0.03189 0.49103 0.0
C314 C 0.78335 0.19498 0.49437 0.0
C315 C 0.72958 0.07989 0.49215 0.0
N316 N 0.80065 0.18343 0.54281 0.0
N317 N 0.74909 0.0759 0.44339 0.0
H318 H 0.6722 0.01238 0.50852 0.0
H319 H 0.67181 0.01599 0.47282 0.0
H320 H 0.76243 0.09461 0.42478 0.0
H321 H 0.73668 0.0305 0.44204 0.0
H322 H 0.82678 0.22267 0.54361 0.0
H323 H 0.80145 0.15942 0.56112 0.0
H324 H 0.79561 0.28135 0.51255 0.0
H325 H 0.80287 0.27995 0.47671 0.0
C326 C 0.10119 0.22393 0.55072 0.0
C327 C 0.16408 0.21419 0.54856 0.0
C328 C 0.15597 0.22274 0.49866 0.0
C329 C 0.09253 0.21369 0.50087 0.0
N330 N 0.00378 0.20518 0.52986 0.0
N331 N 0.25387 0.21484 0.52125 0.0
C332 C 0.0644 0.21589 0.5271 0.0
C333 C 0.19233 0.2187 0.52267 0.0
N334 N 0.07674 0.2383 0.57551 0.0
N335 N 0.18104 0.23511 0.47372 0.0
H336 H 0.28058 0.21425 0.53895 0.0
H337 H 0.27778 0.21036 0.503 0.0
H338 H 0.155 0.23963 0.45597 0.0
H339 H 0.22639 0.24639 0.47105 0.0
H340 H 0.03139 0.24984 0.57808 0.0
H341 H 0.10365 0.24559 0.59278 0.0
H342 H 0.98286 0.19962 0.54881 0.0
H343 H 0.97493 0.19658 0.51343 0.0
C344 C 0.75233 0.871 0.96794 0.0
C345 C 0.77385 0.81109 0.9709 0.0
C346 C 0.75899 0.81816 0.02057 0.0
C347 C 0.75456 0.88185 0.0179 0.0
N348 N 0.7449 0.97001 0.98879 0.0
N349 N 0.78592 0.72276 0.99884 0.0
C350 C 0.74886 0.90858 0.99152 0.0
C351 C 0.77193 0.78279 0.99692 0.0
N352 N 0.73622 0.89209 0.94269 0.0
N353 N 0.75143 0.79217 0.04572 0.0
H354 H 0.79232 0.69611 0.98139 0.0
H355 H 0.79232 0.69994 0.01726 0.0
H356 H 0.74122 0.81765 0.06313 0.0
H357 H 0.75029 0.74567 0.04901 0.0
H358 H 0.71625 0.93422 0.93956 0.0
H359 H 0.73547 0.86444 0.9254 0.0
H360 H 0.74896 -0.00783 0.97005 0.0
H361 H 0.74141 -0.00049 1.00534 0.0
C362 C 0.81919 0.2312 0.03584 0.0
C363 C 0.81733 0.1678 0.04084 0.0
C364 C 0.88687 0.15043 1.00228 0.0
C365 C 0.88515 0.2129 0.99607 0.0
N366 N 0.84786 0.3131 1.00493 0.0
N367 N 0.84585 0.06584 0.02677 0.0
C368 C 0.85092 0.25354 0.01236 0.0
C369 C 0.84999 0.12722 0.02345 0.0
N370 N 0.79038 0.26977 0.0534 0.0
N371 N 0.926 0.11308 0.9886 0.0
H372 H 0.82923 0.04484 0.04422 0.0
H373 H 0.85817 0.03487 0.01168 0.0
H374 H 0.95147 0.12664 0.97177 0.0
H375 H 0.93701 0.06966 0.99521 0.0
H376 H 0.79462 0.31662 0.05271 0.0
H377 H 0.76399 0.25475 0.06973 0.0
H378 H 0.81959 0.34467 0.01417 0.0
H379 H 0.87162 0.33049 0.98823 0.0
C380 C 0.2062 0.20181 1.00276 0.0
C381 C 0.20943 0.17244 0.97705 0.0
C382 C 0.25866 0.08645 0.99958 0.0
C383 C 0.23989 0.10889 0.02554 0.0
N384 N 0.18814 0.18803 0.05098 0.0
N385 N 0.23853 0.08398 0.95092 0.0
C386 C 0.21289 0.16732 0.02711 0.0
C387 C 0.23685 0.11447 0.97526 0.0
N388 N 0.19407 0.26233 1.00375 0.0
N389 N 0.29774 0.03872 0.99814 0.0
H390 H 0.22495 0.10272 0.93235 0.0
H391 H 0.25043 0.03846 0.94946 0.0
H392 H 0.31643 0.0187 0.01552 0.0
H393 H 0.31685 0.02387 0.97982 0.0
H394 H 0.19578 0.28742 0.02184 0.0
H395 H 0.18889 0.2881 0.98596 0.0
H396 H 0.16272 0.22767 0.05207 0.0
H397 H 0.18676 0.16324 0.06906 0.0
C398 C 0.16349 0.77572 0.99204 0.0
C399 C 0.10799 0.74317 0.99382 0.0
C400 C 0.11476 0.74533 0.044 0.0
C401 C 0.16981 0.77829 0.04205 0.0
N402 N 0.25705 0.80293 0.01496 0.0
N403 N 0.04484 0.67774 0.02114 0.0
C404 C 0.19794 0.78516 0.01623 0.0
C405 C 0.08841 0.72143 0.01972 0.0
N406 N 0.18102 0.80276 0.96815 0.0
N407 N 0.08491 0.74032 0.06839 0.0
H408 H 0.0264 0.65775 1.00369 0.0
H409 H 0.03253 0.65661 0.03939 0.0
H410 H 0.10203 0.75588 0.08696 0.0
H411 H 0.04085 0.7238 0.06987 0.0
H412 H 0.21784 0.83213 0.96699 0.0
H413 H 0.15597 0.80152 0.95011 0.0
H414 H 0.28151 0.80417 0.99672 0.0
H415 H 0.28298 0.80987 0.03261 0.0
C416 C 0.50308 0.93056 0.6274 0.0
C417 C 0.5516 0.97241 0.62588 0.0
C418 C 0.48073 0.05694 0.62526 0.0
C419 C 0.43219 0.0152 0.62727 0.0
N420 N 0.3976 0.91503 0.63883 0.0
N421 N 0.58768 0.07432 0.63253 0.0
C422 C 0.44368 0.95284 0.63144 0.0
C423 C 0.54067 0.03534 0.62802 0.0
N424 N 0.51284 0.87026 0.62309 0.0
N425 N 0.4702 0.11619 0.61882 0.0
H426 H 0.63217 0.05946 0.63505 0.0
H427 H 0.58159 0.12021 0.63658 0.0
H428 H 0.42701 0.13399 0.61595 0.0
H429 H 0.50467 0.1466 0.61408 0.0
H430 H 0.47789 0.83893 0.62098 0.0
H431 H 0.55555 0.85208 0.61939 0.0
H432 H 0.40436 0.86998 0.64433 0.0
H433 H 0.35358 0.93052 0.6421 0.0
C434 C 0.02336 0.52096 0.42051 0.0
C435 C 0.01196 0.55585 0.39678 0.0
C436 C 0.93729 0.48122 0.38197 0.0
C437 C 0.95897 0.44114 0.40233 0.0
N438 N 0.97777 0.44854 0.45075 0.0
N439 N 0.95795 0.56938 0.3542 0.0
C440 C 0.98939 0.46792 0.42477 0.0
C441 C 0.96934 0.53575 0.37707 0.0
N442 N 0.06597 0.53866 0.43916 0.0
N443 N 0.87961 0.47523 0.37253 0.0
H444 H 0.98021 0.6101 0.35022 0.0
H445 H 0.93019 0.55385 0.33837 0.0
H446 H 0.8497 0.44485 0.38169 0.0
H447 H 0.85926 0.50638 0.35939 0.0
H448 H 0.07837 0.51166 0.45578 0.0
H449 H 0.09251 0.57731 0.43654 0.0
H450 H -0.00546 0.4704 0.46813 0.0
H451 H 0.94511 0.41551 0.45471 0.0
C452 C 0.53226 0.94461 0.14258 0.0
C453 C 0.54377 0.00686 0.13822 0.0
C454 C 0.43529 0.02626 0.13894 0.0
C455 C 0.4247 0.96347 0.1357 0.0
N456 N 0.46478 0.86193 0.13197 0.0
N457 N 0.50514 0.10774 0.13003 0.0
C458 C 0.47339 0.92193 0.13748 0.0
C459 C 0.4951 0.04842 0.13643 0.0
N460 N 0.57825 0.90711 0.15035 0.0
N461 N 0.38802 0.06459 0.14371 0.0
H462 H 0.54816 0.12581 0.12709 0.0
H463 H 0.47032 0.1379 0.12547 0.0
H464 H 0.34365 0.04907 0.14588 0.0
H465 H 0.39388 0.1103 0.14828 0.0
H466 H 0.57146 0.86194 0.15566 0.0
H467 H 0.62193 0.92322 0.15412 0.0
H468 H 0.50035 0.83126 0.13017 0.0
H469 H 0.42279 0.84365 0.12687 0.0
C470 C 0.05874 0.48344 0.88962 0.0
C471 C 0.01797 0.43393 0.88881 0.0
C472 C 0.93196 0.50291 0.88583 0.0
C473 C 0.9728 0.55231 0.88673 0.0
N474 N 0.07396 0.58987 0.88004 0.0
N475 N 0.91908 0.39569 0.8772 0.0
C476 C 0.03596 0.54245 0.88518 0.0
C477 C 0.95559 0.44352 0.88368 0.0
N478 N 0.11802 0.47496 0.89664 0.0
N479 N 0.87126 0.51208 0.88905 0.0
H480 H 0.93569 0.35167 0.87528 0.0
H481 H 0.87416 0.40065 0.87109 0.0
H482 H 0.85211 0.55492 0.89104 0.0
H483 H 0.84042 0.47692 0.89174 0.0
H484 H 0.14773 0.51058 0.90055 0.0
H485 H 0.13654 0.43256 0.90071 0.0
H486 H 0.12014 0.58454 0.87651 0.0
H487 H 0.05798 0.63364 0.87653 0.0
C488 C 0.04028 0.9554 0.62397 0.0
C489 C 0.05175 0.01811 0.62146 0.0
C490 C 0.94278 0.03831 0.62274 0.0
C491 C 0.93157 0.97551 0.62028 0.0
N492 N 0.97085 0.87391 0.61419 0.0
N493 N 0.01327 0.11968 0.61443 0.0
C494 C 0.98052 0.93366 0.62011 0.0
C495 C 0.00292 0.05999 0.62016 0.0
N496 N 0.08661 0.91667 0.63 0.0
N497 N 0.89593 0.07717 0.62762 0.0
H498 H 0.05624 0.13789 0.61155 0.0
H499 H 0.97873 0.15027 0.61005 0.0
H500 H 0.85133 0.06242 0.62987 0.0
H501 H 0.90216 0.12283 0.63217 0.0
H502 H 0.07993 0.87112 0.6346 0.0
H503 H 0.13092 0.93155 0.63319 0.0
H504 H 0.00586 0.84332 0.61072 0.0
H505 H 0.92833 0.85571 0.61008 0.0
C506 C 0.95837 0.94529 0.38301 0.0
C507 C 0.02096 0.93515 0.38686 0.0
C508 C 0.03882 0.04429 0.3844 0.0
C509 C 0.9759 0.05419 0.38733 0.0
N510 N 0.87475 0.01226 0.39199 0.0
N511 N 0.12196 0.97613 0.39297 0.0
C512 C 0.93499 0.00441 0.38669 0.0
C513 C 0.06194 0.9848 0.3874 0.0
N514 N 0.92129 0.89801 0.37634 0.0
N515 N 0.07636 0.09196 0.37904 0.0
H516 H 0.14151 0.93375 0.39569 0.0
H517 H 0.15178 0.01159 0.397 0.0
H518 H 0.06017 0.13596 0.37643 0.0
H519 H 0.12205 0.08679 0.37435 0.0
H520 H 0.87597 0.90355 0.37096 0.0
H521 H 0.93778 0.85423 0.37335 0.0
H522 H 0.845 0.97626 0.39494 0.0
H523 H 0.85491 0.05402 0.39593 0.0
C524 C 0.01423 0.98254 0.09105 0.0
C525 C 0.04443 0.96553 0.11555 0.0
C526 C 0.94949 0.98058 0.14075 0.0
C527 C 0.92303 0.0052 0.1167 0.0
N528 N 0.94154 0.05221 0.07284 0.0
N529 N 0.04326 0.96052 0.165 0.0
C530 C 0.95872 0.01297 0.09297 0.0
C531 C 0.01278 0.96776 0.14089 0.0
N532 N 0.03655 0.96748 0.06585 0.0
N533 N 0.91446 0.96833 0.16308 0.0
H534 H 0.09001 0.95494 0.16578 0.0
H535 H 0.02322 0.96666 0.18411 0.0
H536 H 0.86803 0.97672 0.16348 0.0
H537 H 0.93062 0.94521 0.1802 0.0
H538 H 0.01283 0.97634 0.04778 0.0
H539 H 0.07394 0.93936 0.06314 0.0
H540 H 0.96877 0.06181 0.05595 0.0
H541 H 0.90465 0.08113 0.07518 0.0
C542 C 0.97806 0.96568 0.92922 0.0
C543 C 0.97308 0.93381 0.90407 0.0
C544 C 0.00173 0.0265 0.87962 0.0
C545 C 0.01517 0.05449 0.90512 0.0
N546 N 0.03588 0.04046 0.95351 0.0
N547 N 0.98989 0.93148 0.85521 0.0
C548 C 0.00935 0.02104 0.92974 0.0
C549 C 0.98755 0.96349 0.8791 0.0
N550 N 0.95054 0.94492 0.95247 0.0
N551 N 0.00051 0.06013 0.85619 0.0
H552 H 0.98192 0.88504 0.85436 0.0
H553 H 0.00538 0.94986 0.83685 0.0
H554 H 0.00877 0.10657 0.85615 0.0
H555 H 0.98576 0.0431 0.83742 0.0
H556 H 0.94994 0.9697 0.97066 0.0
H557 H 0.9219 0.90739 0.95268 0.0
H558 H 0.03627 0.01434 0.97131 0.0
H559 H 0.06347 0.07871 0.95458 0.0
C560 C 0.25894 0.17125 0.74948 0.0
C561 C 0.22145 0.20948 0.73335 0.0
C562 C 0.18482 0.2584 0.77521 0.0
C563 C 0.21598 0.21484 0.79128 0.0
N564 N 0.2749 0.12314 0.79348 0.0
N565 N 0.14043 0.28249 0.73116 0.0
C566 C 0.25072 0.16919 0.77834 0.0
C567 C 0.18188 0.25104 0.74631 0.0
N568 N 0.30451 0.13924 0.73744 0.0
N569 N 0.16053 0.30841 0.78738 0.0
H570 H 0.13634 0.27783 0.70996 0.0
H571 H 0.10643 0.30874 0.73992 0.0
H572 H 0.16489 0.31682 0.80827 0.0
H573 H 0.14222 0.34446 0.77641 0.0
H574 H 0.33681 0.11505 0.74848 0.0
H575 H 0.31397 0.14246 0.71662 0.0
H576 H 0.29526 0.0853 0.78471 0.0
H577 H 0.26978 0.12001 0.81468 0.0
C578 C 0.2571 0.77934 0.2416 0.0
C579 C 0.20953 0.75311 0.22608 0.0
C580 C 0.16305 0.71598 0.26837 0.0
C581 C 0.20632 0.74905 0.28396 0.0
N582 N 0.28781 0.8219 0.28511 0.0
N583 N 0.11265 0.70311 0.22456 0.0
C584 C 0.25155 0.78347 0.27049 0.0
C585 C 0.16111 0.7233 0.23943 0.0
N586 N 0.30863 0.79836 0.22883 0.0
N587 N 0.12532 0.67586 0.28103 0.0
H588 H 0.11021 0.70669 0.20326 0.0
H589 H 0.07295 0.68717 0.23349 0.0
H590 H 0.12593 0.66864 0.30209 0.0
H591 H 0.09732 0.64593 0.27045 0.0
H592 H 0.34708 0.81278 0.23935 0.0
H593 H 0.3153 0.79315 0.20785 0.0
H594 H 0.31722 0.85263 0.27592 0.0
H595 H 0.28423 0.82755 0.30626 0.0
C596 C 0.80767 0.7295 0.77047 0.0
C597 C 0.77473 0.77084 0.78698 0.0
C598 C 0.72788 0.81344 0.74578 0.0
C599 C 0.76636 0.77729 0.72924 0.0
N600 N 0.8503 0.708 0.72583 0.0
N601 N 0.71079 0.85893 0.79028 0.0
C602 C 0.80849 0.73735 0.74158 0.0
C603 C 0.73695 0.81487 0.77461 0.0
N604 N 0.83589 0.68109 0.78225 0.0
N605 N 0.68096 0.84433 0.73411 0.0
H606 H 0.71642 0.86147 0.81148 0.0
H607 H 0.68805 0.89593 0.78199 0.0
H608 H 0.67152 0.84223 0.71323 0.0
H609 H 0.64788 0.86672 0.74541 0.0
H610 H 0.85563 0.64623 0.77102 0.0
H611 H 0.83394 0.67255 0.80319 0.0
H612 H 0.88617 0.68338 0.73407 0.0
H613 H 0.85243 0.71267 0.70459 0.0
C614 C 0.72822 0.19409 0.27182 0.0
C615 C 0.77483 0.22871 0.28426 0.0
C616 C 0.81694 0.25154 0.23886 0.0
C617 C 0.7676 0.22094 0.22645 0.0
N618 N 0.66887 0.1757 0.23092 0.0
N619 N 0.85586 0.30118 0.27951 0.0
C620 C 0.72103 0.19585 0.24289 0.0
C621 C 0.8171 0.26055 0.26774 0.0
N622 N 0.692 0.15792 0.28752 0.0
N623 N 0.86436 0.27076 0.22316 0.0
H624 H 0.85621 0.31005 0.30047 0.0
H625 H 0.88347 0.33019 0.26828 0.0
H626 H 0.86534 0.26587 0.2019 0.0
H627 H 0.90465 0.28723 0.2314 0.0
H628 H 0.66164 0.12675 0.27926 0.0
H629 H 0.69613 0.15495 0.30878 0.0
H630 H 0.63098 0.16209 0.24199 0.0
H631 H 0.66115 0.17891 0.20992 0.0
loop_
_geom_bond_atom_site_label_1
_geom_bond_atom_site_label_2
_geom_bond_distance
_geom_bond_site_symmetry_2
_ccdc_geom_bond_type
Co0 O3 1.970 . S
Co0 N17 1.989 . S
Co0 O25 1.967 . S
Co0 O32 1.920 . S
Co1 O4 1.966 . S
Co1 N10 2.022 . S
Co1 N18 1.993 . S
Co1 O26 1.941 . S
C2 O3 1.258 . S
C2 O4 1.263 . S
O3 Co0 1.970 . S
O3 C2 1.258 . S
O4 Co1 1.966 . S
O4 C2 1.263 . S
C5 O6 1.235 . S
C5 O32 1.289 1_565 S
O6 C5 1.235 . S
C7 C9 1.400 . S
C7 N10 1.351 . S
C7 C12 1.501 . S
C8 C9 1.387 . S
C8 N11 1.341 . S
C9 C7 1.400 . S
C9 C8 1.387 . S
N10 Co1 2.022 . S
N10 C7 1.351 . S
N10 N11 1.365 . S
N11 C8 1.341 . S
N11 N10 1.365 . S
N11 H31 0.862 . S
C12 C7 1.501 . S
C12 H13 0.961 . S
C12 H14 0.961 . S
C12 H15 0.960 . S
H13 C12 0.961 . S
H14 C12 0.961 . S
H15 C12 0.960 . S
C16 N17 1.342 . S
C16 C20 1.401 . S
C16 C21 1.499 . S
N17 Co0 1.989 . S
N17 C16 1.342 . S
N17 N18 1.388 . S
N18 Co1 1.993 . S
N18 N17 1.388 . S
N18 C19 1.346 . S
C19 N18 1.346 . S
C19 C20 1.396 . S
C19 C29 1.510 . S
C20 C16 1.401 . S
C20 C19 1.396 . S
C21 C16 1.499 . S
C21 H22 0.959 . S
C21 H23 0.960 1_545 S
C21 H24 0.961 . S
H22 C21 0.959 . S
H23 C21 0.960 1_565 S
H24 C21 0.961 . S
O25 Co0 1.967 . S
O25 C33 1.258 . S
O26 Co1 1.941 . S
O26 C33 1.266 . S
H27 C29 0.959 . S
H28 C29 0.961 . S
C29 C19 1.510 . S
C29 H27 0.959 . S
C29 H28 0.961 . S
C29 H30 0.960 . S
H30 C29 0.960 . S
H31 N11 0.862 . S
O32 Co0 1.920 . S
O32 C5 1.289 1_545 S
C33 O25 1.258 . S
C33 O26 1.266 . S
Co34 O37 1.970 . S
Co34 N51 1.989 . S
Co34 O59 1.967 . S
Co34 O66 1.920 . S
Co35 O38 1.966 . S
Co35 N44 2.022 . S
Co35 N52 1.993 . S
Co35 O60 1.941 . S
C36 O37 1.258 . S
C36 O38 1.263 . S
O37 Co34 1.970 . S
O37 C36 1.258 . S
O38 Co35 1.966 . S
O38 C36 1.263 . S
C39 O40 1.235 . S
C39 O66 1.289 1_655 S
O40 C39 1.235 . S
C41 C43 1.400 . S
C41 N44 1.351 . S
C41 C46 1.501 . S
C42 C43 1.387 . S
C42 N45 1.341 . S
C43 C41 1.400 . S
C43 C42 1.387 . S
N44 Co35 2.022 . S
N44 C41 1.351 . S
N44 N45 1.365 . S
N45 C42 1.341 . S
N45 N44 1.365 . S
N45 H65 0.862 . S
C46 C41 1.501 . S
C46 H47 0.961 . S
C46 H48 0.961 . S
C46 H49 0.960 . S
H47 C46 0.961 . S
H48 C46 0.961 . S
H49 C46 0.960 . S
C50 N51 1.342 . S
C50 C54 1.401 . S
C50 C55 1.499 . S
N51 Co34 1.989 . S
N51 C50 1.342 . S
N51 N52 1.388 . S
N52 Co35 1.993 . S
N52 N51 1.388 . S
N52 C53 1.346 . S
C53 N52 1.346 . S
C53 C54 1.396 . S
C53 C63 1.510 . S
C54 C50 1.401 . S
C54 C53 1.396 . S
C55 C50 1.499 . S
C55 H56 0.959 . S
C55 H57 0.960 1_455 S
C55 H58 0.961 . S
H56 C55 0.959 . S
H57 C55 0.960 1_655 S
H58 C55 0.961 . S
O59 Co34 1.967 . S
O59 C67 1.258 . S
O60 Co35 1.941 . S
O60 C67 1.266 . S
H61 C63 0.959 . S
H62 C63 0.961 . S
C63 C53 1.510 . S
C63 H61 0.959 . S
C63 H62 0.961 . S
C63 H64 0.960 . S
H64 C63 0.960 . S
H65 N45 0.862 . S
O66 Co34 1.920 . S
O66 C39 1.289 1_455 S
C67 O59 1.258 . S
C67 O60 1.266 . S
Co68 O71 1.970 . S
Co68 N85 1.989 . S
Co68 O93 1.967 . S
Co68 O100 1.920 . S
Co69 O72 1.966 . S
Co69 N78 2.022 . S
Co69 N86 1.993 . S
Co69 O94 1.941 . S
C70 O71 1.258 . S
C70 O72 1.263 . S
O71 Co68 1.970 . S
O71 C70 1.258 . S
O72 Co69 1.966 . S
O72 C70 1.263 . S
C73 O74 1.235 . S
C73 O100 1.289 1_545 S
O74 C73 1.235 . S
C75 C77 1.400 . S
C75 N78 1.351 . S
C75 C80 1.501 . S
C76 C77 1.387 . S
C76 N79 1.341 . S
C77 C75 1.400 . S
C77 C76 1.387 . S
N78 Co69 2.022 . S
N78 C75 1.351 . S
N78 N79 1.365 . S
N79 C76 1.341 . S
N79 N78 1.365 . S
N79 H99 0.862 . S
C80 C75 1.501 . S
C80 H81 0.961 . S
C80 H82 0.961 . S
C80 H83 0.960 . S
H81 C80 0.961 . S
H82 C80 0.961 . S
H83 C80 0.960 . S
C84 N85 1.342 . S
C84 C88 1.401 . S
C84 C89 1.499 . S
N85 Co68 1.989 . S
N85 C84 1.342 . S
N85 N86 1.388 . S
N86 Co69 1.993 . S
N86 N85 1.388 . S
N86 C87 1.346 . S
C87 N86 1.346 . S
C87 C88 1.396 . S
C87 C97 1.510 . S
C88 C84 1.401 . S
C88 C87 1.396 . S
C89 C84 1.499 . S
C89 H90 0.959 . S
C89 H91 0.960 1_565 S
C89 H92 0.961 . S
H90 C89 0.959 . S
H91 C89 0.960 1_545 S
H92 C89 0.961 . S
O93 Co68 1.967 . S
O93 C101 1.258 . S
O94 Co69 1.941 . S
O94 C101 1.266 . S
H95 C97 0.959 . S
H96 C97 0.961 . S
C97 C87 1.510 . S
C97 H95 0.959 . S
C97 H96 0.961 . S
C97 H98 0.960 . S
H98 C97 0.960 . S
H99 N79 0.862 . S
O100 Co68 1.920 . S
O100 C73 1.289 1_565 S
C101 O93 1.258 . S
C101 O94 1.266 . S
Co102 O105 1.970 . S
Co102 N119 1.989 . S
Co102 O127 1.967 . S
Co102 O134 1.920 . S
Co103 O106 1.966 . S
Co103 N112 2.022 . S
Co103 N120 1.993 . S
Co103 O128 1.941 . S
C104 O105 1.258 . S
C104 O106 1.263 . S
O105 Co102 1.970 . S
O105 C104 1.258 . S
O106 Co103 1.966 . S
O106 C104 1.263 . S
C107 O108 1.235 . S
C107 O134 1.289 1_455 S
O108 C107 1.235 . S
C109 C111 1.400 . S
C109 N112 1.351 . S
C109 C114 1.501 . S
C110 C111 1.387 . S
C110 N113 1.341 . S
C111 C109 1.400 . S
C111 C110 1.387 . S
N112 Co103 2.022 . S
N112 C109 1.351 . S
N112 N113 1.365 . S
N113 C110 1.341 . S
N113 N112 1.365 . S
N113 H133 0.862 . S
C114 C109 1.501 . S
C114 H115 0.961 . S
C114 H116 0.961 . S
C114 H117 0.960 . S
H115 C114 0.961 . S
H116 C114 0.961 . S
H117 C114 0.960 . S
C118 N119 1.342 . S
C118 C122 1.401 . S
C118 C123 1.499 . S
N119 Co102 1.989 . S
N119 C118 1.342 . S
N119 N120 1.388 . S
N120 Co103 1.993 . S
N120 N119 1.388 . S
N120 C121 1.346 . S
C121 N120 1.346 . S
C121 C122 1.396 . S
C121 C131 1.510 . S
C122 C118 1.401 . S
C122 C121 1.396 . S
C123 C118 1.499 . S
C123 H124 0.959 . S
C123 H125 0.960 1_655 S
C123 H126 0.961 . S
H124 C123 0.959 . S
H125 C123 0.960 1_455 S
H126 C123 0.961 . S
O127 Co102 1.967 . S
O127 C135 1.258 . S
O128 Co103 1.941 . S
O128 C135 1.266 . S
H129 C131 0.959 . S
H130 C131 0.961 . S
C131 C121 1.510 . S
C131 H129 0.959 . S
C131 H130 0.961 . S
C131 H132 0.960 . S
H132 C131 0.960 . S
H133 N113 0.862 . S
O134 Co102 1.920 . S
O134 C107 1.289 1_655 S
C135 O127 1.258 . S
C135 O128 1.266 . S
Co136 O139 1.970 . S
Co136 N153 1.989 . S
Co136 O161 1.967 . S
Co136 O168 1.920 . S
Co137 O140 1.966 . S
Co137 N146 2.022 . S
Co137 N154 1.993 . S
Co137 O162 1.941 . S
C138 O139 1.258 . S
C138 O140 1.263 . S
O139 Co136 1.970 . S
O139 C138 1.258 . S
O140 Co137 1.966 . S
O140 C138 1.263 . S
C141 O142 1.235 . S
C141 O168 1.289 1_565 S
O142 C141 1.235 . S
C143 C145 1.400 . S
C143 N146 1.351 . S
C143 C148 1.501 . S
C144 C145 1.387 . S
C144 N147 1.341 . S
C145 C143 1.400 . S
C145 C144 1.387 . S
N146 Co137 2.022 . S
N146 C143 1.351 . S
N146 N147 1.365 . S
N147 C144 1.341 . S
N147 N146 1.365 . S
N147 H167 0.862 . S
C148 C143 1.501 . S
C148 H149 0.961 . S
C148 H150 0.961 . S
C148 H151 0.960 . S
H149 C148 0.961 . S
H150 C148 0.961 . S
H151 C148 0.960 . S
C152 N153 1.342 . S
C152 C156 1.401 . S
C152 C157 1.499 . S
N153 Co136 1.989 . S
N153 C152 1.342 . S
N153 N154 1.388 . S
N154 Co137 1.993 . S
N154 N153 1.388 . S
N154 C155 1.346 . S
C155 N154 1.346 . S
C155 C156 1.396 . S
C155 C165 1.510 . S
C156 C152 1.401 . S
C156 C155 1.396 . S
C157 C152 1.499 . S
C157 H158 0.959 . S
C157 H159 0.960 1_545 S
C157 H160 0.961 . S
H158 C157 0.959 . S
H159 C157 0.960 1_565 S
H160 C157 0.961 . S
O161 Co136 1.967 . S
O161 C169 1.258 . S
O162 Co137 1.941 . S
O162 C169 1.266 . S
H163 C165 0.959 . S
H164 C165 0.961 . S
C165 C155 1.510 . S
C165 H163 0.959 . S
C165 H164 0.961 . S
C165 H166 0.960 . S
H166 C165 0.960 . S
H167 N147 0.862 . S
O168 Co136 1.920 . S
O168 C141 1.289 1_545 S
C169 O161 1.258 . S
C169 O162 1.266 . S
Co170 O173 1.970 . S
Co170 N187 1.989 . S
Co170 O195 1.967 . S
Co170 O202 1.920 . S
Co171 O174 1.966 . S
Co171 N180 2.022 . S
Co171 N188 1.993 . S
Co171 O196 1.941 . S
C172 O173 1.258 . S
C172 O174 1.263 . S
O173 Co170 1.970 . S
O173 C172 1.258 . S
O174 Co171 1.966 . S
O174 C172 1.263 . S
C175 O176 1.235 . S
C175 O202 1.289 1_655 S
O176 C175 1.235 . S
C177 C179 1.400 . S
C177 N180 1.351 . S
C177 C182 1.501 . S
C178 C179 1.387 . S
C178 N181 1.341 . S
C179 C177 1.400 . S
C179 C178 1.387 . S
N180 Co171 2.022 . S
N180 C177 1.351 . S
N180 N181 1.365 . S
N181 C178 1.341 . S
N181 N180 1.365 . S
N181 H201 0.862 . S
C182 C177 1.501 . S
C182 H183 0.961 . S
C182 H184 0.961 . S
C182 H185 0.960 . S
H183 C182 0.961 . S
H184 C182 0.961 . S
H185 C182 0.960 . S
C186 N187 1.342 . S
C186 C190 1.401 . S
C186 C191 1.499 . S
N187 Co170 1.989 . S
N187 C186 1.342 . S
N187 N188 1.388 . S
N188 Co171 1.993 . S
N188 N187 1.388 . S
N188 C189 1.346 . S
C189 N188 1.346 . S
C189 C190 1.396 . S
C189 C199 1.510 . S
C190 C186 1.401 . S
C190 C189 1.396 . S
C191 C186 1.499 . S
C191 H192 0.959 . S
C191 H193 0.960 1_455 S
C191 H194 0.961 . S
H192 C191 0.959 . S
H193 C191 0.960 1_655 S
H194 C191 0.961 . S
O195 Co170 1.967 . S
O195 C203 1.258 . S
O196 Co171 1.941 . S
O196 C203 1.266 . S
H197 C199 0.959 . S
H198 C199 0.961 . S
C199 C189 1.510 . S
C199 H197 0.959 . S
C199 H198 0.961 . S
C199 H200 0.960 . S
H200 C199 0.960 . S
H201 N181 0.862 . S
O202 Co170 1.920 . S
O202 C175 1.289 1_455 S
C203 O195 1.258 . S
C203 O196 1.266 . S
Co204 O207 1.970 . S
Co204 N221 1.989 . S
Co204 O229 1.967 . S
Co204 O236 1.920 . S
Co205 O208 1.966 . S
Co205 N214 2.022 . S
Co205 N222 1.993 . S
Co205 O230 1.941 . S
C206 O207 1.258 . S
C206 O208 1.263 . S
O207 Co204 1.970 . S
O207 C206 1.258 . S
O208 Co205 1.966 . S
O208 C206 1.263 . S
C209 O210 1.235 . S
C209 O236 1.289 1_545 S
O210 C209 1.235 . S
C211 C213 1.400 . S
C211 N214 1.351 . S
C211 C216 1.501 . S
C212 C213 1.387 . S
C212 N215 1.341 . S
C213 C211 1.400 . S
C213 C212 1.387 . S
N214 Co205 2.022 . S
N214 C211 1.351 . S
N214 N215 1.365 . S
N215 C212 1.341 . S
N215 N214 1.365 . S
N215 H235 0.862 . S
C216 C211 1.501 . S
C216 H217 0.961 . S
C216 H218 0.961 . S
C216 H219 0.960 . S
H217 C216 0.961 . S
H218 C216 0.961 . S
H219 C216 0.960 . S
C220 N221 1.342 . S
C220 C224 1.401 . S
C220 C225 1.499 . S
N221 Co204 1.989 . S
N221 C220 1.342 . S
N221 N222 1.388 . S
N222 Co205 1.993 . S
N222 N221 1.388 . S
N222 C223 1.346 . S
C223 N222 1.346 . S
C223 C224 1.396 . S
C223 C233 1.510 . S
C224 C220 1.401 . S
C224 C223 1.396 . S
C225 C220 1.499 . S
C225 H226 0.959 . S
C225 H227 0.960 1_565 S
C225 H228 0.961 . S
H226 C225 0.959 . S
H227 C225 0.960 1_545 S
H228 C225 0.961 . S
O229 Co204 1.967 . S
O229 C237 1.258 . S
O230 Co205 1.941 . S
O230 C237 1.266 . S
H231 C233 0.959 . S
H232 C233 0.961 . S
C233 C223 1.510 . S
C233 H231 0.959 . S
C233 H232 0.961 . S
C233 H234 0.960 . S
H234 C233 0.960 . S
H235 N215 0.862 . S
O236 Co204 1.920 . S
O236 C209 1.289 1_565 S
C237 O229 1.258 . S
C237 O230 1.266 . S
Co238 O241 1.970 . S
Co238 N255 1.989 . S
Co238 O263 1.967 . S
Co238 O270 1.920 . S
Co239 O242 1.966 . S
Co239 N248 2.022 . S
Co239 N256 1.993 . S
Co239 O264 1.941 . S
C240 O241 1.258 . S
C240 O242 1.263 . S
O241 Co238 1.970 . S
O241 C240 1.258 . S
O242 Co239 1.966 . S
O242 C240 1.263 . S
C243 O244 1.235 . S
C243 O270 1.289 1_455 S
O244 C243 1.235 . S
C245 C247 1.400 . S
C245 N248 1.351 . S
C245 C250 1.501 . S
C246 C247 1.387 . S
C246 N249 1.341 . S
C247 C245 1.400 . S
C247 C246 1.387 . S
N248 Co239 2.022 . S
N248 C245 1.351 . S
N248 N249 1.365 . S
N249 C246 1.341 . S
N249 N248 1.365 . S
N249 H269 0.862 . S
C250 C245 1.501 . S
C250 H251 0.961 . S
C250 H252 0.961 . S
C250 H253 0.960 . S
H251 C250 0.961 . S
H252 C250 0.961 . S
H253 C250 0.960 . S
C254 N255 1.342 . S
C254 C258 1.401 . S
C254 C259 1.499 . S
N255 Co238 1.989 . S
N255 C254 1.342 . S
N255 N256 1.388 . S
N256 Co239 1.993 . S
N256 N255 1.388 . S
N256 C257 1.346 . S
C257 N256 1.346 . S
C257 C258 1.396 . S
C257 C267 1.510 . S
C258 C254 1.401 . S
C258 C257 1.396 . S
C259 C254 1.499 . S
C259 H260 0.959 . S
C259 H261 0.960 1_655 S
C259 H262 0.961 . S
H260 C259 0.959 . S
H261 C259 0.960 1_455 S
H262 C259 0.961 . S
O263 Co238 1.967 . S
O263 C271 1.258 . S
O264 Co239 1.941 . S
O264 C271 1.266 . S
H265 C267 0.959 . S
H266 C267 0.961 . S
C267 C257 1.510 . S
C267 H265 0.959 . S
C267 H266 0.961 . S
C267 H268 0.960 . S
H268 C267 0.960 . S
H269 N249 0.862 . S
O270 Co238 1.920 . S
O270 C243 1.289 1_655 S
C271 O263 1.258 . S
C271 O264 1.266 . S
C272 C273 1.363 . S
C272 C278 1.379 . S
C272 N280 1.356 . S
C273 C272 1.363 . S
C273 C279 1.363 . S
C274 C275 1.363 . S
C274 C279 1.379 . S
C274 N281 1.356 . S
C275 C274 1.363 . S
C275 C278 1.363 . S
N276 C278 1.356 . S
N276 H288 0.984 . S
N276 H289 0.985 . S
N277 C279 1.356 . S
N277 H282 0.984 . S
N277 H283 0.985 . S
C278 C272 1.379 . S
C278 C275 1.363 . S
C278 N276 1.356 . S
C279 C273 1.363 . S
C279 C274 1.379 . S
C279 N277 1.356 . S
N280 C272 1.356 . S
N280 H286 0.984 . S
N280 H287 0.984 . S
N281 C274 1.356 . S
N281 H284 0.984 . S
N281 H285 0.985 . S
H282 N277 0.984 . S
H283 N277 0.985 . S
H284 N281 0.984 . S
H285 N281 0.985 . S
H286 N280 0.984 . S
H287 N280 0.984 . S
H288 N276 0.984 . S
H289 N276 0.985 . S
C290 C291 1.363 . S
C290 C296 1.379 . S
C290 N298 1.356 . S
C291 C290 1.363 . S
C291 C297 1.363 . S
C292 C293 1.363 . S
C292 C297 1.379 . S
C292 N299 1.356 . S
C293 C292 1.363 . S
C293 C296 1.363 . S
N294 C296 1.356 . S
N294 H306 0.984 . S
N294 H307 0.985 . S
N295 C297 1.356 . S
N295 H300 0.984 . S
N295 H301 0.985 . S
C296 C290 1.379 . S
C296 C293 1.363 . S
C296 N294 1.356 . S
C297 C291 1.363 . S
C297 C292 1.379 . S
C297 N295 1.356 . S
N298 C290 1.356 . S
N298 H304 0.984 . S
N298 H305 0.984 . S
N299 C292 1.356 . S
N299 H302 0.984 1_655 S
N299 H303 0.985 . S
H300 N295 0.984 . S
H301 N295 0.985 . S
H302 N299 0.984 1_455 S
H303 N299 0.985 . S
H304 N298 0.984 . S
H305 N298 0.984 . S
H306 N294 0.984 . S
H307 N294 0.985 . S
C308 C309 1.363 . S
C308 C314 1.379 . S
C308 N316 1.356 . S
C309 C308 1.363 . S
C309 C315 1.363 . S
C310 C311 1.363 . S
C310 C315 1.379 . S
C310 N317 1.356 . S
C311 C310 1.363 . S
C311 C314 1.363 . S
N312 C314 1.356 . S
N312 H324 0.984 . S
N312 H325 0.985 . S
N313 C315 1.356 1_565 S
N313 H318 0.984 . S
N313 H319 0.985 . S
C314 C308 1.379 . S
C314 C311 1.363 . S
C314 N312 1.356 . S
C315 C309 1.363 . S
C315 C310 1.379 . S
C315 N313 1.356 1_545 S
N316 C308 1.356 . S
N316 H322 0.984 . S
N316 H323 0.984 . S
N317 C310 1.356 . S
N317 H320 0.984 . S
N317 H321 0.985 . S
H318 N313 0.984 . S
H319 N313 0.985 . S
H320 N317 0.984 . S
H321 N317 0.985 . S
H322 N316 0.984 . S
H323 N316 0.984 . S
H324 N312 0.984 . S
H325 N312 0.985 . S
C326 C327 1.363 . S
C326 C332 1.379 . S
C326 N334 1.356 . S
C327 C326 1.363 . S
C327 C333 1.363 . S
C328 C329 1.363 . S
C328 C333 1.379 . S
C328 N335 1.356 . S
C329 C328 1.363 . S
C329 C332 1.363 . S
N330 C332 1.356 1_655 S
N330 H342 0.984 . S
N330 H343 0.985 . S
N331 C333 1.356 . S
N331 H336 0.984 . S
N331 H337 0.985 . S
C332 C326 1.379 . S
C332 C329 1.363 . S
C332 N330 1.356 1_455 S
C333 C327 1.363 . S
C333 C328 1.379 . S
C333 N331 1.356 . S
N334 C326 1.356 . S
N334 H340 0.984 . S
N334 H341 0.984 . S
N335 C328 1.356 . S
N335 H338 0.984 . S
N335 H339 0.985 . S
H336 N331 0.984 . S
H337 N331 0.985 . S
H338 N335 0.984 . S
H339 N335 0.985 . S
H340 N334 0.984 . S
H341 N334 0.984 . S
H342 N330 0.984 . S
H343 N330 0.985 . S
C344 C345 1.363 . S
C344 C350 1.379 . S
C344 N352 1.356 . S
C345 C344 1.363 . S
C345 C351 1.363 . S
C346 C347 1.363 . S
C346 C351 1.379 1_554 S
C346 N353 1.356 . S
C347 C346 1.363 . S
C347 C350 1.363 1_554 S
N348 C350 1.356 1_545 S
N348 H360 0.984 . S
N348 H361 0.985 . S
N349 C351 1.356 . S
N349 H354 0.984 . S
N349 H355 0.985 . S
C350 C344 1.379 . S
C350 C347 1.363 1_556 S
C350 N348 1.356 1_565 S
C351 C345 1.363 . S
C351 C346 1.379 1_556 S
C351 N349 1.356 . S
N352 C344 1.356 . S
N352 H358 0.984 . S
N352 H359 0.984 . S
N353 C346 1.356 . S
N353 H356 0.984 . S
N353 H357 0.985 . S
H354 N349 0.984 . S
H355 N349 0.985 . S
H356 N353 0.984 . S
H357 N353 0.985 . S
H358 N352 0.984 . S
H359 N352 0.984 . S
H360 N348 0.984 . S
H361 N348 0.985 . S
C362 C363 1.363 . S
C362 C368 1.379 . S
C362 N370 1.356 . S
C363 C362 1.363 . S
C363 C369 1.363 . S
C364 C365 1.363 1_554 S
C364 C369 1.379 . S
C364 N371 1.356 1_554 S
C365 C364 1.363 1_556 S
C365 C368 1.363 1_556 S
N366 C368 1.356 1_556 S
N366 H378 0.987 . S
N366 H379 0.985 . S
N367 C369 1.356 . S
N367 H372 0.984 . S
N367 H373 0.985 . S
C368 C362 1.379 . S
C368 C365 1.363 1_554 S
C368 N366 1.356 1_554 S
C369 C363 1.363 . S
C369 C364 1.379 . S
C369 N367 1.356 . S
N370 C362 1.356 . S
N370 H376 0.984 . S
N370 H377 0.984 . S
N371 C364 1.356 1_556 S
N371 H374 0.984 . S
N371 H375 0.985 . S
H372 N367 0.984 . S
H373 N367 0.985 . S
H374 N371 0.984 . S
H375 N371 0.985 . S
H376 N370 0.984 . S
H377 N370 0.984 . S
H378 N366 0.987 . S
H379 N366 0.985 . S
C380 C381 1.363 . S
C380 C386 1.379 1_556 S
C380 N388 1.356 . S
C381 C380 1.363 . S
C381 C387 1.363 . S
C382 C383 1.363 1_556 S
C382 C387 1.379 . S
C382 N389 1.356 1_545 S
C383 C382 1.363 1_554 S
C383 C386 1.363 . S
N384 C386 1.356 . S
N384 H396 0.984 . S
N384 H397 0.985 . S
N385 C387 1.356 . S
N385 H390 0.984 . S
N385 H391 0.985 . S
C386 C380 1.379 1_554 S
C386 C383 1.363 . S
C386 N384 1.356 . S
C387 C381 1.363 . S
C387 C382 1.379 . S
C387 N385 1.356 . S
N388 C380 1.356 . S
N388 H394 0.984 1_556 S
N388 H395 0.984 . S
N389 C382 1.356 1_565 S
N389 H392 0.984 . S
N389 H393 0.985 . S
H390 N385 0.984 . S
H391 N385 0.985 . S
H392 N389 0.984 . S
H393 N389 0.985 . S
H394 N388 0.984 1_554 S
H395 N388 0.984 . S
H396 N384 0.984 . S
H397 N384 0.985 . S
C398 C399 1.363 1_554 S
C398 C404 1.379 . S
C398 N406 1.356 1_554 S
C399 C398 1.363 1_556 S
C399 C405 1.363 1_556 S
C400 C401 1.363 . S
C400 C405 1.379 . S
C400 N407 1.356 . S
C401 C400 1.363 . S
C401 C404 1.363 . S
N402 C404 1.356 . S
N402 H414 0.984 . S
N402 H415 0.985 . S
N403 C405 1.356 . S
N403 H408 0.984 1_554 S
N403 H409 0.985 . S
C404 C398 1.379 . S
C404 C401 1.363 . S
C404 N402 1.356 . S
C405 C399 1.363 1_554 S
C405 C400 1.379 . S
C405 N403 1.356 . S
N406 C398 1.356 1_556 S
N406 H412 0.984 . S
N406 H413 0.984 . S
N407 C400 1.356 . S
N407 H410 0.984 . S
N407 H411 0.985 . S
H408 N403 0.984 1_556 S
H409 N403 0.985 . S
H410 N407 0.984 . S
H411 N407 0.985 . S
H412 N406 0.984 . S
H413 N406 0.984 . S
H414 N402 0.984 . S
H415 N402 0.985 . S
C416 C417 1.363 . S
C416 C422 1.379 . S
C416 N424 1.356 . S
C417 C416 1.363 . S
C417 C423 1.363 1_565 S
C418 C419 1.363 . S
C418 C423 1.379 . S
C418 N425 1.356 . S
C419 C418 1.363 . S
C419 C422 1.363 1_545 S
N420 C422 1.356 1_545 S
N420 H432 0.984 1_545 S
N420 H433 0.985 . S
N421 C423 1.356 1_565 S
N421 H426 0.984 . S
N421 H427 0.985 1_565 S
C422 C416 1.379 . S
C422 C419 1.363 1_565 S
C422 N420 1.356 1_565 S
C423 C417 1.363 1_545 S
C423 C418 1.379 . S
C423 N421 1.356 1_545 S
N424 C416 1.356 . S
N424 H430 0.984 . S
N424 H431 0.984 . S
N425 C418 1.356 . S
N425 H428 0.984 . S
N425 H429 0.985 . S
H426 N421 0.984 . S
H427 N421 0.985 1_545 S
H428 N425 0.984 . S
H429 N425 0.985 . S
H430 N424 0.984 . S
H431 N424 0.984 . S
H432 N420 0.984 1_565 S
H433 N420 0.985 . S
C434 C435 1.363 . S
C434 C440 1.379 . S
C434 N442 1.356 . S
C435 C434 1.363 . S
C435 C441 1.363 1_455 S
C436 C437 1.363 . S
C436 C441 1.379 . S
C436 N443 1.356 . S
C437 C436 1.363 . S
C437 C440 1.363 1_655 S
N438 C440 1.356 1_655 S
N438 H450 0.984 1_655 S
N438 H451 0.985 . S
N439 C441 1.356 1_455 S
N439 H444 0.984 . S
N439 H445 0.985 1_455 S
C440 C434 1.379 . S
C440 C437 1.363 1_455 S
C440 N438 1.356 1_455 S
C441 C435 1.363 1_655 S
C441 C436 1.379 . S
C441 N439 1.356 1_655 S
N442 C434 1.356 . S
N442 H448 0.984 . S
N442 H449 0.984 . S
N443 C436 1.356 . S
N443 H446 0.984 . S
N443 H447 0.985 . S
H444 N439 0.984 . S
H445 N439 0.985 1_655 S
H446 N443 0.984 . S
H447 N443 0.985 . S
H448 N442 0.984 . S
H449 N442 0.984 . S
H450 N438 0.984 1_455 S
H451 N438 0.985 . S
C452 C453 1.363 1_565 S
C452 C458 1.379 . S
C452 N460 1.356 1_565 S
C453 C452 1.363 1_545 S
C453 C459 1.363 . S
C454 C455 1.363 1_545 S
C454 C459 1.379 . S
C454 N461 1.356 1_545 S
C455 C454 1.363 1_565 S
C455 C458 1.363 . S
N456 C458 1.356 . S
N456 H468 0.984 . S
N456 H469 0.985 . S
N457 C459 1.356 . S
N457 H462 0.984 . S
N457 H463 0.985 . S
C458 C452 1.379 . S
C458 C455 1.363 . S
C458 N456 1.356 . S
C459 C453 1.363 . S
C459 C454 1.379 . S
C459 N457 1.356 . S
N460 C452 1.356 1_545 S
N460 H466 0.984 1_545 S
N460 H467 0.984 . S
N461 C454 1.356 1_565 S
N461 H464 0.984 . S
N461 H465 0.985 1_565 S
H462 N457 0.984 . S
H463 N457 0.985 . S
H464 N461 0.984 . S
H465 N461 0.985 1_545 S
H466 N460 0.984 1_565 S
H467 N460 0.984 . S
H468 N456 0.984 . S
H469 N456 0.985 . S
C470 C471 1.363 . S
C470 C476 1.379 . S
C470 N478 1.356 . S
C471 C470 1.363 . S
C471 C477 1.363 1_455 S
C472 C473 1.363 . S
C472 C477 1.379 . S
C472 N479 1.356 . S
C473 C472 1.363 . S
C473 C476 1.363 1_655 S
N474 C476 1.356 1_655 S
N474 H486 0.984 1_655 S
N474 H487 0.985 . S
N475 C477 1.356 1_455 S
N475 H480 0.984 . S
N475 H481 0.985 1_455 S
C476 C470 1.379 . S
C476 C473 1.363 1_455 S
C476 N474 1.356 1_455 S
C477 C471 1.363 1_655 S
C477 C472 1.379 . S
C477 N475 1.356 1_655 S
N478 C470 1.356 . S
N478 H484 0.984 . S
N478 H485 0.984 . S
N479 C472 1.356 . S
N479 H482 0.984 . S
N479 H483 0.985 . S
H480 N475 0.984 . S
H481 N475 0.985 1_655 S
H482 N479 0.984 . S
H483 N479 0.985 . S
H484 N478 0.984 . S
H485 N478 0.984 . S
H486 N474 0.984 1_455 S
H487 N474 0.985 . S
C488 C489 1.363 1_565 S
C488 C494 1.379 1_455 S
C488 N496 1.356 . S
C489 C488 1.363 1_545 S
C489 C495 1.363 . S
C490 C491 1.363 1_545 S
C490 C495 1.379 1_655 S
C490 N497 1.356 . S
C491 C490 1.363 1_565 S
C491 C494 1.363 . S
N492 C494 1.356 . S
N492 H504 0.984 . S
N492 H505 0.985 . S
N493 C495 1.356 . S
N493 H498 0.984 . S
N493 H499 0.985 . S
C494 C488 1.379 1_655 S
C494 C491 1.363 . S
C494 N492 1.356 . S
C495 C489 1.363 . S
C495 C490 1.379 1_455 S
C495 N493 1.356 . S
N496 C488 1.356 . S
N496 H502 0.984 . S
N496 H503 0.984 1_565 S
N497 C490 1.356 . S
N497 H500 0.984 1_545 S
N497 H501 0.985 . S
H498 N493 0.984 . S
H499 N493 0.985 . S
H500 N497 0.984 1_565 S
H501 N497 0.985 . S
H502 N496 0.984 . S
H503 N496 0.984 1_545 S
H504 N492 0.984 . S
H505 N492 0.985 . S
C506 C507 1.363 1_655 S
C506 C512 1.379 1_565 S
C506 N514 1.356 . S
C507 C506 1.363 1_455 S
C507 C513 1.363 . S
C508 C509 1.363 1_455 S
C508 C513 1.379 1_545 S
C508 N515 1.356 . S
C509 C508 1.363 1_655 S
C509 C512 1.363 . S
N510 C512 1.356 . S
N510 H522 0.984 . S
N510 H523 0.985 . S
N511 C513 1.356 . S
N511 H516 0.984 . S
N511 H517 0.985 . S
C512 C506 1.379 1_545 S
C512 C509 1.363 . S
C512 N510 1.356 . S
C513 C507 1.363 . S
C513 C508 1.379 1_565 S
C513 N511 1.356 . S
N514 C506 1.356 . S
N514 H520 0.984 . S
N514 H521 0.984 1_655 S
N515 C508 1.356 . S
N515 H518 0.984 1_455 S
N515 H519 0.985 . S
H516 N511 0.984 . S
H517 N511 0.985 . S
H518 N515 0.984 1_655 S
H519 N515 0.985 . S
H520 N514 0.984 . S
H521 N514 0.984 1_455 S
H522 N510 0.984 . S
H523 N510 0.985 . S
C524 C525 1.363 1_545 S
C524 C530 1.379 1_455 S
C524 N532 1.356 . S
C525 C524 1.363 1_565 S
C525 C531 1.363 . S
C526 C527 1.363 1_565 S
C526 C531 1.379 1_655 S
C526 N533 1.356 . S
C527 C526 1.363 1_545 S
C527 C530 1.363 . S
N528 C530 1.356 . S
N528 H540 0.984 . S
N528 H541 0.985 . S
N529 C531 1.356 . S
N529 H534 0.984 . S
N529 H535 0.985 . S
C530 C524 1.379 1_655 S
C530 C527 1.363 . S
C530 N528 1.356 . S
C531 C525 1.363 . S
C531 C526 1.379 1_455 S
C531 N529 1.356 . S
N532 C524 1.356 . S
N532 H538 0.984 . S
N532 H539 0.984 1_545 S
N533 C526 1.356 . S
N533 H536 0.984 1_565 S
N533 H537 0.985 . S
H534 N529 0.984 . S
H535 N529 0.985 . S
H536 N533 0.984 1_545 S
H537 N533 0.985 . S
H538 N532 0.984 . S
H539 N532 0.984 1_565 S
H540 N528 0.984 . S
H541 N528 0.985 . S
C542 C543 1.363 . S
C542 C548 1.379 1_565 S
C542 N550 1.356 . S
C543 C542 1.363 . S
C543 C549 1.363 1_655 S
C544 C545 1.363 . S
C544 C549 1.379 1_545 S
C544 N551 1.356 . S
C545 C544 1.363 . S
C545 C548 1.363 1_455 S
N546 C548 1.356 . S
N546 H558 0.984 . S
N546 H559 0.985 1_655 S
N547 C549 1.356 . S
N547 H552 0.984 1_455 S
N547 H553 0.985 . S
C548 C542 1.379 1_545 S
C548 C545 1.363 1_655 S
C548 N546 1.356 . S
C549 C543 1.363 1_455 S
C549 C544 1.379 1_565 S
C549 N547 1.356 . S
N550 C542 1.356 . S
N550 H556 0.984 . S
N550 H557 0.984 . S
N551 C544 1.356 . S
N551 H554 0.984 . S
N551 H555 0.985 . S
H552 N547 0.984 1_655 S
H553 N547 0.985 . S
H554 N551 0.984 . S
H555 N551 0.985 . S
H556 N550 0.984 . S
H557 N550 0.984 . S
H558 N546 0.984 . S
H559 N546 0.985 1_455 S
C560 C561 1.363 . S
C560 C566 1.379 . S
C560 N568 1.356 . S
C561 C560 1.363 . S
C561 C567 1.363 . S
C562 C563 1.363 . S
C562 C567 1.379 . S
C562 N569 1.356 . S
C563 C562 1.363 . S
C563 C566 1.363 . S
N564 C566 1.356 . S
N564 H576 0.984 . S
N564 H577 0.985 . S
N565 C567 1.356 . S
N565 H570 0.984 . S
N565 H571 0.985 . S
C566 C560 1.379 . S
C566 C563 1.363 . S
C566 N564 1.356 . S
C567 C561 1.363 . S
C567 C562 1.379 . S
C567 N565 1.356 . S
N568 C560 1.356 . S
N568 H574 0.984 . S
N568 H575 0.984 . S
N569 C562 1.356 . S
N569 H572 0.984 . S
N569 H573 0.985 . S
H570 N565 0.984 . S
H571 N565 0.985 . S
H572 N569 0.984 . S
H573 N569 0.985 . S
H574 N568 0.984 . S
H575 N568 0.984 . S
H576 N564 0.984 . S
H577 N564 0.985 . S
C578 C579 1.363 . S
C578 C584 1.379 . S
C578 N586 1.356 . S
C579 C578 1.363 . S
C579 C585 1.363 . S
C580 C581 1.363 . S
C580 C585 1.379 . S
C580 N587 1.356 . S
C581 C580 1.363 . S
C581 C584 1.363 . S
N582 C584 1.356 . S
N582 H594 0.984 . S
N582 H595 0.985 . S
N583 C585 1.356 . S
N583 H588 0.984 . S
N583 H589 0.985 . S
C584 C578 1.379 . S
C584 C581 1.363 . S
C584 N582 1.356 . S
C585 C579 1.363 . S
C585 C580 1.379 . S
C585 N583 1.356 . S
N586 C578 1.356 . S
N586 H592 0.984 . S
N586 H593 0.984 . S
N587 C580 1.356 . S
N587 H590 0.984 . S
N587 H591 0.985 . S
H588 N583 0.984 . S
H589 N583 0.985 . S
H590 N587 0.984 . S
H591 N587 0.985 . S
H592 N586 0.984 . S
H593 N586 0.984 . S
H594 N582 0.984 . S
H595 N582 0.985 . S
C596 C597 1.363 . S
C596 C602 1.379 . S
C596 N604 1.356 . S
C597 C596 1.363 . S
C597 C603 1.363 . S
C598 C599 1.363 . S
C598 C603 1.379 . S
C598 N605 1.356 . S
C599 C598 1.363 . S
C599 C602 1.363 . S
N600 C602 1.356 . S
N600 H612 0.984 . S
N600 H613 0.985 . S
N601 C603 1.356 . S
N601 H606 0.984 . S
N601 H607 0.985 . S
C602 C596 1.379 . S
C602 C599 1.363 . S
C602 N600 1.356 . S
C603 C597 1.363 . S
C603 C598 1.379 . S
C603 N601 1.356 . S
N604 C596 1.356 . S
N604 H610 0.984 . S
N604 H611 0.984 . S
N605 C598 1.356 . S
N605 H608 0.984 . S
N605 H609 0.985 . S
H606 N601 0.984 . S
H607 N601 0.985 . S
H608 N605 0.984 . S
H609 N605 0.985 . S
H610 N604 0.984 . S
H611 N604 0.984 . S
H612 N600 0.984 . S
H613 N600 0.985 . S
C614 C615 1.363 . S
C614 C620 1.379 . S
C614 N622 1.356 . S
C615 C614 1.363 . S
C615 C621 1.363 . S
C616 C617 1.363 . S
C616 C621 1.379 . S
C616 N623 1.356 . S
C617 C616 1.363 . S
C617 C620 1.363 . S
N618 C620 1.356 . S
N618 H630 0.984 . S
N618 H631 0.985 . S
N619 C621 1.356 . S
N619 H624 0.984 . S
N619 H625 0.985 . S
C620 C614 1.379 . S
C620 C617 1.363 . S
C620 N618 1.356 . S
C621 C615 1.363 . S
C621 C616 1.379 . S
C621 N619 1.356 . S
N622 C614 1.356 . S
N622 H628 0.984 . S
N622 H629 0.984 . S
N623 C616 1.356 . S
N623 H626 0.984 . S
N623 H627 0.985 . S
H624 N619 0.984 . S
H625 N619 0.985 . S
H626 N623 0.984 . S
H627 N623 0.985 . S
H628 N622 0.984 . S
H629 N622 0.984 . S
H630 N618 0.984 . S
H631 N618 0.985 . S
C273 C5 1.122 . S
C275 C67 1.062 . S
C291 C101 1.062 . S
C293 C39 1.122 . S
C309 C73 1.122 . S
C311 C135 1.062 . S
C327 C33 1.062 . S
C329 C107 1.122 . S
C345 C271 1.062 . S
C347 C141 1.122 . S
C363 C169 1.062 . S
C365 C175 1.122 . S
C381 C203 1.062 . S
C383 C209 1.122 . S
C399 C243 1.122 . S
C401 C237 1.062 . S
C417 C88 1.619 . S
C419 C20 1.619 . S
C435 C54 1.619 . S
C437 C122 1.619 . S
C453 C156 1.619 . S
C455 C224 1.619 . S
C471 C190 1.619 . S
C473 C258 1.619 . S
C489 C2 1.362 . S
C491 C70 1.362 . S
C507 C36 1.362 . S
C509 C104 1.362 . S
C525 C206 1.362 . S
C527 C138 1.362 . S
C543 C240 1.362 . S
C545 C172 1.362 . S
C561 C9 1.768 . S
C563 C179 1.768 . S
C579 C213 1.768 . S
C581 C43 1.768 . S
C597 C247 1.768 . S
C599 C77 1.768 . S
C615 C111 1.768 . S
C617 C145 1.768 . S
