# Generated by pormake.
# Topology upc, (4)-cn, num edge types: 1
# Building blocks:
#     Node 0, Type 0, BuildingBlock: MUDLON_clean_sbu_0, # of connection points: 4
#     Node 1, Type 0, BuildingBlock: MUDLON_clean_sbu_0, # of connection points: 4
#     Node 2, Type 0, BuildingBlock: MUDLON_clean_sbu_0, # of connection points: 4
#     Node 3, Type 0, BuildingBlock: MUDLON_clean_sbu_0, # of connection points: 4
#     Node 4, Type 0, BuildingBlock: MUDLON_clean_sbu_0, # of connection points: 4
#     Node 5, Type 0, BuildingBlock: MUDLON_clean_sbu_0, # of connection points: 4
#     Node 6, Type 0, BuildingBlock: MUDLON_clean_sbu_0, # of connection points: 4
#     Node 7, Type 0, BuildingBlock: MUDLON_clean_sbu_0, # of connection points: 4
#     Node 8, Type 0, BuildingBlock: MUDLON_clean_sbu_0, # of connection points: 4
#     Node 9, Type 0, BuildingBlock: MUDLON_clean_sbu_0, # of connection points: 4
#     Node 10, Type 0, BuildingBlock: MUDLON_clean_sbu_0, # of connection points: 4
#     Node 11, Type 0, BuildingBlock: MUDLON_clean_sbu_0, # of connection points: 4
#     Node 12, Type 0, BuildingBlock: MUDLON_clean_sbu_0, # of connection points: 4
#     Node 13, Type 0, BuildingBlock: MUDLON_clean_sbu_0, # of connection points: 4
#     Node 14, Type 0, BuildingBlock: MUDLON_clean_sbu_0, # of connection points: 4
#     Node 15, Type 0, BuildingBlock: MUDLON_clean_sbu_0, # of connection points: 4
#     Edge 16, Type (0, 0), BuildingBlock: EZIPEK_clean_linker_0, # of connection points: 2
#     Edge 17, Type (0, 0), BuildingBlock: EZIPEK_clean_linker_0, # of connection points: 2
#     Edge 18, Type (0, 0), BuildingBlock: EZIPEK_clean_linker_0, # of connection points: 2
#     Edge 19, Type (0, 0), BuildingBlock: EZIPEK_clean_linker_0, # of connection points: 2
#     Edge 20, Type (0, 0), BuildingBlock: EZIPEK_clean_linker_0, # of connection points: 2
#     Edge 21, Type (0, 0), BuildingBlock: EZIPEK_clean_linker_0, # of connection points: 2
#     Edge 22, Type (0, 0), BuildingBlock: EZIPEK_clean_linker_0, # of connection points: 2
#     Edge 23, Type (0, 0), BuildingBlock: EZIPEK_clean_linker_0, # of connection points: 2
#     Edge 24, Type (0, 0), BuildingBlock: EZIPEK_clean_linker_0, # of connection points: 2
#     Edge 25, Type (0, 0), BuildingBlock: EZIPEK_clean_linker_0, # of connection points: 2
#     Edge 26, Type (0, 0), BuildingBlock: EZIPEK_clean_linker_0, # of connection points: 2
#     Edge 27, Type (0, 0), BuildingBlock: EZIPEK_clean_linker_0, # of connection points: 2
#     Edge 28, Type (0, 0), BuildingBlock: EZIPEK_clean_linker_0, # of connection points: 2
#     Edge 29, Type (0, 0), BuildingBlock: EZIPEK_clean_linker_0, # of connection points: 2
#     Edge 30, Type (0, 0), BuildingBlock: EZIPEK_clean_linker_0, # of connection points: 2
#     Edge 31, Type (0, 0), BuildingBlock: EZIPEK_clean_linker_0, # of connection points: 2
#     Edge 32, Type (0, 0), BuildingBlock: EZIPEK_clean_linker_0, # of connection points: 2
#     Edge 33, Type (0, 0), BuildingBlock: EZIPEK_clean_linker_0, # of connection points: 2
#     Edge 34, Type (0, 0), BuildingBlock: EZIPEK_clean_linker_0, # of connection points: 2
#     Edge 35, Type (0, 0), BuildingBlock: EZIPEK_clean_linker_0, # of connection points: 2
#     Edge 36, Type (0, 0), BuildingBlock: EZIPEK_clean_linker_0, # of connection points: 2
#     Edge 37, Type (0, 0), BuildingBlock: EZIPEK_clean_linker_0, # of connection points: 2
#     Edge 38, Type (0, 0), BuildingBlock: EZIPEK_clean_linker_0, # of connection points: 2
#     Edge 39, Type (0, 0), BuildingBlock: EZIPEK_clean_linker_0, # of connection points: 2
#     Edge 40, Type (0, 0), BuildingBlock: EZIPEK_clean_linker_0, # of connection points: 2
#     Edge 41, Type (0, 0), BuildingBlock: EZIPEK_clean_linker_0, # of connection points: 2
#     Edge 42, Type (0, 0), BuildingBlock: EZIPEK_clean_linker_0, # of connection points: 2
#     Edge 43, Type (0, 0), BuildingBlock: EZIPEK_clean_linker_0, # of connection points: 2
#     Edge 44, Type (0, 0), BuildingBlock: EZIPEK_clean_linker_0, # of connection points: 2
#     Edge 45, Type (0, 0), BuildingBlock: EZIPEK_clean_linker_0, # of connection points: 2
#     Edge 46, Type (0, 0), BuildingBlock: EZIPEK_clean_linker_0, # of connection points: 2
#     Edge 47, Type (0, 0), BuildingBlock: EZIPEK_clean_linker_0, # of connection points: 2
# Relax obj value: 0.269
# Max RMSD: 0.207
# Mean RMSD: 0.207
data_MOF--net-upc--node1-MUDLON_clean_sbu_0--edge1-EZIPEK_clean_linker_0
_symmetry_space_group_name_H-M    P1
_symmetry_Int_Tables_number       1
_symmetry_cell_setting            triclinic
loop_
_symmetry_equiv_pos_as_xyz
'x, y, z'
_cell_length_a     26.934845
_cell_length_b     26.784452
_cell_length_c     32.30308
_cell_angle_alpha  90.238779
_cell_angle_beta   89.683184
_cell_angle_gamma 90.660848
loop_
_atom_site_label
_atom_site_type_symbol
_atom_site_fract_x
_atom_site_fract_y
_atom_site_fract_z
_atom_type_partial_charge
Mg0 Mg 0.06406 0.6916 0.12445 0.0
C1 C 0.04418 0.64371 0.20917 0.0
O2 O 0.06543 0.68409 0.22414 0.0
C3 C 0.15864 0.74089 0.09752 0.0
O4 O 0.13076 0.74941 0.06512 0.0
C5 C 0.06265 0.6069 0.06135 0.0
O6 O 0.08905 0.58708 0.09099 0.0
O7 O 0.04795 0.65186 0.06548 0.0
O8 O 0.0421 0.63725 0.17034 0.0
O9 O 0.02239 0.76172 0.13188 0.0
C10 C 0.00875 0.79329 0.15955 0.0
O11 O 0.98289 0.83179 0.14742 0.0
O12 O 0.14155 0.71435 0.12703 0.0
Mg13 Mg 0.87602 0.07968 0.13349 0.0
C14 C 0.94995 0.03989 0.18504 0.0
O15 O 0.92501 1.00215 0.16908 0.0
C16 C 0.81009 0.16257 0.1023 0.0
O17 O 0.78781 0.12507 0.08343 0.0
C18 C 0.91607 1.00111 0.06847 0.0
O19 O 0.88777 0.96791 0.08732 0.0
O20 O 0.91349 0.0469 0.07901 0.0
O21 O 0.93873 0.08395 0.17454 0.0
O22 O 0.82514 0.03935 0.17605 0.0
C23 C 0.78158 0.053 0.18652 0.0
O24 O 0.75867 0.08638 0.1643 0.0
O25 O 0.84904 0.1547 0.12322 0.0
Mg26 Mg 0.45838 0.86464 0.12886 0.0
C27 C 0.4895 0.9321 0.19405 0.0
O28 O 0.52732 0.90249 0.18751 0.0
C29 C 0.3493 0.83279 0.1311 0.0
O30 O 0.35345 0.8474 0.1698 0.0
C31 C 0.52433 0.93837 0.07753 0.0
O32 O 0.5339 0.95684 0.11429 0.0
O33 O 0.49829 0.89827 0.07458 0.0
O34 O 0.45029 0.92575 0.17281 0.0
O35 O 0.49091 0.80747 0.17049 0.0
C36 C 0.46506 0.77245 0.1871 0.0
O37 O 0.42026 0.76287 0.1733 0.0
O38 O 0.3863 0.83755 0.10678 0.0
Mg39 Mg 0.64264 0.43443 0.1385 0.0
C40 C 0.56523 0.46698 0.19128 0.0
O41 O 0.58489 0.50691 0.17404 0.0
C42 C 0.71424 0.35538 0.10652 0.0
O43 O 0.73356 0.39334 0.08618 0.0
C44 C 0.59545 0.50691 0.07346 0.0
O45 O 0.61738 0.54371 0.09351 0.0
O46 O 0.60417 0.4619 0.0834 0.0
O47 O 0.58083 0.42442 0.18028 0.0
O48 O 0.68864 0.48225 0.17915 0.0
C49 C 0.73225 0.47121 0.19081 0.0
O50 O 0.75652 0.43623 0.17103 0.0
O51 O 0.6761 0.3618 0.12916 0.0
Mg52 Mg 0.10052 0.87828 0.36958 0.0
C53 C 0.04829 0.93741 0.30941 0.0
O54 O 0.01319 0.92254 0.33508 0.0
C55 C 0.18697 0.81593 0.39697 0.0
O56 O 0.15066 0.79309 0.41684 0.0
C57 C 0.03953 0.93226 0.43989 0.0
O58 O 1.00342 0.90162 0.42905 0.0
O59 O 0.0817 0.92904 0.42189 0.0
O60 O 0.09244 0.92341 0.31534 0.0
O61 O 0.05328 0.81076 0.36494 0.0
C62 C 0.03075 0.7832 0.33831 0.0
O63 O 1.00617 0.74396 0.3521 0.0
O64 O 0.17742 0.85421 0.37532 0.0
Mg65 Mg 0.64259 0.08438 0.37458 0.0
C66 C 0.55576 0.07008 0.31682 0.0
O67 O 0.53133 0.09046 0.3477 0.0
C68 C 0.72398 0.16313 0.3849 0.0
O69 O 0.74649 0.12476 0.40118 0.0
C70 C 0.57317 0.03952 0.44191 0.0
O71 O 0.59394 0.99785 0.4297 0.0
O72 O 0.58723 0.08084 0.42581 0.0
O73 O 0.6027 0.06691 0.31857 0.0
O74 O 0.6963 0.02414 0.38096 0.0
C75 C 0.7272 1.00464 0.35562 0.0
O76 O 0.75447 0.96751 0.36843 0.0
O77 O 0.68005 0.15746 0.37116 0.0
Mg78 Mg 0.4534 0.63632 0.38882 0.0
C79 C 0.48923 0.5663 0.32563 0.0
O80 O 0.53072 0.58363 0.34149 0.0
C81 C 0.37818 0.71915 0.40863 0.0
O82 O 0.41486 0.73839 0.43033 0.0
C83 C 0.49412 0.55959 0.45042 0.0
O84 O 0.52536 0.55206 0.41986 0.0
O85 O 0.46158 0.59362 0.44706 0.0
O86 O 0.4481 0.58171 0.33964 0.0
O87 O 0.51966 0.68338 0.37664 0.0
C88 C 0.5379 0.7087 0.3465 0.0
O89 O 0.58125 0.73072 0.35165 0.0
O90 O 0.3843 0.67804 0.38952 0.0
Mg91 Mg 0.87758 0.45322 0.37657 0.0
C92 C 0.93407 0.52287 0.32418 0.0
O93 O 0.9155 0.55246 0.35258 0.0
C94 C 0.81308 0.36153 0.38898 0.0
O95 O 0.79549 0.39059 0.41833 0.0
C96 C 0.9389 0.49626 0.44911 0.0
O97 O 0.92044 0.53809 0.43526 0.0
O98 O 0.92601 0.45511 0.43196 0.0
O99 O 0.92415 0.47647 0.32528 0.0
O100 O 0.81784 0.50795 0.3833 0.0
C101 C 0.78508 0.52573 0.35912 0.0
O102 O 0.75537 0.5603 0.37351 0.0
O103 O 0.8484 0.37764 0.36624 0.0
Mg104 Mg 0.97401 0.38591 0.87186 0.0
C105 C 0.05194 0.30612 0.83087 0.0
O106 O 0.09655 0.2873 0.83412 0.0
C107 C 0.01774 0.47174 0.9237 0.0
O108 O 0.03837 0.48137 0.88762 0.0
C109 C 0.9041 0.29515 0.87828 0.0
O110 O 0.94628 0.2712 0.87863 0.0
O111 O 0.90465 0.34265 0.87664 0.0
O112 O 0.03847 0.33862 0.85775 0.0
O113 O 0.96839 0.43892 0.82223 0.0
C114 C 0.94398 0.47915 0.82467 0.0
O115 O 0.91576 0.48802 0.85709 0.0
O116 O 0.98945 0.43327 0.92719 0.0
Mg117 Mg 0.11143 0.90241 0.86765 0.0
C118 C 0.19694 0.9325 0.80883 0.0
O119 O 0.21008 0.88613 0.81488 0.0
C120 C 0.07542 0.94351 0.95506 0.0
O121 O 0.12066 0.93636 0.96865 0.0
C122 C 0.18576 0.82714 0.89823 0.0
O123 O 0.21078 0.86789 0.9079 0.0
O124 O 0.14272 0.83063 0.88276 0.0
O125 O 0.16155 0.95071 0.83038 0.0
O126 O 0.05516 0.89025 0.82194 0.0
C127 C 0.03747 0.93262 0.81344 0.0
O128 O 0.05293 0.97187 0.83447 0.0
O129 O 0.06528 0.9343 0.91738 0.0
Mg130 Mg 0.62251 0.12838 0.86878 0.0
C131 C 0.55739 0.23457 0.85512 0.0
O132 O 0.52696 0.25993 0.87894 0.0
C133 C 0.56946 0.0744 0.94131 0.0
O134 O 0.53133 0.09835 0.9262 0.0
C135 C 0.71272 0.19382 0.8828 0.0
O136 O 0.67915 0.2178 0.90449 0.0
O137 O 0.70054 0.1535 0.86414 0.0
O138 O 0.57663 0.19611 0.87194 0.0
O139 O 0.59445 0.08654 0.81552 0.0
C140 C 0.56166 0.05235 0.82039 0.0
O141 O 0.55053 0.03704 0.85779 0.0
O142 O 0.61215 0.08134 0.92483 0.0
Mg143 Mg 0.36353 0.56188 0.89022 0.0
C144 C 0.27113 0.48741 0.87408 0.0
O145 O 0.24513 0.44844 0.88653 0.0
C146 C 0.43225 0.52193 0.95744 0.0
O147 O 0.41175 0.47921 0.94637 0.0
C148 C 0.28996 0.64051 0.91307 0.0
O149 O 0.27713 0.60626 0.94021 0.0
O150 O 0.32554 0.63234 0.88804 0.0
O151 O 0.30916 0.50065 0.89517 0.0
O152 O 0.40749 0.54911 0.83537 0.0
C153 C 0.4547 0.54851 0.83672 0.0
O154 O 0.47765 0.56167 0.87086 0.0
O155 O 0.41736 0.56213 0.94095 0.0
Mg156 Mg 0.92437 0.12272 0.63733 0.0
C157 C 0.95725 0.21755 0.68653 0.0
O158 O 0.91859 0.23747 0.66879 0.0
C159 C 0.99648 0.08055 0.56874 0.0
O160 O 0.0318 0.10208 0.59057 0.0
C161 C 0.83301 0.18602 0.61721 0.0
O162 O 0.86291 0.2084 0.59074 0.0
O163 O 0.84827 0.14906 0.63777 0.0
O164 O 0.97087 0.17387 0.67549 0.0
O165 O 0.9181 0.05808 0.6761 0.0
C166 C 0.95927 0.04088 0.6877 0.0
O167 O 1.00058 0.06175 0.67416 0.0
O168 O 0.95119 0.08764 0.57891 0.0
Mg169 Mg 0.34887 0.97069 0.63 0.0
C170 C 0.2701 0.04797 0.66854 0.0
O171 O 0.24807 0.09132 0.66587 0.0
C172 C 0.41874 0.01894 0.56818 0.0
O173 O 0.41376 0.05495 0.59555 0.0
C174 C 0.30788 0.86385 0.61353 0.0
O175 O 0.34533 0.85957 0.5876 0.0
O176 O 0.30185 0.90422 0.63359 0.0
O177 O 0.30143 0.03604 0.64035 0.0
O178 O 0.4069 0.96775 0.6762 0.0
C179 C 0.41268 1.00663 0.69819 0.0
O180 O 0.38182 0.0436 0.69334 0.0
O181 O 0.393 0.97895 0.57256 0.0
Mg182 Mg 0.56154 0.3494 0.65053 0.0
C183 C 0.50521 0.25298 0.68467 0.0
O184 O 0.47201 0.21728 0.67966 0.0
C185 C 0.51381 0.42393 0.58981 0.0
O186 O 0.47994 0.42632 0.6191 0.0
C187 C 0.6394 0.27524 0.63282 0.0
O188 O 0.59949 0.25247 0.61869 0.0
O189 O 0.63554 0.31858 0.64867 0.0
O190 O 0.51085 0.28518 0.65583 0.0
O191 O 0.54906 0.39655 0.70395 0.0
C192 C 0.55125 0.44397 0.70276 0.0
O193 O 0.56655 0.46644 0.66897 0.0
O194 O 0.5499 0.3939 0.5938 0.0
Mg195 Mg 0.13157 0.59298 0.64827 0.0
C196 C 0.18651 0.57615 0.72671 0.0
O197 O 0.1699 0.62185 0.73043 0.0
C198 C 0.07738 0.51966 0.58605 0.0
O199 O 0.07293 0.48921 0.61757 0.0
C200 C 0.17048 0.70199 0.651 0.0
O201 O 0.13934 0.70697 0.68213 0.0
O202 O 0.17301 0.66056 0.63178 0.0
O203 O 0.17807 0.55219 0.69307 0.0
O204 O 0.06424 0.60624 0.68381 0.0
C205 C 0.05004 0.56623 0.70152 0.0
O206 O 0.07672 0.52589 0.69679 0.0
O207 O 0.10261 0.56001 0.58994 0.0
C208 C 0.25157 0.7363 0.0989 0.0
C209 C 0.20802 0.76543 0.10124 0.0
C210 C 0.25785 0.83998 0.11839 0.0
C211 C 0.30152 0.81079 0.11648 0.0
N212 N 0.34153 0.73389 0.09666 0.0
N213 N 0.16956 0.84632 0.10507 0.0
C214 C 0.2989 0.75981 0.10396 0.0
C215 C 0.21116 0.81776 0.10833 0.0
N216 N 0.24752 0.68587 0.09258 0.0
N217 N 0.26104 0.88895 0.13044 0.0
H218 H 0.13431 0.83149 0.09938 0.0
H219 H 0.17006 0.88516 0.10519 0.0
H220 H 0.29477 0.90785 0.13435 0.0
H221 H 0.23047 0.91054 0.1382 0.0
H222 H 0.27686 0.66125 0.09571 0.0
H223 H 0.21386 0.66788 0.08615 0.0
H224 H 0.3423 0.69866 0.08298 0.0
H225 H 0.3769 0.74882 0.10123 0.0
C226 C 0.77485 0.23683 0.06566 0.0
C227 C 0.78661 0.21247 0.10325 0.0
C228 C 0.75469 0.28376 0.14273 0.0
C229 C 0.73873 0.30602 0.10532 0.0
N230 N 0.7255 0.29955 0.03166 0.0
N231 N 0.77855 0.20854 0.17783 0.0
C232 C 0.74667 0.28145 0.06685 0.0
C233 C 0.77415 0.2348 0.14186 0.0
N234 N 0.79207 0.21831 0.02887 0.0
N235 N 0.75313 0.30993 0.17913 0.0
H236 H 0.7929 0.17276 0.17926 0.0
H237 H 0.76368 0.22045 0.20596 0.0
H238 H 0.7385 0.34553 0.18175 0.0
H239 H 0.7703 0.2981 0.20614 0.0
H240 H 0.78921 0.23728 1.00093 0.0
H241 H 0.81333 0.1861 0.02678 0.0
H242 H 0.72543 0.28036 1.00355 0.0
H243 H 0.70385 0.33158 0.03137 0.0
C244 C 0.26252 0.77849 0.36282 0.0
C245 C 0.23819 0.79582 0.39921 0.0
C246 C 0.30426 0.76054 0.44187 0.0
C247 C 0.33018 0.74592 0.40541 0.0
N248 N 0.33799 0.74837 0.33086 0.0
N249 N 0.24106 0.81312 0.47245 0.0
C250 C 0.3104 0.75693 0.36579 0.0
C251 C 0.26066 0.78974 0.43847 0.0
N252 N 0.23916 0.78081 0.32545 0.0
N253 N 0.31962 0.74421 0.4797 0.0
H254 H 0.20967 0.83551 0.47098 0.0
H255 H 0.25856 0.81446 0.50111 0.0
H256 H 0.35027 0.72132 0.48357 0.0
H257 H 0.29923 0.74918 0.50687 0.0
H258 H 0.25132 0.76216 0.29899 0.0
H259 H 0.20568 0.79888 0.32123 0.0
H260 H 0.32789 0.76039 0.30153 0.0
H261 H 0.37323 0.73288 0.33127 0.0
C262 C 0.79534 0.27875 0.42169 0.0
C263 C 0.79495 0.30892 0.38577 0.0
C264 C 0.7557 0.23972 0.34716 0.0
C265 C 0.74891 0.21311 0.38477 0.0
N266 N 0.7561 0.21122 0.45919 0.0
N267 N 0.77186 0.31958 0.31425 0.0
C268 C 0.76735 0.23354 0.42236 0.0
C269 C 0.77465 0.28972 0.34832 0.0
N270 N 0.82392 0.29246 0.4548 0.0
N271 N 0.74595 0.21659 0.31025 0.0
H272 H 0.78575 0.35603 0.31358 0.0
H273 H 0.75265 0.30946 0.28756 0.0
H274 H 0.73312 0.17977 0.30815 0.0
H275 H 0.75509 0.23211 0.28168 0.0
H276 H 0.82988 0.26931 0.4801 0.0
H277 H 0.84628 0.32452 0.45495 0.0
H278 H 0.76475 0.22744 0.48761 0.0
H279 H 0.73373 0.17935 0.46158 0.0
C280 C 0.82098 0.27581 0.84634 0.0
C281 C 0.85619 0.26673 0.87794 0.0
C282 C 0.80105 0.20146 0.90663 0.0
C283 C 0.76339 0.21575 0.87872 0.0
N284 N 0.73509 0.27053 0.82486 0.0
N285 N 0.87767 0.22466 0.94126 0.0
C286 C 0.77268 0.25406 0.84935 0.0
C287 C 0.84592 0.23015 0.90874 0.0
N288 N 0.8344 0.30324 0.81237 0.0
N289 N 0.79381 0.16055 0.93119 0.0
H290 H 0.90959 0.2465 0.94513 0.0
H291 H 0.87046 0.20152 0.96641 0.0
H292 H 0.76091 0.1396 0.9311 0.0
H293 H 0.82163 0.14492 0.94905 0.0
H294 H 0.81194 0.30684 0.78644 0.0
H295 H 0.87001 0.31809 0.80807 0.0
H296 H 0.73812 0.30217 0.80633 0.0
H297 H 0.69955 0.25478 0.82532 0.0
C298 C 0.25743 0.71969 0.94462 0.0
C299 C 0.26129 0.68716 0.90995 0.0
C300 C 0.21539 0.74627 0.86739 0.0
C301 C 0.20911 0.7776 0.90266 0.0
N302 N 0.21438 0.78899 0.97662 0.0
N303 N 0.2354 0.66432 0.8409 0.0
C304 C 0.22732 0.7628 0.94184 0.0
C305 C 0.23779 0.69896 0.87208 0.0
N306 N 0.28428 0.71069 0.97956 0.0
N307 N 0.20218 0.76242 0.82893 0.0
H308 H 0.25212 0.62956 0.84258 0.0
H309 H 0.21325 0.66822 0.8148 0.0
H310 H 0.18443 0.79601 0.82361 0.0
H311 H 0.21218 0.74415 0.80165 0.0
H312 H 0.28725 0.73595 1.00405 0.0
H313 H 0.30731 0.67992 0.9827 0.0
H314 H 0.22221 0.77712 1.00652 0.0
H315 H 0.19154 0.82016 0.97588 0.0
C316 C 0.71796 0.24507 0.66571 0.0
C317 C 0.68818 0.25036 0.62988 0.0
C318 C 0.74812 0.20152 0.5898 0.0
C319 C 0.78166 0.20414 0.62324 0.0
N320 N 0.79927 0.22868 0.69379 0.0
N321 N 0.6779 0.23872 0.55611 0.0
C322 C 0.76673 0.22574 0.66156 0.0
C323 C 0.70382 0.22958 0.5915 0.0
N324 N 0.69882 0.25601 0.70396 0.0
N325 N 0.75759 0.17054 0.55711 0.0
H326 H 0.64711 0.26189 0.55515 0.0
H327 H 0.68969 0.22722 0.5269 0.0
H328 H 0.78987 0.14951 0.55476 0.0
H329 H 0.73084 0.16143 0.53509 0.0
H330 H 0.71668 0.24761 0.73154 0.0
H331 H 0.66287 0.26899 0.70851 0.0
H332 H 0.79289 0.24992 0.72033 0.0
H333 H 0.83384 0.21179 0.69329 0.0
C334 C 0.18812 0.78774 0.62267 0.0
C335 C 0.20582 0.74305 0.64057 0.0
C336 C 0.29068 0.77789 0.64128 0.0
C337 C 0.2734 0.8212 0.62099 0.0
N338 N 0.20802 0.86423 0.58578 0.0
N339 N 0.2743 0.69286 0.66347 0.0
C340 C 0.22269 0.82534 0.60996 0.0
C341 C 0.2573 0.73721 0.64856 0.0
N342 N 0.1382 0.79441 0.61804 0.0
N343 N 0.33835 0.77676 0.65563 0.0
H344 H 0.25096 0.66357 0.67262 0.0
H345 H 0.31175 0.68386 0.66475 0.0
H346 H 0.36396 0.80572 0.65096 0.0
H347 H 0.35172 0.749 0.67491 0.0
H348 H 0.12257 0.82841 0.61011 0.0
H349 H 0.11186 0.76672 0.62472 0.0
H350 H 0.17283 0.86672 0.57286 0.0
H351 H 0.2324 0.8922 0.57561 0.0
C352 C 0.01427 0.56328 0.30302 0.0
C353 C 0.96673 0.54442 0.29205 0.0
C354 C 0.96948 0.59113 0.22761 0.0
C355 C 0.01843 0.60798 0.23708 0.0
N356 N 0.09196 0.59946 0.27887 0.0
N357 N 0.90649 0.52756 0.23885 0.0
C358 C 0.04229 0.59095 0.27341 0.0
C359 C 0.947 0.55377 0.2525 0.0
N360 N 0.03237 0.55515 0.34183 0.0
N361 N 0.94262 0.61346 0.19717 0.0
H362 H 0.88903 0.49989 0.25648 0.0
H363 H 0.89377 0.52969 0.2085 0.0
H364 H 0.95534 0.64434 0.18054 0.0
H365 H 0.90527 0.60523 0.19193 0.0
H366 H 0.06401 0.57304 0.35329 0.0
H367 H 0.0142 0.53234 0.36337 0.0
H368 H 0.11212 0.58403 0.30298 0.0
H369 H 0.11418 0.61768 0.257 0.0
C370 C 0.98215 0.0424 0.2577 0.0
C371 C 0.98882 0.02913 0.21556 0.0
C372 C 0.04586 0.96289 0.23444 0.0
C373 C 0.03638 0.97371 0.27676 0.0
N374 N 0.01203 0.03439 0.32799 0.0
N375 N 0.04019 0.99148 0.16347 0.0
C376 C 0.00996 0.01717 0.28815 0.0
C377 C 0.02548 0.99437 0.20391 0.0
N378 N 0.94726 0.07655 0.26889 0.0
N379 N 0.07109 0.92096 0.22322 0.0
H380 H 0.02578 0.01501 0.14091 0.0
H381 H 0.06971 0.96975 0.1533 0.0
H382 H 0.08721 0.89712 0.24452 0.0
H383 H 0.07346 0.90815 0.19279 0.0
H384 H 0.93611 0.08256 0.29941 0.0
H385 H 0.92789 0.09758 0.24744 0.0
H386 H 0.99671 0.06808 0.33756 0.0
H387 H 0.03381 0.01744 0.35044 0.0
C388 C 0.52803 0.98445 0.2966 0.0
C389 C 0.52925 0.03637 0.28805 0.0
C390 C 0.49258 0.02117 0.21987 0.0
C391 C 0.49306 0.9691 0.22804 0.0
N392 N 0.49731 0.9024 0.27743 0.0
N393 N 0.50291 0.10563 0.24678 0.0
C394 C 0.50616 0.95129 0.26764 0.0
C395 C 0.50798 0.05526 0.2514 0.0
N396 N 0.54981 0.96653 0.33159 0.0
N397 N 0.48022 0.03778 0.18141 0.0
H398 H 0.51483 0.13125 0.26915 0.0
H399 H 0.48365 0.12186 0.22255 0.0
H400 H 0.46676 0.01411 0.15833 0.0
H401 H 0.48516 0.07451 0.1717 0.0
H402 H 0.55574 0.9288 0.33701 0.0
H403 H 0.56542 0.9896 0.35413 0.0
H404 H 0.50101 0.88785 0.30707 0.0
H405 H 0.48169 0.8773 0.25641 0.0
C406 C 0.54197 0.4598 0.2664 0.0
C407 C 0.52956 0.47408 0.22554 0.0
C408 C 0.47603 0.54002 0.25184 0.0
C409 C 0.49177 0.52858 0.29243 0.0
N410 N 0.52239 0.46707 0.33953 0.0
N411 N 0.47046 0.51191 0.18054 0.0
C412 C 0.51881 0.48461 0.30005 0.0
C413 C 0.49116 0.50861 0.21885 0.0
N414 N 0.57824 0.42564 0.27326 0.0
N415 N 0.45034 0.58267 0.24426 0.0
H416 H 0.48121 0.48835 0.15632 0.0
H417 H 0.43974 0.53387 0.17424 0.0
H418 H 0.43844 0.60672 0.26763 0.0
H419 H 0.44349 0.59574 0.21452 0.0
H420 H 0.59361 0.41948 0.30229 0.0
H421 H 0.59443 0.40459 0.24978 0.0
H422 H 0.53851 0.43308 0.34684 0.0
H423 H 0.5041 0.48413 0.36428 0.0
C424 C 0.97014 0.52411 0.71836 0.0
C425 C 1.00487 0.56267 0.72759 0.0
C426 C 0.98118 0.56033 0.80059 0.0
C427 C 0.95205 0.51695 0.79213 0.0
N428 N 0.90502 0.46813 0.7435 0.0
N429 N 0.02928 0.63001 0.77274 0.0
C430 C 0.94149 0.50284 0.7509 0.0
C431 C 1.00501 0.58549 0.76712 0.0
N432 N 0.96717 0.5061 0.67883 0.0
N433 N 0.98936 0.5749 0.84058 0.0
H434 H 0.04687 0.64879 0.74846 0.0
H435 H 0.02803 0.65047 0.80018 0.0
H436 H 0.97107 0.55864 0.86571 0.0
H437 H 0.01558 0.60182 0.8491 0.0
H438 H 0.94709 0.47429 0.67034 0.0
H439 H 0.98625 0.52307 0.65441 0.0
H440 H 0.8931 0.4578 0.71407 0.0
H441 H 0.88374 0.45263 0.76743 0.0
C442 C 0.96076 0.97059 0.78856 0.0
C443 C 1.00215 0.94041 0.77951 0.0
C444 C 0.99273 0.9584 0.7061 0.0
C445 C 0.96207 0.99895 0.71697 0.0
N446 N 0.91277 0.04212 0.76844 0.0
N447 N 0.05543 0.90093 0.72888 0.0
C448 C 0.94344 1.00376 0.75794 0.0
C449 C 0.01663 0.93158 0.73788 0.0
N450 N 0.93956 0.96844 0.82703 0.0
N451 N 0.99908 0.94624 0.66534 0.0
H452 H 0.07243 0.87878 0.75094 0.0
H453 H 0.07191 0.89877 0.69969 0.0
H454 H 0.98047 0.96504 0.64192 0.0
H455 H 0.01819 0.91481 0.65528 0.0
H456 H 0.90692 0.98673 0.83495 0.0
H457 H 0.95237 0.94409 0.84968 0.0
H458 H 0.90361 0.05114 0.7989 0.0
H459 H 0.89811 0.06664 0.74695 0.0
C460 C 0.50724 0.07559 0.76111 0.0
C461 C 0.52829 0.03803 0.7859 0.0
C462 C 0.47261 0.97644 0.7533 0.0
C463 C 0.45645 0.01378 0.72537 0.0
N464 N 0.47557 0.09338 0.69365 0.0
N465 N 0.53826 0.9501 0.79923 0.0
C466 C 0.47947 0.06147 0.72621 0.0
C467 C 0.51342 0.98745 0.7799 0.0
N468 N 0.50895 0.12457 0.77275 0.0
N469 N 0.44769 0.93192 0.75643 0.0
H470 H 0.56887 0.95695 0.81817 0.0
H471 H 0.53158 0.91239 0.7931 0.0
H472 H 0.4165 0.92292 0.7389 0.0
H473 H 0.45526 0.90579 0.77928 0.0
H474 H 0.48937 0.15188 0.75693 0.0
H475 H 0.52345 0.13657 0.80096 0.0
H476 H 0.49578 0.12675 0.69244 0.0
H477 H 0.45792 0.08347 0.66612 0.0
C478 C 0.5518 0.51496 0.75477 0.0
C479 C 0.52762 0.47306 0.73633 0.0
C480 C 0.46321 0.47631 0.78896 0.0
C481 C 0.48218 0.52249 0.80349 0.0
N482 N 0.54166 0.5901 0.79607 0.0
N483 N 0.45018 0.42762 0.72761 0.0
C484 C 0.52586 0.54322 0.78532 0.0
C485 C 0.48028 0.45773 0.75089 0.0
N486 N 0.59966 0.52682 0.74427 0.0
N487 N 0.431 0.44858 0.81242 0.0
H488 H 0.45978 0.41554 0.69796 0.0
H489 H 0.41366 0.41925 0.73634 0.0
H490 H 0.42138 0.45846 0.84268 0.0
H491 H 0.41872 0.41311 0.80343 0.0
H492 H 0.62042 0.5541 0.7597 0.0
H493 H 0.62006 0.50636 0.7227 0.0
H494 H 0.57057 0.60869 0.78083 0.0
H495 H 0.52307 0.61209 0.81774 0.0
C496 C 0.06509 0.79232 0.2227 0.0
C497 C 0.01698 0.78758 0.20511 0.0
C498 C 0.98042 0.79597 0.2747 0.0
C499 C 0.02817 0.79378 0.29283 0.0
N500 N 0.11603 0.78227 0.28382 0.0
N501 N 0.92899 0.77562 0.21564 0.0
C502 C 0.07067 0.79028 0.26675 0.0
C503 C 0.97471 0.78684 0.23157 0.0
N504 N 0.10536 0.79952 0.19752 0.0
N505 N 0.94036 0.80787 0.29879 0.0
H506 H 0.92352 0.76708 0.18443 0.0
H507 H 0.89758 0.76959 0.23398 0.0
H508 H 0.94353 0.81621 0.33027 0.0
H509 H 0.9053 0.81476 0.28677 0.0
H510 H 0.14062 0.80849 0.20861 0.0
H511 H 0.10258 0.80009 0.16538 0.0
H512 H 0.14731 0.77333 0.26632 0.0
H513 H 0.12129 0.78079 0.31573 0.0
C514 C 0.72189 0.01299 0.2378 0.0
C515 C 0.76411 0.04375 0.22975 0.0
C516 C 0.77839 0.05332 0.30445 0.0
C517 C 0.73559 0.02357 0.31282 0.0
N518 N 0.66335 0.979 0.28844 0.0
N519 N 0.82406 0.10401 0.25516 0.0
C520 C 0.70606 1.00497 0.27967 0.0
C521 C 0.78976 0.06718 0.26303 0.0
N522 N 0.69819 0.99009 0.20544 0.0
N523 N 0.80973 0.06646 0.33593 0.0
H524 H 0.83413 0.11507 0.22534 0.0
H525 H 0.83927 0.12673 0.27818 0.0
H526 H 0.80269 0.05766 0.36684 0.0
H527 H 0.84458 0.08275 0.33112 0.0
H528 H 0.67 0.96353 0.20878 0.0
H529 H 0.70862 0.99584 0.17465 0.0
H530 H 0.6375 0.96791 0.26634 0.0
H531 H 0.65199 0.97128 0.31869 0.0
C532 C 0.47609 0.75547 0.30427 0.0
C533 C 0.51171 0.71692 0.30653 0.0
C534 C 0.51347 0.71132 0.23011 0.0
C535 C 0.47979 0.7515 0.22801 0.0
N536 N 0.42005 0.80409 0.26237 0.0
N537 N 0.5681 0.66094 0.27212 0.0
C538 C 0.45818 0.77096 0.26493 0.0
C539 C 0.5309 0.6951 0.26953 0.0
N540 N 0.4624 0.78012 0.33964 0.0
N541 N 0.52747 0.6877 0.19436 0.0
H542 H 0.58148 0.64797 0.30027 0.0
H543 H 0.58782 0.64736 0.24678 0.0
H544 H 0.51584 0.69924 0.1652 0.0
H545 H 0.54734 0.65464 0.19346 0.0
H546 H 0.44199 0.81286 0.34008 0.0
H547 H 0.474 0.76949 0.36901 0.0
H548 H 0.39938 0.81632 0.28765 0.0
H549 H 0.40747 0.8185 0.2345 0.0
C550 C 0.77708 0.52735 0.24135 0.0
C551 C 0.7476 0.4843 0.23376 0.0
C552 C 0.74662 0.46544 0.30852 0.0
C553 C 0.77755 0.5079 0.31585 0.0
N554 N 0.82002 0.58119 0.28828 0.0
N555 N 0.70574 0.41025 0.25888 0.0
C556 C 0.79218 0.53904 0.28224 0.0
C557 C 0.73292 0.45261 0.26706 0.0
N558 N 0.79073 0.55792 0.20941 0.0
N559 N 0.72795 0.43925 0.34151 0.0
H560 H 0.69298 0.40091 0.22941 0.0
H561 H 0.69682 0.38313 0.28066 0.0
H562 H 0.73741 0.44742 0.37206 0.0
H563 H 0.70118 0.41111 0.33937 0.0
H564 H 0.81222 0.59018 0.21377 0.0
H565 H 0.78053 0.55097 0.17878 0.0
H566 H 0.83307 0.59313 0.31706 0.0
H567 H 0.83307 0.59313 0.31706 0.0
C568 C 0.99613 0.29228 0.72324 0.0
C569 C 0.97853 0.24197 0.72441 0.0
C570 C 1.00393 0.23616 0.79719 0.0
C571 C 0.01959 0.28703 0.79675 0.0
N572 N 0.02419 0.36586 0.76137 0.0
N573 N 0.95198 0.17199 0.76633 0.0
C574 C 0.01308 0.31597 0.76047 0.0
C575 C 0.97851 0.21559 0.76248 0.0
N576 N 0.99931 0.3165 0.68613 0.0
N577 N 0.0143 0.20683 0.83052 0.0
H578 H 0.93083 0.15665 0.74243 0.0
H579 H 0.9464 0.15395 0.79452 0.0
H580 H 0.03021 0.22074 0.85765 0.0
H581 H 0.00971 0.16814 0.8303 0.0
H582 H 0.01635 0.35125 0.68227 0.0
H583 H 0.9885 0.30006 0.65824 0.0
H584 H 0.01528 0.39037 0.73768 0.0
H585 H 0.03908 0.38359 0.78736 0.0
C586 C 0.22735 0.97149 0.69743 0.0
C587 C 0.25693 0.0149 0.70413 0.0
C588 C 0.24591 1.00548 0.7797 0.0
C589 C 0.21837 0.96069 0.77296 0.0
N590 N 0.18688 0.89781 0.72556 0.0
N591 N 0.29756 0.07213 0.75113 0.0
C592 C 0.21072 0.94255 0.73189 0.0
C593 C 0.26708 0.03154 0.7452 0.0
N594 N 0.21175 0.96 0.65825 0.0
N595 N 0.25126 0.02342 0.81916 0.0
H596 H 0.3119 0.09346 0.72684 0.0
H597 H 0.31136 0.08326 0.77976 0.0
H598 H 0.23911 1.00386 0.84524 0.0
H599 H 0.26557 0.0586 0.82637 0.0
H600 H 0.18436 0.9334 0.65179 0.0
H601 H 0.22358 0.97954 0.63207 0.0
H602 H 0.18666 0.87918 0.6972 0.0
H603 H 0.16915 0.87772 0.74901 0.0
C604 C 0.58332 0.21797 0.77873 0.0
C605 C 0.56041 0.2482 0.80941 0.0
C606 C 0.51411 0.29123 0.75528 0.0
C607 C 0.53116 0.25679 0.72528 0.0
N608 N 0.58331 0.18735 0.7076 0.0
N609 N 0.53162 0.33237 0.82006 0.0
C610 C 0.56708 0.22077 0.73658 0.0
C611 C 0.53432 0.29076 0.79564 0.0
N612 N 0.62277 0.18959 0.78929 0.0
N613 N 0.47554 0.32192 0.74663 0.0
H614 H 0.55168 0.33587 0.84749 0.0
H615 H 0.51592 0.36559 0.81001 0.0
H616 H 0.45933 0.324 0.71746 0.0
H617 H 0.45709 0.34173 0.76977 0.0
H618 H 0.64397 0.16923 0.76832 0.0
H619 H 0.63818 0.19226 0.81855 0.0
H620 H 0.60468 0.15638 0.71448 0.0
H621 H 0.57288 0.1891 0.67661 0.0
C622 C 0.27892 0.51174 0.79856 0.0
C623 C 0.25339 0.51506 0.83706 0.0
C624 C 0.18175 0.55073 0.80151 0.0
C625 C 0.20911 0.55213 0.76371 0.0
N626 N 0.28713 0.54163 0.72796 0.0
N627 N 0.18416 0.5463 0.87642 0.0
C628 C 0.25874 0.53483 0.7627 0.0
C629 C 0.20582 0.53709 0.83882 0.0
N630 N 0.32106 0.48418 0.79569 0.0
N631 N 0.13202 0.56026 0.8015 0.0
H632 H 0.20128 0.53772 0.90436 0.0
H633 H 0.15187 0.56695 0.88005 0.0
H634 H 0.11267 0.56848 0.77461 0.0
H635 H 0.10904 0.55487 0.82717 0.0
H636 H 0.33855 0.4758 0.76771 0.0
H637 H 0.336 0.4661 0.82116 0.0
H638 H 0.3251 0.53471 0.72695 0.0
H639 H 0.27358 0.55801 0.70112 0.0
C640 C 1.00002 0.56163 0.01579 0.0
C641 C 0.05004 0.57576 0.02414 0.0
C642 C 0.07839 0.51702 0.97039 0.0
C643 C 0.02831 0.50594 0.95959 0.0
N644 N 0.94148 0.52565 0.96691 0.0
N645 N 0.1361 0.57457 1.00352 0.0
C646 C 0.98908 0.53042 0.98092 0.0
C647 C 0.08898 0.55565 0.99967 0.0
N648 N 0.963 0.57623 0.04213 0.0
N649 N 0.11594 0.48901 0.95415 0.0
H650 H 0.14509 0.60333 0.02414 0.0
H651 H 0.16506 0.56535 0.9835 0.0
H652 H 0.10984 0.45941 0.93366 0.0
H653 H 0.15256 0.49175 0.96417 0.0
H654 H 0.92678 0.56233 0.04049 0.0
H655 H 0.96923 0.59917 0.06778 0.0
H656 H 0.91224 0.54697 0.97822 0.0
H657 H 0.93183 0.50366 0.94145 0.0
C658 C 1.00366 0.99933 0.97459 0.0
C659 C 0.0347 0.95838 0.98412 0.0
C660 C 0.99007 0.94753 0.05009 0.0
C661 C 0.95566 0.98497 0.03867 0.0
N662 N 0.92454 0.03973 0.98594 0.0
N663 N 0.04902 0.88598 0.02664 0.0
C664 C 0.96103 1.00899 0.99971 0.0
C665 C 0.02556 0.93036 0.02066 0.0
N666 N 0.0159 0.03033 0.94252 0.0
N667 N 0.99088 0.92982 0.08967 0.0
H668 H 0.07392 0.87082 1.00535 0.0
H669 H 0.03976 0.8616 0.05062 0.0
H670 H 0.96668 0.94161 0.11284 0.0
H671 H 0.01931 0.90749 0.10067 0.0
H672 H 0.99762 0.06363 0.93675 0.0
H673 H 0.04741 0.02545 0.92411 0.0
H674 H 0.92391 0.05425 0.95608 0.0
H675 H 0.89226 0.04672 1.00287 0.0
C676 C 0.56779 0.9557 1.00883 0.0
C677 C 0.53459 0.97063 0.04069 0.0
C678 C 0.53252 0.05494 0.0111 0.0
C679 C 0.56133 0.03899 0.97667 0.0
N680 N 0.59946 0.9706 0.9395 0.0
N681 N 0.4753 0.03068 0.06551 0.0
C682 C 0.57732 0.98838 0.97465 0.0
C683 C 0.51408 0.01919 0.03986 0.0
N684 N 0.59128 0.91094 0.01172 0.0
N685 N 0.52426 0.10466 0.01738 0.0
H686 H 0.45877 1.00456 0.08525 0.0
H687 H 0.45588 0.06401 0.06361 0.0
H688 H 0.53911 0.13237 0.99822 0.0
H689 H 0.50758 0.11865 0.04414 0.0
H690 H 0.62014 0.90039 0.99208 0.0
H691 H 0.58437 0.88588 0.03576 0.0
H692 H 0.60664 0.93291 0.93456 0.0
H693 H 0.60697 0.9926 0.91369 0.0
C694 C 0.51963 0.49629 0.97442 0.0
C695 C 0.47589 0.52255 0.98576 0.0
C696 C 0.51257 0.54319 0.05343 0.0
C697 C 0.55635 0.51698 0.04204 0.0
N698 N 0.60606 0.47837 0.98905 0.0
N699 N 0.43371 0.57818 0.03282 0.0
C700 C 0.56106 0.49623 1.00175 0.0
C701 C 0.47358 0.54866 0.02409 0.0
N702 N 0.52166 0.47135 0.93741 0.0
N703 N 0.5067 0.56013 0.09314 0.0
H704 H 0.4024 0.57991 0.01412 0.0
H705 H 0.43274 0.60351 0.05733 0.0
H706 H 0.53372 0.55702 0.11582 0.0
H707 H 0.4736 0.57417 0.10486 0.0
H708 H 0.54919 0.44595 0.9297 0.0
H709 H 0.4946 0.47431 0.91465 0.0
H710 H 0.61394 0.46729 0.95884 0.0
H711 H 0.63735 0.47885 1.00796 0.0
C712 C 0.05557 0.97 0.51066 0.0
C713 C 0.03035 0.9716 0.47218 0.0
C714 C 0.98816 0.04848 0.49503 0.0
C715 C 0.00937 0.04391 0.53501 0.0
N716 N 0.0571 0.99475 0.58285 0.0
N717 N 0.9688 1.00982 0.42887 0.0
C718 C 0.04182 1.00344 0.54325 0.0
C719 C 0.99536 1.01 0.46482 0.0
N720 N 0.09243 0.93608 0.51644 0.0
N721 N 0.96316 0.09091 0.48514 0.0
H722 H 0.97502 0.98462 0.40479 0.0
H723 H 0.93848 0.03274 0.42382 0.0
H724 H 0.95828 0.12038 0.50591 0.0
H725 H 0.95138 0.09919 0.45534 0.0
H726 H 0.11666 0.9374 0.54145 0.0
H727 H 0.10124 0.90849 0.49486 0.0
H728 H 0.07579 0.96274 0.59172 0.0
H729 H 0.04707 0.01689 0.60801 0.0
C730 C 0.48374 0.02276 0.46211 0.0
C731 C 0.53269 0.03743 0.47368 0.0
C732 C 0.50791 0.0342 0.54698 0.0
C733 C 0.45795 0.02358 0.53535 0.0
N734 N 0.39669 0.01572 0.48155 0.0
N735 N 0.58961 0.06486 0.52652 0.0
C736 C 0.44543 0.01981 0.4928 0.0
C737 C 0.54411 0.04574 0.51596 0.0
N738 N 0.4739 0.01107 0.42176 0.0
N739 N 0.5215 0.03044 0.58759 0.0
H740 H 0.61741 0.0725 0.50476 0.0
H741 H 0.59836 0.07704 0.55628 0.0
H742 H 0.49685 0.01983 0.61104 0.0
H743 H 0.55815 0.03275 0.59755 0.0
H744 H 0.44095 0.99415 0.41203 0.0
H745 H 0.50002 0.01555 0.39815 0.0
H746 H 0.38458 0.0184 0.4511 0.0
H747 H 0.36765 0.01381 0.50298 0.0
C748 C 0.4664 0.45599 0.52859 0.0
C749 C 0.51007 0.45758 0.55311 0.0
C750 C 0.54255 0.52727 0.51088 0.0
C751 C 0.49757 0.52759 0.48804 0.0
N752 N 0.4144 0.49577 0.47749 0.0
N753 N 0.58776 0.49807 0.57062 0.0
C754 C 0.45868 0.49322 0.49784 0.0
C755 C 0.54781 0.49388 0.54486 0.0
N756 N 0.43359 0.41698 0.53313 0.0
N757 N 0.58057 0.55895 0.49992 0.0
H758 H 0.59463 0.47323 0.5945 0.0
H759 H 0.61293 0.52783 0.57004 0.0
H760 H 0.57666 0.58746 0.47833 0.0
H761 H 0.61668 0.55587 0.51083 0.0
H762 H 0.40375 0.41024 0.5135 0.0
H763 H 0.43872 0.38827 0.55435 0.0
H764 H 0.38256 0.47625 0.48658 0.0
H765 H 0.40818 0.51992 0.45291 0.0
C766 C 0.96012 0.52584 0.52087 0.0
C767 C 0.97377 0.49819 0.48505 0.0
C768 C 0.05465 0.4807 0.51705 0.0
C769 C 0.04295 0.51334 0.55033 0.0
N770 N 0.98749 0.574 0.58023 0.0
N771 N 0.03775 0.45599 0.4461 0.0
C772 C 0.99659 0.53807 0.55107 0.0
C773 C 0.02197 0.47703 0.4824 0.0
N774 N 0.91162 0.53856 0.52706 0.0
N775 N 0.09694 0.45312 0.51856 0.0
H776 H 0.0157 0.45355 0.41975 0.0
H777 H 0.0742 0.4449 0.44091 0.0
H778 H 0.12247 0.45636 0.54263 0.0
H779 H 0.10485 0.42461 0.49758 0.0
H780 H 0.89853 0.55422 0.55454 0.0
H781 H 0.88336 0.52838 0.50663 0.0
H782 H 0.95663 0.59706 0.57943 0.0
H783 H 0.01277 0.58386 0.60326 0.0
loop_
_geom_bond_atom_site_label_1
_geom_bond_atom_site_label_2
_geom_bond_distance
_geom_bond_site_symmetry_2
_ccdc_geom_bond_type
Mg0 O7 2.141 . S
Mg0 O8 2.048 . S
Mg0 O9 2.048 . S
Mg0 O12 2.141 . S
C1 O2 1.313 . S
C1 O8 1.195 1_655 S
O2 C1 1.313 . S
C3 O4 1.245 . S
C3 O12 1.289 . S
O4 C3 1.245 . S
C5 O6 1.245 . S
C5 O7 1.289 . S
O6 C5 1.245 . S
O7 Mg0 2.141 . S
O7 C5 1.289 . S
O8 Mg0 2.048 . S
O8 C1 1.195 1_455 S
O9 Mg0 2.048 . S
O9 C10 1.195 . S
C10 O9 1.195 . S
C10 O11 1.313 . S
O11 C10 1.313 . S
O12 Mg0 2.141 . S
O12 C3 1.289 . S
Mg13 O20 2.141 . S
Mg13 O21 2.048 . S
Mg13 O22 2.048 . S
Mg13 O25 2.141 . S
C14 O15 1.313 . S
C14 O21 1.195 1_565 S
O15 C14 1.313 . S
C16 O17 1.245 . S
C16 O25 1.289 . S
O17 C16 1.245 . S
C18 O19 1.245 . S
C18 O20 1.289 . S
O19 C18 1.245 . S
O20 Mg13 2.141 . S
O20 C18 1.289 . S
O21 Mg13 2.048 . S
O21 C14 1.195 1_545 S
O22 Mg13 2.048 . S
O22 C23 1.195 . S
C23 O22 1.195 . S
C23 O24 1.313 . S
O24 C23 1.313 . S
O25 Mg13 2.141 . S
O25 C16 1.289 . S
Mg26 O33 2.141 . S
Mg26 O34 2.048 . S
Mg26 O35 2.048 . S
Mg26 O38 2.141 . S
C27 O28 1.313 . S
C27 O34 1.195 . S
O28 C27 1.313 . S
C29 O30 1.245 . S
C29 O38 1.289 . S
O30 C29 1.245 . S
C31 O32 1.245 . S
C31 O33 1.289 . S
O32 C31 1.245 . S
O33 Mg26 2.141 . S
O33 C31 1.289 . S
O34 Mg26 2.048 . S
O34 C27 1.195 . S
O35 Mg26 2.048 . S
O35 C36 1.195 . S
C36 O35 1.195 . S
C36 O37 1.313 . S
O37 C36 1.313 . S
O38 Mg26 2.141 . S
O38 C29 1.289 . S
Mg39 O46 2.141 . S
Mg39 O47 2.048 . S
Mg39 O48 2.048 . S
Mg39 O51 2.141 . S
C40 O41 1.313 . S
C40 O47 1.195 . S
O41 C40 1.313 . S
C42 O43 1.245 . S
C42 O51 1.289 . S
O43 C42 1.245 . S
C44 O45 1.245 . S
C44 O46 1.289 . S
O45 C44 1.245 . S
O46 Mg39 2.141 . S
O46 C44 1.289 . S
O47 Mg39 2.048 . S
O47 C40 1.195 . S
O48 Mg39 2.048 . S
O48 C49 1.195 . S
C49 O48 1.195 . S
C49 O50 1.313 . S
O50 C49 1.313 . S
O51 Mg39 2.141 . S
O51 C42 1.289 . S
Mg52 O59 2.141 . S
Mg52 O60 2.048 . S
Mg52 O61 2.048 . S
Mg52 O64 2.141 . S
C53 O54 1.313 . S
C53 O60 1.195 1_655 S
O54 C53 1.313 . S
C55 O56 1.245 . S
C55 O64 1.289 . S
O56 C55 1.245 . S
C57 O58 1.245 . S
C57 O59 1.289 . S
O58 C57 1.245 . S
O59 Mg52 2.141 . S
O59 C57 1.289 . S
O60 Mg52 2.048 . S
O60 C53 1.195 1_455 S
O61 Mg52 2.048 . S
O61 C62 1.195 . S
C62 O61 1.195 . S
C62 O63 1.313 . S
O63 C62 1.313 . S
O64 Mg52 2.141 . S
O64 C55 1.289 . S
Mg65 O72 2.141 . S
Mg65 O73 2.048 . S
Mg65 O74 2.048 . S
Mg65 O77 2.141 . S
C66 O67 1.313 . S
C66 O73 1.195 1_565 S
O67 C66 1.313 . S
C68 O69 1.245 . S
C68 O77 1.289 . S
O69 C68 1.245 . S
C70 O71 1.245 . S
C70 O72 1.289 . S
O71 C70 1.245 . S
O72 Mg65 2.141 . S
O72 C70 1.289 . S
O73 Mg65 2.048 . S
O73 C66 1.195 1_545 S
O74 Mg65 2.048 . S
O74 C75 1.195 . S
C75 O74 1.195 . S
C75 O76 1.313 . S
O76 C75 1.313 . S
O77 Mg65 2.141 . S
O77 C68 1.289 . S
Mg78 O85 2.141 . S
Mg78 O86 2.048 . S
Mg78 O87 2.048 . S
Mg78 O90 2.141 . S
C79 O80 1.313 . S
C79 O86 1.195 . S
O80 C79 1.313 . S
C81 O82 1.245 . S
C81 O90 1.289 . S
O82 C81 1.245 . S
C83 O84 1.245 . S
C83 O85 1.289 . S
O84 C83 1.245 . S
O85 Mg78 2.141 . S
O85 C83 1.289 . S
O86 Mg78 2.048 . S
O86 C79 1.195 . S
O87 Mg78 2.048 . S
O87 C88 1.195 . S
C88 O87 1.195 . S
C88 O89 1.313 . S
O89 C88 1.313 . S
O90 Mg78 2.141 . S
O90 C81 1.289 . S
Mg91 O98 2.141 . S
Mg91 O99 2.048 . S
Mg91 O100 2.048 . S
Mg91 O103 2.141 . S
C92 O93 1.313 . S
C92 O99 1.195 . S
O93 C92 1.313 . S
C94 O95 1.245 . S
C94 O103 1.289 . S
O95 C94 1.245 . S
C96 O97 1.245 . S
C96 O98 1.289 . S
O97 C96 1.245 . S
O98 Mg91 2.141 . S
O98 C96 1.289 . S
O99 Mg91 2.048 . S
O99 C92 1.195 . S
O100 Mg91 2.048 . S
O100 C101 1.195 . S
C101 O100 1.195 . S
C101 O102 1.313 . S
O102 C101 1.313 . S
O103 Mg91 2.141 . S
O103 C94 1.289 . S
Mg104 O111 2.141 . S
Mg104 O112 2.048 . S
Mg104 O113 2.048 . S
Mg104 O116 2.141 . S
C105 O106 1.313 . S
C105 O112 1.195 . S
O106 C105 1.313 . S
C107 O108 1.245 . S
C107 O116 1.289 . S
O108 C107 1.245 . S
C109 O110 1.245 . S
C109 O111 1.289 . S
O110 C109 1.245 . S
O111 Mg104 2.141 . S
O111 C109 1.289 . S
O112 Mg104 2.048 . S
O112 C105 1.195 . S
O113 Mg104 2.048 . S
O113 C114 1.195 1_655 S
C114 O113 1.195 1_455 S
C114 O115 1.313 . S
O115 C114 1.313 . S
O116 Mg104 2.141 . S
O116 C107 1.289 . S
Mg117 O124 2.141 . S
Mg117 O125 2.048 . S
Mg117 O126 2.048 . S
Mg117 O129 2.141 . S
C118 O119 1.313 . S
C118 O125 1.195 . S
O119 C118 1.313 . S
C120 O121 1.245 . S
C120 O129 1.289 . S
O121 C120 1.245 . S
C122 O123 1.245 . S
C122 O124 1.289 . S
O123 C122 1.245 . S
O124 Mg117 2.141 . S
O124 C122 1.289 . S
O125 Mg117 2.048 . S
O125 C118 1.195 . S
O126 Mg117 2.048 . S
O126 C127 1.195 1_565 S
C127 O126 1.195 1_545 S
C127 O128 1.313 . S
O128 C127 1.313 . S
O129 Mg117 2.141 . S
O129 C120 1.289 . S
Mg130 O137 2.141 . S
Mg130 O138 2.048 . S
Mg130 O139 2.048 . S
Mg130 O142 2.141 . S
C131 O132 1.313 . S
C131 O138 1.195 . S
O132 C131 1.313 . S
C133 O134 1.245 . S
C133 O142 1.289 . S
O134 C133 1.245 . S
C135 O136 1.245 . S
C135 O137 1.289 . S
O136 C135 1.245 . S
O137 Mg130 2.141 . S
O137 C135 1.289 . S
O138 Mg130 2.048 . S
O138 C131 1.195 . S
O139 Mg130 2.048 . S
O139 C140 1.195 . S
C140 O139 1.195 . S
C140 O141 1.313 . S
O141 C140 1.313 . S
O142 Mg130 2.141 . S
O142 C133 1.289 . S
Mg143 O150 2.141 . S
Mg143 O151 2.048 . S
Mg143 O152 2.048 . S
Mg143 O155 2.141 . S
C144 O145 1.313 . S
C144 O151 1.195 . S
O145 C144 1.313 . S
C146 O147 1.245 . S
C146 O155 1.289 . S
O147 C146 1.245 . S
C148 O149 1.245 . S
C148 O150 1.289 . S
O149 C148 1.245 . S
O150 Mg143 2.141 . S
O150 C148 1.289 . S
O151 Mg143 2.048 . S
O151 C144 1.195 . S
O152 Mg143 2.048 . S
O152 C153 1.195 . S
C153 O152 1.195 . S
C153 O154 1.313 . S
O154 C153 1.313 . S
O155 Mg143 2.141 . S
O155 C146 1.289 . S
Mg156 O163 2.141 . S
Mg156 O164 2.048 . S
Mg156 O165 2.048 . S
Mg156 O168 2.141 . S
C157 O158 1.313 . S
C157 O164 1.195 . S
O158 C157 1.313 . S
C159 O160 1.245 . S
C159 O168 1.289 . S
O160 C159 1.245 . S
C161 O162 1.245 . S
C161 O163 1.289 . S
O162 C161 1.245 . S
O163 Mg156 2.141 . S
O163 C161 1.289 . S
O164 Mg156 2.048 . S
O164 C157 1.195 . S
O165 Mg156 2.048 . S
O165 C166 1.195 1_655 S
C166 O165 1.195 1_455 S
C166 O167 1.313 . S
O167 C166 1.313 . S
O168 Mg156 2.141 . S
O168 C159 1.289 . S
Mg169 O176 2.141 . S
Mg169 O177 2.048 . S
Mg169 O178 2.048 . S
Mg169 O181 2.141 . S
C170 O171 1.313 . S
C170 O177 1.195 . S
O171 C170 1.313 . S
C172 O173 1.245 . S
C172 O181 1.289 . S
O173 C172 1.245 . S
C174 O175 1.245 . S
C174 O176 1.289 . S
O175 C174 1.245 . S
O176 Mg169 2.141 . S
O176 C174 1.289 . S
O177 Mg169 2.048 . S
O177 C170 1.195 . S
O178 Mg169 2.048 . S
O178 C179 1.195 1_565 S
C179 O178 1.195 1_545 S
C179 O180 1.313 . S
O180 C179 1.313 . S
O181 Mg169 2.141 . S
O181 C172 1.289 . S
Mg182 O189 2.141 . S
Mg182 O190 2.048 . S
Mg182 O191 2.048 . S
Mg182 O194 2.141 . S
C183 O184 1.313 . S
C183 O190 1.195 . S
O184 C183 1.313 . S
C185 O186 1.245 . S
C185 O194 1.289 . S
O186 C185 1.245 . S
C187 O188 1.245 . S
C187 O189 1.289 . S
O188 C187 1.245 . S
O189 Mg182 2.141 . S
O189 C187 1.289 . S
O190 Mg182 2.048 . S
O190 C183 1.195 . S
O191 Mg182 2.048 . S
O191 C192 1.195 . S
C192 O191 1.195 . S
C192 O193 1.313 . S
O193 C192 1.313 . S
O194 Mg182 2.141 . S
O194 C185 1.289 . S
Mg195 O202 2.141 . S
Mg195 O203 2.048 . S
Mg195 O204 2.048 . S
Mg195 O207 2.141 . S
C196 O197 1.313 . S
C196 O203 1.195 . S
O197 C196 1.313 . S
C198 O199 1.245 . S
C198 O207 1.289 . S
O199 C198 1.245 . S
C200 O201 1.245 . S
C200 O202 1.289 . S
O201 C200 1.245 . S
O202 Mg195 2.141 . S
O202 C200 1.289 . S
O203 Mg195 2.048 . S
O203 C196 1.195 . S
O204 Mg195 2.048 . S
O204 C205 1.195 . S
C205 O204 1.195 . S
C205 O206 1.313 . S
O206 C205 1.313 . S
O207 Mg195 2.141 . S
O207 C198 1.289 . S
C208 C209 1.363 . S
C208 C214 1.379 . S
C208 N216 1.356 . S
C209 C208 1.363 . S
C209 C215 1.363 . S
C210 C211 1.363 . S
C210 C215 1.379 . S
C210 N217 1.356 . S
C211 C210 1.363 . S
C211 C214 1.363 . S
N212 C214 1.356 . S
N212 H224 0.965 1_554 S
N212 H225 0.985 . S
N213 C215 1.356 . S
N213 H218 0.984 . S
N213 H219 0.985 . S
C214 C208 1.379 . S
C214 C211 1.363 . S
C214 N212 1.356 . S
C215 C209 1.363 . S
C215 C210 1.379 . S
C215 N213 1.356 . S
N216 C208 1.356 . S
N216 H222 0.965 1_554 S
N216 H223 0.984 . S
N217 C210 1.356 . S
N217 H220 0.984 . S
N217 H221 0.985 . S
H218 N213 0.984 . S
H219 N213 0.985 . S
H220 N217 0.984 . S
H221 N217 0.985 . S
H222 N216 0.965 1_556 S
H223 N216 0.984 . S
H224 N212 0.965 1_556 S
H225 N212 0.985 . S
C226 C227 1.363 . S
C226 C232 1.379 . S
C226 N234 1.356 . S
C227 C226 1.363 . S
C227 C233 1.363 . S
C228 C229 1.363 . S
C228 C233 1.379 . S
C228 N235 1.356 . S
C229 C228 1.363 . S
C229 C232 1.363 . S
N230 C232 1.356 . S
N230 H242 0.965 1_554 S
N230 H243 0.985 . S
N231 C233 1.356 . S
N231 H236 0.984 . S
N231 H237 0.985 . S
C232 C226 1.379 . S
C232 C229 1.363 . S
C232 N230 1.356 . S
C233 C227 1.363 . S
C233 C228 1.379 . S
C233 N231 1.356 . S
N234 C226 1.356 . S
N234 H240 0.965 1_554 S
N234 H241 0.984 . S
N235 C228 1.356 . S
N235 H238 0.984 . S
N235 H239 0.985 . S
H236 N231 0.984 . S
H237 N231 0.985 . S
H238 N235 0.984 . S
H239 N235 0.985 . S
H240 N234 0.965 1_556 S
H241 N234 0.984 . S
H242 N230 0.965 1_556 S
H243 N230 0.985 . S
C244 C245 1.363 . S
C244 C250 1.379 . S
C244 N252 1.356 . S
C245 C244 1.363 . S
C245 C251 1.363 . S
C246 C247 1.363 . S
C246 C251 1.379 . S
C246 N253 1.356 . S
C247 C246 1.363 . S
C247 C250 1.363 . S
N248 C250 1.356 . S
N248 H260 0.984 . S
N248 H261 0.985 . S
N249 C251 1.356 . S
N249 H254 0.984 . S
N249 H255 0.985 . S
C250 C244 1.379 . S
C250 C247 1.363 . S
C250 N248 1.356 . S
C251 C245 1.363 . S
C251 C246 1.379 . S
C251 N249 1.356 . S
N252 C244 1.356 . S
N252 H258 0.984 . S
N252 H259 0.984 . S
N253 C246 1.356 . S
N253 H256 0.984 . S
N253 H257 0.985 . S
H254 N249 0.984 . S
H255 N249 0.985 . S
H256 N253 0.984 . S
H257 N253 0.985 . S
H258 N252 0.984 . S
H259 N252 0.984 . S
H260 N248 0.984 . S
H261 N248 0.985 . S
C262 C263 1.363 . S
C262 C268 1.379 . S
C262 N270 1.356 . S
C263 C262 1.363 . S
C263 C269 1.363 . S
C264 C265 1.363 . S
C264 C269 1.379 . S
C264 N271 1.356 . S
C265 C264 1.363 . S
C265 C268 1.363 . S
N266 C268 1.356 . S
N266 H278 0.984 . S
N266 H279 0.985 . S
N267 C269 1.356 . S
N267 H272 0.984 . S
N267 H273 0.985 . S
C268 C262 1.379 . S
C268 C265 1.363 . S
C268 N266 1.356 . S
C269 C263 1.363 . S
C269 C264 1.379 . S
C269 N267 1.356 . S
N270 C262 1.356 . S
N270 H276 0.984 . S
N270 H277 0.984 . S
N271 C264 1.356 . S
N271 H274 0.984 . S
N271 H275 0.985 . S
H272 N267 0.984 . S
H273 N267 0.985 . S
H274 N271 0.984 . S
H275 N271 0.985 . S
H276 N270 0.984 . S
H277 N270 0.984 . S
H278 N266 0.984 . S
H279 N266 0.985 . S
C280 C281 1.363 . S
C280 C286 1.379 . S
C280 N288 1.356 . S
C281 C280 1.363 . S
C281 C287 1.363 . S
C282 C283 1.363 . S
C282 C287 1.379 . S
C282 N289 1.356 . S
C283 C282 1.363 . S
C283 C286 1.363 . S
N284 C286 1.356 . S
N284 H296 0.984 . S
N284 H297 0.985 . S
N285 C287 1.356 . S
N285 H290 0.984 . S
N285 H291 0.965 1_556 S
C286 C280 1.379 . S
C286 C283 1.363 . S
C286 N284 1.356 . S
C287 C281 1.363 . S
C287 C282 1.379 . S
C287 N285 1.356 . S
N288 C280 1.356 . S
N288 H294 0.984 . S
N288 H295 0.984 . S
N289 C282 1.356 . S
N289 H292 0.984 . S
N289 H293 0.965 1_556 S
H290 N285 0.984 . S
H291 N285 0.965 1_554 S
H292 N289 0.984 . S
H293 N289 0.965 1_554 S
H294 N288 0.984 . S
H295 N288 0.984 . S
H296 N284 0.984 . S
H297 N284 0.985 . S
C298 C299 1.363 . S
C298 C304 1.379 . S
C298 N306 1.356 . S
C299 C298 1.363 . S
C299 C305 1.363 . S
C300 C301 1.363 . S
C300 C305 1.379 . S
C300 N307 1.356 . S
C301 C300 1.363 . S
C301 C304 1.363 . S
N302 C304 1.356 . S
N302 H314 0.965 1_556 S
N302 H315 0.985 . S
N303 C305 1.356 . S
N303 H308 0.984 . S
N303 H309 0.985 . S
C304 C298 1.379 . S
C304 C301 1.363 . S
C304 N302 1.356 . S
C305 C299 1.363 . S
C305 C300 1.379 . S
C305 N303 1.356 . S
N306 C298 1.356 . S
N306 H312 0.965 1_556 S
N306 H313 0.984 . S
N307 C300 1.356 . S
N307 H310 0.984 . S
N307 H311 0.985 . S
H308 N303 0.984 . S
H309 N303 0.985 . S
H310 N307 0.984 . S
H311 N307 0.985 . S
H312 N306 0.965 1_554 S
H313 N306 0.984 . S
H314 N302 0.965 1_554 S
H315 N302 0.985 . S
C316 C317 1.363 . S
C316 C322 1.379 . S
C316 N324 1.356 . S
C317 C316 1.363 . S
C317 C323 1.363 . S
C318 C319 1.363 . S
C318 C323 1.379 . S
C318 N325 1.356 . S
C319 C318 1.363 . S
C319 C322 1.363 . S
N320 C322 1.356 . S
N320 H332 0.984 . S
N320 H333 0.985 . S
N321 C323 1.356 . S
N321 H326 0.984 . S
N321 H327 0.985 . S
C322 C316 1.379 . S
C322 C319 1.363 . S
C322 N320 1.356 . S
C323 C317 1.363 . S
C323 C318 1.379 . S
C323 N321 1.356 . S
N324 C316 1.356 . S
N324 H330 0.984 . S
N324 H331 0.984 . S
N325 C318 1.356 . S
N325 H328 0.984 . S
N325 H329 0.985 . S
H326 N321 0.984 . S
H327 N321 0.985 . S
H328 N325 0.984 . S
H329 N325 0.985 . S
H330 N324 0.984 . S
H331 N324 0.984 . S
H332 N320 0.984 . S
H333 N320 0.985 . S
C334 C335 1.363 . S
C334 C340 1.379 . S
C334 N342 1.356 . S
C335 C334 1.363 . S
C335 C341 1.363 . S
C336 C337 1.363 . S
C336 C341 1.379 . S
C336 N343 1.356 . S
C337 C336 1.363 . S
C337 C340 1.363 . S
N338 C340 1.356 . S
N338 H350 0.984 . S
N338 H351 0.985 . S
N339 C341 1.356 . S
N339 H344 0.984 . S
N339 H345 0.985 . S
C340 C334 1.379 . S
C340 C337 1.363 . S
C340 N338 1.356 . S
C341 C335 1.363 . S
C341 C336 1.379 . S
C341 N339 1.356 . S
N342 C334 1.356 . S
N342 H348 0.984 . S
N342 H349 0.984 . S
N343 C336 1.356 . S
N343 H346 0.984 . S
N343 H347 0.985 . S
H344 N339 0.984 . S
H345 N339 0.985 . S
H346 N343 0.984 . S
H347 N343 0.985 . S
H348 N342 0.984 . S
H349 N342 0.984 . S
H350 N338 0.984 . S
H351 N338 0.985 . S
C352 C353 1.363 . S
C352 C358 1.379 . S
C352 N360 1.356 . S
C353 C352 1.363 . S
C353 C359 1.363 . S
C354 C355 1.363 . S
C354 C359 1.379 . S
C354 N361 1.356 . S
C355 C354 1.363 . S
C355 C358 1.363 . S
N356 C358 1.356 1_455 S
N356 H368 0.984 . S
N356 H369 0.986 . S
N357 C359 1.356 . S
N357 H362 0.984 . S
N357 H363 0.985 . S
C358 C352 1.379 . S
C358 C355 1.363 . S
C358 N356 1.356 1_655 S
C359 C353 1.363 . S
C359 C354 1.379 . S
C359 N357 1.356 . S
N360 C352 1.356 . S
N360 H366 0.984 1_655 S
N360 H367 0.984 . S
N361 C354 1.356 . S
N361 H364 0.984 . S
N361 H365 0.985 . S
H362 N357 0.984 . S
H363 N357 0.985 . S
H364 N361 0.984 . S
H365 N361 0.985 . S
H366 N360 0.984 1_455 S
H367 N360 0.984 . S
H368 N356 0.984 . S
H369 N356 0.986 . S
C370 C371 1.363 . S
C370 C376 1.379 . S
C370 N378 1.356 1_565 S
C371 C370 1.363 . S
C371 C377 1.363 . S
C372 C373 1.363 . S
C372 C377 1.379 . S
C372 N379 1.356 . S
C373 C372 1.363 . S
C373 C376 1.363 . S
N374 C376 1.356 . S
N374 H386 0.984 1_565 S
N374 H387 0.985 . S
N375 C377 1.356 . S
N375 H380 0.984 . S
N375 H381 0.985 . S
C376 C370 1.379 . S
C376 C373 1.363 . S
C376 N374 1.356 . S
C377 C371 1.363 . S
C377 C372 1.379 . S
C377 N375 1.356 . S
N378 C370 1.356 1_545 S
N378 H384 0.984 . S
N378 H385 0.984 1_545 S
N379 C372 1.356 . S
N379 H382 0.984 . S
N379 H383 0.985 . S
H380 N375 0.984 . S
H381 N375 0.985 . S
H382 N379 0.984 . S
H383 N379 0.985 . S
H384 N378 0.984 . S
H385 N378 0.984 1_565 S
H386 N374 0.984 1_545 S
H387 N374 0.985 . S
C388 C389 1.363 . S
C388 C394 1.379 . S
C388 N396 1.356 . S
C389 C388 1.363 . S
C389 C395 1.363 . S
C390 C391 1.363 . S
C390 C395 1.379 . S
C390 N397 1.356 . S
C391 C390 1.363 . S
C391 C394 1.363 . S
N392 C394 1.356 . S
N392 H404 0.984 . S
N392 H405 0.985 . S
N393 C395 1.356 1_545 S
N393 H398 0.984 1_545 S
N393 H399 0.985 . S
C394 C388 1.379 . S
C394 C391 1.363 . S
C394 N392 1.356 . S
C395 C389 1.363 . S
C395 C390 1.379 . S
C395 N393 1.356 1_565 S
N396 C388 1.356 . S
N396 H402 0.984 . S
N396 H403 0.984 . S
N397 C390 1.356 . S
N397 H400 0.984 . S
N397 H401 0.985 1_565 S
H398 N393 0.984 1_565 S
H399 N393 0.985 . S
H400 N397 0.984 . S
H401 N397 0.985 1_545 S
H402 N396 0.984 . S
H403 N396 0.984 . S
H404 N392 0.984 . S
H405 N392 0.985 . S
C406 C407 1.363 . S
C406 C412 1.379 . S
C406 N414 1.356 . S
C407 C406 1.363 . S
C407 C413 1.363 . S
C408 C409 1.363 . S
C408 C413 1.379 . S
C408 N415 1.356 . S
C409 C408 1.363 . S
C409 C412 1.363 . S
N410 C412 1.356 . S
N410 H422 0.984 . S
N410 H423 0.985 . S
N411 C413 1.356 . S
N411 H416 0.984 . S
N411 H417 0.985 . S
C412 C406 1.379 . S
C412 C409 1.363 . S
C412 N410 1.356 . S
C413 C407 1.363 . S
C413 C408 1.379 . S
C413 N411 1.356 . S
N414 C406 1.356 . S
N414 H420 0.984 . S
N414 H421 0.984 . S
N415 C408 1.356 . S
N415 H418 0.984 . S
N415 H419 0.985 . S
H416 N411 0.984 . S
H417 N411 0.985 . S
H418 N415 0.984 . S
H419 N415 0.985 . S
H420 N414 0.984 . S
H421 N414 0.984 . S
H422 N410 0.984 . S
H423 N410 0.985 . S
C424 C425 1.363 . S
C424 C430 1.379 . S
C424 N432 1.356 . S
C425 C424 1.363 . S
C425 C431 1.363 . S
C426 C427 1.363 . S
C426 C431 1.379 . S
C426 N433 1.356 . S
C427 C426 1.363 . S
C427 C430 1.363 . S
N428 C430 1.356 1_655 S
N428 H440 0.984 . S
N428 H441 0.985 1_655 S
N429 C431 1.356 . S
N429 H434 0.984 . S
N429 H435 0.985 . S
C430 C424 1.379 . S
C430 C427 1.363 . S
C430 N428 1.356 1_455 S
C431 C425 1.363 . S
C431 C426 1.379 . S
C431 N429 1.356 . S
N432 C424 1.356 . S
N432 H438 0.984 1_455 S
N432 H439 0.984 . S
N433 C426 1.356 . S
N433 H436 0.984 . S
N433 H437 0.985 . S
H434 N429 0.984 . S
H435 N429 0.985 . S
H436 N433 0.984 . S
H437 N433 0.985 . S
H438 N432 0.984 1_655 S
H439 N432 0.984 . S
H440 N428 0.984 . S
H441 N428 0.985 1_455 S
C442 C443 1.363 . S
C442 C448 1.379 . S
C442 N450 1.356 . S
C443 C442 1.363 . S
C443 C449 1.363 . S
C444 C445 1.363 . S
C444 C449 1.379 . S
C444 N451 1.356 . S
C445 C444 1.363 . S
C445 C448 1.363 . S
N446 C448 1.356 . S
N446 H458 0.984 . S
N446 H459 0.985 . S
N447 C449 1.356 . S
N447 H452 0.984 . S
N447 H453 0.985 1_545 S
C448 C442 1.379 . S
C448 C445 1.363 . S
C448 N446 1.356 . S
C449 C443 1.363 . S
C449 C444 1.379 . S
C449 N447 1.356 . S
N450 C442 1.356 . S
N450 H456 0.984 . S
N450 H457 0.984 . S
N451 C444 1.356 . S
N451 H454 0.984 . S
N451 H455 0.985 . S
H452 N447 0.984 . S
H453 N447 0.985 1_565 S
H454 N451 0.984 . S
H455 N451 0.985 . S
H456 N450 0.984 . S
H457 N450 0.984 . S
H458 N446 0.984 . S
H459 N446 0.985 . S
C460 C461 1.363 . S
C460 C466 1.379 . S
C460 N468 1.356 . S
C461 C460 1.363 . S
C461 C467 1.363 . S
C462 C463 1.363 . S
C462 C467 1.379 . S
C462 N469 1.356 1_545 S
C463 C462 1.363 . S
C463 C466 1.363 . S
N464 C466 1.356 . S
N464 H476 0.984 . S
N464 H477 0.985 . S
N465 C467 1.356 . S
N465 H470 0.984 . S
N465 H471 0.985 1_545 S
C466 C460 1.379 . S
C466 C463 1.363 . S
C466 N464 1.356 . S
C467 C461 1.363 . S
C467 C462 1.379 . S
C467 N465 1.356 . S
N468 C460 1.356 . S
N468 H474 0.984 . S
N468 H475 0.984 . S
N469 C462 1.356 1_565 S
N469 H472 0.984 . S
N469 H473 0.985 . S
H470 N465 0.984 . S
H471 N465 0.985 1_565 S
H472 N469 0.984 . S
H473 N469 0.985 . S
H474 N468 0.984 . S
H475 N468 0.984 . S
H476 N464 0.984 . S
H477 N464 0.985 . S
C478 C479 1.363 . S
C478 C484 1.379 . S
C478 N486 1.356 . S
C479 C478 1.363 . S
C479 C485 1.363 . S
C480 C481 1.363 . S
C480 C485 1.379 . S
C480 N487 1.356 . S
C481 C480 1.363 . S
C481 C484 1.363 . S
N482 C484 1.356 . S
N482 H494 0.984 . S
N482 H495 0.985 . S
N483 C485 1.356 . S
N483 H488 0.984 . S
N483 H489 0.985 . S
C484 C478 1.379 . S
C484 C481 1.363 . S
C484 N482 1.356 . S
C485 C479 1.363 . S
C485 C480 1.379 . S
C485 N483 1.356 . S
N486 C478 1.356 . S
N486 H492 0.984 . S
N486 H493 0.984 . S
N487 C480 1.356 . S
N487 H490 0.984 . S
N487 H491 0.985 . S
H488 N483 0.984 . S
H489 N483 0.985 . S
H490 N487 0.984 . S
H491 N487 0.985 . S
H492 N486 0.984 . S
H493 N486 0.984 . S
H494 N482 0.984 . S
H495 N482 0.985 . S
C496 C497 1.363 . S
C496 C502 1.379 . S
C496 N504 1.356 . S
C497 C496 1.363 . S
C497 C503 1.363 . S
C498 C499 1.363 . S
C498 C503 1.379 . S
C498 N505 1.356 . S
C499 C498 1.363 . S
C499 C502 1.363 . S
N500 C502 1.356 . S
N500 H512 0.984 . S
N500 H513 0.985 . S
N501 C503 1.356 . S
N501 H506 0.984 . S
N501 H507 0.985 1_455 S
C502 C496 1.379 . S
C502 C499 1.363 . S
C502 N500 1.356 . S
C503 C497 1.363 . S
C503 C498 1.379 . S
C503 N501 1.356 . S
N504 C496 1.356 . S
N504 H510 0.984 . S
N504 H511 0.984 . S
N505 C498 1.356 . S
N505 H508 0.984 . S
N505 H509 0.985 1_455 S
H506 N501 0.984 . S
H507 N501 0.985 1_655 S
H508 N505 0.984 . S
H509 N505 0.985 1_655 S
H510 N504 0.984 . S
H511 N504 0.984 . S
H512 N500 0.984 . S
H513 N500 0.985 . S
C514 C515 1.363 . S
C514 C520 1.379 . S
C514 N522 1.356 1_545 S
C515 C514 1.363 . S
C515 C521 1.363 . S
C516 C517 1.363 . S
C516 C521 1.379 . S
C516 N523 1.356 . S
C517 C516 1.363 . S
C517 C520 1.363 . S
N518 C520 1.356 1_565 S
N518 H530 0.984 . S
N518 H531 0.985 . S
N519 C521 1.356 . S
N519 H524 0.984 . S
N519 H525 0.985 . S
C520 C514 1.379 . S
C520 C517 1.363 . S
C520 N518 1.356 1_545 S
C521 C515 1.363 . S
C521 C516 1.379 . S
C521 N519 1.356 . S
N522 C514 1.356 1_565 S
N522 H528 0.984 . S
N522 H529 0.984 . S
N523 C516 1.356 . S
N523 H526 0.984 . S
N523 H527 0.985 . S
H524 N519 0.984 . S
H525 N519 0.985 . S
H526 N523 0.984 . S
H527 N523 0.985 . S
H528 N522 0.984 . S
H529 N522 0.984 . S
H530 N518 0.984 . S
H531 N518 0.985 . S
C532 C533 1.363 . S
C532 C538 1.379 . S
C532 N540 1.356 . S
C533 C532 1.363 . S
C533 C539 1.363 . S
C534 C535 1.363 . S
C534 C539 1.379 . S
C534 N541 1.356 . S
C535 C534 1.363 . S
C535 C538 1.363 . S
N536 C538 1.356 . S
N536 H548 0.984 . S
N536 H549 0.985 . S
N537 C539 1.356 . S
N537 H542 0.984 . S
N537 H543 0.985 . S
C538 C532 1.379 . S
C538 C535 1.363 . S
C538 N536 1.356 . S
C539 C533 1.363 . S
C539 C534 1.379 . S
C539 N537 1.356 . S
N540 C532 1.356 . S
N540 H546 0.984 . S
N540 H547 0.984 . S
N541 C534 1.356 . S
N541 H544 0.984 . S
N541 H545 0.985 . S
H542 N537 0.984 . S
H543 N537 0.985 . S
H544 N541 0.984 . S
H545 N541 0.985 . S
H546 N540 0.984 . S
H547 N540 0.984 . S
H548 N536 0.984 . S
H549 N536 0.985 . S
C550 C551 1.363 . S
C550 C556 1.379 . S
C550 N558 1.356 . S
C551 C550 1.363 . S
C551 C557 1.363 . S
C552 C553 1.363 . S
C552 C557 1.379 . S
C552 N559 1.356 . S
C553 C552 1.363 . S
C553 C556 1.363 . S
N554 C556 1.356 . S
N554 H566 0.984 . S
N554 H567 0.985 . S
N555 C557 1.356 . S
N555 H560 0.984 . S
N555 H561 0.985 . S
C556 C550 1.379 . S
C556 C553 1.363 . S
C556 N554 1.356 . S
C557 C551 1.363 . S
C557 C552 1.379 . S
C557 N555 1.356 . S
N558 C550 1.356 . S
N558 H564 0.984 . S
N558 H565 0.984 . S
N559 C552 1.356 . S
N559 H562 0.984 . S
N559 H563 0.985 . S
H560 N555 0.984 . S
H561 N555 0.985 . S
H562 N559 0.984 . S
H563 N559 0.985 . S
H564 N558 0.984 . S
H565 N558 0.984 . S
H566 N554 0.984 . S
H567 N554 0.985 . S
C568 C569 1.363 . S
C568 C574 1.379 . S
C568 N576 1.356 . S
C569 C568 1.363 . S
C569 C575 1.363 . S
C570 C571 1.363 . S
C570 C575 1.379 . S
C570 N577 1.356 . S
C571 C570 1.363 . S
C571 C574 1.363 . S
N572 C574 1.356 . S
N572 H584 0.984 1_655 S
N572 H585 0.985 . S
N573 C575 1.356 . S
N573 H578 0.984 . S
N573 H579 0.985 . S
C574 C568 1.379 . S
C574 C571 1.363 . S
C574 N572 1.356 . S
C575 C569 1.363 . S
C575 C570 1.379 . S
C575 N573 1.356 . S
N576 C568 1.356 . S
N576 H582 0.984 1_655 S
N576 H583 0.984 . S
N577 C570 1.356 . S
N577 H580 0.984 . S
N577 H581 0.985 . S
H578 N573 0.984 . S
H579 N573 0.985 . S
H580 N577 0.984 . S
H581 N577 0.985 . S
H582 N576 0.984 1_455 S
H583 N576 0.984 . S
H584 N572 0.984 1_455 S
H585 N572 0.985 . S
C586 C587 1.363 . S
C586 C592 1.379 . S
C586 N594 1.356 . S
C587 C586 1.363 . S
C587 C593 1.363 . S
C588 C589 1.363 . S
C588 C593 1.379 . S
C588 N595 1.356 1_565 S
C589 C588 1.363 . S
C589 C592 1.363 . S
N590 C592 1.356 . S
N590 H602 0.984 . S
N590 H603 0.985 . S
N591 C593 1.356 1_545 S
N591 H596 0.984 . S
N591 H597 0.985 . S
C592 C586 1.379 . S
C592 C589 1.363 . S
C592 N590 1.356 . S
C593 C587 1.363 . S
C593 C588 1.379 . S
C593 N591 1.356 1_565 S
N594 C586 1.356 . S
N594 H600 0.984 . S
N594 H601 0.984 . S
N595 C588 1.356 1_545 S
N595 H598 0.984 . S
N595 H599 0.985 . S
H596 N591 0.984 . S
H597 N591 0.985 . S
H598 N595 0.984 . S
H599 N595 0.985 . S
H600 N594 0.984 . S
H601 N594 0.984 . S
H602 N590 0.984 . S
H603 N590 0.985 . S
C604 C605 1.363 . S
C604 C610 1.379 . S
C604 N612 1.356 . S
C605 C604 1.363 . S
C605 C611 1.363 . S
C606 C607 1.363 . S
C606 C611 1.379 . S
C606 N613 1.356 . S
C607 C606 1.363 . S
C607 C610 1.363 . S
N608 C610 1.356 . S
N608 H620 0.984 . S
N608 H621 0.985 . S
N609 C611 1.356 . S
N609 H614 0.984 . S
N609 H615 0.985 . S
C610 C604 1.379 . S
C610 C607 1.363 . S
C610 N608 1.356 . S
C611 C605 1.363 . S
C611 C606 1.379 . S
C611 N609 1.356 . S
N612 C604 1.356 . S
N612 H618 0.984 . S
N612 H619 0.984 . S
N613 C606 1.356 . S
N613 H616 0.984 . S
N613 H617 0.985 . S
H614 N609 0.984 . S
H615 N609 0.985 . S
H616 N613 0.984 . S
H617 N613 0.985 . S
H618 N612 0.984 . S
H619 N612 0.984 . S
H620 N608 0.984 . S
H621 N608 0.985 . S
C622 C623 1.363 . S
C622 C628 1.379 . S
C622 N630 1.356 . S
C623 C622 1.363 . S
C623 C629 1.363 . S
C624 C625 1.363 . S
C624 C629 1.379 . S
C624 N631 1.356 . S
C625 C624 1.363 . S
C625 C628 1.363 . S
N626 C628 1.356 . S
N626 H638 0.984 . S
N626 H639 0.985 . S
N627 C629 1.356 . S
N627 H632 0.984 . S
N627 H633 0.985 . S
C628 C622 1.379 . S
C628 C625 1.363 . S
C628 N626 1.356 . S
C629 C623 1.363 . S
C629 C624 1.379 . S
C629 N627 1.356 . S
N630 C622 1.356 . S
N630 H636 0.984 . S
N630 H637 0.984 . S
N631 C624 1.356 . S
N631 H634 0.984 . S
N631 H635 0.985 . S
H632 N627 0.984 . S
H633 N627 0.985 . S
H634 N631 0.984 . S
H635 N631 0.985 . S
H636 N630 0.984 . S
H637 N630 0.984 . S
H638 N626 0.984 . S
H639 N626 0.985 . S
C640 C641 1.363 1_556 S
C640 C646 1.379 1_455 S
C640 N648 1.356 . S
C641 C640 1.363 1_554 S
C641 C647 1.363 . S
C642 C643 1.363 1_554 S
C642 C647 1.379 1_655 S
C642 N649 1.356 . S
C643 C642 1.363 1_556 S
C643 C646 1.363 . S
N644 C646 1.356 . S
N644 H656 0.984 . S
N644 H657 0.985 . S
N645 C647 1.356 . S
N645 H650 0.984 . S
N645 H651 0.985 . S
C646 C640 1.379 1_655 S
C646 C643 1.363 . S
C646 N644 1.356 . S
C647 C641 1.363 . S
C647 C642 1.379 1_455 S
C647 N645 1.356 . S
N648 C640 1.356 . S
N648 H654 0.984 . S
N648 H655 0.984 . S
N649 C642 1.356 . S
N649 H652 0.984 . S
N649 H653 0.985 . S
H650 N645 0.984 . S
H651 N645 0.985 . S
H652 N649 0.984 . S
H653 N649 0.985 . S
H654 N648 0.984 . S
H655 N648 0.984 . S
H656 N644 0.984 . S
H657 N644 0.985 . S
C658 C659 1.363 1_545 S
C658 C664 1.379 1_456 S
C658 N666 1.356 . S
C659 C658 1.363 1_565 S
C659 C665 1.363 . S
C660 C661 1.363 1_565 S
C660 C665 1.379 1_654 S
C660 N667 1.356 . S
C661 C660 1.363 1_545 S
C661 C664 1.363 . S
N662 C664 1.356 . S
N662 H674 0.984 . S
N662 H675 0.985 . S
N663 C665 1.356 . S
N663 H668 0.984 . S
N663 H669 0.985 . S
C664 C658 1.379 1_654 S
C664 C661 1.363 . S
C664 N662 1.356 . S
C665 C659 1.363 . S
C665 C660 1.379 1_456 S
C665 N663 1.356 . S
N666 C658 1.356 . S
N666 H672 0.984 . S
N666 H673 0.984 . S
N667 C660 1.356 . S
N667 H670 0.984 . S
N667 H671 0.985 . S
H668 N663 0.984 . S
H669 N663 0.985 . S
H670 N667 0.984 . S
H671 N667 0.985 . S
H672 N666 0.984 . S
H673 N666 0.984 . S
H674 N662 0.984 . S
H675 N662 0.985 . S
C676 C677 1.363 1_556 S
C676 C682 1.379 . S
C676 N684 1.356 . S
C677 C676 1.363 1_554 S
C677 C683 1.363 1_565 S
C678 C679 1.363 1_554 S
C678 C683 1.379 . S
C678 N685 1.356 . S
C679 C678 1.363 1_556 S
C679 C682 1.363 1_545 S
N680 C682 1.356 1_545 S
N680 H692 0.984 1_545 S
N680 H693 0.985 . S
N681 C683 1.356 1_565 S
N681 H686 0.984 . S
N681 H687 0.985 1_565 S
C682 C676 1.379 . S
C682 C679 1.363 1_565 S
C682 N680 1.356 1_565 S
C683 C677 1.363 1_545 S
C683 C678 1.379 . S
C683 N681 1.356 1_545 S
N684 C676 1.356 . S
N684 H690 0.984 . S
N684 H691 0.984 1_556 S
N685 C678 1.356 . S
N685 H688 0.984 1_554 S
N685 H689 0.985 . S
H686 N681 0.984 . S
H687 N681 0.985 1_545 S
H688 N685 0.984 1_556 S
H689 N685 0.985 . S
H690 N684 0.984 . S
H691 N684 0.984 1_554 S
H692 N680 0.984 1_565 S
H693 N680 0.985 . S
C694 C695 1.363 . S
C694 C700 1.379 1_556 S
C694 N702 1.356 . S
C695 C694 1.363 . S
C695 C701 1.363 . S
C696 C697 1.363 . S
C696 C701 1.379 1_554 S
C696 N703 1.356 . S
C697 C696 1.363 . S
C697 C700 1.363 . S
N698 C700 1.356 . S
N698 H710 0.984 . S
N698 H711 0.985 . S
N699 C701 1.356 . S
N699 H704 0.984 . S
N699 H705 0.985 . S
C700 C694 1.379 1_554 S
C700 C697 1.363 . S
C700 N698 1.356 . S
C701 C695 1.363 . S
C701 C696 1.379 1_556 S
C701 N699 1.356 . S
N702 C694 1.356 . S
N702 H708 0.984 . S
N702 H709 0.984 . S
N703 C696 1.356 . S
N703 H706 0.984 . S
N703 H707 0.985 . S
H704 N699 0.984 . S
H705 N699 0.985 . S
H706 N703 0.984 . S
H707 N703 0.985 . S
H708 N702 0.984 . S
H709 N702 0.984 . S
H710 N698 0.984 . S
H711 N698 0.985 . S
C712 C713 1.363 . S
C712 C718 1.379 1_565 S
C712 N720 1.356 . S
C713 C712 1.363 . S
C713 C719 1.363 1_455 S
C714 C715 1.363 . S
C714 C719 1.379 1_545 S
C714 N721 1.356 . S
C715 C714 1.363 . S
C715 C718 1.363 1_655 S
N716 C718 1.356 . S
N716 H728 0.984 . S
N716 H729 0.985 . S
N717 C719 1.356 . S
N717 H722 0.984 . S
N717 H723 0.985 . S
C718 C712 1.379 1_545 S
C718 C715 1.363 1_455 S
C718 N716 1.356 . S
C719 C713 1.363 1_655 S
C719 C714 1.379 1_565 S
C719 N717 1.356 . S
N720 C712 1.356 . S
N720 H726 0.984 1_565 S
N720 H727 0.984 . S
N721 C714 1.356 . S
N721 H724 0.984 . S
N721 H725 0.985 1_545 S
H722 N717 0.984 . S
H723 N717 0.985 . S
H724 N721 0.984 . S
H725 N721 0.985 1_565 S
H726 N720 0.984 1_545 S
H727 N720 0.984 . S
H728 N716 0.984 . S
H729 N716 0.985 . S
C730 C731 1.363 1_565 S
C730 C736 1.379 . S
C730 N738 1.356 . S
C731 C730 1.363 1_545 S
C731 C737 1.363 . S
C732 C733 1.363 1_545 S
C732 C737 1.379 . S
C732 N739 1.356 . S
C733 C732 1.363 1_565 S
C733 C736 1.363 . S
N734 C736 1.356 . S
N734 H746 0.984 . S
N734 H747 0.985 . S
N735 C737 1.356 . S
N735 H740 0.984 . S
N735 H741 0.985 . S
C736 C730 1.379 . S
C736 C733 1.363 . S
C736 N734 1.356 . S
C737 C731 1.363 . S
C737 C732 1.379 . S
C737 N735 1.356 . S
N738 C730 1.356 . S
N738 H744 0.984 . S
N738 H745 0.984 . S
N739 C732 1.356 . S
N739 H742 0.984 . S
N739 H743 0.985 . S
H740 N735 0.984 . S
H741 N735 0.985 . S
H742 N739 0.984 . S
H743 N739 0.985 . S
H744 N738 0.984 . S
H745 N738 0.984 . S
H746 N734 0.984 . S
H747 N734 0.985 . S
C748 C749 1.363 . S
C748 C754 1.379 . S
C748 N756 1.356 . S
C749 C748 1.363 . S
C749 C755 1.363 . S
C750 C751 1.363 . S
C750 C755 1.379 . S
C750 N757 1.356 . S
C751 C750 1.363 . S
C751 C754 1.363 . S
N752 C754 1.356 . S
N752 H764 0.984 . S
N752 H765 0.985 . S
N753 C755 1.356 . S
N753 H758 0.984 . S
N753 H759 0.985 . S
C754 C748 1.379 . S
C754 C751 1.363 . S
C754 N752 1.356 . S
C755 C749 1.363 . S
C755 C750 1.379 . S
C755 N753 1.356 . S
N756 C748 1.356 . S
N756 H762 0.984 . S
N756 H763 0.984 . S
N757 C750 1.356 . S
N757 H760 0.984 . S
N757 H761 0.985 . S
H758 N753 0.984 . S
H759 N753 0.985 . S
H760 N757 0.984 . S
H761 N757 0.985 . S
H762 N756 0.984 . S
H763 N756 0.984 . S
H764 N752 0.984 . S
H765 N752 0.985 . S
C766 C767 1.363 . S
C766 C772 1.379 . S
C766 N774 1.356 . S
C767 C766 1.363 . S
C767 C773 1.363 1_655 S
C768 C769 1.363 . S
C768 C773 1.379 . S
C768 N775 1.356 . S
C769 C768 1.363 . S
C769 C772 1.363 1_455 S
N770 C772 1.356 1_455 S
N770 H782 0.984 1_455 S
N770 H783 0.985 . S
N771 C773 1.356 1_655 S
N771 H776 0.984 . S
N771 H777 0.985 1_655 S
C772 C766 1.379 . S
C772 C769 1.363 1_655 S
C772 N770 1.356 1_655 S
C773 C767 1.363 1_455 S
C773 C768 1.379 . S
C773 N771 1.356 1_455 S
N774 C766 1.356 . S
N774 H780 0.984 . S
N774 H781 0.984 . S
N775 C768 1.356 . S
N775 H778 0.984 . S
N775 H779 0.985 . S
H776 N771 0.984 . S
H777 N771 0.985 1_455 S
H778 N775 0.984 . S
H779 N775 0.985 . S
H780 N774 0.984 . S
H781 N774 0.984 . S
H782 N770 0.984 1_655 S
H783 N770 0.985 . S
C209 C3 2.180 . S
C211 C29 2.180 . S
C227 C16 2.180 . S
C229 C42 2.180 . S
C245 C55 2.180 . S
C247 C81 2.180 . S
C263 C94 2.180 . S
C265 C68 2.180 . S
C281 C109 2.180 . S
C283 C135 2.180 . S
C299 C148 2.180 . S
C301 C122 2.180 . S
C317 C187 2.180 . S
C319 C161 2.180 . S
C335 C200 2.180 . S
C337 C174 2.180 . S
C353 C92 1.976 . S
C355 C1 1.976 . S
C371 C14 1.976 . S
C373 C53 1.976 . S
C389 C66 1.976 . S
C391 C27 1.976 . S
C407 C40 1.976 . S
C409 C79 1.976 . S
C425 C205 1.976 . S
C427 C114 1.976 . S
C443 C127 1.976 . S
C445 C166 1.976 . S
C461 C140 1.976 . S
C463 C179 1.976 . S
C479 C192 1.976 . S
C481 C153 1.976 . S
C497 C10 0.799 . S
C499 C62 0.799 . S
C515 C23 0.799 . S
C517 C75 0.799 . S
C533 C88 0.799 . S
C535 C36 0.799 . S
C551 C49 0.799 . S
C553 C101 0.799 . S
C569 C157 0.799 . S
C571 C105 0.799 . S
C587 C170 0.799 . S
C589 C118 0.799 . S
C605 C131 0.799 . S
C607 C183 0.799 . S
C623 C144 0.799 . S
C625 C196 0.799 . S
C641 C5 1.789 . S
C643 C107 1.789 . S
C659 C120 1.789 . S
C661 C18 1.789 . S
C677 C31 1.789 . S
C679 C133 1.789 . S
C695 C146 1.789 . S
C697 C44 1.789 . S
C713 C57 1.789 . S
C715 C159 1.789 . S
C731 C70 1.789 . S
C733 C172 1.789 . S
C749 C185 1.789 . S
C751 C83 1.789 . S
C767 C96 1.789 . S
C769 C198 1.789 . S
