# Generated by pormake.
# Topology kag, (6)-cn, num edge types: 1
# Building blocks:
#     Node 0, Type 0, BuildingBlock: KUMBUR_clean_sbu_1, # of connection points: 6
#     Node 1, Type 0, BuildingBlock: KUMBUR_clean_sbu_1, # of connection points: 6
#     Node 2, Type 0, BuildingBlock: KUMBUR_clean_sbu_1, # of connection points: 6
#     Edge 3, Type (0, 0), BuildingBlock: FUNLAD_clean_linker_0, # of connection points: 2
#     Edge 4, Type (0, 0), BuildingBlock: FUNLAD_clean_linker_0, # of connection points: 2
#     Edge 5, Type (0, 0), BuildingBlock: FUNLAD_clean_linker_0, # of connection points: 2
#     Edge 6, Type (0, 0), BuildingBlock: FUNLAD_clean_linker_0, # of connection points: 2
#     Edge 7, Type (0, 0), BuildingBlock: FUNLAD_clean_linker_0, # of connection points: 2
#     Edge 8, Type (0, 0), BuildingBlock: FUNLAD_clean_linker_0, # of connection points: 2
#     Edge 9, Type (0, 0), BuildingBlock: FUNLAD_clean_linker_0, # of connection points: 2
#     Edge 10, Type (0, 0), BuildingBlock: FUNLAD_clean_linker_0, # of connection points: 2
#     Edge 11, Type (0, 0), BuildingBlock: FUNLAD_clean_linker_0, # of connection points: 2
# Relax obj value: 0.081
# Max RMSD: 0.174
# Mean RMSD: 0.117
data_MOF--net-kag--node1-KUMBUR_clean_sbu_1--edge1-FUNLAD_clean_linker_0
_symmetry_space_group_name_H-M    P1
_symmetry_Int_Tables_number       1
_symmetry_cell_setting            triclinic
loop_
_symmetry_equiv_pos_as_xyz
'x, y, z'
_cell_length_a     35.080706
_cell_length_b     45.015496
_cell_length_c     17.310319
_cell_angle_alpha  108.48863
_cell_angle_beta   96.582365
_cell_angle_gamma 100.18707
loop_
_atom_site_label
_atom_site_type_symbol
_atom_site_fract_x
_atom_site_fract_y
_atom_site_fract_z
_atom_type_partial_charge
Tb0 Tb 0.06442 0.54756 0.05781 0.0
C1 C 0.10741 0.42351 0.91223 0.0
N2 N 0.08066 0.4348 0.87295 0.0
C3 C 0.11167 0.42353 0.75368 0.0
C4 C 0.1387 0.41322 0.87518 0.0
C5 C 0.08137 0.43384 0.79342 0.0
C6 C 0.14075 0.41356 0.79512 0.0
C7 C 0.13027 0.41078 0.03265 0.0
C8 C 0.10326 0.42257 0.99004 0.0
C9 C 0.16244 0.4016 0.99755 0.0
C10 C 0.16663 0.40279 0.91893 0.0
Tb11 Tb 1.0326 0.45128 0.94281 0.0
N12 N 0.07168 0.43161 0.02186 0.0
C13 C 0.12341 0.40753 0.10786 0.0
C14 C 0.06291 0.42533 0.091 0.0
C15 C 0.08913 0.41419 0.1362 0.0
H16 H 0.05905 0.44177 0.76172 0.0
H17 H 0.08245 0.41013 0.19205 0.0
H18 H 0.09537 0.5614 0.25743 0.0
H19 H 0.96981 0.60262 0.9063 0.0
H20 H 1.03538 0.42807 0.11119 0.0
H21 H 0.14343 0.39856 0.14254 0.0
H22 H 1.01893 0.57002 0.915 0.0
H23 H 0.11269 0.42345 0.69136 0.0
H24 H 0.18371 0.39282 0.02981 0.0
H25 H 0.19118 0.39512 0.89199 0.0
H26 H 0.07485 0.58683 0.39009 0.0
H27 H 0.16435 0.40582 0.76444 0.0
H28 H 0.94329 0.62862 0.03088 0.0
N29 N 0.05011 0.572 0.18487 0.0
C30 C 1.0219 0.58915 0.18568 0.0
C31 C 0.05931 0.58729 0.33288 0.0
C32 C 1.01023 0.60521 0.26012 0.0
C33 C 0.07031 0.57228 0.25747 0.0
C34 C 1.02871 0.60344 0.3341 0.0
N35 N 1.01858 0.57632 0.04201 0.0
C36 C 1.0072 0.58103 0.96936 0.0
C37 C 0.97844 0.61099 0.11029 0.0
C38 C 1.00626 0.59204 0.11204 0.0
C39 C 0.9647 0.61428 0.03491 0.0
C40 C 0.97954 0.59957 0.96438 0.0
H41 H 1.02056 0.61538 0.39268 0.0
H42 H 0.97185 0.63557 0.31496 0.0
H43 H 0.94399 0.64061 0.18366 0.0
O44 O 0.10522 0.56964 1.00135 0.0
O45 O 1.00018 0.52768 0.01318 0.0
O46 O 0.98409 0.47232 0.98884 0.0
O47 O 0.10102 0.59275 0.12838 0.0
O48 O 0.06028 0.52915 0.92279 0.0
O49 O 1.01574 0.47956 0.868 0.0
O50 O 1.00403 0.40377 0.92701 0.0
O51 O 0.0889 0.48207 0.9413 0.0
O52 O 0.10627 0.51804 0.07188 0.0
O53 O 0.99707 0.42246 0.8283 0.0
O54 O 1.02087 0.47029 0.06908 0.0
O55 O 0.07153 0.51511 0.12735 0.0
C56 C 0.97468 0.50046 1.00122 0.0
C57 C 0.16268 0.60457 0.09067 0.0
C58 C 0.22251 0.64337 0.09937 0.0
C59 C 0.24499 0.62526 0.13016 0.0
C60 C 0.1853 0.5873 0.12392 0.0
C61 C 0.22636 0.59742 0.14262 0.0
C62 C 0.18131 0.63255 0.07887 0.0
C63 C 1.03611 0.50574 0.8606 0.0
C64 C 0.11963 0.59431 0.06868 0.0
C65 C 0.98144 0.62323 0.2585 0.0
C66 C 0.96564 0.62617 0.18375 0.0
C67 C 0.11619 0.49906 0.00651 0.0
C68 C 0.94159 0.3863 0.83816 0.0
C69 C 0.88457 0.35061 0.85583 0.0
C70 C 0.85969 0.36241 0.80893 0.0
C71 C 0.91602 0.39738 0.7906 0.0
C72 C 0.92561 0.36264 0.86992 0.0
C73 C 0.87539 0.38558 0.77656 0.0
C74 C 1.04263 0.49372 0.13433 0.0
C75 C 0.98477 0.39891 0.85378 0.0
H76 H 0.27678 0.63304 0.14638 0.0
H77 H 0.17117 0.56627 0.1359 0.0
H78 H 0.24376 0.58387 0.16766 0.0
H79 H 0.16363 0.64589 0.05341 0.0
H80 H 0.82805 0.35336 0.79617 0.0
H81 H 0.92727 0.41537 0.76459 0.0
H82 H 0.94509 0.35395 0.90655 0.0
H83 H 0.85597 0.39438 0.74024 0.0
Tb84 Tb 0.49467 0.98967 0.96243 0.0
C85 C 0.65977 0.96467 0.04902 0.0
N86 N 0.64287 0.98736 0.09572 0.0
C87 C 0.66188 0.97371 0.21539 0.0
C88 C 0.67785 0.9451 0.08373 0.0
C89 C 0.64404 0.99241 0.17813 0.0
C90 C 0.67876 0.94988 0.16797 0.0
C91 C 0.67457 0.93698 0.9151 0.0
C92 C 0.65744 0.9604 0.96537 0.0
C93 C 0.69239 0.91723 0.9492 0.0
C94 C 0.69398 0.92125 0.03324 0.0
Tb95 Tb 0.61459 0.01638 0.02866 0.0
N96 N 0.63953 0.97976 0.93409 0.0
C97 C 0.67421 0.93466 0.83256 0.0
C98 C 0.64271 0.9795 0.85582 0.0
C99 C 0.65891 0.95643 0.80334 0.0
H100 H 0.63164 0.01115 0.21518 0.0
H101 H 0.66046 0.956 0.74091 0.0
H102 H 0.47936 0.99949 0.78083 0.0
H103 H 0.43922 0.03863 0.24579 0.0
H104 H 0.63442 0.99761 0.83357 0.0
H105 H 0.68711 0.91704 0.79195 0.0
H106 H 0.4697 1.00101 0.15142 0.0
H107 H 0.66265 0.97771 0.28065 0.0
H108 H 0.70546 0.89901 0.91129 0.0
H109 H 0.70791 0.90588 0.05866 0.0
H110 H 0.44777 0.03409 0.72081 0.0
H111 H 0.69239 0.93532 0.19694 0.0
H112 H 0.41141 0.07856 0.20123 0.0
N113 N 0.46582 0.01985 0.90011 0.0
C114 C 0.44681 0.04053 0.94766 0.0
C115 C 0.44752 0.03629 0.78485 0.0
C116 C 0.42815 0.06058 0.91594 0.0
C117 C 0.46572 0.01694 0.8191 0.0
C118 C 0.42885 0.05835 0.83359 0.0
N119 N 0.46571 0.02238 0.05755 0.0
C120 C 0.46077 0.01972 0.13258 0.0
C121 C 0.4277 0.06327 0.08024 0.0
C122 C 0.44727 0.04215 0.02923 0.0
C123 C 0.42619 0.06277 0.16016 0.0
C124 C 0.44212 0.04044 0.18577 0.0
H125 H 0.41486 0.07337 0.80693 0.0
H126 H 0.39529 0.09798 0.94427 0.0
H127 H 0.39448 0.10008 0.08781 0.0
O128 O 0.45351 0.95403 0.98491 0.0
O129 O 0.523 0.03829 0.96789 0.0
O130 O 0.57916 0.05226 0.06629 0.0
O131 O 0.44746 0.96154 0.86625 0.0
O132 O 0.52216 0.9899 0.08401 0.0
O133 O 0.57975 0.02981 0.12629 0.0
O134 O 0.65651 0.04961 1.00103 0.0
O135 O 0.58463 0.96887 0.02879 0.0
O136 O 0.53238 0.95584 0.92437 0.0
O137 O 0.66463 0.04345 0.11877 0.0
O138 O 0.58767 0.01774 0.90854 0.0
O139 O 0.5302 0.97798 0.86557 0.0
C140 C 0.5537 0.05966 0.01777 0.0
C141 C 0.39682 0.91996 0.87804 0.0
C142 C 0.35431 0.87123 0.88076 0.0
C143 C 0.32845 0.87071 0.81163 0.0
C144 C 0.37059 0.91894 0.8091 0.0
C145 C 0.33657 0.89447 0.77634 0.0
C146 C 0.38854 0.89611 0.91385 0.0
C147 C 0.55093 0.01076 0.14218 0.0
C148 C 0.43317 0.94542 0.9105 0.0
C149 C 0.40967 0.08227 0.96738 0.0
C150 C 0.40939 0.08357 0.04925 0.0
C151 C 0.55487 0.94751 0.97577 0.0
C152 C 0.68207 0.09643 0.11871 0.0
C153 C 0.70463 0.15142 0.12128 0.0
C154 C 0.68865 0.16279 0.1931 0.0
C155 C 0.66596 0.10847 0.19003 0.0
C156 C 0.7016 0.11808 0.08489 0.0
C157 C 0.66951 0.14143 0.22706 0.0
C158 C 0.55802 0.99811 0.85058 0.0
C159 C 0.67622 0.06136 0.07651 0.0
H160 H 0.30221 0.85164 0.78393 0.0
H161 H 0.37636 0.93706 0.78044 0.0
H162 H 0.31654 0.89378 0.72303 0.0
H163 H 0.4087 0.89688 0.96719 0.0
H164 H 0.69101 0.18828 0.22329 0.0
H165 H 0.65017 0.09245 0.21688 0.0
H166 H 0.71306 0.10883 0.02864 0.0
H167 H 0.65708 0.15045 0.28197 0.0
Tb168 Tb 0.52612 0.4551 0.96784 0.0
C169 C 0.6477 0.58767 0.15036 0.0
N170 N 0.6098 0.57909 0.15968 0.0
C171 C 0.62877 0.60572 0.30683 0.0
C172 C 0.67785 0.60516 0.21943 0.0
C173 C 0.59984 0.58843 0.23643 0.0
C174 C 0.66797 0.61397 0.29839 0.0
C175 C 0.69523 0.58696 0.05866 0.0
C176 C 0.65632 0.5787 0.07102 0.0
C177 C 0.72541 0.60426 0.12733 0.0
C178 C 0.71674 0.61333 0.20749 0.0
Tb179 Tb 0.56564 0.5511 0.03962 0.0
N180 N 0.62661 0.56085 0.00623 0.0
C181 C 0.70263 0.57736 0.97766 0.0
C182 C 0.63332 0.55289 0.92694 0.0
C183 C 0.67146 0.56052 0.91149 0.0
H184 H 0.56948 0.58341 0.24353 0.0
H185 H 0.67672 0.55366 0.8485 0.0
H186 H 0.52081 0.42342 0.76332 0.0
H187 H 0.41693 0.45165 0.16293 0.0
H188 H 0.60945 0.54105 0.87546 0.0
H189 H 0.73215 0.58315 0.9655 0.0
H190 H 0.48369 0.46453 0.13387 0.0
H191 H 0.62073 0.61296 0.36748 0.0
H192 H 0.75554 0.61072 0.11912 0.0
H193 H 0.74032 0.62671 0.25984 0.0
H194 H 0.4689 0.39384 0.6406 0.0
H195 H 0.69028 0.62744 0.35306 0.0
H196 H 0.36092 0.42212 0.04728 0.0
N197 N 0.48129 0.42721 0.84878 0.0
C198 C 0.44365 0.4184 0.8593 0.0
C199 C 0.46135 0.40086 0.70172 0.0
C200 C 0.41315 0.40088 0.79094 0.0
C201 C 0.49064 0.41816 0.77145 0.0
C202 C 0.4224 0.39232 0.71141 0.0
N203 N 0.46566 0.44507 0.00326 0.0
C204 C 0.45955 0.45281 0.08295 0.0
C205 C 0.39701 0.41868 0.95274 0.0
C206 C 0.43565 0.42719 0.93916 0.0
C207 C 0.39021 0.42809 0.03419 0.0
C208 C 0.42171 0.44496 0.09959 0.0
H209 H 0.3998 0.37884 0.65726 0.0
H210 H 0.35068 0.37907 0.75231 0.0
H211 H 0.33656 0.39469 0.89393 0.0
O212 O 0.53781 0.42772 0.04268 0.0
O213 O 0.4828 0.48456 0.95533 0.0
O214 O 0.50481 0.53545 0.05498 0.0
O215 O 0.52911 0.40696 0.91022 0.0
O216 O 0.5542 0.4836 0.09698 0.0
O217 O 0.53922 0.53352 0.12945 0.0
O218 O 0.55568 0.57858 0.96418 0.0
O219 O 0.60897 0.52147 0.05176 0.0
O220 O 0.58657 0.47082 0.95145 0.0
O221 O 0.56202 0.59919 0.09626 0.0
O222 O 0.53728 0.52264 0.91072 0.0
O223 O 0.55233 0.47276 0.87781 0.0
C224 C 0.47623 0.51143 0.00523 0.0
C225 C 0.56925 0.38547 0.98707 0.0
C226 C 0.59029 0.33736 0.99622 0.0
C227 C 0.62933 0.35255 0.99828 0.0
C228 C 0.60834 0.4001 0.98988 0.0
C229 C 0.63817 0.38366 0.99536 0.0
C230 C 0.56035 0.35423 0.99055 0.0
C231 C 0.54607 0.50892 0.14983 0.0
C232 C 0.5373 0.40224 0.97986 0.0
C233 C 0.37453 0.39247 0.80411 0.0
C234 C 0.36649 0.40133 0.88478 0.0
C235 C 0.61528 0.49443 0.00208 0.0
C236 C 0.52378 0.62088 0.01608 0.0
C237 C 0.50387 0.66902 0.00391 0.0
C238 C 0.4643 0.65346 0.99558 0.0
C239 C 0.48419 0.60592 0.00743 0.0
C240 C 0.53351 0.65236 0.01434 0.0
C241 C 0.45466 0.6222 0.99734 0.0
C242 C 0.54565 0.49749 0.85777 0.0
C243 C 0.55534 0.60402 0.02636 0.0
H244 H 0.65306 0.34026 1.00097 0.0
H245 H 0.61572 0.42412 0.98764 0.0
H246 H 0.66829 0.39502 0.99693 0.0
H247 H 0.53012 0.3433 0.98973 0.0
H248 H 0.44075 0.66558 0.98882 0.0
H249 H 0.47615 0.58171 0.00842 0.0
H250 H 0.56416 0.66364 0.01994 0.0
H251 H 0.42412 0.61057 0.99104 0.0
C252 C 1.01266 0.48228 0.70594 0.0
C253 C 1.03513 0.5076 0.77614 0.0
C254 C 1.01479 0.48281 0.62602 0.0
C255 C 1.03918 0.50891 0.61439 0.0
C256 C 0.06084 0.53447 0.68467 0.0
C257 C 0.0588 0.53391 0.76437 0.0
C258 C 1.04474 0.50984 0.53087 0.0
C259 C 1.02033 0.4911 0.45918 0.0
C260 C 1.02707 0.49214 0.37643 0.0
C261 C 0.99479 0.48169 0.31071 0.0
C262 C 0.99993 0.48212 0.23206 0.0
C263 C 1.03753 0.49294 0.21735 0.0
H264 H 0.09083 0.50914 0.40863 0.0
C265 C 0.07004 0.5025 0.28214 0.0
C266 C 0.06493 0.50216 0.36087 0.0
H267 H 0.09953 0.50991 0.27169 0.0
H268 H 0.99421 0.46153 0.71242 0.0
H269 H 0.99819 0.46222 0.57401 0.0
H270 H 0.07997 0.55487 0.67796 0.0
H271 H 0.07656 0.5539 0.81666 0.0
H272 H 0.06972 0.52757 0.52916 0.0
H273 H 0.99344 0.47527 0.4606 0.0
H274 H 0.96539 0.47344 0.32041 0.0
H275 H 0.97439 0.47435 0.18293 0.0
C276 C 0.53102 0.98669 0.24791 0.0
C277 C 0.55149 0.01259 0.22931 0.0
C278 C 0.53275 0.98801 0.33013 0.0
C279 C 0.55529 0.01526 0.39572 0.0
C280 C 0.57508 0.04135 0.37691 0.0
C281 C 0.57338 0.04 0.29476 0.0
C282 C 0.55823 0.01785 0.48434 0.0
C283 C 0.55168 0.99225 0.50956 0.0
C284 C 0.55427 0.9947 0.59799 0.0
C285 C 0.53399 0.96861 0.61601 0.0
C286 C 0.53539 0.96967 0.69784 0.0
C287 C 0.55749 0.9968 0.76382 0.0
H288 H 0.59405 0.04196 0.65303 0.0
C289 C 0.57848 0.02273 0.74606 0.0
C290 C 0.57696 0.02172 0.66405 0.0
H291 H 0.59588 0.04393 0.79561 0.0
H292 H 0.51388 0.96522 0.19884 0.0
H293 H 0.51595 0.96776 0.34157 0.0
H294 H 0.59233 0.06277 0.42599 0.0
H295 H 0.58933 0.06046 0.28256 0.0
H296 H 0.56663 0.04192 0.53011 0.0
H297 H 0.54334 0.96818 0.46382 0.0
H298 H 0.5166 0.94737 0.56654 0.0
H299 H 0.51909 0.94918 0.70932 0.0
C300 C 0.53191 0.51893 0.74297 0.0
C301 C 0.5472 0.49688 0.77218 0.0
C302 C 0.53483 0.51932 0.66344 0.0
C303 C 0.55303 0.4975 0.61107 0.0
C304 C 0.5686 0.47568 0.64076 0.0
C305 C 0.56569 0.47531 0.72028 0.0
C306 C 0.55773 0.49741 0.52661 0.0
C307 C 0.53508 0.50969 0.48195 0.0
C308 C 0.53965 0.50952 0.39735 0.0
C309 C 0.52358 0.53102 0.36723 0.0
C310 C 0.5262 0.53122 0.28745 0.0
C311 C 0.54491 0.50981 0.23575 0.0
H312 H 0.56978 0.47012 0.3644 0.0
C313 C 0.56077 0.48809 0.26544 0.0
C314 C 0.55812 0.48786 0.3452 0.0
H315 H 0.57495 0.47099 0.22676 0.0
H316 H 0.51794 0.53617 0.78181 0.0
H317 H 0.5236 0.5373 0.64454 0.0
H318 H 0.5832 0.45886 0.60231 0.0
H319 H 0.5786 0.4585 0.74155 0.0
H320 H 0.58065 0.48642 0.5006 0.0
H321 H 0.51215 0.52065 0.508 0.0
H322 H 0.50875 0.5477 0.40548 0.0
H323 H 0.51283 0.54774 0.26581 0.0
C324 C 0.18692 0.50583 0.07101 0.0
C325 C 0.1585 0.50053 1.00094 0.0
C326 C 0.22668 0.50658 0.06454 0.0
C327 C 0.23892 0.50198 0.9875 0.0
C328 C 0.21019 0.49639 0.91765 0.0
C329 C 0.17068 0.49584 0.92429 0.0
C330 C 0.28065 0.50164 0.9758 0.0
C331 C 0.31269 0.51414 0.03731 0.0
C332 C 0.3544 0.51395 0.02479 0.0
C333 C 0.38555 0.53423 0.08878 0.0
C334 C 0.42498 0.53412 0.08152 0.0
C335 C 0.43448 0.51348 0.01014 0.0
H336 H 0.34141 0.47701 0.90224 0.0
C337 C 0.40348 0.49362 0.94537 0.0
C338 C 0.36402 0.4936 0.95269 0.0
H339 H 0.40965 0.47765 0.88907 0.0
H340 H 0.17831 0.50903 0.13073 0.0
H341 H 0.24736 0.51013 0.11975 0.0
H342 H 0.21835 0.49253 0.85731 0.0
H343 H 0.14962 0.49186 0.86914 0.0
H344 H 0.28491 0.49167 0.91244 0.0
H345 H 0.30866 0.52617 0.09989 0.0
H346 H 0.37939 0.55012 0.14524 0.0
H347 H 0.44799 0.54967 0.13289 0.0
C348 C 0.75809 0.17123 0.05212 0.0
C349 C 0.72325 0.17442 0.08357 0.0
C350 C 0.77596 0.19358 0.01892 0.0
C351 C 0.75922 0.21957 0.01641 0.0
C352 C 0.72389 0.22217 0.04588 0.0
C353 C 0.70627 0.20006 0.07955 0.0
C354 C 0.77703 0.24428 0.98283 0.0
C355 C 0.81554 0.25143 0.9785 0.0
C356 C 0.83295 0.27737 0.94837 0.0
C357 C 0.86764 0.27568 0.91559 0.0
C358 C 0.88468 0.29954 0.88622 0.0
C359 C 0.8675 0.32577 0.88962 0.0
H360 H 0.79069 0.30715 0.98189 0.0
C361 C 0.83339 0.32791 0.92448 0.0
C362 C 0.81639 0.3041 0.95382 0.0
H363 H 0.82 0.34823 0.92994 0.0
H364 H 0.77193 0.15176 0.05438 0.0
H365 H 0.80253 0.19011 0.99467 0.0
H366 H 0.71004 0.24169 0.04389 0.0
H367 H 0.67914 0.20298 0.10206 0.0
H368 H 0.75744 0.25772 0.96319 0.0
H369 H 0.83527 0.23788 0.99708 0.0
H370 H 0.88129 0.25557 0.91149 0.0
H371 H 0.91086 0.2971 0.85936 0.0
C372 C 0.56898 0.90438 0.03128 0.0
C373 C 0.54624 0.91376 0.97462 0.0
C374 C 0.56057 0.87265 0.03063 0.0
C375 C 0.52896 0.84942 0.97327 0.0
C376 C 0.50586 0.85902 0.91771 0.0
C377 C 0.51445 0.89066 0.91802 0.0
C378 C 0.51804 0.8154 0.97097 0.0
C379 C 0.54264 0.80067 0.00361 0.0
C380 C 0.53176 0.76664 1.00153 0.0
C381 C 0.55569 0.75678 0.05518 0.0
C382 C 0.5469 0.72524 0.0557 0.0
C383 C 0.51393 0.70251 0.00212 0.0
H384 H 0.48043 0.74965 0.9024 0.0
C385 C 0.4903 0.71218 0.9474 0.0
C386 C 0.49908 0.74373 0.94685 0.0
H387 H 0.46516 0.6952 0.90391 0.0
H388 H 0.59302 0.92163 0.07714 0.0
H389 H 0.57843 0.86684 0.07655 0.0
H390 H 0.48103 0.84191 0.87345 0.0
H391 H 0.49594 0.897 0.87403 0.0
H392 H 0.48839 0.80211 0.94007 0.0
H393 H 0.57232 0.81402 0.03427 0.0
H394 H 0.58119 0.77368 0.09772 0.0
H395 H 0.56561 0.71886 0.09927 0.0
C396 C 0.90185 0.4755 0.95504 0.0
C397 C 0.93261 0.50146 0.00519 0.0
C398 C 0.86222 0.47632 0.95955 0.0
C399 C 0.85232 0.50321 0.01508 0.0
C400 C 0.88333 0.5288 0.066 0.0
C401 C 0.92272 0.52783 0.06144 0.0
C402 C 0.81072 0.50588 0.02396 0.0
C403 C 0.77767 0.48409 0.97755 0.0
C404 C 0.73636 0.48745 0.98692 0.0
C405 C 0.70502 0.46771 0.92277 0.0
C406 C 0.66591 0.46974 0.92813 0.0
C407 C 0.65684 0.49151 0.99819 0.0
H408 H 0.74988 0.52396 0.11018 0.0
C409 C 0.68798 0.51082 0.06333 0.0
C410 C 0.72719 0.5089 0.0579 0.0
H411 H 0.68207 0.52737 0.11901 0.0
H412 H 0.90843 0.45459 0.91183 0.0
H413 H 0.83986 0.4557 0.91958 0.0
H414 H 0.87716 0.54967 0.1105 0.0
H415 H 0.94539 0.54731 0.10425 0.0
H416 H 0.80757 0.52756 0.07061 0.0
H417 H 0.7804 0.46303 0.92829 0.0
H418 H 0.71079 0.45074 0.86757 0.0
H419 H 0.6428 0.45446 0.87664 0.0
C420 C 0.27433 0.67536 0.05012 0.0
C421 C 0.2415 0.67372 0.08927 0.0
C422 C 0.29017 0.70344 0.03532 0.0
C423 C 0.27367 0.73061 0.06046 0.0
C424 C 0.24162 0.72907 0.1019 0.0
C425 C 0.2257 0.70102 0.11606 0.0
C426 C 0.28668 0.76021 0.04037 0.0
C427 C 0.31849 0.76635 0.00617 0.0
C428 C 0.32755 0.79456 0.97867 0.0
C429 C 0.36635 0.80596 0.97086 0.0
C430 C 0.37535 0.83132 0.94085 0.0
C431 C 0.34556 0.84558 0.91719 0.0
H432 H 0.26733 0.80039 0.95752 0.0
C433 C 0.30682 0.83432 0.92553 0.0
C434 C 0.29784 0.80902 0.95534 0.0
H435 H 0.28324 0.84491 0.90832 0.0
H436 H 0.28689 0.65456 0.02829 0.0
H437 H 0.31445 0.70313 0.00217 0.0
H438 H 0.22823 0.74949 0.12211 0.0
H439 H 0.20071 0.70059 0.14744 0.0
H440 H 0.26854 0.77775 0.0541 0.0
H441 H 0.3389 0.7506 0.998 0.0
H442 H 0.38973 0.79503 0.98732 0.0
H443 H 0.40541 0.83915 0.93407 0.0
C444 C 0.60731 0.29403 0.04849 0.0
C445 C 0.58104 0.30403 0.99935 0.0
C446 C 0.59923 0.26263 0.04998 0.0
C447 C 0.56456 0.24028 0.00227 0.0
C448 C 0.53793 0.25042 0.95466 0.0
C449 C 0.54612 0.28177 0.95272 0.0
C450 C 0.55475 0.20661 0.00239 0.0
C451 C 0.58227 0.19076 0.01832 0.0
C452 C 0.57329 0.1569 0.01716 0.0
C453 C 0.60319 0.13968 0.00737 0.0
C454 C 0.59663 0.1082 0.00785 0.0
C455 C 0.56013 0.09314 0.01862 0.0
H456 H 0.51295 0.15428 0.03791 0.0
C457 C 0.53004 0.11011 0.02827 0.0
C458 C 0.53653 0.14173 0.02798 0.0
H459 H 0.50184 0.09928 0.03807 0.0
H460 H 0.63402 0.31062 0.08691 0.0
H461 H 0.61993 0.25622 0.08981 0.0
H462 H 0.51086 0.23386 0.91771 0.0
H463 H 0.52533 0.28833 0.91341 0.0
H464 H 0.52396 0.19408 0.98433 0.0
H465 H 0.61316 0.2025 0.0288 0.0
H466 H 0.63166 0.15047 0.99821 0.0
H467 H 0.61984 0.09532 0.99767 0.0
loop_
_geom_bond_atom_site_label_1
_geom_bond_atom_site_label_2
_geom_bond_distance
_geom_bond_site_symmetry_2
_ccdc_geom_bond_type
Tb0 N29 2.611 1_455 S
Tb0 N35 2.572 1_455 S
Tb0 O44 2.465 1_554 S
Tb0 O45 2.387 1_455 S
Tb0 O47 2.428 . S
Tb0 O48 2.308 1_554 S
Tb0 O52 2.349 . S
Tb0 O55 2.393 . S
Tb0 C64 2.802 . S
C1 N2 1.379 . S
C1 C4 1.416 . S
C1 C8 1.424 . S
N2 C1 1.379 . S
N2 C5 1.334 1_455 S
N2 Tb11 2.617 1_455 S
C3 C5 1.390 1_455 S
C3 C6 1.339 . S
C3 H23 0.930 . S
C4 C1 1.416 . S
C4 C6 1.416 . S
C4 C10 1.448 . S
C5 N2 1.334 1_655 S
C5 C3 1.390 1_655 S
C5 H16 0.930 . S
C6 C3 1.339 . S
C6 C4 1.416 . S
C6 H27 0.930 . S
C7 C8 1.413 . S
C7 C9 1.427 . S
C7 C13 1.416 1_556 S
C8 C1 1.424 . S
C8 C7 1.413 . S
C8 N12 1.361 . S
C9 C7 1.427 . S
C9 C10 1.328 . S
C9 H24 0.929 . S
C10 C4 1.448 . S
C10 C9 1.328 . S
C10 H25 0.930 . S
Tb11 N2 2.617 1_655 S
Tb11 N12 2.572 1_655 S
Tb11 O46 2.349 . S
Tb11 O49 2.393 . S
Tb11 O50 2.465 1_556 S
Tb11 O51 2.387 1_655 S
Tb11 O53 2.428 . S
Tb11 O54 2.308 1_656 S
Tb11 C75 2.802 . S
N12 C8 1.361 . S
N12 Tb11 2.572 1_455 S
N12 C14 1.340 1_556 S
C13 C7 1.416 1_554 S
C13 C15 1.332 . S
C13 H21 0.931 . S
C14 N12 1.340 1_554 S
C14 C15 1.407 . S
C14 H20 0.930 . S
C15 C13 1.332 . S
C15 C14 1.407 . S
C15 H17 0.929 . S
H16 C5 0.930 . S
H17 C15 0.929 . S
H18 C33 0.930 . S
H19 C40 0.929 . S
H20 C14 0.930 . S
H21 C13 0.931 . S
H22 C36 0.930 . S
H23 C3 0.930 . S
H24 C9 0.929 . S
H25 C10 0.930 . S
H26 C31 0.931 1_455 S
H27 C6 0.930 . S
H28 C39 0.931 . S
N29 Tb0 2.611 1_655 S
N29 C30 1.388 . S
N29 C33 1.333 1_655 S
C30 N29 1.388 . S
C30 C32 1.416 . S
C30 C38 1.424 . S
C31 H26 0.931 1_655 S
C31 C33 1.390 1_655 S
C31 C34 1.339 . S
C32 C30 1.416 . S
C32 C34 1.416 . S
C32 C65 1.448 . S
C33 H18 0.930 . S
C33 N29 1.333 1_455 S
C33 C31 1.390 1_455 S
C34 C31 1.339 . S
C34 C32 1.416 . S
C34 H41 0.930 . S
N35 Tb0 2.572 1_655 S
N35 C36 1.340 1_554 S
N35 C38 1.361 . S
C36 H22 0.930 . S
C36 N35 1.340 1_556 S
C36 C40 1.407 . S
C37 C38 1.413 . S
C37 C39 1.416 1_554 S
C37 C66 1.427 . S
C38 C30 1.424 . S
C38 N35 1.361 . S
C38 C37 1.413 . S
C39 H28 0.931 . S
C39 C37 1.416 1_556 S
C39 C40 1.332 . S
C40 H19 0.929 . S
C40 C36 1.407 . S
C40 C39 1.332 . S
H41 C34 0.930 . S
H42 C65 0.930 . S
H43 C66 0.929 . S
O44 Tb0 2.465 1_556 S
O44 C64 1.264 1_556 S
O45 Tb0 2.387 1_655 S
O45 C56 1.261 1_554 S
O46 Tb11 2.349 . S
O46 C56 1.245 . S
O47 Tb0 2.428 . S
O47 C64 1.256 . S
O48 Tb0 2.308 1_556 S
O48 C63 1.267 1_455 S
O49 Tb11 2.393 . S
O49 C63 1.248 . S
O50 Tb11 2.465 1_554 S
O50 C75 1.264 1_554 S
O51 Tb11 2.387 1_455 S
O51 C67 1.264 1_556 S
O52 Tb0 2.349 . S
O52 C67 1.243 . S
O53 Tb11 2.428 . S
O53 C75 1.256 . S
O54 Tb11 2.308 1_454 S
O54 C74 1.266 . S
O55 Tb0 2.393 . S
O55 C74 1.248 . S
C56 O45 1.261 1_556 S
C56 O46 1.245 . S
C57 C60 1.399 . S
C57 C62 1.383 . S
C57 C64 1.496 . S
C58 C59 1.399 . S
C58 C62 1.389 . S
C59 C58 1.399 . S
C59 C61 1.380 . S
C59 H76 0.929 . S
C60 C57 1.399 . S
C60 C61 1.392 . S
C60 H77 0.929 . S
C61 C59 1.380 . S
C61 C60 1.392 . S
C61 H78 0.929 . S
C62 C57 1.383 . S
C62 C58 1.389 . S
C62 H79 0.931 1_554 S
C63 O48 1.267 1_655 S
C63 O49 1.248 . S
C64 Tb0 2.802 . S
C64 O44 1.264 1_554 S
C64 O47 1.256 . S
C64 C57 1.496 . S
C65 C32 1.448 . S
C65 H42 0.930 . S
C65 C66 1.328 . S
C66 C37 1.427 . S
C66 H43 0.929 . S
C66 C65 1.328 . S
C67 O51 1.264 1_554 S
C67 O52 1.243 . S
C68 C71 1.399 . S
C68 C72 1.383 . S
C68 C75 1.496 . S
C69 C70 1.399 . S
C69 C72 1.389 . S
C70 C69 1.399 . S
C70 C73 1.380 . S
C70 H80 0.929 . S
C71 C68 1.399 . S
C71 C73 1.392 . S
C71 H81 0.929 . S
C72 C68 1.383 . S
C72 C69 1.389 . S
C72 H82 0.931 1_556 S
C73 C70 1.380 . S
C73 C71 1.392 . S
C73 H83 0.929 . S
C74 O54 1.266 . S
C74 O55 1.248 . S
C75 Tb11 2.802 . S
C75 O50 1.264 1_556 S
C75 O53 1.256 . S
C75 C68 1.496 . S
H76 C59 0.929 . S
H77 C60 0.929 . S
H78 C61 0.929 . S
H79 C62 0.931 1_556 S
H80 C70 0.929 . S
H81 C71 0.929 . S
H82 C72 0.931 1_554 S
H83 C73 0.929 . S
Tb84 N113 2.617 . S
Tb84 N119 2.572 1_566 S
Tb84 O128 2.465 1_556 S
Tb84 O129 2.387 1_565 S
Tb84 O131 2.428 . S
Tb84 O132 2.308 1_566 S
Tb84 O136 2.349 . S
Tb84 O139 2.393 . S
Tb84 C148 2.802 . S
C85 N86 1.379 1_565 S
C85 C88 1.416 . S
C85 C92 1.424 . S
N86 C85 1.379 1_545 S
N86 C89 1.334 . S
N86 Tb95 2.617 . S
C87 C89 1.390 . S
C87 C90 1.339 1_545 S
C87 H107 0.930 . S
C88 C85 1.416 . S
C88 C90 1.416 . S
C88 C94 1.448 . S
C89 N86 1.334 . S
C89 C87 1.390 . S
C89 H100 0.930 . S
C90 C87 1.339 1_565 S
C90 C88 1.416 . S
C90 H111 0.930 . S
C91 C92 1.413 1_556 S
C91 C93 1.427 1_556 S
C91 C97 1.416 . S
C92 C85 1.424 . S
C92 C91 1.413 1_554 S
C92 N96 1.361 1_554 S
C93 C91 1.427 1_554 S
C93 C94 1.328 . S
C93 H108 0.929 . S
C94 C88 1.448 . S
C94 C93 1.328 . S
C94 H109 0.930 . S
Tb95 N86 2.617 . S
Tb95 N96 2.572 1_544 S
Tb95 O130 2.349 . S
Tb95 O133 2.393 . S
Tb95 O134 2.465 1_554 S
Tb95 O135 2.387 1_545 S
Tb95 O137 2.428 . S
Tb95 O138 2.308 1_544 S
Tb95 C159 2.802 . S
N96 C92 1.361 1_556 S
N96 Tb95 2.572 1_566 S
N96 C98 1.340 . S
C97 C91 1.416 . S
C97 C99 1.332 . S
C97 H105 0.931 . S
C98 N96 1.340 . S
C98 C99 1.407 . S
C98 H104 0.930 . S
C99 C97 1.332 . S
C99 C98 1.407 . S
C99 H101 0.929 . S
H100 C89 0.930 . S
H101 C99 0.929 . S
H102 C117 0.930 . S
H103 C124 0.929 . S
H104 C98 0.930 . S
H105 C97 0.931 . S
H106 C120 0.930 . S
H107 C87 0.930 . S
H108 C93 0.929 . S
H109 C94 0.930 . S
H110 C115 0.930 . S
H111 C90 0.930 . S
H112 C123 0.931 . S
N113 Tb84 2.617 . S
N113 C114 1.379 1_565 S
N113 C117 1.334 . S
C114 N113 1.379 1_545 S
C114 C116 1.416 . S
C114 C122 1.424 . S
C115 H110 0.930 . S
C115 C117 1.390 . S
C115 C118 1.339 1_565 S
C116 C114 1.416 . S
C116 C118 1.416 . S
C116 C149 1.448 . S
C117 H102 0.930 . S
C117 N113 1.334 . S
C117 C115 1.390 . S
C118 C115 1.339 1_545 S
C118 C116 1.416 . S
C118 H125 0.930 . S
N119 Tb84 2.572 1_544 S
N119 C120 1.340 . S
N119 C122 1.361 1_554 S
C120 H106 0.930 . S
C120 N119 1.340 . S
C120 C124 1.407 . S
C121 C122 1.413 1_554 S
C121 C123 1.416 . S
C121 C150 1.427 1_554 S
C122 C114 1.424 . S
C122 N119 1.361 1_556 S
C122 C121 1.413 1_556 S
C123 H112 0.931 . S
C123 C121 1.416 . S
C123 C124 1.332 . S
C124 H103 0.929 . S
C124 C120 1.407 . S
C124 C123 1.332 . S
H125 C118 0.930 . S
H126 C149 0.930 . S
H127 C150 0.929 . S
O128 Tb84 2.465 1_554 S
O128 C148 1.264 1_554 S
O129 Tb84 2.387 1_545 S
O129 C140 1.264 1_556 S
O130 Tb95 2.349 . S
O130 C140 1.243 . S
O131 Tb84 2.428 . S
O131 C148 1.256 . S
O132 Tb84 2.308 1_544 S
O132 C147 1.266 . S
O133 Tb95 2.393 . S
O133 C147 1.248 . S
O134 Tb95 2.465 1_556 S
O134 C159 1.264 1_556 S
O135 Tb95 2.387 1_565 S
O135 C151 1.264 1_554 S
O136 Tb84 2.349 . S
O136 C151 1.243 . S
O137 Tb95 2.428 . S
O137 C159 1.256 . S
O138 Tb95 2.308 1_566 S
O138 C158 1.264 . S
O139 Tb84 2.393 . S
O139 C158 1.248 . S
C140 O129 1.264 1_554 S
C140 O130 1.243 . S
C141 C144 1.399 . S
C141 C146 1.383 1_556 S
C141 C148 1.496 . S
C142 C143 1.399 1_554 S
C142 C146 1.389 . S
C143 C142 1.399 1_556 S
C143 C145 1.380 . S
C143 H160 0.929 . S
C144 C141 1.399 . S
C144 C145 1.392 . S
C144 H161 0.929 . S
C145 C143 1.380 . S
C145 C144 1.392 . S
C145 H162 0.929 . S
C146 C141 1.383 1_554 S
C146 C142 1.389 . S
C146 H163 0.931 . S
C147 O132 1.266 . S
C147 O133 1.248 . S
C148 Tb84 2.802 . S
C148 O128 1.264 1_556 S
C148 O131 1.256 . S
C148 C141 1.496 . S
C149 C116 1.448 . S
C149 H126 0.930 . S
C149 C150 1.328 . S
C150 C121 1.427 1_556 S
C150 H127 0.929 . S
C150 C149 1.328 . S
C151 O135 1.264 1_556 S
C151 O136 1.243 . S
C152 C155 1.399 . S
C152 C156 1.383 1_554 S
C152 C159 1.496 . S
C153 C154 1.399 1_556 S
C153 C156 1.389 . S
C154 C153 1.399 1_554 S
C154 C157 1.380 . S
C154 H164 0.929 . S
C155 C152 1.399 . S
C155 C157 1.392 . S
C155 H165 0.929 . S
C156 C152 1.383 1_556 S
C156 C153 1.389 . S
C156 H166 0.931 . S
C157 C154 1.380 . S
C157 C155 1.392 . S
C157 H167 0.929 . S
C158 O138 1.264 . S
C158 O139 1.248 . S
C159 Tb95 2.802 . S
C159 O134 1.264 1_554 S
C159 O137 1.256 . S
C159 C152 1.496 . S
H160 C143 0.929 . S
H161 C144 0.929 . S
H162 C145 0.929 . S
H163 C146 0.931 . S
H164 C154 0.929 . S
H165 C155 0.929 . S
H166 C156 0.931 . S
H167 C157 0.929 . S
Tb168 N197 2.617 . S
Tb168 N203 2.572 . S
Tb168 O212 2.465 1_556 S
Tb168 O213 2.387 . S
Tb168 O215 2.428 . S
Tb168 O216 2.308 1_556 S
Tb168 O220 2.349 . S
Tb168 O223 2.393 . S
Tb168 C232 2.802 . S
C169 N170 1.379 . S
C169 C172 1.416 . S
C169 C176 1.424 . S
N170 C169 1.379 . S
N170 C173 1.334 . S
N170 Tb179 2.617 . S
C171 C173 1.390 . S
C171 C174 1.339 . S
C171 H191 0.930 . S
C172 C169 1.416 . S
C172 C174 1.416 . S
C172 C178 1.448 . S
C173 N170 1.334 . S
C173 C171 1.390 . S
C173 H184 0.930 . S
C174 C171 1.339 . S
C174 C172 1.416 . S
C174 H195 0.930 . S
C175 C176 1.413 . S
C175 C177 1.427 . S
C175 C181 1.417 1_554 S
C176 C169 1.424 . S
C176 C175 1.413 . S
C176 N180 1.361 . S
C177 C175 1.427 . S
C177 C178 1.328 . S
C177 H192 0.929 . S
C178 C172 1.448 . S
C178 C177 1.328 . S
C178 H193 0.930 . S
Tb179 N170 2.617 . S
Tb179 N180 2.572 . S
Tb179 O214 2.349 . S
Tb179 O217 2.393 . S
Tb179 O218 2.465 1_554 S
Tb179 O219 2.387 . S
Tb179 O221 2.428 . S
Tb179 O222 2.308 1_554 S
Tb179 C243 2.802 . S
N180 C176 1.361 . S
N180 Tb179 2.572 . S
N180 C182 1.340 1_554 S
C181 C175 1.417 1_556 S
C181 C183 1.332 . S
C181 H189 0.931 . S
C182 N180 1.340 1_556 S
C182 C183 1.407 . S
C182 H188 0.930 . S
C183 C181 1.332 . S
C183 C182 1.407 . S
C183 H185 0.929 . S
H184 C173 0.930 . S
H185 C183 0.929 . S
H186 C201 0.930 . S
H187 C208 0.929 . S
H188 C182 0.930 . S
H189 C181 0.931 . S
H190 C204 0.930 . S
H191 C171 0.930 . S
H192 C177 0.929 . S
H193 C178 0.930 . S
H194 C199 0.930 . S
H195 C174 0.930 . S
H196 C207 0.931 . S
N197 Tb168 2.617 . S
N197 C198 1.379 . S
N197 C201 1.334 . S
C198 N197 1.379 . S
C198 C200 1.416 . S
C198 C206 1.424 . S
C199 H194 0.930 . S
C199 C201 1.390 . S
C199 C202 1.339 . S
C200 C198 1.416 . S
C200 C202 1.416 . S
C200 C233 1.448 . S
C201 H186 0.930 . S
C201 N197 1.334 . S
C201 C199 1.390 . S
C202 C199 1.339 . S
C202 C200 1.416 . S
C202 H209 0.930 . S
N203 Tb168 2.572 . S
N203 C204 1.340 1_556 S
N203 C206 1.361 . S
C204 H190 0.930 . S
C204 N203 1.340 1_554 S
C204 C208 1.407 . S
C205 C206 1.413 . S
C205 C207 1.416 1_556 S
C205 C234 1.427 . S
C206 C198 1.424 . S
C206 N203 1.361 . S
C206 C205 1.413 . S
C207 H196 0.931 . S
C207 C205 1.416 1_554 S
C207 C208 1.332 . S
C208 H187 0.929 . S
C208 C204 1.407 . S
C208 C207 1.332 . S
H209 C202 0.930 . S
H210 C233 0.930 . S
H211 C234 0.929 . S
O212 Tb168 2.465 1_554 S
O212 C232 1.264 1_554 S
O213 Tb168 2.387 . S
O213 C224 1.264 . S
O214 Tb179 2.349 . S
O214 C224 1.243 1_554 S
O215 Tb168 2.428 . S
O215 C232 1.256 . S
O216 Tb168 2.308 1_554 S
O216 C231 1.266 . S
O217 Tb179 2.393 . S
O217 C231 1.248 . S
O218 Tb179 2.465 1_556 S
O218 C243 1.264 1_556 S
O219 Tb179 2.387 . S
O219 C235 1.264 . S
O220 Tb168 2.349 . S
O220 C235 1.243 1_556 S
O221 Tb179 2.428 . S
O221 C243 1.256 . S
O222 Tb179 2.308 1_556 S
O222 C242 1.266 . S
O223 Tb168 2.393 . S
O223 C242 1.248 . S
C224 O213 1.264 . S
C224 O214 1.243 1_556 S
C225 C228 1.399 . S
C225 C230 1.377 1_556 S
C225 C232 1.496 . S
C226 C227 1.399 . S
C226 C230 1.391 1_556 S
C227 C226 1.399 . S
C227 C229 1.380 . S
C227 H244 0.929 . S
C228 C225 1.399 . S
C228 C229 1.392 . S
C228 H245 0.929 . S
C229 C227 1.380 . S
C229 C228 1.392 . S
C229 H246 0.929 . S
C230 C225 1.377 1_554 S
C230 C226 1.391 1_554 S
C230 H247 0.936 . S
C231 O216 1.266 . S
C231 O217 1.248 . S
C232 Tb168 2.802 . S
C232 O212 1.264 1_556 S
C232 O215 1.256 . S
C232 C225 1.496 . S
C233 C200 1.448 . S
C233 H210 0.930 . S
C233 C234 1.328 . S
C234 C205 1.427 . S
C234 H211 0.929 . S
C234 C233 1.328 . S
C235 O219 1.264 . S
C235 O220 1.243 1_554 S
C236 C239 1.399 . S
C236 C240 1.394 . S
C236 C243 1.496 . S
C237 C238 1.399 . S
C237 C240 1.387 . S
C238 C237 1.399 . S
C238 C241 1.380 . S
C238 H248 0.929 . S
C239 C236 1.399 . S
C239 C241 1.392 . S
C239 H249 0.929 . S
C240 C236 1.394 . S
C240 C237 1.387 . S
C240 H250 0.922 1_554 S
C241 C238 1.380 . S
C241 C239 1.392 . S
C241 H251 0.929 . S
C242 O222 1.266 . S
C242 O223 1.248 . S
C243 Tb179 2.802 . S
C243 O218 1.264 1_554 S
C243 O221 1.256 . S
C243 C236 1.496 . S
H244 C227 0.929 . S
H245 C228 0.929 . S
H246 C229 0.929 . S
H247 C230 0.936 . S
H248 C238 0.929 . S
H249 C239 0.929 . S
H250 C240 0.922 1_556 S
H251 C241 0.929 . S
C252 C253 1.386 1_655 S
C252 C254 1.383 . S
C252 H268 0.951 . S
C253 C252 1.386 1_455 S
C253 C257 1.383 . S
C254 C252 1.383 . S
C254 C255 1.402 1_655 S
C254 H269 0.951 . S
C255 C254 1.402 1_455 S
C255 C256 1.375 . S
C255 C258 1.481 . S
C256 C255 1.375 . S
C256 C257 1.367 . S
C256 H270 0.951 . S
C257 C253 1.383 . S
C257 C256 1.367 . S
C257 H271 0.950 . S
C258 C255 1.481 . S
C258 C259 1.297 1_455 S
C258 H272 0.950 . S
C259 C258 1.297 1_655 S
C259 C260 1.479 . S
C259 H273 0.950 . S
C260 C259 1.479 . S
C260 C261 1.375 . S
C260 C266 1.404 1_655 S
C261 C260 1.375 . S
C261 C262 1.369 . S
C261 H274 0.950 . S
C262 C261 1.369 . S
C262 C263 1.380 1_655 S
C262 H275 0.951 . S
C263 C262 1.380 1_455 S
C263 C265 1.392 . S
H264 C266 0.949 . S
C265 C263 1.392 . S
C265 C266 1.385 . S
C265 H267 0.950 . S
C266 C260 1.404 1_455 S
C266 H264 0.949 . S
C266 C265 1.385 . S
H267 C265 0.950 . S
H268 C252 0.951 . S
H269 C254 0.951 . S
H270 C256 0.951 . S
H271 C257 0.950 . S
H272 C258 0.950 . S
H273 C259 0.950 . S
H274 C261 0.950 . S
H275 C262 0.951 . S
C276 C277 1.386 1_565 S
C276 C278 1.383 . S
C276 H292 0.951 . S
C277 C276 1.386 1_545 S
C277 C281 1.383 . S
C278 C276 1.383 . S
C278 C279 1.402 1_565 S
C278 H293 0.951 . S
C279 C278 1.402 1_545 S
C279 C280 1.375 . S
C279 C282 1.481 . S
C280 C279 1.375 . S
C280 C281 1.367 . S
C280 H294 0.951 . S
C281 C277 1.383 . S
C281 C280 1.367 . S
C281 H295 0.950 . S
C282 C279 1.481 . S
C282 C283 1.297 . S
C282 H296 0.950 . S
C283 C282 1.297 . S
C283 C284 1.479 . S
C283 H297 0.950 1_545 S
C284 C283 1.479 . S
C284 C285 1.375 1_545 S
C284 C290 1.404 . S
C285 C284 1.375 1_565 S
C285 C286 1.369 . S
C285 H298 0.950 . S
C286 C285 1.369 . S
C286 C287 1.392 . S
C286 H299 0.951 . S
C287 C286 1.392 . S
C287 C289 1.384 1_565 S
H288 C290 0.949 . S
C289 C287 1.384 1_545 S
C289 C290 1.385 . S
C289 H291 0.950 . S
C290 C284 1.404 . S
C290 H288 0.949 . S
C290 C289 1.385 . S
H291 C289 0.950 . S
H292 C276 0.951 . S
H293 C278 0.951 . S
H294 C280 0.951 . S
H295 C281 0.950 . S
H296 C282 0.950 . S
H297 C283 0.950 1_565 S
H298 C285 0.950 . S
H299 C286 0.951 . S
C300 C301 1.386 . S
C300 C302 1.383 . S
C300 H316 0.951 . S
C301 C300 1.386 . S
C301 C305 1.383 . S
C302 C300 1.383 . S
C302 C303 1.402 . S
C302 H317 0.951 . S
C303 C302 1.402 . S
C303 C304 1.375 . S
C303 C306 1.481 . S
C304 C303 1.375 . S
C304 C305 1.367 . S
C304 H318 0.951 . S
C305 C301 1.383 . S
C305 C304 1.367 . S
C305 H319 0.950 . S
C306 C303 1.481 . S
C306 C307 1.297 . S
C306 H320 0.950 . S
C307 C306 1.297 . S
C307 C308 1.479 . S
C307 H321 0.950 . S
C308 C307 1.479 . S
C308 C309 1.375 . S
C308 C314 1.404 . S
C309 C308 1.375 . S
C309 C310 1.369 . S
C309 H322 0.950 . S
C310 C309 1.369 . S
C310 C311 1.392 . S
C310 H323 0.951 . S
C311 C310 1.392 . S
C311 C313 1.384 . S
H312 C314 0.949 . S
C313 C311 1.384 . S
C313 C314 1.385 . S
C313 H315 0.950 . S
C314 C308 1.404 . S
C314 H312 0.949 . S
C314 C313 1.385 . S
H315 C313 0.950 . S
H316 C300 0.951 . S
H317 C302 0.951 . S
H318 C304 0.951 . S
H319 C305 0.950 . S
H320 C306 0.950 . S
H321 C307 0.950 . S
H322 C309 0.950 . S
H323 C310 0.951 . S
C324 C325 1.386 . S
C324 C326 1.383 . S
C324 H340 0.951 . S
C325 C324 1.386 . S
C325 C329 1.383 1_554 S
C326 C324 1.383 . S
C326 C327 1.402 1_554 S
C326 H341 0.951 . S
C327 C326 1.402 1_556 S
C327 C328 1.375 . S
C327 C330 1.481 . S
C328 C327 1.375 . S
C328 C329 1.367 . S
C328 H342 0.951 . S
C329 C325 1.383 1_556 S
C329 C328 1.367 . S
C329 H343 0.950 . S
C330 C327 1.481 . S
C330 C331 1.297 1_556 S
C330 H344 0.950 . S
C331 C330 1.297 1_554 S
C331 C332 1.481 . S
C331 H345 0.950 . S
C332 C331 1.481 . S
C332 C333 1.379 . S
C332 C338 1.399 1_554 S
C333 C332 1.379 . S
C333 C334 1.369 . S
C333 H346 0.950 . S
C334 C333 1.369 . S
C334 C335 1.392 1_554 S
C334 H347 0.951 . S
C335 C334 1.392 1_556 S
C335 C337 1.384 . S
H336 C338 0.949 . S
C337 C335 1.384 . S
C337 C338 1.385 . S
C337 H339 0.950 . S
C338 C332 1.399 1_556 S
C338 H336 0.949 . S
C338 C337 1.385 . S
H339 C337 0.950 . S
H340 C324 0.951 . S
H341 C326 0.951 . S
H342 C328 0.951 . S
H343 C329 0.950 . S
H344 C330 0.950 . S
H345 C331 0.950 . S
H346 C333 0.950 . S
H347 C334 0.951 . S
C348 C349 1.386 . S
C348 C350 1.383 . S
C348 H364 0.951 . S
C349 C348 1.386 . S
C349 C353 1.383 . S
C350 C348 1.383 . S
C350 C351 1.402 . S
C350 H365 0.951 . S
C351 C350 1.402 . S
C351 C352 1.375 . S
C351 C354 1.481 . S
C352 C351 1.375 . S
C352 C353 1.367 . S
C352 H366 0.951 . S
C353 C349 1.383 . S
C353 C352 1.367 . S
C353 H367 0.950 . S
C354 C351 1.481 . S
C354 C355 1.297 . S
C354 H368 0.950 . S
C355 C354 1.297 . S
C355 C356 1.479 . S
C355 H369 0.950 . S
C356 C355 1.479 . S
C356 C357 1.375 . S
C356 C362 1.404 . S
C357 C356 1.375 . S
C357 C358 1.369 . S
C357 H370 0.950 . S
C358 C357 1.369 . S
C358 C359 1.392 1_556 S
C358 H371 0.951 1_556 S
C359 C358 1.392 1_554 S
C359 C361 1.384 . S
H360 C362 0.949 . S
C361 C359 1.384 . S
C361 C362 1.385 1_554 S
C361 H363 0.950 . S
C362 C356 1.404 . S
C362 H360 0.949 . S
C362 C361 1.385 1_556 S
H363 C361 0.950 . S
H364 C348 0.951 . S
H365 C350 0.951 . S
H366 C352 0.951 . S
H367 C353 0.950 . S
H368 C354 0.950 . S
H369 C355 0.950 . S
H370 C357 0.950 . S
H371 C358 0.951 1_554 S
C372 C373 1.386 . S
C372 C374 1.383 . S
C372 H388 0.951 . S
C373 C372 1.386 . S
C373 C377 1.383 . S
C374 C372 1.383 . S
C374 C375 1.402 . S
C374 H389 0.951 . S
C375 C374 1.402 . S
C375 C376 1.375 . S
C375 C378 1.481 . S
C376 C375 1.375 . S
C376 C377 1.367 . S
C376 H390 0.951 . S
C377 C373 1.383 . S
C377 C376 1.367 . S
C377 H391 0.950 . S
C378 C375 1.481 . S
C378 C379 1.297 1_556 S
C378 H392 0.953 . S
C379 C378 1.297 1_554 S
C379 C380 1.479 . S
C379 H393 0.950 . S
C380 C379 1.479 . S
C380 C381 1.375 1_554 S
C380 C386 1.404 . S
C381 C380 1.375 1_556 S
C381 C382 1.369 . S
C381 H394 0.950 . S
C382 C381 1.369 . S
C382 C383 1.392 . S
C382 H395 0.951 . S
C383 C382 1.392 . S
C383 C385 1.382 1_556 S
H384 C386 0.949 . S
C385 C383 1.382 1_554 S
C385 C386 1.382 . S
C385 H387 0.955 . S
C386 C380 1.404 . S
C386 H384 0.949 . S
C386 C385 1.382 . S
H387 C385 0.955 . S
H388 C372 0.951 . S
H389 C374 0.951 . S
H390 C376 0.951 . S
H391 C377 0.950 . S
H392 C378 0.953 . S
H393 C379 0.950 . S
H394 C381 0.950 . S
H395 C382 0.951 . S
C396 C397 1.387 . S
C396 C398 1.383 . S
C396 H412 0.951 . S
C397 C396 1.387 . S
C397 C401 1.378 1_556 S
C398 C396 1.383 . S
C398 C399 1.402 1_556 S
C398 H413 0.951 . S
C399 C398 1.402 1_554 S
C399 C400 1.375 . S
C399 C402 1.481 . S
C400 C399 1.375 . S
C400 C401 1.367 . S
C400 H414 0.951 . S
C401 C397 1.378 1_554 S
C401 C400 1.367 . S
C401 H415 0.950 . S
C402 C399 1.481 . S
C402 C403 1.297 . S
C402 H416 0.950 . S
C403 C402 1.297 . S
C403 C404 1.479 . S
C403 H417 0.950 1_554 S
C404 C403 1.479 . S
C404 C405 1.375 1_554 S
C404 C410 1.404 . S
C405 C404 1.375 1_556 S
C405 C406 1.369 . S
C405 H418 0.950 . S
C406 C405 1.369 . S
C406 C407 1.392 1_556 S
C406 H419 0.951 . S
C407 C406 1.392 1_554 S
C407 C409 1.384 . S
H408 C410 0.949 . S
C409 C407 1.384 . S
C409 C410 1.385 . S
C409 H411 0.950 . S
C410 C404 1.404 . S
C410 H408 0.949 . S
C410 C409 1.385 . S
H411 C409 0.950 . S
H412 C396 0.951 . S
H413 C398 0.951 . S
H414 C400 0.951 . S
H415 C401 0.950 . S
H416 C402 0.950 . S
H417 C403 0.950 1_556 S
H418 C405 0.950 . S
H419 C406 0.951 . S
C420 C421 1.386 . S
C420 C422 1.383 . S
C420 H436 0.951 1_556 S
C421 C420 1.386 . S
C421 C425 1.383 . S
C422 C420 1.383 . S
C422 C423 1.402 . S
C422 H437 0.951 1_556 S
C423 C422 1.402 . S
C423 C424 1.375 . S
C423 C426 1.481 . S
C424 C423 1.375 . S
C424 C425 1.367 . S
C424 H438 0.951 . S
C425 C421 1.383 . S
C425 C424 1.367 . S
C425 H439 0.950 . S
C426 C423 1.481 . S
C426 C427 1.297 . S
C426 H440 0.950 . S
C427 C426 1.297 . S
C427 C428 1.479 . S
C427 H441 0.950 . S
C428 C427 1.479 . S
C428 C429 1.375 1_556 S
C428 C434 1.404 . S
C429 C428 1.375 1_554 S
C429 C430 1.369 . S
C429 H442 0.950 . S
C430 C429 1.369 . S
C430 C431 1.392 . S
C430 H443 0.951 . S
C431 C430 1.392 . S
C431 C433 1.384 1_554 S
H432 C434 0.949 . S
C433 C431 1.384 1_556 S
C433 C434 1.385 . S
C433 H435 0.950 . S
C434 C428 1.404 . S
C434 H432 0.949 . S
C434 C433 1.385 . S
H435 C433 0.950 . S
H436 C420 0.951 1_554 S
H437 C422 0.951 1_554 S
H438 C424 0.951 . S
H439 C425 0.950 . S
H440 C426 0.950 . S
H441 C427 0.950 . S
H442 C429 0.950 . S
H443 C430 0.951 . S
C444 C445 1.386 1_556 S
C444 C446 1.383 . S
C444 H460 0.951 . S
C445 C444 1.386 1_554 S
C445 C449 1.383 . S
C446 C444 1.383 . S
C446 C447 1.402 1_556 S
C446 H461 0.951 . S
C447 C446 1.402 1_554 S
C447 C448 1.375 . S
C447 C450 1.481 . S
C448 C447 1.375 . S
C448 C449 1.367 . S
C448 H462 0.951 . S
C449 C445 1.383 . S
C449 C448 1.367 . S
C449 H463 0.950 . S
C450 C447 1.481 . S
C450 C451 1.297 . S
C450 H464 0.950 . S
C451 C450 1.297 . S
C451 C452 1.479 . S
C451 H465 0.950 1_554 S
C452 C451 1.479 . S
C452 C453 1.375 1_554 S
C452 C458 1.404 . S
C453 C452 1.375 1_556 S
C453 C454 1.369 . S
C453 H466 0.950 . S
C454 C453 1.369 . S
C454 C455 1.392 1_556 S
C454 H467 0.951 . S
C455 C454 1.392 1_554 S
C455 C457 1.384 . S
H456 C458 0.949 . S
C457 C455 1.384 . S
C457 C458 1.385 . S
C457 H459 0.950 . S
C458 C452 1.404 . S
C458 H456 0.949 . S
C458 C457 1.385 . S
H459 C457 0.950 . S
H460 C444 0.951 . S
H461 C446 0.951 . S
H462 C448 0.951 . S
H463 C449 0.950 . S
H464 C450 0.950 . S
H465 C451 0.950 1_556 S
H466 C453 0.950 . S
H467 C454 0.951 . S
C253 C63 1.498 1_455 S
C263 C74 1.468 . S
C277 C147 1.508 . S
C287 C158 1.538 . S
C301 C242 1.494 . S
C311 C231 1.427 . S
C325 C67 2.270 . S
C335 C224 2.271 . S
C349 C153 0.817 . S
C359 C69 0.596 1_554 S
C373 C151 1.539 . S
C383 C237 1.346 1_556 S
C397 C56 2.269 . S
C407 C235 2.279 . S
C421 C58 0.836 1_556 S
C431 C142 0.610 . S
C445 C226 1.479 1_554 S
C455 C140 1.542 . S
