# Generated by pormake.
# Topology uox, (4)-cn, num edge types: 1
# Building blocks:
#     Node 0, Type 0, BuildingBlock: QUQFOY_clean_sbu_1, # of connection points: 4
#     Node 1, Type 0, BuildingBlock: QUQFOY_clean_sbu_1, # of connection points: 4
#     Node 2, Type 0, BuildingBlock: QUQFOY_clean_sbu_1, # of connection points: 4
#     Node 3, Type 0, BuildingBlock: QUQFOY_clean_sbu_1, # of connection points: 4
#     Node 4, Type 0, BuildingBlock: QUQFOY_clean_sbu_1, # of connection points: 4
#     Node 5, Type 0, BuildingBlock: QUQFOY_clean_sbu_1, # of connection points: 4
#     Node 6, Type 0, BuildingBlock: QUQFOY_clean_sbu_1, # of connection points: 4
#     Node 7, Type 0, BuildingBlock: QUQFOY_clean_sbu_1, # of connection points: 4
#     Node 8, Type 0, BuildingBlock: QUQFOY_clean_sbu_1, # of connection points: 4
#     Node 9, Type 0, BuildingBlock: QUQFOY_clean_sbu_1, # of connection points: 4
#     Node 10, Type 0, BuildingBlock: QUQFOY_clean_sbu_1, # of connection points: 4
#     Node 11, Type 0, BuildingBlock: QUQFOY_clean_sbu_1, # of connection points: 4
#     Node 12, Type 0, BuildingBlock: QUQFOY_clean_sbu_1, # of connection points: 4
#     Node 13, Type 0, BuildingBlock: QUQFOY_clean_sbu_1, # of connection points: 4
#     Node 14, Type 0, BuildingBlock: QUQFOY_clean_sbu_1, # of connection points: 4
#     Node 15, Type 0, BuildingBlock: QUQFOY_clean_sbu_1, # of connection points: 4
#     Node 16, Type 0, BuildingBlock: QUQFOY_clean_sbu_1, # of connection points: 4
#     Node 17, Type 0, BuildingBlock: QUQFOY_clean_sbu_1, # of connection points: 4
#     Node 18, Type 0, BuildingBlock: QUQFOY_clean_sbu_1, # of connection points: 4
#     Node 19, Type 0, BuildingBlock: QUQFOY_clean_sbu_1, # of connection points: 4
#     Node 20, Type 0, BuildingBlock: QUQFOY_clean_sbu_1, # of connection points: 4
#     Node 21, Type 0, BuildingBlock: QUQFOY_clean_sbu_1, # of connection points: 4
#     Node 22, Type 0, BuildingBlock: QUQFOY_clean_sbu_1, # of connection points: 4
#     Node 23, Type 0, BuildingBlock: QUQFOY_clean_sbu_1, # of connection points: 4
#     Node 24, Type 0, BuildingBlock: QUQFOY_clean_sbu_1, # of connection points: 4
#     Node 25, Type 0, BuildingBlock: QUQFOY_clean_sbu_1, # of connection points: 4
#     Node 26, Type 0, BuildingBlock: QUQFOY_clean_sbu_1, # of connection points: 4
#     Node 27, Type 0, BuildingBlock: QUQFOY_clean_sbu_1, # of connection points: 4
#     Node 28, Type 0, BuildingBlock: QUQFOY_clean_sbu_1, # of connection points: 4
#     Node 29, Type 0, BuildingBlock: QUQFOY_clean_sbu_1, # of connection points: 4
#     Node 30, Type 0, BuildingBlock: QUQFOY_clean_sbu_1, # of connection points: 4
#     Node 31, Type 0, BuildingBlock: QUQFOY_clean_sbu_1, # of connection points: 4
#     Edge 32, Type (0, 0), BuildingBlock: EZIPEK_clean_linker_0, # of connection points: 2
#     Edge 33, Type (0, 0), BuildingBlock: EZIPEK_clean_linker_0, # of connection points: 2
#     Edge 34, Type (0, 0), BuildingBlock: EZIPEK_clean_linker_0, # of connection points: 2
#     Edge 35, Type (0, 0), BuildingBlock: EZIPEK_clean_linker_0, # of connection points: 2
#     Edge 36, Type (0, 0), BuildingBlock: EZIPEK_clean_linker_0, # of connection points: 2
#     Edge 37, Type (0, 0), BuildingBlock: EZIPEK_clean_linker_0, # of connection points: 2
#     Edge 38, Type (0, 0), BuildingBlock: EZIPEK_clean_linker_0, # of connection points: 2
#     Edge 39, Type (0, 0), BuildingBlock: EZIPEK_clean_linker_0, # of connection points: 2
#     Edge 40, Type (0, 0), BuildingBlock: EZIPEK_clean_linker_0, # of connection points: 2
#     Edge 41, Type (0, 0), BuildingBlock: EZIPEK_clean_linker_0, # of connection points: 2
#     Edge 42, Type (0, 0), BuildingBlock: EZIPEK_clean_linker_0, # of connection points: 2
#     Edge 43, Type (0, 0), BuildingBlock: EZIPEK_clean_linker_0, # of connection points: 2
#     Edge 44, Type (0, 0), BuildingBlock: EZIPEK_clean_linker_0, # of connection points: 2
#     Edge 45, Type (0, 0), BuildingBlock: EZIPEK_clean_linker_0, # of connection points: 2
#     Edge 46, Type (0, 0), BuildingBlock: EZIPEK_clean_linker_0, # of connection points: 2
#     Edge 47, Type (0, 0), BuildingBlock: EZIPEK_clean_linker_0, # of connection points: 2
#     Edge 48, Type (0, 0), BuildingBlock: EZIPEK_clean_linker_0, # of connection points: 2
#     Edge 49, Type (0, 0), BuildingBlock: EZIPEK_clean_linker_0, # of connection points: 2
#     Edge 50, Type (0, 0), BuildingBlock: EZIPEK_clean_linker_0, # of connection points: 2
#     Edge 51, Type (0, 0), BuildingBlock: EZIPEK_clean_linker_0, # of connection points: 2
#     Edge 52, Type (0, 0), BuildingBlock: EZIPEK_clean_linker_0, # of connection points: 2
#     Edge 53, Type (0, 0), BuildingBlock: EZIPEK_clean_linker_0, # of connection points: 2
#     Edge 54, Type (0, 0), BuildingBlock: EZIPEK_clean_linker_0, # of connection points: 2
#     Edge 55, Type (0, 0), BuildingBlock: EZIPEK_clean_linker_0, # of connection points: 2
#     Edge 56, Type (0, 0), BuildingBlock: EZIPEK_clean_linker_0, # of connection points: 2
#     Edge 57, Type (0, 0), BuildingBlock: EZIPEK_clean_linker_0, # of connection points: 2
#     Edge 58, Type (0, 0), BuildingBlock: EZIPEK_clean_linker_0, # of connection points: 2
#     Edge 59, Type (0, 0), BuildingBlock: EZIPEK_clean_linker_0, # of connection points: 2
#     Edge 60, Type (0, 0), BuildingBlock: EZIPEK_clean_linker_0, # of connection points: 2
#     Edge 61, Type (0, 0), BuildingBlock: EZIPEK_clean_linker_0, # of connection points: 2
#     Edge 62, Type (0, 0), BuildingBlock: EZIPEK_clean_linker_0, # of connection points: 2
#     Edge 63, Type (0, 0), BuildingBlock: EZIPEK_clean_linker_0, # of connection points: 2
#     Edge 64, Type (0, 0), BuildingBlock: EZIPEK_clean_linker_0, # of connection points: 2
#     Edge 65, Type (0, 0), BuildingBlock: EZIPEK_clean_linker_0, # of connection points: 2
#     Edge 66, Type (0, 0), BuildingBlock: EZIPEK_clean_linker_0, # of connection points: 2
#     Edge 67, Type (0, 0), BuildingBlock: EZIPEK_clean_linker_0, # of connection points: 2
#     Edge 68, Type (0, 0), BuildingBlock: EZIPEK_clean_linker_0, # of connection points: 2
#     Edge 69, Type (0, 0), BuildingBlock: EZIPEK_clean_linker_0, # of connection points: 2
#     Edge 70, Type (0, 0), BuildingBlock: EZIPEK_clean_linker_0, # of connection points: 2
#     Edge 71, Type (0, 0), BuildingBlock: EZIPEK_clean_linker_0, # of connection points: 2
#     Edge 72, Type (0, 0), BuildingBlock: EZIPEK_clean_linker_0, # of connection points: 2
#     Edge 73, Type (0, 0), BuildingBlock: EZIPEK_clean_linker_0, # of connection points: 2
#     Edge 74, Type (0, 0), BuildingBlock: EZIPEK_clean_linker_0, # of connection points: 2
#     Edge 75, Type (0, 0), BuildingBlock: EZIPEK_clean_linker_0, # of connection points: 2
#     Edge 76, Type (0, 0), BuildingBlock: EZIPEK_clean_linker_0, # of connection points: 2
#     Edge 77, Type (0, 0), BuildingBlock: EZIPEK_clean_linker_0, # of connection points: 2
#     Edge 78, Type (0, 0), BuildingBlock: EZIPEK_clean_linker_0, # of connection points: 2
#     Edge 79, Type (0, 0), BuildingBlock: EZIPEK_clean_linker_0, # of connection points: 2
#     Edge 80, Type (0, 0), BuildingBlock: EZIPEK_clean_linker_0, # of connection points: 2
#     Edge 81, Type (0, 0), BuildingBlock: EZIPEK_clean_linker_0, # of connection points: 2
#     Edge 82, Type (0, 0), BuildingBlock: EZIPEK_clean_linker_0, # of connection points: 2
#     Edge 83, Type (0, 0), BuildingBlock: EZIPEK_clean_linker_0, # of connection points: 2
#     Edge 84, Type (0, 0), BuildingBlock: EZIPEK_clean_linker_0, # of connection points: 2
#     Edge 85, Type (0, 0), BuildingBlock: EZIPEK_clean_linker_0, # of connection points: 2
#     Edge 86, Type (0, 0), BuildingBlock: EZIPEK_clean_linker_0, # of connection points: 2
#     Edge 87, Type (0, 0), BuildingBlock: EZIPEK_clean_linker_0, # of connection points: 2
#     Edge 88, Type (0, 0), BuildingBlock: EZIPEK_clean_linker_0, # of connection points: 2
#     Edge 89, Type (0, 0), BuildingBlock: EZIPEK_clean_linker_0, # of connection points: 2
#     Edge 90, Type (0, 0), BuildingBlock: EZIPEK_clean_linker_0, # of connection points: 2
#     Edge 91, Type (0, 0), BuildingBlock: EZIPEK_clean_linker_0, # of connection points: 2
#     Edge 92, Type (0, 0), BuildingBlock: EZIPEK_clean_linker_0, # of connection points: 2
#     Edge 93, Type (0, 0), BuildingBlock: EZIPEK_clean_linker_0, # of connection points: 2
#     Edge 94, Type (0, 0), BuildingBlock: EZIPEK_clean_linker_0, # of connection points: 2
#     Edge 95, Type (0, 0), BuildingBlock: EZIPEK_clean_linker_0, # of connection points: 2
# Relax obj value: 0.077
# Max RMSD: 0.138
# Mean RMSD: 0.138
data_MOF--net-uox--node1-QUQFOY_clean_sbu_1--edge1-EZIPEK_clean_linker_0
_symmetry_space_group_name_H-M    P1
_symmetry_Int_Tables_number       1
_symmetry_cell_setting            triclinic
loop_
_symmetry_equiv_pos_as_xyz
'x, y, z'
_cell_length_a     34.769394
_cell_length_b     34.731689
_cell_length_c     64.285194
_cell_angle_alpha  89.999872
_cell_angle_beta   89.988564
_cell_angle_gamma 90.013011
loop_
_atom_site_label
_atom_site_type_symbol
_atom_site_fract_x
_atom_site_fract_y
_atom_site_fract_z
_atom_type_partial_charge
O0 O 0.36321 0.00531 0.17121 0.0
Cd1 Cd 0.38738 0.04991 0.18773 0.0
Cd2 Cd 0.42792 0.05495 0.1501 0.0
O3 O 0.4014 0.00321 0.14368 0.0
O4 O 0.36744 0.04162 0.21649 0.0
O5 O 0.42934 0.03831 0.20864 0.0
C6 C 0.40226 0.03502 0.22228 0.0
C7 C 0.49214 0.06654 0.14236 0.0
C8 C 0.37361 0.98971 0.15424 0.0
C9 C 0.37424 0.12002 0.1618 0.0
O10 O 0.39464 0.10379 0.14798 0.0
O11 O 0.36967 0.10489 0.17964 0.0
O12 O 0.46684 0.06345 0.12783 0.0
O13 O 0.48157 0.06059 0.16137 0.0
O14 O 0.24393 0.10888 0.42165 0.0
Cd15 Cd 0.19916 0.13162 0.4388 0.0
Cd16 Cd 0.19784 0.17742 0.40312 0.0
O17 O 0.25356 0.15769 0.40036 0.0
O18 O 0.20642 0.10979 0.4673 0.0
O19 O 0.21153 0.17205 0.46042 0.0
C20 C 0.21398 0.14416 0.47366 0.0
C21 C 0.1819 0.23985 0.39292 0.0
C22 C 0.26388 0.12534 0.40766 0.0
C23 C 0.13367 0.11983 0.41051 0.0
O24 O 0.15328 0.13936 0.39758 0.0
O25 O 0.14436 0.11672 0.42934 0.0
O26 O 0.19153 0.21412 0.37949 0.0
O27 O 0.18351 0.23097 0.41241 0.0
O28 O 0.13283 -0.00011 0.67413 0.0
Cd29 Cd 0.10937 0.95519 0.69104 0.0
Cd30 Cd 0.06441 0.95289 0.65556 0.0
O31 O 0.08493 0.00836 0.65215 0.0
O32 O 0.12736 0.96342 0.72023 0.0
O33 O 0.06599 0.96657 0.71107 0.0
C34 C 0.09206 0.96971 0.7253 0.0
C35 C 0.00196 0.93736 0.64549 0.0
C36 C 0.11687 0.01922 0.65973 0.0
C37 C 0.12176 0.88863 0.66342 0.0
O38 O 0.10151 0.90734 0.65046 0.0
O39 O 0.1257 0.90043 0.68202 0.0
O40 O 0.02789 0.94592 0.63198 0.0
O41 O 0.01065 0.93984 0.66498 0.0
O42 O 0.2516 0.87818 0.91689 0.0
Cd43 Cd 0.29738 0.85524 0.93305 0.0
Cd44 Cd 0.29842 0.81167 0.89843 0.0
O45 O 0.2428 0.83069 0.89465 0.0
O46 O 0.29072 0.8749 0.96198 0.0
O47 O 0.28688 0.81299 0.9539 0.0
C48 C 0.28423 0.83993 0.96769 0.0
C49 C 0.31511 0.7475 0.89384 0.0
C50 C 0.23189 0.86229 0.90262 0.0
C51 C 0.36208 0.86918 0.90445 0.0
O52 O 0.34241 0.84963 0.89157 0.0
O53 O 0.35163 0.87176 0.92335 0.0
O54 O 0.30698 0.76919 0.87819 0.0
O55 O 0.31161 0.76159 0.91236 0.0
O56 O 0.36191 0.00317 0.35944 0.0
Cd57 Cd 0.3854 0.96137 0.34053 0.0
Cd58 Cd 0.42775 0.95156 0.37768 0.0
O59 O 0.40367 0.00389 0.38531 0.0
O60 O 0.36558 0.97468 0.31227 0.0
O61 O 0.42752 0.97573 0.3202 0.0
C62 C 0.40055 0.98124 0.3067 0.0
C63 C 0.49143 0.93823 0.38707 0.0
C64 C 0.37428 0.01781 0.3763 0.0
C65 C 0.37263 0.88851 0.36332 0.0
O66 O 0.39313 0.90319 0.3776 0.0
O67 O 0.36802 0.90551 0.34601 0.0
O68 O 0.46388 0.93693 0.40044 0.0
O69 O 0.48297 0.94921 0.36843 0.0
O70 O 0.2403 0.11546 0.61197 0.0
Cd71 Cd 0.28281 0.13886 0.59368 0.0
Cd72 Cd 0.28935 0.18298 0.6295 0.0
O73 O 0.23493 0.16165 0.63532 0.0
O74 O 0.27308 0.1153 0.56589 0.0
O75 O 0.26899 0.17801 0.57157 0.0
C76 C 0.26563 0.14926 0.55895 0.0
C77 C 0.30512 0.24684 0.63604 0.0
C78 C 0.22307 0.13028 0.62745 0.0
C79 C 0.3529 0.12718 0.61906 0.0
O80 O 0.33596 0.14662 0.63306 0.0
O81 O 0.33846 0.12366 0.60101 0.0
O82 O 0.29933 0.22298 0.65104 0.0
O83 O 0.29979 0.23516 0.61717 0.0
O84 O 0.13157 0.99021 0.86092 0.0
Cd85 Cd 0.10415 0.03402 0.84485 0.0
Cd86 Cd 0.06669 0.03319 0.88091 0.0
O87 O 0.08514 0.9772 0.88313 0.0
O88 O 0.12323 0.0287 0.81565 0.0
O89 O 0.06231 0.01948 0.82443 0.0
C90 C 0.08881 0.01918 0.81033 0.0
C91 C 0.00386 0.05244 0.88694 0.0
C92 C 0.11728 0.96874 0.87497 0.0
C93 C 0.11943 0.09847 0.87324 0.0
O94 O 0.10663 0.07566 0.88702 0.0
O95 O 0.11615 0.09 0.85407 0.0
O96 O 0.02602 0.04251 0.90209 0.0
O97 O 0.0165 0.0489 0.86812 0.0
O98 O 0.25529 0.8836 0.10332 0.0
Cd99 Cd 0.21322 0.85639 0.0862 0.0
Cd100 Cd 0.205 0.8219 0.12615 0.0
O101 O 0.25631 0.84917 0.13231 0.0
O102 O 0.22427 0.87528 0.05746 0.0
O103 O 0.2279 0.81377 0.06614 0.0
C104 C 0.23186 0.84034 0.05226 0.0
C105 C 0.19139 0.75993 0.13774 0.0
C106 C 0.26982 0.87591 0.12098 0.0
C107 C 0.14143 0.87335 0.10989 0.0
O108 O 0.15701 0.85642 0.12521 0.0
O109 O 0.15728 0.87379 0.09207 0.0
O110 O 0.19386 0.78825 0.15058 0.0
O111 O 0.19881 0.76617 0.11834 0.0
O112 O 0.63303 0.00113 0.85152 0.0
Cd113 Cd 0.60723 0.95681 0.83541 0.0
Cd114 Cd 0.56888 0.95467 0.87277 0.0
O115 O 0.59406 0.00715 0.87852 0.0
O116 O 0.62794 0.96385 0.80671 0.0
O117 O 0.56607 0.96933 0.81416 0.0
C118 C 0.5935 0.97158 0.80066 0.0
C119 C 0.5046 0.94049 0.87873 0.0
C120 C 0.62281 0.01857 0.868 0.0
C121 C 0.62184 0.88898 0.86258 0.0
O122 O 0.60395 0.90761 0.87653 0.0
O123 O 0.62346 0.9015 0.844 0.0
O124 O 0.52818 0.94552 0.89395 0.0
O125 O 0.51675 0.94662 0.86001 0.0
O126 O 0.74737 0.88524 0.60565 0.0
Cd127 Cd 0.792 0.86099 0.58922 0.0
Cd128 Cd 0.79286 0.81702 0.62445 0.0
O129 O 0.73716 0.8371 0.62726 0.0
O130 O 0.78549 0.88098 0.56035 0.0
O131 O 0.77991 0.81917 0.56839 0.0
C132 C 0.77796 0.84624 0.55463 0.0
C133 C 0.80881 0.75371 0.63226 0.0
C134 C 0.72701 0.86923 0.6196 0.0
C135 C 0.85766 0.87302 0.61734 0.0
O136 O 0.83796 0.85418 0.63049 0.0
O137 O 0.84674 0.8759 0.59855 0.0
O138 O 0.79986 0.7778 0.6467 0.0
O139 O 0.80644 0.76478 0.61311 0.0
O140 O 0.86528 0.99632 0.34855 0.0
Cd141 Cd 0.89197 0.04221 0.33412 0.0
Cd142 Cd 0.92681 0.04212 0.37302 0.0
O143 O 0.90055 0.98965 0.37696 0.0
O144 O 0.87271 0.03757 0.30496 0.0
O145 O 0.93414 0.03118 0.31316 0.0
C146 C 0.90738 0.03006 0.29924 0.0
C147 C 0.99069 0.05444 0.38122 0.0
C148 C 0.87343 0.97836 0.36521 0.0
C149 C 0.87545 0.10878 0.36236 0.0
O150 O 0.89192 0.08943 0.37653 0.0
O151 O 0.87538 0.09707 0.34359 0.0
O152 O 0.96541 0.04904 0.39559 0.0
O153 O 0.98038 0.05004 0.36205 0.0
O154 O 0.74793 0.11499 0.10346 0.0
Cd155 Cd 0.70325 0.13958 0.08714 0.0
Cd156 Cd 0.70397 0.18432 0.12068 0.0
O157 O 0.75949 0.16439 0.12398 0.0
O158 O 0.70983 0.12113 0.058 0.0
O159 O 0.71588 0.18243 0.06709 0.0
C160 C 0.71795 0.15611 0.05292 0.0
C161 C 0.6886 0.24889 0.12464 0.0
C162 C 0.76902 0.13166 0.11686 0.0
C163 C 0.63813 0.12921 0.11563 0.0
O164 O 0.65894 0.14801 0.12831 0.0
O165 O 0.64823 0.12572 0.09672 0.0
O166 O 0.69692 0.22772 0.14047 0.0
O167 O 0.69142 0.23406 0.10626 0.0
O168 O 0.63171 0.99587 0.66372 0.0
Cd169 Cd 0.60949 0.04041 0.68122 0.0
Cd170 Cd 0.56464 0.04454 0.64581 0.0
O171 O 0.58488 0.98949 0.64082 0.0
O172 O 0.63051 0.03109 0.7097 0.0
O173 O 0.56832 0.02806 0.70242 0.0
C174 C 0.59585 0.02426 0.71577 0.0
C175 C 0.50116 0.06111 0.63878 0.0
C176 C 0.61623 0.97774 0.64872 0.0
C177 C 0.62195 0.10815 0.6542 0.0
O178 O 0.60176 0.09005 0.64095 0.0
O179 O 0.62573 0.09549 0.67265 0.0
O180 O 0.52495 0.0534 0.624 0.0
O181 O 0.51265 0.05709 0.65777 0.0
O182 O 0.7561 0.87965 0.41696 0.0
Cd183 Cd 0.71156 0.86122 0.43513 0.0
Cd184 Cd 0.69981 0.81355 0.39918 0.0
O185 O 0.74941 0.84158 0.38955 0.0
O186 O 0.72437 0.88207 0.46322 0.0
O187 O 0.72021 0.81961 0.45664 0.0
C188 C 0.72739 0.84707 0.46963 0.0
C189 C 0.68694 0.75134 0.38715 0.0
C190 C 0.767 0.86832 0.39915 0.0
C191 C 0.63873 0.87334 0.41167 0.0
O192 O 0.65007 0.8457 0.40028 0.0
O193 O 0.65895 0.88446 0.42701 0.0
O194 O 0.68686 0.78042 0.3748 0.0
O195 O 0.69651 0.75688 0.40631 0.0
O196 O 0.86858 0.00844 0.16181 0.0
Cd197 Cd 0.89208 0.96476 0.17939 0.0
Cd198 Cd 0.9352 0.95983 0.1426 0.0
O199 O 0.91355 0.01437 0.13779 0.0
O200 O 0.87171 0.97448 0.20798 0.0
O201 O 0.93372 0.97747 0.2003 0.0
C202 C 0.9065 0.9812 0.21384 0.0
C203 C 0.99733 0.94363 0.13266 0.0
C204 C 0.88267 0.02604 0.14624 0.0
C205 C 0.87919 0.89597 0.15313 0.0
O206 O 0.89867 0.91349 0.13937 0.0
O207 O 0.8758 0.90946 0.17142 0.0
O208 O 0.97123 0.95086 0.11902 0.0
O209 O 0.98903 0.94806 0.1521 0.0
O210 O 0.74802 0.11732 0.91808 0.0
Cd211 Cd 0.79143 0.14284 0.93492 0.0
Cd212 Cd 0.79679 0.181 0.89721 0.0
O213 O 0.74483 0.15544 0.89058 0.0
O214 O 0.7813 0.12322 0.96358 0.0
O215 O 0.77785 0.18503 0.95538 0.0
C216 C 0.77387 0.15808 0.96905 0.0
C217 C 0.81031 0.24511 0.88998 0.0
C218 C 0.73211 0.12726 0.90112 0.0
C219 C 0.8611 0.12714 0.90944 0.0
O220 O 0.8443 0.14592 0.89515 0.0
O221 O 0.84679 0.12517 0.92763 0.0
O222 O 0.80689 0.22017 0.87526 0.0
O223 O 0.80347 0.23431 0.90886 0.0
O224 O 0.86742 0.49395 0.66198 0.0
Cd225 Cd 0.88984 0.5375 0.68008 0.0
Cd226 Cd 0.93292 0.54478 0.64329 0.0
O227 O 0.91173 0.49035 0.63745 0.0
O228 O 0.868 0.52666 0.70825 0.0
O229 O 0.9304 0.52448 0.70155 0.0
C230 C 0.90249 0.52005 0.7146 0.0
C231 C 0.99588 0.561 0.63481 0.0
C232 C 0.88145 0.47744 0.64604 0.0
C233 C 0.87621 0.60746 0.65467 0.0
O234 O 0.89594 0.59101 0.64064 0.0
O235 O 0.87299 0.59289 0.67273 0.0
O236 O 0.97032 0.55585 0.62059 0.0
O237 O 0.9864 0.55501 0.65396 0.0
O238 O 0.758 0.61461 0.91067 0.0
Cd239 Cd 0.71368 0.63652 0.92849 0.0
Cd240 Cd 0.70847 0.68074 0.89294 0.0
O241 O 0.76339 0.6611 0.88747 0.0
O242 O 0.72359 0.61524 0.95689 0.0
O243 O 0.72575 0.6776 0.94985 0.0
C244 C 0.7299 0.64995 0.9631 0.0
C245 C 0.69145 0.74441 0.88658 0.0
C246 C 0.77555 0.62994 0.89542 0.0
C247 C 0.64574 0.62276 0.90183 0.0
O248 O 0.6635 0.64278 0.88836 0.0
O249 O 0.65864 0.61969 0.92027 0.0
O250 O 0.69786 0.72082 0.87153 0.0
O251 O 0.69695 0.7326 0.90541 0.0
O252 O 0.63591 0.50704 0.15855 0.0
Cd253 Cd 0.61191 0.46254 0.17528 0.0
Cd254 Cd 0.56862 0.46106 0.13843 0.0
O255 O 0.58907 0.51659 0.13601 0.0
O256 O 0.63408 0.46885 0.20374 0.0
O257 O 0.57185 0.47464 0.19716 0.0
C258 C 0.59989 0.47628 0.21032 0.0
C259 C 0.50654 0.44553 0.1279 0.0
C260 C 0.62073 0.5269 0.14412 0.0
C261 C 0.62413 0.39621 0.14724 0.0
O262 O 0.60603 0.41577 0.13373 0.0
O263 O 0.62633 0.40753 0.16601 0.0
O264 O 0.53259 0.45467 0.11454 0.0
O265 O 0.51494 0.44758 0.14745 0.0
O266 O 0.73856 0.38228 0.41421 0.0
Cd267 Cd 0.78124 0.35952 0.43281 0.0
Cd268 Cd 0.78738 0.31422 0.39677 0.0
O269 O 0.73252 0.33479 0.39168 0.0
O270 O 0.77104 0.38227 0.46087 0.0
O271 O 0.76745 0.31972 0.45458 0.0
C272 C 0.76385 0.34801 0.46748 0.0
C273 C 0.80381 0.2514 0.38795 0.0
C274 C 0.72098 0.36666 0.39906 0.0
C275 C 0.85071 0.37087 0.40691 0.0
O276 O 0.83332 0.35138 0.39311 0.0
O277 O 0.83698 0.37438 0.42514 0.0
O278 O 0.79659 0.27666 0.37384 0.0
O279 O 0.79972 0.26104 0.40723 0.0
O280 O 0.86608 0.49898 0.85121 0.0
Cd281 Cd 0.88905 0.45396 0.83441 0.0
Cd282 Cd 0.9343 0.45347 0.86838 0.0
O283 O 0.91551 0.50937 0.87187 0.0
O284 O 0.86794 0.46083 0.8058 0.0
O285 O 0.93006 0.46564 0.81307 0.0
C286 C 0.90248 0.46803 0.79965 0.0
C287 C 0.99823 0.43622 0.87331 0.0
C288 C 0.88294 0.51947 0.86482 0.0
C289 C 0.87733 0.38908 0.86299 0.0
O290 O 0.89653 0.40948 0.87569 0.0
O291 O 0.87431 0.39916 0.84405 0.0
O292 O 0.97646 0.44502 0.88881 0.0
O293 O 0.98448 0.4397 0.85472 0.0
O294 O 0.7505 0.62019 0.10067 0.0
Cd295 Cd 0.79513 0.64269 0.08349 0.0
Cd296 Cd 0.79828 0.68747 0.11955 0.0
O297 O 0.743 0.66718 0.12339 0.0
O298 O 0.78753 0.61983 0.05528 0.0
O299 O 0.78332 0.68242 0.06136 0.0
C300 C 0.78059 0.65401 0.04847 0.0
C301 C 0.81372 0.75061 0.12795 0.0
C302 C 0.73167 0.63576 0.11537 0.0
C303 C 0.86216 0.63067 0.1111 0.0
O304 O 0.84376 0.65033 0.12444 0.0
O305 O 0.84996 0.62719 0.09256 0.0
O306 O 0.80608 0.72576 0.14221 0.0
O307 O 0.81079 0.74031 0.10871 0.0
O308 O 0.63399 0.494 0.34941 0.0
Cd309 Cd 0.61424 0.53854 0.33117 0.0
Cd310 Cd 0.56476 0.54429 0.36575 0.0
O311 O 0.58544 0.48951 0.37139 0.0
O312 O 0.6365 0.52849 0.30302 0.0
O313 O 0.57386 0.52776 0.3093 0.0
C314 C 0.60194 0.52325 0.29635 0.0
C315 C 0.5012 0.55923 0.37386 0.0
C316 C 0.6171 0.47683 0.3643 0.0
C317 C 0.62412 0.60728 0.35776 0.0
O318 O 0.60089 0.5909 0.37018 0.0
O319 O 0.63135 0.59305 0.33997 0.0
O320 O 0.5262 0.55302 0.38822 0.0
O321 O 0.51158 0.55508 0.3547 0.0
O322 O 0.74799 0.38623 0.60413 0.0
Cd323 Cd 0.70237 0.36256 0.58816 0.0
Cd324 Cd 0.70426 0.31735 0.62247 0.0
O325 O 0.76022 0.33685 0.62456 0.0
O326 O 0.70747 0.38364 0.5594 0.0
O327 O 0.71334 0.32157 0.56667 0.0
C328 C 0.7148 0.34914 0.55318 0.0
C329 C 0.6882 0.25327 0.62849 0.0
C330 C 0.76955 0.36955 0.6173 0.0
C331 C 0.63906 0.37377 0.61788 0.0
O332 O 0.6603 0.35489 0.63031 0.0
O333 O 0.64809 0.37677 0.59878 0.0
O334 O 0.698 0.27572 0.64353 0.0
O335 O 0.68989 0.26643 0.6097 0.0
O336 O 0.12879 0.49776 0.35713 0.0
Cd337 Cd 0.10478 0.45377 0.34009 0.0
Cd338 Cd 0.06164 0.45002 0.37618 0.0
O339 O 0.08325 0.50482 0.38071 0.0
O340 O 0.12501 0.4622 0.31139 0.0
O341 O 0.06314 0.46656 0.31925 0.0
C342 C 0.09032 0.46966 0.30564 0.0
C343 C 0.99816 0.43495 0.38411 0.0
C344 C 0.11431 0.5162 0.3723 0.0
C345 C 0.11732 0.38553 0.36673 0.0
O346 O 0.09793 0.40354 0.38035 0.0
O347 O 0.12075 0.39864 0.34836 0.0
O348 O 0.02299 0.44138 0.39856 0.0
O349 O 0.00866 0.43921 0.36497 0.0
O350 O 0.24385 0.38697 0.0998 0.0
Cd351 Cd 0.28718 0.36185 0.08263 0.0
Cd352 Cd 0.29732 0.32679 0.12271 0.0
O353 O 0.2466 0.3547 0.12949 0.0
O354 O 0.27539 0.38044 0.05391 0.0
O355 O 0.27413 0.31881 0.06251 0.0
C356 C 0.2691 0.34525 0.04866 0.0
C357 C 0.31044 0.26506 0.13486 0.0
C358 C 0.2311 0.38002 0.11795 0.0
C359 C 0.35998 0.37908 0.10595 0.0
O360 O 0.34571 0.36056 0.1211 0.0
O361 O 0.34263 0.38124 0.08856 0.0
O362 O 0.30926 0.29403 0.14733 0.0
O363 O 0.30198 0.27053 0.11552 0.0
O364 O 0.36849 0.49011 0.85791 0.0
Cd365 Cd 0.39173 0.53551 0.84152 0.0
Cd366 Cd 0.43629 0.53562 0.87623 0.0
O367 O 0.41569 0.48042 0.88021 0.0
O368 O 0.36933 0.52993 0.8131 0.0
O369 O 0.43168 0.52431 0.81947 0.0
C370 C 0.4035 0.52279 0.80639 0.0
C371 C 0.50071 0.55176 0.8801 0.0
C372 C 0.38389 0.47014 0.87223 0.0
C373 C 0.38087 0.60102 0.87029 0.0
O374 O 0.39995 0.58091 0.88316 0.0
O375 O 0.37731 0.59024 0.85149 0.0
O376 O 0.47956 0.54383 0.896 0.0
O377 O 0.48606 0.54775 0.86174 0.0
O378 O 0.25481 0.61686 0.60416 0.0
Cd379 Cd 0.21172 0.63878 0.58562 0.0
Cd380 Cd 0.20482 0.68495 0.62241 0.0
O381 O 0.25937 0.66317 0.62755 0.0
O382 O 0.22224 0.61574 0.55766 0.0
O383 O 0.22474 0.67844 0.56362 0.0
C384 C 0.22882 0.64999 0.55086 0.0
C385 C 0.18928 0.74716 0.63317 0.0
C386 C 0.27173 0.63198 0.61968 0.0
C387 C 0.14174 0.62753 0.61128 0.0
O388 O 0.15808 0.64841 0.62487 0.0
O389 O 0.15643 0.62265 0.59337 0.0
O390 O 0.19532 0.72013 0.64644 0.0
O391 O 0.19401 0.73966 0.61366 0.0
O392 O 0.13375 0.50247 0.17039 0.0
Cd393 Cd 0.10848 0.54508 0.18798 0.0
Cd394 Cd 0.06882 0.55216 0.14992 0.0
O395 O 0.09407 0.4999 0.14353 0.0
O396 O 0.12742 0.53375 0.21664 0.0
O397 O 0.06584 0.53089 0.208 0.0
C398 C 0.09242 0.52638 0.22183 0.0
C399 C 0.0067 0.56659 0.13886 0.0
C400 C 0.12263 0.4868 0.15359 0.0
C401 C 0.12297 0.61603 0.16335 0.0
O402 O 0.10395 0.59977 0.14897 0.0
O403 O 0.12562 0.60091 0.18132 0.0
O404 O 0.03442 0.56248 0.12578 0.0
O405 O 0.01351 0.56009 0.15829 0.0
O406 O 0.25118 0.37779 0.91305 0.0
Cd407 Cd 0.205 0.35501 0.92894 0.0
Cd408 Cd 0.20589 0.30985 0.89522 0.0
O409 O 0.26174 0.32899 0.89191 0.0
O410 O 0.21035 0.37598 0.9577 0.0
O411 O 0.2154 0.31383 0.95041 0.0
C412 C 0.21732 0.34139 0.96388 0.0
C413 C 0.1888 0.24538 0.8929 0.0
C414 C 0.27188 0.36125 0.89942 0.0
C415 C 0.14142 0.36664 0.89923 0.0
O416 O 0.16203 0.34697 0.88685 0.0
O417 O 0.15097 0.37018 0.91823 0.0
O418 O 0.1983 0.26473 0.87658 0.0
O419 O 0.19148 0.26191 0.91087 0.0
O420 O 0.36301 0.50504 0.66797 0.0
Cd421 Cd 0.38515 0.46085 0.68581 0.0
Cd422 Cd 0.4311 0.45622 0.651 0.0
O423 O 0.41039 0.51098 0.64541 0.0
O424 O 0.36434 0.47035 0.71434 0.0
O425 O 0.42654 0.47262 0.70698 0.0
C426 C 0.39914 0.47638 0.72041 0.0
C427 C 0.49526 0.4407 0.64494 0.0
C428 C 0.37878 0.52288 0.65294 0.0
C429 C 0.3738 0.39232 0.65926 0.0
O430 O 0.39466 0.40997 0.64612 0.0
O431 O 0.369 0.40572 0.67747 0.0
O432 O 0.47179 0.44667 0.6298 0.0
O433 O 0.48302 0.44591 0.66372 0.0
O434 O 0.24619 0.6101 0.41412 0.0
Cd435 Cd 0.29123 0.63419 0.43031 0.0
Cd436 Cd 0.29106 0.67858 0.3944 0.0
O437 O 0.23548 0.65783 0.39228 0.0
O438 O 0.28543 0.61344 0.45911 0.0
O439 O 0.27971 0.67541 0.45162 0.0
C440 C 0.27804 0.648 0.46519 0.0
C441 C 0.30636 0.74151 0.3852 0.0
C442 C 0.22559 0.6258 0.40018 0.0
C443 C 0.35643 0.62283 0.40154 0.0
O444 O 0.33641 0.6417 0.38853 0.0
O445 O 0.34582 0.61966 0.42038 0.0
O446 O 0.29632 0.71667 0.37135 0.0
O447 O 0.30523 0.73149 0.40454 0.0
C448 C 0.42446 0.97345 0.27 0.0
C449 C 0.40856 0.99726 0.28573 0.0
C450 C 0.39995 0.04936 0.26031 0.0
C451 C 0.41006 0.02358 0.24413 0.0
N452 N 0.43039 0.96042 0.23303 0.0
N453 N 0.38096 0.05786 0.29631 0.0
C454 C 0.42263 0.98562 0.24883 0.0
C455 C 0.39653 0.03536 0.28102 0.0
N456 N 0.44079 0.93902 0.27529 0.0
N457 N 0.39445 0.08746 0.25584 0.0
H458 H 0.38021 0.04951 0.31188 0.0
H459 H 0.36713 0.08393 0.29351 0.0
H460 H 0.39737 0.09856 0.24083 0.0
H461 H 0.39056 0.10863 0.26709 0.0
H462 H 0.45639 0.92206 0.26494 0.0
H463 H 0.44139 0.92874 0.29053 0.0
H464 H 0.43512 0.93112 0.23526 0.0
H465 H 0.42971 0.96823 0.21738 0.0
C466 C 0.21706 0.16822 0.53156 0.0
C467 C 0.25426 0.15435 0.53685 0.0
C468 C 0.26548 0.13571 0.50059 0.0
C469 C 0.2287 0.1504 0.49511 0.0
N470 N 0.17234 0.187 0.50433 0.0
N471 N 0.3173 0.1343 0.52582 0.0
C472 C 0.20554 0.16903 0.51025 0.0
C473 C 0.2795 0.14096 0.52115 0.0
N474 N 0.19187 0.17831 0.54696 0.0
N475 N 0.28679 0.11596 0.48626 0.0
H476 H 0.32867 0.13865 0.54066 0.0
H477 H 0.33817 0.12827 0.51467 0.0
H478 H 0.2784 0.11281 0.47082 0.0
H479 H 0.3115 0.10047 0.48996 0.0
H480 H 0.16293 0.18428 0.54433 0.0
H481 H 0.19911 0.17809 0.56269 0.0
H482 H 0.15631 0.20457 0.51417 0.0
H483 H 0.16222 0.18665 0.48906 0.0
C484 C 0.07888 0.96682 0.78389 0.0
C485 C 0.0809 0.00672 0.78865 0.0
C486 C 0.08282 0.02249 0.75145 0.0
C487 C 0.08258 0.98256 0.74672 0.0
N488 N 0.07194 0.91714 0.75743 0.0
N489 N 0.07627 0.07268 0.77764 0.0
C490 C 0.07779 0.95484 0.76268 0.0
C491 C 0.08013 0.03463 0.77258 0.0
N492 N 0.07981 0.94043 0.79966 0.0
N493 N 0.08695 0.04866 0.73573 0.0
H494 H 0.07406 0.08217 0.793 0.0
H495 H 0.07221 0.09455 0.76681 0.0
H496 H 0.08646 0.04077 0.72008 0.0
H497 H 0.09214 0.07784 0.73803 0.0
H498 H 0.08321 0.91096 0.79741 0.0
H499 H 0.07874 0.94824 0.81531 0.0
H500 H 0.06485 0.8957 0.76807 0.0
H501 H 0.07121 0.90774 0.74202 0.0
C502 C 0.29934 0.84055 1.0057 0.0
C503 C 0.27303 0.83179 0.98954 0.0
C504 C 0.22303 0.81759 0.01549 0.0
C505 C 0.24753 0.83211 0.03126 0.0
N506 N 0.309 0.85732 0.04198 0.0
N507 N 0.20924 0.81346 0.97854 0.0
C508 C 0.28586 0.84323 0.02655 0.0
C509 C 0.23487 0.81998 0.99429 0.0
N510 N 0.3374 0.84553 1.00105 0.0
N511 N 0.18835 0.80189 0.02081 0.0
H512 H 0.21682 0.81446 0.96287 0.0
H513 H 0.17989 0.80943 0.98087 0.0
H514 H 0.17861 0.80062 0.03615 0.0
H515 H 0.17067 0.78734 0.01037 0.0
H516 H 0.35888 0.8485 0.0122 0.0
H517 H 0.34808 0.84324 0.98592 0.0
H518 H 0.33543 0.87046 0.03927 0.0
H519 H 0.30095 0.85745 0.05762 0.0
C520 C 0.59769 0.95726 0.76268 0.0
C521 C 0.58656 0.98296 0.7787 0.0
C522 C 0.57211 0.03257 0.75252 0.0
C523 C 0.58887 0.00889 0.737 0.0
N524 N 0.61895 0.94903 0.72708 0.0
N525 N 0.56542 0.04612 0.78939 0.0
C526 C 0.60183 0.97121 0.74201 0.0
C527 C 0.57369 0.02073 0.77376 0.0
N528 N 0.60336 0.91922 0.76722 0.0
N529 N 0.55517 0.06657 0.74699 0.0
H530 H 0.56614 0.03868 0.80509 0.0
H531 H 0.5604 0.07532 0.78696 0.0
H532 H 0.55483 0.07671 0.73172 0.0
H533 H 0.53891 0.08326 0.75717 0.0
H534 H 0.60786 0.8981 0.75599 0.0
H535 H 0.59982 0.90804 0.78217 0.0
H536 H 0.63335 0.92341 0.73024 0.0
H537 H 0.62072 0.95735 0.71154 0.0
C538 C 0.78076 0.84802 0.49576 0.0
C539 C 0.74185 0.83931 0.49094 0.0
C540 C 0.72786 0.82898 0.52795 0.0
C541 C 0.76661 0.83846 0.53278 0.0
N542 N 0.83188 0.84806 0.52155 0.0
N543 N 0.68045 0.81374 0.50138 0.0
C544 C 0.79368 0.84521 0.51671 0.0
C545 C 0.71614 0.82697 0.50671 0.0
N546 N 0.80514 0.85979 0.48031 0.0
N547 N 0.70175 0.82422 0.54365 0.0
H548 H 0.67062 0.81312 0.48606 0.0
H549 H 0.66167 0.80067 0.51183 0.0
H550 H 0.70932 0.82473 0.55934 0.0
H551 H 0.67223 0.82201 0.5413 0.0
H552 H 0.83233 0.87128 0.48301 0.0
H553 H 0.79754 0.85961 0.46461 0.0
H554 H 0.85374 0.84941 0.51052 0.0
H555 H 0.84211 0.84565 0.53676 0.0
C556 C 0.92743 0.9819 0.27191 0.0
C557 C 0.91527 0.01974 0.27722 0.0
C558 C 0.90211 0.03368 0.2405 0.0
C559 C 0.91398 0.99581 0.23517 0.0
N560 N 0.94574 0.93681 0.24471 0.0
N561 N 0.90053 0.08441 0.26648 0.0
C562 C 0.9295 0.97098 0.25054 0.0
C563 C 0.90557 0.0465 0.26143 0.0
N564 N 0.93449 0.9556 0.28727 0.0
N565 N 0.88664 0.05709 0.22559 0.0
H566 H 0.90355 0.09468 0.28165 0.0
H567 H 0.89698 0.10621 0.25554 0.0
H568 H 0.88567 0.04954 0.20991 0.0
H569 H 0.87298 0.08307 0.22883 0.0
H570 H 0.93886 0.9264 0.2845 0.0
H571 H 0.93346 0.96236 0.30305 0.0
H572 H 0.96109 0.91917 0.25483 0.0
H573 H 0.94655 0.92749 0.2293 0.0
C574 C 0.78191 0.17867 1.00622 0.0
C575 C 0.75764 0.16573 0.98997 0.0
C576 C 0.70447 0.15786 0.01475 0.0
C577 C 0.73035 0.16493 0.03134 0.0
N578 N 0.79422 0.18065 0.04337 0.0
N579 N 0.69586 0.14308 0.97814 0.0
C580 C 0.76909 0.17569 0.02723 0.0
C581 C 0.71877 0.1557 0.99404 0.0
N582 N 0.81728 0.1935 1.00153 0.0
N583 N 0.66607 0.15399 0.01886 0.0
H584 H 0.70461 0.14331 0.96261 0.0
H585 H 0.6689 0.13072 0.98035 0.0
H586 H 0.65482 0.15596 0.03387 0.0
H587 H 0.645 0.15231 1.0074 0.0
H588 H 0.835 0.20692 0.01238 0.0
H589 H 0.82762 0.19524 0.98633 0.0
H590 H 0.82377 0.18381 0.04145 0.0
H591 H 0.78593 0.17924 0.05893 0.0
C592 C 0.9244 0.529 0.7516 0.0
C593 C 0.90893 0.50483 0.73591 0.0
C594 C 0.89938 0.45337 0.76162 0.0
C595 C 0.90949 0.47938 0.7777 0.0
N596 N 0.92918 0.54295 0.78851 0.0
N597 N 0.88073 0.44429 0.72562 0.0
C598 C 0.922 0.51731 0.77283 0.0
C599 C 0.89635 0.46698 0.74082 0.0
N600 N 0.94095 0.56328 0.74622 0.0
N601 N 0.89365 0.41536 0.76626 0.0
H602 H 0.88014 0.45229 0.71 0.0
H603 H 0.86656 0.41845 0.72856 0.0
H604 H 0.89627 0.40447 0.78132 0.0
H605 H 0.88986 0.39402 0.75508 0.0
H606 H 0.95635 0.58039 0.75658 0.0
H607 H 0.9419 0.57329 0.73093 0.0
H608 H 0.9338 0.57221 0.78609 0.0
H609 H 0.92795 0.53558 0.80421 0.0
C610 C 0.73174 0.67211 0.02115 0.0
C611 C 0.76949 0.65969 0.02636 0.0
C612 C 0.78226 0.64433 0.98976 0.0
C613 C 0.74462 0.65694 0.98448 0.0
N614 N 0.68624 0.68978 0.99407 0.0
N615 N 0.83347 0.64279 0.01542 0.0
C616 C 0.72035 0.67337 0.99983 0.0
C617 C 0.7956 0.64846 0.01056 0.0
N618 N 0.706 0.68035 0.03661 0.0
N619 N 0.80503 0.62767 0.97493 0.0
H620 H 0.84419 0.64621 0.03047 0.0
H621 H 0.85491 0.63827 1.00439 0.0
H622 H 0.79729 0.62623 0.95929 0.0
H623 H 0.83066 0.61345 0.97822 0.0
H624 H 0.67682 0.68501 0.03402 0.0
H625 H 0.71319 0.67999 0.05235 0.0
H626 H 0.6691 0.70585 1.00411 0.0
H627 H 0.67638 0.68983 0.97875 0.0
C628 C 0.6072 0.47182 0.26911 0.0
C629 C 0.59544 0.5096 0.27472 0.0
C630 C 0.58217 0.5245 0.23806 0.0
C631 C 0.59374 0.48662 0.2325 0.0
N632 N 0.60849 0.42167 0.24279 0.0
N633 N 0.56472 0.56937 0.2655 0.0
C634 C 0.60361 0.4595 0.24809 0.0
C635 C 0.58036 0.53502 0.25949 0.0
N636 N 0.62252 0.44793 0.28384 0.0
N637 N 0.57525 0.55112 0.22284 0.0
H638 H 0.56432 0.57861 0.28093 0.0
H639 H 0.54956 0.58741 0.2555 0.0
H640 H 0.57606 0.54457 0.20702 0.0
H641 H 0.57129 0.58033 0.22574 0.0
H642 H 0.63615 0.42202 0.2804 0.0
H643 H 0.62343 0.45494 0.2996 0.0
H644 H 0.61198 0.39962 0.25359 0.0
H645 H 0.60547 0.41169 0.22757 0.0
C646 C 0.69902 0.35264 0.51526 0.0
C647 C 0.72539 0.34218 0.53109 0.0
C648 C 0.77382 0.3265 0.50449 0.0
C649 C 0.74936 0.34222 0.48901 0.0
N650 N 0.68907 0.37154 0.47936 0.0
N651 N 0.78913 0.32203 0.54124 0.0
C652 C 0.71197 0.35549 0.49432 0.0
C653 C 0.76297 0.32925 0.52584 0.0
N654 N 0.66128 0.35881 0.52025 0.0
N655 N 0.8076 0.30936 0.4988 0.0
H656 H 0.78248 0.32366 0.55703 0.0
H657 H 0.81821 0.31711 0.53849 0.0
H658 H 0.81709 0.30818 0.48343 0.0
H659 H 0.82477 0.29371 0.50903 0.0
H660 H 0.63967 0.36284 0.50926 0.0
H661 H 0.65083 0.35628 0.5354 0.0
H662 H 0.66363 0.38618 0.48258 0.0
H663 H 0.69655 0.37206 0.46367 0.0
C664 C 0.09109 0.45658 0.26741 0.0
C665 C 0.08276 0.48224 0.28395 0.0
C666 C 0.07007 0.53398 0.25876 0.0
C667 C 0.0841 0.50995 0.24264 0.0
N668 N 0.10795 0.44843 0.23103 0.0
N669 N 0.06585 0.54588 0.2959 0.0
C670 C 0.09428 0.47111 0.24678 0.0
C671 C 0.07195 0.52096 0.27977 0.0
N672 N 0.09514 0.41815 0.27148 0.0
N673 N 0.05528 0.56933 0.25394 0.0
H674 H 0.06645 0.53741 0.31145 0.0
H675 H 0.06253 0.57546 0.29403 0.0
H676 H 0.0544 0.57991 0.23876 0.0
H677 H 0.04111 0.58684 0.26462 0.0
H678 H 0.09771 0.39717 0.26 0.0
H679 H 0.09247 0.40671 0.28643 0.0
H680 H 0.12043 0.42154 0.23336 0.0
H681 H 0.10845 0.45729 0.21552 0.0
C682 C 0.27834 0.32143 0.01208 0.0
C683 C 0.25371 0.3365 0.02765 0.0
C684 C 0.20204 0.34378 1.00188 0.0
C685 C 0.22845 0.33437 0.98587 0.0
N686 N 0.29241 0.31592 0.97522 0.0
N687 N 0.19207 0.36192 0.03795 0.0
C688 C 0.26663 0.32292 0.99084 0.0
C689 C 0.21539 0.34735 0.02272 0.0
N690 N 0.31307 0.30609 0.01761 0.0
N691 N 0.164 0.34845 0.99711 0.0
H692 H 0.19994 0.36258 0.05361 0.0
H693 H 0.16565 0.37493 0.03503 0.0
H694 H 0.1534 0.34546 0.98201 0.0
H695 H 0.14244 0.35182 1.00819 0.0
H696 H 0.33078 0.2911 1.00738 0.0
H697 H 0.32286 0.30562 0.03295 0.0
H698 H 0.32177 0.31217 0.97765 0.0
H699 H 0.28498 0.31626 0.95952 0.0
C700 C 0.42102 0.47495 0.77844 0.0
C701 C 0.40944 0.51274 0.78417 0.0
C702 C 0.39488 0.52775 0.74773 0.0
C703 C 0.40657 0.49004 0.74194 0.0
N704 N 0.43792 0.4304 0.75074 0.0
N705 N 0.39434 0.57773 0.77414 0.0
C706 C 0.42226 0.4646 0.75697 0.0
C707 C 0.39912 0.53995 0.76872 0.0
N708 N 0.42847 0.44823 0.79354 0.0
N709 N 0.37894 0.55164 0.7332 0.0
H710 H 0.39784 0.5876 0.78935 0.0
H711 H 0.3905 0.59985 0.76341 0.0
H712 H 0.37739 0.54459 0.71747 0.0
H713 H 0.36539 0.57751 0.73681 0.0
H714 H 0.43245 0.41906 0.79053 0.0
H715 H 0.42812 0.45466 0.80937 0.0
H716 H 0.45342 0.41234 0.76057 0.0
H717 H 0.43802 0.42137 0.73527 0.0
C718 C 0.2187 0.67086 0.51374 0.0
C719 C 0.24329 0.65563 0.52931 0.0
C720 C 0.29377 0.64529 0.50313 0.0
C721 C 0.26734 0.65524 0.48724 0.0
N722 N 0.2035 0.67477 0.47695 0.0
N723 N 0.3039 0.62717 0.53914 0.0
C724 C 0.22964 0.66793 0.49241 0.0
C725 C 0.28084 0.64268 0.52409 0.0
N726 N 0.18471 0.6877 0.51934 0.0
N727 N 0.33157 0.63936 0.49819 0.0
H728 H 0.29642 0.62691 0.55484 0.0
H729 H 0.32949 0.61274 0.53601 0.0
H730 H 0.34202 0.6417 0.48302 0.0
H731 H 0.35322 0.63572 0.5092 0.0
H732 H 0.16738 0.703 0.50904 0.0
H733 H 0.17516 0.68898 0.5347 0.0
H734 H 0.17436 0.67949 0.47964 0.0
H735 H 0.21027 0.67306 0.46118 0.0
C736 C 0.31036 0.97056 0.13963 0.0
C737 C 0.34844 0.96 0.14507 0.0
C738 C 0.3361 0.89378 0.13356 0.0
C739 C 0.29711 0.90381 0.13002 0.0
N740 N 0.24506 0.9493 0.13399 0.0
N741 N 0.39703 0.91126 0.14953 0.0
C742 C 0.28365 0.94152 0.13428 0.0
C743 C 0.3613 0.92149 0.14263 0.0
N744 N 0.30008 0.00856 0.13881 0.0
N745 N 0.34915 0.85827 0.12774 0.0
H746 H 0.41623 0.93104 0.15598 0.0
H747 H 0.40669 0.88293 0.1502 0.0
H748 H 0.33117 0.83728 0.12139 0.0
H749 H 0.37806 0.85048 0.12789 0.0
H750 H 0.27393 0.01806 0.13279 0.0
H751 H 0.31907 0.03098 0.14214 0.0
H752 H 0.2334 0.97523 0.13915 0.0
H753 H 0.22425 0.9286 0.1306 0.0
C754 C 0.32221 0.08521 0.41395 0.0
C755 C 0.29864 0.10531 0.39963 0.0
C756 C 0.33771 0.07906 0.37143 0.0
C757 C 0.35326 0.05125 0.38524 0.0
N758 N 0.35535 0.02562 0.42045 0.0
N759 N 0.28175 0.11708 0.36348 0.0
C760 C 0.34474 0.05389 0.40683 0.0
C761 C 0.30601 0.10166 0.37797 0.0
N762 N 0.32334 0.09633 0.43429 0.0
N763 N 0.35344 0.08417 0.35217 0.0
H764 H 0.25673 0.13202 0.36714 0.0
H765 H 0.28457 0.11151 0.34761 0.0
H766 H 0.37831 0.06975 0.34751 0.0
H767 H 0.34474 0.10603 0.3421 0.0
H768 H 0.34213 0.08419 0.4451 0.0
H769 H 0.30913 0.12101 0.43944 0.0
H770 H 0.34626 0.02533 0.43591 0.0
H771 H 0.36952 0.00052 0.4161 0.0
C772 C 0.14134 0.05972 0.62961 0.0
C773 C 0.13711 0.05367 0.65139 0.0
C774 C 0.18679 0.10205 0.65813 0.0
C775 C 0.18972 0.1093 0.63641 0.0
N776 N 0.15932 0.10506 0.60275 0.0
N777 N 0.1456 0.07963 0.68589 0.0
C778 C 0.16331 0.09157 0.6226 0.0
C779 C 0.15641 0.07846 0.66549 0.0
N780 N 0.12736 0.03381 0.61551 0.0
N781 N 0.21422 0.11489 0.67168 0.0
H782 H 0.12226 0.06393 0.69152 0.0
H783 H 0.15676 0.0995 0.69645 0.0
H784 H 0.2384 0.13047 0.66722 0.0
H785 H 0.21492 0.10657 0.68726 0.0
H786 H 0.13344 0.03554 0.59965 0.0
H787 H 0.11339 0.00841 0.61955 0.0
H788 H 0.13819 0.09501 0.59261 0.0
H789 H 0.17411 0.12926 0.59737 0.0
C790 C 0.15865 0.91169 0.8674 0.0
C791 C 0.13984 0.93511 0.88233 0.0
C792 C 0.17152 0.89854 0.90998 0.0
C793 C 0.19675 0.88211 0.89511 0.0
N794 N 0.21691 0.87745 0.85903 0.0
N795 N 0.13298 0.95393 0.91855 0.0
C796 C 0.19076 0.88926 0.87357 0.0
C797 C 0.14692 0.92907 0.90389 0.0
N798 N 0.14579 0.91082 0.84734 0.0
N799 N 0.17111 0.88501 0.92993 0.0
H800 H 0.11668 0.97821 0.91508 0.0
H801 H 0.14104 0.9526 0.93415 0.0
H802 H 0.18804 0.86182 0.9347 0.0
H803 H 0.15094 0.89386 0.94094 0.0
H804 H 0.15649 0.89175 0.83624 0.0
H805 H 0.12148 0.92601 0.84254 0.0
H806 H 0.21548 0.88582 0.84348 0.0
H807 H 0.24203 0.8626 0.86261 0.0
C808 C 0.6649 0.11263 0.88865 0.0
C809 C 0.70353 0.1009 0.89188 0.0
C810 C 0.68716 0.03494 0.88216 0.0
C811 C 0.64946 0.04718 0.87697 0.0
N812 N 0.60309 0.09813 0.87279 0.0
N813 N 0.75349 0.05337 0.88702 0.0
C814 C 0.63838 0.0862 0.87956 0.0
C815 C 0.71526 0.06276 0.88727 0.0
N816 N 0.65338 0.14845 0.89484 0.0
N817 N 0.69581 0.99652 0.88305 0.0
H818 H 0.77532 0.07317 0.89011 0.0
H819 H 0.76376 0.02703 0.88161 0.0
H820 H 0.67576 0.97487 0.88004 0.0
H821 H 0.72171 0.98602 0.8889 0.0
H822 H 0.62479 0.15734 0.89492 0.0
H823 H 0.67225 0.1685 0.90132 0.0
H824 H 0.59476 0.1269 0.87226 0.0
H825 H 0.583 0.07935 0.86628 0.0
C826 C 0.65212 0.91672 0.65469 0.0
C827 C 0.63627 0.94331 0.64036 0.0
C828 C 0.66858 0.90874 0.61221 0.0
C829 C 0.69192 0.88945 0.62702 0.0
N830 N 0.70813 0.87936 0.66341 0.0
N831 N 0.63284 0.96662 0.60481 0.0
C832 C 0.684 0.89394 0.6486 0.0
C833 C 0.64479 0.93958 0.61883 0.0
N834 N 0.63663 0.9133 0.67411 0.0
N835 N 0.66905 0.89754 0.59184 0.0
H836 H 0.6166 0.99067 0.60877 0.0
H837 H 0.64217 0.96694 0.5894 0.0
H838 H 0.68506 0.87399 0.58667 0.0
H839 H 0.65023 0.90867 0.58075 0.0
H840 H 0.64531 0.89228 0.68469 0.0
H841 H 0.61201 0.92844 0.6785 0.0
H842 H 0.70509 0.88562 0.67918 0.0
H843 H 0.73332 0.86444 0.66008 0.0
C844 C 0.78058 0.92947 0.38097 0.0
C845 C 0.79419 0.8932 0.38781 0.0
C846 C 0.85954 0.91045 0.37695 0.0
C847 C 0.84655 0.94841 0.37269 0.0
N848 N 0.79603 0.99622 0.37492 0.0
N849 N 0.84638 0.84913 0.39382 0.0
C850 C 0.80736 0.9585 0.37571 0.0
C851 C 0.83364 0.88351 0.38613 0.0
N852 N 0.7419 0.93612 0.37943 0.0
N853 N 0.89618 0.89998 0.37174 0.0
H854 H 0.82776 0.82848 0.39996 0.0
H855 H 0.87535 0.842 0.39517 0.0
H856 H 0.91567 0.91905 0.36495 0.0
H857 H 0.9063 0.87183 0.37263 0.0
H858 H 0.73042 0.96063 0.37245 0.0
H859 H 0.72123 0.91548 0.3832 0.0
H860 H 0.76865 0.00543 0.37923 0.0
H861 H 0.81488 0.01901 0.37217 0.0
C862 C 0.81306 0.10851 0.14573 0.0
C863 C 0.80432 0.11178 0.12418 0.0
C864 C 0.85166 0.06178 0.11623 0.0
C865 C 0.86126 0.05946 0.1377 0.0
N866 N 0.86141 0.09097 0.17107 0.0
N867 N 0.82584 0.10198 0.08888 0.0
C868 C 0.84544 0.08645 0.15183 0.0
C869 C 0.82726 0.09194 0.10941 0.0
N870 N 0.78925 0.12364 0.16054 0.0
N871 N 0.86309 0.03397 0.10252 0.0
H872 H 0.80933 0.12501 0.0835 0.0
H873 H 0.84438 0.09045 0.07776 0.0
H874 H 0.87946 0.01011 0.10666 0.0
H875 H 0.85304 0.03271 0.08726 0.0
H876 H 0.79284 0.11828 0.17637 0.0
H877 H 0.7638 0.13811 0.15719 0.0
H878 H 0.85276 0.11237 0.18144 0.0
H879 H 0.88629 0.07631 0.17551 0.0
C880 C 0.81441 0.39289 0.64581 0.0
C881 C 0.80497 0.38967 0.62435 0.0
C882 C 0.85081 0.44097 0.61611 0.0
C883 C 0.86095 0.44341 0.6375 0.0
N884 N 0.86327 0.41133 0.67069 0.0
N885 N 0.82514 0.40031 0.58889 0.0
C886 C 0.84644 0.41572 0.65165 0.0
C887 C 0.82697 0.41021 0.60943 0.0
N888 N 0.79154 0.37705 0.66084 0.0
N889 N 0.86117 0.46915 0.60237 0.0
H890 H 0.80905 0.37689 0.58361 0.0
H891 H 0.843 0.41242 0.57762 0.0
H892 H 0.87714 0.49333 0.60643 0.0
H893 H 0.85065 0.47027 0.5872 0.0
H894 H 0.79561 0.38238 0.67665 0.0
H895 H 0.76635 0.36195 0.65777 0.0
H896 H 0.85562 0.38948 0.68102 0.0
H897 H 0.88787 0.42663 0.67496 0.0
C898 C 0.84333 0.57802 0.85808 0.0
C899 C 0.86317 0.55454 0.87259 0.0
C900 C 0.83661 0.59373 0.90074 0.0
C901 C 0.8096 0.60979 0.88671 0.0
N902 N 0.78503 0.6134 0.8514 0.0
N903 N 0.87472 0.53781 0.90878 0.0
C904 C 0.81264 0.60156 0.8651 0.0
C905 C 0.8594 0.5621 0.89425 0.0
N906 N 0.8538 0.5778 0.8376 0.0
N907 N 0.84041 0.60875 0.92026 0.0
H908 H 0.88991 0.51291 0.90515 0.0
H909 H 0.86896 0.54044 0.92463 0.0
H910 H 0.82515 0.63307 0.92502 0.0
H911 H 0.86178 0.59998 0.9306 0.0
H912 H 0.84225 0.59677 0.82669 0.0
H913 H 0.87712 0.56183 0.83212 0.0
H914 H 0.7843 0.60425 0.83596 0.0
H915 H 0.76085 0.62918 0.85564 0.0
C916 C 0.67152 0.59884 0.1086 0.0
C917 C 0.69686 0.61577 0.12325 0.0
C918 C 0.65986 0.58565 0.15122 0.0
C919 C 0.64161 0.5614 0.13647 0.0
N920 N 0.63452 0.54231 0.10029 0.0
N921 N 0.71751 0.62115 0.15924 0.0
C922 C 0.64798 0.5676 0.11487 0.0
C923 C 0.69139 0.60872 0.14484 0.0
N924 N 0.67009 0.61249 0.08869 0.0
N925 N 0.64712 0.58659 0.17132 0.0
H926 H 0.7423 0.63646 0.15555 0.0
H927 H 0.71642 0.61288 0.17482 0.0
H928 H 0.62317 0.57095 0.17628 0.0
H929 H 0.65749 0.60613 0.18228 0.0
H930 H 0.64981 0.60314 0.07787 0.0
H931 H 0.68619 0.63623 0.08383 0.0
H932 H 0.64221 0.54394 0.08464 0.0
H933 H 0.61908 0.51752 0.10382 0.0
C934 C 0.68443 0.39257 0.36783 0.0
C935 C 0.68777 0.38734 0.38971 0.0
C936 C 0.64017 0.43812 0.39544 0.0
C937 C 0.63585 0.44237 0.37355 0.0
N938 N 0.64258 0.41274 0.33984 0.0
N939 N 0.65754 0.39452 0.42323 0.0
C940 C 0.65417 0.41581 0.36006 0.0
C941 C 0.66173 0.40654 0.40314 0.0
N942 N 0.71136 0.37821 0.35443 0.0
N943 N 0.62656 0.46527 0.40894 0.0
H944 H 0.67157 0.37013 0.42891 0.0
H945 H 0.6368 0.40579 0.43324 0.0
H946 H 0.61252 0.49028 0.40433 0.0
H947 H 0.63279 0.46477 0.4248 0.0
H948 H 0.71163 0.38499 0.33863 0.0
H949 H 0.73561 0.36299 0.35911 0.0
H950 H 0.65316 0.39174 0.32976 0.0
H951 H 0.61909 0.42808 0.33406 0.0
C952 C 0.14346 0.5554 0.40165 0.0
C953 C 0.1351 0.55064 0.38014 0.0
C954 C 0.18312 0.59954 0.37139 0.0
C955 C 0.19061 0.6052 0.39293 0.0
N956 N 0.16744 0.5987 0.42813 0.0
N957 N 0.13666 0.57849 0.34578 0.0
C958 C 0.16712 0.58659 0.40791 0.0
C959 C 0.15141 0.57634 0.36544 0.0
N960 N 0.13163 0.52891 0.41601 0.0
N961 N 0.20758 0.6134 0.35652 0.0
H962 H 0.11255 0.56273 0.34118 0.0
H963 H 0.14555 0.59905 0.33498 0.0
H964 H 0.23257 0.6287 0.3598 0.0
H965 H 0.20504 0.60623 0.34083 0.0
H966 H 0.14081 0.52941 0.43144 0.0
H967 H 0.11589 0.50436 0.41235 0.0
H968 H 0.14848 0.58809 0.43931 0.0
H969 H 0.18351 0.6224 0.43305 0.0
C970 C 0.16578 0.39297 0.13349 0.0
C971 C 0.2023 0.40659 0.1269 0.0
C972 C 0.18345 0.47277 0.13501 0.0
C973 C 0.14851 0.45887 0.1435 0.0
N974 N 0.10716 0.40608 0.1529 0.0
N975 N 0.24893 0.45821 0.12541 0.0
C976 C 0.13975 0.41901 0.14329 0.0
C977 C 0.21194 0.44618 0.1287 0.0
N978 N 0.15563 0.35557 0.12981 0.0
N979 N 0.1891 0.51151 0.13254 0.0
H980 H 0.27113 0.43966 0.1212 0.0
H981 H 0.25851 0.48591 0.12886 0.0
H982 H 0.16893 0.53217 0.137 0.0
H983 H 0.21217 0.52307 0.12429 0.0
H984 H 0.1281 0.34476 0.13234 0.0
H985 H 0.17411 0.33588 0.12272 0.0
H986 H 0.10106 0.37706 0.15526 0.0
H987 H 0.08723 0.42463 0.15975 0.0
C988 C 0.34617 0.41066 0.8648 0.0
C989 C 0.36317 0.43542 0.87973 0.0
C990 C 0.33126 0.39877 0.90728 0.0
C991 C 0.3073 0.38106 0.89221 0.0
N992 N 0.28984 0.37374 0.85586 0.0
N993 N 0.36824 0.45528 0.91584 0.0
C994 C 0.31452 0.3873 0.87069 0.0
C995 C 0.3554 0.42974 0.90123 0.0
N996 N 0.36023 0.4096 0.84496 0.0
N997 N 0.33082 0.38603 0.92738 0.0
H998 H 0.38462 0.47951 0.91238 0.0
H999 H 0.35948 0.45434 0.93134 0.0
H1000 H 0.31417 0.3626 0.93212 0.0
H1001 H 0.35008 0.3958 0.93863 0.0
H1002 H 0.35095 0.3897 0.83391 0.0
H1003 H 0.38414 0.42566 0.84035 0.0
H1004 H 0.29192 0.38144 0.84023 0.0
H1005 H 0.26521 0.35787 0.85916 0.0
C1006 C 0.34011 0.58279 0.65793 0.0
C1007 C 0.35884 0.55709 0.6441 0.0
C1008 C 0.33178 0.59346 0.61501 0.0
C1009 C 0.30544 0.61158 0.62873 0.0
N1010 N 0.28209 0.61875 0.66418 0.0
N1011 N 0.36791 0.53561 0.60844 0.0
C1012 C 0.30917 0.60556 0.65053 0.0
C1013 C 0.35403 0.56201 0.62229 0.0
N1014 N 0.35205 0.58562 0.67809 0.0
N1015 N 0.33564 0.60641 0.59507 0.0
H1016 H 0.38237 0.51063 0.61272 0.0
H1017 H 0.36143 0.5366 0.59261 0.0
H1018 H 0.3212 0.63081 0.58973 0.0
H1019 H 0.35652 0.59592 0.5849 0.0
H1020 H 0.3411 0.60602 0.68842 0.0
H1021 H 0.37617 0.57088 0.68354 0.0
H1022 H 0.28224 0.61139 0.67991 0.0
H1023 H 0.2574 0.63352 0.65976 0.0
C1024 C 0.38029 0.19071 0.15595 0.0
C1025 C 0.35653 0.15762 0.15685 0.0
C1026 C 0.30123 0.19569 0.14493 0.0
C1027 C 0.32592 0.22779 0.1422 0.0
N1028 N 0.38989 0.25486 0.1421 0.0
N1029 N 0.29553 0.12675 0.15058 0.0
C1030 C 0.36572 0.22509 0.14697 0.0
C1031 C 0.3172 0.15961 0.151 0.0
N1032 N 0.41658 0.1894 0.16413 0.0
N1033 N 0.26247 0.20003 0.14225 0.0
H1034 H 0.30596 0.10014 0.15555 0.0
H1035 H 0.26807 0.12527 0.1442 0.0
H1036 H 0.25004 0.22591 0.13749 0.0
H1037 H 0.24238 0.17899 0.14611 0.0
H1038 H 0.43406 0.21352 0.16591 0.0
H1039 H 0.42803 0.16466 0.17094 0.0
H1040 H 0.41972 0.25301 0.143 0.0
H1041 H 0.38045 0.28055 0.13541 0.0
C1042 C 0.09125 0.06179 0.40467 0.0
C1043 C 0.0971 0.10221 0.40338 0.0
C1044 C 0.03739 0.10892 0.38351 0.0
C1045 C 0.02923 0.06938 0.38685 0.0
N1046 N 0.0462 0.00852 0.40233 0.0
N1047 N 0.07134 0.16518 0.3959 0.0
C1048 C 0.05549 0.04591 0.39803 0.0
C1049 C 0.06901 0.12605 0.39392 0.0
N1050 N 0.12037 0.03841 0.41133 0.0
N1051 N 0.01504 0.13029 0.37038 0.0
H1052 H 0.09305 0.17882 0.40435 0.0
H1053 H 0.04961 0.18388 0.39116 0.0
H1054 H 0.99157 0.11899 0.36239 0.0
H1055 H 0.02205 0.1582 0.3658 0.0
H1056 H 0.11926 0.00849 0.41054 0.0
H1057 H 0.14709 0.04887 0.41606 0.0
H1058 H 0.06193 0.99129 0.4125 0.0
H1059 H 0.02142 0.99532 0.39659 0.0
C1060 C 0.11559 0.82142 0.64989 0.0
C1061 C 0.13966 0.852 0.6566 0.0
C1062 C 0.19687 0.81317 0.64865 0.0
C1063 C 0.17276 0.78419 0.64021 0.0
N1064 N 0.10956 0.76212 0.63027 0.0
N1065 N 0.20303 0.87963 0.65985 0.0
C1066 C 0.13221 0.78883 0.64001 0.0
C1067 C 0.18032 0.84856 0.65541 0.0
N1068 N 0.07696 0.8228 0.65387 0.0
N1069 N 0.2355 0.80664 0.65043 0.0
H1070 H 0.19201 0.90597 0.66487 0.0
H1071 H 0.23253 0.88036 0.65709 0.0
H1072 H 0.2487 0.78173 0.64483 0.0
H1073 H 0.25406 0.82466 0.6586 0.0
H1074 H 0.05833 0.79982 0.65129 0.0
H1075 H 0.06391 0.84572 0.66163 0.0
H1076 H 0.08032 0.76605 0.6275 0.0
H1077 H 0.12048 0.73714 0.62348 0.0
C1078 C 0.45858 0.88517 0.87787 0.0
C1079 C 0.46591 0.9243 0.88288 0.0
C1080 C 0.40281 0.92867 0.89986 0.0
C1081 C 0.39785 0.88835 0.89722 0.0
N1082 N 0.42443 0.82693 0.88705 0.0
N1083 N 0.44676 0.98297 0.9 0.0
C1084 C 0.42653 0.86626 0.88698 0.0
C1085 C 0.43854 0.94595 0.89433 0.0
N1086 N 0.4823 0.86584 0.86451 0.0
N1087 N 0.37284 0.95075 0.90675 0.0
H1088 H 0.47144 0.99738 0.89501 0.0
H1089 H 0.4302 0.99866 0.91051 0.0
H1090 H 0.34594 0.93937 0.91045 0.0
H1091 H 0.37341 0.98072 0.90698 0.0
H1092 H 0.47596 0.83866 0.85858 0.0
H1093 H 0.50658 0.87815 0.85776 0.0
H1094 H 0.44663 0.80917 0.88193 0.0
H1095 H 0.40222 0.81174 0.8942 0.0
C1096 C 0.30132 0.81353 0.38248 0.0
C1097 C 0.32237 0.77922 0.37878 0.0
C1098 C 0.37598 0.81667 0.36425 0.0
C1099 C 0.3543 0.85078 0.36718 0.0
N1100 N 0.29498 0.88232 0.37631 0.0
N1101 N 0.37744 0.74691 0.36387 0.0
C1102 C 0.31648 0.84938 0.37546 0.0
C1103 C 0.35897 0.78044 0.3689 0.0
N1104 N 0.26709 0.81181 0.39293 0.0
N1105 N 0.41333 0.81911 0.35765 0.0
H1106 H 0.36724 0.71977 0.36802 0.0
H1107 H 0.40179 0.74559 0.35449 0.0
H1108 H 0.42621 0.84498 0.35322 0.0
H1109 H 0.43242 0.79604 0.35768 0.0
H1110 H 0.25224 0.83589 0.39823 0.0
H1111 H 0.2543 0.78592 0.39738 0.0
H1112 H 0.26595 0.88296 0.38021 0.0
H1113 H 0.30552 0.9091 0.37165 0.0
C1114 C 0.39252 0.07605 0.6364 0.0
C1115 C 0.3906 0.10956 0.62378 0.0
C1116 C 0.46093 0.11291 0.62267 0.0
C1117 C 0.46293 0.07766 0.63388 0.0
N1118 N 0.43119 0.02265 0.64895 0.0
N1119 N 0.42211 0.15769 0.60279 0.0
C1120 C 0.42886 0.05846 0.64019 0.0
C1121 C 0.42458 0.12722 0.61621 0.0
N1122 N 0.35961 0.06122 0.64487 0.0
N1123 N 0.49366 0.13382 0.61917 0.0
H1124 H 0.39611 0.17044 0.59855 0.0
H1125 H 0.44559 0.16877 0.5947 0.0
H1126 H 0.5209 0.12474 0.62379 0.0
H1127 H 0.49366 0.16178 0.61333 0.0
H1128 H 0.35941 0.03969 0.65613 0.0
H1129 H 0.33231 0.07209 0.64158 0.0
H1130 H 0.4074 0.00528 0.65187 0.0
H1131 H 0.45728 0.00882 0.65181 0.0
C1132 C 0.17716 0.14221 0.87433 0.0
C1133 C 0.13811 0.13508 0.87969 0.0
C1134 C 0.13353 0.19911 0.89581 0.0
C1135 C 0.17263 0.20608 0.89059 0.0
N1136 N 0.23383 0.18246 0.87874 0.0
N1137 N 0.08071 0.15395 0.89837 0.0
C1138 C 0.19504 0.17709 0.88089 0.0
C1139 C 0.11691 0.16257 0.89144 0.0
N1140 N 0.1972 0.11557 0.86301 0.0
N1141 N 0.11149 0.22822 0.90379 0.0
H1142 H 0.06582 0.12916 0.89416 0.0
H1143 H 0.066 0.17032 0.90936 0.0
H1144 H 0.12254 0.25489 0.9081 0.0
H1145 H 0.08166 0.22701 0.905 0.0
H1146 H 0.22386 0.1209 0.85624 0.0
H1147 H 0.18654 0.08825 0.85956 0.0
H1148 H 0.25279 0.16131 0.87366 0.0
H1149 H 0.24778 0.20736 0.88381 0.0
C1150 C 0.07003 0.86993 0.11354 0.0
C1151 C 0.104 0.89249 0.11325 0.0
C1152 C 0.06839 0.94858 0.12626 0.0
C1153 C 0.03423 0.92628 0.1261 0.0
N1154 N 0.00074 0.86726 0.11789 0.0
N1155 N 0.13563 0.95391 0.11622 0.0
C1156 C 0.03452 0.8874 0.11916 0.0
C1157 C 0.10318 0.9321 0.11866 0.0
N1158 N 0.07209 0.83152 0.10893 0.0
N1159 N 0.06756 0.98525 0.13401 0.0
H1160 H 0.16154 0.94256 0.1108 0.0
H1161 H 0.13648 0.98366 0.11804 0.0
H1162 H 0.04229 0.99858 0.13898 0.0
H1163 H 0.09197 0.00187 0.13666 0.0
H1164 H 0.04979 0.81207 0.11137 0.0
H1165 H 0.09707 0.81848 0.10335 0.0
H1166 H 0.99805 0.84048 0.1108 0.0
H1167 H 0.97447 0.87803 0.12311 0.0
C1168 C 0.63583 0.79007 0.8866 0.0
C1169 C 0.67514 0.78293 0.88209 0.0
C1170 C 0.6805 0.84675 0.86589 0.0
C1171 C 0.64023 0.85194 0.86836 0.0
N1172 N 0.57833 0.82547 0.87748 0.0
N1173 N 0.73446 0.80244 0.86576 0.0
C1174 C 0.61757 0.82281 0.87783 0.0
C1175 C 0.69732 0.81064 0.87114 0.0
N1176 N 0.61578 0.76562 0.89927 0.0
N1177 N 0.70297 0.87687 0.85954 0.0
H1178 H 0.74856 0.77747 0.87057 0.0
H1179 H 0.75057 0.81934 0.8556 0.0
H1180 H 0.6919 0.90394 0.85591 0.0
H1181 H 0.7329 0.87613 0.8596 0.0
H1182 H 0.58836 0.77167 0.90491 0.0
H1183 H 0.62765 0.74085 0.90573 0.0
H1184 H 0.56009 0.80324 0.88206 0.0
H1185 H 0.56381 0.8484 0.87061 0.0
C1186 C 0.92982 0.94086 0.64285 0.0
C1187 C 0.96467 0.92119 0.63857 0.0
C1188 C 0.92952 0.87231 0.61856 0.0
C1189 C 0.89444 0.89047 0.62404 0.0
N1190 N 0.85999 0.9393 0.64313 0.0
N1191 N 0.99748 0.86472 0.6257 0.0
C1192 C 0.89424 0.92392 0.63676 0.0
C1193 C 0.9645 0.88605 0.62724 0.0
N1194 N 0.9309 0.97645 0.65193 0.0
N1195 N 0.92942 0.84189 0.60504 0.0
H1196 H 0.02367 0.8734 0.63205 0.0
H1197 H 0.99836 0.83683 0.6198 0.0
H1198 H 0.90428 0.82959 0.59919 0.0
H1199 H 0.95426 0.83045 0.59844 0.0
H1200 H 0.90697 0.99423 0.65347 0.0
H1201 H 0.95644 0.98964 0.65659 0.0
H1202 H 0.85773 0.96079 0.65435 0.0
H1203 H 0.83341 0.92898 0.63807 0.0
C1204 C 0.86237 0.21172 0.38161 0.0
C1205 C 0.82165 0.21436 0.38203 0.0
C1206 C 0.81614 0.14922 0.36747 0.0
C1207 C 0.85689 0.14578 0.36808 0.0
N1208 N 0.91897 0.17186 0.37723 0.0
N1209 N 0.75927 0.18574 0.37749 0.0
C1210 C 0.88002 0.17651 0.37564 0.0
C1211 C 0.79835 0.18316 0.37547 0.0
N1212 N 0.88416 0.24347 0.3862 0.0
N1213 N 0.79453 0.11996 0.35931 0.0
H1214 H 0.74558 0.21037 0.38312 0.0
H1215 H 0.74039 0.163 0.37494 0.0
H1216 H 0.80624 0.09384 0.35446 0.0
H1217 H 0.76521 0.12197 0.35632 0.0
H1218 H 0.9137 0.24514 0.38379 0.0
H1219 H 0.87244 0.26947 0.39128 0.0
H1220 H 0.937 0.19074 0.38515 0.0
H1221 H 0.93335 0.14789 0.3714 0.0
C1222 C 0.5945 0.07223 0.12131 0.0
C1223 C 0.60127 0.11245 0.12301 0.0
C1224 C 0.53946 0.12051 0.14095 0.0
C1225 C 0.53103 0.08111 0.1373 0.0
N1226 N 0.54815 0.01995 0.12227 0.0
N1227 N 0.57762 0.176 0.13129 0.0
C1228 C 0.55786 0.0571 0.12693 0.0
C1229 C 0.57318 0.13689 0.13214 0.0
N1230 N 0.62362 0.04828 0.11522 0.0
N1231 N 0.51508 0.14244 0.15272 0.0
H1232 H 0.60139 0.18928 0.12453 0.0
H1233 H 0.55623 0.19548 0.13548 0.0
H1234 H 0.48916 0.13216 0.15868 0.0
H1235 H 0.52186 0.16998 0.15797 0.0
H1236 H 0.62176 0.01838 0.11573 0.0
H1237 H 0.65102 0.05816 0.11135 0.0
H1238 H 0.56446 0.00235 0.11257 0.0
H1239 H 0.52243 0.00735 0.12715 0.0
C1240 C 0.69642 0.18605 0.64232 0.0
C1241 C 0.67251 0.21453 0.63317 0.0
C1242 C 0.61563 0.17516 0.64049 0.0
C1243 C 0.63967 0.14524 0.64797 0.0
N1244 N 0.70338 0.11933 0.65293 0.0
N1245 N 0.6102 0.23301 0.6198 0.0
C1246 C 0.68025 0.14989 0.64813 0.0
C1247 C 0.63241 0.20797 0.63097 0.0
N1248 N 0.73455 0.19359 0.6455 0.0
N1249 N 0.57675 0.17319 0.64353 0.0
H1250 H 0.62108 0.25766 0.61271 0.0
H1251 H 0.58166 0.22747 0.6159 0.0
H1252 H 0.56351 0.1504 0.65131 0.0
H1253 H 0.55807 0.19589 0.64037 0.0
H1254 H 0.75246 0.17604 0.65437 0.0
H1255 H 0.74791 0.2186 0.64016 0.0
H1256 H 0.73315 0.11967 0.65115 0.0
H1257 H 0.69264 0.09239 0.65712 0.0
C1258 C 0.54421 0.93019 0.41378 0.0
C1259 C 0.53102 0.92552 0.39297 0.0
C1260 C 0.59352 0.89786 0.38422 0.0
C1261 C 0.60274 0.89401 0.40566 0.0
N1262 N 0.58108 0.90088 0.44135 0.0
N1263 N 0.54167 0.8939 0.35967 0.0
C1264 C 0.5766 0.90872 0.42068 0.0
C1265 C 0.55523 0.90642 0.37843 0.0
N1266 N 0.52692 0.95593 0.42683 0.0
N1267 N 0.62127 0.89457 0.36928 0.0
H1268 H 0.51283 0.895 0.3554 0.0
H1269 H 0.55841 0.87746 0.34954 0.0
H1270 H 0.65043 0.89194 0.3728 0.0
H1271 H 0.61571 0.89978 0.35358 0.0
H1272 H 0.53757 0.96203 0.44163 0.0
H1273 H 0.5054 0.97474 0.42191 0.0
H1274 H 0.56059 0.90861 0.45244 0.0
H1275 H 0.60255 0.88296 0.44715 0.0
C1276 C 0.80529 0.81982 0.13818 0.0
C1277 C 0.82998 0.78838 0.13377 0.0
C1278 C 0.88599 0.82618 0.14472 0.0
C1279 C 0.8617 0.85853 0.14765 0.0
N1280 N 0.79934 0.88839 0.14489 0.0
N1281 N 0.89389 0.76216 0.13024 0.0
C1282 C 0.82157 0.85596 0.14384 0.0
C1283 C 0.87039 0.79174 0.13627 0.0
N1284 N 0.76631 0.81485 0.13729 0.0
N1285 N 0.92372 0.82808 0.15069 0.0
H1286 H 0.88351 0.73608 0.12447 0.0
H1287 H 0.92372 0.7643 0.12948 0.0
H1288 H 0.93607 0.85283 0.15701 0.0
H1289 H 0.94208 0.80442 0.15103 0.0
H1290 H 0.74658 0.83521 0.1425 0.0
H1291 H 0.75358 0.78915 0.13245 0.0
H1292 H 0.7708 0.88948 0.14004 0.0
H1293 H 0.81019 0.91515 0.14935 0.0
C1294 C 0.96152 0.11067 0.88809 0.0
C1295 C 0.96616 0.07052 0.89142 0.0
C1296 C 0.90087 0.06686 0.90587 0.0
C1297 C 0.89787 0.10757 0.90445 0.0
N1298 N 0.92799 0.16894 0.89803 0.0
N1299 N 0.94229 0.01064 0.90535 0.0
C1300 C 0.9289 0.12967 0.89653 0.0
C1301 C 0.93647 0.04872 0.90098 0.0
N1302 N 0.98818 0.13081 0.87685 0.0
N1303 N 0.86921 0.04537 0.91084 0.0
H1304 H 0.96686 0.99572 0.90071 0.0
H1305 H 0.92375 0.9944 0.91457 0.0
H1306 H 0.84251 0.05746 0.91428 0.0
H1307 H 0.86843 0.01546 0.90987 0.0
H1308 H 0.98408 0.15911 0.87197 0.0
H1309 H 0.01311 0.1185 0.87083 0.0
H1310 H 0.95138 0.18656 0.89462 0.0
H1311 H 0.9051 0.1838 0.90474 0.0
C1312 C 0.86163 0.71501 0.64823 0.0
C1313 C 0.8256 0.71594 0.63782 0.0
C1314 C 0.82315 0.64537 0.63797 0.0
C1315 C 0.85765 0.64467 0.6498 0.0
N1316 N 0.9074 0.67822 0.6686 0.0
N1317 N 0.76944 0.68309 0.62495 0.0
C1318 C 0.87609 0.67936 0.65573 0.0
C1319 C 0.80565 0.68138 0.63319 0.0
N1320 N 0.88297 0.74797 0.65 0.0
N1321 N 0.80745 0.61158 0.63109 0.0
H1322 H 0.75598 0.70899 0.62114 0.0
H1323 H 0.7516 0.65923 0.62326 0.0
H1324 H 0.81843 0.58463 0.63512 0.0
H1325 H 0.78497 0.61015 0.62043 0.0
H1326 H 0.91123 0.74849 0.65533 0.0
H1327 H 0.87381 0.7746 0.64437 0.0
H1328 H 0.91945 0.70258 0.67543 0.0
H1329 H 0.91976 0.65258 0.67377 0.0
C1330 C 0.579 0.6263 0.8872 0.0
C1331 C 0.60909 0.60378 0.89583 0.0
C1332 C 0.56859 0.54602 0.89319 0.0
C1333 C 0.53962 0.56821 0.88328 0.0
N1334 N 0.52041 0.62793 0.86697 0.0
N1335 N 0.63569 0.54106 0.90319 0.0
C1336 C 0.54596 0.60779 0.87892 0.0
C1337 C 0.60478 0.56327 0.89782 0.0
N1338 N 0.58089 0.6656 0.88802 0.0
N1339 N 0.56148 0.50844 0.89822 0.0
H1340 H 0.66283 0.55249 0.90627 0.0
H1341 H 0.63545 0.51109 0.90279 0.0
H1342 H 0.53649 0.49405 0.89371 0.0
H1343 H 0.57941 0.49215 0.90775 0.0
H1344 H 0.558 0.68357 0.88416 0.0
H1345 H 0.60391 0.68035 0.89465 0.0
H1346 H 0.5258 0.65559 0.86143 0.0
H1347 H 0.4953 0.61603 0.86095 0.0
C1348 C 0.68172 0.35329 0.14245 0.0
C1349 C 0.64139 0.35901 0.14097 0.0
C1350 C 0.63415 0.296 0.12425 0.0
C1351 C 0.67367 0.28835 0.12797 0.0
N1352 N 0.73502 0.30822 0.14176 0.0
N1353 N 0.5782 0.33331 0.13405 0.0
C1354 C 0.69744 0.31659 0.13745 0.0
C1355 C 0.61732 0.32979 0.1327 0.0
N1356 N 0.70511 0.38336 0.14779 0.0
N1357 N 0.61251 0.27098 0.11273 0.0
H1358 H 0.56467 0.35699 0.14083 0.0
H1359 H 0.55915 0.3112 0.13038 0.0
H1360 H 0.62324 0.24542 0.1066 0.0
H1361 H 0.58476 0.27719 0.10764 0.0
H1362 H 0.73499 0.38223 0.14702 0.0
H1363 H 0.69466 0.41072 0.15138 0.0
H1364 H 0.75253 0.32555 0.15098 0.0
H1365 H 0.74829 0.2828 0.13693 0.0
C1366 C 0.9224 0.36734 0.40592 0.0
C1367 C 0.8883 0.38824 0.40169 0.0
C1368 C 0.92618 0.44091 0.3865 0.0
C1369 C 0.96003 0.41884 0.38951 0.0
N1370 N 0.99017 0.35848 0.39848 0.0
N1371 N 0.85633 0.4424 0.38588 0.0
C1372 C 0.95812 0.38136 0.39831 0.0
C1373 C 0.88978 0.42434 0.39134 0.0
N1374 N 0.92065 0.33421 0.4174 0.0
N1375 N 0.92901 0.47811 0.37972 0.0
H1376 H 0.82924 0.43183 0.3899 0.0
H1377 H 0.8552 0.46651 0.37628 0.0
H1378 H 0.95519 0.49091 0.37583 0.0
H1379 H 0.90595 0.4972 0.37931 0.0
H1380 H 0.94482 0.31994 0.42304 0.0
H1381 H 0.89486 0.32236 0.42268 0.0
H1382 H 0.98977 0.32947 0.40253 0.0
H1383 H 0.01679 0.36742 0.39277 0.0
C1384 C 0.81916 0.34669 0.86799 0.0
C1385 C 0.85932 0.35284 0.87045 0.0
C1386 C 0.86458 0.29227 0.88988 0.0
C1387 C 0.82558 0.28393 0.8852 0.0
N1388 N 0.7662 0.30114 0.86828 0.0
N1389 N 0.9216 0.32813 0.88041 0.0
C1390 C 0.80301 0.31054 0.87375 0.0
C1391 C 0.88239 0.32484 0.88063 0.0
N1392 N 0.79618 0.37595 0.86108 0.0
N1393 N 0.88481 0.26897 0.90307 0.0
H1394 H 0.93599 0.3508 0.87318 0.0
H1395 H 0.94008 0.30651 0.8855 0.0
H1396 H 0.87324 0.24429 0.90982 0.0
H1397 H 0.91194 0.27593 0.90881 0.0
H1398 H 0.76627 0.37453 0.86099 0.0
H1399 H 0.80673 0.40313 0.8572 0.0
H1400 H 0.74987 0.31716 0.85781 0.0
H1401 H 0.75268 0.27599 0.87332 0.0
C1402 C 0.93504 0.5607 0.1341 0.0
C1403 C 0.96934 0.58242 0.13181 0.0
C1404 C 0.93375 0.63323 0.11354 0.0
C1405 C 0.89907 0.61297 0.11728 0.0
N1406 N 0.86522 0.55997 0.13312 0.0
N1407 N 0.00049 0.64246 0.12303 0.0
C1408 C 0.89927 0.57741 0.12818 0.0
C1409 C 0.96852 0.61948 0.12243 0.0
N1410 N 0.93687 0.52362 0.14117 0.0
N1411 N 0.93347 0.66556 0.10139 0.0
H1412 H 0.02635 0.634 0.12985 0.0
H1413 H 0.0005 0.67128 0.11857 0.0
H1414 H 0.90834 0.67727 0.09517 0.0
H1415 H 0.95834 0.67911 0.09611 0.0
H1416 H 0.91355 0.50483 0.14113 0.0
H1417 H 0.96258 0.5105 0.14561 0.0
H1418 H 0.86308 0.53644 0.14308 0.0
H1419 H 0.8386 0.57054 0.12826 0.0
C1420 C 0.61787 0.67757 0.36486 0.0
C1421 C 0.64148 0.64436 0.36408 0.0
C1422 C 0.69615 0.68168 0.37748 0.0
C1423 C 0.67155 0.71393 0.37991 0.0
N1424 N 0.60761 0.74104 0.37941 0.0
N1425 N 0.70158 0.61277 0.37168 0.0
C1426 C 0.63201 0.71148 0.37452 0.0
C1427 C 0.68031 0.64585 0.37089 0.0
N1428 N 0.58225 0.67694 0.35584 0.0
N1429 N 0.73476 0.68567 0.38086 0.0
H1430 H 0.69115 0.58625 0.36654 0.0
H1431 H 0.72854 0.611 0.37864 0.0
H1432 H 0.74711 0.71135 0.386 0.0
H1433 H 0.75489 0.66453 0.37722 0.0
H1434 H 0.56518 0.70132 0.35396 0.0
H1435 H 0.57112 0.65262 0.34845 0.0
H1436 H 0.57784 0.73925 0.37797 0.0
H1437 H 0.61667 0.76627 0.38672 0.0
C1438 C 0.57533 0.36867 0.63612 0.0
C1439 C 0.60319 0.39178 0.62584 0.0
C1440 C 0.56109 0.4482 0.62935 0.0
C1441 C 0.53425 0.42544 0.64056 0.0
N1442 N 0.51903 0.36595 0.65821 0.0
N1443 N 0.62645 0.45499 0.61665 0.0
C1444 C 0.54257 0.38638 0.64523 0.0
C1445 C 0.59715 0.43201 0.62353 0.0
N1446 N 0.57891 0.32945 0.63607 0.0
N1447 N 0.552 0.48527 0.62416 0.0
H1448 H 0.65354 0.44436 0.61271 0.0
H1449 H 0.6252 0.48494 0.61664 0.0
H1450 H 0.52714 0.49897 0.62943 0.0
H1451 H 0.56806 0.50177 0.61379 0.0
H1452 H 0.55738 0.3108 0.6411 0.0
H1453 H 0.6019 0.31517 0.62915 0.0
H1454 H 0.52598 0.33885 0.66403 0.0
H1455 H 0.49402 0.37722 0.66471 0.0
C1456 C 0.16744 0.34804 0.3862 0.0
C1457 C 0.13542 0.34845 0.37247 0.0
C1458 C 0.13268 0.27797 0.37325 0.0
C1459 C 0.16624 0.27738 0.3859 0.0
N1460 N 0.21928 0.31104 0.40173 0.0
N1461 N 0.09048 0.31441 0.35059 0.0
C1462 C 0.18459 0.31223 0.39173 0.0
C1463 C 0.1191 0.31356 0.36519 0.0
N1464 N 0.1813 0.38191 0.39404 0.0
N1465 N 0.11244 0.24474 0.36991 0.0
H1466 H 0.07815 0.33984 0.34514 0.0
H1467 H 0.08073 0.29005 0.34276 0.0
H1468 H 0.12099 0.21803 0.37565 0.0
H1469 H 0.08537 0.24393 0.36301 0.0
H1470 H 0.20137 0.38344 0.40603 0.0
H1471 H 0.17113 0.40881 0.38937 0.0
H1472 H 0.23623 0.33521 0.40448 0.0
H1473 H 0.23282 0.28534 0.40584 0.0
C1474 C 0.39844 0.43209 0.1223 0.0
C1475 C 0.39706 0.39914 0.10921 0.0
C1476 C 0.46743 0.39653 0.10849 0.0
C1477 C 0.46885 0.4305 0.12085 0.0
N1478 N 0.4364 0.48496 0.13602 0.0
N1479 N 0.42937 0.35394 0.08679 0.0
C1480 C 0.43451 0.44954 0.12678 0.0
C1481 C 0.43133 0.38281 0.10121 0.0
N1482 N 0.36527 0.4463 0.13073 0.0
N1483 N 0.5003 0.37597 0.10481 0.0
H1484 H 0.40345 0.34214 0.08168 0.0
H1485 H 0.45317 0.34378 0.07863 0.0
H1486 H 0.52733 0.38446 0.11009 0.0
H1487 H 0.50052 0.3487 0.09809 0.0
H1488 H 0.36466 0.46708 0.1424 0.0
H1489 H 0.33815 0.43571 0.12688 0.0
H1490 H 0.41245 0.5022 0.13878 0.0
H1491 H 0.46234 0.49876 0.1393 0.0
C1492 C 0.36999 0.70086 0.89415 0.0
C1493 C 0.3305 0.70829 0.89023 0.0
C1494 C 0.323 0.64333 0.8757 0.0
C1495 C 0.36335 0.63774 0.87734 0.0
N1496 N 0.42625 0.66326 0.88525 0.0
N1497 N 0.26949 0.68816 0.87612 0.0
C1498 C 0.3871 0.66692 0.88598 0.0
C1499 C 0.30703 0.67996 0.88063 0.0
N1500 N 0.39136 0.72633 0.90554 0.0
N1501 N 0.29977 0.61314 0.87033 0.0
H1502 H 0.25603 0.71354 0.88086 0.0
H1503 H 0.25224 0.67077 0.86679 0.0
H1504 H 0.31032 0.58571 0.867 0.0
H1505 H 0.26987 0.61419 0.87096 0.0
H1506 H 0.41895 0.72034 0.91094 0.0
H1507 H 0.38061 0.75233 0.91112 0.0
H1508 H 0.44523 0.6854 0.88899 0.0
H1509 H 0.44005 0.63926 0.87906 0.0
C1510 C 0.06714 0.55438 0.62929 0.0
C1511 C 0.03365 0.57766 0.62925 0.0
C1512 C 0.07045 0.63195 0.61511 0.0
C1513 C 0.10442 0.60957 0.61649 0.0
N1514 N 0.13683 0.55144 0.62704 0.0
N1515 N 0.00388 0.64002 0.62547 0.0
C1516 C 0.10327 0.57125 0.62416 0.0
C1517 C 0.03541 0.61686 0.62304 0.0
N1518 N 0.06414 0.51595 0.63362 0.0
N1519 N 0.0716 0.66735 0.60578 0.0
H1520 H 0.97768 0.63009 0.6313 0.0
H1521 H 0.00444 0.66974 0.62342 0.0
H1522 H 0.09688 0.67945 0.59998 0.0
H1523 H 0.0472 0.68343 0.60226 0.0
H1524 H 0.08659 0.49645 0.63173 0.0
H1525 H 0.03823 0.50294 0.63782 0.0
H1526 H 0.13851 0.52512 0.63473 0.0
H1527 H 0.16366 0.56252 0.62289 0.0
C1528 C 0.11718 0.68491 0.15283 0.0
C1529 C 0.14107 0.65371 0.1588 0.0
C1530 C 0.19847 0.69342 0.15271 0.0
C1531 C 0.17461 0.72298 0.14469 0.0
N1532 N 0.1117 0.746 0.13488 0.0
N1533 N 0.20441 0.62602 0.16216 0.0
C1534 C 0.13406 0.71846 0.14411 0.0
C1535 C 0.18177 0.6574 0.1583 0.0
N1536 N 0.07837 0.68291 0.15622 0.0
N1537 N 0.23695 0.69997 0.15518 0.0
H1538 H 0.1933 0.59922 0.16634 0.0
H1539 H 0.23402 0.62567 0.15976 0.0
H1540 H 0.25017 0.7256 0.15061 0.0
H1541 H 0.25527 0.68126 0.16305 0.0
H1542 H 0.05973 0.70604 0.15413 0.0
H1543 H 0.0651 0.65908 0.16302 0.0
H1544 H 0.08256 0.74235 0.13172 0.0
H1545 H 0.12283 0.77161 0.12893 0.0
C1546 C 0.10106 0.4257 0.89305 0.0
C1547 C 0.1058 0.38521 0.89134 0.0
C1548 C 0.04395 0.38046 0.87307 0.0
C1549 C 0.03702 0.42002 0.87721 0.0
N1550 N 0.05763 0.48034 0.89204 0.0
N1551 N 0.07949 0.32307 0.88233 0.0
C1552 C 0.06522 0.44265 0.88749 0.0
C1553 C 0.07681 0.36235 0.88185 0.0
N1554 N 0.13139 0.44814 0.89911 0.0
N1555 N 0.01901 0.35993 0.86092 0.0
H1556 H 0.10272 0.30853 0.88885 0.0
H1557 H 0.05719 0.30471 0.87803 0.0
H1558 H 0.99376 0.37136 0.85481 0.0
H1559 H 0.0249 0.33237 0.8554 0.0
H1560 H 0.13107 0.4781 0.89862 0.0
H1561 H 0.15832 0.43689 0.90286 0.0
H1562 H 0.07472 0.497 0.90183 0.0
H1563 H 0.03303 0.49455 0.8868 0.0
C1564 C 0.29827 0.31493 0.64866 0.0
C1565 C 0.32174 0.28516 0.64051 0.0
C1566 C 0.37936 0.32433 0.64647 0.0
C1567 C 0.35571 0.35528 0.65317 0.0
N1568 N 0.29237 0.38271 0.6572 0.0
N1569 N 0.3838 0.26289 0.62874 0.0
C1570 C 0.31503 0.35131 0.65339 0.0
C1571 C 0.36203 0.29041 0.6384 0.0
N1572 N 0.26003 0.30826 0.65207 0.0
N1573 N 0.41838 0.32651 0.6489 0.0
H1574 H 0.37257 0.23686 0.6234 0.0
H1575 H 0.41245 0.26699 0.62458 0.0
H1576 H 0.43212 0.35038 0.65532 0.0
H1577 H 0.43693 0.30343 0.64644 0.0
H1578 H 0.24229 0.32708 0.66025 0.0
H1579 H 0.24648 0.28263 0.64782 0.0
H1580 H 0.26261 0.38265 0.65542 0.0
H1581 H 0.30351 0.40994 0.66042 0.0
C1582 C 0.45638 0.61479 0.37808 0.0
C1583 C 0.4629 0.57455 0.37948 0.0
C1584 C 0.39852 0.56542 0.39434 0.0
C1585 C 0.39341 0.60598 0.39459 0.0
N1586 N 0.41989 0.66968 0.39041 0.0
N1587 N 0.44271 0.51165 0.39091 0.0
C1588 C 0.42293 0.63081 0.38736 0.0
C1589 C 0.4347 0.54986 0.38823 0.0
N1590 N 0.48223 0.63776 0.36792 0.0
N1591 N 0.36833 0.54178 0.39914 0.0
H1592 H 0.46812 0.49897 0.38564 0.0
H1593 H 0.42531 0.49299 0.3994 0.0
H1594 H 0.34145 0.55212 0.40367 0.0
H1595 H 0.36889 0.51205 0.3971 0.0
H1596 H 0.47702 0.66653 0.36432 0.0
H1597 H 0.50782 0.6274 0.36159 0.0
H1598 H 0.44209 0.68905 0.38747 0.0
H1599 H 0.39638 0.68242 0.39777 0.0
loop_
_geom_bond_atom_site_label_1
_geom_bond_atom_site_label_2
_geom_bond_distance
_geom_bond_site_symmetry_2
_ccdc_geom_bond_type
O0 Cd1 2.223 . S
O0 C8 1.315 . S
Cd1 O0 2.223 . S
Cd1 O4 2.297 . S
Cd1 O5 2.439 . S
Cd1 O11 2.240 . S
Cd2 O3 2.240 . S
Cd2 O10 2.223 . S
Cd2 O12 2.297 . S
Cd2 O13 2.439 . S
O3 Cd2 2.240 . S
O3 C8 1.279 . S
O4 Cd1 2.297 . S
O4 C6 1.247 . S
O5 Cd1 2.439 . S
O5 C6 1.208 . S
C6 O4 1.247 . S
C6 O5 1.208 . S
C7 O12 1.247 . S
C7 O13 1.208 . S
C8 O0 1.315 . S
C8 O3 1.279 . S
C9 O10 1.315 . S
C9 O11 1.279 . S
O10 Cd2 2.223 . S
O10 C9 1.315 . S
O11 Cd1 2.240 . S
O11 C9 1.279 . S
O12 Cd2 2.297 . S
O12 C7 1.247 . S
O13 Cd2 2.439 . S
O13 C7 1.208 . S
O14 Cd15 2.223 . S
O14 C22 1.315 . S
Cd15 O14 2.223 . S
Cd15 O18 2.297 . S
Cd15 O19 2.439 . S
Cd15 O25 2.240 . S
Cd16 O17 2.240 . S
Cd16 O24 2.223 . S
Cd16 O26 2.297 . S
Cd16 O27 2.439 . S
O17 Cd16 2.240 . S
O17 C22 1.279 . S
O18 Cd15 2.297 . S
O18 C20 1.247 . S
O19 Cd15 2.439 . S
O19 C20 1.208 . S
C20 O18 1.247 . S
C20 O19 1.208 . S
C21 O26 1.247 . S
C21 O27 1.208 . S
C22 O14 1.315 . S
C22 O17 1.279 . S
C23 O24 1.315 . S
C23 O25 1.279 . S
O24 Cd16 2.223 . S
O24 C23 1.315 . S
O25 Cd15 2.240 . S
O25 C23 1.279 . S
O26 Cd16 2.297 . S
O26 C21 1.247 . S
O27 Cd16 2.439 . S
O27 C21 1.208 . S
O28 Cd29 2.223 . S
O28 C36 1.315 . S
Cd29 O28 2.223 . S
Cd29 O32 2.297 . S
Cd29 O33 2.439 . S
Cd29 O39 2.240 . S
Cd30 O31 2.240 . S
Cd30 O38 2.223 . S
Cd30 O40 2.297 . S
Cd30 O41 2.439 . S
O31 Cd30 2.240 . S
O31 C36 1.279 . S
O32 Cd29 2.297 . S
O32 C34 1.247 . S
O33 Cd29 2.439 . S
O33 C34 1.208 . S
C34 O32 1.247 . S
C34 O33 1.208 . S
C35 O40 1.247 1_655 S
C35 O41 1.208 1_655 S
C36 O28 1.315 . S
C36 O31 1.279 . S
C37 O38 1.315 . S
C37 O39 1.279 . S
O38 Cd30 2.223 . S
O38 C37 1.315 . S
O39 Cd29 2.240 . S
O39 C37 1.279 . S
O40 Cd30 2.297 . S
O40 C35 1.247 1_455 S
O41 Cd30 2.439 . S
O41 C35 1.208 1_455 S
O42 Cd43 2.223 . S
O42 C50 1.315 . S
Cd43 O42 2.223 . S
Cd43 O46 2.297 . S
Cd43 O47 2.439 . S
Cd43 O53 2.240 . S
Cd44 O45 2.240 . S
Cd44 O52 2.223 . S
Cd44 O54 2.297 . S
Cd44 O55 2.439 . S
O45 Cd44 2.240 . S
O45 C50 1.279 . S
O46 Cd43 2.297 . S
O46 C48 1.247 . S
O47 Cd43 2.439 . S
O47 C48 1.208 . S
C48 O46 1.247 . S
C48 O47 1.208 . S
C49 O54 1.247 . S
C49 O55 1.208 . S
C50 O42 1.315 . S
C50 O45 1.279 . S
C51 O52 1.315 . S
C51 O53 1.279 . S
O52 Cd44 2.223 . S
O52 C51 1.315 . S
O53 Cd43 2.240 . S
O53 C51 1.279 . S
O54 Cd44 2.297 . S
O54 C49 1.247 . S
O55 Cd44 2.439 . S
O55 C49 1.208 . S
O56 Cd57 2.223 . S
O56 C64 1.315 . S
Cd57 O56 2.223 . S
Cd57 O60 2.297 . S
Cd57 O61 2.439 . S
Cd57 O67 2.240 . S
Cd58 O59 2.240 . S
Cd58 O66 2.223 . S
Cd58 O68 2.297 . S
Cd58 O69 2.439 . S
O59 Cd58 2.240 . S
O59 C64 1.279 . S
O60 Cd57 2.297 . S
O60 C62 1.247 . S
O61 Cd57 2.439 . S
O61 C62 1.208 . S
C62 O60 1.247 . S
C62 O61 1.208 . S
C63 O68 1.247 . S
C63 O69 1.208 . S
C64 O56 1.315 . S
C64 O59 1.279 . S
C65 O66 1.315 . S
C65 O67 1.279 . S
O66 Cd58 2.223 . S
O66 C65 1.315 . S
O67 Cd57 2.240 . S
O67 C65 1.279 . S
O68 Cd58 2.297 . S
O68 C63 1.247 . S
O69 Cd58 2.439 . S
O69 C63 1.208 . S
O70 Cd71 2.223 . S
O70 C78 1.315 . S
Cd71 O70 2.223 . S
Cd71 O74 2.297 . S
Cd71 O75 2.439 . S
Cd71 O81 2.240 . S
Cd72 O73 2.240 . S
Cd72 O80 2.223 . S
Cd72 O82 2.297 . S
Cd72 O83 2.439 . S
O73 Cd72 2.240 . S
O73 C78 1.279 . S
O74 Cd71 2.297 . S
O74 C76 1.247 . S
O75 Cd71 2.439 . S
O75 C76 1.208 . S
C76 O74 1.247 . S
C76 O75 1.208 . S
C77 O82 1.247 . S
C77 O83 1.208 . S
C78 O70 1.315 . S
C78 O73 1.279 . S
C79 O80 1.315 . S
C79 O81 1.279 . S
O80 Cd72 2.223 . S
O80 C79 1.315 . S
O81 Cd71 2.240 . S
O81 C79 1.279 . S
O82 Cd72 2.297 . S
O82 C77 1.247 . S
O83 Cd72 2.439 . S
O83 C77 1.208 . S
O84 Cd85 2.223 . S
O84 C92 1.315 . S
Cd85 O84 2.223 . S
Cd85 O88 2.297 . S
Cd85 O89 2.439 . S
Cd85 O95 2.240 . S
Cd86 O87 2.240 . S
Cd86 O94 2.223 . S
Cd86 O96 2.297 . S
Cd86 O97 2.439 . S
O87 Cd86 2.240 . S
O87 C92 1.279 . S
O88 Cd85 2.297 . S
O88 C90 1.247 . S
O89 Cd85 2.439 . S
O89 C90 1.208 . S
C90 O88 1.247 . S
C90 O89 1.208 . S
C91 O96 1.247 1_655 S
C91 O97 1.208 1_655 S
C92 O84 1.315 . S
C92 O87 1.279 . S
C93 O94 1.315 . S
C93 O95 1.279 . S
O94 Cd86 2.223 . S
O94 C93 1.315 . S
O95 Cd85 2.240 . S
O95 C93 1.279 . S
O96 Cd86 2.297 . S
O96 C91 1.247 1_455 S
O97 Cd86 2.439 . S
O97 C91 1.208 1_455 S
O98 Cd99 2.223 . S
O98 C106 1.315 . S
Cd99 O98 2.223 . S
Cd99 O102 2.297 . S
Cd99 O103 2.439 . S
Cd99 O109 2.240 . S
Cd100 O101 2.240 . S
Cd100 O108 2.223 . S
Cd100 O110 2.297 . S
Cd100 O111 2.439 . S
O101 Cd100 2.240 . S
O101 C106 1.279 . S
O102 Cd99 2.297 . S
O102 C104 1.247 . S
O103 Cd99 2.439 . S
O103 C104 1.208 . S
C104 O102 1.247 . S
C104 O103 1.208 . S
C105 O110 1.247 . S
C105 O111 1.208 . S
C106 O98 1.315 . S
C106 O101 1.279 . S
C107 O108 1.315 . S
C107 O109 1.279 . S
O108 Cd100 2.223 . S
O108 C107 1.315 . S
O109 Cd99 2.240 . S
O109 C107 1.279 . S
O110 Cd100 2.297 . S
O110 C105 1.247 . S
O111 Cd100 2.439 . S
O111 C105 1.208 . S
O112 Cd113 2.223 . S
O112 C120 1.315 . S
Cd113 O112 2.223 . S
Cd113 O116 2.297 . S
Cd113 O117 2.439 . S
Cd113 O123 2.240 . S
Cd114 O115 2.240 . S
Cd114 O122 2.223 . S
Cd114 O124 2.297 . S
Cd114 O125 2.439 . S
O115 Cd114 2.240 . S
O115 C120 1.279 . S
O116 Cd113 2.297 . S
O116 C118 1.247 . S
O117 Cd113 2.439 . S
O117 C118 1.208 . S
C118 O116 1.247 . S
C118 O117 1.208 . S
C119 O124 1.247 . S
C119 O125 1.208 . S
C120 O112 1.315 . S
C120 O115 1.279 . S
C121 O122 1.315 . S
C121 O123 1.279 . S
O122 Cd114 2.223 . S
O122 C121 1.315 . S
O123 Cd113 2.240 . S
O123 C121 1.279 . S
O124 Cd114 2.297 . S
O124 C119 1.247 . S
O125 Cd114 2.439 . S
O125 C119 1.208 . S
O126 Cd127 2.223 . S
O126 C134 1.315 . S
Cd127 O126 2.223 . S
Cd127 O130 2.297 . S
Cd127 O131 2.439 . S
Cd127 O137 2.240 . S
Cd128 O129 2.240 . S
Cd128 O136 2.223 . S
Cd128 O138 2.297 . S
Cd128 O139 2.439 . S
O129 Cd128 2.240 . S
O129 C134 1.279 . S
O130 Cd127 2.297 . S
O130 C132 1.247 . S
O131 Cd127 2.439 . S
O131 C132 1.208 . S
C132 O130 1.247 . S
C132 O131 1.208 . S
C133 O138 1.247 . S
C133 O139 1.208 . S
C134 O126 1.315 . S
C134 O129 1.279 . S
C135 O136 1.315 . S
C135 O137 1.279 . S
O136 Cd128 2.223 . S
O136 C135 1.315 . S
O137 Cd127 2.240 . S
O137 C135 1.279 . S
O138 Cd128 2.297 . S
O138 C133 1.247 . S
O139 Cd128 2.439 . S
O139 C133 1.208 . S
O140 Cd141 2.223 . S
O140 C148 1.315 . S
Cd141 O140 2.223 . S
Cd141 O144 2.297 . S
Cd141 O145 2.439 . S
Cd141 O151 2.240 . S
Cd142 O143 2.240 . S
Cd142 O150 2.223 . S
Cd142 O152 2.297 . S
Cd142 O153 2.439 . S
O143 Cd142 2.240 . S
O143 C148 1.279 . S
O144 Cd141 2.297 . S
O144 C146 1.247 . S
O145 Cd141 2.439 . S
O145 C146 1.208 . S
C146 O144 1.247 . S
C146 O145 1.208 . S
C147 O152 1.247 1_455 S
C147 O153 1.208 1_455 S
C148 O140 1.315 . S
C148 O143 1.279 . S
C149 O150 1.315 . S
C149 O151 1.279 . S
O150 Cd142 2.223 . S
O150 C149 1.315 . S
O151 Cd141 2.240 . S
O151 C149 1.279 . S
O152 Cd142 2.297 . S
O152 C147 1.247 1_655 S
O153 Cd142 2.439 . S
O153 C147 1.208 1_655 S
O154 Cd155 2.223 . S
O154 C162 1.315 . S
Cd155 O154 2.223 . S
Cd155 O158 2.297 . S
Cd155 O159 2.439 . S
Cd155 O165 2.240 . S
Cd156 O157 2.240 . S
Cd156 O164 2.223 . S
Cd156 O166 2.297 . S
Cd156 O167 2.439 . S
O157 Cd156 2.240 . S
O157 C162 1.279 . S
O158 Cd155 2.297 . S
O158 C160 1.247 . S
O159 Cd155 2.439 . S
O159 C160 1.208 . S
C160 O158 1.247 . S
C160 O159 1.208 . S
C161 O166 1.247 . S
C161 O167 1.208 . S
C162 O154 1.315 . S
C162 O157 1.279 . S
C163 O164 1.315 . S
C163 O165 1.279 . S
O164 Cd156 2.223 . S
O164 C163 1.315 . S
O165 Cd155 2.240 . S
O165 C163 1.279 . S
O166 Cd156 2.297 . S
O166 C161 1.247 . S
O167 Cd156 2.439 . S
O167 C161 1.208 . S
O168 Cd169 2.223 . S
O168 C176 1.315 . S
Cd169 O168 2.223 . S
Cd169 O172 2.297 . S
Cd169 O173 2.439 . S
Cd169 O179 2.240 . S
Cd170 O171 2.240 . S
Cd170 O178 2.223 . S
Cd170 O180 2.297 . S
Cd170 O181 2.439 . S
O171 Cd170 2.240 . S
O171 C176 1.279 . S
O172 Cd169 2.297 . S
O172 C174 1.247 . S
O173 Cd169 2.439 . S
O173 C174 1.208 . S
C174 O172 1.247 . S
C174 O173 1.208 . S
C175 O180 1.247 . S
C175 O181 1.208 . S
C176 O168 1.315 . S
C176 O171 1.279 . S
C177 O178 1.315 . S
C177 O179 1.279 . S
O178 Cd170 2.223 . S
O178 C177 1.315 . S
O179 Cd169 2.240 . S
O179 C177 1.279 . S
O180 Cd170 2.297 . S
O180 C175 1.247 . S
O181 Cd170 2.439 . S
O181 C175 1.208 . S
O182 Cd183 2.223 . S
O182 C190 1.315 . S
Cd183 O182 2.223 . S
Cd183 O186 2.297 . S
Cd183 O187 2.439 . S
Cd183 O193 2.240 . S
Cd184 O185 2.240 . S
Cd184 O192 2.223 . S
Cd184 O194 2.297 . S
Cd184 O195 2.439 . S
O185 Cd184 2.240 . S
O185 C190 1.279 . S
O186 Cd183 2.297 . S
O186 C188 1.247 . S
O187 Cd183 2.439 . S
O187 C188 1.208 . S
C188 O186 1.247 . S
C188 O187 1.208 . S
C189 O194 1.247 . S
C189 O195 1.208 . S
C190 O182 1.315 . S
C190 O185 1.279 . S
C191 O192 1.315 . S
C191 O193 1.279 . S
O192 Cd184 2.223 . S
O192 C191 1.315 . S
O193 Cd183 2.240 . S
O193 C191 1.279 . S
O194 Cd184 2.297 . S
O194 C189 1.247 . S
O195 Cd184 2.439 . S
O195 C189 1.208 . S
O196 Cd197 2.223 . S
O196 C204 1.315 . S
Cd197 O196 2.223 . S
Cd197 O200 2.297 . S
Cd197 O201 2.439 . S
Cd197 O207 2.240 . S
Cd198 O199 2.240 . S
Cd198 O206 2.223 . S
Cd198 O208 2.297 . S
Cd198 O209 2.439 . S
O199 Cd198 2.240 . S
O199 C204 1.279 . S
O200 Cd197 2.297 . S
O200 C202 1.247 . S
O201 Cd197 2.439 . S
O201 C202 1.208 . S
C202 O200 1.247 . S
C202 O201 1.208 . S
C203 O208 1.247 1_455 S
C203 O209 1.208 1_455 S
C204 O196 1.315 . S
C204 O199 1.279 . S
C205 O206 1.315 . S
C205 O207 1.279 . S
O206 Cd198 2.223 . S
O206 C205 1.315 . S
O207 Cd197 2.240 . S
O207 C205 1.279 . S
O208 Cd198 2.297 . S
O208 C203 1.247 1_655 S
O209 Cd198 2.439 . S
O209 C203 1.208 1_655 S
O210 Cd211 2.223 . S
O210 C218 1.315 . S
Cd211 O210 2.223 . S
Cd211 O214 2.297 . S
Cd211 O215 2.439 . S
Cd211 O221 2.240 . S
Cd212 O213 2.240 . S
Cd212 O220 2.223 . S
Cd212 O222 2.297 . S
Cd212 O223 2.439 . S
O213 Cd212 2.240 . S
O213 C218 1.279 . S
O214 Cd211 2.297 . S
O214 C216 1.247 . S
O215 Cd211 2.439 . S
O215 C216 1.208 . S
C216 O214 1.247 . S
C216 O215 1.208 . S
C217 O222 1.247 . S
C217 O223 1.208 . S
C218 O210 1.315 . S
C218 O213 1.279 . S
C219 O220 1.315 . S
C219 O221 1.279 . S
O220 Cd212 2.223 . S
O220 C219 1.315 . S
O221 Cd211 2.240 . S
O221 C219 1.279 . S
O222 Cd212 2.297 . S
O222 C217 1.247 . S
O223 Cd212 2.439 . S
O223 C217 1.208 . S
O224 Cd225 2.223 . S
O224 C232 1.315 . S
Cd225 O224 2.223 . S
Cd225 O228 2.297 . S
Cd225 O229 2.439 . S
Cd225 O235 2.240 . S
Cd226 O227 2.240 . S
Cd226 O234 2.223 . S
Cd226 O236 2.297 . S
Cd226 O237 2.439 . S
O227 Cd226 2.240 . S
O227 C232 1.279 . S
O228 Cd225 2.297 . S
O228 C230 1.247 . S
O229 Cd225 2.439 . S
O229 C230 1.208 . S
C230 O228 1.247 . S
C230 O229 1.208 . S
C231 O236 1.247 1_455 S
C231 O237 1.208 1_455 S
C232 O224 1.315 . S
C232 O227 1.279 . S
C233 O234 1.315 . S
C233 O235 1.279 . S
O234 Cd226 2.223 . S
O234 C233 1.315 . S
O235 Cd225 2.240 . S
O235 C233 1.279 . S
O236 Cd226 2.297 . S
O236 C231 1.247 1_655 S
O237 Cd226 2.439 . S
O237 C231 1.208 1_655 S
O238 Cd239 2.223 . S
O238 C246 1.315 . S
Cd239 O238 2.223 . S
Cd239 O242 2.297 . S
Cd239 O243 2.439 . S
Cd239 O249 2.240 . S
Cd240 O241 2.240 . S
Cd240 O248 2.223 . S
Cd240 O250 2.297 . S
Cd240 O251 2.439 . S
O241 Cd240 2.240 . S
O241 C246 1.279 . S
O242 Cd239 2.297 . S
O242 C244 1.247 . S
O243 Cd239 2.439 . S
O243 C244 1.208 . S
C244 O242 1.247 . S
C244 O243 1.208 . S
C245 O250 1.247 . S
C245 O251 1.208 . S
C246 O238 1.315 . S
C246 O241 1.279 . S
C247 O248 1.315 . S
C247 O249 1.279 . S
O248 Cd240 2.223 . S
O248 C247 1.315 . S
O249 Cd239 2.240 . S
O249 C247 1.279 . S
O250 Cd240 2.297 . S
O250 C245 1.247 . S
O251 Cd240 2.439 . S
O251 C245 1.208 . S
O252 Cd253 2.223 . S
O252 C260 1.315 . S
Cd253 O252 2.223 . S
Cd253 O256 2.297 . S
Cd253 O257 2.439 . S
Cd253 O263 2.240 . S
Cd254 O255 2.240 . S
Cd254 O262 2.223 . S
Cd254 O264 2.297 . S
Cd254 O265 2.439 . S
O255 Cd254 2.240 . S
O255 C260 1.279 . S
O256 Cd253 2.297 . S
O256 C258 1.247 . S
O257 Cd253 2.439 . S
O257 C258 1.208 . S
C258 O256 1.247 . S
C258 O257 1.208 . S
C259 O264 1.247 . S
C259 O265 1.208 . S
C260 O252 1.315 . S
C260 O255 1.279 . S
C261 O262 1.315 . S
C261 O263 1.279 . S
O262 Cd254 2.223 . S
O262 C261 1.315 . S
O263 Cd253 2.240 . S
O263 C261 1.279 . S
O264 Cd254 2.297 . S
O264 C259 1.247 . S
O265 Cd254 2.439 . S
O265 C259 1.208 . S
O266 Cd267 2.223 . S
O266 C274 1.315 . S
Cd267 O266 2.223 . S
Cd267 O270 2.297 . S
Cd267 O271 2.439 . S
Cd267 O277 2.240 . S
Cd268 O269 2.240 . S
Cd268 O276 2.223 . S
Cd268 O278 2.297 . S
Cd268 O279 2.439 . S
O269 Cd268 2.240 . S
O269 C274 1.279 . S
O270 Cd267 2.297 . S
O270 C272 1.247 . S
O271 Cd267 2.439 . S
O271 C272 1.208 . S
C272 O270 1.247 . S
C272 O271 1.208 . S
C273 O278 1.247 . S
C273 O279 1.208 . S
C274 O266 1.315 . S
C274 O269 1.279 . S
C275 O276 1.315 . S
C275 O277 1.279 . S
O276 Cd268 2.223 . S
O276 C275 1.315 . S
O277 Cd267 2.240 . S
O277 C275 1.279 . S
O278 Cd268 2.297 . S
O278 C273 1.247 . S
O279 Cd268 2.439 . S
O279 C273 1.208 . S
O280 Cd281 2.223 . S
O280 C288 1.315 . S
Cd281 O280 2.223 . S
Cd281 O284 2.297 . S
Cd281 O285 2.439 . S
Cd281 O291 2.240 . S
Cd282 O283 2.240 . S
Cd282 O290 2.223 . S
Cd282 O292 2.297 . S
Cd282 O293 2.439 . S
O283 Cd282 2.240 . S
O283 C288 1.279 . S
O284 Cd281 2.297 . S
O284 C286 1.247 . S
O285 Cd281 2.439 . S
O285 C286 1.208 . S
C286 O284 1.247 . S
C286 O285 1.208 . S
C287 O292 1.247 1_455 S
C287 O293 1.208 1_455 S
C288 O280 1.315 . S
C288 O283 1.279 . S
C289 O290 1.315 . S
C289 O291 1.279 . S
O290 Cd282 2.223 . S
O290 C289 1.315 . S
O291 Cd281 2.240 . S
O291 C289 1.279 . S
O292 Cd282 2.297 . S
O292 C287 1.247 1_655 S
O293 Cd282 2.439 . S
O293 C287 1.208 1_655 S
O294 Cd295 2.223 . S
O294 C302 1.315 . S
Cd295 O294 2.223 . S
Cd295 O298 2.297 . S
Cd295 O299 2.439 . S
Cd295 O305 2.240 . S
Cd296 O297 2.240 . S
Cd296 O304 2.223 . S
Cd296 O306 2.297 . S
Cd296 O307 2.439 . S
O297 Cd296 2.240 . S
O297 C302 1.279 . S
O298 Cd295 2.297 . S
O298 C300 1.247 . S
O299 Cd295 2.439 . S
O299 C300 1.208 . S
C300 O298 1.247 . S
C300 O299 1.208 . S
C301 O306 1.247 . S
C301 O307 1.208 . S
C302 O294 1.315 . S
C302 O297 1.279 . S
C303 O304 1.315 . S
C303 O305 1.279 . S
O304 Cd296 2.223 . S
O304 C303 1.315 . S
O305 Cd295 2.240 . S
O305 C303 1.279 . S
O306 Cd296 2.297 . S
O306 C301 1.247 . S
O307 Cd296 2.439 . S
O307 C301 1.208 . S
O308 Cd309 2.223 . S
O308 C316 1.315 . S
Cd309 O308 2.223 . S
Cd309 O312 2.297 . S
Cd309 O313 2.439 . S
Cd309 O319 2.240 . S
Cd310 O311 2.240 . S
Cd310 O318 2.223 . S
Cd310 O320 2.297 . S
Cd310 O321 2.439 . S
O311 Cd310 2.240 . S
O311 C316 1.279 . S
O312 Cd309 2.297 . S
O312 C314 1.247 . S
O313 Cd309 2.439 . S
O313 C314 1.208 . S
C314 O312 1.247 . S
C314 O313 1.208 . S
C315 O320 1.247 . S
C315 O321 1.208 . S
C316 O308 1.315 . S
C316 O311 1.279 . S
C317 O318 1.315 . S
C317 O319 1.279 . S
O318 Cd310 2.223 . S
O318 C317 1.315 . S
O319 Cd309 2.240 . S
O319 C317 1.279 . S
O320 Cd310 2.297 . S
O320 C315 1.247 . S
O321 Cd310 2.439 . S
O321 C315 1.208 . S
O322 Cd323 2.223 . S
O322 C330 1.315 . S
Cd323 O322 2.223 . S
Cd323 O326 2.297 . S
Cd323 O327 2.439 . S
Cd323 O333 2.240 . S
Cd324 O325 2.240 . S
Cd324 O332 2.223 . S
Cd324 O334 2.297 . S
Cd324 O335 2.439 . S
O325 Cd324 2.240 . S
O325 C330 1.279 . S
O326 Cd323 2.297 . S
O326 C328 1.247 . S
O327 Cd323 2.439 . S
O327 C328 1.208 . S
C328 O326 1.247 . S
C328 O327 1.208 . S
C329 O334 1.247 . S
C329 O335 1.208 . S
C330 O322 1.315 . S
C330 O325 1.279 . S
C331 O332 1.315 . S
C331 O333 1.279 . S
O332 Cd324 2.223 . S
O332 C331 1.315 . S
O333 Cd323 2.240 . S
O333 C331 1.279 . S
O334 Cd324 2.297 . S
O334 C329 1.247 . S
O335 Cd324 2.439 . S
O335 C329 1.208 . S
O336 Cd337 2.223 . S
O336 C344 1.315 . S
Cd337 O336 2.223 . S
Cd337 O340 2.297 . S
Cd337 O341 2.439 . S
Cd337 O347 2.240 . S
Cd338 O339 2.240 . S
Cd338 O346 2.223 . S
Cd338 O348 2.297 . S
Cd338 O349 2.439 . S
O339 Cd338 2.240 . S
O339 C344 1.279 . S
O340 Cd337 2.297 . S
O340 C342 1.247 . S
O341 Cd337 2.439 . S
O341 C342 1.208 . S
C342 O340 1.247 . S
C342 O341 1.208 . S
C343 O348 1.247 1_655 S
C343 O349 1.208 1_655 S
C344 O336 1.315 . S
C344 O339 1.279 . S
C345 O346 1.315 . S
C345 O347 1.279 . S
O346 Cd338 2.223 . S
O346 C345 1.315 . S
O347 Cd337 2.240 . S
O347 C345 1.279 . S
O348 Cd338 2.297 . S
O348 C343 1.247 1_455 S
O349 Cd338 2.439 . S
O349 C343 1.208 1_455 S
O350 Cd351 2.223 . S
O350 C358 1.315 . S
Cd351 O350 2.223 . S
Cd351 O354 2.297 . S
Cd351 O355 2.439 . S
Cd351 O361 2.240 . S
Cd352 O353 2.240 . S
Cd352 O360 2.223 . S
Cd352 O362 2.297 . S
Cd352 O363 2.439 . S
O353 Cd352 2.240 . S
O353 C358 1.279 . S
O354 Cd351 2.297 . S
O354 C356 1.247 . S
O355 Cd351 2.439 . S
O355 C356 1.208 . S
C356 O354 1.247 . S
C356 O355 1.208 . S
C357 O362 1.247 . S
C357 O363 1.208 . S
C358 O350 1.315 . S
C358 O353 1.279 . S
C359 O360 1.315 . S
C359 O361 1.279 . S
O360 Cd352 2.223 . S
O360 C359 1.315 . S
O361 Cd351 2.240 . S
O361 C359 1.279 . S
O362 Cd352 2.297 . S
O362 C357 1.247 . S
O363 Cd352 2.439 . S
O363 C357 1.208 . S
O364 Cd365 2.223 . S
O364 C372 1.315 . S
Cd365 O364 2.223 . S
Cd365 O368 2.297 . S
Cd365 O369 2.439 . S
Cd365 O375 2.240 . S
Cd366 O367 2.240 . S
Cd366 O374 2.223 . S
Cd366 O376 2.297 . S
Cd366 O377 2.439 . S
O367 Cd366 2.240 . S
O367 C372 1.279 . S
O368 Cd365 2.297 . S
O368 C370 1.247 . S
O369 Cd365 2.439 . S
O369 C370 1.208 . S
C370 O368 1.247 . S
C370 O369 1.208 . S
C371 O376 1.247 . S
C371 O377 1.208 . S
C372 O364 1.315 . S
C372 O367 1.279 . S
C373 O374 1.315 . S
C373 O375 1.279 . S
O374 Cd366 2.223 . S
O374 C373 1.315 . S
O375 Cd365 2.240 . S
O375 C373 1.279 . S
O376 Cd366 2.297 . S
O376 C371 1.247 . S
O377 Cd366 2.439 . S
O377 C371 1.208 . S
O378 Cd379 2.223 . S
O378 C386 1.315 . S
Cd379 O378 2.223 . S
Cd379 O382 2.297 . S
Cd379 O383 2.439 . S
Cd379 O389 2.240 . S
Cd380 O381 2.240 . S
Cd380 O388 2.223 . S
Cd380 O390 2.297 . S
Cd380 O391 2.439 . S
O381 Cd380 2.240 . S
O381 C386 1.279 . S
O382 Cd379 2.297 . S
O382 C384 1.247 . S
O383 Cd379 2.439 . S
O383 C384 1.208 . S
C384 O382 1.247 . S
C384 O383 1.208 . S
C385 O390 1.247 . S
C385 O391 1.208 . S
C386 O378 1.315 . S
C386 O381 1.279 . S
C387 O388 1.315 . S
C387 O389 1.279 . S
O388 Cd380 2.223 . S
O388 C387 1.315 . S
O389 Cd379 2.240 . S
O389 C387 1.279 . S
O390 Cd380 2.297 . S
O390 C385 1.247 . S
O391 Cd380 2.439 . S
O391 C385 1.208 . S
O392 Cd393 2.223 . S
O392 C400 1.315 . S
Cd393 O392 2.223 . S
Cd393 O396 2.297 . S
Cd393 O397 2.439 . S
Cd393 O403 2.240 . S
Cd394 O395 2.240 . S
Cd394 O402 2.223 . S
Cd394 O404 2.297 . S
Cd394 O405 2.439 . S
O395 Cd394 2.240 . S
O395 C400 1.279 . S
O396 Cd393 2.297 . S
O396 C398 1.247 . S
O397 Cd393 2.439 . S
O397 C398 1.208 . S
C398 O396 1.247 . S
C398 O397 1.208 . S
C399 O404 1.247 1_655 S
C399 O405 1.208 1_655 S
C400 O392 1.315 . S
C400 O395 1.279 . S
C401 O402 1.315 . S
C401 O403 1.279 . S
O402 Cd394 2.223 . S
O402 C401 1.315 . S
O403 Cd393 2.240 . S
O403 C401 1.279 . S
O404 Cd394 2.297 . S
O404 C399 1.247 1_455 S
O405 Cd394 2.439 . S
O405 C399 1.208 1_455 S
O406 Cd407 2.223 . S
O406 C414 1.315 . S
Cd407 O406 2.223 . S
Cd407 O410 2.297 . S
Cd407 O411 2.439 . S
Cd407 O417 2.240 . S
Cd408 O409 2.240 . S
Cd408 O416 2.223 . S
Cd408 O418 2.297 . S
Cd408 O419 2.439 . S
O409 Cd408 2.240 . S
O409 C414 1.279 . S
O410 Cd407 2.297 . S
O410 C412 1.247 . S
O411 Cd407 2.439 . S
O411 C412 1.208 . S
C412 O410 1.247 . S
C412 O411 1.208 . S
C413 O418 1.247 . S
C413 O419 1.208 . S
C414 O406 1.315 . S
C414 O409 1.279 . S
C415 O416 1.315 . S
C415 O417 1.279 . S
O416 Cd408 2.223 . S
O416 C415 1.315 . S
O417 Cd407 2.240 . S
O417 C415 1.279 . S
O418 Cd408 2.297 . S
O418 C413 1.247 . S
O419 Cd408 2.439 . S
O419 C413 1.208 . S
O420 Cd421 2.223 . S
O420 C428 1.315 . S
Cd421 O420 2.223 . S
Cd421 O424 2.297 . S
Cd421 O425 2.439 . S
Cd421 O431 2.240 . S
Cd422 O423 2.240 . S
Cd422 O430 2.223 . S
Cd422 O432 2.297 . S
Cd422 O433 2.439 . S
O423 Cd422 2.240 . S
O423 C428 1.279 . S
O424 Cd421 2.297 . S
O424 C426 1.247 . S
O425 Cd421 2.439 . S
O425 C426 1.208 . S
C426 O424 1.247 . S
C426 O425 1.208 . S
C427 O432 1.247 . S
C427 O433 1.208 . S
C428 O420 1.315 . S
C428 O423 1.279 . S
C429 O430 1.315 . S
C429 O431 1.279 . S
O430 Cd422 2.223 . S
O430 C429 1.315 . S
O431 Cd421 2.240 . S
O431 C429 1.279 . S
O432 Cd422 2.297 . S
O432 C427 1.247 . S
O433 Cd422 2.439 . S
O433 C427 1.208 . S
O434 Cd435 2.223 . S
O434 C442 1.315 . S
Cd435 O434 2.223 . S
Cd435 O438 2.297 . S
Cd435 O439 2.439 . S
Cd435 O445 2.240 . S
Cd436 O437 2.240 . S
Cd436 O444 2.223 . S
Cd436 O446 2.297 . S
Cd436 O447 2.439 . S
O437 Cd436 2.240 . S
O437 C442 1.279 . S
O438 Cd435 2.297 . S
O438 C440 1.247 . S
O439 Cd435 2.439 . S
O439 C440 1.208 . S
C440 O438 1.247 . S
C440 O439 1.208 . S
C441 O446 1.247 . S
C441 O447 1.208 . S
C442 O434 1.315 . S
C442 O437 1.279 . S
C443 O444 1.315 . S
C443 O445 1.279 . S
O444 Cd436 2.223 . S
O444 C443 1.315 . S
O445 Cd435 2.240 . S
O445 C443 1.279 . S
O446 Cd436 2.297 . S
O446 C441 1.247 . S
O447 Cd436 2.439 . S
O447 C441 1.208 . S
C448 C449 1.368 . S
C448 C454 1.379 . S
C448 N456 1.356 . S
C449 C448 1.368 . S
C449 C455 1.358 1_565 S
C450 C451 1.368 . S
C450 C455 1.379 . S
C450 N457 1.356 . S
C451 C450 1.368 . S
C451 C454 1.358 1_545 S
N452 C454 1.356 . S
N452 H464 0.984 . S
N452 H465 0.985 . S
N453 C455 1.356 . S
N453 H458 0.984 . S
N453 H459 0.985 . S
C454 C448 1.379 . S
C454 C451 1.358 1_565 S
C454 N452 1.356 . S
C455 C449 1.358 1_545 S
C455 C450 1.379 . S
C455 N453 1.356 . S
N456 C448 1.356 . S
N456 H462 0.984 . S
N456 H463 0.984 . S
N457 C450 1.356 . S
N457 H460 0.984 . S
N457 H461 0.985 . S
H458 N453 0.984 . S
H459 N453 0.985 . S
H460 N457 0.984 . S
H461 N457 0.985 . S
H462 N456 0.984 . S
H463 N456 0.984 . S
H464 N452 0.984 . S
H465 N452 0.985 . S
C466 C467 1.363 . S
C466 C472 1.379 . S
C466 N474 1.356 . S
C467 C466 1.363 . S
C467 C473 1.363 . S
C468 C469 1.363 . S
C468 C473 1.379 . S
C468 N475 1.356 . S
C469 C468 1.363 . S
C469 C472 1.363 . S
N470 C472 1.356 . S
N470 H482 0.984 . S
N470 H483 0.985 . S
N471 C473 1.356 . S
N471 H476 0.984 . S
N471 H477 0.985 . S
C472 C466 1.379 . S
C472 C469 1.363 . S
C472 N470 1.356 . S
C473 C467 1.363 . S
C473 C468 1.379 . S
C473 N471 1.356 . S
N474 C466 1.356 . S
N474 H480 0.984 . S
N474 H481 0.984 . S
N475 C468 1.356 . S
N475 H478 0.984 . S
N475 H479 0.985 . S
H476 N471 0.984 . S
H477 N471 0.985 . S
H478 N475 0.984 . S
H479 N475 0.985 . S
H480 N474 0.984 . S
H481 N474 0.984 . S
H482 N470 0.984 . S
H483 N470 0.985 . S
C484 C485 1.358 1_565 S
C484 C490 1.379 . S
C484 N492 1.356 . S
C485 C484 1.358 1_545 S
C485 C491 1.368 . S
C486 C487 1.358 1_545 S
C486 C491 1.379 . S
C486 N493 1.356 . S
C487 C486 1.358 1_565 S
C487 C490 1.368 . S
N488 C490 1.356 . S
N488 H500 0.984 . S
N488 H501 0.985 . S
N489 C491 1.356 . S
N489 H494 0.984 . S
N489 H495 0.985 . S
C490 C484 1.379 . S
C490 C487 1.368 . S
C490 N488 1.356 . S
C491 C485 1.368 . S
C491 C486 1.379 . S
C491 N489 1.356 . S
N492 C484 1.356 . S
N492 H498 0.984 . S
N492 H499 0.984 . S
N493 C486 1.356 . S
N493 H496 0.984 . S
N493 H497 0.985 . S
H494 N489 0.984 . S
H495 N489 0.985 . S
H496 N493 0.984 . S
H497 N493 0.985 . S
H498 N492 0.984 . S
H499 N492 0.984 . S
H500 N488 0.984 . S
H501 N488 0.985 . S
C502 C503 1.363 . S
C502 C508 1.379 1_556 S
C502 N510 1.356 . S
C503 C502 1.363 . S
C503 C509 1.363 . S
C504 C505 1.363 . S
C504 C509 1.379 1_554 S
C504 N511 1.356 . S
C505 C504 1.363 . S
C505 C508 1.363 . S
N506 C508 1.356 . S
N506 H518 0.984 . S
N506 H519 0.985 . S
N507 C509 1.356 . S
N507 H512 0.984 . S
N507 H513 0.985 . S
C508 C502 1.379 1_554 S
C508 C505 1.363 . S
C508 N506 1.356 . S
C509 C503 1.363 . S
C509 C504 1.379 1_556 S
C509 N507 1.356 . S
N510 C502 1.356 . S
N510 H516 0.984 . S
N510 H517 0.984 . S
N511 C504 1.356 . S
N511 H514 0.984 . S
N511 H515 0.985 . S
H512 N507 0.984 . S
H513 N507 0.985 . S
H514 N511 0.984 . S
H515 N511 0.985 . S
H516 N510 0.984 . S
H517 N510 0.984 . S
H518 N506 0.984 . S
H519 N506 0.985 . S
C520 C521 1.368 . S
C520 C526 1.379 . S
C520 N528 1.356 . S
C521 C520 1.368 . S
C521 C527 1.358 1_565 S
C522 C523 1.368 . S
C522 C527 1.379 . S
C522 N529 1.356 . S
C523 C522 1.368 . S
C523 C526 1.358 1_545 S
N524 C526 1.356 . S
N524 H536 0.984 . S
N524 H537 0.985 . S
N525 C527 1.356 . S
N525 H530 0.984 . S
N525 H531 0.985 . S
C526 C520 1.379 . S
C526 C523 1.358 1_565 S
C526 N524 1.356 . S
C527 C521 1.358 1_545 S
C527 C522 1.379 . S
C527 N525 1.356 . S
N528 C520 1.356 . S
N528 H534 0.984 . S
N528 H535 0.984 . S
N529 C522 1.356 . S
N529 H532 0.984 . S
N529 H533 0.985 . S
H530 N525 0.984 . S
H531 N525 0.985 . S
H532 N529 0.984 . S
H533 N529 0.985 . S
H534 N528 0.984 . S
H535 N528 0.984 . S
H536 N524 0.984 . S
H537 N524 0.985 . S
C538 C539 1.363 . S
C538 C544 1.379 . S
C538 N546 1.356 . S
C539 C538 1.363 . S
C539 C545 1.363 . S
C540 C541 1.363 . S
C540 C545 1.379 . S
C540 N547 1.356 . S
C541 C540 1.363 . S
C541 C544 1.363 . S
N542 C544 1.356 . S
N542 H554 0.984 . S
N542 H555 0.985 . S
N543 C545 1.356 . S
N543 H548 0.984 . S
N543 H549 0.985 . S
C544 C538 1.379 . S
C544 C541 1.363 . S
C544 N542 1.356 . S
C545 C539 1.363 . S
C545 C540 1.379 . S
C545 N543 1.356 . S
N546 C538 1.356 . S
N546 H552 0.984 . S
N546 H553 0.984 . S
N547 C540 1.356 . S
N547 H550 0.984 . S
N547 H551 0.985 . S
H548 N543 0.984 . S
H549 N543 0.985 . S
H550 N547 0.984 . S
H551 N547 0.985 . S
H552 N546 0.984 . S
H553 N546 0.984 . S
H554 N542 0.984 . S
H555 N542 0.985 . S
C556 C557 1.358 1_565 S
C556 C562 1.379 . S
C556 N564 1.356 . S
C557 C556 1.358 1_545 S
C557 C563 1.368 . S
C558 C559 1.358 1_545 S
C558 C563 1.379 . S
C558 N565 1.356 . S
C559 C558 1.358 1_565 S
C559 C562 1.368 . S
N560 C562 1.356 . S
N560 H572 0.984 . S
N560 H573 0.985 . S
N561 C563 1.356 . S
N561 H566 0.984 . S
N561 H567 0.985 . S
C562 C556 1.379 . S
C562 C559 1.368 . S
C562 N560 1.356 . S
C563 C557 1.368 . S
C563 C558 1.379 . S
C563 N561 1.356 . S
N564 C556 1.356 . S
N564 H570 0.984 . S
N564 H571 0.984 . S
N565 C558 1.356 . S
N565 H568 0.984 . S
N565 H569 0.985 . S
H566 N561 0.984 . S
H567 N561 0.985 . S
H568 N565 0.984 . S
H569 N565 0.985 . S
H570 N564 0.984 . S
H571 N564 0.984 . S
H572 N560 0.984 . S
H573 N560 0.985 . S
C574 C575 1.363 . S
C574 C580 1.379 1_556 S
C574 N582 1.356 . S
C575 C574 1.363 . S
C575 C581 1.363 . S
C576 C577 1.363 . S
C576 C581 1.379 1_554 S
C576 N583 1.356 . S
C577 C576 1.363 . S
C577 C580 1.363 . S
N578 C580 1.356 . S
N578 H590 0.984 . S
N578 H591 0.985 . S
N579 C581 1.356 . S
N579 H584 0.984 . S
N579 H585 0.985 . S
C580 C574 1.379 1_554 S
C580 C577 1.363 . S
C580 N578 1.356 . S
C581 C575 1.363 . S
C581 C576 1.379 1_556 S
C581 N579 1.356 . S
N582 C574 1.356 . S
N582 H588 0.984 . S
N582 H589 0.984 . S
N583 C576 1.356 . S
N583 H586 0.984 . S
N583 H587 0.985 . S
H584 N579 0.984 . S
H585 N579 0.985 . S
H586 N583 0.984 . S
H587 N583 0.985 . S
H588 N582 0.984 . S
H589 N582 0.984 . S
H590 N578 0.984 . S
H591 N578 0.985 . S
C592 C593 1.363 . S
C592 C598 1.379 . S
C592 N600 1.356 . S
C593 C592 1.363 . S
C593 C599 1.363 . S
C594 C595 1.363 . S
C594 C599 1.379 . S
C594 N601 1.356 . S
C595 C594 1.363 . S
C595 C598 1.363 . S
N596 C598 1.356 . S
N596 H608 0.984 . S
N596 H609 0.985 . S
N597 C599 1.356 . S
N597 H602 0.984 . S
N597 H603 0.985 . S
C598 C592 1.379 . S
C598 C595 1.363 . S
C598 N596 1.356 . S
C599 C593 1.363 . S
C599 C594 1.379 . S
C599 N597 1.356 . S
N600 C592 1.356 . S
N600 H606 0.984 . S
N600 H607 0.984 . S
N601 C594 1.356 . S
N601 H604 0.984 . S
N601 H605 0.985 . S
H602 N597 0.984 . S
H603 N597 0.985 . S
H604 N601 0.984 . S
H605 N601 0.985 . S
H606 N600 0.984 . S
H607 N600 0.984 . S
H608 N596 0.984 . S
H609 N596 0.985 . S
C610 C611 1.363 . S
C610 C616 1.379 1_554 S
C610 N618 1.356 . S
C611 C610 1.363 . S
C611 C617 1.363 . S
C612 C613 1.363 . S
C612 C617 1.379 1_556 S
C612 N619 1.356 . S
C613 C612 1.363 . S
C613 C616 1.363 . S
N614 C616 1.356 . S
N614 H626 0.984 . S
N614 H627 0.985 . S
N615 C617 1.356 . S
N615 H620 0.984 . S
N615 H621 0.985 . S
C616 C610 1.379 1_556 S
C616 C613 1.363 . S
C616 N614 1.356 . S
C617 C611 1.363 . S
C617 C612 1.379 1_554 S
C617 N615 1.356 . S
N618 C610 1.356 . S
N618 H624 0.984 . S
N618 H625 0.984 . S
N619 C612 1.356 . S
N619 H622 0.984 . S
N619 H623 0.985 . S
H620 N615 0.984 . S
H621 N615 0.985 . S
H622 N619 0.984 . S
H623 N619 0.985 . S
H624 N618 0.984 . S
H625 N618 0.984 . S
H626 N614 0.984 . S
H627 N614 0.985 . S
C628 C629 1.363 . S
C628 C634 1.379 . S
C628 N636 1.356 . S
C629 C628 1.363 . S
C629 C635 1.363 . S
C630 C631 1.363 . S
C630 C635 1.379 . S
C630 N637 1.356 . S
C631 C630 1.363 . S
C631 C634 1.363 . S
N632 C634 1.356 . S
N632 H644 0.984 . S
N632 H645 0.985 . S
N633 C635 1.356 . S
N633 H638 0.984 . S
N633 H639 0.985 . S
C634 C628 1.379 . S
C634 C631 1.363 . S
C634 N632 1.356 . S
C635 C629 1.363 . S
C635 C630 1.379 . S
C635 N633 1.356 . S
N636 C628 1.356 . S
N636 H642 0.984 . S
N636 H643 0.984 . S
N637 C630 1.356 . S
N637 H640 0.984 . S
N637 H641 0.985 . S
H638 N633 0.984 . S
H639 N633 0.985 . S
H640 N637 0.984 . S
H641 N637 0.985 . S
H642 N636 0.984 . S
H643 N636 0.984 . S
H644 N632 0.984 . S
H645 N632 0.985 . S
C646 C647 1.363 . S
C646 C652 1.379 . S
C646 N654 1.356 . S
C647 C646 1.363 . S
C647 C653 1.363 . S
C648 C649 1.363 . S
C648 C653 1.379 . S
C648 N655 1.356 . S
C649 C648 1.363 . S
C649 C652 1.363 . S
N650 C652 1.356 . S
N650 H662 0.984 . S
N650 H663 0.985 . S
N651 C653 1.356 . S
N651 H656 0.984 . S
N651 H657 0.985 . S
C652 C646 1.379 . S
C652 C649 1.363 . S
C652 N650 1.356 . S
C653 C647 1.363 . S
C653 C648 1.379 . S
C653 N651 1.356 . S
N654 C646 1.356 . S
N654 H660 0.984 . S
N654 H661 0.984 . S
N655 C648 1.356 . S
N655 H658 0.984 . S
N655 H659 0.985 . S
H656 N651 0.984 . S
H657 N651 0.985 . S
H658 N655 0.984 . S
H659 N655 0.985 . S
H660 N654 0.984 . S
H661 N654 0.984 . S
H662 N650 0.984 . S
H663 N650 0.985 . S
C664 C665 1.363 . S
C664 C670 1.379 . S
C664 N672 1.356 . S
C665 C664 1.363 . S
C665 C671 1.363 . S
C666 C667 1.363 . S
C666 C671 1.379 . S
C666 N673 1.356 . S
C667 C666 1.363 . S
C667 C670 1.363 . S
N668 C670 1.356 . S
N668 H680 0.984 . S
N668 H681 0.985 . S
N669 C671 1.356 . S
N669 H674 0.984 . S
N669 H675 0.985 . S
C670 C664 1.379 . S
C670 C667 1.363 . S
C670 N668 1.356 . S
C671 C665 1.363 . S
C671 C666 1.379 . S
C671 N669 1.356 . S
N672 C664 1.356 . S
N672 H678 0.984 . S
N672 H679 0.984 . S
N673 C666 1.356 . S
N673 H676 0.984 . S
N673 H677 0.985 . S
H674 N669 0.984 . S
H675 N669 0.985 . S
H676 N673 0.984 . S
H677 N673 0.985 . S
H678 N672 0.984 . S
H679 N672 0.984 . S
H680 N668 0.984 . S
H681 N668 0.985 . S
C682 C683 1.363 . S
C682 C688 1.379 1_554 S
C682 N690 1.356 . S
C683 C682 1.363 . S
C683 C689 1.363 . S
C684 C685 1.363 . S
C684 C689 1.379 1_556 S
C684 N691 1.356 . S
C685 C684 1.363 . S
C685 C688 1.363 . S
N686 C688 1.356 . S
N686 H698 0.984 . S
N686 H699 0.985 . S
N687 C689 1.356 . S
N687 H692 0.984 . S
N687 H693 0.985 . S
C688 C682 1.379 1_556 S
C688 C685 1.363 . S
C688 N686 1.356 . S
C689 C683 1.363 . S
C689 C684 1.379 1_554 S
C689 N687 1.356 . S
N690 C682 1.356 . S
N690 H696 0.984 . S
N690 H697 0.984 . S
N691 C684 1.356 . S
N691 H694 0.984 . S
N691 H695 0.985 . S
H692 N687 0.984 . S
H693 N687 0.985 . S
H694 N691 0.984 . S
H695 N691 0.985 . S
H696 N690 0.984 . S
H697 N690 0.984 . S
H698 N686 0.984 . S
H699 N686 0.985 . S
C700 C701 1.363 . S
C700 C706 1.379 . S
C700 N708 1.356 . S
C701 C700 1.363 . S
C701 C707 1.363 . S
C702 C703 1.363 . S
C702 C707 1.379 . S
C702 N709 1.356 . S
C703 C702 1.363 . S
C703 C706 1.363 . S
N704 C706 1.356 . S
N704 H716 0.984 . S
N704 H717 0.985 . S
N705 C707 1.356 . S
N705 H710 0.984 . S
N705 H711 0.985 . S
C706 C700 1.379 . S
C706 C703 1.363 . S
C706 N704 1.356 . S
C707 C701 1.363 . S
C707 C702 1.379 . S
C707 N705 1.356 . S
N708 C700 1.356 . S
N708 H714 0.984 . S
N708 H715 0.984 . S
N709 C702 1.356 . S
N709 H712 0.984 . S
N709 H713 0.985 . S
H710 N705 0.984 . S
H711 N705 0.985 . S
H712 N709 0.984 . S
H713 N709 0.985 . S
H714 N708 0.984 . S
H715 N708 0.984 . S
H716 N704 0.984 . S
H717 N704 0.985 . S
C718 C719 1.363 . S
C718 C724 1.379 . S
C718 N726 1.356 . S
C719 C718 1.363 . S
C719 C725 1.363 . S
C720 C721 1.363 . S
C720 C725 1.379 . S
C720 N727 1.356 . S
C721 C720 1.363 . S
C721 C724 1.363 . S
N722 C724 1.356 . S
N722 H734 0.984 . S
N722 H735 0.985 . S
N723 C725 1.356 . S
N723 H728 0.984 . S
N723 H729 0.985 . S
C724 C718 1.379 . S
C724 C721 1.363 . S
C724 N722 1.356 . S
C725 C719 1.363 . S
C725 C720 1.379 . S
C725 N723 1.356 . S
N726 C718 1.356 . S
N726 H732 0.984 . S
N726 H733 0.984 . S
N727 C720 1.356 . S
N727 H730 0.984 . S
N727 H731 0.985 . S
H728 N723 0.984 . S
H729 N723 0.985 . S
H730 N727 0.984 . S
H731 N727 0.985 . S
H732 N726 0.984 . S
H733 N726 0.984 . S
H734 N722 0.984 . S
H735 N722 0.985 . S
C736 C737 1.363 . S
C736 C742 1.379 . S
C736 N744 1.356 1_565 S
C737 C736 1.363 . S
C737 C743 1.363 . S
C738 C739 1.363 . S
C738 C743 1.379 . S
C738 N745 1.356 . S
C739 C738 1.363 . S
C739 C742 1.363 . S
N740 C742 1.356 . S
N740 H752 0.984 . S
N740 H753 0.985 . S
N741 C743 1.356 . S
N741 H746 0.984 . S
N741 H747 0.985 . S
C742 C736 1.379 . S
C742 C739 1.363 . S
C742 N740 1.356 . S
C743 C737 1.363 . S
C743 C738 1.379 . S
C743 N741 1.356 . S
N744 C736 1.356 1_545 S
N744 H750 0.984 . S
N744 H751 0.984 . S
N745 C738 1.356 . S
N745 H748 0.984 . S
N745 H749 0.985 . S
H746 N741 0.984 . S
H747 N741 0.985 . S
H748 N745 0.984 . S
H749 N745 0.985 . S
H750 N744 0.984 . S
H751 N744 0.984 . S
H752 N740 0.984 . S
H753 N740 0.985 . S
C754 C755 1.363 . S
C754 C760 1.379 . S
C754 N762 1.356 . S
C755 C754 1.363 . S
C755 C761 1.363 . S
C756 C757 1.363 . S
C756 C761 1.379 . S
C756 N763 1.356 . S
C757 C756 1.363 . S
C757 C760 1.363 . S
N758 C760 1.356 . S
N758 H770 0.984 . S
N758 H771 0.985 . S
N759 C761 1.356 . S
N759 H764 0.984 . S
N759 H765 0.985 . S
C760 C754 1.379 . S
C760 C757 1.363 . S
C760 N758 1.356 . S
C761 C755 1.363 . S
C761 C756 1.379 . S
C761 N759 1.356 . S
N762 C754 1.356 . S
N762 H768 0.984 . S
N762 H769 0.984 . S
N763 C756 1.356 . S
N763 H766 0.984 1_545 S
N763 H767 0.985 . S
H764 N759 0.984 . S
H765 N759 0.985 . S
H766 N763 0.984 1_565 S
H767 N763 0.985 . S
H768 N762 0.984 . S
H769 N762 0.984 . S
H770 N758 0.984 . S
H771 N758 0.985 . S
C772 C773 1.363 . S
C772 C778 1.379 . S
C772 N780 1.356 1_545 S
C773 C772 1.363 . S
C773 C779 1.363 . S
C774 C775 1.363 . S
C774 C779 1.379 . S
C774 N781 1.356 . S
C775 C774 1.363 . S
C775 C778 1.363 . S
N776 C778 1.356 . S
N776 H788 0.984 . S
N776 H789 0.985 . S
N777 C779 1.356 . S
N777 H782 0.984 . S
N777 H783 0.985 . S
C778 C772 1.379 . S
C778 C775 1.363 . S
C778 N776 1.356 . S
C779 C773 1.363 . S
C779 C774 1.379 . S
C779 N777 1.356 . S
N780 C772 1.356 1_565 S
N780 H786 0.984 . S
N780 H787 0.984 . S
N781 C774 1.356 . S
N781 H784 0.984 . S
N781 H785 0.985 . S
H782 N777 0.984 . S
H783 N777 0.985 . S
H784 N781 0.984 . S
H785 N781 0.985 . S
H786 N780 0.984 . S
H787 N780 0.984 . S
H788 N776 0.984 . S
H789 N776 0.985 . S
C790 C791 1.363 . S
C790 C796 1.379 . S
C790 N798 1.356 . S
C791 C790 1.363 . S
C791 C797 1.363 . S
C792 C793 1.363 . S
C792 C797 1.379 . S
C792 N799 1.356 . S
C793 C792 1.363 . S
C793 C796 1.363 . S
N794 C796 1.356 . S
N794 H806 0.984 . S
N794 H807 0.985 . S
N795 C797 1.356 . S
N795 H800 0.984 . S
N795 H801 0.985 . S
C796 C790 1.379 . S
C796 C793 1.363 . S
C796 N794 1.356 . S
C797 C791 1.363 . S
C797 C792 1.379 . S
C797 N795 1.356 . S
N798 C790 1.356 . S
N798 H804 0.984 . S
N798 H805 0.984 1_565 S
N799 C792 1.356 . S
N799 H802 0.984 . S
N799 H803 0.985 . S
H800 N795 0.984 . S
H801 N795 0.985 . S
H802 N799 0.984 . S
H803 N799 0.985 . S
H804 N798 0.984 . S
H805 N798 0.984 1_545 S
H806 N794 0.984 . S
H807 N794 0.985 . S
C808 C809 1.363 . S
C808 C814 1.379 . S
C808 N816 1.356 . S
C809 C808 1.363 . S
C809 C815 1.363 . S
C810 C811 1.363 . S
C810 C815 1.379 . S
C810 N817 1.356 1_545 S
C811 C810 1.363 . S
C811 C814 1.363 . S
N812 C814 1.356 . S
N812 H824 0.984 . S
N812 H825 0.985 . S
N813 C815 1.356 . S
N813 H818 0.984 . S
N813 H819 0.985 . S
C814 C808 1.379 . S
C814 C811 1.363 . S
C814 N812 1.356 . S
C815 C809 1.363 . S
C815 C810 1.379 . S
C815 N813 1.356 . S
N816 C808 1.356 . S
N816 H822 0.984 . S
N816 H823 0.984 . S
N817 C810 1.356 1_565 S
N817 H820 0.984 . S
N817 H821 0.985 . S
H818 N813 0.984 . S
H819 N813 0.985 . S
H820 N817 0.984 . S
H821 N817 0.985 . S
H822 N816 0.984 . S
H823 N816 0.984 . S
H824 N812 0.984 . S
H825 N812 0.985 . S
C826 C827 1.363 . S
C826 C832 1.379 . S
C826 N834 1.356 . S
C827 C826 1.363 . S
C827 C833 1.363 . S
C828 C829 1.363 . S
C828 C833 1.379 . S
C828 N835 1.356 . S
C829 C828 1.363 . S
C829 C832 1.363 . S
N830 C832 1.356 . S
N830 H842 0.984 . S
N830 H843 0.985 . S
N831 C833 1.356 . S
N831 H836 0.984 1_565 S
N831 H837 0.981 1_565 S
C832 C826 1.379 . S
C832 C829 1.363 . S
C832 N830 1.356 . S
C833 C827 1.363 . S
C833 C828 1.379 . S
C833 N831 1.356 . S
N834 C826 1.356 . S
N834 H840 0.984 . S
N834 H841 0.984 . S
N835 C828 1.356 . S
N835 H838 0.984 . S
N835 H839 0.985 . S
H836 N831 0.984 1_545 S
H837 N831 0.981 1_545 S
H838 N835 0.984 . S
H839 N835 0.985 . S
H840 N834 0.984 . S
H841 N834 0.984 . S
H842 N830 0.984 . S
H843 N830 0.985 . S
C844 C845 1.363 . S
C844 C850 1.379 . S
C844 N852 1.356 . S
C845 C844 1.363 . S
C845 C851 1.363 . S
C846 C847 1.363 . S
C846 C851 1.379 . S
C846 N853 1.356 . S
C847 C846 1.363 . S
C847 C850 1.363 . S
N848 C850 1.356 1_545 S
N848 H860 0.984 . S
N848 H861 0.985 . S
N849 C851 1.356 . S
N849 H854 0.984 . S
N849 H855 0.985 . S
C850 C844 1.379 . S
C850 C847 1.363 . S
C850 N848 1.356 1_565 S
C851 C845 1.363 . S
C851 C846 1.379 . S
C851 N849 1.356 . S
N852 C844 1.356 . S
N852 H858 0.984 . S
N852 H859 0.984 . S
N853 C846 1.356 . S
N853 H856 0.984 . S
N853 H857 0.985 . S
H854 N849 0.984 . S
H855 N849 0.985 . S
H856 N853 0.984 . S
H857 N853 0.985 . S
H858 N852 0.984 . S
H859 N852 0.984 . S
H860 N848 0.984 . S
H861 N848 0.985 . S
C862 C863 1.363 . S
C862 C868 1.379 . S
C862 N870 1.356 . S
C863 C862 1.363 . S
C863 C869 1.363 . S
C864 C865 1.363 . S
C864 C869 1.379 . S
C864 N871 1.356 1_545 S
C865 C864 1.363 . S
C865 C868 1.363 . S
N866 C868 1.356 . S
N866 H878 0.984 . S
N866 H879 0.985 . S
N867 C869 1.356 . S
N867 H872 0.984 . S
N867 H873 0.985 . S
C868 C862 1.379 . S
C868 C865 1.363 . S
C868 N866 1.356 . S
C869 C863 1.363 . S
C869 C864 1.379 . S
C869 N867 1.356 . S
N870 C862 1.356 . S
N870 H876 0.984 . S
N870 H877 0.984 . S
N871 C864 1.356 1_565 S
N871 H874 0.984 . S
N871 H875 0.985 . S
H872 N867 0.984 . S
H873 N867 0.985 . S
H874 N871 0.984 . S
H875 N871 0.985 . S
H876 N870 0.984 . S
H877 N870 0.984 . S
H878 N866 0.984 . S
H879 N866 0.985 . S
C880 C881 1.363 . S
C880 C886 1.379 . S
C880 N888 1.356 . S
C881 C880 1.363 . S
C881 C887 1.363 . S
C882 C883 1.363 . S
C882 C887 1.379 . S
C882 N889 1.356 . S
C883 C882 1.363 . S
C883 C886 1.363 . S
N884 C886 1.356 . S
N884 H896 0.984 . S
N884 H897 0.985 . S
N885 C887 1.356 . S
N885 H890 0.984 . S
N885 H891 0.985 . S
C886 C880 1.379 . S
C886 C883 1.363 . S
C886 N884 1.356 . S
C887 C881 1.363 . S
C887 C882 1.379 . S
C887 N885 1.356 . S
N888 C880 1.356 . S
N888 H894 0.984 . S
N888 H895 0.984 . S
N889 C882 1.356 . S
N889 H892 0.984 . S
N889 H893 0.985 . S
H890 N885 0.984 . S
H891 N885 0.985 . S
H892 N889 0.984 . S
H893 N889 0.985 . S
H894 N888 0.984 . S
H895 N888 0.984 . S
H896 N884 0.984 . S
H897 N884 0.985 . S
C898 C899 1.363 . S
C898 C904 1.379 . S
C898 N906 1.356 . S
C899 C898 1.363 . S
C899 C905 1.363 . S
C900 C901 1.363 . S
C900 C905 1.379 . S
C900 N907 1.356 . S
C901 C900 1.363 . S
C901 C904 1.363 . S
N902 C904 1.356 . S
N902 H914 0.984 . S
N902 H915 0.985 . S
N903 C905 1.356 . S
N903 H908 0.984 . S
N903 H909 0.985 . S
C904 C898 1.379 . S
C904 C901 1.363 . S
C904 N902 1.356 . S
C905 C899 1.363 . S
C905 C900 1.379 . S
C905 N903 1.356 . S
N906 C898 1.356 . S
N906 H912 0.984 . S
N906 H913 0.984 . S
N907 C900 1.356 . S
N907 H910 0.984 . S
N907 H911 0.985 . S
H908 N903 0.984 . S
H909 N903 0.985 . S
H910 N907 0.984 . S
H911 N907 0.985 . S
H912 N906 0.984 . S
H913 N906 0.984 . S
H914 N902 0.984 . S
H915 N902 0.985 . S
C916 C917 1.363 . S
C916 C922 1.379 . S
C916 N924 1.356 . S
C917 C916 1.363 . S
C917 C923 1.363 . S
C918 C919 1.363 . S
C918 C923 1.379 . S
C918 N925 1.356 . S
C919 C918 1.363 . S
C919 C922 1.363 . S
N920 C922 1.356 . S
N920 H932 0.984 . S
N920 H933 0.985 . S
N921 C923 1.356 . S
N921 H926 0.984 . S
N921 H927 0.985 . S
C922 C916 1.379 . S
C922 C919 1.363 . S
C922 N920 1.356 . S
C923 C917 1.363 . S
C923 C918 1.379 . S
C923 N921 1.356 . S
N924 C916 1.356 . S
N924 H930 0.984 . S
N924 H931 0.984 . S
N925 C918 1.356 . S
N925 H928 0.984 . S
N925 H929 0.985 . S
H926 N921 0.984 . S
H927 N921 0.985 . S
H928 N925 0.984 . S
H929 N925 0.985 . S
H930 N924 0.984 . S
H931 N924 0.984 . S
H932 N920 0.984 . S
H933 N920 0.985 . S
C934 C935 1.363 . S
C934 C940 1.379 . S
C934 N942 1.356 . S
C935 C934 1.363 . S
C935 C941 1.363 . S
C936 C937 1.363 . S
C936 C941 1.379 . S
C936 N943 1.356 . S
C937 C936 1.363 . S
C937 C940 1.363 . S
N938 C940 1.356 . S
N938 H950 0.984 . S
N938 H951 0.985 . S
N939 C941 1.356 . S
N939 H944 0.984 . S
N939 H945 0.985 . S
C940 C934 1.379 . S
C940 C937 1.363 . S
C940 N938 1.356 . S
C941 C935 1.363 . S
C941 C936 1.379 . S
C941 N939 1.356 . S
N942 C934 1.356 . S
N942 H948 0.984 . S
N942 H949 0.984 . S
N943 C936 1.356 . S
N943 H946 0.984 . S
N943 H947 0.985 . S
H944 N939 0.984 . S
H945 N939 0.985 . S
H946 N943 0.984 . S
H947 N943 0.985 . S
H948 N942 0.984 . S
H949 N942 0.984 . S
H950 N938 0.984 . S
H951 N938 0.985 . S
C952 C953 1.363 . S
C952 C958 1.379 . S
C952 N960 1.356 . S
C953 C952 1.363 . S
C953 C959 1.363 . S
C954 C955 1.363 . S
C954 C959 1.379 . S
C954 N961 1.356 . S
C955 C954 1.363 . S
C955 C958 1.363 . S
N956 C958 1.356 . S
N956 H968 0.984 . S
N956 H969 0.985 . S
N957 C959 1.356 . S
N957 H962 0.984 . S
N957 H963 0.985 . S
C958 C952 1.379 . S
C958 C955 1.363 . S
C958 N956 1.356 . S
C959 C953 1.363 . S
C959 C954 1.379 . S
C959 N957 1.356 . S
N960 C952 1.356 . S
N960 H966 0.984 . S
N960 H967 0.984 . S
N961 C954 1.356 . S
N961 H964 0.984 . S
N961 H965 0.985 . S
H962 N957 0.984 . S
H963 N957 0.985 . S
H964 N961 0.984 . S
H965 N961 0.985 . S
H966 N960 0.984 . S
H967 N960 0.984 . S
H968 N956 0.984 . S
H969 N956 0.985 . S
C970 C971 1.363 . S
C970 C976 1.379 . S
C970 N978 1.356 . S
C971 C970 1.363 . S
C971 C977 1.363 . S
C972 C973 1.363 . S
C972 C977 1.379 . S
C972 N979 1.356 . S
C973 C972 1.363 . S
C973 C976 1.363 . S
N974 C976 1.356 . S
N974 H986 0.984 . S
N974 H987 0.985 . S
N975 C977 1.356 . S
N975 H980 0.984 . S
N975 H981 0.985 . S
C976 C970 1.379 . S
C976 C973 1.363 . S
C976 N974 1.356 . S
C977 C971 1.363 . S
C977 C972 1.379 . S
C977 N975 1.356 . S
N978 C970 1.356 . S
N978 H984 0.984 . S
N978 H985 0.984 . S
N979 C972 1.356 . S
N979 H982 0.984 . S
N979 H983 0.985 . S
H980 N975 0.984 . S
H981 N975 0.985 . S
H982 N979 0.984 . S
H983 N979 0.985 . S
H984 N978 0.984 . S
H985 N978 0.984 . S
H986 N974 0.984 . S
H987 N974 0.985 . S
C988 C989 1.363 . S
C988 C994 1.379 . S
C988 N996 1.356 . S
C989 C988 1.363 . S
C989 C995 1.363 . S
C990 C991 1.363 . S
C990 C995 1.379 . S
C990 N997 1.356 . S
C991 C990 1.363 . S
C991 C994 1.363 . S
N992 C994 1.356 . S
N992 H1004 0.984 . S
N992 H1005 0.985 . S
N993 C995 1.356 . S
N993 H998 0.984 . S
N993 H999 0.985 . S
C994 C988 1.379 . S
C994 C991 1.363 . S
C994 N992 1.356 . S
C995 C989 1.363 . S
C995 C990 1.379 . S
C995 N993 1.356 . S
N996 C988 1.356 . S
N996 H1002 0.984 . S
N996 H1003 0.984 . S
N997 C990 1.356 . S
N997 H1000 0.984 . S
N997 H1001 0.985 . S
H998 N993 0.984 . S
H999 N993 0.985 . S
H1000 N997 0.984 . S
H1001 N997 0.985 . S
H1002 N996 0.984 . S
H1003 N996 0.984 . S
H1004 N992 0.984 . S
H1005 N992 0.985 . S
C1006 C1007 1.363 . S
C1006 C1012 1.379 . S
C1006 N1014 1.356 . S
C1007 C1006 1.363 . S
C1007 C1013 1.363 . S
C1008 C1009 1.363 . S
C1008 C1013 1.379 . S
C1008 N1015 1.356 . S
C1009 C1008 1.363 . S
C1009 C1012 1.363 . S
N1010 C1012 1.356 . S
N1010 H1022 0.984 . S
N1010 H1023 0.985 . S
N1011 C1013 1.356 . S
N1011 H1016 0.984 . S
N1011 H1017 0.985 . S
C1012 C1006 1.379 . S
C1012 C1009 1.363 . S
C1012 N1010 1.356 . S
C1013 C1007 1.363 . S
C1013 C1008 1.379 . S
C1013 N1011 1.356 . S
N1014 C1006 1.356 . S
N1014 H1020 0.984 . S
N1014 H1021 0.984 . S
N1015 C1008 1.356 . S
N1015 H1018 0.984 . S
N1015 H1019 0.985 . S
H1016 N1011 0.984 . S
H1017 N1011 0.985 . S
H1018 N1015 0.984 . S
H1019 N1015 0.985 . S
H1020 N1014 0.984 . S
H1021 N1014 0.984 . S
H1022 N1010 0.984 . S
H1023 N1010 0.985 . S
C1024 C1025 1.363 . S
C1024 C1030 1.379 . S
C1024 N1032 1.356 . S
C1025 C1024 1.363 . S
C1025 C1031 1.363 . S
C1026 C1027 1.363 . S
C1026 C1031 1.379 . S
C1026 N1033 1.356 . S
C1027 C1026 1.363 . S
C1027 C1030 1.363 . S
N1028 C1030 1.356 . S
N1028 H1040 0.984 . S
N1028 H1041 0.985 . S
N1029 C1031 1.356 . S
N1029 H1034 0.984 . S
N1029 H1035 0.985 . S
C1030 C1024 1.379 . S
C1030 C1027 1.363 . S
C1030 N1028 1.356 . S
C1031 C1025 1.363 . S
C1031 C1026 1.379 . S
C1031 N1029 1.356 . S
N1032 C1024 1.356 . S
N1032 H1038 0.984 . S
N1032 H1039 0.984 . S
N1033 C1026 1.356 . S
N1033 H1036 0.984 . S
N1033 H1037 0.985 . S
H1034 N1029 0.984 . S
H1035 N1029 0.985 . S
H1036 N1033 0.984 . S
H1037 N1033 0.985 . S
H1038 N1032 0.984 . S
H1039 N1032 0.984 . S
H1040 N1028 0.984 . S
H1041 N1028 0.985 . S
C1042 C1043 1.363 . S
C1042 C1048 1.379 . S
C1042 N1050 1.356 . S
C1043 C1042 1.363 . S
C1043 C1049 1.363 . S
C1044 C1045 1.363 . S
C1044 C1049 1.379 . S
C1044 N1051 1.356 . S
C1045 C1044 1.363 . S
C1045 C1048 1.363 . S
N1046 C1048 1.356 . S
N1046 H1058 0.984 . S
N1046 H1059 0.985 . S
N1047 C1049 1.356 . S
N1047 H1052 0.984 . S
N1047 H1053 0.985 . S
C1048 C1042 1.379 . S
C1048 C1045 1.363 . S
C1048 N1046 1.356 . S
C1049 C1043 1.363 . S
C1049 C1044 1.379 . S
C1049 N1047 1.356 . S
N1050 C1042 1.356 . S
N1050 H1056 0.984 . S
N1050 H1057 0.984 . S
N1051 C1044 1.356 . S
N1051 H1054 0.984 1_455 S
N1051 H1055 0.985 . S
H1052 N1047 0.984 . S
H1053 N1047 0.985 . S
H1054 N1051 0.984 1_655 S
H1055 N1051 0.985 . S
H1056 N1050 0.984 . S
H1057 N1050 0.984 . S
H1058 N1046 0.984 . S
H1059 N1046 0.985 . S
C1060 C1061 1.363 . S
C1060 C1066 1.379 . S
C1060 N1068 1.356 . S
C1061 C1060 1.363 . S
C1061 C1067 1.363 . S
C1062 C1063 1.363 . S
C1062 C1067 1.379 . S
C1062 N1069 1.356 . S
C1063 C1062 1.363 . S
C1063 C1066 1.363 . S
N1064 C1066 1.356 . S
N1064 H1076 0.984 . S
N1064 H1077 0.985 . S
N1065 C1067 1.356 . S
N1065 H1070 0.984 . S
N1065 H1071 0.985 . S
C1066 C1060 1.379 . S
C1066 C1063 1.363 . S
C1066 N1064 1.356 . S
C1067 C1061 1.363 . S
C1067 C1062 1.379 . S
C1067 N1065 1.356 . S
N1068 C1060 1.356 . S
N1068 H1074 0.984 . S
N1068 H1075 0.984 . S
N1069 C1062 1.356 . S
N1069 H1072 0.984 . S
N1069 H1073 0.985 . S
H1070 N1065 0.984 . S
H1071 N1065 0.985 . S
H1072 N1069 0.984 . S
H1073 N1069 0.985 . S
H1074 N1068 0.984 . S
H1075 N1068 0.984 . S
H1076 N1064 0.984 . S
H1077 N1064 0.985 . S
C1078 C1079 1.363 . S
C1078 C1084 1.379 . S
C1078 N1086 1.356 . S
C1079 C1078 1.363 . S
C1079 C1085 1.363 . S
C1080 C1081 1.363 . S
C1080 C1085 1.379 . S
C1080 N1087 1.356 . S
C1081 C1080 1.363 . S
C1081 C1084 1.363 . S
N1082 C1084 1.356 . S
N1082 H1094 0.984 . S
N1082 H1095 0.985 . S
N1083 C1085 1.356 . S
N1083 H1088 0.984 . S
N1083 H1089 0.985 . S
C1084 C1078 1.379 . S
C1084 C1081 1.363 . S
C1084 N1082 1.356 . S
C1085 C1079 1.363 . S
C1085 C1080 1.379 . S
C1085 N1083 1.356 . S
N1086 C1078 1.356 . S
N1086 H1092 0.984 . S
N1086 H1093 0.984 . S
N1087 C1080 1.356 . S
N1087 H1090 0.984 . S
N1087 H1091 0.985 . S
H1088 N1083 0.984 . S
H1089 N1083 0.985 . S
H1090 N1087 0.984 . S
H1091 N1087 0.985 . S
H1092 N1086 0.984 . S
H1093 N1086 0.984 . S
H1094 N1082 0.984 . S
H1095 N1082 0.985 . S
C1096 C1097 1.363 . S
C1096 C1102 1.379 . S
C1096 N1104 1.356 . S
C1097 C1096 1.363 . S
C1097 C1103 1.363 . S
C1098 C1099 1.363 . S
C1098 C1103 1.379 . S
C1098 N1105 1.356 . S
C1099 C1098 1.363 . S
C1099 C1102 1.363 . S
N1100 C1102 1.356 . S
N1100 H1112 0.984 . S
N1100 H1113 0.985 . S
N1101 C1103 1.356 . S
N1101 H1106 0.984 . S
N1101 H1107 0.985 . S
C1102 C1096 1.379 . S
C1102 C1099 1.363 . S
C1102 N1100 1.356 . S
C1103 C1097 1.363 . S
C1103 C1098 1.379 . S
C1103 N1101 1.356 . S
N1104 C1096 1.356 . S
N1104 H1110 0.984 . S
N1104 H1111 0.984 . S
N1105 C1098 1.356 . S
N1105 H1108 0.984 . S
N1105 H1109 0.985 . S
H1106 N1101 0.984 . S
H1107 N1101 0.985 . S
H1108 N1105 0.984 . S
H1109 N1105 0.985 . S
H1110 N1104 0.984 . S
H1111 N1104 0.984 . S
H1112 N1100 0.984 . S
H1113 N1100 0.985 . S
C1114 C1115 1.363 . S
C1114 C1120 1.379 . S
C1114 N1122 1.356 . S
C1115 C1114 1.363 . S
C1115 C1121 1.363 . S
C1116 C1117 1.363 . S
C1116 C1121 1.379 . S
C1116 N1123 1.356 . S
C1117 C1116 1.363 . S
C1117 C1120 1.363 . S
N1118 C1120 1.356 . S
N1118 H1130 0.984 . S
N1118 H1131 0.985 . S
N1119 C1121 1.356 . S
N1119 H1124 0.984 . S
N1119 H1125 0.985 . S
C1120 C1114 1.379 . S
C1120 C1117 1.363 . S
C1120 N1118 1.356 . S
C1121 C1115 1.363 . S
C1121 C1116 1.379 . S
C1121 N1119 1.356 . S
N1122 C1114 1.356 . S
N1122 H1128 0.984 . S
N1122 H1129 0.984 . S
N1123 C1116 1.356 . S
N1123 H1126 0.984 . S
N1123 H1127 0.985 . S
H1124 N1119 0.984 . S
H1125 N1119 0.985 . S
H1126 N1123 0.984 . S
H1127 N1123 0.985 . S
H1128 N1122 0.984 . S
H1129 N1122 0.984 . S
H1130 N1118 0.984 . S
H1131 N1118 0.985 . S
C1132 C1133 1.363 . S
C1132 C1138 1.379 . S
C1132 N1140 1.356 . S
C1133 C1132 1.363 . S
C1133 C1139 1.363 . S
C1134 C1135 1.363 . S
C1134 C1139 1.379 . S
C1134 N1141 1.356 . S
C1135 C1134 1.363 . S
C1135 C1138 1.363 . S
N1136 C1138 1.356 . S
N1136 H1148 0.984 . S
N1136 H1149 0.985 . S
N1137 C1139 1.356 . S
N1137 H1142 0.984 . S
N1137 H1143 0.985 . S
C1138 C1132 1.379 . S
C1138 C1135 1.363 . S
C1138 N1136 1.356 . S
C1139 C1133 1.363 . S
C1139 C1134 1.379 . S
C1139 N1137 1.356 . S
N1140 C1132 1.356 . S
N1140 H1146 0.984 . S
N1140 H1147 0.984 . S
N1141 C1134 1.356 . S
N1141 H1144 0.984 . S
N1141 H1145 0.985 . S
H1142 N1137 0.984 . S
H1143 N1137 0.985 . S
H1144 N1141 0.984 . S
H1145 N1141 0.985 . S
H1146 N1140 0.984 . S
H1147 N1140 0.984 . S
H1148 N1136 0.984 . S
H1149 N1136 0.985 . S
C1150 C1151 1.363 . S
C1150 C1156 1.379 . S
C1150 N1158 1.356 . S
C1151 C1150 1.363 . S
C1151 C1157 1.363 . S
C1152 C1153 1.363 . S
C1152 C1157 1.379 . S
C1152 N1159 1.356 . S
C1153 C1152 1.363 . S
C1153 C1156 1.363 . S
N1154 C1156 1.356 . S
N1154 H1166 0.984 . S
N1154 H1167 0.985 . S
N1155 C1157 1.356 . S
N1155 H1160 0.984 . S
N1155 H1161 0.985 . S
C1156 C1150 1.379 . S
C1156 C1153 1.363 . S
C1156 N1154 1.356 . S
C1157 C1151 1.363 . S
C1157 C1152 1.379 . S
C1157 N1155 1.356 . S
N1158 C1150 1.356 . S
N1158 H1164 0.984 . S
N1158 H1165 0.984 . S
N1159 C1152 1.356 . S
N1159 H1162 0.984 . S
N1159 H1163 0.985 . S
H1160 N1155 0.984 . S
H1161 N1155 0.985 . S
H1162 N1159 0.984 . S
H1163 N1159 0.985 . S
H1164 N1158 0.984 . S
H1165 N1158 0.984 . S
H1166 N1154 0.984 . S
H1167 N1154 0.985 . S
C1168 C1169 1.363 . S
C1168 C1174 1.379 . S
C1168 N1176 1.356 . S
C1169 C1168 1.363 . S
C1169 C1175 1.363 . S
C1170 C1171 1.363 . S
C1170 C1175 1.379 . S
C1170 N1177 1.356 . S
C1171 C1170 1.363 . S
C1171 C1174 1.363 . S
N1172 C1174 1.356 . S
N1172 H1184 0.984 . S
N1172 H1185 0.985 . S
N1173 C1175 1.356 . S
N1173 H1178 0.984 . S
N1173 H1179 0.985 . S
C1174 C1168 1.379 . S
C1174 C1171 1.363 . S
C1174 N1172 1.356 . S
C1175 C1169 1.363 . S
C1175 C1170 1.379 . S
C1175 N1173 1.356 . S
N1176 C1168 1.356 . S
N1176 H1182 0.984 . S
N1176 H1183 0.984 . S
N1177 C1170 1.356 . S
N1177 H1180 0.984 . S
N1177 H1181 0.985 . S
H1178 N1173 0.984 . S
H1179 N1173 0.985 . S
H1180 N1177 0.984 . S
H1181 N1177 0.985 . S
H1182 N1176 0.984 . S
H1183 N1176 0.984 . S
H1184 N1172 0.984 . S
H1185 N1172 0.985 . S
C1186 C1187 1.363 . S
C1186 C1192 1.379 . S
C1186 N1194 1.356 . S
C1187 C1186 1.363 . S
C1187 C1193 1.363 . S
C1188 C1189 1.363 . S
C1188 C1193 1.379 . S
C1188 N1195 1.356 . S
C1189 C1188 1.363 . S
C1189 C1192 1.363 . S
N1190 C1192 1.356 . S
N1190 H1202 0.984 . S
N1190 H1203 0.985 . S
N1191 C1193 1.356 . S
N1191 H1196 0.984 1_655 S
N1191 H1197 0.985 . S
C1192 C1186 1.379 . S
C1192 C1189 1.363 . S
C1192 N1190 1.356 . S
C1193 C1187 1.363 . S
C1193 C1188 1.379 . S
C1193 N1191 1.356 . S
N1194 C1186 1.356 . S
N1194 H1200 0.984 . S
N1194 H1201 0.984 . S
N1195 C1188 1.356 . S
N1195 H1198 0.984 . S
N1195 H1199 0.985 . S
H1196 N1191 0.984 1_455 S
H1197 N1191 0.985 . S
H1198 N1195 0.984 . S
H1199 N1195 0.985 . S
H1200 N1194 0.984 . S
H1201 N1194 0.984 . S
H1202 N1190 0.984 . S
H1203 N1190 0.985 . S
C1204 C1205 1.363 . S
C1204 C1210 1.379 . S
C1204 N1212 1.356 . S
C1205 C1204 1.363 . S
C1205 C1211 1.363 . S
C1206 C1207 1.363 . S
C1206 C1211 1.379 . S
C1206 N1213 1.356 . S
C1207 C1206 1.363 . S
C1207 C1210 1.363 . S
N1208 C1210 1.356 . S
N1208 H1220 0.984 . S
N1208 H1221 0.985 . S
N1209 C1211 1.356 . S
N1209 H1214 0.984 . S
N1209 H1215 0.985 . S
C1210 C1204 1.379 . S
C1210 C1207 1.363 . S
C1210 N1208 1.356 . S
C1211 C1205 1.363 . S
C1211 C1206 1.379 . S
C1211 N1209 1.356 . S
N1212 C1204 1.356 . S
N1212 H1218 0.984 . S
N1212 H1219 0.984 . S
N1213 C1206 1.356 . S
N1213 H1216 0.984 . S
N1213 H1217 0.985 . S
H1214 N1209 0.984 . S
H1215 N1209 0.985 . S
H1216 N1213 0.984 . S
H1217 N1213 0.985 . S
H1218 N1212 0.984 . S
H1219 N1212 0.984 . S
H1220 N1208 0.984 . S
H1221 N1208 0.985 . S
C1222 C1223 1.363 . S
C1222 C1228 1.379 . S
C1222 N1230 1.356 . S
C1223 C1222 1.363 . S
C1223 C1229 1.363 . S
C1224 C1225 1.363 . S
C1224 C1229 1.379 . S
C1224 N1231 1.356 . S
C1225 C1224 1.363 . S
C1225 C1228 1.363 . S
N1226 C1228 1.356 . S
N1226 H1238 0.984 . S
N1226 H1239 0.985 . S
N1227 C1229 1.356 . S
N1227 H1232 0.984 . S
N1227 H1233 0.985 . S
C1228 C1222 1.379 . S
C1228 C1225 1.363 . S
C1228 N1226 1.356 . S
C1229 C1223 1.363 . S
C1229 C1224 1.379 . S
C1229 N1227 1.356 . S
N1230 C1222 1.356 . S
N1230 H1236 0.984 . S
N1230 H1237 0.984 . S
N1231 C1224 1.356 . S
N1231 H1234 0.984 . S
N1231 H1235 0.985 . S
H1232 N1227 0.984 . S
H1233 N1227 0.985 . S
H1234 N1231 0.984 . S
H1235 N1231 0.985 . S
H1236 N1230 0.984 . S
H1237 N1230 0.984 . S
H1238 N1226 0.984 . S
H1239 N1226 0.985 . S
C1240 C1241 1.363 . S
C1240 C1246 1.379 . S
C1240 N1248 1.356 . S
C1241 C1240 1.363 . S
C1241 C1247 1.363 . S
C1242 C1243 1.363 . S
C1242 C1247 1.379 . S
C1242 N1249 1.356 . S
C1243 C1242 1.363 . S
C1243 C1246 1.363 . S
N1244 C1246 1.356 . S
N1244 H1256 0.984 . S
N1244 H1257 0.985 . S
N1245 C1247 1.356 . S
N1245 H1250 0.984 . S
N1245 H1251 0.985 . S
C1246 C1240 1.379 . S
C1246 C1243 1.363 . S
C1246 N1244 1.356 . S
C1247 C1241 1.363 . S
C1247 C1242 1.379 . S
C1247 N1245 1.356 . S
N1248 C1240 1.356 . S
N1248 H1254 0.984 . S
N1248 H1255 0.984 . S
N1249 C1242 1.356 . S
N1249 H1252 0.984 . S
N1249 H1253 0.985 . S
H1250 N1245 0.984 . S
H1251 N1245 0.985 . S
H1252 N1249 0.984 . S
H1253 N1249 0.985 . S
H1254 N1248 0.984 . S
H1255 N1248 0.984 . S
H1256 N1244 0.984 . S
H1257 N1244 0.985 . S
C1258 C1259 1.363 . S
C1258 C1264 1.379 . S
C1258 N1266 1.356 . S
C1259 C1258 1.363 . S
C1259 C1265 1.363 . S
C1260 C1261 1.363 . S
C1260 C1265 1.379 . S
C1260 N1267 1.356 . S
C1261 C1260 1.363 . S
C1261 C1264 1.363 . S
N1262 C1264 1.356 . S
N1262 H1274 0.984 . S
N1262 H1275 0.985 . S
N1263 C1265 1.356 . S
N1263 H1268 0.984 . S
N1263 H1269 0.985 . S
C1264 C1258 1.379 . S
C1264 C1261 1.363 . S
C1264 N1262 1.356 . S
C1265 C1259 1.363 . S
C1265 C1260 1.379 . S
C1265 N1263 1.356 . S
N1266 C1258 1.356 . S
N1266 H1272 0.984 . S
N1266 H1273 0.984 . S
N1267 C1260 1.356 . S
N1267 H1270 0.984 . S
N1267 H1271 0.985 . S
H1268 N1263 0.984 . S
H1269 N1263 0.985 . S
H1270 N1267 0.984 . S
H1271 N1267 0.985 . S
H1272 N1266 0.984 . S
H1273 N1266 0.984 . S
H1274 N1262 0.984 . S
H1275 N1262 0.985 . S
C1276 C1277 1.363 . S
C1276 C1282 1.379 . S
C1276 N1284 1.356 . S
C1277 C1276 1.363 . S
C1277 C1283 1.363 . S
C1278 C1279 1.363 . S
C1278 C1283 1.379 . S
C1278 N1285 1.356 . S
C1279 C1278 1.363 . S
C1279 C1282 1.363 . S
N1280 C1282 1.356 . S
N1280 H1292 0.984 . S
N1280 H1293 0.985 . S
N1281 C1283 1.356 . S
N1281 H1286 0.984 . S
N1281 H1287 0.985 . S
C1282 C1276 1.379 . S
C1282 C1279 1.363 . S
C1282 N1280 1.356 . S
C1283 C1277 1.363 . S
C1283 C1278 1.379 . S
C1283 N1281 1.356 . S
N1284 C1276 1.356 . S
N1284 H1290 0.984 . S
N1284 H1291 0.984 . S
N1285 C1278 1.356 . S
N1285 H1288 0.984 . S
N1285 H1289 0.985 . S
H1286 N1281 0.984 . S
H1287 N1281 0.985 . S
H1288 N1285 0.984 . S
H1289 N1285 0.985 . S
H1290 N1284 0.984 . S
H1291 N1284 0.984 . S
H1292 N1280 0.984 . S
H1293 N1280 0.985 . S
C1294 C1295 1.363 . S
C1294 C1300 1.379 . S
C1294 N1302 1.356 . S
C1295 C1294 1.363 . S
C1295 C1301 1.363 . S
C1296 C1297 1.363 . S
C1296 C1301 1.379 . S
C1296 N1303 1.356 . S
C1297 C1296 1.363 . S
C1297 C1300 1.363 . S
N1298 C1300 1.356 . S
N1298 H1310 0.984 . S
N1298 H1311 0.985 . S
N1299 C1301 1.356 . S
N1299 H1304 0.984 . S
N1299 H1305 0.985 . S
C1300 C1294 1.379 . S
C1300 C1297 1.363 . S
C1300 N1298 1.356 . S
C1301 C1295 1.363 . S
C1301 C1296 1.379 . S
C1301 N1299 1.356 . S
N1302 C1294 1.356 . S
N1302 H1308 0.984 . S
N1302 H1309 0.984 1_655 S
N1303 C1296 1.356 . S
N1303 H1306 0.984 . S
N1303 H1307 0.985 . S
H1304 N1299 0.984 . S
H1305 N1299 0.985 . S
H1306 N1303 0.984 . S
H1307 N1303 0.985 . S
H1308 N1302 0.984 . S
H1309 N1302 0.984 1_455 S
H1310 N1298 0.984 . S
H1311 N1298 0.985 . S
C1312 C1313 1.363 . S
C1312 C1318 1.379 . S
C1312 N1320 1.356 . S
C1313 C1312 1.363 . S
C1313 C1319 1.363 . S
C1314 C1315 1.363 . S
C1314 C1319 1.379 . S
C1314 N1321 1.356 . S
C1315 C1314 1.363 . S
C1315 C1318 1.363 . S
N1316 C1318 1.356 . S
N1316 H1328 0.984 . S
N1316 H1329 0.985 . S
N1317 C1319 1.356 . S
N1317 H1322 0.984 . S
N1317 H1323 0.985 . S
C1318 C1312 1.379 . S
C1318 C1315 1.363 . S
C1318 N1316 1.356 . S
C1319 C1313 1.363 . S
C1319 C1314 1.379 . S
C1319 N1317 1.356 . S
N1320 C1312 1.356 . S
N1320 H1326 0.984 . S
N1320 H1327 0.984 . S
N1321 C1314 1.356 . S
N1321 H1324 0.984 . S
N1321 H1325 0.985 . S
H1322 N1317 0.984 . S
H1323 N1317 0.985 . S
H1324 N1321 0.984 . S
H1325 N1321 0.985 . S
H1326 N1320 0.984 . S
H1327 N1320 0.984 . S
H1328 N1316 0.984 . S
H1329 N1316 0.985 . S
C1330 C1331 1.363 . S
C1330 C1336 1.379 . S
C1330 N1338 1.356 . S
C1331 C1330 1.363 . S
C1331 C1337 1.363 . S
C1332 C1333 1.363 . S
C1332 C1337 1.379 . S
C1332 N1339 1.356 . S
C1333 C1332 1.363 . S
C1333 C1336 1.363 . S
N1334 C1336 1.356 . S
N1334 H1346 0.984 . S
N1334 H1347 0.985 . S
N1335 C1337 1.356 . S
N1335 H1340 0.984 . S
N1335 H1341 0.985 . S
C1336 C1330 1.379 . S
C1336 C1333 1.363 . S
C1336 N1334 1.356 . S
C1337 C1331 1.363 . S
C1337 C1332 1.379 . S
C1337 N1335 1.356 . S
N1338 C1330 1.356 . S
N1338 H1344 0.984 . S
N1338 H1345 0.984 . S
N1339 C1332 1.356 . S
N1339 H1342 0.984 . S
N1339 H1343 0.985 . S
H1340 N1335 0.984 . S
H1341 N1335 0.985 . S
H1342 N1339 0.984 . S
H1343 N1339 0.985 . S
H1344 N1338 0.984 . S
H1345 N1338 0.984 . S
H1346 N1334 0.984 . S
H1347 N1334 0.985 . S
C1348 C1349 1.363 . S
C1348 C1354 1.379 . S
C1348 N1356 1.356 . S
C1349 C1348 1.363 . S
C1349 C1355 1.363 . S
C1350 C1351 1.363 . S
C1350 C1355 1.379 . S
C1350 N1357 1.356 . S
C1351 C1350 1.363 . S
C1351 C1354 1.363 . S
N1352 C1354 1.356 . S
N1352 H1364 0.984 . S
N1352 H1365 0.985 . S
N1353 C1355 1.356 . S
N1353 H1358 0.984 . S
N1353 H1359 0.985 . S
C1354 C1348 1.379 . S
C1354 C1351 1.363 . S
C1354 N1352 1.356 . S
C1355 C1349 1.363 . S
C1355 C1350 1.379 . S
C1355 N1353 1.356 . S
N1356 C1348 1.356 . S
N1356 H1362 0.984 . S
N1356 H1363 0.984 . S
N1357 C1350 1.356 . S
N1357 H1360 0.984 . S
N1357 H1361 0.985 . S
H1358 N1353 0.984 . S
H1359 N1353 0.985 . S
H1360 N1357 0.984 . S
H1361 N1357 0.985 . S
H1362 N1356 0.984 . S
H1363 N1356 0.984 . S
H1364 N1352 0.984 . S
H1365 N1352 0.985 . S
C1366 C1367 1.363 . S
C1366 C1372 1.379 . S
C1366 N1374 1.356 . S
C1367 C1366 1.363 . S
C1367 C1373 1.363 . S
C1368 C1369 1.363 . S
C1368 C1373 1.379 . S
C1368 N1375 1.356 . S
C1369 C1368 1.363 . S
C1369 C1372 1.363 . S
N1370 C1372 1.356 . S
N1370 H1382 0.984 . S
N1370 H1383 0.985 1_655 S
N1371 C1373 1.356 . S
N1371 H1376 0.984 . S
N1371 H1377 0.985 . S
C1372 C1366 1.379 . S
C1372 C1369 1.363 . S
C1372 N1370 1.356 . S
C1373 C1367 1.363 . S
C1373 C1368 1.379 . S
C1373 N1371 1.356 . S
N1374 C1366 1.356 . S
N1374 H1380 0.984 . S
N1374 H1381 0.984 . S
N1375 C1368 1.356 . S
N1375 H1378 0.984 . S
N1375 H1379 0.985 . S
H1376 N1371 0.984 . S
H1377 N1371 0.985 . S
H1378 N1375 0.984 . S
H1379 N1375 0.985 . S
H1380 N1374 0.984 . S
H1381 N1374 0.984 . S
H1382 N1370 0.984 . S
H1383 N1370 0.985 1_455 S
C1384 C1385 1.363 . S
C1384 C1390 1.379 . S
C1384 N1392 1.356 . S
C1385 C1384 1.363 . S
C1385 C1391 1.363 . S
C1386 C1387 1.363 . S
C1386 C1391 1.379 . S
C1386 N1393 1.356 . S
C1387 C1386 1.363 . S
C1387 C1390 1.363 . S
N1388 C1390 1.356 . S
N1388 H1400 0.984 . S
N1388 H1401 0.985 . S
N1389 C1391 1.356 . S
N1389 H1394 0.984 . S
N1389 H1395 0.985 . S
C1390 C1384 1.379 . S
C1390 C1387 1.363 . S
C1390 N1388 1.356 . S
C1391 C1385 1.363 . S
C1391 C1386 1.379 . S
C1391 N1389 1.356 . S
N1392 C1384 1.356 . S
N1392 H1398 0.984 . S
N1392 H1399 0.984 . S
N1393 C1386 1.356 . S
N1393 H1396 0.984 . S
N1393 H1397 0.985 . S
H1394 N1389 0.984 . S
H1395 N1389 0.985 . S
H1396 N1393 0.984 . S
H1397 N1393 0.985 . S
H1398 N1392 0.984 . S
H1399 N1392 0.984 . S
H1400 N1388 0.984 . S
H1401 N1388 0.985 . S
C1402 C1403 1.363 . S
C1402 C1408 1.379 . S
C1402 N1410 1.356 . S
C1403 C1402 1.363 . S
C1403 C1409 1.363 . S
C1404 C1405 1.363 . S
C1404 C1409 1.379 . S
C1404 N1411 1.356 . S
C1405 C1404 1.363 . S
C1405 C1408 1.363 . S
N1406 C1408 1.356 . S
N1406 H1418 0.984 . S
N1406 H1419 0.985 . S
N1407 C1409 1.356 . S
N1407 H1412 0.984 1_655 S
N1407 H1413 0.985 . S
C1408 C1402 1.379 . S
C1408 C1405 1.363 . S
C1408 N1406 1.356 . S
C1409 C1403 1.363 . S
C1409 C1404 1.379 . S
C1409 N1407 1.356 . S
N1410 C1402 1.356 . S
N1410 H1416 0.984 . S
N1410 H1417 0.984 . S
N1411 C1404 1.356 . S
N1411 H1414 0.984 . S
N1411 H1415 0.985 . S
H1412 N1407 0.984 1_455 S
H1413 N1407 0.985 . S
H1414 N1411 0.984 . S
H1415 N1411 0.985 . S
H1416 N1410 0.984 . S
H1417 N1410 0.984 . S
H1418 N1406 0.984 . S
H1419 N1406 0.985 . S
C1420 C1421 1.363 . S
C1420 C1426 1.379 . S
C1420 N1428 1.356 . S
C1421 C1420 1.363 . S
C1421 C1427 1.363 . S
C1422 C1423 1.363 . S
C1422 C1427 1.379 . S
C1422 N1429 1.356 . S
C1423 C1422 1.363 . S
C1423 C1426 1.363 . S
N1424 C1426 1.356 . S
N1424 H1436 0.984 . S
N1424 H1437 0.985 . S
N1425 C1427 1.356 . S
N1425 H1430 0.984 . S
N1425 H1431 0.985 . S
C1426 C1420 1.379 . S
C1426 C1423 1.363 . S
C1426 N1424 1.356 . S
C1427 C1421 1.363 . S
C1427 C1422 1.379 . S
C1427 N1425 1.356 . S
N1428 C1420 1.356 . S
N1428 H1434 0.984 . S
N1428 H1435 0.984 . S
N1429 C1422 1.356 . S
N1429 H1432 0.984 . S
N1429 H1433 0.985 . S
H1430 N1425 0.984 . S
H1431 N1425 0.985 . S
H1432 N1429 0.984 . S
H1433 N1429 0.985 . S
H1434 N1428 0.984 . S
H1435 N1428 0.984 . S
H1436 N1424 0.984 . S
H1437 N1424 0.985 . S
C1438 C1439 1.363 . S
C1438 C1444 1.379 . S
C1438 N1446 1.356 . S
C1439 C1438 1.363 . S
C1439 C1445 1.363 . S
C1440 C1441 1.363 . S
C1440 C1445 1.379 . S
C1440 N1447 1.356 . S
C1441 C1440 1.363 . S
C1441 C1444 1.363 . S
N1442 C1444 1.356 . S
N1442 H1454 0.984 . S
N1442 H1455 0.985 . S
N1443 C1445 1.356 . S
N1443 H1448 0.984 . S
N1443 H1449 0.985 . S
C1444 C1438 1.379 . S
C1444 C1441 1.363 . S
C1444 N1442 1.356 . S
C1445 C1439 1.363 . S
C1445 C1440 1.379 . S
C1445 N1443 1.356 . S
N1446 C1438 1.356 . S
N1446 H1452 0.984 . S
N1446 H1453 0.984 . S
N1447 C1440 1.356 . S
N1447 H1450 0.984 . S
N1447 H1451 0.985 . S
H1448 N1443 0.984 . S
H1449 N1443 0.985 . S
H1450 N1447 0.984 . S
H1451 N1447 0.985 . S
H1452 N1446 0.984 . S
H1453 N1446 0.984 . S
H1454 N1442 0.984 . S
H1455 N1442 0.985 . S
C1456 C1457 1.363 . S
C1456 C1462 1.379 . S
C1456 N1464 1.356 . S
C1457 C1456 1.363 . S
C1457 C1463 1.363 . S
C1458 C1459 1.363 . S
C1458 C1463 1.379 . S
C1458 N1465 1.356 . S
C1459 C1458 1.363 . S
C1459 C1462 1.363 . S
N1460 C1462 1.356 . S
N1460 H1472 0.984 . S
N1460 H1473 0.985 . S
N1461 C1463 1.356 . S
N1461 H1466 0.984 . S
N1461 H1467 0.985 . S
C1462 C1456 1.379 . S
C1462 C1459 1.363 . S
C1462 N1460 1.356 . S
C1463 C1457 1.363 . S
C1463 C1458 1.379 . S
C1463 N1461 1.356 . S
N1464 C1456 1.356 . S
N1464 H1470 0.984 . S
N1464 H1471 0.984 . S
N1465 C1458 1.356 . S
N1465 H1468 0.984 . S
N1465 H1469 0.985 . S
H1466 N1461 0.984 . S
H1467 N1461 0.985 . S
H1468 N1465 0.984 . S
H1469 N1465 0.985 . S
H1470 N1464 0.984 . S
H1471 N1464 0.984 . S
H1472 N1460 0.984 . S
H1473 N1460 0.985 . S
C1474 C1475 1.363 . S
C1474 C1480 1.379 . S
C1474 N1482 1.356 . S
C1475 C1474 1.363 . S
C1475 C1481 1.363 . S
C1476 C1477 1.363 . S
C1476 C1481 1.379 . S
C1476 N1483 1.356 . S
C1477 C1476 1.363 . S
C1477 C1480 1.363 . S
N1478 C1480 1.356 . S
N1478 H1490 0.984 . S
N1478 H1491 0.985 . S
N1479 C1481 1.356 . S
N1479 H1484 0.984 . S
N1479 H1485 0.985 . S
C1480 C1474 1.379 . S
C1480 C1477 1.363 . S
C1480 N1478 1.356 . S
C1481 C1475 1.363 . S
C1481 C1476 1.379 . S
C1481 N1479 1.356 . S
N1482 C1474 1.356 . S
N1482 H1488 0.984 . S
N1482 H1489 0.984 . S
N1483 C1476 1.356 . S
N1483 H1486 0.984 . S
N1483 H1487 0.985 . S
H1484 N1479 0.984 . S
H1485 N1479 0.985 . S
H1486 N1483 0.984 . S
H1487 N1483 0.985 . S
H1488 N1482 0.984 . S
H1489 N1482 0.984 . S
H1490 N1478 0.984 . S
H1491 N1478 0.985 . S
C1492 C1493 1.363 . S
C1492 C1498 1.379 . S
C1492 N1500 1.356 . S
C1493 C1492 1.363 . S
C1493 C1499 1.363 . S
C1494 C1495 1.363 . S
C1494 C1499 1.379 . S
C1494 N1501 1.356 . S
C1495 C1494 1.363 . S
C1495 C1498 1.363 . S
N1496 C1498 1.356 . S
N1496 H1508 0.984 . S
N1496 H1509 0.985 . S
N1497 C1499 1.356 . S
N1497 H1502 0.984 . S
N1497 H1503 0.985 . S
C1498 C1492 1.379 . S
C1498 C1495 1.363 . S
C1498 N1496 1.356 . S
C1499 C1493 1.363 . S
C1499 C1494 1.379 . S
C1499 N1497 1.356 . S
N1500 C1492 1.356 . S
N1500 H1506 0.984 . S
N1500 H1507 0.984 . S
N1501 C1494 1.356 . S
N1501 H1504 0.984 . S
N1501 H1505 0.985 . S
H1502 N1497 0.984 . S
H1503 N1497 0.985 . S
H1504 N1501 0.984 . S
H1505 N1501 0.985 . S
H1506 N1500 0.984 . S
H1507 N1500 0.984 . S
H1508 N1496 0.984 . S
H1509 N1496 0.985 . S
C1510 C1511 1.363 . S
C1510 C1516 1.379 . S
C1510 N1518 1.356 . S
C1511 C1510 1.363 . S
C1511 C1517 1.363 . S
C1512 C1513 1.363 . S
C1512 C1517 1.379 . S
C1512 N1519 1.356 . S
C1513 C1512 1.363 . S
C1513 C1516 1.363 . S
N1514 C1516 1.356 . S
N1514 H1526 0.984 . S
N1514 H1527 0.985 . S
N1515 C1517 1.356 . S
N1515 H1520 0.984 1_455 S
N1515 H1521 0.985 . S
C1516 C1510 1.379 . S
C1516 C1513 1.363 . S
C1516 N1514 1.356 . S
C1517 C1511 1.363 . S
C1517 C1512 1.379 . S
C1517 N1515 1.356 . S
N1518 C1510 1.356 . S
N1518 H1524 0.984 . S
N1518 H1525 0.984 . S
N1519 C1512 1.356 . S
N1519 H1522 0.984 . S
N1519 H1523 0.985 . S
H1520 N1515 0.984 1_655 S
H1521 N1515 0.985 . S
H1522 N1519 0.984 . S
H1523 N1519 0.985 . S
H1524 N1518 0.984 . S
H1525 N1518 0.984 . S
H1526 N1514 0.984 . S
H1527 N1514 0.985 . S
C1528 C1529 1.363 . S
C1528 C1534 1.379 . S
C1528 N1536 1.356 . S
C1529 C1528 1.363 . S
C1529 C1535 1.363 . S
C1530 C1531 1.363 . S
C1530 C1535 1.379 . S
C1530 N1537 1.356 . S
C1531 C1530 1.363 . S
C1531 C1534 1.363 . S
N1532 C1534 1.356 . S
N1532 H1544 0.984 . S
N1532 H1545 0.985 . S
N1533 C1535 1.356 . S
N1533 H1538 0.984 . S
N1533 H1539 0.985 . S
C1534 C1528 1.379 . S
C1534 C1531 1.363 . S
C1534 N1532 1.356 . S
C1535 C1529 1.363 . S
C1535 C1530 1.379 . S
C1535 N1533 1.356 . S
N1536 C1528 1.356 . S
N1536 H1542 0.984 . S
N1536 H1543 0.984 . S
N1537 C1530 1.356 . S
N1537 H1540 0.984 . S
N1537 H1541 0.985 . S
H1538 N1533 0.984 . S
H1539 N1533 0.985 . S
H1540 N1537 0.984 . S
H1541 N1537 0.985 . S
H1542 N1536 0.984 . S
H1543 N1536 0.984 . S
H1544 N1532 0.984 . S
H1545 N1532 0.985 . S
C1546 C1547 1.363 . S
C1546 C1552 1.379 . S
C1546 N1554 1.356 . S
C1547 C1546 1.363 . S
C1547 C1553 1.363 . S
C1548 C1549 1.363 . S
C1548 C1553 1.379 . S
C1548 N1555 1.356 . S
C1549 C1548 1.363 . S
C1549 C1552 1.363 . S
N1550 C1552 1.356 . S
N1550 H1562 0.984 . S
N1550 H1563 0.985 . S
N1551 C1553 1.356 . S
N1551 H1556 0.984 . S
N1551 H1557 0.985 . S
C1552 C1546 1.379 . S
C1552 C1549 1.363 . S
C1552 N1550 1.356 . S
C1553 C1547 1.363 . S
C1553 C1548 1.379 . S
C1553 N1551 1.356 . S
N1554 C1546 1.356 . S
N1554 H1560 0.984 . S
N1554 H1561 0.984 . S
N1555 C1548 1.356 . S
N1555 H1558 0.984 . S
N1555 H1559 0.985 . S
H1556 N1551 0.984 . S
H1557 N1551 0.985 . S
H1558 N1555 0.984 . S
H1559 N1555 0.985 . S
H1560 N1554 0.984 . S
H1561 N1554 0.984 . S
H1562 N1550 0.984 . S
H1563 N1550 0.985 . S
C1564 C1565 1.363 . S
C1564 C1570 1.379 . S
C1564 N1572 1.356 . S
C1565 C1564 1.363 . S
C1565 C1571 1.363 . S
C1566 C1567 1.363 . S
C1566 C1571 1.379 . S
C1566 N1573 1.356 . S
C1567 C1566 1.363 . S
C1567 C1570 1.363 . S
N1568 C1570 1.356 . S
N1568 H1580 0.984 . S
N1568 H1581 0.985 . S
N1569 C1571 1.356 . S
N1569 H1574 0.984 . S
N1569 H1575 0.985 . S
C1570 C1564 1.379 . S
C1570 C1567 1.363 . S
C1570 N1568 1.356 . S
C1571 C1565 1.363 . S
C1571 C1566 1.379 . S
C1571 N1569 1.356 . S
N1572 C1564 1.356 . S
N1572 H1578 0.984 . S
N1572 H1579 0.984 . S
N1573 C1566 1.356 . S
N1573 H1576 0.984 . S
N1573 H1577 0.985 . S
H1574 N1569 0.984 . S
H1575 N1569 0.985 . S
H1576 N1573 0.984 . S
H1577 N1573 0.985 . S
H1578 N1572 0.984 . S
H1579 N1572 0.984 . S
H1580 N1568 0.984 . S
H1581 N1568 0.985 . S
C1582 C1583 1.363 . S
C1582 C1588 1.379 . S
C1582 N1590 1.356 . S
C1583 C1582 1.363 . S
C1583 C1589 1.363 . S
C1584 C1585 1.363 . S
C1584 C1589 1.379 . S
C1584 N1591 1.356 . S
C1585 C1584 1.363 . S
C1585 C1588 1.363 . S
N1586 C1588 1.356 . S
N1586 H1598 0.984 . S
N1586 H1599 0.985 . S
N1587 C1589 1.356 . S
N1587 H1592 0.984 . S
N1587 H1593 0.985 . S
C1588 C1582 1.379 . S
C1588 C1585 1.363 . S
C1588 N1586 1.356 . S
C1589 C1583 1.363 . S
C1589 C1584 1.379 . S
C1589 N1587 1.356 . S
N1590 C1582 1.356 . S
N1590 H1596 0.984 . S
N1590 H1597 0.984 . S
N1591 C1584 1.356 . S
N1591 H1594 0.984 . S
N1591 H1595 0.985 . S
H1592 N1587 0.984 . S
H1593 N1587 0.985 . S
H1594 N1591 0.984 . S
H1595 N1591 0.985 . S
H1596 N1590 0.984 . S
H1597 N1590 0.984 . S
H1598 N1586 0.984 . S
H1599 N1586 0.985 . S
C449 C62 1.534 . S
C451 C6 1.534 . S
C467 C76 1.532 . S
C469 C20 1.532 . S
C485 C90 1.534 . S
C487 C34 1.534 . S
C503 C48 1.532 . S
C505 C104 1.532 . S
C521 C118 1.534 . S
C523 C174 1.534 . S
C539 C188 1.532 . S
C541 C132 1.532 . S
C557 C146 1.534 . S
C559 C202 1.534 . S
C575 C216 1.532 . S
C577 C160 1.532 . S
C593 C230 1.532 . S
C595 C286 1.532 . S
C611 C300 1.532 . S
C613 C244 1.532 . S
C629 C314 1.532 . S
C631 C258 1.532 . S
C647 C328 1.532 . S
C649 C272 1.532 . S
C665 C342 1.532 . S
C667 C398 1.532 . S
C683 C356 1.532 . S
C685 C412 1.532 . S
C701 C370 1.532 . S
C703 C426 1.532 . S
C719 C384 1.532 . S
C721 C440 1.532 . S
C737 C8 1.708 1_565 S
C739 C106 1.708 . S
C755 C22 1.708 . S
C757 C64 1.708 1_545 S
C773 C36 1.708 1_545 S
C775 C78 1.708 . S
C791 C92 1.708 1_565 S
C793 C50 1.708 . S
C809 C218 1.708 . S
C811 C120 1.708 1_545 S
C827 C176 1.708 1_565 S
C829 C134 1.708 . S
C845 C190 1.708 . S
C847 C148 1.708 1_565 S
C863 C162 1.708 . S
C865 C204 1.708 1_545 S
C881 C330 1.708 . S
C883 C232 1.708 . S
C899 C288 1.708 . S
C901 C246 1.708 . S
C917 C302 1.708 . S
C919 C260 1.708 . S
C935 C274 1.708 . S
C937 C316 1.708 . S
C953 C344 1.708 . S
C955 C442 1.708 . S
C971 C358 1.708 . S
C973 C400 1.708 . S
C989 C372 1.708 . S
C991 C414 1.708 . S
C1007 C428 1.708 . S
C1009 C386 1.708 . S
C1025 C9 1.452 . S
C1027 C357 1.454 . S
C1043 C23 1.452 . S
C1045 C147 1.454 . S
C1061 C37 1.452 . S
C1063 C385 1.454 . S
C1079 C119 1.454 . S
C1081 C51 1.452 . S
C1097 C441 1.454 . S
C1099 C65 1.452 . S
C1115 C79 1.452 . S
C1117 C175 1.454 . S
C1133 C93 1.452 . S
C1135 C413 1.454 . S
C1151 C107 1.452 . S
C1153 C203 1.454 . S
C1169 C245 1.454 . S
C1171 C121 1.452 . S
C1187 C35 1.454 . S
C1189 C135 1.452 . S
C1205 C273 1.454 . S
C1207 C149 1.452 . S
C1223 C163 1.452 . S
C1225 C7 1.454 . S
C1241 C329 1.454 . S
C1243 C177 1.452 . S
C1259 C63 1.454 . S
C1261 C191 1.452 . S
C1277 C301 1.454 . S
C1279 C205 1.452 . S
C1295 C91 1.454 . S
C1297 C219 1.452 . S
C1313 C133 1.454 . S
C1315 C233 1.452 . S
C1331 C247 1.452 . S
C1333 C371 1.454 . S
C1349 C261 1.452 . S
C1351 C161 1.454 . S
C1367 C275 1.452 . S
C1369 C343 1.454 . S
C1385 C289 1.452 . S
C1387 C217 1.454 . S
C1403 C399 1.454 . S
C1405 C303 1.452 . S
C1421 C317 1.452 . S
C1423 C189 1.454 . S
C1439 C331 1.452 . S
C1441 C427 1.454 . S
C1457 C345 1.452 . S
C1459 C21 1.454 . S
C1475 C359 1.452 . S
C1477 C259 1.454 . S
C1493 C49 1.454 . S
C1495 C373 1.452 . S
C1511 C231 1.454 . S
C1513 C387 1.452 . S
C1529 C401 1.452 . S
C1531 C105 1.454 . S
C1547 C415 1.452 . S
C1549 C287 1.454 . S
C1565 C77 1.454 . S
C1567 C429 1.452 . S
C1583 C315 1.454 . S
C1585 C443 1.452 . S
