# Generated by pormake.
# Topology lvt, (4)-cn, num edge types: 1
# Building blocks:
#     Node 0, Type 0, BuildingBlock: NAWXER_clean_sbu_0, # of connection points: 4
#     Node 1, Type 0, BuildingBlock: NAWXER_clean_sbu_0, # of connection points: 4
#     Node 2, Type 0, BuildingBlock: NAWXER_clean_sbu_0, # of connection points: 4
#     Node 3, Type 0, BuildingBlock: NAWXER_clean_sbu_0, # of connection points: 4
#     Node 4, Type 0, BuildingBlock: NAWXER_clean_sbu_0, # of connection points: 4
#     Node 5, Type 0, BuildingBlock: NAWXER_clean_sbu_0, # of connection points: 4
#     Node 6, Type 0, BuildingBlock: NAWXER_clean_sbu_0, # of connection points: 4
#     Node 7, Type 0, BuildingBlock: NAWXER_clean_sbu_0, # of connection points: 4
#     Edge 8, Type (0, 0), BuildingBlock: XIVTED_clean_linker_0, # of connection points: 2
#     Edge 9, Type (0, 0), BuildingBlock: XIVTED_clean_linker_0, # of connection points: 2
#     Edge 10, Type (0, 0), BuildingBlock: XIVTED_clean_linker_0, # of connection points: 2
#     Edge 11, Type (0, 0), BuildingBlock: XIVTED_clean_linker_0, # of connection points: 2
#     Edge 12, Type (0, 0), BuildingBlock: XIVTED_clean_linker_0, # of connection points: 2
#     Edge 13, Type (0, 0), BuildingBlock: XIVTED_clean_linker_0, # of connection points: 2
#     Edge 14, Type (0, 0), BuildingBlock: XIVTED_clean_linker_0, # of connection points: 2
#     Edge 15, Type (0, 0), BuildingBlock: XIVTED_clean_linker_0, # of connection points: 2
#     Edge 16, Type (0, 0), BuildingBlock: XIVTED_clean_linker_0, # of connection points: 2
#     Edge 17, Type (0, 0), BuildingBlock: XIVTED_clean_linker_0, # of connection points: 2
#     Edge 18, Type (0, 0), BuildingBlock: XIVTED_clean_linker_0, # of connection points: 2
#     Edge 19, Type (0, 0), BuildingBlock: XIVTED_clean_linker_0, # of connection points: 2
#     Edge 20, Type (0, 0), BuildingBlock: XIVTED_clean_linker_0, # of connection points: 2
#     Edge 21, Type (0, 0), BuildingBlock: XIVTED_clean_linker_0, # of connection points: 2
#     Edge 22, Type (0, 0), BuildingBlock: XIVTED_clean_linker_0, # of connection points: 2
#     Edge 23, Type (0, 0), BuildingBlock: XIVTED_clean_linker_0, # of connection points: 2
# Relax obj value: 0.000
# Max RMSD: 0.000
# Mean RMSD: 0.000
data_MOF--net-lvt--node1-NAWXER_clean_sbu_0--edge1-XIVTED_clean_linker_0
_symmetry_space_group_name_H-M    P1
_symmetry_Int_Tables_number       1
_symmetry_cell_setting            triclinic
loop_
_symmetry_equiv_pos_as_xyz
'x, y, z'
_cell_length_a     39.010939
_cell_length_b     38.61307
_cell_length_c     21.693757
_cell_angle_alpha  89.757449
_cell_angle_beta   90.147782
_cell_angle_gamma 89.947822
loop_
_atom_site_label
_atom_site_type_symbol
_atom_site_fract_x
_atom_site_fract_y
_atom_site_fract_z
_atom_type_partial_charge
C0 C 0.9417 0.99154 0.59461 0.0
C1 C 0.0284 0.06205 0.49039 0.0
O2 O 0.94934 0.98048 0.54061 0.0
Zn3 Zn 0.9841 0.9934 0.46687 0.0
O4 O 0.95606 0.01867 0.6154 0.0
Zn5 Zn 0.98485 0.0276 0.5443 0.0
O6 O 0.94925 0.04103 0.47198 0.0
O7 O 0.95439 1.00287 0.3968 0.0
O8 O 0.01607 0.06694 0.54388 0.0
O9 O 0.0186 0.03587 0.45897 0.0
O10 O 0.0148 0.95352 0.46629 0.0
O11 O 0.01878 0.98457 0.55107 0.0
C12 C 0.94067 0.03016 0.41826 0.0
C13 C 0.02783 0.95822 0.51942 0.0
C14 C 0.20797 0.80426 0.70469 0.0
C15 C 0.29422 0.73242 0.80926 0.0
O16 O 0.23443 0.79805 0.67167 0.0
Zn17 Zn 0.28211 0.77095 0.67823 0.0
O18 O 0.20656 0.79261 0.7596 0.0
Zn19 Zn 0.25039 0.76856 0.75888 0.0
O20 O 0.28565 0.81066 0.75609 0.0
O21 O 0.31546 0.8084 0.66996 0.0
O22 O 0.2656 0.74246 0.83075 0.0
O23 O 0.30264 0.74107 0.75408 0.0
O24 O 0.2756 0.73737 0.61217 0.0
O25 O 0.24123 0.72926 0.69182 0.0
C26 C 0.30877 0.82331 0.72073 0.0
C27 C 0.25169 0.72041 0.63819 0.0
C28 C 0.4612 0.9975 0.91464 0.0
C29 C 0.5482 0.06495 0.0246 0.0
O30 O 0.47563 0.02491 0.89475 0.0
Zn31 Zn 0.50613 0.03073 0.96508 0.0
O32 O 0.47032 0.9844 0.96659 0.0
Zn33 Zn 0.50675 0.99386 0.03913 0.0
O34 O 0.47686 0.99937 0.1102 0.0
O35 O 0.47034 0.03978 0.03843 0.0
O36 O 0.5398 0.03704 0.05284 0.0
O37 O 0.53581 0.07103 0.97135 0.0
O38 O 0.53968 0.98804 0.95063 0.0
O39 O 0.53697 0.95389 0.03203 0.0
C40 C 0.46191 0.02661 0.0906 0.0
C41 C 0.54878 0.96023 0.97856 0.0
C42 C 0.30899 0.19979 0.2862 0.0
C43 C 0.24882 0.29997 0.37218 0.0
O44 O 0.28526 0.21193 0.2514 0.0
Zn45 Zn 0.24885 0.25283 0.24968 0.0
O46 O 0.31555 0.21465 0.3371 0.0
Zn47 Zn 0.28064 0.25094 0.33067 0.0
O48 O 0.23384 0.22251 0.33636 0.0
O49 O 0.20568 0.22757 0.2484 0.0
O50 O 0.27307 0.28326 0.39809 0.0
O51 O 0.23862 0.29144 0.31808 0.0
O52 O 0.26325 0.27999 0.17851 0.0
O53 O 0.299 0.28374 0.25726 0.0
C54 C 0.20751 0.21575 0.30317 0.0
C55 C 0.29045 0.29239 0.20208 0.0
C56 C 0.73488 0.31927 0.16295 0.0
C57 C 0.8012 0.21443 0.21851 0.0
O58 O 0.75433 0.30323 0.12532 0.0
Zn59 Zn 0.77061 0.26769 0.18402 0.0
O60 O 0.73189 0.30842 0.2184 0.0
Zn61 Zn 0.74908 0.26884 0.27821 0.0
O62 O 0.77434 0.29618 0.33977 0.0
O63 O 0.7979 0.29847 0.24745 0.0
O64 O 0.78246 0.22761 0.26055 0.0
O65 O 0.8032 0.2294 0.16613 0.0
O66 O 0.72416 0.24087 0.19615 0.0
O67 O 0.70599 0.24309 0.29254 0.0
C68 C 0.79755 0.30784 0.30392 0.0
C69 C 0.70191 0.23307 0.23701 0.0
C70 C 0.79714 0.71583 0.70097 0.0
C71 C 0.70136 0.78987 0.76973 0.0
O72 O 0.77384 0.72771 0.66528 0.0
Zn73 Zn 0.74854 0.75454 0.72759 0.0
O74 O 0.7975 0.72479 0.75764 0.0
Zn75 Zn 0.77028 0.75479 0.82188 0.0
O76 O 0.75458 0.71837 0.87914 0.0
O77 O 0.73153 0.71443 0.78621 0.0
O78 O 0.72364 0.78167 0.81053 0.0
O79 O 0.70542 0.7804 0.71392 0.0
O80 O 0.78176 0.79568 0.74668 0.0
O81 O 0.80283 0.7929 0.84102 0.0
C82 C 0.73485 0.70282 0.84118 0.0
C83 C 0.80057 0.80844 0.78917 0.0
C84 C 0.45615 0.57 0.01998 0.0
C85 C 0.53862 0.4788 0.08139 0.0
O86 O 0.46713 0.56586 0.07494 0.0
Zn87 Zn 0.49552 0.52443 0.05921 0.0
O88 O 0.4647 0.5485 0.97802 0.0
Zn89 Zn 0.49394 0.50315 0.96443 0.0
O90 O 0.45901 0.46667 0.94917 0.0
O91 O 0.45852 0.48601 0.0446 0.0
O92 O 0.52726 0.47772 0.02614 0.0
O93 O 0.52713 0.50169 0.11836 0.0
O94 O 0.53248 0.54396 0.99802 0.0
O95 O 0.5288 0.52061 0.90553 0.0
C96 C 0.44641 0.46585 1.00336 0.0
C97 C 0.54372 0.54117 0.94302 0.0
C98 C 0.97895 0.47752 0.43485 0.0
C99 C 0.06957 0.56127 0.48936 0.0
O100 O 0.99306 0.49871 0.39752 0.0
Zn101 Zn 0.02374 0.52128 0.45684 0.0
O102 O 0.98852 0.47689 0.4913 0.0
Zn103 Zn 0.02322 0.5017 0.5517 0.0
O104 O 0.99189 0.52407 0.60968 0.0
O105 O 0.9883 0.54614 0.51587 0.0
O106 O 0.05867 0.54181 0.533 0.0
O107 O 0.05588 0.55913 0.43605 0.0
O108 O 0.05935 0.48145 0.4773 0.0
O109 O 0.05518 0.46388 0.57395 0.0
C110 C 0.97817 0.54538 0.57192 0.0
C111 C 0.06976 0.46203 0.52151 0.0
H112 H 0.04621 0.06736 0.36942 0.0
H113 H 0.19654 0.20248 0.42482 0.0
H114 H 0.06694 0.11243 0.54742 0.0
H115 H 0.15456 0.18202 0.24431 0.0
H116 H 0.15151 0.16713 0.47062 0.0
H117 H 0.08791 0.10653 0.32312 0.0
C118 C 0.05957 0.0855 0.39889 0.0
C119 C 0.05322 0.08647 0.46259 0.0
C120 C 0.15201 0.17048 0.42104 0.0
C121 C 0.10115 0.1314 0.40955 0.0
C122 C 0.17783 0.19051 0.3947 0.0
C123 C 0.17946 0.19503 0.33047 0.0
C124 C 0.12779 0.15437 0.38296 0.0
C125 C 0.15429 0.17919 0.29397 0.0
C126 C 0.08325 0.10799 0.37224 0.0
C127 C 0.07107 0.11077 0.4982 0.0
N128 N 0.12963 0.15928 0.32072 0.0
N129 N 0.09447 0.1321 0.47124 0.0
H130 H 0.04604 0.95217 0.64015 0.0
H131 H 0.19621 0.81715 0.58296 0.0
H132 H 0.06575 0.90768 0.46148 0.0
H133 H 0.15482 0.83727 0.76366 0.0
H134 H 0.15066 0.85226 0.53739 0.0
H135 H 0.08774 0.91258 0.68573 0.0
C136 C 0.05917 0.93406 0.61038 0.0
C137 C 0.05255 0.9334 0.5467 0.0
C138 C 0.1514 0.84886 0.58696 0.0
C139 C 0.1005 0.88796 0.59895 0.0
C140 C 0.1775 0.82896 0.61314 0.0
C141 C 0.17946 0.82446 0.67737 0.0
C142 C 0.12726 0.86486 0.62521 0.0
C143 C 0.1543 0.84009 0.714 0.0
C144 C 0.08286 0.91132 0.63663 0.0
C145 C 0.0701 0.9091 0.5107 0.0
N146 N 0.12939 0.85989 0.68741 0.0
N147 N 0.09354 0.88752 0.53727 0.0
H148 H 0.45728 0.98841 0.78894 0.0
H149 H 0.29528 0.86281 0.82116 0.0
H150 H 0.40557 0.9644 0.95925 0.0
H151 H 0.36523 0.85513 0.66782 0.0
H152 H 0.32864 0.91063 0.86154 0.0
H153 H 0.41713 0.94981 0.73413 0.0
C154 C 0.43704 0.97562 0.81443 0.0
C155 C 0.43467 0.97939 0.87861 0.0
C156 C 0.33669 0.89866 0.81888 0.0
C157 C 0.38908 0.93568 0.81681 0.0
C158 C 0.31762 0.87126 0.79565 0.0
C159 C 0.32773 0.85446 0.74138 0.0
C160 C 0.36628 0.90963 0.78793 0.0
C161 C 0.35668 0.86711 0.7101 0.0
C162 C 0.41443 0.95346 0.78335 0.0
C163 C 0.40837 0.96201 0.90979 0.0
N164 N 0.3752 0.89384 0.73414 0.0
N165 N 0.38669 0.94094 0.87866 0.0
H166 H 0.29561 0.16028 0.18571 0.0
H167 H 0.45938 0.03645 0.21624 0.0
H168 H 0.36645 0.16887 0.33818 0.0
H169 H 0.40521 0.05855 0.0471 0.0
H170 H 0.41941 0.07499 0.27142 0.0
H171 H 0.32923 0.11277 0.14512 0.0
C172 C 0.31823 0.15213 0.21095 0.0
C173 C 0.32847 0.16907 0.26508 0.0
C174 C 0.41613 0.07093 0.2224 0.0
C175 C 0.36735 0.11422 0.21826 0.0
C176 C 0.43864 0.04879 0.19112 0.0
C177 C 0.4355 0.0445 0.12713 0.0
C178 C 0.39015 0.08819 0.18932 0.0
C179 C 0.40859 0.06134 0.0964 0.0
C180 C 0.33745 0.12488 0.1876 0.0
C181 C 0.3578 0.15677 0.29601 0.0
N182 N 0.38705 0.08241 0.12771 0.0
N183 N 0.37646 0.13019 0.27186 0.0
H184 H 0.94448 0.97888 0.71944 0.0
H185 H 0.77948 0.85733 0.70875 0.0
H186 H 0.88557 0.9565 0.556 0.0
H187 H 0.86163 0.83504 0.83653 0.0
H188 H 0.81139 0.90665 0.66991 0.0
H189 H 0.90826 0.93789 0.77796 0.0
C190 C 0.92351 0.9659 0.69628 0.0
C191 C 0.91783 0.97105 0.63288 0.0
C192 C 0.82242 0.89123 0.70681 0.0
C193 C 0.8766 0.92479 0.69912 0.0
C194 C 0.80422 0.86301 0.72917 0.0
C195 C 0.81823 0.84152 0.77516 0.0
C196 C 0.85508 0.89838 0.73032 0.0
C197 C 0.85004 0.85079 0.80073 0.0
C198 C 0.90317 0.94239 0.72948 0.0
C199 C 0.8908 0.95325 0.60473 0.0
N200 N 0.86774 0.87843 0.77734 0.0
N201 N 0.87118 0.93107 0.63803 0.0
H202 H 0.88536 0.06525 0.45963 0.0
H203 H 0.86102 0.18653 0.1688 0.0
H204 H 0.94182 0.0437 0.29359 0.0
H205 H 0.78219 0.16747 0.30397 0.0
H206 H 0.89315 0.13629 0.21048 0.0
H207 H 0.84938 0.1057 0.40216 0.0
C208 C 0.88986 0.06878 0.41073 0.0
C209 C 0.91637 0.051 0.3812 0.0
C210 C 0.86854 0.14299 0.23008 0.0
C211 C 0.8758 0.09806 0.31503 0.0
C212 C 0.85023 0.17153 0.2063 0.0
C213 C 0.81924 0.18163 0.23374 0.0
C214 C 0.85565 0.12489 0.28156 0.0
C215 C 0.80637 0.16124 0.2822 0.0
C216 C 0.86933 0.09187 0.37783 0.0
C217 C 0.92128 0.05668 0.31775 0.0
N218 N 0.82475 0.1343 0.30489 0.0
N219 N 0.90148 0.0802 0.28676 0.0
H220 H 0.67088 0.17712 0.29368 0.0
H221 H 0.56869 0.12907 0.98349 0.0
H222 H 0.66695 0.24151 0.13101 0.0
H223 H 0.57593 0.06034 0.14048 0.0
H224 H 0.60108 0.17252 0.04081 0.0
H225 H 0.63074 0.13659 0.24386 0.0
C226 C 0.66082 0.18316 0.24831 0.0
C227 C 0.67219 0.21255 0.21627 0.0
C228 C 0.5956 0.14791 0.06278 0.0
C229 C 0.62722 0.16632 0.15863 0.0
C230 C 0.57726 0.123 0.02982 0.0
C231 C 0.56973 0.09087 0.0569 0.0
C232 C 0.60655 0.14075 0.12339 0.0
C233 C 0.58129 0.08466 0.11748 0.0
C234 C 0.6383 0.15989 0.21954 0.0
C235 C 0.6589 0.21897 0.15711 0.0
N236 N 0.59912 0.10931 0.14862 0.0
N237 N 0.6374 0.19599 0.13011 0.0
H238 H 0.57643 0.96611 0.86309 0.0
H239 H 0.6653 0.77971 0.87373 0.0
H240 H 0.56967 0.89567 0.01765 0.0
H241 H 0.67178 0.84758 0.71599 0.0
H242 H 0.62596 0.82008 0.92265 0.0
H243 H 0.60864 0.92248 0.80619 0.0
C244 C 0.58187 0.94154 0.88533 0.0
C245 C 0.57042 0.93468 0.9456 0.0
C246 C 0.63549 0.8261 0.87701 0.0
C247 C 0.60707 0.88435 0.87999 0.0
C248 C 0.65776 0.80291 0.84883 0.0
C249 C 0.67171 0.81036 0.79073 0.0
C250 C 0.62735 0.8574 0.84738 0.0
C251 C 0.66128 0.84077 0.76056 0.0
C252 C 0.60011 0.91655 0.8525 0.0
C253 C 0.57811 0.90226 0.97158 0.0
N254 N 0.64001 0.86349 0.78965 0.0
N255 N 0.59594 0.87837 0.93866 0.0
H256 H 0.58356 0.57791 0.0218 0.0
H257 H 0.70766 0.65464 0.7646 0.0
H258 H 0.57593 0.55 0.82962 0.0
H259 H 0.71244 0.68291 0.95664 0.0
H260 H 0.66404 0.61161 0.78881 0.0
H261 H 0.63397 0.61197 0.99937 0.0
C262 C 0.5924 0.57891 0.97454 0.0
C263 C 0.575 0.5612 0.92727 0.0
C264 C 0.67483 0.62689 0.82583 0.0
C265 C 0.63359 0.60063 0.90144 0.0
C266 C 0.69984 0.65147 0.81218 0.0
C267 C 0.71348 0.67273 0.8587 0.0
C268 C 0.6631 0.62352 0.88649 0.0
C269 C 0.70265 0.66714 0.91941 0.0
C270 C 0.62148 0.59841 0.96195 0.0
C271 C 0.5883 0.56335 0.86738 0.0
N272 N 0.67777 0.64333 0.93144 0.0
N273 N 0.61673 0.58295 0.85607 0.0
H274 H 0.7175 0.3745 0.23264 0.0
H275 H 0.55865 0.42198 0.01786 0.0
H276 H 0.70064 0.32966 0.05349 0.0
H277 H 0.58472 0.48185 0.17893 0.0
H278 H 0.60995 0.38743 0.03266 0.0
H279 H 0.67045 0.415 0.2138 0.0
C280 C 0.70433 0.37376 0.18862 0.0
C281 C 0.71292 0.3487 0.14446 0.0
C282 C 0.60459 0.40806 0.06491 0.0
C283 C 0.65836 0.39435 0.1234 0.0
C284 C 0.57505 0.42776 0.05685 0.0
C285 C 0.56727 0.45507 0.09721 0.0
C286 C 0.62675 0.41531 0.11403 0.0
C287 C 0.58954 0.46098 0.14694 0.0
C288 C 0.67733 0.39675 0.17813 0.0
C289 C 0.69504 0.34876 0.08845 0.0
N290 N 0.61836 0.44126 0.15392 0.0
N291 N 0.66823 0.3709 0.07988 0.0
H292 H 0.84287 0.34288 0.23186 0.0
H293 H 0.93815 0.43806 0.50884 0.0
H294 H 0.81177 0.33146 0.42176 0.0
H295 H 0.95608 0.46255 0.31725 0.0
H296 H 0.89331 0.39778 0.47832 0.0
H297 H 0.88563 0.38497 0.26299 0.0
C298 C 0.84503 0.34912 0.28035 0.0
C299 C 0.82362 0.33334 0.32436 0.0
C300 C 0.90693 0.41199 0.44291 0.0
C301 C 0.87301 0.38202 0.36028 0.0
C302 C 0.9327 0.435 0.46018 0.0
C303 C 0.95116 0.4537 0.41544 0.0
C304 C 0.89953 0.40727 0.38029 0.0
C305 C 0.94262 0.44871 0.35329 0.0
C306 C 0.86949 0.37338 0.29797 0.0
C307 C 0.82769 0.34286 0.38629 0.0
N308 N 0.91754 0.42583 0.33755 0.0
N309 N 0.85203 0.3665 0.40246 0.0
H310 H 0.84243 0.68047 0.77295 0.0
H311 H 0.93797 0.58534 0.49699 0.0
H312 H 0.81133 0.69255 0.58285 0.0
H313 H 0.95456 0.56005 0.68881 0.0
H314 H 0.89314 0.62591 0.52672 0.0
H315 H 0.88497 0.63824 0.74194 0.0
C316 C 0.84455 0.67436 0.72442 0.0
C317 C 0.82319 0.69036 0.68034 0.0
C318 C 0.90647 0.61144 0.56233 0.0
C319 C 0.87237 0.64146 0.64453 0.0
C320 C 0.93222 0.58828 0.54551 0.0
C321 C 0.9503 0.56929 0.59059 0.0
C322 C 0.89876 0.61601 0.6248 0.0
C323 C 0.94141 0.57411 0.65254 0.0
C324 C 0.86889 0.65 0.70686 0.0
C325 C 0.82723 0.68098 0.61836 0.0
N326 N 0.91639 0.59714 0.66781 0.0
N327 N 0.85147 0.65721 0.60223 0.0
H328 H 0.42017 0.40798 0.94241 0.0
H329 H 0.33649 0.33748 0.25019 0.0
H330 H 0.41016 0.46762 0.1094 0.0
H331 H 0.29375 0.30471 0.07627 0.0
H332 H 0.3718 0.37943 0.19585 0.0
H333 H 0.37982 0.36493 0.98608 0.0
C334 C 0.40929 0.41228 0.9876 0.0
C335 C 0.41905 0.44126 0.02254 0.0
C336 C 0.35468 0.36314 0.1694 0.0
C337 C 0.37378 0.39224 0.07261 0.0
C338 C 0.33458 0.33901 0.20042 0.0
C339 C 0.31197 0.3176 0.16783 0.0
C340 C 0.35276 0.36579 0.10492 0.0
C341 C 0.31068 0.32093 0.10319 0.0
C342 C 0.38638 0.38774 0.01243 0.0
C343 C 0.40406 0.44551 0.0809 0.0
N344 N 0.33101 0.3445 0.0736 0.0
N345 N 0.38269 0.42119 0.10415 0.0
H346 H 0.28474 0.7045 0.92576 0.0
H347 H 0.46777 0.61045 0.92154 0.0
H348 H 0.35916 0.71265 0.77952 0.0
H349 H 0.39718 0.59708 0.07218 0.0
H350 H 0.42956 0.65314 0.87573 0.0
H351 H 0.32582 0.66925 0.98531 0.0
C352 C 0.30966 0.699 0.90621 0.0
C353 C 0.31835 0.71141 0.84721 0.0
C354 C 0.42233 0.64131 0.91913 0.0
C355 C 0.36545 0.67142 0.91526 0.0
C356 C 0.4443 0.61703 0.94548 0.0
C357 C 0.43558 0.60029 1.00065 0.0
C358 C 0.39083 0.6487 0.94737 0.0
C359 C 0.40489 0.6097 0.02979 0.0
C360 C 0.3331 0.67895 0.94031 0.0
C361 C 0.35107 0.70354 0.82443 0.0
N362 N 0.38328 0.63304 1.00231 0.0
N363 N 0.37321 0.6841 0.85831 0.0
H364 H 0.231 0.66015 0.68866 0.0
H365 H 0.10083 0.61166 0.41584 0.0
H366 H 0.2292 0.71751 0.51788 0.0
H367 H 0.10726 0.56176 0.59411 0.0
H368 H 0.15084 0.64757 0.44442 0.0
H369 H 0.1903 0.61921 0.64578 0.0
C370 C 0.22242 0.66366 0.64148 0.0
C371 C 0.23342 0.69211 0.60673 0.0
C372 C 0.14119 0.62856 0.47684 0.0
C373 C 0.1855 0.64598 0.5575 0.0
C374 C 0.11264 0.60821 0.46067 0.0
C375 C 0.09947 0.58387 0.50276 0.0
C376 C 0.1566 0.62418 0.53517 0.0
C377 C 0.11599 0.58032 0.56007 0.0
C378 C 0.19892 0.64043 0.61698 0.0
C379 C 0.22146 0.69561 0.54586 0.0
N380 N 0.1434 0.60015 0.57433 0.0
N381 N 0.1976 0.67307 0.52332 0.0
H382 H 0.2284 0.36058 0.32245 0.0
H383 H 0.0951 0.40591 0.5892 0.0
H384 H 0.22596 0.30221 0.49209 0.0
H385 H 0.11421 0.46803 0.42692 0.0
H386 H 0.14432 0.36889 0.56088 0.0
H387 H 0.18879 0.40226 0.36629 0.0
C388 C 0.21988 0.35697 0.36956 0.0
C389 C 0.23046 0.32811 0.4038 0.0
C390 C 0.13771 0.39085 0.53201 0.0
C391 C 0.18392 0.3752 0.45422 0.0
C392 C 0.10965 0.41188 0.54807 0.0
C393 C 0.10005 0.43974 0.50984 0.0
C394 C 0.15614 0.39803 0.47767 0.0
C395 C 0.11999 0.44649 0.45733 0.0
C396 C 0.19709 0.38068 0.39467 0.0
C397 C 0.21856 0.32445 0.46456 0.0
N398 N 0.14674 0.4258 0.44286 0.0
N399 N 0.19539 0.34748 0.48768 0.0
loop_
_geom_bond_atom_site_label_1
_geom_bond_atom_site_label_2
_geom_bond_distance
_geom_bond_site_symmetry_2
_ccdc_geom_bond_type
C0 O2 1.247 . S
C0 O4 1.258 . S
C1 O8 1.247 . S
C1 O9 1.258 . S
O2 C0 1.247 . S
O2 Zn3 2.030 1_655 S
Zn3 O2 2.030 1_455 S
Zn3 O7 2.037 1_465 S
Zn3 O9 2.033 1_565 S
Zn3 O10 2.026 . S
O4 C0 1.258 . S
O4 Zn5 2.033 1_665 S
Zn5 O4 2.033 1_445 S
Zn5 O6 2.026 1_455 S
Zn5 O8 2.030 . S
Zn5 O11 2.037 1_545 S
O6 Zn5 2.026 1_655 S
O6 C12 1.247 . S
O7 Zn3 2.037 1_645 S
O7 C12 1.258 . S
O8 C1 1.247 . S
O8 Zn5 2.030 . S
O9 C1 1.258 . S
O9 Zn3 2.033 1_545 S
O10 Zn3 2.026 . S
O10 C13 1.247 . S
O11 Zn5 2.037 1_565 S
O11 C13 1.258 . S
C12 O6 1.247 . S
C12 O7 1.258 . S
C13 O10 1.247 . S
C13 O11 1.258 . S
C14 O16 1.247 . S
C14 O18 1.258 . S
C15 O22 1.247 . S
C15 O23 1.258 . S
O16 C14 1.247 . S
O16 Zn17 2.028 . S
Zn17 O16 2.028 . S
Zn17 O21 2.035 . S
Zn17 O23 2.035 . S
Zn17 O24 2.028 . S
O18 C14 1.258 . S
O18 Zn19 2.035 . S
Zn19 O18 2.035 . S
Zn19 O20 2.028 . S
Zn19 O22 2.028 . S
Zn19 O25 2.035 . S
O20 Zn19 2.028 . S
O20 C26 1.247 . S
O21 Zn17 2.035 . S
O21 C26 1.258 . S
O22 C15 1.247 . S
O22 Zn19 2.028 . S
O23 C15 1.258 . S
O23 Zn17 2.035 . S
O24 Zn17 2.028 . S
O24 C27 1.247 . S
O25 Zn19 2.035 . S
O25 C27 1.258 . S
C26 O20 1.247 . S
C26 O21 1.258 . S
C27 O24 1.247 . S
C27 O25 1.258 . S
C28 O30 1.247 . S
C28 O32 1.258 1_556 S
C29 O36 1.247 . S
C29 O37 1.258 1_554 S
O30 C28 1.247 . S
O30 Zn31 2.028 1_565 S
Zn31 O30 2.028 1_545 S
Zn31 O35 2.035 . S
Zn31 O37 2.035 . S
Zn31 O38 2.028 1_545 S
O32 C28 1.258 1_554 S
O32 Zn33 2.035 . S
Zn33 O32 2.035 . S
Zn33 O34 2.028 1_565 S
Zn33 O36 2.028 1_565 S
Zn33 O39 2.035 . S
O34 Zn33 2.028 1_545 S
O34 C40 1.247 . S
O35 Zn31 2.035 . S
O35 C40 1.258 1_556 S
O36 C29 1.247 . S
O36 Zn33 2.028 1_545 S
O37 C29 1.258 1_556 S
O37 Zn31 2.035 . S
O38 Zn31 2.028 1_565 S
O38 C41 1.247 . S
O39 Zn33 2.035 . S
O39 C41 1.258 1_554 S
C40 O34 1.247 . S
C40 O35 1.258 1_554 S
C41 O38 1.247 . S
C41 O39 1.258 1_556 S
C42 O44 1.247 . S
C42 O46 1.258 . S
C43 O50 1.247 . S
C43 O51 1.258 . S
O44 C42 1.247 . S
O44 Zn45 2.028 . S
Zn45 O44 2.028 . S
Zn45 O49 2.035 . S
Zn45 O51 2.035 . S
Zn45 O52 2.028 . S
O46 C42 1.258 . S
O46 Zn47 2.035 . S
Zn47 O46 2.035 . S
Zn47 O48 2.028 . S
Zn47 O50 2.028 . S
Zn47 O53 2.035 . S
O48 Zn47 2.028 . S
O48 C54 1.247 . S
O49 Zn45 2.035 . S
O49 C54 1.258 . S
O50 C43 1.247 . S
O50 Zn47 2.028 . S
O51 C43 1.258 . S
O51 Zn45 2.035 . S
O52 Zn45 2.028 . S
O52 C55 1.247 . S
O53 Zn47 2.035 . S
O53 C55 1.258 . S
C54 O48 1.247 . S
C54 O49 1.258 . S
C55 O52 1.247 . S
C55 O53 1.258 . S
C56 O58 1.247 . S
C56 O60 1.258 . S
C57 O64 1.247 . S
C57 O65 1.258 . S
O58 C56 1.247 . S
O58 Zn59 2.028 . S
Zn59 O58 2.028 . S
Zn59 O63 2.035 . S
Zn59 O65 2.035 . S
Zn59 O66 2.028 . S
O60 C56 1.258 . S
O60 Zn61 2.035 . S
Zn61 O60 2.035 . S
Zn61 O62 2.028 . S
Zn61 O64 2.028 . S
Zn61 O67 2.035 . S
O62 Zn61 2.028 . S
O62 C68 1.247 . S
O63 Zn59 2.035 . S
O63 C68 1.258 . S
O64 C57 1.247 . S
O64 Zn61 2.028 . S
O65 C57 1.258 . S
O65 Zn59 2.035 . S
O66 Zn59 2.028 . S
O66 C69 1.247 . S
O67 Zn61 2.035 . S
O67 C69 1.258 . S
C68 O62 1.247 . S
C68 O63 1.258 . S
C69 O66 1.247 . S
C69 O67 1.258 . S
C70 O72 1.247 . S
C70 O74 1.258 . S
C71 O78 1.247 . S
C71 O79 1.258 . S
O72 C70 1.247 . S
O72 Zn73 2.028 . S
Zn73 O72 2.028 . S
Zn73 O77 2.035 . S
Zn73 O79 2.035 . S
Zn73 O80 2.028 . S
O74 C70 1.258 . S
O74 Zn75 2.035 . S
Zn75 O74 2.035 . S
Zn75 O76 2.028 . S
Zn75 O78 2.028 . S
Zn75 O81 2.035 . S
O76 Zn75 2.028 . S
O76 C82 1.247 . S
O77 Zn73 2.035 . S
O77 C82 1.258 . S
O78 C71 1.247 . S
O78 Zn75 2.028 . S
O79 C71 1.258 . S
O79 Zn73 2.035 . S
O80 Zn73 2.028 . S
O80 C83 1.247 . S
O81 Zn75 2.035 . S
O81 C83 1.258 . S
C82 O76 1.247 . S
C82 O77 1.258 . S
C83 O80 1.247 . S
C83 O81 1.258 . S
C84 O86 1.247 1_556 S
C84 O88 1.258 . S
C85 O92 1.247 1_554 S
C85 O93 1.258 . S
O86 C84 1.247 1_554 S
O86 Zn87 2.028 . S
Zn87 O86 2.028 . S
Zn87 O91 2.035 . S
Zn87 O93 2.035 . S
Zn87 O94 2.028 . S
O88 C84 1.258 . S
O88 Zn89 2.035 . S
Zn89 O88 2.035 . S
Zn89 O90 2.028 . S
Zn89 O92 2.028 . S
Zn89 O95 2.035 . S
O90 Zn89 2.028 . S
O90 C96 1.247 1_556 S
O91 Zn87 2.035 . S
O91 C96 1.258 . S
O92 C85 1.247 1_556 S
O92 Zn89 2.028 . S
O93 C85 1.258 . S
O93 Zn87 2.035 . S
O94 Zn87 2.028 . S
O94 C97 1.247 1_554 S
O95 Zn89 2.035 . S
O95 C97 1.258 . S
C96 O90 1.247 1_554 S
C96 O91 1.258 . S
C97 O94 1.247 1_556 S
C97 O95 1.258 . S
C98 O100 1.247 . S
C98 O102 1.258 . S
C99 O106 1.247 . S
C99 O107 1.258 . S
O100 C98 1.247 . S
O100 Zn101 2.030 1_655 S
Zn101 O100 2.030 1_455 S
Zn101 O105 2.037 1_455 S
Zn101 O107 2.033 . S
Zn101 O108 2.026 . S
O102 C98 1.258 . S
O102 Zn103 2.033 1_655 S
Zn103 O102 2.033 1_455 S
Zn103 O104 2.026 1_455 S
Zn103 O106 2.030 . S
Zn103 O109 2.037 . S
O104 Zn103 2.026 1_655 S
O104 C110 1.247 . S
O105 Zn101 2.037 1_655 S
O105 C110 1.258 . S
O106 C99 1.247 . S
O106 Zn103 2.030 . S
O107 C99 1.258 . S
O107 Zn101 2.033 . S
O108 Zn101 2.026 . S
O108 C111 1.247 . S
O109 Zn103 2.037 . S
O109 C111 1.258 . S
C110 O104 1.247 . S
C110 O105 1.258 . S
C111 O108 1.247 . S
C111 O109 1.258 . S
H112 C118 0.930 . S
H113 C122 0.930 . S
H114 C127 0.929 . S
H115 C125 0.929 . S
H116 C120 0.929 . S
H117 C126 0.929 . S
C118 H112 0.930 . S
C118 C119 1.367 . S
C118 C126 1.378 . S
C119 C118 1.367 . S
C119 C127 1.433 . S
C120 H116 0.929 . S
C120 C122 1.378 . S
C120 C124 1.350 . S
C121 C124 1.463 . S
C121 C126 1.350 . S
C121 N129 1.427 . S
C122 H113 0.930 . S
C122 C120 1.378 . S
C122 C123 1.367 . S
C123 C122 1.367 . S
C123 C125 1.433 . S
C124 C120 1.350 . S
C124 C121 1.463 . S
C124 N128 1.427 . S
C125 H115 0.929 . S
C125 C123 1.433 . S
C125 N128 1.384 . S
C126 H117 0.929 . S
C126 C118 1.378 . S
C126 C121 1.350 . S
C127 H114 0.929 . S
C127 C119 1.433 . S
C127 N129 1.384 . S
N128 C124 1.427 . S
N128 C125 1.384 . S
N129 C121 1.427 . S
N129 C127 1.384 . S
H130 C136 0.930 . S
H131 C140 0.930 . S
H132 C145 0.929 . S
H133 C143 0.929 . S
H134 C138 0.929 . S
H135 C144 0.929 . S
C136 H130 0.930 . S
C136 C137 1.367 . S
C136 C144 1.378 . S
C137 C136 1.367 . S
C137 C145 1.433 . S
C138 H134 0.929 . S
C138 C140 1.378 . S
C138 C142 1.350 . S
C139 C142 1.463 . S
C139 C144 1.350 . S
C139 N147 1.427 . S
C140 H131 0.930 . S
C140 C138 1.378 . S
C140 C141 1.367 . S
C141 C140 1.367 . S
C141 C143 1.433 . S
C142 C138 1.350 . S
C142 C139 1.463 . S
C142 N146 1.427 . S
C143 H133 0.929 . S
C143 C141 1.433 . S
C143 N146 1.384 . S
C144 H135 0.929 . S
C144 C136 1.378 . S
C144 C139 1.350 . S
C145 H132 0.929 . S
C145 C137 1.433 . S
C145 N147 1.384 . S
N146 C142 1.427 . S
N146 C143 1.384 . S
N147 C139 1.427 . S
N147 C145 1.384 . S
H148 C154 0.930 . S
H149 C158 0.930 . S
H150 C163 0.929 . S
H151 C161 0.929 . S
H152 C156 0.929 . S
H153 C162 0.929 . S
C154 H148 0.930 . S
C154 C155 1.367 . S
C154 C162 1.378 . S
C155 C154 1.367 . S
C155 C163 1.433 . S
C156 H152 0.929 . S
C156 C158 1.378 . S
C156 C160 1.350 . S
C157 C160 1.463 . S
C157 C162 1.350 . S
C157 N165 1.427 . S
C158 H149 0.930 . S
C158 C156 1.378 . S
C158 C159 1.367 . S
C159 C158 1.367 . S
C159 C161 1.433 . S
C160 C156 1.350 . S
C160 C157 1.463 . S
C160 N164 1.427 . S
C161 H151 0.929 . S
C161 C159 1.433 . S
C161 N164 1.384 . S
C162 H153 0.929 . S
C162 C154 1.378 . S
C162 C157 1.350 . S
C163 H150 0.929 . S
C163 C155 1.433 . S
C163 N165 1.384 . S
N164 C160 1.427 . S
N164 C161 1.384 . S
N165 C157 1.427 . S
N165 C163 1.384 . S
H166 C172 0.930 . S
H167 C176 0.930 . S
H168 C181 0.929 . S
H169 C179 0.929 1_556 S
H170 C174 0.929 . S
H171 C180 0.929 . S
C172 H166 0.930 . S
C172 C173 1.367 . S
C172 C180 1.378 . S
C173 C172 1.367 . S
C173 C181 1.433 . S
C174 H170 0.929 . S
C174 C176 1.378 . S
C174 C178 1.350 . S
C175 C178 1.463 . S
C175 C180 1.350 . S
C175 N183 1.427 . S
C176 H167 0.930 . S
C176 C174 1.378 . S
C176 C177 1.367 . S
C177 C176 1.367 . S
C177 C179 1.433 . S
C178 C174 1.350 . S
C178 C175 1.463 . S
C178 N182 1.427 . S
C179 H169 0.929 1_554 S
C179 C177 1.433 . S
C179 N182 1.384 . S
C180 H171 0.929 . S
C180 C172 1.378 . S
C180 C175 1.350 . S
C181 H168 0.929 . S
C181 C173 1.433 . S
C181 N183 1.384 . S
N182 C178 1.427 . S
N182 C179 1.384 . S
N183 C175 1.427 . S
N183 C181 1.384 . S
H184 C190 0.930 . S
H185 C194 0.930 . S
H186 C199 0.929 . S
H187 C197 0.929 . S
H188 C192 0.929 . S
H189 C198 0.929 . S
C190 H184 0.930 . S
C190 C191 1.367 . S
C190 C198 1.378 . S
C191 C190 1.367 . S
C191 C199 1.433 . S
C192 H188 0.929 . S
C192 C194 1.378 . S
C192 C196 1.350 . S
C193 C196 1.463 . S
C193 C198 1.350 . S
C193 N201 1.427 . S
C194 H185 0.930 . S
C194 C192 1.378 . S
C194 C195 1.367 . S
C195 C194 1.367 . S
C195 C197 1.433 . S
C196 C192 1.350 . S
C196 C193 1.463 . S
C196 N200 1.427 . S
C197 H187 0.929 . S
C197 C195 1.433 . S
C197 N200 1.384 . S
C198 H189 0.929 . S
C198 C190 1.378 . S
C198 C193 1.350 . S
C199 H186 0.929 . S
C199 C191 1.433 . S
C199 N201 1.384 . S
N200 C196 1.427 . S
N200 C197 1.384 . S
N201 C193 1.427 . S
N201 C199 1.384 . S
H202 C208 0.930 . S
H203 C212 0.930 . S
H204 C217 0.929 . S
H205 C215 0.929 . S
H206 C210 0.929 . S
H207 C216 0.929 . S
C208 H202 0.930 . S
C208 C209 1.367 . S
C208 C216 1.378 . S
C209 C208 1.367 . S
C209 C217 1.433 . S
C210 H206 0.929 . S
C210 C212 1.378 . S
C210 C214 1.350 . S
C211 C214 1.463 . S
C211 C216 1.350 . S
C211 N219 1.427 . S
C212 H203 0.930 . S
C212 C210 1.378 . S
C212 C213 1.367 . S
C213 C212 1.367 . S
C213 C215 1.433 . S
C214 C210 1.350 . S
C214 C211 1.463 . S
C214 N218 1.427 . S
C215 H205 0.929 . S
C215 C213 1.433 . S
C215 N218 1.384 . S
C216 H207 0.929 . S
C216 C208 1.378 . S
C216 C211 1.350 . S
C217 H204 0.929 . S
C217 C209 1.433 . S
C217 N219 1.384 . S
N218 C214 1.427 . S
N218 C215 1.384 . S
N219 C211 1.427 . S
N219 C217 1.384 . S
H220 C226 0.930 . S
H221 C230 0.930 . S
H222 C235 0.929 . S
H223 C233 0.929 . S
H224 C228 0.929 . S
H225 C234 0.929 . S
C226 H220 0.930 . S
C226 C227 1.367 . S
C226 C234 1.378 . S
C227 C226 1.367 . S
C227 C235 1.433 . S
C228 H224 0.929 . S
C228 C230 1.378 . S
C228 C232 1.350 . S
C229 C232 1.463 . S
C229 C234 1.350 . S
C229 N237 1.427 . S
C230 H221 0.930 . S
C230 C228 1.378 . S
C230 C231 1.367 . S
C231 C230 1.367 . S
C231 C233 1.433 . S
C232 C228 1.350 . S
C232 C229 1.463 . S
C232 N236 1.427 . S
C233 H223 0.929 . S
C233 C231 1.433 . S
C233 N236 1.384 . S
C234 H225 0.929 . S
C234 C226 1.378 . S
C234 C229 1.350 . S
C235 H222 0.929 . S
C235 C227 1.433 . S
C235 N237 1.384 . S
N236 C232 1.427 . S
N236 C233 1.384 . S
N237 C229 1.427 . S
N237 C235 1.384 . S
H238 C244 0.930 . S
H239 C248 0.930 . S
H240 C253 0.929 . S
H241 C251 0.929 . S
H242 C246 0.929 . S
H243 C252 0.929 . S
C244 H238 0.930 . S
C244 C245 1.367 . S
C244 C252 1.378 . S
C245 C244 1.367 . S
C245 C253 1.433 . S
C246 H242 0.929 . S
C246 C248 1.378 . S
C246 C250 1.350 . S
C247 C250 1.463 . S
C247 C252 1.350 . S
C247 N255 1.427 . S
C248 H239 0.930 . S
C248 C246 1.378 . S
C248 C249 1.367 . S
C249 C248 1.367 . S
C249 C251 1.433 . S
C250 C246 1.350 . S
C250 C247 1.463 . S
C250 N254 1.427 . S
C251 H241 0.929 . S
C251 C249 1.433 . S
C251 N254 1.384 . S
C252 H243 0.929 . S
C252 C244 1.378 . S
C252 C247 1.350 . S
C253 H240 0.929 . S
C253 C245 1.433 . S
C253 N255 1.384 . S
N254 C250 1.427 . S
N254 C251 1.384 . S
N255 C247 1.427 . S
N255 C253 1.384 . S
H256 C262 0.930 . S
H257 C266 0.930 . S
H258 C271 0.929 . S
H259 C269 0.929 . S
H260 C264 0.929 . S
H261 C270 0.929 . S
C262 H256 0.930 . S
C262 C263 1.367 . S
C262 C270 1.378 . S
C263 C262 1.367 . S
C263 C271 1.433 . S
C264 H260 0.929 . S
C264 C266 1.378 . S
C264 C268 1.350 . S
C265 C268 1.463 . S
C265 C270 1.350 . S
C265 N273 1.427 . S
C266 H257 0.930 . S
C266 C264 1.378 . S
C266 C267 1.367 . S
C267 C266 1.367 . S
C267 C269 1.433 . S
C268 C264 1.350 . S
C268 C265 1.463 . S
C268 N272 1.427 . S
C269 H259 0.929 . S
C269 C267 1.433 . S
C269 N272 1.384 . S
C270 H261 0.929 . S
C270 C262 1.378 . S
C270 C265 1.350 . S
C271 H258 0.929 . S
C271 C263 1.433 . S
C271 N273 1.384 . S
N272 C268 1.427 . S
N272 C269 1.384 . S
N273 C265 1.427 . S
N273 C271 1.384 . S
H274 C280 0.930 . S
H275 C284 0.930 1_556 S
H276 C289 0.929 . S
H277 C287 0.929 . S
H278 C282 0.929 . S
H279 C288 0.929 . S
C280 H274 0.930 . S
C280 C281 1.367 . S
C280 C288 1.378 . S
C281 C280 1.367 . S
C281 C289 1.433 . S
C282 H278 0.929 . S
C282 C284 1.378 . S
C282 C286 1.350 . S
C283 C286 1.463 . S
C283 C288 1.350 . S
C283 N291 1.427 . S
C284 H275 0.930 1_554 S
C284 C282 1.378 . S
C284 C285 1.367 . S
C285 C284 1.367 . S
C285 C287 1.433 . S
C286 C282 1.350 . S
C286 C283 1.463 . S
C286 N290 1.427 . S
C287 H277 0.929 . S
C287 C285 1.433 . S
C287 N290 1.384 . S
C288 H279 0.929 . S
C288 C280 1.378 . S
C288 C283 1.350 . S
C289 H276 0.929 . S
C289 C281 1.433 . S
C289 N291 1.384 . S
N290 C286 1.427 . S
N290 C287 1.384 . S
N291 C283 1.427 . S
N291 C289 1.384 . S
H292 C298 0.930 . S
H293 C302 0.930 . S
H294 C307 0.929 . S
H295 C305 0.929 . S
H296 C300 0.929 . S
H297 C306 0.929 . S
C298 H292 0.930 . S
C298 C299 1.367 . S
C298 C306 1.378 . S
C299 C298 1.367 . S
C299 C307 1.433 . S
C300 H296 0.929 . S
C300 C302 1.378 . S
C300 C304 1.350 . S
C301 C304 1.463 . S
C301 C306 1.350 . S
C301 N309 1.427 . S
C302 H293 0.930 . S
C302 C300 1.378 . S
C302 C303 1.367 . S
C303 C302 1.367 . S
C303 C305 1.433 . S
C304 C300 1.350 . S
C304 C301 1.463 . S
C304 N308 1.427 . S
C305 H295 0.929 . S
C305 C303 1.433 . S
C305 N308 1.384 . S
C306 H297 0.929 . S
C306 C298 1.378 . S
C306 C301 1.350 . S
C307 H294 0.929 . S
C307 C299 1.433 . S
C307 N309 1.384 . S
N308 C304 1.427 . S
N308 C305 1.384 . S
N309 C301 1.427 . S
N309 C307 1.384 . S
H310 C316 0.930 . S
H311 C320 0.930 . S
H312 C325 0.929 . S
H313 C323 0.929 . S
H314 C318 0.929 . S
H315 C324 0.929 . S
C316 H310 0.930 . S
C316 C317 1.367 . S
C316 C324 1.378 . S
C317 C316 1.367 . S
C317 C325 1.433 . S
C318 H314 0.929 . S
C318 C320 1.378 . S
C318 C322 1.350 . S
C319 C322 1.463 . S
C319 C324 1.350 . S
C319 N327 1.427 . S
C320 H311 0.930 . S
C320 C318 1.378 . S
C320 C321 1.367 . S
C321 C320 1.367 . S
C321 C323 1.433 . S
C322 C318 1.350 . S
C322 C319 1.463 . S
C322 N326 1.427 . S
C323 H313 0.929 . S
C323 C321 1.433 . S
C323 N326 1.384 . S
C324 H315 0.929 . S
C324 C316 1.378 . S
C324 C319 1.350 . S
C325 H312 0.929 . S
C325 C317 1.433 . S
C325 N327 1.384 . S
N326 C322 1.427 . S
N326 C323 1.384 . S
N327 C319 1.427 . S
N327 C325 1.384 . S
H328 C334 0.930 . S
H329 C338 0.930 . S
H330 C343 0.929 . S
H331 C341 0.929 . S
H332 C336 0.929 . S
H333 C342 0.929 . S
C334 H328 0.930 . S
C334 C335 1.367 . S
C334 C342 1.378 . S
C335 C334 1.367 . S
C335 C343 1.433 . S
C336 H332 0.929 . S
C336 C338 1.378 . S
C336 C340 1.350 . S
C337 C340 1.463 . S
C337 C342 1.350 . S
C337 N345 1.427 . S
C338 H329 0.930 . S
C338 C336 1.378 . S
C338 C339 1.367 . S
C339 C338 1.367 . S
C339 C341 1.433 . S
C340 C336 1.350 . S
C340 C337 1.463 . S
C340 N344 1.427 . S
C341 H331 0.929 . S
C341 C339 1.433 . S
C341 N344 1.384 . S
C342 H333 0.929 . S
C342 C334 1.378 . S
C342 C337 1.350 . S
C343 H330 0.929 . S
C343 C335 1.433 . S
C343 N345 1.384 . S
N344 C340 1.427 . S
N344 C341 1.384 . S
N345 C337 1.427 . S
N345 C343 1.384 . S
H346 C352 0.930 . S
H347 C356 0.930 . S
H348 C361 0.929 . S
H349 C359 0.929 . S
H350 C354 0.929 . S
H351 C360 0.929 . S
C352 H346 0.930 . S
C352 C353 1.367 . S
C352 C360 1.378 . S
C353 C352 1.367 . S
C353 C361 1.433 . S
C354 H350 0.929 . S
C354 C356 1.378 . S
C354 C358 1.350 . S
C355 C358 1.463 . S
C355 C360 1.350 . S
C355 N363 1.427 . S
C356 H347 0.930 . S
C356 C354 1.378 . S
C356 C357 1.367 . S
C357 C356 1.367 . S
C357 C359 1.433 . S
C358 C354 1.350 . S
C358 C355 1.463 . S
C358 N362 1.427 . S
C359 H349 0.929 . S
C359 C357 1.433 . S
C359 N362 1.384 . S
C360 H351 0.929 . S
C360 C352 1.378 . S
C360 C355 1.350 . S
C361 H348 0.929 . S
C361 C353 1.433 . S
C361 N363 1.384 . S
N362 C358 1.427 . S
N362 C359 1.384 . S
N363 C355 1.427 . S
N363 C361 1.384 . S
H364 C370 0.930 . S
H365 C374 0.930 . S
H366 C379 0.929 . S
H367 C377 0.929 . S
H368 C372 0.929 . S
H369 C378 0.929 . S
C370 H364 0.930 . S
C370 C371 1.367 . S
C370 C378 1.378 . S
C371 C370 1.367 . S
C371 C379 1.433 . S
C372 H368 0.929 . S
C372 C374 1.378 . S
C372 C376 1.350 . S
C373 C376 1.463 . S
C373 C378 1.350 . S
C373 N381 1.427 . S
C374 H365 0.930 . S
C374 C372 1.378 . S
C374 C375 1.367 . S
C375 C374 1.367 . S
C375 C377 1.433 . S
C376 C372 1.350 . S
C376 C373 1.463 . S
C376 N380 1.427 . S
C377 H367 0.929 . S
C377 C375 1.433 . S
C377 N380 1.384 . S
C378 H369 0.929 . S
C378 C370 1.378 . S
C378 C373 1.350 . S
C379 H366 0.929 . S
C379 C371 1.433 . S
C379 N381 1.384 . S
N380 C376 1.427 . S
N380 C377 1.384 . S
N381 C373 1.427 . S
N381 C379 1.384 . S
H382 C388 0.930 . S
H383 C392 0.930 . S
H384 C397 0.929 . S
H385 C395 0.929 . S
H386 C390 0.929 . S
H387 C396 0.929 . S
C388 H382 0.930 . S
C388 C389 1.367 . S
C388 C396 1.378 . S
C389 C388 1.367 . S
C389 C397 1.433 . S
C390 H386 0.929 . S
C390 C392 1.378 . S
C390 C394 1.350 . S
C391 C394 1.463 . S
C391 C396 1.350 . S
C391 N399 1.427 . S
C392 H383 0.930 . S
C392 C390 1.378 . S
C392 C393 1.367 . S
C393 C392 1.367 . S
C393 C395 1.433 . S
C394 C390 1.350 . S
C394 C391 1.463 . S
C394 N398 1.427 . S
C395 H385 0.929 . S
C395 C393 1.433 . S
C395 N398 1.384 . S
C396 H387 0.929 . S
C396 C388 1.378 . S
C396 C391 1.350 . S
C397 H384 0.929 . S
C397 C389 1.433 . S
C397 N399 1.384 . S
N398 C394 1.427 . S
N398 C395 1.384 . S
N399 C391 1.427 . S
N399 C397 1.384 . S
C119 C1 1.499 . S
C123 C54 1.492 . S
C137 C13 1.498 . S
C141 C14 1.499 . S
C155 C28 1.499 . S
C159 C26 1.501 . S
C173 C42 1.498 . S
C177 C40 1.495 . S
C191 C0 1.499 . S
C195 C83 1.503 . S
C209 C12 1.497 . S
C213 C57 1.499 . S
C227 C69 1.497 . S
C231 C29 1.495 . S
C245 C41 1.499 . S
C249 C71 1.501 . S
C263 C97 1.497 . S
C267 C82 1.500 . S
C281 C56 1.498 . S
C285 C85 1.497 . S
C299 C68 1.498 . S
C303 C98 1.500 . S
C317 C70 1.498 . S
C321 C110 1.500 . S
C335 C96 1.499 . S
C339 C55 1.496 . S
C353 C15 1.497 . S
C357 C84 1.500 . S
C371 C27 1.497 . S
C375 C99 1.496 . S
C389 C43 1.497 . S
C393 C111 1.496 . S
