# Generated by pormake.
# Topology wjy, (5)-cn, num edge types: 1
# Building blocks:
#     Node 0, Type 0, BuildingBlock: BEQFEK_clean_sbu_0, # of connection points: 5
#     Node 1, Type 0, BuildingBlock: BEQFEK_clean_sbu_0, # of connection points: 5
#     Node 2, Type 0, BuildingBlock: BEQFEK_clean_sbu_0, # of connection points: 5
#     Node 3, Type 0, BuildingBlock: BEQFEK_clean_sbu_0, # of connection points: 5
#     Node 4, Type 0, BuildingBlock: BEQFEK_clean_sbu_0, # of connection points: 5
#     Node 5, Type 0, BuildingBlock: BEQFEK_clean_sbu_0, # of connection points: 5
#     Node 6, Type 0, BuildingBlock: BEQFEK_clean_sbu_0, # of connection points: 5
#     Node 7, Type 0, BuildingBlock: BEQFEK_clean_sbu_0, # of connection points: 5
#     Node 8, Type 0, BuildingBlock: BEQFEK_clean_sbu_0, # of connection points: 5
#     Node 9, Type 0, BuildingBlock: BEQFEK_clean_sbu_0, # of connection points: 5
#     Node 10, Type 0, BuildingBlock: BEQFEK_clean_sbu_0, # of connection points: 5
#     Node 11, Type 0, BuildingBlock: BEQFEK_clean_sbu_0, # of connection points: 5
#     Edge 12, Type (0, 0), BuildingBlock: AJUNOK_clean_linker_0, # of connection points: 2
#     Edge 13, Type (0, 0), BuildingBlock: AJUNOK_clean_linker_0, # of connection points: 2
#     Edge 14, Type (0, 0), BuildingBlock: AJUNOK_clean_linker_0, # of connection points: 2
#     Edge 15, Type (0, 0), BuildingBlock: AJUNOK_clean_linker_0, # of connection points: 2
#     Edge 16, Type (0, 0), BuildingBlock: AJUNOK_clean_linker_0, # of connection points: 2
#     Edge 17, Type (0, 0), BuildingBlock: AJUNOK_clean_linker_0, # of connection points: 2
#     Edge 18, Type (0, 0), BuildingBlock: AJUNOK_clean_linker_0, # of connection points: 2
#     Edge 19, Type (0, 0), BuildingBlock: AJUNOK_clean_linker_0, # of connection points: 2
#     Edge 20, Type (0, 0), BuildingBlock: AJUNOK_clean_linker_0, # of connection points: 2
#     Edge 21, Type (0, 0), BuildingBlock: AJUNOK_clean_linker_0, # of connection points: 2
#     Edge 22, Type (0, 0), BuildingBlock: AJUNOK_clean_linker_0, # of connection points: 2
#     Edge 23, Type (0, 0), BuildingBlock: AJUNOK_clean_linker_0, # of connection points: 2
#     Edge 24, Type (0, 0), BuildingBlock: AJUNOK_clean_linker_0, # of connection points: 2
#     Edge 25, Type (0, 0), BuildingBlock: AJUNOK_clean_linker_0, # of connection points: 2
#     Edge 26, Type (0, 0), BuildingBlock: AJUNOK_clean_linker_0, # of connection points: 2
#     Edge 27, Type (0, 0), BuildingBlock: AJUNOK_clean_linker_0, # of connection points: 2
#     Edge 28, Type (0, 0), BuildingBlock: AJUNOK_clean_linker_0, # of connection points: 2
#     Edge 29, Type (0, 0), BuildingBlock: AJUNOK_clean_linker_0, # of connection points: 2
#     Edge 30, Type (0, 0), BuildingBlock: AJUNOK_clean_linker_0, # of connection points: 2
#     Edge 31, Type (0, 0), BuildingBlock: AJUNOK_clean_linker_0, # of connection points: 2
#     Edge 32, Type (0, 0), BuildingBlock: AJUNOK_clean_linker_0, # of connection points: 2
#     Edge 33, Type (0, 0), BuildingBlock: AJUNOK_clean_linker_0, # of connection points: 2
#     Edge 34, Type (0, 0), BuildingBlock: AJUNOK_clean_linker_0, # of connection points: 2
#     Edge 35, Type (0, 0), BuildingBlock: AJUNOK_clean_linker_0, # of connection points: 2
#     Edge 36, Type (0, 0), BuildingBlock: AJUNOK_clean_linker_0, # of connection points: 2
#     Edge 37, Type (0, 0), BuildingBlock: AJUNOK_clean_linker_0, # of connection points: 2
#     Edge 38, Type (0, 0), BuildingBlock: AJUNOK_clean_linker_0, # of connection points: 2
#     Edge 39, Type (0, 0), BuildingBlock: AJUNOK_clean_linker_0, # of connection points: 2
#     Edge 40, Type (0, 0), BuildingBlock: AJUNOK_clean_linker_0, # of connection points: 2
#     Edge 41, Type (0, 0), BuildingBlock: AJUNOK_clean_linker_0, # of connection points: 2
# Relax obj value: 0.151
# Max RMSD: 0.170
# Mean RMSD: 0.170
data_MOF--net-wjy--node1-BEQFEK_clean_sbu_0--edge1-AJUNOK_clean_linker_0
_symmetry_space_group_name_H-M    P1
_symmetry_Int_Tables_number       1
_symmetry_cell_setting            triclinic
loop_
_symmetry_equiv_pos_as_xyz
'x, y, z'
_cell_length_a     54.589015
_cell_length_b     54.610912
_cell_length_c     15.044203
_cell_angle_alpha  89.9878
_cell_angle_beta   90.022324
_cell_angle_gamma 120.11339
loop_
_atom_site_label
_atom_site_type_symbol
_atom_site_fract_x
_atom_site_fract_y
_atom_site_fract_z
_atom_type_partial_charge
Co0 Co 0.46077 0.10947 0.20748 0.0
Co1 Co 0.48689 0.12203 0.01732 0.0
C2 C 0.43799 0.06427 0.07285 0.0
O3 O 0.43562 0.07198 0.15084 0.0
O4 O 0.45694 0.08152 0.01987 0.0
C5 C 0.43713 0.10756 0.39818 0.0
O6 O 0.41282 0.10601 0.3808 0.0
C7 C 0.47501 0.12347 0.83115 0.0
C8 C 0.51632 0.1385 0.76585 0.0
C9 C 0.48791 0.12879 0.74879 0.0
N10 N 0.49477 0.1298 0.89413 0.0
N11 N 0.51952 0.13901 0.85484 0.0
C12 C 0.44398 0.11039 0.8497 0.0
H13 H 0.43219 0.08975 0.81479 0.0
H14 H 0.43961 0.10743 0.92198 0.0
H15 H 0.43616 0.12425 0.82412 0.0
C16 C 0.45657 0.16101 0.16697 0.0
N17 N 0.4622 0.14041 0.1445 0.0
N18 N 0.47402 0.146 0.0652 0.0
C19 C 0.47639 0.17036 0.03503 0.0
C20 C 0.46536 0.18065 0.09836 0.0
C21 C 0.44555 0.16325 0.25569 0.0
H22 H 0.45833 0.16098 0.3089 0.0
H23 H 0.42336 0.14579 0.26251 0.0
H24 H 0.44622 0.18377 0.26387 0.0
O25 O 0.49948 0.11591 0.21548 0.0
O26 O 0.52081 0.12685 0.08451 0.0
H27 H 0.50968 0.1839 0.93868 0.0
H28 H 0.49319 0.20559 0.94207 0.0
C29 C 0.48944 0.18375 0.94773 0.0
H30 H 0.47488 0.17113 0.89338 0.0
H31 H 0.53835 0.1447 0.88851 0.0
O32 O 0.45337 0.10902 0.33566 0.0
C33 C 0.52124 0.12302 0.16806 0.0
Co34 Co 0.35397 0.4552 0.36258 0.0
Co35 Co 0.37091 0.48283 0.17347 0.0
C36 C 0.37782 0.43289 0.23005 0.0
O37 O 0.36695 0.43019 0.30717 0.0
O38 O 0.38031 0.45223 0.17736 0.0
C39 C 0.36016 0.44811 0.5426 0.0
O40 O 0.38372 0.45027 0.51218 0.0
C41 C 0.36385 0.47404 0.98316 0.0
C42 C 0.38364 0.51711 0.92702 0.0
C43 C 0.37001 0.48871 0.9039 0.0
N44 N 0.3734 0.49272 0.05055 0.0
N45 N 0.38521 0.51851 0.01664 0.0
C46 C 0.34694 0.4426 0.99456 0.0
H47 H 0.33889 0.43695 0.06357 0.0
H48 H 0.32888 0.43343 0.94728 0.0
H49 H 0.36039 0.43331 0.97894 0.0
C50 C 0.2995 0.45132 0.31232 0.0
N51 N 0.32612 0.45744 0.29343 0.0
N52 N 0.33342 0.46976 0.2151 0.0
C53 C 0.31165 0.4719 0.1816 0.0
C54 C 0.28944 0.46038 0.24219 0.0
C55 C 0.28538 0.43982 0.39986 0.0
H56 H 0.28761 0.42137 0.41847 0.0
H57 H 0.26266 0.43352 0.39835 0.0
H58 H 0.29618 0.45631 0.45155 0.0
O59 O 0.38665 0.4935 0.37813 0.0
O60 O 0.39939 0.51528 0.24772 0.0
H61 H 0.29271 0.48584 0.08113 0.0
H62 H 0.31427 0.47212 0.04002 0.0
C63 C 0.31226 0.48494 0.09347 0.0
H64 H 0.33097 0.50657 0.0902 0.0
H65 H 0.39446 0.53702 0.05449 0.0
O66 O 0.34142 0.44567 0.48745 0.0
C67 C 0.40245 0.51524 0.33191 0.0
Co68 Co 0.9065 0.35438 0.53085 0.0
Co69 Co 0.89331 0.36696 0.34027 0.0
C70 C 0.95138 0.37633 0.39648 0.0
O71 O 0.94389 0.36626 0.47463 0.0
O72 O 0.93399 0.37796 0.34399 0.0
C73 C 0.90825 0.33243 0.71939 0.0
O74 O 0.91215 0.31134 0.69783 0.0
C75 C 0.89086 0.35173 0.15477 0.0
C76 C 0.8753 0.37726 0.08776 0.0
C77 C 0.88452 0.35816 0.07195 0.0
N78 N 0.88527 0.36601 0.21673 0.0
N79 N 0.87575 0.38109 0.1764 0.0
C80 C 0.90412 0.33402 0.17437 0.0
H81 H 0.92159 0.33907 0.12689 0.0
H82 H 0.91202 0.33708 0.24345 0.0
H83 H 0.88811 0.31132 0.16689 0.0
C84 C 0.85545 0.29777 0.49084 0.0
N85 N 0.87553 0.32435 0.46863 0.0
N86 N 0.86951 0.33037 0.38969 0.0
C87 C 0.84522 0.30808 0.36003 0.0
C88 C 0.8357 0.28656 0.42253 0.0
C89 C 0.85378 0.28432 0.57885 0.0
H90 H 0.85547 0.29889 0.63286 0.0
H91 H 0.87179 0.28043 0.58479 0.0
H92 H 0.83367 0.26394 0.58653 0.0
O93 O 0.90074 0.38723 0.53567 0.0
O94 O 0.88831 0.39618 0.40524 0.0
H95 H 0.83231 0.32853 0.26419 0.0
H96 H 0.80838 0.2908 0.27368 0.0
C97 C 0.83091 0.30776 0.2747 0.0
H98 H 0.8417 0.30385 0.21881 0.0
H99 H 0.87041 0.39462 0.20906 0.0
O100 O 0.90618 0.34771 0.65976 0.0
C101 C 0.89333 0.40159 0.48793 0.0
Co102 Co 0.56084 0.90161 0.70615 0.0
Co103 Co 0.53391 0.89138 0.51601 0.0
C104 C 0.58445 0.94803 0.57498 0.0
O105 O 0.586 0.93979 0.65309 0.0
O106 O 0.56551 0.93163 0.52006 0.0
C107 C 0.56663 0.91432 0.8854 0.0
O108 O 0.56431 0.9355 0.85381 0.0
C109 C 0.54106 0.89329 0.32456 0.0
C110 C 0.4979 0.86626 0.27239 0.0
C111 C 0.5259 0.88316 0.2467 0.0
N112 N 0.52313 0.88321 0.39365 0.0
N113 N 0.49725 0.86695 0.36211 0.0
C114 C 0.57243 0.91118 0.33307 0.0
H115 H 0.57962 0.90743 0.39801 0.0
H116 H 0.58325 0.90671 0.27831 0.0
H117 H 0.57807 0.93365 0.32828 0.0
C118 C 0.56545 0.85157 0.65482 0.0
N119 N 0.55902 0.87185 0.63632 0.0
N120 N 0.54679 0.86684 0.55782 0.0
C121 C 0.54494 0.8431 0.52402 0.0
C122 C 0.55667 0.8326 0.58435 0.0
C123 C 0.57703 0.84896 0.74218 0.0
H124 H 0.59483 0.86992 0.76241 0.0
H125 H 0.5843 0.83331 0.73925 0.0
H126 H 0.56022 0.8421 0.79336 0.0
O127 O 0.52259 0.89594 0.72011 0.0
O128 O 0.50113 0.88709 0.5897 0.0
H129 H 0.50972 0.82651 0.43464 0.0
H130 H 0.53155 0.81035 0.42343 0.0
C131 C 0.53171 0.83042 0.4363 0.0
H132 H 0.54384 0.84558 0.38256 0.0
H133 H 0.47919 0.85634 0.40167 0.0
O134 O 0.56973 0.89824 0.83121 0.0
C135 C 0.50089 0.89002 0.67386 0.0
Co136 Co 0.66199 0.55443 0.86182 0.0
Co137 Co 0.64661 0.52886 0.67032 0.0
C138 C 0.64005 0.57873 0.7297 0.0
O139 O 0.64937 0.57983 0.80822 0.0
O140 O 0.63782 0.56015 0.67417 0.0
C141 C 0.65428 0.56128 0.0389 0.0
O142 O 0.63091 0.55841 0.00406 0.0
C143 C 0.65173 0.53691 0.47979 0.0
C144 C 0.63555 0.49401 0.42535 0.0
C145 C 0.64626 0.52206 0.40118 0.0
N146 N 0.64436 0.51868 0.54791 0.0
N147 N 0.63476 0.49299 0.51508 0.0
C148 C 0.66492 0.56821 0.49007 0.0
H149 H 0.67772 0.57536 0.5519 0.0
H150 H 0.67843 0.57951 0.43195 0.0
H151 H 0.64778 0.5734 0.49449 0.0
C152 C 0.71689 0.55879 0.81405 0.0
N153 N 0.69039 0.55278 0.79376 0.0
N154 N 0.6838 0.54149 0.7139 0.0
C155 C 0.70596 0.54001 0.68064 0.0
C156 C 0.72767 0.55081 0.74309 0.0
C157 C 0.73028 0.56932 0.90311 0.0
H158 H 0.7179 0.55302 0.95401 0.0
H159 H 0.72948 0.58865 0.92048 0.0
H160 H 0.75253 0.57398 0.90465 0.0
O161 O 0.62902 0.51613 0.87428 0.0
O162 O 0.61762 0.49585 0.7419 0.0
H163 H 0.68881 0.50609 0.58647 0.0
H164 H 0.72673 0.5295 0.57672 0.0
C165 C 0.70626 0.52839 0.59079 0.0
H166 H 0.70263 0.54074 0.53932 0.0
H167 H 0.62751 0.47478 0.55376 0.0
O168 O 0.67373 0.56366 0.98706 0.0
C169 C 0.61349 0.49491 0.82568 0.0
Co170 Co 0.11193 0.65916 0.03209 0.0
Co171 Co 0.12464 0.64645 0.84131 0.0
C172 C 0.06677 0.63728 0.89811 0.0
O173 O 0.07442 0.64731 0.97624 0.0
O174 O 0.08406 0.63562 0.84529 0.0
C175 C 0.11041 0.6814 0.22023 0.0
O176 O 0.1068 0.70266 0.19846 0.0
C177 C 0.12711 0.66165 0.6558 0.0
C178 C 0.14262 0.63606 0.58901 0.0
C179 C 0.1335 0.65525 0.57309 0.0
N180 N 0.13258 0.6473 0.71783 0.0
N181 N 0.14207 0.63218 0.67764 0.0
C182 C 0.11404 0.67954 0.67526 0.0
H183 H 0.10545 0.67598 0.74351 0.0
H184 H 0.13038 0.70222 0.67028 0.0
H185 H 0.09712 0.6752 0.62625 0.0
C186 C 0.16357 0.71542 0.99237 0.0
N187 N 0.14302 0.68907 0.96976 0.0
N188 N 0.14874 0.68298 0.89053 0.0
C189 C 0.17326 0.70498 0.86097 0.0
C190 C 0.18331 0.7264 0.92396 0.0
C191 C 0.16577 0.72871 0.08106 0.0
H192 H 0.14826 0.73331 0.08784 0.0
H193 H 0.18625 0.74868 0.08919 0.0
H194 H 0.1636 0.71373 0.13434 0.0
O195 O 0.1176 0.62624 0.03746 0.0
O196 O 0.1295 0.61717 0.90627 0.0
H197 H 0.20985 0.72196 0.77345 0.0
H198 H 0.17638 0.70876 0.7196 0.0
C199 C 0.18733 0.70503 0.77541 0.0
H200 H 0.18586 0.68422 0.76544 0.0
H201 H 0.14735 0.6186 0.71039 0.0
O202 O 0.1123 0.66598 0.16075 0.0
C203 C 0.12478 0.61182 0.98909 0.0
Co204 Co 0.9069 0.55719 0.62837 0.0
Co205 Co 0.89232 0.52967 0.81741 0.0
C206 C 0.95069 0.57923 0.76726 0.0
O207 O 0.94421 0.5823 0.68816 0.0
O208 O 0.93261 0.55974 0.81698 0.0
C209 C 0.90908 0.58084 0.43673 0.0
O210 O 0.91024 0.60494 0.45441 0.0
C211 C 0.88938 0.54146 0.00355 0.0
C212 C 0.8796 0.50156 0.06995 0.0
C213 C 0.88664 0.52934 0.08649 0.0
N214 N 0.88437 0.52188 0.94097 0.0
N215 N 0.8782 0.49794 0.98107 0.0
C216 C 0.89914 0.5719 0.98392 0.0
H217 H 0.90496 0.5769 0.91298 0.0
H218 H 0.8818 0.57625 0.99876 0.0
H219 H 0.91731 0.58591 0.02719 0.0
C220 C 0.85489 0.56122 0.66634 0.0
N221 N 0.87529 0.55534 0.68967 0.0
N222 N 0.86869 0.54247 0.7674 0.0
C223 C 0.84379 0.53933 0.79503 0.0
C224 C 0.83433 0.55133 0.73237 0.0
C225 C 0.85376 0.57365 0.57904 0.0
H226 H 0.8556 0.56104 0.5244 0.0
H227 H 0.87194 0.59555 0.57469 0.0
H228 H 0.83378 0.57411 0.57101 0.0
O229 O 0.90052 0.51834 0.62039 0.0
O230 O 0.88813 0.49615 0.74997 0.0
H231 H 0.83078 0.50492 0.88696 0.0
H232 H 0.80611 0.51782 0.87724 0.0
C233 C 0.82879 0.52401 0.87808 0.0
H234 H 0.83869 0.53809 0.93598 0.0
H235 H 0.87443 0.47958 0.94791 0.0
O236 O 0.90773 0.56458 0.49919 0.0
C237 C 0.89286 0.49625 0.66684 0.0
Co238 Co 0.35876 0.90366 0.80983 0.0
Co239 Co 0.37079 0.88946 1.00001 0.0
C240 C 0.38003 0.94777 0.94659 0.0
O241 O 0.37048 0.94099 0.86756 0.0
O242 O 0.38141 0.92992 0.99743 0.0
C243 C 0.33698 0.90573 0.62112 0.0
O244 O 0.31586 0.90956 0.64308 0.0
C245 C 0.35458 0.88603 0.18506 0.0
C246 C 0.38231 0.87339 0.25326 0.0
C247 C 0.362 0.8811 0.2685 0.0
N248 N 0.3696 0.88125 0.12359 0.0
N249 N 0.38594 0.87339 0.16466 0.0
C250 C 0.3353 0.89739 0.16407 0.0
H251 H 0.33908 0.90633 0.09616 0.0
H252 H 0.31299 0.87997 0.16661 0.0
H253 H 0.33794 0.91359 0.21365 0.0
C254 C 0.30203 0.85218 0.8478 0.0
N255 N 0.32856 0.87224 0.87082 0.0
N256 N 0.33454 0.86572 0.94906 0.0
C257 C 0.31239 0.8411 0.97721 0.0
C258 C 0.29089 0.8319 0.91468 0.0
C259 C 0.28857 0.85106 0.76024 0.0
H260 H 0.30306 0.85286 0.7058 0.0
H261 H 0.28488 0.86921 0.75564 0.0
H262 H 0.26809 0.83109 0.75199 0.0
O263 O 0.39178 0.89798 0.80517 0.0
O264 O 0.40035 0.88504 0.93546 0.0
H265 H 0.3335 0.82868 0.07223 0.0
H266 H 0.29627 0.80332 0.05878 0.0
C267 C 0.31229 0.82615 0.06087 0.0
H268 H 0.30704 0.83551 0.11786 0.0
H269 H 0.40035 0.86915 0.13253 0.0
O270 O 0.3523 0.9036 0.68055 0.0
C271 C 0.40603 0.89042 0.85305 0.0
Co272 Co 0.45851 0.3514 0.97529 0.0
Co273 Co 0.48636 0.36733 0.16533 0.0
C274 C 0.43568 0.37367 0.11107 0.0
O275 O 0.43357 0.36404 0.03238 0.0
O276 O 0.45492 0.3759 0.16394 0.0
C277 C 0.45257 0.35978 0.79639 0.0
O278 O 0.45649 0.38354 0.83129 0.0
C279 C 0.47849 0.35703 0.35653 0.0
C280 C 0.52058 0.3866 0.4117 0.0
C281 C 0.49302 0.36711 0.43555 0.0
N282 N 0.49654 0.3696 0.28847 0.0
N283 N 0.52183 0.38705 0.32204 0.0
C284 C 0.44761 0.33614 0.34682 0.0
H285 H 0.44091 0.33373 0.27626 0.0
H286 H 0.44328 0.31532 0.37284 0.0
H287 H 0.43513 0.34274 0.38819 0.0
C288 C 0.45493 0.29684 0.02161 0.0
N289 N 0.46093 0.32327 0.04262 0.0
N290 N 0.4738 0.3303 0.12027 0.0
C291 C 0.47676 0.30868 0.15054 0.0
C292 C 0.46481 0.2867 0.0892 0.0
C293 C 0.44277 0.28301 0.9342 0.0
H294 H 0.42424 0.28538 0.91787 0.0
H295 H 0.43641 0.26027 0.93468 0.0
H296 H 0.4589 0.29392 0.88154 0.0
O297 O 0.49674 0.38419 0.96236 0.0
O298 O 0.51897 0.39642 0.0917 0.0
H299 H 0.51152 0.33001 0.24125 0.0
H300 H 0.49597 0.29183 0.23997 0.0
C301 C 0.49149 0.30946 0.23539 0.0
H302 H 0.47777 0.30755 0.29219 0.0
H303 H 0.53961 0.40023 0.2839 0.0
O304 O 0.44913 0.33996 0.8486 0.0
C305 C 0.51872 0.39989 0.00774 0.0
Co306 Co 0.11119 0.45602 0.12743 0.0
Co307 Co 0.12595 0.48342 0.31674 0.0
C308 C 0.06735 0.4341 0.26515 0.0
O309 O 0.07387 0.43076 0.1864 0.0
O310 O 0.08544 0.45367 0.31475 0.0
C311 C 0.10928 0.43246 0.9377 0.0
O312 O 0.10571 0.40754 0.95871 0.0
C313 C 0.12923 0.47067 0.50216 0.0
C314 C 0.14181 0.51103 0.57046 0.0
C315 C 0.13405 0.48297 0.58569 0.0
N316 N 0.13418 0.49054 0.44061 0.0
N317 N 0.14197 0.51472 0.4818 0.0
C318 C 0.11788 0.44 0.48114 0.0
H319 H 0.10168 0.42637 0.53072 0.0
H320 H 0.10894 0.43482 0.41323 0.0
H321 H 0.1353 0.43517 0.48371 0.0
C322 C 0.16304 0.45172 0.16481 0.0
N323 N 0.14273 0.45769 0.18845 0.0
N324 N 0.14939 0.47048 0.26627 0.0
C325 C 0.17425 0.47345 0.29378 0.0
C326 C 0.18363 0.46148 0.23077 0.0
C327 C 0.16411 0.4394 0.07723 0.0
H328 H 0.16257 0.45226 0.02285 0.0
H329 H 0.14577 0.41761 0.07227 0.0
H330 H 0.18396 0.43869 0.06922 0.0
O331 O 0.11736 0.49473 0.12166 0.0
O332 O 0.13058 0.51734 0.25025 0.0
H333 H 0.18771 0.50781 0.38619 0.0
H334 H 0.21177 0.49416 0.37733 0.0
C335 C 0.18923 0.48845 0.37732 0.0
H336 H 0.17901 0.47437 0.43493 0.0
H337 H 0.14627 0.5334 0.44971 0.0
O338 O 0.11119 0.44961 0.99788 0.0
C339 C 0.1253 0.51699 0.16741 0.0
Co340 Co 0.662 0.10782 0.30959 0.0
Co341 Co 0.64951 0.12245 0.49821 0.0
C342 C 0.64028 0.06403 0.44768 0.0
O343 O 0.65058 0.07088 0.36952 0.0
O344 O 0.63844 0.0819 0.49718 0.0
C345 C 0.68284 0.10535 0.11787 0.0
O346 O 0.70511 0.10295 0.13544 0.0
C347 C 0.6629 0.12339 0.68384 0.0
C348 C 0.63945 0.14146 0.74982 0.0
C349 C 0.65653 0.12984 0.76649 0.0
N350 N 0.65029 0.13085 0.6213 0.0
N351 N 0.63648 0.1419 0.66093 0.0
C352 C 0.67834 0.10779 0.66432 0.0
H353 H 0.66485 0.08526 0.68371 0.0
H354 H 0.68352 0.10905 0.59261 0.0
H355 H 0.69825 0.11667 0.70297 0.0
C356 C 0.7185 0.15945 0.34679 0.0
N357 N 0.69202 0.13936 0.36988 0.0
N358 N 0.68612 0.14567 0.44852 0.0
C359 C 0.70846 0.16999 0.4775 0.0
C360 C 0.72981 0.17945 0.41442 0.0
C361 C 0.7317 0.16081 0.25856 0.0
H362 H 0.71689 0.15878 0.20482 0.0
H363 H 0.73563 0.14282 0.25317 0.0
H364 H 0.75201 0.18093 0.24988 0.0
O365 O 0.6291 0.11358 0.30319 0.0
O366 O 0.62061 0.12744 0.43178 0.0
H367 H 0.68912 0.18453 0.57173 0.0
H368 H 0.72737 0.20592 0.56771 0.0
C369 C 0.70909 0.18408 0.56354 0.0
H370 H 0.7108 0.1717 0.6191 0.0
H371 H 0.6243 0.14885 0.62762 0.0
O372 O 0.66831 0.10724 0.18046 0.0
C373 C 0.61504 0.1217 0.34951 0.0
Co374 Co 0.55789 0.65734 0.4722 0.0
Co375 Co 0.53123 0.64505 0.66023 0.0
C376 C 0.58033 0.63545 0.60603 0.0
O377 O 0.58412 0.64632 0.52858 0.0
O378 O 0.5607 0.6337 0.65607 0.0
C379 C 0.57912 0.67813 0.27879 0.0
O380 O 0.60635 0.69549 0.29052 0.0
C381 C 0.5423 0.65554 0.84837 0.0
C382 C 0.50146 0.64807 0.90197 0.0
C383 C 0.52928 0.65698 0.9257 0.0
N384 N 0.52324 0.64675 0.78209 0.0
N385 N 0.49881 0.64218 0.81443 0.0
C386 C 0.5717 0.66045 0.83702 0.0
H387 H 0.57025 0.63995 0.82189 0.0
H388 H 0.58211 0.6749 0.78 0.0
H389 H 0.58504 0.66885 0.89691 0.0
C390 C 0.56341 0.71371 0.5078 0.0
N391 N 0.55668 0.68726 0.5322 0.0
N392 N 0.54459 0.68172 0.61087 0.0
C393 C 0.54324 0.7045 0.63899 0.0
C394 C 0.55501 0.72545 0.57459 0.0
C395 C 0.57534 0.72646 0.41914 0.0
H396 H 0.55995 0.71369 0.36651 0.0
H397 H 0.5951 0.72587 0.40769 0.0
H398 H 0.5799 0.74863 0.41444 0.0
O399 O 0.51961 0.62348 0.46803 0.0
O400 O 0.49706 0.61562 0.59598 0.0
H401 H 0.50811 0.68932 0.72811 0.0
H402 H 0.53214 0.72706 0.73481 0.0
C403 C 0.53067 0.70622 0.72552 0.0
H404 H 0.54212 0.70303 0.78093 0.0
H405 H 0.48054 0.63557 0.77649 0.0
O406 O 0.56339 0.66542 0.34462 0.0
C407 C 0.4975 0.60921 0.51477 0.0
C408 C 0.43987 0.23381 0.09528 0.0
C409 C 0.46531 0.25987 0.09082 0.0
C410 C 0.44001 0.20817 0.09864 0.0
C411 C 0.46561 0.20787 0.09699 0.0
H412 H 0.41977 0.23329 0.09674 0.0
H413 H 0.42002 0.18846 0.10183 0.0
S414 S 0.53785 0.27043 0.08613 0.0
N415 N 0.51665 0.28384 0.08392 0.0
N416 N 0.51696 0.23576 0.09286 0.0
C417 C 0.49115 0.2338 0.0931 0.0
C418 C 0.49099 0.25981 0.08918 0.0
C419 C 0.21085 0.43587 0.23586 0.0
C420 C 0.21075 0.46151 0.23041 0.0
C421 C 0.23644 0.43561 0.23982 0.0
C422 C 0.26264 0.46098 0.23803 0.0
H423 H 0.19103 0.41596 0.23821 0.0
H424 H 0.23576 0.41548 0.2442 0.0
S425 S 0.27363 0.53355 0.22204 0.0
N426 N 0.23887 0.51273 0.22031 0.0
N427 N 0.2869 0.51231 0.23064 0.0
C428 C 0.26274 0.48669 0.23192 0.0
C429 C 0.23678 0.48693 0.22725 0.0
C430 C 0.7573 0.2323 0.41716 0.0
C431 C 0.75709 0.20646 0.41508 0.0
C432 C 0.78286 0.25816 0.42005 0.0
C433 C 0.80901 0.259 0.42051 0.0
H434 H 0.73754 0.23247 0.4167 0.0
H435 H 0.78219 0.27764 0.42216 0.0
S436 S 0.81987 0.1973 0.41571 0.0
N437 N 0.78509 0.18323 0.41391 0.0
N438 N 0.83325 0.23197 0.41865 0.0
C439 C 0.80909 0.23336 0.41844 0.0
C440 C 0.78307 0.20702 0.41543 0.0
C441 C 0.58095 0.77848 0.5741 0.0
C442 C 0.55521 0.75265 0.5734 0.0
C443 C 0.58135 0.8044 0.57788 0.0
C444 C 0.55601 0.80519 0.58035 0.0
H445 H 0.60085 0.7786 0.57306 0.0
H446 H 0.60155 0.82393 0.57881 0.0
S447 S 0.48319 0.74343 0.57868 0.0
N448 N 0.50387 0.72944 0.57402 0.0
N449 N 0.50462 0.77807 0.58202 0.0
C450 C 0.5302 0.77952 0.57899 0.0
C451 C 0.5298 0.75324 0.57524 0.0
C452 C 0.78072 0.57615 0.74471 0.0
C453 C 0.75471 0.55066 0.73912 0.0
C454 C 0.80652 0.57631 0.74085 0.0
C455 C 0.80704 0.55095 0.73197 0.0
H456 H 0.78108 0.59607 0.75192 0.0
H457 H 0.82618 0.5963 0.74599 0.0
S458 S 0.74483 0.47874 0.71354 0.0
N459 N 0.73109 0.49951 0.7243 0.0
N460 N 0.77954 0.49989 0.71534 0.0
C461 C 0.78122 0.52542 0.72534 0.0
C462 C 0.75503 0.52524 0.72945 0.0
C463 C 0.26218 0.77905 0.91561 0.0
C464 C 0.26323 0.80529 0.9161 0.0
C465 C 0.23622 0.75359 0.91912 0.0
C466 C 0.21047 0.75356 0.92231 0.0
H467 H 0.28158 0.77822 0.91254 0.0
H468 H 0.23627 0.73377 0.91931 0.0
S469 S 0.20182 0.81662 0.92437 0.0
N470 N 0.23646 0.82979 0.92023 0.0
N471 N 0.18754 0.78183 0.92549 0.0
C472 C 0.21124 0.77962 0.92268 0.0
C473 C 0.23767 0.80554 0.91936 0.0
C474 C 0.45497 0.13145 0.63797 0.0
C475 C 0.47407 0.12224 0.66067 0.0
C476 C 0.44189 0.1255 0.55413 0.0
C477 C 0.44778 0.11044 0.4901 0.0
H478 H 0.45077 0.1441 0.68409 0.0
H479 H 0.42801 0.13371 0.53821 0.0
S480 S 0.49427 0.07951 0.51993 0.0
N481 N 0.49678 0.09582 0.61479 0.0
N482 N 0.47258 0.08487 0.45715 0.0
C483 C 0.46634 0.10057 0.51297 0.0
C484 C 0.47949 0.10651 0.59815 0.0
C485 C 0.37295 0.44874 0.70214 0.0
C486 C 0.35894 0.45548 0.6365 0.0
C487 C 0.37571 0.45894 0.78925 0.0
C488 C 0.36518 0.47681 0.8132 0.0
H489 H 0.38235 0.43594 0.68558 0.0
H490 H 0.38711 0.45366 0.83734 0.0
S491 S 0.32674 0.5008 0.66704 0.0
N492 N 0.3339 0.48076 0.60234 0.0
N493 N 0.33989 0.50051 0.76568 0.0
C494 C 0.35091 0.48352 0.74883 0.0
C495 C 0.3475 0.47263 0.6606 0.0
C496 C 0.91266 0.36604 0.83797 0.0
C497 C 0.904 0.33805 0.81249 0.0
C498 C 0.90623 0.37219 0.92206 0.0
C499 C 0.8908 0.35059 0.98389 0.0
H500 H 0.92429 0.38339 0.79203 0.0
H501 H 0.91344 0.39407 0.93883 0.0
S502 S 0.86089 0.27359 0.94721 0.0
N503 N 0.87816 0.2884 0.85437 0.0
N504 N 0.86528 0.29991 0.01202 0.0
C505 C 0.88175 0.32246 0.95927 0.0
C506 C 0.8886 0.3162 0.87367 0.0
C507 C 0.56424 0.92649 0.04358 0.0
C508 C 0.55886 0.90575 0.9791 0.0
C509 C 0.55379 0.91894 0.13032 0.0
C510 C 0.53708 0.89038 0.15521 0.0
H511 H 0.57625 0.94875 0.02646 0.0
H512 H 0.55817 0.93561 0.1776 0.0
S513 S 0.51636 0.82793 0.01168 0.0
N514 N 0.53571 0.85531 0.94654 0.0
N515 N 0.5156 0.84129 0.10945 0.0
C516 C 0.53155 0.86942 0.09184 0.0
C517 C 0.54267 0.87706 0.00388 0.0
C518 C 0.66937 0.54076 0.1614 0.0
C519 C 0.65469 0.55457 0.13395 0.0
C520 C 0.66642 0.53007 0.24802 0.0
C521 C 0.64917 0.53336 0.31037 0.0
H522 H 0.68234 0.53715 0.11474 0.0
H523 H 0.67765 0.51916 0.26632 0.0
S524 S 0.60706 0.56862 0.27347 0.0
N525 N 0.6228 0.57144 0.1772 0.0
N526 N 0.61755 0.5516 0.34 0.0
C527 C 0.63497 0.54769 0.28469 0.0
C528 C 0.63768 0.55826 0.19645 0.0
C529 C 0.10593 0.64768 0.33849 0.0
C530 C 0.11451 0.67569 0.31338 0.0
C531 C 0.11222 0.64143 0.42263 0.0
C532 C 0.12741 0.66294 0.48495 0.0
H533 H 0.09447 0.63039 0.29221 0.0
H534 H 0.1051 0.61954 0.43906 0.0
S535 S 0.15694 0.73995 0.44962 0.0
N536 N 0.13996 0.72525 0.35625 0.0
N537 N 0.15257 0.71357 0.51408 0.0
C538 C 0.13636 0.69108 0.46077 0.0
C539 C 0.12965 0.69744 0.37507 0.0
C540 C 0.88389 0.56216 0.19803 0.0
C541 C 0.89376 0.54369 0.17411 0.0
C542 C 0.89005 0.57535 0.28177 0.0
C543 C 0.90607 0.57027 0.34454 0.0
H544 H 0.87058 0.56578 0.15296 0.0
H545 H 0.88125 0.58865 0.29871 0.0
S546 S 0.9396 0.52633 0.31059 0.0
N547 N 0.92231 0.52294 0.21712 0.0
N548 N 0.93355 0.5473 0.37451 0.0
C549 C 0.91678 0.55255 0.32025 0.0
C550 C 0.91065 0.5393 0.23516 0.0
C551 C 0.37034 0.91012 0.50165 0.0
C552 C 0.34239 0.90139 0.52784 0.0
C553 C 0.3763 0.90351 0.41753 0.0
C554 C 0.35455 0.88777 0.35633 0.0
H555 H 0.3878 0.92192 0.54709 0.0
H556 H 0.39817 0.91079 0.40036 0.0
S557 S 0.27758 0.85778 0.39495 0.0
N558 N 0.29263 0.87533 0.4872 0.0
N559 N 0.30376 0.86205 0.32964 0.0
C560 C 0.32646 0.87871 0.38163 0.0
C561 C 0.3204 0.88579 0.46724 0.0
C562 C 0.47989 0.34366 0.58463 0.0
C563 C 0.48054 0.3637 0.52483 0.0
C564 C 0.46916 0.34126 0.67116 0.0
C565 C 0.45897 0.35903 0.70074 0.0
H566 H 0.48822 0.33017 0.56497 0.0
H567 H 0.47001 0.32623 0.71621 0.0
S568 S 0.45441 0.41351 0.56549 0.0
N569 N 0.46878 0.40036 0.49801 0.0
N570 N 0.44879 0.39618 0.66021 0.0
C571 C 0.45867 0.37846 0.63977 0.0
C572 C 0.46945 0.38073 0.5519 0.0
C573 C 0.11158 0.47451 0.73493 0.0
C574 C 0.12743 0.46878 0.67353 0.0
C575 C 0.10497 0.46175 0.81889 0.0
C576 C 0.1138 0.44261 0.84472 0.0
H577 H 0.1042 0.48901 0.71799 0.0
H578 H 0.09306 0.46718 0.86445 0.0
S579 S 0.15784 0.42224 0.7114 0.0
N580 N 0.15346 0.44414 0.6465 0.0
N581 N 0.14016 0.41937 0.80359 0.0
C582 C 0.12956 0.43655 0.78397 0.0
C583 C 0.13665 0.44988 0.69859 0.0
C584 C 0.69088 0.1301 0.87817 0.0
C585 C 0.66296 0.12244 0.85467 0.0
C586 C 0.69714 0.12334 0.96216 0.0
C587 C 0.67572 0.10909 0.02579 0.0
H588 H 0.70815 0.14219 0.83258 0.0
H589 H 0.719 0.13033 0.97853 0.0
S590 S 0.59899 0.08294 0.99461 0.0
N591 N 0.61365 0.09875 0.89986 0.0
N592 N 0.62526 0.08634 0.05775 0.0
C593 C 0.64766 0.10093 0.00228 0.0
C594 C 0.64134 0.10765 0.91688 0.0
C595 C 0.58097 0.69093 0.11759 0.0
C596 C 0.56576 0.6736 0.18978 0.0
C597 C 0.56865 0.68644 0.03292 0.0
C598 C 0.54113 0.66379 0.01669 0.0
H599 H 0.60247 0.70818 0.12645 0.0
H600 H 0.58084 0.70079 0.97983 0.0
S601 S 0.49077 0.6149 0.18428 0.0
N602 N 0.52009 0.63503 0.24065 0.0
N603 N 0.49793 0.62598 0.08069 0.0
C604 C 0.52519 0.64734 0.0888 0.0
C605 C 0.53734 0.65223 0.17532 0.0
C606 C 0.56491 0.11881 0.16782 0.0
C607 C 0.54676 0.1258 0.21284 0.0
C608 C 0.58701 0.11797 0.21266 0.0
C609 C 0.59208 0.12427 0.30433 0.0
H610 H 0.56142 0.11296 0.09821 0.0
H611 H 0.59997 0.11186 0.17495 0.0
S612 S 0.55279 0.14772 0.44954 0.0
N613 N 0.53679 0.14176 0.35224 0.0
N614 N 0.57839 0.14031 0.43611 0.0
C615 C 0.57485 0.13261 0.34908 0.0
C616 C 0.55221 0.13333 0.30348 0.0
C617 C 0.45202 0.55596 0.33728 0.0
C618 C 0.42557 0.54005 0.3783 0.0
C619 C 0.475 0.57767 0.38318 0.0
C620 C 0.47239 0.58518 0.47104 0.0
H621 H 0.4553 0.55093 0.27026 0.0
H622 H 0.4952 0.58839 0.34945 0.0
S623 S 0.4073 0.54953 0.60884 0.0
N624 N 0.39794 0.53255 0.51293 0.0
N625 N 0.44089 0.57423 0.59772 0.0
C626 C 0.44592 0.56939 0.51292 0.0
C627 C 0.4226 0.54674 0.4668 0.0
C628 C 0.89615 0.4294 0.62433 0.0
C629 C 0.89103 0.42487 0.53192 0.0
C630 C 0.89563 0.4518 0.66825 0.0
C631 C 0.89024 0.47084 0.62167 0.0
H632 H 0.90107 0.41578 0.66353 0.0
H633 H 0.90043 0.45473 0.73866 0.0
S634 S 0.87213 0.46678 0.38175 0.0
N635 N 0.87799 0.44022 0.39722 0.0
N636 N 0.87722 0.48241 0.4794 0.0
C637 C 0.88403 0.46605 0.53002 0.0
C638 C 0.88436 0.44308 0.48532 0.0
C639 C 0.43232 0.8904 0.71614 0.0
C640 C 0.42943 0.88822 0.80965 0.0
C641 C 0.45484 0.89002 0.67248 0.0
C642 C 0.47565 0.88764 0.72031 0.0
H643 H 0.41722 0.89279 0.67576 0.0
H644 H 0.45633 0.89239 0.60087 0.0
S645 S 0.47699 0.87921 0.96565 0.0
N646 N 0.44869 0.88207 0.94803 0.0
N647 N 0.49094 0.88129 0.86667 0.0
C648 C 0.47257 0.88453 0.81371 0.0
C649 C 0.44953 0.88481 0.85811 0.0
C650 C 0.56563 0.44528 0.00765 0.0
C651 C 0.54378 0.42277 0.96022 0.0
C652 C 0.5882 0.46807 0.96337 0.0
C653 C 0.59006 0.46934 0.86955 0.0
H654 H 0.56501 0.44573 0.07958 0.0
H655 H 0.60415 0.48506 0.00357 0.0
S656 S 0.53933 0.41466 0.71378 0.0
N657 N 0.5263 0.40239 0.8134 0.0
N658 N 0.56856 0.44519 0.73101 0.0
C659 C 0.56884 0.44651 0.82128 0.0
C660 C 0.54578 0.4233 0.86631 0.0
C661 C 0.12588 0.5633 0.16958 0.0
C662 C 0.12778 0.5423 0.12145 0.0
C663 C 0.12546 0.58583 0.12602 0.0
C664 C 0.12718 0.58852 0.03238 0.0
H665 H 0.12382 0.5619 0.24128 0.0
H666 H 0.12337 0.60106 0.16657 0.0
S667 S 0.13528 0.54055 0.87589 0.0
N668 N 0.13344 0.52669 0.97487 0.0
N669 N 0.13268 0.56898 0.89368 0.0
C670 C 0.13025 0.56827 0.98369 0.0
C671 C 0.13051 0.54522 0.02797 0.0
C672 C 0.41601 0.02815 0.95139 0.0
C673 C 0.41978 0.03448 0.04306 0.0
C674 C 0.40183 1.00008 0.92054 0.0
C675 C 0.3913 0.97717 0.98008 0.0
H676 H 0.42468 0.04506 0.90275 0.0
H677 H 0.40027 0.99639 0.84949 0.0
S678 S 0.39394 0.98214 0.22689 0.0
N679 N 0.41023 0.01537 0.193 0.0
N680 N 0.38417 0.96279 0.13558 0.0
C681 C 0.394 0.98321 0.07201 0.0
C682 C 0.40804 0.01178 0.10335 0.0
C683 C 0.41019 0.40016 0.08084 0.0
C684 C 0.41725 0.38492 0.14051 0.0
C685 C 0.39676 0.41486 0.11032 0.0
C686 C 0.38922 0.41447 0.20038 0.0
H687 H 0.41639 0.40199 0.01166 0.0
H688 H 0.39308 0.42735 0.06212 0.0
S689 S 0.40038 0.37497 0.38149 0.0
N690 N 0.41404 0.36862 0.29256 0.0
N691 N 0.38819 0.3956 0.34763 0.0
C692 C 0.39483 0.39801 0.2598 0.0
C693 C 0.40899 0.38345 0.22997 0.0
C694 C 0.01487 0.40336 0.24158 0.0
C695 C 0.03806 0.4162 0.30004 0.0
C696 C 0.98692 0.38966 0.27366 0.0
C697 C 0.98102 0.38777 0.36556 0.0
H698 H 0.01825 0.40495 0.17037 0.0
H699 H 0.96978 0.381 0.22579 0.0
S700 S 0.03418 0.41571 0.54704 0.0
N701 N 0.05313 0.42464 0.45492 0.0
N702 N 1.00079 0.39846 0.51461 0.0
C703 C 1.00399 0.3992 0.42485 0.0
C704 C 0.03242 0.41354 0.39226 0.0
C705 C 0.60177 0.99931 0.59735 0.0
C706 C 0.60288 0.97796 0.54899 0.0
C707 C 0.61464 0.02714 0.565 0.0
C708 C 0.62913 0.03475 0.48274 0.0
H709 H 0.58971 0.99421 0.65852 0.0
H710 H 0.61233 0.04256 0.60384 0.0
S711 S 0.64198 0.98713 0.33876 0.0
N712 N 0.62259 0.96671 0.42149 0.0
N713 N 0.6463 0.01878 0.35903 0.0
C714 C 0.63173 0.01377 0.43644 0.0
C715 C 0.6187 0.98545 0.46992 0.0
C716 C 0.58905 0.60615 0.71623 0.0
C717 C 0.59784 0.62338 0.6394 0.0
C718 C 0.60401 0.59333 0.74835 0.0
C719 C 0.62818 0.59682 0.70442 0.0
H720 H 0.56981 0.60159 0.7506 0.0
H721 H 0.59578 0.57944 0.80552 0.0
S722 S 0.66169 0.64106 0.50516 0.0
N723 N 0.63359 0.64429 0.52334 0.0
N724 N 0.66153 0.61994 0.58406 0.0
C725 C 0.6378 0.61448 0.62931 0.0
C726 C 0.62267 0.62777 0.59664 0.0
C727 C 0.0311 0.6242 0.77574 0.0
C728 C 0.03708 0.62586 0.86756 0.0
C729 C 1.00314 0.61041 0.74377 0.0
C730 C 0.97998 0.59725 0.80224 0.0
H731 H 0.04822 0.6331 0.7278 0.0
H732 H 0.99972 0.60901 0.67258 0.0
S733 S 0.98405 0.59694 0.04917 0.0
N734 N 0.01741 0.61454 0.01663 0.0
N735 N 0.96503 0.58821 0.95716 0.0
C736 C 0.98569 0.59967 0.89444 0.0
C737 C 0.01415 0.61409 0.92693 0.0
loop_
_geom_bond_atom_site_label_1
_geom_bond_atom_site_label_2
_geom_bond_distance
_geom_bond_site_symmetry_2
_ccdc_geom_bond_type
Co0 O3 1.970 . S
Co0 N17 1.989 . S
Co0 O25 1.967 . S
Co0 O32 1.920 . S
Co1 O4 1.966 . S
Co1 N10 2.022 1_554 S
Co1 N18 1.993 . S
Co1 O26 1.941 . S
C2 O3 1.258 . S
C2 O4 1.263 . S
O3 Co0 1.970 . S
O3 C2 1.258 . S
O4 Co1 1.966 . S
O4 C2 1.263 . S
C5 O6 1.235 . S
C5 O32 1.289 . S
O6 C5 1.235 . S
C7 C9 1.400 . S
C7 N10 1.351 . S
C7 C12 1.501 . S
C8 C9 1.387 . S
C8 N11 1.341 . S
C9 C7 1.400 . S
C9 C8 1.387 . S
N10 Co1 2.022 1_556 S
N10 C7 1.351 . S
N10 N11 1.365 . S
N11 C8 1.341 . S
N11 N10 1.365 . S
N11 H31 0.862 . S
C12 C7 1.501 . S
C12 H13 0.961 . S
C12 H14 0.961 . S
C12 H15 0.960 . S
H13 C12 0.961 . S
H14 C12 0.961 . S
H15 C12 0.960 . S
C16 N17 1.342 . S
C16 C20 1.401 . S
C16 C21 1.499 . S
N17 Co0 1.989 . S
N17 C16 1.342 . S
N17 N18 1.388 . S
N18 Co1 1.993 . S
N18 N17 1.388 . S
N18 C19 1.346 . S
C19 N18 1.346 . S
C19 C20 1.396 . S
C19 C29 1.510 1_554 S
C20 C16 1.401 . S
C20 C19 1.396 . S
C21 C16 1.499 . S
C21 H22 0.959 . S
C21 H23 0.960 . S
C21 H24 0.961 . S
H22 C21 0.959 . S
H23 C21 0.960 . S
H24 C21 0.961 . S
O25 Co0 1.967 . S
O25 C33 1.258 . S
O26 Co1 1.941 . S
O26 C33 1.266 . S
H27 C29 0.959 . S
H28 C29 0.961 . S
C29 C19 1.510 1_556 S
C29 H27 0.959 . S
C29 H28 0.961 . S
C29 H30 0.960 . S
H30 C29 0.960 . S
H31 N11 0.862 . S
O32 Co0 1.920 . S
O32 C5 1.289 . S
C33 O25 1.258 . S
C33 O26 1.266 . S
Co34 O37 1.970 . S
Co34 N51 1.989 . S
Co34 O59 1.967 . S
Co34 O66 1.920 . S
Co35 O38 1.966 . S
Co35 N44 2.022 . S
Co35 N52 1.993 . S
Co35 O60 1.941 . S
C36 O37 1.258 . S
C36 O38 1.263 . S
O37 Co34 1.970 . S
O37 C36 1.258 . S
O38 Co35 1.966 . S
O38 C36 1.263 . S
C39 O40 1.235 . S
C39 O66 1.289 . S
O40 C39 1.235 . S
C41 C43 1.400 . S
C41 N44 1.351 1_556 S
C41 C46 1.501 . S
C42 C43 1.387 . S
C42 N45 1.345 . S
C43 C41 1.400 . S
C43 C42 1.387 . S
N44 Co35 2.022 . S
N44 C41 1.351 1_554 S
N44 N45 1.364 1_554 S
N45 C42 1.345 . S
N45 N44 1.364 1_556 S
N45 H65 0.860 1_556 S
C46 C41 1.501 . S
C46 H47 0.961 1_556 S
C46 H48 0.961 . S
C46 H49 0.960 . S
H47 C46 0.961 1_554 S
H48 C46 0.961 . S
H49 C46 0.960 . S
C50 N51 1.342 . S
C50 C54 1.401 . S
C50 C55 1.499 . S
N51 Co34 1.989 . S
N51 C50 1.342 . S
N51 N52 1.388 . S
N52 Co35 1.993 . S
N52 N51 1.388 . S
N52 C53 1.346 . S
C53 N52 1.346 . S
C53 C54 1.396 . S
C53 C63 1.510 . S
C54 C50 1.401 . S
C54 C53 1.396 . S
C55 C50 1.499 . S
C55 H56 0.959 . S
C55 H57 0.960 . S
C55 H58 0.961 . S
H56 C55 0.959 . S
H57 C55 0.960 . S
H58 C55 0.961 . S
O59 Co34 1.967 . S
O59 C67 1.258 . S
O60 Co35 1.941 . S
O60 C67 1.266 . S
H61 C63 0.959 . S
H62 C63 0.961 . S
C63 C53 1.510 . S
C63 H61 0.959 . S
C63 H62 0.961 . S
C63 H64 0.960 . S
H64 C63 0.960 . S
H65 N45 0.860 1_554 S
O66 Co34 1.920 . S
O66 C39 1.289 . S
C67 O59 1.258 . S
C67 O60 1.266 . S
Co68 O71 1.970 . S
Co68 N85 1.989 . S
Co68 O93 1.967 . S
Co68 O100 1.920 . S
Co69 O72 1.966 . S
Co69 N78 2.022 . S
Co69 N86 1.993 . S
Co69 O94 1.941 . S
C70 O71 1.258 . S
C70 O72 1.263 . S
O71 Co68 1.970 . S
O71 C70 1.258 . S
O72 Co69 1.966 . S
O72 C70 1.263 . S
C73 O74 1.235 . S
C73 O100 1.289 . S
O74 C73 1.235 . S
C75 C77 1.400 . S
C75 N78 1.351 . S
C75 C80 1.501 . S
C76 C77 1.387 . S
C76 N79 1.341 . S
C77 C75 1.400 . S
C77 C76 1.387 . S
N78 Co69 2.022 . S
N78 C75 1.351 . S
N78 N79 1.365 . S
N79 C76 1.341 . S
N79 N78 1.365 . S
N79 H99 0.862 . S
C80 C75 1.501 . S
C80 H81 0.961 . S
C80 H82 0.961 . S
C80 H83 0.960 . S
H81 C80 0.961 . S
H82 C80 0.961 . S
H83 C80 0.960 . S
C84 N85 1.342 . S
C84 C88 1.401 . S
C84 C89 1.499 . S
N85 Co68 1.989 . S
N85 C84 1.342 . S
N85 N86 1.388 . S
N86 Co69 1.993 . S
N86 N85 1.388 . S
N86 C87 1.346 . S
C87 N86 1.346 . S
C87 C88 1.396 . S
C87 C97 1.510 . S
C88 C84 1.401 . S
C88 C87 1.396 . S
C89 C84 1.499 . S
C89 H90 0.959 . S
C89 H91 0.960 . S
C89 H92 0.961 . S
H90 C89 0.959 . S
H91 C89 0.960 . S
H92 C89 0.961 . S
O93 Co68 1.967 . S
O93 C101 1.258 . S
O94 Co69 1.941 . S
O94 C101 1.266 . S
H95 C97 0.959 . S
H96 C97 0.961 . S
C97 C87 1.510 . S
C97 H95 0.959 . S
C97 H96 0.961 . S
C97 H98 0.960 . S
H98 C97 0.960 . S
H99 N79 0.862 . S
O100 Co68 1.920 . S
O100 C73 1.289 . S
C101 O93 1.258 . S
C101 O94 1.266 . S
Co102 O105 1.970 . S
Co102 N119 1.989 . S
Co102 O127 1.967 . S
Co102 O134 1.920 . S
Co103 O106 1.966 . S
Co103 N112 2.022 . S
Co103 N120 1.993 . S
Co103 O128 1.941 . S
C104 O105 1.258 . S
C104 O106 1.263 . S
O105 Co102 1.970 . S
O105 C104 1.258 . S
O106 Co103 1.966 . S
O106 C104 1.263 . S
C107 O108 1.235 . S
C107 O134 1.289 . S
O108 C107 1.235 . S
C109 C111 1.400 . S
C109 N112 1.351 . S
C109 C114 1.501 . S
C110 C111 1.387 . S
C110 N113 1.341 . S
C111 C109 1.400 . S
C111 C110 1.387 . S
N112 Co103 2.022 . S
N112 C109 1.351 . S
N112 N113 1.365 . S
N113 C110 1.341 . S
N113 N112 1.365 . S
N113 H133 0.862 . S
C114 C109 1.501 . S
C114 H115 0.961 . S
C114 H116 0.961 . S
C114 H117 0.960 . S
H115 C114 0.961 . S
H116 C114 0.961 . S
H117 C114 0.960 . S
C118 N119 1.342 . S
C118 C122 1.401 . S
C118 C123 1.499 . S
N119 Co102 1.989 . S
N119 C118 1.342 . S
N119 N120 1.388 . S
N120 Co103 1.993 . S
N120 N119 1.388 . S
N120 C121 1.346 . S
C121 N120 1.346 . S
C121 C122 1.396 . S
C121 C131 1.510 . S
C122 C118 1.401 . S
C122 C121 1.396 . S
C123 C118 1.499 . S
C123 H124 0.959 . S
C123 H125 0.960 . S
C123 H126 0.961 . S
H124 C123 0.959 . S
H125 C123 0.960 . S
H126 C123 0.961 . S
O127 Co102 1.967 . S
O127 C135 1.258 . S
O128 Co103 1.941 . S
O128 C135 1.266 . S
H129 C131 0.959 . S
H130 C131 0.961 . S
C131 C121 1.510 . S
C131 H129 0.959 . S
C131 H130 0.961 . S
C131 H132 0.960 . S
H132 C131 0.960 . S
H133 N113 0.862 . S
O134 Co102 1.920 . S
O134 C107 1.289 . S
C135 O127 1.258 . S
C135 O128 1.266 . S
Co136 O139 1.970 . S
Co136 N153 1.989 . S
Co136 O161 1.967 . S
Co136 O168 1.920 1_556 S
Co137 O140 1.966 . S
Co137 N146 2.022 . S
Co137 N154 1.993 . S
Co137 O162 1.941 . S
C138 O139 1.258 . S
C138 O140 1.263 . S
O139 Co136 1.970 . S
O139 C138 1.258 . S
O140 Co137 1.966 . S
O140 C138 1.263 . S
C141 O142 1.235 1_554 S
C141 O168 1.289 . S
O142 C141 1.235 1_556 S
C143 C145 1.400 . S
C143 N146 1.351 . S
C143 C148 1.501 . S
C144 C145 1.387 . S
C144 N147 1.341 . S
C145 C143 1.400 . S
C145 C144 1.387 . S
N146 Co137 2.022 . S
N146 C143 1.351 . S
N146 N147 1.365 . S
N147 C144 1.341 . S
N147 N146 1.365 . S
N147 H167 0.862 . S
C148 C143 1.501 . S
C148 H149 0.961 . S
C148 H150 0.961 . S
C148 H151 0.960 . S
H149 C148 0.961 . S
H150 C148 0.961 . S
H151 C148 0.960 . S
C152 N153 1.342 . S
C152 C156 1.401 . S
C152 C157 1.499 . S
N153 Co136 1.989 . S
N153 C152 1.342 . S
N153 N154 1.388 . S
N154 Co137 1.993 . S
N154 N153 1.388 . S
N154 C155 1.346 . S
C155 N154 1.346 . S
C155 C156 1.396 . S
C155 C165 1.510 . S
C156 C152 1.401 . S
C156 C155 1.396 . S
C157 C152 1.499 . S
C157 H158 0.959 . S
C157 H159 0.960 . S
C157 H160 0.961 . S
H158 C157 0.959 . S
H159 C157 0.960 . S
H160 C157 0.961 . S
O161 Co136 1.967 . S
O161 C169 1.258 . S
O162 Co137 1.941 . S
O162 C169 1.266 . S
H163 C165 0.959 . S
H164 C165 0.961 . S
C165 C155 1.510 . S
C165 H163 0.959 . S
C165 H164 0.961 . S
C165 H166 0.960 . S
H166 C165 0.960 . S
H167 N147 0.862 . S
O168 Co136 1.920 1_554 S
O168 C141 1.289 . S
C169 O161 1.258 . S
C169 O162 1.266 . S
Co170 O173 1.970 1_554 S
Co170 N187 1.989 1_554 S
Co170 O195 1.967 . S
Co170 O202 1.920 . S
Co171 O174 1.966 . S
Co171 N180 2.022 . S
Co171 N188 1.993 . S
Co171 O196 1.941 . S
C172 O173 1.258 . S
C172 O174 1.263 . S
O173 Co170 1.970 1_556 S
O173 C172 1.258 . S
O174 Co171 1.966 . S
O174 C172 1.263 . S
C175 O176 1.235 . S
C175 O202 1.289 . S
O176 C175 1.235 . S
C177 C179 1.400 . S
C177 N180 1.351 . S
C177 C182 1.501 . S
C178 C179 1.387 . S
C178 N181 1.341 . S
C179 C177 1.400 . S
C179 C178 1.387 . S
N180 Co171 2.022 . S
N180 C177 1.351 . S
N180 N181 1.365 . S
N181 C178 1.341 . S
N181 N180 1.365 . S
N181 H201 0.862 . S
C182 C177 1.501 . S
C182 H183 0.961 . S
C182 H184 0.961 . S
C182 H185 0.960 . S
H183 C182 0.961 . S
H184 C182 0.961 . S
H185 C182 0.960 . S
C186 N187 1.342 1_554 S
C186 C190 1.401 1_554 S
C186 C191 1.499 . S
N187 Co170 1.989 1_556 S
N187 C186 1.342 1_556 S
N187 N188 1.388 . S
N188 Co171 1.993 . S
N188 N187 1.388 . S
N188 C189 1.346 . S
C189 N188 1.346 . S
C189 C190 1.396 . S
C189 C199 1.510 . S
C190 C186 1.401 1_556 S
C190 C189 1.396 . S
C191 C186 1.499 . S
C191 H192 0.959 . S
C191 H193 0.960 . S
C191 H194 0.961 . S
H192 C191 0.959 . S
H193 C191 0.960 . S
H194 C191 0.961 . S
O195 Co170 1.967 . S
O195 C203 1.258 1_554 S
O196 Co171 1.941 . S
O196 C203 1.266 . S
H197 C199 0.959 . S
H198 C199 0.961 . S
C199 C189 1.510 . S
C199 H197 0.959 . S
C199 H198 0.961 . S
C199 H200 0.960 . S
H200 C199 0.960 . S
H201 N181 0.862 . S
O202 Co170 1.920 . S
O202 C175 1.289 . S
C203 O195 1.258 1_556 S
C203 O196 1.266 . S
Co204 O207 1.970 . S
Co204 N221 1.989 . S
Co204 O229 1.967 . S
Co204 O236 1.920 . S
Co205 O208 1.966 . S
Co205 N214 2.022 . S
Co205 N222 1.993 . S
Co205 O230 1.941 . S
C206 O207 1.258 . S
C206 O208 1.263 . S
O207 Co204 1.970 . S
O207 C206 1.258 . S
O208 Co205 1.966 . S
O208 C206 1.263 . S
C209 O210 1.235 . S
C209 O236 1.289 . S
O210 C209 1.235 . S
C211 C213 1.400 . S
C211 N214 1.351 1_554 S
C211 C216 1.501 . S
C212 C213 1.387 . S
C212 N215 1.346 . S
C213 C211 1.400 . S
C213 C212 1.387 . S
N214 Co205 2.022 . S
N214 C211 1.351 1_556 S
N214 N215 1.363 1_556 S
N215 C212 1.346 . S
N215 N214 1.363 1_554 S
N215 H235 0.859 1_554 S
C216 C211 1.501 . S
C216 H217 0.961 1_554 S
C216 H218 0.961 . S
C216 H219 0.960 . S
H217 C216 0.961 1_556 S
H218 C216 0.961 . S
H219 C216 0.960 . S
C220 N221 1.342 . S
C220 C224 1.401 . S
C220 C225 1.499 . S
N221 Co204 1.989 . S
N221 C220 1.342 . S
N221 N222 1.388 . S
N222 Co205 1.993 . S
N222 N221 1.388 . S
N222 C223 1.346 . S
C223 N222 1.346 . S
C223 C224 1.396 . S
C223 C233 1.510 . S
C224 C220 1.401 . S
C224 C223 1.396 . S
C225 C220 1.499 . S
C225 H226 0.959 . S
C225 H227 0.960 . S
C225 H228 0.961 . S
H226 C225 0.959 . S
H227 C225 0.960 . S
H228 C225 0.961 . S
O229 Co204 1.967 . S
O229 C237 1.258 . S
O230 Co205 1.941 . S
O230 C237 1.266 . S
H231 C233 0.959 . S
H232 C233 0.961 . S
C233 C223 1.510 . S
C233 H231 0.959 . S
C233 H232 0.961 . S
C233 H234 0.960 . S
H234 C233 0.960 . S
H235 N215 0.859 1_556 S
O236 Co204 1.920 . S
O236 C209 1.289 . S
C237 O229 1.258 . S
C237 O230 1.266 . S
Co238 O241 1.970 . S
Co238 N255 1.989 . S
Co238 O263 1.967 . S
Co238 O270 1.920 . S
Co239 O242 1.966 . S
Co239 N248 2.022 1_556 S
Co239 N256 1.993 . S
Co239 O264 1.941 . S
C240 O241 1.258 . S
C240 O242 1.263 . S
O241 Co238 1.970 . S
O241 C240 1.258 . S
O242 Co239 1.966 . S
O242 C240 1.263 . S
C243 O244 1.235 . S
C243 O270 1.289 . S
O244 C243 1.235 . S
C245 C247 1.400 . S
C245 N248 1.351 . S
C245 C250 1.501 . S
C246 C247 1.387 . S
C246 N249 1.341 . S
C247 C245 1.400 . S
C247 C246 1.387 . S
N248 Co239 2.022 1_554 S
N248 C245 1.351 . S
N248 N249 1.365 . S
N249 C246 1.341 . S
N249 N248 1.365 . S
N249 H269 0.862 . S
C250 C245 1.501 . S
C250 H251 0.961 . S
C250 H252 0.961 . S
C250 H253 0.960 . S
H251 C250 0.961 . S
H252 C250 0.961 . S
H253 C250 0.960 . S
C254 N255 1.342 . S
C254 C258 1.401 . S
C254 C259 1.499 . S
N255 Co238 1.989 . S
N255 C254 1.342 . S
N255 N256 1.388 . S
N256 Co239 1.993 . S
N256 N255 1.388 . S
N256 C257 1.346 . S
C257 N256 1.346 . S
C257 C258 1.396 . S
C257 C267 1.510 1_556 S
C258 C254 1.401 . S
C258 C257 1.396 . S
C259 C254 1.499 . S
C259 H260 0.959 . S
C259 H261 0.960 . S
C259 H262 0.961 . S
H260 C259 0.959 . S
H261 C259 0.960 . S
H262 C259 0.961 . S
O263 Co238 1.967 . S
O263 C271 1.258 . S
O264 Co239 1.941 . S
O264 C271 1.266 . S
H265 C267 0.959 . S
H266 C267 0.961 . S
C267 C257 1.510 1_554 S
C267 H265 0.959 . S
C267 H266 0.961 . S
C267 H268 0.960 . S
H268 C267 0.960 . S
H269 N249 0.862 . S
O270 Co238 1.920 . S
O270 C243 1.289 . S
C271 O263 1.258 . S
C271 O264 1.266 . S
Co272 O275 1.970 1_556 S
Co272 N289 1.989 1_556 S
Co272 O297 1.967 . S
Co272 O304 1.920 . S
Co273 O276 1.966 . S
Co273 N282 2.022 . S
Co273 N290 1.993 . S
Co273 O298 1.941 . S
C274 O275 1.258 . S
C274 O276 1.263 . S
O275 Co272 1.970 1_554 S
O275 C274 1.258 . S
O276 Co273 1.966 . S
O276 C274 1.263 . S
C277 O278 1.235 . S
C277 O304 1.289 . S
O278 C277 1.235 . S
C279 C281 1.400 . S
C279 N282 1.351 . S
C279 C284 1.501 . S
C280 C281 1.387 . S
C280 N283 1.341 . S
C281 C279 1.400 . S
C281 C280 1.387 . S
N282 Co273 2.022 . S
N282 C279 1.351 . S
N282 N283 1.365 . S
N283 C280 1.341 . S
N283 N282 1.365 . S
N283 H303 0.862 . S
C284 C279 1.501 . S
C284 H285 0.961 . S
C284 H286 0.961 . S
C284 H287 0.960 . S
H285 C284 0.961 . S
H286 C284 0.961 . S
H287 C284 0.960 . S
C288 N289 1.342 1_556 S
C288 C292 1.401 1_556 S
C288 C293 1.499 . S
N289 Co272 1.989 1_554 S
N289 C288 1.342 1_554 S
N289 N290 1.388 . S
N290 Co273 1.993 . S
N290 N289 1.388 . S
N290 C291 1.346 . S
C291 N290 1.346 . S
C291 C292 1.396 . S
C291 C301 1.510 . S
C292 C288 1.401 1_554 S
C292 C291 1.396 . S
C293 C288 1.499 . S
C293 H294 0.959 . S
C293 H295 0.960 . S
C293 H296 0.961 . S
H294 C293 0.959 . S
H295 C293 0.960 . S
H296 C293 0.961 . S
O297 Co272 1.967 . S
O297 C305 1.258 1_556 S
O298 Co273 1.941 . S
O298 C305 1.266 . S
H299 C301 0.959 . S
H300 C301 0.961 . S
C301 C291 1.510 . S
C301 H299 0.959 . S
C301 H300 0.961 . S
C301 H302 0.960 . S
H302 C301 0.960 . S
H303 N283 0.862 . S
O304 Co272 1.920 . S
O304 C277 1.289 . S
C305 O297 1.258 1_554 S
C305 O298 1.266 . S
Co306 O309 1.970 . S
Co306 N323 1.989 . S
Co306 O331 1.967 . S
Co306 O338 1.920 1_554 S
Co307 O310 1.966 . S
Co307 N316 2.022 . S
Co307 N324 1.993 . S
Co307 O332 1.941 . S
C308 O309 1.258 . S
C308 O310 1.263 . S
O309 Co306 1.970 . S
O309 C308 1.258 . S
O310 Co307 1.966 . S
O310 C308 1.263 . S
C311 O312 1.235 1_556 S
C311 O338 1.289 . S
O312 C311 1.235 1_554 S
C313 C315 1.400 . S
C313 N316 1.351 . S
C313 C318 1.501 . S
C314 C315 1.387 . S
C314 N317 1.341 . S
C315 C313 1.400 . S
C315 C314 1.387 . S
N316 Co307 2.022 . S
N316 C313 1.351 . S
N316 N317 1.365 . S
N317 C314 1.341 . S
N317 N316 1.365 . S
N317 H337 0.862 . S
C318 C313 1.501 . S
C318 H319 0.961 . S
C318 H320 0.961 . S
C318 H321 0.960 . S
H319 C318 0.961 . S
H320 C318 0.961 . S
H321 C318 0.960 . S
C322 N323 1.342 . S
C322 C326 1.401 . S
C322 C327 1.499 . S
N323 Co306 1.989 . S
N323 C322 1.342 . S
N323 N324 1.388 . S
N324 Co307 1.993 . S
N324 N323 1.388 . S
N324 C325 1.346 . S
C325 N324 1.346 . S
C325 C326 1.396 . S
C325 C335 1.510 . S
C326 C322 1.401 . S
C326 C325 1.396 . S
C327 C322 1.499 . S
C327 H328 0.959 . S
C327 H329 0.960 . S
C327 H330 0.961 . S
H328 C327 0.959 . S
H329 C327 0.960 . S
H330 C327 0.961 . S
O331 Co306 1.967 . S
O331 C339 1.258 . S
O332 Co307 1.941 . S
O332 C339 1.266 . S
H333 C335 0.959 . S
H334 C335 0.961 . S
C335 C325 1.510 . S
C335 H333 0.959 . S
C335 H334 0.961 . S
C335 H336 0.960 . S
H336 C335 0.960 . S
H337 N317 0.862 . S
O338 Co306 1.920 1_556 S
O338 C311 1.289 . S
C339 O331 1.258 . S
C339 O332 1.266 . S
Co340 O343 1.970 . S
Co340 N357 1.989 . S
Co340 O365 1.967 . S
Co340 O372 1.920 . S
Co341 O344 1.966 . S
Co341 N350 2.022 . S
Co341 N358 1.993 . S
Co341 O366 1.941 . S
C342 O343 1.258 . S
C342 O344 1.263 . S
O343 Co340 1.970 . S
O343 C342 1.258 . S
O344 Co341 1.966 . S
O344 C342 1.263 . S
C345 O346 1.235 . S
C345 O372 1.289 . S
O346 C345 1.235 . S
C347 C349 1.400 . S
C347 N350 1.351 . S
C347 C352 1.501 . S
C348 C349 1.387 . S
C348 N351 1.341 . S
C349 C347 1.400 . S
C349 C348 1.387 . S
N350 Co341 2.022 . S
N350 C347 1.351 . S
N350 N351 1.365 . S
N351 C348 1.341 . S
N351 N350 1.365 . S
N351 H371 0.862 . S
C352 C347 1.501 . S
C352 H353 0.961 . S
C352 H354 0.961 . S
C352 H355 0.960 . S
H353 C352 0.961 . S
H354 C352 0.961 . S
H355 C352 0.960 . S
C356 N357 1.342 . S
C356 C360 1.401 . S
C356 C361 1.499 . S
N357 Co340 1.989 . S
N357 C356 1.342 . S
N357 N358 1.388 . S
N358 Co341 1.993 . S
N358 N357 1.388 . S
N358 C359 1.346 . S
C359 N358 1.346 . S
C359 C360 1.396 . S
C359 C369 1.510 . S
C360 C356 1.401 . S
C360 C359 1.396 . S
C361 C356 1.499 . S
C361 H362 0.959 . S
C361 H363 0.960 . S
C361 H364 0.961 . S
H362 C361 0.959 . S
H363 C361 0.960 . S
H364 C361 0.961 . S
O365 Co340 1.967 . S
O365 C373 1.258 . S
O366 Co341 1.941 . S
O366 C373 1.266 . S
H367 C369 0.959 . S
H368 C369 0.961 . S
C369 C359 1.510 . S
C369 H367 0.959 . S
C369 H368 0.961 . S
C369 H370 0.960 . S
H370 C369 0.960 . S
H371 N351 0.862 . S
O372 Co340 1.920 . S
O372 C345 1.289 . S
C373 O365 1.258 . S
C373 O366 1.266 . S
Co374 O377 1.970 . S
Co374 N391 1.989 . S
Co374 O399 1.967 . S
Co374 O406 1.920 . S
Co375 O378 1.966 . S
Co375 N384 2.022 . S
Co375 N392 1.993 . S
Co375 O400 1.941 . S
C376 O377 1.258 . S
C376 O378 1.263 . S
O377 Co374 1.970 . S
O377 C376 1.258 . S
O378 Co375 1.966 . S
O378 C376 1.263 . S
C379 O380 1.235 . S
C379 O406 1.289 . S
O380 C379 1.235 . S
C381 C383 1.400 . S
C381 N384 1.351 . S
C381 C386 1.501 . S
C382 C383 1.387 . S
C382 N385 1.341 . S
C383 C381 1.400 . S
C383 C382 1.387 . S
N384 Co375 2.022 . S
N384 C381 1.351 . S
N384 N385 1.365 . S
N385 C382 1.341 . S
N385 N384 1.365 . S
N385 H405 0.862 . S
C386 C381 1.501 . S
C386 H387 0.961 . S
C386 H388 0.961 . S
C386 H389 0.960 . S
H387 C386 0.961 . S
H388 C386 0.961 . S
H389 C386 0.960 . S
C390 N391 1.342 . S
C390 C394 1.401 . S
C390 C395 1.499 . S
N391 Co374 1.989 . S
N391 C390 1.342 . S
N391 N392 1.388 . S
N392 Co375 1.993 . S
N392 N391 1.388 . S
N392 C393 1.346 . S
C393 N392 1.346 . S
C393 C394 1.396 . S
C393 C403 1.510 . S
C394 C390 1.401 . S
C394 C393 1.396 . S
C395 C390 1.499 . S
C395 H396 0.959 . S
C395 H397 0.960 . S
C395 H398 0.961 . S
H396 C395 0.959 . S
H397 C395 0.960 . S
H398 C395 0.961 . S
O399 Co374 1.967 . S
O399 C407 1.258 . S
O400 Co375 1.941 . S
O400 C407 1.266 . S
H401 C403 0.959 . S
H402 C403 0.961 . S
C403 C393 1.510 . S
C403 H401 0.959 . S
C403 H402 0.961 . S
C403 H404 0.960 . S
H404 C403 0.960 . S
H405 N385 0.862 . S
O406 Co374 1.920 . S
O406 C379 1.289 . S
C407 O399 1.258 . S
C407 O400 1.266 . S
C408 C409 1.369 . S
C408 C410 1.419 . S
C408 H412 0.930 . S
C409 C408 1.369 . S
C409 C418 1.429 . S
C410 C408 1.419 . S
C410 C411 1.363 . S
C410 H413 0.929 . S
C411 C410 1.363 . S
C411 C417 1.428 . S
H412 C408 0.930 . S
H413 C410 0.929 . S
S414 N415 1.613 . S
S414 N416 1.610 . S
N415 S414 1.613 . S
N415 C418 1.350 1_556 S
N416 S414 1.610 . S
N416 C417 1.351 1_556 S
C417 C411 1.428 . S
C417 N416 1.351 1_554 S
C417 C418 1.434 . S
C418 C409 1.429 . S
C418 N415 1.350 1_554 S
C418 C417 1.434 . S
C419 C420 1.369 . S
C419 C421 1.419 . S
C419 H423 0.930 . S
C420 C419 1.369 . S
C420 C429 1.429 . S
C421 C419 1.419 . S
C421 C422 1.363 . S
C421 H424 0.929 . S
C422 C421 1.363 . S
C422 C428 1.428 . S
H423 C419 0.930 . S
H424 C421 0.929 . S
S425 N426 1.613 . S
S425 N427 1.610 . S
N426 S425 1.613 . S
N426 C429 1.350 . S
N427 S425 1.610 . S
N427 C428 1.351 . S
C428 C422 1.428 . S
C428 N427 1.351 . S
C428 C429 1.434 . S
C429 C420 1.429 . S
C429 N426 1.350 . S
C429 C428 1.434 . S
C430 C431 1.369 . S
C430 C432 1.419 . S
C430 H434 0.930 . S
C431 C430 1.369 . S
C431 C440 1.429 . S
C432 C430 1.419 . S
C432 C433 1.363 . S
C432 H435 0.929 . S
C433 C432 1.363 . S
C433 C439 1.428 . S
H434 C430 0.930 . S
H435 C432 0.929 . S
S436 N437 1.613 . S
S436 N438 1.610 . S
N437 S436 1.613 . S
N437 C440 1.350 . S
N438 S436 1.610 . S
N438 C439 1.351 . S
C439 C433 1.428 . S
C439 N438 1.351 . S
C439 C440 1.434 . S
C440 C431 1.429 . S
C440 N437 1.350 . S
C440 C439 1.434 . S
C441 C442 1.369 . S
C441 C443 1.419 . S
C441 H445 0.930 . S
C442 C441 1.369 . S
C442 C451 1.429 . S
C443 C441 1.419 . S
C443 C444 1.363 . S
C443 H446 0.929 . S
C444 C443 1.363 . S
C444 C450 1.428 . S
H445 C441 0.930 . S
H446 C443 0.929 . S
S447 N448 1.613 . S
S447 N449 1.610 . S
N448 S447 1.613 . S
N448 C451 1.350 . S
N449 S447 1.610 . S
N449 C450 1.351 . S
C450 C444 1.428 . S
C450 N449 1.351 . S
C450 C451 1.434 . S
C451 C442 1.429 . S
C451 N448 1.350 . S
C451 C450 1.434 . S
C452 C453 1.369 . S
C452 C454 1.419 . S
C452 H456 0.930 . S
C453 C452 1.369 . S
C453 C462 1.429 . S
C454 C452 1.419 . S
C454 C455 1.363 . S
C454 H457 0.929 . S
C455 C454 1.363 . S
C455 C461 1.428 . S
H456 C452 0.930 . S
H457 C454 0.929 . S
S458 N459 1.613 . S
S458 N460 1.610 . S
N459 S458 1.613 . S
N459 C462 1.350 . S
N460 S458 1.610 . S
N460 C461 1.351 . S
C461 C455 1.428 . S
C461 N460 1.351 . S
C461 C462 1.434 . S
C462 C453 1.429 . S
C462 N459 1.350 . S
C462 C461 1.434 . S
C463 C464 1.369 . S
C463 C465 1.419 . S
C463 H467 0.930 1_556 S
C464 C463 1.369 . S
C464 C473 1.429 . S
C465 C463 1.419 . S
C465 C466 1.363 . S
C465 H468 0.929 1_556 S
C466 C465 1.363 . S
C466 C472 1.428 . S
H467 C463 0.930 1_554 S
H468 C465 0.929 1_554 S
S469 N470 1.613 . S
S469 N471 1.610 . S
N470 S469 1.613 . S
N470 C473 1.350 . S
N471 S469 1.610 . S
N471 C472 1.351 . S
C472 C466 1.428 . S
C472 N471 1.351 . S
C472 C473 1.434 . S
C473 C464 1.429 . S
C473 N470 1.350 . S
C473 C472 1.434 . S
C474 C475 1.369 . S
C474 C476 1.419 . S
C474 H478 0.930 . S
C475 C474 1.369 . S
C475 C484 1.429 . S
C476 C474 1.419 . S
C476 C477 1.363 . S
C476 H479 0.929 . S
C477 C476 1.363 . S
C477 C483 1.428 . S
H478 C474 0.930 . S
H479 C476 0.929 . S
S480 N481 1.613 . S
S480 N482 1.610 . S
N481 S480 1.613 . S
N481 C484 1.350 . S
N482 S480 1.610 . S
N482 C483 1.351 . S
C483 C477 1.428 . S
C483 N482 1.351 . S
C483 C484 1.434 . S
C484 C475 1.429 . S
C484 N481 1.350 . S
C484 C483 1.434 . S
C485 C486 1.369 . S
C485 C487 1.419 . S
C485 H489 0.930 . S
C486 C485 1.369 . S
C486 C495 1.429 . S
C487 C485 1.419 . S
C487 C488 1.363 . S
C487 H490 0.929 . S
C488 C487 1.363 . S
C488 C494 1.428 . S
H489 C485 0.930 . S
H490 C487 0.929 . S
S491 N492 1.613 . S
S491 N493 1.610 . S
N492 S491 1.613 . S
N492 C495 1.350 . S
N493 S491 1.610 . S
N493 C494 1.351 . S
C494 C488 1.428 . S
C494 N493 1.351 . S
C494 C495 1.434 . S
C495 C486 1.429 . S
C495 N492 1.350 . S
C495 C494 1.434 . S
C496 C497 1.369 . S
C496 C498 1.419 . S
C496 H500 0.930 . S
C497 C496 1.369 . S
C497 C506 1.429 . S
C498 C496 1.419 . S
C498 C499 1.363 . S
C498 H501 0.929 . S
C499 C498 1.363 . S
C499 C505 1.428 . S
H500 C496 0.930 . S
H501 C498 0.929 . S
S502 N503 1.613 . S
S502 N504 1.610 1_556 S
N503 S502 1.613 . S
N503 C506 1.350 . S
N504 S502 1.610 1_554 S
N504 C505 1.351 1_554 S
C505 C499 1.428 . S
C505 N504 1.351 1_556 S
C505 C506 1.434 . S
C506 C497 1.429 . S
C506 N503 1.350 . S
C506 C505 1.434 . S
C507 C508 1.369 1_554 S
C507 C509 1.419 . S
C507 H511 0.930 1_554 S
C508 C507 1.369 1_556 S
C508 C517 1.429 1_556 S
C509 C507 1.419 . S
C509 C510 1.363 . S
C509 H512 0.929 . S
C510 C509 1.363 . S
C510 C516 1.428 . S
H511 C507 0.930 1_556 S
H512 C509 0.929 . S
S513 N514 1.613 1_554 S
S513 N515 1.610 . S
N514 S513 1.613 1_556 S
N514 C517 1.350 1_556 S
N515 S513 1.610 . S
N515 C516 1.351 . S
C516 C510 1.428 . S
C516 N515 1.351 . S
C516 C517 1.434 . S
C517 C508 1.429 1_554 S
C517 N514 1.350 1_554 S
C517 C516 1.434 . S
C518 C519 1.369 . S
C518 C520 1.419 . S
C518 H522 0.930 . S
C519 C518 1.369 . S
C519 C528 1.429 . S
C520 C518 1.419 . S
C520 C521 1.363 . S
C520 H523 0.929 . S
C521 C520 1.363 . S
C521 C527 1.428 . S
H522 C518 0.930 . S
H523 C520 0.929 . S
S524 N525 1.613 . S
S524 N526 1.610 . S
N525 S524 1.613 . S
N525 C528 1.350 . S
N526 S524 1.610 . S
N526 C527 1.351 . S
C527 C521 1.428 . S
C527 N526 1.351 . S
C527 C528 1.434 . S
C528 C519 1.429 . S
C528 N525 1.350 . S
C528 C527 1.434 . S
C529 C530 1.369 . S
C529 C531 1.419 . S
C529 H533 0.930 . S
C530 C529 1.369 . S
C530 C539 1.429 . S
C531 C529 1.419 . S
C531 C532 1.363 . S
C531 H534 0.929 . S
C532 C531 1.363 . S
C532 C538 1.428 . S
H533 C529 0.930 . S
H534 C531 0.929 . S
S535 N536 1.613 . S
S535 N537 1.610 . S
N536 S535 1.613 . S
N536 C539 1.350 . S
N537 S535 1.610 . S
N537 C538 1.351 . S
C538 C532 1.428 . S
C538 N537 1.351 . S
C538 C539 1.434 . S
C539 C530 1.429 . S
C539 N536 1.350 . S
C539 C538 1.434 . S
C540 C541 1.369 . S
C540 C542 1.419 . S
C540 H544 0.930 . S
C541 C540 1.369 . S
C541 C550 1.429 . S
C542 C540 1.419 . S
C542 C543 1.363 . S
C542 H545 0.929 . S
C543 C542 1.363 . S
C543 C549 1.428 . S
H544 C540 0.930 . S
H545 C542 0.929 . S
S546 N547 1.613 . S
S546 N548 1.610 . S
N547 S546 1.613 . S
N547 C550 1.350 . S
N548 S546 1.610 . S
N548 C549 1.351 . S
C549 C543 1.428 . S
C549 N548 1.351 . S
C549 C550 1.434 . S
C550 C541 1.429 . S
C550 N547 1.350 . S
C550 C549 1.434 . S
C551 C552 1.369 . S
C551 C553 1.419 . S
C551 H555 0.930 . S
C552 C551 1.369 . S
C552 C561 1.429 . S
C553 C551 1.419 . S
C553 C554 1.363 . S
C553 H556 0.929 . S
C554 C553 1.363 . S
C554 C560 1.428 . S
H555 C551 0.930 . S
H556 C553 0.929 . S
S557 N558 1.613 . S
S557 N559 1.610 . S
N558 S557 1.613 . S
N558 C561 1.350 . S
N559 S557 1.610 . S
N559 C560 1.351 . S
C560 C554 1.428 . S
C560 N559 1.351 . S
C560 C561 1.434 . S
C561 C552 1.429 . S
C561 N558 1.350 . S
C561 C560 1.434 . S
C562 C563 1.369 . S
C562 C564 1.419 . S
C562 H566 0.930 . S
C563 C562 1.369 . S
C563 C572 1.429 . S
C564 C562 1.419 . S
C564 C565 1.363 . S
C564 H567 0.929 . S
C565 C564 1.363 . S
C565 C571 1.428 . S
H566 C562 0.930 . S
H567 C564 0.929 . S
S568 N569 1.613 . S
S568 N570 1.610 . S
N569 S568 1.613 . S
N569 C572 1.350 . S
N570 S568 1.610 . S
N570 C571 1.351 . S
C571 C565 1.428 . S
C571 N570 1.351 . S
C571 C572 1.434 . S
C572 C563 1.429 . S
C572 N569 1.350 . S
C572 C571 1.434 . S
C573 C574 1.369 . S
C573 C575 1.419 . S
C573 H577 0.930 . S
C574 C573 1.369 . S
C574 C583 1.429 . S
C575 C573 1.419 . S
C575 C576 1.363 . S
C575 H578 0.929 . S
C576 C575 1.363 . S
C576 C582 1.428 . S
H577 C573 0.930 . S
H578 C575 0.929 . S
S579 N580 1.613 . S
S579 N581 1.610 . S
N580 S579 1.613 . S
N580 C583 1.350 . S
N581 S579 1.610 . S
N581 C582 1.351 . S
C582 C576 1.428 . S
C582 N581 1.351 . S
C582 C583 1.434 . S
C583 C574 1.429 . S
C583 N580 1.350 . S
C583 C582 1.434 . S
C584 C585 1.369 . S
C584 C586 1.419 . S
C584 H588 0.930 . S
C585 C584 1.369 . S
C585 C594 1.429 . S
C586 C584 1.419 . S
C586 C587 1.363 1_556 S
C586 H589 0.929 . S
C587 C586 1.363 1_554 S
C587 C593 1.428 . S
H588 C584 0.930 . S
H589 C586 0.929 . S
S590 N591 1.613 1_554 S
S590 N592 1.610 . S
N591 S590 1.613 1_556 S
N591 C594 1.350 . S
N592 S590 1.610 . S
N592 C593 1.351 . S
C593 C587 1.428 . S
C593 N592 1.351 . S
C593 C594 1.434 1_554 S
C594 C585 1.429 . S
C594 N591 1.350 . S
C594 C593 1.434 1_556 S
C595 C596 1.369 . S
C595 C597 1.419 . S
C595 H599 0.930 . S
C596 C595 1.369 . S
C596 C605 1.429 . S
C597 C595 1.419 . S
C597 C598 1.363 . S
C597 H600 0.929 . S
C598 C597 1.363 . S
C598 C604 1.428 . S
H599 C595 0.930 . S
H600 C597 0.929 . S
S601 N602 1.613 . S
S601 N603 1.610 . S
N602 S601 1.613 . S
N602 C605 1.350 . S
N603 S601 1.610 . S
N603 C604 1.351 . S
C604 C598 1.428 . S
C604 N603 1.351 . S
C604 C605 1.434 . S
C605 C596 1.429 . S
C605 N602 1.350 . S
C605 C604 1.434 . S
C606 C607 1.369 . S
C606 C608 1.419 . S
C606 H610 0.930 . S
C607 C606 1.369 . S
C607 C616 1.429 . S
C608 C606 1.419 . S
C608 C609 1.363 . S
C608 H611 0.929 . S
C609 C608 1.363 . S
C609 C615 1.428 . S
H610 C606 0.930 . S
H611 C608 0.929 . S
S612 N613 1.613 . S
S612 N614 1.610 . S
N613 S612 1.613 . S
N613 C616 1.350 . S
N614 S612 1.610 . S
N614 C615 1.351 . S
C615 C609 1.428 . S
C615 N614 1.351 . S
C615 C616 1.434 . S
C616 C607 1.429 . S
C616 N613 1.350 . S
C616 C615 1.434 . S
C617 C618 1.369 . S
C617 C619 1.419 . S
C617 H621 0.930 . S
C618 C617 1.369 . S
C618 C627 1.429 . S
C619 C617 1.419 . S
C619 C620 1.363 . S
C619 H622 0.929 . S
C620 C619 1.363 . S
C620 C626 1.428 . S
H621 C617 0.930 . S
H622 C619 0.929 . S
S623 N624 1.613 . S
S623 N625 1.610 . S
N624 S623 1.613 . S
N624 C627 1.350 . S
N625 S623 1.610 . S
N625 C626 1.351 . S
C626 C620 1.428 . S
C626 N625 1.351 . S
C626 C627 1.434 . S
C627 C618 1.429 . S
C627 N624 1.350 . S
C627 C626 1.434 . S
C628 C629 1.369 . S
C628 C630 1.419 . S
C628 H632 0.930 . S
C629 C628 1.369 . S
C629 C638 1.429 . S
C630 C628 1.419 . S
C630 C631 1.363 . S
C630 H633 0.929 . S
C631 C630 1.363 . S
C631 C637 1.428 . S
H632 C628 0.930 . S
H633 C630 0.929 . S
S634 N635 1.613 . S
S634 N636 1.610 . S
N635 S634 1.613 . S
N635 C638 1.350 . S
N636 S634 1.610 . S
N636 C637 1.351 . S
C637 C631 1.428 . S
C637 N636 1.351 . S
C637 C638 1.434 . S
C638 C629 1.429 . S
C638 N635 1.350 . S
C638 C637 1.434 . S
C639 C640 1.369 . S
C639 C641 1.419 . S
C639 H643 0.930 . S
C640 C639 1.369 . S
C640 C649 1.429 . S
C641 C639 1.419 . S
C641 C642 1.363 . S
C641 H644 0.929 . S
C642 C641 1.363 . S
C642 C648 1.428 . S
H643 C639 0.930 . S
H644 C641 0.929 . S
S645 N646 1.613 . S
S645 N647 1.610 . S
N646 S645 1.613 . S
N646 C649 1.350 . S
N647 S645 1.610 . S
N647 C648 1.351 . S
C648 C642 1.428 . S
C648 N647 1.351 . S
C648 C649 1.434 . S
C649 C640 1.429 . S
C649 N646 1.350 . S
C649 C648 1.434 . S
C650 C651 1.369 . S
C650 C652 1.419 . S
C650 H654 0.930 1_556 S
C651 C650 1.369 . S
C651 C660 1.429 . S
C652 C650 1.419 . S
C652 C653 1.363 . S
C652 H655 0.929 . S
C653 C652 1.363 . S
C653 C659 1.428 . S
H654 C650 0.930 1_554 S
H655 C652 0.929 . S
S656 N657 1.613 . S
S656 N658 1.610 . S
N657 S656 1.613 . S
N657 C660 1.350 . S
N658 S656 1.610 . S
N658 C659 1.351 . S
C659 C653 1.428 . S
C659 N658 1.351 . S
C659 C660 1.434 . S
C660 C651 1.429 . S
C660 N657 1.350 . S
C660 C659 1.434 . S
C661 C662 1.369 . S
C661 C663 1.419 . S
C661 H665 0.930 . S
C662 C661 1.369 . S
C662 C671 1.429 . S
C663 C661 1.419 . S
C663 C664 1.363 . S
C663 H666 0.929 . S
C664 C663 1.363 . S
C664 C670 1.428 1_554 S
H665 C661 0.930 . S
H666 C663 0.929 . S
S667 N668 1.613 1_556 S
S667 N669 1.610 . S
N668 S667 1.613 1_554 S
N668 C671 1.350 . S
N669 S667 1.610 . S
N669 C670 1.351 . S
C670 C664 1.428 1_556 S
C670 N669 1.351 . S
C670 C671 1.434 1_556 S
C671 C662 1.429 . S
C671 N668 1.350 . S
C671 C670 1.434 1_554 S
C672 C673 1.369 1_556 S
C672 C674 1.419 1_545 S
C672 H676 0.930 . S
C673 C672 1.369 1_554 S
C673 C682 1.429 . S
C674 C672 1.419 1_565 S
C674 C675 1.363 . S
C674 H677 0.929 . S
C675 C674 1.363 . S
C675 C681 1.428 1_556 S
H676 C672 0.930 . S
H677 C674 0.929 . S
S678 N679 1.588 1_565 S
S678 N680 1.610 . S
N679 S678 1.588 1_545 S
N679 C682 1.357 . S
N680 S678 1.610 . S
N680 C681 1.351 . S
C681 C675 1.428 1_554 S
C681 N680 1.351 . S
C681 C682 1.434 1_565 S
C682 C673 1.429 . S
C682 N679 1.357 . S
C682 C681 1.434 1_545 S
C683 C684 1.369 . S
C683 C685 1.419 . S
C683 H687 0.930 . S
C684 C683 1.369 . S
C684 C693 1.429 . S
C685 C683 1.419 . S
C685 C686 1.363 . S
C685 H688 0.929 . S
C686 C685 1.363 . S
C686 C692 1.428 . S
H687 C683 0.930 . S
H688 C685 0.929 . S
S689 N690 1.613 . S
S689 N691 1.610 . S
N690 S689 1.613 . S
N690 C693 1.350 . S
N691 S689 1.610 . S
N691 C692 1.351 . S
C692 C686 1.428 . S
C692 N691 1.351 . S
C692 C693 1.434 . S
C693 C684 1.429 . S
C693 N690 1.350 . S
C693 C692 1.434 . S
C694 C695 1.369 . S
C694 C696 1.419 1_455 S
C694 H698 0.930 . S
C695 C694 1.369 . S
C695 C704 1.429 . S
C696 C694 1.419 1_655 S
C696 C697 1.363 . S
C696 H699 0.929 . S
C697 C696 1.363 . S
C697 C703 1.428 . S
H698 C694 0.930 . S
H699 C696 0.929 . S
S700 N701 1.613 . S
S700 N702 1.610 1_455 S
N701 S700 1.613 . S
N701 C704 1.350 . S
N702 S700 1.610 1_655 S
N702 C703 1.351 . S
C703 C697 1.428 . S
C703 N702 1.351 . S
C703 C704 1.434 1_655 S
C704 C695 1.429 . S
C704 N701 1.350 . S
C704 C703 1.434 1_455 S
C705 C706 1.369 . S
C705 C707 1.419 1_565 S
C705 H709 0.930 . S
C706 C705 1.369 . S
C706 C715 1.429 . S
C707 C705 1.419 1_545 S
C707 C708 1.363 . S
C707 H710 0.929 . S
C708 C707 1.363 . S
C708 C714 1.428 . S
H709 C705 0.930 . S
H710 C707 0.929 . S
S711 N712 1.613 . S
S711 N713 1.610 1_565 S
N712 S711 1.613 . S
N712 C715 1.350 . S
N713 S711 1.610 1_545 S
N713 C714 1.351 . S
C714 C708 1.428 . S
C714 N713 1.351 . S
C714 C715 1.434 1_545 S
C715 C706 1.429 . S
C715 N712 1.350 . S
C715 C714 1.434 1_565 S
C716 C717 1.369 . S
C716 C718 1.419 . S
C716 H720 0.930 . S
C717 C716 1.369 . S
C717 C726 1.429 . S
C718 C716 1.419 . S
C718 C719 1.363 . S
C718 H721 0.929 . S
C719 C718 1.363 . S
C719 C725 1.428 . S
H720 C716 0.930 . S
H721 C718 0.929 . S
S722 N723 1.613 . S
S722 N724 1.610 . S
N723 S722 1.613 . S
N723 C726 1.350 . S
N724 S722 1.610 . S
N724 C725 1.351 . S
C725 C719 1.428 . S
C725 N724 1.351 . S
C725 C726 1.434 . S
C726 C717 1.429 . S
C726 N723 1.350 . S
C726 C725 1.434 . S
C727 C728 1.369 . S
C727 C729 1.419 1_455 S
C727 H731 0.930 . S
C728 C727 1.369 . S
C728 C737 1.429 . S
C729 C727 1.419 1_655 S
C729 C730 1.363 . S
C729 H732 0.929 . S
C730 C729 1.363 . S
C730 C736 1.428 . S
H731 C727 0.930 . S
H732 C729 0.929 . S
S733 N734 1.634 . S
S733 N735 1.610 1_554 S
N734 S733 1.634 . S
N734 C737 1.354 1_654 S
N735 S733 1.610 1_556 S
N735 C736 1.351 . S
C736 C730 1.428 . S
C736 N735 1.351 . S
C736 C737 1.434 1_655 S
C737 C728 1.429 . S
C737 N734 1.354 1_456 S
C737 C736 1.434 1_455 S
C409 C292 1.521 . S
C411 C20 1.521 . S
C420 C326 1.521 . S
C422 C54 1.521 . S
C431 C360 1.520 . S
C433 C88 1.521 . S
C442 C394 1.521 . S
C444 C122 1.521 . S
C453 C156 1.521 . S
C455 C224 1.521 . S
C464 C258 1.521 . S
C466 C190 1.521 . S
C475 C9 1.412 . S
C477 C5 1.396 . S
C486 C39 1.395 . S
C488 C43 1.413 . S
C497 C73 1.400 . S
C499 C77 1.415 1_556 S
C508 C107 1.396 . S
C510 C111 1.414 . S
C519 C141 1.401 . S
C521 C145 1.414 . S
C530 C175 1.399 . S
C532 C179 1.415 . S
C541 C213 1.411 . S
C543 C209 1.396 . S
C552 C243 1.399 . S
C554 C247 1.415 . S
C563 C281 1.412 . S
C565 C277 1.399 . S
C574 C315 1.415 . S
C576 C311 1.401 . S
C585 C349 1.412 . S
C587 C345 1.396 . S
C596 C379 1.396 . S
C598 C383 1.412 1_554 S
C607 C33 1.644 . S
C609 C373 1.647 . S
C618 C67 1.643 . S
C620 C407 1.648 . S
C629 C101 1.648 . S
C631 C237 1.643 . S
C640 C271 1.646 . S
C642 C135 1.644 . S
C651 C305 1.645 1_556 S
C653 C169 1.646 . S
C662 C339 1.643 . S
C664 C203 1.648 1_554 S
C673 C2 1.628 . S
C675 C240 1.624 . S
C684 C274 1.626 . S
C686 C36 1.627 . S
C695 C308 1.624 . S
C697 C70 1.627 . S
C706 C104 1.627 . S
C708 C342 1.627 . S
C717 C376 1.628 . S
C719 C138 1.625 . S
C728 C172 1.628 . S
C730 C206 1.624 . S
