# Generated by pormake.
# Topology uni, (4)-cn, num edge types: 1
# Building blocks:
#     Node 0, Type 0, BuildingBlock: KUFVIS_clean_sbu_0, # of connection points: 4
#     Node 1, Type 0, BuildingBlock: KUFVIS_clean_sbu_0, # of connection points: 4
#     Node 2, Type 0, BuildingBlock: KUFVIS_clean_sbu_0, # of connection points: 4
#     Node 3, Type 0, BuildingBlock: KUFVIS_clean_sbu_0, # of connection points: 4
#     Node 4, Type 0, BuildingBlock: KUFVIS_clean_sbu_0, # of connection points: 4
#     Node 5, Type 0, BuildingBlock: KUFVIS_clean_sbu_0, # of connection points: 4
#     Edge 6, Type (0, 0), BuildingBlock: ZUJKAS_clean_linker_0, # of connection points: 2
#     Edge 7, Type (0, 0), BuildingBlock: ZUJKAS_clean_linker_0, # of connection points: 2
#     Edge 8, Type (0, 0), BuildingBlock: ZUJKAS_clean_linker_0, # of connection points: 2
#     Edge 9, Type (0, 0), BuildingBlock: ZUJKAS_clean_linker_0, # of connection points: 2
#     Edge 10, Type (0, 0), BuildingBlock: ZUJKAS_clean_linker_0, # of connection points: 2
#     Edge 11, Type (0, 0), BuildingBlock: ZUJKAS_clean_linker_0, # of connection points: 2
#     Edge 12, Type (0, 0), BuildingBlock: ZUJKAS_clean_linker_0, # of connection points: 2
#     Edge 13, Type (0, 0), BuildingBlock: ZUJKAS_clean_linker_0, # of connection points: 2
#     Edge 14, Type (0, 0), BuildingBlock: ZUJKAS_clean_linker_0, # of connection points: 2
#     Edge 15, Type (0, 0), BuildingBlock: ZUJKAS_clean_linker_0, # of connection points: 2
#     Edge 16, Type (0, 0), BuildingBlock: ZUJKAS_clean_linker_0, # of connection points: 2
#     Edge 17, Type (0, 0), BuildingBlock: ZUJKAS_clean_linker_0, # of connection points: 2
# Relax obj value: 0.055
# Max RMSD: 0.074
# Mean RMSD: 0.074
data_MOF--net-uni--node1-KUFVIS_clean_sbu_0--edge1-ZUJKAS_clean_linker_0
_symmetry_space_group_name_H-M    P1
_symmetry_Int_Tables_number       1
_symmetry_cell_setting            triclinic
loop_
_symmetry_equiv_pos_as_xyz
'x, y, z'
_cell_length_a     49.422565
_cell_length_b     49.472388
_cell_length_c     29.889751
_cell_angle_alpha  90.034014
_cell_angle_beta   90.04796
_cell_angle_gamma 119.86882
loop_
_atom_site_label
_atom_site_type_symbol
_atom_site_fract_x
_atom_site_fract_y
_atom_site_fract_z
_atom_type_partial_charge
Mn0 Mn 0.66276 0.0429 0.0695 0.0
Mn1 Mn 0.66471 0.111 0.09006 0.0
C2 C 0.62688 0.04445 0.11835 0.0
C3 C 0.67824 1.00609 0.08382 0.0
C4 C 0.63691 0.07317 0.00566 0.0
O5 O 0.70608 0.0751 0.04663 0.0
O6 O 0.70489 0.11865 0.06459 0.0
C7 C 0.71226 0.13413 0.16202 0.0
N8 N 0.68333 0.12673 0.14712 0.0
C9 C 0.67276 0.14644 0.21444 0.0
C10 C 0.7025 0.15442 0.23051 0.0
C11 C 0.72223 0.14799 0.20431 0.0
C12 C 0.66388 0.13208 0.17248 0.0
H13 H 0.72764 0.12961 0.1417 0.0
C14 C 0.71878 0.10475 0.04886 0.0
O15 O 0.66744 1.00801 0.04511 0.0
O16 O 0.68105 0.02629 0.11392 0.0
N17 N 0.62774 0.10787 0.11522 0.0
C18 C 0.59934 0.09747 0.09564 0.0
C19 C 0.57663 0.10163 0.11778 0.0
C20 C 0.58364 0.11713 0.15918 0.0
C21 C 0.6131 0.12775 0.17857 0.0
C22 C 0.63457 0.12245 0.15532 0.0
H23 H 0.59415 0.08631 0.06325 0.0
O24 O 0.6212 0.01857 0.0993 0.0
O25 O 0.65369 0.06873 0.10897 0.0
O26 O 0.64223 0.05121 0.01572 0.0
O27 O 0.64462 0.09675 0.03088 0.0
C28 C 0.62208 0.14353 0.21992 0.0
C29 C 0.65168 0.15239 0.23821 0.0
H30 H 0.7104 0.16545 0.26288 0.0
H31 H 0.74519 0.15402 0.21649 0.0
H32 H 0.55394 0.09336 0.10263 0.0
H33 H 0.56619 0.12067 0.17585 0.0
H34 H 0.60623 0.14857 0.23829 0.0
H35 H 0.65803 0.16389 0.27048 0.0
Mn36 Mn 0.65424 0.66126 0.23766 0.0
Mn37 Mn 0.58609 0.65821 0.26277 0.0
C38 C 0.61947 0.6236 0.28668 0.0
C39 C 0.70718 0.67904 0.2503 0.0
C40 C 0.59697 0.63346 0.17589 0.0
O41 O 0.66206 0.70401 0.21719 0.0
O42 O 0.61621 0.69963 0.23765 0.0
C43 C 0.60897 0.70459 0.33623 0.0
N44 N 0.58874 0.6754 0.32094 0.0
C45 C 0.56175 0.6609 0.39146 0.0
C46 C 0.58219 0.69087 0.40789 0.0
C47 C 0.60596 0.71277 0.38019 0.0
C48 C 0.56589 0.6541 0.34737 0.0
H49 H 0.62726 0.72149 0.31503 0.0
C50 C 0.64368 0.71508 0.22103 0.0
O51 O 0.69445 0.66873 0.21144 0.0
O52 O 0.6895 0.68045 0.28124 0.0
N53 N 0.55458 0.61976 0.28782 0.0
C54 C 0.53794 0.59139 0.26768 0.0
C55 C 0.51337 0.56679 0.29098 0.0
C56 C 0.50603 0.57168 0.33455 0.0
C57 C 0.52365 0.60098 0.35471 0.0
C58 C 0.54758 0.62472 0.32964 0.0
H59 H 0.54327 0.58762 0.23401 0.0
O60 O 0.64021 0.61971 0.26561 0.0
O61 O 0.6197 0.6496 0.27873 0.0
O62 O 0.62497 0.64033 0.18442 0.0
O63 O 0.58048 0.63939 0.20269 0.0
C64 C 0.51861 0.60746 0.39885 0.0
C65 C 0.53775 0.63736 0.41729 0.0
H66 H 0.57999 0.69725 0.44182 0.0
H67 H 0.62191 0.7359 0.3927 0.0
H68 H 0.49999 0.54417 0.27532 0.0
H69 H 0.48693 0.55272 0.35232 0.0
H70 H 0.50035 0.5895 0.41911 0.0
H71 H 0.53395 0.64194 0.45148 0.0
Mn72 Mn 0.0309 0.65825 0.40266 0.0
Mn73 Mn 0.96811 0.58952 0.43125 0.0
C74 C 0.036 0.62583 0.45371 0.0
C75 C 0.06409 0.71165 0.41334 0.0
C76 C 1.00276 0.59981 0.34352 0.0
O77 O 0.9945 0.66357 0.38157 0.0
O78 O 0.95444 0.61787 0.40537 0.0
C79 C 0.94397 0.61193 0.50451 0.0
N80 N 0.95436 0.59266 0.48977 0.0
C81 C 0.94651 0.56875 0.56227 0.0
C82 C 0.93552 0.58821 0.57815 0.0
C83 C 0.93432 0.60993 0.54915 0.0
C84 C 0.95567 0.57171 0.5174 0.0
H85 H 0.94311 0.62874 0.48238 0.0
C86 C 0.96534 0.64472 0.38696 0.0
O87 O 0.06231 0.69842 0.37508 0.0
O88 O 0.04541 0.69414 0.44465 0.0
N89 N 0.97784 0.56 0.45715 0.0
C90 C 0.99061 0.54416 0.43727 0.0
C91 C 0.99414 0.52199 0.46203 0.0
C92 C 0.98433 0.51619 0.50682 0.0
C93 C 0.97108 0.53263 0.52647 0.0
C94 C 0.96788 0.55423 0.50002 0.0
H95 H 0.9982 0.54851 0.40287 0.0
O96 O 0.06006 0.64658 0.43186 0.0
O97 O 1.00963 0.62466 0.44519 0.0
O98 O 0.0234 0.62813 0.35086 0.0
O99 O 0.98087 0.58349 0.37105 0.0
C100 C 0.96148 0.52886 0.57151 0.0
C101 C 0.94926 0.54695 0.58942 0.0
H102 H 0.92821 0.58685 0.61262 0.0
H103 H 0.92602 0.62513 0.56122 0.0
H104 H 1.00446 0.50945 0.44666 0.0
H105 H 0.98723 0.49918 0.52586 0.0
H106 H 0.96385 0.51246 0.59284 0.0
H107 H 0.94238 0.54417 0.62426 0.0
Mn108 Mn 0.40908 0.02973 0.56881 0.0
Mn109 Mn 0.41303 0.96504 0.59281 0.0
C110 C 0.44703 0.03265 0.61742 0.0
C111 C 0.39109 0.06471 0.58161 0.0
C112 C 0.43831 1.00125 0.50719 0.0
O113 O 0.3663 0.99512 0.54881 0.0
O114 O 0.37244 0.95396 0.5641 0.0
C115 C 0.36384 0.94003 0.66231 0.0
N116 N 0.39365 0.94935 0.64947 0.0
C117 C 0.40561 0.93585 0.72123 0.0
C118 C 0.37499 0.92593 0.73514 0.0
C119 C 0.35405 0.92813 0.70559 0.0
C120 C 0.41403 0.94751 0.67772 0.0
H121 H 0.34766 0.94167 0.63971 0.0
C122 C 0.35641 0.96587 0.54902 0.0
O123 O 0.4013 0.06228 0.54269 0.0
O124 O 0.39013 0.0459 0.61264 0.0
N125 N 0.45055 0.97147 0.62098 0.0
C126 C 0.47966 0.98349 0.60316 0.0
C127 C 0.50345 0.98324 0.62855 0.0
C128 C 0.49701 0.97043 0.67178 0.0
C129 C 0.46693 0.95833 0.68947 0.0
C130 C 0.44407 0.95885 0.66241 0.0
H131 H 0.48466 0.99314 0.56982 0.0
O132 O 0.45081 0.05716 0.59623 0.0
O133 O 0.42099 1.00687 0.60969 0.0
O134 O 0.42945 0.02101 0.51504 0.0
O135 O 0.4341 0.97968 0.53452 0.0
C136 C 0.45884 0.94613 0.73308 0.0
C137 C 0.42824 0.93504 0.74903 0.0
H138 H 0.36736 0.9168 0.76853 0.0
H139 H 0.33041 0.92065 0.71614 0.0
H140 H 0.52668 0.99279 0.61478 0.0
H141 H 0.51538 0.97017 0.69124 0.0
H142 H 0.47609 0.94556 0.75484 0.0
H143 H 0.42241 0.92611 0.78284 0.0
Mn144 Mn 0.41251 0.40821 0.73681 0.0
Mn145 Mn 0.48062 0.41127 0.76256 0.0
C146 C 0.44703 0.44574 0.78638 0.0
C147 C 0.35945 0.38998 0.74862 0.0
C148 C 0.46994 0.43615 0.67565 0.0
O149 O 0.40493 0.36562 0.71593 0.0
O150 O 0.45056 0.36982 0.7373 0.0
C151 C 0.45764 0.36494 0.83593 0.0
N152 N 0.4779 0.39412 0.82073 0.0
C153 C 0.50486 0.40864 0.89137 0.0
C154 C 0.48441 0.37868 0.90771 0.0
C155 C 0.46063 0.35678 0.8799 0.0
C156 C 0.50074 0.41542 0.84727 0.0
H157 H 0.43935 0.34804 0.81465 0.0
C158 C 0.42321 0.35447 0.72019 0.0
O159 O 0.37242 0.40063 0.71004 0.0
O160 O 0.37703 0.38865 0.77984 0.0
N161 N 0.51206 0.44974 0.78779 0.0
C162 C 0.5287 0.4781 0.76773 0.0
C163 C 0.55328 0.50271 0.79115 0.0
C164 C 0.56061 0.49782 0.83473 0.0
C165 C 0.54299 0.46854 0.85481 0.0
C166 C 0.51906 0.44479 0.82963 0.0
H167 H 0.52339 0.48187 0.73405 0.0
O168 O 0.42629 0.44961 0.76523 0.0
O169 O 0.44691 0.41981 0.77825 0.0
O170 O 0.44198 0.42942 0.68404 0.0
O171 O 0.48632 0.43005 0.70247 0.0
C172 C 0.54802 0.46207 0.89896 0.0
C173 C 0.52886 0.43218 0.91731 0.0
H174 H 0.48659 0.37231 0.94164 0.0
H175 H 0.44466 0.33365 0.89234 0.0
H176 H 0.56667 0.52533 0.77556 0.0
H177 H 0.57973 0.51678 0.85258 0.0
H178 H 0.56628 0.48003 0.9193 0.0
H179 H 0.53265 0.42761 0.95151 0.0
Mn180 Mn 0.03798 0.41368 0.90131 0.0
Mn181 Mn 0.10264 0.48109 0.92924 0.0
C182 C 0.03491 0.44712 0.95288 0.0
C183 C 1.00405 0.36029 0.91099 0.0
C184 C 0.06755 0.47183 0.84205 0.0
O185 O 0.07334 0.40697 0.87896 0.0
O186 O 0.11459 0.45139 0.90398 0.0
C187 C 0.12536 0.45761 1.00297 0.0
N188 N 0.11605 0.47767 0.98787 0.0
C189 C 0.12633 0.50321 0.05945 0.0
C190 C 0.13618 0.48294 0.07573 0.0
C191 C 0.13556 0.45995 0.04741 0.0
C192 C 0.1162 0.49962 0.01497 0.0
H193 H 0.12502 0.43999 0.98125 0.0
C194 C 0.10267 0.42465 0.88493 0.0
O195 O 1.00586 0.37404 0.87325 0.0
O196 O 0.02275 0.37737 0.9427 0.0
N197 N 0.09465 0.51197 0.95455 0.0
C198 C 0.08331 0.52892 0.93417 0.0
C199 C 0.0817 0.55246 0.95826 0.0
C200 C 0.09222 0.55866 1.00275 0.0
C201 C 0.10425 0.54123 0.02278 0.0
C202 C 0.10513 0.51796 0.99721 0.0
H203 H 0.07546 0.52446 0.89984 0.0
O204 O 1.01015 0.42666 0.93181 0.0
O205 O 0.06061 0.44715 0.94361 0.0
O206 O 0.04575 0.44416 0.85015 0.0
O207 O 0.09037 0.48736 0.86872 0.0
C208 C 0.1153 0.54595 0.06715 0.0
C209 C 0.12604 0.52676 0.08564 0.0
H210 H 0.14415 0.48473 0.10995 0.0
H211 H 0.14303 0.44415 0.05977 0.0
H212 H 0.07245 0.56585 0.94252 0.0
H213 H 0.09091 0.5768 0.02125 0.0
H214 H 0.11527 0.56404 0.08756 0.0
H215 H 0.13395 0.53027 0.12007 0.0
H216 H 0.56359 0.01628 0.11827 0.0
H217 H 0.52943 0.00963 0.18191 0.0
H218 H 0.61038 0.06148 0.26575 0.0
H219 H 0.64435 0.0686 0.20197 0.0
H220 H 0.52372 0.97963 0.25921 0.0
H221 H 0.56085 0.10288 0.29865 0.0
H222 H 0.56684 0.09012 0.24502 0.0
H223 H 0.59253 0.09532 0.29114 0.0
C224 C 0.57397 0.02683 0.15012 0.0
C225 C 0.60654 0.0438 0.15498 0.0
C226 C 0.55449 0.02292 0.18648 0.0
C227 C 0.56724 0.03552 0.22859 0.0
C228 C 0.59988 0.05239 0.23341 0.0
H229 H 0.47344 0.97426 0.48583 0.0
H230 H 0.50286 0.98074 0.41725 0.0
C231 C 0.61932 0.05651 0.19694 0.0
C232 C 0.54646 0.02943 0.26796 0.0
H233 H 0.53006 0.06555 0.35244 0.0
C234 C 0.52496 0.99843 0.27942 0.0
C235 C 0.54766 0.05384 0.29416 0.0
C236 C 0.56803 0.08748 0.2816 0.0
C237 C 0.5051 0.99129 0.31662 0.0
C238 C 0.50735 0.0158 0.34379 0.0
C239 C 0.52851 0.04671 0.33195 0.0
C240 C 0.48804 0.01025 0.38456 0.0
C241 C 0.48154 0.95761 0.32583 0.0
C242 C 0.47045 0.02526 0.38966 0.0
C243 C 0.45411 0.02215 0.42925 0.0
C244 C 0.45485 1.00378 0.46461 0.0
C245 C 0.47213 0.98839 0.45919 0.0
C246 C 0.48878 0.99185 0.41976 0.0
H247 H 0.47615 0.94312 0.29514 0.0
H248 H 0.49127 0.94827 0.35098 0.0
H249 H 0.45947 0.95515 0.3392 0.0
H250 H 0.4696 0.0397 0.36307 0.0
H251 H 0.44096 0.03422 0.43215 0.0
H252 H 0.59178 0.56034 0.28877 0.0
H253 H 0.56696 0.52597 0.35292 0.0
H254 H 0.58393 0.60565 0.43292 0.0
H255 H 0.61178 0.63999 0.37029 0.0
H256 H 0.59549 0.57175 0.48051 0.0
H257 H 0.51374 0.48802 0.37466 0.0
H258 H 0.51323 0.52398 0.3699 0.0
H259 H 0.48277 0.4916 0.39974 0.0
C260 C 0.58986 0.57033 0.32005 0.0
C261 C 0.60206 0.60262 0.32402 0.0
C262 C 0.5754 0.55066 0.35662 0.0
C263 C 0.5723 0.56287 0.39761 0.0
C264 C 0.58539 0.59536 0.40166 0.0
H265 H 0.44727 0.46202 0.61579 0.0
H266 H 0.47276 0.49191 0.54855 0.0
C267 C 0.60073 0.61501 0.36558 0.0
C268 C 0.55702 0.54236 0.4371 0.0
H269 H 0.49143 0.47654 0.47218 0.0
C270 C 0.5726 0.55109 0.47854 0.0
C271 C 0.52715 0.51513 0.43496 0.0
C272 C 0.50819 0.50434 0.39247 0.0
C273 C 0.55914 0.53391 0.51766 0.0
C274 C 0.52963 0.50652 0.51525 0.0
C275 C 0.51412 0.4975 0.47394 0.0
C276 C 0.51395 0.48745 0.55546 0.0
C277 C 0.57634 0.54587 0.56142 0.0
C278 C 0.52834 0.47445 0.58131 0.0
C279 C 0.51394 0.45755 0.62006 0.0
C280 C 0.4846 0.45287 0.63342 0.0
C281 C 0.46984 0.46513 0.60663 0.0
C282 C 0.48438 0.48224 0.56811 0.0
H283 H 0.59398 0.57107 0.5596 0.0
H284 H 0.55997 0.54232 0.58916 0.0
H285 H 0.58877 0.533 0.56954 0.0
H286 H 0.55078 0.47746 0.57161 0.0
H287 H 0.5259 0.44823 0.63958 0.0
H288 H 0.01677 0.45489 0.78808 0.0
H289 H 1.0136 0.48129 0.72099 0.0
H290 H 0.11138 0.54929 0.73341 0.0
H291 H 0.11447 0.52368 0.80157 0.0
H292 H 0.0794 0.57724 0.71589 0.0
H293 H 0.04181 0.4794 0.59665 0.0
H294 H 0.01556 0.46915 0.64304 0.0
H295 H 0.05524 0.47819 0.65234 0.0
C296 C 0.0377 0.4753 0.77635 0.0
C297 C 0.06593 0.48705 0.80014 0.0
C298 C 0.03589 0.49028 0.73774 0.0
C299 C 0.0624 0.51693 0.72146 0.0
C300 C 0.09062 0.52868 0.74512 0.0
H301 H 0.06789 0.59418 0.45628 0.0
H302 H 0.07661 0.56936 0.52163 0.0
C303 C 0.09236 0.51398 0.7841 0.0
C304 C 0.06041 0.53339 0.681 0.0
H305 H 0.03677 0.52259 0.57185 0.0
C306 C 0.07028 0.5653 0.6843 0.0
C307 C 0.04899 0.51803 0.63948 0.0
C308 C 0.04012 0.4844 0.63247 0.0
C309 C 0.06846 0.58209 0.64767 0.0
C310 C 0.05547 0.56634 0.60688 0.0
C311 C 0.04627 0.5346 0.60325 0.0
C312 C 0.05104 0.58221 0.56764 0.0
C313 C 0.08109 0.61668 0.65297 0.0
C314 C 0.03387 0.59773 0.57169 0.0
C315 C 0.02913 0.612 0.53454 0.0
C316 C 0.04054 0.61012 0.4924 0.0
C317 C 0.05827 0.59525 0.48836 0.0
C318 C 0.06321 0.5811 0.5256 0.0
H319 H 0.09908 0.62663 0.67973 0.0
H320 H 0.09153 0.62937 0.62135 0.0
H321 H 0.06179 0.62083 0.66266 0.0
H322 H 0.02368 0.59842 0.60341 0.0
H323 H 0.01629 0.62431 0.53865 0.0
H324 H 0.62506 0.11686 0.9682 0.0
H325 H 0.59535 0.11188 0.90033 0.0
H326 H 0.57996 0.01898 0.87985 0.0
H327 H 0.61024 0.02393 0.94709 0.0
H328 H 0.59541 0.05268 0.80229 0.0
H329 H 0.50117 0.0614 0.88997 0.0
H330 H 0.53943 0.09404 0.89951 0.0
H331 H 0.53002 0.05604 0.91944 0.0
C332 C 0.61546 0.09536 0.94927 0.0
C333 C 0.61995 0.07073 0.9634 0.0
C334 C 0.59828 0.0925 0.91057 0.0
C335 C 0.58489 0.06483 0.88548 0.0
C336 C 0.58994 0.04049 0.89883 0.0
H337 H 0.4311 1.00842 0.701 0.0
H338 H 0.46584 0.01533 0.76353 0.0
C339 C 0.60726 0.04338 0.93736 0.0
C340 C 0.56553 0.06109 0.84537 0.0
H341 H 0.49981 0.06127 0.8109 0.0
C342 C 0.57438 0.05437 0.8041 0.0
C343 C 0.53805 0.06316 0.84787 0.0
C344 C 0.52638 0.06876 0.89162 0.0
C345 C 0.55649 0.04954 0.76522 0.0
C346 C 0.52914 0.05209 0.76746 0.0
C347 C 0.52057 0.05912 0.80887 0.0
C348 C 0.5084 0.04665 0.72808 0.0
C349 C 0.56716 0.04128 0.72271 0.0
C350 C 0.52037 0.06196 0.6871 0.0
C351 C 0.50049 0.05664 0.65065 0.0
C352 C 0.46822 0.03638 0.6547 0.0
C353 C 0.45606 0.02258 0.69625 0.0
C354 C 0.47594 0.02708 0.73225 0.0
H355 H 0.58328 0.06306 0.70469 0.0
H356 H 0.58013 0.02878 0.72996 0.0
H357 H 0.54744 0.02655 0.70029 0.0
H358 H 0.54503 0.07831 0.68333 0.0
H359 H 0.51029 0.06858 0.61937 0.0
H360 H 0.54096 0.62119 0.13968 0.0
H361 H 0.51607 0.59184 0.07169 0.0
H362 H 0.5943 0.57776 0.04865 0.0
H363 H 0.61981 0.60778 0.11596 0.0
H364 H 0.57533 0.59286 0.97223 0.0
H365 H 0.47319 0.49823 0.05969 0.0
H366 H 0.47824 0.53623 0.06972 0.0
H367 H 0.50722 0.52711 0.08923 0.0
C368 C 0.55297 0.61193 0.12016 0.0
C369 C 0.58237 0.61675 0.13356 0.0
C370 C 0.53857 0.59496 0.0814 0.0
C371 C 0.553 0.58201 0.05555 0.0
C372 C 0.58264 0.58738 0.06821 0.0
H373 H 0.45472 0.42933 0.86999 0.0
H374 H 0.48268 0.46365 0.93272 0.0
C375 C 0.59719 0.60457 0.10676 0.0
C376 C 0.53729 0.56285 0.01534 0.0
H377 H 0.47139 0.49753 0.98059 0.0
C378 C 0.55267 0.57188 0.974 0.0
C379 C 0.50781 0.53542 0.01775 0.0
C380 C 0.49074 0.52345 0.06153 0.0
C381 C 0.53954 0.55422 0.93499 0.0
C382 C 0.5097 0.52696 0.93712 0.0
C383 C 0.49425 0.51822 0.9786 0.0
C384 C 0.4943 0.50645 0.89758 0.0
C385 C 0.55838 0.56505 0.89247 0.0
C386 C 0.49113 0.51866 0.85665 0.0
C387 C 0.47662 0.499 0.82001 0.0
C388 C 0.46442 0.46671 0.82385 0.0
C389 C 0.46577 0.4543 0.86537 0.0
C390 C 0.48118 0.47395 0.90152 0.0
H391 H 0.58382 0.57775 0.89969 0.0
H392 H 0.55326 0.54544 0.86974 0.0
H393 H 0.55281 0.58142 0.87486 0.0
H394 H 0.49957 0.54335 0.85304 0.0
H395 H 0.47466 0.50899 0.78877 0.0
H396 H 0.05228 0.44561 0.03828 0.0
H397 H 0.04479 0.47078 0.10395 0.0
H398 H 1.00329 0.5114 0.01999 0.0
H399 H 1.00933 0.48474 0.95475 0.0
H400 H 0.06691 0.52743 0.127 0.0
H401 H 0.93921 0.4769 0.11482 0.0
H402 H 0.96016 0.46358 0.08036 0.0
H403 H 0.95826 0.49783 0.065 0.0
C404 C 0.04157 0.45996 0.03405 0.0
C405 C 0.03186 0.46382 0.9916 0.0
C406 C 0.0372 0.47426 0.07153 0.0
C407 C 0.02294 0.49264 0.06729 0.0
C408 C 1.01344 0.49662 0.02458 0.0
H409 H 0.04086 0.62726 0.27105 0.0
H410 H 0.04522 0.60179 0.20352 0.0
C411 C 0.01722 0.48173 0.98722 0.0
C412 C 0.01889 0.50821 0.1074 0.0
H413 H 0.96575 0.51947 0.16557 0.0
C414 C 0.04485 0.52585 0.13506 0.0
C415 C 0.98977 0.50529 0.11922 0.0
C416 C 0.96022 0.48459 0.09356 0.0
C417 C 0.04283 0.54124 0.17328 0.0
C418 C 1.0141 0.53945 0.18392 0.0
C419 C 0.98792 0.52131 0.15693 0.0
C420 C 1.01049 0.55526 0.2239 0.0
C421 C 0.07137 0.5586 0.20249 0.0
C422 C 0.9887 0.53777 0.25712 0.0
C423 C 0.98586 0.55228 0.29556 0.0
C424 C 1.00479 0.58468 0.30165 0.0
C425 C 0.02612 0.60225 0.26777 0.0
C426 C 0.02878 0.5877 0.22919 0.0
H427 H 0.08856 0.55071 0.19665 0.0
H428 H 0.08295 0.58383 0.19457 0.0
H429 H 0.065 0.55553 0.23848 0.0
H430 H 0.97425 0.51272 0.2537 0.0
H431 H 0.96916 0.53796 0.32083 0.0
H432 H 0.61503 0.74911 0.23658 0.0
H433 H 0.629 0.80041 0.20804 0.0
H434 H 0.7091 0.80622 0.1416 0.0
H435 H 0.69537 0.75439 0.17052 0.0
H436 H 0.72048 0.8627 0.18684 0.0
H437 H 0.61703 0.81598 0.07592 0.0
H438 H 0.6073 0.80308 0.13276 0.0
H439 H 0.63063 0.79157 0.10053 0.0
C440 C 0.63566 0.76111 0.2159 0.0
C441 C 0.65383 0.74728 0.20538 0.0
C442 C 0.64357 0.79051 0.19954 0.0
C443 C 0.6697 0.80686 0.17197 0.0
C444 C 0.68866 0.79383 0.16257 0.0
H445 H 0.67972 0.96435 0.02544 0.0
H446 H 0.6835 0.91814 0.04338 0.0
C447 C 0.68078 0.76423 0.1791 0.0
C448 C 0.67641 0.83724 0.1527 0.0
H449 H 0.64262 0.87064 0.09126 0.0
C450 C 0.70372 0.8645 0.16541 0.0
C451 C 0.65479 0.8395 0.12414 0.0
C452 C 0.62594 0.81095 0.10713 0.0
C453 C 0.70919 0.8941 0.15207 0.0
C454 C 0.68648 0.89643 0.12601 0.0
C455 C 0.65994 0.86901 0.11159 0.0
C456 C 0.68878 0.92683 0.11472 0.0
C457 C 0.7392 0.92252 0.16613 0.0
C458 C 0.69098 0.94748 0.1487 0.0
C459 C 0.6891 0.97412 0.13846 0.0
C460 C 0.68448 0.98037 0.09409 0.0
C461 C 0.68323 0.9602 0.05998 0.0
C462 C 0.68538 0.93373 0.07019 0.0
H463 H 0.75793 0.91674 0.1721 0.0
H464 H 0.74734 0.94119 0.14051 0.0
H465 H 0.73531 0.93167 0.19793 0.0
H466 H 0.69278 0.94234 0.18342 0.0
H467 H 0.68989 0.98905 0.16555 0.0
H468 H 0.97552 0.69456 0.33388 0.0
H469 H 0.93648 0.70738 0.30627 0.0
H470 H 0.86454 0.62867 0.37768 0.0
H471 H 0.90292 0.61543 0.40467 0.0
H472 H 0.84868 0.6306 0.29078 0.0
H473 H 0.89123 0.7458 0.37243 0.0
H474 H 0.91945 0.74213 0.33899 0.0
H475 H 0.90452 0.71926 0.38893 0.0
C476 C 0.95142 0.68012 0.34395 0.0
C477 C 0.94243 0.65386 0.37138 0.0
C478 C 0.92916 0.68759 0.32832 0.0
C479 C 0.8976 0.66914 0.34022 0.0
C480 C 0.88873 0.64324 0.368 0.0
H481 H 0.73619 0.69099 0.33174 0.0
H482 H 0.78508 0.69222 0.34973 0.0
C483 C 0.9108 0.63569 0.38339 0.0
C484 C 0.87324 0.67558 0.32252 0.0
H485 H 0.84737 0.72807 0.32486 0.0
C486 C 0.8485 0.65201 0.29796 0.0
C487 C 0.87293 0.70342 0.33226 0.0
C488 C 0.89828 0.72906 0.3599 0.0
C489 C 0.82316 0.65516 0.28368 0.0
C490 C 0.82284 0.68304 0.29321 0.0
C491 C 0.84781 0.70687 0.31719 0.0
C492 C 0.79568 0.68678 0.28121 0.0
C493 C 0.79633 0.62799 0.26017 0.0
C494 C 0.78599 0.68458 0.23652 0.0
C495 C 0.7579 0.68362 0.22616 0.0
C496 C 0.73917 0.68524 0.26027 0.0
C497 C 0.75001 0.68961 0.30468 0.0
C498 C 0.77799 0.69033 0.31503 0.0
H499 H 0.79686 0.60599 0.26492 0.0
H500 H 0.77359 0.62442 0.27249 0.0
H501 H 0.79777 0.63283 0.22374 0.0
H502 H 0.79962 0.68253 0.20977 0.0
H503 H 0.75035 0.68051 0.19158 0.0
H504 H 0.11515 0.74862 0.36226 0.0
H505 H 0.16115 0.79739 0.38473 0.0
H506 H 0.11554 0.79698 0.5079 0.0
H507 H 0.06984 0.74754 0.48633 0.0
H508 H 0.17544 0.85618 0.40894 0.0
H509 H 0.1912 0.79462 0.55328 0.0
H510 H 0.1629 0.7743 0.50987 0.0
H511 H 0.15479 0.79439 0.55341 0.0
C512 C 0.11468 0.75916 0.3938 0.0
C513 C 0.08905 0.74397 0.42284 0.0
C514 C 0.14102 0.78709 0.40661 0.0
C515 C 0.14214 0.80045 0.44852 0.0
C516 C 0.11555 0.78665 0.47595 0.0
H517 H 0.30768 0.97686 0.53379 0.0
H518 H 0.25456 0.93901 0.50946 0.0
C519 C 0.08936 0.75849 0.46345 0.0
C520 C 0.17196 0.82715 0.46477 0.0
H521 H 0.22764 0.84788 0.54578 0.0
C522 C 0.18681 0.8545 0.43901 0.0
C523 C 0.18699 0.82474 0.50371 0.0
C524 C 0.17336 0.79537 0.53148 0.0
C525 C 0.21646 0.87928 0.45074 0.0
C526 C 0.23135 0.87684 0.48977 0.0
C527 C 0.21615 0.84979 0.51599 0.0
C528 C 0.2637 0.90071 0.50245 0.0
C529 C 0.23211 0.90721 0.42027 0.0
C530 C 0.28639 0.89176 0.50713 0.0
C531 C 0.31644 0.91308 0.52159 0.0
C532 C 0.32471 0.94405 0.53159 0.0
C533 C 0.30215 0.95325 0.52609 0.0
C534 C 0.27182 0.93168 0.51196 0.0
H535 H 0.22084 0.90235 0.38679 0.0
H536 H 0.2305 0.92685 0.43538 0.0
H537 H 0.25718 0.91472 0.41586 0.0
H538 H 0.28074 0.86804 0.49992 0.0
H539 H 0.33319 0.90515 0.52511 0.0
H540 H 0.37307 0.31621 0.66627 0.0
H541 H 0.3594 0.26436 0.63758 0.0
H542 H 0.43643 0.26815 0.71078 0.0
H543 H 0.45042 0.31957 0.73893 0.0
H544 H 0.43547 0.25285 0.6217 0.0
H545 H 0.31969 0.1791 0.70129 0.0
H546 H 0.32441 0.21218 0.66989 0.0
H547 H 0.34655 0.21818 0.72021 0.0
C548 C 0.38688 0.30583 0.67657 0.0
C549 C 0.41299 0.32224 0.70467 0.0
C550 C 0.37896 0.27615 0.66029 0.0
C551 C 0.39682 0.26232 0.67222 0.0
C552 C 0.42237 0.27838 0.70102 0.0
H553 H 0.37893 0.08168 0.66294 0.0
H554 H 0.37615 0.12854 0.68046 0.0
C555 C 0.43035 0.3079 0.71704 0.0
C556 C 0.39044 0.23192 0.65332 0.0
H557 H 0.33869 0.1536 0.65497 0.0
C558 C 0.41418 0.23117 0.62858 0.0
C559 C 0.36274 0.20366 0.66268 0.0
C560 C 0.33689 0.20306 0.69023 0.0
C561 C 0.41145 0.20295 0.61403 0.0
C562 C 0.38382 0.17461 0.6235 0.0
C563 C 0.35972 0.17535 0.64741 0.0
C564 C 0.38077 0.14401 0.61177 0.0
C565 C 0.43885 0.20372 0.59048 0.0
C566 C 0.38306 0.13647 0.56715 0.0
C567 C 0.38494 0.10983 0.55707 0.0
C568 C 0.38416 0.09002 0.59139 0.0
C569 C 0.3797 0.09649 0.63573 0.0
C570 C 0.37806 0.12327 0.64581 0.0
H571 H 0.46063 0.22644 0.59495 0.0
H572 H 0.44299 0.18495 0.60303 0.0
H573 H 0.43385 0.20002 0.5541 0.0
H574 H 0.38451 0.1518 0.54025 0.0
H575 H 0.38807 0.10535 0.52252 0.0
H576 H 0.09099 0.37532 0.82938 0.0
H577 H 0.12903 0.36133 0.80082 0.0
H578 H 0.20181 0.43661 0.87672 0.0
H579 H 0.16453 0.45091 0.90478 0.0
H580 H 0.21703 0.4365 0.78772 0.0
H581 H 0.17288 0.31962 0.86476 0.0
H582 H 0.14517 0.32532 0.83306 0.0
H583 H 0.16099 0.34675 0.88397 0.0
C584 C 0.11504 0.38869 0.84027 0.0
C585 C 0.12466 0.41438 0.86917 0.0
C586 C 0.13672 0.38058 0.82407 0.0
C587 C 0.16824 0.39784 0.83685 0.0
C588 C 0.17765 0.42301 0.86632 0.0
H589 H 0.32968 0.37721 0.82942 0.0
H590 H 0.28017 0.37494 0.84633 0.0
C591 C 0.15619 0.43117 0.8823 0.0
C592 C 0.19218 0.39118 0.81823 0.0
H593 H 0.21776 0.33846 0.81942 0.0
C594 C 0.21705 0.41494 0.79425 0.0
C595 C 0.19224 0.36313 0.82715 0.0
C596 C 0.16656 0.33724 0.8539 0.0
C597 C 0.24241 0.41185 0.78 0.0
C598 C 0.24261 0.38385 0.78902 0.0
C599 C 0.21741 0.35977 0.81219 0.0
C600 C 0.26998 0.38037 0.77758 0.0
C601 C 0.26944 0.43922 0.75725 0.0
C602 C 0.2801 0.38291 0.73311 0.0
C603 C 0.30854 0.38448 0.72338 0.0
C604 C 0.32719 0.38315 0.75791 0.0
C605 C 0.31593 0.37839 0.80206 0.0
C606 C 0.28759 0.37706 0.81179 0.0
H607 H 0.26875 0.46115 0.762 0.0
H608 H 0.29206 0.44282 0.7702 0.0
H609 H 0.26845 0.43459 0.72079 0.0
H610 H 0.26656 0.38484 0.70607 0.0
H611 H 0.31641 0.38786 0.68897 0.0
H612 H 0.98897 0.32799 0.98978 0.0
H613 H 0.94385 0.27678 1.00462 0.0
H614 H 0.91881 0.26695 0.86487 0.0
H615 H 0.96353 0.31854 0.84997 0.0
H616 H 0.87127 0.2576 0.91572 0.0
H617 H 0.92004 0.18721 0.98428 0.0
H618 H 0.93506 0.22365 0.01325 0.0
H619 H 0.9437 0.22335 0.95477 0.0
C620 C 0.97427 0.31465 0.96201 0.0
C621 C 0.97975 0.32741 0.91873 0.0
C622 C 0.94857 0.2852 0.9705 0.0
C623 C 0.92807 0.26773 0.93579 0.0
C624 C 0.93435 0.27988 0.89216 0.0
H625 H 0.75336 0.08995 0.99134 0.0
H626 H 0.80495 0.12624 0.95948 0.0
C627 C 0.95994 0.3094 0.8837 0.0
C628 C 0.89811 0.23896 0.94603 0.0
H629 H 0.86623 0.17026 1.00389 0.0
C630 C 0.87026 0.23824 0.93418 0.0
C631 C 0.89658 0.21345 0.96974 0.0
C632 C 0.92548 0.21177 0.98081 0.0
C633 C 0.84115 0.21373 0.94758 0.0
C634 C 0.83979 0.18946 0.9742 0.0
C635 C 0.86738 0.18908 0.98387 0.0
C636 C 0.81022 0.16641 0.99585 0.0
C637 C 0.81207 0.21449 0.93432 0.0
C638 C 0.79674 0.17683 0.02773 0.0
C639 C 0.76757 0.15643 0.04568 0.0
C640 C 0.75112 0.12494 0.03243 0.0
C641 C 0.76535 0.11406 1.00211 0.0
C642 C 0.79476 0.13473 0.98389 0.0
H643 H 0.81607 0.2292 0.90424 0.0
H644 H 0.79247 0.19065 0.92741 0.0
H645 H 0.80505 0.22453 0.96218 0.0
H646 H 0.80854 0.20106 0.038 0.0
H647 H 0.75768 0.16561 0.06951 0.0
loop_
_geom_bond_atom_site_label_1
_geom_bond_atom_site_label_2
_geom_bond_distance
_geom_bond_site_symmetry_2
_ccdc_geom_bond_type
Mn0 O5 2.095 . S
Mn0 O15 2.162 1_545 S
Mn0 O16 2.297 1_545 S
Mn0 O24 2.385 1_545 S
Mn0 O25 2.209 . S
Mn0 O26 2.094 . S
Mn1 O6 2.121 . S
Mn1 N8 2.257 . S
Mn1 N17 2.282 . S
Mn1 O25 2.215 . S
Mn1 O27 2.117 . S
C2 O24 1.234 1_545 S
C2 O25 1.283 . S
C3 O15 1.281 . S
C3 O16 1.236 . S
C4 O26 1.240 1_556 S
C4 O27 1.264 1_556 S
O5 Mn0 2.095 . S
O5 C14 1.250 . S
O6 Mn1 2.121 . S
O6 C14 1.258 . S
C7 N8 1.326 . S
C7 C11 1.460 . S
C7 H13 0.929 . S
N8 Mn1 2.257 . S
N8 C7 1.326 . S
N8 C12 1.362 . S
C9 C10 1.258 . S
C9 C12 1.431 . S
C9 C29 1.449 . S
C10 C9 1.258 . S
C10 C11 1.477 . S
C10 H30 0.931 . S
C11 C7 1.460 . S
C11 C10 1.477 . S
C11 H31 0.930 . S
C12 N8 1.362 . S
C12 C9 1.431 . S
C12 C22 1.476 . S
H13 C7 0.929 . S
C14 O5 1.250 . S
C14 O6 1.258 . S
O15 Mn0 2.162 1_565 S
O15 C3 1.281 . S
O16 Mn0 2.297 1_565 S
O16 C3 1.236 . S
N17 Mn1 2.282 . S
N17 C18 1.328 . S
N17 C22 1.318 . S
C18 N17 1.328 . S
C18 C19 1.457 . S
C18 H23 0.929 . S
C19 C18 1.457 . S
C19 C20 1.291 . S
C19 H32 0.931 . S
C20 C19 1.291 . S
C20 C21 1.373 . S
C20 H33 0.929 . S
C21 C20 1.373 . S
C21 C22 1.396 . S
C21 C28 1.403 . S
C22 C12 1.476 . S
C22 N17 1.318 . S
C22 C21 1.396 . S
H23 C18 0.929 . S
O24 Mn0 2.385 1_565 S
O24 C2 1.234 1_565 S
O25 Mn0 2.209 . S
O25 Mn1 2.215 . S
O25 C2 1.283 . S
O26 Mn0 2.094 . S
O26 C4 1.240 1_554 S
O27 Mn1 2.117 . S
O27 C4 1.264 1_554 S
C28 C21 1.403 . S
C28 C29 1.399 . S
C28 H34 0.929 . S
C29 C9 1.449 . S
C29 C28 1.399 . S
C29 H35 0.930 . S
H30 C10 0.931 . S
H31 C11 0.930 . S
H32 C19 0.931 . S
H33 C20 0.929 . S
H34 C28 0.929 . S
H35 C29 0.930 . S
Mn36 O41 2.095 . S
Mn36 O51 2.162 . S
Mn36 O52 2.297 . S
Mn36 O60 2.385 . S
Mn36 O61 2.209 . S
Mn36 O62 2.094 . S
Mn37 O42 2.121 . S
Mn37 N44 2.257 . S
Mn37 N53 2.282 . S
Mn37 O61 2.215 . S
Mn37 O63 2.117 . S
C38 O60 1.234 . S
C38 O61 1.283 . S
C39 O51 1.281 . S
C39 O52 1.236 . S
C40 O62 1.240 . S
C40 O63 1.264 . S
O41 Mn36 2.095 . S
O41 C50 1.250 . S
O42 Mn37 2.121 . S
O42 C50 1.258 . S
C43 N44 1.326 . S
C43 C47 1.460 . S
C43 H49 0.929 . S
N44 Mn37 2.257 . S
N44 C43 1.326 . S
N44 C48 1.362 . S
C45 C46 1.258 . S
C45 C48 1.431 . S
C45 C65 1.449 . S
C46 C45 1.258 . S
C46 C47 1.477 . S
C46 H66 0.931 . S
C47 C43 1.460 . S
C47 C46 1.477 . S
C47 H67 0.930 . S
C48 N44 1.362 . S
C48 C45 1.431 . S
C48 C58 1.476 . S
H49 C43 0.929 . S
C50 O41 1.250 . S
C50 O42 1.258 . S
O51 Mn36 2.162 . S
O51 C39 1.281 . S
O52 Mn36 2.297 . S
O52 C39 1.236 . S
N53 Mn37 2.282 . S
N53 C54 1.328 . S
N53 C58 1.318 . S
C54 N53 1.328 . S
C54 C55 1.457 . S
C54 H59 0.929 . S
C55 C54 1.457 . S
C55 C56 1.291 . S
C55 H68 0.931 . S
C56 C55 1.291 . S
C56 C57 1.373 . S
C56 H69 0.929 . S
C57 C56 1.373 . S
C57 C58 1.396 . S
C57 C64 1.403 . S
C58 C48 1.476 . S
C58 N53 1.318 . S
C58 C57 1.396 . S
H59 C54 0.929 . S
O60 Mn36 2.385 . S
O60 C38 1.234 . S
O61 Mn36 2.209 . S
O61 Mn37 2.215 . S
O61 C38 1.283 . S
O62 Mn36 2.094 . S
O62 C40 1.240 . S
O63 Mn37 2.117 . S
O63 C40 1.264 . S
C64 C57 1.403 . S
C64 C65 1.399 . S
C64 H70 0.929 . S
C65 C45 1.449 . S
C65 C64 1.399 . S
C65 H71 0.930 . S
H66 C46 0.931 . S
H67 C47 0.930 . S
H68 C55 0.931 . S
H69 C56 0.929 . S
H70 C64 0.929 . S
H71 C65 0.930 . S
Mn72 O77 2.095 1_455 S
Mn72 O87 2.162 . S
Mn72 O88 2.297 . S
Mn72 O96 2.385 . S
Mn72 O97 2.209 . S
Mn72 O98 2.094 . S
Mn73 O78 2.121 . S
Mn73 N80 2.257 . S
Mn73 N89 2.282 . S
Mn73 O97 2.215 1_655 S
Mn73 O99 2.117 . S
C74 O96 1.234 . S
C74 O97 1.283 . S
C75 O87 1.281 . S
C75 O88 1.236 . S
C76 O98 1.240 . S
C76 O99 1.264 1_455 S
O77 Mn72 2.095 1_655 S
O77 C86 1.250 . S
O78 Mn73 2.121 . S
O78 C86 1.258 . S
C79 N80 1.326 . S
C79 C83 1.460 . S
C79 H85 0.929 . S
N80 Mn73 2.257 . S
N80 C79 1.326 . S
N80 C84 1.362 . S
C81 C82 1.258 . S
C81 C84 1.431 . S
C81 C101 1.449 . S
C82 C81 1.258 . S
C82 C83 1.477 . S
C82 H102 0.931 . S
C83 C79 1.460 . S
C83 C82 1.477 . S
C83 H103 0.930 . S
C84 N80 1.362 . S
C84 C81 1.431 . S
C84 C94 1.476 . S
H85 C79 0.929 . S
C86 O77 1.250 . S
C86 O78 1.258 . S
O87 Mn72 2.162 . S
O87 C75 1.281 . S
O88 Mn72 2.297 . S
O88 C75 1.236 . S
N89 Mn73 2.282 . S
N89 C90 1.328 . S
N89 C94 1.318 . S
C90 N89 1.328 . S
C90 C91 1.457 . S
C90 H95 0.929 1_655 S
C91 C90 1.457 . S
C91 C92 1.291 . S
C91 H104 0.931 1_655 S
C92 C91 1.291 . S
C92 C93 1.373 . S
C92 H105 0.929 . S
C93 C92 1.373 . S
C93 C94 1.396 . S
C93 C100 1.403 . S
C94 C84 1.476 . S
C94 N89 1.318 . S
C94 C93 1.396 . S
H95 C90 0.929 1_455 S
O96 Mn72 2.385 . S
O96 C74 1.234 . S
O97 Mn72 2.209 . S
O97 Mn73 2.215 1_455 S
O97 C74 1.283 . S
O98 Mn72 2.094 . S
O98 C76 1.240 . S
O99 Mn73 2.117 . S
O99 C76 1.264 1_655 S
C100 C93 1.403 . S
C100 C101 1.399 . S
C100 H106 0.929 . S
C101 C81 1.449 . S
C101 C100 1.399 . S
C101 H107 0.930 . S
H102 C82 0.931 . S
H103 C83 0.930 . S
H104 C91 0.931 1_455 S
H105 C92 0.929 . S
H106 C100 0.929 . S
H107 C101 0.930 . S
Mn108 O113 2.095 . S
Mn108 O123 2.162 . S
Mn108 O124 2.297 . S
Mn108 O132 2.385 . S
Mn108 O133 2.209 . S
Mn108 O134 2.094 . S
Mn109 O114 2.121 . S
Mn109 N116 2.257 . S
Mn109 N125 2.282 . S
Mn109 O133 2.215 1_565 S
Mn109 O135 2.115 1_565 S
C110 O132 1.234 . S
C110 O133 1.283 . S
C111 O123 1.281 . S
C111 O124 1.236 . S
C112 O134 1.240 . S
C112 O135 1.268 . S
O113 Mn108 2.095 . S
O113 C122 1.250 1_545 S
O114 Mn109 2.121 . S
O114 C122 1.258 . S
C115 N116 1.326 . S
C115 C119 1.460 . S
C115 H121 0.929 . S
N116 Mn109 2.257 . S
N116 C115 1.326 . S
N116 C120 1.362 . S
C117 C118 1.258 . S
C117 C120 1.431 . S
C117 C137 1.449 . S
C118 C117 1.258 . S
C118 C119 1.477 . S
C118 H138 0.931 . S
C119 C115 1.460 . S
C119 C118 1.477 . S
C119 H139 0.930 . S
C120 N116 1.362 . S
C120 C117 1.431 . S
C120 C130 1.476 . S
H121 C115 0.929 . S
C122 O113 1.250 1_565 S
C122 O114 1.258 . S
O123 Mn108 2.162 . S
O123 C111 1.281 . S
O124 Mn108 2.297 . S
O124 C111 1.236 . S
N125 Mn109 2.282 . S
N125 C126 1.328 . S
N125 C130 1.318 . S
C126 N125 1.328 . S
C126 C127 1.442 . S
C126 H131 0.929 1_565 S
C127 C126 1.442 . S
C127 C128 1.316 . S
C127 H140 0.922 1_565 S
C128 C127 1.316 . S
C128 C129 1.373 . S
C128 H141 0.929 . S
C129 C128 1.373 . S
C129 C130 1.396 . S
C129 C136 1.403 . S
C130 C120 1.476 . S
C130 N125 1.318 . S
C130 C129 1.396 . S
H131 C126 0.929 1_545 S
O132 Mn108 2.385 . S
O132 C110 1.234 . S
O133 Mn108 2.209 . S
O133 Mn109 2.215 1_545 S
O133 C110 1.283 . S
O134 Mn108 2.094 . S
O134 C112 1.240 . S
O135 Mn109 2.115 1_545 S
O135 C112 1.268 . S
C136 C129 1.403 . S
C136 C137 1.399 . S
C136 H142 0.929 . S
C137 C117 1.449 . S
C137 C136 1.399 . S
C137 H143 0.930 . S
H138 C118 0.931 . S
H139 C119 0.930 . S
H140 C127 0.922 1_545 S
H141 C128 0.929 . S
H142 C136 0.929 . S
H143 C137 0.930 . S
Mn144 O149 2.095 . S
Mn144 O159 2.162 . S
Mn144 O160 2.297 . S
Mn144 O168 2.385 . S
Mn144 O169 2.209 . S
Mn144 O170 2.094 . S
Mn145 O150 2.121 . S
Mn145 N152 2.257 . S
Mn145 N161 2.282 . S
Mn145 O169 2.215 . S
Mn145 O171 2.117 . S
C146 O168 1.234 . S
C146 O169 1.283 . S
C147 O159 1.281 . S
C147 O160 1.236 . S
C148 O170 1.240 . S
C148 O171 1.264 . S
O149 Mn144 2.095 . S
O149 C158 1.250 . S
O150 Mn145 2.121 . S
O150 C158 1.258 . S
C151 N152 1.326 . S
C151 C155 1.460 . S
C151 H157 0.929 . S
N152 Mn145 2.257 . S
N152 C151 1.326 . S
N152 C156 1.362 . S
C153 C154 1.258 . S
C153 C156 1.431 . S
C153 C173 1.449 . S
C154 C153 1.258 . S
C154 C155 1.477 . S
C154 H174 0.931 . S
C155 C151 1.460 . S
C155 C154 1.477 . S
C155 H175 0.930 . S
C156 N152 1.362 . S
C156 C153 1.431 . S
C156 C166 1.476 . S
H157 C151 0.929 . S
C158 O149 1.250 . S
C158 O150 1.258 . S
O159 Mn144 2.162 . S
O159 C147 1.281 . S
O160 Mn144 2.297 . S
O160 C147 1.236 . S
N161 Mn145 2.282 . S
N161 C162 1.328 . S
N161 C166 1.318 . S
C162 N161 1.328 . S
C162 C163 1.457 . S
C162 H167 0.929 . S
C163 C162 1.457 . S
C163 C164 1.291 . S
C163 H176 0.931 . S
C164 C163 1.291 . S
C164 C165 1.373 . S
C164 H177 0.929 . S
C165 C164 1.373 . S
C165 C166 1.396 . S
C165 C172 1.403 . S
C166 C156 1.476 . S
C166 N161 1.318 . S
C166 C165 1.396 . S
H167 C162 0.929 . S
O168 Mn144 2.385 . S
O168 C146 1.234 . S
O169 Mn144 2.209 . S
O169 Mn145 2.215 . S
O169 C146 1.283 . S
O170 Mn144 2.094 . S
O170 C148 1.240 . S
O171 Mn145 2.117 . S
O171 C148 1.264 . S
C172 C165 1.403 . S
C172 C173 1.399 . S
C172 H178 0.929 . S
C173 C153 1.449 . S
C173 C172 1.399 . S
C173 H179 0.930 . S
H174 C154 0.931 . S
H175 C155 0.930 . S
H176 C163 0.931 . S
H177 C164 0.929 . S
H178 C172 0.929 . S
H179 C173 0.930 . S
Mn180 O185 2.095 . S
Mn180 O195 2.162 1_455 S
Mn180 O196 2.297 1_455 S
Mn180 O204 2.385 1_455 S
Mn180 O205 2.209 . S
Mn180 O206 2.094 . S
Mn181 O186 2.121 . S
Mn181 N188 2.257 . S
Mn181 N197 2.282 . S
Mn181 O205 2.215 . S
Mn181 O207 2.117 . S
C182 O204 1.234 1_455 S
C182 O205 1.283 . S
C183 O195 1.281 . S
C183 O196 1.236 . S
C184 O206 1.240 . S
C184 O207 1.264 . S
O185 Mn180 2.095 . S
O185 C194 1.250 . S
O186 Mn181 2.121 . S
O186 C194 1.258 . S
C187 N188 1.326 . S
C187 C191 1.460 1_556 S
C187 H193 0.929 . S
N188 Mn181 2.257 . S
N188 C187 1.326 . S
N188 C192 1.362 . S
C189 C190 1.258 . S
C189 C192 1.431 1_554 S
C189 C209 1.449 . S
C190 C189 1.258 . S
C190 C191 1.477 . S
C190 H210 0.931 . S
C191 C187 1.460 1_554 S
C191 C190 1.477 . S
C191 H211 0.930 . S
C192 N188 1.362 . S
C192 C189 1.431 1_556 S
C192 C202 1.476 . S
H193 C187 0.929 . S
C194 O185 1.250 . S
C194 O186 1.258 . S
O195 Mn180 2.162 1_655 S
O195 C183 1.281 . S
O196 Mn180 2.297 1_655 S
O196 C183 1.236 . S
N197 Mn181 2.282 . S
N197 C198 1.328 . S
N197 C202 1.318 . S
C198 N197 1.328 . S
C198 C199 1.457 . S
C198 H203 0.929 . S
C199 C198 1.457 . S
C199 C200 1.291 . S
C199 H212 0.931 . S
C200 C199 1.291 . S
C200 C201 1.373 . S
C200 H213 0.929 . S
C201 C200 1.373 . S
C201 C202 1.396 . S
C201 C208 1.403 1_556 S
C202 C192 1.476 . S
C202 N197 1.318 . S
C202 C201 1.396 . S
H203 C198 0.929 . S
O204 Mn180 2.385 1_655 S
O204 C182 1.234 1_655 S
O205 Mn180 2.209 . S
O205 Mn181 2.215 . S
O205 C182 1.283 . S
O206 Mn180 2.094 . S
O206 C184 1.240 . S
O207 Mn181 2.117 . S
O207 C184 1.264 . S
C208 C201 1.403 1_554 S
C208 C209 1.399 . S
C208 H214 0.929 . S
C209 C189 1.449 . S
C209 C208 1.399 . S
C209 H215 0.930 . S
H210 C190 0.931 . S
H211 C191 0.930 . S
H212 C199 0.931 . S
H213 C200 0.929 . S
H214 C208 0.929 . S
H215 C209 0.930 . S
H216 C224 0.929 . S
H217 C226 0.930 . S
H218 C228 0.930 . S
H219 C231 0.929 . S
H220 C234 0.930 1_565 S
H221 C236 0.960 . S
H222 C236 0.960 . S
H223 C236 0.960 . S
C224 H216 0.929 . S
C224 C225 1.377 . S
C224 C226 1.384 . S
C225 C224 1.377 . S
C225 C231 1.390 . S
C226 H217 0.930 . S
C226 C224 1.384 . S
C226 C227 1.372 . S
C227 C226 1.372 . S
C227 C228 1.400 . S
C227 C232 1.490 . S
C228 H218 0.930 . S
C228 C227 1.400 . S
C228 C231 1.386 . S
H229 C245 0.930 . S
H230 C246 0.931 1_565 S
C231 H219 0.929 . S
C231 C225 1.390 . S
C231 C228 1.386 . S
C232 C227 1.490 . S
C232 C234 1.395 . S
C232 C235 1.403 . S
H233 C239 0.930 . S
C234 H220 0.930 1_545 S
C234 C232 1.395 . S
C234 C237 1.403 . S
C235 C232 1.403 . S
C235 C236 1.524 . S
C235 C239 1.400 . S
C236 H221 0.960 . S
C236 H222 0.960 . S
C236 H223 0.960 . S
C236 C235 1.524 . S
C237 C234 1.403 . S
C237 C238 1.392 . S
C237 C241 1.495 1_545 S
C238 C237 1.392 . S
C238 C239 1.385 . S
C238 C240 1.478 . S
C239 H233 0.930 . S
C239 C235 1.400 . S
C239 C238 1.385 . S
C240 C238 1.478 . S
C240 C242 1.381 . S
C240 C246 1.383 . S
C241 C237 1.495 1_565 S
C241 H247 0.959 . S
C241 H248 0.961 . S
C241 H249 0.946 1_565 S
C242 C240 1.381 . S
C242 C243 1.394 . S
C242 H250 0.930 . S
C243 C242 1.394 . S
C243 C244 1.383 . S
C243 H251 0.929 . S
C244 C243 1.383 . S
C244 C245 1.377 . S
C245 H229 0.930 . S
C245 C244 1.377 . S
C245 C246 1.379 . S
C246 H230 0.931 1_545 S
C246 C240 1.383 . S
C246 C245 1.379 . S
H247 C241 0.959 . S
H248 C241 0.961 . S
H249 C241 0.946 1_545 S
H250 C242 0.930 . S
H251 C243 0.929 . S
H252 C260 0.929 . S
H253 C262 0.930 . S
H254 C264 0.930 . S
H255 C267 0.929 . S
H256 C270 0.930 . S
H257 C272 0.960 . S
H258 C272 0.960 . S
H259 C272 0.960 . S
C260 H252 0.929 . S
C260 C261 1.377 . S
C260 C262 1.384 . S
C261 C260 1.377 . S
C261 C267 1.390 . S
C262 H253 0.930 . S
C262 C260 1.384 . S
C262 C263 1.372 . S
C263 C262 1.372 . S
C263 C264 1.400 . S
C263 C268 1.490 . S
C264 H254 0.930 . S
C264 C263 1.400 . S
C264 C267 1.386 . S
H265 C281 0.930 . S
H266 C282 0.931 . S
C267 H255 0.929 . S
C267 C261 1.390 . S
C267 C264 1.386 . S
C268 C263 1.490 . S
C268 C270 1.395 . S
C268 C271 1.403 . S
H269 C275 0.930 . S
C270 H256 0.930 . S
C270 C268 1.395 . S
C270 C273 1.403 . S
C271 C268 1.403 . S
C271 C272 1.524 . S
C271 C275 1.400 . S
C272 H257 0.960 . S
C272 H258 0.960 . S
C272 H259 0.960 . S
C272 C271 1.524 . S
C273 C270 1.403 . S
C273 C274 1.392 . S
C273 C277 1.495 . S
C274 C273 1.392 . S
C274 C275 1.385 . S
C274 C276 1.478 . S
C275 H269 0.930 . S
C275 C271 1.400 . S
C275 C274 1.385 . S
C276 C274 1.478 . S
C276 C278 1.381 . S
C276 C282 1.383 . S
C277 C273 1.495 . S
C277 H283 0.959 . S
C277 H284 0.961 . S
C277 H285 0.960 . S
C278 C276 1.381 . S
C278 C279 1.394 . S
C278 H286 0.930 . S
C279 C278 1.394 . S
C279 C280 1.383 . S
C279 H287 0.929 . S
C280 C279 1.383 . S
C280 C281 1.377 . S
C281 H265 0.930 . S
C281 C280 1.377 . S
C281 C282 1.379 . S
C282 H266 0.931 . S
C282 C276 1.383 . S
C282 C281 1.379 . S
H283 C277 0.959 . S
H284 C277 0.961 . S
H285 C277 0.960 . S
H286 C278 0.930 . S
H287 C279 0.929 . S
H288 C296 0.929 . S
H289 C298 0.930 . S
H290 C300 0.930 . S
H291 C303 0.929 . S
H292 C306 0.930 . S
H293 C308 0.960 . S
H294 C308 0.960 . S
H295 C308 0.960 . S
C296 H288 0.929 . S
C296 C297 1.377 . S
C296 C298 1.384 . S
C297 C296 1.377 . S
C297 C303 1.390 . S
C298 H289 0.930 . S
C298 C296 1.384 . S
C298 C299 1.372 . S
C299 C298 1.372 . S
C299 C300 1.400 . S
C299 C304 1.490 . S
C300 H290 0.930 . S
C300 C299 1.400 . S
C300 C303 1.386 . S
H301 C317 0.930 . S
H302 C318 0.931 . S
C303 H291 0.929 . S
C303 C297 1.390 . S
C303 C300 1.386 . S
C304 C299 1.490 . S
C304 C306 1.395 . S
C304 C307 1.403 . S
H305 C311 0.930 1_655 S
C306 H292 0.930 . S
C306 C304 1.395 . S
C306 C309 1.403 . S
C307 C304 1.403 . S
C307 C308 1.524 1_455 S
C307 C311 1.400 . S
C308 H293 0.960 . S
C308 H294 0.960 . S
C308 H295 0.960 . S
C308 C307 1.524 1_655 S
C309 C306 1.403 . S
C309 C310 1.392 . S
C309 C313 1.495 . S
C310 C309 1.392 . S
C310 C311 1.385 . S
C310 C312 1.478 . S
C311 H305 0.930 1_455 S
C311 C307 1.400 . S
C311 C310 1.385 . S
C312 C310 1.478 . S
C312 C314 1.381 . S
C312 C318 1.383 . S
C313 C309 1.495 . S
C313 H319 0.959 . S
C313 H320 0.961 . S
C313 H321 0.960 . S
C314 C312 1.381 . S
C314 C315 1.394 . S
C314 H322 0.930 . S
C315 C314 1.394 . S
C315 C316 1.383 . S
C315 H323 0.929 . S
C316 C315 1.383 . S
C316 C317 1.377 . S
C317 H301 0.930 . S
C317 C316 1.377 . S
C317 C318 1.379 . S
C318 H302 0.931 . S
C318 C312 1.383 . S
C318 C317 1.379 . S
H319 C313 0.959 . S
H320 C313 0.961 . S
H321 C313 0.960 . S
H322 C314 0.930 . S
H323 C315 0.929 . S
H324 C332 0.929 . S
H325 C334 0.930 . S
H326 C336 0.930 . S
H327 C339 0.929 . S
H328 C342 0.930 1_565 S
H329 C344 0.960 . S
H330 C344 0.960 . S
H331 C344 0.960 . S
C332 H324 0.929 . S
C332 C333 1.377 . S
C332 C334 1.384 . S
C333 C332 1.377 . S
C333 C339 1.390 . S
C334 H325 0.930 . S
C334 C332 1.384 . S
C334 C335 1.372 . S
C335 C334 1.372 . S
C335 C336 1.400 . S
C335 C340 1.490 . S
C336 H326 0.930 . S
C336 C335 1.400 . S
C336 C339 1.386 . S
H337 C353 0.930 . S
H338 C354 0.931 . S
C339 H327 0.929 . S
C339 C333 1.390 . S
C339 C336 1.386 . S
C340 C335 1.490 . S
C340 C342 1.395 . S
C340 C343 1.403 . S
H341 C347 0.930 . S
C342 H328 0.930 1_545 S
C342 C340 1.395 . S
C342 C345 1.403 . S
C343 C340 1.403 . S
C343 C344 1.524 . S
C343 C347 1.400 . S
C344 H329 0.960 . S
C344 H330 0.960 . S
C344 H331 0.960 . S
C344 C343 1.524 . S
C345 C342 1.403 . S
C345 C346 1.392 . S
C345 C349 1.495 1_545 S
C346 C345 1.392 . S
C346 C347 1.385 . S
C346 C348 1.478 . S
C347 H341 0.930 . S
C347 C343 1.400 . S
C347 C346 1.385 . S
C348 C346 1.478 . S
C348 C350 1.381 . S
C348 C354 1.383 . S
C349 C345 1.495 1_565 S
C349 H355 0.959 . S
C349 H356 0.961 . S
C349 H357 0.960 . S
C350 C348 1.381 . S
C350 C351 1.394 . S
C350 H358 0.930 . S
C351 C350 1.394 . S
C351 C352 1.383 . S
C351 H359 0.929 . S
C352 C351 1.383 . S
C352 C353 1.377 . S
C353 H337 0.930 . S
C353 C352 1.377 . S
C353 C354 1.379 . S
C354 H338 0.931 . S
C354 C348 1.383 . S
C354 C353 1.379 . S
H355 C349 0.959 . S
H356 C349 0.961 . S
H357 C349 0.960 . S
H358 C350 0.930 . S
H359 C351 0.929 . S
H360 C368 0.929 . S
H361 C370 0.930 . S
H362 C372 0.930 . S
H363 C375 0.929 . S
H364 C378 0.930 . S
H365 C380 0.960 . S
H366 C380 0.960 . S
H367 C380 0.960 . S
C368 H360 0.929 . S
C368 C369 1.377 . S
C368 C370 1.384 . S
C369 C368 1.377 . S
C369 C375 1.390 . S
C370 H361 0.930 . S
C370 C368 1.384 . S
C370 C371 1.372 . S
C371 C370 1.372 . S
C371 C372 1.400 . S
C371 C376 1.490 . S
C372 H362 0.930 . S
C372 C371 1.400 . S
C372 C375 1.386 . S
H373 C389 0.930 . S
H374 C390 0.931 . S
C375 H363 0.929 . S
C375 C369 1.390 . S
C375 C372 1.386 . S
C376 C371 1.490 . S
C376 C378 1.395 1_554 S
C376 C379 1.403 . S
H377 C383 0.930 . S
C378 H364 0.930 . S
C378 C376 1.395 1_556 S
C378 C381 1.403 . S
C379 C376 1.403 . S
C379 C380 1.524 . S
C379 C383 1.400 1_554 S
C380 H365 0.960 . S
C380 H366 0.960 . S
C380 H367 0.960 . S
C380 C379 1.524 . S
C381 C378 1.403 . S
C381 C382 1.392 . S
C381 C385 1.495 . S
C382 C381 1.392 . S
C382 C383 1.385 . S
C382 C384 1.478 . S
C383 H377 0.930 . S
C383 C379 1.400 1_556 S
C383 C382 1.385 . S
C384 C382 1.478 . S
C384 C386 1.381 . S
C384 C390 1.383 . S
C385 C381 1.495 . S
C385 H391 0.959 . S
C385 H392 0.961 . S
C385 H393 0.960 . S
C386 C384 1.381 . S
C386 C387 1.394 . S
C386 H394 0.930 . S
C387 C386 1.394 . S
C387 C388 1.383 . S
C387 H395 0.929 . S
C388 C387 1.383 . S
C388 C389 1.377 . S
C389 H373 0.930 . S
C389 C388 1.377 . S
C389 C390 1.379 . S
C390 H374 0.931 . S
C390 C384 1.383 . S
C390 C389 1.379 . S
H391 C385 0.959 . S
H392 C385 0.961 . S
H393 C385 0.960 . S
H394 C386 0.930 . S
H395 C387 0.929 . S
H396 C404 0.929 . S
H397 C406 0.930 . S
H398 C408 0.930 . S
H399 C411 0.929 1_556 S
H400 C414 0.930 . S
H401 C416 0.941 1_655 S
H402 C416 0.944 1_655 S
H403 C416 0.982 . S
C404 H396 0.929 . S
C404 C405 1.377 1_655 S
C404 C406 1.384 . S
C405 C404 1.377 1_455 S
C405 C411 1.390 . S
C406 H397 0.930 . S
C406 C404 1.384 . S
C406 C407 1.372 1_655 S
C407 C406 1.372 1_455 S
C407 C408 1.400 . S
C407 C412 1.490 . S
C408 H398 0.930 . S
C408 C407 1.400 . S
C408 C411 1.386 . S
H409 C425 0.930 . S
H410 C426 0.931 . S
C411 H399 0.929 1_554 S
C411 C405 1.390 . S
C411 C408 1.386 . S
C412 C407 1.490 . S
C412 C414 1.395 . S
C412 C415 1.403 . S
H413 C419 0.930 . S
C414 H400 0.930 . S
C414 C412 1.395 . S
C414 C417 1.403 . S
C415 C412 1.403 . S
C415 C416 1.537 . S
C415 C419 1.400 . S
C416 H401 0.941 1_455 S
C416 H402 0.944 1_455 S
C416 H403 0.982 . S
C416 C415 1.537 . S
C417 C414 1.403 . S
C417 C418 1.392 . S
C417 C421 1.495 . S
C418 C417 1.392 . S
C418 C419 1.385 . S
C418 C420 1.478 . S
C419 H413 0.930 . S
C419 C415 1.400 . S
C419 C418 1.385 . S
C420 C418 1.478 . S
C420 C422 1.366 1_455 S
C420 C426 1.383 . S
C421 C417 1.495 . S
C421 H427 0.959 . S
C421 H428 0.961 . S
C421 H429 0.960 . S
C422 C420 1.366 1_655 S
C422 C423 1.404 . S
C422 H430 0.936 . S
C423 C422 1.404 . S
C423 C424 1.383 1_655 S
C423 H431 0.929 . S
C424 C423 1.383 1_455 S
C424 C425 1.377 . S
C425 H409 0.930 . S
C425 C424 1.377 . S
C425 C426 1.379 . S
C426 H410 0.931 . S
C426 C420 1.383 . S
C426 C425 1.379 . S
H427 C421 0.959 . S
H428 C421 0.961 . S
H429 C421 0.960 . S
H430 C422 0.936 . S
H431 C423 0.929 . S
H432 C440 0.929 . S
H433 C442 0.930 . S
H434 C444 0.930 . S
H435 C447 0.929 . S
H436 C450 0.930 . S
H437 C452 0.960 . S
H438 C452 0.960 . S
H439 C452 0.960 . S
C440 H432 0.929 . S
C440 C441 1.377 . S
C440 C442 1.384 . S
C441 C440 1.377 . S
C441 C447 1.390 . S
C442 H433 0.930 . S
C442 C440 1.384 . S
C442 C443 1.372 . S
C443 C442 1.372 . S
C443 C444 1.400 . S
C443 C448 1.490 . S
C444 H434 0.930 . S
C444 C443 1.400 . S
C444 C447 1.386 . S
H445 C461 0.930 . S
H446 C462 0.931 . S
C447 H435 0.929 . S
C447 C441 1.390 . S
C447 C444 1.386 . S
C448 C443 1.490 . S
C448 C450 1.395 . S
C448 C451 1.403 . S
H449 C455 0.930 . S
C450 H436 0.930 . S
C450 C448 1.395 . S
C450 C453 1.403 . S
C451 C448 1.403 . S
C451 C452 1.524 . S
C451 C455 1.400 . S
C452 H437 0.960 . S
C452 H438 0.960 . S
C452 H439 0.960 . S
C452 C451 1.524 . S
C453 C450 1.403 . S
C453 C454 1.392 . S
C453 C457 1.495 . S
C454 C453 1.392 . S
C454 C455 1.385 . S
C454 C456 1.478 . S
C455 H449 0.930 . S
C455 C451 1.400 . S
C455 C454 1.385 . S
C456 C454 1.478 . S
C456 C458 1.381 . S
C456 C462 1.383 . S
C457 C453 1.495 . S
C457 H463 0.959 . S
C457 H464 0.961 . S
C457 H465 0.960 . S
C458 C456 1.381 . S
C458 C459 1.394 . S
C458 H466 0.930 . S
C459 C458 1.394 . S
C459 C460 1.383 . S
C459 H467 0.929 . S
C460 C459 1.383 . S
C460 C461 1.377 . S
C461 H445 0.930 . S
C461 C460 1.377 . S
C461 C462 1.379 . S
C462 H446 0.931 . S
C462 C456 1.383 . S
C462 C461 1.379 . S
H463 C457 0.959 . S
H464 C457 0.961 . S
H465 C457 0.960 . S
H466 C458 0.930 . S
H467 C459 0.929 . S
H468 C476 0.929 . S
H469 C478 0.930 . S
H470 C480 0.930 . S
H471 C483 0.929 . S
H472 C486 0.930 . S
H473 C488 0.960 . S
H474 C488 0.960 . S
H475 C488 0.960 . S
C476 H468 0.929 . S
C476 C477 1.377 . S
C476 C478 1.384 . S
C477 C476 1.377 . S
C477 C483 1.390 . S
C478 H469 0.930 . S
C478 C476 1.384 . S
C478 C479 1.372 . S
C479 C478 1.372 . S
C479 C480 1.400 . S
C479 C484 1.490 . S
C480 H470 0.930 . S
C480 C479 1.400 . S
C480 C483 1.386 . S
H481 C497 0.930 . S
H482 C498 0.931 . S
C483 H471 0.929 . S
C483 C477 1.390 . S
C483 C480 1.386 . S
C484 C479 1.490 . S
C484 C486 1.395 . S
C484 C487 1.403 . S
H485 C491 0.930 . S
C486 H472 0.930 . S
C486 C484 1.395 . S
C486 C489 1.403 . S
C487 C484 1.403 . S
C487 C488 1.524 . S
C487 C491 1.400 . S
C488 H473 0.960 . S
C488 H474 0.960 . S
C488 H475 0.960 . S
C488 C487 1.524 . S
C489 C486 1.403 . S
C489 C490 1.392 . S
C489 C493 1.495 . S
C490 C489 1.392 . S
C490 C491 1.385 . S
C490 C492 1.478 . S
C491 H485 0.930 . S
C491 C487 1.400 . S
C491 C490 1.385 . S
C492 C490 1.478 . S
C492 C494 1.381 . S
C492 C498 1.383 . S
C493 C489 1.495 . S
C493 H499 0.959 . S
C493 H500 0.961 . S
C493 H501 0.960 . S
C494 C492 1.381 . S
C494 C495 1.394 . S
C494 H502 0.930 . S
C495 C494 1.394 . S
C495 C496 1.383 . S
C495 H503 0.929 . S
C496 C495 1.383 . S
C496 C497 1.377 . S
C497 H481 0.930 . S
C497 C496 1.377 . S
C497 C498 1.379 . S
C498 H482 0.931 . S
C498 C492 1.383 . S
C498 C497 1.379 . S
H499 C493 0.959 . S
H500 C493 0.961 . S
H501 C493 0.960 . S
H502 C494 0.930 . S
H503 C495 0.929 . S
H504 C512 0.929 . S
H505 C514 0.930 . S
H506 C516 0.930 . S
H507 C519 0.929 . S
H508 C522 0.930 . S
H509 C524 0.960 . S
H510 C524 0.960 . S
H511 C524 0.960 . S
C512 H504 0.929 . S
C512 C513 1.377 . S
C512 C514 1.384 . S
C513 C512 1.377 . S
C513 C519 1.390 . S
C514 H505 0.930 . S
C514 C512 1.384 . S
C514 C515 1.372 . S
C515 C514 1.372 . S
C515 C516 1.400 . S
C515 C520 1.490 . S
C516 H506 0.930 . S
C516 C515 1.400 . S
C516 C519 1.386 . S
H517 C533 0.930 . S
H518 C534 0.931 . S
C519 H507 0.929 . S
C519 C513 1.390 . S
C519 C516 1.386 . S
C520 C515 1.490 . S
C520 C522 1.395 . S
C520 C523 1.403 . S
H521 C527 0.930 . S
C522 H508 0.930 . S
C522 C520 1.395 . S
C522 C525 1.403 . S
C523 C520 1.403 . S
C523 C524 1.524 . S
C523 C527 1.400 . S
C524 H509 0.960 . S
C524 H510 0.960 . S
C524 H511 0.960 . S
C524 C523 1.524 . S
C525 C522 1.403 . S
C525 C526 1.392 . S
C525 C529 1.495 . S
C526 C525 1.392 . S
C526 C527 1.385 . S
C526 C528 1.478 . S
C527 H521 0.930 . S
C527 C523 1.400 . S
C527 C526 1.385 . S
C528 C526 1.478 . S
C528 C530 1.381 . S
C528 C534 1.383 . S
C529 C525 1.495 . S
C529 H535 0.959 . S
C529 H536 0.961 . S
C529 H537 0.960 . S
C530 C528 1.381 . S
C530 C531 1.394 . S
C530 H538 0.930 . S
C531 C530 1.394 . S
C531 C532 1.383 . S
C531 H539 0.929 . S
C532 C531 1.383 . S
C532 C533 1.377 . S
C533 H517 0.930 . S
C533 C532 1.377 . S
C533 C534 1.379 . S
C534 H518 0.931 . S
C534 C528 1.383 . S
C534 C533 1.379 . S
H535 C529 0.959 . S
H536 C529 0.961 . S
H537 C529 0.960 . S
H538 C530 0.930 . S
H539 C531 0.929 . S
H540 C548 0.929 . S
H541 C550 0.930 . S
H542 C552 0.930 . S
H543 C555 0.929 . S
H544 C558 0.930 . S
H545 C560 0.960 . S
H546 C560 0.960 . S
H547 C560 0.960 . S
C548 H540 0.929 . S
C548 C549 1.377 . S
C548 C550 1.384 . S
C549 C548 1.377 . S
C549 C555 1.390 . S
C550 H541 0.930 . S
C550 C548 1.384 . S
C550 C551 1.372 . S
C551 C550 1.372 . S
C551 C552 1.400 . S
C551 C556 1.490 . S
C552 H542 0.930 . S
C552 C551 1.400 . S
C552 C555 1.386 . S
H553 C569 0.930 . S
H554 C570 0.931 . S
C555 H543 0.929 . S
C555 C549 1.390 . S
C555 C552 1.386 . S
C556 C551 1.490 . S
C556 C558 1.395 . S
C556 C559 1.403 . S
H557 C563 0.930 . S
C558 H544 0.930 . S
C558 C556 1.395 . S
C558 C561 1.403 . S
C559 C556 1.403 . S
C559 C560 1.524 . S
C559 C563 1.400 . S
C560 H545 0.960 . S
C560 H546 0.960 . S
C560 H547 0.960 . S
C560 C559 1.524 . S
C561 C558 1.403 . S
C561 C562 1.392 . S
C561 C565 1.495 . S
C562 C561 1.392 . S
C562 C563 1.385 . S
C562 C564 1.478 . S
C563 H557 0.930 . S
C563 C559 1.400 . S
C563 C562 1.385 . S
C564 C562 1.478 . S
C564 C566 1.381 . S
C564 C570 1.383 . S
C565 C561 1.495 . S
C565 H571 0.959 . S
C565 H572 0.961 . S
C565 H573 0.960 . S
C566 C564 1.381 . S
C566 C567 1.394 . S
C566 H574 0.930 . S
C567 C566 1.394 . S
C567 C568 1.383 . S
C567 H575 0.929 . S
C568 C567 1.383 . S
C568 C569 1.377 . S
C569 H553 0.930 . S
C569 C568 1.377 . S
C569 C570 1.379 . S
C570 H554 0.931 . S
C570 C564 1.383 . S
C570 C569 1.379 . S
H571 C565 0.959 . S
H572 C565 0.961 . S
H573 C565 0.960 . S
H574 C566 0.930 . S
H575 C567 0.929 . S
H576 C584 0.929 . S
H577 C586 0.930 . S
H578 C588 0.930 . S
H579 C591 0.929 . S
H580 C594 0.930 . S
H581 C596 0.960 . S
H582 C596 0.960 . S
H583 C596 0.960 . S
C584 H576 0.929 . S
C584 C585 1.377 . S
C584 C586 1.384 . S
C585 C584 1.377 . S
C585 C591 1.390 . S
C586 H577 0.930 . S
C586 C584 1.384 . S
C586 C587 1.372 . S
C587 C586 1.372 . S
C587 C588 1.400 . S
C587 C592 1.490 . S
C588 H578 0.930 . S
C588 C587 1.400 . S
C588 C591 1.386 . S
H589 C605 0.930 . S
H590 C606 0.931 . S
C591 H579 0.929 . S
C591 C585 1.390 . S
C591 C588 1.386 . S
C592 C587 1.490 . S
C592 C594 1.395 . S
C592 C595 1.403 . S
H593 C599 0.930 . S
C594 H580 0.930 . S
C594 C592 1.395 . S
C594 C597 1.403 . S
C595 C592 1.403 . S
C595 C596 1.524 . S
C595 C599 1.400 . S
C596 H581 0.960 . S
C596 H582 0.960 . S
C596 H583 0.960 . S
C596 C595 1.524 . S
C597 C594 1.403 . S
C597 C598 1.392 . S
C597 C601 1.495 . S
C598 C597 1.392 . S
C598 C599 1.385 . S
C598 C600 1.478 . S
C599 H593 0.930 . S
C599 C595 1.400 . S
C599 C598 1.385 . S
C600 C598 1.478 . S
C600 C602 1.381 . S
C600 C606 1.383 . S
C601 C597 1.495 . S
C601 H607 0.959 . S
C601 H608 0.961 . S
C601 H609 0.960 . S
C602 C600 1.381 . S
C602 C603 1.394 . S
C602 H610 0.930 . S
C603 C602 1.394 . S
C603 C604 1.383 . S
C603 H611 0.929 . S
C604 C603 1.383 . S
C604 C605 1.377 . S
C605 H589 0.930 . S
C605 C604 1.377 . S
C605 C606 1.379 . S
C606 H590 0.931 . S
C606 C600 1.383 . S
C606 C605 1.379 . S
H607 C601 0.959 . S
H608 C601 0.961 . S
H609 C601 0.960 . S
H610 C602 0.930 . S
H611 C603 0.929 . S
H612 C620 0.929 1_554 S
H613 C622 0.930 1_554 S
H614 C624 0.930 . S
H615 C627 0.929 . S
H616 C630 0.930 . S
H617 C632 0.960 . S
H618 C632 0.960 . S
H619 C632 0.960 . S
C620 H612 0.929 1_556 S
C620 C621 1.377 . S
C620 C622 1.384 . S
C621 C620 1.377 . S
C621 C627 1.390 . S
C622 H613 0.930 1_556 S
C622 C620 1.384 . S
C622 C623 1.372 . S
C623 C622 1.372 . S
C623 C624 1.400 . S
C623 C628 1.490 . S
C624 H614 0.930 . S
C624 C623 1.400 . S
C624 C627 1.386 . S
H625 C641 0.930 . S
H626 C642 0.931 . S
C627 H615 0.929 . S
C627 C621 1.390 . S
C627 C624 1.386 . S
C628 C623 1.490 . S
C628 C630 1.395 . S
C628 C631 1.403 . S
H629 C635 0.930 . S
C630 H616 0.930 . S
C630 C628 1.395 . S
C630 C633 1.403 1_556 S
C631 C628 1.403 . S
C631 C632 1.524 . S
C631 C635 1.400 . S
C632 H617 0.960 . S
C632 H618 0.960 . S
C632 H619 0.960 . S
C632 C631 1.524 . S
C633 C630 1.403 1_554 S
C633 C634 1.392 . S
C633 C637 1.495 . S
C634 C633 1.392 . S
C634 C635 1.385 1_554 S
C634 C636 1.478 . S
C635 H629 0.930 . S
C635 C631 1.400 . S
C635 C634 1.385 1_556 S
C636 C634 1.478 . S
C636 C638 1.381 . S
C636 C642 1.383 1_554 S
C637 C633 1.495 . S
C637 H643 0.959 . S
C637 H644 0.961 . S
C637 H645 0.960 . S
C638 C636 1.381 . S
C638 C639 1.394 . S
C638 H646 0.930 . S
C639 C638 1.394 . S
C639 C640 1.383 . S
C639 H647 0.929 . S
C640 C639 1.383 . S
C640 C641 1.377 1_554 S
C641 H625 0.930 . S
C641 C640 1.377 1_556 S
C641 C642 1.379 . S
C642 H626 0.931 . S
C642 C636 1.383 1_556 S
C642 C641 1.379 . S
H643 C637 0.959 . S
H644 C637 0.961 . S
H645 C637 0.960 . S
H646 C638 0.930 . S
H647 C639 0.929 . S
C225 C2 1.618 . S
C244 C112 1.621 . S
C261 C38 1.616 . S
C280 C148 1.612 . S
C297 C184 1.623 . S
C316 C74 1.612 . S
C333 C4 1.622 . S
C352 C110 1.616 . S
C369 C40 1.620 . S
C388 C146 1.603 . S
C405 C182 1.615 1_554 S
C424 C76 1.613 . S
C441 C50 1.256 . S
C460 C3 1.337 . S
C477 C86 1.270 . S
C496 C39 1.320 . S
C513 C75 1.329 . S
C532 C122 1.253 . S
C549 C158 1.269 . S
C568 C111 1.317 . S
C585 C194 1.270 . S
C604 C147 1.318 . S
C621 C183 1.332 . S
C640 C14 1.225 . S
