# Generated by pormake.
# Topology ukt, (4)-cn, num edge types: 1
# Building blocks:
#     Node 0, Type 0, BuildingBlock: CEKHIL_clean_sbu_0, # of connection points: 4
#     Node 1, Type 0, BuildingBlock: CEKHIL_clean_sbu_0, # of connection points: 4
#     Node 2, Type 0, BuildingBlock: CEKHIL_clean_sbu_0, # of connection points: 4
#     Node 3, Type 0, BuildingBlock: CEKHIL_clean_sbu_0, # of connection points: 4
#     Node 4, Type 0, BuildingBlock: CEKHIL_clean_sbu_0, # of connection points: 4
#     Node 5, Type 0, BuildingBlock: CEKHIL_clean_sbu_0, # of connection points: 4
#     Node 6, Type 0, BuildingBlock: CEKHIL_clean_sbu_0, # of connection points: 4
#     Node 7, Type 0, BuildingBlock: CEKHIL_clean_sbu_0, # of connection points: 4
#     Node 8, Type 0, BuildingBlock: CEKHIL_clean_sbu_0, # of connection points: 4
#     Node 9, Type 0, BuildingBlock: CEKHIL_clean_sbu_0, # of connection points: 4
#     Node 10, Type 0, BuildingBlock: CEKHIL_clean_sbu_0, # of connection points: 4
#     Node 11, Type 0, BuildingBlock: CEKHIL_clean_sbu_0, # of connection points: 4
#     Node 12, Type 0, BuildingBlock: CEKHIL_clean_sbu_0, # of connection points: 4
#     Node 13, Type 0, BuildingBlock: CEKHIL_clean_sbu_0, # of connection points: 4
#     Node 14, Type 0, BuildingBlock: CEKHIL_clean_sbu_0, # of connection points: 4
#     Node 15, Type 0, BuildingBlock: CEKHIL_clean_sbu_0, # of connection points: 4
#     Edge 16, Type (0, 0), BuildingBlock: UVAHIK_clean_linker_0, # of connection points: 2
#     Edge 17, Type (0, 0), BuildingBlock: UVAHIK_clean_linker_0, # of connection points: 2
#     Edge 18, Type (0, 0), BuildingBlock: UVAHIK_clean_linker_0, # of connection points: 2
#     Edge 19, Type (0, 0), BuildingBlock: UVAHIK_clean_linker_0, # of connection points: 2
#     Edge 20, Type (0, 0), BuildingBlock: UVAHIK_clean_linker_0, # of connection points: 2
#     Edge 21, Type (0, 0), BuildingBlock: UVAHIK_clean_linker_0, # of connection points: 2
#     Edge 22, Type (0, 0), BuildingBlock: UVAHIK_clean_linker_0, # of connection points: 2
#     Edge 23, Type (0, 0), BuildingBlock: UVAHIK_clean_linker_0, # of connection points: 2
#     Edge 24, Type (0, 0), BuildingBlock: UVAHIK_clean_linker_0, # of connection points: 2
#     Edge 25, Type (0, 0), BuildingBlock: UVAHIK_clean_linker_0, # of connection points: 2
#     Edge 26, Type (0, 0), BuildingBlock: UVAHIK_clean_linker_0, # of connection points: 2
#     Edge 27, Type (0, 0), BuildingBlock: UVAHIK_clean_linker_0, # of connection points: 2
#     Edge 28, Type (0, 0), BuildingBlock: UVAHIK_clean_linker_0, # of connection points: 2
#     Edge 29, Type (0, 0), BuildingBlock: UVAHIK_clean_linker_0, # of connection points: 2
#     Edge 30, Type (0, 0), BuildingBlock: UVAHIK_clean_linker_0, # of connection points: 2
#     Edge 31, Type (0, 0), BuildingBlock: UVAHIK_clean_linker_0, # of connection points: 2
#     Edge 32, Type (0, 0), BuildingBlock: UVAHIK_clean_linker_0, # of connection points: 2
#     Edge 33, Type (0, 0), BuildingBlock: UVAHIK_clean_linker_0, # of connection points: 2
#     Edge 34, Type (0, 0), BuildingBlock: UVAHIK_clean_linker_0, # of connection points: 2
#     Edge 35, Type (0, 0), BuildingBlock: UVAHIK_clean_linker_0, # of connection points: 2
#     Edge 36, Type (0, 0), BuildingBlock: UVAHIK_clean_linker_0, # of connection points: 2
#     Edge 37, Type (0, 0), BuildingBlock: UVAHIK_clean_linker_0, # of connection points: 2
#     Edge 38, Type (0, 0), BuildingBlock: UVAHIK_clean_linker_0, # of connection points: 2
#     Edge 39, Type (0, 0), BuildingBlock: UVAHIK_clean_linker_0, # of connection points: 2
#     Edge 40, Type (0, 0), BuildingBlock: UVAHIK_clean_linker_0, # of connection points: 2
#     Edge 41, Type (0, 0), BuildingBlock: UVAHIK_clean_linker_0, # of connection points: 2
#     Edge 42, Type (0, 0), BuildingBlock: UVAHIK_clean_linker_0, # of connection points: 2
#     Edge 43, Type (0, 0), BuildingBlock: UVAHIK_clean_linker_0, # of connection points: 2
#     Edge 44, Type (0, 0), BuildingBlock: UVAHIK_clean_linker_0, # of connection points: 2
#     Edge 45, Type (0, 0), BuildingBlock: UVAHIK_clean_linker_0, # of connection points: 2
#     Edge 46, Type (0, 0), BuildingBlock: UVAHIK_clean_linker_0, # of connection points: 2
#     Edge 47, Type (0, 0), BuildingBlock: UVAHIK_clean_linker_0, # of connection points: 2
# Relax obj value: 0.284
# Max RMSD: 0.165
# Mean RMSD: 0.165
data_MOF--net-ukt--node1-CEKHIL_clean_sbu_0--edge1-UVAHIK_clean_linker_0
_symmetry_space_group_name_H-M    P1
_symmetry_Int_Tables_number       1
_symmetry_cell_setting            triclinic
loop_
_symmetry_equiv_pos_as_xyz
'x, y, z'
_cell_length_a     53.801805
_cell_length_b     53.809645
_cell_length_c     44.586665
_cell_angle_alpha  90.001061
_cell_angle_beta   89.975905
_cell_angle_gamma 90.00753
loop_
_atom_site_label
_atom_site_type_symbol
_atom_site_fract_x
_atom_site_fract_y
_atom_site_fract_z
_atom_type_partial_charge
Co0 Co 0.53396 0.15196 0.09049 0.0
O1 O 0.52168 0.11899 0.09669 0.0
O2 O 0.52262 0.13843 0.05281 0.0
C3 C 0.51506 0.16922 0.13019 0.0
O4 O 0.54464 0.18622 0.07589 0.0
Co5 Co 0.56881 0.1759 0.13761 0.0
O6 O 0.56373 0.20645 0.11348 0.0
C7 C 0.5891 0.13877 0.09587 0.0
C8 C 0.51756 0.1184 0.06803 0.0
C9 C 0.55474 0.20585 0.08704 0.0
O10 O 0.56805 0.13823 0.08231 0.0
O11 O 0.59298 0.15157 0.11963 0.0
O12 O 0.50295 0.1662 0.10523 0.0
O13 O 0.53708 0.15967 0.13111 0.0
Co14 Co 0.34395 0.52966 0.08303 0.0
O15 O 0.37723 0.51842 0.0901 0.0
O16 O 0.35761 0.51652 0.04638 0.0
C17 C 0.32707 0.51276 0.12429 0.0
O18 O 0.30974 0.53879 0.06732 0.0
Co19 Co 0.31833 0.56641 0.12644 0.0
O20 O 0.2877 0.55705 0.10407 0.0
C21 C 0.35629 0.58502 0.08443 0.0
C22 C 0.37781 0.5128 0.06178 0.0
C23 C 0.2893 0.54738 0.07805 0.0
O24 O 0.35693 0.56344 0.07216 0.0
O25 O 0.34332 0.58979 0.10785 0.0
O26 O 0.33034 0.4993 0.10038 0.0
O27 O 0.33598 0.53505 0.12327 0.0
Co28 Co 0.96613 0.34359 0.08719 0.0
O29 O 0.97714 0.37677 0.09518 0.0
O30 O 0.97843 0.35832 0.05068 0.0
C31 C 0.98399 0.32594 0.1273 0.0
O32 O 0.95696 0.30964 0.07078 0.0
Co33 Co 0.93027 0.3173 0.13132 0.0
O34 O 0.93881 0.28721 0.10733 0.0
C35 C 0.91102 0.3561 0.09129 0.0
C36 C 0.98229 0.37813 0.06679 0.0
C37 C 0.94823 0.28915 0.08119 0.0
O38 O 0.932 0.35629 0.0776 0.0
O39 O 0.90695 0.3435 0.11517 0.0
O40 O 0.99697 0.32992 0.10316 0.0
O41 O 0.96165 0.33475 0.12726 0.0
Co42 Co 0.15014 0.96698 0.08444 0.0
O43 O 0.11719 0.97793 0.09397 0.0
O44 O 0.13477 0.98058 0.04904 0.0
C45 C 0.16868 0.98336 0.12487 0.0
O46 O 0.18374 0.95823 0.06647 0.0
Co47 Co 0.17752 0.9297 0.12563 0.0
O48 O 0.20717 0.93992 0.10191 0.0
C49 C 0.1383 0.91149 0.08517 0.0
C50 C 0.1153 0.98401 0.06589 0.0
C51 C 0.20461 0.94981 0.07613 0.0
O52 O 0.13692 0.9333 0.07362 0.0
O53 O 0.15218 0.90639 0.10769 0.0
O54 O 0.16435 0.99717 0.10151 0.0
O55 O 0.15979 0.96107 0.12397 0.0
Co56 Co 0.52813 0.34481 0.41438 0.0
O57 O 0.51622 0.37782 0.40766 0.0
O58 O 0.5154 0.35822 0.45146 0.0
C59 C 0.5108 0.32761 0.37365 0.0
O60 O 0.53821 0.31064 0.42929 0.0
Co61 Co 0.56494 0.32135 0.36903 0.0
O62 O 0.55891 0.29056 0.39276 0.0
C63 C 0.58281 0.35936 0.41083 0.0
C64 C 0.51102 0.37832 0.43607 0.0
C65 C 0.54876 0.29109 0.41862 0.0
O66 O 0.56191 0.35818 0.42464 0.0
O67 O 0.58721 0.34795 0.3862 0.0
O68 O 0.49768 0.3307 0.39787 0.0
O69 O 0.53282 0.33719 0.37398 0.0
Co70 Co 0.15261 0.53501 0.40973 0.0
O71 O 0.11943 0.52417 0.40095 0.0
O72 O 0.13706 0.52318 0.44592 0.0
C73 C 0.17093 0.51655 0.37039 0.0
O74 O 0.18635 0.54379 0.42735 0.0
Co75 Co 0.18118 0.56974 0.36653 0.0
O76 O 0.21031 0.56135 0.39196 0.0
C77 C 0.1421 0.59064 0.40537 0.0
C78 C 0.11752 0.51929 0.42938 0.0
C79 C 0.20738 0.55221 0.41808 0.0
O80 O 0.1398 0.56939 0.41822 0.0
O81 O 0.15664 0.59443 0.38307 0.0
O82 O 0.16636 0.50388 0.39461 0.0
O83 O 0.16249 0.53902 0.36987 0.0
Co84 Co 0.96709 0.1522 0.4126 0.0
O85 O 0.97785 0.11888 0.405 0.0
O86 O 0.97929 0.13765 0.44928 0.0
C87 C 0.98514 0.16936 0.37225 0.0
O88 O 0.95813 0.18636 0.42856 0.0
Co89 Co 0.93158 0.17843 0.36792 0.0
O90 O 0.94019 0.2086 0.39171 0.0
C91 C 0.91189 0.14027 0.40858 0.0
C92 C 0.98306 0.11771 0.43337 0.0
C93 C 0.9495 0.2068 0.41791 0.0
O94 O 0.93282 0.13993 0.42237 0.0
O95 O 0.90799 0.15267 0.38453 0.0
O96 O 0.99807 0.1655 0.39643 0.0
O97 O 0.96274 0.16073 0.37242 0.0
Co98 Co 0.34426 0.96621 0.41182 0.0
O99 O 0.37665 0.98015 0.40633 0.0
O100 O 0.35626 0.97899 0.44958 0.0
C101 C 0.32677 0.98323 0.3711 0.0
O102 O 0.31033 0.954 0.42558 0.0
Co103 Co 0.32389 0.92881 0.36522 0.0
O104 O 0.29257 0.93195 0.38851 0.0
C105 C 0.36162 0.91211 0.40818 0.0
C106 C 0.37637 0.98476 0.43489 0.0
C107 C 0.2918 0.94205 0.41437 0.0
O108 O 0.35963 0.93314 0.42156 0.0
O109 O 0.35027 0.90711 0.38367 0.0
O110 O 0.32869 0.99604 0.39572 0.0
O111 O 0.33765 0.96181 0.37108 0.0
Co112 Co 0.4656 0.84598 0.91223 0.0
O113 O 0.47756 0.87903 0.90592 0.0
O114 O 0.47793 0.85928 0.9496 0.0
C115 C 0.48346 0.82905 0.87163 0.0
O116 O 0.45537 0.81166 0.92665 0.0
Co117 Co 0.4294 0.82284 0.8659 0.0
O118 O 0.43605 0.79179 0.88886 0.0
C119 C 0.41091 0.86043 0.90793 0.0
C120 C 0.48253 0.87942 0.93437 0.0
C121 C 0.44553 0.79208 0.91508 0.0
O122 O 0.43168 0.85926 0.92202 0.0
O123 O 0.40681 0.84914 0.88313 0.0
O124 O 0.49627 0.832 0.89609 0.0
O125 O 0.46144 0.83861 0.8717 0.0
Co126 Co 0.65298 0.46203 0.91075 0.0
O127 O 0.61979 0.47225 0.90087 0.0
O128 O 0.63663 0.47408 0.94625 0.0
C129 C 0.67164 0.4803 0.8715 0.0
O130 O 0.68639 0.45394 0.92963 0.0
Co131 Co 0.68356 0.42756 0.86938 0.0
O132 O 0.71205 0.43855 0.8945 0.0
C133 C 0.64404 0.40613 0.90744 0.0
C134 C 0.61734 0.4775 0.92915 0.0
C135 C 0.70804 0.44717 0.92065 0.0
O136 O 0.64059 0.42755 0.91947 0.0
O137 O 0.65949 0.40238 0.88602 0.0
O138 O 0.66652 0.49319 0.89539 0.0
O139 O 0.66373 0.45763 0.87127 0.0
Co140 Co 0.02849 0.65133 0.9126 0.0
O141 O 0.01625 0.61834 0.90678 0.0
O142 O 0.0159 0.63862 0.95013 0.0
C143 C 0.01103 0.66802 0.87163 0.0
O144 O 0.03901 0.68567 0.92653 0.0
Co145 Co 0.06519 0.67359 0.86616 0.0
O146 O 0.05901 0.70492 0.88877 0.0
C147 C 0.08305 0.6363 0.90893 0.0
C148 C 0.01123 0.61833 0.93524 0.0
C149 C 0.04929 0.70497 0.91488 0.0
O150 O 0.06223 0.63786 0.92285 0.0
O151 O 0.08741 0.64722 0.88397 0.0
O152 O 0.99805 0.66543 0.89604 0.0
O153 O 0.03295 0.65823 0.87199 0.0
Co154 Co 0.84275 0.03044 0.91191 0.0
O155 O 0.87551 0.01729 0.90719 0.0
O156 O 0.85437 0.01775 0.94993 0.0
C157 C 0.82634 0.01325 0.8706 0.0
O158 O 0.8084 0.04196 0.92466 0.0
Co159 Co 0.82313 0.06776 0.86458 0.0
O160 O 0.79163 0.06504 0.88778 0.0
C161 C 0.85989 0.08447 0.90842 0.0
C162 C 0.87486 0.01254 0.9357 0.0
C163 C 0.79028 0.05442 0.91332 0.0
O164 O 0.85701 0.06383 0.92243 0.0
O165 O 0.84998 0.08902 0.88292 0.0
O166 O 0.82814 0.00034 0.89515 0.0
O167 O 0.83685 0.03484 0.87104 0.0
Co168 Co 0.46453 0.65287 0.58786 0.0
O169 O 0.47625 0.61984 0.59517 0.0
O170 O 0.47662 0.63871 0.5509 0.0
C171 C 0.4826 0.67046 0.62787 0.0
O172 O 0.45469 0.68696 0.57218 0.0
Co173 Co 0.42878 0.678 0.63298 0.0
O174 O 0.43664 0.70845 0.60952 0.0
C175 C 0.40949 0.63943 0.59251 0.0
C176 C 0.48105 0.61883 0.56667 0.0
C177 C 0.44582 0.7072 0.5832 0.0
O178 O 0.43051 0.63944 0.57883 0.0
O179 O 0.40542 0.65219 0.61627 0.0
O180 O 0.49533 0.66695 0.60343 0.0
O181 O 0.46044 0.66121 0.62814 0.0
Co182 Co 0.84387 0.46754 0.58332 0.0
O183 O 0.87722 0.47853 0.59025 0.0
O184 O 0.85756 0.48058 0.54657 0.0
C185 C 0.82723 0.48459 0.62468 0.0
O186 O 0.80955 0.45853 0.56796 0.0
Co187 Co 0.81868 0.43089 0.62753 0.0
O188 O 0.78803 0.43944 0.60461 0.0
C189 C 0.85666 0.4125 0.58568 0.0
C190 C 0.8778 0.48421 0.56196 0.0
C191 C 0.78937 0.44938 0.57871 0.0
O192 O 0.85638 0.43362 0.5723 0.0
O193 O 0.84473 0.4081 0.60998 0.0
O194 O 0.83052 0.49804 0.60077 0.0
O195 O 0.83607 0.46229 0.62359 0.0
Co196 Co 0.03408 0.84488 0.58914 0.0
O197 O 0.02176 0.87787 0.59512 0.0
O198 O 0.02285 0.85827 0.55135 0.0
C199 C 0.01506 0.82767 0.6288 0.0
O200 O 0.04476 0.8106 0.5747 0.0
Co201 Co 0.06871 0.82094 0.63649 0.0
O202 O 0.06375 0.79036 0.61236 0.0
C203 C 0.08919 0.8581 0.59488 0.0
C204 C 0.01772 0.87834 0.56644 0.0
C205 C 0.05479 0.79096 0.5859 0.0
O206 O 0.06822 0.85862 0.5811 0.0
O207 O 0.09291 0.84533 0.61869 0.0
O208 O 0.00301 0.83066 0.60378 0.0
O209 O 0.03706 0.83725 0.6298 0.0
Co210 Co 0.65208 0.02999 0.58304 0.0
O211 O 0.61902 0.01881 0.59153 0.0
O212 O 0.63713 0.01738 0.54683 0.0
C213 C 0.67009 0.01256 0.62321 0.0
O214 O 0.68591 0.03921 0.56609 0.0
Co215 Co 0.67889 0.06612 0.62632 0.0
O216 O 0.70881 0.05668 0.60263 0.0
C217 C 0.63987 0.0853 0.58625 0.0
C218 C 0.61744 0.01355 0.56319 0.0
C219 C 0.70663 0.04745 0.57644 0.0
O220 O 0.63898 0.06398 0.57335 0.0
O221 O 0.65327 0.08963 0.60942 0.0
O222 O 0.6661 -0.00065 0.59925 0.0
O223 O 0.66119 0.03485 0.62293 0.0
C224 C 0.57303 0.24791 0.0777 0.0
C225 C 0.55829 0.22798 0.06765 0.0
C226 C 0.57929 0.2673 0.05838 0.0
C227 C 0.56337 0.3005 0.98988 0.0
H228 H 0.63434 0.3129 0.98527 0.0
C229 C 0.60935 0.38843 0.93829 0.0
C230 C 0.6305 0.38467 0.92027 0.0
C231 C 0.59804 0.36845 0.95296 0.0
C232 C 0.6145 0.30951 0.98612 0.0
H233 H 0.53729 0.21372 0.02979 0.0
H234 H 0.54806 0.24804 0.9961 0.0
H235 H 0.61864 0.28051 0.01854 0.0
H236 H 0.65576 0.35683 0.90265 0.0
H237 H 0.63621 0.32203 0.92875 0.0
H238 H 0.55932 0.33007 0.95787 0.0
C239 C 0.55487 0.24833 0.01896 0.0
C240 C 0.60551 0.29116 0.00534 0.0
C241 C 0.54879 0.22868 0.03824 0.0
C242 C 0.63951 0.36037 0.91634 0.0
C243 C 0.6284 0.34046 0.93136 0.0
C244 C 0.57237 0.31923 0.97094 0.0
C245 C 0.57075 0.26741 0.02866 0.0
C246 C 0.57988 0.28657 0.00755 0.0
C247 C 0.60785 0.34439 0.95022 0.0
C248 C 0.59804 0.32389 0.96894 0.0
H249 H 0.58057 0.24816 0.10022 0.0
H250 H 0.59129 0.282 0.06651 0.0
H251 H 0.54353 0.29729 0.99125 0.0
H252 H 0.60185 0.40691 0.94162 0.0
H253 H 0.5823 0.372 0.9675 0.0
C254 C 0.1071 0.62662 0.95479 0.0
C255 C 0.10332 0.62289 0.92404 0.0
C256 C 0.12625 0.61438 0.96974 0.0
C257 C 0.18439 0.57777 0.95632 0.0
H258 H 0.17843 0.56897 0.04221 0.0
C259 C 0.27035 0.55899 0.02932 0.0
C260 C 0.2676 0.54898 0.05813 0.0
C261 C 0.24954 0.5636 0.01149 0.0
C262 C 0.18048 0.57059 0.01816 0.0
H263 H 0.11605 0.60315 0.88469 0.0
H264 H 0.1486 0.58023 0.91111 0.0
H265 H 0.1433 0.58365 0.0141 0.0
H266 H 0.24143 0.53436 0.0904 0.0
H267 H 0.20516 0.54027 0.05847 0.0
H268 H 0.22093 0.56278 0.96006 0.0
C269 C 0.13755 0.59344 0.92364 0.0
C270 C 0.16028 0.57975 0.00196 0.0
C271 C 0.11881 0.60641 0.90844 0.0
C272 C 0.24388 0.54234 0.06828 0.0
C273 C 0.22309 0.54606 0.05 0.0
C274 C 0.20433 0.56773 0.97238 0.0
C275 C 0.14165 0.59733 0.95457 0.0
C276 C 0.16219 0.58443 0.97097 0.0
C277 C 0.22546 0.55753 0.02165 0.0
C278 C 0.20304 0.56481 0.00377 0.0
H279 H 0.09556 0.63954 0.96721 0.0
H280 H 0.12912 0.61877 0.99316 0.0
H281 H 0.18686 0.58101 0.93256 0.0
H282 H 0.28852 0.5645 0.02119 0.0
H283 H 0.25247 0.57294 0.9903 0.0
C284 C 0.88964 0.12042 0.90853 0.0
C285 C 0.87359 0.10436 0.92399 0.0
C286 C 0.90254 0.13906 0.92401 0.0
C287 C 0.91686 0.16069 0.00263 0.0
H288 H 0.93163 0.22251 0.96205 0.0
C289 C 0.95364 0.24397 0.07023 0.0
C290 C 0.94639 0.26772 0.06087 0.0
C291 C 0.9499 0.22341 0.05155 0.0
C292 C 0.9273 0.20557 0.97402 0.0
H293 H 0.85775 0.09549 0.96732 0.0
H294 H 0.87845 0.12877 0.99381 0.0
H295 H 0.91386 0.18848 0.93403 0.0
H296 H 0.92971 0.28895 0.02497 0.0
H297 H 0.92127 0.25326 0.99343 0.0
H298 H 0.9278 0.17839 0.04313 0.0
C299 C 0.88252 0.12645 0.97021 0.0
C300 C 0.91754 0.18567 0.95764 0.0
C301 C 0.87033 0.10743 0.95495 0.0
C302 C 0.93569 0.27075 0.03247 0.0
C303 C 0.93108 0.25016 0.01426 0.0
C304 C 0.92575 0.18083 0.01918 0.0
C305 C 0.89904 0.14248 0.95512 0.0
C306 C 0.91168 0.16304 0.97181 0.0
C307 C 0.93783 0.22604 0.02361 0.0
C308 C 0.93074 0.20379 0.00529 0.0
H309 H 0.89254 0.11826 0.88463 0.0
H310 H 0.91535 0.1506 0.91152 0.0
H311 H 0.91357 0.14341 0.01439 0.0
H312 H 0.96214 0.24131 0.09202 0.0
H313 H 0.9562 0.20546 0.05938 0.0
C314 C 0.38715 0.87164 0.9536 0.0
C315 C 0.39043 0.87396 0.92255 0.0
C316 C 0.36777 0.88395 0.96804 0.0
C317 C 0.30814 0.91767 0.95333 0.0
H318 H 0.31512 0.93137 0.03815 0.0
C319 C 0.22277 0.93707 0.02737 0.0
C320 C 0.22573 0.94859 0.0553 0.0
C321 C 0.24338 0.93245 0.00915 0.0
C322 C 0.31275 0.92837 0.01434 0.0
H323 H 0.37648 0.89125 0.88213 0.0
H324 H 0.34345 0.91427 0.90754 0.0
H325 H 0.35031 0.91644 0.01033 0.0
H326 H 0.25192 0.96592 0.08549 0.0
H327 H 0.28769 0.96002 0.05273 0.0
H328 H 0.27111 0.93146 0.95687 0.0
C329 C 0.35514 0.90213 0.92076 0.0
C330 C 0.33302 0.91906 0.99837 0.0
C331 C 0.37416 0.88909 0.90613 0.0
C332 C 0.24933 0.9568 0.06405 0.0
C333 C 0.26986 0.95305 0.04533 0.0
C334 C 0.28808 0.92783 0.96909 0.0
C335 C 0.35157 0.89966 0.95199 0.0
C336 C 0.3308 0.91264 0.96788 0.0
C337 C 0.26739 0.93999 0.01803 0.0
C338 C 0.28976 0.93254 0.00013 0.0
H339 H 0.39927 0.85977 0.96669 0.0
H340 H 0.36534 0.88066 0.9918 0.0
H341 H 0.30544 0.91303 0.92994 0.0
H342 H 0.20469 0.93034 0.02037 0.0
H343 H 0.24042 0.92192 0.9888 0.0
C344 C 0.54939 0.27133 0.46946 0.0
C345 C 0.55112 0.26895 0.4381 0.0
C346 C 0.55464 0.25113 0.4881 0.0
C347 C 0.56013 0.18327 0.49101 0.0
H348 H 0.61196 0.19524 0.54968 0.0
C349 C 0.61615 0.10349 0.54334 0.0
C350 C 0.62552 0.1059 0.57263 0.0
C351 C 0.60382 0.1232 0.52953 0.0
C352 C 0.59708 0.19158 0.53395 0.0
H353 H 0.55838 0.24318 0.40173 0.0
H354 H 0.56708 0.20778 0.43438 0.0
H355 H 0.59518 0.22984 0.52092 0.0
H356 H 0.62842 0.1307 0.61079 0.0
H357 H 0.60615 0.16493 0.58704 0.0
H358 H 0.56181 0.14508 0.50401 0.0
C359 C 0.56185 0.22534 0.44444 0.0
C360 C 0.58755 0.21144 0.51738 0.0
C361 C 0.557 0.24563 0.42579 0.0
C362 C 0.62163 0.12831 0.58811 0.0
C363 C 0.60896 0.14798 0.5744 0.0
C364 C 0.56938 0.16344 0.50789 0.0
C365 C 0.56129 0.22807 0.47577 0.0
C366 C 0.56935 0.20739 0.49536 0.0
C367 C 0.60018 0.14579 0.54476 0.0
C368 C 0.58839 0.16723 0.52912 0.0
H369 H 0.54497 0.28905 0.47967 0.0
H370 H 0.55393 0.25364 0.5122 0.0
H371 H 0.54591 0.17972 0.47436 0.0
H372 H 0.61892 0.08655 0.53063 0.0
H373 H 0.59783 0.12089 0.50652 0.0
C374 C 0.36623 0.62165 0.59437 0.0
C375 C 0.38893 0.62477 0.57919 0.0
C376 C 0.34656 0.60886 0.5808 0.0
C377 C 0.33134 0.56751 0.51586 0.0
H378 H 0.26574 0.59649 0.5242 0.0
C379 C 0.25281 0.55708 0.42887 0.0
C380 C 0.22845 0.55341 0.43938 0.0
C381 C 0.27231 0.561 0.44899 0.0
C382 C 0.28387 0.58792 0.52202 0.0
H383 H 0.40883 0.6164 0.538 0.0
H384 H 0.37455 0.59498 0.5142 0.0
H385 H 0.29997 0.6126 0.55412 0.0
H386 H 0.20563 0.55007 0.47934 0.0
H387 H 0.23973 0.55736 0.51445 0.0
H388 H 0.31528 0.54373 0.48249 0.0
C389 C 0.37198 0.6018 0.53684 0.0
C390 C 0.30352 0.5971 0.53925 0.0
C391 C 0.39166 0.61434 0.55046 0.0
C392 C 0.22418 0.55282 0.4705 0.0
C393 C 0.24365 0.55711 0.49062 0.0
C394 C 0.31174 0.55856 0.49837 0.0
C395 C 0.34908 0.59907 0.55167 0.0
C396 C 0.32764 0.58736 0.53595 0.0
C397 C 0.26781 0.56164 0.48002 0.0
C398 C 0.28793 0.56898 0.50091 0.0
H399 H 0.36356 0.62926 0.61662 0.0
H400 H 0.32933 0.60679 0.5931 0.0
H401 H 0.34952 0.55915 0.51321 0.0
H402 H 0.25673 0.55751 0.40504 0.0
H403 H 0.29074 0.56462 0.4402 0.0
C404 C 0.86728 0.38868 0.53989 0.0
C405 C 0.87004 0.39206 0.57086 0.0
C406 C 0.87969 0.36947 0.52522 0.0
C407 C 0.91506 0.31064 0.53948 0.0
H408 H 0.92707 0.31738 0.45425 0.0
C409 C 0.93626 0.2253 0.46629 0.0
C410 C 0.94737 0.22829 0.43811 0.0
C411 C 0.93103 0.24595 0.48416 0.0
C412 C 0.92454 0.31511 0.47815 0.0
H413 H 0.88822 0.37856 0.6109 0.0
H414 H 0.91143 0.3459 0.58509 0.0
H415 H 0.9116 0.35234 0.48208 0.0
H416 H 0.96326 0.25472 0.40705 0.0
H417 H 0.95626 0.29069 0.43917 0.0
H418 H 0.92993 0.27405 0.53599 0.0
C419 C 0.89884 0.35729 0.57211 0.0
C420 C 0.91492 0.33522 0.49416 0.0
C421 C 0.8857 0.3761 0.58698 0.0
C422 C 0.95446 0.25208 0.42868 0.0
C423 C 0.9501 0.27271 0.44705 0.0
C424 C 0.92555 0.29079 0.52366 0.0
C425 C 0.89595 0.3536 0.54095 0.0
C426 C 0.90913 0.33305 0.52485 0.0
C427 C 0.93755 0.2701 0.4747 0.0
C428 C 0.92966 0.29237 0.4925 0.0
H429 H 0.85503 0.40062 0.52706 0.0
H430 H 0.87607 0.36694 0.50155 0.0
H431 H 0.91094 0.30796 0.563 0.0
H432 H 0.93037 0.20707 0.47382 0.0
H433 H 0.92089 0.24284 0.50476 0.0
C434 C 0.10615 0.89028 0.55977 0.0
C435 C 0.11034 0.87157 0.58124 0.0
C436 C 0.12606 0.90109 0.5444 0.0
C437 C 0.18717 0.88486 0.51717 0.0
H438 H 0.19587 0.95535 0.50203 0.0
C439 C 0.25123 0.92075 0.42415 0.0
C440 C 0.26933 0.93811 0.43306 0.0
C441 C 0.23141 0.91487 0.44305 0.0
C442 C 0.19365 0.93565 0.50619 0.0
H443 H 0.13879 0.8502 0.60413 0.0
H444 H 0.17348 0.86881 0.57685 0.0
H445 H 0.16246 0.9412 0.53554 0.0
H446 H 0.27998 0.96387 0.46827 0.0
H447 H 0.24495 0.95374 0.50115 0.0
H448 H 0.21788 0.87915 0.48745 0.0
C449 C 0.15477 0.87512 0.57209 0.0
C450 C 0.17455 0.92757 0.52521 0.0
C451 C 0.13492 0.86458 0.58779 0.0
C452 C 0.26645 0.95032 0.46077 0.0
C453 C 0.24638 0.94462 0.47956 0.0
C454 C 0.20592 0.89288 0.49785 0.0
C455 C 0.15049 0.89313 0.54988 0.0
C456 C 0.17119 0.90209 0.53085 0.0
C457 C 0.22904 0.92641 0.47113 0.0
C458 C 0.20929 0.91831 0.49208 0.0
H459 H 0.08744 0.89618 0.55433 0.0
H460 H 0.12226 0.91485 0.52728 0.0
H461 H 0.18481 0.8651 0.52088 0.0
H462 H 0.25274 0.91103 0.40296 0.0
H463 H 0.21809 0.90098 0.43589 0.0
C464 C 0.44032 0.74611 0.92025 0.0
C465 C 0.44311 0.76951 0.93375 0.0
C466 C 0.43506 0.72517 0.93763 0.0
C467 C 0.43091 0.70189 0.01665 0.0
H468 H 0.3832 0.6566 0.98114 0.0
C469 C 0.37192 0.62915 0.08261 0.0
C470 C 0.37031 0.60536 0.06965 0.0
C471 C 0.3838 0.64856 0.06733 0.0
C472 C 0.39671 0.66895 0.99126 0.0
H473 H 0.44347 0.78921 0.97616 0.0
H474 H 0.43334 0.75293 0.00641 0.0
H475 H 0.39877 0.69131 0.9519 0.0
H476 H 0.38078 0.58321 0.03085 0.0
H477 H 0.40105 0.61706 0.00432 0.0
H478 H 0.42779 0.67973 0.05655 0.0
C479 C 0.43581 0.7505 0.98249 0.0
C480 C 0.40581 0.68881 0.97444 0.0
C481 C 0.44153 0.77138 0.96512 0.0
C482 C 0.38148 0.60128 0.04152 0.0
C483 C 0.39306 0.62068 0.02621 0.0
C484 C 0.42148 0.68214 0.03366 0.0
C485 C 0.43193 0.72721 0.96889 0.0
C486 C 0.42308 0.70556 0.98682 0.0
C487 C 0.39402 0.64457 0.03873 0.0
C488 C 0.40435 0.66547 0.02105 0.0
H489 H 0.44178 0.74404 0.89614 0.0
H490 H 0.43297 0.70745 0.92641 0.0
H491 H 0.4444 0.71418 0.02686 0.0
H492 H 0.36364 0.63292 0.10428 0.0
H493 H 0.38422 0.66687 0.07741 0.0
C494 C 0.72487 0.4329 0.96944 0.0
C495 C 0.72832 0.44603 0.94264 0.0
C496 C 0.74489 0.42852 0.98863 0.0
C497 C 0.81445 0.42838 0.98739 0.0
H498 H 0.80454 0.40706 0.0695 0.0
C499 C 0.88806 0.36952 0.04594 0.0
C500 C 0.8904 0.36982 0.07723 0.0
C501 C 0.86883 0.38234 0.0319 0.0
C502 C 0.80792 0.41338 0.04683 0.0
H503 H 0.75463 0.4665 0.91561 0.0
H504 H 0.78924 0.46093 0.95022 0.0
H505 H 0.7705 0.42591 0.0424 0.0
H506 H 0.87482 0.38399 0.11856 0.0
H507 H 0.84189 0.40784 0.09401 0.0
H508 H 0.85228 0.41763 0.99247 0.0
C509 C 0.77157 0.45255 0.95588 0.0
C510 C 0.78809 0.4238 0.03091 0.0
C511 C 0.7517 0.45609 0.93612 0.0
C512 C 0.87324 0.38339 0.09435 0.0
C513 C 0.85431 0.39692 0.0802 0.0
C514 C 0.83444 0.4188 0.0036 0.0
C515 C 0.76875 0.43789 0.98193 0.0
C516 C 0.79075 0.43057 0.00052 0.0
C517 C 0.8518 0.39655 0.04869 0.0
C518 C 0.83127 0.41014 0.03314 0.0
H519 H 0.70695 0.42477 0.97471 0.0
H520 H 0.7417 0.41675 0.0079 0.0
H521 H 0.81763 0.43306 0.96412 0.0
H522 H 0.90087 0.35888 0.03225 0.0
H523 H 0.86721 0.38064 0.0078 0.0
C524 C 0.05307 0.72579 0.96482 0.0
C525 C 0.05194 0.72758 0.93342 0.0
C526 C 0.05886 0.74662 0.9822 0.0
C527 C 0.0895 0.80807 0.97461 0.0
H528 H 0.06648 0.81723 0.05633 0.0
C529 C 0.11286 0.8955 0.04239 0.0
C530 C 0.12419 0.89124 0.07037 0.0
C531 C 0.10137 0.87615 0.0269 0.0
C532 C 0.07306 0.81479 0.03355 0.0
H533 H 0.05422 0.75287 0.89571 0.0
H534 H 0.06312 0.78945 0.926 0.0
H535 H 0.05001 0.78294 0.02628 0.0
H536 H 0.13123 0.86344 0.1046 0.0
H537 H 0.11072 0.82958 0.07747 0.0
H538 H 0.11218 0.84018 0.98178 0.0
C539 C 0.06062 0.77179 0.93725 0.0
C540 C 0.06373 0.79513 0.01634 0.0
C541 C 0.05532 0.75088 0.91985 0.0
C542 C 0.12281 0.86733 0.08305 0.0
C543 C 0.11098 0.84799 0.06763 0.0
C544 C 0.09847 0.82787 0.99162 0.0
C545 C 0.06323 0.76981 0.96859 0.0
C546 C 0.07196 0.79142 0.98666 0.0
C547 C 0.10064 0.85216 0.03915 0.0
C548 C 0.09046 0.83135 0.02127 0.0
H549 H 0.0507 0.70803 0.97591 0.0
H550 H 0.06095 0.74422 0.00617 0.0
H551 H 0.09685 0.80553 0.95221 0.0
H552 H 0.11343 0.91366 0.03192 0.0
H553 H 0.09331 0.87988 0.00509 0.0
C554 C 0.63478 0.13217 0.08828 0.0
C555 C 0.61013 0.12528 0.08197 0.0
C556 C 0.65446 0.12165 0.07224 0.0
C557 C 0.67326 0.06936 0.02427 0.0
H558 H 0.71727 0.1176 0.98733 0.0
C559 C 0.76419 0.04556 0.9589 0.0
C560 C 0.76765 0.05839 0.9317 0.0
C561 C 0.74421 0.05141 0.97773 0.0
C562 C 0.7051 0.10392 0.99746 0.0
H563 H 0.58691 0.10088 0.05516 0.0
H564 H 0.62139 0.0823 0.0275 0.0
H565 H 0.68464 0.13169 0.02133 0.0
H566 H 0.75214 0.08673 0.90249 0.0
H567 H 0.71757 0.09699 0.93548 0.0
H568 H 0.69387 0.04159 0.00022 0.0
C569 C 0.62541 0.09594 0.04469 0.0
C570 C 0.68662 0.11196 0.01714 0.0
C571 C 0.60569 0.1067 0.06042 0.0
C572 C 0.75015 0.07651 0.92327 0.0
C573 C 0.7304 0.08252 0.94223 0.0
C574 C 0.69206 0.06126 0.00487 0.0
C575 C 0.64991 0.10378 0.04992 0.0
C576 C 0.6704 0.0948 0.03056 0.0
C577 C 0.72752 0.07037 0.96987 0.0
C578 C 0.70794 0.07853 0.99103 0.0
H579 H 0.63883 0.14644 0.10469 0.0
H580 H 0.67323 0.12786 0.07684 0.0
H581 H 0.66099 0.05577 0.03438 0.0
H582 H 0.77725 0.03143 0.96603 0.0
H583 H 0.74239 0.0418 0.99897 0.0
C584 C 0.4428 0.7271 0.53255 0.0
C585 C 0.44428 0.72947 0.56388 0.0
C586 C 0.43812 0.74788 0.51458 0.0
C587 C 0.41059 0.81078 0.52075 0.0
H588 H 0.43359 0.81765 0.43871 0.0
C589 C 0.38751 0.8971 0.45116 0.0
C590 C 0.3765 0.89245 0.42308 0.0
C591 C 0.39925 0.87807 0.46697 0.0
C592 C 0.42703 0.81588 0.46158 0.0
H593 H 0.44388 0.75567 0.60079 0.0
H594 H 0.4368 0.79203 0.56949 0.0
H595 H 0.44875 0.78318 0.46949 0.0
H596 H 0.37052 0.86432 0.38893 0.0
H597 H 0.39124 0.83104 0.41669 0.0
H598 H 0.38905 0.84352 0.51292 0.0
C599 C 0.4382 0.77403 0.55876 0.0
C600 C 0.43562 0.79613 0.47921 0.0
C601 C 0.44244 0.75322 0.57674 0.0
C602 C 0.37867 0.86854 0.41054 0.0
C603 C 0.39063 0.8495 0.42634 0.0
C604 C 0.40231 0.83061 0.5033 0.0
C605 C 0.43519 0.77156 0.52754 0.0
C606 C 0.42737 0.79324 0.509 0.0
C607 C 0.40047 0.85397 0.45503 0.0
C608 C 0.4103 0.83331 0.47351 0.0
H609 H 0.44406 0.709 0.522 0.0
H610 H 0.4357 0.74515 0.49071 0.0
H611 H 0.40325 0.8089 0.54325 0.0
H612 H 0.38647 0.9153 0.46146 0.0
H613 H 0.40698 0.8821 0.48887 0.0
C614 C 0.77043 0.4365 0.5305 0.0
C615 C 0.7677 0.44744 0.55881 0.0
C616 C 0.74965 0.43175 0.51267 0.0
C617 C 0.68037 0.4265 0.51871 0.0
H618 H 0.68732 0.41343 0.43371 0.0
C619 C 0.60643 0.37014 0.45668 0.0
C620 C 0.60309 0.37294 0.42571 0.0
C621 C 0.62563 0.3825 0.4714 0.0
C622 C 0.6847 0.41743 0.45728 0.0
H623 H 0.74163 0.46344 0.59022 0.0
H624 H 0.70543 0.45727 0.5582 0.0
H625 H 0.72152 0.4317 0.46091 0.0
H626 H 0.61668 0.39118 0.38572 0.0
H627 H 0.64934 0.41431 0.41164 0.0
H628 H 0.64294 0.41418 0.51465 0.0
C629 C 0.7233 0.45089 0.55016 0.0
C630 C 0.70471 0.42748 0.4732 0.0
C631 C 0.74405 0.45477 0.56848 0.0
C632 C 0.61907 0.38864 0.40965 0.0
C633 C 0.63789 0.40173 0.42458 0.0
C634 C 0.66012 0.41733 0.50261 0.0
C635 C 0.72563 0.4386 0.52231 0.0
C636 C 0.7032 0.43132 0.50443 0.0
C637 C 0.64156 0.39875 0.45573 0.0
C638 C 0.66222 0.41169 0.47187 0.0
H639 H 0.78855 0.43045 0.52278 0.0
H640 H 0.75254 0.42175 0.49193 0.0
H641 H 0.67813 0.42887 0.54265 0.0
H642 H 0.59451 0.35784 0.46948 0.0
H643 H 0.62814 0.3788 0.49505 0.0
C644 C 0.13653 0.63641 0.41322 0.0
C645 C 0.12838 0.61195 0.41829 0.0
C646 C 0.12547 0.65627 0.42834 0.0
C647 C 0.0706 0.67683 0.47058 0.0
H648 H 0.11778 0.71701 0.51506 0.0
C649 C 0.04792 0.76778 0.53754 0.0
C650 C 0.05822 0.76881 0.56654 0.0
C651 C 0.05369 0.74807 0.51823 0.0
C652 C 0.10441 0.70595 0.50273 0.0
H653 H 0.10122 0.58932 0.44178 0.0
H654 H 0.0817 0.62417 0.46785 0.0
H655 H 0.1329 0.68454 0.48149 0.0
H656 H 0.08171 0.74921 0.59837 0.0
H657 H 0.09193 0.71526 0.56455 0.0
H658 H 0.0421 0.69846 0.49203 0.0
C659 C 0.09675 0.62787 0.45233 0.0
C660 C 0.11305 0.68755 0.48335 0.0
C661 C 0.10805 0.60794 0.43756 0.0
C662 C 0.07352 0.74917 0.57618 0.0
C663 C 0.07949 0.72973 0.5568 0.0
C664 C 0.06193 0.69561 0.48966 0.0
C665 C 0.10579 0.65212 0.44845 0.0
C666 C 0.09626 0.67266 0.46731 0.0
C667 C 0.07007 0.72927 0.52748 0.0
C668 C 0.0788 0.71007 0.50621 0.0
H669 H 0.15214 0.64013 0.39854 0.0
H670 H 0.13266 0.67486 0.42485 0.0
H671 H 0.05731 0.66557 0.4584 0.0
H672 H 0.03596 0.78251 0.52945 0.0
H673 H 0.04621 0.74809 0.49568 0.0
C674 C 0.72499 0.05837 0.52701 0.0
C675 C 0.72811 0.04904 0.55611 0.0
C676 C 0.74564 0.06352 0.50907 0.0
C677 C 0.81398 0.07454 0.51654 0.0
H678 H 0.80858 0.08268 0.43047 0.0
C679 C 0.88575 0.13253 0.45318 0.0
C680 C 0.89098 0.12746 0.42304 0.0
C681 C 0.86647 0.12023 0.46783 0.0
C682 C 0.81074 0.08013 0.4544 0.0
H683 H 0.75484 0.03594 0.58866 0.0
H684 H 0.79086 0.04285 0.55663 0.0
H685 H 0.775 0.06317 0.45787 0.0
H686 H 0.88065 0.10553 0.38439 0.0
H687 H 0.84778 0.08263 0.41043 0.0
H688 H 0.85035 0.08978 0.51291 0.0
C689 C 0.77271 0.04771 0.54801 0.0
C690 C 0.79111 0.06931 0.47034 0.0
C691 C 0.75207 0.04341 0.56634 0.0
C692 C 0.87671 0.1098 0.40765 0.0
C693 C 0.85782 0.09683 0.42262 0.0
C694 C 0.83386 0.08458 0.50052 0.0
C695 C 0.76992 0.05873 0.51949 0.0
C696 C 0.79208 0.06707 0.50182 0.0
C697 C 0.85245 0.10183 0.45302 0.0
C698 C 0.83224 0.08839 0.46935 0.0
H699 H 0.70664 0.06306 0.51876 0.0
H700 H 0.74243 0.07236 0.48764 0.0
H701 H 0.81568 0.07356 0.54068 0.0
H702 H 0.89641 0.14634 0.46534 0.0
H703 H 0.86252 0.12545 0.49078 0.0
C704 C 0.48928 0.90556 0.98007 0.0
C705 C 0.4905 0.90271 0.94881 0.0
C706 C 0.49312 0.92889 0.99307 0.0
C707 C 0.48835 0.99513 0.97384 0.0
H708 H 0.52355 0.00519 0.04867 0.0
C709 C 0.51178 0.09223 0.02217 0.0
C710 C 0.51014 0.095 0.05341 0.0
C711 C 0.50834 0.06889 0.00902 0.0
C712 C 0.5134 0.00261 0.02792 0.0
H713 H 0.49826 0.92154 0.90679 0.0
H714 H 0.50539 0.96201 0.92949 0.0
H715 H 0.52164 0.9637 0.02677 0.0
H716 H 0.50217 0.07596 0.09524 0.0
H717 H 0.49579 0.03546 0.07228 0.0
H718 H 0.48011 0.03404 0.975 0.0
C719 C 0.50085 0.94645 0.94391 0.0
C720 C 0.51237 0.97887 0.01539 0.0
C721 C 0.49695 0.92322 0.93095 0.0
C722 C 0.50377 0.07435 0.0711 0.0
C723 C 0.5003 0.05111 0.058 0.0
C724 C 0.4894 0.01887 0.98637 0.0
C725 C 0.4983 0.94969 0.97499 0.0
C726 C 0.49984 0.97489 0.98821 0.0
C727 C 0.50319 0.048 0.02694 0.0
C728 C 0.50188 0.02284 0.01358 0.0
H729 H 0.48425 0.89006 0.99435 0.0
H730 H 0.49095 0.93084 0.0171 0.0
H731 H 0.47816 0.99255 0.95312 0.0
H732 H 0.51676 0.10781 0.00801 0.0
H733 H 0.51076 0.06702 0.98501 0.0
C734 C 0.40308 0.50375 0.01597 0.0
C735 C 0.40128 0.50533 0.04734 0.0
C736 C 0.4262 0.50032 0.00228 0.0
C737 C 0.49227 0.51183 0.01666 0.0
H738 H 0.50334 0.46812 0.94886 0.0
C739 C 0.58992 0.48733 0.97275 0.0
C740 C 0.59305 0.48474 0.94165 0.0
C741 C 0.56631 0.4913 0.98482 0.0
C742 C 0.50043 0.48068 0.96751 0.0
H743 H 0.42194 0.50314 0.08906 0.0
H744 H 0.46213 0.49687 0.06519 0.0
H745 H 0.46214 0.47035 0.97165 0.0
H746 H 0.57417 0.48537 0.89866 0.0
H747 H 0.533 0.49266 0.91974 0.0
H748 H 0.5305 0.52219 0.01259 0.0
C749 C 0.44581 0.49878 0.05116 0.0
C750 C 0.47688 0.48188 0.98059 0.0
C751 C 0.42276 0.50218 0.06481 0.0
C752 C 0.57231 0.48717 0.92275 0.0
C753 C 0.54871 0.49115 0.93482 0.0
C754 C 0.51578 0.51068 0.00356 0.0
C755 C 0.44785 0.49845 0.01977 0.0
C756 C 0.47264 0.4973 0.00546 0.0
C757 C 0.5454 0.49279 0.966 0.0
C758 C 0.52016 0.49496 0.97899 0.0
H759 H 0.38683 0.50617 0.00195 0.0
H760 H 0.42725 0.50019 0.97802 0.0
H761 H 0.4894 0.52429 0.03543 0.0
H762 H 0.60556 0.48548 0.98788 0.0
H763 H 0.56433 0.49227 0.00897 0.0
C764 C 0.00498 0.59266 0.98142 0.0
C765 C 0.00347 0.59517 0.95013 0.0
C766 C 0.00185 0.56935 0.99477 0.0
C767 C 0.00939 0.50349 0.97615 0.0
H768 H 0.97386 0.4917 0.05042 0.0
C769 C 0.98876 0.40531 0.02203 0.0
C770 C 0.98945 0.40203 0.05325 0.0
C771 C 0.99182 0.42896 0.00965 0.0
C772 C 0.98415 0.49478 0.02987 0.0
H773 H 0.99572 0.5758 0.90847 0.0
H774 H 0.98992 0.53536 0.93179 0.0
H775 H 0.97434 0.53335 0.02877 0.0
H776 H 0.99539 0.42053 0.0959 0.0
H777 H 0.00124 0.46164 0.07426 0.0
H778 H 0.01929 0.465 0.97723 0.0
C779 C 0.99411 0.55118 0.94594 0.0
C780 C 0.98434 0.5186 0.01747 0.0
C781 C 0.99726 0.57438 0.93264 0.0
C782 C 0.99455 0.42253 0.07175 0.0
C783 C 0.9977 0.44612 0.05939 0.0
C784 C 0.00926 0.47971 0.98858 0.0
C785 C 0.99715 0.54828 0.977 0.0
C786 C 0.99683 0.52313 0.99039 0.0
C787 C 0.99573 0.44969 0.02829 0.0
C788 C 0.99658 0.47508 0.01552 0.0
H789 H 0.00981 0.60838 0.99542 0.0
H790 H 0.00431 0.56763 0.01879 0.0
H791 H 0.0196 0.50656 0.95554 0.0
H792 H 0.98475 0.38985 0.00725 0.0
H793 H 0.99006 0.43115 0.9856 0.0
C794 C 0.07104 0.99642 0.07256 0.0
C795 C 0.09117 0.99164 0.05333 0.0
C796 C 0.04724 -1e-05 0.06095 0.0
C797 C 0.01257 0.01264 0.99093 0.0
H798 H 0.95932 0.97734 0.03145 0.0
C799 C 0.91869 0.99813 0.93449 0.0
C800 C 0.89768 0.00479 0.95137 0.0
C801 C 0.94174 0.99546 0.94829 0.0
C802 C 0.97398 0.98744 0.02008 0.0
H803 H 0.10246 0.9879 0.00688 0.0
H804 H 0.06085 0.99382 0.98656 0.0
H805 H 0.00111 0.97711 0.05281 0.0
H806 H 0.88389 0.01226 0.99617 0.0
H807 H 0.92442 0.00744 0.02046 0.0
H808 H 0.98552 0.02262 0.95798 0.0
C809 C 0.06346 0.9951 0.0106 0.0
C810 C 0.99787 0.98743 0.03233 0.0
C811 C 0.08731 0.99167 0.02221 0.0
C812 C 0.89979 0.00707 0.98264 0.0
C813 C 0.92296 0.00436 0.99651 0.0
C814 C 0.98875 0.01253 0.97864 0.0
C815 C 0.04308 -0.00127 0.0299 0.0
C816 C 0.01746 -0.00011 0.01776 0.0
C817 C 0.94426 -0.00063 0.97925 0.0
C818 C 0.96929 -0.00027 0.99293 0.0
H819 H 0.07352 0.99669 0.09667 0.0
H820 H 0.03202 0.00327 0.07636 0.0
H821 H 0.02714 0.02276 0.97945 0.0
H822 H 0.91758 0.996 0.91037 0.0
H823 H 0.95776 0.99102 0.93458 0.0
C824 C 0.48723 0.59201 0.52149 0.0
C825 C 0.48843 0.59515 0.55271 0.0
C826 C 0.4904 0.56845 0.50887 0.0
C827 C 0.48346 0.50261 0.52892 0.0
H828 H 0.51856 0.4909 0.45433 0.0
C829 C 0.5046 0.40462 0.48166 0.0
C830 C 0.50332 0.40174 0.45041 0.0
C831 C 0.50139 0.42808 0.49457 0.0
C832 C 0.50841 0.49395 0.475 0.0
H833 H 0.49542 0.57655 0.59506 0.0
H834 H 0.50138 0.53563 0.57299 0.0
H835 H 0.51796 0.53256 0.47581 0.0
H836 H 0.49598 0.42062 0.40833 0.0
H837 H 0.48995 0.46133 0.43089 0.0
H838 H 0.47393 0.46399 0.5281 0.0
C839 C 0.4974 0.55117 0.55833 0.0
C840 C 0.50814 0.51778 0.48731 0.0
C841 C 0.49418 0.57465 0.57092 0.0
C842 C 0.49733 0.42234 0.43248 0.0
C843 C 0.49406 0.44569 0.44535 0.0
C844 C 0.48374 0.47877 0.51661 0.0
C845 C 0.49487 0.54771 0.52728 0.0
C846 C 0.49567 0.52236 0.5144 0.0
C847 C 0.49679 0.44895 0.47641 0.0
C848 C 0.49616 0.47423 0.48948 0.0
H849 H 0.48274 0.60749 0.50694 0.0
H850 H 0.48825 0.56633 0.48485 0.0
H851 H 0.4733 0.50567 0.54958 0.0
H852 H 0.50929 0.38906 0.49599 0.0
H853 H 0.50366 0.43005 0.51859 0.0
C854 C 0.07271 0.5084 0.42395 0.0
C855 C 0.09346 0.51206 0.44255 0.0
C856 C 0.04922 0.50461 0.43636 0.0
C857 C 0.01654 0.4878 0.50626 0.0
H858 H 0.96232 0.52554 0.47133 0.0
C859 C 0.92247 0.49584 0.56536 0.0
C860 C 0.9013 0.49176 0.54763 0.0
C861 C 0.94563 0.4994 0.55203 0.0
C862 C 0.97723 0.51473 0.48114 0.0
H863 H 0.10611 0.51368 0.48868 0.0
H864 H 0.06501 0.50719 0.5104 0.0
H865 H 0.00364 0.52772 0.44889 0.0
H866 H 0.88748 0.48936 0.50204 0.0
H867 H 0.9281 0.49553 0.47866 0.0
H868 H 0.99018 0.4749 0.53858 0.0
C869 C 0.06693 0.50708 0.48622 0.0
C870 C 0.00086 0.5159 0.46827 0.0
C871 C 0.09046 0.51084 0.47379 0.0
C872 C 0.90349 0.49253 0.51626 0.0
C873 C 0.92673 0.49607 0.50288 0.0
C874 C 0.99294 0.48666 0.51914 0.0
C875 C 0.046 0.50442 0.46762 0.0
C876 C 0.02078 0.50251 0.48076 0.0
C877 C 0.9481 0.4989 0.52069 0.0
C878 C 0.97308 0.50021 0.50681 0.0
H879 H 0.07447 0.5091 0.39976 0.0
H880 H 0.03351 0.50214 0.42147 0.0
H881 H 0.03143 0.477 0.51613 0.0
H882 H 0.92133 0.49555 0.58962 0.0
H883 H 0.96169 0.50209 0.5663 0.0
C884 C 0.00421 0.92248 0.56917 0.0
C885 C 0.01024 0.90165 0.55164 0.0
C886 C 0.00069 0.94562 0.55582 0.0
C887 C 0.9888 0.97747 0.48429 0.0
H888 H 0.02284 0.03235 0.52309 0.0
C889 C 0.99563 0.07336 0.42871 0.0
C890 C 0.99049 0.09394 0.44707 0.0
C891 C -0.0006 0.04995 0.44127 0.0
C892 C 0.01305 0.01727 0.51215 0.0
H893 H 0.01611 0.88837 0.50628 0.0
H894 H 0.00997 0.92899 0.48284 0.0
H895 H 0.02479 0.99095 0.54514 0.0
H896 H 0.98624 0.10642 0.49302 0.0
H897 H 0.99263 0.06539 0.51504 0.0
H898 H 0.97693 0.00382 0.4514 0.0
C899 C 0.00791 0.92734 0.50692 0.0
C900 C 0.01413 0.99358 0.52478 0.0
C901 C 0.01143 0.90411 0.52032 0.0
C902 C 0.99026 0.0909 0.47834 0.0
C903 C 0.99395 0.06741 0.49093 0.0
C904 C 0.98768 0.00119 0.47168 0.0
C905 C 0.00316 0.94842 0.52466 0.0
C906 C 0.00192 0.97347 0.51105 0.0
C907 C 0.99802 0.0466 0.47245 0.0
C908 C -0.00024 0.02135 0.48551 0.0
H909 H 0.00294 0.92112 0.59336 0.0
H910 H 0.99651 0.96144 0.56997 0.0
H911 H 0.97904 0.96236 0.47339 0.0
H912 H 0.99611 0.07518 0.40452 0.0
H913 H 0.00303 0.03438 0.4265 0.0
C914 C 0.5731 0.00113 0.56867 0.0
C915 C 0.59338 0.00653 0.54992 0.0
C916 C 0.54931 0.99841 0.55671 0.0
C917 C 0.51239 0.0193 0.49288 0.0
H918 H 0.46529 0.96936 0.51938 0.0
C919 C 0.41986 0.00029 0.43294 0.0
C920 C 0.39917 0.99317 0.45011 0.0
C921 C 0.44286 0.00408 0.44651 0.0
C922 C 0.4781 0.98369 0.51216 0.0
H923 H 0.60498 0.01206 0.50383 0.0
H924 H 0.56332 0.00714 0.48283 0.0
H925 H 0.50756 0.96905 0.53916 0.0
H926 H 0.3859 0.98583 0.49517 0.0
H927 H 0.42621 0.99281 0.51907 0.0
H928 H 0.48299 0.03398 0.46591 0.0
C929 C 0.56583 0.00533 0.50684 0.0
C930 C 0.50233 0.98339 0.52333 0.0
C931 C 0.58968 0.00791 0.5188 0.0
C932 C 0.40155 0.9913 0.48139 0.0
C933 C 0.42466 0.99505 0.49501 0.0
C934 C 0.48815 0.01965 0.4818 0.0
C935 C 0.54535 0.00116 0.52578 0.0
C936 C 0.51976 0.00109 0.51361 0.0
C937 C 0.44568 0.00083 0.47757 0.0
C938 C 0.47079 0.00174 0.49115 0.0
H939 H 0.57541 -8e-05 0.59276 0.0
H940 H 0.53388 0.9953 0.57185 0.0
H941 H 0.52529 0.0335 0.48549 0.0
H942 H 0.41857 0.00192 0.40877 0.0
H943 H 0.45869 0.00832 0.4324 0.0
C944 C 0.48114 0.29726 0.35069 0.0
C945 C 0.50177 0.3131 0.34789 0.0
C946 C 0.47383 0.28229 0.32662 0.0
C947 C 0.48084 0.27376 0.24487 0.0
H948 H 0.48096 0.20322 0.26269 0.0
C949 C 0.51652 0.18216 0.18365 0.0
C950 C 0.50501 0.18362 0.15548 0.0
C951 C 0.50814 0.19675 0.20738 0.0
C952 C 0.48048 0.22287 0.25743 0.0
H953 H 0.53027 0.32658 0.31759 0.0
H954 H 0.51743 0.30067 0.27562 0.0
H955 H 0.48049 0.23327 0.30376 0.0
H956 H 0.47532 0.20092 0.1301 0.0
H957 H 0.46098 0.22708 0.17171 0.0
H958 H 0.48233 0.26336 0.19858 0.0
C959 C 0.50685 0.29981 0.29627 0.0
C960 C 0.48004 0.24005 0.28088 0.0
C961 C 0.51435 0.31445 0.32039 0.0
C962 C 0.48452 0.19948 0.15163 0.0
C963 C 0.47633 0.21441 0.17535 0.0
C964 C 0.48107 0.25659 0.22141 0.0
C965 C 0.48679 0.2833 0.29929 0.0
C966 C 0.48132 0.26561 0.2748 0.0
C967 C 0.48826 0.21332 0.20335 0.0
C968 C 0.482 0.23102 0.22755 0.0
H969 H 0.47112 0.2959 0.37171 0.0
H970 H 0.45832 0.26966 0.32947 0.0
H971 H 0.4816 0.29341 0.23964 0.0
H972 H 0.53229 0.17 0.18726 0.0
H973 H 0.51793 0.19582 0.22858 0.0
C974 C 0.2019 0.48639 0.34943 0.0
C975 C 0.18568 0.50657 0.34534 0.0
C976 C 0.21709 0.47838 0.32583 0.0
C977 C 0.2591 0.48394 0.27904 0.0
H978 H 0.23474 0.48078 0.19722 0.0
C979 C 0.31454 0.51693 0.17773 0.0
C980 C 0.31317 0.50378 0.1506 0.0
C981 C 0.30051 0.50945 0.2024 0.0
C982 C 0.24183 0.48105 0.21995 0.0
H983 H 0.17176 0.53349 0.31332 0.0
H984 H 0.19787 0.51931 0.27217 0.0
H985 H 0.20524 0.48116 0.23888 0.0
H986 H 0.29657 0.47216 0.12809 0.0
H987 H 0.27139 0.45939 0.17132 0.0
H988 H 0.29565 0.48537 0.26002 0.0
C989 C 0.19894 0.50969 0.29347 0.0
C990 C 0.22496 0.48143 0.24374 0.0
C991 C 0.18417 0.51795 0.3171 0.0
C992 C 0.29794 0.48262 0.14878 0.0
C993 C 0.28357 0.47533 0.17343 0.0
C994 C 0.27597 0.48381 0.25523 0.0
C995 C 0.21581 0.49009 0.2977 0.0
C996 C 0.23343 0.48386 0.2734 0.0
C997 C 0.28458 0.48884 0.20037 0.0
C998 C 0.26743 0.48334 0.22545 0.0
H999 H 0.20341 0.47736 0.37106 0.0
H1000 H 0.23004 0.46329 0.32961 0.0
H1001 H 0.2661 0.48592 0.3017 0.0
H1002 H 0.32621 0.53325 0.1798 0.0
H1003 H 0.30136 0.52046 0.22272 0.0
C1004 C 0.01449 0.2961 0.14971 0.0
C1005 C 0.99361 0.31156 0.15286 0.0
C1006 C 0.0224 0.28134 0.17371 0.0
C1007 C 0.01691 0.27324 0.25566 0.0
H1008 H 0.01708 0.20255 0.23872 0.0
C1009 C 0.98262 0.18216 0.31883 0.0
C1010 C 0.99475 0.18365 0.34661 0.0
C1011 C 0.99056 0.19661 0.29476 0.0
C1012 C 0.01751 0.22225 0.24372 0.0
H1013 H 0.96528 0.32458 0.18366 0.0
H1014 H 0.9792 0.29911 0.22551 0.0
H1015 H 0.01663 0.23226 0.19727 0.0
H1016 H 0.02503 0.20091 0.37099 0.0
H1017 H 0.03857 0.22691 0.32878 0.0
H1018 H 0.0163 0.26321 0.30211 0.0
C1019 C 0.98949 0.29835 0.20463 0.0
C1020 C 0.01742 0.23923 0.22005 0.0
C1021 C 0.98137 0.31274 0.1806 0.0
C1022 C 0.01538 0.19944 0.34974 0.0
C1023 C 0.02311 0.21427 0.32569 0.0
C1024 C 0.01724 0.25627 0.27934 0.0
C1025 C 0.00983 0.28224 0.20131 0.0
C1026 C 0.01599 0.26483 0.22585 0.0
C1027 C 0.0106 0.2131 0.29807 0.0
C1028 C 0.01641 0.23064 0.27353 0.0
H1029 H 0.02423 0.29487 0.12849 0.0
H1030 H 0.0381 0.26899 0.17062 0.0
H1031 H 0.01603 0.29292 0.26066 0.0
H1032 H 0.96672 0.17007 0.31578 0.0
H1033 H 0.98032 0.19564 0.27387 0.0
C1034 C 0.31433 0.97977 0.31753 0.0
C1035 C 0.31226 0.99199 0.34521 0.0
C1036 C 0.29977 0.98712 0.29326 0.0
C1037 C 0.2736 0.01316 0.2418 0.0
H1038 H 0.20286 0.0118 0.25847 0.0
C1039 C 0.19927 0.01277 0.14793 0.0
C1040 C 0.18356 0.99202 0.15049 0.0
C1041 C 0.2144 0.01981 0.172 0.0
C1042 C 0.22257 0.01261 0.25355 0.0
H1043 H 0.29384 0.02184 0.36916 0.0
H1044 H 0.26782 0.03436 0.32667 0.0
H1045 H 0.23244 0.01171 0.30002 0.0
H1046 H 0.17056 0.96295 0.18029 0.0
H1047 H 0.19664 0.97539 0.22228 0.0
H1048 H 0.26369 0.01273 0.19529 0.0
C1049 C 0.2809 0.01925 0.32381 0.0
C1050 C 0.23947 0.01273 0.27728 0.0
C1051 C 0.29576 0.01209 0.34803 0.0
C1052 C 0.18257 0.97897 0.1777 0.0
C1053 C 0.19732 0.98623 0.20181 0.0
C1054 C 0.25669 0.0133 0.21806 0.0
C1055 C 0.28264 0.00665 0.29629 0.0
C1056 C 0.26513 0.01198 0.27157 0.0
C1057 C 0.2136 0.00649 0.19908 0.0
C1058 C 0.23106 0.012 0.22377 0.0
H1059 H 0.32697 0.96427 0.3147 0.0
H1060 H 0.3012 0.97683 0.27244 0.0
H1061 H 0.29332 0.01282 0.23687 0.0
H1062 H 0.20037 0.02311 0.12713 0.0
H1063 H 0.22688 0.03546 0.16939 0.0
C1064 C 0.48043 0.81598 0.81828 0.0
C1065 C 0.49276 0.8146 0.84594 0.0
C1066 C 0.48817 0.80137 0.79423 0.0
C1067 C 0.51468 0.77542 0.74308 0.0
H1068 H 0.51468 0.70486 0.76079 0.0
C1069 C 0.51267 0.70096 0.64981 0.0
C1070 C 0.49217 0.68504 0.65328 0.0
C1071 C 0.52041 0.71601 0.67363 0.0
C1072 C 0.51513 0.72452 0.75557 0.0
H1073 H 0.52321 0.7974 0.87009 0.0
H1074 H 0.53643 0.77125 0.82796 0.0
H1075 H 0.51461 0.73487 0.80191 0.0
H1076 H 0.46439 0.67147 0.68447 0.0
H1077 H 0.47799 0.69747 0.726 0.0
H1078 H 0.51374 0.76505 0.69675 0.0
C1079 C 0.52093 0.78386 0.82494 0.0
C1080 C 0.51526 0.74167 0.77905 0.0
C1081 C 0.51338 0.79879 0.84896 0.0
C1082 C 0.48018 0.68366 0.68117 0.0
C1083 C 0.48813 0.69836 0.70502 0.0
C1084 C 0.51478 0.75827 0.71959 0.0
C1085 C 0.50822 0.78488 0.79745 0.0
C1086 C 0.51394 0.76724 0.77299 0.0
C1087 C 0.50803 0.71497 0.70136 0.0
C1088 C 0.5139 0.73269 0.72568 0.0
H1089 H 0.46453 0.82808 0.81532 0.0
H1090 H 0.47778 0.80225 0.77344 0.0
H1091 H 0.5139 0.79507 0.73787 0.0
H1092 H 0.52222 0.70234 0.62848 0.0
H1093 H 0.53578 0.72872 0.67029 0.0
C1094 C 0.81494 0.48049 0.67821 0.0
C1095 C 0.81337 0.49356 0.65105 0.0
C1096 C 0.80093 0.48789 0.70293 0.0
C1097 C 0.74206 0.51576 0.7207 0.0
H1098 H 0.76664 0.51142 0.80235 0.0
C1099 C 0.70237 0.51065 0.85032 0.0
C1100 C 0.68637 0.49027 0.84641 0.0
C1101 C 0.7175 0.51867 0.82664 0.0
C1102 C 0.75955 0.51324 0.77971 0.0
H1103 H 0.79643 0.52497 0.62851 0.0
H1104 H 0.77127 0.53761 0.67182 0.0
H1105 H 0.79605 0.51211 0.76051 0.0
H1106 H 0.67281 0.46295 0.81465 0.0
H1107 H 0.69879 0.47713 0.77339 0.0
H1108 H 0.70553 0.51535 0.73981 0.0
C1109 C 0.7836 0.52179 0.67393 0.0
C1110 C 0.77634 0.51345 0.75581 0.0
C1111 C 0.79796 0.51458 0.64923 0.0
C1112 C 0.68505 0.47865 0.81829 0.0
C1113 C 0.69974 0.48692 0.7946 0.0
C1114 C 0.72527 0.5153 0.74458 0.0
C1115 C 0.78482 0.50835 0.70092 0.0
C1116 C 0.76769 0.51375 0.72607 0.0
C1117 C 0.71637 0.50674 0.79862 0.0
C1118 C 0.73386 0.51307 0.77421 0.0
H1119 H 0.82675 0.46427 0.68027 0.0
H1120 H 0.80195 0.47694 0.72328 0.0
H1121 H 0.73488 0.51589 0.698 0.0
H1122 H 0.70374 0.51986 0.87185 0.0
H1123 H 0.73027 0.53393 0.83028 0.0
C1124 C 0.01644 0.81459 0.6822 0.0
C1125 C 0.00507 0.81306 0.65396 0.0
C1126 C 0.00823 0.79974 0.70578 0.0
C1127 C 0.98082 0.77292 0.75549 0.0
H1128 H 0.9829 0.70247 0.73729 0.0
C1129 C 0.98145 0.69832 0.84844 0.0
C1130 C 0.00209 0.68248 0.84578 0.0
C1131 C 0.97427 0.71332 0.82433 0.0
C1132 C 0.9819 0.72209 0.74264 0.0
H1133 H 0.97579 0.79536 0.62828 0.0
H1134 H 0.96174 0.76875 0.66963 0.0
H1135 H 0.98354 0.7327 0.69642 0.0
H1136 H 0.03074 0.66904 0.81567 0.0
H1137 H 0.01816 0.69501 0.77365 0.0
H1138 H 0.98066 0.76234 0.80175 0.0
C1139 C 0.97686 0.78168 0.67345 0.0
C1140 C 0.98206 0.73936 0.71928 0.0
C1141 C 0.98487 0.79687 0.64988 0.0
C1142 C 0.01481 0.68115 0.81836 0.0
C1143 C 0.00746 0.69584 0.79422 0.0
C1144 C 0.98045 0.75564 0.77884 0.0
C1145 C 0.98866 0.78283 0.70152 0.0
C1146 C 0.98261 0.76492 0.72558 0.0
C1147 C 0.98739 0.71236 0.7971 0.0
C1148 C 0.98206 0.73011 0.77262 0.0
H1149 H 0.03199 0.827 0.68598 0.0
H1150 H 0.01793 0.80074 0.72704 0.0
H1151 H 0.981 0.79255 0.76088 0.0
H1152 H 0.97132 0.69968 0.86937 0.0
H1153 H 0.95875 0.72593 0.82709 0.0
C1154 C 0.70123 0.9833 0.64555 0.0
C1155 C 0.68481 0.00343 0.64873 0.0
C1156 C 0.7164 0.97612 0.66953 0.0
C1157 C 0.72393 0.98169 0.75145 0.0
H1158 H 0.79469 0.98485 0.73527 0.0
C1159 C 0.81415 0.01707 0.81694 0.0
C1160 C 0.81231 0.00439 0.84434 0.0
C1161 C 0.8 0.00959 0.79237 0.0
C1162 C 0.77498 0.98358 0.74005 0.0
H1163 H 0.67053 0.03115 0.67953 0.0
H1164 H 0.69665 0.01845 0.72133 0.0
H1165 H 0.76525 0.98449 0.69349 0.0
H1166 H 0.79475 0.97357 0.86746 0.0
H1167 H 0.76949 0.96078 0.82445 0.0
H1168 H 0.73355 0.98216 0.79799 0.0
C1169 C 0.69788 0.00821 0.70046 0.0
C1170 C 0.75818 0.98316 0.71619 0.0
C1171 C 0.6831 0.01562 0.67646 0.0
C1172 C 0.79648 0.9837 0.84657 0.0
C1173 C 0.78205 0.97638 0.82203 0.0
C1174 C 0.74072 0.98187 0.77529 0.0
C1175 C 0.71493 0.98866 0.69713 0.0
C1176 C 0.7325 0.98326 0.72175 0.0
C1177 C 0.78352 0.98943 0.7948 0.0
C1178 C 0.76635 0.98384 0.7698 0.0
H1179 H 0.70289 0.97365 0.62433 0.0
H1180 H 0.72948 0.96103 0.66645 0.0
H1181 H 0.70418 0.98157 0.75625 0.0
H1182 H 0.82627 0.03303 0.81457 0.0
H1183 H 0.80122 0.02022 0.77179 0.0
loop_
_geom_bond_atom_site_label_1
_geom_bond_atom_site_label_2
_geom_bond_distance
_geom_bond_site_symmetry_2
_ccdc_geom_bond_type
Co0 O1 2.216 . S
Co0 O2 2.091 . S
Co0 O4 2.004 . S
Co0 O10 2.021 . S
Co0 O12 2.137 . S
Co0 O13 2.244 . S
O1 Co0 2.216 . S
O1 C8 1.247 . S
O2 Co0 2.091 . S
O2 C8 1.261 . S
C3 O12 1.247 . S
C3 O13 1.272 . S
O4 Co0 2.004 . S
O4 C9 1.259 . S
Co5 O6 2.061 . S
Co5 O11 2.052 . S
Co5 O13 2.135 . S
O6 Co5 2.061 . S
O6 C9 1.235 . S
C7 O10 1.238 . S
C7 O11 1.241 . S
C8 O1 1.247 . S
C8 O2 1.261 . S
C9 O4 1.259 . S
C9 O6 1.235 . S
O10 Co0 2.021 . S
O10 C7 1.238 . S
O11 Co5 2.052 . S
O11 C7 1.241 . S
O12 Co0 2.137 . S
O12 C3 1.247 . S
O13 Co0 2.244 . S
O13 C3 1.272 . S
O13 Co5 2.135 . S
Co14 O15 2.216 . S
Co14 O16 2.091 . S
Co14 O18 2.004 . S
Co14 O24 2.021 . S
Co14 O26 2.137 . S
Co14 O27 2.244 . S
O15 Co14 2.216 . S
O15 C22 1.247 . S
O16 Co14 2.091 . S
O16 C22 1.261 . S
C17 O26 1.247 . S
C17 O27 1.272 . S
O18 Co14 2.004 . S
O18 C23 1.259 . S
Co19 O20 2.061 . S
Co19 O25 2.052 . S
Co19 O27 2.135 . S
O20 Co19 2.061 . S
O20 C23 1.235 . S
C21 O24 1.238 . S
C21 O25 1.241 . S
C22 O15 1.247 . S
C22 O16 1.261 . S
C23 O18 1.259 . S
C23 O20 1.235 . S
O24 Co14 2.021 . S
O24 C21 1.238 . S
O25 Co19 2.052 . S
O25 C21 1.241 . S
O26 Co14 2.137 . S
O26 C17 1.247 . S
O27 Co14 2.244 . S
O27 C17 1.272 . S
O27 Co19 2.135 . S
Co28 O29 2.216 . S
Co28 O30 2.091 . S
Co28 O32 2.004 . S
Co28 O38 2.021 . S
Co28 O40 2.137 . S
Co28 O41 2.244 . S
O29 Co28 2.216 . S
O29 C36 1.247 . S
O30 Co28 2.091 . S
O30 C36 1.261 . S
C31 O40 1.247 . S
C31 O41 1.272 . S
O32 Co28 2.004 . S
O32 C37 1.259 . S
Co33 O34 2.061 . S
Co33 O39 2.052 . S
Co33 O41 2.135 . S
O34 Co33 2.061 . S
O34 C37 1.235 . S
C35 O38 1.238 . S
C35 O39 1.241 . S
C36 O29 1.247 . S
C36 O30 1.261 . S
C37 O32 1.259 . S
C37 O34 1.235 . S
O38 Co28 2.021 . S
O38 C35 1.238 . S
O39 Co33 2.052 . S
O39 C35 1.241 . S
O40 Co28 2.137 . S
O40 C31 1.247 . S
O41 Co28 2.244 . S
O41 C31 1.272 . S
O41 Co33 2.135 . S
Co42 O43 2.216 . S
Co42 O44 2.091 . S
Co42 O46 2.004 . S
Co42 O52 2.021 . S
Co42 O54 2.137 . S
Co42 O55 2.244 . S
O43 Co42 2.216 . S
O43 C50 1.247 . S
O44 Co42 2.091 . S
O44 C50 1.261 . S
C45 O54 1.247 . S
C45 O55 1.272 . S
O46 Co42 2.004 . S
O46 C51 1.259 . S
Co47 O48 2.061 . S
Co47 O53 2.052 . S
Co47 O55 2.135 . S
O48 Co47 2.061 . S
O48 C51 1.235 . S
C49 O52 1.238 . S
C49 O53 1.241 . S
C50 O43 1.247 . S
C50 O44 1.261 . S
C51 O46 1.259 . S
C51 O48 1.235 . S
O52 Co42 2.021 . S
O52 C49 1.238 . S
O53 Co47 2.052 . S
O53 C49 1.241 . S
O54 Co42 2.137 . S
O54 C45 1.247 . S
O55 Co42 2.244 . S
O55 C45 1.272 . S
O55 Co47 2.135 . S
Co56 O57 2.216 . S
Co56 O58 2.091 . S
Co56 O60 2.004 . S
Co56 O66 2.021 . S
Co56 O68 2.137 . S
Co56 O69 2.244 . S
O57 Co56 2.216 . S
O57 C64 1.247 . S
O58 Co56 2.091 . S
O58 C64 1.261 . S
C59 O68 1.247 . S
C59 O69 1.272 . S
O60 Co56 2.004 . S
O60 C65 1.259 . S
Co61 O62 2.061 . S
Co61 O67 2.052 . S
Co61 O69 2.135 . S
O62 Co61 2.061 . S
O62 C65 1.235 . S
C63 O66 1.238 . S
C63 O67 1.241 . S
C64 O57 1.247 . S
C64 O58 1.261 . S
C65 O60 1.259 . S
C65 O62 1.235 . S
O66 Co56 2.021 . S
O66 C63 1.238 . S
O67 Co61 2.052 . S
O67 C63 1.241 . S
O68 Co56 2.137 . S
O68 C59 1.247 . S
O69 Co56 2.244 . S
O69 C59 1.272 . S
O69 Co61 2.135 . S
Co70 O71 2.216 . S
Co70 O72 2.091 . S
Co70 O74 2.004 . S
Co70 O80 2.021 . S
Co70 O82 2.137 . S
Co70 O83 2.244 . S
O71 Co70 2.216 . S
O71 C78 1.247 . S
O72 Co70 2.091 . S
O72 C78 1.261 . S
C73 O82 1.247 . S
C73 O83 1.272 . S
O74 Co70 2.004 . S
O74 C79 1.259 . S
Co75 O76 2.061 . S
Co75 O81 2.052 . S
Co75 O83 2.135 . S
O76 Co75 2.061 . S
O76 C79 1.235 . S
C77 O80 1.238 . S
C77 O81 1.241 . S
C78 O71 1.247 . S
C78 O72 1.261 . S
C79 O74 1.259 . S
C79 O76 1.235 . S
O80 Co70 2.021 . S
O80 C77 1.238 . S
O81 Co75 2.052 . S
O81 C77 1.241 . S
O82 Co70 2.137 . S
O82 C73 1.247 . S
O83 Co70 2.244 . S
O83 C73 1.272 . S
O83 Co75 2.135 . S
Co84 O85 2.216 . S
Co84 O86 2.091 . S
Co84 O88 2.004 . S
Co84 O94 2.021 . S
Co84 O96 2.137 . S
Co84 O97 2.244 . S
O85 Co84 2.216 . S
O85 C92 1.247 . S
O86 Co84 2.091 . S
O86 C92 1.261 . S
C87 O96 1.247 . S
C87 O97 1.272 . S
O88 Co84 2.004 . S
O88 C93 1.259 . S
Co89 O90 2.061 . S
Co89 O95 2.052 . S
Co89 O97 2.135 . S
O90 Co89 2.061 . S
O90 C93 1.235 . S
C91 O94 1.238 . S
C91 O95 1.241 . S
C92 O85 1.247 . S
C92 O86 1.261 . S
C93 O88 1.259 . S
C93 O90 1.235 . S
O94 Co84 2.021 . S
O94 C91 1.238 . S
O95 Co89 2.052 . S
O95 C91 1.241 . S
O96 Co84 2.137 . S
O96 C87 1.247 . S
O97 Co84 2.244 . S
O97 C87 1.272 . S
O97 Co89 2.135 . S
Co98 O99 2.216 . S
Co98 O100 2.091 . S
Co98 O102 2.004 . S
Co98 O108 2.021 . S
Co98 O110 2.137 . S
Co98 O111 2.244 . S
O99 Co98 2.216 . S
O99 C106 1.247 . S
O100 Co98 2.091 . S
O100 C106 1.261 . S
C101 O110 1.247 . S
C101 O111 1.272 . S
O102 Co98 2.004 . S
O102 C107 1.259 . S
Co103 O104 2.061 . S
Co103 O109 2.052 . S
Co103 O111 2.135 . S
O104 Co103 2.061 . S
O104 C107 1.235 . S
C105 O108 1.238 . S
C105 O109 1.241 . S
C106 O99 1.247 . S
C106 O100 1.261 . S
C107 O102 1.259 . S
C107 O104 1.235 . S
O108 Co98 2.021 . S
O108 C105 1.238 . S
O109 Co103 2.052 . S
O109 C105 1.241 . S
O110 Co98 2.137 . S
O110 C101 1.247 . S
O111 Co98 2.244 . S
O111 C101 1.272 . S
O111 Co103 2.135 . S
Co112 O113 2.216 . S
Co112 O114 2.091 . S
Co112 O116 2.004 . S
Co112 O122 2.021 . S
Co112 O124 2.137 . S
Co112 O125 2.244 . S
O113 Co112 2.216 . S
O113 C120 1.247 . S
O114 Co112 2.091 . S
O114 C120 1.261 . S
C115 O124 1.247 . S
C115 O125 1.272 . S
O116 Co112 2.004 . S
O116 C121 1.259 . S
Co117 O118 2.061 . S
Co117 O123 2.052 . S
Co117 O125 2.135 . S
O118 Co117 2.061 . S
O118 C121 1.235 . S
C119 O122 1.238 . S
C119 O123 1.241 . S
C120 O113 1.247 . S
C120 O114 1.261 . S
C121 O116 1.259 . S
C121 O118 1.235 . S
O122 Co112 2.021 . S
O122 C119 1.238 . S
O123 Co117 2.052 . S
O123 C119 1.241 . S
O124 Co112 2.137 . S
O124 C115 1.247 . S
O125 Co112 2.244 . S
O125 C115 1.272 . S
O125 Co117 2.135 . S
Co126 O127 2.216 . S
Co126 O128 2.091 . S
Co126 O130 2.004 . S
Co126 O136 2.021 . S
Co126 O138 2.137 . S
Co126 O139 2.244 . S
O127 Co126 2.216 . S
O127 C134 1.247 . S
O128 Co126 2.091 . S
O128 C134 1.261 . S
C129 O138 1.247 . S
C129 O139 1.272 . S
O130 Co126 2.004 . S
O130 C135 1.259 . S
Co131 O132 2.061 . S
Co131 O137 2.052 . S
Co131 O139 2.135 . S
O132 Co131 2.061 . S
O132 C135 1.235 . S
C133 O136 1.238 . S
C133 O137 1.241 . S
C134 O127 1.247 . S
C134 O128 1.261 . S
C135 O130 1.259 . S
C135 O132 1.235 . S
O136 Co126 2.021 . S
O136 C133 1.238 . S
O137 Co131 2.052 . S
O137 C133 1.241 . S
O138 Co126 2.137 . S
O138 C129 1.247 . S
O139 Co126 2.244 . S
O139 C129 1.272 . S
O139 Co131 2.135 . S
Co140 O141 2.216 . S
Co140 O142 2.091 . S
Co140 O144 2.004 . S
Co140 O150 2.021 . S
Co140 O152 2.137 . S
Co140 O153 2.244 . S
O141 Co140 2.216 . S
O141 C148 1.247 . S
O142 Co140 2.091 . S
O142 C148 1.261 . S
C143 O152 1.247 . S
C143 O153 1.272 . S
O144 Co140 2.004 . S
O144 C149 1.259 . S
Co145 O146 2.061 . S
Co145 O151 2.052 . S
Co145 O153 2.135 . S
O146 Co145 2.061 . S
O146 C149 1.235 . S
C147 O150 1.238 . S
C147 O151 1.241 . S
C148 O141 1.247 . S
C148 O142 1.261 . S
C149 O144 1.259 . S
C149 O146 1.235 . S
O150 Co140 2.021 . S
O150 C147 1.238 . S
O151 Co145 2.052 . S
O151 C147 1.241 . S
O152 Co140 2.137 . S
O152 C143 1.247 . S
O153 Co140 2.244 . S
O153 C143 1.272 . S
O153 Co145 2.135 . S
Co154 O155 2.216 . S
Co154 O156 2.091 . S
Co154 O158 2.004 . S
Co154 O164 2.021 . S
Co154 O166 2.137 . S
Co154 O167 2.244 . S
O155 Co154 2.216 . S
O155 C162 1.247 . S
O156 Co154 2.091 . S
O156 C162 1.261 . S
C157 O166 1.247 . S
C157 O167 1.272 . S
O158 Co154 2.004 . S
O158 C163 1.259 . S
Co159 O160 2.061 . S
Co159 O165 2.052 . S
Co159 O167 2.135 . S
O160 Co159 2.061 . S
O160 C163 1.235 . S
C161 O164 1.238 . S
C161 O165 1.241 . S
C162 O155 1.247 . S
C162 O156 1.261 . S
C163 O158 1.259 . S
C163 O160 1.235 . S
O164 Co154 2.021 . S
O164 C161 1.238 . S
O165 Co159 2.052 . S
O165 C161 1.241 . S
O166 Co154 2.137 . S
O166 C157 1.247 . S
O167 Co154 2.244 . S
O167 C157 1.272 . S
O167 Co159 2.135 . S
Co168 O169 2.216 . S
Co168 O170 2.091 . S
Co168 O172 2.004 . S
Co168 O178 2.021 . S
Co168 O180 2.137 . S
Co168 O181 2.244 . S
O169 Co168 2.216 . S
O169 C176 1.247 . S
O170 Co168 2.091 . S
O170 C176 1.261 . S
C171 O180 1.247 . S
C171 O181 1.272 . S
O172 Co168 2.004 . S
O172 C177 1.259 . S
Co173 O174 2.061 . S
Co173 O179 2.052 . S
Co173 O181 2.135 . S
O174 Co173 2.061 . S
O174 C177 1.235 . S
C175 O178 1.238 . S
C175 O179 1.241 . S
C176 O169 1.247 . S
C176 O170 1.261 . S
C177 O172 1.259 . S
C177 O174 1.235 . S
O178 Co168 2.021 . S
O178 C175 1.238 . S
O179 Co173 2.052 . S
O179 C175 1.241 . S
O180 Co168 2.137 . S
O180 C171 1.247 . S
O181 Co168 2.244 . S
O181 C171 1.272 . S
O181 Co173 2.135 . S
Co182 O183 2.216 . S
Co182 O184 2.091 . S
Co182 O186 2.004 . S
Co182 O192 2.021 . S
Co182 O194 2.137 . S
Co182 O195 2.244 . S
O183 Co182 2.216 . S
O183 C190 1.247 . S
O184 Co182 2.091 . S
O184 C190 1.261 . S
C185 O194 1.247 . S
C185 O195 1.272 . S
O186 Co182 2.004 . S
O186 C191 1.259 . S
Co187 O188 2.061 . S
Co187 O193 2.052 . S
Co187 O195 2.135 . S
O188 Co187 2.061 . S
O188 C191 1.235 . S
C189 O192 1.238 . S
C189 O193 1.241 . S
C190 O183 1.247 . S
C190 O184 1.261 . S
C191 O186 1.259 . S
C191 O188 1.235 . S
O192 Co182 2.021 . S
O192 C189 1.238 . S
O193 Co187 2.052 . S
O193 C189 1.241 . S
O194 Co182 2.137 . S
O194 C185 1.247 . S
O195 Co182 2.244 . S
O195 C185 1.272 . S
O195 Co187 2.135 . S
Co196 O197 2.216 . S
Co196 O198 2.091 . S
Co196 O200 2.004 . S
Co196 O206 2.021 . S
Co196 O208 2.137 . S
Co196 O209 2.244 . S
O197 Co196 2.216 . S
O197 C204 1.247 . S
O198 Co196 2.091 . S
O198 C204 1.261 . S
C199 O208 1.247 . S
C199 O209 1.272 . S
O200 Co196 2.004 . S
O200 C205 1.259 . S
Co201 O202 2.061 . S
Co201 O207 2.052 . S
Co201 O209 2.135 . S
O202 Co201 2.061 . S
O202 C205 1.235 . S
C203 O206 1.238 . S
C203 O207 1.241 . S
C204 O197 1.247 . S
C204 O198 1.261 . S
C205 O200 1.259 . S
C205 O202 1.235 . S
O206 Co196 2.021 . S
O206 C203 1.238 . S
O207 Co201 2.052 . S
O207 C203 1.241 . S
O208 Co196 2.137 . S
O208 C199 1.247 . S
O209 Co196 2.244 . S
O209 C199 1.272 . S
O209 Co201 2.135 . S
Co210 O211 2.216 . S
Co210 O212 2.091 . S
Co210 O214 2.004 . S
Co210 O220 2.021 . S
Co210 O222 2.137 . S
Co210 O223 2.244 . S
O211 Co210 2.216 . S
O211 C218 1.247 . S
O212 Co210 2.091 . S
O212 C218 1.261 . S
C213 O222 1.247 . S
C213 O223 1.272 . S
O214 Co210 2.004 . S
O214 C219 1.259 . S
Co215 O216 2.061 . S
Co215 O221 2.052 . S
Co215 O223 2.135 . S
O216 Co215 2.061 . S
O216 C219 1.235 . S
C217 O220 1.238 . S
C217 O221 1.241 . S
C218 O211 1.247 . S
C218 O212 1.261 . S
C219 O214 1.259 . S
C219 O216 1.235 . S
O220 Co210 2.021 . S
O220 C217 1.238 . S
O221 Co215 2.052 . S
O221 C217 1.241 . S
O222 Co210 2.137 . S
O222 C213 1.247 . S
O223 Co210 2.244 . S
O223 C213 1.272 . S
O223 Co215 2.135 . S
C224 C225 1.349 . S
C224 C226 1.327 . S
C224 H249 0.950 . S
C225 C224 1.349 . S
C225 C241 1.349 1_554 S
C226 C224 1.327 . S
C226 C245 1.429 . S
C226 H250 0.950 . S
C227 C244 1.574 . S
C227 C246 1.368 1_556 S
C227 H251 0.949 . S
H228 C232 0.949 . S
C229 C230 1.349 . S
C229 C231 1.327 . S
C229 H252 0.950 . S
C230 C229 1.349 . S
C230 C242 1.349 . S
C231 C229 1.327 . S
C231 C247 1.429 . S
C231 H253 0.950 . S
C232 H228 0.949 . S
C232 C240 1.574 . S
C232 C248 1.368 1_554 S
H233 C241 0.950 . S
H234 C239 0.950 . S
H235 C240 0.949 . S
H236 C242 0.950 1_554 S
H237 C243 0.950 1_554 S
H238 C244 0.949 . S
C239 H234 0.950 . S
C239 C241 1.327 . S
C239 C245 1.429 1_556 S
C240 C232 1.574 . S
C240 H235 0.949 . S
C240 C246 1.368 . S
C241 C225 1.349 1_556 S
C241 H233 0.950 . S
C241 C239 1.327 . S
C242 C230 1.349 . S
C242 H236 0.950 1_556 S
C242 C243 1.327 . S
C243 H237 0.950 1_556 S
C243 C242 1.327 . S
C243 C247 1.429 . S
C244 C227 1.574 . S
C244 H238 0.949 . S
C244 C248 1.368 . S
C245 C226 1.429 . S
C245 C239 1.429 1_554 S
C245 C246 1.523 . S
C246 C227 1.368 1_554 S
C246 C240 1.368 . S
C246 C245 1.523 . S
C247 C231 1.429 . S
C247 C243 1.429 . S
C247 C248 1.523 . S
C248 C232 1.368 1_556 S
C248 C244 1.368 . S
C248 C247 1.523 . S
H249 C224 0.950 . S
H250 C226 0.950 . S
H251 C227 0.949 . S
H252 C229 0.950 . S
H253 C231 0.950 . S
C254 C255 1.349 . S
C254 C256 1.327 1_556 S
C254 H279 0.950 1_556 S
C255 C254 1.349 . S
C255 C271 1.349 . S
C256 C254 1.327 1_554 S
C256 C275 1.429 1_554 S
C256 H280 0.950 . S
C257 C274 1.574 . S
C257 C276 1.368 . S
C257 H281 0.949 . S
H258 C262 0.949 . S
C259 C260 1.349 1_556 S
C259 C261 1.327 . S
C259 H282 0.950 . S
C260 C259 1.349 1_554 S
C260 C272 1.349 . S
C261 C259 1.327 . S
C261 C277 1.429 1_556 S
C261 H283 0.950 . S
C262 H258 0.949 . S
C262 C270 1.574 . S
C262 C278 1.368 . S
H263 C271 0.950 . S
H264 C269 0.950 . S
H265 C270 0.949 . S
H266 C272 0.950 . S
H267 C273 0.950 . S
H268 C274 0.949 . S
C269 H264 0.950 . S
C269 C271 1.327 . S
C269 C275 1.429 . S
C270 C262 1.574 . S
C270 H265 0.949 . S
C270 C276 1.368 1_554 S
C271 C255 1.349 . S
C271 H263 0.950 . S
C271 C269 1.327 . S
C272 C260 1.349 . S
C272 H266 0.950 . S
C272 C273 1.327 . S
C273 H267 0.950 . S
C273 C272 1.327 . S
C273 C277 1.429 . S
C274 C257 1.574 . S
C274 H268 0.949 . S
C274 C278 1.368 1_556 S
C275 C256 1.429 1_556 S
C275 C269 1.429 . S
C275 C276 1.523 . S
C276 C257 1.368 . S
C276 C270 1.368 1_556 S
C276 C275 1.523 . S
C277 C261 1.429 1_554 S
C277 C273 1.429 . S
C277 C278 1.523 . S
C278 C262 1.368 . S
C278 C274 1.368 1_554 S
C278 C277 1.523 . S
H279 C254 0.950 1_554 S
H280 C256 0.950 . S
H281 C257 0.949 . S
H282 C259 0.950 . S
H283 C261 0.950 . S
C284 C285 1.349 . S
C284 C286 1.327 . S
C284 H309 0.950 . S
C285 C284 1.349 . S
C285 C301 1.349 . S
C286 C284 1.327 . S
C286 C305 1.429 . S
C286 H310 0.950 . S
C287 C304 1.574 . S
C287 C306 1.368 1_554 S
C287 H311 0.949 . S
H288 C292 0.949 . S
C289 C290 1.349 . S
C289 C291 1.327 . S
C289 H312 0.950 . S
C290 C289 1.349 . S
C290 C302 1.349 1_554 S
C291 C289 1.327 . S
C291 C307 1.429 . S
C291 H313 0.950 . S
C292 H288 0.949 . S
C292 C300 1.574 . S
C292 C308 1.368 1_556 S
H293 C301 0.950 1_554 S
H294 C299 0.950 1_554 S
H295 C300 0.949 . S
H296 C302 0.950 . S
H297 C303 0.950 . S
H298 C304 0.949 . S
C299 H294 0.950 1_556 S
C299 C301 1.327 . S
C299 C305 1.429 . S
C300 C292 1.574 . S
C300 H295 0.949 . S
C300 C306 1.368 . S
C301 C285 1.349 . S
C301 H293 0.950 1_556 S
C301 C299 1.327 . S
C302 C290 1.349 1_556 S
C302 H296 0.950 . S
C302 C303 1.327 . S
C303 H297 0.950 . S
C303 C302 1.327 . S
C303 C307 1.429 1_556 S
C304 C287 1.574 . S
C304 H298 0.949 . S
C304 C308 1.368 . S
C305 C286 1.429 . S
C305 C299 1.429 . S
C305 C306 1.523 . S
C306 C287 1.368 1_556 S
C306 C300 1.368 . S
C306 C305 1.523 . S
C307 C291 1.429 . S
C307 C303 1.429 1_554 S
C307 C308 1.523 . S
C308 C292 1.368 1_554 S
C308 C304 1.368 . S
C308 C307 1.523 . S
H309 C284 0.950 . S
H310 C286 0.950 . S
H311 C287 0.949 . S
H312 C289 0.950 . S
H313 C291 0.950 . S
C314 C315 1.349 . S
C314 C316 1.320 1_556 S
C314 H339 0.950 1_556 S
C315 C314 1.349 . S
C315 C331 1.349 . S
C316 C314 1.320 1_554 S
C316 C335 1.409 1_554 S
C316 H340 0.978 . S
C317 C334 1.574 . S
C317 C336 1.368 . S
C317 H341 0.949 . S
H318 C322 0.949 . S
C319 C320 1.349 1_556 S
C319 C321 1.327 . S
C319 H342 0.950 . S
C320 C319 1.349 1_554 S
C320 C332 1.349 . S
C321 C319 1.327 . S
C321 C337 1.429 1_556 S
C321 H343 0.950 . S
C322 H318 0.949 . S
C322 C330 1.574 . S
C322 C338 1.368 . S
H323 C331 0.950 . S
H324 C329 0.950 . S
H325 C330 0.949 . S
H326 C332 0.950 . S
H327 C333 0.950 . S
H328 C334 0.949 . S
C329 H324 0.950 . S
C329 C331 1.327 . S
C329 C335 1.429 . S
C330 C322 1.574 . S
C330 H325 0.949 . S
C330 C336 1.368 1_554 S
C331 C315 1.349 . S
C331 H323 0.950 . S
C331 C329 1.327 . S
C332 C320 1.349 . S
C332 H326 0.950 . S
C332 C333 1.327 . S
C333 H327 0.950 . S
C333 C332 1.327 . S
C333 C337 1.429 . S
C334 C317 1.574 . S
C334 H328 0.949 . S
C334 C338 1.368 1_556 S
C335 C316 1.409 1_556 S
C335 C329 1.429 . S
C335 C336 1.523 . S
C336 C317 1.368 . S
C336 C330 1.368 1_556 S
C336 C335 1.523 . S
C337 C321 1.429 1_554 S
C337 C333 1.429 . S
C337 C338 1.523 . S
C338 C322 1.368 . S
C338 C334 1.368 1_554 S
C338 C337 1.523 . S
H339 C314 0.950 1_554 S
H340 C316 0.978 . S
H341 C317 0.949 . S
H342 C319 0.950 . S
H343 C321 0.950 . S
C344 C345 1.349 . S
C344 C346 1.327 . S
C344 H369 0.950 . S
C345 C344 1.349 . S
C345 C361 1.349 . S
C346 C344 1.327 . S
C346 C365 1.429 . S
C346 H370 0.950 . S
C347 C364 1.574 . S
C347 C366 1.368 . S
C347 H371 0.949 . S
H348 C352 0.949 . S
C349 C350 1.349 . S
C349 C351 1.327 . S
C349 H372 0.950 . S
C350 C349 1.349 . S
C350 C362 1.349 . S
C351 C349 1.327 . S
C351 C367 1.429 . S
C351 H373 0.950 . S
C352 H348 0.949 . S
C352 C360 1.574 . S
C352 C368 1.368 . S
H353 C361 0.950 . S
H354 C359 0.950 . S
H355 C360 0.949 . S
H356 C362 0.950 . S
H357 C363 0.950 . S
H358 C364 0.949 . S
C359 H354 0.950 . S
C359 C361 1.327 . S
C359 C365 1.429 . S
C360 C352 1.574 . S
C360 H355 0.949 . S
C360 C366 1.368 . S
C361 C345 1.349 . S
C361 H353 0.950 . S
C361 C359 1.327 . S
C362 C350 1.349 . S
C362 H356 0.950 . S
C362 C363 1.327 . S
C363 H357 0.950 . S
C363 C362 1.327 . S
C363 C367 1.429 . S
C364 C347 1.574 . S
C364 H358 0.949 . S
C364 C368 1.368 . S
C365 C346 1.429 . S
C365 C359 1.429 . S
C365 C366 1.523 . S
C366 C347 1.368 . S
C366 C360 1.368 . S
C366 C365 1.523 . S
C367 C351 1.429 . S
C367 C363 1.429 . S
C367 C368 1.523 . S
C368 C352 1.368 . S
C368 C364 1.368 . S
C368 C367 1.523 . S
H369 C344 0.950 . S
H370 C346 0.950 . S
H371 C347 0.949 . S
H372 C349 0.950 . S
H373 C351 0.950 . S
C374 C375 1.349 . S
C374 C376 1.327 . S
C374 H399 0.950 . S
C375 C374 1.349 . S
C375 C391 1.349 . S
C376 C374 1.327 . S
C376 C395 1.429 . S
C376 H400 0.950 . S
C377 C394 1.574 . S
C377 C396 1.368 . S
C377 H401 0.949 . S
H378 C382 0.949 . S
C379 C380 1.349 . S
C379 C381 1.327 . S
C379 H402 0.950 . S
C380 C379 1.349 . S
C380 C392 1.349 . S
C381 C379 1.327 . S
C381 C397 1.429 . S
C381 H403 0.950 . S
C382 H378 0.949 . S
C382 C390 1.574 . S
C382 C398 1.368 . S
H383 C391 0.950 . S
H384 C389 0.950 . S
H385 C390 0.949 . S
H386 C392 0.950 . S
H387 C393 0.950 . S
H388 C394 0.949 . S
C389 H384 0.950 . S
C389 C391 1.327 . S
C389 C395 1.429 . S
C390 C382 1.574 . S
C390 H385 0.949 . S
C390 C396 1.368 . S
C391 C375 1.349 . S
C391 H383 0.950 . S
C391 C389 1.327 . S
C392 C380 1.349 . S
C392 H386 0.950 . S
C392 C393 1.327 . S
C393 H387 0.950 . S
C393 C392 1.327 . S
C393 C397 1.429 . S
C394 C377 1.574 . S
C394 H388 0.949 . S
C394 C398 1.368 . S
C395 C376 1.429 . S
C395 C389 1.429 . S
C395 C396 1.523 . S
C396 C377 1.368 . S
C396 C390 1.368 . S
C396 C395 1.523 . S
C397 C381 1.429 . S
C397 C393 1.429 . S
C397 C398 1.523 . S
C398 C382 1.368 . S
C398 C394 1.368 . S
C398 C397 1.523 . S
H399 C374 0.950 . S
H400 C376 0.950 . S
H401 C377 0.949 . S
H402 C379 0.950 . S
H403 C381 0.950 . S
C404 C405 1.349 . S
C404 C406 1.327 . S
C404 H429 0.950 . S
C405 C404 1.349 . S
C405 C421 1.349 . S
C406 C404 1.327 . S
C406 C425 1.429 . S
C406 H430 0.950 . S
C407 C424 1.574 . S
C407 C426 1.368 . S
C407 H431 0.949 . S
H408 C412 0.949 . S
C409 C410 1.349 . S
C409 C411 1.327 . S
C409 H432 0.950 . S
C410 C409 1.349 . S
C410 C422 1.349 . S
C411 C409 1.327 . S
C411 C427 1.429 . S
C411 H433 0.950 . S
C412 H408 0.949 . S
C412 C420 1.574 . S
C412 C428 1.368 . S
H413 C421 0.950 . S
H414 C419 0.950 . S
H415 C420 0.949 . S
H416 C422 0.950 . S
H417 C423 0.950 . S
H418 C424 0.949 . S
C419 H414 0.950 . S
C419 C421 1.327 . S
C419 C425 1.429 . S
C420 C412 1.574 . S
C420 H415 0.949 . S
C420 C426 1.368 . S
C421 C405 1.349 . S
C421 H413 0.950 . S
C421 C419 1.327 . S
C422 C410 1.349 . S
C422 H416 0.950 . S
C422 C423 1.327 . S
C423 H417 0.950 . S
C423 C422 1.327 . S
C423 C427 1.429 . S
C424 C407 1.574 . S
C424 H418 0.949 . S
C424 C428 1.368 . S
C425 C406 1.429 . S
C425 C419 1.429 . S
C425 C426 1.523 . S
C426 C407 1.368 . S
C426 C420 1.368 . S
C426 C425 1.523 . S
C427 C411 1.429 . S
C427 C423 1.429 . S
C427 C428 1.523 . S
C428 C412 1.368 . S
C428 C424 1.368 . S
C428 C427 1.523 . S
H429 C404 0.950 . S
H430 C406 0.950 . S
H431 C407 0.949 . S
H432 C409 0.950 . S
H433 C411 0.950 . S
C434 C435 1.349 . S
C434 C436 1.327 . S
C434 H459 0.950 . S
C435 C434 1.349 . S
C435 C451 1.349 . S
C436 C434 1.327 . S
C436 C455 1.429 . S
C436 H460 0.950 . S
C437 C454 1.574 . S
C437 C456 1.368 . S
C437 H461 0.949 . S
H438 C442 0.949 . S
C439 C440 1.349 . S
C439 C441 1.327 . S
C439 H462 0.950 . S
C440 C439 1.349 . S
C440 C452 1.349 . S
C441 C439 1.327 . S
C441 C457 1.429 . S
C441 H463 0.950 . S
C442 H438 0.949 . S
C442 C450 1.574 . S
C442 C458 1.368 . S
H443 C451 0.950 . S
H444 C449 0.950 . S
H445 C450 0.949 . S
H446 C452 0.950 . S
H447 C453 0.950 . S
H448 C454 0.949 . S
C449 H444 0.950 . S
C449 C451 1.327 . S
C449 C455 1.429 . S
C450 C442 1.574 . S
C450 H445 0.949 . S
C450 C456 1.368 . S
C451 C435 1.349 . S
C451 H443 0.950 . S
C451 C449 1.327 . S
C452 C440 1.349 . S
C452 H446 0.950 . S
C452 C453 1.327 . S
C453 H447 0.950 . S
C453 C452 1.327 . S
C453 C457 1.429 . S
C454 C437 1.574 . S
C454 H448 0.949 . S
C454 C458 1.368 . S
C455 C436 1.429 . S
C455 C449 1.429 . S
C455 C456 1.523 . S
C456 C437 1.368 . S
C456 C450 1.368 . S
C456 C455 1.523 . S
C457 C441 1.429 . S
C457 C453 1.429 . S
C457 C458 1.523 . S
C458 C442 1.368 . S
C458 C454 1.368 . S
C458 C457 1.523 . S
H459 C434 0.950 . S
H460 C436 0.950 . S
H461 C437 0.949 . S
H462 C439 0.950 . S
H463 C441 0.950 . S
C464 C465 1.349 . S
C464 C466 1.327 . S
C464 H489 0.950 . S
C465 C464 1.349 . S
C465 C481 1.349 . S
C466 C464 1.327 . S
C466 C485 1.429 . S
C466 H490 0.950 . S
C467 C484 1.574 . S
C467 C486 1.368 1_554 S
C467 H491 0.949 . S
H468 C472 0.949 . S
C469 C470 1.349 . S
C469 C471 1.327 . S
C469 H492 0.950 . S
C470 C469 1.349 . S
C470 C482 1.349 . S
C471 C469 1.327 . S
C471 C487 1.429 . S
C471 H493 0.950 . S
C472 H468 0.949 . S
C472 C480 1.574 . S
C472 C488 1.368 1_556 S
H473 C481 0.950 1_554 S
H474 C479 0.950 . S
H475 C480 0.949 . S
H476 C482 0.950 . S
H477 C483 0.950 1_556 S
H478 C484 0.949 . S
C479 H474 0.950 . S
C479 C481 1.327 1_554 S
C479 C485 1.429 1_554 S
C480 C472 1.574 . S
C480 H475 0.949 . S
C480 C486 1.368 . S
C481 C465 1.349 . S
C481 H473 0.950 1_556 S
C481 C479 1.327 1_556 S
C482 C470 1.349 . S
C482 H476 0.950 . S
C482 C483 1.327 . S
C483 H477 0.950 1_554 S
C483 C482 1.327 . S
C483 C487 1.429 . S
C484 C467 1.574 . S
C484 H478 0.949 . S
C484 C488 1.368 . S
C485 C466 1.429 . S
C485 C479 1.429 1_556 S
C485 C486 1.523 . S
C486 C467 1.368 1_556 S
C486 C480 1.368 . S
C486 C485 1.523 . S
C487 C471 1.429 . S
C487 C483 1.429 . S
C487 C488 1.523 . S
C488 C472 1.368 1_554 S
C488 C484 1.368 . S
C488 C487 1.523 . S
H489 C464 0.950 . S
H490 C466 0.950 . S
H491 C467 0.949 . S
H492 C469 0.950 . S
H493 C471 0.950 . S
C494 C495 1.349 1_554 S
C494 C496 1.327 . S
C494 H519 0.950 . S
C495 C494 1.349 1_556 S
C495 C511 1.349 . S
C496 C494 1.327 . S
C496 C515 1.429 1_554 S
C496 H520 0.950 . S
C497 C514 1.574 . S
C497 C516 1.368 . S
C497 H521 0.949 . S
H498 C502 0.949 . S
C499 C500 1.349 . S
C499 C501 1.331 . S
C499 H522 0.950 1_554 S
C500 C499 1.349 . S
C500 C512 1.349 . S
C501 C499 1.331 . S
C501 C517 1.437 . S
C501 H523 0.937 1_554 S
C502 H498 0.949 . S
C502 C510 1.574 . S
C502 C518 1.368 . S
H503 C511 0.950 . S
H504 C509 0.950 . S
H505 C510 0.949 . S
H506 C512 0.950 . S
H507 C513 0.950 . S
H508 C514 0.949 . S
C509 H504 0.950 . S
C509 C511 1.327 . S
C509 C515 1.429 . S
C510 C502 1.574 . S
C510 H505 0.949 . S
C510 C516 1.368 1_554 S
C511 C495 1.349 . S
C511 H503 0.950 . S
C511 C509 1.327 . S
C512 C500 1.349 . S
C512 H506 0.950 . S
C512 C513 1.327 . S
C513 H507 0.950 . S
C513 C512 1.327 . S
C513 C517 1.429 . S
C514 C497 1.574 . S
C514 H508 0.949 . S
C514 C518 1.368 1_556 S
C515 C496 1.429 1_556 S
C515 C509 1.429 . S
C515 C516 1.523 . S
C516 C497 1.368 . S
C516 C510 1.368 1_556 S
C516 C515 1.523 . S
C517 C501 1.437 . S
C517 C513 1.429 . S
C517 C518 1.523 . S
C518 C502 1.368 . S
C518 C514 1.368 1_554 S
C518 C517 1.523 . S
H519 C494 0.950 . S
H520 C496 0.950 . S
H521 C497 0.949 . S
H522 C499 0.950 1_556 S
H523 C501 0.937 1_556 S
C524 C525 1.349 . S
C524 C526 1.327 1_556 S
C524 H549 0.950 1_556 S
C525 C524 1.349 . S
C525 C541 1.349 . S
C526 C524 1.327 1_554 S
C526 C545 1.429 1_554 S
C526 H550 0.950 . S
C527 C544 1.574 . S
C527 C546 1.368 . S
C527 H551 0.949 . S
H528 C532 0.949 . S
C529 C530 1.349 . S
C529 C531 1.327 . S
C529 H552 0.950 . S
C530 C529 1.349 . S
C530 C542 1.349 . S
C531 C529 1.327 . S
C531 C547 1.429 . S
C531 H553 0.950 1_554 S
C532 H528 0.949 . S
C532 C540 1.574 . S
C532 C548 1.368 . S
H533 C541 0.950 . S
H534 C539 0.950 . S
H535 C540 0.949 . S
H536 C542 0.950 . S
H537 C543 0.950 . S
H538 C544 0.949 . S
C539 H534 0.950 . S
C539 C541 1.327 . S
C539 C545 1.429 . S
C540 C532 1.574 . S
C540 H535 0.949 . S
C540 C546 1.368 1_554 S
C541 C525 1.349 . S
C541 H533 0.950 . S
C541 C539 1.327 . S
C542 C530 1.349 . S
C542 H536 0.950 . S
C542 C543 1.327 . S
C543 H537 0.950 . S
C543 C542 1.327 . S
C543 C547 1.429 . S
C544 C527 1.574 . S
C544 H538 0.949 . S
C544 C548 1.368 1_556 S
C545 C526 1.429 1_556 S
C545 C539 1.429 . S
C545 C546 1.523 . S
C546 C527 1.368 . S
C546 C540 1.368 1_556 S
C546 C545 1.523 . S
C547 C531 1.429 . S
C547 C543 1.429 . S
C547 C548 1.523 . S
C548 C532 1.368 . S
C548 C544 1.368 1_554 S
C548 C547 1.523 . S
H549 C524 0.950 1_554 S
H550 C526 0.950 . S
H551 C527 0.949 . S
H552 C529 0.950 . S
H553 C531 0.950 1_556 S
C554 C555 1.349 . S
C554 C556 1.327 . S
C554 H579 0.959 . S
C555 C554 1.349 . S
C555 C571 1.349 . S
C556 C554 1.327 . S
C556 C575 1.429 . S
C556 H580 0.950 1_554 S
C557 C574 1.574 . S
C557 C576 1.368 . S
C557 H581 0.949 . S
H558 C562 0.949 . S
C559 C560 1.349 . S
C559 C561 1.327 1_556 S
C559 H582 0.950 1_556 S
C560 C559 1.349 . S
C560 C572 1.349 . S
C561 C559 1.327 1_554 S
C561 C577 1.429 1_554 S
C561 H583 0.950 . S
C562 H558 0.949 . S
C562 C570 1.574 . S
C562 C578 1.368 . S
H563 C571 0.950 . S
H564 C569 0.950 . S
H565 C570 0.949 . S
H566 C572 0.950 . S
H567 C573 0.950 . S
H568 C574 0.949 . S
C569 H564 0.950 . S
C569 C571 1.327 . S
C569 C575 1.429 . S
C570 C562 1.574 . S
C570 H565 0.949 . S
C570 C576 1.368 1_556 S
C571 C555 1.349 . S
C571 H563 0.950 . S
C571 C569 1.327 . S
C572 C560 1.349 . S
C572 H566 0.950 . S
C572 C573 1.327 . S
C573 H567 0.950 . S
C573 C572 1.327 . S
C573 C577 1.429 . S
C574 C557 1.574 . S
C574 H568 0.949 . S
C574 C578 1.368 1_554 S
C575 C556 1.429 . S
C575 C569 1.429 . S
C575 C576 1.523 . S
C576 C557 1.368 . S
C576 C570 1.368 1_554 S
C576 C575 1.523 . S
C577 C561 1.429 1_556 S
C577 C573 1.429 . S
C577 C578 1.523 . S
C578 C562 1.368 . S
C578 C574 1.368 1_556 S
C578 C577 1.523 . S
H579 C554 0.959 . S
H580 C556 0.950 1_556 S
H581 C557 0.949 . S
H582 C559 0.950 1_554 S
H583 C561 0.950 . S
C584 C585 1.349 . S
C584 C586 1.327 . S
C584 H609 0.950 . S
C585 C584 1.349 . S
C585 C601 1.349 . S
C586 C584 1.327 . S
C586 C605 1.429 . S
C586 H610 0.950 . S
C587 C604 1.574 . S
C587 C606 1.368 . S
C587 H611 0.949 . S
H588 C592 0.949 . S
C589 C590 1.349 . S
C589 C591 1.327 . S
C589 H612 0.950 . S
C590 C589 1.349 . S
C590 C602 1.349 . S
C591 C589 1.327 . S
C591 C607 1.429 . S
C591 H613 0.950 . S
C592 H588 0.949 . S
C592 C600 1.574 . S
C592 C608 1.368 . S
H593 C601 0.950 . S
H594 C599 0.950 . S
H595 C600 0.949 . S
H596 C602 0.950 . S
H597 C603 0.950 . S
H598 C604 0.949 . S
C599 H594 0.950 . S
C599 C601 1.327 . S
C599 C605 1.429 . S
C600 C592 1.574 . S
C600 H595 0.949 . S
C600 C606 1.368 . S
C601 C585 1.349 . S
C601 H593 0.950 . S
C601 C599 1.327 . S
C602 C590 1.349 . S
C602 H596 0.950 . S
C602 C603 1.327 . S
C603 H597 0.950 . S
C603 C602 1.327 . S
C603 C607 1.429 . S
C604 C587 1.574 . S
C604 H598 0.949 . S
C604 C608 1.368 . S
C605 C586 1.429 . S
C605 C599 1.429 . S
C605 C606 1.523 . S
C606 C587 1.368 . S
C606 C600 1.368 . S
C606 C605 1.523 . S
C607 C591 1.429 . S
C607 C603 1.429 . S
C607 C608 1.523 . S
C608 C592 1.368 . S
C608 C604 1.368 . S
C608 C607 1.523 . S
H609 C584 0.950 . S
H610 C586 0.950 . S
H611 C587 0.949 . S
H612 C589 0.950 . S
H613 C591 0.950 . S
C614 C615 1.349 . S
C614 C616 1.327 . S
C614 H639 0.950 . S
C615 C614 1.349 . S
C615 C631 1.349 . S
C616 C614 1.327 . S
C616 C635 1.429 . S
C616 H640 0.950 . S
C617 C634 1.574 . S
C617 C636 1.368 . S
C617 H641 0.949 . S
H618 C622 0.949 . S
C619 C620 1.349 . S
C619 C621 1.327 . S
C619 H642 0.950 . S
C620 C619 1.349 . S
C620 C632 1.349 . S
C621 C619 1.327 . S
C621 C637 1.429 . S
C621 H643 0.950 . S
C622 H618 0.949 . S
C622 C630 1.574 . S
C622 C638 1.368 . S
H623 C631 0.950 . S
H624 C629 0.950 . S
H625 C630 0.949 . S
H626 C632 0.950 . S
H627 C633 0.950 . S
H628 C634 0.949 . S
C629 H624 0.950 . S
C629 C631 1.327 . S
C629 C635 1.429 . S
C630 C622 1.574 . S
C630 H625 0.949 . S
C630 C636 1.368 . S
C631 C615 1.349 . S
C631 H623 0.950 . S
C631 C629 1.327 . S
C632 C620 1.349 . S
C632 H626 0.950 . S
C632 C633 1.327 . S
C633 H627 0.950 . S
C633 C632 1.327 . S
C633 C637 1.429 . S
C634 C617 1.574 . S
C634 H628 0.949 . S
C634 C638 1.368 . S
C635 C616 1.429 . S
C635 C629 1.429 . S
C635 C636 1.523 . S
C636 C617 1.368 . S
C636 C630 1.368 . S
C636 C635 1.523 . S
C637 C621 1.429 . S
C637 C633 1.429 . S
C637 C638 1.523 . S
C638 C622 1.368 . S
C638 C634 1.368 . S
C638 C637 1.523 . S
H639 C614 0.950 . S
H640 C616 0.950 . S
H641 C617 0.949 . S
H642 C619 0.950 . S
H643 C621 0.950 . S
C644 C645 1.349 . S
C644 C646 1.327 . S
C644 H669 0.950 . S
C645 C644 1.349 . S
C645 C661 1.349 . S
C646 C644 1.327 . S
C646 C665 1.429 . S
C646 H670 0.950 . S
C647 C664 1.574 . S
C647 C666 1.368 . S
C647 H671 0.949 . S
H648 C652 0.949 . S
C649 C650 1.349 . S
C649 C651 1.327 . S
C649 H672 0.950 . S
C650 C649 1.349 . S
C650 C662 1.349 . S
C651 C649 1.327 . S
C651 C667 1.429 . S
C651 H673 0.950 . S
C652 H648 0.949 . S
C652 C660 1.574 . S
C652 C668 1.368 . S
H653 C661 0.950 . S
H654 C659 0.950 . S
H655 C660 0.949 . S
H656 C662 0.950 . S
H657 C663 0.950 . S
H658 C664 0.949 . S
C659 H654 0.950 . S
C659 C661 1.327 . S
C659 C665 1.429 . S
C660 C652 1.574 . S
C660 H655 0.949 . S
C660 C666 1.368 . S
C661 C645 1.349 . S
C661 H653 0.950 . S
C661 C659 1.327 . S
C662 C650 1.349 . S
C662 H656 0.950 . S
C662 C663 1.327 . S
C663 H657 0.950 . S
C663 C662 1.327 . S
C663 C667 1.429 . S
C664 C647 1.574 . S
C664 H658 0.949 . S
C664 C668 1.368 . S
C665 C646 1.429 . S
C665 C659 1.429 . S
C665 C666 1.523 . S
C666 C647 1.368 . S
C666 C660 1.368 . S
C666 C665 1.523 . S
C667 C651 1.429 . S
C667 C663 1.429 . S
C667 C668 1.523 . S
C668 C652 1.368 . S
C668 C664 1.368 . S
C668 C667 1.523 . S
H669 C644 0.950 . S
H670 C646 0.950 . S
H671 C647 0.949 . S
H672 C649 0.950 . S
H673 C651 0.950 . S
C674 C675 1.349 . S
C674 C676 1.327 . S
C674 H699 0.950 . S
C675 C674 1.349 . S
C675 C691 1.349 . S
C676 C674 1.327 . S
C676 C695 1.429 . S
C676 H700 0.950 . S
C677 C694 1.574 . S
C677 C696 1.368 . S
C677 H701 0.949 . S
H678 C682 0.949 . S
C679 C680 1.349 . S
C679 C681 1.327 . S
C679 H702 0.950 . S
C680 C679 1.349 . S
C680 C692 1.349 . S
C681 C679 1.327 . S
C681 C697 1.429 . S
C681 H703 0.950 . S
C682 H678 0.949 . S
C682 C690 1.574 . S
C682 C698 1.368 . S
H683 C691 0.950 . S
H684 C689 0.950 . S
H685 C690 0.949 . S
H686 C692 0.950 . S
H687 C693 0.950 . S
H688 C694 0.949 . S
C689 H684 0.950 . S
C689 C691 1.327 . S
C689 C695 1.429 . S
C690 C682 1.574 . S
C690 H685 0.949 . S
C690 C696 1.368 . S
C691 C675 1.349 . S
C691 H683 0.950 . S
C691 C689 1.327 . S
C692 C680 1.349 . S
C692 H686 0.950 . S
C692 C693 1.327 . S
C693 H687 0.950 . S
C693 C692 1.327 . S
C693 C697 1.429 . S
C694 C677 1.574 . S
C694 H688 0.949 . S
C694 C698 1.368 . S
C695 C676 1.429 . S
C695 C689 1.429 . S
C695 C696 1.523 . S
C696 C677 1.368 . S
C696 C690 1.368 . S
C696 C695 1.523 . S
C697 C681 1.429 . S
C697 C693 1.429 . S
C697 C698 1.523 . S
C698 C682 1.368 . S
C698 C694 1.368 . S
C698 C697 1.523 . S
H699 C674 0.950 . S
H700 C676 0.950 . S
H701 C677 0.949 . S
H702 C679 0.950 . S
H703 C681 0.950 . S
C704 C705 1.349 . S
C704 C706 1.327 . S
C704 H729 0.950 . S
C705 C704 1.349 . S
C705 C721 1.349 . S
C706 C704 1.327 . S
C706 C725 1.429 . S
C706 H730 0.950 . S
C707 C724 1.574 1_565 S
C707 C726 1.368 . S
C707 H731 0.949 . S
H708 C712 0.949 . S
C709 C710 1.349 . S
C709 C711 1.327 . S
C709 H732 0.950 . S
C710 C709 1.349 . S
C710 C722 1.349 . S
C711 C709 1.327 . S
C711 C727 1.429 . S
C711 H733 0.950 . S
C712 H708 0.949 . S
C712 C720 1.574 1_545 S
C712 C728 1.368 . S
H713 C721 0.950 . S
H714 C719 0.950 . S
H715 C720 0.949 . S
H716 C722 0.950 . S
H717 C723 0.950 . S
H718 C724 0.949 . S
C719 H714 0.950 . S
C719 C721 1.327 . S
C719 C725 1.429 . S
C720 C712 1.574 1_565 S
C720 H715 0.949 . S
C720 C726 1.368 1_554 S
C721 C705 1.349 . S
C721 H713 0.950 . S
C721 C719 1.327 . S
C722 C710 1.349 . S
C722 H716 0.950 . S
C722 C723 1.327 . S
C723 H717 0.950 . S
C723 C722 1.327 . S
C723 C727 1.429 . S
C724 C707 1.574 1_545 S
C724 H718 0.949 . S
C724 C728 1.368 1_556 S
C725 C706 1.429 . S
C725 C719 1.429 . S
C725 C726 1.523 . S
C726 C707 1.368 . S
C726 C720 1.368 1_556 S
C726 C725 1.523 . S
C727 C711 1.429 . S
C727 C723 1.429 . S
C727 C728 1.523 . S
C728 C712 1.368 . S
C728 C724 1.368 1_554 S
C728 C727 1.523 . S
H729 C704 0.950 . S
H730 C706 0.950 . S
H731 C707 0.949 . S
H732 C709 0.950 . S
H733 C711 0.950 . S
C734 C735 1.349 . S
C734 C736 1.327 . S
C734 H759 0.950 . S
C735 C734 1.349 . S
C735 C751 1.349 . S
C736 C734 1.327 . S
C736 C755 1.429 . S
C736 H760 0.950 . S
C737 C754 1.574 1_554 S
C737 C756 1.368 . S
C737 H761 0.949 . S
H738 C742 0.949 . S
C739 C740 1.349 . S
C739 C741 1.327 . S
C739 H762 0.950 . S
C740 C739 1.349 . S
C740 C752 1.349 . S
C741 C739 1.327 . S
C741 C757 1.429 . S
C741 H763 0.950 . S
C742 H738 0.949 . S
C742 C750 1.574 1_556 S
C742 C758 1.368 . S
H743 C751 0.950 . S
H744 C749 0.950 . S
H745 C750 0.949 . S
H746 C752 0.950 . S
H747 C753 0.950 . S
H748 C754 0.949 . S
C749 H744 0.950 . S
C749 C751 1.327 . S
C749 C755 1.429 . S
C750 C742 1.574 1_554 S
C750 H745 0.949 . S
C750 C756 1.368 . S
C751 C735 1.349 . S
C751 H743 0.950 . S
C751 C749 1.327 . S
C752 C740 1.349 . S
C752 H746 0.950 . S
C752 C753 1.327 . S
C753 H747 0.950 . S
C753 C752 1.327 . S
C753 C757 1.429 . S
C754 C737 1.574 1_556 S
C754 H748 0.949 . S
C754 C758 1.368 . S
C755 C736 1.429 . S
C755 C749 1.429 . S
C755 C756 1.523 . S
C756 C737 1.368 . S
C756 C750 1.368 . S
C756 C755 1.523 . S
C757 C741 1.429 . S
C757 C753 1.429 . S
C757 C758 1.523 . S
C758 C742 1.368 . S
C758 C754 1.368 . S
C758 C757 1.523 . S
H759 C734 0.950 . S
H760 C736 0.950 . S
H761 C737 0.949 . S
H762 C739 0.950 . S
H763 C741 0.950 . S
C764 C765 1.349 1_655 S
C764 C766 1.327 . S
C764 H789 0.950 . S
C765 C764 1.349 1_455 S
C765 C781 1.349 . S
C766 C764 1.327 . S
C766 C785 1.429 1_655 S
C766 H790 0.950 1_556 S
C767 C784 1.574 . S
C767 C786 1.401 . S
C767 H791 0.949 . S
H768 C772 0.949 . S
C769 C770 1.349 1_455 S
C769 C771 1.327 . S
C769 H792 0.950 . S
C770 C769 1.349 1_655 S
C770 C782 1.349 . S
C771 C769 1.327 . S
C771 C787 1.429 1_455 S
C771 H793 0.950 1_554 S
C772 H768 0.949 . S
C772 C780 1.574 . S
C772 C788 1.401 . S
H773 C781 0.950 . S
H774 C779 0.950 . S
H775 C780 0.949 . S
H776 C782 0.950 . S
H777 C783 0.950 . S
H778 C784 0.949 . S
C779 H774 0.950 . S
C779 C781 1.327 . S
C779 C785 1.429 . S
C780 C772 1.574 . S
C780 H775 0.949 . S
C780 C786 1.335 1_654 S
C781 C765 1.349 . S
C781 H773 0.950 . S
C781 C779 1.327 . S
C782 C770 1.349 . S
C782 H776 0.950 . S
C782 C783 1.327 . S
C783 H777 0.950 . S
C783 C782 1.327 . S
C783 C787 1.429 . S
C784 C767 1.574 . S
C784 H778 0.949 . S
C784 C788 1.335 1_456 S
C785 C766 1.429 1_455 S
C785 C779 1.429 . S
C785 C786 1.525 . S
C786 C767 1.401 . S
C786 C780 1.335 1_456 S
C786 C785 1.525 . S
C787 C771 1.429 1_655 S
C787 C783 1.429 . S
C787 C788 1.525 . S
C788 C772 1.401 . S
C788 C784 1.335 1_654 S
C788 C787 1.525 . S
H789 C764 0.950 . S
H790 C766 0.950 1_554 S
H791 C767 0.949 . S
H792 C769 0.950 . S
H793 C771 0.950 1_556 S
C794 C795 1.349 . S
C794 C796 1.327 . S
C794 H819 0.950 . S
C795 C794 1.349 . S
C795 C811 1.349 1_565 S
C796 C794 1.327 . S
C796 C815 1.429 . S
C796 H820 0.950 . S
C797 C814 1.574 1_455 S
C797 C816 1.332 1_546 S
C797 H821 0.949 . S
H798 C802 0.949 . S
C799 C800 1.349 . S
C799 C801 1.327 . S
C799 H822 0.950 . S
C800 C799 1.349 . S
C800 C812 1.349 1_545 S
C801 C799 1.327 . S
C801 C817 1.429 . S
C801 H823 0.950 . S
C802 H798 0.949 . S
C802 C810 1.574 1_655 S
C802 C818 1.332 1_564 S
H803 C811 0.950 . S
H804 C809 0.950 . S
H805 C810 0.949 . S
H806 C812 0.950 . S
H807 C813 0.950 . S
H808 C814 0.949 . S
C809 H804 0.950 . S
C809 C811 1.327 . S
C809 C815 1.429 1_545 S
C810 C802 1.574 1_455 S
C810 H805 0.949 . S
C810 C816 1.403 . S
C811 C795 1.349 1_545 S
C811 H803 0.950 . S
C811 C809 1.327 . S
C812 C800 1.349 1_565 S
C812 H806 0.950 . S
C812 C813 1.327 . S
C813 H807 0.950 . S
C813 C812 1.327 . S
C813 C817 1.429 1_565 S
C814 C797 1.574 1_655 S
C814 H808 0.949 . S
C814 C818 1.403 . S
C815 C796 1.429 . S
C815 C809 1.429 1_565 S
C815 C816 1.525 . S
C816 C797 1.332 1_564 S
C816 C810 1.403 . S
C816 C815 1.525 . S
C817 C801 1.429 . S
C817 C813 1.429 1_545 S
C817 C818 1.525 . S
C818 C802 1.332 1_546 S
C818 C814 1.403 . S
C818 C817 1.525 . S
H819 C794 0.950 . S
H820 C796 0.950 . S
H821 C797 0.949 . S
H822 C799 0.950 . S
H823 C801 0.950 . S
C824 C825 1.349 . S
C824 C826 1.327 . S
C824 H849 0.950 . S
C825 C824 1.349 . S
C825 C841 1.349 . S
C826 C824 1.327 . S
C826 C845 1.429 . S
C826 H850 0.950 . S
C827 C844 1.574 . S
C827 C846 1.368 . S
C827 H851 0.949 . S
H828 C832 0.949 . S
C829 C830 1.349 . S
C829 C831 1.327 . S
C829 H852 0.950 . S
C830 C829 1.349 . S
C830 C842 1.349 . S
C831 C829 1.327 . S
C831 C847 1.429 . S
C831 H853 0.950 . S
C832 H828 0.949 . S
C832 C840 1.574 . S
C832 C848 1.368 . S
H833 C841 0.950 . S
H834 C839 0.950 . S
H835 C840 0.949 . S
H836 C842 0.950 . S
H837 C843 0.950 . S
H838 C844 0.949 . S
C839 H834 0.950 . S
C839 C841 1.327 . S
C839 C845 1.429 . S
C840 C832 1.574 . S
C840 H835 0.949 . S
C840 C846 1.368 . S
C841 C825 1.349 . S
C841 H833 0.950 . S
C841 C839 1.327 . S
C842 C830 1.349 . S
C842 H836 0.950 . S
C842 C843 1.327 . S
C843 H837 0.950 . S
C843 C842 1.327 . S
C843 C847 1.429 . S
C844 C827 1.574 . S
C844 H838 0.949 . S
C844 C848 1.368 . S
C845 C826 1.429 . S
C845 C839 1.429 . S
C845 C846 1.523 . S
C846 C827 1.368 . S
C846 C840 1.368 . S
C846 C845 1.523 . S
C847 C831 1.429 . S
C847 C843 1.429 . S
C847 C848 1.523 . S
C848 C832 1.368 . S
C848 C844 1.368 . S
C848 C847 1.523 . S
H849 C824 0.950 . S
H850 C826 0.950 . S
H851 C827 0.949 . S
H852 C829 0.950 . S
H853 C831 0.950 . S
C854 C855 1.349 . S
C854 C856 1.327 . S
C854 H879 0.950 . S
C855 C854 1.349 . S
C855 C871 1.349 . S
C856 C854 1.327 . S
C856 C875 1.429 . S
C856 H880 0.950 . S
C857 C874 1.574 1_455 S
C857 C876 1.368 . S
C857 H881 0.949 . S
H858 C862 0.949 . S
C859 C860 1.349 . S
C859 C861 1.327 . S
C859 H882 0.950 . S
C860 C859 1.349 . S
C860 C872 1.349 . S
C861 C859 1.327 . S
C861 C877 1.429 . S
C861 H883 0.950 . S
C862 H858 0.949 . S
C862 C870 1.574 1_655 S
C862 C878 1.368 . S
H863 C871 0.950 . S
H864 C869 0.950 . S
H865 C870 0.949 . S
H866 C872 0.950 . S
H867 C873 0.950 . S
H868 C874 0.949 . S
C869 H864 0.950 . S
C869 C871 1.327 . S
C869 C875 1.429 . S
C870 C862 1.574 1_455 S
C870 H865 0.949 . S
C870 C876 1.368 . S
C871 C855 1.349 . S
C871 H863 0.950 . S
C871 C869 1.327 . S
C872 C860 1.349 . S
C872 H866 0.950 . S
C872 C873 1.327 . S
C873 H867 0.950 . S
C873 C872 1.327 . S
C873 C877 1.429 . S
C874 C857 1.574 1_655 S
C874 H868 0.949 . S
C874 C878 1.368 . S
C875 C856 1.429 . S
C875 C869 1.429 . S
C875 C876 1.523 . S
C876 C857 1.368 . S
C876 C870 1.368 . S
C876 C875 1.523 . S
C877 C861 1.429 . S
C877 C873 1.429 . S
C877 C878 1.523 . S
C878 C862 1.368 . S
C878 C874 1.368 . S
C878 C877 1.523 . S
H879 C854 0.950 . S
H880 C856 0.950 . S
H881 C857 0.949 . S
H882 C859 0.950 . S
H883 C861 0.950 . S
C884 C885 1.349 . S
C884 C886 1.327 . S
C884 H909 0.950 . S
C885 C884 1.349 . S
C885 C901 1.349 1_455 S
C886 C884 1.327 . S
C886 C905 1.429 . S
C886 H910 0.950 . S
C887 C904 1.574 1_565 S
C887 C906 1.351 1_655 S
C887 H911 0.949 . S
H888 C892 0.949 . S
C889 C890 1.349 . S
C889 C891 1.327 . S
C889 H912 0.950 . S
C890 C889 1.349 . S
C890 C902 1.349 1_655 S
C891 C889 1.327 . S
C891 C907 1.429 . S
C891 H913 0.950 . S
C892 H888 0.949 . S
C892 C900 1.574 1_545 S
C892 C908 1.351 1_455 S
H893 C901 0.950 . S
H894 C899 0.950 . S
H895 C900 0.949 . S
H896 C902 0.950 . S
H897 C903 0.950 . S
H898 C904 0.949 . S
C899 H894 0.950 . S
C899 C901 1.327 . S
C899 C905 1.429 1_655 S
C900 C892 1.574 1_565 S
C900 H895 0.949 . S
C900 C906 1.385 . S
C901 C885 1.349 1_655 S
C901 H893 0.950 . S
C901 C899 1.327 . S
C902 C890 1.349 1_455 S
C902 H896 0.950 . S
C902 C903 1.327 . S
C903 H897 0.950 . S
C903 C902 1.327 . S
C903 C907 1.429 1_455 S
C904 C887 1.574 1_545 S
C904 H898 0.949 . S
C904 C908 1.385 . S
C905 C886 1.429 . S
C905 C899 1.429 1_455 S
C905 C906 1.525 . S
C906 C887 1.351 1_455 S
C906 C900 1.385 . S
C906 C905 1.525 . S
C907 C891 1.429 . S
C907 C903 1.429 1_655 S
C907 C908 1.525 . S
C908 C892 1.351 1_655 S
C908 C904 1.385 . S
C908 C907 1.525 . S
H909 C884 0.950 . S
H910 C886 0.950 . S
H911 C887 0.949 . S
H912 C889 0.950 . S
H913 C891 0.950 . S
C914 C915 1.349 1_565 S
C914 C916 1.327 . S
C914 H939 0.950 . S
C915 C914 1.349 1_545 S
C915 C931 1.349 . S
C916 C914 1.327 . S
C916 C935 1.429 1_565 S
C916 H940 0.950 . S
C917 C934 1.574 . S
C917 C936 1.388 . S
C917 H941 0.949 . S
H918 C922 0.949 . S
C919 C920 1.349 1_545 S
C919 C921 1.327 . S
C919 H942 0.950 . S
C920 C919 1.349 1_565 S
C920 C932 1.349 . S
C921 C919 1.327 . S
C921 C937 1.429 1_545 S
C921 H943 0.950 . S
C922 H918 0.949 . S
C922 C930 1.574 . S
C922 C938 1.388 . S
H923 C931 0.950 . S
H924 C929 0.950 . S
H925 C930 0.949 . S
H926 C932 0.950 . S
H927 C933 0.950 . S
H928 C934 0.949 . S
C929 H924 0.950 . S
C929 C931 1.327 . S
C929 C935 1.429 . S
C930 C922 1.574 . S
C930 H925 0.949 . S
C930 C936 1.348 1_565 S
C931 C915 1.349 . S
C931 H923 0.950 . S
C931 C929 1.327 . S
C932 C920 1.349 . S
C932 H926 0.950 . S
C932 C933 1.327 . S
C933 H927 0.950 . S
C933 C932 1.327 . S
C933 C937 1.429 . S
C934 C917 1.574 . S
C934 H928 0.949 . S
C934 C938 1.348 1_545 S
C935 C916 1.429 1_545 S
C935 C929 1.429 . S
C935 C936 1.525 . S
C936 C917 1.388 . S
C936 C930 1.348 1_545 S
C936 C935 1.525 . S
C937 C921 1.429 1_565 S
C937 C933 1.429 . S
C937 C938 1.525 . S
C938 C922 1.388 . S
C938 C934 1.348 1_565 S
C938 C937 1.525 . S
H939 C914 0.950 . S
H940 C916 0.950 . S
H941 C917 0.949 . S
H942 C919 0.950 . S
H943 C921 0.950 . S
C944 C945 1.349 . S
C944 C946 1.327 . S
C944 H969 0.950 . S
C945 C944 1.349 . S
C945 C961 1.349 . S
C946 C944 1.327 . S
C946 C965 1.429 . S
C946 H970 0.950 . S
C947 C964 1.574 . S
C947 C966 1.368 . S
C947 H971 0.949 . S
H948 C952 0.949 . S
C949 C950 1.349 . S
C949 C951 1.327 . S
C949 H972 0.950 . S
C950 C949 1.349 . S
C950 C962 1.349 . S
C951 C949 1.327 . S
C951 C967 1.429 . S
C951 H973 0.950 . S
C952 H948 0.949 . S
C952 C960 1.574 . S
C952 C968 1.368 . S
H953 C961 0.950 . S
H954 C959 0.950 . S
H955 C960 0.949 . S
H956 C962 0.950 . S
H957 C963 0.950 . S
H958 C964 0.949 . S
C959 H954 0.950 . S
C959 C961 1.327 . S
C959 C965 1.429 . S
C960 C952 1.574 . S
C960 H955 0.949 . S
C960 C966 1.368 . S
C961 C945 1.349 . S
C961 H953 0.950 . S
C961 C959 1.327 . S
C962 C950 1.349 . S
C962 H956 0.950 . S
C962 C963 1.327 . S
C963 H957 0.950 . S
C963 C962 1.327 . S
C963 C967 1.429 . S
C964 C947 1.574 . S
C964 H958 0.949 . S
C964 C968 1.368 . S
C965 C946 1.429 . S
C965 C959 1.429 . S
C965 C966 1.523 . S
C966 C947 1.368 . S
C966 C960 1.368 . S
C966 C965 1.523 . S
C967 C951 1.429 . S
C967 C963 1.429 . S
C967 C968 1.523 . S
C968 C952 1.368 . S
C968 C964 1.368 . S
C968 C967 1.523 . S
H969 C944 0.950 . S
H970 C946 0.950 . S
H971 C947 0.949 . S
H972 C949 0.950 . S
H973 C951 0.950 . S
C974 C975 1.349 . S
C974 C976 1.327 . S
C974 H999 0.950 . S
C975 C974 1.349 . S
C975 C991 1.349 . S
C976 C974 1.327 . S
C976 C995 1.429 . S
C976 H1000 0.950 . S
C977 C994 1.574 . S
C977 C996 1.368 . S
C977 H1001 0.949 . S
H978 C982 0.949 . S
C979 C980 1.349 . S
C979 C981 1.327 . S
C979 H1002 0.950 . S
C980 C979 1.349 . S
C980 C992 1.349 . S
C981 C979 1.327 . S
C981 C997 1.429 . S
C981 H1003 0.950 . S
C982 H978 0.949 . S
C982 C990 1.574 . S
C982 C998 1.368 . S
H983 C991 0.950 . S
H984 C989 0.950 . S
H985 C990 0.949 . S
H986 C992 0.950 . S
H987 C993 0.950 . S
H988 C994 0.949 . S
C989 H984 0.950 . S
C989 C991 1.327 . S
C989 C995 1.429 . S
C990 C982 1.574 . S
C990 H985 0.949 . S
C990 C996 1.368 . S
C991 C975 1.349 . S
C991 H983 0.950 . S
C991 C989 1.327 . S
C992 C980 1.349 . S
C992 H986 0.950 . S
C992 C993 1.327 . S
C993 H987 0.950 . S
C993 C992 1.327 . S
C993 C997 1.429 . S
C994 C977 1.574 . S
C994 H988 0.949 . S
C994 C998 1.368 . S
C995 C976 1.429 . S
C995 C989 1.429 . S
C995 C996 1.523 . S
C996 C977 1.368 . S
C996 C990 1.368 . S
C996 C995 1.523 . S
C997 C981 1.429 . S
C997 C993 1.429 . S
C997 C998 1.523 . S
C998 C982 1.368 . S
C998 C994 1.368 . S
C998 C997 1.523 . S
H999 C974 0.950 . S
H1000 C976 0.950 . S
H1001 C977 0.949 . S
H1002 C979 0.950 . S
H1003 C981 0.950 . S
C1004 C1005 1.349 . S
C1004 C1006 1.327 . S
C1004 H1029 0.950 . S
C1005 C1004 1.349 . S
C1005 C1021 1.349 . S
C1006 C1004 1.327 . S
C1006 C1025 1.429 . S
C1006 H1030 0.950 . S
C1007 C1024 1.574 . S
C1007 C1026 1.368 . S
C1007 H1031 0.949 . S
H1008 C1012 0.949 . S
C1009 C1010 1.349 . S
C1009 C1011 1.327 . S
C1009 H1032 0.950 . S
C1010 C1009 1.349 . S
C1010 C1022 1.349 . S
C1011 C1009 1.327 . S
C1011 C1027 1.429 . S
C1011 H1033 0.950 . S
C1012 H1008 0.949 . S
C1012 C1020 1.574 . S
C1012 C1028 1.368 . S
H1013 C1021 0.950 . S
H1014 C1019 0.950 . S
H1015 C1020 0.949 . S
H1016 C1022 0.950 . S
H1017 C1023 0.950 . S
H1018 C1024 0.949 . S
C1019 H1014 0.950 . S
C1019 C1021 1.327 . S
C1019 C1025 1.429 . S
C1020 C1012 1.574 . S
C1020 H1015 0.949 . S
C1020 C1026 1.368 . S
C1021 C1005 1.349 . S
C1021 H1013 0.950 . S
C1021 C1019 1.327 . S
C1022 C1010 1.349 . S
C1022 H1016 0.950 . S
C1022 C1023 1.327 . S
C1023 H1017 0.950 . S
C1023 C1022 1.327 . S
C1023 C1027 1.429 . S
C1024 C1007 1.574 . S
C1024 H1018 0.949 . S
C1024 C1028 1.368 . S
C1025 C1006 1.429 . S
C1025 C1019 1.429 . S
C1025 C1026 1.523 . S
C1026 C1007 1.368 . S
C1026 C1020 1.368 . S
C1026 C1025 1.523 . S
C1027 C1011 1.429 . S
C1027 C1023 1.429 . S
C1027 C1028 1.523 . S
C1028 C1012 1.368 . S
C1028 C1024 1.368 . S
C1028 C1027 1.523 . S
H1029 C1004 0.950 . S
H1030 C1006 0.950 . S
H1031 C1007 0.949 . S
H1032 C1009 0.950 . S
H1033 C1011 0.950 . S
C1034 C1035 1.349 . S
C1034 C1036 1.327 . S
C1034 H1059 0.950 . S
C1035 C1034 1.349 . S
C1035 C1051 1.349 . S
C1036 C1034 1.327 . S
C1036 C1055 1.429 . S
C1036 H1060 0.950 . S
C1037 C1054 1.574 . S
C1037 C1056 1.368 . S
C1037 H1061 0.949 1_565 S
H1038 C1042 0.949 . S
C1039 C1040 1.349 . S
C1039 C1041 1.327 . S
C1039 H1062 0.918 1_565 S
C1040 C1039 1.349 . S
C1040 C1052 1.349 . S
C1041 C1039 1.327 . S
C1041 C1057 1.429 . S
C1041 H1063 0.950 1_565 S
C1042 H1038 0.949 . S
C1042 C1050 1.574 . S
C1042 C1058 1.368 . S
H1043 C1051 0.918 1_545 S
H1044 C1049 0.950 1_545 S
H1045 C1050 0.949 . S
H1046 C1052 0.950 . S
H1047 C1053 0.950 . S
H1048 C1054 0.949 1_545 S
C1049 H1044 0.950 1_565 S
C1049 C1051 1.327 . S
C1049 C1055 1.429 . S
C1050 C1042 1.574 . S
C1050 H1045 0.949 . S
C1050 C1056 1.368 . S
C1051 C1035 1.349 . S
C1051 H1043 0.918 1_565 S
C1051 C1049 1.327 . S
C1052 C1040 1.349 . S
C1052 H1046 0.950 . S
C1052 C1053 1.327 . S
C1053 H1047 0.950 . S
C1053 C1052 1.327 . S
C1053 C1057 1.429 . S
C1054 C1037 1.574 . S
C1054 H1048 0.949 1_565 S
C1054 C1058 1.368 . S
C1055 C1036 1.429 . S
C1055 C1049 1.429 . S
C1055 C1056 1.523 . S
C1056 C1037 1.368 . S
C1056 C1050 1.368 . S
C1056 C1055 1.523 . S
C1057 C1041 1.429 . S
C1057 C1053 1.429 . S
C1057 C1058 1.523 . S
C1058 C1042 1.368 . S
C1058 C1054 1.368 . S
C1058 C1057 1.523 . S
H1059 C1034 0.950 . S
H1060 C1036 0.950 . S
H1061 C1037 0.949 1_545 S
H1062 C1039 0.918 1_545 S
H1063 C1041 0.950 1_545 S
C1064 C1065 1.349 . S
C1064 C1066 1.327 . S
C1064 H1089 0.950 . S
C1065 C1064 1.349 . S
C1065 C1081 1.349 . S
C1066 C1064 1.327 . S
C1066 C1085 1.429 . S
C1066 H1090 0.950 . S
C1067 C1084 1.574 . S
C1067 C1086 1.368 . S
C1067 H1091 0.949 . S
H1068 C1072 0.949 . S
C1069 C1070 1.349 . S
C1069 C1071 1.327 . S
C1069 H1092 0.950 . S
C1070 C1069 1.349 . S
C1070 C1082 1.349 . S
C1071 C1069 1.327 . S
C1071 C1087 1.429 . S
C1071 H1093 0.950 . S
C1072 H1068 0.949 . S
C1072 C1080 1.574 . S
C1072 C1088 1.368 . S
H1073 C1081 0.950 . S
H1074 C1079 0.950 . S
H1075 C1080 0.949 . S
H1076 C1082 0.950 . S
H1077 C1083 0.950 . S
H1078 C1084 0.949 . S
C1079 H1074 0.950 . S
C1079 C1081 1.327 . S
C1079 C1085 1.429 . S
C1080 C1072 1.574 . S
C1080 H1075 0.949 . S
C1080 C1086 1.368 . S
C1081 C1065 1.349 . S
C1081 H1073 0.950 . S
C1081 C1079 1.327 . S
C1082 C1070 1.349 . S
C1082 H1076 0.950 . S
C1082 C1083 1.327 . S
C1083 H1077 0.950 . S
C1083 C1082 1.327 . S
C1083 C1087 1.429 . S
C1084 C1067 1.574 . S
C1084 H1078 0.949 . S
C1084 C1088 1.368 . S
C1085 C1066 1.429 . S
C1085 C1079 1.429 . S
C1085 C1086 1.523 . S
C1086 C1067 1.368 . S
C1086 C1080 1.368 . S
C1086 C1085 1.523 . S
C1087 C1071 1.429 . S
C1087 C1083 1.429 . S
C1087 C1088 1.523 . S
C1088 C1072 1.368 . S
C1088 C1084 1.368 . S
C1088 C1087 1.523 . S
H1089 C1064 0.950 . S
H1090 C1066 0.950 . S
H1091 C1067 0.949 . S
H1092 C1069 0.950 . S
H1093 C1071 0.950 . S
C1094 C1095 1.349 . S
C1094 C1096 1.327 . S
C1094 H1119 0.950 . S
C1095 C1094 1.349 . S
C1095 C1111 1.349 . S
C1096 C1094 1.327 . S
C1096 C1115 1.429 . S
C1096 H1120 0.950 . S
C1097 C1114 1.574 . S
C1097 C1116 1.368 . S
C1097 H1121 0.949 . S
H1098 C1102 0.949 . S
C1099 C1100 1.349 . S
C1099 C1101 1.327 . S
C1099 H1122 0.950 . S
C1100 C1099 1.349 . S
C1100 C1112 1.349 . S
C1101 C1099 1.327 . S
C1101 C1117 1.429 . S
C1101 H1123 0.950 . S
C1102 H1098 0.949 . S
C1102 C1110 1.574 . S
C1102 C1118 1.368 . S
H1103 C1111 0.950 . S
H1104 C1109 0.950 . S
H1105 C1110 0.949 . S
H1106 C1112 0.950 . S
H1107 C1113 0.950 . S
H1108 C1114 0.949 . S
C1109 H1104 0.950 . S
C1109 C1111 1.327 . S
C1109 C1115 1.429 . S
C1110 C1102 1.574 . S
C1110 H1105 0.949 . S
C1110 C1116 1.368 . S
C1111 C1095 1.349 . S
C1111 H1103 0.950 . S
C1111 C1109 1.327 . S
C1112 C1100 1.349 . S
C1112 H1106 0.950 . S
C1112 C1113 1.327 . S
C1113 H1107 0.950 . S
C1113 C1112 1.327 . S
C1113 C1117 1.429 . S
C1114 C1097 1.574 . S
C1114 H1108 0.949 . S
C1114 C1118 1.368 . S
C1115 C1096 1.429 . S
C1115 C1109 1.429 . S
C1115 C1116 1.523 . S
C1116 C1097 1.368 . S
C1116 C1110 1.368 . S
C1116 C1115 1.523 . S
C1117 C1101 1.429 . S
C1117 C1113 1.429 . S
C1117 C1118 1.523 . S
C1118 C1102 1.368 . S
C1118 C1114 1.368 . S
C1118 C1117 1.523 . S
H1119 C1094 0.950 . S
H1120 C1096 0.950 . S
H1121 C1097 0.949 . S
H1122 C1099 0.950 . S
H1123 C1101 0.950 . S
C1124 C1125 1.349 . S
C1124 C1126 1.327 . S
C1124 H1149 0.950 . S
C1125 C1124 1.349 . S
C1125 C1141 1.349 . S
C1126 C1124 1.327 . S
C1126 C1145 1.429 . S
C1126 H1150 0.950 . S
C1127 C1144 1.574 . S
C1127 C1146 1.368 . S
C1127 H1151 0.949 . S
H1128 C1132 0.949 . S
C1129 C1130 1.349 . S
C1129 C1131 1.327 . S
C1129 H1152 0.950 . S
C1130 C1129 1.349 . S
C1130 C1142 1.349 . S
C1131 C1129 1.327 . S
C1131 C1147 1.429 . S
C1131 H1153 0.950 . S
C1132 H1128 0.949 . S
C1132 C1140 1.574 . S
C1132 C1148 1.368 . S
H1133 C1141 0.950 . S
H1134 C1139 0.950 . S
H1135 C1140 0.949 . S
H1136 C1142 0.950 . S
H1137 C1143 0.950 . S
H1138 C1144 0.949 . S
C1139 H1134 0.950 . S
C1139 C1141 1.327 . S
C1139 C1145 1.429 . S
C1140 C1132 1.574 . S
C1140 H1135 0.949 . S
C1140 C1146 1.368 . S
C1141 C1125 1.349 . S
C1141 H1133 0.950 . S
C1141 C1139 1.327 . S
C1142 C1130 1.349 . S
C1142 H1136 0.950 . S
C1142 C1143 1.327 . S
C1143 H1137 0.950 . S
C1143 C1142 1.327 . S
C1143 C1147 1.429 . S
C1144 C1127 1.574 . S
C1144 H1138 0.949 . S
C1144 C1148 1.368 . S
C1145 C1126 1.429 . S
C1145 C1139 1.429 . S
C1145 C1146 1.523 . S
C1146 C1127 1.368 . S
C1146 C1140 1.368 . S
C1146 C1145 1.523 . S
C1147 C1131 1.429 . S
C1147 C1143 1.429 . S
C1147 C1148 1.523 . S
C1148 C1132 1.368 . S
C1148 C1144 1.368 . S
C1148 C1147 1.523 . S
H1149 C1124 0.950 . S
H1150 C1126 0.950 . S
H1151 C1127 0.949 . S
H1152 C1129 0.950 . S
H1153 C1131 0.950 . S
C1154 C1155 1.349 . S
C1154 C1156 1.327 . S
C1154 H1179 0.918 1_545 S
C1155 C1154 1.349 . S
C1155 C1171 1.349 . S
C1156 C1154 1.327 . S
C1156 C1175 1.429 . S
C1156 H1180 0.950 1_545 S
C1157 C1174 1.574 . S
C1157 C1176 1.368 . S
C1157 H1181 0.949 . S
H1158 C1162 0.949 1_565 S
C1159 C1160 1.349 . S
C1159 C1161 1.327 . S
C1159 H1182 0.950 . S
C1160 C1159 1.349 . S
C1160 C1172 1.349 . S
C1161 C1159 1.327 . S
C1161 C1177 1.429 . S
C1161 H1183 0.950 . S
C1162 H1158 0.949 1_545 S
C1162 C1170 1.574 . S
C1162 C1178 1.368 . S
H1163 C1171 0.950 . S
H1164 C1169 0.950 . S
H1165 C1170 0.949 1_565 S
H1166 C1172 0.918 1_565 S
H1167 C1173 0.950 1_565 S
H1168 C1174 0.949 . S
C1169 H1164 0.950 . S
C1169 C1171 1.327 . S
C1169 C1175 1.429 . S
C1170 C1162 1.574 . S
C1170 H1165 0.949 1_545 S
C1170 C1176 1.368 . S
C1171 C1155 1.349 . S
C1171 H1163 0.950 . S
C1171 C1169 1.327 . S
C1172 C1160 1.349 . S
C1172 H1166 0.918 1_545 S
C1172 C1173 1.327 . S
C1173 H1167 0.950 1_545 S
C1173 C1172 1.327 . S
C1173 C1177 1.429 . S
C1174 C1157 1.574 . S
C1174 H1168 0.949 . S
C1174 C1178 1.368 . S
C1175 C1156 1.429 . S
C1175 C1169 1.429 . S
C1175 C1176 1.523 . S
C1176 C1157 1.368 . S
C1176 C1170 1.368 . S
C1176 C1175 1.523 . S
C1177 C1161 1.429 . S
C1177 C1173 1.429 . S
C1177 C1178 1.523 . S
C1178 C1162 1.368 . S
C1178 C1174 1.368 . S
C1178 C1177 1.523 . S
H1179 C1154 0.918 1_565 S
H1180 C1156 0.950 1_565 S
H1181 C1157 0.949 . S
H1182 C1159 0.950 . S
H1183 C1161 0.950 . S
C225 C9 0.660 . S
C230 C133 0.638 . S
C255 C147 0.638 . S
C260 C23 0.660 . S
C285 C161 0.638 . S
C290 C37 0.660 . S
C315 C119 0.638 . S
C320 C51 0.660 . S
C345 C65 0.660 . S
C350 C217 0.638 . S
C375 C175 0.638 . S
C380 C79 0.660 . S
C405 C189 0.638 . S
C410 C93 0.660 . S
C435 C203 0.638 . S
C440 C107 0.660 . S
C465 C121 0.660 . S
C470 C21 0.638 . S
C495 C135 0.660 . S
C500 C35 0.638 . S
C525 C149 0.660 . S
C530 C49 0.638 . S
C555 C7 0.638 . S
C560 C163 0.660 . S
C585 C177 0.660 . S
C590 C105 0.638 . S
C615 C191 0.660 . S
C620 C63 0.638 . S
C645 C77 0.638 . S
C650 C205 0.660 . S
C675 C219 0.660 . S
C680 C91 0.638 . S
C705 C120 1.688 . S
C710 C8 1.688 . S
C735 C22 1.688 . S
C740 C134 1.688 . S
C765 C148 1.688 . S
C770 C36 1.688 . S
C795 C50 1.688 . S
C800 C162 1.688 . S
C825 C176 1.688 . S
C830 C64 1.688 . S
C855 C78 1.688 . S
C860 C190 1.688 . S
C885 C204 1.688 . S
C890 C92 1.688 . S
C915 C218 1.688 . S
C920 C106 1.688 . S
C945 C59 1.701 . S
C950 C3 1.701 . S
C975 C73 1.701 . S
C980 C17 1.701 . S
C1005 C31 1.701 . S
C1010 C87 1.701 . S
C1035 C101 1.701 . S
C1040 C45 1.701 . S
C1065 C115 1.701 . S
C1070 C171 1.701 . S
C1095 C185 1.701 . S
C1100 C129 1.701 . S
C1125 C199 1.701 . S
C1130 C143 1.701 . S
C1155 C213 1.701 . S
C1160 C157 1.701 . S
