# Generated by pormake.
# Topology dft, (4)-cn, num edge types: 1
# Building blocks:
#     Node 0, Type 0, BuildingBlock: KUFVIS_clean_sbu_0, # of connection points: 4
#     Node 1, Type 0, BuildingBlock: KUFVIS_clean_sbu_0, # of connection points: 4
#     Node 2, Type 0, BuildingBlock: KUFVIS_clean_sbu_0, # of connection points: 4
#     Node 3, Type 0, BuildingBlock: KUFVIS_clean_sbu_0, # of connection points: 4
#     Node 4, Type 0, BuildingBlock: KUFVIS_clean_sbu_0, # of connection points: 4
#     Node 5, Type 0, BuildingBlock: KUFVIS_clean_sbu_0, # of connection points: 4
#     Node 6, Type 0, BuildingBlock: KUFVIS_clean_sbu_0, # of connection points: 4
#     Node 7, Type 0, BuildingBlock: KUFVIS_clean_sbu_0, # of connection points: 4
#     Edge 8, Type (0, 0), BuildingBlock: EZIPEK_clean_linker_0, # of connection points: 2
#     Edge 9, Type (0, 0), BuildingBlock: EZIPEK_clean_linker_0, # of connection points: 2
#     Edge 10, Type (0, 0), BuildingBlock: EZIPEK_clean_linker_0, # of connection points: 2
#     Edge 11, Type (0, 0), BuildingBlock: EZIPEK_clean_linker_0, # of connection points: 2
#     Edge 12, Type (0, 0), BuildingBlock: EZIPEK_clean_linker_0, # of connection points: 2
#     Edge 13, Type (0, 0), BuildingBlock: EZIPEK_clean_linker_0, # of connection points: 2
#     Edge 14, Type (0, 0), BuildingBlock: EZIPEK_clean_linker_0, # of connection points: 2
#     Edge 15, Type (0, 0), BuildingBlock: EZIPEK_clean_linker_0, # of connection points: 2
#     Edge 16, Type (0, 0), BuildingBlock: EZIPEK_clean_linker_0, # of connection points: 2
#     Edge 17, Type (0, 0), BuildingBlock: EZIPEK_clean_linker_0, # of connection points: 2
#     Edge 18, Type (0, 0), BuildingBlock: EZIPEK_clean_linker_0, # of connection points: 2
#     Edge 19, Type (0, 0), BuildingBlock: EZIPEK_clean_linker_0, # of connection points: 2
#     Edge 20, Type (0, 0), BuildingBlock: EZIPEK_clean_linker_0, # of connection points: 2
#     Edge 21, Type (0, 0), BuildingBlock: EZIPEK_clean_linker_0, # of connection points: 2
#     Edge 22, Type (0, 0), BuildingBlock: EZIPEK_clean_linker_0, # of connection points: 2
#     Edge 23, Type (0, 0), BuildingBlock: EZIPEK_clean_linker_0, # of connection points: 2
# Relax obj value: 0.171
# Max RMSD: 0.157
# Mean RMSD: 0.157
data_MOF--net-dft--node1-KUFVIS_clean_sbu_0--edge1-EZIPEK_clean_linker_0
_symmetry_space_group_name_H-M    P1
_symmetry_Int_Tables_number       1
_symmetry_cell_setting            triclinic
loop_
_symmetry_equiv_pos_as_xyz
'x, y, z'
_cell_length_a     24.694136
_cell_length_b     24.724244
_cell_length_c     29.953592
_cell_angle_alpha  90.02727
_cell_angle_beta   90.060487
_cell_angle_gamma 89.735014
loop_
_atom_site_label
_atom_site_type_symbol
_atom_site_fract_x
_atom_site_fract_y
_atom_site_fract_z
_atom_type_partial_charge
Mn0 Mn 0.33327 0.07518 0.17887 0.0
Mn1 Mn 0.3868 0.18856 0.13287 0.0
C2 C 0.32204 0.16001 0.21261 0.0
C3 C 0.26387 0.01289 0.19486 0.0
C4 C 0.45553 0.10014 0.17326 0.0
O5 O 0.33899 0.05399 0.11337 0.0
O6 O 0.37436 0.1325 0.08713 0.0
C7 C 0.30022 0.22567 0.07156 0.0
N8 N 0.33289 0.23484 0.10745 0.0
C9 C 0.30881 0.32925 0.10844 0.0
C10 C 0.27389 0.32052 0.07221 0.0
C11 C 0.26937 0.26843 0.05387 0.0
C12 C 0.33715 0.28472 0.1256 0.0
H13 H 0.29792 0.18611 0.05643 0.0
C14 C 0.35583 0.08458 0.08187 0.0
O15 O 0.31457 1.00025 0.19859 0.0
O16 O 0.25289 0.06096 0.17975 0.0
N17 N 0.39931 0.24556 0.17436 0.0
C18 C 0.43638 0.24729 0.20801 0.0
C19 C 0.4486 0.29702 0.22795 0.0
C20 C 0.4228 0.34428 0.21287 0.0
C21 C 0.38294 0.34116 0.17959 0.0
C22 C 0.3726 0.29044 0.16086 0.0
H23 H 0.45785 0.21132 0.21849 0.0
O24 O 0.32353 0.11591 0.2363 0.0
O25 O 0.33304 0.15348 0.17085 0.0
O26 O 0.41658 0.06934 0.18444 0.0
O27 O 0.448 0.14684 0.15691 0.0
C28 C 0.35486 0.38659 0.16288 0.0
C29 C 0.31735 0.38054 0.12768 0.0
H30 H 0.25078 0.35362 0.05795 0.0
H31 H 0.24295 0.26148 0.02561 0.0
H32 H 0.47911 0.2992 0.25385 0.0
H33 H 0.43509 0.38278 0.2264 0.0
H34 H 0.36224 0.42647 0.17647 0.0
H35 H 0.29609 0.41578 0.11507 0.0
Mn36 Mn 0.05564 0.34631 0.69165 0.0
Mn37 Mn 0.94414 0.40638 0.64652 0.0
C38 C 0.97072 0.3364 0.7248 0.0
C39 C 0.11643 0.27423 0.70625 0.0
C40 C 0.03708 0.4685 0.68856 0.0
O41 O 0.07611 0.35567 0.62568 0.0
O42 O 0.99555 0.38732 0.59935 0.0
C43 C 0.89518 0.32455 0.58716 0.0
N44 N 0.89173 0.35669 0.62407 0.0
C45 C 0.79604 0.3405 0.63026 0.0
C46 C 0.79895 0.30595 0.59319 0.0
C47 C 0.84882 0.29775 0.57169 0.0
C48 C 0.84392 0.36486 0.645 0.0
H49 H 0.93301 0.31948 0.56956 0.0
C50 C 0.04382 0.36955 0.59389 0.0
O51 O 0.13 0.32435 0.71098 0.0
O52 O 0.06855 0.2654 0.68969 0.0
N53 N 0.89124 0.4246 0.69048 0.0
C54 C 0.89468 0.46199 0.7237 0.0
C55 C 0.84788 0.47703 0.74714 0.0
C56 C 0.79788 0.45429 0.73551 0.0
C57 C 0.79543 0.41497 0.70178 0.0
C58 C 0.84367 0.40089 0.68014 0.0
H59 H 0.93249 0.48139 0.73125 0.0
O60 O 0.01497 0.33431 0.7484 0.0
O61 O 0.97749 0.34992 0.68358 0.0
O62 O 0.06347 0.42783 0.70284 0.0
O63 O 0.99336 0.46434 0.66643 0.0
C64 C 0.74677 0.39089 0.68749 0.0
C65 C 0.74717 0.35317 0.65218 0.0
H66 H 0.76304 0.28604 0.58063 0.0
H67 H 0.85128 0.27168 0.54272 0.0
H68 H 0.85003 0.50736 0.77314 0.0
H69 H 0.7616 0.46829 0.75215 0.0
H70 H 0.7086 0.40174 0.7029 0.0
H71 H 0.70944 0.33519 0.64138 0.0
Mn72 Mn 0.7948 0.04463 0.19573 0.0
Mn73 Mn 0.75761 0.9352 0.13481 0.0
C74 C 0.80204 0.95724 0.22728 0.0
C75 C 0.86092 0.10649 0.22067 0.0
C76 C 0.67712 0.01631 0.17337 0.0
O77 O 0.79779 0.0734 0.1316 0.0
O78 O 0.77981 0.99509 0.09612 0.0
C79 C 0.86595 0.90976 0.09791 0.0
N80 N 0.81976 0.89356 0.11862 0.0
C81 C 0.84703 0.80028 0.11513 0.0
C82 C 0.89493 0.81578 0.0936 0.0
C83 C 0.90473 0.87087 0.08545 0.0
C84 C 0.81111 0.8411 0.12847 0.0
H85 H 0.87286 0.95195 0.09081 0.0
C86 C 0.793 0.0448 0.09628 0.0
O87 O 0.80964 0.11814 0.22163 0.0
O88 O 0.87392 0.06 0.20371 0.0
N89 N 0.73364 0.87173 0.16507 0.0
C90 C 0.68455 0.86347 0.18476 0.0
C91 C 0.66755 0.8105 0.19401 0.0
C92 C 0.70004 0.76636 0.18126 0.0
C93 C 0.74927 0.77561 0.15936 0.0
C94 C 0.76454 0.82932 0.15171 0.0
H95 H 0.6583 0.897 0.19313 0.0
O96 O 0.79532 0.99989 0.25195 0.0
O97 O 0.79923 0.96673 0.18472 0.0
O98 O 0.71159 0.04573 0.19368 0.0
O99 O 0.69035 0.97454 0.15077 0.0
C100 C 0.7837 0.73361 0.14456 0.0
C101 C 0.83308 0.74598 0.12326 0.0
H102 H 0.92435 0.78576 0.08306 0.0
H103 H 0.9416 0.88321 0.06892 0.0
H104 H 0.62908 0.80369 0.21028 0.0
H105 H 0.68661 0.72557 0.18816 0.0
H106 H 0.7731 0.69171 0.15022 0.0
H107 H 0.85974 0.71342 0.11289 0.0
Mn108 Mn 0.08531 0.81176 0.67281 0.0
Mn109 Mn 0.19646 0.75662 0.62311 0.0
C110 C 0.17191 0.82163 0.70329 0.0
C111 C 0.02494 0.88195 0.69398 0.0
C112 C 0.11077 0.68953 0.66851 0.0
O113 O 0.06108 0.80652 0.60745 0.0
O114 O 0.13836 0.76955 0.57914 0.0
C115 C 0.2316 0.84165 0.56003 0.0
N116 N 0.24205 0.80934 0.59589 0.0
C117 C 0.33664 0.83233 0.59441 0.0
C118 C 0.32663 0.86681 0.55813 0.0
C119 C 0.27383 0.87169 0.54103 0.0
C120 C 0.29267 0.80465 0.61278 0.0
H121 H 0.19144 0.84428 0.54591 0.0
C122 C 0.09044 0.78907 0.57501 0.0
O123 O 0.01186 0.83144 0.69652 0.0
O124 O 0.0714 0.89244 0.67565 0.0
N125 N 0.25521 0.74379 0.66306 0.0
C126 C 0.25805 0.70764 0.69729 0.0
C127 C 0.30844 0.69559 0.71644 0.0
C128 C 0.35518 0.72072 0.70006 0.0
C129 C 0.35095 0.75972 0.66626 0.0
C130 C 0.29963 0.7698 0.64826 0.0
H131 H 0.22243 0.68681 0.70894 0.0
O132 O 0.12914 0.82048 0.72858 0.0
O133 O 0.16324 0.81113 0.66175 0.0
O134 O 0.07975 0.72867 0.67944 0.0
O135 O 0.15576 0.69671 0.64913 0.0
C136 C 0.3958 0.78732 0.64847 0.0
C137 C 0.38859 0.82393 0.61279 0.0
H138 H 0.35925 0.88943 0.54295 0.0
H139 H 0.26588 0.89782 0.51277 0.0
H140 H 0.31148 0.66573 0.74274 0.0
H141 H 0.39416 0.70842 0.71285 0.0
H142 H 0.43606 0.78036 0.66171 0.0
H143 H 0.42338 0.84484 0.59932 0.0
Mn144 Mn 0.34202 0.05822 0.79798 0.0
Mn145 Mn 0.39569 0.9466 0.84773 0.0
C146 C 0.33335 0.97261 0.76593 0.0
C147 C 0.27099 0.11807 0.77844 0.0
C148 C 0.46447 0.03473 0.80794 0.0
O149 O 0.34431 0.08114 0.86317 0.0
O150 O 0.37964 1.00355 0.89222 0.0
C151 C 0.3086 0.90857 0.9076 0.0
N152 N 0.34199 0.89978 0.8721 0.0
C153 C 0.31995 0.80505 0.87097 0.0
C154 C 0.28411 0.81347 0.90664 0.0
C155 C 0.27825 0.86552 0.92488 0.0
C156 C 0.34783 0.84983 0.85424 0.0
H157 H 0.30536 0.94804 0.92276 0.0
C158 C 0.35999 0.05148 0.89582 0.0
O159 O 0.32135 0.13208 0.77592 0.0
O160 O 0.26127 0.07037 0.79453 0.0
N161 N 0.41118 0.88924 0.80713 0.0
C162 C 0.4493 0.88769 0.77431 0.0
C163 C 0.46292 0.83803 0.75469 0.0
C164 C 0.43748 0.79061 0.76926 0.0
C165 C 0.3965 0.79354 0.80159 0.0
C166 C 0.38466 0.84424 0.81996 0.0
H167 H 0.47045 0.9238 0.76423 0.0
O168 O 0.3356 0.01591 0.7413 0.0
O169 O 0.34308 0.98038 0.80772 0.0
O170 O 0.42567 0.06509 0.79481 0.0
O171 O 0.45681 0.9886 0.82514 0.0
C172 C 0.36864 0.74795 0.81769 0.0
C173 C 0.32997 0.75378 0.85203 0.0
H174 H 0.26137 0.78017 0.92058 0.0
H175 H 0.25121 0.87221 0.95277 0.0
H176 H 0.49422 0.83601 0.72947 0.0
H177 H 0.45094 0.75214 0.75617 0.0
H178 H 0.3771 0.70812 0.80428 0.0
H179 H 0.30901 0.71839 0.86428 0.0
Mn180 Mn 0.08008 0.32693 0.31079 0.0
Mn181 Mn 0.19163 0.38169 0.35933 0.0
C182 C 0.16572 0.31603 0.27872 0.0
C183 C 0.01849 0.25707 0.29448 0.0
C184 C 0.10194 0.44882 0.31785 0.0
O185 O 0.05739 0.33413 0.37583 0.0
O186 O 0.13649 0.3653 0.40517 0.0
C187 C 0.23496 0.29659 0.41896 0.0
N188 N 0.24113 0.3293 0.38277 0.0
C189 C 0.33648 0.30907 0.37919 0.0
C190 C 0.33062 0.27356 0.41533 0.0
C191 C 0.27958 0.26719 0.43522 0.0
C192 C 0.29016 0.33585 0.36347 0.0
H193 H 0.19647 0.29344 0.43556 0.0
C194 C 0.0876 0.34847 0.40854 0.0
O195 O 1.00573 0.30756 0.28997 0.0
O196 O 0.06623 0.24653 0.31069 0.0
N197 N 0.24697 0.39801 0.3172 0.0
C198 C 0.24603 0.43584 0.28417 0.0
C199 C 0.29449 0.45026 0.26313 0.0
C200 C 0.34329 0.42597 0.27657 0.0
C201 C 0.34293 0.38537 0.30929 0.0
C202 C 0.29329 0.37253 0.32893 0.0
H203 H 0.20888 0.45613 0.27492 0.0
O204 O 0.12206 0.31645 0.25433 0.0
O205 O 0.15815 0.32762 0.32032 0.0
O206 O 0.07368 0.4096 0.3034 0.0
O207 O 0.14676 0.44204 0.33784 0.0
C208 C 0.39007 0.35889 0.32457 0.0
C209 C 0.38675 0.32022 0.35906 0.0
H210 H 0.3652 0.2517 0.42855 0.0
H211 H 0.27489 0.24064 0.46365 0.0
H212 H 0.29452 0.48125 0.23762 0.0
H213 H 0.38079 0.43989 0.26216 0.0
H214 H 0.42924 0.36849 0.31053 0.0
H215 H 0.42332 0.30032 0.37063 0.0
Mn216 Mn 0.80811 0.08813 0.81301 0.0
Mn217 Mn 0.7559 0.1977 0.86698 0.0
C218 C 0.81825 0.17571 0.78488 0.0
C219 C 0.8764 0.02738 0.7882 0.0
C220 C 0.68613 0.11541 0.82026 0.0
O221 O 0.80497 0.06127 0.87778 0.0
O222 O 0.76826 0.13707 0.90869 0.0
C223 C 0.84353 0.22669 0.93009 0.0
N224 N 0.81053 0.24015 0.89529 0.0
C225 C 0.83668 0.33363 0.90009 0.0
C226 C 0.87179 0.32053 0.93533 0.0
C227 C 0.87542 0.26677 0.95023 0.0
C228 C 0.80705 0.29172 0.8805 0.0
H229 H 0.84534 0.18579 0.94255 0.0
C230 C 0.78804 0.08914 0.91127 0.0
O231 O 0.82545 0.01542 0.7869 0.0
O232 O 0.88847 0.07284 0.80758 0.0
N233 N 0.74396 0.25901 0.82962 0.0
C234 C 0.70732 0.2649 0.79593 0.0
C235 C 0.69686 0.31657 0.7787 0.0
C236 C 0.72402 0.36147 0.79642 0.0
C237 C 0.76321 0.35414 0.82976 0.0
C238 C 0.77171 0.30169 0.8458 0.0
H239 H 0.68507 0.23068 0.78323 0.0
O240 O 0.8157 0.13412 0.75834 0.0
O241 O 0.80895 0.16543 0.82635 0.0
O242 O 0.72464 0.08419 0.80827 0.0
O243 O 0.69413 0.15998 0.8401 0.0
C244 C 0.79268 0.39699 0.84887 0.0
C245 C 0.82966 0.38669 0.88382 0.0
H246 H 0.8959 0.35147 0.95136 0.0
H247 H 0.90207 0.25641 0.97766 0.0
H248 H 0.66683 0.322 0.75272 0.0
H249 H 0.71345 0.40146 0.78483 0.0
H250 H 0.78689 0.43807 0.83722 0.0
H251 H 0.85207 0.41995 0.89827 0.0
Mn252 Mn 0.04983 0.78858 0.29032 0.0
Mn253 Mn 0.93925 0.75218 0.35018 0.0
C254 C 0.96291 0.79436 0.25737 0.0
C255 C 0.11184 0.85451 0.26536 0.0
C256 C 0.02143 0.67132 0.31409 0.0
O257 O 0.07745 0.79373 0.35456 0.0
O258 O 0.99889 0.77462 0.38921 0.0
C259 C 0.91375 0.86094 0.38607 0.0
N260 N 0.8976 0.81459 0.36559 0.0
C261 C 0.80419 0.84182 0.36867 0.0
C262 C 0.81964 0.88991 0.38993 0.0
C263 C 0.87477 0.89981 0.39817 0.0
C264 C 0.8451 0.80583 0.35564 0.0
H265 H 0.95596 0.86791 0.39328 0.0
C266 C 0.04845 0.78855 0.38954 0.0
O267 O 0.12389 0.80337 0.26534 0.0
O268 O 0.06467 0.86749 0.28106 0.0
N269 N 0.87589 0.72801 0.31969 0.0
C270 C 0.86768 0.67874 0.30032 0.0
C271 C 0.81467 0.66165 0.29101 0.0
C272 C 0.77044 0.69424 0.3034 0.0
C273 C 0.77963 0.74367 0.325 0.0
C274 C 0.83338 0.75903 0.33268 0.0
H275 H 0.90128 0.65241 0.29227 0.0
O276 O 1.00614 0.7869 0.23353 0.0
O277 O 0.97151 0.79285 0.30012 0.0
O278 O 0.05166 0.70551 0.29432 0.0
O279 O 0.9785 0.68478 0.33505 0.0
C280 C 0.73753 0.77819 0.33948 0.0
C281 C 0.74984 0.82774 0.36051 0.0
H282 H 0.78955 0.91939 0.40022 0.0
H283 H 0.88708 0.93682 0.41452 0.0
H284 H 0.8079 0.62303 0.27498 0.0
H285 H 0.72961 0.68073 0.29648 0.0
H286 H 0.69559 0.7675 0.33381 0.0
H287 H 0.71721 0.85446 0.37065 0.0
C288 C 0.30328 0.06783 0.01179 0.0
C289 C 0.35321 0.06649 0.03531 0.0
C290 C 0.40235 0.07751 0.96604 0.0
C291 C 0.35414 0.07081 0.94177 0.0
N292 N 0.25799 0.05409 0.94075 0.0
N293 N 0.4493 0.05201 0.03324 0.0
C294 C 0.30409 0.06454 0.96437 0.0
C295 C 0.40254 0.06563 0.01184 0.0
N296 N 0.25568 0.0739 0.03443 0.0
N297 N 0.44755 0.09641 0.94539 0.0
H298 H 0.44911 0.03919 0.06647 0.0
H299 H 0.48612 0.04743 0.01658 0.0
H300 H 0.44677 0.10842 0.91195 0.0
H301 H 0.48307 0.10545 0.96269 0.0
H302 H 0.21874 0.08112 0.01862 0.0
H303 H 0.25368 0.07466 0.0692 0.0
H304 H 0.22161 0.04315 0.95575 0.0
H305 H 0.25708 0.05368 0.90591 0.0
C306 C 0.07239 0.31062 0.52961 0.0
C307 C 0.05949 0.36281 0.54677 0.0
C308 C 0.04408 0.39582 0.47092 0.0
C309 C 0.06602 0.34744 0.45401 0.0
N310 N 0.10166 0.25785 0.46562 0.0
N311 N 0.04095 0.45761 0.53301 0.0
C312 C 0.08042 0.30445 0.48293 0.0
C313 C 0.04771 0.40619 0.51711 0.0
N314 N 0.07364 0.26655 0.55716 0.0
N315 N 0.01863 0.43121 0.44283 0.0
H316 H 0.04384 0.46719 0.5668 0.0
H317 H 0.03758 0.49131 0.51228 0.0
H318 H 0.0143 0.42338 0.40876 0.0
H319 H 0.9975 0.46521 0.45396 0.0
H320 H 0.07724 0.22699 0.54557 0.0
H321 H 0.06648 0.2687 0.59136 0.0
H322 H 0.11928 0.22764 0.48511 0.0
H323 H 0.10396 0.25084 0.43129 0.0
C324 C 0.84409 0.06842 0.9794 0.0
C325 C 0.79301 0.06863 0.9574 0.0
C326 C 0.74755 0.07717 0.02911 0.0
C327 C 0.797 0.06896 0.05154 0.0
N328 N 0.89308 0.05322 0.04882 0.0
N329 N 0.69693 0.05641 0.96253 0.0
C330 C 0.84572 0.06362 0.02687 0.0
C331 C 0.74495 0.06787 0.98277 0.0
N332 N 0.89055 0.0747 0.95532 0.0
N333 N 0.70311 0.09403 0.05225 0.0
H334 H 0.69535 0.04499 0.92898 0.0
H335 H 0.66082 0.05185 0.98013 0.0
H336 H 0.70474 0.10208 0.08647 0.0
H337 H 0.66698 0.10507 0.03656 0.0
H338 H 0.9283 0.08083 0.96997 0.0
H339 H 0.89085 0.07666 0.92055 0.0
H340 H 0.92895 0.04279 0.03262 0.0
H341 H 0.89549 0.05298 0.08363 0.0
C342 C 0.0801 0.74466 0.45764 0.0
C343 C 0.07197 0.79351 0.4344 0.0
C344 C 0.07128 0.84266 0.50553 0.0
C345 C 0.0714 0.79231 0.52843 0.0
N346 N 0.0611 0.69584 0.52548 0.0
N347 N 0.05665 0.88961 0.43519 0.0
C348 C 0.07129 0.74339 0.5041 0.0
C349 C 0.06677 0.84291 0.45808 0.0
N350 N 0.09644 0.69954 0.4351 0.0
N351 N 0.07745 0.88978 0.52877 0.0
H352 H 0.05664 0.89104 0.40035 0.0
H353 H 0.04619 0.92593 0.45064 0.0
H354 H 0.0793 0.89112 0.56353 0.0
H355 H 0.08369 0.92705 0.51347 0.0
H356 H 0.10727 0.66366 0.45114 0.0
H357 H 0.10415 0.70022 0.40082 0.0
H358 H 0.05701 0.65907 0.50878 0.0
H359 H 0.05035 0.69495 0.55918 0.0
C360 C 0.5433 0.07649 0.13444 0.0
C361 C 0.51252 0.07897 0.17464 0.0
C362 C 0.59063 0.03984 0.21517 0.0
C363 C 0.61886 0.03332 0.17404 0.0
N364 N 0.61335 0.03099 0.09321 0.0
N365 N 0.50597 0.06047 0.25345 0.0
C366 C 0.59258 0.04702 0.13342 0.0
C367 C 0.53587 0.05952 0.21507 0.0
N368 N 0.52709 0.10345 0.09683 0.0
N369 N 0.61616 0.02699 0.2543 0.0
H370 H 0.46798 0.07886 0.25553 0.0
H371 H 0.51767 0.04135 0.28288 0.0
H372 H 0.65394 1.00799 0.25541 0.0
H373 H 0.60101 0.03667 0.28571 0.0
H374 H 0.55269 0.10947 0.06963 0.0
H375 H 0.49006 0.1229 0.0929 0.0
H376 H 0.59135 0.03354 0.06353 0.0
H377 H 0.65016 0.01116 0.08911 0.0
C378 C 0.09465 0.53732 0.65173 0.0
C379 C 0.06332 0.52253 0.68913 0.0
C380 C 0.0714 0.61536 0.71795 0.0
C381 C 0.09378 0.63213 0.67632 0.0
N382 N 0.11675 0.60782 0.5999 0.0
N383 N 0.02226 0.54634 0.75912 0.0
C384 C 0.10302 0.59272 0.6423 0.0
C385 C 0.05162 0.56133 0.72264 0.0
N386 N 0.11733 0.49829 0.62533 0.0
N387 N 0.07189 0.64974 0.75368 0.0
H388 H 0.01246 0.50607 0.76546 0.0
H389 H 1.00635 0.57383 0.78202 0.0
H390 H 0.08885 0.68822 0.75245 0.0
H391 H 0.06056 0.63824 0.78576 0.0
H392 H 0.1451 0.50683 0.60014 0.0
H393 H 0.11292 0.45712 0.6317 0.0
H394 H 0.11761 0.58079 0.57318 0.0
H395 H 0.12147 0.64773 0.58988 0.0
C396 C 0.59781 0.08762 0.85477 0.0
C397 C 0.62879 0.09687 0.81563 0.0
C398 C 0.54946 0.07084 0.77004 0.0
C399 C 0.52116 0.05601 0.80953 0.0
N400 N 0.52632 0.03764 0.88924 0.0
N401 N 0.63538 0.09506 0.73541 0.0
C402 C 0.54766 0.0605 0.85164 0.0
C403 C 0.60498 0.08764 0.77299 0.0
N404 N 0.61495 0.10583 0.8955 0.0
N405 N 0.52349 0.0684 0.7298 0.0
H406 H 0.67459 0.11055 0.73631 0.0
H407 H 0.62295 0.08366 0.70358 0.0
H408 H 0.48445 0.05307 0.7262 0.0
H409 H 0.53936 0.08385 0.7003 0.0
H410 H 0.58984 0.10678 0.92348 0.0
H411 H 0.65212 0.12397 0.90135 0.0
H412 H 0.54868 0.03245 0.91851 0.0
H413 H 0.48795 0.02089 0.89139 0.0
C414 C 0.06704 0.53009 0.27438 0.0
C415 C 0.07959 0.50515 0.31594 0.0
C416 C 0.04616 0.58585 0.35578 0.0
C417 C 0.03818 0.61299 0.31438 0.0
N418 N 0.03907 0.61106 0.23391 0.0
N419 N 0.08885 0.51319 0.39631 0.0
C420 C 0.04813 0.58503 0.27354 0.0
C421 C 0.0713 0.53411 0.35651 0.0
N422 N 0.07365 0.50131 0.23574 0.0
N423 N 0.02872 0.6085 0.39494 0.0
H424 H 0.10269 0.47378 0.40057 0.0
H425 H 0.0926 0.53619 0.4253 0.0
H426 H 0.01422 0.64778 0.39816 0.0
H427 H 0.02521 0.58674 0.42458 0.0
H428 H 0.06018 0.51413 0.20459 0.0
H429 H 0.09138 0.46297 0.2348 0.0
H430 H 0.05119 0.59635 0.20296 0.0
H431 H 0.01998 0.64868 0.23183 0.0
C432 C 0.22488 0.28158 0.21708 0.0
C433 C 0.21391 0.28413 0.26332 0.0
C434 C 0.28746 0.21869 0.27492 0.0
C435 C 0.28966 0.20756 0.22867 0.0
N436 N 0.2361 0.21441 0.16039 0.0
N437 N 0.22083 0.23121 0.33186 0.0
C438 C 0.25231 0.23546 0.20029 0.0
C439 C 0.24171 0.24679 0.29178 0.0
N440 N 0.20577 0.32045 0.18882 0.0
N441 N 0.32641 0.19949 0.30311 0.0
H442 H 0.18251 0.2424 0.343 0.0
H443 H 0.23881 0.20088 0.35112 0.0
H444 H 0.36172 0.18088 0.29152 0.0
H445 H 0.32553 0.20706 0.33732 0.0
H446 H 0.21257 0.31905 0.15453 0.0
H447 H 0.18781 0.3561 0.20038 0.0
H448 H 0.20579 0.23253 0.14117 0.0
H449 H 0.24659 0.17581 0.14951 0.0
C450 C 0.91375 0.29751 0.78555 0.0
C451 C 0.92313 0.30377 0.73933 0.0
C452 C 0.84981 0.23962 0.72566 0.0
C453 C 0.84938 0.22459 0.77112 0.0
N454 N 0.90528 0.22563 0.83837 0.0
N455 N 0.91538 0.25505 0.6687 0.0
C456 C 0.88743 0.25003 0.80023 0.0
C457 C 0.89497 0.26859 0.70949 0.0
N458 N 0.93373 0.33389 0.81547 0.0
N459 N 0.81011 0.22289 0.69727 0.0
H460 H 0.95364 0.26632 0.65771 0.0
H461 H 0.89707 0.22602 0.64845 0.0
H462 H 0.77511 0.20372 0.70853 0.0
H463 H 0.81017 0.23293 0.6635 0.0
H464 H 0.92871 0.32945 0.84978 0.0
H465 H 0.95082 0.3705 0.80553 0.0
H466 H 0.93602 0.24216 0.85794 0.0
H467 H 0.89567 0.18612 0.84714 0.0
C468 C 0.86619 0.819 0.23983 0.0
C469 C 0.92131 0.83326 0.24046 0.0
C470 C 0.89649 0.92838 0.24555 0.0
C471 C 0.84097 0.91496 0.24291 0.0
N472 N 0.77323 0.8481 0.25301 0.0
N473 N 0.98537 0.90301 0.22112 0.0
C474 C 0.82575 0.86017 0.24418 0.0
C475 C 0.93565 0.88835 0.23658 0.0
N476 N 0.85312 0.76665 0.23155 0.0
N477 N 0.91247 0.97806 0.26013 0.0
H478 H 0.01278 0.87525 0.20789 0.0
H479 H 0.99573 0.94319 0.215 0.0
H480 H 0.88556 1.00593 0.27386 0.0
H481 H 0.95304 0.98787 0.26528 0.0
H482 H 0.81366 0.75259 0.23003 0.0
H483 H 0.88282 0.73799 0.22362 0.0
H484 H 0.75853 0.80895 0.25484 0.0
H485 H 0.74512 0.87828 0.261 0.0
C486 C 0.24798 0.88921 0.68892 0.0
C487 C 0.22061 0.85253 0.71794 0.0
C488 C 0.26199 0.89985 0.77993 0.0
C489 C 0.29943 0.92611 0.75082 0.0
N490 N 0.33346 0.93336 0.67551 0.0
N491 N 0.21438 0.81628 0.79258 0.0
C492 C 0.29522 0.91529 0.70463 0.0
C493 C 0.23328 0.85452 0.76386 0.0
N494 N 0.22561 0.90613 0.64967 0.0
N495 N 0.24625 0.92226 0.81947 0.0
H496 H 0.19555 0.78101 0.7815 0.0
H497 H 0.2222 0.81777 0.82673 0.0
H498 H 0.25693 0.96101 0.82959 0.0
H499 H 0.21584 0.90517 0.83903 0.0
H500 H 0.24352 0.936 0.63008 0.0
H501 H 0.18638 0.89673 0.63978 0.0
H502 H 0.33047 0.92718 0.64121 0.0
H503 H 0.37007 0.94983 0.68625 0.0
C504 C 0.96557 0.97502 0.78412 0.0
C505 C 0.91742 0.99387 0.76312 0.0
C506 C 0.9412 0.94133 0.69559 0.0
C507 C 0.99044 0.92457 0.71576 0.0
N508 N 0.05465 0.93397 0.77598 0.0
N509 N 0.86774 1.00664 0.69435 0.0
C510 C 1.00432 0.94439 0.75893 0.0
C511 C 0.90755 0.98022 0.71756 0.0
N512 N 0.97301 0.98372 0.82877 0.0
N513 N 0.92619 0.91974 0.65546 0.0
H514 H 0.84407 0.03735 0.70819 0.0
H515 H 0.86211 1.00245 0.66006 0.0
H516 H 0.95103 0.89356 0.63726 0.0
H517 H 0.88781 0.92506 0.64164 0.0
H518 H 1.0041 0.96596 0.84721 0.0
H519 H 0.94537 1.00503 0.84841 0.0
H520 H 0.06941 0.95189 0.80498 0.0
H521 H 0.0836 0.91102 0.75911 0.0
C522 C 0.19675 0.98337 0.25327 0.0
C523 C 0.22102 0.97502 0.21079 0.0
C524 C 0.16845 0.8913 0.20191 0.0
C525 C 0.14924 0.89625 0.24652 0.0
N526 N 0.15148 0.94333 0.31703 0.0
N527 N 0.23421 0.91864 0.14611 0.0
C528 C 0.16472 0.9416 0.27273 0.0
C529 C 0.20816 0.92817 0.1856 0.0
N530 N 0.20438 0.03127 0.27517 0.0
N531 N 0.1467 0.8531 0.17426 0.0
H532 H 0.26113 0.94611 0.1319 0.0
H533 H 0.23171 0.88218 0.12883 0.0
H534 H 0.11639 0.82655 0.18431 0.0
H535 H 0.15475 0.85108 0.14018 0.0
H536 H 0.18303 0.04234 0.30373 0.0
H537 H 0.22886 0.06207 0.26284 0.0
H538 H 0.16646 0.97214 0.33913 0.0
H539 H 0.12952 0.913 0.3329 0.0
C540 C 0.17137 0.18728 0.69833 0.0
C541 C 0.15146 0.23017 0.72538 0.0
C542 C 0.20836 0.19812 0.7879 0.0
C543 C 0.22695 0.15434 0.7614 0.0
N544 N 0.21888 0.10098 0.69439 0.0
N545 N 0.14013 0.26755 0.79927 0.0
C546 C 0.20591 0.14686 0.71758 0.0
C547 C 0.16693 0.23305 0.77115 0.0
N548 N 0.15959 0.18666 0.65374 0.0
N549 N 0.23086 0.20687 0.82899 0.0
H550 H 0.10821 0.29226 0.78887 0.0
H551 H 0.14555 0.26771 0.83375 0.0
H552 H 0.25925 0.1807 0.84329 0.0
H553 H 0.22405 0.24179 0.84765 0.0
H554 H 0.17759 0.16019 0.6311 0.0
H555 H 0.13465 0.21544 0.63862 0.0
H556 H 0.20062 0.09016 0.66436 0.0
H557 H 0.24493 0.07132 0.70692 0.0
C558 C 0.98966 0.1913 0.23483 0.0
C559 C 0.98127 0.21402 0.27788 0.0
C560 C 0.89793 0.16062 0.28556 0.0
C561 C 0.90271 0.14322 0.24041 0.0
N562 N 0.94962 0.14819 0.16995 0.0
N563 N 0.92495 0.22463 0.34288 0.0
C564 C 0.94794 0.15983 0.21457 0.0
C565 C 0.9346 0.19996 0.30281 0.0
N566 N 0.03759 0.19982 0.21321 0.0
N567 N 0.86011 0.1375 0.31275 0.0
H568 H 0.95224 0.25135 0.35763 0.0
H569 H 0.88852 0.22122 0.36012 0.0
H570 H 0.8338 0.10729 0.30202 0.0
H571 H 0.8583 0.14427 0.34703 0.0
H572 H 0.04866 0.17969 0.18404 0.0
H573 H 0.06847 0.22362 0.22639 0.0
H574 H 0.97834 0.16408 0.14824 0.0
H575 H 0.91932 0.12665 0.15355 0.0
loop_
_geom_bond_atom_site_label_1
_geom_bond_atom_site_label_2
_geom_bond_distance
_geom_bond_site_symmetry_2
_ccdc_geom_bond_type
Mn0 O5 2.095 . S
Mn0 O15 2.162 1_545 S
Mn0 O16 2.297 . S
Mn0 O24 2.385 . S
Mn0 O25 2.209 . S
Mn0 O26 2.094 . S
Mn1 O6 2.121 . S
Mn1 N8 2.257 . S
Mn1 N17 2.282 . S
Mn1 O25 2.215 . S
Mn1 O27 2.117 . S
C2 O24 1.234 . S
C2 O25 1.283 . S
C3 O15 1.281 . S
C3 O16 1.236 1_565 S
C4 O26 1.240 . S
C4 O27 1.264 . S
O5 Mn0 2.095 . S
O5 C14 1.250 . S
O6 Mn1 2.121 . S
O6 C14 1.258 . S
C7 N8 1.326 . S
C7 C11 1.460 . S
C7 H13 0.929 . S
N8 Mn1 2.257 . S
N8 C7 1.326 . S
N8 C12 1.362 . S
C9 C10 1.258 . S
C9 C12 1.431 . S
C9 C29 1.449 . S
C10 C9 1.258 . S
C10 C11 1.477 . S
C10 H30 0.931 . S
C11 C7 1.460 . S
C11 C10 1.477 . S
C11 H31 0.930 . S
C12 N8 1.362 . S
C12 C9 1.431 . S
C12 C22 1.476 . S
H13 C7 0.929 . S
C14 O5 1.250 . S
C14 O6 1.258 . S
O15 Mn0 2.162 1_565 S
O15 C3 1.281 . S
O16 Mn0 2.297 . S
O16 C3 1.236 1_545 S
N17 Mn1 2.282 . S
N17 C18 1.328 . S
N17 C22 1.318 . S
C18 N17 1.328 . S
C18 C19 1.457 . S
C18 H23 0.929 . S
C19 C18 1.457 . S
C19 C20 1.291 . S
C19 H32 0.931 . S
C20 C19 1.291 . S
C20 C21 1.373 . S
C20 H33 0.929 . S
C21 C20 1.373 . S
C21 C22 1.396 . S
C21 C28 1.403 . S
C22 C12 1.476 . S
C22 N17 1.318 . S
C22 C21 1.396 . S
H23 C18 0.929 . S
O24 Mn0 2.385 . S
O24 C2 1.234 . S
O25 Mn0 2.209 . S
O25 Mn1 2.215 . S
O25 C2 1.283 . S
O26 Mn0 2.094 . S
O26 C4 1.240 . S
O27 Mn1 2.117 . S
O27 C4 1.264 . S
C28 C21 1.403 . S
C28 C29 1.399 . S
C28 H34 0.929 . S
C29 C9 1.449 . S
C29 C28 1.399 . S
C29 H35 0.930 . S
H30 C10 0.931 . S
H31 C11 0.930 . S
H32 C19 0.931 . S
H33 C20 0.929 . S
H34 C28 0.929 . S
H35 C29 0.930 . S
Mn36 O41 2.095 . S
Mn36 O51 2.162 . S
Mn36 O52 2.297 . S
Mn36 O60 2.385 . S
Mn36 O61 2.209 1_455 S
Mn36 O62 2.094 . S
Mn37 O42 2.121 . S
Mn37 N44 2.257 . S
Mn37 N53 2.282 . S
Mn37 O61 2.215 . S
Mn37 O63 2.117 . S
C38 O60 1.234 1_655 S
C38 O61 1.283 . S
C39 O51 1.281 . S
C39 O52 1.236 . S
C40 O62 1.240 . S
C40 O63 1.264 1_455 S
O41 Mn36 2.095 . S
O41 C50 1.250 . S
O42 Mn37 2.121 . S
O42 C50 1.258 1_655 S
C43 N44 1.326 . S
C43 C47 1.460 . S
C43 H49 0.929 . S
N44 Mn37 2.257 . S
N44 C43 1.326 . S
N44 C48 1.362 . S
C45 C46 1.258 . S
C45 C48 1.431 . S
C45 C65 1.449 . S
C46 C45 1.258 . S
C46 C47 1.477 . S
C46 H66 0.931 . S
C47 C43 1.460 . S
C47 C46 1.477 . S
C47 H67 0.930 . S
C48 N44 1.362 . S
C48 C45 1.431 . S
C48 C58 1.476 . S
H49 C43 0.929 . S
C50 O41 1.250 . S
C50 O42 1.258 1_455 S
O51 Mn36 2.162 . S
O51 C39 1.281 . S
O52 Mn36 2.297 . S
O52 C39 1.236 . S
N53 Mn37 2.282 . S
N53 C54 1.328 . S
N53 C58 1.318 . S
C54 N53 1.328 . S
C54 C55 1.457 . S
C54 H59 0.929 . S
C55 C54 1.457 . S
C55 C56 1.291 . S
C55 H68 0.931 . S
C56 C55 1.291 . S
C56 C57 1.373 . S
C56 H69 0.929 . S
C57 C56 1.373 . S
C57 C58 1.396 . S
C57 C64 1.403 . S
C58 C48 1.476 . S
C58 N53 1.318 . S
C58 C57 1.396 . S
H59 C54 0.929 . S
O60 Mn36 2.385 . S
O60 C38 1.234 1_455 S
O61 Mn36 2.209 1_655 S
O61 Mn37 2.215 . S
O61 C38 1.283 . S
O62 Mn36 2.094 . S
O62 C40 1.240 . S
O63 Mn37 2.117 . S
O63 C40 1.264 1_655 S
C64 C57 1.403 . S
C64 C65 1.399 . S
C64 H70 0.929 . S
C65 C45 1.449 . S
C65 C64 1.399 . S
C65 H71 0.930 . S
H66 C46 0.931 . S
H67 C47 0.930 . S
H68 C55 0.931 . S
H69 C56 0.929 . S
H70 C64 0.929 . S
H71 C65 0.930 . S
Mn72 O77 2.095 . S
Mn72 O87 2.162 . S
Mn72 O88 2.297 . S
Mn72 O96 2.385 . S
Mn72 O97 2.209 1_545 S
Mn72 O98 2.094 . S
Mn73 O78 2.121 . S
Mn73 N80 2.257 . S
Mn73 N89 2.282 . S
Mn73 O97 2.215 . S
Mn73 O99 2.117 . S
C74 O96 1.234 1_565 S
C74 O97 1.283 . S
C75 O87 1.281 . S
C75 O88 1.236 . S
C76 O98 1.240 . S
C76 O99 1.264 1_545 S
O77 Mn72 2.095 . S
O77 C86 1.250 . S
O78 Mn73 2.121 . S
O78 C86 1.258 1_565 S
C79 N80 1.326 . S
C79 C83 1.460 . S
C79 H85 0.929 . S
N80 Mn73 2.257 . S
N80 C79 1.326 . S
N80 C84 1.362 . S
C81 C82 1.258 . S
C81 C84 1.431 . S
C81 C101 1.449 . S
C82 C81 1.258 . S
C82 C83 1.477 . S
C82 H102 0.931 . S
C83 C79 1.460 . S
C83 C82 1.477 . S
C83 H103 0.930 . S
C84 N80 1.362 . S
C84 C81 1.431 . S
C84 C94 1.476 . S
H85 C79 0.929 . S
C86 O77 1.250 . S
C86 O78 1.258 1_545 S
O87 Mn72 2.162 . S
O87 C75 1.281 . S
O88 Mn72 2.297 . S
O88 C75 1.236 . S
N89 Mn73 2.282 . S
N89 C90 1.328 . S
N89 C94 1.318 . S
C90 N89 1.328 . S
C90 C91 1.457 . S
C90 H95 0.929 . S
C91 C90 1.457 . S
C91 C92 1.291 . S
C91 H104 0.931 . S
C92 C91 1.291 . S
C92 C93 1.373 . S
C92 H105 0.929 . S
C93 C92 1.373 . S
C93 C94 1.396 . S
C93 C100 1.403 . S
C94 C84 1.476 . S
C94 N89 1.318 . S
C94 C93 1.396 . S
H95 C90 0.929 . S
O96 Mn72 2.385 . S
O96 C74 1.234 1_545 S
O97 Mn72 2.209 1_565 S
O97 Mn73 2.215 . S
O97 C74 1.283 . S
O98 Mn72 2.094 . S
O98 C76 1.240 . S
O99 Mn73 2.117 . S
O99 C76 1.264 1_565 S
C100 C93 1.403 . S
C100 C101 1.399 . S
C100 H106 0.929 . S
C101 C81 1.449 . S
C101 C100 1.399 . S
C101 H107 0.930 . S
H102 C82 0.931 . S
H103 C83 0.930 . S
H104 C91 0.931 . S
H105 C92 0.929 . S
H106 C100 0.929 . S
H107 C101 0.930 . S
Mn108 O113 2.095 . S
Mn108 O123 2.162 1_455 S
Mn108 O124 2.297 . S
Mn108 O132 2.385 . S
Mn108 O133 2.209 . S
Mn108 O134 2.094 . S
Mn109 O114 2.121 . S
Mn109 N116 2.257 . S
Mn109 N125 2.282 . S
Mn109 O133 2.215 . S
Mn109 O135 2.117 . S
C110 O132 1.234 . S
C110 O133 1.283 . S
C111 O123 1.281 . S
C111 O124 1.236 1_655 S
C112 O134 1.240 . S
C112 O135 1.264 . S
O113 Mn108 2.095 . S
O113 C122 1.250 . S
O114 Mn109 2.121 . S
O114 C122 1.258 . S
C115 N116 1.326 . S
C115 C119 1.460 . S
C115 H121 0.929 . S
N116 Mn109 2.257 . S
N116 C115 1.326 . S
N116 C120 1.362 . S
C117 C118 1.258 . S
C117 C120 1.431 . S
C117 C137 1.449 . S
C118 C117 1.258 . S
C118 C119 1.477 . S
C118 H138 0.931 . S
C119 C115 1.460 . S
C119 C118 1.477 . S
C119 H139 0.930 . S
C120 N116 1.362 . S
C120 C117 1.431 . S
C120 C130 1.476 . S
H121 C115 0.929 . S
C122 O113 1.250 . S
C122 O114 1.258 . S
O123 Mn108 2.162 1_655 S
O123 C111 1.281 . S
O124 Mn108 2.297 . S
O124 C111 1.236 1_455 S
N125 Mn109 2.282 . S
N125 C126 1.328 . S
N125 C130 1.318 . S
C126 N125 1.328 . S
C126 C127 1.457 . S
C126 H131 0.929 . S
C127 C126 1.457 . S
C127 C128 1.291 . S
C127 H140 0.931 . S
C128 C127 1.291 . S
C128 C129 1.373 . S
C128 H141 0.929 . S
C129 C128 1.373 . S
C129 C130 1.396 . S
C129 C136 1.403 . S
C130 C120 1.476 . S
C130 N125 1.318 . S
C130 C129 1.396 . S
H131 C126 0.929 . S
O132 Mn108 2.385 . S
O132 C110 1.234 . S
O133 Mn108 2.209 . S
O133 Mn109 2.215 . S
O133 C110 1.283 . S
O134 Mn108 2.094 . S
O134 C112 1.240 . S
O135 Mn109 2.117 . S
O135 C112 1.264 . S
C136 C129 1.403 . S
C136 C137 1.399 . S
C136 H142 0.929 . S
C137 C117 1.449 . S
C137 C136 1.399 . S
C137 H143 0.930 . S
H138 C118 0.931 . S
H139 C119 0.930 . S
H140 C127 0.931 . S
H141 C128 0.929 . S
H142 C136 0.929 . S
H143 C137 0.930 . S
Mn144 O149 2.095 . S
Mn144 O159 2.162 . S
Mn144 O160 2.297 . S
Mn144 O168 2.385 . S
Mn144 O169 2.209 1_545 S
Mn144 O170 2.094 . S
Mn145 O150 2.121 . S
Mn145 N152 2.257 . S
Mn145 N161 2.282 . S
Mn145 O169 2.215 . S
Mn145 O171 2.117 . S
C146 O168 1.234 1_565 S
C146 O169 1.283 . S
C147 O159 1.281 . S
C147 O160 1.236 . S
C148 O170 1.240 . S
C148 O171 1.264 1_545 S
O149 Mn144 2.095 . S
O149 C158 1.250 . S
O150 Mn145 2.121 . S
O150 C158 1.258 1_565 S
C151 N152 1.326 . S
C151 C155 1.460 . S
C151 H157 0.929 . S
N152 Mn145 2.257 . S
N152 C151 1.326 . S
N152 C156 1.362 . S
C153 C154 1.258 . S
C153 C156 1.431 . S
C153 C173 1.449 . S
C154 C153 1.258 . S
C154 C155 1.477 . S
C154 H174 0.931 . S
C155 C151 1.460 . S
C155 C154 1.477 . S
C155 H175 0.930 . S
C156 N152 1.362 . S
C156 C153 1.431 . S
C156 C166 1.476 . S
H157 C151 0.929 . S
C158 O149 1.250 . S
C158 O150 1.258 1_545 S
O159 Mn144 2.162 . S
O159 C147 1.281 . S
O160 Mn144 2.297 . S
O160 C147 1.236 . S
N161 Mn145 2.282 . S
N161 C162 1.328 . S
N161 C166 1.318 . S
C162 N161 1.328 . S
C162 C163 1.457 . S
C162 H167 0.929 . S
C163 C162 1.457 . S
C163 C164 1.291 . S
C163 H176 0.931 . S
C164 C163 1.291 . S
C164 C165 1.373 . S
C164 H177 0.929 . S
C165 C164 1.373 . S
C165 C166 1.396 . S
C165 C172 1.403 . S
C166 C156 1.476 . S
C166 N161 1.318 . S
C166 C165 1.396 . S
H167 C162 0.929 . S
O168 Mn144 2.385 . S
O168 C146 1.234 1_545 S
O169 Mn144 2.209 1_565 S
O169 Mn145 2.215 . S
O169 C146 1.283 . S
O170 Mn144 2.094 . S
O170 C148 1.240 . S
O171 Mn145 2.117 . S
O171 C148 1.264 1_565 S
C172 C165 1.403 . S
C172 C173 1.399 . S
C172 H178 0.929 . S
C173 C153 1.449 . S
C173 C172 1.399 . S
C173 H179 0.930 . S
H174 C154 0.931 . S
H175 C155 0.930 . S
H176 C163 0.931 . S
H177 C164 0.929 . S
H178 C172 0.929 . S
H179 C173 0.930 . S
Mn180 O185 2.095 . S
Mn180 O195 2.162 1_455 S
Mn180 O196 2.297 . S
Mn180 O204 2.385 . S
Mn180 O205 2.209 . S
Mn180 O206 2.094 . S
Mn181 O186 2.121 . S
Mn181 N188 2.257 . S
Mn181 N197 2.282 . S
Mn181 O205 2.215 . S
Mn181 O207 2.117 . S
C182 O204 1.234 . S
C182 O205 1.283 . S
C183 O195 1.281 . S
C183 O196 1.236 1_655 S
C184 O206 1.240 . S
C184 O207 1.264 . S
O185 Mn180 2.095 . S
O185 C194 1.250 . S
O186 Mn181 2.121 . S
O186 C194 1.258 . S
C187 N188 1.326 . S
C187 C191 1.460 . S
C187 H193 0.929 . S
N188 Mn181 2.257 . S
N188 C187 1.326 . S
N188 C192 1.362 . S
C189 C190 1.258 . S
C189 C192 1.431 . S
C189 C209 1.449 . S
C190 C189 1.258 . S
C190 C191 1.477 . S
C190 H210 0.931 . S
C191 C187 1.460 . S
C191 C190 1.477 . S
C191 H211 0.930 . S
C192 N188 1.362 . S
C192 C189 1.431 . S
C192 C202 1.476 . S
H193 C187 0.929 . S
C194 O185 1.250 . S
C194 O186 1.258 . S
O195 Mn180 2.162 1_655 S
O195 C183 1.281 . S
O196 Mn180 2.297 . S
O196 C183 1.236 1_455 S
N197 Mn181 2.282 . S
N197 C198 1.328 . S
N197 C202 1.318 . S
C198 N197 1.328 . S
C198 C199 1.457 . S
C198 H203 0.929 . S
C199 C198 1.457 . S
C199 C200 1.291 . S
C199 H212 0.931 . S
C200 C199 1.291 . S
C200 C201 1.373 . S
C200 H213 0.929 . S
C201 C200 1.373 . S
C201 C202 1.396 . S
C201 C208 1.403 . S
C202 C192 1.476 . S
C202 N197 1.318 . S
C202 C201 1.396 . S
H203 C198 0.929 . S
O204 Mn180 2.385 . S
O204 C182 1.234 . S
O205 Mn180 2.209 . S
O205 Mn181 2.215 . S
O205 C182 1.283 . S
O206 Mn180 2.094 . S
O206 C184 1.240 . S
O207 Mn181 2.117 . S
O207 C184 1.264 . S
C208 C201 1.403 . S
C208 C209 1.399 . S
C208 H214 0.929 . S
C209 C189 1.449 . S
C209 C208 1.399 . S
C209 H215 0.930 . S
H210 C190 0.931 . S
H211 C191 0.930 . S
H212 C199 0.931 . S
H213 C200 0.929 . S
H214 C208 0.929 . S
H215 C209 0.930 . S
Mn216 O221 2.095 . S
Mn216 O231 2.162 1_545 S
Mn216 O232 2.297 . S
Mn216 O240 2.385 . S
Mn216 O241 2.209 . S
Mn216 O242 2.094 . S
Mn217 O222 2.121 . S
Mn217 N224 2.257 . S
Mn217 N233 2.282 . S
Mn217 O241 2.215 . S
Mn217 O243 2.117 . S
C218 O240 1.234 . S
C218 O241 1.283 . S
C219 O231 1.281 . S
C219 O232 1.236 1_565 S
C220 O242 1.240 . S
C220 O243 1.264 . S
O221 Mn216 2.095 . S
O221 C230 1.250 . S
O222 Mn217 2.121 . S
O222 C230 1.258 . S
C223 N224 1.326 . S
C223 C227 1.460 . S
C223 H229 0.929 . S
N224 Mn217 2.257 . S
N224 C223 1.326 . S
N224 C228 1.362 . S
C225 C226 1.258 . S
C225 C228 1.431 . S
C225 C245 1.449 . S
C226 C225 1.258 . S
C226 C227 1.477 . S
C226 H246 0.931 . S
C227 C223 1.460 . S
C227 C226 1.477 . S
C227 H247 0.930 . S
C228 N224 1.362 . S
C228 C225 1.431 . S
C228 C238 1.476 . S
H229 C223 0.929 . S
C230 O221 1.250 . S
C230 O222 1.258 . S
O231 Mn216 2.162 1_565 S
O231 C219 1.281 . S
O232 Mn216 2.297 . S
O232 C219 1.236 1_545 S
N233 Mn217 2.282 . S
N233 C234 1.328 . S
N233 C238 1.318 . S
C234 N233 1.328 . S
C234 C235 1.457 . S
C234 H239 0.929 . S
C235 C234 1.457 . S
C235 C236 1.291 . S
C235 H248 0.931 . S
C236 C235 1.291 . S
C236 C237 1.373 . S
C236 H249 0.929 . S
C237 C236 1.373 . S
C237 C238 1.396 . S
C237 C244 1.403 . S
C238 C228 1.476 . S
C238 N233 1.318 . S
C238 C237 1.396 . S
H239 C234 0.929 . S
O240 Mn216 2.385 . S
O240 C218 1.234 . S
O241 Mn216 2.209 . S
O241 Mn217 2.215 . S
O241 C218 1.283 . S
O242 Mn216 2.094 . S
O242 C220 1.240 . S
O243 Mn217 2.117 . S
O243 C220 1.264 . S
C244 C237 1.403 . S
C244 C245 1.399 . S
C244 H250 0.929 . S
C245 C225 1.449 . S
C245 C244 1.399 . S
C245 H251 0.930 . S
H246 C226 0.931 . S
H247 C227 0.930 . S
H248 C235 0.931 . S
H249 C236 0.929 . S
H250 C244 0.929 . S
H251 C245 0.930 . S
Mn252 O257 2.095 . S
Mn252 O267 2.162 . S
Mn252 O268 2.297 . S
Mn252 O276 2.385 . S
Mn252 O277 2.209 1_455 S
Mn252 O278 2.094 . S
Mn253 O258 2.121 . S
Mn253 N260 2.257 . S
Mn253 N269 2.282 . S
Mn253 O277 2.215 . S
Mn253 O279 2.117 . S
C254 O276 1.234 1_655 S
C254 O277 1.283 . S
C255 O267 1.281 . S
C255 O268 1.236 . S
C256 O278 1.240 . S
C256 O279 1.264 1_455 S
O257 Mn252 2.095 . S
O257 C266 1.250 . S
O258 Mn253 2.121 . S
O258 C266 1.258 1_655 S
C259 N260 1.326 . S
C259 C263 1.460 . S
C259 H265 0.929 . S
N260 Mn253 2.257 . S
N260 C259 1.326 . S
N260 C264 1.362 . S
C261 C262 1.258 . S
C261 C264 1.431 . S
C261 C281 1.449 . S
C262 C261 1.258 . S
C262 C263 1.477 . S
C262 H282 0.931 . S
C263 C259 1.460 . S
C263 C262 1.477 . S
C263 H283 0.930 . S
C264 N260 1.362 . S
C264 C261 1.431 . S
C264 C274 1.476 . S
H265 C259 0.929 . S
C266 O257 1.250 . S
C266 O258 1.258 1_455 S
O267 Mn252 2.162 . S
O267 C255 1.281 . S
O268 Mn252 2.297 . S
O268 C255 1.236 . S
N269 Mn253 2.282 . S
N269 C270 1.328 . S
N269 C274 1.318 . S
C270 N269 1.328 . S
C270 C271 1.457 . S
C270 H275 0.929 . S
C271 C270 1.457 . S
C271 C272 1.291 . S
C271 H284 0.931 . S
C272 C271 1.291 . S
C272 C273 1.373 . S
C272 H285 0.929 . S
C273 C272 1.373 . S
C273 C274 1.396 . S
C273 C280 1.403 . S
C274 C264 1.476 . S
C274 N269 1.318 . S
C274 C273 1.396 . S
H275 C270 0.929 . S
O276 Mn252 2.385 . S
O276 C254 1.234 1_455 S
O277 Mn252 2.209 1_655 S
O277 Mn253 2.215 . S
O277 C254 1.283 . S
O278 Mn252 2.094 . S
O278 C256 1.240 . S
O279 Mn253 2.117 . S
O279 C256 1.264 1_655 S
C280 C273 1.403 . S
C280 C281 1.399 . S
C280 H286 0.929 . S
C281 C261 1.449 . S
C281 C280 1.399 . S
C281 H287 0.930 . S
H282 C262 0.931 . S
H283 C263 0.930 . S
H284 C271 0.931 . S
H285 C272 0.929 . S
H286 C280 0.929 . S
H287 C281 0.930 . S
C288 C289 1.363 . S
C288 C294 1.379 1_554 S
C288 N296 1.356 . S
C289 C288 1.363 . S
C289 C295 1.363 . S
C290 C291 1.363 . S
C290 C295 1.379 1_556 S
C290 N297 1.356 1_545 S
C291 C290 1.363 . S
C291 C294 1.363 . S
N292 C294 1.356 . S
N292 H304 0.984 . S
N292 H305 0.985 . S
N293 C295 1.356 1_565 S
N293 H298 0.984 1_565 S
N293 H299 0.985 . S
C294 C288 1.379 1_556 S
C294 C291 1.363 . S
C294 N292 1.356 . S
C295 C289 1.363 . S
C295 C290 1.379 1_554 S
C295 N293 1.356 1_545 S
N296 C288 1.356 . S
N296 H302 0.984 . S
N296 H303 0.984 . S
N297 C290 1.356 1_565 S
N297 H300 0.984 . S
N297 H301 0.985 . S
H298 N293 0.984 1_545 S
H299 N293 0.985 . S
H300 N297 0.984 . S
H301 N297 0.985 . S
H302 N296 0.984 . S
H303 N296 0.984 . S
H304 N292 0.984 . S
H305 N292 0.985 . S
C306 C307 1.363 . S
C306 C312 1.379 . S
C306 N314 1.356 . S
C307 C306 1.363 . S
C307 C313 1.363 . S
C308 C309 1.363 . S
C308 C313 1.379 . S
C308 N315 1.356 . S
C309 C308 1.363 . S
C309 C312 1.363 . S
N310 C312 1.356 . S
N310 H322 0.984 . S
N310 H323 0.985 . S
N311 C313 1.356 . S
N311 H316 0.984 . S
N311 H317 0.985 1_455 S
C312 C306 1.379 . S
C312 C309 1.363 . S
C312 N310 1.356 . S
C313 C307 1.363 . S
C313 C308 1.379 . S
C313 N311 1.356 . S
N314 C306 1.356 . S
N314 H320 0.984 . S
N314 H321 0.984 . S
N315 C308 1.356 . S
N315 H318 0.984 . S
N315 H319 0.985 1_455 S
H316 N311 0.984 . S
H317 N311 0.985 1_655 S
H318 N315 0.984 . S
H319 N315 0.985 1_655 S
H320 N314 0.984 . S
H321 N314 0.984 . S
H322 N310 0.984 . S
H323 N310 0.985 . S
C324 C325 1.363 . S
C324 C330 1.379 1_556 S
C324 N332 1.356 . S
C325 C324 1.363 . S
C325 C331 1.363 . S
C326 C327 1.363 . S
C326 C331 1.379 1_554 S
C326 N333 1.356 1_545 S
C327 C326 1.363 . S
C327 C330 1.363 . S
N328 C330 1.356 . S
N328 H340 0.984 . S
N328 H341 0.985 . S
N329 C331 1.356 1_565 S
N329 H334 0.984 1_565 S
N329 H335 0.985 . S
C330 C324 1.379 1_554 S
C330 C327 1.363 . S
C330 N328 1.356 . S
C331 C325 1.363 . S
C331 C326 1.379 1_556 S
C331 N329 1.356 1_545 S
N332 C324 1.356 . S
N332 H338 0.984 . S
N332 H339 0.984 . S
N333 C326 1.356 1_565 S
N333 H336 0.984 . S
N333 H337 0.985 . S
H334 N329 0.984 1_545 S
H335 N329 0.985 . S
H336 N333 0.984 . S
H337 N333 0.985 . S
H338 N332 0.984 . S
H339 N332 0.984 . S
H340 N328 0.984 . S
H341 N328 0.985 . S
C342 C343 1.363 . S
C342 C348 1.379 . S
C342 N350 1.356 . S
C343 C342 1.363 . S
C343 C349 1.363 . S
C344 C345 1.363 . S
C344 C349 1.379 . S
C344 N351 1.356 . S
C345 C344 1.363 . S
C345 C348 1.363 . S
N346 C348 1.356 . S
N346 H358 0.984 1_455 S
N346 H359 0.985 . S
N347 C349 1.356 . S
N347 H352 0.984 . S
N347 H353 0.985 . S
C348 C342 1.379 . S
C348 C345 1.363 . S
C348 N346 1.356 . S
C349 C343 1.363 . S
C349 C344 1.379 . S
C349 N347 1.356 . S
N350 C342 1.356 . S
N350 H356 0.984 1_455 S
N350 H357 0.984 . S
N351 C344 1.356 . S
N351 H354 0.984 . S
N351 H355 0.985 . S
H352 N347 0.984 . S
H353 N347 0.985 . S
H354 N351 0.984 . S
H355 N351 0.985 . S
H356 N350 0.984 1_655 S
H357 N350 0.984 . S
H358 N346 0.984 1_655 S
H359 N346 0.985 . S
C360 C361 1.363 . S
C360 C366 1.379 . S
C360 N368 1.356 . S
C361 C360 1.363 . S
C361 C367 1.363 . S
C362 C363 1.363 . S
C362 C367 1.379 . S
C362 N369 1.356 . S
C363 C362 1.363 . S
C363 C366 1.363 . S
N364 C366 1.356 1_565 S
N364 H376 0.984 . S
N364 H377 0.985 . S
N365 C367 1.356 . S
N365 H370 0.984 . S
N365 H371 0.985 . S
C366 C360 1.379 . S
C366 C363 1.363 . S
C366 N364 1.356 1_545 S
C367 C361 1.363 . S
C367 C362 1.379 . S
C367 N365 1.356 . S
N368 C360 1.356 . S
N368 H374 0.984 . S
N368 H375 0.984 . S
N369 C362 1.356 . S
N369 H372 0.984 . S
N369 H373 0.985 . S
H370 N365 0.984 . S
H371 N365 0.985 . S
H372 N369 0.984 . S
H373 N369 0.985 . S
H374 N368 0.984 . S
H375 N368 0.984 . S
H376 N364 0.984 . S
H377 N364 0.985 . S
C378 C379 1.363 . S
C378 C384 1.379 . S
C378 N386 1.356 . S
C379 C378 1.363 . S
C379 C385 1.363 . S
C380 C381 1.363 . S
C380 C385 1.379 . S
C380 N387 1.356 . S
C381 C380 1.363 . S
C381 C384 1.363 . S
N382 C384 1.356 . S
N382 H394 0.984 . S
N382 H395 0.985 . S
N383 C385 1.356 1_655 S
N383 H388 0.984 . S
N383 H389 0.985 . S
C384 C378 1.379 . S
C384 C381 1.363 . S
C384 N382 1.356 . S
C385 C379 1.363 . S
C385 C380 1.379 . S
C385 N383 1.356 1_455 S
N386 C378 1.356 . S
N386 H392 0.984 . S
N386 H393 0.984 . S
N387 C380 1.356 . S
N387 H390 0.984 . S
N387 H391 0.985 . S
H388 N383 0.984 . S
H389 N383 0.985 . S
H390 N387 0.984 . S
H391 N387 0.985 . S
H392 N386 0.984 . S
H393 N386 0.984 . S
H394 N382 0.984 . S
H395 N382 0.985 . S
C396 C397 1.363 . S
C396 C402 1.379 . S
C396 N404 1.356 . S
C397 C396 1.363 . S
C397 C403 1.363 . S
C398 C399 1.363 . S
C398 C403 1.379 . S
C398 N405 1.356 . S
C399 C398 1.363 . S
C399 C402 1.363 . S
N400 C402 1.356 1_565 S
N400 H412 0.984 . S
N400 H413 0.985 . S
N401 C403 1.356 . S
N401 H406 0.984 . S
N401 H407 0.985 . S
C402 C396 1.379 . S
C402 C399 1.363 . S
C402 N400 1.356 1_545 S
C403 C397 1.363 . S
C403 C398 1.379 . S
C403 N401 1.356 . S
N404 C396 1.356 . S
N404 H410 0.984 . S
N404 H411 0.984 . S
N405 C398 1.356 . S
N405 H408 0.984 . S
N405 H409 0.985 . S
H406 N401 0.984 . S
H407 N401 0.985 . S
H408 N405 0.984 . S
H409 N405 0.985 . S
H410 N404 0.984 . S
H411 N404 0.984 . S
H412 N400 0.984 . S
H413 N400 0.985 . S
C414 C415 1.363 . S
C414 C420 1.379 . S
C414 N422 1.356 . S
C415 C414 1.363 . S
C415 C421 1.363 . S
C416 C417 1.363 . S
C416 C421 1.379 . S
C416 N423 1.356 1_455 S
C417 C416 1.363 . S
C417 C420 1.363 . S
N418 C420 1.356 . S
N418 H430 0.984 . S
N418 H431 0.985 . S
N419 C421 1.356 . S
N419 H424 0.984 . S
N419 H425 0.985 . S
C420 C414 1.379 . S
C420 C417 1.363 . S
C420 N418 1.356 . S
C421 C415 1.363 . S
C421 C416 1.379 . S
C421 N419 1.356 . S
N422 C414 1.356 . S
N422 H428 0.984 . S
N422 H429 0.984 . S
N423 C416 1.356 1_655 S
N423 H426 0.984 . S
N423 H427 0.985 . S
H424 N419 0.984 . S
H425 N419 0.985 . S
H426 N423 0.984 . S
H427 N423 0.985 . S
H428 N422 0.984 . S
H429 N422 0.984 . S
H430 N418 0.984 . S
H431 N418 0.985 . S
C432 C433 1.363 . S
C432 C438 1.379 . S
C432 N440 1.356 . S
C433 C432 1.363 . S
C433 C439 1.363 . S
C434 C435 1.363 . S
C434 C439 1.379 . S
C434 N441 1.356 . S
C435 C434 1.363 . S
C435 C438 1.363 . S
N436 C438 1.356 . S
N436 H448 0.984 . S
N436 H449 0.985 . S
N437 C439 1.356 . S
N437 H442 0.984 . S
N437 H443 0.985 . S
C438 C432 1.379 . S
C438 C435 1.363 . S
C438 N436 1.356 . S
C439 C433 1.363 . S
C439 C434 1.379 . S
C439 N437 1.356 . S
N440 C432 1.356 . S
N440 H446 0.984 . S
N440 H447 0.984 . S
N441 C434 1.356 . S
N441 H444 0.984 . S
N441 H445 0.985 . S
H442 N437 0.984 . S
H443 N437 0.985 . S
H444 N441 0.984 . S
H445 N441 0.985 . S
H446 N440 0.984 . S
H447 N440 0.984 . S
H448 N436 0.984 . S
H449 N436 0.985 . S
C450 C451 1.363 . S
C450 C456 1.379 . S
C450 N458 1.356 . S
C451 C450 1.363 . S
C451 C457 1.363 . S
C452 C453 1.363 . S
C452 C457 1.379 . S
C452 N459 1.356 . S
C453 C452 1.363 . S
C453 C456 1.363 . S
N454 C456 1.356 . S
N454 H466 0.984 . S
N454 H467 0.985 . S
N455 C457 1.356 . S
N455 H460 0.984 . S
N455 H461 0.985 . S
C456 C450 1.379 . S
C456 C453 1.363 . S
C456 N454 1.356 . S
C457 C451 1.363 . S
C457 C452 1.379 . S
C457 N455 1.356 . S
N458 C450 1.356 . S
N458 H464 0.984 . S
N458 H465 0.984 . S
N459 C452 1.356 . S
N459 H462 0.984 . S
N459 H463 0.985 . S
H460 N455 0.984 . S
H461 N455 0.985 . S
H462 N459 0.984 . S
H463 N459 0.985 . S
H464 N458 0.984 . S
H465 N458 0.984 . S
H466 N454 0.984 . S
H467 N454 0.985 . S
C468 C469 1.363 . S
C468 C474 1.379 . S
C468 N476 1.356 . S
C469 C468 1.363 . S
C469 C475 1.363 . S
C470 C471 1.363 . S
C470 C475 1.379 . S
C470 N477 1.356 . S
C471 C470 1.363 . S
C471 C474 1.363 . S
N472 C474 1.356 . S
N472 H484 0.984 . S
N472 H485 0.985 . S
N473 C475 1.356 . S
N473 H478 0.984 1_655 S
N473 H479 0.985 1_655 S
C474 C468 1.379 . S
C474 C471 1.363 . S
C474 N472 1.356 . S
C475 C469 1.363 . S
C475 C470 1.379 . S
C475 N473 1.356 . S
N476 C468 1.356 . S
N476 H482 0.984 . S
N476 H483 0.984 . S
N477 C470 1.356 . S
N477 H480 0.984 1_565 S
N477 H481 0.985 1_565 S
H478 N473 0.984 1_455 S
H479 N473 0.985 1_455 S
H480 N477 0.984 1_545 S
H481 N477 0.985 1_545 S
H482 N476 0.984 . S
H483 N476 0.984 . S
H484 N472 0.984 . S
H485 N472 0.985 . S
C486 C487 1.363 . S
C486 C492 1.379 . S
C486 N494 1.356 . S
C487 C486 1.363 . S
C487 C493 1.363 . S
C488 C489 1.363 . S
C488 C493 1.379 . S
C488 N495 1.356 . S
C489 C488 1.363 . S
C489 C492 1.363 . S
N490 C492 1.356 . S
N490 H502 0.984 . S
N490 H503 0.985 . S
N491 C493 1.356 . S
N491 H496 0.984 . S
N491 H497 0.985 . S
C492 C486 1.379 . S
C492 C489 1.363 . S
C492 N490 1.356 . S
C493 C487 1.363 . S
C493 C488 1.379 . S
C493 N491 1.356 . S
N494 C486 1.356 . S
N494 H500 0.984 . S
N494 H501 0.984 . S
N495 C488 1.356 . S
N495 H498 0.984 . S
N495 H499 0.985 . S
H496 N491 0.984 . S
H497 N491 0.985 . S
H498 N495 0.984 . S
H499 N495 0.985 . S
H500 N494 0.984 . S
H501 N494 0.984 . S
H502 N490 0.984 . S
H503 N490 0.985 . S
C504 C505 1.363 . S
C504 C510 1.379 . S
C504 N512 1.356 . S
C505 C504 1.363 . S
C505 C511 1.363 . S
C506 C507 1.363 . S
C506 C511 1.379 . S
C506 N513 1.356 . S
C507 C506 1.363 . S
C507 C510 1.363 . S
N508 C510 1.357 1_455 S
N508 H520 0.984 . S
N508 H521 0.984 . S
N509 C511 1.356 . S
N509 H514 0.981 1_565 S
N509 H515 0.985 . S
C510 C504 1.379 . S
C510 C507 1.363 . S
C510 N508 1.357 1_655 S
C511 C505 1.363 . S
C511 C506 1.379 . S
C511 N509 1.356 . S
N512 C504 1.356 . S
N512 H518 0.984 . S
N512 H519 0.984 . S
N513 C506 1.356 . S
N513 H516 0.984 . S
N513 H517 0.985 . S
H514 N509 0.981 1_545 S
H515 N509 0.985 . S
H516 N513 0.984 . S
H517 N513 0.985 . S
H518 N512 0.984 . S
H519 N512 0.984 . S
H520 N508 0.984 . S
H521 N508 0.984 . S
C522 C523 1.363 . S
C522 C528 1.379 . S
C522 N530 1.356 . S
C523 C522 1.363 . S
C523 C529 1.363 . S
C524 C525 1.363 . S
C524 C529 1.379 . S
C524 N531 1.356 . S
C525 C524 1.363 . S
C525 C528 1.363 . S
N526 C528 1.356 . S
N526 H538 0.984 . S
N526 H539 0.985 . S
N527 C529 1.356 . S
N527 H532 0.984 . S
N527 H533 0.985 . S
C528 C522 1.379 . S
C528 C525 1.363 . S
C528 N526 1.356 . S
C529 C523 1.363 . S
C529 C524 1.379 . S
C529 N527 1.356 . S
N530 C522 1.356 . S
N530 H536 0.984 . S
N530 H537 0.984 1_565 S
N531 C524 1.356 . S
N531 H534 0.984 . S
N531 H535 0.985 . S
H532 N527 0.984 . S
H533 N527 0.985 . S
H534 N531 0.984 . S
H535 N531 0.985 . S
H536 N530 0.984 . S
H537 N530 0.984 1_545 S
H538 N526 0.984 . S
H539 N526 0.985 . S
C540 C541 1.363 . S
C540 C546 1.379 . S
C540 N548 1.356 . S
C541 C540 1.363 . S
C541 C547 1.363 . S
C542 C543 1.363 . S
C542 C547 1.379 . S
C542 N549 1.356 . S
C543 C542 1.363 . S
C543 C546 1.363 . S
N544 C546 1.356 . S
N544 H556 0.984 . S
N544 H557 0.985 . S
N545 C547 1.356 . S
N545 H550 0.984 . S
N545 H551 0.985 . S
C546 C540 1.379 . S
C546 C543 1.363 . S
C546 N544 1.356 . S
C547 C541 1.363 . S
C547 C542 1.379 . S
C547 N545 1.356 . S
N548 C540 1.356 . S
N548 H554 0.984 . S
N548 H555 0.984 . S
N549 C542 1.356 . S
N549 H552 0.984 . S
N549 H553 0.985 . S
H550 N545 0.984 . S
H551 N545 0.985 . S
H552 N549 0.984 . S
H553 N549 0.985 . S
H554 N548 0.984 . S
H555 N548 0.984 . S
H556 N544 0.984 . S
H557 N544 0.985 . S
C558 C559 1.363 . S
C558 C564 1.379 . S
C558 N566 1.356 . S
C559 C558 1.363 . S
C559 C565 1.363 . S
C560 C561 1.363 . S
C560 C565 1.379 . S
C560 N567 1.356 . S
C561 C560 1.363 . S
C561 C564 1.363 . S
N562 C564 1.356 . S
N562 H574 0.984 . S
N562 H575 0.985 . S
N563 C565 1.356 . S
N563 H568 0.984 . S
N563 H569 0.985 . S
C564 C558 1.379 . S
C564 C561 1.363 . S
C564 N562 1.356 . S
C565 C559 1.363 . S
C565 C560 1.379 . S
C565 N563 1.356 . S
N566 C558 1.356 . S
N566 H572 0.984 . S
N566 H573 0.984 . S
N567 C560 1.356 . S
N567 H570 0.984 . S
N567 H571 0.985 . S
H568 N563 0.984 . S
H569 N563 0.985 . S
H570 N567 0.984 . S
H571 N567 0.985 . S
H572 N566 0.984 . S
H573 N566 0.984 . S
H574 N562 0.984 . S
H575 N562 0.985 . S
C289 C14 1.488 . S
C291 C158 1.488 . S
C307 C50 1.488 . S
C309 C194 1.488 . S
C325 C230 1.487 . S
C327 C86 1.487 . S
C343 C266 1.487 . S
C345 C122 1.487 . S
C361 C4 1.440 . S
C363 C76 1.440 . S
C379 C40 1.440 . S
C381 C112 1.440 . S
C397 C220 1.440 . S
C399 C148 1.440 . S
C415 C184 1.440 . S
C417 C256 1.440 . S
C433 C182 1.402 . S
C435 C2 1.402 . S
C451 C38 1.402 . S
C453 C218 1.402 . S
C469 C254 1.402 . S
C471 C74 1.402 . S
C487 C110 1.402 . S
C489 C146 1.402 . S
C505 C219 1.358 . S
C507 C111 1.358 . S
C523 C3 1.358 . S
C525 C255 1.358 . S
C541 C39 1.358 . S
C543 C147 1.358 . S
C559 C183 1.358 . S
C561 C75 1.358 . S
