# Generated by pormake.
# Topology sml, (6)-cn, num edge types: 1
# Building blocks:
#     Node 0, Type 0, BuildingBlock: GEDQOX_clean_sbu_0, # of connection points: 6
#     Node 1, Type 0, BuildingBlock: GEDQOX_clean_sbu_0, # of connection points: 6
#     Node 2, Type 0, BuildingBlock: GEDQOX_clean_sbu_0, # of connection points: 6
#     Node 3, Type 0, BuildingBlock: GEDQOX_clean_sbu_0, # of connection points: 6
#     Node 4, Type 0, BuildingBlock: GEDQOX_clean_sbu_0, # of connection points: 6
#     Node 5, Type 0, BuildingBlock: GEDQOX_clean_sbu_0, # of connection points: 6
#     Edge 6, Type (0, 0), None
#     Edge 7, Type (0, 0), None
#     Edge 8, Type (0, 0), None
#     Edge 9, Type (0, 0), None
#     Edge 10, Type (0, 0), None
#     Edge 11, Type (0, 0), None
#     Edge 12, Type (0, 0), None
#     Edge 13, Type (0, 0), None
#     Edge 14, Type (0, 0), None
#     Edge 15, Type (0, 0), None
#     Edge 16, Type (0, 0), None
#     Edge 17, Type (0, 0), None
#     Edge 18, Type (0, 0), None
#     Edge 19, Type (0, 0), None
#     Edge 20, Type (0, 0), None
#     Edge 21, Type (0, 0), None
#     Edge 22, Type (0, 0), None
#     Edge 23, Type (0, 0), None
# Relax obj value: 0.285
# Max RMSD: 0.249
# Mean RMSD: 0.249
data_MOF--net-sml--node1-GEDQOX_clean_sbu_0--edge1-none
_symmetry_space_group_name_H-M    P1
_symmetry_Int_Tables_number       1
_symmetry_cell_setting            triclinic
loop_
_symmetry_equiv_pos_as_xyz
'x, y, z'
_cell_length_a     31.80017
_cell_length_b     31.82594
_cell_length_c     6.9905738
_cell_angle_alpha  89.892035
_cell_angle_beta   90.001285
_cell_angle_gamma 120.12872
loop_
_atom_site_label
_atom_site_type_symbol
_atom_site_fract_x
_atom_site_fract_y
_atom_site_fract_z
_atom_type_partial_charge
Nd0 Nd 0.25447 0.41642 0.07308 0.0
Nd1 Nd 0.21251 0.48389 1.06353 0.0
C2 C 0.30825 0.37362 1.04454 0.0
C3 C 0.3218 0.33959 0.95228 0.0
C4 C 0.3615 0.35685 0.82478 0.0
C5 C 0.37932 0.32653 0.76334 0.0
C6 C 0.35816 0.27832 0.82933 0.0
C7 C 0.31774 0.26077 0.95223 0.0
C8 C 0.29987 0.29088 1.01288 0.0
C9 C 0.15372 0.36905 0.11446 0.0
C10 C 0.22811 0.44576 0.66121 0.0
C11 C 0.1718 0.53781 0.13371 0.0
C12 C 0.1921 0.59012 0.17837 0.0
C13 C 0.17163 0.60514 0.32318 0.0
C14 C 0.19364 0.65447 0.37634 0.0
C15 C 0.23664 0.68936 0.28594 0.0
C16 C 0.25631 0.67402 0.13943 0.0
C17 C 0.23453 0.62525 0.0869 0.0
C18 C 0.31139 0.53137 1.00354 0.0
C19 C 0.23061 0.44726 0.47204 0.0
O20 O 0.31994 0.41512 0.96321 0.0
O21 O 0.26787 0.35588 0.14256 0.0
O22 O 0.18149 0.35499 0.19322 0.0
O23 O 0.17844 0.4042 1.0026 0.0
O24 O 0.25632 0.4334 0.75351 0.0
O25 O 0.19853 0.4571 0.75164 0.0
O26 O 0.17871 0.51261 0.26432 0.0
O27 O 0.17894 0.52671 0.96112 0.0
O28 O 0.28193 0.54354 0.92925 0.0
O29 O 0.28945 0.49757 0.12552 0.0
O30 O 0.20125 0.45701 0.37473 0.0
O31 O 0.26308 0.43967 0.38609 0.0
H32 H 0.37996 0.39436 0.77772 0.0
H33 H 0.41067 0.34131 0.66951 0.0
H34 H 0.30056 0.22389 1.00629 0.0
H35 H 0.26988 0.27634 0.11336 0.0
H36 H 0.13911 0.5786 0.39732 0.0
H37 H 0.17756 0.66511 0.48914 0.0
H38 H 0.28925 0.69979 1.06541 0.0
H39 H 0.25157 0.61498 0.97661 0.0
Nd40 Nd 0.85893 0.24466 0.40598 0.0
Nd41 Nd 0.7493 0.20213 0.39741 0.0
C42 C 0.95567 0.29905 0.37629 0.0
C43 C 1.00333 0.31225 0.28469 0.0
C44 C 1.02604 0.35174 0.1563 0.0
C45 C 0.07427 0.36935 0.09499 0.0
C46 C 0.10113 0.34818 0.16195 0.0
C47 C 0.078 0.30794 0.28574 0.0
C48 C 1.02992 0.29029 0.34635 0.0
C49 C 0.80598 0.14398 0.44706 0.0
C50 C 0.8031 0.21801 0.99455 0.0
C51 C 0.65445 0.16108 0.46825 0.0
C52 C 0.6223 0.18122 0.51219 0.0
C53 C 0.58687 0.16095 0.65789 0.0
C54 C 0.55951 0.1829 0.71059 0.0
C55 C 0.56755 0.22565 0.6188 0.0
C56 C 0.60246 0.24508 0.4713 0.0
C57 C 0.62949 0.22336 0.41923 0.0
C58 C 0.80056 0.30099 0.33728 0.0
C59 C 0.8041 0.22047 0.80534 0.0
O60 O 0.92558 0.3097 0.29111 0.0
O61 O 0.93323 0.25943 0.47894 0.0
O62 O 0.84797 0.17195 0.52471 0.0
O63 O 0.79522 0.16847 0.33582 0.0
O64 O 0.8437 0.24645 0.08653 0.0
O65 O 0.76215 0.18822 0.08541 0.0
O66 O 0.68665 0.16833 0.59883 0.0
O67 O 0.67272 0.16805 0.29555 0.0
O68 O 0.75892 0.27136 0.2629 0.0
O69 O 0.81249 0.27917 0.45915 0.0
O70 O 0.76501 0.19084 0.70829 0.0
O71 O 0.84413 0.25319 0.71899 0.0
H72 H 1.00713 0.37022 0.10844 0.0
H73 H 0.09104 0.40055 1.00041 0.0
H74 H 0.09756 0.29076 0.34052 0.0
H75 H 1.01423 0.26043 0.44748 0.0
H76 H 0.58099 0.12867 0.73315 0.0
H77 H 0.53288 0.16701 0.82414 0.0
H78 H 0.60956 0.27783 0.39618 0.0
H79 H 0.65675 0.24023 0.3082 0.0
Nd80 Nd 0.63691 0.84893 0.73809 0.0
Nd81 Nd 0.56953 0.73934 0.72991 0.0
C82 C 0.67956 0.9456 0.7093 0.0
C83 C 0.71352 0.99336 0.61676 0.0
C84 C 0.69605 1.01585 0.49096 0.0
C85 C 0.72631 0.06417 0.42955 0.0
C86 C 0.77464 0.09131 0.49393 0.0
C87 C 0.79242 0.06839 0.61496 0.0
C88 C 0.76237 1.02023 0.67556 0.0
C89 C 0.68446 0.79597 0.77967 0.0
C90 C 0.60765 0.7932 0.32685 0.0
C91 C 0.51571 0.64452 0.80084 0.0
C92 C 0.46329 0.61226 0.84464 0.0
C93 C 0.44802 0.57692 0.99071 0.0
C94 C 0.39859 0.54955 1.04362 0.0
C95 C 0.36387 0.55748 0.95168 0.0
C96 C 0.37944 0.59229 0.80376 0.0
C97 C 0.42831 0.61932 0.75146 0.0
C98 C 0.52188 0.79038 0.66997 0.0
C99 C 0.60614 0.79417 0.13769 0.0
O100 O 0.63804 0.91563 0.62847 0.0
O101 O 0.69741 0.92308 0.80683 0.0
O102 O 0.69847 0.83783 0.85789 0.0
O103 O 0.64928 0.78532 0.66813 0.0
O104 O 0.62001 0.83379 0.41868 0.0
O105 O 0.59631 0.75227 0.41772 0.0
O106 O 0.54059 0.67673 0.93142 0.0
O107 O 0.52715 0.66281 0.62811 0.0
O108 O 0.50975 0.74874 0.596 0.0
O109 O 0.55571 0.80238 0.79154 0.0
O110 O 0.59643 0.75506 1.04077 0.0
O111 O 0.61365 0.8342 1.05135 0.0
H112 H 0.65843 0.99671 0.44535 0.0
H113 H 0.71136 0.08078 0.33715 0.0
H114 H 0.82941 0.08817 0.66768 0.0
H115 H 0.77707 1.00471 0.77469 0.0
H116 H 0.47445 0.57115 1.06617 0.0
H117 H 0.38775 0.52298 0.15753 0.0
H118 H 0.35378 0.59928 0.72855 0.0
H119 H 0.43878 0.64651 0.64015 0.0
Nd120 Nd 0.80908 0.62632 0.07177 0.0
Nd121 Nd 0.85121 0.55886 1.06322 0.0
C122 C 0.75522 0.66901 1.04306 0.0
C123 C 0.74175 0.70312 0.95055 0.0
C124 C 0.70202 0.68592 0.82356 0.0
C125 C 0.68425 0.7163 0.76194 0.0
C126 C 0.70548 0.76449 0.82723 0.0
C127 C 0.74595 0.782 0.94959 0.0
C128 C 0.76377 0.75183 1.01044 0.0
C129 C 0.90982 0.67373 0.11296 0.0
C130 C 0.83552 0.59702 0.66032 0.0
C131 C 0.8921 0.50514 0.13402 0.0
C132 C 0.87178 0.45277 0.17804 0.0
C133 C 0.89202 0.43752 0.32312 0.0
C134 C 0.86985 0.38813 0.37621 0.0
C135 C 0.82692 0.35344 0.28547 0.0
C136 C 0.80748 0.369 0.13862 0.0
C137 C 0.82942 0.41782 0.08614 0.0
C138 C 0.75245 0.51135 1.00337 0.0
C139 C 0.83299 0.59547 0.47116 0.0
O140 O 0.74363 0.62762 0.9617 0.0
O141 O 0.79552 0.68669 0.14123 0.0
O142 O 0.88201 0.68781 0.19092 0.0
O143 O 0.88516 0.63858 1.00162 0.0
O144 O 0.80733 0.60941 0.7524 0.0
O145 O 0.86511 0.58567 0.75091 0.0
O146 O 0.88481 0.52998 0.2646 0.0
O147 O 0.8853 0.51655 0.96129 0.0
O148 O 0.78195 0.49915 0.92997 0.0
O149 O 0.77424 0.54519 0.12494 0.0
O150 O 0.86236 0.58572 0.37405 0.0
O151 O 0.80048 0.603 0.38508 0.0
H152 H 0.6835 0.64841 0.77709 0.0
H153 H 0.65287 0.70155 0.66852 0.0
H154 H 0.76319 0.81887 1.00308 0.0
H155 H 0.7938 0.76631 0.11051 0.0
H156 H 0.92446 0.46393 0.39761 0.0
H157 H 0.88575 0.3773 0.48925 0.0
H158 H 0.77459 0.34335 1.06438 0.0
H159 H 0.81256 0.42829 0.97564 0.0
Nd160 Nd 0.20438 0.79804 0.40654 0.0
Nd161 Nd 0.31419 0.8405 0.39732 0.0
C162 C 0.10762 0.7438 0.37763 0.0
C163 C 0.06004 0.73052 0.2851 0.0
C164 C 0.03744 0.69093 0.15778 0.0
C165 C 0.98927 0.67331 0.09577 0.0
C166 C 0.96237 0.69458 0.16098 0.0
C167 C 0.98542 0.73491 0.2837 0.0
C168 C 0.03343 0.75256 0.34497 0.0
C169 C 0.25754 0.8987 0.44758 0.0
C170 C 0.26029 0.82472 0.99475 0.0
C171 C 0.40902 0.88143 0.46771 0.0
C172 C 0.44111 0.86121 0.51151 0.0
C173 C 0.4767 0.88151 0.65625 0.0
C174 C 0.50399 0.85947 0.70902 0.0
C175 C 0.49574 0.81662 0.61835 0.0
C176 C 0.46065 0.79712 0.47183 0.0
C177 C 0.43368 0.81893 0.41965 0.0
C178 C 0.26289 0.74179 0.33772 0.0
C179 C 0.2593 0.8222 0.80558 0.0
O180 O 0.13765 0.73274 0.2947 0.0
O181 O 0.13014 0.78373 0.47778 0.0
O182 O 0.21546 0.87069 0.52499 0.0
O183 O 0.26831 0.87428 0.33627 0.0
O184 O 0.21963 0.79641 0.08712 0.0
O185 O 0.3013 0.85439 0.08508 0.0
O186 O 0.37678 0.87405 0.59844 0.0
O187 O 0.3908 0.87466 0.29506 0.0
O188 O 0.30464 0.77142 0.26374 0.0
O189 O 0.25079 0.76346 0.45946 0.0
O190 O 0.29847 0.85168 0.7081 0.0
O191 O 0.21919 0.78957 0.71982 0.0
H192 H 0.05636 0.67238 0.11131 0.0
H193 H 0.97257 0.64204 1.00209 0.0
H194 H 0.96583 0.75216 0.33715 0.0
H195 H 0.04903 0.78249 0.44525 0.0
H196 H 0.48275 0.91389 0.73068 0.0
H197 H 0.5308 0.87543 0.82186 0.0
H198 H 0.45339 0.76431 0.39764 0.0
H199 H 0.40629 0.80203 0.30941 0.0
Nd200 Nd 0.42639 0.19355 0.73994 0.0
Nd201 Nd 0.49409 0.30318 0.73008 0.0
C202 C 0.38334 0.09682 0.71226 0.0
C203 C 0.34969 0.04915 0.61886 0.0
C204 C 0.36749 0.02682 0.49412 0.0
C205 C 0.33738 0.97858 0.43209 0.0
C206 C 0.28886 0.95133 0.49484 0.0
C207 C 0.27079 0.97411 0.61485 0.0
C208 C 0.30068 0.02218 0.676 0.0
C209 C 0.37919 0.24683 0.78199 0.0
C210 C 0.45576 0.24931 0.32793 0.0
C211 C 0.5482 0.39798 0.79994 0.0
C212 C 0.60059 0.43018 0.84419 0.0
C213 C 0.61576 0.46567 0.98905 0.0
C214 C 0.66515 0.4931 1.0421 0.0
C215 C 0.69997 0.4851 0.95153 0.0
C216 C 0.68449 0.4501 0.8049 0.0
C217 C 0.63566 0.42301 0.75248 0.0
C218 C 0.54147 0.25192 0.67043 0.0
C219 C 0.45729 0.24832 0.13882 0.0
O220 O 0.42542 0.12667 0.63459 0.0
O221 O 0.36514 0.1195 0.80617 0.0
O222 O 0.36515 0.20495 0.8608 0.0
O223 O 0.41426 0.25741 0.66967 0.0
O224 O 0.44321 0.20868 0.42037 0.0
O225 O 0.4673 0.29031 0.41809 0.0
O226 O 0.52309 0.36578 0.93074 0.0
O227 O 0.53692 0.37973 0.62742 0.0
O228 O 0.55371 0.29362 0.59609 0.0
O229 O 0.50765 0.23994 0.7923 0.0
O230 O 0.46728 0.28752 1.04131 0.0
O231 O 0.44949 0.20819 1.05319 0.0
H232 H 0.40524 0.04602 0.44977 0.0
H233 H 0.35256 0.96209 0.34057 0.0
H234 H 0.23366 0.95427 0.66636 0.0
H235 H 0.28571 0.03755 0.77429 0.0
H236 H 0.58927 0.47154 1.06339 0.0
H237 H 0.6759 0.5198 0.15499 0.0
H238 H 0.71021 0.44303 0.73074 0.0
H239 H 0.62528 0.39571 0.64214 0.0
loop_
_geom_bond_atom_site_label_1
_geom_bond_atom_site_label_2
_geom_bond_distance
_geom_bond_site_symmetry_2
_ccdc_geom_bond_type
Nd0 C2 2.836 1_554 S
Nd0 O20 2.500 1_554 S
Nd0 O21 2.492 1_554 S
Nd0 O22 2.487 . S
Nd0 O23 2.682 . S
Nd0 O24 2.410 1_554 S
Nd0 O29 2.414 1_554 S
Nd0 O31 2.424 . S
Nd1 C11 2.836 1_556 S
Nd1 O23 2.414 1_556 S
Nd1 O25 2.424 . S
Nd1 O26 2.500 1_556 S
Nd1 O27 2.492 1_556 S
Nd1 O28 2.487 . S
Nd1 O29 2.682 . S
Nd1 O30 2.410 1_556 S
C2 Nd0 2.836 1_556 S
C2 C3 1.498 . S
C2 O20 1.258 . S
C2 O21 1.239 . S
C3 C2 1.498 . S
C3 C4 1.366 . S
C3 C8 1.407 . S
C4 C3 1.366 . S
C4 C5 1.392 . S
C4 H32 0.930 . S
C5 C4 1.392 . S
C5 C6 1.398 . S
C5 H33 0.929 . S
C6 C5 1.398 . S
C6 C7 1.352 . S
C7 C6 1.352 . S
C7 C8 1.384 . S
C7 H34 0.930 . S
C8 C3 1.407 . S
C8 C7 1.384 . S
C8 H35 0.929 . S
C9 O22 1.241 . S
C9 O23 1.273 . S
C10 O24 1.251 . S
C10 O25 1.268 . S
C11 Nd1 2.836 1_554 S
C11 C12 1.498 . S
C11 O26 1.258 . S
C11 O27 1.239 . S
C12 C11 1.498 . S
C12 C13 1.366 . S
C12 C17 1.407 . S
C13 C12 1.366 . S
C13 C14 1.392 . S
C13 H36 0.930 . S
C14 C13 1.392 . S
C14 C15 1.398 . S
C14 H37 0.929 . S
C15 C14 1.398 . S
C15 C16 1.352 . S
C16 C15 1.352 . S
C16 C17 1.384 . S
C16 H38 0.930 . S
C17 C12 1.407 . S
C17 C16 1.384 . S
C17 H39 0.929 . S
C18 O28 1.241 . S
C18 O29 1.273 . S
C19 O30 1.251 . S
C19 O31 1.268 . S
O20 Nd0 2.500 1_556 S
O20 C2 1.258 . S
O21 Nd0 2.492 1_556 S
O21 C2 1.239 . S
O22 Nd0 2.487 . S
O22 C9 1.241 . S
O23 Nd0 2.682 . S
O23 Nd1 2.414 1_554 S
O23 C9 1.273 . S
O24 Nd0 2.410 1_556 S
O24 C10 1.251 . S
O25 Nd1 2.424 . S
O25 C10 1.268 . S
O26 Nd1 2.500 1_554 S
O26 C11 1.258 . S
O27 Nd1 2.492 1_554 S
O27 C11 1.239 . S
O28 Nd1 2.487 . S
O28 C18 1.241 . S
O29 Nd0 2.414 1_556 S
O29 Nd1 2.682 . S
O29 C18 1.273 . S
O30 Nd1 2.410 1_554 S
O30 C19 1.251 . S
O31 Nd0 2.424 . S
O31 C19 1.268 . S
H32 C4 0.930 . S
H33 C5 0.929 . S
H34 C7 0.930 . S
H35 C8 0.929 . S
H36 C13 0.930 . S
H37 C14 0.929 . S
H38 C16 0.930 . S
H39 C17 0.929 . S
Nd40 C42 2.836 . S
Nd40 O60 2.500 . S
Nd40 O61 2.492 . S
Nd40 O62 2.487 . S
Nd40 O63 2.682 . S
Nd40 O64 2.410 . S
Nd40 O69 2.414 . S
Nd40 O71 2.424 . S
Nd41 C51 2.836 . S
Nd41 O63 2.414 . S
Nd41 O65 2.424 . S
Nd41 O66 2.500 . S
Nd41 O67 2.492 . S
Nd41 O68 2.487 . S
Nd41 O69 2.682 . S
Nd41 O70 2.410 . S
C42 Nd40 2.836 . S
C42 C43 1.498 . S
C42 O60 1.258 . S
C42 O61 1.239 . S
C43 C42 1.498 . S
C43 C44 1.366 1_554 S
C43 C48 1.407 . S
C44 C43 1.366 1_556 S
C44 C45 1.392 1_655 S
C44 H72 0.930 . S
C45 C44 1.392 1_455 S
C45 C46 1.398 . S
C45 H73 0.929 . S
C46 C45 1.398 . S
C46 C47 1.352 . S
C47 C46 1.352 . S
C47 C48 1.384 1_456 S
C47 H74 0.930 . S
C48 C43 1.407 . S
C48 C47 1.384 1_654 S
C48 H75 0.929 . S
C49 O62 1.241 . S
C49 O63 1.273 . S
C50 O64 1.251 1_556 S
C50 O65 1.268 1_556 S
C51 Nd41 2.836 . S
C51 C52 1.498 . S
C51 O66 1.258 . S
C51 O67 1.239 . S
C52 C51 1.498 . S
C52 C53 1.366 . S
C52 C57 1.407 . S
C53 C52 1.366 . S
C53 C54 1.392 . S
C53 H76 0.930 . S
C54 C53 1.392 . S
C54 C55 1.398 . S
C54 H77 0.929 . S
C55 C54 1.398 . S
C55 C56 1.352 . S
C56 C55 1.352 . S
C56 C57 1.384 . S
C56 H78 0.930 . S
C57 C52 1.407 . S
C57 C56 1.384 . S
C57 H79 0.929 . S
C58 O68 1.241 . S
C58 O69 1.273 . S
C59 O70 1.251 . S
C59 O71 1.268 . S
O60 Nd40 2.500 . S
O60 C42 1.258 . S
O61 Nd40 2.492 . S
O61 C42 1.239 . S
O62 Nd40 2.487 . S
O62 C49 1.241 . S
O63 Nd40 2.682 . S
O63 Nd41 2.414 . S
O63 C49 1.273 . S
O64 Nd40 2.410 . S
O64 C50 1.251 1_554 S
O65 Nd41 2.424 . S
O65 C50 1.268 1_554 S
O66 Nd41 2.500 . S
O66 C51 1.258 . S
O67 Nd41 2.492 . S
O67 C51 1.239 . S
O68 Nd41 2.487 . S
O68 C58 1.241 . S
O69 Nd40 2.414 . S
O69 Nd41 2.682 . S
O69 C58 1.273 . S
O70 Nd41 2.410 . S
O70 C59 1.251 . S
O71 Nd40 2.424 . S
O71 C59 1.268 . S
H72 C44 0.930 . S
H73 C45 0.929 . S
H74 C47 0.930 . S
H75 C48 0.929 . S
H76 C53 0.930 . S
H77 C54 0.929 . S
H78 C56 0.930 . S
H79 C57 0.929 . S
Nd80 C82 2.836 . S
Nd80 O100 2.500 . S
Nd80 O101 2.492 . S
Nd80 O102 2.487 . S
Nd80 O103 2.682 . S
Nd80 O104 2.410 . S
Nd80 O109 2.414 . S
Nd80 O111 2.424 . S
Nd81 C91 2.836 . S
Nd81 O103 2.414 . S
Nd81 O105 2.424 . S
Nd81 O106 2.500 . S
Nd81 O107 2.492 . S
Nd81 O108 2.487 . S
Nd81 O109 2.682 . S
Nd81 O110 2.410 . S
C82 Nd80 2.836 . S
C82 C83 1.498 . S
C82 O100 1.258 . S
C82 O101 1.239 . S
C83 C82 1.498 . S
C83 C84 1.366 . S
C83 C88 1.407 . S
C84 C83 1.366 . S
C84 C85 1.392 1_565 S
C84 H112 0.930 . S
C85 C84 1.392 1_545 S
C85 C86 1.398 . S
C85 H113 0.929 . S
C86 C85 1.398 . S
C86 C87 1.352 . S
C87 C86 1.352 . S
C87 C88 1.384 1_545 S
C87 H114 0.930 . S
C88 C83 1.407 . S
C88 C87 1.384 1_565 S
C88 H115 0.929 . S
C89 O102 1.241 . S
C89 O103 1.273 . S
C90 O104 1.251 . S
C90 O105 1.268 . S
C91 Nd81 2.836 . S
C91 C92 1.498 . S
C91 O106 1.258 . S
C91 O107 1.239 . S
C92 C91 1.498 . S
C92 C93 1.366 1_556 S
C92 C97 1.407 . S
C93 C92 1.366 1_554 S
C93 C94 1.392 . S
C93 H116 0.930 . S
C94 C93 1.392 . S
C94 C95 1.398 . S
C94 H117 0.929 . S
C95 C94 1.398 . S
C95 C96 1.352 . S
C96 C95 1.352 . S
C96 C97 1.384 1_554 S
C96 H118 0.930 . S
C97 C92 1.407 . S
C97 C96 1.384 1_556 S
C97 H119 0.929 . S
C98 O108 1.241 . S
C98 O109 1.273 . S
C99 O110 1.251 1_554 S
C99 O111 1.268 1_554 S
O100 Nd80 2.500 . S
O100 C82 1.258 . S
O101 Nd80 2.492 . S
O101 C82 1.239 . S
O102 Nd80 2.487 . S
O102 C89 1.241 . S
O103 Nd80 2.682 . S
O103 Nd81 2.414 . S
O103 C89 1.273 . S
O104 Nd80 2.410 . S
O104 C90 1.251 . S
O105 Nd81 2.424 . S
O105 C90 1.268 . S
O106 Nd81 2.500 . S
O106 C91 1.258 . S
O107 Nd81 2.492 . S
O107 C91 1.239 . S
O108 Nd81 2.487 . S
O108 C98 1.241 . S
O109 Nd80 2.414 . S
O109 Nd81 2.682 . S
O109 C98 1.273 . S
O110 Nd81 2.410 . S
O110 C99 1.251 1_556 S
O111 Nd80 2.424 . S
O111 C99 1.268 1_556 S
H112 C84 0.930 . S
H113 C85 0.929 . S
H114 C87 0.930 . S
H115 C88 0.929 . S
H116 C93 0.930 . S
H117 C94 0.929 . S
H118 C96 0.930 . S
H119 C97 0.929 . S
Nd120 C122 2.836 1_554 S
Nd120 O140 2.500 1_554 S
Nd120 O141 2.492 1_554 S
Nd120 O142 2.487 . S
Nd120 O143 2.682 . S
Nd120 O144 2.410 1_554 S
Nd120 O149 2.414 1_554 S
Nd120 O151 2.424 . S
Nd121 C131 2.836 1_556 S
Nd121 O143 2.414 1_556 S
Nd121 O145 2.424 . S
Nd121 O146 2.500 1_556 S
Nd121 O147 2.492 1_556 S
Nd121 O148 2.487 . S
Nd121 O149 2.682 . S
Nd121 O150 2.410 1_556 S
C122 Nd120 2.836 1_556 S
C122 C123 1.498 . S
C122 O140 1.258 . S
C122 O141 1.239 . S
C123 C122 1.498 . S
C123 C124 1.366 . S
C123 C128 1.407 . S
C124 C123 1.366 . S
C124 C125 1.392 . S
C124 H152 0.930 . S
C125 C124 1.392 . S
C125 C126 1.398 . S
C125 H153 0.929 . S
C126 C125 1.398 . S
C126 C127 1.352 . S
C127 C126 1.352 . S
C127 C128 1.384 . S
C127 H154 0.930 . S
C128 C123 1.407 . S
C128 C127 1.384 . S
C128 H155 0.929 . S
C129 O142 1.241 . S
C129 O143 1.273 . S
C130 O144 1.251 . S
C130 O145 1.268 . S
C131 Nd121 2.836 1_554 S
C131 C132 1.498 . S
C131 O146 1.258 . S
C131 O147 1.239 . S
C132 C131 1.498 . S
C132 C133 1.366 . S
C132 C137 1.407 . S
C133 C132 1.366 . S
C133 C134 1.392 . S
C133 H156 0.930 . S
C134 C133 1.392 . S
C134 C135 1.398 . S
C134 H157 0.929 . S
C135 C134 1.398 . S
C135 C136 1.352 . S
C136 C135 1.352 . S
C136 C137 1.384 . S
C136 H158 0.930 . S
C137 C132 1.407 . S
C137 C136 1.384 . S
C137 H159 0.929 . S
C138 O148 1.241 . S
C138 O149 1.273 . S
C139 O150 1.251 . S
C139 O151 1.268 . S
O140 Nd120 2.500 1_556 S
O140 C122 1.258 . S
O141 Nd120 2.492 1_556 S
O141 C122 1.239 . S
O142 Nd120 2.487 . S
O142 C129 1.241 . S
O143 Nd120 2.682 . S
O143 Nd121 2.414 1_554 S
O143 C129 1.273 . S
O144 Nd120 2.410 1_556 S
O144 C130 1.251 . S
O145 Nd121 2.424 . S
O145 C130 1.268 . S
O146 Nd121 2.500 1_554 S
O146 C131 1.258 . S
O147 Nd121 2.492 1_554 S
O147 C131 1.239 . S
O148 Nd121 2.487 . S
O148 C138 1.241 . S
O149 Nd120 2.414 1_556 S
O149 Nd121 2.682 . S
O149 C138 1.273 . S
O150 Nd121 2.410 1_554 S
O150 C139 1.251 . S
O151 Nd120 2.424 . S
O151 C139 1.268 . S
H152 C124 0.930 . S
H153 C125 0.929 . S
H154 C127 0.930 . S
H155 C128 0.929 . S
H156 C133 0.930 . S
H157 C134 0.929 . S
H158 C136 0.930 . S
H159 C137 0.929 . S
Nd160 C162 2.836 . S
Nd160 O180 2.500 . S
Nd160 O181 2.492 . S
Nd160 O182 2.487 . S
Nd160 O183 2.682 . S
Nd160 O184 2.410 . S
Nd160 O189 2.414 . S
Nd160 O191 2.424 . S
Nd161 C171 2.836 . S
Nd161 O183 2.414 . S
Nd161 O185 2.424 . S
Nd161 O186 2.500 . S
Nd161 O187 2.492 . S
Nd161 O188 2.487 . S
Nd161 O189 2.682 . S
Nd161 O190 2.410 . S
C162 Nd160 2.836 . S
C162 C163 1.498 . S
C162 O180 1.258 . S
C162 O181 1.239 . S
C163 C162 1.498 . S
C163 C164 1.366 1_554 S
C163 C168 1.407 . S
C164 C163 1.366 1_556 S
C164 C165 1.392 1_455 S
C164 H192 0.930 . S
C165 C164 1.392 1_655 S
C165 C166 1.398 . S
C165 H193 0.929 . S
C166 C165 1.398 . S
C166 C167 1.352 . S
C167 C166 1.352 . S
C167 C168 1.384 1_656 S
C167 H194 0.930 . S
C168 C163 1.407 . S
C168 C167 1.384 1_454 S
C168 H195 0.929 . S
C169 O182 1.241 . S
C169 O183 1.273 . S
C170 O184 1.251 1_556 S
C170 O185 1.268 1_556 S
C171 Nd161 2.836 . S
C171 C172 1.498 . S
C171 O186 1.258 . S
C171 O187 1.239 . S
C172 C171 1.498 . S
C172 C173 1.366 . S
C172 C177 1.407 . S
C173 C172 1.366 . S
C173 C174 1.392 . S
C173 H196 0.930 . S
C174 C173 1.392 . S
C174 C175 1.398 . S
C174 H197 0.929 . S
C175 C174 1.398 . S
C175 C176 1.352 . S
C176 C175 1.352 . S
C176 C177 1.384 . S
C176 H198 0.930 . S
C177 C172 1.407 . S
C177 C176 1.384 . S
C177 H199 0.929 . S
C178 O188 1.241 . S
C178 O189 1.273 . S
C179 O190 1.251 . S
C179 O191 1.268 . S
O180 Nd160 2.500 . S
O180 C162 1.258 . S
O181 Nd160 2.492 . S
O181 C162 1.239 . S
O182 Nd160 2.487 . S
O182 C169 1.241 . S
O183 Nd160 2.682 . S
O183 Nd161 2.414 . S
O183 C169 1.273 . S
O184 Nd160 2.410 . S
O184 C170 1.251 1_554 S
O185 Nd161 2.424 . S
O185 C170 1.268 1_554 S
O186 Nd161 2.500 . S
O186 C171 1.258 . S
O187 Nd161 2.492 . S
O187 C171 1.239 . S
O188 Nd161 2.487 . S
O188 C178 1.241 . S
O189 Nd160 2.414 . S
O189 Nd161 2.682 . S
O189 C178 1.273 . S
O190 Nd161 2.410 . S
O190 C179 1.251 . S
O191 Nd160 2.424 . S
O191 C179 1.268 . S
H192 C164 0.930 . S
H193 C165 0.929 . S
H194 C167 0.930 . S
H195 C168 0.929 . S
H196 C173 0.930 . S
H197 C174 0.929 . S
H198 C176 0.930 . S
H199 C177 0.929 . S
Nd200 C202 2.836 . S
Nd200 O220 2.500 . S
Nd200 O221 2.492 . S
Nd200 O222 2.487 . S
Nd200 O223 2.682 . S
Nd200 O224 2.410 . S
Nd200 O229 2.414 . S
Nd200 O231 2.424 . S
Nd201 C211 2.836 . S
Nd201 O223 2.414 . S
Nd201 O225 2.424 . S
Nd201 O226 2.500 . S
Nd201 O227 2.492 . S
Nd201 O228 2.487 . S
Nd201 O229 2.682 . S
Nd201 O230 2.410 . S
C202 Nd200 2.836 . S
C202 C203 1.498 . S
C202 O220 1.258 . S
C202 O221 1.239 . S
C203 C202 1.498 . S
C203 C204 1.366 . S
C203 C208 1.407 . S
C204 C203 1.366 . S
C204 C205 1.392 1_545 S
C204 H232 0.930 . S
C205 C204 1.392 1_565 S
C205 C206 1.398 . S
C205 H233 0.929 . S
C206 C205 1.398 . S
C206 C207 1.352 . S
C207 C206 1.352 . S
C207 C208 1.384 1_565 S
C207 H234 0.930 . S
C208 C203 1.407 . S
C208 C207 1.384 1_545 S
C208 H235 0.929 . S
C209 O222 1.241 . S
C209 O223 1.273 . S
C210 O224 1.251 . S
C210 O225 1.268 . S
C211 Nd201 2.836 . S
C211 C212 1.498 . S
C211 O226 1.258 . S
C211 O227 1.239 . S
C212 C211 1.498 . S
C212 C213 1.366 1_556 S
C212 C217 1.407 . S
C213 C212 1.366 1_554 S
C213 C214 1.392 . S
C213 H236 0.930 . S
C214 C213 1.392 . S
C214 C215 1.398 . S
C214 H237 0.929 . S
C215 C214 1.398 . S
C215 C216 1.352 . S
C216 C215 1.352 . S
C216 C217 1.384 1_554 S
C216 H238 0.930 . S
C217 C212 1.407 . S
C217 C216 1.384 1_556 S
C217 H239 0.929 . S
C218 O228 1.241 . S
C218 O229 1.273 . S
C219 O230 1.251 1_554 S
C219 O231 1.268 1_554 S
O220 Nd200 2.500 . S
O220 C202 1.258 . S
O221 Nd200 2.492 . S
O221 C202 1.239 . S
O222 Nd200 2.487 . S
O222 C209 1.241 . S
O223 Nd200 2.682 . S
O223 Nd201 2.414 . S
O223 C209 1.273 . S
O224 Nd200 2.410 . S
O224 C210 1.251 . S
O225 Nd201 2.424 . S
O225 C210 1.268 . S
O226 Nd201 2.500 . S
O226 C211 1.258 . S
O227 Nd201 2.492 . S
O227 C211 1.239 . S
O228 Nd201 2.487 . S
O228 C218 1.241 . S
O229 Nd200 2.414 . S
O229 Nd201 2.682 . S
O229 C218 1.273 . S
O230 Nd201 2.410 . S
O230 C219 1.251 1_556 S
O231 Nd200 2.424 . S
O231 C219 1.268 1_556 S
H232 C204 0.930 . S
H233 C205 0.929 . S
H234 C207 0.930 . S
H235 C208 0.929 . S
H236 C213 0.930 . S
H237 C214 0.929 . S
H238 C216 0.930 . S
H239 C217 0.929 . S
C209 C6 2.760 . S
C9 C46 2.759 1_554 S
C49 C86 2.759 . S
C89 C126 2.760 . S
C166 C129 2.759 1_556 S
C206 C169 2.759 . S
C10 C19 2.759 . S
C50 C59 2.759 . S
C90 C99 2.759 . S
C130 C139 2.759 . S
C179 C170 2.759 . S
C210 C219 2.759 . S
C15 C178 2.963 . S
C55 C218 2.962 . S
C18 C95 2.963 1_556 S
C58 C135 2.963 . S
C175 C98 2.963 . S
C138 C215 2.963 1_556 S
