# Generated by pormake.
# Topology ttw, (5)-cn, num edge types: 1
# Building blocks:
#     Node 0, Type 0, BuildingBlock: BEQFEK_clean_sbu_0, # of connection points: 5
#     Node 1, Type 0, BuildingBlock: BEQFEK_clean_sbu_0, # of connection points: 5
#     Node 2, Type 0, BuildingBlock: BEQFEK_clean_sbu_0, # of connection points: 5
#     Node 3, Type 0, BuildingBlock: BEQFEK_clean_sbu_0, # of connection points: 5
#     Node 4, Type 0, BuildingBlock: BEQFEK_clean_sbu_0, # of connection points: 5
#     Node 5, Type 0, BuildingBlock: BEQFEK_clean_sbu_0, # of connection points: 5
#     Edge 6, Type (0, 0), BuildingBlock: MIFKUJ_clean_linker_0, # of connection points: 2
#     Edge 7, Type (0, 0), BuildingBlock: MIFKUJ_clean_linker_0, # of connection points: 2
#     Edge 8, Type (0, 0), BuildingBlock: MIFKUJ_clean_linker_0, # of connection points: 2
#     Edge 9, Type (0, 0), BuildingBlock: MIFKUJ_clean_linker_0, # of connection points: 2
#     Edge 10, Type (0, 0), BuildingBlock: MIFKUJ_clean_linker_0, # of connection points: 2
#     Edge 11, Type (0, 0), BuildingBlock: MIFKUJ_clean_linker_0, # of connection points: 2
#     Edge 12, Type (0, 0), BuildingBlock: MIFKUJ_clean_linker_0, # of connection points: 2
#     Edge 13, Type (0, 0), BuildingBlock: MIFKUJ_clean_linker_0, # of connection points: 2
#     Edge 14, Type (0, 0), BuildingBlock: MIFKUJ_clean_linker_0, # of connection points: 2
#     Edge 15, Type (0, 0), BuildingBlock: MIFKUJ_clean_linker_0, # of connection points: 2
#     Edge 16, Type (0, 0), BuildingBlock: MIFKUJ_clean_linker_0, # of connection points: 2
#     Edge 17, Type (0, 0), BuildingBlock: MIFKUJ_clean_linker_0, # of connection points: 2
#     Edge 18, Type (0, 0), BuildingBlock: MIFKUJ_clean_linker_0, # of connection points: 2
#     Edge 19, Type (0, 0), BuildingBlock: MIFKUJ_clean_linker_0, # of connection points: 2
#     Edge 20, Type (0, 0), BuildingBlock: MIFKUJ_clean_linker_0, # of connection points: 2
# Relax obj value: 0.118
# Max RMSD: 0.171
# Mean RMSD: 0.158
data_MOF--net-ttw--node1-BEQFEK_clean_sbu_0--edge1-MIFKUJ_clean_linker_0
_symmetry_space_group_name_H-M    P1
_symmetry_Int_Tables_number       1
_symmetry_cell_setting            triclinic
loop_
_symmetry_equiv_pos_as_xyz
'x, y, z'
_cell_length_a     70.899886
_cell_length_b     73.994696
_cell_length_c     24.007974
_cell_angle_alpha  91.361793
_cell_angle_beta   90.04185
_cell_angle_gamma 125.69977
loop_
_atom_site_label
_atom_site_type_symbol
_atom_site_fract_x
_atom_site_fract_y
_atom_site_fract_z
_atom_type_partial_charge
Co0 Co 0.17025 0.53182 0.03712 0.0
Co1 Co 0.17276 0.53658 0.16802 0.0
C2 C 0.2011 0.52512 0.10667 0.0
O3 O 0.19289 0.52576 0.06008 0.0
O4 O 0.19465 0.5287 0.15266 0.0
C5 C 0.16412 0.51118 0.92791 0.0
O6 O 0.16616 0.49698 0.95398 0.0
C7 C 0.17314 0.53108 0.29081 0.0
C8 C 0.15795 0.54857 0.31938 0.0
C9 C 0.16645 0.53703 0.3383 0.0
N10 N 0.16843 0.53854 0.24602 0.0
N11 N 0.15948 0.54905 0.26359 0.0
C12 C 0.18516 0.51989 0.28797 0.0
H13 H 0.1987 0.5276 0.25588 0.0
H14 H 0.17231 0.50207 0.27596 0.0
H15 H 0.19347 0.52121 0.32846 0.0
C16 C 0.12024 0.49952 0.06025 0.0
N17 N 0.14249 0.51435 0.07703 0.0
N18 N 0.14357 0.51591 0.13184 0.0
C19 C 0.12201 0.50184 0.1517 0.0
C20 C 0.10653 0.49114 0.10706 0.0
C21 C 0.11227 0.49452 0.00057 0.0
H22 H 0.12147 0.51018 0.97727 0.0
H23 H 0.11664 0.48358 0.98173 0.0
H24 H 0.09326 0.48608 0.99652 0.0
O25 O 0.18454 0.56382 0.04957 0.0
O26 O 0.18725 0.56714 0.14171 0.0
H27 H 0.11631 0.51172 0.23057 0.0
H28 H 0.09917 0.48199 0.21846 0.0
C29 C 0.11642 0.49789 0.21225 0.0
H30 H 0.12982 0.49737 0.23437 0.0
H31 H 0.15435 0.55654 0.2373 0.0
O32 O 0.16473 0.52634 0.9558 0.0
C33 C 0.19074 0.57571 0.09416 0.0
Co34 Co 0.47599 0.15947 0.14385 0.0
Co35 Co 0.47923 0.15611 0.01375 0.0
C36 C 0.47582 0.19098 0.06809 0.0
O37 O 0.47456 0.18358 0.11629 0.0
O38 O 0.47751 0.18184 0.02457 0.0
C39 C 0.47419 0.17262 0.25644 0.0
O40 O 0.48284 0.19208 0.23479 0.0
C41 C 0.46947 0.15351 0.89312 0.0
C42 C 0.48767 0.13955 0.85999 0.0
C43 C 0.47467 0.14709 0.84395 0.0
N44 N 0.47902 0.14994 0.936 0.0
N45 N 0.48992 0.14166 0.91584 0.0
C46 C 0.45488 0.16195 0.89996 0.0
H47 H 0.46628 0.18042 0.8997 0.0
H48 H 0.44594 0.15683 0.94051 0.0
H49 H 0.44187 0.15562 0.86546 0.0
C50 C 0.44056 0.11149 0.12617 0.0
N51 N 0.45447 0.13203 0.10581 0.0
N52 N 0.45542 0.13043 0.05133 0.0
C53 C 0.44204 0.10873 0.03536 0.0
C54 C 0.43245 0.09593 0.08241 0.0
C55 C 0.43783 0.10684 0.18709 0.0
H56 H 0.45487 0.11253 0.20565 0.0
H57 H 0.43209 0.11633 0.20805 0.0
H58 H 0.42492 0.08884 0.19452 0.0
O59 O 0.50805 0.16814 0.13423 0.0
O60 O 0.50976 0.16508 0.04245 0.0
H61 H 0.45907 0.10303 0.97143 0.0
H62 H 0.42811 0.08238 0.97198 0.0
C63 C 0.44215 0.10037 0.97806 0.0
H64 H 0.4399 0.10973 0.94662 0.0
H65 H 0.49901 0.13755 0.94027 0.0
O66 O 0.46984 0.1565 0.22496 0.0
C67 C 0.51906 0.16946 0.0908 0.0
Co68 Co 0.47865 0.64285 0.02321 0.0
Co69 Co 0.4809 0.64442 0.15379 0.0
C70 C 0.49097 0.68324 0.09332 0.0
O71 O 0.48672 0.67227 0.04769 0.0
O72 O 0.48994 0.6749 0.14007 0.0
C73 C 0.4994 0.6595 0.91716 0.0
O74 O 0.51717 0.67544 0.94729 0.0
C75 C 0.49248 0.65394 0.27506 0.0
C76 C 0.47457 0.61956 0.30424 0.0
C77 C 0.48812 0.64164 0.32231 0.0
N78 N 0.48205 0.63966 0.23107 0.0
N79 N 0.47124 0.61918 0.24903 0.0
C80 C 0.50723 0.67871 0.27099 0.0
H81 H 0.49586 0.68447 0.27145 0.0
H82 H 0.51668 0.68364 0.23112 0.0
H83 H 0.51981 0.68687 0.30648 0.0
C84 C 0.51144 0.63073 0.03855 0.0
N85 N 0.49837 0.63712 0.05854 0.0
N86 N 0.50014 0.6387 0.11332 0.0
C87 C 0.51493 0.63395 0.12983 0.0
C88 C 0.52248 0.62866 0.08302 0.0
C89 C 0.51303 0.6265 0.97803 0.0
H90 H 0.49555 0.61731 0.95793 0.0
H91 H 0.52439 0.6427 0.95754 0.0
H92 H 0.52057 0.61707 0.97159 0.0
O93 O 0.44598 0.61959 0.03997 0.0
O94 O 0.44766 0.62227 0.13223 0.0
H95 H 0.50501 0.61708 0.2068 0.0
H96 H 0.53549 0.63226 0.19382 0.0
C97 C 0.52014 0.63259 0.18942 0.0
H98 H 0.52326 0.64701 0.21391 0.0
H99 H 0.46174 0.6049 0.22331 0.0
O100 O 0.48157 0.64361 0.94128 0.0
C101 C 0.43612 0.61357 0.08687 0.0
Co102 Co 0.79739 0.34569 0.17148 0.0
Co103 Co 0.80378 0.34918 0.04167 0.0
C104 C 0.76267 0.30876 0.09257 0.0
O105 O 0.77017 0.31699 0.14152 0.0
O106 O 0.77377 0.3194 0.04946 0.0
C107 C 0.7906 0.32655 0.27919 0.0
O108 O 0.78271 0.30805 0.25038 0.0
C109 C 0.80275 0.34237 0.91905 0.0
C110 C 0.83259 0.37584 0.89521 0.0
C111 C 0.81504 0.35505 0.87338 0.0
N112 N 0.81294 0.35509 0.96561 0.0
N113 N 0.83066 0.37507 0.95091 0.0
C114 C 0.78006 0.3198 0.91869 0.0
H115 H 0.76756 0.32047 0.94467 0.0
H116 H 0.78264 0.30781 0.9374 0.0
H117 H 0.77245 0.31386 0.87619 0.0
C118 C 0.84455 0.35634 0.1664 0.0
N119 N 0.82509 0.35163 0.14145 0.0
N120 N 0.82746 0.35196 0.08701 0.0
C121 C 0.84837 0.35634 0.07566 0.0
C122 C 0.85993 0.35944 0.12562 0.0
C123 C 0.84836 0.35814 0.22819 0.0
H124 H 0.84496 0.36986 0.2466 0.0
H125 H 0.83587 0.34158 0.24609 0.0
H126 H 0.86621 0.36375 0.23958 0.0
O127 O 0.7936 0.36946 0.15449 0.0
O128 O 0.7993 0.37236 0.06337 0.0
H129 H 0.86588 0.37677 0.00596 0.0
H130 H 0.87162 0.35654 0.01671 0.0
C131 C 0.85795 0.35942 0.01833 0.0
H132 H 0.84391 0.34779 0.98814 0.0
H133 H 0.84107 0.3884 0.97897 0.0
O134 O 0.79785 0.34429 0.25361 0.0
C135 C 0.79515 0.37853 0.10875 0.0
Co136 Co 0.41667 0.84402 0.12507 0.0
Co137 Co 0.41273 0.84267 0.99417 0.0
C138 C 0.44938 0.84147 0.05154 0.0
O139 O 0.44229 0.84282 0.09912 0.0
O140 O 0.43956 0.84115 0.00662 0.0
C141 C 0.43851 0.86063 0.23429 0.0
O142 O 0.45816 0.87194 0.20735 0.0
C143 C 0.42079 0.84906 0.87178 0.0
C144 C 0.387 0.84144 0.8445 0.0
C145 C 0.40827 0.84751 0.82493 0.0
N146 N 0.40751 0.84439 0.91686 0.0
N147 N 0.38735 0.83979 0.90003 0.0
C148 C 0.44405 0.85306 0.87353 0.0
H149 H 0.44375 0.84149 0.90258 0.0
H150 H 0.45727 0.87032 0.88919 0.0
H151 H 0.44907 0.85056 0.83187 0.0
C152 C 0.41728 0.88393 0.11142 0.0
N153 N 0.41716 0.86686 0.09022 0.0
N154 N 0.41632 0.86686 0.03542 0.0
C155 C 0.41624 0.88422 0.02005 0.0
C156 C 0.41666 0.89547 0.06764 0.0
C157 C 0.41597 0.88782 0.17233 0.0
H158 H 0.40341 0.87172 0.19222 0.0
H159 H 0.43329 0.89541 0.19211 0.0
H160 H 0.41057 0.89903 0.17978 0.0
O161 O 0.38684 0.81496 0.10944 0.0
O162 O 0.38406 0.81423 0.0173 0.0
H163 H 0.39817 0.87963 0.94389 0.0
H164 H 0.42265 0.90794 0.95838 0.0
C165 C 0.41618 0.89024 0.96101 0.0
H166 H 0.42726 0.88738 0.9354 0.0
H167 H 0.37374 0.83539 0.92662 0.0
O168 O 0.41946 0.8484 0.20703 0.0
C169 C 0.37594 0.80524 0.06399 0.0
Co170 Co 0.63612 0.46537 0.16366 0.0
Co171 Co 0.63361 0.46626 0.03331 0.0
C172 C 0.6746 0.47304 0.08966 0.0
O173 O 0.66551 0.47077 0.1371 0.0
O174 O 0.6643 0.47198 0.0449 0.0
C175 C 0.64994 0.46515 0.27521 0.0
O176 O 0.66022 0.45706 0.25083 0.0
C177 C 0.64244 0.47583 0.91361 0.0
C178 C 0.60677 0.46057 0.88159 0.0
C179 C 0.6296 0.47163 0.86515 0.0
N180 N 0.62778 0.46749 0.95656 0.0
N181 N 0.60651 0.45841 0.93708 0.0
C182 C 0.66822 0.48837 0.91975 0.0
H183 H 0.67277 0.47635 0.91972 0.0
H184 H 0.67423 0.49795 0.95998 0.0
H185 H 0.67723 0.49991 0.88499 0.0
C186 C 0.62665 0.4992 0.15414 0.0
N187 N 0.63123 0.48537 0.1313 0.0
N188 N 0.63076 0.4862 0.07666 0.0
C189 C 0.62606 0.50074 0.06299 0.0
C190 C 0.62315 0.50931 0.11151 0.0
C191 C 0.62368 0.50105 0.21522 0.0
H192 H 0.61113 0.48417 0.23155 0.0
H193 H 0.64056 0.50841 0.23715 0.0
H194 H 0.61745 0.51151 0.22417 0.0
O195 O 0.60987 0.43401 0.14543 0.0
O196 O 0.60945 0.43529 0.05329 0.0
H197 H 0.60674 0.49253 0.98684 0.0
H198 H 0.62554 0.52194 0.00349 0.0
C199 C 0.62396 0.50612 0.0046 0.0
H200 H 0.63766 0.50755 0.97859 0.0
H201 H 0.59176 0.45056 0.96173 0.0
O202 O 0.63851 0.46979 0.24564 0.0
C203 C 0.60151 0.42451 0.0979 0.0
H204 H 0.07726 0.49741 0.16134 0.0
H205 H 0.03506 0.47123 0.16788 0.0
H206 H 0.03637 0.42333 0.06503 0.0
H207 H 0.07874 0.44984 0.05766 0.0
H208 H 0.00135 0.42508 0.0345 0.0
H209 H 0.02981 0.41769 0.20628 0.0
H210 H 0.05343 0.43094 0.29297 0.0
H211 H 0.018 0.45872 0.35201 0.0
H212 H 0.99442 0.44596 0.26525 0.0
H213 H 0.88273 0.34179 0.09076 0.0
H214 H 0.92492 0.36033 0.09284 0.0
H215 H 0.93481 0.41718 0.17921 0.0
H216 H 0.89279 0.3988 0.1765 0.0
H217 H 0.96404 0.40649 0.21936 0.0
H218 H 0.93907 0.41745 0.04344 0.0
H219 H 0.91523 0.40417 0.9571 0.0
H220 H 0.94437 0.36937 0.90641 0.0
H221 H 0.96804 0.38208 0.99311 0.0
C222 C 0.06848 0.48125 0.14032 0.0
C223 C 0.08106 0.47545 0.10938 0.0
C224 C 0.04444 0.4663 0.14418 0.0
C225 C 0.03264 0.44515 0.11788 0.0
C226 C 0.04517 0.43951 0.0859 0.0
C227 C 0.06927 0.45459 0.08167 0.0
C228 C 0.00717 0.42914 0.12347 0.0
C229 C 0.99322 0.42065 0.07493 0.0
C230 C 0.99656 0.4236 0.17628 0.0
C231 C 0.01043 0.43097 0.22904 0.0
C232 C 0.02713 0.42673 0.2376 0.0
C233 C 0.04052 0.43415 0.28677 0.0
C234 C 0.03724 0.44569 0.32795 0.0
C235 C 0.02052 0.44978 0.32008 0.0
C236 C 0.00712 0.44243 0.27093 0.0
C237 C 0.894 0.35815 0.1106 0.0
C238 C 0.88476 0.36905 0.13303 0.0
C239 C 0.91797 0.36866 0.11193 0.0
C240 C 0.93292 0.39018 0.13574 0.0
C241 C 0.92354 0.40054 0.16082 0.0
C242 C 0.89962 0.39009 0.15923 0.0
C243 C 0.95837 0.40277 0.13049 0.0
C244 C 0.97226 0.41064 0.17904 0.0
C245 C 0.96894 0.40771 0.07775 0.0
C246 C 0.95513 0.4005 0.02504 0.0
C247 C 0.94027 0.40684 0.01407 0.0
C248 C 0.92679 0.39942 0.96507 0.0
C249 C 0.92824 0.38589 0.92636 0.0
C250 C 0.94323 0.37981 0.9365 0.0
C251 C 0.95668 0.38711 0.98557 0.0
H252 H 0.91778 0.38015 0.88845 0.0
H253 H 0.04763 0.45144 0.36597 0.0
H254 H 0.38388 0.89815 0.01844 0.0
H255 H 0.38059 0.92933 0.02429 0.0
H256 H 0.44201 0.96614 0.13009 0.0
H257 H 0.44499 0.93476 0.12502 0.0
H258 H 0.4095 0.97028 0.16868 0.0
H259 H 0.44332 0.97583 0.9894 0.0
H260 H 0.44456 0.96191 0.89609 0.0
H261 H 0.38069 0.95233 0.85003 0.0
H262 H 0.3789 0.96588 0.94343 0.0
H263 H 0.4557 0.08266 0.13583 0.0
H264 H 0.44642 0.04533 0.13722 0.0
H265 H 0.38436 0.02003 0.0386 0.0
H266 H 0.39375 0.05775 0.03729 0.0
H267 H 0.4101 0.00658 0.99687 0.0
H268 H 0.3798 0.00645 0.17395 0.0
H269 H 0.37995 0.02142 0.26692 0.0
H270 H 0.43831 0.02179 0.31724 0.0
H271 H 0.43875 0.00714 0.22428 0.0
C272 C 0.39668 0.91298 0.04269 0.0
C273 C 0.41478 0.91428 0.07099 0.0
C274 C 0.3948 0.93073 0.04607 0.0
C275 C 0.4112 0.95016 0.07714 0.0
C276 C 0.42913 0.95129 0.10598 0.0
C277 C 0.43089 0.93347 0.10297 0.0
C278 C 0.41005 0.96952 0.07898 0.0
C279 C 0.40976 0.97831 0.13115 0.0
C280 C 0.40963 0.97954 0.02991 0.0
C281 C 0.41084 0.97163 0.97358 0.0
C282 C 0.42946 0.9706 0.9595 0.0
C283 C 0.43027 0.9628 0.90659 0.0
C284 C 0.41268 0.95618 0.86721 0.0
C285 C 0.39428 0.95742 0.88061 0.0
C286 C 0.39336 0.96517 0.93352 0.0
C287 C 0.4398 0.06903 0.11557 0.0
C288 C 0.42523 0.07288 0.08705 0.0
C289 C 0.43451 0.04773 0.11634 0.0
C290 C 0.41452 0.02984 0.08871 0.0
C291 C 0.39978 0.0336 0.0605 0.0
C292 C 0.40508 0.05503 0.05983 0.0
C293 C 0.41014 0.00768 0.08663 0.0
C294 C 0.40939 0.99834 0.03441 0.0
C295 C 0.40974 0.99722 0.13567 0.0
C296 C 0.40936 0.00579 0.19196 0.0
C297 C 0.39276 0.00984 0.20471 0.0
C298 C 0.39273 0.01826 0.25744 0.0
C299 C 0.40915 0.02258 0.29794 0.0
C300 C 0.42559 0.01843 0.28583 0.0
C301 C 0.42571 0.01004 0.23314 0.0
H302 H 0.4091 0.0291 0.33873 0.0
H303 H 0.41333 0.95014 0.82627 0.0
H304 H 0.58221 0.49824 0.07028 0.0
H305 H 0.56804 0.52146 0.06863 0.0
H306 H 0.6297 0.57398 0.15862 0.0
H307 H 0.64361 0.5503 0.16155 0.0
H308 H 0.59115 0.57038 0.19391 0.0
H309 H 0.62624 0.57599 0.01952 0.0
H310 H 0.63327 0.5614 0.93479 0.0
H311 H 0.56213 0.52826 0.88262 0.0
H312 H 0.55454 0.54231 0.96758 0.0
H313 H 0.56678 0.64814 0.1205 0.0
H314 H 0.58754 0.6308 0.1263 0.0
H315 H 0.52855 0.57044 0.0496 0.0
H316 H 0.50776 0.58764 0.04456 0.0
H317 H 0.57082 0.58247 0.00721 0.0
H318 H 0.53533 0.57424 0.18571 0.0
H319 H 0.52811 0.58846 0.27091 0.0
H320 H 0.60068 0.62705 0.31486 0.0
H321 H 0.60839 0.61338 0.22928 0.0
C322 C 0.59258 0.51468 0.09009 0.0
C323 C 0.61402 0.52273 0.11549 0.0
C324 C 0.58456 0.52793 0.08903 0.0
C325 C 0.5981 0.54962 0.11236 0.0
C326 C 0.6191 0.55734 0.14006 0.0
C327 C 0.62702 0.54391 0.14167 0.0
C328 C 0.59057 0.56436 0.10546 0.0
C329 C 0.58712 0.57339 0.15307 0.0
C330 C 0.58514 0.5681 0.0521 0.0
C331 C 0.58979 0.56011 0.00013 0.0
C332 C 0.61206 0.56551 0.99011 0.0
C333 C 0.61615 0.55733 0.94205 0.0
C334 C 0.59816 0.54389 0.90338 0.0
C335 C 0.57605 0.53867 0.91261 0.0
C336 C 0.57185 0.54676 0.9607 0.0
C337 C 0.55843 0.63123 0.10462 0.0
C338 C 0.5358 0.61913 0.08208 0.0
C339 C 0.57022 0.62138 0.10793 0.0
C340 C 0.55947 0.59932 0.08866 0.0
C341 C 0.53714 0.58751 0.06447 0.0
C342 C 0.52532 0.59731 0.06152 0.0
C343 C 0.57096 0.58807 0.09565 0.0
C344 C 0.57518 0.57973 0.04798 0.0
C345 C 0.57717 0.58506 0.14887 0.0
C346 C 0.57248 0.59299 0.20077 0.0
C347 C 0.54978 0.5859 0.21331 0.0
C348 C 0.54559 0.59384 0.26169 0.0
C349 C 0.56393 0.6087 0.2982 0.0
C350 C 0.58649 0.61558 0.28648 0.0
C351 C 0.59078 0.60774 0.23804 0.0
H352 H 0.56066 0.61483 0.33564 0.0
H353 H 0.60135 0.53755 0.86622 0.0
H354 H 0.15912 0.49961 0.38371 0.0
H355 H 0.16019 0.49281 0.48254 0.0
H356 H 0.17536 0.55706 0.52567 0.0
H357 H 0.17551 0.56437 0.42707 0.0
H358 H 0.20105 0.55031 0.58749 0.0
H359 H 0.12012 0.50794 0.53392 0.0
H360 H 0.0852 0.4801 0.47805 0.0
H361 H 0.09162 0.42868 0.52925 0.0
H362 H 0.1268 0.4563 0.58483 0.0
H363 H 0.16444 0.54097 0.86251 0.0
H364 H 0.16535 0.5422 0.76116 0.0
H365 H 0.16191 0.48208 0.75173 0.0
H366 H 0.16108 0.48069 0.85383 0.0
H367 H 0.13233 0.48382 0.67262 0.0
H368 H 0.21212 0.52767 0.73486 0.0
H369 H 0.24557 0.55655 0.79306 0.0
H370 H 0.23963 0.60649 0.72705 0.0
H371 H 0.20593 0.57785 0.66899 0.0
C372 C 0.16336 0.51254 0.41416 0.0
C373 C 0.16779 0.53276 0.39757 0.0
C374 C 0.16357 0.50848 0.47071 0.0
C375 C 0.16772 0.52438 0.5116 0.0
C376 C 0.17224 0.54459 0.49494 0.0
C377 C 0.17219 0.5487 0.43858 0.0
C378 C 0.16694 0.52001 0.57189 0.0
C379 C 0.18596 0.53582 0.60604 0.0
C380 C 0.14745 0.50086 0.59607 0.0
C381 C 0.12624 0.48422 0.56297 0.0
C382 C 0.11418 0.49072 0.53291 0.0
C383 C 0.09433 0.47499 0.50135 0.0
C384 C 0.08624 0.45265 0.49995 0.0
C385 C 0.09794 0.446 0.53027 0.0
C386 C 0.11783 0.46168 0.56182 0.0
C387 C 0.16371 0.52788 0.83907 0.0
C388 C 0.16286 0.5108 0.86632 0.0
C389 C 0.16429 0.52866 0.78111 0.0
C390 C 0.16399 0.51239 0.74914 0.0
C391 C 0.16225 0.49483 0.77585 0.0
C392 C 0.16183 0.4941 0.8341 0.0
C393 C 0.16621 0.51433 0.68792 0.0
C394 C 0.14752 0.4981 0.65374 0.0
C395 C 0.18585 0.53324 0.66371 0.0
C396 C 0.20639 0.55058 0.69784 0.0
C397 C 0.21786 0.54479 0.73299 0.0
C398 C 0.23688 0.56112 0.76593 0.0
C399 C 0.24469 0.58334 0.76384 0.0
C400 C 0.23356 0.58928 0.72864 0.0
C401 C 0.21452 0.573 0.69564 0.0
H402 H 0.2594 0.59595 0.78942 0.0
H403 H 0.07087 0.4405 0.47548 0.0
H404 H 0.46051 0.13582 0.31564 0.0
H405 H 0.45646 0.13175 0.41635 0.0
H406 H 0.475 0.19845 0.43558 0.0
H407 H 0.47966 0.20286 0.33483 0.0
H408 H 0.49835 0.19233 0.50808 0.0
H409 H 0.4185 0.15196 0.45344 0.0
H410 H 0.38285 0.1242 0.39976 0.0
H411 H 0.3847 0.07156 0.46384 0.0
H412 H 0.42055 0.09903 0.51736 0.0
H413 H 0.47491 0.18072 0.79714 0.0
H414 H 0.47013 0.18486 0.69834 0.0
H415 H 0.45918 0.12213 0.65955 0.0
H416 H 0.46356 0.11773 0.7584 0.0
H417 H 0.42965 0.12777 0.59863 0.0
H418 H 0.51142 0.16872 0.64544 0.0
H419 H 0.5472 0.19652 0.69868 0.0
H420 H 0.54127 0.24835 0.64846 0.0
H421 H 0.50524 0.22078 0.59553 0.0
C422 C 0.46358 0.14959 0.3412 0.0
C423 C 0.47046 0.1697 0.31719 0.0
C424 C 0.4611 0.14718 0.39882 0.0
C425 C 0.46514 0.1647 0.43357 0.0
C426 C 0.47175 0.1847 0.40961 0.0
C427 C 0.47437 0.18718 0.35199 0.0
C428 C 0.46366 0.16253 0.49505 0.0
C429 C 0.48312 0.17845 0.5279 0.0
C430 C 0.44397 0.14419 0.52097 0.0
C431 C 0.42233 0.12758 0.48909 0.0
C432 C 0.4114 0.13448 0.4558 0.0
C433 C 0.39114 0.11879 0.42544 0.0
C434 C 0.38154 0.09613 0.4283 0.0
C435 C 0.39216 0.08911 0.46165 0.0
C436 C 0.41243 0.10474 0.49206 0.0
C437 C 0.47079 0.1675 0.76785 0.0
C438 C 0.4693 0.14875 0.78555 0.0
C439 C 0.46832 0.17 0.71131 0.0
C440 C 0.46443 0.15385 0.67163 0.0
C441 C 0.46209 0.13475 0.68951 0.0
C442 C 0.46471 0.13231 0.74589 0.0
C443 C 0.46436 0.15748 0.61119 0.0
C444 C 0.44469 0.1418 0.57866 0.0
C445 C 0.4838 0.17607 0.58549 0.0
C446 C 0.5055 0.19266 0.61711 0.0
C447 C 0.51764 0.18602 0.64615 0.0
C448 C 0.53798 0.20174 0.67619 0.0
C449 C 0.54646 0.22418 0.6771 0.0
C450 C 0.53465 0.23096 0.64782 0.0
C451 C 0.51427 0.21529 0.61778 0.0
H452 H 0.56222 0.23633 0.70037 0.0
H453 H 0.36586 0.08402 0.40476 0.0
H454 H 0.53733 0.68108 0.85034 0.0
H455 H 0.53762 0.68139 0.74839 0.0
H456 H 0.46262 0.64073 0.74419 0.0
H457 H 0.4623 0.63943 0.8456 0.0
H458 H 0.47511 0.62539 0.67119 0.0
H459 H 0.49859 0.69894 0.71706 0.0
H460 H 0.52214 0.73606 0.76367 0.0
H461 H 0.58303 0.75036 0.68146 0.0
H462 H 0.55991 0.71319 0.63495 0.0
H463 H 0.48689 0.67316 0.38097 0.0
H464 H 0.49172 0.68016 0.48221 0.0
H465 H 0.50942 0.63367 0.49663 0.0
H466 H 0.50404 0.62627 0.39607 0.0
H467 H 0.52418 0.69402 0.56322 0.0
H468 H 0.48168 0.6006 0.60343 0.0
H469 H 0.45383 0.56394 0.55721 0.0
H470 H 0.42305 0.59061 0.46823 0.0
H471 H 0.45046 0.62731 0.51452 0.0
C472 C 0.52094 0.67225 0.82751 0.0
C473 C 0.4998 0.66017 0.85578 0.0
C474 C 0.52111 0.67257 0.76927 0.0
C475 C 0.50014 0.66134 0.73839 0.0
C476 C 0.47904 0.64947 0.76688 0.0
C477 C 0.47887 0.64874 0.82489 0.0
C478 C 0.5 0.66109 0.67641 0.0
C479 C 0.48585 0.64046 0.64781 0.0
C480 C 0.51363 0.68074 0.64548 0.0
C481 C 0.52755 0.7032 0.67289 0.0
C482 C 0.51703 0.70995 0.70918 0.0
C483 C 0.5303 0.731 0.73556 0.0
C484 C 0.55407 0.74554 0.72563 0.0
C485 C 0.56462 0.73907 0.68916 0.0
C486 C 0.55143 0.71802 0.66273 0.0
C487 C 0.49242 0.66493 0.40568 0.0
C488 C 0.49507 0.64916 0.38094 0.0
C489 C 0.49511 0.66888 0.46347 0.0
C490 C 0.50051 0.65713 0.49705 0.0
C491 C 0.5048 0.6426 0.47166 0.0
C492 C 0.50179 0.63843 0.41426 0.0
C493 C 0.49958 0.65834 0.55867 0.0
C494 C 0.51348 0.67906 0.58698 0.0
C495 C 0.48507 0.63887 0.58953 0.0
C496 C 0.4683 0.61675 0.56203 0.0
C497 C 0.4689 0.59861 0.57417 0.0
C498 C 0.4532 0.57783 0.54794 0.0
C499 C 0.43674 0.57497 0.50967 0.0
C500 C 0.43587 0.59287 0.49772 0.0
C501 C 0.4515 0.61366 0.52391 0.0
H502 H 0.42461 0.55888 0.48937 0.0
H503 H 0.56432 0.76182 0.74613 0.0
H504 H 0.80118 0.31589 0.81911 0.0
H505 H 0.79366 0.30714 0.71892 0.0
H506 H 0.81244 0.37316 0.69167 0.0
H507 H 0.81899 0.3816 0.79168 0.0
H508 H 0.77458 0.34321 0.63256 0.0
H509 H 0.85005 0.35891 0.66589 0.0
H510 H 0.87792 0.35379 0.71046 0.0
H511 H 0.83832 0.28598 0.64889 0.0
H512 H 0.81003 0.29063 0.60456 0.0
H513 H 0.80396 0.3616 0.35011 0.0
H514 H 0.80501 0.36239 0.4517 0.0
H515 H 0.7801 0.29348 0.44989 0.0
H516 H 0.77908 0.29252 0.34774 0.0
H517 H 0.81685 0.31979 0.52413 0.0
H518 H 0.74346 0.30596 0.48249 0.0
H519 H 0.71668 0.31221 0.4366 0.0
H520 H 0.75333 0.37762 0.51301 0.0
H521 H 0.78055 0.37189 0.55875 0.0
C522 C 0.80317 0.32832 0.79182 0.0
C523 C 0.81015 0.34924 0.81324 0.0
C524 C 0.7992 0.32342 0.73454 0.0
C525 C 0.80256 0.33953 0.69777 0.0
C526 C 0.8096 0.36043 0.71925 0.0
C527 C 0.81347 0.36528 0.77635 0.0
C528 C 0.79905 0.33491 0.63676 0.0
C529 C 0.78395 0.33823 0.60882 0.0
C530 C 0.81078 0.32783 0.60597 0.0
C531 C 0.82779 0.32503 0.6325 0.0
C532 C 0.84719 0.34285 0.66226 0.0
C533 C 0.86308 0.34005 0.6874 0.0
C534 C 0.85986 0.31955 0.68266 0.0
C535 C 0.84077 0.30184 0.65263 0.0
C536 C 0.82481 0.30455 0.62746 0.0
C537 C 0.79867 0.34657 0.37117 0.0
C538 C 0.79134 0.32695 0.34081 0.0
C539 C 0.7992 0.34704 0.42928 0.0
C540 C 0.79236 0.32791 0.45826 0.0
C541 C 0.78536 0.30838 0.42822 0.0
C542 C 0.78474 0.30786 0.36992 0.0
C543 C 0.79281 0.32858 0.51998 0.0
C544 C 0.80727 0.32448 0.54801 0.0
C545 C 0.7806 0.33509 0.55088 0.0
C546 C 0.76415 0.33854 0.52374 0.0
C547 C 0.74592 0.32174 0.4892 0.0
C548 C 0.73064 0.32518 0.46326 0.0
C549 C 0.73333 0.34532 0.4718 0.0
C550 C 0.75127 0.36204 0.50641 0.0
C551 C 0.76662 0.35869 0.53241 0.0
H552 H 0.72149 0.34795 0.45168 0.0
H553 H 0.87218 0.31741 0.70215 0.0
H554 H 0.4013 0.83596 0.30145 0.0
H555 H 0.40053 0.83765 0.40269 0.0
H556 H 0.47414 0.88974 0.40857 0.0
H557 H 0.47519 0.88779 0.30656 0.0
H558 H 0.46252 0.85985 0.48761 0.0
H559 H 0.43557 0.90229 0.43025 0.0
H560 H 0.41203 0.91049 0.37583 0.0
H561 H 0.34973 0.85462 0.44563 0.0
H562 H 0.37287 0.84586 0.49985 0.0
H563 H 0.45068 0.87876 0.77931 0.0
H564 H 0.45998 0.88436 0.68002 0.0
H565 H 0.38926 0.83011 0.63747 0.0
H566 H 0.38001 0.82418 0.73619 0.0
H567 H 0.40452 0.86738 0.57863 0.0
H568 H 0.43221 0.82334 0.62845 0.0
H569 H 0.45626 0.81557 0.68228 0.0
H570 H 0.51818 0.87613 0.6271 0.0
H571 H 0.49446 0.88441 0.57354 0.0
C572 C 0.41736 0.84783 0.3241 0.0
C573 C 0.43829 0.86186 0.29587 0.0
C574 C 0.41687 0.84883 0.38207 0.0
C575 C 0.4372 0.86411 0.41319 0.0
C576 C 0.45823 0.87791 0.38533 0.0
C577 C 0.45878 0.87682 0.32708 0.0
C578 C 0.43619 0.86539 0.47479 0.0
C579 C 0.45017 0.86194 0.50763 0.0
C580 C 0.41997 0.86798 0.5009 0.0
C581 C 0.40597 0.87335 0.4689 0.0
C582 C 0.41684 0.89167 0.43377 0.0
C583 C 0.40357 0.89643 0.40297 0.0
C584 C 0.3794 0.88307 0.40721 0.0
C585 C 0.36846 0.86495 0.44238 0.0
C586 C 0.38165 0.86011 0.47322 0.0
C587 C 0.4373 0.86766 0.74881 0.0
C588 C 0.41475 0.85068 0.76553 0.0
C589 C 0.44259 0.87101 0.69213 0.0
C590 C 0.42533 0.85755 0.65144 0.0
C591 C 0.40282 0.84069 0.66818 0.0
C592 C 0.39758 0.83731 0.72459 0.0
C593 C 0.43029 0.86113 0.59119 0.0
C594 C 0.4171 0.86561 0.55864 0.0
C595 C 0.44733 0.85965 0.56555 0.0
C596 C 0.46156 0.85463 0.59756 0.0
C597 C 0.45095 0.8351 0.6282 0.0
C598 C 0.46452 0.83058 0.65858 0.0
C599 C 0.48873 0.84539 0.65826 0.0
C600 C 0.49942 0.8647 0.62741 0.0
C601 C 0.48593 0.86931 0.59702 0.0
H602 H 0.4992 0.84186 0.68179 0.0
H603 H 0.36915 0.88677 0.38331 0.0
H604 H 0.67445 0.45872 0.3501 0.0
H605 H 0.67588 0.4634 0.45149 0.0
H606 H 0.62987 0.48352 0.44029 0.0
H607 H 0.62871 0.47933 0.33886 0.0
H608 H 0.66401 0.50923 0.51505 0.0
H609 H 0.60976 0.43058 0.47487 0.0
H610 H 0.59682 0.39404 0.43419 0.0
H611 H 0.64996 0.3965 0.52772 0.0
H612 H 0.66342 0.43321 0.56841 0.0
H613 H 0.6138 0.48426 0.78284 0.0
H614 H 0.62278 0.48715 0.68372 0.0
H615 H 0.67075 0.47052 0.71612 0.0
H616 H 0.66149 0.4672 0.81519 0.0
H617 H 0.63994 0.44494 0.63217 0.0
H618 H 0.69133 0.52247 0.67989 0.0
H619 H 0.70267 0.55833 0.72174 0.0
H620 H 0.65347 0.55748 0.61526 0.0
H621 H 0.64157 0.52144 0.5733 0.0
C622 C 0.66469 0.46421 0.36918 0.0
C623 C 0.65132 0.46849 0.33645 0.0
C624 C 0.66549 0.46683 0.42714 0.0
C625 C 0.65276 0.47354 0.45348 0.0
C626 C 0.63983 0.47831 0.42083 0.0
C627 C 0.6391 0.47581 0.36286 0.0
C628 C 0.65237 0.47505 0.51511 0.0
C629 C 0.65858 0.49513 0.54067 0.0
C630 C 0.64582 0.45681 0.54859 0.0
C631 C 0.63776 0.43475 0.52416 0.0
C632 C 0.61881 0.42341 0.48639 0.0
C633 C 0.61136 0.40266 0.4634 0.0
C634 C 0.62261 0.39299 0.47822 0.0
C635 C 0.6413 0.40403 0.51619 0.0
C636 C 0.64883 0.4248 0.53924 0.0
C637 C 0.62655 0.48159 0.76889 0.0
C638 C 0.63726 0.47591 0.8068 0.0
C639 C 0.63174 0.48334 0.71237 0.0
C640 C 0.64764 0.47931 0.69271 0.0
C641 C 0.65861 0.47391 0.7306 0.0
C642 C 0.6535 0.47228 0.78726 0.0
C643 C 0.65135 0.47904 0.63209 0.0
C644 C 0.64569 0.45915 0.60666 0.0
C645 C 0.65824 0.4974 0.59881 0.0
C646 C 0.66543 0.51915 0.62373 0.0
C647 C 0.68279 0.52984 0.66568 0.0
C648 C 0.68935 0.55022 0.68937 0.0
C649 C 0.67877 0.56016 0.67124 0.0
C650 C 0.66164 0.54976 0.62928 0.0
C651 C 0.65501 0.52937 0.60547 0.0
H652 H 0.68387 0.57593 0.68964 0.0
H653 H 0.61682 0.37692 0.4604 0.0
H654 H 0.21666 0.51319 0.01902 0.0
H655 H 0.2536 0.51776 0.01377 0.0
H656 H 0.26739 0.53813 0.18759 0.0
H657 H 0.23036 0.53319 0.1935 0.0
H658 H 0.29295 0.55723 0.02674 0.0
H659 H 0.3073 0.5321 0.24205 0.0
H660 H 0.28471 0.50272 0.31021 0.0
H661 H 0.23704 0.45842 0.1805 0.0
H662 H 0.25951 0.48741 0.11139 0.0
H663 H 0.40807 0.60262 0.17674 0.0
H664 H 0.36569 0.57856 0.17732 0.0
H665 H 0.36399 0.56235 0.00273 0.0
H666 H 0.40641 0.58692 0.00133 0.0
H667 H 0.33102 0.53575 0.15555 0.0
H668 H 0.32031 0.56039 0.93862 0.0
H669 H 0.34246 0.59093 0.8729 0.0
H670 H 0.38147 0.63693 0.00938 0.0
H671 H 0.35934 0.60673 0.07587 0.0
C672 C 0.22726 0.51806 0.05655 0.0
C673 C 0.22069 0.52312 0.10652 0.0
C674 C 0.24837 0.52065 0.05345 0.0
C675 C 0.26331 0.52834 0.10019 0.0
C676 C 0.25604 0.53186 0.15113 0.0
C677 C 0.23484 0.52913 0.15438 0.0
C678 C 0.28771 0.53594 0.0938 0.0
C679 C 0.30109 0.55203 0.05397 0.0
C680 C 0.29851 0.5297 0.13039 0.0
C681 C 0.28503 0.51203 0.17157 0.0
C682 C 0.29207 0.51606 0.22798 0.0
C683 C 0.27927 0.49947 0.26682 0.0
C684 C 0.25942 0.47874 0.24972 0.0
C685 C 0.25237 0.47452 0.19372 0.0
C686 C 0.26512 0.49104 0.15471 0.0
C687 C 0.39871 0.59377 0.13855 0.0
C688 C 0.41061 0.597 0.08873 0.0
C689 C 0.37447 0.57991 0.13906 0.0
C690 C 0.36167 0.56894 0.08989 0.0
C691 C 0.37353 0.57099 0.04093 0.0
C692 C 0.39777 0.58505 0.04021 0.0
C693 C 0.33611 0.5571 0.08895 0.0
C694 C 0.32263 0.54042 0.12753 0.0
C695 C 0.32512 0.56289 0.05155 0.0
C696 C 0.33839 0.58124 0.01206 0.0
C697 C 0.33359 0.57704 0.95454 0.0
C698 C 0.34613 0.59428 0.91719 0.0
C699 C 0.36343 0.61584 0.93694 0.0
C700 C 0.36814 0.62021 0.99411 0.0
C701 C 0.35561 0.60304 0.03164 0.0
H702 H 0.37314 0.62916 0.90794 0.0
H703 H 0.24953 0.46593 0.27986 0.0
H704 H 0.54515 0.16629 0.01288 0.0
H705 H 0.587 0.18405 0.01679 0.0
H706 H 0.59066 0.20956 0.18285 0.0
H707 H 0.54877 0.19168 0.17965 0.0
H708 H 0.62069 0.24213 0.10667 0.0
H709 H 0.59979 0.17164 0.16937 0.0
H710 H 0.57902 0.13088 0.16482 0.0
H711 H 0.61096 0.13546 0.00887 0.0
H712 H 0.63167 0.17624 0.01207 0.0
H713 H 0.73959 0.27598 0.1682 0.0
H714 H 0.69811 0.24553 0.1665 0.0
H715 H 0.69112 0.26396 0.00288 0.0
H716 H 0.73263 0.29421 0.00371 0.0
H717 H 0.66323 0.20792 0.08333 0.0
H718 H 0.64928 0.2734 0.02642 0.0
H719 H 0.6704 0.31418 0.02945 0.0
H720 H 0.70761 0.31895 0.17688 0.0
H721 H 0.68631 0.2781 0.17525 0.0
C722 C 0.55479 0.17538 0.05061 0.0
C723 C 0.54369 0.17773 0.09582 0.0
C724 C 0.57867 0.18541 0.05283 0.0
C725 C 0.59184 0.19807 0.1001 0.0
C726 C 0.58071 0.19979 0.14606 0.0
C727 C 0.55679 0.18953 0.14417 0.0
C728 C 0.61747 0.21135 0.09933 0.0
C729 C 0.62994 0.23459 0.10191 0.0
C730 C 0.6295 0.2015 0.09267 0.0
C731 C 0.61713 0.17699 0.09073 0.0
C732 C 0.60223 0.16394 0.13385 0.0
C733 C 0.5905 0.14083 0.13157 0.0
C734 C 0.59362 0.13058 0.08652 0.0
C735 C 0.60854 0.14342 0.04372 0.0
C736 C 0.6203 0.16654 0.04578 0.0
C737 C 0.72936 0.27311 0.13113 0.0
C738 C 0.73928 0.28763 0.08633 0.0
C739 C 0.70573 0.25562 0.13011 0.0
C740 C 0.69166 0.25267 0.08474 0.0
C741 C 0.70182 0.26601 0.03815 0.0
C742 C 0.72552 0.28329 0.03874 0.0
C743 C 0.66617 0.23853 0.09019 0.0
C744 C 0.65383 0.21529 0.08828 0.0
C745 C 0.65412 0.24828 0.09758 0.0
C746 C 0.6664 0.27276 0.1003 0.0
C747 C 0.66188 0.28316 0.05964 0.0
C748 C 0.6739 0.3063 0.06111 0.0
C749 C 0.69044 0.31921 0.10321 0.0
C750 C 0.69486 0.30896 0.14416 0.0
C751 C 0.68282 0.28581 0.14297 0.0
H752 H 0.6998 0.33713 0.10424 0.0
H753 H 0.58453 0.11268 0.08483 0.0
H754 H 0.48753 0.70267 0.00284 0.0
H755 H 0.49249 0.73791 0.99927 0.0
H756 H 0.51156 0.75055 0.17401 0.0
H757 H 0.5057 0.71451 0.17849 0.0
H758 H 0.48057 0.7575 0.15388 0.0
H759 H 0.55188 0.78221 0.06743 0.0
H760 H 0.57752 0.78024 0.00221 0.0
H761 H 0.53996 0.78121 0.86333 0.0
H762 H 0.51391 0.78292 0.92766 0.0
H763 H 0.48125 0.8508 0.13217 0.0
H764 H 0.50184 0.83361 0.14019 0.0
H765 H 0.47681 0.80319 0.9763 0.0
H766 H 0.45669 0.82081 0.96732 0.0
H767 H 0.5193 0.81133 0.00197 0.0
H768 H 0.44363 0.77727 0.08706 0.0
H769 H 0.41652 0.77808 0.1496 0.0
H770 H 0.46198 0.79366 0.28939 0.0
H771 H 0.48953 0.79326 0.22741 0.0
C772 C 0.49307 0.713 0.04053 0.0
C773 C 0.49613 0.70569 0.09108 0.0
C774 C 0.49616 0.73335 0.03823 0.0
C775 C 0.50288 0.74718 0.08607 0.0
C776 C 0.50653 0.74023 0.13643 0.0
C777 C 0.50315 0.71963 0.13896 0.0
C778 C 0.50354 0.76759 0.08423 0.0
C779 C 0.48966 0.76964 0.12168 0.0
C780 C 0.51495 0.78321 0.04143 0.0
C781 C 0.53088 0.78263 0.00248 0.0
C782 C 0.54902 0.78192 0.02299 0.0
C783 C 0.56364 0.78086 0.98616 0.0
C784 C 0.56036 0.78059 0.92867 0.0
C785 C 0.5425 0.78145 0.90788 0.0
C786 C 0.52784 0.78253 0.94453 0.0
C787 C 0.48079 0.84108 0.09704 0.0
C788 C 0.46692 0.83672 0.04962 0.0
C789 C 0.49258 0.83129 0.1017 0.0
C790 C 0.49029 0.81665 0.05949 0.0
C791 C 0.47868 0.81433 0.00951 0.0
C792 C 0.46713 0.82438 0.00449 0.0
C793 C 0.49612 0.80083 0.07101 0.0
C794 C 0.51096 0.79958 0.03522 0.0
C795 C 0.48554 0.7858 0.11515 0.0
C796 C 0.46872 0.78547 0.1526 0.0
C797 C 0.44787 0.78096 0.13111 0.0
C798 C 0.43244 0.78135 0.16642 0.0
C799 C 0.43756 0.78598 0.22341 0.0
C800 C 0.45807 0.79012 0.24522 0.0
C801 C 0.47359 0.78981 0.21004 0.0
H802 H 0.42561 0.78632 0.25069 0.0
H803 H 0.57166 0.77971 0.90022 0.0
H804 H 0.76735 0.38278 0.17767 0.0
H805 H 0.75511 0.40739 0.16665 0.0
H806 H 0.79991 0.4371 0.02579 0.0
H807 H 0.81164 0.41197 0.03517 0.0
H808 H 0.79385 0.46537 0.13176 0.0
H809 H 0.76069 0.41202 0.97171 0.0
H810 H 0.73974 0.37421 0.9294 0.0
H811 H 0.68134 0.35279 0.03353 0.0
H812 H 0.70237 0.3902 0.07807 0.0
H813 H 0.69657 0.47301 0.99589 0.0
H814 H 0.72695 0.46701 0.99094 0.0
H815 H 0.73131 0.469 0.17045 0.0
H816 H 0.7012 0.47524 0.1759 0.0
H817 H 0.71862 0.42963 0.02999 0.0
H818 H 0.78384 0.48184 0.21272 0.0
H819 H 0.80346 0.51925 0.25671 0.0
H820 H 0.79669 0.54427 0.10412 0.0
H821 H 0.77734 0.5071 0.05892 0.0
C822 C 0.77489 0.39481 0.14494 0.0
C823 C 0.79033 0.3954 0.10705 0.0
C824 C 0.76788 0.40881 0.13871 0.0
C825 C 0.77658 0.42389 0.0953 0.0
C826 C 0.79303 0.42548 0.05945 0.0
C827 C 0.79963 0.41111 0.06478 0.0
C828 C 0.76677 0.43644 0.08476 0.0
C829 C 0.77751 0.45776 0.10916 0.0
C830 C 0.74564 0.42646 0.05471 0.0
C831 C 0.73331 0.40379 0.029 0.0
C832 C 0.74361 0.39911 0.98649 0.0
C833 C 0.73169 0.37775 0.96199 0.0
C834 C 0.70929 0.36103 0.97906 0.0
C835 C 0.69877 0.36566 0.02063 0.0
C836 C 0.71072 0.38691 0.04569 0.0
C837 C 0.70442 0.47279 0.03435 0.0
C838 C 0.69614 0.47421 0.08631 0.0
C839 C 0.7218 0.46937 0.0314 0.0
C840 C 0.73135 0.46751 0.08028 0.0
C841 C 0.7244 0.47064 0.13216 0.0
C842 C 0.70701 0.47404 0.13518 0.0
C843 C 0.74546 0.45868 0.07749 0.0
C844 C 0.73531 0.43773 0.05131 0.0
C845 C 0.7671 0.46909 0.10585 0.0
C846 C 0.77899 0.4916 0.13253 0.0
C847 C 0.78665 0.49534 0.18842 0.0
C848 C 0.7977 0.51651 0.21361 0.0
C849 C 0.80127 0.53411 0.18327 0.0
C850 C 0.79384 0.5306 0.12763 0.0
C851 C 0.78279 0.50947 0.10224 0.0
H852 H 0.80982 0.55048 0.20286 0.0
H853 H 0.70004 0.34454 0.95981 0.0
H854 H 0.19577 0.59984 0.00343 0.0
H855 H 0.22227 0.64022 0.99474 0.0
H856 H 0.24355 0.64711 0.16695 0.0
H857 H 0.21655 0.60696 0.17654 0.0
H858 H 0.2421 0.68062 0.14151 0.0
H859 H 0.27423 0.64406 0.05629 0.0
H860 H 0.27374 0.61772 0.99023 0.0
H861 H 0.26839 0.65066 0.85274 0.0
H862 H 0.26861 0.67706 0.91808 0.0
H863 H 0.35695 0.77782 0.15253 0.0
H864 H 0.32123 0.74018 0.15352 0.0
H865 H 0.30857 0.74428 0.98002 0.0
H866 H 0.34467 0.78183 0.97825 0.0
H867 H 0.30241 0.70627 0.99801 0.0
H868 H 0.27598 0.74635 0.08484 0.0
H869 H 0.27727 0.77275 0.15218 0.0
H870 H 0.27254 0.73353 0.28771 0.0
H871 H 0.27154 0.70704 0.22124 0.0
C872 C 0.20583 0.61 0.03968 0.0
C873 C 0.20427 0.60018 0.0905 0.0
C874 C 0.22103 0.63307 0.03458 0.0
C875 C 0.2353 0.64664 0.07983 0.0
C876 C 0.23279 0.63698 0.13139 0.0
C877 C 0.21736 0.61398 0.13677 0.0
C878 C 0.25397 0.67062 0.07293 0.0
C879 C 0.25536 0.68625 0.11031 0.0
C880 C 0.27096 0.67802 0.03132 0.0
C881 C 0.27119 0.66237 0.99205 0.0
C882 C 0.27283 0.64561 0.01198 0.0
C883 C 0.27262 0.63068 0.97468 0.0
C884 C 0.27097 0.63248 0.91733 0.0
C885 C 0.26963 0.64927 0.89717 0.0
C886 C 0.26982 0.66423 0.9343 0.0
C887 C 0.34649 0.77082 0.11465 0.0
C888 C 0.35367 0.78284 0.0653 0.0
C889 C 0.32598 0.74932 0.11538 0.0
C890 C 0.31202 0.73952 0.06705 0.0
C891 C 0.31903 0.75154 0.01783 0.0
C892 C 0.33967 0.773 0.01693 0.0
C893 C 0.29082 0.71628 0.06729 0.0
C894 C 0.28898 0.70077 0.02867 0.0
C895 C 0.27349 0.709 0.10791 0.0
C896 C 0.27383 0.72478 0.14802 0.0
C897 C 0.27535 0.74342 0.12902 0.0
C898 C 0.27601 0.75839 0.16704 0.0
C899 C 0.27502 0.75484 0.22419 0.0
C900 C 0.27331 0.73627 0.24343 0.0
C901 C 0.27265 0.72125 0.20559 0.0
H902 H 0.27556 0.76647 0.25356 0.0
H903 H 0.27077 0.62089 0.88852 0.0
H904 H 0.4724 0.21482 0.1512 0.0
H905 H 0.48696 0.25385 0.14985 0.0
H906 H 0.50167 0.25552 0.97499 0.0
H907 H 0.48738 0.21645 0.97602 0.0
H908 H 0.53959 0.2863 0.03468 0.0
H909 H 0.46156 0.26372 0.01956 0.0
H910 H 0.42022 0.24319 0.04347 0.0
H911 H 0.43919 0.27481 0.20622 0.0
H912 H 0.48068 0.29531 0.1836 0.0
H913 H 0.584 0.3985 0.00301 0.0
H914 H 0.55666 0.35813 0.99513 0.0
H915 H 0.54983 0.35479 0.17368 0.0
H916 H 0.57752 0.39545 0.18234 0.0
H917 H 0.50644 0.32517 0.10893 0.0
H918 H 0.58395 0.34485 0.12677 0.0
H919 H 0.62538 0.36509 0.10399 0.0
H920 H 0.6069 0.33813 0.93645 0.0
H921 H 0.56532 0.31799 0.95802 0.0
C922 C 0.47816 0.22327 0.11203 0.0
C923 C 0.47908 0.21258 0.06392 0.0
C924 C 0.48638 0.24561 0.1113 0.0
C925 C 0.49551 0.25763 0.06239 0.0
C926 C 0.49478 0.24655 0.01325 0.0
C927 C 0.48652 0.22418 0.01389 0.0
C928 C 0.50868 0.28222 0.06457 0.0
C929 C 0.53214 0.29477 0.04976 0.0
C930 C 0.49921 0.29325 0.08615 0.0
C931 C 0.47427 0.28092 0.10002 0.0
C932 C 0.45694 0.26616 0.06064 0.0
C933 C 0.43347 0.25455 0.07392 0.0
C934 C 0.42709 0.25766 0.12638 0.0
C935 C 0.44416 0.27241 0.16562 0.0
C936 C 0.46766 0.28405 0.15256 0.0
C937 C 0.57655 0.38931 0.04074 0.0
C938 C 0.58316 0.40023 0.09344 0.0
C939 C 0.56089 0.36621 0.03605 0.0
C940 C 0.5514 0.35356 0.08382 0.0
C941 C 0.557 0.36436 0.13635 0.0
C942 C 0.5729 0.38755 0.1412 0.0
C943 C 0.53712 0.32899 0.07872 0.0
C944 C 0.51364 0.31656 0.09327 0.0
C945 C 0.54652 0.31796 0.05704 0.0
C946 C 0.57152 0.33014 0.04382 0.0
C947 C 0.58872 0.34343 0.08489 0.0
C948 C 0.61223 0.35485 0.07224 0.0
C949 C 0.61878 0.35296 0.01875 0.0
C950 C 0.60181 0.33961 0.97783 0.0
C951 C 0.57826 0.32819 0.99025 0.0
H952 H 0.63699 0.36177 0.00907 0.0
H953 H 0.4089 0.24866 0.13657 0.0
loop_
_geom_bond_atom_site_label_1
_geom_bond_atom_site_label_2
_geom_bond_distance
_geom_bond_site_symmetry_2
_ccdc_geom_bond_type
Co0 O3 1.970 . S
Co0 N17 1.989 . S
Co0 O25 1.967 . S
Co0 O32 1.920 1_554 S
Co1 O4 1.966 . S
Co1 N10 2.022 . S
Co1 N18 1.993 . S
Co1 O26 1.941 . S
C2 O3 1.258 . S
C2 O4 1.263 . S
O3 Co0 1.970 . S
O3 C2 1.258 . S
O4 Co1 1.966 . S
O4 C2 1.263 . S
C5 O6 1.235 . S
C5 O32 1.289 . S
O6 C5 1.235 . S
C7 C9 1.400 . S
C7 N10 1.351 . S
C7 C12 1.501 . S
C8 C9 1.387 . S
C8 N11 1.341 . S
C9 C7 1.400 . S
C9 C8 1.387 . S
N10 Co1 2.022 . S
N10 C7 1.351 . S
N10 N11 1.365 . S
N11 C8 1.341 . S
N11 N10 1.365 . S
N11 H31 0.862 . S
C12 C7 1.501 . S
C12 H13 0.961 . S
C12 H14 0.961 . S
C12 H15 0.960 . S
H13 C12 0.961 . S
H14 C12 0.961 . S
H15 C12 0.960 . S
C16 N17 1.342 . S
C16 C20 1.401 . S
C16 C21 1.499 1_554 S
N17 Co0 1.989 . S
N17 C16 1.342 . S
N17 N18 1.388 . S
N18 Co1 1.993 . S
N18 N17 1.388 . S
N18 C19 1.346 . S
C19 N18 1.346 . S
C19 C20 1.396 . S
C19 C29 1.510 . S
C20 C16 1.401 . S
C20 C19 1.396 . S
C21 C16 1.499 1_556 S
C21 H22 0.959 . S
C21 H23 0.960 . S
C21 H24 0.961 . S
H22 C21 0.959 . S
H23 C21 0.960 . S
H24 C21 0.961 . S
O25 Co0 1.967 . S
O25 C33 1.258 . S
O26 Co1 1.941 . S
O26 C33 1.266 . S
H27 C29 0.959 . S
H28 C29 0.961 . S
C29 C19 1.510 . S
C29 H27 0.959 . S
C29 H28 0.961 . S
C29 H30 0.960 . S
H30 C29 0.960 . S
H31 N11 0.862 . S
O32 Co0 1.920 1_556 S
O32 C5 1.289 . S
C33 O25 1.258 . S
C33 O26 1.266 . S
Co34 O37 1.970 . S
Co34 N51 1.989 . S
Co34 O59 1.967 . S
Co34 O66 1.920 . S
Co35 O38 1.966 . S
Co35 N44 2.022 1_554 S
Co35 N52 1.993 . S
Co35 O60 1.941 . S
C36 O37 1.258 . S
C36 O38 1.263 . S
O37 Co34 1.970 . S
O37 C36 1.258 . S
O38 Co35 1.966 . S
O38 C36 1.263 . S
C39 O40 1.235 . S
C39 O66 1.289 . S
O40 C39 1.235 . S
C41 C43 1.400 . S
C41 N44 1.351 . S
C41 C46 1.501 . S
C42 C43 1.387 . S
C42 N45 1.341 . S
C43 C41 1.400 . S
C43 C42 1.387 . S
N44 Co35 2.022 1_556 S
N44 C41 1.351 . S
N44 N45 1.365 . S
N45 C42 1.341 . S
N45 N44 1.365 . S
N45 H65 0.862 . S
C46 C41 1.501 . S
C46 H47 0.961 . S
C46 H48 0.961 . S
C46 H49 0.960 . S
H47 C46 0.961 . S
H48 C46 0.961 . S
H49 C46 0.960 . S
C50 N51 1.342 . S
C50 C54 1.401 . S
C50 C55 1.499 . S
N51 Co34 1.989 . S
N51 C50 1.342 . S
N51 N52 1.388 . S
N52 Co35 1.993 . S
N52 N51 1.388 . S
N52 C53 1.346 . S
C53 N52 1.346 . S
C53 C54 1.396 . S
C53 C63 1.510 1_554 S
C54 C50 1.401 . S
C54 C53 1.396 . S
C55 C50 1.499 . S
C55 H56 0.959 . S
C55 H57 0.960 . S
C55 H58 0.961 . S
H56 C55 0.959 . S
H57 C55 0.960 . S
H58 C55 0.961 . S
O59 Co34 1.967 . S
O59 C67 1.258 . S
O60 Co35 1.941 . S
O60 C67 1.266 . S
H61 C63 0.959 . S
H62 C63 0.961 . S
C63 C53 1.510 1_556 S
C63 H61 0.959 . S
C63 H62 0.961 . S
C63 H64 0.960 . S
H64 C63 0.960 . S
H65 N45 0.862 . S
O66 Co34 1.920 . S
O66 C39 1.289 . S
C67 O59 1.258 . S
C67 O60 1.266 . S
Co68 O71 1.970 . S
Co68 N85 1.989 . S
Co68 O93 1.967 . S
Co68 O100 1.920 1_554 S
Co69 O72 1.966 . S
Co69 N78 2.022 . S
Co69 N86 1.993 . S
Co69 O94 1.941 . S
C70 O71 1.258 . S
C70 O72 1.263 . S
O71 Co68 1.970 . S
O71 C70 1.258 . S
O72 Co69 1.966 . S
O72 C70 1.263 . S
C73 O74 1.235 . S
C73 O100 1.289 . S
O74 C73 1.235 . S
C75 C77 1.400 . S
C75 N78 1.351 . S
C75 C80 1.501 . S
C76 C77 1.387 . S
C76 N79 1.341 . S
C77 C75 1.400 . S
C77 C76 1.387 . S
N78 Co69 2.022 . S
N78 C75 1.351 . S
N78 N79 1.365 . S
N79 C76 1.341 . S
N79 N78 1.365 . S
N79 H99 0.862 . S
C80 C75 1.501 . S
C80 H81 0.961 . S
C80 H82 0.961 . S
C80 H83 0.960 . S
H81 C80 0.961 . S
H82 C80 0.961 . S
H83 C80 0.960 . S
C84 N85 1.342 . S
C84 C88 1.401 . S
C84 C89 1.499 1_554 S
N85 Co68 1.989 . S
N85 C84 1.342 . S
N85 N86 1.388 . S
N86 Co69 1.993 . S
N86 N85 1.388 . S
N86 C87 1.346 . S
C87 N86 1.346 . S
C87 C88 1.396 . S
C87 C97 1.510 . S
C88 C84 1.401 . S
C88 C87 1.396 . S
C89 C84 1.499 1_556 S
C89 H90 0.959 . S
C89 H91 0.960 . S
C89 H92 0.961 . S
H90 C89 0.959 . S
H91 C89 0.960 . S
H92 C89 0.961 . S
O93 Co68 1.967 . S
O93 C101 1.258 . S
O94 Co69 1.941 . S
O94 C101 1.266 . S
H95 C97 0.959 . S
H96 C97 0.961 . S
C97 C87 1.510 . S
C97 H95 0.959 . S
C97 H96 0.961 . S
C97 H98 0.960 . S
H98 C97 0.960 . S
H99 N79 0.862 . S
O100 Co68 1.920 1_556 S
O100 C73 1.289 . S
C101 O93 1.258 . S
C101 O94 1.266 . S
Co102 O105 1.970 . S
Co102 N119 1.989 . S
Co102 O127 1.967 . S
Co102 O134 1.920 . S
Co103 O106 1.966 . S
Co103 N112 2.022 1_554 S
Co103 N120 1.993 . S
Co103 O128 1.941 . S
C104 O105 1.258 . S
C104 O106 1.263 . S
O105 Co102 1.970 . S
O105 C104 1.258 . S
O106 Co103 1.966 . S
O106 C104 1.263 . S
C107 O108 1.235 . S
C107 O134 1.289 . S
O108 C107 1.235 . S
C109 C111 1.400 . S
C109 N112 1.351 . S
C109 C114 1.501 . S
C110 C111 1.387 . S
C110 N113 1.341 . S
C111 C109 1.400 . S
C111 C110 1.387 . S
N112 Co103 2.022 1_556 S
N112 C109 1.351 . S
N112 N113 1.365 . S
N113 C110 1.341 . S
N113 N112 1.365 . S
N113 H133 0.862 . S
C114 C109 1.501 . S
C114 H115 0.961 . S
C114 H116 0.961 . S
C114 H117 0.960 . S
H115 C114 0.961 . S
H116 C114 0.961 . S
H117 C114 0.960 . S
C118 N119 1.342 . S
C118 C122 1.401 . S
C118 C123 1.499 . S
N119 Co102 1.989 . S
N119 C118 1.342 . S
N119 N120 1.388 . S
N120 Co103 1.993 . S
N120 N119 1.388 . S
N120 C121 1.346 . S
C121 N120 1.346 . S
C121 C122 1.396 . S
C121 C131 1.510 1_554 S
C122 C118 1.401 . S
C122 C121 1.396 . S
C123 C118 1.499 . S
C123 H124 0.959 . S
C123 H125 0.960 . S
C123 H126 0.961 . S
H124 C123 0.959 . S
H125 C123 0.960 . S
H126 C123 0.961 . S
O127 Co102 1.967 . S
O127 C135 1.258 . S
O128 Co103 1.941 . S
O128 C135 1.266 . S
H129 C131 0.959 . S
H130 C131 0.961 . S
C131 C121 1.510 1_556 S
C131 H129 0.959 . S
C131 H130 0.961 . S
C131 H132 0.960 . S
H132 C131 0.960 . S
H133 N113 0.862 . S
O134 Co102 1.920 . S
O134 C107 1.289 . S
C135 O127 1.258 . S
C135 O128 1.266 . S
Co136 O139 1.970 . S
Co136 N153 1.989 . S
Co136 O161 1.967 . S
Co136 O168 1.920 . S
Co137 O140 1.966 1_556 S
Co137 N146 2.022 . S
Co137 N154 1.993 1_556 S
Co137 O162 1.941 1_556 S
C138 O139 1.258 . S
C138 O140 1.263 . S
O139 Co136 1.970 . S
O139 C138 1.258 . S
O140 Co137 1.966 1_554 S
O140 C138 1.263 . S
C141 O142 1.235 . S
C141 O168 1.289 . S
O142 C141 1.235 . S
C143 C145 1.400 . S
C143 N146 1.351 . S
C143 C148 1.501 . S
C144 C145 1.387 . S
C144 N147 1.341 . S
C145 C143 1.400 . S
C145 C144 1.387 . S
N146 Co137 2.022 . S
N146 C143 1.351 . S
N146 N147 1.365 . S
N147 C144 1.341 . S
N147 N146 1.365 . S
N147 H167 0.862 . S
C148 C143 1.501 . S
C148 H149 0.961 . S
C148 H150 0.961 . S
C148 H151 0.960 . S
H149 C148 0.961 . S
H150 C148 0.961 . S
H151 C148 0.960 . S
C152 N153 1.342 . S
C152 C156 1.401 . S
C152 C157 1.499 . S
N153 Co136 1.989 . S
N153 C152 1.342 . S
N153 N154 1.388 . S
N154 Co137 1.993 1_554 S
N154 N153 1.388 . S
N154 C155 1.346 . S
C155 N154 1.346 . S
C155 C156 1.396 . S
C155 C165 1.510 1_554 S
C156 C152 1.401 . S
C156 C155 1.396 . S
C157 C152 1.499 . S
C157 H158 0.959 . S
C157 H159 0.960 . S
C157 H160 0.961 . S
H158 C157 0.959 . S
H159 C157 0.960 . S
H160 C157 0.961 . S
O161 Co136 1.967 . S
O161 C169 1.258 . S
O162 Co137 1.941 1_554 S
O162 C169 1.266 . S
H163 C165 0.959 . S
H164 C165 0.961 . S
C165 C155 1.510 1_556 S
C165 H163 0.959 . S
C165 H164 0.961 . S
C165 H166 0.960 . S
H166 C165 0.960 . S
H167 N147 0.862 . S
O168 Co136 1.920 . S
O168 C141 1.289 . S
C169 O161 1.258 . S
C169 O162 1.266 . S
Co170 O173 1.970 . S
Co170 N187 1.989 . S
Co170 O195 1.967 . S
Co170 O202 1.920 . S
Co171 O174 1.966 . S
Co171 N180 2.022 1_554 S
Co171 N188 1.993 . S
Co171 O196 1.941 . S
C172 O173 1.258 . S
C172 O174 1.263 . S
O173 Co170 1.970 . S
O173 C172 1.258 . S
O174 Co171 1.966 . S
O174 C172 1.263 . S
C175 O176 1.235 . S
C175 O202 1.289 . S
O176 C175 1.235 . S
C177 C179 1.400 . S
C177 N180 1.351 . S
C177 C182 1.501 . S
C178 C179 1.387 . S
C178 N181 1.341 . S
C179 C177 1.400 . S
C179 C178 1.387 . S
N180 Co171 2.022 1_556 S
N180 C177 1.351 . S
N180 N181 1.365 . S
N181 C178 1.341 . S
N181 N180 1.365 . S
N181 H201 0.862 . S
C182 C177 1.501 . S
C182 H183 0.961 . S
C182 H184 0.961 . S
C182 H185 0.960 . S
H183 C182 0.961 . S
H184 C182 0.961 . S
H185 C182 0.960 . S
C186 N187 1.342 . S
C186 C190 1.401 . S
C186 C191 1.499 . S
N187 Co170 1.989 . S
N187 C186 1.342 . S
N187 N188 1.388 . S
N188 Co171 1.993 . S
N188 N187 1.388 . S
N188 C189 1.346 . S
C189 N188 1.346 . S
C189 C190 1.396 . S
C189 C199 1.510 1_554 S
C190 C186 1.401 . S
C190 C189 1.396 . S
C191 C186 1.499 . S
C191 H192 0.959 . S
C191 H193 0.960 . S
C191 H194 0.961 . S
H192 C191 0.959 . S
H193 C191 0.960 . S
H194 C191 0.961 . S
O195 Co170 1.967 . S
O195 C203 1.258 . S
O196 Co171 1.941 . S
O196 C203 1.266 . S
H197 C199 0.959 . S
H198 C199 0.961 . S
C199 C189 1.510 1_556 S
C199 H197 0.959 . S
C199 H198 0.961 . S
C199 H200 0.960 . S
H200 C199 0.960 . S
H201 N181 0.862 . S
O202 Co170 1.920 . S
O202 C175 1.289 . S
C203 O195 1.258 . S
C203 O196 1.266 . S
H204 C222 0.951 . S
H205 C224 0.951 . S
H206 C226 0.950 . S
H207 C227 0.950 . S
H208 C229 0.950 . S
H209 C232 0.950 . S
H210 C233 0.950 . S
H211 C235 0.950 . S
H212 C236 0.950 . S
H213 C237 0.951 . S
H214 C239 0.951 . S
H215 C241 0.950 . S
H216 C242 0.950 . S
H217 C244 0.950 . S
H218 C247 0.950 . S
H219 C248 0.950 . S
H220 C250 0.950 . S
H221 C251 0.950 . S
C222 H204 0.951 . S
C222 C223 1.366 . S
C222 C224 1.388 . S
C223 C222 1.366 . S
C223 C227 1.385 . S
C224 H205 0.951 . S
C224 C222 1.388 . S
C224 C225 1.366 . S
C225 C224 1.366 . S
C225 C226 1.414 . S
C225 C228 1.499 . S
C226 H206 0.950 . S
C226 C225 1.414 . S
C226 C227 1.374 . S
C227 H207 0.950 . S
C227 C223 1.385 . S
C227 C226 1.374 . S
C228 C225 1.499 . S
C228 C229 1.373 . S
C228 C230 1.389 . S
C229 H208 0.950 . S
C229 C228 1.373 . S
C229 C245 1.377 1_455 S
C230 C228 1.389 . S
C230 C231 1.524 . S
C230 C244 1.377 1_455 S
C231 C230 1.524 . S
C231 C232 1.397 . S
C231 C236 1.363 . S
C232 H209 0.950 . S
C232 C231 1.397 . S
C232 C233 1.334 . S
C233 H210 0.950 . S
C233 C232 1.334 . S
C233 C234 1.287 . S
C234 C233 1.287 . S
C234 C235 1.524 . S
C234 H253 0.913 . S
C235 H211 0.950 . S
C235 C234 1.524 . S
C235 C236 1.415 . S
C236 H212 0.950 . S
C236 C231 1.363 . S
C236 C235 1.415 . S
C237 H213 0.951 . S
C237 C238 1.366 . S
C237 C239 1.388 . S
C238 C237 1.366 . S
C238 C242 1.385 . S
C239 H214 0.951 . S
C239 C237 1.388 . S
C239 C240 1.366 . S
C240 C239 1.366 . S
C240 C241 1.414 . S
C240 C243 1.499 . S
C241 H215 0.950 . S
C241 C240 1.414 . S
C241 C242 1.374 . S
C242 H216 0.950 . S
C242 C238 1.385 . S
C242 C241 1.374 . S
C243 C240 1.499 . S
C243 C244 1.373 . S
C243 C245 1.389 . S
C244 H217 0.950 . S
C244 C230 1.377 1_655 S
C244 C243 1.373 . S
C245 C229 1.377 1_655 S
C245 C243 1.389 . S
C245 C246 1.508 1_554 S
C246 C245 1.508 1_556 S
C246 C247 1.407 . S
C246 C251 1.370 . S
C247 H218 0.950 . S
C247 C246 1.407 . S
C247 C248 1.334 . S
C248 H219 0.950 . S
C248 C247 1.334 . S
C248 C249 1.287 . S
C249 C248 1.287 . S
C249 C250 1.524 . S
C249 H252 0.999 . S
C250 H220 0.950 . S
C250 C249 1.524 . S
C250 C251 1.415 . S
C251 H221 0.950 . S
C251 C246 1.370 . S
C251 C250 1.415 . S
H252 C249 0.999 . S
H253 C234 0.913 . S
H254 C272 0.951 . S
H255 C274 0.951 . S
H256 C276 0.950 . S
H257 C277 0.950 . S
H258 C279 0.950 . S
H259 C282 0.950 . S
H260 C283 0.950 . S
H261 C285 0.950 . S
H262 C286 0.950 . S
H263 C287 0.951 . S
H264 C289 0.951 . S
H265 C291 0.950 . S
H266 C292 0.950 . S
H267 C294 0.950 1_546 S
H268 C297 0.950 . S
H269 C298 0.950 . S
H270 C300 0.950 . S
H271 C301 0.950 . S
C272 H254 0.951 . S
C272 C273 1.366 . S
C272 C274 1.388 . S
C273 C272 1.366 . S
C273 C277 1.385 . S
C274 H255 0.951 . S
C274 C272 1.388 . S
C274 C275 1.366 . S
C275 C274 1.366 . S
C275 C276 1.414 . S
C275 C278 1.499 . S
C276 H256 0.950 . S
C276 C275 1.414 . S
C276 C277 1.374 . S
C277 H257 0.950 . S
C277 C273 1.385 . S
C277 C276 1.374 . S
C278 C275 1.499 . S
C278 C279 1.373 . S
C278 C280 1.389 . S
C279 H258 0.950 . S
C279 C278 1.373 . S
C279 C295 1.377 1_565 S
C280 C278 1.389 . S
C280 C281 1.524 1_554 S
C280 C294 1.377 . S
C281 C280 1.524 1_556 S
C281 C282 1.397 . S
C281 C286 1.363 . S
C282 H259 0.950 . S
C282 C281 1.397 . S
C282 C283 1.334 . S
C283 H260 0.950 . S
C283 C282 1.334 . S
C283 C284 1.287 . S
C284 C283 1.287 . S
C284 C285 1.524 . S
C284 H303 0.913 . S
C285 H261 0.950 . S
C285 C284 1.524 . S
C285 C286 1.415 . S
C286 H262 0.950 . S
C286 C281 1.363 . S
C286 C285 1.415 . S
C287 H263 0.951 . S
C287 C288 1.366 . S
C287 C289 1.388 . S
C288 C287 1.366 . S
C288 C292 1.385 . S
C289 H264 0.951 . S
C289 C287 1.388 . S
C289 C290 1.366 . S
C290 C289 1.366 . S
C290 C291 1.414 . S
C290 C293 1.499 . S
C291 H265 0.950 . S
C291 C290 1.414 . S
C291 C292 1.374 . S
C292 H266 0.950 . S
C292 C288 1.385 . S
C292 C291 1.374 . S
C293 C290 1.499 . S
C293 C294 1.373 1_545 S
C293 C295 1.389 . S
C294 H267 0.950 1_564 S
C294 C280 1.377 . S
C294 C293 1.373 1_565 S
C295 C279 1.377 1_545 S
C295 C293 1.389 . S
C295 C296 1.524 . S
C296 C295 1.524 . S
C296 C297 1.397 . S
C296 C301 1.363 . S
C297 H268 0.950 . S
C297 C296 1.397 . S
C297 C298 1.334 . S
C298 H269 0.950 . S
C298 C297 1.334 . S
C298 C299 1.287 . S
C299 C298 1.287 . S
C299 C300 1.524 . S
C299 H302 0.999 . S
C300 H270 0.950 . S
C300 C299 1.524 . S
C300 C301 1.415 . S
C301 H271 0.950 . S
C301 C296 1.363 . S
C301 C300 1.415 . S
H302 C299 0.999 . S
H303 C284 0.913 . S
H304 C322 0.951 . S
H305 C324 0.951 . S
H306 C326 0.950 . S
H307 C327 0.950 . S
H308 C329 0.950 . S
H309 C332 0.950 1_554 S
H310 C333 0.950 . S
H311 C335 0.950 . S
H312 C336 0.950 . S
H313 C337 0.951 . S
H314 C339 0.951 . S
H315 C341 0.950 . S
H316 C342 0.950 . S
H317 C344 0.950 . S
H318 C347 0.950 . S
H319 C348 0.950 . S
H320 C350 0.950 . S
H321 C351 0.950 . S
C322 H304 0.951 . S
C322 C323 1.366 . S
C322 C324 1.388 . S
C323 C322 1.366 . S
C323 C327 1.385 . S
C324 H305 0.951 . S
C324 C322 1.388 . S
C324 C325 1.366 . S
C325 C324 1.366 . S
C325 C326 1.414 . S
C325 C328 1.499 . S
C326 H306 0.950 . S
C326 C325 1.414 . S
C326 C327 1.374 . S
C327 H307 0.950 . S
C327 C323 1.385 . S
C327 C326 1.374 . S
C328 C325 1.499 . S
C328 C329 1.373 . S
C328 C330 1.389 . S
C329 H308 0.950 . S
C329 C328 1.373 . S
C329 C345 1.377 . S
C330 C328 1.389 . S
C330 C331 1.524 1_554 S
C330 C344 1.377 . S
C331 C330 1.524 1_556 S
C331 C332 1.397 . S
C331 C336 1.363 . S
C332 H309 0.950 1_556 S
C332 C331 1.397 . S
C332 C333 1.334 . S
C333 H310 0.950 . S
C333 C332 1.334 . S
C333 C334 1.287 . S
C334 C333 1.287 . S
C334 C335 1.524 . S
C334 H353 0.913 . S
C335 H311 0.950 . S
C335 C334 1.524 . S
C335 C336 1.415 . S
C336 H312 0.950 . S
C336 C331 1.363 . S
C336 C335 1.415 . S
C337 H313 0.951 . S
C337 C338 1.366 . S
C337 C339 1.388 . S
C338 C337 1.366 . S
C338 C342 1.385 . S
C339 H314 0.951 . S
C339 C337 1.388 . S
C339 C340 1.366 . S
C340 C339 1.366 . S
C340 C341 1.414 . S
C340 C343 1.499 . S
C341 H315 0.950 . S
C341 C340 1.414 . S
C341 C342 1.374 . S
C342 H316 0.950 . S
C342 C338 1.385 . S
C342 C341 1.374 . S
C343 C340 1.499 . S
C343 C344 1.373 . S
C343 C345 1.389 . S
C344 H317 0.950 . S
C344 C330 1.377 . S
C344 C343 1.373 . S
C345 C329 1.377 . S
C345 C343 1.389 . S
C345 C346 1.524 . S
C346 C345 1.524 . S
C346 C347 1.397 . S
C346 C351 1.363 . S
C347 H318 0.950 . S
C347 C346 1.397 . S
C347 C348 1.334 . S
C348 H319 0.950 . S
C348 C347 1.334 . S
C348 C349 1.287 . S
C349 C348 1.287 . S
C349 C350 1.524 . S
C349 H352 0.999 . S
C350 H320 0.950 . S
C350 C349 1.524 . S
C350 C351 1.415 . S
C351 H321 0.950 . S
C351 C346 1.363 . S
C351 C350 1.415 . S
H352 C349 0.999 . S
H353 C334 0.913 . S
H354 C372 0.951 . S
H355 C374 0.951 . S
H356 C376 0.950 . S
H357 C377 0.950 . S
H358 C379 0.950 . S
H359 C382 0.950 . S
H360 C383 0.950 . S
H361 C385 0.950 . S
H362 C386 0.950 . S
H363 C387 0.951 . S
H364 C389 0.951 . S
H365 C391 0.950 . S
H366 C392 0.950 . S
H367 C394 0.950 . S
H368 C397 0.950 . S
H369 C398 0.950 . S
H370 C400 0.950 . S
H371 C401 0.950 . S
C372 H354 0.951 . S
C372 C373 1.366 . S
C372 C374 1.388 . S
C373 C372 1.366 . S
C373 C377 1.385 . S
C374 H355 0.951 . S
C374 C372 1.388 . S
C374 C375 1.366 . S
C375 C374 1.366 . S
C375 C376 1.414 . S
C375 C378 1.499 . S
C376 H356 0.950 . S
C376 C375 1.414 . S
C376 C377 1.374 . S
C377 H357 0.950 . S
C377 C373 1.385 . S
C377 C376 1.374 . S
C378 C375 1.499 . S
C378 C379 1.373 . S
C378 C380 1.389 . S
C379 H358 0.950 . S
C379 C378 1.373 . S
C379 C395 1.377 . S
C380 C378 1.389 . S
C380 C381 1.524 . S
C380 C394 1.377 . S
C381 C380 1.524 . S
C381 C382 1.397 . S
C381 C386 1.363 . S
C382 H359 0.950 . S
C382 C381 1.397 . S
C382 C383 1.334 . S
C383 H360 0.950 . S
C383 C382 1.334 . S
C383 C384 1.287 . S
C384 C383 1.287 . S
C384 C385 1.524 . S
C384 H403 0.913 . S
C385 H361 0.950 . S
C385 C384 1.524 . S
C385 C386 1.415 . S
C386 H362 0.950 . S
C386 C381 1.363 . S
C386 C385 1.415 . S
C387 H363 0.951 . S
C387 C388 1.366 . S
C387 C389 1.388 . S
C388 C387 1.366 . S
C388 C392 1.385 . S
C389 H364 0.951 . S
C389 C387 1.388 . S
C389 C390 1.366 . S
C390 C389 1.366 . S
C390 C391 1.414 . S
C390 C393 1.499 . S
C391 H365 0.950 . S
C391 C390 1.414 . S
C391 C392 1.374 . S
C392 H366 0.950 . S
C392 C388 1.385 . S
C392 C391 1.374 . S
C393 C390 1.499 . S
C393 C394 1.373 . S
C393 C395 1.389 . S
C394 H367 0.950 . S
C394 C380 1.377 . S
C394 C393 1.373 . S
C395 C379 1.377 . S
C395 C393 1.389 . S
C395 C396 1.524 . S
C396 C395 1.524 . S
C396 C397 1.397 . S
C396 C401 1.363 . S
C397 H368 0.950 . S
C397 C396 1.397 . S
C397 C398 1.334 . S
C398 H369 0.950 . S
C398 C397 1.334 . S
C398 C399 1.287 . S
C399 C398 1.287 . S
C399 C400 1.524 . S
C399 H402 0.999 . S
C400 H370 0.950 . S
C400 C399 1.524 . S
C400 C401 1.415 . S
C401 H371 0.950 . S
C401 C396 1.363 . S
C401 C400 1.415 . S
H402 C399 0.999 . S
H403 C384 0.913 . S
H404 C422 0.951 . S
H405 C424 0.951 . S
H406 C426 0.950 . S
H407 C427 0.950 . S
H408 C429 0.950 . S
H409 C432 0.950 . S
H410 C433 0.950 . S
H411 C435 0.950 . S
H412 C436 0.950 . S
H413 C437 0.951 . S
H414 C439 0.951 . S
H415 C441 0.950 . S
H416 C442 0.950 . S
H417 C444 0.950 . S
H418 C447 0.950 . S
H419 C448 0.950 . S
H420 C450 0.950 . S
H421 C451 0.950 . S
C422 H404 0.951 . S
C422 C423 1.366 . S
C422 C424 1.388 . S
C423 C422 1.366 . S
C423 C427 1.385 . S
C424 H405 0.951 . S
C424 C422 1.388 . S
C424 C425 1.366 . S
C425 C424 1.366 . S
C425 C426 1.414 . S
C425 C428 1.499 . S
C426 H406 0.950 . S
C426 C425 1.414 . S
C426 C427 1.374 . S
C427 H407 0.950 . S
C427 C423 1.385 . S
C427 C426 1.374 . S
C428 C425 1.499 . S
C428 C429 1.373 . S
C428 C430 1.389 . S
C429 H408 0.950 . S
C429 C428 1.373 . S
C429 C445 1.377 . S
C430 C428 1.389 . S
C430 C431 1.524 . S
C430 C444 1.377 . S
C431 C430 1.524 . S
C431 C432 1.397 . S
C431 C436 1.363 . S
C432 H409 0.950 . S
C432 C431 1.397 . S
C432 C433 1.334 . S
C433 H410 0.950 . S
C433 C432 1.334 . S
C433 C434 1.287 . S
C434 C433 1.287 . S
C434 C435 1.524 . S
C434 H453 0.913 . S
C435 H411 0.950 . S
C435 C434 1.524 . S
C435 C436 1.415 . S
C436 H412 0.950 . S
C436 C431 1.363 . S
C436 C435 1.415 . S
C437 H413 0.951 . S
C437 C438 1.366 . S
C437 C439 1.388 . S
C438 C437 1.366 . S
C438 C442 1.385 . S
C439 H414 0.951 . S
C439 C437 1.388 . S
C439 C440 1.366 . S
C440 C439 1.366 . S
C440 C441 1.414 . S
C440 C443 1.499 . S
C441 H415 0.950 . S
C441 C440 1.414 . S
C441 C442 1.374 . S
C442 H416 0.950 . S
C442 C438 1.385 . S
C442 C441 1.374 . S
C443 C440 1.499 . S
C443 C444 1.373 . S
C443 C445 1.389 . S
C444 H417 0.950 . S
C444 C430 1.377 . S
C444 C443 1.373 . S
C445 C429 1.377 . S
C445 C443 1.389 . S
C445 C446 1.524 . S
C446 C445 1.524 . S
C446 C447 1.397 . S
C446 C451 1.363 . S
C447 H418 0.950 . S
C447 C446 1.397 . S
C447 C448 1.334 . S
C448 H419 0.950 . S
C448 C447 1.334 . S
C448 C449 1.287 . S
C449 C448 1.287 . S
C449 C450 1.524 . S
C449 H452 0.999 . S
C450 H420 0.950 . S
C450 C449 1.524 . S
C450 C451 1.415 . S
C451 H421 0.950 . S
C451 C446 1.363 . S
C451 C450 1.415 . S
H452 C449 0.999 . S
H453 C434 0.913 . S
H454 C472 0.951 . S
H455 C474 0.951 . S
H456 C476 0.950 . S
H457 C477 0.950 . S
H458 C479 0.950 . S
H459 C482 0.950 . S
H460 C483 0.950 . S
H461 C485 0.950 . S
H462 C486 0.950 . S
H463 C487 0.951 . S
H464 C489 0.951 . S
H465 C491 0.950 . S
H466 C492 0.950 . S
H467 C494 0.950 . S
H468 C497 0.950 . S
H469 C498 0.950 . S
H470 C500 0.950 . S
H471 C501 0.950 . S
C472 H454 0.951 . S
C472 C473 1.366 . S
C472 C474 1.388 . S
C473 C472 1.366 . S
C473 C477 1.385 . S
C474 H455 0.951 . S
C474 C472 1.388 . S
C474 C475 1.366 . S
C475 C474 1.366 . S
C475 C476 1.414 . S
C475 C478 1.499 . S
C476 H456 0.950 . S
C476 C475 1.414 . S
C476 C477 1.374 . S
C477 H457 0.950 . S
C477 C473 1.385 . S
C477 C476 1.374 . S
C478 C475 1.499 . S
C478 C479 1.373 . S
C478 C480 1.389 . S
C479 H458 0.950 . S
C479 C478 1.373 . S
C479 C495 1.377 . S
C480 C478 1.389 . S
C480 C481 1.524 . S
C480 C494 1.377 . S
C481 C480 1.524 . S
C481 C482 1.397 . S
C481 C486 1.363 . S
C482 H459 0.950 . S
C482 C481 1.397 . S
C482 C483 1.334 . S
C483 H460 0.950 . S
C483 C482 1.334 . S
C483 C484 1.287 . S
C484 C483 1.287 . S
C484 C485 1.524 . S
C484 H503 0.913 . S
C485 H461 0.950 . S
C485 C484 1.524 . S
C485 C486 1.415 . S
C486 H462 0.950 . S
C486 C481 1.363 . S
C486 C485 1.415 . S
C487 H463 0.951 . S
C487 C488 1.366 . S
C487 C489 1.388 . S
C488 C487 1.366 . S
C488 C492 1.385 . S
C489 H464 0.951 . S
C489 C487 1.388 . S
C489 C490 1.366 . S
C490 C489 1.366 . S
C490 C491 1.414 . S
C490 C493 1.499 . S
C491 H465 0.950 . S
C491 C490 1.414 . S
C491 C492 1.374 . S
C492 H466 0.950 . S
C492 C488 1.385 . S
C492 C491 1.374 . S
C493 C490 1.499 . S
C493 C494 1.373 . S
C493 C495 1.389 . S
C494 H467 0.950 . S
C494 C480 1.377 . S
C494 C493 1.373 . S
C495 C479 1.377 . S
C495 C493 1.389 . S
C495 C496 1.524 . S
C496 C495 1.524 . S
C496 C497 1.397 . S
C496 C501 1.363 . S
C497 H468 0.950 . S
C497 C496 1.397 . S
C497 C498 1.334 . S
C498 H469 0.950 . S
C498 C497 1.334 . S
C498 C499 1.287 . S
C499 C498 1.287 . S
C499 C500 1.524 . S
C499 H502 0.999 . S
C500 H470 0.950 . S
C500 C499 1.524 . S
C500 C501 1.415 . S
C501 H471 0.950 . S
C501 C496 1.363 . S
C501 C500 1.415 . S
H502 C499 0.999 . S
H503 C484 0.913 . S
H504 C522 0.951 . S
H505 C524 0.951 . S
H506 C526 0.950 . S
H507 C527 0.950 . S
H508 C529 0.950 . S
H509 C532 0.950 . S
H510 C533 0.950 . S
H511 C535 0.950 . S
H512 C536 0.950 . S
H513 C537 0.951 . S
H514 C539 0.951 . S
H515 C541 0.950 . S
H516 C542 0.950 . S
H517 C544 0.950 . S
H518 C547 0.950 . S
H519 C548 0.950 . S
H520 C550 0.950 . S
H521 C551 0.950 . S
C522 H504 0.951 . S
C522 C523 1.366 . S
C522 C524 1.388 . S
C523 C522 1.366 . S
C523 C527 1.385 . S
C524 H505 0.951 . S
C524 C522 1.388 . S
C524 C525 1.366 . S
C525 C524 1.366 . S
C525 C526 1.414 . S
C525 C528 1.499 . S
C526 H506 0.950 . S
C526 C525 1.414 . S
C526 C527 1.374 . S
C527 H507 0.950 . S
C527 C523 1.385 . S
C527 C526 1.374 . S
C528 C525 1.499 . S
C528 C529 1.373 . S
C528 C530 1.389 . S
C529 H508 0.950 . S
C529 C528 1.373 . S
C529 C545 1.377 . S
C530 C528 1.389 . S
C530 C531 1.524 . S
C530 C544 1.377 . S
C531 C530 1.524 . S
C531 C532 1.397 . S
C531 C536 1.363 . S
C532 H509 0.950 . S
C532 C531 1.397 . S
C532 C533 1.334 . S
C533 H510 0.950 . S
C533 C532 1.334 . S
C533 C534 1.287 . S
C534 C533 1.287 . S
C534 C535 1.524 . S
C534 H553 0.913 . S
C535 H511 0.950 . S
C535 C534 1.524 . S
C535 C536 1.415 . S
C536 H512 0.950 . S
C536 C531 1.363 . S
C536 C535 1.415 . S
C537 H513 0.951 . S
C537 C538 1.366 . S
C537 C539 1.388 . S
C538 C537 1.366 . S
C538 C542 1.385 . S
C539 H514 0.951 . S
C539 C537 1.388 . S
C539 C540 1.366 . S
C540 C539 1.366 . S
C540 C541 1.414 . S
C540 C543 1.499 . S
C541 H515 0.950 . S
C541 C540 1.414 . S
C541 C542 1.374 . S
C542 H516 0.950 . S
C542 C538 1.385 . S
C542 C541 1.374 . S
C543 C540 1.499 . S
C543 C544 1.373 . S
C543 C545 1.389 . S
C544 H517 0.950 . S
C544 C530 1.377 . S
C544 C543 1.373 . S
C545 C529 1.377 . S
C545 C543 1.389 . S
C545 C546 1.524 . S
C546 C545 1.524 . S
C546 C547 1.397 . S
C546 C551 1.363 . S
C547 H518 0.950 . S
C547 C546 1.397 . S
C547 C548 1.334 . S
C548 H519 0.950 . S
C548 C547 1.334 . S
C548 C549 1.287 . S
C549 C548 1.287 . S
C549 C550 1.524 . S
C549 H552 0.999 . S
C550 H520 0.950 . S
C550 C549 1.524 . S
C550 C551 1.415 . S
C551 H521 0.950 . S
C551 C546 1.363 . S
C551 C550 1.415 . S
H552 C549 0.999 . S
H553 C534 0.913 . S
H554 C572 0.951 . S
H555 C574 0.951 . S
H556 C576 0.950 . S
H557 C577 0.950 . S
H558 C579 0.950 . S
H559 C582 0.950 . S
H560 C583 0.950 . S
H561 C585 0.950 . S
H562 C586 0.950 . S
H563 C587 0.951 . S
H564 C589 0.951 . S
H565 C591 0.950 . S
H566 C592 0.950 . S
H567 C594 0.950 . S
H568 C597 0.950 . S
H569 C598 0.950 . S
H570 C600 0.950 . S
H571 C601 0.950 . S
C572 H554 0.951 . S
C572 C573 1.366 . S
C572 C574 1.388 . S
C573 C572 1.366 . S
C573 C577 1.385 . S
C574 H555 0.951 . S
C574 C572 1.388 . S
C574 C575 1.366 . S
C575 C574 1.366 . S
C575 C576 1.414 . S
C575 C578 1.499 . S
C576 H556 0.950 . S
C576 C575 1.414 . S
C576 C577 1.374 . S
C577 H557 0.950 . S
C577 C573 1.385 . S
C577 C576 1.374 . S
C578 C575 1.499 . S
C578 C579 1.373 . S
C578 C580 1.389 . S
C579 H558 0.950 . S
C579 C578 1.373 . S
C579 C595 1.377 . S
C580 C578 1.389 . S
C580 C581 1.524 . S
C580 C594 1.377 . S
C581 C580 1.524 . S
C581 C582 1.397 . S
C581 C586 1.363 . S
C582 H559 0.950 . S
C582 C581 1.397 . S
C582 C583 1.334 . S
C583 H560 0.950 . S
C583 C582 1.334 . S
C583 C584 1.287 . S
C584 C583 1.287 . S
C584 C585 1.524 . S
C584 H603 0.913 . S
C585 H561 0.950 . S
C585 C584 1.524 . S
C585 C586 1.415 . S
C586 H562 0.950 . S
C586 C581 1.363 . S
C586 C585 1.415 . S
C587 H563 0.951 . S
C587 C588 1.366 . S
C587 C589 1.388 . S
C588 C587 1.366 . S
C588 C592 1.385 . S
C589 H564 0.951 . S
C589 C587 1.388 . S
C589 C590 1.366 . S
C590 C589 1.366 . S
C590 C591 1.414 . S
C590 C593 1.499 . S
C591 H565 0.950 . S
C591 C590 1.414 . S
C591 C592 1.374 . S
C592 H566 0.950 . S
C592 C588 1.385 . S
C592 C591 1.374 . S
C593 C590 1.499 . S
C593 C594 1.373 . S
C593 C595 1.389 . S
C594 H567 0.950 . S
C594 C580 1.377 . S
C594 C593 1.373 . S
C595 C579 1.377 . S
C595 C593 1.389 . S
C595 C596 1.524 . S
C596 C595 1.524 . S
C596 C597 1.397 . S
C596 C601 1.363 . S
C597 H568 0.950 . S
C597 C596 1.397 . S
C597 C598 1.334 . S
C598 H569 0.950 . S
C598 C597 1.334 . S
C598 C599 1.287 . S
C599 C598 1.287 . S
C599 C600 1.524 . S
C599 H602 0.999 . S
C600 H570 0.950 . S
C600 C599 1.524 . S
C600 C601 1.415 . S
C601 H571 0.950 . S
C601 C596 1.363 . S
C601 C600 1.415 . S
H602 C599 0.999 . S
H603 C584 0.913 . S
H604 C622 0.951 . S
H605 C624 0.951 . S
H606 C626 0.950 . S
H607 C627 0.950 . S
H608 C629 0.950 . S
H609 C632 0.950 . S
H610 C633 0.950 . S
H611 C635 0.950 . S
H612 C636 0.950 . S
H613 C637 0.951 . S
H614 C639 0.951 . S
H615 C641 0.950 . S
H616 C642 0.950 . S
H617 C644 0.950 . S
H618 C647 0.950 . S
H619 C648 0.950 . S
H620 C650 0.950 . S
H621 C651 0.950 . S
C622 H604 0.951 . S
C622 C623 1.366 . S
C622 C624 1.388 . S
C623 C622 1.366 . S
C623 C627 1.385 . S
C624 H605 0.951 . S
C624 C622 1.388 . S
C624 C625 1.366 . S
C625 C624 1.366 . S
C625 C626 1.414 . S
C625 C628 1.499 . S
C626 H606 0.950 . S
C626 C625 1.414 . S
C626 C627 1.374 . S
C627 H607 0.950 . S
C627 C623 1.385 . S
C627 C626 1.374 . S
C628 C625 1.499 . S
C628 C629 1.373 . S
C628 C630 1.389 . S
C629 H608 0.950 . S
C629 C628 1.373 . S
C629 C645 1.377 . S
C630 C628 1.389 . S
C630 C631 1.524 . S
C630 C644 1.377 . S
C631 C630 1.524 . S
C631 C632 1.397 . S
C631 C636 1.363 . S
C632 H609 0.950 . S
C632 C631 1.397 . S
C632 C633 1.334 . S
C633 H610 0.950 . S
C633 C632 1.334 . S
C633 C634 1.287 . S
C634 C633 1.287 . S
C634 C635 1.524 . S
C634 H653 0.913 . S
C635 H611 0.950 . S
C635 C634 1.524 . S
C635 C636 1.415 . S
C636 H612 0.950 . S
C636 C631 1.363 . S
C636 C635 1.415 . S
C637 H613 0.951 . S
C637 C638 1.366 . S
C637 C639 1.388 . S
C638 C637 1.366 . S
C638 C642 1.385 . S
C639 H614 0.951 . S
C639 C637 1.388 . S
C639 C640 1.366 . S
C640 C639 1.366 . S
C640 C641 1.414 . S
C640 C643 1.499 . S
C641 H615 0.950 . S
C641 C640 1.414 . S
C641 C642 1.374 . S
C642 H616 0.950 . S
C642 C638 1.385 . S
C642 C641 1.374 . S
C643 C640 1.499 . S
C643 C644 1.373 . S
C643 C645 1.389 . S
C644 H617 0.950 . S
C644 C630 1.377 . S
C644 C643 1.373 . S
C645 C629 1.377 . S
C645 C643 1.389 . S
C645 C646 1.524 . S
C646 C645 1.524 . S
C646 C647 1.397 . S
C646 C651 1.363 . S
C647 H618 0.950 . S
C647 C646 1.397 . S
C647 C648 1.334 . S
C648 H619 0.950 . S
C648 C647 1.334 . S
C648 C649 1.287 . S
C649 C648 1.287 . S
C649 C650 1.524 . S
C649 H652 0.999 . S
C650 H620 0.950 . S
C650 C649 1.524 . S
C650 C651 1.415 . S
C651 H621 0.950 . S
C651 C646 1.363 . S
C651 C650 1.415 . S
H652 C649 0.999 . S
H653 C634 0.913 . S
H654 C672 0.951 . S
H655 C674 0.951 . S
H656 C676 0.950 . S
H657 C677 0.950 . S
H658 C679 0.950 . S
H659 C682 0.950 . S
H660 C683 0.950 . S
H661 C685 0.950 . S
H662 C686 0.950 . S
H663 C687 0.951 . S
H664 C689 0.951 . S
H665 C691 0.950 . S
H666 C692 0.950 . S
H667 C694 0.950 . S
H668 C697 0.950 . S
H669 C698 0.950 . S
H670 C700 0.950 . S
H671 C701 0.950 . S
C672 H654 0.951 . S
C672 C673 1.366 . S
C672 C674 1.388 . S
C673 C672 1.366 . S
C673 C677 1.385 . S
C674 H655 0.951 . S
C674 C672 1.388 . S
C674 C675 1.366 . S
C675 C674 1.366 . S
C675 C676 1.414 . S
C675 C678 1.499 . S
C676 H656 0.950 . S
C676 C675 1.414 . S
C676 C677 1.374 . S
C677 H657 0.950 . S
C677 C673 1.385 . S
C677 C676 1.374 . S
C678 C675 1.499 . S
C678 C679 1.373 . S
C678 C680 1.389 . S
C679 H658 0.950 . S
C679 C678 1.373 . S
C679 C695 1.377 . S
C680 C678 1.389 . S
C680 C681 1.524 . S
C680 C694 1.377 . S
C681 C680 1.524 . S
C681 C682 1.397 . S
C681 C686 1.363 . S
C682 H659 0.950 . S
C682 C681 1.397 . S
C682 C683 1.334 . S
C683 H660 0.950 . S
C683 C682 1.334 . S
C683 C684 1.287 . S
C684 C683 1.287 . S
C684 C685 1.524 . S
C684 H703 0.913 . S
C685 H661 0.950 . S
C685 C684 1.524 . S
C685 C686 1.415 . S
C686 H662 0.950 . S
C686 C681 1.363 . S
C686 C685 1.415 . S
C687 H663 0.951 . S
C687 C688 1.366 . S
C687 C689 1.388 . S
C688 C687 1.366 . S
C688 C692 1.385 . S
C689 H664 0.951 . S
C689 C687 1.388 . S
C689 C690 1.366 . S
C690 C689 1.366 . S
C690 C691 1.414 . S
C690 C693 1.499 . S
C691 H665 0.950 . S
C691 C690 1.414 . S
C691 C692 1.374 . S
C692 H666 0.950 . S
C692 C688 1.385 . S
C692 C691 1.374 . S
C693 C690 1.499 . S
C693 C694 1.373 . S
C693 C695 1.389 . S
C694 H667 0.950 . S
C694 C680 1.377 . S
C694 C693 1.373 . S
C695 C679 1.377 . S
C695 C693 1.389 . S
C695 C696 1.524 . S
C696 C695 1.524 . S
C696 C697 1.397 1_554 S
C696 C701 1.363 . S
C697 H668 0.950 . S
C697 C696 1.397 1_556 S
C697 C698 1.334 . S
C698 H669 0.950 . S
C698 C697 1.334 . S
C698 C699 1.287 . S
C699 C698 1.287 . S
C699 C700 1.524 . S
C699 H702 0.999 . S
C700 H670 0.950 . S
C700 C699 1.524 . S
C700 C701 1.415 1_556 S
C701 H671 0.950 . S
C701 C696 1.363 . S
C701 C700 1.415 1_554 S
H702 C699 0.999 . S
H703 C684 0.913 . S
H704 C722 0.951 . S
H705 C724 0.951 . S
H706 C726 0.950 . S
H707 C727 0.950 . S
H708 C729 0.950 . S
H709 C732 0.950 . S
H710 C733 0.950 . S
H711 C735 0.950 . S
H712 C736 0.950 . S
H713 C737 0.951 . S
H714 C739 0.951 . S
H715 C741 0.950 . S
H716 C742 0.950 . S
H717 C744 0.950 . S
H718 C747 0.950 1_556 S
H719 C748 0.950 . S
H720 C750 0.950 . S
H721 C751 0.950 . S
C722 H704 0.951 . S
C722 C723 1.366 . S
C722 C724 1.388 . S
C723 C722 1.366 . S
C723 C727 1.385 . S
C724 H705 0.951 . S
C724 C722 1.388 . S
C724 C725 1.366 . S
C725 C724 1.366 . S
C725 C726 1.414 . S
C725 C728 1.499 . S
C726 H706 0.950 . S
C726 C725 1.414 . S
C726 C727 1.374 . S
C727 H707 0.950 . S
C727 C723 1.385 . S
C727 C726 1.374 . S
C728 C725 1.499 . S
C728 C729 1.373 . S
C728 C730 1.389 . S
C729 H708 0.950 . S
C729 C728 1.373 . S
C729 C745 1.377 . S
C730 C728 1.389 . S
C730 C731 1.524 . S
C730 C744 1.377 . S
C731 C730 1.524 . S
C731 C732 1.397 . S
C731 C736 1.363 . S
C732 H709 0.950 . S
C732 C731 1.397 . S
C732 C733 1.334 . S
C733 H710 0.950 . S
C733 C732 1.334 . S
C733 C734 1.287 . S
C734 C733 1.287 . S
C734 C735 1.524 . S
C734 H753 0.913 . S
C735 H711 0.950 . S
C735 C734 1.524 . S
C735 C736 1.415 . S
C736 H712 0.950 . S
C736 C731 1.363 . S
C736 C735 1.415 . S
C737 H713 0.951 . S
C737 C738 1.366 . S
C737 C739 1.388 . S
C738 C737 1.366 . S
C738 C742 1.385 . S
C739 H714 0.951 . S
C739 C737 1.388 . S
C739 C740 1.366 . S
C740 C739 1.366 . S
C740 C741 1.414 . S
C740 C743 1.499 . S
C741 H715 0.950 . S
C741 C740 1.414 . S
C741 C742 1.374 . S
C742 H716 0.950 . S
C742 C738 1.385 . S
C742 C741 1.374 . S
C743 C740 1.499 . S
C743 C744 1.373 . S
C743 C745 1.389 . S
C744 H717 0.950 . S
C744 C730 1.377 . S
C744 C743 1.373 . S
C745 C729 1.377 . S
C745 C743 1.389 . S
C745 C746 1.524 . S
C746 C745 1.524 . S
C746 C747 1.397 . S
C746 C751 1.363 . S
C747 H718 0.950 1_554 S
C747 C746 1.397 . S
C747 C748 1.334 1_554 S
C748 H719 0.950 . S
C748 C747 1.334 1_556 S
C748 C749 1.287 1_556 S
C749 C748 1.287 1_554 S
C749 C750 1.524 . S
C749 H752 0.999 . S
C750 H720 0.950 . S
C750 C749 1.524 . S
C750 C751 1.415 . S
C751 H721 0.950 . S
C751 C746 1.363 . S
C751 C750 1.415 . S
H752 C749 0.999 . S
H753 C734 0.913 . S
H754 C772 0.951 . S
H755 C774 0.951 . S
H756 C776 0.950 . S
H757 C777 0.950 . S
H758 C779 0.950 . S
H759 C782 0.950 1_554 S
H760 C783 0.950 . S
H761 C785 0.950 . S
H762 C786 0.950 . S
H763 C787 0.951 . S
H764 C789 0.951 . S
H765 C791 0.948 1_556 S
H766 C792 0.950 1_556 S
H767 C794 0.950 1_556 S
H768 C797 0.950 . S
H769 C798 0.950 . S
H770 C800 0.950 . S
H771 C801 0.950 . S
C772 H754 0.951 . S
C772 C773 1.366 . S
C772 C774 1.388 . S
C773 C772 1.366 . S
C773 C777 1.385 . S
C774 H755 0.951 . S
C774 C772 1.388 . S
C774 C775 1.366 . S
C775 C774 1.366 . S
C775 C776 1.414 . S
C775 C778 1.499 . S
C776 H756 0.950 . S
C776 C775 1.414 . S
C776 C777 1.374 . S
C777 H757 0.950 . S
C777 C773 1.385 . S
C777 C776 1.374 . S
C778 C775 1.499 . S
C778 C779 1.373 . S
C778 C780 1.389 . S
C779 H758 0.950 . S
C779 C778 1.373 . S
C779 C795 1.377 . S
C780 C778 1.389 . S
C780 C781 1.524 1_554 S
C780 C794 1.377 . S
C781 C780 1.524 1_556 S
C781 C782 1.397 . S
C781 C786 1.363 . S
C782 H759 0.950 1_556 S
C782 C781 1.397 . S
C782 C783 1.334 . S
C783 H760 0.950 . S
C783 C782 1.334 . S
C783 C784 1.287 . S
C784 C783 1.287 . S
C784 C785 1.524 . S
C784 H803 0.913 . S
C785 H761 0.950 . S
C785 C784 1.524 . S
C785 C786 1.415 . S
C786 H762 0.950 . S
C786 C781 1.363 . S
C786 C785 1.415 . S
C787 H763 0.951 . S
C787 C788 1.366 . S
C787 C789 1.388 . S
C788 C787 1.366 . S
C788 C792 1.385 . S
C789 H764 0.951 . S
C789 C787 1.388 . S
C789 C790 1.366 . S
C790 C789 1.366 . S
C790 C791 1.414 . S
C790 C793 1.499 . S
C791 H765 0.948 1_554 S
C791 C790 1.414 . S
C791 C792 1.374 . S
C792 H766 0.950 1_554 S
C792 C788 1.385 . S
C792 C791 1.374 . S
C793 C790 1.499 . S
C793 C794 1.373 . S
C793 C795 1.389 . S
C794 H767 0.950 1_554 S
C794 C780 1.377 . S
C794 C793 1.373 . S
C795 C779 1.377 . S
C795 C793 1.389 . S
C795 C796 1.524 . S
C796 C795 1.524 . S
C796 C797 1.397 . S
C796 C801 1.363 . S
C797 H768 0.950 . S
C797 C796 1.397 . S
C797 C798 1.334 . S
C798 H769 0.950 . S
C798 C797 1.334 . S
C798 C799 1.287 . S
C799 C798 1.287 . S
C799 C800 1.524 . S
C799 H802 0.999 . S
C800 H770 0.950 . S
C800 C799 1.524 . S
C800 C801 1.415 . S
C801 H771 0.950 . S
C801 C796 1.363 . S
C801 C800 1.415 . S
H802 C799 0.999 . S
H803 C784 0.913 . S
H804 C822 0.951 . S
H805 C824 0.951 . S
H806 C826 0.950 . S
H807 C827 0.950 . S
H808 C829 0.950 . S
H809 C832 0.950 . S
H810 C833 0.950 . S
H811 C835 0.950 . S
H812 C836 0.950 . S
H813 C837 0.951 . S
H814 C839 0.951 . S
H815 C841 0.950 . S
H816 C842 0.950 . S
H817 C844 0.950 . S
H818 C847 0.950 . S
H819 C848 0.950 . S
H820 C850 0.950 . S
H821 C851 0.950 . S
C822 H804 0.951 . S
C822 C823 1.366 . S
C822 C824 1.388 . S
C823 C822 1.366 . S
C823 C827 1.385 . S
C824 H805 0.951 . S
C824 C822 1.388 . S
C824 C825 1.366 . S
C825 C824 1.366 . S
C825 C826 1.414 . S
C825 C828 1.499 . S
C826 H806 0.950 . S
C826 C825 1.414 . S
C826 C827 1.374 . S
C827 H807 0.950 . S
C827 C823 1.385 . S
C827 C826 1.374 . S
C828 C825 1.499 . S
C828 C829 1.373 . S
C828 C830 1.389 . S
C829 H808 0.950 . S
C829 C828 1.373 . S
C829 C845 1.377 . S
C830 C828 1.389 . S
C830 C831 1.524 . S
C830 C844 1.377 . S
C831 C830 1.524 . S
C831 C832 1.397 . S
C831 C836 1.363 . S
C832 H809 0.950 . S
C832 C831 1.397 . S
C832 C833 1.334 1_554 S
C833 H810 0.950 . S
C833 C832 1.334 1_556 S
C833 C834 1.287 1_556 S
C834 C833 1.287 1_554 S
C834 C835 1.524 . S
C834 H853 0.913 1_554 S
C835 H811 0.950 . S
C835 C834 1.524 . S
C835 C836 1.415 . S
C836 H812 0.950 . S
C836 C831 1.363 . S
C836 C835 1.415 . S
C837 H813 0.951 . S
C837 C838 1.366 . S
C837 C839 1.388 . S
C838 C837 1.366 . S
C838 C842 1.385 . S
C839 H814 0.951 . S
C839 C837 1.388 . S
C839 C840 1.366 . S
C840 C839 1.366 . S
C840 C841 1.414 . S
C840 C843 1.499 . S
C841 H815 0.950 . S
C841 C840 1.414 . S
C841 C842 1.374 . S
C842 H816 0.950 . S
C842 C838 1.385 . S
C842 C841 1.374 . S
C843 C840 1.499 . S
C843 C844 1.373 . S
C843 C845 1.389 . S
C844 H817 0.950 . S
C844 C830 1.377 . S
C844 C843 1.373 . S
C845 C829 1.377 . S
C845 C843 1.389 . S
C845 C846 1.524 . S
C846 C845 1.524 . S
C846 C847 1.397 . S
C846 C851 1.363 . S
C847 H818 0.950 . S
C847 C846 1.397 . S
C847 C848 1.334 . S
C848 H819 0.950 . S
C848 C847 1.334 . S
C848 C849 1.287 . S
C849 C848 1.287 . S
C849 C850 1.524 . S
C849 H852 0.999 . S
C850 H820 0.950 . S
C850 C849 1.524 . S
C850 C851 1.415 . S
C851 H821 0.950 . S
C851 C846 1.363 . S
C851 C850 1.415 . S
H852 C849 0.999 . S
H853 C834 0.913 1_556 S
H854 C872 0.951 . S
H855 C874 0.951 . S
H856 C876 0.950 . S
H857 C877 0.950 . S
H858 C879 0.950 . S
H859 C882 0.950 . S
H860 C883 0.950 . S
H861 C885 0.950 . S
H862 C886 0.950 . S
H863 C887 0.951 . S
H864 C889 0.951 . S
H865 C891 0.950 . S
H866 C892 0.950 . S
H867 C894 0.950 . S
H868 C897 0.950 . S
H869 C898 0.950 . S
H870 C900 0.950 . S
H871 C901 0.950 . S
C872 H854 0.951 . S
C872 C873 1.366 . S
C872 C874 1.388 . S
C873 C872 1.366 . S
C873 C877 1.385 . S
C874 H855 0.951 . S
C874 C872 1.388 . S
C874 C875 1.366 . S
C875 C874 1.366 . S
C875 C876 1.414 . S
C875 C878 1.499 . S
C876 H856 0.950 . S
C876 C875 1.414 . S
C876 C877 1.374 . S
C877 H857 0.950 . S
C877 C873 1.385 . S
C877 C876 1.374 . S
C878 C875 1.499 . S
C878 C879 1.373 . S
C878 C880 1.389 . S
C879 H858 0.950 . S
C879 C878 1.373 . S
C879 C895 1.377 . S
C880 C878 1.389 . S
C880 C881 1.524 1_554 S
C880 C894 1.377 . S
C881 C880 1.524 1_556 S
C881 C882 1.397 . S
C881 C886 1.363 . S
C882 H859 0.950 . S
C882 C881 1.397 . S
C882 C883 1.334 . S
C883 H860 0.950 . S
C883 C882 1.334 . S
C883 C884 1.287 . S
C884 C883 1.287 . S
C884 C885 1.524 . S
C884 H903 0.913 . S
C885 H861 0.950 . S
C885 C884 1.524 . S
C885 C886 1.415 . S
C886 H862 0.950 . S
C886 C881 1.363 . S
C886 C885 1.415 . S
C887 H863 0.951 . S
C887 C888 1.366 . S
C887 C889 1.388 . S
C888 C887 1.366 . S
C888 C892 1.385 . S
C889 H864 0.951 . S
C889 C887 1.388 . S
C889 C890 1.366 . S
C890 C889 1.366 . S
C890 C891 1.414 . S
C890 C893 1.499 . S
C891 H865 0.950 . S
C891 C890 1.414 . S
C891 C892 1.374 . S
C892 H866 0.950 . S
C892 C888 1.385 . S
C892 C891 1.374 . S
C893 C890 1.499 . S
C893 C894 1.373 . S
C893 C895 1.389 . S
C894 H867 0.950 . S
C894 C880 1.377 . S
C894 C893 1.373 . S
C895 C879 1.377 . S
C895 C893 1.389 . S
C895 C896 1.524 . S
C896 C895 1.524 . S
C896 C897 1.397 . S
C896 C901 1.363 . S
C897 H868 0.950 . S
C897 C896 1.397 . S
C897 C898 1.334 . S
C898 H869 0.950 . S
C898 C897 1.334 . S
C898 C899 1.287 . S
C899 C898 1.287 . S
C899 C900 1.524 . S
C899 H902 0.999 . S
C900 H870 0.950 . S
C900 C899 1.524 . S
C900 C901 1.415 . S
C901 H871 0.950 . S
C901 C896 1.363 . S
C901 C900 1.415 . S
H902 C899 0.999 . S
H903 C884 0.913 . S
H904 C922 0.951 . S
H905 C924 0.951 . S
H906 C926 0.950 . S
H907 C927 0.950 . S
H908 C929 0.950 . S
H909 C932 0.950 1_556 S
H910 C933 0.950 . S
H911 C935 0.950 . S
H912 C936 0.950 . S
H913 C937 0.951 . S
H914 C939 0.951 . S
H915 C941 0.950 . S
H916 C942 0.950 . S
H917 C944 0.950 . S
H918 C947 0.950 . S
H919 C948 0.950 . S
H920 C950 0.950 . S
H921 C951 0.950 . S
C922 H904 0.951 . S
C922 C923 1.366 . S
C922 C924 1.388 . S
C923 C922 1.366 . S
C923 C927 1.385 . S
C924 H905 0.951 . S
C924 C922 1.388 . S
C924 C925 1.366 . S
C925 C924 1.366 . S
C925 C926 1.414 . S
C925 C928 1.499 . S
C926 H906 0.950 . S
C926 C925 1.414 . S
C926 C927 1.374 . S
C927 H907 0.950 . S
C927 C923 1.385 . S
C927 C926 1.374 . S
C928 C925 1.499 . S
C928 C929 1.373 . S
C928 C930 1.389 . S
C929 H908 0.950 . S
C929 C928 1.373 . S
C929 C945 1.377 . S
C930 C928 1.389 . S
C930 C931 1.524 . S
C930 C944 1.377 . S
C931 C930 1.524 . S
C931 C932 1.397 . S
C931 C936 1.363 . S
C932 H909 0.950 1_554 S
C932 C931 1.397 . S
C932 C933 1.334 1_554 S
C933 H910 0.950 . S
C933 C932 1.334 1_556 S
C933 C934 1.281 1_556 S
C934 C933 1.281 1_554 S
C934 C935 1.537 . S
C934 H953 0.907 1_554 S
C935 H911 0.950 . S
C935 C934 1.537 . S
C935 C936 1.415 . S
C936 H912 0.950 . S
C936 C931 1.363 . S
C936 C935 1.415 . S
C937 H913 0.951 . S
C937 C938 1.366 . S
C937 C939 1.388 . S
C938 C937 1.366 . S
C938 C942 1.385 . S
C939 H914 0.951 . S
C939 C937 1.388 . S
C939 C940 1.366 . S
C940 C939 1.366 . S
C940 C941 1.414 . S
C940 C943 1.499 . S
C941 H915 0.950 . S
C941 C940 1.414 . S
C941 C942 1.374 . S
C942 H916 0.950 . S
C942 C938 1.385 . S
C942 C941 1.374 . S
C943 C940 1.499 . S
C943 C944 1.373 . S
C943 C945 1.389 . S
C944 H917 0.950 . S
C944 C930 1.377 . S
C944 C943 1.373 . S
C945 C929 1.377 . S
C945 C943 1.389 . S
C945 C946 1.524 . S
C946 C945 1.524 . S
C946 C947 1.397 . S
C946 C951 1.363 . S
C947 H918 0.950 . S
C947 C946 1.397 . S
C947 C948 1.334 . S
C948 H919 0.950 . S
C948 C947 1.334 . S
C948 C949 1.287 . S
C949 C948 1.287 . S
C949 C950 1.524 . S
C949 H952 0.999 . S
C950 H920 0.950 . S
C950 C949 1.524 . S
C950 C951 1.415 . S
C951 H921 0.950 . S
C951 C946 1.363 . S
C951 C950 1.415 . S
H952 C949 0.999 . S
H953 C934 0.907 1_556 S
C223 C20 1.249 . S
C238 C122 1.249 . S
C273 C156 1.419 . S
C288 C54 1.409 . S
C323 C190 1.272 . S
C338 C88 1.271 . S
C373 C9 1.402 . S
C388 C5 1.480 . S
C423 C39 1.486 . S
C438 C43 1.392 . S
C473 C73 1.490 . S
C488 C77 1.388 . S
C523 C111 1.393 . S
C538 C107 1.486 . S
C573 C141 1.476 . S
C588 C145 1.389 . S
C623 C175 1.486 . S
C638 C179 1.393 . S
C673 C2 0.880 . S
C688 C101 0.885 . S
C723 C67 0.982 . S
C738 C104 0.970 . S
C773 C70 0.909 . S
C788 C138 0.916 . S
C823 C135 0.729 . S
C838 C172 0.729 . S
C873 C33 0.709 . S
C888 C169 0.711 . S
C923 C36 1.092 . S
C938 C203 1.131 . S
