# Generated by pormake.
# Topology mdf, (4)-cn, num edge types: 1
# Building blocks:
#     Node 0, Type 0, BuildingBlock: TATPOV_clean_sbu_0, # of connection points: 4
#     Node 1, Type 0, BuildingBlock: TATPOV_clean_sbu_0, # of connection points: 4
#     Node 2, Type 0, BuildingBlock: TATPOV_clean_sbu_0, # of connection points: 4
#     Node 3, Type 0, BuildingBlock: TATPOV_clean_sbu_0, # of connection points: 4
#     Node 4, Type 0, BuildingBlock: TATPOV_clean_sbu_0, # of connection points: 4
#     Node 5, Type 0, BuildingBlock: TATPOV_clean_sbu_0, # of connection points: 4
#     Node 6, Type 0, BuildingBlock: TATPOV_clean_sbu_0, # of connection points: 4
#     Node 7, Type 0, BuildingBlock: TATPOV_clean_sbu_0, # of connection points: 4
#     Edge 8, Type (0, 0), BuildingBlock: XUDNAN_clean_linker_2, # of connection points: 2
#     Edge 9, Type (0, 0), BuildingBlock: XUDNAN_clean_linker_2, # of connection points: 2
#     Edge 10, Type (0, 0), BuildingBlock: XUDNAN_clean_linker_2, # of connection points: 2
#     Edge 11, Type (0, 0), BuildingBlock: XUDNAN_clean_linker_2, # of connection points: 2
#     Edge 12, Type (0, 0), BuildingBlock: XUDNAN_clean_linker_2, # of connection points: 2
#     Edge 13, Type (0, 0), BuildingBlock: XUDNAN_clean_linker_2, # of connection points: 2
#     Edge 14, Type (0, 0), BuildingBlock: XUDNAN_clean_linker_2, # of connection points: 2
#     Edge 15, Type (0, 0), BuildingBlock: XUDNAN_clean_linker_2, # of connection points: 2
#     Edge 16, Type (0, 0), BuildingBlock: XUDNAN_clean_linker_2, # of connection points: 2
#     Edge 17, Type (0, 0), BuildingBlock: XUDNAN_clean_linker_2, # of connection points: 2
#     Edge 18, Type (0, 0), BuildingBlock: XUDNAN_clean_linker_2, # of connection points: 2
#     Edge 19, Type (0, 0), BuildingBlock: XUDNAN_clean_linker_2, # of connection points: 2
#     Edge 20, Type (0, 0), BuildingBlock: XUDNAN_clean_linker_2, # of connection points: 2
#     Edge 21, Type (0, 0), BuildingBlock: XUDNAN_clean_linker_2, # of connection points: 2
#     Edge 22, Type (0, 0), BuildingBlock: XUDNAN_clean_linker_2, # of connection points: 2
#     Edge 23, Type (0, 0), BuildingBlock: XUDNAN_clean_linker_2, # of connection points: 2
# Relax obj value: 0.041
# Max RMSD: 0.067
# Mean RMSD: 0.055
data_MOF--net-mdf--node1-TATPOV_clean_sbu_0--edge1-XUDNAN_clean_linker_2
_symmetry_space_group_name_H-M    P1
_symmetry_Int_Tables_number       1
_symmetry_cell_setting            triclinic
loop_
_symmetry_equiv_pos_as_xyz
'x, y, z'
_cell_length_a     35.143222
_cell_length_b     35.118044
_cell_length_c     14.786515
_cell_angle_alpha  92.032114
_cell_angle_beta   92.280718
_cell_angle_gamma 90.180899
loop_
_atom_site_label
_atom_site_type_symbol
_atom_site_fract_x
_atom_site_fract_y
_atom_site_fract_z
_atom_type_partial_charge
Zn0 Zn 0.24331 0.53509 0.57878 0.0
Zn1 Zn 0.2431 0.56457 0.41876 0.0
O2 O 0.22525 0.60778 0.5083 0.0
O3 O 0.23007 0.58329 0.64291 0.0
O4 O 0.24798 0.59406 0.303 0.0
O5 O 0.29739 0.51888 0.57619 0.0
O6 O 0.29722 0.54072 0.43856 0.0
C7 C 0.22188 0.61107 0.5939 0.0
C8 C 0.1875 0.50018 0.4512 0.0
O9 O 0.20107 0.52306 0.39515 0.0
O10 O 0.20078 0.50017 0.53212 0.0
C11 C 0.27146 0.58507 0.24248 0.0
O12 O 0.29139 0.5537 0.2505 0.0
C13 C 0.31437 0.52423 0.50398 0.0
Zn14 Zn 0.47033 0.70723 0.4528 0.0
Zn15 Zn 0.42692 0.7087 0.58574 0.0
O16 O 0.38955 0.71641 0.47245 0.0
O17 O 0.42816 0.7057 0.36101 0.0
O18 O 0.39302 0.70106 0.69209 0.0
O19 O 0.49628 0.65904 0.47893 0.0
O20 O 0.45724 0.65725 0.59134 0.0
C21 C 0.39514 0.71282 0.38754 0.0
C22 C 0.48373 0.77365 0.56726 0.0
O23 O 0.4596 0.7578 0.61657 0.0
O24 O 0.49255 0.7578 0.49287 0.0
C25 C 0.36615 0.72088 0.72431 0.0
O26 O 0.35679 0.7532 0.68743 0.0
C27 C 0.4835 0.64209 0.54522 0.0
Zn28 Zn 0.27791 0.00437 0.73557 0.0
Zn29 Zn 0.29412 0.95536 0.86012 0.0
O30 O 0.28027 0.92453 0.74093 0.0
O31 O 0.26915 0.96626 0.63604 0.0
O32 O 0.30715 0.91115 0.94002 0.0
O33 O 0.32876 0.02819 0.75111 0.0
O34 O 0.34346 0.98905 0.86039 0.0
C35 C 0.27148 0.93205 0.65901 0.0
C36 C 0.22628 0.00809 0.88243 0.0
O37 O 0.2475 0.98229 0.91585 0.0
O38 O 0.23377 0.02188 0.80718 0.0
C39 C 0.28945 0.89999 0.0078 0.0
O40 O 0.26096 0.92015 0.03833 0.0
C41 C 0.35235 0.01637 0.81027 0.0
Zn42 Zn 0.00304 0.7932 0.31874 0.0
Zn43 Zn 0.02808 0.76329 0.15999 0.0
O44 O 0.07622 0.7788 0.23513 0.0
O45 O 0.05631 0.8067 0.36054 0.0
O46 O 0.05223 0.74287 0.04666 0.0
O47 O 0.98359 0.74104 0.34537 0.0
O48 O 0.99888 0.71815 0.21055 0.0
C49 C 0.08306 0.79561 0.31156 0.0
C50 C 0.97262 0.83066 0.16063 0.0
O51 O 0.99366 0.80713 0.11843 0.0
O52 O 0.9711 0.82997 0.24604 0.0
C53 C 0.05728 0.76233 0.97705 0.0
O54 O 0.04327 0.79688 0.97318 0.0
C55 C 0.98429 0.71376 0.28718 0.0
Zn56 Zn 0.6901 0.00968 0.97428 0.0
Zn57 Zn 0.71235 0.04002 0.81837 0.0
O58 O 0.69415 0.08643 0.89484 0.0
O59 O 0.6785 0.06199 0.0238 0.0
O60 O 0.73246 0.06298 0.70473 0.0
O61 O 0.74229 0.98857 0.99692 0.0
O62 O 0.76004 0.01194 0.86881 0.0
C63 C 0.68233 0.09044 0.97488 0.0
C64 C 0.64698 0.98107 0.81566 0.0
O65 O 0.66863 0.00341 0.77441 0.0
O66 O 0.65043 0.97874 0.9009 0.0
C67 C 0.74308 0.09763 0.70107 0.0
O68 O 0.7394 0.12064 0.77212 0.0
C69 C 0.76758 0.99329 0.93976 0.0
Zn70 Zn 0.00957 0.25424 0.01282 0.0
Zn71 Zn 0.96694 0.2315 0.14054 0.0
O72 O 0.92843 0.24594 0.03604 0.0
O73 O 0.96556 0.26725 0.93262 0.0
O74 O 0.93154 0.20818 0.22857 0.0
O75 O 0.03432 0.20364 0.99787 0.0
O76 O 0.0029 0.18559 0.11488 0.0
C77 C 0.93257 0.26034 0.95898 0.0
C78 C 0.02081 0.29985 0.17636 0.0
O79 O 0.99504 0.27811 0.20549 0.0
O80 O 0.03228 0.29461 0.09685 0.0
C81 C 0.9083 0.22391 0.28199 0.0
O82 O 0.90671 0.26125 0.28947 0.0
C83 C 0.02705 0.17871 0.05438 0.0
Zn84 Zn 0.72723 0.48652 0.27851 0.0
Zn85 Zn 0.75516 0.44088 0.39926 0.0
O86 O 0.75484 0.40754 0.28108 0.0
O87 O 0.735 0.44811 0.17981 0.0
O88 O 0.7763 0.40471 0.48968 0.0
O89 O 0.76976 0.52357 0.30401 0.0
O90 O 0.79567 0.4838 0.40035 0.0
C91 C 0.74762 0.41558 0.19884 0.0
C92 C 0.67546 0.47523 0.4181 0.0
O93 O 0.70335 0.4566 0.45167 0.0
O94 O 0.67788 0.48985 0.34156 0.0
C95 C 0.75892 0.37533 0.51499 0.0
O96 O 0.7242 0.36784 0.48293 0.0
C97 C 0.79697 0.51467 0.35763 0.0
Zn98 Zn 0.54815 0.30407 0.77326 0.0
Zn99 Zn 0.564 0.27365 0.60962 0.0
O100 O 0.61708 0.2816 0.67153 0.0
O101 O 0.60394 0.31041 0.80144 0.0
O102 O 0.57553 0.25429 0.48338 0.0
O103 O 0.52453 0.25392 0.80337 0.0
O104 O 0.53521 0.22976 0.66701 0.0
C105 C 0.62784 0.29694 0.74736 0.0
C106 C 0.51594 0.34735 0.63007 0.0
O107 O 0.53222 0.32173 0.58234 0.0
O108 O 0.51792 0.34617 0.7156 0.0
C109 C 0.60742 0.26059 0.44869 0.0
O110 O 0.63417 0.27943 0.49606 0.0
C111 C 0.52261 0.22623 0.74611 0.0
H112 H 0.37517 0.65248 0.80569 0.0
H113 H 0.31067 0.75755 0.82115 0.0
H114 H 0.2783 0.73425 0.95448 0.0
H115 H 0.29906 0.59051 0.86608 0.0
H116 H 0.33028 0.55977 0.92966 0.0
H117 H 0.34797 0.58491 0.83583 0.0
H118 H 0.40175 0.61494 0.94082 0.0
H119 H 0.38429 0.58989 0.03499 0.0
H120 H 0.38951 0.641 0.04279 0.0
H121 H 0.25554 0.69997 0.09277 0.0
H122 H 0.24078 0.65603 0.21397 0.0
H123 H 0.31937 0.57337 0.1026 0.0
C124 C 0.35423 0.67072 0.83682 0.0
C125 C 0.34571 0.70703 0.80307 0.0
C126 C 0.31779 0.72967 0.84568 0.0
C127 C 0.29924 0.71666 0.92151 0.0
C128 C 0.30875 0.68089 0.95357 0.0
C129 C 0.33535 0.65815 0.91181 0.0
C130 C 0.34034 0.62068 0.95825 0.0
C131 C 0.32871 0.58698 0.8936 0.0
C132 C 0.38141 0.6164 0.99648 0.0
C133 C 0.31263 0.62586 0.03336 0.0
C134 C 0.29481 0.66084 0.03021 0.0
C135 C 0.26892 0.67228 0.09485 0.0
C136 C 0.2607 0.64709 0.16347 0.0
C137 C 0.27857 0.61098 0.16749 0.0
C138 C 0.30486 0.60051 0.10121 0.0
H139 H 0.33387 0.76101 0.4056 0.0
H140 H 0.39288 0.69033 0.21011 0.0
H141 H 0.36339 0.72585 0.08606 0.0
H142 H 0.24512 0.77212 0.23547 0.0
H143 H 0.23639 0.81945 0.2793 0.0
H144 H 0.25389 0.78338 0.35427 0.0
H145 H 0.31079 0.82563 0.40752 0.0
H146 H 0.29447 0.86264 0.33529 0.0
H147 H 0.34193 0.84398 0.32505 0.0
H148 H 0.34703 0.78073 0.99385 0.0
H149 H 0.32818 0.84153 0.92807 0.0
H150 H 0.27428 0.87519 0.17702 0.0
C151 C 0.33878 0.75167 0.3365 0.0
C152 C 0.36616 0.72341 0.31761 0.0
C153 C 0.37231 0.71221 0.22627 0.0
C154 C 0.35567 0.73224 0.15507 0.0
C155 C 0.33168 0.76241 0.17603 0.0
C156 C 0.32159 0.77095 0.26395 0.0
C157 C 0.29671 0.80619 0.26732 0.0
C158 C 0.25559 0.79464 0.28525 0.0
C159 C 0.31195 0.83637 0.33791 0.0
C160 C 0.29968 0.81929 0.17108 0.0
C161 C 0.31907 0.79292 0.11904 0.0
C162 C 0.3299 0.80062 0.03193 0.0
C163 C 0.3197 0.83562 0.99581 0.0
C164 C 0.29929 0.86291 0.04712 0.0
C165 C 0.2889 0.85439 0.1356 0.0
H166 H 0.12026 0.8615 0.29476 0.0
H167 H 0.13107 0.74945 0.40504 0.0
H168 H 0.19129 0.76932 0.48669 0.0
H169 H 0.22542 0.88505 0.28033 0.0
H170 H 0.21649 0.93354 0.31578 0.0
H171 H 0.18061 0.90676 0.24992 0.0
H172 H 0.13261 0.9223 0.37528 0.0
H173 H 0.16885 0.94801 0.44108 0.0
H174 H 0.14411 0.90919 0.48993 0.0
H175 H 0.24118 0.80547 0.58022 0.0
H176 H 0.2763 0.85423 0.67566 0.0
H177 H 0.23443 0.94172 0.49763 0.0
C178 C 0.13645 0.84081 0.3328 0.0
C179 C 0.12212 0.80394 0.34273 0.0
C180 C 0.14256 0.77764 0.3957 0.0
C181 C 0.17659 0.78872 0.44216 0.0
C182 C 0.18952 0.826 0.43386 0.0
C183 C 0.1703 0.85148 0.37926 0.0
C184 C 0.1865 0.89124 0.39188 0.0
C185 C 0.20324 0.90492 0.30423 0.0
C186 C 0.15623 0.91928 0.42666 0.0
C187 C 0.21729 0.88443 0.46354 0.0
C188 C 0.21891 0.84665 0.48667 0.0
C189 C 0.24102 0.83493 0.56105 0.0
C190 C 0.2608 0.86278 0.61499 0.0
C191 C 0.25826 0.90169 0.59368 0.0
C192 C 0.23765 0.91214 0.51469 0.0
H193 H 0.11106 0.70708 0.99243 0.0
H194 H 0.06021 0.78482 0.80129 0.0
H195 H 0.10263 0.75977 0.68317 0.0
H196 H 0.20798 0.71424 0.91316 0.0
H197 H 0.21801 0.66473 0.93117 0.0
H198 H 0.18527 0.69001 0.00213 0.0
H199 H 0.13266 0.63983 0.96095 0.0
H200 H 0.16551 0.61383 0.89239 0.0
H201 H 0.12038 0.62863 0.84343 0.0
H202 H 0.1474 0.72126 0.58263 0.0
H203 H 0.18867 0.67275 0.51072 0.0
H204 H 0.21201 0.62456 0.7734 0.0
C205 C 0.10881 0.71892 0.92578 0.0
C206 C 0.08213 0.7476 0.90561 0.0
C207 C 0.08044 0.76271 0.81795 0.0
C208 C 0.10451 0.74879 0.75067 0.0
C209 C 0.13057 0.72039 0.77297 0.0
C210 C 0.13296 0.70593 0.85881 0.0
C211 C 0.16234 0.67481 0.86562 0.0
C212 C 0.19535 0.6867 0.93201 0.0
C213 C 0.14412 0.63706 0.89208 0.0
C214 C 0.17513 0.67284 0.76933 0.0
C215 C 0.15691 0.69949 0.71664 0.0
C216 C 0.16227 0.7007 0.62367 0.0
C217 C 0.18585 0.67312 0.58341 0.0
C218 C 0.2036 0.64481 0.63632 0.0
C219 C 0.1991 0.64584 0.73084 0.0
H220 H 0.76578 0.1707 0.66765 0.0
H221 H 0.76604 0.05484 0.55474 0.0
H222 H 0.80502 0.07578 0.43046 0.0
H223 H 0.7629 0.21833 0.44489 0.0
H224 H 0.79286 0.25675 0.49022 0.0
H225 H 0.76133 0.23262 0.56283 0.0
H226 H 0.81962 0.21848 0.67092 0.0
H227 H 0.85059 0.24204 0.5964 0.0
H228 H 0.85992 0.19357 0.62638 0.0
H229 H 0.84945 0.10732 0.32894 0.0
H230 H 0.89316 0.14831 0.24959 0.0
H231 H 0.8633 0.24464 0.42477 0.0
C232 C 0.77347 0.14982 0.61595 0.0
C233 C 0.76287 0.11103 0.62119 0.0
C234 C 0.77367 0.08467 0.55224 0.0
C235 C 0.79584 0.0963 0.4813 0.0
C236 C 0.80659 0.1345 0.47949 0.0
C237 C 0.79534 0.16102 0.54413 0.0
C238 C 0.81207 0.20003 0.52827 0.0
C239 C 0.78042 0.22863 0.50516 0.0
C240 C 0.83705 0.21436 0.61036 0.0
C241 C 0.83577 0.1909 0.44681 0.0
C242 C 0.83188 0.15297 0.41951 0.0
C243 C 0.85231 0.13718 0.34883 0.0
C244 C 0.8773 0.16071 0.30455 0.0
C245 C 0.8817 0.19976 0.33072 0.0
C246 C 0.86037 0.21501 0.4026 0.0
H247 H 0.93249 0.31214 0.82868 0.0
H248 H 0.85823 0.23335 0.95745 0.0
H249 H 0.80487 0.25153 0.85198 0.0
H250 H 0.86353 0.38505 0.8011 0.0
H251 H 0.8818 0.39946 0.69533 0.0
H252 H 0.91322 0.3787 0.77885 0.0
H253 H 0.93286 0.32708 0.65968 0.0
H254 H 0.9012 0.34749 0.57601 0.0
H255 H 0.89665 0.29793 0.60153 0.0
H256 H 0.76065 0.27787 0.72415 0.0
H257 H 0.72816 0.31583 0.60572 0.0
H258 H 0.83321 0.37802 0.57206 0.0
C259 C 0.90514 0.29832 0.83462 0.0
C260 C 0.89958 0.27094 0.90027 0.0
C261 C 0.86307 0.25431 0.90712 0.0
C262 C 0.83276 0.26433 0.84735 0.0
C263 C 0.83962 0.29115 0.78223 0.0
C264 C 0.8749 0.30821 0.77695 0.0
C265 C 0.87512 0.33766 0.70534 0.0
C266 C 0.88392 0.37756 0.74771 0.0
C267 C 0.9031 0.32686 0.63129 0.0
C268 C 0.83446 0.33454 0.66994 0.0
C269 C 0.81431 0.3073 0.7137 0.0
C270 C 0.77611 0.29963 0.69063 0.0
C271 C 0.75793 0.32124 0.62325 0.0
C272 C 0.77801 0.35033 0.58087 0.0
C273 C 0.81687 0.35637 0.60387 0.0
H274 H 0.74873 0.42978 0.02118 0.0
H275 H 0.7561 0.3377 0.20811 0.0
H276 H 0.74924 0.29112 0.07943 0.0
H277 H 0.67484 0.40144 0.91208 0.0
H278 H 0.68636 0.41521 0.7999 0.0
H279 H 0.70885 0.43898 0.89623 0.0
H280 H 0.77446 0.42201 0.8349 0.0
H281 H 0.75233 0.39678 0.73828 0.0
H282 H 0.78666 0.37315 0.81075 0.0
H283 H 0.71958 0.25774 0.94791 0.0
H284 H 0.66671 0.24315 0.83786 0.0
H285 H 0.67534 0.35572 0.73292 0.0
C286 C 0.75029 0.39972 0.03462 0.0
C287 C 0.75238 0.38724 0.12418 0.0
C288 C 0.75449 0.34785 0.13974 0.0
C289 C 0.7509 0.32121 0.06679 0.0
C290 C 0.74557 0.33452 0.97913 0.0
C291 C 0.74583 0.37311 0.96289 0.0
C292 C 0.73059 0.38108 0.86841 0.0
C293 C 0.69823 0.41082 0.86944 0.0
C294 C 0.76293 0.39395 0.80949 0.0
C295 C 0.71637 0.34173 0.83876 0.0
C296 C 0.72759 0.31474 0.90081 0.0
C297 C 0.71187 0.27812 0.89719 0.0
C298 C 0.68189 0.26993 0.83422 0.0
C299 C 0.66797 0.29833 0.77667 0.0
C300 C 0.6869 0.33349 0.77469 0.0
H301 H 0.71977 0.13141 0.10845 0.0
H302 H 0.61922 0.13072 0.92982 0.0
H303 H 0.59205 0.18338 0.02206 0.0
H304 H 0.67825 0.14093 0.30306 0.0
H305 H 0.71125 0.1734 0.36215 0.0
H306 H 0.72724 0.14305 0.27135 0.0
H307 H 0.75081 0.20134 0.18694 0.0
H308 H 0.73577 0.23222 0.27868 0.0
H309 H 0.71863 0.24005 0.1644 0.0
H310 H 0.56966 0.2222 0.1536 0.0
H311 H 0.55735 0.25237 0.30337 0.0
H312 H 0.6745 0.23241 0.39109 0.0
C313 C 0.69294 0.14388 0.08656 0.0
C314 C 0.67166 0.12788 0.01188 0.0
C315 C 0.63609 0.1435 0.98594 0.0
C316 C 0.62049 0.17324 0.03808 0.0
C317 C 0.64137 0.18735 0.11435 0.0
C318 C 0.67745 0.17405 0.1369 0.0
C319 C 0.69239 0.19129 0.22684 0.0
C320 C 0.70285 0.16032 0.29477 0.0
C321 C 0.72642 0.21781 0.21339 0.0
C322 C 0.65788 0.21375 0.25489 0.0
C323 C 0.6289 0.21149 0.18874 0.0
C324 C 0.59254 0.22544 0.20449 0.0
C325 C 0.58569 0.24215 0.28982 0.0
C326 C 0.61517 0.24509 0.35763 0.0
C327 C 0.65182 0.23139 0.33923 0.0
H328 H 0.36835 0.51572 0.63743 0.0
H329 H 0.34496 0.4927 0.35083 0.0
H330 H 0.40103 0.4501 0.34636 0.0
H331 H 0.47627 0.50881 0.62752 0.0
H332 H 0.47937 0.48749 0.73659 0.0
H333 H 0.44283 0.52202 0.7122 0.0
H334 H 0.39129 0.47356 0.75432 0.0
H335 H 0.42719 0.43862 0.77768 0.0
H336 H 0.38883 0.4275 0.69635 0.0
H337 H 0.45179 0.40066 0.38138 0.0
H338 H 0.49516 0.35318 0.44941 0.0
H339 H 0.48479 0.40995 0.71268 0.0
C340 C 0.37591 0.5028 0.57302 0.0
C341 C 0.3525 0.50739 0.4945 0.0
C342 C 0.3629 0.48986 0.41149 0.0
C343 C 0.39457 0.46551 0.40851 0.0
C344 C 0.41585 0.45983 0.48868 0.0
C345 C 0.40749 0.4789 0.56887 0.0
C346 C 0.43243 0.46572 0.64728 0.0
C347 C 0.45933 0.49792 0.68305 0.0
C348 C 0.40849 0.45044 0.72328 0.0
C349 C 0.45419 0.43423 0.60035 0.0
C350 C 0.44484 0.43159 0.50864 0.0
C351 C 0.45968 0.40287 0.45286 0.0
C352 C 0.48427 0.376 0.49213 0.0
C353 C 0.49331 0.37774 0.58648 0.0
C354 C 0.47855 0.40779 0.64037 0.0
H355 H 0.60344 0.92377 0.88059 0.0
H356 H 0.62644 0.9825 0.63482 0.0
H357 H 0.58149 0.9394 0.54868 0.0
H358 H 0.60064 0.83166 0.78219 0.0
H359 H 0.56291 0.81447 0.84931 0.0
H360 H 0.59364 0.85234 0.89361 0.0
H361 H 0.53491 0.89511 0.92007 0.0
H362 H 0.50393 0.85732 0.8757 0.0
H363 H 0.5017 0.90363 0.82698 0.0
H364 H 0.53921 0.8871 0.48724 0.0
H365 H 0.50273 0.82809 0.4526 0.0
H366 H 0.50586 0.80278 0.73786 0.0
C367 C 0.59859 0.92804 0.80889 0.0
C368 C 0.61843 0.9567 0.76448 0.0
C369 C 0.6116 0.96086 0.67036 0.0
C370 C 0.586 0.93661 0.62096 0.0
C371 C 0.56733 0.90843 0.66667 0.0
C372 C 0.5732 0.90403 0.75852 0.0
C373 C 0.55146 0.86981 0.79003 0.0
C374 C 0.5788 0.84034 0.83118 0.0
C375 C 0.5212 0.88222 0.85717 0.0
C376 C 0.53318 0.85502 0.70096 0.0
C377 C 0.54251 0.87805 0.63101 0.0
C378 C 0.53131 0.86915 0.54152 0.0
C379 C 0.5107 0.83549 0.52258 0.0
C380 C 0.50131 0.81102 0.59264 0.0
C381 C 0.51201 0.82135 0.68332 0.0
H382 H 0.04857 0.14136 0.90295 0.0
H383 H 0.05455 0.13602 0.19523 0.0
H384 H 0.10127 0.08326 0.18391 0.0
H385 H 0.06279 0.03634 0.85256 0.0
H386 H 0.09032 0.04667 0.75603 0.0
H387 H 0.0522 0.07793 0.78825 0.0
H388 H 0.09935 0.13502 0.79688 0.0
H389 H 0.13756 0.10406 0.76599 0.0
H390 H 0.14174 0.13284 0.86932 0.0
H391 H 0.15607 0.03868 0.13854 0.0
H392 H 0.21028 0.00667 0.06443 0.0
H393 H 0.16569 0.04251 0.80355 0.0
C394 C 0.05879 0.12822 0.96446 0.0
C395 C 0.04809 0.1425 0.04982 0.0
C396 C 0.06217 0.125 0.12907 0.0
C397 C 0.08874 0.09513 0.12316 0.0
C398 C 0.10006 0.08277 0.03747 0.0
C399 C 0.08478 0.09843 0.95953 0.0
C400 C 0.10375 0.0833 0.876 0.0
C401 C 0.07559 0.05965 0.81461 0.0
C402 C 0.12166 0.11573 0.82413 0.0
C403 C 0.13372 0.05837 0.919 0.0
C404 C 0.13098 0.05758 0.01192 0.0
C405 C 0.15794 0.03856 0.06565 0.0
C406 C 0.18864 0.02052 0.0232 0.0
C407 C 0.19227 0.02236 0.92842 0.0
C408 C 0.16382 0.0407 0.87622 0.0
H409 H 0.93633 0.67021 0.17755 0.0
H410 H 0.98963 0.67786 0.44683 0.0
H411 H 0.95196 0.62231 0.49086 0.0
H412 H 0.846 0.65439 0.25023 0.0
H413 H 0.8308 0.62238 0.15773 0.0
H414 H 0.86711 0.65737 0.14152 0.0
H415 H 0.91317 0.6043 0.08862 0.0
H416 H 0.87675 0.56908 0.10364 0.0
H417 H 0.92286 0.56463 0.16005 0.0
H418 H 0.90441 0.56923 0.50893 0.0
H419 H 0.84834 0.52586 0.5016 0.0
H420 H 0.82313 0.55767 0.22492 0.0
C421 C 0.94096 0.65922 0.24461 0.0
C422 C 0.96625 0.67754 0.30841 0.0
C423 C 0.97059 0.66365 0.3969 0.0
C424 C 0.94944 0.63215 0.42235 0.0
C425 C 0.92374 0.6153 0.35874 0.0
C426 C 0.91935 0.62844 0.27172 0.0
C427 C 0.88654 0.6087 0.21996 0.0
C428 C 0.85581 0.63743 0.19071 0.0
C429 C 0.90069 0.58528 0.13824 0.0
C430 C 0.87261 0.58317 0.29201 0.0
C431 C 0.89488 0.58661 0.37094 0.0
C432 C 0.88685 0.56616 0.44729 0.0
C433 C 0.85502 0.54172 0.44274 0.0
C434 C 0.83131 0.53891 0.36324 0.0
C435 C 0.84054 0.55967 0.28704 0.0
H436 H 0.39295 0.04333 0.67564 0.0
H437 H 0.39296 0.03641 0.96749 0.0
H438 H 0.445 0.08439 0.98213 0.0
H439 H 0.49906 0.06349 0.6589 0.0
H440 H 0.48944 0.09521 0.56762 0.0
H441 H 0.45918 0.05437 0.58061 0.0
H442 H 0.40053 0.09881 0.58395 0.0
H443 H 0.43045 0.13978 0.57305 0.0
H444 H 0.39962 0.13752 0.66728 0.0
H445 H 0.48593 0.14237 0.96476 0.0
H446 H 0.51687 0.20124 0.91776 0.0
H447 H 0.49091 0.1692 0.63599 0.0
C448 C 0.40505 0.05081 0.74248 0.0
C449 C 0.3893 0.03622 0.82054 0.0
C450 C 0.4052 0.04689 0.90701 0.0
C451 C 0.43459 0.07421 0.91574 0.0
C452 C 0.44806 0.08969 0.8372 0.0
C453 C 0.43438 0.07763 0.75202 0.0
C454 C 0.45032 0.10135 0.67868 0.0
C455 C 0.47604 0.07716 0.61788 0.0
C456 C 0.41832 0.12049 0.62254 0.0
C457 C 0.47331 0.13027 0.73598 0.0
C458 C 0.47211 0.1228 0.82715 0.0
C459 C 0.48785 0.1479 0.89355 0.0
C460 C 0.50503 0.18145 0.86615 0.0
C461 C 0.50633 0.18968 0.77311 0.0
C462 C 0.49089 0.16333 0.7074 0.0
H463 H 0.79945 0.97229 0.10065 0.0
H464 H 0.81988 0.97284 0.81336 0.0
H465 H 0.87847 0.93491 0.8393 0.0
H466 H 0.90074 0.97775 0.17993 0.0
H467 H 0.89255 0.94713 0.27256 0.0
H468 H 0.85512 0.97777 0.23155 0.0
H469 H 0.81038 0.91918 0.2063 0.0
H470 H 0.84768 0.88837 0.24629 0.0
H471 H 0.82517 0.87938 0.13589 0.0
H472 H 0.93035 0.88989 0.89599 0.0
H473 H 0.97278 0.8458 0.97901 0.0
H474 H 0.91804 0.87737 0.22864 0.0
C475 C 0.81658 0.96504 0.04329 0.0
C476 C 0.80514 0.97534 0.95497 0.0
C477 C 0.82833 0.96539 0.8817 0.0
C478 C 0.86156 0.94381 0.89581 0.0
C479 C 0.87139 0.93314 0.98372 0.0
C480 C 0.84982 0.94403 0.05632 0.0
C481 C 0.86517 0.92764 0.14347 0.0
C482 C 0.87924 0.95948 0.21084 0.0
C483 C 0.83533 0.90213 0.18537 0.0
C484 C 0.89797 0.90455 0.10833 0.0
C485 C 0.9014 0.90816 0.01623 0.0
C486 C 0.92829 0.8874 0.96838 0.0
C487 C 0.95216 0.86231 0.01602 0.0
C488 C 0.94889 0.85826 0.11044 0.0
C489 C 0.92164 0.88007 0.15675 0.0
H490 H 0.06908 0.35498 0.12279 0.0
H491 H 0.013 0.31568 0.35898 0.0
H492 H 0.04648 0.36609 0.45332 0.0
H493 H 0.15833 0.37363 0.22886 0.0
H494 H 0.16794 0.41539 0.16597 0.0
H495 H 0.13734 0.37841 0.1166 0.0
H496 H 0.0836 0.42765 0.09071 0.0
H497 H 0.11408 0.46489 0.13988 0.0
H498 H 0.06798 0.4567 0.18501 0.0
H499 H 0.09013 0.41726 0.52277 0.0
H500 H 0.13914 0.46593 0.56282 0.0
H501 H 0.16574 0.47252 0.27964 0.0
C502 C 0.06341 0.35706 0.19425 0.0
C503 C 0.0384 0.33123 0.23361 0.0
C504 C 0.03192 0.33514 0.32733 0.0
C505 C 0.0508 0.36369 0.3813 0.0
C506 C 0.0757 0.38824 0.34021 0.0
C507 C 0.08178 0.38535 0.24864 0.0
C508 C 0.11101 0.41417 0.22126 0.0
C509 C 0.1457 0.3942 0.18082 0.0
C510 C 0.09308 0.44253 0.15532 0.0
C511 C 0.12122 0.43334 0.31226 0.0
C512 C 0.1004 0.41806 0.37987 0.0
C513 C 0.10624 0.42968 0.47025 0.0
C514 C 0.13429 0.45728 0.49225 0.0
C515 C 0.15623 0.47316 0.42426 0.0
C516 C 0.14911 0.46134 0.3329 0.0
H517 H 0.48646 0.58261 0.42838 0.0
H518 H 0.51907 0.61934 0.70251 0.0
H519 H 0.56393 0.56518 0.71314 0.0
H520 H 0.50683 0.47346 0.45817 0.0
H521 H 0.52242 0.47105 0.34365 0.0
H522 H 0.48404 0.5025 0.37384 0.0
H523 H 0.52262 0.55838 0.30911 0.0
H524 H 0.56121 0.52718 0.28411 0.0
H525 H 0.56974 0.56899 0.3565 0.0
H526 H 0.61685 0.51936 0.67781 0.0
H527 H 0.67072 0.48833 0.60155 0.0
H528 H 0.6038 0.4827 0.34935 0.0
C529 C 0.50155 0.57777 0.49223 0.0
C530 C 0.49923 0.60445 0.56495 0.0
C531 C 0.51998 0.59847 0.64692 0.0
C532 C 0.54557 0.56784 0.65321 0.0
C533 C 0.54936 0.54335 0.57742 0.0
C534 C 0.52708 0.54757 0.49901 0.0
C535 C 0.54065 0.52244 0.42182 0.0
C536 C 0.51172 0.49047 0.39781 0.0
C537 C 0.54909 0.54566 0.33815 0.0
C538 C 0.57646 0.50658 0.46564 0.0
C539 C 0.58028 0.51741 0.5565 0.0
C540 C 0.61355 0.50978 0.60756 0.0
C541 C 0.64403 0.49211 0.56384 0.0
C542 C 0.64116 0.48323 0.46976 0.0
C543 C 0.60642 0.48898 0.42158 0.0
loop_
_geom_bond_atom_site_label_1
_geom_bond_atom_site_label_2
_geom_bond_distance
_geom_bond_site_symmetry_2
_ccdc_geom_bond_type
Zn0 O3 2.031 . S
Zn0 O5 2.049 . S
Zn0 O10 2.067 . S
Zn1 O2 1.962 . S
Zn1 O4 1.986 . S
Zn1 O6 1.996 . S
Zn1 O9 1.943 . S
O2 Zn1 1.962 . S
O2 C7 1.254 . S
O3 Zn0 2.031 . S
O3 C7 1.269 . S
O4 Zn1 1.986 . S
O4 C11 1.262 . S
O5 Zn0 2.049 . S
O5 C13 1.260 . S
O6 Zn1 1.996 . S
O6 C13 1.257 . S
C7 O2 1.254 . S
C7 O3 1.269 . S
C8 O9 1.249 . S
C8 O10 1.270 . S
O9 Zn1 1.943 . S
O9 C8 1.249 . S
O10 Zn0 2.067 . S
O10 C8 1.270 . S
C11 O4 1.262 . S
C11 O12 1.232 . S
O12 C11 1.232 . S
C13 O5 1.260 . S
C13 O6 1.257 . S
Zn14 O17 2.031 . S
Zn14 O19 2.049 . S
Zn14 O24 2.067 . S
Zn15 O16 1.962 . S
Zn15 O18 1.986 . S
Zn15 O20 1.996 . S
Zn15 O23 1.943 . S
O16 Zn15 1.962 . S
O16 C21 1.254 . S
O17 Zn14 2.031 . S
O17 C21 1.269 . S
O18 Zn15 1.986 . S
O18 C25 1.262 . S
O19 Zn14 2.049 . S
O19 C27 1.260 . S
O20 Zn15 1.996 . S
O20 C27 1.257 . S
C21 O16 1.254 . S
C21 O17 1.269 . S
C22 O23 1.249 . S
C22 O24 1.270 . S
O23 Zn15 1.943 . S
O23 C22 1.249 . S
O24 Zn14 2.067 . S
O24 C22 1.270 . S
C25 O18 1.262 . S
C25 O26 1.232 . S
O26 C25 1.232 . S
C27 O19 1.260 . S
C27 O20 1.257 . S
Zn28 O31 2.031 1_545 S
Zn28 O33 2.049 . S
Zn28 O38 2.067 . S
Zn29 O30 1.962 . S
Zn29 O32 1.986 . S
Zn29 O34 1.996 . S
Zn29 O37 1.943 . S
O30 Zn29 1.962 . S
O30 C35 1.254 . S
O31 Zn28 2.031 1_565 S
O31 C35 1.269 . S
O32 Zn29 1.986 . S
O32 C39 1.262 1_556 S
O33 Zn28 2.049 . S
O33 C41 1.260 . S
O34 Zn29 1.996 . S
O34 C41 1.257 1_565 S
C35 O30 1.254 . S
C35 O31 1.269 . S
C36 O37 1.249 1_545 S
C36 O38 1.270 . S
O37 Zn29 1.943 . S
O37 C36 1.249 1_565 S
O38 Zn28 2.067 . S
O38 C36 1.270 . S
C39 O32 1.262 1_554 S
C39 O40 1.230 1_554 S
O40 C39 1.230 1_556 S
C41 O33 1.260 . S
C41 O34 1.257 1_545 S
Zn42 O45 2.031 1_655 S
Zn42 O47 2.049 . S
Zn42 O52 2.067 . S
Zn43 O44 1.962 . S
Zn43 O46 1.986 . S
Zn43 O48 1.996 . S
Zn43 O51 1.943 . S
O44 Zn43 1.962 . S
O44 C49 1.254 . S
O45 Zn42 2.031 1_455 S
O45 C49 1.269 . S
O46 Zn43 1.986 . S
O46 C53 1.262 1_554 S
O47 Zn42 2.049 . S
O47 C55 1.260 . S
O48 Zn43 1.996 . S
O48 C55 1.257 1_455 S
C49 O44 1.254 . S
C49 O45 1.269 . S
C50 O51 1.249 1_655 S
C50 O52 1.270 . S
O51 Zn43 1.943 . S
O51 C50 1.249 1_455 S
O52 Zn42 2.067 . S
O52 C50 1.270 . S
C53 O46 1.262 1_556 S
C53 O54 1.230 1_556 S
O54 C53 1.230 1_554 S
C55 O47 1.260 . S
C55 O48 1.257 1_655 S
Zn56 O59 2.031 1_565 S
Zn56 O61 2.049 . S
Zn56 O66 2.067 1_554 S
Zn57 O58 1.962 . S
Zn57 O60 1.986 . S
Zn57 O62 1.996 . S
Zn57 O65 1.943 . S
O58 Zn57 1.962 . S
O58 C63 1.254 1_556 S
O59 Zn56 2.031 1_545 S
O59 C63 1.269 . S
O60 Zn57 1.986 . S
O60 C67 1.262 . S
O61 Zn56 2.049 . S
O61 C69 1.260 1_554 S
O62 Zn57 1.996 . S
O62 C69 1.257 1_545 S
C63 O58 1.254 1_554 S
C63 O59 1.269 . S
C64 O65 1.249 1_565 S
C64 O66 1.270 . S
O65 Zn57 1.943 . S
O65 C64 1.249 1_545 S
O66 Zn56 2.067 1_556 S
O66 C64 1.270 . S
C67 O60 1.262 . S
C67 O68 1.232 . S
O68 C67 1.232 . S
C69 O61 1.260 1_556 S
C69 O62 1.257 1_565 S
Zn70 O73 2.031 1_455 S
Zn70 O75 2.049 . S
Zn70 O80 2.067 1_556 S
Zn71 O72 1.962 . S
Zn71 O74 1.986 . S
Zn71 O76 1.996 . S
Zn71 O79 1.943 . S
O72 Zn71 1.962 . S
O72 C77 1.254 1_554 S
O73 Zn70 2.031 1_655 S
O73 C77 1.269 . S
O74 Zn71 1.986 . S
O74 C81 1.262 . S
O75 Zn70 2.049 . S
O75 C83 1.260 1_556 S
O76 Zn71 1.996 . S
O76 C83 1.257 1_655 S
C77 O72 1.254 1_556 S
C77 O73 1.269 . S
C78 O79 1.249 1_455 S
C78 O80 1.270 . S
O79 Zn71 1.943 . S
O79 C78 1.249 1_655 S
O80 Zn70 2.067 1_554 S
O80 C78 1.270 . S
C81 O74 1.262 . S
C81 O82 1.232 . S
O82 C81 1.232 . S
C83 O75 1.260 1_554 S
C83 O76 1.257 1_455 S
Zn84 O87 2.031 . S
Zn84 O89 2.049 . S
Zn84 O94 2.067 . S
Zn85 O86 1.962 . S
Zn85 O88 1.986 . S
Zn85 O90 1.996 . S
Zn85 O93 1.943 . S
O86 Zn85 1.962 . S
O86 C91 1.254 . S
O87 Zn84 2.031 . S
O87 C91 1.269 . S
O88 Zn85 1.986 . S
O88 C95 1.262 . S
O89 Zn84 2.049 . S
O89 C97 1.260 . S
O90 Zn85 1.996 . S
O90 C97 1.257 . S
C91 O86 1.254 . S
C91 O87 1.269 . S
C92 O93 1.249 . S
C92 O94 1.270 . S
O93 Zn85 1.943 . S
O93 C92 1.249 . S
O94 Zn84 2.067 . S
O94 C92 1.270 . S
C95 O88 1.262 . S
C95 O96 1.232 . S
O96 C95 1.232 . S
C97 O89 1.260 . S
C97 O90 1.257 . S
Zn98 O101 2.031 . S
Zn98 O103 2.049 . S
Zn98 O108 2.067 . S
Zn99 O100 1.962 . S
Zn99 O102 1.986 . S
Zn99 O104 1.996 . S
Zn99 O107 1.943 . S
O100 Zn99 1.962 . S
O100 C105 1.254 . S
O101 Zn98 2.031 . S
O101 C105 1.269 . S
O102 Zn99 1.986 . S
O102 C109 1.262 . S
O103 Zn98 2.049 . S
O103 C111 1.260 . S
O104 Zn99 1.996 . S
O104 C111 1.257 . S
C105 O100 1.254 . S
C105 O101 1.269 . S
C106 O107 1.249 . S
C106 O108 1.270 . S
O107 Zn99 1.943 . S
O107 C106 1.249 . S
O108 Zn98 2.067 . S
O108 C106 1.270 . S
C109 O102 1.262 . S
C109 O110 1.232 . S
O110 C109 1.232 . S
C111 O103 1.260 . S
C111 O104 1.257 . S
H112 C124 0.930 . S
H113 C126 0.930 . S
H114 C127 0.930 . S
H115 C131 0.959 . S
H116 C131 0.959 . S
H117 C131 0.961 . S
H118 C132 0.960 . S
H119 C132 0.961 . S
H120 C132 0.959 . S
H121 C135 0.929 . S
H122 C136 0.931 . S
H123 C138 0.930 . S
C124 H112 0.930 . S
C124 C125 1.399 . S
C124 C129 1.399 . S
C125 C124 1.399 . S
C125 C126 1.376 . S
C126 H113 0.930 . S
C126 C125 1.376 . S
C126 C127 1.388 1_556 S
C127 H114 0.930 . S
C127 C126 1.388 1_554 S
C127 C128 1.390 1_554 S
C128 C127 1.390 1_556 S
C128 C129 1.394 . S
C128 C134 1.465 1_556 S
C129 C124 1.399 . S
C129 C128 1.394 . S
C129 C130 1.516 . S
C130 C129 1.516 . S
C130 C131 1.502 . S
C130 C132 1.561 . S
C130 C133 1.526 1_556 S
C131 H115 0.959 . S
C131 H116 0.959 . S
C131 H117 0.961 . S
C131 C130 1.502 . S
C132 H118 0.960 . S
C132 H119 0.961 . S
C132 H120 0.959 . S
C132 C130 1.561 . S
C133 C130 1.526 1_554 S
C133 C134 1.396 . S
C133 C138 1.390 . S
C134 C128 1.465 1_554 S
C134 C133 1.396 . S
C134 C135 1.399 . S
C135 H121 0.929 . S
C135 C134 1.399 . S
C135 C136 1.385 . S
C136 H122 0.931 . S
C136 C135 1.385 . S
C136 C137 1.389 . S
C137 C136 1.389 . S
C137 C138 1.387 . S
C138 H123 0.930 . S
C138 C133 1.390 . S
C138 C137 1.387 . S
H139 C151 0.930 . S
H140 C153 0.930 . S
H141 C154 0.930 . S
H142 C158 0.959 . S
H143 C158 0.959 . S
H144 C158 0.961 . S
H145 C159 0.960 . S
H146 C159 0.961 . S
H147 C159 0.959 . S
H148 C162 0.929 . S
H149 C163 0.931 1_556 S
H150 C165 0.930 . S
C151 H139 0.930 . S
C151 C152 1.399 . S
C151 C156 1.399 . S
C152 C151 1.399 . S
C152 C153 1.376 . S
C153 H140 0.930 . S
C153 C152 1.376 . S
C153 C154 1.388 . S
C154 H141 0.930 . S
C154 C153 1.388 . S
C154 C155 1.390 . S
C155 C154 1.390 . S
C155 C156 1.394 . S
C155 C161 1.465 . S
C156 C151 1.399 . S
C156 C155 1.394 . S
C156 C157 1.516 . S
C157 C156 1.516 . S
C157 C158 1.502 . S
C157 C159 1.561 . S
C157 C160 1.526 . S
C158 H142 0.959 . S
C158 H143 0.959 . S
C158 H144 0.961 . S
C158 C157 1.502 . S
C159 H145 0.960 . S
C159 H146 0.961 . S
C159 H147 0.959 . S
C159 C157 1.561 . S
C160 C157 1.526 . S
C160 C161 1.396 . S
C160 C165 1.390 . S
C161 C155 1.465 . S
C161 C160 1.396 . S
C161 C162 1.399 . S
C162 H148 0.929 . S
C162 C161 1.399 . S
C162 C163 1.385 . S
C163 H149 0.931 1_554 S
C163 C162 1.385 . S
C163 C164 1.389 . S
C164 C163 1.389 . S
C164 C165 1.387 . S
C165 H150 0.930 . S
C165 C160 1.390 . S
C165 C164 1.387 . S
H166 C178 0.930 . S
H167 C180 0.930 . S
H168 C181 0.930 . S
H169 C185 0.959 . S
H170 C185 0.959 . S
H171 C185 0.961 . S
H172 C186 0.960 . S
H173 C186 0.961 . S
H174 C186 0.959 . S
H175 C189 0.929 . S
H176 C190 0.931 . S
H177 C192 0.930 . S
C178 H166 0.930 . S
C178 C179 1.399 . S
C178 C183 1.399 . S
C179 C178 1.399 . S
C179 C180 1.376 . S
C180 H167 0.930 . S
C180 C179 1.376 . S
C180 C181 1.388 . S
C181 H168 0.930 . S
C181 C180 1.388 . S
C181 C182 1.390 . S
C182 C181 1.390 . S
C182 C183 1.394 . S
C182 C188 1.465 . S
C183 C178 1.399 . S
C183 C182 1.394 . S
C183 C184 1.516 . S
C184 C183 1.516 . S
C184 C185 1.502 . S
C184 C186 1.561 . S
C184 C187 1.526 . S
C185 H169 0.959 . S
C185 H170 0.959 . S
C185 H171 0.961 . S
C185 C184 1.502 . S
C186 H172 0.960 . S
C186 H173 0.961 . S
C186 H174 0.959 . S
C186 C184 1.561 . S
C187 C184 1.526 . S
C187 C188 1.396 . S
C187 C192 1.390 . S
C188 C182 1.465 . S
C188 C187 1.396 . S
C188 C189 1.399 . S
C189 H175 0.929 . S
C189 C188 1.399 . S
C189 C190 1.385 . S
C190 H176 0.931 . S
C190 C189 1.385 . S
C190 C191 1.389 . S
C191 C190 1.389 . S
C191 C192 1.387 . S
C192 H177 0.930 . S
C192 C187 1.390 . S
C192 C191 1.387 . S
H193 C205 0.930 . S
H194 C207 0.930 . S
H195 C208 0.930 . S
H196 C212 0.959 . S
H197 C212 0.959 . S
H198 C212 0.961 . S
H199 C213 0.960 . S
H200 C213 0.961 . S
H201 C213 0.959 . S
H202 C216 0.929 . S
H203 C217 0.931 . S
H204 C219 0.930 . S
C205 H193 0.930 . S
C205 C206 1.399 . S
C205 C210 1.399 . S
C206 C205 1.399 . S
C206 C207 1.376 . S
C207 H194 0.930 . S
C207 C206 1.376 . S
C207 C208 1.388 . S
C208 H195 0.930 . S
C208 C207 1.388 . S
C208 C209 1.390 . S
C209 C208 1.390 . S
C209 C210 1.394 . S
C209 C215 1.465 . S
C210 C205 1.399 . S
C210 C209 1.394 . S
C210 C211 1.516 . S
C211 C210 1.516 . S
C211 C212 1.502 . S
C211 C213 1.561 . S
C211 C214 1.526 . S
C212 H196 0.959 . S
C212 H197 0.959 . S
C212 H198 0.961 . S
C212 C211 1.502 . S
C213 H199 0.960 . S
C213 H200 0.961 . S
C213 H201 0.959 . S
C213 C211 1.561 . S
C214 C211 1.526 . S
C214 C215 1.396 . S
C214 C219 1.390 . S
C215 C209 1.465 . S
C215 C214 1.396 . S
C215 C216 1.399 . S
C216 H202 0.929 . S
C216 C215 1.399 . S
C216 C217 1.385 . S
C217 H203 0.931 . S
C217 C216 1.385 . S
C217 C218 1.389 . S
C218 C217 1.389 . S
C218 C219 1.387 . S
C219 H204 0.930 . S
C219 C214 1.390 . S
C219 C218 1.387 . S
H220 C232 0.930 . S
H221 C234 0.930 . S
H222 C235 0.930 . S
H223 C239 0.959 . S
H224 C239 0.959 . S
H225 C239 0.961 . S
H226 C240 0.960 . S
H227 C240 0.961 . S
H228 C240 0.959 . S
H229 C243 0.929 . S
H230 C244 0.931 . S
H231 C246 0.930 . S
C232 H220 0.930 . S
C232 C233 1.399 . S
C232 C237 1.399 . S
C233 C232 1.399 . S
C233 C234 1.376 . S
C234 H221 0.930 . S
C234 C233 1.376 . S
C234 C235 1.388 . S
C235 H222 0.930 . S
C235 C234 1.388 . S
C235 C236 1.390 . S
C236 C235 1.390 . S
C236 C237 1.394 . S
C236 C242 1.465 . S
C237 C232 1.399 . S
C237 C236 1.394 . S
C237 C238 1.516 . S
C238 C237 1.516 . S
C238 C239 1.502 . S
C238 C240 1.561 . S
C238 C241 1.526 . S
C239 H223 0.959 . S
C239 H224 0.959 . S
C239 H225 0.961 . S
C239 C238 1.502 . S
C240 H226 0.960 . S
C240 H227 0.961 . S
C240 H228 0.959 . S
C240 C238 1.561 . S
C241 C238 1.526 . S
C241 C242 1.396 . S
C241 C246 1.390 . S
C242 C236 1.465 . S
C242 C241 1.396 . S
C242 C243 1.399 . S
C243 H229 0.929 . S
C243 C242 1.399 . S
C243 C244 1.385 . S
C244 H230 0.931 . S
C244 C243 1.385 . S
C244 C245 1.389 . S
C245 C244 1.389 . S
C245 C246 1.387 . S
C246 H231 0.930 . S
C246 C241 1.390 . S
C246 C245 1.387 . S
H247 C259 0.930 . S
H248 C261 0.930 1_554 S
H249 C262 0.930 . S
H250 C266 0.959 . S
H251 C266 0.959 . S
H252 C266 0.961 . S
H253 C267 0.960 . S
H254 C267 0.961 . S
H255 C267 0.959 . S
H256 C270 0.929 . S
H257 C271 0.931 . S
H258 C273 0.930 . S
C259 H247 0.930 . S
C259 C260 1.399 . S
C259 C264 1.399 . S
C260 C259 1.399 . S
C260 C261 1.376 . S
C261 H248 0.930 1_556 S
C261 C260 1.376 . S
C261 C262 1.388 . S
C262 H249 0.930 . S
C262 C261 1.388 . S
C262 C263 1.390 . S
C263 C262 1.390 . S
C263 C264 1.394 . S
C263 C269 1.465 . S
C264 C259 1.399 . S
C264 C263 1.394 . S
C264 C265 1.516 . S
C265 C264 1.516 . S
C265 C266 1.502 . S
C265 C267 1.561 . S
C265 C268 1.526 . S
C266 H250 0.959 . S
C266 H251 0.959 . S
C266 H252 0.961 . S
C266 C265 1.502 . S
C267 H253 0.960 . S
C267 H254 0.961 . S
C267 H255 0.959 . S
C267 C265 1.561 . S
C268 C265 1.526 . S
C268 C269 1.396 . S
C268 C273 1.390 . S
C269 C263 1.465 . S
C269 C268 1.396 . S
C269 C270 1.399 . S
C270 H256 0.929 . S
C270 C269 1.399 . S
C270 C271 1.385 . S
C271 H257 0.931 . S
C271 C270 1.385 . S
C271 C272 1.389 . S
C272 C271 1.389 . S
C272 C273 1.387 . S
C273 H258 0.930 . S
C273 C268 1.390 . S
C273 C272 1.387 . S
H274 C286 0.930 . S
H275 C288 0.930 . S
H276 C289 0.930 . S
H277 C293 0.959 . S
H278 C293 0.959 . S
H279 C293 0.961 . S
H280 C294 0.960 . S
H281 C294 0.961 . S
H282 C294 0.959 . S
H283 C297 0.929 1_554 S
H284 C298 0.931 . S
H285 C300 0.930 . S
C286 H274 0.930 . S
C286 C287 1.399 . S
C286 C291 1.399 . S
C287 C286 1.399 . S
C287 C288 1.376 . S
C288 H275 0.930 . S
C288 C287 1.376 . S
C288 C289 1.388 . S
C289 H276 0.930 . S
C289 C288 1.388 . S
C289 C290 1.390 . S
C290 C289 1.390 . S
C290 C291 1.394 . S
C290 C296 1.465 1_554 S
C291 C286 1.399 . S
C291 C290 1.394 . S
C291 C292 1.516 1_554 S
C292 C291 1.516 1_556 S
C292 C293 1.502 . S
C292 C294 1.561 . S
C292 C295 1.526 . S
C293 H277 0.959 . S
C293 H278 0.959 . S
C293 H279 0.961 . S
C293 C292 1.502 . S
C294 H280 0.960 . S
C294 H281 0.961 . S
C294 H282 0.959 . S
C294 C292 1.561 . S
C295 C292 1.526 . S
C295 C296 1.396 . S
C295 C300 1.390 . S
C296 C290 1.465 1_556 S
C296 C295 1.396 . S
C296 C297 1.399 . S
C297 H283 0.929 1_556 S
C297 C296 1.399 . S
C297 C298 1.385 . S
C298 H284 0.931 . S
C298 C297 1.385 . S
C298 C299 1.389 . S
C299 C298 1.389 . S
C299 C300 1.387 . S
C300 H285 0.930 . S
C300 C295 1.390 . S
C300 C299 1.387 . S
H301 C313 0.930 . S
H302 C315 0.930 . S
H303 C316 0.930 . S
H304 C320 0.959 . S
H305 C320 0.959 . S
H306 C320 0.961 . S
H307 C321 0.960 . S
H308 C321 0.961 . S
H309 C321 0.959 . S
H310 C324 0.929 . S
H311 C325 0.931 . S
H312 C327 0.930 . S
C313 H301 0.930 . S
C313 C314 1.399 . S
C313 C318 1.399 . S
C314 C313 1.399 . S
C314 C315 1.376 . S
C315 H302 0.930 . S
C315 C314 1.376 . S
C315 C316 1.388 . S
C316 H303 0.930 . S
C316 C315 1.388 . S
C316 C317 1.390 . S
C317 C316 1.390 . S
C317 C318 1.394 . S
C317 C323 1.465 . S
C318 C313 1.399 . S
C318 C317 1.394 . S
C318 C319 1.516 . S
C319 C318 1.516 . S
C319 C320 1.502 . S
C319 C321 1.561 . S
C319 C322 1.526 . S
C320 H304 0.959 . S
C320 H305 0.959 . S
C320 H306 0.961 . S
C320 C319 1.502 . S
C321 H307 0.960 . S
C321 H308 0.961 . S
C321 H309 0.959 . S
C321 C319 1.561 . S
C322 C319 1.526 . S
C322 C323 1.396 . S
C322 C327 1.390 . S
C323 C317 1.465 . S
C323 C322 1.396 . S
C323 C324 1.399 . S
C324 H310 0.929 . S
C324 C323 1.399 . S
C324 C325 1.385 . S
C325 H311 0.931 . S
C325 C324 1.385 . S
C325 C326 1.389 . S
C326 C325 1.389 . S
C326 C327 1.387 . S
C327 H312 0.930 . S
C327 C322 1.390 . S
C327 C326 1.387 . S
H328 C340 0.930 . S
H329 C342 0.930 . S
H330 C343 0.930 . S
H331 C347 0.959 . S
H332 C347 0.959 . S
H333 C347 0.961 . S
H334 C348 0.960 . S
H335 C348 0.961 . S
H336 C348 0.959 . S
H337 C351 0.929 . S
H338 C352 0.931 . S
H339 C354 0.930 . S
C340 H328 0.930 . S
C340 C341 1.399 . S
C340 C345 1.399 . S
C341 C340 1.399 . S
C341 C342 1.376 . S
C342 H329 0.930 . S
C342 C341 1.376 . S
C342 C343 1.388 . S
C343 H330 0.930 . S
C343 C342 1.388 . S
C343 C344 1.390 . S
C344 C343 1.390 . S
C344 C345 1.394 . S
C344 C350 1.465 . S
C345 C340 1.399 . S
C345 C344 1.394 . S
C345 C346 1.516 . S
C346 C345 1.516 . S
C346 C347 1.502 . S
C346 C348 1.561 . S
C346 C349 1.526 . S
C347 H331 0.959 . S
C347 H332 0.959 . S
C347 H333 0.961 . S
C347 C346 1.502 . S
C348 H334 0.960 . S
C348 H335 0.961 . S
C348 H336 0.959 . S
C348 C346 1.561 . S
C349 C346 1.526 . S
C349 C350 1.396 . S
C349 C354 1.390 . S
C350 C344 1.465 . S
C350 C349 1.396 . S
C350 C351 1.399 . S
C351 H337 0.929 . S
C351 C350 1.399 . S
C351 C352 1.385 . S
C352 H338 0.931 . S
C352 C351 1.385 . S
C352 C353 1.389 . S
C353 C352 1.389 . S
C353 C354 1.387 . S
C354 H339 0.930 . S
C354 C349 1.390 . S
C354 C353 1.387 . S
H355 C367 0.930 . S
H356 C369 0.930 1_545 S
H357 C370 0.930 . S
H358 C374 0.959 . S
H359 C374 0.959 . S
H360 C374 0.961 . S
H361 C375 0.960 . S
H362 C375 0.961 . S
H363 C375 0.959 . S
H364 C378 0.929 . S
H365 C379 0.931 . S
H366 C381 0.930 . S
C367 H355 0.930 . S
C367 C368 1.399 . S
C367 C372 1.399 . S
C368 C367 1.399 . S
C368 C369 1.376 . S
C369 H356 0.930 1_565 S
C369 C368 1.376 . S
C369 C370 1.388 . S
C370 H357 0.930 . S
C370 C369 1.388 . S
C370 C371 1.390 . S
C371 C370 1.390 . S
C371 C372 1.394 . S
C371 C377 1.465 . S
C372 C367 1.399 . S
C372 C371 1.394 . S
C372 C373 1.516 . S
C373 C372 1.516 . S
C373 C374 1.502 . S
C373 C375 1.561 . S
C373 C376 1.526 . S
C374 H358 0.959 . S
C374 H359 0.959 . S
C374 H360 0.961 . S
C374 C373 1.502 . S
C375 H361 0.960 . S
C375 H362 0.961 . S
C375 H363 0.959 . S
C375 C373 1.561 . S
C376 C373 1.526 . S
C376 C377 1.396 . S
C376 C381 1.390 . S
C377 C371 1.465 . S
C377 C376 1.396 . S
C377 C378 1.399 . S
C378 H364 0.929 . S
C378 C377 1.399 . S
C378 C379 1.385 . S
C379 H365 0.931 . S
C379 C378 1.385 . S
C379 C380 1.389 . S
C380 C379 1.389 . S
C380 C381 1.387 . S
C381 H366 0.930 . S
C381 C376 1.390 . S
C381 C380 1.387 . S
H382 C394 0.930 . S
H383 C396 0.930 . S
H384 C397 0.930 . S
H385 C401 0.959 . S
H386 C401 0.959 . S
H387 C401 0.961 . S
H388 C402 0.960 . S
H389 C402 0.961 . S
H390 C402 0.959 . S
H391 C405 0.929 . S
H392 C406 0.931 . S
H393 C408 0.930 . S
C394 H382 0.930 . S
C394 C395 1.399 1_556 S
C394 C399 1.399 . S
C395 C394 1.399 1_554 S
C395 C396 1.376 . S
C396 H383 0.930 . S
C396 C395 1.376 . S
C396 C397 1.388 . S
C397 H384 0.930 . S
C397 C396 1.388 . S
C397 C398 1.390 . S
C398 C397 1.390 . S
C398 C399 1.394 1_554 S
C398 C404 1.465 . S
C399 C394 1.399 . S
C399 C398 1.394 1_556 S
C399 C400 1.516 . S
C400 C399 1.516 . S
C400 C401 1.502 . S
C400 C402 1.561 . S
C400 C403 1.526 . S
C401 H385 0.959 . S
C401 H386 0.959 . S
C401 H387 0.961 . S
C401 C400 1.502 . S
C402 H388 0.960 . S
C402 H389 0.961 . S
C402 H390 0.959 . S
C402 C400 1.561 . S
C403 C400 1.526 . S
C403 C404 1.396 1_556 S
C403 C408 1.390 . S
C404 C398 1.465 . S
C404 C403 1.396 1_554 S
C404 C405 1.399 . S
C405 H391 0.929 . S
C405 C404 1.399 . S
C405 C406 1.385 . S
C406 H392 0.931 . S
C406 C405 1.385 . S
C406 C407 1.389 1_554 S
C407 C406 1.389 1_556 S
C407 C408 1.387 . S
C408 H393 0.930 . S
C408 C403 1.390 . S
C408 C407 1.387 . S
H409 C421 0.930 . S
H410 C423 0.930 . S
H411 C424 0.930 . S
H412 C428 0.959 . S
H413 C428 0.959 . S
H414 C428 0.961 . S
H415 C429 0.960 . S
H416 C429 0.961 . S
H417 C429 0.959 . S
H418 C432 0.929 . S
H419 C433 0.931 . S
H420 C435 0.930 . S
C421 H409 0.930 . S
C421 C422 1.399 . S
C421 C426 1.399 . S
C422 C421 1.399 . S
C422 C423 1.376 . S
C423 H410 0.930 . S
C423 C422 1.376 . S
C423 C424 1.388 . S
C424 H411 0.930 . S
C424 C423 1.388 . S
C424 C425 1.390 . S
C425 C424 1.390 . S
C425 C426 1.394 . S
C425 C431 1.465 . S
C426 C421 1.399 . S
C426 C425 1.394 . S
C426 C427 1.516 . S
C427 C426 1.516 . S
C427 C428 1.502 . S
C427 C429 1.561 . S
C427 C430 1.526 . S
C428 H412 0.959 . S
C428 H413 0.959 . S
C428 H414 0.961 . S
C428 C427 1.502 . S
C429 H415 0.960 . S
C429 H416 0.961 . S
C429 H417 0.959 . S
C429 C427 1.561 . S
C430 C427 1.526 . S
C430 C431 1.396 . S
C430 C435 1.390 . S
C431 C425 1.465 . S
C431 C430 1.396 . S
C431 C432 1.399 . S
C432 H418 0.929 . S
C432 C431 1.399 . S
C432 C433 1.385 . S
C433 H419 0.931 . S
C433 C432 1.385 . S
C433 C434 1.389 . S
C434 C433 1.389 . S
C434 C435 1.387 . S
C435 H420 0.930 . S
C435 C430 1.390 . S
C435 C434 1.387 . S
H436 C448 0.930 . S
H437 C450 0.930 . S
H438 C451 0.930 . S
H439 C455 0.959 . S
H440 C455 0.959 . S
H441 C455 0.961 . S
H442 C456 0.960 . S
H443 C456 0.961 . S
H444 C456 0.959 . S
H445 C459 0.929 . S
H446 C460 0.931 . S
H447 C462 0.930 . S
C448 H436 0.930 . S
C448 C449 1.399 . S
C448 C453 1.399 . S
C449 C448 1.399 . S
C449 C450 1.376 . S
C450 H437 0.930 . S
C450 C449 1.376 . S
C450 C451 1.388 . S
C451 H438 0.930 . S
C451 C450 1.388 . S
C451 C452 1.390 . S
C452 C451 1.390 . S
C452 C453 1.394 . S
C452 C458 1.465 . S
C453 C448 1.399 . S
C453 C452 1.394 . S
C453 C454 1.516 . S
C454 C453 1.516 . S
C454 C455 1.502 . S
C454 C456 1.561 . S
C454 C457 1.526 . S
C455 H439 0.959 . S
C455 H440 0.959 . S
C455 H441 0.961 . S
C455 C454 1.502 . S
C456 H442 0.960 . S
C456 H443 0.961 . S
C456 H444 0.959 . S
C456 C454 1.561 . S
C457 C454 1.526 . S
C457 C458 1.396 . S
C457 C462 1.390 . S
C458 C452 1.465 . S
C458 C457 1.396 . S
C458 C459 1.399 . S
C459 H445 0.929 . S
C459 C458 1.399 . S
C459 C460 1.385 . S
C460 H446 0.931 . S
C460 C459 1.385 . S
C460 C461 1.389 . S
C461 C460 1.389 . S
C461 C462 1.387 . S
C462 H447 0.930 . S
C462 C457 1.390 . S
C462 C461 1.387 . S
H463 C475 0.930 . S
H464 C477 0.930 . S
H465 C478 0.930 . S
H466 C482 0.959 . S
H467 C482 0.959 . S
H468 C482 0.961 . S
H469 C483 0.960 . S
H470 C483 0.961 . S
H471 C483 0.959 . S
H472 C486 0.929 . S
H473 C487 0.931 . S
H474 C489 0.930 . S
C475 H463 0.930 . S
C475 C476 1.399 1_554 S
C475 C480 1.399 . S
C476 C475 1.399 1_556 S
C476 C477 1.376 . S
C477 H464 0.930 . S
C477 C476 1.376 . S
C477 C478 1.388 . S
C478 H465 0.930 . S
C478 C477 1.388 . S
C478 C479 1.390 . S
C479 C478 1.390 . S
C479 C480 1.394 1_556 S
C479 C485 1.465 . S
C480 C475 1.399 . S
C480 C479 1.394 1_554 S
C480 C481 1.516 . S
C481 C480 1.516 . S
C481 C482 1.502 . S
C481 C483 1.561 . S
C481 C484 1.526 . S
C482 H466 0.959 . S
C482 H467 0.959 . S
C482 H468 0.961 . S
C482 C481 1.502 . S
C483 H469 0.960 . S
C483 H470 0.961 . S
C483 H471 0.959 . S
C483 C481 1.561 . S
C484 C481 1.526 . S
C484 C485 1.396 1_554 S
C484 C489 1.390 . S
C485 C479 1.465 . S
C485 C484 1.396 1_556 S
C485 C486 1.399 . S
C486 H472 0.929 . S
C486 C485 1.399 . S
C486 C487 1.385 . S
C487 H473 0.931 . S
C487 C486 1.385 . S
C487 C488 1.389 1_556 S
C488 C487 1.389 1_554 S
C488 C489 1.387 . S
C489 H474 0.930 . S
C489 C484 1.390 . S
C489 C488 1.387 . S
H490 C502 0.930 . S
H491 C504 0.953 . S
H492 C505 0.930 . S
H493 C509 0.959 . S
H494 C509 0.959 . S
H495 C509 0.961 . S
H496 C510 0.960 . S
H497 C510 0.961 . S
H498 C510 0.959 . S
H499 C513 0.929 . S
H500 C514 0.931 . S
H501 C516 0.930 . S
C502 H490 0.930 . S
C502 C503 1.399 . S
C502 C507 1.399 . S
C503 C502 1.399 . S
C503 C504 1.376 . S
C504 H491 0.953 . S
C504 C503 1.376 . S
C504 C505 1.388 . S
C505 H492 0.930 . S
C505 C504 1.388 . S
C505 C506 1.390 . S
C506 C505 1.390 . S
C506 C507 1.394 . S
C506 C512 1.465 . S
C507 C502 1.399 . S
C507 C506 1.394 . S
C507 C508 1.516 . S
C508 C507 1.516 . S
C508 C509 1.502 . S
C508 C510 1.561 . S
C508 C511 1.526 . S
C509 H493 0.959 . S
C509 H494 0.959 . S
C509 H495 0.961 . S
C509 C508 1.502 . S
C510 H496 0.960 . S
C510 H497 0.961 . S
C510 H498 0.959 . S
C510 C508 1.561 . S
C511 C508 1.526 . S
C511 C512 1.396 . S
C511 C516 1.390 . S
C512 C506 1.465 . S
C512 C511 1.396 . S
C512 C513 1.399 . S
C513 H499 0.929 . S
C513 C512 1.399 . S
C513 C514 1.385 . S
C514 H500 0.931 . S
C514 C513 1.385 . S
C514 C515 1.389 . S
C515 C514 1.389 . S
C515 C516 1.387 . S
C516 H501 0.930 . S
C516 C511 1.390 . S
C516 C515 1.387 . S
H517 C529 0.930 . S
H518 C531 0.930 . S
H519 C532 0.930 . S
H520 C536 0.959 . S
H521 C536 0.959 . S
H522 C536 0.961 . S
H523 C537 0.960 . S
H524 C537 0.961 . S
H525 C537 0.959 . S
H526 C540 0.929 . S
H527 C541 0.931 . S
H528 C543 0.930 . S
C529 H517 0.930 . S
C529 C530 1.399 . S
C529 C534 1.399 . S
C530 C529 1.399 . S
C530 C531 1.376 . S
C531 H518 0.930 . S
C531 C530 1.376 . S
C531 C532 1.388 . S
C532 H519 0.930 . S
C532 C531 1.388 . S
C532 C533 1.390 . S
C533 C532 1.390 . S
C533 C534 1.394 . S
C533 C539 1.465 . S
C534 C529 1.399 . S
C534 C533 1.394 . S
C534 C535 1.516 . S
C535 C534 1.516 . S
C535 C536 1.502 . S
C535 C537 1.561 . S
C535 C538 1.526 . S
C536 H520 0.959 . S
C536 H521 0.959 . S
C536 H522 0.961 . S
C536 C535 1.502 . S
C537 H523 0.960 . S
C537 H524 0.961 . S
C537 H525 0.959 . S
C537 C535 1.561 . S
C538 C535 1.526 . S
C538 C539 1.396 . S
C538 C543 1.390 . S
C539 C533 1.465 . S
C539 C538 1.396 . S
C539 C540 1.399 . S
C540 H526 0.929 . S
C540 C539 1.399 . S
C540 C541 1.385 . S
C541 H527 0.931 . S
C541 C540 1.385 . S
C541 C542 1.389 . S
C542 C541 1.389 . S
C542 C543 1.387 . S
C543 H528 0.930 . S
C543 C538 1.390 . S
C543 C542 1.387 . S
C125 C25 1.458 . S
C137 C11 1.445 . S
C152 C21 1.372 . S
C164 C39 1.408 . S
C179 C49 1.339 . S
C191 C35 1.385 . S
C206 C53 1.415 . S
C218 C7 1.413 . S
C233 C67 1.452 . S
C245 C81 1.452 . S
C260 C77 1.416 . S
C272 C95 1.411 . S
C287 C91 1.380 . S
C299 C105 1.360 . S
C314 C63 1.394 . S
C326 C109 1.415 . S
C341 C13 1.379 . S
C353 C106 1.411 . S
C368 C64 1.576 . S
C380 C22 1.540 . S
C395 C83 1.385 . S
C407 C36 1.416 . S
C422 C55 1.243 . S
C434 C97 1.300 . S
C449 C41 1.243 . S
C461 C111 1.194 . S
C476 C69 1.364 . S
C488 C50 1.397 . S
C503 C78 1.577 . S
C515 C8 1.530 . S
C530 C27 1.337 . S
C542 C92 1.371 . S
