# Generated by pormake.
# Topology vmb, (5)-cn, num edge types: 1
# Building blocks:
#     Node 0, Type 0, BuildingBlock: XOMCOT_clean_sbu_0, # of connection points: 5
#     Node 1, Type 0, BuildingBlock: XOMCOT_clean_sbu_0, # of connection points: 5
#     Node 2, Type 0, BuildingBlock: XOMCOT_clean_sbu_0, # of connection points: 5
#     Node 3, Type 0, BuildingBlock: XOMCOT_clean_sbu_0, # of connection points: 5
#     Node 4, Type 0, BuildingBlock: XOMCOT_clean_sbu_0, # of connection points: 5
#     Node 5, Type 0, BuildingBlock: XOMCOT_clean_sbu_0, # of connection points: 5
#     Node 6, Type 0, BuildingBlock: XOMCOT_clean_sbu_0, # of connection points: 5
#     Node 7, Type 0, BuildingBlock: XOMCOT_clean_sbu_0, # of connection points: 5
#     Edge 8, Type (0, 0), BuildingBlock: XIVTED_clean_linker_0, # of connection points: 2
#     Edge 9, Type (0, 0), BuildingBlock: XIVTED_clean_linker_0, # of connection points: 2
#     Edge 10, Type (0, 0), BuildingBlock: XIVTED_clean_linker_0, # of connection points: 2
#     Edge 11, Type (0, 0), BuildingBlock: XIVTED_clean_linker_0, # of connection points: 2
#     Edge 12, Type (0, 0), BuildingBlock: XIVTED_clean_linker_0, # of connection points: 2
#     Edge 13, Type (0, 0), BuildingBlock: XIVTED_clean_linker_0, # of connection points: 2
#     Edge 14, Type (0, 0), BuildingBlock: XIVTED_clean_linker_0, # of connection points: 2
#     Edge 15, Type (0, 0), BuildingBlock: XIVTED_clean_linker_0, # of connection points: 2
#     Edge 16, Type (0, 0), BuildingBlock: XIVTED_clean_linker_0, # of connection points: 2
#     Edge 17, Type (0, 0), BuildingBlock: XIVTED_clean_linker_0, # of connection points: 2
#     Edge 18, Type (0, 0), BuildingBlock: XIVTED_clean_linker_0, # of connection points: 2
#     Edge 19, Type (0, 0), BuildingBlock: XIVTED_clean_linker_0, # of connection points: 2
#     Edge 20, Type (0, 0), BuildingBlock: XIVTED_clean_linker_0, # of connection points: 2
#     Edge 21, Type (0, 0), BuildingBlock: XIVTED_clean_linker_0, # of connection points: 2
#     Edge 22, Type (0, 0), BuildingBlock: XIVTED_clean_linker_0, # of connection points: 2
#     Edge 23, Type (0, 0), BuildingBlock: XIVTED_clean_linker_0, # of connection points: 2
#     Edge 24, Type (0, 0), BuildingBlock: XIVTED_clean_linker_0, # of connection points: 2
#     Edge 25, Type (0, 0), BuildingBlock: XIVTED_clean_linker_0, # of connection points: 2
#     Edge 26, Type (0, 0), BuildingBlock: XIVTED_clean_linker_0, # of connection points: 2
#     Edge 27, Type (0, 0), BuildingBlock: XIVTED_clean_linker_0, # of connection points: 2
# Relax obj value: 0.128
# Max RMSD: 0.193
# Mean RMSD: 0.193
data_MOF--net-vmb--node1-XOMCOT_clean_sbu_0--edge1-XIVTED_clean_linker_0
_symmetry_space_group_name_H-M    P1
_symmetry_Int_Tables_number       1
_symmetry_cell_setting            triclinic
loop_
_symmetry_equiv_pos_as_xyz
'x, y, z'
_cell_length_a     37.509184
_cell_length_b     43.200231
_cell_length_c     30.418429
_cell_angle_alpha  89.966312
_cell_angle_beta   117.03937
_cell_angle_gamma 90.227399
loop_
_atom_site_label
_atom_site_type_symbol
_atom_site_fract_x
_atom_site_fract_y
_atom_site_fract_z
_atom_type_partial_charge
Co0 Co 0.27966 0.08831 0.41108 0.0
C1 C 0.3632 0.06612 0.44442 0.0
C2 C 0.35577 0.11263 0.41779 0.0
C3 C 0.39379 0.10297 0.4282 0.0
N4 N 0.33677 0.08978 0.4292 0.0
N5 N 0.39834 0.07358 0.44476 0.0
H6 H 0.35641 0.04326 0.45233 0.0
H7 H 0.34226 0.13431 0.40062 0.0
C8 C 0.30579 0.14928 0.46138 0.0
O9 O 0.33704 0.13533 0.49598 0.0
N10 N 0.22283 0.08627 0.3916 0.0
C11 C 0.2047 0.06488 0.40696 0.0
C12 C 0.16429 0.07037 0.38458 0.0
C13 C 0.19297 0.10404 0.35885 0.0
N14 N 0.15689 0.09488 0.35432 0.0
C15 C 0.3036 0.04781 0.49404 0.0
C16 C 0.27512 0.0838 0.54621 0.0
C17 C 0.28888 0.05393 0.56286 0.0
C18 C 0.30419 0.03618 0.53696 0.0
C19 C 0.27519 0.09463 0.50307 0.0
N20 N 0.28982 0.07687 0.47767 0.0
H21 H 0.31071 0.03213 0.47184 0.0
H22 H 0.26023 0.1162 0.48814 0.0
H23 H 0.21966 0.04608 0.43198 0.0
H24 H 0.19745 0.12289 0.3384 0.0
O25 O 0.27667 0.04762 0.3838 0.0
O26 O 0.26856 0.09193 0.34321 0.0
O27 O 0.27968 0.13376 0.42531 0.0
C28 C 0.27024 0.06185 0.34318 0.0
H29 H 0.41546 0.116 0.42135 0.0
H30 H 0.14178 0.05653 0.38851 0.0
H31 H 0.26167 0.09779 0.56421 0.0
H32 H 0.31448 0.01274 0.54819 0.0
Co33 Co 0.75264 0.0813 0.05614 0.0
C34 C 0.66809 0.06071 0.01931 0.0
C35 C 0.67458 0.10896 0.03677 0.0
C36 C 0.63583 0.10013 0.02476 0.0
N37 N 0.6947 0.0844 0.03198 0.0
N38 N 0.63189 0.06964 0.01405 0.0
H39 H 0.67555 0.03693 0.01734 0.0
H40 H 0.68769 0.13136 0.05098 0.0
C41 C 0.73388 0.14145 0.00248 0.0
O42 O 0.70349 0.12789 0.96575 0.0
N43 N 0.80998 0.07747 0.08138 0.0
C44 C 0.8285 0.05346 0.07228 0.0
C45 C 0.86898 0.05895 0.09486 0.0
C46 C 0.83954 0.09702 0.11049 0.0
N47 N 0.87592 0.08624 0.11885 0.0
C48 C 0.73022 0.0399 0.97417 0.0
C49 C 0.76771 0.0724 0.92849 0.0
C50 C 0.75053 0.04356 0.90966 0.0
C51 C 0.73114 0.02743 0.93257 0.0
C52 C 0.76613 0.08402 0.97024 0.0
N53 N 0.74673 0.06817 -0.00793 0.0
H54 H 0.71897 0.02555 -0.00611 0.0
H55 H 0.783 0.10475 -0.01317 0.0
H56 H 0.81355 0.03328 0.05066 0.0
H57 H 0.83459 0.11856 0.125 0.0
O58 O 0.75148 0.0415 0.08378 0.0
O59 O 0.75915 0.08682 0.12183 0.0
O60 O 0.75633 0.12609 0.041 0.0
C61 C 0.75568 0.05687 0.12263 0.0
H62 H 0.61319 0.1146 0.02691 0.0
H63 H 0.89176 0.04364 0.09485 0.0
H64 H 0.78431 0.08502 0.91293 0.0
H65 H 0.7181 0.00478 0.91961 0.0
Co66 Co 0.74721 0.91777 0.55122 0.0
C67 C 0.66789 0.93897 0.53844 0.0
C68 C 0.66437 0.89293 0.51062 0.0
C69 C 0.62628 0.90264 0.49979 0.0
N70 N 0.69059 0.91577 0.53489 0.0
N71 N 0.62849 0.93174 0.51695 0.0
H72 H 0.67971 0.96123 0.55483 0.0
H73 H 0.67178 0.87124 0.49916 0.0
C74 C 0.75604 0.84978 0.55872 0.0
O75 O 0.76737 0.85227 0.60625 0.0
N76 N 0.80341 0.92037 0.56696 0.0
C77 C 0.81967 0.94091 0.54775 0.0
C78 C 0.8604 0.93689 0.56974 0.0
C79 C 0.83475 0.9047 0.60155 0.0
N80 N 0.8699 0.91423 0.60362 0.0
C81 C 0.71295 0.9579 0.46841 0.0
C82 C 0.73891 0.9255 0.40997 0.0
C83 C 0.72066 0.95435 0.39409 0.0
C84 C 0.70642 0.97015 0.4231 0.0
C85 C 0.74465 0.91397 0.45541 0.0
N86 N 0.73258 0.93055 0.48446 0.0
H87 H 0.70385 0.97113 0.49165 0.0
H88 H 0.76142 0.89285 0.46859 0.0
H89 H 0.80327 0.95838 0.52068 0.0
H90 H 0.8321 0.8873 0.62548 0.0
O91 O 0.75208 0.95774 0.58127 0.0
O92 O 0.76141 0.91268 0.62002 0.0
O93 O 0.74588 0.87366 0.53135 0.0
C94 C 0.76066 0.94273 0.62187 0.0
H95 H 0.59894 0.8898 0.4785 0.0
H96 H 0.88165 0.95068 0.56314 0.0
H97 H 0.75106 0.91286 0.38911 0.0
H98 H 0.69183 0.9924 0.41183 0.0
Co99 Co 0.27383 0.92428 0.90877 0.0
C100 C 0.35487 0.94254 0.92228 0.0
C101 C 0.35675 0.90106 0.96186 0.0
C102 C 0.39544 0.91007 0.97404 0.0
N103 N 0.33114 0.92134 0.92913 0.0
N104 N 0.39425 0.93635 0.94943 0.0
H105 H 0.34377 0.96295 0.8997 0.0
H106 H 0.34822 0.88214 0.97843 0.0
C107 C 0.27619 0.85723 0.89846 0.0
O108 O 0.28537 0.86324 0.86249 0.0
N109 N 0.21725 0.92779 0.88947 0.0
C110 C 0.20036 0.94961 0.90553 0.0
C111 C 0.15966 0.94511 0.88304 0.0
C112 C 0.18652 0.91068 0.85645 0.0
N113 N 0.15096 0.92073 0.85217 0.0
C114 C 0.3075 0.961 -0.00465 0.0
C115 C 0.27228 0.92946 0.04488 0.0
C116 C 0.29217 0.95751 0.06408 0.0
C117 C 0.31123 0.97271 0.03981 0.0
C118 C 0.26945 0.91843 0.00036 0.0
N119 N 0.28582 0.93479 0.97557 0.0
H120 H 0.32037 0.97381 0.9755 0.0
H121 H 0.25158 0.898 -0.01584 0.0
H122 H 0.21649 0.96788 0.9313 0.0
H123 H 0.19007 0.89158 0.83577 0.0
O124 O 0.27258 0.96531 0.88306 0.0
O125 O 0.26213 0.92161 0.84051 0.0
O126 O 0.27139 0.87936 0.92284 0.0
C127 C 0.26456 0.95164 0.84147 0.0
H128 H 0.4223 0.89916 0.00139 0.0
H129 H 0.13792 0.95943 0.88757 0.0
H130 H 0.25681 0.91721 0.06227 0.0
H131 H 0.32744 0.99419 0.05395 0.0
Co132 Co 0.78981 0.58302 0.41212 0.0
C133 C 0.86917 0.56312 0.42413 0.0
C134 C 0.87068 0.61084 0.44403 0.0
C135 C 0.90865 0.60215 0.45247 0.0
N136 N 0.84586 0.58627 0.42631 0.0
N137 N 0.9076 0.57204 0.44028 0.0
H138 H 0.85852 0.53991 0.41178 0.0
H139 H 0.86245 0.63333 0.4519 0.0
C140 C 0.77927 0.65086 0.40482 0.0
O141 O 0.76799 0.64848 0.35729 0.0
N142 N 0.73423 0.57916 0.39823 0.0
C143 C 0.71898 0.55698 0.41605 0.0
C144 C 0.67815 0.56025 0.39502 0.0
C145 C 0.70233 0.59527 0.36571 0.0
N146 N 0.66764 0.58425 0.36326 0.0
C147 C 0.82632 0.54287 0.49492 0.0
C148 C 0.80087 0.57439 0.55461 0.0
C149 C 0.82013 0.54586 0.57033 0.0
C150 C 0.83399 0.53049 0.54058 0.0
C151 C 0.794 0.58605 0.5088 0.0
N152 N 0.80603 0.57001 0.47924 0.0
H153 H 0.83502 0.52983 0.47117 0.0
H154 H 0.77649 0.60687 0.49588 0.0
H155 H 0.73618 0.53891 0.44135 0.0
H156 H 0.70432 0.61403 0.34341 0.0
O157 O 0.78562 0.5432 0.38186 0.0
O158 O 0.77405 0.58828 0.34287 0.0
O159 O 0.79018 0.627 0.43222 0.0
C160 C 0.77587 0.55829 0.34105 0.0
H161 H 0.93524 0.61653 0.46831 0.0
H162 H 0.65761 0.54509 0.40075 0.0
H163 H 0.78887 0.58666 0.57597 0.0
H164 H 0.84921 0.50847 0.55158 0.0
Co165 Co 0.26131 0.58719 0.05821 0.0
C166 C 0.18157 0.56272 0.03598 0.0
C167 C 0.1836 0.61218 0.04389 0.0
C168 C 0.14575 0.60191 0.03373 0.0
N169 N 0.20582 0.58756 0.04497 0.0
N170 N 0.14453 0.57077 0.02877 0.0
H171 H 0.19087 0.53929 0.03408 0.0
H172 H 0.19422 0.63586 0.05034 0.0
C173 C 0.26568 0.63632 -0.00835 0.0
O174 O 0.28087 0.61566 0.97351 0.0
N175 N 0.3181 0.58676 0.07272 0.0
C176 C 0.33493 0.57626 0.04453 0.0
C177 C 0.37562 0.58024 0.06918 0.0
C178 C 0.34965 0.59693 0.11458 0.0
N179 N 0.38493 0.59315 0.11328 0.0
C180 C 0.25997 0.53474 0.00021 0.0
C181 C 0.20627 0.55898 0.91029 0.0
C182 C 0.22588 0.53123 0.91127 0.0
C183 C 0.25153 0.51832 0.95717 0.0
C184 C 0.21597 0.57473 0.95421 0.0
N185 N 0.24519 0.56383 -0.00221 0.0
H186 H 0.28092 0.52519 0.03533 0.0
H187 H 0.20106 0.5963 0.95302 0.0
H188 H 0.31938 0.56676 0.00785 0.0
H189 H 0.34714 0.60703 0.14555 0.0
O190 O 0.27065 0.55289 0.1022 0.0
O191 O 0.27551 0.60258 0.12358 0.0
O192 O 0.25461 0.62859 0.02419 0.0
C193 C 0.27759 0.57357 0.1362 0.0
H194 H 0.12128 0.61629 0.03101 0.0
H195 H 0.39683 0.57346 0.056 0.0
H196 H 0.1847 0.569 0.87581 0.0
H197 H 0.26696 0.49673 0.9599 0.0
Co198 Co 0.26379 0.42741 0.56176 0.0
C199 C 0.17845 0.44646 0.51663 0.0
C200 C 0.18483 0.39776 0.53048 0.0
C201 C 0.14522 0.40546 0.51421 0.0
N202 N 0.20565 0.42337 0.53084 0.0
N203 N 0.14125 0.43621 0.50568 0.0
H204 H 0.18606 0.47062 0.51863 0.0
H205 H 0.19782 0.37525 0.54362 0.0
C206 C 0.24794 0.37128 0.4983 0.0
O207 O 0.21895 0.38638 0.46234 0.0
N208 N 0.32131 0.43198 0.59342 0.0
C209 C 0.34086 0.45815 0.59304 0.0
C210 C 0.38119 0.45235 0.61507 0.0
C211 C 0.35005 0.41065 0.61672 0.0
N212 N 0.38688 0.42261 0.62984 0.0
C213 C 0.24897 0.47602 0.4914 0.0
C214 C 0.2867 0.44832 0.44217 0.0
C215 C 0.27201 0.47847 0.42901 0.0
C216 C 0.25298 0.49231 0.45434 0.0
C217 C 0.28286 0.43317 0.48022 0.0
N218 N 0.26278 0.44647 0.5032 0.0
H219 H 0.2373 0.48822 0.51282 0.0
H220 H 0.29798 0.41136 0.49263 0.0
H221 H 0.32667 0.47987 0.57703 0.0
H222 H 0.34421 0.38691 0.62297 0.0
O223 O 0.25991 0.46407 0.59509 0.0
O224 O 0.26512 0.41609 0.62367 0.0
O225 O 0.26903 0.38453 0.53969 0.0
C226 C 0.2611 0.4455 0.62941 0.0
H227 H 0.12163 0.3897 0.51082 0.0
H228 H 0.4047 0.46876 0.62036 0.0
H229 H 0.30189 0.43657 0.42411 0.0
H230 H 0.24281 0.51605 0.44731 0.0
Co231 Co 0.79089 0.41922 0.91088 0.0
C232 C 0.87554 0.43926 0.94912 0.0
C233 C 0.86917 0.39085 0.93281 0.0
C234 C 0.9081 0.39952 0.94544 0.0
N235 N 0.84887 0.41565 0.93649 0.0
N236 N 0.9119 0.43009 0.95532 0.0
H237 H 0.86807 0.46313 0.9503 0.0
H238 H 0.85609 0.3684 0.91888 0.0
C239 C 0.80816 0.35938 0.9652 0.0
O240 O 0.83824 0.373 0.00223 0.0
N241 N 0.73355 0.42353 0.88429 0.0
C242 C 0.71509 0.44794 0.89252 0.0
C243 C 0.67463 0.44246 0.87031 0.0
C244 C 0.70397 0.40376 0.85598 0.0
N245 N 0.66771 0.4148 0.84746 0.0
C246 C 0.81244 0.46095 -0.00753 0.0
C247 C 0.77297 0.42918 0.03637 0.0
C248 C 0.7904 0.4579 0.05552 0.0
C249 C 0.81073 0.47369 0.03348 0.0
C250 C 0.77534 0.4173 -0.00474 0.0
N251 N 0.79572 0.43276 0.97434 0.0
H252 H 0.82454 0.47503 0.97338 0.0
H253 H 0.75832 0.39668 0.97838 0.0
H254 H 0.73012 0.46828 0.91361 0.0
H255 H 0.70881 0.38182 0.84241 0.0
O256 O 0.79304 0.45882 0.8832 0.0
O257 O 0.78553 0.41331 0.84574 0.0
O258 O 0.78637 0.37458 0.92619 0.0
C259 C 0.78939 0.44321 0.84477 0.0
H260 H 0.93098 0.38489 0.94418 0.0
H261 H 0.65183 0.45788 0.87 0.0
H262 H 0.75563 0.41683 0.05117 0.0
H263 H 0.824 0.49625 0.04668 0.0
H264 H 0.27697 0.01815 0.0722 0.0
H265 H 0.28122 0.99992 0.3358 0.0
H266 H 0.29917 0.93109 0.14983 0.0
H267 H 0.25669 0.08554 0.25407 0.0
H268 H 0.2856 0.97352 0.26732 0.0
H269 H 0.26882 0.0428 0.1388 0.0
C270 C 0.28067 0.00429 0.10367 0.0
C271 C 0.28922 0.9726 0.10582 0.0
C272 C 0.27899 0.99803 0.26429 0.0
C273 C 0.27899 1.00057 0.18182 0.0
C274 C 0.27631 0.01307 0.30321 0.0
C275 C 0.26873 0.04495 0.30052 0.0
C276 C 0.2741 0.01509 0.22264 0.0
C277 C 0.26274 0.06094 0.25768 0.0
C278 C 0.27557 0.01832 0.14147 0.0
C279 C 0.29252 0.95559 0.14678 0.0
N280 N 0.26576 0.04585 0.2205 0.0
N281 N 0.28747 0.96984 0.18335 0.0
H282 H 0.7655 0.08278 0.20893 0.0
H283 H 0.70515 0.92852 0.30475 0.0
H284 H 0.73784 0.99625 0.12898 0.0
H285 H 0.73884 0.01448 0.3862 0.0
H286 H 0.71418 0.95319 0.23804 0.0
H287 H 0.75436 0.05804 0.2736 0.0
C288 C 0.75739 0.05848 0.20522 0.0
C289 C 0.75264 0.04147 0.16373 0.0
C290 C 0.7193 0.96666 0.2704 0.0
C291 C 0.7394 0.01311 0.23716 0.0
C292 C 0.71413 0.95262 0.30837 0.0
C293 C 0.72118 0.96951 0.35094 0.0
C294 C 0.73172 0.99772 0.27529 0.0
C295 C 0.73245 1.00072 0.35371 0.0
C296 C 0.75087 0.04439 0.24202 0.0
C297 C 0.74198 0.01011 0.1606 0.0
N298 N 0.73756 0.01376 0.31648 0.0
N299 N 0.73557 0.99691 0.19687 0.0
H300 H 0.75456 0.00469 0.63396 0.0
H301 H 0.77149 0.984 0.90354 0.0
H302 H 0.77846 0.91755 0.71162 0.0
H303 H 0.74255 0.07063 0.82432 0.0
H304 H 0.77951 0.96023 0.836 0.0
H305 H 0.75651 0.03044 0.70643 0.0
C306 C 0.76063 0.99104 0.66648 0.0
C307 C 0.76602 0.95894 0.66681 0.0
C308 C 0.77145 0.98444 0.83334 0.0
C309 C 0.76797 0.98811 0.74943 0.0
C310 C 0.76653 0.99794 0.87167 0.0
C311 C 0.75576 0.02918 0.86905 0.0
C312 C 0.76551 1.0023 0.79204 0.0
C313 C 0.75084 0.04645 0.82765 0.0
C314 C 0.76163 0.00573 0.70775 0.0
C315 C 0.77387 0.94233 0.7098 0.0
N316 N 0.75552 0.0327 0.79053 0.0
N317 N 0.77433 0.95711 0.74934 0.0
H318 H 0.28118 0.01292 0.837 0.0
H319 H 0.25924 0.99663 0.56429 0.0
H320 H 0.24316 0.92959 0.74914 0.0
H321 H 0.30304 0.07959 0.65192 0.0
H322 H 0.24873 0.97325 0.63016 0.0
H323 H 0.28392 0.0396 0.76758 0.0
C324 C 0.27294 1.00037 0.80289 0.0
C325 C 0.26217 0.96899 0.79874 0.0
C326 C 0.26068 0.99656 0.63517 0.0
C327 C 0.26553 0.99915 0.71974 0.0
C328 C 0.26705 0.00981 0.59773 0.0
C329 C 0.28272 0.03987 0.60313 0.0
C330 C 0.27004 0.01345 0.67845 0.0
C331 C 0.29105 0.05629 0.64651 0.0
C332 C 0.27468 0.01555 0.76343 0.0
C333 C 0.25189 0.95376 0.75394 0.0
N334 N 0.28481 0.04276 0.68278 0.0
N335 N 0.25404 0.96895 0.71626 0.0
H336 H 0.78158 0.49638 0.32837 0.0
H337 H 0.7706 0.51786 0.06186 0.0
H338 H 0.7591 0.58383 0.25173 0.0
H339 H 0.79605 0.43077 0.13972 0.0
H340 H 0.76135 0.54165 0.12858 0.0
H341 H 0.78074 0.47092 0.25634 0.0
C342 C 0.77603 0.51016 0.29614 0.0
C343 C 0.77075 0.54227 0.29602 0.0
C344 C 0.76889 0.51732 0.13109 0.0
C345 C 0.77012 0.51341 0.21387 0.0
C346 C 0.77454 0.50381 0.09325 0.0
C347 C 0.78463 0.47241 0.0957 0.0
C348 C 0.77345 0.49932 0.17171 0.0
C349 C 0.78826 0.45506 0.13647 0.0
C350 C 0.77567 0.49564 0.25511 0.0
C351 C 0.76355 0.55903 0.25337 0.0
N352 N 0.78288 0.46881 0.17309 0.0
N353 N 0.76377 0.54441 0.21406 0.0
H354 H 0.25626 0.60433 0.19862 0.0
H355 H 0.33556 0.47538 0.40714 0.0
H356 H 0.31411 0.52131 0.18521 0.0
H357 H 0.22244 0.52171 0.36347 0.0
H358 H 0.34253 0.5019 0.34062 0.0
H359 H 0.25948 0.58423 0.27597 0.0
C360 C 0.2704 0.58221 0.21261 0.0
C361 C 0.28472 0.56423 0.18577 0.0
C362 C 0.31643 0.50631 0.34612 0.0
C363 C 0.28881 0.54155 0.27341 0.0
C364 C 0.31208 0.49095 0.38365 0.0
C365 C 0.27792 0.49579 0.39059 0.0
C366 C 0.28695 0.52717 0.31606 0.0
C367 C 0.24941 0.51731 0.35997 0.0
C368 C 0.27196 0.57074 0.2563 0.0
C369 C 0.30247 0.53564 0.20489 0.0
N370 N 0.25456 0.53221 0.32397 0.0
N371 N 0.30404 0.5251 0.24773 0.0
H372 H 0.22328 0.56249 0.83203 0.0
H373 H 0.25693 0.41216 0.70344 0.0
H374 H 0.22444 0.46979 0.88602 0.0
H375 H 0.2501 0.50526 0.64851 0.0
H376 H 0.24295 0.43217 0.76922 0.0
H377 H 0.22861 0.54113 0.76156 0.0
C378 C 0.22382 0.53757 0.82862 0.0
C379 C 0.22348 0.51791 0.86517 0.0
C380 C 0.2445 0.44818 0.74274 0.0
C381 C 0.23095 0.49328 0.78501 0.0
C382 C 0.25271 0.43681 0.70541 0.0
C383 C 0.2549 0.45715 0.67076 0.0
C384 C 0.23852 0.48006 0.74528 0.0
C385 C 0.24888 0.4888 0.67466 0.0
C386 C 0.22736 0.52538 0.78853 0.0
C387 C 0.22522 0.48582 0.85912 0.0
N388 N 0.241 0.49928 0.7113 0.0
N389 N 0.22921 0.47449 0.81996 0.0
H390 H 0.78185 0.41664 0.75986 0.0
H391 H 0.8365 0.57179 0.65991 0.0
H392 H 0.80654 0.5039 0.83755 0.0
H393 H 0.80471 0.48526 0.57995 0.0
H394 H 0.8297 0.54684 0.72795 0.0
H395 H 0.79299 0.44121 0.69504 0.0
C396 C 0.78936 0.44105 0.76307 0.0
C397 C 0.79313 0.45834 0.8039 0.0
C398 C 0.82453 0.5333 0.69563 0.0
C399 C 0.80632 0.48654 0.73025 0.0
C400 C 0.82842 0.54751 0.65688 0.0
C401 C 0.82115 0.53056 0.61429 0.0
C402 C 0.81319 0.50201 0.69153 0.0
C403 C 0.81116 0.4991 0.61238 0.0
C404 C 0.79588 0.45504 0.72618 0.0
C405 C 0.8031 0.48982 0.80643 0.0
N406 N 0.80725 0.4859 0.65034 0.0
N407 N 0.80943 0.50295 0.77003 0.0
H408 H 0.55282 0.91522 0.49843 0.0
H409 H 0.4759 0.09038 0.47396 0.0
H410 H 0.62805 0.99496 0.51666 0.0
H411 H 0.39868 0.01039 0.44194 0.0
H412 H 0.53263 0.05592 0.49309 0.0
H413 H 0.49672 0.94982 0.48148 0.0
C414 C 0.55765 0.93994 0.49886 0.0
C415 C 0.59546 0.95201 0.50903 0.0
C416 C 0.50325 0.04594 0.48196 0.0
C417 C 0.53111 0.99196 0.48991 0.0
C418 C 0.47074 0.06564 0.47077 0.0
C419 C 0.43223 0.05345 0.45638 0.0
C420 C 0.49736 0.0137 0.4788 0.0
C421 C 0.42769 0.02105 0.45361 0.0
C422 C 0.52555 0.95974 0.48933 0.0
C423 C 0.59981 0.98441 0.50974 0.0
N424 N 0.45977 1.0024 0.46466 0.0
N425 N 0.56808 1.00317 0.50022 0.0
H426 H 0.39412 0.99852 0.93256 0.0
H427 H 0.63145 0.0076 0.03102 0.0
H428 H 0.47184 0.91901 0.98163 0.0
H429 H 0.55355 0.08655 0.97434 0.0
H430 H 0.57333 0.975 0.01287 0.0
H431 H 0.45168 0.03094 0.9467 0.0
C432 C 0.42311 0.98769 0.94581 0.0
C433 C 0.42786 0.95576 0.95583 0.0
C434 C 0.56887 0.99944 0.00425 0.0
C435 C 0.49442 0.99321 0.97296 0.0
C436 C 0.60217 0.01815 0.01433 0.0
C437 C 0.59761 0.05003 0.00392 0.0
C438 C 0.53047 0.01253 -0.01637 0.0
C439 C 0.55868 0.06223 -0.01661 0.0
C440 C 0.45614 0.00638 0.95424 0.0
C441 C 0.46662 0.94346 0.9739 0.0
N442 N 0.52669 0.0435 0.97391 0.0
N443 N 0.49829 0.96217 0.98193 0.0
H444 H 0.9765 0.58914 0.43782 0.0
H445 H 0.07423 0.42105 0.51501 0.0
H446 H 0.91525 0.51035 0.45945 0.0
H447 H 0.12714 0.49465 0.46772 0.0
H448 H 1.01657 0.45389 0.49672 0.0
H449 H 0.03326 0.55565 0.45166 0.0
C450 C 0.97499 0.56484 0.44548 0.0
C451 C 0.94096 0.55257 0.44727 0.0
C452 C 0.04078 0.46283 0.49023 0.0
C453 C 1.00574 0.51407 0.46314 0.0
C454 C 0.07379 0.44396 0.50046 0.0
C455 C 0.10605 0.45498 0.49325 0.0
C456 C 0.03987 0.49309 0.47284 0.0
C457 C 0.10353 0.48521 0.47481 0.0
C458 C 1.00728 0.54569 0.45312 0.0
C459 C 0.94051 0.52079 0.45694 0.0
N460 N 0.07118 0.5032 0.46549 0.0
N461 N 0.97241 0.50273 0.46471 0.0
H462 H 0.0655 0.58561 0.98265 0.0
H463 H 0.99049 0.4139 -0.00026 0.0
H464 H 0.14597 0.50921 0.04942 0.0
H465 H 0.91169 0.49121 0.93316 0.0
H466 H 0.04796 0.44788 0.01744 0.0
H467 H 1.00895 0.55106 0.96446 0.0
C468 C 0.07139 0.56163 -0.00622 0.0
C469 C 0.11076 0.55045 0.01773 0.0
C470 C 1.01805 0.45738 -0.00098 0.0
C471 C 0.04575 0.51043 -0.00358 0.0
C472 C 0.98523 0.43794 -0.0113 0.0
C473 C 0.9461 0.44967 0.96531 0.0
C474 C 1.01175 0.4888 -0.01431 0.0
C475 C 0.94117 0.48115 0.95219 0.0
C476 C 0.03897 0.5418 -0.01692 0.0
C477 C 0.11626 0.51889 0.03042 0.0
N478 N 0.97351 0.49953 0.96256 0.0
N479 N 0.08418 0.50003 0.01969 0.0
H480 H 0.13052 0.11059 0.25828 0.0
H481 H 0.90155 0.11269 0.20901 0.0
H482 H 0.09368 0.1024 0.37281 0.0
H483 H 0.93923 0.08793 0.09946 0.0
H484 H 0.97153 0.12484 0.26698 0.0
H485 H 0.06021 0.11828 0.19765 0.0
C486 C 0.10771 0.11127 0.27076 0.0
C487 C 0.11764 0.10557 0.32035 0.0
C488 C 0.96432 0.1173 0.22992 0.0
C489 C 0.03756 0.11415 0.25168 0.0
C490 C 0.92446 0.1106 0.19686 0.0
C491 C 0.9149 0.099 0.14977 0.0
C492 C 0.99457 0.11269 0.21539 0.0
C493 C 0.94563 0.09642 0.13578 0.0
C494 C 0.06765 0.1154 0.23623 0.0
C495 C 0.087 0.10635 0.33471 0.0
N496 N 0.98412 0.10297 0.16852 0.0
N497 N 0.0483 0.11027 0.30052 0.0
H498 H 0.08685 0.91732 0.86998 0.0
H499 H 0.93408 0.90942 0.58617 0.0
H500 H 0.12444 0.90133 0.75757 0.0
H501 H 0.89716 0.90021 0.70056 0.0
H502 H 1.00382 0.90305 0.64796 0.0
H503 H 1.01744 0.90771 0.80923 0.0
C504 C 0.08041 0.91138 0.83252 0.0
C505 C 0.11127 0.91038 0.81857 0.0
C506 C 0.9805 0.90191 0.65955 0.0
C507 C 0.03189 0.89972 0.7486 0.0
C508 C 0.94073 0.90564 0.62432 0.0
C509 C 0.90994 0.90561 0.63842 0.0
C510 C 0.98967 0.89867 0.70951 0.0
C511 C 0.92002 0.9003 0.68819 0.0
C512 C 0.04084 0.9058 0.79788 0.0
C513 C 0.1015 0.90226 0.76976 0.0
N514 N 0.95911 0.89756 0.7221 0.0
N515 N 0.06255 0.89775 0.73628 0.0
H516 H 0.41073 0.59092 0.21242 0.0
H517 H 0.64083 0.60885 0.27141 0.0
H518 H 0.45025 0.60899 0.10203 0.0
H519 H 0.60204 0.5797 0.37849 0.0
H520 H 0.57093 0.61762 0.21189 0.0
H521 H 0.48019 0.59527 0.27648 0.0
C522 C 0.43392 0.59629 0.20172 0.0
C523 C 0.42476 0.59922 0.15177 0.0
C524 C 0.57774 0.60958 0.24858 0.0
C525 C 0.50431 0.60393 0.22472 0.0
C526 C 0.61769 0.60478 0.28269 0.0
C527 C 0.62727 0.59315 0.32982 0.0
C528 C 0.54714 0.6028 0.26173 0.0
C529 C 0.59594 0.58807 0.34223 0.0
C530 C 0.4736 0.59857 0.23825 0.0
C531 C 0.45609 0.60594 0.14 0.0
N532 N 0.55731 0.5927 0.30833 0.0
N533 N 0.49444 0.60786 0.17612 0.0
H534 H 0.60905 0.40652 0.87378 0.0
H535 H 0.44548 0.42118 0.60236 0.0
H536 H 0.63747 0.39569 0.75267 0.0
H537 H 0.41577 0.39273 0.7173 0.0
H538 H 0.51542 0.40723 0.6549 0.0
H539 H 0.5384 0.39656 0.81765 0.0
C540 C 0.60031 0.40119 0.83544 0.0
C541 C 0.62874 0.40194 0.81754 0.0
C542 C 0.49356 0.40325 0.66833 0.0
C543 C 0.54812 0.39152 0.75282 0.0
C544 C 0.45375 0.41121 0.63837 0.0
C545 C 0.42521 0.4081 0.65583 0.0
C546 C 0.50508 0.39299 0.71672 0.0
C547 C 0.43708 0.39527 0.70268 0.0
C548 C 0.5601 0.39552 0.80342 0.0
C549 C 0.61626 0.39512 0.76767 0.0
N550 N 0.47639 0.38882 0.73207 0.0
N551 N 0.57664 0.39089 0.73669 0.0
H552 H 0.20736 0.33407 0.4176 0.0
H553 H 0.35197 0.18901 0.53594 0.0
H554 H 0.30942 0.33511 0.56196 0.0
H555 H 0.24441 0.18535 0.39702 0.0
H556 H 0.339 0.24355 0.54377 0.0
H557 H 0.22257 0.28043 0.4071 0.0
C558 C 0.23301 0.32306 0.44703 0.0
C559 C 0.25705 0.33907 0.49078 0.0
C560 C 0.31828 0.23083 0.51152 0.0
C561 C 0.27463 0.27773 0.47902 0.0
C562 C 0.3257 0.19968 0.507 0.0
C563 C 0.29917 0.18255 0.46585 0.0
C564 C 0.28412 0.24498 0.4746 0.0
C565 C 0.26563 0.19764 0.42946 0.0
C566 C 0.24165 0.29243 0.44104 0.0
C567 C 0.28993 0.32364 0.52767 0.0
N568 N 0.25903 0.22797 0.43474 0.0
N569 N 0.29771 0.29383 0.52096 0.0
H570 H 0.74566 0.32534 0.89768 0.0
H571 H 0.79616 0.17562 0.07 0.0
H572 H 0.84576 0.31992 0.0433 0.0
H573 H 0.69563 0.18109 0.92473 0.0
H574 H 0.81449 0.22857 0.061 0.0
H575 H 0.72699 0.2725 0.90683 0.0
C576 C 0.76383 0.31301 0.93156 0.0
C577 C 0.79738 0.32708 0.96982 0.0
C578 C 0.78838 0.21823 0.03111 0.0
C579 C 0.77599 0.26657 0.98055 0.0
C580 C 0.77782 0.18798 0.03623 0.0
C581 C 0.74428 0.17388 -0.002 0.0
C582 C 0.76527 0.23454 -0.01256 0.0
C583 C 0.72172 0.19104 0.95513 0.0
C584 C 0.75307 0.28284 0.93676 0.0
C585 C 0.81968 0.30999 0.01286 0.0
N586 N 0.73267 0.22048 0.95097 0.0
N587 N 0.80856 0.28062 0.01707 0.0
H588 H 0.74982 0.70603 0.35776 0.0
H589 H 0.78486 0.79449 0.60581 0.0
H590 H 0.80337 0.66378 0.50216 0.0
H591 H 0.7313 0.83665 0.46135 0.0
H592 H 0.79108 0.74605 0.56836 0.0
H593 H 0.74312 0.75431 0.39517 0.0
C594 C 0.76036 0.70694 0.39732 0.0
C595 C 0.77707 0.6808 0.42681 0.0
C596 C 0.77789 0.76591 0.54488 0.0
C597 C 0.76924 0.73584 0.46983 0.0
C598 C 0.77419 0.79352 0.56623 0.0
C599 C 0.75769 0.81969 0.53674 0.0
C600 C 0.76497 0.76449 0.49369 0.0
C601 C 0.74443 0.81712 0.48562 0.0
C602 C 0.75639 0.73447 0.41865 0.0
C603 C 0.79013 0.6833 0.4779 0.0
N604 N 0.74846 0.79006 0.46577 0.0
N605 N 0.78586 0.71029 0.49774 0.0
H606 H 0.25747 0.83639 0.97065 0.0
H607 H 0.27762 0.65818 0.91537 0.0
H608 H 0.28507 0.80432 0.85518 0.0
H609 H 0.24672 0.6882 0.02907 0.0
H610 H 0.27752 0.71177 0.89103 0.0
H611 H 0.25114 0.7826 -0.00876 0.0
C612 C 0.26218 0.81806 0.94958 0.0
C613 C 0.27199 0.82488 0.91122 0.0
C614 C 0.27058 0.70673 0.92117 0.0
C615 C 0.26468 0.76331 0.93458 0.0
C616 C 0.27062 0.67605 0.93514 0.0
C617 C 0.26243 0.66868 0.97459 0.0
C618 C 0.2625 0.73038 0.94691 0.0
C619 C 0.25328 0.69286 -0.00149 0.0
C620 C 0.25848 0.78736 0.96133 0.0
C621 C 0.2776 0.80019 0.88513 0.0
N622 N 0.25382 0.72271 -0.01551 0.0
N623 N 0.27396 0.77054 0.89738 0.0
loop_
_geom_bond_atom_site_label_1
_geom_bond_atom_site_label_2
_geom_bond_distance
_geom_bond_site_symmetry_2
_ccdc_geom_bond_type
Co0 N4 2.148 . S
Co0 N10 2.128 . S
Co0 N20 2.194 . S
Co0 O25 2.351 . S
Co0 O26 2.155 . S
Co0 O27 2.096 . S
C1 N4 1.301 . S
C1 N5 1.328 . S
C1 H6 0.930 . S
C2 C3 1.333 . S
C2 N4 1.317 . S
C2 H7 0.930 . S
C3 C2 1.333 . S
C3 N5 1.350 . S
C3 H29 0.931 . S
N4 Co0 2.148 . S
N4 C1 1.301 . S
N4 C2 1.317 . S
N5 C1 1.328 . S
N5 C3 1.350 . S
H6 C1 0.930 . S
H7 C2 0.930 . S
C8 O9 1.224 . S
C8 O27 1.247 . S
O9 C8 1.224 . S
N10 Co0 2.128 . S
N10 C11 1.355 . S
N10 C13 1.311 . S
C11 N10 1.355 . S
C11 C12 1.363 . S
C11 H23 0.929 . S
C12 C11 1.363 . S
C12 N14 1.375 . S
C12 H30 0.931 . S
C13 N10 1.311 . S
C13 N14 1.347 . S
C13 H24 0.929 . S
N14 C12 1.375 . S
N14 C13 1.347 . S
C15 C18 1.365 . S
C15 N20 1.328 . S
C15 H21 0.929 . S
C16 C17 1.362 . S
C16 C19 1.378 . S
C16 H31 0.929 . S
C17 C16 1.362 . S
C17 C18 1.366 . S
C18 C15 1.365 . S
C18 C17 1.366 . S
C18 H32 0.930 1_545 S
C19 C16 1.378 . S
C19 N20 1.315 . S
C19 H22 0.930 . S
N20 Co0 2.194 . S
N20 C15 1.328 . S
N20 C19 1.315 . S
H21 C15 0.929 . S
H22 C19 0.930 . S
H23 C11 0.929 . S
H24 C13 0.929 . S
O25 Co0 2.351 . S
O25 C28 1.244 . S
O26 Co0 2.155 . S
O26 C28 1.240 . S
O27 Co0 2.096 . S
O27 C8 1.247 . S
C28 O25 1.244 . S
C28 O26 1.240 . S
H29 C3 0.931 . S
H30 C12 0.931 . S
H31 C16 0.929 . S
H32 C18 0.930 1_565 S
Co33 N37 2.148 . S
Co33 N43 2.128 . S
Co33 N53 2.194 . S
Co33 O58 2.351 . S
Co33 O59 2.155 . S
Co33 O60 2.096 . S
C34 N37 1.301 . S
C34 N38 1.328 . S
C34 H39 0.930 . S
C35 C36 1.333 . S
C35 N37 1.317 . S
C35 H40 0.930 . S
C36 C35 1.333 . S
C36 N38 1.350 . S
C36 H62 0.931 1_554 S
N37 Co33 2.148 . S
N37 C34 1.301 . S
N37 C35 1.317 . S
N38 C34 1.328 . S
N38 C36 1.350 . S
H39 C34 0.930 . S
H40 C35 0.930 . S
C41 O42 1.224 . S
C41 O60 1.247 . S
O42 C41 1.224 . S
N43 Co33 2.128 . S
N43 C44 1.355 . S
N43 C46 1.311 . S
C44 N43 1.355 . S
C44 C45 1.363 . S
C44 H56 0.929 . S
C45 C44 1.363 . S
C45 N47 1.375 . S
C45 H63 0.931 . S
C46 N43 1.311 . S
C46 N47 1.347 . S
C46 H57 0.929 . S
N47 C45 1.375 . S
N47 C46 1.347 . S
C48 C51 1.365 1_554 S
C48 N53 1.328 . S
C48 H54 0.929 . S
C49 C50 1.362 . S
C49 C52 1.378 . S
C49 H64 0.929 . S
C50 C49 1.362 . S
C50 C51 1.366 . S
C51 C48 1.365 1_556 S
C51 C50 1.366 . S
C51 H65 0.930 1_545 S
C52 C49 1.378 . S
C52 N53 1.315 1_556 S
C52 H55 0.930 . S
N53 Co33 2.194 . S
N53 C48 1.328 . S
N53 C52 1.315 1_554 S
H54 C48 0.929 . S
H55 C52 0.930 . S
H56 C44 0.929 . S
H57 C46 0.929 . S
O58 Co33 2.351 . S
O58 C61 1.244 . S
O59 Co33 2.155 . S
O59 C61 1.240 . S
O60 Co33 2.096 . S
O60 C41 1.247 . S
C61 O58 1.244 . S
C61 O59 1.240 . S
H62 C36 0.931 1_556 S
H63 C45 0.931 . S
H64 C49 0.929 . S
H65 C51 0.930 1_565 S
Co66 N70 2.148 . S
Co66 N76 2.128 . S
Co66 N86 2.194 . S
Co66 O91 2.351 . S
Co66 O92 2.155 . S
Co66 O93 2.096 . S
C67 N70 1.301 . S
C67 N71 1.328 . S
C67 H72 0.930 . S
C68 C69 1.333 . S
C68 N70 1.317 . S
C68 H73 0.930 . S
C69 C68 1.333 . S
C69 N71 1.350 . S
C69 H95 0.931 . S
N70 Co66 2.148 . S
N70 C67 1.301 . S
N70 C68 1.317 . S
N71 C67 1.328 . S
N71 C69 1.350 . S
H72 C67 0.930 . S
H73 C68 0.930 . S
C74 O75 1.224 . S
C74 O93 1.247 . S
O75 C74 1.224 . S
N76 Co66 2.128 . S
N76 C77 1.355 . S
N76 C79 1.311 . S
C77 N76 1.355 . S
C77 C78 1.363 . S
C77 H89 0.929 . S
C78 C77 1.363 . S
C78 N80 1.375 . S
C78 H96 0.931 . S
C79 N76 1.311 . S
C79 N80 1.347 . S
C79 H90 0.929 . S
N80 C78 1.375 . S
N80 C79 1.347 . S
C81 C84 1.365 . S
C81 N86 1.328 . S
C81 H87 0.929 . S
C82 C83 1.362 . S
C82 C85 1.378 . S
C82 H97 0.929 . S
C83 C82 1.362 . S
C83 C84 1.366 . S
C84 C81 1.365 . S
C84 C83 1.366 . S
C84 H98 0.930 1_565 S
C85 C82 1.378 . S
C85 N86 1.315 . S
C85 H88 0.930 . S
N86 Co66 2.194 . S
N86 C81 1.328 . S
N86 C85 1.315 . S
H87 C81 0.929 . S
H88 C85 0.930 . S
H89 C77 0.929 . S
H90 C79 0.929 . S
O91 Co66 2.351 . S
O91 C94 1.244 . S
O92 Co66 2.155 . S
O92 C94 1.240 . S
O93 Co66 2.096 . S
O93 C74 1.247 . S
C94 O91 1.244 . S
C94 O92 1.240 . S
H95 C69 0.931 . S
H96 C78 0.931 . S
H97 C82 0.929 . S
H98 C84 0.930 1_545 S
Co99 N103 2.148 . S
Co99 N109 2.128 . S
Co99 N119 2.194 . S
Co99 O124 2.351 . S
Co99 O125 2.155 . S
Co99 O126 2.096 . S
C100 N103 1.301 . S
C100 N104 1.328 . S
C100 H105 0.930 . S
C101 C102 1.333 . S
C101 N103 1.317 . S
C101 H106 0.930 . S
C102 C101 1.333 . S
C102 N104 1.350 . S
C102 H128 0.931 1_556 S
N103 Co99 2.148 . S
N103 C100 1.301 . S
N103 C101 1.317 . S
N104 C100 1.328 . S
N104 C102 1.350 . S
H105 C100 0.930 . S
H106 C101 0.930 . S
C107 O108 1.224 . S
C107 O126 1.247 . S
O108 C107 1.224 . S
N109 Co99 2.128 . S
N109 C110 1.355 . S
N109 C112 1.311 . S
C110 N109 1.355 . S
C110 C111 1.363 . S
C110 H122 0.929 . S
C111 C110 1.363 . S
C111 N113 1.375 . S
C111 H129 0.931 . S
C112 N109 1.311 . S
C112 N113 1.347 . S
C112 H123 0.929 . S
N113 C111 1.375 . S
N113 C112 1.347 . S
C114 C117 1.365 1_556 S
C114 N119 1.328 . S
C114 H120 0.929 . S
C115 C116 1.362 . S
C115 C118 1.378 . S
C115 H130 0.929 . S
C116 C115 1.362 . S
C116 C117 1.366 . S
C117 C114 1.365 1_554 S
C117 C116 1.366 . S
C117 H131 0.930 1_565 S
C118 C115 1.378 . S
C118 N119 1.315 1_554 S
C118 H121 0.930 . S
N119 Co99 2.194 . S
N119 C114 1.328 . S
N119 C118 1.315 1_556 S
H120 C114 0.929 . S
H121 C118 0.930 . S
H122 C110 0.929 . S
H123 C112 0.929 . S
O124 Co99 2.351 . S
O124 C127 1.244 . S
O125 Co99 2.155 . S
O125 C127 1.240 . S
O126 Co99 2.096 . S
O126 C107 1.247 . S
C127 O124 1.244 . S
C127 O125 1.240 . S
H128 C102 0.931 1_554 S
H129 C111 0.931 . S
H130 C115 0.929 . S
H131 C117 0.930 1_545 S
Co132 N136 2.148 . S
Co132 N142 2.128 . S
Co132 N152 2.194 . S
Co132 O157 2.351 . S
Co132 O158 2.155 . S
Co132 O159 2.096 . S
C133 N136 1.301 . S
C133 N137 1.328 . S
C133 H138 0.930 . S
C134 C135 1.333 . S
C134 N136 1.317 . S
C134 H139 0.930 . S
C135 C134 1.333 . S
C135 N137 1.350 . S
C135 H161 0.931 . S
N136 Co132 2.148 . S
N136 C133 1.301 . S
N136 C134 1.317 . S
N137 C133 1.328 . S
N137 C135 1.350 . S
H138 C133 0.930 . S
H139 C134 0.930 . S
C140 O141 1.224 . S
C140 O159 1.247 . S
O141 C140 1.224 . S
N142 Co132 2.128 . S
N142 C143 1.355 . S
N142 C145 1.311 . S
C143 N142 1.355 . S
C143 C144 1.363 . S
C143 H155 0.929 . S
C144 C143 1.363 . S
C144 N146 1.375 . S
C144 H162 0.931 . S
C145 N142 1.311 . S
C145 N146 1.347 . S
C145 H156 0.929 . S
N146 C144 1.375 . S
N146 C145 1.347 . S
C147 C150 1.365 . S
C147 N152 1.328 . S
C147 H153 0.929 . S
C148 C149 1.362 . S
C148 C151 1.378 . S
C148 H163 0.929 . S
C149 C148 1.362 . S
C149 C150 1.366 . S
C150 C147 1.365 . S
C150 C149 1.366 . S
C150 H164 0.930 . S
C151 C148 1.378 . S
C151 N152 1.315 . S
C151 H154 0.930 . S
N152 Co132 2.194 . S
N152 C147 1.328 . S
N152 C151 1.315 . S
H153 C147 0.929 . S
H154 C151 0.930 . S
H155 C143 0.929 . S
H156 C145 0.929 . S
O157 Co132 2.351 . S
O157 C160 1.244 . S
O158 Co132 2.155 . S
O158 C160 1.240 . S
O159 Co132 2.096 . S
O159 C140 1.247 . S
C160 O157 1.244 . S
C160 O158 1.240 . S
H161 C135 0.931 . S
H162 C144 0.931 . S
H163 C148 0.929 . S
H164 C150 0.930 . S
Co165 N169 2.148 . S
Co165 N175 2.128 . S
Co165 N185 2.194 . S
Co165 O190 2.351 . S
Co165 O191 2.155 . S
Co165 O192 2.096 . S
C166 N169 1.301 . S
C166 N170 1.328 . S
C166 H171 0.930 . S
C167 C168 1.333 . S
C167 N169 1.317 . S
C167 H172 0.930 . S
C168 C167 1.333 . S
C168 N170 1.350 . S
C168 H194 0.931 1_554 S
N169 Co165 2.148 . S
N169 C166 1.301 . S
N169 C167 1.317 . S
N170 C166 1.328 . S
N170 C168 1.350 . S
H171 C166 0.930 . S
H172 C167 0.930 . S
C173 O174 1.224 . S
C173 O192 1.247 . S
O174 C173 1.224 . S
N175 Co165 2.128 . S
N175 C176 1.355 . S
N175 C178 1.311 . S
C176 N175 1.355 . S
C176 C177 1.363 . S
C176 H188 0.929 . S
C177 C176 1.363 . S
C177 N179 1.375 . S
C177 H195 0.931 . S
C178 N175 1.311 . S
C178 N179 1.347 . S
C178 H189 0.929 . S
N179 C177 1.375 . S
N179 C178 1.347 . S
C180 C183 1.365 1_554 S
C180 N185 1.328 . S
C180 H186 0.929 . S
C181 C182 1.362 . S
C181 C184 1.378 . S
C181 H196 0.929 . S
C182 C181 1.362 . S
C182 C183 1.366 . S
C183 C180 1.365 1_556 S
C183 C182 1.366 . S
C183 H197 0.930 . S
C184 C181 1.378 . S
C184 N185 1.315 1_556 S
C184 H187 0.930 . S
N185 Co165 2.194 . S
N185 C180 1.328 . S
N185 C184 1.315 1_554 S
H186 C180 0.929 . S
H187 C184 0.930 . S
H188 C176 0.929 . S
H189 C178 0.929 . S
O190 Co165 2.351 . S
O190 C193 1.244 . S
O191 Co165 2.155 . S
O191 C193 1.240 . S
O192 Co165 2.096 . S
O192 C173 1.247 . S
C193 O190 1.244 . S
C193 O191 1.240 . S
H194 C168 0.931 1_556 S
H195 C177 0.931 . S
H196 C181 0.929 . S
H197 C183 0.930 . S
Co198 N202 2.148 . S
Co198 N208 2.128 . S
Co198 N218 2.194 . S
Co198 O223 2.351 . S
Co198 O224 2.155 . S
Co198 O225 2.096 . S
C199 N202 1.301 . S
C199 N203 1.328 . S
C199 H204 0.930 . S
C200 C201 1.333 . S
C200 N202 1.317 . S
C200 H205 0.930 . S
C201 C200 1.333 . S
C201 N203 1.350 . S
C201 H227 0.931 . S
N202 Co198 2.148 . S
N202 C199 1.301 . S
N202 C200 1.317 . S
N203 C199 1.328 . S
N203 C201 1.350 . S
H204 C199 0.930 . S
H205 C200 0.930 . S
C206 O207 1.224 . S
C206 O225 1.247 . S
O207 C206 1.224 . S
N208 Co198 2.128 . S
N208 C209 1.355 . S
N208 C211 1.311 . S
C209 N208 1.355 . S
C209 C210 1.363 . S
C209 H221 0.929 . S
C210 C209 1.363 . S
C210 N212 1.375 . S
C210 H228 0.931 . S
C211 N208 1.311 . S
C211 N212 1.347 . S
C211 H222 0.929 . S
N212 C210 1.375 . S
N212 C211 1.347 . S
C213 C216 1.365 . S
C213 N218 1.328 . S
C213 H219 0.929 . S
C214 C215 1.362 . S
C214 C217 1.378 . S
C214 H229 0.929 . S
C215 C214 1.362 . S
C215 C216 1.366 . S
C216 C213 1.365 . S
C216 C215 1.366 . S
C216 H230 0.930 . S
C217 C214 1.378 . S
C217 N218 1.315 . S
C217 H220 0.930 . S
N218 Co198 2.194 . S
N218 C213 1.328 . S
N218 C217 1.315 . S
H219 C213 0.929 . S
H220 C217 0.930 . S
H221 C209 0.929 . S
H222 C211 0.929 . S
O223 Co198 2.351 . S
O223 C226 1.244 . S
O224 Co198 2.155 . S
O224 C226 1.240 . S
O225 Co198 2.096 . S
O225 C206 1.247 . S
C226 O223 1.244 . S
C226 O224 1.240 . S
H227 C201 0.931 . S
H228 C210 0.931 . S
H229 C214 0.929 . S
H230 C216 0.930 . S
Co231 N235 2.148 . S
Co231 N241 2.128 . S
Co231 N251 2.194 . S
Co231 O256 2.351 . S
Co231 O257 2.155 . S
Co231 O258 2.096 . S
C232 N235 1.301 . S
C232 N236 1.328 . S
C232 H237 0.930 . S
C233 C234 1.333 . S
C233 N235 1.317 . S
C233 H238 0.930 . S
C234 C233 1.333 . S
C234 N236 1.350 . S
C234 H260 0.931 1_556 S
N235 Co231 2.148 . S
N235 C232 1.301 . S
N235 C233 1.317 . S
N236 C232 1.328 . S
N236 C234 1.350 . S
H237 C232 0.930 . S
H238 C233 0.930 . S
C239 O240 1.224 . S
C239 O258 1.247 . S
O240 C239 1.224 . S
N241 Co231 2.128 . S
N241 C242 1.355 . S
N241 C244 1.311 . S
C242 N241 1.355 . S
C242 C243 1.363 . S
C242 H254 0.929 . S
C243 C242 1.363 . S
C243 N245 1.375 . S
C243 H261 0.931 . S
C244 N241 1.311 . S
C244 N245 1.347 . S
C244 H255 0.929 . S
N245 C243 1.375 . S
N245 C244 1.347 . S
C246 C249 1.365 1_556 S
C246 N251 1.328 . S
C246 H252 0.929 . S
C247 C248 1.362 . S
C247 C250 1.378 . S
C247 H262 0.929 . S
C248 C247 1.362 . S
C248 C249 1.366 . S
C249 C246 1.365 1_554 S
C249 C248 1.366 . S
C249 H263 0.930 . S
C250 C247 1.378 . S
C250 N251 1.315 1_554 S
C250 H253 0.930 . S
N251 Co231 2.194 . S
N251 C246 1.328 . S
N251 C250 1.315 1_556 S
H252 C246 0.929 . S
H253 C250 0.930 . S
H254 C242 0.929 . S
H255 C244 0.929 . S
O256 Co231 2.351 . S
O256 C259 1.244 . S
O257 Co231 2.155 . S
O257 C259 1.240 . S
O258 Co231 2.096 . S
O258 C239 1.247 . S
C259 O256 1.244 . S
C259 O257 1.240 . S
H260 C234 0.931 1_554 S
H261 C243 0.931 . S
H262 C247 0.929 . S
H263 C249 0.930 . S
H264 C270 0.930 . S
H265 C274 0.930 1_565 S
H266 C279 0.929 . S
H267 C277 0.929 . S
H268 C272 0.910 1_565 S
H269 C278 0.929 . S
C270 H264 0.930 . S
C270 C271 1.367 1_545 S
C270 C278 1.378 . S
C271 C270 1.367 1_565 S
C271 C279 1.433 . S
C272 H268 0.910 1_545 S
C272 C274 1.385 . S
C272 C276 1.362 . S
C273 C276 1.463 . S
C273 C278 1.350 . S
C273 N281 1.427 1_545 S
C274 H265 0.930 1_545 S
C274 C272 1.385 . S
C274 C275 1.367 . S
C275 C274 1.367 . S
C275 C277 1.433 . S
C276 C272 1.362 . S
C276 C273 1.463 . S
C276 N280 1.427 . S
C277 H267 0.929 . S
C277 C275 1.433 . S
C277 N280 1.384 . S
C278 H269 0.929 . S
C278 C270 1.378 . S
C278 C273 1.350 . S
C279 H266 0.929 . S
C279 C271 1.433 . S
C279 N281 1.384 . S
N280 C276 1.427 . S
N280 C277 1.384 . S
N281 C273 1.427 1_565 S
N281 C279 1.384 . S
H282 C288 0.930 . S
H283 C292 0.930 . S
H284 C297 0.929 . S
H285 C295 0.929 . S
H286 C290 0.929 . S
H287 C296 0.929 . S
C288 H282 0.930 . S
C288 C289 1.367 . S
C288 C296 1.378 . S
C289 C288 1.367 . S
C289 C297 1.433 . S
C290 H286 0.929 . S
C290 C292 1.378 . S
C290 C294 1.350 1_565 S
C291 C294 1.463 . S
C291 C296 1.350 . S
C291 N299 1.427 . S
C292 H283 0.930 . S
C292 C290 1.378 . S
C292 C293 1.367 . S
C293 C292 1.367 . S
C293 C295 1.433 1_565 S
C294 C290 1.350 1_545 S
C294 C291 1.463 . S
C294 N298 1.427 . S
C295 H285 0.929 . S
C295 C293 1.433 1_545 S
C295 N298 1.384 . S
C296 H287 0.929 . S
C296 C288 1.378 . S
C296 C291 1.350 . S
C297 H284 0.929 . S
C297 C289 1.433 . S
C297 N299 1.384 . S
N298 C294 1.427 . S
N298 C295 1.384 . S
N299 C291 1.427 . S
N299 C297 1.384 . S
H300 C306 0.930 . S
H301 C310 0.930 . S
H302 C315 0.929 . S
H303 C313 0.929 . S
H304 C308 0.929 . S
H305 C314 0.929 1_545 S
C306 H300 0.930 . S
C306 C307 1.367 . S
C306 C314 1.378 . S
C307 C306 1.367 . S
C307 C315 1.433 . S
C308 H304 0.929 . S
C308 C310 1.378 . S
C308 C312 1.350 . S
C309 C312 1.463 . S
C309 C314 1.350 . S
C309 N317 1.427 . S
C310 H301 0.930 . S
C310 C308 1.378 . S
C310 C311 1.367 1_565 S
C311 C310 1.367 1_545 S
C311 C313 1.433 . S
C312 C308 1.350 . S
C312 C309 1.463 . S
C312 N316 1.427 1_565 S
C313 H303 0.929 . S
C313 C311 1.433 . S
C313 N316 1.384 . S
C314 H305 0.929 1_565 S
C314 C306 1.378 . S
C314 C309 1.350 . S
C315 H302 0.929 . S
C315 C307 1.433 . S
C315 N317 1.384 . S
N316 C312 1.427 1_545 S
N316 C313 1.384 . S
N317 C309 1.427 . S
N317 C315 1.384 . S
H318 C324 0.930 1_545 S
H319 C328 0.930 . S
H320 C333 0.929 . S
H321 C331 0.929 . S
H322 C326 0.929 . S
H323 C332 0.934 . S
C324 H318 0.930 1_565 S
C324 C325 1.367 . S
C324 C332 1.376 1_565 S
C325 C324 1.367 . S
C325 C333 1.433 . S
C326 H322 0.929 . S
C326 C328 1.378 . S
C326 C330 1.350 . S
C327 C330 1.463 . S
C327 C332 1.346 1_565 S
C327 N335 1.427 . S
C328 H319 0.930 . S
C328 C326 1.378 . S
C328 C329 1.367 1_565 S
C329 C328 1.367 1_545 S
C329 C331 1.433 . S
C330 C326 1.350 . S
C330 C327 1.463 . S
C330 N334 1.427 1_565 S
C331 H321 0.929 . S
C331 C329 1.433 . S
C331 N334 1.384 . S
C332 H323 0.934 . S
C332 C324 1.376 1_545 S
C332 C327 1.346 1_545 S
C333 H320 0.929 . S
C333 C325 1.433 . S
C333 N335 1.384 . S
N334 C330 1.427 1_545 S
N334 C331 1.384 . S
N335 C327 1.427 . S
N335 C333 1.384 . S
H336 C342 0.930 . S
H337 C346 0.930 . S
H338 C351 0.929 . S
H339 C349 0.929 . S
H340 C344 0.929 . S
H341 C350 0.929 . S
C342 H336 0.930 . S
C342 C343 1.367 . S
C342 C350 1.378 . S
C343 C342 1.367 . S
C343 C351 1.433 . S
C344 H340 0.929 . S
C344 C346 1.378 . S
C344 C348 1.350 . S
C345 C348 1.463 . S
C345 C350 1.350 . S
C345 N353 1.427 . S
C346 H337 0.930 . S
C346 C344 1.378 . S
C346 C347 1.367 . S
C347 C346 1.367 . S
C347 C349 1.433 . S
C348 C344 1.350 . S
C348 C345 1.463 . S
C348 N352 1.427 . S
C349 H339 0.929 . S
C349 C347 1.433 . S
C349 N352 1.384 . S
C350 H341 0.929 . S
C350 C342 1.378 . S
C350 C345 1.350 . S
C351 H338 0.929 . S
C351 C343 1.433 . S
C351 N353 1.384 . S
N352 C348 1.427 . S
N352 C349 1.384 . S
N353 C345 1.427 . S
N353 C351 1.384 . S
H354 C360 0.930 . S
H355 C364 0.930 . S
H356 C369 0.929 . S
H357 C367 0.929 . S
H358 C362 0.929 . S
H359 C368 0.929 . S
C360 H354 0.930 . S
C360 C361 1.367 . S
C360 C368 1.378 . S
C361 C360 1.367 . S
C361 C369 1.433 . S
C362 H358 0.929 . S
C362 C364 1.378 . S
C362 C366 1.350 . S
C363 C366 1.463 . S
C363 C368 1.350 . S
C363 N371 1.427 . S
C364 H355 0.930 . S
C364 C362 1.378 . S
C364 C365 1.367 . S
C365 C364 1.367 . S
C365 C367 1.433 . S
C366 C362 1.350 . S
C366 C363 1.463 . S
C366 N370 1.427 . S
C367 H357 0.929 . S
C367 C365 1.433 . S
C367 N370 1.384 . S
C368 H359 0.929 . S
C368 C360 1.378 . S
C368 C363 1.350 . S
C369 H356 0.929 . S
C369 C361 1.433 . S
C369 N371 1.384 . S
N370 C366 1.427 . S
N370 C367 1.384 . S
N371 C363 1.427 . S
N371 C369 1.384 . S
H372 C378 0.930 . S
H373 C382 0.930 . S
H374 C387 0.929 . S
H375 C385 0.929 . S
H376 C380 0.929 . S
H377 C386 0.929 . S
C378 H372 0.930 . S
C378 C379 1.367 . S
C378 C386 1.378 . S
C379 C378 1.367 . S
C379 C387 1.433 . S
C380 H376 0.929 . S
C380 C382 1.378 . S
C380 C384 1.350 . S
C381 C384 1.463 . S
C381 C386 1.350 . S
C381 N389 1.427 . S
C382 H373 0.930 . S
C382 C380 1.378 . S
C382 C383 1.367 . S
C383 C382 1.367 . S
C383 C385 1.433 . S
C384 C380 1.350 . S
C384 C381 1.463 . S
C384 N388 1.427 . S
C385 H375 0.929 . S
C385 C383 1.433 . S
C385 N388 1.384 . S
C386 H377 0.929 . S
C386 C378 1.378 . S
C386 C381 1.350 . S
C387 H374 0.929 . S
C387 C379 1.433 . S
C387 N389 1.384 . S
N388 C384 1.427 . S
N388 C385 1.384 . S
N389 C381 1.427 . S
N389 C387 1.384 . S
H390 C396 0.930 . S
H391 C400 0.930 . S
H392 C405 0.929 . S
H393 C403 0.929 . S
H394 C398 0.929 . S
H395 C404 0.929 . S
C396 H390 0.930 . S
C396 C397 1.367 . S
C396 C404 1.378 . S
C397 C396 1.367 . S
C397 C405 1.433 . S
C398 H394 0.929 . S
C398 C400 1.378 . S
C398 C402 1.350 . S
C399 C402 1.463 . S
C399 C404 1.350 . S
C399 N407 1.427 . S
C400 H391 0.930 . S
C400 C398 1.378 . S
C400 C401 1.367 . S
C401 C400 1.367 . S
C401 C403 1.433 . S
C402 C398 1.350 . S
C402 C399 1.463 . S
C402 N406 1.427 . S
C403 H393 0.929 . S
C403 C401 1.433 . S
C403 N406 1.384 . S
C404 H395 0.929 . S
C404 C396 1.378 . S
C404 C399 1.350 . S
C405 H392 0.929 . S
C405 C397 1.433 . S
C405 N407 1.384 . S
N406 C402 1.427 . S
N406 C403 1.384 . S
N407 C399 1.427 . S
N407 C405 1.384 . S
H408 C414 0.930 . S
H409 C418 0.930 . S
H410 C423 0.929 . S
H411 C421 0.929 . S
H412 C416 0.929 . S
H413 C422 0.929 . S
C414 H408 0.930 . S
C414 C415 1.367 . S
C414 C422 1.378 . S
C415 C414 1.367 . S
C415 C423 1.433 . S
C416 H412 0.929 . S
C416 C418 1.378 . S
C416 C420 1.350 . S
C417 C420 1.463 1_565 S
C417 C422 1.350 . S
C417 N425 1.427 1_565 S
C418 H409 0.930 . S
C418 C416 1.378 . S
C418 C419 1.367 . S
C419 C418 1.367 . S
C419 C421 1.433 . S
C420 C416 1.350 . S
C420 C417 1.463 1_545 S
C420 N424 1.427 1_545 S
C421 H411 0.929 . S
C421 C419 1.433 . S
C421 N424 1.384 1_545 S
C422 H413 0.929 . S
C422 C414 1.378 . S
C422 C417 1.350 . S
C423 H410 0.929 . S
C423 C415 1.433 . S
C423 N425 1.384 1_565 S
N424 C420 1.427 1_565 S
N424 C421 1.384 1_565 S
N425 C417 1.427 1_545 S
N425 C423 1.384 1_545 S
H426 C432 0.930 . S
H427 C436 0.930 . S
H428 C441 0.929 . S
H429 C439 0.929 . S
H430 C434 0.929 . S
H431 C440 0.929 . S
C432 H426 0.930 . S
C432 C433 1.367 . S
C432 C440 1.378 . S
C433 C432 1.367 . S
C433 C441 1.433 1_556 S
C434 H430 0.929 . S
C434 C436 1.378 . S
C434 C438 1.350 . S
C435 C438 1.463 1_566 S
C435 C440 1.350 . S
C435 N443 1.427 1_556 S
C436 H427 0.930 . S
C436 C434 1.378 . S
C436 C437 1.367 . S
C437 C436 1.367 . S
C437 C439 1.433 1_554 S
C438 C434 1.350 . S
C438 C435 1.463 1_544 S
C438 N442 1.427 1_554 S
C439 H429 0.929 . S
C439 C437 1.433 1_556 S
C439 N442 1.384 . S
C440 H431 0.929 . S
C440 C432 1.378 . S
C440 C435 1.350 . S
C441 H428 0.929 . S
C441 C433 1.433 1_554 S
C441 N443 1.384 . S
N442 C438 1.427 1_556 S
N442 C439 1.384 . S
N443 C435 1.427 1_554 S
N443 C441 1.384 . S
H444 C450 0.930 . S
H445 C454 0.930 . S
H446 C459 0.929 . S
H447 C457 0.929 . S
H448 C452 0.929 . S
H449 C458 0.929 . S
C450 H444 0.930 . S
C450 C451 1.367 . S
C450 C458 1.378 . S
C451 C450 1.367 . S
C451 C459 1.433 . S
C452 H448 0.929 . S
C452 C454 1.378 . S
C452 C456 1.350 . S
C453 C456 1.463 1_655 S
C453 C458 1.350 . S
C453 N461 1.427 . S
C454 H445 0.930 . S
C454 C452 1.378 . S
C454 C455 1.367 . S
C455 C454 1.367 . S
C455 C457 1.433 . S
C456 C452 1.350 . S
C456 C453 1.463 1_455 S
C456 N460 1.427 . S
C457 H447 0.929 . S
C457 C455 1.433 . S
C457 N460 1.384 . S
C458 H449 0.929 . S
C458 C450 1.378 . S
C458 C453 1.350 . S
C459 H446 0.929 . S
C459 C451 1.433 . S
C459 N461 1.384 . S
N460 C456 1.427 . S
N460 C457 1.384 . S
N461 C453 1.427 . S
N461 C459 1.384 . S
H462 C468 0.930 . S
H463 C472 0.930 . S
H464 C477 0.929 . S
H465 C475 0.929 . S
H466 C470 0.929 1_455 S
H467 C476 0.929 1_655 S
C468 H462 0.930 . S
C468 C469 1.367 1_556 S
C468 C476 1.378 . S
C469 C468 1.367 1_554 S
C469 C477 1.433 . S
C470 H466 0.929 1_655 S
C470 C472 1.378 . S
C470 C474 1.351 . S
C471 C474 1.461 1_456 S
C471 C476 1.351 . S
C471 N479 1.427 1_556 S
C472 H463 0.930 . S
C472 C470 1.378 . S
C472 C473 1.367 1_554 S
C473 C472 1.367 1_556 S
C473 C475 1.433 . S
C474 C470 1.351 . S
C474 C471 1.461 1_654 S
C474 N478 1.427 1_554 S
C475 H465 0.929 . S
C475 C473 1.433 . S
C475 N478 1.384 . S
C476 H467 0.929 1_455 S
C476 C468 1.378 . S
C476 C471 1.351 . S
C477 H464 0.929 . S
C477 C469 1.433 . S
C477 N479 1.384 . S
N478 C474 1.427 1_556 S
N478 C475 1.384 . S
N479 C471 1.427 1_554 S
N479 C477 1.384 . S
H480 C486 0.930 . S
H481 C490 0.930 . S
H482 C495 0.929 . S
H483 C493 0.929 . S
H484 C488 0.929 . S
H485 C494 0.929 . S
C486 H480 0.930 . S
C486 C487 1.367 . S
C486 C494 1.378 . S
C487 C486 1.367 . S
C487 C495 1.433 . S
C488 H484 0.929 . S
C488 C490 1.378 . S
C488 C492 1.350 . S
C489 C492 1.463 1_455 S
C489 C494 1.350 . S
C489 N497 1.427 . S
C490 H481 0.930 . S
C490 C488 1.378 . S
C490 C491 1.367 . S
C491 C490 1.367 . S
C491 C493 1.433 . S
C492 C488 1.350 . S
C492 C489 1.463 1_655 S
C492 N496 1.427 . S
C493 H483 0.929 . S
C493 C491 1.433 . S
C493 N496 1.384 . S
C494 H485 0.929 . S
C494 C486 1.378 . S
C494 C489 1.350 . S
C495 H482 0.929 . S
C495 C487 1.433 . S
C495 N497 1.384 . S
N496 C492 1.427 . S
N496 C493 1.384 . S
N497 C489 1.427 . S
N497 C495 1.384 . S
H498 C504 0.930 . S
H499 C508 0.930 . S
H500 C513 0.929 . S
H501 C511 0.929 . S
H502 C506 0.929 . S
H503 C512 0.929 . S
C504 H498 0.930 . S
C504 C505 1.367 . S
C504 C512 1.378 . S
C505 C504 1.367 . S
C505 C513 1.433 . S
C506 H502 0.929 . S
C506 C508 1.378 . S
C506 C510 1.350 . S
C507 C510 1.463 1_455 S
C507 C512 1.350 . S
C507 N515 1.427 . S
C508 H499 0.930 . S
C508 C506 1.378 . S
C508 C509 1.367 . S
C509 C508 1.367 . S
C509 C511 1.433 . S
C510 C506 1.350 . S
C510 C507 1.463 1_655 S
C510 N514 1.427 . S
C511 H501 0.929 . S
C511 C509 1.433 . S
C511 N514 1.384 . S
C512 H503 0.929 . S
C512 C504 1.378 . S
C512 C507 1.350 . S
C513 H500 0.929 . S
C513 C505 1.433 . S
C513 N515 1.384 . S
N514 C510 1.427 . S
N514 C511 1.384 . S
N515 C507 1.427 . S
N515 C513 1.384 . S
H516 C522 0.930 . S
H517 C526 0.930 . S
H518 C531 0.929 . S
H519 C529 0.929 . S
H520 C524 0.929 . S
H521 C530 0.929 . S
C522 H516 0.930 . S
C522 C523 1.367 . S
C522 C530 1.378 . S
C523 C522 1.367 . S
C523 C531 1.433 . S
C524 H520 0.929 . S
C524 C526 1.378 . S
C524 C528 1.350 . S
C525 C528 1.463 . S
C525 C530 1.350 . S
C525 N533 1.427 . S
C526 H517 0.930 . S
C526 C524 1.378 . S
C526 C527 1.367 . S
C527 C526 1.367 . S
C527 C529 1.433 . S
C528 C524 1.350 . S
C528 C525 1.463 . S
C528 N532 1.427 . S
C529 H519 0.929 . S
C529 C527 1.433 . S
C529 N532 1.384 . S
C530 H521 0.929 . S
C530 C522 1.378 . S
C530 C525 1.350 . S
C531 H518 0.929 . S
C531 C523 1.433 . S
C531 N533 1.384 . S
N532 C528 1.427 . S
N532 C529 1.384 . S
N533 C525 1.427 . S
N533 C531 1.384 . S
H534 C540 0.930 . S
H535 C544 0.930 . S
H536 C549 0.929 . S
H537 C547 0.929 . S
H538 C542 0.929 . S
H539 C548 0.929 . S
C540 H534 0.930 . S
C540 C541 1.367 . S
C540 C548 1.378 . S
C541 C540 1.367 . S
C541 C549 1.433 . S
C542 H538 0.929 . S
C542 C544 1.378 . S
C542 C546 1.350 . S
C543 C546 1.463 . S
C543 C548 1.350 . S
C543 N551 1.427 . S
C544 H535 0.930 . S
C544 C542 1.378 . S
C544 C545 1.367 . S
C545 C544 1.367 . S
C545 C547 1.433 . S
C546 C542 1.350 . S
C546 C543 1.463 . S
C546 N550 1.427 . S
C547 H537 0.929 . S
C547 C545 1.433 . S
C547 N550 1.384 . S
C548 H539 0.929 . S
C548 C540 1.378 . S
C548 C543 1.350 . S
C549 H536 0.929 . S
C549 C541 1.433 . S
C549 N551 1.384 . S
N550 C546 1.427 . S
N550 C547 1.384 . S
N551 C543 1.427 . S
N551 C549 1.384 . S
H552 C558 0.930 . S
H553 C562 0.930 . S
H554 C567 0.929 . S
H555 C565 0.929 . S
H556 C560 0.929 . S
H557 C566 0.929 . S
C558 H552 0.930 . S
C558 C559 1.367 . S
C558 C566 1.378 . S
C559 C558 1.367 . S
C559 C567 1.433 . S
C560 H556 0.929 . S
C560 C562 1.378 . S
C560 C564 1.350 . S
C561 C564 1.463 . S
C561 C566 1.350 . S
C561 N569 1.427 . S
C562 H553 0.930 . S
C562 C560 1.378 . S
C562 C563 1.367 . S
C563 C562 1.367 . S
C563 C565 1.433 . S
C564 C560 1.350 . S
C564 C561 1.463 . S
C564 N568 1.427 . S
C565 H555 0.929 . S
C565 C563 1.433 . S
C565 N568 1.384 . S
C566 H557 0.929 . S
C566 C558 1.378 . S
C566 C561 1.350 . S
C567 H554 0.929 . S
C567 C559 1.433 . S
C567 N569 1.384 . S
N568 C564 1.427 . S
N568 C565 1.384 . S
N569 C561 1.427 . S
N569 C567 1.384 . S
H570 C576 0.930 . S
H571 C580 0.930 . S
H572 C585 0.929 . S
H573 C583 0.929 . S
H574 C578 0.929 . S
H575 C584 0.929 . S
C576 H570 0.930 . S
C576 C577 1.367 . S
C576 C584 1.378 . S
C577 C576 1.367 . S
C577 C585 1.433 . S
C578 H574 0.929 . S
C578 C580 1.378 . S
C578 C582 1.350 . S
C579 C582 1.463 1_556 S
C579 C584 1.350 . S
C579 N587 1.429 . S
C580 H571 0.930 . S
C580 C578 1.378 . S
C580 C581 1.367 . S
C581 C580 1.367 . S
C581 C583 1.433 . S
C582 C578 1.350 . S
C582 C579 1.463 1_554 S
C582 N586 1.429 . S
C583 H573 0.929 . S
C583 C581 1.433 . S
C583 N586 1.385 . S
C584 H575 0.929 . S
C584 C576 1.378 . S
C584 C579 1.350 . S
C585 H572 0.929 . S
C585 C577 1.433 . S
C585 N587 1.385 . S
N586 C582 1.429 . S
N586 C583 1.385 . S
N587 C579 1.429 . S
N587 C585 1.385 . S
H588 C594 0.930 . S
H589 C598 0.930 . S
H590 C603 0.929 . S
H591 C601 0.929 . S
H592 C596 0.929 . S
H593 C602 0.929 . S
C594 H588 0.930 . S
C594 C595 1.367 . S
C594 C602 1.378 . S
C595 C594 1.367 . S
C595 C603 1.433 . S
C596 H592 0.929 . S
C596 C598 1.378 . S
C596 C600 1.350 . S
C597 C600 1.463 . S
C597 C602 1.350 . S
C597 N605 1.427 . S
C598 H589 0.930 . S
C598 C596 1.378 . S
C598 C599 1.367 . S
C599 C598 1.367 . S
C599 C601 1.433 . S
C600 C596 1.350 . S
C600 C597 1.463 . S
C600 N604 1.427 . S
C601 H591 0.929 . S
C601 C599 1.433 . S
C601 N604 1.384 . S
C602 H593 0.929 . S
C602 C594 1.378 . S
C602 C597 1.350 . S
C603 H590 0.929 . S
C603 C595 1.433 . S
C603 N605 1.384 . S
N604 C600 1.427 . S
N604 C601 1.384 . S
N605 C597 1.427 . S
N605 C603 1.384 . S
H606 C612 0.930 . S
H607 C616 0.930 . S
H608 C621 0.929 . S
H609 C619 0.929 . S
H610 C614 0.929 . S
H611 C620 0.929 . S
C612 H606 0.930 . S
C612 C613 1.367 1_554 S
C612 C620 1.378 . S
C613 C612 1.367 1_556 S
C613 C621 1.433 . S
C614 H610 0.929 . S
C614 C616 1.378 . S
C614 C618 1.350 1_556 S
C615 C618 1.463 1_556 S
C615 C620 1.350 1_556 S
C615 N623 1.427 . S
C616 H607 0.930 . S
C616 C614 1.378 . S
C616 C617 1.367 1_556 S
C617 C616 1.367 1_554 S
C617 C619 1.433 . S
C618 C614 1.350 1_554 S
C618 C615 1.463 1_554 S
C618 N622 1.427 . S
C619 H609 0.929 . S
C619 C617 1.433 . S
C619 N622 1.384 . S
C620 H611 0.929 . S
C620 C612 1.378 . S
C620 C615 1.350 1_554 S
C621 H608 0.929 . S
C621 C613 1.433 . S
C621 N623 1.384 . S
N622 C618 1.427 . S
N622 C619 1.384 . S
N623 C615 1.427 . S
N623 C621 1.384 . S
C271 C116 0.955 . S
C275 C28 0.956 . S
C289 C61 0.947 . S
C293 C83 0.945 . S
C307 C94 0.955 . S
C311 C50 0.955 . S
C325 C127 0.956 . S
C329 C17 0.955 . S
C343 C160 0.955 . S
C347 C248 0.954 . S
C361 C193 0.950 . S
C365 C215 0.949 . S
C379 C182 0.946 . S
C383 C226 0.948 . S
C397 C259 0.947 . S
C401 C149 0.944 . S
C415 N71 2.045 . S
C419 N5 2.045 . S
C433 N104 2.041 . S
C437 N38 2.041 . S
C451 N137 2.042 . S
C455 N203 2.042 . S
C469 N170 2.045 . S
C473 N236 2.045 . S
C487 N14 1.768 . S
C491 N47 1.755 . S
C505 N113 1.770 . S
C509 N80 1.760 . S
C523 N179 1.756 . S
C527 N146 1.769 . S
C541 N245 1.770 . S
C545 N212 1.758 . S
C559 C206 1.526 . S
C563 C8 1.526 . S
C577 C239 1.527 . S
C581 C41 1.527 . S
C595 C140 1.526 . S
C599 C74 1.526 . S
C613 C107 1.518 . S
C617 C173 1.518 . S
