# Generated by pormake.
# Topology umq, (4)-cn, num edge types: 1
# Building blocks:
#     Node 0, Type 0, BuildingBlock: TATPOV_clean_sbu_0, # of connection points: 4
#     Node 1, Type 0, BuildingBlock: TATPOV_clean_sbu_0, # of connection points: 4
#     Node 2, Type 0, BuildingBlock: TATPOV_clean_sbu_0, # of connection points: 4
#     Node 3, Type 0, BuildingBlock: TATPOV_clean_sbu_0, # of connection points: 4
#     Node 4, Type 0, BuildingBlock: TATPOV_clean_sbu_0, # of connection points: 4
#     Node 5, Type 0, BuildingBlock: TATPOV_clean_sbu_0, # of connection points: 4
#     Node 6, Type 0, BuildingBlock: TATPOV_clean_sbu_0, # of connection points: 4
#     Node 7, Type 0, BuildingBlock: TATPOV_clean_sbu_0, # of connection points: 4
#     Node 8, Type 0, BuildingBlock: TATPOV_clean_sbu_0, # of connection points: 4
#     Node 9, Type 0, BuildingBlock: TATPOV_clean_sbu_0, # of connection points: 4
#     Node 10, Type 0, BuildingBlock: TATPOV_clean_sbu_0, # of connection points: 4
#     Node 11, Type 0, BuildingBlock: TATPOV_clean_sbu_0, # of connection points: 4
#     Node 12, Type 0, BuildingBlock: TATPOV_clean_sbu_0, # of connection points: 4
#     Node 13, Type 0, BuildingBlock: TATPOV_clean_sbu_0, # of connection points: 4
#     Node 14, Type 0, BuildingBlock: TATPOV_clean_sbu_0, # of connection points: 4
#     Node 15, Type 0, BuildingBlock: TATPOV_clean_sbu_0, # of connection points: 4
#     Node 16, Type 0, BuildingBlock: TATPOV_clean_sbu_0, # of connection points: 4
#     Node 17, Type 0, BuildingBlock: TATPOV_clean_sbu_0, # of connection points: 4
#     Node 18, Type 0, BuildingBlock: TATPOV_clean_sbu_0, # of connection points: 4
#     Node 19, Type 0, BuildingBlock: TATPOV_clean_sbu_0, # of connection points: 4
#     Node 20, Type 0, BuildingBlock: TATPOV_clean_sbu_0, # of connection points: 4
#     Node 21, Type 0, BuildingBlock: TATPOV_clean_sbu_0, # of connection points: 4
#     Node 22, Type 0, BuildingBlock: TATPOV_clean_sbu_0, # of connection points: 4
#     Node 23, Type 0, BuildingBlock: TATPOV_clean_sbu_0, # of connection points: 4
#     Node 24, Type 0, BuildingBlock: TATPOV_clean_sbu_0, # of connection points: 4
#     Node 25, Type 0, BuildingBlock: TATPOV_clean_sbu_0, # of connection points: 4
#     Node 26, Type 0, BuildingBlock: TATPOV_clean_sbu_0, # of connection points: 4
#     Node 27, Type 0, BuildingBlock: TATPOV_clean_sbu_0, # of connection points: 4
#     Node 28, Type 0, BuildingBlock: TATPOV_clean_sbu_0, # of connection points: 4
#     Node 29, Type 0, BuildingBlock: TATPOV_clean_sbu_0, # of connection points: 4
#     Node 30, Type 0, BuildingBlock: TATPOV_clean_sbu_0, # of connection points: 4
#     Node 31, Type 0, BuildingBlock: TATPOV_clean_sbu_0, # of connection points: 4
#     Edge 32, Type (0, 0), BuildingBlock: EZIPEK_clean_linker_0, # of connection points: 2
#     Edge 33, Type (0, 0), BuildingBlock: EZIPEK_clean_linker_0, # of connection points: 2
#     Edge 34, Type (0, 0), BuildingBlock: EZIPEK_clean_linker_0, # of connection points: 2
#     Edge 35, Type (0, 0), BuildingBlock: EZIPEK_clean_linker_0, # of connection points: 2
#     Edge 36, Type (0, 0), BuildingBlock: EZIPEK_clean_linker_0, # of connection points: 2
#     Edge 37, Type (0, 0), BuildingBlock: EZIPEK_clean_linker_0, # of connection points: 2
#     Edge 38, Type (0, 0), BuildingBlock: EZIPEK_clean_linker_0, # of connection points: 2
#     Edge 39, Type (0, 0), BuildingBlock: EZIPEK_clean_linker_0, # of connection points: 2
#     Edge 40, Type (0, 0), BuildingBlock: EZIPEK_clean_linker_0, # of connection points: 2
#     Edge 41, Type (0, 0), BuildingBlock: EZIPEK_clean_linker_0, # of connection points: 2
#     Edge 42, Type (0, 0), BuildingBlock: EZIPEK_clean_linker_0, # of connection points: 2
#     Edge 43, Type (0, 0), BuildingBlock: EZIPEK_clean_linker_0, # of connection points: 2
#     Edge 44, Type (0, 0), BuildingBlock: EZIPEK_clean_linker_0, # of connection points: 2
#     Edge 45, Type (0, 0), BuildingBlock: EZIPEK_clean_linker_0, # of connection points: 2
#     Edge 46, Type (0, 0), BuildingBlock: EZIPEK_clean_linker_0, # of connection points: 2
#     Edge 47, Type (0, 0), BuildingBlock: EZIPEK_clean_linker_0, # of connection points: 2
#     Edge 48, Type (0, 0), BuildingBlock: EZIPEK_clean_linker_0, # of connection points: 2
#     Edge 49, Type (0, 0), BuildingBlock: EZIPEK_clean_linker_0, # of connection points: 2
#     Edge 50, Type (0, 0), BuildingBlock: EZIPEK_clean_linker_0, # of connection points: 2
#     Edge 51, Type (0, 0), BuildingBlock: EZIPEK_clean_linker_0, # of connection points: 2
#     Edge 52, Type (0, 0), BuildingBlock: EZIPEK_clean_linker_0, # of connection points: 2
#     Edge 53, Type (0, 0), BuildingBlock: EZIPEK_clean_linker_0, # of connection points: 2
#     Edge 54, Type (0, 0), BuildingBlock: EZIPEK_clean_linker_0, # of connection points: 2
#     Edge 55, Type (0, 0), BuildingBlock: EZIPEK_clean_linker_0, # of connection points: 2
#     Edge 56, Type (0, 0), BuildingBlock: EZIPEK_clean_linker_0, # of connection points: 2
#     Edge 57, Type (0, 0), BuildingBlock: EZIPEK_clean_linker_0, # of connection points: 2
#     Edge 58, Type (0, 0), BuildingBlock: EZIPEK_clean_linker_0, # of connection points: 2
#     Edge 59, Type (0, 0), BuildingBlock: EZIPEK_clean_linker_0, # of connection points: 2
#     Edge 60, Type (0, 0), BuildingBlock: EZIPEK_clean_linker_0, # of connection points: 2
#     Edge 61, Type (0, 0), BuildingBlock: EZIPEK_clean_linker_0, # of connection points: 2
#     Edge 62, Type (0, 0), BuildingBlock: EZIPEK_clean_linker_0, # of connection points: 2
#     Edge 63, Type (0, 0), BuildingBlock: EZIPEK_clean_linker_0, # of connection points: 2
#     Edge 64, Type (0, 0), BuildingBlock: EZIPEK_clean_linker_0, # of connection points: 2
#     Edge 65, Type (0, 0), BuildingBlock: EZIPEK_clean_linker_0, # of connection points: 2
#     Edge 66, Type (0, 0), BuildingBlock: EZIPEK_clean_linker_0, # of connection points: 2
#     Edge 67, Type (0, 0), BuildingBlock: EZIPEK_clean_linker_0, # of connection points: 2
#     Edge 68, Type (0, 0), BuildingBlock: EZIPEK_clean_linker_0, # of connection points: 2
#     Edge 69, Type (0, 0), BuildingBlock: EZIPEK_clean_linker_0, # of connection points: 2
#     Edge 70, Type (0, 0), BuildingBlock: EZIPEK_clean_linker_0, # of connection points: 2
#     Edge 71, Type (0, 0), BuildingBlock: EZIPEK_clean_linker_0, # of connection points: 2
#     Edge 72, Type (0, 0), BuildingBlock: EZIPEK_clean_linker_0, # of connection points: 2
#     Edge 73, Type (0, 0), BuildingBlock: EZIPEK_clean_linker_0, # of connection points: 2
#     Edge 74, Type (0, 0), BuildingBlock: EZIPEK_clean_linker_0, # of connection points: 2
#     Edge 75, Type (0, 0), BuildingBlock: EZIPEK_clean_linker_0, # of connection points: 2
#     Edge 76, Type (0, 0), BuildingBlock: EZIPEK_clean_linker_0, # of connection points: 2
#     Edge 77, Type (0, 0), BuildingBlock: EZIPEK_clean_linker_0, # of connection points: 2
#     Edge 78, Type (0, 0), BuildingBlock: EZIPEK_clean_linker_0, # of connection points: 2
#     Edge 79, Type (0, 0), BuildingBlock: EZIPEK_clean_linker_0, # of connection points: 2
#     Edge 80, Type (0, 0), BuildingBlock: EZIPEK_clean_linker_0, # of connection points: 2
#     Edge 81, Type (0, 0), BuildingBlock: EZIPEK_clean_linker_0, # of connection points: 2
#     Edge 82, Type (0, 0), BuildingBlock: EZIPEK_clean_linker_0, # of connection points: 2
#     Edge 83, Type (0, 0), BuildingBlock: EZIPEK_clean_linker_0, # of connection points: 2
#     Edge 84, Type (0, 0), BuildingBlock: EZIPEK_clean_linker_0, # of connection points: 2
#     Edge 85, Type (0, 0), BuildingBlock: EZIPEK_clean_linker_0, # of connection points: 2
#     Edge 86, Type (0, 0), BuildingBlock: EZIPEK_clean_linker_0, # of connection points: 2
#     Edge 87, Type (0, 0), BuildingBlock: EZIPEK_clean_linker_0, # of connection points: 2
#     Edge 88, Type (0, 0), BuildingBlock: EZIPEK_clean_linker_0, # of connection points: 2
#     Edge 89, Type (0, 0), BuildingBlock: EZIPEK_clean_linker_0, # of connection points: 2
#     Edge 90, Type (0, 0), BuildingBlock: EZIPEK_clean_linker_0, # of connection points: 2
#     Edge 91, Type (0, 0), BuildingBlock: EZIPEK_clean_linker_0, # of connection points: 2
#     Edge 92, Type (0, 0), BuildingBlock: EZIPEK_clean_linker_0, # of connection points: 2
#     Edge 93, Type (0, 0), BuildingBlock: EZIPEK_clean_linker_0, # of connection points: 2
#     Edge 94, Type (0, 0), BuildingBlock: EZIPEK_clean_linker_0, # of connection points: 2
#     Edge 95, Type (0, 0), BuildingBlock: EZIPEK_clean_linker_0, # of connection points: 2
# Relax obj value: 0.061
# Max RMSD: 0.085
# Mean RMSD: 0.085
data_MOF--net-umq--node1-TATPOV_clean_sbu_0--edge1-EZIPEK_clean_linker_0
_symmetry_space_group_name_H-M    P1
_symmetry_Int_Tables_number       1
_symmetry_cell_setting            triclinic
loop_
_symmetry_equiv_pos_as_xyz
'x, y, z'
_cell_length_a     48.848872
_cell_length_b     48.790179
_cell_length_c     32.773912
_cell_angle_alpha  89.979407
_cell_angle_beta   89.960275
_cell_angle_gamma 90.102588
loop_
_atom_site_label
_atom_site_type_symbol
_atom_site_fract_x
_atom_site_fract_y
_atom_site_fract_z
_atom_type_partial_charge
Zn0 Zn 0.22986 0.13313 0.12182 0.0
Zn1 Zn 0.24847 0.08931 0.16382 0.0
O2 O 0.23766 0.07172 0.10928 0.0
O3 O 0.22034 0.10713 0.07642 0.0
O4 O 0.25892 0.05761 0.19918 0.0
O5 O 0.20266 0.14239 0.1658 0.0
O6 O 0.21721 0.1055 0.19783 0.0
C7 C 0.22649 0.08195 0.07773 0.0
C8 C 0.2871 0.13639 0.14395 0.0
O9 O 0.28298 0.1133 0.16103 0.0
O10 O 0.26807 0.14858 0.12509 0.0
C11 C 0.26982 0.03553 0.1868 0.0
O12 O 0.27651 0.03273 0.14821 0.0
C13 C 0.2016 0.12633 0.19606 0.0
Zn14 Zn 0.8536 0.22118 0.13317 0.0
Zn15 Zn 0.90263 0.22921 0.16849 0.0
O16 O 0.9139 0.22137 0.10937 0.0
O17 O 0.87376 0.21304 0.08097 0.0
O18 O 0.93803 0.23322 0.1984 0.0
O19 O 0.844 0.19129 0.17283 0.0
O20 O 0.88486 0.19718 0.1998 0.0
C21 C 0.89952 0.21528 0.07828 0.0
C22 C 0.86127 0.27582 0.16466 0.0
O23 O 0.88463 0.26696 0.17557 0.0
O24 O 0.84443 0.2604 0.14635 0.0
C25 C 0.95779 0.24819 0.18661 0.0
O26 O 0.95584 0.26207 0.15238 0.0
C27 C 0.86184 0.18489 0.19908 0.0
Zn28 Zn 0.78183 0.86355 0.1047 0.0
Zn29 Zn 0.76242 0.90399 0.15209 0.0
O30 O 0.77399 0.92434 0.10002 0.0
O31 O 0.79169 0.89159 0.06233 0.0
O32 O 0.75057 0.93457 0.1885 0.0
O33 O 0.80884 0.85229 0.14746 0.0
O34 O 0.79195 0.88493 0.18657 0.0
C35 C 0.78561 0.91658 0.0673 0.0
C36 C 0.72448 0.85778 0.12685 0.0
O37 O 0.72811 0.88035 0.14554 0.0
O38 O 0.74378 0.84684 0.10685 0.0
C39 C 0.72869 0.94799 0.18255 0.0
O40 O 0.71238 0.94139 0.15225 0.0
C41 C 0.80847 0.86512 0.18095 0.0
Zn42 Zn 0.13969 0.77051 0.11615 0.0
Zn43 Zn 0.09921 0.75587 0.16693 0.0
O44 O 0.07876 0.76866 0.11518 0.0
O45 O 0.11217 0.78193 0.07456 0.0
O46 O 0.06849 0.74859 0.20593 0.0
O47 O 0.15446 0.79749 0.15643 0.0
O48 O 0.12166 0.78445 0.19848 0.0
C49 C 0.0869 0.77864 0.0814 0.0
C50 C 0.14156 0.7137 0.1419 0.0
O51 O 0.12 0.71947 0.16202 0.0
O52 O 0.15305 0.73149 0.11955 0.0
C53 C 0.04735 0.73478 0.19656 0.0
O54 O 0.04572 0.72304 0.1606 0.0
C55 C 0.14266 0.79902 0.19068 0.0
Zn56 Zn 0.23637 0.85512 0.38719 0.0
Zn57 Zn 0.24893 0.8962 0.33564 0.0
O58 O 0.23876 0.91685 0.38829 0.0
O59 O 0.22845 0.88304 0.43029 0.0
O60 O 0.25506 0.92653 0.29577 0.0
O61 O 0.20658 0.84168 0.3503 0.0
O62 O 0.2185 0.87438 0.30731 0.0
C63 C 0.2311 0.90838 0.4232 0.0
C64 C 0.2915 0.85279 0.35437 0.0
O65 O 0.28524 0.87516 0.33669 0.0
O66 O 0.27457 0.84084 0.37766 0.0
C67 C 0.2731 0.94503 0.30025 0.0
O68 O 0.28953 0.94442 0.33194 0.0
C69 C 0.20369 0.85379 0.31648 0.0
Zn70 Zn 0.1399 0.21533 0.38426 0.0
Zn71 Zn 0.10058 0.22662 0.33042 0.0
O72 O 0.07843 0.22117 0.38329 0.0
O73 O 0.11106 0.21084 0.4271 0.0
O74 O 0.07164 0.23262 0.28814 0.0
O75 O 0.15223 0.18273 0.35188 0.0
O76 O 0.12001 0.19235 0.30804 0.0
C77 C 0.08605 0.21489 0.4192 0.0
C78 C 0.1447 0.26915 0.34891 0.0
O79 O 0.1232 0.26219 0.32951 0.0
O80 O 0.15581 0.25287 0.37397 0.0
C81 C 0.05083 0.24747 0.29504 0.0
O82 O 0.04868 0.26051 0.32994 0.0
C83 C 0.13932 0.17668 0.31968 0.0
Zn84 Zn 0.76569 0.12722 0.37311 0.0
Zn85 Zn 0.75256 0.08619 0.32396 0.0
O86 O 0.75393 0.06713 0.38013 0.0
O87 O 0.7658 0.10135 0.42034 0.0
O88 O 0.74465 0.05503 0.2863 0.0
O89 O 0.80033 0.13463 0.34226 0.0
O90 O 0.78907 0.10122 0.30112 0.0
C91 C 0.75964 0.0764 0.4154 0.0
C92 C 0.71429 0.13499 0.3319 0.0
O93 O 0.71959 0.11178 0.31604 0.0
O94 O 0.73062 0.14593 0.35705 0.0
C95 C 0.72366 0.03996 0.29077 0.0
O96 O 0.70599 0.0452 0.31996 0.0
C97 C 0.80593 0.11987 0.31163 0.0
Zn98 Zn 0.86648 0.78271 0.38784 0.0
Zn99 Zn 0.90562 0.76551 0.33663 0.0
O100 O 0.92746 0.77729 0.3875 0.0
O101 O 0.8954 0.79375 0.42775 0.0
O102 O 0.93537 0.75594 0.29717 0.0
O103 O 0.85228 0.80962 0.34699 0.0
O104 O 0.8842 0.79485 0.30481 0.0
C105 C 0.92035 0.78862 0.42079 0.0
C106 C 0.86188 0.72548 0.36473 0.0
O107 O 0.88329 0.73026 0.34366 0.0
O108 O 0.85137 0.74403 0.38675 0.0
C109 C 0.95473 0.73968 0.3061 0.0
O110 O 0.95488 0.72726 0.34166 0.0
C111 C 0.86383 0.81027 0.31247 0.0
Zn112 Zn 0.76805 0.86187 0.87491 0.0
Zn113 Zn 0.7497 0.90379 0.82939 0.0
O114 O 0.76383 0.92318 0.88089 0.0
O115 O 0.77913 0.88881 0.91798 0.0
O116 O 0.73822 0.93536 0.79476 0.0
O117 O 0.7942 0.85086 0.83068 0.0
O118 O 0.778 0.88459 0.79296 0.0
C119 C 0.77483 0.91419 0.91338 0.0
C120 C 0.71051 0.85832 0.85474 0.0
O121 O 0.71462 0.88113 0.83684 0.0
O122 O 0.72974 0.84634 0.87347 0.0
C123 C 0.7186 0.95102 0.80466 0.0
O124 O 0.70424 0.94596 0.83773 0.0
C125 C 0.79394 0.86422 0.79763 0.0
Zn126 Zn 0.13209 0.77654 0.88124 0.0
Zn127 Zn 0.08775 0.76917 0.83597 0.0
O128 O 0.07062 0.7772 0.89176 0.0
O129 O 0.10738 0.78736 0.92766 0.0
O130 O 0.05539 0.7644 0.79964 0.0
O131 O 0.147 0.80381 0.84093 0.0
O132 O 0.10788 0.80128 0.80816 0.0
C133 C 0.08166 0.78454 0.92514 0.0
C134 C 0.12803 0.72214 0.85009 0.0
O135 O 0.10692 0.73164 0.83225 0.0
O136 O 0.14188 0.73695 0.8741 0.0
C137 C 0.03639 0.74738 0.80735 0.0
O138 O 0.0376 0.73219 0.84039 0.0
C139 C 0.13171 0.81156 0.81201 0.0
Zn140 Zn 0.21356 0.13837 0.88265 0.0
Zn141 Zn 0.22876 0.09892 0.8317 0.0
O142 O 0.22327 0.07785 0.88545 0.0
O143 O 0.20986 0.1105 0.92722 0.0
O144 O 0.23897 0.06881 0.79326 0.0
O145 O 0.18129 0.14742 0.84748 0.0
O146 O 0.19416 0.11535 0.80515 0.0
C147 C 0.21567 0.08563 0.9207 0.0
C148 C 0.26746 0.14662 0.84959 0.0
O149 O 0.26254 0.12412 0.83134 0.0
O150 O 0.2499 0.1571 0.8733 0.0
C151 C 0.26142 0.05603 0.79736 0.0
O152 O 0.27872 0.06333 0.82605 0.0
C153 C 0.17707 0.13388 0.81517 0.0
Zn154 Zn 0.84743 0.21768 0.86242 0.0
Zn155 Zn 0.89398 0.23146 0.82312 0.0
O156 O 0.90827 0.22337 0.88059 0.0
O157 O 0.87051 0.21072 0.91236 0.0
O158 O 0.92789 0.23953 0.79122 0.0
O159 O 0.83962 0.18802 0.82131 0.0
O160 O 0.87868 0.19853 0.79161 0.0
C161 C 0.89603 0.21538 0.91275 0.0
C162 C 0.84778 0.27308 0.83197 0.0
O163 O 0.87144 0.26691 0.81853 0.0
O164 O 0.83361 0.25584 0.85167 0.0
C165 C 0.94304 0.26044 0.7961 0.0
O166 O 0.93702 0.27865 0.82421 0.0
C167 C 0.85698 0.1841 0.79326 0.0
Zn168 Zn 0.76331 0.1291 0.6148 0.0
Zn169 Zn 0.74942 0.0884 0.66436 0.0
O170 O 0.75118 0.06896 0.60855 0.0
O171 O 0.76297 0.10301 0.56785 0.0
O172 O 0.74039 0.05758 0.70212 0.0
O173 O 0.79808 0.13546 0.64577 0.0
O174 O 0.78602 0.10268 0.68759 0.0
C175 C 0.75697 0.07805 0.57318 0.0
C176 C 0.71231 0.13829 0.65616 0.0
O177 O 0.71705 0.11486 0.67171 0.0
O178 O 0.72884 0.14891 0.63096 0.0
C179 C 0.71758 0.04514 0.70038 0.0
O180 O 0.69888 0.05301 0.67411 0.0
C181 C 0.80332 0.12083 0.67667 0.0
Zn182 Zn 0.8593 0.77684 0.59907 0.0
Zn183 Zn 0.89738 0.76458 0.6556 0.0
O184 O 0.92085 0.77581 0.60608 0.0
O185 O 0.88954 0.78636 0.56033 0.0
O186 O 0.92544 0.7584 0.69893 0.0
O187 O 0.84274 0.80553 0.63533 0.0
O188 O 0.87308 0.79389 0.68201 0.0
C189 C 0.91439 0.78395 0.57051 0.0
C190 C 0.8569 0.7209 0.62896 0.0
O191 O 0.87755 0.72778 0.65036 0.0
O192 O 0.84592 0.73777 0.60461 0.0
C193 C 0.94744 0.74551 0.6916 0.0
O194 O 0.95138 0.73455 0.65548 0.0
C195 C 0.85256 0.80808 0.67082 0.0
Zn196 Zn 0.22743 0.86845 0.62411 0.0
Zn197 Zn 0.24003 0.91185 0.6675 0.0
O198 O 0.23187 0.92877 0.61145 0.0
O199 O 0.21647 0.89299 0.57771 0.0
O200 O 0.2478 0.94478 0.70172 0.0
O201 O 0.20051 0.85561 0.66596 0.0
O202 O 0.20733 0.89445 0.69825 0.0
C203 C 0.22187 0.91836 0.57917 0.0
C204 C 0.28303 0.86787 0.651 0.0
O205 O 0.27612 0.88983 0.66931 0.0
O206 O 0.26619 0.85539 0.62832 0.0
C207 C 0.26714 0.96137 0.69387 0.0
O208 O 0.28367 0.95667 0.66303 0.0
C209 C 0.19497 0.87153 0.69525 0.0
Zn210 Zn 0.13233 0.22429 0.61629 0.0
Zn211 Zn 0.0896 0.24312 0.66039 0.0
O212 O 0.07068 0.23269 0.60672 0.0
O213 O 0.10495 0.21423 0.57279 0.0
O214 O 0.05908 0.25382 0.69814 0.0
O215 O 0.14294 0.19747 0.6602 0.0
O216 O 0.10605 0.21118 0.69284 0.0
C217 C 0.07993 0.22085 0.57505 0.0
C218 C 0.13642 0.28159 0.63739 0.0
O219 O 0.11392 0.27742 0.6561 0.0
O220 O 0.14793 0.26256 0.61758 0.0
C221 C 0.03547 0.26146 0.68668 0.0
O222 O 0.0304 0.26505 0.64772 0.0
C223 C 0.12706 0.19584 0.69059 0.0
Zn224 Zn 0.72071 0.63362 0.60987 0.0
Zn225 Zn 0.73825 0.59226 0.65693 0.0
O226 O 0.72626 0.57255 0.60447 0.0
O227 O 0.71119 0.60648 0.56635 0.0
O228 O 0.74901 0.56109 0.69295 0.0
O229 O 0.69332 0.645 0.65209 0.0
O230 O 0.70893 0.61178 0.69129 0.0
C231 C 0.71607 0.58123 0.5712 0.0
C232 C 0.77776 0.63762 0.63305 0.0
O233 O 0.77337 0.61497 0.65122 0.0
O234 O 0.75891 0.64936 0.61317 0.0
C235 C 0.76939 0.54587 0.68512 0.0
O236 O 0.78485 0.55099 0.65319 0.0
C237 C 0.69295 0.63198 0.68543 0.0
Zn238 Zn 0.3532 0.72999 0.61109 0.0
Zn239 Zn 0.39597 0.73646 0.66163 0.0
O240 O 0.41418 0.72401 0.60793 0.0
O241 O 0.37885 0.71816 0.56696 0.0
O242 O 0.42777 0.73978 0.69964 0.0
O243 O 0.33659 0.70228 0.64901 0.0
O244 O 0.37145 0.70833 0.69084 0.0
C245 C 0.40437 0.71752 0.57328 0.0
C246 C 0.35835 0.78472 0.64362 0.0
O247 O 0.37926 0.77508 0.66176 0.0
O248 O 0.34434 0.7699 0.61975 0.0
C249 C 0.44858 0.75419 0.6906 0.0
O250 O 0.44926 0.76762 0.65587 0.0
C251 C 0.34874 0.6969 0.68211 0.0
Zn252 Zn 0.27302 0.3699 0.60717 0.0
Zn253 Zn 0.25435 0.41199 0.65168 0.0
O254 O 0.26645 0.43089 0.59857 0.0
O255 O 0.28244 0.39639 0.56252 0.0
O256 O 0.2425 0.44338 0.68636 0.0
O257 O 0.30035 0.36005 0.65018 0.0
O258 O 0.28355 0.39363 0.68755 0.0
C259 C 0.27727 0.42169 0.56606 0.0
C260 C 0.21599 0.36509 0.6306 0.0
O261 O 0.21978 0.38849 0.6468 0.0
O262 O 0.23515 0.35321 0.61154 0.0
C263 C 0.22117 0.45728 0.67872 0.0
O264 O 0.20565 0.45089 0.64742 0.0
C265 C 0.29995 0.37359 0.68303 0.0
Zn266 Zn 0.64213 0.28079 0.63349 0.0
Zn267 Zn 0.59421 0.26785 0.66927 0.0
O268 O 0.58216 0.27486 0.61033 0.0
O269 O 0.62109 0.28738 0.58159 0.0
O270 O 0.55914 0.26079 0.69898 0.0
O271 O 0.64908 0.3109 0.67396 0.0
O272 O 0.60891 0.30118 0.70082 0.0
C273 C 0.59568 0.28252 0.57913 0.0
C274 C 0.64001 0.22559 0.66475 0.0
O275 O 0.61599 0.2321 0.67633 0.0
O276 O 0.65507 0.24261 0.6461 0.0
C277 C 0.54001 0.24529 0.68643 0.0
O278 O 0.54258 0.23219 0.65165 0.0
C279 C 0.6308 0.31539 0.70045 0.0
Zn280 Zn 0.72284 0.37022 0.8787 0.0
Zn281 Zn 0.73801 0.41039 0.82905 0.0
O282 O 0.73702 0.42988 0.88482 0.0
O283 O 0.72397 0.39634 0.92557 0.0
O284 O 0.74754 0.44087 0.7909 0.0
O285 O 0.68794 0.36449 0.84785 0.0
O286 O 0.70117 0.39669 0.80581 0.0
C287 C 0.73105 0.42103 0.92026 0.0
C288 C 0.77404 0.35991 0.83811 0.0
O289 O 0.76996 0.3834 0.82238 0.0
O290 O 0.757 0.34965 0.86291 0.0
C291 C 0.77013 0.45368 0.79314 0.0
O292 O 0.78846 0.44648 0.8204 0.0
C293 C 0.68331 0.37907 0.81668 0.0
Zn294 Zn 0.63053 0.7179 0.88651 0.0
Zn295 Zn 0.59072 0.73101 0.83394 0.0
O296 O 0.56924 0.71985 0.88559 0.0
O297 O 0.60212 0.70712 0.92739 0.0
O298 O 0.56085 0.73761 0.79343 0.0
O299 O 0.64629 0.69016 0.84819 0.0
O300 O 0.61397 0.70189 0.80462 0.0
C301 C 0.57694 0.71048 0.91992 0.0
C302 C 0.63198 0.77439 0.85892 0.0
O303 O 0.61086 0.76776 0.83837 0.0
O304 O 0.64354 0.75718 0.88213 0.0
C305 C 0.54032 0.7525 0.80178 0.0
O306 O 0.53899 0.76508 0.83714 0.0
C307 C 0.63505 0.68781 0.81362 0.0
Zn308 Zn 0.25707 0.63395 0.87556 0.0
Zn309 Zn 0.24357 0.59356 0.82417 0.0
O310 O 0.25452 0.5726 0.87627 0.0
O311 O 0.26626 0.60604 0.918 0.0
O312 O 0.23564 0.56312 0.78524 0.0
O313 O 0.2856 0.64802 0.83701 0.0
O314 O 0.2734 0.61549 0.79394 0.0
C315 C 0.26309 0.58077 0.91084 0.0
C316 C 0.20125 0.63653 0.84669 0.0
O317 O 0.20736 0.61466 0.82759 0.0
O318 O 0.2186 0.64819 0.86954 0.0
C319 C 0.21431 0.54834 0.78819 0.0
O320 O 0.19612 0.55345 0.8167 0.0
C321 C 0.28803 0.63628 0.80282 0.0
Zn322 Zn 0.35796 0.28173 0.88098 0.0
Zn323 Zn 0.39538 0.26672 0.8254 0.0
O324 O 0.4186 0.27511 0.87667 0.0
O325 O 0.38768 0.2881 0.92159 0.0
O326 O 0.424 0.25918 0.78307 0.0
O327 O 0.34451 0.31237 0.84562 0.0
O328 O 0.37384 0.29821 0.79902 0.0
C329 C 0.41234 0.28339 0.91229 0.0
C330 C 0.35092 0.22648 0.84952 0.0
O331 O 0.37229 0.23165 0.82858 0.0
O332 O 0.34126 0.24406 0.87401 0.0
C333 C 0.44483 0.24455 0.79085 0.0
O334 O 0.44686 0.23229 0.82639 0.0
C335 C 0.35466 0.31418 0.81022 0.0
Zn336 Zn 0.27586 0.36416 0.37236 0.0
Zn337 Zn 0.25674 0.40399 0.32407 0.0
O338 O 0.26735 0.42464 0.37648 0.0
O339 O 0.28323 0.39186 0.41606 0.0
O340 O 0.24558 0.43463 0.28742 0.0
O341 O 0.30455 0.35396 0.3314 0.0
O342 O 0.28702 0.38534 0.29072 0.0
C343 C 0.27735 0.41681 0.41033 0.0
C344 C 0.21944 0.35673 0.34668 0.0
O345 O 0.22263 0.37967 0.32874 0.0
O346 O 0.23867 0.34625 0.36732 0.0
C347 C 0.22541 0.45012 0.29524 0.0
O348 O 0.21002 0.44538 0.32737 0.0
C349 C 0.30417 0.36626 0.29746 0.0
Zn350 Zn 0.64729 0.27518 0.36519 0.0
Zn351 Zn 0.60111 0.26833 0.32346 0.0
O352 O 0.58619 0.27482 0.3812 0.0
O353 O 0.62442 0.28321 0.41477 0.0
O354 O 0.56761 0.26397 0.28927 0.0
O355 O 0.65926 0.30488 0.32687 0.0
O356 O 0.61931 0.30184 0.29647 0.0
C357 C 0.59862 0.28079 0.41414 0.0
C358 C 0.6431 0.22192 0.33006 0.0
O359 O 0.62076 0.23124 0.31569 0.0
O360 O 0.65799 0.23647 0.35301 0.0
C361 C 0.54815 0.2478 0.29831 0.0
O362 O 0.54937 0.2331 0.33184 0.0
C363 C 0.64274 0.31306 0.29978 0.0
Zn364 Zn 0.72348 0.63558 0.37923 0.0
Zn365 Zn 0.74489 0.59486 0.334 0.0
O366 O 0.73086 0.57447 0.38463 0.0
O367 O 0.71246 0.6075 0.42107 0.0
O368 O 0.75865 0.56431 0.29918 0.0
O369 O 0.69798 0.64588 0.33378 0.0
O370 O 0.71657 0.61312 0.29662 0.0
C371 C 0.71828 0.58242 0.41645 0.0
C372 C 0.78138 0.64184 0.36159 0.0
O373 O 0.77862 0.61897 0.34336 0.0
O374 O 0.76128 0.65283 0.37969 0.0
C375 C 0.78017 0.55091 0.30751 0.0
O376 O 0.79501 0.55756 0.33943 0.0
C377 C 0.69971 0.63282 0.30059 0.0
Zn378 Zn 0.36397 0.71015 0.3699 0.0
Zn379 Zn 0.40915 0.724 0.32872 0.0
O380 O 0.42476 0.71422 0.38492 0.0
O381 O 0.38819 0.69874 0.41667 0.0
O382 O 0.44243 0.73175 0.29516 0.0
O383 O 0.35236 0.68338 0.32651 0.0
O384 O 0.39134 0.6928 0.29578 0.0
C385 C 0.41364 0.70382 0.41643 0.0
C386 C 0.36572 0.76704 0.34551 0.0
O387 O 0.38812 0.76037 0.32833 0.0
O388 O 0.35202 0.74965 0.36571 0.0
C389 C 0.46044 0.74957 0.30406 0.0
O390 O 0.45783 0.76441 0.33726 0.0
C391 C 0.36884 0.67958 0.29729 0.0
Zn392 Zn 0.27791 0.62673 0.10697 0.0
Zn393 Zn 0.26237 0.58564 0.15463 0.0
O394 O 0.26776 0.56596 0.09979 0.0
O395 O 0.28181 0.59998 0.06086 0.0
O396 O 0.25179 0.55496 0.1918 0.0
O397 O 0.31004 0.63496 0.143 0.0
O398 O 0.2972 0.6011 0.18222 0.0
C399 C 0.27573 0.57492 0.06532 0.0
C400 C 0.22373 0.63371 0.13928 0.0
O401 O 0.22861 0.61068 0.15599 0.0
O402 O 0.24147 0.64509 0.11674 0.0
C403 C 0.22895 0.5427 0.18836 0.0
O404 O 0.21131 0.55058 0.16051 0.0
C405 C 0.31427 0.62008 0.17399 0.0
Zn406 Zn 0.36457 0.27472 0.10141 0.0
Zn407 Zn 0.40586 0.26463 0.15284 0.0
O408 O 0.42632 0.27467 0.09978 0.0
O409 O 0.39203 0.28292 0.05787 0.0
O410 O 0.43598 0.26011 0.19342 0.0
O411 O 0.34972 0.30468 0.13666 0.0
O412 O 0.38221 0.2941 0.18055 0.0
C413 C 0.41746 0.28135 0.06467 0.0
C414 C 0.36493 0.21959 0.13468 0.0
O415 O 0.38704 0.22713 0.1519 0.0
O416 O 0.35185 0.23589 0.11181 0.0
C417 C 0.45738 0.24638 0.18557 0.0
O418 O 0.45978 0.23391 0.15024 0.0
C419 C 0.36117 0.30802 0.17088 0.0
Zn420 Zn 0.7415 0.37096 0.12262 0.0
Zn421 Zn 0.75451 0.41355 0.16826 0.0
O422 O 0.74961 0.43157 0.112 0.0
O423 O 0.73468 0.39653 0.07581 0.0
O424 O 0.76366 0.44529 0.20405 0.0
O425 O 0.71182 0.36056 0.16193 0.0
O426 O 0.71933 0.39887 0.19523 0.0
C427 C 0.74083 0.42165 0.07857 0.0
C428 C 0.79452 0.36581 0.15715 0.0
O429 O 0.78807 0.38819 0.17469 0.0
O430 O 0.77864 0.35486 0.13143 0.0
C431 C 0.78585 0.45869 0.20092 0.0
O432 O 0.80428 0.45154 0.17374 0.0
C433 C 0.70588 0.37671 0.19079 0.0
Zn434 Zn 0.63816 0.71872 0.09799 0.0
Zn435 Zn 0.60083 0.73399 0.15418 0.0
O436 O 0.57687 0.72291 0.10505 0.0
O437 O 0.60754 0.70986 0.05974 0.0
O438 O 0.57312 0.74162 0.19782 0.0
O439 O 0.6535 0.68988 0.13513 0.0
O440 O 0.62405 0.70415 0.18149 0.0
C441 C 0.58285 0.71372 0.06984 0.0
C442 C 0.64327 0.77515 0.1253 0.0
O443 O 0.62237 0.76976 0.14718 0.0
O444 O 0.65337 0.75723 0.10176 0.0
C445 C 0.55064 0.75365 0.19043 0.0
O446 O 0.54591 0.76348 0.15382 0.0
C447 C 0.64377 0.68868 0.17086 0.0
C448 C 0.34922 0.17437 0.10818 0.0
C449 C 0.35317 0.19208 0.14197 0.0
C450 C 0.31983 0.16605 0.18222 0.0
C451 C 0.31383 0.1503 0.14701 0.0
N452 N 0.32696 0.13359 0.08099 0.0
N453 N 0.34859 0.20053 0.21419 0.0
C454 C 0.33015 0.15244 0.11148 0.0
C455 C 0.34082 0.18624 0.18023 0.0
N456 N 0.36299 0.17937 0.07261 0.0
N457 N 0.3041 0.16297 0.21646 0.0
H458 H 0.36335 0.21595 0.21361 0.0
H459 H 0.34215 0.19573 0.2436 0.0
H460 H 0.28926 0.14768 0.21928 0.0
H461 H 0.30485 0.17606 0.24149 0.0
H462 H 0.3591 0.16934 0.04522 0.0
H463 H 0.37828 0.19429 0.07042 0.0
H464 H 0.33916 0.1327 0.05501 0.0
H465 H 0.31316 0.11729 0.08335 0.0
C466 C 0.83777 0.31144 0.20582 0.0
C467 C 0.85352 0.30468 0.17108 0.0
C468 C 0.83989 0.34738 0.13786 0.0
C469 C 0.81959 0.35074 0.16822 0.0
N470 N 0.80057 0.33866 0.23363 0.0
N471 N 0.87323 0.31705 0.10641 0.0
C472 C 0.81949 0.33405 0.20368 0.0
C473 C 0.85623 0.32332 0.13819 0.0
N474 N 0.83993 0.29571 0.24015 0.0
N475 N 0.84282 0.36704 0.10847 0.0
H476 H 0.8862 0.30006 0.10703 0.0
H477 H 0.87418 0.3281 0.0793 0.0
H478 H 0.83092 0.38481 0.10839 0.0
H479 H 0.85815 0.36694 0.08644 0.0
H480 H 0.83045 0.30033 0.26773 0.0
H481 H 0.85325 0.27903 0.2418 0.0
H482 H 0.79712 0.32549 0.25806 0.0
H483 H 0.7876 0.35562 0.2334 0.0
C484 C 0.661 0.81857 0.0951 0.0
C485 C 0.65802 0.80146 0.12975 0.0
C486 C 0.69161 0.8292 0.16696 0.0
C487 C 0.69819 0.84285 0.13 0.0
N488 N 0.68867 0.85235 0.05936 0.0
N489 N 0.67104 0.78929 0.19852 0.0
C490 C 0.68245 0.83832 0.09428 0.0
C491 C 0.67294 0.80684 0.16606 0.0
N492 N 0.64319 0.81583 0.06319 0.0
N493 N 0.70372 0.83708 0.20269 0.0
H494 H 0.65756 0.77274 0.1995 0.0
H495 H 0.68412 0.78992 0.22356 0.0
H496 H 0.71827 0.85267 0.20446 0.0
H497 H 0.69764 0.82987 0.2312 0.0
H498 H 0.64275 0.82891 0.03811 0.0
H499 H 0.62716 0.80165 0.06352 0.0
H500 H 0.68033 0.84785 0.03093 0.0
H501 H 0.70309 0.86816 0.05866 0.0
C502 C 0.17967 0.6507 0.1103 0.0
C503 C 0.197 0.64739 0.14468 0.0
C504 C 0.17114 0.682 0.18246 0.0
C505 C 0.1554 0.68701 0.14682 0.0
N506 N 0.13897 0.67198 0.08157 0.0
N507 N 0.20487 0.6536 0.21665 0.0
C508 C 0.15775 0.66978 0.1123 0.0
C509 C 0.19105 0.66077 0.18201 0.0
N510 N 0.1849 0.63622 0.07545 0.0
N511 N 0.16851 0.69889 0.21552 0.0
H512 H 0.22012 0.63869 0.21702 0.0
H513 H 0.19977 0.66068 0.24561 0.0
H514 H 0.15355 0.71404 0.21753 0.0
H515 H 0.18185 0.69884 0.24026 0.0
H516 H 0.1752 0.63972 0.04769 0.0
H517 H 0.19973 0.62087 0.07409 0.0
H518 H 0.13813 0.65895 0.05647 0.0
H519 H 0.12263 0.68572 0.08302 0.0
C520 C 0.32157 0.82529 0.30842 0.0
C521 C 0.31784 0.83892 0.34627 0.0
C522 C 0.35516 0.81229 0.37638 0.0
C523 C 0.35468 0.79504 0.34168 0.0
N524 N 0.33983 0.78547 0.27318 0.0
N525 N 0.33284 0.8487 0.41454 0.0
C526 C 0.33914 0.80209 0.30675 0.0
C527 C 0.33563 0.83375 0.37952 0.0
N528 N 0.30772 0.83402 0.27462 0.0
N529 N 0.37412 0.80772 0.40625 0.0
H530 H 0.31972 0.86553 0.41644 0.0
H531 H 0.3429 0.84431 0.44172 0.0
H532 H 0.38868 0.79213 0.40402 0.0
H533 H 0.37693 0.82036 0.43145 0.0
H534 H 0.3111 0.82643 0.24539 0.0
H535 H 0.29434 0.8506 0.27503 0.0
H536 H 0.32656 0.78725 0.24851 0.0
H537 H 0.35325 0.76895 0.27062 0.0
C538 C 0.17762 0.33603 0.37768 0.0
C539 C 0.19378 0.34092 0.34249 0.0
C540 C 0.17177 0.30262 0.30697 0.0
C541 C 0.1571 0.29653 0.34323 0.0
N542 N 0.13968 0.31113 0.40832 0.0
N543 N 0.20116 0.33446 0.27041 0.0
C544 C 0.15789 0.31461 0.37704 0.0
C545 C 0.18889 0.32623 0.30586 0.0
N546 N 0.182 0.35127 0.41207 0.0
N547 N 0.17084 0.28482 0.27478 0.0
H548 H 0.21422 0.35134 0.26879 0.0
H549 H 0.19663 0.32616 0.24195 0.0
H550 H 0.1581 0.26767 0.2742 0.0
H551 H 0.18367 0.28613 0.24948 0.0
H552 H 0.17343 0.34678 0.44038 0.0
H553 H 0.19514 0.36817 0.41244 0.0
H554 H 0.13764 0.3247 0.43261 0.0
H555 H 0.12484 0.29571 0.4081 0.0
C556 C 0.66773 0.15063 0.35076 0.0
C557 C 0.68904 0.14994 0.32154 0.0
C558 C 0.66964 0.18977 0.28675 0.0
C559 C 0.65238 0.19387 0.32088 0.0
N560 N 0.63136 0.17722 0.38237 0.0
N561 N 0.70903 0.1658 0.25876 0.0
C562 C 0.64985 0.17356 0.35153 0.0
C563 C 0.68916 0.16819 0.28791 0.0
N564 N 0.66525 0.12959 0.37804 0.0
N565 N 0.66772 0.20709 0.25411 0.0
H566 H 0.72286 0.14951 0.25839 0.0
H567 H 0.71232 0.18001 0.2356 0.0
H568 H 0.65347 0.22299 0.25315 0.0
H569 H 0.6785 0.20456 0.22699 0.0
H570 H 0.64935 0.12777 0.399 0.0
H571 H 0.67826 0.11263 0.37742 0.0
H572 H 0.63015 0.16487 0.40817 0.0
H573 H 0.6173 0.19332 0.38224 0.0
C574 C 0.82185 0.66285 0.39641 0.0
C575 C 0.80753 0.65713 0.35975 0.0
C576 C 0.83349 0.69269 0.32381 0.0
C577 C 0.84713 0.69913 0.36087 0.0
N578 N 0.85973 0.68654 0.42925 0.0
N579 N 0.80466 0.66103 0.28641 0.0
C580 C 0.84309 0.68284 0.39618 0.0
C581 C 0.81526 0.66999 0.32264 0.0
N582 N 0.81452 0.64968 0.43159 0.0
N583 N 0.83616 0.70956 0.29066 0.0
H584 H 0.79048 0.64514 0.28424 0.0
H585 H 0.81173 0.66765 0.25809 0.0
H586 H 0.84928 0.72641 0.28986 0.0
H587 H 0.8239 0.70814 0.26477 0.0
H588 H 0.82169 0.65513 0.46036 0.0
H589 H 0.80031 0.63368 0.43208 0.0
H590 H 0.85944 0.67403 0.45497 0.0
H591 H 0.8756 0.7009 0.42944 0.0
C592 C 0.66875 0.83915 0.88821 0.0
C593 C 0.68381 0.84415 0.85197 0.0
C594 C 0.6589 0.80769 0.81659 0.0
C595 C 0.64506 0.8015 0.85362 0.0
N596 N 0.63084 0.81525 0.92076 0.0
N597 N 0.68793 0.83922 0.77902 0.0
C598 C 0.64797 0.81871 0.88816 0.0
C599 C 0.67682 0.83064 0.81513 0.0
N600 N 0.67514 0.85332 0.9229 0.0
N601 N 0.65675 0.79036 0.78393 0.0
H602 H 0.7017 0.85549 0.77696 0.0
H603 H 0.68164 0.83195 0.75067 0.0
H604 H 0.64371 0.77345 0.78336 0.0
H605 H 0.66916 0.79164 0.75816 0.0
H606 H 0.66734 0.84863 0.95162 0.0
H607 H 0.68913 0.86953 0.92298 0.0
H608 H 0.6304 0.82823 0.94594 0.0
H609 H 0.61531 0.80052 0.92095 0.0
C610 C 0.13792 0.67532 0.87543 0.0
C611 C 0.13768 0.69397 0.84237 0.0
C612 C 0.16955 0.66479 0.8046 0.0
C613 C 0.17446 0.65001 0.84111 0.0
N614 N 0.16131 0.63774 0.90936 0.0
N615 N 0.15095 0.70605 0.77388 0.0
C616 C 0.15753 0.65386 0.87573 0.0
C617 C 0.15217 0.68813 0.8059 0.0
N618 N 0.11962 0.67868 0.90659 0.0
N619 N 0.1822 0.65704 0.76924 0.0
H620 H 0.13776 0.72283 0.77344 0.0
H621 H 0.16366 0.70505 0.74843 0.0
H622 H 0.19533 0.64028 0.76758 0.0
H623 H 0.17789 0.66557 0.74086 0.0
H624 H 0.11738 0.66503 0.93076 0.0
H625 H 0.10501 0.69428 0.90633 0.0
H626 H 0.15195 0.64115 0.93742 0.0
H627 H 0.17457 0.62097 0.90916 0.0
C628 C 0.31856 0.19759 0.80885 0.0
C629 C 0.33554 0.2007 0.84369 0.0
C630 C 0.31208 0.16277 0.87791 0.0
C631 C 0.29392 0.16089 0.84425 0.0
N632 N 0.28393 0.1707 0.77379 0.0
N633 N 0.3537 0.18255 0.90617 0.0
C634 C 0.29873 0.17622 0.80821 0.0
C635 C 0.33404 0.1819 0.87652 0.0
N636 N 0.32003 0.21627 0.77779 0.0
N637 N 0.30764 0.14683 0.91161 0.0
H638 H 0.37008 0.19632 0.90529 0.0
H639 H 0.35519 0.16824 0.9296 0.0
H640 H 0.29277 0.13144 0.91239 0.0
H641 H 0.31797 0.14926 0.93913 0.0
H642 H 0.30592 0.21736 0.75407 0.0
H643 H 0.33468 0.23182 0.77671 0.0
H644 H 0.28816 0.17931 0.74541 0.0
H645 H 0.26874 0.15569 0.77273 0.0
C646 C 0.81733 0.30433 0.79262 0.0
C647 C 0.83609 0.30052 0.82507 0.0
C648 C 0.81971 0.34206 0.85877 0.0
C649 C 0.799 0.34415 0.82867 0.0
N650 N 0.78215 0.3329 0.76182 0.0
N651 N 0.86081 0.31874 0.88231 0.0
C652 C 0.79937 0.32725 0.79357 0.0
C653 C 0.8393 0.32063 0.8558 0.0
N654 N 0.81585 0.28518 0.76226 0.0
N655 N 0.81971 0.35986 0.89099 0.0
H656 H 0.87531 0.30311 0.88034 0.0
H657 H 0.86558 0.33351 0.90406 0.0
H658 H 0.80641 0.37656 0.89258 0.0
H659 H 0.83226 0.35793 0.91645 0.0
H660 H 0.80075 0.28481 0.73991 0.0
H661 H 0.82967 0.26894 0.76011 0.0
H662 H 0.78248 0.32261 0.73404 0.0
H663 H 0.76873 0.34951 0.76221 0.0
C664 C 0.67053 0.19414 0.70349 0.0
C665 C 0.65101 0.1979 0.67205 0.0
C666 C 0.66597 0.15582 0.63837 0.0
C667 C 0.68753 0.15387 0.66713 0.0
N668 N 0.70629 0.16554 0.73266 0.0
N669 N 0.62461 0.17945 0.61664 0.0
C670 C 0.68823 0.17106 0.70191 0.0
C671 C 0.64671 0.1775 0.64202 0.0
N672 N 0.67291 0.2135 0.73343 0.0
N673 N 0.66492 0.13765 0.60665 0.0
H674 H 0.61039 0.19531 0.619 0.0
H675 H 0.61912 0.16457 0.59545 0.0
H676 H 0.67807 0.12086 0.60466 0.0
H677 H 0.65162 0.13934 0.58201 0.0
H678 H 0.68852 0.21389 0.75498 0.0
H679 H 0.65923 0.22983 0.73607 0.0
H680 H 0.7069 0.17612 0.76019 0.0
H681 H 0.7195 0.14876 0.73179 0.0
C682 C 0.82035 0.65581 0.60081 0.0
C683 C 0.80442 0.65175 0.63646 0.0
C684 C 0.8288 0.68872 0.67139 0.0
C685 C 0.84351 0.69401 0.6348 0.0
N686 N 0.8591 0.67884 0.56903 0.0
N687 N 0.79861 0.65822 0.70886 0.0
C688 C 0.84126 0.67613 0.60093 0.0
C689 C 0.81065 0.66596 0.67298 0.0
N690 N 0.81469 0.64087 0.56656 0.0
N691 N 0.83035 0.7067 0.70334 0.0
H692 H 0.78465 0.64212 0.7109 0.0
H693 H 0.80428 0.66604 0.73718 0.0
H694 H 0.8435 0.72353 0.7038 0.0
H695 H 0.81736 0.70604 0.72851 0.0
H696 H 0.82325 0.64478 0.53807 0.0
H697 H 0.80057 0.62478 0.56656 0.0
H698 H 0.85998 0.66539 0.54443 0.0
H699 H 0.87472 0.69347 0.56894 0.0
C700 C 0.3162 0.84064 0.69188 0.0
C701 C 0.31051 0.8557 0.65598 0.0
C702 C 0.34731 0.83176 0.62003 0.0
C703 C 0.34828 0.81263 0.65244 0.0
N704 N 0.33569 0.79927 0.7208 0.0
N705 N 0.32274 0.86934 0.58796 0.0
C706 C 0.334 0.81766 0.68943 0.0
C707 C 0.32723 0.85279 0.62092 0.0
N708 N 0.30388 0.84782 0.72773 0.0
N709 N 0.36531 0.82923 0.58833 0.0
H710 H 0.30907 0.88576 0.58907 0.0
H711 H 0.33197 0.86667 0.55962 0.0
H712 H 0.38023 0.81393 0.58776 0.0
H713 H 0.36698 0.84324 0.56453 0.0
H714 H 0.3087 0.83908 0.75578 0.0
H715 H 0.29058 0.86444 0.72998 0.0
H716 H 0.32313 0.79973 0.74645 0.0
H717 H 0.34904 0.78264 0.7205 0.0
C718 C 0.15341 0.32355 0.60244 0.0
C719 C 0.15019 0.30853 0.63912 0.0
C720 C 0.18254 0.33911 0.67369 0.0
C721 C 0.1896 0.35049 0.6352 0.0
N722 N 0.18082 0.35585 0.5634 0.0
N723 N 0.16094 0.30155 0.71014 0.0
C724 C 0.17442 0.34367 0.59976 0.0
C725 C 0.164 0.31662 0.67523 0.0
N726 N 0.13625 0.31844 0.57038 0.0
N727 N 0.19403 0.34931 0.70857 0.0
H728 H 0.1471 0.28536 0.71273 0.0
H729 H 0.1731 0.30401 0.73595 0.0
H730 H 0.20829 0.3652 0.70865 0.0
H731 H 0.18777 0.34373 0.73777 0.0
H732 H 0.13597 0.32989 0.5436 0.0
H733 H 0.12053 0.30395 0.57204 0.0
H734 H 0.17299 0.34963 0.53537 0.0
H735 H 0.19485 0.37195 0.5612 0.0
C736 C 0.24507 0.05971 0.01516 0.0
C737 C 0.22223 0.06567 0.04034 0.0
C738 C 0.19213 0.06664 0.98113 0.0
C739 C 0.2157 0.06688 0.9561 0.0
N740 N 0.26182 0.05129 0.94633 0.0
N741 N 0.17368 0.06437 0.05015 0.0
C742 C 0.24125 0.05874 0.9722 0.0
C743 C 0.19547 0.06501 0.02407 0.0
N744 N 0.27052 0.05747 0.03204 0.0
N745 N 0.16706 0.07005 0.96349 0.0
H746 H 0.17646 0.0632 0.08172 0.0
H747 H 0.15336 0.06315 0.04086 0.0
H748 H 0.1648 0.07051 0.9318 0.0
H749 H 0.14889 0.07242 0.97966 0.0
H750 H 0.28853 0.05658 0.01513 0.0
H751 H 0.2736 0.05697 0.06349 0.0
H752 H 0.28064 0.04374 0.95601 0.0
H753 H 0.2589 0.0501 0.91487 0.0
C754 C 0.91959 0.23665 0.97244 0.0
C755 C 0.91059 0.21265 0.9521 0.0
C756 C 0.91003 0.18771 0.01685 0.0
C757 C 0.91191 0.21311 0.03738 0.0
N758 N 0.92149 0.26157 0.03645 0.0
N759 N 0.90276 0.16408 0.95238 0.0
C760 C 0.91853 0.23742 0.01576 0.0
C761 C 0.90818 0.18757 0.97359 0.0
N762 N 0.92829 0.25878 0.95039 0.0
N763 N 0.90926 0.16407 0.03916 0.0
H764 H 0.9028 0.16361 0.92051 0.0
H765 H 0.89803 0.14536 0.96586 0.0
H766 H 0.91084 0.16422 0.07095 0.0
H767 H 0.90915 0.14451 0.02654 0.0
H768 H 0.93703 0.27617 0.96342 0.0
H769 H 0.92937 0.25871 0.91867 0.0
H770 H 0.92261 0.28067 0.02238 0.0
H771 H 0.92181 0.26265 0.06821 0.0
C772 C 0.76001 0.94314 0.97209 0.0
C773 C 0.78153 0.93246 0.94784 0.0
C774 C 0.81182 0.93136 0.00678 0.0
C775 C 0.78852 0.93505 0.0317 0.0
N776 N 0.74583 0.95877 0.0394 0.0
N777 N 0.82977 0.92704 0.93768 0.0
C778 C 0.76444 0.94621 0.01469 0.0
C779 C 0.80834 0.93082 0.9638 0.0
N780 N 0.735 0.94806 0.95508 0.0
N781 N 0.83641 0.92616 0.02487 0.0
H782 H 0.82683 0.92664 0.9061 0.0
H783 H 0.85015 0.92601 0.9467 0.0
H784 H 0.83861 0.92706 0.05657 0.0
H785 H 0.85422 0.92121 0.00913 0.0
H786 H 0.71753 0.95258 0.97197 0.0
H787 H 0.73173 0.9472 0.9237 0.0
H788 H 0.7283 0.9685 0.02869 0.0
H789 H 0.74973 0.96203 0.0703 0.0
C790 C 0.05636 0.76311 0.98298 0.0
C791 C 0.0656 0.78725 0.96309 0.0
C792 C 0.07056 0.81052 0.0284 0.0
C793 C 0.0678 0.78477 0.04771 0.0
N794 N 0.04618 0.74061 0.0476 0.0
N795 N 0.07114 0.83598 0.96438 0.0
C796 C 0.05618 0.76249 0.02634 0.0
C797 C 0.0686 0.81189 0.98524 0.0
N798 N 0.0502 0.74035 0.96057 0.0
N799 N 0.07712 0.83285 0.0515 0.0
H800 H 0.06968 0.83661 0.93259 0.0
H801 H 0.07293 0.8551 0.97814 0.0
H802 H 0.07792 0.83165 0.08332 0.0
H803 H 0.08159 0.85214 0.0397 0.0
H804 H 0.04663 0.72108 0.97312 0.0
H805 H 0.0489 0.74077 0.92885 0.0
H806 H 0.03618 0.72407 0.03417 0.0
H807 H 0.04559 0.74046 0.07939 0.0
C808 C 0.24798 0.93793 0.47979 0.0
C809 C 0.22565 0.92748 0.45706 0.0
C810 C 0.19606 0.92989 0.5168 0.0
C811 C 0.21971 0.93416 0.54078 0.0
N812 N 0.26395 0.95555 0.54504 0.0
N813 N 0.17712 0.92331 0.44872 0.0
C814 C 0.24424 0.94313 0.52208 0.0
C815 C 0.19901 0.92736 0.47387 0.0
N816 N 0.27302 0.94061 0.4617 0.0
N817 N 0.1715 0.9262 0.5359 0.0
H818 H 0.17958 0.92148 0.41717 0.0
H819 H 0.15683 0.92352 0.45836 0.0
H820 H 0.16956 0.92872 0.56744 0.0
H821 H 0.15345 0.9208 0.52112 0.0
H822 H 0.29095 0.94498 0.47759 0.0
H823 H 0.27583 0.93779 0.43043 0.0
H824 H 0.28189 0.96375 0.53294 0.0
H825 H 0.26082 0.96028 0.5757 0.0
C826 C 0.0559 0.24035 0.51513 0.0
C827 C 0.06296 0.21691 0.53819 0.0
C828 C 0.06493 0.18957 0.47601 0.0
C829 C 0.06672 0.21427 0.45371 0.0
N830 N 0.05797 0.26262 0.44883 0.0
N831 N 0.06585 0.16807 0.54311 0.0
C832 C 0.05928 0.23944 0.47208 0.0
C833 C 0.06388 0.19091 0.51925 0.0
N834 N 0.04724 0.26346 0.53461 0.0
N835 N 0.066 0.16527 0.45549 0.0
H836 H 0.06447 0.16932 0.57488 0.0
H837 H 0.06869 0.14832 0.53195 0.0
H838 H 0.06687 0.16468 0.42364 0.0
H839 H 0.06436 0.14613 0.46929 0.0
H840 H 0.04052 0.28099 0.51959 0.0
H841 H 0.04422 0.26398 0.56607 0.0
H842 H 0.05592 0.28228 0.46072 0.0
H843 H 0.05941 0.26203 0.4171 0.0
C844 C 0.73127 0.05838 0.51507 0.0
C845 C 0.75617 0.06032 0.53686 0.0
C846 C 0.78238 0.05467 0.47418 0.0
C847 C 0.75793 0.05912 0.45217 0.0
N848 N 0.70909 0.05521 0.44858 0.0
N849 N 0.80415 0.05094 0.54088 0.0
C850 C 0.73224 0.05695 0.47175 0.0
C851 C 0.78135 0.05464 0.51747 0.0
N852 N 0.7071 0.06019 0.53583 0.0
N853 N 0.80647 0.05259 0.45327 0.0
H854 H 0.80305 0.05096 0.57272 0.0
H855 H 0.82345 0.04639 0.52934 0.0
H856 H 0.80689 0.05207 0.4214 0.0
H857 H 0.82563 0.05118 0.46689 0.0
H858 H 0.68796 0.06123 0.52207 0.0
H859 H 0.70646 0.06058 0.56767 0.0
H860 H 0.68946 0.05301 0.46042 0.0
H861 H 0.70999 0.05415 0.4168 0.0
C862 C 0.94561 0.76616 0.51718 0.0
C863 C 0.93519 0.78899 0.53881 0.0
C864 C 0.9371 0.81695 0.47741 0.0
C865 C 0.93978 0.79248 0.45484 0.0
N866 N 0.96061 0.74814 0.45152 0.0
N867 N 0.93135 0.83769 0.54456 0.0
C868 C 0.9494 0.7686 0.47435 0.0
C869 C 0.93524 0.8152 0.52056 0.0
N870 N 0.94932 0.74186 0.537 0.0
N871 N 0.93373 0.841 0.45684 0.0
H872 H 0.92981 0.83589 0.57626 0.0
H873 H 0.93106 0.85774 0.53377 0.0
H874 H 0.93514 0.84169 0.42502 0.0
H875 H 0.93 0.85981 0.47069 0.0
H876 H 0.95404 0.72353 0.52241 0.0
H877 H 0.94735 0.74025 0.5686 0.0
H878 H 0.96893 0.73034 0.46381 0.0
H879 H 0.96382 0.7505 0.42024 0.0
C880 C 0.73551 0.55285 0.51505 0.0
C881 C 0.71212 0.56307 0.53561 0.0
C882 C 0.68739 0.56664 0.47139 0.0
C883 C 0.7127 0.56366 0.45099 0.0
N884 N 0.7561 0.5406 0.44986 0.0
N885 N 0.66347 0.56845 0.53665 0.0
C886 C 0.73516 0.55186 0.47168 0.0
C887 C 0.687 0.56546 0.51464 0.0
N888 N 0.75845 0.54633 0.53668 0.0
N889 N 0.66458 0.57265 0.44913 0.0
H890 H 0.66367 0.56768 0.56852 0.0
H891 H 0.64406 0.56999 0.52386 0.0
H892 H 0.66511 0.57288 0.41725 0.0
H893 H 0.64555 0.57713 0.46168 0.0
H894 H 0.77734 0.5421 0.52342 0.0
H895 H 0.75846 0.54515 0.56842 0.0
H896 H 0.77268 0.53057 0.46299 0.0
H897 H 0.75529 0.53881 0.4182 0.0
C898 C 0.42192 0.67856 0.4807 0.0
C899 C 0.42862 0.70116 0.45557 0.0
C900 C 0.4347 0.73035 0.51516 0.0
C901 C 0.42216 0.7096 0.53895 0.0
N902 N 0.41301 0.66186 0.54956 0.0
N903 N 0.45482 0.74275 0.44982 0.0
C904 C 0.41939 0.68271 0.52343 0.0
C905 C 0.4399 0.72508 0.47324 0.0
N906 N 0.41622 0.65395 0.46281 0.0
N907 N 0.43953 0.75553 0.53186 0.0
H908 H 0.45997 0.73822 0.4197 0.0
H909 H 0.46472 0.75999 0.46138 0.0
H910 H 0.4367 0.75943 0.56287 0.0
H911 H 0.44551 0.77259 0.51496 0.0
H912 H 0.40913 0.63677 0.47838 0.0
H913 H 0.4189 0.65102 0.43147 0.0
H914 H 0.41111 0.64144 0.54091 0.0
H915 H 0.4113 0.66513 0.58096 0.0
C916 C 0.25692 0.44536 0.46571 0.0
C917 C 0.28059 0.43575 0.44518 0.0
C918 C 0.30649 0.43634 0.50863 0.0
C919 C 0.28143 0.43916 0.52972 0.0
N920 N 0.23672 0.45946 0.53036 0.0
N921 N 0.32948 0.43299 0.44282 0.0
C922 C 0.25798 0.44857 0.5088 0.0
C923 C 0.30613 0.43557 0.46536 0.0
N924 N 0.23314 0.44915 0.44461 0.0
N925 N 0.32988 0.43222 0.5305 0.0
H926 H 0.32884 0.43238 0.41096 0.0
H927 H 0.34913 0.43328 0.45503 0.0
H928 H 0.32989 0.4334 0.56234 0.0
H929 H 0.34883 0.42775 0.51765 0.0
H930 H 0.21429 0.45279 0.45835 0.0
H931 H 0.23233 0.44843 0.41287 0.0
H932 H 0.21939 0.46794 0.51695 0.0
H933 H 0.23787 0.46251 0.5618 0.0
C934 C 0.57699 0.25907 0.51731 0.0
C935 C 0.58287 0.28379 0.53841 0.0
C936 C 0.58561 0.3089 0.47411 0.0
C937 C 0.58385 0.28361 0.45318 0.0
N938 N 0.56805 0.23692 0.45222 0.0
N939 N 0.5835 0.33293 0.53912 0.0
C940 C 0.57578 0.2595 0.47399 0.0
C941 C 0.58372 0.30907 0.51734 0.0
N942 N 0.57498 0.23496 0.53837 0.0
N943 N 0.59063 0.33231 0.45247 0.0
H944 H 0.58193 0.33301 0.57091 0.0
H945 H 0.58266 0.35233 0.52599 0.0
H946 H 0.59077 0.33249 0.42059 0.0
H947 H 0.59503 0.3512 0.46567 0.0
H948 H 0.57433 0.21577 0.52457 0.0
H949 H 0.57491 0.23401 0.57013 0.0
H950 H 0.56001 0.21924 0.4654 0.0
H951 H 0.56725 0.23687 0.42044 0.0
C952 C 0.71005 0.44233 0.98064 0.0
C953 C 0.73382 0.43835 0.95686 0.0
C954 C 0.76239 0.44256 0.01763 0.0
C955 C 0.73856 0.43849 0.04139 0.0
N956 N 0.68985 0.44143 0.04858 0.0
N957 N 0.7827 0.44098 0.94982 0.0
C958 C 0.71233 0.44146 0.02379 0.0
C959 C 0.76012 0.44147 0.9744 0.0
N960 N 0.68546 0.44536 0.96141 0.0
N961 N 0.787 0.44601 0.03668 0.0
H962 H 0.78116 0.44113 0.91808 0.0
H963 H 0.80274 0.4403 0.96046 0.0
H964 H 0.7886 0.44684 0.0684 0.0
H965 H 0.80526 0.45014 0.02154 0.0
H966 H 0.66704 0.44903 0.97636 0.0
H967 H 0.68412 0.44593 0.9296 0.0
H968 H 0.66975 0.44129 0.03818 0.0
H969 H 0.69173 0.44157 0.08034 0.0
C970 C 0.56151 0.68323 0.01945 0.0
C971 C 0.56183 0.70927 0.03824 0.0
C972 C 0.5484 0.7305 0.974 0.0
C973 C 0.55765 0.7066 0.95412 0.0
N974 N 0.56352 0.65803 0.9553 0.0
N975 N 0.54803 0.7565 0.03733 0.0
C976 C 0.56005 0.68191 0.97625 0.0
C977 C 0.55178 0.73241 0.01697 0.0
N978 N 0.56477 0.66047 0.04309 0.0
N979 N 0.53808 0.7515 0.95134 0.0
H980 H 0.54959 0.7577 0.069 0.0
H981 H 0.54351 0.77503 0.02318 0.0
H982 H 0.5354 0.74963 0.91988 0.0
H983 H 0.53011 0.76943 0.96372 0.0
H984 H 0.56463 0.64051 0.03193 0.0
H985 H 0.5661 0.66198 0.07484 0.0
H986 H 0.56727 0.63913 0.96887 0.0
H987 H 0.56234 0.65759 0.92346 0.0
C988 C 0.24994 0.55005 0.01183 0.0
C989 C 0.27558 0.55756 0.02839 0.0
C990 C 0.29512 0.56029 0.96006 0.0
C991 C 0.26817 0.56155 0.94464 0.0
N992 N 0.22032 0.55138 0.95218 0.0
N993 N 0.32414 0.56096 0.02053 0.0
C994 C 0.24574 0.55343 0.96921 0.0
C995 C 0.29891 0.55889 0.00295 0.0
N996 N 0.22965 0.541 0.03712 0.0
N997 N 0.31658 0.56222 0.93352 0.0
H998 H 0.32658 0.55944 0.05213 0.0
H999 H 0.34228 0.56384 0.00446 0.0
H1000 H 0.31341 0.56326 0.90203 0.0
H1001 H 0.33705 0.56126 0.94206 0.0
H1002 H 0.21064 0.53416 0.02703 0.0
H1003 H 0.23298 0.53791 0.06821 0.0
H1004 H 0.20241 0.54848 0.96883 0.0
H1005 H 0.2173 0.55295 0.92075 0.0
C1006 C 0.44137 0.2613 0.96482 0.0
C1007 C 0.43286 0.28567 0.94515 0.0
C1008 C 0.43479 0.31065 0.00937 0.0
C1009 C 0.43595 0.28515 0.02959 0.0
N1010 N 0.45163 0.23871 0.02945 0.0
N1011 N 0.43216 0.33465 0.94421 0.0
C1012 C 0.44378 0.26136 0.00807 0.0
C1013 C 0.43397 0.31093 0.96608 0.0
N1014 N 0.44466 0.23796 0.94246 0.0
N1015 N 0.43205 0.33394 0.03203 0.0
H1016 H 0.43133 0.33436 0.91235 0.0
H1017 H 0.43307 0.35416 0.95695 0.0
H1018 H 0.43296 0.33332 0.06388 0.0
H1019 H 0.42915 0.35339 0.01982 0.0
H1020 H 0.44841 0.21873 0.95492 0.0
H1021 H 0.44381 0.23813 0.91068 0.0
H1022 H 0.45824 0.22055 0.01611 0.0
H1023 H 0.4533 0.23906 0.06119 0.0
C1024 C 0.2965 -0.00113 0.22333 0.0
C1025 C 0.27116 0.01188 0.21493 0.0
C1026 C 0.24865 0.98386 0.26696 0.0
C1027 C 0.27316 0.96876 0.27219 0.0
N1028 N 0.31943 0.95893 0.25097 0.0
N1029 N 0.22188 0.01216 0.22169 0.0
C1030 C 0.2969 0.97546 0.24925 0.0
C1031 C 0.24686 0.00309 0.23475 0.0
N1032 N 0.32026 0.00943 0.2078 0.0
N1033 N 0.22738 0.98066 0.29372 0.0
H1034 H 0.21946 0.0254 0.19696 0.0
H1035 H 0.20343 0.00422 0.23249 0.0
H1036 H 0.2282 0.9675 0.31878 0.0
H1037 H 0.21015 0.99321 0.29363 0.0
H1038 H 0.3396 0.00258 0.21642 0.0
H1039 H 0.32078 0.0266 0.18887 0.0
H1040 H 0.33621 0.96113 0.23161 0.0
H1041 H 0.32044 0.94154 0.26942 0.0
C1042 C 0.99598 0.2235 0.22106 0.0
C1043 C 0.98327 0.24869 0.21096 0.0
C1044 C 0.01789 0.27339 0.25068 0.0
C1045 C 0.028 0.24799 0.26539 0.0
N1046 N 0.0228 0.19878 0.2707 0.0
N1047 N 0.9796 0.29762 0.22085 0.0
C1048 C 0.01611 0.22296 0.25214 0.0
C1049 C 0.99361 0.27372 0.2268 0.0
N1050 N 0.98934 0.20014 0.20023 0.0
N1051 N 0.03191 0.29709 0.25843 0.0
H1052 H 0.96152 0.29875 0.20407 0.0
H1053 H 0.9846 0.31588 0.23553 0.0
H1054 H 0.05005 0.2976 0.27517 0.0
H1055 H 0.027 0.3158 0.24498 0.0
H1056 H -5e-05 0.18178 0.20368 0.0
H1057 H 0.97524 0.19986 0.17633 0.0
H1058 H 0.01256 0.18044 0.26491 0.0
H1059 H 0.03649 0.19742 0.295 0.0
C1060 C 0.72126 0.98917 0.27941 0.0
C1061 C 0.71988 0.01618 0.2635 0.0
C1062 C 0.72143 0.99837 0.19372 0.0
C1063 C 0.72229 0.97132 0.20961 0.0
N1064 N 0.71581 0.94056 0.26634 0.0
N1065 N 0.7115 0.04627 0.20659 0.0
C1066 C 0.71986 0.96661 0.25214 0.0
C1067 C 0.71763 0.02068 0.22092 0.0
N1068 N 0.72554 0.98503 0.32018 0.0
N1069 N 0.7259 0.00295 0.15309 0.0
H1070 H 0.70835 0.06299 0.22586 0.0
H1071 H 0.70693 0.05032 0.17615 0.0
H1072 H 0.72891 0.98725 0.13202 0.0
H1073 H 0.72876 0.0224 0.1407 0.0
H1074 H 0.72998 0.96592 0.33269 0.0
H1075 H 0.7268 0.00095 0.34129 0.0
H1076 H 0.71124 0.93609 0.29667 0.0
H1077 H 0.71434 0.92362 0.24702 0.0
C1078 C 0.01148 0.71079 0.23876 0.0
C1079 C 0.02324 0.73547 0.22387 0.0
C1080 C 0.99253 0.76223 0.26718 0.0
C1081 C 0.97873 0.73782 0.27868 0.0
N1082 N 0.97217 0.68909 0.27057 0.0
N1083 N 0.02036 0.78466 0.21623 0.0
C1084 C 0.98741 0.71209 0.26321 0.0
C1085 C 0.01247 0.76121 0.23588 0.0
N1086 N 0.0238 0.68623 0.23082 0.0
N1087 N 0.98751 0.78625 0.28732 0.0
H1088 H 0.0341 0.7848 0.19185 0.0
H1089 H 0.01102 0.80356 0.22114 0.0
H1090 H 0.97387 0.78777 0.31172 0.0
H1091 H -0.00093 0.80396 0.28278 0.0
H1092 H 0.01781 0.66789 0.24447 0.0
H1093 H 0.04152 0.6845 0.21327 0.0
H1094 H 0.97589 0.67033 0.2565 0.0
H1095 H 0.95432 0.68929 0.28805 0.0
C1096 C 0.70692 0.97209 0.73764 0.0
C1097 C 0.71315 0.97554 0.77956 0.0
C1098 C 0.7143 0.0253 0.77032 0.0
C1099 C 0.71273 0.02146 0.72753 0.0
N1100 N 0.71 0.99102 0.66953 0.0
N1101 N 0.72542 0.0052 0.83572 0.0
C1102 C 0.7093 0.99484 0.71085 0.0
C1103 C 0.71718 0.00212 0.79612 0.0
N1104 N 0.69842 0.9471 0.72363 0.0
N1105 N 0.71268 0.05114 0.78626 0.0
H1106 H 0.72803 0.98881 0.85573 0.0
H1107 H 0.7318 0.02386 0.84791 0.0
H1108 H 0.71026 0.06855 0.76811 0.0
H1109 H 0.71102 0.05507 0.8174 0.0
H1110 H 0.69104 0.94391 0.69421 0.0
H1111 H 0.6962 0.93009 0.74269 0.0
H1112 H 0.71087 0.97175 0.65591 0.0
H1113 H 0.71191 0.00705 0.6487 0.0
C1114 C 0.98136 0.72042 0.73536 0.0
C1115 C 0.96965 0.7455 0.72219 0.0
C1116 C -0.00188 0.7706 0.77086 0.0
C1117 C 0.01237 0.74608 0.78004 0.0
N1118 N 0.02047 0.69814 0.76622 0.0
N1119 N 0.97127 0.79507 0.72101 0.0
C1120 C 0.00474 0.72103 0.76115 0.0
C1121 C 0.97916 0.7708 0.73823 0.0
N1122 N 0.96968 0.69605 0.72433 0.0
N1123 N 0.00207 0.79354 0.79411 0.0
H1124 H 0.95839 0.79627 0.69571 0.0
H1125 H 0.97986 0.81387 0.72901 0.0
H1126 H 0.01513 0.79398 0.81927 0.0
H1127 H 0.99017 0.81114 0.79114 0.0
H1128 H 0.97567 0.67727 0.73648 0.0
H1129 H 0.95229 0.6948 0.70597 0.0
H1130 H 0.01751 0.68018 0.74961 0.0
H1131 H 0.03801 0.69779 0.7843 0.0
C1132 C 0.27423 0.98294 0.76199 0.0
C1133 C 0.27034 0.98611 0.7194 0.0
C1134 C 0.2678 0.03589 0.72796 0.0
C1135 C 0.2672 0.03223 0.77087 0.0
N1136 N 0.26669 0.00191 0.82922 0.0
N1137 N 0.2606 0.0153 0.66164 0.0
C1138 C 0.2699 0.00569 0.78815 0.0
C1139 C 0.2667 0.01254 0.70215 0.0
N1140 N 0.28245 0.95822 0.77731 0.0
N1141 N 0.26988 0.06168 0.71194 0.0
H1142 H 0.25939 -0.00124 0.6416 0.0
H1143 H 0.25457 0.03376 0.64851 0.0
H1144 H 0.27106 0.07922 0.73008 0.0
H1145 H 0.27314 0.06551 0.68104 0.0
H1146 H 0.28823 0.95535 0.8076 0.0
H1147 H 0.28613 0.94121 0.75882 0.0
H1148 H 0.2653 0.98264 0.84276 0.0
H1149 H 0.26304 0.0179 0.84957 0.0
C1150 C 0.98705 0.24062 0.77192 0.0
C1151 C 0.96838 0.2628 0.77167 0.0
C1152 C 0.99664 0.28634 0.72065 0.0
C1153 C 0.01283 0.26237 0.71667 0.0
N1154 N 0.01979 0.21448 0.733 0.0
N1155 N 0.95333 0.30562 0.74235 0.0
C1156 C 0.00719 0.23892 0.74096 0.0
C1157 C 0.97268 0.28552 0.74534 0.0
N1158 N 0.9859 0.22144 0.80229 0.0
N1159 N 0.00452 0.31005 0.70173 0.0
H1160 H 0.93544 0.30573 0.75972 0.0
H1161 H 0.95395 0.32101 0.72033 0.0
H1162 H 0.02211 0.31146 0.68379 0.0
H1163 H 0.99507 0.32886 0.70688 0.0
H1164 H 0.00073 0.20633 0.80614 0.0
H1165 H 0.97183 0.22243 0.82622 0.0
H1166 H 0.01421 0.19619 0.74719 0.0
H1167 H 0.03369 0.2117 0.70923 0.0
C1168 C 0.77194 0.49502 0.6958 0.0
C1169 C 0.77477 0.52197 0.71153 0.0
C1170 C 0.77749 0.50396 0.78115 0.0
C1171 C 0.77514 0.47698 0.76535 0.0
N1172 N 0.77735 0.4463 0.70788 0.0
N1173 N 0.78727 0.55178 0.76707 0.0
C1174 C 0.77472 0.47236 0.72266 0.0
C1175 C 0.77985 0.52631 0.75361 0.0
N1176 N 0.76497 0.49104 0.65583 0.0
N1177 N 0.77583 0.50843 0.82227 0.0
H1178 H 0.78943 0.56852 0.74748 0.0
H1179 H 0.79384 0.55571 0.79673 0.0
H1180 H 0.774 0.49268 0.84359 0.0
H1181 H 0.77415 0.52787 0.83513 0.0
H1182 H 0.75945 0.47203 0.64395 0.0
H1183 H 0.76259 0.50703 0.63503 0.0
H1184 H 0.77989 0.44185 0.67704 0.0
H1185 H 0.77971 0.42928 0.72687 0.0
C1186 C 0.50445 0.72837 0.76079 0.0
C1187 C 0.51683 0.75331 0.77335 0.0
C1188 C 0.483 0.77919 0.7339 0.0
C1189 C 0.47261 0.75419 0.71802 0.0
N1190 N 0.47777 0.70532 0.70907 0.0
N1191 N 0.52113 0.80238 0.76629 0.0
C1192 C 0.48458 0.72885 0.72936 0.0
C1193 C 0.50701 0.77876 0.75838 0.0
N1194 N 0.5107 0.70433 0.78011 0.0
N1195 N 0.46935 0.80319 0.72707 0.0
H1196 H 0.53901 0.80285 0.78363 0.0
H1197 H 0.51653 0.82108 0.75258 0.0
H1198 H 0.45145 0.80433 0.70983 0.0
H1199 H 0.47436 0.82153 0.74153 0.0
H1200 H 0.50015 0.6861 0.77485 0.0
H1201 H 0.52435 0.70313 0.80449 0.0
H1202 H 0.48799 0.68682 0.71341 0.0
H1203 H 0.46397 0.70486 0.68481 0.0
C1204 C 0.20996 0.47548 0.74771 0.0
C1205 C 0.21417 0.48052 0.70558 0.0
C1206 C 0.2103 0.52986 0.71752 0.0
C1207 C 0.21086 0.52492 0.76014 0.0
N1208 N 0.21376 0.49308 0.81648 0.0
N1209 N 0.22056 0.51247 0.65006 0.0
C1210 C 0.21097 0.49773 0.77554 0.0
C1211 C 0.21455 0.5077 0.69019 0.0
N1212 N 0.20466 0.44944 0.76096 0.0
N1213 N 0.20533 0.55571 0.70327 0.0
H1214 H 0.22387 0.49685 0.62895 0.0
H1215 H 0.22432 0.53195 0.63828 0.0
H1216 H 0.20182 0.57233 0.72262 0.0
H1217 H 0.20203 0.56016 0.67258 0.0
H1218 H 0.19878 0.44484 0.79075 0.0
H1219 H 0.20346 0.43272 0.74116 0.0
H1220 H 0.21723 0.47372 0.82884 0.0
H1221 H 0.21483 0.50873 0.83805 0.0
C1222 C 0.47914 0.21904 0.74817 0.0
C1223 C 0.46823 0.2443 0.76214 0.0
C1224 C 0.50066 0.26926 0.719 0.0
C1225 C 0.51405 0.2443 0.70966 0.0
N1226 N 0.51832 0.19545 0.71955 0.0
N1227 N 0.47257 0.2936 0.76746 0.0
C1228 C 0.50384 0.2191 0.72514 0.0
C1229 C 0.47996 0.2695 0.74924 0.0
N1230 N 0.46552 0.1951 0.75587 0.0
N1231 N 0.50721 0.29268 0.69822 0.0
H1232 H 0.45849 0.29478 0.7913 0.0
H1233 H 0.48263 0.31209 0.76196 0.0
H1234 H 0.52172 0.29317 0.67485 0.0
H1235 H 0.49617 0.31084 0.70109 0.0
H1236 H 0.47103 0.1764 0.74294 0.0
H1237 H 0.44718 0.19432 0.77214 0.0
H1238 H 0.51342 0.17708 0.73403 0.0
H1239 H 0.53659 0.19465 0.70313 0.0
C1240 C 0.2194 0.4927 0.19966 0.0
C1241 C 0.22271 0.51949 0.21577 0.0
C1242 C 0.22445 0.50109 0.2852 0.0
C1243 C 0.22073 0.47433 0.26915 0.0
N1244 N 0.20757 0.44525 0.21311 0.0
N1245 N 0.2209 0.55001 0.27349 0.0
C1246 C 0.21585 0.47036 0.22694 0.0
C1247 C 0.22278 0.52393 0.2585 0.0
N1248 N 0.22134 0.48831 0.15855 0.0
N1249 N 0.23128 0.50466 0.32531 0.0
H1250 H 0.21932 0.56718 0.25462 0.0
H1251 H 0.21817 0.55441 0.30432 0.0
H1252 H 0.23289 0.48854 0.34603 0.0
H1253 H 0.23744 0.52341 0.33741 0.0
H1254 H 0.22232 0.46886 0.14557 0.0
H1255 H 0.22411 0.50403 0.13742 0.0
H1256 H 0.20113 0.4417 0.18329 0.0
H1257 H 0.20455 0.42856 0.23254 0.0
C1258 C 0.51032 0.27155 0.26145 0.0
C1259 C 0.52376 0.24675 0.27166 0.0
C1260 C 0.49124 0.22117 0.22933 0.0
C1261 C 0.48029 0.24632 0.21503 0.0
N1262 N 0.48361 0.29571 0.21106 0.0
N1263 N 0.52999 0.19824 0.26009 0.0
C1264 C 0.49093 0.27162 0.22936 0.0
C1265 C 0.515 0.22155 0.25433 0.0
N1266 N 0.51539 0.29489 0.28327 0.0
N1267 N 0.47846 0.19698 0.22026 0.0
H1268 H 0.54781 0.19769 0.27754 0.0
H1269 H 0.52614 0.18003 0.24453 0.0
H1270 H 0.46071 0.19588 0.20267 0.0
H1271 H 0.48393 0.17834 0.2334 0.0
H1272 H 0.50412 0.31283 0.27962 0.0
H1273 H 0.52877 0.29548 0.30805 0.0
H1274 H 0.49296 0.31439 0.21774 0.0
H1275 H 0.47038 0.29673 0.18615 0.0
C1276 C 0.79241 0.53182 0.23945 0.0
C1277 C 0.7876 0.52733 0.28158 0.0
C1278 C 0.79058 0.4778 0.27095 0.0
C1279 C 0.79045 0.48228 0.22823 0.0
N1280 N 0.78959 0.51342 0.17097 0.0
N1281 N 0.78017 0.49611 0.33778 0.0
C1282 C 0.79138 0.50926 0.21214 0.0
C1283 C 0.78661 0.50034 0.29765 0.0
N1284 N 0.79821 0.55765 0.22574 0.0
N1285 N 0.79474 0.45197 0.28588 0.0
H1286 H 0.7771 0.512 0.35849 0.0
H1287 H 0.77588 0.47686 0.34995 0.0
H1288 H 0.79797 0.43508 0.26695 0.0
H1289 H 0.79767 0.44774 0.31671 0.0
H1290 H 0.80446 0.5619 0.19602 0.0
H1291 H 0.79936 0.57454 0.24522 0.0
H1292 H 0.78682 0.53266 0.15784 0.0
H1293 H 0.78888 0.49748 0.14984 0.0
C1294 C 0.50063 0.72777 0.27041 0.0
C1295 C 0.4852 0.75176 0.27827 0.0
C1296 C 0.51575 0.77803 0.23352 0.0
C1297 C 0.52855 0.75325 0.22134 0.0
N1298 N 0.529 0.70364 0.22208 0.0
N1299 N 0.47564 0.79926 0.26331 0.0
C1300 C 0.51997 0.72784 0.23823 0.0
C1301 C 0.49217 0.77688 0.25897 0.0
N1302 N 0.4973 0.70506 0.29437 0.0
N1303 N 0.52655 0.80266 0.22174 0.0
H1304 H 0.45806 0.79922 0.28136 0.0
H1305 H 0.47807 0.81715 0.24633 0.0
H1306 H 0.54401 0.80428 0.20354 0.0
H1307 H 0.51975 0.82139 0.23309 0.0
H1308 H 0.50997 0.68794 0.29243 0.0
H1309 H 0.48388 0.70448 0.31915 0.0
H1310 H 0.5211 0.68464 0.23068 0.0
H1311 H 0.54214 0.7025 0.19707 0.0
C1312 C 0.15459 0.13727 0.2224 0.0
C1313 C 0.18283 0.1326 0.23025 0.0
C1314 C 0.17483 0.14142 0.30249 0.0
C1315 C 0.14971 0.15415 0.2926 0.0
N1316 N 0.11103 0.1549 0.24701 0.0
N1317 N 0.22038 0.1318 0.27871 0.0
C1318 C 0.138 0.1491 0.25362 0.0
C1319 C 0.19307 0.13455 0.27068 0.0
N1320 N 0.14371 0.12959 0.1857 0.0
N1321 N 0.18081 0.13503 0.34202 0.0
H1322 H 0.23509 0.12822 0.25632 0.0
H1323 H 0.22874 0.13583 0.30736 0.0
H1324 H 0.16639 0.13715 0.36532 0.0
H1325 H 0.19822 0.12403 0.35035 0.0
H1326 H 0.12305 0.1309 0.17839 0.0
H1327 H 0.15522 0.11983 0.16317 0.0
H1328 H 0.10192 0.15545 0.21835 0.0
H1329 H 0.09741 0.15824 0.27102 0.0
C1330 C 0.84515 0.13756 0.21544 0.0
C1331 C 0.85527 0.16326 0.22931 0.0
C1332 C 0.84747 0.14863 0.29953 0.0
C1333 C 0.82978 0.12779 0.2852 0.0
N1334 N 0.82019 0.09568 0.23111 0.0
N1335 N 0.86609 0.19343 0.28593 0.0
C1336 C 0.83139 0.11992 0.24353 0.0
C1337 C 0.85718 0.16863 0.2718 0.0
N1338 N 0.84942 0.12996 0.17579 0.0
N1339 N 0.85502 0.14906 0.3396 0.0
H1340 H 0.87247 0.20938 0.26706 0.0
H1341 H 0.86488 0.19902 0.31657 0.0
H1342 H 0.84928 0.13344 0.35968 0.0
H1343 H 0.86951 0.16268 0.3512 0.0
H1344 H 0.84407 0.11097 0.16379 0.0
H1345 H 0.86046 0.1421 0.15532 0.0
H1346 H 0.81687 0.09045 0.20075 0.0
H1347 H 0.8153 0.0801 0.25165 0.0
C1348 C 0.86277 0.84803 0.26022 0.0
C1349 C 0.85019 0.82498 0.27889 0.0
C1350 C 0.80917 0.83129 0.23725 0.0
C1351 C 0.82256 0.85284 0.21613 0.0
N1352 N 0.8626 0.88044 0.20382 0.0
N1353 N 0.81405 0.79108 0.27967 0.0
C1354 C 0.84954 0.86091 0.22658 0.0
C1355 C 0.82406 0.81566 0.26601 0.0
N1356 N 0.88688 0.85794 0.27539 0.0
N1357 N 0.78207 0.82595 0.23014 0.0
H1358 H 0.82453 0.77852 0.30012 0.0
H1359 H 0.79659 0.78177 0.26778 0.0
H1360 H 0.77046 0.83653 0.20858 0.0
H1361 H 0.77043 0.81265 0.24799 0.0
H1362 H 0.89581 0.87624 0.26588 0.0
H1363 H 0.89713 0.84872 0.2997 0.0
H1364 H 0.88326 0.88527 0.20698 0.0
H1365 H 0.85304 0.8908 0.1799 0.0
C1366 C 0.16197 0.85136 0.27189 0.0
C1367 C 0.18744 0.84033 0.28446 0.0
C1368 C 0.18123 0.80089 0.23957 0.0
C1369 C 0.157 0.81303 0.22417 0.0
N1370 N 0.12502 0.8505 0.22219 0.0
N1371 N 0.22401 0.80762 0.27514 0.0
C1372 C 0.14745 0.83846 0.23945 0.0
C1373 C 0.19782 0.81591 0.26692 0.0
N1374 N 0.15149 0.87369 0.29159 0.0
N1375 N 0.18795 0.77461 0.22898 0.0
H1376 H 0.23709 0.81812 0.29488 0.0
H1377 H 0.23371 0.79177 0.25956 0.0
H1378 H 0.17631 0.76275 0.20896 0.0
H1379 H 0.20364 0.76361 0.2429 0.0
H1380 H 0.13183 0.88118 0.28676 0.0
H1381 H 0.16195 0.88377 0.31496 0.0
H1382 H 0.11856 0.8703 0.22896 0.0
H1383 H 0.11371 0.84118 0.199 0.0
C1384 C 0.81047 0.81554 0.71225 0.0
C1385 C 0.8373 0.82411 0.70143 0.0
C1386 C 0.83565 0.86028 0.75329 0.0
C1387 C 0.80829 0.85262 0.76216 0.0
N1388 N 0.76757 0.82708 0.74488 0.0
N1389 N 0.87419 0.85677 0.70667 0.0
C1390 C 0.79502 0.83162 0.73981 0.0
C1391 C 0.84959 0.84714 0.72054 0.0
N1392 N 0.80035 0.7911 0.69826 0.0
N1393 N 0.8484 0.87958 0.7768 0.0
H1394 H 0.88486 0.84753 0.68277 0.0
H1395 H 0.88305 0.875 0.7166 0.0
H1396 H 0.83832 0.89022 0.79998 0.0
H1397 H 0.86922 0.88399 0.77494 0.0
H1398 H 0.78223 0.78237 0.70891 0.0
H1399 H 0.81123 0.77806 0.67898 0.0
H1400 H 0.7562 0.81411 0.72616 0.0
H1401 H 0.75556 0.83812 0.76543 0.0
C1402 C 0.17907 0.86509 0.76871 0.0
C1403 C 0.17445 0.86242 0.72603 0.0
C1404 C 0.13875 0.82836 0.73923 0.0
C1405 C 0.14263 0.83172 0.78198 0.0
N1406 N 0.15869 0.86148 0.83577 0.0
N1407 N 0.14221 0.85026 0.67327 0.0
C1408 C 0.16015 0.85292 0.79616 0.0
C1409 C 0.15158 0.84709 0.71223 0.0
N1410 N 0.20225 0.87721 0.78356 0.0
N1411 N 0.12494 0.80634 0.72369 0.0
H1412 H 0.15053 0.86471 0.65327 0.0
H1413 H 0.12428 0.84099 0.66283 0.0
H1414 H 0.11685 0.79056 0.74132 0.0
H1415 H 0.12419 0.80216 0.69251 0.0
H1416 H 0.20737 0.87681 0.81443 0.0
H1417 H 0.21774 0.88524 0.76536 0.0
H1418 H 0.16961 0.87833 0.84665 0.0
H1419 H 0.14412 0.85384 0.85616 0.0
C1420 C 0.1405 0.14891 0.71519 0.0
C1421 C 0.13358 0.17658 0.7242 0.0
C1422 C 0.13989 0.16683 0.79652 0.0
C1423 C 0.15499 0.14308 0.78639 0.0
N1424 N 0.16146 0.10644 0.73797 0.0
N1425 N 0.12882 0.21254 0.77499 0.0
C1426 C 0.15269 0.13239 0.74619 0.0
C1427 C 0.1333 0.18566 0.76537 0.0
N1428 N 0.1344 0.13829 0.67766 0.0
N1429 N 0.13133 0.17105 0.83564 0.0
H1430 H 0.12588 0.22788 0.75335 0.0
H1431 H 0.13102 0.22006 0.80458 0.0
H1432 H 0.13369 0.15612 0.85819 0.0
H1433 H 0.11868 0.18733 0.84388 0.0
H1434 H 0.13708 0.11782 0.6698 0.0
H1435 H 0.12424 0.14953 0.65524 0.0
H1436 H 0.16441 0.09885 0.70862 0.0
H1437 H 0.16499 0.09213 0.761 0.0
C1438 C 0.85246 0.17015 0.71942 0.0
C1439 C 0.85113 0.16326 0.76153 0.0
C1440 C 0.82914 0.11943 0.74431 0.0
C1441 C 0.82707 0.1286 0.7033 0.0
N1442 N 0.85171 0.1524 0.65054 0.0
N1443 N 0.84748 0.12772 0.81233 0.0
C1444 C 0.84392 0.15051 0.69042 0.0
C1445 C 0.84239 0.13661 0.7735 0.0
N1446 N 0.85951 0.19593 0.70685 0.0
N1447 N 0.81888 0.09441 0.75499 0.0
H1448 H 0.85826 0.13953 0.83347 0.0
H1449 H 0.84317 0.10804 0.82275 0.0
H1450 H 0.81414 0.07953 0.73327 0.0
H1451 H 0.81604 0.08799 0.78498 0.0
H1452 H 0.85789 0.20221 0.67654 0.0
H1453 H 0.86441 0.21188 0.72662 0.0
H1454 H 0.86561 0.16704 0.64005 0.0
H1455 H 0.84693 0.13706 0.62949 0.0
C1456 C 0.65161 0.63563 0.73074 0.0
C1457 C 0.67842 0.64426 0.72025 0.0
C1458 C 0.67558 0.68229 0.76848 0.0
C1459 C 0.64956 0.67259 0.78134 0.0
N1460 N 0.61391 0.63844 0.77903 0.0
N1461 N 0.71821 0.67214 0.73417 0.0
C1462 C 0.6378 0.64879 0.76364 0.0
C1463 C 0.69112 0.66643 0.74078 0.0
N1464 N 0.63922 0.61535 0.70866 0.0
N1465 N 0.68484 0.70742 0.78101 0.0
H1466 H 0.73033 0.66121 0.71362 0.0
H1467 H 0.72933 0.68606 0.75167 0.0
H1468 H 0.67381 0.72022 0.80047 0.0
H1469 H 0.7022 0.71685 0.76898 0.0
H1470 H 0.61869 0.61003 0.71179 0.0
H1471 H 0.64923 0.60481 0.68531 0.0
H1472 H 0.60561 0.61969 0.77025 0.0
H1473 H 0.60328 0.64778 0.80288 0.0
C1474 C 0.32916 0.6403 0.75694 0.0
C1475 C 0.30356 0.65046 0.77055 0.0
C1476 C 0.30952 0.69196 0.72978 0.0
C1477 C 0.33402 0.68093 0.71342 0.0
N1478 N 0.36595 0.64358 0.70716 0.0
N1479 N 0.26651 0.68283 0.76364 0.0
C1480 C 0.3436 0.65479 0.72586 0.0
C1481 C 0.2929 0.67538 0.7551 0.0
N1482 N 0.3399 0.61729 0.77447 0.0
N1483 N 0.30272 0.71874 0.72257 0.0
H1484 H 0.25342 0.67111 0.78183 0.0
H1485 H 0.25671 0.69924 0.74953 0.0
H1486 H 0.31466 0.73192 0.70488 0.0
H1487 H 0.2867 0.72868 0.73741 0.0
H1488 H 0.35972 0.61038 0.76907 0.0
H1489 H 0.32946 0.60598 0.79661 0.0
H1490 H 0.37237 0.62349 0.71182 0.0
H1491 H 0.37709 0.65386 0.68467 0.0
C1492 C 0.35475 0.35281 0.75938 0.0
C1493 C 0.34065 0.33124 0.77953 0.0
C1494 C 0.29871 0.34228 0.74234 0.0
C1495 C 0.31355 0.36169 0.71892 0.0
N1496 N 0.35578 0.38453 0.70216 0.0
N1497 N 0.30096 0.30164 0.7842 0.0
C1498 C 0.34163 0.3668 0.72665 0.0
C1499 C 0.31301 0.32506 0.76969 0.0
N1500 N 0.38032 0.36025 0.77221 0.0
N1501 N 0.27092 0.34011 0.73821 0.0
H1502 H 0.31093 0.28763 0.80305 0.0
H1503 H 0.282 0.29454 0.77422 0.0
H1504 H 0.25963 0.35172 0.71749 0.0
H1505 H 0.25871 0.32854 0.75782 0.0
H1506 H 0.39071 0.37743 0.76142 0.0
H1507 H 0.39039 0.35033 0.79607 0.0
H1508 H 0.37694 0.38696 0.7032 0.0
H1509 H 0.34636 0.39586 0.67909 0.0
C1510 C 0.64529 0.36302 0.71925 0.0
C1511 C 0.63577 0.33676 0.73175 0.0
C1512 C 0.64202 0.35043 0.80269 0.0
C1513 C 0.65962 0.37171 0.7897 0.0
N1514 N 0.66925 0.40507 0.7374 0.0
N1515 N 0.62517 0.3053 0.78714 0.0
C1516 C 0.65835 0.38038 0.7484 0.0
C1517 C 0.63336 0.33061 0.77401 0.0
N1518 N 0.64122 0.37134 0.67988 0.0
N1519 N 0.6337 0.3493 0.8424 0.0
H1520 H 0.61984 0.2893 0.76773 0.0
H1521 H 0.62607 0.2994 0.81769 0.0
H1522 H 0.63872 0.36477 0.86313 0.0
H1523 H 0.61925 0.33523 0.85296 0.0
H1524 H 0.64626 0.39069 0.66886 0.0
H1525 H 0.63059 0.35939 0.65873 0.0
H1526 H 0.67257 0.41113 0.70736 0.0
H1527 H 0.67403 0.42007 0.75891 0.0
C1528 C 0.32064 0.31492 0.21555 0.0
C1529 C 0.34681 0.32405 0.20243 0.0
C1530 C 0.34545 0.36154 0.25221 0.0
C1531 C 0.31849 0.35349 0.26288 0.0
N1532 N 0.27823 0.32609 0.24967 0.0
N1533 N 0.38304 0.3576 0.20392 0.0
C1534 C 0.30538 0.33135 0.24282 0.0
C1535 C 0.35899 0.34782 0.21958 0.0
N1536 N 0.31101 0.28974 0.2039 0.0
N1537 N 0.35817 0.38183 0.27382 0.0
H1538 H 0.39344 0.34788 0.18018 0.0
H1539 H 0.3917 0.37627 0.21233 0.0
H1540 H 0.34833 0.39278 0.29691 0.0
H1541 H 0.37879 0.38677 0.27057 0.0
H1542 H 0.2935 0.28077 0.21625 0.0
H1543 H 0.32185 0.27643 0.18499 0.0
H1544 H 0.26685 0.31227 0.23235 0.0
H1545 H 0.26634 0.3372 0.27028 0.0
C1546 C 0.66813 0.35666 0.28843 0.0
C1547 C 0.65171 0.33541 0.27191 0.0
C1548 C 0.66138 0.35352 0.2039 0.0
C1549 C 0.68395 0.36836 0.21982 0.0
N1550 N 0.70945 0.38291 0.27995 0.0
N1551 N 0.63385 0.31287 0.21124 0.0
C1552 C 0.68726 0.37026 0.2629 0.0
C1553 C 0.64801 0.33391 0.22891 0.0
N1554 N 0.66557 0.36363 0.3286 0.0
N1555 N 0.65303 0.35793 0.16469 0.0
H1556 H 0.62438 0.29715 0.22736 0.0
H1557 H 0.63354 0.30972 0.17978 0.0
H1558 H 0.66203 0.37288 0.14621 0.0
H1559 H 0.63535 0.34914 0.15257 0.0
H1560 H 0.67555 0.38046 0.3414 0.0
H1561 H 0.65099 0.35454 0.34762 0.0
H1562 H 0.71387 0.38163 0.311 0.0
H1563 H 0.72472 0.39282 0.26352 0.0
C1564 C 0.70037 0.66341 0.24022 0.0
C1565 C 0.68593 0.64412 0.26439 0.0
C1566 C 0.64466 0.65111 0.22326 0.0
C1567 C 0.6583 0.67255 0.20215 0.0
N1568 N 0.69734 0.70284 0.19588 0.0
N1569 N 0.64417 0.62063 0.28193 0.0
C1570 C 0.68577 0.67958 0.21176 0.0
C1571 C 0.658 0.63817 0.25672 0.0
N1572 N 0.72807 0.66643 0.24464 0.0
N1573 N 0.61934 0.64272 0.21061 0.0
H1574 H 0.65374 0.61 0.30559 0.0
H1575 H 0.62307 0.61773 0.28091 0.0
H1576 H 0.60912 0.65179 0.18615 0.0
H1577 H 0.60936 0.62551 0.22213 0.0
H1578 H 0.74011 0.67787 0.22464 0.0
H1579 H 0.73949 0.65567 0.26619 0.0
H1580 H 0.71611 0.71065 0.20552 0.0
H1581 H 0.68716 0.71602 0.176 0.0
C1582 C 0.35409 0.65002 0.19215 0.0
C1583 C 0.33682 0.62787 0.20301 0.0
C1584 C 0.35155 0.63359 0.27416 0.0
C1585 C 0.36122 0.66029 0.26418 0.0
N1586 N 0.36998 0.69468 0.21217 0.0
N1587 N 0.32673 0.59286 0.25296 0.0
C1588 C 0.3626 0.66859 0.22269 0.0
C1589 C 0.33798 0.6177 0.24367 0.0
N1590 N 0.36278 0.65294 0.15281 0.0
N1591 N 0.35637 0.62318 0.31223 0.0
H1592 H 0.3224 0.57823 0.23071 0.0
H1593 H 0.32272 0.58631 0.2826 0.0
H1594 H 0.36737 0.6339 0.33437 0.0
H1595 H 0.35175 0.60319 0.3209 0.0
H1596 H 0.37697 0.66778 0.14394 0.0
H1597 H 0.35863 0.63814 0.13064 0.0
H1598 H 0.36856 0.70199 0.18234 0.0
H1599 H 0.37477 0.7099 0.23327 0.0
loop_
_geom_bond_atom_site_label_1
_geom_bond_atom_site_label_2
_geom_bond_distance
_geom_bond_site_symmetry_2
_ccdc_geom_bond_type
Zn0 O3 2.031 . S
Zn0 O5 2.049 . S
Zn0 O10 2.067 . S
Zn1 O2 1.962 . S
Zn1 O4 1.986 . S
Zn1 O6 1.996 . S
Zn1 O9 1.943 . S
O2 Zn1 1.962 . S
O2 C7 1.254 . S
O3 Zn0 2.031 . S
O3 C7 1.269 . S
O4 Zn1 1.986 . S
O4 C11 1.262 . S
O5 Zn0 2.049 . S
O5 C13 1.260 . S
O6 Zn1 1.996 . S
O6 C13 1.257 . S
C7 O2 1.254 . S
C7 O3 1.269 . S
C8 O9 1.249 . S
C8 O10 1.270 . S
O9 Zn1 1.943 . S
O9 C8 1.249 . S
O10 Zn0 2.067 . S
O10 C8 1.270 . S
C11 O4 1.262 . S
C11 O12 1.232 . S
O12 C11 1.232 . S
C13 O5 1.260 . S
C13 O6 1.257 . S
Zn14 O17 2.031 . S
Zn14 O19 2.049 . S
Zn14 O24 2.067 . S
Zn15 O16 1.962 . S
Zn15 O18 1.986 . S
Zn15 O20 1.996 . S
Zn15 O23 1.943 . S
O16 Zn15 1.962 . S
O16 C21 1.254 . S
O17 Zn14 2.031 . S
O17 C21 1.269 . S
O18 Zn15 1.986 . S
O18 C25 1.262 . S
O19 Zn14 2.049 . S
O19 C27 1.260 . S
O20 Zn15 1.996 . S
O20 C27 1.257 . S
C21 O16 1.254 . S
C21 O17 1.269 . S
C22 O23 1.249 . S
C22 O24 1.270 . S
O23 Zn15 1.943 . S
O23 C22 1.249 . S
O24 Zn14 2.067 . S
O24 C22 1.270 . S
C25 O18 1.262 . S
C25 O26 1.232 . S
O26 C25 1.232 . S
C27 O19 1.260 . S
C27 O20 1.257 . S
Zn28 O31 2.031 . S
Zn28 O33 2.049 . S
Zn28 O38 2.067 . S
Zn29 O30 1.962 . S
Zn29 O32 1.986 . S
Zn29 O34 1.996 . S
Zn29 O37 1.943 . S
O30 Zn29 1.962 . S
O30 C35 1.254 . S
O31 Zn28 2.031 . S
O31 C35 1.269 . S
O32 Zn29 1.986 . S
O32 C39 1.262 . S
O33 Zn28 2.049 . S
O33 C41 1.260 . S
O34 Zn29 1.996 . S
O34 C41 1.257 . S
C35 O30 1.254 . S
C35 O31 1.269 . S
C36 O37 1.249 . S
C36 O38 1.270 . S
O37 Zn29 1.943 . S
O37 C36 1.249 . S
O38 Zn28 2.067 . S
O38 C36 1.270 . S
C39 O32 1.262 . S
C39 O40 1.232 . S
O40 C39 1.232 . S
C41 O33 1.260 . S
C41 O34 1.257 . S
Zn42 O45 2.031 . S
Zn42 O47 2.049 . S
Zn42 O52 2.067 . S
Zn43 O44 1.962 . S
Zn43 O46 1.986 . S
Zn43 O48 1.996 . S
Zn43 O51 1.943 . S
O44 Zn43 1.962 . S
O44 C49 1.254 . S
O45 Zn42 2.031 . S
O45 C49 1.269 . S
O46 Zn43 1.986 . S
O46 C53 1.262 . S
O47 Zn42 2.049 . S
O47 C55 1.260 . S
O48 Zn43 1.996 . S
O48 C55 1.257 . S
C49 O44 1.254 . S
C49 O45 1.269 . S
C50 O51 1.249 . S
C50 O52 1.270 . S
O51 Zn43 1.943 . S
O51 C50 1.249 . S
O52 Zn42 2.067 . S
O52 C50 1.270 . S
C53 O46 1.262 . S
C53 O54 1.232 . S
O54 C53 1.232 . S
C55 O47 1.260 . S
C55 O48 1.257 . S
Zn56 O59 2.031 . S
Zn56 O61 2.049 . S
Zn56 O66 2.067 . S
Zn57 O58 1.962 . S
Zn57 O60 1.986 . S
Zn57 O62 1.996 . S
Zn57 O65 1.943 . S
O58 Zn57 1.962 . S
O58 C63 1.254 . S
O59 Zn56 2.031 . S
O59 C63 1.269 . S
O60 Zn57 1.986 . S
O60 C67 1.262 . S
O61 Zn56 2.049 . S
O61 C69 1.260 . S
O62 Zn57 1.996 . S
O62 C69 1.257 . S
C63 O58 1.254 . S
C63 O59 1.269 . S
C64 O65 1.249 . S
C64 O66 1.270 . S
O65 Zn57 1.943 . S
O65 C64 1.249 . S
O66 Zn56 2.067 . S
O66 C64 1.270 . S
C67 O60 1.262 . S
C67 O68 1.232 . S
O68 C67 1.232 . S
C69 O61 1.260 . S
C69 O62 1.257 . S
Zn70 O73 2.031 . S
Zn70 O75 2.049 . S
Zn70 O80 2.067 . S
Zn71 O72 1.962 . S
Zn71 O74 1.986 . S
Zn71 O76 1.996 . S
Zn71 O79 1.943 . S
O72 Zn71 1.962 . S
O72 C77 1.254 . S
O73 Zn70 2.031 . S
O73 C77 1.269 . S
O74 Zn71 1.986 . S
O74 C81 1.262 . S
O75 Zn70 2.049 . S
O75 C83 1.260 . S
O76 Zn71 1.996 . S
O76 C83 1.257 . S
C77 O72 1.254 . S
C77 O73 1.269 . S
C78 O79 1.249 . S
C78 O80 1.270 . S
O79 Zn71 1.943 . S
O79 C78 1.249 . S
O80 Zn70 2.067 . S
O80 C78 1.270 . S
C81 O74 1.262 . S
C81 O82 1.232 . S
O82 C81 1.232 . S
C83 O75 1.260 . S
C83 O76 1.257 . S
Zn84 O87 2.031 . S
Zn84 O89 2.049 . S
Zn84 O94 2.067 . S
Zn85 O86 1.962 . S
Zn85 O88 1.986 . S
Zn85 O90 1.996 . S
Zn85 O93 1.943 . S
O86 Zn85 1.962 . S
O86 C91 1.254 . S
O87 Zn84 2.031 . S
O87 C91 1.269 . S
O88 Zn85 1.986 . S
O88 C95 1.262 . S
O89 Zn84 2.049 . S
O89 C97 1.260 . S
O90 Zn85 1.996 . S
O90 C97 1.257 . S
C91 O86 1.254 . S
C91 O87 1.269 . S
C92 O93 1.249 . S
C92 O94 1.270 . S
O93 Zn85 1.943 . S
O93 C92 1.249 . S
O94 Zn84 2.067 . S
O94 C92 1.270 . S
C95 O88 1.262 . S
C95 O96 1.232 . S
O96 C95 1.232 . S
C97 O89 1.260 . S
C97 O90 1.257 . S
Zn98 O101 2.031 . S
Zn98 O103 2.049 . S
Zn98 O108 2.067 . S
Zn99 O100 1.962 . S
Zn99 O102 1.986 . S
Zn99 O104 1.996 . S
Zn99 O107 1.943 . S
O100 Zn99 1.962 . S
O100 C105 1.254 . S
O101 Zn98 2.031 . S
O101 C105 1.269 . S
O102 Zn99 1.986 . S
O102 C109 1.262 . S
O103 Zn98 2.049 . S
O103 C111 1.260 . S
O104 Zn99 1.996 . S
O104 C111 1.257 . S
C105 O100 1.254 . S
C105 O101 1.269 . S
C106 O107 1.249 . S
C106 O108 1.270 . S
O107 Zn99 1.943 . S
O107 C106 1.249 . S
O108 Zn98 2.067 . S
O108 C106 1.270 . S
C109 O102 1.262 . S
C109 O110 1.232 . S
O110 C109 1.232 . S
C111 O103 1.260 . S
C111 O104 1.257 . S
Zn112 O115 2.031 . S
Zn112 O117 2.049 . S
Zn112 O122 2.067 . S
Zn113 O114 1.962 . S
Zn113 O116 1.986 . S
Zn113 O118 1.996 . S
Zn113 O121 1.943 . S
O114 Zn113 1.962 . S
O114 C119 1.254 . S
O115 Zn112 2.031 . S
O115 C119 1.269 . S
O116 Zn113 1.986 . S
O116 C123 1.262 . S
O117 Zn112 2.049 . S
O117 C125 1.260 . S
O118 Zn113 1.996 . S
O118 C125 1.257 . S
C119 O114 1.254 . S
C119 O115 1.269 . S
C120 O121 1.249 . S
C120 O122 1.270 . S
O121 Zn113 1.943 . S
O121 C120 1.249 . S
O122 Zn112 2.067 . S
O122 C120 1.270 . S
C123 O116 1.262 . S
C123 O124 1.232 . S
O124 C123 1.232 . S
C125 O117 1.260 . S
C125 O118 1.257 . S
Zn126 O129 2.031 . S
Zn126 O131 2.049 . S
Zn126 O136 2.067 . S
Zn127 O128 1.962 . S
Zn127 O130 1.986 . S
Zn127 O132 1.996 . S
Zn127 O135 1.943 . S
O128 Zn127 1.962 . S
O128 C133 1.254 . S
O129 Zn126 2.031 . S
O129 C133 1.269 . S
O130 Zn127 1.986 . S
O130 C137 1.262 . S
O131 Zn126 2.049 . S
O131 C139 1.260 . S
O132 Zn127 1.996 . S
O132 C139 1.257 . S
C133 O128 1.254 . S
C133 O129 1.269 . S
C134 O135 1.249 . S
C134 O136 1.270 . S
O135 Zn127 1.943 . S
O135 C134 1.249 . S
O136 Zn126 2.067 . S
O136 C134 1.270 . S
C137 O130 1.262 . S
C137 O138 1.232 . S
O138 C137 1.232 . S
C139 O131 1.260 . S
C139 O132 1.257 . S
Zn140 O143 2.031 . S
Zn140 O145 2.049 . S
Zn140 O150 2.067 . S
Zn141 O142 1.962 . S
Zn141 O144 1.986 . S
Zn141 O146 1.996 . S
Zn141 O149 1.943 . S
O142 Zn141 1.962 . S
O142 C147 1.254 . S
O143 Zn140 2.031 . S
O143 C147 1.269 . S
O144 Zn141 1.986 . S
O144 C151 1.262 . S
O145 Zn140 2.049 . S
O145 C153 1.260 . S
O146 Zn141 1.996 . S
O146 C153 1.257 . S
C147 O142 1.254 . S
C147 O143 1.269 . S
C148 O149 1.249 . S
C148 O150 1.270 . S
O149 Zn141 1.943 . S
O149 C148 1.249 . S
O150 Zn140 2.067 . S
O150 C148 1.270 . S
C151 O144 1.262 . S
C151 O152 1.232 . S
O152 C151 1.232 . S
C153 O145 1.260 . S
C153 O146 1.257 . S
Zn154 O157 2.031 . S
Zn154 O159 2.049 . S
Zn154 O164 2.067 . S
Zn155 O156 1.962 . S
Zn155 O158 1.986 . S
Zn155 O160 1.996 . S
Zn155 O163 1.943 . S
O156 Zn155 1.962 . S
O156 C161 1.254 . S
O157 Zn154 2.031 . S
O157 C161 1.269 . S
O158 Zn155 1.986 . S
O158 C165 1.262 . S
O159 Zn154 2.049 . S
O159 C167 1.260 . S
O160 Zn155 1.996 . S
O160 C167 1.257 . S
C161 O156 1.254 . S
C161 O157 1.269 . S
C162 O163 1.249 . S
C162 O164 1.270 . S
O163 Zn155 1.943 . S
O163 C162 1.249 . S
O164 Zn154 2.067 . S
O164 C162 1.270 . S
C165 O158 1.262 . S
C165 O166 1.232 . S
O166 C165 1.232 . S
C167 O159 1.260 . S
C167 O160 1.257 . S
Zn168 O171 2.031 . S
Zn168 O173 2.049 . S
Zn168 O178 2.067 . S
Zn169 O170 1.962 . S
Zn169 O172 1.986 . S
Zn169 O174 1.996 . S
Zn169 O177 1.943 . S
O170 Zn169 1.962 . S
O170 C175 1.254 . S
O171 Zn168 2.031 . S
O171 C175 1.269 . S
O172 Zn169 1.986 . S
O172 C179 1.262 . S
O173 Zn168 2.049 . S
O173 C181 1.260 . S
O174 Zn169 1.996 . S
O174 C181 1.257 . S
C175 O170 1.254 . S
C175 O171 1.269 . S
C176 O177 1.249 . S
C176 O178 1.270 . S
O177 Zn169 1.943 . S
O177 C176 1.249 . S
O178 Zn168 2.067 . S
O178 C176 1.270 . S
C179 O172 1.262 . S
C179 O180 1.232 . S
O180 C179 1.232 . S
C181 O173 1.260 . S
C181 O174 1.257 . S
Zn182 O185 2.031 . S
Zn182 O187 2.049 . S
Zn182 O192 2.067 . S
Zn183 O184 1.962 . S
Zn183 O186 1.986 . S
Zn183 O188 1.996 . S
Zn183 O191 1.943 . S
O184 Zn183 1.962 . S
O184 C189 1.254 . S
O185 Zn182 2.031 . S
O185 C189 1.269 . S
O186 Zn183 1.986 . S
O186 C193 1.262 . S
O187 Zn182 2.049 . S
O187 C195 1.260 . S
O188 Zn183 1.996 . S
O188 C195 1.257 . S
C189 O184 1.254 . S
C189 O185 1.269 . S
C190 O191 1.249 . S
C190 O192 1.270 . S
O191 Zn183 1.943 . S
O191 C190 1.249 . S
O192 Zn182 2.067 . S
O192 C190 1.270 . S
C193 O186 1.262 . S
C193 O194 1.232 . S
O194 C193 1.232 . S
C195 O187 1.260 . S
C195 O188 1.257 . S
Zn196 O199 2.031 . S
Zn196 O201 2.049 . S
Zn196 O206 2.067 . S
Zn197 O198 1.962 . S
Zn197 O200 1.986 . S
Zn197 O202 1.996 . S
Zn197 O205 1.943 . S
O198 Zn197 1.962 . S
O198 C203 1.254 . S
O199 Zn196 2.031 . S
O199 C203 1.269 . S
O200 Zn197 1.986 . S
O200 C207 1.262 . S
O201 Zn196 2.049 . S
O201 C209 1.260 . S
O202 Zn197 1.996 . S
O202 C209 1.257 . S
C203 O198 1.254 . S
C203 O199 1.269 . S
C204 O205 1.249 . S
C204 O206 1.270 . S
O205 Zn197 1.943 . S
O205 C204 1.249 . S
O206 Zn196 2.067 . S
O206 C204 1.270 . S
C207 O200 1.262 . S
C207 O208 1.232 . S
O208 C207 1.232 . S
C209 O201 1.260 . S
C209 O202 1.257 . S
Zn210 O213 2.031 . S
Zn210 O215 2.049 . S
Zn210 O220 2.067 . S
Zn211 O212 1.962 . S
Zn211 O214 1.986 . S
Zn211 O216 1.996 . S
Zn211 O219 1.943 . S
O212 Zn211 1.962 . S
O212 C217 1.254 . S
O213 Zn210 2.031 . S
O213 C217 1.269 . S
O214 Zn211 1.986 . S
O214 C221 1.262 . S
O215 Zn210 2.049 . S
O215 C223 1.260 . S
O216 Zn211 1.996 . S
O216 C223 1.257 . S
C217 O212 1.254 . S
C217 O213 1.269 . S
C218 O219 1.249 . S
C218 O220 1.270 . S
O219 Zn211 1.943 . S
O219 C218 1.249 . S
O220 Zn210 2.067 . S
O220 C218 1.270 . S
C221 O214 1.262 . S
C221 O222 1.232 . S
O222 C221 1.232 . S
C223 O215 1.260 . S
C223 O216 1.257 . S
Zn224 O227 2.031 . S
Zn224 O229 2.049 . S
Zn224 O234 2.067 . S
Zn225 O226 1.962 . S
Zn225 O228 1.986 . S
Zn225 O230 1.996 . S
Zn225 O233 1.943 . S
O226 Zn225 1.962 . S
O226 C231 1.254 . S
O227 Zn224 2.031 . S
O227 C231 1.269 . S
O228 Zn225 1.986 . S
O228 C235 1.262 . S
O229 Zn224 2.049 . S
O229 C237 1.260 . S
O230 Zn225 1.996 . S
O230 C237 1.257 . S
C231 O226 1.254 . S
C231 O227 1.269 . S
C232 O233 1.249 . S
C232 O234 1.270 . S
O233 Zn225 1.943 . S
O233 C232 1.249 . S
O234 Zn224 2.067 . S
O234 C232 1.270 . S
C235 O228 1.262 . S
C235 O236 1.232 . S
O236 C235 1.232 . S
C237 O229 1.260 . S
C237 O230 1.257 . S
Zn238 O241 2.031 . S
Zn238 O243 2.049 . S
Zn238 O248 2.067 . S
Zn239 O240 1.962 . S
Zn239 O242 1.986 . S
Zn239 O244 1.996 . S
Zn239 O247 1.943 . S
O240 Zn239 1.962 . S
O240 C245 1.254 . S
O241 Zn238 2.031 . S
O241 C245 1.269 . S
O242 Zn239 1.986 . S
O242 C249 1.262 . S
O243 Zn238 2.049 . S
O243 C251 1.260 . S
O244 Zn239 1.996 . S
O244 C251 1.257 . S
C245 O240 1.254 . S
C245 O241 1.269 . S
C246 O247 1.249 . S
C246 O248 1.270 . S
O247 Zn239 1.943 . S
O247 C246 1.249 . S
O248 Zn238 2.067 . S
O248 C246 1.270 . S
C249 O242 1.262 . S
C249 O250 1.232 . S
O250 C249 1.232 . S
C251 O243 1.260 . S
C251 O244 1.257 . S
Zn252 O255 2.031 . S
Zn252 O257 2.049 . S
Zn252 O262 2.067 . S
Zn253 O254 1.962 . S
Zn253 O256 1.986 . S
Zn253 O258 1.996 . S
Zn253 O261 1.943 . S
O254 Zn253 1.962 . S
O254 C259 1.254 . S
O255 Zn252 2.031 . S
O255 C259 1.269 . S
O256 Zn253 1.986 . S
O256 C263 1.262 . S
O257 Zn252 2.049 . S
O257 C265 1.260 . S
O258 Zn253 1.996 . S
O258 C265 1.257 . S
C259 O254 1.254 . S
C259 O255 1.269 . S
C260 O261 1.249 . S
C260 O262 1.270 . S
O261 Zn253 1.943 . S
O261 C260 1.249 . S
O262 Zn252 2.067 . S
O262 C260 1.270 . S
C263 O256 1.262 . S
C263 O264 1.232 . S
O264 C263 1.232 . S
C265 O257 1.260 . S
C265 O258 1.257 . S
Zn266 O269 2.031 . S
Zn266 O271 2.049 . S
Zn266 O276 2.067 . S
Zn267 O268 1.962 . S
Zn267 O270 1.986 . S
Zn267 O272 1.996 . S
Zn267 O275 1.943 . S
O268 Zn267 1.962 . S
O268 C273 1.254 . S
O269 Zn266 2.031 . S
O269 C273 1.269 . S
O270 Zn267 1.986 . S
O270 C277 1.262 . S
O271 Zn266 2.049 . S
O271 C279 1.260 . S
O272 Zn267 1.996 . S
O272 C279 1.257 . S
C273 O268 1.254 . S
C273 O269 1.269 . S
C274 O275 1.249 . S
C274 O276 1.270 . S
O275 Zn267 1.943 . S
O275 C274 1.249 . S
O276 Zn266 2.067 . S
O276 C274 1.270 . S
C277 O270 1.262 . S
C277 O278 1.232 . S
O278 C277 1.232 . S
C279 O271 1.260 . S
C279 O272 1.257 . S
Zn280 O283 2.031 . S
Zn280 O285 2.049 . S
Zn280 O290 2.067 . S
Zn281 O282 1.962 . S
Zn281 O284 1.986 . S
Zn281 O286 1.996 . S
Zn281 O289 1.943 . S
O282 Zn281 1.962 . S
O282 C287 1.254 . S
O283 Zn280 2.031 . S
O283 C287 1.269 . S
O284 Zn281 1.986 . S
O284 C291 1.262 . S
O285 Zn280 2.049 . S
O285 C293 1.260 . S
O286 Zn281 1.996 . S
O286 C293 1.257 . S
C287 O282 1.254 . S
C287 O283 1.269 . S
C288 O289 1.249 . S
C288 O290 1.270 . S
O289 Zn281 1.943 . S
O289 C288 1.249 . S
O290 Zn280 2.067 . S
O290 C288 1.270 . S
C291 O284 1.262 . S
C291 O292 1.232 . S
O292 C291 1.232 . S
C293 O285 1.260 . S
C293 O286 1.257 . S
Zn294 O297 2.031 . S
Zn294 O299 2.049 . S
Zn294 O304 2.067 . S
Zn295 O296 1.962 . S
Zn295 O298 1.986 . S
Zn295 O300 1.996 . S
Zn295 O303 1.943 . S
O296 Zn295 1.962 . S
O296 C301 1.254 . S
O297 Zn294 2.031 . S
O297 C301 1.269 . S
O298 Zn295 1.986 . S
O298 C305 1.262 . S
O299 Zn294 2.049 . S
O299 C307 1.260 . S
O300 Zn295 1.996 . S
O300 C307 1.257 . S
C301 O296 1.254 . S
C301 O297 1.269 . S
C302 O303 1.249 . S
C302 O304 1.270 . S
O303 Zn295 1.943 . S
O303 C302 1.249 . S
O304 Zn294 2.067 . S
O304 C302 1.270 . S
C305 O298 1.262 . S
C305 O306 1.232 . S
O306 C305 1.232 . S
C307 O299 1.260 . S
C307 O300 1.257 . S
Zn308 O311 2.031 . S
Zn308 O313 2.049 . S
Zn308 O318 2.067 . S
Zn309 O310 1.962 . S
Zn309 O312 1.986 . S
Zn309 O314 1.996 . S
Zn309 O317 1.943 . S
O310 Zn309 1.962 . S
O310 C315 1.254 . S
O311 Zn308 2.031 . S
O311 C315 1.269 . S
O312 Zn309 1.986 . S
O312 C319 1.262 . S
O313 Zn308 2.049 . S
O313 C321 1.260 . S
O314 Zn309 1.996 . S
O314 C321 1.257 . S
C315 O310 1.254 . S
C315 O311 1.269 . S
C316 O317 1.249 . S
C316 O318 1.270 . S
O317 Zn309 1.943 . S
O317 C316 1.249 . S
O318 Zn308 2.067 . S
O318 C316 1.270 . S
C319 O312 1.262 . S
C319 O320 1.232 . S
O320 C319 1.232 . S
C321 O313 1.260 . S
C321 O314 1.257 . S
Zn322 O325 2.031 . S
Zn322 O327 2.049 . S
Zn322 O332 2.067 . S
Zn323 O324 1.962 . S
Zn323 O326 1.986 . S
Zn323 O328 1.996 . S
Zn323 O331 1.943 . S
O324 Zn323 1.962 . S
O324 C329 1.254 . S
O325 Zn322 2.031 . S
O325 C329 1.269 . S
O326 Zn323 1.986 . S
O326 C333 1.262 . S
O327 Zn322 2.049 . S
O327 C335 1.260 . S
O328 Zn323 1.996 . S
O328 C335 1.257 . S
C329 O324 1.254 . S
C329 O325 1.269 . S
C330 O331 1.249 . S
C330 O332 1.270 . S
O331 Zn323 1.943 . S
O331 C330 1.249 . S
O332 Zn322 2.067 . S
O332 C330 1.270 . S
C333 O326 1.262 . S
C333 O334 1.232 . S
O334 C333 1.232 . S
C335 O327 1.260 . S
C335 O328 1.257 . S
Zn336 O339 2.031 . S
Zn336 O341 2.049 . S
Zn336 O346 2.067 . S
Zn337 O338 1.962 . S
Zn337 O340 1.986 . S
Zn337 O342 1.996 . S
Zn337 O345 1.943 . S
O338 Zn337 1.962 . S
O338 C343 1.254 . S
O339 Zn336 2.031 . S
O339 C343 1.269 . S
O340 Zn337 1.986 . S
O340 C347 1.262 . S
O341 Zn336 2.049 . S
O341 C349 1.260 . S
O342 Zn337 1.996 . S
O342 C349 1.257 . S
C343 O338 1.254 . S
C343 O339 1.269 . S
C344 O345 1.249 . S
C344 O346 1.270 . S
O345 Zn337 1.943 . S
O345 C344 1.249 . S
O346 Zn336 2.067 . S
O346 C344 1.270 . S
C347 O340 1.262 . S
C347 O348 1.232 . S
O348 C347 1.232 . S
C349 O341 1.260 . S
C349 O342 1.257 . S
Zn350 O353 2.031 . S
Zn350 O355 2.049 . S
Zn350 O360 2.067 . S
Zn351 O352 1.962 . S
Zn351 O354 1.986 . S
Zn351 O356 1.996 . S
Zn351 O359 1.943 . S
O352 Zn351 1.962 . S
O352 C357 1.254 . S
O353 Zn350 2.031 . S
O353 C357 1.269 . S
O354 Zn351 1.986 . S
O354 C361 1.262 . S
O355 Zn350 2.049 . S
O355 C363 1.260 . S
O356 Zn351 1.996 . S
O356 C363 1.257 . S
C357 O352 1.254 . S
C357 O353 1.269 . S
C358 O359 1.249 . S
C358 O360 1.270 . S
O359 Zn351 1.943 . S
O359 C358 1.249 . S
O360 Zn350 2.067 . S
O360 C358 1.270 . S
C361 O354 1.262 . S
C361 O362 1.232 . S
O362 C361 1.232 . S
C363 O355 1.260 . S
C363 O356 1.257 . S
Zn364 O367 2.031 . S
Zn364 O369 2.049 . S
Zn364 O374 2.067 . S
Zn365 O366 1.962 . S
Zn365 O368 1.986 . S
Zn365 O370 1.996 . S
Zn365 O373 1.943 . S
O366 Zn365 1.962 . S
O366 C371 1.254 . S
O367 Zn364 2.031 . S
O367 C371 1.269 . S
O368 Zn365 1.986 . S
O368 C375 1.262 . S
O369 Zn364 2.049 . S
O369 C377 1.260 . S
O370 Zn365 1.996 . S
O370 C377 1.257 . S
C371 O366 1.254 . S
C371 O367 1.269 . S
C372 O373 1.249 . S
C372 O374 1.270 . S
O373 Zn365 1.943 . S
O373 C372 1.249 . S
O374 Zn364 2.067 . S
O374 C372 1.270 . S
C375 O368 1.262 . S
C375 O376 1.232 . S
O376 C375 1.232 . S
C377 O369 1.260 . S
C377 O370 1.257 . S
Zn378 O381 2.031 . S
Zn378 O383 2.049 . S
Zn378 O388 2.067 . S
Zn379 O380 1.962 . S
Zn379 O382 1.986 . S
Zn379 O384 1.996 . S
Zn379 O387 1.943 . S
O380 Zn379 1.962 . S
O380 C385 1.254 . S
O381 Zn378 2.031 . S
O381 C385 1.269 . S
O382 Zn379 1.986 . S
O382 C389 1.262 . S
O383 Zn378 2.049 . S
O383 C391 1.260 . S
O384 Zn379 1.996 . S
O384 C391 1.257 . S
C385 O380 1.254 . S
C385 O381 1.269 . S
C386 O387 1.249 . S
C386 O388 1.270 . S
O387 Zn379 1.943 . S
O387 C386 1.249 . S
O388 Zn378 2.067 . S
O388 C386 1.270 . S
C389 O382 1.262 . S
C389 O390 1.232 . S
O390 C389 1.232 . S
C391 O383 1.260 . S
C391 O384 1.257 . S
Zn392 O395 2.031 . S
Zn392 O397 2.049 . S
Zn392 O402 2.067 . S
Zn393 O394 1.962 . S
Zn393 O396 1.986 . S
Zn393 O398 1.996 . S
Zn393 O401 1.943 . S
O394 Zn393 1.962 . S
O394 C399 1.254 . S
O395 Zn392 2.031 . S
O395 C399 1.269 . S
O396 Zn393 1.986 . S
O396 C403 1.262 . S
O397 Zn392 2.049 . S
O397 C405 1.260 . S
O398 Zn393 1.996 . S
O398 C405 1.257 . S
C399 O394 1.254 . S
C399 O395 1.269 . S
C400 O401 1.249 . S
C400 O402 1.270 . S
O401 Zn393 1.943 . S
O401 C400 1.249 . S
O402 Zn392 2.067 . S
O402 C400 1.270 . S
C403 O396 1.262 . S
C403 O404 1.232 . S
O404 C403 1.232 . S
C405 O397 1.260 . S
C405 O398 1.257 . S
Zn406 O409 2.031 . S
Zn406 O411 2.049 . S
Zn406 O416 2.067 . S
Zn407 O408 1.962 . S
Zn407 O410 1.986 . S
Zn407 O412 1.996 . S
Zn407 O415 1.943 . S
O408 Zn407 1.962 . S
O408 C413 1.254 . S
O409 Zn406 2.031 . S
O409 C413 1.269 . S
O410 Zn407 1.986 . S
O410 C417 1.262 . S
O411 Zn406 2.049 . S
O411 C419 1.260 . S
O412 Zn407 1.996 . S
O412 C419 1.257 . S
C413 O408 1.254 . S
C413 O409 1.269 . S
C414 O415 1.249 . S
C414 O416 1.270 . S
O415 Zn407 1.943 . S
O415 C414 1.249 . S
O416 Zn406 2.067 . S
O416 C414 1.270 . S
C417 O410 1.262 . S
C417 O418 1.232 . S
O418 C417 1.232 . S
C419 O411 1.260 . S
C419 O412 1.257 . S
Zn420 O423 2.031 . S
Zn420 O425 2.049 . S
Zn420 O430 2.067 . S
Zn421 O422 1.962 . S
Zn421 O424 1.986 . S
Zn421 O426 1.996 . S
Zn421 O429 1.943 . S
O422 Zn421 1.962 . S
O422 C427 1.254 . S
O423 Zn420 2.031 . S
O423 C427 1.269 . S
O424 Zn421 1.986 . S
O424 C431 1.262 . S
O425 Zn420 2.049 . S
O425 C433 1.260 . S
O426 Zn421 1.996 . S
O426 C433 1.257 . S
C427 O422 1.254 . S
C427 O423 1.269 . S
C428 O429 1.249 . S
C428 O430 1.270 . S
O429 Zn421 1.943 . S
O429 C428 1.249 . S
O430 Zn420 2.067 . S
O430 C428 1.270 . S
C431 O424 1.262 . S
C431 O432 1.232 . S
O432 C431 1.232 . S
C433 O425 1.260 . S
C433 O426 1.257 . S
Zn434 O437 2.031 . S
Zn434 O439 2.049 . S
Zn434 O444 2.067 . S
Zn435 O436 1.962 . S
Zn435 O438 1.986 . S
Zn435 O440 1.996 . S
Zn435 O443 1.943 . S
O436 Zn435 1.962 . S
O436 C441 1.254 . S
O437 Zn434 2.031 . S
O437 C441 1.269 . S
O438 Zn435 1.986 . S
O438 C445 1.262 . S
O439 Zn434 2.049 . S
O439 C447 1.260 . S
O440 Zn435 1.996 . S
O440 C447 1.257 . S
C441 O436 1.254 . S
C441 O437 1.269 . S
C442 O443 1.249 . S
C442 O444 1.270 . S
O443 Zn435 1.943 . S
O443 C442 1.249 . S
O444 Zn434 2.067 . S
O444 C442 1.270 . S
C445 O438 1.262 . S
C445 O446 1.232 . S
O446 C445 1.232 . S
C447 O439 1.260 . S
C447 O440 1.257 . S
C448 C449 1.363 . S
C448 C454 1.379 . S
C448 N456 1.356 . S
C449 C448 1.363 . S
C449 C455 1.363 . S
C450 C451 1.363 . S
C450 C455 1.379 . S
C450 N457 1.356 . S
C451 C450 1.363 . S
C451 C454 1.363 . S
N452 C454 1.356 . S
N452 H464 0.984 . S
N452 H465 0.985 . S
N453 C455 1.356 . S
N453 H458 0.984 . S
N453 H459 0.985 . S
C454 C448 1.379 . S
C454 C451 1.363 . S
C454 N452 1.356 . S
C455 C449 1.363 . S
C455 C450 1.379 . S
C455 N453 1.356 . S
N456 C448 1.356 . S
N456 H462 0.984 . S
N456 H463 0.984 . S
N457 C450 1.356 . S
N457 H460 0.984 . S
N457 H461 0.985 . S
H458 N453 0.984 . S
H459 N453 0.985 . S
H460 N457 0.984 . S
H461 N457 0.985 . S
H462 N456 0.984 . S
H463 N456 0.984 . S
H464 N452 0.984 . S
H465 N452 0.985 . S
C466 C467 1.363 . S
C466 C472 1.379 . S
C466 N474 1.356 . S
C467 C466 1.363 . S
C467 C473 1.363 . S
C468 C469 1.363 . S
C468 C473 1.379 . S
C468 N475 1.356 . S
C469 C468 1.363 . S
C469 C472 1.363 . S
N470 C472 1.356 . S
N470 H482 0.984 . S
N470 H483 0.985 . S
N471 C473 1.356 . S
N471 H476 0.984 . S
N471 H477 0.985 . S
C472 C466 1.379 . S
C472 C469 1.363 . S
C472 N470 1.356 . S
C473 C467 1.363 . S
C473 C468 1.379 . S
C473 N471 1.356 . S
N474 C466 1.356 . S
N474 H480 0.984 . S
N474 H481 0.984 . S
N475 C468 1.356 . S
N475 H478 0.984 . S
N475 H479 0.985 . S
H476 N471 0.984 . S
H477 N471 0.985 . S
H478 N475 0.984 . S
H479 N475 0.985 . S
H480 N474 0.984 . S
H481 N474 0.984 . S
H482 N470 0.984 . S
H483 N470 0.985 . S
C484 C485 1.363 . S
C484 C490 1.379 . S
C484 N492 1.356 . S
C485 C484 1.363 . S
C485 C491 1.363 . S
C486 C487 1.363 . S
C486 C491 1.379 . S
C486 N493 1.356 . S
C487 C486 1.363 . S
C487 C490 1.363 . S
N488 C490 1.356 . S
N488 H500 0.984 . S
N488 H501 0.985 . S
N489 C491 1.356 . S
N489 H494 0.984 . S
N489 H495 0.985 . S
C490 C484 1.379 . S
C490 C487 1.363 . S
C490 N488 1.356 . S
C491 C485 1.363 . S
C491 C486 1.379 . S
C491 N489 1.356 . S
N492 C484 1.356 . S
N492 H498 0.984 . S
N492 H499 0.984 . S
N493 C486 1.356 . S
N493 H496 0.984 . S
N493 H497 0.985 . S
H494 N489 0.984 . S
H495 N489 0.985 . S
H496 N493 0.984 . S
H497 N493 0.985 . S
H498 N492 0.984 . S
H499 N492 0.984 . S
H500 N488 0.984 . S
H501 N488 0.985 . S
C502 C503 1.363 . S
C502 C508 1.379 . S
C502 N510 1.356 . S
C503 C502 1.363 . S
C503 C509 1.363 . S
C504 C505 1.363 . S
C504 C509 1.379 . S
C504 N511 1.356 . S
C505 C504 1.363 . S
C505 C508 1.363 . S
N506 C508 1.356 . S
N506 H518 0.984 . S
N506 H519 0.985 . S
N507 C509 1.356 . S
N507 H512 0.984 . S
N507 H513 0.985 . S
C508 C502 1.379 . S
C508 C505 1.363 . S
C508 N506 1.356 . S
C509 C503 1.363 . S
C509 C504 1.379 . S
C509 N507 1.356 . S
N510 C502 1.356 . S
N510 H516 0.984 . S
N510 H517 0.984 . S
N511 C504 1.356 . S
N511 H514 0.984 . S
N511 H515 0.985 . S
H512 N507 0.984 . S
H513 N507 0.985 . S
H514 N511 0.984 . S
H515 N511 0.985 . S
H516 N510 0.984 . S
H517 N510 0.984 . S
H518 N506 0.984 . S
H519 N506 0.985 . S
C520 C521 1.363 . S
C520 C526 1.379 . S
C520 N528 1.356 . S
C521 C520 1.363 . S
C521 C527 1.363 . S
C522 C523 1.363 . S
C522 C527 1.379 . S
C522 N529 1.356 . S
C523 C522 1.363 . S
C523 C526 1.363 . S
N524 C526 1.356 . S
N524 H536 0.984 . S
N524 H537 0.985 . S
N525 C527 1.356 . S
N525 H530 0.984 . S
N525 H531 0.985 . S
C526 C520 1.379 . S
C526 C523 1.363 . S
C526 N524 1.356 . S
C527 C521 1.363 . S
C527 C522 1.379 . S
C527 N525 1.356 . S
N528 C520 1.356 . S
N528 H534 0.984 . S
N528 H535 0.984 . S
N529 C522 1.356 . S
N529 H532 0.984 . S
N529 H533 0.985 . S
H530 N525 0.984 . S
H531 N525 0.985 . S
H532 N529 0.984 . S
H533 N529 0.985 . S
H534 N528 0.984 . S
H535 N528 0.984 . S
H536 N524 0.984 . S
H537 N524 0.985 . S
C538 C539 1.363 . S
C538 C544 1.379 . S
C538 N546 1.356 . S
C539 C538 1.363 . S
C539 C545 1.363 . S
C540 C541 1.363 . S
C540 C545 1.379 . S
C540 N547 1.356 . S
C541 C540 1.363 . S
C541 C544 1.363 . S
N542 C544 1.356 . S
N542 H554 0.984 . S
N542 H555 0.985 . S
N543 C545 1.356 . S
N543 H548 0.984 . S
N543 H549 0.985 . S
C544 C538 1.379 . S
C544 C541 1.363 . S
C544 N542 1.356 . S
C545 C539 1.363 . S
C545 C540 1.379 . S
C545 N543 1.356 . S
N546 C538 1.356 . S
N546 H552 0.984 . S
N546 H553 0.984 . S
N547 C540 1.356 . S
N547 H550 0.984 . S
N547 H551 0.985 . S
H548 N543 0.984 . S
H549 N543 0.985 . S
H550 N547 0.984 . S
H551 N547 0.985 . S
H552 N546 0.984 . S
H553 N546 0.984 . S
H554 N542 0.984 . S
H555 N542 0.985 . S
C556 C557 1.363 . S
C556 C562 1.379 . S
C556 N564 1.356 . S
C557 C556 1.363 . S
C557 C563 1.363 . S
C558 C559 1.363 . S
C558 C563 1.379 . S
C558 N565 1.356 . S
C559 C558 1.363 . S
C559 C562 1.363 . S
N560 C562 1.356 . S
N560 H572 0.984 . S
N560 H573 0.985 . S
N561 C563 1.356 . S
N561 H566 0.984 . S
N561 H567 0.985 . S
C562 C556 1.379 . S
C562 C559 1.363 . S
C562 N560 1.356 . S
C563 C557 1.363 . S
C563 C558 1.379 . S
C563 N561 1.356 . S
N564 C556 1.356 . S
N564 H570 0.984 . S
N564 H571 0.984 . S
N565 C558 1.356 . S
N565 H568 0.984 . S
N565 H569 0.985 . S
H566 N561 0.984 . S
H567 N561 0.985 . S
H568 N565 0.984 . S
H569 N565 0.985 . S
H570 N564 0.984 . S
H571 N564 0.984 . S
H572 N560 0.984 . S
H573 N560 0.985 . S
C574 C575 1.363 . S
C574 C580 1.379 . S
C574 N582 1.356 . S
C575 C574 1.363 . S
C575 C581 1.363 . S
C576 C577 1.363 . S
C576 C581 1.379 . S
C576 N583 1.356 . S
C577 C576 1.363 . S
C577 C580 1.363 . S
N578 C580 1.356 . S
N578 H590 0.984 . S
N578 H591 0.985 . S
N579 C581 1.356 . S
N579 H584 0.984 . S
N579 H585 0.985 . S
C580 C574 1.379 . S
C580 C577 1.363 . S
C580 N578 1.356 . S
C581 C575 1.363 . S
C581 C576 1.379 . S
C581 N579 1.356 . S
N582 C574 1.356 . S
N582 H588 0.984 . S
N582 H589 0.984 . S
N583 C576 1.356 . S
N583 H586 0.984 . S
N583 H587 0.985 . S
H584 N579 0.984 . S
H585 N579 0.985 . S
H586 N583 0.984 . S
H587 N583 0.985 . S
H588 N582 0.984 . S
H589 N582 0.984 . S
H590 N578 0.984 . S
H591 N578 0.985 . S
C592 C593 1.363 . S
C592 C598 1.379 . S
C592 N600 1.356 . S
C593 C592 1.363 . S
C593 C599 1.363 . S
C594 C595 1.363 . S
C594 C599 1.379 . S
C594 N601 1.356 . S
C595 C594 1.363 . S
C595 C598 1.363 . S
N596 C598 1.356 . S
N596 H608 0.984 . S
N596 H609 0.985 . S
N597 C599 1.356 . S
N597 H602 0.984 . S
N597 H603 0.985 . S
C598 C592 1.379 . S
C598 C595 1.363 . S
C598 N596 1.356 . S
C599 C593 1.363 . S
C599 C594 1.379 . S
C599 N597 1.356 . S
N600 C592 1.356 . S
N600 H606 0.984 . S
N600 H607 0.984 . S
N601 C594 1.356 . S
N601 H604 0.984 . S
N601 H605 0.985 . S
H602 N597 0.984 . S
H603 N597 0.985 . S
H604 N601 0.984 . S
H605 N601 0.985 . S
H606 N600 0.984 . S
H607 N600 0.984 . S
H608 N596 0.984 . S
H609 N596 0.985 . S
C610 C611 1.363 . S
C610 C616 1.379 . S
C610 N618 1.356 . S
C611 C610 1.363 . S
C611 C617 1.363 . S
C612 C613 1.363 . S
C612 C617 1.379 . S
C612 N619 1.356 . S
C613 C612 1.363 . S
C613 C616 1.363 . S
N614 C616 1.356 . S
N614 H626 0.984 . S
N614 H627 0.985 . S
N615 C617 1.356 . S
N615 H620 0.984 . S
N615 H621 0.985 . S
C616 C610 1.379 . S
C616 C613 1.363 . S
C616 N614 1.356 . S
C617 C611 1.363 . S
C617 C612 1.379 . S
C617 N615 1.356 . S
N618 C610 1.356 . S
N618 H624 0.984 . S
N618 H625 0.984 . S
N619 C612 1.356 . S
N619 H622 0.984 . S
N619 H623 0.985 . S
H620 N615 0.984 . S
H621 N615 0.985 . S
H622 N619 0.984 . S
H623 N619 0.985 . S
H624 N618 0.984 . S
H625 N618 0.984 . S
H626 N614 0.984 . S
H627 N614 0.985 . S
C628 C629 1.363 . S
C628 C634 1.379 . S
C628 N636 1.356 . S
C629 C628 1.363 . S
C629 C635 1.363 . S
C630 C631 1.363 . S
C630 C635 1.379 . S
C630 N637 1.356 . S
C631 C630 1.363 . S
C631 C634 1.363 . S
N632 C634 1.356 . S
N632 H644 0.984 . S
N632 H645 0.985 . S
N633 C635 1.356 . S
N633 H638 0.984 . S
N633 H639 0.985 . S
C634 C628 1.379 . S
C634 C631 1.363 . S
C634 N632 1.356 . S
C635 C629 1.363 . S
C635 C630 1.379 . S
C635 N633 1.356 . S
N636 C628 1.356 . S
N636 H642 0.984 . S
N636 H643 0.984 . S
N637 C630 1.356 . S
N637 H640 0.984 . S
N637 H641 0.985 . S
H638 N633 0.984 . S
H639 N633 0.985 . S
H640 N637 0.984 . S
H641 N637 0.985 . S
H642 N636 0.984 . S
H643 N636 0.984 . S
H644 N632 0.984 . S
H645 N632 0.985 . S
C646 C647 1.363 . S
C646 C652 1.379 . S
C646 N654 1.356 . S
C647 C646 1.363 . S
C647 C653 1.363 . S
C648 C649 1.363 . S
C648 C653 1.379 . S
C648 N655 1.356 . S
C649 C648 1.363 . S
C649 C652 1.363 . S
N650 C652 1.356 . S
N650 H662 0.984 . S
N650 H663 0.985 . S
N651 C653 1.356 . S
N651 H656 0.984 . S
N651 H657 0.985 . S
C652 C646 1.379 . S
C652 C649 1.363 . S
C652 N650 1.356 . S
C653 C647 1.363 . S
C653 C648 1.379 . S
C653 N651 1.356 . S
N654 C646 1.356 . S
N654 H660 0.984 . S
N654 H661 0.984 . S
N655 C648 1.356 . S
N655 H658 0.984 . S
N655 H659 0.985 . S
H656 N651 0.984 . S
H657 N651 0.985 . S
H658 N655 0.984 . S
H659 N655 0.985 . S
H660 N654 0.984 . S
H661 N654 0.984 . S
H662 N650 0.984 . S
H663 N650 0.985 . S
C664 C665 1.363 . S
C664 C670 1.379 . S
C664 N672 1.356 . S
C665 C664 1.363 . S
C665 C671 1.363 . S
C666 C667 1.363 . S
C666 C671 1.379 . S
C666 N673 1.356 . S
C667 C666 1.363 . S
C667 C670 1.363 . S
N668 C670 1.356 . S
N668 H680 0.984 . S
N668 H681 0.985 . S
N669 C671 1.356 . S
N669 H674 0.984 . S
N669 H675 0.985 . S
C670 C664 1.379 . S
C670 C667 1.363 . S
C670 N668 1.356 . S
C671 C665 1.363 . S
C671 C666 1.379 . S
C671 N669 1.356 . S
N672 C664 1.356 . S
N672 H678 0.984 . S
N672 H679 0.984 . S
N673 C666 1.356 . S
N673 H676 0.984 . S
N673 H677 0.985 . S
H674 N669 0.984 . S
H675 N669 0.985 . S
H676 N673 0.984 . S
H677 N673 0.985 . S
H678 N672 0.984 . S
H679 N672 0.984 . S
H680 N668 0.984 . S
H681 N668 0.985 . S
C682 C683 1.363 . S
C682 C688 1.379 . S
C682 N690 1.356 . S
C683 C682 1.363 . S
C683 C689 1.363 . S
C684 C685 1.363 . S
C684 C689 1.379 . S
C684 N691 1.356 . S
C685 C684 1.363 . S
C685 C688 1.363 . S
N686 C688 1.356 . S
N686 H698 0.984 . S
N686 H699 0.985 . S
N687 C689 1.356 . S
N687 H692 0.984 . S
N687 H693 0.985 . S
C688 C682 1.379 . S
C688 C685 1.363 . S
C688 N686 1.356 . S
C689 C683 1.363 . S
C689 C684 1.379 . S
C689 N687 1.356 . S
N690 C682 1.356 . S
N690 H696 0.984 . S
N690 H697 0.984 . S
N691 C684 1.356 . S
N691 H694 0.984 . S
N691 H695 0.985 . S
H692 N687 0.984 . S
H693 N687 0.985 . S
H694 N691 0.984 . S
H695 N691 0.985 . S
H696 N690 0.984 . S
H697 N690 0.984 . S
H698 N686 0.984 . S
H699 N686 0.985 . S
C700 C701 1.363 . S
C700 C706 1.379 . S
C700 N708 1.356 . S
C701 C700 1.363 . S
C701 C707 1.363 . S
C702 C703 1.363 . S
C702 C707 1.379 . S
C702 N709 1.356 . S
C703 C702 1.363 . S
C703 C706 1.363 . S
N704 C706 1.356 . S
N704 H716 0.984 . S
N704 H717 0.985 . S
N705 C707 1.356 . S
N705 H710 0.984 . S
N705 H711 0.985 . S
C706 C700 1.379 . S
C706 C703 1.363 . S
C706 N704 1.356 . S
C707 C701 1.363 . S
C707 C702 1.379 . S
C707 N705 1.356 . S
N708 C700 1.356 . S
N708 H714 0.984 . S
N708 H715 0.984 . S
N709 C702 1.356 . S
N709 H712 0.984 . S
N709 H713 0.985 . S
H710 N705 0.984 . S
H711 N705 0.985 . S
H712 N709 0.984 . S
H713 N709 0.985 . S
H714 N708 0.984 . S
H715 N708 0.984 . S
H716 N704 0.984 . S
H717 N704 0.985 . S
C718 C719 1.363 . S
C718 C724 1.379 . S
C718 N726 1.356 . S
C719 C718 1.363 . S
C719 C725 1.363 . S
C720 C721 1.363 . S
C720 C725 1.379 . S
C720 N727 1.356 . S
C721 C720 1.363 . S
C721 C724 1.363 . S
N722 C724 1.356 . S
N722 H734 0.984 . S
N722 H735 0.985 . S
N723 C725 1.356 . S
N723 H728 0.984 . S
N723 H729 0.985 . S
C724 C718 1.379 . S
C724 C721 1.363 . S
C724 N722 1.356 . S
C725 C719 1.363 . S
C725 C720 1.379 . S
C725 N723 1.356 . S
N726 C718 1.356 . S
N726 H732 0.984 . S
N726 H733 0.984 . S
N727 C720 1.356 . S
N727 H730 0.984 . S
N727 H731 0.985 . S
H728 N723 0.984 . S
H729 N723 0.985 . S
H730 N727 0.984 . S
H731 N727 0.985 . S
H732 N726 0.984 . S
H733 N726 0.984 . S
H734 N722 0.984 . S
H735 N722 0.985 . S
C736 C737 1.363 . S
C736 C742 1.379 1_554 S
C736 N744 1.356 . S
C737 C736 1.363 . S
C737 C743 1.363 . S
C738 C739 1.363 . S
C738 C743 1.379 1_556 S
C738 N745 1.356 . S
C739 C738 1.363 . S
C739 C742 1.363 . S
N740 C742 1.356 . S
N740 H752 0.984 . S
N740 H753 0.985 . S
N741 C743 1.356 . S
N741 H746 0.984 . S
N741 H747 0.985 . S
C742 C736 1.379 1_556 S
C742 C739 1.363 . S
C742 N740 1.356 . S
C743 C737 1.363 . S
C743 C738 1.379 1_554 S
C743 N741 1.356 . S
N744 C736 1.356 . S
N744 H750 0.984 . S
N744 H751 0.984 . S
N745 C738 1.356 . S
N745 H748 0.984 . S
N745 H749 0.985 . S
H746 N741 0.984 . S
H747 N741 0.985 . S
H748 N745 0.984 . S
H749 N745 0.985 . S
H750 N744 0.984 . S
H751 N744 0.984 . S
H752 N740 0.984 . S
H753 N740 0.985 . S
C754 C755 1.363 . S
C754 C760 1.379 1_556 S
C754 N762 1.356 . S
C755 C754 1.363 . S
C755 C761 1.363 . S
C756 C757 1.363 . S
C756 C761 1.379 1_554 S
C756 N763 1.356 . S
C757 C756 1.363 . S
C757 C760 1.363 . S
N758 C760 1.356 . S
N758 H770 0.984 . S
N758 H771 0.985 . S
N759 C761 1.356 . S
N759 H764 0.984 . S
N759 H765 0.985 . S
C760 C754 1.379 1_554 S
C760 C757 1.363 . S
C760 N758 1.356 . S
C761 C755 1.363 . S
C761 C756 1.379 1_556 S
C761 N759 1.356 . S
N762 C754 1.356 . S
N762 H768 0.984 . S
N762 H769 0.984 . S
N763 C756 1.356 . S
N763 H766 0.984 . S
N763 H767 0.985 . S
H764 N759 0.984 . S
H765 N759 0.985 . S
H766 N763 0.984 . S
H767 N763 0.985 . S
H768 N762 0.984 . S
H769 N762 0.984 . S
H770 N758 0.984 . S
H771 N758 0.985 . S
C772 C773 1.363 . S
C772 C778 1.379 1_556 S
C772 N780 1.356 . S
C773 C772 1.363 . S
C773 C779 1.363 . S
C774 C775 1.363 . S
C774 C779 1.379 1_554 S
C774 N781 1.356 . S
C775 C774 1.363 . S
C775 C778 1.363 . S
N776 C778 1.356 . S
N776 H788 0.984 . S
N776 H789 0.985 . S
N777 C779 1.356 . S
N777 H782 0.984 . S
N777 H783 0.985 . S
C778 C772 1.379 1_554 S
C778 C775 1.363 . S
C778 N776 1.356 . S
C779 C773 1.363 . S
C779 C774 1.379 1_556 S
C779 N777 1.356 . S
N780 C772 1.356 . S
N780 H786 0.984 . S
N780 H787 0.984 . S
N781 C774 1.356 . S
N781 H784 0.984 . S
N781 H785 0.985 . S
H782 N777 0.984 . S
H783 N777 0.985 . S
H784 N781 0.984 . S
H785 N781 0.985 . S
H786 N780 0.984 . S
H787 N780 0.984 . S
H788 N776 0.984 . S
H789 N776 0.985 . S
C790 C791 1.363 . S
C790 C796 1.379 1_556 S
C790 N798 1.356 . S
C791 C790 1.363 . S
C791 C797 1.363 . S
C792 C793 1.363 . S
C792 C797 1.379 1_554 S
C792 N799 1.356 . S
C793 C792 1.363 . S
C793 C796 1.363 . S
N794 C796 1.356 . S
N794 H806 0.984 . S
N794 H807 0.985 . S
N795 C797 1.356 . S
N795 H800 0.984 . S
N795 H801 0.985 . S
C796 C790 1.379 1_554 S
C796 C793 1.363 . S
C796 N794 1.356 . S
C797 C791 1.363 . S
C797 C792 1.379 1_556 S
C797 N795 1.356 . S
N798 C790 1.356 . S
N798 H804 0.984 . S
N798 H805 0.984 . S
N799 C792 1.356 . S
N799 H802 0.984 . S
N799 H803 0.985 . S
H800 N795 0.984 . S
H801 N795 0.985 . S
H802 N799 0.984 . S
H803 N799 0.985 . S
H804 N798 0.984 . S
H805 N798 0.984 . S
H806 N794 0.984 . S
H807 N794 0.985 . S
C808 C809 1.363 . S
C808 C814 1.379 . S
C808 N816 1.356 . S
C809 C808 1.363 . S
C809 C815 1.363 . S
C810 C811 1.363 . S
C810 C815 1.379 . S
C810 N817 1.356 . S
C811 C810 1.363 . S
C811 C814 1.363 . S
N812 C814 1.356 . S
N812 H824 0.984 . S
N812 H825 0.985 . S
N813 C815 1.356 . S
N813 H818 0.984 . S
N813 H819 0.985 . S
C814 C808 1.379 . S
C814 C811 1.363 . S
C814 N812 1.356 . S
C815 C809 1.363 . S
C815 C810 1.379 . S
C815 N813 1.356 . S
N816 C808 1.356 . S
N816 H822 0.984 . S
N816 H823 0.984 . S
N817 C810 1.356 . S
N817 H820 0.984 . S
N817 H821 0.985 . S
H818 N813 0.984 . S
H819 N813 0.985 . S
H820 N817 0.984 . S
H821 N817 0.985 . S
H822 N816 0.984 . S
H823 N816 0.984 . S
H824 N812 0.984 . S
H825 N812 0.985 . S
C826 C827 1.363 . S
C826 C832 1.379 . S
C826 N834 1.356 . S
C827 C826 1.363 . S
C827 C833 1.363 . S
C828 C829 1.363 . S
C828 C833 1.379 . S
C828 N835 1.356 . S
C829 C828 1.363 . S
C829 C832 1.363 . S
N830 C832 1.356 . S
N830 H842 0.984 . S
N830 H843 0.985 . S
N831 C833 1.356 . S
N831 H836 0.984 . S
N831 H837 0.985 . S
C832 C826 1.379 . S
C832 C829 1.363 . S
C832 N830 1.356 . S
C833 C827 1.363 . S
C833 C828 1.379 . S
C833 N831 1.356 . S
N834 C826 1.356 . S
N834 H840 0.984 . S
N834 H841 0.984 . S
N835 C828 1.356 . S
N835 H838 0.984 . S
N835 H839 0.985 . S
H836 N831 0.984 . S
H837 N831 0.985 . S
H838 N835 0.984 . S
H839 N835 0.985 . S
H840 N834 0.984 . S
H841 N834 0.984 . S
H842 N830 0.984 . S
H843 N830 0.985 . S
C844 C845 1.363 . S
C844 C850 1.379 . S
C844 N852 1.356 . S
C845 C844 1.363 . S
C845 C851 1.363 . S
C846 C847 1.363 . S
C846 C851 1.379 . S
C846 N853 1.356 . S
C847 C846 1.363 . S
C847 C850 1.363 . S
N848 C850 1.356 . S
N848 H860 0.984 . S
N848 H861 0.985 . S
N849 C851 1.356 . S
N849 H854 0.984 . S
N849 H855 0.985 . S
C850 C844 1.379 . S
C850 C847 1.363 . S
C850 N848 1.356 . S
C851 C845 1.363 . S
C851 C846 1.379 . S
C851 N849 1.356 . S
N852 C844 1.356 . S
N852 H858 0.984 . S
N852 H859 0.984 . S
N853 C846 1.356 . S
N853 H856 0.984 . S
N853 H857 0.985 . S
H854 N849 0.984 . S
H855 N849 0.985 . S
H856 N853 0.984 . S
H857 N853 0.985 . S
H858 N852 0.984 . S
H859 N852 0.984 . S
H860 N848 0.984 . S
H861 N848 0.985 . S
C862 C863 1.363 . S
C862 C868 1.379 . S
C862 N870 1.356 . S
C863 C862 1.363 . S
C863 C869 1.363 . S
C864 C865 1.363 . S
C864 C869 1.379 . S
C864 N871 1.356 . S
C865 C864 1.363 . S
C865 C868 1.363 . S
N866 C868 1.356 . S
N866 H878 0.984 . S
N866 H879 0.985 . S
N867 C869 1.356 . S
N867 H872 0.984 . S
N867 H873 0.985 . S
C868 C862 1.379 . S
C868 C865 1.363 . S
C868 N866 1.356 . S
C869 C863 1.363 . S
C869 C864 1.379 . S
C869 N867 1.356 . S
N870 C862 1.356 . S
N870 H876 0.984 . S
N870 H877 0.984 . S
N871 C864 1.356 . S
N871 H874 0.984 . S
N871 H875 0.985 . S
H872 N867 0.984 . S
H873 N867 0.985 . S
H874 N871 0.984 . S
H875 N871 0.985 . S
H876 N870 0.984 . S
H877 N870 0.984 . S
H878 N866 0.984 . S
H879 N866 0.985 . S
C880 C881 1.363 . S
C880 C886 1.379 . S
C880 N888 1.356 . S
C881 C880 1.363 . S
C881 C887 1.363 . S
C882 C883 1.363 . S
C882 C887 1.379 . S
C882 N889 1.356 . S
C883 C882 1.363 . S
C883 C886 1.363 . S
N884 C886 1.356 . S
N884 H896 0.984 . S
N884 H897 0.985 . S
N885 C887 1.356 . S
N885 H890 0.984 . S
N885 H891 0.985 . S
C886 C880 1.379 . S
C886 C883 1.363 . S
C886 N884 1.356 . S
C887 C881 1.363 . S
C887 C882 1.379 . S
C887 N885 1.356 . S
N888 C880 1.356 . S
N888 H894 0.984 . S
N888 H895 0.984 . S
N889 C882 1.356 . S
N889 H892 0.984 . S
N889 H893 0.985 . S
H890 N885 0.984 . S
H891 N885 0.985 . S
H892 N889 0.984 . S
H893 N889 0.985 . S
H894 N888 0.984 . S
H895 N888 0.984 . S
H896 N884 0.984 . S
H897 N884 0.985 . S
C898 C899 1.363 . S
C898 C904 1.379 . S
C898 N906 1.356 . S
C899 C898 1.363 . S
C899 C905 1.363 . S
C900 C901 1.363 . S
C900 C905 1.379 . S
C900 N907 1.356 . S
C901 C900 1.363 . S
C901 C904 1.363 . S
N902 C904 1.356 . S
N902 H914 0.984 . S
N902 H915 0.985 . S
N903 C905 1.356 . S
N903 H908 0.984 . S
N903 H909 0.985 . S
C904 C898 1.379 . S
C904 C901 1.363 . S
C904 N902 1.356 . S
C905 C899 1.363 . S
C905 C900 1.379 . S
C905 N903 1.356 . S
N906 C898 1.356 . S
N906 H912 0.984 . S
N906 H913 0.984 . S
N907 C900 1.356 . S
N907 H910 0.984 . S
N907 H911 0.985 . S
H908 N903 0.984 . S
H909 N903 0.985 . S
H910 N907 0.984 . S
H911 N907 0.985 . S
H912 N906 0.984 . S
H913 N906 0.984 . S
H914 N902 0.984 . S
H915 N902 0.985 . S
C916 C917 1.363 . S
C916 C922 1.379 . S
C916 N924 1.356 . S
C917 C916 1.363 . S
C917 C923 1.363 . S
C918 C919 1.363 . S
C918 C923 1.379 . S
C918 N925 1.356 . S
C919 C918 1.363 . S
C919 C922 1.363 . S
N920 C922 1.356 . S
N920 H932 0.984 . S
N920 H933 0.985 . S
N921 C923 1.356 . S
N921 H926 0.984 . S
N921 H927 0.985 . S
C922 C916 1.379 . S
C922 C919 1.363 . S
C922 N920 1.356 . S
C923 C917 1.363 . S
C923 C918 1.379 . S
C923 N921 1.356 . S
N924 C916 1.356 . S
N924 H930 0.984 . S
N924 H931 0.984 . S
N925 C918 1.356 . S
N925 H928 0.984 . S
N925 H929 0.985 . S
H926 N921 0.984 . S
H927 N921 0.985 . S
H928 N925 0.984 . S
H929 N925 0.985 . S
H930 N924 0.984 . S
H931 N924 0.984 . S
H932 N920 0.984 . S
H933 N920 0.985 . S
C934 C935 1.363 . S
C934 C940 1.379 . S
C934 N942 1.356 . S
C935 C934 1.363 . S
C935 C941 1.363 . S
C936 C937 1.363 . S
C936 C941 1.379 . S
C936 N943 1.356 . S
C937 C936 1.363 . S
C937 C940 1.363 . S
N938 C940 1.356 . S
N938 H950 0.984 . S
N938 H951 0.985 . S
N939 C941 1.356 . S
N939 H944 0.984 . S
N939 H945 0.985 . S
C940 C934 1.379 . S
C940 C937 1.363 . S
C940 N938 1.356 . S
C941 C935 1.363 . S
C941 C936 1.379 . S
C941 N939 1.356 . S
N942 C934 1.356 . S
N942 H948 0.984 . S
N942 H949 0.984 . S
N943 C936 1.356 . S
N943 H946 0.984 . S
N943 H947 0.985 . S
H944 N939 0.984 . S
H945 N939 0.985 . S
H946 N943 0.984 . S
H947 N943 0.985 . S
H948 N942 0.984 . S
H949 N942 0.984 . S
H950 N938 0.984 . S
H951 N938 0.985 . S
C952 C953 1.363 . S
C952 C958 1.379 1_556 S
C952 N960 1.356 . S
C953 C952 1.363 . S
C953 C959 1.363 . S
C954 C955 1.363 . S
C954 C959 1.379 1_554 S
C954 N961 1.356 . S
C955 C954 1.363 . S
C955 C958 1.363 . S
N956 C958 1.356 . S
N956 H968 0.984 . S
N956 H969 0.985 . S
N957 C959 1.356 . S
N957 H962 0.984 . S
N957 H963 0.985 . S
C958 C952 1.379 1_554 S
C958 C955 1.363 . S
C958 N956 1.356 . S
C959 C953 1.363 . S
C959 C954 1.379 1_556 S
C959 N957 1.356 . S
N960 C952 1.356 . S
N960 H966 0.984 . S
N960 H967 0.984 . S
N961 C954 1.356 . S
N961 H964 0.984 . S
N961 H965 0.985 . S
H962 N957 0.984 . S
H963 N957 0.985 . S
H964 N961 0.984 . S
H965 N961 0.985 . S
H966 N960 0.984 . S
H967 N960 0.984 . S
H968 N956 0.984 . S
H969 N956 0.985 . S
C970 C971 1.363 . S
C970 C976 1.379 1_554 S
C970 N978 1.356 . S
C971 C970 1.363 . S
C971 C977 1.363 . S
C972 C973 1.363 . S
C972 C977 1.379 1_556 S
C972 N979 1.356 . S
C973 C972 1.363 . S
C973 C976 1.363 . S
N974 C976 1.356 . S
N974 H986 0.984 . S
N974 H987 0.985 . S
N975 C977 1.356 . S
N975 H980 0.984 . S
N975 H981 0.985 . S
C976 C970 1.379 1_556 S
C976 C973 1.363 . S
C976 N974 1.356 . S
C977 C971 1.363 . S
C977 C972 1.379 1_554 S
C977 N975 1.356 . S
N978 C970 1.356 . S
N978 H984 0.984 . S
N978 H985 0.984 . S
N979 C972 1.356 . S
N979 H982 0.984 . S
N979 H983 0.985 . S
H980 N975 0.984 . S
H981 N975 0.985 . S
H982 N979 0.984 . S
H983 N979 0.985 . S
H984 N978 0.984 . S
H985 N978 0.984 . S
H986 N974 0.984 . S
H987 N974 0.985 . S
C988 C989 1.363 . S
C988 C994 1.379 1_554 S
C988 N996 1.356 . S
C989 C988 1.363 . S
C989 C995 1.363 . S
C990 C991 1.363 . S
C990 C995 1.379 1_556 S
C990 N997 1.356 . S
C991 C990 1.363 . S
C991 C994 1.363 . S
N992 C994 1.356 . S
N992 H1004 0.984 . S
N992 H1005 0.985 . S
N993 C995 1.356 . S
N993 H998 0.984 . S
N993 H999 0.985 . S
C994 C988 1.379 1_556 S
C994 C991 1.363 . S
C994 N992 1.356 . S
C995 C989 1.363 . S
C995 C990 1.379 1_554 S
C995 N993 1.356 . S
N996 C988 1.356 . S
N996 H1002 0.984 . S
N996 H1003 0.984 . S
N997 C990 1.356 . S
N997 H1000 0.984 . S
N997 H1001 0.985 . S
H998 N993 0.984 . S
H999 N993 0.985 . S
H1000 N997 0.984 . S
H1001 N997 0.985 . S
H1002 N996 0.984 . S
H1003 N996 0.984 . S
H1004 N992 0.984 . S
H1005 N992 0.985 . S
C1006 C1007 1.363 . S
C1006 C1012 1.379 1_556 S
C1006 N1014 1.356 . S
C1007 C1006 1.363 . S
C1007 C1013 1.363 . S
C1008 C1009 1.363 . S
C1008 C1013 1.379 1_554 S
C1008 N1015 1.356 . S
C1009 C1008 1.363 . S
C1009 C1012 1.363 . S
N1010 C1012 1.356 . S
N1010 H1022 0.984 . S
N1010 H1023 0.985 . S
N1011 C1013 1.356 . S
N1011 H1016 0.984 . S
N1011 H1017 0.985 . S
C1012 C1006 1.379 1_554 S
C1012 C1009 1.363 . S
C1012 N1010 1.356 . S
C1013 C1007 1.363 . S
C1013 C1008 1.379 1_556 S
C1013 N1011 1.356 . S
N1014 C1006 1.356 . S
N1014 H1020 0.984 . S
N1014 H1021 0.984 . S
N1015 C1008 1.356 . S
N1015 H1018 0.984 . S
N1015 H1019 0.985 . S
H1016 N1011 0.984 . S
H1017 N1011 0.985 . S
H1018 N1015 0.984 . S
H1019 N1015 0.985 . S
H1020 N1014 0.984 . S
H1021 N1014 0.984 . S
H1022 N1010 0.984 . S
H1023 N1010 0.985 . S
C1024 C1025 1.363 . S
C1024 C1030 1.379 1_545 S
C1024 N1032 1.356 . S
C1025 C1024 1.363 . S
C1025 C1031 1.363 . S
C1026 C1027 1.363 . S
C1026 C1031 1.379 1_565 S
C1026 N1033 1.356 . S
C1027 C1026 1.363 . S
C1027 C1030 1.363 . S
N1028 C1030 1.356 . S
N1028 H1040 0.984 . S
N1028 H1041 0.985 . S
N1029 C1031 1.356 . S
N1029 H1034 0.984 . S
N1029 H1035 0.985 . S
C1030 C1024 1.379 1_565 S
C1030 C1027 1.363 . S
C1030 N1028 1.356 . S
C1031 C1025 1.363 . S
C1031 C1026 1.379 1_545 S
C1031 N1029 1.356 . S
N1032 C1024 1.356 . S
N1032 H1038 0.984 . S
N1032 H1039 0.984 . S
N1033 C1026 1.356 . S
N1033 H1036 0.984 . S
N1033 H1037 0.985 . S
H1034 N1029 0.984 . S
H1035 N1029 0.985 . S
H1036 N1033 0.984 . S
H1037 N1033 0.985 . S
H1038 N1032 0.984 . S
H1039 N1032 0.984 . S
H1040 N1028 0.984 . S
H1041 N1028 0.985 . S
C1042 C1043 1.363 . S
C1042 C1048 1.379 1_655 S
C1042 N1050 1.356 . S
C1043 C1042 1.363 . S
C1043 C1049 1.363 . S
C1044 C1045 1.363 . S
C1044 C1049 1.379 1_455 S
C1044 N1051 1.356 . S
C1045 C1044 1.363 . S
C1045 C1048 1.363 . S
N1046 C1048 1.356 . S
N1046 H1058 0.984 . S
N1046 H1059 0.985 . S
N1047 C1049 1.356 . S
N1047 H1052 0.984 . S
N1047 H1053 0.985 . S
C1048 C1042 1.379 1_455 S
C1048 C1045 1.363 . S
C1048 N1046 1.356 . S
C1049 C1043 1.363 . S
C1049 C1044 1.379 1_655 S
C1049 N1047 1.356 . S
N1050 C1042 1.356 . S
N1050 H1056 0.984 . S
N1050 H1057 0.984 . S
N1051 C1044 1.356 . S
N1051 H1054 0.984 . S
N1051 H1055 0.985 . S
H1052 N1047 0.984 . S
H1053 N1047 0.985 . S
H1054 N1051 0.984 . S
H1055 N1051 0.985 . S
H1056 N1050 0.984 . S
H1057 N1050 0.984 . S
H1058 N1046 0.984 . S
H1059 N1046 0.985 . S
C1060 C1061 1.363 . S
C1060 C1066 1.379 1_545 S
C1060 N1068 1.356 . S
C1061 C1060 1.363 . S
C1061 C1067 1.363 . S
C1062 C1063 1.363 . S
C1062 C1067 1.379 1_565 S
C1062 N1069 1.356 . S
C1063 C1062 1.363 . S
C1063 C1066 1.363 . S
N1064 C1066 1.356 . S
N1064 H1076 0.984 . S
N1064 H1077 0.985 . S
N1065 C1067 1.356 . S
N1065 H1070 0.984 . S
N1065 H1071 0.985 . S
C1066 C1060 1.379 1_565 S
C1066 C1063 1.363 . S
C1066 N1064 1.356 . S
C1067 C1061 1.363 . S
C1067 C1062 1.379 1_545 S
C1067 N1065 1.356 . S
N1068 C1060 1.356 . S
N1068 H1074 0.984 . S
N1068 H1075 0.984 . S
N1069 C1062 1.356 . S
N1069 H1072 0.984 . S
N1069 H1073 0.985 . S
H1070 N1065 0.984 . S
H1071 N1065 0.985 . S
H1072 N1069 0.984 . S
H1073 N1069 0.985 . S
H1074 N1068 0.984 . S
H1075 N1068 0.984 . S
H1076 N1064 0.984 . S
H1077 N1064 0.985 . S
C1078 C1079 1.363 . S
C1078 C1084 1.379 1_455 S
C1078 N1086 1.356 . S
C1079 C1078 1.363 . S
C1079 C1085 1.363 . S
C1080 C1081 1.363 . S
C1080 C1085 1.379 1_655 S
C1080 N1087 1.356 . S
C1081 C1080 1.363 . S
C1081 C1084 1.363 . S
N1082 C1084 1.356 . S
N1082 H1094 0.984 . S
N1082 H1095 0.985 . S
N1083 C1085 1.356 . S
N1083 H1088 0.984 . S
N1083 H1089 0.985 . S
C1084 C1078 1.379 1_655 S
C1084 C1081 1.363 . S
C1084 N1082 1.356 . S
C1085 C1079 1.363 . S
C1085 C1080 1.379 1_455 S
C1085 N1083 1.356 . S
N1086 C1078 1.356 . S
N1086 H1092 0.984 . S
N1086 H1093 0.984 . S
N1087 C1080 1.356 . S
N1087 H1090 0.984 . S
N1087 H1091 0.985 . S
H1088 N1083 0.984 . S
H1089 N1083 0.985 . S
H1090 N1087 0.984 . S
H1091 N1087 0.985 . S
H1092 N1086 0.984 . S
H1093 N1086 0.984 . S
H1094 N1082 0.984 . S
H1095 N1082 0.985 . S
C1096 C1097 1.363 . S
C1096 C1102 1.379 1_565 S
C1096 N1104 1.356 . S
C1097 C1096 1.363 . S
C1097 C1103 1.363 . S
C1098 C1099 1.363 . S
C1098 C1103 1.379 1_545 S
C1098 N1105 1.356 . S
C1099 C1098 1.363 . S
C1099 C1102 1.363 . S
N1100 C1102 1.356 . S
N1100 H1112 0.984 . S
N1100 H1113 0.985 . S
N1101 C1103 1.356 . S
N1101 H1106 0.984 . S
N1101 H1107 0.985 . S
C1102 C1096 1.379 1_545 S
C1102 C1099 1.363 . S
C1102 N1100 1.356 . S
C1103 C1097 1.363 . S
C1103 C1098 1.379 1_565 S
C1103 N1101 1.356 . S
N1104 C1096 1.356 . S
N1104 H1110 0.984 . S
N1104 H1111 0.984 . S
N1105 C1098 1.356 . S
N1105 H1108 0.984 . S
N1105 H1109 0.985 . S
H1106 N1101 0.984 . S
H1107 N1101 0.985 . S
H1108 N1105 0.984 . S
H1109 N1105 0.985 . S
H1110 N1104 0.984 . S
H1111 N1104 0.984 . S
H1112 N1100 0.984 . S
H1113 N1100 0.985 . S
C1114 C1115 1.363 . S
C1114 C1120 1.379 1_655 S
C1114 N1122 1.356 . S
C1115 C1114 1.363 . S
C1115 C1121 1.363 . S
C1116 C1117 1.363 . S
C1116 C1121 1.379 1_455 S
C1116 N1123 1.356 . S
C1117 C1116 1.363 . S
C1117 C1120 1.363 . S
N1118 C1120 1.356 . S
N1118 H1130 0.984 . S
N1118 H1131 0.985 . S
N1119 C1121 1.356 . S
N1119 H1124 0.984 . S
N1119 H1125 0.985 . S
C1120 C1114 1.379 1_455 S
C1120 C1117 1.363 . S
C1120 N1118 1.356 . S
C1121 C1115 1.363 . S
C1121 C1116 1.379 1_655 S
C1121 N1119 1.356 . S
N1122 C1114 1.356 . S
N1122 H1128 0.984 . S
N1122 H1129 0.984 . S
N1123 C1116 1.356 . S
N1123 H1126 0.984 . S
N1123 H1127 0.985 . S
H1124 N1119 0.984 . S
H1125 N1119 0.985 . S
H1126 N1123 0.984 . S
H1127 N1123 0.985 . S
H1128 N1122 0.984 . S
H1129 N1122 0.984 . S
H1130 N1118 0.984 . S
H1131 N1118 0.985 . S
C1132 C1133 1.363 . S
C1132 C1138 1.379 1_565 S
C1132 N1140 1.356 . S
C1133 C1132 1.363 . S
C1133 C1139 1.363 . S
C1134 C1135 1.363 . S
C1134 C1139 1.379 1_545 S
C1134 N1141 1.356 . S
C1135 C1134 1.363 . S
C1135 C1138 1.363 . S
N1136 C1138 1.356 . S
N1136 H1148 0.984 . S
N1136 H1149 0.985 . S
N1137 C1139 1.356 . S
N1137 H1142 0.984 . S
N1137 H1143 0.985 . S
C1138 C1132 1.379 1_545 S
C1138 C1135 1.363 . S
C1138 N1136 1.356 . S
C1139 C1133 1.363 . S
C1139 C1134 1.379 1_565 S
C1139 N1137 1.356 . S
N1140 C1132 1.356 . S
N1140 H1146 0.984 . S
N1140 H1147 0.984 . S
N1141 C1134 1.356 . S
N1141 H1144 0.984 . S
N1141 H1145 0.985 . S
H1142 N1137 0.984 . S
H1143 N1137 0.985 . S
H1144 N1141 0.984 . S
H1145 N1141 0.985 . S
H1146 N1140 0.984 . S
H1147 N1140 0.984 . S
H1148 N1136 0.984 . S
H1149 N1136 0.985 . S
C1150 C1151 1.363 . S
C1150 C1156 1.379 1_655 S
C1150 N1158 1.356 . S
C1151 C1150 1.363 . S
C1151 C1157 1.363 . S
C1152 C1153 1.363 . S
C1152 C1157 1.379 1_455 S
C1152 N1159 1.356 . S
C1153 C1152 1.363 . S
C1153 C1156 1.363 . S
N1154 C1156 1.356 . S
N1154 H1166 0.984 . S
N1154 H1167 0.985 . S
N1155 C1157 1.356 . S
N1155 H1160 0.984 . S
N1155 H1161 0.985 . S
C1156 C1150 1.379 1_455 S
C1156 C1153 1.363 . S
C1156 N1154 1.356 . S
C1157 C1151 1.363 . S
C1157 C1152 1.379 1_655 S
C1157 N1155 1.356 . S
N1158 C1150 1.356 . S
N1158 H1164 0.984 . S
N1158 H1165 0.984 . S
N1159 C1152 1.356 . S
N1159 H1162 0.984 . S
N1159 H1163 0.985 . S
H1160 N1155 0.984 . S
H1161 N1155 0.985 . S
H1162 N1159 0.984 . S
H1163 N1159 0.985 . S
H1164 N1158 0.984 . S
H1165 N1158 0.984 . S
H1166 N1154 0.984 . S
H1167 N1154 0.985 . S
C1168 C1169 1.363 . S
C1168 C1174 1.379 . S
C1168 N1176 1.356 . S
C1169 C1168 1.363 . S
C1169 C1175 1.363 . S
C1170 C1171 1.363 . S
C1170 C1175 1.379 . S
C1170 N1177 1.356 . S
C1171 C1170 1.363 . S
C1171 C1174 1.363 . S
N1172 C1174 1.356 . S
N1172 H1184 0.984 . S
N1172 H1185 0.985 . S
N1173 C1175 1.356 . S
N1173 H1178 0.984 . S
N1173 H1179 0.985 . S
C1174 C1168 1.379 . S
C1174 C1171 1.363 . S
C1174 N1172 1.356 . S
C1175 C1169 1.363 . S
C1175 C1170 1.379 . S
C1175 N1173 1.356 . S
N1176 C1168 1.356 . S
N1176 H1182 0.984 . S
N1176 H1183 0.984 . S
N1177 C1170 1.356 . S
N1177 H1180 0.984 . S
N1177 H1181 0.985 . S
H1178 N1173 0.984 . S
H1179 N1173 0.985 . S
H1180 N1177 0.984 . S
H1181 N1177 0.985 . S
H1182 N1176 0.984 . S
H1183 N1176 0.984 . S
H1184 N1172 0.984 . S
H1185 N1172 0.985 . S
C1186 C1187 1.363 . S
C1186 C1192 1.379 . S
C1186 N1194 1.356 . S
C1187 C1186 1.363 . S
C1187 C1193 1.363 . S
C1188 C1189 1.363 . S
C1188 C1193 1.379 . S
C1188 N1195 1.356 . S
C1189 C1188 1.363 . S
C1189 C1192 1.363 . S
N1190 C1192 1.356 . S
N1190 H1202 0.984 . S
N1190 H1203 0.985 . S
N1191 C1193 1.356 . S
N1191 H1196 0.984 . S
N1191 H1197 0.985 . S
C1192 C1186 1.379 . S
C1192 C1189 1.363 . S
C1192 N1190 1.356 . S
C1193 C1187 1.363 . S
C1193 C1188 1.379 . S
C1193 N1191 1.356 . S
N1194 C1186 1.356 . S
N1194 H1200 0.984 . S
N1194 H1201 0.984 . S
N1195 C1188 1.356 . S
N1195 H1198 0.984 . S
N1195 H1199 0.985 . S
H1196 N1191 0.984 . S
H1197 N1191 0.985 . S
H1198 N1195 0.984 . S
H1199 N1195 0.985 . S
H1200 N1194 0.984 . S
H1201 N1194 0.984 . S
H1202 N1190 0.984 . S
H1203 N1190 0.985 . S
C1204 C1205 1.363 . S
C1204 C1210 1.379 . S
C1204 N1212 1.356 . S
C1205 C1204 1.363 . S
C1205 C1211 1.363 . S
C1206 C1207 1.363 . S
C1206 C1211 1.379 . S
C1206 N1213 1.356 . S
C1207 C1206 1.363 . S
C1207 C1210 1.363 . S
N1208 C1210 1.356 . S
N1208 H1220 0.984 . S
N1208 H1221 0.985 . S
N1209 C1211 1.356 . S
N1209 H1214 0.984 . S
N1209 H1215 0.985 . S
C1210 C1204 1.379 . S
C1210 C1207 1.363 . S
C1210 N1208 1.356 . S
C1211 C1205 1.363 . S
C1211 C1206 1.379 . S
C1211 N1209 1.356 . S
N1212 C1204 1.356 . S
N1212 H1218 0.984 . S
N1212 H1219 0.984 . S
N1213 C1206 1.356 . S
N1213 H1216 0.984 . S
N1213 H1217 0.985 . S
H1214 N1209 0.984 . S
H1215 N1209 0.985 . S
H1216 N1213 0.984 . S
H1217 N1213 0.985 . S
H1218 N1212 0.984 . S
H1219 N1212 0.984 . S
H1220 N1208 0.984 . S
H1221 N1208 0.985 . S
C1222 C1223 1.363 . S
C1222 C1228 1.379 . S
C1222 N1230 1.356 . S
C1223 C1222 1.363 . S
C1223 C1229 1.363 . S
C1224 C1225 1.363 . S
C1224 C1229 1.379 . S
C1224 N1231 1.356 . S
C1225 C1224 1.363 . S
C1225 C1228 1.363 . S
N1226 C1228 1.356 . S
N1226 H1238 0.984 . S
N1226 H1239 0.985 . S
N1227 C1229 1.356 . S
N1227 H1232 0.984 . S
N1227 H1233 0.985 . S
C1228 C1222 1.379 . S
C1228 C1225 1.363 . S
C1228 N1226 1.356 . S
C1229 C1223 1.363 . S
C1229 C1224 1.379 . S
C1229 N1227 1.356 . S
N1230 C1222 1.356 . S
N1230 H1236 0.984 . S
N1230 H1237 0.984 . S
N1231 C1224 1.356 . S
N1231 H1234 0.984 . S
N1231 H1235 0.985 . S
H1232 N1227 0.984 . S
H1233 N1227 0.985 . S
H1234 N1231 0.984 . S
H1235 N1231 0.985 . S
H1236 N1230 0.984 . S
H1237 N1230 0.984 . S
H1238 N1226 0.984 . S
H1239 N1226 0.985 . S
C1240 C1241 1.363 . S
C1240 C1246 1.379 . S
C1240 N1248 1.356 . S
C1241 C1240 1.363 . S
C1241 C1247 1.363 . S
C1242 C1243 1.363 . S
C1242 C1247 1.379 . S
C1242 N1249 1.356 . S
C1243 C1242 1.363 . S
C1243 C1246 1.363 . S
N1244 C1246 1.356 . S
N1244 H1256 0.984 . S
N1244 H1257 0.985 . S
N1245 C1247 1.356 . S
N1245 H1250 0.984 . S
N1245 H1251 0.985 . S
C1246 C1240 1.379 . S
C1246 C1243 1.363 . S
C1246 N1244 1.356 . S
C1247 C1241 1.363 . S
C1247 C1242 1.379 . S
C1247 N1245 1.356 . S
N1248 C1240 1.356 . S
N1248 H1254 0.984 . S
N1248 H1255 0.984 . S
N1249 C1242 1.356 . S
N1249 H1252 0.984 . S
N1249 H1253 0.985 . S
H1250 N1245 0.984 . S
H1251 N1245 0.985 . S
H1252 N1249 0.984 . S
H1253 N1249 0.985 . S
H1254 N1248 0.984 . S
H1255 N1248 0.984 . S
H1256 N1244 0.984 . S
H1257 N1244 0.985 . S
C1258 C1259 1.363 . S
C1258 C1264 1.379 . S
C1258 N1266 1.356 . S
C1259 C1258 1.363 . S
C1259 C1265 1.363 . S
C1260 C1261 1.363 . S
C1260 C1265 1.379 . S
C1260 N1267 1.356 . S
C1261 C1260 1.363 . S
C1261 C1264 1.363 . S
N1262 C1264 1.356 . S
N1262 H1274 0.984 . S
N1262 H1275 0.985 . S
N1263 C1265 1.356 . S
N1263 H1268 0.984 . S
N1263 H1269 0.985 . S
C1264 C1258 1.379 . S
C1264 C1261 1.363 . S
C1264 N1262 1.356 . S
C1265 C1259 1.363 . S
C1265 C1260 1.379 . S
C1265 N1263 1.356 . S
N1266 C1258 1.356 . S
N1266 H1272 0.984 . S
N1266 H1273 0.984 . S
N1267 C1260 1.356 . S
N1267 H1270 0.984 . S
N1267 H1271 0.985 . S
H1268 N1263 0.984 . S
H1269 N1263 0.985 . S
H1270 N1267 0.984 . S
H1271 N1267 0.985 . S
H1272 N1266 0.984 . S
H1273 N1266 0.984 . S
H1274 N1262 0.984 . S
H1275 N1262 0.985 . S
C1276 C1277 1.363 . S
C1276 C1282 1.379 . S
C1276 N1284 1.356 . S
C1277 C1276 1.363 . S
C1277 C1283 1.363 . S
C1278 C1279 1.363 . S
C1278 C1283 1.379 . S
C1278 N1285 1.356 . S
C1279 C1278 1.363 . S
C1279 C1282 1.363 . S
N1280 C1282 1.356 . S
N1280 H1292 0.984 . S
N1280 H1293 0.985 . S
N1281 C1283 1.356 . S
N1281 H1286 0.984 . S
N1281 H1287 0.985 . S
C1282 C1276 1.379 . S
C1282 C1279 1.363 . S
C1282 N1280 1.356 . S
C1283 C1277 1.363 . S
C1283 C1278 1.379 . S
C1283 N1281 1.356 . S
N1284 C1276 1.356 . S
N1284 H1290 0.984 . S
N1284 H1291 0.984 . S
N1285 C1278 1.356 . S
N1285 H1288 0.984 . S
N1285 H1289 0.985 . S
H1286 N1281 0.984 . S
H1287 N1281 0.985 . S
H1288 N1285 0.984 . S
H1289 N1285 0.985 . S
H1290 N1284 0.984 . S
H1291 N1284 0.984 . S
H1292 N1280 0.984 . S
H1293 N1280 0.985 . S
C1294 C1295 1.363 . S
C1294 C1300 1.379 . S
C1294 N1302 1.356 . S
C1295 C1294 1.363 . S
C1295 C1301 1.363 . S
C1296 C1297 1.363 . S
C1296 C1301 1.379 . S
C1296 N1303 1.356 . S
C1297 C1296 1.363 . S
C1297 C1300 1.363 . S
N1298 C1300 1.356 . S
N1298 H1310 0.984 . S
N1298 H1311 0.985 . S
N1299 C1301 1.356 . S
N1299 H1304 0.984 . S
N1299 H1305 0.985 . S
C1300 C1294 1.379 . S
C1300 C1297 1.363 . S
C1300 N1298 1.356 . S
C1301 C1295 1.363 . S
C1301 C1296 1.379 . S
C1301 N1299 1.356 . S
N1302 C1294 1.356 . S
N1302 H1308 0.984 . S
N1302 H1309 0.984 . S
N1303 C1296 1.356 . S
N1303 H1306 0.984 . S
N1303 H1307 0.985 . S
H1304 N1299 0.984 . S
H1305 N1299 0.985 . S
H1306 N1303 0.984 . S
H1307 N1303 0.985 . S
H1308 N1302 0.984 . S
H1309 N1302 0.984 . S
H1310 N1298 0.984 . S
H1311 N1298 0.985 . S
C1312 C1313 1.363 . S
C1312 C1318 1.379 . S
C1312 N1320 1.356 . S
C1313 C1312 1.363 . S
C1313 C1319 1.363 . S
C1314 C1315 1.363 . S
C1314 C1319 1.379 . S
C1314 N1321 1.356 . S
C1315 C1314 1.363 . S
C1315 C1318 1.363 . S
N1316 C1318 1.356 . S
N1316 H1328 0.984 . S
N1316 H1329 0.985 . S
N1317 C1319 1.356 . S
N1317 H1322 0.984 . S
N1317 H1323 0.985 . S
C1318 C1312 1.379 . S
C1318 C1315 1.363 . S
C1318 N1316 1.356 . S
C1319 C1313 1.363 . S
C1319 C1314 1.379 . S
C1319 N1317 1.356 . S
N1320 C1312 1.356 . S
N1320 H1326 0.984 . S
N1320 H1327 0.984 . S
N1321 C1314 1.356 . S
N1321 H1324 0.984 . S
N1321 H1325 0.985 . S
H1322 N1317 0.984 . S
H1323 N1317 0.985 . S
H1324 N1321 0.984 . S
H1325 N1321 0.985 . S
H1326 N1320 0.984 . S
H1327 N1320 0.984 . S
H1328 N1316 0.984 . S
H1329 N1316 0.985 . S
C1330 C1331 1.363 . S
C1330 C1336 1.379 . S
C1330 N1338 1.356 . S
C1331 C1330 1.363 . S
C1331 C1337 1.363 . S
C1332 C1333 1.363 . S
C1332 C1337 1.379 . S
C1332 N1339 1.356 . S
C1333 C1332 1.363 . S
C1333 C1336 1.363 . S
N1334 C1336 1.356 . S
N1334 H1346 0.984 . S
N1334 H1347 0.985 . S
N1335 C1337 1.356 . S
N1335 H1340 0.984 . S
N1335 H1341 0.985 . S
C1336 C1330 1.379 . S
C1336 C1333 1.363 . S
C1336 N1334 1.356 . S
C1337 C1331 1.363 . S
C1337 C1332 1.379 . S
C1337 N1335 1.356 . S
N1338 C1330 1.356 . S
N1338 H1344 0.984 . S
N1338 H1345 0.984 . S
N1339 C1332 1.356 . S
N1339 H1342 0.984 . S
N1339 H1343 0.985 . S
H1340 N1335 0.984 . S
H1341 N1335 0.985 . S
H1342 N1339 0.984 . S
H1343 N1339 0.985 . S
H1344 N1338 0.984 . S
H1345 N1338 0.984 . S
H1346 N1334 0.984 . S
H1347 N1334 0.985 . S
C1348 C1349 1.363 . S
C1348 C1354 1.379 . S
C1348 N1356 1.356 . S
C1349 C1348 1.363 . S
C1349 C1355 1.363 . S
C1350 C1351 1.363 . S
C1350 C1355 1.379 . S
C1350 N1357 1.356 . S
C1351 C1350 1.363 . S
C1351 C1354 1.363 . S
N1352 C1354 1.356 . S
N1352 H1364 0.984 . S
N1352 H1365 0.985 . S
N1353 C1355 1.356 . S
N1353 H1358 0.984 . S
N1353 H1359 0.985 . S
C1354 C1348 1.379 . S
C1354 C1351 1.363 . S
C1354 N1352 1.356 . S
C1355 C1349 1.363 . S
C1355 C1350 1.379 . S
C1355 N1353 1.356 . S
N1356 C1348 1.356 . S
N1356 H1362 0.984 . S
N1356 H1363 0.984 . S
N1357 C1350 1.356 . S
N1357 H1360 0.984 . S
N1357 H1361 0.985 . S
H1358 N1353 0.984 . S
H1359 N1353 0.985 . S
H1360 N1357 0.984 . S
H1361 N1357 0.985 . S
H1362 N1356 0.984 . S
H1363 N1356 0.984 . S
H1364 N1352 0.984 . S
H1365 N1352 0.985 . S
C1366 C1367 1.363 . S
C1366 C1372 1.379 . S
C1366 N1374 1.356 . S
C1367 C1366 1.363 . S
C1367 C1373 1.363 . S
C1368 C1369 1.363 . S
C1368 C1373 1.379 . S
C1368 N1375 1.356 . S
C1369 C1368 1.363 . S
C1369 C1372 1.363 . S
N1370 C1372 1.356 . S
N1370 H1382 0.984 . S
N1370 H1383 0.985 . S
N1371 C1373 1.356 . S
N1371 H1376 0.984 . S
N1371 H1377 0.985 . S
C1372 C1366 1.379 . S
C1372 C1369 1.363 . S
C1372 N1370 1.356 . S
C1373 C1367 1.363 . S
C1373 C1368 1.379 . S
C1373 N1371 1.356 . S
N1374 C1366 1.356 . S
N1374 H1380 0.984 . S
N1374 H1381 0.984 . S
N1375 C1368 1.356 . S
N1375 H1378 0.984 . S
N1375 H1379 0.985 . S
H1376 N1371 0.984 . S
H1377 N1371 0.985 . S
H1378 N1375 0.984 . S
H1379 N1375 0.985 . S
H1380 N1374 0.984 . S
H1381 N1374 0.984 . S
H1382 N1370 0.984 . S
H1383 N1370 0.985 . S
C1384 C1385 1.363 . S
C1384 C1390 1.379 . S
C1384 N1392 1.356 . S
C1385 C1384 1.363 . S
C1385 C1391 1.363 . S
C1386 C1387 1.363 . S
C1386 C1391 1.379 . S
C1386 N1393 1.356 . S
C1387 C1386 1.363 . S
C1387 C1390 1.363 . S
N1388 C1390 1.356 . S
N1388 H1400 0.984 . S
N1388 H1401 0.985 . S
N1389 C1391 1.356 . S
N1389 H1394 0.984 . S
N1389 H1395 0.985 . S
C1390 C1384 1.379 . S
C1390 C1387 1.363 . S
C1390 N1388 1.356 . S
C1391 C1385 1.363 . S
C1391 C1386 1.379 . S
C1391 N1389 1.356 . S
N1392 C1384 1.356 . S
N1392 H1398 0.984 . S
N1392 H1399 0.984 . S
N1393 C1386 1.356 . S
N1393 H1396 0.984 . S
N1393 H1397 0.985 . S
H1394 N1389 0.984 . S
H1395 N1389 0.985 . S
H1396 N1393 0.984 . S
H1397 N1393 0.985 . S
H1398 N1392 0.984 . S
H1399 N1392 0.984 . S
H1400 N1388 0.984 . S
H1401 N1388 0.985 . S
C1402 C1403 1.363 . S
C1402 C1408 1.379 . S
C1402 N1410 1.356 . S
C1403 C1402 1.363 . S
C1403 C1409 1.363 . S
C1404 C1405 1.363 . S
C1404 C1409 1.379 . S
C1404 N1411 1.356 . S
C1405 C1404 1.363 . S
C1405 C1408 1.363 . S
N1406 C1408 1.356 . S
N1406 H1418 0.984 . S
N1406 H1419 0.985 . S
N1407 C1409 1.356 . S
N1407 H1412 0.984 . S
N1407 H1413 0.985 . S
C1408 C1402 1.379 . S
C1408 C1405 1.363 . S
C1408 N1406 1.356 . S
C1409 C1403 1.363 . S
C1409 C1404 1.379 . S
C1409 N1407 1.356 . S
N1410 C1402 1.356 . S
N1410 H1416 0.984 . S
N1410 H1417 0.984 . S
N1411 C1404 1.356 . S
N1411 H1414 0.984 . S
N1411 H1415 0.985 . S
H1412 N1407 0.984 . S
H1413 N1407 0.985 . S
H1414 N1411 0.984 . S
H1415 N1411 0.985 . S
H1416 N1410 0.984 . S
H1417 N1410 0.984 . S
H1418 N1406 0.984 . S
H1419 N1406 0.985 . S
C1420 C1421 1.363 . S
C1420 C1426 1.379 . S
C1420 N1428 1.356 . S
C1421 C1420 1.363 . S
C1421 C1427 1.363 . S
C1422 C1423 1.363 . S
C1422 C1427 1.379 . S
C1422 N1429 1.356 . S
C1423 C1422 1.363 . S
C1423 C1426 1.363 . S
N1424 C1426 1.356 . S
N1424 H1436 0.984 . S
N1424 H1437 0.985 . S
N1425 C1427 1.356 . S
N1425 H1430 0.984 . S
N1425 H1431 0.985 . S
C1426 C1420 1.379 . S
C1426 C1423 1.363 . S
C1426 N1424 1.356 . S
C1427 C1421 1.363 . S
C1427 C1422 1.379 . S
C1427 N1425 1.356 . S
N1428 C1420 1.356 . S
N1428 H1434 0.984 . S
N1428 H1435 0.984 . S
N1429 C1422 1.356 . S
N1429 H1432 0.984 . S
N1429 H1433 0.985 . S
H1430 N1425 0.984 . S
H1431 N1425 0.985 . S
H1432 N1429 0.984 . S
H1433 N1429 0.985 . S
H1434 N1428 0.984 . S
H1435 N1428 0.984 . S
H1436 N1424 0.984 . S
H1437 N1424 0.985 . S
C1438 C1439 1.363 . S
C1438 C1444 1.379 . S
C1438 N1446 1.356 . S
C1439 C1438 1.363 . S
C1439 C1445 1.363 . S
C1440 C1441 1.363 . S
C1440 C1445 1.379 . S
C1440 N1447 1.356 . S
C1441 C1440 1.363 . S
C1441 C1444 1.363 . S
N1442 C1444 1.356 . S
N1442 H1454 0.984 . S
N1442 H1455 0.985 . S
N1443 C1445 1.356 . S
N1443 H1448 0.984 . S
N1443 H1449 0.985 . S
C1444 C1438 1.379 . S
C1444 C1441 1.363 . S
C1444 N1442 1.356 . S
C1445 C1439 1.363 . S
C1445 C1440 1.379 . S
C1445 N1443 1.356 . S
N1446 C1438 1.356 . S
N1446 H1452 0.984 . S
N1446 H1453 0.984 . S
N1447 C1440 1.356 . S
N1447 H1450 0.984 . S
N1447 H1451 0.985 . S
H1448 N1443 0.984 . S
H1449 N1443 0.985 . S
H1450 N1447 0.984 . S
H1451 N1447 0.985 . S
H1452 N1446 0.984 . S
H1453 N1446 0.984 . S
H1454 N1442 0.984 . S
H1455 N1442 0.985 . S
C1456 C1457 1.363 . S
C1456 C1462 1.379 . S
C1456 N1464 1.356 . S
C1457 C1456 1.363 . S
C1457 C1463 1.363 . S
C1458 C1459 1.363 . S
C1458 C1463 1.379 . S
C1458 N1465 1.356 . S
C1459 C1458 1.363 . S
C1459 C1462 1.363 . S
N1460 C1462 1.356 . S
N1460 H1472 0.984 . S
N1460 H1473 0.985 . S
N1461 C1463 1.356 . S
N1461 H1466 0.984 . S
N1461 H1467 0.985 . S
C1462 C1456 1.379 . S
C1462 C1459 1.363 . S
C1462 N1460 1.356 . S
C1463 C1457 1.363 . S
C1463 C1458 1.379 . S
C1463 N1461 1.356 . S
N1464 C1456 1.356 . S
N1464 H1470 0.984 . S
N1464 H1471 0.984 . S
N1465 C1458 1.356 . S
N1465 H1468 0.984 . S
N1465 H1469 0.985 . S
H1466 N1461 0.984 . S
H1467 N1461 0.985 . S
H1468 N1465 0.984 . S
H1469 N1465 0.985 . S
H1470 N1464 0.984 . S
H1471 N1464 0.984 . S
H1472 N1460 0.984 . S
H1473 N1460 0.985 . S
C1474 C1475 1.363 . S
C1474 C1480 1.379 . S
C1474 N1482 1.356 . S
C1475 C1474 1.363 . S
C1475 C1481 1.363 . S
C1476 C1477 1.363 . S
C1476 C1481 1.379 . S
C1476 N1483 1.356 . S
C1477 C1476 1.363 . S
C1477 C1480 1.363 . S
N1478 C1480 1.356 . S
N1478 H1490 0.984 . S
N1478 H1491 0.985 . S
N1479 C1481 1.356 . S
N1479 H1484 0.984 . S
N1479 H1485 0.985 . S
C1480 C1474 1.379 . S
C1480 C1477 1.363 . S
C1480 N1478 1.356 . S
C1481 C1475 1.363 . S
C1481 C1476 1.379 . S
C1481 N1479 1.356 . S
N1482 C1474 1.356 . S
N1482 H1488 0.984 . S
N1482 H1489 0.984 . S
N1483 C1476 1.356 . S
N1483 H1486 0.984 . S
N1483 H1487 0.985 . S
H1484 N1479 0.984 . S
H1485 N1479 0.985 . S
H1486 N1483 0.984 . S
H1487 N1483 0.985 . S
H1488 N1482 0.984 . S
H1489 N1482 0.984 . S
H1490 N1478 0.984 . S
H1491 N1478 0.985 . S
C1492 C1493 1.363 . S
C1492 C1498 1.379 . S
C1492 N1500 1.356 . S
C1493 C1492 1.363 . S
C1493 C1499 1.363 . S
C1494 C1495 1.363 . S
C1494 C1499 1.379 . S
C1494 N1501 1.356 . S
C1495 C1494 1.363 . S
C1495 C1498 1.363 . S
N1496 C1498 1.356 . S
N1496 H1508 0.984 . S
N1496 H1509 0.985 . S
N1497 C1499 1.356 . S
N1497 H1502 0.984 . S
N1497 H1503 0.985 . S
C1498 C1492 1.379 . S
C1498 C1495 1.363 . S
C1498 N1496 1.356 . S
C1499 C1493 1.363 . S
C1499 C1494 1.379 . S
C1499 N1497 1.356 . S
N1500 C1492 1.356 . S
N1500 H1506 0.984 . S
N1500 H1507 0.984 . S
N1501 C1494 1.356 . S
N1501 H1504 0.984 . S
N1501 H1505 0.985 . S
H1502 N1497 0.984 . S
H1503 N1497 0.985 . S
H1504 N1501 0.984 . S
H1505 N1501 0.985 . S
H1506 N1500 0.984 . S
H1507 N1500 0.984 . S
H1508 N1496 0.984 . S
H1509 N1496 0.985 . S
C1510 C1511 1.363 . S
C1510 C1516 1.379 . S
C1510 N1518 1.356 . S
C1511 C1510 1.363 . S
C1511 C1517 1.363 . S
C1512 C1513 1.363 . S
C1512 C1517 1.379 . S
C1512 N1519 1.356 . S
C1513 C1512 1.363 . S
C1513 C1516 1.363 . S
N1514 C1516 1.356 . S
N1514 H1526 0.984 . S
N1514 H1527 0.985 . S
N1515 C1517 1.356 . S
N1515 H1520 0.984 . S
N1515 H1521 0.985 . S
C1516 C1510 1.379 . S
C1516 C1513 1.363 . S
C1516 N1514 1.356 . S
C1517 C1511 1.363 . S
C1517 C1512 1.379 . S
C1517 N1515 1.356 . S
N1518 C1510 1.356 . S
N1518 H1524 0.984 . S
N1518 H1525 0.984 . S
N1519 C1512 1.356 . S
N1519 H1522 0.984 . S
N1519 H1523 0.985 . S
H1520 N1515 0.984 . S
H1521 N1515 0.985 . S
H1522 N1519 0.984 . S
H1523 N1519 0.985 . S
H1524 N1518 0.984 . S
H1525 N1518 0.984 . S
H1526 N1514 0.984 . S
H1527 N1514 0.985 . S
C1528 C1529 1.363 . S
C1528 C1534 1.379 . S
C1528 N1536 1.356 . S
C1529 C1528 1.363 . S
C1529 C1535 1.363 . S
C1530 C1531 1.363 . S
C1530 C1535 1.379 . S
C1530 N1537 1.356 . S
C1531 C1530 1.363 . S
C1531 C1534 1.363 . S
N1532 C1534 1.356 . S
N1532 H1544 0.984 . S
N1532 H1545 0.985 . S
N1533 C1535 1.356 . S
N1533 H1538 0.984 . S
N1533 H1539 0.985 . S
C1534 C1528 1.379 . S
C1534 C1531 1.363 . S
C1534 N1532 1.356 . S
C1535 C1529 1.363 . S
C1535 C1530 1.379 . S
C1535 N1533 1.356 . S
N1536 C1528 1.356 . S
N1536 H1542 0.984 . S
N1536 H1543 0.984 . S
N1537 C1530 1.356 . S
N1537 H1540 0.984 . S
N1537 H1541 0.985 . S
H1538 N1533 0.984 . S
H1539 N1533 0.985 . S
H1540 N1537 0.984 . S
H1541 N1537 0.985 . S
H1542 N1536 0.984 . S
H1543 N1536 0.984 . S
H1544 N1532 0.984 . S
H1545 N1532 0.985 . S
C1546 C1547 1.363 . S
C1546 C1552 1.379 . S
C1546 N1554 1.356 . S
C1547 C1546 1.363 . S
C1547 C1553 1.363 . S
C1548 C1549 1.363 . S
C1548 C1553 1.379 . S
C1548 N1555 1.356 . S
C1549 C1548 1.363 . S
C1549 C1552 1.363 . S
N1550 C1552 1.356 . S
N1550 H1562 0.984 . S
N1550 H1563 0.985 . S
N1551 C1553 1.356 . S
N1551 H1556 0.984 . S
N1551 H1557 0.985 . S
C1552 C1546 1.379 . S
C1552 C1549 1.363 . S
C1552 N1550 1.356 . S
C1553 C1547 1.363 . S
C1553 C1548 1.379 . S
C1553 N1551 1.356 . S
N1554 C1546 1.356 . S
N1554 H1560 0.984 . S
N1554 H1561 0.984 . S
N1555 C1548 1.356 . S
N1555 H1558 0.984 . S
N1555 H1559 0.985 . S
H1556 N1551 0.984 . S
H1557 N1551 0.985 . S
H1558 N1555 0.984 . S
H1559 N1555 0.985 . S
H1560 N1554 0.984 . S
H1561 N1554 0.984 . S
H1562 N1550 0.984 . S
H1563 N1550 0.985 . S
C1564 C1565 1.363 . S
C1564 C1570 1.379 . S
C1564 N1572 1.356 . S
C1565 C1564 1.363 . S
C1565 C1571 1.363 . S
C1566 C1567 1.363 . S
C1566 C1571 1.379 . S
C1566 N1573 1.356 . S
C1567 C1566 1.363 . S
C1567 C1570 1.363 . S
N1568 C1570 1.356 . S
N1568 H1580 0.984 . S
N1568 H1581 0.985 . S
N1569 C1571 1.356 . S
N1569 H1574 0.984 . S
N1569 H1575 0.985 . S
C1570 C1564 1.379 . S
C1570 C1567 1.363 . S
C1570 N1568 1.356 . S
C1571 C1565 1.363 . S
C1571 C1566 1.379 . S
C1571 N1569 1.356 . S
N1572 C1564 1.356 . S
N1572 H1578 0.984 . S
N1572 H1579 0.984 . S
N1573 C1566 1.356 . S
N1573 H1576 0.984 . S
N1573 H1577 0.985 . S
H1574 N1569 0.984 . S
H1575 N1569 0.985 . S
H1576 N1573 0.984 . S
H1577 N1573 0.985 . S
H1578 N1572 0.984 . S
H1579 N1572 0.984 . S
H1580 N1568 0.984 . S
H1581 N1568 0.985 . S
C1582 C1583 1.363 . S
C1582 C1588 1.379 . S
C1582 N1590 1.356 . S
C1583 C1582 1.363 . S
C1583 C1589 1.363 . S
C1584 C1585 1.363 . S
C1584 C1589 1.379 . S
C1584 N1591 1.356 . S
C1585 C1584 1.363 . S
C1585 C1588 1.363 . S
N1586 C1588 1.356 . S
N1586 H1598 0.984 . S
N1586 H1599 0.985 . S
N1587 C1589 1.356 . S
N1587 H1592 0.984 . S
N1587 H1593 0.985 . S
C1588 C1582 1.379 . S
C1588 C1585 1.363 . S
C1588 N1586 1.356 . S
C1589 C1583 1.363 . S
C1589 C1584 1.379 . S
C1589 N1587 1.356 . S
N1590 C1582 1.356 . S
N1590 H1596 0.984 . S
N1590 H1597 0.984 . S
N1591 C1584 1.356 . S
N1591 H1594 0.984 . S
N1591 H1595 0.985 . S
H1592 N1587 0.984 . S
H1593 N1587 0.985 . S
H1594 N1591 0.984 . S
H1595 N1591 0.985 . S
H1596 N1590 0.984 . S
H1597 N1590 0.984 . S
H1598 N1586 0.984 . S
H1599 N1586 0.985 . S
C449 C414 1.324 . S
C451 C8 1.324 . S
C467 C22 1.324 . S
C469 C428 1.324 . S
C485 C442 1.324 . S
C487 C36 1.324 . S
C503 C400 1.324 . S
C505 C50 1.324 . S
C521 C64 1.324 . S
C523 C386 1.324 . S
C539 C344 1.324 . S
C541 C78 1.324 . S
C557 C92 1.324 . S
C559 C358 1.324 . S
C575 C372 1.324 . S
C577 C106 1.324 . S
C593 C120 1.324 . S
C595 C302 1.324 . S
C611 C134 1.324 . S
C613 C316 1.324 . S
C629 C330 1.324 . S
C631 C148 1.324 . S
C647 C162 1.324 . S
C649 C288 1.324 . S
C665 C274 1.324 . S
C667 C176 1.324 . S
C683 C232 1.324 . S
C685 C190 1.324 . S
C701 C204 1.324 . S
C703 C246 1.324 . S
C719 C218 1.324 . S
C721 C260 1.324 . S
C737 C7 1.446 . S
C739 C147 1.446 . S
C755 C161 1.446 . S
C757 C21 1.446 . S
C773 C119 1.446 . S
C775 C35 1.446 . S
C791 C133 1.446 . S
C793 C49 1.446 . S
C809 C63 1.446 . S
C811 C203 1.446 . S
C827 C217 1.446 . S
C829 C77 1.446 . S
C845 C175 1.446 . S
C847 C91 1.446 . S
C863 C189 1.446 . S
C865 C105 1.446 . S
C881 C231 1.446 . S
C883 C371 1.446 . S
C899 C385 1.446 . S
C901 C245 1.446 . S
C917 C343 1.446 . S
C919 C259 1.446 . S
C935 C273 1.446 . S
C937 C357 1.446 . S
C953 C287 1.446 . S
C955 C427 1.446 . S
C971 C441 1.446 . S
C973 C301 1.446 . S
C989 C399 1.446 . S
C991 C315 1.446 . S
C1007 C329 1.446 . S
C1009 C413 1.446 . S
C1025 C11 1.340 . S
C1027 C67 1.340 . S
C1043 C25 1.340 . S
C1045 C81 1.340 . S
C1061 C95 1.340 . S
C1063 C39 1.340 . S
C1079 C53 1.340 . S
C1081 C109 1.340 . S
C1097 C123 1.340 . S
C1099 C179 1.340 . S
C1115 C193 1.340 . S
C1117 C137 1.340 . S
C1133 C207 1.340 . S
C1135 C151 1.340 . S
C1151 C165 1.340 . S
C1153 C221 1.340 . S
C1169 C235 1.340 . S
C1171 C291 1.340 . S
C1187 C305 1.340 . S
C1189 C249 1.340 . S
C1205 C263 1.340 . S
C1207 C319 1.340 . S
C1223 C333 1.340 . S
C1225 C277 1.340 . S
C1241 C403 1.340 . S
C1243 C347 1.340 . S
C1259 C361 1.340 . S
C1261 C417 1.340 . S
C1277 C375 1.340 . S
C1279 C431 1.340 . S
C1295 C389 1.340 . S
C1297 C445 1.340 . S
C1313 C13 1.405 . S
C1315 C83 1.405 . S
C1331 C27 1.405 . S
C1333 C97 1.405 . S
C1349 C111 1.405 . S
C1351 C41 1.405 . S
C1367 C69 1.405 . S
C1369 C55 1.405 . S
C1385 C195 1.405 . S
C1387 C125 1.405 . S
C1403 C209 1.405 . S
C1405 C139 1.405 . S
C1421 C223 1.405 . S
C1423 C153 1.405 . S
C1439 C167 1.405 . S
C1441 C181 1.405 . S
C1457 C237 1.405 . S
C1459 C307 1.405 . S
C1475 C321 1.405 . S
C1477 C251 1.405 . S
C1493 C335 1.405 . S
C1495 C265 1.405 . S
C1511 C279 1.405 . S
C1513 C293 1.405 . S
C1529 C419 1.405 . S
C1531 C349 1.405 . S
C1547 C363 1.405 . S
C1549 C433 1.405 . S
C1565 C377 1.405 . S
C1567 C447 1.405 . S
C1583 C405 1.405 . S
C1585 C391 1.405 . S
