# Generated by pormake.
# Topology wio, (6)-cn, num edge types: 1
# Building blocks:
#     Node 0, Type 0, BuildingBlock: BETDEL_clean_sbu_0, # of connection points: 6
#     Node 1, Type 0, BuildingBlock: BETDEL_clean_sbu_0, # of connection points: 6
#     Node 2, Type 0, BuildingBlock: BETDEL_clean_sbu_0, # of connection points: 6
#     Node 3, Type 0, BuildingBlock: BETDEL_clean_sbu_0, # of connection points: 6
#     Node 4, Type 0, BuildingBlock: BETDEL_clean_sbu_0, # of connection points: 6
#     Node 5, Type 0, BuildingBlock: BETDEL_clean_sbu_0, # of connection points: 6
#     Node 6, Type 0, BuildingBlock: BETDEL_clean_sbu_0, # of connection points: 6
#     Node 7, Type 0, BuildingBlock: BETDEL_clean_sbu_0, # of connection points: 6
#     Node 8, Type 0, BuildingBlock: BETDEL_clean_sbu_0, # of connection points: 6
#     Node 9, Type 0, BuildingBlock: BETDEL_clean_sbu_0, # of connection points: 6
#     Node 10, Type 0, BuildingBlock: BETDEL_clean_sbu_0, # of connection points: 6
#     Node 11, Type 0, BuildingBlock: BETDEL_clean_sbu_0, # of connection points: 6
#     Node 12, Type 0, BuildingBlock: BETDEL_clean_sbu_0, # of connection points: 6
#     Node 13, Type 0, BuildingBlock: BETDEL_clean_sbu_0, # of connection points: 6
#     Node 14, Type 0, BuildingBlock: BETDEL_clean_sbu_0, # of connection points: 6
#     Node 15, Type 0, BuildingBlock: BETDEL_clean_sbu_0, # of connection points: 6
#     Node 16, Type 0, BuildingBlock: BETDEL_clean_sbu_0, # of connection points: 6
#     Node 17, Type 0, BuildingBlock: BETDEL_clean_sbu_0, # of connection points: 6
#     Node 18, Type 0, BuildingBlock: BETDEL_clean_sbu_0, # of connection points: 6
#     Node 19, Type 0, BuildingBlock: BETDEL_clean_sbu_0, # of connection points: 6
#     Node 20, Type 0, BuildingBlock: BETDEL_clean_sbu_0, # of connection points: 6
#     Node 21, Type 0, BuildingBlock: BETDEL_clean_sbu_0, # of connection points: 6
#     Node 22, Type 0, BuildingBlock: BETDEL_clean_sbu_0, # of connection points: 6
#     Node 23, Type 0, BuildingBlock: BETDEL_clean_sbu_0, # of connection points: 6
#     Node 24, Type 0, BuildingBlock: BETDEL_clean_sbu_0, # of connection points: 6
#     Node 25, Type 0, BuildingBlock: BETDEL_clean_sbu_0, # of connection points: 6
#     Node 26, Type 0, BuildingBlock: BETDEL_clean_sbu_0, # of connection points: 6
#     Node 27, Type 0, BuildingBlock: BETDEL_clean_sbu_0, # of connection points: 6
#     Node 28, Type 0, BuildingBlock: BETDEL_clean_sbu_0, # of connection points: 6
#     Node 29, Type 0, BuildingBlock: BETDEL_clean_sbu_0, # of connection points: 6
#     Node 30, Type 0, BuildingBlock: BETDEL_clean_sbu_0, # of connection points: 6
#     Node 31, Type 0, BuildingBlock: BETDEL_clean_sbu_0, # of connection points: 6
#     Edge 32, Type (0, 0), BuildingBlock: CIFDUS_clean_linker_0, # of connection points: 2
#     Edge 33, Type (0, 0), BuildingBlock: CIFDUS_clean_linker_0, # of connection points: 2
#     Edge 34, Type (0, 0), BuildingBlock: CIFDUS_clean_linker_0, # of connection points: 2
#     Edge 35, Type (0, 0), BuildingBlock: CIFDUS_clean_linker_0, # of connection points: 2
#     Edge 36, Type (0, 0), BuildingBlock: CIFDUS_clean_linker_0, # of connection points: 2
#     Edge 37, Type (0, 0), BuildingBlock: CIFDUS_clean_linker_0, # of connection points: 2
#     Edge 38, Type (0, 0), BuildingBlock: CIFDUS_clean_linker_0, # of connection points: 2
#     Edge 39, Type (0, 0), BuildingBlock: CIFDUS_clean_linker_0, # of connection points: 2
#     Edge 40, Type (0, 0), BuildingBlock: CIFDUS_clean_linker_0, # of connection points: 2
#     Edge 41, Type (0, 0), BuildingBlock: CIFDUS_clean_linker_0, # of connection points: 2
#     Edge 42, Type (0, 0), BuildingBlock: CIFDUS_clean_linker_0, # of connection points: 2
#     Edge 43, Type (0, 0), BuildingBlock: CIFDUS_clean_linker_0, # of connection points: 2
#     Edge 44, Type (0, 0), BuildingBlock: CIFDUS_clean_linker_0, # of connection points: 2
#     Edge 45, Type (0, 0), BuildingBlock: CIFDUS_clean_linker_0, # of connection points: 2
#     Edge 46, Type (0, 0), BuildingBlock: CIFDUS_clean_linker_0, # of connection points: 2
#     Edge 47, Type (0, 0), BuildingBlock: CIFDUS_clean_linker_0, # of connection points: 2
#     Edge 48, Type (0, 0), BuildingBlock: CIFDUS_clean_linker_0, # of connection points: 2
#     Edge 49, Type (0, 0), BuildingBlock: CIFDUS_clean_linker_0, # of connection points: 2
#     Edge 50, Type (0, 0), BuildingBlock: CIFDUS_clean_linker_0, # of connection points: 2
#     Edge 51, Type (0, 0), BuildingBlock: CIFDUS_clean_linker_0, # of connection points: 2
#     Edge 52, Type (0, 0), BuildingBlock: CIFDUS_clean_linker_0, # of connection points: 2
#     Edge 53, Type (0, 0), BuildingBlock: CIFDUS_clean_linker_0, # of connection points: 2
#     Edge 54, Type (0, 0), BuildingBlock: CIFDUS_clean_linker_0, # of connection points: 2
#     Edge 55, Type (0, 0), BuildingBlock: CIFDUS_clean_linker_0, # of connection points: 2
#     Edge 56, Type (0, 0), BuildingBlock: CIFDUS_clean_linker_0, # of connection points: 2
#     Edge 57, Type (0, 0), BuildingBlock: CIFDUS_clean_linker_0, # of connection points: 2
#     Edge 58, Type (0, 0), BuildingBlock: CIFDUS_clean_linker_0, # of connection points: 2
#     Edge 59, Type (0, 0), BuildingBlock: CIFDUS_clean_linker_0, # of connection points: 2
#     Edge 60, Type (0, 0), BuildingBlock: CIFDUS_clean_linker_0, # of connection points: 2
#     Edge 61, Type (0, 0), BuildingBlock: CIFDUS_clean_linker_0, # of connection points: 2
#     Edge 62, Type (0, 0), BuildingBlock: CIFDUS_clean_linker_0, # of connection points: 2
#     Edge 63, Type (0, 0), BuildingBlock: CIFDUS_clean_linker_0, # of connection points: 2
#     Edge 64, Type (0, 0), BuildingBlock: CIFDUS_clean_linker_0, # of connection points: 2
#     Edge 65, Type (0, 0), BuildingBlock: CIFDUS_clean_linker_0, # of connection points: 2
#     Edge 66, Type (0, 0), BuildingBlock: CIFDUS_clean_linker_0, # of connection points: 2
#     Edge 67, Type (0, 0), BuildingBlock: CIFDUS_clean_linker_0, # of connection points: 2
#     Edge 68, Type (0, 0), BuildingBlock: CIFDUS_clean_linker_0, # of connection points: 2
#     Edge 69, Type (0, 0), BuildingBlock: CIFDUS_clean_linker_0, # of connection points: 2
#     Edge 70, Type (0, 0), BuildingBlock: CIFDUS_clean_linker_0, # of connection points: 2
#     Edge 71, Type (0, 0), BuildingBlock: CIFDUS_clean_linker_0, # of connection points: 2
#     Edge 72, Type (0, 0), BuildingBlock: CIFDUS_clean_linker_0, # of connection points: 2
#     Edge 73, Type (0, 0), BuildingBlock: CIFDUS_clean_linker_0, # of connection points: 2
#     Edge 74, Type (0, 0), BuildingBlock: CIFDUS_clean_linker_0, # of connection points: 2
#     Edge 75, Type (0, 0), BuildingBlock: CIFDUS_clean_linker_0, # of connection points: 2
#     Edge 76, Type (0, 0), BuildingBlock: CIFDUS_clean_linker_0, # of connection points: 2
#     Edge 77, Type (0, 0), BuildingBlock: CIFDUS_clean_linker_0, # of connection points: 2
#     Edge 78, Type (0, 0), BuildingBlock: CIFDUS_clean_linker_0, # of connection points: 2
#     Edge 79, Type (0, 0), BuildingBlock: CIFDUS_clean_linker_0, # of connection points: 2
#     Edge 80, Type (0, 0), BuildingBlock: CIFDUS_clean_linker_0, # of connection points: 2
#     Edge 81, Type (0, 0), BuildingBlock: CIFDUS_clean_linker_0, # of connection points: 2
#     Edge 82, Type (0, 0), BuildingBlock: CIFDUS_clean_linker_0, # of connection points: 2
#     Edge 83, Type (0, 0), BuildingBlock: CIFDUS_clean_linker_0, # of connection points: 2
#     Edge 84, Type (0, 0), BuildingBlock: CIFDUS_clean_linker_0, # of connection points: 2
#     Edge 85, Type (0, 0), BuildingBlock: CIFDUS_clean_linker_0, # of connection points: 2
#     Edge 86, Type (0, 0), BuildingBlock: CIFDUS_clean_linker_0, # of connection points: 2
#     Edge 87, Type (0, 0), BuildingBlock: CIFDUS_clean_linker_0, # of connection points: 2
#     Edge 88, Type (0, 0), BuildingBlock: CIFDUS_clean_linker_0, # of connection points: 2
#     Edge 89, Type (0, 0), BuildingBlock: CIFDUS_clean_linker_0, # of connection points: 2
#     Edge 90, Type (0, 0), BuildingBlock: CIFDUS_clean_linker_0, # of connection points: 2
#     Edge 91, Type (0, 0), BuildingBlock: CIFDUS_clean_linker_0, # of connection points: 2
#     Edge 92, Type (0, 0), BuildingBlock: CIFDUS_clean_linker_0, # of connection points: 2
#     Edge 93, Type (0, 0), BuildingBlock: CIFDUS_clean_linker_0, # of connection points: 2
#     Edge 94, Type (0, 0), BuildingBlock: CIFDUS_clean_linker_0, # of connection points: 2
#     Edge 95, Type (0, 0), BuildingBlock: CIFDUS_clean_linker_0, # of connection points: 2
#     Edge 96, Type (0, 0), BuildingBlock: CIFDUS_clean_linker_0, # of connection points: 2
#     Edge 97, Type (0, 0), BuildingBlock: CIFDUS_clean_linker_0, # of connection points: 2
#     Edge 98, Type (0, 0), BuildingBlock: CIFDUS_clean_linker_0, # of connection points: 2
#     Edge 99, Type (0, 0), BuildingBlock: CIFDUS_clean_linker_0, # of connection points: 2
#     Edge 100, Type (0, 0), BuildingBlock: CIFDUS_clean_linker_0, # of connection points: 2
#     Edge 101, Type (0, 0), BuildingBlock: CIFDUS_clean_linker_0, # of connection points: 2
#     Edge 102, Type (0, 0), BuildingBlock: CIFDUS_clean_linker_0, # of connection points: 2
#     Edge 103, Type (0, 0), BuildingBlock: CIFDUS_clean_linker_0, # of connection points: 2
#     Edge 104, Type (0, 0), BuildingBlock: CIFDUS_clean_linker_0, # of connection points: 2
#     Edge 105, Type (0, 0), BuildingBlock: CIFDUS_clean_linker_0, # of connection points: 2
#     Edge 106, Type (0, 0), BuildingBlock: CIFDUS_clean_linker_0, # of connection points: 2
#     Edge 107, Type (0, 0), BuildingBlock: CIFDUS_clean_linker_0, # of connection points: 2
#     Edge 108, Type (0, 0), BuildingBlock: CIFDUS_clean_linker_0, # of connection points: 2
#     Edge 109, Type (0, 0), BuildingBlock: CIFDUS_clean_linker_0, # of connection points: 2
#     Edge 110, Type (0, 0), BuildingBlock: CIFDUS_clean_linker_0, # of connection points: 2
#     Edge 111, Type (0, 0), BuildingBlock: CIFDUS_clean_linker_0, # of connection points: 2
#     Edge 112, Type (0, 0), BuildingBlock: CIFDUS_clean_linker_0, # of connection points: 2
#     Edge 113, Type (0, 0), BuildingBlock: CIFDUS_clean_linker_0, # of connection points: 2
#     Edge 114, Type (0, 0), BuildingBlock: CIFDUS_clean_linker_0, # of connection points: 2
#     Edge 115, Type (0, 0), BuildingBlock: CIFDUS_clean_linker_0, # of connection points: 2
#     Edge 116, Type (0, 0), BuildingBlock: CIFDUS_clean_linker_0, # of connection points: 2
#     Edge 117, Type (0, 0), BuildingBlock: CIFDUS_clean_linker_0, # of connection points: 2
#     Edge 118, Type (0, 0), BuildingBlock: CIFDUS_clean_linker_0, # of connection points: 2
#     Edge 119, Type (0, 0), BuildingBlock: CIFDUS_clean_linker_0, # of connection points: 2
#     Edge 120, Type (0, 0), BuildingBlock: CIFDUS_clean_linker_0, # of connection points: 2
#     Edge 121, Type (0, 0), BuildingBlock: CIFDUS_clean_linker_0, # of connection points: 2
#     Edge 122, Type (0, 0), BuildingBlock: CIFDUS_clean_linker_0, # of connection points: 2
#     Edge 123, Type (0, 0), BuildingBlock: CIFDUS_clean_linker_0, # of connection points: 2
#     Edge 124, Type (0, 0), BuildingBlock: CIFDUS_clean_linker_0, # of connection points: 2
#     Edge 125, Type (0, 0), BuildingBlock: CIFDUS_clean_linker_0, # of connection points: 2
#     Edge 126, Type (0, 0), BuildingBlock: CIFDUS_clean_linker_0, # of connection points: 2
#     Edge 127, Type (0, 0), BuildingBlock: CIFDUS_clean_linker_0, # of connection points: 2
# Relax obj value: 0.205
# Max RMSD: 0.219
# Mean RMSD: 0.219
data_MOF--net-wio--node1-BETDEL_clean_sbu_0--edge1-CIFDUS_clean_linker_0
_symmetry_space_group_name_H-M    P1
_symmetry_Int_Tables_number       1
_symmetry_cell_setting            triclinic
loop_
_symmetry_equiv_pos_as_xyz
'x, y, z'
_cell_length_a     46.662595
_cell_length_b     46.590109
_cell_length_c     39.377301
_cell_angle_alpha  89.974927
_cell_angle_beta   90.084124
_cell_angle_gamma 89.987594
loop_
_atom_site_label
_atom_site_type_symbol
_atom_site_fract_x
_atom_site_fract_y
_atom_site_fract_z
_atom_type_partial_charge
Dy0 Dy 0.16645 0.1154 0.31184 0.0
C1 C 0.04957 0.14307 0.35774 0.0
C2 C 0.21523 0.10274 0.27464 0.0
Dy3 Dy 0.10199 0.12607 0.33473 0.0
O4 O 0.20538 0.12835 0.28083 0.0
O5 O 0.19899 0.08406 0.28998 0.0
O6 O 0.178 0.15226 0.34686 0.0
O7 O 0.1385 0.15231 0.32173 0.0
C8 C 0.15365 0.16549 0.34292 0.0
C9 C 0.11667 0.07166 0.32872 0.0
O10 O 0.09673 0.1336 0.2784 0.0
O11 O 0.14284 0.11953 0.26199 0.0
O12 O 0.05413 0.12521 0.33296 0.0
O13 O 0.07397 0.15321 0.36868 0.0
O14 O 0.09585 0.0801 0.34803 0.0
O15 O 0.12595 0.09206 0.31082 0.0
O16 O 0.16626 0.0919 0.36187 0.0
O17 O 0.1263 0.11579 0.38361 0.0
C18 C 0.11621 0.12773 0.25473 0.0
C19 C 0.14823 0.09748 0.38727 0.0
Dy20 Dy 0.13647 0.91798 0.55486 0.0
C21 C 0.11042 0.79966 0.60073 0.0
C22 C 0.15359 0.96846 0.52336 0.0
Dy23 Dy 0.12482 0.85337 0.57853 0.0
O24 O 0.13219 0.96604 0.54441 0.0
O25 O 0.16638 0.94375 0.52146 0.0
O26 O 0.0882 0.9239 0.55263 0.0
O27 O 0.10571 0.89499 0.58708 0.0
C28 C 0.08265 0.90424 0.57505 0.0
C29 C 0.17846 0.86603 0.5641 0.0
O30 O 0.10684 0.85314 0.52497 0.0
O31 O 0.12941 0.89471 0.50561 0.0
O32 O 0.12802 0.80548 0.57618 0.0
O33 O 0.0993 0.82341 0.61212 0.0
O34 O 0.17137 0.84543 0.58455 0.0
O35 O 0.1567 0.87618 0.54934 0.0
O36 O 0.16078 0.9165 0.60515 0.0
O37 O 0.1406 0.87415 0.62679 0.0
C38 C 0.11503 0.8706 0.50002 0.0
C39 C 0.15768 0.897 0.62993 0.0
Dy40 Dy 0.33343 0.88122 0.80635 0.0
C41 C 0.45103 0.86904 0.85665 0.0
C42 C 0.28629 0.89596 0.76696 0.0
Dy43 Dy 0.3988 0.87591 0.82615 0.0
O44 O 0.28688 0.8753 0.78936 0.0
O45 O 0.31094 0.90884 0.76732 0.0
O46 O 0.32415 0.84405 0.84126 0.0
O47 O 0.36387 0.84624 0.81612 0.0
C48 C 0.34956 0.83274 0.838 0.0
C49 C 0.38281 0.92207 0.79241 0.0
O50 O 0.40215 0.85721 0.77412 0.0
O51 O 0.35623 0.87093 0.75672 0.0
O52 O 0.44388 0.88954 0.83606 0.0
O53 O 0.42958 0.85134 0.86021 0.0
O54 O 0.40837 0.9114 0.78957 0.0
O55 O 0.36883 0.90969 0.81518 0.0
O56 O 0.33367 0.90824 0.85476 0.0
O57 O 0.37796 0.89201 0.87461 0.0
C58 C 0.38269 0.86177 0.75003 0.0
C59 C 0.35367 0.90662 0.87916 0.0
Dy60 Dy 0.36557 0.07743 0.06234 0.0
C61 C 0.37598 0.19361 0.11713 0.0
C62 C 0.35063 0.03119 1.02144 0.0
Dy63 Dy 0.37207 0.14321 0.08173 0.0
O64 O 0.36944 0.03038 0.04602 0.0
O65 O 0.33956 0.05673 1.02054 0.0
O66 O 0.40128 0.06683 0.09922 0.0
O67 O 0.40032 0.10685 0.07468 0.0
C68 C 0.41281 0.09232 0.09712 0.0
C69 C 0.32661 0.12899 0.04469 0.0
O70 O 0.39196 0.14636 0.03029 0.0
O71 O 0.38238 0.09874 1.01458 0.0
O72 O 0.35292 0.17865 0.11244 0.0
O73 O 0.39752 0.18135 0.10173 0.0
O74 O 0.33808 0.15441 0.04416 0.0
O75 O 0.33784 0.11434 0.06791 0.0
O76 O 0.3367 0.08002 0.10888 0.0
O77 O 0.36029 0.11995 0.13014 0.0
C78 C 0.39149 0.12521 1.00764 0.0
C79 C 0.34095 0.09918 0.13365 0.0
Dy80 Dy 0.1843 0.87978 0.24178 0.0
C81 C 0.06191 0.87312 0.21059 0.0
C82 C 0.23542 0.89345 0.27357 0.0
Dy83 Dy 0.11768 0.87468 0.23285 0.0
O84 O 0.23139 0.87179 0.25314 0.0
O85 O 0.21181 0.9081 0.27546 0.0
O86 O 0.19092 0.84767 0.20069 0.0
O87 O 0.15373 0.84478 0.23134 0.0
C88 C 0.16627 0.83503 0.20526 0.0
C89 C 0.13807 0.91924 0.26737 0.0
O90 O 0.12052 0.85047 0.28186 0.0
O91 O 0.16777 0.86413 0.29263 0.0
O92 O 0.07218 0.88979 0.23393 0.0
O93 O 0.08211 0.85602 0.19986 0.0
O94 O 0.11354 0.90754 0.27418 0.0
O95 O 0.14853 0.90841 0.24124 0.0
O96 O 0.17895 0.90858 0.19563 0.0
O97 O 0.13258 0.89334 0.1827 0.0
C98 C 0.14286 0.85305 0.30263 0.0
C99 C 0.1563 0.90783 0.17482 0.0
Dy100 Dy 0.37844 0.938 0.49479 0.0
C101 C 0.371 0.81904 0.44941 0.0
C102 C 0.37195 0.98888 0.53038 0.0
Dy103 Dy 0.37546 0.87341 0.47538 0.0
O104 O 0.39461 0.98126 0.51334 0.0
O105 O 0.35257 0.96908 0.52693 0.0
O106 O 0.41193 0.94472 0.4554 0.0
O107 O 0.40996 0.90474 0.48091 0.0
C108 C 0.42187 0.91863 0.45714 0.0
C109 C 0.33183 0.89534 0.51071 0.0
O110 O 0.39731 0.86786 0.52524 0.0
O111 O 0.38665 0.91389 0.54434 0.0
O112 O 0.35303 0.83151 0.46955 0.0
O113 O 0.39239 0.83633 0.44325 0.0
O114 O 0.34072 0.86919 0.51416 0.0
O115 O 0.34501 0.90726 0.48709 0.0
O116 O 0.35052 0.94026 0.44714 0.0
O117 O 0.36185 0.8948 0.42653 0.0
C118 C 0.39478 0.8869 0.55004 0.0
C119 C 0.34949 0.92031 0.42262 0.0
Dy120 Dy 0.32687 0.12767 0.75291 0.0
C121 C 0.44904 0.13459 0.7164 0.0
C122 C 0.27727 0.11384 0.78751 0.0
Dy123 Dy 0.39283 0.12897 0.73428 0.0
O124 O 0.285 0.13975 0.77889 0.0
O125 O 0.29597 0.09572 0.77578 0.0
O126 O 0.31968 0.16265 0.71413 0.0
O127 O 0.35889 0.16037 0.74052 0.0
C128 C 0.34551 0.1731 0.71724 0.0
C129 C 0.37039 0.07793 0.74681 0.0
O130 O 0.39581 0.14296 0.78885 0.0
O131 O 0.34686 0.14184 0.80219 0.0
O132 O 0.43946 0.11994 0.74208 0.0
O133 O 0.42781 0.14799 0.70166 0.0
O134 O 0.39196 0.08171 0.72667 0.0
O135 O 0.36402 0.10086 0.76167 0.0
O136 O 0.3278 0.10184 0.70432 0.0
O137 O 0.37126 0.11945 0.68406 0.0
C138 C 0.37418 0.14595 0.81056 0.0
C139 C 0.34755 0.10387 0.67998 0.0
Dy140 Dy 0.12866 0.07986 0.99771 0.0
C141 C 0.11161 0.19315 0.94215 0.0
C142 C 0.14777 0.0333 0.03507 0.0
Dy143 Dy 0.11516 0.14374 0.97902 0.0
O144 O 0.12484 0.0337 1.01616 0.0
O145 O 0.16063 0.05792 0.03236 0.0
O146 O 0.09775 0.06507 0.95773 0.0
O147 O 0.09033 0.10434 0.98288 0.0
C148 C 0.08207 0.08823 0.95902 0.0
C149 C 0.16104 0.13494 1.01728 0.0
O150 O 0.09453 0.14451 0.03049 0.0
O151 O 0.11159 0.09925 0.04628 0.0
O152 O 0.13468 0.17874 0.94847 0.0
O153 O 0.08962 0.18106 0.95701 0.0
O154 O 0.14592 0.15828 1.01907 0.0
O155 O 0.15238 0.11942 0.99334 0.0
O156 O 0.15726 0.08491 0.95168 0.0
O157 O 0.13034 0.12265 0.93051 0.0
C158 C 0.09899 0.12412 0.05367 0.0
C159 C 0.15137 0.10362 0.92703 0.0
Dy160 Dy 0.89844 0.871 0.72666 0.0
C161 C 0.79033 0.89736 0.79301 0.0
C162 C 0.9462 0.86648 0.68713 0.0
Dy163 Dy 0.83537 0.88068 0.75174 0.0
O164 O 0.93051 0.88917 0.69064 0.0
O165 O 0.93609 0.84561 0.70579 0.0
O166 O 0.91409 0.90365 0.76379 0.0
O167 O 0.87281 0.90695 0.74293 0.0
C168 C 0.88966 0.91693 0.76482 0.0
C169 C 0.84466 0.83367 0.7139 0.0
O170 O 0.83615 0.9095 0.70536 0.0
O171 O 0.8731 0.88408 0.68015 0.0
O172 O 0.78908 0.87741 0.76984 0.0
O173 O 0.81581 0.90856 0.79265 0.0
O174 O 0.82036 0.8475 0.71416 0.0
O175 O 0.8614 0.84394 0.73583 0.0
O176 O 0.90402 0.85138 0.77815 0.0
O177 O 0.85858 0.8642 0.79832 0.0
C178 C 0.85278 0.90407 0.6786 0.0
C179 C 0.88482 0.85373 0.80291 0.0
Dy180 Dy 0.87757 0.14549 0.48805 0.0
C181 C 0.85455 0.03221 0.54142 0.0
C182 C 0.87849 0.20031 0.46299 0.0
Dy183 Dy 0.8704 0.07983 0.50388 0.0
O184 O 0.86318 0.1911 0.48807 0.0
O185 O 0.8947 0.17952 0.45181 0.0
O186 O 0.84684 0.15418 0.53031 0.0
O187 O 0.843 0.11682 0.50128 0.0
C188 C 0.83368 0.12994 0.52672 0.0
C189 C 0.91453 0.09383 0.46413 0.0
O190 O 0.84144 0.08282 0.45761 0.0
O191 O 0.85772 0.12778 0.43988 0.0
O192 O 0.87671 0.03354 0.5213 0.0
O193 O 0.84077 0.05638 0.53972 0.0
O194 O 0.9013 0.06918 0.46247 0.0
O195 O 0.90578 0.10828 0.48925 0.0
O196 O 0.90394 0.14466 0.53531 0.0
O197 O 0.88792 0.09942 0.55235 0.0
C198 C 0.84263 0.10391 0.43461 0.0
C199 C 0.90072 0.12437 0.55867 0.0
Dy200 Dy 0.60749 0.12657 0.2341 0.0
C201 C 0.71921 0.10346 0.29211 0.0
C202 C 0.55472 0.11907 0.20565 0.0
Dy203 Dy 0.67326 0.12226 0.25412 0.0
O204 O 0.57104 0.09916 0.21792 0.0
O205 O 0.56732 0.14407 0.20843 0.0
O206 O 0.59867 0.09791 0.27854 0.0
O207 O 0.63682 0.09422 0.25227 0.0
C208 C 0.62323 0.08503 0.27741 0.0
C209 C 0.65587 0.17346 0.22956 0.0
O210 O 0.67399 0.09622 0.2051 0.0
O211 O 0.62759 0.10821 0.18698 0.0
O212 O 0.72129 0.11984 0.26514 0.0
O213 O 0.6925 0.09682 0.29682 0.0
O214 O 0.67796 0.17013 0.24943 0.0
O215 O 0.64674 0.14915 0.22083 0.0
O216 O 0.60699 0.15466 0.28005 0.0
O217 O 0.64995 0.13656 0.30137 0.0
C218 C 0.65274 0.09531 0.18217 0.0
C219 C 0.62531 0.15047 0.30543 0.0
Dy220 Dy 0.62705 0.86063 0.98354 0.0
C221 C 0.65249 0.97189 0.03983 0.0
C222 C 0.62498 0.80545 0.9596 0.0
Dy223 Dy 0.63509 0.9262 0.99988 0.0
O224 O 0.63927 0.8144 0.98569 0.0
O225 O 0.61046 0.82678 0.94664 0.0
O226 O 0.6593 0.85192 1.02486 0.0
O227 O 0.66174 0.88909 0.99619 0.0
C228 C 0.67218 0.87627 1.02108 0.0
C229 C 0.59056 0.91356 0.96021 0.0
O230 O 0.66465 0.92237 0.95411 0.0
O231 O 0.64714 0.87812 0.93546 0.0
O232 O 0.63221 0.97295 1.01695 0.0
O233 O 0.66365 0.94636 0.03959 0.0
O234 O 0.60397 0.93816 0.95936 0.0
O235 O 0.59922 0.89837 0.98488 0.0
O236 O 0.59982 0.86168 1.02981 0.0
O237 O 0.61568 0.90682 0.04736 0.0
C238 C 0.66313 0.90152 0.93079 0.0
C239 C 0.6025 0.88198 0.05316 0.0
Dy240 Dy 0.88755 0.12687 0.82724 0.0
C241 C 0.77166 0.11418 0.77398 0.0
C242 C 0.9402 0.13168 0.85765 0.0
Dy243 Dy 0.82254 0.12394 0.80894 0.0
O244 O 0.93273 0.11232 0.83575 0.0
O245 O 0.91894 0.14939 0.86245 0.0
O246 O 0.89632 0.09333 0.7886 0.0
O247 O 0.85715 0.09338 0.81409 0.0
C248 C 0.87114 0.08163 0.79069 0.0
C249 C 0.83986 0.17 0.84469 0.0
O250 O 0.82326 0.09394 0.85456 0.0
O251 O 0.8681 0.10755 0.87493 0.0
O252 O 0.79526 0.09969 0.77052 0.0
O253 O 0.7757 0.13363 0.79728 0.0
O254 O 0.81462 0.15841 0.84802 0.0
O255 O 0.85333 0.15795 0.82099 0.0
O256 O 0.89058 0.14874 0.77689 0.0
O257 O 0.84389 0.13761 0.75979 0.0
C258 C 0.84365 0.09309 0.87848 0.0
C259 C 0.87026 0.14705 0.75333 0.0
Dy260 Dy 0.62347 0.1387 0.58179 0.0
C261 C 0.63026 0.02534 0.51949 0.0
C262 C 0.6195 0.18853 0.61766 0.0
Dy263 Dy 0.62306 0.07492 0.55753 0.0
O264 O 0.64191 0.17223 0.61577 0.0
O265 O 0.59869 0.17782 0.59955 0.0
O266 O 0.66066 0.14834 0.5484 0.0
O267 O 0.65521 0.10705 0.56785 0.0
C268 C 0.66943 0.12186 0.54734 0.0
C269 C 0.57706 0.09356 0.59233 0.0
O270 O 0.65164 0.07174 0.60418 0.0
O271 O 0.63455 0.11335 0.62933 0.0
O272 O 0.60955 0.03016 0.5409 0.0
O273 O 0.64738 0.0473 0.51972 0.0
O274 O 0.58696 0.06751 0.5949 0.0
O275 O 0.59086 0.1072 0.57029 0.0
O276 O 0.60949 0.14738 0.52857 0.0
O277 O 0.61624 0.1005 0.50903 0.0
C278 C 0.6505 0.08967 0.63067 0.0
C279 C 0.61091 0.12823 0.50371 0.0
Dy280 Dy 0.6078 0.87233 0.32037 0.0
C281 C 0.71915 0.89557 0.25876 0.0
C282 C 0.55685 0.86383 0.35327 0.0
Dy283 Dy 0.6724 0.88068 0.29854 0.0
O284 O 0.56081 0.87984 0.32675 0.0
O285 O 0.58087 0.85124 0.36142 0.0
O286 O 0.59482 0.90496 0.28198 0.0
O287 O 0.635 0.90756 0.30543 0.0
C288 C 0.61933 0.9181 0.28267 0.0
C289 C 0.65957 0.83374 0.3349 0.0
O290 O 0.67175 0.90982 0.34463 0.0
O291 O 0.62758 0.89485 0.36614 0.0
O292 O 0.71867 0.87483 0.28101 0.0
O293 O 0.69446 0.90847 0.25925 0.0
O294 O 0.68436 0.84656 0.33689 0.0
O295 O 0.64454 0.84502 0.31211 0.0
O296 O 0.60594 0.84817 0.27147 0.0
O297 O 0.6497 0.86542 0.251 0.0
C298 C 0.65174 0.91005 0.36892 0.0
C299 C 0.62458 0.85245 0.24653 0.0
Dy300 Dy 0.88235 0.85682 0.0688 0.0
C301 C 0.86991 0.97445 1.02432 0.0
C302 C 0.88182 0.80195 0.09378 0.0
Dy303 Dy 0.88045 0.92308 0.05774 0.0
O304 O 0.86573 0.8118 0.06962 0.0
O305 O 0.89954 0.82194 0.10364 0.0
O306 O 0.84996 0.85253 1.02724 0.0
O307 O 0.84981 0.88861 0.05856 0.0
C308 C 0.83864 0.87747 0.03282 0.0
C309 C 0.92499 0.90304 0.09396 0.0
O310 O 0.85028 0.92008 0.10297 0.0
O311 O 0.86359 0.87363 0.11812 0.0
O312 O 0.89041 0.96995 0.04626 0.0
O313 O 0.85477 0.95118 1.02171 0.0
O314 O 0.91353 0.92824 0.09891 0.0
O315 O 0.91392 0.89117 0.06831 0.0
O316 O 0.90721 0.85719 1.02052 0.0
O317 O 0.89577 0.90473 1.00747 0.0
C318 C 0.84959 0.89796 0.12457 0.0
C319 C 0.90594 0.87902 0.99888 0.0
Dy320 Dy 0.67705 0.62344 0.8092 0.0
C321 C 0.55837 0.6164 0.85421 0.0
C322 C 0.72719 0.61585 0.77265 0.0
Dy323 Dy 0.61226 0.62021 0.82793 0.0
O324 O 0.72352 0.63431 0.79716 0.0
O325 O 0.70365 0.60142 0.7687 0.0
O326 O 0.68272 0.65783 0.84882 0.0
O327 O 0.64358 0.65451 0.8226 0.0
C328 C 0.65648 0.66718 0.84633 0.0
C329 C 0.63291 0.58002 0.7873 0.0
O330 O 0.60725 0.64523 0.78035 0.0
O331 O 0.65354 0.63626 0.76065 0.0
O332 O 0.57016 0.59827 0.83364 0.0
O333 O 0.57604 0.63747 0.86051 0.0
O334 O 0.60675 0.58915 0.78533 0.0
O335 O 0.64534 0.59031 0.81273 0.0
O336 O 0.67858 0.59235 0.85386 0.0
O337 O 0.63352 0.60328 0.87549 0.0
C338 C 0.62642 0.64432 0.75557 0.0
C339 C 0.6587 0.59011 0.87818 0.0
Dy340 Dy 0.62518 0.41986 0.05705 0.0
C341 C 0.61794 0.3013 0.10285 0.0
C342 C 0.63668 0.47097 1.02376 0.0
Dy343 Dy 0.62015 0.35309 0.07066 0.0
O344 O 0.61631 0.46684 0.04583 0.0
O345 O 0.65133 0.44737 1.02083 0.0
O346 O 0.59195 0.42737 0.0974 0.0
O347 O 0.591 0.38932 0.06863 0.0
C348 C 0.58006 0.40227 0.09345 0.0
C349 C 0.6635 0.37077 0.03322 0.0
O350 O 0.59958 0.35266 1.01932 0.0
O351 O 0.60913 0.40106 1.00728 0.0
O352 O 0.64099 0.31524 0.09488 0.0
O353 O 0.59536 0.31518 0.09206 0.0
O354 O 0.65249 0.34529 1.02969 0.0
O355 O 0.65321 0.3833 0.05858 0.0
O356 O 0.65455 0.41589 0.10292 0.0
O357 O 0.63466 0.37267 0.12054 0.0
C358 C 0.60025 0.37494 0.99815 0.0
C359 C 0.65182 0.39505 0.126 0.0
Dy360 Dy 0.8227 0.37892 0.3089 0.0
C361 C 0.94425 0.3711 0.34562 0.0
C362 C 0.77461 0.39371 0.27111 0.0
Dy363 Dy 0.88899 0.37417 0.32244 0.0
O364 O 0.77703 0.37074 0.28991 0.0
O365 O 0.79776 0.40887 0.27466 0.0
O366 O 0.81552 0.34338 0.34669 0.0
O367 O 0.85352 0.34431 0.31765 0.0
C368 C 0.8407 0.33187 0.34162 0.0
C369 C 0.8702 0.42078 0.28949 0.0
O370 O 0.88804 0.34943 0.27413 0.0
O371 O 0.84312 0.36673 0.25881 0.0
O372 O 0.93543 0.38556 0.31953 0.0
O373 O 0.92279 0.35705 0.35882 0.0
O374 O 0.89541 0.40981 0.28515 0.0
O375 O 0.85821 0.40804 0.3135 0.0
O376 O 0.8256 0.4058 0.35706 0.0
O377 O 0.87158 0.39065 0.37249 0.0
C378 C 0.86798 0.35438 0.251 0.0
C379 C 0.84737 0.40475 0.37925 0.0
Dy380 Dy 0.87414 0.57863 0.55355 0.0
C381 C 0.89288 0.69428 0.61217 0.0
C382 C 0.8546 0.53174 0.51696 0.0
Dy383 Dy 0.88268 0.64116 0.58522 0.0
O384 O 0.87487 0.53096 0.53982 0.0
O385 O 0.84465 0.5577 0.51541 0.0
O386 O 0.92183 0.57228 0.55392 0.0
O387 O 0.90326 0.59933 0.59025 0.0
C388 C 0.92669 0.59077 0.57798 0.0
C389 C 0.83128 0.6284 0.56136 0.0
O390 O 0.90308 0.64672 0.53365 0.0
O391 O 0.88589 0.60495 0.50783 0.0
O392 O 0.87596 0.68864 0.58691 0.0
O393 O 0.90565 0.67078 0.62199 0.0
O394 O 0.83516 0.64631 0.58612 0.0
O395 O 0.85474 0.62044 0.54921 0.0
O396 O 0.84674 0.57692 0.60146 0.0
O397 O 0.86402 0.61763 0.62973 0.0
C398 C 0.89848 0.63049 0.50637 0.0
C399 C 0.84729 0.59451 0.62838 0.0
Dy400 Dy 0.67276 0.37862 0.75035 0.0
C401 C 0.55455 0.36298 0.6987 0.0
C402 C 0.72487 0.39253 0.77951 0.0
Dy403 Dy 0.60841 0.3728 0.72411 0.0
O404 O 0.72092 0.37352 0.75571 0.0
O405 O 0.70045 0.40462 0.78637 0.0
O406 O 0.67651 0.33075 0.74963 0.0
O407 O 0.64889 0.35077 0.7149 0.0
C408 C 0.65697 0.3269 0.72658 0.0
C409 C 0.62426 0.42341 0.74799 0.0
O410 O 0.60569 0.35154 0.77594 0.0
O411 O 0.64961 0.36696 0.79832 0.0
O412 O 0.56074 0.37901 0.72465 0.0
O413 O 0.57788 0.35085 0.68754 0.0
O414 O 0.60438 0.42051 0.72519 0.0
O415 O 0.63224 0.39946 0.75884 0.0
O416 O 0.67278 0.40711 0.70339 0.0
O417 O 0.62957 0.39271 0.67844 0.0
C418 C 0.62404 0.35474 0.80171 0.0
C419 C 0.65362 0.40812 0.67812 0.0
Dy420 Dy 0.87304 0.43262 0.99509 0.0
C421 C 0.86461 0.31205 0.95462 0.0
C422 C 0.86828 0.48359 0.03098 0.0
Dy423 Dy 0.86739 0.36709 0.97894 0.0
O424 O 0.84955 0.46302 0.03043 0.0
O425 O 0.88927 0.47681 1.01067 0.0
O426 O 0.9106 0.43392 0.9594 0.0
O427 O 0.90257 0.39657 0.98813 0.0
C428 C 0.91799 0.40743 0.96536 0.0
C429 C 0.82269 0.39244 1.00911 0.0
O430 O 0.88746 0.36305 0.03019 0.0
O431 O 0.87625 0.40986 0.04562 0.0
O432 O 0.84835 0.32309 0.97781 0.0
O433 O 0.8834 0.33108 0.94481 0.0
O434 O 0.82946 0.36568 1.01331 0.0
O435 O 0.83853 0.4029 0.9868 0.0
O436 O 0.84671 0.43508 0.94665 0.0
O437 O 0.85482 0.388 0.92879 0.0
C438 C 0.88338 0.38307 0.05355 0.0
C439 C 0.84444 0.41432 0.92327 0.0
Dy440 Dy 0.83581 0.62553 0.25666 0.0
C441 C 0.95112 0.63793 0.20065 0.0
C442 C 0.79018 0.60973 0.29767 0.0
Dy443 Dy 0.90017 0.63082 0.2335 0.0
O444 O 0.78906 0.62898 0.27358 0.0
O445 O 0.81586 0.59905 0.29851 0.0
O446 O 0.82468 0.66142 0.22024 0.0
O447 O 0.86522 0.6602 0.24345 0.0
C448 C 0.85018 0.67284 0.22159 0.0
C449 C 0.88652 0.58549 0.27068 0.0
O450 O 0.9046 0.65304 0.28332 0.0
O451 O 0.85974 0.6394 0.30421 0.0
O452 O 0.94584 0.61925 0.22421 0.0
O453 O 0.92848 0.65374 0.19535 0.0
O454 O 0.91186 0.59694 0.27123 0.0
O455 O 0.87136 0.59689 0.24805 0.0
O456 O 0.83474 0.59711 0.20978 0.0
O457 O 0.87871 0.61122 0.18712 0.0
C458 C 0.88612 0.64972 0.30863 0.0
C459 C 0.85404 0.59691 0.18467 0.0
Dy460 Dy 0.62916 0.5815 0.49967 0.0
C461 C 0.63371 0.70127 0.4586 0.0
C462 C 0.63605 0.53006 0.53428 0.0
Dy463 Dy 0.63068 0.64685 0.48391 0.0
O464 O 0.61657 0.53533 0.51136 0.0
O465 O 0.65215 0.55263 0.53742 0.0
O466 O 0.59473 0.57651 0.46011 0.0
O467 O 0.59705 0.6147 0.48854 0.0
C468 C 0.58454 0.6023 0.46428 0.0
C469 C 0.6726 0.62567 0.52172 0.0
O470 O 0.60618 0.65002 0.53188 0.0
O471 O 0.61768 0.60368 0.54958 0.0
O472 O 0.65153 0.68977 0.47981 0.0
O473 O 0.61331 0.6831 0.45141 0.0
O474 O 0.66298 0.65153 0.52536 0.0
O475 O 0.66171 0.61386 0.49624 0.0
O476 O 0.65912 0.5818 0.4538 0.0
O477 O 0.64555 0.62707 0.43477 0.0
C478 C 0.60861 0.6303 0.55595 0.0
C479 C 0.65938 0.60246 0.43017 0.0
Dy480 Dy 0.39445 0.37334 0.24231 0.0
C481 C 0.28091 0.40054 0.29274 0.0
C482 C 0.4484 0.37458 0.21602 0.0
Dy483 Dy 0.32857 0.38131 0.25818 0.0
O484 O 0.43518 0.39574 0.23032 0.0
O485 O 0.43206 0.3518 0.21576 0.0
O486 O 0.40367 0.40204 0.28674 0.0
O487 O 0.36643 0.40771 0.25795 0.0
C488 C 0.37987 0.41614 0.28368 0.0
C489 C 0.34432 0.32859 0.23625 0.0
O490 O 0.33062 0.40705 0.209 0.0
O491 O 0.37789 0.39478 0.19489 0.0
O492 O 0.28017 0.38365 0.26617 0.0
O493 O 0.30733 0.40778 0.29872 0.0
O494 O 0.32216 0.33356 0.25533 0.0
O495 O 0.35481 0.35222 0.22698 0.0
O496 O 0.39182 0.34648 0.28938 0.0
O497 O 0.34943 0.36782 0.30727 0.0
C498 C 0.35321 0.40799 0.18803 0.0
C499 C 0.373 0.3527 0.31357 0.0
Dy500 Dy 0.37874 0.64387 0.98577 0.0
C501 C 0.35857 0.53205 0.04575 0.0
C502 C 0.38007 0.69797 0.95843 0.0
Dy503 Dy 0.37435 0.57812 1.00534 0.0
O504 O 0.36585 0.68998 0.985 0.0
O505 O 0.39503 0.67633 0.94699 0.0
O506 O 0.34466 0.65284 1.02403 0.0
O507 O 0.34557 0.61369 0.99903 0.0
C508 C 0.33374 0.62735 1.02246 0.0
C509 C 0.4204 0.59386 0.96965 0.0
O510 O 0.34642 0.57815 0.95829 0.0
O511 O 0.35924 0.62368 0.93845 0.0
O512 O 0.38027 0.53222 1.02483 0.0
O513 O 0.34541 0.55648 0.0434 0.0
O514 O 0.40929 0.56817 0.96797 0.0
O515 O 0.40842 0.60839 0.99254 0.0
O516 O 0.40354 0.64582 0.03432 0.0
O517 O 0.38861 0.60076 0.05306 0.0
C518 C 0.34566 0.59865 0.93453 0.0
C519 C 0.40003 0.62649 0.05879 0.0
Dy520 Dy 0.11751 0.62188 0.72142 0.0
C521 C 0.2314 0.6166 0.78277 0.0
C522 C 0.06726 0.62475 0.68594 0.0
Dy523 Dy 0.18133 0.62237 0.74566 0.0
O524 O 0.08366 0.6024 0.68844 0.0
O525 O 0.07816 0.64602 0.70315 0.0
O526 O 0.10845 0.58593 0.75762 0.0
O527 O 0.14915 0.59044 0.7363 0.0
C528 C 0.13486 0.57708 0.75788 0.0
C529 C 0.16495 0.66591 0.70578 0.0
O530 O 0.18405 0.59294 0.69953 0.0
O531 O 0.1423 0.60968 0.67421 0.0
O532 O 0.22427 0.63871 0.76442 0.0
O533 O 0.21151 0.5972 0.77992 0.0
O534 O 0.1907 0.65515 0.70564 0.0
O535 O 0.15006 0.65463 0.72894 0.0
O536 O 0.1093 0.63779 0.77399 0.0
O537 O 0.15604 0.63148 0.794 0.0
C538 C 0.16597 0.5938 0.67307 0.0
C539 C 0.12837 0.63715 0.79903 0.0
Dy540 Dy 0.12191 0.35482 0.48772 0.0
C541 C 0.13682 0.47292 0.53135 0.0
C542 C 0.12318 0.29958 0.46397 0.0
Dy543 Dy 0.12493 0.42153 0.49874 0.0
O544 O 0.14011 0.31048 0.48662 0.0
O545 O 0.10428 0.31877 0.4548 0.0
O546 O 0.15183 0.34965 0.53138 0.0
O547 O 0.1545 0.38604 0.49994 0.0
C548 C 0.16359 0.37453 0.52672 0.0
C549 C 0.08061 0.40189 0.46195 0.0
O550 O 0.15474 0.41816 0.45362 0.0
O551 O 0.14125 0.37167 0.43867 0.0
O552 O 0.116 0.46864 0.50978 0.0
O553 O 0.15144 0.44932 0.53423 0.0
O554 O 0.09222 0.42703 0.45707 0.0
O555 O 0.09139 0.39001 0.48768 0.0
O556 O 0.09594 0.3562 0.53536 0.0
O557 O 0.10782 0.40374 0.54834 0.0
C558 C 0.1552 0.39603 0.43215 0.0
C559 C 0.09705 0.37822 0.55681 0.0
Dy560 Dy 0.38998 0.62986 0.32985 0.0
C561 C 0.27365 0.61811 0.27928 0.0
C562 C 0.44553 0.63312 0.35224 0.0
Dy563 Dy 0.32438 0.62694 0.31502 0.0
O564 O 0.43649 0.61897 0.32606 0.0
O565 O 0.4241 0.64678 0.36604 0.0
O566 O 0.39621 0.59034 0.29851 0.0
O567 O 0.35797 0.59623 0.32416 0.0
C568 C 0.3704 0.58092 0.30272 0.0
C569 C 0.34348 0.67566 0.34345 0.0
O570 O 0.3259 0.60205 0.36516 0.0
O571 O 0.37133 0.61819 0.38099 0.0
O572 O 0.27872 0.6391 0.30029 0.0
O573 O 0.29579 0.60122 0.27931 0.0
O574 O 0.31815 0.66495 0.34897 0.0
O575 O 0.35637 0.66139 0.32091 0.0
O576 O 0.39038 0.65051 0.27881 0.0
O577 O 0.34636 0.63113 0.26413 0.0
C578 C 0.34704 0.60441 0.38816 0.0
C579 C 0.37145 0.64249 0.25566 0.0
Dy580 Dy 0.12301 0.6443 0.0751 0.0
C581 C 0.14618 0.53227 1.01505 0.0
C582 C 0.11387 0.6956 0.10734 0.0
Dy583 Dy 0.13213 0.58008 0.05314 0.0
O584 O 0.13022 0.6914 0.08127 0.0
O585 O 0.10129 0.67157 0.11551 0.0
O586 O 0.15553 0.65807 0.03688 0.0
O587 O 0.15833 0.61766 0.05997 0.0
C588 C 0.1684 0.6334 0.03709 0.0
C589 C 0.0865 0.59098 0.09199 0.0
O590 O 0.16149 0.58081 0.09917 0.0
O591 O 0.14677 0.62517 0.12061 0.0
O592 O 0.1238 0.53461 0.03457 0.0
O593 O 0.16122 0.55566 1.01739 0.0
O594 O 0.10056 0.56683 0.09274 0.0
O595 O 0.0957 0.60695 0.06852 0.0
O596 O 0.10135 0.64643 1.02422 0.0
O597 O 0.11827 0.60225 1.00473 0.0
C598 C 0.16186 0.60089 0.12347 0.0
C599 C 0.10648 0.62782 0.99931 0.0
Dy600 Dy 0.09943 0.36838 0.83003 0.0
C601 C 0.21186 0.40267 0.77317 0.0
C602 C 0.04474 0.355 0.84876 0.0
Dy603 Dy 0.16347 0.38155 0.80556 0.0
O604 O 0.05224 0.36734 0.8206 0.0
O605 O 0.06759 0.34819 0.86605 0.0
O606 O 0.08975 0.41462 0.83466 0.0
O607 O 0.12103 0.40059 0.79983 0.0
C608 C 0.11007 0.42215 0.81422 0.0
C609 C 0.15158 0.32765 0.82745 0.0
O610 O 0.16154 0.40621 0.85529 0.0
O611 O 0.12011 0.38501 0.87788 0.0
O612 O 0.21169 0.38178 0.79526 0.0
O613 O 0.18597 0.41258 0.77042 0.0
O614 O 0.17165 0.3334 0.80559 0.0
O615 O 0.14154 0.35071 0.8385 0.0
O616 O 0.10055 0.34729 0.77839 0.0
O617 O 0.14081 0.3708 0.75704 0.0
C618 C 0.14251 0.40274 0.88037 0.0
C619 C 0.11748 0.35499 0.75285 0.0
Dy620 Dy 0.37355 0.36776 0.58395 0.0
C621 C 0.35153 0.48245 0.53276 0.0
C622 C 0.3776 0.31219 0.60591 0.0
Dy623 Dy 0.3675 0.43387 0.56878 0.0
O624 O 0.36428 0.321 0.57903 0.0
O625 O 0.39016 0.3339 0.62067 0.0
O626 O 0.3359 0.35982 0.54957 0.0
O627 O 0.33949 0.39816 0.57542 0.0
C628 C 0.32586 0.38554 0.55276 0.0
C629 C 0.41443 0.41799 0.60309 0.0
O630 O 0.34106 0.43104 0.61745 0.0
O631 O 0.35661 0.38533 0.63382 0.0
O632 O 0.37639 0.47851 0.54725 0.0
O633 O 0.33535 0.46054 0.53953 0.0
O634 O 0.4021 0.44299 0.60643 0.0
O635 O 0.40306 0.4039 0.57908 0.0
O636 O 0.39581 0.36859 0.53376 0.0
O637 O 0.37541 0.41207 0.51822 0.0
C638 C 0.34224 0.40955 0.64011 0.0
C639 C 0.38776 0.38725 0.51022 0.0
H640 H 0.25886 0.13752 0.25404 0.0
H641 H 0.22427 0.05275 0.23947 0.0
H642 H 0.25994 0.04324 0.19509 0.0
H643 H 0.30019 0.06018 0.15802 0.0
H644 H 0.33596 0.14422 0.17707 0.0
H645 H 0.30122 0.15246 0.22153 0.0
C646 C 0.2593 0.11685 0.2414 0.0
C647 C 0.23878 0.09597 0.25009 0.0
C648 C 0.28028 0.11131 0.21634 0.0
C649 C 0.23985 0.06923 0.23347 0.0
C650 C 0.26023 0.06381 0.20791 0.0
C651 C 0.30064 0.08012 0.17218 0.0
C652 C 0.32103 0.10143 0.16365 0.0
C653 C 0.2805 0.08482 0.19876 0.0
C654 C 0.32095 0.12714 0.18265 0.0
C655 C 0.30084 0.13208 0.20827 0.0
H656 H 0.18424 0.05215 0.40152 0.0
H657 H 0.11364 0.10015 0.44363 0.0
H658 H 0.11 0.06587 0.49032 0.0
H659 H 0.12433 0.01978 0.51732 0.0
H660 H 0.19499 0.97213 0.47502 0.0
H661 H 0.20109 0.00851 0.43096 0.0
C662 C 0.16839 0.05554 0.4212 0.0
C663 C 0.14931 0.07905 0.41869 0.0
C664 C 0.16618 0.03544 0.44811 0.0
C665 C 0.12876 0.08254 0.44458 0.0
C666 C 0.12654 0.06275 0.47139 0.0
C667 C 0.14136 0.01761 0.49881 0.0
C668 C 0.15915 0.99307 0.49969 0.0
C669 C 0.14475 0.03876 0.47315 0.0
C670 C 0.18098 0.99068 0.4752 0.0
C671 C 0.18445 0.01151 0.4498 0.0
H672 H 0.23249 0.8717 0.76178 0.0
H673 H 0.28818 0.93347 0.71407 0.0
H674 H 0.25297 0.94112 0.66898 0.0
H675 H 0.20726 0.92821 0.64073 0.0
H676 H 0.15135 0.86678 0.68898 0.0
H677 H 0.18516 0.86153 0.73574 0.0
C678 C 0.23676 0.88707 0.74173 0.0
C679 C 0.26311 0.90191 0.74148 0.0
C680 C 0.2162 0.89153 0.71567 0.0
C681 C 0.26817 0.92172 0.71512 0.0
C682 C 0.24799 0.92611 0.68916 0.0
C683 C 0.20212 0.91416 0.66181 0.0
C684 C 0.17649 0.89802 0.66097 0.0
C685 C 0.22199 0.91093 0.68887 0.0
C686 C 0.17073 0.87957 0.68855 0.0
C687 C 0.19021 0.8764 0.71545 0.0
H688 H 0.32129 0.95545 0.89127 0.0
H689 H 0.38277 0.89893 0.93855 0.0
H690 H 0.38643 0.93112 0.98711 0.0
H691 H 0.37507 0.97743 1.01501 0.0
H692 H 0.31386 0.03418 0.96785 0.0
H693 H 0.30726 1.0002 0.92126 0.0
C694 C 0.33503 0.94985 0.91249 0.0
C695 C 0.3517 0.92455 0.91088 0.0
C696 C 0.33742 0.96886 0.94058 0.0
C697 C 0.36968 0.91813 0.9387 0.0
C698 C 0.3719 0.93666 0.96664 0.0
C699 C 0.36003 0.98219 0.99477 0.0
C700 C 0.34506 0.00851 0.99515 0.0
C701 C 0.35635 0.96242 0.96766 0.0
C702 C 0.32572 0.01419 0.96845 0.0
C703 C 0.32194 0.99471 0.94161 0.0
H704 H 0.34647 0.8869 0.36571 0.0
H705 H 0.30663 0.96025 0.413 0.0
H706 H 0.26881 0.95965 0.3698 0.0
H707 H 0.24446 0.93539 0.32142 0.0
H708 H 0.28435 0.86155 0.2754 0.0
H709 H 0.32451 0.86527 0.3151 0.0
C710 C 0.3298 0.90311 0.36639 0.0
C711 C 0.32959 0.9236 0.39289 0.0
C712 C 0.3078 0.90233 0.34174 0.0
C713 C 0.30768 0.94436 0.39297 0.0
C714 C 0.28581 0.94386 0.36835 0.0
C715 C 0.26215 0.92036 0.31979 0.0
C716 C 0.26126 0.89811 0.29539 0.0
C717 C 0.28525 0.92252 0.34304 0.0
C718 C 0.28438 0.87884 0.29378 0.0
C719 C 0.30737 0.88093 0.3166 0.0
H720 H 0.32772 0.00388 0.5726 0.0
H721 H 0.41195 0.03069 0.54088 0.0
H722 H 0.41092 0.06995 0.58211 0.0
H723 H 0.38747 0.09496 0.62977 0.0
H724 H 0.30359 0.06753 0.66252 0.0
H725 H 0.30306 0.03073 0.61837 0.0
C726 C 0.34572 0.01852 0.57444 0.0
C727 C 0.36991 0.01424 0.55354 0.0
C728 C 0.34508 0.04105 0.59858 0.0
C729 C 0.39306 0.0334 0.55651 0.0
C730 C 0.39249 0.05589 0.58019 0.0
C731 C 0.3688 0.08132 0.62699 0.0
C732 C 0.34553 0.08437 0.6497 0.0
C733 C 0.36879 0.05973 0.60171 0.0
C734 C 0.32178 0.06604 0.64556 0.0
C735 C 0.3215 0.04477 0.62031 0.0
H736 H 0.19525 0.06808 0.90458 0.0
H737 H 0.15183 0.14762 0.88146 0.0
H738 H 0.18608 0.15773 0.83675 0.0
H739 H 0.23024 0.14569 0.80538 0.0
H740 H 0.27218 0.06498 0.82501 0.0
H741 H 0.23701 0.05379 0.86913 0.0
C742 C 0.19303 0.08741 0.88947 0.0
C743 C 0.17077 0.10697 0.89686 0.0
C744 C 0.21283 0.09312 0.86296 0.0
C745 C 0.16848 0.13194 0.8767 0.0
C746 C 0.18825 0.13793 0.85099 0.0
C747 C 0.23148 0.12553 0.81908 0.0
C748 C 0.25394 0.1063 0.81188 0.0
C749 C 0.21077 0.11893 0.84411 0.0
C750 C 0.25509 0.08018 0.82985 0.0
C751 C 0.23499 0.07378 0.85526 0.0
H752 H 0.18923 0.95513 0.15804 0.0
H753 H 0.11982 0.90236 0.12123 0.0
H754 H 0.11197 0.93529 0.07414 0.0
H755 H 0.12213 0.98113 0.04523 0.0
H756 H 0.19129 0.03427 0.08142 0.0
H757 H 0.20186 0.99944 0.12626 0.0
C758 C 0.17276 0.95054 0.13937 0.0
C759 C 0.15512 0.92616 0.14355 0.0
C760 C 0.16803 0.96993 0.11215 0.0
C761 C 0.13369 0.92091 0.11906 0.0
C762 C 0.12908 0.93983 0.09198 0.0
C763 C 0.13974 0.98491 0.06266 0.0
C764 C 0.15582 0.01039 0.05989 0.0
C765 C 0.14568 0.96474 0.08859 0.0
C766 C 0.17855 0.01488 0.08283 0.0
C767 C 0.18458 0.99494 0.10862 0.0
H768 H 0.73628 0.8747 0.79876 0.0
H769 H 0.794 0.9349 0.84595 0.0
H770 H 0.75938 0.94338 0.89144 0.0
H771 H 0.71348 0.93149 0.92009 0.0
H772 H 0.65609 0.87105 0.87242 0.0
H773 H 0.6893 0.86524 0.82529 0.0
C774 C 0.74114 0.88991 0.81879 0.0
C775 C 0.76781 0.90407 0.81882 0.0
C776 C 0.72104 0.89468 0.84509 0.0
C777 C 0.77369 0.92367 0.84514 0.0
C778 C 0.75385 0.92852 0.8713 0.0
C779 C 0.70798 0.91749 0.89909 0.0
C780 C 0.68212 0.90177 0.90009 0.0
C781 C 0.72753 0.9139 0.87185 0.0
C782 C 0.67575 0.88341 0.87266 0.0
C783 C 0.69483 0.87998 0.84556 0.0
H784 H 0.87951 0.97897 0.54759 0.0
H785 H 0.81532 0.03355 0.59246 0.0
H786 H 0.80743 0.99842 0.63759 0.0
H787 H 0.82099 0.95325 0.66685 0.0
H788 H 0.88435 0.89821 0.62065 0.0
H789 H 0.8899 0.93192 0.574 0.0
C790 C 0.86356 0.983 0.56702 0.0
C791 C 0.84816 0.00901 0.56657 0.0
C792 C 0.85893 0.96249 0.593 0.0
C793 C 0.82753 0.01377 0.59203 0.0
C794 C 0.82302 0.99366 0.61801 0.0
C795 C 0.83563 0.94834 0.6463 0.0
C796 C 0.85223 0.92301 0.64773 0.0
C797 C 0.83887 0.96805 0.61911 0.0
C798 C 0.8712 0.91737 0.62067 0.0
C799 C 0.87455 0.93679 0.59381 0.0
H800 H 0.77336 0.1267 0.29813 0.0
H801 H 0.7161 0.06544 0.34414 0.0
H802 H 0.7498 0.0581 0.39081 0.0
H803 H 0.79408 0.07188 0.42147 0.0
H804 H 0.85067 0.13425 0.37621 0.0
H805 H 0.81922 0.13804 0.32694 0.0
C806 C 0.76853 0.11137 0.31804 0.0
C807 C 0.74215 0.09666 0.31743 0.0
C808 C 0.78794 0.10755 0.34541 0.0
C809 C 0.73619 0.0771 0.34379 0.0
C810 C 0.75547 0.07291 0.37068 0.0
C811 C 0.79981 0.0859 0.40057 0.0
C812 C 0.82484 0.10277 0.40288 0.0
C813 C 0.78122 0.08841 0.3722 0.0
C814 C 0.83156 0.12108 0.37549 0.0
C815 C 0.8135 0.12332 0.34714 0.0
H816 H 0.63017 0.02624 0.04622 0.0
H817 H 0.68979 0.96754 0.09288 0.0
H818 H 0.6977 1.00127 0.13949 0.0
H819 H 0.68471 0.04626 0.16988 0.0
H820 H 0.62497 0.10462 0.12258 0.0
H821 H 0.62056 0.07281 0.07385 0.0
C822 C 0.64518 0.021 0.06635 0.0
C823 C 0.65924 0.99425 0.06593 0.0
C824 C 0.64965 0.0406 0.09333 0.0
C825 C 0.67861 0.98792 0.09238 0.0
C826 C 0.68314 0.00724 0.11922 0.0
C827 C 0.67129 0.05234 0.14855 0.0
C828 C 0.65519 0.07796 0.15022 0.0
C829 C 0.66844 0.03353 0.12036 0.0
C830 C 0.63757 0.08509 0.12233 0.0
C831 C 0.63491 0.06679 0.09432 0.0
H832 H 0.76015 0.07347 0.72523 0.0
H833 H 0.72399 0.14814 0.77358 0.0
H834 H 0.68246 0.14587 0.73568 0.0
H835 H 0.65752 0.12448 0.68652 0.0
H836 H 0.69344 0.04966 0.63798 0.0
H837 H 0.73332 0.04997 0.67828 0.0
C838 C 0.74304 0.08908 0.7277 0.0
C839 C 0.74537 0.11104 0.75233 0.0
C840 C 0.71898 0.0876 0.70569 0.0
C841 C 0.7229 0.13102 0.75502 0.0
C842 C 0.69907 0.12975 0.73324 0.0
C843 C 0.67375 0.10787 0.685 0.0
C844 C 0.6721 0.08699 0.65895 0.0
C845 C 0.69698 0.10834 0.70819 0.0
C846 C 0.69372 0.0659 0.65765 0.0
C847 C 0.71678 0.06618 0.68066 0.0
H848 H 0.67092 0.01459 0.47076 0.0
H849 H 0.59377 0.97977 0.51459 0.0
H850 H 0.59451 0.94036 0.47358 0.0
H851 H 0.61563 0.91688 0.42341 0.0
H852 H 0.69261 0.95177 0.37894 0.0
H853 H 0.69345 0.98958 0.42194 0.0
C854 C 0.65442 0.99822 0.47153 0.0
C855 C 0.63227 1.00025 0.49587 0.0
C856 C 0.65491 0.97551 0.4476 0.0
C857 C 0.61106 0.97883 0.49631 0.0
C858 C 0.61146 0.95625 0.47274 0.0
C859 C 0.63284 0.9325 0.42323 0.0
C860 C 0.65408 0.93115 0.39768 0.0
C861 C 0.63308 0.9545 0.44801 0.0
C862 C 0.67605 0.95188 0.39818 0.0
C863 C 0.67647 0.97373 0.42277 0.0
H864 H 0.80087 0.93045 0.13597 0.0
H865 H 0.85342 0.86441 0.18104 0.0
H866 H 0.81884 0.85849 0.22683 0.0
H867 H 0.77191 0.86967 0.25279 0.0
H868 H 0.71893 0.93531 0.20787 0.0
H869 H 0.75501 0.94365 0.16396 0.0
C870 C 0.80505 0.91518 0.15616 0.0
C871 C 0.82999 0.89801 0.15482 0.0
C872 C 0.78465 0.9115 0.18254 0.0
C873 C 0.83456 0.87798 0.18112 0.0
C874 C 0.81467 0.87447 0.20743 0.0
C875 C 0.76839 0.88601 0.23361 0.0
C876 C 0.7426 0.90179 0.2338 0.0
C877 C 0.78935 0.89071 0.20818 0.0
C878 C 0.73851 0.92282 0.20854 0.0
C879 C 0.7592 0.92761 0.18328 0.0
H880 H 0.8801 0.08627 0.9328 0.0
H881 H 0.80337 0.05075 0.88823 0.0
H882 H 0.80396 0.01186 0.92995 0.0
H883 H 0.82809 0.98582 0.97705 0.0
H884 H 0.90463 0.0216 1.02148 0.0
H885 H 0.90221 0.06222 0.98215 0.0
C886 C 0.86322 0.07029 0.93237 0.0
C887 C 0.84169 0.07172 0.90705 0.0
C888 C 0.86379 0.04771 0.95644 0.0
C889 C 0.82014 0.05056 0.90727 0.0
C890 C 0.82056 0.0281 0.93112 0.0
C891 C 0.84407 0.00267 0.97838 0.0
C892 C 0.86659 1.0005 1.00231 0.0
C893 C 0.84254 0.02613 0.9555 0.0
C894 C 0.88707 0.02261 1.00351 0.0
C895 C 0.88572 0.04588 0.98089 0.0
H896 H 0.73636 0.57844 0.72008 0.0
H897 H 0.77654 0.64725 0.77571 0.0
H898 H 0.8181 0.64507 0.73794 0.0
H899 H 0.84198 0.62552 0.68728 0.0
H900 H 0.8017 0.55709 0.63084 0.0
H901 H 0.76168 0.55699 0.67084 0.0
C902 C 0.75432 0.59281 0.7241 0.0
C903 C 0.75321 0.61307 0.75078 0.0
C904 C 0.77826 0.59146 0.70209 0.0
C905 C 0.77673 0.63148 0.7555 0.0
C906 C 0.80054 0.63024 0.73383 0.0
C907 C 0.82473 0.61021 0.68388 0.0
C908 C 0.82523 0.5912 0.65585 0.0
C909 C 0.80144 0.61054 0.70681 0.0
C910 C 0.80233 0.57176 0.65215 0.0
C911 C 0.7792 0.57185 0.67497 0.0
H912 H 0.62566 0.58403 0.93512 0.0
H913 H 0.69873 0.54692 0.88448 0.0
H914 H 0.69941 0.50761 0.92579 0.0
H915 H 0.67685 0.48157 0.97412 0.0
H916 H 0.60373 0.51917 1.02404 0.0
H917 H 0.60554 0.5602 0.98543 0.0
C918 C 0.64205 0.56761 0.93326 0.0
C919 C 0.66213 0.56868 0.90642 0.0
C920 C 0.64214 0.54482 0.95698 0.0
C921 C 0.68312 0.54701 0.90481 0.0
C922 C 0.68339 0.5243 0.92837 0.0
C923 C 0.66153 0.49892 0.97678 0.0
C924 C 0.64008 0.49713 1.00204 0.0
C925 C 0.66266 0.52264 0.95424 0.0
C926 C 0.62043 0.51986 1.00499 0.0
C927 C 0.62142 0.54338 0.98279 0.0
H928 H 0.69731 0.43025 0.14469 0.0
H929 H 0.64832 0.35711 0.17873 0.0
H930 H 0.68062 0.35072 0.22658 0.0
H931 H 0.7248 0.36378 0.25785 0.0
H932 H 0.77355 0.43721 0.22492 0.0
H933 H 0.73971 0.44545 0.1785 0.0
C934 C 0.69339 0.4132 0.16283 0.0
C935 C 0.67013 0.39425 0.15757 0.0
C936 C 0.71234 0.40943 0.1908 0.0
C937 C 0.66585 0.37215 0.1816 0.0
C938 C 0.68447 0.36834 0.2092 0.0
C939 C 0.72782 0.38179 0.24078 0.0
C940 C 0.75184 0.3998 0.24511 0.0
C941 C 0.70808 0.38652 0.21389 0.0
C942 C 0.75531 0.42298 0.22248 0.0
C943 C 0.73593 0.4277 0.19571 0.0
H944 H 0.87751 0.47751 0.51073 0.0
H945 H 0.81409 0.53397 0.46729 0.0
H946 H 0.80402 0.49894 0.42271 0.0
H947 H 0.81585 0.45356 0.39298 0.0
H948 H 0.87982 0.39749 0.43619 0.0
H949 H 0.8866 0.4305 0.48353 0.0
C950 C 0.8612 0.48195 0.4918 0.0
C951 C 0.84667 0.50848 0.49249 0.0
C952 C 0.85558 0.46164 0.46584 0.0
C953 C 0.82567 0.51381 0.46753 0.0
C954 C 0.8199 0.49374 0.44186 0.0
C955 C 0.8308 0.44823 0.41312 0.0
C956 C 0.84725 0.42288 0.41073 0.0
C957 C 0.83504 0.46772 0.44033 0.0
C958 C 0.86684 0.41676 0.43705 0.0
C959 C 0.87086 0.43575 0.46424 0.0
H960 H 0.73713 0.43362 0.82717 0.0
H961 H 0.77277 0.35909 0.778 0.0
H962 H 0.81422 0.36062 0.81604 0.0
H963 H 0.83844 0.3806 0.86657 0.0
H964 H 0.80348 0.45592 0.91497 0.0
H965 H 0.76427 0.45686 0.87386 0.0
C966 C 0.75419 0.41798 0.82447 0.0
C967 C 0.75168 0.39614 0.7998 0.0
C968 C 0.77819 0.41908 0.84645 0.0
C969 C 0.77407 0.37612 0.79666 0.0
C970 C 0.79779 0.37693 0.81854 0.0
C971 C 0.82257 0.39758 0.86779 0.0
C972 C 0.82411 0.41812 0.89412 0.0
C973 C 0.79985 0.39796 0.844 0.0
C974 C 0.8032 0.43992 0.89503 0.0
C975 C 0.78051 0.44034 0.8716 0.0
H976 H 0.88955 0.58915 0.12979 0.0
H977 H 0.81044 0.55831 0.17322 0.0
H978 H 0.80709 0.52179 0.12884 0.0
H979 H 0.82806 0.49644 0.07935 0.0
H980 H 0.90754 0.52684 0.0368 0.0
H981 H 0.90917 0.56549 0.07885 0.0
C982 C 0.87133 0.57471 0.12945 0.0
C983 C 0.85025 0.57678 0.15515 0.0
C984 C 0.86967 0.5534 0.10392 0.0
C985 C 0.82696 0.55758 0.15394 0.0
C986 C 0.82508 0.53649 0.12854 0.0
C987 C 0.84558 0.51173 0.07903 0.0
C988 C 0.86767 0.50865 0.05477 0.0
C989 C 0.84651 0.53389 0.10364 0.0
C990 C 0.89024 0.52863 0.05498 0.0
C991 C 0.89121 0.55075 0.07916 0.0
H992 H 0.73429 0.62878 0.29967 0.0
H993 H 0.79435 0.57451 0.35263 0.0
H994 H 0.75873 0.56479 0.3966 0.0
H995 H 0.71117 0.57435 0.42261 0.0
H996 H 0.65138 0.62884 0.36941 0.0
H997 H 0.68561 0.63526 0.32331 0.0
C998 C 0.73948 0.61461 0.32065 0.0
C999 C 0.76713 0.60255 0.32275 0.0
C1000 C 0.71872 0.60899 0.34606 0.0
C1001 C 0.77333 0.58418 0.35023 0.0
C1002 C 0.7529 0.57858 0.37552 0.0
C1003 C 0.70536 0.587 0.40052 0.0
C1004 C 0.6785 0.60096 0.39965 0.0
C1005 C 0.72556 0.59112 0.37402 0.0
C1006 C 0.67176 0.61777 0.37095 0.0
C1007 C 0.69146 0.62162 0.34452 0.0
H1008 H 0.62016 0.41641 0.62137 0.0
H1009 H 0.69399 0.45089 0.67339 0.0
H1010 H 0.69575 0.49079 0.63318 0.0
H1011 H 0.6747 0.51775 0.58485 0.0
H1012 H 0.60079 0.48331 0.53323 0.0
H1013 H 0.60081 0.44183 0.57138 0.0
C1014 C 0.63695 0.43237 0.62374 0.0
C1015 C 0.65702 0.43025 0.6506 0.0
C1016 C 0.63771 0.45559 0.60056 0.0
C1017 C 0.6784 0.4515 0.65301 0.0
C1018 C 0.67931 0.47457 0.63005 0.0
C1019 C 0.65876 0.50102 0.58174 0.0
C1020 C 0.63772 0.50377 0.55608 0.0
C1021 C 0.65885 0.4771 0.60397 0.0
C1022 C 0.61723 0.48185 0.5526 0.0
C1023 C 0.61721 0.45808 0.57452 0.0
H1024 H 0.20128 0.4312 0.41809 0.0
H1025 H 0.1512 0.36203 0.37586 0.0
H1026 H 0.1837 0.35895 0.32754 0.0
H1027 H 0.22875 0.37326 0.29885 0.0
H1028 H 0.27992 0.44093 0.34238 0.0
H1029 H 0.24485 0.44732 0.38775 0.0
C1030 C 0.19718 0.41577 0.39806 0.0
C1031 C 0.17363 0.3969 0.40092 0.0
C1032 C 0.21642 0.41369 0.37032 0.0
C1033 C 0.16908 0.37682 0.37468 0.0
C1034 C 0.18775 0.37499 0.34688 0.0
C1035 C 0.23191 0.38978 0.31788 0.0
C1036 C 0.25697 0.40668 0.31693 0.0
C1037 C 0.21182 0.39294 0.34462 0.0
C1038 C 0.26085 0.42766 0.34226 0.0
C1039 C 0.24079 0.43128 0.36842 0.0
H1040 H 0.3209 0.45633 0.17275 0.0
H1041 H 0.38598 0.40047 0.13177 0.0
H1042 H 0.39283 0.43274 0.08391 0.0
H1043 H 0.38325 0.47893 0.05516 0.0
H1044 H 0.31808 0.53492 0.09531 0.0
H1045 H 0.3085 0.50094 0.14121 0.0
C1046 C 0.33611 0.45091 0.15298 0.0
C1047 C 0.35289 0.42583 0.15625 0.0
C1048 C 0.34031 0.46995 0.12524 0.0
C1049 C 0.37278 0.41956 0.13034 0.0
C1050 C 0.37685 0.43813 0.1028 0.0
C1051 C 0.36675 0.48353 0.07373 0.0
C1052 C 0.35154 0.50959 0.07167 0.0
C1053 C 0.36123 0.46373 0.10027 0.0
C1054 C 0.33019 0.51509 0.09611 0.0
C1055 C 0.32468 0.49562 0.12253 0.0
H1056 H 0.24597 0.57401 0.82793 0.0
H1057 H 0.27288 0.65699 0.79141 0.0
H1058 H 0.31159 0.65791 0.83325 0.0
H1059 H 0.33621 0.63663 0.88244 0.0
H1060 H 0.30922 0.55388 0.91992 0.0
H1061 H 0.27262 0.55134 0.87554 0.0
C1062 C 0.26052 0.59214 0.8289 0.0
C1063 C 0.25642 0.61544 0.80645 0.0
C1064 C 0.28279 0.59264 0.85337 0.0
C1065 C 0.27545 0.63877 0.80825 0.0
C1066 C 0.29762 0.63935 0.83228 0.0
C1067 C 0.32261 0.61782 0.88079 0.0
C1068 C 0.3257 0.59549 0.90483 0.0
C1069 C 0.30129 0.6166 0.85531 0.0
C1070 C 0.30762 0.57141 0.90194 0.0
C1071 C 0.28649 0.56997 0.87655 0.0
H1072 H 0.13155 0.58809 0.61698 0.0
H1073 H 0.20471 0.5495 0.66625 0.0
H1074 H 0.20306 0.50953 0.62598 0.0
H1075 H 0.17844 0.48338 0.57925 0.0
H1076 H 0.10484 0.52196 0.53111 0.0
H1077 H 0.10907 0.56377 0.56832 0.0
C1078 C 0.14752 0.57125 0.61871 0.0
C1079 C 0.16831 0.57213 0.64491 0.0
C1080 C 0.14614 0.54796 0.59574 0.0
C1081 C 0.1886 0.54978 0.64643 0.0
C1082 C 0.18752 0.52668 0.62347 0.0
C1083 C 0.16351 0.50109 0.57665 0.0
C1084 C 0.14125 0.49938 0.55231 0.0
C1085 C 0.16602 0.5252 0.59841 0.0
C1086 C 0.12214 0.52258 0.54947 0.0
C1087 C 0.12454 0.54655 0.57084 0.0
H1088 H 0.1677 0.63581 0.17956 0.0
H1089 H 0.20356 0.55994 0.13331 0.0
H1090 H 0.24009 0.55766 0.17777 0.0
H1091 H 0.26378 0.57857 0.22864 0.0
H1092 H 0.22793 0.65449 0.2745 0.0
H1093 H 0.18976 0.65519 0.23184 0.0
C1094 C 0.18329 0.61856 0.17926 0.0
C1095 C 0.18255 0.59805 0.15274 0.0
C1096 C 0.20452 0.6174 0.20504 0.0
C1097 C 0.2032 0.57598 0.1532 0.0
C1098 C 0.22431 0.57471 0.17869 0.0
C1099 C 0.24741 0.59507 0.22956 0.0
C1100 C 0.24885 0.61645 0.25501 0.0
C1101 C 0.22543 0.59546 0.20459 0.0
C1102 C 0.22745 0.63772 0.25546 0.0
C1103 C 0.20559 0.63818 0.2309 0.0
H1104 H 0.17667 0.45016 0.89165 0.0
H1105 H 0.11002 0.39923 0.93796 0.0
H1106 H 0.1059 0.43387 0.98391 0.0
H1107 H 0.11867 0.48055 1.0095 0.0
H1108 H 0.18583 0.53118 0.96429 0.0
H1109 H 0.19225 0.495 0.91994 0.0
C1110 C 0.16164 0.44628 0.91211 0.0
C1111 C 0.14371 0.42187 0.91098 0.0
C1112 C 0.15918 0.46655 0.93875 0.0
C1113 C 0.12416 0.41765 0.93779 0.0
C1114 C 0.12166 0.4376 0.96421 0.0
C1115 C 0.13493 0.48349 0.99016 0.0
C1116 C 0.15167 0.50865 0.99027 0.0
C1117 C 0.13864 0.46242 0.96469 0.0
C1118 C 0.17266 0.51205 0.96496 0.0
C1119 C 0.17631 0.49134 0.93946 0.0
H1120 H 0.29366 0.44179 0.65282 0.0
H1121 H 0.34762 0.37641 0.69689 0.0
H1122 H 0.31343 0.36966 0.74294 0.0
H1123 H 0.26594 0.37915 0.76862 0.0
H1124 H 0.21169 0.44414 0.72447 0.0
H1125 H 0.24791 0.45416 0.68131 0.0
C1126 C 0.29829 0.42654 0.67289 0.0
C1127 C 0.32343 0.40968 0.67106 0.0
C1128 C 0.27813 0.42236 0.6994 0.0
C1129 C 0.32859 0.38972 0.69729 0.0
C1130 C 0.30891 0.38572 0.72375 0.0
C1131 C 0.26225 0.39582 0.7499 0.0
C1132 C 0.23596 0.41079 0.74994 0.0
C1133 C 0.28325 0.40141 0.72474 0.0
C1134 C 0.23162 0.43222 0.72522 0.0
C1135 C 0.25238 0.43796 0.70034 0.0
H1136 H 0.37928 0.53341 0.52023 0.0
H1137 H 0.30744 0.48235 0.48736 0.0
H1138 H 0.29779 0.51626 0.4413 0.0
H1139 H 0.31202 0.55896 0.40727 0.0
H1140 H 0.38278 0.61081 0.44234 0.0
H1141 H 0.39007 0.57869 0.49019 0.0
C1142 C 0.36129 0.52991 0.50326 0.0
C1143 C 0.34425 0.50521 0.50731 0.0
C1144 C 0.35559 0.54979 0.47686 0.0
C1145 C 0.32095 0.50116 0.48502 0.0
C1146 C 0.31543 0.52056 0.45849 0.0
C1147 C 0.3286 0.56363 0.42576 0.0
C1148 C 0.34689 0.58741 0.42063 0.0
C1149 C 0.33285 0.54482 0.45374 0.0
C1150 C 0.36839 0.59272 0.44509 0.0
C1151 C 0.37273 0.57422 0.47263 0.0
H1152 H 0.09706 0.27611 0.40794 0.0
H1153 H 0.16313 0.26064 0.48249 0.0
H1154 H 0.17861 0.21801 0.45184 0.0
H1155 H 0.17535 0.18631 0.40211 0.0
H1156 H 0.10855 0.20027 0.32824 0.0
H1157 H 0.09153 0.24202 0.36006 0.0
C1158 C 0.11452 0.26311 0.41768 0.0
C1159 C 0.12895 0.27163 0.44738 0.0
C1160 C 0.1235 0.23848 0.39976 0.0
C1161 C 0.15163 0.25462 0.45965 0.0
C1162 C 0.16065 0.23026 0.44205 0.0
C1163 C 0.1571 0.19854 0.39302 0.0
C1164 C 0.14348 0.19049 0.3627 0.0
C1165 C 0.14713 0.22226 0.41174 0.0
C1166 C 0.11955 0.20622 0.35145 0.0
C1167 C 0.10975 0.23007 0.36966 0.0
H1168 H 0.07014 0.86628 0.62498 0.0
H1169 H 0.03137 0.92908 0.55901 0.0
H1170 H 0.98509 0.92155 0.5869 0.0
H1171 H 0.95658 0.8991 0.63225 0.0
H1172 H 0.99439 0.83365 0.69545 0.0
H1173 H 0.04018 0.83926 0.66546 0.0
C1174 C 0.05142 0.87763 0.61599 0.0
C1175 C 0.05415 0.898 0.58977 0.0
C1176 C 0.02483 0.87266 0.63162 0.0
C1177 C 0.02982 0.91326 0.57909 0.0
C1178 C 0.00338 0.90895 0.59503 0.0
C1179 C 0.97478 0.88579 0.63912 0.0
C1180 C 0.97236 0.86616 0.66615 0.0
C1181 C 1.00077 0.889 0.62162 0.0
C1182 C 0.99585 0.84882 0.67466 0.0
C1183 C 0.02201 0.8522 0.65769 0.0
H1184 H 0.33048 0.81309 0.89843 0.0
H1185 H 0.39306 0.79639 0.82063 0.0
H1186 H 0.40941 0.75354 0.8513 0.0
H1187 H 0.40417 0.71936 0.89961 0.0
H1188 H 0.34325 0.73904 0.97863 0.0
H1189 H 0.32836 0.78205 0.94853 0.0
C1190 C 0.34771 0.80006 0.88825 0.0
C1191 C 0.36024 0.80756 0.85714 0.0
C1192 C 0.35741 0.77593 0.90638 0.0
C1193 C 0.38294 0.79086 0.84449 0.0
C1194 C 0.3923 0.76637 0.86203 0.0
C1195 C 0.38795 0.73332 0.91036 0.0
C1196 C 0.37474 0.72581 0.94124 0.0
C1197 C 0.37951 0.75848 0.89293 0.0
C1198 C 0.35377 0.74418 0.95489 0.0
C1199 C 0.34509 0.76881 0.93763 0.0
H1200 H 0.44149 0.06463 0.14735 0.0
H1201 H 0.44078 0.14316 0.0895 0.0
H1202 H 0.48332 0.16005 0.11978 0.0
H1203 H 0.52263 0.15127 0.16105 0.0
H1204 H 0.52355 0.0716 0.2169 0.0
H1205 H 0.47928 0.05662 0.1895 0.0
C1206 C 0.45061 0.08547 0.14151 0.0
C1207 C 0.43804 0.10259 0.11631 0.0
C1208 C 0.47526 0.09491 0.15874 0.0
C1209 C 0.45003 0.12961 0.10899 0.0
C1210 C 0.47441 0.13928 0.12624 0.0
C1211 C 0.51285 0.13086 0.16744 0.0
C1212 C 0.52635 0.11258 0.19087 0.0
C1213 C 0.48745 0.12199 0.15099 0.0
C1214 C 0.51363 0.08603 0.19878 0.0
C1215 C 0.4883 0.07737 0.1831 0.0
H1216 H 0.12553 0.7936 0.21786 0.0
H1217 H 0.182 0.82664 0.14046 0.0
H1218 H 0.16762 0.78839 0.10202 0.0
H1219 H 0.14262 0.74356 0.09182 0.0
H1220 H 0.08859 0.70703 0.16924 0.0
H1221 H 0.0979 0.7487 0.20602 0.0
C1222 C 0.13437 0.79246 0.19245 0.0
C1223 C 0.15501 0.81275 0.18208 0.0
C1224 C 0.12649 0.76977 0.17053 0.0
C1225 C 0.16636 0.8111 0.14915 0.0
C1226 C 0.15811 0.78926 0.1271 0.0
C1227 C 0.1325 0.74484 0.11656 0.0
C1228 C 0.11501 0.72223 0.12784 0.0
C1229 C 0.13872 0.76818 0.13774 0.0
C1230 C 0.10209 0.72423 0.15996 0.0
C1231 C 0.10758 0.74796 0.18104 0.0
H1232 H 0.50998 0.89529 0.34026 0.0
H1233 H 0.54539 0.83691 0.41415 0.0
H1234 H 0.50474 0.84642 0.45221 0.0
H1235 H 0.46127 0.87535 0.46643 0.0
H1236 H 0.42968 0.93645 0.39301 0.0
H1237 H 0.46651 0.92185 0.35284 0.0
C1238 C 0.50865 0.88426 0.36449 0.0
C1239 C 0.53066 0.86545 0.3744 0.0
C1240 C 0.48594 0.89063 0.3865 0.0
C1241 C 0.52864 0.85143 0.40591 0.0
C1242 C 0.50549 0.85703 0.42774 0.0
C1243 C 0.46237 0.88512 0.44147 0.0
C1244 C 0.44294 0.90709 0.43271 0.0
C1245 C 0.48434 0.87718 0.41865 0.0
C1246 C 0.44458 0.91973 0.40042 0.0
C1247 C 0.4656 0.91136 0.3774 0.0
H1248 H 0.39981 0.28918 0.66457 0.0
H1249 H 0.34413 0.27044 0.57984 0.0
H1250 H 0.32925 0.2258 0.60651 0.0
H1251 H 0.3293 0.19338 0.65569 0.0
H1252 H 0.38708 0.20966 0.73891 0.0
H1253 H 0.40384 0.25363 0.71127 0.0
C1254 C 0.38481 0.27505 0.65179 0.0
C1255 C 0.37293 0.28328 0.62044 0.0
C1256 C 0.37639 0.24906 0.66721 0.0
C1257 C 0.35356 0.26471 0.60407 0.0
C1258 C 0.34487 0.23917 0.61935 0.0
C1259 C 0.34562 0.20656 0.66763 0.0
C1260 C 0.3566 0.19866 0.69942 0.0
C1261 C 0.35564 0.23141 0.65124 0.0
C1262 C 0.37816 0.21551 0.71445 0.0
C1263 C 0.38775 0.24065 0.69868 0.0
H1264 H 0.04426 0.13323 0.96126 0.0
H1265 H 0.06524 0.05664 0.90493 0.0
H1266 H 0.0245 0.06473 0.86729 0.0
H1267 H 0.98184 0.09205 0.85177 0.0
H1268 H 0.95884 0.1678 0.90833 0.0
H1269 H 0.00157 0.16184 0.94422 0.0
C1270 C 0.0399 0.11842 0.94065 0.0
C1271 C 0.05765 0.09424 0.93602 0.0
C1272 C 0.01614 0.12309 0.91913 0.0
C1273 C 0.05183 0.07528 0.90918 0.0
C1274 C 0.02855 0.07991 0.88759 0.0
C1275 C 0.98628 0.10746 0.87174 0.0
C1276 C 0.96723 0.13036 0.87739 0.0
C1277 C 0.01043 0.10354 0.89252 0.0
C1278 C 0.97325 0.15006 0.90343 0.0
C1279 C 0.9976 0.14655 0.92402 0.0
H1280 H 0.88964 0.79637 0.71783 0.0
H1281 H 0.81603 0.81853 0.6568 0.0
H1282 H 0.82681 0.77927 0.61779 0.0
H1283 H 0.85519 0.73718 0.60286 0.0
H1284 H 0.92652 0.71171 0.66572 0.0
H1285 H 0.919 0.75399 0.70194 0.0
C1286 C 0.87609 0.7926 0.69589 0.0
C1287 C 0.85197 0.81018 0.69024 0.0
C1288 C 0.88209 0.76951 0.6739 0.0
C1289 C 0.83454 0.80513 0.6618 0.0
C1290 C 0.84075 0.78275 0.63944 0.0
C1291 C 0.8694 0.74106 0.6242 0.0
C1292 C 0.89148 0.72146 0.63154 0.0
C1293 C 0.86422 0.76463 0.64547 0.0
C1294 C 0.90948 0.72661 0.65949 0.0
C1295 C 0.90505 0.75066 0.68027 0.0
H1296 H 0.00247 0.11148 0.34541 0.0
H1297 H 0.03647 0.17459 0.41458 0.0
H1298 H 0.99573 0.16685 0.45288 0.0
H1299 H 0.9533 0.13777 0.46957 0.0
H1300 H 0.92293 0.0718 0.40162 0.0
H1301 H 0.95934 0.08487 0.36012 0.0
C1302 C 1.0007 0.12401 0.36852 0.0
C1303 C 0.02245 0.14357 0.37716 0.0
C1304 C 0.97807 0.11847 0.39098 0.0
C1305 C 0.01992 0.15949 0.40731 0.0
C1306 C 0.99676 0.15486 0.42934 0.0
C1307 C 0.9546 0.1265 0.44553 0.0
C1308 C 0.9357 0.10363 0.43879 0.0
C1309 C 0.97619 0.1337 0.42197 0.0
C1310 C 0.93749 0.08921 0.40757 0.0
C1311 C 0.95824 0.09674 0.38375 0.0
H1312 H 0.65672 0.29082 0.15102 0.0
H1313 H 0.58001 0.25592 0.10621 0.0
H1314 H 0.58428 0.21305 0.14257 0.0
H1315 H 0.61186 0.18466 0.18532 0.0
H1316 H 0.68683 0.22249 0.23151 0.0
H1317 H 0.6811 0.26524 0.19658 0.0
C1318 C 0.64088 0.27383 0.14922 0.0
C1319 C 0.61838 0.27614 0.12566 0.0
C1320 C 0.64321 0.24985 0.17049 0.0
C1321 C 0.59761 0.25441 0.12409 0.0
C1322 C 0.60012 0.22995 0.14481 0.0
C1323 C 0.62671 0.20243 0.18788 0.0
C1324 C 0.64994 0.20028 0.2107 0.0
C1325 C 0.62309 0.22729 0.16785 0.0
C1326 C 0.66889 0.22352 0.21406 0.0
C1327 C 0.66568 0.24797 0.19402 0.0
H1328 H 0.4948 0.9055 0.84854 0.0
H1329 H 0.46731 0.83392 0.90971 0.0
H1330 H 0.50949 0.83999 0.94659 0.0
H1331 H 0.55242 0.86858 0.96372 0.0
H1332 H 0.57709 0.94134 0.90247 0.0
H1333 H 0.53783 0.9319 0.8634 0.0
C1334 C 0.49815 0.89096 0.86972 0.0
C1335 C 0.47797 0.86937 0.87649 0.0
C1336 C 0.52185 0.89504 0.89102 0.0
C1337 C 0.48264 0.85068 0.90396 0.0
C1338 C 0.50665 0.85429 0.92513 0.0
C1339 C 0.54921 0.88216 0.94167 0.0
C1340 C 0.56746 0.90582 0.93617 0.0
C1341 C 0.52612 0.87683 0.91932 0.0
C1342 C 0.56319 0.92321 0.90748 0.0
C1343 C 0.54076 0.91781 0.88505 0.0
H1344 H 0.89299 0.28551 0.90202 0.0
H1345 H 0.82365 0.27441 0.97321 0.0
H1346 H 0.81026 0.22944 0.94615 0.0
H1347 H 0.81638 0.19423 0.90056 0.0
H1348 H 0.88618 0.20361 0.8299 0.0
H1349 H 0.90125 0.2479 0.85829 0.0
C1350 C 0.87519 0.27303 0.91174 0.0
C1351 C 0.85927 0.28342 0.93948 0.0
C1352 C 0.86749 0.2469 0.89598 0.0
C1353 C 0.83624 0.267 0.95185 0.0
C1354 C 0.82847 0.24125 0.93634 0.0
C1355 C 0.83495 0.20593 0.89148 0.0
C1356 C 0.84994 0.19586 0.86301 0.0
C1357 C 0.84362 0.23119 0.9081 0.0
C1358 C 0.87418 0.21103 0.85173 0.0
C1359 C 0.8828 0.23639 0.86794 0.0
H1360 H 0.47053 0.15656 0.65731 0.0
H1361 H 0.49042 0.0987 0.73958 0.0
H1362 H 0.53184 0.08063 0.70854 0.0
H1363 H 0.56017 0.07819 0.65581 0.0
H1364 H 0.54232 0.13784 0.57485 0.0
H1365 H 0.50246 0.15812 0.60728 0.0
C1366 C 0.48432 0.14047 0.66871 0.0
C1367 C 0.47726 0.12888 0.7006 0.0
C1368 C 0.50819 0.13005 0.65063 0.0
C1369 C 0.49533 0.10801 0.71506 0.0
C1370 C 0.51893 0.09745 0.6972 0.0
C1371 C 0.54751 0.09564 0.64539 0.0
C1372 C 0.55371 0.10614 0.6128 0.0
C1373 C 0.52511 0.10771 0.66457 0.0
C1374 C 0.53768 0.12921 0.5998 0.0
C1375 C 0.51494 0.14086 0.61835 0.0
H1376 H 0.68442 0.81299 0.39218 0.0
H1377 H 0.61247 0.8006 0.32495 0.0
H1378 H 0.59649 0.75958 0.35863 0.0
H1379 H 0.60445 0.7255 0.40576 0.0
H1380 H 0.67611 0.73872 0.4733 0.0
H1381 H 0.69041 0.78116 0.4414 0.0
C1382 C 0.66524 0.80128 0.38501 0.0
C1383 C 0.64985 0.80951 0.35602 0.0
C1384 C 0.65602 0.77788 0.40466 0.0
C1385 C 0.6248 0.79449 0.34714 0.0
C1386 C 0.61561 0.77105 0.36639 0.0
C1387 C 0.62291 0.73797 0.4137 0.0
C1388 C 0.63926 0.72895 0.44168 0.0
C1389 C 0.63121 0.76234 0.39503 0.0
C1390 C 0.66319 0.74521 0.45174 0.0
C1391 C 0.6715 0.76943 0.43344 0.0
H1392 H 0.94475 0.92105 0.15494 0.0
H1393 H 0.96076 0.85902 0.0761 0.0
H1394 H 0.00375 0.8424 0.10614 0.0
H1395 H 0.03875 0.84788 0.15351 0.0
H1396 H 0.02086 0.90929 0.2327 0.0
H1397 H 0.97674 0.9234 0.20424 0.0
C1398 C 0.95759 0.9038 0.14443 0.0
C1399 C 0.94984 0.89157 0.11316 0.0
C1400 C 0.98203 0.89417 0.16202 0.0
C1401 C 0.96641 0.86893 0.10008 0.0
C1402 C 0.99102 0.85943 0.11725 0.0
C1403 C 0.0249 0.86397 0.16474 0.0
C1404 C 0.03323 0.87761 0.19511 0.0
C1405 C 0.99932 0.87217 0.14807 0.0
C1406 C 0.01507 0.89848 0.20932 0.0
C1407 C 0.98982 0.9067 0.19299 0.0
H1408 H 0.67386 0.68775 0.90705 0.0
H1409 H 0.61301 0.70272 0.82661 0.0
H1410 H 0.59628 0.74642 0.85505 0.0
H1411 H 0.60123 0.78217 0.90167 0.0
H1412 H 0.66044 0.76447 0.98336 0.0
H1413 H 0.67514 0.72017 0.95596 0.0
C1414 C 0.65684 0.70055 0.89588 0.0
C1415 C 0.64498 0.69235 0.86464 0.0
C1416 C 0.64697 0.72523 0.91268 0.0
C1417 C 0.62259 0.70876 0.85064 0.0
C1418 C 0.61304 0.73376 0.86687 0.0
C1419 C 0.61699 0.76835 0.91362 0.0
C1420 C 0.62987 0.7768 0.94435 0.0
C1421 C 0.62534 0.74247 0.89775 0.0
C1422 C 0.65023 0.75861 0.95963 0.0
C1423 C 0.6588 0.73324 0.94393 0.0
H1424 H 0.5615 0.42312 0.1533 0.0
H1425 H 0.54674 0.35519 0.08115 0.0
H1426 H 0.50615 0.33786 0.11487 0.0
H1427 H 0.4722 0.34483 0.16284 0.0
H1428 H 0.48782 0.41355 0.23388 0.0
H1429 H 0.53084 0.42736 0.20317 0.0
C1430 C 0.54947 0.40444 0.14508 0.0
C1431 C 0.55675 0.39069 0.11468 0.0
C1432 C 0.52631 0.39464 0.16454 0.0
C1433 C 0.54132 0.36624 0.10447 0.0
C1434 C 0.51813 0.35633 0.12373 0.0
C1435 C 0.48547 0.36235 0.17189 0.0
C1436 C 0.47685 0.37824 0.20042 0.0
C1437 C 0.51007 0.37067 0.15358 0.0
C1438 C 0.49399 0.4011 0.21182 0.0
C1439 C 0.51854 0.40913 0.19421 0.0
H1440 H 0.8252 0.31384 0.40421 0.0
H1441 H 0.88389 0.29597 0.32256 0.0
H1442 H 0.90277 0.25447 0.35364 0.0
H1443 H 0.90042 0.2214 0.40313 0.0
H1444 H 0.84302 0.24171 0.48554 0.0
H1445 H 0.82626 0.28409 0.45549 0.0
C1446 C 0.84214 0.30084 0.3933 0.0
C1447 C 0.8528 0.30756 0.361 0.0
C1448 C 0.85327 0.27745 0.41158 0.0
C1449 C 0.87517 0.29098 0.34736 0.0
C1450 C 0.886 0.26728 0.36512 0.0
C1451 C 0.88466 0.23544 0.41467 0.0
C1452 C 0.87286 0.22826 0.4464 0.0
C1453 C 0.87498 0.26006 0.39716 0.0
C1454 C 0.85241 0.24664 0.46108 0.0
C1455 C 0.84265 0.27087 0.44385 0.0
H1456 H 0.94147 0.62973 0.62677 0.0
H1457 H 0.97593 0.5624 0.56381 0.0
H1458 H 0.02261 0.56768 0.59108 0.0
H1459 H 0.0531 0.5899 0.63434 0.0
H1460 H 0.02048 0.65953 0.69502 0.0
H1461 H 0.97368 0.65543 0.66669 0.0
C1462 C 0.95931 0.61656 0.61875 0.0
C1463 C 0.9552 0.59566 0.59341 0.0
C1464 C 0.98635 0.62014 0.63412 0.0
C1465 C 0.97849 0.5786 0.58332 0.0
C1466 C 0.0052 0.58158 0.5989 0.0
C1467 C 0.03578 0.60432 0.64118 0.0
C1468 C 0.04 0.62479 0.66689 0.0
C1469 C 0.00928 0.60204 0.62455 0.0
C1470 C 0.01762 0.64361 0.67526 0.0
C1471 C 0.99088 0.64116 0.6592 0.0
H1472 H 0.61833 0.31434 0.67641 0.0
H1473 H 0.68088 0.27601 0.74329 0.0
H1474 H 0.6734 0.22949 0.71655 0.0
H1475 H 0.65148 0.20037 0.67213 0.0
H1476 H 0.58695 0.23678 0.60667 0.0
H1477 H 0.59217 0.28338 0.6354 0.0
C1478 C 0.6299 0.2957 0.68544 0.0
C1479 C 0.65022 0.29864 0.71165 0.0
C1480 C 0.62514 0.26877 0.67023 0.0
C1481 C 0.66523 0.27435 0.72303 0.0
C1482 C 0.66098 0.24772 0.70778 0.0
C1483 C 0.63834 0.21846 0.66439 0.0
C1484 C 0.61911 0.21544 0.63722 0.0
C1485 C 0.64135 0.2448 0.68106 0.0
C1486 C 0.60189 0.23877 0.62762 0.0
C1487 C 0.60502 0.26537 0.64389 0.0
H1488 H 0.93017 0.40949 0.89851 0.0
H1489 H 0.95593 0.36966 0.99241 0.0
H1490 H 0.99618 0.34615 0.96364 0.0
H1491 H 0.02671 0.34117 0.91263 0.0
H1492 H 0.99846 0.37863 0.81809 0.0
H1493 H 0.95606 0.39799 0.84588 0.0
C1494 C 0.94458 0.39553 0.9125 0.0
C1495 C 0.94078 0.39178 0.9475 0.0
C1496 C 0.96703 0.38146 0.89561 0.0
C1497 C 0.95888 0.37306 0.96542 0.0
C1498 C 0.9818 0.3596 0.94899 0.0
C1499 C 0.01084 0.35286 0.89797 0.0
C1500 C 0.01592 0.35883 0.86351 0.0
C1501 C 0.98644 0.36413 0.91419 0.0
C1502 C 0.99513 0.37389 0.84473 0.0
C1503 C 0.97098 0.38523 0.86066 0.0
H1504 H 0.90799 0.77997 0.15048 0.0
H1505 H 0.84121 0.76296 0.07734 0.0
H1506 H 0.82524 0.72174 0.11033 0.0
H1507 H 0.82829 0.69191 0.16175 0.0
H1508 H 0.89619 0.70706 0.23382 0.0
H1509 H 0.91356 0.74739 0.19977 0.0
C1510 C 0.89027 0.76693 0.14156 0.0
C1511 C 0.87576 0.77462 0.11159 0.0
C1512 C 0.88109 0.74308 0.16075 0.0
C1513 C 0.85278 0.75754 0.10034 0.0
C1514 C 0.84347 0.73401 0.1193 0.0
C1515 C 0.84686 0.7041 0.16994 0.0
C1516 C 0.86067 0.69685 0.20043 0.0
C1517 C 0.85708 0.72689 0.14988 0.0
C1518 C 0.88505 0.71242 0.21051 0.0
C1519 C 0.89504 0.73546 0.19103 0.0
H1520 H 0.56467 0.58641 0.4027 0.0
H1521 H 0.54797 0.6444 0.48552 0.0
H1522 H 0.50395 0.66084 0.4575 0.0
H1523 H 0.46838 0.65615 0.41068 0.0
H1524 H 0.48751 0.59969 0.32686 0.0
H1525 H 0.53233 0.58562 0.35365 0.0
C1526 C 0.55144 0.60276 0.41448 0.0
C1527 C 0.55923 0.61386 0.44627 0.0
C1528 C 0.52653 0.61244 0.39796 0.0
C1529 C 0.54225 0.63541 0.46106 0.0
C1530 C 0.51707 0.64479 0.44507 0.0
C1531 C 0.48263 0.64116 0.39812 0.0
C1532 C 0.47445 0.62882 0.36697 0.0
C1533 C 0.50872 0.63314 0.41368 0.0
C1534 C 0.49317 0.60945 0.35091 0.0
C1535 C 0.51883 0.60125 0.36627 0.0
H1536 H 0.33898 0.20722 0.16644 0.0
H1537 H 0.41463 0.23839 0.11586 0.0
H1538 H 0.41231 0.28307 0.14913 0.0
H1539 H 0.38674 0.3142 0.19089 0.0
H1540 H 0.31248 0.28044 0.24253 0.0
H1541 H 0.31637 0.23583 0.21075 0.0
C1542 C 0.35506 0.22376 0.16275 0.0
C1543 C 0.37672 0.21976 0.13847 0.0
C1544 C 0.35376 0.24895 0.18218 0.0
C1545 C 0.39769 0.24109 0.13436 0.0
C1546 C 0.39629 0.26662 0.15332 0.0
C1547 C 0.37163 0.29693 0.19534 0.0
C1548 C 0.34915 0.30079 0.21883 0.0
C1549 C 0.37416 0.27096 0.17705 0.0
C1550 C 0.32986 0.27816 0.22452 0.0
C1551 C 0.33202 0.2526 0.20629 0.0
H1552 H 0.5317 0.64765 0.90402 0.0
H1553 H 0.52227 0.57288 0.84031 0.0
H1554 H 0.47841 0.55975 0.8697 0.0
H1555 H 0.4441 0.56768 0.91551 0.0
H1556 H 0.45201 0.64251 0.97914 0.0
H1557 H 0.49484 0.65749 0.94788 0.0
C1558 C 0.5198 0.62872 0.89642 0.0
C1559 C 0.5303 0.61117 0.87023 0.0
C1560 C 0.49442 0.62114 0.91359 0.0
C1561 C 0.5147 0.58669 0.86053 0.0
C1562 C 0.48962 0.57908 0.87735 0.0
C1563 C 0.45517 0.58731 0.92243 0.0
C1564 C 0.44523 0.60377 0.94974 0.0
C1565 C 0.47955 0.59583 0.90428 0.0
C1566 C 0.45947 0.62938 0.95825 0.0
C1567 C 0.48394 0.63795 0.94041 0.0
H1568 H 0.14481 0.75465 0.58832 0.0
H1569 H 0.0784 0.78373 0.65607 0.0
H1570 H 0.08746 0.74258 0.69356 0.0
H1571 H 0.11853 0.70155 0.71025 0.0
H1572 H 0.18792 0.6766 0.64427 0.0
H1573 H 0.17357 0.71288 0.603 0.0
C1574 C 0.13187 0.75169 0.61093 0.0
C1575 C 0.11099 0.77217 0.61946 0.0
C1576 C 0.13817 0.72895 0.63301 0.0
C1577 C 0.09454 0.76815 0.64893 0.0
C1578 C 0.09991 0.74478 0.6705 0.0
C1579 C 0.13024 0.70397 0.68666 0.0
C1580 C 0.15441 0.68669 0.68039 0.0
C1581 C 0.12235 0.72557 0.66336 0.0
C1582 C 0.16947 0.68993 0.64981 0.0
C1583 C 0.16123 0.71059 0.62614 0.0
H1584 H 0.96584 0.34815 0.4046 0.0
H1585 H 0.98675 0.40452 0.32127 0.0
H1586 H 0.03102 0.41861 0.3494 0.0
H1587 H 0.06229 0.41782 0.39952 0.0
H1588 H 0.04334 0.36017 0.48207 0.0
H1589 H 1.00011 0.34367 0.4526 0.0
C1590 C 0.98036 0.36312 0.39244 0.0
C1591 C 0.97288 0.37541 0.36102 0.0
C1592 C 0.00604 0.37121 0.40882 0.0
C1593 C 0.99192 0.39478 0.3455 0.0
C1594 C 0.01724 0.403 0.36164 0.0
C1595 C 0.04874 0.40155 0.41092 0.0
C1596 C 0.05568 0.39054 0.44305 0.0
C1597 C 0.02422 0.39186 0.39361 0.0
C1598 C 0.03827 0.36911 0.45738 0.0
C1599 C 0.01355 0.35968 0.44055 0.0
H1600 H 0.40013 0.79063 0.39827 0.0
H1601 H 0.32881 0.7831 0.46746 0.0
H1602 H 0.31473 0.73809 0.44145 0.0
H1603 H 0.32064 0.70198 0.39757 0.0
H1604 H 0.39159 0.7072 0.32799 0.0
H1605 H 0.40789 0.75168 0.35551 0.0
C1606 C 0.38175 0.77889 0.40777 0.0
C1607 C 0.36546 0.79035 0.43464 0.0
C1608 C 0.37352 0.75268 0.39247 0.0
C1609 C 0.34166 0.77492 0.44672 0.0
C1610 C 0.3335 0.74912 0.43183 0.0
C1611 C 0.33973 0.7128 0.38845 0.0
C1612 C 0.35469 0.70158 0.3606 0.0
C1613 C 0.34894 0.73805 0.40441 0.0
C1614 C 0.37961 0.71559 0.34933 0.0
C1615 C 0.3889 0.74101 0.36505 0.0
H1616 H 0.0484 0.63568 0.08907 0.0
H1617 H 0.07468 0.56359 0.15058 0.0
H1618 H 0.03695 0.57405 0.19135 0.0
H1619 H 0.99493 0.60135 0.2078 0.0
H1620 H 0.96542 0.67167 0.14574 0.0
H1621 H 0.00623 0.66465 0.10716 0.0
C1622 C 0.04586 0.62244 0.11153 0.0
C1623 C 0.06412 0.59876 0.11674 0.0
C1624 C 0.02364 0.6283 0.13473 0.0
C1625 C 0.06072 0.58175 0.14588 0.0
C1626 C 0.03921 0.58776 0.16926 0.0
C1627 C 0.99755 0.61541 0.18605 0.0
C1628 C 0.97723 0.63697 0.17954 0.0
C1629 C 0.02033 0.61065 0.16369 0.0
C1630 C 0.98088 0.65496 0.15126 0.0
C1631 C 0.00409 0.65082 0.12915 0.0
H1632 H 0.10882 0.3142 0.87099 0.0
H1633 H 0.18112 0.27764 0.81861 0.0
H1634 H 0.17381 0.23212 0.8485 0.0
H1635 H 0.14888 0.20411 0.89219 0.0
H1636 H 0.07493 0.23938 0.94271 0.0
H1637 H 0.08032 0.28417 0.91021 0.0
C1638 C 0.12258 0.29611 0.86566 0.0
C1639 C 0.1455 0.29929 0.84272 0.0
C1640 C 0.11795 0.26997 0.88262 0.0
C1641 C 0.16337 0.27573 0.83617 0.0
C1642 C 0.15922 0.24976 0.8533 0.0
C1643 C 0.13374 0.22152 0.89584 0.0
C1644 C 0.11172 0.21873 0.92004 0.0
C1645 C 0.1369 0.24685 0.87698 0.0
C1646 C 0.09202 0.24115 0.92423 0.0
C1647 C 0.09523 0.26673 0.9058 0.0
H1648 H 0.51003 0.39753 0.71331 0.0
H1649 H 0.53783 0.33378 0.64126 0.0
H1650 H 0.49541 0.34344 0.60599 0.0
H1651 H 0.45234 0.37342 0.59338 0.0
H1652 H 0.42801 0.43946 0.66452 0.0
H1653 H 0.46698 0.42557 0.70225 0.0
C1654 C 0.50661 0.38537 0.69017 0.0
C1655 C 0.52701 0.36492 0.67997 0.0
C1656 C 0.48288 0.39179 0.66957 0.0
C1657 C 0.52235 0.34955 0.64975 0.0
C1658 C 0.49819 0.35522 0.62948 0.0
C1659 C 0.45554 0.38454 0.61727 0.0
C1660 C 0.43743 0.40761 0.62601 0.0
C1661 C 0.47862 0.37683 0.63872 0.0
C1662 C 0.44179 0.42186 0.65701 0.0
C1663 C 0.46405 0.41389 0.67869 0.0
H1664 H 0.15422 0.04843 0.28479 0.0
H1665 H 0.10407 0.0303 0.37419 0.0
H1666 H 0.11286 0.97909 0.36748 0.0
H1667 H 0.12457 0.94023 0.32832 0.0
H1668 H 0.17338 0.95822 0.23789 0.0
H1669 H 0.17649 0.00881 0.25349 0.0
C1670 C 0.14608 0.03326 0.30331 0.0
C1671 C 0.12772 0.04254 0.32902 0.0
C1672 C 0.15078 0.00395 0.29893 0.0
C1673 C 0.11748 0.02314 0.35341 0.0
C1674 C 0.12256 0.99397 0.34971 0.0
C1675 C 0.13657 0.9552 0.31269 0.0
C1676 C 0.1477 0.94628 0.28159 0.0
C1677 C 0.13754 0.98414 0.3213 0.0
C1678 C 0.16407 0.96514 0.26171 0.0
C1679 C 0.16571 0.99401 0.27047 0.0
H1680 H 0.20144 0.90109 0.51685 0.0
H1681 H 0.21886 0.85875 0.61212 0.0
H1682 H 0.26929 0.87137 0.60799 0.0
H1683 H 0.30896 0.88445 0.57102 0.0
H1684 H 0.2923 0.92584 0.47514 0.0
H1685 H 0.24078 0.92503 0.4864 0.0
C1686 C 0.21616 0.89566 0.53717 0.0
C1687 C 0.20698 0.87853 0.56416 0.0
C1688 C 0.24515 0.9027 0.53444 0.0
C1689 C 0.22595 0.87128 0.59052 0.0
C1690 C 0.25467 0.8786 0.58833 0.0
C1691 C 0.29398 0.89417 0.55329 0.0
C1692 C 0.30373 0.90435 0.52212 0.0
C1693 C 0.26468 0.89279 0.55945 0.0
C1694 C 0.28477 0.91756 0.49925 0.0
C1695 C 0.25541 0.91681 0.50548 0.0
H1696 H 0.34707 0.96238 0.8151 0.0
H1697 H 0.39516 0.93536 0.72735 0.0
H1698 H 0.38618 0.98153 0.69983 0.0
H1699 H 0.37584 0.03206 0.70764 0.0
H1700 H 0.33748 0.06165 0.80083 0.0
H1701 H 0.33008 0.012 0.81908 0.0
C1702 C 0.35482 0.96652 0.78958 0.0
C1703 C 0.37226 0.94638 0.77328 0.0
C1704 C 0.3514 0.99365 0.77525 0.0
C1705 C 0.38224 0.95126 0.74031 0.0
C1706 C 0.37708 0.97749 0.72469 0.0
C1707 C 0.36526 0.02751 0.73159 0.0
C1708 C 0.35793 0.04994 0.75345 0.0
C1709 C 0.36344 0.99936 0.74296 0.0
C1710 C 0.34346 0.04435 0.78389 0.0
C1711 C 0.33957 0.01607 0.79443 0.0
H1712 H 0.20328 0.10149 0.99383 0.0
H1713 H 0.18283 0.16396 0.07102 0.0
H1714 H 0.23339 0.16653 0.08742 0.0
H1715 H 0.28342 0.15429 0.07583 0.0
H1716 H 0.30411 0.09487 0.99575 0.0
H1717 H 0.25298 0.08783 0.98377 0.0
C1718 C 0.20986 0.11529 1.01461 0.0
C1719 C 0.1898 0.13272 0.03116 0.0
C1720 C 0.23879 0.11751 1.02274 0.0
C1721 C 0.19827 0.15055 0.05798 0.0
C1722 C 0.22703 0.15213 0.06714 0.0
C1723 C 0.27649 0.13991 0.05573 0.0
C1724 C 0.29677 0.12519 0.03636 0.0
C1725 C 0.24746 0.1364 0.04894 0.0
C1726 C 0.28834 0.10624 1.01074 0.0
C1727 C 0.25932 0.10227 1.00401 0.0
H1728 H 0.90557 0.04185 0.81551 0.0
H1729 H 0.82949 0.05408 0.7551 0.0
H1730 H 0.82582 0.00201 0.74616 0.0
H1731 H 0.84723 0.95428 0.75159 0.0
H1732 H 0.92456 0.94282 0.81042 0.0
H1733 H 0.9244 0.99374 0.82522 0.0
C1734 C 0.8883 0.03295 0.80029 0.0
C1735 C 0.86825 0.05114 0.78504 0.0
C1736 C 0.88645 0.00347 0.79554 0.0
C1737 C 0.84532 0.03999 0.76638 0.0
C1738 C 0.84321 0.01043 0.76148 0.0
C1739 C 0.86374 0.96288 0.76813 0.0
C1740 C 0.8862 0.94533 0.77947 0.0
C1741 C 0.86402 0.99211 0.77544 0.0
C1742 C 0.90733 0.95633 0.80116 0.0
C1743 C 0.90733 0.98532 0.80941 0.0
H1744 H 0.71155 0.1423 0.58472 0.0
H1745 H 0.69296 0.087 0.49989 0.0
H1746 H 0.74449 0.07947 0.49043 0.0
H1747 H 0.79376 0.09427 0.50204 0.0
H1748 H 0.81168 0.15312 0.58401 0.0
H1749 H 0.7611 0.15286 0.6002 0.0
C1750 C 0.71903 0.12854 0.56431 0.0
C1751 C 0.69935 0.11574 0.5423 0.0
C1752 C 0.74819 0.1248 0.559 0.0
C1753 C 0.70838 0.09731 0.51648 0.0
C1754 C 0.73759 0.09299 0.51127 0.0
C1755 C 0.78663 0.10648 0.52392 0.0
C1756 C 0.80583 0.12417 0.54153 0.0
C1757 C 0.75759 0.10737 0.53178 0.0
C1758 C 0.7968 0.13974 0.56998 0.0
C1759 C 0.76804 0.13973 0.57902 0.0
H1760 H 0.59643 0.04485 0.24338 0.0
H1761 H 0.65538 0.05893 0.32602 0.0
H1762 H 0.66298 0.00691 0.33137 0.0
H1763 H 0.65157 0.95827 0.31291 0.0
H1764 H 0.59105 0.94442 0.23149 0.0
H1765 H 0.58618 0.99632 0.2238 0.0
C1766 C 0.61054 0.03629 0.26288 0.0
C1767 C 0.6249 0.05487 0.28489 0.0
C1768 C 0.61506 0.00693 0.26513 0.0
C1769 C 0.64385 0.0444 0.30945 0.0
C1770 C 0.64836 0.01494 0.31216 0.0
C1771 C 0.63776 0.96662 0.29306 0.0
C1772 C 0.62154 0.94798 0.27279 0.0
C1773 C 0.63412 0.99611 0.29 0.0
C1774 C 0.60363 0.95876 0.24724 0.0
C1775 C 0.60063 0.98822 0.24316 0.0
H1776 H 0.71439 0.87891 0.9767 0.0
H1777 H 0.69575 0.88197 0.08383 0.0
H1778 H 0.74708 0.88774 0.09649 0.0
H1779 H 0.79667 0.88765 0.07667 0.0
H1780 H 0.81519 0.87787 0.97002 0.0
H1781 H 0.76379 0.87968 0.95685 0.0
C1782 C 0.72171 0.88107 1.00277 0.0
C1783 C 0.70204 0.88002 1.02951 0.0
C1784 C 0.7508 0.88333 1.00957 0.0
C1785 C 0.71109 0.88253 0.06321 0.0
C1786 C 0.74016 0.88592 0.07028 0.0
C1787 C 0.78934 0.88655 0.05052 0.0
C1788 C 0.80907 0.88297 1.0241 0.0
C1789 C 0.76013 0.88584 0.04363 0.0
C1790 C 0.79989 0.88084 0.9904 0.0
C1791 C 0.77074 0.88168 0.98303 0.0
H1792 H 0.66375 0.5368 0.8125 0.0
H1793 H 0.62384 0.56847 0.7211 0.0
H1794 H 0.62524 0.52046 0.69621 0.0
H1795 H 0.6248 0.46925 0.70773 0.0
H1796 H 0.65586 0.43708 0.80363 0.0
H1797 H 0.67145 0.48532 0.81976 0.0
C1798 C 0.65645 0.5332 0.78665 0.0
C1799 C 0.64308 0.55534 0.76867 0.0
C1800 C 0.65506 0.50535 0.77395 0.0
C1801 C 0.6337 0.55113 0.73527 0.0
C1802 C 0.63431 0.5238 0.72127 0.0
C1803 C 0.63548 0.47285 0.73187 0.0
C1804 C 0.63865 0.45033 0.755 0.0
C1805 C 0.64275 0.50057 0.74152 0.0
C1806 C 0.65315 0.45455 0.78575 0.0
C1807 C 0.66188 0.48203 0.79496 0.0
H1808 H 0.7825 0.37459 0.96738 0.0
H1809 H 0.79777 0.42828 0.05455 0.0
H1810 H 0.74594 0.43274 0.06392 0.0
H1811 H 0.69866 0.41216 0.05464 0.0
H1812 H 0.68502 0.35143 0.97349 0.0
H1813 H 0.73391 0.35948 0.95318 0.0
C1814 C 0.77418 0.38779 0.98786 0.0
C1815 C 0.79304 0.40069 1.01079 0.0
C1816 C 0.74492 0.38873 0.99401 0.0
C1817 C 0.78299 0.41804 0.0371 0.0
C1818 C 0.7536 0.42046 0.04238 0.0
C1819 C 0.70621 0.40128 0.032 0.0
C1820 C 0.68905 0.38068 1.01595 0.0
C1821 C 0.7346 0.40452 1.02215 0.0
C1822 C 0.69849 0.3669 0.98644 0.0
C1823 C 0.72629 0.37144 0.97499 0.0
H1824 H 0.84878 0.54732 0.2464 0.0
H1825 H 0.91154 0.56092 0.32538 0.0
H1826 H 0.90914 0.5101 0.34085 0.0
H1827 H 0.89454 0.46134 0.32602 0.0
H1828 H 0.83576 0.44694 0.24333 0.0
H1829 H 0.83117 0.49898 0.23459 0.0
C1830 C 0.86142 0.53922 0.26747 0.0
C1831 C 0.88057 0.55729 0.2846 0.0
C1832 C 0.86102 0.51001 0.27485 0.0
C1833 C 0.89691 0.54693 0.31183 0.0
C1834 C 0.89565 0.51803 0.32047 0.0
C1835 C 0.88064 0.46985 0.30629 0.0
C1836 C 0.86582 0.45114 0.28487 0.0
C1837 C 0.87875 0.49929 0.30115 0.0
C1838 C 0.84746 0.46155 0.25965 0.0
C1839 C 0.84484 0.49106 0.25481 0.0
H1840 H 0.71622 0.59857 0.49234 0.0
H1841 H 0.68566 0.63119 0.58807 0.0
H1842 H 0.73392 0.62778 0.61208 0.0
H1843 H 0.78512 0.62704 0.60085 0.0
H1844 H 0.81612 0.604 0.50143 0.0
H1845 H 0.7675 0.59156 0.48352 0.0
C1846 C 0.72015 0.60392 0.51878 0.0
C1847 C 0.69818 0.6155 0.53855 0.0
C1848 C 0.74807 0.60417 0.53125 0.0
C1849 C 0.70284 0.62258 0.57264 0.0
C1850 C 0.73029 0.62081 0.58616 0.0
C1851 C 0.78115 0.61884 0.57547 0.0
C1852 C 0.80361 0.61658 0.55222 0.0
C1853 C 0.75322 0.61357 0.56493 0.0
C1854 C 0.79881 0.60555 0.51963 0.0
C1855 C 0.7711 0.59872 0.50938 0.0
H1856 H 0.39545 0.5396 0.33805 0.0
H1857 H 0.33101 0.55574 0.26199 0.0
H1858 H 0.32366 0.50393 0.25465 0.0
H1859 H 0.34083 0.45511 0.26436 0.0
H1860 H 0.40828 0.4394 0.33717 0.0
H1861 H 0.4086 0.49023 0.35262 0.0
C1862 C 0.37966 0.53153 0.32015 0.0
C1863 C 0.36409 0.55068 0.30001 0.0
C1864 C 0.37606 0.50211 0.31585 0.0
C1865 C 0.34327 0.54081 0.27731 0.0
C1866 C 0.33911 0.51141 0.27323 0.0
C1867 C 0.35512 0.46275 0.28417 0.0
C1868 C 0.37497 0.44405 0.29919 0.0
C1869 C 0.35609 0.49195 0.2916 0.0
C1870 C 0.39315 0.4538 0.32507 0.0
C1871 C 0.39347 0.48275 0.33368 0.0
H1872 H 0.29255 0.65102 0.98666 0.0
H1873 H 0.30905 0.59377 0.0704 0.0
H1874 H 0.25741 0.58579 0.07756 0.0
H1875 H 0.2085 0.59885 0.06289 0.0
H1876 H 0.19209 0.66026 0.98308 0.0
H1877 H 0.24336 0.66221 0.97008 0.0
C1878 C 0.28458 0.63694 1.00651 0.0
C1879 C 0.3037 0.62325 1.02844 0.0
C1880 C 0.25534 0.63294 1.01054 0.0
C1881 C 0.29407 0.60453 0.05366 0.0
C1882 C 0.26481 0.59995 0.05756 0.0
C1883 C 0.21611 0.61218 0.0422 0.0
C1884 C 0.1971 0.62966 1.02406 0.0
C1885 C 0.24535 0.61442 0.03643 0.0
C1886 C 0.20682 0.64687 0.99732 0.0
C1887 C 0.23594 0.64814 0.99016 0.0
H1888 H 0.14336 0.44611 0.76605 0.0
H1889 H 0.10094 0.46293 0.86124 0.0
H1890 H 0.11046 0.51401 0.85546 0.0
H1891 H 0.12192 0.55381 0.81758 0.0
H1892 H 0.16521 0.5374 0.72298 0.0
H1893 H 0.16567 0.48595 0.73492 0.0
C1894 C 0.13736 0.46087 0.78608 0.0
C1895 C 0.12105 0.45127 0.81346 0.0
C1896 C 0.1429 0.49014 0.7826 0.0
C1897 C 0.11288 0.47031 0.83933 0.0
C1898 C 0.11841 0.49941 0.8362 0.0
C1899 C 0.13217 0.53891 0.80024 0.0
C1900 C 0.14275 0.54867 0.76931 0.0
C1901 C 0.13198 0.50963 0.80704 0.0
C1902 C 0.15666 0.52984 0.74693 0.0
C1903 C 0.15671 0.50052 0.75357 0.0
H1904 H 0.20278 0.41096 0.50216 0.0
H1905 H 0.18342 0.35616 0.58748 0.0
H1906 H 0.23334 0.3585 0.60616 0.0
H1907 H 0.28323 0.36794 0.59119 0.0
H1908 H 0.30327 0.4188 0.50301 0.0
H1909 H 0.25206 0.42607 0.49174 0.0
C1910 C 0.20941 0.40022 0.52534 0.0
C1911 C 0.19014 0.38281 0.5431 0.0
C1912 C 0.23818 0.40027 0.53457 0.0
C1913 C 0.19844 0.36922 0.57328 0.0
C1914 C 0.22685 0.37038 0.58375 0.0
C1915 C 0.27612 0.38075 0.56971 0.0
C1916 C 0.29612 0.392 0.54707 0.0
C1917 C 0.24706 0.38436 0.56339 0.0
C1918 C 0.2876 0.40931 0.51988 0.0
C1919 C 0.25855 0.41361 0.5137 0.0
H1920 H 0.09716 0.08542 0.10514 0.0
H1921 H 0.09073 0.17628 0.08561 0.0
H1922 H 0.09274 0.18589 0.14683 0.0
H1923 H 0.10202 0.16839 0.20611 0.0
H1924 H 0.11081 0.07743 0.22318 0.0
H1925 H 0.10227 0.068 0.16309 0.0
C1926 C 0.09571 0.10738 0.11413 0.0
C1927 C 0.09392 0.13007 0.09051 0.0
C1928 C 0.09767 0.11275 0.14921 0.0
C1929 C 0.09192 0.15831 0.103 0.0
C1930 C 0.09337 0.16384 0.13811 0.0
C1931 C 0.10147 0.14657 0.19661 0.0
C1932 C 0.10691 0.12356 0.21903 0.0
C1933 C 0.09707 0.14127 0.1615 0.0
C1934 C 0.10657 0.0954 0.2064 0.0
C1935 C 0.10176 0.09 0.17202 0.0
H1936 H 0.15784 0.85088 0.46129 0.0
H1937 H 0.06785 0.87082 0.45822 0.0
H1938 H 0.06739 0.86344 0.39631 0.0
H1939 H 0.09434 0.85668 0.34223 0.0
H1940 H 0.1848 0.83777 0.34685 0.0
H1941 H 0.18325 0.83876 0.40867 0.0
C1942 C 0.13799 0.85291 0.44709 0.0
C1943 C 0.11286 0.86111 0.46418 0.0
C1944 C 0.13807 0.84893 0.41163 0.0
C1945 C 0.08735 0.86412 0.44559 0.0
C1946 C 0.08719 0.86009 0.41018 0.0
C1947 C 0.1135 0.85193 0.35679 0.0
C1948 C 0.1397 0.84716 0.3397 0.0
C1949 C 0.11261 0.85315 0.39274 0.0
C1950 C 0.16439 0.84155 0.35915 0.0
C1951 C 0.16357 0.84225 0.39461 0.0
H1952 H 0.35461 0.84227 0.69358 0.0
H1953 H 0.43168 0.88531 0.72574 0.0
H1954 H 0.44314 0.89709 0.66675 0.0
H1955 H 0.42883 0.89879 0.60572 0.0
H1956 H 0.35493 0.85041 0.57363 0.0
H1957 H 0.34473 0.83713 0.63222 0.0
C1958 C 0.37427 0.85357 0.68754 0.0
C1959 C 0.39227 0.8628 0.71404 0.0
C1960 C 0.38114 0.85968 0.65339 0.0
C1961 C 0.41765 0.87755 0.70581 0.0
C1962 C 0.42408 0.8846 0.67204 0.0
C1963 C 0.41086 0.88491 0.61162 0.0
C1964 C 0.39252 0.87583 0.58533 0.0
C1965 C 0.40567 0.87632 0.64557 0.0
C1966 C 0.36935 0.85777 0.59332 0.0
C1967 C 0.36344 0.85016 0.62693 0.0
H1968 H 0.41283 0.1186 0.85047 0.0
H1969 H 0.34787 0.18426 0.8521 0.0
H1970 H 0.35148 0.18725 0.91405 0.0
H1971 H 0.36834 0.16652 0.96812 0.0
H1972 H 0.42807 0.09609 0.96655 0.0
H1973 H 0.43175 0.09972 0.90462 0.0
C1974 C 0.40011 0.13409 0.86441 0.0
C1975 C 0.38038 0.15146 0.84683 0.0
C1976 C 0.40123 0.13458 0.90019 0.0
C1977 C 0.36335 0.17087 0.86516 0.0
C1978 C 0.36532 0.17247 0.90057 0.0
C1979 C 0.38282 0.15262 0.9542 0.0
C1980 C 0.39834 0.13142 0.97176 0.0
C1981 C 0.38354 0.15382 0.91845 0.0
C1982 C 0.41626 0.11281 0.95349 0.0
C1983 C 0.41819 0.11477 0.91809 0.0
H1984 H 0.91849 0.88817 0.84026 0.0
H1985 H 0.86869 0.81058 0.84559 0.0
H1986 H 0.87512 0.80907 0.90747 0.0
H1987 H 0.88959 0.83345 0.96057 0.0
H1988 H 0.93384 0.91447 0.95507 0.0
H1989 H 0.93538 0.91102 0.89306 0.0
C1990 C 0.90989 0.87046 0.85497 0.0
C1991 C 0.89379 0.84907 0.83848 0.0
C1992 C 0.91247 0.87063 0.89064 0.0
C1993 C 0.8817 0.82686 0.85777 0.0
C1994 C 0.88519 0.82618 0.89314 0.0
C1995 C 0.90034 0.84987 0.94578 0.0
C1996 C 0.91201 0.87399 0.96239 0.0
C1997 C 0.89984 0.8484 0.90998 0.0
C1998 C 0.92501 0.89559 0.94288 0.0
C1999 C 0.92573 0.89369 0.90741 0.0
H2000 H 0.91308 0.12222 0.71765 0.0
H2001 H 0.8428 0.18161 0.70807 0.0
H2002 H 0.84993 0.18364 0.64644 0.0
H2003 H 0.87222 0.16392 0.59483 0.0
H2004 H 0.93723 0.09879 0.60372 0.0
H2005 H 0.93666 0.10375 0.66581 0.0
C2006 C 0.89992 0.13621 0.70206 0.0
C2007 C 0.87782 0.15223 0.71733 0.0
C2008 C 0.90319 0.13601 0.66644 0.0
C2009 C 0.86018 0.16946 0.69686 0.0
C2010 C 0.86418 0.17048 0.66164 0.0
C2011 C 0.88689 0.15152 0.6104 0.0
C2012 C 0.90535 0.1316 0.59482 0.0
C2013 C 0.88511 0.15328 0.64606 0.0
C2014 C 0.92339 0.11473 0.61521 0.0
C2015 C 0.92283 0.11739 0.65068 0.0
H2016 H 0.57215 0.13324 0.45088 0.0
H2017 H 0.66053 0.14676 0.4785 0.0
H2018 H 0.67226 0.15917 0.42007 0.0
H2019 H 0.65876 0.16098 0.36014 0.0
H2020 H 0.5707 0.14798 0.33091 0.0
H2021 H 0.55731 0.14153 0.39058 0.0
C2022 C 0.59378 0.13943 0.44403 0.0
C2023 C 0.6155 0.13908 0.46887 0.0
C2024 C 0.60044 0.14671 0.41003 0.0
C2025 C 0.64348 0.147 0.45981 0.0
C2026 C 0.65023 0.15405 0.42636 0.0
C2027 C 0.63649 0.15751 0.36689 0.0
C2028 C 0.61582 0.15493 0.34105 0.0
C2029 C 0.62907 0.15333 0.40112 0.0
C2030 C 0.58704 0.15041 0.35026 0.0
C2031 C 0.57942 0.14631 0.38442 0.0
H2032 H 0.619 0.83548 0.08889 0.0
H2033 H 0.57249 0.91499 0.09758 0.0
H2034 H 0.57087 0.90957 0.15944 0.0
H2035 H 0.58907 0.88605 0.21108 0.0
H2036 H 0.64177 0.81059 0.20262 0.0
H2037 H 0.6345 0.81012 0.14083 0.0
C2038 C 0.60765 0.85103 0.10435 0.0
C2039 C 0.59536 0.87532 0.08881 0.0
C2040 C 0.60834 0.84858 0.13999 0.0
C2041 C 0.58166 0.89594 0.10905 0.0
C2042 C 0.58097 0.89294 0.14439 0.0
C2043 C 0.59814 0.86901 0.19569 0.0
C2044 C 0.61535 0.84798 0.21117 0.0
C2045 C 0.5951 0.86989 0.16018 0.0
C2046 C 0.62796 0.82658 0.19113 0.0
C2047 C 0.62398 0.8265 0.15585 0.0
H2048 H 0.64697 0.67341 0.70021 0.0
H2049 H 0.58173 0.61372 0.73185 0.0
H2050 H 0.56938 0.60388 0.67281 0.0
H2051 H 0.58048 0.60881 0.61151 0.0
H2052 H 0.64005 0.67424 0.58004 0.0
H2053 H 0.65099 0.6855 0.6391 0.0
C2054 C 0.62959 0.65884 0.69408 0.0
C2055 C 0.61549 0.64415 0.7203 0.0
C2056 C 0.6217 0.65411 0.65995 0.0
C2057 C 0.59291 0.62537 0.7121 0.0
C2058 C 0.5859 0.61956 0.67828 0.0
C2059 C 0.59529 0.62597 0.61771 0.0
C2060 C 0.60964 0.64043 0.5915 0.0
C2061 C 0.60062 0.63329 0.65191 0.0
C2062 C 0.62871 0.66275 0.59979 0.0
C2063 C 0.63511 0.66916 0.63361 0.0
H2064 H 0.58885 0.38738 0.83962 0.0
H2065 H 0.64057 0.31097 0.84315 0.0
H2066 H 0.63373 0.30783 0.90484 0.0
H2067 H 0.61836 0.33064 0.9586 0.0
H2068 H 0.57141 0.41023 0.955 0.0
H2069 H 0.57057 0.40825 0.89292 0.0
C2070 C 0.59777 0.36954 0.85386 0.0
C2071 C 0.61456 0.349 0.83689 0.0
C2072 C 0.59481 0.36871 0.8895 0.0
C2073 C 0.62702 0.32661 0.85565 0.0
C2074 C 0.6233 0.325 0.89095 0.0
C2075 C 0.60717 0.34703 0.94418 0.0
C2076 C 0.59458 0.37036 0.96141 0.0
C2077 C 0.60794 0.34641 0.90832 0.0
C2078 C 0.58099 0.39195 0.94236 0.0
C2079 C 0.58066 0.3909 0.90683 0.0
H2080 H 0.91898 0.359 0.10221 0.0
H2081 H 0.83239 0.38704 0.08289 0.0
H2082 H 0.81884 0.37586 0.14092 0.0
H2083 H 0.83211 0.36276 0.19808 0.0
H2084 H 0.91927 0.3387 0.22127 0.0
H2085 H 0.93189 0.34291 0.16104 0.0
C2086 C 0.89719 0.36232 0.11085 0.0
C2087 C 0.87671 0.37399 0.0885 0.0
C2088 C 0.88961 0.35655 0.14496 0.0
C2089 C 0.84852 0.3783 0.09979 0.0
C2090 C 0.84071 0.37186 0.13295 0.0
C2091 C 0.85384 0.35798 0.19011 0.0
C2092 C 0.87471 0.35065 0.21437 0.0
C2093 C 0.86118 0.36162 0.15592 0.0
C2094 C 0.90268 0.34437 0.20322 0.0
C2095 C 0.91 0.34704 0.16876 0.0
H2096 H 0.86146 0.67556 0.36362 0.0
H2097 H 0.93465 0.62569 0.33266 0.0
H2098 H 0.94738 0.61705 0.39201 0.0
H2099 H 0.93356 0.61817 0.45281 0.0
H2100 H 0.86305 0.67158 0.48394 0.0
H2101 H 0.85366 0.68482 0.42484 0.0
C2102 C 0.88067 0.66358 0.36998 0.0
C2103 C 0.89708 0.65128 0.34386 0.0
C2104 C 0.88823 0.65917 0.40427 0.0
C2105 C 0.92187 0.63568 0.35234 0.0
C2106 C 0.92903 0.63049 0.38631 0.0
C2107 C 0.91687 0.63351 0.44662 0.0
C2108 C 0.89915 0.64411 0.47256 0.0
C2109 C 0.91186 0.64138 0.41252 0.0
C2110 C 0.87725 0.6636 0.46434 0.0
C2111 C 0.87167 0.67092 0.43052 0.0
H2112 H 0.33743 0.35615 0.36719 0.0
H2113 H 0.42644 0.34334 0.34233 0.0
H2114 H 0.43958 0.35069 0.40214 0.0
H2115 H 0.42577 0.36683 0.46098 0.0
H2116 H 0.33652 0.38347 0.48128 0.0
H2117 H 0.32365 0.36902 0.42422 0.0
C2118 C 0.35974 0.35445 0.37478 0.0
C2119 C 0.38085 0.34933 0.35009 0.0
C2120 C 0.3672 0.36008 0.40863 0.0
C2121 C 0.4096 0.34702 0.36071 0.0
C2122 C 0.41718 0.35164 0.39493 0.0
C2123 C 0.40358 0.36703 0.4528 0.0
C2124 C 0.38212 0.37663 0.47531 0.0
C2125 C 0.39622 0.35919 0.41903 0.0
C2126 C 0.35345 0.37668 0.4644 0.0
C2127 C 0.34601 0.36825 0.43173 0.0
H2128 H 0.38926 0.68023 0.20552 0.0
H2129 H 0.37621 0.59063 0.22836 0.0
H2130 H 0.3895 0.57748 0.17082 0.0
H2131 H 0.3998 0.59115 0.11302 0.0
H2132 H 0.40829 0.68051 0.08617 0.0
H2133 H 0.40284 0.69398 0.14605 0.0
C2134 C 0.38967 0.65791 0.19776 0.0
C2135 C 0.38158 0.63639 0.22096 0.0
C2136 C 0.3966 0.65043 0.16391 0.0
C2137 C 0.38212 0.60753 0.2108 0.0
C2138 C 0.38979 0.59996 0.17792 0.0
C2139 C 0.40093 0.61362 0.12013 0.0
C2140 C 0.40418 0.63475 0.09494 0.0
C2141 C 0.39637 0.62121 0.15409 0.0
C2142 C 0.4059 0.66371 0.10496 0.0
C2143 C 0.40242 0.67145 0.13921 0.0
H2144 H 0.14113 0.67199 0.85375 0.0
H2145 H 0.09116 0.59847 0.82382 0.0
H2146 H 0.07795 0.58963 0.88288 0.0
H2147 H 0.08423 0.6002 0.94402 0.0
H2148 H 0.12927 0.67681 0.9739 0.0
H2149 H 0.14018 0.68744 0.91442 0.0
C2150 C 0.12691 0.65442 0.8602 0.0
C2151 C 0.11734 0.63575 0.83443 0.0
C2152 C 0.11842 0.65005 0.89436 0.0
C2153 C 0.09882 0.61314 0.84314 0.0
C2154 C 0.09128 0.60801 0.87699 0.0
C2155 C 0.09562 0.6197 0.93738 0.0
C2156 C 0.1057 0.63779 0.96341 0.0
C2157 C 0.10137 0.62599 0.90294 0.0
C2158 C 0.12077 0.6628 0.95439 0.0
C2159 C 0.12735 0.66871 0.92032 0.0
H2160 H 0.08742 0.39172 0.71461 0.0
H2161 H 0.12838 0.30902 0.71172 0.0
H2162 H 0.1212 0.3067 0.64991 0.0
H2163 H 0.10908 0.33151 0.59599 0.0
H2164 H 0.07163 0.41605 0.5996 0.0
H2165 H 0.07094 0.41423 0.6616 0.0
C2166 C 0.09397 0.37285 0.70045 0.0
C2167 C 0.10797 0.35036 0.71751 0.0
C2168 C 0.09051 0.37217 0.66496 0.0
C2169 C 0.1171 0.32631 0.69905 0.0
C2170 C 0.11317 0.32514 0.66372 0.0
C2171 C 0.09987 0.34907 0.61039 0.0
C2172 C 0.09016 0.3738 0.5932 0.0
C2173 C 0.10064 0.34833 0.64624 0.0
C2174 C 0.07904 0.39674 0.61222 0.0
C2175 C 0.07884 0.39579 0.64769 0.0
loop_
_geom_bond_atom_site_label_1
_geom_bond_atom_site_label_2
_geom_bond_distance
_geom_bond_site_symmetry_2
_ccdc_geom_bond_type
Dy0 O4 2.398 . S
Dy0 O5 2.491 . S
Dy0 O6 2.403 . S
Dy0 O7 2.664 . S
Dy0 O11 2.326 . S
Dy0 O15 2.310 . S
Dy0 O16 2.351 . S
C1 O12 1.185 . S
C1 O13 1.355 . S
C2 O4 1.185 . S
C2 O5 1.355 . S
Dy3 O7 2.310 . S
Dy3 O10 2.351 . S
Dy3 O12 2.398 . S
Dy3 O13 2.491 . S
Dy3 O14 2.403 . S
Dy3 O15 2.664 . S
Dy3 O17 2.326 . S
O4 Dy0 2.398 . S
O4 C2 1.185 . S
O5 Dy0 2.491 . S
O5 C2 1.355 . S
O6 Dy0 2.403 . S
O6 C8 1.254 . S
O7 Dy0 2.664 . S
O7 Dy3 2.310 . S
O7 C8 1.268 . S
C8 O6 1.254 . S
C8 O7 1.268 . S
C9 O14 1.254 . S
C9 O15 1.268 . S
O10 Dy3 2.351 . S
O10 C18 1.249 . S
O11 Dy0 2.326 . S
O11 C18 1.267 . S
O12 C1 1.185 . S
O12 Dy3 2.398 . S
O13 C1 1.355 . S
O13 Dy3 2.491 . S
O14 Dy3 2.403 . S
O14 C9 1.254 . S
O15 Dy0 2.310 . S
O15 Dy3 2.664 . S
O15 C9 1.268 . S
O16 Dy0 2.351 . S
O16 C19 1.249 . S
O17 Dy3 2.326 . S
O17 C19 1.267 . S
C18 O10 1.249 . S
C18 O11 1.267 . S
C19 O16 1.249 . S
C19 O17 1.267 . S
Dy20 O24 2.398 . S
Dy20 O25 2.491 . S
Dy20 O26 2.403 . S
Dy20 O27 2.664 . S
Dy20 O31 2.326 . S
Dy20 O35 2.310 . S
Dy20 O36 2.351 . S
C21 O32 1.185 . S
C21 O33 1.355 . S
C22 O24 1.185 . S
C22 O25 1.355 . S
Dy23 O27 2.310 . S
Dy23 O30 2.351 . S
Dy23 O32 2.398 . S
Dy23 O33 2.491 . S
Dy23 O34 2.403 . S
Dy23 O35 2.664 . S
Dy23 O37 2.326 . S
O24 Dy20 2.398 . S
O24 C22 1.185 . S
O25 Dy20 2.491 . S
O25 C22 1.355 . S
O26 Dy20 2.403 . S
O26 C28 1.254 . S
O27 Dy20 2.664 . S
O27 Dy23 2.310 . S
O27 C28 1.268 . S
C28 O26 1.254 . S
C28 O27 1.268 . S
C29 O34 1.254 . S
C29 O35 1.268 . S
O30 Dy23 2.351 . S
O30 C38 1.249 . S
O31 Dy20 2.326 . S
O31 C38 1.267 . S
O32 C21 1.185 . S
O32 Dy23 2.398 . S
O33 C21 1.355 . S
O33 Dy23 2.491 . S
O34 Dy23 2.403 . S
O34 C29 1.254 . S
O35 Dy20 2.310 . S
O35 Dy23 2.664 . S
O35 C29 1.268 . S
O36 Dy20 2.351 . S
O36 C39 1.249 . S
O37 Dy23 2.326 . S
O37 C39 1.267 . S
C38 O30 1.249 . S
C38 O31 1.267 . S
C39 O36 1.249 . S
C39 O37 1.267 . S
Dy40 O44 2.398 . S
Dy40 O45 2.491 . S
Dy40 O46 2.403 . S
Dy40 O47 2.664 . S
Dy40 O51 2.326 . S
Dy40 O55 2.310 . S
Dy40 O56 2.351 . S
C41 O52 1.185 . S
C41 O53 1.355 . S
C42 O44 1.185 . S
C42 O45 1.355 . S
Dy43 O47 2.310 . S
Dy43 O50 2.351 . S
Dy43 O52 2.398 . S
Dy43 O53 2.491 . S
Dy43 O54 2.403 . S
Dy43 O55 2.664 . S
Dy43 O57 2.326 . S
O44 Dy40 2.398 . S
O44 C42 1.185 . S
O45 Dy40 2.491 . S
O45 C42 1.355 . S
O46 Dy40 2.403 . S
O46 C48 1.254 . S
O47 Dy40 2.664 . S
O47 Dy43 2.310 . S
O47 C48 1.268 . S
C48 O46 1.254 . S
C48 O47 1.268 . S
C49 O54 1.254 . S
C49 O55 1.268 . S
O50 Dy43 2.351 . S
O50 C58 1.249 . S
O51 Dy40 2.326 . S
O51 C58 1.267 . S
O52 C41 1.185 . S
O52 Dy43 2.398 . S
O53 C41 1.355 . S
O53 Dy43 2.491 . S
O54 Dy43 2.403 . S
O54 C49 1.254 . S
O55 Dy40 2.310 . S
O55 Dy43 2.664 . S
O55 C49 1.268 . S
O56 Dy40 2.351 . S
O56 C59 1.249 . S
O57 Dy43 2.326 . S
O57 C59 1.267 . S
C58 O50 1.249 . S
C58 O51 1.267 . S
C59 O56 1.249 . S
C59 O57 1.267 . S
Dy60 O64 2.398 . S
Dy60 O65 2.491 1_554 S
Dy60 O66 2.403 . S
Dy60 O67 2.664 . S
Dy60 O71 2.326 1_554 S
Dy60 O75 2.310 . S
Dy60 O76 2.351 . S
C61 O72 1.185 . S
C61 O73 1.355 . S
C62 O64 1.185 1_556 S
C62 O65 1.355 . S
Dy63 O67 2.310 . S
Dy63 O70 2.351 1_554 S
Dy63 O72 2.398 . S
Dy63 O73 2.491 . S
Dy63 O74 2.403 . S
Dy63 O75 2.664 . S
Dy63 O77 2.326 . S
O64 Dy60 2.398 . S
O64 C62 1.185 1_554 S
O65 Dy60 2.491 1_556 S
O65 C62 1.355 . S
O66 Dy60 2.403 . S
O66 C68 1.254 . S
O67 Dy60 2.664 . S
O67 Dy63 2.310 . S
O67 C68 1.268 . S
C68 O66 1.254 . S
C68 O67 1.268 . S
C69 O74 1.254 . S
C69 O75 1.268 . S
O70 Dy63 2.351 1_556 S
O70 C78 1.249 . S
O71 Dy60 2.326 1_556 S
O71 C78 1.267 . S
O72 C61 1.185 . S
O72 Dy63 2.398 . S
O73 C61 1.355 . S
O73 Dy63 2.491 . S
O74 Dy63 2.403 . S
O74 C69 1.254 . S
O75 Dy60 2.310 . S
O75 Dy63 2.664 . S
O75 C69 1.268 . S
O76 Dy60 2.351 . S
O76 C79 1.249 . S
O77 Dy63 2.326 . S
O77 C79 1.267 . S
C78 O70 1.249 . S
C78 O71 1.267 . S
C79 O76 1.249 . S
C79 O77 1.267 . S
Dy80 O84 2.398 . S
Dy80 O85 2.491 . S
Dy80 O86 2.403 . S
Dy80 O87 2.664 . S
Dy80 O91 2.326 . S
Dy80 O95 2.310 . S
Dy80 O96 2.351 . S
C81 O92 1.185 . S
C81 O93 1.355 . S
C82 O84 1.185 . S
C82 O85 1.355 . S
Dy83 O87 2.310 . S
Dy83 O90 2.351 . S
Dy83 O92 2.398 . S
Dy83 O93 2.491 . S
Dy83 O94 2.403 . S
Dy83 O95 2.664 . S
Dy83 O97 2.326 . S
O84 Dy80 2.398 . S
O84 C82 1.185 . S
O85 Dy80 2.491 . S
O85 C82 1.355 . S
O86 Dy80 2.403 . S
O86 C88 1.254 . S
O87 Dy80 2.664 . S
O87 Dy83 2.310 . S
O87 C88 1.268 . S
C88 O86 1.254 . S
C88 O87 1.268 . S
C89 O94 1.254 . S
C89 O95 1.268 . S
O90 Dy83 2.351 . S
O90 C98 1.249 . S
O91 Dy80 2.326 . S
O91 C98 1.267 . S
O92 C81 1.185 . S
O92 Dy83 2.398 . S
O93 C81 1.355 . S
O93 Dy83 2.491 . S
O94 Dy83 2.403 . S
O94 C89 1.254 . S
O95 Dy80 2.310 . S
O95 Dy83 2.664 . S
O95 C89 1.268 . S
O96 Dy80 2.351 . S
O96 C99 1.249 . S
O97 Dy83 2.326 . S
O97 C99 1.267 . S
C98 O90 1.249 . S
C98 O91 1.267 . S
C99 O96 1.249 . S
C99 O97 1.267 . S
Dy100 O104 2.398 . S
Dy100 O105 2.491 . S
Dy100 O106 2.403 . S
Dy100 O107 2.664 . S
Dy100 O111 2.326 . S
Dy100 O115 2.310 . S
Dy100 O116 2.351 . S
C101 O112 1.185 . S
C101 O113 1.355 . S
C102 O104 1.185 . S
C102 O105 1.355 . S
Dy103 O107 2.310 . S
Dy103 O110 2.351 . S
Dy103 O112 2.398 . S
Dy103 O113 2.491 . S
Dy103 O114 2.403 . S
Dy103 O115 2.664 . S
Dy103 O117 2.326 . S
O104 Dy100 2.398 . S
O104 C102 1.185 . S
O105 Dy100 2.491 . S
O105 C102 1.355 . S
O106 Dy100 2.403 . S
O106 C108 1.254 . S
O107 Dy100 2.664 . S
O107 Dy103 2.310 . S
O107 C108 1.268 . S
C108 O106 1.254 . S
C108 O107 1.268 . S
C109 O114 1.254 . S
C109 O115 1.268 . S
O110 Dy103 2.351 . S
O110 C118 1.249 . S
O111 Dy100 2.326 . S
O111 C118 1.267 . S
O112 C101 1.185 . S
O112 Dy103 2.398 . S
O113 C101 1.355 . S
O113 Dy103 2.491 . S
O114 Dy103 2.403 . S
O114 C109 1.254 . S
O115 Dy100 2.310 . S
O115 Dy103 2.664 . S
O115 C109 1.268 . S
O116 Dy100 2.351 . S
O116 C119 1.249 . S
O117 Dy103 2.326 . S
O117 C119 1.267 . S
C118 O110 1.249 . S
C118 O111 1.267 . S
C119 O116 1.249 . S
C119 O117 1.267 . S
Dy120 O124 2.398 . S
Dy120 O125 2.491 . S
Dy120 O126 2.403 . S
Dy120 O127 2.664 . S
Dy120 O131 2.326 . S
Dy120 O135 2.310 . S
Dy120 O136 2.351 . S
C121 O132 1.185 . S
C121 O133 1.355 . S
C122 O124 1.185 . S
C122 O125 1.355 . S
Dy123 O127 2.310 . S
Dy123 O130 2.351 . S
Dy123 O132 2.398 . S
Dy123 O133 2.491 . S
Dy123 O134 2.403 . S
Dy123 O135 2.664 . S
Dy123 O137 2.326 . S
O124 Dy120 2.398 . S
O124 C122 1.185 . S
O125 Dy120 2.491 . S
O125 C122 1.355 . S
O126 Dy120 2.403 . S
O126 C128 1.254 . S
O127 Dy120 2.664 . S
O127 Dy123 2.310 . S
O127 C128 1.268 . S
C128 O126 1.254 . S
C128 O127 1.268 . S
C129 O134 1.254 . S
C129 O135 1.268 . S
O130 Dy123 2.351 . S
O130 C138 1.249 . S
O131 Dy120 2.326 . S
O131 C138 1.267 . S
O132 C121 1.185 . S
O132 Dy123 2.398 . S
O133 C121 1.355 . S
O133 Dy123 2.491 . S
O134 Dy123 2.403 . S
O134 C129 1.254 . S
O135 Dy120 2.310 . S
O135 Dy123 2.664 . S
O135 C129 1.268 . S
O136 Dy120 2.351 . S
O136 C139 1.249 . S
O137 Dy123 2.326 . S
O137 C139 1.267 . S
C138 O130 1.249 . S
C138 O131 1.267 . S
C139 O136 1.249 . S
C139 O137 1.267 . S
Dy140 O144 2.398 . S
Dy140 O145 2.491 1_556 S
Dy140 O146 2.403 . S
Dy140 O147 2.664 . S
Dy140 O151 2.326 1_556 S
Dy140 O155 2.310 . S
Dy140 O156 2.351 . S
C141 O152 1.185 . S
C141 O153 1.355 . S
C142 O144 1.185 1_554 S
C142 O145 1.355 . S
Dy143 O147 2.310 . S
Dy143 O150 2.351 1_556 S
Dy143 O152 2.398 . S
Dy143 O153 2.491 . S
Dy143 O154 2.403 . S
Dy143 O155 2.664 . S
Dy143 O157 2.326 . S
O144 Dy140 2.398 . S
O144 C142 1.185 1_556 S
O145 Dy140 2.491 1_554 S
O145 C142 1.355 . S
O146 Dy140 2.403 . S
O146 C148 1.254 . S
O147 Dy140 2.664 . S
O147 Dy143 2.310 . S
O147 C148 1.268 . S
C148 O146 1.254 . S
C148 O147 1.268 . S
C149 O154 1.254 . S
C149 O155 1.268 . S
O150 Dy143 2.351 1_554 S
O150 C158 1.249 . S
O151 Dy140 2.326 1_554 S
O151 C158 1.267 . S
O152 C141 1.185 . S
O152 Dy143 2.398 . S
O153 C141 1.355 . S
O153 Dy143 2.491 . S
O154 Dy143 2.403 . S
O154 C149 1.254 . S
O155 Dy140 2.310 . S
O155 Dy143 2.664 . S
O155 C149 1.268 . S
O156 Dy140 2.351 . S
O156 C159 1.249 . S
O157 Dy143 2.326 . S
O157 C159 1.267 . S
C158 O150 1.249 . S
C158 O151 1.267 . S
C159 O156 1.249 . S
C159 O157 1.267 . S
Dy160 O164 2.398 . S
Dy160 O165 2.491 . S
Dy160 O166 2.403 . S
Dy160 O167 2.664 . S
Dy160 O171 2.326 . S
Dy160 O175 2.310 . S
Dy160 O176 2.351 . S
C161 O172 1.185 . S
C161 O173 1.355 . S
C162 O164 1.185 . S
C162 O165 1.355 . S
Dy163 O167 2.310 . S
Dy163 O170 2.351 . S
Dy163 O172 2.398 . S
Dy163 O173 2.491 . S
Dy163 O174 2.403 . S
Dy163 O175 2.664 . S
Dy163 O177 2.326 . S
O164 Dy160 2.398 . S
O164 C162 1.185 . S
O165 Dy160 2.491 . S
O165 C162 1.355 . S
O166 Dy160 2.403 . S
O166 C168 1.254 . S
O167 Dy160 2.664 . S
O167 Dy163 2.310 . S
O167 C168 1.268 . S
C168 O166 1.254 . S
C168 O167 1.268 . S
C169 O174 1.254 . S
C169 O175 1.268 . S
O170 Dy163 2.351 . S
O170 C178 1.249 . S
O171 Dy160 2.326 . S
O171 C178 1.267 . S
O172 C161 1.185 . S
O172 Dy163 2.398 . S
O173 C161 1.355 . S
O173 Dy163 2.491 . S
O174 Dy163 2.403 . S
O174 C169 1.254 . S
O175 Dy160 2.310 . S
O175 Dy163 2.664 . S
O175 C169 1.268 . S
O176 Dy160 2.351 . S
O176 C179 1.249 . S
O177 Dy163 2.326 . S
O177 C179 1.267 . S
C178 O170 1.249 . S
C178 O171 1.267 . S
C179 O176 1.249 . S
C179 O177 1.267 . S
Dy180 O184 2.398 . S
Dy180 O185 2.491 . S
Dy180 O186 2.403 . S
Dy180 O187 2.664 . S
Dy180 O191 2.326 . S
Dy180 O195 2.310 . S
Dy180 O196 2.351 . S
C181 O192 1.185 . S
C181 O193 1.355 . S
C182 O184 1.185 . S
C182 O185 1.355 . S
Dy183 O187 2.310 . S
Dy183 O190 2.351 . S
Dy183 O192 2.398 . S
Dy183 O193 2.491 . S
Dy183 O194 2.403 . S
Dy183 O195 2.664 . S
Dy183 O197 2.326 . S
O184 Dy180 2.398 . S
O184 C182 1.185 . S
O185 Dy180 2.491 . S
O185 C182 1.355 . S
O186 Dy180 2.403 . S
O186 C188 1.254 . S
O187 Dy180 2.664 . S
O187 Dy183 2.310 . S
O187 C188 1.268 . S
C188 O186 1.254 . S
C188 O187 1.268 . S
C189 O194 1.254 . S
C189 O195 1.268 . S
O190 Dy183 2.351 . S
O190 C198 1.249 . S
O191 Dy180 2.326 . S
O191 C198 1.267 . S
O192 C181 1.185 . S
O192 Dy183 2.398 . S
O193 C181 1.355 . S
O193 Dy183 2.491 . S
O194 Dy183 2.403 . S
O194 C189 1.254 . S
O195 Dy180 2.310 . S
O195 Dy183 2.664 . S
O195 C189 1.268 . S
O196 Dy180 2.351 . S
O196 C199 1.249 . S
O197 Dy183 2.326 . S
O197 C199 1.267 . S
C198 O190 1.249 . S
C198 O191 1.267 . S
C199 O196 1.249 . S
C199 O197 1.267 . S
Dy200 O204 2.398 . S
Dy200 O205 2.491 . S
Dy200 O206 2.403 . S
Dy200 O207 2.664 . S
Dy200 O211 2.326 . S
Dy200 O215 2.310 . S
Dy200 O216 2.351 . S
C201 O212 1.185 . S
C201 O213 1.355 . S
C202 O204 1.185 . S
C202 O205 1.355 . S
Dy203 O207 2.310 . S
Dy203 O210 2.351 . S
Dy203 O212 2.398 . S
Dy203 O213 2.491 . S
Dy203 O214 2.403 . S
Dy203 O215 2.664 . S
Dy203 O217 2.326 . S
O204 Dy200 2.398 . S
O204 C202 1.185 . S
O205 Dy200 2.491 . S
O205 C202 1.355 . S
O206 Dy200 2.403 . S
O206 C208 1.254 . S
O207 Dy200 2.664 . S
O207 Dy203 2.310 . S
O207 C208 1.268 . S
C208 O206 1.254 . S
C208 O207 1.268 . S
C209 O214 1.254 . S
C209 O215 1.268 . S
O210 Dy203 2.351 . S
O210 C218 1.249 . S
O211 Dy200 2.326 . S
O211 C218 1.267 . S
O212 C201 1.185 . S
O212 Dy203 2.398 . S
O213 C201 1.355 . S
O213 Dy203 2.491 . S
O214 Dy203 2.403 . S
O214 C209 1.254 . S
O215 Dy200 2.310 . S
O215 Dy203 2.664 . S
O215 C209 1.268 . S
O216 Dy200 2.351 . S
O216 C219 1.249 . S
O217 Dy203 2.326 . S
O217 C219 1.267 . S
C218 O210 1.249 . S
C218 O211 1.267 . S
C219 O216 1.249 . S
C219 O217 1.267 . S
Dy220 O224 2.398 . S
Dy220 O225 2.491 . S
Dy220 O226 2.403 . S
Dy220 O227 2.664 . S
Dy220 O231 2.326 . S
Dy220 O235 2.310 . S
Dy220 O236 2.351 1_556 S
C221 O232 1.185 1_554 S
C221 O233 1.355 . S
C222 O224 1.185 . S
C222 O225 1.355 . S
Dy223 O227 2.310 . S
Dy223 O230 2.351 . S
Dy223 O232 2.398 . S
Dy223 O233 2.491 1_556 S
Dy223 O234 2.403 . S
Dy223 O235 2.664 . S
Dy223 O237 2.326 1_556 S
O224 Dy220 2.398 . S
O224 C222 1.185 . S
O225 Dy220 2.491 . S
O225 C222 1.355 . S
O226 Dy220 2.403 . S
O226 C228 1.254 . S
O227 Dy220 2.664 . S
O227 Dy223 2.310 . S
O227 C228 1.268 . S
C228 O226 1.254 . S
C228 O227 1.268 . S
C229 O234 1.254 . S
C229 O235 1.268 . S
O230 Dy223 2.351 . S
O230 C238 1.249 . S
O231 Dy220 2.326 . S
O231 C238 1.267 . S
O232 C221 1.185 1_556 S
O232 Dy223 2.398 . S
O233 C221 1.355 . S
O233 Dy223 2.491 1_554 S
O234 Dy223 2.403 . S
O234 C229 1.254 . S
O235 Dy220 2.310 . S
O235 Dy223 2.664 . S
O235 C229 1.268 . S
O236 Dy220 2.351 1_554 S
O236 C239 1.249 . S
O237 Dy223 2.326 1_554 S
O237 C239 1.267 . S
C238 O230 1.249 . S
C238 O231 1.267 . S
C239 O236 1.249 . S
C239 O237 1.267 . S
Dy240 O244 2.398 . S
Dy240 O245 2.491 . S
Dy240 O246 2.403 . S
Dy240 O247 2.664 . S
Dy240 O251 2.326 . S
Dy240 O255 2.310 . S
Dy240 O256 2.351 . S
C241 O252 1.185 . S
C241 O253 1.355 . S
C242 O244 1.185 . S
C242 O245 1.355 . S
Dy243 O247 2.310 . S
Dy243 O250 2.351 . S
Dy243 O252 2.398 . S
Dy243 O253 2.491 . S
Dy243 O254 2.403 . S
Dy243 O255 2.664 . S
Dy243 O257 2.326 . S
O244 Dy240 2.398 . S
O244 C242 1.185 . S
O245 Dy240 2.491 . S
O245 C242 1.355 . S
O246 Dy240 2.403 . S
O246 C248 1.254 . S
O247 Dy240 2.664 . S
O247 Dy243 2.310 . S
O247 C248 1.268 . S
C248 O246 1.254 . S
C248 O247 1.268 . S
C249 O254 1.254 . S
C249 O255 1.268 . S
O250 Dy243 2.351 . S
O250 C258 1.249 . S
O251 Dy240 2.326 . S
O251 C258 1.267 . S
O252 C241 1.185 . S
O252 Dy243 2.398 . S
O253 C241 1.355 . S
O253 Dy243 2.491 . S
O254 Dy243 2.403 . S
O254 C249 1.254 . S
O255 Dy240 2.310 . S
O255 Dy243 2.664 . S
O255 C249 1.268 . S
O256 Dy240 2.351 . S
O256 C259 1.249 . S
O257 Dy243 2.326 . S
O257 C259 1.267 . S
C258 O250 1.249 . S
C258 O251 1.267 . S
C259 O256 1.249 . S
C259 O257 1.267 . S
Dy260 O264 2.398 . S
Dy260 O265 2.491 . S
Dy260 O266 2.403 . S
Dy260 O267 2.664 . S
Dy260 O271 2.326 . S
Dy260 O275 2.310 . S
Dy260 O276 2.351 . S
C261 O272 1.185 . S
C261 O273 1.355 . S
C262 O264 1.185 . S
C262 O265 1.355 . S
Dy263 O267 2.310 . S
Dy263 O270 2.351 . S
Dy263 O272 2.398 . S
Dy263 O273 2.491 . S
Dy263 O274 2.403 . S
Dy263 O275 2.664 . S
Dy263 O277 2.326 . S
O264 Dy260 2.398 . S
O264 C262 1.185 . S
O265 Dy260 2.491 . S
O265 C262 1.355 . S
O266 Dy260 2.403 . S
O266 C268 1.254 . S
O267 Dy260 2.664 . S
O267 Dy263 2.310 . S
O267 C268 1.268 . S
C268 O266 1.254 . S
C268 O267 1.268 . S
C269 O274 1.254 . S
C269 O275 1.268 . S
O270 Dy263 2.351 . S
O270 C278 1.249 . S
O271 Dy260 2.326 . S
O271 C278 1.267 . S
O272 C261 1.185 . S
O272 Dy263 2.398 . S
O273 C261 1.355 . S
O273 Dy263 2.491 . S
O274 Dy263 2.403 . S
O274 C269 1.254 . S
O275 Dy260 2.310 . S
O275 Dy263 2.664 . S
O275 C269 1.268 . S
O276 Dy260 2.351 . S
O276 C279 1.249 . S
O277 Dy263 2.326 . S
O277 C279 1.267 . S
C278 O270 1.249 . S
C278 O271 1.267 . S
C279 O276 1.249 . S
C279 O277 1.267 . S
Dy280 O284 2.398 . S
Dy280 O285 2.491 . S
Dy280 O286 2.403 . S
Dy280 O287 2.664 . S
Dy280 O291 2.326 . S
Dy280 O295 2.310 . S
Dy280 O296 2.351 . S
C281 O292 1.185 . S
C281 O293 1.355 . S
C282 O284 1.185 . S
C282 O285 1.355 . S
Dy283 O287 2.310 . S
Dy283 O290 2.351 . S
Dy283 O292 2.398 . S
Dy283 O293 2.491 . S
Dy283 O294 2.403 . S
Dy283 O295 2.664 . S
Dy283 O297 2.326 . S
O284 Dy280 2.398 . S
O284 C282 1.185 . S
O285 Dy280 2.491 . S
O285 C282 1.355 . S
O286 Dy280 2.403 . S
O286 C288 1.254 . S
O287 Dy280 2.664 . S
O287 Dy283 2.310 . S
O287 C288 1.268 . S
C288 O286 1.254 . S
C288 O287 1.268 . S
C289 O294 1.254 . S
C289 O295 1.268 . S
O290 Dy283 2.351 . S
O290 C298 1.249 . S
O291 Dy280 2.326 . S
O291 C298 1.267 . S
O292 C281 1.185 . S
O292 Dy283 2.398 . S
O293 C281 1.355 . S
O293 Dy283 2.491 . S
O294 Dy283 2.403 . S
O294 C289 1.254 . S
O295 Dy280 2.310 . S
O295 Dy283 2.664 . S
O295 C289 1.268 . S
O296 Dy280 2.351 . S
O296 C299 1.249 . S
O297 Dy283 2.326 . S
O297 C299 1.267 . S
C298 O290 1.249 . S
C298 O291 1.267 . S
C299 O296 1.249 . S
C299 O297 1.267 . S
Dy300 O304 2.398 . S
Dy300 O305 2.491 . S
Dy300 O306 2.403 . S
Dy300 O307 2.664 . S
Dy300 O311 2.326 . S
Dy300 O315 2.310 . S
Dy300 O316 2.351 1_554 S
C301 O312 1.185 1_556 S
C301 O313 1.355 . S
C302 O304 1.185 . S
C302 O305 1.355 . S
Dy303 O307 2.310 . S
Dy303 O310 2.351 . S
Dy303 O312 2.398 . S
Dy303 O313 2.491 1_554 S
Dy303 O314 2.403 . S
Dy303 O315 2.664 . S
Dy303 O317 2.326 1_554 S
O304 Dy300 2.398 . S
O304 C302 1.185 . S
O305 Dy300 2.491 . S
O305 C302 1.355 . S
O306 Dy300 2.403 . S
O306 C308 1.254 . S
O307 Dy300 2.664 . S
O307 Dy303 2.310 . S
O307 C308 1.268 . S
C308 O306 1.254 . S
C308 O307 1.268 . S
C309 O314 1.254 . S
C309 O315 1.268 . S
O310 Dy303 2.351 . S
O310 C318 1.249 . S
O311 Dy300 2.326 . S
O311 C318 1.267 . S
O312 C301 1.185 1_554 S
O312 Dy303 2.398 . S
O313 C301 1.355 . S
O313 Dy303 2.491 1_556 S
O314 Dy303 2.403 . S
O314 C309 1.254 . S
O315 Dy300 2.310 . S
O315 Dy303 2.664 . S
O315 C309 1.268 . S
O316 Dy300 2.351 1_556 S
O316 C319 1.249 . S
O317 Dy303 2.326 1_556 S
O317 C319 1.267 . S
C318 O310 1.249 . S
C318 O311 1.267 . S
C319 O316 1.249 . S
C319 O317 1.267 . S
Dy320 O324 2.398 . S
Dy320 O325 2.491 . S
Dy320 O326 2.403 . S
Dy320 O327 2.664 . S
Dy320 O331 2.326 . S
Dy320 O335 2.310 . S
Dy320 O336 2.351 . S
C321 O332 1.185 . S
C321 O333 1.355 . S
C322 O324 1.185 . S
C322 O325 1.355 . S
Dy323 O327 2.310 . S
Dy323 O330 2.351 . S
Dy323 O332 2.398 . S
Dy323 O333 2.491 . S
Dy323 O334 2.403 . S
Dy323 O335 2.664 . S
Dy323 O337 2.326 . S
O324 Dy320 2.398 . S
O324 C322 1.185 . S
O325 Dy320 2.491 . S
O325 C322 1.355 . S
O326 Dy320 2.403 . S
O326 C328 1.254 . S
O327 Dy320 2.664 . S
O327 Dy323 2.310 . S
O327 C328 1.268 . S
C328 O326 1.254 . S
C328 O327 1.268 . S
C329 O334 1.254 . S
C329 O335 1.268 . S
O330 Dy323 2.351 . S
O330 C338 1.249 . S
O331 Dy320 2.326 . S
O331 C338 1.267 . S
O332 C321 1.185 . S
O332 Dy323 2.398 . S
O333 C321 1.355 . S
O333 Dy323 2.491 . S
O334 Dy323 2.403 . S
O334 C329 1.254 . S
O335 Dy320 2.310 . S
O335 Dy323 2.664 . S
O335 C329 1.268 . S
O336 Dy320 2.351 . S
O336 C339 1.249 . S
O337 Dy323 2.326 . S
O337 C339 1.267 . S
C338 O330 1.249 . S
C338 O331 1.267 . S
C339 O336 1.249 . S
C339 O337 1.267 . S
Dy340 O344 2.398 . S
Dy340 O345 2.491 1_554 S
Dy340 O346 2.403 . S
Dy340 O347 2.664 . S
Dy340 O351 2.326 1_554 S
Dy340 O355 2.310 . S
Dy340 O356 2.351 . S
C341 O352 1.185 . S
C341 O353 1.355 . S
C342 O344 1.185 1_556 S
C342 O345 1.355 . S
Dy343 O347 2.310 . S
Dy343 O350 2.351 1_554 S
Dy343 O352 2.398 . S
Dy343 O353 2.491 . S
Dy343 O354 2.403 . S
Dy343 O355 2.664 . S
Dy343 O357 2.326 . S
O344 Dy340 2.398 . S
O344 C342 1.185 1_554 S
O345 Dy340 2.491 1_556 S
O345 C342 1.355 . S
O346 Dy340 2.403 . S
O346 C348 1.254 . S
O347 Dy340 2.664 . S
O347 Dy343 2.310 . S
O347 C348 1.268 . S
C348 O346 1.254 . S
C348 O347 1.268 . S
C349 O354 1.254 . S
C349 O355 1.268 . S
O350 Dy343 2.351 1_556 S
O350 C358 1.249 . S
O351 Dy340 2.326 1_556 S
O351 C358 1.267 . S
O352 C341 1.185 . S
O352 Dy343 2.398 . S
O353 C341 1.355 . S
O353 Dy343 2.491 . S
O354 Dy343 2.403 . S
O354 C349 1.254 . S
O355 Dy340 2.310 . S
O355 Dy343 2.664 . S
O355 C349 1.268 . S
O356 Dy340 2.351 . S
O356 C359 1.249 . S
O357 Dy343 2.326 . S
O357 C359 1.267 . S
C358 O350 1.249 . S
C358 O351 1.267 . S
C359 O356 1.249 . S
C359 O357 1.267 . S
Dy360 O364 2.398 . S
Dy360 O365 2.491 . S
Dy360 O366 2.403 . S
Dy360 O367 2.664 . S
Dy360 O371 2.326 . S
Dy360 O375 2.310 . S
Dy360 O376 2.351 . S
C361 O372 1.185 . S
C361 O373 1.355 . S
C362 O364 1.185 . S
C362 O365 1.355 . S
Dy363 O367 2.310 . S
Dy363 O370 2.351 . S
Dy363 O372 2.398 . S
Dy363 O373 2.491 . S
Dy363 O374 2.403 . S
Dy363 O375 2.664 . S
Dy363 O377 2.326 . S
O364 Dy360 2.398 . S
O364 C362 1.185 . S
O365 Dy360 2.491 . S
O365 C362 1.355 . S
O366 Dy360 2.403 . S
O366 C368 1.254 . S
O367 Dy360 2.664 . S
O367 Dy363 2.310 . S
O367 C368 1.268 . S
C368 O366 1.254 . S
C368 O367 1.268 . S
C369 O374 1.254 . S
C369 O375 1.268 . S
O370 Dy363 2.351 . S
O370 C378 1.249 . S
O371 Dy360 2.326 . S
O371 C378 1.267 . S
O372 C361 1.185 . S
O372 Dy363 2.398 . S
O373 C361 1.355 . S
O373 Dy363 2.491 . S
O374 Dy363 2.403 . S
O374 C369 1.254 . S
O375 Dy360 2.310 . S
O375 Dy363 2.664 . S
O375 C369 1.268 . S
O376 Dy360 2.351 . S
O376 C379 1.249 . S
O377 Dy363 2.326 . S
O377 C379 1.267 . S
C378 O370 1.249 . S
C378 O371 1.267 . S
C379 O376 1.249 . S
C379 O377 1.267 . S
Dy380 O384 2.398 . S
Dy380 O385 2.491 . S
Dy380 O386 2.403 . S
Dy380 O387 2.664 . S
Dy380 O391 2.326 . S
Dy380 O395 2.310 . S
Dy380 O396 2.351 . S
C381 O392 1.185 . S
C381 O393 1.355 . S
C382 O384 1.185 . S
C382 O385 1.355 . S
Dy383 O387 2.310 . S
Dy383 O390 2.351 . S
Dy383 O392 2.398 . S
Dy383 O393 2.491 . S
Dy383 O394 2.403 . S
Dy383 O395 2.664 . S
Dy383 O397 2.326 . S
O384 Dy380 2.398 . S
O384 C382 1.185 . S
O385 Dy380 2.491 . S
O385 C382 1.355 . S
O386 Dy380 2.403 . S
O386 C388 1.254 . S
O387 Dy380 2.664 . S
O387 Dy383 2.310 . S
O387 C388 1.268 . S
C388 O386 1.254 . S
C388 O387 1.268 . S
C389 O394 1.254 . S
C389 O395 1.268 . S
O390 Dy383 2.351 . S
O390 C398 1.249 . S
O391 Dy380 2.326 . S
O391 C398 1.267 . S
O392 C381 1.185 . S
O392 Dy383 2.398 . S
O393 C381 1.355 . S
O393 Dy383 2.491 . S
O394 Dy383 2.403 . S
O394 C389 1.254 . S
O395 Dy380 2.310 . S
O395 Dy383 2.664 . S
O395 C389 1.268 . S
O396 Dy380 2.351 . S
O396 C399 1.249 . S
O397 Dy383 2.326 . S
O397 C399 1.267 . S
C398 O390 1.249 . S
C398 O391 1.267 . S
C399 O396 1.249 . S
C399 O397 1.267 . S
Dy400 O404 2.398 . S
Dy400 O405 2.491 . S
Dy400 O406 2.403 . S
Dy400 O407 2.664 . S
Dy400 O411 2.326 . S
Dy400 O415 2.310 . S
Dy400 O416 2.351 . S
C401 O412 1.185 . S
C401 O413 1.355 . S
C402 O404 1.185 . S
C402 O405 1.355 . S
Dy403 O407 2.310 . S
Dy403 O410 2.351 . S
Dy403 O412 2.398 . S
Dy403 O413 2.491 . S
Dy403 O414 2.403 . S
Dy403 O415 2.664 . S
Dy403 O417 2.326 . S
O404 Dy400 2.398 . S
O404 C402 1.185 . S
O405 Dy400 2.491 . S
O405 C402 1.355 . S
O406 Dy400 2.403 . S
O406 C408 1.254 . S
O407 Dy400 2.664 . S
O407 Dy403 2.310 . S
O407 C408 1.268 . S
C408 O406 1.254 . S
C408 O407 1.268 . S
C409 O414 1.254 . S
C409 O415 1.268 . S
O410 Dy403 2.351 . S
O410 C418 1.249 . S
O411 Dy400 2.326 . S
O411 C418 1.267 . S
O412 C401 1.185 . S
O412 Dy403 2.398 . S
O413 C401 1.355 . S
O413 Dy403 2.491 . S
O414 Dy403 2.403 . S
O414 C409 1.254 . S
O415 Dy400 2.310 . S
O415 Dy403 2.664 . S
O415 C409 1.268 . S
O416 Dy400 2.351 . S
O416 C419 1.249 . S
O417 Dy403 2.326 . S
O417 C419 1.267 . S
C418 O410 1.249 . S
C418 O411 1.267 . S
C419 O416 1.249 . S
C419 O417 1.267 . S
Dy420 O424 2.398 . S
Dy420 O425 2.491 1_556 S
Dy420 O426 2.403 . S
Dy420 O427 2.664 . S
Dy420 O431 2.326 1_556 S
Dy420 O435 2.310 . S
Dy420 O436 2.351 . S
C421 O432 1.185 . S
C421 O433 1.355 . S
C422 O424 1.185 1_554 S
C422 O425 1.355 . S
Dy423 O427 2.310 . S
Dy423 O430 2.351 1_556 S
Dy423 O432 2.398 . S
Dy423 O433 2.491 . S
Dy423 O434 2.403 . S
Dy423 O435 2.664 . S
Dy423 O437 2.326 . S
O424 Dy420 2.398 . S
O424 C422 1.185 1_556 S
O425 Dy420 2.491 1_554 S
O425 C422 1.355 . S
O426 Dy420 2.403 . S
O426 C428 1.254 . S
O427 Dy420 2.664 . S
O427 Dy423 2.310 . S
O427 C428 1.268 . S
C428 O426 1.254 . S
C428 O427 1.268 . S
C429 O434 1.254 . S
C429 O435 1.268 . S
O430 Dy423 2.351 1_554 S
O430 C438 1.249 . S
O431 Dy420 2.326 1_554 S
O431 C438 1.267 . S
O432 C421 1.185 . S
O432 Dy423 2.398 . S
O433 C421 1.355 . S
O433 Dy423 2.491 . S
O434 Dy423 2.403 . S
O434 C429 1.254 . S
O435 Dy420 2.310 . S
O435 Dy423 2.664 . S
O435 C429 1.268 . S
O436 Dy420 2.351 . S
O436 C439 1.249 . S
O437 Dy423 2.326 . S
O437 C439 1.267 . S
C438 O430 1.249 . S
C438 O431 1.267 . S
C439 O436 1.249 . S
C439 O437 1.267 . S
Dy440 O444 2.398 . S
Dy440 O445 2.491 . S
Dy440 O446 2.403 . S
Dy440 O447 2.664 . S
Dy440 O451 2.326 . S
Dy440 O455 2.310 . S
Dy440 O456 2.351 . S
C441 O452 1.185 . S
C441 O453 1.355 . S
C442 O444 1.185 . S
C442 O445 1.355 . S
Dy443 O447 2.310 . S
Dy443 O450 2.351 . S
Dy443 O452 2.398 . S
Dy443 O453 2.491 . S
Dy443 O454 2.403 . S
Dy443 O455 2.664 . S
Dy443 O457 2.326 . S
O444 Dy440 2.398 . S
O444 C442 1.185 . S
O445 Dy440 2.491 . S
O445 C442 1.355 . S
O446 Dy440 2.403 . S
O446 C448 1.254 . S
O447 Dy440 2.664 . S
O447 Dy443 2.310 . S
O447 C448 1.268 . S
C448 O446 1.254 . S
C448 O447 1.268 . S
C449 O454 1.254 . S
C449 O455 1.268 . S
O450 Dy443 2.351 . S
O450 C458 1.249 . S
O451 Dy440 2.326 . S
O451 C458 1.267 . S
O452 C441 1.185 . S
O452 Dy443 2.398 . S
O453 C441 1.355 . S
O453 Dy443 2.491 . S
O454 Dy443 2.403 . S
O454 C449 1.254 . S
O455 Dy440 2.310 . S
O455 Dy443 2.664 . S
O455 C449 1.268 . S
O456 Dy440 2.351 . S
O456 C459 1.249 . S
O457 Dy443 2.326 . S
O457 C459 1.267 . S
C458 O450 1.249 . S
C458 O451 1.267 . S
C459 O456 1.249 . S
C459 O457 1.267 . S
Dy460 O464 2.398 . S
Dy460 O465 2.491 . S
Dy460 O466 2.403 . S
Dy460 O467 2.664 . S
Dy460 O471 2.326 . S
Dy460 O475 2.310 . S
Dy460 O476 2.351 . S
C461 O472 1.185 . S
C461 O473 1.355 . S
C462 O464 1.185 . S
C462 O465 1.355 . S
Dy463 O467 2.310 . S
Dy463 O470 2.351 . S
Dy463 O472 2.398 . S
Dy463 O473 2.491 . S
Dy463 O474 2.403 . S
Dy463 O475 2.664 . S
Dy463 O477 2.326 . S
O464 Dy460 2.398 . S
O464 C462 1.185 . S
O465 Dy460 2.491 . S
O465 C462 1.355 . S
O466 Dy460 2.403 . S
O466 C468 1.254 . S
O467 Dy460 2.664 . S
O467 Dy463 2.310 . S
O467 C468 1.268 . S
C468 O466 1.254 . S
C468 O467 1.268 . S
C469 O474 1.254 . S
C469 O475 1.268 . S
O470 Dy463 2.351 . S
O470 C478 1.249 . S
O471 Dy460 2.326 . S
O471 C478 1.267 . S
O472 C461 1.185 . S
O472 Dy463 2.398 . S
O473 C461 1.355 . S
O473 Dy463 2.491 . S
O474 Dy463 2.403 . S
O474 C469 1.254 . S
O475 Dy460 2.310 . S
O475 Dy463 2.664 . S
O475 C469 1.268 . S
O476 Dy460 2.351 . S
O476 C479 1.249 . S
O477 Dy463 2.326 . S
O477 C479 1.267 . S
C478 O470 1.249 . S
C478 O471 1.267 . S
C479 O476 1.249 . S
C479 O477 1.267 . S
Dy480 O484 2.398 . S
Dy480 O485 2.491 . S
Dy480 O486 2.403 . S
Dy480 O487 2.664 . S
Dy480 O491 2.326 . S
Dy480 O495 2.310 . S
Dy480 O496 2.351 . S
C481 O492 1.185 . S
C481 O493 1.355 . S
C482 O484 1.185 . S
C482 O485 1.355 . S
Dy483 O487 2.310 . S
Dy483 O490 2.351 . S
Dy483 O492 2.398 . S
Dy483 O493 2.491 . S
Dy483 O494 2.403 . S
Dy483 O495 2.664 . S
Dy483 O497 2.326 . S
O484 Dy480 2.398 . S
O484 C482 1.185 . S
O485 Dy480 2.491 . S
O485 C482 1.355 . S
O486 Dy480 2.403 . S
O486 C488 1.254 . S
O487 Dy480 2.664 . S
O487 Dy483 2.310 . S
O487 C488 1.268 . S
C488 O486 1.254 . S
C488 O487 1.268 . S
C489 O494 1.254 . S
C489 O495 1.268 . S
O490 Dy483 2.351 . S
O490 C498 1.249 . S
O491 Dy480 2.326 . S
O491 C498 1.267 . S
O492 C481 1.185 . S
O492 Dy483 2.398 . S
O493 C481 1.355 . S
O493 Dy483 2.491 . S
O494 Dy483 2.403 . S
O494 C489 1.254 . S
O495 Dy480 2.310 . S
O495 Dy483 2.664 . S
O495 C489 1.268 . S
O496 Dy480 2.351 . S
O496 C499 1.249 . S
O497 Dy483 2.326 . S
O497 C499 1.267 . S
C498 O490 1.249 . S
C498 O491 1.267 . S
C499 O496 1.249 . S
C499 O497 1.267 . S
Dy500 O504 2.398 . S
Dy500 O505 2.491 . S
Dy500 O506 2.403 . S
Dy500 O507 2.664 . S
Dy500 O511 2.326 . S
Dy500 O515 2.310 . S
Dy500 O516 2.351 1_556 S
C501 O512 1.185 1_554 S
C501 O513 1.355 . S
C502 O504 1.185 . S
C502 O505 1.355 . S
Dy503 O507 2.310 . S
Dy503 O510 2.351 . S
Dy503 O512 2.398 . S
Dy503 O513 2.491 1_556 S
Dy503 O514 2.403 . S
Dy503 O515 2.664 . S
Dy503 O517 2.326 1_556 S
O504 Dy500 2.398 . S
O504 C502 1.185 . S
O505 Dy500 2.491 . S
O505 C502 1.355 . S
O506 Dy500 2.403 . S
O506 C508 1.254 . S
O507 Dy500 2.664 . S
O507 Dy503 2.310 . S
O507 C508 1.268 . S
C508 O506 1.254 . S
C508 O507 1.268 . S
C509 O514 1.254 . S
C509 O515 1.268 . S
O510 Dy503 2.351 . S
O510 C518 1.249 . S
O511 Dy500 2.326 . S
O511 C518 1.267 . S
O512 C501 1.185 1_556 S
O512 Dy503 2.398 . S
O513 C501 1.355 . S
O513 Dy503 2.491 1_554 S
O514 Dy503 2.403 . S
O514 C509 1.254 . S
O515 Dy500 2.310 . S
O515 Dy503 2.664 . S
O515 C509 1.268 . S
O516 Dy500 2.351 1_554 S
O516 C519 1.249 . S
O517 Dy503 2.326 1_554 S
O517 C519 1.267 . S
C518 O510 1.249 . S
C518 O511 1.267 . S
C519 O516 1.249 . S
C519 O517 1.267 . S
Dy520 O524 2.398 . S
Dy520 O525 2.491 . S
Dy520 O526 2.403 . S
Dy520 O527 2.664 . S
Dy520 O531 2.326 . S
Dy520 O535 2.310 . S
Dy520 O536 2.351 . S
C521 O532 1.185 . S
C521 O533 1.355 . S
C522 O524 1.185 . S
C522 O525 1.355 . S
Dy523 O527 2.310 . S
Dy523 O530 2.351 . S
Dy523 O532 2.398 . S
Dy523 O533 2.491 . S
Dy523 O534 2.403 . S
Dy523 O535 2.664 . S
Dy523 O537 2.326 . S
O524 Dy520 2.398 . S
O524 C522 1.185 . S
O525 Dy520 2.491 . S
O525 C522 1.355 . S
O526 Dy520 2.403 . S
O526 C528 1.254 . S
O527 Dy520 2.664 . S
O527 Dy523 2.310 . S
O527 C528 1.268 . S
C528 O526 1.254 . S
C528 O527 1.268 . S
C529 O534 1.254 . S
C529 O535 1.268 . S
O530 Dy523 2.351 . S
O530 C538 1.249 . S
O531 Dy520 2.326 . S
O531 C538 1.267 . S
O532 C521 1.185 . S
O532 Dy523 2.398 . S
O533 C521 1.355 . S
O533 Dy523 2.491 . S
O534 Dy523 2.403 . S
O534 C529 1.254 . S
O535 Dy520 2.310 . S
O535 Dy523 2.664 . S
O535 C529 1.268 . S
O536 Dy520 2.351 . S
O536 C539 1.249 . S
O537 Dy523 2.326 . S
O537 C539 1.267 . S
C538 O530 1.249 . S
C538 O531 1.267 . S
C539 O536 1.249 . S
C539 O537 1.267 . S
Dy540 O544 2.398 . S
Dy540 O545 2.491 . S
Dy540 O546 2.403 . S
Dy540 O547 2.664 . S
Dy540 O551 2.326 . S
Dy540 O555 2.310 . S
Dy540 O556 2.351 . S
C541 O552 1.185 . S
C541 O553 1.355 . S
C542 O544 1.185 . S
C542 O545 1.355 . S
Dy543 O547 2.310 . S
Dy543 O550 2.351 . S
Dy543 O552 2.398 . S
Dy543 O553 2.491 . S
Dy543 O554 2.403 . S
Dy543 O555 2.664 . S
Dy543 O557 2.326 . S
O544 Dy540 2.398 . S
O544 C542 1.185 . S
O545 Dy540 2.491 . S
O545 C542 1.355 . S
O546 Dy540 2.403 . S
O546 C548 1.254 . S
O547 Dy540 2.664 . S
O547 Dy543 2.310 . S
O547 C548 1.268 . S
C548 O546 1.254 . S
C548 O547 1.268 . S
C549 O554 1.254 . S
C549 O555 1.268 . S
O550 Dy543 2.351 . S
O550 C558 1.249 . S
O551 Dy540 2.326 . S
O551 C558 1.267 . S
O552 C541 1.185 . S
O552 Dy543 2.398 . S
O553 C541 1.355 . S
O553 Dy543 2.491 . S
O554 Dy543 2.403 . S
O554 C549 1.254 . S
O555 Dy540 2.310 . S
O555 Dy543 2.664 . S
O555 C549 1.268 . S
O556 Dy540 2.351 . S
O556 C559 1.249 . S
O557 Dy543 2.326 . S
O557 C559 1.267 . S
C558 O550 1.249 . S
C558 O551 1.267 . S
C559 O556 1.249 . S
C559 O557 1.267 . S
Dy560 O564 2.398 . S
Dy560 O565 2.491 . S
Dy560 O566 2.403 . S
Dy560 O567 2.664 . S
Dy560 O571 2.326 . S
Dy560 O575 2.310 . S
Dy560 O576 2.351 . S
C561 O572 1.185 . S
C561 O573 1.355 . S
C562 O564 1.185 . S
C562 O565 1.355 . S
Dy563 O567 2.310 . S
Dy563 O570 2.351 . S
Dy563 O572 2.398 . S
Dy563 O573 2.491 . S
Dy563 O574 2.403 . S
Dy563 O575 2.664 . S
Dy563 O577 2.326 . S
O564 Dy560 2.398 . S
O564 C562 1.185 . S
O565 Dy560 2.491 . S
O565 C562 1.355 . S
O566 Dy560 2.403 . S
O566 C568 1.254 . S
O567 Dy560 2.664 . S
O567 Dy563 2.310 . S
O567 C568 1.268 . S
C568 O566 1.254 . S
C568 O567 1.268 . S
C569 O574 1.254 . S
C569 O575 1.268 . S
O570 Dy563 2.351 . S
O570 C578 1.249 . S
O571 Dy560 2.326 . S
O571 C578 1.267 . S
O572 C561 1.185 . S
O572 Dy563 2.398 . S
O573 C561 1.355 . S
O573 Dy563 2.491 . S
O574 Dy563 2.403 . S
O574 C569 1.254 . S
O575 Dy560 2.310 . S
O575 Dy563 2.664 . S
O575 C569 1.268 . S
O576 Dy560 2.351 . S
O576 C579 1.249 . S
O577 Dy563 2.326 . S
O577 C579 1.267 . S
C578 O570 1.249 . S
C578 O571 1.267 . S
C579 O576 1.249 . S
C579 O577 1.267 . S
Dy580 O584 2.398 . S
Dy580 O585 2.491 . S
Dy580 O586 2.403 . S
Dy580 O587 2.664 . S
Dy580 O591 2.326 . S
Dy580 O595 2.310 . S
Dy580 O596 2.351 1_554 S
C581 O592 1.185 1_556 S
C581 O593 1.355 . S
C582 O584 1.185 . S
C582 O585 1.355 . S
Dy583 O587 2.310 . S
Dy583 O590 2.351 . S
Dy583 O592 2.398 . S
Dy583 O593 2.491 1_554 S
Dy583 O594 2.403 . S
Dy583 O595 2.664 . S
Dy583 O597 2.326 1_554 S
O584 Dy580 2.398 . S
O584 C582 1.185 . S
O585 Dy580 2.491 . S
O585 C582 1.355 . S
O586 Dy580 2.403 . S
O586 C588 1.254 . S
O587 Dy580 2.664 . S
O587 Dy583 2.310 . S
O587 C588 1.268 . S
C588 O586 1.254 . S
C588 O587 1.268 . S
C589 O594 1.254 . S
C589 O595 1.268 . S
O590 Dy583 2.351 . S
O590 C598 1.249 . S
O591 Dy580 2.326 . S
O591 C598 1.267 . S
O592 C581 1.185 1_554 S
O592 Dy583 2.398 . S
O593 C581 1.355 . S
O593 Dy583 2.491 1_556 S
O594 Dy583 2.403 . S
O594 C589 1.254 . S
O595 Dy580 2.310 . S
O595 Dy583 2.664 . S
O595 C589 1.268 . S
O596 Dy580 2.351 1_556 S
O596 C599 1.249 . S
O597 Dy583 2.326 1_556 S
O597 C599 1.267 . S
C598 O590 1.249 . S
C598 O591 1.267 . S
C599 O596 1.249 . S
C599 O597 1.267 . S
Dy600 O604 2.398 . S
Dy600 O605 2.491 . S
Dy600 O606 2.403 . S
Dy600 O607 2.664 . S
Dy600 O611 2.326 . S
Dy600 O615 2.310 . S
Dy600 O616 2.351 . S
C601 O612 1.185 . S
C601 O613 1.355 . S
C602 O604 1.185 . S
C602 O605 1.355 . S
Dy603 O607 2.310 . S
Dy603 O610 2.351 . S
Dy603 O612 2.398 . S
Dy603 O613 2.491 . S
Dy603 O614 2.403 . S
Dy603 O615 2.664 . S
Dy603 O617 2.326 . S
O604 Dy600 2.398 . S
O604 C602 1.185 . S
O605 Dy600 2.491 . S
O605 C602 1.355 . S
O606 Dy600 2.403 . S
O606 C608 1.254 . S
O607 Dy600 2.664 . S
O607 Dy603 2.310 . S
O607 C608 1.268 . S
C608 O606 1.254 . S
C608 O607 1.268 . S
C609 O614 1.254 . S
C609 O615 1.268 . S
O610 Dy603 2.351 . S
O610 C618 1.249 . S
O611 Dy600 2.326 . S
O611 C618 1.267 . S
O612 C601 1.185 . S
O612 Dy603 2.398 . S
O613 C601 1.355 . S
O613 Dy603 2.491 . S
O614 Dy603 2.403 . S
O614 C609 1.254 . S
O615 Dy600 2.310 . S
O615 Dy603 2.664 . S
O615 C609 1.268 . S
O616 Dy600 2.351 . S
O616 C619 1.249 . S
O617 Dy603 2.326 . S
O617 C619 1.267 . S
C618 O610 1.249 . S
C618 O611 1.267 . S
C619 O616 1.249 . S
C619 O617 1.267 . S
Dy620 O624 2.398 . S
Dy620 O625 2.491 . S
Dy620 O626 2.403 . S
Dy620 O627 2.664 . S
Dy620 O631 2.326 . S
Dy620 O635 2.310 . S
Dy620 O636 2.351 . S
C621 O632 1.185 . S
C621 O633 1.355 . S
C622 O624 1.185 . S
C622 O625 1.355 . S
Dy623 O627 2.310 . S
Dy623 O630 2.351 . S
Dy623 O632 2.398 . S
Dy623 O633 2.491 . S
Dy623 O634 2.403 . S
Dy623 O635 2.664 . S
Dy623 O637 2.326 . S
O624 Dy620 2.398 . S
O624 C622 1.185 . S
O625 Dy620 2.491 . S
O625 C622 1.355 . S
O626 Dy620 2.403 . S
O626 C628 1.254 . S
O627 Dy620 2.664 . S
O627 Dy623 2.310 . S
O627 C628 1.268 . S
C628 O626 1.254 . S
C628 O627 1.268 . S
C629 O634 1.254 . S
C629 O635 1.268 . S
O630 Dy623 2.351 . S
O630 C638 1.249 . S
O631 Dy620 2.326 . S
O631 C638 1.267 . S
O632 C621 1.185 . S
O632 Dy623 2.398 . S
O633 C621 1.355 . S
O633 Dy623 2.491 . S
O634 Dy623 2.403 . S
O634 C629 1.254 . S
O635 Dy620 2.310 . S
O635 Dy623 2.664 . S
O635 C629 1.268 . S
O636 Dy620 2.351 . S
O636 C639 1.249 . S
O637 Dy623 2.326 . S
O637 C639 1.267 . S
C638 O630 1.249 . S
C638 O631 1.267 . S
C639 O636 1.249 . S
C639 O637 1.267 . S
H640 C646 0.930 . S
H641 C649 0.930 . S
H642 C650 0.930 . S
H643 C651 0.930 . S
H644 C654 0.930 . S
H645 C655 0.930 . S
C646 H640 0.930 . S
C646 C647 1.355 . S
C646 C648 1.415 . S
C647 C646 1.355 . S
C647 C649 1.419 . S
C648 C646 1.415 . S
C648 C653 1.425 . S
C648 C655 1.409 . S
C649 H641 0.930 . S
C649 C647 1.419 . S
C649 C650 1.362 . S
C650 H642 0.930 . S
C650 C649 1.362 . S
C650 C653 1.409 . S
C651 H643 0.930 . S
C651 C652 1.355 . S
C651 C653 1.415 . S
C652 C651 1.355 . S
C652 C654 1.419 . S
C653 C648 1.425 . S
C653 C650 1.409 . S
C653 C651 1.415 . S
C654 H644 0.930 . S
C654 C652 1.419 . S
C654 C655 1.362 . S
C655 H645 0.930 . S
C655 C648 1.409 . S
C655 C654 1.362 . S
H656 C662 0.930 . S
H657 C665 0.930 . S
H658 C666 0.930 . S
H659 C667 0.930 . S
H660 C670 0.930 . S
H661 C671 0.930 . S
C662 H656 0.930 . S
C662 C663 1.355 . S
C662 C664 1.415 . S
C663 C662 1.355 . S
C663 C665 1.419 . S
C664 C662 1.415 . S
C664 C669 1.425 . S
C664 C671 1.409 1_545 S
C665 H657 0.930 . S
C665 C663 1.419 . S
C665 C666 1.362 . S
C666 H658 0.930 . S
C666 C665 1.362 . S
C666 C669 1.409 . S
C667 H659 0.930 . S
C667 C668 1.355 1_545 S
C667 C669 1.415 . S
C668 C667 1.355 1_565 S
C668 C670 1.419 . S
C669 C664 1.425 . S
C669 C666 1.409 . S
C669 C667 1.415 . S
C670 H660 0.930 . S
C670 C668 1.419 . S
C670 C671 1.362 . S
C671 H661 0.930 . S
C671 C664 1.409 1_565 S
C671 C670 1.362 . S
H672 C678 0.930 . S
H673 C681 0.930 . S
H674 C682 0.930 . S
H675 C683 0.930 . S
H676 C686 0.930 . S
H677 C687 0.930 . S
C678 H672 0.930 . S
C678 C679 1.355 . S
C678 C680 1.415 . S
C679 C678 1.355 . S
C679 C681 1.419 . S
C680 C678 1.415 . S
C680 C685 1.425 . S
C680 C687 1.409 . S
C681 H673 0.930 . S
C681 C679 1.419 . S
C681 C682 1.362 . S
C682 H674 0.930 . S
C682 C681 1.362 . S
C682 C685 1.409 . S
C683 H675 0.930 . S
C683 C684 1.355 . S
C683 C685 1.415 . S
C684 C683 1.355 . S
C684 C686 1.419 . S
C685 C680 1.425 . S
C685 C682 1.409 . S
C685 C683 1.415 . S
C686 H676 0.930 . S
C686 C684 1.419 . S
C686 C687 1.362 . S
C687 H677 0.930 . S
C687 C680 1.409 . S
C687 C686 1.362 . S
H688 C694 0.930 . S
H689 C697 0.930 . S
H690 C698 0.930 . S
H691 C699 0.930 . S
H692 C702 0.930 . S
H693 C703 0.930 . S
C694 H688 0.930 . S
C694 C695 1.355 . S
C694 C696 1.415 . S
C695 C694 1.355 . S
C695 C697 1.419 . S
C696 C694 1.415 . S
C696 C701 1.425 . S
C696 C703 1.409 1_565 S
C697 H689 0.930 . S
C697 C695 1.419 . S
C697 C698 1.362 . S
C698 H690 0.930 . S
C698 C697 1.362 . S
C698 C701 1.409 . S
C699 H691 0.930 . S
C699 C700 1.355 1_565 S
C699 C701 1.415 . S
C700 C699 1.355 1_545 S
C700 C702 1.419 . S
C701 C696 1.425 . S
C701 C698 1.409 . S
C701 C699 1.415 . S
C702 H692 0.930 . S
C702 C700 1.419 . S
C702 C703 1.362 . S
C703 H693 0.930 . S
C703 C696 1.409 1_545 S
C703 C702 1.362 . S
H704 C710 0.930 . S
H705 C713 0.930 . S
H706 C714 0.930 . S
H707 C715 0.930 . S
H708 C718 0.930 . S
H709 C719 0.930 . S
C710 H704 0.930 . S
C710 C711 1.355 . S
C710 C712 1.415 . S
C711 C710 1.355 . S
C711 C713 1.419 . S
C712 C710 1.415 . S
C712 C717 1.425 . S
C712 C719 1.409 . S
C713 H705 0.930 . S
C713 C711 1.419 . S
C713 C714 1.362 . S
C714 H706 0.930 . S
C714 C713 1.362 . S
C714 C717 1.409 . S
C715 H707 0.930 . S
C715 C716 1.355 . S
C715 C717 1.415 . S
C716 C715 1.355 . S
C716 C718 1.419 . S
C717 C712 1.425 . S
C717 C714 1.409 . S
C717 C715 1.415 . S
C718 H708 0.930 . S
C718 C716 1.419 . S
C718 C719 1.362 . S
C719 H709 0.930 . S
C719 C712 1.409 . S
C719 C718 1.362 . S
H720 C726 0.930 . S
H721 C729 0.930 . S
H722 C730 0.930 . S
H723 C731 0.930 . S
H724 C734 0.930 . S
H725 C735 0.934 . S
C726 H720 0.930 . S
C726 C727 1.355 . S
C726 C728 1.415 1_565 S
C727 C726 1.355 . S
C727 C729 1.419 1_565 S
C728 C726 1.415 1_545 S
C728 C733 1.425 . S
C728 C735 1.409 . S
C729 H721 0.930 . S
C729 C727 1.419 1_545 S
C729 C730 1.362 . S
C730 H722 0.930 . S
C730 C729 1.362 . S
C730 C733 1.409 . S
C731 H723 0.930 . S
C731 C732 1.355 . S
C731 C733 1.415 . S
C732 C731 1.355 . S
C732 C734 1.419 . S
C733 C728 1.425 . S
C733 C730 1.409 . S
C733 C731 1.415 . S
C734 H724 0.930 . S
C734 C732 1.419 . S
C734 C735 1.362 . S
C735 H725 0.934 . S
C735 C728 1.409 . S
C735 C734 1.362 . S
H736 C742 0.930 . S
H737 C745 0.930 . S
H738 C746 0.930 . S
H739 C747 0.930 . S
H740 C750 0.930 . S
H741 C751 0.930 . S
C742 H736 0.930 . S
C742 C743 1.355 . S
C742 C744 1.415 . S
C743 C742 1.355 . S
C743 C745 1.419 . S
C744 C742 1.415 . S
C744 C749 1.425 . S
C744 C751 1.409 . S
C745 H737 0.930 . S
C745 C743 1.419 . S
C745 C746 1.362 . S
C746 H738 0.930 . S
C746 C745 1.362 . S
C746 C749 1.409 . S
C747 H739 0.930 . S
C747 C748 1.355 . S
C747 C749 1.415 . S
C748 C747 1.355 . S
C748 C750 1.419 . S
C749 C744 1.425 . S
C749 C746 1.409 . S
C749 C747 1.415 . S
C750 H740 0.930 . S
C750 C748 1.419 . S
C750 C751 1.362 . S
C751 H741 0.930 . S
C751 C744 1.409 . S
C751 C750 1.362 . S
H752 C758 0.930 . S
H753 C761 0.930 . S
H754 C762 0.930 . S
H755 C763 0.930 . S
H756 C766 0.928 1_545 S
H757 C767 0.930 . S
C758 H752 0.930 . S
C758 C759 1.355 . S
C758 C760 1.415 . S
C759 C758 1.355 . S
C759 C761 1.419 . S
C760 C758 1.415 . S
C760 C765 1.425 . S
C760 C767 1.409 . S
C761 H753 0.930 . S
C761 C759 1.419 . S
C761 C762 1.362 . S
C762 H754 0.930 . S
C762 C761 1.362 . S
C762 C765 1.409 . S
C763 H755 0.930 . S
C763 C764 1.355 . S
C763 C765 1.415 1_545 S
C764 C763 1.355 . S
C764 C766 1.419 1_545 S
C765 C760 1.425 . S
C765 C762 1.409 . S
C765 C763 1.415 1_565 S
C766 H756 0.928 1_565 S
C766 C764 1.419 1_565 S
C766 C767 1.362 . S
C767 H757 0.930 . S
C767 C760 1.409 . S
C767 C766 1.362 . S
H768 C774 0.930 . S
H769 C777 0.930 . S
H770 C778 0.930 . S
H771 C779 0.930 . S
H772 C782 0.930 . S
H773 C783 0.930 . S
C774 H768 0.930 . S
C774 C775 1.355 . S
C774 C776 1.415 . S
C775 C774 1.355 . S
C775 C777 1.419 . S
C776 C774 1.415 . S
C776 C781 1.425 . S
C776 C783 1.409 . S
C777 H769 0.930 . S
C777 C775 1.419 . S
C777 C778 1.362 . S
C778 H770 0.930 . S
C778 C777 1.362 . S
C778 C781 1.409 . S
C779 H771 0.930 . S
C779 C780 1.355 . S
C779 C781 1.415 . S
C780 C779 1.355 . S
C780 C782 1.419 . S
C781 C776 1.425 . S
C781 C778 1.409 . S
C781 C779 1.415 . S
C782 H772 0.930 . S
C782 C780 1.419 . S
C782 C783 1.362 . S
C783 H773 0.930 . S
C783 C776 1.409 . S
C783 C782 1.362 . S
H784 C790 0.930 . S
H785 C793 0.930 . S
H786 C794 0.930 . S
H787 C795 0.930 . S
H788 C798 0.930 . S
H789 C799 0.930 . S
C790 H784 0.930 . S
C790 C791 1.355 1_565 S
C790 C792 1.415 . S
C791 C790 1.355 1_545 S
C791 C793 1.419 . S
C792 C790 1.415 . S
C792 C797 1.425 . S
C792 C799 1.409 . S
C793 H785 0.930 . S
C793 C791 1.419 . S
C793 C794 1.362 . S
C794 H786 0.930 . S
C794 C793 1.362 . S
C794 C797 1.409 1_545 S
C795 H787 0.930 . S
C795 C796 1.355 . S
C795 C797 1.415 . S
C796 C795 1.355 . S
C796 C798 1.419 . S
C797 C792 1.425 . S
C797 C794 1.409 1_565 S
C797 C795 1.415 . S
C798 H788 0.930 . S
C798 C796 1.419 . S
C798 C799 1.362 . S
C799 H789 0.930 . S
C799 C792 1.409 . S
C799 C798 1.362 . S
H800 C806 0.930 . S
H801 C809 0.930 . S
H802 C810 0.930 . S
H803 C811 0.930 . S
H804 C814 0.930 . S
H805 C815 0.930 . S
C806 H800 0.930 . S
C806 C807 1.355 . S
C806 C808 1.415 . S
C807 C806 1.355 . S
C807 C809 1.419 . S
C808 C806 1.415 . S
C808 C813 1.425 . S
C808 C815 1.409 . S
C809 H801 0.930 . S
C809 C807 1.419 . S
C809 C810 1.362 . S
C810 H802 0.930 . S
C810 C809 1.362 . S
C810 C813 1.409 . S
C811 H803 0.930 . S
C811 C812 1.355 . S
C811 C813 1.415 . S
C812 C811 1.355 . S
C812 C814 1.419 . S
C813 C808 1.425 . S
C813 C810 1.409 . S
C813 C811 1.415 . S
C814 H804 0.930 . S
C814 C812 1.419 . S
C814 C815 1.362 . S
C815 H805 0.930 . S
C815 C808 1.409 . S
C815 C814 1.362 . S
H816 C822 0.930 . S
H817 C825 0.930 . S
H818 C826 0.930 . S
H819 C827 0.930 . S
H820 C830 0.930 . S
H821 C831 0.930 . S
C822 H816 0.930 . S
C822 C823 1.355 . S
C822 C824 1.415 1_565 S
C823 C822 1.355 . S
C823 C825 1.419 1_565 S
C824 C822 1.415 1_545 S
C824 C829 1.425 . S
C824 C831 1.409 . S
C825 H817 0.930 . S
C825 C823 1.419 1_545 S
C825 C826 1.362 . S
C826 H818 0.930 . S
C826 C825 1.362 . S
C826 C829 1.409 . S
C827 H819 0.930 . S
C827 C828 1.355 . S
C827 C829 1.415 . S
C828 C827 1.355 . S
C828 C830 1.419 . S
C829 C824 1.425 . S
C829 C826 1.409 . S
C829 C827 1.415 . S
C830 H820 0.930 . S
C830 C828 1.419 . S
C830 C831 1.362 . S
C831 H821 0.930 . S
C831 C824 1.409 . S
C831 C830 1.362 . S
H832 C838 0.930 . S
H833 C841 0.930 . S
H834 C842 0.930 . S
H835 C843 0.930 . S
H836 C846 0.930 . S
H837 C847 0.930 . S
C838 H832 0.930 . S
C838 C839 1.355 . S
C838 C840 1.415 . S
C839 C838 1.355 . S
C839 C841 1.419 . S
C840 C838 1.415 . S
C840 C845 1.425 . S
C840 C847 1.409 . S
C841 H833 0.930 . S
C841 C839 1.419 . S
C841 C842 1.362 . S
C842 H834 0.930 . S
C842 C841 1.362 . S
C842 C845 1.409 . S
C843 H835 0.930 . S
C843 C844 1.355 . S
C843 C845 1.415 . S
C844 C843 1.355 . S
C844 C846 1.419 . S
C845 C840 1.425 . S
C845 C842 1.409 . S
C845 C843 1.415 . S
C846 H836 0.930 . S
C846 C844 1.419 . S
C846 C847 1.362 . S
C847 H837 0.930 . S
C847 C840 1.409 . S
C847 C846 1.362 . S
H848 C854 0.930 . S
H849 C857 0.930 . S
H850 C858 0.930 . S
H851 C859 0.930 . S
H852 C862 0.930 . S
H853 C863 0.930 . S
C854 H848 0.930 . S
C854 C855 1.355 1_565 S
C854 C856 1.415 . S
C855 C854 1.355 1_545 S
C855 C857 1.419 . S
C856 C854 1.415 . S
C856 C861 1.425 . S
C856 C863 1.409 . S
C857 H849 0.930 . S
C857 C855 1.419 . S
C857 C858 1.362 . S
C858 H850 0.930 . S
C858 C857 1.362 . S
C858 C861 1.409 1_545 S
C859 H851 0.930 . S
C859 C860 1.355 . S
C859 C861 1.415 . S
C860 C859 1.355 . S
C860 C862 1.419 . S
C861 C856 1.425 . S
C861 C858 1.409 1_565 S
C861 C859 1.415 . S
C862 H852 0.930 . S
C862 C860 1.419 . S
C862 C863 1.362 . S
C863 H853 0.930 . S
C863 C856 1.409 . S
C863 C862 1.362 . S
H864 C870 0.930 . S
H865 C873 0.930 . S
H866 C874 0.930 . S
H867 C875 0.930 . S
H868 C878 0.930 . S
H869 C879 0.930 . S
C870 H864 0.930 . S
C870 C871 1.355 . S
C870 C872 1.415 . S
C871 C870 1.355 . S
C871 C873 1.419 . S
C872 C870 1.415 . S
C872 C877 1.425 . S
C872 C879 1.409 . S
C873 H865 0.930 . S
C873 C871 1.419 . S
C873 C874 1.362 . S
C874 H866 0.930 . S
C874 C873 1.362 . S
C874 C877 1.409 . S
C875 H867 0.930 . S
C875 C876 1.355 . S
C875 C877 1.415 . S
C876 C875 1.355 . S
C876 C878 1.419 . S
C877 C872 1.425 . S
C877 C874 1.409 . S
C877 C875 1.415 . S
C878 H868 0.930 . S
C878 C876 1.419 . S
C878 C879 1.362 . S
C879 H869 0.930 . S
C879 C872 1.409 . S
C879 C878 1.362 . S
H880 C886 0.930 . S
H881 C889 0.930 . S
H882 C890 0.930 1_565 S
H883 C891 0.930 . S
H884 C894 0.930 1_554 S
H885 C895 0.930 . S
C886 H880 0.930 . S
C886 C887 1.355 . S
C886 C888 1.415 . S
C887 C886 1.355 . S
C887 C889 1.419 . S
C888 C886 1.415 . S
C888 C893 1.425 . S
C888 C895 1.409 . S
C889 H881 0.930 . S
C889 C887 1.419 . S
C889 C890 1.362 . S
C890 H882 0.930 1_545 S
C890 C889 1.362 . S
C890 C893 1.409 . S
C891 H883 0.930 . S
C891 C892 1.355 . S
C891 C893 1.415 1_565 S
C892 C891 1.355 . S
C892 C894 1.419 1_565 S
C893 C888 1.425 . S
C893 C890 1.409 . S
C893 C891 1.415 1_545 S
C894 H884 0.930 1_556 S
C894 C892 1.419 1_545 S
C894 C895 1.362 . S
C895 H885 0.930 . S
C895 C888 1.409 . S
C895 C894 1.362 . S
H896 C902 0.930 . S
H897 C905 0.930 . S
H898 C906 0.930 . S
H899 C907 0.930 . S
H900 C910 0.930 . S
H901 C911 0.930 . S
C902 H896 0.930 . S
C902 C903 1.355 . S
C902 C904 1.415 . S
C903 C902 1.355 . S
C903 C905 1.419 . S
C904 C902 1.415 . S
C904 C909 1.425 . S
C904 C911 1.409 . S
C905 H897 0.930 . S
C905 C903 1.419 . S
C905 C906 1.362 . S
C906 H898 0.930 . S
C906 C905 1.362 . S
C906 C909 1.409 . S
C907 H899 0.930 . S
C907 C908 1.355 . S
C907 C909 1.415 . S
C908 C907 1.355 . S
C908 C910 1.419 . S
C909 C904 1.425 . S
C909 C906 1.409 . S
C909 C907 1.415 . S
C910 H900 0.930 . S
C910 C908 1.419 . S
C910 C911 1.362 . S
C911 H901 0.930 . S
C911 C904 1.409 . S
C911 C910 1.362 . S
H912 C918 0.930 . S
H913 C921 0.930 . S
H914 C922 0.930 . S
H915 C923 0.930 . S
H916 C926 0.930 . S
H917 C927 0.930 . S
C918 H912 0.930 . S
C918 C919 1.355 . S
C918 C920 1.415 . S
C919 C918 1.355 . S
C919 C921 1.419 . S
C920 C918 1.415 . S
C920 C925 1.425 . S
C920 C927 1.409 . S
C921 H913 0.930 . S
C921 C919 1.419 . S
C921 C922 1.362 . S
C922 H914 0.930 . S
C922 C921 1.362 . S
C922 C925 1.409 . S
C923 H915 0.930 . S
C923 C924 1.355 . S
C923 C925 1.415 . S
C924 C923 1.355 . S
C924 C926 1.419 . S
C925 C920 1.425 . S
C925 C922 1.409 . S
C925 C923 1.415 . S
C926 H916 0.930 . S
C926 C924 1.419 . S
C926 C927 1.362 . S
C927 H917 0.930 . S
C927 C920 1.409 . S
C927 C926 1.362 . S
H928 C934 0.930 . S
H929 C937 0.930 . S
H930 C938 0.930 . S
H931 C939 0.930 . S
H932 C942 0.930 . S
H933 C943 0.930 . S
C934 H928 0.930 . S
C934 C935 1.355 . S
C934 C936 1.415 . S
C935 C934 1.355 . S
C935 C937 1.419 . S
C936 C934 1.415 . S
C936 C941 1.425 . S
C936 C943 1.409 . S
C937 H929 0.930 . S
C937 C935 1.419 . S
C937 C938 1.362 . S
C938 H930 0.930 . S
C938 C937 1.362 . S
C938 C941 1.409 . S
C939 H931 0.930 . S
C939 C940 1.355 . S
C939 C941 1.415 . S
C940 C939 1.355 . S
C940 C942 1.419 . S
C941 C936 1.425 . S
C941 C938 1.409 . S
C941 C939 1.415 . S
C942 H932 0.930 . S
C942 C940 1.419 . S
C942 C943 1.362 . S
C943 H933 0.930 . S
C943 C936 1.409 . S
C943 C942 1.362 . S
H944 C950 0.930 . S
H945 C953 0.930 . S
H946 C954 0.930 . S
H947 C955 0.930 . S
H948 C958 0.930 . S
H949 C959 0.930 . S
C950 H944 0.930 . S
C950 C951 1.355 . S
C950 C952 1.415 . S
C951 C950 1.355 . S
C951 C953 1.419 . S
C952 C950 1.415 . S
C952 C957 1.425 . S
C952 C959 1.409 . S
C953 H945 0.930 . S
C953 C951 1.419 . S
C953 C954 1.362 . S
C954 H946 0.930 . S
C954 C953 1.362 . S
C954 C957 1.409 . S
C955 H947 0.930 . S
C955 C956 1.355 . S
C955 C957 1.415 . S
C956 C955 1.355 . S
C956 C958 1.419 . S
C957 C952 1.425 . S
C957 C954 1.409 . S
C957 C955 1.415 . S
C958 H948 0.930 . S
C958 C956 1.419 . S
C958 C959 1.362 . S
C959 H949 0.930 . S
C959 C952 1.409 . S
C959 C958 1.362 . S
H960 C966 0.930 . S
H961 C969 0.930 . S
H962 C970 0.930 . S
H963 C971 0.930 . S
H964 C974 0.930 . S
H965 C975 0.930 . S
C966 H960 0.930 . S
C966 C967 1.355 . S
C966 C968 1.415 . S
C967 C966 1.355 . S
C967 C969 1.419 . S
C968 C966 1.415 . S
C968 C973 1.425 . S
C968 C975 1.409 . S
C969 H961 0.930 . S
C969 C967 1.419 . S
C969 C970 1.362 . S
C970 H962 0.930 . S
C970 C969 1.362 . S
C970 C973 1.409 . S
C971 H963 0.930 . S
C971 C972 1.355 . S
C971 C973 1.415 . S
C972 C971 1.355 . S
C972 C974 1.419 . S
C973 C968 1.425 . S
C973 C970 1.409 . S
C973 C971 1.415 . S
C974 H964 0.930 . S
C974 C972 1.419 . S
C974 C975 1.362 . S
C975 H965 0.930 . S
C975 C968 1.409 . S
C975 C974 1.362 . S
H976 C982 0.930 . S
H977 C985 0.930 . S
H978 C986 0.930 . S
H979 C987 0.930 . S
H980 C990 0.930 . S
H981 C991 0.930 . S
C982 H976 0.930 . S
C982 C983 1.355 . S
C982 C984 1.415 . S
C983 C982 1.355 . S
C983 C985 1.419 . S
C984 C982 1.415 . S
C984 C989 1.425 . S
C984 C991 1.409 . S
C985 H977 0.930 . S
C985 C983 1.419 . S
C985 C986 1.362 . S
C986 H978 0.930 . S
C986 C985 1.362 . S
C986 C989 1.409 . S
C987 H979 0.930 . S
C987 C988 1.355 . S
C987 C989 1.415 . S
C988 C987 1.355 . S
C988 C990 1.419 . S
C989 C984 1.425 . S
C989 C986 1.409 . S
C989 C987 1.415 . S
C990 H980 0.930 . S
C990 C988 1.419 . S
C990 C991 1.362 . S
C991 H981 0.930 . S
C991 C984 1.409 . S
C991 C990 1.362 . S
H992 C998 0.930 . S
H993 C1001 0.930 . S
H994 C1002 0.930 . S
H995 C1003 0.930 . S
H996 C1006 0.930 . S
H997 C1007 0.930 . S
C998 H992 0.930 . S
C998 C999 1.355 . S
C998 C1000 1.415 . S
C999 C998 1.355 . S
C999 C1001 1.419 . S
C1000 C998 1.415 . S
C1000 C1005 1.425 . S
C1000 C1007 1.409 . S
C1001 H993 0.930 . S
C1001 C999 1.419 . S
C1001 C1002 1.362 . S
C1002 H994 0.930 . S
C1002 C1001 1.362 . S
C1002 C1005 1.409 . S
C1003 H995 0.930 . S
C1003 C1004 1.355 . S
C1003 C1005 1.415 . S
C1004 C1003 1.355 . S
C1004 C1006 1.419 . S
C1005 C1000 1.425 . S
C1005 C1002 1.409 . S
C1005 C1003 1.415 . S
C1006 H996 0.930 . S
C1006 C1004 1.419 . S
C1006 C1007 1.362 . S
C1007 H997 0.930 . S
C1007 C1000 1.409 . S
C1007 C1006 1.362 . S
H1008 C1014 0.930 . S
H1009 C1017 0.930 . S
H1010 C1018 0.930 . S
H1011 C1019 0.930 . S
H1012 C1022 0.930 . S
H1013 C1023 0.930 . S
C1014 H1008 0.930 . S
C1014 C1015 1.355 . S
C1014 C1016 1.415 . S
C1015 C1014 1.355 . S
C1015 C1017 1.419 . S
C1016 C1014 1.415 . S
C1016 C1021 1.425 . S
C1016 C1023 1.409 . S
C1017 H1009 0.930 . S
C1017 C1015 1.419 . S
C1017 C1018 1.362 . S
C1018 H1010 0.930 . S
C1018 C1017 1.362 . S
C1018 C1021 1.409 . S
C1019 H1011 0.930 . S
C1019 C1020 1.355 . S
C1019 C1021 1.415 . S
C1020 C1019 1.355 . S
C1020 C1022 1.419 . S
C1021 C1016 1.425 . S
C1021 C1018 1.409 . S
C1021 C1019 1.415 . S
C1022 H1012 0.930 . S
C1022 C1020 1.419 . S
C1022 C1023 1.362 . S
C1023 H1013 0.930 . S
C1023 C1016 1.409 . S
C1023 C1022 1.362 . S
H1024 C1030 0.930 . S
H1025 C1033 0.930 . S
H1026 C1034 0.930 . S
H1027 C1035 0.930 . S
H1028 C1038 0.930 . S
H1029 C1039 0.930 . S
C1030 H1024 0.930 . S
C1030 C1031 1.355 . S
C1030 C1032 1.415 . S
C1031 C1030 1.355 . S
C1031 C1033 1.419 . S
C1032 C1030 1.415 . S
C1032 C1037 1.425 . S
C1032 C1039 1.409 . S
C1033 H1025 0.930 . S
C1033 C1031 1.419 . S
C1033 C1034 1.362 . S
C1034 H1026 0.930 . S
C1034 C1033 1.362 . S
C1034 C1037 1.409 . S
C1035 H1027 0.930 . S
C1035 C1036 1.355 . S
C1035 C1037 1.415 . S
C1036 C1035 1.355 . S
C1036 C1038 1.419 . S
C1037 C1032 1.425 . S
C1037 C1034 1.409 . S
C1037 C1035 1.415 . S
C1038 H1028 0.930 . S
C1038 C1036 1.419 . S
C1038 C1039 1.362 . S
C1039 H1029 0.930 . S
C1039 C1032 1.409 . S
C1039 C1038 1.362 . S
H1040 C1046 0.930 . S
H1041 C1049 0.930 . S
H1042 C1050 0.930 . S
H1043 C1051 0.930 . S
H1044 C1054 0.930 . S
H1045 C1055 0.930 . S
C1046 H1040 0.930 . S
C1046 C1047 1.355 . S
C1046 C1048 1.415 . S
C1047 C1046 1.355 . S
C1047 C1049 1.419 . S
C1048 C1046 1.415 . S
C1048 C1053 1.425 . S
C1048 C1055 1.409 . S
C1049 H1041 0.930 . S
C1049 C1047 1.419 . S
C1049 C1050 1.362 . S
C1050 H1042 0.930 . S
C1050 C1049 1.362 . S
C1050 C1053 1.409 . S
C1051 H1043 0.930 . S
C1051 C1052 1.355 . S
C1051 C1053 1.415 . S
C1052 C1051 1.355 . S
C1052 C1054 1.419 . S
C1053 C1048 1.425 . S
C1053 C1050 1.409 . S
C1053 C1051 1.415 . S
C1054 H1044 0.930 . S
C1054 C1052 1.419 . S
C1054 C1055 1.362 . S
C1055 H1045 0.930 . S
C1055 C1048 1.409 . S
C1055 C1054 1.362 . S
H1056 C1062 0.930 . S
H1057 C1065 0.930 . S
H1058 C1066 0.930 . S
H1059 C1067 0.930 . S
H1060 C1070 0.930 . S
H1061 C1071 0.930 . S
C1062 H1056 0.930 . S
C1062 C1063 1.355 . S
C1062 C1064 1.415 . S
C1063 C1062 1.355 . S
C1063 C1065 1.419 . S
C1064 C1062 1.415 . S
C1064 C1069 1.425 . S
C1064 C1071 1.409 . S
C1065 H1057 0.930 . S
C1065 C1063 1.419 . S
C1065 C1066 1.362 . S
C1066 H1058 0.930 . S
C1066 C1065 1.362 . S
C1066 C1069 1.409 . S
C1067 H1059 0.930 . S
C1067 C1068 1.355 . S
C1067 C1069 1.415 . S
C1068 C1067 1.355 . S
C1068 C1070 1.419 . S
C1069 C1064 1.425 . S
C1069 C1066 1.409 . S
C1069 C1067 1.415 . S
C1070 H1060 0.930 . S
C1070 C1068 1.419 . S
C1070 C1071 1.362 . S
C1071 H1061 0.930 . S
C1071 C1064 1.409 . S
C1071 C1070 1.362 . S
H1072 C1078 0.930 . S
H1073 C1081 0.930 . S
H1074 C1082 0.930 . S
H1075 C1083 0.930 . S
H1076 C1086 0.930 . S
H1077 C1087 0.930 . S
C1078 H1072 0.930 . S
C1078 C1079 1.355 . S
C1078 C1080 1.415 . S
C1079 C1078 1.355 . S
C1079 C1081 1.419 . S
C1080 C1078 1.415 . S
C1080 C1085 1.425 . S
C1080 C1087 1.409 . S
C1081 H1073 0.930 . S
C1081 C1079 1.419 . S
C1081 C1082 1.362 . S
C1082 H1074 0.930 . S
C1082 C1081 1.362 . S
C1082 C1085 1.409 . S
C1083 H1075 0.930 . S
C1083 C1084 1.355 . S
C1083 C1085 1.415 . S
C1084 C1083 1.355 . S
C1084 C1086 1.419 . S
C1085 C1080 1.425 . S
C1085 C1082 1.409 . S
C1085 C1083 1.415 . S
C1086 H1076 0.930 . S
C1086 C1084 1.419 . S
C1086 C1087 1.362 . S
C1087 H1077 0.930 . S
C1087 C1080 1.409 . S
C1087 C1086 1.362 . S
H1088 C1094 0.930 . S
H1089 C1097 0.930 . S
H1090 C1098 0.930 . S
H1091 C1099 0.930 . S
H1092 C1102 0.930 . S
H1093 C1103 0.930 . S
C1094 H1088 0.930 . S
C1094 C1095 1.355 . S
C1094 C1096 1.415 . S
C1095 C1094 1.355 . S
C1095 C1097 1.419 . S
C1096 C1094 1.415 . S
C1096 C1101 1.425 . S
C1096 C1103 1.409 . S
C1097 H1089 0.930 . S
C1097 C1095 1.419 . S
C1097 C1098 1.362 . S
C1098 H1090 0.930 . S
C1098 C1097 1.362 . S
C1098 C1101 1.409 . S
C1099 H1091 0.930 . S
C1099 C1100 1.355 . S
C1099 C1101 1.415 . S
C1100 C1099 1.355 . S
C1100 C1102 1.419 . S
C1101 C1096 1.425 . S
C1101 C1098 1.409 . S
C1101 C1099 1.415 . S
C1102 H1092 0.930 . S
C1102 C1100 1.419 . S
C1102 C1103 1.362 . S
C1103 H1093 0.930 . S
C1103 C1096 1.409 . S
C1103 C1102 1.362 . S
H1104 C1110 0.930 . S
H1105 C1113 0.930 . S
H1106 C1114 0.930 . S
H1107 C1115 0.930 . S
H1108 C1118 0.930 . S
H1109 C1119 0.930 . S
C1110 H1104 0.930 . S
C1110 C1111 1.355 . S
C1110 C1112 1.415 . S
C1111 C1110 1.355 . S
C1111 C1113 1.419 . S
C1112 C1110 1.415 . S
C1112 C1117 1.425 . S
C1112 C1119 1.409 . S
C1113 H1105 0.930 . S
C1113 C1111 1.419 . S
C1113 C1114 1.362 . S
C1114 H1106 0.930 . S
C1114 C1113 1.362 . S
C1114 C1117 1.409 . S
C1115 H1107 0.930 . S
C1115 C1116 1.355 . S
C1115 C1117 1.415 . S
C1116 C1115 1.355 . S
C1116 C1118 1.419 . S
C1117 C1112 1.425 . S
C1117 C1114 1.409 . S
C1117 C1115 1.415 . S
C1118 H1108 0.930 . S
C1118 C1116 1.419 . S
C1118 C1119 1.362 . S
C1119 H1109 0.930 . S
C1119 C1112 1.409 . S
C1119 C1118 1.362 . S
H1120 C1126 0.930 . S
H1121 C1129 0.930 . S
H1122 C1130 0.930 . S
H1123 C1131 0.930 . S
H1124 C1134 0.930 . S
H1125 C1135 0.930 . S
C1126 H1120 0.930 . S
C1126 C1127 1.355 . S
C1126 C1128 1.415 . S
C1127 C1126 1.355 . S
C1127 C1129 1.419 . S
C1128 C1126 1.415 . S
C1128 C1133 1.425 . S
C1128 C1135 1.409 . S
C1129 H1121 0.930 . S
C1129 C1127 1.419 . S
C1129 C1130 1.362 . S
C1130 H1122 0.930 . S
C1130 C1129 1.362 . S
C1130 C1133 1.409 . S
C1131 H1123 0.930 . S
C1131 C1132 1.355 . S
C1131 C1133 1.415 . S
C1132 C1131 1.355 . S
C1132 C1134 1.419 . S
C1133 C1128 1.425 . S
C1133 C1130 1.409 . S
C1133 C1131 1.415 . S
C1134 H1124 0.930 . S
C1134 C1132 1.419 . S
C1134 C1135 1.362 . S
C1135 H1125 0.930 . S
C1135 C1128 1.409 . S
C1135 C1134 1.362 . S
H1136 C1142 0.930 . S
H1137 C1145 0.930 . S
H1138 C1146 0.930 . S
H1139 C1147 0.930 . S
H1140 C1150 0.930 . S
H1141 C1151 0.930 . S
C1142 H1136 0.930 . S
C1142 C1143 1.355 . S
C1142 C1144 1.415 . S
C1143 C1142 1.355 . S
C1143 C1145 1.419 . S
C1144 C1142 1.415 . S
C1144 C1149 1.425 . S
C1144 C1151 1.409 . S
C1145 H1137 0.930 . S
C1145 C1143 1.419 . S
C1145 C1146 1.362 . S
C1146 H1138 0.930 . S
C1146 C1145 1.362 . S
C1146 C1149 1.409 . S
C1147 H1139 0.930 . S
C1147 C1148 1.355 . S
C1147 C1149 1.415 . S
C1148 C1147 1.355 . S
C1148 C1150 1.419 . S
C1149 C1144 1.425 . S
C1149 C1146 1.409 . S
C1149 C1147 1.415 . S
C1150 H1140 0.930 . S
C1150 C1148 1.419 . S
C1150 C1151 1.362 . S
C1151 H1141 0.930 . S
C1151 C1144 1.409 . S
C1151 C1150 1.362 . S
H1152 C1158 0.930 . S
H1153 C1161 0.930 . S
H1154 C1162 0.930 . S
H1155 C1163 0.930 . S
H1156 C1166 0.930 . S
H1157 C1167 0.930 . S
C1158 H1152 0.930 . S
C1158 C1159 1.355 . S
C1158 C1160 1.415 . S
C1159 C1158 1.355 . S
C1159 C1161 1.419 . S
C1160 C1158 1.415 . S
C1160 C1165 1.425 . S
C1160 C1167 1.409 . S
C1161 H1153 0.930 . S
C1161 C1159 1.419 . S
C1161 C1162 1.362 . S
C1162 H1154 0.930 . S
C1162 C1161 1.362 . S
C1162 C1165 1.409 . S
C1163 H1155 0.930 . S
C1163 C1164 1.355 . S
C1163 C1165 1.415 . S
C1164 C1163 1.355 . S
C1164 C1166 1.419 . S
C1165 C1160 1.425 . S
C1165 C1162 1.409 . S
C1165 C1163 1.415 . S
C1166 H1156 0.930 . S
C1166 C1164 1.419 . S
C1166 C1167 1.362 . S
C1167 H1157 0.930 . S
C1167 C1160 1.409 . S
C1167 C1166 1.362 . S
H1168 C1174 0.930 . S
H1169 C1177 0.930 . S
H1170 C1178 0.930 . S
H1171 C1179 0.930 . S
H1172 C1182 0.930 . S
H1173 C1183 0.930 . S
C1174 H1168 0.930 . S
C1174 C1175 1.355 . S
C1174 C1176 1.415 . S
C1175 C1174 1.355 . S
C1175 C1177 1.419 . S
C1176 C1174 1.415 . S
C1176 C1181 1.425 . S
C1176 C1183 1.409 . S
C1177 H1169 0.930 . S
C1177 C1175 1.419 . S
C1177 C1178 1.362 . S
C1178 H1170 0.930 . S
C1178 C1177 1.362 . S
C1178 C1181 1.409 . S
C1179 H1171 0.930 . S
C1179 C1180 1.355 . S
C1179 C1181 1.415 1_655 S
C1180 C1179 1.355 . S
C1180 C1182 1.419 . S
C1181 C1176 1.425 . S
C1181 C1178 1.409 . S
C1181 C1179 1.415 1_455 S
C1182 H1172 0.930 . S
C1182 C1180 1.419 . S
C1182 C1183 1.362 1_655 S
C1183 H1173 0.930 . S
C1183 C1176 1.409 . S
C1183 C1182 1.362 1_455 S
H1184 C1190 0.930 . S
H1185 C1193 0.930 . S
H1186 C1194 0.930 . S
H1187 C1195 0.930 . S
H1188 C1198 0.930 . S
H1189 C1199 0.930 . S
C1190 H1184 0.930 . S
C1190 C1191 1.355 . S
C1190 C1192 1.415 . S
C1191 C1190 1.355 . S
C1191 C1193 1.419 . S
C1192 C1190 1.415 . S
C1192 C1197 1.425 . S
C1192 C1199 1.409 . S
C1193 H1185 0.930 . S
C1193 C1191 1.419 . S
C1193 C1194 1.362 . S
C1194 H1186 0.930 . S
C1194 C1193 1.362 . S
C1194 C1197 1.409 . S
C1195 H1187 0.930 . S
C1195 C1196 1.355 . S
C1195 C1197 1.415 . S
C1196 C1195 1.355 . S
C1196 C1198 1.419 . S
C1197 C1192 1.425 . S
C1197 C1194 1.409 . S
C1197 C1195 1.415 . S
C1198 H1188 0.930 . S
C1198 C1196 1.419 . S
C1198 C1199 1.362 . S
C1199 H1189 0.930 . S
C1199 C1192 1.409 . S
C1199 C1198 1.362 . S
H1200 C1206 0.930 . S
H1201 C1209 0.930 . S
H1202 C1210 0.930 . S
H1203 C1211 0.930 . S
H1204 C1214 0.930 . S
H1205 C1215 0.930 . S
C1206 H1200 0.930 . S
C1206 C1207 1.355 . S
C1206 C1208 1.415 . S
C1207 C1206 1.355 . S
C1207 C1209 1.419 . S
C1208 C1206 1.415 . S
C1208 C1213 1.425 . S
C1208 C1215 1.409 . S
C1209 H1201 0.930 . S
C1209 C1207 1.419 . S
C1209 C1210 1.362 . S
C1210 H1202 0.930 . S
C1210 C1209 1.362 . S
C1210 C1213 1.409 . S
C1211 H1203 0.930 . S
C1211 C1212 1.355 . S
C1211 C1213 1.415 . S
C1212 C1211 1.355 . S
C1212 C1214 1.419 . S
C1213 C1208 1.425 . S
C1213 C1210 1.409 . S
C1213 C1211 1.415 . S
C1214 H1204 0.930 . S
C1214 C1212 1.419 . S
C1214 C1215 1.362 . S
C1215 H1205 0.930 . S
C1215 C1208 1.409 . S
C1215 C1214 1.362 . S
H1216 C1222 0.930 . S
H1217 C1225 0.930 . S
H1218 C1226 0.930 . S
H1219 C1227 0.930 . S
H1220 C1230 0.930 . S
H1221 C1231 0.930 . S
C1222 H1216 0.930 . S
C1222 C1223 1.355 . S
C1222 C1224 1.415 . S
C1223 C1222 1.355 . S
C1223 C1225 1.419 . S
C1224 C1222 1.415 . S
C1224 C1229 1.425 . S
C1224 C1231 1.409 . S
C1225 H1217 0.930 . S
C1225 C1223 1.419 . S
C1225 C1226 1.362 . S
C1226 H1218 0.930 . S
C1226 C1225 1.362 . S
C1226 C1229 1.409 . S
C1227 H1219 0.930 . S
C1227 C1228 1.355 . S
C1227 C1229 1.415 . S
C1228 C1227 1.355 . S
C1228 C1230 1.419 . S
C1229 C1224 1.425 . S
C1229 C1226 1.409 . S
C1229 C1227 1.415 . S
C1230 H1220 0.930 . S
C1230 C1228 1.419 . S
C1230 C1231 1.362 . S
C1231 H1221 0.930 . S
C1231 C1224 1.409 . S
C1231 C1230 1.362 . S
H1232 C1238 0.930 . S
H1233 C1241 0.930 . S
H1234 C1242 0.930 . S
H1235 C1243 0.930 . S
H1236 C1246 0.930 . S
H1237 C1247 0.930 . S
C1238 H1232 0.930 . S
C1238 C1239 1.355 . S
C1238 C1240 1.415 . S
C1239 C1238 1.355 . S
C1239 C1241 1.419 . S
C1240 C1238 1.415 . S
C1240 C1245 1.425 . S
C1240 C1247 1.409 . S
C1241 H1233 0.930 . S
C1241 C1239 1.419 . S
C1241 C1242 1.362 . S
C1242 H1234 0.930 . S
C1242 C1241 1.362 . S
C1242 C1245 1.409 . S
C1243 H1235 0.930 . S
C1243 C1244 1.355 . S
C1243 C1245 1.415 . S
C1244 C1243 1.355 . S
C1244 C1246 1.419 . S
C1245 C1240 1.425 . S
C1245 C1242 1.409 . S
C1245 C1243 1.415 . S
C1246 H1236 0.930 . S
C1246 C1244 1.419 . S
C1246 C1247 1.362 . S
C1247 H1237 0.930 . S
C1247 C1240 1.409 . S
C1247 C1246 1.362 . S
H1248 C1254 0.930 . S
H1249 C1257 0.930 . S
H1250 C1258 0.930 . S
H1251 C1259 0.930 . S
H1252 C1262 0.930 . S
H1253 C1263 0.930 . S
C1254 H1248 0.930 . S
C1254 C1255 1.355 . S
C1254 C1256 1.415 . S
C1255 C1254 1.355 . S
C1255 C1257 1.419 . S
C1256 C1254 1.415 . S
C1256 C1261 1.425 . S
C1256 C1263 1.409 . S
C1257 H1249 0.930 . S
C1257 C1255 1.419 . S
C1257 C1258 1.362 . S
C1258 H1250 0.930 . S
C1258 C1257 1.362 . S
C1258 C1261 1.409 . S
C1259 H1251 0.930 . S
C1259 C1260 1.355 . S
C1259 C1261 1.415 . S
C1260 C1259 1.355 . S
C1260 C1262 1.419 . S
C1261 C1256 1.425 . S
C1261 C1258 1.409 . S
C1261 C1259 1.415 . S
C1262 H1252 0.930 . S
C1262 C1260 1.419 . S
C1262 C1263 1.362 . S
C1263 H1253 0.930 . S
C1263 C1256 1.409 . S
C1263 C1262 1.362 . S
H1264 C1270 0.930 . S
H1265 C1273 0.930 . S
H1266 C1274 0.930 . S
H1267 C1275 0.929 1_455 S
H1268 C1278 0.930 . S
H1269 C1279 0.930 . S
C1270 H1264 0.930 . S
C1270 C1271 1.355 . S
C1270 C1272 1.415 . S
C1271 C1270 1.355 . S
C1271 C1273 1.419 . S
C1272 C1270 1.415 . S
C1272 C1277 1.425 . S
C1272 C1279 1.409 1_455 S
C1273 H1265 0.930 . S
C1273 C1271 1.419 . S
C1273 C1274 1.362 . S
C1274 H1266 0.930 . S
C1274 C1273 1.362 . S
C1274 C1277 1.409 . S
C1275 H1267 0.929 1_655 S
C1275 C1276 1.360 . S
C1275 C1277 1.410 1_655 S
C1276 C1275 1.360 . S
C1276 C1278 1.419 . S
C1277 C1272 1.425 . S
C1277 C1274 1.409 . S
C1277 C1275 1.410 1_455 S
C1278 H1268 0.930 . S
C1278 C1276 1.419 . S
C1278 C1279 1.362 . S
C1279 H1269 0.930 . S
C1279 C1272 1.409 1_655 S
C1279 C1278 1.362 . S
H1280 C1286 0.930 . S
H1281 C1289 0.930 . S
H1282 C1290 0.930 . S
H1283 C1291 0.930 . S
H1284 C1294 0.930 . S
H1285 C1295 0.930 . S
C1286 H1280 0.930 . S
C1286 C1287 1.355 . S
C1286 C1288 1.415 . S
C1287 C1286 1.355 . S
C1287 C1289 1.419 . S
C1288 C1286 1.415 . S
C1288 C1293 1.425 . S
C1288 C1295 1.409 . S
C1289 H1281 0.930 . S
C1289 C1287 1.419 . S
C1289 C1290 1.362 . S
C1290 H1282 0.930 . S
C1290 C1289 1.362 . S
C1290 C1293 1.409 . S
C1291 H1283 0.930 . S
C1291 C1292 1.355 . S
C1291 C1293 1.415 . S
C1292 C1291 1.355 . S
C1292 C1294 1.419 . S
C1293 C1288 1.425 . S
C1293 C1290 1.409 . S
C1293 C1291 1.415 . S
C1294 H1284 0.930 . S
C1294 C1292 1.419 . S
C1294 C1295 1.362 . S
C1295 H1285 0.930 . S
C1295 C1288 1.409 . S
C1295 C1294 1.362 . S
H1296 C1302 0.930 . S
H1297 C1305 0.930 . S
H1298 C1306 0.930 . S
H1299 C1307 0.930 . S
H1300 C1310 0.930 . S
H1301 C1311 0.930 . S
C1302 H1296 0.930 . S
C1302 C1303 1.355 . S
C1302 C1304 1.415 1_455 S
C1303 C1302 1.355 . S
C1303 C1305 1.419 . S
C1304 C1302 1.415 1_655 S
C1304 C1309 1.425 . S
C1304 C1311 1.409 . S
C1305 H1297 0.930 . S
C1305 C1303 1.419 . S
C1305 C1306 1.362 1_455 S
C1306 H1298 0.930 . S
C1306 C1305 1.362 1_655 S
C1306 C1309 1.409 . S
C1307 H1299 0.930 . S
C1307 C1308 1.355 . S
C1307 C1309 1.415 . S
C1308 C1307 1.355 . S
C1308 C1310 1.419 . S
C1309 C1304 1.425 . S
C1309 C1306 1.409 . S
C1309 C1307 1.415 . S
C1310 H1300 0.930 . S
C1310 C1308 1.419 . S
C1310 C1311 1.362 . S
C1311 H1301 0.930 . S
C1311 C1304 1.409 . S
C1311 C1310 1.362 . S
H1312 C1318 0.930 . S
H1313 C1321 0.930 . S
H1314 C1322 0.930 . S
H1315 C1323 0.930 . S
H1316 C1326 0.930 . S
H1317 C1327 0.930 . S
C1318 H1312 0.930 . S
C1318 C1319 1.355 . S
C1318 C1320 1.415 . S
C1319 C1318 1.355 . S
C1319 C1321 1.419 . S
C1320 C1318 1.415 . S
C1320 C1325 1.425 . S
C1320 C1327 1.409 . S
C1321 H1313 0.930 . S
C1321 C1319 1.419 . S
C1321 C1322 1.362 . S
C1322 H1314 0.930 . S
C1322 C1321 1.362 . S
C1322 C1325 1.409 . S
C1323 H1315 0.930 . S
C1323 C1324 1.355 . S
C1323 C1325 1.415 . S
C1324 C1323 1.355 . S
C1324 C1326 1.419 . S
C1325 C1320 1.425 . S
C1325 C1322 1.409 . S
C1325 C1323 1.415 . S
C1326 H1316 0.930 . S
C1326 C1324 1.419 . S
C1326 C1327 1.362 . S
C1327 H1317 0.930 . S
C1327 C1320 1.409 . S
C1327 C1326 1.362 . S
H1328 C1334 0.930 . S
H1329 C1337 0.930 . S
H1330 C1338 0.930 . S
H1331 C1339 0.930 . S
H1332 C1342 0.930 . S
H1333 C1343 0.930 . S
C1334 H1328 0.930 . S
C1334 C1335 1.355 . S
C1334 C1336 1.415 . S
C1335 C1334 1.355 . S
C1335 C1337 1.419 . S
C1336 C1334 1.415 . S
C1336 C1341 1.425 . S
C1336 C1343 1.409 . S
C1337 H1329 0.930 . S
C1337 C1335 1.419 . S
C1337 C1338 1.362 . S
C1338 H1330 0.930 . S
C1338 C1337 1.362 . S
C1338 C1341 1.409 . S
C1339 H1331 0.930 . S
C1339 C1340 1.355 . S
C1339 C1341 1.415 . S
C1340 C1339 1.355 . S
C1340 C1342 1.419 . S
C1341 C1336 1.425 . S
C1341 C1338 1.409 . S
C1341 C1339 1.415 . S
C1342 H1332 0.930 . S
C1342 C1340 1.419 . S
C1342 C1343 1.362 . S
C1343 H1333 0.930 . S
C1343 C1336 1.409 . S
C1343 C1342 1.362 . S
H1344 C1350 0.930 . S
H1345 C1353 0.930 . S
H1346 C1354 0.930 . S
H1347 C1355 0.930 . S
H1348 C1358 0.930 . S
H1349 C1359 0.930 . S
C1350 H1344 0.930 . S
C1350 C1351 1.355 . S
C1350 C1352 1.415 . S
C1351 C1350 1.355 . S
C1351 C1353 1.419 . S
C1352 C1350 1.415 . S
C1352 C1357 1.425 . S
C1352 C1359 1.409 . S
C1353 H1345 0.930 . S
C1353 C1351 1.419 . S
C1353 C1354 1.362 . S
C1354 H1346 0.930 . S
C1354 C1353 1.362 . S
C1354 C1357 1.409 . S
C1355 H1347 0.930 . S
C1355 C1356 1.355 . S
C1355 C1357 1.415 . S
C1356 C1355 1.355 . S
C1356 C1358 1.419 . S
C1357 C1352 1.425 . S
C1357 C1354 1.409 . S
C1357 C1355 1.415 . S
C1358 H1348 0.930 . S
C1358 C1356 1.419 . S
C1358 C1359 1.362 . S
C1359 H1349 0.930 . S
C1359 C1352 1.409 . S
C1359 C1358 1.362 . S
H1360 C1366 0.930 . S
H1361 C1369 0.930 . S
H1362 C1370 0.930 . S
H1363 C1371 0.930 . S
H1364 C1374 0.930 . S
H1365 C1375 0.930 . S
C1366 H1360 0.930 . S
C1366 C1367 1.355 . S
C1366 C1368 1.415 . S
C1367 C1366 1.355 . S
C1367 C1369 1.419 . S
C1368 C1366 1.415 . S
C1368 C1373 1.425 . S
C1368 C1375 1.409 . S
C1369 H1361 0.930 . S
C1369 C1367 1.419 . S
C1369 C1370 1.362 . S
C1370 H1362 0.930 . S
C1370 C1369 1.362 . S
C1370 C1373 1.409 . S
C1371 H1363 0.930 . S
C1371 C1372 1.355 . S
C1371 C1373 1.415 . S
C1372 C1371 1.355 . S
C1372 C1374 1.419 . S
C1373 C1368 1.425 . S
C1373 C1370 1.409 . S
C1373 C1371 1.415 . S
C1374 H1364 0.930 . S
C1374 C1372 1.419 . S
C1374 C1375 1.362 . S
C1375 H1365 0.930 . S
C1375 C1368 1.409 . S
C1375 C1374 1.362 . S
H1376 C1382 0.930 . S
H1377 C1385 0.930 . S
H1378 C1386 0.930 . S
H1379 C1387 0.930 . S
H1380 C1390 0.930 . S
H1381 C1391 0.930 . S
C1382 H1376 0.930 . S
C1382 C1383 1.355 . S
C1382 C1384 1.415 . S
C1383 C1382 1.355 . S
C1383 C1385 1.419 . S
C1384 C1382 1.415 . S
C1384 C1389 1.425 . S
C1384 C1391 1.409 . S
C1385 H1377 0.930 . S
C1385 C1383 1.419 . S
C1385 C1386 1.362 . S
C1386 H1378 0.930 . S
C1386 C1385 1.362 . S
C1386 C1389 1.409 . S
C1387 H1379 0.930 . S
C1387 C1388 1.355 . S
C1387 C1389 1.415 . S
C1388 C1387 1.355 . S
C1388 C1390 1.419 . S
C1389 C1384 1.425 . S
C1389 C1386 1.409 . S
C1389 C1387 1.415 . S
C1390 H1380 0.930 . S
C1390 C1388 1.419 . S
C1390 C1391 1.362 . S
C1391 H1381 0.930 . S
C1391 C1384 1.409 . S
C1391 C1390 1.362 . S
H1392 C1398 0.930 . S
H1393 C1401 0.930 . S
H1394 C1402 0.930 . S
H1395 C1403 0.930 . S
H1396 C1406 0.930 . S
H1397 C1407 0.930 . S
C1398 H1392 0.930 . S
C1398 C1399 1.355 . S
C1398 C1400 1.415 . S
C1399 C1398 1.355 . S
C1399 C1401 1.419 . S
C1400 C1398 1.415 . S
C1400 C1405 1.425 . S
C1400 C1407 1.409 . S
C1401 H1393 0.930 . S
C1401 C1399 1.419 . S
C1401 C1402 1.362 . S
C1402 H1394 0.930 . S
C1402 C1401 1.362 . S
C1402 C1405 1.409 . S
C1403 H1395 0.930 . S
C1403 C1404 1.355 . S
C1403 C1405 1.415 1_455 S
C1404 C1403 1.355 . S
C1404 C1406 1.419 . S
C1405 C1400 1.425 . S
C1405 C1402 1.409 . S
C1405 C1403 1.415 1_655 S
C1406 H1396 0.930 . S
C1406 C1404 1.419 . S
C1406 C1407 1.362 1_455 S
C1407 H1397 0.930 . S
C1407 C1400 1.409 . S
C1407 C1406 1.362 1_655 S
H1408 C1414 0.930 . S
H1409 C1417 0.930 . S
H1410 C1418 0.930 . S
H1411 C1419 0.930 . S
H1412 C1422 0.930 . S
H1413 C1423 0.930 . S
C1414 H1408 0.930 . S
C1414 C1415 1.355 . S
C1414 C1416 1.415 . S
C1415 C1414 1.355 . S
C1415 C1417 1.419 . S
C1416 C1414 1.415 . S
C1416 C1421 1.425 . S
C1416 C1423 1.409 . S
C1417 H1409 0.930 . S
C1417 C1415 1.419 . S
C1417 C1418 1.362 . S
C1418 H1410 0.930 . S
C1418 C1417 1.362 . S
C1418 C1421 1.409 . S
C1419 H1411 0.930 . S
C1419 C1420 1.355 . S
C1419 C1421 1.415 . S
C1420 C1419 1.355 . S
C1420 C1422 1.419 . S
C1421 C1416 1.425 . S
C1421 C1418 1.409 . S
C1421 C1419 1.415 . S
C1422 H1412 0.930 . S
C1422 C1420 1.419 . S
C1422 C1423 1.362 . S
C1423 H1413 0.930 . S
C1423 C1416 1.409 . S
C1423 C1422 1.362 . S
H1424 C1430 0.930 . S
H1425 C1433 0.930 . S
H1426 C1434 0.930 . S
H1427 C1435 0.930 . S
H1428 C1438 0.930 . S
H1429 C1439 0.930 . S
C1430 H1424 0.930 . S
C1430 C1431 1.355 . S
C1430 C1432 1.415 . S
C1431 C1430 1.355 . S
C1431 C1433 1.419 . S
C1432 C1430 1.415 . S
C1432 C1437 1.425 . S
C1432 C1439 1.409 . S
C1433 H1425 0.930 . S
C1433 C1431 1.419 . S
C1433 C1434 1.362 . S
C1434 H1426 0.930 . S
C1434 C1433 1.362 . S
C1434 C1437 1.409 . S
C1435 H1427 0.930 . S
C1435 C1436 1.355 . S
C1435 C1437 1.415 . S
C1436 C1435 1.355 . S
C1436 C1438 1.419 . S
C1437 C1432 1.425 . S
C1437 C1434 1.409 . S
C1437 C1435 1.415 . S
C1438 H1428 0.930 . S
C1438 C1436 1.419 . S
C1438 C1439 1.362 . S
C1439 H1429 0.930 . S
C1439 C1432 1.409 . S
C1439 C1438 1.362 . S
H1440 C1446 0.930 . S
H1441 C1449 0.930 . S
H1442 C1450 0.930 . S
H1443 C1451 0.930 . S
H1444 C1454 0.930 . S
H1445 C1455 0.930 . S
C1446 H1440 0.930 . S
C1446 C1447 1.355 . S
C1446 C1448 1.415 . S
C1447 C1446 1.355 . S
C1447 C1449 1.419 . S
C1448 C1446 1.415 . S
C1448 C1453 1.425 . S
C1448 C1455 1.409 . S
C1449 H1441 0.930 . S
C1449 C1447 1.419 . S
C1449 C1450 1.362 . S
C1450 H1442 0.930 . S
C1450 C1449 1.362 . S
C1450 C1453 1.409 . S
C1451 H1443 0.930 . S
C1451 C1452 1.355 . S
C1451 C1453 1.415 . S
C1452 C1451 1.355 . S
C1452 C1454 1.419 . S
C1453 C1448 1.425 . S
C1453 C1450 1.409 . S
C1453 C1451 1.415 . S
C1454 H1444 0.930 . S
C1454 C1452 1.419 . S
C1454 C1455 1.362 . S
C1455 H1445 0.930 . S
C1455 C1448 1.409 . S
C1455 C1454 1.362 . S
H1456 C1462 0.930 . S
H1457 C1465 0.930 . S
H1458 C1466 0.930 . S
H1459 C1467 0.930 . S
H1460 C1470 0.930 . S
H1461 C1471 0.930 . S
C1462 H1456 0.930 . S
C1462 C1463 1.355 . S
C1462 C1464 1.415 . S
C1463 C1462 1.355 . S
C1463 C1465 1.419 . S
C1464 C1462 1.415 . S
C1464 C1469 1.425 . S
C1464 C1471 1.409 . S
C1465 H1457 0.930 . S
C1465 C1463 1.419 . S
C1465 C1466 1.362 . S
C1466 H1458 0.930 . S
C1466 C1465 1.362 . S
C1466 C1469 1.409 . S
C1467 H1459 0.930 . S
C1467 C1468 1.355 . S
C1467 C1469 1.415 1_455 S
C1468 C1467 1.355 . S
C1468 C1470 1.419 . S
C1469 C1464 1.425 . S
C1469 C1466 1.409 . S
C1469 C1467 1.415 1_655 S
C1470 H1460 0.930 . S
C1470 C1468 1.419 . S
C1470 C1471 1.362 1_455 S
C1471 H1461 0.930 . S
C1471 C1464 1.409 . S
C1471 C1470 1.362 1_655 S
H1472 C1478 0.930 . S
H1473 C1481 0.930 . S
H1474 C1482 0.930 . S
H1475 C1483 0.930 . S
H1476 C1486 0.930 . S
H1477 C1487 0.930 . S
C1478 H1472 0.930 . S
C1478 C1479 1.355 . S
C1478 C1480 1.415 . S
C1479 C1478 1.355 . S
C1479 C1481 1.419 . S
C1480 C1478 1.415 . S
C1480 C1485 1.425 . S
C1480 C1487 1.409 . S
C1481 H1473 0.930 . S
C1481 C1479 1.419 . S
C1481 C1482 1.362 . S
C1482 H1474 0.930 . S
C1482 C1481 1.362 . S
C1482 C1485 1.409 . S
C1483 H1475 0.930 . S
C1483 C1484 1.355 . S
C1483 C1485 1.415 . S
C1484 C1483 1.355 . S
C1484 C1486 1.419 . S
C1485 C1480 1.425 . S
C1485 C1482 1.409 . S
C1485 C1483 1.415 . S
C1486 H1476 0.930 . S
C1486 C1484 1.419 . S
C1486 C1487 1.362 . S
C1487 H1477 0.930 . S
C1487 C1480 1.409 . S
C1487 C1486 1.362 . S
H1488 C1494 0.930 . S
H1489 C1497 0.930 . S
H1490 C1498 0.930 . S
H1491 C1499 0.930 . S
H1492 C1502 0.930 . S
H1493 C1503 0.930 . S
C1494 H1488 0.930 . S
C1494 C1495 1.355 . S
C1494 C1496 1.415 . S
C1495 C1494 1.355 . S
C1495 C1497 1.419 . S
C1496 C1494 1.415 . S
C1496 C1501 1.425 . S
C1496 C1503 1.409 . S
C1497 H1489 0.930 . S
C1497 C1495 1.419 . S
C1497 C1498 1.362 . S
C1498 H1490 0.930 . S
C1498 C1497 1.362 . S
C1498 C1501 1.409 . S
C1499 H1491 0.930 . S
C1499 C1500 1.355 . S
C1499 C1501 1.415 1_455 S
C1500 C1499 1.355 . S
C1500 C1502 1.419 . S
C1501 C1496 1.425 . S
C1501 C1498 1.409 . S
C1501 C1499 1.415 1_655 S
C1502 H1492 0.930 . S
C1502 C1500 1.419 . S
C1502 C1503 1.362 1_455 S
C1503 H1493 0.930 . S
C1503 C1496 1.409 . S
C1503 C1502 1.362 1_655 S
H1504 C1510 0.930 . S
H1505 C1513 0.930 . S
H1506 C1514 0.930 . S
H1507 C1515 0.930 . S
H1508 C1518 0.930 . S
H1509 C1519 0.930 . S
C1510 H1504 0.930 . S
C1510 C1511 1.355 . S
C1510 C1512 1.415 . S
C1511 C1510 1.355 . S
C1511 C1513 1.419 . S
C1512 C1510 1.415 . S
C1512 C1517 1.425 . S
C1512 C1519 1.409 . S
C1513 H1505 0.930 . S
C1513 C1511 1.419 . S
C1513 C1514 1.362 . S
C1514 H1506 0.930 . S
C1514 C1513 1.362 . S
C1514 C1517 1.409 . S
C1515 H1507 0.930 . S
C1515 C1516 1.355 . S
C1515 C1517 1.415 . S
C1516 C1515 1.355 . S
C1516 C1518 1.419 . S
C1517 C1512 1.425 . S
C1517 C1514 1.409 . S
C1517 C1515 1.415 . S
C1518 H1508 0.930 . S
C1518 C1516 1.419 . S
C1518 C1519 1.362 . S
C1519 H1509 0.930 . S
C1519 C1512 1.409 . S
C1519 C1518 1.362 . S
H1520 C1526 0.930 . S
H1521 C1529 0.930 . S
H1522 C1530 0.930 . S
H1523 C1531 0.930 . S
H1524 C1534 0.930 . S
H1525 C1535 0.930 . S
C1526 H1520 0.930 . S
C1526 C1527 1.355 . S
C1526 C1528 1.415 . S
C1527 C1526 1.355 . S
C1527 C1529 1.419 . S
C1528 C1526 1.415 . S
C1528 C1533 1.425 . S
C1528 C1535 1.409 . S
C1529 H1521 0.930 . S
C1529 C1527 1.419 . S
C1529 C1530 1.362 . S
C1530 H1522 0.930 . S
C1530 C1529 1.362 . S
C1530 C1533 1.409 . S
C1531 H1523 0.930 . S
C1531 C1532 1.355 . S
C1531 C1533 1.415 . S
C1532 C1531 1.355 . S
C1532 C1534 1.419 . S
C1533 C1528 1.425 . S
C1533 C1530 1.409 . S
C1533 C1531 1.415 . S
C1534 H1524 0.930 . S
C1534 C1532 1.419 . S
C1534 C1535 1.362 . S
C1535 H1525 0.930 . S
C1535 C1528 1.409 . S
C1535 C1534 1.362 . S
H1536 C1542 0.930 . S
H1537 C1545 0.930 . S
H1538 C1546 0.930 . S
H1539 C1547 0.930 . S
H1540 C1550 0.930 . S
H1541 C1551 0.930 . S
C1542 H1536 0.930 . S
C1542 C1543 1.355 . S
C1542 C1544 1.415 . S
C1543 C1542 1.355 . S
C1543 C1545 1.419 . S
C1544 C1542 1.415 . S
C1544 C1549 1.425 . S
C1544 C1551 1.409 . S
C1545 H1537 0.930 . S
C1545 C1543 1.419 . S
C1545 C1546 1.362 . S
C1546 H1538 0.930 . S
C1546 C1545 1.362 . S
C1546 C1549 1.409 . S
C1547 H1539 0.930 . S
C1547 C1548 1.355 . S
C1547 C1549 1.415 . S
C1548 C1547 1.355 . S
C1548 C1550 1.419 . S
C1549 C1544 1.425 . S
C1549 C1546 1.409 . S
C1549 C1547 1.415 . S
C1550 H1540 0.930 . S
C1550 C1548 1.419 . S
C1550 C1551 1.362 . S
C1551 H1541 0.930 . S
C1551 C1544 1.409 . S
C1551 C1550 1.362 . S
H1552 C1558 0.930 . S
H1553 C1561 0.930 . S
H1554 C1562 0.930 . S
H1555 C1563 0.930 . S
H1556 C1566 0.930 . S
H1557 C1567 0.930 . S
C1558 H1552 0.930 . S
C1558 C1559 1.355 . S
C1558 C1560 1.415 . S
C1559 C1558 1.355 . S
C1559 C1561 1.419 . S
C1560 C1558 1.415 . S
C1560 C1565 1.425 . S
C1560 C1567 1.409 . S
C1561 H1553 0.930 . S
C1561 C1559 1.419 . S
C1561 C1562 1.362 . S
C1562 H1554 0.930 . S
C1562 C1561 1.362 . S
C1562 C1565 1.409 . S
C1563 H1555 0.930 . S
C1563 C1564 1.355 . S
C1563 C1565 1.415 . S
C1564 C1563 1.355 . S
C1564 C1566 1.419 . S
C1565 C1560 1.425 . S
C1565 C1562 1.409 . S
C1565 C1563 1.415 . S
C1566 H1556 0.930 . S
C1566 C1564 1.419 . S
C1566 C1567 1.362 . S
C1567 H1557 0.930 . S
C1567 C1560 1.409 . S
C1567 C1566 1.362 . S
H1568 C1574 0.930 . S
H1569 C1577 0.930 . S
H1570 C1578 0.930 . S
H1571 C1579 0.930 . S
H1572 C1582 0.930 . S
H1573 C1583 0.930 . S
C1574 H1568 0.930 . S
C1574 C1575 1.355 . S
C1574 C1576 1.415 . S
C1575 C1574 1.355 . S
C1575 C1577 1.419 . S
C1576 C1574 1.415 . S
C1576 C1581 1.425 . S
C1576 C1583 1.409 . S
C1577 H1569 0.930 . S
C1577 C1575 1.419 . S
C1577 C1578 1.362 . S
C1578 H1570 0.930 . S
C1578 C1577 1.362 . S
C1578 C1581 1.409 . S
C1579 H1571 0.930 . S
C1579 C1580 1.355 . S
C1579 C1581 1.415 . S
C1580 C1579 1.355 . S
C1580 C1582 1.419 . S
C1581 C1576 1.425 . S
C1581 C1578 1.409 . S
C1581 C1579 1.415 . S
C1582 H1572 0.930 . S
C1582 C1580 1.419 . S
C1582 C1583 1.362 . S
C1583 H1573 0.930 . S
C1583 C1576 1.409 . S
C1583 C1582 1.362 . S
H1584 C1590 0.930 . S
H1585 C1593 0.930 . S
H1586 C1594 0.930 . S
H1587 C1595 0.930 . S
H1588 C1598 0.930 . S
H1589 C1599 0.930 . S
C1590 H1584 0.930 . S
C1590 C1591 1.355 . S
C1590 C1592 1.415 1_655 S
C1591 C1590 1.355 . S
C1591 C1593 1.419 . S
C1592 C1590 1.415 1_455 S
C1592 C1597 1.425 . S
C1592 C1599 1.409 . S
C1593 H1585 0.930 . S
C1593 C1591 1.419 . S
C1593 C1594 1.362 1_655 S
C1594 H1586 0.930 . S
C1594 C1593 1.362 1_455 S
C1594 C1597 1.409 . S
C1595 H1587 0.930 . S
C1595 C1596 1.355 . S
C1595 C1597 1.415 . S
C1596 C1595 1.355 . S
C1596 C1598 1.419 . S
C1597 C1592 1.425 . S
C1597 C1594 1.409 . S
C1597 C1595 1.415 . S
C1598 H1588 0.930 . S
C1598 C1596 1.419 . S
C1598 C1599 1.362 . S
C1599 H1589 0.930 . S
C1599 C1592 1.409 . S
C1599 C1598 1.362 . S
H1600 C1606 0.930 . S
H1601 C1609 0.930 . S
H1602 C1610 0.930 . S
H1603 C1611 0.930 . S
H1604 C1614 0.930 . S
H1605 C1615 0.930 . S
C1606 H1600 0.930 . S
C1606 C1607 1.355 . S
C1606 C1608 1.415 . S
C1607 C1606 1.355 . S
C1607 C1609 1.419 . S
C1608 C1606 1.415 . S
C1608 C1613 1.425 . S
C1608 C1615 1.409 . S
C1609 H1601 0.930 . S
C1609 C1607 1.419 . S
C1609 C1610 1.362 . S
C1610 H1602 0.930 . S
C1610 C1609 1.362 . S
C1610 C1613 1.409 . S
C1611 H1603 0.930 . S
C1611 C1612 1.355 . S
C1611 C1613 1.415 . S
C1612 C1611 1.355 . S
C1612 C1614 1.419 . S
C1613 C1608 1.425 . S
C1613 C1610 1.409 . S
C1613 C1611 1.415 . S
C1614 H1604 0.930 . S
C1614 C1612 1.419 . S
C1614 C1615 1.362 . S
C1615 H1605 0.930 . S
C1615 C1608 1.409 . S
C1615 C1614 1.362 . S
H1616 C1622 0.930 . S
H1617 C1625 0.930 . S
H1618 C1626 0.930 . S
H1619 C1627 0.929 1_455 S
H1620 C1630 0.930 . S
H1621 C1631 0.930 . S
C1622 H1616 0.930 . S
C1622 C1623 1.355 . S
C1622 C1624 1.415 . S
C1623 C1622 1.355 . S
C1623 C1625 1.419 . S
C1624 C1622 1.415 . S
C1624 C1629 1.425 . S
C1624 C1631 1.409 1_455 S
C1625 H1617 0.930 . S
C1625 C1623 1.419 . S
C1625 C1626 1.362 . S
C1626 H1618 0.930 . S
C1626 C1625 1.362 . S
C1626 C1629 1.409 . S
C1627 H1619 0.929 1_655 S
C1627 C1628 1.362 . S
C1627 C1629 1.408 1_655 S
C1628 C1627 1.362 . S
C1628 C1630 1.419 . S
C1629 C1624 1.425 . S
C1629 C1626 1.409 . S
C1629 C1627 1.408 1_455 S
C1630 H1620 0.930 . S
C1630 C1628 1.419 . S
C1630 C1631 1.362 . S
C1631 H1621 0.930 . S
C1631 C1624 1.409 1_655 S
C1631 C1630 1.362 . S
H1632 C1638 0.930 . S
H1633 C1641 0.930 . S
H1634 C1642 0.930 . S
H1635 C1643 0.930 . S
H1636 C1646 0.930 . S
H1637 C1647 0.930 . S
C1638 H1632 0.930 . S
C1638 C1639 1.355 . S
C1638 C1640 1.415 . S
C1639 C1638 1.355 . S
C1639 C1641 1.419 . S
C1640 C1638 1.415 . S
C1640 C1645 1.425 . S
C1640 C1647 1.409 . S
C1641 H1633 0.930 . S
C1641 C1639 1.419 . S
C1641 C1642 1.362 . S
C1642 H1634 0.930 . S
C1642 C1641 1.362 . S
C1642 C1645 1.409 . S
C1643 H1635 0.930 . S
C1643 C1644 1.355 . S
C1643 C1645 1.415 . S
C1644 C1643 1.355 . S
C1644 C1646 1.419 . S
C1645 C1640 1.425 . S
C1645 C1642 1.409 . S
C1645 C1643 1.415 . S
C1646 H1636 0.930 . S
C1646 C1644 1.419 . S
C1646 C1647 1.362 . S
C1647 H1637 0.930 . S
C1647 C1640 1.409 . S
C1647 C1646 1.362 . S
H1648 C1654 0.930 . S
H1649 C1657 0.930 . S
H1650 C1658 0.930 . S
H1651 C1659 0.930 . S
H1652 C1662 0.930 . S
H1653 C1663 0.930 . S
C1654 H1648 0.930 . S
C1654 C1655 1.355 . S
C1654 C1656 1.415 . S
C1655 C1654 1.355 . S
C1655 C1657 1.419 . S
C1656 C1654 1.415 . S
C1656 C1661 1.425 . S
C1656 C1663 1.409 . S
C1657 H1649 0.930 . S
C1657 C1655 1.419 . S
C1657 C1658 1.362 . S
C1658 H1650 0.930 . S
C1658 C1657 1.362 . S
C1658 C1661 1.409 . S
C1659 H1651 0.930 . S
C1659 C1660 1.355 . S
C1659 C1661 1.415 . S
C1660 C1659 1.355 . S
C1660 C1662 1.419 . S
C1661 C1656 1.425 . S
C1661 C1658 1.409 . S
C1661 C1659 1.415 . S
C1662 H1652 0.930 . S
C1662 C1660 1.419 . S
C1662 C1663 1.362 . S
C1663 H1653 0.930 . S
C1663 C1656 1.409 . S
C1663 C1662 1.362 . S
H1664 C1670 0.930 . S
H1665 C1673 0.930 . S
H1666 C1674 0.930 . S
H1667 C1675 0.930 . S
H1668 C1678 0.930 . S
H1669 C1679 0.930 . S
C1670 H1664 0.930 . S
C1670 C1671 1.355 . S
C1670 C1672 1.415 . S
C1671 C1670 1.355 . S
C1671 C1673 1.419 . S
C1672 C1670 1.415 . S
C1672 C1677 1.425 1_545 S
C1672 C1679 1.409 1_545 S
C1673 H1665 0.930 . S
C1673 C1671 1.419 . S
C1673 C1674 1.362 . S
C1674 H1666 0.930 . S
C1674 C1673 1.362 . S
C1674 C1677 1.409 1_545 S
C1675 H1667 0.930 . S
C1675 C1676 1.355 . S
C1675 C1677 1.415 . S
C1676 C1675 1.355 . S
C1676 C1678 1.419 . S
C1677 C1672 1.425 1_565 S
C1677 C1674 1.409 1_565 S
C1677 C1675 1.415 . S
C1678 H1668 0.930 . S
C1678 C1676 1.419 . S
C1678 C1679 1.362 . S
C1679 H1669 0.930 . S
C1679 C1672 1.409 1_565 S
C1679 C1678 1.362 . S
H1680 C1686 0.930 . S
H1681 C1689 0.930 . S
H1682 C1690 0.930 . S
H1683 C1691 0.930 . S
H1684 C1694 0.930 . S
H1685 C1695 0.930 . S
C1686 H1680 0.930 . S
C1686 C1687 1.355 . S
C1686 C1688 1.415 . S
C1687 C1686 1.355 . S
C1687 C1689 1.419 . S
C1688 C1686 1.415 . S
C1688 C1693 1.425 . S
C1688 C1695 1.409 . S
C1689 H1681 0.930 . S
C1689 C1687 1.419 . S
C1689 C1690 1.362 . S
C1690 H1682 0.930 . S
C1690 C1689 1.362 . S
C1690 C1693 1.409 . S
C1691 H1683 0.930 . S
C1691 C1692 1.355 . S
C1691 C1693 1.415 . S
C1692 C1691 1.355 . S
C1692 C1694 1.419 . S
C1693 C1688 1.425 . S
C1693 C1690 1.409 . S
C1693 C1691 1.415 . S
C1694 H1684 0.930 . S
C1694 C1692 1.419 . S
C1694 C1695 1.362 . S
C1695 H1685 0.930 . S
C1695 C1688 1.409 . S
C1695 C1694 1.362 . S
H1696 C1702 0.930 . S
H1697 C1705 0.930 . S
H1698 C1706 0.930 . S
H1699 C1707 0.930 . S
H1700 C1710 0.930 . S
H1701 C1711 0.930 . S
C1702 H1696 0.930 . S
C1702 C1703 1.355 . S
C1702 C1704 1.415 . S
C1703 C1702 1.355 . S
C1703 C1705 1.419 . S
C1704 C1702 1.415 . S
C1704 C1709 1.425 1_565 S
C1704 C1711 1.409 1_565 S
C1705 H1697 0.930 . S
C1705 C1703 1.419 . S
C1705 C1706 1.362 . S
C1706 H1698 0.930 . S
C1706 C1705 1.362 . S
C1706 C1709 1.409 1_565 S
C1707 H1699 0.930 . S
C1707 C1708 1.355 . S
C1707 C1709 1.415 . S
C1708 C1707 1.355 . S
C1708 C1710 1.419 . S
C1709 C1704 1.425 1_545 S
C1709 C1706 1.409 1_545 S
C1709 C1707 1.415 . S
C1710 H1700 0.930 . S
C1710 C1708 1.419 . S
C1710 C1711 1.362 . S
C1711 H1701 0.930 . S
C1711 C1704 1.409 1_545 S
C1711 C1710 1.362 . S
H1712 C1718 0.930 . S
H1713 C1721 0.930 . S
H1714 C1722 0.930 . S
H1715 C1723 0.930 . S
H1716 C1726 0.930 . S
H1717 C1727 0.930 . S
C1718 H1712 0.930 . S
C1718 C1719 1.355 1_554 S
C1718 C1720 1.415 . S
C1719 C1718 1.355 1_556 S
C1719 C1721 1.419 . S
C1720 C1718 1.415 . S
C1720 C1725 1.425 1_554 S
C1720 C1727 1.409 . S
C1721 H1713 0.930 . S
C1721 C1719 1.419 . S
C1721 C1722 1.362 . S
C1722 H1714 0.930 . S
C1722 C1721 1.362 . S
C1722 C1725 1.409 . S
C1723 H1715 0.930 . S
C1723 C1724 1.355 1_556 S
C1723 C1725 1.415 . S
C1724 C1723 1.355 1_554 S
C1724 C1726 1.419 . S
C1725 C1720 1.425 1_556 S
C1725 C1722 1.409 . S
C1725 C1723 1.415 . S
C1726 H1716 0.930 . S
C1726 C1724 1.419 . S
C1726 C1727 1.362 . S
C1727 H1717 0.930 . S
C1727 C1720 1.409 . S
C1727 C1726 1.362 . S
H1728 C1734 0.930 . S
H1729 C1737 0.930 . S
H1730 C1738 0.930 1_565 S
H1731 C1739 0.930 . S
H1732 C1742 0.930 . S
H1733 C1743 0.930 1_545 S
C1734 H1728 0.930 . S
C1734 C1735 1.355 . S
C1734 C1736 1.415 . S
C1735 C1734 1.355 . S
C1735 C1737 1.419 . S
C1736 C1734 1.415 . S
C1736 C1741 1.425 1_545 S
C1736 C1743 1.409 1_545 S
C1737 H1729 0.930 . S
C1737 C1735 1.419 . S
C1737 C1738 1.362 . S
C1738 H1730 0.930 1_545 S
C1738 C1737 1.362 . S
C1738 C1741 1.409 1_545 S
C1739 H1731 0.930 . S
C1739 C1740 1.355 . S
C1739 C1741 1.415 . S
C1740 C1739 1.355 . S
C1740 C1742 1.419 . S
C1741 C1736 1.425 1_565 S
C1741 C1738 1.409 1_565 S
C1741 C1739 1.415 . S
C1742 H1732 0.930 . S
C1742 C1740 1.419 . S
C1742 C1743 1.362 . S
C1743 H1733 0.930 1_565 S
C1743 C1736 1.409 1_565 S
C1743 C1742 1.362 . S
H1744 C1750 0.930 . S
H1745 C1753 0.930 . S
H1746 C1754 0.930 . S
H1747 C1755 0.930 . S
H1748 C1758 0.930 . S
H1749 C1759 0.930 . S
C1750 H1744 0.930 . S
C1750 C1751 1.355 . S
C1750 C1752 1.415 . S
C1751 C1750 1.355 . S
C1751 C1753 1.419 . S
C1752 C1750 1.415 . S
C1752 C1757 1.425 . S
C1752 C1759 1.409 . S
C1753 H1745 0.930 . S
C1753 C1751 1.419 . S
C1753 C1754 1.362 . S
C1754 H1746 0.930 . S
C1754 C1753 1.362 . S
C1754 C1757 1.409 . S
C1755 H1747 0.930 . S
C1755 C1756 1.355 . S
C1755 C1757 1.415 . S
C1756 C1755 1.355 . S
C1756 C1758 1.419 . S
C1757 C1752 1.425 . S
C1757 C1754 1.409 . S
C1757 C1755 1.415 . S
C1758 H1748 0.930 . S
C1758 C1756 1.419 . S
C1758 C1759 1.362 . S
C1759 H1749 0.930 . S
C1759 C1752 1.409 . S
C1759 C1758 1.362 . S
H1760 C1766 0.930 . S
H1761 C1769 0.930 . S
H1762 C1770 0.930 . S
H1763 C1771 0.930 . S
H1764 C1774 0.930 . S
H1765 C1775 0.930 . S
C1766 H1760 0.930 . S
C1766 C1767 1.355 . S
C1766 C1768 1.415 . S
C1767 C1766 1.355 . S
C1767 C1769 1.419 . S
C1768 C1766 1.415 . S
C1768 C1773 1.425 1_545 S
C1768 C1775 1.409 1_545 S
C1769 H1761 0.930 . S
C1769 C1767 1.419 . S
C1769 C1770 1.362 . S
C1770 H1762 0.930 . S
C1770 C1769 1.362 . S
C1770 C1773 1.409 1_545 S
C1771 H1763 0.930 . S
C1771 C1772 1.355 . S
C1771 C1773 1.415 . S
C1772 C1771 1.355 . S
C1772 C1774 1.419 . S
C1773 C1768 1.425 1_565 S
C1773 C1770 1.409 1_565 S
C1773 C1771 1.415 . S
C1774 H1764 0.930 . S
C1774 C1772 1.419 . S
C1774 C1775 1.362 . S
C1775 H1765 0.930 . S
C1775 C1768 1.409 1_565 S
C1775 C1774 1.362 . S
H1776 C1782 0.930 . S
H1777 C1785 0.930 . S
H1778 C1786 0.930 . S
H1779 C1787 0.930 . S
H1780 C1790 0.930 . S
H1781 C1791 0.930 . S
C1782 H1776 0.930 . S
C1782 C1783 1.355 . S
C1782 C1784 1.415 . S
C1783 C1782 1.355 . S
C1783 C1785 1.419 1_556 S
C1784 C1782 1.415 . S
C1784 C1789 1.425 1_556 S
C1784 C1791 1.409 . S
C1785 H1777 0.930 . S
C1785 C1783 1.419 1_554 S
C1785 C1786 1.362 . S
C1786 H1778 0.930 . S
C1786 C1785 1.362 . S
C1786 C1789 1.409 . S
C1787 H1779 0.930 . S
C1787 C1788 1.355 . S
C1787 C1789 1.415 . S
C1788 C1787 1.355 . S
C1788 C1790 1.419 1_554 S
C1789 C1784 1.425 1_554 S
C1789 C1786 1.409 . S
C1789 C1787 1.415 . S
C1790 H1780 0.930 . S
C1790 C1788 1.419 1_556 S
C1790 C1791 1.362 . S
C1791 H1781 0.930 . S
C1791 C1784 1.409 . S
C1791 C1790 1.362 . S
H1792 C1798 0.930 . S
H1793 C1801 0.930 . S
H1794 C1802 0.930 . S
H1795 C1803 0.930 . S
H1796 C1806 0.930 . S
H1797 C1807 0.930 . S
C1798 H1792 0.930 . S
C1798 C1799 1.355 . S
C1798 C1800 1.415 . S
C1799 C1798 1.355 . S
C1799 C1801 1.419 . S
C1800 C1798 1.415 . S
C1800 C1805 1.425 . S
C1800 C1807 1.409 . S
C1801 H1793 0.930 . S
C1801 C1799 1.419 . S
C1801 C1802 1.362 . S
C1802 H1794 0.930 . S
C1802 C1801 1.362 . S
C1802 C1805 1.409 . S
C1803 H1795 0.930 . S
C1803 C1804 1.355 . S
C1803 C1805 1.415 . S
C1804 C1803 1.355 . S
C1804 C1806 1.419 . S
C1805 C1800 1.425 . S
C1805 C1802 1.409 . S
C1805 C1803 1.415 . S
C1806 H1796 0.930 . S
C1806 C1804 1.419 . S
C1806 C1807 1.362 . S
C1807 H1797 0.930 . S
C1807 C1800 1.409 . S
C1807 C1806 1.362 . S
H1808 C1814 0.930 . S
H1809 C1817 0.930 . S
H1810 C1818 0.930 . S
H1811 C1819 0.930 . S
H1812 C1822 0.930 . S
H1813 C1823 0.930 . S
C1814 H1808 0.930 . S
C1814 C1815 1.355 . S
C1814 C1816 1.415 . S
C1815 C1814 1.355 . S
C1815 C1817 1.419 1_556 S
C1816 C1814 1.415 . S
C1816 C1821 1.425 1_556 S
C1816 C1823 1.409 . S
C1817 H1809 0.930 . S
C1817 C1815 1.419 1_554 S
C1817 C1818 1.362 . S
C1818 H1810 0.930 . S
C1818 C1817 1.362 . S
C1818 C1821 1.409 . S
C1819 H1811 0.930 . S
C1819 C1820 1.355 . S
C1819 C1821 1.415 . S
C1820 C1819 1.355 . S
C1820 C1822 1.419 1_554 S
C1821 C1816 1.425 1_554 S
C1821 C1818 1.409 . S
C1821 C1819 1.415 . S
C1822 H1812 0.930 . S
C1822 C1820 1.419 1_556 S
C1822 C1823 1.362 . S
C1823 H1813 0.930 . S
C1823 C1816 1.409 . S
C1823 C1822 1.362 . S
H1824 C1830 0.930 . S
H1825 C1833 0.930 . S
H1826 C1834 0.930 . S
H1827 C1835 0.930 . S
H1828 C1838 0.930 . S
H1829 C1839 0.930 . S
C1830 H1824 0.930 . S
C1830 C1831 1.355 . S
C1830 C1832 1.415 . S
C1831 C1830 1.355 . S
C1831 C1833 1.419 . S
C1832 C1830 1.415 . S
C1832 C1837 1.425 . S
C1832 C1839 1.409 . S
C1833 H1825 0.930 . S
C1833 C1831 1.419 . S
C1833 C1834 1.362 . S
C1834 H1826 0.930 . S
C1834 C1833 1.362 . S
C1834 C1837 1.409 . S
C1835 H1827 0.930 . S
C1835 C1836 1.355 . S
C1835 C1837 1.415 . S
C1836 C1835 1.355 . S
C1836 C1838 1.419 . S
C1837 C1832 1.425 . S
C1837 C1834 1.409 . S
C1837 C1835 1.415 . S
C1838 H1828 0.930 . S
C1838 C1836 1.419 . S
C1838 C1839 1.362 . S
C1839 H1829 0.930 . S
C1839 C1832 1.409 . S
C1839 C1838 1.362 . S
H1840 C1846 0.930 . S
H1841 C1849 0.930 . S
H1842 C1850 0.930 . S
H1843 C1851 0.930 . S
H1844 C1854 0.930 . S
H1845 C1855 0.930 . S
C1846 H1840 0.930 . S
C1846 C1847 1.355 . S
C1846 C1848 1.415 . S
C1847 C1846 1.355 . S
C1847 C1849 1.419 . S
C1848 C1846 1.415 . S
C1848 C1853 1.425 . S
C1848 C1855 1.409 . S
C1849 H1841 0.930 . S
C1849 C1847 1.419 . S
C1849 C1850 1.362 . S
C1850 H1842 0.930 . S
C1850 C1849 1.362 . S
C1850 C1853 1.409 . S
C1851 H1843 0.930 . S
C1851 C1852 1.355 . S
C1851 C1853 1.415 . S
C1852 C1851 1.355 . S
C1852 C1854 1.419 . S
C1853 C1848 1.425 . S
C1853 C1850 1.409 . S
C1853 C1851 1.415 . S
C1854 H1844 0.930 . S
C1854 C1852 1.419 . S
C1854 C1855 1.362 . S
C1855 H1845 0.930 . S
C1855 C1848 1.409 . S
C1855 C1854 1.362 . S
H1856 C1862 0.930 . S
H1857 C1865 0.930 . S
H1858 C1866 0.930 . S
H1859 C1867 0.930 . S
H1860 C1870 0.930 . S
H1861 C1871 0.930 . S
C1862 H1856 0.930 . S
C1862 C1863 1.355 . S
C1862 C1864 1.415 . S
C1863 C1862 1.355 . S
C1863 C1865 1.419 . S
C1864 C1862 1.415 . S
C1864 C1869 1.425 . S
C1864 C1871 1.409 . S
C1865 H1857 0.930 . S
C1865 C1863 1.419 . S
C1865 C1866 1.362 . S
C1866 H1858 0.930 . S
C1866 C1865 1.362 . S
C1866 C1869 1.409 . S
C1867 H1859 0.930 . S
C1867 C1868 1.355 . S
C1867 C1869 1.415 . S
C1868 C1867 1.355 . S
C1868 C1870 1.419 . S
C1869 C1864 1.425 . S
C1869 C1866 1.409 . S
C1869 C1867 1.415 . S
C1870 H1860 0.930 . S
C1870 C1868 1.419 . S
C1870 C1871 1.362 . S
C1871 H1861 0.930 . S
C1871 C1864 1.409 . S
C1871 C1870 1.362 . S
H1872 C1878 0.930 . S
H1873 C1881 0.930 . S
H1874 C1882 0.930 . S
H1875 C1883 0.930 . S
H1876 C1886 0.930 . S
H1877 C1887 0.930 . S
C1878 H1872 0.930 . S
C1878 C1879 1.355 . S
C1878 C1880 1.415 . S
C1879 C1878 1.355 . S
C1879 C1881 1.419 1_556 S
C1880 C1878 1.415 . S
C1880 C1885 1.425 1_556 S
C1880 C1887 1.409 . S
C1881 H1873 0.930 . S
C1881 C1879 1.419 1_554 S
C1881 C1882 1.362 . S
C1882 H1874 0.930 . S
C1882 C1881 1.362 . S
C1882 C1885 1.409 . S
C1883 H1875 0.930 . S
C1883 C1884 1.355 . S
C1883 C1885 1.415 . S
C1884 C1883 1.355 . S
C1884 C1886 1.419 1_554 S
C1885 C1880 1.425 1_554 S
C1885 C1882 1.409 . S
C1885 C1883 1.415 . S
C1886 H1876 0.930 . S
C1886 C1884 1.419 1_556 S
C1886 C1887 1.362 . S
C1887 H1877 0.930 . S
C1887 C1880 1.409 . S
C1887 C1886 1.362 . S
H1888 C1894 0.930 . S
H1889 C1897 0.930 . S
H1890 C1898 0.930 . S
H1891 C1899 0.930 . S
H1892 C1902 0.930 . S
H1893 C1903 0.930 . S
C1894 H1888 0.930 . S
C1894 C1895 1.355 . S
C1894 C1896 1.415 . S
C1895 C1894 1.355 . S
C1895 C1897 1.419 . S
C1896 C1894 1.415 . S
C1896 C1901 1.425 . S
C1896 C1903 1.409 . S
C1897 H1889 0.930 . S
C1897 C1895 1.419 . S
C1897 C1898 1.362 . S
C1898 H1890 0.930 . S
C1898 C1897 1.362 . S
C1898 C1901 1.409 . S
C1899 H1891 0.930 . S
C1899 C1900 1.355 . S
C1899 C1901 1.415 . S
C1900 C1899 1.355 . S
C1900 C1902 1.419 . S
C1901 C1896 1.425 . S
C1901 C1898 1.409 . S
C1901 C1899 1.415 . S
C1902 H1892 0.930 . S
C1902 C1900 1.419 . S
C1902 C1903 1.362 . S
C1903 H1893 0.930 . S
C1903 C1896 1.409 . S
C1903 C1902 1.362 . S
H1904 C1910 0.930 . S
H1905 C1913 0.930 . S
H1906 C1914 0.930 . S
H1907 C1915 0.930 . S
H1908 C1918 0.930 . S
H1909 C1919 0.930 . S
C1910 H1904 0.930 . S
C1910 C1911 1.355 . S
C1910 C1912 1.415 . S
C1911 C1910 1.355 . S
C1911 C1913 1.419 . S
C1912 C1910 1.415 . S
C1912 C1917 1.425 . S
C1912 C1919 1.409 . S
C1913 H1905 0.930 . S
C1913 C1911 1.419 . S
C1913 C1914 1.362 . S
C1914 H1906 0.930 . S
C1914 C1913 1.362 . S
C1914 C1917 1.409 . S
C1915 H1907 0.930 . S
C1915 C1916 1.355 . S
C1915 C1917 1.415 . S
C1916 C1915 1.355 . S
C1916 C1918 1.419 . S
C1917 C1912 1.425 . S
C1917 C1914 1.409 . S
C1917 C1915 1.415 . S
C1918 H1908 0.930 . S
C1918 C1916 1.419 . S
C1918 C1919 1.362 . S
C1919 H1909 0.930 . S
C1919 C1912 1.409 . S
C1919 C1918 1.362 . S
H1920 C1926 0.930 . S
H1921 C1929 0.930 . S
H1922 C1930 0.930 . S
H1923 C1931 0.930 . S
H1924 C1934 0.930 . S
H1925 C1935 0.930 . S
C1926 H1920 0.930 . S
C1926 C1927 1.355 . S
C1926 C1928 1.415 . S
C1927 C1926 1.355 . S
C1927 C1929 1.419 . S
C1928 C1926 1.415 . S
C1928 C1933 1.425 . S
C1928 C1935 1.409 . S
C1929 H1921 0.930 . S
C1929 C1927 1.419 . S
C1929 C1930 1.362 . S
C1930 H1922 0.930 . S
C1930 C1929 1.362 . S
C1930 C1933 1.409 . S
C1931 H1923 0.930 . S
C1931 C1932 1.355 . S
C1931 C1933 1.415 . S
C1932 C1931 1.355 . S
C1932 C1934 1.419 . S
C1933 C1928 1.425 . S
C1933 C1930 1.409 . S
C1933 C1931 1.415 . S
C1934 H1924 0.930 . S
C1934 C1932 1.419 . S
C1934 C1935 1.362 . S
C1935 H1925 0.930 . S
C1935 C1928 1.409 . S
C1935 C1934 1.362 . S
H1936 C1942 0.930 . S
H1937 C1945 0.930 . S
H1938 C1946 0.930 . S
H1939 C1947 0.930 . S
H1940 C1950 0.930 . S
H1941 C1951 0.930 . S
C1942 H1936 0.930 . S
C1942 C1943 1.355 . S
C1942 C1944 1.415 . S
C1943 C1942 1.355 . S
C1943 C1945 1.419 . S
C1944 C1942 1.415 . S
C1944 C1949 1.425 . S
C1944 C1951 1.409 . S
C1945 H1937 0.930 . S
C1945 C1943 1.419 . S
C1945 C1946 1.362 . S
C1946 H1938 0.930 . S
C1946 C1945 1.362 . S
C1946 C1949 1.409 . S
C1947 H1939 0.930 . S
C1947 C1948 1.355 . S
C1947 C1949 1.415 . S
C1948 C1947 1.355 . S
C1948 C1950 1.419 . S
C1949 C1944 1.425 . S
C1949 C1946 1.409 . S
C1949 C1947 1.415 . S
C1950 H1940 0.930 . S
C1950 C1948 1.419 . S
C1950 C1951 1.362 . S
C1951 H1941 0.930 . S
C1951 C1944 1.409 . S
C1951 C1950 1.362 . S
H1952 C1958 0.930 . S
H1953 C1961 0.930 . S
H1954 C1962 0.930 . S
H1955 C1963 0.930 . S
H1956 C1966 0.930 . S
H1957 C1967 0.930 . S
C1958 H1952 0.930 . S
C1958 C1959 1.355 . S
C1958 C1960 1.415 . S
C1959 C1958 1.355 . S
C1959 C1961 1.419 . S
C1960 C1958 1.415 . S
C1960 C1965 1.425 . S
C1960 C1967 1.409 . S
C1961 H1953 0.930 . S
C1961 C1959 1.419 . S
C1961 C1962 1.362 . S
C1962 H1954 0.930 . S
C1962 C1961 1.362 . S
C1962 C1965 1.409 . S
C1963 H1955 0.930 . S
C1963 C1964 1.355 . S
C1963 C1965 1.415 . S
C1964 C1963 1.355 . S
C1964 C1966 1.419 . S
C1965 C1960 1.425 . S
C1965 C1962 1.409 . S
C1965 C1963 1.415 . S
C1966 H1956 0.930 . S
C1966 C1964 1.419 . S
C1966 C1967 1.362 . S
C1967 H1957 0.930 . S
C1967 C1960 1.409 . S
C1967 C1966 1.362 . S
H1968 C1974 0.930 . S
H1969 C1977 0.930 . S
H1970 C1978 0.930 . S
H1971 C1979 0.930 . S
H1972 C1982 0.930 . S
H1973 C1983 0.930 . S
C1974 H1968 0.930 . S
C1974 C1975 1.355 . S
C1974 C1976 1.415 . S
C1975 C1974 1.355 . S
C1975 C1977 1.419 . S
C1976 C1974 1.415 . S
C1976 C1981 1.425 . S
C1976 C1983 1.409 . S
C1977 H1969 0.930 . S
C1977 C1975 1.419 . S
C1977 C1978 1.362 . S
C1978 H1970 0.930 . S
C1978 C1977 1.362 . S
C1978 C1981 1.409 . S
C1979 H1971 0.930 . S
C1979 C1980 1.355 . S
C1979 C1981 1.415 . S
C1980 C1979 1.355 . S
C1980 C1982 1.419 . S
C1981 C1976 1.425 . S
C1981 C1978 1.409 . S
C1981 C1979 1.415 . S
C1982 H1972 0.930 . S
C1982 C1980 1.419 . S
C1982 C1983 1.362 . S
C1983 H1973 0.930 . S
C1983 C1976 1.409 . S
C1983 C1982 1.362 . S
H1984 C1990 0.930 . S
H1985 C1993 0.930 . S
H1986 C1994 0.930 . S
H1987 C1995 0.930 . S
H1988 C1998 0.930 . S
H1989 C1999 0.930 . S
C1990 H1984 0.930 . S
C1990 C1991 1.355 . S
C1990 C1992 1.415 . S
C1991 C1990 1.355 . S
C1991 C1993 1.419 . S
C1992 C1990 1.415 . S
C1992 C1997 1.425 . S
C1992 C1999 1.409 . S
C1993 H1985 0.930 . S
C1993 C1991 1.419 . S
C1993 C1994 1.362 . S
C1994 H1986 0.930 . S
C1994 C1993 1.362 . S
C1994 C1997 1.409 . S
C1995 H1987 0.930 . S
C1995 C1996 1.355 . S
C1995 C1997 1.415 . S
C1996 C1995 1.355 . S
C1996 C1998 1.419 . S
C1997 C1992 1.425 . S
C1997 C1994 1.409 . S
C1997 C1995 1.415 . S
C1998 H1988 0.930 . S
C1998 C1996 1.419 . S
C1998 C1999 1.362 . S
C1999 H1989 0.930 . S
C1999 C1992 1.409 . S
C1999 C1998 1.362 . S
H2000 C2006 0.930 . S
H2001 C2009 0.930 . S
H2002 C2010 0.930 . S
H2003 C2011 0.930 . S
H2004 C2014 0.930 . S
H2005 C2015 0.930 . S
C2006 H2000 0.930 . S
C2006 C2007 1.355 . S
C2006 C2008 1.415 . S
C2007 C2006 1.355 . S
C2007 C2009 1.419 . S
C2008 C2006 1.415 . S
C2008 C2013 1.425 . S
C2008 C2015 1.409 . S
C2009 H2001 0.930 . S
C2009 C2007 1.419 . S
C2009 C2010 1.362 . S
C2010 H2002 0.930 . S
C2010 C2009 1.362 . S
C2010 C2013 1.409 . S
C2011 H2003 0.930 . S
C2011 C2012 1.355 . S
C2011 C2013 1.415 . S
C2012 C2011 1.355 . S
C2012 C2014 1.419 . S
C2013 C2008 1.425 . S
C2013 C2010 1.409 . S
C2013 C2011 1.415 . S
C2014 H2004 0.930 . S
C2014 C2012 1.419 . S
C2014 C2015 1.362 . S
C2015 H2005 0.930 . S
C2015 C2008 1.409 . S
C2015 C2014 1.362 . S
H2016 C2022 0.930 . S
H2017 C2025 0.930 . S
H2018 C2026 0.930 . S
H2019 C2027 0.930 . S
H2020 C2030 0.930 . S
H2021 C2031 0.930 . S
C2022 H2016 0.930 . S
C2022 C2023 1.355 . S
C2022 C2024 1.415 . S
C2023 C2022 1.355 . S
C2023 C2025 1.419 . S
C2024 C2022 1.415 . S
C2024 C2029 1.425 . S
C2024 C2031 1.409 . S
C2025 H2017 0.930 . S
C2025 C2023 1.419 . S
C2025 C2026 1.362 . S
C2026 H2018 0.930 . S
C2026 C2025 1.362 . S
C2026 C2029 1.409 . S
C2027 H2019 0.930 . S
C2027 C2028 1.355 . S
C2027 C2029 1.415 . S
C2028 C2027 1.355 . S
C2028 C2030 1.419 . S
C2029 C2024 1.425 . S
C2029 C2026 1.409 . S
C2029 C2027 1.415 . S
C2030 H2020 0.930 . S
C2030 C2028 1.419 . S
C2030 C2031 1.362 . S
C2031 H2021 0.930 . S
C2031 C2024 1.409 . S
C2031 C2030 1.362 . S
H2032 C2038 0.930 . S
H2033 C2041 0.930 . S
H2034 C2042 0.930 . S
H2035 C2043 0.930 . S
H2036 C2046 0.930 . S
H2037 C2047 0.930 . S
C2038 H2032 0.930 . S
C2038 C2039 1.355 . S
C2038 C2040 1.415 . S
C2039 C2038 1.355 . S
C2039 C2041 1.419 . S
C2040 C2038 1.415 . S
C2040 C2045 1.425 . S
C2040 C2047 1.409 . S
C2041 H2033 0.930 . S
C2041 C2039 1.419 . S
C2041 C2042 1.362 . S
C2042 H2034 0.930 . S
C2042 C2041 1.362 . S
C2042 C2045 1.409 . S
C2043 H2035 0.930 . S
C2043 C2044 1.355 . S
C2043 C2045 1.415 . S
C2044 C2043 1.355 . S
C2044 C2046 1.419 . S
C2045 C2040 1.425 . S
C2045 C2042 1.409 . S
C2045 C2043 1.415 . S
C2046 H2036 0.930 . S
C2046 C2044 1.419 . S
C2046 C2047 1.362 . S
C2047 H2037 0.930 . S
C2047 C2040 1.409 . S
C2047 C2046 1.362 . S
H2048 C2054 0.930 . S
H2049 C2057 0.930 . S
H2050 C2058 0.930 . S
H2051 C2059 0.930 . S
H2052 C2062 0.930 . S
H2053 C2063 0.930 . S
C2054 H2048 0.930 . S
C2054 C2055 1.355 . S
C2054 C2056 1.415 . S
C2055 C2054 1.355 . S
C2055 C2057 1.419 . S
C2056 C2054 1.415 . S
C2056 C2061 1.425 . S
C2056 C2063 1.409 . S
C2057 H2049 0.930 . S
C2057 C2055 1.419 . S
C2057 C2058 1.362 . S
C2058 H2050 0.930 . S
C2058 C2057 1.362 . S
C2058 C2061 1.409 . S
C2059 H2051 0.930 . S
C2059 C2060 1.355 . S
C2059 C2061 1.415 . S
C2060 C2059 1.355 . S
C2060 C2062 1.419 . S
C2061 C2056 1.425 . S
C2061 C2058 1.409 . S
C2061 C2059 1.415 . S
C2062 H2052 0.930 . S
C2062 C2060 1.419 . S
C2062 C2063 1.362 . S
C2063 H2053 0.930 . S
C2063 C2056 1.409 . S
C2063 C2062 1.362 . S
H2064 C2070 0.930 . S
H2065 C2073 0.930 . S
H2066 C2074 0.930 . S
H2067 C2075 0.930 . S
H2068 C2078 0.930 . S
H2069 C2079 0.930 . S
C2070 H2064 0.930 . S
C2070 C2071 1.355 . S
C2070 C2072 1.415 . S
C2071 C2070 1.355 . S
C2071 C2073 1.419 . S
C2072 C2070 1.415 . S
C2072 C2077 1.425 . S
C2072 C2079 1.409 . S
C2073 H2065 0.930 . S
C2073 C2071 1.419 . S
C2073 C2074 1.362 . S
C2074 H2066 0.930 . S
C2074 C2073 1.362 . S
C2074 C2077 1.409 . S
C2075 H2067 0.930 . S
C2075 C2076 1.355 . S
C2075 C2077 1.415 . S
C2076 C2075 1.355 . S
C2076 C2078 1.419 . S
C2077 C2072 1.425 . S
C2077 C2074 1.409 . S
C2077 C2075 1.415 . S
C2078 H2068 0.930 . S
C2078 C2076 1.419 . S
C2078 C2079 1.362 . S
C2079 H2069 0.930 . S
C2079 C2072 1.409 . S
C2079 C2078 1.362 . S
H2080 C2086 0.930 . S
H2081 C2089 0.930 . S
H2082 C2090 0.930 . S
H2083 C2091 0.930 . S
H2084 C2094 0.930 . S
H2085 C2095 0.930 . S
C2086 H2080 0.930 . S
C2086 C2087 1.355 . S
C2086 C2088 1.415 . S
C2087 C2086 1.355 . S
C2087 C2089 1.419 . S
C2088 C2086 1.415 . S
C2088 C2093 1.425 . S
C2088 C2095 1.409 . S
C2089 H2081 0.930 . S
C2089 C2087 1.419 . S
C2089 C2090 1.362 . S
C2090 H2082 0.930 . S
C2090 C2089 1.362 . S
C2090 C2093 1.409 . S
C2091 H2083 0.930 . S
C2091 C2092 1.355 . S
C2091 C2093 1.415 . S
C2092 C2091 1.355 . S
C2092 C2094 1.419 . S
C2093 C2088 1.425 . S
C2093 C2090 1.409 . S
C2093 C2091 1.415 . S
C2094 H2084 0.930 . S
C2094 C2092 1.419 . S
C2094 C2095 1.362 . S
C2095 H2085 0.930 . S
C2095 C2088 1.409 . S
C2095 C2094 1.362 . S
H2096 C2102 0.930 . S
H2097 C2105 0.930 . S
H2098 C2106 0.930 . S
H2099 C2107 0.930 . S
H2100 C2110 0.930 . S
H2101 C2111 0.930 . S
C2102 H2096 0.930 . S
C2102 C2103 1.355 . S
C2102 C2104 1.415 . S
C2103 C2102 1.355 . S
C2103 C2105 1.419 . S
C2104 C2102 1.415 . S
C2104 C2109 1.425 . S
C2104 C2111 1.409 . S
C2105 H2097 0.930 . S
C2105 C2103 1.419 . S
C2105 C2106 1.362 . S
C2106 H2098 0.930 . S
C2106 C2105 1.362 . S
C2106 C2109 1.409 . S
C2107 H2099 0.930 . S
C2107 C2108 1.355 . S
C2107 C2109 1.415 . S
C2108 C2107 1.355 . S
C2108 C2110 1.419 . S
C2109 C2104 1.425 . S
C2109 C2106 1.409 . S
C2109 C2107 1.415 . S
C2110 H2100 0.930 . S
C2110 C2108 1.419 . S
C2110 C2111 1.362 . S
C2111 H2101 0.930 . S
C2111 C2104 1.409 . S
C2111 C2110 1.362 . S
H2112 C2118 0.930 . S
H2113 C2121 0.930 . S
H2114 C2122 0.930 . S
H2115 C2123 0.930 . S
H2116 C2126 0.930 . S
H2117 C2127 0.930 . S
C2118 H2112 0.930 . S
C2118 C2119 1.355 . S
C2118 C2120 1.415 . S
C2119 C2118 1.355 . S
C2119 C2121 1.419 . S
C2120 C2118 1.415 . S
C2120 C2125 1.425 . S
C2120 C2127 1.409 . S
C2121 H2113 0.930 . S
C2121 C2119 1.419 . S
C2121 C2122 1.362 . S
C2122 H2114 0.930 . S
C2122 C2121 1.362 . S
C2122 C2125 1.409 . S
C2123 H2115 0.930 . S
C2123 C2124 1.355 . S
C2123 C2125 1.415 . S
C2124 C2123 1.355 . S
C2124 C2126 1.419 . S
C2125 C2120 1.425 . S
C2125 C2122 1.409 . S
C2125 C2123 1.415 . S
C2126 H2116 0.930 . S
C2126 C2124 1.419 . S
C2126 C2127 1.362 . S
C2127 H2117 0.930 . S
C2127 C2120 1.409 . S
C2127 C2126 1.362 . S
H2128 C2134 0.930 . S
H2129 C2137 0.930 . S
H2130 C2138 0.930 . S
H2131 C2139 0.930 . S
H2132 C2142 0.930 . S
H2133 C2143 0.930 . S
C2134 H2128 0.930 . S
C2134 C2135 1.355 . S
C2134 C2136 1.415 . S
C2135 C2134 1.355 . S
C2135 C2137 1.419 . S
C2136 C2134 1.415 . S
C2136 C2141 1.425 . S
C2136 C2143 1.409 . S
C2137 H2129 0.930 . S
C2137 C2135 1.419 . S
C2137 C2138 1.362 . S
C2138 H2130 0.930 . S
C2138 C2137 1.362 . S
C2138 C2141 1.409 . S
C2139 H2131 0.930 . S
C2139 C2140 1.355 . S
C2139 C2141 1.415 . S
C2140 C2139 1.355 . S
C2140 C2142 1.419 . S
C2141 C2136 1.425 . S
C2141 C2138 1.409 . S
C2141 C2139 1.415 . S
C2142 H2132 0.930 . S
C2142 C2140 1.419 . S
C2142 C2143 1.362 . S
C2143 H2133 0.930 . S
C2143 C2136 1.409 . S
C2143 C2142 1.362 . S
H2144 C2150 0.930 . S
H2145 C2153 0.930 . S
H2146 C2154 0.930 . S
H2147 C2155 0.930 . S
H2148 C2158 0.930 . S
H2149 C2159 0.930 . S
C2150 H2144 0.930 . S
C2150 C2151 1.355 . S
C2150 C2152 1.415 . S
C2151 C2150 1.355 . S
C2151 C2153 1.419 . S
C2152 C2150 1.415 . S
C2152 C2157 1.425 . S
C2152 C2159 1.409 . S
C2153 H2145 0.930 . S
C2153 C2151 1.419 . S
C2153 C2154 1.362 . S
C2154 H2146 0.930 . S
C2154 C2153 1.362 . S
C2154 C2157 1.409 . S
C2155 H2147 0.930 . S
C2155 C2156 1.355 . S
C2155 C2157 1.415 . S
C2156 C2155 1.355 . S
C2156 C2158 1.419 . S
C2157 C2152 1.425 . S
C2157 C2154 1.409 . S
C2157 C2155 1.415 . S
C2158 H2148 0.930 . S
C2158 C2156 1.419 . S
C2158 C2159 1.362 . S
C2159 H2149 0.930 . S
C2159 C2152 1.409 . S
C2159 C2158 1.362 . S
H2160 C2166 0.930 . S
H2161 C2169 0.930 . S
H2162 C2170 0.930 . S
H2163 C2171 0.930 . S
H2164 C2174 0.930 . S
H2165 C2175 0.930 . S
C2166 H2160 0.930 . S
C2166 C2167 1.355 . S
C2166 C2168 1.415 . S
C2167 C2166 1.355 . S
C2167 C2169 1.419 . S
C2168 C2166 1.415 . S
C2168 C2173 1.425 . S
C2168 C2175 1.409 . S
C2169 H2161 0.930 . S
C2169 C2167 1.419 . S
C2169 C2170 1.362 . S
C2170 H2162 0.930 . S
C2170 C2169 1.362 . S
C2170 C2173 1.409 . S
C2171 H2163 0.930 . S
C2171 C2172 1.355 . S
C2171 C2173 1.415 . S
C2172 C2171 1.355 . S
C2172 C2174 1.419 . S
C2173 C2168 1.425 . S
C2173 C2170 1.409 . S
C2173 C2171 1.415 . S
C2174 H2164 0.930 . S
C2174 C2172 1.419 . S
C2174 C2175 1.362 . S
C2175 H2165 0.930 . S
C2175 C2168 1.409 . S
C2175 C2174 1.362 . S
C647 C2 1.510 . S
C652 C79 1.465 . S
C663 C19 1.462 . S
C668 C22 1.507 . S
C679 C42 1.511 . S
C684 C39 1.459 . S
C695 C59 1.456 . S
C700 C62 1.504 . S
C711 C119 1.396 . S
C716 C82 1.500 . S
C727 C102 1.490 . S
C732 C139 1.393 . S
C743 C159 1.464 . S
C748 C122 1.508 . S
C759 C99 1.391 . S
C764 C142 1.490 . S
C775 C161 1.507 . S
C780 C238 1.463 . S
C791 C181 1.508 . S
C796 C178 1.465 . S
C807 C201 1.508 . S
C812 C198 1.465 . S
C823 C221 1.489 . S
C828 C218 1.383 . S
C839 C241 1.489 . S
C844 C278 1.381 . S
C855 C261 1.511 . S
C860 C298 1.460 . S
C871 C318 1.457 . S
C876 C281 1.511 . S
C887 C258 1.376 . S
C892 C301 1.490 . S
C903 C322 1.490 . S
C908 C399 1.386 . S
C919 C339 1.463 . S
C924 C342 1.510 . S
C935 C359 1.453 . S
C940 C362 1.503 . S
C951 C382 1.496 . S
C956 C379 1.427 . S
C967 C402 1.489 . S
C972 C439 1.381 . S
C983 C459 1.463 . S
C988 C422 1.511 . S
C999 C442 1.511 . S
C1004 C479 1.463 . S
C1015 C419 1.422 . S
C1020 C462 1.506 . S
C1031 C558 1.463 . S
C1036 C481 1.507 . S
C1047 C498 1.415 . S
C1052 C501 1.493 . S
C1063 C521 1.492 . S
C1068 C518 1.376 . S
C1079 C538 1.424 . S
C1084 C541 1.507 . S
C1095 C598 1.439 . S
C1100 C561 1.509 . S
C1111 C618 1.432 . S
C1116 C581 1.497 . S
C1127 C638 1.464 . S
C1132 C601 1.510 . S
C1143 C621 1.500 . S
C1148 C578 1.444 . S
C1159 C542 1.456 . S
C1164 C8 1.479 . S
C1175 C28 1.415 . S
C1180 C162 1.432 . S
C1191 C48 1.479 . S
C1196 C502 1.457 . S
C1207 C68 1.444 . S
C1212 C202 1.481 . S
C1223 C88 1.433 . S
C1228 C582 1.420 . S
C1239 C282 1.483 . S
C1244 C108 1.451 . S
C1255 C622 1.421 . S
C1260 C128 1.444 . S
C1271 C148 1.420 . S
C1276 C242 1.462 . S
C1287 C169 1.413 . S
C1292 C381 1.437 . S
C1303 C1 1.421 . S
C1308 C189 1.427 . S
C1319 C341 1.437 . S
C1324 C209 1.413 . S
C1335 C41 1.424 . S
C1340 C229 1.422 . S
C1351 C421 1.483 . S
C1356 C249 1.461 . S
C1367 C121 1.476 . S
C1372 C269 1.475 . S
C1383 C289 1.473 . S
C1388 C461 1.478 . S
C1399 C309 1.465 . S
C1404 C81 1.432 . S
C1415 C328 1.479 . S
C1420 C222 1.468 . S
C1431 C348 1.468 . S
C1436 C482 1.436 . S
C1447 C368 1.475 . S
C1452 C182 1.476 . S
C1463 C388 1.415 . S
C1468 C522 1.431 . S
C1479 C408 1.414 . S
C1484 C262 1.434 . S
C1495 C428 1.480 . S
C1500 C602 1.458 . S
C1511 C302 1.428 . S
C1516 C448 1.459 . S
C1527 C468 1.480 . S
C1532 C562 1.458 . S
C1543 C61 1.438 . S
C1548 C489 1.413 . S
C1559 C321 1.441 . S
C1564 C509 1.473 . S
C1575 C21 1.423 . S
C1580 C529 1.423 . S
C1591 C361 1.435 . S
C1596 C549 1.468 . S
C1607 C101 1.483 . S
C1612 C569 1.453 . S
C1623 C589 1.455 . S
C1628 C441 1.483 . S
C1639 C609 1.419 . S
C1644 C141 1.461 . S
C1655 C401 1.468 . S
C1660 C629 1.424 . S
C1671 C9 0.258 . S
C1676 C89 0.464 . S
C1687 C29 0.267 . S
C1692 C109 0.373 . S
C1703 C49 0.434 . S
C1708 C129 0.227 . S
C1719 C149 0.230 . S
C1724 C69 0.450 . S
C1735 C248 0.353 . S
C1740 C168 0.285 . S
C1751 C268 0.429 . S
C1756 C188 0.228 . S
C1767 C208 0.420 . S
C1772 C288 0.396 . S
C1783 C228 0.411 . S
C1788 C308 0.406 . S
C1799 C329 0.466 . S
C1804 C409 0.286 . S
C1815 C429 0.382 . S
C1820 C349 0.431 . S
C1831 C449 0.232 . S
C1836 C369 0.418 . S
C1847 C469 0.449 . S
C1852 C389 0.230 . S
C1863 C568 0.421 . S
C1868 C488 0.394 . S
C1879 C508 0.374 . S
C1884 C588 0.436 . S
C1895 C608 0.375 . S
C1900 C528 0.265 . S
C1911 C548 0.269 . S
C1916 C628 0.370 . S
C1927 C158 1.997 . S
C1932 C18 1.988 . S
C1943 C38 1.996 . S
C1948 C98 2.004 . S
C1959 C58 1.985 . S
C1964 C118 1.983 . S
C1975 C138 2.000 . S
C1980 C78 2.005 . S
C1991 C179 2.003 . S
C1996 C319 2.005 . S
C2007 C259 2.005 . S
C2012 C199 1.998 . S
C2023 C279 1.992 . S
C2028 C219 1.984 . S
C2039 C239 2.005 . S
C2044 C299 2.002 . S
C2055 C338 1.992 . S
C2060 C478 1.984 . S
C2071 C418 2.000 . S
C2076 C358 2.005 . S
C2087 C438 1.984 . S
C2092 C378 1.992 . S
C2103 C458 1.983 . S
C2108 C398 1.987 . S
C2119 C499 1.992 . S
C2124 C639 1.984 . S
C2135 C579 1.983 . S
C2140 C519 1.990 . S
C2151 C539 1.992 . S
C2156 C599 1.984 . S
C2167 C619 2.004 . S
C2172 C559 2.004 . S
