# Generated by pormake.
# Topology sne, (6)-cn, num edge types: 1
# Building blocks:
#     Node 0, Type 0, BuildingBlock: KUMJIN_clean_sbu_1, # of connection points: 6
#     Node 1, Type 0, BuildingBlock: KUMJIN_clean_sbu_1, # of connection points: 6
#     Node 2, Type 0, BuildingBlock: KUMJIN_clean_sbu_1, # of connection points: 6
#     Node 3, Type 0, BuildingBlock: KUMJIN_clean_sbu_1, # of connection points: 6
#     Node 4, Type 0, BuildingBlock: KUMJIN_clean_sbu_1, # of connection points: 6
#     Node 5, Type 0, BuildingBlock: KUMJIN_clean_sbu_1, # of connection points: 6
#     Node 6, Type 0, BuildingBlock: KUMJIN_clean_sbu_1, # of connection points: 6
#     Node 7, Type 0, BuildingBlock: KUMJIN_clean_sbu_1, # of connection points: 6
#     Edge 8, Type (0, 0), BuildingBlock: CIFDUS_clean_linker_0, # of connection points: 2
#     Edge 9, Type (0, 0), BuildingBlock: CIFDUS_clean_linker_0, # of connection points: 2
#     Edge 10, Type (0, 0), BuildingBlock: CIFDUS_clean_linker_0, # of connection points: 2
#     Edge 11, Type (0, 0), BuildingBlock: CIFDUS_clean_linker_0, # of connection points: 2
#     Edge 12, Type (0, 0), BuildingBlock: CIFDUS_clean_linker_0, # of connection points: 2
#     Edge 13, Type (0, 0), BuildingBlock: CIFDUS_clean_linker_0, # of connection points: 2
#     Edge 14, Type (0, 0), BuildingBlock: CIFDUS_clean_linker_0, # of connection points: 2
#     Edge 15, Type (0, 0), BuildingBlock: CIFDUS_clean_linker_0, # of connection points: 2
#     Edge 16, Type (0, 0), BuildingBlock: CIFDUS_clean_linker_0, # of connection points: 2
#     Edge 17, Type (0, 0), BuildingBlock: CIFDUS_clean_linker_0, # of connection points: 2
#     Edge 18, Type (0, 0), BuildingBlock: CIFDUS_clean_linker_0, # of connection points: 2
#     Edge 19, Type (0, 0), BuildingBlock: CIFDUS_clean_linker_0, # of connection points: 2
#     Edge 20, Type (0, 0), BuildingBlock: CIFDUS_clean_linker_0, # of connection points: 2
#     Edge 21, Type (0, 0), BuildingBlock: CIFDUS_clean_linker_0, # of connection points: 2
#     Edge 22, Type (0, 0), BuildingBlock: CIFDUS_clean_linker_0, # of connection points: 2
#     Edge 23, Type (0, 0), BuildingBlock: CIFDUS_clean_linker_0, # of connection points: 2
#     Edge 24, Type (0, 0), BuildingBlock: CIFDUS_clean_linker_0, # of connection points: 2
#     Edge 25, Type (0, 0), BuildingBlock: CIFDUS_clean_linker_0, # of connection points: 2
#     Edge 26, Type (0, 0), BuildingBlock: CIFDUS_clean_linker_0, # of connection points: 2
#     Edge 27, Type (0, 0), BuildingBlock: CIFDUS_clean_linker_0, # of connection points: 2
#     Edge 28, Type (0, 0), BuildingBlock: CIFDUS_clean_linker_0, # of connection points: 2
#     Edge 29, Type (0, 0), BuildingBlock: CIFDUS_clean_linker_0, # of connection points: 2
#     Edge 30, Type (0, 0), BuildingBlock: CIFDUS_clean_linker_0, # of connection points: 2
#     Edge 31, Type (0, 0), BuildingBlock: CIFDUS_clean_linker_0, # of connection points: 2
# Relax obj value: 0.241
# Max RMSD: 0.301
# Mean RMSD: 0.299
data_MOF--net-sne--node1-KUMJIN_clean_sbu_1--edge1-CIFDUS_clean_linker_0
_symmetry_space_group_name_H-M    P1
_symmetry_Int_Tables_number       1
_symmetry_cell_setting            triclinic
loop_
_symmetry_equiv_pos_as_xyz
'x, y, z'
_cell_length_a     38.636746
_cell_length_b     38.624028
_cell_length_c     25.638689
_cell_angle_alpha  89.580807
_cell_angle_beta   90.32128
_cell_angle_gamma 90.532306
loop_
_atom_site_label
_atom_site_type_symbol
_atom_site_fract_x
_atom_site_fract_y
_atom_site_fract_z
_atom_type_partial_charge
Eu0 Eu 0.31285 0.19994 0.40329 0.0
C1 C 0.17156 0.20075 0.29378 0.0
N2 N 0.18813 0.22375 0.32582 0.0
C3 C 0.17145 0.27107 0.27044 0.0
C4 C 0.15663 0.21217 0.24652 0.0
C5 C 0.18566 0.25878 0.31706 0.0
C6 C 0.15761 0.24763 0.23459 0.0
C7 C 0.14781 0.14294 0.27903 0.0
C8 C 0.16651 0.16645 0.31051 0.0
C9 C 0.13538 0.15378 0.23009 0.0
C10 C 0.13958 0.18831 0.21406 0.0
Eu11 Eu 0.21152 0.19847 0.40222 0.0
N12 N 0.17776 0.15664 0.35871 0.0
C13 C 0.14113 0.10949 0.29832 0.0
C14 C 0.16967 0.1247 0.37896 0.0
C15 C 0.15175 0.10049 0.34873 0.0
H16 H 0.19608 0.27686 0.34519 0.0
H17 H 0.1462 0.07491 0.36426 0.0
H18 H 0.37289 0.17463 0.48653 0.0
H19 H 0.24367 0.32502 0.39794 0.0
H20 H 0.17832 0.11764 0.4178 0.0
H21 H 0.12699 0.09072 0.27511 0.0
H22 H 0.24941 0.26288 0.38564 0.0
H23 H 0.17087 0.29859 0.26235 0.0
H24 H 0.12128 0.13597 0.20517 0.0
H25 H 0.12835 0.1966 0.17732 0.0
H26 H 0.41513 0.20085 0.54821 0.0
H27 H 0.14613 0.25745 0.1991 0.0
H28 H 0.28851 0.35727 0.44705 0.0
N29 N 0.35018 0.22265 0.46647 0.0
C30 C 0.34912 0.2573 0.47424 0.0
C31 C 0.3968 0.21702 0.52757 0.0
C32 C 0.37234 0.27332 0.50938 0.0
C33 C 0.37307 0.20227 0.4927 0.0
C34 C 0.39659 0.25275 0.5357 0.0
N35 N 0.29984 0.25961 0.41879 0.0
C36 C 0.27065 0.27655 0.40286 0.0
C37 C 0.32011 0.31202 0.46044 0.0
C38 C 0.32336 0.27637 0.44961 0.0
C39 C 0.29192 0.32994 0.43957 0.0
C40 C 0.26668 0.31191 0.41162 0.0
H41 H 0.41483 0.26411 0.56304 0.0
H42 H 0.38788 0.32186 0.54471 0.0
H43 H 0.34209 0.35572 0.50201 0.0
O44 O 0.3639 0.21321 0.36994 0.0
O45 O 0.29221 0.20202 0.48565 0.0
O46 O 0.23924 0.22782 0.47114 0.0
O47 O 0.35059 0.15998 0.38626 0.0
O48 O 0.29662 0.22958 0.3305 0.0
O49 O 0.23772 0.21867 0.3248 0.0
O50 O 0.1622 0.18489 0.44003 0.0
O51 O 0.23448 0.14781 0.37355 0.0
O52 O 0.28496 0.16956 0.34051 0.0
O53 O 0.17722 0.23835 0.43404 0.0
O54 O 0.23308 0.15816 0.45835 0.0
O55 O 0.29271 0.15057 0.44552 0.0
C56 C 0.26535 0.21922 0.50298 0.0
C57 C 0.41103 0.17296 0.37626 0.0
C58 C 0.47195 0.1799 0.34975 0.0
C59 C 0.48043 0.15214 0.3833 0.0
C60 C 0.42056 0.14511 0.4086 0.0
C61 C 0.45498 0.13492 0.41207 0.0
C62 C 0.43688 0.19024 0.34677 0.0
C63 C 0.26718 0.23055 0.3045 0.0
C64 C 0.37394 0.18124 0.36792 0.0
C65 C 0.37012 0.30905 0.5181 0.0
C66 C 0.3441 0.32835 0.49367 0.0
C67 C 0.2627 0.14408 0.34592 0.0
C68 C 0.1162 0.22538 0.43329 0.0
C69 C 0.05459 0.2336 0.45499 0.0
C70 C 0.04774 0.23981 0.40184 0.0
C71 C 0.10771 0.23161 0.38087 0.0
C72 C 0.08925 0.22667 0.47082 0.0
C73 C 0.07404 0.23878 0.3653 0.0
C74 C 0.26234 0.14111 0.46574 0.0
C75 C 0.15272 0.21662 0.44788 0.0
H76 H 0.50692 0.14378 0.38808 0.0
H77 H 0.40136 0.13072 0.43068 0.0
H78 H 0.462 0.11339 0.43712 0.0
H79 H 0.4294 0.21089 0.32032 0.0
H80 H 0.02183 0.24583 0.38839 0.0
H81 H 0.12692 0.23103 0.35139 0.0
H82 H 0.09503 0.22173 0.51158 0.0
H83 H 0.0683 0.24358 0.32451 0.0
Eu84 Eu 0.19673 0.79773 0.64926 0.0
C85 C 0.27021 0.66916 0.58467 0.0
N86 N 0.23551 0.66383 0.58579 0.0
C87 C 0.24034 0.61834 0.52299 0.0
C88 C 0.29149 0.64888 0.55261 0.0
C89 C 0.22027 0.63924 0.55488 0.0
C90 C 0.27616 0.62295 0.5222 0.0
C91 C 0.3198 0.7046 0.6083 0.0
C92 C 0.28412 0.69657 0.61259 0.0
C93 C 0.3413 0.68352 0.57842 0.0
C94 C 0.32718 0.65572 0.55063 0.0
Eu95 Eu 0.20391 0.69613 0.64679 0.0
N96 N 0.26242 0.71715 0.63994 0.0
C97 C 0.33259 0.73457 0.63198 0.0
C98 C 0.27458 0.74793 0.65865 0.0
C99 C 0.30967 0.75679 0.65613 0.0
H100 H 0.19249 0.63608 0.55368 0.0
H101 H 0.31887 0.78123 0.67152 0.0
H102 H 0.27349 0.81745 0.70857 0.0
H103 H 0.07341 0.863 0.67439 0.0
H104 H 0.25727 0.76689 0.67205 0.0
H105 H 0.35971 0.74173 0.62934 0.0
H106 H 0.11718 0.82941 0.62679 0.0
H107 H 0.22812 0.59893 0.49864 0.0
H108 H 0.36872 0.68921 0.57514 0.0
H109 H 0.34392 0.64028 0.5265 0.0
H110 H 0.29346 0.84687 0.78858 0.0
H111 H 0.29164 0.60695 0.49701 0.0
H112 H 0.08671 0.88483 0.76276 0.0
N113 N 0.21993 0.8228 0.72601 0.0
C114 C 0.19621 0.83971 0.75564 0.0
C115 C 0.26605 0.84431 0.78039 0.0
C116 C 0.2066 0.85676 0.80173 0.0
C117 C 0.25468 0.82717 0.73553 0.0
C118 C 0.24186 0.85789 0.81469 0.0
N119 N 0.15425 0.83182 0.6882 0.0
C120 C 0.1231 0.83903 0.66533 0.0
C121 C 0.13849 0.86376 0.76442 0.0
C122 C 0.16258 0.84413 0.73627 0.0
C123 C 0.10588 0.86995 0.74221 0.0
C124 C 0.09832 0.85789 0.69219 0.0
H125 H 0.25083 0.8711 0.84943 0.0
H126 H 0.18951 0.88729 0.86711 0.0
H127 H 0.12978 0.89273 0.83508 0.0
O128 O 0.18476 0.84722 0.6103 0.0
O129 O 0.14748 0.77198 0.67962 0.0
O130 O 0.16062 0.71463 0.70067 0.0
O131 O 0.23774 0.83124 0.61658 0.0
O132 O 0.15483 0.77495 0.59516 0.0
O133 O 0.15533 0.71435 0.60399 0.0
O134 O 0.2189 0.64782 0.6877 0.0
O135 O 0.20479 0.71871 0.56575 0.0
O136 O 0.22817 0.77258 0.58199 0.0
O137 O 0.1734 0.64905 0.63936 0.0
O138 O 0.22116 0.71291 0.72647 0.0
O139 O 0.21369 0.77253 0.7288 0.0
C140 C 0.14001 0.74185 0.70205 0.0
C141 C 0.22727 0.89239 0.61587 0.0
C142 C 0.24176 0.95293 0.59299 0.0
C143 C 0.24765 0.95958 0.64617 0.0
C144 C 0.23191 0.90116 0.66835 0.0
C145 C 0.24247 0.934 0.6834 0.0
C146 C 0.23222 0.91879 0.57759 0.0
C147 C 0.14149 0.74363 0.5864 0.0
C148 C 0.21688 0.85609 0.60214 0.0
C149 C 0.18206 0.87456 0.83118 0.0
C150 C 0.14806 0.87784 0.81276 0.0
C151 C 0.22053 0.74701 0.54938 0.0
C152 C 0.17377 0.60654 0.70604 0.0
C153 C 0.1698 0.55124 0.75397 0.0
C154 C 0.13399 0.5572 0.75985 0.0
C155 C 0.13861 0.61234 0.71596 0.0
C156 C 0.18955 0.57603 0.72565 0.0
C157 C 0.11888 0.58764 0.7421 0.0
C158 C 0.22155 0.74247 0.75121 0.0
C159 C 0.19246 0.6303 0.67024 0.0
H160 H 0.25594 0.98497 0.65925 0.0
H161 H 0.22729 0.88294 0.69839 0.0
H162 H 0.24633 0.93972 0.72432 0.0
H163 H 0.22794 0.9131 0.53674 0.0
H164 H 0.11723 0.53823 0.77837 0.0
H165 H 0.12587 0.63541 0.70162 0.0
H166 H 0.2168 0.57172 0.71873 0.0
H167 H 0.09152 0.59184 0.74792 0.0
Eu168 Eu 0.70016 0.7988 0.40907 0.0
C169 C 0.85047 0.79403 0.30239 0.0
N170 N 0.82868 0.77462 0.33267 0.0
C171 C 0.84613 0.72294 0.28901 0.0
C172 C 0.86951 0.77855 0.26211 0.0
C173 C 0.82729 0.73939 0.32788 0.0
C174 C 0.86691 0.74265 0.25548 0.0
C175 C 0.87758 0.84968 0.28218 0.0
C176 C 0.855 0.82926 0.31292 0.0
C177 C 0.89514 0.83454 0.24051 0.0
C178 C 0.89128 0.79909 0.2307 0.0
Eu179 Eu 0.80213 0.80533 0.40065 0.0
N180 N 0.83874 0.84325 0.35451 0.0
C181 C 0.8825 0.88462 0.29493 0.0
C182 C 0.84428 0.87697 0.36821 0.0
C183 C 0.8659 0.89826 0.33832 0.0
H184 H 0.812 0.72402 0.35462 0.0
H185 H 0.86997 0.92506 0.349 0.0
H186 H 0.65036 0.82134 0.50691 0.0
H187 H 0.76324 0.67295 0.37251 0.0
H188 H 0.83199 0.88732 0.40233 0.0
H189 H 0.89957 0.90112 0.27213 0.0
H190 H 0.75539 0.73485 0.36231 0.0
H191 H 0.8447 0.69509 0.28503 0.0
H192 H 0.91246 0.84989 0.21636 0.0
H193 H 0.90576 0.78767 0.19921 0.0
H194 H 0.61554 0.79275 0.5761 0.0
H195 H 0.88137 0.72983 0.22524 0.0
H196 H 0.72769 0.64007 0.43572 0.0
N197 N 0.67132 0.77423 0.47991 0.0
C198 C 0.67289 0.7393 0.4848 0.0
C199 C 0.63154 0.77744 0.55075 0.0
C200 C 0.65361 0.72195 0.52375 0.0
C201 C 0.65126 0.79353 0.51188 0.0
C202 C 0.63258 0.74147 0.55657 0.0
N203 N 0.71454 0.73877 0.41662 0.0
C204 C 0.73881 0.72161 0.38853 0.0
C205 C 0.69945 0.68512 0.46067 0.0
C206 C 0.69545 0.72114 0.45301 0.0
C207 C 0.72372 0.66763 0.43075 0.0
C208 C 0.74374 0.68606 0.39498 0.0
H209 H 0.6175 0.72909 0.58707 0.0
H210 H 0.64227 0.67229 0.55977 0.0
H211 H 0.68245 0.64007 0.50478 0.0
O212 O 0.6514 0.77593 0.38182 0.0
O213 O 0.72645 0.7948 0.4886 0.0
O214 O 0.77452 0.76871 0.45822 0.0
O215 O 0.65243 0.82928 0.40455 0.0
O216 O 0.71741 0.78487 0.32757 0.0
O217 O 0.77753 0.787 0.3228 0.0
O218 O 0.8548 0.81685 0.43063 0.0
O219 O 0.77609 0.85535 0.37489 0.0
O220 O 0.71874 0.8419 0.35334 0.0
O221 O 0.82728 0.7715 0.45722 0.0
O222 O 0.77927 0.84696 0.45294 0.0
O223 O 0.71831 0.84693 0.45439 0.0
C224 C 0.75562 0.77879 0.49812 0.0
C225 C 0.61034 0.81167 0.34096 0.0
C226 C 0.55773 0.79845 0.29041 0.0
C227 C 0.56769 0.82377 0.25376 0.0
C228 C 0.61969 0.83663 0.30348 0.0
C229 C 0.59832 0.84276 0.2604 0.0
C230 C 0.57909 0.79265 0.33446 0.0
C231 C 0.74647 0.78276 0.30117 0.0
C232 C 0.63366 0.80411 0.38549 0.0
C233 C 0.65682 0.68604 0.53001 0.0
C234 C 0.67974 0.6677 0.4987 0.0
C235 C 0.74622 0.86268 0.35205 0.0
C236 C 0.88819 0.76638 0.44996 0.0
C237 C 0.94978 0.75353 0.46499 0.0
C238 C 0.94565 0.72362 0.43435 0.0
C239 C 0.88485 0.73461 0.424 0.0
C240 C 0.92095 0.77569 0.47113 0.0
C241 C 0.91343 0.7141 0.41475 0.0
C242 C 0.74913 0.85988 0.46807 0.0
C243 C 0.85687 0.78808 0.45717 0.0
H244 H 0.55168 0.8288 0.21975 0.0
H245 H 0.64366 0.85121 0.30727 0.0
H246 H 0.6057 0.86211 0.23172 0.0
H247 H 0.57185 0.77296 0.36282 0.0
H248 H 0.9673 0.70687 0.42647 0.0
H249 H 0.85992 0.72499 0.41185 0.0
H250 H 0.92356 0.79915 0.49376 0.0
H251 H 0.91042 0.6902 0.39333 0.0
Eu252 Eu 0.81474 0.30075 0.64276 0.0
C253 C 0.7456 0.16836 0.71401 0.0
N254 N 0.78042 0.16776 0.70917 0.0
C255 C 0.78508 0.12765 0.78034 0.0
C256 C 0.72888 0.14772 0.75203 0.0
C257 C 0.8004 0.14885 0.74242 0.0
C258 C 0.74906 0.12668 0.78467 0.0
C259 C 0.69111 0.19528 0.69189 0.0
C260 C 0.7271 0.19186 0.68398 0.0
C261 C 0.67401 0.17335 0.72749 0.0
C262 C 0.69286 0.14963 0.75753 0.0
Eu263 Eu 0.80461 0.19885 0.63957 0.0
N264 N 0.7447 0.21351 0.651 0.0
C265 C 0.67359 0.22178 0.66583 0.0
C266 C 0.72791 0.24131 0.6298 0.0
C267 C 0.69227 0.2454 0.6357 0.0
H268 H 0.82824 0.15097 0.74019 0.0
H269 H 0.6794 0.26734 0.61795 0.0
H270 H 0.73528 0.32549 0.60626 0.0
H271 H 0.93835 0.35778 0.58139 0.0
H272 H 0.74144 0.26165 0.61066 0.0
H273 H 0.64604 0.22533 0.67098 0.0
H274 H 0.8983 0.32784 0.64182 0.0
H275 H 0.80102 0.1124 0.80646 0.0
H276 H 0.64637 0.17544 0.73352 0.0
H277 H 0.67949 0.13372 0.78613 0.0
H278 H 0.7078 0.35843 0.53388 0.0
H279 H 0.73719 0.11051 0.81442 0.0
H280 H 0.91651 0.38075 0.49726 0.0
N281 N 0.7856 0.32871 0.57336 0.0
C282 C 0.80633 0.34408 0.53678 0.0
C283 C 0.73542 0.35407 0.53385 0.0
C284 C 0.79175 0.3626 0.49465 0.0
C285 C 0.7509 0.33536 0.5745 0.0
C286 C 0.75576 0.36664 0.49282 0.0
N287 N 0.85482 0.33207 0.59095 0.0
C288 C 0.88868 0.3375 0.60486 0.0
C289 C 0.86375 0.36356 0.5108 0.0
C290 C 0.84197 0.3454 0.5457 0.0
C291 C 0.89896 0.36712 0.52323 0.0
C292 C 0.91137 0.3544 0.57079 0.0
H293 H 0.74363 0.38103 0.46135 0.0
H294 H 0.80286 0.39268 0.42498 0.0
H295 H 0.8659 0.39284 0.4385 0.0
O296 O 0.83578 0.34773 0.67945 0.0
O297 O 0.86315 0.27353 0.61386 0.0
O298 O 0.84191 0.22224 0.5802 0.0
O299 O 0.78187 0.33573 0.68789 0.0
O300 O 0.85479 0.27418 0.69512 0.0
O301 O 0.85431 0.21382 0.68423 0.0
O302 O 0.78561 0.15001 0.60539 0.0
O303 O 0.80354 0.22211 0.72031 0.0
O304 O 0.77825 0.2743 0.7038 0.0
O305 O 0.83844 0.15408 0.63103 0.0
O306 O 0.78594 0.21927 0.56064 0.0
O307 O 0.79018 0.27918 0.566 0.0
C308 C 0.86657 0.24578 0.58487 0.0
C309 C 0.79777 0.39551 0.68518 0.0
C310 C 0.785 0.45464 0.71304 0.0
C311 C 0.78034 0.46436 0.66061 0.0
C312 C 0.79402 0.40675 0.63341 0.0
C313 C 0.78501 0.44057 0.62112 0.0
C314 C 0.79378 0.41999 0.72544 0.0
C315 C 0.86774 0.24289 0.70371 0.0
C316 C 0.80623 0.35863 0.69642 0.0
C317 C 0.81358 0.37882 0.45813 0.0
C318 C 0.84951 0.37906 0.46597 0.0
C319 C 0.7864 0.24903 0.73691 0.0
C320 C 0.81358 0.09702 0.62843 0.0
C321 C 0.79937 0.03614 0.61097 0.0
C322 C 0.8132 0.027 0.65975 0.0
C323 C 0.82978 0.08648 0.67508 0.0
C324 C 0.79885 0.07136 0.59576 0.0
C325 C 0.82842 0.05202 0.69145 0.0
C326 C 0.78286 0.25041 0.53984 0.0
C327 C 0.81475 0.13389 0.61112 0.0
H328 H 0.77401 0.49079 0.65005 0.0
H329 H 0.7985 0.3897 0.60209 0.0
H330 H 0.7821 0.44846 0.58073 0.0
H331 H 0.79735 0.41222 0.76579 0.0
H332 H 0.81418 1.00008 0.67186 0.0
H333 H 0.8445 0.10448 0.69841 0.0
H334 H 0.78862 0.07852 0.55777 0.0
H335 H 0.84058 0.04444 0.72787 0.0
Eu336 Eu 0.20245 0.30227 0.90935 0.0
C337 C 0.34613 0.38124 0.84338 0.0
N338 N 0.33074 0.35078 0.8306 0.0
C339 C 0.34501 0.36011 0.74064 0.0
C340 C 0.36023 0.40328 0.80481 0.0
C341 C 0.33146 0.33917 0.78041 0.0
C342 C 0.35885 0.39265 0.75273 0.0
C343 C 0.36861 0.4188 0.91098 0.0
C344 C 0.3503 0.38884 0.89554 0.0
C345 C 0.38065 0.44216 0.87277 0.0
C346 C 0.37651 0.43438 0.81972 0.0
Eu347 Eu 0.30499 0.31885 0.89963 0.0
N348 N 0.33914 0.36525 0.93111 0.0
C349 C 0.37564 0.42346 0.96412 0.0
C350 C 0.34811 0.36826 0.98242 0.0
C351 C 0.36607 0.39764 0.99986 0.0
H352 H 0.32101 0.31408 0.77082 0.0
H353 H 0.37235 0.40041 0.04081 0.0
H354 H 0.17928 0.33843 1.02254 0.0
H355 H 0.21526 0.16583 0.85707 0.0
H356 H 0.34048 0.34836 1.01007 0.0
H357 H 0.38957 0.44617 0.97768 0.0
H358 H 0.22541 0.22848 0.84659 0.0
H359 H 0.3448 0.35113 0.70074 0.0
H360 H 0.39438 0.46559 0.8838 0.0
H361 H 0.38711 0.45192 0.79064 0.0
H362 H 0.14897 0.31988 0.10286 0.0
H363 H 0.36948 0.40877 0.72189 0.0
H364 H 0.18256 0.14353 0.93305 0.0
N365 N 0.18095 0.28763 0.99154 0.0
C366 C 0.1725 0.25353 0.99762 0.0
C367 C 0.15573 0.30099 0.07375 0.0
C368 C 0.15503 0.24193 0.04261 0.0
C369 C 0.1732 0.31136 0.02862 0.0
C370 C 0.14619 0.26624 0.08037 0.0
N371 N 0.20009 0.2416 0.91704 0.0
C372 C 0.21176 0.21919 0.88038 0.0
C373 C 0.17511 0.19431 0.96622 0.0
C374 C 0.18202 0.22994 0.95925 0.0
C375 C 0.18718 0.17112 0.92889 0.0
C376 C 0.20579 0.1836 0.88604 0.0
H377 H 0.13168 0.25842 0.11442 0.0
H378 H 0.13326 0.19729 0.08263 0.0
H379 H 0.15133 0.15562 1.01643 0.0
O380 O 0.15989 0.2886 0.85542 0.0
O381 O 0.24148 0.27006 0.95776 0.0
O382 O 0.28531 0.30579 0.98204 0.0
O383 O 0.15031 0.32244 0.91985 0.0
O384 O 0.22214 0.29396 0.82751 0.0
O385 O 0.28137 0.28521 0.83258 0.0
O386 O 0.36052 0.30778 0.90662 0.0
O387 O 0.27402 0.35151 0.84099 0.0
O388 O 0.21857 0.35387 0.87494 0.0
O389 O 0.32314 0.2656 0.90552 0.0
O390 O 0.27884 0.35044 0.96387 0.0
O391 O 0.21923 0.3531 0.94848 0.0
C392 C 0.26208 0.28218 0.99469 0.0
C393 C 0.10275 0.28796 0.89075 0.0
C394 C 0.04497 0.26932 0.86102 0.0
C395 C 0.03862 0.25561 0.91102 0.0
C396 C 0.09473 0.27529 0.94072 0.0
C397 C 0.06328 0.25871 0.95048 0.0
C398 C 0.07739 0.28537 0.8509 0.0
C399 C 0.25159 0.28495 0.80618 0.0
C400 C 0.13655 0.30554 0.88107 0.0
C401 C 0.14694 0.20662 0.04851 0.0
C402 C 0.15712 0.18287 1.01065 0.0
C403 C 0.24371 0.36653 0.8458 0.0
C404 C 0.37663 0.25581 0.95227 0.0
C405 C 0.43292 0.2425 0.99514 0.0
C406 C 0.41645 0.21358 1.01873 0.0
C407 C 0.36148 0.22781 0.97913 0.0
C408 C 0.41239 0.26344 0.96105 0.0
C409 C 0.38127 0.20694 1.01174 0.0
C410 C 0.24842 0.36561 0.96884 0.0
C411 C 0.35577 0.27452 0.91176 0.0
H412 H 0.01392 0.24364 0.92028 0.0
H413 H 0.11228 0.27898 0.97286 0.0
H414 H 0.05764 0.24897 0.98924 0.0
H415 H 0.08269 0.29608 0.81254 0.0
H416 H 0.43059 0.19511 0.04218 0.0
H417 H 0.33439 0.2212 0.9738 0.0
H418 H 0.42396 0.28535 0.94097 0.0
H419 H 0.36938 0.18481 0.03091 0.0
Eu420 Eu 0.31573 0.80489 0.15201 0.0
C421 C 0.23945 0.68128 0.23139 0.0
N422 N 0.27395 0.67602 0.22678 0.0
C423 C 0.27273 0.63356 0.29508 0.0
C424 C 0.22013 0.66272 0.26897 0.0
C425 C 0.29088 0.65271 0.25757 0.0
C426 C 0.23717 0.6385 0.3007 0.0
C427 C 0.18837 0.71385 0.20721 0.0
C428 C 0.22377 0.70639 0.20013 0.0
C429 C 0.16887 0.69473 0.24361 0.0
C430 C 0.18468 0.66921 0.27431 0.0
Eu431 Eu 0.30154 0.70415 0.15776 0.0
N432 N 0.24343 0.72486 0.16543 0.0
C433 C 0.17375 0.74111 0.17885 0.0
C434 C 0.22947 0.75294 0.14056 0.0
C435 C 0.19459 0.76116 0.14621 0.0
H436 H 0.31834 0.64879 0.25263 0.0
H437 H 0.18398 0.78343 0.12606 0.0
H438 H 0.24247 0.8256 0.08473 0.0
H439 H 0.44598 0.85858 0.13241 0.0
H440 H 0.24508 0.77045 0.1186 0.0
H441 H 0.14675 0.74774 0.18344 0.0
H442 H 0.398 0.82822 0.17782 0.0
H443 H 0.28612 0.61499 0.31949 0.0
H444 H 0.14164 0.7 0.24912 0.0
H445 H 0.16938 0.65509 0.30281 0.0
H446 H 0.22736 0.85489 1.00162 0.0
H447 H 0.22318 0.62374 0.32999 0.0
H448 H 0.43626 0.88378 0.04461 0.0
N449 N 0.29686 0.83145 0.07376 0.0
C450 C 0.32254 0.84775 0.04637 0.0
C451 C 0.25418 0.85257 1.01338 0.0
C452 C 0.31491 0.86528 0.99928 0.0
C453 C 0.26278 0.83579 0.06006 0.0
C454 C 0.2804 0.86674 0.98233 0.0
N455 N 0.36221 0.83571 0.11554 0.0
C456 C 0.39372 0.8393 0.13946 0.0
C457 C 0.38245 0.86761 0.04081 0.0
C458 C 0.35597 0.84965 0.06761 0.0
C459 C 0.41525 0.87033 0.06418 0.0
C460 C 0.42083 0.8563 0.11386 0.0
H461 H 0.27358 0.88 0.9464 0.0
H462 H 0.33625 0.89521 0.93513 0.0
H463 H 0.39535 0.89676 0.97099 0.0
O464 O 0.33004 0.85326 0.19156 0.0
O465 O 0.3636 0.7758 0.12619 0.0
O466 O 0.34283 0.72188 0.10003 0.0
O467 O 0.27612 0.83977 0.18207 0.0
O468 O 0.35145 0.78001 0.21208 0.0
O469 O 0.35254 0.71954 0.20074 0.0
O470 O 0.27694 0.65544 0.13467 0.0
O471 O 0.30009 0.72858 0.23786 0.0
O472 O 0.27822 0.7804 0.21134 0.0
O473 O 0.33138 0.65604 0.14998 0.0
O474 O 0.28223 0.72198 0.07789 0.0
O475 O 0.29861 0.77986 0.07431 0.0
C476 C 0.36686 0.74642 0.10083 0.0
C477 C 0.29045 0.90001 0.18438 0.0
C478 C 0.27939 0.9602 0.20915 0.0
C479 C 0.2762 0.96895 0.15603 0.0
C480 C 0.2876 0.91017 0.13195 0.0
C481 C 0.28035 0.94411 0.11786 0.0
C482 C 0.28608 0.92536 0.2234 0.0
C483 C 0.36489 0.74903 0.22091 0.0
C484 C 0.29825 0.86333 0.19795 0.0
C485 C 0.34159 0.88205 0.97173 0.0
C486 C 0.37525 0.88304 0.99226 0.0
C487 C 0.28589 0.75834 0.24919 0.0
C488 C 0.30921 0.61469 0.08913 0.0
C489 C 0.30014 0.55849 0.04671 0.0
C490 C 0.3104 0.57358 0.99921 0.0
C491 C 0.31947 0.62899 0.04118 0.0
C492 C 0.29979 0.5792 0.09194 0.0
C493 C 0.3202 0.60847 0.99661 0.0
C494 C 0.28671 0.75127 0.05202 0.0
C495 C 0.305 0.63738 0.1348 0.0
H496 H 0.27053 0.99524 0.14391 0.0
H497 H 0.29094 0.89215 0.1014 0.0
H498 H 0.27809 0.95123 0.07706 0.0
H499 H 0.28857 0.91824 0.2642 0.0
H500 H 0.31113 0.55819 0.96407 0.0
H501 H 0.32632 0.6562 0.03807 0.0
H502 H 0.29148 0.568 0.12873 0.0
H503 H 0.32809 0.61973 0.95972 0.0
Eu504 Eu 0.8076 0.69561 0.90253 0.0
C505 C 0.6544 0.6959 0.81259 0.0
N506 N 0.67758 0.71792 0.8359 0.0
C507 C 0.65983 0.76431 0.7791 0.0
C508 C 0.63435 0.70721 0.76959 0.0
C509 C 0.67911 0.75225 0.82164 0.0
C510 C 0.63775 0.74162 0.75254 0.0
C511 C 0.62548 0.63957 0.80903 0.0
C512 C 0.64941 0.66239 0.83284 0.0
C513 C 0.60686 0.65045 0.76483 0.0
C514 C 0.61113 0.68417 0.74539 0.0
Eu515 Eu 0.70589 0.69367 0.90935 0.0
N516 N 0.66687 0.65241 0.87654 0.0
C517 C 0.62044 0.60652 0.83085 0.0
C518 C 0.66143 0.6206 0.89891 0.0
C519 C 0.63839 0.59707 0.87609 0.0
H520 H 0.69453 0.77036 0.84375 0.0
H521 H 0.63442 0.57172 0.89343 0.0
H522 H 0.86641 0.67367 0.99111 0.0
H523 H 0.73856 0.81983 0.87859 0.0
H524 H 0.67536 0.61335 0.93398 0.0
H525 H 0.6024 0.58828 0.81344 0.0
H526 H 0.74745 0.75818 0.86711 0.0
H527 H 0.66155 0.79125 0.7674 0.0
H528 H 0.58851 0.63318 0.74596 0.0
H529 H 0.59591 0.69235 0.71196 0.0
H530 H 0.90544 0.70248 0.0545 0.0
H531 H 0.62274 0.75116 0.71972 0.0
H532 H 0.77777 0.85309 0.93613 0.0
N533 N 0.84146 0.72029 0.96866 0.0
C534 C 0.83891 0.75501 0.97499 0.0
C535 C 0.88688 0.71753 0.03242 0.0
C536 C 0.86023 0.77236 1.01141 0.0
C537 C 0.86487 0.70134 0.9965 0.0
C538 C 0.88458 0.75321 0.03989 0.0
N539 N 0.79284 0.75528 0.91302 0.0
C540 C 0.7658 0.7719 0.88971 0.0
C541 C 0.80917 0.80868 0.95583 0.0
C542 C 0.81382 0.77295 0.94681 0.0
C543 C 0.78229 0.82578 0.93001 0.0
C544 C 0.76023 0.80716 0.89738 0.0
H545 H 0.90143 0.76565 0.06816 0.0
H546 H 0.87248 0.82179 0.0467 0.0
H547 H 0.82762 0.85352 0.99841 0.0
O548 O 0.85589 0.71545 0.86885 0.0
O549 O 0.78736 0.69853 0.98513 0.0
O550 O 0.73692 0.72696 0.96821 0.0
O551 O 0.85343 0.66279 0.89558 0.0
O552 O 0.7881 0.7138 0.82295 0.0
O553 O 0.72852 0.70663 0.8277 0.0
O554 O 0.65866 0.68339 0.95489 0.0
O555 O 0.72647 0.64394 0.87559 0.0
O556 O 0.7845 0.65253 0.8526 0.0
O557 O 0.67583 0.73607 0.94234 0.0
O558 O 0.72945 0.65321 0.96434 0.0
O559 O 0.78887 0.64644 0.94664 0.0
C560 C 0.76085 0.71639 1.00171 0.0
C561 C 0.89448 0.67672 0.8297 0.0
C562 C 0.95074 0.67725 0.78606 0.0
C563 C 0.93607 0.65786 0.74533 0.0
C564 C 0.88036 0.65761 0.78835 0.0
C565 C 0.90112 0.64823 0.74645 0.0
C566 C 0.92975 0.6868 0.82832 0.0
C567 C 0.75722 0.71325 0.80091 0.0
C568 C 0.87263 0.68668 0.874 0.0
C569 C 0.8563 0.80803 1.01893 0.0
C570 C 0.83079 0.82611 0.99135 0.0
C571 C 0.75506 0.6348 0.85157 0.0
C572 C 0.61458 0.72638 0.94932 0.0
C573 C 0.55367 0.7328 0.97461 0.0
C574 C 0.54607 0.74513 0.92424 0.0
C575 C 0.60579 0.74027 0.90037 0.0
C576 C 0.58812 0.72321 0.98724 0.0
C577 C 0.572 0.74895 0.88756 0.0
C578 C 0.75921 0.63643 0.96887 0.0
C579 C 0.65113 0.71597 0.96055 0.0
H580 H 0.95172 0.65025 0.7125 0.0
H581 H 0.8533 0.64994 0.78853 0.0
H582 H 0.89009 0.63339 0.71471 0.0
H583 H 0.9408 0.70177 0.86001 0.0
H584 H 0.52004 0.75287 0.91369 0.0
H585 H 0.62491 0.74532 0.87189 0.0
H586 H 0.59419 0.71347 0.02592 0.0
H587 H 0.56605 0.75931 0.84922 0.0
Eu588 Eu 0.68491 0.30197 0.14077 0.0
C589 C 0.75647 0.16512 0.05466 0.0
N590 N 0.72161 0.16557 0.06056 0.0
C591 C 0.71408 0.12552 0.9906 0.0
C592 C 0.77161 0.14454 1.01595 0.0
C593 C 0.70022 0.14656 0.02919 0.0
C594 C 0.74995 0.12423 0.98426 0.0
C595 C 0.81234 0.19131 0.07377 0.0
C596 C 0.77656 0.18822 0.08357 0.0
C597 C 0.82787 0.16936 0.03741 0.0
C598 C 0.80755 0.14605 1.00856 0.0
Eu599 Eu 0.70175 0.19524 0.13357 0.0
N600 N 0.76053 0.21001 0.11713 0.0
C601 C 0.83116 0.21754 0.09877 0.0
C602 C 0.7782 0.23756 0.13752 0.0
C603 C 0.81384 0.24124 0.1298 0.0
H604 H 0.67248 0.14742 0.03441 0.0
H605 H 0.82783 0.26273 0.1471 0.0
H606 H 0.7184 0.33069 0.25423 0.0
H607 H 0.57299 0.35116 0.03243 0.0
H608 H 0.76517 0.25733 0.15862 0.0
H609 H 0.85869 0.22078 0.09229 0.0
H610 H 0.6289 0.32167 0.04311 0.0
H611 H 0.69712 0.11028 0.96587 0.0
H612 H 0.85539 0.17116 0.02982 0.0
H613 H 0.81971 0.13023 0.97928 0.0
H614 H 0.70063 0.36602 0.3286 0.0
H615 H 0.76059 0.10816 0.95396 0.0
H616 H 0.54766 0.3826 0.10656 0.0
N617 N 0.67115 0.33737 0.2123 0.0
C618 C 0.64057 0.35427 0.20964 0.0
C619 C 0.68328 0.36261 0.29569 0.0
C620 C 0.62952 0.37516 0.25113 0.0
C621 C 0.69307 0.34218 0.25361 0.0
C622 C 0.65113 0.3788 0.29481 0.0
N623 N 0.63348 0.33311 0.12397 0.0
C624 C 0.61741 0.33397 0.07641 0.0
C625 C 0.58972 0.37012 0.15942 0.0
C626 C 0.62099 0.35181 0.16431 0.0
C627 C 0.57182 0.36896 0.11184 0.0
C628 C 0.58601 0.35122 0.06992 0.0
H629 H 0.64364 0.39473 0.3274 0.0
H630 H 0.58872 0.40835 0.27879 0.0
H631 H 0.5538 0.40387 0.19854 0.0
O632 O 0.69227 0.35255 0.10354 0.0
O633 O 0.64617 0.28028 0.19865 0.0
O634 O 0.66529 0.22788 0.17872 0.0
O635 O 0.73673 0.32565 0.13558 0.0
O636 O 0.65099 0.26991 0.08314 0.0
O637 O 0.64747 0.21149 0.1082 0.0
O638 O 0.71855 0.15022 0.18134 0.0
O639 O 0.70976 0.22025 0.05339 0.0
O640 O 0.70437 0.28004 0.06283 0.0
O641 O 0.67296 0.14632 0.13346 0.0
O642 O 0.72365 0.21622 0.20953 0.0
O643 O 0.71396 0.27623 0.21199 0.0
C644 C 0.64388 0.2469 0.20522 0.0
C645 C 0.73956 0.38821 0.12927 0.0
C646 C 0.75225 0.44987 0.11032 0.0
C647 C 0.76531 0.4531 0.16142 0.0
C648 C 0.75313 0.39257 0.17964 0.0
C649 C 0.76574 0.42478 0.19552 0.0
C650 C 0.73939 0.41702 0.09443 0.0
C651 C 0.634 0.23991 0.08698 0.0
C652 C 0.72545 0.35398 0.11262 0.0
C653 C 0.59777 0.39239 0.24717 0.0
C654 C 0.57788 0.38981 0.20147 0.0
C655 C 0.71207 0.25227 0.0351 0.0
C656 C 0.67881 0.1029 0.19987 0.0
C657 C 0.68071 0.04464 0.2397 0.0
C658 C 0.64684 0.0493 0.25765 0.0
C659 C 0.64438 0.10569 0.21641 0.0
C660 C 0.69703 0.07194 0.21153 0.0
C661 C 0.62889 0.07953 0.2461 0.0
C662 C 0.72499 0.24652 0.23339 0.0
C663 C 0.6939 0.12989 0.16462 0.0
H664 H 0.77593 0.47751 0.1749 0.0
H665 H 0.75423 0.37106 0.20678 0.0
H666 H 0.77618 0.42778 0.23451 0.0
H667 H 0.729 0.41393 0.05538 0.0
H668 H 0.63374 0.02884 0.27919 0.0
H669 H 0.62888 0.1275 0.20466 0.0
H670 H 0.72293 0.06842 0.19656 0.0
H671 H 0.60236 0.08217 0.25868 0.0
H672 H 0.23305 0.07943 0.3612 0.0
H673 H 0.30949 0.13461 0.26942 0.0
H674 H 0.32404 0.08173 0.22468 0.0
H675 H 0.31398 0.02073 0.20803 0.0
H676 H 0.23705 0.96386 0.29522 0.0
H677 H 0.22459 0.01597 0.3464 0.0
C678 C 0.25266 0.07985 0.33112 0.0
C679 C 0.26978 0.11123 0.31837 0.0
C680 C 0.26124 0.04892 0.30522 0.0
C681 C 0.29567 0.11108 0.28002 0.0
C682 C 0.30419 0.08075 0.25438 0.0
C683 C 0.29472 0.01962 0.23867 0.0
C684 C 0.27632 0.98862 0.24766 0.0
C685 C 0.28707 0.04967 0.26638 0.0
C686 C 0.25173 0.9874 0.28784 0.0
C687 C 0.24433 0.01731 0.31657 0.0
H688 H 0.11302 0.68641 0.75735 0.0
H689 H 0.08452 0.78466 0.68961 0.0
H690 H 0.02492 0.77546 0.71504 0.0
H691 H 0.979 0.7374 0.75038 0.0
H692 H 0.0057 0.63731 0.81247 0.0
H693 H 0.06718 0.64896 0.79533 0.0
C694 C 0.09388 0.70597 0.74854 0.0
C695 C 0.10397 0.73667 0.72225 0.0
C696 C 0.05888 0.69995 0.76208 0.0
C697 C 0.07835 0.7614 0.71109 0.0
C698 C 0.04384 0.75593 0.72513 0.0
C699 C 0.99846 0.71855 0.76114 0.0
C700 C 0.98804 0.68679 0.78338 0.0
C701 C 0.03364 0.72514 0.75004 0.0
C702 C 0.0133 0.66215 0.79606 0.0
C703 C 0.04839 0.66874 0.78592 0.0
H704 H 0.7036 0.88457 0.2729 0.0
H705 H 0.77829 0.92198 0.38506 0.0
H706 H 0.7675 0.98155 0.35761 0.0
H707 H 0.73341 0.02401 0.30536 0.0
H708 H 0.66027 0.98609 0.1915 0.0
H709 H 0.67433 0.92635 0.21476 0.0
C710 C 0.71778 0.90574 0.2909 0.0
C711 C 0.74165 0.89859 0.33117 0.0
C712 C 0.71187 0.94015 0.2742 0.0
C713 C 0.75992 0.92648 0.3538 0.0
C714 C 0.75368 0.96074 0.33817 0.0
C715 C 0.72138 0.00262 0.2847 0.0
C716 C 0.69602 0.00951 0.24637 0.0
C717 C 0.72941 0.96803 0.29873 0.0
C718 C 0.68011 0.98146 0.2207 0.0
C719 C 0.68792 0.94725 0.23433 0.0
H720 H 0.00404 0.21445 0.83448 0.0
H721 H 0.02076 0.3229 0.80127 0.0
H722 H 0.9673 0.3242 0.74949 0.0
H723 H 0.91395 0.29548 0.7193 0.0
H724 H 0.89743 0.18672 0.75138 0.0
H725 H 0.95257 0.18468 0.79874 0.0
C726 C 0.99617 0.23827 0.81535 0.0
C727 C 0.01632 0.26858 0.82187 0.0
C728 C 0.96521 0.23888 0.78629 0.0
C729 C 0.00598 0.29916 0.79646 0.0
C730 C 0.9752 0.29998 0.76736 0.0
C731 C 0.9223 0.27126 0.73661 0.0
C732 C 0.90122 0.24135 0.73236 0.0
C733 C 0.95425 0.27018 0.76302 0.0
C734 C 0.91292 0.21015 0.75435 0.0
C735 C 0.9445 0.20897 0.78133 0.0
H736 H 0.24354 0.52707 1.0036 0.0
H737 H 0.33676 0.50579 0.09041 0.0
H738 H 0.32745 0.44342 0.07865 0.0
H739 H 0.29528 0.39522 0.03681 0.0
H740 H 0.19953 0.41619 0.95689 0.0
H741 H 0.20683 0.478 0.97318 0.0
C742 C 0.2614 0.50866 1.02077 0.0
C743 C 0.29084 0.52096 0.04783 0.0
C744 C 0.25569 0.47278 1.01416 0.0
C745 C 0.31383 0.49691 0.0698 0.0
C746 C 0.30862 0.46126 0.0627 0.0
C747 C 0.27621 0.41332 1.02258 0.0
C748 C 0.24827 0.40115 0.99192 0.0
C749 C 0.2801 0.44891 0.0338 0.0
C750 C 0.22239 0.42483 0.97755 0.0
C751 C 0.2264 0.46029 0.98739 0.0
H752 H 0.49328 0.69801 0.96558 0.0
H753 H 0.54862 0.76845 0.06598 0.0
H754 H 0.49509 0.78007 0.11384 0.0
H755 H 0.43136 0.7735 0.1219 0.0
H756 H 0.3771 0.70215 1.02079 0.0
H757 H 0.43121 0.68801 0.9779 0.0
C758 C 0.49375 0.71513 0.99896 0.0
C759 C 0.52482 0.73212 1.01261 0.0
C760 C 0.46287 0.72219 0.02524 0.0
C761 C 0.52513 0.7546 0.05542 0.0
C762 C 0.49441 0.76165 0.08216 0.0
C763 C 0.43138 0.75496 0.09037 0.0
C764 C 0.40005 0.73914 0.07432 0.0
C765 C 0.4629 0.74629 0.06645 0.0
C766 C 0.40072 0.71474 0.03395 0.0
C767 C 0.4317 0.70652 1.00947 0.0
H768 H 0.73499 0.51636 0.1333 0.0
H769 H 0.77178 0.45376 1.007 0.0
H770 H 0.77926 0.50589 0.95267 0.0
H771 H 0.77682 0.57021 0.94213 0.0
H772 H 0.73766 0.63133 0.06828 0.0
H773 H 0.73061 0.5792 0.12201 0.0
C774 C 0.74473 0.514 0.09391 0.0
C775 C 0.7531 0.48098 0.07466 0.0
C776 C 0.74915 0.54408 0.06312 0.0
C777 C 0.76492 0.47863 1.02296 0.0
C778 C 0.76954 0.50856 0.992 0.0
C779 C 0.76723 0.572 0.98164 0.0
C780 C 0.75847 0.60467 1.00176 0.0
C781 C 0.76219 0.54155 1.0119 0.0
C782 C 0.74504 0.60657 0.05237 0.0
C783 C 0.74081 0.57673 0.08294 0.0
H784 H 0.59727 0.27128 1.00546 0.0
H785 H 0.5849 0.20531 0.14075 0.0
H786 H 0.52267 0.20473 0.1285 0.0
H787 H 0.47184 0.22248 0.08083 0.0
H788 H 0.48224 0.27877 0.9353 0.0
H789 H 0.54435 0.28531 0.95187 0.0
C790 C 0.58088 0.25685 0.03218 0.0
C791 C 0.59607 0.23883 0.0747 0.0
C792 C 0.5445 0.25519 1.02343 0.0
C793 C 0.57429 0.21972 0.10817 0.0
C794 C 0.53847 0.21935 0.10117 0.0
C795 C 0.48722 0.23518 0.0511 0.0
C796 C 0.47126 0.24911 1.00579 0.0
C797 C 0.52329 0.23679 0.05887 0.0
C798 C 0.49279 0.26756 0.97066 0.0
C799 C 0.52874 0.27103 0.97982 0.0
H800 H 0.80673 0.58727 0.85009 0.0
H801 H 0.7022 0.60535 0.7974 0.0
H802 H 0.70055 0.54867 0.75581 0.0
H803 H 0.73015 0.49572 0.72942 0.0
H804 H 0.83413 0.47638 0.7827 0.0
H805 H 0.83443 0.53119 0.83064 0.0
C806 C 0.78369 0.57875 0.8293 0.0
C807 C 0.75476 0.60062 0.82606 0.0
C808 C 0.78268 0.54571 0.80644 0.0
C809 C 0.72476 0.58901 0.80021 0.0
C810 C 0.7238 0.55659 0.77654 0.0
C811 C 0.75253 0.50318 0.75266 0.0
C812 C 0.78205 0.48214 0.75276 0.0
C813 C 0.75268 0.53489 0.77901 0.0
C814 C 0.81098 0.49198 0.78271 0.0
C815 C 0.8113 0.52354 0.8094 0.0
H816 H 0.58389 0.2768 0.23838 0.0
H817 H 0.63894 0.18049 0.23613 0.0
H818 H 0.58886 0.15022 0.27372 0.0
H819 H 0.53013 0.15134 0.30766 0.0
H820 H 0.47735 0.24893 0.32137 0.0
H821 H 0.52533 0.27829 0.27727 0.0
C822 C 0.58502 0.24927 0.24678 0.0
C823 C 0.61488 0.23057 0.23393 0.0
C824 C 0.55638 0.23226 0.26971 0.0
C825 C 0.61589 0.19498 0.2447 0.0
C826 C 0.58737 0.17781 0.26625 0.0
C827 C 0.52911 0.17914 0.30205 0.0
C828 C 0.49997 0.19773 0.3189 0.0
C829 C 0.55748 0.19619 0.27895 0.0
C830 C 0.49903 0.23362 0.30875 0.0
C831 C 0.52674 0.2506 0.28398 0.0
H832 H 0.22451 0.50911 0.72098 0.0
H833 H 0.15108 0.52178 0.84614 0.0
H834 H 0.16516 0.4654 0.88035 0.0
H835 H 0.19397 0.41102 0.87183 0.0
H836 H 0.27778 0.39995 0.7635 0.0
H837 H 0.26354 0.45676 0.72469 0.0
C838 C 0.21201 0.49984 0.75619 0.0
C839 C 0.18499 0.51931 0.77877 0.0
C840 C 0.22173 0.46744 0.77825 0.0
C841 C 0.17016 0.50688 0.82547 0.0
C842 C 0.17846 0.47459 0.8457 0.0
C843 C 0.21018 0.42118 0.84102 0.0
C844 C 0.23717 0.40109 0.82127 0.0
C845 C 0.20343 0.45437 0.8217 0.0
C846 C 0.25681 0.41473 0.77972 0.0
C847 C 0.24868 0.44731 0.75764 0.0
H848 H 0.49607 0.80254 0.34109 0.0
H849 H 0.54668 0.75056 0.21513 0.0
H850 H 0.49144 0.72477 0.18744 0.0
H851 H 0.42741 0.72304 0.19242 0.0
H852 H 0.37663 0.7799 0.31335 0.0
H853 H 0.43263 0.79693 0.35031 0.0
C854 C 0.49502 0.78482 0.30849 0.0
C855 C 0.52543 0.7781 0.28055 0.0
C856 C 0.46287 0.77103 0.29171 0.0
C857 C 0.52364 0.75577 0.23753 0.0
C858 C 0.49201 0.7412 0.22152 0.0
C859 C 0.42874 0.73817 0.22784 0.0
C860 C 0.39791 0.74976 0.25062 0.0
C861 C 0.46124 0.74935 0.24741 0.0
C862 C 0.4 0.77017 0.2957 0.0
C863 C 0.43206 0.78027 0.31649 0.0
H864 H 0.7381 1.00158 0.59213 0.0
H865 H 0.84592 0.00584 0.55018 0.0
H866 H 0.84003 0.95107 0.50396 0.0
H867 H 0.80587 0.90062 0.48128 0.0
H868 H 0.69682 0.89593 0.5163 0.0
H869 H 0.70152 0.95216 0.56008 0.0
C870 C 0.75989 0.99087 0.57148 0.0
C871 C 0.79232 0.00783 0.57374 0.0
C872 C 0.75628 0.95911 0.54487 0.0
C873 C 0.82065 0.99348 0.54796 0.0
C874 C 0.81737 0.96202 0.5221 0.0
C875 C 0.78287 0.91171 0.49802 0.0
C876 C 0.75106 0.89363 0.49578 0.0
C877 C 0.78555 0.9443 0.52131 0.0
C878 C 0.72173 0.90897 0.51781 0.0
C879 C 0.72439 0.94123 0.54261 0.0
H880 H 0.99234 0.20172 0.44408 0.0
H881 H 0.04886 0.26951 0.54724 0.0
H882 H 0.99565 0.27991 0.59686 0.0
H883 H 0.93174 0.27216 0.60723 0.0
H884 H 0.87667 0.20473 0.50104 0.0
H885 H 0.93035 0.19235 0.45599 0.0
C886 C 0.99316 0.21854 0.47778 0.0
C887 C 0.02461 0.2349 0.49174 0.0
C888 C 0.96244 0.22499 0.50506 0.0
C889 C 0.02517 0.2563 0.53588 0.0
C890 C 0.9946 0.26259 0.56382 0.0
C891 C 0.93146 0.25501 0.57394 0.0
C892 C 0.89988 0.23974 0.55728 0.0
C893 C 0.96284 0.24764 0.54807 0.0
C894 C 0.90033 0.21696 0.51478 0.0
C895 C 0.93112 0.20976 0.48894 0.0
H896 H 0.21344 0.01566 0.60412 0.0
H897 H 0.27841 0.95817 0.50056 0.0
H898 H 0.29255 0.01192 0.45244 0.0
H899 H 0.28873 0.07668 0.44386 0.0
H900 H 0.22513 0.132 0.55251 0.0
H901 H 0.20937 0.07798 0.59595 0.0
C902 C 0.23063 0.01477 0.57082 0.0
C903 C 0.24509 0.98298 0.55628 0.0
C904 C 0.23976 0.04569 0.54532 0.0
C905 C 0.26675 0.98224 0.51242 0.0
C906 C 0.27525 0.01308 0.48548 0.0
C907 C 0.27213 0.0768 0.47782 0.0
C908 C 0.25868 0.10842 0.49575 0.0
C909 C 0.26262 0.0452 0.50249 0.0
C910 C 0.23621 0.10812 0.53858 0.0
C911 C 0.2269 0.0772 0.56312 0.0
H912 H 0.0994 0.79601 0.54935 0.0
H913 H 0.10306 0.68502 0.57223 0.0
H914 H 0.04375 0.67959 0.54237 0.0
H915 H 0.99086 0.70528 0.5101 0.0
H916 H 0.98596 0.81516 0.4802 0.0
H917 H 0.04502 0.82218 0.51503 0.0
C918 C 0.08734 0.77062 0.54745 0.0
C919 C 0.10619 0.74099 0.56287 0.0
C920 C 0.05271 0.76745 0.5299 0.0
C921 C 0.08975 0.70836 0.56031 0.0
C922 C 0.05555 0.70515 0.54353 0.0
C923 C 0.0027 0.73085 0.51032 0.0
C924 C 0.98405 0.75952 0.49125 0.0
C925 C 0.03686 0.73442 0.52825 0.0
C926 C 0.99956 0.79255 0.49436 0.0
C927 C 0.03351 0.7965 0.51379 0.0
H928 H 0.29229 0.30807 0.08568 0.0
H929 H 0.23149 0.22179 0.0306 0.0
H930 H 0.22252 0.20174 0.1198 0.0
H931 H 0.23407 0.20666 0.21524 0.0
H932 H 0.30382 0.28652 0.26897 0.0
H933 H 0.30831 0.30987 0.18015 0.0
C934 C 0.27711 0.28481 0.09296 0.0
C935 C 0.26056 0.26795 0.05036 0.0
C936 C 0.27418 0.27173 0.14506 0.0
C937 C 0.2422 0.23714 0.06175 0.0
C938 C 0.23775 0.22506 0.11325 0.0
C939 C 0.24985 0.22948 0.20766 0.0
C940 C 0.26793 0.24519 0.24961 0.0
C941 C 0.25348 0.24212 0.15552 0.0
C942 C 0.28921 0.27404 0.23808 0.0
C943 C 0.29187 0.28743 0.18696 0.0
H944 H 0.23888 0.71259 0.99525 0.0
H945 H 0.31645 0.79267 0.97841 0.0
H946 H 0.30254 0.79865 0.88606 0.0
H947 H 0.27062 0.77869 0.80788 0.0
H948 H 0.19272 0.69927 0.82309 0.0
H949 H 0.20578 0.69377 0.91643 0.0
C950 C 0.25272 0.73134 0.97138 0.0
C951 C 0.2781 0.75294 0.99474 0.0
C952 C 0.24489 0.73428 0.91728 0.0
C953 C 0.2959 0.77672 0.96253 0.0
C954 C 0.28826 0.77983 0.90921 0.0
C955 C 0.25529 0.76156 0.83195 0.0
C956 C 0.22953 0.74075 0.80853 0.0
C957 C 0.26276 0.75883 0.88601 0.0
C958 C 0.21225 0.71615 0.84003 0.0
C959 C 0.21972 0.71299 0.89359 0.0
H960 H 0.79729 0.76099 0.23419 0.0
H961 H 0.6882 0.78198 0.23875 0.0
H962 H 0.68251 0.76549 0.14717 0.0
H963 H 0.70876 0.74393 0.06426 0.0
H964 H 0.81636 0.71547 0.0676 0.0
H965 H 0.82233 0.736 0.15569 0.0
C966 C 0.77223 0.76166 0.21574 0.0
C967 C 0.74343 0.7726 0.24449 0.0
C968 C 0.76886 0.75102 0.16324 0.0
C969 C 0.71111 0.77358 0.21844 0.0
C970 C 0.70776 0.76413 0.16565 0.0
C971 C 0.73353 0.74241 0.08414 0.0
C972 C 0.76245 0.72916 0.05732 0.0
C973 C 0.73649 0.75266 0.13735 0.0
C974 C 0.79391 0.72662 0.08519 0.0
C975 C 0.79735 0.73807 0.13651 0.0
H976 H 0.74393 0.29418 0.79582 0.0
H977 H 0.8039 0.20076 0.80962 0.0
H978 H 0.78425 0.19189 0.89757 0.0
H979 H 0.75156 0.21036 0.97346 0.0
H980 H 0.69682 0.30678 0.96844 0.0
H981 H 0.7134 0.31504 0.87681 0.0
C982 C 0.75272 0.2719 0.81796 0.0
C983 C 0.77448 0.24738 0.79357 0.0
C984 C 0.74253 0.26757 0.87141 0.0
C985 C 0.7859 0.21931 0.82471 0.0
C986 C 0.77504 0.21433 0.87614 0.0
C987 C 0.74295 0.23309 0.9526 0.0
C988 C 0.72249 0.25754 0.97863 0.0
C989 C 0.75334 0.23813 0.90008 0.0
C990 C 0.71249 0.28726 0.9501 0.0
C991 C 0.72199 0.29201 0.89728 0.0
H992 H 0.71035 0.75119 0.56936 0.0
H993 H 0.81725 0.78083 0.5539 0.0
H994 H 0.82782 0.76416 0.64498 0.0
H995 H 0.80582 0.74186 0.73132 0.0
H996 H 0.70146 0.70228 0.73762 0.0
H997 H 0.69054 0.72217 0.64927 0.0
C998 C 0.73613 0.75329 0.58503 0.0
C999 C 0.76295 0.76653 0.55326 0.0
C1000 C 0.74226 0.74247 0.63711 0.0
C1001 C 0.7961 0.76981 0.57604 0.0
C1002 C 0.80211 0.76055 0.62873 0.0
C1003 C 0.78071 0.73747 0.71341 0.0
C1004 C 0.75355 0.72254 0.74353 0.0
C1005 C 0.77532 0.74682 0.65998 0.0
C1006 C 0.72186 0.71613 0.71796 0.0
C1007 C 0.71584 0.72684 0.66647 0.0
H1008 H 0.80319 0.21687 0.45021 0.0
H1009 H 0.72756 0.28823 0.50593 0.0
H1010 H 0.70594 0.29751 0.41715 0.0
H1011 H 0.70646 0.28312 0.32236 0.0
H1012 H 0.77859 0.20711 0.26818 0.0
H1013 H 0.8025 0.20111 0.35614 0.0
C1014 C 0.78201 0.23451 0.4429 0.0
C1015 C 0.76839 0.25348 0.48503 0.0
C1016 C 0.76863 0.23853 0.39126 0.0
C1017 C 0.74037 0.27543 0.47434 0.0
C1018 C 0.7274 0.28006 0.42334 0.0
C1019 C 0.72795 0.26587 0.32943 0.0
C1020 C 0.74104 0.24622 0.28753 0.0
C1021 C 0.74137 0.26189 0.38113 0.0
C1022 C 0.76803 0.22294 0.29886 0.0
C1023 C 0.78178 0.21937 0.34953 0.0
H1024 H 0.30261 0.2573 0.74069 0.0
H1025 H 0.19504 0.28639 0.74116 0.0
H1026 H 0.18929 0.27027 0.65015 0.0
H1027 H 0.21431 0.24773 0.56756 0.0
H1028 H 0.32149 0.21748 0.56841 0.0
H1029 H 0.32747 0.23466 0.65863 0.0
C1030 C 0.27791 0.26037 0.72107 0.0
C1031 C 0.2495 0.27352 0.74928 0.0
C1032 C 0.27448 0.25095 0.66741 0.0
C1033 C 0.21772 0.27653 0.72186 0.0
C1034 C 0.21426 0.26731 0.66905 0.0
C1035 C 0.23905 0.24502 0.58725 0.0
C1036 C 0.26741 0.23136 0.55946 0.0
C1037 C 0.24242 0.25452 0.64096 0.0
C1038 C 0.29899 0.22799 0.58717 0.0
C1039 C 0.30256 0.23777 0.63963 0.0
H1040 H 0.27225 0.70924 0.32285 0.0
H1041 H 0.27237 0.81972 0.30054 0.0
H1042 H 0.25468 0.82726 0.39194 0.0
H1043 H 0.23826 0.80136 0.47974 0.0
H1044 H 0.2317 0.69013 0.49121 0.0
H1045 H 0.25246 0.68412 0.40404 0.0
C1046 C 0.26808 0.73505 0.33729 0.0
C1047 C 0.27353 0.76374 0.30409 0.0
C1048 C 0.25687 0.73908 0.38906 0.0
C1049 C 0.26813 0.79698 0.32471 0.0
C1050 C 0.2581 0.8013 0.37725 0.0
C1051 C 0.24168 0.77587 0.46327 0.0
C1052 C 0.23422 0.74609 0.49418 0.0
C1053 C 0.25231 0.77242 0.41019 0.0
C1054 C 0.23802 0.71351 0.47059 0.0
C1055 C 0.24972 0.70995 0.41973 0.0
loop_
_geom_bond_atom_site_label_1
_geom_bond_atom_site_label_2
_geom_bond_distance
_geom_bond_site_symmetry_2
_ccdc_geom_bond_type
Eu0 N29 2.600 . S
Eu0 N35 2.562 . S
Eu0 O44 2.462 . S
Eu0 O45 2.373 . S
Eu0 O47 2.432 . S
Eu0 O48 2.291 . S
Eu0 O52 2.335 . S
Eu0 O55 2.372 . S
Eu0 C64 2.787 . S
C1 N2 1.365 . S
C1 C4 1.405 . S
C1 C8 1.448 . S
N2 C1 1.365 . S
N2 C5 1.319 . S
N2 Eu11 2.600 . S
C3 C5 1.397 . S
C3 C6 1.367 . S
C3 H23 0.931 . S
C4 C1 1.405 . S
C4 C6 1.403 . S
C4 C10 1.439 . S
C5 N2 1.319 . S
C5 C3 1.397 . S
C5 H16 0.930 . S
C6 C3 1.367 . S
C6 C4 1.403 . S
C6 H27 0.929 . S
C7 C8 1.430 . S
C7 C9 1.387 . S
C7 C13 1.404 . S
C8 C1 1.448 . S
C8 C7 1.430 . S
C8 N12 1.351 . S
C9 C7 1.387 . S
C9 C10 1.374 . S
C9 H24 0.931 . S
C10 C4 1.439 . S
C10 C9 1.374 . S
C10 H25 0.931 . S
Eu11 N2 2.600 . S
Eu11 N12 2.562 . S
Eu11 O46 2.335 . S
Eu11 O49 2.372 . S
Eu11 O50 2.462 . S
Eu11 O51 2.373 . S
Eu11 O53 2.432 . S
Eu11 O54 2.291 . S
Eu11 C75 2.787 . S
N12 C8 1.351 . S
N12 Eu11 2.562 . S
N12 C14 1.325 . S
C13 C7 1.404 . S
C13 C15 1.366 . S
C13 H21 0.930 . S
C14 N12 1.325 . S
C14 C15 1.416 . S
C14 H20 0.929 . S
C15 C13 1.366 . S
C15 C14 1.416 . S
C15 H17 0.930 . S
H16 C5 0.930 . S
H17 C15 0.930 . S
H18 C33 0.930 . S
H19 C40 0.930 . S
H20 C14 0.929 . S
H21 C13 0.930 . S
H22 C36 0.929 . S
H23 C3 0.931 . S
H24 C9 0.931 . S
H25 C10 0.931 . S
H26 C31 0.931 . S
H27 C6 0.929 . S
H28 C39 0.930 . S
N29 Eu0 2.600 . S
N29 C30 1.365 . S
N29 C33 1.319 . S
C30 N29 1.365 . S
C30 C32 1.405 . S
C30 C38 1.448 . S
C31 H26 0.931 . S
C31 C33 1.397 . S
C31 C34 1.367 . S
C32 C30 1.405 . S
C32 C34 1.403 . S
C32 C65 1.439 . S
C33 H18 0.930 . S
C33 N29 1.319 . S
C33 C31 1.397 . S
C34 C31 1.367 . S
C34 C32 1.403 . S
C34 H41 0.929 . S
N35 Eu0 2.562 . S
N35 C36 1.325 . S
N35 C38 1.351 . S
C36 H22 0.929 . S
C36 N35 1.325 . S
C36 C40 1.416 . S
C37 C38 1.430 . S
C37 C39 1.404 . S
C37 C66 1.387 . S
C38 C30 1.448 . S
C38 N35 1.351 . S
C38 C37 1.430 . S
C39 H28 0.930 . S
C39 C37 1.404 . S
C39 C40 1.366 . S
C40 H19 0.930 . S
C40 C36 1.416 . S
C40 C39 1.366 . S
H41 C34 0.929 . S
H42 C65 0.931 . S
H43 C66 0.931 . S
O44 Eu0 2.462 . S
O44 C64 1.252 . S
O45 Eu0 2.373 . S
O45 C56 1.249 . S
O46 Eu11 2.335 . S
O46 C56 1.264 . S
O47 Eu0 2.432 . S
O47 C64 1.268 . S
O48 Eu0 2.291 . S
O48 C63 1.255 . S
O49 Eu11 2.372 . S
O49 C63 1.257 . S
O50 Eu11 2.462 . S
O50 C75 1.252 . S
O51 Eu11 2.373 . S
O51 C67 1.249 . S
O52 Eu0 2.335 . S
O52 C67 1.264 . S
O53 Eu11 2.432 . S
O53 C75 1.268 . S
O54 Eu11 2.291 . S
O54 C74 1.255 . S
O55 Eu0 2.372 . S
O55 C74 1.257 . S
C56 O45 1.249 . S
C56 O46 1.264 . S
C57 C60 1.382 . S
C57 C62 1.390 . S
C57 C64 1.506 . S
C58 C59 1.398 . S
C58 C62 1.392 . S
C59 C58 1.398 . S
C59 C61 1.372 . S
C59 H76 0.931 . S
C60 C57 1.382 . S
C60 C61 1.390 . S
C60 H77 0.931 . S
C61 C59 1.372 . S
C61 C60 1.390 . S
C61 H78 0.929 . S
C62 C57 1.390 . S
C62 C58 1.392 . S
C62 H79 0.930 . S
C63 O48 1.255 . S
C63 O49 1.257 . S
C64 Eu0 2.787 . S
C64 O44 1.252 . S
C64 O47 1.268 . S
C64 C57 1.506 . S
C65 C32 1.439 . S
C65 H42 0.931 . S
C65 C66 1.374 . S
C66 C37 1.387 . S
C66 H43 0.931 . S
C66 C65 1.374 . S
C67 O51 1.249 . S
C67 O52 1.264 . S
C68 C71 1.382 . S
C68 C72 1.390 . S
C68 C75 1.506 . S
C69 C70 1.398 . S
C69 C72 1.392 . S
C70 C69 1.398 . S
C70 C73 1.372 . S
C70 H80 0.931 . S
C71 C68 1.382 . S
C71 C73 1.390 . S
C71 H81 0.931 . S
C72 C68 1.390 . S
C72 C69 1.392 . S
C72 H82 0.930 . S
C73 C70 1.372 . S
C73 C71 1.390 . S
C73 H83 0.929 . S
C74 O54 1.255 . S
C74 O55 1.257 . S
C75 Eu11 2.787 . S
C75 O50 1.252 . S
C75 O53 1.268 . S
C75 C68 1.506 . S
H76 C59 0.931 . S
H77 C60 0.931 . S
H78 C61 0.929 . S
H79 C62 0.930 . S
H80 C70 0.931 . S
H81 C71 0.931 . S
H82 C72 0.930 . S
H83 C73 0.929 . S
Eu84 N113 2.600 . S
Eu84 N119 2.562 . S
Eu84 O128 2.462 . S
Eu84 O129 2.373 . S
Eu84 O131 2.432 . S
Eu84 O132 2.291 . S
Eu84 O136 2.335 . S
Eu84 O139 2.372 . S
Eu84 C148 2.787 . S
C85 N86 1.365 . S
C85 C88 1.405 . S
C85 C92 1.448 . S
N86 C85 1.365 . S
N86 C89 1.319 . S
N86 Eu95 2.600 . S
C87 C89 1.397 . S
C87 C90 1.367 . S
C87 H107 0.931 . S
C88 C85 1.405 . S
C88 C90 1.403 . S
C88 C94 1.439 . S
C89 N86 1.319 . S
C89 C87 1.397 . S
C89 H100 0.930 . S
C90 C87 1.367 . S
C90 C88 1.403 . S
C90 H111 0.929 . S
C91 C92 1.430 . S
C91 C93 1.387 . S
C91 C97 1.404 . S
C92 C85 1.448 . S
C92 C91 1.430 . S
C92 N96 1.351 . S
C93 C91 1.387 . S
C93 C94 1.374 . S
C93 H108 0.931 . S
C94 C88 1.439 . S
C94 C93 1.374 . S
C94 H109 0.931 . S
Eu95 N86 2.600 . S
Eu95 N96 2.562 . S
Eu95 O130 2.335 . S
Eu95 O133 2.372 . S
Eu95 O134 2.462 . S
Eu95 O135 2.373 . S
Eu95 O137 2.432 . S
Eu95 O138 2.291 . S
Eu95 C159 2.787 . S
N96 C92 1.351 . S
N96 Eu95 2.562 . S
N96 C98 1.325 . S
C97 C91 1.404 . S
C97 C99 1.366 . S
C97 H105 0.930 . S
C98 N96 1.325 . S
C98 C99 1.416 . S
C98 H104 0.929 . S
C99 C97 1.366 . S
C99 C98 1.416 . S
C99 H101 0.930 . S
H100 C89 0.930 . S
H101 C99 0.930 . S
H102 C117 0.930 . S
H103 C124 0.930 . S
H104 C98 0.929 . S
H105 C97 0.930 . S
H106 C120 0.929 . S
H107 C87 0.931 . S
H108 C93 0.931 . S
H109 C94 0.931 . S
H110 C115 0.931 . S
H111 C90 0.929 . S
H112 C123 0.930 . S
N113 Eu84 2.600 . S
N113 C114 1.365 . S
N113 C117 1.319 . S
C114 N113 1.365 . S
C114 C116 1.405 . S
C114 C122 1.448 . S
C115 H110 0.931 . S
C115 C117 1.397 . S
C115 C118 1.367 . S
C116 C114 1.405 . S
C116 C118 1.403 . S
C116 C149 1.439 . S
C117 H102 0.930 . S
C117 N113 1.319 . S
C117 C115 1.397 . S
C118 C115 1.367 . S
C118 C116 1.403 . S
C118 H125 0.929 . S
N119 Eu84 2.562 . S
N119 C120 1.325 . S
N119 C122 1.351 . S
C120 H106 0.929 . S
C120 N119 1.325 . S
C120 C124 1.416 . S
C121 C122 1.430 . S
C121 C123 1.404 . S
C121 C150 1.387 . S
C122 C114 1.448 . S
C122 N119 1.351 . S
C122 C121 1.430 . S
C123 H112 0.930 . S
C123 C121 1.404 . S
C123 C124 1.366 . S
C124 H103 0.930 . S
C124 C120 1.416 . S
C124 C123 1.366 . S
H125 C118 0.929 . S
H126 C149 0.931 . S
H127 C150 0.931 . S
O128 Eu84 2.462 . S
O128 C148 1.252 . S
O129 Eu84 2.373 . S
O129 C140 1.249 . S
O130 Eu95 2.335 . S
O130 C140 1.264 . S
O131 Eu84 2.432 . S
O131 C148 1.268 . S
O132 Eu84 2.291 . S
O132 C147 1.255 . S
O133 Eu95 2.372 . S
O133 C147 1.257 . S
O134 Eu95 2.462 . S
O134 C159 1.252 . S
O135 Eu95 2.373 . S
O135 C151 1.249 . S
O136 Eu84 2.335 . S
O136 C151 1.264 . S
O137 Eu95 2.432 . S
O137 C159 1.268 . S
O138 Eu95 2.291 . S
O138 C158 1.255 . S
O139 Eu84 2.372 . S
O139 C158 1.257 . S
C140 O129 1.249 . S
C140 O130 1.264 . S
C141 C144 1.382 . S
C141 C146 1.390 . S
C141 C148 1.506 . S
C142 C143 1.398 . S
C142 C146 1.392 . S
C143 C142 1.398 . S
C143 C145 1.372 . S
C143 H160 0.931 . S
C144 C141 1.382 . S
C144 C145 1.390 . S
C144 H161 0.931 . S
C145 C143 1.372 . S
C145 C144 1.390 . S
C145 H162 0.929 . S
C146 C141 1.390 . S
C146 C142 1.392 . S
C146 H163 0.930 . S
C147 O132 1.255 . S
C147 O133 1.257 . S
C148 Eu84 2.787 . S
C148 O128 1.252 . S
C148 O131 1.268 . S
C148 C141 1.506 . S
C149 C116 1.439 . S
C149 H126 0.931 . S
C149 C150 1.374 . S
C150 C121 1.387 . S
C150 H127 0.931 . S
C150 C149 1.374 . S
C151 O135 1.249 . S
C151 O136 1.264 . S
C152 C155 1.382 . S
C152 C156 1.390 . S
C152 C159 1.506 . S
C153 C154 1.398 . S
C153 C156 1.392 . S
C154 C153 1.398 . S
C154 C157 1.372 . S
C154 H164 0.931 . S
C155 C152 1.382 . S
C155 C157 1.390 . S
C155 H165 0.931 . S
C156 C152 1.390 . S
C156 C153 1.392 . S
C156 H166 0.930 . S
C157 C154 1.372 . S
C157 C155 1.390 . S
C157 H167 0.929 . S
C158 O138 1.255 . S
C158 O139 1.257 . S
C159 Eu95 2.787 . S
C159 O134 1.252 . S
C159 O137 1.268 . S
C159 C152 1.506 . S
H160 C143 0.931 . S
H161 C144 0.931 . S
H162 C145 0.929 . S
H163 C146 0.930 . S
H164 C154 0.931 . S
H165 C155 0.931 . S
H166 C156 0.930 . S
H167 C157 0.929 . S
Eu168 N197 2.600 . S
Eu168 N203 2.562 . S
Eu168 O212 2.462 . S
Eu168 O213 2.373 . S
Eu168 O215 2.432 . S
Eu168 O216 2.291 . S
Eu168 O220 2.335 . S
Eu168 O223 2.372 . S
Eu168 C232 2.787 . S
C169 N170 1.365 . S
C169 C172 1.405 . S
C169 C176 1.448 . S
N170 C169 1.365 . S
N170 C173 1.319 . S
N170 Eu179 2.600 . S
C171 C173 1.397 . S
C171 C174 1.367 . S
C171 H191 0.931 . S
C172 C169 1.405 . S
C172 C174 1.403 . S
C172 C178 1.439 . S
C173 N170 1.319 . S
C173 C171 1.397 . S
C173 H184 0.930 . S
C174 C171 1.367 . S
C174 C172 1.403 . S
C174 H195 0.929 . S
C175 C176 1.430 . S
C175 C177 1.387 . S
C175 C181 1.404 . S
C176 C169 1.448 . S
C176 C175 1.430 . S
C176 N180 1.351 . S
C177 C175 1.387 . S
C177 C178 1.374 . S
C177 H192 0.931 . S
C178 C172 1.439 . S
C178 C177 1.374 . S
C178 H193 0.931 . S
Eu179 N170 2.600 . S
Eu179 N180 2.562 . S
Eu179 O214 2.335 . S
Eu179 O217 2.372 . S
Eu179 O218 2.462 . S
Eu179 O219 2.373 . S
Eu179 O221 2.432 . S
Eu179 O222 2.291 . S
Eu179 C243 2.787 . S
N180 C176 1.351 . S
N180 Eu179 2.562 . S
N180 C182 1.325 . S
C181 C175 1.404 . S
C181 C183 1.366 . S
C181 H189 0.930 . S
C182 N180 1.325 . S
C182 C183 1.416 . S
C182 H188 0.929 . S
C183 C181 1.366 . S
C183 C182 1.416 . S
C183 H185 0.930 . S
H184 C173 0.930 . S
H185 C183 0.930 . S
H186 C201 0.930 . S
H187 C208 0.930 . S
H188 C182 0.929 . S
H189 C181 0.930 . S
H190 C204 0.929 . S
H191 C171 0.931 . S
H192 C177 0.931 . S
H193 C178 0.931 . S
H194 C199 0.931 . S
H195 C174 0.929 . S
H196 C207 0.930 . S
N197 Eu168 2.600 . S
N197 C198 1.365 . S
N197 C201 1.319 . S
C198 N197 1.365 . S
C198 C200 1.405 . S
C198 C206 1.448 . S
C199 H194 0.931 . S
C199 C201 1.397 . S
C199 C202 1.367 . S
C200 C198 1.405 . S
C200 C202 1.403 . S
C200 C233 1.439 . S
C201 H186 0.930 . S
C201 N197 1.319 . S
C201 C199 1.397 . S
C202 C199 1.367 . S
C202 C200 1.403 . S
C202 H209 0.929 . S
N203 Eu168 2.562 . S
N203 C204 1.325 . S
N203 C206 1.351 . S
C204 H190 0.929 . S
C204 N203 1.325 . S
C204 C208 1.416 . S
C205 C206 1.430 . S
C205 C207 1.404 . S
C205 C234 1.387 . S
C206 C198 1.448 . S
C206 N203 1.351 . S
C206 C205 1.430 . S
C207 H196 0.930 . S
C207 C205 1.404 . S
C207 C208 1.366 . S
C208 H187 0.930 . S
C208 C204 1.416 . S
C208 C207 1.366 . S
H209 C202 0.929 . S
H210 C233 0.931 . S
H211 C234 0.931 . S
O212 Eu168 2.462 . S
O212 C232 1.252 . S
O213 Eu168 2.373 . S
O213 C224 1.249 . S
O214 Eu179 2.335 . S
O214 C224 1.264 . S
O215 Eu168 2.432 . S
O215 C232 1.268 . S
O216 Eu168 2.291 . S
O216 C231 1.255 . S
O217 Eu179 2.372 . S
O217 C231 1.257 . S
O218 Eu179 2.462 . S
O218 C243 1.252 . S
O219 Eu179 2.373 . S
O219 C235 1.249 . S
O220 Eu168 2.335 . S
O220 C235 1.264 . S
O221 Eu179 2.432 . S
O221 C243 1.268 . S
O222 Eu179 2.291 . S
O222 C242 1.255 . S
O223 Eu168 2.372 . S
O223 C242 1.257 . S
C224 O213 1.249 . S
C224 O214 1.264 . S
C225 C228 1.382 . S
C225 C230 1.390 . S
C225 C232 1.506 . S
C226 C227 1.398 . S
C226 C230 1.392 . S
C227 C226 1.398 . S
C227 C229 1.372 . S
C227 H244 0.931 . S
C228 C225 1.382 . S
C228 C229 1.390 . S
C228 H245 0.931 . S
C229 C227 1.372 . S
C229 C228 1.390 . S
C229 H246 0.929 . S
C230 C225 1.390 . S
C230 C226 1.392 . S
C230 H247 0.930 . S
C231 O216 1.255 . S
C231 O217 1.257 . S
C232 Eu168 2.787 . S
C232 O212 1.252 . S
C232 O215 1.268 . S
C232 C225 1.506 . S
C233 C200 1.439 . S
C233 H210 0.931 . S
C233 C234 1.374 . S
C234 C205 1.387 . S
C234 H211 0.931 . S
C234 C233 1.374 . S
C235 O219 1.249 . S
C235 O220 1.264 . S
C236 C239 1.382 . S
C236 C240 1.390 . S
C236 C243 1.506 . S
C237 C238 1.398 . S
C237 C240 1.392 . S
C238 C237 1.398 . S
C238 C241 1.372 . S
C238 H248 0.931 . S
C239 C236 1.382 . S
C239 C241 1.390 . S
C239 H249 0.931 . S
C240 C236 1.390 . S
C240 C237 1.392 . S
C240 H250 0.930 . S
C241 C238 1.372 . S
C241 C239 1.390 . S
C241 H251 0.929 . S
C242 O222 1.255 . S
C242 O223 1.257 . S
C243 Eu179 2.787 . S
C243 O218 1.252 . S
C243 O221 1.268 . S
C243 C236 1.506 . S
H244 C227 0.931 . S
H245 C228 0.931 . S
H246 C229 0.929 . S
H247 C230 0.930 . S
H248 C238 0.931 . S
H249 C239 0.931 . S
H250 C240 0.930 . S
H251 C241 0.929 . S
Eu252 N281 2.600 . S
Eu252 N287 2.562 . S
Eu252 O296 2.462 . S
Eu252 O297 2.373 . S
Eu252 O299 2.432 . S
Eu252 O300 2.291 . S
Eu252 O304 2.335 . S
Eu252 O307 2.372 . S
Eu252 C316 2.787 . S
C253 N254 1.365 . S
C253 C256 1.405 . S
C253 C260 1.448 . S
N254 C253 1.365 . S
N254 C257 1.319 . S
N254 Eu263 2.600 . S
C255 C257 1.397 . S
C255 C258 1.367 . S
C255 H275 0.931 . S
C256 C253 1.405 . S
C256 C258 1.403 . S
C256 C262 1.439 . S
C257 N254 1.319 . S
C257 C255 1.397 . S
C257 H268 0.930 . S
C258 C255 1.367 . S
C258 C256 1.403 . S
C258 H279 0.929 . S
C259 C260 1.430 . S
C259 C261 1.387 . S
C259 C265 1.404 . S
C260 C253 1.448 . S
C260 C259 1.430 . S
C260 N264 1.351 . S
C261 C259 1.387 . S
C261 C262 1.374 . S
C261 H276 0.931 . S
C262 C256 1.439 . S
C262 C261 1.374 . S
C262 H277 0.931 . S
Eu263 N254 2.600 . S
Eu263 N264 2.562 . S
Eu263 O298 2.335 . S
Eu263 O301 2.372 . S
Eu263 O302 2.462 . S
Eu263 O303 2.373 . S
Eu263 O305 2.432 . S
Eu263 O306 2.291 . S
Eu263 C327 2.787 . S
N264 C260 1.351 . S
N264 Eu263 2.562 . S
N264 C266 1.325 . S
C265 C259 1.404 . S
C265 C267 1.366 . S
C265 H273 0.930 . S
C266 N264 1.325 . S
C266 C267 1.416 . S
C266 H272 0.929 . S
C267 C265 1.366 . S
C267 C266 1.416 . S
C267 H269 0.930 . S
H268 C257 0.930 . S
H269 C267 0.930 . S
H270 C285 0.930 . S
H271 C292 0.930 . S
H272 C266 0.929 . S
H273 C265 0.930 . S
H274 C288 0.929 . S
H275 C255 0.931 . S
H276 C261 0.931 . S
H277 C262 0.931 . S
H278 C283 0.931 . S
H279 C258 0.929 . S
H280 C291 0.930 . S
N281 Eu252 2.600 . S
N281 C282 1.365 . S
N281 C285 1.319 . S
C282 N281 1.365 . S
C282 C284 1.405 . S
C282 C290 1.448 . S
C283 H278 0.931 . S
C283 C285 1.397 . S
C283 C286 1.367 . S
C284 C282 1.405 . S
C284 C286 1.403 . S
C284 C317 1.439 . S
C285 H270 0.930 . S
C285 N281 1.319 . S
C285 C283 1.397 . S
C286 C283 1.367 . S
C286 C284 1.403 . S
C286 H293 0.929 . S
N287 Eu252 2.562 . S
N287 C288 1.325 . S
N287 C290 1.351 . S
C288 H274 0.929 . S
C288 N287 1.325 . S
C288 C292 1.416 . S
C289 C290 1.430 . S
C289 C291 1.404 . S
C289 C318 1.387 . S
C290 C282 1.448 . S
C290 N287 1.351 . S
C290 C289 1.430 . S
C291 H280 0.930 . S
C291 C289 1.404 . S
C291 C292 1.366 . S
C292 H271 0.930 . S
C292 C288 1.416 . S
C292 C291 1.366 . S
H293 C286 0.929 . S
H294 C317 0.931 . S
H295 C318 0.931 . S
O296 Eu252 2.462 . S
O296 C316 1.252 . S
O297 Eu252 2.373 . S
O297 C308 1.249 . S
O298 Eu263 2.335 . S
O298 C308 1.264 . S
O299 Eu252 2.432 . S
O299 C316 1.268 . S
O300 Eu252 2.291 . S
O300 C315 1.255 . S
O301 Eu263 2.372 . S
O301 C315 1.257 . S
O302 Eu263 2.462 . S
O302 C327 1.252 . S
O303 Eu263 2.373 . S
O303 C319 1.249 . S
O304 Eu252 2.335 . S
O304 C319 1.264 . S
O305 Eu263 2.432 . S
O305 C327 1.268 . S
O306 Eu263 2.291 . S
O306 C326 1.255 . S
O307 Eu252 2.372 . S
O307 C326 1.257 . S
C308 O297 1.249 . S
C308 O298 1.264 . S
C309 C312 1.382 . S
C309 C314 1.390 . S
C309 C316 1.506 . S
C310 C311 1.398 . S
C310 C314 1.392 . S
C311 C310 1.398 . S
C311 C313 1.372 . S
C311 H328 0.931 . S
C312 C309 1.382 . S
C312 C313 1.390 . S
C312 H329 0.931 . S
C313 C311 1.372 . S
C313 C312 1.390 . S
C313 H330 0.929 . S
C314 C309 1.390 . S
C314 C310 1.392 . S
C314 H331 0.930 . S
C315 O300 1.255 . S
C315 O301 1.257 . S
C316 Eu252 2.787 . S
C316 O296 1.252 . S
C316 O299 1.268 . S
C316 C309 1.506 . S
C317 C284 1.439 . S
C317 H294 0.931 . S
C317 C318 1.374 . S
C318 C289 1.387 . S
C318 H295 0.931 . S
C318 C317 1.374 . S
C319 O303 1.249 . S
C319 O304 1.264 . S
C320 C323 1.382 . S
C320 C324 1.390 . S
C320 C327 1.506 . S
C321 C322 1.398 . S
C321 C324 1.392 . S
C322 C321 1.398 . S
C322 C325 1.372 . S
C322 H332 0.931 . S
C323 C320 1.382 . S
C323 C325 1.390 . S
C323 H333 0.931 . S
C324 C320 1.390 . S
C324 C321 1.392 . S
C324 H334 0.930 . S
C325 C322 1.372 . S
C325 C323 1.390 . S
C325 H335 0.929 . S
C326 O306 1.255 . S
C326 O307 1.257 . S
C327 Eu263 2.787 . S
C327 O302 1.252 . S
C327 O305 1.268 . S
C327 C320 1.506 . S
H328 C311 0.931 . S
H329 C312 0.931 . S
H330 C313 0.929 . S
H331 C314 0.930 . S
H332 C322 0.931 . S
H333 C323 0.931 . S
H334 C324 0.930 . S
H335 C325 0.929 . S
Eu336 N365 2.600 . S
Eu336 N371 2.562 . S
Eu336 O380 2.462 . S
Eu336 O381 2.373 . S
Eu336 O383 2.432 . S
Eu336 O384 2.291 . S
Eu336 O388 2.335 . S
Eu336 O391 2.372 . S
Eu336 C400 2.787 . S
C337 N338 1.365 . S
C337 C340 1.405 . S
C337 C344 1.448 . S
N338 C337 1.365 . S
N338 C341 1.319 . S
N338 Eu347 2.600 . S
C339 C341 1.397 . S
C339 C342 1.367 . S
C339 H359 0.931 . S
C340 C337 1.405 . S
C340 C342 1.403 . S
C340 C346 1.439 . S
C341 N338 1.319 . S
C341 C339 1.397 . S
C341 H352 0.930 . S
C342 C339 1.367 . S
C342 C340 1.403 . S
C342 H363 0.929 . S
C343 C344 1.430 . S
C343 C345 1.387 . S
C343 C349 1.404 . S
C344 C337 1.448 . S
C344 C343 1.430 . S
C344 N348 1.351 . S
C345 C343 1.387 . S
C345 C346 1.374 . S
C345 H360 0.931 . S
C346 C340 1.439 . S
C346 C345 1.374 . S
C346 H361 0.931 . S
Eu347 N338 2.600 . S
Eu347 N348 2.562 . S
Eu347 O382 2.335 . S
Eu347 O385 2.372 . S
Eu347 O386 2.462 . S
Eu347 O387 2.373 . S
Eu347 O389 2.432 . S
Eu347 O390 2.291 . S
Eu347 C411 2.787 . S
N348 C344 1.351 . S
N348 Eu347 2.562 . S
N348 C350 1.325 . S
C349 C343 1.404 . S
C349 C351 1.366 . S
C349 H357 0.930 . S
C350 N348 1.325 . S
C350 C351 1.416 . S
C350 H356 0.929 . S
C351 C349 1.366 . S
C351 C350 1.416 . S
C351 H353 0.930 . S
H352 C341 0.930 . S
H353 C351 0.930 . S
H354 C369 0.930 1_556 S
H355 C376 0.930 . S
H356 C350 0.929 . S
H357 C349 0.930 . S
H358 C372 0.929 . S
H359 C339 0.931 . S
H360 C345 0.931 . S
H361 C346 0.931 . S
H362 C367 0.931 . S
H363 C342 0.929 . S
H364 C375 0.930 . S
N365 Eu336 2.600 . S
N365 C366 1.360 1_556 S
N365 C369 1.319 1_556 S
C366 N365 1.360 1_554 S
C366 C368 1.417 . S
C366 C374 1.440 1_554 S
C367 H362 0.931 . S
C367 C369 1.397 . S
C367 C370 1.367 . S
C368 C366 1.417 . S
C368 C370 1.403 . S
C368 C401 1.439 . S
C369 H354 0.930 1_554 S
C369 N365 1.319 1_554 S
C369 C367 1.397 . S
C370 C367 1.367 . S
C370 C368 1.403 . S
C370 H377 0.929 . S
N371 Eu336 2.562 . S
N371 C372 1.325 . S
N371 C374 1.351 . S
C372 H358 0.929 . S
C372 N371 1.325 . S
C372 C376 1.416 . S
C373 C374 1.430 . S
C373 C375 1.404 . S
C373 C402 1.387 1_556 S
C374 C366 1.440 1_556 S
C374 N371 1.351 . S
C374 C373 1.430 . S
C375 H364 0.930 . S
C375 C373 1.404 . S
C375 C376 1.366 . S
C376 H355 0.930 . S
C376 C372 1.416 . S
C376 C375 1.366 . S
H377 C370 0.929 . S
H378 C401 0.931 . S
H379 C402 0.931 . S
O380 Eu336 2.462 . S
O380 C400 1.252 . S
O381 Eu336 2.373 . S
O381 C392 1.249 . S
O382 Eu347 2.335 . S
O382 C392 1.264 . S
O383 Eu336 2.432 . S
O383 C400 1.268 . S
O384 Eu336 2.291 . S
O384 C399 1.255 . S
O385 Eu347 2.372 . S
O385 C399 1.257 . S
O386 Eu347 2.462 . S
O386 C411 1.252 . S
O387 Eu347 2.373 . S
O387 C403 1.249 . S
O388 Eu336 2.335 . S
O388 C403 1.264 . S
O389 Eu347 2.432 . S
O389 C411 1.268 . S
O390 Eu347 2.291 . S
O390 C410 1.255 . S
O391 Eu336 2.372 . S
O391 C410 1.257 . S
C392 O381 1.249 . S
C392 O382 1.264 . S
C393 C396 1.382 . S
C393 C398 1.390 . S
C393 C400 1.506 . S
C394 C395 1.398 . S
C394 C398 1.392 . S
C395 C394 1.398 . S
C395 C397 1.372 . S
C395 H412 0.931 . S
C396 C393 1.382 . S
C396 C397 1.390 . S
C396 H413 0.931 . S
C397 C395 1.372 . S
C397 C396 1.390 . S
C397 H414 0.929 . S
C398 C393 1.390 . S
C398 C394 1.392 . S
C398 H415 0.930 . S
C399 O384 1.255 . S
C399 O385 1.257 . S
C400 Eu336 2.787 . S
C400 O380 1.252 . S
C400 O383 1.268 . S
C400 C393 1.506 . S
C401 C368 1.439 . S
C401 H378 0.931 . S
C401 C402 1.374 . S
C402 C373 1.387 1_554 S
C402 H379 0.931 . S
C402 C401 1.374 . S
C403 O387 1.249 . S
C403 O388 1.264 . S
C404 C407 1.382 . S
C404 C408 1.390 . S
C404 C411 1.506 . S
C405 C406 1.398 . S
C405 C408 1.392 . S
C406 C405 1.398 . S
C406 C409 1.372 . S
C406 H416 0.931 . S
C407 C404 1.382 . S
C407 C409 1.390 . S
C407 H417 0.931 . S
C408 C404 1.390 . S
C408 C405 1.392 . S
C408 H418 0.930 . S
C409 C406 1.372 . S
C409 C407 1.390 . S
C409 H419 0.929 . S
C410 O390 1.255 . S
C410 O391 1.257 . S
C411 Eu347 2.787 . S
C411 O386 1.252 . S
C411 O389 1.268 . S
C411 C404 1.506 . S
H412 C395 0.931 . S
H413 C396 0.931 . S
H414 C397 0.929 . S
H415 C398 0.930 . S
H416 C406 0.931 . S
H417 C407 0.931 . S
H418 C408 0.930 . S
H419 C409 0.929 . S
Eu420 N449 2.600 . S
Eu420 N455 2.562 . S
Eu420 O464 2.462 . S
Eu420 O465 2.373 . S
Eu420 O467 2.432 . S
Eu420 O468 2.291 . S
Eu420 O472 2.335 . S
Eu420 O475 2.372 . S
Eu420 C484 2.787 . S
C421 N422 1.365 . S
C421 C424 1.405 . S
C421 C428 1.448 . S
N422 C421 1.365 . S
N422 C425 1.319 . S
N422 Eu431 2.600 . S
C423 C425 1.397 . S
C423 C426 1.367 . S
C423 H443 0.931 . S
C424 C421 1.405 . S
C424 C426 1.403 . S
C424 C430 1.439 . S
C425 N422 1.319 . S
C425 C423 1.397 . S
C425 H436 0.930 . S
C426 C423 1.367 . S
C426 C424 1.403 . S
C426 H447 0.929 . S
C427 C428 1.430 . S
C427 C429 1.387 . S
C427 C433 1.404 . S
C428 C421 1.448 . S
C428 C427 1.430 . S
C428 N432 1.351 . S
C429 C427 1.387 . S
C429 C430 1.374 . S
C429 H444 0.931 . S
C430 C424 1.439 . S
C430 C429 1.374 . S
C430 H445 0.931 . S
Eu431 N422 2.600 . S
Eu431 N432 2.562 . S
Eu431 O466 2.335 . S
Eu431 O469 2.372 . S
Eu431 O470 2.462 . S
Eu431 O471 2.373 . S
Eu431 O473 2.432 . S
Eu431 O474 2.291 . S
Eu431 C495 2.787 . S
N432 C428 1.351 . S
N432 Eu431 2.562 . S
N432 C434 1.325 . S
C433 C427 1.404 . S
C433 C435 1.366 . S
C433 H441 0.930 . S
C434 N432 1.325 . S
C434 C435 1.416 . S
C434 H440 0.929 . S
C435 C433 1.366 . S
C435 C434 1.416 . S
C435 H437 0.930 . S
H436 C425 0.930 . S
H437 C435 0.930 . S
H438 C453 0.930 1_554 S
H439 C460 0.930 . S
H440 C434 0.929 . S
H441 C433 0.930 . S
H442 C456 0.929 . S
H443 C423 0.931 . S
H444 C429 0.931 . S
H445 C430 0.931 . S
H446 C451 0.931 . S
H447 C426 0.929 . S
H448 C459 0.930 . S
N449 Eu420 2.600 . S
N449 C450 1.365 1_554 S
N449 C453 1.319 1_554 S
C450 N449 1.365 1_556 S
C450 C452 1.405 . S
C450 C458 1.448 1_556 S
C451 H446 0.931 . S
C451 C453 1.397 . S
C451 C454 1.367 . S
C452 C450 1.405 . S
C452 C454 1.403 . S
C452 C485 1.439 . S
C453 H438 0.930 1_556 S
C453 N449 1.319 1_556 S
C453 C451 1.397 . S
C454 C451 1.367 . S
C454 C452 1.403 . S
C454 H461 0.929 . S
N455 Eu420 2.562 . S
N455 C456 1.325 . S
N455 C458 1.351 . S
C456 H442 0.929 . S
C456 N455 1.325 . S
C456 C460 1.416 . S
C457 C458 1.430 . S
C457 C459 1.404 . S
C457 C486 1.387 1_554 S
C458 C450 1.448 1_554 S
C458 N455 1.351 . S
C458 C457 1.430 . S
C459 H448 0.930 . S
C459 C457 1.404 . S
C459 C460 1.366 . S
C460 H439 0.930 . S
C460 C456 1.416 . S
C460 C459 1.366 . S
H461 C454 0.929 . S
H462 C485 0.931 . S
H463 C486 0.931 . S
O464 Eu420 2.462 . S
O464 C484 1.252 . S
O465 Eu420 2.373 . S
O465 C476 1.249 . S
O466 Eu431 2.335 . S
O466 C476 1.264 . S
O467 Eu420 2.432 . S
O467 C484 1.268 . S
O468 Eu420 2.291 . S
O468 C483 1.255 . S
O469 Eu431 2.372 . S
O469 C483 1.257 . S
O470 Eu431 2.462 . S
O470 C495 1.252 . S
O471 Eu431 2.373 . S
O471 C487 1.249 . S
O472 Eu420 2.335 . S
O472 C487 1.264 . S
O473 Eu431 2.432 . S
O473 C495 1.268 . S
O474 Eu431 2.291 . S
O474 C494 1.255 . S
O475 Eu420 2.372 . S
O475 C494 1.257 . S
C476 O465 1.249 . S
C476 O466 1.264 . S
C477 C480 1.382 . S
C477 C482 1.390 . S
C477 C484 1.506 . S
C478 C479 1.398 . S
C478 C482 1.392 . S
C479 C478 1.398 . S
C479 C481 1.372 . S
C479 H496 0.931 . S
C480 C477 1.382 . S
C480 C481 1.390 . S
C480 H497 0.931 . S
C481 C479 1.372 . S
C481 C480 1.390 . S
C481 H498 0.929 . S
C482 C477 1.390 . S
C482 C478 1.392 . S
C482 H499 0.930 . S
C483 O468 1.255 . S
C483 O469 1.257 . S
C484 Eu420 2.787 . S
C484 O464 1.252 . S
C484 O467 1.268 . S
C484 C477 1.506 . S
C485 C452 1.439 . S
C485 H462 0.931 . S
C485 C486 1.374 . S
C486 C457 1.387 1_556 S
C486 H463 0.931 . S
C486 C485 1.374 . S
C487 O471 1.249 . S
C487 O472 1.264 . S
C488 C491 1.382 . S
C488 C492 1.390 . S
C488 C495 1.506 . S
C489 C490 1.398 . S
C489 C492 1.392 . S
C490 C489 1.398 . S
C490 C493 1.372 . S
C490 H500 0.931 . S
C491 C488 1.382 . S
C491 C493 1.390 . S
C491 H501 0.931 . S
C492 C488 1.390 . S
C492 C489 1.392 . S
C492 H502 0.930 . S
C493 C490 1.372 . S
C493 C491 1.390 . S
C493 H503 0.929 . S
C494 O474 1.255 . S
C494 O475 1.257 . S
C495 Eu431 2.787 . S
C495 O470 1.252 . S
C495 O473 1.268 . S
C495 C488 1.506 . S
H496 C479 0.931 . S
H497 C480 0.931 . S
H498 C481 0.929 . S
H499 C482 0.930 . S
H500 C490 0.931 . S
H501 C491 0.931 . S
H502 C492 0.930 . S
H503 C493 0.929 . S
Eu504 N533 2.600 . S
Eu504 N539 2.562 . S
Eu504 O548 2.462 . S
Eu504 O549 2.373 . S
Eu504 O551 2.432 . S
Eu504 O552 2.291 . S
Eu504 O556 2.335 . S
Eu504 O559 2.372 . S
Eu504 C568 2.787 . S
C505 N506 1.365 . S
C505 C508 1.405 . S
C505 C512 1.448 . S
N506 C505 1.365 . S
N506 C509 1.319 . S
N506 Eu515 2.600 . S
C507 C509 1.397 . S
C507 C510 1.367 . S
C507 H527 0.931 . S
C508 C505 1.405 . S
C508 C510 1.403 . S
C508 C514 1.439 . S
C509 N506 1.319 . S
C509 C507 1.397 . S
C509 H520 0.930 . S
C510 C507 1.367 . S
C510 C508 1.403 . S
C510 H531 0.929 . S
C511 C512 1.430 . S
C511 C513 1.387 . S
C511 C517 1.404 . S
C512 C505 1.448 . S
C512 C511 1.430 . S
C512 N516 1.351 . S
C513 C511 1.387 . S
C513 C514 1.374 . S
C513 H528 0.931 . S
C514 C508 1.439 . S
C514 C513 1.374 . S
C514 H529 0.931 . S
Eu515 N506 2.600 . S
Eu515 N516 2.562 . S
Eu515 O550 2.335 . S
Eu515 O553 2.372 . S
Eu515 O554 2.462 . S
Eu515 O555 2.373 . S
Eu515 O557 2.432 . S
Eu515 O558 2.291 . S
Eu515 C579 2.787 . S
N516 C512 1.351 . S
N516 Eu515 2.562 . S
N516 C518 1.325 . S
C517 C511 1.404 . S
C517 C519 1.366 . S
C517 H525 0.930 . S
C518 N516 1.325 . S
C518 C519 1.416 . S
C518 H524 0.929 . S
C519 C517 1.366 . S
C519 C518 1.416 . S
C519 H521 0.930 . S
H520 C509 0.930 . S
H521 C519 0.930 . S
H522 C537 0.930 1_556 S
H523 C544 0.930 . S
H524 C518 0.929 . S
H525 C517 0.930 . S
H526 C540 0.929 . S
H527 C507 0.931 . S
H528 C513 0.931 . S
H529 C514 0.931 . S
H530 C535 0.931 . S
H531 C510 0.929 . S
H532 C543 0.930 . S
N533 Eu504 2.600 . S
N533 C534 1.365 1_556 S
N533 C537 1.319 1_556 S
C534 N533 1.365 1_554 S
C534 C536 1.405 . S
C534 C542 1.448 1_554 S
C535 H530 0.931 . S
C535 C537 1.397 . S
C535 C538 1.367 . S
C536 C534 1.405 . S
C536 C538 1.403 . S
C536 C569 1.439 . S
C537 H522 0.930 1_554 S
C537 N533 1.319 1_554 S
C537 C535 1.397 . S
C538 C535 1.367 . S
C538 C536 1.403 . S
C538 H545 0.929 . S
N539 Eu504 2.562 . S
N539 C540 1.325 . S
N539 C542 1.351 . S
C540 H526 0.929 . S
C540 N539 1.325 . S
C540 C544 1.416 . S
C541 C542 1.430 . S
C541 C543 1.404 . S
C541 C570 1.387 1_556 S
C542 C534 1.448 1_556 S
C542 N539 1.351 . S
C542 C541 1.430 . S
C543 H532 0.930 . S
C543 C541 1.404 . S
C543 C544 1.366 . S
C544 H523 0.930 . S
C544 C540 1.416 . S
C544 C543 1.366 . S
H545 C538 0.929 . S
H546 C569 0.931 . S
H547 C570 0.931 . S
O548 Eu504 2.462 . S
O548 C568 1.252 . S
O549 Eu504 2.373 . S
O549 C560 1.249 . S
O550 Eu515 2.335 . S
O550 C560 1.264 . S
O551 Eu504 2.432 . S
O551 C568 1.268 . S
O552 Eu504 2.291 . S
O552 C567 1.255 . S
O553 Eu515 2.372 . S
O553 C567 1.257 . S
O554 Eu515 2.462 . S
O554 C579 1.252 . S
O555 Eu515 2.373 . S
O555 C571 1.249 . S
O556 Eu504 2.335 . S
O556 C571 1.264 . S
O557 Eu515 2.432 . S
O557 C579 1.268 . S
O558 Eu515 2.291 . S
O558 C578 1.255 . S
O559 Eu504 2.372 . S
O559 C578 1.257 . S
C560 O549 1.249 . S
C560 O550 1.264 . S
C561 C564 1.382 . S
C561 C566 1.390 . S
C561 C568 1.506 . S
C562 C563 1.398 . S
C562 C566 1.392 . S
C563 C562 1.398 . S
C563 C565 1.372 . S
C563 H580 0.931 . S
C564 C561 1.382 . S
C564 C565 1.390 . S
C564 H581 0.931 . S
C565 C563 1.372 . S
C565 C564 1.390 . S
C565 H582 0.929 . S
C566 C561 1.390 . S
C566 C562 1.392 . S
C566 H583 0.930 . S
C567 O552 1.255 . S
C567 O553 1.257 . S
C568 Eu504 2.787 . S
C568 O548 1.252 . S
C568 O551 1.268 . S
C568 C561 1.506 . S
C569 C536 1.439 . S
C569 H546 0.931 . S
C569 C570 1.374 . S
C570 C541 1.387 1_554 S
C570 H547 0.931 . S
C570 C569 1.374 . S
C571 O555 1.249 . S
C571 O556 1.264 . S
C572 C575 1.382 . S
C572 C576 1.390 . S
C572 C579 1.506 . S
C573 C574 1.398 . S
C573 C576 1.392 . S
C574 C573 1.398 . S
C574 C577 1.372 . S
C574 H584 0.931 . S
C575 C572 1.382 . S
C575 C577 1.390 . S
C575 H585 0.931 . S
C576 C572 1.390 . S
C576 C573 1.392 . S
C576 H586 0.930 . S
C577 C574 1.372 . S
C577 C575 1.390 . S
C577 H587 0.929 . S
C578 O558 1.255 . S
C578 O559 1.257 . S
C579 Eu515 2.787 . S
C579 O554 1.252 . S
C579 O557 1.268 . S
C579 C572 1.506 . S
H580 C563 0.931 . S
H581 C564 0.931 . S
H582 C565 0.929 . S
H583 C566 0.930 . S
H584 C574 0.931 . S
H585 C575 0.931 . S
H586 C576 0.930 . S
H587 C577 0.929 . S
Eu588 N617 2.600 . S
Eu588 N623 2.562 . S
Eu588 O632 2.462 . S
Eu588 O633 2.373 . S
Eu588 O635 2.432 . S
Eu588 O636 2.291 . S
Eu588 O640 2.335 . S
Eu588 O643 2.372 . S
Eu588 C652 2.787 . S
C589 N590 1.364 1_556 S
C589 C592 1.407 . S
C589 C596 1.446 1_556 S
N590 C589 1.364 1_554 S
N590 C593 1.319 1_554 S
N590 Eu599 2.600 . S
C591 C593 1.397 . S
C591 C594 1.367 . S
C591 H611 0.931 . S
C592 C589 1.407 . S
C592 C594 1.403 . S
C592 C598 1.439 . S
C593 N590 1.319 1_556 S
C593 C591 1.397 . S
C593 H604 0.930 1_556 S
C594 C591 1.367 . S
C594 C592 1.403 . S
C594 H615 0.929 . S
C595 C596 1.430 . S
C595 C597 1.387 1_554 S
C595 C601 1.404 . S
C596 C589 1.446 1_554 S
C596 C595 1.430 . S
C596 N600 1.351 . S
C597 C595 1.387 1_556 S
C597 C598 1.374 . S
C597 H612 0.931 . S
C598 C592 1.439 . S
C598 C597 1.374 . S
C598 H613 0.931 . S
Eu599 N590 2.600 . S
Eu599 N600 2.562 . S
Eu599 O634 2.335 . S
Eu599 O637 2.372 . S
Eu599 O638 2.462 . S
Eu599 O639 2.373 . S
Eu599 O641 2.432 . S
Eu599 O642 2.291 . S
Eu599 C663 2.787 . S
N600 C596 1.351 . S
N600 Eu599 2.562 . S
N600 C602 1.325 . S
C601 C595 1.404 . S
C601 C603 1.366 . S
C601 H609 0.930 . S
C602 N600 1.325 . S
C602 C603 1.416 . S
C602 H608 0.929 . S
C603 C601 1.366 . S
C603 C602 1.416 . S
C603 H605 0.930 . S
H604 C593 0.930 1_554 S
H605 C603 0.930 . S
H606 C621 0.930 . S
H607 C628 0.930 . S
H608 C602 0.929 . S
H609 C601 0.930 . S
H610 C624 0.929 . S
H611 C591 0.931 . S
H612 C597 0.931 . S
H613 C598 0.931 . S
H614 C619 0.931 . S
H615 C594 0.929 . S
H616 C627 0.930 . S
N617 Eu588 2.600 . S
N617 C618 1.365 . S
N617 C621 1.319 . S
C618 N617 1.365 . S
C618 C620 1.405 . S
C618 C626 1.448 . S
C619 H614 0.931 . S
C619 C621 1.397 . S
C619 C622 1.367 . S
C620 C618 1.405 . S
C620 C622 1.403 . S
C620 C653 1.439 . S
C621 H606 0.930 . S
C621 N617 1.319 . S
C621 C619 1.397 . S
C622 C619 1.367 . S
C622 C620 1.403 . S
C622 H629 0.929 . S
N623 Eu588 2.562 . S
N623 C624 1.325 . S
N623 C626 1.351 . S
C624 H610 0.929 . S
C624 N623 1.325 . S
C624 C628 1.416 . S
C625 C626 1.430 . S
C625 C627 1.404 . S
C625 C654 1.387 . S
C626 C618 1.448 . S
C626 N623 1.351 . S
C626 C625 1.430 . S
C627 H616 0.930 . S
C627 C625 1.404 . S
C627 C628 1.366 . S
C628 H607 0.930 . S
C628 C624 1.416 . S
C628 C627 1.366 . S
H629 C622 0.929 . S
H630 C653 0.931 . S
H631 C654 0.931 . S
O632 Eu588 2.462 . S
O632 C652 1.252 . S
O633 Eu588 2.373 . S
O633 C644 1.249 . S
O634 Eu599 2.335 . S
O634 C644 1.264 . S
O635 Eu588 2.432 . S
O635 C652 1.268 . S
O636 Eu588 2.291 . S
O636 C651 1.255 . S
O637 Eu599 2.372 . S
O637 C651 1.257 . S
O638 Eu599 2.462 . S
O638 C663 1.252 . S
O639 Eu599 2.373 . S
O639 C655 1.249 . S
O640 Eu588 2.335 . S
O640 C655 1.264 . S
O641 Eu599 2.432 . S
O641 C663 1.268 . S
O642 Eu599 2.291 . S
O642 C662 1.255 . S
O643 Eu588 2.372 . S
O643 C662 1.257 . S
C644 O633 1.249 . S
C644 O634 1.264 . S
C645 C648 1.382 . S
C645 C650 1.390 . S
C645 C652 1.506 . S
C646 C647 1.398 . S
C646 C650 1.392 . S
C647 C646 1.398 . S
C647 C649 1.372 . S
C647 H664 0.931 . S
C648 C645 1.382 . S
C648 C649 1.390 . S
C648 H665 0.931 . S
C649 C647 1.372 . S
C649 C648 1.390 . S
C649 H666 0.929 . S
C650 C645 1.390 . S
C650 C646 1.392 . S
C650 H667 0.930 . S
C651 O636 1.255 . S
C651 O637 1.257 . S
C652 Eu588 2.787 . S
C652 O632 1.252 . S
C652 O635 1.268 . S
C652 C645 1.506 . S
C653 C620 1.439 . S
C653 H630 0.931 . S
C653 C654 1.374 . S
C654 C625 1.387 . S
C654 H631 0.931 . S
C654 C653 1.374 . S
C655 O639 1.249 . S
C655 O640 1.264 . S
C656 C659 1.382 . S
C656 C660 1.390 . S
C656 C663 1.506 . S
C657 C658 1.398 . S
C657 C660 1.392 . S
C658 C657 1.398 . S
C658 C661 1.372 . S
C658 H668 0.931 . S
C659 C656 1.382 . S
C659 C661 1.390 . S
C659 H669 0.931 . S
C660 C656 1.390 . S
C660 C657 1.392 . S
C660 H670 0.930 . S
C661 C658 1.372 . S
C661 C659 1.390 . S
C661 H671 0.929 . S
C662 O642 1.255 . S
C662 O643 1.257 . S
C663 Eu599 2.787 . S
C663 O638 1.252 . S
C663 O641 1.268 . S
C663 C656 1.506 . S
H664 C647 0.931 . S
H665 C648 0.931 . S
H666 C649 0.929 . S
H667 C650 0.930 . S
H668 C658 0.931 . S
H669 C659 0.931 . S
H670 C660 0.930 . S
H671 C661 0.929 . S
H672 C678 0.930 . S
H673 C681 0.930 . S
H674 C682 0.930 . S
H675 C683 0.930 . S
H676 C686 0.930 . S
H677 C687 0.930 . S
C678 H672 0.930 . S
C678 C679 1.355 . S
C678 C680 1.415 . S
C679 C678 1.355 . S
C679 C681 1.419 . S
C680 C678 1.415 . S
C680 C685 1.425 . S
C680 C687 1.409 1_545 S
C681 H673 0.930 . S
C681 C679 1.419 . S
C681 C682 1.362 . S
C682 H674 0.930 . S
C682 C681 1.362 . S
C682 C685 1.409 . S
C683 H675 0.930 . S
C683 C684 1.355 . S
C683 C685 1.415 1_565 S
C684 C683 1.355 . S
C684 C686 1.419 . S
C685 C680 1.425 . S
C685 C682 1.409 . S
C685 C683 1.415 1_545 S
C686 H676 0.930 . S
C686 C684 1.419 . S
C686 C687 1.362 . S
C687 H677 0.930 . S
C687 C680 1.409 1_565 S
C687 C686 1.362 . S
H688 C694 0.930 . S
H689 C697 0.930 . S
H690 C698 0.930 . S
H691 C699 0.930 . S
H692 C702 0.930 . S
H693 C703 0.930 . S
C694 H688 0.930 . S
C694 C695 1.355 . S
C694 C696 1.415 . S
C695 C694 1.355 . S
C695 C697 1.419 . S
C696 C694 1.415 . S
C696 C701 1.425 . S
C696 C703 1.409 . S
C697 H689 0.930 . S
C697 C695 1.419 . S
C697 C698 1.362 . S
C698 H690 0.930 . S
C698 C697 1.362 . S
C698 C701 1.409 . S
C699 H691 0.930 . S
C699 C700 1.355 . S
C699 C701 1.415 1_655 S
C700 C699 1.355 . S
C700 C702 1.419 . S
C701 C696 1.425 . S
C701 C698 1.409 . S
C701 C699 1.415 1_455 S
C702 H692 0.930 . S
C702 C700 1.419 . S
C702 C703 1.362 1_655 S
C703 H693 0.930 . S
C703 C696 1.409 . S
C703 C702 1.362 1_455 S
H704 C710 0.930 . S
H705 C713 0.930 . S
H706 C714 0.930 . S
H707 C715 0.930 . S
H708 C718 0.930 . S
H709 C719 0.930 . S
C710 H704 0.930 . S
C710 C711 1.355 . S
C710 C712 1.415 . S
C711 C710 1.355 . S
C711 C713 1.419 . S
C712 C710 1.415 . S
C712 C717 1.425 . S
C712 C719 1.409 . S
C713 H705 0.930 . S
C713 C711 1.419 . S
C713 C714 1.362 . S
C714 H706 0.930 . S
C714 C713 1.362 . S
C714 C717 1.409 . S
C715 H707 0.930 . S
C715 C716 1.355 . S
C715 C717 1.415 1_545 S
C716 C715 1.355 . S
C716 C718 1.419 . S
C717 C712 1.425 . S
C717 C714 1.409 . S
C717 C715 1.415 1_565 S
C718 H708 0.930 . S
C718 C716 1.419 . S
C718 C719 1.362 1_545 S
C719 H709 0.930 . S
C719 C712 1.409 . S
C719 C718 1.362 1_565 S
H720 C726 0.930 . S
H721 C729 0.930 . S
H722 C730 0.930 . S
H723 C731 0.930 . S
H724 C734 0.930 . S
H725 C735 0.928 . S
C726 H720 0.930 . S
C726 C727 1.355 . S
C726 C728 1.415 1_455 S
C727 C726 1.355 . S
C727 C729 1.419 . S
C728 C726 1.415 1_655 S
C728 C733 1.425 . S
C728 C735 1.409 . S
C729 H721 0.930 . S
C729 C727 1.419 . S
C729 C730 1.362 1_455 S
C730 H722 0.930 . S
C730 C729 1.362 1_655 S
C730 C733 1.409 . S
C731 H723 0.930 . S
C731 C732 1.355 . S
C731 C733 1.415 . S
C732 C731 1.355 . S
C732 C734 1.419 . S
C733 C728 1.425 . S
C733 C730 1.409 . S
C733 C731 1.415 . S
C734 H724 0.930 . S
C734 C732 1.419 . S
C734 C735 1.362 . S
C735 H725 0.928 . S
C735 C728 1.409 . S
C735 C734 1.362 . S
H736 C742 0.930 . S
H737 C745 0.930 . S
H738 C746 0.930 . S
H739 C747 0.935 . S
H740 C750 0.930 . S
H741 C751 0.930 . S
C742 H736 0.930 . S
C742 C743 1.355 . S
C742 C744 1.415 . S
C743 C742 1.355 . S
C743 C745 1.419 1_556 S
C744 C742 1.415 . S
C744 C749 1.425 . S
C744 C751 1.409 . S
C745 H737 0.930 . S
C745 C743 1.419 1_554 S
C745 C746 1.362 . S
C746 H738 0.930 . S
C746 C745 1.362 . S
C746 C749 1.409 1_554 S
C747 H739 0.935 . S
C747 C748 1.350 1_554 S
C747 C749 1.414 1_554 S
C748 C747 1.350 1_556 S
C748 C750 1.419 . S
C749 C744 1.425 . S
C749 C746 1.409 1_556 S
C749 C747 1.414 1_556 S
C750 H740 0.930 . S
C750 C748 1.419 . S
C750 C751 1.362 . S
C751 H741 0.930 . S
C751 C744 1.409 . S
C751 C750 1.362 . S
H752 C758 0.930 . S
H753 C761 0.930 . S
H754 C762 0.930 . S
H755 C763 0.930 1_556 S
H756 C766 0.930 . S
H757 C767 0.930 . S
C758 H752 0.930 . S
C758 C759 1.355 . S
C758 C760 1.415 . S
C759 C758 1.355 . S
C759 C761 1.419 1_554 S
C760 C758 1.415 . S
C760 C765 1.425 . S
C760 C767 1.409 . S
C761 H753 0.930 . S
C761 C759 1.419 1_556 S
C761 C762 1.362 . S
C762 H754 0.930 . S
C762 C761 1.362 . S
C762 C765 1.409 1_556 S
C763 H755 0.930 1_554 S
C763 C764 1.355 . S
C763 C765 1.415 . S
C764 C763 1.355 . S
C764 C766 1.419 . S
C765 C760 1.425 . S
C765 C762 1.409 1_554 S
C765 C763 1.415 . S
C766 H756 0.930 . S
C766 C764 1.419 . S
C766 C767 1.362 . S
C767 H757 0.930 . S
C767 C760 1.409 . S
C767 C766 1.362 . S
H768 C774 0.930 . S
H769 C777 0.930 . S
H770 C778 0.930 . S
H771 C779 0.930 . S
H772 C782 0.930 . S
H773 C783 0.930 . S
C774 H768 0.930 . S
C774 C775 1.355 1_554 S
C774 C776 1.415 1_554 S
C775 C774 1.355 1_556 S
C775 C777 1.419 . S
C776 C774 1.415 1_556 S
C776 C781 1.425 . S
C776 C783 1.409 1_556 S
C777 H769 0.930 . S
C777 C775 1.419 . S
C777 C778 1.362 . S
C778 H770 0.930 . S
C778 C777 1.362 . S
C778 C781 1.409 . S
C779 H771 0.930 . S
C779 C780 1.355 . S
C779 C781 1.415 . S
C780 C779 1.355 . S
C780 C782 1.419 1_556 S
C781 C776 1.425 . S
C781 C778 1.409 . S
C781 C779 1.415 . S
C782 H772 0.930 . S
C782 C780 1.419 1_554 S
C782 C783 1.362 . S
C783 H773 0.930 . S
C783 C776 1.409 1_554 S
C783 C782 1.362 . S
H784 C790 0.949 . S
H785 C793 0.930 . S
H786 C794 0.930 . S
H787 C795 0.930 . S
H788 C798 0.930 . S
H789 C799 0.930 . S
C790 H784 0.949 . S
C790 C791 1.337 1_556 S
C790 C792 1.413 1_556 S
C791 C790 1.337 1_554 S
C791 C793 1.419 . S
C792 C790 1.413 1_554 S
C792 C797 1.425 . S
C792 C799 1.409 1_554 S
C793 H785 0.930 . S
C793 C791 1.419 . S
C793 C794 1.362 . S
C794 H786 0.930 . S
C794 C793 1.362 . S
C794 C797 1.409 . S
C795 H787 0.930 . S
C795 C796 1.355 . S
C795 C797 1.415 . S
C796 C795 1.355 . S
C796 C798 1.419 1_554 S
C797 C792 1.425 . S
C797 C794 1.409 . S
C797 C795 1.415 . S
C798 H788 0.930 . S
C798 C796 1.419 1_556 S
C798 C799 1.362 . S
C799 H789 0.930 . S
C799 C792 1.409 1_556 S
C799 C798 1.362 . S
H800 C806 0.930 . S
H801 C809 0.930 . S
H802 C810 0.930 . S
H803 C811 0.930 . S
H804 C814 0.930 . S
H805 C815 0.930 . S
C806 H800 0.930 . S
C806 C807 1.355 . S
C806 C808 1.415 . S
C807 C806 1.355 . S
C807 C809 1.419 . S
C808 C806 1.415 . S
C808 C813 1.425 . S
C808 C815 1.409 . S
C809 H801 0.930 . S
C809 C807 1.419 . S
C809 C810 1.362 . S
C810 H802 0.930 . S
C810 C809 1.362 . S
C810 C813 1.409 . S
C811 H803 0.930 . S
C811 C812 1.355 . S
C811 C813 1.415 . S
C812 C811 1.355 . S
C812 C814 1.419 . S
C813 C808 1.425 . S
C813 C810 1.409 . S
C813 C811 1.415 . S
C814 H804 0.930 . S
C814 C812 1.419 . S
C814 C815 1.362 . S
C815 H805 0.930 . S
C815 C808 1.409 . S
C815 C814 1.362 . S
H816 C822 0.930 . S
H817 C825 0.930 . S
H818 C826 0.930 . S
H819 C827 0.930 . S
H820 C830 0.930 . S
H821 C831 0.930 . S
C822 H816 0.930 . S
C822 C823 1.355 . S
C822 C824 1.415 . S
C823 C822 1.355 . S
C823 C825 1.419 . S
C824 C822 1.415 . S
C824 C829 1.425 . S
C824 C831 1.409 . S
C825 H817 0.930 . S
C825 C823 1.419 . S
C825 C826 1.362 . S
C826 H818 0.930 . S
C826 C825 1.362 . S
C826 C829 1.409 . S
C827 H819 0.930 . S
C827 C828 1.355 . S
C827 C829 1.415 . S
C828 C827 1.355 . S
C828 C830 1.419 . S
C829 C824 1.425 . S
C829 C826 1.409 . S
C829 C827 1.415 . S
C830 H820 0.930 . S
C830 C828 1.419 . S
C830 C831 1.362 . S
C831 H821 0.930 . S
C831 C824 1.409 . S
C831 C830 1.362 . S
H832 C838 0.930 . S
H833 C841 0.930 . S
H834 C842 0.930 . S
H835 C843 0.930 . S
H836 C846 0.930 . S
H837 C847 0.930 . S
C838 H832 0.930 . S
C838 C839 1.355 . S
C838 C840 1.415 . S
C839 C838 1.355 . S
C839 C841 1.419 . S
C840 C838 1.415 . S
C840 C845 1.425 . S
C840 C847 1.409 . S
C841 H833 0.930 . S
C841 C839 1.419 . S
C841 C842 1.362 . S
C842 H834 0.930 . S
C842 C841 1.362 . S
C842 C845 1.409 . S
C843 H835 0.930 . S
C843 C844 1.355 . S
C843 C845 1.415 . S
C844 C843 1.355 . S
C844 C846 1.419 . S
C845 C840 1.425 . S
C845 C842 1.409 . S
C845 C843 1.415 . S
C846 H836 0.930 . S
C846 C844 1.419 . S
C846 C847 1.362 . S
C847 H837 0.930 . S
C847 C840 1.409 . S
C847 C846 1.362 . S
H848 C854 0.930 . S
H849 C857 0.930 . S
H850 C858 0.930 . S
H851 C859 0.930 . S
H852 C862 0.930 . S
H853 C863 0.930 . S
C854 H848 0.930 . S
C854 C855 1.355 . S
C854 C856 1.415 . S
C855 C854 1.355 . S
C855 C857 1.419 . S
C856 C854 1.415 . S
C856 C861 1.425 . S
C856 C863 1.409 . S
C857 H849 0.930 . S
C857 C855 1.419 . S
C857 C858 1.362 . S
C858 H850 0.930 . S
C858 C857 1.362 . S
C858 C861 1.409 . S
C859 H851 0.930 . S
C859 C860 1.355 . S
C859 C861 1.415 . S
C860 C859 1.355 . S
C860 C862 1.419 . S
C861 C856 1.425 . S
C861 C858 1.409 . S
C861 C859 1.415 . S
C862 H852 0.930 . S
C862 C860 1.419 . S
C862 C863 1.362 . S
C863 H853 0.930 . S
C863 C856 1.409 . S
C863 C862 1.362 . S
H864 C870 0.930 . S
H865 C873 0.930 . S
H866 C874 0.930 . S
H867 C875 0.930 . S
H868 C878 0.930 . S
H869 C879 0.930 . S
C870 H864 0.930 . S
C870 C871 1.355 . S
C870 C872 1.415 1_545 S
C871 C870 1.355 . S
C871 C873 1.419 . S
C872 C870 1.415 1_565 S
C872 C877 1.425 . S
C872 C879 1.409 . S
C873 H865 0.930 . S
C873 C871 1.419 . S
C873 C874 1.362 1_545 S
C874 H866 0.930 . S
C874 C873 1.362 1_565 S
C874 C877 1.409 . S
C875 H867 0.930 . S
C875 C876 1.355 . S
C875 C877 1.415 . S
C876 C875 1.355 . S
C876 C878 1.419 . S
C877 C872 1.425 . S
C877 C874 1.409 . S
C877 C875 1.415 . S
C878 H868 0.930 . S
C878 C876 1.419 . S
C878 C879 1.362 . S
C879 H869 0.930 . S
C879 C872 1.409 . S
C879 C878 1.362 . S
H880 C886 0.926 1_655 S
H881 C889 0.930 . S
H882 C890 0.930 . S
H883 C891 0.930 . S
H884 C894 0.930 . S
H885 C895 0.930 . S
C886 H880 0.926 1_455 S
C886 C887 1.355 . S
C886 C888 1.415 1_455 S
C887 C886 1.355 . S
C887 C889 1.419 . S
C888 C886 1.415 1_655 S
C888 C893 1.425 . S
C888 C895 1.409 . S
C889 H881 0.930 . S
C889 C887 1.419 . S
C889 C890 1.362 . S
C890 H882 0.930 . S
C890 C889 1.362 . S
C890 C893 1.409 1_455 S
C891 H883 0.930 . S
C891 C892 1.355 . S
C891 C893 1.415 . S
C892 C891 1.355 . S
C892 C894 1.419 . S
C893 C888 1.425 . S
C893 C890 1.409 1_655 S
C893 C891 1.415 . S
C894 H884 0.930 . S
C894 C892 1.419 . S
C894 C895 1.362 . S
C895 H885 0.930 . S
C895 C888 1.409 . S
C895 C894 1.362 . S
H896 C902 0.933 . S
H897 C905 0.930 . S
H898 C906 0.930 . S
H899 C907 0.930 . S
H900 C910 0.930 . S
H901 C911 0.930 . S
C902 H896 0.933 . S
C902 C903 1.355 . S
C902 C904 1.415 1_565 S
C903 C902 1.355 . S
C903 C905 1.419 . S
C904 C902 1.415 1_545 S
C904 C909 1.425 . S
C904 C911 1.409 . S
C905 H897 0.930 . S
C905 C903 1.419 . S
C905 C906 1.362 . S
C906 H898 0.930 . S
C906 C905 1.362 . S
C906 C909 1.409 1_565 S
C907 H899 0.930 . S
C907 C908 1.355 . S
C907 C909 1.415 . S
C908 C907 1.355 . S
C908 C910 1.419 . S
C909 C904 1.425 . S
C909 C906 1.409 1_545 S
C909 C907 1.415 . S
C910 H900 0.930 . S
C910 C908 1.419 . S
C910 C911 1.362 . S
C911 H901 0.930 . S
C911 C904 1.409 . S
C911 C910 1.362 . S
H912 C918 0.930 . S
H913 C921 0.930 . S
H914 C922 0.930 . S
H915 C923 0.930 . S
H916 C926 0.930 . S
H917 C927 0.930 . S
C918 H912 0.930 . S
C918 C919 1.355 . S
C918 C920 1.415 . S
C919 C918 1.355 . S
C919 C921 1.419 . S
C920 C918 1.415 . S
C920 C925 1.425 . S
C920 C927 1.409 . S
C921 H913 0.930 . S
C921 C919 1.419 . S
C921 C922 1.362 . S
C922 H914 0.930 . S
C922 C921 1.362 . S
C922 C925 1.409 . S
C923 H915 0.930 . S
C923 C924 1.355 . S
C923 C925 1.415 1_655 S
C924 C923 1.355 . S
C924 C926 1.419 . S
C925 C920 1.425 . S
C925 C922 1.409 . S
C925 C923 1.415 1_455 S
C926 H916 0.930 . S
C926 C924 1.419 . S
C926 C927 1.362 1_655 S
C927 H917 0.930 . S
C927 C920 1.409 . S
C927 C926 1.362 1_455 S
H928 C934 0.930 . S
H929 C937 0.930 . S
H930 C938 0.930 . S
H931 C939 0.930 . S
H932 C942 0.930 . S
H933 C943 0.930 . S
C934 H928 0.930 . S
C934 C935 1.355 . S
C934 C936 1.415 . S
C935 C934 1.355 . S
C935 C937 1.419 . S
C936 C934 1.415 . S
C936 C941 1.425 . S
C936 C943 1.409 . S
C937 H929 0.930 . S
C937 C935 1.419 . S
C937 C938 1.362 . S
C938 H930 0.930 . S
C938 C937 1.362 . S
C938 C941 1.409 . S
C939 H931 0.930 . S
C939 C940 1.355 . S
C939 C941 1.415 . S
C940 C939 1.355 . S
C940 C942 1.419 . S
C941 C936 1.425 . S
C941 C938 1.409 . S
C941 C939 1.415 . S
C942 H932 0.930 . S
C942 C940 1.419 . S
C942 C943 1.362 . S
C943 H933 0.930 . S
C943 C936 1.409 . S
C943 C942 1.362 . S
H944 C950 0.930 . S
H945 C953 0.930 . S
H946 C954 0.930 . S
H947 C955 0.930 . S
H948 C958 0.930 . S
H949 C959 0.930 . S
C950 H944 0.930 . S
C950 C951 1.355 . S
C950 C952 1.415 . S
C951 C950 1.355 . S
C951 C953 1.419 . S
C952 C950 1.415 . S
C952 C957 1.425 . S
C952 C959 1.409 . S
C953 H945 0.930 . S
C953 C951 1.419 . S
C953 C954 1.362 . S
C954 H946 0.930 . S
C954 C953 1.362 . S
C954 C957 1.409 . S
C955 H947 0.930 . S
C955 C956 1.355 . S
C955 C957 1.415 . S
C956 C955 1.355 . S
C956 C958 1.419 . S
C957 C952 1.425 . S
C957 C954 1.409 . S
C957 C955 1.415 . S
C958 H948 0.930 . S
C958 C956 1.419 . S
C958 C959 1.362 . S
C959 H949 0.930 . S
C959 C952 1.409 . S
C959 C958 1.362 . S
H960 C966 0.930 . S
H961 C969 0.930 . S
H962 C970 0.930 . S
H963 C971 0.930 . S
H964 C974 0.930 . S
H965 C975 0.930 . S
C966 H960 0.930 . S
C966 C967 1.355 . S
C966 C968 1.415 . S
C967 C966 1.355 . S
C967 C969 1.419 . S
C968 C966 1.415 . S
C968 C973 1.425 . S
C968 C975 1.409 . S
C969 H961 0.930 . S
C969 C967 1.419 . S
C969 C970 1.362 . S
C970 H962 0.930 . S
C970 C969 1.362 . S
C970 C973 1.409 . S
C971 H963 0.930 . S
C971 C972 1.355 . S
C971 C973 1.415 . S
C972 C971 1.355 . S
C972 C974 1.419 . S
C973 C968 1.425 . S
C973 C970 1.409 . S
C973 C971 1.415 . S
C974 H964 0.930 . S
C974 C972 1.419 . S
C974 C975 1.362 . S
C975 H965 0.930 . S
C975 C968 1.409 . S
C975 C974 1.362 . S
H976 C982 0.930 . S
H977 C985 0.930 . S
H978 C986 0.930 . S
H979 C987 0.930 . S
H980 C990 0.930 . S
H981 C991 0.930 . S
C982 H976 0.930 . S
C982 C983 1.355 . S
C982 C984 1.415 . S
C983 C982 1.355 . S
C983 C985 1.419 . S
C984 C982 1.415 . S
C984 C989 1.425 . S
C984 C991 1.409 . S
C985 H977 0.930 . S
C985 C983 1.419 . S
C985 C986 1.362 . S
C986 H978 0.930 . S
C986 C985 1.362 . S
C986 C989 1.409 . S
C987 H979 0.930 . S
C987 C988 1.355 . S
C987 C989 1.415 . S
C988 C987 1.355 . S
C988 C990 1.419 . S
C989 C984 1.425 . S
C989 C986 1.409 . S
C989 C987 1.415 . S
C990 H980 0.930 . S
C990 C988 1.419 . S
C990 C991 1.362 . S
C991 H981 0.930 . S
C991 C984 1.409 . S
C991 C990 1.362 . S
H992 C998 0.930 . S
H993 C1001 0.930 . S
H994 C1002 0.930 . S
H995 C1003 0.930 . S
H996 C1006 0.930 . S
H997 C1007 0.930 . S
C998 H992 0.930 . S
C998 C999 1.355 . S
C998 C1000 1.415 . S
C999 C998 1.355 . S
C999 C1001 1.419 . S
C1000 C998 1.415 . S
C1000 C1005 1.425 . S
C1000 C1007 1.409 . S
C1001 H993 0.930 . S
C1001 C999 1.419 . S
C1001 C1002 1.362 . S
C1002 H994 0.930 . S
C1002 C1001 1.362 . S
C1002 C1005 1.409 . S
C1003 H995 0.930 . S
C1003 C1004 1.355 . S
C1003 C1005 1.415 . S
C1004 C1003 1.355 . S
C1004 C1006 1.419 . S
C1005 C1000 1.425 . S
C1005 C1002 1.409 . S
C1005 C1003 1.415 . S
C1006 H996 0.930 . S
C1006 C1004 1.419 . S
C1006 C1007 1.362 . S
C1007 H997 0.930 . S
C1007 C1000 1.409 . S
C1007 C1006 1.362 . S
H1008 C1014 0.930 . S
H1009 C1017 0.930 . S
H1010 C1018 0.930 . S
H1011 C1019 0.930 . S
H1012 C1022 0.930 . S
H1013 C1023 0.930 . S
C1014 H1008 0.930 . S
C1014 C1015 1.355 . S
C1014 C1016 1.415 . S
C1015 C1014 1.355 . S
C1015 C1017 1.419 . S
C1016 C1014 1.415 . S
C1016 C1021 1.425 . S
C1016 C1023 1.409 . S
C1017 H1009 0.930 . S
C1017 C1015 1.419 . S
C1017 C1018 1.362 . S
C1018 H1010 0.930 . S
C1018 C1017 1.362 . S
C1018 C1021 1.409 . S
C1019 H1011 0.930 . S
C1019 C1020 1.355 . S
C1019 C1021 1.415 . S
C1020 C1019 1.355 . S
C1020 C1022 1.419 . S
C1021 C1016 1.425 . S
C1021 C1018 1.409 . S
C1021 C1019 1.415 . S
C1022 H1012 0.930 . S
C1022 C1020 1.419 . S
C1022 C1023 1.362 . S
C1023 H1013 0.930 . S
C1023 C1016 1.409 . S
C1023 C1022 1.362 . S
H1024 C1030 0.930 . S
H1025 C1033 0.930 . S
H1026 C1034 0.930 . S
H1027 C1035 0.930 . S
H1028 C1038 0.930 . S
H1029 C1039 0.930 . S
C1030 H1024 0.930 . S
C1030 C1031 1.355 . S
C1030 C1032 1.415 . S
C1031 C1030 1.355 . S
C1031 C1033 1.419 . S
C1032 C1030 1.415 . S
C1032 C1037 1.425 . S
C1032 C1039 1.409 . S
C1033 H1025 0.930 . S
C1033 C1031 1.419 . S
C1033 C1034 1.362 . S
C1034 H1026 0.930 . S
C1034 C1033 1.362 . S
C1034 C1037 1.409 . S
C1035 H1027 0.930 . S
C1035 C1036 1.355 . S
C1035 C1037 1.415 . S
C1036 C1035 1.355 . S
C1036 C1038 1.419 . S
C1037 C1032 1.425 . S
C1037 C1034 1.409 . S
C1037 C1035 1.415 . S
C1038 H1028 0.930 . S
C1038 C1036 1.419 . S
C1038 C1039 1.362 . S
C1039 H1029 0.930 . S
C1039 C1032 1.409 . S
C1039 C1038 1.362 . S
H1040 C1046 0.930 . S
H1041 C1049 0.930 . S
H1042 C1050 0.930 . S
H1043 C1051 0.930 . S
H1044 C1054 0.930 . S
H1045 C1055 0.930 . S
C1046 H1040 0.930 . S
C1046 C1047 1.355 . S
C1046 C1048 1.415 . S
C1047 C1046 1.355 . S
C1047 C1049 1.419 . S
C1048 C1046 1.415 . S
C1048 C1053 1.425 . S
C1048 C1055 1.409 . S
C1049 H1041 0.930 . S
C1049 C1047 1.419 . S
C1049 C1050 1.362 . S
C1050 H1042 0.930 . S
C1050 C1049 1.362 . S
C1050 C1053 1.409 . S
C1051 H1043 0.930 . S
C1051 C1052 1.355 . S
C1051 C1053 1.415 . S
C1052 C1051 1.355 . S
C1052 C1054 1.419 . S
C1053 C1048 1.425 . S
C1053 C1050 1.409 . S
C1053 C1051 1.415 . S
C1054 H1044 0.930 . S
C1054 C1052 1.419 . S
C1054 C1055 1.362 . S
C1055 H1045 0.930 . S
C1055 C1048 1.409 . S
C1055 C1054 1.362 . S
C679 C67 1.349 . S
C684 C478 1.013 . S
C695 C140 1.384 . S
C700 C562 1.275 . S
C711 C235 1.427 . S
C716 C657 1.308 . S
C727 C394 1.328 . S
C732 C315 1.369 . S
C743 C489 1.333 1_556 S
C748 C410 1.359 . S
C759 C573 1.037 1_554 S
C764 C476 1.390 . S
C775 C646 1.143 1_556 S
C780 C578 1.397 . S
C791 C651 1.331 . S
C796 C405 1.033 1_554 S
C807 C571 1.421 . S
C812 C310 1.180 . S
C823 C644 1.368 . S
C828 C58 1.290 . S
C839 C153 1.367 . S
C844 C403 1.470 . S
C855 C226 1.305 . S
C860 C483 1.326 . S
C871 C321 1.358 . S
C876 C242 1.402 . S
C887 C69 1.080 . S
C892 C308 1.414 . S
C903 C142 1.061 . S
C908 C74 1.363 . S
C919 C147 1.327 . S
C924 C237 1.038 . S
C935 C392 2.711 1_554 S
C940 C63 2.766 . S
C951 C494 2.739 1_556 S
C956 C158 2.735 . S
C967 C231 2.765 . S
C972 C560 2.691 1_554 S
C983 C319 2.674 . S
C988 C655 2.681 1_556 S
C999 C224 2.670 . S
C1004 C567 2.748 . S
C1015 C326 2.734 . S
C1020 C662 2.761 . S
C1031 C399 2.765 . S
C1036 C56 2.691 . S
C1047 C487 2.684 . S
C1052 C151 2.679 . S
