# Generated by pormake.
# Topology fst, (5)-cn, num edge types: 1
# Building blocks:
#     Node 0, Type 0, BuildingBlock: BEQFEK_clean_sbu_0, # of connection points: 5
#     Node 1, Type 0, BuildingBlock: BEQFEK_clean_sbu_0, # of connection points: 5
#     Node 2, Type 0, BuildingBlock: BEQFEK_clean_sbu_0, # of connection points: 5
#     Node 3, Type 0, BuildingBlock: BEQFEK_clean_sbu_0, # of connection points: 5
#     Node 4, Type 0, BuildingBlock: BEQFEK_clean_sbu_0, # of connection points: 5
#     Node 5, Type 0, BuildingBlock: BEQFEK_clean_sbu_0, # of connection points: 5
#     Node 6, Type 0, BuildingBlock: BEQFEK_clean_sbu_0, # of connection points: 5
#     Node 7, Type 0, BuildingBlock: BEQFEK_clean_sbu_0, # of connection points: 5
#     Node 8, Type 0, BuildingBlock: BEQFEK_clean_sbu_0, # of connection points: 5
#     Node 9, Type 0, BuildingBlock: BEQFEK_clean_sbu_0, # of connection points: 5
#     Node 10, Type 0, BuildingBlock: BEQFEK_clean_sbu_0, # of connection points: 5
#     Node 11, Type 0, BuildingBlock: BEQFEK_clean_sbu_0, # of connection points: 5
#     Edge 12, Type (0, 0), BuildingBlock: AJUNOK_clean_linker_0, # of connection points: 2
#     Edge 13, Type (0, 0), BuildingBlock: AJUNOK_clean_linker_0, # of connection points: 2
#     Edge 14, Type (0, 0), BuildingBlock: AJUNOK_clean_linker_0, # of connection points: 2
#     Edge 15, Type (0, 0), BuildingBlock: AJUNOK_clean_linker_0, # of connection points: 2
#     Edge 16, Type (0, 0), BuildingBlock: AJUNOK_clean_linker_0, # of connection points: 2
#     Edge 17, Type (0, 0), BuildingBlock: AJUNOK_clean_linker_0, # of connection points: 2
#     Edge 18, Type (0, 0), BuildingBlock: AJUNOK_clean_linker_0, # of connection points: 2
#     Edge 19, Type (0, 0), BuildingBlock: AJUNOK_clean_linker_0, # of connection points: 2
#     Edge 20, Type (0, 0), BuildingBlock: AJUNOK_clean_linker_0, # of connection points: 2
#     Edge 21, Type (0, 0), BuildingBlock: AJUNOK_clean_linker_0, # of connection points: 2
#     Edge 22, Type (0, 0), BuildingBlock: AJUNOK_clean_linker_0, # of connection points: 2
#     Edge 23, Type (0, 0), BuildingBlock: AJUNOK_clean_linker_0, # of connection points: 2
#     Edge 24, Type (0, 0), BuildingBlock: AJUNOK_clean_linker_0, # of connection points: 2
#     Edge 25, Type (0, 0), BuildingBlock: AJUNOK_clean_linker_0, # of connection points: 2
#     Edge 26, Type (0, 0), BuildingBlock: AJUNOK_clean_linker_0, # of connection points: 2
#     Edge 27, Type (0, 0), BuildingBlock: AJUNOK_clean_linker_0, # of connection points: 2
#     Edge 28, Type (0, 0), BuildingBlock: AJUNOK_clean_linker_0, # of connection points: 2
#     Edge 29, Type (0, 0), BuildingBlock: AJUNOK_clean_linker_0, # of connection points: 2
#     Edge 30, Type (0, 0), BuildingBlock: AJUNOK_clean_linker_0, # of connection points: 2
#     Edge 31, Type (0, 0), BuildingBlock: AJUNOK_clean_linker_0, # of connection points: 2
#     Edge 32, Type (0, 0), BuildingBlock: AJUNOK_clean_linker_0, # of connection points: 2
#     Edge 33, Type (0, 0), BuildingBlock: AJUNOK_clean_linker_0, # of connection points: 2
#     Edge 34, Type (0, 0), BuildingBlock: AJUNOK_clean_linker_0, # of connection points: 2
#     Edge 35, Type (0, 0), BuildingBlock: AJUNOK_clean_linker_0, # of connection points: 2
#     Edge 36, Type (0, 0), BuildingBlock: AJUNOK_clean_linker_0, # of connection points: 2
#     Edge 37, Type (0, 0), BuildingBlock: AJUNOK_clean_linker_0, # of connection points: 2
#     Edge 38, Type (0, 0), BuildingBlock: AJUNOK_clean_linker_0, # of connection points: 2
#     Edge 39, Type (0, 0), BuildingBlock: AJUNOK_clean_linker_0, # of connection points: 2
#     Edge 40, Type (0, 0), BuildingBlock: AJUNOK_clean_linker_0, # of connection points: 2
#     Edge 41, Type (0, 0), BuildingBlock: AJUNOK_clean_linker_0, # of connection points: 2
# Relax obj value: 0.025
# Max RMSD: 0.073
# Mean RMSD: 0.073
data_MOF--net-fst--node1-BEQFEK_clean_sbu_0--edge1-AJUNOK_clean_linker_0
_symmetry_space_group_name_H-M    P1
_symmetry_Int_Tables_number       1
_symmetry_cell_setting            triclinic
loop_
_symmetry_equiv_pos_as_xyz
'x, y, z'
_cell_length_a     56.118968
_cell_length_b     56.165461
_cell_length_c     15.652153
_cell_angle_alpha  90.087357
_cell_angle_beta   89.968886
_cell_angle_gamma 120.02728
loop_
_atom_site_label
_atom_site_type_symbol
_atom_site_fract_x
_atom_site_fract_y
_atom_site_fract_z
_atom_type_partial_charge
Co0 Co 0.11519 0.46198 0.27964 0.0
Co1 Co 0.11638 0.46195 0.0801 0.0
C2 C 0.06495 0.42422 0.17566 0.0
O3 O 0.07735 0.43386 0.24637 0.0
O4 O 0.07752 0.43284 0.10444 0.0
C5 C 0.10666 0.4424 0.45673 0.0
O6 O 0.09121 0.4173 0.42735 0.0
C7 C 0.1112 0.45134 0.89226 0.0
C8 C 0.14848 0.48912 0.84928 0.0
C9 C 0.12574 0.46541 0.81971 0.0
N10 N 0.12493 0.46619 0.9613 0.0
N11 N 0.14712 0.48871 0.93488 0.0
C12 C 0.08353 0.42588 0.89648 0.0
H13 H 0.06968 0.42985 0.93698 0.0
H14 H 0.08564 0.40923 0.9272 0.0
H15 H 0.07412 0.41911 0.83238 0.0
C16 C 0.16212 0.45227 0.25528 0.0
N17 N 0.14166 0.45577 0.22472 0.0
N18 N 0.14201 0.45528 0.14069 0.0
C19 C 0.16265 0.45116 0.11507 0.0
C20 C 0.1761 0.44913 0.1869 0.0
C21 C 0.16798 0.45189 0.34836 0.0
H22 H 0.14948 0.43515 0.37989 0.0
H23 H 0.18561 0.44856 0.35929 0.0
H24 H 0.17227 0.47161 0.37802 0.0
O25 O 0.12094 0.49883 0.2524 0.0
O26 O 0.12071 0.49809 0.11147 0.0
H27 H 0.18568 0.44431 0.01581 0.0
H28 H 0.15234 0.43895 0.98421 0.0
C29 C 0.17085 0.4517 0.02372 0.0
H30 H 0.1809 0.47316 0.00022 0.0
H31 H 0.16106 0.50413 0.97554 0.0
O32 O 0.11865 0.46233 0.4049 0.0
C33 C 0.12239 0.51037 0.18136 0.0
Co34 Co 0.65579 0.1134 0.27779 0.0
Co35 Co 0.65906 0.11445 0.0776 0.0
C36 C 0.64415 0.06307 0.17431 0.0
O37 O 0.64594 0.07541 0.24455 0.0
O38 O 0.64917 0.07569 0.10289 0.0
C39 C 0.66736 0.10444 0.45246 0.0
O40 O 0.67598 0.08865 0.41879 0.0
C41 C 0.6642 0.10877 0.88954 0.0
C42 C 0.66894 0.14839 0.84645 0.0
C43 C 0.66741 0.12443 0.81703 0.0
N44 N 0.6645 0.12326 0.95857 0.0
N45 N 0.66714 0.14679 0.932 0.0
C46 C 0.65736 0.07943 0.89312 0.0
H47 H 0.63977 0.0679 0.93716 0.0
H48 H 0.67529 0.0785 0.91885 0.0
H49 H 0.65184 0.06951 0.8293 0.0
C50 C 0.71279 0.16019 0.25702 0.0
N51 N 0.68907 0.13972 0.22476 0.0
N52 N 0.69091 0.13975 0.1409 0.0
C53 C 0.71617 0.15996 0.11734 0.0
C54 C 0.73083 0.17364 0.19013 0.0
C55 C 0.71795 0.16659 0.35028 0.0
H56 H 0.7013 0.16946 0.37757 0.0
H57 H 0.71748 0.14891 0.38332 0.0
H58 H 0.7382 0.18522 0.36222 0.0
O59 O 0.62511 0.11955 0.24689 0.0
O60 O 0.62712 0.11897 0.10603 0.0
H61 H 0.71664 0.17976 0.00069 0.0
H62 H 0.74803 0.17997 0.02127 0.0
C63 C 0.72536 0.1674 0.02661 0.0
H64 H 0.71797 0.14852 0.98751 0.0
H65 H 0.66711 0.16155 0.97248 0.0
O66 O 0.65878 0.11665 0.40375 0.0
C67 C 0.61585 0.12093 0.17406 0.0
Co68 Co 0.54815 0.65666 0.26712 0.0
Co69 Co 0.54608 0.65439 0.06737 0.0
C70 C 0.5846 0.64205 0.16304 0.0
O71 O 0.57583 0.64604 0.23379 0.0
O72 O 0.57526 0.64498 0.09185 0.0
C73 C 0.56119 0.6552 0.44515 0.0
O74 O 0.57122 0.63982 0.41821 0.0
C75 C 0.55697 0.66072 0.88047 0.0
C76 C 0.5175 0.65595 0.83526 0.0
C77 C 0.54279 0.66035 0.80735 0.0
N78 N 0.54075 0.65682 0.94845 0.0
N79 N 0.5172 0.65393 0.92077 0.0
C80 C 0.58575 0.66588 0.88621 0.0
H81 H 0.59505 0.67555 0.94842 0.0
H82 H 0.59849 0.67925 0.83303 0.0
H83 H 0.58527 0.64594 0.88149 0.0
C84 C 0.55636 0.71219 0.23302 0.0
N85 N 0.55349 0.68808 0.20628 0.0
N86 N 0.55338 0.68755 0.1223 0.0
C87 C 0.55653 0.71152 0.09287 0.0
C88 C 0.55831 0.72785 0.16206 0.0
C89 C 0.55441 0.71871 0.32451 0.0
H90 H 0.535 0.70196 0.35189 0.0
H91 H 0.57182 0.71957 0.36069 0.0
H92 H 0.55471 0.7385 0.33191 0.0
O93 O 0.51074 0.62509 0.24643 0.0
O94 O 0.51025 0.62339 0.1053 0.0
H95 H 0.53696 0.70755 0.97248 0.0
H96 H 0.56631 0.74116 0.99164 0.0
C97 C 0.55793 0.71875 0.00033 0.0
H98 H 0.57112 0.71244 0.9657 0.0
H99 H 0.50088 0.65057 0.96053 0.0
O100 O 0.55097 0.66447 0.3912 0.0
C101 C 0.49854 0.61395 0.17677 0.0
Co102 Co 0.89464 0.54414 0.25353 0.0
Co103 Co 0.89394 0.54385 0.05316 0.0
C104 C 0.94507 0.58179 0.15057 0.0
O105 O 0.93258 0.57235 0.22121 0.0
O106 O 0.93267 0.57289 0.07922 0.0
C107 C 0.90196 0.56511 0.42864 0.0
O108 O 0.91641 0.58988 0.39608 0.0
C109 C 0.89897 0.55588 0.86567 0.0
C110 C 0.86294 0.51741 0.82003 0.0
C111 C 0.88459 0.54221 0.79223 0.0
N112 N 0.88593 0.53992 0.9336 0.0
N113 N 0.86454 0.51697 0.90551 0.0
C114 C 0.92597 0.58209 0.87112 0.0
H115 H 0.93973 0.57954 0.91627 0.0
H116 H 0.92252 0.59859 0.8963 0.0
H117 H 0.93622 0.58825 0.80791 0.0
C118 C 0.84775 0.55385 0.22632 0.0
N119 N 0.86832 0.55029 0.19691 0.0
N120 N 0.86814 0.55052 0.11281 0.0
C121 C 0.84749 0.55444 0.08605 0.0
C122 C 0.83387 0.55669 0.15712 0.0
C123 C 0.84172 0.55461 0.31911 0.0
H124 H 0.85988 0.572 0.34998 0.0
H125 H 0.82364 0.55728 0.32914 0.0
H126 H 0.83814 0.53536 0.35023 0.0
O127 O 0.88902 0.5072 0.22612 0.0
O128 O 0.8894 0.5077 0.08506 0.0
H129 H 0.82364 0.55956 0.98572 0.0
H130 H 0.8578 0.56696 0.95561 0.0
C131 C 0.83939 0.5534 0.9944 0.0
H132 H 0.83059 0.53204 0.97065 0.0
H133 H 0.85118 0.50079 0.94493 0.0
O134 O 0.89104 0.54434 0.37926 0.0
C135 C 0.88762 0.49553 0.15511 0.0
Co136 Co 0.35237 0.8908 0.25498 0.0
Co137 Co 0.35416 0.89283 0.05431 0.0
C138 C 0.36738 0.94292 0.15578 0.0
O139 O 0.36366 0.92933 0.22454 0.0
O140 O 0.36366 0.93136 0.08272 0.0
C141 C 0.34204 0.90107 0.4307 0.0
O142 O 0.34264 0.92314 0.40048 0.0
C143 C 0.34449 0.89583 0.86772 0.0
C144 C 0.356 0.86592 0.81972 0.0
C145 C 0.34658 0.88327 0.79344 0.0
N146 N 0.35209 0.88599 0.93434 0.0
N147 N 0.35903 0.86824 0.90484 0.0
C148 C 0.33416 0.91562 0.87649 0.0
H149 H 0.3253 0.91398 0.9411 0.0
H150 H 0.3185 0.91171 0.82683 0.0
H151 H 0.35165 0.93686 0.86845 0.0
C152 C 0.29598 0.8449 0.2189 0.0
N153 N 0.32049 0.86569 0.19296 0.0
N154 N 0.32111 0.86631 0.10892 0.0
C155 C 0.29705 0.84566 0.07871 0.0
C156 C 0.28026 0.83143 0.14753 0.0
C157 C 0.28794 0.83804 0.31056 0.0
H158 H 0.2926 0.857 0.34594 0.0
H159 H 0.26572 0.82284 0.31757 0.0
H160 H 0.30025 0.82959 0.33907 0.0
O161 O 0.38386 0.88479 0.23079 0.0
O162 O 0.38533 0.88822 0.09008 0.0
H163 H 0.30762 0.83398 0.96101 0.0
H164 H 0.27123 0.81939 0.97579 0.0
C165 C 0.29154 0.83803 0.9862 0.0
H166 H 0.29257 0.85547 0.94993 0.0
H167 H 0.36552 0.85739 0.94315 0.0
O168 O 0.34539 0.88523 0.38012 0.0
C169 C 0.39495 0.88495 0.15964 0.0
Co170 Co 0.46272 0.3507 0.26798 0.0
Co171 Co 0.46438 0.35115 0.06722 0.0
C172 C 0.42671 0.36522 0.16322 0.0
O173 O 0.43501 0.36122 0.23478 0.0
O174 O 0.43606 0.36166 0.09288 0.0
C175 C 0.44163 0.33376 0.44292 0.0
O176 O 0.41675 0.31988 0.41045 0.0
C177 C 0.45169 0.34097 0.87971 0.0
C178 C 0.49257 0.34986 0.8336 0.0
C179 C 0.46628 0.3423 0.80616 0.0
N180 N 0.46869 0.34726 0.94737 0.0
N181 N 0.49299 0.35239 0.91897 0.0
C182 C 0.42269 0.3352 0.88532 0.0
H183 H 0.42007 0.3455 0.94174 0.0
H184 H 0.40872 0.31275 0.89313 0.0
H185 H 0.4168 0.34204 0.82653 0.0
C186 C 0.45424 0.29448 0.23777 0.0
N187 N 0.45701 0.31847 0.21003 0.0
N188 N 0.45713 0.31857 0.1259 0.0
C189 C 0.45408 0.29453 0.09757 0.0
C190 C 0.45235 0.27856 0.16734 0.0
C191 C 0.45574 0.28799 0.32959 0.0
H192 H 0.47254 0.30626 0.362 0.0
H193 H 0.43608 0.28283 0.36146 0.0
H194 H 0.45929 0.27034 0.33633 0.0
O195 O 0.49983 0.38195 0.24296 0.0
O196 O 0.50062 0.38237 0.10182 0.0
H197 H 0.47371 0.29917 0.97682 0.0
H198 H 0.44587 0.26476 0.99738 0.0
C199 C 0.45293 0.28696 0.00535 0.0
H200 H 0.43866 0.2918 0.97075 0.0
H201 H 0.51004 0.35799 0.95805 0.0
O202 O 0.46217 0.34666 0.39361 0.0
C203 C 0.51218 0.39244 0.17309 0.0
Co204 Co 0.54987 0.89392 0.06675 0.0
Co205 Co 0.54647 0.8919 0.26713 0.0
C206 C 0.58571 0.94366 0.17516 0.0
O207 O 0.57763 0.93171 0.10303 0.0
O208 O 0.57559 0.93069 0.24482 0.0
C209 C 0.5637 0.91016 0.89018 0.0
O210 O 0.57362 0.93516 0.92046 0.0
C211 C 0.55942 0.89707 0.45198 0.0
C212 C 0.51923 0.86565 0.50416 0.0
C213 C 0.54552 0.88561 0.52802 0.0
N214 N 0.54192 0.88456 0.38671 0.0
N215 N 0.518 0.86578 0.41845 0.0
C216 C 0.58901 0.91841 0.44026 0.0
H217 H 0.59738 0.91341 0.38305 0.0
H218 H 0.60134 0.91981 0.49745 0.0
H219 H 0.59059 0.93865 0.42888 0.0
C220 C 0.5581 0.84652 0.09619 0.0
N221 N 0.5549 0.8673 0.12538 0.0
N222 N 0.55375 0.86639 0.20936 0.0
C223 C 0.55623 0.84493 0.23633 0.0
C224 C 0.55891 0.83152 0.16539 0.0
C225 C 0.56007 0.84111 0.00353 0.0
H226 H 0.57627 0.86018 0.97287 0.0
H227 H 0.56504 0.82448 0.99432 0.0
H228 H 0.54023 0.83531 0.9717 0.0
O229 O 0.5124 0.88817 0.08844 0.0
O230 O 0.51073 0.8873 0.22972 0.0
H231 H 0.53239 0.8293 0.35 0.0
H232 H 0.55775 0.81891 0.33605 0.0
C233 C 0.55358 0.83608 0.32763 0.0
H234 H 0.56807 0.85378 0.36758 0.0
H235 H 0.50068 0.85328 0.38145 0.0
O236 O 0.55298 0.88996 0.94166 0.0
C237 C 0.49964 0.88611 0.15782 0.0
Co238 Co 0.65684 0.54436 0.06707 0.0
Co239 Co 0.65888 0.54563 0.26656 0.0
C240 C 0.64467 0.58262 0.17063 0.0
O241 O 0.6471 0.57253 0.10031 0.0
O242 O 0.64903 0.57453 0.24216 0.0
C243 C 0.6685 0.56407 0.89026 0.0
O244 O 0.67889 0.58918 0.92035 0.0
C245 C 0.66388 0.55596 0.45434 0.0
C246 C 0.6667 0.51986 0.49634 0.0
C247 C 0.66572 0.54253 0.52645 0.0
N248 N 0.66384 0.54175 0.38498 0.0
N249 N 0.66554 0.52026 0.41077 0.0
C250 C 0.65947 0.58009 0.45086 0.0
H251 H 0.64086 0.57462 0.41221 0.0
H252 H 0.67725 0.59742 0.41831 0.0
H253 H 0.65687 0.58664 0.51539 0.0
C254 C 0.71352 0.55376 0.09046 0.0
N255 N 0.68973 0.55081 0.1211 0.0
N256 N 0.6909 0.55208 0.20509 0.0
C257 C 0.71568 0.55625 0.23038 0.0
C258 C 0.73072 0.55726 0.15884 0.0
C259 C 0.71873 0.55131 0.99801 0.0
H260 H 0.7006 0.53314 0.96985 0.0
H261 H 0.72159 0.56983 0.96374 0.0
H262 H 0.73732 0.5494 0.98891 0.0
O263 O 0.62587 0.50753 0.09589 0.0
O264 O 0.62698 0.50933 0.23678 0.0
H265 H 0.71746 0.53896 0.34995 0.0
H266 H 0.74799 0.57085 0.32483 0.0
C267 C 0.72517 0.55956 0.32117 0.0
H268 H 0.71715 0.57088 0.35826 0.0
H269 H 0.66532 0.5055 0.36971 0.0
O270 O 0.65976 0.54396 0.94167 0.0
C271 C 0.61611 0.4965 0.16787 0.0
Co272 Co 0.1153 0.65401 0.05844 0.0
Co273 Co 0.11584 0.65761 0.25877 0.0
C274 C 0.06462 0.64242 0.16103 0.0
O275 O 0.07726 0.64423 0.0914 0.0
O276 O 0.07703 0.64761 0.23295 0.0
C277 C 0.10805 0.66755 0.88438 0.0
O278 O 0.09435 0.67842 0.91899 0.0
C279 C 0.11072 0.66331 0.44704 0.0
C280 C 0.15071 0.6686 0.48903 0.0
C281 C 0.12672 0.66687 0.51908 0.0
N282 N 0.125 0.66348 0.37763 0.0
N283 N 0.14879 0.66654 0.40352 0.0
C284 C 0.08136 0.65652 0.44425 0.0
H285 H 0.08027 0.67397 0.4153 0.0
H286 H 0.07194 0.65217 0.50877 0.0
H287 H 0.0695 0.63823 0.40299 0.0
C288 C 0.16273 0.71069 0.07982 0.0
N289 N 0.1417 0.68723 0.11145 0.0
N290 N 0.14133 0.68914 0.19524 0.0
C291 C 0.16185 0.71415 0.21924 0.0
C292 C 0.17619 0.72851 0.1472 0.0
C293 C 0.17094 0.715 0.98772 0.0
H294 H 0.16977 0.69612 0.96115 0.0
H295 H 0.15636 0.71908 0.95161 0.0
H296 H 0.19209 0.73264 0.97912 0.0
O297 O 0.12129 0.62334 0.09032 0.0
O298 O 0.1202 0.62553 0.23113 0.0
H299 H 0.1811 0.71801 0.34012 0.0
H300 H 0.17834 0.7474 0.31055 0.0
C301 C 0.16757 0.72459 0.30921 0.0
H302 H 0.14811 0.71629 0.34579 0.0
H303 H 0.16355 0.6667 0.3626 0.0
O304 O 0.11846 0.65689 0.93237 0.0
C305 C 0.12234 0.61415 0.1636 0.0
Co306 Co 0.46283 0.11332 0.06388 0.0
Co307 Co 0.46383 0.11457 0.2646 0.0
C308 C 0.42657 0.06276 0.16779 0.0
O309 O 0.43518 0.0751 0.09647 0.0
O310 O 0.43557 0.07564 0.23839 0.0
C311 C 0.44166 0.10753 0.88903 0.0
O312 O 0.41675 0.0947 0.92159 0.0
C313 C 0.45093 0.11197 0.452 0.0
C314 C 0.49199 0.14341 0.4986 0.0
C315 C 0.46563 0.12487 0.52584 0.0
N316 N 0.46798 0.12268 0.38448 0.0
N317 N 0.49238 0.14153 0.41319 0.0
C318 C 0.42185 0.08892 0.44593 0.0
H319 H 0.419 0.07647 0.38817 0.0
H320 H 0.408 0.09761 0.44029 0.0
H321 H 0.41602 0.07571 0.50364 0.0
C322 C 0.45379 0.16067 0.09247 0.0
N323 N 0.45671 0.13967 0.12121 0.0
N324 N 0.45671 0.13991 0.20532 0.0
C325 C 0.45354 0.16094 0.23273 0.0
C326 C 0.45173 0.1749 0.16218 0.0
C327 C 0.4532 0.16701 -7e-05 0.0
H328 H 0.47205 0.16969 0.96807 0.0
H329 H 0.43522 0.1494 0.96919 0.0
H330 H 0.45153 0.1857 0.99075 0.0
O331 O 0.50001 0.11934 0.09006 0.0
O332 O 0.5001 0.1196 0.2312 0.0
H333 H 0.47568 0.17589 0.34973 0.0
H334 H 0.45012 0.18579 0.3332 0.0
C335 C 0.45475 0.16894 0.32458 0.0
H336 H 0.43986 0.15081 0.3621 0.0
H337 H 0.50951 0.15288 0.37429 0.0
O338 O 0.46244 0.11687 0.93822 0.0
C339 C 0.51202 0.12117 0.16064 0.0
Co340 Co 0.35156 0.46242 0.07635 0.0
Co341 Co 0.35321 0.46147 0.27703 0.0
C342 C 0.36694 0.4253 0.17525 0.0
O343 O 0.36316 0.43532 0.10689 0.0
O344 O 0.363 0.43275 0.24862 0.0
C345 C 0.34172 0.44183 0.90085 0.0
O346 O 0.34339 0.42095 0.93115 0.0
C347 C 0.34463 0.44926 0.46399 0.0
C348 C 0.35279 0.48986 0.51032 0.0
C349 C 0.34552 0.46366 0.53768 0.0
N350 N 0.35083 0.46627 0.39671 0.0
N351 N 0.35577 0.49048 0.42518 0.0
C352 C 0.33654 0.41962 0.45629 0.0
H353 H 0.32782 0.4117 0.39197 0.0
H354 H 0.32134 0.40721 0.50632 0.0
H355 H 0.3551 0.41762 0.46443 0.0
C356 C 0.29534 0.45223 0.11277 0.0
N357 N 0.31974 0.45555 0.1384 0.0
N358 N 0.32018 0.45475 0.22237 0.0
C359 C 0.29599 0.45088 0.25278 0.0
C360 C 0.27946 0.44913 0.1844 0.0
C361 C 0.28857 0.45457 0.02191 0.0
H362 H 0.30504 0.47426 0.99517 0.0
H363 H 0.28801 0.43757 0.98413 0.0
H364 H 0.26851 0.45383 0.01596 0.0
O365 O 0.38282 0.49989 0.10079 0.0
O366 O 0.38426 0.49741 0.24143 0.0
H367 H 0.30097 0.46983 0.37486 0.0
H368 H 0.26663 0.44168 0.35493 0.0
C369 C 0.28888 0.44916 0.34553 0.0
H370 H 0.29431 0.43503 0.37824 0.0
H371 H 0.36094 0.50741 0.38614 0.0
O372 O 0.34429 0.46076 0.95132 0.0
C373 C 0.39385 0.51059 0.17225 0.0
Co374 Co 0.89415 0.34777 0.07691 0.0
Co375 Co 0.89438 0.35214 0.27653 0.0
C376 C 0.94533 0.36382 0.1812 0.0
O377 O 0.93255 0.35897 0.11022 0.0
O378 O 0.93304 0.36155 0.25201 0.0
C379 C 0.90841 0.35045 0.89918 0.0
O380 O 0.93337 0.36781 0.92627 0.0
C381 C 0.89909 0.34642 0.46376 0.0
C382 C 0.86502 0.35218 0.50931 0.0
C383 C 0.88549 0.34713 0.53701 0.0
N384 N 0.88702 0.35069 0.39585 0.0
N385 N 0.86677 0.35422 0.42376 0.0
C386 C 0.92211 0.34038 0.45788 0.0
H387 H 0.92159 0.33083 0.39529 0.0
H388 H 0.92084 0.32657 0.51054 0.0
H389 H 0.94193 0.35995 0.46358 0.0
C390 C 0.84767 0.29201 0.11581 0.0
N391 N 0.86836 0.31679 0.14044 0.0
N392 N 0.86852 0.3184 0.22432 0.0
C393 C 0.84791 0.29459 0.2557 0.0
C394 C 0.83403 0.27711 0.18807 0.0
C395 C 0.83979 0.28389 0.02464 0.0
H396 H 0.8357 0.29924 0.9937 0.0
H397 H 0.85723 0.2841 0.99053 0.0
H398 H 0.82124 0.26321 0.01891 0.0
O399 O 0.88833 0.37953 0.09389 0.0
O400 O 0.88946 0.38267 0.2348 0.0
H401 H 0.83199 0.30062 0.37258 0.0
H402 H 0.82692 0.26646 0.35981 0.0
C403 C 0.84143 0.28865 0.34861 0.0
H404 H 0.86065 0.29497 0.38485 0.0
H405 H 0.85401 0.35788 0.38411 0.0
O406 O 0.88901 0.33916 0.95329 0.0
C407 C 0.88729 0.3914 0.16195 0.0
C408 C 0.12338 0.5742 0.09592 0.0
C409 C 0.12463 0.58892 0.17025 0.0
C410 C 0.12337 0.54929 0.10026 0.0
C411 C 0.12462 0.53791 0.17916 0.0
H412 H 0.12177 0.5816 0.03353 0.0
H413 H 0.1218 0.53862 0.04097 0.0
S414 S 0.13053 0.56937 0.39287 0.0
N415 N 0.12889 0.59105 0.3254 0.0
N416 N 0.12883 0.54426 0.33348 0.0
C417 C 0.12684 0.55287 0.25402 0.0
C418 C 0.12686 0.57831 0.2496 0.0
C419 C 0.57627 0.12229 0.2434 0.0
C420 C 0.59067 0.12338 0.16849 0.0
C421 C 0.55137 0.12238 0.24009 0.0
C422 C 0.53966 0.12353 0.16168 0.0
H423 H 0.58391 0.12073 0.30545 0.0
H424 H 0.54095 0.12089 0.29981 0.0
S425 S 0.57028 0.12916 0.94685 0.0
N426 N 0.5922 0.12751 0.01336 0.0
N427 N 0.54542 0.1276 0.00722 0.0
C428 C 0.55432 0.12566 0.08627 0.0
C429 C 0.57977 0.1256 0.08965 0.0
C430 C 0.43307 0.55088 0.09908 0.0
C431 C 0.41923 0.53813 0.17516 0.0
C432 C 0.45826 0.57564 0.10039 0.0
C433 C 0.47078 0.58882 0.17786 0.0
H434 H 0.42478 0.54137 0.03776 0.0
H435 H 0.46823 0.58417 0.03984 0.0
S436 S 0.44186 0.56527 0.39512 0.0
N437 N 0.41914 0.54159 0.3304 0.0
N438 N 0.46639 0.58799 0.33271 0.0
C439 C 0.45668 0.57683 0.2544 0.0
C440 C 0.43099 0.55157 0.25309 0.0
C441 C 0.88536 0.43037 0.23332 0.0
C442 C 0.88506 0.41671 0.15737 0.0
C443 C 0.88548 0.45536 0.2318 0.0
C444 C 0.88528 0.46791 0.15425 0.0
H445 H 0.88607 0.42202 0.29501 0.0
H446 H 0.88629 0.46513 0.29228 0.0
S447 S 0.88233 0.43971 0.9369 0.0
N448 N 0.88302 0.41698 0.00201 0.0
N449 N 0.88317 0.46387 -0.00096 0.0
C450 C 0.88402 0.45405 0.07764 0.0
C451 C 0.88392 0.42852 0.07922 0.0
C452 C 0.43408 0.88391 0.23385 0.0
C453 C 0.4204 0.88286 0.15743 0.0
C454 C 0.45925 0.88427 0.23319 0.0
C455 C 0.47192 0.8836 0.15606 0.0
H456 H 0.42567 0.88512 0.29494 0.0
H457 H 0.46909 0.88568 0.29398 0.0
S458 S 0.44348 0.87836 0.93811 0.0
N459 N 0.42067 0.87939 0.00221 0.0
N460 N 0.46785 0.88008 0.00117 0.0
C461 C 0.458 0.88157 0.07919 0.0
C462 C 0.43233 0.8812 0.07983 0.0
C463 C 0.57687 0.45608 0.09527 0.0
C464 C 0.59086 0.46889 0.17128 0.0
C465 C 0.55195 0.43109 0.09658 0.0
C466 C 0.53981 0.41773 0.17398 0.0
H467 H 0.58488 0.46568 0.03392 0.0
H468 H 0.54185 0.42254 0.03614 0.0
S469 S 0.56922 0.44132 0.39098 0.0
N470 N 0.59152 0.46531 0.32628 0.0
N471 N 0.5447 0.41843 0.32872 0.0
C472 C 0.55405 0.42977 0.25046 0.0
C473 C 0.57951 0.45528 0.24912 0.0
C474 C 0.25049 0.46934 0.2272 0.0
C475 C 0.25261 0.44801 0.18755 0.0
C476 C 0.2255 0.46932 0.22781 0.0
C477 C 0.2018 0.44786 0.18944 0.0
H478 H 0.26843 0.48641 0.25636 0.0
H479 H 0.2248 0.48645 0.25714 0.0
S480 S 0.19619 0.38618 0.08376 0.0
N481 N 0.22884 0.40435 0.1126 0.0
N482 N 0.18158 0.40391 0.11576 0.0
C483 C 0.20349 0.42603 0.1519 0.0
C484 C 0.229 0.42622 0.15042 0.0
C485 C 0.78427 0.24856 0.22501 0.0
C486 C 0.80832 0.25024 0.19174 0.0
C487 C 0.75934 0.22352 0.22574 0.0
C488 C 0.75777 0.19935 0.19395 0.0
H489 H 0.78463 0.26686 0.24889 0.0
H490 H 0.74104 0.22314 0.24979 0.0
S491 S 0.81553 0.19254 0.10737 0.0
N492 N 0.82948 0.22558 0.13047 0.0
N493 N 0.7827 0.17826 0.13391 0.0
C494 C 0.78188 0.20062 0.16318 0.0
C495 C 0.80717 0.22616 0.16154 0.0
C496 C 0.57965 0.77753 0.2021 0.0
C497 C 0.55852 0.7543 0.16077 0.0
C498 C 0.57975 0.80258 0.20327 0.0
C499 C 0.5587 0.80509 0.16325 0.0
H500 H 0.59618 0.7763 0.23362 0.0
H501 H 0.59638 0.82011 0.23544 0.0
S502 S 0.49796 0.7499 0.05097 0.0
N503 N 0.51556 0.73507 0.08189 0.0
N504 N 0.51574 0.78211 0.08407 0.0
C505 C 0.5374 0.78196 0.12231 0.0
C506 C 0.53732 0.75655 0.12105 0.0
C507 C 0.75958 0.53671 0.19812 0.0
C508 C 0.75731 0.55779 0.15759 0.0
C509 C 0.78451 0.53663 0.19809 0.0
C510 C 0.80807 0.55781 0.15845 0.0
H511 H 0.74184 0.51998 0.22913 0.0
H512 H 0.78532 0.51973 0.22855 0.0
S513 S 0.81322 0.61868 0.04894 0.0
N514 N 0.78071 0.60079 0.0794 0.0
N515 N 0.82794 0.60113 0.08156 0.0
C516 C 0.80618 0.5793 0.11926 0.0
C517 C 0.78068 0.57917 0.11826 0.0
C518 C 0.22527 0.75756 0.19024 0.0
C519 C 0.20244 0.75494 0.14515 0.0
C520 C 0.25039 0.78237 0.19023 0.0
C521 C 0.25343 0.80548 0.14589 0.0
H522 H 0.22376 0.74021 0.22513 0.0
H523 H 0.26761 0.78344 0.22484 0.0
S524 S 0.19932 0.80952 0.02187 0.0
N525 N 0.18409 0.77747 0.05669 0.0
N526 N 0.23121 0.82448 0.05847 0.0
C527 C 0.23064 0.80319 0.10131 0.0
C528 C 0.20514 0.77779 0.1005 0.0
C529 C 0.43042 0.20341 0.20086 0.0
C530 C 0.45193 0.20134 0.16205 0.0
C531 C 0.43074 0.22857 0.20319 0.0
C532 C 0.45248 0.2523 0.16621 0.0
H533 H 0.41327 0.18545 0.2295 0.0
H534 H 0.41381 0.22944 0.23329 0.0
S535 S 0.51447 0.25805 0.06219 0.0
N536 N 0.49612 0.22537 0.08997 0.0
N537 N 0.49653 0.27252 0.09324 0.0
C538 C 0.47419 0.25053 0.12813 0.0
C539 C 0.47395 0.22505 0.12624 0.0
C540 C 0.10587 0.42708 0.60784 0.0
C541 C 0.11001 0.44792 0.54973 0.0
C542 C 0.1103 0.43255 0.69582 0.0
C543 C 0.11864 0.45892 0.72847 0.0
H544 H 0.09993 0.40663 0.58506 0.0
H545 H 0.10799 0.41627 0.73808 0.0
S546 S 0.12967 0.51986 0.60453 0.0
N547 N 0.12126 0.49552 0.53222 0.0
N548 N 0.12924 0.50555 0.69695 0.0
C549 C 0.12203 0.47965 0.67137 0.0
C550 C 0.11773 0.4742 0.58219 0.0
C551 C 0.65161 0.11909 0.58084 0.0
C552 C 0.66723 0.1081 0.54629 0.0
C553 C 0.65144 0.12365 0.66861 0.0
C554 C 0.6668 0.11736 0.72569 0.0
H555 H 0.63938 0.12433 0.53979 0.0
H556 H 0.63919 0.13228 0.69198 0.0
S557 S 0.71247 0.08976 0.66834 0.0
N558 N 0.69909 0.09166 0.57638 0.0
N559 N 0.69918 0.10089 0.74164 0.0
C560 C 0.68262 0.10647 0.69251 0.0
C561 C 0.68271 0.10165 0.60277 0.0
C562 C 0.56717 0.64592 0.59799 0.0
C563 C 0.55941 0.65951 0.53805 0.0
C564 C 0.56299 0.64729 0.68581 0.0
C565 C 0.55099 0.66236 0.71681 0.0
H566 H 0.57565 0.63331 0.57697 0.0
H567 H 0.56796 0.63538 0.72904 0.0
S568 S 0.52983 0.70413 0.58876 0.0
N569 N 0.54115 0.69039 0.51774 0.0
N570 N 0.53339 0.69283 0.68245 0.0
C571 C 0.5443 0.67702 0.65834 0.0
C572 C 0.54856 0.6757 0.5691 0.0
C573 C 0.89224 0.53491 0.55545 0.0
C574 C 0.89891 0.56078 0.52225 0.0
C575 C 0.88841 0.52956 0.64304 0.0
C576 C 0.89107 0.54981 0.70126 0.0
H577 H 0.88992 0.51853 0.51345 0.0
H578 H 0.88317 0.50925 0.66534 0.0
S579 S 0.90649 0.62038 0.64727 0.0
N580 N 0.90735 0.60676 0.5545 0.0
N581 N 0.89933 0.59632 0.71956 0.0
C582 C 0.89762 0.57577 0.66936 0.0
C583 C 0.90177 0.58135 0.57976 0.0
C584 C 0.34962 0.91344 0.67043 0.0
C585 C 0.34135 0.88711 0.70307 0.0
C586 C 0.34863 0.91764 0.58233 0.0
C587 C 0.3397 0.89572 0.52384 0.0
H588 H 0.35825 0.93115 0.71232 0.0
H589 H 0.35616 0.93841 0.55966 0.0
S590 S 0.31255 0.8223 0.57808 0.0
N591 N 0.32132 0.83842 0.67092 0.0
N592 N 0.32002 0.8464 0.50582 0.0
C593 C 0.33018 0.86914 0.5562 0.0
C594 C 0.33091 0.86484 0.64564 0.0
C595 C 0.47086 0.35726 0.56969 0.0
C596 C 0.44627 0.33548 0.53649 0.0
C597 C 0.47663 0.35938 0.65709 0.0
C598 C 0.45809 0.33985 0.71525 0.0
H599 H 0.48591 0.37292 0.52783 0.0
H600 H 0.4959 0.37652 0.67931 0.0
S601 S 0.39162 0.27784 0.66112 0.0
N602 N 0.40347 0.29348 0.5686 0.0
N603 N 0.41477 0.29716 0.73329 0.0
C604 C 0.43345 0.31786 0.68335 0.0
C605 C 0.42742 0.31577 0.59389 0.0
C606 C 0.54658 0.87208 0.67844 0.0
C607 C 0.55447 0.89313 0.6178 0.0
C608 C 0.55074 0.87791 0.76595 0.0
C609 C 0.56269 0.90509 0.79662 0.0
H610 H 0.53642 0.85076 0.65818 0.0
H611 H 0.54368 0.86081 0.8099 0.0
S612 S 0.58755 0.96785 0.66349 0.0
N613 N 0.57507 0.94228 0.59403 0.0
N614 N 0.58355 0.95348 0.75828 0.0
C615 C 0.57163 0.92649 0.73626 0.0
C616 C 0.56733 0.92047 0.64692 0.0
C617 C 0.6827 0.58012 0.73935 0.0
C618 C 0.66652 0.55882 0.79698 0.0
C619 C 0.68187 0.57505 0.65114 0.0
C620 C 0.66466 0.54858 0.61779 0.0
H621 H 0.69662 0.60069 0.76262 0.0
H622 H 0.69538 0.59172 0.60921 0.0
S623 S 0.61626 0.48638 0.73978 0.0
N624 N 0.6314 0.5106 0.81291 0.0
N625 N 0.62988 0.50132 0.64779 0.0
C626 C 0.64782 0.52737 0.67425 0.0
C627 C 0.64869 0.53243 0.76365 0.0
C628 C 0.1257 0.65059 0.66713 0.0
C629 C 0.11994 0.66644 0.61056 0.0
C630 C 0.12147 0.65094 0.75506 0.0
C631 C 0.11144 0.66732 0.79033 0.0
H632 H 0.13365 0.63781 0.6432 0.0
H633 H 0.12625 0.63828 0.79565 0.0
S634 S 0.09478 0.71398 0.66939 0.0
N635 N 0.1049 0.69993 0.59552 0.0
N636 N 0.09649 0.70042 0.76115 0.0
C637 C 0.10558 0.68333 0.73426 0.0
C638 C 0.10996 0.68296 0.64433 0.0
C639 C 0.47631 0.11777 0.67415 0.0
C640 C 0.45757 0.11877 0.61678 0.0
C641 C 0.47073 0.11384 0.7616 0.0
C642 C 0.4461 0.11065 0.79554 0.0
H643 H 0.49562 0.12015 0.6513 0.0
H644 H 0.48593 0.11329 0.80294 0.0
S645 S 0.39094 0.11353 0.67364 0.0
N646 N 0.41403 0.11783 0.60066 0.0
N647 N 0.40304 0.10952 0.76538 0.0
C648 C 0.42703 0.11146 0.73905 0.0
C649 C 0.43289 0.11577 0.64958 0.0
C650 C 0.34972 0.4329 0.74959 0.0
C651 C 0.33941 0.44472 0.80764 0.0
C652 C 0.35063 0.43803 0.66149 0.0
C653 C 0.34086 0.45482 0.62832 0.0
H654 H 0.35835 0.42064 0.77265 0.0
H655 H 0.36029 0.42989 0.62005 0.0
S656 S 0.30836 0.4875 0.75212 0.0
N657 N 0.31705 0.47196 0.82476 0.0
N658 N 0.31812 0.48105 0.65962 0.0
C659 C 0.32914 0.4655 0.68534 0.0
C660 C 0.32853 0.46056 0.77481 0.0
C661 C 0.92389 0.36036 0.74661 0.0
C662 C 0.90245 0.34644 0.80614 0.0
C663 C 0.91849 0.35946 0.65882 0.0
C664 C 0.89145 0.34463 0.62741 0.0
H665 H 0.94498 0.37283 0.76799 0.0
H666 H 0.93547 0.37154 0.61594 0.0
S667 S 0.82823 0.30225 0.75404 0.0
N668 N 0.8532 0.31549 0.82548 0.0
N669 N 0.84326 0.31408 0.66079 0.0
C670 C 0.86998 0.32967 0.68536 0.0
C671 C 0.87542 0.33042 0.77459 0.0
C672 C 0.01921 0.39979 0.10133 0.0
C673 C 0.03469 0.40484 0.17671 0.0
C674 C 0.99035 0.38526 0.1029 0.0
C675 C 0.97567 0.37516 0.17996 0.0
H676 H 0.02936 0.40817 0.04093 0.0
H677 H 0.97956 0.38308 0.04348 0.0
S678 S 0.00632 0.37874 0.39311 0.0
N679 N 0.03304 0.39552 0.32924 0.0
N680 N 0.97893 0.36834 0.33193 0.0
C681 C 0.99086 0.3784 0.25485 0.0
C682 C 0.02029 0.39317 0.2533 0.0
C683 C 0.60596 0.98897 0.25087 0.0
C684 C 0.60471 0.97392 0.1774 0.0
C685 C 0.61992 0.01779 0.25028 0.0
C686 C 0.63328 0.03285 0.17622 0.0
H687 H 0.59494 0.97848 0.30828 0.0
H688 H 0.61911 0.02822 0.30752 0.0
S689 S 0.64063 0.00341 0.97201 0.0
N690 N 0.62128 0.97635 0.0321 0.0
N691 N 0.64754 0.03046 0.03123 0.0
C692 C 0.63393 0.01811 0.10434 0.0
C693 C 0.61968 0.98871 0.10488 0.0
C694 C 0.62303 0.60682 0.24412 0.0
C695 C 0.63362 0.60182 0.16899 0.0
C696 C 0.60847 0.62108 0.24204 0.0
C697 C 0.60382 0.63098 0.16474 0.0
H698 H 0.62484 0.59858 0.30472 0.0
H699 H 0.59976 0.62323 0.30132 0.0
S700 S 0.63131 0.62748 0.95208 0.0
N701 N 0.6414 0.61097 0.01645 0.0
N702 N 0.61406 0.6377 0.01277 0.0
C703 C 0.61597 0.62782 0.09008 0.0
C704 C 0.63084 0.61329 0.09216 0.0
C705 C 0.01991 0.61933 0.08106 0.0
C706 C 0.03428 0.63111 0.15766 0.0
C707 C 0.99108 0.60475 0.07824 0.0
C708 C 0.97529 0.60126 0.15188 0.0
H709 H 0.03093 0.62025 0.02318 0.0
H710 H 0.9812 0.59503 0.0186 0.0
S711 S 1.00262 0.63219 0.36499 0.0
N712 N 0.03031 0.64138 0.30626 0.0
N713 N 0.97619 0.61385 0.30129 0.0
C714 C 0.98932 0.61459 0.22748 0.0
C715 C 0.01875 0.62953 0.23027 0.0
C716 C 0.38494 0.9891 0.08636 0.0
C717 C 0.37883 0.97327 0.16131 0.0
C718 C 0.39914 0.01796 0.08945 0.0
C719 C 0.40793 0.03232 0.16762 0.0
H720 H 0.37958 0.97922 0.0243 0.0
H721 H 0.40408 0.02903 0.02949 0.0
S722 S 0.39467 1.00066 0.38338 0.0
N723 N 0.38086 0.97434 0.3169 0.0
N724 N 0.40747 0.02825 0.32241 0.0
C725 C 0.40064 0.01674 0.24333 0.0
C726 C 0.38615 0.98736 0.24025 0.0
C727 C 0.38369 0.39584 0.24357 0.0
C728 C 0.37869 0.40668 0.16906 0.0
C729 C 0.39803 0.38131 0.2405 0.0
C730 C 0.40804 0.37698 0.1628 0.0
H731 H 0.37729 0.39932 0.3054 0.0
H732 H 0.40205 0.37424 0.30021 0.0
S733 S 0.39841 0.39902 0.94795 0.0
N734 N 0.3834 0.41032 0.01412 0.0
N735 N 0.41021 0.38323 0.00861 0.0
C736 C 0.40197 0.38649 0.08728 0.0
C737 C 0.38736 0.40126 0.09036 0.0
loop_
_geom_bond_atom_site_label_1
_geom_bond_atom_site_label_2
_geom_bond_distance
_geom_bond_site_symmetry_2
_ccdc_geom_bond_type
Co0 O3 1.970 . S
Co0 N17 1.989 . S
Co0 O25 1.967 . S
Co0 O32 1.920 . S
Co1 O4 1.966 . S
Co1 N10 2.022 1_554 S
Co1 N18 1.993 . S
Co1 O26 1.941 . S
C2 O3 1.258 . S
C2 O4 1.263 . S
O3 Co0 1.970 . S
O3 C2 1.258 . S
O4 Co1 1.966 . S
O4 C2 1.263 . S
C5 O6 1.235 . S
C5 O32 1.289 . S
O6 C5 1.235 . S
C7 C9 1.400 . S
C7 N10 1.351 . S
C7 C12 1.501 . S
C8 C9 1.387 . S
C8 N11 1.341 . S
C9 C7 1.400 . S
C9 C8 1.387 . S
N10 Co1 2.022 1_556 S
N10 C7 1.351 . S
N10 N11 1.365 . S
N11 C8 1.341 . S
N11 N10 1.365 . S
N11 H31 0.862 . S
C12 C7 1.501 . S
C12 H13 0.961 . S
C12 H14 0.961 . S
C12 H15 0.960 . S
H13 C12 0.961 . S
H14 C12 0.961 . S
H15 C12 0.960 . S
C16 N17 1.342 . S
C16 C20 1.401 . S
C16 C21 1.499 . S
N17 Co0 1.989 . S
N17 C16 1.342 . S
N17 N18 1.388 . S
N18 Co1 1.993 . S
N18 N17 1.388 . S
N18 C19 1.346 . S
C19 N18 1.346 . S
C19 C20 1.396 . S
C19 C29 1.510 1_554 S
C20 C16 1.401 . S
C20 C19 1.396 . S
C21 C16 1.499 . S
C21 H22 0.959 . S
C21 H23 0.960 . S
C21 H24 0.961 . S
H22 C21 0.959 . S
H23 C21 0.960 . S
H24 C21 0.961 . S
O25 Co0 1.967 . S
O25 C33 1.258 . S
O26 Co1 1.941 . S
O26 C33 1.266 . S
H27 C29 0.959 . S
H28 C29 0.961 . S
C29 C19 1.510 1_556 S
C29 H27 0.959 . S
C29 H28 0.961 . S
C29 H30 0.960 . S
H30 C29 0.960 . S
H31 N11 0.862 . S
O32 Co0 1.920 . S
O32 C5 1.289 . S
C33 O25 1.258 . S
C33 O26 1.266 . S
Co34 O37 1.970 . S
Co34 N51 1.989 . S
Co34 O59 1.967 . S
Co34 O66 1.920 . S
Co35 O38 1.966 . S
Co35 N44 2.022 1_554 S
Co35 N52 1.993 . S
Co35 O60 1.941 . S
C36 O37 1.258 . S
C36 O38 1.263 . S
O37 Co34 1.970 . S
O37 C36 1.258 . S
O38 Co35 1.966 . S
O38 C36 1.263 . S
C39 O40 1.235 . S
C39 O66 1.289 . S
O40 C39 1.235 . S
C41 C43 1.400 . S
C41 N44 1.351 . S
C41 C46 1.501 . S
C42 C43 1.387 . S
C42 N45 1.341 . S
C43 C41 1.400 . S
C43 C42 1.387 . S
N44 Co35 2.022 1_556 S
N44 C41 1.351 . S
N44 N45 1.365 . S
N45 C42 1.341 . S
N45 N44 1.365 . S
N45 H65 0.862 . S
C46 C41 1.501 . S
C46 H47 0.961 . S
C46 H48 0.961 . S
C46 H49 0.960 . S
H47 C46 0.961 . S
H48 C46 0.961 . S
H49 C46 0.960 . S
C50 N51 1.342 . S
C50 C54 1.401 . S
C50 C55 1.499 . S
N51 Co34 1.989 . S
N51 C50 1.342 . S
N51 N52 1.388 . S
N52 Co35 1.993 . S
N52 N51 1.388 . S
N52 C53 1.346 . S
C53 N52 1.346 . S
C53 C54 1.396 . S
C53 C63 1.510 1_554 S
C54 C50 1.401 . S
C54 C53 1.396 . S
C55 C50 1.499 . S
C55 H56 0.959 . S
C55 H57 0.960 . S
C55 H58 0.961 . S
H56 C55 0.959 . S
H57 C55 0.960 . S
H58 C55 0.961 . S
O59 Co34 1.967 . S
O59 C67 1.258 . S
O60 Co35 1.941 . S
O60 C67 1.266 . S
H61 C63 0.959 . S
H62 C63 0.961 . S
C63 C53 1.510 1_556 S
C63 H61 0.959 . S
C63 H62 0.961 . S
C63 H64 0.960 . S
H64 C63 0.960 . S
H65 N45 0.862 . S
O66 Co34 1.920 . S
O66 C39 1.289 . S
C67 O59 1.258 . S
C67 O60 1.266 . S
Co68 O71 1.970 . S
Co68 N85 1.989 . S
Co68 O93 1.967 . S
Co68 O100 1.920 . S
Co69 O72 1.966 . S
Co69 N78 2.022 1_554 S
Co69 N86 1.993 . S
Co69 O94 1.941 . S
C70 O71 1.258 . S
C70 O72 1.263 . S
O71 Co68 1.970 . S
O71 C70 1.258 . S
O72 Co69 1.966 . S
O72 C70 1.263 . S
C73 O74 1.235 . S
C73 O100 1.289 . S
O74 C73 1.235 . S
C75 C77 1.400 . S
C75 N78 1.351 . S
C75 C80 1.501 . S
C76 C77 1.387 . S
C76 N79 1.341 . S
C77 C75 1.400 . S
C77 C76 1.387 . S
N78 Co69 2.022 1_556 S
N78 C75 1.351 . S
N78 N79 1.365 . S
N79 C76 1.341 . S
N79 N78 1.365 . S
N79 H99 0.862 . S
C80 C75 1.501 . S
C80 H81 0.961 . S
C80 H82 0.961 . S
C80 H83 0.960 . S
H81 C80 0.961 . S
H82 C80 0.961 . S
H83 C80 0.960 . S
C84 N85 1.342 . S
C84 C88 1.401 . S
C84 C89 1.499 . S
N85 Co68 1.989 . S
N85 C84 1.342 . S
N85 N86 1.388 . S
N86 Co69 1.993 . S
N86 N85 1.388 . S
N86 C87 1.346 . S
C87 N86 1.346 . S
C87 C88 1.396 . S
C87 C97 1.510 1_554 S
C88 C84 1.401 . S
C88 C87 1.396 . S
C89 C84 1.499 . S
C89 H90 0.959 . S
C89 H91 0.960 . S
C89 H92 0.961 . S
H90 C89 0.959 . S
H91 C89 0.960 . S
H92 C89 0.961 . S
O93 Co68 1.967 . S
O93 C101 1.258 . S
O94 Co69 1.941 . S
O94 C101 1.266 . S
H95 C97 0.959 . S
H96 C97 0.961 . S
C97 C87 1.510 1_556 S
C97 H95 0.959 . S
C97 H96 0.961 . S
C97 H98 0.960 . S
H98 C97 0.960 . S
H99 N79 0.862 . S
O100 Co68 1.920 . S
O100 C73 1.289 . S
C101 O93 1.258 . S
C101 O94 1.266 . S
Co102 O105 1.970 . S
Co102 N119 1.989 . S
Co102 O127 1.967 . S
Co102 O134 1.920 . S
Co103 O106 1.966 . S
Co103 N112 2.022 1_554 S
Co103 N120 1.993 . S
Co103 O128 1.941 . S
C104 O105 1.258 . S
C104 O106 1.263 . S
O105 Co102 1.970 . S
O105 C104 1.258 . S
O106 Co103 1.966 . S
O106 C104 1.263 . S
C107 O108 1.235 . S
C107 O134 1.289 . S
O108 C107 1.235 . S
C109 C111 1.400 . S
C109 N112 1.351 . S
C109 C114 1.501 . S
C110 C111 1.387 . S
C110 N113 1.341 . S
C111 C109 1.400 . S
C111 C110 1.387 . S
N112 Co103 2.022 1_556 S
N112 C109 1.351 . S
N112 N113 1.365 . S
N113 C110 1.341 . S
N113 N112 1.365 . S
N113 H133 0.862 . S
C114 C109 1.501 . S
C114 H115 0.961 . S
C114 H116 0.961 . S
C114 H117 0.960 . S
H115 C114 0.961 . S
H116 C114 0.961 . S
H117 C114 0.960 . S
C118 N119 1.342 . S
C118 C122 1.401 . S
C118 C123 1.499 . S
N119 Co102 1.989 . S
N119 C118 1.342 . S
N119 N120 1.388 . S
N120 Co103 1.993 . S
N120 N119 1.388 . S
N120 C121 1.346 . S
C121 N120 1.346 . S
C121 C122 1.396 . S
C121 C131 1.510 1_554 S
C122 C118 1.401 . S
C122 C121 1.396 . S
C123 C118 1.499 . S
C123 H124 0.959 . S
C123 H125 0.960 . S
C123 H126 0.961 . S
H124 C123 0.959 . S
H125 C123 0.960 . S
H126 C123 0.961 . S
O127 Co102 1.967 . S
O127 C135 1.258 . S
O128 Co103 1.941 . S
O128 C135 1.266 . S
H129 C131 0.959 . S
H130 C131 0.961 . S
C131 C121 1.510 1_556 S
C131 H129 0.959 . S
C131 H130 0.961 . S
C131 H132 0.960 . S
H132 C131 0.960 . S
H133 N113 0.862 . S
O134 Co102 1.920 . S
O134 C107 1.289 . S
C135 O127 1.258 . S
C135 O128 1.266 . S
Co136 O139 1.970 . S
Co136 N153 1.989 . S
Co136 O161 1.967 . S
Co136 O168 1.920 . S
Co137 O140 1.966 . S
Co137 N146 2.022 1_554 S
Co137 N154 1.993 . S
Co137 O162 1.941 . S
C138 O139 1.258 . S
C138 O140 1.263 . S
O139 Co136 1.970 . S
O139 C138 1.258 . S
O140 Co137 1.966 . S
O140 C138 1.263 . S
C141 O142 1.235 . S
C141 O168 1.289 . S
O142 C141 1.235 . S
C143 C145 1.400 . S
C143 N146 1.351 . S
C143 C148 1.501 . S
C144 C145 1.387 . S
C144 N147 1.341 . S
C145 C143 1.400 . S
C145 C144 1.387 . S
N146 Co137 2.022 1_556 S
N146 C143 1.351 . S
N146 N147 1.365 . S
N147 C144 1.341 . S
N147 N146 1.365 . S
N147 H167 0.862 . S
C148 C143 1.501 . S
C148 H149 0.961 . S
C148 H150 0.961 . S
C148 H151 0.960 . S
H149 C148 0.961 . S
H150 C148 0.961 . S
H151 C148 0.960 . S
C152 N153 1.342 . S
C152 C156 1.401 . S
C152 C157 1.499 . S
N153 Co136 1.989 . S
N153 C152 1.342 . S
N153 N154 1.388 . S
N154 Co137 1.993 . S
N154 N153 1.388 . S
N154 C155 1.346 . S
C155 N154 1.346 . S
C155 C156 1.396 . S
C155 C165 1.510 1_554 S
C156 C152 1.401 . S
C156 C155 1.396 . S
C157 C152 1.499 . S
C157 H158 0.959 . S
C157 H159 0.960 . S
C157 H160 0.961 . S
H158 C157 0.959 . S
H159 C157 0.960 . S
H160 C157 0.961 . S
O161 Co136 1.967 . S
O161 C169 1.258 . S
O162 Co137 1.941 . S
O162 C169 1.266 . S
H163 C165 0.959 . S
H164 C165 0.961 . S
C165 C155 1.510 1_556 S
C165 H163 0.959 . S
C165 H164 0.961 . S
C165 H166 0.960 . S
H166 C165 0.960 . S
H167 N147 0.862 . S
O168 Co136 1.920 . S
O168 C141 1.289 . S
C169 O161 1.258 . S
C169 O162 1.266 . S
Co170 O173 1.970 . S
Co170 N187 1.989 . S
Co170 O195 1.967 . S
Co170 O202 1.920 . S
Co171 O174 1.966 . S
Co171 N180 2.022 1_554 S
Co171 N188 1.993 . S
Co171 O196 1.941 . S
C172 O173 1.258 . S
C172 O174 1.263 . S
O173 Co170 1.970 . S
O173 C172 1.258 . S
O174 Co171 1.966 . S
O174 C172 1.263 . S
C175 O176 1.235 . S
C175 O202 1.289 . S
O176 C175 1.235 . S
C177 C179 1.400 . S
C177 N180 1.351 . S
C177 C182 1.501 . S
C178 C179 1.387 . S
C178 N181 1.341 . S
C179 C177 1.400 . S
C179 C178 1.387 . S
N180 Co171 2.022 1_556 S
N180 C177 1.351 . S
N180 N181 1.365 . S
N181 C178 1.341 . S
N181 N180 1.365 . S
N181 H201 0.862 . S
C182 C177 1.501 . S
C182 H183 0.961 . S
C182 H184 0.961 . S
C182 H185 0.960 . S
H183 C182 0.961 . S
H184 C182 0.961 . S
H185 C182 0.960 . S
C186 N187 1.342 . S
C186 C190 1.401 . S
C186 C191 1.499 . S
N187 Co170 1.989 . S
N187 C186 1.342 . S
N187 N188 1.388 . S
N188 Co171 1.993 . S
N188 N187 1.388 . S
N188 C189 1.346 . S
C189 N188 1.346 . S
C189 C190 1.396 . S
C189 C199 1.510 1_554 S
C190 C186 1.401 . S
C190 C189 1.396 . S
C191 C186 1.499 . S
C191 H192 0.959 . S
C191 H193 0.960 . S
C191 H194 0.961 . S
H192 C191 0.959 . S
H193 C191 0.960 . S
H194 C191 0.961 . S
O195 Co170 1.967 . S
O195 C203 1.258 . S
O196 Co171 1.941 . S
O196 C203 1.266 . S
H197 C199 0.959 . S
H198 C199 0.961 . S
C199 C189 1.510 1_556 S
C199 H197 0.959 . S
C199 H198 0.961 . S
C199 H200 0.960 . S
H200 C199 0.960 . S
H201 N181 0.862 . S
O202 Co170 1.920 . S
O202 C175 1.289 . S
C203 O195 1.258 . S
C203 O196 1.266 . S
Co204 O207 1.970 . S
Co204 N221 1.989 . S
Co204 O229 1.967 . S
Co204 O236 1.920 1_554 S
Co205 O208 1.966 . S
Co205 N214 2.022 . S
Co205 N222 1.993 . S
Co205 O230 1.941 . S
C206 O207 1.258 . S
C206 O208 1.263 . S
O207 Co204 1.970 . S
O207 C206 1.258 . S
O208 Co205 1.966 . S
O208 C206 1.263 . S
C209 O210 1.235 . S
C209 O236 1.289 . S
O210 C209 1.235 . S
C211 C213 1.400 . S
C211 N214 1.351 . S
C211 C216 1.501 . S
C212 C213 1.387 . S
C212 N215 1.341 . S
C213 C211 1.400 . S
C213 C212 1.387 . S
N214 Co205 2.022 . S
N214 C211 1.351 . S
N214 N215 1.365 . S
N215 C212 1.341 . S
N215 N214 1.365 . S
N215 H235 0.862 . S
C216 C211 1.501 . S
C216 H217 0.961 . S
C216 H218 0.961 . S
C216 H219 0.960 . S
H217 C216 0.961 . S
H218 C216 0.961 . S
H219 C216 0.960 . S
C220 N221 1.342 . S
C220 C224 1.401 . S
C220 C225 1.499 . S
N221 Co204 1.989 . S
N221 C220 1.342 . S
N221 N222 1.388 . S
N222 Co205 1.993 . S
N222 N221 1.388 . S
N222 C223 1.346 . S
C223 N222 1.346 . S
C223 C224 1.396 . S
C223 C233 1.510 . S
C224 C220 1.401 . S
C224 C223 1.396 . S
C225 C220 1.499 . S
C225 H226 0.959 1_554 S
C225 H227 0.960 . S
C225 H228 0.961 . S
H226 C225 0.959 1_556 S
H227 C225 0.960 . S
H228 C225 0.961 . S
O229 Co204 1.967 . S
O229 C237 1.258 . S
O230 Co205 1.941 . S
O230 C237 1.266 . S
H231 C233 0.959 . S
H232 C233 0.961 . S
C233 C223 1.510 . S
C233 H231 0.959 . S
C233 H232 0.961 . S
C233 H234 0.960 . S
H234 C233 0.960 . S
H235 N215 0.862 . S
O236 Co204 1.920 1_556 S
O236 C209 1.289 . S
C237 O229 1.258 . S
C237 O230 1.266 . S
Co238 O241 1.970 . S
Co238 N255 1.989 . S
Co238 O263 1.967 . S
Co238 O270 1.920 1_554 S
Co239 O242 1.966 . S
Co239 N248 2.022 . S
Co239 N256 1.993 . S
Co239 O264 1.941 . S
C240 O241 1.258 . S
C240 O242 1.263 . S
O241 Co238 1.970 . S
O241 C240 1.258 . S
O242 Co239 1.966 . S
O242 C240 1.263 . S
C243 O244 1.235 . S
C243 O270 1.289 . S
O244 C243 1.235 . S
C245 C247 1.400 . S
C245 N248 1.351 . S
C245 C250 1.501 . S
C246 C247 1.387 . S
C246 N249 1.341 . S
C247 C245 1.400 . S
C247 C246 1.387 . S
N248 Co239 2.022 . S
N248 C245 1.351 . S
N248 N249 1.365 . S
N249 C246 1.341 . S
N249 N248 1.365 . S
N249 H269 0.862 . S
C250 C245 1.501 . S
C250 H251 0.961 . S
C250 H252 0.961 . S
C250 H253 0.960 . S
H251 C250 0.961 . S
H252 C250 0.961 . S
H253 C250 0.960 . S
C254 N255 1.342 . S
C254 C258 1.401 . S
C254 C259 1.499 . S
N255 Co238 1.989 . S
N255 C254 1.342 . S
N255 N256 1.388 . S
N256 Co239 1.993 . S
N256 N255 1.388 . S
N256 C257 1.346 . S
C257 N256 1.346 . S
C257 C258 1.396 . S
C257 C267 1.510 . S
C258 C254 1.401 . S
C258 C257 1.396 . S
C259 C254 1.499 . S
C259 H260 0.959 1_554 S
C259 H261 0.960 . S
C259 H262 0.961 . S
H260 C259 0.959 1_556 S
H261 C259 0.960 . S
H262 C259 0.961 . S
O263 Co238 1.967 . S
O263 C271 1.258 . S
O264 Co239 1.941 . S
O264 C271 1.266 . S
H265 C267 0.959 . S
H266 C267 0.961 . S
C267 C257 1.510 . S
C267 H265 0.959 . S
C267 H266 0.961 . S
C267 H268 0.960 . S
H268 C267 0.960 . S
H269 N249 0.862 . S
O270 Co238 1.920 1_556 S
O270 C243 1.289 . S
C271 O263 1.258 . S
C271 O264 1.266 . S
Co272 O275 1.970 . S
Co272 N289 1.989 . S
Co272 O297 1.967 . S
Co272 O304 1.920 1_554 S
Co273 O276 1.966 . S
Co273 N282 2.022 . S
Co273 N290 1.993 . S
Co273 O298 1.941 . S
C274 O275 1.258 . S
C274 O276 1.263 . S
O275 Co272 1.970 . S
O275 C274 1.258 . S
O276 Co273 1.966 . S
O276 C274 1.263 . S
C277 O278 1.235 . S
C277 O304 1.289 . S
O278 C277 1.235 . S
C279 C281 1.400 . S
C279 N282 1.351 . S
C279 C284 1.501 . S
C280 C281 1.387 . S
C280 N283 1.341 . S
C281 C279 1.400 . S
C281 C280 1.387 . S
N282 Co273 2.022 . S
N282 C279 1.351 . S
N282 N283 1.365 . S
N283 C280 1.341 . S
N283 N282 1.365 . S
N283 H303 0.862 . S
C284 C279 1.501 . S
C284 H285 0.961 . S
C284 H286 0.961 . S
C284 H287 0.960 . S
H285 C284 0.961 . S
H286 C284 0.961 . S
H287 C284 0.960 . S
C288 N289 1.342 . S
C288 C292 1.401 . S
C288 C293 1.499 . S
N289 Co272 1.989 . S
N289 C288 1.342 . S
N289 N290 1.388 . S
N290 Co273 1.993 . S
N290 N289 1.388 . S
N290 C291 1.346 . S
C291 N290 1.346 . S
C291 C292 1.396 . S
C291 C301 1.510 . S
C292 C288 1.401 . S
C292 C291 1.396 . S
C293 C288 1.499 . S
C293 H294 0.959 1_554 S
C293 H295 0.960 . S
C293 H296 0.961 . S
H294 C293 0.959 1_556 S
H295 C293 0.960 . S
H296 C293 0.961 . S
O297 Co272 1.967 . S
O297 C305 1.258 . S
O298 Co273 1.941 . S
O298 C305 1.266 . S
H299 C301 0.959 . S
H300 C301 0.961 . S
C301 C291 1.510 . S
C301 H299 0.959 . S
C301 H300 0.961 . S
C301 H302 0.960 . S
H302 C301 0.960 . S
H303 N283 0.862 . S
O304 Co272 1.920 1_556 S
O304 C277 1.289 . S
C305 O297 1.258 . S
C305 O298 1.266 . S
Co306 O309 1.970 . S
Co306 N323 1.989 . S
Co306 O331 1.967 . S
Co306 O338 1.920 1_554 S
Co307 O310 1.966 . S
Co307 N316 2.022 . S
Co307 N324 1.993 . S
Co307 O332 1.941 . S
C308 O309 1.258 . S
C308 O310 1.263 . S
O309 Co306 1.970 . S
O309 C308 1.258 . S
O310 Co307 1.966 . S
O310 C308 1.263 . S
C311 O312 1.235 . S
C311 O338 1.289 . S
O312 C311 1.235 . S
C313 C315 1.400 . S
C313 N316 1.351 . S
C313 C318 1.501 . S
C314 C315 1.387 . S
C314 N317 1.341 . S
C315 C313 1.400 . S
C315 C314 1.387 . S
N316 Co307 2.022 . S
N316 C313 1.351 . S
N316 N317 1.365 . S
N317 C314 1.341 . S
N317 N316 1.365 . S
N317 H337 0.862 . S
C318 C313 1.501 . S
C318 H319 0.961 . S
C318 H320 0.961 . S
C318 H321 0.960 . S
H319 C318 0.961 . S
H320 C318 0.961 . S
H321 C318 0.960 . S
C322 N323 1.342 . S
C322 C326 1.401 . S
C322 C327 1.499 . S
N323 Co306 1.989 . S
N323 C322 1.342 . S
N323 N324 1.388 . S
N324 Co307 1.993 . S
N324 N323 1.388 . S
N324 C325 1.346 . S
C325 N324 1.346 . S
C325 C326 1.396 . S
C325 C335 1.510 . S
C326 C322 1.401 . S
C326 C325 1.396 . S
C327 C322 1.499 . S
C327 H328 0.959 1_554 S
C327 H329 0.960 . S
C327 H330 0.961 . S
H328 C327 0.959 1_556 S
H329 C327 0.960 . S
H330 C327 0.961 . S
O331 Co306 1.967 . S
O331 C339 1.258 . S
O332 Co307 1.941 . S
O332 C339 1.266 . S
H333 C335 0.959 . S
H334 C335 0.961 . S
C335 C325 1.510 . S
C335 H333 0.959 . S
C335 H334 0.961 . S
C335 H336 0.960 . S
H336 C335 0.960 . S
H337 N317 0.862 . S
O338 Co306 1.920 1_556 S
O338 C311 1.289 . S
C339 O331 1.258 . S
C339 O332 1.266 . S
Co340 O343 1.970 . S
Co340 N357 1.989 . S
Co340 O365 1.967 . S
Co340 O372 1.920 1_554 S
Co341 O344 1.966 . S
Co341 N350 2.022 . S
Co341 N358 1.993 . S
Co341 O366 1.941 . S
C342 O343 1.258 . S
C342 O344 1.263 . S
O343 Co340 1.970 . S
O343 C342 1.258 . S
O344 Co341 1.966 . S
O344 C342 1.263 . S
C345 O346 1.235 . S
C345 O372 1.289 . S
O346 C345 1.235 . S
C347 C349 1.400 . S
C347 N350 1.351 . S
C347 C352 1.501 . S
C348 C349 1.387 . S
C348 N351 1.341 . S
C349 C347 1.400 . S
C349 C348 1.387 . S
N350 Co341 2.022 . S
N350 C347 1.351 . S
N350 N351 1.365 . S
N351 C348 1.341 . S
N351 N350 1.365 . S
N351 H371 0.862 . S
C352 C347 1.501 . S
C352 H353 0.961 . S
C352 H354 0.961 . S
C352 H355 0.960 . S
H353 C352 0.961 . S
H354 C352 0.961 . S
H355 C352 0.960 . S
C356 N357 1.342 . S
C356 C360 1.401 . S
C356 C361 1.499 . S
N357 Co340 1.989 . S
N357 C356 1.342 . S
N357 N358 1.388 . S
N358 Co341 1.993 . S
N358 N357 1.388 . S
N358 C359 1.346 . S
C359 N358 1.346 . S
C359 C360 1.396 . S
C359 C369 1.510 . S
C360 C356 1.401 . S
C360 C359 1.396 . S
C361 C356 1.499 . S
C361 H362 0.959 1_554 S
C361 H363 0.960 . S
C361 H364 0.961 . S
H362 C361 0.959 1_556 S
H363 C361 0.960 . S
H364 C361 0.961 . S
O365 Co340 1.967 . S
O365 C373 1.258 . S
O366 Co341 1.941 . S
O366 C373 1.266 . S
H367 C369 0.959 . S
H368 C369 0.961 . S
C369 C359 1.510 . S
C369 H367 0.959 . S
C369 H368 0.961 . S
C369 H370 0.960 . S
H370 C369 0.960 . S
H371 N351 0.862 . S
O372 Co340 1.920 1_556 S
O372 C345 1.289 . S
C373 O365 1.258 . S
C373 O366 1.266 . S
Co374 O377 1.970 . S
Co374 N391 1.989 . S
Co374 O399 1.967 . S
Co374 O406 1.920 1_554 S
Co375 O378 1.966 . S
Co375 N384 2.022 . S
Co375 N392 1.993 . S
Co375 O400 1.941 . S
C376 O377 1.258 . S
C376 O378 1.263 . S
O377 Co374 1.970 . S
O377 C376 1.258 . S
O378 Co375 1.966 . S
O378 C376 1.263 . S
C379 O380 1.235 . S
C379 O406 1.289 . S
O380 C379 1.235 . S
C381 C383 1.400 . S
C381 N384 1.351 . S
C381 C386 1.501 . S
C382 C383 1.387 . S
C382 N385 1.341 . S
C383 C381 1.400 . S
C383 C382 1.387 . S
N384 Co375 2.022 . S
N384 C381 1.351 . S
N384 N385 1.365 . S
N385 C382 1.341 . S
N385 N384 1.365 . S
N385 H405 0.862 . S
C386 C381 1.501 . S
C386 H387 0.961 . S
C386 H388 0.961 . S
C386 H389 0.960 . S
H387 C386 0.961 . S
H388 C386 0.961 . S
H389 C386 0.960 . S
C390 N391 1.342 . S
C390 C394 1.401 . S
C390 C395 1.499 . S
N391 Co374 1.989 . S
N391 C390 1.342 . S
N391 N392 1.388 . S
N392 Co375 1.993 . S
N392 N391 1.388 . S
N392 C393 1.346 . S
C393 N392 1.346 . S
C393 C394 1.396 . S
C393 C403 1.510 . S
C394 C390 1.401 . S
C394 C393 1.396 . S
C395 C390 1.499 . S
C395 H396 0.959 1_554 S
C395 H397 0.960 . S
C395 H398 0.961 . S
H396 C395 0.959 1_556 S
H397 C395 0.960 . S
H398 C395 0.961 . S
O399 Co374 1.967 . S
O399 C407 1.258 . S
O400 Co375 1.941 . S
O400 C407 1.266 . S
H401 C403 0.959 . S
H402 C403 0.961 . S
C403 C393 1.510 . S
C403 H401 0.959 . S
C403 H402 0.961 . S
C403 H404 0.960 . S
H404 C403 0.960 . S
H405 N385 0.862 . S
O406 Co374 1.920 1_556 S
O406 C379 1.289 . S
C407 O399 1.258 . S
C407 O400 1.266 . S
C408 C409 1.369 . S
C408 C410 1.419 . S
C408 H412 0.930 . S
C409 C408 1.369 . S
C409 C418 1.429 . S
C410 C408 1.419 . S
C410 C411 1.363 . S
C410 H413 0.929 . S
C411 C410 1.363 . S
C411 C417 1.428 . S
H412 C408 0.930 . S
H413 C410 0.929 . S
S414 N415 1.613 . S
S414 N416 1.610 . S
N415 S414 1.613 . S
N415 C418 1.350 . S
N416 S414 1.610 . S
N416 C417 1.351 . S
C417 C411 1.428 . S
C417 N416 1.351 . S
C417 C418 1.434 . S
C418 C409 1.429 . S
C418 N415 1.350 . S
C418 C417 1.434 . S
C419 C420 1.369 . S
C419 C421 1.419 . S
C419 H423 0.930 . S
C420 C419 1.369 . S
C420 C429 1.429 . S
C421 C419 1.419 . S
C421 C422 1.363 . S
C421 H424 0.929 . S
C422 C421 1.363 . S
C422 C428 1.428 . S
H423 C419 0.930 . S
H424 C421 0.929 . S
S425 N426 1.613 . S
S425 N427 1.610 . S
N426 S425 1.613 . S
N426 C429 1.350 . S
N427 S425 1.610 . S
N427 C428 1.351 . S
C428 C422 1.428 . S
C428 N427 1.351 . S
C428 C429 1.434 . S
C429 C420 1.429 . S
C429 N426 1.350 . S
C429 C428 1.434 . S
C430 C431 1.369 . S
C430 C432 1.419 . S
C430 H434 0.930 . S
C431 C430 1.369 . S
C431 C440 1.429 . S
C432 C430 1.419 . S
C432 C433 1.363 . S
C432 H435 0.929 . S
C433 C432 1.363 . S
C433 C439 1.428 . S
H434 C430 0.930 . S
H435 C432 0.929 . S
S436 N437 1.613 . S
S436 N438 1.610 . S
N437 S436 1.613 . S
N437 C440 1.350 . S
N438 S436 1.610 . S
N438 C439 1.351 . S
C439 C433 1.428 . S
C439 N438 1.351 . S
C439 C440 1.434 . S
C440 C431 1.429 . S
C440 N437 1.350 . S
C440 C439 1.434 . S
C441 C442 1.369 . S
C441 C443 1.419 . S
C441 H445 0.930 . S
C442 C441 1.369 . S
C442 C451 1.429 . S
C443 C441 1.419 . S
C443 C444 1.363 . S
C443 H446 0.929 . S
C444 C443 1.363 . S
C444 C450 1.428 . S
H445 C441 0.930 . S
H446 C443 0.929 . S
S447 N448 1.613 . S
S447 N449 1.610 . S
N448 S447 1.613 . S
N448 C451 1.350 . S
N449 S447 1.610 . S
N449 C450 1.351 . S
C450 C444 1.428 . S
C450 N449 1.351 . S
C450 C451 1.434 . S
C451 C442 1.429 . S
C451 N448 1.350 . S
C451 C450 1.434 . S
C452 C453 1.369 . S
C452 C454 1.419 . S
C452 H456 0.930 . S
C453 C452 1.369 . S
C453 C462 1.429 . S
C454 C452 1.419 . S
C454 C455 1.363 . S
C454 H457 0.929 . S
C455 C454 1.363 . S
C455 C461 1.428 . S
H456 C452 0.930 . S
H457 C454 0.929 . S
S458 N459 1.613 1_556 S
S458 N460 1.610 1_556 S
N459 S458 1.613 1_554 S
N459 C462 1.350 . S
N460 S458 1.610 1_554 S
N460 C461 1.351 . S
C461 C455 1.428 . S
C461 N460 1.351 . S
C461 C462 1.434 . S
C462 C453 1.429 . S
C462 N459 1.350 . S
C462 C461 1.434 . S
C463 C464 1.369 . S
C463 C465 1.419 . S
C463 H467 0.930 . S
C464 C463 1.369 . S
C464 C473 1.429 . S
C465 C463 1.419 . S
C465 C466 1.363 . S
C465 H468 0.929 . S
C466 C465 1.363 . S
C466 C472 1.428 . S
H467 C463 0.930 . S
H468 C465 0.929 . S
S469 N470 1.613 . S
S469 N471 1.610 . S
N470 S469 1.613 . S
N470 C473 1.350 . S
N471 S469 1.610 . S
N471 C472 1.351 . S
C472 C466 1.428 . S
C472 N471 1.351 . S
C472 C473 1.434 . S
C473 C464 1.429 . S
C473 N470 1.350 . S
C473 C472 1.434 . S
C474 C475 1.369 . S
C474 C476 1.419 . S
C474 H478 0.930 . S
C475 C474 1.369 . S
C475 C484 1.429 . S
C476 C474 1.419 . S
C476 C477 1.363 . S
C476 H479 0.929 . S
C477 C476 1.363 . S
C477 C483 1.428 . S
H478 C474 0.930 . S
H479 C476 0.929 . S
S480 N481 1.613 1_556 S
S480 N482 1.610 1_556 S
N481 S480 1.613 1_554 S
N481 C484 1.350 . S
N482 S480 1.610 1_554 S
N482 C483 1.351 . S
C483 C477 1.428 . S
C483 N482 1.351 . S
C483 C484 1.434 . S
C484 C475 1.429 . S
C484 N481 1.350 . S
C484 C483 1.434 . S
C485 C486 1.369 . S
C485 C487 1.419 . S
C485 H489 0.930 . S
C486 C485 1.369 . S
C486 C495 1.429 . S
C487 C485 1.419 . S
C487 C488 1.363 . S
C487 H490 0.929 . S
C488 C487 1.363 . S
C488 C494 1.428 . S
H489 C485 0.930 . S
H490 C487 0.929 . S
S491 N492 1.613 . S
S491 N493 1.610 . S
N492 S491 1.613 . S
N492 C495 1.350 . S
N493 S491 1.610 . S
N493 C494 1.351 . S
C494 C488 1.428 . S
C494 N493 1.351 . S
C494 C495 1.434 . S
C495 C486 1.429 . S
C495 N492 1.350 . S
C495 C494 1.434 . S
C496 C497 1.369 . S
C496 C498 1.419 . S
C496 H500 0.930 . S
C497 C496 1.369 . S
C497 C506 1.429 . S
C498 C496 1.419 . S
C498 C499 1.363 . S
C498 H501 0.929 . S
C499 C498 1.363 . S
C499 C505 1.428 . S
H500 C496 0.930 . S
H501 C498 0.929 . S
S502 N503 1.613 . S
S502 N504 1.610 . S
N503 S502 1.613 . S
N503 C506 1.350 . S
N504 S502 1.610 . S
N504 C505 1.351 . S
C505 C499 1.428 . S
C505 N504 1.351 . S
C505 C506 1.434 . S
C506 C497 1.429 . S
C506 N503 1.350 . S
C506 C505 1.434 . S
C507 C508 1.369 . S
C507 C509 1.419 . S
C507 H511 0.930 . S
C508 C507 1.369 . S
C508 C517 1.429 . S
C509 C507 1.419 . S
C509 C510 1.363 . S
C509 H512 0.929 . S
C510 C509 1.363 . S
C510 C516 1.428 . S
H511 C507 0.930 . S
H512 C509 0.929 . S
S513 N514 1.613 1_556 S
S513 N515 1.610 1_556 S
N514 S513 1.613 1_554 S
N514 C517 1.350 . S
N515 S513 1.610 1_554 S
N515 C516 1.351 . S
C516 C510 1.428 . S
C516 N515 1.351 . S
C516 C517 1.434 . S
C517 C508 1.429 . S
C517 N514 1.350 . S
C517 C516 1.434 . S
C518 C519 1.369 . S
C518 C520 1.419 . S
C518 H522 0.930 . S
C519 C518 1.369 . S
C519 C528 1.429 . S
C520 C518 1.419 . S
C520 C521 1.363 . S
C520 H523 0.929 . S
C521 C520 1.363 . S
C521 C527 1.428 . S
H522 C518 0.930 . S
H523 C520 0.929 . S
S524 N525 1.613 . S
S524 N526 1.610 . S
N525 S524 1.613 . S
N525 C528 1.350 . S
N526 S524 1.610 . S
N526 C527 1.351 . S
C527 C521 1.428 . S
C527 N526 1.351 . S
C527 C528 1.434 . S
C528 C519 1.429 . S
C528 N525 1.350 . S
C528 C527 1.434 . S
C529 C530 1.369 . S
C529 C531 1.419 . S
C529 H533 0.930 . S
C530 C529 1.369 . S
C530 C539 1.429 . S
C531 C529 1.419 . S
C531 C532 1.363 . S
C531 H534 0.929 . S
C532 C531 1.363 . S
C532 C538 1.428 . S
H533 C529 0.930 . S
H534 C531 0.929 . S
S535 N536 1.613 . S
S535 N537 1.610 . S
N536 S535 1.613 . S
N536 C539 1.350 . S
N537 S535 1.610 . S
N537 C538 1.351 . S
C538 C532 1.428 . S
C538 N537 1.351 . S
C538 C539 1.434 . S
C539 C530 1.429 . S
C539 N536 1.350 . S
C539 C538 1.434 . S
C540 C541 1.369 . S
C540 C542 1.419 . S
C540 H544 0.930 . S
C541 C540 1.369 . S
C541 C550 1.429 . S
C542 C540 1.419 . S
C542 C543 1.363 . S
C542 H545 0.929 . S
C543 C542 1.363 . S
C543 C549 1.428 . S
H544 C540 0.930 . S
H545 C542 0.929 . S
S546 N547 1.613 . S
S546 N548 1.610 . S
N547 S546 1.613 . S
N547 C550 1.350 . S
N548 S546 1.610 . S
N548 C549 1.351 . S
C549 C543 1.428 . S
C549 N548 1.351 . S
C549 C550 1.434 . S
C550 C541 1.429 . S
C550 N547 1.350 . S
C550 C549 1.434 . S
C551 C552 1.369 . S
C551 C553 1.419 . S
C551 H555 0.930 . S
C552 C551 1.369 . S
C552 C561 1.429 . S
C553 C551 1.419 . S
C553 C554 1.363 . S
C553 H556 0.929 . S
C554 C553 1.363 . S
C554 C560 1.428 . S
H555 C551 0.930 . S
H556 C553 0.929 . S
S557 N558 1.613 . S
S557 N559 1.610 . S
N558 S557 1.613 . S
N558 C561 1.350 . S
N559 S557 1.610 . S
N559 C560 1.351 . S
C560 C554 1.428 . S
C560 N559 1.351 . S
C560 C561 1.434 . S
C561 C552 1.429 . S
C561 N558 1.350 . S
C561 C560 1.434 . S
C562 C563 1.369 . S
C562 C564 1.419 . S
C562 H566 0.930 . S
C563 C562 1.369 . S
C563 C572 1.429 . S
C564 C562 1.419 . S
C564 C565 1.363 . S
C564 H567 0.929 . S
C565 C564 1.363 . S
C565 C571 1.428 . S
H566 C562 0.930 . S
H567 C564 0.929 . S
S568 N569 1.613 . S
S568 N570 1.610 . S
N569 S568 1.613 . S
N569 C572 1.350 . S
N570 S568 1.610 . S
N570 C571 1.351 . S
C571 C565 1.428 . S
C571 N570 1.351 . S
C571 C572 1.434 . S
C572 C563 1.429 . S
C572 N569 1.350 . S
C572 C571 1.434 . S
C573 C574 1.369 . S
C573 C575 1.419 . S
C573 H577 0.930 . S
C574 C573 1.369 . S
C574 C583 1.429 . S
C575 C573 1.419 . S
C575 C576 1.363 . S
C575 H578 0.929 . S
C576 C575 1.363 . S
C576 C582 1.428 . S
H577 C573 0.930 . S
H578 C575 0.929 . S
S579 N580 1.613 . S
S579 N581 1.610 . S
N580 S579 1.613 . S
N580 C583 1.350 . S
N581 S579 1.610 . S
N581 C582 1.351 . S
C582 C576 1.428 . S
C582 N581 1.351 . S
C582 C583 1.434 . S
C583 C574 1.429 . S
C583 N580 1.350 . S
C583 C582 1.434 . S
C584 C585 1.369 . S
C584 C586 1.419 . S
C584 H588 0.930 . S
C585 C584 1.369 . S
C585 C594 1.429 . S
C586 C584 1.419 . S
C586 C587 1.363 . S
C586 H589 0.929 . S
C587 C586 1.363 . S
C587 C593 1.428 . S
H588 C584 0.930 . S
H589 C586 0.929 . S
S590 N591 1.613 . S
S590 N592 1.610 . S
N591 S590 1.613 . S
N591 C594 1.350 . S
N592 S590 1.610 . S
N592 C593 1.351 . S
C593 C587 1.428 . S
C593 N592 1.351 . S
C593 C594 1.434 . S
C594 C585 1.429 . S
C594 N591 1.350 . S
C594 C593 1.434 . S
C595 C596 1.369 . S
C595 C597 1.419 . S
C595 H599 0.930 . S
C596 C595 1.369 . S
C596 C605 1.429 . S
C597 C595 1.419 . S
C597 C598 1.363 . S
C597 H600 0.929 . S
C598 C597 1.363 . S
C598 C604 1.428 . S
H599 C595 0.930 . S
H600 C597 0.929 . S
S601 N602 1.613 . S
S601 N603 1.610 . S
N602 S601 1.613 . S
N602 C605 1.350 . S
N603 S601 1.610 . S
N603 C604 1.351 . S
C604 C598 1.428 . S
C604 N603 1.351 . S
C604 C605 1.434 . S
C605 C596 1.429 . S
C605 N602 1.350 . S
C605 C604 1.434 . S
C606 C607 1.369 . S
C606 C608 1.419 . S
C606 H610 0.930 . S
C607 C606 1.369 . S
C607 C616 1.429 . S
C608 C606 1.419 . S
C608 C609 1.363 . S
C608 H611 0.929 . S
C609 C608 1.363 . S
C609 C615 1.428 . S
H610 C606 0.930 . S
H611 C608 0.929 . S
S612 N613 1.613 . S
S612 N614 1.610 . S
N613 S612 1.613 . S
N613 C616 1.350 . S
N614 S612 1.610 . S
N614 C615 1.351 . S
C615 C609 1.428 . S
C615 N614 1.351 . S
C615 C616 1.434 . S
C616 C607 1.429 . S
C616 N613 1.350 . S
C616 C615 1.434 . S
C617 C618 1.369 . S
C617 C619 1.419 . S
C617 H621 0.930 . S
C618 C617 1.369 . S
C618 C627 1.429 . S
C619 C617 1.419 . S
C619 C620 1.363 . S
C619 H622 0.929 . S
C620 C619 1.363 . S
C620 C626 1.428 . S
H621 C617 0.930 . S
H622 C619 0.929 . S
S623 N624 1.613 . S
S623 N625 1.610 . S
N624 S623 1.613 . S
N624 C627 1.350 . S
N625 S623 1.610 . S
N625 C626 1.351 . S
C626 C620 1.428 . S
C626 N625 1.351 . S
C626 C627 1.434 . S
C627 C618 1.429 . S
C627 N624 1.350 . S
C627 C626 1.434 . S
C628 C629 1.369 . S
C628 C630 1.419 . S
C628 H632 0.930 . S
C629 C628 1.369 . S
C629 C638 1.429 . S
C630 C628 1.419 . S
C630 C631 1.363 . S
C630 H633 0.929 . S
C631 C630 1.363 . S
C631 C637 1.428 . S
H632 C628 0.930 . S
H633 C630 0.929 . S
S634 N635 1.613 . S
S634 N636 1.610 . S
N635 S634 1.613 . S
N635 C638 1.350 . S
N636 S634 1.610 . S
N636 C637 1.351 . S
C637 C631 1.428 . S
C637 N636 1.351 . S
C637 C638 1.434 . S
C638 C629 1.429 . S
C638 N635 1.350 . S
C638 C637 1.434 . S
C639 C640 1.369 . S
C639 C641 1.419 . S
C639 H643 0.930 . S
C640 C639 1.369 . S
C640 C649 1.429 . S
C641 C639 1.419 . S
C641 C642 1.363 . S
C641 H644 0.929 . S
C642 C641 1.363 . S
C642 C648 1.428 . S
H643 C639 0.930 . S
H644 C641 0.929 . S
S645 N646 1.613 . S
S645 N647 1.610 . S
N646 S645 1.613 . S
N646 C649 1.350 . S
N647 S645 1.610 . S
N647 C648 1.351 . S
C648 C642 1.428 . S
C648 N647 1.351 . S
C648 C649 1.434 . S
C649 C640 1.429 . S
C649 N646 1.350 . S
C649 C648 1.434 . S
C650 C651 1.369 . S
C650 C652 1.419 . S
C650 H654 0.930 . S
C651 C650 1.369 . S
C651 C660 1.429 . S
C652 C650 1.419 . S
C652 C653 1.363 . S
C652 H655 0.929 . S
C653 C652 1.363 . S
C653 C659 1.428 . S
H654 C650 0.930 . S
H655 C652 0.929 . S
S656 N657 1.613 . S
S656 N658 1.610 . S
N657 S656 1.613 . S
N657 C660 1.350 . S
N658 S656 1.610 . S
N658 C659 1.351 . S
C659 C653 1.428 . S
C659 N658 1.351 . S
C659 C660 1.434 . S
C660 C651 1.429 . S
C660 N657 1.350 . S
C660 C659 1.434 . S
C661 C662 1.369 . S
C661 C663 1.419 . S
C661 H665 0.930 . S
C662 C661 1.369 . S
C662 C671 1.429 . S
C663 C661 1.419 . S
C663 C664 1.363 . S
C663 H666 0.929 . S
C664 C663 1.363 . S
C664 C670 1.428 . S
H665 C661 0.930 . S
H666 C663 0.929 . S
S667 N668 1.613 . S
S667 N669 1.610 . S
N668 S667 1.613 . S
N668 C671 1.350 . S
N669 S667 1.610 . S
N669 C670 1.351 . S
C670 C664 1.428 . S
C670 N669 1.351 . S
C670 C671 1.434 . S
C671 C662 1.429 . S
C671 N668 1.350 . S
C671 C670 1.434 . S
C672 C673 1.369 . S
C672 C674 1.419 1_455 S
C672 H676 0.930 . S
C673 C672 1.369 . S
C673 C682 1.429 . S
C674 C672 1.419 1_655 S
C674 C675 1.363 . S
C674 H677 0.929 . S
C675 C674 1.363 . S
C675 C681 1.428 . S
H676 C672 0.930 . S
H677 C674 0.929 . S
S678 N679 1.613 . S
S678 N680 1.610 1_455 S
N679 S678 1.613 . S
N679 C682 1.350 . S
N680 S678 1.610 1_655 S
N680 C681 1.351 . S
C681 C675 1.428 . S
C681 N680 1.351 . S
C681 C682 1.434 1_655 S
C682 C673 1.429 . S
C682 N679 1.350 . S
C682 C681 1.434 1_455 S
C683 C684 1.369 . S
C683 C685 1.419 1_565 S
C683 H687 0.930 . S
C684 C683 1.369 . S
C684 C693 1.429 . S
C685 C683 1.419 1_545 S
C685 C686 1.363 . S
C685 H688 0.929 . S
C686 C685 1.363 . S
C686 C692 1.428 . S
H687 C683 0.930 . S
H688 C685 0.929 . S
S689 N690 1.613 1_556 S
S689 N691 1.610 1_566 S
N690 S689 1.613 1_554 S
N690 C693 1.350 . S
N691 S689 1.610 1_544 S
N691 C692 1.351 . S
C692 C686 1.428 . S
C692 N691 1.351 . S
C692 C693 1.434 1_545 S
C693 C684 1.429 . S
C693 N690 1.350 . S
C693 C692 1.434 1_565 S
C694 C695 1.369 . S
C694 C696 1.419 . S
C694 H698 0.930 . S
C695 C694 1.369 . S
C695 C704 1.429 . S
C696 C694 1.419 . S
C696 C697 1.363 . S
C696 H699 0.929 . S
C697 C696 1.363 . S
C697 C703 1.428 . S
H698 C694 0.930 . S
H699 C696 0.929 . S
S700 N701 1.613 1_556 S
S700 N702 1.610 1_556 S
N701 S700 1.613 1_554 S
N701 C704 1.350 . S
N702 S700 1.610 1_554 S
N702 C703 1.351 . S
C703 C697 1.428 . S
C703 N702 1.351 . S
C703 C704 1.434 . S
C704 C695 1.429 . S
C704 N701 1.350 . S
C704 C703 1.434 . S
C705 C706 1.369 . S
C705 C707 1.419 1_455 S
C705 H709 0.930 . S
C706 C705 1.369 . S
C706 C715 1.429 . S
C707 C705 1.419 1_655 S
C707 C708 1.363 . S
C707 H710 0.929 . S
C708 C707 1.363 . S
C708 C714 1.428 . S
H709 C705 0.930 . S
H710 C707 0.929 . S
S711 N712 1.613 1_655 S
S711 N713 1.610 . S
N712 S711 1.613 1_455 S
N712 C715 1.350 . S
N713 S711 1.610 . S
N713 C714 1.351 . S
C714 C708 1.428 . S
C714 N713 1.351 . S
C714 C715 1.434 1_655 S
C715 C706 1.429 . S
C715 N712 1.350 . S
C715 C714 1.434 1_455 S
C716 C717 1.369 . S
C716 C718 1.419 1_565 S
C716 H720 0.930 . S
C717 C716 1.369 . S
C717 C726 1.429 . S
C718 C716 1.419 1_545 S
C718 C719 1.363 . S
C718 H721 0.929 . S
C719 C718 1.363 . S
C719 C725 1.428 . S
H720 C716 0.930 . S
H721 C718 0.929 . S
S722 N723 1.613 . S
S722 N724 1.610 1_565 S
N723 S722 1.613 . S
N723 C726 1.350 . S
N724 S722 1.610 1_545 S
N724 C725 1.351 . S
C725 C719 1.428 . S
C725 N724 1.351 . S
C725 C726 1.434 1_545 S
C726 C717 1.429 . S
C726 N723 1.350 . S
C726 C725 1.434 1_565 S
C727 C728 1.369 . S
C727 C729 1.419 . S
C727 H731 0.930 . S
C728 C727 1.369 . S
C728 C737 1.429 . S
C729 C727 1.419 . S
C729 C730 1.363 . S
C729 H732 0.929 . S
C730 C729 1.363 . S
C730 C736 1.428 . S
H731 C727 0.930 . S
H732 C729 0.929 . S
S733 N734 1.613 1_556 S
S733 N735 1.610 1_556 S
N734 S733 1.613 1_554 S
N734 C737 1.350 . S
N735 S733 1.610 1_554 S
N735 C736 1.351 . S
C736 C730 1.428 . S
C736 N735 1.351 . S
C736 C737 1.434 . S
C737 C728 1.429 . S
C737 N734 1.350 . S
C737 C736 1.434 . S
C409 C305 1.498 . S
C411 C33 1.498 . S
C420 C67 1.497 . S
C422 C339 1.498 . S
C431 C373 1.496 . S
C433 C101 1.497 . S
C442 C407 1.497 . S
C444 C135 1.497 . S
C453 C169 1.497 . S
C455 C237 1.498 . S
C464 C271 1.496 . S
C466 C203 1.498 . S
C475 C360 1.484 . S
C477 C20 1.486 . S
C486 C394 1.484 . S
C488 C54 1.485 . S
C497 C88 1.487 . S
C499 C224 1.485 . S
C508 C258 1.484 . S
C510 C122 1.486 . S
C519 C292 1.484 . S
C521 C156 1.486 . S
C530 C326 1.486 . S
C532 C190 1.486 . S
C541 C5 1.510 . S
C543 C9 1.399 . S
C552 C39 1.506 . S
C554 C43 1.407 . S
C563 C73 1.507 . S
C565 C77 1.403 . S
C574 C107 1.505 . S
C576 C111 1.409 . S
C585 C145 1.398 . S
C587 C141 1.509 . S
C596 C175 1.505 . S
C598 C179 1.409 . S
C607 C213 1.410 . S
C609 C209 1.506 . S
C618 C243 1.509 . S
C620 C247 1.399 . S
C629 C281 1.409 . S
C631 C277 1.506 . S
C640 C315 1.403 . S
C642 C311 1.507 . S
C651 C345 1.506 . S
C653 C349 1.405 . S
C662 C379 1.507 . S
C664 C383 1.403 . S
C673 C2 1.480 . S
C675 C376 1.483 . S
C684 C206 1.482 . S
C686 C36 1.483 . S
C695 C240 1.481 . S
C697 C70 1.484 . S
C706 C274 1.484 . S
C708 C104 1.481 . S
C717 C138 1.481 . S
C719 C308 1.482 . S
C728 C342 1.481 . S
C730 C172 1.483 . S
