# Generated by pormake.
# Topology vmb, (5)-cn, num edge types: 1
# Building blocks:
#     Node 0, Type 0, BuildingBlock: BEQFEK_clean_sbu_0, # of connection points: 5
#     Node 1, Type 0, BuildingBlock: BEQFEK_clean_sbu_0, # of connection points: 5
#     Node 2, Type 0, BuildingBlock: BEQFEK_clean_sbu_0, # of connection points: 5
#     Node 3, Type 0, BuildingBlock: BEQFEK_clean_sbu_0, # of connection points: 5
#     Node 4, Type 0, BuildingBlock: BEQFEK_clean_sbu_0, # of connection points: 5
#     Node 5, Type 0, BuildingBlock: BEQFEK_clean_sbu_0, # of connection points: 5
#     Node 6, Type 0, BuildingBlock: BEQFEK_clean_sbu_0, # of connection points: 5
#     Node 7, Type 0, BuildingBlock: BEQFEK_clean_sbu_0, # of connection points: 5
#     Edge 8, Type (0, 0), BuildingBlock: UVAHIK_clean_linker_0, # of connection points: 2
#     Edge 9, Type (0, 0), BuildingBlock: UVAHIK_clean_linker_0, # of connection points: 2
#     Edge 10, Type (0, 0), BuildingBlock: UVAHIK_clean_linker_0, # of connection points: 2
#     Edge 11, Type (0, 0), BuildingBlock: UVAHIK_clean_linker_0, # of connection points: 2
#     Edge 12, Type (0, 0), BuildingBlock: UVAHIK_clean_linker_0, # of connection points: 2
#     Edge 13, Type (0, 0), BuildingBlock: UVAHIK_clean_linker_0, # of connection points: 2
#     Edge 14, Type (0, 0), BuildingBlock: UVAHIK_clean_linker_0, # of connection points: 2
#     Edge 15, Type (0, 0), BuildingBlock: UVAHIK_clean_linker_0, # of connection points: 2
#     Edge 16, Type (0, 0), BuildingBlock: UVAHIK_clean_linker_0, # of connection points: 2
#     Edge 17, Type (0, 0), BuildingBlock: UVAHIK_clean_linker_0, # of connection points: 2
#     Edge 18, Type (0, 0), BuildingBlock: UVAHIK_clean_linker_0, # of connection points: 2
#     Edge 19, Type (0, 0), BuildingBlock: UVAHIK_clean_linker_0, # of connection points: 2
#     Edge 20, Type (0, 0), BuildingBlock: UVAHIK_clean_linker_0, # of connection points: 2
#     Edge 21, Type (0, 0), BuildingBlock: UVAHIK_clean_linker_0, # of connection points: 2
#     Edge 22, Type (0, 0), BuildingBlock: UVAHIK_clean_linker_0, # of connection points: 2
#     Edge 23, Type (0, 0), BuildingBlock: UVAHIK_clean_linker_0, # of connection points: 2
#     Edge 24, Type (0, 0), BuildingBlock: UVAHIK_clean_linker_0, # of connection points: 2
#     Edge 25, Type (0, 0), BuildingBlock: UVAHIK_clean_linker_0, # of connection points: 2
#     Edge 26, Type (0, 0), BuildingBlock: UVAHIK_clean_linker_0, # of connection points: 2
#     Edge 27, Type (0, 0), BuildingBlock: UVAHIK_clean_linker_0, # of connection points: 2
# Relax obj value: 0.033
# Max RMSD: 0.088
# Mean RMSD: 0.088
data_MOF--net-vmb--node1-BEQFEK_clean_sbu_0--edge1-UVAHIK_clean_linker_0
_symmetry_space_group_name_H-M    P1
_symmetry_Int_Tables_number       1
_symmetry_cell_setting            triclinic
loop_
_symmetry_equiv_pos_as_xyz
'x, y, z'
_cell_length_a     51.40175
_cell_length_b     48.555565
_cell_length_c     38.061873
_cell_angle_alpha  89.992515
_cell_angle_beta   113.69328
_cell_angle_gamma 90.010564
loop_
_atom_site_label
_atom_site_type_symbol
_atom_site_fract_x
_atom_site_fract_y
_atom_site_fract_z
_atom_type_partial_charge
Co0 Co 0.20889 0.06723 0.35889 0.0
Co1 Co 0.27565 0.07175 0.39341 0.0
C2 C 0.24554 0.03376 0.42689 0.0
O3 O 0.22122 0.04065 0.40197 0.0
O4 O 0.26828 0.04412 0.42675 0.0
C5 C 0.15322 0.04241 0.33063 0.0
O6 O 0.16725 0.02045 0.34852 0.0
C7 C 0.33479 0.05349 0.41748 0.0
C8 C 0.35721 0.09295 0.42145 0.0
C9 C 0.3616 0.0648 0.42654 0.0
N10 N 0.31567 0.07404 0.40773 0.0
N11 N 0.32922 0.09757 0.41027 0.0
C12 C 0.32687 0.02372 0.4157 0.0
H13 H 0.30455 0.02068 0.39499 0.0
H14 H 0.34128 0.01089 0.40723 0.0
H15 H 0.3286 0.01699 0.44442 0.0
C16 C 0.2187 0.0549 0.28863 0.0
N17 N 0.22822 0.06076 0.32633 0.0
N18 N 0.25605 0.06334 0.34052 0.0
C19 C 0.26508 0.0599 0.31212 0.0
C20 C 0.24174 0.05426 0.27824 0.0
C21 C 0.18824 0.04893 0.26376 0.0
H22 H 0.17951 0.03456 0.27889 0.0
H23 H 0.18573 0.03956 0.23602 0.0
H24 H 0.17585 0.06834 0.25839 0.0
O25 O 0.21649 0.10526 0.38045 0.0
O26 O 0.26354 0.10787 0.40432 0.0
H27 H 0.2967 0.06718 0.28881 0.0
H28 H 0.30828 0.04661 0.33201 0.0
C29 C 0.29511 0.06447 0.3168 0.0
H30 H 0.30371 0.08318 0.33427 0.0
H31 H 0.31932 0.1168 0.40428 0.0
O32 O 0.16692 0.06421 0.33048 0.0
C33 C 0.23948 0.11857 0.39792 0.0
Co34 Co 0.79137 0.06932 0.13413 0.0
Co35 Co 0.7246 0.06801 0.10136 0.0
C36 C 0.75625 0.03188 0.06898 0.0
O37 O 0.78007 0.04093 0.09289 0.0
O38 O 0.7329 0.04053 0.06906 0.0
C39 C 0.84676 0.04532 0.17103 0.0
O40 O 0.83227 0.02223 0.16469 0.0
C41 C 0.66536 0.04869 0.0749 0.0
C42 C 0.64376 0.0863 0.08202 0.0
C43 C 0.63887 0.05915 0.06987 0.0
N44 N 0.68476 0.06882 0.08911 0.0
N45 N 0.6717 0.09124 0.0932 0.0
C46 C 0.67278 0.01969 0.0693 0.0
H47 H 0.69504 0.01509 0.08898 0.0
H48 H 0.65829 0.00488 0.07456 0.0
H49 H 0.67087 0.01716 0.03939 0.0
C50 C 0.78388 0.06105 0.20706 0.0
N51 N 0.77352 0.06332 0.16856 0.0
N52 N 0.74564 0.06133 0.15449 0.0
C53 C 0.73742 0.05691 0.18345 0.0
C54 C 0.76134 0.05687 0.21789 0.0
C55 C 0.81449 0.06514 0.23298 0.0
H56 H 0.82412 0.08084 0.22073 0.0
H57 H 0.82604 0.04544 0.23553 0.0
H58 H 0.81693 0.07183 0.26201 0.0
O59 O 0.78102 0.10603 0.10985 0.0
O60 O 0.73395 0.10475 0.08731 0.0
H61 H 0.69551 0.07129 0.17215 0.0
H62 H 0.70609 0.04155 0.20335 0.0
C63 C 0.70733 0.05153 0.17786 0.0
H64 H 0.69703 0.03783 0.15283 0.0
H65 H 0.6819 0.10992 0.10372 0.0
O66 O 0.83344 0.06799 0.16098 0.0
C67 C 0.75687 0.11725 0.09194 0.0
Co68 Co 0.79139 0.92648 0.63554 0.0
Co69 Co 0.72453 0.92825 0.59981 0.0
C70 C 0.75808 0.96333 0.56888 0.0
O71 O 0.7812 0.9532 0.59299 0.0
O72 O 0.73415 0.95619 0.56863 0.0
C73 C 0.84729 0.94968 0.66655 0.0
O74 O 0.83334 0.97249 0.65209 0.0
C75 C 0.6663 0.94959 0.57613 0.0
C76 C 0.64203 0.91114 0.57103 0.0
C77 C 0.63899 0.93947 0.56687 0.0
N78 N 0.68441 0.9282 0.58517 0.0
N79 N 0.66975 0.90528 0.58191 0.0
C80 C 0.67559 0.97899 0.57878 0.0
H81 H 0.67394 0.98593 0.55019 0.0
H82 H 0.69811 0.981 0.59932 0.0
H83 H 0.66193 0.99234 0.58794 0.0
C84 C 0.78211 0.93905 0.70613 0.0
N85 N 0.77236 0.93452 0.66806 0.0
N86 N 0.74439 0.93451 0.65336 0.0
C87 C 0.73544 0.93839 0.68177 0.0
C88 C 0.75903 0.94155 0.71622 0.0
C89 C 0.81295 0.94206 0.73168 0.0
H90 H 0.82277 0.95713 0.71885 0.0
H91 H 0.81629 0.94935 0.76076 0.0
H92 H 0.82378 0.92198 0.73376 0.0
O93 O 0.78109 0.88914 0.6129 0.0
O94 O 0.73401 0.89144 0.58648 0.0
H95 H 0.7028 0.93415 0.70403 0.0
H96 H 0.69359 0.95535 0.66168 0.0
C97 C 0.70498 0.9365 0.67638 0.0
H98 H 0.69486 0.91851 0.65813 0.0
H99 H 0.67871 0.88563 0.58731 0.0
O100 O 0.83344 0.9275 0.66387 0.0
C101 C 0.75697 0.87833 0.59342 0.0
Co102 Co 0.20955 0.92704 0.85959 0.0
Co103 Co 0.27632 0.92394 0.89425 0.0
C104 C 0.24536 0.96192 0.92644 0.0
O105 O 0.2212 0.9544 0.90172 0.0
O106 O 0.26831 0.95187 0.92664 0.0
C107 C 0.15366 0.95116 0.8289 0.0
O108 O 0.16746 0.97391 0.84404 0.0
C109 C 0.335 0.94344 0.91814 0.0
C110 C 0.35819 0.90459 0.92119 0.0
C111 C 0.36194 0.93279 0.92652 0.0
N112 N 0.31634 0.92249 0.90846 0.0
N113 N 0.33035 0.89931 0.91052 0.0
C114 C 0.32654 0.97302 0.91684 0.0
H115 H 0.30419 0.97583 0.89611 0.0
H116 H 0.34075 0.98638 0.90869 0.0
H117 H 0.3281 0.9793 0.94565 0.0
C118 C 0.21912 0.93887 0.78895 0.0
N119 N 0.2287 0.93335 0.82676 0.0
N120 N 0.25659 0.93144 0.84111 0.0
C121 C 0.26562 0.93507 0.81275 0.0
C122 C 0.24222 0.94009 0.77872 0.0
C123 C 0.18857 0.94423 0.76391 0.0
H124 H 0.17628 0.92489 0.76046 0.0
H125 H 0.17996 0.95957 0.77798 0.0
H126 H 0.18572 0.95224 0.73532 0.0
O127 O 0.21802 0.8895 0.88262 0.0
O128 O 0.26511 0.88781 0.90661 0.0
H129 H 0.30487 0.9128 0.83498 0.0
H130 H 0.2977 0.92932 0.78982 0.0
C131 C 0.29584 0.9315 0.81771 0.0
H132 H 0.30846 0.94955 0.83324 0.0
H133 H 0.32086 0.8799 0.90439 0.0
O134 O 0.16758 0.9291 0.83121 0.0
C135 C 0.24128 0.87675 0.90066 0.0
Co136 Co 0.71137 0.56967 0.36174 0.0
Co137 Co 0.77819 0.57222 0.39573 0.0
C138 C 0.74725 0.53475 0.42859 0.0
O139 O 0.7231 0.54244 0.40403 0.0
O140 O 0.77025 0.54451 0.42854 0.0
C141 C 0.65524 0.54605 0.33276 0.0
O142 O 0.66891 0.52355 0.34923 0.0
C143 C 0.83685 0.55263 0.4192 0.0
C144 C 0.85988 0.59144 0.42126 0.0
C145 C 0.86372 0.56328 0.42701 0.0
N146 N 0.81816 0.57354 0.40942 0.0
N147 N 0.83208 0.59669 0.41089 0.0
C148 C 0.82849 0.52306 0.41854 0.0
H149 H 0.80607 0.52013 0.3981 0.0
H150 H 0.84261 0.50959 0.4104 0.0
H151 H 0.83028 0.51707 0.44756 0.0
C152 C 0.72036 0.55709 0.29086 0.0
N153 N 0.7302 0.56291 0.32861 0.0
N154 N 0.75809 0.56462 0.34266 0.0
C155 C 0.76687 0.5606 0.31413 0.0
C156 C 0.74329 0.55548 0.28031 0.0
C157 C 0.68972 0.55176 0.26621 0.0
H158 H 0.67765 0.57131 0.26194 0.0
H159 H 0.681 0.5371 0.28102 0.0
H160 H 0.68672 0.54297 0.23796 0.0
O161 O 0.72029 0.60727 0.38462 0.0
O162 O 0.76737 0.60849 0.40814 0.0
H163 H 0.80628 0.5826 0.33573 0.0
H164 H 0.79872 0.5658 0.29067 0.0
C165 C 0.79704 0.56386 0.3187 0.0
H166 H 0.80957 0.54579 0.33431 0.0
H167 H 0.82254 0.61608 0.40456 0.0
O168 O 0.66932 0.56779 0.33368 0.0
C169 C 0.74372 0.61981 0.40244 0.0
Co170 Co 0.29342 0.57377 0.1383 0.0
Co171 Co 0.22683 0.56797 0.10359 0.0
C172 C 0.26112 0.53488 0.07269 0.0
O173 O 0.28366 0.54622 0.09651 0.0
O174 O 0.23684 0.54078 0.07222 0.0
C175 C 0.3489 0.55079 0.1748 0.0
O176 O 0.33451 0.5276 0.16715 0.0
C177 C 0.16768 0.54739 0.07592 0.0
C178 C 0.14578 0.58418 0.08486 0.0
C179 C 0.14111 0.55731 0.07148 0.0
N180 N 0.18691 0.56757 0.09101 0.0
N181 N 0.17364 0.58948 0.09618 0.0
C182 C 0.17532 0.5188 0.06886 0.0
H183 H 0.19772 0.5142 0.08796 0.0
H184 H 0.16115 0.50344 0.07379 0.0
H185 H 0.17307 0.51713 0.03869 0.0
C186 C 0.28551 0.56278 0.21004 0.0
N187 N 0.27532 0.5657 0.17167 0.0
N188 N 0.24765 0.56184 0.15699 0.0
C189 C 0.23945 0.5555 0.18549 0.0
C190 C 0.26315 0.55608 0.2202 0.0
C191 C 0.31573 0.5683 0.23646 0.0
H192 H 0.32458 0.58504 0.22474 0.0
H193 H 0.3285 0.54941 0.23895 0.0
H194 H 0.31747 0.57427 0.26546 0.0
O195 O 0.2817 0.61026 0.11481 0.0
O196 O 0.23481 0.60541 0.0892 0.0
H197 H 0.19652 0.56623 0.17428 0.0
H198 H 0.20914 0.53593 0.20391 0.0
C199 C 0.20977 0.54743 0.1791 0.0
H200 H 0.20062 0.53424 0.15329 0.0
H201 H 0.18367 0.60808 0.10757 0.0
O202 O 0.33546 0.57345 0.16573 0.0
C203 C 0.25697 0.61973 0.09526 0.0
Co204 Co 0.29303 0.42027 0.63761 0.0
Co205 Co 0.22648 0.42649 0.60368 0.0
C206 C 0.26068 0.45989 0.57297 0.0
O207 O 0.28321 0.4483 0.5964 0.0
O208 O 0.23643 0.45402 0.57265 0.0
C209 C 0.34849 0.44309 0.67421 0.0
O210 O 0.33403 0.46623 0.66724 0.0
C211 C 0.16752 0.44736 0.5768 0.0
C212 C 0.14547 0.4106 0.58555 0.0
C213 C 0.14093 0.43755 0.57246 0.0
N214 N 0.18664 0.42705 0.59153 0.0
N215 N 0.17329 0.40515 0.5966 0.0
C216 C 0.17529 0.47597 0.56997 0.0
H217 H 0.19771 0.48045 0.58911 0.0
H218 H 0.1612 0.49134 0.57503 0.0
H219 H 0.17305 0.47775 0.53982 0.0
C220 C 0.28566 0.43055 0.7099 0.0
N221 N 0.27524 0.42793 0.67148 0.0
N222 N 0.24761 0.432 0.65713 0.0
C223 C 0.23967 0.4382 0.6859 0.0
C224 C 0.26349 0.43729 0.72045 0.0
C225 C 0.31591 0.42482 0.73599 0.0
H226 H 0.32459 0.40819 0.72386 0.0
H227 H 0.32874 0.4437 0.73868 0.0
H228 H 0.31777 0.4186 0.76497 0.0
O229 O 0.28094 0.38411 0.61313 0.0
O230 O 0.23409 0.38927 0.58818 0.0
H231 H 0.1967 0.42789 0.67507 0.0
H232 H 0.20981 0.45801 0.70493 0.0
C233 C 0.21015 0.44656 0.67992 0.0
H234 H 0.20101 0.45989 0.65426 0.0
H235 H 0.18322 0.38647 0.60772 0.0
O236 O 0.3351 0.42042 0.66468 0.0
C237 C 0.2561 0.37492 0.59354 0.0
Co238 Co 0.71107 0.4262 0.86118 0.0
Co239 Co 0.77789 0.42354 0.89503 0.0
C240 C 0.74704 0.46049 0.9287 0.0
O241 O 0.72286 0.45301 0.90399 0.0
O242 O 0.77 0.4508 0.92843 0.0
C243 C 0.65482 0.44961 0.83272 0.0
O244 O 0.66834 0.47202 0.84978 0.0
C245 C 0.83655 0.44318 0.91835 0.0
C246 C 0.85953 0.4044 0.92009 0.0
C247 C 0.86339 0.43254 0.92592 0.0
N248 N 0.81786 0.42226 0.90862 0.0
N249 N 0.83175 0.39912 0.90991 0.0
C250 C 0.82821 0.47273 0.91784 0.0
H251 H 0.80572 0.47566 0.89766 0.0
H252 H 0.84219 0.48623 0.90946 0.0
H253 H 0.83024 0.47871 0.94697 0.0
C254 C 0.71999 0.43929 0.79042 0.0
N255 N 0.72987 0.43338 0.82815 0.0
N256 N 0.75776 0.43161 0.84211 0.0
C257 C 0.76649 0.43568 0.81354 0.0
C258 C 0.74287 0.44088 0.77979 0.0
C259 C 0.68933 0.44452 0.7658 0.0
H260 H 0.67738 0.42487 0.76119 0.0
H261 H 0.68048 0.45889 0.78079 0.0
H262 H 0.68632 0.4536 0.7377 0.0
O263 O 0.71993 0.38838 0.88327 0.0
O264 O 0.76702 0.38703 0.90661 0.0
H265 H 0.80571 0.41338 0.83487 0.0
H266 H 0.79818 0.43023 0.78986 0.0
C267 C 0.79659 0.43218 0.81794 0.0
H268 H 0.80931 0.45015 0.83359 0.0
H269 H 0.8222 0.37975 0.90354 0.0
O270 O 0.66902 0.42807 0.83314 0.0
C271 C 0.74333 0.37569 0.90069 0.0
C272 C 0.27084 0.98062 0.99269 0.0
C273 C 0.24657 0.98027 0.95807 0.0
C274 C 0.27046 0.99423 0.0248 0.0
C275 C 0.21886 0.01788 0.06389 0.0
H276 H 0.28718 0.04485 0.14634 0.0
C277 C 0.22202 0.06267 0.20726 0.0
C278 C 0.24165 0.04925 0.23983 0.0
C279 C 0.22225 0.05801 0.17113 0.0
C280 C 0.26795 0.03745 0.12342 0.0
H281 H 0.20363 0.99579 0.92902 0.0
H282 H 0.20336 0.0206 0.9845 0.0
H283 H 0.28854 0.03233 0.085 0.0
H284 H 0.27672 0.02039 0.26026 0.0
H285 H 0.27779 0.01302 0.19729 0.0
H286 H 0.19835 0.02341 0.10256 0.0
C287 C 0.22234 0.00942 0.98742 0.0
C288 C 0.2687 0.03012 0.08835 0.0
C289 C 0.22256 0.99539 0.95547 0.0
C290 C 0.26162 0.03128 0.23569 0.0
C291 C 0.26223 0.02707 0.19975 0.0
C292 C 0.21801 0.02571 0.09873 0.0
C293 C 0.24595 0.00825 0.0229 0.0
C294 C 0.24435 0.01954 0.05841 0.0
C295 C 0.24251 0.04032 0.16717 0.0
C296 C 0.2427 0.03493 0.12906 0.0
H297 H 0.28967 0.9691 0.9957 0.0
H298 H 0.28897 0.99248 0.05157 0.0
H299 H 0.19977 0.00942 0.04193 0.0
H300 H 0.20668 0.07695 0.20979 0.0
H301 H 0.20689 0.06851 0.14636 0.0
C302 C 0.74266 0.06761 0.26786 0.0
C303 C 0.76237 0.05377 0.25716 0.0
C304 C 0.7424 0.06331 0.30402 0.0
C305 C 0.78519 0.04227 0.40201 0.0
H306 H 0.71576 0.01182 0.40304 0.0
C307 C 0.78411 0.98297 0.53162 0.0
C308 C 0.75915 0.98154 0.53827 0.0
C309 C 0.78444 0.99703 0.49987 0.0
C310 C 0.73514 0.02095 0.40361 0.0
H311 H 0.79782 0.02533 0.27626 0.0
H312 H 0.79811 0.01868 0.34017 0.0
H313 H 0.71684 0.02708 0.3427 0.0
H314 H 0.71545 0.99535 0.51813 0.0
H315 H 0.71632 0.02097 0.46344 0.0
H316 H 0.80354 0.03665 0.46279 0.0
C317 C 0.78271 0.03261 0.32033 0.0
C318 C 0.73575 0.02951 0.3689 0.0
C319 C 0.78258 0.03646 0.28387 0.0
C320 C 0.73494 0.99583 0.51357 0.0
C321 C 0.73541 0.01034 0.48204 0.0
C322 C 0.78445 0.03426 0.43687 0.0
C323 C 0.76232 0.04565 0.33044 0.0
C324 C 0.76096 0.03958 0.36771 0.0
C325 C 0.75996 0.01051 0.47417 0.0
C326 C 0.75964 0.02273 0.43803 0.0
H327 H 0.72727 0.08158 0.24815 0.0
H328 H 0.72662 0.07374 0.31134 0.0
H329 H 0.80478 0.0503 0.40177 0.0
H330 H 0.80315 0.97212 0.54996 0.0
H331 H 0.80363 0.99617 0.49466 0.0
C332 C 0.7412 0.9656 0.76028 0.0
C333 C 0.75929 0.94595 0.75487 0.0
C334 C 0.74086 0.96944 0.79644 0.0
C335 C 0.78399 0.96881 0.89623 0.0
H336 H 0.71432 0.96029 0.91169 0.0
C337 C 0.78024 -0.00042 0.03999 0.0
C338 C 0.75564 0.0135 0.03766 0.0
C339 C 0.78066 0.98552 0.00814 0.0
C340 C 0.73392 0.96308 0.90788 0.0
H341 H 0.79108 0.91478 0.7829 0.0
H342 H 0.79163 0.92268 0.84689 0.0
H343 H 0.71518 0.94827 0.8499 0.0
H344 H 0.71182 0.0226 0.00061 0.0
H345 H 0.71285 -0.00062 0.94493 0.0
H346 H 0.80241 0.98544 0.95283 0.0
C347 C 0.77746 0.93472 0.82285 0.0
C348 C 0.73439 0.95597 0.87257 0.0
C349 C 0.77729 0.9304 0.78643 0.0
C350 C 0.73111 0.01199 0.00344 0.0
C351 C 0.73168 -0.00156 0.97142 0.0
C352 C 0.78339 0.97653 0.93127 0.0
C353 C 0.75909 0.95414 0.82801 0.0
C354 C 0.75931 0.95915 0.86636 0.0
C355 C 0.75666 0.98554 0.973 0.0
C356 C 0.75819 0.97424 0.9374 0.0
H357 H 0.72738 0.97809 0.73653 0.0
H358 H 0.72676 0.98474 0.79996 0.0
H359 H 0.8034 0.97158 0.89186 0.0
H360 H 0.7994 0.00011 0.06614 0.0
H361 H 0.80006 0.97522 0.0109 0.0
C362 C 0.26152 0.96433 0.73646 0.0
C363 C 0.24221 0.94543 0.74043 0.0
C364 C 0.26229 0.96887 0.70069 0.0
C365 C 0.21889 0.96895 0.59938 0.0
H366 H 0.29019 0.96548 0.5872 0.0
C367 C 0.22364 -0.0003 0.45636 0.0
C368 C 0.24713 0.01569 0.45896 0.0
C369 C 0.22367 0.98575 0.4885 0.0
C370 C 0.27013 0.96682 0.59011 0.0
H371 H 0.2086 0.91641 0.71029 0.0
H372 H 0.20905 0.92536 0.64709 0.0
H373 H 0.28871 0.9526 0.64834 0.0
H374 H 0.28958 0.02859 0.49684 0.0
H375 H 0.28925 0.00533 0.55305 0.0
H376 H 0.20046 0.98473 0.5423 0.0
C377 C 0.22377 0.93635 0.67187 0.0
C378 C 0.26931 0.95927 0.62508 0.0
C379 C 0.2234 0.9314 0.70786 0.0
C380 C 0.27117 0.01636 0.49384 0.0
C381 C 0.27101 0.00283 0.52613 0.0
C382 C 0.21978 0.977 0.56464 0.0
C383 C 0.24339 0.95498 0.66808 0.0
C384 C 0.24377 0.96065 0.63014 0.0
C385 C 0.24699 0.98787 0.52416 0.0
C386 C 0.24551 0.97646 0.5597 0.0
H387 H 0.27598 0.97569 0.76105 0.0
H388 H 0.27733 0.98363 0.69835 0.0
H389 H 0.19898 0.97037 0.60276 0.0
H390 H 0.20492 -0.00148 0.42971 0.0
H391 H 0.2051 0.97384 0.48553 0.0
C392 C 0.76226 0.53062 0.23814 0.0
C393 C 0.74299 0.54964 0.24197 0.0
C394 C 0.76287 0.52572 0.20235 0.0
C395 C 0.71943 0.5246 0.10115 0.0
H396 H 0.79051 0.5292 0.08851 0.0
C397 C 0.7244 0.4938 0.95816 0.0
C398 C 0.74827 0.47844 0.96073 0.0
C399 C 0.72418 0.50763 0.99025 0.0
C400 C 0.77051 0.52752 0.09156 0.0
H401 H 0.70919 0.57839 0.21148 0.0
H402 H 0.70934 0.56877 0.14826 0.0
H403 H 0.78895 0.54225 0.14954 0.0
H404 H 0.79105 0.46648 -0.00146 0.0
H405 H 0.79032 0.48949 0.05467 0.0
H406 H 0.70117 0.50832 0.04433 0.0
C407 C 0.72418 0.558 0.17319 0.0
C408 C 0.76965 0.53517 0.12646 0.0
C409 C 0.72398 0.56334 0.2092 0.0
C410 C 0.77236 0.47823 0.99555 0.0
C411 C 0.77196 0.49163 0.0278 0.0
C412 C 0.72037 0.51643 0.06648 0.0
C413 C 0.74382 0.53933 0.16958 0.0
C414 C 0.74419 0.53343 0.13168 0.0
C415 C 0.74762 0.506 0.02586 0.0
C416 C 0.74604 0.51738 0.06136 0.0
H417 H 0.77685 0.51949 0.26287 0.0
H418 H 0.77793 0.51094 0.20015 0.0
H419 H 0.69959 0.5229 0.10467 0.0
H420 H 0.70561 0.4946 0.93157 0.0
H421 H 0.70534 0.51908 0.98728 0.0
C422 C 0.28603 0.53375 0.28458 0.0
C423 C 0.2644 0.55041 0.25908 0.0
C424 C 0.2869 0.52771 0.32088 0.0
C425 C 0.25598 0.54763 0.39108 0.0
H426 H 0.28193 0.47453 0.43068 0.0
C427 C 0.23831 0.49074 0.5155 0.0
C428 C 0.26261 0.47788 0.54267 0.0
C429 C 0.23947 0.50381 0.48337 0.0
C430 C 0.27485 0.4951 0.42008 0.0
H431 H 0.22719 0.57457 0.25191 0.0
H432 H 0.22751 0.56265 0.31428 0.0
H433 H 0.28161 0.48814 0.36914 0.0
H434 H 0.30764 0.47042 0.55866 0.0
H435 H 0.30933 0.49271 0.50236 0.0
H436 H 0.24798 0.55369 0.44182 0.0
C437 C 0.24432 0.55475 0.30682 0.0
C438 C 0.27483 0.50303 0.38489 0.0
C439 C 0.24383 0.56124 0.27077 0.0
C440 C 0.28843 0.47989 0.53823 0.0
C441 C 0.28947 0.49259 0.50597 0.0
C442 C 0.2555 0.53942 0.4261 0.0
C443 C 0.26575 0.53769 0.33228 0.0
C444 C 0.26562 0.52949 0.36996 0.0
C445 C 0.26485 0.50394 0.47776 0.0
C446 C 0.26517 0.51316 0.44095 0.0
H447 H 0.30208 0.52495 0.27627 0.0
H448 H 0.30415 0.51506 0.3399 0.0
H449 H 0.24907 0.56827 0.38084 0.0
H450 H 0.21813 0.4897 0.51818 0.0
H451 H 0.22021 0.51243 0.46189 0.0
C452 C 0.289 0.5151 0.03798 0.0
C453 C 0.26314 0.51703 0.04233 0.0
C454 C 0.29016 0.50229 0.00587 0.0
C455 C 0.25633 0.45492 0.92651 0.0
H456 H 0.283 0.50547 0.86931 0.0
C457 C 0.24447 0.43229 0.77134 0.0
C458 C 0.26505 0.44291 0.75949 0.0
C459 C 0.24513 0.43889 0.80744 0.0
C460 C 0.27606 0.49077 0.88514 0.0
H461 H 0.2187 0.50504 0.01777 0.0
H462 H 0.221 0.48213 0.96174 0.0
H463 H 0.2832 0.51958 0.93059 0.0
H464 H 0.30294 0.46804 0.77649 0.0
H465 H 0.3053 0.47811 0.8402 0.0
H466 H 0.24983 0.42577 0.88157 0.0
C467 C 0.2402 0.49089 0.98319 0.0
C468 C 0.27602 0.49899 0.92018 0.0
C469 C 0.2389 0.50407 0.01516 0.0
C470 C 0.28689 0.45941 0.78492 0.0
C471 C 0.28792 0.46555 0.82127 0.0
C472 C 0.25687 0.44642 0.89164 0.0
C473 C 0.26563 0.49075 0.97771 0.0
C474 C 0.26611 0.48121 0.94112 0.0
C475 C 0.26673 0.45585 0.83279 0.0
C476 C 0.26669 0.4643 0.87042 0.0
H477 H 0.30814 0.52466 0.05841 0.0
H478 H 0.31007 0.50217 0.00238 0.0
H479 H 0.24865 0.44085 0.94229 0.0
H480 H 0.22766 0.41909 0.75253 0.0
H481 H 0.22828 0.4312 0.81499 0.0
C482 C 0.72339 0.43268 0.70875 0.0
C483 C 0.7425 0.44648 0.74135 0.0
C484 C 0.7236 0.4377 0.67267 0.0
C485 C 0.76918 0.4596 0.62567 0.0
H486 H 0.70097 0.4868 0.5434 0.0
C487 C 0.7725 0.51642 0.49512 0.0
C488 C 0.74839 0.51651 0.4603 0.0
C489 C 0.77198 0.50289 0.52721 0.0
C490 C 0.72009 0.47857 0.56559 0.0
H491 H 0.77649 0.47652 0.76187 0.0
H492 H 0.77756 0.48452 0.69902 0.0
H493 H 0.69924 0.47257 0.60378 0.0
H494 H 0.70562 0.50064 0.43093 0.0
H495 H 0.70515 0.47592 0.48637 0.0
H496 H 0.79011 0.46512 0.58773 0.0
C497 C 0.76244 0.46989 0.70142 0.0
C498 C 0.71906 0.47061 0.60028 0.0
C499 C 0.76183 0.46531 0.73727 0.0
C500 C 0.72442 0.50123 0.45753 0.0
C501 C 0.72409 0.48726 0.48946 0.0
C502 C 0.77013 0.46704 0.59075 0.0
C503 C 0.74332 0.45616 0.66883 0.0
C504 C 0.74373 0.4617 0.63088 0.0
C505 C 0.74752 0.48866 0.5251 0.0
C506 C 0.74577 0.47732 0.56052 0.0
H507 H 0.70855 0.41776 0.71123 0.0
H508 H 0.7087 0.42685 0.64788 0.0
H509 H 0.78841 0.45245 0.64881 0.0
H510 H 0.79127 0.5281 0.49825 0.0
H511 H 0.79034 0.50484 0.55411 0.0
C512 C 0.59012 0.9441 0.56495 0.0
C513 C 0.61164 0.95441 0.55468 0.0
C514 C 0.56352 0.95678 0.55179 0.0
C515 C 0.51596 0.00118 0.47403 0.0
H516 H 0.47588 0.00948 0.54067 0.0
C517 C 0.41087 0.06203 0.42927 0.0
C518 C 0.38963 0.05103 0.43957 0.0
C519 C 0.43794 0.05027 0.44294 0.0
C520 C 0.48664 0.00702 0.52156 0.0
H521 H 0.62171 0.9857 0.52144 0.0
H522 H 0.57551 0.00831 0.49926 0.0
H523 H 0.52355 0.98985 0.56607 0.0
H524 H 0.3806 0.01959 0.47358 0.0
H525 H 0.42753 -0.00144 0.49654 0.0
H526 H 0.47901 0.01828 0.42949 0.0
C527 C 0.57927 0.9904 0.51761 0.0
C528 C 0.51399 0.99581 0.53614 0.0
C529 C 0.60595 0.97772 0.53088 0.0
C530 C 0.39611 0.02806 0.46405 0.0
C531 C 0.42323 0.0163 0.4778 0.0
C532 C 0.4886 0.01239 0.45944 0.0
C533 C 0.55769 0.97997 0.52775 0.0
C534 C 0.52895 0.99269 0.51253 0.0
C535 C 0.4445 0.02735 0.46754 0.0
C536 C 0.47358 0.01536 0.483 0.0
H537 H 0.59379 0.92604 0.58303 0.0
H538 H 0.54727 0.94796 0.5597 0.0
H539 H 0.5267 -0.00135 0.4549 0.0
H540 H 0.40658 0.07988 0.41069 0.0
H541 H 0.45393 0.05954 0.4349 0.0
C542 C 0.41018 0.93789 0.9264 0.0
C543 C 0.3895 0.9473 0.93888 0.0
C544 C 0.43687 0.95041 0.93935 0.0
C545 C 0.47592 0.01365 0.9864 0.0
H546 H 0.54214 0.96701 0.01058 0.0
C547 C 0.59026 0.05353 0.06871 0.0
C548 C 0.61076 0.0454 0.05507 0.0
C549 C 0.56325 0.04161 0.05412 0.0
C550 C 0.52383 0.98033 0.0036 0.0
H551 H 0.38092 0.97658 0.97588 0.0
H552 H 0.42747 -0.00157 -0.00139 0.0
H553 H 0.49492 0.94641 0.98569 0.0
H554 H 0.61834 0.01932 0.01387 0.0
H555 H 0.57146 -0.00197 0.9891 0.0
H556 H 0.50498 0.04752 0.00486 0.0
C557 C 0.42283 0.98189 0.9779 0.0
C558 C 0.49674 0.96855 0.98924 0.0
C559 C 0.39606 0.96944 0.96474 0.0
C560 C 0.60353 0.02527 0.02618 0.0
C561 C 0.57654 0.01323 0.01171 0.0
C562 C 0.50303 0.0254 0.00095 0.0
C563 C 0.44363 0.97243 0.96552 0.0
C564 C 0.47244 0.98506 0.98045 0.0
C565 C 0.55608 0.02133 0.02545 0.0
C566 C 0.52728 0.00886 0.00974 0.0
H567 H 0.40569 0.92083 0.90647 0.0
H568 H 0.45218 0.94285 0.92875 0.0
H569 H 0.45767 0.02704 0.97938 0.0
H570 H 0.59514 0.06908 0.09086 0.0
H571 H 0.54805 0.04811 0.06555 0.0
C572 C 0.91179 0.55808 0.42636 0.0
C573 C 0.8913 0.54884 0.43932 0.0
C574 C 0.93854 0.54568 0.43933 0.0
C575 C 0.97812 0.483 0.48772 0.0
H576 H 0.04404 0.52983 0.5103 0.0
C577 C 0.09249 0.44409 0.57146 0.0
C578 C 0.11298 0.45161 0.55747 0.0
C579 C 0.06551 0.45602 0.55649 0.0
C580 C 0.02582 0.51646 0.50377 0.0
H581 H 0.88314 0.51998 0.47714 0.0
H582 H 0.92979 0.49836 0.49993 0.0
H583 H 0.99668 0.55016 0.48496 0.0
H584 H 0.12056 0.47675 0.5154 0.0
H585 H 0.0737 0.49812 0.48998 0.0
H586 H 0.0074 0.44936 0.50714 0.0
C587 C 0.92495 0.51466 0.47883 0.0
C588 C 0.99865 0.52808 0.48915 0.0
C589 C 0.89812 0.52698 0.46565 0.0
C590 C 0.10578 0.47126 0.52795 0.0
C591 C 0.07879 0.48334 0.5131 0.0
C592 C 0.0053 0.47141 0.50255 0.0
C593 C 0.94556 0.52396 0.46599 0.0
C594 C 0.97445 0.5115 0.48099 0.0
C595 C 0.05832 0.47573 0.52708 0.0
C596 C 0.02945 0.48803 0.51083 0.0
H597 H 0.90711 0.57493 0.40607 0.0
H598 H 0.9537 0.55311 0.42837 0.0
H599 H 0.95996 0.46954 0.48117 0.0
H600 H 0.09734 0.42894 0.59411 0.0
H601 H 0.0503 0.44993 0.56814 0.0
C602 C 0.10582 0.52383 0.02663 0.0
C603 C 0.11306 0.54339 0.05626 0.0
C604 C 0.07875 0.51189 0.0116 0.0
C605 C 0.00525 0.5241 0.00094 0.0
H606 H 0.99627 0.4454 0.98302 0.0
C607 C 0.89792 0.46884 0.96435 0.0
C608 C 0.89097 0.44699 0.93801 0.0
C609 C 0.92477 0.48111 0.97738 0.0
C610 C 0.99833 0.46747 0.98729 0.0
H611 H 0.09743 0.56605 0.09291 0.0
H612 H 0.05029 0.54531 0.06664 0.0
H613 H 0.04371 0.46554 0.00837 0.0
H614 H 0.90655 0.4209 0.90453 0.0
H615 H 0.95318 0.44263 0.92655 0.0
H616 H 0.95993 0.52614 0.97967 0.0
C617 C 0.0655 0.53919 0.05502 0.0
C618 C 0.02556 0.47899 0.00192 0.0
C619 C 0.09255 0.55098 0.07017 0.0
C620 C 0.91134 0.43773 0.92484 0.0
C621 C 0.93811 0.45008 0.93766 0.0
C622 C 0.97802 0.51262 0.98611 0.0
C623 C 0.05826 0.51957 0.02551 0.0
C624 C 0.02932 0.50739 0.00912 0.0
C625 C 0.94527 0.47178 0.96436 0.0
C626 C 0.97421 0.48414 0.97927 0.0
H627 H 0.12063 0.51829 0.01415 0.0
H628 H 0.07363 0.49717 0.98841 0.0
H629 H 0.00745 0.54613 0.00564 0.0
H630 H 0.88304 0.47586 0.976 0.0
H631 H 0.92972 0.4974 -0.00148 0.0
C632 C 0.10652 0.06631 0.29638 0.0
C633 C 0.12175 0.04212 0.31218 0.0
C634 C 0.07681 0.06633 0.28064 0.0
C635 C 0.01533 0.02733 0.28233 0.0
H636 H 0.97291 0.0702 0.19123 0.0
C637 C 0.89308 0.02009 0.20141 0.0
C638 C 0.87825 0.04493 0.18856 0.0
C639 C 0.92279 0.01961 0.2168 0.0
C640 C 0.98447 0.05834 0.21691 0.0
H641 H 0.11766 -0.00118 0.32304 0.0
H642 H 0.06589 -0.00127 0.29495 0.0
H643 H 0.02465 0.06926 0.21641 0.0
H644 H 0.88305 0.08883 0.18223 0.0
H645 H 0.93484 0.08795 0.2091 0.0
H646 H 0.97506 0.01627 0.28257 0.0
C647 C 0.07688 0.01785 0.2954 0.0
C648 C 0.01414 0.05781 0.23138 0.0
C649 C 0.10659 0.01785 0.31128 0.0
C650 C 0.8938 0.06932 0.19177 0.0
C651 C 0.92349 0.06881 0.20695 0.0
C652 C 0.98565 0.02776 0.26774 0.0
C653 C 0.0616 0.04214 0.28016 0.0
C654 C 0.02997 0.04236 0.26434 0.0
C655 C 0.93833 0.04393 0.21948 0.0
C656 C 0.96988 0.04334 0.23493 0.0
H657 H 0.11752 0.0854 0.29672 0.0
H658 H 0.06578 0.0855 0.26961 0.0
H659 H 0.02682 0.01559 0.30814 0.0
H660 H 0.88177 0.00093 0.19935 0.0
H661 H 0.93359 8e-05 0.22591 0.0
C662 C 0.10721 0.92605 0.79978 0.0
C663 C 0.12221 0.95102 0.81046 0.0
C664 C 0.0775 0.92582 0.78403 0.0
C665 C 0.01477 0.96914 0.73374 0.0
H666 H 0.97603 0.91667 0.77278 0.0
C667 C 0.89384 0.97469 0.69131 0.0
C668 C 0.87874 0.94975 0.68482 0.0
C669 C 0.92353 0.97479 0.70717 0.0
C670 C 0.98645 0.93122 0.76116 0.0
H671 H 0.11774 0.99536 0.81228 0.0
H672 H 0.06588 0.99493 0.78448 0.0
H673 H 0.02779 0.91673 0.79819 0.0
H674 H 0.88302 0.90534 0.69015 0.0
H675 H 0.93478 0.90546 0.71703 0.0
H676 H 0.97356 0.98341 0.69631 0.0
C677 C 0.07713 0.97556 0.78831 0.0
C678 C 0.01613 0.93127 0.77579 0.0
C679 C 0.10684 0.97578 0.80439 0.0
C680 C 0.89401 0.92492 0.69494 0.0
C681 C 0.92372 0.92501 0.71054 0.0
C682 C 0.98509 0.96896 0.71888 0.0
C683 C 0.06215 0.95056 0.77827 0.0
C684 C 0.03061 0.95027 0.76231 0.0
C685 C 0.93888 0.94994 0.71667 0.0
C686 C 0.97052 0.95005 0.73248 0.0
H687 H 0.11839 0.90661 0.80406 0.0
H688 H 0.06653 0.90627 0.77617 0.0
H689 H 0.02533 0.98379 0.72244 0.0
H690 H 0.88273 0.9942 0.68409 0.0
H691 H 0.93445 0.99441 0.71215 0.0
C692 C 0.39522 0.52548 0.20375 0.0
C693 C 0.38038 0.55046 0.19245 0.0
C694 C 0.42491 0.52502 0.21905 0.0
C695 C 0.48837 0.56966 0.2637 0.0
H696 H 0.52616 0.51079 0.23364 0.0
C697 C 0.60894 0.57106 0.30067 0.0
C698 C 0.62378 0.54635 0.31457 0.0
C699 C 0.57924 0.57155 0.28519 0.0
C700 C 0.51592 0.52723 0.24256 0.0
H701 H 0.38515 0.59462 0.18869 0.0
H702 H 0.43687 0.59378 0.2148 0.0
H703 H 0.47442 0.51173 0.20848 0.0
H704 H 0.61897 0.50267 0.32244 0.0
H705 H 0.56717 0.50355 0.29536 0.0
H706 H 0.52995 0.58525 0.29754 0.0
C707 C 0.42561 0.57455 0.21239 0.0
C708 C 0.48626 0.52775 0.22823 0.0
C709 C 0.39591 0.57502 0.19722 0.0
C710 C 0.60823 0.52206 0.312 0.0
C711 C 0.57852 0.52252 0.29631 0.0
C712 C 0.51803 0.5692 0.27789 0.0
C713 C 0.44049 0.54952 0.22331 0.0
C714 C 0.4721 0.54895 0.23867 0.0
C715 C 0.5637 0.54732 0.28303 0.0
C716 C 0.53215 0.54796 0.26753 0.0
H717 H 0.38391 0.50619 0.20066 0.0
H718 H 0.43566 0.50543 0.22776 0.0
H719 H 0.47823 0.58605 0.27285 0.0
H720 H 0.62025 0.59014 0.30215 0.0
H721 H 0.56843 0.59091 0.27475 0.0
C722 C 0.60869 0.42447 0.79972 0.0
C723 C 0.62335 0.44915 0.81442 0.0
C724 C 0.57899 0.42378 0.78411 0.0
C725 C 0.51541 0.46786 0.74258 0.0
H726 H 0.47797 0.40778 0.77088 0.0
C727 C 0.39471 0.46849 0.70376 0.0
C728 C 0.37996 0.44352 0.69173 0.0
C729 C 0.4244 0.46909 0.71902 0.0
C730 C 0.48805 0.42453 0.76229 0.0
H731 H 0.61824 0.49256 0.82356 0.0
H732 H 0.56645 0.49133 0.79624 0.0
H733 H 0.52969 0.40895 0.79576 0.0
H734 H 0.3849 0.39953 0.68658 0.0
H735 H 0.43662 0.40062 0.71262 0.0
H736 H 0.47384 0.48336 0.70888 0.0
C737 C 0.57793 0.47255 0.79667 0.0
C738 C 0.51771 0.4252 0.77658 0.0
C739 C 0.60763 0.47321 0.81249 0.0
C740 C 0.39559 0.41911 0.69569 0.0
C741 C 0.42529 0.41972 0.71082 0.0
C742 C 0.48575 0.46713 0.72814 0.0
C743 C 0.56328 0.44778 0.7826 0.0
C744 C 0.53173 0.4469 0.76694 0.0
C745 C 0.44007 0.44474 0.72249 0.0
C746 C 0.47168 0.44549 0.73788 0.0
H747 H 0.62014 0.40557 0.80068 0.0
H748 H 0.56832 0.40445 0.77305 0.0
H749 H 0.52557 0.48467 0.73422 0.0
H750 H 0.38334 0.48766 0.7013 0.0
H751 H 0.43507 0.48866 0.72832 0.0
C752 C 0.22556 0.33682 0.5534 0.0
C753 C 0.25276 0.34782 0.57441 0.0
C754 C 0.22236 0.31235 0.53275 0.0
C755 C 0.2591 0.27009 0.48702 0.0
H756 H 0.2079 0.21205 0.48908 0.0
C757 C 0.26407 0.16115 0.43208 0.0
C758 C 0.23865 0.14652 0.41298 0.0
C759 C 0.26389 0.18664 0.4488 0.0
C760 C 0.22193 0.22826 0.48769 0.0
H761 H 0.29794 0.34123 0.59106 0.0
H762 H 0.29228 0.29854 0.55518 0.0
H763 H 0.21143 0.2543 0.52556 0.0
H764 H 0.19295 0.14763 0.39565 0.0
H765 H 0.19265 0.19249 0.4246 0.0
H766 H 0.2697 0.24419 0.44931 0.0
C767 C 0.27345 0.30906 0.55432 0.0
C768 C 0.22402 0.25239 0.50868 0.0
C769 C 0.27668 0.33341 0.57512 0.0
C770 C 0.21291 0.15833 0.41021 0.0
C771 C 0.21275 0.18393 0.427 0.0
C772 C 0.25693 0.24607 0.46593 0.0
C773 C 0.24626 0.29847 0.53252 0.0
C774 C 0.24296 0.27335 0.50901 0.0
C775 C 0.2383 0.19823 0.44677 0.0
C776 C 0.23866 0.22469 0.46649 0.0
H777 H 0.20667 0.34737 0.55227 0.0
H778 H 0.20114 0.30472 0.51608 0.0
H779 H 0.27344 0.28616 0.48608 0.0
H780 H 0.28431 0.15271 0.43485 0.0
H781 H 0.28399 0.19689 0.46428 0.0
C782 C 0.71816 0.33573 0.91521 0.0
C783 C 0.74341 0.34787 0.91666 0.0
C784 C 0.7189 0.31052 0.9334 0.0
C785 C 0.76759 0.26735 0.01165 0.0
H786 H 0.71222 0.20966 0.96519 0.0
C787 C 0.77981 0.15802 0.07552 0.0
C788 C 0.75517 0.14476 0.07437 0.0
C789 C 0.77791 0.18315 0.05678 0.0
C790 C 0.72762 0.22572 0.97875 0.0
H791 H 0.78909 0.34243 0.93705 0.0
H792 H 0.79024 0.29855 0.96828 0.0
H793 H 0.70943 0.25243 0.93014 0.0
H794 H 0.70925 0.14793 0.0534 0.0
H795 H 0.70606 0.19189 0.02121 0.0
H796 H 0.78579 0.24076 0.06026 0.0
C797 C 0.76996 0.30873 0.95375 0.0
C798 C 0.72603 0.25018 0.95864 0.0
C799 C 0.76924 0.33383 0.9356 0.0
C800 C 0.72866 0.15749 0.05474 0.0
C801 C 0.72679 0.18261 0.03604 0.0
C802 C 0.76915 0.24295 0.03177 0.0
C803 C 0.74489 0.29702 0.95341 0.0
C804 C 0.74612 0.27118 0.9748 0.0
C805 C 0.75136 0.1956 0.03653 0.0
C806 C 0.74927 0.2218 0.01549 0.0
H807 H 0.69791 0.346 0.9009 0.0
H808 H 0.69923 0.30204 0.93281 0.0
H809 H 0.78306 0.28337 0.02516 0.0
H810 H 0.80055 0.14876 0.09026 0.0
H811 H 0.79722 0.19248 0.05736 0.0
C812 C 0.76981 0.66101 0.43923 0.0
C813 C 0.74388 0.64739 0.41916 0.0
C814 C 0.77054 0.68589 0.45787 0.0
C815 C 0.72688 0.74487 0.46174 0.0
H816 H 0.78535 0.75361 0.56447 0.0
C817 C 0.72885 0.83803 0.55638 0.0
C818 C 0.75539 0.85053 0.5767 0.0
C819 C 0.72704 0.81271 0.53821 0.0
C820 C 0.76908 0.7516 0.53568 0.0
H821 H 0.69826 0.64974 0.40206 0.0
H822 H 0.69959 0.69335 0.43475 0.0
H823 H 0.78266 0.71095 0.52942 0.0
H824 H 0.8009 0.84583 0.59453 0.0
H825 H 0.7977 0.80173 0.56248 0.0
H826 H 0.71343 0.7856 0.46787 0.0
C827 C 0.71932 0.68469 0.43587 0.0
C828 C 0.76753 0.72717 0.5156 0.0
C829 C 0.71858 0.65969 0.41722 0.0
C830 C 0.78013 0.83677 0.57921 0.0
C831 C 0.7783 0.81143 0.56095 0.0
C832 C 0.72846 0.76934 0.4818 0.0
C833 C 0.74537 0.69782 0.45687 0.0
C834 C 0.74652 0.7236 0.47834 0.0
C835 C 0.75171 0.79928 0.53987 0.0
C836 C 0.74965 0.77302 0.51895 0.0
H837 H 0.78972 0.65225 0.44115 0.0
H838 H 0.79088 0.69577 0.47321 0.0
H839 H 0.71066 0.74283 0.43292 0.0
H840 H 0.70935 0.84795 0.55406 0.0
H841 H 0.70628 0.80367 0.52279 0.0
C842 C 0.2154 0.837 0.91434 0.0
C843 C 0.24101 0.84929 0.91741 0.0
C844 C 0.21568 0.81215 0.93312 0.0
C845 C 0.26228 0.77108 0.01537 0.0
H846 H 0.21078 0.71094 0.96665 0.0
C847 C 0.27812 0.66244 0.08074 0.0
C848 C 0.25395 0.64733 0.07755 0.0
C849 C 0.27531 0.68767 0.06199 0.0
C850 C 0.22502 0.72771 0.98085 0.0
H851 H 0.28691 0.84451 0.94148 0.0
H852 H 0.28726 0.80133 0.97387 0.0
H853 H 0.20788 0.75352 0.93107 0.0
H854 H 0.20782 0.64727 0.05286 0.0
H855 H 0.20298 0.69153 0.02061 0.0
H856 H 0.27946 0.74544 0.0651 0.0
C857 C 0.26703 0.81109 0.95749 0.0
C858 C 0.22339 0.75204 0.96043 0.0
C859 C 0.26678 0.83578 0.93867 0.0
C860 C 0.22689 0.65832 0.05582 0.0
C861 C 0.2241 0.6836 0.03711 0.0
C862 C 0.26385 0.74685 0.0358 0.0
C863 C 0.24155 0.79924 0.95543 0.0
C864 C 0.24225 0.77383 0.97735 0.0
C865 C 0.24828 0.69844 0.03972 0.0
C866 C 0.24547 0.72476 0.01865 0.0
H867 H 0.19519 0.84685 0.89819 0.0
H868 H 0.19571 0.80349 0.93114 0.0
H869 H 0.27673 0.78775 0.02942 0.0
H870 H 0.29928 0.65457 0.0971 0.0
H871 H 0.29438 0.6984 0.06419 0.0
loop_
_geom_bond_atom_site_label_1
_geom_bond_atom_site_label_2
_geom_bond_distance
_geom_bond_site_symmetry_2
_ccdc_geom_bond_type
Co0 O3 1.970 . S
Co0 N17 1.989 . S
Co0 O25 1.967 . S
Co0 O32 1.920 . S
Co1 O4 1.966 . S
Co1 N10 2.022 . S
Co1 N18 1.993 . S
Co1 O26 1.941 . S
C2 O3 1.258 . S
C2 O4 1.263 . S
O3 Co0 1.970 . S
O3 C2 1.258 . S
O4 Co1 1.966 . S
O4 C2 1.263 . S
C5 O6 1.235 . S
C5 O32 1.289 . S
O6 C5 1.235 . S
C7 C9 1.400 . S
C7 N10 1.351 . S
C7 C12 1.501 . S
C8 C9 1.387 . S
C8 N11 1.341 . S
C9 C7 1.400 . S
C9 C8 1.387 . S
N10 Co1 2.022 . S
N10 C7 1.351 . S
N10 N11 1.365 . S
N11 C8 1.341 . S
N11 N10 1.365 . S
N11 H31 0.862 . S
C12 C7 1.501 . S
C12 H13 0.961 . S
C12 H14 0.961 . S
C12 H15 0.960 . S
H13 C12 0.961 . S
H14 C12 0.961 . S
H15 C12 0.960 . S
C16 N17 1.342 . S
C16 C20 1.401 . S
C16 C21 1.499 . S
N17 Co0 1.989 . S
N17 C16 1.342 . S
N17 N18 1.388 . S
N18 Co1 1.993 . S
N18 N17 1.388 . S
N18 C19 1.346 . S
C19 N18 1.346 . S
C19 C20 1.396 . S
C19 C29 1.510 . S
C20 C16 1.401 . S
C20 C19 1.396 . S
C21 C16 1.499 . S
C21 H22 0.959 . S
C21 H23 0.960 . S
C21 H24 0.961 . S
H22 C21 0.959 . S
H23 C21 0.960 . S
H24 C21 0.961 . S
O25 Co0 1.967 . S
O25 C33 1.258 . S
O26 Co1 1.941 . S
O26 C33 1.266 . S
H27 C29 0.959 . S
H28 C29 0.961 . S
C29 C19 1.510 . S
C29 H27 0.959 . S
C29 H28 0.961 . S
C29 H30 0.960 . S
H30 C29 0.960 . S
H31 N11 0.862 . S
O32 Co0 1.920 . S
O32 C5 1.289 . S
C33 O25 1.258 . S
C33 O26 1.266 . S
Co34 O37 1.970 . S
Co34 N51 1.989 . S
Co34 O59 1.967 . S
Co34 O66 1.920 . S
Co35 O38 1.966 . S
Co35 N44 2.022 . S
Co35 N52 1.993 . S
Co35 O60 1.941 . S
C36 O37 1.258 . S
C36 O38 1.263 . S
O37 Co34 1.970 . S
O37 C36 1.258 . S
O38 Co35 1.966 . S
O38 C36 1.263 . S
C39 O40 1.235 . S
C39 O66 1.289 . S
O40 C39 1.235 . S
C41 C43 1.400 . S
C41 N44 1.351 . S
C41 C46 1.501 . S
C42 C43 1.387 . S
C42 N45 1.341 . S
C43 C41 1.400 . S
C43 C42 1.387 . S
N44 Co35 2.022 . S
N44 C41 1.351 . S
N44 N45 1.365 . S
N45 C42 1.341 . S
N45 N44 1.365 . S
N45 H65 0.862 . S
C46 C41 1.501 . S
C46 H47 0.961 . S
C46 H48 0.961 . S
C46 H49 0.960 1_554 S
H47 C46 0.961 . S
H48 C46 0.961 . S
H49 C46 0.960 1_556 S
C50 N51 1.342 . S
C50 C54 1.401 . S
C50 C55 1.499 . S
N51 Co34 1.989 . S
N51 C50 1.342 . S
N51 N52 1.388 . S
N52 Co35 1.993 . S
N52 N51 1.388 . S
N52 C53 1.346 . S
C53 N52 1.346 . S
C53 C54 1.396 . S
C53 C63 1.510 . S
C54 C50 1.401 . S
C54 C53 1.396 . S
C55 C50 1.499 . S
C55 H56 0.959 . S
C55 H57 0.960 . S
C55 H58 0.961 . S
H56 C55 0.959 . S
H57 C55 0.960 . S
H58 C55 0.961 . S
O59 Co34 1.967 . S
O59 C67 1.258 . S
O60 Co35 1.941 . S
O60 C67 1.266 . S
H61 C63 0.959 . S
H62 C63 0.961 . S
C63 C53 1.510 . S
C63 H61 0.959 . S
C63 H62 0.961 . S
C63 H64 0.960 . S
H64 C63 0.960 . S
H65 N45 0.862 . S
O66 Co34 1.920 . S
O66 C39 1.289 . S
C67 O59 1.258 . S
C67 O60 1.266 . S
Co68 O71 1.970 . S
Co68 N85 1.989 . S
Co68 O93 1.967 . S
Co68 O100 1.920 . S
Co69 O72 1.966 . S
Co69 N78 2.022 . S
Co69 N86 1.993 . S
Co69 O94 1.941 . S
C70 O71 1.258 . S
C70 O72 1.263 . S
O71 Co68 1.970 . S
O71 C70 1.258 . S
O72 Co69 1.966 . S
O72 C70 1.263 . S
C73 O74 1.235 . S
C73 O100 1.289 . S
O74 C73 1.235 . S
C75 C77 1.400 . S
C75 N78 1.351 . S
C75 C80 1.501 . S
C76 C77 1.387 . S
C76 N79 1.341 . S
C77 C75 1.400 . S
C77 C76 1.387 . S
N78 Co69 2.022 . S
N78 C75 1.351 . S
N78 N79 1.365 . S
N79 C76 1.341 . S
N79 N78 1.365 . S
N79 H99 0.862 . S
C80 C75 1.501 . S
C80 H81 0.961 . S
C80 H82 0.961 . S
C80 H83 0.960 . S
H81 C80 0.961 . S
H82 C80 0.961 . S
H83 C80 0.960 . S
C84 N85 1.342 . S
C84 C88 1.401 . S
C84 C89 1.499 . S
N85 Co68 1.989 . S
N85 C84 1.342 . S
N85 N86 1.388 . S
N86 Co69 1.993 . S
N86 N85 1.388 . S
N86 C87 1.346 . S
C87 N86 1.346 . S
C87 C88 1.396 . S
C87 C97 1.510 . S
C88 C84 1.401 . S
C88 C87 1.396 . S
C89 C84 1.499 . S
C89 H90 0.959 . S
C89 H91 0.960 . S
C89 H92 0.961 . S
H90 C89 0.959 . S
H91 C89 0.960 . S
H92 C89 0.961 . S
O93 Co68 1.967 . S
O93 C101 1.258 . S
O94 Co69 1.941 . S
O94 C101 1.266 . S
H95 C97 0.959 . S
H96 C97 0.961 . S
C97 C87 1.510 . S
C97 H95 0.959 . S
C97 H96 0.961 . S
C97 H98 0.960 . S
H98 C97 0.960 . S
H99 N79 0.862 . S
O100 Co68 1.920 . S
O100 C73 1.289 . S
C101 O93 1.258 . S
C101 O94 1.266 . S
Co102 O105 1.970 . S
Co102 N119 1.989 . S
Co102 O127 1.967 . S
Co102 O134 1.920 . S
Co103 O106 1.966 . S
Co103 N112 2.022 . S
Co103 N120 1.993 . S
Co103 O128 1.941 . S
C104 O105 1.258 . S
C104 O106 1.263 . S
O105 Co102 1.970 . S
O105 C104 1.258 . S
O106 Co103 1.966 . S
O106 C104 1.263 . S
C107 O108 1.235 . S
C107 O134 1.289 . S
O108 C107 1.235 . S
C109 C111 1.400 . S
C109 N112 1.351 . S
C109 C114 1.501 . S
C110 C111 1.387 . S
C110 N113 1.341 . S
C111 C109 1.400 . S
C111 C110 1.387 . S
N112 Co103 2.022 . S
N112 C109 1.351 . S
N112 N113 1.365 . S
N113 C110 1.341 . S
N113 N112 1.365 . S
N113 H133 0.862 . S
C114 C109 1.501 . S
C114 H115 0.961 . S
C114 H116 0.961 . S
C114 H117 0.960 1_556 S
H115 C114 0.961 . S
H116 C114 0.961 . S
H117 C114 0.960 1_554 S
C118 N119 1.342 . S
C118 C122 1.401 . S
C118 C123 1.499 . S
N119 Co102 1.989 . S
N119 C118 1.342 . S
N119 N120 1.388 . S
N120 Co103 1.993 . S
N120 N119 1.388 . S
N120 C121 1.346 . S
C121 N120 1.346 . S
C121 C122 1.396 . S
C121 C131 1.510 . S
C122 C118 1.401 . S
C122 C121 1.396 . S
C123 C118 1.499 . S
C123 H124 0.959 . S
C123 H125 0.960 . S
C123 H126 0.961 . S
H124 C123 0.959 . S
H125 C123 0.960 . S
H126 C123 0.961 . S
O127 Co102 1.967 . S
O127 C135 1.258 . S
O128 Co103 1.941 . S
O128 C135 1.266 . S
H129 C131 0.959 . S
H130 C131 0.961 . S
C131 C121 1.510 . S
C131 H129 0.959 . S
C131 H130 0.961 . S
C131 H132 0.960 . S
H132 C131 0.960 . S
H133 N113 0.862 . S
O134 Co102 1.920 . S
O134 C107 1.289 . S
C135 O127 1.258 . S
C135 O128 1.266 . S
Co136 O139 1.970 . S
Co136 N153 1.989 . S
Co136 O161 1.967 . S
Co136 O168 1.920 . S
Co137 O140 1.966 . S
Co137 N146 2.022 . S
Co137 N154 1.993 . S
Co137 O162 1.941 . S
C138 O139 1.258 . S
C138 O140 1.263 . S
O139 Co136 1.970 . S
O139 C138 1.258 . S
O140 Co137 1.966 . S
O140 C138 1.263 . S
C141 O142 1.235 . S
C141 O168 1.289 . S
O142 C141 1.235 . S
C143 C145 1.400 . S
C143 N146 1.351 . S
C143 C148 1.501 . S
C144 C145 1.387 . S
C144 N147 1.341 . S
C145 C143 1.400 . S
C145 C144 1.387 . S
N146 Co137 2.022 . S
N146 C143 1.351 . S
N146 N147 1.365 . S
N147 C144 1.341 . S
N147 N146 1.365 . S
N147 H167 0.862 . S
C148 C143 1.501 . S
C148 H149 0.961 . S
C148 H150 0.961 . S
C148 H151 0.960 . S
H149 C148 0.961 . S
H150 C148 0.961 . S
H151 C148 0.960 . S
C152 N153 1.342 . S
C152 C156 1.401 . S
C152 C157 1.499 . S
N153 Co136 1.989 . S
N153 C152 1.342 . S
N153 N154 1.388 . S
N154 Co137 1.993 . S
N154 N153 1.388 . S
N154 C155 1.346 . S
C155 N154 1.346 . S
C155 C156 1.396 . S
C155 C165 1.510 . S
C156 C152 1.401 . S
C156 C155 1.396 . S
C157 C152 1.499 . S
C157 H158 0.959 . S
C157 H159 0.960 . S
C157 H160 0.961 . S
H158 C157 0.959 . S
H159 C157 0.960 . S
H160 C157 0.961 . S
O161 Co136 1.967 . S
O161 C169 1.258 . S
O162 Co137 1.941 . S
O162 C169 1.266 . S
H163 C165 0.959 . S
H164 C165 0.961 . S
C165 C155 1.510 . S
C165 H163 0.959 . S
C165 H164 0.961 . S
C165 H166 0.960 . S
H166 C165 0.960 . S
H167 N147 0.862 . S
O168 Co136 1.920 . S
O168 C141 1.289 . S
C169 O161 1.258 . S
C169 O162 1.266 . S
Co170 O173 1.970 . S
Co170 N187 1.989 . S
Co170 O195 1.967 . S
Co170 O202 1.920 . S
Co171 O174 1.966 . S
Co171 N180 2.022 . S
Co171 N188 1.993 . S
Co171 O196 1.941 . S
C172 O173 1.258 . S
C172 O174 1.263 . S
O173 Co170 1.970 . S
O173 C172 1.258 . S
O174 Co171 1.966 . S
O174 C172 1.263 . S
C175 O176 1.235 . S
C175 O202 1.289 . S
O176 C175 1.235 . S
C177 C179 1.400 . S
C177 N180 1.351 . S
C177 C182 1.501 . S
C178 C179 1.387 . S
C178 N181 1.341 . S
C179 C177 1.400 . S
C179 C178 1.387 . S
N180 Co171 2.022 . S
N180 C177 1.351 . S
N180 N181 1.365 . S
N181 C178 1.341 . S
N181 N180 1.365 . S
N181 H201 0.862 . S
C182 C177 1.501 . S
C182 H183 0.961 . S
C182 H184 0.961 . S
C182 H185 0.960 1_554 S
H183 C182 0.961 . S
H184 C182 0.961 . S
H185 C182 0.960 1_556 S
C186 N187 1.342 . S
C186 C190 1.401 . S
C186 C191 1.499 . S
N187 Co170 1.989 . S
N187 C186 1.342 . S
N187 N188 1.388 . S
N188 Co171 1.993 . S
N188 N187 1.388 . S
N188 C189 1.346 . S
C189 N188 1.346 . S
C189 C190 1.396 . S
C189 C199 1.510 . S
C190 C186 1.401 . S
C190 C189 1.396 . S
C191 C186 1.499 . S
C191 H192 0.959 . S
C191 H193 0.960 . S
C191 H194 0.961 . S
H192 C191 0.959 . S
H193 C191 0.960 . S
H194 C191 0.961 . S
O195 Co170 1.967 . S
O195 C203 1.258 . S
O196 Co171 1.941 . S
O196 C203 1.266 . S
H197 C199 0.959 . S
H198 C199 0.961 . S
C199 C189 1.510 . S
C199 H197 0.959 . S
C199 H198 0.961 . S
C199 H200 0.960 . S
H200 C199 0.960 . S
H201 N181 0.862 . S
O202 Co170 1.920 . S
O202 C175 1.289 . S
C203 O195 1.258 . S
C203 O196 1.266 . S
Co204 O207 1.970 . S
Co204 N221 1.989 . S
Co204 O229 1.967 . S
Co204 O236 1.920 . S
Co205 O208 1.966 . S
Co205 N214 2.022 . S
Co205 N222 1.993 . S
Co205 O230 1.941 . S
C206 O207 1.258 . S
C206 O208 1.263 . S
O207 Co204 1.970 . S
O207 C206 1.258 . S
O208 Co205 1.966 . S
O208 C206 1.263 . S
C209 O210 1.235 . S
C209 O236 1.289 . S
O210 C209 1.235 . S
C211 C213 1.400 . S
C211 N214 1.351 . S
C211 C216 1.501 . S
C212 C213 1.387 . S
C212 N215 1.341 . S
C213 C211 1.400 . S
C213 C212 1.387 . S
N214 Co205 2.022 . S
N214 C211 1.351 . S
N214 N215 1.365 . S
N215 C212 1.341 . S
N215 N214 1.365 . S
N215 H235 0.862 . S
C216 C211 1.501 . S
C216 H217 0.961 . S
C216 H218 0.961 . S
C216 H219 0.960 . S
H217 C216 0.961 . S
H218 C216 0.961 . S
H219 C216 0.960 . S
C220 N221 1.342 . S
C220 C224 1.401 . S
C220 C225 1.499 . S
N221 Co204 1.989 . S
N221 C220 1.342 . S
N221 N222 1.388 . S
N222 Co205 1.993 . S
N222 N221 1.388 . S
N222 C223 1.346 . S
C223 N222 1.346 . S
C223 C224 1.396 . S
C223 C233 1.510 . S
C224 C220 1.401 . S
C224 C223 1.396 . S
C225 C220 1.499 . S
C225 H226 0.959 . S
C225 H227 0.960 . S
C225 H228 0.961 . S
H226 C225 0.959 . S
H227 C225 0.960 . S
H228 C225 0.961 . S
O229 Co204 1.967 . S
O229 C237 1.258 . S
O230 Co205 1.941 . S
O230 C237 1.266 . S
H231 C233 0.959 . S
H232 C233 0.961 . S
C233 C223 1.510 . S
C233 H231 0.959 . S
C233 H232 0.961 . S
C233 H234 0.960 . S
H234 C233 0.960 . S
H235 N215 0.862 . S
O236 Co204 1.920 . S
O236 C209 1.289 . S
C237 O229 1.258 . S
C237 O230 1.266 . S
Co238 O241 1.970 . S
Co238 N255 1.989 . S
Co238 O263 1.967 . S
Co238 O270 1.920 . S
Co239 O242 1.966 . S
Co239 N248 2.022 . S
Co239 N256 1.993 . S
Co239 O264 1.941 . S
C240 O241 1.258 . S
C240 O242 1.263 . S
O241 Co238 1.970 . S
O241 C240 1.258 . S
O242 Co239 1.966 . S
O242 C240 1.263 . S
C243 O244 1.235 . S
C243 O270 1.289 . S
O244 C243 1.235 . S
C245 C247 1.400 . S
C245 N248 1.351 . S
C245 C250 1.501 . S
C246 C247 1.387 . S
C246 N249 1.341 . S
C247 C245 1.400 . S
C247 C246 1.387 . S
N248 Co239 2.022 . S
N248 C245 1.351 . S
N248 N249 1.365 . S
N249 C246 1.341 . S
N249 N248 1.365 . S
N249 H269 0.862 . S
C250 C245 1.501 . S
C250 H251 0.961 . S
C250 H252 0.961 . S
C250 H253 0.960 1_556 S
H251 C250 0.961 . S
H252 C250 0.961 . S
H253 C250 0.960 1_554 S
C254 N255 1.342 . S
C254 C258 1.401 . S
C254 C259 1.499 . S
N255 Co238 1.989 . S
N255 C254 1.342 . S
N255 N256 1.388 . S
N256 Co239 1.993 . S
N256 N255 1.388 . S
N256 C257 1.346 . S
C257 N256 1.346 . S
C257 C258 1.396 . S
C257 C267 1.510 . S
C258 C254 1.401 . S
C258 C257 1.396 . S
C259 C254 1.499 . S
C259 H260 0.959 . S
C259 H261 0.960 . S
C259 H262 0.961 . S
H260 C259 0.959 . S
H261 C259 0.960 . S
H262 C259 0.961 . S
O263 Co238 1.967 . S
O263 C271 1.258 . S
O264 Co239 1.941 . S
O264 C271 1.266 . S
H265 C267 0.959 . S
H266 C267 0.961 . S
C267 C257 1.510 . S
C267 H265 0.959 . S
C267 H266 0.961 . S
C267 H268 0.960 . S
H268 C267 0.960 . S
H269 N249 0.862 . S
O270 Co238 1.920 . S
O270 C243 1.289 . S
C271 O263 1.258 . S
C271 O264 1.266 . S
C272 C273 1.349 1_554 S
C272 C274 1.327 . S
C272 H297 0.950 . S
C273 C272 1.349 1_556 S
C273 C289 1.349 . S
C274 C272 1.327 . S
C274 C293 1.429 . S
C274 H298 0.950 . S
C275 C292 1.574 . S
C275 C294 1.368 1_545 S
C275 H299 0.949 . S
H276 C280 0.949 . S
C277 C278 1.349 . S
C277 C279 1.327 . S
C277 H300 0.950 . S
C278 C277 1.349 . S
C278 C290 1.349 . S
C279 C277 1.327 . S
C279 C295 1.429 . S
C279 H301 0.950 . S
C280 H276 0.949 . S
C280 C288 1.574 . S
C280 C296 1.368 1_565 S
H281 C289 0.950 . S
H282 C287 0.971 . S
H283 C288 0.949 . S
H284 C290 0.950 . S
H285 C291 0.950 . S
H286 C292 0.949 . S
C287 H282 0.971 . S
C287 C289 1.327 1_554 S
C287 C293 1.429 . S
C288 C280 1.574 . S
C288 H283 0.949 . S
C288 C294 1.368 . S
C289 C273 1.349 . S
C289 H281 0.950 . S
C289 C287 1.327 1_556 S
C290 C278 1.349 . S
C290 H284 0.950 . S
C290 C291 1.327 . S
C291 H285 0.950 . S
C291 C290 1.327 . S
C291 C295 1.429 . S
C292 C275 1.574 . S
C292 H286 0.949 . S
C292 C296 1.368 . S
C293 C274 1.429 . S
C293 C287 1.429 . S
C293 C294 1.523 . S
C294 C275 1.368 1_565 S
C294 C288 1.368 . S
C294 C293 1.523 . S
C295 C279 1.429 . S
C295 C291 1.429 . S
C295 C296 1.523 . S
C296 C280 1.368 1_545 S
C296 C292 1.368 . S
C296 C295 1.523 . S
H297 C272 0.950 . S
H298 C274 0.950 . S
H299 C275 0.949 . S
H300 C277 0.950 . S
H301 C279 0.950 . S
C302 C303 1.349 . S
C302 C304 1.327 . S
C302 H327 0.950 . S
C303 C302 1.349 . S
C303 C319 1.349 . S
C304 C302 1.327 . S
C304 C323 1.429 . S
C304 H328 0.950 . S
C305 C322 1.574 . S
C305 C324 1.368 1_565 S
C305 H329 0.949 . S
H306 C310 0.949 . S
C307 C308 1.349 . S
C307 C309 1.327 . S
C307 H330 0.950 . S
C308 C307 1.349 . S
C308 C320 1.349 . S
C309 C307 1.327 . S
C309 C325 1.429 . S
C309 H331 0.950 . S
C310 H306 0.949 . S
C310 C318 1.574 . S
C310 C326 1.368 1_545 S
H311 C319 0.950 . S
H312 C317 0.950 1_565 S
H313 C318 0.949 . S
H314 C320 0.950 . S
H315 C321 0.950 1_545 S
H316 C322 0.949 . S
C317 H312 0.950 1_545 S
C317 C319 1.327 . S
C317 C323 1.429 . S
C318 C310 1.574 . S
C318 H313 0.949 . S
C318 C324 1.368 . S
C319 C303 1.349 . S
C319 H311 0.950 . S
C319 C317 1.327 . S
C320 C308 1.349 . S
C320 H314 0.950 . S
C320 C321 1.327 . S
C321 H315 0.950 1_565 S
C321 C320 1.327 . S
C321 C325 1.429 . S
C322 C305 1.574 . S
C322 H316 0.949 . S
C322 C326 1.368 . S
C323 C304 1.429 . S
C323 C317 1.429 . S
C323 C324 1.523 . S
C324 C305 1.368 1_545 S
C324 C318 1.368 . S
C324 C323 1.523 . S
C325 C309 1.429 . S
C325 C321 1.429 . S
C325 C326 1.523 . S
C326 C310 1.368 1_565 S
C326 C322 1.368 . S
C326 C325 1.523 . S
H327 C302 0.950 . S
H328 C304 0.950 . S
H329 C305 0.949 . S
H330 C307 0.950 . S
H331 C309 0.950 . S
C332 C333 1.349 . S
C332 C334 1.327 . S
C332 H357 0.950 . S
C333 C332 1.349 . S
C333 C349 1.349 . S
C334 C332 1.327 . S
C334 C353 1.429 . S
C334 H358 0.936 1_565 S
C335 C352 1.574 . S
C335 C354 1.368 . S
C335 H359 0.949 . S
H336 C340 0.949 . S
C337 C338 1.349 . S
C337 C339 1.327 1_554 S
C337 H360 0.950 . S
C338 C337 1.349 . S
C338 C350 1.349 1_554 S
C339 C337 1.327 1_556 S
C339 C355 1.429 . S
C339 H361 0.950 1_545 S
C340 H336 0.949 . S
C340 C348 1.574 . S
C340 C356 1.368 . S
H341 C349 0.950 . S
H342 C347 0.950 . S
H343 C348 0.949 . S
H344 C350 0.950 . S
H345 C351 0.950 . S
H346 C352 0.949 . S
C347 H342 0.950 . S
C347 C349 1.327 . S
C347 C353 1.429 . S
C348 C340 1.574 . S
C348 H343 0.949 . S
C348 C354 1.368 1_545 S
C349 C333 1.349 . S
C349 H341 0.950 . S
C349 C347 1.327 . S
C350 C338 1.349 1_556 S
C350 H344 0.950 . S
C350 C351 1.327 . S
C351 H345 0.950 . S
C351 C350 1.327 . S
C351 C355 1.429 . S
C352 C335 1.574 . S
C352 H346 0.949 . S
C352 C356 1.368 1_565 S
C353 C334 1.429 . S
C353 C347 1.429 . S
C353 C354 1.523 . S
C354 C335 1.368 . S
C354 C348 1.368 1_565 S
C354 C353 1.523 . S
C355 C339 1.429 . S
C355 C351 1.429 . S
C355 C356 1.523 . S
C356 C340 1.368 . S
C356 C352 1.368 1_545 S
C356 C355 1.523 . S
H357 C332 0.950 . S
H358 C334 0.936 1_545 S
H359 C335 0.949 . S
H360 C337 0.950 . S
H361 C339 0.950 1_565 S
C362 C363 1.349 . S
C362 C364 1.327 . S
C362 H387 0.952 1_565 S
C363 C362 1.349 . S
C363 C379 1.349 . S
C364 C362 1.327 . S
C364 C383 1.429 . S
C364 H388 0.950 1_565 S
C365 C382 1.574 . S
C365 C384 1.368 . S
C365 H389 0.949 . S
H366 C370 0.949 . S
C367 C368 1.349 . S
C367 C369 1.327 1_545 S
C367 H390 0.950 1_545 S
C368 C367 1.349 . S
C368 C380 1.349 . S
C369 C367 1.327 1_565 S
C369 C385 1.429 1_565 S
C369 H391 0.950 . S
C370 H366 0.949 . S
C370 C378 1.574 . S
C370 C386 1.368 . S
H371 C379 0.950 . S
H372 C377 0.950 . S
H373 C378 0.949 . S
H374 C380 0.950 . S
H375 C381 0.950 . S
H376 C382 0.949 . S
C377 H372 0.950 . S
C377 C379 1.327 . S
C377 C383 1.429 . S
C378 C370 1.574 . S
C378 H373 0.949 . S
C378 C384 1.368 1_545 S
C379 C363 1.349 . S
C379 H371 0.950 . S
C379 C377 1.327 . S
C380 C368 1.349 . S
C380 H374 0.950 . S
C380 C381 1.327 . S
C381 H375 0.950 . S
C381 C380 1.327 . S
C381 C385 1.429 . S
C382 C365 1.574 . S
C382 H376 0.949 . S
C382 C386 1.368 1_565 S
C383 C364 1.429 . S
C383 C377 1.429 . S
C383 C384 1.523 . S
C384 C365 1.368 . S
C384 C378 1.368 1_565 S
C384 C383 1.523 . S
C385 C369 1.429 1_545 S
C385 C381 1.429 . S
C385 C386 1.523 . S
C386 C370 1.368 . S
C386 C382 1.368 1_545 S
C386 C385 1.523 . S
H387 C362 0.952 1_545 S
H388 C364 0.950 1_545 S
H389 C365 0.949 . S
H390 C367 0.950 1_565 S
H391 C369 0.950 . S
C392 C393 1.349 . S
C392 C394 1.327 . S
C392 H417 0.950 . S
C393 C392 1.349 . S
C393 C409 1.349 . S
C394 C392 1.327 . S
C394 C413 1.429 . S
C394 H418 0.950 . S
C395 C412 1.574 . S
C395 C414 1.368 . S
C395 H419 0.949 . S
H396 C400 0.949 . S
C397 C398 1.349 . S
C397 C399 1.327 1_556 S
C397 H420 0.950 . S
C398 C397 1.349 . S
C398 C410 1.349 1_556 S
C399 C397 1.327 1_554 S
C399 C415 1.429 . S
C399 H421 0.950 . S
C400 H396 0.949 . S
C400 C408 1.574 . S
C400 C416 1.368 . S
H401 C409 0.950 . S
H402 C407 0.950 . S
H403 C408 0.949 . S
H404 C410 0.950 . S
H405 C411 0.950 . S
H406 C412 0.949 . S
C407 H402 0.950 . S
C407 C409 1.327 . S
C407 C413 1.429 . S
C408 C400 1.574 . S
C408 H403 0.949 . S
C408 C414 1.368 . S
C409 C393 1.349 . S
C409 H401 0.950 . S
C409 C407 1.327 . S
C410 C398 1.349 1_554 S
C410 H404 0.950 . S
C410 C411 1.327 . S
C411 H405 0.950 . S
C411 C410 1.327 . S
C411 C415 1.429 . S
C412 C395 1.574 . S
C412 H406 0.949 . S
C412 C416 1.368 . S
C413 C394 1.429 . S
C413 C407 1.429 . S
C413 C414 1.523 . S
C414 C395 1.368 . S
C414 C408 1.368 . S
C414 C413 1.523 . S
C415 C399 1.429 . S
C415 C411 1.429 . S
C415 C416 1.523 . S
C416 C400 1.368 . S
C416 C412 1.368 . S
C416 C415 1.523 . S
H417 C392 0.950 . S
H418 C394 0.950 . S
H419 C395 0.949 . S
H420 C397 0.950 . S
H421 C399 0.950 . S
C422 C423 1.349 . S
C422 C424 1.327 . S
C422 H447 0.950 . S
C423 C422 1.349 . S
C423 C439 1.349 . S
C424 C422 1.327 . S
C424 C443 1.429 . S
C424 H448 0.950 . S
C425 C442 1.574 . S
C425 C444 1.368 . S
C425 H449 0.949 . S
H426 C430 0.949 . S
C427 C428 1.349 . S
C427 C429 1.327 . S
C427 H450 0.950 . S
C428 C427 1.349 . S
C428 C440 1.349 . S
C429 C427 1.327 . S
C429 C445 1.429 . S
C429 H451 0.950 . S
C430 H426 0.949 . S
C430 C438 1.574 . S
C430 C446 1.368 . S
H431 C439 0.950 . S
H432 C437 0.950 . S
H433 C438 0.949 . S
H434 C440 0.950 . S
H435 C441 0.950 . S
H436 C442 0.949 . S
C437 H432 0.950 . S
C437 C439 1.327 . S
C437 C443 1.429 . S
C438 C430 1.574 . S
C438 H433 0.949 . S
C438 C444 1.368 . S
C439 C423 1.349 . S
C439 H431 0.950 . S
C439 C437 1.327 . S
C440 C428 1.349 . S
C440 H434 0.950 . S
C440 C441 1.327 . S
C441 H435 0.950 . S
C441 C440 1.327 . S
C441 C445 1.429 . S
C442 C425 1.574 . S
C442 H436 0.949 . S
C442 C446 1.368 . S
C443 C424 1.429 . S
C443 C437 1.429 . S
C443 C444 1.523 . S
C444 C425 1.368 . S
C444 C438 1.368 . S
C444 C443 1.523 . S
C445 C429 1.429 . S
C445 C441 1.429 . S
C445 C446 1.523 . S
C446 C430 1.368 . S
C446 C442 1.368 . S
C446 C445 1.523 . S
H447 C422 0.950 . S
H448 C424 0.950 . S
H449 C425 0.949 . S
H450 C427 0.950 . S
H451 C429 0.950 . S
C452 C453 1.349 1_556 S
C452 C454 1.327 . S
C452 H477 0.950 1_556 S
C453 C452 1.349 1_554 S
C453 C469 1.349 1_554 S
C454 C452 1.327 . S
C454 C473 1.429 . S
C454 H478 0.950 . S
C455 C472 1.574 . S
C455 C474 1.368 . S
C455 H479 0.949 . S
H456 C460 0.949 . S
C457 C458 1.349 . S
C457 C459 1.327 . S
C457 H480 0.950 . S
C458 C457 1.349 . S
C458 C470 1.349 . S
C459 C457 1.327 . S
C459 C475 1.429 . S
C459 H481 0.950 . S
C460 H456 0.949 . S
C460 C468 1.574 . S
C460 C476 1.368 . S
H461 C469 0.950 1_554 S
H462 C467 0.950 . S
H463 C468 0.949 . S
H464 C470 0.950 . S
H465 C471 0.950 . S
H466 C472 0.949 . S
C467 H462 0.950 . S
C467 C469 1.327 . S
C467 C473 1.429 . S
C468 C460 1.574 . S
C468 H463 0.949 . S
C468 C474 1.368 . S
C469 C453 1.349 1_556 S
C469 H461 0.950 1_556 S
C469 C467 1.327 . S
C470 C458 1.349 . S
C470 H464 0.950 . S
C470 C471 1.327 . S
C471 H465 0.950 . S
C471 C470 1.327 . S
C471 C475 1.429 . S
C472 C455 1.574 . S
C472 H466 0.949 . S
C472 C476 1.368 . S
C473 C454 1.429 . S
C473 C467 1.429 . S
C473 C474 1.523 . S
C474 C455 1.368 . S
C474 C468 1.368 . S
C474 C473 1.523 . S
C475 C459 1.429 . S
C475 C471 1.429 . S
C475 C476 1.523 . S
C476 C460 1.368 . S
C476 C472 1.368 . S
C476 C475 1.523 . S
H477 C452 0.950 1_554 S
H478 C454 0.950 . S
H479 C455 0.949 . S
H480 C457 0.950 . S
H481 C459 0.950 . S
C482 C483 1.349 . S
C482 C484 1.327 . S
C482 H507 0.950 . S
C483 C482 1.349 . S
C483 C499 1.349 . S
C484 C482 1.327 . S
C484 C503 1.429 . S
C484 H508 0.950 . S
C485 C502 1.574 . S
C485 C504 1.368 . S
C485 H509 0.949 . S
H486 C490 0.949 . S
C487 C488 1.349 . S
C487 C489 1.327 . S
C487 H510 0.950 . S
C488 C487 1.349 . S
C488 C500 1.349 . S
C489 C487 1.327 . S
C489 C505 1.429 . S
C489 H511 0.950 . S
C490 H486 0.949 . S
C490 C498 1.574 . S
C490 C506 1.368 . S
H491 C499 0.950 . S
H492 C497 0.950 . S
H493 C498 0.949 . S
H494 C500 0.950 . S
H495 C501 0.950 . S
H496 C502 0.949 . S
C497 H492 0.950 . S
C497 C499 1.327 . S
C497 C503 1.429 . S
C498 C490 1.574 . S
C498 H493 0.949 . S
C498 C504 1.368 . S
C499 C483 1.349 . S
C499 H491 0.950 . S
C499 C497 1.327 . S
C500 C488 1.349 . S
C500 H494 0.950 . S
C500 C501 1.327 . S
C501 H495 0.950 . S
C501 C500 1.327 . S
C501 C505 1.429 . S
C502 C485 1.574 . S
C502 H496 0.949 . S
C502 C506 1.368 . S
C503 C484 1.429 . S
C503 C497 1.429 . S
C503 C504 1.523 . S
C504 C485 1.368 . S
C504 C498 1.368 . S
C504 C503 1.523 . S
C505 C489 1.429 . S
C505 C501 1.429 . S
C505 C506 1.523 . S
C506 C490 1.368 . S
C506 C502 1.368 . S
C506 C505 1.523 . S
H507 C482 0.950 . S
H508 C484 0.950 . S
H509 C485 0.949 . S
H510 C487 0.950 . S
H511 C489 0.950 . S
C512 C513 1.349 . S
C512 C514 1.327 . S
C512 H537 0.950 . S
C513 C512 1.349 . S
C513 C529 1.349 . S
C514 C512 1.327 . S
C514 C533 1.429 . S
C514 H538 0.950 . S
C515 C532 1.574 . S
C515 C534 1.368 . S
C515 H539 0.949 . S
H516 C520 0.949 . S
C517 C518 1.349 . S
C517 C519 1.327 . S
C517 H540 0.950 . S
C518 C517 1.349 . S
C518 C530 1.349 . S
C519 C517 1.327 . S
C519 C535 1.429 . S
C519 H541 0.950 . S
C520 H516 0.949 . S
C520 C528 1.574 . S
C520 C536 1.368 . S
H521 C529 0.950 . S
H522 C527 0.950 . S
H523 C528 0.949 . S
H524 C530 0.950 . S
H525 C531 0.950 . S
H526 C532 0.949 . S
C527 H522 0.950 . S
C527 C529 1.327 . S
C527 C533 1.429 . S
C528 C520 1.574 . S
C528 H523 0.949 . S
C528 C534 1.368 1_545 S
C529 C513 1.349 . S
C529 H521 0.950 . S
C529 C527 1.327 . S
C530 C518 1.349 . S
C530 H524 0.950 . S
C530 C531 1.327 . S
C531 H525 0.950 . S
C531 C530 1.327 . S
C531 C535 1.429 . S
C532 C515 1.574 . S
C532 H526 0.949 . S
C532 C536 1.368 1_565 S
C533 C514 1.429 . S
C533 C527 1.429 . S
C533 C534 1.523 . S
C534 C515 1.368 . S
C534 C528 1.368 1_565 S
C534 C533 1.523 . S
C535 C519 1.429 . S
C535 C531 1.429 . S
C535 C536 1.523 . S
C536 C520 1.368 . S
C536 C532 1.368 1_545 S
C536 C535 1.523 . S
H537 C512 0.950 . S
H538 C514 0.950 . S
H539 C515 0.949 . S
H540 C517 0.950 . S
H541 C519 0.950 . S
C542 C543 1.349 . S
C542 C544 1.327 . S
C542 H567 0.950 . S
C543 C542 1.349 . S
C543 C559 1.349 . S
C544 C542 1.327 . S
C544 C563 1.429 . S
C544 H568 0.950 . S
C545 C562 1.574 1_565 S
C545 C564 1.368 1_554 S
C545 H569 0.949 . S
H546 C550 0.949 . S
C547 C548 1.349 . S
C547 C549 1.327 . S
C547 H570 0.950 . S
C548 C547 1.349 . S
C548 C560 1.349 . S
C549 C547 1.327 . S
C549 C565 1.429 . S
C549 H571 0.950 . S
C550 H546 0.949 . S
C550 C558 1.574 1_545 S
C550 C566 1.368 1_556 S
H551 C559 0.950 1_554 S
H552 C557 0.950 . S
H553 C558 0.949 . S
H554 C560 0.950 1_556 S
H555 C561 0.950 . S
H556 C562 0.949 . S
C557 H552 0.950 . S
C557 C559 1.327 1_554 S
C557 C563 1.429 1_554 S
C558 C550 1.574 1_565 S
C558 H553 0.949 . S
C558 C564 1.368 . S
C559 C543 1.349 . S
C559 H551 0.950 1_556 S
C559 C557 1.327 1_556 S
C560 C548 1.349 . S
C560 H554 0.950 1_554 S
C560 C561 1.327 1_554 S
C561 H555 0.950 . S
C561 C560 1.327 1_556 S
C561 C565 1.429 1_556 S
C562 C545 1.574 1_545 S
C562 H556 0.949 . S
C562 C566 1.368 . S
C563 C544 1.429 . S
C563 C557 1.429 1_556 S
C563 C564 1.523 . S
C564 C545 1.368 1_556 S
C564 C558 1.368 . S
C564 C563 1.523 . S
C565 C549 1.429 . S
C565 C561 1.429 1_554 S
C565 C566 1.523 . S
C566 C550 1.368 1_554 S
C566 C562 1.368 . S
C566 C565 1.523 . S
H567 C542 0.950 . S
H568 C544 0.950 . S
H569 C545 0.949 . S
H570 C547 0.950 . S
H571 C549 0.950 . S
C572 C573 1.349 . S
C572 C574 1.327 . S
C572 H597 0.950 . S
C573 C572 1.349 . S
C573 C589 1.349 . S
C574 C572 1.327 . S
C574 C593 1.429 . S
C574 H598 0.950 . S
C575 C592 1.574 1_655 S
C575 C594 1.368 . S
C575 H599 0.949 . S
H576 C580 0.949 . S
C577 C578 1.349 . S
C577 C579 1.327 . S
C577 H600 0.950 . S
C578 C577 1.349 . S
C578 C590 1.349 . S
C579 C577 1.327 . S
C579 C595 1.429 . S
C579 H601 0.950 . S
C580 H576 0.949 . S
C580 C588 1.574 1_455 S
C580 C596 1.368 . S
H581 C589 0.950 . S
H582 C587 0.950 . S
H583 C588 0.949 . S
H584 C590 0.950 . S
H585 C591 0.950 . S
H586 C592 0.949 . S
C587 H582 0.950 . S
C587 C589 1.327 . S
C587 C593 1.429 . S
C588 C580 1.574 1_655 S
C588 H583 0.949 . S
C588 C594 1.368 . S
C589 C573 1.349 . S
C589 H581 0.950 . S
C589 C587 1.327 . S
C590 C578 1.349 . S
C590 H584 0.950 . S
C590 C591 1.327 . S
C591 H585 0.950 . S
C591 C590 1.327 . S
C591 C595 1.429 . S
C592 C575 1.574 1_455 S
C592 H586 0.949 . S
C592 C596 1.368 . S
C593 C574 1.429 . S
C593 C587 1.429 . S
C593 C594 1.523 . S
C594 C575 1.368 . S
C594 C588 1.368 . S
C594 C593 1.523 . S
C595 C579 1.429 . S
C595 C591 1.429 . S
C595 C596 1.523 . S
C596 C580 1.368 . S
C596 C592 1.368 . S
C596 C595 1.523 . S
H597 C572 0.950 . S
H598 C574 0.950 . S
H599 C575 0.949 . S
H600 C577 0.950 . S
H601 C579 0.950 . S
C602 C603 1.349 . S
C602 C604 1.327 . S
C602 H627 0.950 . S
C603 C602 1.349 . S
C603 C619 1.349 . S
C604 C602 1.327 . S
C604 C623 1.429 . S
C604 H628 0.950 1_554 S
C605 C622 1.574 1_455 S
C605 C624 1.368 . S
C605 H629 0.949 . S
H606 C610 0.949 . S
C607 C608 1.349 . S
C607 C609 1.327 . S
C607 H630 0.950 . S
C608 C607 1.349 . S
C608 C620 1.349 . S
C609 C607 1.327 . S
C609 C625 1.429 . S
C609 H631 0.950 1_556 S
C610 H606 0.949 . S
C610 C618 1.574 1_655 S
C610 C626 1.368 . S
H611 C619 0.950 . S
H612 C617 0.950 . S
H613 C618 0.949 . S
H614 C620 0.950 . S
H615 C621 0.950 . S
H616 C622 0.949 . S
C617 H612 0.950 . S
C617 C619 1.327 . S
C617 C623 1.429 . S
C618 C610 1.574 1_455 S
C618 H613 0.949 . S
C618 C624 1.368 1_556 S
C619 C603 1.349 . S
C619 H611 0.950 . S
C619 C617 1.327 . S
C620 C608 1.349 . S
C620 H614 0.950 . S
C620 C621 1.327 . S
C621 H615 0.950 . S
C621 C620 1.327 . S
C621 C625 1.429 . S
C622 C605 1.574 1_655 S
C622 H616 0.949 . S
C622 C626 1.368 1_554 S
C623 C604 1.429 . S
C623 C617 1.429 . S
C623 C624 1.523 . S
C624 C605 1.368 . S
C624 C618 1.368 1_554 S
C624 C623 1.523 . S
C625 C609 1.429 . S
C625 C621 1.429 . S
C625 C626 1.523 . S
C626 C610 1.368 . S
C626 C622 1.368 1_556 S
C626 C625 1.523 . S
H627 C602 0.950 . S
H628 C604 0.950 1_556 S
H629 C605 0.949 . S
H630 C607 0.950 . S
H631 C609 0.950 1_554 S
C632 C633 1.349 . S
C632 C634 1.327 . S
C632 H657 0.950 . S
C633 C632 1.349 . S
C633 C649 1.349 . S
C634 C632 1.327 . S
C634 C653 1.429 . S
C634 H658 0.950 . S
C635 C652 1.574 1_455 S
C635 C654 1.368 . S
C635 H659 0.949 . S
H636 C640 0.949 . S
C637 C638 1.349 . S
C637 C639 1.327 . S
C637 H660 0.950 . S
C638 C637 1.349 . S
C638 C650 1.349 . S
C639 C637 1.327 . S
C639 C655 1.429 . S
C639 H661 0.950 . S
C640 H636 0.949 . S
C640 C648 1.574 1_655 S
C640 C656 1.368 . S
H641 C649 0.950 . S
H642 C647 0.950 . S
H643 C648 0.949 . S
H644 C650 0.950 . S
H645 C651 0.950 . S
H646 C652 0.949 . S
C647 H642 0.950 . S
C647 C649 1.327 . S
C647 C653 1.429 . S
C648 C640 1.574 1_455 S
C648 H643 0.949 . S
C648 C654 1.368 . S
C649 C633 1.349 . S
C649 H641 0.950 . S
C649 C647 1.327 . S
C650 C638 1.349 . S
C650 H644 0.950 . S
C650 C651 1.327 . S
C651 H645 0.950 . S
C651 C650 1.327 . S
C651 C655 1.429 . S
C652 C635 1.574 1_655 S
C652 H646 0.949 . S
C652 C656 1.368 . S
C653 C634 1.429 . S
C653 C647 1.429 . S
C653 C654 1.523 . S
C654 C635 1.368 . S
C654 C648 1.368 . S
C654 C653 1.523 . S
C655 C639 1.429 . S
C655 C651 1.429 . S
C655 C656 1.523 . S
C656 C640 1.368 . S
C656 C652 1.368 . S
C656 C655 1.523 . S
H657 C632 0.950 . S
H658 C634 0.950 . S
H659 C635 0.949 . S
H660 C637 0.950 . S
H661 C639 0.950 . S
C662 C663 1.349 . S
C662 C664 1.327 . S
C662 H687 0.950 . S
C663 C662 1.349 . S
C663 C679 1.349 . S
C664 C662 1.327 . S
C664 C683 1.429 . S
C664 H688 0.950 . S
C665 C682 1.574 1_455 S
C665 C684 1.368 . S
C665 H689 0.949 . S
H666 C670 0.949 . S
C667 C668 1.349 . S
C667 C669 1.327 . S
C667 H690 0.950 . S
C668 C667 1.349 . S
C668 C680 1.349 . S
C669 C667 1.327 . S
C669 C685 1.429 . S
C669 H691 0.950 . S
C670 H666 0.949 . S
C670 C678 1.574 1_655 S
C670 C686 1.368 . S
H671 C679 0.950 . S
H672 C677 0.950 . S
H673 C678 0.949 . S
H674 C680 0.950 . S
H675 C681 0.950 . S
H676 C682 0.949 . S
C677 H672 0.950 . S
C677 C679 1.327 . S
C677 C683 1.429 . S
C678 C670 1.574 1_455 S
C678 H673 0.949 . S
C678 C684 1.368 . S
C679 C663 1.349 . S
C679 H671 0.950 . S
C679 C677 1.327 . S
C680 C668 1.349 . S
C680 H674 0.950 . S
C680 C681 1.327 . S
C681 H675 0.950 . S
C681 C680 1.327 . S
C681 C685 1.429 . S
C682 C665 1.574 1_655 S
C682 H676 0.949 . S
C682 C686 1.368 . S
C683 C664 1.429 . S
C683 C677 1.429 . S
C683 C684 1.523 . S
C684 C665 1.368 . S
C684 C678 1.368 . S
C684 C683 1.523 . S
C685 C669 1.429 . S
C685 C681 1.429 . S
C685 C686 1.523 . S
C686 C670 1.368 . S
C686 C682 1.368 . S
C686 C685 1.523 . S
H687 C662 0.950 . S
H688 C664 0.950 . S
H689 C665 0.949 . S
H690 C667 0.950 . S
H691 C669 0.950 . S
C692 C693 1.349 . S
C692 C694 1.327 . S
C692 H717 0.950 . S
C693 C692 1.349 . S
C693 C709 1.349 . S
C694 C692 1.327 . S
C694 C713 1.429 . S
C694 H718 0.950 . S
C695 C712 1.574 . S
C695 C714 1.368 . S
C695 H719 0.949 . S
H696 C700 0.949 . S
C697 C698 1.349 . S
C697 C699 1.327 . S
C697 H720 0.950 . S
C698 C697 1.349 . S
C698 C710 1.349 . S
C699 C697 1.327 . S
C699 C715 1.429 . S
C699 H721 0.950 . S
C700 H696 0.949 . S
C700 C708 1.574 . S
C700 C716 1.368 . S
H701 C709 0.950 . S
H702 C707 0.950 . S
H703 C708 0.949 . S
H704 C710 0.950 . S
H705 C711 0.950 . S
H706 C712 0.949 . S
C707 H702 0.950 . S
C707 C709 1.327 . S
C707 C713 1.429 . S
C708 C700 1.574 . S
C708 H703 0.949 . S
C708 C714 1.368 . S
C709 C693 1.349 . S
C709 H701 0.950 . S
C709 C707 1.327 . S
C710 C698 1.349 . S
C710 H704 0.950 . S
C710 C711 1.327 . S
C711 H705 0.950 . S
C711 C710 1.327 . S
C711 C715 1.429 . S
C712 C695 1.574 . S
C712 H706 0.949 . S
C712 C716 1.368 . S
C713 C694 1.429 . S
C713 C707 1.429 . S
C713 C714 1.523 . S
C714 C695 1.368 . S
C714 C708 1.368 . S
C714 C713 1.523 . S
C715 C699 1.429 . S
C715 C711 1.429 . S
C715 C716 1.523 . S
C716 C700 1.368 . S
C716 C712 1.368 . S
C716 C715 1.523 . S
H717 C692 0.950 . S
H718 C694 0.950 . S
H719 C695 0.949 . S
H720 C697 0.950 . S
H721 C699 0.950 . S
C722 C723 1.349 . S
C722 C724 1.327 . S
C722 H747 0.950 . S
C723 C722 1.349 . S
C723 C739 1.349 . S
C724 C722 1.327 . S
C724 C743 1.429 . S
C724 H748 0.950 . S
C725 C742 1.574 . S
C725 C744 1.368 . S
C725 H749 0.949 . S
H726 C730 0.949 . S
C727 C728 1.349 . S
C727 C729 1.327 . S
C727 H750 0.950 . S
C728 C727 1.349 . S
C728 C740 1.349 . S
C729 C727 1.327 . S
C729 C745 1.429 . S
C729 H751 0.950 . S
C730 H726 0.949 . S
C730 C738 1.574 . S
C730 C746 1.368 . S
H731 C739 0.950 . S
H732 C737 0.950 . S
H733 C738 0.949 . S
H734 C740 0.950 . S
H735 C741 0.950 . S
H736 C742 0.949 . S
C737 H732 0.950 . S
C737 C739 1.327 . S
C737 C743 1.429 . S
C738 C730 1.574 . S
C738 H733 0.949 . S
C738 C744 1.368 . S
C739 C723 1.349 . S
C739 H731 0.950 . S
C739 C737 1.327 . S
C740 C728 1.349 . S
C740 H734 0.950 . S
C740 C741 1.327 . S
C741 H735 0.950 . S
C741 C740 1.327 . S
C741 C745 1.429 . S
C742 C725 1.574 . S
C742 H736 0.949 . S
C742 C746 1.368 . S
C743 C724 1.429 . S
C743 C737 1.429 . S
C743 C744 1.523 . S
C744 C725 1.368 . S
C744 C738 1.368 . S
C744 C743 1.523 . S
C745 C729 1.429 . S
C745 C741 1.429 . S
C745 C746 1.523 . S
C746 C730 1.368 . S
C746 C742 1.368 . S
C746 C745 1.523 . S
H747 C722 0.950 . S
H748 C724 0.950 . S
H749 C725 0.949 . S
H750 C727 0.950 . S
H751 C729 0.950 . S
C752 C753 1.349 . S
C752 C754 1.327 . S
C752 H777 0.950 . S
C753 C752 1.349 . S
C753 C769 1.349 . S
C754 C752 1.327 . S
C754 C773 1.429 . S
C754 H778 0.950 . S
C755 C772 1.574 . S
C755 C774 1.368 . S
C755 H779 0.949 . S
H756 C760 0.949 . S
C757 C758 1.349 . S
C757 C759 1.327 . S
C757 H780 0.950 . S
C758 C757 1.349 . S
C758 C770 1.349 . S
C759 C757 1.327 . S
C759 C775 1.429 . S
C759 H781 0.950 . S
C760 H756 0.949 . S
C760 C768 1.574 . S
C760 C776 1.368 . S
H761 C769 0.950 . S
H762 C767 0.950 . S
H763 C768 0.949 . S
H764 C770 0.950 . S
H765 C771 0.950 . S
H766 C772 0.949 . S
C767 H762 0.950 . S
C767 C769 1.327 . S
C767 C773 1.429 . S
C768 C760 1.574 . S
C768 H763 0.949 . S
C768 C774 1.368 . S
C769 C753 1.349 . S
C769 H761 0.950 . S
C769 C767 1.327 . S
C770 C758 1.349 . S
C770 H764 0.950 . S
C770 C771 1.327 . S
C771 H765 0.950 . S
C771 C770 1.327 . S
C771 C775 1.429 . S
C772 C755 1.574 . S
C772 H766 0.949 . S
C772 C776 1.368 . S
C773 C754 1.429 . S
C773 C767 1.429 . S
C773 C774 1.523 . S
C774 C755 1.368 . S
C774 C768 1.368 . S
C774 C773 1.523 . S
C775 C759 1.429 . S
C775 C771 1.429 . S
C775 C776 1.523 . S
C776 C760 1.368 . S
C776 C772 1.368 . S
C776 C775 1.523 . S
H777 C752 0.950 . S
H778 C754 0.950 . S
H779 C755 0.949 . S
H780 C757 0.950 . S
H781 C759 0.950 . S
C782 C783 1.349 . S
C782 C784 1.327 . S
C782 H807 0.950 . S
C783 C782 1.349 . S
C783 C799 1.349 . S
C784 C782 1.327 . S
C784 C803 1.429 . S
C784 H808 0.950 . S
C785 C802 1.574 . S
C785 C804 1.368 1_554 S
C785 H809 0.949 . S
H786 C790 0.949 . S
C787 C788 1.349 . S
C787 C789 1.327 . S
C787 H810 0.950 . S
C788 C787 1.349 . S
C788 C800 1.349 . S
C789 C787 1.327 . S
C789 C805 1.429 . S
C789 H811 0.950 . S
C790 H786 0.949 . S
C790 C798 1.574 . S
C790 C806 1.368 1_556 S
H791 C799 0.950 . S
H792 C797 0.950 1_554 S
H793 C798 0.949 . S
H794 C800 0.950 . S
H795 C801 0.950 1_556 S
H796 C802 0.949 . S
C797 H792 0.950 1_556 S
C797 C799 1.327 . S
C797 C803 1.429 . S
C798 C790 1.574 . S
C798 H793 0.949 . S
C798 C804 1.368 . S
C799 C783 1.349 . S
C799 H791 0.950 . S
C799 C797 1.327 . S
C800 C788 1.349 . S
C800 H794 0.950 . S
C800 C801 1.327 . S
C801 H795 0.950 1_554 S
C801 C800 1.327 . S
C801 C805 1.429 . S
C802 C785 1.574 . S
C802 H796 0.949 . S
C802 C806 1.368 . S
C803 C784 1.429 . S
C803 C797 1.429 . S
C803 C804 1.523 . S
C804 C785 1.368 1_556 S
C804 C798 1.368 . S
C804 C803 1.523 . S
C805 C789 1.429 . S
C805 C801 1.429 . S
C805 C806 1.523 . S
C806 C790 1.368 1_554 S
C806 C802 1.368 . S
C806 C805 1.523 . S
H807 C782 0.950 . S
H808 C784 0.950 . S
H809 C785 0.949 . S
H810 C787 0.950 . S
H811 C789 0.950 . S
C812 C813 1.349 . S
C812 C814 1.327 . S
C812 H837 0.950 . S
C813 C812 1.349 . S
C813 C829 1.349 . S
C814 C812 1.327 . S
C814 C833 1.429 . S
C814 H838 0.950 . S
C815 C832 1.574 . S
C815 C834 1.368 . S
C815 H839 0.949 . S
H816 C820 0.949 . S
C817 C818 1.349 . S
C817 C819 1.327 . S
C817 H840 0.950 . S
C818 C817 1.349 . S
C818 C830 1.349 . S
C819 C817 1.327 . S
C819 C835 1.429 . S
C819 H841 0.950 . S
C820 H816 0.949 . S
C820 C828 1.574 . S
C820 C836 1.368 . S
H821 C829 0.950 . S
H822 C827 0.950 . S
H823 C828 0.949 . S
H824 C830 0.950 . S
H825 C831 0.950 . S
H826 C832 0.949 . S
C827 H822 0.950 . S
C827 C829 1.327 . S
C827 C833 1.429 . S
C828 C820 1.574 . S
C828 H823 0.949 . S
C828 C834 1.368 . S
C829 C813 1.349 . S
C829 H821 0.950 . S
C829 C827 1.327 . S
C830 C818 1.349 . S
C830 H824 0.950 . S
C830 C831 1.327 . S
C831 H825 0.950 . S
C831 C830 1.327 . S
C831 C835 1.429 . S
C832 C815 1.574 . S
C832 H826 0.949 . S
C832 C836 1.368 . S
C833 C814 1.429 . S
C833 C827 1.429 . S
C833 C834 1.523 . S
C834 C815 1.368 . S
C834 C828 1.368 . S
C834 C833 1.523 . S
C835 C819 1.429 . S
C835 C831 1.429 . S
C835 C836 1.523 . S
C836 C820 1.368 . S
C836 C832 1.368 . S
C836 C835 1.523 . S
H837 C812 0.950 . S
H838 C814 0.950 . S
H839 C815 0.949 . S
H840 C817 0.950 . S
H841 C819 0.950 . S
C842 C843 1.349 . S
C842 C844 1.327 . S
C842 H867 0.950 . S
C843 C842 1.349 . S
C843 C859 1.349 . S
C844 C842 1.327 . S
C844 C863 1.429 . S
C844 H868 0.950 . S
C845 C862 1.574 . S
C845 C864 1.368 1_554 S
C845 H869 0.949 . S
H846 C850 0.949 . S
C847 C848 1.349 . S
C847 C849 1.327 . S
C847 H870 0.950 . S
C848 C847 1.349 . S
C848 C860 1.349 . S
C849 C847 1.327 . S
C849 C865 1.429 . S
C849 H871 0.950 . S
C850 H846 0.949 . S
C850 C858 1.574 . S
C850 C866 1.368 1_556 S
H851 C859 0.950 . S
H852 C857 0.950 1_554 S
H853 C858 0.949 . S
H854 C860 0.950 . S
H855 C861 0.950 1_556 S
H856 C862 0.949 . S
C857 H852 0.950 1_556 S
C857 C859 1.327 . S
C857 C863 1.429 . S
C858 C850 1.574 . S
C858 H853 0.949 . S
C858 C864 1.368 . S
C859 C843 1.349 . S
C859 H851 0.950 . S
C859 C857 1.327 . S
C860 C848 1.349 . S
C860 H854 0.950 . S
C860 C861 1.327 . S
C861 H855 0.950 1_554 S
C861 C860 1.327 . S
C861 C865 1.429 . S
C862 C845 1.574 . S
C862 H856 0.949 . S
C862 C866 1.368 . S
C863 C844 1.429 . S
C863 C857 1.429 . S
C863 C864 1.523 . S
C864 C845 1.368 1_556 S
C864 C858 1.368 . S
C864 C863 1.523 . S
C865 C849 1.429 . S
C865 C861 1.429 . S
C865 C866 1.523 . S
C866 C850 1.368 1_554 S
C866 C862 1.368 . S
C866 C865 1.523 . S
H867 C842 0.950 . S
H868 C844 0.950 . S
H869 C845 0.949 . S
H870 C847 0.950 . S
H871 C849 0.950 . S
C273 C104 1.257 . S
C278 C20 1.256 . S
C303 C54 1.256 . S
C308 C70 1.257 . S
C333 C88 1.256 . S
C338 C36 1.257 . S
C363 C122 1.256 . S
C368 C2 1.257 . S
C393 C156 1.256 . S
C398 C240 1.257 . S
C423 C190 1.256 . S
C428 C206 1.257 . S
C453 C172 1.257 . S
C458 C224 1.256 . S
C483 C258 1.256 . S
C488 C138 1.257 . S
C513 C77 1.373 . S
C518 C9 1.373 . S
C543 C111 1.373 . S
C548 C43 1.373 . S
C573 C145 1.373 . S
C578 C213 1.373 . S
C603 C179 1.373 . S
C608 C247 1.373 . S
C633 C5 1.595 . S
C638 C39 1.595 . S
C663 C107 1.595 . S
C668 C73 1.595 . S
C693 C175 1.595 . S
C698 C141 1.595 . S
C723 C243 1.595 . S
C728 C209 1.595 . S
C753 C237 1.562 . S
C758 C33 1.562 . S
C783 C271 1.562 . S
C788 C67 1.562 . S
C813 C169 1.562 . S
C818 C101 1.562 . S
C843 C135 1.562 . S
C848 C203 1.562 . S
