# Generated by pormake.
# Topology lcs, (4)-cn, num edge types: 1
# Building blocks:
#     Node 0, Type 0, BuildingBlock: GALJAG_clean_sbu_0, # of connection points: 4
#     Node 1, Type 0, BuildingBlock: GALJAG_clean_sbu_0, # of connection points: 4
#     Node 2, Type 0, BuildingBlock: GALJAG_clean_sbu_0, # of connection points: 4
#     Node 3, Type 0, BuildingBlock: GALJAG_clean_sbu_0, # of connection points: 4
#     Node 4, Type 0, BuildingBlock: GALJAG_clean_sbu_0, # of connection points: 4
#     Node 5, Type 0, BuildingBlock: GALJAG_clean_sbu_0, # of connection points: 4
#     Node 6, Type 0, BuildingBlock: GALJAG_clean_sbu_0, # of connection points: 4
#     Node 7, Type 0, BuildingBlock: GALJAG_clean_sbu_0, # of connection points: 4
#     Node 8, Type 0, BuildingBlock: GALJAG_clean_sbu_0, # of connection points: 4
#     Node 9, Type 0, BuildingBlock: GALJAG_clean_sbu_0, # of connection points: 4
#     Node 10, Type 0, BuildingBlock: GALJAG_clean_sbu_0, # of connection points: 4
#     Node 11, Type 0, BuildingBlock: GALJAG_clean_sbu_0, # of connection points: 4
#     Node 12, Type 0, BuildingBlock: GALJAG_clean_sbu_0, # of connection points: 4
#     Node 13, Type 0, BuildingBlock: GALJAG_clean_sbu_0, # of connection points: 4
#     Node 14, Type 0, BuildingBlock: GALJAG_clean_sbu_0, # of connection points: 4
#     Node 15, Type 0, BuildingBlock: GALJAG_clean_sbu_0, # of connection points: 4
#     Node 16, Type 0, BuildingBlock: GALJAG_clean_sbu_0, # of connection points: 4
#     Node 17, Type 0, BuildingBlock: GALJAG_clean_sbu_0, # of connection points: 4
#     Node 18, Type 0, BuildingBlock: GALJAG_clean_sbu_0, # of connection points: 4
#     Node 19, Type 0, BuildingBlock: GALJAG_clean_sbu_0, # of connection points: 4
#     Node 20, Type 0, BuildingBlock: GALJAG_clean_sbu_0, # of connection points: 4
#     Node 21, Type 0, BuildingBlock: GALJAG_clean_sbu_0, # of connection points: 4
#     Node 22, Type 0, BuildingBlock: GALJAG_clean_sbu_0, # of connection points: 4
#     Node 23, Type 0, BuildingBlock: GALJAG_clean_sbu_0, # of connection points: 4
#     Edge 24, Type (0, 0), BuildingBlock: TEMPAE_clean_linker_10, # of connection points: 2
#     Edge 25, Type (0, 0), BuildingBlock: TEMPAE_clean_linker_10, # of connection points: 2
#     Edge 26, Type (0, 0), BuildingBlock: TEMPAE_clean_linker_10, # of connection points: 2
#     Edge 27, Type (0, 0), BuildingBlock: TEMPAE_clean_linker_10, # of connection points: 2
#     Edge 28, Type (0, 0), BuildingBlock: TEMPAE_clean_linker_10, # of connection points: 2
#     Edge 29, Type (0, 0), BuildingBlock: TEMPAE_clean_linker_10, # of connection points: 2
#     Edge 30, Type (0, 0), BuildingBlock: TEMPAE_clean_linker_10, # of connection points: 2
#     Edge 31, Type (0, 0), BuildingBlock: TEMPAE_clean_linker_10, # of connection points: 2
#     Edge 32, Type (0, 0), BuildingBlock: TEMPAE_clean_linker_10, # of connection points: 2
#     Edge 33, Type (0, 0), BuildingBlock: TEMPAE_clean_linker_10, # of connection points: 2
#     Edge 34, Type (0, 0), BuildingBlock: TEMPAE_clean_linker_10, # of connection points: 2
#     Edge 35, Type (0, 0), BuildingBlock: TEMPAE_clean_linker_10, # of connection points: 2
#     Edge 36, Type (0, 0), BuildingBlock: TEMPAE_clean_linker_10, # of connection points: 2
#     Edge 37, Type (0, 0), BuildingBlock: TEMPAE_clean_linker_10, # of connection points: 2
#     Edge 38, Type (0, 0), BuildingBlock: TEMPAE_clean_linker_10, # of connection points: 2
#     Edge 39, Type (0, 0), BuildingBlock: TEMPAE_clean_linker_10, # of connection points: 2
#     Edge 40, Type (0, 0), BuildingBlock: TEMPAE_clean_linker_10, # of connection points: 2
#     Edge 41, Type (0, 0), BuildingBlock: TEMPAE_clean_linker_10, # of connection points: 2
#     Edge 42, Type (0, 0), BuildingBlock: TEMPAE_clean_linker_10, # of connection points: 2
#     Edge 43, Type (0, 0), BuildingBlock: TEMPAE_clean_linker_10, # of connection points: 2
#     Edge 44, Type (0, 0), BuildingBlock: TEMPAE_clean_linker_10, # of connection points: 2
#     Edge 45, Type (0, 0), BuildingBlock: TEMPAE_clean_linker_10, # of connection points: 2
#     Edge 46, Type (0, 0), BuildingBlock: TEMPAE_clean_linker_10, # of connection points: 2
#     Edge 47, Type (0, 0), BuildingBlock: TEMPAE_clean_linker_10, # of connection points: 2
#     Edge 48, Type (0, 0), BuildingBlock: TEMPAE_clean_linker_10, # of connection points: 2
#     Edge 49, Type (0, 0), BuildingBlock: TEMPAE_clean_linker_10, # of connection points: 2
#     Edge 50, Type (0, 0), BuildingBlock: TEMPAE_clean_linker_10, # of connection points: 2
#     Edge 51, Type (0, 0), BuildingBlock: TEMPAE_clean_linker_10, # of connection points: 2
#     Edge 52, Type (0, 0), BuildingBlock: TEMPAE_clean_linker_10, # of connection points: 2
#     Edge 53, Type (0, 0), BuildingBlock: TEMPAE_clean_linker_10, # of connection points: 2
#     Edge 54, Type (0, 0), BuildingBlock: TEMPAE_clean_linker_10, # of connection points: 2
#     Edge 55, Type (0, 0), BuildingBlock: TEMPAE_clean_linker_10, # of connection points: 2
#     Edge 56, Type (0, 0), BuildingBlock: TEMPAE_clean_linker_10, # of connection points: 2
#     Edge 57, Type (0, 0), BuildingBlock: TEMPAE_clean_linker_10, # of connection points: 2
#     Edge 58, Type (0, 0), BuildingBlock: TEMPAE_clean_linker_10, # of connection points: 2
#     Edge 59, Type (0, 0), BuildingBlock: TEMPAE_clean_linker_10, # of connection points: 2
#     Edge 60, Type (0, 0), BuildingBlock: TEMPAE_clean_linker_10, # of connection points: 2
#     Edge 61, Type (0, 0), BuildingBlock: TEMPAE_clean_linker_10, # of connection points: 2
#     Edge 62, Type (0, 0), BuildingBlock: TEMPAE_clean_linker_10, # of connection points: 2
#     Edge 63, Type (0, 0), BuildingBlock: TEMPAE_clean_linker_10, # of connection points: 2
#     Edge 64, Type (0, 0), BuildingBlock: TEMPAE_clean_linker_10, # of connection points: 2
#     Edge 65, Type (0, 0), BuildingBlock: TEMPAE_clean_linker_10, # of connection points: 2
#     Edge 66, Type (0, 0), BuildingBlock: TEMPAE_clean_linker_10, # of connection points: 2
#     Edge 67, Type (0, 0), BuildingBlock: TEMPAE_clean_linker_10, # of connection points: 2
#     Edge 68, Type (0, 0), BuildingBlock: TEMPAE_clean_linker_10, # of connection points: 2
#     Edge 69, Type (0, 0), BuildingBlock: TEMPAE_clean_linker_10, # of connection points: 2
#     Edge 70, Type (0, 0), BuildingBlock: TEMPAE_clean_linker_10, # of connection points: 2
#     Edge 71, Type (0, 0), BuildingBlock: TEMPAE_clean_linker_10, # of connection points: 2
# Relax obj value: 0.033
# Max RMSD: 0.061
# Mean RMSD: 0.060
data_MOF--net-lcs--node1-GALJAG_clean_sbu_0--edge1-TEMPAE_clean_linker_10
_symmetry_space_group_name_H-M    P1
_symmetry_Int_Tables_number       1
_symmetry_cell_setting            triclinic
loop_
_symmetry_equiv_pos_as_xyz
'x, y, z'
_cell_length_a     50.458265
_cell_length_b     50.468513
_cell_length_c     50.472992
_cell_angle_alpha  90.127292
_cell_angle_beta   90.131609
_cell_angle_gamma 90.11274
loop_
_atom_site_label
_atom_site_type_symbol
_atom_site_fract_x
_atom_site_fract_y
_atom_site_fract_z
_atom_type_partial_charge
In0 In -0.00046 0.24947 0.37504 0.0
O1 O 0.02278 0.23732 0.41194 0.0
O2 O 0.04124 0.23248 0.37445 0.0
C3 C 0.95542 0.269 0.3979 0.0
C4 C 0.01891 0.29337 0.35161 0.0
C5 C 0.98079 0.2054 0.35115 0.0
O6 O 0.97545 0.26207 0.41118 0.0
O7 O 0.95769 0.26603 0.3732 0.0
O8 O 0.98948 0.22498 0.33829 0.0
O9 O 0.9816 0.20809 0.37599 0.0
C10 C 0.043 0.22995 0.39924 0.0
O11 O 0.01039 0.27377 0.33854 0.0
O12 O 0.01763 0.29077 0.37641 0.0
In13 In -0.00115 0.74905 0.62413 0.0
O14 O 0.02336 0.73833 0.58766 0.0
O15 O 0.04044 0.73181 0.62558 0.0
C16 C 0.95484 0.76738 0.60004 0.0
C17 C 0.97925 0.70549 0.648 0.0
C18 C 0.01788 0.79313 0.6478 0.0
O19 O 0.97481 0.75951 0.58726 0.0
O20 O 0.95711 0.76594 0.62489 0.0
O21 O 0.01386 0.79158 0.62318 0.0
O22 O 0.01228 0.7724 0.66056 0.0
C23 C 0.04308 0.73032 0.60079 0.0
O24 O 0.9857 0.72608 0.66073 0.0
O25 O 0.98273 0.70692 0.62331 0.0
In26 In 0.4966 0.74794 0.87402 0.0
O27 O 0.52131 0.7373 0.91041 0.0
O28 O 0.53807 0.7304 0.87245 0.0
C29 C 0.45305 0.76737 0.89804 0.0
C30 C 0.51569 0.79163 0.84998 0.0
C31 C 0.47701 0.70384 0.8508 0.0
O32 O 0.47277 0.75886 0.91086 0.0
O33 O 0.45534 0.76601 0.8732 0.0
O34 O 0.4848 0.72361 0.83766 0.0
O35 O 0.4791 0.70637 0.87558 0.0
C36 C 0.54088 0.72908 0.89724 0.0
O37 O 0.50741 0.77175 0.83719 0.0
O38 O 0.51429 0.78943 0.87483 0.0
In39 In 0.49905 0.24878 0.1213 0.0
O40 O 0.52183 0.23521 0.08466 0.0
O41 O 0.54137 0.23338 0.12194 0.0
C42 C 0.45493 0.26802 0.0981 0.0
C43 C 0.48074 0.20474 0.14529 0.0
C44 C 0.51769 0.29299 0.14498 0.0
O45 O 0.47535 0.26193 0.08505 0.0
O46 O 0.45683 0.26437 0.12273 0.0
O47 O 0.5095 0.27325 0.15792 0.0
O48 O 0.51646 0.29038 0.12014 0.0
C49 C 0.54261 0.22935 0.09731 0.0
O50 O 0.48939 0.22445 0.15811 0.0
O51 O 0.4814 0.20727 0.12045 0.0
In52 In -0.00114 0.74839 0.12432 0.0
O53 O 0.01013 0.72472 0.16114 0.0
O54 O 0.01671 0.70702 0.12352 0.0
C55 C 0.97957 0.7924 0.14766 0.0
C56 C 0.04267 0.76749 0.10047 0.0
C57 C 0.95477 0.72914 0.10082 0.0
O58 O 0.98781 0.77279 0.16076 0.0
O59 O 0.98108 0.78976 0.12286 0.0
O60 O 0.97424 0.73782 0.08779 0.0
O61 O 0.95759 0.73018 0.12563 0.0
C62 C 0.01836 0.70488 0.14835 0.0
O63 O 0.02337 0.758 0.0876 0.0
O64 O 0.03983 0.76727 0.12528 0.0
In65 In 0.49816 0.74991 0.37273 0.0
O66 O 0.47468 0.73884 0.40969 0.0
O67 O 0.45679 0.73188 0.37217 0.0
C68 C 0.54237 0.76942 0.39578 0.0
C69 C 0.51701 0.706 0.34882 0.0
C70 C 0.47849 0.79374 0.34946 0.0
O71 O 0.52284 0.76115 0.40901 0.0
O72 O 0.53955 0.76781 0.371 0.0
O73 O 0.48704 0.77426 0.33631 0.0
O74 O 0.47989 0.79105 0.37425 0.0
C75 C 0.45477 0.73043 0.39702 0.0
O76 O 0.50812 0.72548 0.33596 0.0
O77 O 0.51635 0.70872 0.37365 0.0
In78 In 0.50024 0.24801 0.62397 0.0
O79 O 0.51174 0.22382 0.66039 0.0
O80 O 0.51735 0.20635 0.62249 0.0
C81 C 0.48101 0.29169 0.64804 0.0
C82 C 0.54392 0.26756 0.60026 0.0
C83 C 0.45641 0.22874 0.60001 0.0
O84 O 0.48883 0.27171 0.66082 0.0
O85 O 0.48298 0.28962 0.62322 0.0
O86 O 0.47656 0.23612 0.58723 0.0
O87 O 0.4584 0.23111 0.62482 0.0
C88 C 0.51937 0.20394 0.64728 0.0
O89 O 0.52362 0.26047 0.58742 0.0
O90 O 0.54216 0.26476 0.62502 0.0
In91 In 0.99674 0.24977 0.87303 0.0
O92 O 0.97399 0.2362 0.90955 0.0
O93 O 0.95377 0.23599 0.87256 0.0
C94 C 0.04065 0.26789 0.89778 0.0
C95 C 0.01488 0.20574 0.84876 0.0
C96 C 0.97819 0.29361 0.84884 0.0
O97 O 0.01947 0.26282 0.91001 0.0
O98 O 0.03964 0.26379 0.87315 0.0
O99 O 0.98326 0.27253 0.83636 0.0
O100 O 0.98253 0.29253 0.87342 0.0
C101 C 0.95279 0.23141 0.8971 0.0
O102 O 0.00911 0.20645 0.87304 0.0
O103 O 0.01147 0.22729 0.83661 0.0
In104 In 0.37375 0.00043 0.24862 0.0
O105 O 0.33707 0.01007 0.27318 0.0
O106 O 0.37483 0.0184 0.29 0.0
C107 C 0.34977 0.98219 0.20439 0.0
C108 C 0.39808 0.04388 0.22926 0.0
C109 C 0.39707 0.9565 0.26801 0.0
O110 O 0.33697 0.99154 0.22371 0.0
O111 O 0.37459 0.98211 0.20742 0.0
O112 O 0.41003 0.97703 0.26201 0.0
O113 O 0.37242 0.95818 0.26423 0.0
C114 C 0.35 0.01891 0.29274 0.0
O115 O 0.41058 0.02318 0.23548 0.0
O116 O 0.37339 0.04264 0.23287 0.0
In117 In 0.24915 0.12348 0.49952 0.0
O118 O 0.23611 0.0872 0.52311 0.0
O119 O 0.23453 0.12478 0.54208 0.0
C120 C 0.26754 0.0996 0.45541 0.0
C121 C 0.20489 0.1473 0.48144 0.0
C122 C 0.29363 0.1471 0.5176 0.0
O123 O 0.26173 0.08686 0.4761 0.0
O124 O 0.264 0.12428 0.45702 0.0
O125 O 0.27346 0.16008 0.51056 0.0
O126 O 0.29132 0.12231 0.51543 0.0
C127 C 0.23063 0.10016 0.54379 0.0
O128 O 0.22523 0.16017 0.48838 0.0
O129 O 0.20692 0.1225 0.48365 0.0
In130 In 0.12307 0.0001 0.74927 0.0
O131 O 0.08629 0.02517 0.75714 0.0
O132 O 0.12348 0.04005 0.77025 0.0
C133 C 0.09975 0.95615 0.72954 0.0
C134 C 0.14728 0.01997 0.70606 0.0
C135 C 0.14655 0.98028 0.79295 0.0
O136 O 0.0867 0.97475 0.73995 0.0
O137 O 0.12448 0.95977 0.72912 0.0
O138 O 0.15955 0.99043 0.77419 0.0
O139 O 0.12176 0.98019 0.78965 0.0
C140 C 0.09881 0.04361 0.76857 0.0
O141 O 0.16001 0.01053 0.72539 0.0
O142 O 0.12244 0.01939 0.70859 0.0
In143 In 0.24787 0.87463 -0.00095 0.0
O144 O 0.20506 0.87481 0.01311 0.0
O145 O 0.22518 0.83789 0.01252 0.0
C146 C 0.29186 0.85047 0.9808 0.0
C147 C 0.22911 0.89836 0.95503 0.0
C148 C 0.26642 0.89937 0.04276 0.0
O149 O 0.27093 0.83791 0.98627 0.0
O150 O 0.29056 0.87514 0.98458 0.0
O151 O 0.26158 0.91154 0.02149 0.0
O152 O 0.26187 0.87481 0.04194 0.0
C153 C 0.20405 0.85024 0.0175 0.0
O154 O 0.23371 0.91092 0.97619 0.0
O155 O 0.23403 0.8739 0.9561 0.0
In156 In 0.24689 0.37325 0.00021 0.0
O157 O 0.23601 0.4101 0.0241 0.0
O158 O 0.22976 0.37248 0.04185 0.0
C159 C 0.26585 0.39628 0.95597 0.0
C160 C 0.29108 0.34983 0.01894 0.0
C161 C 0.20268 0.34956 0.98155 0.0
O162 O 0.25803 0.40953 0.97568 0.0
O163 O 0.26405 0.3715 0.95862 0.0
O164 O 0.22216 0.3366 0.99033 0.0
O165 O 0.20553 0.37438 0.98226 0.0
C166 C 0.22814 0.39732 0.04406 0.0
O167 O 0.27135 0.33675 0.01074 0.0
O168 O 0.28845 0.37464 0.01771 0.0
In169 In 0.7485 0.12192 -0.00213 0.0
O170 O 0.76121 0.08551 0.02147 0.0
O171 O 0.76559 0.12327 0.03961 0.0
C172 C 0.72894 0.09787 0.95422 0.0
C173 C 0.70433 0.14549 0.01641 0.0
C174 C 0.79212 0.14624 0.97892 0.0
O175 O 0.73642 0.0851 0.97436 0.0
O176 O 0.73136 0.12267 0.95616 0.0
O177 O 0.77296 0.15885 0.98878 0.0
O178 O 0.78927 0.1214 0.97868 0.0
C179 C 0.76845 0.09854 0.04159 0.0
O180 O 0.72357 0.15844 0.00706 0.0
O181 O 0.70741 0.1207 0.01639 0.0
In182 In 0.12447 0.49969 0.2506 0.0
O183 O 0.16086 0.48737 0.22681 0.0
O184 O 0.12309 0.48367 0.20846 0.0
C185 C 0.14865 0.51865 0.29442 0.0
C186 C 0.10066 0.54358 0.23172 0.0
C187 C 0.10076 0.45578 0.26967 0.0
O188 O 0.16132 0.51199 0.27394 0.0
O189 O 0.12388 0.51569 0.29275 0.0
O190 O 0.08794 0.47632 0.2635 0.0
O191 O 0.12544 0.45744 0.26617 0.0
C192 C 0.14782 0.48071 0.20649 0.0
O193 O 0.08784 0.52312 0.23821 0.0
O194 O 0.1254 0.54187 0.23481 0.0
In195 In 0.74973 0.87387 0.49747 0.0
O196 O 0.73824 0.9102 0.52188 0.0
O197 O 0.73253 0.87223 0.53906 0.0
C198 C 0.76901 0.89806 0.45398 0.0
C199 C 0.79338 0.84978 0.5167 0.0
C200 C 0.70581 0.85061 0.47757 0.0
O201 O 0.76164 0.91077 0.47422 0.0
O202 O 0.76662 0.87325 0.45573 0.0
O203 O 0.72605 0.83756 0.48427 0.0
O204 O 0.70778 0.8753 0.48094 0.0
C205 C 0.73049 0.897 0.54162 0.0
O206 O 0.77303 0.83705 0.50952 0.0
O207 O 0.79167 0.87456 0.51413 0.0
In208 In 0.87504 -0.00058 0.24838 0.0
O209 O 0.83842 0.0107 0.22431 0.0
O210 O 0.87618 0.01596 0.2065 0.0
C211 C 0.85126 0.98089 0.29243 0.0
C212 C 0.89849 0.95537 0.22934 0.0
C213 C 0.89897 0.0433 0.26755 0.0
O214 O 0.83834 0.98828 0.27233 0.0
O215 O 0.87607 0.98291 0.29027 0.0
O216 O 0.9117 0.02273 0.26126 0.0
O217 O 0.87426 0.0417 0.2641 0.0
C218 C 0.85137 0.01804 0.20425 0.0
O219 O 0.91145 0.97583 0.23571 0.0
O220 O 0.87379 0.95717 0.23262 0.0
In221 In 0.24988 0.62489 0.50087 0.0
O222 O 0.26026 0.58796 0.52469 0.0
O223 O 0.26704 0.62549 0.54263 0.0
C224 C 0.2312 0.60122 0.45664 0.0
C225 C 0.20605 0.64868 0.51998 0.0
C226 C 0.29379 0.6486 0.48175 0.0
O227 O 0.2391 0.58827 0.47649 0.0
O228 O 0.23277 0.62605 0.45913 0.0
O229 O 0.27337 0.66144 0.48825 0.0
O230 O 0.29204 0.62389 0.485 0.0
C231 C 0.26832 0.60063 0.54473 0.0
O232 O 0.2267 0.66145 0.51398 0.0
O233 O 0.20757 0.62401 0.51636 0.0
In234 In 0.37258 0.49612 0.74992 0.0
O235 O 0.33606 0.50849 0.72623 0.0
O236 O 0.37374 0.51244 0.70795 0.0
C237 C 0.34861 0.47674 0.79348 0.0
C238 C 0.39684 0.45249 0.73089 0.0
C239 C 0.39587 0.54023 0.76935 0.0
O240 O 0.33588 0.48325 0.77296 0.0
O241 O 0.37334 0.48001 0.79197 0.0
O242 O 0.40896 0.52009 0.76243 0.0
O243 O 0.37114 0.53807 0.76645 0.0
C244 C 0.349 0.51538 0.70601 0.0
O245 O 0.40949 0.47285 0.73816 0.0
O246 O 0.37203 0.45418 0.73325 0.0
In247 In 0.6229 0.99641 0.74771 0.0
O248 O 0.65964 0.98439 0.72434 0.0
O249 O 0.62211 0.98004 0.70567 0.0
C250 C 0.64656 0.01517 0.79193 0.0
C251 C 0.5997 0.04052 0.72855 0.0
C252 C 0.59867 0.95266 0.76654 0.0
O253 O 0.6595 0.00794 0.77182 0.0
O254 O 0.62176 0.0129 0.7897 0.0
O255 O 0.58603 0.97313 0.75982 0.0
O256 O 0.62344 0.95429 0.76369 0.0
C257 C 0.64689 0.97741 0.70394 0.0
O258 O 0.5866 0.02023 0.73503 0.0
O259 O 0.6244 0.03852 0.73177 0.0
In260 In 0.74789 0.62467 -0.00174 0.0
O261 O 0.73744 0.58799 0.0225 0.0
O262 O 0.7301 0.62576 0.03961 0.0
C263 C 0.76669 0.60106 0.9542 0.0
C264 C 0.7041 0.64821 0.97873 0.0
C265 C 0.79176 0.6482 0.01796 0.0
O266 O 0.75825 0.58807 0.97379 0.0
O267 O 0.76559 0.62589 0.95688 0.0
O268 O 0.77141 0.66114 0.0114 0.0
O269 O 0.78993 0.62351 0.01455 0.0
C270 C 0.72896 0.60093 0.04214 0.0
O271 O 0.72445 0.66116 0.98549 0.0
O272 O 0.7059 0.6235 0.98186 0.0
In273 In 0.87225 0.49962 0.74815 0.0
O274 O 0.90898 0.52395 0.73788 0.0
O275 O 0.87123 0.54136 0.73129 0.0
C276 C 0.89597 0.45551 0.76665 0.0
C277 C 0.84844 0.51873 0.79196 0.0
C278 C 0.84869 0.48056 0.70402 0.0
O279 O 0.90892 0.47532 0.75857 0.0
O280 O 0.87114 0.458 0.76533 0.0
O281 O 0.83581 0.48656 0.72457 0.0
O282 O 0.87336 0.48418 0.70579 0.0
C283 C 0.89607 0.54382 0.72995 0.0
O284 O 0.83566 0.51246 0.77135 0.0
O285 O 0.87314 0.51533 0.79042 0.0
In286 In 0.74826 0.37475 0.49689 0.0
O287 O 0.72449 0.33801 0.50834 0.0
O288 O 0.70698 0.3757 0.51489 0.0
C289 C 0.79208 0.35134 0.47732 0.0
C290 C 0.7286 0.39836 0.45319 0.0
C291 C 0.76762 0.39841 0.54081 0.0
O292 O 0.77229 0.33828 0.48525 0.0
O293 O 0.7897 0.37614 0.47924 0.0
O294 O 0.75881 0.41139 0.52136 0.0
O295 O 0.76665 0.37359 0.53804 0.0
C296 C 0.70475 0.35087 0.51665 0.0
O297 O 0.73747 0.41134 0.47269 0.0
O298 O 0.7297 0.37354 0.45576 0.0
In299 In 0.62224 0.49974 0.24743 0.0
O300 O 0.58562 0.52301 0.26013 0.0
O301 O 0.62306 0.54219 0.26265 0.0
C302 C 0.59849 0.45577 0.22825 0.0
C303 C 0.64631 0.51856 0.20368 0.0
C304 C 0.64603 0.48091 0.29142 0.0
O305 O 0.58568 0.47632 0.23441 0.0
O306 O 0.62318 0.45744 0.23183 0.0
O307 O 0.6588 0.48702 0.27084 0.0
O308 O 0.62133 0.48437 0.28977 0.0
C309 C 0.59837 0.54372 0.26612 0.0
O310 O 0.65896 0.51256 0.22441 0.0
O311 O 0.62161 0.51504 0.20506 0.0
C312 C 0.10329 0.40942 0.2865 0.0
C313 C 0.08801 0.4318 0.28052 0.0
C314 C 0.09164 0.38669 0.2974 0.0
C315 C 0.06407 0.38638 0.30248 0.0
C316 C 0.04848 0.40881 0.29621 0.0
C317 C 0.06065 0.43128 0.28527 0.0
C318 C 0.1089 0.36312 0.30378 0.0
C319 C 0.01902 0.40919 0.30138 0.0
C320 C 0.03092 0.31937 0.31128 0.0
C321 C 0.02984 0.31736 0.33895 0.0
C322 C 0.04175 0.34188 0.29909 0.0
C323 C 0.05171 0.3628 0.31499 0.0
C324 C 0.05043 0.36097 0.34294 0.0
C325 C 0.0395 0.33826 0.35459 0.0
C326 C 0.04277 0.34318 0.26922 0.0
C327 C 0.06088 0.38288 0.36055 0.0
H328 H 0.12444 0.40971 0.2828 0.0
H329 H 0.04876 0.44854 0.28066 0.0
H330 H 0.10818 0.35899 0.32535 0.0
H331 H 0.10133 0.34523 0.29341 0.0
H332 H 0.12989 0.3663 0.29799 0.0
H333 H 0.00961 0.42792 0.29474 0.0
H334 H 0.00928 0.39236 0.29103 0.0
H335 H 0.01524 0.4067 0.32288 0.0
H336 H 0.02344 0.30327 0.29912 0.0
H337 H 0.03868 0.3368 0.37599 0.0
H338 H 0.06366 0.34471 0.26259 0.0
H339 H 0.03235 0.36116 0.26212 0.0
H340 H 0.03361 0.32552 0.25971 0.0
H341 H 0.08237 0.38577 0.35698 0.0
H342 H 0.05788 0.37862 0.38192 0.0
H343 H 0.05087 0.40182 0.35571 0.0
C344 C 0.92951 0.78009 0.5594 0.0
C345 C 0.93085 0.77799 0.58706 0.0
C346 C 0.90711 0.7909 0.54695 0.0
C347 C 0.88561 0.79978 0.56258 0.0
C348 C 0.88671 0.79734 0.59049 0.0
C349 C 0.90934 0.78648 0.6024 0.0
C350 C 0.90661 0.7932 0.51713 0.0
C351 C 0.86415 0.80656 0.60781 0.0
C352 C 0.83927 0.85205 0.53503 0.0
C353 C 0.8172 0.8368 0.52765 0.0
C354 C 0.86182 0.84018 0.54609 0.0
C355 C 0.86226 0.8124 0.54987 0.0
C356 C 0.84015 0.79685 0.54217 0.0
C357 C 0.81786 0.80926 0.53112 0.0
C358 C 0.88504 0.8574 0.55403 0.0
C359 C 0.83993 0.76718 0.54593 0.0
H360 H 0.94608 0.77352 0.54747 0.0
H361 H 0.91026 0.78484 0.62379 0.0
H362 H 0.88887 0.78298 0.50902 0.0
H363 H 0.90518 0.81435 0.51137 0.0
H364 H 0.92457 0.78459 0.50781 0.0
H365 H 0.86779 0.80252 0.62914 0.0
H366 H 0.86114 0.82817 0.60524 0.0
H367 H 0.84547 0.79657 0.6018 0.0
H368 H 0.83888 0.87335 0.53234 0.0
H369 H 0.80083 0.7974 0.52541 0.0
H370 H 0.90329 0.85054 0.54392 0.0
H371 H 0.88857 0.85574 0.57566 0.0
H372 H 0.88182 0.8786 0.5491 0.0
H373 H 0.85715 0.75816 0.53571 0.0
H374 H 0.82149 0.75786 0.53821 0.0
H375 H 0.84182 0.76242 0.5673 0.0
C376 C 0.39278 0.58618 0.78739 0.0
C377 C 0.40841 0.56436 0.78031 0.0
C378 C 0.40425 0.60907 0.79829 0.0
C379 C 0.43202 0.61012 0.80222 0.0
C380 C 0.44794 0.58825 0.79488 0.0
C381 C 0.43593 0.5656 0.78398 0.0
C382 C 0.38663 0.63202 0.80585 0.0
C383 C 0.47762 0.58868 0.7988 0.0
C384 C 0.46368 0.67795 0.81064 0.0
C385 C 0.46605 0.67971 0.83827 0.0
C386 C 0.45287 0.65528 0.79858 0.0
C387 C 0.44427 0.63393 0.81457 0.0
C388 C 0.44685 0.63552 0.84246 0.0
C389 C 0.45771 0.65841 0.85398 0.0
C390 C 0.45041 0.65427 0.76878 0.0
C391 C 0.43791 0.61314 0.86015 0.0
H392 H 0.37149 0.58533 0.78454 0.0
H393 H 0.44809 0.54878 0.77851 0.0
H394 H 0.38831 0.63594 0.82743 0.0
H395 H 0.39312 0.65025 0.79545 0.0
H396 H 0.36548 0.62826 0.80097 0.0
H397 H 0.48723 0.57028 0.79151 0.0
H398 H 0.48637 0.60586 0.78827 0.0
H399 H 0.48233 0.59112 0.82015 0.0
H400 H 0.47013 0.69437 0.79842 0.0
H401 H 0.45954 0.65967 0.87535 0.0
H402 H 0.42927 0.65216 0.76305 0.0
H403 H 0.46101 0.6367 0.76093 0.0
H404 H 0.45856 0.6723 0.75916 0.0
H405 H 0.41635 0.60963 0.85746 0.0
H406 H 0.4418 0.61728 0.88144 0.0
H407 H 0.44823 0.59456 0.85459 0.0
C408 C 0.56632 0.21241 0.0573 0.0
C409 C 0.56638 0.21821 0.08448 0.0
C410 C 0.58859 0.2011 0.04511 0.0
C411 C 0.6114 0.19556 0.0605 0.0
C412 C 0.61167 0.20171 0.08787 0.0
C413 C 0.58913 0.21293 0.09954 0.0
C414 C 0.58759 0.19477 0.01588 0.0
C415 C 0.63567 0.19616 0.1049 0.0
C416 C 0.65964 0.1429 0.0373 0.0
C417 C 0.68025 0.15832 0.0269 0.0
C418 C 0.63692 0.15478 0.04794 0.0
C419 C 0.63482 0.18274 0.04818 0.0
C420 C 0.65541 0.19841 0.03739 0.0
C421 C 0.67792 0.186 0.02686 0.0
C422 C 0.61534 0.13742 0.05926 0.0
C423 C 0.65383 0.22829 0.03731 0.0
H424 H 0.54877 0.21647 0.04558 0.0
H425 H 0.58929 0.21743 0.12055 0.0
H426 H 0.60412 0.20484 0.00548 0.0
H427 H 0.59016 0.17315 0.01281 0.0
H428 H 0.5686 0.20092 0.00659 0.0
H429 H 0.63291 0.20273 0.12573 0.0
H430 H 0.63996 0.1746 0.10485 0.0
H431 H 0.65332 0.20635 0.09667 0.0
H432 H 0.66134 0.12149 0.03732 0.0
H433 H 0.6938 0.198 0.01879 0.0
H434 H 0.59616 0.1418 0.04944 0.0
H435 H 0.61288 0.14171 0.08068 0.0
H436 H 0.61968 0.11598 0.05683 0.0
H437 H 0.63552 0.23479 0.02702 0.0
H438 H 0.67116 0.23757 0.02743 0.0
H439 H 0.65276 0.23579 0.05796 0.0
C440 C 0.06038 0.56816 0.21678 0.0
C441 C 0.08785 0.56752 0.22087 0.0
C442 C 0.04815 0.59053 0.20573 0.0
C443 C 0.06381 0.61271 0.19866 0.0
C444 C 0.09151 0.61229 0.20311 0.0
C445 C 0.1032 0.58967 0.21415 0.0
C446 C 0.01854 0.59029 0.20126 0.0
C447 C 0.10884 0.63559 0.19586 0.0
C448 C 0.0384 0.6598 0.14598 0.0
C449 C 0.02937 0.68111 0.16133 0.0
C450 C 0.04939 0.63728 0.15792 0.0
C451 C 0.05138 0.63609 0.18587 0.0
C452 C 0.04206 0.65744 0.20149 0.0
C453 C 0.03115 0.67974 0.18901 0.0
C454 C 0.05912 0.61489 0.14061 0.0
C455 C 0.04387 0.65684 0.23135 0.0
H456 H 0.04843 0.55108 0.22197 0.0
H457 H 0.12445 0.58929 0.21733 0.0
H458 H 0.0093 0.60745 0.21141 0.0
H459 H 0.01419 0.59226 0.1798 0.0
H460 H 0.00911 0.57181 0.2086 0.0
H461 H 0.12994 0.6324 0.20131 0.0
H462 H 0.10765 0.63923 0.17422 0.0
H463 H 0.10171 0.65377 0.20596 0.0
H464 H 0.03703 0.66076 0.12457 0.0
H465 H 0.02416 0.69617 0.20095 0.0
H466 H 0.04902 0.59615 0.1461 0.0
H467 H 0.08067 0.6119 0.14379 0.0
H468 H 0.05562 0.61868 0.11922 0.0
H469 H 0.03345 0.63911 0.2391 0.0
H470 H 0.03515 0.67478 0.24064 0.0
H471 H 0.06492 0.65531 0.23756 0.0
C472 C 0.58756 0.78928 0.39249 0.0
C473 C 0.56652 0.78038 0.40826 0.0
C474 C 0.61045 0.80017 0.40397 0.0
C475 C 0.61232 0.80222 0.43189 0.0
C476 C 0.59124 0.79306 0.44793 0.0
C477 C 0.56856 0.78223 0.4359 0.0
C478 C 0.63254 0.80972 0.38622 0.0
C479 C 0.59255 0.79494 0.47777 0.0
C480 C 0.68081 0.81065 0.46212 0.0
C481 C 0.68177 0.83808 0.4664 0.0
C482 C 0.65822 0.79864 0.45108 0.0
C483 C 0.63613 0.81448 0.44424 0.0
C484 C 0.63692 0.84216 0.44875 0.0
C485 C 0.65976 0.85363 0.45976 0.0
C486 C 0.65808 0.76906 0.44652 0.0
C487 C 0.61372 0.85968 0.44173 0.0
H488 H 0.58608 0.78786 0.3711 0.0
H489 H 0.55235 0.77535 0.44817 0.0
H490 H 0.63584 0.83125 0.38931 0.0
H491 H 0.6513 0.79951 0.39138 0.0
H492 H 0.62822 0.80621 0.36491 0.0
H493 H 0.5747 0.78642 0.48741 0.0
H494 H 0.61031 0.78437 0.48522 0.0
H495 H 0.59451 0.81598 0.48389 0.0
H496 H 0.69779 0.79855 0.46723 0.0
H497 H 0.6604 0.87486 0.46308 0.0
H498 H 0.65543 0.76477 0.4251 0.0
H499 H 0.64113 0.75988 0.45707 0.0
H500 H 0.67668 0.7595 0.45337 0.0
H501 H 0.60959 0.85836 0.42017 0.0
H502 H 0.61733 0.88078 0.44697 0.0
H503 H 0.59566 0.85282 0.4522 0.0
C504 C 0.46737 0.31664 0.6886 0.0
C505 C 0.46994 0.31549 0.66098 0.0
C506 C 0.4562 0.33889 0.701 0.0
C507 C 0.44744 0.36042 0.68535 0.0
C508 C 0.4503 0.35948 0.65747 0.0
C509 C 0.46152 0.33701 0.64562 0.0
C510 C 0.45346 0.33922 0.73078 0.0
C511 C 0.44121 0.38208 0.64014 0.0
C512 C 0.39479 0.40664 0.71241 0.0
C513 C 0.40994 0.42869 0.72004 0.0
C514 C 0.40681 0.38413 0.70144 0.0
C515 C 0.43464 0.38371 0.698 0.0
C516 C 0.45009 0.40579 0.70597 0.0
C517 C 0.43753 0.42805 0.71692 0.0
C518 C 0.38969 0.36094 0.6932 0.0
C519 C 0.47981 0.40603 0.7026 0.0
H520 H 0.47389 0.30006 0.70055 0.0
H521 H 0.4635 0.33622 0.62425 0.0
H522 H 0.4636 0.35689 0.73915 0.0
H523 H 0.43223 0.34066 0.73625 0.0
H524 H 0.46191 0.3212 0.74014 0.0
H525 H 0.44546 0.37852 0.61884 0.0
H526 H 0.41956 0.38505 0.6425 0.0
H527 H 0.45112 0.40074 0.64631 0.0
H528 H 0.37345 0.40702 0.71483 0.0
H529 H 0.44933 0.44505 0.72283 0.0
H530 H 0.39644 0.34265 0.70331 0.0
H531 H 0.3916 0.3575 0.67157 0.0
H532 H 0.36843 0.36412 0.69789 0.0
H533 H 0.4887 0.38877 0.71286 0.0
H534 H 0.48903 0.42443 0.71052 0.0
H535 H 0.48485 0.40423 0.68129 0.0
C536 C 0.90571 0.21632 0.89531 0.0
C537 C 0.92892 0.22055 0.91004 0.0
C538 C 0.88319 0.20508 0.90703 0.0
C539 C 0.88396 0.19784 0.9341 0.0
C540 C 0.90721 0.20246 0.94919 0.0
C541 C 0.92944 0.21381 0.93696 0.0
C542 C 0.8587 0.20054 0.89034 0.0
C543 C 0.90875 0.19497 0.9781 0.0
C544 C 0.81834 0.18712 0.96917 0.0
C545 C 0.81587 0.15946 0.96811 0.0
C546 C 0.84057 0.1999 0.95845 0.0
C547 C 0.86071 0.18463 0.94636 0.0
C548 C 0.85842 0.15669 0.94545 0.0
C549 C 0.83602 0.14443 0.95637 0.0
C550 C 0.84239 0.22974 0.95982 0.0
C551 C 0.87951 0.13975 0.93269 0.0
H552 H 0.90521 0.22158 0.8745 0.0
H553 H 0.94735 0.21706 0.94842 0.0
H554 H 0.85419 0.17904 0.88934 0.0
H555 H 0.84138 0.21041 0.89956 0.0
H556 H 0.86103 0.20813 0.86983 0.0
H557 H 0.92796 0.20074 0.98726 0.0
H558 H 0.89248 0.2046 0.98927 0.0
H559 H 0.90616 0.17324 0.98025 0.0
H560 H 0.80281 0.19881 0.97828 0.0
H561 H 0.8342 0.12304 0.95551 0.0
H562 H 0.84309 0.23807 0.93951 0.0
H563 H 0.86096 0.23576 0.97 0.0
H564 H 0.82534 0.23867 0.97047 0.0
H565 H 0.8815 0.14506 0.91147 0.0
H566 H 0.87497 0.11825 0.9341 0.0
H567 H 0.89897 0.14352 0.94225 0.0
C568 C 0.28379 0.10204 0.40885 0.0
C569 C 0.27818 0.08681 0.43135 0.0
C570 C 0.29468 0.09042 0.3861 0.0
C571 C 0.30011 0.06292 0.38589 0.0
C572 C 0.29413 0.04736 0.40841 0.0
C573 C 0.2832 0.05951 0.4309 0.0
C574 C 0.30073 0.10765 0.36243 0.0
C575 C 0.29967 0.01797 0.40888 0.0
C576 C 0.30946 0.02991 0.31889 0.0
C577 C 0.33715 0.0294 0.31683 0.0
C578 C 0.29708 0.04044 0.34144 0.0
C579 C 0.31282 0.05067 0.36236 0.0
C580 C 0.34079 0.04988 0.36052 0.0
C581 C 0.35263 0.03925 0.33776 0.0
C582 C 0.26719 0.04094 0.34275 0.0
C583 C 0.35823 0.0606 0.38244 0.0
H584 H 0.27988 0.12316 0.40908 0.0
H585 H 0.27886 0.04766 0.44825 0.0
H586 H 0.32231 0.1073 0.35831 0.0
H587 H 0.29049 0.09979 0.34458 0.0
H588 H 0.29455 0.12854 0.3655 0.0
H589 H 0.29306 0.00854 0.42761 0.0
H590 H 0.28952 0.00805 0.39204 0.0
H591 H 0.32124 0.01446 0.40651 0.0
H592 H 0.29742 0.02227 0.30276 0.0
H593 H 0.37405 0.03885 0.33628 0.0
H594 H 0.26018 0.06172 0.34412 0.0
H595 H 0.26028 0.03054 0.36081 0.0
H596 H 0.25784 0.03148 0.32516 0.0
H597 H 0.35438 0.08205 0.38526 0.0
H598 H 0.37965 0.05786 0.37822 0.0
H599 H 0.35348 0.05059 0.40139 0.0
C600 C 0.18805 0.03125 0.68036 0.0
C601 C 0.16034 0.03094 0.68233 0.0
C602 C 0.20061 0.04188 0.65798 0.0
C603 C 0.18504 0.05242 0.63716 0.0
C604 C 0.15706 0.052 0.639 0.0
C605 C 0.14504 0.04126 0.66158 0.0
C606 C 0.2305 0.04202 0.65668 0.0
C607 C 0.13981 0.06307 0.61719 0.0
C608 C 0.21482 0.1031 0.59048 0.0
C609 C 0.21998 0.08766 0.56796 0.0
C610 C 0.2039 0.09177 0.61333 0.0
C611 C 0.19795 0.06435 0.6136 0.0
C612 C 0.20348 0.04858 0.59106 0.0
C613 C 0.21448 0.06044 0.56848 0.0
C614 C 0.19833 0.10921 0.63702 0.0
C615 C 0.19738 0.01928 0.59065 0.0
H616 H 0.19994 0.02327 0.69636 0.0
H617 H 0.12361 0.04104 0.663 0.0
H618 H 0.23724 0.0313 0.63871 0.0
H619 H 0.23785 0.06269 0.65513 0.0
H620 H 0.23971 0.03266 0.67434 0.0
H621 H 0.11834 0.06085 0.62151 0.0
H622 H 0.14424 0.08442 0.61435 0.0
H623 H 0.14418 0.05288 0.5982 0.0
H624 H 0.21912 0.12415 0.5902 0.0
H625 H 0.21847 0.04843 0.55112 0.0
H626 H 0.20841 0.10122 0.65485 0.0
H627 H 0.17675 0.10931 0.6412 0.0
H628 H 0.205 0.12996 0.63394 0.0
H629 H 0.20738 0.0093 0.60748 0.0
H630 H 0.20375 0.00963 0.57192 0.0
H631 H 0.17575 0.01612 0.59308 0.0
C632 C 0.18689 0.97008 0.81984 0.0
C633 C 0.15928 0.96915 0.81682 0.0
C634 C 0.1992 0.95922 0.84228 0.0
C635 C 0.18348 0.94714 0.86207 0.0
C636 C 0.15558 0.94629 0.85919 0.0
C637 C 0.14381 0.95733 0.83659 0.0
C638 C 0.229 0.96051 0.84473 0.0
C639 C 0.13818 0.93353 0.87988 0.0
C640 C 0.21442 0.89627 0.90783 0.0
C641 C 0.21831 0.91112 0.93103 0.0
C642 C 0.20348 0.90788 0.8851 0.0
C643 C 0.19618 0.93494 0.88564 0.0
C644 C 0.20035 0.95011 0.90891 0.0
C645 C 0.21142 0.93801 0.93135 0.0
C646 C 0.1994 0.89109 0.86061 0.0
C647 C 0.19277 0.97901 0.91021 0.0
H648 H 0.19892 0.97923 0.80461 0.0
H649 H 0.12245 0.95657 0.83434 0.0
H650 H 0.23465 0.97082 0.86334 0.0
H651 H 0.23725 0.94017 0.84577 0.0
H652 H 0.23833 0.97101 0.8278 0.0
H653 H 0.11678 0.93488 0.87483 0.0
H654 H 0.14349 0.91233 0.88206 0.0
H655 H 0.14147 0.94316 0.8994 0.0
H656 H 0.21979 0.87549 0.90748 0.0
H657 H 0.2144 0.94955 0.94925 0.0
H658 H 0.20968 0.90019 0.84348 0.0
H659 H 0.17799 0.89015 0.85563 0.0
H660 H 0.20686 0.87056 0.86319 0.0
H661 H 0.20283 0.99017 0.8942 0.0
H662 H 0.19802 0.98821 0.92955 0.0
H663 H 0.17112 0.98113 0.90703 0.0
C664 C 0.28323 0.93975 0.06619 0.0
C665 C 0.27714 0.91264 0.0666 0.0
C666 C 0.29427 0.95232 0.08847 0.0
C667 C 0.29927 0.93738 0.11165 0.0
C668 C 0.29274 0.9101 0.1123 0.0
C669 C 0.28176 0.89805 0.08975 0.0
C670 C 0.30098 0.98145 0.08708 0.0
C671 C 0.29774 0.89354 0.13669 0.0
C672 C 0.35212 0.96065 0.15994 0.0
C673 C 0.3368 0.97166 0.1803 0.0
C674 C 0.34014 0.94979 0.13729 0.0
C675 C 0.31218 0.94999 0.13497 0.0
C676 C 0.29662 0.96145 0.15527 0.0
C677 C 0.30914 0.97214 0.17775 0.0
C678 C 0.35739 0.93773 0.11605 0.0
C679 C 0.26676 0.96206 0.15342 0.0
H680 H 0.27965 0.95111 0.04834 0.0
H681 H 0.27702 0.8771 0.09018 0.0
H682 H 0.29107 0.99231 0.10341 0.0
H683 H 0.32265 0.98427 0.08967 0.0
H684 H 0.29495 0.99045 0.06793 0.0
H685 H 0.29074 0.87279 0.13425 0.0
H686 H 0.31927 0.89324 0.14122 0.0
H687 H 0.2876 0.9024 0.15405 0.0
H688 H 0.37352 0.96027 0.16181 0.0
H689 H 0.29723 0.98069 0.19343 0.0
H690 H 0.35325 0.94722 0.09667 0.0
H691 H 0.35274 0.91633 0.11391 0.0
H692 H 0.37885 0.93987 0.12053 0.0
H693 H 0.26053 0.97199 0.13484 0.0
H694 H 0.2576 0.97256 0.17045 0.0
H695 H 0.25888 0.94153 0.15272 0.0
C696 C 0.33647 0.35286 0.03841 0.0
C697 C 0.3153 0.3372 0.02941 0.0
C698 C 0.35942 0.34125 0.04889 0.0
C699 C 0.36121 0.31331 0.05038 0.0
C700 C 0.34002 0.29737 0.04105 0.0
C701 C 0.31728 0.30953 0.03067 0.0
C702 C 0.38162 0.35888 0.05864 0.0
C703 C 0.34126 0.26751 0.04233 0.0
C704 C 0.42977 0.28341 0.0583 0.0
C705 C 0.43078 0.27891 0.08568 0.0
C706 C 0.40711 0.29432 0.04644 0.0
C707 C 0.385 0.30084 0.06239 0.0
C708 C 0.38582 0.29604 0.09 0.0
C709 C 0.40872 0.28514 0.10131 0.0
C710 C 0.40692 0.29918 0.01693 0.0
C711 C 0.36261 0.30271 0.10763 0.0
H712 H 0.33505 0.37427 0.03744 0.0
H713 H 0.30097 0.29735 0.02368 0.0
H714 H 0.38497 0.35556 0.08011 0.0
H715 H 0.40033 0.35384 0.0483 0.0
H716 H 0.37738 0.38024 0.05548 0.0
H717 H 0.3234 0.25797 0.03359 0.0
H718 H 0.35902 0.26025 0.03164 0.0
H719 H 0.34318 0.26107 0.06324 0.0
H720 H 0.44678 0.2786 0.04614 0.0
H721 H 0.40939 0.28165 0.12249 0.0
H722 H 0.40441 0.32064 0.01297 0.0
H723 H 0.38988 0.28876 0.00764 0.0
H724 H 0.42545 0.29237 0.00725 0.0
H725 H 0.35853 0.32428 0.10674 0.0
H726 H 0.3662 0.29716 0.12862 0.0
H727 H 0.34454 0.29231 0.10055 0.0
C728 C 0.95973 0.83753 0.14462 0.0
C729 C 0.96873 0.81646 0.16028 0.0
C730 C 0.94892 0.86033 0.15622 0.0
C731 C 0.94706 0.86206 0.18415 0.0
C732 C 0.95635 0.84096 0.20009 0.0
C733 C 0.96709 0.81838 0.18794 0.0
C734 C 0.93922 0.88244 0.13859 0.0
C735 C 0.95468 0.84214 0.22993 0.0
C736 C 0.93854 0.9305 0.21432 0.0
C737 C 0.9111 0.9313 0.2185 0.0
C738 C 0.9506 0.90795 0.20342 0.0
C739 C 0.9348 0.88573 0.19661 0.0
C740 C 0.90713 0.88633 0.20109 0.0
C741 C 0.89561 0.90914 0.21198 0.0
C742 C 0.98017 0.908 0.1989 0.0
C743 C 0.88965 0.863 0.19411 0.0
H744 H 0.961 0.83615 0.12322 0.0
H745 H 0.97405 0.80214 0.20012 0.0
H746 H 0.9177 0.88558 0.14171 0.0
H747 H 0.94942 0.90123 0.14382 0.0
H748 H 0.94263 0.87823 0.11725 0.0
H749 H 0.96335 0.82434 0.23948 0.0
H750 H 0.96522 0.85997 0.23743 0.0
H751 H 0.93367 0.8439 0.23611 0.0
H752 H 0.95059 0.94759 0.21936 0.0
H753 H 0.87439 0.90965 0.21523 0.0
H754 H 0.98439 0.90554 0.17747 0.0
H755 H 0.98942 0.89102 0.20933 0.0
H756 H 0.98972 0.9266 0.20591 0.0
H757 H 0.89079 0.85896 0.17252 0.0
H758 H 0.86858 0.86641 0.19945 0.0
H759 H 0.89669 0.84498 0.20448 0.0
C760 C 0.18153 0.68891 0.5352 0.0
C761 C 0.18205 0.66149 0.53069 0.0
C762 C 0.159 0.70115 0.54592 0.0
C763 C 0.13653 0.68557 0.55222 0.0
C764 C 0.13686 0.65793 0.54741 0.0
C765 C 0.15963 0.64622 0.53671 0.0
C766 C 0.15935 0.73068 0.5508 0.0
C767 C 0.11326 0.64067 0.55386 0.0
C768 C 0.08817 0.71042 0.604 0.0
C769 C 0.06724 0.71964 0.58824 0.0
C770 C 0.11099 0.69959 0.5925 0.0
C771 C 0.1129 0.69798 0.56457 0.0
C772 C 0.09197 0.70758 0.54854 0.0
C773 C 0.06934 0.71829 0.56059 0.0
C774 C 0.13291 0.68954 0.61025 0.0
C775 C 0.09336 0.70622 0.51868 0.0
H776 H 0.19881 0.70079 0.53055 0.0
H777 H 0.15992 0.62503 0.5332 0.0
H778 H 0.14254 0.74019 0.54031 0.0
H779 H 0.15682 0.73475 0.57225 0.0
H780 H 0.1781 0.74007 0.5441 0.0
H781 H 0.11646 0.61962 0.54828 0.0
H782 H 0.10904 0.64167 0.5754 0.0
H783 H 0.0954 0.64802 0.54335 0.0
H784 H 0.08665 0.71145 0.6254 0.0
H785 H 0.05321 0.72545 0.54833 0.0
H786 H 0.15184 0.69957 0.60532 0.0
H787 H 0.13583 0.66801 0.60692 0.0
H788 H 0.12861 0.69285 0.63158 0.0
H789 H 0.1114 0.71658 0.51156 0.0
H790 H 0.07575 0.71525 0.50906 0.0
H791 H 0.09485 0.68526 0.5122 0.0
C792 C 0.96106 0.65956 0.6456 0.0
C793 C 0.96815 0.6817 0.66088 0.0
C794 C 0.94994 0.63701 0.6574 0.0
C795 C 0.94584 0.63664 0.68512 0.0
C796 C 0.95322 0.65883 0.7007 0.0
C797 C 0.9643 0.68113 0.68837 0.0
C798 C 0.94231 0.61371 0.64014 0.0
C799 C 0.94914 0.6591 0.73033 0.0
C800 C 0.89347 0.58923 0.71072 0.0
C801 C 0.90892 0.56788 0.71939 0.0
C802 C 0.90527 0.61191 0.69988 0.0
C803 C 0.9332 0.61322 0.69767 0.0
C804 C 0.94894 0.59189 0.70674 0.0
C805 C 0.9366 0.56943 0.71751 0.0
C806 C 0.88784 0.63429 0.69045 0.0
C807 C 0.97879 0.59263 0.7047 0.0
H808 H 0.96403 0.65989 0.62434 0.0
H809 H 0.96979 0.69821 0.70025 0.0
H810 H 0.95253 0.59556 0.6471 0.0
H811 H 0.92069 0.61001 0.64165 0.0
H812 H 0.94736 0.61694 0.61898 0.0
H813 H 0.95657 0.67764 0.73967 0.0
H814 H 0.92773 0.65701 0.73487 0.0
H815 H 0.95944 0.64202 0.7395 0.0
H816 H 0.87206 0.58814 0.71219 0.0
H817 H 0.94862 0.55298 0.72423 0.0
H818 H 0.89059 0.63728 0.66886 0.0
H819 H 0.89359 0.65304 0.70046 0.0
H820 H 0.8665 0.63048 0.69429 0.0
H821 H 0.98473 0.59406 0.6836 0.0
H822 H 0.9882 0.57477 0.71343 0.0
H823 H 0.98667 0.61045 0.71496 0.0
C824 C 0.17962 0.18773 0.46821 0.0
C825 C 0.18076 0.16012 0.47099 0.0
C826 C 0.1571 0.20001 0.45749 0.0
C827 C 0.13527 0.18427 0.4494 0.0
C828 C 0.13616 0.15643 0.45257 0.0
C829 C 0.15891 0.14469 0.46333 0.0
C830 C 0.15682 0.22976 0.45443 0.0
C831 C 0.11325 0.13899 0.44418 0.0
C832 C 0.06776 0.21605 0.43985 0.0
C833 C 0.06677 0.21891 0.41224 0.0
C834 C 0.09007 0.20507 0.45229 0.0
C835 C 0.11184 0.19677 0.43671 0.0
C836 C 0.11103 0.19986 0.40886 0.0
C837 C 0.0885 0.2109 0.39696 0.0
C838 C 0.09026 0.20208 0.48205 0.0
C839 C 0.13387 0.19123 0.39159 0.0
H840 H 0.19645 0.19974 0.47416 0.0
H841 H 0.15968 0.12334 0.46551 0.0
H842 H 0.15513 0.23498 0.43315 0.0
H843 H 0.1393 0.23823 0.46461 0.0
H844 H 0.17498 0.23923 0.46261 0.0
H845 H 0.11674 0.11777 0.44881 0.0
H846 H 0.09481 0.14543 0.45422 0.0
H847 H 0.10989 0.14093 0.42254 0.0
H848 H 0.051 0.22225 0.45174 0.0
H849 H 0.08784 0.21309 0.37561 0.0
H850 H 0.1077 0.21247 0.49061 0.0
H851 H 0.09206 0.18084 0.48736 0.0
H852 H 0.07202 0.21012 0.49136 0.0
H853 H 0.15233 0.20144 0.39789 0.0
H854 H 0.13033 0.19551 0.37029 0.0
H855 H 0.13722 0.16964 0.39388 0.0
C856 C 0.60114 0.40955 0.21088 0.0
C857 C 0.58577 0.43177 0.21723 0.0
C858 C 0.58954 0.38684 0.19975 0.0
C859 C 0.56192 0.38637 0.19484 0.0
C860 C 0.54623 0.40863 0.20148 0.0
C861 C 0.55836 0.43111 0.21262 0.0
C862 C 0.60691 0.36345 0.19296 0.0
C863 C 0.51671 0.40882 0.19651 0.0
C864 C 0.53742 0.33827 0.14234 0.0
C865 C 0.52825 0.31714 0.15781 0.0
C866 C 0.5481 0.36109 0.15418 0.0
C867 C 0.54962 0.36278 0.18213 0.0
C868 C 0.54008 0.34164 0.19787 0.0
C869 C 0.5295 0.31903 0.1855 0.0
C870 C 0.55807 0.38325 0.13675 0.0
C871 C 0.54136 0.34277 0.22774 0.0
H872 H 0.62233 0.40996 0.21445 0.0
H873 H 0.54641 0.44825 0.21752 0.0
H874 H 0.59961 0.34542 0.20317 0.0
H875 H 0.60596 0.35948 0.17135 0.0
H876 H 0.62794 0.36676 0.19863 0.0
H877 H 0.50724 0.42743 0.20346 0.0
H878 H 0.51271 0.40648 0.17501 0.0
H879 H 0.50722 0.39184 0.20672 0.0
H880 H 0.53645 0.33691 0.12093 0.0
H881 H 0.52238 0.30275 0.19753 0.0
H882 H 0.5796 0.38631 0.14014 0.0
H883 H 0.54796 0.40205 0.14193 0.0
H884 H 0.5548 0.37913 0.11536 0.0
H885 H 0.56231 0.34437 0.23429 0.0
H886 H 0.53238 0.32501 0.23712 0.0
H887 H 0.53093 0.36066 0.23508 0.0
C888 C 0.33842 0.85253 0.96441 0.0
C889 C 0.31581 0.83747 0.97022 0.0
C890 C 0.36104 0.84068 0.95352 0.0
C891 C 0.36099 0.81311 0.94831 0.0
C892 C 0.33837 0.79772 0.95452 0.0
C893 C 0.31601 0.8101 0.96542 0.0
C894 C 0.38482 0.85773 0.94719 0.0
C895 C 0.33763 0.76826 0.94925 0.0
C896 C 0.40836 0.78826 0.89563 0.0
C897 C 0.42929 0.77841 0.91101 0.0
C898 C 0.38589 0.79936 0.90755 0.0
C899 C 0.38433 0.80059 0.93552 0.0
C900 C 0.40527 0.79042 0.95117 0.0
C901 C 0.42755 0.77945 0.93871 0.0
C902 C 0.36396 0.81003 0.89021 0.0
C903 C 0.40424 0.79136 0.98106 0.0
H904 H 0.33838 0.87369 0.96815 0.0
H905 H 0.29858 0.79837 0.96991 0.0
H906 H 0.40268 0.84991 0.95735 0.0
H907 H 0.38878 0.85713 0.92559 0.0
H908 H 0.38197 0.87871 0.95325 0.0
H909 H 0.31888 0.75898 0.95609 0.0
H910 H 0.33979 0.76446 0.9277 0.0
H911 H 0.35449 0.75842 0.95935 0.0
H912 H 0.40961 0.78748 0.8742 0.0
H913 H 0.44367 0.77182 0.95067 0.0
H914 H 0.36134 0.83153 0.89397 0.0
H915 H 0.34494 0.80015 0.89512 0.0
H916 H 0.368 0.80707 0.86878 0.0
H917 H 0.40306 0.81225 0.98786 0.0
H918 H 0.42186 0.782 0.99035 0.0
H919 H 0.38617 0.78111 0.98824 0.0
C920 C 0.93646 0.42955 0.77834 0.0
C921 C 0.90877 0.43148 0.77728 0.0
C922 C 0.94878 0.40708 0.78908 0.0
C923 C 0.93298 0.38614 0.799 0.0
C924 C 0.90502 0.38785 0.79767 0.0
C925 C 0.89324 0.41051 0.78679 0.0
C926 C 0.97866 0.40589 0.79012 0.0
C927 C 0.88752 0.36592 0.80807 0.0
C928 C 0.96272 0.31774 0.80848 0.0
C929 C 0.96751 0.31752 0.83585 0.0
C930 C 0.95185 0.34011 0.7961 0.0
C931 C 0.94562 0.36272 0.81151 0.0
C932 C 0.95074 0.36272 0.8391 0.0
C933 C 0.96165 0.34011 0.85093 0.0
C934 C 0.94671 0.33945 0.76663 0.0
C935 C 0.94434 0.38646 0.85618 0.0
H936 H 0.94854 0.4457 0.77096 0.0
H937 H 0.87182 0.4119 0.78598 0.0
H938 H 0.98539 0.4047 0.81102 0.0
H939 H 0.98579 0.38777 0.77991 0.0
H940 H 0.98808 0.42344 0.78077 0.0
H941 H 0.86612 0.37004 0.80494 0.0
H942 H 0.89248 0.34693 0.79817 0.0
H943 H 0.89109 0.36322 0.8296 0.0
H944 H 0.96727 0.30033 0.79674 0.0
H945 H 0.96535 0.34004 0.8721 0.0
H946 H 0.95694 0.35626 0.75687 0.0
H947 H 0.92518 0.34173 0.76273 0.0
H948 H 0.95351 0.32068 0.75735 0.0
H949 H 0.95465 0.4043 0.84852 0.0
H950 H 0.9502 0.38352 0.8772 0.0
H951 H 0.92275 0.39052 0.85539 0.0
C952 C 0.31921 0.1874 0.53111 0.0
C953 C 0.31785 0.15981 0.52813 0.0
C954 C 0.34181 0.19956 0.54195 0.0
C955 C 0.36351 0.1837 0.54995 0.0
C956 C 0.36239 0.15587 0.54659 0.0
C957 C 0.33956 0.14426 0.53572 0.0
C958 C 0.34233 0.2293 0.54523 0.0
C959 C 0.38516 0.13833 0.55486 0.0
C960 C 0.43132 0.21511 0.55945 0.0
C961 C 0.43245 0.21788 0.58707 0.0
C962 C 0.40885 0.20429 0.54702 0.0
C963 C 0.38707 0.19608 0.56263 0.0
C964 C 0.38802 0.1991 0.59051 0.0
C965 C 0.41072 0.20997 0.60239 0.0
C966 C 0.40853 0.20136 0.51724 0.0
C967 C 0.36516 0.19058 0.6078 0.0
H968 H 0.30248 0.19949 0.52523 0.0
H969 H 0.33862 0.12292 0.5334 0.0
H970 H 0.34414 0.23446 0.56654 0.0
H971 H 0.35987 0.23773 0.53504 0.0
H972 H 0.32421 0.23885 0.53718 0.0
H973 H 0.38148 0.11713 0.55013 0.0
H974 H 0.40363 0.14468 0.5448 0.0
H975 H 0.38859 0.14025 0.5765 0.0
H976 H 0.44808 0.22123 0.54752 0.0
H977 H 0.41149 0.21211 0.62376 0.0
H978 H 0.39115 0.21183 0.50881 0.0
H979 H 0.40653 0.18013 0.51181 0.0
H980 H 0.42679 0.20933 0.50792 0.0
H981 H 0.34676 0.20087 0.6016 0.0
H982 H 0.3688 0.19484 0.62911 0.0
H983 H 0.36163 0.169 0.60542 0.0
C984 C 0.52841 0.67997 0.30823 0.0
C985 C 0.52771 0.68201 0.33592 0.0
C986 C 0.53909 0.65749 0.29582 0.0
C987 C 0.54927 0.63664 0.31153 0.0
C988 C 0.54832 0.63848 0.33949 0.0
C989 C 0.53755 0.66116 0.35136 0.0
C990 C 0.53976 0.65619 0.26594 0.0
C991 C 0.55898 0.61663 0.35689 0.0
C992 C 0.55822 0.56809 0.28171 0.0
C993 C 0.58556 0.56774 0.27683 0.0
C994 C 0.54603 0.59055 0.29266 0.0
C995 C 0.56158 0.61314 0.29879 0.0
C996 C 0.58912 0.61301 0.29351 0.0
C997 C 0.60078 0.59029 0.28262 0.0
C998 C 0.51661 0.58998 0.29804 0.0
C999 C 0.60633 0.63676 0.29973 0.0
H1000 H 0.52079 0.69604 0.29623 0.0
H1001 H 0.53701 0.66263 0.37278 0.0
H1002 H 0.56059 0.65486 0.25906 0.0
H1003 H 0.52937 0.6381 0.25889 0.0
H1004 H 0.53039 0.67376 0.25661 0.0
H1005 H 0.55617 0.62085 0.37831 0.0
H1006 H 0.54899 0.59762 0.35205 0.0
H1007 H 0.58046 0.61389 0.35312 0.0
H1008 H 0.54637 0.5507 0.27724 0.0
H1009 H 0.62191 0.59013 0.27881 0.0
H1010 H 0.50675 0.60677 0.28788 0.0
H1011 H 0.51299 0.59238 0.31959 0.0
H1012 H 0.5072 0.5712 0.29134 0.0
H1013 H 0.59854 0.65457 0.28952 0.0
H1014 H 0.62726 0.63376 0.29365 0.0
H1015 H 0.60588 0.6409 0.32132 0.0
C1016 C 0.08689 0.78953 0.10294 0.0
C1017 C 0.06655 0.77837 0.08757 0.0
C1018 C 0.10943 0.80053 0.09104 0.0
C1019 C 0.11169 0.8003 0.06309 0.0
C1020 C 0.09137 0.78877 0.04746 0.0
C1021 C 0.06899 0.77794 0.05991 0.0
C1022 C 0.13069 0.81269 0.10835 0.0
C1023 C 0.09314 0.78813 0.01761 0.0
C1024 C 0.1571 0.8519 0.03278 0.0
C1025 C 0.18016 0.83716 0.02819 0.0
C1026 C 0.13451 0.84002 0.04372 0.0
C1027 C 0.13505 0.81277 0.05026 0.0
C1028 C 0.15815 0.79769 0.04532 0.0
C1029 C 0.18046 0.81008 0.03429 0.0
C1030 C 0.1102 0.85672 0.04865 0.0
C1031 C 0.15943 0.76859 0.05206 0.0
H1032 H 0.0851 0.78989 0.12434 0.0
H1033 H 0.05333 0.76928 0.04795 0.0
H1034 H 0.15005 0.80311 0.10436 0.0
H1035 H 0.1329 0.83404 0.10363 0.0
H1036 H 0.12618 0.81073 0.1298 0.0
H1037 H 0.07599 0.77778 0.00837 0.0
H1038 H 0.09402 0.80865 0.0098 0.0
H1039 H 0.11162 0.77802 0.01139 0.0
H1040 H 0.15676 0.87283 0.02801 0.0
H1041 H 0.19825 0.79862 0.03075 0.0
H1042 H 0.10571 0.85714 0.07016 0.0
H1043 H 0.09278 0.84789 0.03847 0.0
H1044 H 0.11272 0.87743 0.04165 0.0
H1045 H 0.15681 0.76589 0.07371 0.0
H1046 H 0.17855 0.75948 0.04614 0.0
H1047 H 0.14306 0.75775 0.04207 0.0
C1048 C 0.71696 0.93706 0.56743 0.0
C1049 C 0.71944 0.90945 0.56568 0.0
C1050 C 0.70585 0.94901 0.58994 0.0
C1051 C 0.69705 0.93294 0.61113 0.0
C1052 C 0.6998 0.90507 0.60958 0.0
C1053 C 0.71097 0.89366 0.58686 0.0
C1054 C 0.70323 0.9788 0.59092 0.0
C1055 C 0.69066 0.88728 0.6318 0.0
C1056 C 0.68743 0.96334 0.67931 0.0
C1057 C 0.65986 0.96669 0.68002 0.0
C1058 C 0.69987 0.95263 0.65688 0.0
C1059 C 0.68434 0.94515 0.63469 0.0
C1060 C 0.65654 0.94876 0.6352 0.0
C1061 C 0.64463 0.95948 0.65788 0.0
C1062 C 0.72957 0.94905 0.65703 0.0
C1063 C 0.63933 0.94104 0.61189 0.0
H1064 H 0.72351 0.94934 0.5511 0.0
H1065 H 0.71289 0.87231 0.58561 0.0
H1066 H 0.68202 0.98432 0.59253 0.0
H1067 H 0.71344 0.98674 0.60874 0.0
H1068 H 0.71166 0.98851 0.57308 0.0
H1069 H 0.69481 0.86605 0.62776 0.0
H1070 H 0.70063 0.893 0.65058 0.0
H1071 H 0.66903 0.88969 0.63485 0.0
H1072 H 0.69928 0.96891 0.69638 0.0
H1073 H 0.62331 0.96207 0.65832 0.0
H1074 H 0.73852 0.95967 0.64003 0.0
H1075 H 0.73448 0.92775 0.65471 0.0
H1076 H 0.73885 0.95646 0.67561 0.0
H1077 H 0.64605 0.95152 0.59381 0.0
H1078 H 0.61809 0.9457 0.61523 0.0
H1079 H 0.6412 0.91948 0.608 0.0
C1080 C 0.85394 0.96235 0.33813 0.0
C1081 C 0.83846 0.97023 0.31645 0.0
C1082 C 0.84222 0.95144 0.36079 0.0
C1083 C 0.81436 0.94832 0.36175 0.0
C1084 C 0.79858 0.95659 0.34008 0.0
C1085 C 0.81084 0.96747 0.31765 0.0
C1086 C 0.8597 0.94287 0.38354 0.0
C1087 C 0.7688 0.95357 0.34043 0.0
C1088 C 0.78768 0.89583 0.40832 0.0
C1089 C 0.77991 0.91108 0.43019 0.0
C1090 C 0.79862 0.90775 0.38578 0.0
C1091 C 0.80187 0.93561 0.38513 0.0
C1092 C 0.79379 0.95116 0.40704 0.0
C1093 C 0.78289 0.93869 0.42934 0.0
C1094 C 0.80698 0.89052 0.36278 0.0
C1095 C 0.79696 0.98092 0.40704 0.0
H1096 H 0.8753 0.96449 0.33731 0.0
H1097 H 0.79879 0.97357 0.30094 0.0
H1098 H 0.85344 0.95289 0.40208 0.0
H1099 H 0.85757 0.92123 0.38674 0.0
H1100 H 0.88095 0.94741 0.37999 0.0
H1101 H 0.75932 0.96179 0.32234 0.0
H1102 H 0.76346 0.9323 0.34202 0.0
H1103 H 0.76045 0.96375 0.35802 0.0
H1104 H 0.78538 0.87447 0.40886 0.0
H1105 H 0.77687 0.95057 0.44621 0.0
H1106 H 0.82859 0.89271 0.35937 0.0
H1107 H 0.79675 0.89693 0.34441 0.0
H1108 H 0.80252 0.86923 0.36617 0.0
H1109 H 0.81824 0.98618 0.4052 0.0
H1110 H 0.78905 0.9902 0.42535 0.0
H1111 H 0.78657 0.98954 0.3897 0.0
C1112 C 0.78727 0.10159 0.08724 0.0
C1113 C 0.77965 0.08597 0.06551 0.0
C1114 C 0.79838 0.09008 0.10994 0.0
C1115 C 0.80198 0.06229 0.11089 0.0
C1116 C 0.79412 0.04638 0.0891 0.0
C1117 C 0.78302 0.05843 0.06664 0.0
C1118 C 0.80652 0.10769 0.1328 0.0
C1119 C 0.79766 0.01668 0.08943 0.0
C1120 C 0.85411 0.03657 0.15855 0.0
C1121 C 0.83861 0.0286 0.18013 0.0
C1122 C 0.8424 0.04724 0.13574 0.0
C1123 C 0.81451 0.05 0.13451 0.0
C1124 C 0.79872 0.04169 0.15611 0.0
C1125 C 0.81097 0.03108 0.1787 0.0
C1126 C 0.85988 0.05587 0.11308 0.0
C1127 C 0.76892 0.04433 0.15549 0.0
H1128 H 0.78467 0.12289 0.08648 0.0
H1129 H 0.77714 0.04628 0.04988 0.0
H1130 H 0.79627 0.10136 0.15116 0.0
H1131 H 0.82813 0.1058 0.13642 0.0
H1132 H 0.80189 0.12888 0.12913 0.0
H1133 H 0.78999 0.00709 0.07112 0.0
H1134 H 0.81898 0.01179 0.09156 0.0
H1135 H 0.78725 0.00807 0.10674 0.0
H1136 H 0.87548 0.03465 0.15954 0.0
H1137 H 0.79891 0.0249 0.19533 0.0
H1138 H 0.8575 0.07744 0.10963 0.0
H1139 H 0.85386 0.04556 0.09458 0.0
H1140 H 0.88117 0.05173 0.11689 0.0
H1141 H 0.76339 0.06551 0.15356 0.0
H1142 H 0.75945 0.03624 0.17361 0.0
H1143 H 0.76072 0.0338 0.13797 0.0
C1144 C 0.64383 0.03366 0.83772 0.0
C1145 C 0.65932 0.02592 0.81603 0.0
C1146 C 0.65552 0.04458 0.86048 0.0
C1147 C 0.68337 0.04786 0.86155 0.0
C1148 C 0.69916 0.03975 0.83985 0.0
C1149 C 0.68692 0.02886 0.81732 0.0
C1150 C 0.63805 0.05297 0.88325 0.0
C1151 C 0.72892 0.04295 0.8403 0.0
C1152 C 0.70998 0.10025 0.90861 0.0
C1153 C 0.71792 0.08492 0.93034 0.0
C1154 C 0.69899 0.08838 0.88597 0.0
C1155 C 0.69585 0.06052 0.88507 0.0
C1156 C 0.70407 0.0449 0.90684 0.0
C1157 C 0.71503 0.05731 0.92926 0.0
C1158 C 0.69047 0.10569 0.86312 0.0
C1159 C 0.70102 0.01513 0.90656 0.0
H1160 H 0.62247 0.03137 0.83683 0.0
H1161 H 0.69897 0.02286 0.8006 0.0
H1162 H 0.64437 0.0429 0.90172 0.0
H1163 H 0.64009 0.07461 0.88666 0.0
H1164 H 0.61681 0.04837 0.8796 0.0
H1165 H 0.7384 0.03489 0.82215 0.0
H1166 H 0.73414 0.06424 0.84213 0.0
H1167 H 0.73736 0.03271 0.85781 0.0
H1168 H 0.71222 0.12161 0.90934 0.0
H1169 H 0.72117 0.04538 0.94601 0.0
H1170 H 0.66887 0.10339 0.85963 0.0
H1171 H 0.7007 0.09944 0.84471 0.0
H1172 H 0.69481 0.12699 0.86673 0.0
H1173 H 0.67977 0.00979 0.9046 0.0
H1174 H 0.70899 0.0058 0.92483 0.0
H1175 H 0.71144 0.00663 0.88919 0.0
C1176 C 0.56705 0.71665 0.93742 0.0
C1177 C 0.56508 0.71843 0.90977 0.0
C1178 C 0.58973 0.70598 0.94948 0.0
C1179 C 0.61087 0.69692 0.93346 0.0
C1180 C 0.6091 0.69897 0.90555 0.0
C1181 C 0.5862 0.70969 0.89404 0.0
C1182 C 0.59093 0.70409 0.97931 0.0
C1183 C 0.63126 0.68954 0.88784 0.0
C1184 C 0.67928 0.68832 0.96375 0.0
C1185 C 0.68011 0.66085 0.96775 0.0
C1186 C 0.65674 0.70041 0.95283 0.0
C1187 C 0.63457 0.68462 0.94582 0.0
C1188 C 0.63523 0.65692 0.95008 0.0
C1189 C 0.65801 0.64537 0.96098 0.0
C1190 C 0.65674 0.73001 0.94854 0.0
C1191 C 0.61195 0.63945 0.94288 0.0
H1192 H 0.55077 0.72341 0.94966 0.0
H1193 H 0.58479 0.71107 0.87265 0.0
H1194 H 0.5927 0.68303 0.98533 0.0
H1195 H 0.60875 0.71458 0.98687 0.0
H1196 H 0.57311 0.71266 0.98894 0.0
H1197 H 0.62707 0.69318 0.86654 0.0
H1198 H 0.65003 0.69973 0.89321 0.0
H1199 H 0.63445 0.668 0.89071 0.0
H1200 H 0.69632 0.70036 0.96897 0.0
H1201 H 0.65854 0.62413 0.96409 0.0
H1202 H 0.63977 0.73914 0.95908 0.0
H1203 H 0.65423 0.73439 0.92715 0.0
H1204 H 0.67534 0.73952 0.95558 0.0
H1205 H 0.5939 0.64631 0.95332 0.0
H1206 H 0.61542 0.61833 0.94799 0.0
H1207 H 0.60791 0.64081 0.92131 0.0
C1208 C 0.10049 0.0864 0.79331 0.0
C1209 C 0.0857 0.06746 0.77928 0.0
C1210 C 0.08835 0.109 0.80395 0.0
C1211 C 0.06078 0.11275 0.80037 0.0
C1212 C 0.04578 0.09381 0.78601 0.0
C1213 C 0.05843 0.07132 0.77567 0.0
C1214 C 0.10499 0.12873 0.81922 0.0
C1215 C 0.01635 0.09722 0.78176 0.0
C1216 C 0.02687 0.15785 0.84994 0.0
C1217 C 0.02545 0.18171 0.83586 0.0
C1218 C 0.03779 0.13507 0.83839 0.0
C1219 C 0.04765 0.13627 0.81219 0.0
C1220 C 0.04587 0.1602 0.79771 0.0
C1221 C 0.0347 0.18265 0.80972 0.0
C1222 C 0.03921 0.10986 0.85439 0.0
C1223 C 0.05625 0.16222 0.76975 0.0
H1224 H 0.12158 0.08349 0.79616 0.0
H1225 H 0.04694 0.05674 0.76477 0.0
H1226 H 0.10329 0.14865 0.81012 0.0
H1227 H 0.09762 0.13036 0.83986 0.0
H1228 H 0.12626 0.12309 0.81984 0.0
H1229 H 0.00765 0.08096 0.76966 0.0
H1230 H 0.00606 0.09783 0.80115 0.0
H1231 H 0.01239 0.11634 0.77171 0.0
H1232 H 0.01962 0.157 0.87013 0.0
H1233 H 0.03363 0.20108 0.79877 0.0
H1234 H 0.06022 0.10415 0.85741 0.0
H1235 H 0.02942 0.09341 0.84349 0.0
H1236 H 0.02965 0.11193 0.87409 0.0
H1237 H 0.07793 0.1586 0.76964 0.0
H1238 H 0.05241 0.18196 0.76084 0.0
H1239 H 0.04695 0.14681 0.75706 0.0
C1240 C 0.93006 0.28413 0.43762 0.0
C1241 C 0.93129 0.28005 0.41017 0.0
C1242 C 0.90743 0.29518 0.44936 0.0
C1243 C 0.88557 0.30222 0.43324 0.0
C1244 C 0.88661 0.29786 0.40555 0.0
C1245 C 0.90948 0.28684 0.39435 0.0
C1246 C 0.90702 0.29958 0.47896 0.0
C1247 C 0.86365 0.30508 0.38773 0.0
C1248 C 0.81779 0.31103 0.46456 0.0
C1249 C 0.81611 0.33869 0.46651 0.0
C1250 C 0.84041 0.29884 0.45399 0.0
C1251 C 0.86179 0.31473 0.4452 0.0
C1252 C 0.86027 0.34265 0.44732 0.0
C1253 C 0.83743 0.3543 0.45796 0.0
C1254 C 0.84135 0.269 0.45202 0.0
C1255 C 0.88269 0.36024 0.43815 0.0
H1256 H 0.94688 0.2789 0.44992 0.0
H1257 H 0.91032 0.28367 0.37312 0.0
H1258 H 0.90465 0.321 0.48332 0.0
H1259 H 0.88982 0.28916 0.48782 0.0
H1260 H 0.92542 0.29248 0.48876 0.0
H1261 H 0.86739 0.29984 0.36668 0.0
H1262 H 0.84541 0.29475 0.39434 0.0
H1263 H 0.85978 0.32667 0.38903 0.0
H1264 H 0.80136 0.29888 0.47118 0.0
H1265 H 0.83624 0.3757 0.45946 0.0
H1266 H 0.85889 0.26135 0.46284 0.0
H1267 H 0.84347 0.26293 0.43099 0.0
H1268 H 0.82328 0.25948 0.46022 0.0
H1269 H 0.90127 0.3549 0.44864 0.0
H1270 H 0.87859 0.38158 0.44166 0.0
H1271 H 0.88618 0.35718 0.41667 0.0
C1272 C 0.55817 0.92832 0.7814 0.0
C1273 C 0.58566 0.92883 0.77742 0.0
C1274 C 0.54575 0.90605 0.79248 0.0
C1275 C 0.56122 0.88382 0.79968 0.0
C1276 C 0.58893 0.8841 0.79535 0.0
C1277 C 0.60081 0.90662 0.78429 0.0
C1278 C 0.51616 0.90645 0.79682 0.0
C1279 C 0.60607 0.86074 0.80275 0.0
C1280 C 0.53567 0.83682 0.85234 0.0
C1281 C 0.52657 0.81547 0.837 0.0
C1282 C 0.54667 0.85935 0.84041 0.0
C1283 C 0.54861 0.86052 0.81246 0.0
C1284 C 0.53916 0.83915 0.79684 0.0
C1285 C 0.52824 0.81684 0.80932 0.0
C1286 C 0.55652 0.88176 0.85772 0.0
C1287 C 0.54091 0.83972 0.76698 0.0
H1288 H 0.54638 0.94545 0.7761 0.0
H1289 H 0.62207 0.9069 0.78119 0.0
H1290 H 0.50676 0.88931 0.78667 0.0
H1291 H 0.5118 0.90453 0.81827 0.0
H1292 H 0.50688 0.92496 0.78942 0.0
H1293 H 0.62719 0.86383 0.7974 0.0
H1294 H 0.60482 0.85715 0.82439 0.0
H1295 H 0.59879 0.84258 0.79264 0.0
H1296 H 0.53438 0.83587 0.87375 0.0
H1297 H 0.52119 0.80039 0.79738 0.0
H1298 H 0.54659 0.90053 0.85209 0.0
H1299 H 0.57811 0.88465 0.85469 0.0
H1300 H 0.55293 0.87805 0.8791 0.0
H1301 H 0.53067 0.85752 0.75919 0.0
H1302 H 0.53198 0.82183 0.75769 0.0
H1303 H 0.56196 0.8411 0.76083 0.0
C1304 C 0.96052 0.16036 0.35362 0.0
C1305 C 0.9701 0.18136 0.33822 0.0
C1306 C 0.94968 0.13766 0.34171 0.0
C1307 C 0.9484 0.13596 0.31374 0.0
C1308 C 0.95834 0.15697 0.29807 0.0
C1309 C 0.96909 0.17946 0.31053 0.0
C1310 C 0.9393 0.11563 0.35906 0.0
C1311 C 0.95731 0.15583 0.26819 0.0
C1312 C 0.93922 0.06766 0.28332 0.0
C1313 C 0.91184 0.06723 0.27855 0.0
C1314 C 0.95148 0.09005 0.29448 0.0
C1315 C 0.93597 0.11248 0.30095 0.0
C1316 C 0.90838 0.11227 0.29582 0.0
C1317 C 0.89664 0.08962 0.28471 0.0
C1318 C 0.98096 0.08957 0.2997 0.0
C1319 C 0.8912 0.13585 0.3024 0.0
H1320 H 0.9613 0.16172 0.37504 0.0
H1321 H 0.97651 0.19565 0.29855 0.0
H1322 H 0.91777 0.11281 0.35547 0.0
H1323 H 0.94924 0.09671 0.35399 0.0
H1324 H 0.94241 0.11973 0.38048 0.0
H1325 H 0.96656 0.17349 0.25889 0.0
H1326 H 0.96763 0.13783 0.26096 0.0
H1327 H 0.93641 0.15445 0.26146 0.0
H1328 H 0.95104 0.05039 0.27857 0.0
H1329 H 0.87547 0.0894 0.28099 0.0
H1330 H 0.9848 0.09189 0.32123 0.0
H1331 H 0.9907 0.10645 0.28956 0.0
H1332 H 0.99031 0.07087 0.29284 0.0
H1333 H 0.89196 0.13984 0.32402 0.0
H1334 H 0.87019 0.13276 0.29651 0.0
H1335 H 0.8988 0.15379 0.29224 0.0
C1336 C 0.60289 0.08655 0.7109 0.0
C1337 C 0.58722 0.06464 0.71772 0.0
C1338 C 0.59148 0.10941 0.70006 0.0
C1339 C 0.56374 0.11035 0.69594 0.0
C1340 C 0.54777 0.0884 0.70305 0.0
C1341 C 0.55972 0.06577 0.71387 0.0
C1342 C 0.60914 0.13244 0.69274 0.0
C1343 C 0.51812 0.08872 0.69893 0.0
C1344 C 0.53225 0.1781 0.68748 0.0
C1345 C 0.53011 0.17983 0.65984 0.0
C1346 C 0.54288 0.15546 0.69956 0.0
C1347 C 0.55157 0.1341 0.68358 0.0
C1348 C 0.54921 0.13564 0.65567 0.0
C1349 C 0.5385 0.1585 0.64414 0.0
C1350 C 0.54508 0.15448 0.72938 0.0
C1351 C 0.55827 0.11326 0.63798 0.0
H1352 H 0.62415 0.08579 0.71388 0.0
H1353 H 0.54754 0.04889 0.71914 0.0
H1354 H 0.60764 0.13634 0.67117 0.0
H1355 H 0.60255 0.15064 0.70316 0.0
H1356 H 0.63026 0.12878 0.69779 0.0
H1357 H 0.50846 0.0703 0.70612 0.0
H1358 H 0.5093 0.10589 0.70944 0.0
H1359 H 0.51355 0.09107 0.67756 0.0
H1360 H 0.52574 0.19453 0.69969 0.0
H1361 H 0.53686 0.15973 0.62276 0.0
H1362 H 0.56618 0.1525 0.73528 0.0
H1363 H 0.53445 0.13686 0.73708 0.0
H1364 H 0.53683 0.17248 0.73899 0.0
H1365 H 0.5798 0.10984 0.64082 0.0
H1366 H 0.55453 0.11735 0.61668 0.0
H1367 H 0.5479 0.09465 0.64342 0.0
C1368 C 0.17636 0.30909 0.9701 0.0
C1369 C 0.1786 0.33677 0.97078 0.0
C1370 C 0.15387 0.29678 0.95919 0.0
C1371 C 0.13322 0.31258 0.9487 0.0
C1372 C 0.13523 0.34054 0.94968 0.0
C1373 C 0.15791 0.3523 0.96072 0.0
C1374 C 0.15237 0.2669 0.95853 0.0
C1375 C 0.1136 0.35804 0.93869 0.0
C1376 C 0.08745 0.28381 0.89631 0.0
C1377 C 0.06459 0.27834 0.91108 0.0
C1378 C 0.11008 0.29455 0.90843 0.0
C1379 C 0.10983 0.29995 0.93595 0.0
C1380 C 0.08695 0.29409 0.95105 0.0
C1381 C 0.06457 0.28334 0.93841 0.0
C1382 C 0.13413 0.30052 0.89168 0.0
C1383 C 0.08599 0.29956 0.98046 0.0
H1384 H 0.1923 0.29701 0.97791 0.0
H1385 H 0.15953 0.37372 0.96124 0.0
H1386 H 0.13403 0.26003 0.96849 0.0
H1387 H 0.15139 0.25991 0.93769 0.0
H1388 H 0.16969 0.2575 0.96832 0.0
H1389 H 0.1179 0.37944 0.94164 0.0
H1390 H 0.11114 0.35424 0.91716 0.0
H1391 H 0.09443 0.35331 0.94832 0.0
H1392 H 0.08758 0.27992 0.87518 0.0
H1393 H 0.04695 0.2791 0.9499 0.0
H1394 H 0.15175 0.29022 0.89981 0.0
H1395 H 0.13842 0.32209 0.89222 0.0
H1396 H 0.1314 0.29437 0.8707 0.0
H1397 H 0.10261 0.28936 0.99061 0.0
H1398 H 0.06705 0.29295 0.98951 0.0
H1399 H 0.08842 0.32111 0.98415 0.0
C1400 C 0.42977 0.71805 0.43787 0.0
C1401 C 0.43105 0.71947 0.41017 0.0
C1402 C 0.40752 0.70721 0.45052 0.0
C1403 C 0.38612 0.69758 0.43505 0.0
C1404 C 0.38722 0.6992 0.40708 0.0
C1405 C 0.40969 0.71014 0.39497 0.0
C1406 C 0.40701 0.70581 0.48039 0.0
C1407 C 0.36477 0.68914 0.38993 0.0
C1408 C 0.33982 0.64599 0.46402 0.0
C1409 C 0.31768 0.66134 0.47069 0.0
C1410 C 0.36238 0.65761 0.45275 0.0
C1411 C 0.36278 0.68524 0.44803 0.0
C1412 C 0.34062 0.70091 0.45504 0.0
C1413 C 0.31831 0.68876 0.46632 0.0
C1414 C 0.38566 0.64027 0.44557 0.0
C1415 C 0.34035 0.73044 0.45028 0.0
H1416 H 0.44624 0.72528 0.44969 0.0
H1417 H 0.41058 0.71122 0.37354 0.0
H1418 H 0.38931 0.71627 0.4881 0.0
H1419 H 0.40549 0.68485 0.4868 0.0
H1420 H 0.42499 0.71471 0.48955 0.0
H1421 H 0.3685 0.69236 0.36849 0.0
H1422 H 0.3618 0.66762 0.39332 0.0
H1423 H 0.34604 0.69923 0.39538 0.0
H1424 H 0.33944 0.62479 0.46741 0.0
H1425 H 0.30124 0.7007 0.47147 0.0
H1426 H 0.40388 0.64761 0.45554 0.0
H1427 H 0.38922 0.64119 0.42391 0.0
H1428 H 0.38249 0.61925 0.45123 0.0
H1429 H 0.35755 0.7399 0.46028 0.0
H1430 H 0.32189 0.7399 0.45758 0.0
H1431 H 0.34226 0.73449 0.42877 0.0
C1432 C 0.85088 0.53576 0.83833 0.0
C1433 C 0.83563 0.52959 0.8159 0.0
C1434 C 0.83917 0.54669 0.86102 0.0
C1435 C 0.81156 0.5516 0.86122 0.0
C1436 C 0.796 0.54513 0.83874 0.0
C1437 C 0.80824 0.53416 0.81631 0.0
C1438 C 0.8564 0.55329 0.88465 0.0
C1439 C 0.7665 0.5501 0.83825 0.0
C1440 C 0.77857 0.56063 0.92816 0.0
C1441 C 0.77742 0.58831 0.93016 0.0
C1442 C 0.78933 0.54836 0.90566 0.0
C1443 C 0.79915 0.56419 0.88473 0.0
C1444 C 0.79776 0.59214 0.88653 0.0
C1445 C 0.7869 0.60387 0.90924 0.0
C1446 C 0.79048 0.51849 0.9044 0.0
C1447 C 0.80803 0.60967 0.8646 0.0
H1448 H 0.87205 0.5322 0.83812 0.0
H1449 H 0.79637 0.5294 0.79901 0.0
H1450 H 0.85557 0.57488 0.88874 0.0
H1451 H 0.84889 0.54298 0.90252 0.0
H1452 H 0.87742 0.54759 0.88155 0.0
H1453 H 0.75712 0.54327 0.8195 0.0
H1454 H 0.75685 0.5398 0.85507 0.0
H1455 H 0.76259 0.5716 0.84067 0.0
H1456 H 0.77123 0.54853 0.94429 0.0
H1457 H 0.78602 0.62528 0.91068 0.0
H1458 H 0.81141 0.51193 0.903 0.0
H1459 H 0.78013 0.51124 0.88637 0.0
H1460 H 0.78133 0.50903 0.92202 0.0
H1461 H 0.82956 0.60624 0.86179 0.0
H1462 H 0.80488 0.63105 0.8688 0.0
H1463 H 0.79804 0.60462 0.84564 0.0
C1464 C 0.68667 0.534 0.17955 0.0
C1465 C 0.65928 0.52932 0.1798 0.0
C1466 C 0.69904 0.54492 0.15721 0.0
C1467 C 0.68361 0.55126 0.13465 0.0
C1468 C 0.656 0.54623 0.13467 0.0
C1469 C 0.64416 0.53533 0.15727 0.0
C1470 C 0.72853 0.55003 0.15788 0.0
C1471 C 0.63891 0.55269 0.11095 0.0
C1472 C 0.70851 0.60364 0.087 0.0
C1473 C 0.71812 0.58813 0.06606 0.0
C1474 C 0.69752 0.59186 0.10958 0.0
C1475 C 0.69614 0.5639 0.11126 0.0
C1476 C 0.70611 0.54812 0.09033 0.0
C1477 C 0.71699 0.56044 0.06794 0.0
C1478 C 0.68708 0.60935 0.13152 0.0
C1479 C 0.70499 0.51824 0.09146 0.0
H1480 H 0.69843 0.52935 0.19692 0.0
H1481 H 0.62298 0.53169 0.15736 0.0
H1482 H 0.73828 0.53979 0.14106 0.0
H1483 H 0.73245 0.57155 0.15559 0.0
H1484 H 0.73781 0.54323 0.17664 0.0
H1485 H 0.61788 0.54686 0.11389 0.0
H1486 H 0.63971 0.57429 0.10694 0.0
H1487 H 0.64656 0.54242 0.09309 0.0
H1488 H 0.70937 0.62506 0.08565 0.0
H1489 H 0.72445 0.54837 0.05181 0.0
H1490 H 0.69696 0.60436 0.15052 0.0
H1491 H 0.66555 0.6058 0.13418 0.0
H1492 H 0.69023 0.63074 0.12743 0.0
H1493 H 0.71523 0.51105 0.10953 0.0
H1494 H 0.71427 0.50883 0.07386 0.0
H1495 H 0.68406 0.51158 0.09269 0.0
C1496 C 0.70766 0.3956 0.40845 0.0
C1497 C 0.71749 0.41113 0.42934 0.0
C1498 C 0.69657 0.40736 0.38586 0.0
C1499 C 0.69531 0.43532 0.38416 0.0
C1500 C 0.70543 0.45112 0.40508 0.0
C1501 C 0.71641 0.43882 0.42746 0.0
C1502 C 0.68599 0.38986 0.36393 0.0
C1503 C 0.70441 0.481 0.40393 0.0
C1504 C 0.68619 0.4653 0.31582 0.0
C1505 C 0.65884 0.47007 0.31538 0.0
C1506 C 0.69842 0.45428 0.33822 0.0
C1507 C 0.68289 0.44796 0.36067 0.0
C1508 C 0.65532 0.45308 0.36046 0.0
C1509 C 0.64362 0.46406 0.33778 0.0
C1510 C 0.72788 0.44906 0.33775 0.0
C1511 C 0.63813 0.44666 0.38405 0.0
H1512 H 0.70847 0.37418 0.4098 0.0
H1513 H 0.72402 0.4509 0.44356 0.0
H1514 H 0.66449 0.39351 0.36113 0.0
H1515 H 0.69594 0.39474 0.34497 0.0
H1516 H 0.68894 0.36846 0.3681 0.0
H1517 H 0.71363 0.49042 0.42162 0.0
H1518 H 0.71479 0.48817 0.38596 0.0
H1519 H 0.68352 0.48766 0.40248 0.0
H1520 H 0.69803 0.46993 0.29854 0.0
H1521 H 0.62247 0.46777 0.33756 0.0
H1522 H 0.73163 0.42754 0.34012 0.0
H1523 H 0.73768 0.45932 0.35459 0.0
H1524 H 0.73724 0.45578 0.31902 0.0
H1525 H 0.6388 0.42507 0.38808 0.0
H1526 H 0.61715 0.45254 0.38096 0.0
H1527 H 0.6458 0.45692 0.40196 0.0
C1528 C 0.8087 0.46477 0.67926 0.0
C1529 C 0.83603 0.46978 0.67988 0.0
C1530 C 0.79663 0.45386 0.65664 0.0
C1531 C 0.8123 0.4479 0.63418 0.0
C1532 C 0.83984 0.45327 0.63459 0.0
C1533 C 0.85138 0.46413 0.65747 0.0
C1534 C 0.76721 0.44836 0.65691 0.0
C1535 C 0.85717 0.44724 0.61098 0.0
C1536 C 0.78826 0.3956 0.58566 0.0
C1537 C 0.77847 0.41116 0.56487 0.0
C1538 C 0.79906 0.40734 0.60846 0.0
C1539 C 0.80008 0.43529 0.61049 0.0
C1540 C 0.79 0.45112 0.58967 0.0
C1541 C 0.7793 0.43885 0.56707 0.0
C1542 C 0.80963 0.38981 0.63027 0.0
C1543 C 0.79076 0.481 0.59118 0.0
H1544 H 0.79676 0.46913 0.69655 0.0
H1545 H 0.87251 0.46804 0.65783 0.0
H1546 H 0.75743 0.45863 0.64013 0.0
H1547 H 0.76359 0.42682 0.65429 0.0
H1548 H 0.75772 0.45486 0.67566 0.0
H1549 H 0.8781 0.45333 0.61423 0.0
H1550 H 0.85668 0.42567 0.60668 0.0
H1551 H 0.8495 0.45756 0.59317 0.0
H1552 H 0.78763 0.37419 0.58406 0.0
H1553 H 0.77171 0.45095 0.55105 0.0
H1554 H 0.79955 0.39446 0.64922 0.0
H1555 H 0.83109 0.39366 0.63323 0.0
H1556 H 0.80684 0.36841 0.62585 0.0
H1557 H 0.78025 0.48792 0.60918 0.0
H1558 H 0.78154 0.49044 0.57356 0.0
H1559 H 0.81159 0.4879 0.5928 0.0
C1560 C 0.3962 0.09011 0.21201 0.0
C1561 C 0.41117 0.06758 0.21818 0.0
C1562 C 0.40815 0.11255 0.20084 0.0
C1563 C 0.43571 0.11239 0.19568 0.0
C1564 C 0.45099 0.08981 0.20215 0.0
C1565 C 0.43852 0.06764 0.21336 0.0
C1566 C 0.39122 0.1363 0.19425 0.0
C1567 C 0.48043 0.08894 0.1969 0.0
C1568 C 0.46035 0.15973 0.14292 0.0
C1569 C 0.47015 0.18077 0.15827 0.0
C1570 C 0.44945 0.13717 0.15487 0.0
C1571 C 0.44835 0.13564 0.18284 0.0
C1572 C 0.45857 0.15665 0.19846 0.0
C1573 C 0.46936 0.17901 0.18597 0.0
C1574 C 0.43875 0.11514 0.13756 0.0
C1575 C 0.45775 0.15567 0.22835 0.0
H1576 H 0.37506 0.09018 0.21576 0.0
H1577 H 0.45016 0.05025 0.21812 0.0
H1578 H 0.39909 0.1542 0.20438 0.0
H1579 H 0.39192 0.14016 0.17263 0.0
H1580 H 0.37021 0.1335 0.20015 0.0
H1581 H 0.48959 0.07017 0.20378 0.0
H1582 H 0.48417 0.09108 0.17536 0.0
H1583 H 0.49043 0.10577 0.207 0.0
H1584 H 0.46096 0.16099 0.12149 0.0
H1585 H 0.47697 0.19521 0.19791 0.0
H1586 H 0.41721 0.1126 0.14113 0.0
H1587 H 0.44849 0.09614 0.14269 0.0
H1588 H 0.44184 0.11906 0.11614 0.0
H1589 H 0.43688 0.15464 0.23514 0.0
H1590 H 0.46733 0.17324 0.23761 0.0
H1591 H 0.46785 0.13756 0.23557 0.0
C1592 C 0.03509 0.81725 0.68757 0.0
C1593 C 0.02869 0.81721 0.66053 0.0
C1594 C 0.04609 0.8398 0.69968 0.0
C1595 C 0.05064 0.86282 0.68437 0.0
C1596 C 0.04384 0.863 0.65715 0.0
C1597 C 0.033 0.84015 0.64554 0.0
C1598 C 0.05319 0.83887 0.72874 0.0
C1599 C 0.0483 0.88724 0.64022 0.0
C1600 C 0.05952 0.92912 0.71901 0.0
C1601 C 0.08713 0.93211 0.71849 0.0
C1602 C 0.04734 0.90653 0.70818 0.0
C1603 C 0.0632 0.88652 0.6966 0.0
C1604 C 0.09111 0.88936 0.69624 0.0
C1605 C 0.10274 0.91214 0.70718 0.0
C1606 C 0.01751 0.90417 0.70889 0.0
C1607 C 0.10867 0.86842 0.68408 0.0
H1608 H 0.03179 0.79954 0.69923 0.0
H1609 H 0.028 0.84023 0.62464 0.0
H1610 H 0.07481 0.84207 0.73129 0.0
H1611 H 0.04296 0.85504 0.73955 0.0
H1612 H 0.04777 0.81966 0.738 0.0
H1613 H 0.04119 0.88439 0.61956 0.0
H1614 H 0.03791 0.90454 0.64892 0.0
H1615 H 0.06973 0.89214 0.6397 0.0
H1616 H 0.04738 0.94451 0.72776 0.0
H1617 H 0.12411 0.91436 0.70677 0.0
H1618 H 0.01165 0.8857 0.71924 0.0
H1619 H 0.00958 0.90287 0.6884 0.0
H1620 H 0.00806 0.92125 0.71904 0.0
H1621 H 0.10512 0.84904 0.6938 0.0
H1622 H 0.13005 0.8734 0.68588 0.0
H1623 H 0.10375 0.86597 0.66278 0.0
C1624 C 0.46625 0.81986 0.30925 0.0
C1625 C 0.46746 0.81772 0.33691 0.0
C1626 C 0.45541 0.8424 0.29716 0.0
C1627 C 0.44556 0.86323 0.31317 0.0
C1628 C 0.44693 0.86126 0.3411 0.0
C1629 C 0.45788 0.83851 0.35264 0.0
C1630 C 0.45428 0.84385 0.2673 0.0
C1631 C 0.43662 0.88307 0.35881 0.0
C1632 C 0.437 0.93187 0.28377 0.0
C1633 C 0.40965 0.93247 0.27891 0.0
C1634 C 0.44905 0.90933 0.29465 0.0
C1635 C 0.43332 0.88691 0.30076 0.0
C1636 C 0.40574 0.88731 0.2956 0.0
C1637 C 0.39423 0.91011 0.28476 0.0
C1638 C 0.47852 0.90961 0.29991 0.0
C1639 C 0.38834 0.86375 0.30182 0.0
H1640 H 0.47366 0.80384 0.29701 0.0
H1641 H 0.45879 0.83696 0.37404 0.0
H1642 H 0.43338 0.84551 0.26065 0.0
H1643 H 0.46482 0.86182 0.2603 0.0
H1644 H 0.46326 0.8262 0.25771 0.0
H1645 H 0.4396 0.87866 0.38017 0.0
H1646 H 0.44675 0.90202 0.35414 0.0
H1647 H 0.41514 0.88604 0.35517 0.0
H1648 H 0.449 0.94912 0.27926 0.0
H1649 H 0.37307 0.91047 0.28098 0.0
H1650 H 0.48813 0.89285 0.28945 0.0
H1651 H 0.48232 0.90695 0.3214 0.0
H1652 H 0.48803 0.92837 0.29343 0.0
H1653 H 0.39576 0.8459 0.29135 0.0
H1654 H 0.36736 0.86703 0.29602 0.0
H1655 H 0.3891 0.85949 0.32336 0.0
C1656 C 0.81648 0.68821 0.03379 0.0
C1657 C 0.81576 0.66083 0.0291 0.0
C1658 C 0.839 0.70027 0.04493 0.0
C1659 C 0.86127 0.68454 0.05144 0.0
C1660 C 0.86075 0.65694 0.04645 0.0
C1661 C 0.83797 0.64541 0.03537 0.0
C1662 C 0.83885 0.72977 0.05001 0.0
C1663 C 0.88416 0.63953 0.05308 0.0
C1664 C 0.9286 0.71713 0.06043 0.0
C1665 C 0.93065 0.71836 0.08811 0.0
C1666 C 0.90597 0.70644 0.04818 0.0
C1667 C 0.88496 0.6968 0.06402 0.0
C1668 C 0.88682 0.69826 0.09197 0.0
C1669 C 0.90967 0.70902 0.10368 0.0
C1670 C 0.90467 0.70518 0.01831 0.0
C1671 C 0.8648 0.6882 0.10952 0.0
H1672 H 0.79935 0.70021 0.02896 0.0
H1673 H 0.83753 0.62424 0.03172 0.0
H1674 H 0.84141 0.73369 0.0715 0.0
H1675 H 0.85573 0.73929 0.03966 0.0
H1676 H 0.82017 0.73926 0.04328 0.0
H1677 H 0.88079 0.61852 0.0474 0.0
H1678 H 0.90213 0.64682 0.04276 0.0
H1679 H 0.88827 0.64044 0.07467 0.0
H1680 H 0.94477 0.72436 0.04831 0.0
H1681 H 0.91114 0.70998 0.1251 0.0
H1682 H 0.88677 0.71569 0.01108 0.0
H1683 H 0.90296 0.68425 0.01175 0.0
H1684 H 0.92241 0.71411 0.00884 0.0
H1685 H 0.84595 0.69832 0.10452 0.0
H1686 H 0.86907 0.69137 0.13089 0.0
H1687 H 0.86172 0.66669 0.10605 0.0
C1688 C 0.56834 0.28239 0.5599 0.0
C1689 C 0.56774 0.27864 0.58741 0.0
C1690 C 0.59062 0.29349 0.54756 0.0
C1691 C 0.61279 0.30097 0.56313 0.0
C1692 C 0.61241 0.29692 0.59087 0.0
C1693 C 0.58985 0.28582 0.60268 0.0
C1694 C 0.59033 0.29754 0.51793 0.0
C1695 C 0.6357 0.3046 0.60811 0.0
C1696 C 0.67968 0.31033 0.53009 0.0
C1697 C 0.68104 0.33799 0.52793 0.0
C1698 C 0.65746 0.29796 0.5413 0.0
C1699 C 0.63615 0.31365 0.55054 0.0
C1700 C 0.63733 0.34157 0.54817 0.0
C1701 C 0.65978 0.35341 0.5369 0.0
C1702 C 0.65687 0.26813 0.54351 0.0
C1703 C 0.61497 0.35895 0.55778 0.0
H1704 H 0.55128 0.27684 0.54801 0.0
H1705 H 0.5895 0.28291 0.62395 0.0
H1706 H 0.59237 0.31894 0.51336 0.0
H1707 H 0.60744 0.28726 0.50876 0.0
H1708 H 0.5718 0.29006 0.50859 0.0
H1709 H 0.63251 0.29952 0.62927 0.0
H1710 H 0.65389 0.29446 0.60112 0.0
H1711 H 0.63934 0.32624 0.60662 0.0
H1712 H 0.69607 0.29834 0.52316 0.0
H1713 H 0.66073 0.3748 0.53525 0.0
H1714 H 0.63914 0.26011 0.5332 0.0
H1715 H 0.65534 0.26228 0.56463 0.0
H1716 H 0.67482 0.25876 0.53493 0.0
H1717 H 0.5962 0.35324 0.54779 0.0
H1718 H 0.61877 0.38031 0.55403 0.0
H1719 H 0.61205 0.35609 0.57936 0.0
C1720 C 0.21569 0.43798 0.06947 0.0
C1721 C 0.21752 0.41031 0.06803 0.0
C1722 C 0.20509 0.45046 0.09194 0.0
C1723 C 0.19613 0.43484 0.11341 0.0
C1724 C 0.1982 0.4069 0.11215 0.0
C1725 C 0.20887 0.39497 0.08946 0.0
C1726 C 0.2032 0.48031 0.09261 0.0
C1727 C 0.18885 0.38959 0.13466 0.0
C1728 C 0.18785 0.46594 0.18145 0.0
C1729 C 0.16037 0.46982 0.18242 0.0
C1730 C 0.19985 0.45489 0.15894 0.0
C1731 C 0.18395 0.44761 0.13695 0.0
C1732 C 0.15624 0.45183 0.13769 0.0
C1733 C 0.14478 0.46288 0.16045 0.0
C1734 C 0.22947 0.45067 0.15883 0.0
C1735 C 0.13865 0.44434 0.1146 0.0
H1736 H 0.22239 0.44992 0.05295 0.0
H1737 H 0.21028 0.37356 0.08845 0.0
H1738 H 0.18215 0.48637 0.09437 0.0
H1739 H 0.21379 0.4882 0.11024 0.0
H1740 H 0.21169 0.48961 0.07458 0.0
H1741 H 0.19242 0.36821 0.13082 0.0
H1742 H 0.19915 0.39525 0.15328 0.0
H1743 H 0.16732 0.39258 0.13792 0.0
H1744 H 0.19998 0.47131 0.19839 0.0
H1745 H 0.12353 0.4659 0.16108 0.0
H1746 H 0.23846 0.46084 0.14157 0.0
H1747 H 0.23388 0.42924 0.15678 0.0
H1748 H 0.2391 0.45815 0.1772 0.0
H1749 H 0.1455 0.45444 0.09635 0.0
H1750 H 0.11757 0.44962 0.11806 0.0
H1751 H 0.1399 0.4227 0.11093 0.0
C1752 C 0.35093 0.45909 0.83955 0.0
C1753 C 0.33568 0.46589 0.81734 0.0
C1754 C 0.33907 0.44834 0.86221 0.0
C1755 C 0.31131 0.44428 0.86264 0.0
C1756 C 0.29577 0.45133 0.84037 0.0
C1757 C 0.30816 0.46207 0.81795 0.0
C1758 C 0.35629 0.44107 0.8856 0.0
C1759 C 0.26611 0.44728 0.84014 0.0
C1760 C 0.2853 0.39283 0.91071 0.0
C1761 C 0.27668 0.40868 0.93183 0.0
C1762 C 0.29628 0.4042 0.88791 0.0
C1763 C 0.29869 0.43209 0.88622 0.0
C1764 C 0.28971 0.44823 0.90734 0.0
C1765 C 0.27879 0.43631 0.92993 0.0
C1766 C 0.30564 0.38635 0.86578 0.0
C1767 C 0.29194 0.47804 0.9062 0.0
H1768 H 0.37221 0.46205 0.83919 0.0
H1769 H 0.2963 0.46733 0.80082 0.0
H1770 H 0.34943 0.45163 0.90361 0.0
H1771 H 0.35462 0.41952 0.8896 0.0
H1772 H 0.3775 0.44599 0.88229 0.0
H1773 H 0.25681 0.45435 0.82149 0.0
H1774 H 0.26145 0.42593 0.84257 0.0
H1775 H 0.25699 0.45793 0.85706 0.0
H1776 H 0.28367 0.37145 0.91207 0.0
H1777 H 0.27211 0.44864 0.9462 0.0
H1778 H 0.32725 0.38904 0.86275 0.0
H1779 H 0.29565 0.39177 0.84695 0.0
H1780 H 0.3017 0.36509 0.86989 0.0
H1781 H 0.31308 0.48391 0.90464 0.0
H1782 H 0.28332 0.48778 0.92395 0.0
H1783 H 0.2817 0.48563 0.8883 0.0
C1784 C 0.28038 0.55976 0.56984 0.0
C1785 C 0.27886 0.58746 0.56863 0.0
C1786 C 0.29099 0.54707 0.59218 0.0
C1787 C 0.30026 0.5625 0.61376 0.0
C1788 C 0.29846 0.59047 0.61276 0.0
C1789 C 0.28778 0.60262 0.59019 0.0
C1790 C 0.29258 0.5172 0.59256 0.0
C1791 C 0.30814 0.60758 0.63541 0.0
C1792 C 0.30888 0.53075 0.68136 0.0
C1793 C 0.33633 0.52658 0.68214 0.0
C1794 C 0.29678 0.54215 0.65908 0.0
C1795 C 0.31255 0.54949 0.63711 0.0
C1796 C 0.34022 0.54498 0.63766 0.0
C1797 C 0.35178 0.53359 0.6602 0.0
C1798 C 0.26721 0.54668 0.65917 0.0
C1799 C 0.35766 0.55249 0.61458 0.0
H1800 H 0.27347 0.54796 0.55322 0.0
H1801 H 0.2866 0.62405 0.58936 0.0
H1802 H 0.31359 0.51093 0.59414 0.0
H1803 H 0.28211 0.50933 0.61018 0.0
H1804 H 0.28382 0.50807 0.57451 0.0
H1805 H 0.30468 0.629 0.63181 0.0
H1806 H 0.29798 0.60186 0.65401 0.0
H1807 H 0.32968 0.60442 0.63852 0.0
H1808 H 0.29685 0.52534 0.69828 0.0
H1809 H 0.37301 0.53035 0.66069 0.0
H1810 H 0.25794 0.5367 0.64186 0.0
H1811 H 0.263 0.56817 0.65736 0.0
H1812 H 0.25768 0.5392 0.67752 0.0
H1813 H 0.35057 0.54257 0.59624 0.0
H1814 H 0.37873 0.54702 0.61788 0.0
H1815 H 0.35655 0.57417 0.61115 0.0
C1816 C 0.18916 0.53344 0.31897 0.0
C1817 C 0.16165 0.52951 0.31835 0.0
C1818 C 0.20157 0.54442 0.34137 0.0
C1819 C 0.18607 0.55159 0.36359 0.0
C1820 C 0.15834 0.54734 0.36317 0.0
C1821 C 0.14646 0.53635 0.34053 0.0
C1822 C 0.2312 0.54868 0.34113 0.0
C1823 C 0.14117 0.5547 0.38652 0.0
C1824 C 0.2187 0.56075 0.43086 0.0
C1825 C 0.22052 0.58842 0.43254 0.0
C1826 C 0.20788 0.54843 0.40833 0.0
C1827 C 0.19869 0.5642 0.38707 0.0
C1828 C 0.20082 0.59214 0.38853 0.0
C1829 C 0.21172 0.60391 0.41126 0.0
C1830 C 0.20594 0.51858 0.40744 0.0
C1831 C 0.19124 0.6096 0.36622 0.0
H1832 H 0.20098 0.52814 0.30186 0.0
H1833 H 0.12519 0.5333 0.34016 0.0
H1834 H 0.23571 0.5701 0.34328 0.0
H1835 H 0.24046 0.5384 0.35819 0.0
H1836 H 0.24049 0.54135 0.32258 0.0
H1837 H 0.12001 0.54947 0.38329 0.0
H1838 H 0.14827 0.54446 0.40462 0.0
H1839 H 0.1426 0.57631 0.39033 0.0
H1840 H 0.22552 0.54869 0.44725 0.0
H1841 H 0.21313 0.62532 0.41246 0.0
H1842 H 0.21615 0.51086 0.38959 0.0
H1843 H 0.18484 0.51249 0.40596 0.0
H1844 H 0.21477 0.50915 0.42526 0.0
H1845 H 0.20119 0.60401 0.34746 0.0
H1846 H 0.19503 0.63095 0.37014 0.0
H1847 H 0.16964 0.60671 0.36322 0.0
loop_
_geom_bond_atom_site_label_1
_geom_bond_atom_site_label_2
_geom_bond_distance
_geom_bond_site_symmetry_2
_ccdc_geom_bond_type
In0 O1 2.294 . S
In0 O2 2.326 . S
In0 O6 2.266 1_455 S
In0 O7 2.326 1_455 S
In0 O8 2.266 1_455 S
In0 O9 2.326 1_455 S
In0 O11 2.294 . S
In0 O12 2.326 . S
O1 In0 2.294 . S
O1 C10 1.240 . S
O2 In0 2.326 . S
O2 C10 1.252 . S
C3 O6 1.252 . S
C3 O7 1.260 . S
C4 O11 1.240 . S
C4 O12 1.252 . S
C5 O8 1.252 . S
C5 O9 1.260 . S
O6 In0 2.266 1_655 S
O6 C3 1.252 . S
O7 In0 2.326 1_655 S
O7 C3 1.260 . S
O8 In0 2.266 1_655 S
O8 C5 1.252 . S
O9 In0 2.326 1_655 S
O9 C5 1.260 . S
C10 O1 1.240 . S
C10 O2 1.252 . S
O11 In0 2.294 . S
O11 C4 1.240 . S
O12 In0 2.326 . S
O12 C4 1.252 . S
In13 O14 2.294 . S
In13 O15 2.326 . S
In13 O19 2.266 1_455 S
In13 O20 2.326 1_455 S
In13 O21 2.266 . S
In13 O22 2.326 . S
In13 O24 2.294 1_455 S
In13 O25 2.326 1_455 S
O14 In13 2.294 . S
O14 C23 1.240 . S
O15 In13 2.326 . S
O15 C23 1.252 . S
C16 O19 1.252 . S
C16 O20 1.260 . S
C17 O24 1.240 . S
C17 O25 1.252 . S
C18 O21 1.252 . S
C18 O22 1.260 . S
O19 In13 2.266 1_655 S
O19 C16 1.252 . S
O20 In13 2.326 1_655 S
O20 C16 1.260 . S
O21 In13 2.266 . S
O21 C18 1.252 . S
O22 In13 2.326 . S
O22 C18 1.260 . S
C23 O14 1.240 . S
C23 O15 1.252 . S
O24 In13 2.294 1_655 S
O24 C17 1.240 . S
O25 In13 2.326 1_655 S
O25 C17 1.252 . S
In26 O27 2.294 . S
In26 O28 2.326 . S
In26 O32 2.266 . S
In26 O33 2.326 . S
In26 O34 2.266 . S
In26 O35 2.326 . S
In26 O37 2.294 . S
In26 O38 2.326 . S
O27 In26 2.294 . S
O27 C36 1.240 . S
O28 In26 2.326 . S
O28 C36 1.252 . S
C29 O32 1.252 . S
C29 O33 1.260 . S
C30 O37 1.240 . S
C30 O38 1.252 . S
C31 O34 1.252 . S
C31 O35 1.260 . S
O32 In26 2.266 . S
O32 C29 1.252 . S
O33 In26 2.326 . S
O33 C29 1.260 . S
O34 In26 2.266 . S
O34 C31 1.252 . S
O35 In26 2.326 . S
O35 C31 1.260 . S
C36 O27 1.240 . S
C36 O28 1.252 . S
O37 In26 2.294 . S
O37 C30 1.240 . S
O38 In26 2.326 . S
O38 C30 1.252 . S
In39 O40 2.294 . S
In39 O41 2.326 . S
In39 O45 2.266 . S
In39 O46 2.326 . S
In39 O47 2.266 . S
In39 O48 2.326 . S
In39 O50 2.294 . S
In39 O51 2.326 . S
O40 In39 2.294 . S
O40 C49 1.240 . S
O41 In39 2.326 . S
O41 C49 1.252 . S
C42 O45 1.252 . S
C42 O46 1.260 . S
C43 O50 1.240 . S
C43 O51 1.252 . S
C44 O47 1.252 . S
C44 O48 1.260 . S
O45 In39 2.266 . S
O45 C42 1.252 . S
O46 In39 2.326 . S
O46 C42 1.260 . S
O47 In39 2.266 . S
O47 C44 1.252 . S
O48 In39 2.326 . S
O48 C44 1.260 . S
C49 O40 1.240 . S
C49 O41 1.252 . S
O50 In39 2.294 . S
O50 C43 1.240 . S
O51 In39 2.326 . S
O51 C43 1.252 . S
In52 O53 2.294 . S
In52 O54 2.326 . S
In52 O58 2.266 1_455 S
In52 O59 2.326 1_455 S
In52 O60 2.266 1_455 S
In52 O61 2.326 1_455 S
In52 O63 2.294 . S
In52 O64 2.326 . S
O53 In52 2.294 . S
O53 C62 1.240 . S
O54 In52 2.326 . S
O54 C62 1.252 . S
C55 O58 1.252 . S
C55 O59 1.260 . S
C56 O63 1.240 . S
C56 O64 1.252 . S
C57 O60 1.252 . S
C57 O61 1.260 . S
O58 In52 2.266 1_655 S
O58 C55 1.252 . S
O59 In52 2.326 1_655 S
O59 C55 1.260 . S
O60 In52 2.266 1_655 S
O60 C57 1.252 . S
O61 In52 2.326 1_655 S
O61 C57 1.260 . S
C62 O53 1.240 . S
C62 O54 1.252 . S
O63 In52 2.294 . S
O63 C56 1.240 . S
O64 In52 2.326 . S
O64 C56 1.252 . S
In65 O66 2.294 . S
In65 O67 2.326 . S
In65 O71 2.266 . S
In65 O72 2.326 . S
In65 O73 2.266 . S
In65 O74 2.326 . S
In65 O76 2.294 . S
In65 O77 2.326 . S
O66 In65 2.294 . S
O66 C75 1.240 . S
O67 In65 2.326 . S
O67 C75 1.252 . S
C68 O71 1.252 . S
C68 O72 1.260 . S
C69 O76 1.240 . S
C69 O77 1.252 . S
C70 O73 1.252 . S
C70 O74 1.260 . S
O71 In65 2.266 . S
O71 C68 1.252 . S
O72 In65 2.326 . S
O72 C68 1.260 . S
O73 In65 2.266 . S
O73 C70 1.252 . S
O74 In65 2.326 . S
O74 C70 1.260 . S
C75 O66 1.240 . S
C75 O67 1.252 . S
O76 In65 2.294 . S
O76 C69 1.240 . S
O77 In65 2.326 . S
O77 C69 1.252 . S
In78 O79 2.294 . S
In78 O80 2.326 . S
In78 O84 2.266 . S
In78 O85 2.326 . S
In78 O86 2.266 . S
In78 O87 2.326 . S
In78 O89 2.294 . S
In78 O90 2.326 . S
O79 In78 2.294 . S
O79 C88 1.240 . S
O80 In78 2.326 . S
O80 C88 1.252 . S
C81 O84 1.252 . S
C81 O85 1.260 . S
C82 O89 1.240 . S
C82 O90 1.252 . S
C83 O86 1.252 . S
C83 O87 1.260 . S
O84 In78 2.266 . S
O84 C81 1.252 . S
O85 In78 2.326 . S
O85 C81 1.260 . S
O86 In78 2.266 . S
O86 C83 1.252 . S
O87 In78 2.326 . S
O87 C83 1.260 . S
C88 O79 1.240 . S
C88 O80 1.252 . S
O89 In78 2.294 . S
O89 C82 1.240 . S
O90 In78 2.326 . S
O90 C82 1.252 . S
In91 O92 2.278 1_455 S
In91 O93 2.301 1_455 S
In91 O97 2.282 . S
In91 O98 2.351 . S
In91 O99 2.261 1_455 S
In91 O100 2.314 1_455 S
In91 O102 2.299 . S
In91 O103 2.337 . S
O92 In91 2.278 1_655 S
O92 C101 1.240 . S
O93 In91 2.301 1_655 S
O93 C101 1.252 . S
C94 O97 1.252 . S
C94 O98 1.260 . S
C95 O102 1.240 . S
C95 O103 1.252 . S
C96 O99 1.252 . S
C96 O100 1.260 . S
O97 In91 2.282 . S
O97 C94 1.252 . S
O98 In91 2.351 . S
O98 C94 1.260 . S
O99 In91 2.261 1_655 S
O99 C96 1.252 . S
O100 In91 2.314 1_655 S
O100 C96 1.260 . S
C101 O92 1.240 . S
C101 O93 1.252 . S
O102 In91 2.299 . S
O102 C95 1.240 . S
O103 In91 2.337 . S
O103 C95 1.252 . S
In104 O105 2.294 . S
In104 O106 2.326 . S
In104 O110 2.266 1_545 S
In104 O111 2.326 1_545 S
In104 O112 2.266 1_545 S
In104 O113 2.326 1_545 S
In104 O115 2.294 . S
In104 O116 2.326 . S
O105 In104 2.294 . S
O105 C114 1.240 . S
O106 In104 2.326 . S
O106 C114 1.252 . S
C107 O110 1.252 . S
C107 O111 1.260 . S
C108 O115 1.240 . S
C108 O116 1.252 . S
C109 O112 1.252 . S
C109 O113 1.260 . S
O110 In104 2.266 1_565 S
O110 C107 1.252 . S
O111 In104 2.326 1_565 S
O111 C107 1.260 . S
O112 In104 2.266 1_565 S
O112 C109 1.252 . S
O113 In104 2.326 1_565 S
O113 C109 1.260 . S
C114 O105 1.240 . S
C114 O106 1.252 . S
O115 In104 2.294 . S
O115 C108 1.240 . S
O116 In104 2.326 . S
O116 C108 1.252 . S
In117 O118 2.294 . S
In117 O119 2.326 . S
In117 O123 2.266 . S
In117 O124 2.326 . S
In117 O125 2.266 . S
In117 O126 2.326 . S
In117 O128 2.294 . S
In117 O129 2.326 . S
O118 In117 2.294 . S
O118 C127 1.240 . S
O119 In117 2.326 . S
O119 C127 1.252 . S
C120 O123 1.252 . S
C120 O124 1.260 . S
C121 O128 1.240 . S
C121 O129 1.252 . S
C122 O125 1.252 . S
C122 O126 1.260 . S
O123 In117 2.266 . S
O123 C120 1.252 . S
O124 In117 2.326 . S
O124 C120 1.260 . S
O125 In117 2.266 . S
O125 C122 1.252 . S
O126 In117 2.326 . S
O126 C122 1.260 . S
C127 O118 1.240 . S
C127 O119 1.252 . S
O128 In117 2.294 . S
O128 C121 1.240 . S
O129 In117 2.326 . S
O129 C121 1.252 . S
In130 O131 2.294 . S
In130 O132 2.326 . S
In130 O136 2.266 1_545 S
In130 O137 2.326 1_545 S
In130 O138 2.266 1_545 S
In130 O139 2.326 1_545 S
In130 O141 2.294 . S
In130 O142 2.326 . S
O131 In130 2.294 . S
O131 C140 1.240 . S
O132 In130 2.326 . S
O132 C140 1.252 . S
C133 O136 1.252 . S
C133 O137 1.260 . S
C134 O141 1.240 . S
C134 O142 1.252 . S
C135 O138 1.252 . S
C135 O139 1.260 . S
O136 In130 2.266 1_565 S
O136 C133 1.252 . S
O137 In130 2.326 1_565 S
O137 C133 1.260 . S
O138 In130 2.266 1_565 S
O138 C135 1.252 . S
O139 In130 2.326 1_565 S
O139 C135 1.260 . S
C140 O131 1.240 . S
C140 O132 1.252 . S
O141 In130 2.294 . S
O141 C134 1.240 . S
O142 In130 2.326 . S
O142 C134 1.252 . S
In143 O144 2.299 . S
In143 O145 2.337 . S
In143 O149 2.261 1_554 S
In143 O150 2.314 1_554 S
In143 O151 2.282 . S
In143 O152 2.351 . S
In143 O154 2.278 1_554 S
In143 O155 2.301 1_554 S
O144 In143 2.299 . S
O144 C153 1.240 . S
O145 In143 2.337 . S
O145 C153 1.252 . S
C146 O149 1.252 . S
C146 O150 1.260 . S
C147 O154 1.240 . S
C147 O155 1.252 . S
C148 O151 1.252 . S
C148 O152 1.260 . S
O149 In143 2.261 1_556 S
O149 C146 1.252 . S
O150 In143 2.314 1_556 S
O150 C146 1.260 . S
O151 In143 2.282 . S
O151 C148 1.252 . S
O152 In143 2.351 . S
O152 C148 1.260 . S
C153 O144 1.240 . S
C153 O145 1.252 . S
O154 In143 2.278 1_556 S
O154 C147 1.240 . S
O155 In143 2.301 1_556 S
O155 C147 1.252 . S
In156 O157 2.294 . S
In156 O158 2.326 . S
In156 O162 2.266 1_554 S
In156 O163 2.326 1_554 S
In156 O164 2.266 1_554 S
In156 O165 2.326 1_554 S
In156 O167 2.294 . S
In156 O168 2.326 . S
O157 In156 2.294 . S
O157 C166 1.240 . S
O158 In156 2.326 . S
O158 C166 1.252 . S
C159 O162 1.252 . S
C159 O163 1.260 . S
C160 O167 1.240 . S
C160 O168 1.252 . S
C161 O164 1.252 . S
C161 O165 1.260 . S
O162 In156 2.266 1_556 S
O162 C159 1.252 . S
O163 In156 2.326 1_556 S
O163 C159 1.260 . S
O164 In156 2.266 1_556 S
O164 C161 1.252 . S
O165 In156 2.326 1_556 S
O165 C161 1.260 . S
C166 O157 1.240 . S
C166 O158 1.252 . S
O167 In156 2.294 . S
O167 C160 1.240 . S
O168 In156 2.326 . S
O168 C160 1.252 . S
In169 O170 2.294 . S
In169 O171 2.326 . S
In169 O175 2.266 1_554 S
In169 O176 2.326 1_554 S
In169 O177 2.266 1_554 S
In169 O178 2.326 1_554 S
In169 O180 2.294 . S
In169 O181 2.326 . S
O170 In169 2.294 . S
O170 C179 1.240 . S
O171 In169 2.326 . S
O171 C179 1.252 . S
C172 O175 1.252 . S
C172 O176 1.260 . S
C173 O180 1.240 . S
C173 O181 1.252 . S
C174 O177 1.252 . S
C174 O178 1.260 . S
O175 In169 2.266 1_556 S
O175 C172 1.252 . S
O176 In169 2.326 1_556 S
O176 C172 1.260 . S
O177 In169 2.266 1_556 S
O177 C174 1.252 . S
O178 In169 2.326 1_556 S
O178 C174 1.260 . S
C179 O170 1.240 . S
C179 O171 1.252 . S
O180 In169 2.294 . S
O180 C173 1.240 . S
O181 In169 2.326 . S
O181 C173 1.252 . S
In182 O183 2.294 . S
In182 O184 2.326 . S
In182 O188 2.266 . S
In182 O189 2.326 . S
In182 O190 2.266 . S
In182 O191 2.326 . S
In182 O193 2.294 . S
In182 O194 2.326 . S
O183 In182 2.294 . S
O183 C192 1.240 . S
O184 In182 2.326 . S
O184 C192 1.252 . S
C185 O188 1.252 . S
C185 O189 1.260 . S
C186 O193 1.240 . S
C186 O194 1.252 . S
C187 O190 1.252 . S
C187 O191 1.260 . S
O188 In182 2.266 . S
O188 C185 1.252 . S
O189 In182 2.326 . S
O189 C185 1.260 . S
O190 In182 2.266 . S
O190 C187 1.252 . S
O191 In182 2.326 . S
O191 C187 1.260 . S
C192 O183 1.240 . S
C192 O184 1.252 . S
O193 In182 2.294 . S
O193 C186 1.240 . S
O194 In182 2.326 . S
O194 C186 1.252 . S
In195 O196 2.294 . S
In195 O197 2.326 . S
In195 O201 2.266 . S
In195 O202 2.326 . S
In195 O203 2.266 . S
In195 O204 2.326 . S
In195 O206 2.294 . S
In195 O207 2.326 . S
O196 In195 2.294 . S
O196 C205 1.240 . S
O197 In195 2.326 . S
O197 C205 1.252 . S
C198 O201 1.252 . S
C198 O202 1.260 . S
C199 O206 1.240 . S
C199 O207 1.252 . S
C200 O203 1.252 . S
C200 O204 1.260 . S
O201 In195 2.266 . S
O201 C198 1.252 . S
O202 In195 2.326 . S
O202 C198 1.260 . S
O203 In195 2.266 . S
O203 C200 1.252 . S
O204 In195 2.326 . S
O204 C200 1.260 . S
C205 O196 1.240 . S
C205 O197 1.252 . S
O206 In195 2.294 . S
O206 C199 1.240 . S
O207 In195 2.326 . S
O207 C199 1.252 . S
In208 O209 2.299 . S
In208 O210 2.337 . S
In208 O214 2.261 1_545 S
In208 O215 2.314 1_545 S
In208 O216 2.282 . S
In208 O217 2.351 . S
In208 O219 2.278 1_545 S
In208 O220 2.301 1_545 S
O209 In208 2.299 . S
O209 C218 1.240 . S
O210 In208 2.337 . S
O210 C218 1.252 . S
C211 O214 1.252 . S
C211 O215 1.260 . S
C212 O219 1.240 . S
C212 O220 1.252 . S
C213 O216 1.252 . S
C213 O217 1.260 . S
O214 In208 2.261 1_565 S
O214 C211 1.252 . S
O215 In208 2.314 1_565 S
O215 C211 1.260 . S
O216 In208 2.282 . S
O216 C213 1.252 . S
O217 In208 2.351 . S
O217 C213 1.260 . S
C218 O209 1.240 . S
C218 O210 1.252 . S
O219 In208 2.278 1_565 S
O219 C212 1.240 . S
O220 In208 2.301 1_565 S
O220 C212 1.252 . S
In221 O222 2.294 . S
In221 O223 2.326 . S
In221 O227 2.266 . S
In221 O228 2.326 . S
In221 O229 2.266 . S
In221 O230 2.326 . S
In221 O232 2.294 . S
In221 O233 2.326 . S
O222 In221 2.294 . S
O222 C231 1.240 . S
O223 In221 2.326 . S
O223 C231 1.252 . S
C224 O227 1.252 . S
C224 O228 1.260 . S
C225 O232 1.240 . S
C225 O233 1.252 . S
C226 O229 1.252 . S
C226 O230 1.260 . S
O227 In221 2.266 . S
O227 C224 1.252 . S
O228 In221 2.326 . S
O228 C224 1.260 . S
O229 In221 2.266 . S
O229 C226 1.252 . S
O230 In221 2.326 . S
O230 C226 1.260 . S
C231 O222 1.240 . S
C231 O223 1.252 . S
O232 In221 2.294 . S
O232 C225 1.240 . S
O233 In221 2.326 . S
O233 C225 1.252 . S
In234 O235 2.294 . S
In234 O236 2.326 . S
In234 O240 2.266 . S
In234 O241 2.326 . S
In234 O242 2.266 . S
In234 O243 2.326 . S
In234 O245 2.294 . S
In234 O246 2.326 . S
O235 In234 2.294 . S
O235 C244 1.240 . S
O236 In234 2.326 . S
O236 C244 1.252 . S
C237 O240 1.252 . S
C237 O241 1.260 . S
C238 O245 1.240 . S
C238 O246 1.252 . S
C239 O242 1.252 . S
C239 O243 1.260 . S
O240 In234 2.266 . S
O240 C237 1.252 . S
O241 In234 2.326 . S
O241 C237 1.260 . S
O242 In234 2.266 . S
O242 C239 1.252 . S
O243 In234 2.326 . S
O243 C239 1.260 . S
C244 O235 1.240 . S
C244 O236 1.252 . S
O245 In234 2.294 . S
O245 C238 1.240 . S
O246 In234 2.326 . S
O246 C238 1.252 . S
In247 O248 2.294 1_545 S
In247 O249 2.326 1_545 S
In247 O253 2.266 . S
In247 O254 2.326 . S
In247 O255 2.266 1_545 S
In247 O256 2.326 1_545 S
In247 O258 2.294 . S
In247 O259 2.326 . S
O248 In247 2.294 1_565 S
O248 C257 1.240 . S
O249 In247 2.326 1_565 S
O249 C257 1.252 . S
C250 O253 1.252 . S
C250 O254 1.260 . S
C251 O258 1.240 . S
C251 O259 1.252 . S
C252 O255 1.252 . S
C252 O256 1.260 . S
O253 In247 2.266 . S
O253 C250 1.252 . S
O254 In247 2.326 . S
O254 C250 1.260 . S
O255 In247 2.266 1_565 S
O255 C252 1.252 . S
O256 In247 2.326 1_565 S
O256 C252 1.260 . S
C257 O248 1.240 . S
C257 O249 1.252 . S
O258 In247 2.294 . S
O258 C251 1.240 . S
O259 In247 2.326 . S
O259 C251 1.252 . S
In260 O261 2.294 . S
In260 O262 2.326 . S
In260 O266 2.266 1_554 S
In260 O267 2.326 1_554 S
In260 O268 2.266 . S
In260 O269 2.326 . S
In260 O271 2.294 1_554 S
In260 O272 2.326 1_554 S
O261 In260 2.294 . S
O261 C270 1.240 . S
O262 In260 2.326 . S
O262 C270 1.252 . S
C263 O266 1.252 . S
C263 O267 1.260 . S
C264 O271 1.240 . S
C264 O272 1.252 . S
C265 O268 1.252 . S
C265 O269 1.260 . S
O266 In260 2.266 1_556 S
O266 C263 1.252 . S
O267 In260 2.326 1_556 S
O267 C263 1.260 . S
O268 In260 2.266 . S
O268 C265 1.252 . S
O269 In260 2.326 . S
O269 C265 1.260 . S
C270 O261 1.240 . S
C270 O262 1.252 . S
O271 In260 2.294 1_556 S
O271 C264 1.240 . S
O272 In260 2.326 1_556 S
O272 C264 1.252 . S
In273 O274 2.294 . S
In273 O275 2.326 . S
In273 O279 2.266 . S
In273 O280 2.326 . S
In273 O281 2.266 . S
In273 O282 2.326 . S
In273 O284 2.294 . S
In273 O285 2.326 . S
O274 In273 2.294 . S
O274 C283 1.240 . S
O275 In273 2.326 . S
O275 C283 1.252 . S
C276 O279 1.252 . S
C276 O280 1.260 . S
C277 O284 1.240 . S
C277 O285 1.252 . S
C278 O281 1.252 . S
C278 O282 1.260 . S
O279 In273 2.266 . S
O279 C276 1.252 . S
O280 In273 2.326 . S
O280 C276 1.260 . S
O281 In273 2.266 . S
O281 C278 1.252 . S
O282 In273 2.326 . S
O282 C278 1.260 . S
C283 O274 1.240 . S
C283 O275 1.252 . S
O284 In273 2.294 . S
O284 C277 1.240 . S
O285 In273 2.326 . S
O285 C277 1.252 . S
In286 O287 2.294 . S
In286 O288 2.326 . S
In286 O292 2.266 . S
In286 O293 2.326 . S
In286 O294 2.266 . S
In286 O295 2.326 . S
In286 O297 2.294 . S
In286 O298 2.326 . S
O287 In286 2.294 . S
O287 C296 1.240 . S
O288 In286 2.326 . S
O288 C296 1.252 . S
C289 O292 1.252 . S
C289 O293 1.260 . S
C290 O297 1.240 . S
C290 O298 1.252 . S
C291 O294 1.252 . S
C291 O295 1.260 . S
O292 In286 2.266 . S
O292 C289 1.252 . S
O293 In286 2.326 . S
O293 C289 1.260 . S
O294 In286 2.266 . S
O294 C291 1.252 . S
O295 In286 2.326 . S
O295 C291 1.260 . S
C296 O287 1.240 . S
C296 O288 1.252 . S
O297 In286 2.294 . S
O297 C290 1.240 . S
O298 In286 2.326 . S
O298 C290 1.252 . S
In299 O300 2.294 . S
In299 O301 2.326 . S
In299 O305 2.266 . S
In299 O306 2.326 . S
In299 O307 2.266 . S
In299 O308 2.326 . S
In299 O310 2.294 . S
In299 O311 2.326 . S
O300 In299 2.294 . S
O300 C309 1.240 . S
O301 In299 2.326 . S
O301 C309 1.252 . S
C302 O305 1.252 . S
C302 O306 1.260 . S
C303 O310 1.240 . S
C303 O311 1.252 . S
C304 O307 1.252 . S
C304 O308 1.260 . S
O305 In299 2.266 . S
O305 C302 1.252 . S
O306 In299 2.326 . S
O306 C302 1.260 . S
O307 In299 2.266 . S
O307 C304 1.252 . S
O308 In299 2.326 . S
O308 C304 1.260 . S
C309 O300 1.240 . S
C309 O301 1.252 . S
O310 In299 2.294 . S
O310 C303 1.240 . S
O311 In299 2.326 . S
O311 C303 1.252 . S
C312 C313 1.391 . S
C312 C314 1.394 . S
C312 H328 0.931 . S
C313 C312 1.391 . S
C313 C317 1.376 . S
C314 C312 1.394 . S
C314 C315 1.369 . S
C314 C318 1.531 . S
C315 C314 1.369 . S
C315 C316 1.410 . S
C315 C323 1.503 . S
C316 C315 1.410 . S
C316 C317 1.392 . S
C316 C319 1.511 . S
C317 C313 1.376 . S
C317 C316 1.392 . S
C317 H329 0.929 . S
C318 C314 1.531 . S
C318 H330 0.960 . S
C318 H331 0.962 . S
C318 H332 0.960 . S
C319 C316 1.511 . S
C319 H333 0.961 . S
C319 H334 0.961 . S
C319 H335 0.961 . S
C320 C321 1.370 . S
C320 C322 1.363 . S
C320 H336 0.931 . S
C321 C320 1.370 . S
C321 C325 1.408 . S
C322 C320 1.363 . S
C322 C323 1.370 . S
C322 C326 1.524 . S
C323 C315 1.503 . S
C323 C322 1.370 . S
C323 C324 1.403 . S
C324 C323 1.403 . S
C324 C325 1.404 . S
C324 C327 1.539 . S
C325 C321 1.408 . S
C325 C324 1.404 . S
C325 H337 0.930 . S
C326 C322 1.524 . S
C326 H338 0.956 . S
C326 H339 0.961 . S
C326 H340 0.961 . S
C327 C324 1.539 . S
C327 H341 0.958 . S
C327 H342 0.961 . S
C327 H343 0.960 . S
H328 C312 0.931 . S
H329 C317 0.929 . S
H330 C318 0.960 . S
H331 C318 0.962 . S
H332 C318 0.960 . S
H333 C319 0.961 . S
H334 C319 0.961 . S
H335 C319 0.961 . S
H336 C320 0.931 . S
H337 C325 0.930 . S
H338 C326 0.956 . S
H339 C326 0.961 . S
H340 C326 0.961 . S
H341 C327 0.958 . S
H342 C327 0.961 . S
H343 C327 0.960 . S
C344 C345 1.391 . S
C344 C346 1.394 . S
C344 H360 0.931 . S
C345 C344 1.391 . S
C345 C349 1.376 . S
C346 C344 1.394 . S
C346 C347 1.369 . S
C346 C350 1.531 . S
C347 C346 1.369 . S
C347 C348 1.410 . S
C347 C355 1.503 . S
C348 C347 1.410 . S
C348 C349 1.392 . S
C348 C351 1.511 . S
C349 C345 1.376 . S
C349 C348 1.392 . S
C349 H361 0.929 . S
C350 C346 1.531 . S
C350 H362 0.960 . S
C350 H363 0.962 . S
C350 H364 0.960 . S
C351 C348 1.511 . S
C351 H365 0.961 . S
C351 H366 0.961 . S
C351 H367 0.961 . S
C352 C353 1.370 . S
C352 C354 1.363 . S
C352 H368 0.931 . S
C353 C352 1.370 . S
C353 C357 1.408 . S
C354 C352 1.363 . S
C354 C355 1.370 . S
C354 C358 1.524 . S
C355 C347 1.503 . S
C355 C354 1.370 . S
C355 C356 1.403 . S
C356 C355 1.403 . S
C356 C357 1.404 . S
C356 C359 1.539 . S
C357 C353 1.408 . S
C357 C356 1.404 . S
C357 H369 0.930 . S
C358 C354 1.524 . S
C358 H370 0.956 . S
C358 H371 0.961 . S
C358 H372 0.961 . S
C359 C356 1.539 . S
C359 H373 0.958 . S
C359 H374 0.961 . S
C359 H375 0.960 . S
H360 C344 0.931 . S
H361 C349 0.929 . S
H362 C350 0.960 . S
H363 C350 0.962 . S
H364 C350 0.960 . S
H365 C351 0.961 . S
H366 C351 0.961 . S
H367 C351 0.961 . S
H368 C352 0.931 . S
H369 C357 0.930 . S
H370 C358 0.956 . S
H371 C358 0.961 . S
H372 C358 0.961 . S
H373 C359 0.958 . S
H374 C359 0.961 . S
H375 C359 0.960 . S
C376 C377 1.391 . S
C376 C378 1.394 . S
C376 H392 0.931 . S
C377 C376 1.391 . S
C377 C381 1.376 . S
C378 C376 1.394 . S
C378 C379 1.369 . S
C378 C382 1.531 . S
C379 C378 1.369 . S
C379 C380 1.410 . S
C379 C387 1.503 . S
C380 C379 1.410 . S
C380 C381 1.392 . S
C380 C383 1.511 . S
C381 C377 1.376 . S
C381 C380 1.392 . S
C381 H393 0.929 . S
C382 C378 1.531 . S
C382 H394 0.960 . S
C382 H395 0.962 . S
C382 H396 0.960 . S
C383 C380 1.511 . S
C383 H397 0.961 . S
C383 H398 0.961 . S
C383 H399 0.961 . S
C384 C385 1.370 . S
C384 C386 1.363 . S
C384 H400 0.931 . S
C385 C384 1.370 . S
C385 C389 1.408 . S
C386 C384 1.363 . S
C386 C387 1.370 . S
C386 C390 1.524 . S
C387 C379 1.503 . S
C387 C386 1.370 . S
C387 C388 1.403 . S
C388 C387 1.403 . S
C388 C389 1.404 . S
C388 C391 1.539 . S
C389 C385 1.408 . S
C389 C388 1.404 . S
C389 H401 0.930 . S
C390 C386 1.524 . S
C390 H402 0.956 . S
C390 H403 0.961 . S
C390 H404 0.961 . S
C391 C388 1.539 . S
C391 H405 0.958 . S
C391 H406 0.961 . S
C391 H407 0.960 . S
H392 C376 0.931 . S
H393 C381 0.929 . S
H394 C382 0.960 . S
H395 C382 0.962 . S
H396 C382 0.960 . S
H397 C383 0.961 . S
H398 C383 0.961 . S
H399 C383 0.961 . S
H400 C384 0.931 . S
H401 C389 0.930 . S
H402 C390 0.956 . S
H403 C390 0.961 . S
H404 C390 0.961 . S
H405 C391 0.958 . S
H406 C391 0.961 . S
H407 C391 0.960 . S
C408 C409 1.391 . S
C408 C410 1.394 . S
C408 H424 0.931 . S
C409 C408 1.391 . S
C409 C413 1.376 . S
C410 C408 1.394 . S
C410 C411 1.369 . S
C410 C414 1.531 . S
C411 C410 1.369 . S
C411 C412 1.410 . S
C411 C419 1.503 . S
C412 C411 1.410 . S
C412 C413 1.392 . S
C412 C415 1.511 . S
C413 C409 1.376 . S
C413 C412 1.392 . S
C413 H425 0.929 . S
C414 C410 1.531 . S
C414 H426 0.960 . S
C414 H427 0.962 . S
C414 H428 0.960 . S
C415 C412 1.511 . S
C415 H429 0.961 . S
C415 H430 0.961 . S
C415 H431 0.961 . S
C416 C417 1.370 . S
C416 C418 1.363 . S
C416 H432 0.931 . S
C417 C416 1.370 . S
C417 C421 1.408 . S
C418 C416 1.363 . S
C418 C419 1.370 . S
C418 C422 1.524 . S
C419 C411 1.503 . S
C419 C418 1.370 . S
C419 C420 1.403 . S
C420 C419 1.403 . S
C420 C421 1.404 . S
C420 C423 1.539 . S
C421 C417 1.408 . S
C421 C420 1.404 . S
C421 H433 0.930 . S
C422 C418 1.524 . S
C422 H434 0.956 . S
C422 H435 0.961 . S
C422 H436 0.961 . S
C423 C420 1.539 . S
C423 H437 0.958 . S
C423 H438 0.961 . S
C423 H439 0.960 . S
H424 C408 0.931 . S
H425 C413 0.929 . S
H426 C414 0.960 . S
H427 C414 0.962 . S
H428 C414 0.960 . S
H429 C415 0.961 . S
H430 C415 0.961 . S
H431 C415 0.961 . S
H432 C416 0.931 . S
H433 C421 0.930 . S
H434 C422 0.956 . S
H435 C422 0.961 . S
H436 C422 0.961 . S
H437 C423 0.958 . S
H438 C423 0.961 . S
H439 C423 0.960 . S
C440 C441 1.391 . S
C440 C442 1.394 . S
C440 H456 0.931 . S
C441 C440 1.391 . S
C441 C445 1.376 . S
C442 C440 1.394 . S
C442 C443 1.369 . S
C442 C446 1.531 . S
C443 C442 1.369 . S
C443 C444 1.410 . S
C443 C451 1.503 . S
C444 C443 1.410 . S
C444 C445 1.392 . S
C444 C447 1.511 . S
C445 C441 1.376 . S
C445 C444 1.392 . S
C445 H457 0.929 . S
C446 C442 1.531 . S
C446 H458 0.960 . S
C446 H459 0.962 . S
C446 H460 0.960 . S
C447 C444 1.511 . S
C447 H461 0.961 . S
C447 H462 0.961 . S
C447 H463 0.961 . S
C448 C449 1.370 . S
C448 C450 1.363 . S
C448 H464 0.931 . S
C449 C448 1.370 . S
C449 C453 1.408 . S
C450 C448 1.363 . S
C450 C451 1.370 . S
C450 C454 1.524 . S
C451 C443 1.503 . S
C451 C450 1.370 . S
C451 C452 1.403 . S
C452 C451 1.403 . S
C452 C453 1.404 . S
C452 C455 1.539 . S
C453 C449 1.408 . S
C453 C452 1.404 . S
C453 H465 0.930 . S
C454 C450 1.524 . S
C454 H466 0.956 . S
C454 H467 0.961 . S
C454 H468 0.961 . S
C455 C452 1.539 . S
C455 H469 0.958 . S
C455 H470 0.961 . S
C455 H471 0.960 . S
H456 C440 0.931 . S
H457 C445 0.929 . S
H458 C446 0.960 . S
H459 C446 0.962 . S
H460 C446 0.960 . S
H461 C447 0.961 . S
H462 C447 0.961 . S
H463 C447 0.961 . S
H464 C448 0.931 . S
H465 C453 0.930 . S
H466 C454 0.956 . S
H467 C454 0.961 . S
H468 C454 0.961 . S
H469 C455 0.958 . S
H470 C455 0.961 . S
H471 C455 0.960 . S
C472 C473 1.391 . S
C472 C474 1.394 . S
C472 H488 0.931 . S
C473 C472 1.391 . S
C473 C477 1.376 . S
C474 C472 1.394 . S
C474 C475 1.369 . S
C474 C478 1.531 . S
C475 C474 1.369 . S
C475 C476 1.410 . S
C475 C483 1.503 . S
C476 C475 1.410 . S
C476 C477 1.392 . S
C476 C479 1.511 . S
C477 C473 1.376 . S
C477 C476 1.392 . S
C477 H489 0.929 . S
C478 C474 1.531 . S
C478 H490 0.960 . S
C478 H491 0.962 . S
C478 H492 0.960 . S
C479 C476 1.511 . S
C479 H493 0.961 . S
C479 H494 0.961 . S
C479 H495 0.961 . S
C480 C481 1.370 . S
C480 C482 1.363 . S
C480 H496 0.931 . S
C481 C480 1.370 . S
C481 C485 1.408 . S
C482 C480 1.363 . S
C482 C483 1.370 . S
C482 C486 1.524 . S
C483 C475 1.503 . S
C483 C482 1.370 . S
C483 C484 1.403 . S
C484 C483 1.403 . S
C484 C485 1.404 . S
C484 C487 1.539 . S
C485 C481 1.408 . S
C485 C484 1.404 . S
C485 H497 0.930 . S
C486 C482 1.524 . S
C486 H498 0.956 . S
C486 H499 0.961 . S
C486 H500 0.961 . S
C487 C484 1.539 . S
C487 H501 0.958 . S
C487 H502 0.961 . S
C487 H503 0.960 . S
H488 C472 0.931 . S
H489 C477 0.929 . S
H490 C478 0.960 . S
H491 C478 0.962 . S
H492 C478 0.960 . S
H493 C479 0.961 . S
H494 C479 0.961 . S
H495 C479 0.961 . S
H496 C480 0.931 . S
H497 C485 0.930 . S
H498 C486 0.956 . S
H499 C486 0.961 . S
H500 C486 0.961 . S
H501 C487 0.958 . S
H502 C487 0.961 . S
H503 C487 0.960 . S
C504 C505 1.391 . S
C504 C506 1.394 . S
C504 H520 0.931 . S
C505 C504 1.391 . S
C505 C509 1.376 . S
C506 C504 1.394 . S
C506 C507 1.369 . S
C506 C510 1.531 . S
C507 C506 1.369 . S
C507 C508 1.410 . S
C507 C515 1.503 . S
C508 C507 1.410 . S
C508 C509 1.392 . S
C508 C511 1.511 . S
C509 C505 1.376 . S
C509 C508 1.392 . S
C509 H521 0.929 . S
C510 C506 1.531 . S
C510 H522 0.960 . S
C510 H523 0.962 . S
C510 H524 0.960 . S
C511 C508 1.511 . S
C511 H525 0.961 . S
C511 H526 0.961 . S
C511 H527 0.961 . S
C512 C513 1.370 . S
C512 C514 1.363 . S
C512 H528 0.931 . S
C513 C512 1.370 . S
C513 C517 1.408 . S
C514 C512 1.363 . S
C514 C515 1.370 . S
C514 C518 1.524 . S
C515 C507 1.503 . S
C515 C514 1.370 . S
C515 C516 1.403 . S
C516 C515 1.403 . S
C516 C517 1.404 . S
C516 C519 1.539 . S
C517 C513 1.408 . S
C517 C516 1.404 . S
C517 H529 0.930 . S
C518 C514 1.524 . S
C518 H530 0.956 . S
C518 H531 0.961 . S
C518 H532 0.961 . S
C519 C516 1.539 . S
C519 H533 0.958 . S
C519 H534 0.961 . S
C519 H535 0.960 . S
H520 C504 0.931 . S
H521 C509 0.929 . S
H522 C510 0.960 . S
H523 C510 0.962 . S
H524 C510 0.960 . S
H525 C511 0.961 . S
H526 C511 0.961 . S
H527 C511 0.961 . S
H528 C512 0.931 . S
H529 C517 0.930 . S
H530 C518 0.956 . S
H531 C518 0.961 . S
H532 C518 0.961 . S
H533 C519 0.958 . S
H534 C519 0.961 . S
H535 C519 0.960 . S
C536 C537 1.391 . S
C536 C538 1.394 . S
C536 H552 0.931 . S
C537 C536 1.391 . S
C537 C541 1.376 . S
C538 C536 1.394 . S
C538 C539 1.369 . S
C538 C542 1.531 . S
C539 C538 1.369 . S
C539 C540 1.410 . S
C539 C547 1.503 . S
C540 C539 1.410 . S
C540 C541 1.392 . S
C540 C543 1.511 . S
C541 C537 1.376 . S
C541 C540 1.392 . S
C541 H553 0.929 . S
C542 C538 1.531 . S
C542 H554 0.960 . S
C542 H555 0.962 . S
C542 H556 0.960 . S
C543 C540 1.511 . S
C543 H557 0.961 . S
C543 H558 0.961 . S
C543 H559 0.961 . S
C544 C545 1.370 . S
C544 C546 1.363 . S
C544 H560 0.931 . S
C545 C544 1.370 . S
C545 C549 1.408 . S
C546 C544 1.363 . S
C546 C547 1.370 . S
C546 C550 1.524 . S
C547 C539 1.503 . S
C547 C546 1.370 . S
C547 C548 1.403 . S
C548 C547 1.403 . S
C548 C549 1.404 . S
C548 C551 1.539 . S
C549 C545 1.408 . S
C549 C548 1.404 . S
C549 H561 0.930 . S
C550 C546 1.524 . S
C550 H562 0.956 . S
C550 H563 0.961 . S
C550 H564 0.961 . S
C551 C548 1.539 . S
C551 H565 0.958 . S
C551 H566 0.961 . S
C551 H567 0.960 . S
H552 C536 0.931 . S
H553 C541 0.929 . S
H554 C542 0.960 . S
H555 C542 0.962 . S
H556 C542 0.960 . S
H557 C543 0.961 . S
H558 C543 0.961 . S
H559 C543 0.961 . S
H560 C544 0.931 . S
H561 C549 0.930 . S
H562 C550 0.956 . S
H563 C550 0.961 . S
H564 C550 0.961 . S
H565 C551 0.958 . S
H566 C551 0.961 . S
H567 C551 0.960 . S
C568 C569 1.391 . S
C568 C570 1.394 . S
C568 H584 0.931 . S
C569 C568 1.391 . S
C569 C573 1.376 . S
C570 C568 1.394 . S
C570 C571 1.369 . S
C570 C574 1.531 . S
C571 C570 1.369 . S
C571 C572 1.410 . S
C571 C579 1.503 . S
C572 C571 1.410 . S
C572 C573 1.392 . S
C572 C575 1.511 . S
C573 C569 1.376 . S
C573 C572 1.392 . S
C573 H585 0.929 . S
C574 C570 1.531 . S
C574 H586 0.960 . S
C574 H587 0.962 . S
C574 H588 0.960 . S
C575 C572 1.511 . S
C575 H589 0.961 . S
C575 H590 0.961 . S
C575 H591 0.961 . S
C576 C577 1.370 . S
C576 C578 1.363 . S
C576 H592 0.931 . S
C577 C576 1.370 . S
C577 C581 1.408 . S
C578 C576 1.363 . S
C578 C579 1.370 . S
C578 C582 1.524 . S
C579 C571 1.503 . S
C579 C578 1.370 . S
C579 C580 1.403 . S
C580 C579 1.403 . S
C580 C581 1.404 . S
C580 C583 1.539 . S
C581 C577 1.408 . S
C581 C580 1.404 . S
C581 H593 0.930 . S
C582 C578 1.524 . S
C582 H594 0.956 . S
C582 H595 0.961 . S
C582 H596 0.961 . S
C583 C580 1.539 . S
C583 H597 0.958 . S
C583 H598 0.961 . S
C583 H599 0.960 . S
H584 C568 0.931 . S
H585 C573 0.929 . S
H586 C574 0.960 . S
H587 C574 0.962 . S
H588 C574 0.960 . S
H589 C575 0.961 . S
H590 C575 0.961 . S
H591 C575 0.961 . S
H592 C576 0.931 . S
H593 C581 0.930 . S
H594 C582 0.956 . S
H595 C582 0.961 . S
H596 C582 0.961 . S
H597 C583 0.958 . S
H598 C583 0.961 . S
H599 C583 0.960 . S
C600 C601 1.391 . S
C600 C602 1.394 . S
C600 H616 0.931 . S
C601 C600 1.391 . S
C601 C605 1.376 . S
C602 C600 1.394 . S
C602 C603 1.369 . S
C602 C606 1.531 . S
C603 C602 1.369 . S
C603 C604 1.410 . S
C603 C611 1.503 . S
C604 C603 1.410 . S
C604 C605 1.392 . S
C604 C607 1.511 . S
C605 C601 1.376 . S
C605 C604 1.392 . S
C605 H617 0.929 . S
C606 C602 1.531 . S
C606 H618 0.960 . S
C606 H619 0.962 . S
C606 H620 0.960 . S
C607 C604 1.511 . S
C607 H621 0.961 . S
C607 H622 0.961 . S
C607 H623 0.961 . S
C608 C609 1.370 . S
C608 C610 1.363 . S
C608 H624 0.931 . S
C609 C608 1.370 . S
C609 C613 1.408 . S
C610 C608 1.363 . S
C610 C611 1.370 . S
C610 C614 1.524 . S
C611 C603 1.503 . S
C611 C610 1.370 . S
C611 C612 1.403 . S
C612 C611 1.403 . S
C612 C613 1.404 . S
C612 C615 1.539 . S
C613 C609 1.408 . S
C613 C612 1.404 . S
C613 H625 0.930 . S
C614 C610 1.524 . S
C614 H626 0.956 . S
C614 H627 0.961 . S
C614 H628 0.961 . S
C615 C612 1.539 . S
C615 H629 0.958 . S
C615 H630 0.961 . S
C615 H631 0.960 . S
H616 C600 0.931 . S
H617 C605 0.929 . S
H618 C606 0.960 . S
H619 C606 0.962 . S
H620 C606 0.960 . S
H621 C607 0.961 . S
H622 C607 0.961 . S
H623 C607 0.961 . S
H624 C608 0.931 . S
H625 C613 0.930 . S
H626 C614 0.956 . S
H627 C614 0.961 . S
H628 C614 0.961 . S
H629 C615 0.958 . S
H630 C615 0.961 . S
H631 C615 0.960 . S
C632 C633 1.391 . S
C632 C634 1.394 . S
C632 H648 0.931 . S
C633 C632 1.391 . S
C633 C637 1.376 . S
C634 C632 1.394 . S
C634 C635 1.369 . S
C634 C638 1.531 . S
C635 C634 1.369 . S
C635 C636 1.410 . S
C635 C643 1.503 . S
C636 C635 1.410 . S
C636 C637 1.392 . S
C636 C639 1.511 . S
C637 C633 1.376 . S
C637 C636 1.392 . S
C637 H649 0.929 . S
C638 C634 1.531 . S
C638 H650 0.960 . S
C638 H651 0.962 . S
C638 H652 0.960 . S
C639 C636 1.511 . S
C639 H653 0.961 . S
C639 H654 0.961 . S
C639 H655 0.961 . S
C640 C641 1.370 . S
C640 C642 1.363 . S
C640 H656 0.931 . S
C641 C640 1.370 . S
C641 C645 1.408 . S
C642 C640 1.363 . S
C642 C643 1.370 . S
C642 C646 1.524 . S
C643 C635 1.503 . S
C643 C642 1.370 . S
C643 C644 1.403 . S
C644 C643 1.403 . S
C644 C645 1.404 . S
C644 C647 1.539 . S
C645 C641 1.408 . S
C645 C644 1.404 . S
C645 H657 0.930 . S
C646 C642 1.524 . S
C646 H658 0.956 . S
C646 H659 0.961 . S
C646 H660 0.961 . S
C647 C644 1.539 . S
C647 H661 0.958 . S
C647 H662 0.961 . S
C647 H663 0.960 . S
H648 C632 0.931 . S
H649 C637 0.929 . S
H650 C638 0.960 . S
H651 C638 0.962 . S
H652 C638 0.960 . S
H653 C639 0.961 . S
H654 C639 0.961 . S
H655 C639 0.961 . S
H656 C640 0.931 . S
H657 C645 0.930 . S
H658 C646 0.956 . S
H659 C646 0.961 . S
H660 C646 0.961 . S
H661 C647 0.958 . S
H662 C647 0.961 . S
H663 C647 0.960 . S
C664 C665 1.391 . S
C664 C666 1.394 . S
C664 H680 0.931 . S
C665 C664 1.391 . S
C665 C669 1.376 . S
C666 C664 1.394 . S
C666 C667 1.369 . S
C666 C670 1.531 . S
C667 C666 1.369 . S
C667 C668 1.410 . S
C667 C675 1.503 . S
C668 C667 1.410 . S
C668 C669 1.392 . S
C668 C671 1.511 . S
C669 C665 1.376 . S
C669 C668 1.392 . S
C669 H681 0.929 . S
C670 C666 1.531 . S
C670 H682 0.960 . S
C670 H683 0.962 . S
C670 H684 0.960 . S
C671 C668 1.511 . S
C671 H685 0.961 . S
C671 H686 0.961 . S
C671 H687 0.961 . S
C672 C673 1.370 . S
C672 C674 1.363 . S
C672 H688 0.931 . S
C673 C672 1.370 . S
C673 C677 1.408 . S
C674 C672 1.363 . S
C674 C675 1.370 . S
C674 C678 1.524 . S
C675 C667 1.503 . S
C675 C674 1.370 . S
C675 C676 1.403 . S
C676 C675 1.403 . S
C676 C677 1.404 . S
C676 C679 1.539 . S
C677 C673 1.408 . S
C677 C676 1.404 . S
C677 H689 0.930 . S
C678 C674 1.524 . S
C678 H690 0.956 . S
C678 H691 0.961 . S
C678 H692 0.961 . S
C679 C676 1.539 . S
C679 H693 0.958 . S
C679 H694 0.961 . S
C679 H695 0.960 . S
H680 C664 0.931 . S
H681 C669 0.929 . S
H682 C670 0.960 . S
H683 C670 0.962 . S
H684 C670 0.960 . S
H685 C671 0.961 . S
H686 C671 0.961 . S
H687 C671 0.961 . S
H688 C672 0.931 . S
H689 C677 0.930 . S
H690 C678 0.956 . S
H691 C678 0.961 . S
H692 C678 0.961 . S
H693 C679 0.958 . S
H694 C679 0.961 . S
H695 C679 0.960 . S
C696 C697 1.391 . S
C696 C698 1.394 . S
C696 H712 0.931 . S
C697 C696 1.391 . S
C697 C701 1.376 . S
C698 C696 1.394 . S
C698 C699 1.369 . S
C698 C702 1.531 . S
C699 C698 1.369 . S
C699 C700 1.410 . S
C699 C707 1.503 . S
C700 C699 1.410 . S
C700 C701 1.392 . S
C700 C703 1.511 . S
C701 C697 1.376 . S
C701 C700 1.392 . S
C701 H713 0.929 . S
C702 C698 1.531 . S
C702 H714 0.960 . S
C702 H715 0.962 . S
C702 H716 0.960 . S
C703 C700 1.511 . S
C703 H717 0.961 . S
C703 H718 0.961 . S
C703 H719 0.961 . S
C704 C705 1.370 . S
C704 C706 1.363 . S
C704 H720 0.931 . S
C705 C704 1.370 . S
C705 C709 1.408 . S
C706 C704 1.363 . S
C706 C707 1.370 . S
C706 C710 1.524 . S
C707 C699 1.503 . S
C707 C706 1.370 . S
C707 C708 1.403 . S
C708 C707 1.403 . S
C708 C709 1.404 . S
C708 C711 1.539 . S
C709 C705 1.408 . S
C709 C708 1.404 . S
C709 H721 0.930 . S
C710 C706 1.524 . S
C710 H722 0.956 . S
C710 H723 0.961 . S
C710 H724 0.961 . S
C711 C708 1.539 . S
C711 H725 0.958 . S
C711 H726 0.961 . S
C711 H727 0.960 . S
H712 C696 0.931 . S
H713 C701 0.929 . S
H714 C702 0.960 . S
H715 C702 0.962 . S
H716 C702 0.960 . S
H717 C703 0.961 . S
H718 C703 0.961 . S
H719 C703 0.961 . S
H720 C704 0.931 . S
H721 C709 0.930 . S
H722 C710 0.956 . S
H723 C710 0.961 . S
H724 C710 0.961 . S
H725 C711 0.958 . S
H726 C711 0.961 . S
H727 C711 0.960 . S
C728 C729 1.391 . S
C728 C730 1.394 . S
C728 H744 0.931 . S
C729 C728 1.391 . S
C729 C733 1.376 . S
C730 C728 1.394 . S
C730 C731 1.369 . S
C730 C734 1.531 . S
C731 C730 1.369 . S
C731 C732 1.410 . S
C731 C739 1.503 . S
C732 C731 1.410 . S
C732 C733 1.392 . S
C732 C735 1.511 . S
C733 C729 1.376 . S
C733 C732 1.392 . S
C733 H745 0.929 . S
C734 C730 1.531 . S
C734 H746 0.960 . S
C734 H747 0.962 . S
C734 H748 0.960 . S
C735 C732 1.511 . S
C735 H749 0.961 . S
C735 H750 0.961 . S
C735 H751 0.961 . S
C736 C737 1.370 . S
C736 C738 1.363 . S
C736 H752 0.931 . S
C737 C736 1.370 . S
C737 C741 1.408 . S
C738 C736 1.363 . S
C738 C739 1.370 . S
C738 C742 1.524 . S
C739 C731 1.503 . S
C739 C738 1.370 . S
C739 C740 1.403 . S
C740 C739 1.403 . S
C740 C741 1.404 . S
C740 C743 1.539 . S
C741 C737 1.408 . S
C741 C740 1.404 . S
C741 H753 0.930 . S
C742 C738 1.524 . S
C742 H754 0.956 . S
C742 H755 0.961 . S
C742 H756 0.961 . S
C743 C740 1.539 . S
C743 H757 0.958 . S
C743 H758 0.961 . S
C743 H759 0.960 . S
H744 C728 0.931 . S
H745 C733 0.929 . S
H746 C734 0.960 . S
H747 C734 0.962 . S
H748 C734 0.960 . S
H749 C735 0.961 . S
H750 C735 0.961 . S
H751 C735 0.961 . S
H752 C736 0.931 . S
H753 C741 0.930 . S
H754 C742 0.956 . S
H755 C742 0.961 . S
H756 C742 0.961 . S
H757 C743 0.958 . S
H758 C743 0.961 . S
H759 C743 0.960 . S
C760 C761 1.391 . S
C760 C762 1.394 . S
C760 H776 0.931 . S
C761 C760 1.391 . S
C761 C765 1.376 . S
C762 C760 1.394 . S
C762 C763 1.369 . S
C762 C766 1.531 . S
C763 C762 1.369 . S
C763 C764 1.410 . S
C763 C771 1.503 . S
C764 C763 1.410 . S
C764 C765 1.392 . S
C764 C767 1.511 . S
C765 C761 1.376 . S
C765 C764 1.392 . S
C765 H777 0.929 . S
C766 C762 1.531 . S
C766 H778 0.960 . S
C766 H779 0.962 . S
C766 H780 0.960 . S
C767 C764 1.511 . S
C767 H781 0.961 . S
C767 H782 0.961 . S
C767 H783 0.961 . S
C768 C769 1.370 . S
C768 C770 1.363 . S
C768 H784 0.931 . S
C769 C768 1.370 . S
C769 C773 1.408 . S
C770 C768 1.363 . S
C770 C771 1.370 . S
C770 C774 1.524 . S
C771 C763 1.503 . S
C771 C770 1.370 . S
C771 C772 1.403 . S
C772 C771 1.403 . S
C772 C773 1.404 . S
C772 C775 1.539 . S
C773 C769 1.408 . S
C773 C772 1.404 . S
C773 H785 0.930 . S
C774 C770 1.524 . S
C774 H786 0.956 . S
C774 H787 0.961 . S
C774 H788 0.961 . S
C775 C772 1.539 . S
C775 H789 0.958 . S
C775 H790 0.961 . S
C775 H791 0.960 . S
H776 C760 0.931 . S
H777 C765 0.929 . S
H778 C766 0.960 . S
H779 C766 0.962 . S
H780 C766 0.960 . S
H781 C767 0.961 . S
H782 C767 0.961 . S
H783 C767 0.961 . S
H784 C768 0.931 . S
H785 C773 0.930 . S
H786 C774 0.956 . S
H787 C774 0.961 . S
H788 C774 0.961 . S
H789 C775 0.958 . S
H790 C775 0.961 . S
H791 C775 0.960 . S
C792 C793 1.391 . S
C792 C794 1.394 . S
C792 H808 0.931 . S
C793 C792 1.391 . S
C793 C797 1.376 . S
C794 C792 1.394 . S
C794 C795 1.369 . S
C794 C798 1.531 . S
C795 C794 1.369 . S
C795 C796 1.410 . S
C795 C803 1.503 . S
C796 C795 1.410 . S
C796 C797 1.392 . S
C796 C799 1.485 1_655 S
C797 C793 1.376 . S
C797 C796 1.392 . S
C797 H809 0.929 1_655 S
C798 C794 1.531 . S
C798 H810 0.960 . S
C798 H811 0.962 . S
C798 H812 0.960 . S
C799 C796 1.485 1_455 S
C799 H813 0.995 . S
C799 H814 0.941 1_455 S
C799 H815 0.976 . S
C800 C801 1.370 . S
C800 C802 1.363 . S
C800 H816 0.931 . S
C801 C800 1.370 . S
C801 C805 1.408 . S
C802 C800 1.363 . S
C802 C803 1.370 . S
C802 C806 1.524 . S
C803 C795 1.503 . S
C803 C802 1.370 . S
C803 C804 1.403 . S
C804 C803 1.403 . S
C804 C805 1.404 . S
C804 C807 1.539 . S
C805 C801 1.408 . S
C805 C804 1.404 . S
C805 H817 0.930 . S
C806 C802 1.524 . S
C806 H818 0.956 . S
C806 H819 0.961 . S
C806 H820 0.961 . S
C807 C804 1.539 . S
C807 H821 0.958 . S
C807 H822 0.961 . S
C807 H823 0.960 . S
H808 C792 0.931 . S
H809 C797 0.929 1_455 S
H810 C798 0.960 . S
H811 C798 0.962 . S
H812 C798 0.960 . S
H813 C799 0.995 . S
H814 C799 0.941 1_655 S
H815 C799 0.976 . S
H816 C800 0.931 . S
H817 C805 0.930 . S
H818 C806 0.956 . S
H819 C806 0.961 . S
H820 C806 0.961 . S
H821 C807 0.958 . S
H822 C807 0.961 . S
H823 C807 0.960 . S
C824 C825 1.391 . S
C824 C826 1.394 . S
C824 H840 0.931 . S
C825 C824 1.391 . S
C825 C829 1.376 . S
C826 C824 1.394 . S
C826 C827 1.369 . S
C826 C830 1.531 . S
C827 C826 1.369 . S
C827 C828 1.410 . S
C827 C835 1.503 . S
C828 C827 1.410 . S
C828 C829 1.392 . S
C828 C831 1.511 . S
C829 C825 1.376 . S
C829 C828 1.392 . S
C829 H841 0.929 . S
C830 C826 1.531 . S
C830 H842 0.960 . S
C830 H843 0.962 . S
C830 H844 0.960 . S
C831 C828 1.511 . S
C831 H845 0.961 . S
C831 H846 0.961 . S
C831 H847 0.961 . S
C832 C833 1.370 . S
C832 C834 1.363 . S
C832 H848 0.931 . S
C833 C832 1.370 . S
C833 C837 1.408 . S
C834 C832 1.363 . S
C834 C835 1.370 . S
C834 C838 1.524 . S
C835 C827 1.503 . S
C835 C834 1.370 . S
C835 C836 1.403 . S
C836 C835 1.403 . S
C836 C837 1.404 . S
C836 C839 1.539 . S
C837 C833 1.408 . S
C837 C836 1.404 . S
C837 H849 0.930 . S
C838 C834 1.524 . S
C838 H850 0.956 . S
C838 H851 0.961 . S
C838 H852 0.961 . S
C839 C836 1.539 . S
C839 H853 0.958 . S
C839 H854 0.961 . S
C839 H855 0.960 . S
H840 C824 0.931 . S
H841 C829 0.929 . S
H842 C830 0.960 . S
H843 C830 0.962 . S
H844 C830 0.960 . S
H845 C831 0.961 . S
H846 C831 0.961 . S
H847 C831 0.961 . S
H848 C832 0.931 . S
H849 C837 0.930 . S
H850 C838 0.956 . S
H851 C838 0.961 . S
H852 C838 0.961 . S
H853 C839 0.958 . S
H854 C839 0.961 . S
H855 C839 0.960 . S
C856 C857 1.391 . S
C856 C858 1.394 . S
C856 H872 0.931 . S
C857 C856 1.391 . S
C857 C861 1.376 . S
C858 C856 1.394 . S
C858 C859 1.369 . S
C858 C862 1.531 . S
C859 C858 1.369 . S
C859 C860 1.410 . S
C859 C867 1.503 . S
C860 C859 1.410 . S
C860 C861 1.392 . S
C860 C863 1.511 . S
C861 C857 1.376 . S
C861 C860 1.392 . S
C861 H873 0.929 . S
C862 C858 1.531 . S
C862 H874 0.960 . S
C862 H875 0.962 . S
C862 H876 0.960 . S
C863 C860 1.511 . S
C863 H877 0.961 . S
C863 H878 0.961 . S
C863 H879 0.961 . S
C864 C865 1.370 . S
C864 C866 1.363 . S
C864 H880 0.931 . S
C865 C864 1.370 . S
C865 C869 1.408 . S
C866 C864 1.363 . S
C866 C867 1.370 . S
C866 C870 1.524 . S
C867 C859 1.503 . S
C867 C866 1.370 . S
C867 C868 1.403 . S
C868 C867 1.403 . S
C868 C869 1.404 . S
C868 C871 1.539 . S
C869 C865 1.408 . S
C869 C868 1.404 . S
C869 H881 0.930 . S
C870 C866 1.524 . S
C870 H882 0.956 . S
C870 H883 0.961 . S
C870 H884 0.961 . S
C871 C868 1.539 . S
C871 H885 0.958 . S
C871 H886 0.961 . S
C871 H887 0.960 . S
H872 C856 0.931 . S
H873 C861 0.929 . S
H874 C862 0.960 . S
H875 C862 0.962 . S
H876 C862 0.960 . S
H877 C863 0.961 . S
H878 C863 0.961 . S
H879 C863 0.961 . S
H880 C864 0.931 . S
H881 C869 0.930 . S
H882 C870 0.956 . S
H883 C870 0.961 . S
H884 C870 0.961 . S
H885 C871 0.958 . S
H886 C871 0.961 . S
H887 C871 0.960 . S
C888 C889 1.391 . S
C888 C890 1.394 . S
C888 H904 0.931 . S
C889 C888 1.391 . S
C889 C893 1.376 . S
C890 C888 1.394 . S
C890 C891 1.369 . S
C890 C894 1.531 . S
C891 C890 1.369 . S
C891 C892 1.410 . S
C891 C899 1.503 . S
C892 C891 1.410 . S
C892 C893 1.392 . S
C892 C895 1.511 . S
C893 C889 1.376 . S
C893 C892 1.392 . S
C893 H905 0.929 . S
C894 C890 1.531 . S
C894 H906 0.960 . S
C894 H907 0.962 . S
C894 H908 0.960 . S
C895 C892 1.511 . S
C895 H909 0.961 . S
C895 H910 0.961 . S
C895 H911 0.961 . S
C896 C897 1.370 . S
C896 C898 1.363 . S
C896 H912 0.931 . S
C897 C896 1.370 . S
C897 C901 1.408 . S
C898 C896 1.363 . S
C898 C899 1.370 . S
C898 C902 1.524 . S
C899 C891 1.503 . S
C899 C898 1.370 . S
C899 C900 1.403 . S
C900 C899 1.403 . S
C900 C901 1.404 . S
C900 C903 1.539 . S
C901 C897 1.408 . S
C901 C900 1.404 . S
C901 H913 0.930 . S
C902 C898 1.524 . S
C902 H914 0.956 . S
C902 H915 0.961 . S
C902 H916 0.961 . S
C903 C900 1.539 . S
C903 H917 0.961 . S
C903 H918 0.965 . S
C903 H919 0.960 . S
H904 C888 0.931 . S
H905 C893 0.929 . S
H906 C894 0.960 . S
H907 C894 0.962 . S
H908 C894 0.960 . S
H909 C895 0.961 . S
H910 C895 0.961 . S
H911 C895 0.961 . S
H912 C896 0.931 . S
H913 C901 0.930 . S
H914 C902 0.956 . S
H915 C902 0.961 . S
H916 C902 0.961 . S
H917 C903 0.961 . S
H918 C903 0.965 . S
H919 C903 0.960 . S
C920 C921 1.391 . S
C920 C922 1.394 . S
C920 H936 0.931 . S
C921 C920 1.391 . S
C921 C925 1.376 . S
C922 C920 1.394 . S
C922 C923 1.369 . S
C922 C926 1.531 . S
C923 C922 1.369 . S
C923 C924 1.410 . S
C923 C931 1.503 . S
C924 C923 1.410 . S
C924 C925 1.392 . S
C924 C927 1.511 . S
C925 C921 1.376 . S
C925 C924 1.392 . S
C925 H937 0.929 . S
C926 C922 1.531 . S
C926 H938 0.960 . S
C926 H939 0.962 . S
C926 H940 0.960 . S
C927 C924 1.511 . S
C927 H941 0.961 . S
C927 H942 0.961 . S
C927 H943 0.961 . S
C928 C929 1.370 . S
C928 C930 1.363 . S
C928 H944 0.931 1_655 S
C929 C928 1.370 . S
C929 C933 1.408 . S
C930 C928 1.363 . S
C930 C931 1.370 . S
C930 C934 1.524 . S
C931 C923 1.503 . S
C931 C930 1.370 . S
C931 C932 1.403 . S
C932 C931 1.403 . S
C932 C933 1.404 . S
C932 C935 1.539 . S
C933 C929 1.408 . S
C933 C932 1.404 . S
C933 H945 0.930 . S
C934 C930 1.524 . S
C934 H946 0.956 . S
C934 H947 0.961 . S
C934 H948 0.961 1_655 S
C935 C932 1.539 . S
C935 H949 0.958 . S
C935 H950 0.961 . S
C935 H951 0.960 . S
H936 C920 0.931 . S
H937 C925 0.929 . S
H938 C926 0.960 . S
H939 C926 0.962 . S
H940 C926 0.960 . S
H941 C927 0.961 . S
H942 C927 0.961 . S
H943 C927 0.961 . S
H944 C928 0.931 1_455 S
H945 C933 0.930 . S
H946 C934 0.956 . S
H947 C934 0.961 . S
H948 C934 0.961 1_455 S
H949 C935 0.958 . S
H950 C935 0.961 . S
H951 C935 0.960 . S
C952 C953 1.391 . S
C952 C954 1.394 . S
C952 H968 0.931 . S
C953 C952 1.391 . S
C953 C957 1.376 . S
C954 C952 1.394 . S
C954 C955 1.369 . S
C954 C958 1.531 . S
C955 C954 1.369 . S
C955 C956 1.410 . S
C955 C963 1.503 . S
C956 C955 1.410 . S
C956 C957 1.392 . S
C956 C959 1.511 . S
C957 C953 1.376 . S
C957 C956 1.392 . S
C957 H969 0.929 . S
C958 C954 1.531 . S
C958 H970 0.960 . S
C958 H971 0.962 . S
C958 H972 0.960 . S
C959 C956 1.511 . S
C959 H973 0.961 . S
C959 H974 0.961 . S
C959 H975 0.961 . S
C960 C961 1.370 . S
C960 C962 1.363 . S
C960 H976 0.931 . S
C961 C960 1.370 . S
C961 C965 1.408 . S
C962 C960 1.363 . S
C962 C963 1.370 . S
C962 C966 1.524 . S
C963 C955 1.503 . S
C963 C962 1.370 . S
C963 C964 1.403 . S
C964 C963 1.403 . S
C964 C965 1.404 . S
C964 C967 1.539 . S
C965 C961 1.408 . S
C965 C964 1.404 . S
C965 H977 0.930 . S
C966 C962 1.524 . S
C966 H978 0.956 . S
C966 H979 0.961 . S
C966 H980 0.961 . S
C967 C964 1.539 . S
C967 H981 0.958 . S
C967 H982 0.961 . S
C967 H983 0.960 . S
H968 C952 0.931 . S
H969 C957 0.929 . S
H970 C958 0.960 . S
H971 C958 0.962 . S
H972 C958 0.960 . S
H973 C959 0.961 . S
H974 C959 0.961 . S
H975 C959 0.961 . S
H976 C960 0.931 . S
H977 C965 0.930 . S
H978 C966 0.956 . S
H979 C966 0.961 . S
H980 C966 0.961 . S
H981 C967 0.958 . S
H982 C967 0.961 . S
H983 C967 0.960 . S
C984 C985 1.391 . S
C984 C986 1.394 . S
C984 H1000 0.931 . S
C985 C984 1.391 . S
C985 C989 1.376 . S
C986 C984 1.394 . S
C986 C987 1.369 . S
C986 C990 1.531 . S
C987 C986 1.369 . S
C987 C988 1.410 . S
C987 C995 1.503 . S
C988 C987 1.410 . S
C988 C989 1.392 . S
C988 C991 1.511 . S
C989 C985 1.376 . S
C989 C988 1.392 . S
C989 H1001 0.929 . S
C990 C986 1.531 . S
C990 H1002 0.960 . S
C990 H1003 0.962 . S
C990 H1004 0.960 . S
C991 C988 1.511 . S
C991 H1005 0.961 . S
C991 H1006 0.961 . S
C991 H1007 0.961 . S
C992 C993 1.370 . S
C992 C994 1.363 . S
C992 H1008 0.931 . S
C993 C992 1.370 . S
C993 C997 1.408 . S
C994 C992 1.363 . S
C994 C995 1.370 . S
C994 C998 1.524 . S
C995 C987 1.503 . S
C995 C994 1.370 . S
C995 C996 1.403 . S
C996 C995 1.403 . S
C996 C997 1.404 . S
C996 C999 1.539 . S
C997 C993 1.408 . S
C997 C996 1.404 . S
C997 H1009 0.930 . S
C998 C994 1.524 . S
C998 H1010 0.956 . S
C998 H1011 0.961 . S
C998 H1012 0.961 . S
C999 C996 1.539 . S
C999 H1013 0.958 . S
C999 H1014 0.961 . S
C999 H1015 0.960 . S
H1000 C984 0.931 . S
H1001 C989 0.929 . S
H1002 C990 0.960 . S
H1003 C990 0.962 . S
H1004 C990 0.960 . S
H1005 C991 0.961 . S
H1006 C991 0.961 . S
H1007 C991 0.961 . S
H1008 C992 0.931 . S
H1009 C997 0.930 . S
H1010 C998 0.956 . S
H1011 C998 0.961 . S
H1012 C998 0.961 . S
H1013 C999 0.958 . S
H1014 C999 0.961 . S
H1015 C999 0.960 . S
C1016 C1017 1.391 . S
C1016 C1018 1.394 . S
C1016 H1032 0.931 . S
C1017 C1016 1.391 . S
C1017 C1021 1.376 . S
C1018 C1016 1.394 . S
C1018 C1019 1.369 . S
C1018 C1022 1.531 . S
C1019 C1018 1.369 . S
C1019 C1020 1.410 . S
C1019 C1027 1.503 . S
C1020 C1019 1.410 . S
C1020 C1021 1.392 . S
C1020 C1023 1.511 . S
C1021 C1017 1.376 . S
C1021 C1020 1.392 . S
C1021 H1033 0.929 . S
C1022 C1018 1.531 . S
C1022 H1034 0.960 . S
C1022 H1035 0.962 . S
C1022 H1036 0.960 . S
C1023 C1020 1.511 . S
C1023 H1037 0.961 . S
C1023 H1038 0.961 . S
C1023 H1039 0.961 . S
C1024 C1025 1.370 . S
C1024 C1026 1.363 . S
C1024 H1040 0.931 1_554 S
C1025 C1024 1.370 . S
C1025 C1029 1.408 . S
C1026 C1024 1.363 . S
C1026 C1027 1.370 . S
C1026 C1030 1.524 . S
C1027 C1019 1.503 . S
C1027 C1026 1.370 . S
C1027 C1028 1.403 . S
C1028 C1027 1.403 . S
C1028 C1029 1.404 . S
C1028 C1031 1.539 . S
C1029 C1025 1.408 . S
C1029 C1028 1.404 . S
C1029 H1041 0.930 . S
C1030 C1026 1.524 . S
C1030 H1042 0.956 . S
C1030 H1043 0.961 . S
C1030 H1044 0.961 1_554 S
C1031 C1028 1.539 . S
C1031 H1045 0.958 . S
C1031 H1046 0.961 . S
C1031 H1047 0.960 . S
H1032 C1016 0.931 . S
H1033 C1021 0.929 . S
H1034 C1022 0.960 . S
H1035 C1022 0.962 . S
H1036 C1022 0.960 . S
H1037 C1023 0.961 . S
H1038 C1023 0.961 . S
H1039 C1023 0.961 . S
H1040 C1024 0.931 1_556 S
H1041 C1029 0.930 . S
H1042 C1030 0.956 . S
H1043 C1030 0.961 . S
H1044 C1030 0.961 1_556 S
H1045 C1031 0.958 . S
H1046 C1031 0.961 . S
H1047 C1031 0.960 . S
C1048 C1049 1.391 . S
C1048 C1050 1.394 . S
C1048 H1064 0.931 . S
C1049 C1048 1.391 . S
C1049 C1053 1.376 . S
C1050 C1048 1.394 . S
C1050 C1051 1.369 . S
C1050 C1054 1.531 . S
C1051 C1050 1.369 . S
C1051 C1052 1.410 . S
C1051 C1059 1.503 . S
C1052 C1051 1.410 . S
C1052 C1053 1.392 . S
C1052 C1055 1.511 . S
C1053 C1049 1.376 . S
C1053 C1052 1.392 . S
C1053 H1065 0.929 . S
C1054 C1050 1.531 . S
C1054 H1066 0.960 . S
C1054 H1067 0.962 . S
C1054 H1068 0.960 . S
C1055 C1052 1.511 . S
C1055 H1069 0.961 . S
C1055 H1070 0.961 . S
C1055 H1071 0.961 . S
C1056 C1057 1.370 . S
C1056 C1058 1.363 . S
C1056 H1072 0.931 . S
C1057 C1056 1.370 . S
C1057 C1061 1.408 . S
C1058 C1056 1.363 . S
C1058 C1059 1.370 . S
C1058 C1062 1.524 . S
C1059 C1051 1.503 . S
C1059 C1058 1.370 . S
C1059 C1060 1.403 . S
C1060 C1059 1.403 . S
C1060 C1061 1.404 . S
C1060 C1063 1.539 . S
C1061 C1057 1.408 . S
C1061 C1060 1.404 . S
C1061 H1073 0.930 1_565 S
C1062 C1058 1.524 . S
C1062 H1074 0.956 . S
C1062 H1075 0.961 . S
C1062 H1076 0.961 . S
C1063 C1060 1.539 . S
C1063 H1077 0.958 1_565 S
C1063 H1078 0.961 1_565 S
C1063 H1079 0.960 . S
H1064 C1048 0.931 . S
H1065 C1053 0.929 . S
H1066 C1054 0.960 . S
H1067 C1054 0.962 . S
H1068 C1054 0.960 . S
H1069 C1055 0.961 . S
H1070 C1055 0.961 . S
H1071 C1055 0.961 . S
H1072 C1056 0.931 . S
H1073 C1061 0.930 1_545 S
H1074 C1062 0.956 . S
H1075 C1062 0.961 . S
H1076 C1062 0.961 . S
H1077 C1063 0.958 1_545 S
H1078 C1063 0.961 1_545 S
H1079 C1063 0.960 . S
C1080 C1081 1.391 . S
C1080 C1082 1.394 . S
C1080 H1096 0.931 . S
C1081 C1080 1.391 . S
C1081 C1085 1.376 . S
C1082 C1080 1.394 . S
C1082 C1083 1.369 . S
C1082 C1086 1.531 . S
C1083 C1082 1.369 . S
C1083 C1084 1.410 . S
C1083 C1091 1.503 . S
C1084 C1083 1.410 . S
C1084 C1085 1.392 . S
C1084 C1087 1.511 . S
C1085 C1081 1.376 . S
C1085 C1084 1.392 . S
C1085 H1097 0.929 . S
C1086 C1082 1.531 . S
C1086 H1098 0.960 . S
C1086 H1099 0.962 . S
C1086 H1100 0.960 . S
C1087 C1084 1.511 . S
C1087 H1101 0.961 . S
C1087 H1102 0.961 . S
C1087 H1103 0.961 . S
C1088 C1089 1.370 . S
C1088 C1090 1.363 . S
C1088 H1104 0.931 . S
C1089 C1088 1.370 . S
C1089 C1093 1.408 . S
C1090 C1088 1.363 . S
C1090 C1091 1.370 . S
C1090 C1094 1.524 . S
C1091 C1083 1.503 . S
C1091 C1090 1.370 . S
C1091 C1092 1.403 . S
C1092 C1091 1.403 . S
C1092 C1093 1.404 . S
C1092 C1095 1.539 . S
C1093 C1089 1.408 . S
C1093 C1092 1.404 . S
C1093 H1105 0.930 . S
C1094 C1090 1.524 . S
C1094 H1106 0.956 . S
C1094 H1107 0.961 . S
C1094 H1108 0.961 . S
C1095 C1092 1.539 . S
C1095 H1109 0.956 1_565 S
C1095 H1110 0.970 . S
C1095 H1111 0.960 . S
H1096 C1080 0.931 . S
H1097 C1085 0.929 . S
H1098 C1086 0.960 . S
H1099 C1086 0.962 . S
H1100 C1086 0.960 . S
H1101 C1087 0.961 . S
H1102 C1087 0.961 . S
H1103 C1087 0.961 . S
H1104 C1088 0.931 . S
H1105 C1093 0.930 . S
H1106 C1094 0.956 . S
H1107 C1094 0.961 . S
H1108 C1094 0.961 . S
H1109 C1095 0.956 1_545 S
H1110 C1095 0.970 . S
H1111 C1095 0.960 . S
C1112 C1113 1.391 . S
C1112 C1114 1.394 . S
C1112 H1128 0.931 . S
C1113 C1112 1.391 . S
C1113 C1117 1.376 . S
C1114 C1112 1.394 . S
C1114 C1115 1.369 . S
C1114 C1118 1.531 . S
C1115 C1114 1.369 . S
C1115 C1116 1.410 . S
C1115 C1123 1.503 . S
C1116 C1115 1.410 . S
C1116 C1117 1.392 . S
C1116 C1119 1.511 . S
C1117 C1113 1.376 . S
C1117 C1116 1.392 . S
C1117 H1129 0.929 . S
C1118 C1114 1.531 . S
C1118 H1130 0.960 . S
C1118 H1131 0.962 . S
C1118 H1132 0.960 . S
C1119 C1116 1.511 . S
C1119 H1133 0.961 . S
C1119 H1134 0.961 . S
C1119 H1135 0.961 . S
C1120 C1121 1.370 . S
C1120 C1122 1.363 . S
C1120 H1136 0.931 . S
C1121 C1120 1.370 . S
C1121 C1125 1.408 . S
C1122 C1120 1.363 . S
C1122 C1123 1.370 . S
C1122 C1126 1.524 . S
C1123 C1115 1.503 . S
C1123 C1122 1.370 . S
C1123 C1124 1.403 . S
C1124 C1123 1.403 . S
C1124 C1125 1.404 . S
C1124 C1127 1.539 . S
C1125 C1121 1.408 . S
C1125 C1124 1.404 . S
C1125 H1137 0.930 . S
C1126 C1122 1.524 . S
C1126 H1138 0.956 . S
C1126 H1139 0.961 . S
C1126 H1140 0.961 . S
C1127 C1124 1.539 . S
C1127 H1141 0.958 . S
C1127 H1142 0.961 . S
C1127 H1143 0.960 . S
H1128 C1112 0.931 . S
H1129 C1117 0.929 . S
H1130 C1118 0.960 . S
H1131 C1118 0.962 . S
H1132 C1118 0.960 . S
H1133 C1119 0.961 . S
H1134 C1119 0.961 . S
H1135 C1119 0.961 . S
H1136 C1120 0.931 . S
H1137 C1125 0.930 . S
H1138 C1126 0.956 . S
H1139 C1126 0.961 . S
H1140 C1126 0.961 . S
H1141 C1127 0.958 . S
H1142 C1127 0.961 . S
H1143 C1127 0.960 . S
C1144 C1145 1.391 . S
C1144 C1146 1.394 . S
C1144 H1160 0.931 . S
C1145 C1144 1.391 . S
C1145 C1149 1.376 . S
C1146 C1144 1.394 . S
C1146 C1147 1.369 . S
C1146 C1150 1.531 . S
C1147 C1146 1.369 . S
C1147 C1148 1.410 . S
C1147 C1155 1.503 . S
C1148 C1147 1.410 . S
C1148 C1149 1.392 . S
C1148 C1151 1.511 . S
C1149 C1145 1.376 . S
C1149 C1148 1.392 . S
C1149 H1161 0.929 . S
C1150 C1146 1.531 . S
C1150 H1162 0.960 . S
C1150 H1163 0.962 . S
C1150 H1164 0.960 . S
C1151 C1148 1.511 . S
C1151 H1165 0.961 . S
C1151 H1166 0.961 . S
C1151 H1167 0.961 . S
C1152 C1153 1.370 . S
C1152 C1154 1.363 . S
C1152 H1168 0.931 . S
C1153 C1152 1.370 . S
C1153 C1157 1.408 . S
C1154 C1152 1.363 . S
C1154 C1155 1.370 . S
C1154 C1158 1.524 . S
C1155 C1147 1.503 . S
C1155 C1154 1.370 . S
C1155 C1156 1.403 . S
C1156 C1155 1.403 . S
C1156 C1157 1.404 . S
C1156 C1159 1.539 . S
C1157 C1153 1.408 . S
C1157 C1156 1.404 . S
C1157 H1169 0.930 . S
C1158 C1154 1.524 . S
C1158 H1170 0.956 . S
C1158 H1171 0.961 . S
C1158 H1172 0.961 . S
C1159 C1156 1.539 . S
C1159 H1173 0.958 . S
C1159 H1174 0.961 . S
C1159 H1175 0.960 . S
H1160 C1144 0.931 . S
H1161 C1149 0.929 . S
H1162 C1150 0.960 . S
H1163 C1150 0.962 . S
H1164 C1150 0.960 . S
H1165 C1151 0.961 . S
H1166 C1151 0.961 . S
H1167 C1151 0.961 . S
H1168 C1152 0.931 . S
H1169 C1157 0.930 . S
H1170 C1158 0.956 . S
H1171 C1158 0.961 . S
H1172 C1158 0.961 . S
H1173 C1159 0.958 . S
H1174 C1159 0.961 . S
H1175 C1159 0.960 . S
C1176 C1177 1.391 . S
C1176 C1178 1.394 . S
C1176 H1192 0.931 . S
C1177 C1176 1.391 . S
C1177 C1181 1.376 . S
C1178 C1176 1.394 . S
C1178 C1179 1.369 . S
C1178 C1182 1.531 . S
C1179 C1178 1.369 . S
C1179 C1180 1.410 . S
C1179 C1187 1.503 . S
C1180 C1179 1.410 . S
C1180 C1181 1.392 . S
C1180 C1183 1.511 . S
C1181 C1177 1.376 . S
C1181 C1180 1.392 . S
C1181 H1193 0.929 . S
C1182 C1178 1.531 . S
C1182 H1194 0.960 . S
C1182 H1195 0.962 . S
C1182 H1196 0.960 . S
C1183 C1180 1.511 . S
C1183 H1197 0.961 . S
C1183 H1198 0.961 . S
C1183 H1199 0.961 . S
C1184 C1185 1.370 . S
C1184 C1186 1.363 . S
C1184 H1200 0.931 . S
C1185 C1184 1.370 . S
C1185 C1189 1.408 . S
C1186 C1184 1.363 . S
C1186 C1187 1.370 . S
C1186 C1190 1.524 . S
C1187 C1179 1.503 . S
C1187 C1186 1.370 . S
C1187 C1188 1.403 . S
C1188 C1187 1.403 . S
C1188 C1189 1.404 . S
C1188 C1191 1.539 . S
C1189 C1185 1.408 . S
C1189 C1188 1.404 . S
C1189 H1201 0.930 . S
C1190 C1186 1.524 . S
C1190 H1202 0.956 . S
C1190 H1203 0.961 . S
C1190 H1204 0.961 . S
C1191 C1188 1.539 . S
C1191 H1205 0.958 . S
C1191 H1206 0.961 . S
C1191 H1207 0.960 . S
H1192 C1176 0.931 . S
H1193 C1181 0.929 . S
H1194 C1182 0.960 . S
H1195 C1182 0.962 . S
H1196 C1182 0.960 . S
H1197 C1183 0.961 . S
H1198 C1183 0.961 . S
H1199 C1183 0.961 . S
H1200 C1184 0.931 . S
H1201 C1189 0.930 . S
H1202 C1190 0.956 . S
H1203 C1190 0.961 . S
H1204 C1190 0.961 . S
H1205 C1191 0.958 . S
H1206 C1191 0.961 . S
H1207 C1191 0.960 . S
C1208 C1209 1.391 . S
C1208 C1210 1.394 . S
C1208 H1224 0.931 . S
C1209 C1208 1.391 . S
C1209 C1213 1.376 . S
C1210 C1208 1.394 . S
C1210 C1211 1.369 . S
C1210 C1214 1.531 . S
C1211 C1210 1.369 . S
C1211 C1212 1.410 . S
C1211 C1219 1.503 . S
C1212 C1211 1.410 . S
C1212 C1213 1.392 . S
C1212 C1215 1.511 . S
C1213 C1209 1.376 . S
C1213 C1212 1.392 . S
C1213 H1225 0.929 . S
C1214 C1210 1.531 . S
C1214 H1226 0.960 . S
C1214 H1227 0.962 . S
C1214 H1228 0.960 . S
C1215 C1212 1.511 . S
C1215 H1229 0.961 . S
C1215 H1230 0.961 . S
C1215 H1231 0.961 . S
C1216 C1217 1.370 . S
C1216 C1218 1.363 . S
C1216 H1232 0.931 1_455 S
C1217 C1216 1.370 . S
C1217 C1221 1.408 . S
C1218 C1216 1.363 . S
C1218 C1219 1.370 . S
C1218 C1222 1.524 . S
C1219 C1211 1.503 . S
C1219 C1218 1.370 . S
C1219 C1220 1.403 . S
C1220 C1219 1.403 . S
C1220 C1221 1.404 . S
C1220 C1223 1.539 . S
C1221 C1217 1.408 . S
C1221 C1220 1.404 . S
C1221 H1233 0.930 . S
C1222 C1218 1.524 . S
C1222 H1234 0.956 . S
C1222 H1235 0.961 . S
C1222 H1236 0.961 1_455 S
C1223 C1220 1.539 . S
C1223 H1237 0.958 . S
C1223 H1238 0.961 . S
C1223 H1239 0.960 . S
H1224 C1208 0.931 . S
H1225 C1213 0.929 . S
H1226 C1214 0.960 . S
H1227 C1214 0.962 . S
H1228 C1214 0.960 . S
H1229 C1215 0.961 . S
H1230 C1215 0.961 . S
H1231 C1215 0.961 . S
H1232 C1216 0.931 1_655 S
H1233 C1221 0.930 . S
H1234 C1222 0.956 . S
H1235 C1222 0.961 . S
H1236 C1222 0.961 1_655 S
H1237 C1223 0.958 . S
H1238 C1223 0.961 . S
H1239 C1223 0.960 . S
C1240 C1241 1.391 . S
C1240 C1242 1.394 . S
C1240 H1256 0.931 . S
C1241 C1240 1.391 . S
C1241 C1245 1.376 . S
C1242 C1240 1.394 . S
C1242 C1243 1.369 . S
C1242 C1246 1.531 . S
C1243 C1242 1.369 . S
C1243 C1244 1.410 . S
C1243 C1251 1.503 . S
C1244 C1243 1.410 . S
C1244 C1245 1.392 . S
C1244 C1247 1.511 . S
C1245 C1241 1.376 . S
C1245 C1244 1.392 . S
C1245 H1257 0.929 . S
C1246 C1242 1.531 . S
C1246 H1258 0.960 . S
C1246 H1259 0.962 . S
C1246 H1260 0.960 . S
C1247 C1244 1.511 . S
C1247 H1261 0.961 . S
C1247 H1262 0.961 . S
C1247 H1263 0.961 . S
C1248 C1249 1.370 . S
C1248 C1250 1.363 . S
C1248 H1264 0.931 . S
C1249 C1248 1.370 . S
C1249 C1253 1.408 . S
C1250 C1248 1.363 . S
C1250 C1251 1.370 . S
C1250 C1254 1.524 . S
C1251 C1243 1.503 . S
C1251 C1250 1.370 . S
C1251 C1252 1.403 . S
C1252 C1251 1.403 . S
C1252 C1253 1.404 . S
C1252 C1255 1.539 . S
C1253 C1249 1.408 . S
C1253 C1252 1.404 . S
C1253 H1265 0.930 . S
C1254 C1250 1.524 . S
C1254 H1266 0.956 . S
C1254 H1267 0.961 . S
C1254 H1268 0.961 . S
C1255 C1252 1.539 . S
C1255 H1269 0.958 . S
C1255 H1270 0.961 . S
C1255 H1271 0.960 . S
H1256 C1240 0.931 . S
H1257 C1245 0.929 . S
H1258 C1246 0.960 . S
H1259 C1246 0.962 . S
H1260 C1246 0.960 . S
H1261 C1247 0.961 . S
H1262 C1247 0.961 . S
H1263 C1247 0.961 . S
H1264 C1248 0.931 . S
H1265 C1253 0.930 . S
H1266 C1254 0.956 . S
H1267 C1254 0.961 . S
H1268 C1254 0.961 . S
H1269 C1255 0.958 . S
H1270 C1255 0.961 . S
H1271 C1255 0.960 . S
C1272 C1273 1.391 . S
C1272 C1274 1.394 . S
C1272 H1288 0.931 . S
C1273 C1272 1.391 . S
C1273 C1277 1.376 . S
C1274 C1272 1.394 . S
C1274 C1275 1.369 . S
C1274 C1278 1.531 . S
C1275 C1274 1.369 . S
C1275 C1276 1.410 . S
C1275 C1283 1.503 . S
C1276 C1275 1.410 . S
C1276 C1277 1.392 . S
C1276 C1279 1.511 . S
C1277 C1273 1.376 . S
C1277 C1276 1.392 . S
C1277 H1289 0.929 . S
C1278 C1274 1.531 . S
C1278 H1290 0.960 . S
C1278 H1291 0.962 . S
C1278 H1292 0.960 . S
C1279 C1276 1.511 . S
C1279 H1293 0.961 . S
C1279 H1294 0.961 . S
C1279 H1295 0.961 . S
C1280 C1281 1.370 . S
C1280 C1282 1.363 . S
C1280 H1296 0.931 . S
C1281 C1280 1.370 . S
C1281 C1285 1.408 . S
C1282 C1280 1.363 . S
C1282 C1283 1.370 . S
C1282 C1286 1.524 . S
C1283 C1275 1.503 . S
C1283 C1282 1.370 . S
C1283 C1284 1.403 . S
C1284 C1283 1.403 . S
C1284 C1285 1.404 . S
C1284 C1287 1.539 . S
C1285 C1281 1.408 . S
C1285 C1284 1.404 . S
C1285 H1297 0.930 . S
C1286 C1282 1.524 . S
C1286 H1298 0.956 . S
C1286 H1299 0.961 . S
C1286 H1300 0.961 . S
C1287 C1284 1.539 . S
C1287 H1301 0.958 . S
C1287 H1302 0.961 . S
C1287 H1303 0.960 . S
H1288 C1272 0.931 . S
H1289 C1277 0.929 . S
H1290 C1278 0.960 . S
H1291 C1278 0.962 . S
H1292 C1278 0.960 . S
H1293 C1279 0.961 . S
H1294 C1279 0.961 . S
H1295 C1279 0.961 . S
H1296 C1280 0.931 . S
H1297 C1285 0.930 . S
H1298 C1286 0.956 . S
H1299 C1286 0.961 . S
H1300 C1286 0.961 . S
H1301 C1287 0.958 . S
H1302 C1287 0.961 . S
H1303 C1287 0.960 . S
C1304 C1305 1.391 . S
C1304 C1306 1.394 . S
C1304 H1320 0.931 . S
C1305 C1304 1.391 . S
C1305 C1309 1.376 . S
C1306 C1304 1.394 . S
C1306 C1307 1.369 . S
C1306 C1310 1.531 . S
C1307 C1306 1.369 . S
C1307 C1308 1.410 . S
C1307 C1315 1.503 . S
C1308 C1307 1.410 . S
C1308 C1309 1.392 . S
C1308 C1311 1.511 . S
C1309 C1305 1.376 . S
C1309 C1308 1.392 . S
C1309 H1321 0.929 . S
C1310 C1306 1.531 . S
C1310 H1322 0.960 . S
C1310 H1323 0.962 . S
C1310 H1324 0.960 . S
C1311 C1308 1.511 . S
C1311 H1325 0.961 . S
C1311 H1326 0.961 . S
C1311 H1327 0.961 . S
C1312 C1313 1.370 . S
C1312 C1314 1.363 . S
C1312 H1328 0.931 . S
C1313 C1312 1.370 . S
C1313 C1317 1.408 . S
C1314 C1312 1.363 . S
C1314 C1315 1.370 . S
C1314 C1318 1.524 . S
C1315 C1307 1.503 . S
C1315 C1314 1.370 . S
C1315 C1316 1.403 . S
C1316 C1315 1.403 . S
C1316 C1317 1.404 . S
C1316 C1319 1.539 . S
C1317 C1313 1.408 . S
C1317 C1316 1.404 . S
C1317 H1329 0.930 . S
C1318 C1314 1.524 . S
C1318 H1330 0.956 . S
C1318 H1331 0.961 . S
C1318 H1332 0.961 . S
C1319 C1316 1.539 . S
C1319 H1333 0.958 . S
C1319 H1334 0.961 . S
C1319 H1335 0.960 . S
H1320 C1304 0.931 . S
H1321 C1309 0.929 . S
H1322 C1310 0.960 . S
H1323 C1310 0.962 . S
H1324 C1310 0.960 . S
H1325 C1311 0.961 . S
H1326 C1311 0.961 . S
H1327 C1311 0.961 . S
H1328 C1312 0.931 . S
H1329 C1317 0.930 . S
H1330 C1318 0.956 . S
H1331 C1318 0.961 . S
H1332 C1318 0.961 . S
H1333 C1319 0.958 . S
H1334 C1319 0.961 . S
H1335 C1319 0.960 . S
C1336 C1337 1.391 . S
C1336 C1338 1.394 . S
C1336 H1352 0.931 . S
C1337 C1336 1.391 . S
C1337 C1341 1.376 . S
C1338 C1336 1.394 . S
C1338 C1339 1.369 . S
C1338 C1342 1.531 . S
C1339 C1338 1.369 . S
C1339 C1340 1.410 . S
C1339 C1347 1.503 . S
C1340 C1339 1.410 . S
C1340 C1341 1.392 . S
C1340 C1343 1.511 . S
C1341 C1337 1.376 . S
C1341 C1340 1.392 . S
C1341 H1353 0.929 . S
C1342 C1338 1.531 . S
C1342 H1354 0.960 . S
C1342 H1355 0.962 . S
C1342 H1356 0.960 . S
C1343 C1340 1.511 . S
C1343 H1357 0.961 . S
C1343 H1358 0.961 . S
C1343 H1359 0.961 . S
C1344 C1345 1.370 . S
C1344 C1346 1.363 . S
C1344 H1360 0.931 . S
C1345 C1344 1.370 . S
C1345 C1349 1.408 . S
C1346 C1344 1.363 . S
C1346 C1347 1.370 . S
C1346 C1350 1.524 . S
C1347 C1339 1.503 . S
C1347 C1346 1.370 . S
C1347 C1348 1.403 . S
C1348 C1347 1.403 . S
C1348 C1349 1.404 . S
C1348 C1351 1.539 . S
C1349 C1345 1.408 . S
C1349 C1348 1.404 . S
C1349 H1361 0.930 . S
C1350 C1346 1.524 . S
C1350 H1362 0.956 . S
C1350 H1363 0.961 . S
C1350 H1364 0.961 . S
C1351 C1348 1.539 . S
C1351 H1365 0.958 . S
C1351 H1366 0.961 . S
C1351 H1367 0.960 . S
H1352 C1336 0.931 . S
H1353 C1341 0.929 . S
H1354 C1342 0.960 . S
H1355 C1342 0.962 . S
H1356 C1342 0.960 . S
H1357 C1343 0.961 . S
H1358 C1343 0.961 . S
H1359 C1343 0.961 . S
H1360 C1344 0.931 . S
H1361 C1349 0.930 . S
H1362 C1350 0.956 . S
H1363 C1350 0.961 . S
H1364 C1350 0.961 . S
H1365 C1351 0.958 . S
H1366 C1351 0.961 . S
H1367 C1351 0.960 . S
C1368 C1369 1.391 . S
C1368 C1370 1.394 . S
C1368 H1384 0.931 . S
C1369 C1368 1.391 . S
C1369 C1373 1.376 . S
C1370 C1368 1.394 . S
C1370 C1371 1.369 . S
C1370 C1374 1.531 . S
C1371 C1370 1.369 . S
C1371 C1372 1.410 . S
C1371 C1379 1.503 . S
C1372 C1371 1.410 . S
C1372 C1373 1.392 . S
C1372 C1375 1.511 . S
C1373 C1369 1.376 . S
C1373 C1372 1.392 . S
C1373 H1385 0.929 . S
C1374 C1370 1.531 . S
C1374 H1386 0.960 . S
C1374 H1387 0.962 . S
C1374 H1388 0.960 . S
C1375 C1372 1.511 . S
C1375 H1389 0.961 . S
C1375 H1390 0.961 . S
C1375 H1391 0.961 . S
C1376 C1377 1.370 . S
C1376 C1378 1.363 . S
C1376 H1392 0.931 . S
C1377 C1376 1.370 . S
C1377 C1381 1.408 . S
C1378 C1376 1.363 . S
C1378 C1379 1.370 . S
C1378 C1382 1.524 . S
C1379 C1371 1.503 . S
C1379 C1378 1.370 . S
C1379 C1380 1.403 . S
C1380 C1379 1.403 . S
C1380 C1381 1.404 . S
C1380 C1383 1.539 . S
C1381 C1377 1.408 . S
C1381 C1380 1.404 . S
C1381 H1393 0.930 . S
C1382 C1378 1.524 . S
C1382 H1394 0.956 . S
C1382 H1395 0.961 . S
C1382 H1396 0.961 . S
C1383 C1380 1.539 . S
C1383 H1397 0.958 . S
C1383 H1398 0.961 . S
C1383 H1399 0.960 . S
H1384 C1368 0.931 . S
H1385 C1373 0.929 . S
H1386 C1374 0.960 . S
H1387 C1374 0.962 . S
H1388 C1374 0.960 . S
H1389 C1375 0.961 . S
H1390 C1375 0.961 . S
H1391 C1375 0.961 . S
H1392 C1376 0.931 . S
H1393 C1381 0.930 . S
H1394 C1382 0.956 . S
H1395 C1382 0.961 . S
H1396 C1382 0.961 . S
H1397 C1383 0.958 . S
H1398 C1383 0.961 . S
H1399 C1383 0.960 . S
C1400 C1401 1.391 . S
C1400 C1402 1.394 . S
C1400 H1416 0.931 . S
C1401 C1400 1.391 . S
C1401 C1405 1.376 . S
C1402 C1400 1.394 . S
C1402 C1403 1.369 . S
C1402 C1406 1.531 . S
C1403 C1402 1.369 . S
C1403 C1404 1.410 . S
C1403 C1411 1.503 . S
C1404 C1403 1.410 . S
C1404 C1405 1.392 . S
C1404 C1407 1.511 . S
C1405 C1401 1.376 . S
C1405 C1404 1.392 . S
C1405 H1417 0.929 . S
C1406 C1402 1.531 . S
C1406 H1418 0.960 . S
C1406 H1419 0.962 . S
C1406 H1420 0.960 . S
C1407 C1404 1.511 . S
C1407 H1421 0.961 . S
C1407 H1422 0.961 . S
C1407 H1423 0.961 . S
C1408 C1409 1.370 . S
C1408 C1410 1.363 . S
C1408 H1424 0.931 . S
C1409 C1408 1.370 . S
C1409 C1413 1.408 . S
C1410 C1408 1.363 . S
C1410 C1411 1.370 . S
C1410 C1414 1.524 . S
C1411 C1403 1.503 . S
C1411 C1410 1.370 . S
C1411 C1412 1.403 . S
C1412 C1411 1.403 . S
C1412 C1413 1.404 . S
C1412 C1415 1.539 . S
C1413 C1409 1.408 . S
C1413 C1412 1.404 . S
C1413 H1425 0.930 . S
C1414 C1410 1.524 . S
C1414 H1426 0.956 . S
C1414 H1427 0.961 . S
C1414 H1428 0.961 . S
C1415 C1412 1.539 . S
C1415 H1429 0.958 . S
C1415 H1430 0.961 . S
C1415 H1431 0.960 . S
H1416 C1400 0.931 . S
H1417 C1405 0.929 . S
H1418 C1406 0.960 . S
H1419 C1406 0.962 . S
H1420 C1406 0.960 . S
H1421 C1407 0.961 . S
H1422 C1407 0.961 . S
H1423 C1407 0.961 . S
H1424 C1408 0.931 . S
H1425 C1413 0.930 . S
H1426 C1414 0.956 . S
H1427 C1414 0.961 . S
H1428 C1414 0.961 . S
H1429 C1415 0.958 . S
H1430 C1415 0.961 . S
H1431 C1415 0.960 . S
C1432 C1433 1.391 . S
C1432 C1434 1.394 . S
C1432 H1448 0.931 . S
C1433 C1432 1.391 . S
C1433 C1437 1.376 . S
C1434 C1432 1.394 . S
C1434 C1435 1.369 . S
C1434 C1438 1.531 . S
C1435 C1434 1.369 . S
C1435 C1436 1.410 . S
C1435 C1443 1.503 . S
C1436 C1435 1.410 . S
C1436 C1437 1.392 . S
C1436 C1439 1.511 . S
C1437 C1433 1.376 . S
C1437 C1436 1.392 . S
C1437 H1449 0.929 . S
C1438 C1434 1.531 . S
C1438 H1450 0.960 . S
C1438 H1451 0.962 . S
C1438 H1452 0.960 . S
C1439 C1436 1.511 . S
C1439 H1453 0.961 . S
C1439 H1454 0.961 . S
C1439 H1455 0.961 . S
C1440 C1441 1.370 . S
C1440 C1442 1.363 . S
C1440 H1456 0.931 . S
C1441 C1440 1.370 . S
C1441 C1445 1.408 . S
C1442 C1440 1.363 . S
C1442 C1443 1.370 . S
C1442 C1446 1.524 . S
C1443 C1435 1.503 . S
C1443 C1442 1.370 . S
C1443 C1444 1.403 . S
C1444 C1443 1.403 . S
C1444 C1445 1.404 . S
C1444 C1447 1.539 . S
C1445 C1441 1.408 . S
C1445 C1444 1.404 . S
C1445 H1457 0.930 . S
C1446 C1442 1.524 . S
C1446 H1458 0.956 . S
C1446 H1459 0.961 . S
C1446 H1460 0.961 . S
C1447 C1444 1.539 . S
C1447 H1461 0.958 . S
C1447 H1462 0.961 . S
C1447 H1463 0.960 . S
H1448 C1432 0.931 . S
H1449 C1437 0.929 . S
H1450 C1438 0.960 . S
H1451 C1438 0.962 . S
H1452 C1438 0.960 . S
H1453 C1439 0.961 . S
H1454 C1439 0.961 . S
H1455 C1439 0.961 . S
H1456 C1440 0.931 . S
H1457 C1445 0.930 . S
H1458 C1446 0.956 . S
H1459 C1446 0.961 . S
H1460 C1446 0.961 . S
H1461 C1447 0.958 . S
H1462 C1447 0.961 . S
H1463 C1447 0.960 . S
C1464 C1465 1.391 . S
C1464 C1466 1.394 . S
C1464 H1480 0.931 . S
C1465 C1464 1.391 . S
C1465 C1469 1.376 . S
C1466 C1464 1.394 . S
C1466 C1467 1.369 . S
C1466 C1470 1.531 . S
C1467 C1466 1.369 . S
C1467 C1468 1.410 . S
C1467 C1475 1.503 . S
C1468 C1467 1.410 . S
C1468 C1469 1.392 . S
C1468 C1471 1.511 . S
C1469 C1465 1.376 . S
C1469 C1468 1.392 . S
C1469 H1481 0.929 . S
C1470 C1466 1.531 . S
C1470 H1482 0.960 . S
C1470 H1483 0.962 . S
C1470 H1484 0.960 . S
C1471 C1468 1.511 . S
C1471 H1485 0.961 . S
C1471 H1486 0.961 . S
C1471 H1487 0.961 . S
C1472 C1473 1.370 . S
C1472 C1474 1.363 . S
C1472 H1488 0.931 . S
C1473 C1472 1.370 . S
C1473 C1477 1.408 . S
C1474 C1472 1.363 . S
C1474 C1475 1.370 . S
C1474 C1478 1.524 . S
C1475 C1467 1.503 . S
C1475 C1474 1.370 . S
C1475 C1476 1.403 . S
C1476 C1475 1.403 . S
C1476 C1477 1.404 . S
C1476 C1479 1.539 . S
C1477 C1473 1.408 . S
C1477 C1476 1.404 . S
C1477 H1489 0.930 . S
C1478 C1474 1.524 . S
C1478 H1490 0.956 . S
C1478 H1491 0.961 . S
C1478 H1492 0.961 . S
C1479 C1476 1.539 . S
C1479 H1493 0.958 . S
C1479 H1494 0.961 . S
C1479 H1495 0.960 . S
H1480 C1464 0.931 . S
H1481 C1469 0.929 . S
H1482 C1470 0.960 . S
H1483 C1470 0.962 . S
H1484 C1470 0.960 . S
H1485 C1471 0.961 . S
H1486 C1471 0.961 . S
H1487 C1471 0.961 . S
H1488 C1472 0.931 . S
H1489 C1477 0.930 . S
H1490 C1478 0.956 . S
H1491 C1478 0.961 . S
H1492 C1478 0.961 . S
H1493 C1479 0.958 . S
H1494 C1479 0.961 . S
H1495 C1479 0.960 . S
C1496 C1497 1.391 . S
C1496 C1498 1.394 . S
C1496 H1512 0.931 . S
C1497 C1496 1.391 . S
C1497 C1501 1.376 . S
C1498 C1496 1.394 . S
C1498 C1499 1.369 . S
C1498 C1502 1.531 . S
C1499 C1498 1.369 . S
C1499 C1500 1.410 . S
C1499 C1507 1.503 . S
C1500 C1499 1.410 . S
C1500 C1501 1.392 . S
C1500 C1503 1.511 . S
C1501 C1497 1.376 . S
C1501 C1500 1.392 . S
C1501 H1513 0.929 . S
C1502 C1498 1.531 . S
C1502 H1514 0.960 . S
C1502 H1515 0.962 . S
C1502 H1516 0.960 . S
C1503 C1500 1.511 . S
C1503 H1517 0.961 . S
C1503 H1518 0.961 . S
C1503 H1519 0.961 . S
C1504 C1505 1.370 . S
C1504 C1506 1.363 . S
C1504 H1520 0.931 . S
C1505 C1504 1.370 . S
C1505 C1509 1.408 . S
C1506 C1504 1.363 . S
C1506 C1507 1.370 . S
C1506 C1510 1.524 . S
C1507 C1499 1.503 . S
C1507 C1506 1.370 . S
C1507 C1508 1.403 . S
C1508 C1507 1.403 . S
C1508 C1509 1.404 . S
C1508 C1511 1.539 . S
C1509 C1505 1.408 . S
C1509 C1508 1.404 . S
C1509 H1521 0.930 . S
C1510 C1506 1.524 . S
C1510 H1522 0.956 . S
C1510 H1523 0.961 . S
C1510 H1524 0.961 . S
C1511 C1508 1.539 . S
C1511 H1525 0.958 . S
C1511 H1526 0.961 . S
C1511 H1527 0.960 . S
H1512 C1496 0.931 . S
H1513 C1501 0.929 . S
H1514 C1502 0.960 . S
H1515 C1502 0.962 . S
H1516 C1502 0.960 . S
H1517 C1503 0.961 . S
H1518 C1503 0.961 . S
H1519 C1503 0.961 . S
H1520 C1504 0.931 . S
H1521 C1509 0.930 . S
H1522 C1510 0.956 . S
H1523 C1510 0.961 . S
H1524 C1510 0.961 . S
H1525 C1511 0.958 . S
H1526 C1511 0.961 . S
H1527 C1511 0.960 . S
C1528 C1529 1.391 . S
C1528 C1530 1.394 . S
C1528 H1544 0.931 . S
C1529 C1528 1.391 . S
C1529 C1533 1.376 . S
C1530 C1528 1.394 . S
C1530 C1531 1.369 . S
C1530 C1534 1.531 . S
C1531 C1530 1.369 . S
C1531 C1532 1.410 . S
C1531 C1539 1.503 . S
C1532 C1531 1.410 . S
C1532 C1533 1.392 . S
C1532 C1535 1.511 . S
C1533 C1529 1.376 . S
C1533 C1532 1.392 . S
C1533 H1545 0.929 . S
C1534 C1530 1.531 . S
C1534 H1546 0.960 . S
C1534 H1547 0.962 . S
C1534 H1548 0.960 . S
C1535 C1532 1.511 . S
C1535 H1549 0.961 . S
C1535 H1550 0.961 . S
C1535 H1551 0.961 . S
C1536 C1537 1.370 . S
C1536 C1538 1.363 . S
C1536 H1552 0.931 . S
C1537 C1536 1.370 . S
C1537 C1541 1.408 . S
C1538 C1536 1.363 . S
C1538 C1539 1.370 . S
C1538 C1542 1.524 . S
C1539 C1531 1.503 . S
C1539 C1538 1.370 . S
C1539 C1540 1.403 . S
C1540 C1539 1.403 . S
C1540 C1541 1.404 . S
C1540 C1543 1.539 . S
C1541 C1537 1.408 . S
C1541 C1540 1.404 . S
C1541 H1553 0.930 . S
C1542 C1538 1.524 . S
C1542 H1554 0.956 . S
C1542 H1555 0.961 . S
C1542 H1556 0.961 . S
C1543 C1540 1.539 . S
C1543 H1557 0.958 . S
C1543 H1558 0.961 . S
C1543 H1559 0.960 . S
H1544 C1528 0.931 . S
H1545 C1533 0.929 . S
H1546 C1534 0.960 . S
H1547 C1534 0.962 . S
H1548 C1534 0.960 . S
H1549 C1535 0.961 . S
H1550 C1535 0.961 . S
H1551 C1535 0.961 . S
H1552 C1536 0.931 . S
H1553 C1541 0.930 . S
H1554 C1542 0.956 . S
H1555 C1542 0.961 . S
H1556 C1542 0.961 . S
H1557 C1543 0.958 . S
H1558 C1543 0.961 . S
H1559 C1543 0.960 . S
C1560 C1561 1.391 . S
C1560 C1562 1.394 . S
C1560 H1576 0.931 . S
C1561 C1560 1.391 . S
C1561 C1565 1.376 . S
C1562 C1560 1.394 . S
C1562 C1563 1.369 . S
C1562 C1566 1.531 . S
C1563 C1562 1.369 . S
C1563 C1564 1.410 . S
C1563 C1571 1.503 . S
C1564 C1563 1.410 . S
C1564 C1565 1.392 . S
C1564 C1567 1.511 . S
C1565 C1561 1.376 . S
C1565 C1564 1.392 . S
C1565 H1577 0.929 . S
C1566 C1562 1.531 . S
C1566 H1578 0.960 . S
C1566 H1579 0.962 . S
C1566 H1580 0.960 . S
C1567 C1564 1.511 . S
C1567 H1581 0.961 . S
C1567 H1582 0.961 . S
C1567 H1583 0.961 . S
C1568 C1569 1.370 . S
C1568 C1570 1.363 . S
C1568 H1584 0.931 . S
C1569 C1568 1.370 . S
C1569 C1573 1.408 . S
C1570 C1568 1.363 . S
C1570 C1571 1.370 . S
C1570 C1574 1.524 . S
C1571 C1563 1.503 . S
C1571 C1570 1.370 . S
C1571 C1572 1.403 . S
C1572 C1571 1.403 . S
C1572 C1573 1.404 . S
C1572 C1575 1.539 . S
C1573 C1569 1.408 . S
C1573 C1572 1.404 . S
C1573 H1585 0.930 . S
C1574 C1570 1.524 . S
C1574 H1586 0.956 . S
C1574 H1587 0.961 . S
C1574 H1588 0.961 . S
C1575 C1572 1.539 . S
C1575 H1589 0.958 . S
C1575 H1590 0.961 . S
C1575 H1591 0.960 . S
H1576 C1560 0.931 . S
H1577 C1565 0.929 . S
H1578 C1566 0.960 . S
H1579 C1566 0.962 . S
H1580 C1566 0.960 . S
H1581 C1567 0.961 . S
H1582 C1567 0.961 . S
H1583 C1567 0.961 . S
H1584 C1568 0.931 . S
H1585 C1573 0.930 . S
H1586 C1574 0.956 . S
H1587 C1574 0.961 . S
H1588 C1574 0.961 . S
H1589 C1575 0.958 . S
H1590 C1575 0.961 . S
H1591 C1575 0.960 . S
C1592 C1593 1.391 . S
C1592 C1594 1.394 . S
C1592 H1608 0.931 . S
C1593 C1592 1.391 . S
C1593 C1597 1.376 . S
C1594 C1592 1.394 . S
C1594 C1595 1.369 . S
C1594 C1598 1.531 . S
C1595 C1594 1.369 . S
C1595 C1596 1.410 . S
C1595 C1603 1.503 . S
C1596 C1595 1.410 . S
C1596 C1597 1.392 . S
C1596 C1599 1.511 . S
C1597 C1593 1.376 . S
C1597 C1596 1.392 . S
C1597 H1609 0.929 1_455 S
C1598 C1594 1.531 . S
C1598 H1610 0.960 . S
C1598 H1611 0.962 . S
C1598 H1612 0.960 . S
C1599 C1596 1.511 . S
C1599 H1613 0.961 1_455 S
C1599 H1614 0.961 . S
C1599 H1615 0.961 . S
C1600 C1601 1.370 . S
C1600 C1602 1.363 . S
C1600 H1616 0.931 . S
C1601 C1600 1.370 . S
C1601 C1605 1.408 . S
C1602 C1600 1.363 . S
C1602 C1603 1.370 . S
C1602 C1606 1.524 . S
C1603 C1595 1.503 . S
C1603 C1602 1.370 . S
C1603 C1604 1.403 . S
C1604 C1603 1.403 . S
C1604 C1605 1.404 . S
C1604 C1607 1.539 . S
C1605 C1601 1.408 . S
C1605 C1604 1.404 . S
C1605 H1617 0.930 . S
C1606 C1602 1.524 . S
C1606 H1618 0.956 . S
C1606 H1619 0.961 . S
C1606 H1620 0.961 . S
C1607 C1604 1.539 . S
C1607 H1621 0.958 . S
C1607 H1622 0.961 . S
C1607 H1623 0.960 . S
H1608 C1592 0.931 . S
H1609 C1597 0.929 1_655 S
H1610 C1598 0.960 . S
H1611 C1598 0.962 . S
H1612 C1598 0.960 . S
H1613 C1599 0.961 1_655 S
H1614 C1599 0.961 . S
H1615 C1599 0.961 . S
H1616 C1600 0.931 . S
H1617 C1605 0.930 . S
H1618 C1606 0.956 . S
H1619 C1606 0.961 . S
H1620 C1606 0.961 . S
H1621 C1607 0.958 . S
H1622 C1607 0.961 . S
H1623 C1607 0.960 . S
C1624 C1625 1.391 . S
C1624 C1626 1.394 . S
C1624 H1640 0.931 . S
C1625 C1624 1.391 . S
C1625 C1629 1.376 . S
C1626 C1624 1.394 . S
C1626 C1627 1.369 . S
C1626 C1630 1.531 . S
C1627 C1626 1.369 . S
C1627 C1628 1.410 . S
C1627 C1635 1.503 . S
C1628 C1627 1.410 . S
C1628 C1629 1.392 . S
C1628 C1631 1.511 . S
C1629 C1625 1.376 . S
C1629 C1628 1.392 . S
C1629 H1641 0.929 . S
C1630 C1626 1.531 . S
C1630 H1642 0.960 . S
C1630 H1643 0.962 . S
C1630 H1644 0.960 . S
C1631 C1628 1.511 . S
C1631 H1645 0.961 . S
C1631 H1646 0.961 . S
C1631 H1647 0.961 . S
C1632 C1633 1.370 . S
C1632 C1634 1.363 . S
C1632 H1648 0.931 . S
C1633 C1632 1.370 . S
C1633 C1637 1.408 . S
C1634 C1632 1.363 . S
C1634 C1635 1.370 . S
C1634 C1638 1.524 . S
C1635 C1627 1.503 . S
C1635 C1634 1.370 . S
C1635 C1636 1.403 . S
C1636 C1635 1.403 . S
C1636 C1637 1.404 . S
C1636 C1639 1.539 . S
C1637 C1633 1.408 . S
C1637 C1636 1.404 . S
C1637 H1649 0.930 . S
C1638 C1634 1.524 . S
C1638 H1650 0.956 . S
C1638 H1651 0.961 . S
C1638 H1652 0.961 . S
C1639 C1636 1.539 . S
C1639 H1653 0.958 . S
C1639 H1654 0.961 . S
C1639 H1655 0.960 . S
H1640 C1624 0.931 . S
H1641 C1629 0.929 . S
H1642 C1630 0.960 . S
H1643 C1630 0.962 . S
H1644 C1630 0.960 . S
H1645 C1631 0.961 . S
H1646 C1631 0.961 . S
H1647 C1631 0.961 . S
H1648 C1632 0.931 . S
H1649 C1637 0.930 . S
H1650 C1638 0.956 . S
H1651 C1638 0.961 . S
H1652 C1638 0.961 . S
H1653 C1639 0.958 . S
H1654 C1639 0.961 . S
H1655 C1639 0.960 . S
C1656 C1657 1.391 . S
C1656 C1658 1.394 . S
C1656 H1672 0.931 . S
C1657 C1656 1.391 . S
C1657 C1661 1.376 . S
C1658 C1656 1.394 . S
C1658 C1659 1.369 . S
C1658 C1662 1.531 . S
C1659 C1658 1.369 . S
C1659 C1660 1.410 . S
C1659 C1667 1.503 . S
C1660 C1659 1.410 . S
C1660 C1661 1.392 . S
C1660 C1663 1.511 . S
C1661 C1657 1.376 . S
C1661 C1660 1.392 . S
C1661 H1673 0.929 . S
C1662 C1658 1.531 . S
C1662 H1674 0.960 . S
C1662 H1675 0.962 . S
C1662 H1676 0.960 . S
C1663 C1660 1.511 . S
C1663 H1677 0.961 . S
C1663 H1678 0.961 . S
C1663 H1679 0.961 . S
C1664 C1665 1.370 . S
C1664 C1666 1.363 . S
C1664 H1680 0.931 . S
C1665 C1664 1.370 . S
C1665 C1669 1.408 . S
C1666 C1664 1.363 . S
C1666 C1667 1.370 . S
C1666 C1670 1.524 . S
C1667 C1659 1.503 . S
C1667 C1666 1.370 . S
C1667 C1668 1.403 . S
C1668 C1667 1.403 . S
C1668 C1669 1.404 . S
C1668 C1671 1.539 . S
C1669 C1665 1.408 . S
C1669 C1668 1.404 . S
C1669 H1681 0.930 . S
C1670 C1666 1.524 . S
C1670 H1682 0.956 . S
C1670 H1683 0.961 . S
C1670 H1684 0.961 . S
C1671 C1668 1.539 . S
C1671 H1685 0.958 . S
C1671 H1686 0.961 . S
C1671 H1687 0.960 . S
H1672 C1656 0.931 . S
H1673 C1661 0.929 . S
H1674 C1662 0.960 . S
H1675 C1662 0.962 . S
H1676 C1662 0.960 . S
H1677 C1663 0.961 . S
H1678 C1663 0.961 . S
H1679 C1663 0.961 . S
H1680 C1664 0.931 . S
H1681 C1669 0.930 . S
H1682 C1670 0.956 . S
H1683 C1670 0.961 . S
H1684 C1670 0.961 . S
H1685 C1671 0.958 . S
H1686 C1671 0.961 . S
H1687 C1671 0.960 . S
C1688 C1689 1.391 . S
C1688 C1690 1.394 . S
C1688 H1704 0.931 . S
C1689 C1688 1.391 . S
C1689 C1693 1.376 . S
C1690 C1688 1.394 . S
C1690 C1691 1.369 . S
C1690 C1694 1.531 . S
C1691 C1690 1.369 . S
C1691 C1692 1.410 . S
C1691 C1699 1.503 . S
C1692 C1691 1.410 . S
C1692 C1693 1.392 . S
C1692 C1695 1.511 . S
C1693 C1689 1.376 . S
C1693 C1692 1.392 . S
C1693 H1705 0.929 . S
C1694 C1690 1.531 . S
C1694 H1706 0.960 . S
C1694 H1707 0.962 . S
C1694 H1708 0.960 . S
C1695 C1692 1.511 . S
C1695 H1709 0.961 . S
C1695 H1710 0.961 . S
C1695 H1711 0.961 . S
C1696 C1697 1.370 . S
C1696 C1698 1.363 . S
C1696 H1712 0.931 . S
C1697 C1696 1.370 . S
C1697 C1701 1.408 . S
C1698 C1696 1.363 . S
C1698 C1699 1.370 . S
C1698 C1702 1.524 . S
C1699 C1691 1.503 . S
C1699 C1698 1.370 . S
C1699 C1700 1.403 . S
C1700 C1699 1.403 . S
C1700 C1701 1.404 . S
C1700 C1703 1.539 . S
C1701 C1697 1.408 . S
C1701 C1700 1.404 . S
C1701 H1713 0.930 . S
C1702 C1698 1.524 . S
C1702 H1714 0.956 . S
C1702 H1715 0.961 . S
C1702 H1716 0.961 . S
C1703 C1700 1.539 . S
C1703 H1717 0.958 . S
C1703 H1718 0.961 . S
C1703 H1719 0.960 . S
H1704 C1688 0.931 . S
H1705 C1693 0.929 . S
H1706 C1694 0.960 . S
H1707 C1694 0.962 . S
H1708 C1694 0.960 . S
H1709 C1695 0.961 . S
H1710 C1695 0.961 . S
H1711 C1695 0.961 . S
H1712 C1696 0.931 . S
H1713 C1701 0.930 . S
H1714 C1702 0.956 . S
H1715 C1702 0.961 . S
H1716 C1702 0.961 . S
H1717 C1703 0.958 . S
H1718 C1703 0.961 . S
H1719 C1703 0.960 . S
C1720 C1721 1.391 . S
C1720 C1722 1.394 . S
C1720 H1736 0.931 . S
C1721 C1720 1.391 . S
C1721 C1725 1.376 . S
C1722 C1720 1.394 . S
C1722 C1723 1.369 . S
C1722 C1726 1.531 . S
C1723 C1722 1.369 . S
C1723 C1724 1.410 . S
C1723 C1731 1.503 . S
C1724 C1723 1.410 . S
C1724 C1725 1.392 . S
C1724 C1727 1.511 . S
C1725 C1721 1.376 . S
C1725 C1724 1.392 . S
C1725 H1737 0.929 . S
C1726 C1722 1.531 . S
C1726 H1738 0.960 . S
C1726 H1739 0.962 . S
C1726 H1740 0.960 . S
C1727 C1724 1.511 . S
C1727 H1741 0.961 . S
C1727 H1742 0.961 . S
C1727 H1743 0.961 . S
C1728 C1729 1.370 . S
C1728 C1730 1.363 . S
C1728 H1744 0.931 . S
C1729 C1728 1.370 . S
C1729 C1733 1.408 . S
C1730 C1728 1.363 . S
C1730 C1731 1.370 . S
C1730 C1734 1.524 . S
C1731 C1723 1.503 . S
C1731 C1730 1.370 . S
C1731 C1732 1.403 . S
C1732 C1731 1.403 . S
C1732 C1733 1.404 . S
C1732 C1735 1.539 . S
C1733 C1729 1.408 . S
C1733 C1732 1.404 . S
C1733 H1745 0.930 . S
C1734 C1730 1.524 . S
C1734 H1746 0.956 . S
C1734 H1747 0.961 . S
C1734 H1748 0.961 . S
C1735 C1732 1.539 . S
C1735 H1749 0.958 . S
C1735 H1750 0.961 . S
C1735 H1751 0.960 . S
H1736 C1720 0.931 . S
H1737 C1725 0.929 . S
H1738 C1726 0.960 . S
H1739 C1726 0.962 . S
H1740 C1726 0.960 . S
H1741 C1727 0.961 . S
H1742 C1727 0.961 . S
H1743 C1727 0.961 . S
H1744 C1728 0.931 . S
H1745 C1733 0.930 . S
H1746 C1734 0.956 . S
H1747 C1734 0.961 . S
H1748 C1734 0.961 . S
H1749 C1735 0.958 . S
H1750 C1735 0.961 . S
H1751 C1735 0.960 . S
C1752 C1753 1.391 . S
C1752 C1754 1.394 . S
C1752 H1768 0.931 . S
C1753 C1752 1.391 . S
C1753 C1757 1.376 . S
C1754 C1752 1.394 . S
C1754 C1755 1.369 . S
C1754 C1758 1.531 . S
C1755 C1754 1.369 . S
C1755 C1756 1.410 . S
C1755 C1763 1.503 . S
C1756 C1755 1.410 . S
C1756 C1757 1.392 . S
C1756 C1759 1.511 . S
C1757 C1753 1.376 . S
C1757 C1756 1.392 . S
C1757 H1769 0.929 . S
C1758 C1754 1.531 . S
C1758 H1770 0.960 . S
C1758 H1771 0.962 . S
C1758 H1772 0.960 . S
C1759 C1756 1.511 . S
C1759 H1773 0.961 . S
C1759 H1774 0.961 . S
C1759 H1775 0.961 . S
C1760 C1761 1.370 . S
C1760 C1762 1.363 . S
C1760 H1776 0.931 . S
C1761 C1760 1.370 . S
C1761 C1765 1.408 . S
C1762 C1760 1.363 . S
C1762 C1763 1.370 . S
C1762 C1766 1.524 . S
C1763 C1755 1.503 . S
C1763 C1762 1.370 . S
C1763 C1764 1.403 . S
C1764 C1763 1.403 . S
C1764 C1765 1.404 . S
C1764 C1767 1.539 . S
C1765 C1761 1.408 . S
C1765 C1764 1.404 . S
C1765 H1777 0.930 . S
C1766 C1762 1.524 . S
C1766 H1778 0.956 . S
C1766 H1779 0.961 . S
C1766 H1780 0.961 . S
C1767 C1764 1.539 . S
C1767 H1781 0.958 . S
C1767 H1782 0.961 . S
C1767 H1783 0.960 . S
H1768 C1752 0.931 . S
H1769 C1757 0.929 . S
H1770 C1758 0.960 . S
H1771 C1758 0.962 . S
H1772 C1758 0.960 . S
H1773 C1759 0.961 . S
H1774 C1759 0.961 . S
H1775 C1759 0.961 . S
H1776 C1760 0.931 . S
H1777 C1765 0.930 . S
H1778 C1766 0.956 . S
H1779 C1766 0.961 . S
H1780 C1766 0.961 . S
H1781 C1767 0.958 . S
H1782 C1767 0.961 . S
H1783 C1767 0.960 . S
C1784 C1785 1.391 . S
C1784 C1786 1.394 . S
C1784 H1800 0.931 . S
C1785 C1784 1.391 . S
C1785 C1789 1.376 . S
C1786 C1784 1.394 . S
C1786 C1787 1.369 . S
C1786 C1790 1.531 . S
C1787 C1786 1.369 . S
C1787 C1788 1.410 . S
C1787 C1795 1.503 . S
C1788 C1787 1.410 . S
C1788 C1789 1.392 . S
C1788 C1791 1.511 . S
C1789 C1785 1.376 . S
C1789 C1788 1.392 . S
C1789 H1801 0.929 . S
C1790 C1786 1.531 . S
C1790 H1802 0.960 . S
C1790 H1803 0.962 . S
C1790 H1804 0.960 . S
C1791 C1788 1.511 . S
C1791 H1805 0.961 . S
C1791 H1806 0.961 . S
C1791 H1807 0.961 . S
C1792 C1793 1.370 . S
C1792 C1794 1.363 . S
C1792 H1808 0.931 . S
C1793 C1792 1.370 . S
C1793 C1797 1.408 . S
C1794 C1792 1.363 . S
C1794 C1795 1.370 . S
C1794 C1798 1.524 . S
C1795 C1787 1.503 . S
C1795 C1794 1.370 . S
C1795 C1796 1.403 . S
C1796 C1795 1.403 . S
C1796 C1797 1.404 . S
C1796 C1799 1.539 . S
C1797 C1793 1.408 . S
C1797 C1796 1.404 . S
C1797 H1809 0.930 . S
C1798 C1794 1.524 . S
C1798 H1810 0.956 . S
C1798 H1811 0.961 . S
C1798 H1812 0.961 . S
C1799 C1796 1.539 . S
C1799 H1813 0.958 . S
C1799 H1814 0.961 . S
C1799 H1815 0.960 . S
H1800 C1784 0.931 . S
H1801 C1789 0.929 . S
H1802 C1790 0.960 . S
H1803 C1790 0.962 . S
H1804 C1790 0.960 . S
H1805 C1791 0.961 . S
H1806 C1791 0.961 . S
H1807 C1791 0.961 . S
H1808 C1792 0.931 . S
H1809 C1797 0.930 . S
H1810 C1798 0.956 . S
H1811 C1798 0.961 . S
H1812 C1798 0.961 . S
H1813 C1799 0.958 . S
H1814 C1799 0.961 . S
H1815 C1799 0.960 . S
C1816 C1817 1.391 . S
C1816 C1818 1.394 . S
C1816 H1832 0.931 . S
C1817 C1816 1.391 . S
C1817 C1821 1.376 . S
C1818 C1816 1.394 . S
C1818 C1819 1.369 . S
C1818 C1822 1.531 . S
C1819 C1818 1.369 . S
C1819 C1820 1.410 . S
C1819 C1827 1.503 . S
C1820 C1819 1.410 . S
C1820 C1821 1.392 . S
C1820 C1823 1.511 . S
C1821 C1817 1.376 . S
C1821 C1820 1.392 . S
C1821 H1833 0.929 . S
C1822 C1818 1.531 . S
C1822 H1834 0.960 . S
C1822 H1835 0.962 . S
C1822 H1836 0.960 . S
C1823 C1820 1.511 . S
C1823 H1837 0.961 . S
C1823 H1838 0.961 . S
C1823 H1839 0.961 . S
C1824 C1825 1.370 . S
C1824 C1826 1.363 . S
C1824 H1840 0.931 . S
C1825 C1824 1.370 . S
C1825 C1829 1.408 . S
C1826 C1824 1.363 . S
C1826 C1827 1.370 . S
C1826 C1830 1.524 . S
C1827 C1819 1.503 . S
C1827 C1826 1.370 . S
C1827 C1828 1.403 . S
C1828 C1827 1.403 . S
C1828 C1829 1.404 . S
C1828 C1831 1.539 . S
C1829 C1825 1.408 . S
C1829 C1828 1.404 . S
C1829 H1841 0.930 . S
C1830 C1826 1.524 . S
C1830 H1842 0.956 . S
C1830 H1843 0.961 . S
C1830 H1844 0.961 . S
C1831 C1828 1.539 . S
C1831 H1845 0.958 . S
C1831 H1846 0.961 . S
C1831 H1847 0.960 . S
H1832 C1816 0.931 . S
H1833 C1821 0.929 . S
H1834 C1822 0.960 . S
H1835 C1822 0.962 . S
H1836 C1822 0.960 . S
H1837 C1823 0.961 . S
H1838 C1823 0.961 . S
H1839 C1823 0.961 . S
H1840 C1824 0.931 . S
H1841 C1829 0.930 . S
H1842 C1830 0.956 . S
H1843 C1830 0.961 . S
H1844 C1830 0.961 . S
H1845 C1831 0.958 . S
H1846 C1831 0.961 . S
H1847 C1831 0.960 . S
C313 C187 1.887 . S
C321 C4 1.889 . S
C345 C16 1.883 . S
C353 C199 1.888 . S
C377 C239 1.891 . S
C385 C31 1.895 . S
C409 C49 1.867 . S
C417 C173 1.874 . S
C441 C186 1.871 . S
C449 C62 1.873 . S
C473 C68 1.890 . S
C481 C200 1.895 . S
C505 C81 1.884 . S
C513 C238 1.888 . S
C537 C101 1.886 . S
C545 C174 1.891 . S
C569 C120 1.887 . S
C577 C114 1.889 . S
C601 C134 1.869 . S
C609 C127 1.873 . S
C633 C135 1.885 . S
C641 C147 1.888 . S
C665 C148 1.888 . S
C673 C107 1.894 . S
C697 C160 1.885 . S
C705 C42 1.890 . S
C729 C55 1.887 . S
C737 C212 1.890 . S
C761 C225 1.868 . S
C769 C23 1.873 . S
C793 C17 1.201 . S
C801 C283 1.204 . S
C825 C121 1.201 . S
C833 C10 1.204 . S
C857 C302 1.207 . S
C865 C44 1.207 . S
C889 C146 1.221 . S
C897 C29 1.221 . S
C921 C276 1.213 . S
C929 C96 1.218 . S
C953 C122 1.200 . S
C961 C83 1.206 . S
C985 C69 1.202 . S
C993 C309 1.205 . S
C1017 C56 1.201 . S
C1025 C153 1.204 . S
C1049 C205 1.201 . S
C1057 C257 1.204 . S
C1081 C211 1.221 . S
C1089 C198 1.221 . S
C1113 C179 1.202 . S
C1121 C218 1.205 . S
C1145 C250 1.208 . S
C1153 C172 1.208 . S
C1177 C36 1.200 . S
C1185 C264 1.204 . S
C1209 C140 1.201 . S
C1217 C95 1.204 . S
C1241 C3 1.212 . S
C1249 C289 1.218 . S
C1273 C252 1.883 . S
C1281 C30 1.888 . S
C1305 C5 1.892 . S
C1313 C213 1.895 . S
C1337 C251 1.868 . S
C1345 C88 1.875 . S
C1369 C161 1.889 . S
C1377 C94 1.894 . S
C1401 C75 1.885 . S
C1409 C226 1.889 . S
C1433 C277 1.885 . S
C1441 C263 1.890 . S
C1465 C303 1.867 . S
C1473 C270 1.873 . S
C1497 C290 1.883 . S
C1505 C304 1.890 . S
C1529 C278 1.888 . S
C1537 C291 1.894 . S
C1561 C108 1.203 . S
C1569 C43 1.205 . S
C1593 C18 1.202 . S
C1601 C133 1.205 . S
C1625 C70 1.214 . S
C1633 C109 1.220 . S
C1657 C265 1.200 . S
C1665 C57 1.206 . S
C1689 C82 1.201 . S
C1697 C296 1.204 . S
C1721 C166 1.202 . S
C1729 C192 1.205 . S
C1753 C237 1.218 . S
C1761 C159 1.219 . S
C1785 C231 1.201 . S
C1793 C244 1.205 . S
C1817 C185 1.200 . S
C1825 C224 1.206 . S
