# Generated by pormake.
# Topology uoa, (4)-cn, num edge types: 1
# Building blocks:
#     Node 0, Type 0, BuildingBlock: ICAMEG_clean_sbu_1, # of connection points: 4
#     Node 1, Type 0, BuildingBlock: ICAMEG_clean_sbu_1, # of connection points: 4
#     Node 2, Type 0, BuildingBlock: ICAMEG_clean_sbu_1, # of connection points: 4
#     Node 3, Type 0, BuildingBlock: ICAMEG_clean_sbu_1, # of connection points: 4
#     Node 4, Type 0, BuildingBlock: ICAMEG_clean_sbu_1, # of connection points: 4
#     Node 5, Type 0, BuildingBlock: ICAMEG_clean_sbu_1, # of connection points: 4
#     Node 6, Type 0, BuildingBlock: ICAMEG_clean_sbu_1, # of connection points: 4
#     Node 7, Type 0, BuildingBlock: ICAMEG_clean_sbu_1, # of connection points: 4
#     Node 8, Type 0, BuildingBlock: ICAMEG_clean_sbu_1, # of connection points: 4
#     Node 9, Type 0, BuildingBlock: ICAMEG_clean_sbu_1, # of connection points: 4
#     Node 10, Type 0, BuildingBlock: ICAMEG_clean_sbu_1, # of connection points: 4
#     Node 11, Type 0, BuildingBlock: ICAMEG_clean_sbu_1, # of connection points: 4
#     Node 12, Type 0, BuildingBlock: ICAMEG_clean_sbu_1, # of connection points: 4
#     Node 13, Type 0, BuildingBlock: ICAMEG_clean_sbu_1, # of connection points: 4
#     Node 14, Type 0, BuildingBlock: ICAMEG_clean_sbu_1, # of connection points: 4
#     Node 15, Type 0, BuildingBlock: ICAMEG_clean_sbu_1, # of connection points: 4
#     Node 16, Type 0, BuildingBlock: ICAMEG_clean_sbu_1, # of connection points: 4
#     Node 17, Type 0, BuildingBlock: ICAMEG_clean_sbu_1, # of connection points: 4
#     Node 18, Type 0, BuildingBlock: ICAMEG_clean_sbu_1, # of connection points: 4
#     Node 19, Type 0, BuildingBlock: ICAMEG_clean_sbu_1, # of connection points: 4
#     Node 20, Type 0, BuildingBlock: ICAMEG_clean_sbu_1, # of connection points: 4
#     Node 21, Type 0, BuildingBlock: ICAMEG_clean_sbu_1, # of connection points: 4
#     Node 22, Type 0, BuildingBlock: ICAMEG_clean_sbu_1, # of connection points: 4
#     Node 23, Type 0, BuildingBlock: ICAMEG_clean_sbu_1, # of connection points: 4
#     Node 24, Type 0, BuildingBlock: ICAMEG_clean_sbu_1, # of connection points: 4
#     Node 25, Type 0, BuildingBlock: ICAMEG_clean_sbu_1, # of connection points: 4
#     Node 26, Type 0, BuildingBlock: ICAMEG_clean_sbu_1, # of connection points: 4
#     Node 27, Type 0, BuildingBlock: ICAMEG_clean_sbu_1, # of connection points: 4
#     Node 28, Type 0, BuildingBlock: ICAMEG_clean_sbu_1, # of connection points: 4
#     Node 29, Type 0, BuildingBlock: ICAMEG_clean_sbu_1, # of connection points: 4
#     Node 30, Type 0, BuildingBlock: ICAMEG_clean_sbu_1, # of connection points: 4
#     Node 31, Type 0, BuildingBlock: ICAMEG_clean_sbu_1, # of connection points: 4
#     Edge 32, Type (0, 0), None
#     Edge 33, Type (0, 0), None
#     Edge 34, Type (0, 0), None
#     Edge 35, Type (0, 0), None
#     Edge 36, Type (0, 0), None
#     Edge 37, Type (0, 0), None
#     Edge 38, Type (0, 0), None
#     Edge 39, Type (0, 0), None
#     Edge 40, Type (0, 0), None
#     Edge 41, Type (0, 0), None
#     Edge 42, Type (0, 0), None
#     Edge 43, Type (0, 0), None
#     Edge 44, Type (0, 0), None
#     Edge 45, Type (0, 0), None
#     Edge 46, Type (0, 0), None
#     Edge 47, Type (0, 0), None
#     Edge 48, Type (0, 0), None
#     Edge 49, Type (0, 0), None
#     Edge 50, Type (0, 0), None
#     Edge 51, Type (0, 0), None
#     Edge 52, Type (0, 0), None
#     Edge 53, Type (0, 0), None
#     Edge 54, Type (0, 0), None
#     Edge 55, Type (0, 0), None
#     Edge 56, Type (0, 0), None
#     Edge 57, Type (0, 0), None
#     Edge 58, Type (0, 0), None
#     Edge 59, Type (0, 0), None
#     Edge 60, Type (0, 0), None
#     Edge 61, Type (0, 0), None
#     Edge 62, Type (0, 0), None
#     Edge 63, Type (0, 0), None
#     Edge 64, Type (0, 0), None
#     Edge 65, Type (0, 0), None
#     Edge 66, Type (0, 0), None
#     Edge 67, Type (0, 0), None
#     Edge 68, Type (0, 0), None
#     Edge 69, Type (0, 0), None
#     Edge 70, Type (0, 0), None
#     Edge 71, Type (0, 0), None
#     Edge 72, Type (0, 0), None
#     Edge 73, Type (0, 0), None
#     Edge 74, Type (0, 0), None
#     Edge 75, Type (0, 0), None
#     Edge 76, Type (0, 0), None
#     Edge 77, Type (0, 0), None
#     Edge 78, Type (0, 0), None
#     Edge 79, Type (0, 0), None
#     Edge 80, Type (0, 0), None
#     Edge 81, Type (0, 0), None
#     Edge 82, Type (0, 0), None
#     Edge 83, Type (0, 0), None
#     Edge 84, Type (0, 0), None
#     Edge 85, Type (0, 0), None
#     Edge 86, Type (0, 0), None
#     Edge 87, Type (0, 0), None
#     Edge 88, Type (0, 0), None
#     Edge 89, Type (0, 0), None
#     Edge 90, Type (0, 0), None
#     Edge 91, Type (0, 0), None
#     Edge 92, Type (0, 0), None
#     Edge 93, Type (0, 0), None
#     Edge 94, Type (0, 0), None
#     Edge 95, Type (0, 0), None
# Relax obj value: 0.080
# Max RMSD: 0.149
# Mean RMSD: 0.149
data_MOF--net-uoa--node1-ICAMEG_clean_sbu_1--edge1-none
_symmetry_space_group_name_H-M    P1
_symmetry_Int_Tables_number       1
_symmetry_cell_setting            triclinic
loop_
_symmetry_equiv_pos_as_xyz
'x, y, z'
_cell_length_a     39.194745
_cell_length_b     39.209419
_cell_length_c     14.629022
_cell_angle_alpha  89.996202
_cell_angle_beta   89.999972
_cell_angle_gamma 89.999483
loop_
_atom_site_label
_atom_site_type_symbol
_atom_site_fract_x
_atom_site_fract_y
_atom_site_fract_z
_atom_type_partial_charge
Co0 Co 0.98312 0.08687 0.08314 0.0
Co1 Co 0.06546 0.07483 0.00999 0.0
O2 O 0.03165 0.0934 0.09349 0.0
C3 C 0.00287 0.09279 0.28669 0.0
O4 O 0.03521 0.0964 0.26556 0.0
C5 C 0.08628 0.1452 0.07848 0.0
O6 O 0.05564 0.15616 0.05797 0.0
O7 O 0.04305 0.10025 0.90746 0.0
O8 O 0.98746 0.09059 0.94423 0.0
H9 H 0.10865 0.99168 0.79605 0.0
H10 H 0.01451 0.14899 0.19609 0.0
O11 O 0.98093 0.08453 0.22466 0.0
H12 H 0.89647 0.186 -0.00951 0.0
H13 H 0.86423 0.07899 0.21286 0.0
H14 H 0.93556 0.06097 0.9409 0.0
H15 H 0.93312 0.12788 0.97378 0.0
H16 H 0.92398 0.09243 0.2174 0.0
O17 O 0.09554 0.11553 0.05044 0.0
H18 H 0.0669 0.03226 0.84103 0.0
H19 H 0.14167 0.08087 0.00629 0.0
H20 H 0.87483 0.04583 0.93828 0.0
H21 H 0.99694 0.21114 0.258 0.0
H22 H 0.83899 0.05513 0.06883 0.0
H23 H 0.9398 0.24564 0.19094 0.0
O24 O 0.99001 0.0348 0.06538 0.0
H25 H 0.15409 0.05849 0.30538 0.0
H26 H 0.05802 0.99692 0.05161 0.0
H27 H 0.08634 0.97777 0.22676 0.0
H28 H 0.1371 0.99253 0.36564 0.0
H29 H 0.12469 0.08794 0.15906 0.0
H30 H 0.18644 0.04607 0.93633 0.0
H31 H 0.17086 0.00245 0.82289 0.0
O32 O 0.03348 0.03547 0.96716 0.0
C33 C 0.01146 0.09581 0.88509 0.0
C34 C 0.11719 0.01362 0.83215 0.0
C35 C 0.16022 0.04371 0.91424 0.0
N36 N 0.10096 0.05866 0.92993 0.0
C37 C 0.09273 0.0357 0.86432 0.0
C38 C 0.13449 0.06355 0.95316 0.0
C39 C 0.15144 0.01874 0.852 0.0
C40 C 0.99214 0.15959 0.16494 0.0
N41 N 0.97285 0.13725 0.08956 0.0
C42 C 0.98146 0.19935 0.20557 0.0
C43 C 0.9464 0.22059 0.16351 0.0
C44 C 0.91769 0.18184 0.03705 0.0
C45 C 0.94074 0.14522 0.02692 0.0
C46 C 0.87952 0.07577 0.1519 0.0
C47 C 0.92037 0.06463 0.001 0.0
C48 C 0.91414 0.08299 0.15398 0.0
N49 N 0.93436 0.07761 0.07876 0.0
C50 C 0.88586 0.057 -0.00281 0.0
C51 C 0.86544 0.06255 0.07234 0.0
C52 C 0.00646 0.02078 -0.00193 0.0
C53 C 0.1359 0.04398 0.26697 0.0
C54 C 0.06826 0.00848 0.1101 0.0
C55 C 0.07628 0.97775 0.19226 0.0
C56 C 0.12473 0.00252 0.30428 0.0
N57 N 0.08626 0.04571 0.1073 0.0
C58 C 0.11608 0.06255 0.17138 0.0
Co59 Co 0.16777 0.73316 0.33314 0.0
Co60 Co 0.17981 0.81548 0.25999 0.0
O61 O 0.16123 0.78168 0.34348 0.0
C62 C 0.16184 0.75291 0.53669 0.0
O63 O 0.15822 0.78524 0.51555 0.0
C64 C 0.10944 0.83632 0.3286 0.0
O65 O 0.09845 0.80569 0.30826 0.0
O66 O 0.15438 0.79308 0.15746 0.0
O67 O 0.16405 0.73751 0.19423 0.0
H68 H 0.263 0.85862 0.04601 0.0
H69 H 0.10561 0.7645 0.44615 0.0
O70 O 0.17011 0.73097 0.47466 0.0
H71 H 0.06866 0.64651 0.24045 0.0
H72 H 0.17565 0.61431 0.46281 0.0
H73 H 0.19368 0.68564 0.19089 0.0
H74 H 0.12676 0.6832 0.22372 0.0
H75 H 0.16224 0.67404 0.46742 0.0
O76 O 0.1391 0.84557 0.30042 0.0
H77 H 0.22238 0.81691 0.091 0.0
H78 H 0.17379 0.89167 0.25627 0.0
H79 H 0.20883 0.62493 0.18824 0.0
H80 H 0.04346 0.74688 0.50808 0.0
H81 H 0.19952 0.58909 0.31876 0.0
H82 H 0.00898 0.68974 0.44101 0.0
O83 O 0.21985 0.74006 0.31539 0.0
H84 H 0.19616 0.90409 0.55533 0.0
H85 H 0.25775 0.80803 0.30162 0.0
H86 H 0.27691 0.83635 0.47674 0.0
H87 H 0.26214 0.8871 0.6156 0.0
H88 H 0.1667 0.8747 0.40904 0.0
H89 H 0.20861 0.9364 0.18629 0.0
H90 H 0.25223 0.92082 0.0728 0.0
O91 O 0.21919 0.78351 0.21715 0.0
C92 C 0.15882 0.7615 0.13509 0.0
C93 C 0.24105 0.86717 0.0821 0.0
C94 C 0.21096 0.9102 0.16419 0.0
N95 N 0.19599 0.85097 0.17991 0.0
C96 C 0.21895 0.84273 0.11429 0.0
C97 C 0.19111 0.88449 0.20314 0.0
C98 C 0.23593 0.90141 0.10194 0.0
C99 C 0.09502 0.74213 0.41497 0.0
N100 N 0.11737 0.72289 0.33955 0.0
C101 C 0.05525 0.73143 0.45563 0.0
C102 C 0.03403 0.69637 0.41354 0.0
C103 C 0.0728 0.66772 0.28702 0.0
C104 C 0.10942 0.69079 0.27688 0.0
C105 C 0.17887 0.62959 0.40186 0.0
C106 C 0.19002 0.67044 0.25099 0.0
C107 C 0.17167 0.66421 0.40398 0.0
N108 N 0.17704 0.68442 0.32876 0.0
C109 C 0.19765 0.63595 0.24716 0.0
C110 C 0.1921 0.61553 0.3223 0.0
C111 C 0.23388 0.7565 0.24806 0.0
C112 C 0.21068 0.8859 0.51694 0.0
C113 C 0.24618 0.81827 0.36009 0.0
C114 C 0.27693 0.82629 0.44224 0.0
C115 C 0.25215 0.87473 0.55424 0.0
N116 N 0.20894 0.83627 0.35729 0.0
C117 C 0.1921 0.86608 0.42135 0.0
Co118 Co 0.52151 0.91784 0.58315 0.0
Co119 Co 0.43916 0.92988 0.51001 0.0
O120 O 0.47297 0.91131 0.5935 0.0
C121 C 0.50175 0.91192 0.7867 0.0
O122 O 0.46942 0.9083 0.76557 0.0
C123 C 0.41835 0.85951 0.57848 0.0
O124 O 0.44899 0.84855 0.55797 0.0
O125 O 0.46157 0.90447 0.40747 0.0
O126 O 0.51716 0.91412 0.44423 0.0
H127 H 0.39596 0.01303 0.29604 0.0
H128 H 0.49012 0.85572 0.69612 0.0
O129 O 0.5237 0.92018 0.72467 0.0
H130 H 0.60815 0.81871 0.49046 0.0
H131 H 0.6404 0.92571 0.71286 0.0
H132 H 0.56907 0.94374 0.4409 0.0
H133 H 0.5715 0.87683 0.47377 0.0
H134 H 0.58064 0.91228 0.71741 0.0
O135 O 0.40908 0.88918 0.55046 0.0
H136 H 0.43772 0.97246 0.34104 0.0
H137 H 0.36295 0.92383 0.50631 0.0
H138 H 0.62979 0.95889 0.43828 0.0
H139 H 0.50769 0.79356 0.75801 0.0
H140 H 0.66564 0.94959 0.56883 0.0
H141 H 0.56484 0.75906 0.69093 0.0
O142 O 0.51462 0.9699 0.56539 0.0
H143 H 0.35054 0.94622 0.80539 0.0
H144 H 0.44661 0.00779 0.55161 0.0
H145 H 0.41829 0.02694 0.72675 0.0
H146 H 0.36752 0.01218 0.86564 0.0
H147 H 0.37994 0.91677 0.65908 0.0
H148 H 0.31818 0.95862 0.43633 0.0
H149 H 0.33375 1.00225 0.32288 0.0
O150 O 0.47115 0.96924 0.46716 0.0
C151 C 0.49316 0.9089 0.3851 0.0
C152 C 0.38742 0.99109 0.33215 0.0
C153 C 0.3444 0.96099 0.41424 0.0
N154 N 0.40366 0.94605 0.42994 0.0
C155 C 0.41189 0.96902 0.36433 0.0
C156 C 0.37013 0.94116 0.45317 0.0
C157 C 0.35318 0.98596 0.352 0.0
C158 C 0.51249 0.84511 0.66495 0.0
N159 N 0.53177 0.86745 0.58957 0.0
C160 C 0.52317 0.80535 0.70558 0.0
C161 C 0.55823 0.78412 0.6635 0.0
C162 C 0.58693 0.82287 0.53703 0.0
C163 C 0.56389 0.85949 0.52691 0.0
C164 C 0.62511 0.92893 0.6519 0.0
C165 C 0.58426 0.94008 0.501 0.0
C166 C 0.59048 0.92172 0.65399 0.0
N167 N 0.57027 0.92709 0.57876 0.0
C168 C 0.61877 0.94771 0.49719 0.0
C169 C 0.63919 0.94216 0.57235 0.0
C170 C 0.49817 0.98393 0.49807 0.0
C171 C 0.36873 0.96073 0.76698 0.0
C172 C 0.43637 0.99623 0.61009 0.0
C173 C 0.42835 0.02696 0.69225 0.0
C174 C 0.3799 1.00219 0.80428 0.0
N175 N 0.41837 0.959 0.60731 0.0
C176 C 0.38855 0.94216 0.67139 0.0
Co177 Co 0.33685 0.27155 0.83317 0.0
Co178 Co 0.32482 0.18923 0.76001 0.0
O179 O 0.34339 0.22302 0.84351 0.0
C180 C 0.34278 0.2518 0.03672 0.0
O181 O 0.3464 0.21947 0.0156 0.0
C182 C 0.39519 0.16839 0.82861 0.0
O183 O 0.40617 0.19903 0.80827 0.0
O184 O 0.35024 0.21163 0.65749 0.0
O185 O 0.34057 0.2672 0.69425 0.0
H186 H 0.24162 0.14609 0.54607 0.0
H187 H 0.39901 0.24021 0.94618 0.0
O188 O 0.33451 0.27373 0.97469 0.0
H189 H 0.43596 0.3582 0.74048 0.0
H190 H 0.32898 0.3904 0.96284 0.0
H191 H 0.31094 0.31908 0.69092 0.0
H192 H 0.37786 0.32152 0.72375 0.0
H193 H 0.34238 0.33066 0.96744 0.0
O194 O 0.36553 0.15914 0.80044 0.0
H195 H 0.28224 0.18781 0.59103 0.0
H196 H 0.33084 0.11304 0.75633 0.0
H197 H 0.29579 0.37979 0.68828 0.0
H198 H 0.46116 0.25782 0.00811 0.0
H199 H 0.30509 0.41562 0.8188 0.0
H200 H 0.49564 0.31496 0.94103 0.0
O201 O 0.28477 0.26465 0.81542 0.0
H202 H 0.30849 0.10065 0.05544 0.0
H203 H 0.24688 0.19665 0.80158 0.0
H204 H 0.22772 0.16835 0.97675 0.0
H205 H 0.2425 0.11762 0.11568 0.0
H206 H 0.33794 0.13003 0.90911 0.0
H207 H 0.29601 0.06831 0.68636 0.0
H208 H 0.25239 0.0839 0.57288 0.0
O209 O 0.28544 0.2212 0.71718 0.0
C210 C 0.3458 0.24322 0.63512 0.0
C211 C 0.26357 0.13754 0.58216 0.0
C212 C 0.29366 0.09452 0.66425 0.0
N213 N 0.30863 0.15375 0.67994 0.0
C214 C 0.28567 0.16198 0.61433 0.0
C215 C 0.31351 0.12023 0.70318 0.0
C216 C 0.26869 0.10331 0.602 0.0
C217 C 0.4096 0.26257 0.915 0.0
N218 N 0.38725 0.28182 0.83958 0.0
C219 C 0.44937 0.27328 0.95565 0.0
C220 C 0.47059 0.30834 0.91357 0.0
C221 C 0.43182 0.33699 0.78705 0.0
C222 C 0.3952 0.31392 0.77691 0.0
C223 C 0.32575 0.37511 0.90189 0.0
C224 C 0.31459 0.33427 0.75102 0.0
C225 C 0.33295 0.34049 0.90401 0.0
N226 N 0.32758 0.32029 0.82879 0.0
C227 C 0.30697 0.36877 0.74719 0.0
C228 C 0.31252 0.38918 0.82234 0.0
C229 C 0.27074 0.24821 0.7481 0.0
C230 C 0.29397 0.11882 0.01702 0.0
C231 C 0.25844 0.18642 0.86008 0.0
C232 C 0.22769 0.17841 0.94224 0.0
C233 C 0.25249 0.12999 0.05431 0.0
N234 N 0.29569 0.16844 0.85731 0.0
C235 C 0.31254 0.13864 0.92142 0.0
Co236 Co 0.98311 0.91784 0.37823 0.0
Co237 Co 0.06546 0.92988 0.45138 0.0
O238 O 0.03165 0.91131 0.36789 0.0
C239 C 0.00287 0.91192 0.17468 0.0
O240 O 0.03521 0.90831 0.19581 0.0
C241 C 0.08628 0.85951 0.38289 0.0
O242 O 0.05564 0.84855 0.40341 0.0
O243 O 0.04305 0.90446 0.55392 0.0
O244 O 0.98746 0.91412 0.51715 0.0
H245 H 0.10865 0.01303 0.66532 0.0
H246 H 0.01451 0.85572 0.26528 0.0
O247 O 0.98093 0.92018 0.23671 0.0
H248 H 0.89647 0.81871 0.47089 0.0
H249 H 0.86423 0.92572 0.24852 0.0
H250 H 0.93556 0.94374 0.52047 0.0
H251 H 0.93312 0.87683 0.48759 0.0
H252 H 0.92398 0.91228 0.24398 0.0
O253 O 0.09554 0.88917 0.41093 0.0
H254 H 0.0669 0.97245 0.62034 0.0
H255 H 0.14167 0.92383 0.45509 0.0
H256 H 0.87483 0.95889 0.52309 0.0
H257 H 0.99694 0.79357 0.20338 0.0
H258 H 0.83898 0.94958 0.39254 0.0
H259 H 0.9398 0.75907 0.27043 0.0
O260 O 0.99001 0.9699 0.39599 0.0
H261 H 0.15409 0.94622 0.15601 0.0
H262 H 0.05801 0.00779 0.40975 0.0
H263 H 0.08634 0.02694 0.23461 0.0
H264 H 0.13711 0.01218 0.09574 0.0
H265 H 0.12469 0.91677 0.30233 0.0
H266 H 0.18644 0.95863 0.52504 0.0
H267 H 0.17086 1.00226 0.63848 0.0
O268 O 0.03348 0.96924 0.49422 0.0
C269 C 0.01146 0.9089 0.57629 0.0
C270 C 0.11719 0.99109 0.62922 0.0
C271 C 0.16022 0.96099 0.54713 0.0
N272 N 0.10096 0.94605 0.53145 0.0
C273 C 0.09273 0.96901 0.59705 0.0
C274 C 0.13449 0.94116 0.50821 0.0
C275 C 0.15144 0.98596 0.60937 0.0
C276 C 0.99214 0.84512 0.29644 0.0
N277 N 0.97285 0.86746 0.37182 0.0
C278 C 0.98146 0.80536 0.25581 0.0
C279 C 0.9464 0.78412 0.29787 0.0
C280 C 0.91769 0.82287 0.42433 0.0
C281 C 0.94073 0.85949 0.43446 0.0
C282 C 0.87951 0.92893 0.30948 0.0
C283 C 0.92036 0.94008 0.46038 0.0
C284 C 0.91414 0.92172 0.30739 0.0
N285 N 0.93436 0.9271 0.38262 0.0
C286 C 0.88585 0.94771 0.46418 0.0
C287 C 0.86543 0.94216 0.38903 0.0
C288 C 0.00646 0.98393 0.46331 0.0
C289 C 0.1359 0.96073 0.19441 0.0
C290 C 0.06825 0.99623 0.35127 0.0
C291 C 0.07628 0.02696 0.26912 0.0
C292 C 0.12473 1.00219 0.1571 0.0
N293 N 0.08626 0.959 0.35407 0.0
C294 C 0.11608 0.94216 0.29 0.0
Co295 Co 0.33685 0.73316 0.62821 0.0
Co296 Co 0.32481 0.81548 0.70135 0.0
O297 O 0.34339 0.78169 0.61786 0.0
C298 C 0.34278 0.75291 0.42466 0.0
O299 O 0.3464 0.78524 0.44578 0.0
C300 C 0.39519 0.83632 0.63276 0.0
O301 O 0.40617 0.80568 0.65311 0.0
O302 O 0.35024 0.79308 0.80388 0.0
O303 O 0.34057 0.73751 0.76712 0.0
H304 H 0.24162 0.85864 0.91529 0.0
H305 H 0.39901 0.7645 0.5152 0.0
O306 O 0.33451 0.73098 0.48669 0.0
H307 H 0.43596 0.64651 0.7209 0.0
H308 H 0.32898 0.61431 0.49854 0.0
H309 H 0.31094 0.68563 0.77045 0.0
H310 H 0.37786 0.68319 0.73763 0.0
H311 H 0.34238 0.67405 0.49393 0.0
O312 O 0.36552 0.84557 0.66092 0.0
H313 H 0.28223 0.81691 0.87032 0.0
H314 H 0.33084 0.89167 0.70503 0.0
H315 H 0.29579 0.62492 0.77309 0.0
H316 H 0.46117 0.74689 0.45327 0.0
H317 H 0.3051 0.58909 0.64258 0.0
H318 H 0.49564 0.68975 0.52035 0.0
O319 O 0.28477 0.74006 0.64596 0.0
H320 H 0.30847 0.90407 0.40595 0.0
H321 H 0.24687 0.80804 0.65976 0.0
H322 H 0.22771 0.83635 0.4846 0.0
H323 H 0.24249 0.8871 0.3457 0.0
H324 H 0.33793 0.87469 0.55226 0.0
H325 H 0.29602 0.93641 0.77498 0.0
H326 H 0.25239 0.92083 0.88846 0.0
O327 O 0.28544 0.78351 0.74419 0.0
C328 C 0.3458 0.7615 0.82626 0.0
C329 C 0.26357 0.86718 0.8792 0.0
C330 C 0.29367 0.9102 0.79709 0.0
N331 N 0.30863 0.85097 0.78142 0.0
C332 C 0.28566 0.84274 0.84703 0.0
C333 C 0.31351 0.88449 0.75817 0.0
C334 C 0.26869 0.90142 0.85934 0.0
C335 C 0.4096 0.74214 0.54638 0.0
N336 N 0.38725 0.72289 0.6218 0.0
C337 C 0.44937 0.73143 0.50573 0.0
C338 C 0.47059 0.69637 0.54781 0.0
C339 C 0.43182 0.66772 0.67433 0.0
C340 C 0.3952 0.69079 0.68447 0.0
C341 C 0.32576 0.6296 0.55949 0.0
C342 C 0.31459 0.67044 0.71036 0.0
C343 C 0.33296 0.66422 0.55737 0.0
N344 N 0.32758 0.68442 0.63259 0.0
C345 C 0.30697 0.63594 0.71418 0.0
C346 C 0.31253 0.61553 0.63904 0.0
C347 C 0.27074 0.7565 0.71328 0.0
C348 C 0.29395 0.88589 0.44436 0.0
C349 C 0.25844 0.81828 0.60126 0.0
C350 C 0.22769 0.8263 0.51911 0.0
C351 C 0.25248 0.87473 0.40707 0.0
N352 N 0.29569 0.83627 0.60405 0.0
C353 C 0.31253 0.86608 0.53996 0.0
Co354 Co 0.52151 0.08687 0.87823 0.0
Co355 Co 0.43916 0.07483 0.95137 0.0
O356 O 0.47297 0.0934 0.86788 0.0
C357 C 0.50175 0.09279 0.67468 0.0
O358 O 0.46942 0.0964 0.69581 0.0
C359 C 0.41835 0.1452 0.88289 0.0
O360 O 0.44899 0.15616 0.90341 0.0
O361 O 0.46157 0.10024 0.0539 0.0
O362 O 0.51716 0.09059 0.01714 0.0
H363 H 0.39596 0.99167 0.16532 0.0
H364 H 0.49012 0.14899 0.76526 0.0
O365 O 0.5237 0.08453 0.73671 0.0
H366 H 0.60815 0.18599 0.97092 0.0
H367 H 0.6404 0.079 0.74852 0.0
H368 H 0.56907 0.06097 0.02047 0.0
H369 H 0.5715 0.12787 -0.0124 0.0
H370 H 0.58064 0.09243 0.74397 0.0
O371 O 0.40909 0.11553 0.91091 0.0
H372 H 0.43772 0.03225 0.12032 0.0
H373 H 0.36295 0.08088 0.95506 0.0
H374 H 0.62979 0.04582 0.02309 0.0
H375 H 0.50769 0.21115 0.70337 0.0
H376 H 0.66564 0.05512 0.89254 0.0
H377 H 0.56484 0.24565 0.77044 0.0
O378 O 0.51462 0.03481 0.89599 0.0
H379 H 0.35053 0.05849 0.656 0.0
H380 H 0.44662 0.99692 0.90975 0.0
H381 H 0.41829 0.97777 0.73462 0.0
H382 H 0.36752 0.99253 0.59574 0.0
H383 H 0.37994 0.08794 0.8023 0.0
H384 H 0.31818 0.0461 0.02503 0.0
H385 H 0.33375 0.00246 0.13848 0.0
O386 O 0.47115 0.03546 -0.00579 0.0
C387 C 0.49316 0.09581 0.07628 0.0
C388 C 0.38742 0.01361 0.12922 0.0
C389 C 0.34439 0.04372 0.04712 0.0
N390 N 0.40366 0.05866 0.03143 0.0
C391 C 0.41188 0.03569 0.09704 0.0
C392 C 0.37013 0.06355 0.00819 0.0
C393 C 0.35317 0.01875 0.10936 0.0
C394 C 0.51249 0.15959 0.79643 0.0
N395 N 0.53178 0.13725 0.87181 0.0
C396 C 0.52317 0.19936 0.7558 0.0
C397 C 0.55823 0.22059 0.79788 0.0
C398 C 0.58693 0.18184 0.92434 0.0
C399 C 0.56389 0.14522 0.93447 0.0
C400 C 0.62511 0.07578 0.80948 0.0
C401 C 0.58426 0.06463 0.96037 0.0
C402 C 0.59048 0.08299 0.80739 0.0
N403 N 0.57027 0.07762 0.88262 0.0
C404 C 0.61877 0.057 0.96418 0.0
C405 C 0.63919 0.06255 0.88903 0.0
C406 C 0.49817 0.02078 0.96331 0.0
C407 C 0.36872 0.04398 0.6944 0.0
C408 C 0.43637 0.00848 0.85127 0.0
C409 C 0.42835 0.97775 0.76912 0.0
C410 C 0.37989 0.00252 0.6571 0.0
N411 N 0.41837 0.04571 0.85406 0.0
C412 C 0.38855 0.06255 0.78999 0.0
Co413 Co 0.16777 0.27155 0.12823 0.0
Co414 Co 0.17981 0.18922 0.20138 0.0
O415 O 0.16123 0.22302 0.11789 0.0
C416 C 0.16184 0.2518 0.92469 0.0
O417 O 0.15823 0.21947 0.94583 0.0
C418 C 0.10944 0.16838 0.13277 0.0
O419 O 0.09845 0.19902 0.15312 0.0
O420 O 0.15439 0.21162 0.30392 0.0
O421 O 0.16405 0.2672 0.26715 0.0
H422 H 0.263 0.14606 0.41535 0.0
H423 H 0.10561 0.24021 0.01522 0.0
O424 O 0.17011 0.27373 -0.01329 0.0
H425 H 0.06866 0.3582 0.22092 0.0
H426 H 0.17564 0.3904 -0.00143 0.0
H427 H 0.19368 0.31907 0.27048 0.0
H428 H 0.12676 0.32151 0.23765 0.0
H429 H 0.16224 0.33066 -0.00604 0.0
O430 O 0.1391 0.15914 0.16094 0.0
H431 H 0.22239 0.18779 0.37035 0.0
H432 H 0.17379 0.11304 0.20508 0.0
H433 H 0.20883 0.37977 0.27313 0.0
H434 H 0.04346 0.25782 0.95329 0.0
H435 H 0.19952 0.41562 0.14262 0.0
H436 H 0.00898 0.31497 0.02037 0.0
O437 O 0.21985 0.26465 0.14599 0.0
H438 H 0.19618 0.10061 0.90606 0.0
H439 H 0.25775 0.19669 0.15972 0.0
H440 H 0.27691 0.16836 -0.01538 0.0
H441 H 0.26216 0.1176 0.84578 0.0
H442 H 0.16671 0.13 0.05234 0.0
H443 H 0.20861 0.0683 0.27505 0.0
H444 H 0.25223 0.08387 0.38854 0.0
O445 O 0.21919 0.2212 0.24422 0.0
C446 C 0.15882 0.2432 0.32629 0.0
C447 C 0.24105 0.13752 0.37926 0.0
C448 C 0.21096 0.0945 0.29715 0.0
N449 N 0.196 0.15374 0.28145 0.0
C450 C 0.21896 0.16197 0.34707 0.0
C451 C 0.19111 0.12022 0.25822 0.0
C452 C 0.23593 0.10329 0.35941 0.0
C453 C 0.09502 0.26257 0.04641 0.0
N454 N 0.11737 0.28182 0.12182 0.0
C455 C 0.05525 0.27328 0.00575 0.0
C456 C 0.03403 0.30834 0.04783 0.0
C457 C 0.0728 0.33698 0.17436 0.0
C458 C 0.10942 0.31392 0.1845 0.0
C459 C 0.17886 0.37511 0.05952 0.0
C460 C 0.19002 0.33426 0.21039 0.0
C461 C 0.17166 0.34049 0.0574 0.0
N462 N 0.17704 0.32028 0.13262 0.0
C463 C 0.19765 0.36876 0.21422 0.0
C464 C 0.19209 0.38918 0.13908 0.0
C465 C 0.23388 0.24821 0.21332 0.0
C466 C 0.21069 0.1188 0.94445 0.0
C467 C 0.24619 0.18645 0.10125 0.0
C468 C 0.27693 0.17843 0.01911 0.0
C469 C 0.25216 0.12997 0.90714 0.0
N470 N 0.20894 0.16844 0.10407 0.0
C471 C 0.19211 0.13862 0.04002 0.0
Co472 Co 0.02151 0.91784 0.87824 0.0
Co473 Co 0.93916 0.92988 0.95138 0.0
O474 O 0.97297 0.91131 0.86789 0.0
C475 C 1.00175 0.91192 0.67469 0.0
O476 O 0.96941 0.90831 0.69581 0.0
C477 C 0.91835 0.85951 0.8829 0.0
O478 O 0.94899 0.84855 0.90341 0.0
O479 O 0.96157 0.90446 0.05392 0.0
O480 O 0.01716 0.91412 0.01715 0.0
H481 H 0.89597 0.01303 0.16533 0.0
H482 H 0.99012 0.85572 0.76529 0.0
O483 O 0.0237 0.92018 0.73672 0.0
H484 H 0.10815 0.81871 0.97089 0.0
H485 H 0.14039 0.92572 0.74852 0.0
H486 H 0.06906 0.94374 0.02048 0.0
H487 H 0.0715 0.87683 -0.01241 0.0
H488 H 0.08064 0.91228 0.74398 0.0
O489 O 0.90908 0.88918 0.91093 0.0
H490 H 0.93772 0.97244 0.12035 0.0
H491 H 0.86295 0.92383 0.95509 0.0
H492 H 0.12979 0.95888 0.0231 0.0
H493 H 0.00768 0.79357 0.70338 0.0
H494 H 0.16564 0.94958 0.89255 0.0
H495 H 0.06483 0.75907 0.77043 0.0
O496 O 0.01462 0.9699 0.896 0.0
H497 H 0.85054 0.94622 0.656 0.0
H498 H 0.94661 0.00779 0.90976 0.0
H499 H 0.91829 0.02694 0.73462 0.0
H500 H 0.86752 0.01218 0.59573 0.0
H501 H 0.87993 0.91677 0.80232 0.0
H502 H 0.81819 0.95863 0.02504 0.0
H503 H 0.83376 1.00226 0.13849 0.0
O504 O 0.97114 0.96924 -0.00578 0.0
C505 C 0.99316 0.90889 0.07628 0.0
C506 C 0.88743 0.99109 0.12923 0.0
C507 C 0.8444 0.961 0.04713 0.0
N508 N 0.90366 0.94605 0.03145 0.0
C509 C 0.91189 0.96901 0.09706 0.0
C510 C 0.87013 0.94116 0.00821 0.0
C511 C 0.85318 0.98597 0.10937 0.0
C512 C 0.01249 0.84512 0.79644 0.0
N513 N 0.03177 0.86745 0.87182 0.0
C514 C 0.02316 0.80536 0.75581 0.0
C515 C 0.05823 0.78412 0.79787 0.0
C516 C 0.08693 0.82287 0.92433 0.0
C517 C 0.06389 0.85949 0.93446 0.0
C518 C 0.12511 0.92893 0.80948 0.0
C519 C 0.08426 0.94008 0.96038 0.0
C520 C 0.09048 0.92172 0.80739 0.0
N521 N 0.07027 0.92709 0.88262 0.0
C522 C 0.11877 0.9477 0.96419 0.0
C523 C 0.13919 0.94216 0.88903 0.0
C524 C 0.99816 0.98393 0.96331 0.0
C525 C 0.86872 0.96073 0.6944 0.0
C526 C 0.93637 0.99623 0.85128 0.0
C527 C 0.92835 0.02696 0.76912 0.0
C528 C 0.87989 1.00219 0.6571 0.0
N529 N 0.91837 0.959 0.85408 0.0
C530 C 0.88855 0.94216 0.79 0.0
Co531 Co 0.83685 0.27155 0.62823 0.0
Co532 Co 0.82482 0.18922 0.70139 0.0
O533 O 0.84339 0.22302 0.61789 0.0
C534 C 0.84278 0.2518 0.42469 0.0
O535 O 0.8464 0.21947 0.44582 0.0
C536 C 0.89519 0.16838 0.63277 0.0
O537 O 0.90617 0.19902 0.65312 0.0
O538 O 0.85024 0.21162 0.80392 0.0
O539 O 0.84058 0.2672 0.76715 0.0
H540 H 0.74163 0.14608 0.91537 0.0
H541 H 0.89901 0.24021 0.51522 0.0
O542 O 0.83451 0.27374 0.48671 0.0
H543 H 0.93597 0.3582 0.72092 0.0
H544 H 0.82898 0.3904 0.49857 0.0
H545 H 0.81095 0.31907 0.77049 0.0
H546 H 0.87786 0.32151 0.73765 0.0
H547 H 0.84238 0.33066 0.49396 0.0
O548 O 0.86553 0.15914 0.66095 0.0
H549 H 0.78224 0.1878 0.87037 0.0
H550 H 0.83084 0.11304 0.7051 0.0
H551 H 0.7958 0.37977 0.77314 0.0
H552 H 0.96117 0.25783 0.45329 0.0
H553 H 0.8051 0.41562 0.64262 0.0
H554 H 0.99565 0.31497 0.52037 0.0
O555 O 0.78477 0.26465 0.64599 0.0
H556 H 0.80846 0.10062 0.40605 0.0
H557 H 0.74688 0.19668 0.65976 0.0
H558 H 0.72772 0.16836 0.48464 0.0
H559 H 0.74248 0.1176 0.34578 0.0
H560 H 0.83792 0.13001 0.55234 0.0
H561 H 0.79601 0.0683 0.77508 0.0
H562 H 0.75239 0.08389 0.88858 0.0
O563 O 0.78544 0.2212 0.74423 0.0
C564 C 0.8458 0.24321 0.82629 0.0
C565 C 0.76357 0.13753 0.87927 0.0
C566 C 0.79366 0.09451 0.79718 0.0
N567 N 0.80863 0.15374 0.78147 0.0
C568 C 0.78567 0.16198 0.84709 0.0
C569 C 0.81351 0.12022 0.75824 0.0
C570 C 0.76869 0.1033 0.85944 0.0
C571 C 0.90961 0.26257 0.5464 0.0
N572 N 0.88726 0.28182 0.62182 0.0
C573 C 0.94937 0.27328 0.50575 0.0
C574 C 0.97059 0.30834 0.54783 0.0
C575 C 0.93182 0.33698 0.67435 0.0
C576 C 0.89521 0.31392 0.6845 0.0
C577 C 0.82576 0.37512 0.55952 0.0
C578 C 0.8146 0.33426 0.71039 0.0
C579 C 0.83296 0.3405 0.55739 0.0
N580 N 0.82759 0.32029 0.63262 0.0
C581 C 0.80698 0.36876 0.71422 0.0
C582 C 0.81253 0.38918 0.63908 0.0
C583 C 0.77075 0.24821 0.71332 0.0
C584 C 0.79395 0.11881 0.44444 0.0
C585 C 0.75844 0.18644 0.60128 0.0
C586 C 0.7277 0.17842 0.51914 0.0
C587 C 0.75247 0.12997 0.40714 0.0
N588 N 0.79569 0.16844 0.60408 0.0
C589 C 0.81252 0.13863 0.54002 0.0
Co590 Co 0.48311 0.08687 0.37823 0.0
Co591 Co 0.56546 0.07483 0.45137 0.0
O592 O 0.53165 0.0934 0.36788 0.0
C593 C 0.50287 0.09279 0.17468 0.0
O594 O 0.53521 0.09641 0.1958 0.0
C595 C 0.58627 0.1452 0.3829 0.0
O596 O 0.55563 0.15616 0.40341 0.0
O597 O 0.54306 0.10024 0.55391 0.0
O598 O 0.48746 0.09059 0.51714 0.0
H599 H 0.60866 0.99168 0.66534 0.0
H600 H 0.5145 0.14899 0.26526 0.0
O601 O 0.48093 0.08453 0.23671 0.0
H602 H 0.39648 0.186 0.47092 0.0
H603 H 0.36423 0.079 0.24852 0.0
H604 H 0.43556 0.06097 0.52048 0.0
H605 H 0.43313 0.12788 0.48761 0.0
H606 H 0.42398 0.09243 0.24397 0.0
O607 O 0.59554 0.11553 0.41092 0.0
H608 H 0.56691 0.03225 0.62033 0.0
H609 H 0.64167 0.08088 0.45507 0.0
H610 H 0.37483 0.04582 0.5231 0.0
H611 H 0.49693 0.21115 0.20337 0.0
H612 H 0.33899 0.05512 0.39255 0.0
H613 H 0.43979 0.24565 0.27044 0.0
O614 O 0.49 0.03481 0.396 0.0
H615 H 0.65408 0.05849 0.15599 0.0
H616 H 0.55801 0.99692 0.40977 0.0
H617 H 0.58634 0.97777 0.23463 0.0
H618 H 0.6371 0.99253 0.09574 0.0
H619 H 0.62468 0.08794 0.3023 0.0
H620 H 0.68644 0.04609 0.52504 0.0
H621 H 0.67087 0.00246 0.63849 0.0
O622 O 0.53348 0.03546 0.49422 0.0
C623 C 0.51146 0.09582 0.57627 0.0
C624 C 0.6172 0.01361 0.62923 0.0
C625 C 0.66023 0.04372 0.54713 0.0
N626 N 0.60097 0.05865 0.53144 0.0
C627 C 0.59274 0.03569 0.59705 0.0
C628 C 0.63449 0.06355 0.5082 0.0
C629 C 0.65145 0.01874 0.60937 0.0
C630 C 0.49213 0.1596 0.29643 0.0
N631 N 0.47285 0.13726 0.37181 0.0
C632 C 0.48145 0.19936 0.2558 0.0
C633 C 0.44639 0.22059 0.29788 0.0
C634 C 0.41769 0.18184 0.42435 0.0
C635 C 0.44074 0.14522 0.43447 0.0
C636 C 0.37951 0.07578 0.30948 0.0
C637 C 0.42036 0.06463 0.46038 0.0
C638 C 0.41414 0.08299 0.30739 0.0
N639 N 0.43435 0.07762 0.38262 0.0
C640 C 0.38586 0.057 0.46418 0.0
C641 C 0.36544 0.06255 0.38903 0.0
C642 C 0.50646 0.02078 0.46331 0.0
C643 C 0.6359 0.04398 0.19439 0.0
C644 C 0.56825 0.00848 0.35128 0.0
C645 C 0.57627 0.97774 0.26913 0.0
C646 C 0.62473 0.00252 0.1571 0.0
N647 N 0.58625 0.04571 0.35407 0.0
C648 C 0.61607 0.06255 0.28999 0.0
Co649 Co 0.66778 0.73316 0.12821 0.0
Co650 Co 0.67981 0.81548 0.20136 0.0
O651 O 0.66123 0.78168 0.11786 0.0
C652 C 0.66184 0.75291 0.92465 0.0
O653 O 0.65822 0.78524 0.94578 0.0
C654 C 0.60943 0.83632 0.13277 0.0
O655 O 0.59845 0.80568 0.15311 0.0
O656 O 0.65438 0.79308 0.30389 0.0
O657 O 0.66405 0.7375 0.26712 0.0
H658 H 0.763 0.85862 0.41531 0.0
H659 H 0.60562 0.7645 0.0152 0.0
O660 O 0.67011 0.73098 -0.01331 0.0
H661 H 0.56866 0.64651 0.2209 0.0
H662 H 0.67565 0.61431 -0.00146 0.0
H663 H 0.69369 0.68563 0.27045 0.0
H664 H 0.62677 0.68319 0.23763 0.0
H665 H 0.66224 0.67405 -0.00607 0.0
O666 O 0.6391 0.84556 0.16094 0.0
H667 H 0.72238 0.8169 0.37034 0.0
H668 H 0.67379 0.89166 0.20505 0.0
H669 H 0.70884 0.62492 0.2731 0.0
H670 H 0.54346 0.74689 0.95326 0.0
H671 H 0.69953 0.58909 0.14258 0.0
H672 H 0.50898 0.68975 0.02034 0.0
O673 O 0.71986 0.74006 0.14596 0.0
H674 H 0.69614 0.90406 0.90594 0.0
H675 H 0.75775 0.80806 0.15979 0.0
H676 H 0.77691 0.83636 -0.01538 0.0
H677 H 0.76213 0.88709 0.8457 0.0
H678 H 0.66669 0.87468 0.05226 0.0
H679 H 0.70861 0.9364 0.27501 0.0
H680 H 0.75224 0.92081 0.3885 0.0
O681 O 0.71919 0.78351 0.2442 0.0
C682 C 0.65882 0.76149 0.32626 0.0
C683 C 0.74105 0.86717 0.37922 0.0
C684 C 0.71096 0.91019 0.29712 0.0
N685 N 0.69599 0.85096 0.28144 0.0
C686 C 0.71895 0.84272 0.34705 0.0
C687 C 0.69111 0.88448 0.25819 0.0
C688 C 0.73593 0.9014 0.35937 0.0
C689 C 0.59502 0.74214 0.04638 0.0
N690 N 0.61737 0.72288 0.12179 0.0
C691 C 0.55526 0.73143 0.00572 0.0
C692 C 0.53404 0.69637 0.04781 0.0
C693 C 0.57281 0.66772 0.17433 0.0
C694 C 0.60942 0.69078 0.18447 0.0
C695 C 0.67887 0.6296 0.05948 0.0
C696 C 0.69003 0.67044 0.21036 0.0
C697 C 0.67167 0.66422 0.05737 0.0
N698 N 0.67704 0.68442 0.13259 0.0
C699 C 0.69766 0.63594 0.21418 0.0
C700 C 0.6921 0.61553 0.13904 0.0
C701 C 0.73388 0.7565 0.21328 0.0
C702 C 0.71066 0.88588 0.94435 0.0
C703 C 0.74619 0.81829 0.1013 0.0
C704 C 0.77693 0.8263 0.01914 0.0
C705 C 0.75214 0.87472 0.90707 0.0
N706 N 0.70894 0.83627 0.10406 0.0
C707 C 0.69209 0.86607 0.03996 0.0
Co708 Co 0.02151 0.08686 0.58314 0.0
Co709 Co 0.93916 0.07483 0.50999 0.0
O710 O 0.97297 0.0934 0.59349 0.0
C711 C 1.00175 0.09279 0.78669 0.0
O712 O 0.96941 0.0964 0.76556 0.0
C713 C 0.91835 0.1452 0.57848 0.0
O714 O 0.94899 0.15616 0.55797 0.0
O715 O 0.96157 0.10025 0.40746 0.0
O716 O 0.01717 0.09059 0.44423 0.0
H717 H 0.89597 0.99168 0.29606 0.0
H718 H 0.99012 0.14899 0.69609 0.0
O719 O 0.0237 0.08452 0.72466 0.0
H720 H 0.10815 0.186 0.49049 0.0
H721 H 0.14039 0.07899 0.71286 0.0
H722 H 0.06907 0.06097 0.4409 0.0
H723 H 0.07151 0.12788 0.47378 0.0
H724 H 0.08064 0.09243 0.7174 0.0
O725 O 0.90908 0.11553 0.55045 0.0
H726 H 0.93772 0.03226 0.34104 0.0
H727 H 0.86295 0.08088 0.50629 0.0
H728 H 0.12979 0.04582 0.43829 0.0
H729 H 0.00768 0.21114 0.75799 0.0
H730 H 0.16564 0.05513 0.56883 0.0
H731 H 0.06483 0.24564 0.69094 0.0
O732 O 0.01462 0.0348 0.56538 0.0
H733 H 0.85053 0.05849 0.80537 0.0
H734 H 0.94661 0.99692 0.55162 0.0
H735 H 0.91829 0.97777 0.72676 0.0
H736 H 0.86752 0.99253 0.86564 0.0
H737 H 0.87993 0.08794 0.65905 0.0
H738 H 0.81819 0.04608 0.43634 0.0
H739 H 0.83376 0.00245 0.3229 0.0
O740 O 0.97114 0.03547 0.46716 0.0
C741 C 0.99317 0.09582 0.38509 0.0
C742 C 0.88743 0.01362 0.33215 0.0
C743 C 0.8444 0.04372 0.41425 0.0
N744 N 0.90366 0.05866 0.42993 0.0
C745 C 0.91189 0.0357 0.36432 0.0
C746 C 0.87013 0.06355 0.45316 0.0
C747 C 0.85318 0.01874 0.35201 0.0
C748 C 0.01249 0.15959 0.66493 0.0
N749 N 0.03177 0.13725 0.58956 0.0
C750 C 0.02316 0.19935 0.70556 0.0
C751 C 0.05823 0.22058 0.6635 0.0
C752 C 0.08693 0.18184 0.53705 0.0
C753 C 0.06389 0.14522 0.52692 0.0
C754 C 0.12511 0.07578 0.6519 0.0
C755 C 0.08426 0.06463 0.501 0.0
C756 C 0.09048 0.08299 0.65398 0.0
N757 N 0.07027 0.07761 0.57876 0.0
C758 C 0.11877 0.057 0.49719 0.0
C759 C 0.13919 0.06255 0.57235 0.0
C760 C 0.99817 0.02078 0.49807 0.0
C761 C 0.86872 0.04398 0.76697 0.0
C762 C 0.93637 0.00848 0.6101 0.0
C763 C 0.92835 0.97775 0.69226 0.0
C764 C 0.87989 0.00252 0.80427 0.0
N765 N 0.91837 0.04571 0.6073 0.0
C766 C 0.88855 0.06255 0.67137 0.0
Co767 Co 0.66778 0.27155 0.33317 0.0
Co768 Co 0.67981 0.18922 0.26002 0.0
O769 O 0.66123 0.22302 0.34351 0.0
C770 C 0.66184 0.25179 0.53672 0.0
O771 O 0.65822 0.21947 0.51559 0.0
C772 C 0.60944 0.16839 0.32862 0.0
O773 O 0.59845 0.19902 0.30827 0.0
O774 O 0.65439 0.21163 0.15749 0.0
O775 O 0.66405 0.2672 0.19425 0.0
H776 H 0.763 0.14607 0.04609 0.0
H777 H 0.60562 0.24021 0.44618 0.0
O778 O 0.67011 0.27373 0.47469 0.0
H779 H 0.56866 0.3582 0.24048 0.0
H780 H 0.67564 0.3904 0.46284 0.0
H781 H 0.69369 0.31908 0.19092 0.0
H782 H 0.62677 0.32152 0.22375 0.0
H783 H 0.66224 0.33066 0.46744 0.0
O784 O 0.6391 0.15914 0.30046 0.0
H785 H 0.72239 0.1878 0.09105 0.0
H786 H 0.67378 0.11304 0.25635 0.0
H787 H 0.70884 0.37978 0.18828 0.0
H788 H 0.54346 0.25782 0.50811 0.0
H789 H 0.69952 0.41562 0.3188 0.0
H790 H 0.50898 0.31496 0.44103 0.0
O791 O 0.71985 0.26465 0.31542 0.0
H792 H 0.69615 0.10064 0.55543 0.0
H793 H 0.75775 0.19666 0.30162 0.0
H794 H 0.77691 0.16836 0.47677 0.0
H795 H 0.76214 0.11761 0.61568 0.0
H796 H 0.6667 0.13002 0.40911 0.0
H797 H 0.7086 0.0683 0.1864 0.0
H798 H 0.75223 0.08388 0.07291 0.0
O799 O 0.71919 0.2212 0.21718 0.0
C800 C 0.65882 0.24321 0.13512 0.0
C801 C 0.74105 0.13752 0.08218 0.0
C802 C 0.71096 0.09451 0.16428 0.0
N803 N 0.69599 0.15374 0.17996 0.0
C804 C 0.71896 0.16197 0.11435 0.0
C805 C 0.69111 0.12022 0.20321 0.0
C806 C 0.73593 0.10329 0.10203 0.0
C807 C 0.59502 0.26257 0.415 0.0
N808 N 0.61737 0.28182 0.33958 0.0
C809 C 0.55526 0.27328 0.45565 0.0
C810 C 0.53404 0.30834 0.41357 0.0
C811 C 0.57281 0.33699 0.28705 0.0
C812 C 0.60942 0.31392 0.27691 0.0
C813 C 0.67887 0.37511 0.40189 0.0
C814 C 0.69003 0.33427 0.25102 0.0
C815 C 0.67167 0.34049 0.40401 0.0
N816 N 0.67704 0.32028 0.32878 0.0
C817 C 0.69765 0.36876 0.24719 0.0
C818 C 0.6921 0.38918 0.32233 0.0
C819 C 0.73388 0.24821 0.24809 0.0
C820 C 0.71067 0.11882 0.51702 0.0
C821 C 0.74619 0.18643 0.36011 0.0
C822 C 0.77693 0.17841 0.44227 0.0
C823 C 0.75215 0.12998 0.55431 0.0
N824 N 0.70894 0.16844 0.35733 0.0
C825 C 0.6921 0.13863 0.42142 0.0
Co826 Co 0.48311 0.91784 0.08315 0.0
Co827 Co 0.56546 0.92988 0.01001 0.0
O828 O 0.53165 0.91131 0.0935 0.0
C829 C 0.50287 0.91191 0.2867 0.0
O830 O 0.53521 0.9083 0.26557 0.0
C831 C 0.58627 0.85951 0.07849 0.0
O832 O 0.55563 0.84855 0.05797 0.0
O833 O 0.54306 0.90447 0.90747 0.0
O834 O 0.48746 0.91412 0.94423 0.0
H835 H 0.60867 0.01303 0.79606 0.0
H836 H 0.5145 0.85572 0.19611 0.0
O837 O 0.48092 0.92018 0.22466 0.0
H838 H 0.39648 0.81872 -0.00954 0.0
H839 H 0.36423 0.92571 0.21286 0.0
H840 H 0.43556 0.94374 0.9409 0.0
H841 H 0.43312 0.87683 0.97377 0.0
H842 H 0.42398 0.91227 0.21741 0.0
O843 O 0.59554 0.88918 0.05047 0.0
H844 H 0.56691 0.97246 0.84105 0.0
H845 H 0.64167 0.92383 0.00631 0.0
H846 H 0.37483 0.95889 0.93829 0.0
H847 H 0.49693 0.79356 0.258 0.0
H848 H 0.33899 0.94959 0.06884 0.0
H849 H 0.43979 0.75906 0.19093 0.0
O850 O 0.49 0.9699 0.06538 0.0
H851 H 0.65409 0.94622 0.30538 0.0
H852 H 0.55801 0.00779 0.05163 0.0
H853 H 0.58633 0.02694 0.22676 0.0
H854 H 0.6371 0.01218 0.36563 0.0
H855 H 0.62469 0.91677 0.15908 0.0
H856 H 0.68644 0.95861 0.93635 0.0
H857 H 0.67088 1.00225 0.82291 0.0
O858 O 0.53348 0.96924 0.96716 0.0
C859 C 0.51146 0.90889 0.8851 0.0
C860 C 0.61721 0.99109 0.83216 0.0
C861 C 0.66023 0.96098 0.91426 0.0
N862 N 0.60097 0.94605 0.92995 0.0
C863 C 0.59274 0.96902 0.86434 0.0
C864 C 0.63449 0.94115 0.95318 0.0
C865 C 0.65145 0.98596 0.85202 0.0
C866 C 0.49213 0.84511 0.16495 0.0
N867 N 0.47285 0.86745 0.08957 0.0
C868 C 0.48145 0.80535 0.20557 0.0
C869 C 0.44639 0.78412 0.1635 0.0
C870 C 0.41769 0.82287 0.03703 0.0
C871 C 0.44074 0.85949 0.02691 0.0
C872 C 0.37951 0.92893 0.1519 0.0
C873 C 0.42036 0.94008 0.001 0.0
C874 C 0.41414 0.92171 0.15399 0.0
N875 N 0.43435 0.92709 0.07876 0.0
C876 C 0.38585 0.94771 -0.0028 0.0
C877 C 0.36543 0.94216 0.07235 0.0
C878 C 0.50646 0.98393 -0.00193 0.0
C879 C 0.6359 0.96073 0.26698 0.0
C880 C 0.56825 0.99623 0.11011 0.0
C881 C 0.57627 0.02696 0.19226 0.0
C882 C 0.62473 1.00219 0.30427 0.0
N883 N 0.58625 0.959 0.10732 0.0
C884 C 0.61607 0.94216 0.17139 0.0
Co885 Co 0.83685 0.73316 0.83314 0.0
Co886 Co 0.82481 0.81549 0.76 0.0
O887 O 0.84339 0.78168 0.84348 0.0
C888 C 0.84278 0.75291 0.03669 0.0
O889 O 0.8464 0.78524 0.01555 0.0
C890 C 0.89518 0.83633 0.82861 0.0
O891 O 0.90617 0.80569 0.80826 0.0
O892 O 0.85024 0.79309 0.65746 0.0
O893 O 0.84058 0.73751 0.69423 0.0
H894 H 0.74163 0.85865 0.54603 0.0
H895 H 0.89901 0.7645 0.94615 0.0
O896 O 0.83451 0.73097 0.97466 0.0
H897 H 0.93597 0.64651 0.74046 0.0
H898 H 0.82898 0.61431 0.96281 0.0
H899 H 0.81095 0.68564 0.69089 0.0
H900 H 0.87786 0.6832 0.72372 0.0
H901 H 0.84238 0.67405 0.96742 0.0
O902 O 0.86552 0.84557 0.80044 0.0
H903 H 0.78223 0.81692 0.59102 0.0
H904 H 0.83084 0.89167 0.75629 0.0
H905 H 0.7958 0.62494 0.68824 0.0
H906 H 0.96117 0.74688 0.00808 0.0
H907 H 0.8051 0.58909 0.81876 0.0
H908 H 0.99565 0.68974 0.94101 0.0
O909 O 0.78477 0.74006 0.81539 0.0
H910 H 0.80845 0.9041 0.05532 0.0
H911 H 0.74688 0.80802 0.80166 0.0
H912 H 0.72771 0.83634 0.97676 0.0
H913 H 0.74247 0.88711 0.11559 0.0
H914 H 0.83791 0.8747 0.90904 0.0
H915 H 0.79602 0.93641 0.68633 0.0
H916 H 0.75239 0.92084 0.57284 0.0
O917 O 0.78543 0.78351 0.71715 0.0
C918 C 0.8458 0.76151 0.63509 0.0
C919 C 0.76357 0.86719 0.58212 0.0
C920 C 0.79366 0.91021 0.66423 0.0
N921 N 0.80863 0.85097 0.67993 0.0
C922 C 0.78566 0.84274 0.61431 0.0
C923 C 0.81351 0.88449 0.70316 0.0
C924 C 0.76869 0.90142 0.60197 0.0
C925 C 0.90961 0.74214 0.91497 0.0
N926 N 0.88726 0.72289 0.83955 0.0
C927 C 0.94937 0.73143 0.95563 0.0
C928 C 0.97059 0.69637 0.91354 0.0
C929 C 0.93182 0.66773 0.78702 0.0
C930 C 0.89521 0.69079 0.77688 0.0
C931 C 0.82576 0.62959 0.90186 0.0
C932 C 0.8146 0.67045 0.75099 0.0
C933 C 0.83296 0.66421 0.90398 0.0
N934 N 0.82759 0.68442 0.82876 0.0
C935 C 0.80698 0.63595 0.74716 0.0
C936 C 0.81253 0.61553 0.8223 0.0
C937 C 0.77075 0.7565 0.74805 0.0
C938 C 0.79394 0.88591 0.01693 0.0
C939 C 0.75844 0.81826 0.86012 0.0
C940 C 0.7277 0.82628 0.94227 0.0
C941 C 0.75246 0.87474 0.05424 0.0
N942 N 0.79568 0.83627 0.85731 0.0
C943 C 0.81252 0.86608 0.92136 0.0
Co944 Co 0.48311 0.58687 0.58314 0.0
Co945 Co 0.56546 0.57483 0.50999 0.0
O946 O 0.53165 0.5934 0.59348 0.0
C947 C 0.50287 0.59279 0.78669 0.0
O948 O 0.53521 0.5964 0.76556 0.0
C949 C 0.58627 0.6452 0.57847 0.0
O950 O 0.55563 0.65616 0.55796 0.0
O951 O 0.54305 0.60025 0.40746 0.0
O952 O 0.48746 0.59059 0.44422 0.0
H953 H 0.60866 0.49168 0.29605 0.0
H954 H 0.5145 0.64899 0.69609 0.0
O955 O 0.48093 0.58453 0.72466 0.0
H956 H 0.39647 0.686 0.49046 0.0
H957 H 0.36423 0.57899 0.71285 0.0
H958 H 0.43556 0.56097 0.4409 0.0
H959 H 0.43312 0.62788 0.47377 0.0
H960 H 0.42398 0.59243 0.7174 0.0
O961 O 0.59554 0.61553 0.55044 0.0
H962 H 0.5669 0.53226 0.34104 0.0
H963 H 0.64167 0.58088 0.50629 0.0
H964 H 0.37483 0.54582 0.43828 0.0
H965 H 0.49693 0.71114 0.75799 0.0
H966 H 0.33899 0.55512 0.56882 0.0
H967 H 0.43979 0.74564 0.69092 0.0
O968 O 0.49001 0.53481 0.56538 0.0
H969 H 0.65408 0.55849 0.80538 0.0
H970 H 0.55801 0.49692 0.55161 0.0
H971 H 0.58634 0.47777 0.72676 0.0
H972 H 0.6371 0.49253 0.86564 0.0
H973 H 0.62469 0.58794 0.65906 0.0
H974 H 0.68644 0.54609 0.43632 0.0
H975 H 0.67087 0.50246 0.32289 0.0
O976 O 0.53348 0.53547 0.46716 0.0
C977 C 0.51146 0.59581 0.38509 0.0
C978 C 0.6172 0.51362 0.33215 0.0
C979 C 0.66023 0.54372 0.41424 0.0
N980 N 0.60096 0.55866 0.42993 0.0
C981 C 0.59274 0.5357 0.36432 0.0
C982 C 0.63449 0.56355 0.45316 0.0
C983 C 0.65144 0.51875 0.352 0.0
C984 C 0.49213 0.65959 0.66493 0.0
N985 N 0.47285 0.63725 0.58955 0.0
C986 C 0.48146 0.69935 0.70556 0.0
C987 C 0.44639 0.72059 0.66349 0.0
C988 C 0.41769 0.68184 0.53703 0.0
C989 C 0.44074 0.64522 0.5269 0.0
C990 C 0.37951 0.57577 0.65189 0.0
C991 C 0.42036 0.56463 0.50099 0.0
C992 C 0.41414 0.58299 0.65398 0.0
N993 N 0.43435 0.57761 0.57875 0.0
C994 C 0.38586 0.557 0.49719 0.0
C995 C 0.36544 0.56255 0.57234 0.0
C996 C 0.50646 0.52078 0.49807 0.0
C997 C 0.6359 0.54398 0.76697 0.0
C998 C 0.56825 0.50848 0.6101 0.0
C999 C 0.57628 0.47775 0.69225 0.0
C1000 C 0.62473 0.50252 0.80427 0.0
N1001 N 0.58625 0.54571 0.6073 0.0
C1002 C 0.61607 0.56255 0.67138 0.0
Co1003 Co 0.66778 0.23316 0.83317 0.0
Co1004 Co 0.67981 0.31549 0.76 0.0
O1005 O 0.66123 0.28169 0.8435 0.0
C1006 C 0.66184 0.25291 0.03672 0.0
O1007 O 0.65822 0.28524 0.01558 0.0
C1008 C 0.60944 0.33632 0.82861 0.0
O1009 O 0.59845 0.30569 0.80827 0.0
O1010 O 0.65438 0.29308 0.65748 0.0
O1011 O 0.66405 0.23751 0.69426 0.0
H1012 H 0.763 0.35864 0.54606 0.0
H1013 H 0.60561 0.2645 0.94618 0.0
O1014 O 0.67011 0.23098 0.97469 0.0
H1015 H 0.56866 0.14651 0.74047 0.0
H1016 H 0.67564 0.11431 0.96286 0.0
H1017 H 0.69369 0.18563 0.69094 0.0
H1018 H 0.62677 0.1832 0.72375 0.0
H1019 H 0.66224 0.17405 0.96746 0.0
O1020 O 0.6391 0.34557 0.80043 0.0
H1021 H 0.72238 0.31691 0.59103 0.0
H1022 H 0.67379 0.39167 0.75631 0.0
H1023 H 0.70884 0.12493 0.6883 0.0
H1024 H 0.54346 0.24688 0.0081 0.0
H1025 H 0.69953 0.08909 0.81882 0.0
H1026 H 0.50898 0.18974 0.94101 0.0
O1027 O 0.71986 0.24006 0.81542 0.0
H1028 H 0.69614 0.40406 0.0554 0.0
H1029 H 0.75775 0.30805 0.8016 0.0
H1030 H 0.77691 0.33635 0.97675 0.0
H1031 H 0.76213 0.38709 0.11565 0.0
H1032 H 0.66669 0.37468 0.90909 0.0
H1033 H 0.70861 0.43641 0.68636 0.0
H1034 H 0.75224 0.42083 0.57287 0.0
O1035 O 0.71919 0.28351 0.71717 0.0
C1036 C 0.65882 0.2615 0.63512 0.0
C1037 C 0.74105 0.36718 0.58215 0.0
C1038 C 0.71096 0.4102 0.66425 0.0
N1039 N 0.69599 0.35097 0.67993 0.0
C1040 C 0.71896 0.34274 0.61432 0.0
C1041 C 0.69111 0.38449 0.70317 0.0
C1042 C 0.73593 0.40142 0.602 0.0
C1043 C 0.59502 0.24213 0.91499 0.0
N1044 N 0.61737 0.22289 0.83958 0.0
C1045 C 0.55525 0.23143 0.95564 0.0
C1046 C 0.53404 0.19637 0.91355 0.0
C1047 C 0.57281 0.16772 0.78704 0.0
C1048 C 0.60942 0.19079 0.77691 0.0
C1049 C 0.67887 0.1296 0.90191 0.0
C1050 C 0.69003 0.17044 0.75103 0.0
C1051 C 0.67167 0.16422 0.90402 0.0
N1052 N 0.67704 0.18442 0.8288 0.0
C1053 C 0.69766 0.13595 0.74721 0.0
C1054 C 0.6921 0.11553 0.82236 0.0
C1055 C 0.73388 0.2565 0.7481 0.0
C1056 C 0.71066 0.38589 0.01699 0.0
C1057 C 0.74619 0.31828 0.86009 0.0
C1058 C 0.77693 0.3263 0.94224 0.0
C1059 C 0.75214 0.37472 0.05428 0.0
N1060 N 0.70894 0.33627 0.85731 0.0
C1061 C 0.69209 0.36607 0.92139 0.0
Co1062 Co 0.02151 0.41784 0.08315 0.0
Co1063 Co 0.93916 0.42988 0.01001 0.0
O1064 O 0.97297 0.41131 0.0935 0.0
C1065 C 1.00175 0.41192 0.28671 0.0
O1066 O 0.96941 0.4083 0.26558 0.0
C1067 C 0.91835 0.35951 0.07849 0.0
O1068 O 0.94899 0.34855 0.05798 0.0
O1069 O 0.96157 0.40447 0.90748 0.0
O1070 O 0.01716 0.41412 0.94424 0.0
H1071 H 0.89597 0.51303 0.79605 0.0
H1072 H 0.99012 0.35572 0.19612 0.0
O1073 O 0.0237 0.42018 0.22467 0.0
H1074 H 0.10815 0.31871 -0.00951 0.0
H1075 H 0.14039 0.42571 0.21287 0.0
H1076 H 0.06906 0.44374 0.94091 0.0
H1077 H 0.0715 0.37683 0.97379 0.0
H1078 H 0.08064 0.41228 0.21741 0.0
O1079 O 0.90908 0.38918 0.05047 0.0
H1080 H 0.93772 0.47245 0.84104 0.0
H1081 H 0.86295 0.42384 0.00631 0.0
H1082 H 0.12979 0.45889 0.93829 0.0
H1083 H 0.00769 0.29356 0.25801 0.0
H1084 H 0.16564 0.44958 0.06884 0.0
H1085 H 0.06483 0.25906 0.19095 0.0
O1086 O 0.01462 0.4699 0.06539 0.0
H1087 H 0.85054 0.44622 0.30539 0.0
H1088 H 0.94661 0.50779 0.05162 0.0
H1089 H 0.91829 0.52694 0.22675 0.0
H1090 H 0.86752 0.51218 0.36564 0.0
H1091 H 0.87994 0.41677 0.15908 0.0
H1092 H 0.81818 0.45863 0.93634 0.0
H1093 H 0.83376 0.50226 0.82289 0.0
O1094 O 0.97114 0.46925 0.96717 0.0
C1095 C 0.99316 0.4089 0.88511 0.0
C1096 C 0.88743 0.4911 0.83215 0.0
C1097 C 0.8444 0.461 0.91425 0.0
N1098 N 0.90366 0.44605 0.92994 0.0
C1099 C 0.91189 0.46902 0.86433 0.0
C1100 C 0.87013 0.44116 0.95318 0.0
C1101 C 0.85318 0.48597 0.85201 0.0
C1102 C 0.01249 0.34511 0.16495 0.0
N1103 N 0.03177 0.36745 0.08957 0.0
C1104 C 0.02316 0.30535 0.20558 0.0
C1105 C 0.05823 0.28412 0.16351 0.0
C1106 C 0.08693 0.32287 0.03705 0.0
C1107 C 0.06389 0.35949 0.02693 0.0
C1108 C 0.12511 0.42893 0.15191 0.0
C1109 C 0.08426 0.44008 0.00101 0.0
C1110 C 0.09048 0.42172 0.154 0.0
N1111 N 0.07027 0.42709 0.07877 0.0
C1112 C 0.11877 0.44771 -0.0028 0.0
C1113 C 0.13919 0.44216 0.07236 0.0
C1114 C 0.99817 0.48393 -0.00193 0.0
C1115 C 0.86872 0.46073 0.26698 0.0
C1116 C 0.93637 0.49623 0.1101 0.0
C1117 C 0.92835 0.52696 0.19225 0.0
C1118 C 0.87989 0.50219 0.30428 0.0
N1119 N 0.91837 0.459 0.10731 0.0
C1120 C 0.88855 0.44216 0.17139 0.0
Co1121 Co 0.83685 0.77155 0.33314 0.0
Co1122 Co 0.82482 0.68923 0.25999 0.0
O1123 O 0.84339 0.72303 0.34349 0.0
C1124 C 0.84278 0.7518 0.53669 0.0
O1125 O 0.8464 0.71948 0.51557 0.0
C1126 C 0.89519 0.66839 0.3286 0.0
O1127 O 0.90617 0.69902 0.30825 0.0
O1128 O 0.85024 0.71163 0.15746 0.0
O1129 O 0.84058 0.7672 0.19422 0.0
H1130 H 0.74163 0.64609 0.04602 0.0
H1131 H 0.89901 0.74021 0.44615 0.0
O1132 O 0.83451 0.77374 0.47465 0.0
H1133 H 0.93597 0.8582 0.24046 0.0
H1134 H 0.82897 0.8904 0.46279 0.0
H1135 H 0.81095 0.81908 0.19087 0.0
H1136 H 0.87786 0.82152 0.22372 0.0
H1137 H 0.84238 0.83066 0.4674 0.0
O1138 O 0.86552 0.65914 0.30043 0.0
H1139 H 0.78225 0.68781 0.09101 0.0
H1140 H 0.83084 0.61304 0.2563 0.0
H1141 H 0.7958 0.87978 0.18821 0.0
H1142 H 0.96116 0.75782 0.50809 0.0
H1143 H 0.8051 0.91562 0.31873 0.0
H1144 H 0.99564 0.81496 0.44103 0.0
O1145 O 0.78477 0.76466 0.31538 0.0
H1146 H 0.80846 0.60062 0.55536 0.0
H1147 H 0.74688 0.69668 0.30161 0.0
H1148 H 0.72772 0.66836 0.47675 0.0
H1149 H 0.74248 0.6176 0.61562 0.0
H1150 H 0.83792 0.63001 0.40906 0.0
H1151 H 0.79601 0.56831 0.18631 0.0
H1152 H 0.75239 0.5839 0.07282 0.0
O1153 O 0.78544 0.7212 0.21715 0.0
C1154 C 0.84581 0.74321 0.13509 0.0
C1155 C 0.76357 0.63754 0.08212 0.0
C1156 C 0.79366 0.59451 0.16422 0.0
N1157 N 0.80863 0.65375 0.17992 0.0
C1158 C 0.78567 0.66199 0.1143 0.0
C1159 C 0.81351 0.62023 0.20316 0.0
C1160 C 0.76869 0.60331 0.10196 0.0
C1161 C 0.90961 0.76257 0.41497 0.0
N1162 N 0.88726 0.78182 0.33955 0.0
C1163 C 0.94937 0.77328 0.45564 0.0
C1164 C 0.97059 0.80834 0.41356 0.0
C1165 C 0.93182 0.83699 0.28703 0.0
C1166 C 0.89521 0.81392 0.27688 0.0
C1167 C 0.82575 0.87512 0.40184 0.0
C1168 C 0.8146 0.83427 0.25096 0.0
C1169 C 0.83296 0.8405 0.40396 0.0
N1170 N 0.82759 0.82029 0.32874 0.0
C1171 C 0.80698 0.86877 0.24713 0.0
C1172 C 0.81253 0.88918 0.32227 0.0
C1173 C 0.77075 0.74821 0.24806 0.0
C1174 C 0.79395 0.61881 0.51696 0.0
C1175 C 0.75844 0.68644 0.36009 0.0
C1176 C 0.7277 0.67842 0.44225 0.0
C1177 C 0.75247 0.62998 0.55426 0.0
N1178 N 0.79569 0.66844 0.3573 0.0
C1179 C 0.81252 0.63863 0.42138 0.0
Co1180 Co 0.48311 0.41784 0.87824 0.0
Co1181 Co 0.56546 0.42988 0.95138 0.0
O1182 O 0.53165 0.41131 0.86789 0.0
C1183 C 0.50287 0.41192 0.67469 0.0
O1184 O 0.53521 0.40831 0.69582 0.0
C1185 C 0.58627 0.35951 0.8829 0.0
O1186 O 0.55563 0.34855 0.90341 0.0
O1187 O 0.54305 0.40446 0.05392 0.0
O1188 O 0.48746 0.41412 0.01715 0.0
H1189 H 0.60866 0.51303 0.16531 0.0
H1190 H 0.5145 0.35572 0.76528 0.0
O1191 O 0.48092 0.42018 0.73672 0.0
H1192 H 0.39647 0.31871 0.97092 0.0
H1193 H 0.36423 0.42571 0.74853 0.0
H1194 H 0.43556 0.44374 0.02048 0.0
H1195 H 0.43312 0.37683 -0.01239 0.0
H1196 H 0.42398 0.41228 0.74398 0.0
O1197 O 0.59554 0.38917 0.91093 0.0
H1198 H 0.56691 0.47245 0.12033 0.0
H1199 H 0.64167 0.42382 0.95509 0.0
H1200 H 0.37483 0.45889 0.02309 0.0
H1201 H 0.49693 0.29357 0.70339 0.0
H1202 H 0.33898 0.44958 0.89255 0.0
H1203 H 0.43979 0.25907 0.77045 0.0
O1204 O 0.49 0.4699 0.896 0.0
H1205 H 0.65409 0.44622 0.656 0.0
H1206 H 0.55801 0.50779 0.90975 0.0
H1207 H 0.58634 0.52694 0.73461 0.0
H1208 H 0.6371 0.51218 0.59574 0.0
H1209 H 0.62469 0.41677 0.80232 0.0
H1210 H 0.68644 0.45861 0.02504 0.0
H1211 H 0.67087 0.50225 0.13847 0.0
O1212 O 0.53348 0.46924 -0.00578 0.0
C1213 C 0.51146 0.4089 0.07629 0.0
C1214 C 0.6172 0.49109 0.12922 0.0
C1215 C 0.66023 0.46098 0.04713 0.0
N1216 N 0.60096 0.44605 0.03144 0.0
C1217 C 0.59274 0.46901 0.09705 0.0
C1218 C 0.63449 0.44115 0.00821 0.0
C1219 C 0.65145 0.48596 0.10936 0.0
C1220 C 0.49213 0.34512 0.79645 0.0
N1221 N 0.47285 0.36746 0.87182 0.0
C1222 C 0.48146 0.30536 0.75582 0.0
C1223 C 0.44639 0.28412 0.79789 0.0
C1224 C 0.41769 0.32287 0.92435 0.0
C1225 C 0.44074 0.35949 0.93447 0.0
C1226 C 0.37951 0.42893 0.80949 0.0
C1227 C 0.42036 0.44008 0.96038 0.0
C1228 C 0.41414 0.42172 0.8074 0.0
N1229 N 0.43435 0.4271 0.88262 0.0
C1230 C 0.38585 0.44771 0.96419 0.0
C1231 C 0.36543 0.44216 0.88903 0.0
C1232 C 0.50646 0.48393 0.96331 0.0
C1233 C 0.6359 0.46073 0.69441 0.0
C1234 C 0.56825 0.49623 0.85127 0.0
C1235 C 0.57627 0.52696 0.76911 0.0
C1236 C 0.62473 0.50219 0.6571 0.0
N1237 N 0.58625 0.459 0.85407 0.0
C1238 C 0.61607 0.44216 0.79 0.0
Co1239 Co 0.83685 0.23316 0.12824 0.0
Co1240 Co 0.82481 0.31548 0.20138 0.0
O1241 O 0.84339 0.28168 0.11789 0.0
C1242 C 0.84278 0.25291 0.92469 0.0
O1243 O 0.8464 0.28523 0.94581 0.0
C1244 C 0.89519 0.33632 0.13277 0.0
O1245 O 0.90617 0.30569 0.15313 0.0
O1246 O 0.85024 0.29308 0.30391 0.0
O1247 O 0.84058 0.23751 0.26715 0.0
H1248 H 0.74163 0.35863 0.41534 0.0
H1249 H 0.89901 0.2645 0.01523 0.0
O1250 O 0.83451 0.23097 -0.01328 0.0
H1251 H 0.93597 0.14651 0.22091 0.0
H1252 H 0.82898 0.11431 -0.00141 0.0
H1253 H 0.81095 0.18563 0.2705 0.0
H1254 H 0.87786 0.18319 0.23766 0.0
H1255 H 0.84238 0.17405 -0.00603 0.0
O1256 O 0.86552 0.34557 0.16093 0.0
H1257 H 0.78224 0.31691 0.37035 0.0
H1258 H 0.83084 0.39167 0.20506 0.0
H1259 H 0.7958 0.12493 0.27316 0.0
H1260 H 0.96116 0.24689 0.95328 0.0
H1261 H 0.8051 0.08909 0.14264 0.0
H1262 H 0.99565 0.18975 0.02035 0.0
O1263 O 0.78477 0.24005 0.146 0.0
H1264 H 0.80845 0.40409 0.90602 0.0
H1265 H 0.74688 0.30802 0.15974 0.0
H1266 H 0.72771 0.33635 -0.01538 0.0
H1267 H 0.74247 0.38711 0.84575 0.0
H1268 H 0.83792 0.3747 0.05231 0.0
H1269 H 0.79602 0.43641 0.27503 0.0
H1270 H 0.75239 0.42082 0.38853 0.0
O1271 O 0.78544 0.28351 0.24422 0.0
C1272 C 0.84581 0.2615 0.32628 0.0
C1273 C 0.76357 0.36718 0.37924 0.0
C1274 C 0.79366 0.4102 0.29714 0.0
N1275 N 0.80863 0.35097 0.28144 0.0
C1276 C 0.78567 0.34273 0.34706 0.0
C1277 C 0.81351 0.38449 0.2582 0.0
C1278 C 0.76869 0.40141 0.35939 0.0
C1279 C 0.90961 0.24214 0.04641 0.0
N1280 N 0.88726 0.22289 0.12182 0.0
C1281 C 0.94937 0.23143 0.00574 0.0
C1282 C 0.97059 0.19637 0.04782 0.0
C1283 C 0.93182 0.16772 0.17435 0.0
C1284 C 0.89521 0.19079 0.1845 0.0
C1285 C 0.82576 0.12959 0.05954 0.0
C1286 C 0.8146 0.17044 0.21041 0.0
C1287 C 0.83296 0.16421 0.05741 0.0
N1288 N 0.82759 0.18442 0.13264 0.0
C1289 C 0.80698 0.13594 0.21424 0.0
C1290 C 0.81253 0.11553 0.1391 0.0
C1291 C 0.77075 0.2565 0.21332 0.0
C1292 C 0.79394 0.38591 0.94441 0.0
C1293 C 0.75844 0.31827 0.10126 0.0
C1294 C 0.72769 0.32629 0.01911 0.0
C1295 C 0.75247 0.37474 0.90711 0.0
N1296 N 0.79568 0.33627 0.10406 0.0
C1297 C 0.81252 0.36608 0.04 0.0
Co1298 Co 0.02151 0.58687 0.37822 0.0
Co1299 Co 0.93916 0.57483 0.45137 0.0
O1300 O 0.97297 0.5934 0.36787 0.0
C1301 C 1.00175 0.59279 0.17467 0.0
O1302 O 0.96942 0.5964 0.1958 0.0
C1303 C 0.91835 0.6452 0.38288 0.0
O1304 O 0.94899 0.65616 0.4034 0.0
O1305 O 0.96157 0.60024 0.5539 0.0
O1306 O 0.01716 0.59059 0.51714 0.0
H1307 H 0.89597 0.49168 0.66532 0.0
H1308 H 0.99012 0.64899 0.26526 0.0
O1309 O 0.0237 0.58453 0.23671 0.0
H1310 H 0.10815 0.68599 0.47089 0.0
H1311 H 0.1404 0.579 0.24851 0.0
H1312 H 0.06907 0.56097 0.52047 0.0
H1313 H 0.0715 0.62787 0.48759 0.0
H1314 H 0.08064 0.59243 0.24396 0.0
O1315 O 0.90908 0.61553 0.41091 0.0
H1316 H 0.93772 0.53226 0.62033 0.0
H1317 H 0.86295 0.58088 0.45507 0.0
H1318 H 0.12979 0.54582 0.52309 0.0
H1319 H 0.00769 0.71115 0.20336 0.0
H1320 H 0.16564 0.55513 0.39254 0.0
H1321 H 0.06483 0.74565 0.27043 0.0
O1322 O 0.01462 0.53481 0.39599 0.0
H1323 H 0.85054 0.55849 0.15599 0.0
H1324 H 0.94661 0.49692 0.40976 0.0
H1325 H 0.91829 0.47777 0.23462 0.0
H1326 H 0.86752 0.49253 0.09574 0.0
H1327 H 0.87994 0.58794 0.3023 0.0
H1328 H 0.81818 0.54608 0.52504 0.0
H1329 H 0.83376 0.50245 0.63849 0.0
O1330 O 0.97115 0.53546 0.49421 0.0
C1331 C 0.99316 0.59581 0.57627 0.0
C1332 C 0.88743 0.51361 0.62922 0.0
C1333 C 0.8444 0.54372 0.54713 0.0
N1334 N 0.90366 0.55866 0.53143 0.0
C1335 C 0.91189 0.53569 0.59704 0.0
C1336 C 0.87013 0.56355 0.5082 0.0
C1337 C 0.85318 0.51874 0.60937 0.0
C1338 C 0.01249 0.65959 0.29642 0.0
N1339 N 0.03177 0.63725 0.3718 0.0
C1340 C 0.02317 0.69936 0.25579 0.0
C1341 C 0.05823 0.72059 0.29786 0.0
C1342 C 0.08693 0.68184 0.42432 0.0
C1343 C 0.06389 0.64522 0.43445 0.0
C1344 C 0.12511 0.57578 0.30947 0.0
C1345 C 0.08426 0.56463 0.46037 0.0
C1346 C 0.09048 0.58299 0.30738 0.0
N1347 N 0.07027 0.57761 0.38261 0.0
C1348 C 0.11877 0.557 0.46417 0.0
C1349 C 0.13919 0.56255 0.38902 0.0
C1350 C 0.99817 0.52078 0.46331 0.0
C1351 C 0.86872 0.54398 0.1944 0.0
C1352 C 0.93637 0.50848 0.35127 0.0
C1353 C 0.92835 0.47775 0.26912 0.0
C1354 C 0.87989 0.50252 0.1571 0.0
N1355 N 0.91837 0.54571 0.35406 0.0
C1356 C 0.88855 0.56255 0.28999 0.0
Co1357 Co 0.66778 0.77154 0.6282 0.0
Co1358 Co 0.67981 0.68922 0.70136 0.0
O1359 O 0.66123 0.72302 0.61787 0.0
C1360 C 0.66184 0.75179 0.42466 0.0
O1361 O 0.65822 0.71947 0.4458 0.0
C1362 C 0.60944 0.66838 0.63276 0.0
O1363 O 0.59845 0.69902 0.6531 0.0
O1364 O 0.65439 0.71162 0.8039 0.0
O1365 O 0.66405 0.7672 0.76712 0.0
H1366 H 0.763 0.64605 0.91531 0.0
H1367 H 0.60561 0.74021 0.5152 0.0
O1368 O 0.67011 0.77373 0.48668 0.0
H1369 H 0.56866 0.8582 0.7209 0.0
H1370 H 0.67564 0.8904 0.49851 0.0
H1371 H 0.69369 0.81907 0.77043 0.0
H1372 H 0.62677 0.82151 0.73762 0.0
H1373 H 0.66224 0.83066 0.49392 0.0
O1374 O 0.6391 0.65914 0.66093 0.0
H1375 H 0.72239 0.68778 0.87033 0.0
H1376 H 0.67378 0.61304 0.70505 0.0
H1377 H 0.70884 0.87978 0.77306 0.0
H1378 H 0.54345 0.75782 0.45328 0.0
H1379 H 0.69952 0.91562 0.64255 0.0
H1380 H 0.50898 0.81496 0.52037 0.0
O1381 O 0.71985 0.76465 0.64595 0.0
H1382 H 0.69615 0.60064 0.40599 0.0
H1383 H 0.75775 0.69667 0.65975 0.0
H1384 H 0.77691 0.66836 0.48461 0.0
H1385 H 0.76214 0.61761 0.34573 0.0
H1386 H 0.6667 0.63002 0.55229 0.0
H1387 H 0.70861 0.5683 0.77499 0.0
H1388 H 0.75223 0.58387 0.88848 0.0
O1389 O 0.71919 0.7212 0.7442 0.0
C1390 C 0.65882 0.74321 0.82625 0.0
C1391 C 0.74105 0.63751 0.87922 0.0
C1392 C 0.71096 0.5945 0.79711 0.0
N1393 N 0.69599 0.65373 0.78143 0.0
C1394 C 0.71896 0.66196 0.84704 0.0
C1395 C 0.69111 0.62022 0.75819 0.0
C1396 C 0.73593 0.60328 0.85936 0.0
C1397 C 0.59502 0.76257 0.54638 0.0
N1398 N 0.61737 0.78182 0.62179 0.0
C1399 C 0.55525 0.77328 0.50574 0.0
C1400 C 0.53403 0.80834 0.54782 0.0
C1401 C 0.57281 0.83698 0.67434 0.0
C1402 C 0.60942 0.81392 0.68447 0.0
C1403 C 0.67886 0.87511 0.55946 0.0
C1404 C 0.69003 0.83426 0.71034 0.0
C1405 C 0.67166 0.84049 0.55735 0.0
N1406 N 0.67704 0.82028 0.63258 0.0
C1407 C 0.69765 0.86876 0.71416 0.0
C1408 C 0.69209 0.88918 0.63902 0.0
C1409 C 0.73388 0.7482 0.71328 0.0
C1410 C 0.71067 0.61882 0.44439 0.0
C1411 C 0.74619 0.68643 0.60127 0.0
C1412 C 0.77693 0.67841 0.51911 0.0
C1413 C 0.75215 0.62998 0.40709 0.0
N1414 N 0.70894 0.66844 0.60406 0.0
C1415 C 0.6921 0.63863 0.53998 0.0
Co1416 Co 0.52151 0.41784 0.37824 0.0
Co1417 Co 0.43916 0.42988 0.45139 0.0
O1418 O 0.47297 0.41131 0.3679 0.0
C1419 C 0.50175 0.41192 0.17469 0.0
O1420 O 0.46941 0.40831 0.19582 0.0
C1421 C 0.41835 0.35951 0.3829 0.0
O1422 O 0.44899 0.34855 0.40342 0.0
O1423 O 0.46157 0.40446 0.55392 0.0
O1424 O 0.51716 0.41412 0.51715 0.0
H1425 H 0.39596 0.51303 0.66533 0.0
H1426 H 0.49012 0.35572 0.26529 0.0
O1427 O 0.5237 0.42018 0.23672 0.0
H1428 H 0.60815 0.31871 0.47092 0.0
H1429 H 0.6404 0.42572 0.24853 0.0
H1430 H 0.56907 0.44374 0.52048 0.0
H1431 H 0.5715 0.37683 0.48761 0.0
H1432 H 0.58064 0.41228 0.24398 0.0
O1433 O 0.40908 0.38917 0.41093 0.0
H1434 H 0.43772 0.47245 0.62034 0.0
H1435 H 0.36295 0.42383 0.45509 0.0
H1436 H 0.62979 0.45889 0.5231 0.0
H1437 H 0.50769 0.29357 0.20339 0.0
H1438 H 0.66564 0.44959 0.39255 0.0
H1439 H 0.56483 0.25906 0.27045 0.0
O1440 O 0.51462 0.4699 0.396 0.0
H1441 H 0.35054 0.44622 0.156 0.0
H1442 H 0.44661 0.50779 0.40977 0.0
H1443 H 0.41829 0.52694 0.23462 0.0
H1444 H 0.36752 0.51218 0.09573 0.0
H1445 H 0.37994 0.41677 0.30232 0.0
H1446 H 0.31818 0.45862 0.52505 0.0
H1447 H 0.33375 0.50225 0.63849 0.0
O1448 O 0.47114 0.46924 0.49422 0.0
C1449 C 0.49317 0.40889 0.57629 0.0
C1450 C 0.38742 0.49109 0.62923 0.0
C1451 C 0.3444 0.46099 0.54714 0.0
N1452 N 0.40366 0.44605 0.53145 0.0
C1453 C 0.41189 0.46901 0.59705 0.0
C1454 C 0.37013 0.44116 0.50821 0.0
C1455 C 0.35318 0.48596 0.60937 0.0
C1456 C 0.51249 0.34512 0.29645 0.0
N1457 N 0.53178 0.36745 0.37183 0.0
C1458 C 0.52317 0.30536 0.25582 0.0
C1459 C 0.55823 0.28412 0.29789 0.0
C1460 C 0.58693 0.32287 0.42435 0.0
C1461 C 0.56389 0.35949 0.43447 0.0
C1462 C 0.62511 0.42893 0.30949 0.0
C1463 C 0.58426 0.44008 0.46038 0.0
C1464 C 0.59048 0.42172 0.3074 0.0
N1465 N 0.57027 0.42709 0.38263 0.0
C1466 C 0.61877 0.44771 0.46419 0.0
C1467 C 0.63919 0.44216 0.38903 0.0
C1468 C 0.49816 0.48393 0.46331 0.0
C1469 C 0.36873 0.46073 0.1944 0.0
C1470 C 0.43637 0.49623 0.35128 0.0
C1471 C 0.42835 0.52696 0.26912 0.0
C1472 C 0.3799 0.50219 0.1571 0.0
N1473 N 0.41837 0.459 0.35408 0.0
C1474 C 0.38855 0.44216 0.29 0.0
Co1475 Co 0.33685 0.77155 0.1282 0.0
Co1476 Co 0.32482 0.68922 0.20137 0.0
O1477 O 0.34339 0.72302 0.11787 0.0
C1478 C 0.34278 0.75179 0.92466 0.0
O1479 O 0.3464 0.71947 0.9458 0.0
C1480 C 0.39519 0.66839 0.13276 0.0
O1481 O 0.40617 0.69902 0.1531 0.0
O1482 O 0.35024 0.71163 0.3039 0.0
O1483 O 0.34057 0.7672 0.26712 0.0
H1484 H 0.24162 0.64607 0.41532 0.0
H1485 H 0.39901 0.74021 0.0152 0.0
O1486 O 0.33451 0.77373 -0.01331 0.0
H1487 H 0.43596 0.85819 0.22091 0.0
H1488 H 0.32898 0.8904 -0.00148 0.0
H1489 H 0.31094 0.81907 0.27044 0.0
H1490 H 0.37785 0.82151 0.23762 0.0
H1491 H 0.34238 0.83066 -0.00608 0.0
O1492 O 0.36553 0.65914 0.16094 0.0
H1493 H 0.28224 0.68779 0.37035 0.0
H1494 H 0.33084 0.61304 0.20506 0.0
H1495 H 0.29579 0.87978 0.27307 0.0
H1496 H 0.46117 0.75783 0.95328 0.0
H1497 H 0.3051 0.91562 0.14255 0.0
H1498 H 0.49565 0.81497 0.02036 0.0
O1499 O 0.28477 0.76465 0.14596 0.0
H1500 H 0.30848 0.60064 0.90598 0.0
H1501 H 0.24688 0.69666 0.15978 0.0
H1502 H 0.22772 0.66835 -0.01537 0.0
H1503 H 0.24249 0.61762 0.84573 0.0
H1504 H 0.33794 0.63003 0.05229 0.0
H1505 H 0.29601 0.5683 0.27502 0.0
H1506 H 0.25239 0.58388 0.3885 0.0
O1507 O 0.28544 0.7212 0.2442 0.0
C1508 C 0.34581 0.74321 0.32626 0.0
C1509 C 0.26357 0.63753 0.37923 0.0
C1510 C 0.29366 0.5945 0.29713 0.0
N1511 N 0.30863 0.65374 0.28145 0.0
C1512 C 0.28567 0.66197 0.34706 0.0
C1513 C 0.31351 0.62022 0.2582 0.0
C1514 C 0.26869 0.60329 0.35938 0.0
C1515 C 0.40961 0.76257 0.04638 0.0
N1516 N 0.38725 0.78182 0.12179 0.0
C1517 C 0.44937 0.77328 0.00573 0.0
C1518 C 0.47059 0.80834 0.04782 0.0
C1519 C 0.43182 0.83698 0.17434 0.0
C1520 C 0.3952 0.81392 0.18447 0.0
C1521 C 0.32576 0.87511 0.05947 0.0
C1522 C 0.31459 0.83427 0.21034 0.0
C1523 C 0.33296 0.84049 0.05735 0.0
N1524 N 0.32758 0.82028 0.13258 0.0
C1525 C 0.30697 0.86876 0.21416 0.0
C1526 C 0.31253 0.88918 0.13902 0.0
C1527 C 0.27074 0.7482 0.21328 0.0
C1528 C 0.29396 0.61882 0.94439 0.0
C1529 C 0.25844 0.68643 0.10129 0.0
C1530 C 0.2277 0.67841 0.01913 0.0
C1531 C 0.25248 0.62998 0.90709 0.0
N1532 N 0.29569 0.66844 0.10407 0.0
C1533 C 0.31253 0.63864 0.03998 0.0
Co1534 Co 0.98311 0.58687 0.87823 0.0
Co1535 Co 0.06546 0.57483 0.95137 0.0
O1536 O 0.03165 0.5934 0.86788 0.0
C1537 C 0.00287 0.59279 0.67467 0.0
O1538 O 0.03521 0.59641 0.6958 0.0
C1539 C 0.08628 0.6452 0.88289 0.0
O1540 O 0.05564 0.65616 0.9034 0.0
O1541 O 0.04306 0.60024 0.0539 0.0
O1542 O 0.98746 0.59059 0.01714 0.0
H1543 H 0.10866 0.49168 0.16533 0.0
H1544 H 0.01451 0.64899 0.76526 0.0
O1545 O 0.98093 0.58453 0.73671 0.0
H1546 H 0.89648 0.68599 0.97089 0.0
H1547 H 0.86423 0.579 0.74851 0.0
H1548 H 0.93556 0.56097 0.02047 0.0
H1549 H 0.93312 0.62788 -0.01241 0.0
H1550 H 0.92398 0.59243 0.74397 0.0
O1551 O 0.09554 0.61553 0.91091 0.0
H1552 H 0.06691 0.53226 0.12034 0.0
H1553 H 0.14167 0.58087 0.95506 0.0
H1554 H 0.87483 0.54582 0.02309 0.0
H1555 H 0.99694 0.71115 0.70337 0.0
H1556 H 0.83899 0.55513 0.89254 0.0
H1557 H 0.93979 0.74565 0.77043 0.0
O1558 O 0.99 0.53481 0.89599 0.0
H1559 H 0.15409 0.55849 0.65599 0.0
H1560 H 0.05801 0.49692 0.90976 0.0
H1561 H 0.08634 0.47777 0.73462 0.0
H1562 H 0.1371 0.49253 0.59574 0.0
H1563 H 0.12469 0.58794 0.8023 0.0
H1564 H 0.18644 0.54608 0.02503 0.0
H1565 H 0.17087 0.50245 0.13849 0.0
O1566 O 0.03348 0.53546 -0.00578 0.0
C1567 C 0.01146 0.59582 0.07627 0.0
C1568 C 0.1172 0.51361 0.12923 0.0
C1569 C 0.16023 0.54371 0.04712 0.0
N1570 N 0.10097 0.55865 0.03143 0.0
C1571 C 0.09274 0.53569 0.09705 0.0
C1572 C 0.13449 0.56355 0.00819 0.0
C1573 C 0.15145 0.51874 0.10936 0.0
C1574 C 0.99213 0.65959 0.79643 0.0
N1575 N 0.97285 0.63725 0.8718 0.0
C1576 C 0.98146 0.69936 0.7558 0.0
C1577 C 0.9464 0.72059 0.79786 0.0
C1578 C 0.91769 0.68184 0.92432 0.0
C1579 C 0.94074 0.64522 0.93445 0.0
C1580 C 0.87952 0.57578 0.80947 0.0
C1581 C 0.92036 0.56463 0.96037 0.0
C1582 C 0.91414 0.58299 0.80738 0.0
N1583 N 0.93436 0.57762 0.88261 0.0
C1584 C 0.88586 0.557 0.96418 0.0
C1585 C 0.86544 0.56255 0.88902 0.0
C1586 C 0.00646 0.52078 0.9633 0.0
C1587 C 0.1359 0.54398 0.69439 0.0
C1588 C 0.06825 0.50848 0.85128 0.0
C1589 C 0.07627 0.47775 0.76912 0.0
C1590 C 0.12473 0.50252 0.6571 0.0
N1591 N 0.08625 0.54571 0.85406 0.0
C1592 C 0.11607 0.56254 0.78998 0.0
Co1593 Co 0.16777 0.23316 0.62824 0.0
Co1594 Co 0.17981 0.31548 0.70138 0.0
O1595 O 0.16123 0.28168 0.61789 0.0
C1596 C 0.16184 0.25291 0.42469 0.0
O1597 O 0.15822 0.28523 0.44581 0.0
C1598 C 0.10944 0.33632 0.63278 0.0
O1599 O 0.09845 0.30569 0.65313 0.0
O1600 O 0.15438 0.29308 0.80391 0.0
O1601 O 0.16404 0.23751 0.76716 0.0
H1602 H 0.26299 0.35861 0.91535 0.0
H1603 H 0.10561 0.2645 0.51523 0.0
O1604 O 0.17011 0.23097 0.48672 0.0
H1605 H 0.06865 0.14651 0.72092 0.0
H1606 H 0.17565 0.11431 0.49859 0.0
H1607 H 0.19367 0.18563 0.77051 0.0
H1608 H 0.12676 0.18319 0.73766 0.0
H1609 H 0.16224 0.17404 0.49398 0.0
O1610 O 0.1391 0.34557 0.66095 0.0
H1611 H 0.22238 0.3169 0.87037 0.0
H1612 H 0.17379 0.39167 0.70508 0.0
H1613 H 0.20883 0.12493 0.77317 0.0
H1614 H 0.04346 0.24689 0.45328 0.0
H1615 H 0.19953 0.08909 0.64265 0.0
H1616 H 0.00898 0.18975 0.52035 0.0
O1617 O 0.21985 0.24005 0.646 0.0
H1618 H 0.19616 0.40408 0.40601 0.0
H1619 H 0.25775 0.30803 0.65976 0.0
H1620 H 0.27691 0.33635 0.48463 0.0
H1621 H 0.26214 0.3871 0.34575 0.0
H1622 H 0.1667 0.37469 0.55231 0.0
H1623 H 0.20861 0.4364 0.77506 0.0
H1624 H 0.25223 0.42081 0.88855 0.0
O1625 O 0.21919 0.28351 0.74423 0.0
C1626 C 0.15881 0.2615 0.82628 0.0
C1627 C 0.24105 0.36717 0.87926 0.0
C1628 C 0.21096 0.41019 0.79716 0.0
N1629 N 0.19599 0.35096 0.78146 0.0
C1630 C 0.21895 0.34272 0.84708 0.0
C1631 C 0.19111 0.38448 0.75822 0.0
C1632 C 0.23593 0.4014 0.85942 0.0
C1633 C 0.09502 0.24214 0.5464 0.0
N1634 N 0.11737 0.22289 0.62182 0.0
C1635 C 0.05526 0.23143 0.50574 0.0
C1636 C 0.03404 0.19637 0.54782 0.0
C1637 C 0.0728 0.16772 0.67435 0.0
C1638 C 0.10941 0.19079 0.6845 0.0
C1639 C 0.17887 0.12959 0.55954 0.0
C1640 C 0.19002 0.17044 0.71041 0.0
C1641 C 0.17167 0.16421 0.55742 0.0
N1642 N 0.17704 0.18442 0.63264 0.0
C1643 C 0.19765 0.13594 0.71425 0.0
C1644 C 0.1921 0.11553 0.6391 0.0
C1645 C 0.23388 0.2565 0.71332 0.0
C1646 C 0.21068 0.3859 0.44441 0.0
C1647 C 0.24619 0.31827 0.60128 0.0
C1648 C 0.27693 0.32629 0.51913 0.0
C1649 C 0.25215 0.37473 0.40712 0.0
N1650 N 0.20894 0.33627 0.60408 0.0
C1651 C 0.1921 0.36608 0.54 0.0
Co1652 Co 0.52151 0.58687 0.08314 0.0
Co1653 Co 0.43916 0.57483 0.00999 0.0
O1654 O 0.47297 0.5934 0.09348 0.0
C1655 C 0.50175 0.59279 0.28668 0.0
O1656 O 0.46942 0.5964 0.26556 0.0
C1657 C 0.41835 0.6452 0.07848 0.0
O1658 O 0.44899 0.65616 0.05796 0.0
O1659 O 0.46157 0.60025 0.90745 0.0
O1660 O 0.51717 0.59059 0.94422 0.0
H1661 H 0.39596 0.49168 0.79606 0.0
H1662 H 0.49012 0.64899 0.19609 0.0
O1663 O 0.5237 0.58453 0.22465 0.0
H1664 H 0.60815 0.686 -0.00954 0.0
H1665 H 0.6404 0.57899 0.21285 0.0
H1666 H 0.56907 0.56097 0.9409 0.0
H1667 H 0.5715 0.62788 0.97377 0.0
H1668 H 0.58064 0.59243 0.21739 0.0
O1669 O 0.40908 0.61553 0.05045 0.0
H1670 H 0.43772 0.53226 0.84104 0.0
H1671 H 0.36295 0.58088 0.00629 0.0
H1672 H 0.62979 0.54582 0.93828 0.0
H1673 H 0.50769 0.71114 0.25798 0.0
H1674 H 0.66564 0.55512 0.06883 0.0
H1675 H 0.56483 0.74564 0.19092 0.0
O1676 O 0.51462 0.5348 0.06538 0.0
H1677 H 0.35054 0.55849 0.30537 0.0
H1678 H 0.44661 0.49692 0.05162 0.0
H1679 H 0.41829 0.47777 0.22676 0.0
H1680 H 0.36752 0.49253 0.36564 0.0
H1681 H 0.37993 0.58794 0.15905 0.0
H1682 H 0.31818 0.5461 0.93634 0.0
H1683 H 0.33375 0.50246 0.82291 0.0
O1684 O 0.47114 0.53547 0.96715 0.0
C1685 C 0.49317 0.59582 0.88509 0.0
C1686 C 0.38742 0.51362 0.83216 0.0
C1687 C 0.3444 0.54372 0.91425 0.0
N1688 N 0.40366 0.55866 0.92993 0.0
C1689 C 0.41189 0.5357 0.86433 0.0
C1690 C 0.37013 0.56356 0.95317 0.0
C1691 C 0.35318 0.51875 0.85202 0.0
C1692 C 0.51249 0.65959 0.16493 0.0
N1693 N 0.53178 0.63725 0.08955 0.0
C1694 C 0.52317 0.69935 0.20556 0.0
C1695 C 0.55823 0.72058 0.16349 0.0
C1696 C 0.58693 0.68184 0.03703 0.0
C1697 C 0.56389 0.64522 0.0269 0.0
C1698 C 0.62511 0.57578 0.15189 0.0
C1699 C 0.58426 0.56463 0.00099 0.0
C1700 C 0.59048 0.58299 0.15398 0.0
N1701 N 0.57027 0.57761 0.07875 0.0
C1702 C 0.61877 0.557 -0.00281 0.0
C1703 C 0.63919 0.56255 0.07234 0.0
C1704 C 0.49817 0.52078 -0.00193 0.0
C1705 C 0.36872 0.54398 0.26697 0.0
C1706 C 0.43637 0.50848 0.11011 0.0
C1707 C 0.42835 0.47775 0.19226 0.0
C1708 C 0.37989 0.50252 0.30427 0.0
N1709 N 0.41837 0.54571 0.10731 0.0
C1710 C 0.38855 0.56255 0.17138 0.0
Co1711 Co 0.16777 0.77155 0.83314 0.0
Co1712 Co 0.17981 0.68922 0.76 0.0
O1713 O 0.16123 0.72302 0.84349 0.0
C1714 C 0.16184 0.7518 0.03669 0.0
O1715 O 0.15822 0.71947 0.01557 0.0
C1716 C 0.10944 0.66838 0.8286 0.0
O1717 O 0.09845 0.69902 0.80825 0.0
O1718 O 0.15438 0.71162 0.65747 0.0
O1719 O 0.16404 0.7672 0.69422 0.0
H1720 H 0.263 0.64608 0.54604 0.0
H1721 H 0.10561 0.74021 0.94615 0.0
O1722 O 0.17011 0.77373 0.97465 0.0
H1723 H 0.06865 0.8582 0.74046 0.0
H1724 H 0.17565 0.8904 0.96279 0.0
H1725 H 0.19367 0.81908 0.69087 0.0
H1726 H 0.12676 0.82152 0.72372 0.0
H1727 H 0.16224 0.83066 0.9674 0.0
O1728 O 0.1391 0.65914 0.80044 0.0
H1729 H 0.22239 0.6878 0.59102 0.0
H1730 H 0.17379 0.61304 0.75632 0.0
H1731 H 0.20883 0.87978 0.68822 0.0
H1732 H 0.04346 0.75782 0.00809 0.0
H1733 H 0.19952 0.91562 0.81874 0.0
H1734 H 0.00898 0.81496 0.94103 0.0
O1735 O 0.21985 0.76465 0.81538 0.0
H1736 H 0.19617 0.60062 0.05536 0.0
H1737 H 0.25775 0.69668 0.80164 0.0
H1738 H 0.27691 0.66836 0.97676 0.0
H1739 H 0.26215 0.6176 0.11563 0.0
H1740 H 0.16671 0.63001 0.90906 0.0
H1741 H 0.20861 0.5683 0.68635 0.0
H1742 H 0.25223 0.58388 0.57285 0.0
O1743 O 0.21919 0.7212 0.71715 0.0
C1744 C 0.15881 0.74321 0.63509 0.0
C1745 C 0.24105 0.63753 0.58213 0.0
C1746 C 0.21096 0.59451 0.66424 0.0
N1747 N 0.196 0.65374 0.67994 0.0
C1748 C 0.21896 0.66198 0.61432 0.0
C1749 C 0.19111 0.62022 0.70318 0.0
C1750 C 0.23593 0.6033 0.60198 0.0
C1751 C 0.09502 0.76257 0.91497 0.0
N1752 N 0.11737 0.78182 0.83955 0.0
C1753 C 0.05525 0.77328 0.95564 0.0
C1754 C 0.03403 0.80834 0.91356 0.0
C1755 C 0.0728 0.83699 0.78703 0.0
C1756 C 0.10941 0.81392 0.77688 0.0
C1757 C 0.17887 0.87511 0.90184 0.0
C1758 C 0.19002 0.83427 0.75097 0.0
C1759 C 0.17166 0.84049 0.90396 0.0
N1760 N 0.17704 0.82029 0.82874 0.0
C1761 C 0.19765 0.86876 0.74714 0.0
C1762 C 0.19209 0.88918 0.82228 0.0
C1763 C 0.23388 0.74821 0.74806 0.0
C1764 C 0.21068 0.6188 0.01697 0.0
C1765 C 0.24619 0.68644 0.86011 0.0
C1766 C 0.27693 0.67842 0.94226 0.0
C1767 C 0.25216 0.62997 0.05427 0.0
N1768 N 0.20894 0.66844 0.85731 0.0
C1769 C 0.1921 0.63863 0.92138 0.0
Co1770 Co 0.98311 0.41784 0.58315 0.0
Co1771 Co 0.06546 0.42988 0.51001 0.0
O1772 O 0.03165 0.41131 0.5935 0.0
C1773 C 0.00287 0.41191 0.7867 0.0
O1774 O 0.03521 0.4083 0.76558 0.0
C1775 C 0.08627 0.35951 0.57849 0.0
O1776 O 0.05564 0.34855 0.55798 0.0
O1777 O 0.04305 0.40446 0.40747 0.0
O1778 O 0.98746 0.41412 0.44424 0.0
H1779 H 0.10866 0.51303 0.29605 0.0
H1780 H 0.0145 0.35572 0.69611 0.0
O1781 O 0.98093 0.42018 0.72467 0.0
H1782 H 0.89647 0.31872 0.49049 0.0
H1783 H 0.86423 0.42571 0.71287 0.0
H1784 H 0.93556 0.44374 0.44091 0.0
H1785 H 0.93312 0.37683 0.47379 0.0
H1786 H 0.92398 0.41228 0.71741 0.0
O1787 O 0.09554 0.38918 0.55047 0.0
H1788 H 0.0669 0.47245 0.34104 0.0
H1789 H 0.14167 0.42383 0.50631 0.0
H1790 H 0.87483 0.45889 0.43829 0.0
H1791 H 0.99694 0.29356 0.75801 0.0
H1792 H 0.83899 0.44958 0.56884 0.0
H1793 H 0.93979 0.25906 0.69095 0.0
O1794 O 0.99 0.4699 0.56538 0.0
H1795 H 0.15409 0.44622 0.80538 0.0
H1796 H 0.05801 0.50779 0.55162 0.0
H1797 H 0.08634 0.52694 0.72675 0.0
H1798 H 0.1371 0.51218 0.86564 0.0
H1799 H 0.12469 0.41677 0.65908 0.0
H1800 H 0.18644 0.45862 0.43635 0.0
H1801 H 0.17087 0.50226 0.32289 0.0
O1802 O 0.03348 0.46924 0.46716 0.0
C1803 C 0.01146 0.40889 0.38511 0.0
C1804 C 0.1172 0.49109 0.33215 0.0
C1805 C 0.16023 0.46099 0.41425 0.0
N1806 N 0.10096 0.44605 0.42994 0.0
C1807 C 0.09274 0.46901 0.36433 0.0
C1808 C 0.13449 0.44116 0.45318 0.0
C1809 C 0.15144 0.48597 0.35201 0.0
C1810 C 0.99213 0.34511 0.66495 0.0
N1811 N 0.97285 0.36745 0.58957 0.0
C1812 C 0.98146 0.30535 0.70558 0.0
C1813 C 0.94639 0.28412 0.66351 0.0
C1814 C 0.91769 0.32287 0.53705 0.0
C1815 C 0.94074 0.35949 0.52693 0.0
C1816 C 0.87951 0.42893 0.65191 0.0
C1817 C 0.92036 0.44008 0.50101 0.0
C1818 C 0.91414 0.42172 0.654 0.0
N1819 N 0.93435 0.42709 0.57877 0.0
C1820 C 0.88585 0.44771 0.4972 0.0
C1821 C 0.86543 0.44216 0.57236 0.0
C1822 C 0.00646 0.48393 0.49807 0.0
C1823 C 0.1359 0.46073 0.76698 0.0
C1824 C 0.06825 0.49623 0.6101 0.0
C1825 C 0.07627 0.52696 0.69225 0.0
C1826 C 0.12473 0.50219 0.80427 0.0
N1827 N 0.08625 0.459 0.60731 0.0
C1828 C 0.11607 0.44216 0.67139 0.0
Co1829 Co 0.33685 0.23317 0.33317 0.0
Co1830 Co 0.32481 0.31549 0.26001 0.0
O1831 O 0.34339 0.28169 0.3435 0.0
C1832 C 0.34278 0.25292 0.53672 0.0
O1833 O 0.3464 0.28524 0.51558 0.0
C1834 C 0.39519 0.33632 0.32862 0.0
O1835 O 0.40617 0.30569 0.30827 0.0
O1836 O 0.35024 0.29309 0.15748 0.0
O1837 O 0.34057 0.23751 0.19426 0.0
H1838 H 0.24162 0.35866 0.04607 0.0
H1839 H 0.39901 0.2645 0.44618 0.0
O1840 O 0.33451 0.23098 0.47469 0.0
H1841 H 0.43596 0.14651 0.24047 0.0
H1842 H 0.32899 0.11431 0.46286 0.0
H1843 H 0.31093 0.18564 0.19094 0.0
H1844 H 0.37785 0.1832 0.22376 0.0
H1845 H 0.34239 0.17405 0.46746 0.0
O1846 O 0.36553 0.34557 0.30045 0.0
H1847 H 0.28223 0.31692 0.09104 0.0
H1848 H 0.33084 0.39167 0.25633 0.0
H1849 H 0.29579 0.12493 0.18831 0.0
H1850 H 0.46117 0.24688 0.5081 0.0
H1851 H 0.3051 0.08909 0.31883 0.0
H1852 H 0.49565 0.18974 0.44101 0.0
O1853 O 0.28477 0.24006 0.31542 0.0
H1854 H 0.30847 0.40407 0.55539 0.0
H1855 H 0.24688 0.30804 0.30162 0.0
H1856 H 0.22772 0.33635 0.47676 0.0
H1857 H 0.24248 0.3871 0.61565 0.0
H1858 H 0.33793 0.37469 0.40909 0.0
H1859 H 0.29602 0.43641 0.18639 0.0
H1860 H 0.25239 0.42084 0.0729 0.0
O1861 O 0.28543 0.28351 0.21718 0.0
C1862 C 0.34581 0.2615 0.13512 0.0
C1863 C 0.26357 0.3672 0.08216 0.0
C1864 C 0.29367 0.41021 0.16427 0.0
N1865 N 0.30863 0.35098 0.17995 0.0
C1866 C 0.28566 0.34275 0.11433 0.0
C1867 C 0.31351 0.38449 0.20319 0.0
C1868 C 0.26869 0.40143 0.10202 0.0
C1869 C 0.40961 0.24214 0.41499 0.0
N1870 N 0.38725 0.22289 0.33958 0.0
C1871 C 0.44937 0.23143 0.45564 0.0
C1872 C 0.47059 0.19637 0.41355 0.0
C1873 C 0.43182 0.16773 0.28704 0.0
C1874 C 0.3952 0.19079 0.27691 0.0
C1875 C 0.32576 0.1296 0.40191 0.0
C1876 C 0.31459 0.17045 0.25104 0.0
C1877 C 0.33296 0.16422 0.40403 0.0
N1878 N 0.32758 0.18443 0.3288 0.0
C1879 C 0.30697 0.13595 0.24722 0.0
C1880 C 0.31253 0.11553 0.32236 0.0
C1881 C 0.27074 0.25651 0.2481 0.0
C1882 C 0.29395 0.38589 0.51699 0.0
C1883 C 0.25844 0.31828 0.36011 0.0
C1884 C 0.22769 0.3263 0.44226 0.0
C1885 C 0.25248 0.37473 0.55429 0.0
N1886 N 0.29569 0.33627 0.35732 0.0
C1887 C 0.31253 0.36608 0.4214 0.0
loop_
_geom_bond_atom_site_label_1
_geom_bond_atom_site_label_2
_geom_bond_distance
_geom_bond_site_symmetry_2
_ccdc_geom_bond_type
Co0 O2 2.143 1_655 S
Co0 O8 2.074 1_554 S
Co0 O11 2.093 . S
Co0 O24 2.097 . S
Co0 N41 2.151 . S
Co0 N49 2.214 . S
Co1 O2 2.160 . S
Co1 O7 2.058 1_554 S
Co1 O17 2.057 . S
Co1 O32 2.037 . S
Co1 N36 2.145 1_554 S
Co1 N57 2.257 . S
O2 Co0 2.143 1_455 S
O2 Co1 2.160 . S
C3 O4 1.278 1_655 S
C3 O11 1.224 . S
O4 C3 1.278 1_455 S
C5 O6 1.245 . S
C5 O17 1.232 . S
O6 C5 1.245 . S
O7 Co1 2.058 1_556 S
O7 C33 1.269 . S
O8 Co0 2.074 1_556 S
O8 C33 1.257 1_655 S
H9 C34 0.930 1_565 S
H10 C40 0.930 . S
O11 Co0 2.093 . S
O11 C3 1.224 . S
H12 C44 0.929 . S
H13 C46 0.930 . S
H14 C47 0.930 1_556 S
H15 C45 0.929 . S
H16 C48 0.928 . S
O17 Co1 2.057 . S
O17 C5 1.232 . S
H18 C37 0.929 . S
H19 C38 0.929 . S
H20 C50 0.931 . S
H21 C42 0.929 . S
H22 C51 0.930 . S
H23 C43 0.931 . S
O24 Co0 2.097 . S
O24 C52 1.214 1_655 S
H25 C53 0.929 . S
H26 C54 0.929 1_565 S
H27 C55 0.930 . S
H28 C56 0.929 1_565 S
H29 C58 0.930 . S
H30 C35 0.930 . S
H31 C39 0.930 . S
O32 Co1 2.037 . S
O32 C52 1.234 . S
C33 O7 1.269 . S
C33 O8 1.257 1_455 S
C34 H9 0.930 1_545 S
C34 C37 1.388 . S
C34 C39 1.418 . S
C35 H30 0.930 . S
C35 C38 1.404 . S
C35 C39 1.353 . S
N36 Co1 2.145 1_556 S
N36 C37 1.397 . S
N36 C38 1.334 . S
C37 H18 0.929 . S
C37 C34 1.388 . S
C37 N36 1.397 . S
C38 H19 0.929 . S
C38 C35 1.404 . S
C38 N36 1.334 . S
C39 H31 0.930 . S
C39 C34 1.418 . S
C39 C35 1.353 . S
C40 H10 0.930 . S
C40 N41 1.330 . S
C40 C42 1.446 . S
N41 Co0 2.151 . S
N41 C40 1.330 . S
N41 C45 1.418 . S
C42 H21 0.929 . S
C42 C40 1.446 . S
C42 C43 1.332 . S
C43 H23 0.931 . S
C43 C42 1.332 . S
C43 C44 1.267 . S
C44 H12 0.929 . S
C44 C43 1.267 . S
C44 C45 1.251 . S
C45 H15 0.929 . S
C45 N41 1.418 . S
C45 C44 1.251 . S
C46 H13 0.930 . S
C46 C48 1.406 . S
C46 C51 1.261 . S
C47 H14 0.930 1_554 S
C47 N49 1.325 . S
C47 C50 1.357 1_554 S
C48 H16 0.928 . S
C48 C46 1.406 . S
C48 N49 1.261 . S
N49 Co0 2.214 . S
N49 C47 1.325 . S
N49 C48 1.261 . S
C50 H20 0.931 . S
C50 C47 1.357 1_556 S
C50 C51 1.312 1_556 S
C51 H22 0.930 . S
C51 C46 1.261 . S
C51 C50 1.312 1_554 S
C52 O24 1.214 1_455 S
C52 O32 1.234 . S
C53 H25 0.929 . S
C53 C56 1.391 . S
C53 C58 1.391 . S
C54 H26 0.929 1_545 S
C54 C55 1.390 1_545 S
C54 N57 1.391 . S
C55 H27 0.930 . S
C55 C54 1.390 1_565 S
C55 C56 1.392 1_565 S
C56 H28 0.929 1_545 S
C56 C53 1.391 . S
C56 C55 1.392 1_545 S
N57 Co1 2.257 . S
N57 C54 1.391 . S
N57 C58 1.388 . S
C58 H29 0.930 . S
C58 C53 1.391 . S
C58 N57 1.388 . S
Co59 O61 2.143 . S
Co59 O67 2.074 . S
Co59 O70 2.093 . S
Co59 O83 2.097 . S
Co59 N100 2.151 . S
Co59 N108 2.214 . S
Co60 O61 2.160 . S
Co60 O66 2.058 . S
Co60 O76 2.057 . S
Co60 O91 2.037 . S
Co60 N95 2.145 . S
Co60 N116 2.257 . S
O61 Co59 2.143 . S
O61 Co60 2.160 . S
C62 O63 1.278 . S
C62 O70 1.224 . S
O63 C62 1.278 . S
C64 O65 1.245 . S
C64 O76 1.232 . S
O65 C64 1.245 . S
O66 Co60 2.058 . S
O66 C92 1.269 . S
O67 Co59 2.074 . S
O67 C92 1.257 . S
H68 C93 0.930 . S
H69 C99 0.930 . S
O70 Co59 2.093 . S
O70 C62 1.224 . S
H71 C103 0.929 . S
H72 C105 0.930 . S
H73 C106 0.930 . S
H74 C104 0.929 . S
H75 C107 0.928 . S
O76 Co60 2.057 . S
O76 C64 1.232 . S
H77 C96 0.929 . S
H78 C97 0.929 . S
H79 C109 0.931 . S
H80 C101 0.929 . S
H81 C110 0.930 . S
H82 C102 0.931 . S
O83 Co59 2.097 . S
O83 C111 1.214 . S
H84 C112 0.929 . S
H85 C113 0.929 . S
H86 C114 0.930 . S
H87 C115 0.929 . S
H88 C117 0.930 . S
H89 C94 0.930 . S
H90 C98 0.930 . S
O91 Co60 2.037 . S
O91 C111 1.234 . S
C92 O66 1.269 . S
C92 O67 1.257 . S
C93 H68 0.930 . S
C93 C96 1.388 . S
C93 C98 1.418 . S
C94 H89 0.930 . S
C94 C97 1.404 . S
C94 C98 1.353 . S
N95 Co60 2.145 . S
N95 C96 1.397 . S
N95 C97 1.334 . S
C96 H77 0.929 . S
C96 C93 1.388 . S
C96 N95 1.397 . S
C97 H78 0.929 . S
C97 C94 1.404 . S
C97 N95 1.334 . S
C98 H90 0.930 . S
C98 C93 1.418 . S
C98 C94 1.353 . S
C99 H69 0.930 . S
C99 N100 1.330 . S
C99 C101 1.446 . S
N100 Co59 2.151 . S
N100 C99 1.330 . S
N100 C104 1.418 . S
C101 H80 0.929 . S
C101 C99 1.446 . S
C101 C102 1.332 . S
C102 H82 0.931 . S
C102 C101 1.332 . S
C102 C103 1.267 . S
C103 H71 0.929 . S
C103 C102 1.267 . S
C103 C104 1.251 . S
C104 H74 0.929 . S
C104 N100 1.418 . S
C104 C103 1.251 . S
C105 H72 0.930 . S
C105 C107 1.406 . S
C105 C110 1.261 . S
C106 H73 0.930 . S
C106 N108 1.325 . S
C106 C109 1.357 . S
C107 H75 0.928 . S
C107 C105 1.406 . S
C107 N108 1.261 . S
N108 Co59 2.214 . S
N108 C106 1.325 . S
N108 C107 1.261 . S
C109 H79 0.931 . S
C109 C106 1.357 . S
C109 C110 1.312 . S
C110 H81 0.930 . S
C110 C105 1.261 . S
C110 C109 1.312 . S
C111 O83 1.214 . S
C111 O91 1.234 . S
C112 H84 0.929 . S
C112 C115 1.391 . S
C112 C117 1.391 . S
C113 H85 0.929 . S
C113 C114 1.390 . S
C113 N116 1.391 . S
C114 H86 0.930 . S
C114 C113 1.390 . S
C114 C115 1.392 . S
C115 H87 0.929 . S
C115 C112 1.391 . S
C115 C114 1.392 . S
N116 Co60 2.257 . S
N116 C113 1.391 . S
N116 C117 1.388 . S
C117 H88 0.930 . S
C117 C112 1.391 . S
C117 N116 1.388 . S
Co118 O120 2.143 . S
Co118 O126 2.074 . S
Co118 O129 2.093 . S
Co118 O142 2.097 . S
Co118 N159 2.151 . S
Co118 N167 2.214 . S
Co119 O120 2.160 . S
Co119 O125 2.058 . S
Co119 O135 2.057 . S
Co119 O150 2.037 . S
Co119 N154 2.145 . S
Co119 N175 2.257 . S
O120 Co118 2.143 . S
O120 Co119 2.160 . S
C121 O122 1.278 . S
C121 O129 1.224 . S
O122 C121 1.278 . S
C123 O124 1.245 . S
C123 O135 1.232 . S
O124 C123 1.245 . S
O125 Co119 2.058 . S
O125 C151 1.269 . S
O126 Co118 2.074 . S
O126 C151 1.257 . S
H127 C152 0.930 1_545 S
H128 C158 0.930 . S
O129 Co118 2.093 . S
O129 C121 1.224 . S
H130 C162 0.929 . S
H131 C164 0.930 . S
H132 C165 0.930 . S
H133 C163 0.929 . S
H134 C166 0.928 . S
O135 Co119 2.057 . S
O135 C123 1.232 . S
H136 C155 0.929 . S
H137 C156 0.929 . S
H138 C168 0.931 . S
H139 C160 0.929 . S
H140 C169 0.930 . S
H141 C161 0.931 . S
O142 Co118 2.097 . S
O142 C170 1.214 . S
H143 C171 0.929 . S
H144 C172 0.929 1_545 S
H145 C173 0.930 . S
H146 C174 0.929 1_545 S
H147 C176 0.930 . S
H148 C153 0.930 . S
H149 C157 0.930 . S
O150 Co119 2.037 . S
O150 C170 1.234 . S
C151 O125 1.269 . S
C151 O126 1.257 . S
C152 H127 0.930 1_565 S
C152 C155 1.388 . S
C152 C157 1.418 . S
C153 H148 0.930 . S
C153 C156 1.404 . S
C153 C157 1.353 . S
N154 Co119 2.145 . S
N154 C155 1.397 . S
N154 C156 1.334 . S
C155 H136 0.929 . S
C155 C152 1.388 . S
C155 N154 1.397 . S
C156 H137 0.929 . S
C156 C153 1.404 . S
C156 N154 1.334 . S
C157 H149 0.930 . S
C157 C152 1.418 . S
C157 C153 1.353 . S
C158 H128 0.930 . S
C158 N159 1.330 . S
C158 C160 1.446 . S
N159 Co118 2.151 . S
N159 C158 1.330 . S
N159 C163 1.418 . S
C160 H139 0.929 . S
C160 C158 1.446 . S
C160 C161 1.332 . S
C161 H141 0.931 . S
C161 C160 1.332 . S
C161 C162 1.267 . S
C162 H130 0.929 . S
C162 C161 1.267 . S
C162 C163 1.251 . S
C163 H133 0.929 . S
C163 N159 1.418 . S
C163 C162 1.251 . S
C164 H131 0.930 . S
C164 C166 1.406 . S
C164 C169 1.261 . S
C165 H132 0.930 . S
C165 N167 1.325 . S
C165 C168 1.357 . S
C166 H134 0.928 . S
C166 C164 1.406 . S
C166 N167 1.261 . S
N167 Co118 2.214 . S
N167 C165 1.325 . S
N167 C166 1.261 . S
C168 H138 0.931 . S
C168 C165 1.357 . S
C168 C169 1.312 . S
C169 H140 0.930 . S
C169 C164 1.261 . S
C169 C168 1.312 . S
C170 O142 1.214 . S
C170 O150 1.234 . S
C171 H143 0.929 . S
C171 C174 1.391 . S
C171 C176 1.391 . S
C172 H144 0.929 1_565 S
C172 C173 1.390 1_565 S
C172 N175 1.391 . S
C173 H145 0.930 . S
C173 C172 1.390 1_545 S
C173 C174 1.392 1_545 S
C174 H146 0.929 1_565 S
C174 C171 1.391 . S
C174 C173 1.392 1_565 S
N175 Co119 2.257 . S
N175 C172 1.391 . S
N175 C176 1.388 . S
C176 H147 0.930 . S
C176 C171 1.391 . S
C176 N175 1.388 . S
Co177 O179 2.143 . S
Co177 O185 2.074 . S
Co177 O188 2.093 1_556 S
Co177 O201 2.097 . S
Co177 N218 2.151 . S
Co177 N226 2.214 . S
Co178 O179 2.160 . S
Co178 O184 2.058 . S
Co178 O194 2.057 . S
Co178 O209 2.037 . S
Co178 N213 2.145 . S
Co178 N234 2.257 . S
O179 Co177 2.143 . S
O179 Co178 2.160 . S
C180 O181 1.278 . S
C180 O188 1.224 . S
O181 C180 1.278 . S
C182 O183 1.245 . S
C182 O194 1.232 . S
O183 C182 1.245 . S
O184 Co178 2.058 . S
O184 C210 1.269 . S
O185 Co177 2.074 . S
O185 C210 1.257 . S
H186 C211 0.930 . S
H187 C217 0.930 . S
O188 Co177 2.093 1_554 S
O188 C180 1.224 . S
H189 C221 0.929 . S
H190 C223 0.930 . S
H191 C224 0.930 . S
H192 C222 0.929 . S
H193 C225 0.928 . S
O194 Co178 2.057 . S
O194 C182 1.232 . S
H195 C214 0.929 . S
H196 C215 0.929 . S
H197 C227 0.931 . S
H198 C219 0.929 1_554 S
H199 C228 0.930 . S
H200 C220 0.931 . S
O201 Co177 2.097 . S
O201 C229 1.214 . S
H202 C230 0.929 . S
H203 C231 0.929 . S
H204 C232 0.930 . S
H205 C233 0.929 . S
H206 C235 0.930 . S
H207 C212 0.930 . S
H208 C216 0.930 . S
O209 Co178 2.037 . S
O209 C229 1.234 . S
C210 O184 1.269 . S
C210 O185 1.257 . S
C211 H186 0.930 . S
C211 C214 1.388 . S
C211 C216 1.418 . S
C212 H207 0.930 . S
C212 C215 1.404 . S
C212 C216 1.353 . S
N213 Co178 2.145 . S
N213 C214 1.397 . S
N213 C215 1.334 . S
C214 H195 0.929 . S
C214 C211 1.388 . S
C214 N213 1.397 . S
C215 H196 0.929 . S
C215 C212 1.404 . S
C215 N213 1.334 . S
C216 H208 0.930 . S
C216 C211 1.418 . S
C216 C212 1.353 . S
C217 H187 0.930 . S
C217 N218 1.330 . S
C217 C219 1.446 . S
N218 Co177 2.151 . S
N218 C217 1.330 . S
N218 C222 1.418 . S
C219 H198 0.929 1_556 S
C219 C217 1.446 . S
C219 C220 1.332 . S
C220 H200 0.931 . S
C220 C219 1.332 . S
C220 C221 1.267 . S
C221 H189 0.929 . S
C221 C220 1.267 . S
C221 C222 1.251 . S
C222 H192 0.929 . S
C222 N218 1.418 . S
C222 C221 1.251 . S
C223 H190 0.930 . S
C223 C225 1.406 . S
C223 C228 1.261 . S
C224 H191 0.930 . S
C224 N226 1.325 . S
C224 C227 1.357 . S
C225 H193 0.928 . S
C225 C223 1.406 . S
C225 N226 1.261 . S
N226 Co177 2.214 . S
N226 C224 1.325 . S
N226 C225 1.261 . S
C227 H197 0.931 . S
C227 C224 1.357 . S
C227 C228 1.312 . S
C228 H199 0.930 . S
C228 C223 1.261 . S
C228 C227 1.312 . S
C229 O201 1.214 . S
C229 O209 1.234 . S
C230 H202 0.929 . S
C230 C233 1.391 . S
C230 C235 1.391 1_554 S
C231 H203 0.929 . S
C231 C232 1.390 . S
C231 N234 1.391 . S
C232 H204 0.930 . S
C232 C231 1.390 . S
C232 C233 1.392 1_556 S
C233 H205 0.929 . S
C233 C230 1.391 . S
C233 C232 1.392 1_554 S
N234 Co178 2.257 . S
N234 C231 1.391 . S
N234 C235 1.388 . S
C235 H206 0.930 . S
C235 C230 1.391 1_556 S
C235 N234 1.388 . S
Co236 O238 2.143 1_655 S
Co236 O244 2.074 . S
Co236 O247 2.093 . S
Co236 O260 2.097 . S
Co236 N277 2.151 . S
Co236 N285 2.214 . S
Co237 O238 2.160 . S
Co237 O243 2.058 . S
Co237 O253 2.057 . S
Co237 O268 2.037 . S
Co237 N272 2.145 . S
Co237 N293 2.257 . S
O238 Co236 2.143 1_455 S
O238 Co237 2.160 . S
C239 O240 1.278 1_655 S
C239 O247 1.224 . S
O240 C239 1.278 1_455 S
C241 O242 1.245 . S
C241 O253 1.232 . S
O242 C241 1.245 . S
O243 Co237 2.058 . S
O243 C269 1.269 . S
O244 Co236 2.074 . S
O244 C269 1.257 1_655 S
H245 C270 0.930 1_545 S
H246 C276 0.930 . S
O247 Co236 2.093 . S
O247 C239 1.224 . S
H248 C280 0.929 . S
H249 C282 0.930 . S
H250 C283 0.930 . S
H251 C281 0.929 . S
H252 C284 0.928 . S
O253 Co237 2.057 . S
O253 C241 1.232 . S
H254 C273 0.929 . S
H255 C274 0.929 . S
H256 C286 0.931 . S
H257 C278 0.929 . S
H258 C287 0.930 . S
H259 C279 0.931 . S
O260 Co236 2.097 . S
O260 C288 1.214 1_655 S
H261 C289 0.929 . S
H262 C290 0.929 1_545 S
H263 C291 0.930 . S
H264 C292 0.929 1_545 S
H265 C294 0.930 . S
H266 C271 0.930 . S
H267 C275 0.930 . S
O268 Co237 2.037 . S
O268 C288 1.234 . S
C269 O243 1.269 . S
C269 O244 1.257 1_455 S
C270 H245 0.930 1_565 S
C270 C273 1.388 . S
C270 C275 1.418 . S
C271 H266 0.930 . S
C271 C274 1.404 . S
C271 C275 1.353 . S
N272 Co237 2.145 . S
N272 C273 1.397 . S
N272 C274 1.334 . S
C273 H254 0.929 . S
C273 C270 1.388 . S
C273 N272 1.397 . S
C274 H255 0.929 . S
C274 C271 1.404 . S
C274 N272 1.334 . S
C275 H267 0.930 . S
C275 C270 1.418 . S
C275 C271 1.353 . S
C276 H246 0.930 . S
C276 N277 1.330 . S
C276 C278 1.446 . S
N277 Co236 2.151 . S
N277 C276 1.330 . S
N277 C281 1.418 . S
C278 H257 0.929 . S
C278 C276 1.446 . S
C278 C279 1.332 . S
C279 H259 0.931 . S
C279 C278 1.332 . S
C279 C280 1.267 . S
C280 H248 0.929 . S
C280 C279 1.267 . S
C280 C281 1.251 . S
C281 H251 0.929 . S
C281 N277 1.418 . S
C281 C280 1.251 . S
C282 H249 0.930 . S
C282 C284 1.406 . S
C282 C287 1.261 . S
C283 H250 0.930 . S
C283 N285 1.325 . S
C283 C286 1.357 . S
C284 H252 0.928 . S
C284 C282 1.406 . S
C284 N285 1.261 . S
N285 Co236 2.214 . S
N285 C283 1.325 . S
N285 C284 1.261 . S
C286 H256 0.931 . S
C286 C283 1.357 . S
C286 C287 1.312 . S
C287 H258 0.930 . S
C287 C282 1.261 . S
C287 C286 1.312 . S
C288 O260 1.214 1_455 S
C288 O268 1.234 . S
C289 H261 0.929 . S
C289 C292 1.391 . S
C289 C294 1.391 . S
C290 H262 0.929 1_565 S
C290 C291 1.390 1_565 S
C290 N293 1.391 . S
C291 H263 0.930 . S
C291 C290 1.390 1_545 S
C291 C292 1.392 1_545 S
C292 H264 0.929 1_565 S
C292 C289 1.391 . S
C292 C291 1.392 1_565 S
N293 Co237 2.257 . S
N293 C290 1.391 . S
N293 C294 1.388 . S
C294 H265 0.930 . S
C294 C289 1.391 . S
C294 N293 1.388 . S
Co295 O297 2.143 . S
Co295 O303 2.074 . S
Co295 O306 2.093 . S
Co295 O319 2.097 . S
Co295 N336 2.151 . S
Co295 N344 2.214 . S
Co296 O297 2.160 . S
Co296 O302 2.058 . S
Co296 O312 2.057 . S
Co296 O327 2.037 . S
Co296 N331 2.145 . S
Co296 N352 2.257 . S
O297 Co295 2.143 . S
O297 Co296 2.160 . S
C298 O299 1.278 . S
C298 O306 1.224 . S
O299 C298 1.278 . S
C300 O301 1.245 . S
C300 O312 1.232 . S
O301 C300 1.245 . S
O302 Co296 2.058 . S
O302 C328 1.269 . S
O303 Co295 2.074 . S
O303 C328 1.257 . S
H304 C329 0.930 . S
H305 C335 0.930 . S
O306 Co295 2.093 . S
O306 C298 1.224 . S
H307 C339 0.929 . S
H308 C341 0.930 . S
H309 C342 0.930 . S
H310 C340 0.929 . S
H311 C343 0.928 . S
O312 Co296 2.057 . S
O312 C300 1.232 . S
H313 C332 0.929 . S
H314 C333 0.929 . S
H315 C345 0.931 . S
H316 C337 0.929 . S
H317 C346 0.930 . S
H318 C338 0.931 . S
O319 Co295 2.097 . S
O319 C347 1.214 . S
H320 C348 0.929 . S
H321 C349 0.929 . S
H322 C350 0.930 . S
H323 C351 0.929 . S
H324 C353 0.930 . S
H325 C330 0.930 . S
H326 C334 0.930 . S
O327 Co296 2.037 . S
O327 C347 1.234 . S
C328 O302 1.269 . S
C328 O303 1.257 . S
C329 H304 0.930 . S
C329 C332 1.388 . S
C329 C334 1.418 . S
C330 H325 0.930 . S
C330 C333 1.404 . S
C330 C334 1.353 . S
N331 Co296 2.145 . S
N331 C332 1.397 . S
N331 C333 1.334 . S
C332 H313 0.929 . S
C332 C329 1.388 . S
C332 N331 1.397 . S
C333 H314 0.929 . S
C333 C330 1.404 . S
C333 N331 1.334 . S
C334 H326 0.930 . S
C334 C329 1.418 . S
C334 C330 1.353 . S
C335 H305 0.930 . S
C335 N336 1.330 . S
C335 C337 1.446 . S
N336 Co295 2.151 . S
N336 C335 1.330 . S
N336 C340 1.418 . S
C337 H316 0.929 . S
C337 C335 1.446 . S
C337 C338 1.332 . S
C338 H318 0.931 . S
C338 C337 1.332 . S
C338 C339 1.267 . S
C339 H307 0.929 . S
C339 C338 1.267 . S
C339 C340 1.251 . S
C340 H310 0.929 . S
C340 N336 1.418 . S
C340 C339 1.251 . S
C341 H308 0.930 . S
C341 C343 1.406 . S
C341 C346 1.261 . S
C342 H309 0.930 . S
C342 N344 1.325 . S
C342 C345 1.357 . S
C343 H311 0.928 . S
C343 C341 1.406 . S
C343 N344 1.261 . S
N344 Co295 2.214 . S
N344 C342 1.325 . S
N344 C343 1.261 . S
C345 H315 0.931 . S
C345 C342 1.357 . S
C345 C346 1.312 . S
C346 H317 0.930 . S
C346 C341 1.261 . S
C346 C345 1.312 . S
C347 O319 1.214 . S
C347 O327 1.234 . S
C348 H320 0.929 . S
C348 C351 1.391 . S
C348 C353 1.391 . S
C349 H321 0.929 . S
C349 C350 1.390 . S
C349 N352 1.391 . S
C350 H322 0.930 . S
C350 C349 1.390 . S
C350 C351 1.392 . S
C351 H323 0.929 . S
C351 C348 1.391 . S
C351 C350 1.392 . S
N352 Co296 2.257 . S
N352 C349 1.391 . S
N352 C353 1.388 . S
C353 H324 0.930 . S
C353 C348 1.391 . S
C353 N352 1.388 . S
Co354 O356 2.143 . S
Co354 O362 2.074 1_556 S
Co354 O365 2.093 . S
Co354 O378 2.097 . S
Co354 N395 2.151 . S
Co354 N403 2.214 . S
Co355 O356 2.160 . S
Co355 O361 2.058 1_556 S
Co355 O371 2.057 . S
Co355 O386 2.037 . S
Co355 N390 2.145 1_556 S
Co355 N411 2.257 . S
O356 Co354 2.143 . S
O356 Co355 2.160 . S
C357 O358 1.278 . S
C357 O365 1.224 . S
O358 C357 1.278 . S
C359 O360 1.245 . S
C359 O371 1.232 . S
O360 C359 1.245 . S
O361 Co355 2.058 1_554 S
O361 C387 1.269 . S
O362 Co354 2.074 1_554 S
O362 C387 1.257 . S
H363 C388 0.930 1_565 S
H364 C394 0.930 . S
O365 Co354 2.093 . S
O365 C357 1.224 . S
H366 C398 0.929 . S
H367 C400 0.930 . S
H368 C401 0.930 1_554 S
H369 C399 0.929 . S
H370 C402 0.928 . S
O371 Co355 2.057 . S
O371 C359 1.232 . S
H372 C391 0.929 . S
H373 C392 0.929 . S
H374 C404 0.931 . S
H375 C396 0.929 . S
H376 C405 0.930 . S
H377 C397 0.931 . S
O378 Co354 2.097 . S
O378 C406 1.214 . S
H379 C407 0.929 . S
H380 C408 0.929 1_565 S
H381 C409 0.930 . S
H382 C410 0.929 1_565 S
H383 C412 0.930 . S
H384 C389 0.930 . S
H385 C393 0.930 . S
O386 Co355 2.037 . S
O386 C406 1.234 . S
C387 O361 1.269 . S
C387 O362 1.257 . S
C388 H363 0.930 1_545 S
C388 C391 1.388 . S
C388 C393 1.418 . S
C389 H384 0.930 . S
C389 C392 1.404 . S
C389 C393 1.353 . S
N390 Co355 2.145 1_554 S
N390 C391 1.397 . S
N390 C392 1.334 . S
C391 H372 0.929 . S
C391 C388 1.388 . S
C391 N390 1.397 . S
C392 H373 0.929 . S
C392 C389 1.404 . S
C392 N390 1.334 . S
C393 H385 0.930 . S
C393 C388 1.418 . S
C393 C389 1.353 . S
C394 H364 0.930 . S
C394 N395 1.330 . S
C394 C396 1.446 . S
N395 Co354 2.151 . S
N395 C394 1.330 . S
N395 C399 1.418 . S
C396 H375 0.929 . S
C396 C394 1.446 . S
C396 C397 1.332 . S
C397 H377 0.931 . S
C397 C396 1.332 . S
C397 C398 1.267 . S
C398 H366 0.929 . S
C398 C397 1.267 . S
C398 C399 1.251 . S
C399 H369 0.929 . S
C399 N395 1.418 . S
C399 C398 1.251 . S
C400 H367 0.930 . S
C400 C402 1.406 . S
C400 C405 1.261 . S
C401 H368 0.930 1_556 S
C401 N403 1.325 . S
C401 C404 1.357 1_556 S
C402 H370 0.928 . S
C402 C400 1.406 . S
C402 N403 1.261 . S
N403 Co354 2.214 . S
N403 C401 1.325 . S
N403 C402 1.261 . S
C404 H374 0.931 . S
C404 C401 1.357 1_554 S
C404 C405 1.312 1_554 S
C405 H376 0.930 . S
C405 C400 1.261 . S
C405 C404 1.312 1_556 S
C406 O378 1.214 . S
C406 O386 1.234 . S
C407 H379 0.929 . S
C407 C410 1.391 . S
C407 C412 1.391 . S
C408 H380 0.929 1_545 S
C408 C409 1.390 1_545 S
C408 N411 1.391 . S
C409 H381 0.930 . S
C409 C408 1.390 1_565 S
C409 C410 1.392 1_565 S
C410 H382 0.929 1_545 S
C410 C407 1.391 . S
C410 C409 1.392 1_545 S
N411 Co355 2.257 . S
N411 C408 1.391 . S
N411 C412 1.388 . S
C412 H383 0.930 . S
C412 C407 1.391 . S
C412 N411 1.388 . S
Co413 O415 2.143 . S
Co413 O421 2.074 . S
Co413 O424 2.093 1_554 S
Co413 O437 2.097 . S
Co413 N454 2.151 . S
Co413 N462 2.214 . S
Co414 O415 2.160 . S
Co414 O420 2.058 . S
Co414 O430 2.057 . S
Co414 O445 2.037 . S
Co414 N449 2.145 . S
Co414 N470 2.257 . S
O415 Co413 2.143 . S
O415 Co414 2.160 . S
C416 O417 1.278 . S
C416 O424 1.224 . S
O417 C416 1.278 . S
C418 O419 1.245 . S
C418 O430 1.232 . S
O419 C418 1.245 . S
O420 Co414 2.058 . S
O420 C446 1.269 . S
O421 Co413 2.074 . S
O421 C446 1.257 . S
H422 C447 0.930 . S
H423 C453 0.930 . S
O424 Co413 2.093 1_556 S
O424 C416 1.224 . S
H425 C457 0.929 . S
H426 C459 0.930 . S
H427 C460 0.930 . S
H428 C458 0.929 . S
H429 C461 0.928 . S
O430 Co414 2.057 . S
O430 C418 1.232 . S
H431 C450 0.929 . S
H432 C451 0.929 . S
H433 C463 0.931 . S
H434 C455 0.920 1_556 S
H435 C464 0.930 . S
H436 C456 0.931 . S
O437 Co413 2.097 . S
O437 C465 1.214 . S
H438 C466 0.929 . S
H439 C467 0.929 . S
H440 C468 0.930 . S
H441 C469 0.929 . S
H442 C471 0.930 . S
H443 C448 0.930 . S
H444 C452 0.930 . S
O445 Co414 2.037 . S
O445 C465 1.234 . S
C446 O420 1.269 . S
C446 O421 1.257 . S
C447 H422 0.930 . S
C447 C450 1.388 . S
C447 C452 1.418 . S
C448 H443 0.930 . S
C448 C451 1.404 . S
C448 C452 1.353 . S
N449 Co414 2.145 . S
N449 C450 1.397 . S
N449 C451 1.334 . S
C450 H431 0.929 . S
C450 C447 1.388 . S
C450 N449 1.397 . S
C451 H432 0.929 . S
C451 C448 1.404 . S
C451 N449 1.334 . S
C452 H444 0.930 . S
C452 C447 1.418 . S
C452 C448 1.353 . S
C453 H423 0.930 . S
C453 N454 1.330 . S
C453 C455 1.446 . S
N454 Co413 2.151 . S
N454 C453 1.330 . S
N454 C458 1.418 . S
C455 H434 0.920 1_554 S
C455 C453 1.446 . S
C455 C456 1.332 . S
C456 H436 0.931 . S
C456 C455 1.332 . S
C456 C457 1.267 . S
C457 H425 0.929 . S
C457 C456 1.267 . S
C457 C458 1.251 . S
C458 H428 0.929 . S
C458 N454 1.418 . S
C458 C457 1.251 . S
C459 H426 0.930 . S
C459 C461 1.406 . S
C459 C464 1.261 . S
C460 H427 0.930 . S
C460 N462 1.325 . S
C460 C463 1.357 . S
C461 H429 0.928 . S
C461 C459 1.406 . S
C461 N462 1.261 . S
N462 Co413 2.214 . S
N462 C460 1.325 . S
N462 C461 1.261 . S
C463 H433 0.931 . S
C463 C460 1.357 . S
C463 C464 1.312 . S
C464 H435 0.930 . S
C464 C459 1.261 . S
C464 C463 1.312 . S
C465 O437 1.214 . S
C465 O445 1.234 . S
C466 H438 0.929 . S
C466 C469 1.391 . S
C466 C471 1.391 1_556 S
C467 H439 0.929 . S
C467 C468 1.390 . S
C467 N470 1.391 . S
C468 H440 0.930 . S
C468 C467 1.390 . S
C468 C469 1.392 1_554 S
C469 H441 0.929 . S
C469 C466 1.391 . S
C469 C468 1.392 1_556 S
N470 Co414 2.257 . S
N470 C467 1.391 . S
N470 C471 1.388 . S
C471 H442 0.930 . S
C471 C466 1.391 1_554 S
C471 N470 1.388 . S
Co472 O474 2.143 1_455 S
Co472 O480 2.074 1_556 S
Co472 O483 2.093 . S
Co472 O496 2.097 . S
Co472 N513 2.151 . S
Co472 N521 2.214 . S
Co473 O474 2.160 . S
Co473 O479 2.058 1_556 S
Co473 O489 2.057 . S
Co473 O504 2.037 . S
Co473 N508 2.145 1_556 S
Co473 N529 2.257 . S
O474 Co472 2.143 1_655 S
O474 Co473 2.160 . S
C475 O476 1.278 1_455 S
C475 O483 1.224 . S
O476 C475 1.278 1_655 S
C477 O478 1.245 . S
C477 O489 1.232 . S
O478 C477 1.245 . S
O479 Co473 2.058 1_554 S
O479 C505 1.269 . S
O480 Co472 2.074 1_554 S
O480 C505 1.257 1_455 S
H481 C506 0.930 1_545 S
H482 C512 0.930 . S
O483 Co472 2.093 . S
O483 C475 1.224 . S
H484 C516 0.929 . S
H485 C518 0.930 . S
H486 C519 0.930 1_554 S
H487 C517 0.929 . S
H488 C520 0.928 . S
O489 Co473 2.057 . S
O489 C477 1.232 . S
H490 C509 0.929 . S
H491 C510 0.929 . S
H492 C522 0.931 . S
H493 C514 0.929 . S
H494 C523 0.930 . S
H495 C515 0.931 . S
O496 Co472 2.097 . S
O496 C524 1.214 1_455 S
H497 C525 0.929 . S
H498 C526 0.929 1_545 S
H499 C527 0.930 . S
H500 C528 0.929 1_545 S
H501 C530 0.930 . S
H502 C507 0.930 . S
H503 C511 0.930 . S
O504 Co473 2.037 . S
O504 C524 1.234 . S
C505 O479 1.269 . S
C505 O480 1.257 1_655 S
C506 H481 0.930 1_565 S
C506 C509 1.388 . S
C506 C511 1.418 . S
C507 H502 0.930 . S
C507 C510 1.404 . S
C507 C511 1.353 . S
N508 Co473 2.145 1_554 S
N508 C509 1.397 . S
N508 C510 1.334 . S
C509 H490 0.929 . S
C509 C506 1.388 . S
C509 N508 1.397 . S
C510 H491 0.929 . S
C510 C507 1.404 . S
C510 N508 1.334 . S
C511 H503 0.930 . S
C511 C506 1.418 . S
C511 C507 1.353 . S
C512 H482 0.930 . S
C512 N513 1.330 . S
C512 C514 1.446 . S
N513 Co472 2.151 . S
N513 C512 1.330 . S
N513 C517 1.418 . S
C514 H493 0.929 . S
C514 C512 1.446 . S
C514 C515 1.332 . S
C515 H495 0.931 . S
C515 C514 1.332 . S
C515 C516 1.267 . S
C516 H484 0.929 . S
C516 C515 1.267 . S
C516 C517 1.251 . S
C517 H487 0.929 . S
C517 N513 1.418 . S
C517 C516 1.251 . S
C518 H485 0.930 . S
C518 C520 1.406 . S
C518 C523 1.261 . S
C519 H486 0.930 1_556 S
C519 N521 1.325 . S
C519 C522 1.357 1_556 S
C520 H488 0.928 . S
C520 C518 1.406 . S
C520 N521 1.261 . S
N521 Co472 2.214 . S
N521 C519 1.325 . S
N521 C520 1.261 . S
C522 H492 0.931 . S
C522 C519 1.357 1_554 S
C522 C523 1.312 1_554 S
C523 H494 0.930 . S
C523 C518 1.261 . S
C523 C522 1.312 1_556 S
C524 O496 1.214 1_655 S
C524 O504 1.234 . S
C525 H497 0.929 . S
C525 C528 1.391 . S
C525 C530 1.391 . S
C526 H498 0.929 1_565 S
C526 C527 1.390 1_565 S
C526 N529 1.391 . S
C527 H499 0.930 . S
C527 C526 1.390 1_545 S
C527 C528 1.392 1_545 S
C528 H500 0.929 1_565 S
C528 C525 1.391 . S
C528 C527 1.392 1_565 S
N529 Co473 2.257 . S
N529 C526 1.391 . S
N529 C530 1.388 . S
C530 H501 0.930 . S
C530 C525 1.391 . S
C530 N529 1.388 . S
Co531 O533 2.143 . S
Co531 O539 2.074 . S
Co531 O542 2.093 . S
Co531 O555 2.097 . S
Co531 N572 2.151 . S
Co531 N580 2.214 . S
Co532 O533 2.160 . S
Co532 O538 2.058 . S
Co532 O548 2.057 . S
Co532 O563 2.037 . S
Co532 N567 2.145 . S
Co532 N588 2.257 . S
O533 Co531 2.143 . S
O533 Co532 2.160 . S
C534 O535 1.278 . S
C534 O542 1.224 . S
O535 C534 1.278 . S
C536 O537 1.245 . S
C536 O548 1.232 . S
O537 C536 1.245 . S
O538 Co532 2.058 . S
O538 C564 1.269 . S
O539 Co531 2.074 . S
O539 C564 1.257 . S
H540 C565 0.930 . S
H541 C571 0.930 . S
O542 Co531 2.093 . S
O542 C534 1.224 . S
H543 C575 0.929 . S
H544 C577 0.930 . S
H545 C578 0.930 . S
H546 C576 0.929 . S
H547 C579 0.928 . S
O548 Co532 2.057 . S
O548 C536 1.232 . S
H549 C568 0.929 . S
H550 C569 0.929 . S
H551 C581 0.931 . S
H552 C573 0.929 . S
H553 C582 0.930 . S
H554 C574 0.931 . S
O555 Co531 2.097 . S
O555 C583 1.214 . S
H556 C584 0.929 . S
H557 C585 0.929 . S
H558 C586 0.930 . S
H559 C587 0.929 . S
H560 C589 0.930 . S
H561 C566 0.930 . S
H562 C570 0.930 . S
O563 Co532 2.037 . S
O563 C583 1.234 . S
C564 O538 1.269 . S
C564 O539 1.257 . S
C565 H540 0.930 . S
C565 C568 1.388 . S
C565 C570 1.418 . S
C566 H561 0.930 . S
C566 C569 1.404 . S
C566 C570 1.353 . S
N567 Co532 2.145 . S
N567 C568 1.397 . S
N567 C569 1.334 . S
C568 H549 0.929 . S
C568 C565 1.388 . S
C568 N567 1.397 . S
C569 H550 0.929 . S
C569 C566 1.404 . S
C569 N567 1.334 . S
C570 H562 0.930 . S
C570 C565 1.418 . S
C570 C566 1.353 . S
C571 H541 0.930 . S
C571 N572 1.330 . S
C571 C573 1.446 . S
N572 Co531 2.151 . S
N572 C571 1.330 . S
N572 C576 1.418 . S
C573 H552 0.929 . S
C573 C571 1.446 . S
C573 C574 1.332 . S
C574 H554 0.931 . S
C574 C573 1.332 . S
C574 C575 1.267 . S
C575 H543 0.929 . S
C575 C574 1.267 . S
C575 C576 1.251 . S
C576 H546 0.929 . S
C576 N572 1.418 . S
C576 C575 1.251 . S
C577 H544 0.930 . S
C577 C579 1.406 . S
C577 C582 1.261 . S
C578 H545 0.930 . S
C578 N580 1.325 . S
C578 C581 1.357 . S
C579 H547 0.928 . S
C579 C577 1.406 . S
C579 N580 1.261 . S
N580 Co531 2.214 . S
N580 C578 1.325 . S
N580 C579 1.261 . S
C581 H551 0.931 . S
C581 C578 1.357 . S
C581 C582 1.312 . S
C582 H553 0.930 . S
C582 C577 1.261 . S
C582 C581 1.312 . S
C583 O555 1.214 . S
C583 O563 1.234 . S
C584 H556 0.929 . S
C584 C587 1.391 . S
C584 C589 1.391 . S
C585 H557 0.929 . S
C585 C586 1.390 . S
C585 N588 1.391 . S
C586 H558 0.930 . S
C586 C585 1.390 . S
C586 C587 1.392 . S
C587 H559 0.929 . S
C587 C584 1.391 . S
C587 C586 1.392 . S
N588 Co532 2.257 . S
N588 C585 1.391 . S
N588 C589 1.388 . S
C589 H560 0.930 . S
C589 C584 1.391 . S
C589 N588 1.388 . S
Co590 O592 2.143 . S
Co590 O598 2.074 . S
Co590 O601 2.093 . S
Co590 O614 2.097 . S
Co590 N631 2.151 . S
Co590 N639 2.214 . S
Co591 O592 2.160 . S
Co591 O597 2.058 . S
Co591 O607 2.057 . S
Co591 O622 2.037 . S
Co591 N626 2.145 . S
Co591 N647 2.257 . S
O592 Co590 2.143 . S
O592 Co591 2.160 . S
C593 O594 1.278 . S
C593 O601 1.224 . S
O594 C593 1.278 . S
C595 O596 1.245 . S
C595 O607 1.232 . S
O596 C595 1.245 . S
O597 Co591 2.058 . S
O597 C623 1.269 . S
O598 Co590 2.074 . S
O598 C623 1.257 . S
H599 C624 0.930 1_565 S
H600 C630 0.930 . S
O601 Co590 2.093 . S
O601 C593 1.224 . S
H602 C634 0.929 . S
H603 C636 0.930 . S
H604 C637 0.930 . S
H605 C635 0.929 . S
H606 C638 0.928 . S
O607 Co591 2.057 . S
O607 C595 1.232 . S
H608 C627 0.929 . S
H609 C628 0.929 . S
H610 C640 0.931 . S
H611 C632 0.929 . S
H612 C641 0.930 . S
H613 C633 0.931 . S
O614 Co590 2.097 . S
O614 C642 1.214 . S
H615 C643 0.929 . S
H616 C644 0.929 1_565 S
H617 C645 0.930 . S
H618 C646 0.929 1_565 S
H619 C648 0.930 . S
H620 C625 0.930 . S
H621 C629 0.930 . S
O622 Co591 2.037 . S
O622 C642 1.234 . S
C623 O597 1.269 . S
C623 O598 1.257 . S
C624 H599 0.930 1_545 S
C624 C627 1.388 . S
C624 C629 1.418 . S
C625 H620 0.930 . S
C625 C628 1.404 . S
C625 C629 1.353 . S
N626 Co591 2.145 . S
N626 C627 1.397 . S
N626 C628 1.334 . S
C627 H608 0.929 . S
C627 C624 1.388 . S
C627 N626 1.397 . S
C628 H609 0.929 . S
C628 C625 1.404 . S
C628 N626 1.334 . S
C629 H621 0.930 . S
C629 C624 1.418 . S
C629 C625 1.353 . S
C630 H600 0.930 . S
C630 N631 1.330 . S
C630 C632 1.446 . S
N631 Co590 2.151 . S
N631 C630 1.330 . S
N631 C635 1.418 . S
C632 H611 0.929 . S
C632 C630 1.446 . S
C632 C633 1.332 . S
C633 H613 0.931 . S
C633 C632 1.332 . S
C633 C634 1.267 . S
C634 H602 0.929 . S
C634 C633 1.267 . S
C634 C635 1.251 . S
C635 H605 0.929 . S
C635 N631 1.418 . S
C635 C634 1.251 . S
C636 H603 0.930 . S
C636 C638 1.406 . S
C636 C641 1.261 . S
C637 H604 0.930 . S
C637 N639 1.325 . S
C637 C640 1.357 . S
C638 H606 0.928 . S
C638 C636 1.406 . S
C638 N639 1.261 . S
N639 Co590 2.214 . S
N639 C637 1.325 . S
N639 C638 1.261 . S
C640 H610 0.931 . S
C640 C637 1.357 . S
C640 C641 1.312 . S
C641 H612 0.930 . S
C641 C636 1.261 . S
C641 C640 1.312 . S
C642 O614 1.214 . S
C642 O622 1.234 . S
C643 H615 0.929 . S
C643 C646 1.391 . S
C643 C648 1.391 . S
C644 H616 0.929 1_545 S
C644 C645 1.390 1_545 S
C644 N647 1.391 . S
C645 H617 0.930 . S
C645 C644 1.390 1_565 S
C645 C646 1.392 1_565 S
C646 H618 0.929 1_545 S
C646 C643 1.391 . S
C646 C645 1.392 1_545 S
N647 Co591 2.257 . S
N647 C644 1.391 . S
N647 C648 1.388 . S
C648 H619 0.930 . S
C648 C643 1.391 . S
C648 N647 1.388 . S
Co649 O651 2.143 . S
Co649 O657 2.074 . S
Co649 O660 2.093 1_554 S
Co649 O673 2.097 . S
Co649 N690 2.151 . S
Co649 N698 2.214 . S
Co650 O651 2.160 . S
Co650 O656 2.058 . S
Co650 O666 2.057 . S
Co650 O681 2.037 . S
Co650 N685 2.145 . S
Co650 N706 2.257 . S
O651 Co649 2.143 . S
O651 Co650 2.160 . S
C652 O653 1.278 . S
C652 O660 1.224 . S
O653 C652 1.278 . S
C654 O655 1.245 . S
C654 O666 1.232 . S
O655 C654 1.245 . S
O656 Co650 2.058 . S
O656 C682 1.269 . S
O657 Co649 2.074 . S
O657 C682 1.257 . S
H658 C683 0.930 . S
H659 C689 0.930 . S
O660 Co649 2.093 1_556 S
O660 C652 1.224 . S
H661 C693 0.929 . S
H662 C695 0.930 . S
H663 C696 0.930 . S
H664 C694 0.929 . S
H665 C697 0.928 . S
O666 Co650 2.057 . S
O666 C654 1.232 . S
H667 C686 0.929 . S
H668 C687 0.929 . S
H669 C699 0.931 . S
H670 C691 0.929 1_556 S
H671 C700 0.930 . S
H672 C692 0.931 . S
O673 Co649 2.097 . S
O673 C701 1.214 . S
H674 C702 0.929 . S
H675 C703 0.929 . S
H676 C704 0.930 . S
H677 C705 0.929 . S
H678 C707 0.930 . S
H679 C684 0.930 . S
H680 C688 0.930 . S
O681 Co650 2.037 . S
O681 C701 1.234 . S
C682 O656 1.269 . S
C682 O657 1.257 . S
C683 H658 0.930 . S
C683 C686 1.388 . S
C683 C688 1.418 . S
C684 H679 0.930 . S
C684 C687 1.404 . S
C684 C688 1.353 . S
N685 Co650 2.145 . S
N685 C686 1.397 . S
N685 C687 1.334 . S
C686 H667 0.929 . S
C686 C683 1.388 . S
C686 N685 1.397 . S
C687 H668 0.929 . S
C687 C684 1.404 . S
C687 N685 1.334 . S
C688 H680 0.930 . S
C688 C683 1.418 . S
C688 C684 1.353 . S
C689 H659 0.930 . S
C689 N690 1.330 . S
C689 C691 1.446 . S
N690 Co649 2.151 . S
N690 C689 1.330 . S
N690 C694 1.418 . S
C691 H670 0.929 1_554 S
C691 C689 1.446 . S
C691 C692 1.332 . S
C692 H672 0.931 . S
C692 C691 1.332 . S
C692 C693 1.267 . S
C693 H661 0.929 . S
C693 C692 1.267 . S
C693 C694 1.251 . S
C694 H664 0.929 . S
C694 N690 1.418 . S
C694 C693 1.251 . S
C695 H662 0.930 . S
C695 C697 1.406 . S
C695 C700 1.261 . S
C696 H663 0.930 . S
C696 N698 1.325 . S
C696 C699 1.357 . S
C697 H665 0.928 . S
C697 C695 1.406 . S
C697 N698 1.261 . S
N698 Co649 2.214 . S
N698 C696 1.325 . S
N698 C697 1.261 . S
C699 H669 0.931 . S
C699 C696 1.357 . S
C699 C700 1.312 . S
C700 H671 0.930 . S
C700 C695 1.261 . S
C700 C699 1.312 . S
C701 O673 1.214 . S
C701 O681 1.234 . S
C702 H674 0.929 . S
C702 C705 1.391 . S
C702 C707 1.391 1_556 S
C703 H675 0.929 . S
C703 C704 1.390 . S
C703 N706 1.391 . S
C704 H676 0.930 . S
C704 C703 1.390 . S
C704 C705 1.392 1_554 S
C705 H677 0.929 . S
C705 C702 1.391 . S
C705 C704 1.392 1_556 S
N706 Co650 2.257 . S
N706 C703 1.391 . S
N706 C707 1.388 . S
C707 H678 0.930 . S
C707 C702 1.391 1_554 S
C707 N706 1.388 . S
Co708 O710 2.143 1_455 S
Co708 O716 2.074 . S
Co708 O719 2.093 . S
Co708 O732 2.097 . S
Co708 N749 2.151 . S
Co708 N757 2.214 . S
Co709 O710 2.160 . S
Co709 O715 2.058 . S
Co709 O725 2.057 . S
Co709 O740 2.037 . S
Co709 N744 2.145 . S
Co709 N765 2.257 . S
O710 Co708 2.143 1_655 S
O710 Co709 2.160 . S
C711 O712 1.278 1_455 S
C711 O719 1.224 . S
O712 C711 1.278 1_655 S
C713 O714 1.245 . S
C713 O725 1.232 . S
O714 C713 1.245 . S
O715 Co709 2.058 . S
O715 C741 1.269 . S
O716 Co708 2.074 . S
O716 C741 1.257 1_455 S
H717 C742 0.930 1_565 S
H718 C748 0.930 . S
O719 Co708 2.093 . S
O719 C711 1.224 . S
H720 C752 0.929 . S
H721 C754 0.930 . S
H722 C755 0.930 . S
H723 C753 0.929 . S
H724 C756 0.928 . S
O725 Co709 2.057 . S
O725 C713 1.232 . S
H726 C745 0.929 . S
H727 C746 0.929 . S
H728 C758 0.931 . S
H729 C750 0.929 . S
H730 C759 0.930 . S
H731 C751 0.931 . S
O732 Co708 2.097 . S
O732 C760 1.214 1_455 S
H733 C761 0.929 . S
H734 C762 0.929 1_565 S
H735 C763 0.930 . S
H736 C764 0.929 1_565 S
H737 C766 0.930 . S
H738 C743 0.930 . S
H739 C747 0.930 . S
O740 Co709 2.037 . S
O740 C760 1.234 . S
C741 O715 1.269 . S
C741 O716 1.257 1_655 S
C742 H717 0.930 1_545 S
C742 C745 1.388 . S
C742 C747 1.418 . S
C743 H738 0.930 . S
C743 C746 1.404 . S
C743 C747 1.353 . S
N744 Co709 2.145 . S
N744 C745 1.397 . S
N744 C746 1.334 . S
C745 H726 0.929 . S
C745 C742 1.388 . S
C745 N744 1.397 . S
C746 H727 0.929 . S
C746 C743 1.404 . S
C746 N744 1.334 . S
C747 H739 0.930 . S
C747 C742 1.418 . S
C747 C743 1.353 . S
C748 H718 0.930 . S
C748 N749 1.330 . S
C748 C750 1.446 . S
N749 Co708 2.151 . S
N749 C748 1.330 . S
N749 C753 1.418 . S
C750 H729 0.929 . S
C750 C748 1.446 . S
C750 C751 1.332 . S
C751 H731 0.931 . S
C751 C750 1.332 . S
C751 C752 1.267 . S
C752 H720 0.929 . S
C752 C751 1.267 . S
C752 C753 1.251 . S
C753 H723 0.929 . S
C753 N749 1.418 . S
C753 C752 1.251 . S
C754 H721 0.930 . S
C754 C756 1.406 . S
C754 C759 1.261 . S
C755 H722 0.930 . S
C755 N757 1.325 . S
C755 C758 1.357 . S
C756 H724 0.928 . S
C756 C754 1.406 . S
C756 N757 1.261 . S
N757 Co708 2.214 . S
N757 C755 1.325 . S
N757 C756 1.261 . S
C758 H728 0.931 . S
C758 C755 1.357 . S
C758 C759 1.312 . S
C759 H730 0.930 . S
C759 C754 1.261 . S
C759 C758 1.312 . S
C760 O732 1.214 1_655 S
C760 O740 1.234 . S
C761 H733 0.929 . S
C761 C764 1.391 . S
C761 C766 1.391 . S
C762 H734 0.929 1_545 S
C762 C763 1.390 1_545 S
C762 N765 1.391 . S
C763 H735 0.930 . S
C763 C762 1.390 1_565 S
C763 C764 1.392 1_565 S
C764 H736 0.929 1_545 S
C764 C761 1.391 . S
C764 C763 1.392 1_545 S
N765 Co709 2.257 . S
N765 C762 1.391 . S
N765 C766 1.388 . S
C766 H737 0.930 . S
C766 C761 1.391 . S
C766 N765 1.388 . S
Co767 O769 2.143 . S
Co767 O775 2.074 . S
Co767 O778 2.093 . S
Co767 O791 2.097 . S
Co767 N808 2.151 . S
Co767 N816 2.214 . S
Co768 O769 2.160 . S
Co768 O774 2.058 . S
Co768 O784 2.057 . S
Co768 O799 2.037 . S
Co768 N803 2.145 . S
Co768 N824 2.257 . S
O769 Co767 2.143 . S
O769 Co768 2.160 . S
C770 O771 1.278 . S
C770 O778 1.224 . S
O771 C770 1.278 . S
C772 O773 1.245 . S
C772 O784 1.232 . S
O773 C772 1.245 . S
O774 Co768 2.058 . S
O774 C800 1.269 . S
O775 Co767 2.074 . S
O775 C800 1.257 . S
H776 C801 0.930 . S
H777 C807 0.930 . S
O778 Co767 2.093 . S
O778 C770 1.224 . S
H779 C811 0.929 . S
H780 C813 0.930 . S
H781 C814 0.930 . S
H782 C812 0.929 . S
H783 C815 0.928 . S
O784 Co768 2.057 . S
O784 C772 1.232 . S
H785 C804 0.929 . S
H786 C805 0.929 . S
H787 C817 0.931 . S
H788 C809 0.929 . S
H789 C818 0.930 . S
H790 C810 0.931 . S
O791 Co767 2.097 . S
O791 C819 1.214 . S
H792 C820 0.929 . S
H793 C821 0.929 . S
H794 C822 0.930 . S
H795 C823 0.929 . S
H796 C825 0.930 . S
H797 C802 0.930 . S
H798 C806 0.930 . S
O799 Co768 2.037 . S
O799 C819 1.234 . S
C800 O774 1.269 . S
C800 O775 1.257 . S
C801 H776 0.930 . S
C801 C804 1.388 . S
C801 C806 1.418 . S
C802 H797 0.930 . S
C802 C805 1.404 . S
C802 C806 1.353 . S
N803 Co768 2.145 . S
N803 C804 1.397 . S
N803 C805 1.334 . S
C804 H785 0.929 . S
C804 C801 1.388 . S
C804 N803 1.397 . S
C805 H786 0.929 . S
C805 C802 1.404 . S
C805 N803 1.334 . S
C806 H798 0.930 . S
C806 C801 1.418 . S
C806 C802 1.353 . S
C807 H777 0.930 . S
C807 N808 1.330 . S
C807 C809 1.446 . S
N808 Co767 2.151 . S
N808 C807 1.330 . S
N808 C812 1.418 . S
C809 H788 0.929 . S
C809 C807 1.446 . S
C809 C810 1.332 . S
C810 H790 0.931 . S
C810 C809 1.332 . S
C810 C811 1.267 . S
C811 H779 0.929 . S
C811 C810 1.267 . S
C811 C812 1.251 . S
C812 H782 0.929 . S
C812 N808 1.418 . S
C812 C811 1.251 . S
C813 H780 0.930 . S
C813 C815 1.406 . S
C813 C818 1.261 . S
C814 H781 0.930 . S
C814 N816 1.325 . S
C814 C817 1.357 . S
C815 H783 0.928 . S
C815 C813 1.406 . S
C815 N816 1.261 . S
N816 Co767 2.214 . S
N816 C814 1.325 . S
N816 C815 1.261 . S
C817 H787 0.931 . S
C817 C814 1.357 . S
C817 C818 1.312 . S
C818 H789 0.930 . S
C818 C813 1.261 . S
C818 C817 1.312 . S
C819 O791 1.214 . S
C819 O799 1.234 . S
C820 H792 0.929 . S
C820 C823 1.391 . S
C820 C825 1.391 . S
C821 H793 0.929 . S
C821 C822 1.390 . S
C821 N824 1.391 . S
C822 H794 0.930 . S
C822 C821 1.390 . S
C822 C823 1.392 . S
C823 H795 0.929 . S
C823 C820 1.391 . S
C823 C822 1.392 . S
N824 Co768 2.257 . S
N824 C821 1.391 . S
N824 C825 1.388 . S
C825 H796 0.930 . S
C825 C820 1.391 . S
C825 N824 1.388 . S
Co826 O828 2.143 . S
Co826 O834 2.074 1_554 S
Co826 O837 2.093 . S
Co826 O850 2.097 . S
Co826 N867 2.151 . S
Co826 N875 2.214 . S
Co827 O828 2.160 . S
Co827 O833 2.058 1_554 S
Co827 O843 2.057 . S
Co827 O858 2.037 . S
Co827 N862 2.145 1_554 S
Co827 N883 2.257 . S
O828 Co826 2.143 . S
O828 Co827 2.160 . S
C829 O830 1.278 . S
C829 O837 1.224 . S
O830 C829 1.278 . S
C831 O832 1.245 . S
C831 O843 1.232 . S
O832 C831 1.245 . S
O833 Co827 2.058 1_556 S
O833 C859 1.269 . S
O834 Co826 2.074 1_556 S
O834 C859 1.257 . S
H835 C860 0.930 1_545 S
H836 C866 0.930 . S
O837 Co826 2.093 . S
O837 C829 1.224 . S
H838 C870 0.929 . S
H839 C872 0.930 . S
H840 C873 0.930 1_556 S
H841 C871 0.929 . S
H842 C874 0.928 . S
O843 Co827 2.057 . S
O843 C831 1.232 . S
H844 C863 0.929 . S
H845 C864 0.929 . S
H846 C876 0.931 . S
H847 C868 0.929 . S
H848 C877 0.930 . S
H849 C869 0.931 . S
O850 Co826 2.097 . S
O850 C878 1.214 . S
H851 C879 0.929 . S
H852 C880 0.929 1_545 S
H853 C881 0.930 . S
H854 C882 0.929 1_545 S
H855 C884 0.930 . S
H856 C861 0.930 . S
H857 C865 0.930 . S
O858 Co827 2.037 . S
O858 C878 1.234 . S
C859 O833 1.269 . S
C859 O834 1.257 . S
C860 H835 0.930 1_565 S
C860 C863 1.388 . S
C860 C865 1.418 . S
C861 H856 0.930 . S
C861 C864 1.404 . S
C861 C865 1.353 . S
N862 Co827 2.145 1_556 S
N862 C863 1.397 . S
N862 C864 1.334 . S
C863 H844 0.929 . S
C863 C860 1.388 . S
C863 N862 1.397 . S
C864 H845 0.929 . S
C864 C861 1.404 . S
C864 N862 1.334 . S
C865 H857 0.930 . S
C865 C860 1.418 . S
C865 C861 1.353 . S
C866 H836 0.930 . S
C866 N867 1.330 . S
C866 C868 1.446 . S
N867 Co826 2.151 . S
N867 C866 1.330 . S
N867 C871 1.418 . S
C868 H847 0.929 . S
C868 C866 1.446 . S
C868 C869 1.332 . S
C869 H849 0.931 . S
C869 C868 1.332 . S
C869 C870 1.267 . S
C870 H838 0.929 . S
C870 C869 1.267 . S
C870 C871 1.251 . S
C871 H841 0.929 . S
C871 N867 1.418 . S
C871 C870 1.251 . S
C872 H839 0.930 . S
C872 C874 1.406 . S
C872 C877 1.261 . S
C873 H840 0.930 1_554 S
C873 N875 1.325 . S
C873 C876 1.357 1_554 S
C874 H842 0.928 . S
C874 C872 1.406 . S
C874 N875 1.261 . S
N875 Co826 2.214 . S
N875 C873 1.325 . S
N875 C874 1.261 . S
C876 H846 0.931 . S
C876 C873 1.357 1_556 S
C876 C877 1.312 1_556 S
C877 H848 0.930 . S
C877 C872 1.261 . S
C877 C876 1.312 1_554 S
C878 O850 1.214 . S
C878 O858 1.234 . S
C879 H851 0.929 . S
C879 C882 1.391 . S
C879 C884 1.391 . S
C880 H852 0.929 1_565 S
C880 C881 1.390 1_565 S
C880 N883 1.391 . S
C881 H853 0.930 . S
C881 C880 1.390 1_545 S
C881 C882 1.392 1_545 S
C882 H854 0.929 1_565 S
C882 C879 1.391 . S
C882 C881 1.392 1_565 S
N883 Co827 2.257 . S
N883 C880 1.391 . S
N883 C884 1.388 . S
C884 H855 0.930 . S
C884 C879 1.391 . S
C884 N883 1.388 . S
Co885 O887 2.143 . S
Co885 O893 2.074 . S
Co885 O896 2.093 1_556 S
Co885 O909 2.097 . S
Co885 N926 2.151 . S
Co885 N934 2.214 . S
Co886 O887 2.160 . S
Co886 O892 2.058 . S
Co886 O902 2.057 . S
Co886 O917 2.037 . S
Co886 N921 2.145 . S
Co886 N942 2.257 . S
O887 Co885 2.143 . S
O887 Co886 2.160 . S
C888 O889 1.278 . S
C888 O896 1.224 . S
O889 C888 1.278 . S
C890 O891 1.245 . S
C890 O902 1.232 . S
O891 C890 1.245 . S
O892 Co886 2.058 . S
O892 C918 1.269 . S
O893 Co885 2.074 . S
O893 C918 1.257 . S
H894 C919 0.930 . S
H895 C925 0.930 . S
O896 Co885 2.093 1_554 S
O896 C888 1.224 . S
H897 C929 0.929 . S
H898 C931 0.930 . S
H899 C932 0.930 . S
H900 C930 0.929 . S
H901 C933 0.928 . S
O902 Co886 2.057 . S
O902 C890 1.232 . S
H903 C922 0.929 . S
H904 C923 0.929 . S
H905 C935 0.931 . S
H906 C927 0.920 1_554 S
H907 C936 0.930 . S
H908 C928 0.931 . S
O909 Co885 2.097 . S
O909 C937 1.214 . S
H910 C938 0.929 . S
H911 C939 0.929 . S
H912 C940 0.930 . S
H913 C941 0.929 . S
H914 C943 0.930 . S
H915 C920 0.930 . S
H916 C924 0.930 . S
O917 Co886 2.037 . S
O917 C937 1.234 . S
C918 O892 1.269 . S
C918 O893 1.257 . S
C919 H894 0.930 . S
C919 C922 1.388 . S
C919 C924 1.418 . S
C920 H915 0.930 . S
C920 C923 1.404 . S
C920 C924 1.353 . S
N921 Co886 2.145 . S
N921 C922 1.397 . S
N921 C923 1.334 . S
C922 H903 0.929 . S
C922 C919 1.388 . S
C922 N921 1.397 . S
C923 H904 0.929 . S
C923 C920 1.404 . S
C923 N921 1.334 . S
C924 H916 0.930 . S
C924 C919 1.418 . S
C924 C920 1.353 . S
C925 H895 0.930 . S
C925 N926 1.330 . S
C925 C927 1.446 . S
N926 Co885 2.151 . S
N926 C925 1.330 . S
N926 C930 1.418 . S
C927 H906 0.920 1_556 S
C927 C925 1.446 . S
C927 C928 1.332 . S
C928 H908 0.931 . S
C928 C927 1.332 . S
C928 C929 1.267 . S
C929 H897 0.929 . S
C929 C928 1.267 . S
C929 C930 1.251 . S
C930 H900 0.929 . S
C930 N926 1.418 . S
C930 C929 1.251 . S
C931 H898 0.930 . S
C931 C933 1.406 . S
C931 C936 1.261 . S
C932 H899 0.930 . S
C932 N934 1.325 . S
C932 C935 1.357 . S
C933 H901 0.928 . S
C933 C931 1.406 . S
C933 N934 1.261 . S
N934 Co885 2.214 . S
N934 C932 1.325 . S
N934 C933 1.261 . S
C935 H905 0.931 . S
C935 C932 1.357 . S
C935 C936 1.312 . S
C936 H907 0.930 . S
C936 C931 1.261 . S
C936 C935 1.312 . S
C937 O909 1.214 . S
C937 O917 1.234 . S
C938 H910 0.929 . S
C938 C941 1.391 . S
C938 C943 1.391 1_554 S
C939 H911 0.929 . S
C939 C940 1.390 . S
C939 N942 1.391 . S
C940 H912 0.930 . S
C940 C939 1.390 . S
C940 C941 1.392 1_556 S
C941 H913 0.929 . S
C941 C938 1.391 . S
C941 C940 1.392 1_554 S
N942 Co886 2.257 . S
N942 C939 1.391 . S
N942 C943 1.388 . S
C943 H914 0.930 . S
C943 C938 1.391 1_556 S
C943 N942 1.388 . S
Co944 O946 2.143 . S
Co944 O952 2.074 . S
Co944 O955 2.093 . S
Co944 O968 2.097 . S
Co944 N985 2.151 . S
Co944 N993 2.214 . S
Co945 O946 2.160 . S
Co945 O951 2.058 . S
Co945 O961 2.057 . S
Co945 O976 2.037 . S
Co945 N980 2.145 . S
Co945 N1001 2.257 . S
O946 Co944 2.143 . S
O946 Co945 2.160 . S
C947 O948 1.278 . S
C947 O955 1.224 . S
O948 C947 1.278 . S
C949 O950 1.245 . S
C949 O961 1.232 . S
O950 C949 1.245 . S
O951 Co945 2.058 . S
O951 C977 1.269 . S
O952 Co944 2.074 . S
O952 C977 1.257 . S
H953 C978 0.930 . S
H954 C984 0.930 . S
O955 Co944 2.093 . S
O955 C947 1.224 . S
H956 C988 0.929 . S
H957 C990 0.930 . S
H958 C991 0.930 . S
H959 C989 0.929 . S
H960 C992 0.928 . S
O961 Co945 2.057 . S
O961 C949 1.232 . S
H962 C981 0.929 . S
H963 C982 0.929 . S
H964 C994 0.931 . S
H965 C986 0.929 . S
H966 C995 0.930 . S
H967 C987 0.931 . S
O968 Co944 2.097 . S
O968 C996 1.214 . S
H969 C997 0.929 . S
H970 C998 0.929 . S
H971 C999 0.930 . S
H972 C1000 0.929 . S
H973 C1002 0.930 . S
H974 C979 0.930 . S
H975 C983 0.930 . S
O976 Co945 2.037 . S
O976 C996 1.234 . S
C977 O951 1.269 . S
C977 O952 1.257 . S
C978 H953 0.930 . S
C978 C981 1.388 . S
C978 C983 1.418 . S
C979 H974 0.930 . S
C979 C982 1.404 . S
C979 C983 1.353 . S
N980 Co945 2.145 . S
N980 C981 1.397 . S
N980 C982 1.334 . S
C981 H962 0.929 . S
C981 C978 1.388 . S
C981 N980 1.397 . S
C982 H963 0.929 . S
C982 C979 1.404 . S
C982 N980 1.334 . S
C983 H975 0.930 . S
C983 C978 1.418 . S
C983 C979 1.353 . S
C984 H954 0.930 . S
C984 N985 1.330 . S
C984 C986 1.446 . S
N985 Co944 2.151 . S
N985 C984 1.330 . S
N985 C989 1.418 . S
C986 H965 0.929 . S
C986 C984 1.446 . S
C986 C987 1.332 . S
C987 H967 0.931 . S
C987 C986 1.332 . S
C987 C988 1.267 . S
C988 H956 0.929 . S
C988 C987 1.267 . S
C988 C989 1.251 . S
C989 H959 0.929 . S
C989 N985 1.418 . S
C989 C988 1.251 . S
C990 H957 0.930 . S
C990 C992 1.406 . S
C990 C995 1.261 . S
C991 H958 0.930 . S
C991 N993 1.325 . S
C991 C994 1.357 . S
C992 H960 0.928 . S
C992 C990 1.406 . S
C992 N993 1.261 . S
N993 Co944 2.214 . S
N993 C991 1.325 . S
N993 C992 1.261 . S
C994 H964 0.931 . S
C994 C991 1.357 . S
C994 C995 1.312 . S
C995 H966 0.930 . S
C995 C990 1.261 . S
C995 C994 1.312 . S
C996 O968 1.214 . S
C996 O976 1.234 . S
C997 H969 0.929 . S
C997 C1000 1.391 . S
C997 C1002 1.391 . S
C998 H970 0.929 . S
C998 C999 1.390 . S
C998 N1001 1.391 . S
C999 H971 0.930 . S
C999 C998 1.390 . S
C999 C1000 1.392 . S
C1000 H972 0.929 . S
C1000 C997 1.391 . S
C1000 C999 1.392 . S
N1001 Co945 2.257 . S
N1001 C998 1.391 . S
N1001 C1002 1.388 . S
C1002 H973 0.930 . S
C1002 C997 1.391 . S
C1002 N1001 1.388 . S
Co1003 O1005 2.143 . S
Co1003 O1011 2.074 . S
Co1003 O1014 2.093 1_556 S
Co1003 O1027 2.097 . S
Co1003 N1044 2.151 . S
Co1003 N1052 2.214 . S
Co1004 O1005 2.160 . S
Co1004 O1010 2.058 . S
Co1004 O1020 2.057 . S
Co1004 O1035 2.037 . S
Co1004 N1039 2.145 . S
Co1004 N1060 2.257 . S
O1005 Co1003 2.143 . S
O1005 Co1004 2.160 . S
C1006 O1007 1.278 . S
C1006 O1014 1.224 . S
O1007 C1006 1.278 . S
C1008 O1009 1.245 . S
C1008 O1020 1.232 . S
O1009 C1008 1.245 . S
O1010 Co1004 2.058 . S
O1010 C1036 1.269 . S
O1011 Co1003 2.074 . S
O1011 C1036 1.257 . S
H1012 C1037 0.930 . S
H1013 C1043 0.930 . S
O1014 Co1003 2.093 1_554 S
O1014 C1006 1.224 . S
H1015 C1047 0.929 . S
H1016 C1049 0.930 . S
H1017 C1050 0.930 . S
H1018 C1048 0.929 . S
H1019 C1051 0.928 . S
O1020 Co1004 2.057 . S
O1020 C1008 1.232 . S
H1021 C1040 0.929 . S
H1022 C1041 0.929 . S
H1023 C1053 0.931 . S
H1024 C1045 0.929 1_554 S
H1025 C1054 0.930 . S
H1026 C1046 0.931 . S
O1027 Co1003 2.097 . S
O1027 C1055 1.214 . S
H1028 C1056 0.929 . S
H1029 C1057 0.929 . S
H1030 C1058 0.930 . S
H1031 C1059 0.929 . S
H1032 C1061 0.930 . S
H1033 C1038 0.930 . S
H1034 C1042 0.930 . S
O1035 Co1004 2.037 . S
O1035 C1055 1.234 . S
C1036 O1010 1.269 . S
C1036 O1011 1.257 . S
C1037 H1012 0.930 . S
C1037 C1040 1.388 . S
C1037 C1042 1.418 . S
C1038 H1033 0.930 . S
C1038 C1041 1.404 . S
C1038 C1042 1.353 . S
N1039 Co1004 2.145 . S
N1039 C1040 1.397 . S
N1039 C1041 1.334 . S
C1040 H1021 0.929 . S
C1040 C1037 1.388 . S
C1040 N1039 1.397 . S
C1041 H1022 0.929 . S
C1041 C1038 1.404 . S
C1041 N1039 1.334 . S
C1042 H1034 0.930 . S
C1042 C1037 1.418 . S
C1042 C1038 1.353 . S
C1043 H1013 0.930 . S
C1043 N1044 1.330 . S
C1043 C1045 1.446 . S
N1044 Co1003 2.151 . S
N1044 C1043 1.330 . S
N1044 C1048 1.418 . S
C1045 H1024 0.929 1_556 S
C1045 C1043 1.446 . S
C1045 C1046 1.332 . S
C1046 H1026 0.931 . S
C1046 C1045 1.332 . S
C1046 C1047 1.267 . S
C1047 H1015 0.929 . S
C1047 C1046 1.267 . S
C1047 C1048 1.251 . S
C1048 H1018 0.929 . S
C1048 N1044 1.418 . S
C1048 C1047 1.251 . S
C1049 H1016 0.930 . S
C1049 C1051 1.406 . S
C1049 C1054 1.261 . S
C1050 H1017 0.930 . S
C1050 N1052 1.325 . S
C1050 C1053 1.357 . S
C1051 H1019 0.928 . S
C1051 C1049 1.406 . S
C1051 N1052 1.261 . S
N1052 Co1003 2.214 . S
N1052 C1050 1.325 . S
N1052 C1051 1.261 . S
C1053 H1023 0.931 . S
C1053 C1050 1.357 . S
C1053 C1054 1.312 . S
C1054 H1025 0.930 . S
C1054 C1049 1.261 . S
C1054 C1053 1.312 . S
C1055 O1027 1.214 . S
C1055 O1035 1.234 . S
C1056 H1028 0.929 . S
C1056 C1059 1.391 . S
C1056 C1061 1.391 1_554 S
C1057 H1029 0.929 . S
C1057 C1058 1.390 . S
C1057 N1060 1.391 . S
C1058 H1030 0.930 . S
C1058 C1057 1.390 . S
C1058 C1059 1.392 1_556 S
C1059 H1031 0.929 . S
C1059 C1056 1.391 . S
C1059 C1058 1.392 1_554 S
N1060 Co1004 2.257 . S
N1060 C1057 1.391 . S
N1060 C1061 1.388 . S
C1061 H1032 0.930 . S
C1061 C1056 1.391 1_556 S
C1061 N1060 1.388 . S
Co1062 O1064 2.143 1_455 S
Co1062 O1070 2.074 1_554 S
Co1062 O1073 2.093 . S
Co1062 O1086 2.097 . S
Co1062 N1103 2.151 . S
Co1062 N1111 2.214 . S
Co1063 O1064 2.160 . S
Co1063 O1069 2.058 1_554 S
Co1063 O1079 2.057 . S
Co1063 O1094 2.037 . S
Co1063 N1098 2.145 1_554 S
Co1063 N1119 2.257 . S
O1064 Co1062 2.143 1_655 S
O1064 Co1063 2.160 . S
C1065 O1066 1.278 1_455 S
C1065 O1073 1.224 . S
O1066 C1065 1.278 1_655 S
C1067 O1068 1.245 . S
C1067 O1079 1.232 . S
O1068 C1067 1.245 . S
O1069 Co1063 2.058 1_556 S
O1069 C1095 1.269 . S
O1070 Co1062 2.074 1_556 S
O1070 C1095 1.257 1_455 S
H1071 C1096 0.930 . S
H1072 C1102 0.930 . S
O1073 Co1062 2.093 . S
O1073 C1065 1.224 . S
H1074 C1106 0.929 . S
H1075 C1108 0.930 . S
H1076 C1109 0.930 1_556 S
H1077 C1107 0.929 . S
H1078 C1110 0.928 . S
O1079 Co1063 2.057 . S
O1079 C1067 1.232 . S
H1080 C1099 0.929 . S
H1081 C1100 0.929 . S
H1082 C1112 0.931 . S
H1083 C1104 0.929 . S
H1084 C1113 0.930 . S
H1085 C1105 0.931 . S
O1086 Co1062 2.097 . S
O1086 C1114 1.214 1_455 S
H1087 C1115 0.929 . S
H1088 C1116 0.929 . S
H1089 C1117 0.930 . S
H1090 C1118 0.929 . S
H1091 C1120 0.930 . S
H1092 C1097 0.930 . S
H1093 C1101 0.930 . S
O1094 Co1063 2.037 . S
O1094 C1114 1.234 . S
C1095 O1069 1.269 . S
C1095 O1070 1.257 1_655 S
C1096 H1071 0.930 . S
C1096 C1099 1.388 . S
C1096 C1101 1.418 . S
C1097 H1092 0.930 . S
C1097 C1100 1.404 . S
C1097 C1101 1.353 . S
N1098 Co1063 2.145 1_556 S
N1098 C1099 1.397 . S
N1098 C1100 1.334 . S
C1099 H1080 0.929 . S
C1099 C1096 1.388 . S
C1099 N1098 1.397 . S
C1100 H1081 0.929 . S
C1100 C1097 1.404 . S
C1100 N1098 1.334 . S
C1101 H1093 0.930 . S
C1101 C1096 1.418 . S
C1101 C1097 1.353 . S
C1102 H1072 0.930 . S
C1102 N1103 1.330 . S
C1102 C1104 1.446 . S
N1103 Co1062 2.151 . S
N1103 C1102 1.330 . S
N1103 C1107 1.418 . S
C1104 H1083 0.929 . S
C1104 C1102 1.446 . S
C1104 C1105 1.332 . S
C1105 H1085 0.931 . S
C1105 C1104 1.332 . S
C1105 C1106 1.267 . S
C1106 H1074 0.929 . S
C1106 C1105 1.267 . S
C1106 C1107 1.251 . S
C1107 H1077 0.929 . S
C1107 N1103 1.418 . S
C1107 C1106 1.251 . S
C1108 H1075 0.930 . S
C1108 C1110 1.406 . S
C1108 C1113 1.261 . S
C1109 H1076 0.930 1_554 S
C1109 N1111 1.325 . S
C1109 C1112 1.357 1_554 S
C1110 H1078 0.928 . S
C1110 C1108 1.406 . S
C1110 N1111 1.261 . S
N1111 Co1062 2.214 . S
N1111 C1109 1.325 . S
N1111 C1110 1.261 . S
C1112 H1082 0.931 . S
C1112 C1109 1.357 1_556 S
C1112 C1113 1.312 1_556 S
C1113 H1084 0.930 . S
C1113 C1108 1.261 . S
C1113 C1112 1.312 1_554 S
C1114 O1086 1.214 1_655 S
C1114 O1094 1.234 . S
C1115 H1087 0.929 . S
C1115 C1118 1.391 . S
C1115 C1120 1.391 . S
C1116 H1088 0.929 . S
C1116 C1117 1.390 . S
C1116 N1119 1.391 . S
C1117 H1089 0.930 . S
C1117 C1116 1.390 . S
C1117 C1118 1.392 . S
C1118 H1090 0.929 . S
C1118 C1115 1.391 . S
C1118 C1117 1.392 . S
N1119 Co1063 2.257 . S
N1119 C1116 1.391 . S
N1119 C1120 1.388 . S
C1120 H1091 0.930 . S
C1120 C1115 1.391 . S
C1120 N1119 1.388 . S
Co1121 O1123 2.143 . S
Co1121 O1129 2.074 . S
Co1121 O1132 2.093 . S
Co1121 O1145 2.097 . S
Co1121 N1162 2.151 . S
Co1121 N1170 2.214 . S
Co1122 O1123 2.160 . S
Co1122 O1128 2.058 . S
Co1122 O1138 2.057 . S
Co1122 O1153 2.037 . S
Co1122 N1157 2.145 . S
Co1122 N1178 2.257 . S
O1123 Co1121 2.143 . S
O1123 Co1122 2.160 . S
C1124 O1125 1.278 . S
C1124 O1132 1.224 . S
O1125 C1124 1.278 . S
C1126 O1127 1.245 . S
C1126 O1138 1.232 . S
O1127 C1126 1.245 . S
O1128 Co1122 2.058 . S
O1128 C1154 1.269 . S
O1129 Co1121 2.074 . S
O1129 C1154 1.257 . S
H1130 C1155 0.930 . S
H1131 C1161 0.930 . S
O1132 Co1121 2.093 . S
O1132 C1124 1.224 . S
H1133 C1165 0.929 . S
H1134 C1167 0.930 . S
H1135 C1168 0.930 . S
H1136 C1166 0.929 . S
H1137 C1169 0.928 . S
O1138 Co1122 2.057 . S
O1138 C1126 1.232 . S
H1139 C1158 0.929 . S
H1140 C1159 0.929 . S
H1141 C1171 0.931 . S
H1142 C1163 0.929 . S
H1143 C1172 0.930 . S
H1144 C1164 0.931 . S
O1145 Co1121 2.097 . S
O1145 C1173 1.214 . S
H1146 C1174 0.929 . S
H1147 C1175 0.929 . S
H1148 C1176 0.930 . S
H1149 C1177 0.929 . S
H1150 C1179 0.930 . S
H1151 C1156 0.930 . S
H1152 C1160 0.930 . S
O1153 Co1122 2.037 . S
O1153 C1173 1.234 . S
C1154 O1128 1.269 . S
C1154 O1129 1.257 . S
C1155 H1130 0.930 . S
C1155 C1158 1.388 . S
C1155 C1160 1.418 . S
C1156 H1151 0.930 . S
C1156 C1159 1.404 . S
C1156 C1160 1.353 . S
N1157 Co1122 2.145 . S
N1157 C1158 1.397 . S
N1157 C1159 1.334 . S
C1158 H1139 0.929 . S
C1158 C1155 1.388 . S
C1158 N1157 1.397 . S
C1159 H1140 0.929 . S
C1159 C1156 1.404 . S
C1159 N1157 1.334 . S
C1160 H1152 0.930 . S
C1160 C1155 1.418 . S
C1160 C1156 1.353 . S
C1161 H1131 0.930 . S
C1161 N1162 1.330 . S
C1161 C1163 1.446 . S
N1162 Co1121 2.151 . S
N1162 C1161 1.330 . S
N1162 C1166 1.418 . S
C1163 H1142 0.929 . S
C1163 C1161 1.446 . S
C1163 C1164 1.332 . S
C1164 H1144 0.931 . S
C1164 C1163 1.332 . S
C1164 C1165 1.267 . S
C1165 H1133 0.929 . S
C1165 C1164 1.267 . S
C1165 C1166 1.251 . S
C1166 H1136 0.929 . S
C1166 N1162 1.418 . S
C1166 C1165 1.251 . S
C1167 H1134 0.930 . S
C1167 C1169 1.406 . S
C1167 C1172 1.261 . S
C1168 H1135 0.930 . S
C1168 N1170 1.325 . S
C1168 C1171 1.357 . S
C1169 H1137 0.928 . S
C1169 C1167 1.406 . S
C1169 N1170 1.261 . S
N1170 Co1121 2.214 . S
N1170 C1168 1.325 . S
N1170 C1169 1.261 . S
C1171 H1141 0.931 . S
C1171 C1168 1.357 . S
C1171 C1172 1.312 . S
C1172 H1143 0.930 . S
C1172 C1167 1.261 . S
C1172 C1171 1.312 . S
C1173 O1145 1.214 . S
C1173 O1153 1.234 . S
C1174 H1146 0.929 . S
C1174 C1177 1.391 . S
C1174 C1179 1.391 . S
C1175 H1147 0.929 . S
C1175 C1176 1.390 . S
C1175 N1178 1.391 . S
C1176 H1148 0.930 . S
C1176 C1175 1.390 . S
C1176 C1177 1.392 . S
C1177 H1149 0.929 . S
C1177 C1174 1.391 . S
C1177 C1176 1.392 . S
N1178 Co1122 2.257 . S
N1178 C1175 1.391 . S
N1178 C1179 1.388 . S
C1179 H1150 0.930 . S
C1179 C1174 1.391 . S
C1179 N1178 1.388 . S
Co1180 O1182 2.143 . S
Co1180 O1188 2.074 1_556 S
Co1180 O1191 2.093 . S
Co1180 O1204 2.097 . S
Co1180 N1221 2.151 . S
Co1180 N1229 2.214 . S
Co1181 O1182 2.160 . S
Co1181 O1187 2.058 1_556 S
Co1181 O1197 2.057 . S
Co1181 O1212 2.037 . S
Co1181 N1216 2.145 1_556 S
Co1181 N1237 2.257 . S
O1182 Co1180 2.143 . S
O1182 Co1181 2.160 . S
C1183 O1184 1.278 . S
C1183 O1191 1.224 . S
O1184 C1183 1.278 . S
C1185 O1186 1.245 . S
C1185 O1197 1.232 . S
O1186 C1185 1.245 . S
O1187 Co1181 2.058 1_554 S
O1187 C1213 1.269 . S
O1188 Co1180 2.074 1_554 S
O1188 C1213 1.257 . S
H1189 C1214 0.930 . S
H1190 C1220 0.930 . S
O1191 Co1180 2.093 . S
O1191 C1183 1.224 . S
H1192 C1224 0.929 . S
H1193 C1226 0.930 . S
H1194 C1227 0.930 1_554 S
H1195 C1225 0.929 . S
H1196 C1228 0.928 . S
O1197 Co1181 2.057 . S
O1197 C1185 1.232 . S
H1198 C1217 0.929 . S
H1199 C1218 0.929 . S
H1200 C1230 0.931 . S
H1201 C1222 0.929 . S
H1202 C1231 0.930 . S
H1203 C1223 0.931 . S
O1204 Co1180 2.097 . S
O1204 C1232 1.214 . S
H1205 C1233 0.929 . S
H1206 C1234 0.929 . S
H1207 C1235 0.930 . S
H1208 C1236 0.929 . S
H1209 C1238 0.930 . S
H1210 C1215 0.930 . S
H1211 C1219 0.930 . S
O1212 Co1181 2.037 . S
O1212 C1232 1.234 . S
C1213 O1187 1.269 . S
C1213 O1188 1.257 . S
C1214 H1189 0.930 . S
C1214 C1217 1.388 . S
C1214 C1219 1.418 . S
C1215 H1210 0.930 . S
C1215 C1218 1.404 . S
C1215 C1219 1.353 . S
N1216 Co1181 2.145 1_554 S
N1216 C1217 1.397 . S
N1216 C1218 1.334 . S
C1217 H1198 0.929 . S
C1217 C1214 1.388 . S
C1217 N1216 1.397 . S
C1218 H1199 0.929 . S
C1218 C1215 1.404 . S
C1218 N1216 1.334 . S
C1219 H1211 0.930 . S
C1219 C1214 1.418 . S
C1219 C1215 1.353 . S
C1220 H1190 0.930 . S
C1220 N1221 1.330 . S
C1220 C1222 1.446 . S
N1221 Co1180 2.151 . S
N1221 C1220 1.330 . S
N1221 C1225 1.418 . S
C1222 H1201 0.929 . S
C1222 C1220 1.446 . S
C1222 C1223 1.332 . S
C1223 H1203 0.931 . S
C1223 C1222 1.332 . S
C1223 C1224 1.267 . S
C1224 H1192 0.929 . S
C1224 C1223 1.267 . S
C1224 C1225 1.251 . S
C1225 H1195 0.929 . S
C1225 N1221 1.418 . S
C1225 C1224 1.251 . S
C1226 H1193 0.930 . S
C1226 C1228 1.406 . S
C1226 C1231 1.261 . S
C1227 H1194 0.930 1_556 S
C1227 N1229 1.325 . S
C1227 C1230 1.357 1_556 S
C1228 H1196 0.928 . S
C1228 C1226 1.406 . S
C1228 N1229 1.261 . S
N1229 Co1180 2.214 . S
N1229 C1227 1.325 . S
N1229 C1228 1.261 . S
C1230 H1200 0.931 . S
C1230 C1227 1.357 1_554 S
C1230 C1231 1.312 1_554 S
C1231 H1202 0.930 . S
C1231 C1226 1.261 . S
C1231 C1230 1.312 1_556 S
C1232 O1204 1.214 . S
C1232 O1212 1.234 . S
C1233 H1205 0.929 . S
C1233 C1236 1.391 . S
C1233 C1238 1.391 . S
C1234 H1206 0.929 . S
C1234 C1235 1.390 . S
C1234 N1237 1.391 . S
C1235 H1207 0.930 . S
C1235 C1234 1.390 . S
C1235 C1236 1.392 . S
C1236 H1208 0.929 . S
C1236 C1233 1.391 . S
C1236 C1235 1.392 . S
N1237 Co1181 2.257 . S
N1237 C1234 1.391 . S
N1237 C1238 1.388 . S
C1238 H1209 0.930 . S
C1238 C1233 1.391 . S
C1238 N1237 1.388 . S
Co1239 O1241 2.143 . S
Co1239 O1247 2.074 . S
Co1239 O1250 2.093 1_554 S
Co1239 O1263 2.097 . S
Co1239 N1280 2.151 . S
Co1239 N1288 2.214 . S
Co1240 O1241 2.160 . S
Co1240 O1246 2.058 . S
Co1240 O1256 2.057 . S
Co1240 O1271 2.037 . S
Co1240 N1275 2.145 . S
Co1240 N1296 2.257 . S
O1241 Co1239 2.143 . S
O1241 Co1240 2.160 . S
C1242 O1243 1.278 . S
C1242 O1250 1.224 . S
O1243 C1242 1.278 . S
C1244 O1245 1.245 . S
C1244 O1256 1.232 . S
O1245 C1244 1.245 . S
O1246 Co1240 2.058 . S
O1246 C1272 1.269 . S
O1247 Co1239 2.074 . S
O1247 C1272 1.257 . S
H1248 C1273 0.930 . S
H1249 C1279 0.930 . S
O1250 Co1239 2.093 1_556 S
O1250 C1242 1.224 . S
H1251 C1283 0.929 . S
H1252 C1285 0.930 . S
H1253 C1286 0.930 . S
H1254 C1284 0.929 . S
H1255 C1287 0.928 . S
O1256 Co1240 2.057 . S
O1256 C1244 1.232 . S
H1257 C1276 0.929 . S
H1258 C1277 0.929 . S
H1259 C1289 0.931 . S
H1260 C1281 0.920 1_556 S
H1261 C1290 0.930 . S
H1262 C1282 0.931 . S
O1263 Co1239 2.097 . S
O1263 C1291 1.214 . S
H1264 C1292 0.929 . S
H1265 C1293 0.929 . S
H1266 C1294 0.930 . S
H1267 C1295 0.929 . S
H1268 C1297 0.930 . S
H1269 C1274 0.930 . S
H1270 C1278 0.930 . S
O1271 Co1240 2.037 . S
O1271 C1291 1.234 . S
C1272 O1246 1.269 . S
C1272 O1247 1.257 . S
C1273 H1248 0.930 . S
C1273 C1276 1.388 . S
C1273 C1278 1.418 . S
C1274 H1269 0.930 . S
C1274 C1277 1.404 . S
C1274 C1278 1.353 . S
N1275 Co1240 2.145 . S
N1275 C1276 1.397 . S
N1275 C1277 1.334 . S
C1276 H1257 0.929 . S
C1276 C1273 1.388 . S
C1276 N1275 1.397 . S
C1277 H1258 0.929 . S
C1277 C1274 1.404 . S
C1277 N1275 1.334 . S
C1278 H1270 0.930 . S
C1278 C1273 1.418 . S
C1278 C1274 1.353 . S
C1279 H1249 0.930 . S
C1279 N1280 1.330 . S
C1279 C1281 1.446 . S
N1280 Co1239 2.151 . S
N1280 C1279 1.330 . S
N1280 C1284 1.418 . S
C1281 H1260 0.920 1_554 S
C1281 C1279 1.446 . S
C1281 C1282 1.332 . S
C1282 H1262 0.931 . S
C1282 C1281 1.332 . S
C1282 C1283 1.267 . S
C1283 H1251 0.929 . S
C1283 C1282 1.267 . S
C1283 C1284 1.251 . S
C1284 H1254 0.929 . S
C1284 N1280 1.418 . S
C1284 C1283 1.251 . S
C1285 H1252 0.930 . S
C1285 C1287 1.406 . S
C1285 C1290 1.261 . S
C1286 H1253 0.930 . S
C1286 N1288 1.325 . S
C1286 C1289 1.357 . S
C1287 H1255 0.928 . S
C1287 C1285 1.406 . S
C1287 N1288 1.261 . S
N1288 Co1239 2.214 . S
N1288 C1286 1.325 . S
N1288 C1287 1.261 . S
C1289 H1259 0.931 . S
C1289 C1286 1.357 . S
C1289 C1290 1.312 . S
C1290 H1261 0.930 . S
C1290 C1285 1.261 . S
C1290 C1289 1.312 . S
C1291 O1263 1.214 . S
C1291 O1271 1.234 . S
C1292 H1264 0.929 . S
C1292 C1295 1.391 . S
C1292 C1297 1.391 1_556 S
C1293 H1265 0.929 . S
C1293 C1294 1.390 . S
C1293 N1296 1.391 . S
C1294 H1266 0.930 . S
C1294 C1293 1.390 . S
C1294 C1295 1.392 1_554 S
C1295 H1267 0.929 . S
C1295 C1292 1.391 . S
C1295 C1294 1.392 1_556 S
N1296 Co1240 2.257 . S
N1296 C1293 1.391 . S
N1296 C1297 1.388 . S
C1297 H1268 0.930 . S
C1297 C1292 1.391 1_554 S
C1297 N1296 1.388 . S
Co1298 O1300 2.143 1_455 S
Co1298 O1306 2.074 . S
Co1298 O1309 2.093 . S
Co1298 O1322 2.097 . S
Co1298 N1339 2.151 . S
Co1298 N1347 2.214 . S
Co1299 O1300 2.160 . S
Co1299 O1305 2.058 . S
Co1299 O1315 2.057 . S
Co1299 O1330 2.037 . S
Co1299 N1334 2.145 . S
Co1299 N1355 2.257 . S
O1300 Co1298 2.143 1_655 S
O1300 Co1299 2.160 . S
C1301 O1302 1.278 1_455 S
C1301 O1309 1.224 . S
O1302 C1301 1.278 1_655 S
C1303 O1304 1.245 . S
C1303 O1315 1.232 . S
O1304 C1303 1.245 . S
O1305 Co1299 2.058 . S
O1305 C1331 1.269 . S
O1306 Co1298 2.074 . S
O1306 C1331 1.257 1_455 S
H1307 C1332 0.930 . S
H1308 C1338 0.930 . S
O1309 Co1298 2.093 . S
O1309 C1301 1.224 . S
H1310 C1342 0.929 . S
H1311 C1344 0.930 . S
H1312 C1345 0.930 . S
H1313 C1343 0.929 . S
H1314 C1346 0.928 . S
O1315 Co1299 2.057 . S
O1315 C1303 1.232 . S
H1316 C1335 0.929 . S
H1317 C1336 0.929 . S
H1318 C1348 0.931 . S
H1319 C1340 0.929 . S
H1320 C1349 0.930 . S
H1321 C1341 0.931 . S
O1322 Co1298 2.097 . S
O1322 C1350 1.214 1_455 S
H1323 C1351 0.929 . S
H1324 C1352 0.929 . S
H1325 C1353 0.930 . S
H1326 C1354 0.929 . S
H1327 C1356 0.930 . S
H1328 C1333 0.930 . S
H1329 C1337 0.930 . S
O1330 Co1299 2.037 . S
O1330 C1350 1.234 . S
C1331 O1305 1.269 . S
C1331 O1306 1.257 1_655 S
C1332 H1307 0.930 . S
C1332 C1335 1.388 . S
C1332 C1337 1.418 . S
C1333 H1328 0.930 . S
C1333 C1336 1.404 . S
C1333 C1337 1.353 . S
N1334 Co1299 2.145 . S
N1334 C1335 1.397 . S
N1334 C1336 1.334 . S
C1335 H1316 0.929 . S
C1335 C1332 1.388 . S
C1335 N1334 1.397 . S
C1336 H1317 0.929 . S
C1336 C1333 1.404 . S
C1336 N1334 1.334 . S
C1337 H1329 0.930 . S
C1337 C1332 1.418 . S
C1337 C1333 1.353 . S
C1338 H1308 0.930 . S
C1338 N1339 1.330 . S
C1338 C1340 1.446 . S
N1339 Co1298 2.151 . S
N1339 C1338 1.330 . S
N1339 C1343 1.418 . S
C1340 H1319 0.929 . S
C1340 C1338 1.446 . S
C1340 C1341 1.332 . S
C1341 H1321 0.931 . S
C1341 C1340 1.332 . S
C1341 C1342 1.267 . S
C1342 H1310 0.929 . S
C1342 C1341 1.267 . S
C1342 C1343 1.251 . S
C1343 H1313 0.929 . S
C1343 N1339 1.418 . S
C1343 C1342 1.251 . S
C1344 H1311 0.930 . S
C1344 C1346 1.406 . S
C1344 C1349 1.261 . S
C1345 H1312 0.930 . S
C1345 N1347 1.325 . S
C1345 C1348 1.357 . S
C1346 H1314 0.928 . S
C1346 C1344 1.406 . S
C1346 N1347 1.261 . S
N1347 Co1298 2.214 . S
N1347 C1345 1.325 . S
N1347 C1346 1.261 . S
C1348 H1318 0.931 . S
C1348 C1345 1.357 . S
C1348 C1349 1.312 . S
C1349 H1320 0.930 . S
C1349 C1344 1.261 . S
C1349 C1348 1.312 . S
C1350 O1322 1.214 1_655 S
C1350 O1330 1.234 . S
C1351 H1323 0.929 . S
C1351 C1354 1.391 . S
C1351 C1356 1.391 . S
C1352 H1324 0.929 . S
C1352 C1353 1.390 . S
C1352 N1355 1.391 . S
C1353 H1325 0.930 . S
C1353 C1352 1.390 . S
C1353 C1354 1.392 . S
C1354 H1326 0.929 . S
C1354 C1351 1.391 . S
C1354 C1353 1.392 . S
N1355 Co1299 2.257 . S
N1355 C1352 1.391 . S
N1355 C1356 1.388 . S
C1356 H1327 0.930 . S
C1356 C1351 1.391 . S
C1356 N1355 1.388 . S
Co1357 O1359 2.143 . S
Co1357 O1365 2.074 . S
Co1357 O1368 2.093 . S
Co1357 O1381 2.097 . S
Co1357 N1398 2.151 . S
Co1357 N1406 2.214 . S
Co1358 O1359 2.160 . S
Co1358 O1364 2.058 . S
Co1358 O1374 2.057 . S
Co1358 O1389 2.037 . S
Co1358 N1393 2.145 . S
Co1358 N1414 2.257 . S
O1359 Co1357 2.143 . S
O1359 Co1358 2.160 . S
C1360 O1361 1.278 . S
C1360 O1368 1.224 . S
O1361 C1360 1.278 . S
C1362 O1363 1.245 . S
C1362 O1374 1.232 . S
O1363 C1362 1.245 . S
O1364 Co1358 2.058 . S
O1364 C1390 1.269 . S
O1365 Co1357 2.074 . S
O1365 C1390 1.257 . S
H1366 C1391 0.930 . S
H1367 C1397 0.930 . S
O1368 Co1357 2.093 . S
O1368 C1360 1.224 . S
H1369 C1401 0.929 . S
H1370 C1403 0.930 . S
H1371 C1404 0.930 . S
H1372 C1402 0.929 . S
H1373 C1405 0.928 . S
O1374 Co1358 2.057 . S
O1374 C1362 1.232 . S
H1375 C1394 0.929 . S
H1376 C1395 0.929 . S
H1377 C1407 0.931 . S
H1378 C1399 0.929 . S
H1379 C1408 0.930 . S
H1380 C1400 0.931 . S
O1381 Co1357 2.097 . S
O1381 C1409 1.214 . S
H1382 C1410 0.929 . S
H1383 C1411 0.929 . S
H1384 C1412 0.930 . S
H1385 C1413 0.929 . S
H1386 C1415 0.930 . S
H1387 C1392 0.930 . S
H1388 C1396 0.930 . S
O1389 Co1358 2.037 . S
O1389 C1409 1.234 . S
C1390 O1364 1.269 . S
C1390 O1365 1.257 . S
C1391 H1366 0.930 . S
C1391 C1394 1.388 . S
C1391 C1396 1.418 . S
C1392 H1387 0.930 . S
C1392 C1395 1.404 . S
C1392 C1396 1.353 . S
N1393 Co1358 2.145 . S
N1393 C1394 1.397 . S
N1393 C1395 1.334 . S
C1394 H1375 0.929 . S
C1394 C1391 1.388 . S
C1394 N1393 1.397 . S
C1395 H1376 0.929 . S
C1395 C1392 1.404 . S
C1395 N1393 1.334 . S
C1396 H1388 0.930 . S
C1396 C1391 1.418 . S
C1396 C1392 1.353 . S
C1397 H1367 0.930 . S
C1397 N1398 1.330 . S
C1397 C1399 1.446 . S
N1398 Co1357 2.151 . S
N1398 C1397 1.330 . S
N1398 C1402 1.418 . S
C1399 H1378 0.929 . S
C1399 C1397 1.446 . S
C1399 C1400 1.332 . S
C1400 H1380 0.931 . S
C1400 C1399 1.332 . S
C1400 C1401 1.267 . S
C1401 H1369 0.929 . S
C1401 C1400 1.267 . S
C1401 C1402 1.251 . S
C1402 H1372 0.929 . S
C1402 N1398 1.418 . S
C1402 C1401 1.251 . S
C1403 H1370 0.930 . S
C1403 C1405 1.406 . S
C1403 C1408 1.261 . S
C1404 H1371 0.930 . S
C1404 N1406 1.325 . S
C1404 C1407 1.357 . S
C1405 H1373 0.928 . S
C1405 C1403 1.406 . S
C1405 N1406 1.261 . S
N1406 Co1357 2.214 . S
N1406 C1404 1.325 . S
N1406 C1405 1.261 . S
C1407 H1377 0.931 . S
C1407 C1404 1.357 . S
C1407 C1408 1.312 . S
C1408 H1379 0.930 . S
C1408 C1403 1.261 . S
C1408 C1407 1.312 . S
C1409 O1381 1.214 . S
C1409 O1389 1.234 . S
C1410 H1382 0.929 . S
C1410 C1413 1.391 . S
C1410 C1415 1.391 . S
C1411 H1383 0.929 . S
C1411 C1412 1.390 . S
C1411 N1414 1.391 . S
C1412 H1384 0.930 . S
C1412 C1411 1.390 . S
C1412 C1413 1.392 . S
C1413 H1385 0.929 . S
C1413 C1410 1.391 . S
C1413 C1412 1.392 . S
N1414 Co1358 2.257 . S
N1414 C1411 1.391 . S
N1414 C1415 1.388 . S
C1415 H1386 0.930 . S
C1415 C1410 1.391 . S
C1415 N1414 1.388 . S
Co1416 O1418 2.143 . S
Co1416 O1424 2.074 . S
Co1416 O1427 2.093 . S
Co1416 O1440 2.097 . S
Co1416 N1457 2.151 . S
Co1416 N1465 2.214 . S
Co1417 O1418 2.160 . S
Co1417 O1423 2.058 . S
Co1417 O1433 2.057 . S
Co1417 O1448 2.037 . S
Co1417 N1452 2.145 . S
Co1417 N1473 2.257 . S
O1418 Co1416 2.143 . S
O1418 Co1417 2.160 . S
C1419 O1420 1.278 . S
C1419 O1427 1.224 . S
O1420 C1419 1.278 . S
C1421 O1422 1.245 . S
C1421 O1433 1.232 . S
O1422 C1421 1.245 . S
O1423 Co1417 2.058 . S
O1423 C1449 1.269 . S
O1424 Co1416 2.074 . S
O1424 C1449 1.257 . S
H1425 C1450 0.930 . S
H1426 C1456 0.930 . S
O1427 Co1416 2.093 . S
O1427 C1419 1.224 . S
H1428 C1460 0.929 . S
H1429 C1462 0.930 . S
H1430 C1463 0.930 . S
H1431 C1461 0.929 . S
H1432 C1464 0.928 . S
O1433 Co1417 2.057 . S
O1433 C1421 1.232 . S
H1434 C1453 0.929 . S
H1435 C1454 0.929 . S
H1436 C1466 0.931 . S
H1437 C1458 0.929 . S
H1438 C1467 0.930 . S
H1439 C1459 0.931 . S
O1440 Co1416 2.097 . S
O1440 C1468 1.214 . S
H1441 C1469 0.929 . S
H1442 C1470 0.929 . S
H1443 C1471 0.930 . S
H1444 C1472 0.929 . S
H1445 C1474 0.930 . S
H1446 C1451 0.930 . S
H1447 C1455 0.930 . S
O1448 Co1417 2.037 . S
O1448 C1468 1.234 . S
C1449 O1423 1.269 . S
C1449 O1424 1.257 . S
C1450 H1425 0.930 . S
C1450 C1453 1.388 . S
C1450 C1455 1.418 . S
C1451 H1446 0.930 . S
C1451 C1454 1.404 . S
C1451 C1455 1.353 . S
N1452 Co1417 2.145 . S
N1452 C1453 1.397 . S
N1452 C1454 1.334 . S
C1453 H1434 0.929 . S
C1453 C1450 1.388 . S
C1453 N1452 1.397 . S
C1454 H1435 0.929 . S
C1454 C1451 1.404 . S
C1454 N1452 1.334 . S
C1455 H1447 0.930 . S
C1455 C1450 1.418 . S
C1455 C1451 1.353 . S
C1456 H1426 0.930 . S
C1456 N1457 1.330 . S
C1456 C1458 1.446 . S
N1457 Co1416 2.151 . S
N1457 C1456 1.330 . S
N1457 C1461 1.418 . S
C1458 H1437 0.929 . S
C1458 C1456 1.446 . S
C1458 C1459 1.332 . S
C1459 H1439 0.931 . S
C1459 C1458 1.332 . S
C1459 C1460 1.267 . S
C1460 H1428 0.929 . S
C1460 C1459 1.267 . S
C1460 C1461 1.251 . S
C1461 H1431 0.929 . S
C1461 N1457 1.418 . S
C1461 C1460 1.251 . S
C1462 H1429 0.930 . S
C1462 C1464 1.406 . S
C1462 C1467 1.261 . S
C1463 H1430 0.930 . S
C1463 N1465 1.325 . S
C1463 C1466 1.357 . S
C1464 H1432 0.928 . S
C1464 C1462 1.406 . S
C1464 N1465 1.261 . S
N1465 Co1416 2.214 . S
N1465 C1463 1.325 . S
N1465 C1464 1.261 . S
C1466 H1436 0.931 . S
C1466 C1463 1.357 . S
C1466 C1467 1.312 . S
C1467 H1438 0.930 . S
C1467 C1462 1.261 . S
C1467 C1466 1.312 . S
C1468 O1440 1.214 . S
C1468 O1448 1.234 . S
C1469 H1441 0.929 . S
C1469 C1472 1.391 . S
C1469 C1474 1.391 . S
C1470 H1442 0.929 . S
C1470 C1471 1.390 . S
C1470 N1473 1.391 . S
C1471 H1443 0.930 . S
C1471 C1470 1.390 . S
C1471 C1472 1.392 . S
C1472 H1444 0.929 . S
C1472 C1469 1.391 . S
C1472 C1471 1.392 . S
N1473 Co1417 2.257 . S
N1473 C1470 1.391 . S
N1473 C1474 1.388 . S
C1474 H1445 0.930 . S
C1474 C1469 1.391 . S
C1474 N1473 1.388 . S
Co1475 O1477 2.143 . S
Co1475 O1483 2.074 . S
Co1475 O1486 2.093 1_554 S
Co1475 O1499 2.097 . S
Co1475 N1516 2.151 . S
Co1475 N1524 2.214 . S
Co1476 O1477 2.160 . S
Co1476 O1482 2.058 . S
Co1476 O1492 2.057 . S
Co1476 O1507 2.037 . S
Co1476 N1511 2.145 . S
Co1476 N1532 2.257 . S
O1477 Co1475 2.143 . S
O1477 Co1476 2.160 . S
C1478 O1479 1.278 . S
C1478 O1486 1.224 . S
O1479 C1478 1.278 . S
C1480 O1481 1.245 . S
C1480 O1492 1.232 . S
O1481 C1480 1.245 . S
O1482 Co1476 2.058 . S
O1482 C1508 1.269 . S
O1483 Co1475 2.074 . S
O1483 C1508 1.257 . S
H1484 C1509 0.930 . S
H1485 C1515 0.930 . S
O1486 Co1475 2.093 1_556 S
O1486 C1478 1.224 . S
H1487 C1519 0.929 . S
H1488 C1521 0.930 . S
H1489 C1522 0.930 . S
H1490 C1520 0.929 . S
H1491 C1523 0.928 . S
O1492 Co1476 2.057 . S
O1492 C1480 1.232 . S
H1493 C1512 0.929 . S
H1494 C1513 0.929 . S
H1495 C1525 0.931 . S
H1496 C1517 0.929 1_556 S
H1497 C1526 0.930 . S
H1498 C1518 0.931 . S
O1499 Co1475 2.097 . S
O1499 C1527 1.214 . S
H1500 C1528 0.929 . S
H1501 C1529 0.929 . S
H1502 C1530 0.930 . S
H1503 C1531 0.929 . S
H1504 C1533 0.930 . S
H1505 C1510 0.930 . S
H1506 C1514 0.930 . S
O1507 Co1476 2.037 . S
O1507 C1527 1.234 . S
C1508 O1482 1.269 . S
C1508 O1483 1.257 . S
C1509 H1484 0.930 . S
C1509 C1512 1.388 . S
C1509 C1514 1.418 . S
C1510 H1505 0.930 . S
C1510 C1513 1.404 . S
C1510 C1514 1.353 . S
N1511 Co1476 2.145 . S
N1511 C1512 1.397 . S
N1511 C1513 1.334 . S
C1512 H1493 0.929 . S
C1512 C1509 1.388 . S
C1512 N1511 1.397 . S
C1513 H1494 0.929 . S
C1513 C1510 1.404 . S
C1513 N1511 1.334 . S
C1514 H1506 0.930 . S
C1514 C1509 1.418 . S
C1514 C1510 1.353 . S
C1515 H1485 0.930 . S
C1515 N1516 1.330 . S
C1515 C1517 1.446 . S
N1516 Co1475 2.151 . S
N1516 C1515 1.330 . S
N1516 C1520 1.418 . S
C1517 H1496 0.929 1_554 S
C1517 C1515 1.446 . S
C1517 C1518 1.332 . S
C1518 H1498 0.931 . S
C1518 C1517 1.332 . S
C1518 C1519 1.267 . S
C1519 H1487 0.929 . S
C1519 C1518 1.267 . S
C1519 C1520 1.251 . S
C1520 H1490 0.929 . S
C1520 N1516 1.418 . S
C1520 C1519 1.251 . S
C1521 H1488 0.930 . S
C1521 C1523 1.406 . S
C1521 C1526 1.261 . S
C1522 H1489 0.930 . S
C1522 N1524 1.325 . S
C1522 C1525 1.357 . S
C1523 H1491 0.928 . S
C1523 C1521 1.406 . S
C1523 N1524 1.261 . S
N1524 Co1475 2.214 . S
N1524 C1522 1.325 . S
N1524 C1523 1.261 . S
C1525 H1495 0.931 . S
C1525 C1522 1.357 . S
C1525 C1526 1.312 . S
C1526 H1497 0.930 . S
C1526 C1521 1.261 . S
C1526 C1525 1.312 . S
C1527 O1499 1.214 . S
C1527 O1507 1.234 . S
C1528 H1500 0.929 . S
C1528 C1531 1.391 . S
C1528 C1533 1.391 1_556 S
C1529 H1501 0.929 . S
C1529 C1530 1.390 . S
C1529 N1532 1.391 . S
C1530 H1502 0.930 . S
C1530 C1529 1.390 . S
C1530 C1531 1.392 1_554 S
C1531 H1503 0.929 . S
C1531 C1528 1.391 . S
C1531 C1530 1.392 1_556 S
N1532 Co1476 2.257 . S
N1532 C1529 1.391 . S
N1532 C1533 1.388 . S
C1533 H1504 0.930 . S
C1533 C1528 1.391 1_554 S
C1533 N1532 1.388 . S
Co1534 O1536 2.143 1_655 S
Co1534 O1542 2.074 1_556 S
Co1534 O1545 2.093 . S
Co1534 O1558 2.097 . S
Co1534 N1575 2.151 . S
Co1534 N1583 2.214 . S
Co1535 O1536 2.160 . S
Co1535 O1541 2.058 1_556 S
Co1535 O1551 2.057 . S
Co1535 O1566 2.037 . S
Co1535 N1570 2.145 1_556 S
Co1535 N1591 2.257 . S
O1536 Co1534 2.143 1_455 S
O1536 Co1535 2.160 . S
C1537 O1538 1.278 1_655 S
C1537 O1545 1.224 . S
O1538 C1537 1.278 1_455 S
C1539 O1540 1.245 . S
C1539 O1551 1.232 . S
O1540 C1539 1.245 . S
O1541 Co1535 2.058 1_554 S
O1541 C1567 1.269 . S
O1542 Co1534 2.074 1_554 S
O1542 C1567 1.257 1_655 S
H1543 C1568 0.930 . S
H1544 C1574 0.930 . S
O1545 Co1534 2.093 . S
O1545 C1537 1.224 . S
H1546 C1578 0.929 . S
H1547 C1580 0.930 . S
H1548 C1581 0.930 1_554 S
H1549 C1579 0.929 . S
H1550 C1582 0.928 . S
O1551 Co1535 2.057 . S
O1551 C1539 1.232 . S
H1552 C1571 0.929 . S
H1553 C1572 0.929 . S
H1554 C1584 0.931 . S
H1555 C1576 0.929 . S
H1556 C1585 0.930 . S
H1557 C1577 0.931 . S
O1558 Co1534 2.097 . S
O1558 C1586 1.214 1_655 S
H1559 C1587 0.929 . S
H1560 C1588 0.929 . S
H1561 C1589 0.930 . S
H1562 C1590 0.929 . S
H1563 C1592 0.930 . S
H1564 C1569 0.930 . S
H1565 C1573 0.930 . S
O1566 Co1535 2.037 . S
O1566 C1586 1.234 . S
C1567 O1541 1.269 . S
C1567 O1542 1.257 1_455 S
C1568 H1543 0.930 . S
C1568 C1571 1.388 . S
C1568 C1573 1.418 . S
C1569 H1564 0.930 . S
C1569 C1572 1.404 . S
C1569 C1573 1.353 . S
N1570 Co1535 2.145 1_554 S
N1570 C1571 1.397 . S
N1570 C1572 1.334 . S
C1571 H1552 0.929 . S
C1571 C1568 1.388 . S
C1571 N1570 1.397 . S
C1572 H1553 0.929 . S
C1572 C1569 1.404 . S
C1572 N1570 1.334 . S
C1573 H1565 0.930 . S
C1573 C1568 1.418 . S
C1573 C1569 1.353 . S
C1574 H1544 0.930 . S
C1574 N1575 1.330 . S
C1574 C1576 1.446 . S
N1575 Co1534 2.151 . S
N1575 C1574 1.330 . S
N1575 C1579 1.418 . S
C1576 H1555 0.929 . S
C1576 C1574 1.446 . S
C1576 C1577 1.332 . S
C1577 H1557 0.931 . S
C1577 C1576 1.332 . S
C1577 C1578 1.267 . S
C1578 H1546 0.929 . S
C1578 C1577 1.267 . S
C1578 C1579 1.251 . S
C1579 H1549 0.929 . S
C1579 N1575 1.418 . S
C1579 C1578 1.251 . S
C1580 H1547 0.930 . S
C1580 C1582 1.406 . S
C1580 C1585 1.261 . S
C1581 H1548 0.930 1_556 S
C1581 N1583 1.325 . S
C1581 C1584 1.357 1_556 S
C1582 H1550 0.928 . S
C1582 C1580 1.406 . S
C1582 N1583 1.261 . S
N1583 Co1534 2.214 . S
N1583 C1581 1.325 . S
N1583 C1582 1.261 . S
C1584 H1554 0.931 . S
C1584 C1581 1.357 1_554 S
C1584 C1585 1.312 1_554 S
C1585 H1556 0.930 . S
C1585 C1580 1.261 . S
C1585 C1584 1.312 1_556 S
C1586 O1558 1.214 1_455 S
C1586 O1566 1.234 . S
C1587 H1559 0.929 . S
C1587 C1590 1.391 . S
C1587 C1592 1.391 . S
C1588 H1560 0.929 . S
C1588 C1589 1.390 . S
C1588 N1591 1.391 . S
C1589 H1561 0.930 . S
C1589 C1588 1.390 . S
C1589 C1590 1.392 . S
C1590 H1562 0.929 . S
C1590 C1587 1.391 . S
C1590 C1589 1.392 . S
N1591 Co1535 2.257 . S
N1591 C1588 1.391 . S
N1591 C1592 1.388 . S
C1592 H1563 0.930 . S
C1592 C1587 1.391 . S
C1592 N1591 1.388 . S
Co1593 O1595 2.143 . S
Co1593 O1601 2.074 . S
Co1593 O1604 2.093 . S
Co1593 O1617 2.097 . S
Co1593 N1634 2.151 . S
Co1593 N1642 2.214 . S
Co1594 O1595 2.160 . S
Co1594 O1600 2.058 . S
Co1594 O1610 2.057 . S
Co1594 O1625 2.037 . S
Co1594 N1629 2.145 . S
Co1594 N1650 2.257 . S
O1595 Co1593 2.143 . S
O1595 Co1594 2.160 . S
C1596 O1597 1.278 . S
C1596 O1604 1.224 . S
O1597 C1596 1.278 . S
C1598 O1599 1.245 . S
C1598 O1610 1.232 . S
O1599 C1598 1.245 . S
O1600 Co1594 2.058 . S
O1600 C1626 1.269 . S
O1601 Co1593 2.074 . S
O1601 C1626 1.257 . S
H1602 C1627 0.930 . S
H1603 C1633 0.930 . S
O1604 Co1593 2.093 . S
O1604 C1596 1.224 . S
H1605 C1637 0.929 . S
H1606 C1639 0.930 . S
H1607 C1640 0.930 . S
H1608 C1638 0.929 . S
H1609 C1641 0.928 . S
O1610 Co1594 2.057 . S
O1610 C1598 1.232 . S
H1611 C1630 0.929 . S
H1612 C1631 0.929 . S
H1613 C1643 0.931 . S
H1614 C1635 0.929 . S
H1615 C1644 0.930 . S
H1616 C1636 0.931 . S
O1617 Co1593 2.097 . S
O1617 C1645 1.214 . S
H1618 C1646 0.929 . S
H1619 C1647 0.929 . S
H1620 C1648 0.930 . S
H1621 C1649 0.929 . S
H1622 C1651 0.930 . S
H1623 C1628 0.930 . S
H1624 C1632 0.930 . S
O1625 Co1594 2.037 . S
O1625 C1645 1.234 . S
C1626 O1600 1.269 . S
C1626 O1601 1.257 . S
C1627 H1602 0.930 . S
C1627 C1630 1.388 . S
C1627 C1632 1.418 . S
C1628 H1623 0.930 . S
C1628 C1631 1.404 . S
C1628 C1632 1.353 . S
N1629 Co1594 2.145 . S
N1629 C1630 1.397 . S
N1629 C1631 1.334 . S
C1630 H1611 0.929 . S
C1630 C1627 1.388 . S
C1630 N1629 1.397 . S
C1631 H1612 0.929 . S
C1631 C1628 1.404 . S
C1631 N1629 1.334 . S
C1632 H1624 0.930 . S
C1632 C1627 1.418 . S
C1632 C1628 1.353 . S
C1633 H1603 0.930 . S
C1633 N1634 1.330 . S
C1633 C1635 1.446 . S
N1634 Co1593 2.151 . S
N1634 C1633 1.330 . S
N1634 C1638 1.418 . S
C1635 H1614 0.929 . S
C1635 C1633 1.446 . S
C1635 C1636 1.332 . S
C1636 H1616 0.931 . S
C1636 C1635 1.332 . S
C1636 C1637 1.267 . S
C1637 H1605 0.929 . S
C1637 C1636 1.267 . S
C1637 C1638 1.251 . S
C1638 H1608 0.929 . S
C1638 N1634 1.418 . S
C1638 C1637 1.251 . S
C1639 H1606 0.930 . S
C1639 C1641 1.406 . S
C1639 C1644 1.261 . S
C1640 H1607 0.930 . S
C1640 N1642 1.325 . S
C1640 C1643 1.357 . S
C1641 H1609 0.928 . S
C1641 C1639 1.406 . S
C1641 N1642 1.261 . S
N1642 Co1593 2.214 . S
N1642 C1640 1.325 . S
N1642 C1641 1.261 . S
C1643 H1613 0.931 . S
C1643 C1640 1.357 . S
C1643 C1644 1.312 . S
C1644 H1615 0.930 . S
C1644 C1639 1.261 . S
C1644 C1643 1.312 . S
C1645 O1617 1.214 . S
C1645 O1625 1.234 . S
C1646 H1618 0.929 . S
C1646 C1649 1.391 . S
C1646 C1651 1.391 . S
C1647 H1619 0.929 . S
C1647 C1648 1.390 . S
C1647 N1650 1.391 . S
C1648 H1620 0.930 . S
C1648 C1647 1.390 . S
C1648 C1649 1.392 . S
C1649 H1621 0.929 . S
C1649 C1646 1.391 . S
C1649 C1648 1.392 . S
N1650 Co1594 2.257 . S
N1650 C1647 1.391 . S
N1650 C1651 1.388 . S
C1651 H1622 0.930 . S
C1651 C1646 1.391 . S
C1651 N1650 1.388 . S
Co1652 O1654 2.143 . S
Co1652 O1660 2.074 1_554 S
Co1652 O1663 2.093 . S
Co1652 O1676 2.097 . S
Co1652 N1693 2.151 . S
Co1652 N1701 2.214 . S
Co1653 O1654 2.160 . S
Co1653 O1659 2.058 1_554 S
Co1653 O1669 2.057 . S
Co1653 O1684 2.037 . S
Co1653 N1688 2.145 1_554 S
Co1653 N1709 2.257 . S
O1654 Co1652 2.143 . S
O1654 Co1653 2.160 . S
C1655 O1656 1.278 . S
C1655 O1663 1.224 . S
O1656 C1655 1.278 . S
C1657 O1658 1.245 . S
C1657 O1669 1.232 . S
O1658 C1657 1.245 . S
O1659 Co1653 2.058 1_556 S
O1659 C1685 1.269 . S
O1660 Co1652 2.074 1_556 S
O1660 C1685 1.257 . S
H1661 C1686 0.930 . S
H1662 C1692 0.930 . S
O1663 Co1652 2.093 . S
O1663 C1655 1.224 . S
H1664 C1696 0.929 . S
H1665 C1698 0.930 . S
H1666 C1699 0.930 1_556 S
H1667 C1697 0.929 . S
H1668 C1700 0.928 . S
O1669 Co1653 2.057 . S
O1669 C1657 1.232 . S
H1670 C1689 0.929 . S
H1671 C1690 0.929 . S
H1672 C1702 0.931 . S
H1673 C1694 0.929 . S
H1674 C1703 0.930 . S
H1675 C1695 0.931 . S
O1676 Co1652 2.097 . S
O1676 C1704 1.214 . S
H1677 C1705 0.929 . S
H1678 C1706 0.929 . S
H1679 C1707 0.930 . S
H1680 C1708 0.929 . S
H1681 C1710 0.930 . S
H1682 C1687 0.930 . S
H1683 C1691 0.930 . S
O1684 Co1653 2.037 . S
O1684 C1704 1.234 . S
C1685 O1659 1.269 . S
C1685 O1660 1.257 . S
C1686 H1661 0.930 . S
C1686 C1689 1.388 . S
C1686 C1691 1.418 . S
C1687 H1682 0.930 . S
C1687 C1690 1.404 . S
C1687 C1691 1.353 . S
N1688 Co1653 2.145 1_556 S
N1688 C1689 1.397 . S
N1688 C1690 1.334 . S
C1689 H1670 0.929 . S
C1689 C1686 1.388 . S
C1689 N1688 1.397 . S
C1690 H1671 0.929 . S
C1690 C1687 1.404 . S
C1690 N1688 1.334 . S
C1691 H1683 0.930 . S
C1691 C1686 1.418 . S
C1691 C1687 1.353 . S
C1692 H1662 0.930 . S
C1692 N1693 1.330 . S
C1692 C1694 1.446 . S
N1693 Co1652 2.151 . S
N1693 C1692 1.330 . S
N1693 C1697 1.418 . S
C1694 H1673 0.929 . S
C1694 C1692 1.446 . S
C1694 C1695 1.332 . S
C1695 H1675 0.931 . S
C1695 C1694 1.332 . S
C1695 C1696 1.267 . S
C1696 H1664 0.929 . S
C1696 C1695 1.267 . S
C1696 C1697 1.251 . S
C1697 H1667 0.929 . S
C1697 N1693 1.418 . S
C1697 C1696 1.251 . S
C1698 H1665 0.930 . S
C1698 C1700 1.406 . S
C1698 C1703 1.261 . S
C1699 H1666 0.930 1_554 S
C1699 N1701 1.325 . S
C1699 C1702 1.357 1_554 S
C1700 H1668 0.928 . S
C1700 C1698 1.406 . S
C1700 N1701 1.261 . S
N1701 Co1652 2.214 . S
N1701 C1699 1.325 . S
N1701 C1700 1.261 . S
C1702 H1672 0.931 . S
C1702 C1699 1.357 1_556 S
C1702 C1703 1.312 1_556 S
C1703 H1674 0.930 . S
C1703 C1698 1.261 . S
C1703 C1702 1.312 1_554 S
C1704 O1676 1.214 . S
C1704 O1684 1.234 . S
C1705 H1677 0.929 . S
C1705 C1708 1.391 . S
C1705 C1710 1.391 . S
C1706 H1678 0.929 . S
C1706 C1707 1.390 . S
C1706 N1709 1.391 . S
C1707 H1679 0.930 . S
C1707 C1706 1.390 . S
C1707 C1708 1.392 . S
C1708 H1680 0.929 . S
C1708 C1705 1.391 . S
C1708 C1707 1.392 . S
N1709 Co1653 2.257 . S
N1709 C1706 1.391 . S
N1709 C1710 1.388 . S
C1710 H1681 0.930 . S
C1710 C1705 1.391 . S
C1710 N1709 1.388 . S
Co1711 O1713 2.143 . S
Co1711 O1719 2.074 . S
Co1711 O1722 2.093 1_556 S
Co1711 O1735 2.097 . S
Co1711 N1752 2.151 . S
Co1711 N1760 2.214 . S
Co1712 O1713 2.160 . S
Co1712 O1718 2.058 . S
Co1712 O1728 2.057 . S
Co1712 O1743 2.037 . S
Co1712 N1747 2.145 . S
Co1712 N1768 2.257 . S
O1713 Co1711 2.143 . S
O1713 Co1712 2.160 . S
C1714 O1715 1.278 . S
C1714 O1722 1.224 . S
O1715 C1714 1.278 . S
C1716 O1717 1.245 . S
C1716 O1728 1.232 . S
O1717 C1716 1.245 . S
O1718 Co1712 2.058 . S
O1718 C1744 1.269 . S
O1719 Co1711 2.074 . S
O1719 C1744 1.257 . S
H1720 C1745 0.930 . S
H1721 C1751 0.930 . S
O1722 Co1711 2.093 1_554 S
O1722 C1714 1.224 . S
H1723 C1755 0.929 . S
H1724 C1757 0.930 . S
H1725 C1758 0.930 . S
H1726 C1756 0.929 . S
H1727 C1759 0.928 . S
O1728 Co1712 2.057 . S
O1728 C1716 1.232 . S
H1729 C1748 0.929 . S
H1730 C1749 0.929 . S
H1731 C1761 0.931 . S
H1732 C1753 0.920 1_554 S
H1733 C1762 0.930 . S
H1734 C1754 0.931 . S
O1735 Co1711 2.097 . S
O1735 C1763 1.214 . S
H1736 C1764 0.929 . S
H1737 C1765 0.929 . S
H1738 C1766 0.930 . S
H1739 C1767 0.929 . S
H1740 C1769 0.930 . S
H1741 C1746 0.930 . S
H1742 C1750 0.930 . S
O1743 Co1712 2.037 . S
O1743 C1763 1.234 . S
C1744 O1718 1.269 . S
C1744 O1719 1.257 . S
C1745 H1720 0.930 . S
C1745 C1748 1.388 . S
C1745 C1750 1.418 . S
C1746 H1741 0.930 . S
C1746 C1749 1.404 . S
C1746 C1750 1.353 . S
N1747 Co1712 2.145 . S
N1747 C1748 1.397 . S
N1747 C1749 1.334 . S
C1748 H1729 0.929 . S
C1748 C1745 1.388 . S
C1748 N1747 1.397 . S
C1749 H1730 0.929 . S
C1749 C1746 1.404 . S
C1749 N1747 1.334 . S
C1750 H1742 0.930 . S
C1750 C1745 1.418 . S
C1750 C1746 1.353 . S
C1751 H1721 0.930 . S
C1751 N1752 1.330 . S
C1751 C1753 1.446 . S
N1752 Co1711 2.151 . S
N1752 C1751 1.330 . S
N1752 C1756 1.418 . S
C1753 H1732 0.920 1_556 S
C1753 C1751 1.446 . S
C1753 C1754 1.332 . S
C1754 H1734 0.931 . S
C1754 C1753 1.332 . S
C1754 C1755 1.267 . S
C1755 H1723 0.929 . S
C1755 C1754 1.267 . S
C1755 C1756 1.251 . S
C1756 H1726 0.929 . S
C1756 N1752 1.418 . S
C1756 C1755 1.251 . S
C1757 H1724 0.930 . S
C1757 C1759 1.406 . S
C1757 C1762 1.261 . S
C1758 H1725 0.930 . S
C1758 N1760 1.325 . S
C1758 C1761 1.357 . S
C1759 H1727 0.928 . S
C1759 C1757 1.406 . S
C1759 N1760 1.261 . S
N1760 Co1711 2.214 . S
N1760 C1758 1.325 . S
N1760 C1759 1.261 . S
C1761 H1731 0.931 . S
C1761 C1758 1.357 . S
C1761 C1762 1.312 . S
C1762 H1733 0.930 . S
C1762 C1757 1.261 . S
C1762 C1761 1.312 . S
C1763 O1735 1.214 . S
C1763 O1743 1.234 . S
C1764 H1736 0.929 . S
C1764 C1767 1.391 . S
C1764 C1769 1.391 1_554 S
C1765 H1737 0.929 . S
C1765 C1766 1.390 . S
C1765 N1768 1.391 . S
C1766 H1738 0.930 . S
C1766 C1765 1.390 . S
C1766 C1767 1.392 1_556 S
C1767 H1739 0.929 . S
C1767 C1764 1.391 . S
C1767 C1766 1.392 1_554 S
N1768 Co1712 2.257 . S
N1768 C1765 1.391 . S
N1768 C1769 1.388 . S
C1769 H1740 0.930 . S
C1769 C1764 1.391 1_556 S
C1769 N1768 1.388 . S
Co1770 O1772 2.143 1_655 S
Co1770 O1778 2.074 . S
Co1770 O1781 2.093 . S
Co1770 O1794 2.097 . S
Co1770 N1811 2.151 . S
Co1770 N1819 2.214 . S
Co1771 O1772 2.160 . S
Co1771 O1777 2.058 . S
Co1771 O1787 2.057 . S
Co1771 O1802 2.037 . S
Co1771 N1806 2.145 . S
Co1771 N1827 2.257 . S
O1772 Co1770 2.143 1_455 S
O1772 Co1771 2.160 . S
C1773 O1774 1.278 1_655 S
C1773 O1781 1.224 . S
O1774 C1773 1.278 1_455 S
C1775 O1776 1.245 . S
C1775 O1787 1.232 . S
O1776 C1775 1.245 . S
O1777 Co1771 2.058 . S
O1777 C1803 1.269 . S
O1778 Co1770 2.074 . S
O1778 C1803 1.257 1_655 S
H1779 C1804 0.930 . S
H1780 C1810 0.930 . S
O1781 Co1770 2.093 . S
O1781 C1773 1.224 . S
H1782 C1814 0.929 . S
H1783 C1816 0.930 . S
H1784 C1817 0.930 . S
H1785 C1815 0.929 . S
H1786 C1818 0.928 . S
O1787 Co1771 2.057 . S
O1787 C1775 1.232 . S
H1788 C1807 0.929 . S
H1789 C1808 0.929 . S
H1790 C1820 0.931 . S
H1791 C1812 0.929 . S
H1792 C1821 0.930 . S
H1793 C1813 0.931 . S
O1794 Co1770 2.097 . S
O1794 C1822 1.214 1_655 S
H1795 C1823 0.929 . S
H1796 C1824 0.929 . S
H1797 C1825 0.930 . S
H1798 C1826 0.929 . S
H1799 C1828 0.930 . S
H1800 C1805 0.930 . S
H1801 C1809 0.930 . S
O1802 Co1771 2.037 . S
O1802 C1822 1.234 . S
C1803 O1777 1.269 . S
C1803 O1778 1.257 1_455 S
C1804 H1779 0.930 . S
C1804 C1807 1.388 . S
C1804 C1809 1.418 . S
C1805 H1800 0.930 . S
C1805 C1808 1.404 . S
C1805 C1809 1.353 . S
N1806 Co1771 2.145 . S
N1806 C1807 1.397 . S
N1806 C1808 1.334 . S
C1807 H1788 0.929 . S
C1807 C1804 1.388 . S
C1807 N1806 1.397 . S
C1808 H1789 0.929 . S
C1808 C1805 1.404 . S
C1808 N1806 1.334 . S
C1809 H1801 0.930 . S
C1809 C1804 1.418 . S
C1809 C1805 1.353 . S
C1810 H1780 0.930 . S
C1810 N1811 1.330 . S
C1810 C1812 1.446 . S
N1811 Co1770 2.151 . S
N1811 C1810 1.330 . S
N1811 C1815 1.418 . S
C1812 H1791 0.929 . S
C1812 C1810 1.446 . S
C1812 C1813 1.332 . S
C1813 H1793 0.931 . S
C1813 C1812 1.332 . S
C1813 C1814 1.267 . S
C1814 H1782 0.929 . S
C1814 C1813 1.267 . S
C1814 C1815 1.251 . S
C1815 H1785 0.929 . S
C1815 N1811 1.418 . S
C1815 C1814 1.251 . S
C1816 H1783 0.930 . S
C1816 C1818 1.406 . S
C1816 C1821 1.261 . S
C1817 H1784 0.930 . S
C1817 N1819 1.325 . S
C1817 C1820 1.357 . S
C1818 H1786 0.928 . S
C1818 C1816 1.406 . S
C1818 N1819 1.261 . S
N1819 Co1770 2.214 . S
N1819 C1817 1.325 . S
N1819 C1818 1.261 . S
C1820 H1790 0.931 . S
C1820 C1817 1.357 . S
C1820 C1821 1.312 . S
C1821 H1792 0.930 . S
C1821 C1816 1.261 . S
C1821 C1820 1.312 . S
C1822 O1794 1.214 1_455 S
C1822 O1802 1.234 . S
C1823 H1795 0.929 . S
C1823 C1826 1.391 . S
C1823 C1828 1.391 . S
C1824 H1796 0.929 . S
C1824 C1825 1.390 . S
C1824 N1827 1.391 . S
C1825 H1797 0.930 . S
C1825 C1824 1.390 . S
C1825 C1826 1.392 . S
C1826 H1798 0.929 . S
C1826 C1823 1.391 . S
C1826 C1825 1.392 . S
N1827 Co1771 2.257 . S
N1827 C1824 1.391 . S
N1827 C1828 1.388 . S
C1828 H1799 0.930 . S
C1828 C1823 1.391 . S
C1828 N1827 1.388 . S
Co1829 O1831 2.143 . S
Co1829 O1837 2.074 . S
Co1829 O1840 2.093 . S
Co1829 O1853 2.097 . S
Co1829 N1870 2.151 . S
Co1829 N1878 2.214 . S
Co1830 O1831 2.160 . S
Co1830 O1836 2.058 . S
Co1830 O1846 2.057 . S
Co1830 O1861 2.037 . S
Co1830 N1865 2.145 . S
Co1830 N1886 2.257 . S
O1831 Co1829 2.143 . S
O1831 Co1830 2.160 . S
C1832 O1833 1.278 . S
C1832 O1840 1.224 . S
O1833 C1832 1.278 . S
C1834 O1835 1.245 . S
C1834 O1846 1.232 . S
O1835 C1834 1.245 . S
O1836 Co1830 2.058 . S
O1836 C1862 1.269 . S
O1837 Co1829 2.074 . S
O1837 C1862 1.257 . S
H1838 C1863 0.930 . S
H1839 C1869 0.930 . S
O1840 Co1829 2.093 . S
O1840 C1832 1.224 . S
H1841 C1873 0.929 . S
H1842 C1875 0.930 . S
H1843 C1876 0.930 . S
H1844 C1874 0.929 . S
H1845 C1877 0.928 . S
O1846 Co1830 2.057 . S
O1846 C1834 1.232 . S
H1847 C1866 0.929 . S
H1848 C1867 0.929 . S
H1849 C1879 0.931 . S
H1850 C1871 0.929 . S
H1851 C1880 0.930 . S
H1852 C1872 0.931 . S
O1853 Co1829 2.097 . S
O1853 C1881 1.214 . S
H1854 C1882 0.929 . S
H1855 C1883 0.929 . S
H1856 C1884 0.930 . S
H1857 C1885 0.929 . S
H1858 C1887 0.930 . S
H1859 C1864 0.930 . S
H1860 C1868 0.930 . S
O1861 Co1830 2.037 . S
O1861 C1881 1.234 . S
C1862 O1836 1.269 . S
C1862 O1837 1.257 . S
C1863 H1838 0.930 . S
C1863 C1866 1.388 . S
C1863 C1868 1.418 . S
C1864 H1859 0.930 . S
C1864 C1867 1.404 . S
C1864 C1868 1.353 . S
N1865 Co1830 2.145 . S
N1865 C1866 1.397 . S
N1865 C1867 1.334 . S
C1866 H1847 0.929 . S
C1866 C1863 1.388 . S
C1866 N1865 1.397 . S
C1867 H1848 0.929 . S
C1867 C1864 1.404 . S
C1867 N1865 1.334 . S
C1868 H1860 0.930 . S
C1868 C1863 1.418 . S
C1868 C1864 1.353 . S
C1869 H1839 0.930 . S
C1869 N1870 1.330 . S
C1869 C1871 1.446 . S
N1870 Co1829 2.151 . S
N1870 C1869 1.330 . S
N1870 C1874 1.418 . S
C1871 H1850 0.929 . S
C1871 C1869 1.446 . S
C1871 C1872 1.332 . S
C1872 H1852 0.931 . S
C1872 C1871 1.332 . S
C1872 C1873 1.267 . S
C1873 H1841 0.929 . S
C1873 C1872 1.267 . S
C1873 C1874 1.251 . S
C1874 H1844 0.929 . S
C1874 N1870 1.418 . S
C1874 C1873 1.251 . S
C1875 H1842 0.930 . S
C1875 C1877 1.406 . S
C1875 C1880 1.261 . S
C1876 H1843 0.930 . S
C1876 N1878 1.325 . S
C1876 C1879 1.357 . S
C1877 H1845 0.928 . S
C1877 C1875 1.406 . S
C1877 N1878 1.261 . S
N1878 Co1829 2.214 . S
N1878 C1876 1.325 . S
N1878 C1877 1.261 . S
C1879 H1849 0.931 . S
C1879 C1876 1.357 . S
C1879 C1880 1.312 . S
C1880 H1851 0.930 . S
C1880 C1875 1.261 . S
C1880 C1879 1.312 . S
C1881 O1853 1.214 . S
C1881 O1861 1.234 . S
C1882 H1854 0.929 . S
C1882 C1885 1.391 . S
C1882 C1887 1.391 . S
C1883 H1855 0.929 . S
C1883 C1884 1.390 . S
C1883 N1886 1.391 . S
C1884 H1856 0.930 . S
C1884 C1883 1.390 . S
C1884 C1885 1.392 . S
C1885 H1857 0.929 . S
C1885 C1882 1.391 . S
C1885 C1884 1.392 . S
N1886 Co1830 2.257 . S
N1886 C1883 1.391 . S
N1886 C1887 1.388 . S
C1887 H1858 0.930 . S
C1887 C1882 1.391 . S
C1887 N1886 1.388 . S
C711 C33 1.413 . S
C1714 C92 1.412 . S
C829 C151 1.413 . S
C1832 C210 1.412 . S
C475 C269 1.413 . S
C328 C1478 1.412 . S
C387 C593 1.413 . S
C1596 C446 1.412 . S
C239 C505 1.413 . S
C1242 C564 1.412 . S
C357 C623 1.413 . S
C1360 C682 1.412 . S
C741 C3 1.413 . S
C800 C1006 1.412 . S
C121 C859 1.413 . S
C918 C1124 1.412 . S
C1655 C977 1.413 . S
C770 C1036 1.412 . S
C1773 C1095 1.413 . S
C1154 C888 1.412 . S
C1213 C1419 1.413 . S
C1272 C534 1.412 . S
C1537 C1331 1.413 . S
C652 C1390 1.412 . S
C1183 C1449 1.413 . S
C1508 C298 1.412 . S
C1567 C1301 1.413 . S
C1626 C416 1.412 . S
C947 C1685 1.413 . S
C62 C1744 1.412 . S
C1065 C1803 1.413 . S
C1862 C180 1.412 . S
C52 C524 1.805 1_444 S
C111 C1527 1.804 . S
C642 C170 1.805 1_545 S
C229 C1645 1.804 . S
C288 C760 1.805 1_465 S
C1763 C347 1.804 . S
C878 C406 1.805 1_564 S
C465 C1881 1.804 . S
C583 C1055 1.804 . S
C701 C1173 1.804 . S
C819 C1291 1.804 . S
C1409 C937 1.804 . S
C996 C1468 1.805 . S
C1114 C1586 1.805 1_654 S
C1232 C1704 1.805 1_556 S
C1822 C1350 1.805 1_455 S
C5 C418 1.619 . S
C64 C241 1.619 . S
C300 C123 1.619 . S
C359 C182 1.619 . S
C890 C477 1.619 . S
C713 C536 1.619 . S
C772 C595 1.619 . S
C831 C654 1.619 . S
C949 C1362 1.619 . S
C1185 C1008 1.619 . S
C1244 C1067 1.619 . S
C1303 C1126 1.619 . S
C1834 C1421 1.619 . S
C1480 C1657 1.619 . S
C1539 C1716 1.619 . S
C1775 C1598 1.619 . S
