# Generated by pormake.
# Topology fnr, (5)-cn, num edge types: 1
# Building blocks:
#     Node 0, Type 0, BuildingBlock: BEQFEK_clean_sbu_0, # of connection points: 5
#     Node 1, Type 0, BuildingBlock: BEQFEK_clean_sbu_0, # of connection points: 5
#     Node 2, Type 0, BuildingBlock: BEQFEK_clean_sbu_0, # of connection points: 5
#     Node 3, Type 0, BuildingBlock: BEQFEK_clean_sbu_0, # of connection points: 5
#     Node 4, Type 0, BuildingBlock: BEQFEK_clean_sbu_0, # of connection points: 5
#     Node 5, Type 0, BuildingBlock: BEQFEK_clean_sbu_0, # of connection points: 5
#     Node 6, Type 0, BuildingBlock: BEQFEK_clean_sbu_0, # of connection points: 5
#     Node 7, Type 0, BuildingBlock: BEQFEK_clean_sbu_0, # of connection points: 5
#     Node 8, Type 0, BuildingBlock: BEQFEK_clean_sbu_0, # of connection points: 5
#     Node 9, Type 0, BuildingBlock: BEQFEK_clean_sbu_0, # of connection points: 5
#     Node 10, Type 0, BuildingBlock: BEQFEK_clean_sbu_0, # of connection points: 5
#     Node 11, Type 0, BuildingBlock: BEQFEK_clean_sbu_0, # of connection points: 5
#     Edge 12, Type (0, 0), BuildingBlock: KIFKEQ_clean_linker_1, # of connection points: 2
#     Edge 13, Type (0, 0), BuildingBlock: KIFKEQ_clean_linker_1, # of connection points: 2
#     Edge 14, Type (0, 0), BuildingBlock: KIFKEQ_clean_linker_1, # of connection points: 2
#     Edge 15, Type (0, 0), BuildingBlock: KIFKEQ_clean_linker_1, # of connection points: 2
#     Edge 16, Type (0, 0), BuildingBlock: KIFKEQ_clean_linker_1, # of connection points: 2
#     Edge 17, Type (0, 0), BuildingBlock: KIFKEQ_clean_linker_1, # of connection points: 2
#     Edge 18, Type (0, 0), BuildingBlock: KIFKEQ_clean_linker_1, # of connection points: 2
#     Edge 19, Type (0, 0), BuildingBlock: KIFKEQ_clean_linker_1, # of connection points: 2
#     Edge 20, Type (0, 0), BuildingBlock: KIFKEQ_clean_linker_1, # of connection points: 2
#     Edge 21, Type (0, 0), BuildingBlock: KIFKEQ_clean_linker_1, # of connection points: 2
#     Edge 22, Type (0, 0), BuildingBlock: KIFKEQ_clean_linker_1, # of connection points: 2
#     Edge 23, Type (0, 0), BuildingBlock: KIFKEQ_clean_linker_1, # of connection points: 2
#     Edge 24, Type (0, 0), BuildingBlock: KIFKEQ_clean_linker_1, # of connection points: 2
#     Edge 25, Type (0, 0), BuildingBlock: KIFKEQ_clean_linker_1, # of connection points: 2
#     Edge 26, Type (0, 0), BuildingBlock: KIFKEQ_clean_linker_1, # of connection points: 2
#     Edge 27, Type (0, 0), BuildingBlock: KIFKEQ_clean_linker_1, # of connection points: 2
#     Edge 28, Type (0, 0), BuildingBlock: KIFKEQ_clean_linker_1, # of connection points: 2
#     Edge 29, Type (0, 0), BuildingBlock: KIFKEQ_clean_linker_1, # of connection points: 2
#     Edge 30, Type (0, 0), BuildingBlock: KIFKEQ_clean_linker_1, # of connection points: 2
#     Edge 31, Type (0, 0), BuildingBlock: KIFKEQ_clean_linker_1, # of connection points: 2
#     Edge 32, Type (0, 0), BuildingBlock: KIFKEQ_clean_linker_1, # of connection points: 2
#     Edge 33, Type (0, 0), BuildingBlock: KIFKEQ_clean_linker_1, # of connection points: 2
#     Edge 34, Type (0, 0), BuildingBlock: KIFKEQ_clean_linker_1, # of connection points: 2
#     Edge 35, Type (0, 0), BuildingBlock: KIFKEQ_clean_linker_1, # of connection points: 2
#     Edge 36, Type (0, 0), BuildingBlock: KIFKEQ_clean_linker_1, # of connection points: 2
#     Edge 37, Type (0, 0), BuildingBlock: KIFKEQ_clean_linker_1, # of connection points: 2
#     Edge 38, Type (0, 0), BuildingBlock: KIFKEQ_clean_linker_1, # of connection points: 2
#     Edge 39, Type (0, 0), BuildingBlock: KIFKEQ_clean_linker_1, # of connection points: 2
#     Edge 40, Type (0, 0), BuildingBlock: KIFKEQ_clean_linker_1, # of connection points: 2
#     Edge 41, Type (0, 0), BuildingBlock: KIFKEQ_clean_linker_1, # of connection points: 2
# Relax obj value: 0.143
# Max RMSD: 0.110
# Mean RMSD: 0.110
data_MOF--net-fnr--node1-BEQFEK_clean_sbu_0--edge1-KIFKEQ_clean_linker_1
_symmetry_space_group_name_H-M    P1
_symmetry_Int_Tables_number       1
_symmetry_cell_setting            triclinic
loop_
_symmetry_equiv_pos_as_xyz
'x, y, z'
_cell_length_a     45.250774
_cell_length_b     45.242242
_cell_length_c     48.232576
_cell_angle_alpha  90.039276
_cell_angle_beta   90.052265
_cell_angle_gamma 120.03877
loop_
_atom_site_label
_atom_site_type_symbol
_atom_site_fract_x
_atom_site_fract_y
_atom_site_fract_z
_atom_type_partial_charge
Co0 Co 0.46718 0.27817 0.10847 0.0
Co1 Co 0.40669 0.20323 0.09917 0.0
C2 C 0.47889 0.22223 0.08762 0.0
O3 O 0.48914 0.25318 0.09383 0.0
O4 O 0.44743 0.19965 0.08889 0.0
C5 C 0.52055 0.33979 0.08662 0.0
O6 O 0.51028 0.32189 0.06358 0.0
C7 C 0.36362 0.13811 0.07077 0.0
C8 C 0.31337 0.11971 0.09051 0.0
C9 C 0.33006 0.11158 0.07047 0.0
N10 N 0.36673 0.16084 0.09018 0.0
N11 N 0.33663 0.14958 0.10204 0.0
C12 C 0.39161 0.14343 0.05131 0.0
H13 H 0.40737 0.17091 0.0461 0.0
H14 H 0.38122 0.12844 0.03196 0.0
H15 H 0.40825 0.13523 0.06163 0.0
C16 C 0.42244 0.29376 0.07377 0.0
N17 N 0.43001 0.27158 0.086 0.0
N18 N 0.4054 0.24018 0.0809 0.0
C19 C 0.38173 0.24148 0.06467 0.0
C20 C 0.39172 0.27548 0.05966 0.0
C21 C 0.44242 0.33164 0.07781 0.0
H22 H 0.45508 0.33794 0.09838 0.0
H23 H 0.46221 0.34316 0.06146 0.0
H24 H 0.42563 0.34293 0.07623 0.0
O25 O 0.45182 0.26188 0.14677 0.0
O26 O 0.40812 0.20933 0.14022 0.0
H27 H 0.33162 0.19897 0.07065 0.0
H28 H 0.33877 0.21755 0.03646 0.0
C29 C 0.35052 0.21077 0.05369 0.0
H30 H 0.35729 0.19181 0.04607 0.0
H31 H 0.33186 0.16257 0.1177 0.0
O32 O 0.50449 0.32656 0.109 0.0
C33 C 0.42792 0.2337 0.15631 0.0
Co34 Co 0.19546 0.46255 0.6115 0.0
Co35 Co 0.21349 0.40497 0.59853 0.0
C36 C 0.26476 0.47812 0.59039 0.0
O37 O 0.24328 0.48657 0.59846 0.0
O38 O 0.25682 0.44695 0.58887 0.0
C39 C 0.18675 0.51547 0.59015 0.0
O40 O 0.19482 0.5053 0.56731 0.0
C41 C 0.23948 0.36332 0.5722 0.0
C42 C 0.20036 0.31115 0.58453 0.0
C43 C 0.22966 0.32906 0.56874 0.0
N44 N 0.21646 0.36536 0.58856 0.0
N45 N 0.19347 0.33409 0.59618 0.0
C46 C 0.27163 0.39384 0.5623 0.0
H47 H 0.28392 0.4117 0.57985 0.0
H48 H 0.26534 0.40718 0.54606 0.0
H49 H 0.29026 0.38693 0.55416 0.0
C50 C 0.13693 0.41905 0.57485 0.0
N51 N 0.16665 0.4267 0.58721 0.0
N52 N 0.17485 0.40348 0.58052 0.0
C53 C 0.15093 0.38088 0.56291 0.0
C54 C 0.12606 0.38991 0.55887 0.0
C55 C 0.11755 0.43723 0.58043 0.0
H56 H 0.12347 0.44863 0.60147 0.0
H57 H 0.12491 0.45786 0.56493 0.0
H58 H 0.08963 0.41947 0.57864 0.0
O59 O 0.19439 0.44434 0.64906 0.0
O60 O 0.20871 0.40491 0.63972 0.0
H61 H 0.14165 0.32975 0.56372 0.0
H62 H 0.13697 0.34386 0.52999 0.0
C63 C 0.15229 0.35183 0.54936 0.0
H64 H 0.17905 0.35932 0.54442 0.0
H65 H 0.17263 0.32836 0.6089 0.0
O66 O 0.1836 0.49934 0.61259 0.0
C67 C 0.20113 0.42146 0.65701 0.0
Co68 Co 0.73608 0.18885 0.10976 0.0
Co69 Co 0.81211 0.20653 0.09895 0.0
C70 C 0.79177 0.25909 0.09215 0.0
O71 O 0.76161 0.23751 0.0996 0.0
O72 O 0.81453 0.25061 0.08977 0.0
C73 C 0.67906 0.18559 0.08545 0.0
O74 O 0.7016 0.19801 0.06532 0.0
C75 C 0.88068 0.23316 0.07445 0.0
C76 C 0.89331 0.1937 0.08657 0.0
C77 C 0.90521 0.22345 0.0713 0.0
N78 N 0.85506 0.20966 0.09011 0.0
N79 N 0.86309 0.18646 0.09765 0.0
C80 C 0.88273 0.26565 0.06499 0.0
H81 H 0.87729 0.27772 0.08276 0.0
H82 H 0.86319 0.25985 0.04873 0.0
H83 H 0.90838 0.28429 0.05702 0.0
C84 C 0.72234 0.13191 0.07205 0.0
N85 N 0.7442 0.16117 0.08511 0.0
N86 N 0.77576 0.16902 0.07942 0.0
C87 C 0.77482 0.14528 0.06185 0.0
C88 C 0.74095 0.12089 0.05674 0.0
C89 C 0.68453 0.11305 0.07654 0.0
H90 H 0.6785 0.11775 0.09779 0.0
H91 H 0.67245 0.12225 0.06142 0.0
H92 H 0.67358 0.08518 0.07347 0.0
O93 O 0.75082 0.18584 0.14761 0.0
O94 O 0.80484 0.19965 0.14004 0.0
H95 H 0.81593 0.13503 0.06453 0.0
H96 H 0.79901 0.13111 0.03009 0.0
C97 C 0.8056 0.14618 0.04957 0.0
H98 H 0.8255 0.17288 0.04512 0.0
H99 H 0.84755 0.16524 0.10986 0.0
O100 O 0.68752 0.17747 0.10815 0.0
C101 C 0.77987 0.19182 0.15652 0.0
Co102 Co 0.55714 0.73733 0.61159 0.0
Co103 Co 0.61513 0.81234 0.59822 0.0
C104 C 0.54314 0.79369 0.59356 0.0
O105 O 0.53491 0.76403 0.60221 0.0
O106 O 0.5742 0.81599 0.58926 0.0
C107 C 0.50091 0.68158 0.58873 0.0
O108 O 0.51033 0.70456 0.569 0.0
C109 C 0.65801 0.87711 0.56943 0.0
C110 C 0.70839 0.89552 0.58907 0.0
C111 C 0.69158 0.90356 0.56907 0.0
N112 N 0.655 0.85446 0.58883 0.0
N113 N 0.68516 0.86573 0.60064 0.0
C114 C 0.62979 0.87205 0.55032 0.0
H115 H 0.61333 0.84452 0.54548 0.0
H116 H 0.64001 0.88659 0.53078 0.0
H117 H 0.61391 0.88109 0.56074 0.0
C118 C 0.5986 0.72146 0.57383 0.0
N119 N 0.5915 0.74399 0.58598 0.0
N120 N 0.61535 0.77521 0.57954 0.0
C121 C 0.63813 0.77345 0.56254 0.0
C122 C 0.62835 0.73932 0.55851 0.0
C123 C 0.57756 0.68358 0.57755 0.0
H124 H 0.55373 0.67387 0.56531 0.0
H125 H 0.591 0.67019 0.57031 0.0
H126 H 0.57048 0.67752 0.59969 0.0
O127 O 0.57699 0.75233 0.64899 0.0
O128 O 0.6153 0.80644 0.6393 0.0
H129 H 0.68769 0.81582 0.57069 0.0
H130 H 0.68379 0.79668 0.53717 0.0
C131 C 0.67043 0.8038 0.55274 0.0
H132 H 0.66459 0.82277 0.54357 0.0
H133 H 0.68998 0.85283 0.61634 0.0
O134 O 0.51897 0.68916 0.61066 0.0
C135 C 0.59983 0.78217 0.65669 0.0
Co136 Co 0.82944 0.55294 0.11255 0.0
Co137 Co 0.81226 0.6107 0.09919 0.0
C138 C 0.75977 0.53798 0.09234 0.0
O139 O 0.78136 0.52972 0.10051 0.0
O140 O 0.76799 0.56917 0.08984 0.0
C141 C 0.83783 0.50002 0.09086 0.0
O142 O 0.83062 0.51083 0.06795 0.0
C143 C 0.78899 0.65315 0.07114 0.0
C144 C 0.82418 0.70437 0.0882 0.0
C145 C 0.79724 0.68705 0.06993 0.0
N146 N 0.80998 0.65047 0.08942 0.0
N147 N 0.83081 0.68115 0.09967 0.0
C148 C 0.76366 0.62428 0.05354 0.0
H149 H 0.77409 0.60762 0.04751 0.0
H150 H 0.75716 0.63373 0.03458 0.0
H151 H 0.74004 0.6088 0.06573 0.0
C152 C 0.88832 0.59604 0.0764 0.0
N153 N 0.85836 0.58837 0.08818 0.0
N154 N 0.85017 0.61141 0.08099 0.0
C155 C 0.87419 0.63384 0.06347 0.0
C156 C 0.89933 0.62497 0.06007 0.0
C157 C 0.90795 0.57844 0.08337 0.0
H158 H 0.90105 0.56704 0.10436 0.0
H159 H 0.90175 0.55783 0.06806 0.0
H160 H 0.93585 0.59659 0.08261 0.0
O161 O 0.83087 0.57108 0.14988 0.0
O162 O 0.8179 0.61145 0.14053 0.0
H163 H 0.88183 0.6844 0.06436 0.0
H164 H 0.88868 0.67125 0.03078 0.0
C165 C 0.87261 0.66265 0.0497 0.0
H166 H 0.84591 0.65448 0.04389 0.0
H167 H 0.84993 0.68632 0.11418 0.0
O168 O 0.84054 0.51573 0.11345 0.0
C169 C 0.82492 0.59448 0.15785 0.0
Co170 Co 0.28322 0.82524 0.61069 0.0
Co171 Co 0.20743 0.80713 0.59922 0.0
C172 C 0.22884 0.75518 0.59186 0.0
O173 O 0.25896 0.77703 0.59928 0.0
O174 O 0.20568 0.76321 0.5899 0.0
C175 C 0.34392 0.83209 0.58939 0.0
O176 O 0.32453 0.82093 0.56717 0.0
C177 C 0.14164 0.78361 0.57061 0.0
C178 C 0.12316 0.81536 0.59046 0.0
C179 C 0.11514 0.79082 0.57013 0.0
N180 N 0.16453 0.80357 0.58987 0.0
N181 N 0.15313 0.82223 0.60182 0.0
C182 C 0.14406 0.7562 0.55511 0.0
H183 H 0.14661 0.7392 0.57023 0.0
H184 H 0.16726 0.76794 0.54193 0.0
H185 H 0.12117 0.74015 0.54235 0.0
C186 C 0.29723 0.88352 0.57429 0.0
N187 N 0.27548 0.85352 0.5864 0.0
N188 N 0.24388 0.84554 0.58066 0.0
C189 C 0.24463 0.86998 0.56408 0.0
C190 C 0.27845 0.89494 0.55966 0.0
C191 C 0.33528 0.90091 0.577 0.0
H192 H 0.34236 0.89852 0.59856 0.0
H193 H 0.34498 0.88834 0.56291 0.0
H194 H 0.34794 0.92822 0.57121 0.0
O195 O 0.26712 0.82674 0.64835 0.0
O196 O 0.2133 0.81319 0.6404 0.0
H197 H 0.20157 0.87563 0.57302 0.0
H198 H 0.21989 0.89156 0.53947 0.0
C199 C 0.2136 0.871 0.55479 0.0
H200 H 0.19498 0.84607 0.54552 0.0
H201 H 0.16603 0.83994 0.61756 0.0
O202 O 0.33189 0.83764 0.61134 0.0
C203 C 0.238 0.82063 0.65708 0.0
Co204 Co 0.73599 0.55232 0.40781 0.0
Co205 Co 0.81201 0.61076 0.41845 0.0
C206 C 0.79176 0.5374 0.42344 0.0
O207 O 0.76124 0.52868 0.41705 0.0
O208 O 0.81459 0.56869 0.42546 0.0
C209 C 0.67893 0.49846 0.4317 0.0
O210 O 0.70156 0.50827 0.4518 0.0
C211 C 0.87567 0.65407 0.44984 0.0
C212 C 0.90052 0.70026 0.42371 0.0
C213 C 0.90478 0.68623 0.44789 0.0
N214 N 0.85524 0.64967 0.42801 0.0
N215 N 0.87029 0.67743 0.41252 0.0
C216 C 0.86777 0.62743 0.47153 0.0
H217 H 0.84748 0.60204 0.46461 0.0
H218 H 0.85841 0.63396 0.4905 0.0
H219 H 0.89103 0.62627 0.47687 0.0
C220 C 0.72271 0.59508 0.44644 0.0
N221 N 0.74436 0.58756 0.43326 0.0
N222 N 0.77597 0.61173 0.43828 0.0
C223 C 0.77534 0.63534 0.45503 0.0
C224 C 0.74155 0.62547 0.46083 0.0
C225 C 0.68477 0.57577 0.44259 0.0
H226 H 0.67825 0.56534 0.42125 0.0
H227 H 0.67334 0.55423 0.45749 0.0
H228 H 0.67356 0.59232 0.4464 0.0
O229 O 0.75064 0.57123 0.37014 0.0
O230 O 0.80451 0.61206 0.37765 0.0
H231 H 0.82016 0.68322 0.44668 0.0
H232 H 0.80008 0.68188 0.47948 0.0
C233 C 0.80646 0.66705 0.46479 0.0
H234 H 0.82374 0.65999 0.47539 0.0
H235 H 0.86002 0.6807 0.39418 0.0
O236 O 0.68737 0.51527 0.40914 0.0
C237 C 0.77937 0.59498 0.36126 0.0
Co238 Co 0.1965 0.73682 0.90982 0.0
Co239 Co 0.21012 0.81172 0.9184 0.0
C240 C 0.26487 0.79464 0.92783 0.0
O241 O 0.24426 0.76335 0.92268 0.0
O242 O 0.25565 0.81691 0.92649 0.0
C243 C 0.19386 0.67948 0.93371 0.0
O244 O 0.20582 0.70142 0.95432 0.0
C245 C 0.23258 0.87734 0.94591 0.0
C246 C 0.19863 0.89414 0.92766 0.0
C247 C 0.2248 0.90332 0.94665 0.0
N248 N 0.21211 0.85392 0.92723 0.0
N249 N 0.19201 0.86421 0.91625 0.0
C250 C 0.25672 0.87309 0.96447 0.0
H251 H 0.24588 0.84577 0.96992 0.0
H252 H 0.262 0.88834 0.98374 0.0
H253 H 0.28111 0.88168 0.9533 0.0
C254 C 0.13787 0.72133 0.94601 0.0
N255 N 0.16704 0.74367 0.93322 0.0
N256 N 0.17374 0.77499 0.93842 0.0
C257 C 0.14937 0.7735 0.95547 0.0
C258 C 0.12568 0.7394 0.96077 0.0
C259 C 0.12013 0.6835 0.94155 0.0
H260 H 0.12576 0.67769 0.92054 0.0
H261 H 0.12943 0.67198 0.9571 0.0
H262 H 0.09208 0.67179 0.94387 0.0
O263 O 0.19448 0.75141 0.87141 0.0
O264 O 0.20241 0.8037 0.87771 0.0
H265 H 0.14012 0.81511 0.95063 0.0
H266 H 0.13226 0.79753 0.98524 0.0
C267 C 0.14916 0.80416 0.96688 0.0
H268 H 0.17537 0.82374 0.97304 0.0
H269 H 0.17336 0.8505 0.90133 0.0
O270 O 0.18606 0.6885 0.91114 0.0
C271 C 0.19728 0.77899 0.86181 0.0
Co272 Co 0.46922 0.19281 0.41094 0.0
Co273 Co 0.40792 0.20665 0.41794 0.0
C274 C 0.47987 0.26102 0.42923 0.0
O275 O 0.49052 0.2405 0.42374 0.0
O276 O 0.4483 0.25157 0.4278 0.0
C277 C 0.52492 0.1916 0.43467 0.0
O278 O 0.51623 0.20551 0.45466 0.0
C279 C 0.36499 0.2273 0.44746 0.0
C280 C 0.31671 0.2023 0.4238 0.0
C281 C 0.33254 0.22324 0.44644 0.0
N282 N 0.36831 0.20979 0.42636 0.0
N283 N 0.3394 0.19499 0.41218 0.0
C284 C 0.39174 0.24555 0.46917 0.0
H285 H 0.40696 0.23271 0.47214 0.0
H286 H 0.38006 0.24637 0.48917 0.0
H287 H 0.40921 0.27212 0.46222 0.0
C288 C 0.42445 0.13371 0.44658 0.0
N289 N 0.43201 0.16314 0.4338 0.0
N290 N 0.40663 0.16915 0.43725 0.0
C291 C 0.3821 0.14368 0.45251 0.0
C292 C 0.39254 0.12032 0.45889 0.0
C293 C 0.44764 0.11901 0.44697 0.0
H294 H 0.45651 0.11857 0.42562 0.0
H295 H 0.47031 0.13556 0.45984 0.0
H296 H 0.43527 0.09299 0.4559 0.0
O297 O 0.45356 0.19143 0.37206 0.0
O298 O 0.40966 0.2003 0.37731 0.0
H299 H 0.33565 0.14005 0.4384 0.0
H300 H 0.33081 0.11609 0.46951 0.0
C301 C 0.34794 0.14003 0.45828 0.0
H302 H 0.35138 0.16214 0.47075 0.0
H303 H 0.3351 0.17974 0.39471 0.0
O304 O 0.50684 0.18192 0.41271 0.0
C305 C 0.42945 0.195 0.36187 0.0
Co306 Co 0.28193 0.46269 0.90922 0.0
Co307 Co 0.20663 0.40378 0.92043 0.0
C308 C 0.22631 0.47628 0.92907 0.0
O309 O 0.2566 0.48544 0.92157 0.0
O310 O 0.20348 0.4449 0.93008 0.0
C311 C 0.33954 0.51786 0.93179 0.0
O312 O 0.31743 0.50904 0.95215 0.0
C313 C 0.14331 0.36157 0.95093 0.0
C314 C 0.12073 0.31227 0.92874 0.0
C315 C 0.11537 0.32874 0.95074 0.0
N316 N 0.16412 0.36444 0.92996 0.0
N317 N 0.15042 0.33492 0.91668 0.0
C318 C 0.15154 0.3891 0.97182 0.0
H319 H 0.1796 0.40471 0.97474 0.0
H320 H 0.13915 0.37814 0.99201 0.0
H321 H 0.14218 0.40604 0.96408 0.0
C322 C 0.2971 0.41912 0.94537 0.0
N323 N 0.2749 0.42676 0.93331 0.0
N324 N 0.2435 0.4025 0.93881 0.0
C325 C 0.24483 0.37881 0.95498 0.0
C326 C 0.27884 0.38851 0.95958 0.0
C327 C 0.3351 0.44074 0.94295 0.0
H328 H 0.3439 0.46383 0.956 0.0
H329 H 0.34846 0.42724 0.95009 0.0
H330 H 0.34218 0.44904 0.92115 0.0
O331 O 0.2662 0.44471 0.87116 0.0
O332 O 0.21249 0.40423 0.87945 0.0
H333 H 0.20099 0.331 0.94477 0.0
H334 H 0.22122 0.33039 0.97679 0.0
C335 C 0.21422 0.34597 0.96354 0.0
H336 H 0.19629 0.35149 0.97498 0.0
H337 H 0.16149 0.33015 0.89955 0.0
O338 O 0.33058 0.49991 0.90977 0.0
C339 C 0.23699 0.42139 0.86263 0.0
Co340 Co 0.82783 0.27937 0.40873 0.0
Co341 Co 0.81333 0.20461 0.41831 0.0
C342 C 0.76011 0.22376 0.42959 0.0
O343 O 0.78092 0.25459 0.42323 0.0
O344 O 0.76885 0.20107 0.42846 0.0
C345 C 0.83389 0.34026 0.4297 0.0
O346 O 0.82407 0.32171 0.45238 0.0
C347 C 0.79151 0.14008 0.44729 0.0
C348 C 0.82111 0.11993 0.42622 0.0
C349 C 0.79746 0.11288 0.44706 0.0
N350 N 0.81064 0.16222 0.42741 0.0
N351 N 0.82812 0.14993 0.41476 0.0
C352 C 0.7698 0.14617 0.46722 0.0
H353 H 0.78195 0.17382 0.47206 0.0
H354 H 0.76578 0.13158 0.48669 0.0
H355 H 0.7446 0.13792 0.45751 0.0
C356 C 0.88841 0.29536 0.44322 0.0
N357 N 0.85836 0.27301 0.43143 0.0
N358 N 0.85171 0.24168 0.43651 0.0
C359 C 0.87715 0.24316 0.45222 0.0
C360 C 0.90132 0.27723 0.45689 0.0
C361 C 0.90431 0.33336 0.44132 0.0
H362 H 0.89114 0.34182 0.45595 0.0
H363 H 0.93173 0.34687 0.44691 0.0
H364 H 0.90119 0.34068 0.42004 0.0
O365 O 0.8272 0.26284 0.3705 0.0
O366 O 0.81838 0.21038 0.37735 0.0
H367 H 0.90175 0.21956 0.47438 0.0
H368 H 0.85588 0.1938 0.47089 0.0
C369 C 0.87976 0.21266 0.46042 0.0
H370 H 0.88294 0.20058 0.44153 0.0
H371 H 0.8451 0.16218 0.39849 0.0
O372 O 0.83898 0.32773 0.40782 0.0
C373 C 0.82316 0.23466 0.36115 0.0
Co374 Co 0.55638 0.82254 0.90727 0.0
Co375 Co 0.61559 0.80679 0.91943 0.0
C376 C 0.54347 0.75304 0.92629 0.0
O377 O 0.53438 0.77405 0.91832 0.0
O378 O 0.57485 0.76194 0.92849 0.0
C379 C 0.49766 0.81951 0.92775 0.0
O380 O 0.50389 0.80247 0.94666 0.0
C381 C 0.65838 0.78554 0.94892 0.0
C382 C 0.70827 0.8154 0.92813 0.0
C383 C 0.69163 0.79173 0.94896 0.0
N384 N 0.65539 0.80453 0.92891 0.0
N385 N 0.68526 0.82219 0.91644 0.0
C386 C 0.63045 0.76383 0.96876 0.0
H387 H 0.61441 0.77553 0.97293 0.0
H388 H 0.64098 0.76056 0.98857 0.0
H389 H 0.61404 0.73832 0.95932 0.0
C390 C 0.59815 0.88043 0.94454 0.0
N391 N 0.59131 0.85094 0.93227 0.0
N392 N 0.61588 0.84435 0.93799 0.0
C393 C 0.63912 0.86951 0.95438 0.0
C394 C 0.62873 0.89332 0.95894 0.0
C395 C 0.57586 0.89603 0.94197 0.0
H396 H 0.55094 0.87894 0.95192 0.0
H397 H 0.58716 0.92137 0.95212 0.0
H398 H 0.57103 0.89832 0.91973 0.0
O399 O 0.57545 0.82622 0.8695 0.0
O400 O 0.61551 0.81265 0.87858 0.0
H401 H 0.68701 0.89445 0.97707 0.0
H402 H 0.6674 0.84865 0.97336 0.0
C403 C 0.67231 0.87253 0.96294 0.0
H404 H 0.68791 0.87603 0.94422 0.0
H405 H 0.69001 0.83913 0.90012 0.0
O406 O 0.51852 0.8332 0.90777 0.0
C407 C 0.5989 0.82033 0.86144 0.0
H408 H 0.62542 0.16049 0.12207 0.0
H409 H 0.65777 0.20829 0.04174 0.0
H410 H 0.57375 0.16487 0.11855 0.0
H411 H 0.6064 0.21265 0.03839 0.0
H412 H 0.5438 0.26312 0.06924 0.0
H413 H 0.58919 0.24927 0.06581 0.0
H414 H 0.51868 0.14535 0.08997 0.0
H415 H 0.47284 0.15914 0.09321 0.0
C416 C 0.62131 0.17147 0.10353 0.0
C417 C 0.6459 0.18437 0.08233 0.0
C418 C 0.59166 0.17379 0.10146 0.0
C419 C 0.58623 0.18931 0.07827 0.0
C420 C 0.61011 0.20088 0.05661 0.0
C421 C 0.63951 0.19829 0.05855 0.0
C422 C 0.53778 0.23715 0.07336 0.0
C423 C 0.50476 0.21225 0.08156 0.0
C424 C 0.56376 0.22919 0.0713 0.0
C425 C 0.55748 0.19626 0.07774 0.0
C426 C 0.52423 0.17099 0.08508 0.0
C427 C 0.49799 0.17883 0.0867 0.0
H428 H 0.28676 0.54431 0.57684 0.0
H429 H 0.32309 0.47399 0.59303 0.0
H430 H 0.34547 0.59119 0.57397 0.0
H431 H 0.38211 0.52123 0.59029 0.0
H432 H 0.4743 0.62633 0.62382 0.0
H433 H 0.41812 0.57461 0.6207 0.0
H434 H 0.39823 0.61127 0.54432 0.0
H435 H 0.45403 0.66264 0.54726 0.0
C436 C 0.3073 0.53879 0.57941 0.0
C437 C 0.30029 0.50545 0.58513 0.0
C438 C 0.34093 0.56563 0.57768 0.0
C439 C 0.36833 0.55983 0.58199 0.0
C440 C 0.36142 0.52639 0.58705 0.0
C441 C 0.32768 0.49936 0.58836 0.0
C442 C 0.45808 0.62313 0.60621 0.0
C443 C 0.46852 0.64874 0.58594 0.0
C444 C 0.42604 0.59347 0.60435 0.0
C445 C 0.40378 0.58909 0.58234 0.0
C446 C 0.41473 0.61415 0.56164 0.0
C447 C 0.44677 0.64354 0.56333 0.0
H448 H 0.84882 0.31207 0.06776 0.0
H449 H 0.75554 0.28821 0.11058 0.0
H450 H 0.86499 0.37266 0.06706 0.0
H451 H 0.77203 0.34822 0.1102 0.0
H452 H 0.83175 0.45997 0.13523 0.0
H453 H 0.82385 0.40247 0.13423 0.0
H454 H 0.83709 0.40908 0.04545 0.0
H455 H 0.84453 0.46657 0.04624 0.0
C456 C 0.83178 0.31965 0.0769 0.0
C457 C 0.80095 0.2953 0.08928 0.0
C458 C 0.84104 0.35423 0.07648 0.0
C459 C 0.81994 0.36497 0.08894 0.0
C460 C 0.78896 0.3406 0.10083 0.0
C461 C 0.77943 0.30617 0.1008 0.0
C462 C 0.83359 0.44946 0.11554 0.0
C463 C 0.83841 0.46764 0.09078 0.0
C464 C 0.82894 0.41654 0.11499 0.0
C465 C 0.82962 0.4014 0.08974 0.0
C466 C 0.83655 0.42029 0.06516 0.0
C467 C 0.84064 0.45307 0.06565 0.0
H468 H 0.47972 0.75981 0.61596 0.0
H469 H 0.54521 0.84812 0.56609 0.0
H470 H 0.43562 0.77542 0.61487 0.0
H471 H 0.50006 0.86331 0.56461 0.0
H472 H 0.38219 0.83469 0.54471 0.0
H473 H 0.43396 0.83025 0.54497 0.0
H474 H 0.43311 0.82954 0.63441 0.0
H475 H 0.38177 0.8345 0.63432 0.0
C476 C 0.48466 0.78244 0.60455 0.0
C477 C 0.51604 0.80274 0.59108 0.0
C478 C 0.45945 0.79149 0.60417 0.0
C479 C 0.46469 0.82072 0.58994 0.0
C480 C 0.49561 0.84072 0.57583 0.0
C481 C 0.52132 0.83202 0.57667 0.0
C482 C 0.39344 0.83424 0.56443 0.0
C483 C 0.37775 0.83458 0.5895 0.0
C484 C 0.42311 0.83191 0.56453 0.0
C485 C 0.43722 0.82934 0.58969 0.0
C486 C 0.42252 0.83134 0.61475 0.0
C487 C 0.39322 0.83425 0.61467 0.0
H488 H 0.73126 0.47213 0.10946 0.0
H489 H 0.70669 0.54162 0.06756 0.0
H490 H 0.6716 0.42779 0.10782 0.0
H491 H 0.64642 0.49629 0.06549 0.0
H492 H 0.55466 0.38046 0.04241 0.0
H493 H 0.61163 0.4314 0.04255 0.0
H494 H 0.61626 0.4245 0.13149 0.0
H495 H 0.55928 0.37407 0.13157 0.0
C496 C 0.71323 0.47791 0.0996 0.0
C497 C 0.72381 0.51055 0.08869 0.0
C498 C 0.67899 0.45251 0.09888 0.0
C499 C 0.65451 0.45884 0.08685 0.0
C500 C 0.66495 0.49095 0.07499 0.0
C501 C 0.69934 0.51678 0.07617 0.0
C502 C 0.5676 0.39019 0.06204 0.0
C503 C 0.55264 0.37309 0.08696 0.0
C504 C 0.60007 0.41938 0.06208 0.0
C505 C 0.61826 0.43156 0.08699 0.0
C506 C 0.60272 0.41539 0.112 0.0
C507 C 0.5701 0.38662 0.11203 0.0
H508 H 0.17942 0.54857 0.54563 0.0
H509 H 0.19212 0.55523 0.63464 0.0
H510 H 0.18581 0.60563 0.54496 0.0
H511 H 0.19904 0.61237 0.63376 0.0
H512 H 0.26596 0.72694 0.61011 0.0
H513 H 0.25037 0.66718 0.60973 0.0
H514 H 0.15683 0.64119 0.5667 0.0
H515 H 0.17206 0.70153 0.56746 0.0
C516 C 0.18307 0.56199 0.56507 0.0
C517 C 0.18556 0.54755 0.59017 0.0
C518 C 0.18656 0.59452 0.56465 0.0
C519 C 0.19317 0.61336 0.58927 0.0
C520 C 0.19416 0.59835 0.61449 0.0
C521 C 0.19007 0.56563 0.61498 0.0
C522 C 0.24213 0.7087 0.60035 0.0
C523 C 0.22019 0.7191 0.58886 0.0
C524 C 0.23312 0.6744 0.60038 0.0
C525 C 0.20225 0.64965 0.58853 0.0
C526 C 0.18072 0.6599 0.5761 0.0
C527 C 0.18945 0.69436 0.57653 0.0
H528 H 0.8484 0.54137 0.44839 0.0
H529 H 0.7561 0.47245 0.40395 0.0
H530 H 0.86385 0.49643 0.45027 0.0
H531 H 0.77198 0.42846 0.40535 0.0
H532 H 0.83189 0.37503 0.38421 0.0
H533 H 0.82537 0.42548 0.38349 0.0
H534 H 0.83225 0.43129 0.47273 0.0
H535 H 0.83815 0.38034 0.47365 0.0
C536 C 0.83147 0.51674 0.43909 0.0
C537 C 0.801 0.51044 0.42608 0.0
C538 C 0.84031 0.49115 0.44016 0.0
C539 C 0.81924 0.45928 0.42766 0.0
C540 C 0.78883 0.453 0.41483 0.0
C541 C 0.77966 0.47815 0.41425 0.0
C542 C 0.83263 0.38737 0.40365 0.0
C543 C 0.8352 0.37355 0.429 0.0
C544 C 0.8288 0.41615 0.40322 0.0
C545 C 0.82817 0.43201 0.42807 0.0
C546 C 0.83282 0.41952 0.45332 0.0
C547 C 0.83602 0.39032 0.45381 0.0
H548 H 0.32063 0.84512 0.90197 0.0
H549 H 0.28957 0.76661 0.964 0.0
H550 H 0.37833 0.85379 0.90274 0.0
H551 H 0.34769 0.77711 0.96698 0.0
H552 H 0.43632 0.76607 0.94045 0.0
H553 H 0.38181 0.76376 0.94248 0.0
H554 H 0.43124 0.87113 0.92136 0.0
H555 H 0.48572 0.87219 0.91711 0.0
C556 C 0.32663 0.83062 0.9165 0.0
C557 C 0.30086 0.80509 0.93281 0.0
C558 C 0.35975 0.83558 0.91705 0.0
C559 C 0.36789 0.81563 0.93447 0.0
C560 C 0.34237 0.79205 0.95242 0.0
C561 C 0.30911 0.78633 0.95113 0.0
C562 C 0.43543 0.78914 0.93621 0.0
C563 C 0.46505 0.81929 0.92866 0.0
C564 C 0.40416 0.78804 0.93772 0.0
C565 C 0.40178 0.81744 0.93267 0.0
C566 C 0.43174 0.84781 0.92514 0.0
C567 C 0.46302 0.84857 0.92278 0.0
H568 H 0.65686 0.45505 0.47575 0.0
H569 H 0.62574 0.46962 0.39453 0.0
H570 H 0.60546 0.3993 0.47893 0.0
H571 H 0.57405 0.41352 0.39786 0.0
H572 H 0.47316 0.31754 0.4223 0.0
H573 H 0.51847 0.37751 0.42561 0.0
H574 H 0.58938 0.34554 0.45194 0.0
H575 H 0.54456 0.28604 0.44846 0.0
C576 C 0.63885 0.44659 0.4587 0.0
C577 C 0.64563 0.46663 0.43472 0.0
C578 C 0.60943 0.4146 0.46055 0.0
C579 C 0.58592 0.40198 0.43857 0.0
C580 C 0.59167 0.42272 0.41519 0.0
C581 C 0.62134 0.45473 0.41323 0.0
C582 C 0.49829 0.32342 0.42927 0.0
C583 C 0.50536 0.29711 0.43502 0.0
C584 C 0.52422 0.35767 0.43095 0.0
C585 C 0.55742 0.36613 0.43896 0.0
C586 C 0.56398 0.33982 0.44594 0.0
C587 C 0.53832 0.30572 0.44384 0.0
H588 H 0.16687 0.6258 0.89696 0.0
H589 H 0.21831 0.65802 0.97608 0.0
H590 H 0.17058 0.57366 0.89945 0.0
H591 H 0.22208 0.60623 0.97835 0.0
H592 H 0.26939 0.54186 0.94483 0.0
H593 H 0.25694 0.58822 0.94863 0.0
H594 H 0.15124 0.51844 0.92873 0.0
H595 H 0.16361 0.47157 0.92522 0.0
C596 C 0.17856 0.62159 0.915 0.0
C597 C 0.1926 0.64623 0.93618 0.0
C598 C 0.18049 0.59167 0.91649 0.0
C599 C 0.1968 0.58606 0.93902 0.0
C600 C 0.20964 0.61007 0.96064 0.0
C601 C 0.20739 0.6397 0.95932 0.0
C602 C 0.24337 0.53624 0.94166 0.0
C603 C 0.21749 0.50309 0.93468 0.0
C604 C 0.23623 0.56277 0.94394 0.0
C605 C 0.20314 0.55691 0.9389 0.0
C606 C 0.17699 0.52363 0.93257 0.0
C607 C 0.18403 0.49683 0.93077 0.0
H608 H 0.57005 0.21419 0.47767 0.0
H609 H 0.55163 0.16498 0.39762 0.0
H610 H 0.62517 0.21713 0.48027 0.0
H611 H 0.60716 0.16806 0.40032 0.0
H612 H 0.70227 0.16108 0.4239 0.0
H613 H 0.64293 0.14825 0.42777 0.0
H614 H 0.67844 0.25242 0.45269 0.0
H615 H 0.73728 0.26525 0.44869 0.0
C616 C 0.57755 0.20362 0.46073 0.0
C617 C 0.55657 0.1897 0.43726 0.0
C618 C 0.60919 0.20539 0.46225 0.0
C619 C 0.62058 0.19307 0.44043 0.0
C620 C 0.59893 0.17756 0.41755 0.0
C621 C 0.56725 0.17599 0.41593 0.0
C622 C 0.6973 0.181 0.4307 0.0
C623 C 0.72442 0.2142 0.43591 0.0
C624 C 0.6634 0.17373 0.43269 0.0
C625 C 0.65608 0.19936 0.44045 0.0
C626 C 0.68323 0.23206 0.44689 0.0
C627 C 0.71697 0.23944 0.4445 0.0
H628 H 0.36151 0.56465 0.9735 0.0
H629 H 0.39329 0.54315 0.89519 0.0
H630 H 0.41363 0.61994 0.97534 0.0
H631 H 0.44583 0.59884 0.89724 0.0
H632 H 0.54835 0.69499 0.92345 0.0
H633 H 0.5014 0.63566 0.92699 0.0
H634 H 0.4312 0.67174 0.94416 0.0
H635 H 0.4775 0.73047 0.94032 0.0
C636 C 0.37981 0.57148 0.95683 0.0
C637 C 0.37305 0.54962 0.93402 0.0
C638 C 0.40964 0.6032 0.95791 0.0
C639 C 0.43361 0.61371 0.93637 0.0
C640 C 0.42782 0.59123 0.91421 0.0
C641 C 0.39768 0.55949 0.91296 0.0
C642 C 0.52296 0.69014 0.92837 0.0
C643 C 0.51658 0.71735 0.93157 0.0
C644 C 0.49613 0.65628 0.93019 0.0
C645 C 0.46274 0.64919 0.93585 0.0
C646 C 0.45673 0.67645 0.94002 0.0
C647 C 0.48326 0.7101 0.93773 0.0
H648 H 0.47624 0.20295 0.32248 0.0
H649 H 0.37561 0.19038 0.33217 0.0
H650 H 0.47378 0.21161 0.2728 0.0
H651 H 0.3732 0.19879 0.28229 0.0
H652 H 0.37526 0.18224 0.18553 0.0
H653 H 0.37361 0.17045 0.23524 0.0
H654 H 0.47295 0.26003 0.24529 0.0
H655 H 0.47464 0.27212 0.19592 0.0
C656 C 0.45339 0.20154 0.314 0.0
C657 C 0.42619 0.19614 0.33135 0.0
C658 C 0.45212 0.20676 0.28558 0.0
C659 C 0.42344 0.20621 0.2738 0.0
C660 C 0.39559 0.19931 0.29086 0.0
C661 C 0.39705 0.19458 0.3194 0.0
C662 C 0.39659 0.19961 0.1984 0.0
C663 C 0.42511 0.22809 0.18671 0.0
C664 C 0.3956 0.19284 0.22682 0.0
C665 C 0.42333 0.21411 0.24398 0.0
C666 C 0.45144 0.24295 0.23244 0.0
C667 C 0.45224 0.25 0.20418 0.0
H668 H 0.17162 0.43766 0.6994 0.0
H669 H 0.23496 0.39321 0.68271 0.0
H670 H 0.17879 0.43317 0.74918 0.0
H671 H 0.24248 0.3893 0.73253 0.0
H672 H 0.28385 0.44096 0.82064 0.0
H673 H 0.27277 0.4364 0.77072 0.0
H674 H 0.16443 0.38592 0.78637 0.0
H675 H 0.17527 0.38991 0.83622 0.0
C676 C 0.18681 0.42667 0.70634 0.0
C677 C 0.20275 0.41584 0.6871 0.0
C678 C 0.1908 0.42399 0.73482 0.0
C679 C 0.21129 0.411 0.74463 0.0
C680 C 0.22671 0.39958 0.72546 0.0
C681 C 0.22221 0.40165 0.69698 0.0
C682 C 0.25765 0.42851 0.81344 0.0
C683 C 0.23047 0.41589 0.83242 0.0
C684 C 0.25133 0.42579 0.78488 0.0
C685 C 0.21775 0.41094 0.77476 0.0
C686 C 0.19055 0.39767 0.79367 0.0
C687 C 0.19681 0.39982 0.82219 0.0
H688 H 0.8276 0.18464 0.33238 0.0
H689 H 0.81293 0.27126 0.32121 0.0
H690 H 0.81792 0.17209 0.28266 0.0
H691 H 0.80281 0.25827 0.27188 0.0
H692 H 0.73971 0.19458 0.19738 0.0
H693 H 0.75264 0.20472 0.24667 0.0
H694 H 0.84623 0.20316 0.23412 0.0
H695 H 0.83371 0.19349 0.18439 0.0
C696 C 0.82262 0.20115 0.31933 0.0
C697 C 0.82091 0.22889 0.33078 0.0
C698 C 0.81716 0.19397 0.29092 0.0
C699 C 0.80928 0.21401 0.27362 0.0
C700 C 0.80848 0.24222 0.2849 0.0
C701 C 0.81451 0.24975 0.31311 0.0
C702 C 0.76286 0.19593 0.20506 0.0
C703 C 0.78576 0.19338 0.18687 0.0
C704 C 0.77033 0.20198 0.23327 0.0
C705 C 0.80058 0.20508 0.24405 0.0
C706 C 0.82276 0.2009 0.22624 0.0
C707 C 0.81557 0.1954 0.19783 0.0
H708 H 0.5799 0.84725 0.81871 0.0
H709 H 0.63123 0.79041 0.83613 0.0
H710 H 0.58519 0.84022 0.76898 0.0
H711 H 0.63595 0.78307 0.7865 0.0
H712 H 0.58423 0.73696 0.69944 0.0
H713 H 0.58884 0.74937 0.74912 0.0
H714 H 0.63297 0.85677 0.73146 0.0
H715 H 0.62895 0.84463 0.68181 0.0
C716 C 0.59259 0.83359 0.81196 0.0
C717 C 0.60504 0.81932 0.83139 0.0
C718 C 0.59572 0.82969 0.78353 0.0
C719 C 0.61083 0.81097 0.774 0.0
C720 C 0.62401 0.79742 0.79335 0.0
C721 C 0.62144 0.80182 0.82174 0.0
C722 C 0.59538 0.76326 0.70615 0.0
C723 C 0.60615 0.78977 0.68668 0.0
C724 C 0.5981 0.77035 0.73456 0.0
C725 C 0.61109 0.804 0.74403 0.0
C726 C 0.62266 0.8306 0.72464 0.0
C727 C 0.62053 0.82361 0.69625 0.0
H728 H 0.81927 0.55148 0.19961 0.0
H729 H 0.82413 0.64799 0.18427 0.0
H730 H 0.80796 0.55535 0.24842 0.0
H731 H 0.81342 0.65197 0.23368 0.0
H732 H 0.83214 0.64861 0.33381 0.0
H733 H 0.84493 0.65224 0.28409 0.0
H734 H 0.75281 0.55585 0.2708 0.0
H735 H 0.7395 0.5523 0.32005 0.0
C736 C 0.81852 0.57382 0.20668 0.0
C737 C 0.82247 0.59937 0.18797 0.0
C738 C 0.81182 0.57587 0.23462 0.0
C739 C 0.80952 0.60377 0.2446 0.0
C740 C 0.81504 0.63019 0.22634 0.0
C741 C 0.82114 0.62786 0.19815 0.0
C742 C 0.8143 0.62851 0.32019 0.0
C743 C 0.78489 0.60007 0.33094 0.0
C744 C 0.82163 0.63066 0.29181 0.0
C745 C 0.8 0.60414 0.27386 0.0
C746 C 0.76999 0.57647 0.28436 0.0
C747 C 0.76233 0.57459 0.31254 0.0
H748 H 0.1917 0.82826 0.83294 0.0
H749 H 0.20539 0.74102 0.82176 0.0
H750 H 0.20012 0.83994 0.78308 0.0
H751 H 0.21423 0.75314 0.77228 0.0
H752 H 0.27768 0.81697 0.69794 0.0
H753 H 0.26457 0.8065 0.74713 0.0
H754 H 0.17132 0.80873 0.73451 0.0
H755 H 0.18402 0.81873 0.68482 0.0
C756 C 0.1961 0.81138 0.81986 0.0
C757 C 0.19804 0.7838 0.83137 0.0
C758 C 0.20085 0.81806 0.79137 0.0
C759 C 0.20819 0.79765 0.77402 0.0
C760 C 0.20897 0.76946 0.78533 0.0
C761 C 0.20368 0.76244 0.81364 0.0
C762 C 0.25454 0.81566 0.70557 0.0
C763 C 0.23181 0.81854 0.68738 0.0
C764 C 0.24696 0.80941 0.73372 0.0
C765 C 0.21678 0.80644 0.74445 0.0
C766 C 0.19473 0.81087 0.72665 0.0
C767 C 0.20202 0.81655 0.69828 0.0
H768 H 0.19165 0.92798 0.97745 0.0
H769 H 0.29229 0.94802 0.9553 0.0
H770 H 0.21661 0.97763 1.00804 0.0
H771 H 0.31766 0.9988 0.98453 0.0
H772 H 0.35406 0.06839 0.05939 0.0
H773 H 0.32822 0.01783 0.02993 0.0
H774 H 0.2456 0.03659 0.0106 0.0
H775 H 0.2708 0.08602 0.04142 0.0
C776 C 0.21918 0.94335 0.97897 0.0
C777 C 0.24009 0.93406 0.96439 0.0
C778 C 0.23359 0.97197 0.99634 0.0
C779 C 0.26931 0.99243 0.99898 0.0
C780 C 0.29011 0.98334 0.98372 0.0
C781 C 0.27565 0.95434 0.96681 0.0
C782 C 0.33042 0.06162 0.04872 0.0
C783 C 0.31451 0.08114 0.0524 0.0
C784 C 0.31562 0.03273 0.03169 0.0
C785 C 0.2848 0.023 0.01756 0.0
C786 C 0.26897 0.04275 0.02141 0.0
C787 C 0.28348 0.07125 0.03891 0.0
H788 H 0.23219 0.27111 0.57875 0.0
H789 H 0.25942 0.35026 0.51758 0.0
H790 H 0.25661 0.24463 0.54927 0.0
H791 H 0.28525 0.32481 0.48895 0.0
H792 H 0.36206 0.28905 0.46458 0.0
H793 H 0.33693 0.31427 0.49457 0.0
H794 H 0.24389 0.21685 0.49945 0.0
H795 H 0.26901 0.19164 0.46917 0.0
C796 C 0.24374 0.28307 0.5592 0.0
C797 C 0.24507 0.31354 0.55103 0.0
C798 C 0.25762 0.26789 0.54235 0.0
C799 C 0.27323 0.283 0.51707 0.0
C800 C 0.27405 0.3131 0.50866 0.0
C801 C 0.25965 0.32791 0.52526 0.0
C802 C 0.33639 0.27297 0.47231 0.0
C803 C 0.31757 0.23833 0.46491 0.0
C804 C 0.32194 0.28745 0.48924 0.0
C805 C 0.28855 0.26744 0.49936 0.0
C806 C 0.26979 0.23272 0.4921 0.0
C807 C 0.28405 0.21839 0.47472 0.0
H808 H 0.91456 0.25371 0.02033 0.0
H809 H 0.96581 0.22655 0.08223 0.0
H810 H 0.96642 0.28036 0.99245 0.0
H811 H 0.0174 0.2519 0.05351 0.0
H812 H 0.08448 0.26571 0.97434 0.0
H813 H 0.03403 0.2402 1.0044 0.0
H814 H 0.02792 0.33217 0.99826 0.0
H815 H 0.07835 0.35767 0.9684 0.0
C816 C 0.93712 0.25413 0.02833 0.0
C817 C 0.93654 0.23932 0.05408 0.0
C818 C 0.96668 0.26903 0.01217 0.0
C819 C 0.996 0.26854 0.02101 0.0
C820 C 0.99514 0.25269 0.04628 0.0
C821 C 0.96569 0.23827 0.06268 0.0
C822 C 0.0724 0.28046 0.9796 0.0
C823 C 0.0855 0.31378 0.96941 0.0
C824 C 0.04373 0.26597 0.99686 0.0
C825 C 0.0272 0.28429 1.00368 0.0
C826 C 0.04018 0.31752 0.99328 0.0
C827 C 0.06918 0.3322 0.97643 0.0
H828 H 0.66835 0.94766 0.55961 0.0
H829 H 0.74974 0.92826 0.53885 0.0
H830 H 0.6944 0.99879 0.53092 0.0
H831 H 0.77495 0.97807 0.50859 0.0
H832 H 0.83023 0.08644 0.47611 0.0
H833 H 0.80508 0.03664 0.5064 0.0
H834 H 0.70435 0.01941 0.48635 0.0
H835 H 0.73008 0.07053 0.45767 0.0
C836 C 0.6916 0.95417 0.54846 0.0
C837 C 0.707 0.93407 0.5512 0.0
C838 C 0.70651 0.98337 0.53184 0.0
C839 C 0.73685 0.99276 0.51712 0.0
C840 C 0.75204 0.97228 0.51992 0.0
C841 C 0.7375 0.94353 0.53707 0.0
C842 C 0.80273 0.07194 0.4784 0.0
C843 C 0.78205 0.08237 0.46493 0.0
C844 C 0.78819 0.04319 0.49557 0.0
C845 C 0.7525 0.02369 0.49901 0.0
C846 C 0.7319 0.03405 0.48493 0.0
C847 C 0.74656 0.06325 0.46831 0.0
H848 H 0.82996 0.74368 0.03786 0.0
H849 H 0.72966 0.66531 0.0633 0.0
H850 H 0.80462 0.76868 1.00817 0.0
H851 H 0.70398 0.69116 0.03501 0.0
H852 H 0.66581 0.72454 0.96128 0.0
H853 H 0.69152 0.69923 0.9901 0.0
H854 H 0.77706 0.79998 1.00687 0.0
H855 H 0.75192 0.82473 0.97665 0.0
C856 C 0.80243 0.73207 0.03723 0.0
C857 C 0.78169 0.70242 0.05249 0.0
C858 C 0.78781 0.74649 0.0204 0.0
C859 C 0.75209 0.73204 0.01902 0.0
C860 C 0.73148 0.70263 0.03488 0.0
C861 C 0.74613 0.68784 0.05125 0.0
C862 C 0.69003 0.74115 0.9713 0.0
C863 C 0.70682 0.77654 0.96702 0.0
C864 C 0.70478 0.72672 0.98795 0.0
C865 C 0.73643 0.74745 1.00109 0.0
C866 C 0.75304 0.78301 0.99678 0.0
C867 C 0.73857 0.79732 0.97964 0.0
H868 H 0.90892 0.67955 0.50462 0.0
H869 H 0.96993 0.73225 0.43309 0.0
H870 H 0.95962 0.7041 0.53319 0.0
H871 H 0.02054 0.75957 0.46227 0.0
H872 H 0.11059 0.77548 0.51468 0.0
H873 H 0.05971 0.74986 0.48579 0.0
H874 H 1.00067 0.75365 0.5548 0.0
H875 H 0.05118 0.77645 0.58422 0.0
C876 C 0.93313 0.69593 0.49479 0.0
C877 C 0.93534 0.70266 0.4662 0.0
C878 C 0.96234 0.71088 0.51145 0.0
C879 C 0.9945 0.73376 0.50015 0.0
C880 C 0.99648 0.74145 0.4717 0.0
C881 C 0.96732 0.72604 0.45496 0.0
C882 C 0.0865 0.76974 0.5239 0.0
C883 C 0.08455 0.7765 0.55205 0.0
C884 C 0.05738 0.75581 0.50714 0.0
C885 C 0.02575 0.74925 0.5179 0.0
C886 C 0.02424 0.75738 0.54587 0.0
C887 C 0.05328 0.77079 0.56272 0.0
H888 H 0.76018 0.07265 0.06024 0.0
H889 H 0.69076 0.09646 0.01776 0.0
H890 H 0.73542 0.01797 0.03568 0.0
H891 H 0.66543 0.04161 0.99364 0.0
H892 H 0.64981 0.95538 0.93576 0.0
H893 H 0.67928 0.01127 0.95837 0.0
H894 H 0.68078 0.96308 0.03526 0.0
H895 H 0.65122 0.90713 0.01241 0.0
C896 C 0.73986 0.06628 0.04541 0.0
C897 C 0.72741 0.08872 0.04076 0.0
C898 C 0.72544 0.03486 0.0316 0.0
C899 C 0.69842 0.02541 0.01274 0.0
C900 C 0.68644 0.04825 1.0078 0.0
C901 C 0.70074 0.07953 0.02172 0.0
C902 C 0.65648 0.95687 0.9575 0.0
C903 C 0.64808 0.92711 0.97249 0.0
C904 C 0.67326 0.98878 0.97045 0.0
C905 C 0.6822 0.99161 0.99866 0.0
C906 C 0.67453 0.9618 0.01345 0.0
C907 C 0.65757 0.92982 1.00047 0.0
H908 H 0.69549 0.6014 0.5027 0.0
H909 H 0.75628 0.69126 0.45333 0.0
H910 H 0.66988 0.63069 0.52665 0.0
H911 H 0.73132 0.72109 0.47769 0.0
H912 H 0.64584 0.74423 0.50401 0.0
H913 H 0.6756 0.71833 0.48085 0.0
H914 H 0.68466 0.6775 0.55935 0.0
H915 H 0.65481 0.70328 0.5822 0.0
C916 C 0.70359 0.6276 0.49725 0.0
C917 C 0.728 0.64425 0.47644 0.0
C918 C 0.68912 0.64445 0.51103 0.0
C919 C 0.69865 0.67829 0.50414 0.0
C920 C 0.72329 0.69498 0.48334 0.0
C921 C 0.73785 0.6781 0.46963 0.0
C922 C 0.6545 0.7299 0.51619 0.0
C923 C 0.64784 0.72532 0.54471 0.0
C924 C 0.67161 0.7152 0.50304 0.0
C925 C 0.68229 0.69565 0.51825 0.0
C926 C 0.67626 0.69189 0.54697 0.0
C927 C 0.65928 0.70666 0.56006 0.0
H928 H 0.94461 0.69377 0.05833 0.0
H929 H 0.9275 0.59717 0.02663 0.0
H930 H 0.99957 0.72309 0.03422 0.0
H931 H 0.98295 0.62628 1.00356 0.0
H932 H 0.10079 0.68715 0.99791 0.0
H933 H 0.04541 0.66013 0.0212 0.0
H934 H 0.02238 0.7326 0.98316 0.0
H935 H 0.07729 0.75882 0.95894 0.0
C936 C 0.95239 0.67887 0.04595 0.0
C937 C 0.93178 0.64317 0.04436 0.0
C938 C 0.98389 0.69562 0.03232 0.0
C939 C 0.99557 0.67689 0.01725 0.0
C940 C 0.97476 0.64127 0.01538 0.0
C941 C 0.94309 0.62463 0.02862 0.0
C942 C 0.08383 0.6972 0.99443 0.0
C943 C 0.09331 0.72503 0.97659 0.0
C944 C 0.0522 0.68178 1.00776 0.0
C945 C 0.0296 0.69421 1.00385 0.0
C946 C 0.03945 0.72269 0.98667 0.0
C947 C 0.07092 0.73779 0.97296 0.0
H948 H 0.31665 0.95867 0.58115 0.0
H949 H 0.26939 0.90515 0.50541 0.0
H950 H 0.3423 0.01298 0.55653 0.0
H951 H 0.29333 0.95958 0.48076 0.0
H952 H 0.37593 0.05743 0.43938 0.0
H953 H 0.34627 1.00302 0.46379 0.0
H954 H 0.33271 0.0539 0.53449 0.0
H955 H 0.36426 0.10858 0.51039 0.0
C956 C 0.31159 0.9587 0.5592 0.0
C957 C 0.29156 0.92787 0.54502 0.0
C958 C 0.3259 0.98982 0.54511 0.0
C959 C 0.32009 0.99083 0.51654 0.0
C960 C 0.29895 0.95983 0.50261 0.0
C961 C 0.28493 0.92867 0.51671 0.0
C962 C 0.3668 0.05687 0.46024 0.0
C963 C 0.37279 0.08713 0.47324 0.0
C964 C 0.34936 0.02565 0.47412 0.0
C965 C 0.33708 0.02391 0.50123 0.0
C966 C 0.3423 0.05425 0.51386 0.0
C967 C 0.36007 0.08554 0.50003 0.0
H968 H 0.3178 0.3646 0.93703 0.0
H969 H 0.27051 0.36815 0.01354 0.0
H970 H 0.34352 0.3351 0.96056 0.0
H971 H 0.29627 0.33865 0.03736 0.0
H972 H 0.32502 0.25887 0.0648 0.0
H973 H 0.29549 0.28376 0.03988 0.0
H974 H 0.38833 0.34969 0.99519 0.0
H975 H 0.41736 0.32417 0.01963 0.0
C976 C 0.313 0.35902 0.95894 0.0
C977 C 0.29261 0.36891 0.97363 0.0
C978 C 0.32773 0.34223 0.97243 0.0
C979 C 0.32219 0.33478 1.0009 0.0
C980 C 0.30085 0.34379 0.01538 0.0
C981 C 0.2862 0.36073 1.00185 0.0
C982 C 0.33886 0.27838 0.04937 0.0
C983 C 0.37337 0.28954 0.04399 0.0
C984 C 0.32211 0.29286 0.03532 0.0
C985 C 0.33954 0.31869 0.01552 0.0
C986 C 0.37403 0.32956 0.01004 0.0
C987 C 0.39075 0.31519 0.02417 0.0
H988 H 0.10199 0.41695 0.52081 0.0
H989 H 0.07801 0.3222 0.56067 0.0
H990 H 0.04784 0.38793 0.49561 0.0
H991 H 0.02386 0.29288 0.5352 0.0
H992 H 0.91334 0.26761 0.51056 0.0
H993 H 0.96855 0.29329 0.53457 0.0
H994 H 0.01939 0.34387 0.45874 0.0
H995 H 0.96426 0.31786 0.43487 0.0
C996 C 0.08513 0.38985 0.52403 0.0
C997 C 0.09409 0.37175 0.54259 0.0
C998 C 0.05428 0.37318 0.50949 0.0
C999 C 0.03159 0.33809 0.5134 0.0
C1000 C 0.04071 0.31996 0.53189 0.0
C1001 C 0.07177 0.33662 0.54625 0.0
C1002 C 0.93645 0.28397 0.49909 0.0
C1003 C 0.9347 0.29118 0.47105 0.0
C1004 C 0.96799 0.29859 0.51274 0.0
C1005 C 0.9983 0.32081 0.49858 0.0
C1006 C 0.99646 0.3273 0.47031 0.0
C1007 C 0.96499 0.31246 0.45666 0.0
loop_
_geom_bond_atom_site_label_1
_geom_bond_atom_site_label_2
_geom_bond_distance
_geom_bond_site_symmetry_2
_ccdc_geom_bond_type
Co0 O3 1.970 . S
Co0 N17 1.989 . S
Co0 O25 1.967 . S
Co0 O32 1.920 . S
Co1 O4 1.966 . S
Co1 N10 2.022 . S
Co1 N18 1.993 . S
Co1 O26 1.941 . S
C2 O3 1.258 . S
C2 O4 1.263 . S
O3 Co0 1.970 . S
O3 C2 1.258 . S
O4 Co1 1.966 . S
O4 C2 1.263 . S
C5 O6 1.235 . S
C5 O32 1.289 . S
O6 C5 1.235 . S
C7 C9 1.400 . S
C7 N10 1.351 . S
C7 C12 1.501 . S
C8 C9 1.387 . S
C8 N11 1.341 . S
C9 C7 1.400 . S
C9 C8 1.387 . S
N10 Co1 2.022 . S
N10 C7 1.351 . S
N10 N11 1.365 . S
N11 C8 1.341 . S
N11 N10 1.365 . S
N11 H31 0.862 . S
C12 C7 1.501 . S
C12 H13 0.961 . S
C12 H14 0.961 . S
C12 H15 0.960 . S
H13 C12 0.961 . S
H14 C12 0.961 . S
H15 C12 0.960 . S
C16 N17 1.342 . S
C16 C20 1.401 . S
C16 C21 1.499 . S
N17 Co0 1.989 . S
N17 C16 1.342 . S
N17 N18 1.388 . S
N18 Co1 1.993 . S
N18 N17 1.388 . S
N18 C19 1.346 . S
C19 N18 1.346 . S
C19 C20 1.396 . S
C19 C29 1.510 . S
C20 C16 1.401 . S
C20 C19 1.396 . S
C21 C16 1.499 . S
C21 H22 0.959 . S
C21 H23 0.960 . S
C21 H24 0.961 . S
H22 C21 0.959 . S
H23 C21 0.960 . S
H24 C21 0.961 . S
O25 Co0 1.967 . S
O25 C33 1.258 . S
O26 Co1 1.941 . S
O26 C33 1.266 . S
H27 C29 0.959 . S
H28 C29 0.961 . S
C29 C19 1.510 . S
C29 H27 0.959 . S
C29 H28 0.961 . S
C29 H30 0.960 . S
H30 C29 0.960 . S
H31 N11 0.862 . S
O32 Co0 1.920 . S
O32 C5 1.289 . S
C33 O25 1.258 . S
C33 O26 1.266 . S
Co34 O37 1.970 . S
Co34 N51 1.989 . S
Co34 O59 1.967 . S
Co34 O66 1.920 . S
Co35 O38 1.966 . S
Co35 N44 2.022 . S
Co35 N52 1.993 . S
Co35 O60 1.941 . S
C36 O37 1.258 . S
C36 O38 1.263 . S
O37 Co34 1.970 . S
O37 C36 1.258 . S
O38 Co35 1.966 . S
O38 C36 1.263 . S
C39 O40 1.235 . S
C39 O66 1.289 . S
O40 C39 1.235 . S
C41 C43 1.400 . S
C41 N44 1.351 . S
C41 C46 1.501 . S
C42 C43 1.387 . S
C42 N45 1.341 . S
C43 C41 1.400 . S
C43 C42 1.387 . S
N44 Co35 2.022 . S
N44 C41 1.351 . S
N44 N45 1.365 . S
N45 C42 1.341 . S
N45 N44 1.365 . S
N45 H65 0.862 . S
C46 C41 1.501 . S
C46 H47 0.961 . S
C46 H48 0.961 . S
C46 H49 0.960 . S
H47 C46 0.961 . S
H48 C46 0.961 . S
H49 C46 0.960 . S
C50 N51 1.342 . S
C50 C54 1.401 . S
C50 C55 1.499 . S
N51 Co34 1.989 . S
N51 C50 1.342 . S
N51 N52 1.388 . S
N52 Co35 1.993 . S
N52 N51 1.388 . S
N52 C53 1.346 . S
C53 N52 1.346 . S
C53 C54 1.396 . S
C53 C63 1.510 . S
C54 C50 1.401 . S
C54 C53 1.396 . S
C55 C50 1.499 . S
C55 H56 0.959 . S
C55 H57 0.960 . S
C55 H58 0.961 . S
H56 C55 0.959 . S
H57 C55 0.960 . S
H58 C55 0.961 . S
O59 Co34 1.967 . S
O59 C67 1.258 . S
O60 Co35 1.941 . S
O60 C67 1.266 . S
H61 C63 0.959 . S
H62 C63 0.961 . S
C63 C53 1.510 . S
C63 H61 0.959 . S
C63 H62 0.961 . S
C63 H64 0.960 . S
H64 C63 0.960 . S
H65 N45 0.862 . S
O66 Co34 1.920 . S
O66 C39 1.289 . S
C67 O59 1.258 . S
C67 O60 1.266 . S
Co68 O71 1.970 . S
Co68 N85 1.989 . S
Co68 O93 1.967 . S
Co68 O100 1.920 . S
Co69 O72 1.966 . S
Co69 N78 2.022 . S
Co69 N86 1.993 . S
Co69 O94 1.941 . S
C70 O71 1.258 . S
C70 O72 1.263 . S
O71 Co68 1.970 . S
O71 C70 1.258 . S
O72 Co69 1.966 . S
O72 C70 1.263 . S
C73 O74 1.235 . S
C73 O100 1.289 . S
O74 C73 1.235 . S
C75 C77 1.400 . S
C75 N78 1.351 . S
C75 C80 1.501 . S
C76 C77 1.387 . S
C76 N79 1.341 . S
C77 C75 1.400 . S
C77 C76 1.387 . S
N78 Co69 2.022 . S
N78 C75 1.351 . S
N78 N79 1.365 . S
N79 C76 1.341 . S
N79 N78 1.365 . S
N79 H99 0.862 . S
C80 C75 1.501 . S
C80 H81 0.961 . S
C80 H82 0.961 . S
C80 H83 0.960 . S
H81 C80 0.961 . S
H82 C80 0.961 . S
H83 C80 0.960 . S
C84 N85 1.342 . S
C84 C88 1.401 . S
C84 C89 1.499 . S
N85 Co68 1.989 . S
N85 C84 1.342 . S
N85 N86 1.388 . S
N86 Co69 1.993 . S
N86 N85 1.388 . S
N86 C87 1.346 . S
C87 N86 1.346 . S
C87 C88 1.396 . S
C87 C97 1.510 . S
C88 C84 1.401 . S
C88 C87 1.396 . S
C89 C84 1.499 . S
C89 H90 0.959 . S
C89 H91 0.960 . S
C89 H92 0.961 . S
H90 C89 0.959 . S
H91 C89 0.960 . S
H92 C89 0.961 . S
O93 Co68 1.967 . S
O93 C101 1.258 . S
O94 Co69 1.941 . S
O94 C101 1.266 . S
H95 C97 0.959 . S
H96 C97 0.961 . S
C97 C87 1.510 . S
C97 H95 0.959 . S
C97 H96 0.961 . S
C97 H98 0.960 . S
H98 C97 0.960 . S
H99 N79 0.862 . S
O100 Co68 1.920 . S
O100 C73 1.289 . S
C101 O93 1.258 . S
C101 O94 1.266 . S
Co102 O105 1.970 . S
Co102 N119 1.989 . S
Co102 O127 1.967 . S
Co102 O134 1.920 . S
Co103 O106 1.966 . S
Co103 N112 2.022 . S
Co103 N120 1.993 . S
Co103 O128 1.941 . S
C104 O105 1.258 . S
C104 O106 1.263 . S
O105 Co102 1.970 . S
O105 C104 1.258 . S
O106 Co103 1.966 . S
O106 C104 1.263 . S
C107 O108 1.235 . S
C107 O134 1.289 . S
O108 C107 1.235 . S
C109 C111 1.400 . S
C109 N112 1.351 . S
C109 C114 1.501 . S
C110 C111 1.387 . S
C110 N113 1.341 . S
C111 C109 1.400 . S
C111 C110 1.387 . S
N112 Co103 2.022 . S
N112 C109 1.351 . S
N112 N113 1.365 . S
N113 C110 1.341 . S
N113 N112 1.365 . S
N113 H133 0.862 . S
C114 C109 1.501 . S
C114 H115 0.961 . S
C114 H116 0.961 . S
C114 H117 0.960 . S
H115 C114 0.961 . S
H116 C114 0.961 . S
H117 C114 0.960 . S
C118 N119 1.342 . S
C118 C122 1.401 . S
C118 C123 1.499 . S
N119 Co102 1.989 . S
N119 C118 1.342 . S
N119 N120 1.388 . S
N120 Co103 1.993 . S
N120 N119 1.388 . S
N120 C121 1.346 . S
C121 N120 1.346 . S
C121 C122 1.396 . S
C121 C131 1.510 . S
C122 C118 1.401 . S
C122 C121 1.396 . S
C123 C118 1.499 . S
C123 H124 0.959 . S
C123 H125 0.960 . S
C123 H126 0.961 . S
H124 C123 0.959 . S
H125 C123 0.960 . S
H126 C123 0.961 . S
O127 Co102 1.967 . S
O127 C135 1.258 . S
O128 Co103 1.941 . S
O128 C135 1.266 . S
H129 C131 0.959 . S
H130 C131 0.961 . S
C131 C121 1.510 . S
C131 H129 0.959 . S
C131 H130 0.961 . S
C131 H132 0.960 . S
H132 C131 0.960 . S
H133 N113 0.862 . S
O134 Co102 1.920 . S
O134 C107 1.289 . S
C135 O127 1.258 . S
C135 O128 1.266 . S
Co136 O139 1.970 . S
Co136 N153 1.989 . S
Co136 O161 1.967 . S
Co136 O168 1.920 . S
Co137 O140 1.966 . S
Co137 N146 2.022 . S
Co137 N154 1.993 . S
Co137 O162 1.941 . S
C138 O139 1.258 . S
C138 O140 1.263 . S
O139 Co136 1.970 . S
O139 C138 1.258 . S
O140 Co137 1.966 . S
O140 C138 1.263 . S
C141 O142 1.235 . S
C141 O168 1.289 . S
O142 C141 1.235 . S
C143 C145 1.400 . S
C143 N146 1.351 . S
C143 C148 1.501 . S
C144 C145 1.387 . S
C144 N147 1.341 . S
C145 C143 1.400 . S
C145 C144 1.387 . S
N146 Co137 2.022 . S
N146 C143 1.351 . S
N146 N147 1.365 . S
N147 C144 1.341 . S
N147 N146 1.365 . S
N147 H167 0.862 . S
C148 C143 1.501 . S
C148 H149 0.961 . S
C148 H150 0.961 . S
C148 H151 0.960 . S
H149 C148 0.961 . S
H150 C148 0.961 . S
H151 C148 0.960 . S
C152 N153 1.342 . S
C152 C156 1.401 . S
C152 C157 1.499 . S
N153 Co136 1.989 . S
N153 C152 1.342 . S
N153 N154 1.388 . S
N154 Co137 1.993 . S
N154 N153 1.388 . S
N154 C155 1.346 . S
C155 N154 1.346 . S
C155 C156 1.396 . S
C155 C165 1.510 . S
C156 C152 1.401 . S
C156 C155 1.396 . S
C157 C152 1.499 . S
C157 H158 0.959 . S
C157 H159 0.960 . S
C157 H160 0.961 . S
H158 C157 0.959 . S
H159 C157 0.960 . S
H160 C157 0.961 . S
O161 Co136 1.967 . S
O161 C169 1.258 . S
O162 Co137 1.941 . S
O162 C169 1.266 . S
H163 C165 0.959 . S
H164 C165 0.961 . S
C165 C155 1.510 . S
C165 H163 0.959 . S
C165 H164 0.961 . S
C165 H166 0.960 . S
H166 C165 0.960 . S
H167 N147 0.862 . S
O168 Co136 1.920 . S
O168 C141 1.289 . S
C169 O161 1.258 . S
C169 O162 1.266 . S
Co170 O173 1.970 . S
Co170 N187 1.989 . S
Co170 O195 1.967 . S
Co170 O202 1.920 . S
Co171 O174 1.966 . S
Co171 N180 2.022 . S
Co171 N188 1.993 . S
Co171 O196 1.941 . S
C172 O173 1.258 . S
C172 O174 1.263 . S
O173 Co170 1.970 . S
O173 C172 1.258 . S
O174 Co171 1.966 . S
O174 C172 1.263 . S
C175 O176 1.235 . S
C175 O202 1.289 . S
O176 C175 1.235 . S
C177 C179 1.400 . S
C177 N180 1.351 . S
C177 C182 1.501 . S
C178 C179 1.387 . S
C178 N181 1.341 . S
C179 C177 1.400 . S
C179 C178 1.387 . S
N180 Co171 2.022 . S
N180 C177 1.351 . S
N180 N181 1.365 . S
N181 C178 1.341 . S
N181 N180 1.365 . S
N181 H201 0.862 . S
C182 C177 1.501 . S
C182 H183 0.961 . S
C182 H184 0.961 . S
C182 H185 0.960 . S
H183 C182 0.961 . S
H184 C182 0.961 . S
H185 C182 0.960 . S
C186 N187 1.342 . S
C186 C190 1.401 . S
C186 C191 1.499 . S
N187 Co170 1.989 . S
N187 C186 1.342 . S
N187 N188 1.388 . S
N188 Co171 1.993 . S
N188 N187 1.388 . S
N188 C189 1.346 . S
C189 N188 1.346 . S
C189 C190 1.396 . S
C189 C199 1.510 . S
C190 C186 1.401 . S
C190 C189 1.396 . S
C191 C186 1.499 . S
C191 H192 0.959 . S
C191 H193 0.960 . S
C191 H194 0.961 . S
H192 C191 0.959 . S
H193 C191 0.960 . S
H194 C191 0.961 . S
O195 Co170 1.967 . S
O195 C203 1.258 . S
O196 Co171 1.941 . S
O196 C203 1.266 . S
H197 C199 0.959 . S
H198 C199 0.961 . S
C199 C189 1.510 . S
C199 H197 0.959 . S
C199 H198 0.961 . S
C199 H200 0.960 . S
H200 C199 0.960 . S
H201 N181 0.862 . S
O202 Co170 1.920 . S
O202 C175 1.289 . S
C203 O195 1.258 . S
C203 O196 1.266 . S
Co204 O207 1.970 . S
Co204 N221 1.989 . S
Co204 O229 1.967 . S
Co204 O236 1.920 . S
Co205 O208 1.966 . S
Co205 N214 2.022 . S
Co205 N222 1.993 . S
Co205 O230 1.941 . S
C206 O207 1.258 . S
C206 O208 1.263 . S
O207 Co204 1.970 . S
O207 C206 1.258 . S
O208 Co205 1.966 . S
O208 C206 1.263 . S
C209 O210 1.235 . S
C209 O236 1.289 . S
O210 C209 1.235 . S
C211 C213 1.400 . S
C211 N214 1.351 . S
C211 C216 1.501 . S
C212 C213 1.387 . S
C212 N215 1.341 . S
C213 C211 1.400 . S
C213 C212 1.387 . S
N214 Co205 2.022 . S
N214 C211 1.351 . S
N214 N215 1.365 . S
N215 C212 1.341 . S
N215 N214 1.365 . S
N215 H235 0.862 . S
C216 C211 1.501 . S
C216 H217 0.961 . S
C216 H218 0.961 . S
C216 H219 0.960 . S
H217 C216 0.961 . S
H218 C216 0.961 . S
H219 C216 0.960 . S
C220 N221 1.342 . S
C220 C224 1.401 . S
C220 C225 1.499 . S
N221 Co204 1.989 . S
N221 C220 1.342 . S
N221 N222 1.388 . S
N222 Co205 1.993 . S
N222 N221 1.388 . S
N222 C223 1.346 . S
C223 N222 1.346 . S
C223 C224 1.396 . S
C223 C233 1.510 . S
C224 C220 1.401 . S
C224 C223 1.396 . S
C225 C220 1.499 . S
C225 H226 0.959 . S
C225 H227 0.960 . S
C225 H228 0.961 . S
H226 C225 0.959 . S
H227 C225 0.960 . S
H228 C225 0.961 . S
O229 Co204 1.967 . S
O229 C237 1.258 . S
O230 Co205 1.941 . S
O230 C237 1.266 . S
H231 C233 0.959 . S
H232 C233 0.961 . S
C233 C223 1.510 . S
C233 H231 0.959 . S
C233 H232 0.961 . S
C233 H234 0.960 . S
H234 C233 0.960 . S
H235 N215 0.862 . S
O236 Co204 1.920 . S
O236 C209 1.289 . S
C237 O229 1.258 . S
C237 O230 1.266 . S
Co238 O241 1.970 . S
Co238 N255 1.989 . S
Co238 O263 1.967 . S
Co238 O270 1.920 . S
Co239 O242 1.966 . S
Co239 N248 2.022 . S
Co239 N256 1.993 . S
Co239 O264 1.941 . S
C240 O241 1.258 . S
C240 O242 1.263 . S
O241 Co238 1.970 . S
O241 C240 1.258 . S
O242 Co239 1.966 . S
O242 C240 1.263 . S
C243 O244 1.235 . S
C243 O270 1.289 . S
O244 C243 1.235 . S
C245 C247 1.400 . S
C245 N248 1.351 . S
C245 C250 1.501 . S
C246 C247 1.387 . S
C246 N249 1.341 . S
C247 C245 1.400 . S
C247 C246 1.387 . S
N248 Co239 2.022 . S
N248 C245 1.351 . S
N248 N249 1.365 . S
N249 C246 1.341 . S
N249 N248 1.365 . S
N249 H269 0.862 . S
C250 C245 1.501 . S
C250 H251 0.961 . S
C250 H252 0.961 . S
C250 H253 0.960 . S
H251 C250 0.961 . S
H252 C250 0.961 . S
H253 C250 0.960 . S
C254 N255 1.342 . S
C254 C258 1.401 . S
C254 C259 1.499 . S
N255 Co238 1.989 . S
N255 C254 1.342 . S
N255 N256 1.388 . S
N256 Co239 1.993 . S
N256 N255 1.388 . S
N256 C257 1.346 . S
C257 N256 1.346 . S
C257 C258 1.396 . S
C257 C267 1.510 . S
C258 C254 1.401 . S
C258 C257 1.396 . S
C259 C254 1.499 . S
C259 H260 0.959 . S
C259 H261 0.960 . S
C259 H262 0.961 . S
H260 C259 0.959 . S
H261 C259 0.960 . S
H262 C259 0.961 . S
O263 Co238 1.967 . S
O263 C271 1.258 . S
O264 Co239 1.941 . S
O264 C271 1.266 . S
H265 C267 0.959 . S
H266 C267 0.961 . S
C267 C257 1.510 . S
C267 H265 0.959 . S
C267 H266 0.961 . S
C267 H268 0.960 . S
H268 C267 0.960 . S
H269 N249 0.862 . S
O270 Co238 1.920 . S
O270 C243 1.289 . S
C271 O263 1.258 . S
C271 O264 1.266 . S
Co272 O275 1.970 . S
Co272 N289 1.989 . S
Co272 O297 1.967 . S
Co272 O304 1.920 . S
Co273 O276 1.966 . S
Co273 N282 2.022 . S
Co273 N290 1.993 . S
Co273 O298 1.941 . S
C274 O275 1.258 . S
C274 O276 1.263 . S
O275 Co272 1.970 . S
O275 C274 1.258 . S
O276 Co273 1.966 . S
O276 C274 1.263 . S
C277 O278 1.235 . S
C277 O304 1.289 . S
O278 C277 1.235 . S
C279 C281 1.400 . S
C279 N282 1.351 . S
C279 C284 1.501 . S
C280 C281 1.387 . S
C280 N283 1.341 . S
C281 C279 1.400 . S
C281 C280 1.387 . S
N282 Co273 2.022 . S
N282 C279 1.351 . S
N282 N283 1.365 . S
N283 C280 1.341 . S
N283 N282 1.365 . S
N283 H303 0.862 . S
C284 C279 1.501 . S
C284 H285 0.961 . S
C284 H286 0.961 . S
C284 H287 0.960 . S
H285 C284 0.961 . S
H286 C284 0.961 . S
H287 C284 0.960 . S
C288 N289 1.342 . S
C288 C292 1.401 . S
C288 C293 1.499 . S
N289 Co272 1.989 . S
N289 C288 1.342 . S
N289 N290 1.388 . S
N290 Co273 1.993 . S
N290 N289 1.388 . S
N290 C291 1.346 . S
C291 N290 1.346 . S
C291 C292 1.396 . S
C291 C301 1.510 . S
C292 C288 1.401 . S
C292 C291 1.396 . S
C293 C288 1.499 . S
C293 H294 0.959 . S
C293 H295 0.960 . S
C293 H296 0.961 . S
H294 C293 0.959 . S
H295 C293 0.960 . S
H296 C293 0.961 . S
O297 Co272 1.967 . S
O297 C305 1.258 . S
O298 Co273 1.941 . S
O298 C305 1.266 . S
H299 C301 0.959 . S
H300 C301 0.961 . S
C301 C291 1.510 . S
C301 H299 0.959 . S
C301 H300 0.961 . S
C301 H302 0.960 . S
H302 C301 0.960 . S
H303 N283 0.862 . S
O304 Co272 1.920 . S
O304 C277 1.289 . S
C305 O297 1.258 . S
C305 O298 1.266 . S
Co306 O309 1.970 . S
Co306 N323 1.989 . S
Co306 O331 1.967 . S
Co306 O338 1.920 . S
Co307 O310 1.966 . S
Co307 N316 2.022 . S
Co307 N324 1.993 . S
Co307 O332 1.941 . S
C308 O309 1.258 . S
C308 O310 1.263 . S
O309 Co306 1.970 . S
O309 C308 1.258 . S
O310 Co307 1.966 . S
O310 C308 1.263 . S
C311 O312 1.235 . S
C311 O338 1.289 . S
O312 C311 1.235 . S
C313 C315 1.400 . S
C313 N316 1.351 . S
C313 C318 1.501 . S
C314 C315 1.387 . S
C314 N317 1.341 . S
C315 C313 1.400 . S
C315 C314 1.387 . S
N316 Co307 2.022 . S
N316 C313 1.351 . S
N316 N317 1.365 . S
N317 C314 1.341 . S
N317 N316 1.365 . S
N317 H337 0.862 . S
C318 C313 1.501 . S
C318 H319 0.961 . S
C318 H320 0.961 . S
C318 H321 0.960 . S
H319 C318 0.961 . S
H320 C318 0.961 . S
H321 C318 0.960 . S
C322 N323 1.342 . S
C322 C326 1.401 . S
C322 C327 1.499 . S
N323 Co306 1.989 . S
N323 C322 1.342 . S
N323 N324 1.388 . S
N324 Co307 1.993 . S
N324 N323 1.388 . S
N324 C325 1.346 . S
C325 N324 1.346 . S
C325 C326 1.396 . S
C325 C335 1.510 . S
C326 C322 1.401 . S
C326 C325 1.396 . S
C327 C322 1.499 . S
C327 H328 0.959 . S
C327 H329 0.960 . S
C327 H330 0.961 . S
H328 C327 0.959 . S
H329 C327 0.960 . S
H330 C327 0.961 . S
O331 Co306 1.967 . S
O331 C339 1.258 . S
O332 Co307 1.941 . S
O332 C339 1.266 . S
H333 C335 0.959 . S
H334 C335 0.961 . S
C335 C325 1.510 . S
C335 H333 0.959 . S
C335 H334 0.961 . S
C335 H336 0.960 . S
H336 C335 0.960 . S
H337 N317 0.862 . S
O338 Co306 1.920 . S
O338 C311 1.289 . S
C339 O331 1.258 . S
C339 O332 1.266 . S
Co340 O343 1.970 . S
Co340 N357 1.989 . S
Co340 O365 1.967 . S
Co340 O372 1.920 . S
Co341 O344 1.966 . S
Co341 N350 2.022 . S
Co341 N358 1.993 . S
Co341 O366 1.941 . S
C342 O343 1.258 . S
C342 O344 1.263 . S
O343 Co340 1.970 . S
O343 C342 1.258 . S
O344 Co341 1.966 . S
O344 C342 1.263 . S
C345 O346 1.235 . S
C345 O372 1.289 . S
O346 C345 1.235 . S
C347 C349 1.400 . S
C347 N350 1.351 . S
C347 C352 1.501 . S
C348 C349 1.387 . S
C348 N351 1.341 . S
C349 C347 1.400 . S
C349 C348 1.387 . S
N350 Co341 2.022 . S
N350 C347 1.351 . S
N350 N351 1.365 . S
N351 C348 1.341 . S
N351 N350 1.365 . S
N351 H371 0.862 . S
C352 C347 1.501 . S
C352 H353 0.961 . S
C352 H354 0.961 . S
C352 H355 0.960 . S
H353 C352 0.961 . S
H354 C352 0.961 . S
H355 C352 0.960 . S
C356 N357 1.342 . S
C356 C360 1.401 . S
C356 C361 1.499 . S
N357 Co340 1.989 . S
N357 C356 1.342 . S
N357 N358 1.388 . S
N358 Co341 1.993 . S
N358 N357 1.388 . S
N358 C359 1.346 . S
C359 N358 1.346 . S
C359 C360 1.396 . S
C359 C369 1.510 . S
C360 C356 1.401 . S
C360 C359 1.396 . S
C361 C356 1.499 . S
C361 H362 0.959 . S
C361 H363 0.960 . S
C361 H364 0.961 . S
H362 C361 0.959 . S
H363 C361 0.960 . S
H364 C361 0.961 . S
O365 Co340 1.967 . S
O365 C373 1.258 . S
O366 Co341 1.941 . S
O366 C373 1.266 . S
H367 C369 0.959 . S
H368 C369 0.961 . S
C369 C359 1.510 . S
C369 H367 0.959 . S
C369 H368 0.961 . S
C369 H370 0.960 . S
H370 C369 0.960 . S
H371 N351 0.862 . S
O372 Co340 1.920 . S
O372 C345 1.289 . S
C373 O365 1.258 . S
C373 O366 1.266 . S
Co374 O377 1.970 . S
Co374 N391 1.989 . S
Co374 O399 1.967 . S
Co374 O406 1.920 . S
Co375 O378 1.966 . S
Co375 N384 2.022 . S
Co375 N392 1.993 . S
Co375 O400 1.941 . S
C376 O377 1.258 . S
C376 O378 1.263 . S
O377 Co374 1.970 . S
O377 C376 1.258 . S
O378 Co375 1.966 . S
O378 C376 1.263 . S
C379 O380 1.235 . S
C379 O406 1.289 . S
O380 C379 1.235 . S
C381 C383 1.400 . S
C381 N384 1.351 . S
C381 C386 1.501 . S
C382 C383 1.387 . S
C382 N385 1.341 . S
C383 C381 1.400 . S
C383 C382 1.387 . S
N384 Co375 2.022 . S
N384 C381 1.351 . S
N384 N385 1.365 . S
N385 C382 1.341 . S
N385 N384 1.365 . S
N385 H405 0.862 . S
C386 C381 1.501 . S
C386 H387 0.961 . S
C386 H388 0.961 . S
C386 H389 0.960 . S
H387 C386 0.961 . S
H388 C386 0.961 . S
H389 C386 0.960 . S
C390 N391 1.342 . S
C390 C394 1.401 . S
C390 C395 1.499 . S
N391 Co374 1.989 . S
N391 C390 1.342 . S
N391 N392 1.388 . S
N392 Co375 1.993 . S
N392 N391 1.388 . S
N392 C393 1.346 . S
C393 N392 1.346 . S
C393 C394 1.396 . S
C393 C403 1.510 . S
C394 C390 1.401 . S
C394 C393 1.396 . S
C395 C390 1.499 . S
C395 H396 0.959 . S
C395 H397 0.960 . S
C395 H398 0.961 . S
H396 C395 0.959 . S
H397 C395 0.960 . S
H398 C395 0.961 . S
O399 Co374 1.967 . S
O399 C407 1.258 . S
O400 Co375 1.941 . S
O400 C407 1.266 . S
H401 C403 0.959 . S
H402 C403 0.961 . S
C403 C393 1.510 . S
C403 H401 0.959 . S
C403 H402 0.961 . S
C403 H404 0.960 . S
H404 C403 0.960 . S
H405 N385 0.862 . S
O406 Co374 1.920 . S
O406 C379 1.289 . S
C407 O399 1.258 . S
C407 O400 1.266 . S
H408 C416 0.950 . S
H409 C421 0.950 . S
H410 C418 0.950 . S
H411 C420 0.950 . S
H412 C422 0.950 . S
H413 C424 0.950 . S
H414 C426 0.950 . S
H415 C427 0.950 . S
C416 H408 0.950 . S
C416 C417 1.386 . S
C416 C418 1.391 . S
C417 C416 1.386 . S
C417 C421 1.393 . S
C418 H410 0.950 . S
C418 C416 1.391 . S
C418 C419 1.400 . S
C419 C418 1.400 . S
C419 C420 1.398 . S
C419 C425 1.491 . S
C420 H411 0.950 . S
C420 C419 1.398 . S
C420 C421 1.391 . S
C421 H409 0.950 . S
C421 C417 1.393 . S
C421 C420 1.391 . S
C422 H412 0.950 . S
C422 C423 1.386 . S
C422 C424 1.391 . S
C423 C422 1.386 . S
C423 C427 1.393 . S
C424 H413 0.950 . S
C424 C422 1.391 . S
C424 C425 1.400 . S
C425 C419 1.491 . S
C425 C424 1.400 . S
C425 C426 1.398 . S
C426 H414 0.950 . S
C426 C425 1.398 . S
C426 C427 1.391 . S
C427 H415 0.950 . S
C427 C423 1.393 . S
C427 C426 1.391 . S
H428 C436 0.950 . S
H429 C441 0.950 . S
H430 C438 0.950 . S
H431 C440 0.950 . S
H432 C442 0.950 . S
H433 C444 0.950 . S
H434 C446 0.950 . S
H435 C447 0.950 . S
C436 H428 0.950 . S
C436 C437 1.386 . S
C436 C438 1.391 . S
C437 C436 1.386 . S
C437 C441 1.393 . S
C438 H430 0.950 . S
C438 C436 1.391 . S
C438 C439 1.400 . S
C439 C438 1.400 . S
C439 C440 1.398 . S
C439 C445 1.491 . S
C440 H431 0.950 . S
C440 C439 1.398 . S
C440 C441 1.391 . S
C441 H429 0.950 . S
C441 C437 1.393 . S
C441 C440 1.391 . S
C442 H432 0.950 . S
C442 C443 1.386 . S
C442 C444 1.391 . S
C443 C442 1.386 . S
C443 C447 1.393 . S
C444 H433 0.950 . S
C444 C442 1.391 . S
C444 C445 1.400 . S
C445 C439 1.491 . S
C445 C444 1.400 . S
C445 C446 1.398 . S
C446 H434 0.950 . S
C446 C445 1.398 . S
C446 C447 1.391 . S
C447 H435 0.950 . S
C447 C443 1.393 . S
C447 C446 1.391 . S
H448 C456 0.950 . S
H449 C461 0.950 . S
H450 C458 0.950 . S
H451 C460 0.950 . S
H452 C462 0.950 . S
H453 C464 0.950 . S
H454 C466 0.950 . S
H455 C467 0.950 . S
C456 H448 0.950 . S
C456 C457 1.386 . S
C456 C458 1.391 . S
C457 C456 1.386 . S
C457 C461 1.393 . S
C458 H450 0.950 . S
C458 C456 1.391 . S
C458 C459 1.400 . S
C459 C458 1.400 . S
C459 C460 1.398 . S
C459 C465 1.491 . S
C460 H451 0.950 . S
C460 C459 1.398 . S
C460 C461 1.391 . S
C461 H449 0.950 . S
C461 C457 1.393 . S
C461 C460 1.391 . S
C462 H452 0.950 . S
C462 C463 1.386 . S
C462 C464 1.391 . S
C463 C462 1.386 . S
C463 C467 1.393 . S
C464 H453 0.950 . S
C464 C462 1.391 . S
C464 C465 1.400 . S
C465 C459 1.491 . S
C465 C464 1.400 . S
C465 C466 1.398 . S
C466 H454 0.950 . S
C466 C465 1.398 . S
C466 C467 1.391 . S
C467 H455 0.950 . S
C467 C463 1.393 . S
C467 C466 1.391 . S
H468 C476 0.950 . S
H469 C481 0.950 . S
H470 C478 0.950 . S
H471 C480 0.950 . S
H472 C482 0.950 . S
H473 C484 0.950 . S
H474 C486 0.950 . S
H475 C487 0.950 . S
C476 H468 0.950 . S
C476 C477 1.386 . S
C476 C478 1.391 . S
C477 C476 1.386 . S
C477 C481 1.393 . S
C478 H470 0.950 . S
C478 C476 1.391 . S
C478 C479 1.400 . S
C479 C478 1.400 . S
C479 C480 1.398 . S
C479 C485 1.491 . S
C480 H471 0.950 . S
C480 C479 1.398 . S
C480 C481 1.391 . S
C481 H469 0.950 . S
C481 C477 1.393 . S
C481 C480 1.391 . S
C482 H472 0.950 . S
C482 C483 1.386 . S
C482 C484 1.391 . S
C483 C482 1.386 . S
C483 C487 1.393 . S
C484 H473 0.950 . S
C484 C482 1.391 . S
C484 C485 1.400 . S
C485 C479 1.491 . S
C485 C484 1.400 . S
C485 C486 1.398 . S
C486 H474 0.950 . S
C486 C485 1.398 . S
C486 C487 1.391 . S
C487 H475 0.950 . S
C487 C483 1.393 . S
C487 C486 1.391 . S
H488 C496 0.950 . S
H489 C501 0.950 . S
H490 C498 0.950 . S
H491 C500 0.950 . S
H492 C502 0.950 . S
H493 C504 0.950 . S
H494 C506 0.950 . S
H495 C507 0.950 . S
C496 H488 0.950 . S
C496 C497 1.386 . S
C496 C498 1.391 . S
C497 C496 1.386 . S
C497 C501 1.393 . S
C498 H490 0.950 . S
C498 C496 1.391 . S
C498 C499 1.400 . S
C499 C498 1.400 . S
C499 C500 1.398 . S
C499 C505 1.491 . S
C500 H491 0.950 . S
C500 C499 1.398 . S
C500 C501 1.391 . S
C501 H489 0.950 . S
C501 C497 1.393 . S
C501 C500 1.391 . S
C502 H492 0.950 . S
C502 C503 1.386 . S
C502 C504 1.391 . S
C503 C502 1.386 . S
C503 C507 1.393 . S
C504 H493 0.950 . S
C504 C502 1.391 . S
C504 C505 1.400 . S
C505 C499 1.491 . S
C505 C504 1.400 . S
C505 C506 1.398 . S
C506 H494 0.950 . S
C506 C505 1.398 . S
C506 C507 1.391 . S
C507 H495 0.950 . S
C507 C503 1.393 . S
C507 C506 1.391 . S
H508 C516 0.950 . S
H509 C521 0.950 . S
H510 C518 0.950 . S
H511 C520 0.950 . S
H512 C522 0.950 . S
H513 C524 0.950 . S
H514 C526 0.950 . S
H515 C527 0.950 . S
C516 H508 0.950 . S
C516 C517 1.386 . S
C516 C518 1.391 . S
C517 C516 1.386 . S
C517 C521 1.393 . S
C518 H510 0.950 . S
C518 C516 1.391 . S
C518 C519 1.400 . S
C519 C518 1.400 . S
C519 C520 1.398 . S
C519 C525 1.491 . S
C520 H511 0.950 . S
C520 C519 1.398 . S
C520 C521 1.391 . S
C521 H509 0.950 . S
C521 C517 1.393 . S
C521 C520 1.391 . S
C522 H512 0.950 . S
C522 C523 1.386 . S
C522 C524 1.391 . S
C523 C522 1.386 . S
C523 C527 1.393 . S
C524 H513 0.950 . S
C524 C522 1.391 . S
C524 C525 1.400 . S
C525 C519 1.491 . S
C525 C524 1.400 . S
C525 C526 1.398 . S
C526 H514 0.950 . S
C526 C525 1.398 . S
C526 C527 1.391 . S
C527 H515 0.950 . S
C527 C523 1.393 . S
C527 C526 1.391 . S
H528 C536 0.950 . S
H529 C541 0.950 . S
H530 C538 0.950 . S
H531 C540 0.950 . S
H532 C542 0.950 . S
H533 C544 0.950 . S
H534 C546 0.950 . S
H535 C547 0.950 . S
C536 H528 0.950 . S
C536 C537 1.386 . S
C536 C538 1.391 . S
C537 C536 1.386 . S
C537 C541 1.393 . S
C538 H530 0.950 . S
C538 C536 1.391 . S
C538 C539 1.400 . S
C539 C538 1.400 . S
C539 C540 1.398 . S
C539 C545 1.491 . S
C540 H531 0.950 . S
C540 C539 1.398 . S
C540 C541 1.391 . S
C541 H529 0.950 . S
C541 C537 1.393 . S
C541 C540 1.391 . S
C542 H532 0.950 . S
C542 C543 1.386 . S
C542 C544 1.391 . S
C543 C542 1.386 . S
C543 C547 1.393 . S
C544 H533 0.950 . S
C544 C542 1.391 . S
C544 C545 1.400 . S
C545 C539 1.491 . S
C545 C544 1.400 . S
C545 C546 1.398 . S
C546 H534 0.950 . S
C546 C545 1.398 . S
C546 C547 1.391 . S
C547 H535 0.950 . S
C547 C543 1.393 . S
C547 C546 1.391 . S
H548 C556 0.950 . S
H549 C561 0.950 . S
H550 C558 0.950 . S
H551 C560 0.950 . S
H552 C562 0.950 . S
H553 C564 0.950 . S
H554 C566 0.950 . S
H555 C567 0.950 . S
C556 H548 0.950 . S
C556 C557 1.386 . S
C556 C558 1.391 . S
C557 C556 1.386 . S
C557 C561 1.393 . S
C558 H550 0.950 . S
C558 C556 1.391 . S
C558 C559 1.400 . S
C559 C558 1.400 . S
C559 C560 1.398 . S
C559 C565 1.491 . S
C560 H551 0.950 . S
C560 C559 1.398 . S
C560 C561 1.391 . S
C561 H549 0.950 . S
C561 C557 1.393 . S
C561 C560 1.391 . S
C562 H552 0.950 . S
C562 C563 1.386 . S
C562 C564 1.391 . S
C563 C562 1.386 . S
C563 C567 1.393 . S
C564 H553 0.950 . S
C564 C562 1.391 . S
C564 C565 1.400 . S
C565 C559 1.491 . S
C565 C564 1.400 . S
C565 C566 1.398 . S
C566 H554 0.950 . S
C566 C565 1.398 . S
C566 C567 1.391 . S
C567 H555 0.950 . S
C567 C563 1.393 . S
C567 C566 1.391 . S
H568 C576 0.950 . S
H569 C581 0.950 . S
H570 C578 0.950 . S
H571 C580 0.950 . S
H572 C582 0.950 . S
H573 C584 0.950 . S
H574 C586 0.950 . S
H575 C587 0.950 . S
C576 H568 0.950 . S
C576 C577 1.386 . S
C576 C578 1.391 . S
C577 C576 1.386 . S
C577 C581 1.393 . S
C578 H570 0.950 . S
C578 C576 1.391 . S
C578 C579 1.400 . S
C579 C578 1.400 . S
C579 C580 1.398 . S
C579 C585 1.491 . S
C580 H571 0.950 . S
C580 C579 1.398 . S
C580 C581 1.391 . S
C581 H569 0.950 . S
C581 C577 1.393 . S
C581 C580 1.391 . S
C582 H572 0.950 . S
C582 C583 1.386 . S
C582 C584 1.391 . S
C583 C582 1.386 . S
C583 C587 1.393 . S
C584 H573 0.950 . S
C584 C582 1.391 . S
C584 C585 1.400 . S
C585 C579 1.491 . S
C585 C584 1.400 . S
C585 C586 1.398 . S
C586 H574 0.950 . S
C586 C585 1.398 . S
C586 C587 1.391 . S
C587 H575 0.950 . S
C587 C583 1.393 . S
C587 C586 1.391 . S
H588 C596 0.950 . S
H589 C601 0.950 . S
H590 C598 0.950 . S
H591 C600 0.950 . S
H592 C602 0.950 . S
H593 C604 0.950 . S
H594 C606 0.950 . S
H595 C607 0.950 . S
C596 H588 0.950 . S
C596 C597 1.386 . S
C596 C598 1.391 . S
C597 C596 1.386 . S
C597 C601 1.393 . S
C598 H590 0.950 . S
C598 C596 1.391 . S
C598 C599 1.400 . S
C599 C598 1.400 . S
C599 C600 1.398 . S
C599 C605 1.491 . S
C600 H591 0.950 . S
C600 C599 1.398 . S
C600 C601 1.391 . S
C601 H589 0.950 . S
C601 C597 1.393 . S
C601 C600 1.391 . S
C602 H592 0.950 . S
C602 C603 1.386 . S
C602 C604 1.391 . S
C603 C602 1.386 . S
C603 C607 1.393 . S
C604 H593 0.950 . S
C604 C602 1.391 . S
C604 C605 1.400 . S
C605 C599 1.491 . S
C605 C604 1.400 . S
C605 C606 1.398 . S
C606 H594 0.950 . S
C606 C605 1.398 . S
C606 C607 1.391 . S
C607 H595 0.950 . S
C607 C603 1.393 . S
C607 C606 1.391 . S
H608 C616 0.950 . S
H609 C621 0.950 . S
H610 C618 0.950 . S
H611 C620 0.950 . S
H612 C622 0.950 . S
H613 C624 0.950 . S
H614 C626 0.950 . S
H615 C627 0.950 . S
C616 H608 0.950 . S
C616 C617 1.386 . S
C616 C618 1.391 . S
C617 C616 1.386 . S
C617 C621 1.393 . S
C618 H610 0.950 . S
C618 C616 1.391 . S
C618 C619 1.400 . S
C619 C618 1.400 . S
C619 C620 1.398 . S
C619 C625 1.491 . S
C620 H611 0.950 . S
C620 C619 1.398 . S
C620 C621 1.391 . S
C621 H609 0.950 . S
C621 C617 1.393 . S
C621 C620 1.391 . S
C622 H612 0.950 . S
C622 C623 1.386 . S
C622 C624 1.391 . S
C623 C622 1.386 . S
C623 C627 1.393 . S
C624 H613 0.950 . S
C624 C622 1.391 . S
C624 C625 1.400 . S
C625 C619 1.491 . S
C625 C624 1.400 . S
C625 C626 1.398 . S
C626 H614 0.950 . S
C626 C625 1.398 . S
C626 C627 1.391 . S
C627 H615 0.950 . S
C627 C623 1.393 . S
C627 C626 1.391 . S
H628 C636 0.950 . S
H629 C641 0.950 . S
H630 C638 0.950 . S
H631 C640 0.950 . S
H632 C642 0.950 . S
H633 C644 0.950 . S
H634 C646 0.950 . S
H635 C647 0.950 . S
C636 H628 0.950 . S
C636 C637 1.386 . S
C636 C638 1.391 . S
C637 C636 1.386 . S
C637 C641 1.393 . S
C638 H630 0.950 . S
C638 C636 1.391 . S
C638 C639 1.400 . S
C639 C638 1.400 . S
C639 C640 1.398 . S
C639 C645 1.491 . S
C640 H631 0.950 . S
C640 C639 1.398 . S
C640 C641 1.391 . S
C641 H629 0.950 . S
C641 C637 1.393 . S
C641 C640 1.391 . S
C642 H632 0.950 . S
C642 C643 1.386 . S
C642 C644 1.391 . S
C643 C642 1.386 . S
C643 C647 1.393 . S
C644 H633 0.950 . S
C644 C642 1.391 . S
C644 C645 1.400 . S
C645 C639 1.491 . S
C645 C644 1.400 . S
C645 C646 1.398 . S
C646 H634 0.950 . S
C646 C645 1.398 . S
C646 C647 1.391 . S
C647 H635 0.950 . S
C647 C643 1.393 . S
C647 C646 1.391 . S
H648 C656 0.950 . S
H649 C661 0.950 . S
H650 C658 0.950 . S
H651 C660 0.950 . S
H652 C662 0.950 . S
H653 C664 0.950 . S
H654 C666 0.950 . S
H655 C667 0.950 . S
C656 H648 0.950 . S
C656 C657 1.386 . S
C656 C658 1.391 . S
C657 C656 1.386 . S
C657 C661 1.393 . S
C658 H650 0.950 . S
C658 C656 1.391 . S
C658 C659 1.400 . S
C659 C658 1.400 . S
C659 C660 1.398 . S
C659 C665 1.491 . S
C660 H651 0.950 . S
C660 C659 1.398 . S
C660 C661 1.391 . S
C661 H649 0.950 . S
C661 C657 1.393 . S
C661 C660 1.391 . S
C662 H652 0.950 . S
C662 C663 1.386 . S
C662 C664 1.391 . S
C663 C662 1.386 . S
C663 C667 1.393 . S
C664 H653 0.950 . S
C664 C662 1.391 . S
C664 C665 1.400 . S
C665 C659 1.491 . S
C665 C664 1.400 . S
C665 C666 1.398 . S
C666 H654 0.950 . S
C666 C665 1.398 . S
C666 C667 1.391 . S
C667 H655 0.950 . S
C667 C663 1.393 . S
C667 C666 1.391 . S
H668 C676 0.950 . S
H669 C681 0.950 . S
H670 C678 0.950 . S
H671 C680 0.950 . S
H672 C682 0.950 . S
H673 C684 0.950 . S
H674 C686 0.950 . S
H675 C687 0.950 . S
C676 H668 0.950 . S
C676 C677 1.386 . S
C676 C678 1.391 . S
C677 C676 1.386 . S
C677 C681 1.393 . S
C678 H670 0.950 . S
C678 C676 1.391 . S
C678 C679 1.400 . S
C679 C678 1.400 . S
C679 C680 1.398 . S
C679 C685 1.491 . S
C680 H671 0.950 . S
C680 C679 1.398 . S
C680 C681 1.391 . S
C681 H669 0.950 . S
C681 C677 1.393 . S
C681 C680 1.391 . S
C682 H672 0.950 . S
C682 C683 1.386 . S
C682 C684 1.391 . S
C683 C682 1.386 . S
C683 C687 1.393 . S
C684 H673 0.950 . S
C684 C682 1.391 . S
C684 C685 1.400 . S
C685 C679 1.491 . S
C685 C684 1.400 . S
C685 C686 1.398 . S
C686 H674 0.950 . S
C686 C685 1.398 . S
C686 C687 1.391 . S
C687 H675 0.950 . S
C687 C683 1.393 . S
C687 C686 1.391 . S
H688 C696 0.950 . S
H689 C701 0.950 . S
H690 C698 0.950 . S
H691 C700 0.950 . S
H692 C702 0.950 . S
H693 C704 0.950 . S
H694 C706 0.950 . S
H695 C707 0.950 . S
C696 H688 0.950 . S
C696 C697 1.386 . S
C696 C698 1.391 . S
C697 C696 1.386 . S
C697 C701 1.393 . S
C698 H690 0.950 . S
C698 C696 1.391 . S
C698 C699 1.400 . S
C699 C698 1.400 . S
C699 C700 1.398 . S
C699 C705 1.491 . S
C700 H691 0.950 . S
C700 C699 1.398 . S
C700 C701 1.391 . S
C701 H689 0.950 . S
C701 C697 1.393 . S
C701 C700 1.391 . S
C702 H692 0.950 . S
C702 C703 1.386 . S
C702 C704 1.391 . S
C703 C702 1.386 . S
C703 C707 1.393 . S
C704 H693 0.950 . S
C704 C702 1.391 . S
C704 C705 1.400 . S
C705 C699 1.491 . S
C705 C704 1.400 . S
C705 C706 1.398 . S
C706 H694 0.950 . S
C706 C705 1.398 . S
C706 C707 1.391 . S
C707 H695 0.950 . S
C707 C703 1.393 . S
C707 C706 1.391 . S
H708 C716 0.950 . S
H709 C721 0.950 . S
H710 C718 0.950 . S
H711 C720 0.950 . S
H712 C722 0.950 . S
H713 C724 0.950 . S
H714 C726 0.950 . S
H715 C727 0.950 . S
C716 H708 0.950 . S
C716 C717 1.386 . S
C716 C718 1.391 . S
C717 C716 1.386 . S
C717 C721 1.393 . S
C718 H710 0.950 . S
C718 C716 1.391 . S
C718 C719 1.400 . S
C719 C718 1.400 . S
C719 C720 1.398 . S
C719 C725 1.491 . S
C720 H711 0.950 . S
C720 C719 1.398 . S
C720 C721 1.391 . S
C721 H709 0.950 . S
C721 C717 1.393 . S
C721 C720 1.391 . S
C722 H712 0.950 . S
C722 C723 1.386 . S
C722 C724 1.391 . S
C723 C722 1.386 . S
C723 C727 1.393 . S
C724 H713 0.950 . S
C724 C722 1.391 . S
C724 C725 1.400 . S
C725 C719 1.491 . S
C725 C724 1.400 . S
C725 C726 1.398 . S
C726 H714 0.950 . S
C726 C725 1.398 . S
C726 C727 1.391 . S
C727 H715 0.950 . S
C727 C723 1.393 . S
C727 C726 1.391 . S
H728 C736 0.950 . S
H729 C741 0.950 . S
H730 C738 0.950 . S
H731 C740 0.950 . S
H732 C742 0.950 . S
H733 C744 0.950 . S
H734 C746 0.950 . S
H735 C747 0.950 . S
C736 H728 0.950 . S
C736 C737 1.386 . S
C736 C738 1.391 . S
C737 C736 1.386 . S
C737 C741 1.393 . S
C738 H730 0.950 . S
C738 C736 1.391 . S
C738 C739 1.400 . S
C739 C738 1.400 . S
C739 C740 1.398 . S
C739 C745 1.491 . S
C740 H731 0.950 . S
C740 C739 1.398 . S
C740 C741 1.391 . S
C741 H729 0.950 . S
C741 C737 1.393 . S
C741 C740 1.391 . S
C742 H732 0.950 . S
C742 C743 1.386 . S
C742 C744 1.391 . S
C743 C742 1.386 . S
C743 C747 1.393 . S
C744 H733 0.950 . S
C744 C742 1.391 . S
C744 C745 1.400 . S
C745 C739 1.491 . S
C745 C744 1.400 . S
C745 C746 1.398 . S
C746 H734 0.950 . S
C746 C745 1.398 . S
C746 C747 1.391 . S
C747 H735 0.950 . S
C747 C743 1.393 . S
C747 C746 1.391 . S
H748 C756 0.950 . S
H749 C761 0.950 . S
H750 C758 0.950 . S
H751 C760 0.950 . S
H752 C762 0.950 . S
H753 C764 0.950 . S
H754 C766 0.950 . S
H755 C767 0.950 . S
C756 H748 0.950 . S
C756 C757 1.386 . S
C756 C758 1.391 . S
C757 C756 1.386 . S
C757 C761 1.393 . S
C758 H750 0.950 . S
C758 C756 1.391 . S
C758 C759 1.400 . S
C759 C758 1.400 . S
C759 C760 1.398 . S
C759 C765 1.491 . S
C760 H751 0.950 . S
C760 C759 1.398 . S
C760 C761 1.391 . S
C761 H749 0.950 . S
C761 C757 1.393 . S
C761 C760 1.391 . S
C762 H752 0.950 . S
C762 C763 1.386 . S
C762 C764 1.391 . S
C763 C762 1.386 . S
C763 C767 1.393 . S
C764 H753 0.950 . S
C764 C762 1.391 . S
C764 C765 1.400 . S
C765 C759 1.491 . S
C765 C764 1.400 . S
C765 C766 1.398 . S
C766 H754 0.950 . S
C766 C765 1.398 . S
C766 C767 1.391 . S
C767 H755 0.950 . S
C767 C763 1.393 . S
C767 C766 1.391 . S
H768 C776 0.950 . S
H769 C781 0.950 . S
H770 C778 0.932 1_554 S
H771 C780 0.950 . S
H772 C782 0.950 . S
H773 C784 0.932 1_556 S
H774 C786 0.950 . S
H775 C787 0.950 . S
C776 H768 0.950 . S
C776 C777 1.386 . S
C776 C778 1.391 . S
C777 C776 1.386 . S
C777 C781 1.393 . S
C778 H770 0.932 1_556 S
C778 C776 1.391 . S
C778 C779 1.400 . S
C779 C778 1.400 . S
C779 C780 1.398 . S
C779 C785 1.491 1_566 S
C780 H771 0.950 . S
C780 C779 1.398 . S
C780 C781 1.391 . S
C781 H769 0.950 . S
C781 C777 1.393 . S
C781 C780 1.391 . S
C782 H772 0.950 . S
C782 C783 1.386 . S
C782 C784 1.391 . S
C783 C782 1.386 . S
C783 C787 1.393 . S
C784 H773 0.932 1_554 S
C784 C782 1.391 . S
C784 C785 1.400 . S
C785 C779 1.491 1_544 S
C785 C784 1.400 . S
C785 C786 1.398 . S
C786 H774 0.950 . S
C786 C785 1.398 . S
C786 C787 1.391 . S
C787 H775 0.950 . S
C787 C783 1.393 . S
C787 C786 1.391 . S
H788 C796 0.950 . S
H789 C801 0.950 . S
H790 C798 0.950 . S
H791 C800 0.950 . S
H792 C802 0.950 . S
H793 C804 0.950 . S
H794 C806 0.950 . S
H795 C807 0.950 . S
C796 H788 0.950 . S
C796 C797 1.386 . S
C796 C798 1.391 . S
C797 C796 1.386 . S
C797 C801 1.393 . S
C798 H790 0.950 . S
C798 C796 1.391 . S
C798 C799 1.400 . S
C799 C798 1.400 . S
C799 C800 1.398 . S
C799 C805 1.491 . S
C800 H791 0.950 . S
C800 C799 1.398 . S
C800 C801 1.391 . S
C801 H789 0.950 . S
C801 C797 1.393 . S
C801 C800 1.391 . S
C802 H792 0.950 . S
C802 C803 1.386 . S
C802 C804 1.391 . S
C803 C802 1.386 . S
C803 C807 1.393 . S
C804 H793 0.950 . S
C804 C802 1.391 . S
C804 C805 1.400 . S
C805 C799 1.491 . S
C805 C804 1.400 . S
C805 C806 1.398 . S
C806 H794 0.950 . S
C806 C805 1.398 . S
C806 C807 1.391 . S
C807 H795 0.950 . S
C807 C803 1.393 . S
C807 C806 1.391 . S
H808 C816 0.950 . S
H809 C821 0.950 . S
H810 C818 0.950 1_556 S
H811 C820 0.950 . S
H812 C822 0.950 . S
H813 C824 0.950 1_554 S
H814 C826 0.950 . S
H815 C827 0.950 . S
C816 H808 0.950 . S
C816 C817 1.386 . S
C816 C818 1.391 . S
C817 C816 1.386 . S
C817 C821 1.393 . S
C818 H810 0.950 1_554 S
C818 C816 1.391 . S
C818 C819 1.400 . S
C819 C818 1.400 . S
C819 C820 1.398 . S
C819 C825 1.491 1_654 S
C820 H811 0.950 . S
C820 C819 1.398 . S
C820 C821 1.391 . S
C821 H809 0.950 . S
C821 C817 1.393 . S
C821 C820 1.391 . S
C822 H812 0.950 . S
C822 C823 1.386 . S
C822 C824 1.391 . S
C823 C822 1.386 . S
C823 C827 1.393 . S
C824 H813 0.950 1_556 S
C824 C822 1.391 . S
C824 C825 1.400 . S
C825 C819 1.491 1_456 S
C825 C824 1.400 . S
C825 C826 1.398 . S
C826 H814 0.950 . S
C826 C825 1.398 . S
C826 C827 1.391 . S
C827 H815 0.950 . S
C827 C823 1.393 . S
C827 C826 1.391 . S
H828 C836 0.950 . S
H829 C841 0.950 . S
H830 C838 0.950 . S
H831 C840 0.950 . S
H832 C842 0.950 . S
H833 C844 0.950 . S
H834 C846 0.950 . S
H835 C847 0.950 . S
C836 H828 0.950 . S
C836 C837 1.386 . S
C836 C838 1.391 . S
C837 C836 1.386 . S
C837 C841 1.393 . S
C838 H830 0.950 . S
C838 C836 1.391 . S
C838 C839 1.400 . S
C839 C838 1.400 . S
C839 C840 1.398 . S
C839 C845 1.491 1_565 S
C840 H831 0.950 . S
C840 C839 1.398 . S
C840 C841 1.391 . S
C841 H829 0.950 . S
C841 C837 1.393 . S
C841 C840 1.391 . S
C842 H832 0.950 . S
C842 C843 1.386 . S
C842 C844 1.391 . S
C843 C842 1.386 . S
C843 C847 1.393 . S
C844 H833 0.950 . S
C844 C842 1.391 . S
C844 C845 1.400 . S
C845 C839 1.491 1_545 S
C845 C844 1.400 . S
C845 C846 1.398 . S
C846 H834 0.950 . S
C846 C845 1.398 . S
C846 C847 1.391 . S
C847 H835 0.950 . S
C847 C843 1.393 . S
C847 C846 1.391 . S
H848 C856 0.950 . S
H849 C861 0.950 . S
H850 C858 0.950 . S
H851 C860 0.950 . S
H852 C862 0.950 . S
H853 C864 0.950 . S
H854 C866 0.950 . S
H855 C867 0.950 . S
C856 H848 0.950 . S
C856 C857 1.386 . S
C856 C858 1.391 . S
C857 C856 1.386 . S
C857 C861 1.393 . S
C858 H850 0.950 . S
C858 C856 1.391 . S
C858 C859 1.400 . S
C859 C858 1.400 . S
C859 C860 1.398 . S
C859 C865 1.491 1_554 S
C860 H851 0.950 . S
C860 C859 1.398 . S
C860 C861 1.391 . S
C861 H849 0.950 . S
C861 C857 1.393 . S
C861 C860 1.391 . S
C862 H852 0.950 . S
C862 C863 1.386 . S
C862 C864 1.391 . S
C863 C862 1.386 . S
C863 C867 1.393 . S
C864 H853 0.950 . S
C864 C862 1.391 . S
C864 C865 1.400 . S
C865 C859 1.491 1_556 S
C865 C864 1.400 . S
C865 C866 1.398 . S
C866 H854 0.950 . S
C866 C865 1.398 . S
C866 C867 1.391 . S
C867 H855 0.950 . S
C867 C863 1.393 . S
C867 C866 1.391 . S
H868 C876 0.950 . S
H869 C881 0.950 . S
H870 C878 0.950 . S
H871 C880 0.950 1_455 S
H872 C882 0.950 . S
H873 C884 0.950 . S
H874 C886 0.950 1_655 S
H875 C887 0.950 . S
C876 H868 0.950 . S
C876 C877 1.386 . S
C876 C878 1.391 . S
C877 C876 1.386 . S
C877 C881 1.393 . S
C878 H870 0.950 . S
C878 C876 1.391 . S
C878 C879 1.400 . S
C879 C878 1.400 . S
C879 C880 1.398 . S
C879 C885 1.491 1_655 S
C880 H871 0.950 1_655 S
C880 C879 1.398 . S
C880 C881 1.391 . S
C881 H869 0.950 . S
C881 C877 1.393 . S
C881 C880 1.391 . S
C882 H872 0.950 . S
C882 C883 1.386 . S
C882 C884 1.391 . S
C883 C882 1.386 . S
C883 C887 1.393 . S
C884 H873 0.950 . S
C884 C882 1.391 . S
C884 C885 1.400 . S
C885 C879 1.491 1_455 S
C885 C884 1.400 . S
C885 C886 1.398 . S
C886 H874 0.950 1_455 S
C886 C885 1.398 . S
C886 C887 1.391 . S
C887 H875 0.950 . S
C887 C883 1.393 . S
C887 C886 1.391 . S
H888 C896 0.950 . S
H889 C901 0.950 . S
H890 C898 0.936 1_565 S
H891 C900 0.970 . S
H892 C902 0.950 . S
H893 C904 0.936 1_545 S
H894 C906 0.970 . S
H895 C907 0.950 . S
C896 H888 0.950 . S
C896 C897 1.386 . S
C896 C898 1.391 . S
C897 C896 1.386 . S
C897 C901 1.393 . S
C898 H890 0.936 1_545 S
C898 C896 1.391 . S
C898 C899 1.400 . S
C899 C898 1.400 . S
C899 C900 1.391 1_554 S
C899 C905 1.491 1_544 S
C900 H891 0.970 . S
C900 C899 1.391 1_556 S
C900 C901 1.379 1_556 S
C901 H889 0.950 . S
C901 C897 1.393 . S
C901 C900 1.379 1_554 S
C902 H892 0.950 . S
C902 C903 1.386 . S
C902 C904 1.391 . S
C903 C902 1.386 . S
C903 C907 1.393 . S
C904 H893 0.936 1_565 S
C904 C902 1.391 . S
C904 C905 1.400 . S
C905 C899 1.491 1_566 S
C905 C904 1.400 . S
C905 C906 1.391 1_556 S
C906 H894 0.970 . S
C906 C905 1.391 1_554 S
C906 C907 1.379 1_554 S
C907 H895 0.950 . S
C907 C903 1.393 . S
C907 C906 1.379 1_556 S
H908 C916 0.950 . S
H909 C921 0.950 . S
H910 C918 0.950 . S
H911 C920 0.950 . S
H912 C922 0.950 . S
H913 C924 0.950 . S
H914 C926 0.950 . S
H915 C927 0.950 . S
C916 H908 0.950 . S
C916 C917 1.386 . S
C916 C918 1.391 . S
C917 C916 1.386 . S
C917 C921 1.393 . S
C918 H910 0.950 . S
C918 C916 1.391 . S
C918 C919 1.400 . S
C919 C918 1.400 . S
C919 C920 1.398 . S
C919 C925 1.491 . S
C920 H911 0.950 . S
C920 C919 1.398 . S
C920 C921 1.391 . S
C921 H909 0.950 . S
C921 C917 1.393 . S
C921 C920 1.391 . S
C922 H912 0.950 . S
C922 C923 1.386 . S
C922 C924 1.391 . S
C923 C922 1.386 . S
C923 C927 1.393 . S
C924 H913 0.950 . S
C924 C922 1.391 . S
C924 C925 1.400 . S
C925 C919 1.491 . S
C925 C924 1.400 . S
C925 C926 1.398 . S
C926 H914 0.950 . S
C926 C925 1.398 . S
C926 C927 1.391 . S
C927 H915 0.950 . S
C927 C923 1.393 . S
C927 C926 1.391 . S
H928 C936 0.950 . S
H929 C941 0.950 . S
H930 C938 0.950 . S
H931 C940 0.950 . S
H932 C942 0.950 . S
H933 C944 0.950 . S
H934 C946 0.950 . S
H935 C947 0.950 . S
C936 H928 0.950 . S
C936 C937 1.386 . S
C936 C938 1.391 . S
C937 C936 1.386 . S
C937 C941 1.393 . S
C938 H930 0.950 . S
C938 C936 1.391 . S
C938 C939 1.400 . S
C939 C938 1.400 . S
C939 C940 1.398 . S
C939 C945 1.491 1_654 S
C940 H931 0.950 . S
C940 C939 1.398 . S
C940 C941 1.391 . S
C941 H929 0.950 . S
C941 C937 1.393 . S
C941 C940 1.391 . S
C942 H932 0.950 . S
C942 C943 1.386 . S
C942 C944 1.391 . S
C943 C942 1.386 . S
C943 C947 1.393 . S
C944 H933 0.950 . S
C944 C942 1.391 . S
C944 C945 1.400 . S
C945 C939 1.491 1_456 S
C945 C944 1.400 . S
C945 C946 1.398 . S
C946 H934 0.950 . S
C946 C945 1.398 . S
C946 C947 1.391 . S
C947 H935 0.950 . S
C947 C943 1.393 . S
C947 C946 1.391 . S
H948 C956 0.950 . S
H949 C961 0.950 . S
H950 C958 0.950 1_545 S
H951 C960 0.950 . S
H952 C962 0.950 . S
H953 C964 0.950 1_565 S
H954 C966 0.950 . S
H955 C967 0.950 . S
C956 H948 0.950 . S
C956 C957 1.386 . S
C956 C958 1.391 . S
C957 C956 1.386 . S
C957 C961 1.393 . S
C958 H950 0.950 1_565 S
C958 C956 1.391 . S
C958 C959 1.400 . S
C959 C958 1.400 . S
C959 C960 1.398 . S
C959 C965 1.491 1_565 S
C960 H951 0.950 . S
C960 C959 1.398 . S
C960 C961 1.391 . S
C961 H949 0.950 . S
C961 C957 1.393 . S
C961 C960 1.391 . S
C962 H952 0.950 . S
C962 C963 1.386 . S
C962 C964 1.391 . S
C963 C962 1.386 . S
C963 C967 1.393 . S
C964 H953 0.950 1_545 S
C964 C962 1.391 . S
C964 C965 1.400 . S
C965 C959 1.491 1_545 S
C965 C964 1.400 . S
C965 C966 1.398 . S
C966 H954 0.950 . S
C966 C965 1.398 . S
C966 C967 1.391 . S
C967 H955 0.950 . S
C967 C963 1.393 . S
C967 C966 1.391 . S
H968 C976 0.950 . S
H969 C981 0.950 . S
H970 C978 0.950 . S
H971 C980 0.950 . S
H972 C982 0.950 . S
H973 C984 0.950 . S
H974 C986 0.950 . S
H975 C987 0.950 . S
C976 H968 0.950 . S
C976 C977 1.386 . S
C976 C978 1.391 . S
C977 C976 1.386 . S
C977 C981 1.393 . S
C978 H970 0.950 . S
C978 C976 1.391 . S
C978 C979 1.400 . S
C979 C978 1.400 . S
C979 C980 1.398 1_556 S
C979 C985 1.491 1_556 S
C980 H971 0.950 . S
C980 C979 1.398 1_554 S
C980 C981 1.391 1_554 S
C981 H969 0.950 . S
C981 C977 1.393 . S
C981 C980 1.391 1_556 S
C982 H972 0.950 . S
C982 C983 1.386 . S
C982 C984 1.391 . S
C983 C982 1.386 . S
C983 C987 1.393 . S
C984 H973 0.950 . S
C984 C982 1.391 . S
C984 C985 1.400 . S
C985 C979 1.491 1_554 S
C985 C984 1.400 . S
C985 C986 1.398 1_554 S
C986 H974 0.950 . S
C986 C985 1.398 1_556 S
C986 C987 1.391 1_556 S
C987 H975 0.950 . S
C987 C983 1.393 . S
C987 C986 1.391 1_554 S
H988 C996 0.950 . S
H989 C1001 0.950 . S
H990 C998 0.950 . S
H991 C1000 0.950 . S
H992 C1002 0.950 . S
H993 C1004 0.950 . S
H994 C1006 0.950 . S
H995 C1007 0.950 . S
C996 H988 0.950 . S
C996 C997 1.386 . S
C996 C998 1.391 . S
C997 C996 1.386 . S
C997 C1001 1.393 . S
C998 H990 0.950 . S
C998 C996 1.391 . S
C998 C999 1.400 . S
C999 C998 1.400 . S
C999 C1000 1.398 . S
C999 C1005 1.491 1_455 S
C1000 H991 0.950 . S
C1000 C999 1.398 . S
C1000 C1001 1.391 . S
C1001 H989 0.950 . S
C1001 C997 1.393 . S
C1001 C1000 1.391 . S
C1002 H992 0.950 . S
C1002 C1003 1.386 . S
C1002 C1004 1.391 . S
C1003 C1002 1.386 . S
C1003 C1007 1.393 . S
C1004 H993 0.950 . S
C1004 C1002 1.391 . S
C1004 C1005 1.400 . S
C1005 C999 1.491 1_655 S
C1005 C1004 1.400 . S
C1005 C1006 1.398 . S
C1006 H994 0.950 . S
C1006 C1005 1.398 . S
C1006 C1007 1.391 . S
C1007 H995 0.950 . S
C1007 C1003 1.393 . S
C1007 C1006 1.391 . S
C417 C73 1.508 . S
C423 C2 1.613 . S
C437 C36 1.605 . S
C443 C107 1.510 . S
C457 C70 1.612 . S
C463 C141 1.529 . S
C477 C104 1.610 . S
C483 C175 1.499 . S
C497 C138 1.608 . S
C503 C5 1.499 . S
C517 C39 1.529 . S
C523 C172 1.608 . S
C537 C206 1.611 . S
C543 C345 1.530 . S
C557 C240 1.613 . S
C563 C379 1.520 . S
C577 C209 1.527 . S
C583 C274 1.607 . S
C597 C243 1.504 . S
C603 C308 1.612 . S
C617 C277 1.529 . S
C623 C342 1.608 . S
C637 C311 1.511 . S
C643 C376 1.605 . S
C657 C305 1.254 . S
C663 C33 1.255 . S
C677 C67 1.255 . S
C683 C339 1.248 . S
C697 C373 1.246 . S
C703 C101 1.242 . S
C717 C407 1.252 . S
C723 C135 1.244 . S
C737 C169 1.254 . S
C743 C237 1.254 . S
C757 C271 1.242 . S
C763 C203 1.248 . S
C777 C247 1.529 . S
C783 C9 1.526 . S
C797 C43 1.527 . S
C803 C281 1.529 . S
C817 C77 1.518 . S
C823 C315 1.516 . S
C837 C111 1.517 . S
C843 C349 1.516 . S
C857 C145 1.529 . S
C863 C383 1.527 . S
C877 C213 1.525 . S
C883 C179 1.518 . S
C897 C88 1.856 . S
C903 C394 1.862 . S
C917 C224 1.862 . S
C923 C122 1.856 . S
C937 C156 1.859 . S
C943 C258 1.860 . S
C957 C190 1.856 . S
C963 C292 1.862 . S
C977 C326 1.856 . S
C983 C20 1.861 . S
C997 C54 1.860 . S
C1003 C360 1.856 . S
