# Generated by pormake.
# Topology uoj, (4)-cn, num edge types: 1
# Building blocks:
#     Node 0, Type 0, BuildingBlock: QUQFOY_clean_sbu_3, # of connection points: 4
#     Node 1, Type 0, BuildingBlock: QUQFOY_clean_sbu_3, # of connection points: 4
#     Node 2, Type 0, BuildingBlock: QUQFOY_clean_sbu_3, # of connection points: 4
#     Node 3, Type 0, BuildingBlock: QUQFOY_clean_sbu_3, # of connection points: 4
#     Node 4, Type 0, BuildingBlock: QUQFOY_clean_sbu_3, # of connection points: 4
#     Node 5, Type 0, BuildingBlock: QUQFOY_clean_sbu_3, # of connection points: 4
#     Node 6, Type 0, BuildingBlock: QUQFOY_clean_sbu_3, # of connection points: 4
#     Node 7, Type 0, BuildingBlock: QUQFOY_clean_sbu_3, # of connection points: 4
#     Edge 8, Type (0, 0), BuildingBlock: KIFKEQ_clean_linker_1, # of connection points: 2
#     Edge 9, Type (0, 0), BuildingBlock: KIFKEQ_clean_linker_1, # of connection points: 2
#     Edge 10, Type (0, 0), BuildingBlock: KIFKEQ_clean_linker_1, # of connection points: 2
#     Edge 11, Type (0, 0), BuildingBlock: KIFKEQ_clean_linker_1, # of connection points: 2
#     Edge 12, Type (0, 0), BuildingBlock: KIFKEQ_clean_linker_1, # of connection points: 2
#     Edge 13, Type (0, 0), BuildingBlock: KIFKEQ_clean_linker_1, # of connection points: 2
#     Edge 14, Type (0, 0), BuildingBlock: KIFKEQ_clean_linker_1, # of connection points: 2
#     Edge 15, Type (0, 0), BuildingBlock: KIFKEQ_clean_linker_1, # of connection points: 2
#     Edge 16, Type (0, 0), BuildingBlock: KIFKEQ_clean_linker_1, # of connection points: 2
#     Edge 17, Type (0, 0), BuildingBlock: KIFKEQ_clean_linker_1, # of connection points: 2
#     Edge 18, Type (0, 0), BuildingBlock: KIFKEQ_clean_linker_1, # of connection points: 2
#     Edge 19, Type (0, 0), BuildingBlock: KIFKEQ_clean_linker_1, # of connection points: 2
#     Edge 20, Type (0, 0), BuildingBlock: KIFKEQ_clean_linker_1, # of connection points: 2
#     Edge 21, Type (0, 0), BuildingBlock: KIFKEQ_clean_linker_1, # of connection points: 2
#     Edge 22, Type (0, 0), BuildingBlock: KIFKEQ_clean_linker_1, # of connection points: 2
#     Edge 23, Type (0, 0), BuildingBlock: KIFKEQ_clean_linker_1, # of connection points: 2
# Relax obj value: 0.110
# Max RMSD: 0.138
# Mean RMSD: 0.138
data_MOF--net-uoj--node1-QUQFOY_clean_sbu_3--edge1-KIFKEQ_clean_linker_1
_symmetry_space_group_name_H-M    P1
_symmetry_Int_Tables_number       1
_symmetry_cell_setting            triclinic
loop_
_symmetry_equiv_pos_as_xyz
'x, y, z'
_cell_length_a     35.176244
_cell_length_b     34.922564
_cell_length_c     37.172043
_cell_angle_alpha  89.926995
_cell_angle_beta   89.642388
_cell_angle_gamma 90.594893
loop_
_atom_site_label
_atom_site_type_symbol
_atom_site_fract_x
_atom_site_fract_y
_atom_site_fract_z
_atom_type_partial_charge
C0 C 0.0457 0.28829 0.33698 0.0
O1 O 0.01002 0.28287 0.33481 0.0
Cd2 Cd 0.96923 0.26666 0.38412 0.0
O3 O 0.06297 0.28367 0.36676 0.0
Cd4 Cd 0.04825 0.26243 0.42949 0.0
C5 C -0.00577 0.34028 0.4423 0.0
O6 O 0.00136 0.2153 0.41151 0.0
O7 O 0.00465 0.22541 0.46841 0.0
O8 O 0.10836 0.22987 0.42391 0.0
C9 C -0.01013 0.20674 0.4428 0.0
O10 O 0.96994 0.32357 0.42225 0.0
C11 C 0.11714 0.23262 0.45687 0.0
O12 O 0.02655 0.32542 0.44816 0.0
O13 O 0.095 0.25167 0.47697 0.0
C14 C 0.22121 0.86424 0.4926 0.0
O15 O 0.24098 0.87118 0.46461 0.0
Cd16 Cd 0.29313 0.916 0.46311 0.0
O17 O 0.23107 0.87763 0.52298 0.0
Cd18 Cd 0.28316 0.91444 0.55011 0.0
C19 C 0.24994 -0.00818 0.508 0.0
O20 O 0.33743 0.90497 0.50951 0.0
O21 O 0.33635 0.95594 0.54279 0.0
O22 O 0.30067 0.86502 0.5926 0.0
C23 C 0.35352 0.93586 0.51958 0.0
O24 O 0.26407 0.9764 0.47991 0.0
C25 C 0.29353 0.88438 0.62068 0.0
O26 O 0.25029 0.97468 0.53837 0.0
O27 O 0.28051 0.91787 0.61603 0.0
C28 C 0.90686 0.6769 0.34401 0.0
O29 O 0.94247 0.6831 0.34268 0.0
Cd30 Cd -0.0192 0.69481 0.39425 0.0
O31 O 0.88865 0.67945 0.37371 0.0
Cd32 Cd 0.90053 0.69802 0.43752 0.0
C33 C 0.95078 0.61775 0.44706 0.0
O34 O 0.9501 0.74459 0.4257 0.0
O35 O 0.94589 0.7257 0.48062 0.0
O36 O 0.84476 0.73691 0.43141 0.0
C37 C 0.96196 0.74738 0.45764 0.0
O38 O 0.9764 0.63528 0.42884 0.0
C39 C 0.83098 0.72972 0.46234 0.0
O40 O 0.91851 0.63293 0.45284 0.0
O41 O 0.84882 0.70601 0.48176 0.0
C42 C 0.74018 0.07215 0.48613 0.0
O43 O 0.72125 0.05841 0.46005 0.0
Cd44 Cd 0.65924 0.02882 0.46406 0.0
O45 O 0.72738 0.07059 0.51822 0.0
Cd46 Cd 0.67191 0.04538 0.55098 0.0
C47 C 0.68332 0.95445 0.51982 0.0
O48 O 0.62487 0.06443 0.50703 0.0
O49 O 0.60506 0.02906 0.55112 0.0
O50 O 0.67004 0.10046 0.59112 0.0
C51 C 0.59746 0.04763 0.52285 0.0
O52 O 0.67024 0.96632 0.48999 0.0
C53 C 0.67233 0.0811 0.61994 0.0
O54 O 0.69015 0.9775 0.54566 0.0
O55 O 0.6763 0.04513 0.61661 0.0
C56 C 0.37242 0.72632 -0.0045 0.0
O57 O 0.38277 0.74427 0.02353 0.0
Cd58 Cd 0.419 0.80273 0.02428 0.0
O59 O 0.37977 0.7395 0.96425 0.0
Cd60 Cd 0.41142 0.79525 0.93632 0.0
C61 C 0.49521 0.77045 0.97379 0.0
O62 O 0.39533 0.84484 0.97997 0.0
O63 O 0.44032 0.85738 0.94183 0.0
O64 O 0.36007 0.80586 0.89399 0.0
C65 C 0.41975 0.8685 0.96777 0.0
O66 O 0.48087 0.78238 0.00322 0.0
C67 C 0.38039 0.80211 0.86589 0.0
O68 O 0.4757 0.76948 0.94493 0.0
O69 O 0.41516 0.79391 0.87052 0.0
C70 C 0.79872 0.55773 0.12119 0.0
O71 O 0.79678 0.52137 0.12203 0.0
Cd72 Cd 0.77901 0.48107 0.07292 0.0
O73 O 0.79056 0.57618 0.09263 0.0
Cd74 Cd 0.76784 0.5625 0.03046 0.0
C75 C 0.84635 0.5119 0.01096 0.0
O76 O 0.7251 0.51275 0.05081 0.0
O77 O 0.72996 0.51743 -0.00657 0.0
O78 O 0.73466 0.6223 0.03902 0.0
C79 C 0.71458 0.50107 0.0203 0.0
O80 O 0.83165 0.48499 0.02977 0.0
C81 C 0.73467 0.63168 0.00603 0.0
O82 O 0.83083 0.54463 0.00889 0.0
O83 O 0.75206 0.60986 0.98431 0.0
C84 C 0.58697 0.24374 -0.00681 0.0
O85 O 0.57583 0.22536 0.02091 0.0
Cd86 Cd 0.54161 0.1656 0.02141 0.0
O87 O 0.5813 0.23067 0.96167 0.0
Cd88 Cd 0.55223 0.17494 0.93175 0.0
C89 C 0.4662 0.19567 0.96895 0.0
O90 O 0.56888 0.12724 0.97614 0.0
O91 O 0.52917 0.10971 0.93526 0.0
O92 O 0.6056 0.168 0.89047 0.0
C93 C 0.54798 0.10114 0.96301 0.0
O94 O 0.48014 0.18421 -0.00141 0.0
C95 C 0.5862 0.17139 0.86197 0.0
O96 O 0.48643 0.1974 0.94031 0.0
O97 O 0.55091 0.17789 0.86589 0.0
C98 C 0.1634 0.40867 0.11755 0.0
O99 O 0.1656 0.44499 0.11879 0.0
Cd100 Cd 0.1838 0.48613 0.0702 0.0
O101 O 0.17163 0.39056 0.08875 0.0
Cd102 Cd 0.19497 0.40467 0.0265 0.0
C103 C 0.11666 0.45597 0.0084 0.0
O104 O 0.23724 0.45397 0.0474 0.0
O105 O 0.23371 0.45026 0.98997 0.0
O106 O 0.22741 0.34432 0.03429 0.0
C107 C 0.24829 0.46636 0.01717 0.0
O108 O 0.13126 0.48252 0.02751 0.0
C109 C 0.22774 0.33553 0.00117 0.0
O110 O 0.13221 0.4233 0.00565 0.0
O111 O 0.21097 0.35799 0.97974 0.0
H112 H 0.13863 0.33417 0.12217 0.0
H113 H 0.1596 0.43526 0.18637 0.0
H114 H 0.11413 0.30084 0.17557 0.0
H115 H 0.13529 0.40192 0.23944 0.0
H116 H 0.11712 0.32009 0.33357 0.0
H117 H 0.14987 0.34558 0.28031 0.0
H118 H 0.05512 0.31072 0.21427 0.0
H119 H 0.02234 0.28538 0.26724 0.0
C120 C 0.13835 0.34914 0.14768 0.0
C121 C 0.15075 0.38744 0.15 0.0
C122 C 0.12426 0.3301 0.17816 0.0
C123 C 0.12285 0.34885 0.21156 0.0
C124 C 0.13641 0.38667 0.2141 0.0
C125 C 0.15002 0.40584 0.18362 0.0
C126 C 0.10348 0.31751 0.30763 0.0
C127 C 0.06702 0.30103 0.30465 0.0
C128 C 0.12217 0.33219 0.27723 0.0
C129 C 0.10496 0.33015 0.24325 0.0
C130 C 0.06918 0.31237 0.24009 0.0
C131 C 0.05031 0.29814 0.27048 0.0
H132 H 0.28052 0.91836 0.68585 0.0
H133 H 0.32599 0.81606 0.63732 0.0
H134 H 0.29913 0.89511 0.7451 0.0
H135 H 0.34425 0.79275 0.69654 0.0
H136 H 0.4163 0.79421 0.80093 0.0
H137 H 0.39227 0.81156 0.74175 0.0
H138 H 0.28522 0.84393 0.78979 0.0
H139 H 0.30931 0.82687 0.84905 0.0
C140 C 0.2941 0.89075 0.68786 0.0
C141 C 0.30194 0.86915 0.65689 0.0
C142 C 0.3046 0.87735 0.72181 0.0
C143 C 0.32331 0.84217 0.72544 0.0
C144 C 0.33031 0.82018 0.69454 0.0
C145 C 0.31965 0.83347 0.66065 0.0
C146 C 0.38751 0.80466 0.79883 0.0
C147 C 0.36477 0.80931 0.82968 0.0
C148 C 0.37368 0.81445 0.76491 0.0
C149 C 0.3369 0.82927 0.76115 0.0
C150 C 0.31384 0.83302 0.79191 0.0
C151 C 0.32758 0.82302 0.8258 0.0
H152 H 0.83624 0.64388 0.33846 0.0
H153 H 0.93246 0.68258 0.27475 0.0
H154 H 0.80623 0.61857 0.28419 0.0
H155 H 0.90238 0.65736 0.22071 0.0
H156 H 0.82221 0.63255 0.12669 0.0
H157 H 0.84453 0.66572 0.18067 0.0
H158 H 0.82418 0.56328 0.24333 0.0
H159 H 0.80206 0.5301 0.18969 0.0
C160 C 0.85075 0.64744 0.31287 0.0
C161 C 0.88687 0.66494 0.31094 0.0
C162 C 0.83364 0.63282 0.28188 0.0
C163 C 0.85208 0.6359 0.24834 0.0
C164 C 0.88741 0.65485 0.24618 0.0
C165 C 0.90472 0.66904 0.27718 0.0
C166 C 0.82226 0.61722 0.15204 0.0
C167 C 0.81063 0.57863 0.15388 0.0
C168 C 0.8351 0.63617 0.18286 0.0
C169 C 0.83599 0.61705 0.21612 0.0
C170 C 0.8234 0.57883 0.21811 0.0
C171 C 0.81105 0.55976 0.1873 0.0
H172 H 0.65754 0.1458 0.84679 0.0
H173 H 0.55362 0.18194 0.79613 0.0
H174 H 0.68348 0.12821 0.7881 0.0
H175 H 0.5797 0.16437 0.73744 0.0
H176 H 0.68272 0.04873 0.68604 0.0
H177 H 0.66595 0.07569 0.7445 0.0
H178 H 0.63213 0.18069 0.6929 0.0
H179 H 0.64899 0.15383 0.63435 0.0
C180 C 0.64043 0.15051 0.82309 0.0
C181 C 0.60342 0.16505 0.8261 0.0
C182 C 0.65525 0.14025 0.78954 0.0
C183 C 0.63355 0.14474 0.75827 0.0
C184 C 0.5972 0.16087 0.76108 0.0
C185 C 0.5822 0.17077 0.79469 0.0
C186 C 0.67229 0.07778 0.68721 0.0
C187 C 0.66702 0.09908 0.65559 0.0
C188 C 0.66283 0.09327 0.7207 0.0
C189 C 0.64755 0.13022 0.72319 0.0
C190 C 0.64353 0.15202 0.6917 0.0
C191 C 0.6534 0.1367 0.65824 0.0
H192 H 0.22857 0.02731 0.44666 0.0
H193 H 0.23592 0.04426 0.56154 0.0
H194 H 0.20462 0.09136 0.43944 0.0
H195 H 0.21292 0.10978 0.55418 0.0
H196 H 0.11887 0.19927 0.52293 0.0
H197 H 0.15654 0.14386 0.53936 0.0
H198 H 0.22167 0.15656 0.44093 0.0
H199 H 0.18229 0.21045 0.42366 0.0
C200 C 0.2254 0.04494 0.47043 0.0
C201 C 0.23409 0.03066 0.50469 0.0
C202 C 0.2121 0.08201 0.46624 0.0
C203 C 0.20753 0.10619 0.49614 0.0
C204 C 0.21607 0.09193 0.53057 0.0
C205 C 0.22912 0.05441 0.53482 0.0
C206 C 0.14206 0.19091 0.50541 0.0
C207 C 0.14733 0.20857 0.47175 0.0
C208 C 0.16369 0.15909 0.51481 0.0
C209 C 0.19133 0.14496 0.49091 0.0
C210 C 0.19961 0.16581 0.45933 0.0
C211 C 0.17742 0.19696 0.44958 0.0
H212 H 0.19242 0.82812 0.43335 0.0
H213 H 0.1668 0.85417 0.54455 0.0
H214 H 0.12927 0.79996 0.42659 0.0
H215 H 0.10335 0.82707 0.53742 0.0
H216 H 0.0046 0.74227 0.51861 0.0
H217 H 0.06834 0.76827 0.52806 0.0
H218 H 0.06487 0.82279 0.42366 0.0
H219 H 0.0017 0.79585 0.41381 0.0
C220 C 0.17341 0.82768 0.45639 0.0
C221 C 0.18458 0.84354 0.48942 0.0
C222 C 0.13711 0.81186 0.45243 0.0
C223 C 0.11114 0.81178 0.48134 0.0
C224 C 0.12276 0.82647 0.5147 0.0
C225 C 0.15914 0.84208 0.51873 0.0
C226 C 0.01734 0.76011 0.49785 0.0
C227 C -0.00167 0.76685 0.46537 0.0
C228 C 0.05383 0.77503 0.50327 0.0
C229 C 0.07184 0.79716 0.4764 0.0
C230 C 0.05214 0.80506 0.44451 0.0
C231 C 0.01581 0.78997 0.43902 0.0
H232 H 0.73954 0.92271 0.56037 0.0
H233 H 0.65125 0.89454 0.48437 0.0
H234 H 0.76653 0.85912 0.55233 0.0
H235 H 0.67738 0.8307 0.47718 0.0
H236 H 0.77965 0.76885 0.42308 0.0
H237 H 0.73505 0.81604 0.44476 0.0
H238 H 0.76415 0.78847 0.55452 0.0
H239 H 0.80954 0.74103 0.53249 0.0
C240 C 0.72514 0.90245 0.54297 0.0
C241 C 0.69388 0.91377 0.52236 0.0
C242 C 0.74047 0.86593 0.53845 0.0
C243 C 0.7245 0.84015 0.51352 0.0
C244 C 0.69084 0.85025 0.49591 0.0
C245 C 0.67585 0.88677 0.50008 0.0
C246 C 0.77589 0.77214 0.45186 0.0
C247 C 0.79833 0.75159 0.47607 0.0
C248 C 0.75006 0.79905 0.46438 0.0
C249 C 0.74618 0.80621 0.50143 0.0
C250 C 0.7668 0.78381 0.52582 0.0
C251 C 0.79254 0.7565 0.51322 0.0
H252 H 0.77881 0.1214 0.52959 0.0
H253 H 0.78644 0.06253 0.42766 0.0
H254 H 0.8406 0.151 0.51869 0.0
H255 H 0.84923 0.09074 0.4174 0.0
H256 H 0.9382 0.18411 0.39279 0.0
H257 H 0.87867 0.1498 0.40319 0.0
H258 H 0.90632 0.13881 0.51596 0.0
H259 H 0.96508 0.17489 0.50568 0.0
C260 C 0.79393 0.11448 0.505 0.0
C261 C 0.77778 0.08979 0.4794 0.0
C262 C 0.82953 0.13119 0.49887 0.0
C263 C 0.85006 0.12311 0.46725 0.0
C264 C 0.83398 0.09805 0.4418 0.0
C265 C 0.79807 0.08178 0.4477 0.0
C266 C 0.93168 0.17404 0.41973 0.0
C267 C 0.95603 0.18237 0.44852 0.0
C268 C 0.89763 0.15418 0.42569 0.0
C269 C 0.88752 0.14175 0.46048 0.0
C270 C 0.91278 0.14874 0.48898 0.0
C271 C 0.94657 0.16913 0.4831 0.0
H272 H 0.28262 0.49705 0.95748 0.0
H273 H 0.26047 0.51847 0.07008 0.0
H274 H 0.31402 0.55951 0.9523 0.0
H275 H 0.28979 0.58133 0.06464 0.0
H276 H 0.37456 0.67809 0.05297 0.0
H277 H 0.34754 0.61397 0.05765 0.0
H278 H 0.30015 0.62547 0.9511 0.0
H279 H 0.32901 0.68895 0.94582 0.0
C280 C 0.28447 0.51516 0.98106 0.0
C281 C 0.26922 0.50295 0.01415 0.0
C282 C 0.30211 0.55106 0.97808 0.0
C283 C 0.3043 0.57562 0.00802 0.0
C284 C 0.2893 0.56302 0.04116 0.0
C285 C 0.27227 0.52698 0.04426 0.0
C286 C 0.3582 0.66697 0.03064 0.0
C287 C 0.35378 0.68852 -0.00092 0.0
C288 C 0.34259 0.63021 0.03333 0.0
C289 C 0.32159 0.61445 0.00476 0.0
C290 C 0.31677 0.63634 0.97335 0.0
C291 C 0.33297 0.67287 0.97044 0.0
H292 H 0.71811 0.69803 0.04054 0.0
H293 H 0.69492 0.63422 0.94369 0.0
H294 H 0.66551 0.74052 0.0273 0.0
H295 H 0.64058 0.67475 0.93159 0.0
H296 H 0.54259 0.75554 0.91626 0.0
H297 H 0.60776 0.73168 0.91848 0.0
H298 H 0.60092 0.72905 0.03471 0.0
H299 H 0.53749 0.75412 0.03245 0.0
C300 C 0.70212 0.69363 0.01604 0.0
C301 C 0.71015 0.66271 -0.00664 0.0
C302 C 0.6717 0.71763 0.0086 0.0
C303 C 0.64785 0.71028 0.97904 0.0
C304 C 0.65817 0.6814 0.95459 0.0
C305 C 0.68934 0.65805 0.96153 0.0
C306 C 0.55533 0.75013 0.9422 0.0
C307 C 0.53483 0.75667 0.97414 0.0
C308 C 0.59264 0.73644 0.94351 0.0
C309 C 0.60994 0.72871 0.97679 0.0
C310 C 0.58928 0.73568 0.00857 0.0
C311 C 0.55246 0.74969 0.00726 0.0
H312 H 0.6809 0.4726 0.95987 0.0
H313 H 0.69959 0.44827 0.07232 0.0
H314 H 0.64801 0.41114 0.95335 0.0
H315 H 0.66865 0.38633 0.06556 0.0
H316 H 0.58273 0.29126 0.05106 0.0
H317 H 0.61027 0.35504 0.05711 0.0
H318 H 0.66103 0.34498 0.95127 0.0
H319 H 0.6318 0.28191 0.94463 0.0
C320 C 0.67796 0.45407 0.98314 0.0
C321 C 0.69272 0.46515 0.01656 0.0
C322 C 0.65944 0.41874 0.97938 0.0
C323 C 0.65584 0.39362 0.00888 0.0
C324 C 0.67026 0.40513 0.0424 0.0
C325 C 0.68821 0.44061 0.04626 0.0
C326 C 0.59987 0.30267 0.02915 0.0
C327 C 0.60522 0.28161 -0.00258 0.0
C328 C 0.61577 0.3392 0.03263 0.0
C329 C 0.63794 0.35522 0.0047 0.0
C330 C 0.64352 0.3339 0.97305 0.0
C331 C 0.62707 0.2976 0.96935 0.0
H332 H 0.42146 0.20861 0.02724 0.0
H333 H 0.42047 0.21205 0.91102 0.0
H334 H 0.35809 0.23372 0.02915 0.0
H335 H 0.35527 0.23588 0.91281 0.0
H336 H 0.26909 0.33392 0.93932 0.0
H337 H 0.32279 0.29251 0.92685 0.0
H338 H 0.29373 0.22438 0.02056 0.0
H339 H 0.24187 0.26779 0.03429 0.0
C340 C 0.40739 0.21404 0.00193 0.0
C341 C 0.42624 0.20856 0.96896 0.0
C342 C 0.37056 0.22809 0.00301 0.0
C343 C 0.35108 0.23659 0.97112 0.0
C344 C 0.36948 0.23001 0.93794 0.0
C345 C 0.4068 0.2163 0.93688 0.0
C346 C 0.27365 0.30943 0.95663 0.0
C347 C 0.25191 0.30432 0.98809 0.0
C348 C 0.30444 0.28554 0.94946 0.0
C349 C 0.31344 0.25568 0.9733 0.0
C350 C 0.28861 0.24799 0.00238 0.0
C351 C 0.2586 0.27253 0.01009 0.0
H352 H 0.90083 0.56719 0.47918 0.0
H353 H 0.01707 0.57835 0.44178 0.0
H354 H 0.91069 0.49909 0.49022 0.0
H355 H 0.0265 0.51058 0.45191 0.0
H356 H 0.04141 0.38916 0.47924 0.0
H357 H 0.03045 0.4566 0.49246 0.0
H358 H 0.91741 0.44658 0.44835 0.0
H359 H 0.92788 0.37937 0.43605 0.0
C360 C 0.92861 0.5553 0.47382 0.0
C361 C 0.95794 0.57806 0.45897 0.0
C362 C 0.93421 0.51628 0.48005 0.0
C363 C 0.96924 0.49933 0.47159 0.0
C364 C -0.00073 0.5227 0.45907 0.0
C365 C -0.0063 0.56159 0.45288 0.0
C366 C 0.01394 0.40117 0.4731 0.0
C367 C -0.01421 0.37907 0.45595 0.0
C368 C 0.00771 0.43983 0.48057 0.0
C369 C 0.97325 0.45708 0.47103 0.0
C370 C 0.94417 0.43421 0.45633 0.0
C371 C 0.95035 0.39565 0.44893 0.0
H372 H 0.52989 0.07514 0.54353 0.0
H373 H 0.58402 0.00297 0.46484 0.0
H374 H 0.46792 0.0505 0.52561 0.0
H375 H 0.52166 0.97744 0.44687 0.0
H376 H 0.42005 0.90113 0.50149 0.0
H377 H 0.47948 0.93443 0.48567 0.0
H378 H 0.41903 0.04123 0.4784 0.0
H379 H 0.36022 0.00815 0.49526 0.0
C380 C 0.52816 0.05509 0.52135 0.0
C381 C 0.56114 0.04105 0.50525 0.0
C382 C 0.4928 0.041 0.51094 0.0
C383 C 0.49003 0.01199 0.48481 0.0
C384 C 0.52308 -0.00019 0.46699 0.0
C385 C 0.55855 0.01451 0.47706 0.0
C386 C 0.41946 0.93143 0.49524 0.0
C387 C 0.38623 0.95246 0.50048 0.0
C388 C 0.4533 0.95048 0.48594 0.0
C389 C 0.45383 -0.00945 0.48155 0.0
C390 C 0.41944 0.01048 0.48229 0.0
C391 C 0.38594 -0.00838 0.49205 0.0
H392 H 0.5768 0.02986 0.96179 0.0
H393 H 0.48939 0.09901 0.00984 0.0
H394 H 0.54371 0.97201 0.98203 0.0
H395 H 0.45592 0.04111 0.03047 0.0
H396 H 0.38882 0.93908 0.97044 0.0
H397 H 0.42266 -0.00258 0.98802 0.0
H398 H 0.51519 0.92942 0.02834 0.0
H399 H 0.48128 0.87122 0.01009 0.0
C400 C 0.5514 0.03251 0.97819 0.0
C401 C 0.53546 0.06837 0.98446 0.0
C402 C 0.53242 -0.0005 0.98994 0.0
C403 C 0.497 0.00209 0.00762 0.0
C404 C 0.48302 0.03834 0.01676 0.0
C405 C 0.50217 0.07134 0.00516 0.0
C406 C 0.41554 0.93677 0.9846 0.0
C407 C 0.43277 0.90119 0.98888 0.0
C408 C 0.43494 0.97005 -0.0052 0.0
C409 C 0.47186 0.96791 0.0091 0.0
C410 C 0.487 0.93186 0.01704 0.0
C411 C 0.46762 0.89867 0.00677 0.0
H412 H 0.08975 0.52093 0.97769 0.0
H413 H 0.05802 0.40515 0.00615 0.0
H414 H 0.02379 0.53487 0.96351 0.0
H415 H -0.00813 0.41946 -0.00477 0.0
H416 H 0.87312 0.44748 0.97899 0.0
H417 H 0.939 0.43378 0.96354 0.0
H418 H 0.97113 0.54858 -0.00364 0.0
H419 H 0.90504 0.5627 0.00859 0.0
C420 C 0.06855 0.49837 0.98049 0.0
C421 C 0.0787 0.46211 -0.00675 0.0
C422 C 0.03064 0.5064 0.97279 0.0
C423 C 0.00192 0.47873 0.97906 0.0
C424 C 0.0128 0.4416 0.98954 0.0
C425 C 0.05086 0.43329 -0.00391 0.0
C426 C 0.89435 0.46997 0.98178 0.0
C427 C 0.88428 0.50599 -0.00478 0.0
C428 C 0.93221 0.46208 0.97334 0.0
C429 C 0.96097 0.48962 0.97951 0.0
C430 C 0.95017 0.52655 -0.00928 0.0
C431 C 0.91215 0.53475 -0.00198 0.0
loop_
_geom_bond_atom_site_label_1
_geom_bond_atom_site_label_2
_geom_bond_distance
_geom_bond_site_symmetry_2
_ccdc_geom_bond_type
C0 O1 1.306 . S
C0 O3 1.160 . S
O1 C0 1.306 . S
O1 Cd2 2.228 . S
Cd2 O1 2.228 . S
Cd2 O6 2.273 . S
Cd2 O10 2.277 . S
O3 C0 1.160 . S
O3 Cd4 2.203 . S
Cd4 O3 2.203 . S
Cd4 O6 2.411 . S
Cd4 O7 2.333 . S
Cd4 O8 2.352 . S
Cd4 O12 2.277 . S
Cd4 O13 2.356 . S
C5 O10 1.209 . S
C5 O12 1.226 . S
O6 Cd2 2.273 . S
O6 Cd4 2.411 . S
O6 C9 1.320 . S
O7 Cd4 2.333 . S
O7 C9 1.214 . S
O8 Cd4 2.352 . S
O8 C11 1.258 . S
C9 O6 1.320 . S
C9 O7 1.214 . S
O10 Cd2 2.277 . S
O10 C5 1.209 . S
C11 O8 1.258 . S
C11 O13 1.282 . S
O12 Cd4 2.277 . S
O12 C5 1.226 . S
O13 Cd4 2.356 . S
O13 C11 1.282 . S
C14 O15 1.306 . S
C14 O17 1.160 . S
O15 C14 1.306 . S
O15 Cd16 2.228 . S
Cd16 O15 2.228 . S
Cd16 O20 2.273 . S
Cd16 O24 2.277 . S
O17 C14 1.160 . S
O17 Cd18 2.203 . S
Cd18 O17 2.203 . S
Cd18 O20 2.411 . S
Cd18 O21 2.333 . S
Cd18 O22 2.352 . S
Cd18 O26 2.277 . S
Cd18 O27 2.356 . S
C19 O24 1.209 . S
C19 O26 1.226 . S
O20 Cd16 2.273 . S
O20 Cd18 2.411 . S
O20 C23 1.320 . S
O21 Cd18 2.333 . S
O21 C23 1.214 . S
O22 Cd18 2.352 . S
O22 C25 1.258 . S
C23 O20 1.320 . S
C23 O21 1.214 . S
O24 Cd16 2.277 . S
O24 C19 1.209 . S
C25 O22 1.258 . S
C25 O27 1.282 . S
O26 Cd18 2.277 . S
O26 C19 1.226 . S
O27 Cd18 2.356 . S
O27 C25 1.282 . S
C28 O29 1.306 . S
C28 O31 1.160 . S
O29 C28 1.306 . S
O29 Cd30 2.228 . S
Cd30 O29 2.228 . S
Cd30 O34 2.273 . S
Cd30 O38 2.277 . S
O31 C28 1.160 . S
O31 Cd32 2.203 . S
Cd32 O31 2.203 . S
Cd32 O34 2.411 . S
Cd32 O35 2.333 . S
Cd32 O36 2.352 . S
Cd32 O40 2.277 . S
Cd32 O41 2.356 . S
C33 O38 1.209 . S
C33 O40 1.226 . S
O34 Cd30 2.273 . S
O34 Cd32 2.411 . S
O34 C37 1.320 . S
O35 Cd32 2.333 . S
O35 C37 1.214 . S
O36 Cd32 2.352 . S
O36 C39 1.258 . S
C37 O34 1.320 . S
C37 O35 1.214 . S
O38 Cd30 2.277 . S
O38 C33 1.209 . S
C39 O36 1.258 . S
C39 O41 1.282 . S
O40 Cd32 2.277 . S
O40 C33 1.226 . S
O41 Cd32 2.356 . S
O41 C39 1.282 . S
C42 O43 1.306 . S
C42 O45 1.160 . S
O43 C42 1.306 . S
O43 Cd44 2.228 . S
Cd44 O43 2.228 . S
Cd44 O48 2.273 . S
Cd44 O52 2.277 . S
O45 C42 1.160 . S
O45 Cd46 2.203 . S
Cd46 O45 2.203 . S
Cd46 O48 2.411 . S
Cd46 O49 2.333 . S
Cd46 O50 2.352 . S
Cd46 O54 2.277 . S
Cd46 O55 2.356 . S
C47 O52 1.209 . S
C47 O54 1.226 . S
O48 Cd44 2.273 . S
O48 Cd46 2.411 . S
O48 C51 1.320 . S
O49 Cd46 2.333 . S
O49 C51 1.214 . S
O50 Cd46 2.352 . S
O50 C53 1.258 . S
C51 O48 1.320 . S
C51 O49 1.214 . S
O52 Cd44 2.277 . S
O52 C47 1.209 . S
C53 O50 1.258 . S
C53 O55 1.282 . S
O54 Cd46 2.277 . S
O54 C47 1.226 . S
O55 Cd46 2.356 . S
O55 C53 1.282 . S
C56 O57 1.306 1_556 S
C56 O59 1.160 . S
O57 C56 1.306 1_554 S
O57 Cd58 2.228 . S
Cd58 O57 2.228 . S
Cd58 O62 2.273 1_554 S
Cd58 O66 2.277 . S
O59 C56 1.160 . S
O59 Cd60 2.203 . S
Cd60 O59 2.203 . S
Cd60 O62 2.411 . S
Cd60 O63 2.333 . S
Cd60 O64 2.352 . S
Cd60 O68 2.277 . S
Cd60 O69 2.356 . S
C61 O66 1.209 1_556 S
C61 O68 1.226 . S
O62 Cd58 2.273 1_556 S
O62 Cd60 2.411 . S
O62 C65 1.320 . S
O63 Cd60 2.333 . S
O63 C65 1.214 . S
O64 Cd60 2.352 . S
O64 C67 1.258 . S
C65 O62 1.320 . S
C65 O63 1.214 . S
O66 Cd58 2.277 . S
O66 C61 1.209 1_554 S
C67 O64 1.258 . S
C67 O69 1.282 . S
O68 Cd60 2.277 . S
O68 C61 1.226 . S
O69 Cd60 2.356 . S
O69 C67 1.282 . S
C70 O71 1.306 . S
C70 O73 1.160 . S
O71 C70 1.306 . S
O71 Cd72 2.228 . S
Cd72 O71 2.228 . S
Cd72 O76 2.273 . S
Cd72 O80 2.277 . S
O73 C70 1.160 . S
O73 Cd74 2.203 . S
Cd74 O73 2.203 . S
Cd74 O76 2.411 . S
Cd74 O77 2.333 . S
Cd74 O78 2.352 . S
Cd74 O82 2.277 . S
Cd74 O83 2.356 1_554 S
C75 O80 1.209 . S
C75 O82 1.226 . S
O76 Cd72 2.273 . S
O76 Cd74 2.411 . S
O76 C79 1.320 . S
O77 Cd74 2.333 . S
O77 C79 1.214 . S
O78 Cd74 2.352 . S
O78 C81 1.258 . S
C79 O76 1.320 . S
C79 O77 1.214 . S
O80 Cd72 2.277 . S
O80 C75 1.209 . S
C81 O78 1.258 . S
C81 O83 1.282 1_554 S
O82 Cd74 2.277 . S
O82 C75 1.226 . S
O83 Cd74 2.356 1_556 S
O83 C81 1.282 1_556 S
C84 O85 1.306 1_556 S
C84 O87 1.160 . S
O85 C84 1.306 1_554 S
O85 Cd86 2.228 . S
Cd86 O85 2.228 . S
Cd86 O90 2.273 1_554 S
Cd86 O94 2.277 . S
O87 C84 1.160 . S
O87 Cd88 2.203 . S
Cd88 O87 2.203 . S
Cd88 O90 2.411 . S
Cd88 O91 2.333 . S
Cd88 O92 2.352 . S
Cd88 O96 2.277 . S
Cd88 O97 2.356 . S
C89 O94 1.209 1_556 S
C89 O96 1.226 . S
O90 Cd86 2.273 1_556 S
O90 Cd88 2.411 . S
O90 C93 1.320 . S
O91 Cd88 2.333 . S
O91 C93 1.214 . S
O92 Cd88 2.352 . S
O92 C95 1.258 . S
C93 O90 1.320 . S
C93 O91 1.214 . S
O94 Cd86 2.277 . S
O94 C89 1.209 1_554 S
C95 O92 1.258 . S
C95 O97 1.282 . S
O96 Cd88 2.277 . S
O96 C89 1.226 . S
O97 Cd88 2.356 . S
O97 C95 1.282 . S
C98 O99 1.306 . S
C98 O101 1.160 . S
O99 C98 1.306 . S
O99 Cd100 2.228 . S
Cd100 O99 2.228 . S
Cd100 O104 2.273 . S
Cd100 O108 2.277 . S
O101 C98 1.160 . S
O101 Cd102 2.203 . S
Cd102 O101 2.203 . S
Cd102 O104 2.411 . S
Cd102 O105 2.333 . S
Cd102 O106 2.352 . S
Cd102 O110 2.277 . S
Cd102 O111 2.356 1_554 S
C103 O108 1.209 . S
C103 O110 1.226 . S
O104 Cd100 2.273 . S
O104 Cd102 2.411 . S
O104 C107 1.320 . S
O105 Cd102 2.333 . S
O105 C107 1.214 . S
O106 Cd102 2.352 . S
O106 C109 1.258 . S
C107 O104 1.320 . S
C107 O105 1.214 . S
O108 Cd100 2.277 . S
O108 C103 1.209 . S
C109 O106 1.258 . S
C109 O111 1.282 1_554 S
O110 Cd102 2.277 . S
O110 C103 1.226 . S
O111 Cd102 2.356 1_556 S
O111 C109 1.282 1_556 S
H112 C120 0.950 . S
H113 C125 0.950 . S
H114 C122 0.950 . S
H115 C124 0.950 . S
H116 C126 0.950 . S
H117 C128 0.950 . S
H118 C130 0.950 . S
H119 C131 0.950 . S
C120 H112 0.950 . S
C120 C121 1.386 . S
C120 C122 1.391 . S
C121 C120 1.386 . S
C121 C125 1.393 . S
C122 H114 0.950 . S
C122 C120 1.391 . S
C122 C123 1.400 . S
C123 C122 1.400 . S
C123 C124 1.398 . S
C123 C129 1.491 . S
C124 H115 0.950 . S
C124 C123 1.398 . S
C124 C125 1.391 . S
C125 H113 0.950 . S
C125 C121 1.393 . S
C125 C124 1.391 . S
C126 H116 0.950 . S
C126 C127 1.386 . S
C126 C128 1.391 . S
C127 C126 1.386 . S
C127 C131 1.393 . S
C128 H117 0.950 . S
C128 C126 1.391 . S
C128 C129 1.400 . S
C129 C123 1.491 . S
C129 C128 1.400 . S
C129 C130 1.398 . S
C130 H118 0.950 . S
C130 C129 1.398 . S
C130 C131 1.391 . S
C131 H119 0.950 . S
C131 C127 1.393 . S
C131 C130 1.391 . S
H132 C140 0.950 . S
H133 C145 0.950 . S
H134 C142 0.950 . S
H135 C144 0.950 . S
H136 C146 0.950 . S
H137 C148 0.950 . S
H138 C150 0.950 . S
H139 C151 0.950 . S
C140 H132 0.950 . S
C140 C141 1.386 . S
C140 C142 1.391 . S
C141 C140 1.386 . S
C141 C145 1.393 . S
C142 H134 0.950 . S
C142 C140 1.391 . S
C142 C143 1.400 . S
C143 C142 1.400 . S
C143 C144 1.398 . S
C143 C149 1.491 . S
C144 H135 0.950 . S
C144 C143 1.398 . S
C144 C145 1.391 . S
C145 H133 0.950 . S
C145 C141 1.393 . S
C145 C144 1.391 . S
C146 H136 0.950 . S
C146 C147 1.386 . S
C146 C148 1.391 . S
C147 C146 1.386 . S
C147 C151 1.393 . S
C148 H137 0.950 . S
C148 C146 1.391 . S
C148 C149 1.400 . S
C149 C143 1.491 . S
C149 C148 1.400 . S
C149 C150 1.398 . S
C150 H138 0.950 . S
C150 C149 1.398 . S
C150 C151 1.391 . S
C151 H139 0.950 . S
C151 C147 1.393 . S
C151 C150 1.391 . S
H152 C160 0.950 . S
H153 C165 0.950 . S
H154 C162 0.950 . S
H155 C164 0.950 . S
H156 C166 0.950 . S
H157 C168 0.950 . S
H158 C170 0.950 . S
H159 C171 0.950 . S
C160 H152 0.950 . S
C160 C161 1.386 . S
C160 C162 1.391 . S
C161 C160 1.386 . S
C161 C165 1.393 . S
C162 H154 0.950 . S
C162 C160 1.391 . S
C162 C163 1.400 . S
C163 C162 1.400 . S
C163 C164 1.398 . S
C163 C169 1.491 . S
C164 H155 0.950 . S
C164 C163 1.398 . S
C164 C165 1.391 . S
C165 H153 0.950 . S
C165 C161 1.393 . S
C165 C164 1.391 . S
C166 H156 0.950 . S
C166 C167 1.386 . S
C166 C168 1.391 . S
C167 C166 1.386 . S
C167 C171 1.393 . S
C168 H157 0.950 . S
C168 C166 1.391 . S
C168 C169 1.400 . S
C169 C163 1.491 . S
C169 C168 1.400 . S
C169 C170 1.398 . S
C170 H158 0.950 . S
C170 C169 1.398 . S
C170 C171 1.391 . S
C171 H159 0.950 . S
C171 C167 1.393 . S
C171 C170 1.391 . S
H172 C180 0.950 . S
H173 C185 0.950 . S
H174 C182 0.950 . S
H175 C184 0.950 . S
H176 C186 0.950 . S
H177 C188 0.950 . S
H178 C190 0.950 . S
H179 C191 0.950 . S
C180 H172 0.950 . S
C180 C181 1.386 . S
C180 C182 1.391 . S
C181 C180 1.386 . S
C181 C185 1.393 . S
C182 H174 0.950 . S
C182 C180 1.391 . S
C182 C183 1.400 . S
C183 C182 1.400 . S
C183 C184 1.398 . S
C183 C189 1.491 . S
C184 H175 0.950 . S
C184 C183 1.398 . S
C184 C185 1.391 . S
C185 H173 0.950 . S
C185 C181 1.393 . S
C185 C184 1.391 . S
C186 H176 0.950 . S
C186 C187 1.386 . S
C186 C188 1.391 . S
C187 C186 1.386 . S
C187 C191 1.393 . S
C188 H177 0.950 . S
C188 C186 1.391 . S
C188 C189 1.400 . S
C189 C183 1.491 . S
C189 C188 1.400 . S
C189 C190 1.398 . S
C190 H178 0.950 . S
C190 C189 1.398 . S
C190 C191 1.391 . S
C191 H179 0.950 . S
C191 C187 1.393 . S
C191 C190 1.391 . S
H192 C200 0.950 . S
H193 C205 0.950 . S
H194 C202 0.950 . S
H195 C204 0.950 . S
H196 C206 0.950 . S
H197 C208 0.950 . S
H198 C210 0.950 . S
H199 C211 0.950 . S
C200 H192 0.950 . S
C200 C201 1.386 . S
C200 C202 1.391 . S
C201 C200 1.386 . S
C201 C205 1.393 . S
C202 H194 0.950 . S
C202 C200 1.391 . S
C202 C203 1.400 . S
C203 C202 1.400 . S
C203 C204 1.398 . S
C203 C209 1.491 . S
C204 H195 0.950 . S
C204 C203 1.398 . S
C204 C205 1.391 . S
C205 H193 0.950 . S
C205 C201 1.393 . S
C205 C204 1.391 . S
C206 H196 0.950 . S
C206 C207 1.386 . S
C206 C208 1.391 . S
C207 C206 1.386 . S
C207 C211 1.393 . S
C208 H197 0.950 . S
C208 C206 1.391 . S
C208 C209 1.400 . S
C209 C203 1.491 . S
C209 C208 1.400 . S
C209 C210 1.398 . S
C210 H198 0.950 . S
C210 C209 1.398 . S
C210 C211 1.391 . S
C211 H199 0.950 . S
C211 C207 1.393 . S
C211 C210 1.391 . S
H212 C220 0.950 . S
H213 C225 0.950 . S
H214 C222 0.950 . S
H215 C224 0.950 . S
H216 C226 0.950 . S
H217 C228 0.950 . S
H218 C230 0.950 . S
H219 C231 0.950 . S
C220 H212 0.950 . S
C220 C221 1.386 . S
C220 C222 1.391 . S
C221 C220 1.386 . S
C221 C225 1.393 . S
C222 H214 0.950 . S
C222 C220 1.391 . S
C222 C223 1.400 . S
C223 C222 1.400 . S
C223 C224 1.398 . S
C223 C229 1.491 . S
C224 H215 0.950 . S
C224 C223 1.398 . S
C224 C225 1.391 . S
C225 H213 0.950 . S
C225 C221 1.393 . S
C225 C224 1.391 . S
C226 H216 0.950 . S
C226 C227 1.386 . S
C226 C228 1.391 . S
C227 C226 1.386 . S
C227 C231 1.393 . S
C228 H217 0.950 . S
C228 C226 1.391 . S
C228 C229 1.400 . S
C229 C223 1.491 . S
C229 C228 1.400 . S
C229 C230 1.398 . S
C230 H218 0.950 . S
C230 C229 1.398 . S
C230 C231 1.391 . S
C231 H219 0.950 . S
C231 C227 1.393 . S
C231 C230 1.391 . S
H232 C240 0.950 . S
H233 C245 0.950 . S
H234 C242 0.950 . S
H235 C244 0.950 . S
H236 C246 0.950 . S
H237 C248 0.950 . S
H238 C250 0.950 . S
H239 C251 0.950 . S
C240 H232 0.950 . S
C240 C241 1.386 . S
C240 C242 1.391 . S
C241 C240 1.386 . S
C241 C245 1.393 . S
C242 H234 0.950 . S
C242 C240 1.391 . S
C242 C243 1.400 . S
C243 C242 1.400 . S
C243 C244 1.398 . S
C243 C249 1.491 . S
C244 H235 0.950 . S
C244 C243 1.398 . S
C244 C245 1.391 . S
C245 H233 0.950 . S
C245 C241 1.393 . S
C245 C244 1.391 . S
C246 H236 0.950 . S
C246 C247 1.386 . S
C246 C248 1.391 . S
C247 C246 1.386 . S
C247 C251 1.393 . S
C248 H237 0.950 . S
C248 C246 1.391 . S
C248 C249 1.400 . S
C249 C243 1.491 . S
C249 C248 1.400 . S
C249 C250 1.398 . S
C250 H238 0.950 . S
C250 C249 1.398 . S
C250 C251 1.391 . S
C251 H239 0.950 . S
C251 C247 1.393 . S
C251 C250 1.391 . S
H252 C260 0.950 . S
H253 C265 0.950 . S
H254 C262 0.950 . S
H255 C264 0.950 . S
H256 C266 0.950 . S
H257 C268 0.950 . S
H258 C270 0.950 . S
H259 C271 0.950 . S
C260 H252 0.950 . S
C260 C261 1.386 . S
C260 C262 1.391 . S
C261 C260 1.386 . S
C261 C265 1.393 . S
C262 H254 0.950 . S
C262 C260 1.391 . S
C262 C263 1.400 . S
C263 C262 1.400 . S
C263 C264 1.398 . S
C263 C269 1.491 . S
C264 H255 0.950 . S
C264 C263 1.398 . S
C264 C265 1.391 . S
C265 H253 0.950 . S
C265 C261 1.393 . S
C265 C264 1.391 . S
C266 H256 0.950 . S
C266 C267 1.386 . S
C266 C268 1.391 . S
C267 C266 1.386 . S
C267 C271 1.393 . S
C268 H257 0.950 . S
C268 C266 1.391 . S
C268 C269 1.400 . S
C269 C263 1.491 . S
C269 C268 1.400 . S
C269 C270 1.398 . S
C270 H258 0.950 . S
C270 C269 1.398 . S
C270 C271 1.391 . S
C271 H259 0.950 . S
C271 C267 1.393 . S
C271 C270 1.391 . S
H272 C280 0.950 . S
H273 C285 0.950 . S
H274 C282 0.950 . S
H275 C284 0.950 . S
H276 C286 0.950 . S
H277 C288 0.950 . S
H278 C290 0.950 . S
H279 C291 0.950 . S
C280 H272 0.950 . S
C280 C281 1.386 1_556 S
C280 C282 1.391 . S
C281 C280 1.386 1_554 S
C281 C285 1.393 . S
C282 H274 0.950 . S
C282 C280 1.391 . S
C282 C283 1.400 1_556 S
C283 C282 1.400 1_554 S
C283 C284 1.398 . S
C283 C289 1.491 . S
C284 H275 0.950 . S
C284 C283 1.398 . S
C284 C285 1.391 . S
C285 H273 0.950 . S
C285 C281 1.393 . S
C285 C284 1.391 . S
C286 H276 0.950 . S
C286 C287 1.386 1_554 S
C286 C288 1.391 . S
C287 C286 1.386 1_556 S
C287 C291 1.393 . S
C288 H277 0.950 . S
C288 C286 1.391 . S
C288 C289 1.400 . S
C289 C283 1.491 . S
C289 C288 1.400 . S
C289 C290 1.398 1_554 S
C290 H278 0.950 . S
C290 C289 1.398 1_556 S
C290 C291 1.391 . S
C291 H279 0.950 . S
C291 C287 1.393 . S
C291 C290 1.391 . S
H292 C300 0.950 . S
H293 C305 0.950 . S
H294 C302 0.950 . S
H295 C304 0.950 . S
H296 C306 0.950 . S
H297 C308 0.950 . S
H298 C310 0.950 . S
H299 C311 0.950 . S
C300 H292 0.950 . S
C300 C301 1.386 . S
C300 C302 1.391 . S
C301 C300 1.386 . S
C301 C305 1.393 1_554 S
C302 H294 0.950 . S
C302 C300 1.391 . S
C302 C303 1.421 . S
C303 C302 1.421 . S
C303 C304 1.381 1_554 S
C303 C309 1.488 1_554 S
C304 H295 0.950 . S
C304 C303 1.381 1_556 S
C304 C305 1.391 . S
C305 H293 0.950 . S
C305 C301 1.393 1_556 S
C305 C304 1.391 . S
C306 H296 0.950 . S
C306 C307 1.386 . S
C306 C308 1.391 . S
C307 C306 1.386 . S
C307 C311 1.393 1_556 S
C308 H297 0.950 . S
C308 C306 1.391 . S
C308 C309 1.400 . S
C309 C303 1.488 1_556 S
C309 C308 1.400 . S
C309 C310 1.398 1_556 S
C310 H298 0.950 . S
C310 C309 1.398 1_554 S
C310 C311 1.391 . S
C311 H299 0.950 . S
C311 C307 1.393 1_554 S
C311 C310 1.391 . S
H312 C320 0.950 1_556 S
H313 C325 0.950 . S
H314 C322 0.950 . S
H315 C324 0.950 . S
H316 C326 0.950 . S
H317 C328 0.950 . S
H318 C330 0.950 . S
H319 C331 0.950 . S
C320 H312 0.950 1_554 S
C320 C321 1.386 . S
C320 C322 1.391 1_554 S
C321 C320 1.386 . S
C321 C325 1.393 . S
C322 H314 0.950 . S
C322 C320 1.391 1_556 S
C322 C323 1.400 1_556 S
C323 C322 1.400 1_554 S
C323 C324 1.398 . S
C323 C329 1.491 . S
C324 H315 0.950 . S
C324 C323 1.398 . S
C324 C325 1.391 . S
C325 H313 0.950 . S
C325 C321 1.393 . S
C325 C324 1.391 . S
C326 H316 0.950 . S
C326 C327 1.386 1_554 S
C326 C328 1.391 . S
C327 C326 1.386 1_556 S
C327 C331 1.393 . S
C328 H317 0.950 . S
C328 C326 1.391 . S
C328 C329 1.400 . S
C329 C323 1.491 . S
C329 C328 1.400 . S
C329 C330 1.398 1_554 S
C330 H318 0.950 . S
C330 C329 1.398 1_556 S
C330 C331 1.391 . S
C331 H319 0.950 . S
C331 C327 1.393 . S
C331 C330 1.391 . S
H332 C340 0.950 . S
H333 C345 0.950 . S
H334 C342 0.950 . S
H335 C344 0.950 . S
H336 C346 0.950 . S
H337 C348 0.950 . S
H338 C350 0.950 . S
H339 C351 0.950 . S
C340 H332 0.950 . S
C340 C341 1.386 1_554 S
C340 C342 1.391 . S
C341 C340 1.386 1_556 S
C341 C345 1.393 . S
C342 H334 0.950 . S
C342 C340 1.391 . S
C342 C343 1.400 1_554 S
C343 C342 1.400 1_556 S
C343 C344 1.398 . S
C343 C349 1.491 1_556 S
C344 H335 0.950 . S
C344 C343 1.398 . S
C344 C345 1.391 . S
C345 H333 0.950 . S
C345 C341 1.393 . S
C345 C344 1.391 . S
C346 H336 0.950 . S
C346 C347 1.386 1_556 S
C346 C348 1.391 . S
C347 C346 1.386 1_554 S
C347 C351 1.393 . S
C348 H337 0.950 . S
C348 C346 1.391 . S
C348 C349 1.401 1_556 S
C349 C343 1.491 1_554 S
C349 C348 1.401 1_554 S
C349 C350 1.398 . S
C350 H338 0.950 . S
C350 C349 1.398 . S
C350 C351 1.391 . S
C351 H339 0.950 . S
C351 C347 1.393 . S
C351 C350 1.391 . S
H352 C360 0.950 . S
H353 C365 0.950 . S
H354 C362 0.950 . S
H355 C364 0.950 1_455 S
H356 C366 0.950 . S
H357 C368 0.950 . S
H358 C370 0.950 1_655 S
H359 C371 0.950 . S
C360 H352 0.950 . S
C360 C361 1.386 . S
C360 C362 1.391 . S
C361 C360 1.386 . S
C361 C365 1.393 . S
C362 H354 0.950 . S
C362 C360 1.391 . S
C362 C363 1.400 . S
C363 C362 1.400 . S
C363 C364 1.398 . S
C363 C369 1.491 1_655 S
C364 H355 0.950 1_655 S
C364 C363 1.398 . S
C364 C365 1.391 . S
C365 H353 0.950 . S
C365 C361 1.393 . S
C365 C364 1.391 . S
C366 H356 0.950 . S
C366 C367 1.386 . S
C366 C368 1.391 . S
C367 C366 1.386 . S
C367 C371 1.393 . S
C368 H357 0.950 . S
C368 C366 1.391 . S
C368 C369 1.400 . S
C369 C363 1.491 1_455 S
C369 C368 1.400 . S
C369 C370 1.398 . S
C370 H358 0.950 1_455 S
C370 C369 1.398 . S
C370 C371 1.391 . S
C371 H359 0.950 . S
C371 C367 1.393 . S
C371 C370 1.391 . S
H372 C380 0.950 . S
H373 C385 0.950 . S
H374 C382 0.950 . S
H375 C384 0.950 . S
H376 C386 0.950 . S
H377 C388 0.950 . S
H378 C390 0.950 . S
H379 C391 0.950 . S
C380 H372 0.950 . S
C380 C381 1.386 . S
C380 C382 1.391 . S
C381 C380 1.386 . S
C381 C385 1.393 . S
C382 H374 0.950 . S
C382 C380 1.391 . S
C382 C383 1.400 . S
C383 C382 1.400 . S
C383 C384 1.398 1_545 S
C383 C389 1.491 1_545 S
C384 H375 0.950 . S
C384 C383 1.398 1_565 S
C384 C385 1.391 1_565 S
C385 H373 0.950 . S
C385 C381 1.393 . S
C385 C384 1.391 1_545 S
C386 H376 0.950 . S
C386 C387 1.386 . S
C386 C388 1.391 . S
C387 C386 1.386 . S
C387 C391 1.393 . S
C388 H377 0.950 . S
C388 C386 1.391 . S
C388 C389 1.400 . S
C389 C383 1.491 1_565 S
C389 C388 1.400 . S
C389 C390 1.398 1_565 S
C390 H378 0.950 . S
C390 C389 1.398 1_545 S
C390 C391 1.391 1_545 S
C391 H379 0.950 . S
C391 C387 1.393 . S
C391 C390 1.391 1_565 S
H392 C400 0.950 . S
H393 C405 0.950 . S
H394 C402 0.950 . S
H395 C404 0.950 . S
H396 C406 0.950 . S
H397 C408 0.950 . S
H398 C410 0.950 1_554 S
H399 C411 0.938 1_554 S
C400 H392 0.950 . S
C400 C401 1.386 1_554 S
C400 C402 1.391 . S
C401 C400 1.386 1_556 S
C401 C405 1.393 . S
C402 H394 0.950 . S
C402 C400 1.391 . S
C402 C403 1.400 1_554 S
C403 C402 1.400 1_556 S
C403 C404 1.398 . S
C403 C409 1.491 1_545 S
C404 H395 0.950 . S
C404 C403 1.398 . S
C404 C405 1.391 . S
C405 H393 0.950 . S
C405 C401 1.393 . S
C405 C404 1.391 . S
C406 H396 0.950 . S
C406 C407 1.386 . S
C406 C408 1.391 . S
C407 C406 1.386 . S
C407 C411 1.405 . S
C408 H397 0.950 . S
C408 C406 1.391 . S
C408 C409 1.400 . S
C409 C403 1.491 1_565 S
C409 C408 1.400 . S
C409 C410 1.398 . S
C410 H398 0.950 1_556 S
C410 C409 1.398 . S
C410 C411 1.391 . S
C411 H399 0.938 1_556 S
C411 C407 1.405 . S
C411 C410 1.391 . S
H412 C420 0.950 . S
H413 C425 0.950 . S
H414 C422 0.950 . S
H415 C424 0.950 1_655 S
H416 C426 0.950 . S
H417 C428 0.950 . S
H418 C430 0.950 1_455 S
H419 C431 0.950 . S
C420 H412 0.950 . S
C420 C421 1.386 . S
C420 C422 1.391 . S
C421 C420 1.386 . S
C421 C425 1.393 . S
C422 H414 0.950 . S
C422 C420 1.391 . S
C422 C423 1.400 . S
C423 C422 1.400 . S
C423 C424 1.398 . S
C423 C429 1.491 1_455 S
C424 H415 0.950 1_455 S
C424 C423 1.398 . S
C424 C425 1.391 . S
C425 H413 0.950 . S
C425 C421 1.393 . S
C425 C424 1.391 . S
C426 H416 0.950 . S
C426 C427 1.386 . S
C426 C428 1.391 . S
C427 C426 1.386 . S
C427 C431 1.393 . S
C428 H417 0.950 . S
C428 C426 1.391 . S
C428 C429 1.400 . S
C429 C423 1.491 1_655 S
C429 C428 1.400 . S
C429 C430 1.398 . S
C430 H418 0.950 1_655 S
C430 C429 1.398 . S
C430 C431 1.391 . S
C431 H419 0.950 . S
C431 C427 1.393 . S
C431 C430 1.391 . S
C121 C98 1.515 . S
C127 C0 1.512 . S
C141 C25 1.565 . S
C147 C67 1.555 . S
C161 C28 1.520 . S
C167 C70 1.515 . S
C181 C95 1.562 . S
C187 C53 1.567 . S
C201 C19 1.491 1_545 S
C207 C11 1.478 . S
C221 C14 1.417 . S
C227 C37 1.439 1_455 S
C241 C47 1.489 1_565 S
C247 C39 1.469 . S
C261 C42 1.405 . S
C267 C9 1.441 1_655 S
C281 C107 1.441 . S
C287 C56 1.405 . S
C301 C81 1.478 . S
C307 C61 1.488 . S
C321 C79 1.441 . S
C327 C84 1.406 . S
C341 C89 1.491 . S
C347 C109 1.479 . S
C361 C33 1.063 . S
C367 C5 1.067 . S
C381 C51 1.071 . S
C387 C23 1.047 . S
C401 C93 1.072 . S
C407 C65 1.047 . S
C421 C103 1.087 . S
C427 C75 1.067 . S
