# Generated by pormake.
# Topology ecn, (8)-cn, num edge types: 1
# Building blocks:
#     Node 0, Type 0, BuildingBlock: AJUNOK_clean_sbu_0, # of connection points: 8
#     Node 1, Type 0, BuildingBlock: AJUNOK_clean_sbu_0, # of connection points: 8
#     Node 2, Type 0, BuildingBlock: AJUNOK_clean_sbu_0, # of connection points: 8
#     Node 3, Type 0, BuildingBlock: AJUNOK_clean_sbu_0, # of connection points: 8
#     Node 4, Type 0, BuildingBlock: AJUNOK_clean_sbu_0, # of connection points: 8
#     Node 5, Type 0, BuildingBlock: AJUNOK_clean_sbu_0, # of connection points: 8
#     Node 6, Type 0, BuildingBlock: AJUNOK_clean_sbu_0, # of connection points: 8
#     Node 7, Type 0, BuildingBlock: AJUNOK_clean_sbu_0, # of connection points: 8
#     Node 8, Type 0, BuildingBlock: AJUNOK_clean_sbu_0, # of connection points: 8
#     Edge 9, Type (0, 0), BuildingBlock: OJICUG_clean_linker_0, # of connection points: 2
#     Edge 10, Type (0, 0), BuildingBlock: OJICUG_clean_linker_0, # of connection points: 2
#     Edge 11, Type (0, 0), BuildingBlock: OJICUG_clean_linker_0, # of connection points: 2
#     Edge 12, Type (0, 0), BuildingBlock: OJICUG_clean_linker_0, # of connection points: 2
#     Edge 13, Type (0, 0), BuildingBlock: OJICUG_clean_linker_0, # of connection points: 2
#     Edge 14, Type (0, 0), BuildingBlock: OJICUG_clean_linker_0, # of connection points: 2
#     Edge 15, Type (0, 0), BuildingBlock: OJICUG_clean_linker_0, # of connection points: 2
#     Edge 16, Type (0, 0), BuildingBlock: OJICUG_clean_linker_0, # of connection points: 2
#     Edge 17, Type (0, 0), BuildingBlock: OJICUG_clean_linker_0, # of connection points: 2
#     Edge 18, Type (0, 0), BuildingBlock: OJICUG_clean_linker_0, # of connection points: 2
#     Edge 19, Type (0, 0), BuildingBlock: OJICUG_clean_linker_0, # of connection points: 2
#     Edge 20, Type (0, 0), BuildingBlock: OJICUG_clean_linker_0, # of connection points: 2
#     Edge 21, Type (0, 0), BuildingBlock: OJICUG_clean_linker_0, # of connection points: 2
#     Edge 22, Type (0, 0), BuildingBlock: OJICUG_clean_linker_0, # of connection points: 2
#     Edge 23, Type (0, 0), BuildingBlock: OJICUG_clean_linker_0, # of connection points: 2
#     Edge 24, Type (0, 0), BuildingBlock: OJICUG_clean_linker_0, # of connection points: 2
#     Edge 25, Type (0, 0), BuildingBlock: OJICUG_clean_linker_0, # of connection points: 2
#     Edge 26, Type (0, 0), BuildingBlock: OJICUG_clean_linker_0, # of connection points: 2
#     Edge 27, Type (0, 0), BuildingBlock: OJICUG_clean_linker_0, # of connection points: 2
#     Edge 28, Type (0, 0), BuildingBlock: OJICUG_clean_linker_0, # of connection points: 2
#     Edge 29, Type (0, 0), BuildingBlock: OJICUG_clean_linker_0, # of connection points: 2
#     Edge 30, Type (0, 0), BuildingBlock: OJICUG_clean_linker_0, # of connection points: 2
#     Edge 31, Type (0, 0), BuildingBlock: OJICUG_clean_linker_0, # of connection points: 2
#     Edge 32, Type (0, 0), BuildingBlock: OJICUG_clean_linker_0, # of connection points: 2
#     Edge 33, Type (0, 0), BuildingBlock: OJICUG_clean_linker_0, # of connection points: 2
#     Edge 34, Type (0, 0), BuildingBlock: OJICUG_clean_linker_0, # of connection points: 2
#     Edge 35, Type (0, 0), BuildingBlock: OJICUG_clean_linker_0, # of connection points: 2
#     Edge 36, Type (0, 0), BuildingBlock: OJICUG_clean_linker_0, # of connection points: 2
#     Edge 37, Type (0, 0), BuildingBlock: OJICUG_clean_linker_0, # of connection points: 2
#     Edge 38, Type (0, 0), BuildingBlock: OJICUG_clean_linker_0, # of connection points: 2
#     Edge 39, Type (0, 0), BuildingBlock: OJICUG_clean_linker_0, # of connection points: 2
#     Edge 40, Type (0, 0), BuildingBlock: OJICUG_clean_linker_0, # of connection points: 2
#     Edge 41, Type (0, 0), BuildingBlock: OJICUG_clean_linker_0, # of connection points: 2
#     Edge 42, Type (0, 0), BuildingBlock: OJICUG_clean_linker_0, # of connection points: 2
#     Edge 43, Type (0, 0), BuildingBlock: OJICUG_clean_linker_0, # of connection points: 2
#     Edge 44, Type (0, 0), BuildingBlock: OJICUG_clean_linker_0, # of connection points: 2
# Relax obj value: 0.186
# Max RMSD: 0.198
# Mean RMSD: 0.198
data_MOF--net-ecn--node1-AJUNOK_clean_sbu_0--edge1-OJICUG_clean_linker_0
_symmetry_space_group_name_H-M    P1
_symmetry_Int_Tables_number       1
_symmetry_cell_setting            triclinic
loop_
_symmetry_equiv_pos_as_xyz
'x, y, z'
_cell_length_a     47.787289
_cell_length_b     47.786995
_cell_length_c     9.8752388
_cell_angle_alpha  90.155251
_cell_angle_beta   90.014046
_cell_angle_gamma 119.74947
loop_
_atom_site_label
_atom_site_type_symbol
_atom_site_fract_x
_atom_site_fract_y
_atom_site_fract_z
_atom_type_partial_charge
Cd0 Cd 0.11949 0.17678 0.04366 0.0
Cd1 Cd 0.10583 0.26437 0.94328 0.0
C2 C 0.05006 0.12548 0.94482 0.0
N3 N 0.06366 0.14665 0.04881 0.0
C4 C 0.01215 0.1278 0.15204 0.0
C5 C -0.00242 0.10526 0.04696 0.0
C6 C 0.01694 0.10457 0.9415 0.0
C7 C 0.0455 0.14844 0.15091 0.0
H8 H 0.06513 0.12421 0.86619 0.0
H9 H 0.05683 0.16539 0.23269 0.0
C10 C 0.10765 0.23627 0.21881 0.0
C11 C 0.17804 0.29816 0.06114 0.0
C12 C 0.21136 0.31821 0.06001 0.0
C13 C 0.22759 0.32829 0.93577 0.0
C14 C 0.21003 0.31574 0.81528 0.0
C15 C 0.17671 0.29553 0.82121 0.0
N16 N 0.16143 0.28791 0.94273 0.0
H17 H 0.1654 0.2923 0.15647 0.0
H18 H 0.1628 0.28751 0.7287 0.0
C19 C 0.03409 0.2132 0.03353 0.0
N20 N 0.05055 0.22986 0.92227 0.0
C21 C 0.00147 0.21821 0.81164 0.0
C22 C 0.98417 0.20386 0.93083 0.0
C23 C 0.0008 0.19996 0.04012 0.0
C24 C 0.03492 0.23148 0.81016 0.0
H25 H 0.0469 0.21234 0.12179 0.0
H26 H 0.04855 0.24506 0.72308 0.0
C27 C 0.11256 0.20162 0.76924 0.0
C28 C 0.13416 0.12934 0.13521 0.0
N29 N 0.17096 0.21951 0.0745 0.0
C30 C 0.18855 0.23604 0.96507 0.0
C31 C 0.22177 0.25628 -0.02323 0.0
C32 C 0.23705 0.25881 0.10158 0.0
C33 C 0.21768 0.24326 0.21484 0.0
C34 C 0.18461 0.22344 0.19859 0.0
C35 C 0.1074 0.3201 0.8342 0.0
O36 O 0.11137 0.22106 0.12177 0.0
O37 O 0.10378 0.25999 0.18972 0.0
O38 O 0.11117 0.21833 0.86599 0.0
O39 O 0.11738 0.17854 0.7984 0.0
O40 O 0.12047 0.13996 0.2142 0.0
O41 O 0.14087 0.14096 0.01649 0.0
O42 O 0.10811 0.29918 0.75683 0.0
O43 O 0.10572 0.31478 0.9608 0.0
H44 H 0.17719 0.23202 0.86692 0.0
H45 H 0.17037 0.20907 0.2827 0.0
H46 H -0.00199 0.12913 0.23489 0.0
H47 H 0.0068 0.08711 0.86002 0.0
H48 H 0.22406 0.32704 0.15518 0.0
H49 H 0.22145 0.32327 0.71722 0.0
H50 H 0.98967 0.22109 0.72349 0.0
H51 H 0.98892 0.18942 0.1349 0.0
H52 H 0.23551 0.26813 0.887 0.0
H53 H 0.22807 0.24355 0.3126 0.0
Cd54 Cd 0.81922 0.93048 0.01189 0.0
Cd55 Cd 0.71766 0.83801 0.9069 0.0
C56 C 0.84869 0.88433 0.01082 0.0
N57 N 0.84472 0.90392 0.09882 0.0
C58 C 0.8822 0.90218 0.25365 0.0
C59 C 0.88923 0.88446 0.1591 0.0
C60 C 0.87103 0.87441 0.03852 0.0
C61 C 0.86034 0.91236 0.21991 0.0
H62 H 0.8364 0.87855 0.91416 0.0
H63 H 0.8576 0.92876 0.28675 0.0
C64 C 0.74971 0.86738 0.17963 0.0
C65 C 0.68946 0.88572 0.95316 0.0
C66 C 0.67545 0.90407 0.91411 0.0
C67 C 0.67913 0.91524 0.78003 0.0
C68 C 0.69942 0.91031 0.69262 0.0
C69 C 0.71244 0.89147 0.73522 0.0
N70 N 0.70652 0.8789 0.86197 0.0
H71 H 0.6847 0.8749 0.05262 0.0
H72 H 0.72542 0.88516 0.66407 0.0
C73 C 0.7262 0.78462 0.0443 0.0
N74 N 0.74037 0.80568 0.94104 0.0
C75 C 0.77483 0.78385 0.89427 0.0
C76 C 0.7607 0.76208 0.00177 0.0
C77 C 0.73617 0.76271 0.07719 0.0
C78 C 0.76431 0.80584 0.86578 0.0
H79 H 0.70675 0.78461 0.10024 0.0
H80 H 0.77494 0.82268 0.78322 0.0
C81 C 0.79091 0.89346 0.73409 0.0
C82 C 0.87178 0.99362 0.03805 0.0
N83 N 0.78317 0.9489 0.04642 0.0
C84 C 0.76856 0.95218 0.93455 0.0
C85 C 0.75019 0.96745 0.94336 0.0
C86 C 0.74698 0.97961 0.06859 0.0
C87 C 0.76141 0.97466 0.18339 0.0
C88 C 0.77978 0.95955 0.16966 0.0
C89 C 0.65919 0.78785 0.80059 0.0
O90 O 0.76716 0.88451 0.08252 0.0
O91 O 0.72174 0.84448 0.15124 0.0
O92 O 0.77054 0.87871 0.8264 0.0
O93 O 0.81729 0.91793 0.7686 0.0
O94 O 0.85834 0.97679 0.14294 0.0
O95 O 0.86021 0.98097 0.92334 0.0
O96 O 0.68418 0.80193 0.72635 0.0
O97 O 0.66161 0.79788 0.92173 0.0
H98 H 0.77247 0.94427 0.83727 0.0
H99 H 0.79285 0.95819 0.25605 0.0
H100 H 0.89484 0.90986 0.34938 0.0
H101 H 0.87563 0.8612 0.96081 0.0
H102 H 0.65964 0.90694 -0.01572 0.0
H103 H 0.703 0.91867 0.58883 0.0
H104 H 0.79376 0.78389 0.83381 0.0
H105 H 0.72425 0.74586 0.15899 0.0
H106 H 0.73985 0.97095 0.85192 0.0
H107 H 0.76077 0.98459 0.28125 0.0
Cd108 Cd 0.06913 0.89047 0.06513 0.0
Cd109 Cd 0.15875 0.88072 0.96936 0.0
C110 C 0.11828 0.96479 0.02381 0.0
N111 N 0.1027 0.94365 0.12534 0.0
C112 C 0.11756 0.98665 0.28332 0.0
C113 C 0.13108 0.00914 0.1776 0.0
C114 C 0.13273 -0.00218 0.0477 0.0
C115 C 0.10309 0.95375 0.25439 0.0
H116 H 0.11749 0.95597 0.92213 0.0
H117 H 0.09048 0.93627 0.33313 0.0
C118 C 0.12906 0.87982 0.23778 0.0
C119 C 0.10743 0.80514 0.02856 0.0
C120 C 0.08885 0.77273 -0.00867 0.0
C121 C 0.08231 0.76435 0.8532 0.0
C122 C 0.09242 0.78936 0.75804 0.0
C123 C 0.11241 0.82101 0.79903 0.0
N124 N 0.11951 0.82824 0.93149 0.0
H125 H 0.11406 0.81162 0.13343 0.0
H126 H 0.12411 0.83977 0.72479 0.0
C127 C 0.19102 0.95076 0.10357 0.0
N128 N 0.18199 0.93641 -0.01981 0.0
C129 C 0.20595 0.98772 0.871 0.0
C130 C 0.21657 0.00311 -0.0028 0.0
C131 C 0.20807 0.98415 0.11459 0.0
C132 C 0.18855 0.95404 0.86486 0.0
H133 H 0.18652 0.93642 0.19342 0.0
H134 H 0.18147 0.94191 0.76794 0.0
C135 C 0.09875 0.89154 0.78536 0.0
C136 C 0.00866 0.88381 0.13132 0.0
N137 N 0.04939 0.83743 0.11865 0.0
C138 C 0.04133 0.81488 0.01989 0.0
C139 C 0.02223 0.78223 0.05088 0.0
C140 C 0.01184 0.77299 0.18513 0.0
C141 C 0.02336 0.797 0.28611 0.0
C142 C 0.04087 0.82923 0.24936 0.0
C143 C 0.21086 0.87628 0.85585 0.0
O144 O 0.11384 0.88245 0.13794 0.0
O145 O 0.15292 0.87588 0.21387 0.0
O146 O 0.1154 0.88858 0.87812 0.0
O147 O 0.07468 0.89424 0.81923 0.0
O148 O 0.0313 0.89485 0.21845 0.0
O149 O 0.01461 0.87673 0.01481 0.0
O150 O 0.19226 0.88139 0.78058 0.0
O151 O 0.20508 0.87359 -0.01788 0.0
H152 H 0.04776 0.82235 0.91585 0.0
H153 H 0.04638 0.84787 0.32386 0.0
H154 H 0.11637 0.99422 0.38556 0.0
H155 H 0.14256 0.01394 0.96224 0.0
H156 H 0.08204 0.7546 0.06912 0.0
H157 H 0.08733 0.78453 0.65107 0.0
H158 H 0.21207 0.00148 0.77807 0.0
H159 H 0.21641 0.99484 0.21372 0.0
H160 H 0.01381 0.76491 0.96874 0.0
H161 H 0.01699 0.79125 0.39156 0.0
Cd162 Cd 0.78114 0.50654 0.34512 0.0
Cd163 Cd 0.77153 0.5963 0.24387 0.0
C164 C 0.70823 0.46379 0.24553 0.0
N165 N 0.72507 0.47977 0.35777 0.0
C166 C 0.67647 0.45891 0.48656 0.0
C167 C 0.6586 0.44097 0.37385 0.0
C168 C 0.67486 0.44426 0.25116 0.0
C169 C 0.70987 0.47808 0.4764 0.0
H170 H 0.7208 0.46502 0.15293 0.0
H171 H 0.72361 0.49068 0.5646 0.0
C172 C 0.77179 0.56754 0.52091 0.0
C173 C 0.84269 0.62409 0.3586 0.0
C174 C 0.87608 0.64268 0.36105 0.0
C175 C 0.89297 0.65406 0.23907 0.0
C176 C 0.87599 0.64368 0.11618 0.0
C177 C 0.84244 0.62468 0.11844 0.0
N178 N 0.82658 0.61627 0.23872 0.0
H179 H 0.82971 0.61779 0.45294 0.0
H180 H 0.82893 0.61861 0.02477 0.0
C181 C 0.69988 0.54283 0.31891 0.0
N182 N 0.7165 0.56241 0.21429 0.0
C183 C 0.66763 0.55349 0.1103 0.0
C184 C 0.65018 0.53631 0.22518 0.0
C185 C 0.6666 0.52948 0.32661 0.0
C186 C 0.70108 0.5668 0.10784 0.0
H187 H 0.7126 0.53975 0.40245 0.0
H188 H 0.71486 0.58256 0.0258 0.0
C189 C 0.77569 0.53246 0.07155 0.0
C190 C 0.79118 0.45606 0.43675 0.0
N191 N 0.8341 0.54753 0.3693 0.0
C192 C 0.85118 0.56177 0.25545 0.0
C193 C 0.8846 0.58105 0.26146 0.0
C194 C 0.90061 0.58523 0.38556 0.0
C195 C 0.88202 0.57207 0.50292 0.0
C196 C 0.84868 0.55292 0.49215 0.0
C197 C 0.7757 0.65436 0.15126 0.0
O198 O 0.77486 0.55177 0.4245 0.0
O199 O 0.76853 0.59156 0.4907 0.0
O200 O 0.77484 0.54926 0.16888 0.0
O201 O 0.779 0.5084 0.09994 0.0
O202 O 0.77959 0.46865 0.51663 0.0
O203 O 0.79814 0.46722 0.31742 0.0
O204 O 0.77503 0.63393 0.06642 0.0
O205 O 0.77428 0.64736 0.27603 0.0
H206 H 0.83918 0.5567 0.15851 0.0
H207 H 0.83492 0.54035 0.58028 0.0
H208 H 0.66491 0.45734 0.58276 0.0
H209 H 0.66227 0.43043 0.1622 0.0
H210 H 0.88839 0.64999 0.45776 0.0
H211 H 0.88813 0.65235 0.02006 0.0
H212 H 0.656 0.55858 0.02757 0.0
H213 H 0.65463 0.5166 0.4178 0.0
H214 H 0.89789 0.59098 0.1686 0.0
H215 H 0.89317 0.57378 0.60034 0.0
Cd216 Cd 0.48405 0.26382 0.34172 0.0
Cd217 Cd 0.3852 0.17129 0.23561 0.0
C218 C 0.50232 0.20809 0.36105 0.0
N219 N 0.51014 0.23677 0.42012 0.0
C220 C 0.55566 0.2387 0.52911 0.0
C221 C 0.54981 0.21053 0.46036 0.0
C222 C 0.5218 0.19429 0.38065 0.0
C223 C 0.53545 0.25151 0.50716 0.0
H224 H 0.48213 0.19704 0.292 0.0
H225 H 0.54125 0.27427 0.55324 0.0
C226 C 0.41801 0.19709 0.50881 0.0
C227 C 0.35821 0.21697 0.32419 0.0
C228 C 0.34509 0.2371 0.309 0.0
C229 C 0.35042 0.25468 0.18847 0.0
C230 C 0.37139 0.25363 0.09138 0.0
C231 C 0.38352 0.23272 0.1098 0.0
N232 N 0.376 0.21434 0.22318 0.0
H233 H 0.35226 0.20165 0.41222 0.0
H234 H 0.39715 0.2297 0.02968 0.0
C235 C 0.4005 0.11989 0.35513 0.0
N236 N 0.40996 0.14026 0.24789 0.0
C237 C 0.44573 0.12187 0.17369 0.0
C238 C 0.43685 0.10134 0.28588 0.0
C239 C 0.41399 0.10042 0.3771 0.0
C240 C 0.43199 0.14156 0.15697 0.0
H241 H 0.38226 0.11861 0.42346 0.0
H242 H 0.43897 0.15781 0.07203 0.0
C243 C 0.4572 0.22895 0.06311 0.0
C244 C 0.53447 0.32783 0.37553 0.0
N245 N 0.44563 0.27952 0.37692 0.0
C246 C 0.44405 0.29844 0.27848 0.0
C247 C 0.42612 0.31386 0.29856 0.0
C248 C 0.40926 0.30939 0.4208 0.0
C249 C 0.40942 0.28772 0.51599 0.0
C250 C 0.42847 0.27366 0.49341 0.0
C251 C 0.32522 0.12449 0.12415 0.0
O252 O 0.43443 0.21511 0.41189 0.0
O253 O 0.39032 0.17361 0.48094 0.0
O254 O 0.43722 0.214 0.15625 0.0
O255 O 0.48335 0.25375 0.0966 0.0
O256 O 0.52064 0.31045 0.4787 0.0
O257 O 0.52444 0.31528 0.25937 0.0
O258 O 0.3503 0.1382 0.05058 0.0
O259 O 0.32827 0.13286 0.24793 0.0
H260 H 0.45823 0.30298 0.18744 0.0
H261 H 0.43055 0.2594 0.57215 0.0
H262 H 0.57707 0.25224 0.59041 0.0
H263 H 0.51612 0.17225 0.3273 0.0
H264 H 0.32877 0.23665 0.38607 0.0
H265 H 0.37654 0.26707 -0.00214 0.0
H266 H 0.46316 0.12282 0.10107 0.0
H267 H 0.40613 0.08425 0.46306 0.0
H268 H 0.42733 0.33072 0.22263 0.0
H269 H 0.39646 0.28306 0.61068 0.0
Cd270 Cd 0.72784 0.2143 0.33859 0.0
Cd271 Cd 0.82123 0.2112 0.23315 0.0
C272 C 0.77544 0.28964 0.32216 0.0
N273 N 0.75629 0.26728 0.4142 0.0
C274 C 0.76331 0.30852 0.5705 0.0
C275 C 0.78114 0.33225 0.47333 0.0
C276 C 0.78809 0.32235 0.34938 0.0
C277 C 0.75055 0.276 0.53772 0.0
H278 H 0.77914 0.282 0.22394 0.0
H279 H 0.73466 0.2578 0.60823 0.0
C280 C 0.79423 0.21437 0.50757 0.0
C281 C 0.77925 0.13749 0.31102 0.0
C282 C 0.76063 0.10437 0.28989 0.0
C283 C 0.74286 0.0927 0.16924 0.0
C284 C 0.74228 0.11484 0.07776 0.0
C285 C 0.7616 0.14777 0.10221 0.0
N286 N 0.78009 0.15831 0.21581 0.0
H287 H 0.7948 0.14661 0.39879 0.0
H288 H 0.76354 0.16472 0.02575 0.0
C289 C 0.87345 0.27508 0.37023 0.0
N290 N 0.85112 0.26619 0.27024 0.0
C291 C 0.86644 0.32121 0.22804 0.0
C292 C 0.88925 0.33081 0.33271 0.0
C293 C 0.89263 0.30738 0.40427 0.0
C294 C 0.84723 0.28835 0.19881 0.0
H295 H 0.87647 0.25698 0.42326 0.0
H296 H 0.82941 0.28062 0.11906 0.0
C297 C 0.76172 0.2232 0.05967 0.0
C298 C 0.66519 0.20323 0.39661 0.0
N299 N 0.71159 0.15966 0.3482 0.0
C300 C 0.69063 0.14221 0.24843 0.0
C301 C 0.67503 0.1087 0.25055 0.0
C302 C 0.68141 0.09266 0.35561 0.0
C303 C 0.70501 0.11164 0.45199 0.0
C304 C 0.71931 0.14513 0.44806 0.0
C305 C 0.86841 0.20116 0.10189 0.0
O306 O 0.77662 0.21327 0.40935 0.0
O307 O 0.81857 0.21137 0.48047 0.0
O308 O 0.77753 0.21933 0.15321 0.0
O309 O 0.73634 0.22365 0.09298 0.0
O310 O 0.68375 0.20503 0.49307 0.0
O311 O 0.67615 0.2067 0.27686 0.0
O312 O 0.85514 0.21494 0.04094 0.0
O313 O 0.85986 0.19238 0.22332 0.0
H314 H 0.68477 0.1544 0.17078 0.0
H315 H 0.73578 0.15911 0.52742 0.0
H316 H 0.7578 0.3148 0.66842 0.0
H317 H 0.80117 0.33936 0.26963 0.0
H318 H 0.76234 0.08825 0.36203 0.0
H319 H 0.729 0.10682 -0.01656 0.0
H320 H 0.86345 0.33882 0.17052 0.0
H321 H 0.91048 0.31406 0.4838 0.0
H322 H 0.65672 0.09591 0.1747 0.0
H323 H 0.71185 0.10101 0.53274 0.0
Cd324 Cd 0.443 0.84338 0.64254 0.0
Cd325 Cd 0.44876 0.9401 0.54497 0.0
C326 C 0.37158 0.79459 0.5703 0.0
N327 N 0.38751 0.81794 0.66441 0.0
C328 C 0.33819 0.80392 0.77879 0.0
C329 C 0.32133 0.77907 0.68446 0.0
C330 C 0.33835 0.77497 0.57771 0.0
C331 C 0.37162 0.82345 0.76612 0.0
H332 H 0.38492 0.79041 0.49206 0.0
H333 H 0.38485 0.84222 0.83958 0.0
C334 C 0.44692 0.91086 0.81977 0.0
C335 C 0.52266 0.96885 0.61717 0.0
C336 C 0.55564 0.98271 0.59449 0.0
C337 C 0.56712 0.97932 0.46708 0.0
C338 C 0.54416 0.96007 0.3687 0.0
C339 C 0.51141 0.94734 0.39493 0.0
N340 N 0.50146 0.95232 0.51678 0.0
H341 H 0.51403 0.97306 0.71202 0.0
H342 H 0.49405 0.93451 0.31614 0.0
C343 C 0.38726 0.93213 0.68274 0.0
N344 N 0.39418 0.91603 0.58716 0.0
C345 C 0.33838 0.87689 0.56284 0.0
C346 C 0.33087 0.89293 0.66338 0.0
C347 C 0.35568 0.92079 0.72349 0.0
C348 C 0.37068 0.88888 0.52648 0.0
H349 H 0.40646 0.95391 0.72745 0.0
H350 H 0.37694 0.87666 0.45016 0.0
C351 C 0.43589 0.86842 0.36862 0.0
C352 C 0.45564 0.79506 0.73918 0.0
N353 N 0.49719 0.88149 0.64468 0.0
C354 C 0.51358 0.88672 0.52676 0.0
C355 C 0.54715 0.90367 0.52662 0.0
C356 C 0.56408 0.91462 0.64965 0.0
C357 C 0.54628 0.91042 0.7688 0.0
C358 C 0.51273 0.89358 0.76398 0.0
C359 C 0.45725 -0.00191 0.43155 0.0
O360 O 0.44686 0.89366 0.72202 0.0
O361 O 0.4508 0.93844 0.79198 0.0
O362 O 0.43989 0.88772 0.46443 0.0
O363 O 0.4354 0.84239 0.39842 0.0
O364 O 0.44343 0.80727 0.81782 0.0
O365 O 0.46101 0.80486 0.61756 0.0
O366 O 0.4459 0.97257 0.36006 0.0
O367 O 0.4647 0.99625 0.55335 0.0
H368 H 0.50063 0.87639 0.43356 0.0
H369 H 0.49929 0.88825 0.85701 0.0
H370 H 0.32579 0.80771 0.8625 0.0
H371 H 0.32633 0.75566 0.50456 0.0
H372 H 0.57159 -0.00229 0.67405 0.0
H373 H 0.55108 0.95549 0.27058 0.0
H374 H 0.31961 0.85534 0.51451 0.0
H375 H 0.35058 0.93395 0.79996 0.0
H376 H 0.55958 0.9069 0.43141 0.0
H377 H 0.55781 0.91751 0.86694 0.0
Cd378 Cd 0.15121 0.59933 0.69057 0.0
Cd379 Cd 0.05285 0.50297 0.58316 0.0
C380 C 0.17847 0.55166 0.68485 0.0
N381 N 0.18006 0.57536 0.76597 0.0
C382 C 0.22603 0.57981 0.88091 0.0
C383 C 0.22651 0.55719 0.79097 0.0
C384 C 0.20116 0.54165 0.69748 0.0
C385 C 0.20235 0.58862 0.86648 0.0
H386 H 0.16102 0.54223 0.60357 0.0
H387 H 0.20336 0.60777 0.92847 0.0
C388 C 0.08494 0.5327 0.85858 0.0
C389 C 0.0247 0.54975 0.64386 0.0
C390 C 0.01079 0.56871 0.61449 0.0
C391 C 0.01393 0.58158 0.48364 0.0
C392 C 0.03323 0.57698 0.38902 0.0
C393 C 0.04608 0.55734 0.42193 0.0
N394 N 0.04104 0.5437 0.54645 0.0
H395 H 0.02063 0.53808 0.74127 0.0
H396 H 0.05853 0.55165 0.34556 0.0
C397 C 0.10321 0.48051 0.66635 0.0
N398 N 0.07866 0.47261 0.5777 0.0
C399 C 0.0754 0.42205 0.53038 0.0
C400 C 0.09909 0.4286 0.62902 0.0
C401 C 0.11413 0.45892 0.69261 0.0
C402 C 0.06543 0.44455 0.50634 0.0
H403 H 0.11294 0.50263 0.72337 0.0
H404 H 0.04562 0.43856 0.4378 0.0
C405 C 0.12464 0.56174 0.41359 0.0
C406 C 0.19953 0.66461 0.71161 0.0
N407 N 0.112 0.61323 0.72526 0.0
C408 C 0.10052 0.61952 0.61064 0.0
C409 C 0.08289 0.63549 0.61782 0.0
C410 C 0.07758 0.64561 0.74418 0.0
C411 C 0.08757 0.63642 0.86173 0.0
C412 C 0.10518 0.62042 0.84977 0.0
C413 C 0.99268 0.45387 0.48631 0.0
O414 O 0.10142 0.55101 0.76237 0.0
O415 O 0.05824 0.50796 0.82876 0.0
O416 O 0.10466 0.54633 0.50629 0.0
O417 O 0.15009 0.58732 0.44734 0.0
O418 O 0.18827 0.6477 0.81833 0.0
O419 O 0.18791 0.65092 0.59858 0.0
O420 O 0.01541 0.47066 0.40402 0.0
O421 O -0.00183 0.46061 0.6116 0.0
H422 H 0.10699 0.61408 0.51309 0.0
H423 H 0.11556 0.61622 0.93908 0.0
H424 H 0.24519 0.59258 0.95385 0.0
H425 H 0.20022 0.52363 0.62796 0.0
H426 H 0.99575 0.5711 0.69034 0.0
H427 H 0.03673 0.58679 0.28775 0.0
H428 H 0.06295 0.39887 0.47988 0.0
H429 H 0.13283 0.46515 0.76781 0.0
H430 H 0.07552 0.64189 0.52465 0.0
H431 H 0.08477 0.64432 0.96115 0.0
Cd432 Cd 0.40714 0.56186 0.68984 0.0
Cd433 Cd 0.491 0.54151 0.58166 0.0
C434 C 0.45589 0.63619 0.66411 0.0
N435 N 0.4381 0.61446 0.76055 0.0
C436 C 0.445 0.65638 0.91206 0.0
C437 C 0.46059 0.67929 0.80932 0.0
C438 C 0.46743 0.66892 0.68627 0.0
C439 C 0.43327 0.6238 0.88427 0.0
H440 H 0.4587 0.62785 0.56578 0.0
H441 H 0.41865 0.60585 0.95847 0.0
C442 C 0.46585 0.54705 0.855 0.0
C443 C 0.42932 0.47169 0.6601 0.0
C444 C 0.40867 0.43861 0.64275 0.0
C445 C 0.40938 0.42381 0.52057 0.0
C446 C 0.42973 0.44311 0.41626 0.0
C447 C 0.45014 0.47575 0.43875 0.0
N448 N 0.44975 0.48927 0.55894 0.0
H449 H 0.43006 0.48289 0.75619 0.0
H450 H 0.46739 0.49018 0.36202 0.0
C451 C 0.53808 0.60764 0.7328 0.0
N452 N 0.52023 0.59683 0.61773 0.0
C453 C 0.53864 0.65087 0.5445 0.0
C454 C 0.55697 0.66252 0.66338 0.0
C455 C 0.55637 0.64052 0.75856 0.0
C456 C 0.5201 0.61758 0.52392 0.0
H457 H 0.53865 0.59078 0.80377 0.0
H458 H 0.50604 0.6083 0.43225 0.0
C459 C 0.43418 0.55646 0.40568 0.0
C460 C 0.34681 0.55765 0.73168 0.0
N461 N 0.38343 0.50912 0.75855 0.0
C462 C 0.36887 0.48579 0.66301 0.0
C463 C 0.34921 0.4538 0.70173 0.0
C464 C 0.34477 0.44588 0.84011 0.0
C465 C 0.36159 0.47045 0.93596 0.0
C466 C 0.38025 0.50219 0.89271 0.0
C467 C 0.53726 0.53362 0.43295 0.0
O468 O 0.45138 0.55168 0.75702 0.0
O469 O 0.48666 0.53872 0.82771 0.0
O470 O 0.44958 0.55206 0.49911 0.0
O471 O 0.41273 0.56328 0.43958 0.0
O472 O 0.36484 0.56061 0.83198 0.0
O473 O 0.35738 0.55719 0.6139 0.0
O474 O 0.52293 0.54735 0.38041 0.0
O475 O 0.53038 0.52417 0.55478 0.0
H476 H 0.37128 0.49231 0.5571 0.0
H477 H 0.39084 0.52152 0.96608 0.0
H478 H 0.43992 0.66319 0.0097 0.0
H479 H 0.47892 0.68528 0.60279 0.0
H480 H 0.39364 0.42451 0.72627 0.0
H481 H 0.43203 0.43277 0.32206 0.0
H482 H 0.53883 0.66727 0.46854 0.0
H483 H 0.57086 0.6487 0.84985 0.0
H484 H 0.33624 0.43588 0.62426 0.0
H485 H 0.35895 0.46549 0.04355 0.0
C486 C 0.28909 0.28165 0.23145 0.0
C487 C 0.27227 0.2706 0.10828 0.0
H488 H 0.32735 0.28506 0.35521 0.0
C489 C 0.2871 0.2634 0.00121 0.0
H490 H 0.27909 0.2887 0.31446 0.0
C491 C 0.31522 0.26217 0.02349 0.0
C492 C 0.329 0.26787 0.15349 0.0
H493 H 0.27525 0.2549 0.90431 0.0
H494 H 0.32368 0.25296 0.94249 0.0
C495 C 0.31693 0.27976 0.25465 0.0
C496 C 0.741 0.05353 -0.00119 0.0
C497 C 0.73184 0.05906 0.12686 0.0
H498 H 0.75317 0.02406 0.87984 0.0
C499 C 0.7193 0.03394 0.22192 0.0
H500 H 0.75079 0.07233 0.92298 0.0
C501 C 0.72038 0.00571 0.19646 0.0
C502 C 0.7344 0.00245 0.07637 0.0
H503 H 0.71134 0.03727 0.32032 0.0
H504 H 0.71286 0.98776 0.27555 0.0
C505 C 0.74237 0.02556 0.97391 0.0
C506 C 0.97893 0.71305 0.1373 0.0
C507 C 0.98469 0.74015 0.21543 0.0
H508 H 0.94508 0.66397 0.08366 0.0
C509 C 0.96162 0.73667 0.31243 0.0
H510 H 0.9963 0.71459 0.06313 0.0
C511 C 0.93301 0.7078 0.32576 0.0
C512 C 0.92622 0.68156 0.24137 0.0
H513 H 0.96424 0.75684 0.37221 0.0
H514 H 0.91512 0.70695 0.39565 0.0
C515 C 0.94974 0.68403 0.14932 0.0
C516 C 0.77009 0.71676 0.93485 0.0
C517 C 0.77014 0.73776 0.03481 0.0
H518 H 0.77168 0.67347 0.89343 0.0
C519 C 0.77543 0.73297 0.17041 0.0
H520 H 0.76587 0.71991 0.82964 0.0
C521 C 0.77859 0.70655 0.20687 0.0
C522 C 0.77648 0.68431 0.10847 0.0
H523 H 0.77594 0.74907 0.24908 0.0
H524 H 0.78157 0.703 0.31306 0.0
C525 C 0.7732 0.69014 0.97149 0.0
C526 C 0.26739 0.05159 0.92163 0.0
C527 C 0.24043 0.03794 0.00768 0.0
H528 H 0.31557 0.09014 0.89084 0.0
C529 C 0.23957 0.05606 0.11834 0.0
H530 H 0.26889 0.03822 0.83588 0.0
C531 C 0.26656 0.08552 0.15118 0.0
C532 C 0.29469 0.09757 0.07284 0.0
H533 H 0.21881 0.04645 0.18469 0.0
H534 H 0.26598 0.09795 0.24214 0.0
C535 C 0.29429 0.08126 0.95372 0.0
C536 C 0.94177 0.21963 0.89527 0.0
C537 C 0.95081 0.19813 0.95085 0.0
H538 H 0.90829 0.23709 0.89852 0.0
C539 C 0.92964 0.17451 0.04213 0.0
H540 H 0.95741 0.23843 0.82602 0.0
C541 C 0.90197 0.17459 0.08717 0.0
C542 C 0.89441 0.19763 0.03877 0.0
H543 H 0.93519 0.15691 0.08405 0.0
H544 H 0.88706 0.15728 0.1632 0.0
C545 C 0.91368 0.21914 0.93784 0.0
C546 C 0.95412 0.61096 0.50554 0.0
C547 C 0.93559 0.59612 0.38914 0.0
H548 H 0.99472 0.61893 0.62624 0.0
C549 C 0.94846 0.58483 0.28901 0.0
H550 H 0.94536 0.62086 0.5826 0.0
C551 C 0.97646 0.58364 0.314 0.0
C552 C 0.99229 0.59381 0.43949 0.0
H553 H 0.93507 0.57326 0.1978 0.0
H554 H 0.98333 0.57126 0.24067 0.0
C555 C 0.98232 0.60978 0.53067 0.0
C556 C 0.38516 0.37296 0.38451 0.0
C557 C 0.3955 0.38848 0.51058 0.0
H558 H 0.38137 0.33525 0.25591 0.0
C559 C 0.40113 0.37235 0.61645 0.0
H560 H 0.37972 0.38442 0.3021 0.0
C561 C 0.40193 0.34412 0.59041 0.0
C562 C 0.39701 0.3315 0.45808 0.0
H563 H 0.40902 0.3835 0.71513 0.0
H564 H 0.41018 0.33466 0.67093 0.0
C565 C 0.38629 0.34486 0.35793 0.0
C566 C 0.61137 0.00982 0.29671 0.0
C567 C 0.60197 -5e-05 0.43145 0.0
H568 H 0.64591 0.04538 0.16506 0.0
C569 C 0.62529 0.01512 0.53368 0.0
H570 H 0.59537 -0.00169 0.21207 0.0
C571 C 0.65348 0.04399 0.5073 0.0
C572 C 0.65979 0.05726 0.37611 0.0
H573 H 0.62057 0.00669 0.63718 0.0
H574 H 0.66824 0.057 0.59327 0.0
C575 C 0.64045 0.03768 0.26934 0.0
C576 C 0.44259 0.05445 0.21458 0.0
C577 C 0.44963 0.07937 0.30739 0.0
H578 H 0.43953 0.00869 0.18147 0.0
C579 C 0.46382 0.07978 0.43212 0.0
H580 H 0.43143 0.05371 0.11809 0.0
C581 C 0.46848 0.05425 0.4684 0.0
C582 C 0.45869 0.02775 0.38095 0.0
H583 H 0.46949 0.09893 0.50471 0.0
H584 H 0.47792 0.05442 0.56835 0.0
C585 C 0.44702 0.02869 0.25129 0.0
C586 C 0.93967 0.40561 0.53733 0.0
C587 C 0.9625 0.42549 0.441 0.0
H588 H 0.89807 0.35983 0.5771 0.0
C589 C 0.95779 0.41599 0.30417 0.0
H590 H 0.94242 0.41238 0.64332 0.0
C591 C 0.93209 0.38595 0.26632 0.0
C592 C 0.91102 0.36505 0.36499 0.0
H593 H 0.9749 0.43093 0.22764 0.0
H594 H 0.93005 0.37816 0.16187 0.0
C595 C 0.91425 0.37558 0.49969 0.0
C596 C 0.58135 0.55349 0.26277 0.0
C597 C 0.56228 0.53044 0.35924 0.0
H598 H 0.6244 0.57389 0.14628 0.0
C599 C 0.56905 0.50591 0.39283 0.0
H600 H 0.57648 0.57258 0.23482 0.0
C601 C 0.59591 0.50577 0.33792 0.0
C602 C 0.61715 0.53085 0.2521 0.0
H603 H 0.55416 0.4874 0.4649 0.0
H604 H 0.60089 0.48693 0.36851 0.0
C605 C 0.60873 0.55394 0.21081 0.0
C606 C 0.61827 0.94346 0.76627 0.0
C607 C 0.59884 0.92432 0.65823 0.0
H608 H 0.6597 0.95587 0.89068 0.0
C609 C 0.611 0.90922 0.57306 0.0
H610 H 0.61041 0.95658 0.83082 0.0
C611 C 0.63946 0.90959 0.60532 0.0
C612 C 0.65634 0.92474 0.72425 0.0
H613 H 0.59712 0.89411 0.48912 0.0
H614 H 0.64614 0.89492 0.54456 0.0
C615 C 0.64663 0.94333 0.80015 0.0
C616 C 0.08378 0.69723 0.65968 0.0
C617 C 0.06925 0.67163 0.75177 0.0
H618 H 0.0998 0.74615 0.61952 0.0
C619 C 0.05262 0.67463 0.86335 0.0
H620 H 0.09718 0.69619 0.57328 0.0
C621 C 0.05383 0.70401 0.89025 0.0
C622 C 0.07195 0.7309 0.8066 0.0
H623 H 0.04054 0.65502 0.93458 0.0
H624 H 0.04238 0.70616 -0.01888 0.0
C625 C 0.08523 0.7264 0.68684 0.0
C626 C 0.26984 0.38264 0.01323 0.0
C627 C 0.26111 0.35556 0.93067 0.0
H628 H 0.30277 0.43228 0.04863 0.0
C629 C 0.28287 0.35693 0.83161 0.0
H630 H 0.25349 0.38262 0.08923 0.0
C631 C 0.31159 0.38573 0.80834 0.0
C632 C 0.31888 0.41361 0.88345 0.0
H633 H 0.277 0.33622 0.76802 0.0
H634 H 0.32728 0.38657 0.72742 0.0
C635 C 0.29832 0.4113 -0.01018 0.0
C636 C 0.10804 0.37207 0.86887 0.0
C637 C 0.10779 0.34901 0.77989 0.0
H638 H 0.1054 0.41509 0.89092 0.0
C639 C 0.10698 0.35343 0.63955 0.0
H640 H 0.10872 0.36937 -0.02249 0.0
C641 C 0.10535 0.37994 0.58947 0.0
C642 C 0.10468 0.40254 0.67889 0.0
H643 H 0.10692 0.3361 0.56849 0.0
H644 H 0.10415 0.38252 0.48101 0.0
C645 C 0.1065 0.39851 0.81901 0.0
C646 C 0.60419 0.74175 0.84493 0.0
C647 C 0.62967 0.75886 0.75391 0.0
H648 H 0.5607 0.69764 0.88607 0.0
C649 C 0.62809 0.74602 0.62406 0.0
H650 H 0.60452 0.75114 0.94524 0.0
C651 C 0.60277 0.71544 0.59002 0.0
C652 C 0.57888 0.69728 0.68571 0.0
H653 H 0.64728 0.75877 0.55151 0.0
H654 H 0.60311 0.70511 0.49266 0.0
C655 C 0.57909 0.71116 0.81129 0.0
C656 C 0.28948 0.8759 0.84319 0.0
C657 C 0.29749 0.88191 0.70575 0.0
H658 H 0.25556 0.86904 -0.00191 0.0
C659 C 0.27528 0.8825 0.61458 0.0
H660 H 0.30638 0.87538 0.91496 0.0
C661 C 0.24626 0.87932 0.66218 0.0
C662 C 0.23913 0.87532 0.80136 0.0
H663 H 0.28124 0.88743 0.50826 0.0
H664 H 0.23012 0.88136 0.59103 0.0
C665 C 0.26049 0.87245 0.89052 0.0
C666 C 0.11751 0.0495 0.27539 0.0
C667 C 0.13801 0.04296 0.19519 0.0
H668 H 0.10063 0.08245 0.32067 0.0
C669 C 0.16136 0.06784 0.11469 0.0
H670 H 0.09902 0.03102 0.33798 0.0
C671 C 0.16156 0.09703 0.10214 0.0
C672 C 0.13901 0.10222 0.17257 0.0
H673 H 0.17818 0.06407 0.0547 0.0
H674 H 0.1783 0.1149 0.03203 0.0
C675 C 0.11821 0.07899 0.26496 0.0
C676 C 0.94925 0.06333 0.17118 0.0
C677 C 0.96298 0.08055 0.0514 0.0
H678 H 0.9093 0.02214 0.26116 0.0
C679 C 0.94455 0.07137 0.93199 0.0
H680 H 0.96295 0.06976 0.26462 0.0
C681 C 0.91403 0.04403 0.92974 0.0
C682 C 0.90128 0.0254 0.04705 0.0
H683 H 0.9543 0.08458 0.8388 0.0
H684 H 0.90103 0.03675 0.83459 0.0
C685 C 0.9186 0.03597 0.16905 0.0
C686 C 0.9461 0.90495 0.2406 0.0
C687 C 0.91821 0.88068 0.17576 0.0
H688 H 0.99655 0.92449 0.27941 0.0
C689 C 0.91986 0.85513 0.11219 0.0
H690 H 0.94627 0.92537 0.28901 0.0
C691 C 0.94918 0.85553 0.10226 0.0
C692 C 0.97716 0.88079 0.16008 0.0
H693 H 0.89883 0.83543 0.06503 0.0
H694 H 0.95017 0.83649 0.04635 0.0
C695 C 0.97517 0.90472 0.23434 0.0
C696 C 0.81454 0.39167 0.42449 0.0
C697 C 0.78832 0.36619 0.49167 0.0
H698 H 0.83577 0.44029 0.35326 0.0
C699 C 0.7664 0.3728 0.56079 0.0
H700 H 0.83257 0.38797 0.37409 0.0
C701 C 0.7691 0.40322 0.55314 0.0
C702 C 0.79325 0.42735 0.47372 0.0
H703 H 0.74568 0.35398 0.61263 0.0
H704 H 0.75071 0.40697 0.59996 0.0
C705 C 0.81663 0.42177 0.41358 0.0
C706 C 0.6134 0.39596 0.50157 0.0
C707 C 0.62414 0.41604 0.38693 0.0
H708 H 0.57614 0.35225 0.58842 0.0
C709 C 0.6028 0.40929 0.27789 0.0
H710 H 0.62926 0.40027 0.58701 0.0
C711 C 0.57264 0.38143 0.27787 0.0
C712 C 0.56303 0.3601 0.38787 0.0
H713 H 0.61001 0.42472 0.18964 0.0
H714 H 0.55741 0.37587 0.18919 0.0
C715 C 0.58299 0.36832 0.50233 0.0
C716 C 0.58365 0.19417 0.3265 0.0
C717 C 0.57561 0.20183 0.45282 0.0
H718 H 0.61817 0.1885 0.21036 0.0
C719 C 0.59542 0.20584 0.56521 0.0
H720 H 0.56925 0.19129 0.23732 0.0
C721 C 0.62384 0.2045 0.54927 0.0
C722 C 0.63295 0.1993 0.42056 0.0
H723 H 0.58967 0.21141 0.66419 0.0
H724 H 0.63945 0.2092 0.63606 0.0
C725 C 0.61199 0.19296 0.3106 0.0
C726 C 0.48638 0.7658 0.72406 0.0
C727 C 0.46132 0.76894 0.78245 0.0
H728 H 0.5074 0.73588 0.695 0.0
C729 C 0.43962 0.74497 0.86982 0.0
H730 H 0.50379 0.7844 0.65824 0.0
C731 C 0.44088 0.71663 0.88712 0.0
C732 C 0.4644 0.71213 0.81973 0.0
H733 H 0.42011 0.74696 0.91599 0.0
H734 H 0.42182 0.69745 0.94493 0.0
C735 C 0.48827 0.7379 0.74454 0.0
C736 C 0.2366 0.7162 0.59639 0.0
C737 C 0.22708 0.69778 0.71553 0.0
H738 H 0.27389 0.75721 0.4945 0.0
C739 C 0.24632 0.70987 0.83216 0.0
H740 H 0.222 0.70778 0.50547 0.0
C741 C 0.27611 0.73831 0.82568 0.0
C742 C 0.28692 0.75496 0.70258 0.0
H743 H 0.23947 0.69625 0.92558 0.0
H744 H 0.2917 0.74581 0.91379 0.0
C745 C 0.26624 0.74453 0.59003 0.0
C746 C 0.30311 0.55564 0.87938 0.0
C747 C 0.31507 0.55526 0.74974 0.0
H748 H 0.26517 0.55573 -0.00506 0.0
C749 C 0.29666 0.5532 0.63563 0.0
H750 H 0.31673 0.55699 0.96927 0.0
C751 C 0.26742 0.55261 0.65016 0.0
C752 C 0.25567 0.55383 0.77933 0.0
H753 H 0.30517 0.55285 0.53433 0.0
H754 H 0.25472 0.55255 0.55923 0.0
C755 C 0.27364 0.55494 0.89407 0.0
C756 C 0.10439 0.23493 0.5991 0.0
C757 C 0.11001 0.2095 0.62836 0.0
H758 H 0.0996 0.26384 0.44633 0.0
C759 C 0.11341 0.19194 0.5221 0.0
H760 H 0.10095 0.24811 0.67968 0.0
C761 C 0.11201 0.20038 0.38869 0.0
C762 C 0.10765 0.22667 0.35948 0.0
H763 H 0.11733 0.17185 0.54171 0.0
H764 H 0.11443 0.18639 0.3083 0.0
C765 C 0.10346 0.24371 0.46579 0.0
C766 C 0.74432 0.85025 0.42099 0.0
C767 C 0.76152 0.87306 0.32018 0.0
H768 H 0.74117 0.83835 0.63101 0.0
C769 C 0.7903 0.90092 0.35459 0.0
H770 H 0.72241 0.82807 0.39695 0.0
C771 C 0.80076 0.90704 0.48878 0.0
C772 C 0.7827 0.885 0.5906 0.0
H773 H 0.80441 0.91829 0.27801 0.0
H774 H 0.82239 0.92946 0.51307 0.0
C775 C 0.7551 0.856 0.55474 0.0
C776 C 0.12658 0.91663 0.57047 0.0
C777 C 0.10535 0.88909 0.64333 0.0
H778 H 0.15032 0.93505 0.3804 0.0
C779 C 0.09105 0.85876 0.58104 0.0
H780 H 0.13741 0.94027 0.61718 0.0
C781 C 0.09998 0.85558 0.45028 0.0
C782 C 0.1207 0.88304 0.37632 0.0
H783 H 0.07398 0.83741 0.63556 0.0
H784 H 0.09033 0.83177 0.40617 0.0
C785 C 0.13399 0.91363 0.43642 0.0
C786 C 0.76757 0.57529 0.76798 0.0
C787 C 0.77217 0.55841 0.66201 0.0
H788 H 0.76483 0.57979 -0.01804 0.0
C789 C 0.77749 0.53277 0.6918 0.0
H790 H 0.76333 0.59515 0.74793 0.0
C791 C 0.77845 0.52414 0.82507 0.0
C792 C 0.77411 0.54113 0.93104 0.0
H793 H 0.78063 0.51916 0.61182 0.0
H794 H 0.78271 0.50427 0.84478 0.0
C795 C 0.76846 0.5666 0.90163 0.0
C796 C 0.41994 0.19166 0.88824 0.0
C797 C 0.44918 0.21925 0.92068 0.0
H798 H 0.38707 0.16292 0.73302 0.0
C799 C 0.46949 0.23829 0.81602 0.0
H800 H 0.40417 0.17646 0.96703 0.0
C801 C 0.45986 0.23054 0.68137 0.0
C802 C 0.42974 0.2038 0.64949 0.0
H803 H 0.49227 0.25972 0.83801 0.0
H804 H 0.47526 0.24642 0.60293 0.0
C805 C 0.41023 0.18396 0.75415 0.0
C806 C 0.8093 0.22617 0.75101 0.0
C807 C 0.78639 0.2183 0.64784 0.0
H808 H 0.81956 0.23532 0.96221 0.0
C809 C 0.756 0.21429 0.67995 0.0
H810 H 0.83315 0.22997 0.72894 0.0
C811 C 0.7482 0.21699 0.81358 0.0
C812 C 0.77079 0.22383 0.91714 0.0
H813 H 0.73793 0.20831 0.60227 0.0
H814 H 0.72424 0.2128 0.83605 0.0
C815 C 0.80158 0.22913 0.88433 0.0
C816 C 0.43343 0.90499 0.19675 0.0
C817 C 0.43542 0.87741 0.22731 0.0
H818 H 0.4365 0.93796 0.04363 0.0
C819 C 0.43888 0.85963 0.12217 0.0
H820 H 0.42954 0.91823 0.27609 0.0
C821 C 0.44197 0.87031 -0.01068 0.0
C822 C 0.44229 0.89913 0.95962 0.0
H823 H 0.43996 0.83792 0.14255 0.0
H824 H 0.4446 0.85626 0.90993 0.0
C825 C 0.43733 0.91612 0.0641 0.0
C826 C 0.08953 0.5232 0.23571 0.0
C827 C 0.117 0.55241 0.27045 0.0
H828 H 0.05728 0.49446 0.07838 0.0
C829 C 0.13561 0.57372 0.16735 0.0
H830 H 0.07523 0.50601 0.313 0.0
C831 C 0.1257 0.56684 0.03266 0.0
C832 C 0.09679 0.53888 -0.00082 0.0
H833 H 0.15722 0.59622 0.1909 0.0
H834 H 0.14018 0.58392 0.95547 0.0
C835 C 0.07925 0.51666 0.10147 0.0
C836 C 0.45249 0.58078 0.17766 0.0
C837 C 0.44135 0.55408 0.26356 0.0
H838 H 0.47037 0.59948 -0.02054 0.0
C839 C 0.43794 0.52506 0.21416 0.0
H840 H 0.45545 0.60345 0.21468 0.0
C841 C 0.4466 0.52287 0.0814 0.0
C842 C 0.45766 0.5495 -0.00467 0.0
H843 H 0.42783 0.50392 0.27743 0.0
H844 H 0.44374 0.5002 0.04472 0.0
C845 C 0.46076 0.57848 0.04397 0.0
loop_
_geom_bond_atom_site_label_1
_geom_bond_atom_site_label_2
_geom_bond_distance
_geom_bond_site_symmetry_2
_ccdc_geom_bond_type
Cd0 N3 2.334 1_556 S
Cd0 N29 2.304 . S
Cd0 O36 2.268 1_556 S
Cd0 O39 2.273 . S
Cd0 O40 2.417 1_556 S
Cd0 O41 2.330 . S
Cd1 N16 2.304 1_554 S
Cd1 N20 2.334 . S
Cd1 O37 2.273 . S
Cd1 O38 2.268 1_554 S
Cd1 O42 2.417 1_554 S
Cd1 O43 2.330 . S
C2 N3 1.332 1_556 S
C2 C6 1.381 . S
C2 H8 0.931 . S
N3 Cd0 2.334 1_554 S
N3 C2 1.332 1_554 S
N3 C7 1.328 . S
C4 C5 1.396 1_455 S
C4 C7 1.378 . S
C4 H46 0.931 . S
C5 C4 1.396 1_655 S
C5 C6 1.382 1_654 S
C6 C2 1.381 . S
C6 C5 1.382 1_456 S
C6 H47 0.926 1_455 S
C7 N3 1.328 . S
C7 C4 1.378 . S
C7 H9 0.930 . S
H8 C2 0.931 . S
H9 C7 0.930 . S
C10 O36 1.238 . S
C10 O37 1.253 . S
C11 C12 1.379 . S
C11 N16 1.337 1_554 S
C11 H17 0.929 . S
C12 C11 1.379 . S
C12 C13 1.380 1_554 S
C12 H48 0.929 . S
C13 C12 1.380 1_556 S
C13 C14 1.399 . S
C14 C13 1.399 . S
C14 C15 1.376 . S
C14 H49 0.931 . S
C15 C14 1.376 . S
C15 N16 1.338 . S
C15 H18 0.930 . S
N16 Cd1 2.304 1_556 S
N16 C11 1.337 1_556 S
N16 C15 1.338 . S
H17 C11 0.929 . S
H18 C15 0.930 . S
C19 N20 1.332 . S
C19 C23 1.381 . S
C19 H25 0.931 . S
N20 Cd1 2.334 . S
N20 C19 1.332 . S
N20 C24 1.328 1_554 S
C21 C22 1.396 1_456 S
C21 C24 1.378 . S
C21 H50 0.931 1_455 S
C22 C21 1.396 1_654 S
C22 C23 1.382 1_655 S
C23 C19 1.381 . S
C23 C22 1.382 1_455 S
C23 H51 0.930 . S
C24 N20 1.328 1_556 S
C24 C21 1.378 . S
C24 H26 0.930 . S
H25 C19 0.931 . S
H26 C24 0.930 . S
C27 O38 1.238 . S
C27 O39 1.253 . S
C28 O40 1.239 . S
C28 O41 1.230 1_554 S
N29 Cd0 2.304 . S
N29 C30 1.337 . S
N29 C34 1.338 1_556 S
C30 N29 1.337 . S
C30 C31 1.379 . S
C30 H44 0.929 . S
C31 C30 1.379 . S
C31 C32 1.380 . S
C31 H52 0.929 . S
C32 C31 1.380 . S
C32 C33 1.399 1_556 S
C33 C32 1.399 1_554 S
C33 C34 1.376 . S
C33 H53 0.931 . S
C34 N29 1.338 1_554 S
C34 C33 1.376 . S
C34 H45 0.930 . S
C35 O42 1.239 . S
C35 O43 1.230 1_556 S
O36 Cd0 2.268 1_554 S
O36 C10 1.238 . S
O37 Cd1 2.273 . S
O37 C10 1.253 . S
O38 Cd1 2.268 1_556 S
O38 C27 1.238 . S
O39 Cd0 2.273 . S
O39 C27 1.253 . S
O40 Cd0 2.417 1_554 S
O40 C28 1.239 . S
O41 Cd0 2.330 . S
O41 C28 1.230 1_556 S
O42 Cd1 2.417 1_556 S
O42 C35 1.239 . S
O43 Cd1 2.330 . S
O43 C35 1.230 1_554 S
H44 C30 0.929 . S
H45 C34 0.930 . S
H46 C4 0.931 . S
H47 C6 0.926 1_655 S
H48 C12 0.929 . S
H49 C14 0.931 . S
H50 C21 0.931 1_655 S
H51 C23 0.930 . S
H52 C31 0.929 . S
H53 C33 0.931 . S
Cd54 N57 2.334 1_556 S
Cd54 N83 2.304 . S
Cd54 O90 2.268 1_556 S
Cd54 O93 2.273 . S
Cd54 O94 2.417 1_556 S
Cd54 O95 2.330 . S
Cd55 N70 2.304 1_554 S
Cd55 N74 2.334 . S
Cd55 O91 2.273 . S
Cd55 O92 2.268 1_554 S
Cd55 O96 2.417 1_554 S
Cd55 O97 2.330 . S
C56 N57 1.332 1_556 S
C56 C60 1.381 . S
C56 H62 0.931 . S
N57 Cd54 2.334 1_554 S
N57 C56 1.332 1_554 S
N57 C61 1.328 . S
C58 C59 1.396 . S
C58 C61 1.378 . S
C58 H100 0.931 . S
C59 C58 1.396 . S
C59 C60 1.382 1_554 S
C60 C56 1.381 . S
C60 C59 1.382 1_556 S
C60 H101 0.930 . S
C61 N57 1.328 . S
C61 C58 1.378 . S
C61 H63 0.930 . S
H62 C56 0.931 . S
H63 C61 0.930 . S
C64 O90 1.238 . S
C64 O91 1.253 . S
C65 C66 1.379 . S
C65 N70 1.337 1_554 S
C65 H71 0.929 . S
C66 C65 1.379 . S
C66 C67 1.380 1_554 S
C66 H102 0.929 . S
C67 C66 1.380 1_556 S
C67 C68 1.399 . S
C68 C67 1.399 . S
C68 C69 1.376 . S
C68 H103 0.931 . S
C69 C68 1.376 . S
C69 N70 1.338 . S
C69 H72 0.930 . S
N70 Cd55 2.304 1_556 S
N70 C65 1.337 1_556 S
N70 C69 1.338 . S
H71 C65 0.929 . S
H72 C69 0.930 . S
C73 N74 1.332 . S
C73 C77 1.381 . S
C73 H79 0.931 . S
N74 Cd55 2.334 . S
N74 C73 1.332 . S
N74 C78 1.328 1_554 S
C75 C76 1.396 1_556 S
C75 C78 1.378 . S
C75 H104 0.931 . S
C76 C75 1.396 1_554 S
C76 C77 1.382 . S
C77 C73 1.381 . S
C77 C76 1.382 . S
C77 H105 0.930 . S
C78 N74 1.328 1_556 S
C78 C75 1.378 . S
C78 H80 0.930 . S
H79 C73 0.931 . S
H80 C78 0.930 . S
C81 O92 1.238 . S
C81 O93 1.253 . S
C82 O94 1.239 . S
C82 O95 1.230 1_554 S
N83 Cd54 2.304 . S
N83 C84 1.337 . S
N83 C88 1.338 1_556 S
C84 N83 1.337 . S
C84 C85 1.379 . S
C84 H98 0.929 . S
C85 C84 1.379 . S
C85 C86 1.380 . S
C85 H106 0.944 . S
C86 C85 1.380 . S
C86 C87 1.399 1_556 S
C87 C86 1.399 1_554 S
C87 C88 1.376 . S
C87 H107 0.931 . S
C88 N83 1.338 1_554 S
C88 C87 1.376 . S
C88 H99 0.930 . S
C89 O96 1.239 . S
C89 O97 1.230 1_556 S
O90 Cd54 2.268 1_554 S
O90 C64 1.238 . S
O91 Cd55 2.273 . S
O91 C64 1.253 . S
O92 Cd55 2.268 1_556 S
O92 C81 1.238 . S
O93 Cd54 2.273 . S
O93 C81 1.253 . S
O94 Cd54 2.417 1_554 S
O94 C82 1.239 . S
O95 Cd54 2.330 . S
O95 C82 1.230 1_556 S
O96 Cd55 2.417 1_556 S
O96 C89 1.239 . S
O97 Cd55 2.330 . S
O97 C89 1.230 1_554 S
H98 C84 0.929 . S
H99 C88 0.930 . S
H100 C58 0.931 . S
H101 C60 0.930 . S
H102 C66 0.929 . S
H103 C68 0.931 . S
H104 C75 0.931 . S
H105 C77 0.930 . S
H106 C85 0.944 . S
H107 C87 0.931 . S
Cd108 N111 2.334 1_556 S
Cd108 N137 2.304 . S
Cd108 O144 2.268 1_556 S
Cd108 O147 2.273 . S
Cd108 O148 2.417 1_556 S
Cd108 O149 2.330 . S
Cd109 N124 2.304 1_554 S
Cd109 N128 2.334 . S
Cd109 O145 2.273 . S
Cd109 O146 2.268 1_554 S
Cd109 O150 2.417 1_554 S
Cd109 O151 2.330 . S
C110 N111 1.332 1_556 S
C110 C114 1.381 . S
C110 H116 0.931 . S
N111 Cd108 2.334 1_554 S
N111 C110 1.332 1_554 S
N111 C115 1.328 . S
C112 C113 1.396 1_565 S
C112 C115 1.378 . S
C112 H154 0.931 . S
C113 C112 1.396 1_545 S
C113 C114 1.382 1_544 S
C114 C110 1.381 . S
C114 C113 1.382 1_566 S
C114 H155 0.923 1_565 S
C115 N111 1.328 . S
C115 C112 1.378 . S
C115 H117 0.930 . S
H116 C110 0.931 . S
H117 C115 0.930 . S
C118 O144 1.238 . S
C118 O145 1.253 . S
C119 C120 1.379 . S
C119 N124 1.337 1_554 S
C119 H125 0.929 . S
C120 C119 1.379 . S
C120 C121 1.380 1_554 S
C120 H156 0.929 . S
C121 C120 1.380 1_556 S
C121 C122 1.399 . S
C122 C121 1.399 . S
C122 C123 1.376 . S
C122 H157 0.931 . S
C123 C122 1.376 . S
C123 N124 1.338 . S
C123 H126 0.930 . S
N124 Cd109 2.304 1_556 S
N124 C119 1.337 1_556 S
N124 C123 1.338 . S
H125 C119 0.929 . S
H126 C123 0.930 . S
C127 N128 1.332 . S
C127 C131 1.381 . S
C127 H133 0.931 . S
N128 Cd109 2.334 . S
N128 C127 1.332 . S
N128 C132 1.328 1_554 S
C129 C130 1.396 1_566 S
C129 C132 1.378 . S
C129 H158 0.931 1_565 S
C130 C129 1.396 1_544 S
C130 C131 1.382 1_545 S
C131 C127 1.381 . S
C131 C130 1.382 1_565 S
C131 H159 0.930 . S
C132 N128 1.328 1_556 S
C132 C129 1.378 . S
C132 H134 0.930 . S
H133 C127 0.931 . S
H134 C132 0.930 . S
C135 O146 1.238 . S
C135 O147 1.253 . S
C136 O148 1.239 . S
C136 O149 1.230 1_554 S
N137 Cd108 2.304 . S
N137 C138 1.337 . S
N137 C142 1.338 1_556 S
C138 N137 1.337 . S
C138 C139 1.379 . S
C138 H152 0.929 . S
C139 C138 1.379 . S
C139 C140 1.380 . S
C139 H160 0.937 . S
C140 C139 1.380 . S
C140 C141 1.399 1_556 S
C141 C140 1.399 1_554 S
C141 C142 1.376 . S
C141 H161 0.931 . S
C142 N137 1.338 1_554 S
C142 C141 1.376 . S
C142 H153 0.930 . S
C143 O150 1.239 . S
C143 O151 1.230 1_556 S
O144 Cd108 2.268 1_554 S
O144 C118 1.238 . S
O145 Cd109 2.273 . S
O145 C118 1.253 . S
O146 Cd109 2.268 1_556 S
O146 C135 1.238 . S
O147 Cd108 2.273 . S
O147 C135 1.253 . S
O148 Cd108 2.417 1_554 S
O148 C136 1.239 . S
O149 Cd108 2.330 . S
O149 C136 1.230 1_556 S
O150 Cd109 2.417 1_556 S
O150 C143 1.239 . S
O151 Cd109 2.330 . S
O151 C143 1.230 1_554 S
H152 C138 0.929 . S
H153 C142 0.930 . S
H154 C112 0.931 . S
H155 C114 0.923 1_545 S
H156 C120 0.929 . S
H157 C122 0.931 . S
H158 C129 0.931 1_545 S
H159 C131 0.930 . S
H160 C139 0.937 . S
H161 C141 0.931 . S
Cd162 N165 2.334 . S
Cd162 N191 2.304 . S
Cd162 O198 2.268 . S
Cd162 O201 2.273 . S
Cd162 O202 2.417 . S
Cd162 O203 2.330 . S
Cd163 N178 2.304 . S
Cd163 N182 2.334 . S
Cd163 O199 2.273 . S
Cd163 O200 2.268 . S
Cd163 O204 2.417 . S
Cd163 O205 2.330 . S
C164 N165 1.332 . S
C164 C168 1.381 . S
C164 H170 0.931 . S
N165 Cd162 2.334 . S
N165 C164 1.332 . S
N165 C169 1.328 . S
C166 C167 1.396 . S
C166 C169 1.378 . S
C166 H208 0.931 . S
C167 C166 1.396 . S
C167 C168 1.382 . S
C168 C164 1.381 . S
C168 C167 1.382 . S
C168 H209 0.930 . S
C169 N165 1.328 . S
C169 C166 1.378 . S
C169 H171 0.930 . S
H170 C164 0.931 . S
H171 C169 0.930 . S
C172 O198 1.238 . S
C172 O199 1.253 . S
C173 C174 1.379 . S
C173 N178 1.337 . S
C173 H179 0.929 . S
C174 C173 1.379 . S
C174 C175 1.380 . S
C174 H210 0.929 . S
C175 C174 1.380 . S
C175 C176 1.399 . S
C176 C175 1.399 . S
C176 C177 1.376 . S
C176 H211 0.931 . S
C177 C176 1.376 . S
C177 N178 1.338 . S
C177 H180 0.930 . S
N178 Cd163 2.304 . S
N178 C173 1.337 . S
N178 C177 1.338 . S
H179 C173 0.929 . S
H180 C177 0.930 . S
C181 N182 1.332 . S
C181 C185 1.381 . S
C181 H187 0.931 . S
N182 Cd163 2.334 . S
N182 C181 1.332 . S
N182 C186 1.328 . S
C183 C184 1.396 . S
C183 C186 1.378 . S
C183 H212 0.931 . S
C184 C183 1.396 . S
C184 C185 1.382 . S
C185 C181 1.381 . S
C185 C184 1.382 . S
C185 H213 0.930 . S
C186 N182 1.328 . S
C186 C183 1.378 . S
C186 H188 0.930 . S
H187 C181 0.931 . S
H188 C186 0.930 . S
C189 O200 1.238 . S
C189 O201 1.253 . S
C190 O202 1.239 . S
C190 O203 1.230 . S
N191 Cd162 2.304 . S
N191 C192 1.337 . S
N191 C196 1.338 . S
C192 N191 1.337 . S
C192 C193 1.379 . S
C192 H206 0.929 . S
C193 C192 1.379 . S
C193 C194 1.380 . S
C193 H214 0.929 . S
C194 C193 1.380 . S
C194 C195 1.399 . S
C195 C194 1.399 . S
C195 C196 1.376 . S
C195 H215 0.931 . S
C196 N191 1.338 . S
C196 C195 1.376 . S
C196 H207 0.930 . S
C197 O204 1.239 . S
C197 O205 1.230 . S
O198 Cd162 2.268 . S
O198 C172 1.238 . S
O199 Cd163 2.273 . S
O199 C172 1.253 . S
O200 Cd163 2.268 . S
O200 C189 1.238 . S
O201 Cd162 2.273 . S
O201 C189 1.253 . S
O202 Cd162 2.417 . S
O202 C190 1.239 . S
O203 Cd162 2.330 . S
O203 C190 1.230 . S
O204 Cd163 2.417 . S
O204 C197 1.239 . S
O205 Cd163 2.330 . S
O205 C197 1.230 . S
H206 C192 0.929 . S
H207 C196 0.930 . S
H208 C166 0.931 . S
H209 C168 0.930 . S
H210 C174 0.929 . S
H211 C176 0.931 . S
H212 C183 0.931 . S
H213 C185 0.930 . S
H214 C193 0.929 . S
H215 C195 0.931 . S
Cd216 N219 2.334 . S
Cd216 N245 2.304 . S
Cd216 O252 2.268 . S
Cd216 O255 2.273 . S
Cd216 O256 2.417 . S
Cd216 O257 2.330 . S
Cd217 N232 2.304 . S
Cd217 N236 2.334 . S
Cd217 O253 2.273 . S
Cd217 O254 2.268 . S
Cd217 O258 2.417 . S
Cd217 O259 2.330 . S
C218 N219 1.332 . S
C218 C222 1.381 . S
C218 H224 0.931 . S
N219 Cd216 2.334 . S
N219 C218 1.332 . S
N219 C223 1.328 . S
C220 C221 1.396 . S
C220 C223 1.378 . S
C220 H262 0.931 . S
C221 C220 1.396 . S
C221 C222 1.382 . S
C222 C218 1.381 . S
C222 C221 1.382 . S
C222 H263 0.930 . S
C223 N219 1.328 . S
C223 C220 1.378 . S
C223 H225 0.930 . S
H224 C218 0.931 . S
H225 C223 0.930 . S
C226 O252 1.238 . S
C226 O253 1.253 . S
C227 C228 1.379 . S
C227 N232 1.337 . S
C227 H233 0.929 . S
C228 C227 1.379 . S
C228 C229 1.380 . S
C228 H264 0.929 . S
C229 C228 1.380 . S
C229 C230 1.399 . S
C230 C229 1.399 . S
C230 C231 1.376 . S
C230 H265 0.931 . S
C231 C230 1.376 . S
C231 N232 1.338 . S
C231 H234 0.930 . S
N232 Cd217 2.304 . S
N232 C227 1.337 . S
N232 C231 1.338 . S
H233 C227 0.929 . S
H234 C231 0.930 . S
C235 N236 1.332 . S
C235 C239 1.381 . S
C235 H241 0.931 . S
N236 Cd217 2.334 . S
N236 C235 1.332 . S
N236 C240 1.328 . S
C237 C238 1.396 . S
C237 C240 1.378 . S
C237 H266 0.931 . S
C238 C237 1.396 . S
C238 C239 1.382 . S
C239 C235 1.381 . S
C239 C238 1.382 . S
C239 H267 0.930 . S
C240 N236 1.328 . S
C240 C237 1.378 . S
C240 H242 0.930 . S
H241 C235 0.931 . S
H242 C240 0.930 . S
C243 O254 1.238 . S
C243 O255 1.253 . S
C244 O256 1.239 . S
C244 O257 1.230 . S
N245 Cd216 2.304 . S
N245 C246 1.337 . S
N245 C250 1.338 . S
C246 N245 1.337 . S
C246 C247 1.379 . S
C246 H260 0.929 . S
C247 C246 1.379 . S
C247 C248 1.380 . S
C247 H268 0.929 . S
C248 C247 1.380 . S
C248 C249 1.399 . S
C249 C248 1.399 . S
C249 C250 1.376 . S
C249 H269 0.931 . S
C250 N245 1.338 . S
C250 C249 1.376 . S
C250 H261 0.930 . S
C251 O258 1.239 . S
C251 O259 1.230 . S
O252 Cd216 2.268 . S
O252 C226 1.238 . S
O253 Cd217 2.273 . S
O253 C226 1.253 . S
O254 Cd217 2.268 . S
O254 C243 1.238 . S
O255 Cd216 2.273 . S
O255 C243 1.253 . S
O256 Cd216 2.417 . S
O256 C244 1.239 . S
O257 Cd216 2.330 . S
O257 C244 1.230 . S
O258 Cd217 2.417 . S
O258 C251 1.239 . S
O259 Cd217 2.330 . S
O259 C251 1.230 . S
H260 C246 0.929 . S
H261 C250 0.930 . S
H262 C220 0.931 . S
H263 C222 0.930 . S
H264 C228 0.929 . S
H265 C230 0.931 . S
H266 C237 0.931 . S
H267 C239 0.930 . S
H268 C247 0.929 . S
H269 C249 0.931 . S
Cd270 N273 2.334 . S
Cd270 N299 2.304 . S
Cd270 O306 2.268 . S
Cd270 O309 2.273 . S
Cd270 O310 2.417 . S
Cd270 O311 2.330 . S
Cd271 N286 2.304 . S
Cd271 N290 2.334 . S
Cd271 O307 2.273 . S
Cd271 O308 2.268 . S
Cd271 O312 2.417 . S
Cd271 O313 2.330 . S
C272 N273 1.332 . S
C272 C276 1.381 . S
C272 H278 0.931 . S
N273 Cd270 2.334 . S
N273 C272 1.332 . S
N273 C277 1.328 . S
C274 C275 1.396 . S
C274 C277 1.378 . S
C274 H316 0.931 . S
C275 C274 1.396 . S
C275 C276 1.382 . S
C276 C272 1.381 . S
C276 C275 1.382 . S
C276 H317 0.930 . S
C277 N273 1.328 . S
C277 C274 1.378 . S
C277 H279 0.930 . S
H278 C272 0.931 . S
H279 C277 0.930 . S
C280 O306 1.238 . S
C280 O307 1.253 . S
C281 C282 1.379 . S
C281 N286 1.337 . S
C281 H287 0.929 . S
C282 C281 1.379 . S
C282 C283 1.380 . S
C282 H318 0.929 . S
C283 C282 1.380 . S
C283 C284 1.399 . S
C284 C283 1.399 . S
C284 C285 1.376 . S
C284 H319 0.931 . S
C285 C284 1.376 . S
C285 N286 1.338 . S
C285 H288 0.930 . S
N286 Cd271 2.304 . S
N286 C281 1.337 . S
N286 C285 1.338 . S
H287 C281 0.929 . S
H288 C285 0.930 . S
C289 N290 1.332 . S
C289 C293 1.381 . S
C289 H295 0.931 . S
N290 Cd271 2.334 . S
N290 C289 1.332 . S
N290 C294 1.328 . S
C291 C292 1.396 . S
C291 C294 1.378 . S
C291 H320 0.931 . S
C292 C291 1.396 . S
C292 C293 1.382 . S
C293 C289 1.381 . S
C293 C292 1.382 . S
C293 H321 0.930 . S
C294 N290 1.328 . S
C294 C291 1.378 . S
C294 H296 0.930 . S
H295 C289 0.931 . S
H296 C294 0.930 . S
C297 O308 1.238 . S
C297 O309 1.253 . S
C298 O310 1.239 . S
C298 O311 1.230 . S
N299 Cd270 2.304 . S
N299 C300 1.337 . S
N299 C304 1.338 . S
C300 N299 1.337 . S
C300 C301 1.379 . S
C300 H314 0.929 . S
C301 C300 1.379 . S
C301 C302 1.380 . S
C301 H322 0.929 . S
C302 C301 1.380 . S
C302 C303 1.399 . S
C303 C302 1.399 . S
C303 C304 1.376 . S
C303 H323 0.931 . S
C304 N299 1.338 . S
C304 C303 1.376 . S
C304 H315 0.930 . S
C305 O312 1.239 . S
C305 O313 1.230 . S
O306 Cd270 2.268 . S
O306 C280 1.238 . S
O307 Cd271 2.273 . S
O307 C280 1.253 . S
O308 Cd271 2.268 . S
O308 C297 1.238 . S
O309 Cd270 2.273 . S
O309 C297 1.253 . S
O310 Cd270 2.417 . S
O310 C298 1.239 . S
O311 Cd270 2.330 . S
O311 C298 1.230 . S
O312 Cd271 2.417 . S
O312 C305 1.239 . S
O313 Cd271 2.330 . S
O313 C305 1.230 . S
H314 C300 0.929 . S
H315 C304 0.930 . S
H316 C274 0.931 . S
H317 C276 0.930 . S
H318 C282 0.929 . S
H319 C284 0.931 . S
H320 C291 0.931 . S
H321 C293 0.930 . S
H322 C301 0.929 . S
H323 C303 0.931 . S
Cd324 N327 2.334 . S
Cd324 N353 2.304 . S
Cd324 O360 2.268 . S
Cd324 O363 2.273 . S
Cd324 O364 2.417 . S
Cd324 O365 2.330 . S
Cd325 N340 2.304 . S
Cd325 N344 2.334 . S
Cd325 O361 2.273 . S
Cd325 O362 2.268 . S
Cd325 O366 2.417 . S
Cd325 O367 2.330 . S
C326 N327 1.332 . S
C326 C330 1.381 . S
C326 H332 0.931 . S
N327 Cd324 2.334 . S
N327 C326 1.332 . S
N327 C331 1.328 . S
C328 C329 1.396 . S
C328 C331 1.378 . S
C328 H370 0.931 . S
C329 C328 1.396 . S
C329 C330 1.382 . S
C330 C326 1.381 . S
C330 C329 1.382 . S
C330 H371 0.930 . S
C331 N327 1.328 . S
C331 C328 1.378 . S
C331 H333 0.930 . S
H332 C326 0.931 . S
H333 C331 0.930 . S
C334 O360 1.238 . S
C334 O361 1.253 . S
C335 C336 1.379 . S
C335 N340 1.337 . S
C335 H341 0.929 . S
C336 C335 1.379 . S
C336 C337 1.380 . S
C336 H372 0.929 1_565 S
C337 C336 1.380 . S
C337 C338 1.399 . S
C338 C337 1.399 . S
C338 C339 1.376 . S
C338 H373 0.931 . S
C339 C338 1.376 . S
C339 N340 1.338 . S
C339 H342 0.930 . S
N340 Cd325 2.304 . S
N340 C335 1.337 . S
N340 C339 1.338 . S
H341 C335 0.929 . S
H342 C339 0.930 . S
C343 N344 1.332 . S
C343 C347 1.381 . S
C343 H349 0.931 . S
N344 Cd325 2.334 . S
N344 C343 1.332 . S
N344 C348 1.328 . S
C345 C346 1.396 . S
C345 C348 1.378 . S
C345 H374 0.931 . S
C346 C345 1.396 . S
C346 C347 1.382 . S
C347 C343 1.381 . S
C347 C346 1.382 . S
C347 H375 0.930 . S
C348 N344 1.328 . S
C348 C345 1.378 . S
C348 H350 0.930 . S
H349 C343 0.931 . S
H350 C348 0.930 . S
C351 O362 1.238 . S
C351 O363 1.253 . S
C352 O364 1.239 . S
C352 O365 1.230 . S
N353 Cd324 2.304 . S
N353 C354 1.337 . S
N353 C358 1.338 . S
C354 N353 1.337 . S
C354 C355 1.379 . S
C354 H368 0.929 . S
C355 C354 1.379 . S
C355 C356 1.380 . S
C355 H376 0.929 . S
C356 C355 1.380 . S
C356 C357 1.399 . S
C357 C356 1.399 . S
C357 C358 1.376 . S
C357 H377 0.931 . S
C358 N353 1.338 . S
C358 C357 1.376 . S
C358 H369 0.930 . S
C359 O366 1.239 . S
C359 O367 1.230 . S
O360 Cd324 2.268 . S
O360 C334 1.238 . S
O361 Cd325 2.273 . S
O361 C334 1.253 . S
O362 Cd325 2.268 . S
O362 C351 1.238 . S
O363 Cd324 2.273 . S
O363 C351 1.253 . S
O364 Cd324 2.417 . S
O364 C352 1.239 . S
O365 Cd324 2.330 . S
O365 C352 1.230 . S
O366 Cd325 2.417 . S
O366 C359 1.239 . S
O367 Cd325 2.330 . S
O367 C359 1.230 . S
H368 C354 0.929 . S
H369 C358 0.930 . S
H370 C328 0.931 . S
H371 C330 0.930 . S
H372 C336 0.929 1_545 S
H373 C338 0.931 . S
H374 C345 0.931 . S
H375 C347 0.930 . S
H376 C355 0.929 . S
H377 C357 0.931 . S
Cd378 N381 2.334 . S
Cd378 N407 2.304 . S
Cd378 O414 2.268 . S
Cd378 O417 2.273 . S
Cd378 O418 2.417 . S
Cd378 O419 2.330 . S
Cd379 N394 2.304 . S
Cd379 N398 2.334 . S
Cd379 O415 2.273 . S
Cd379 O416 2.268 . S
Cd379 O420 2.417 . S
Cd379 O421 2.330 . S
C380 N381 1.332 . S
C380 C384 1.381 . S
C380 H386 0.931 . S
N381 Cd378 2.334 . S
N381 C380 1.332 . S
N381 C385 1.328 . S
C382 C383 1.396 . S
C382 C385 1.378 . S
C382 H424 0.931 . S
C383 C382 1.396 . S
C383 C384 1.382 . S
C384 C380 1.381 . S
C384 C383 1.382 . S
C384 H425 0.930 . S
C385 N381 1.328 . S
C385 C382 1.378 . S
C385 H387 0.930 . S
H386 C380 0.931 . S
H387 C385 0.930 . S
C388 O414 1.238 . S
C388 O415 1.253 . S
C389 C390 1.379 . S
C389 N394 1.337 . S
C389 H395 0.929 . S
C390 C389 1.379 . S
C390 C391 1.380 . S
C390 H426 0.929 1_455 S
C391 C390 1.380 . S
C391 C392 1.399 . S
C392 C391 1.399 . S
C392 C393 1.376 . S
C392 H427 0.931 . S
C393 C392 1.376 . S
C393 N394 1.338 . S
C393 H396 0.930 . S
N394 Cd379 2.304 . S
N394 C389 1.337 . S
N394 C393 1.338 . S
H395 C389 0.929 . S
H396 C393 0.930 . S
C397 N398 1.332 . S
C397 C401 1.381 . S
C397 H403 0.931 . S
N398 Cd379 2.334 . S
N398 C397 1.332 . S
N398 C402 1.328 . S
C399 C400 1.396 . S
C399 C402 1.378 . S
C399 H428 0.931 . S
C400 C399 1.396 . S
C400 C401 1.382 . S
C401 C397 1.381 . S
C401 C400 1.382 . S
C401 H429 0.930 . S
C402 N398 1.328 . S
C402 C399 1.378 . S
C402 H404 0.930 . S
H403 C397 0.931 . S
H404 C402 0.930 . S
C405 O416 1.238 . S
C405 O417 1.253 . S
C406 O418 1.239 . S
C406 O419 1.230 . S
N407 Cd378 2.304 . S
N407 C408 1.337 . S
N407 C412 1.338 . S
C408 N407 1.337 . S
C408 C409 1.379 . S
C408 H422 0.929 . S
C409 C408 1.379 . S
C409 C410 1.380 . S
C409 H430 0.929 . S
C410 C409 1.380 . S
C410 C411 1.399 . S
C411 C410 1.399 . S
C411 C412 1.376 . S
C411 H431 0.931 . S
C412 N407 1.338 . S
C412 C411 1.376 . S
C412 H423 0.930 . S
C413 O420 1.239 . S
C413 O421 1.230 . S
O414 Cd378 2.268 . S
O414 C388 1.238 . S
O415 Cd379 2.273 . S
O415 C388 1.253 . S
O416 Cd379 2.268 . S
O416 C405 1.238 . S
O417 Cd378 2.273 . S
O417 C405 1.253 . S
O418 Cd378 2.417 . S
O418 C406 1.239 . S
O419 Cd378 2.330 . S
O419 C406 1.230 . S
O420 Cd379 2.417 . S
O420 C413 1.239 . S
O421 Cd379 2.330 . S
O421 C413 1.230 . S
H422 C408 0.929 . S
H423 C412 0.930 . S
H424 C382 0.931 . S
H425 C384 0.930 . S
H426 C390 0.929 1_655 S
H427 C392 0.931 . S
H428 C399 0.931 . S
H429 C401 0.930 . S
H430 C409 0.929 . S
H431 C411 0.931 . S
Cd432 N435 2.334 . S
Cd432 N461 2.304 . S
Cd432 O468 2.268 . S
Cd432 O471 2.273 . S
Cd432 O472 2.417 . S
Cd432 O473 2.330 . S
Cd433 N448 2.304 . S
Cd433 N452 2.334 . S
Cd433 O469 2.273 . S
Cd433 O470 2.268 . S
Cd433 O474 2.417 . S
Cd433 O475 2.330 . S
C434 N435 1.332 . S
C434 C438 1.381 . S
C434 H440 0.931 . S
N435 Cd432 2.334 . S
N435 C434 1.332 . S
N435 C439 1.328 . S
C436 C437 1.396 . S
C436 C439 1.378 . S
C436 H478 0.931 . S
C437 C436 1.396 . S
C437 C438 1.382 . S
C438 C434 1.381 . S
C438 C437 1.382 . S
C438 H479 0.930 . S
C439 N435 1.328 . S
C439 C436 1.378 . S
C439 H441 0.930 . S
H440 C434 0.931 . S
H441 C439 0.930 . S
C442 O468 1.238 . S
C442 O469 1.253 . S
C443 C444 1.379 . S
C443 N448 1.337 . S
C443 H449 0.929 . S
C444 C443 1.379 . S
C444 C445 1.380 . S
C444 H480 0.929 . S
C445 C444 1.380 . S
C445 C446 1.399 . S
C446 C445 1.399 . S
C446 C447 1.376 . S
C446 H481 0.931 . S
C447 C446 1.376 . S
C447 N448 1.338 . S
C447 H450 0.930 . S
N448 Cd433 2.304 . S
N448 C443 1.337 . S
N448 C447 1.338 . S
H449 C443 0.929 . S
H450 C447 0.930 . S
C451 N452 1.332 . S
C451 C455 1.381 . S
C451 H457 0.931 . S
N452 Cd433 2.334 . S
N452 C451 1.332 . S
N452 C456 1.328 . S
C453 C454 1.396 . S
C453 C456 1.378 . S
C453 H482 0.931 . S
C454 C453 1.396 . S
C454 C455 1.382 . S
C455 C451 1.381 . S
C455 C454 1.382 . S
C455 H483 0.930 . S
C456 N452 1.328 . S
C456 C453 1.378 . S
C456 H458 0.930 . S
H457 C451 0.931 . S
H458 C456 0.930 . S
C459 O470 1.238 . S
C459 O471 1.253 . S
C460 O472 1.239 . S
C460 O473 1.230 . S
N461 Cd432 2.304 . S
N461 C462 1.337 . S
N461 C466 1.338 . S
C462 N461 1.337 . S
C462 C463 1.379 . S
C462 H476 0.929 . S
C463 C462 1.379 . S
C463 C464 1.380 . S
C463 H484 0.929 . S
C464 C463 1.380 . S
C464 C465 1.399 . S
C465 C464 1.399 . S
C465 C466 1.376 . S
C465 H485 0.931 . S
C466 N461 1.338 . S
C466 C465 1.376 . S
C466 H477 0.930 . S
C467 O474 1.239 . S
C467 O475 1.230 . S
O468 Cd432 2.268 . S
O468 C442 1.238 . S
O469 Cd433 2.273 . S
O469 C442 1.253 . S
O470 Cd433 2.268 . S
O470 C459 1.238 . S
O471 Cd432 2.273 . S
O471 C459 1.253 . S
O472 Cd432 2.417 . S
O472 C460 1.239 . S
O473 Cd432 2.330 . S
O473 C460 1.230 . S
O474 Cd433 2.417 . S
O474 C467 1.239 . S
O475 Cd433 2.330 . S
O475 C467 1.230 . S
H476 C462 0.929 . S
H477 C466 0.930 . S
H478 C436 0.931 . S
H479 C438 0.930 . S
H480 C444 0.929 . S
H481 C446 0.931 . S
H482 C453 0.931 . S
H483 C455 0.930 . S
H484 C463 0.929 . S
H485 C465 0.931 . S
C486 C487 1.387 . S
C486 H490 0.950 . S
C486 C495 1.390 . S
C487 C486 1.387 . S
C487 C489 1.387 . S
H488 C495 0.950 . S
C489 C487 1.387 . S
C489 C491 1.390 . S
C489 H493 0.950 . S
H490 C486 0.950 . S
C491 C489 1.390 . S
C491 C492 1.387 . S
C491 H494 0.950 . S
C492 C491 1.387 . S
C492 C495 1.387 . S
H493 C489 0.950 . S
H494 C491 0.950 . S
C495 C486 1.390 . S
C495 H488 0.950 . S
C495 C492 1.387 . S
C496 C497 1.387 . S
C496 H500 0.950 . S
C496 C505 1.390 . S
C497 C496 1.387 . S
C497 C499 1.387 . S
H498 C505 0.950 . S
C499 C497 1.387 . S
C499 C501 1.390 . S
C499 H503 0.950 . S
H500 C496 0.950 . S
C501 C499 1.390 . S
C501 C502 1.387 . S
C501 H504 0.950 . S
C502 C501 1.387 . S
C502 C505 1.387 . S
H503 C499 0.950 . S
H504 C501 0.950 . S
C505 C496 1.390 . S
C505 H498 0.950 . S
C505 C502 1.387 . S
C506 C507 1.387 . S
C506 H510 0.950 1_554 S
C506 C515 1.390 . S
C507 C506 1.387 . S
C507 C509 1.387 . S
H508 C515 0.950 . S
C509 C507 1.387 . S
C509 C511 1.390 . S
C509 H513 0.950 1_655 S
H510 C506 0.950 1_556 S
C511 C509 1.390 . S
C511 C512 1.387 . S
C511 H514 0.950 . S
C512 C511 1.387 . S
C512 C515 1.387 . S
H513 C509 0.950 1_455 S
H514 C511 0.950 . S
C515 C506 1.390 . S
C515 H508 0.950 . S
C515 C512 1.387 . S
C516 C517 1.387 . S
C516 H520 0.950 1_554 S
C516 C525 1.390 . S
C517 C516 1.387 . S
C517 C519 1.387 . S
H518 C525 0.950 . S
C519 C517 1.387 . S
C519 C521 1.390 . S
C519 H523 0.950 . S
H520 C516 0.950 1_556 S
C521 C519 1.390 . S
C521 C522 1.387 . S
C521 H524 0.950 . S
C522 C521 1.387 . S
C522 C525 1.387 . S
H523 C519 0.950 . S
H524 C521 0.950 . S
C525 C516 1.390 . S
C525 H518 0.950 . S
C525 C522 1.387 . S
C526 C527 1.387 . S
C526 H530 0.950 1_554 S
C526 C535 1.390 . S
C527 C526 1.387 . S
C527 C529 1.387 . S
H528 C535 0.950 . S
C529 C527 1.387 . S
C529 C531 1.390 . S
C529 H533 0.950 . S
H530 C526 0.950 1_556 S
C531 C529 1.390 . S
C531 C532 1.387 . S
C531 H534 0.950 . S
C532 C531 1.387 . S
C532 C535 1.387 . S
H533 C529 0.950 . S
H534 C531 0.950 . S
C535 C526 1.390 . S
C535 H528 0.950 . S
C535 C532 1.387 . S
C536 C537 1.387 . S
C536 H540 0.950 . S
C536 C545 1.390 . S
C537 C536 1.387 . S
C537 C539 1.387 . S
H538 C545 0.950 . S
C539 C537 1.387 . S
C539 C541 1.390 . S
C539 H543 0.950 . S
H540 C536 0.950 . S
C541 C539 1.390 . S
C541 C542 1.387 . S
C541 H544 0.950 . S
C542 C541 1.387 . S
C542 C545 1.387 . S
H543 C539 0.950 . S
H544 C541 0.950 . S
C545 C536 1.390 . S
C545 H538 0.950 . S
C545 C542 1.387 . S
C546 C547 1.387 . S
C546 H550 0.950 . S
C546 C555 1.390 . S
C547 C546 1.387 . S
C547 C549 1.387 . S
H548 C555 0.950 1_455 S
C549 C547 1.387 . S
C549 C551 1.390 . S
C549 H553 0.950 . S
H550 C546 0.950 . S
C551 C549 1.390 . S
C551 C552 1.387 . S
C551 H554 0.950 . S
C552 C551 1.387 . S
C552 C555 1.387 . S
H553 C549 0.950 . S
H554 C551 0.950 . S
C555 C546 1.390 . S
C555 H548 0.950 1_655 S
C555 C552 1.387 . S
C556 C557 1.387 . S
C556 H560 0.950 . S
C556 C565 1.390 . S
C557 C556 1.387 . S
C557 C559 1.387 . S
H558 C565 0.950 . S
C559 C557 1.387 . S
C559 C561 1.390 . S
C559 H563 0.950 . S
H560 C556 0.950 . S
C561 C559 1.390 . S
C561 C562 1.387 . S
C561 H564 0.950 . S
C562 C561 1.387 . S
C562 C565 1.387 . S
H563 C559 0.950 . S
H564 C561 0.950 . S
C565 C556 1.390 . S
C565 H558 0.950 . S
C565 C562 1.387 . S
C566 C567 1.387 . S
C566 H570 0.950 1_545 S
C566 C575 1.390 . S
C567 C566 1.387 . S
C567 C569 1.387 . S
H568 C575 0.950 . S
C569 C567 1.387 . S
C569 C571 1.390 . S
C569 H573 0.950 . S
H570 C566 0.950 1_565 S
C571 C569 1.390 . S
C571 C572 1.387 . S
C571 H574 0.950 . S
C572 C571 1.387 . S
C572 C575 1.387 . S
H573 C569 0.950 . S
H574 C571 0.950 . S
C575 C566 1.390 . S
C575 H568 0.950 . S
C575 C572 1.387 . S
C576 C577 1.387 . S
C576 H580 0.950 . S
C576 C585 1.390 . S
C577 C576 1.387 . S
C577 C579 1.387 . S
H578 C585 0.950 . S
C579 C577 1.387 . S
C579 C581 1.390 . S
C579 H583 0.950 . S
H580 C576 0.950 . S
C581 C579 1.390 . S
C581 C582 1.387 . S
C581 H584 0.950 . S
C582 C581 1.387 . S
C582 C585 1.387 . S
H583 C579 0.950 . S
H584 C581 0.950 . S
C585 C576 1.390 . S
C585 H578 0.950 . S
C585 C582 1.387 . S
C586 C587 1.387 . S
C586 H590 0.950 . S
C586 C595 1.390 . S
C587 C586 1.387 . S
C587 C589 1.387 . S
H588 C595 0.950 . S
C589 C587 1.387 . S
C589 C591 1.390 . S
C589 H593 0.950 . S
H590 C586 0.950 . S
C591 C589 1.390 . S
C591 C592 1.387 . S
C591 H594 0.950 . S
C592 C591 1.387 . S
C592 C595 1.387 . S
H593 C589 0.950 . S
H594 C591 0.950 . S
C595 C586 1.390 . S
C595 H588 0.950 . S
C595 C592 1.387 . S
C596 C597 1.387 . S
C596 H600 0.950 . S
C596 C605 1.390 . S
C597 C596 1.387 . S
C597 C599 1.387 . S
H598 C605 0.950 . S
C599 C597 1.387 . S
C599 C601 1.390 . S
C599 H603 0.950 . S
H600 C596 0.950 . S
C601 C599 1.390 . S
C601 C602 1.387 . S
C601 H604 0.950 . S
C602 C601 1.387 . S
C602 C605 1.387 . S
H603 C599 0.950 . S
H604 C601 0.950 . S
C605 C596 1.390 . S
C605 H598 0.950 . S
C605 C602 1.387 . S
C606 C607 1.387 . S
C606 H610 0.950 . S
C606 C615 1.390 . S
C607 C606 1.387 . S
C607 C609 1.387 . S
H608 C615 0.950 . S
C609 C607 1.387 . S
C609 C611 1.390 . S
C609 H613 0.950 . S
H610 C606 0.950 . S
C611 C609 1.390 . S
C611 C612 1.387 . S
C611 H614 0.950 . S
C612 C611 1.387 . S
C612 C615 1.387 . S
H613 C609 0.950 . S
H614 C611 0.950 . S
C615 C606 1.390 . S
C615 H608 0.950 . S
C615 C612 1.387 . S
C616 C617 1.387 . S
C616 H620 0.950 . S
C616 C625 1.390 . S
C617 C616 1.387 . S
C617 C619 1.387 . S
H618 C625 0.950 . S
C619 C617 1.387 . S
C619 C621 1.390 . S
C619 H623 0.950 . S
H620 C616 0.950 . S
C621 C619 1.390 . S
C621 C622 1.387 . S
C621 H624 0.950 1_556 S
C622 C621 1.387 . S
C622 C625 1.387 . S
H623 C619 0.950 . S
H624 C621 0.950 1_554 S
C625 C616 1.390 . S
C625 H618 0.950 . S
C625 C622 1.387 . S
C626 C627 1.387 . S
C626 H630 0.950 1_556 S
C626 C635 1.390 . S
C627 C626 1.387 . S
C627 C629 1.387 . S
H628 C635 0.950 . S
C629 C627 1.387 . S
C629 C631 1.390 . S
C629 H633 0.950 . S
H630 C626 0.950 1_554 S
C631 C629 1.390 . S
C631 C632 1.387 . S
C631 H634 0.950 . S
C632 C631 1.387 . S
C632 C635 1.387 . S
H633 C629 0.950 . S
H634 C631 0.950 . S
C635 C626 1.390 . S
C635 H628 0.950 . S
C635 C632 1.387 . S
C636 C637 1.387 . S
C636 H640 0.950 1_556 S
C636 C645 1.390 . S
C637 C636 1.387 . S
C637 C639 1.387 . S
H638 C645 0.950 . S
C639 C637 1.387 . S
C639 C641 1.390 . S
C639 H643 0.950 . S
H640 C636 0.950 1_554 S
C641 C639 1.390 . S
C641 C642 1.387 . S
C641 H644 0.950 . S
C642 C641 1.387 . S
C642 C645 1.387 . S
H643 C639 0.950 . S
H644 C641 0.950 . S
C645 C636 1.390 . S
C645 H638 0.950 . S
C645 C642 1.387 . S
C646 C647 1.387 . S
C646 H650 0.950 1_556 S
C646 C655 1.390 . S
C647 C646 1.387 . S
C647 C649 1.387 . S
H648 C655 0.950 . S
C649 C647 1.387 . S
C649 C651 1.390 . S
C649 H653 0.950 . S
H650 C646 0.950 1_554 S
C651 C649 1.390 . S
C651 C652 1.387 . S
C651 H654 0.950 . S
C652 C651 1.387 . S
C652 C655 1.387 . S
H653 C649 0.950 . S
H654 C651 0.950 . S
C655 C646 1.390 . S
C655 H648 0.950 . S
C655 C652 1.387 . S
C656 C657 1.387 . S
C656 H660 0.950 . S
C656 C665 1.390 . S
C657 C656 1.387 . S
C657 C659 1.387 . S
H658 C665 0.950 1_554 S
C659 C657 1.387 . S
C659 C661 1.390 . S
C659 H663 0.950 . S
H660 C656 0.950 . S
C661 C659 1.390 . S
C661 C662 1.387 . S
C661 H664 0.950 . S
C662 C661 1.387 . S
C662 C665 1.387 . S
H663 C659 0.950 . S
H664 C661 0.950 . S
C665 C656 1.390 . S
C665 H658 0.950 1_556 S
C665 C662 1.387 . S
C666 C667 1.387 . S
C666 H670 0.950 . S
C666 C675 1.390 . S
C667 C666 1.387 . S
C667 C669 1.387 1_554 S
H668 C675 0.950 . S
C669 C667 1.387 1_556 S
C669 C671 1.390 . S
C669 H673 0.950 . S
H670 C666 0.950 . S
C671 C669 1.390 . S
C671 C672 1.387 1_556 S
C671 H674 0.950 . S
C672 C671 1.387 1_554 S
C672 C675 1.387 . S
H673 C669 0.950 . S
H674 C671 0.950 . S
C675 C666 1.390 . S
C675 H668 0.950 . S
C675 C672 1.387 . S
C676 C677 1.387 . S
C676 H680 0.950 . S
C676 C685 1.390 . S
C677 C676 1.387 . S
C677 C679 1.387 1_554 S
H678 C685 0.950 . S
C679 C677 1.387 1_556 S
C679 C681 1.390 . S
C679 H683 0.950 . S
H680 C676 0.950 . S
C681 C679 1.390 . S
C681 C682 1.387 1_556 S
C681 H684 0.950 . S
C682 C681 1.387 1_554 S
C682 C685 1.387 . S
H683 C679 0.950 . S
H684 C681 0.950 . S
C685 C676 1.390 . S
C685 H678 0.950 . S
C685 C682 1.387 . S
C686 C687 1.387 . S
C686 H690 0.950 . S
C686 C695 1.390 . S
C687 C686 1.387 . S
C687 C689 1.387 1_554 S
H688 C695 0.950 . S
C689 C687 1.387 1_556 S
C689 C691 1.390 . S
C689 H693 0.950 . S
H690 C686 0.950 . S
C691 C689 1.390 . S
C691 C692 1.387 1_556 S
C691 H694 0.950 . S
C692 C691 1.387 1_554 S
C692 C695 1.387 . S
H693 C689 0.950 . S
H694 C691 0.950 . S
C695 C686 1.390 . S
C695 H688 0.950 . S
C695 C692 1.387 . S
C696 C697 1.387 . S
C696 H700 0.950 . S
C696 C705 1.390 . S
C697 C696 1.387 . S
C697 C699 1.387 . S
H698 C705 0.950 . S
C699 C697 1.387 . S
C699 C701 1.390 . S
C699 H703 0.950 . S
H700 C696 0.950 . S
C701 C699 1.390 . S
C701 C702 1.387 . S
C701 H704 0.950 . S
C702 C701 1.387 . S
C702 C705 1.387 . S
H703 C699 0.950 . S
H704 C701 0.950 . S
C705 C696 1.390 . S
C705 H698 0.950 . S
C705 C702 1.387 . S
C706 C707 1.387 . S
C706 H710 0.950 . S
C706 C715 1.390 . S
C707 C706 1.387 . S
C707 C709 1.387 . S
H708 C715 0.950 . S
C709 C707 1.387 . S
C709 C711 1.390 . S
C709 H713 0.950 . S
H710 C706 0.950 . S
C711 C709 1.390 . S
C711 C712 1.387 . S
C711 H714 0.950 . S
C712 C711 1.387 . S
C712 C715 1.387 . S
H713 C709 0.950 . S
H714 C711 0.950 . S
C715 C706 1.390 . S
C715 H708 0.950 . S
C715 C712 1.387 . S
C716 C717 1.387 . S
C716 H720 0.950 . S
C716 C725 1.390 . S
C717 C716 1.387 . S
C717 C719 1.387 . S
H718 C725 0.950 . S
C719 C717 1.387 . S
C719 C721 1.390 . S
C719 H723 0.950 . S
H720 C716 0.950 . S
C721 C719 1.390 . S
C721 C722 1.387 . S
C721 H724 0.950 . S
C722 C721 1.387 . S
C722 C725 1.387 . S
H723 C719 0.950 . S
H724 C721 0.950 . S
C725 C716 1.390 . S
C725 H718 0.950 . S
C725 C722 1.387 . S
C726 C727 1.387 . S
C726 H730 0.950 . S
C726 C735 1.390 . S
C727 C726 1.387 . S
C727 C729 1.387 . S
H728 C735 0.950 . S
C729 C727 1.387 . S
C729 C731 1.390 . S
C729 H733 0.950 . S
H730 C726 0.950 . S
C731 C729 1.390 . S
C731 C732 1.387 . S
C731 H734 0.950 . S
C732 C731 1.387 . S
C732 C735 1.387 . S
H733 C729 0.950 . S
H734 C731 0.950 . S
C735 C726 1.390 . S
C735 H728 0.950 . S
C735 C732 1.387 . S
C736 C737 1.387 . S
C736 H740 0.950 . S
C736 C745 1.390 . S
C737 C736 1.387 . S
C737 C739 1.387 . S
H738 C745 0.950 . S
C739 C737 1.387 . S
C739 C741 1.390 . S
C739 H743 0.950 . S
H740 C736 0.950 . S
C741 C739 1.390 . S
C741 C742 1.387 . S
C741 H744 0.950 . S
C742 C741 1.387 . S
C742 C745 1.387 . S
H743 C739 0.950 . S
H744 C741 0.950 . S
C745 C736 1.390 . S
C745 H738 0.950 . S
C745 C742 1.387 . S
C746 C747 1.387 . S
C746 H750 0.950 . S
C746 C755 1.390 . S
C747 C746 1.387 . S
C747 C749 1.387 . S
H748 C755 0.950 . S
C749 C747 1.387 . S
C749 C751 1.390 . S
C749 H753 0.950 . S
H750 C746 0.950 . S
C751 C749 1.390 . S
C751 C752 1.387 . S
C751 H754 0.950 . S
C752 C751 1.387 . S
C752 C755 1.387 . S
H753 C749 0.950 . S
H754 C751 0.950 . S
C755 C746 1.390 . S
C755 H748 0.950 . S
C755 C752 1.387 . S
C756 C757 1.387 . S
C756 H760 0.950 . S
C756 C765 1.390 . S
C757 C756 1.387 . S
C757 C759 1.387 . S
H758 C765 0.950 . S
C759 C757 1.387 . S
C759 C761 1.390 . S
C759 H763 0.950 . S
H760 C756 0.950 . S
C761 C759 1.390 . S
C761 C762 1.387 . S
C761 H764 0.950 . S
C762 C761 1.387 . S
C762 C765 1.387 . S
H763 C759 0.950 . S
H764 C761 0.950 . S
C765 C756 1.390 . S
C765 H758 0.950 . S
C765 C762 1.387 . S
C766 C767 1.387 . S
C766 H770 0.950 . S
C766 C775 1.390 . S
C767 C766 1.387 . S
C767 C769 1.387 . S
H768 C775 0.950 . S
C769 C767 1.387 . S
C769 C771 1.390 . S
C769 H773 0.950 . S
H770 C766 0.950 . S
C771 C769 1.390 . S
C771 C772 1.387 . S
C771 H774 0.950 . S
C772 C771 1.387 . S
C772 C775 1.387 . S
H773 C769 0.950 . S
H774 C771 0.950 . S
C775 C766 1.390 . S
C775 H768 0.950 . S
C775 C772 1.387 . S
C776 C777 1.387 . S
C776 H780 0.950 . S
C776 C785 1.390 . S
C777 C776 1.387 . S
C777 C779 1.387 . S
H778 C785 0.950 . S
C779 C777 1.387 . S
C779 C781 1.390 . S
C779 H783 0.950 . S
H780 C776 0.950 . S
C781 C779 1.390 . S
C781 C782 1.387 . S
C781 H784 0.950 . S
C782 C781 1.387 . S
C782 C785 1.387 . S
H783 C779 0.950 . S
H784 C781 0.950 . S
C785 C776 1.390 . S
C785 H778 0.950 . S
C785 C782 1.387 . S
C786 C787 1.387 . S
C786 H790 0.950 . S
C786 C795 1.390 . S
C787 C786 1.387 . S
C787 C789 1.387 . S
H788 C795 0.950 . S
C789 C787 1.387 . S
C789 C791 1.390 . S
C789 H793 0.950 . S
H790 C786 0.950 . S
C791 C789 1.390 . S
C791 C792 1.387 . S
C791 H794 0.950 . S
C792 C791 1.387 . S
C792 C795 1.387 . S
H793 C789 0.950 . S
H794 C791 0.950 . S
C795 C786 1.390 . S
C795 H788 0.950 . S
C795 C792 1.387 . S
C796 C797 1.387 . S
C796 H800 0.950 . S
C796 C805 1.390 . S
C797 C796 1.387 . S
C797 C799 1.387 . S
H798 C805 0.950 . S
C799 C797 1.387 . S
C799 C801 1.390 . S
C799 H803 0.950 . S
H800 C796 0.950 . S
C801 C799 1.390 . S
C801 C802 1.387 . S
C801 H804 0.950 . S
C802 C801 1.387 . S
C802 C805 1.387 . S
H803 C799 0.950 . S
H804 C801 0.950 . S
C805 C796 1.390 . S
C805 H798 0.950 . S
C805 C802 1.387 . S
C806 C807 1.387 . S
C806 H810 0.950 . S
C806 C815 1.390 . S
C807 C806 1.387 . S
C807 C809 1.387 . S
H808 C815 0.950 . S
C809 C807 1.387 . S
C809 C811 1.390 . S
C809 H813 0.950 . S
H810 C806 0.950 . S
C811 C809 1.390 . S
C811 C812 1.387 . S
C811 H814 0.950 . S
C812 C811 1.387 . S
C812 C815 1.387 . S
H813 C809 0.950 . S
H814 C811 0.950 . S
C815 C806 1.390 . S
C815 H808 0.950 . S
C815 C812 1.387 . S
C816 C817 1.387 . S
C816 H820 0.950 . S
C816 C825 1.390 . S
C817 C816 1.387 . S
C817 C819 1.387 . S
H818 C825 0.950 . S
C819 C817 1.387 . S
C819 C821 1.390 . S
C819 H823 0.950 . S
H820 C816 0.950 . S
C821 C819 1.390 . S
C821 C822 1.387 . S
C821 H824 0.950 . S
C822 C821 1.387 . S
C822 C825 1.387 . S
H823 C819 0.950 . S
H824 C821 0.950 . S
C825 C816 1.390 . S
C825 H818 0.950 . S
C825 C822 1.387 . S
C826 C827 1.387 . S
C826 H830 0.950 . S
C826 C835 1.390 . S
C827 C826 1.387 . S
C827 C829 1.387 . S
H828 C835 0.950 . S
C829 C827 1.387 . S
C829 C831 1.390 . S
C829 H833 0.950 . S
H830 C826 0.950 . S
C831 C829 1.390 . S
C831 C832 1.387 . S
C831 H834 0.950 . S
C832 C831 1.387 . S
C832 C835 1.387 . S
H833 C829 0.950 . S
H834 C831 0.950 . S
C835 C826 1.390 . S
C835 H828 0.950 . S
C835 C832 1.387 . S
C836 C837 1.387 . S
C836 H840 0.950 . S
C836 C845 1.390 . S
C837 C836 1.387 . S
C837 C839 1.387 . S
H838 C845 0.950 . S
C839 C837 1.387 . S
C839 C841 1.390 . S
C839 H843 0.950 . S
H840 C836 0.950 . S
C841 C839 1.390 . S
C841 C842 1.387 . S
C841 H844 0.950 . S
C842 C841 1.387 . S
C842 C845 1.387 . S
H843 C839 0.950 . S
H844 C841 0.950 . S
C845 C836 1.390 . S
C845 H838 0.950 . S
C845 C842 1.387 . S
C487 C32 1.574 1_554 S
C492 C229 1.602 . S
C497 C283 1.598 . S
C502 C86 1.571 1_544 S
C507 C140 1.571 1_654 S
C512 C175 1.602 . S
C517 C76 1.839 . S
C522 C197 1.968 . S
C527 C130 1.839 . S
C532 C251 1.968 . S
C537 C22 1.840 . S
C542 C305 1.968 . S
C547 C194 1.574 . S
C552 C391 1.601 1_655 S
C557 C445 1.602 . S
C562 C248 1.572 . S
C567 C337 1.601 1_545 S
C572 C302 1.571 . S
C577 C238 1.839 . S
C582 C359 1.969 1_545 S
C587 C413 1.969 1_655 S
C592 C292 1.842 . S
C597 C467 1.968 . S
C602 C184 1.840 . S
C607 C356 1.574 . S
C612 C67 1.601 . S
C617 C410 1.570 . S
C622 C121 1.599 . S
C627 C13 1.598 . S
C632 C464 1.573 . S
C637 C35 1.969 . S
C642 C400 1.841 . S
C647 C89 1.969 . S
C652 C454 1.842 . S
C657 C346 1.842 . S
C662 C143 1.970 . S
C667 C113 1.684 . S
C672 C28 1.784 . S
C677 C5 1.684 . S
C682 C82 1.783 1_545 S
C687 C59 1.685 . S
C692 C136 1.784 1_655 S
C697 C275 1.688 . S
C702 C190 1.784 . S
C707 C167 1.684 . S
C712 C244 1.784 . S
C717 C221 1.688 . S
C722 C298 1.785 . S
C727 C352 1.784 . S
C732 C437 1.688 . S
C737 C406 1.785 . S
C742 C329 1.688 . S
C747 C460 1.783 . S
C752 C383 1.685 . S
C757 C27 0.807 . S
C762 C10 0.807 . S
C767 C64 0.807 . S
C772 C81 0.807 . S
C777 C135 0.806 . S
C782 C118 0.806 . S
C787 C172 0.806 . S
C792 C189 0.806 1_556 S
C797 C243 0.807 1_556 S
C802 C226 0.807 . S
C807 C280 0.808 . S
C812 C297 0.808 1_556 S
C817 C351 0.807 . S
C822 C334 0.806 1_554 S
C827 C405 0.808 . S
C832 C388 0.808 1_554 S
C837 C459 0.806 . S
C842 C442 0.806 1_554 S
