# Generated by pormake.
# Topology uoq, (4)-cn, num edge types: 1
# Building blocks:
#     Node 0, Type 0, BuildingBlock: GALJAG_clean_sbu_0, # of connection points: 4
#     Node 1, Type 0, BuildingBlock: GALJAG_clean_sbu_0, # of connection points: 4
#     Node 2, Type 0, BuildingBlock: GALJAG_clean_sbu_0, # of connection points: 4
#     Node 3, Type 0, BuildingBlock: GALJAG_clean_sbu_0, # of connection points: 4
#     Node 4, Type 0, BuildingBlock: GALJAG_clean_sbu_0, # of connection points: 4
#     Node 5, Type 0, BuildingBlock: GALJAG_clean_sbu_0, # of connection points: 4
#     Node 6, Type 0, BuildingBlock: GALJAG_clean_sbu_0, # of connection points: 4
#     Node 7, Type 0, BuildingBlock: GALJAG_clean_sbu_0, # of connection points: 4
#     Node 8, Type 0, BuildingBlock: GALJAG_clean_sbu_0, # of connection points: 4
#     Node 9, Type 0, BuildingBlock: GALJAG_clean_sbu_0, # of connection points: 4
#     Node 10, Type 0, BuildingBlock: GALJAG_clean_sbu_0, # of connection points: 4
#     Node 11, Type 0, BuildingBlock: GALJAG_clean_sbu_0, # of connection points: 4
#     Edge 12, Type (0, 0), BuildingBlock: CIFDUS_clean_linker_0, # of connection points: 2
#     Edge 13, Type (0, 0), BuildingBlock: CIFDUS_clean_linker_0, # of connection points: 2
#     Edge 14, Type (0, 0), BuildingBlock: CIFDUS_clean_linker_0, # of connection points: 2
#     Edge 15, Type (0, 0), BuildingBlock: CIFDUS_clean_linker_0, # of connection points: 2
#     Edge 16, Type (0, 0), BuildingBlock: CIFDUS_clean_linker_0, # of connection points: 2
#     Edge 17, Type (0, 0), BuildingBlock: CIFDUS_clean_linker_0, # of connection points: 2
#     Edge 18, Type (0, 0), BuildingBlock: CIFDUS_clean_linker_0, # of connection points: 2
#     Edge 19, Type (0, 0), BuildingBlock: CIFDUS_clean_linker_0, # of connection points: 2
#     Edge 20, Type (0, 0), BuildingBlock: CIFDUS_clean_linker_0, # of connection points: 2
#     Edge 21, Type (0, 0), BuildingBlock: CIFDUS_clean_linker_0, # of connection points: 2
#     Edge 22, Type (0, 0), BuildingBlock: CIFDUS_clean_linker_0, # of connection points: 2
#     Edge 23, Type (0, 0), BuildingBlock: CIFDUS_clean_linker_0, # of connection points: 2
#     Edge 24, Type (0, 0), BuildingBlock: CIFDUS_clean_linker_0, # of connection points: 2
#     Edge 25, Type (0, 0), BuildingBlock: CIFDUS_clean_linker_0, # of connection points: 2
#     Edge 26, Type (0, 0), BuildingBlock: CIFDUS_clean_linker_0, # of connection points: 2
#     Edge 27, Type (0, 0), BuildingBlock: CIFDUS_clean_linker_0, # of connection points: 2
#     Edge 28, Type (0, 0), BuildingBlock: CIFDUS_clean_linker_0, # of connection points: 2
#     Edge 29, Type (0, 0), BuildingBlock: CIFDUS_clean_linker_0, # of connection points: 2
#     Edge 30, Type (0, 0), BuildingBlock: CIFDUS_clean_linker_0, # of connection points: 2
#     Edge 31, Type (0, 0), BuildingBlock: CIFDUS_clean_linker_0, # of connection points: 2
#     Edge 32, Type (0, 0), BuildingBlock: CIFDUS_clean_linker_0, # of connection points: 2
#     Edge 33, Type (0, 0), BuildingBlock: CIFDUS_clean_linker_0, # of connection points: 2
#     Edge 34, Type (0, 0), BuildingBlock: CIFDUS_clean_linker_0, # of connection points: 2
#     Edge 35, Type (0, 0), BuildingBlock: CIFDUS_clean_linker_0, # of connection points: 2
# Relax obj value: 0.135
# Max RMSD: 0.151
# Mean RMSD: 0.151
data_MOF--net-uoq--node1-GALJAG_clean_sbu_0--edge1-CIFDUS_clean_linker_0
_symmetry_space_group_name_H-M    P1
_symmetry_Int_Tables_number       1
_symmetry_cell_setting            triclinic
loop_
_symmetry_equiv_pos_as_xyz
'x, y, z'
_cell_length_a     54.771836
_cell_length_b     54.792012
_cell_length_c     17.70456
_cell_angle_alpha  89.93741
_cell_angle_beta   90.171834
_cell_angle_gamma 120.05517
loop_
_atom_site_label
_atom_site_type_symbol
_atom_site_fract_x
_atom_site_fract_y
_atom_site_fract_z
_atom_type_partial_charge
In0 In 0.31132 0.44783 0.27808 0.0
O1 O 0.27367 0.42736 0.35708 0.0
O2 O 0.29435 0.47184 0.34131 0.0
C3 C 0.32521 0.40799 0.30708 0.0
C4 C 0.2801 0.44225 0.15289 0.0
C5 C 0.36213 0.49274 0.31236 0.0
O6 O 0.31041 0.41341 0.3508 0.0
O7 O 0.33201 0.42179 0.24583 0.0
O8 O 0.35482 0.48526 0.24449 0.0
O9 O 0.34398 0.47772 0.36074 0.0
C10 C 0.2748 0.45036 0.37303 0.0
O11 O 0.29779 0.46584 0.18029 0.0
O12 O 0.28001 0.42151 0.18425 0.0
In13 In 0.86641 0.32195 0.5419 0.0
O14 O 0.82631 0.30629 0.6095 0.0
O15 O 0.84951 0.28483 0.62219 0.0
C16 C 0.92056 0.33572 0.56945 0.0
C17 C 0.83765 0.29085 0.41926 0.0
C18 C 0.87146 0.37297 0.56557 0.0
O19 O 0.90169 0.3269 0.61911 0.0
O20 O 0.91205 0.33676 0.50366 0.0
O21 O 0.86587 0.35509 0.61714 0.0
O22 O 0.87451 0.3652 0.50072 0.0
C23 C 0.82823 0.28662 0.6408 0.0
O24 O 0.8412 0.31503 0.43268 0.0
O25 O 0.85052 0.28328 0.4642 0.0
In26 In 0.55086 0.86294 0.92237 0.0
O27 O 0.5717 0.84672 0.00405 0.0
O28 O 0.52696 0.82365 0.99221 0.0
C29 C 0.58876 0.91696 0.95739 0.0
C30 C 0.55737 0.83597 0.80223 0.0
C31 C 0.50404 0.86702 0.93704 0.0
O32 O 0.57933 0.89715 0.00473 0.0
O33 O 0.57992 0.90947 0.89057 0.0
O34 O 0.51712 0.8723 0.87489 0.0
O35 O 0.51458 0.85977 0.98962 0.0
C36 C 0.54855 0.82566 0.0237 0.0
O37 O 0.5336 0.83077 0.82622 0.0
O38 O 0.578 0.85639 0.83479 0.0
In39 In 0.68823 0.5507 0.24471 0.0
O40 O 0.72528 0.5719 0.32652 0.0
O41 O 0.70178 0.52707 0.32281 0.0
C42 C 0.67258 0.58968 0.26431 0.0
C43 C 0.72255 0.55707 0.12708 0.0
C44 C 0.63671 0.50458 0.25943 0.0
O45 O 0.68407 0.58288 0.31556 0.0
O46 O 0.66986 0.57755 0.20153 0.0
O47 O 0.64811 0.51298 0.1954 0.0
O48 O 0.65116 0.51951 0.31418 0.0
C49 C 0.72206 0.54887 0.35139 0.0
O50 O 0.70625 0.53353 0.15695 0.0
O51 O 0.72023 0.57725 0.15306 0.0
In52 In 0.14032 0.68508 0.58592 0.0
O53 O 0.15172 0.69561 0.46063 0.0
O54 O 0.16353 0.72958 0.53726 0.0
C55 C 0.13864 0.63506 0.60388 0.0
C56 C 0.17637 0.71254 0.69879 0.0
C57 C 0.08647 0.67412 0.59126 0.0
O58 O 0.15093 0.65106 0.54853 0.0
O59 O 0.127 0.64404 0.64798 0.0
O60 O 0.09565 0.66588 0.53755 0.0
O61 O 0.10475 0.68906 0.63977 0.0
C62 C 0.16417 0.72201 0.47042 0.0
O63 O 0.15006 0.70178 0.70588 0.0
O64 O 0.18458 0.70948 0.63481 0.0
In65 In 0.44547 0.13341 0.92465 0.0
O66 O 0.41838 0.14527 0.99602 0.0
O67 O 0.46299 0.16854 0.00999 0.0
C68 C 0.40671 0.07824 0.93739 0.0
C69 C 0.44366 0.16389 0.80575 0.0
C70 C 0.49223 0.13018 0.9555 0.0
O71 O 0.41195 0.09598 0.98911 0.0
O72 O 0.42053 0.08839 0.87714 0.0
O73 O 0.48498 0.13146 0.88829 0.0
O74 O 0.47596 0.13038 0.00516 0.0
C75 C 0.43934 0.16502 0.02952 0.0
O76 O 0.46531 0.17172 0.84615 0.0
O77 O 0.4235 0.13967 0.82162 0.0
In78 In 0.55385 0.6847 0.42252 0.0
O79 O 0.58135 0.72397 0.35289 0.0
O80 O 0.53667 0.70534 0.34587 0.0
C81 C 0.59226 0.66774 0.40938 0.0
C82 C 0.55165 0.71323 0.54525 0.0
C83 C 0.50733 0.63624 0.38063 0.0
O84 O 0.58523 0.67815 0.3561 0.0
O85 O 0.5805 0.66651 0.47175 0.0
O86 O 0.51611 0.64078 0.44821 0.0
O87 O 0.52187 0.65604 0.33547 0.0
C88 C 0.56055 0.72472 0.3246 0.0
O89 O 0.53052 0.69107 0.52079 0.0
O90 O 0.57438 0.71971 0.51169 0.0
In91 In 0.87234 0.55867 0.74588 0.0
O92 O 0.8599 0.58487 0.67277 0.0
O93 O 0.83432 0.54014 0.66877 0.0
C94 C 0.92746 0.59762 0.72854 0.0
C95 C 0.84166 0.55673 0.86809 0.0
C96 C 0.87505 0.51165 0.71845 0.0
O97 O 0.91036 0.58677 0.67462 0.0
O98 O 0.91673 0.58931 0.79322 0.0
O99 O 0.869 0.52413 0.66831 0.0
O100 O 0.87973 0.52284 0.78325 0.0
C101 C 0.83843 0.56369 0.64561 0.0
O102 O 0.84406 0.53608 0.84686 0.0
O103 O 0.85639 0.57907 0.83106 0.0
In104 In 0.31495 0.86525 0.0853 0.0
O105 O 0.30413 0.85427 0.21056 0.0
O106 O 0.27022 0.84068 0.13257 0.0
C107 C 0.36488 0.86657 0.07045 0.0
C108 C 0.28776 0.82869 0.97353 0.0
C109 C 0.32634 0.91925 0.07627 0.0
O110 O 0.34969 0.85669 0.12842 0.0
O111 O 0.35517 0.87612 0.02173 0.0
O112 O 0.31213 0.9009 0.02724 0.0
O113 O 0.33358 0.9101 0.13238 0.0
C114 C 0.27776 0.84067 0.19991 0.0
O115 O 0.29693 0.85479 0.96675 0.0
O116 O 0.29214 0.82094 0.03684 0.0
In117 In 0.45186 0.31611 0.42294 0.0
O118 O 0.46979 0.31063 0.5346 0.0
O119 O 0.42846 0.27887 0.50438 0.0
C120 C 0.49809 0.36696 0.40082 0.0
C121 C 0.45429 0.27909 0.32979 0.0
C122 C 0.41257 0.32995 0.3829 0.0
O123 O 0.48452 0.36069 0.46226 0.0
O124 O 0.48853 0.34756 0.3522 0.0
O125 O 0.42498 0.32243 0.33693 0.0
O126 O 0.41909 0.3296 0.45136 0.0
C127 C 0.44888 0.28679 0.54968 0.0
O128 O 0.4313 0.27786 0.34638 0.0
O129 O 0.47597 0.29902 0.36022 0.0
In130 In 0.13023 0.44481 0.77576 0.0
O131 O 0.15979 0.46731 0.87543 0.0
O132 O 0.14501 0.42372 0.86339 0.0
C133 C 0.12981 0.49318 0.75167 0.0
C134 C 0.16207 0.438 0.67353 0.0
C135 C 0.0751 0.40798 0.74651 0.0
O136 O 0.1188 0.47822 0.80986 0.0
O137 O 0.1412 0.48387 0.70726 0.0
O138 O 0.09383 0.41864 0.69654 0.0
O139 O 0.08415 0.41521 0.81331 0.0
C140 C 0.16115 0.44624 0.89823 0.0
O141 O 0.1653 0.46178 0.69061 0.0
O142 O 0.14253 0.41732 0.70822 0.0
In143 In 0.68968 0.13837 0.03928 0.0
O144 O 0.71706 0.14367 0.14403 0.0
O145 O 0.70622 0.1751 0.12277 0.0
C146 C 0.63989 0.13539 0.00726 0.0
C147 C 0.72891 0.17201 0.94009 0.0
C148 C 0.67355 0.08372 0.01385 0.0
O149 O 0.64655 0.13284 0.07417 0.0
O150 O 0.65822 0.13947 0.95851 0.0
O151 O 0.68726 0.10318 0.96709 0.0
O152 O 0.6687 0.09185 0.07603 0.0
C153 C 0.72022 0.16734 0.16249 0.0
O154 O 0.72989 0.15191 0.97211 0.0
O155 O 0.70824 0.17486 0.95822 0.0
H156 H 0.35208 0.38773 0.2203 0.0
H157 H 0.32367 0.38718 0.44759 0.0
H158 H 0.34707 0.36182 0.49151 0.0
H159 H 0.37866 0.34275 0.46702 0.0
H160 H 0.40556 0.34197 0.23862 0.0
H161 H 0.37967 0.36458 0.19377 0.0
C162 C 0.35074 0.38174 0.27922 0.0
C163 C 0.33636 0.38952 0.33058 0.0
C164 C 0.36417 0.36703 0.30418 0.0
C165 C 0.33463 0.38145 0.40675 0.0
C166 C 0.34812 0.36704 0.4321 0.0
C167 C 0.37858 0.34728 0.4074 0.0
C168 C 0.39422 0.34091 0.35649 0.0
C169 C 0.36342 0.36018 0.3816 0.0
C170 C 0.39374 0.3467 0.2792 0.0
C171 C 0.379 0.35973 0.25336 0.0
H172 H 0.94271 0.34102 0.70962 0.0
H173 H 0.96572 0.35486 0.47406 0.0
H174 H 0.01562 0.37659 0.50868 0.0
H175 H 0.05261 0.39439 0.60594 0.0
H176 H 0.02973 0.38246 0.84169 0.0
H177 H 0.9797 0.35702 0.80687 0.0
C178 C 0.95861 0.34851 0.66572 0.0
C179 C 0.95052 0.34638 0.58926 0.0
C180 C 0.98722 0.36143 0.68616 0.0
C181 C 0.97139 0.35627 0.53321 0.0
C182 C 0.99991 0.36875 0.55303 0.0
C183 C 0.03669 0.386 0.64982 0.0
C184 C 0.04488 0.39038 0.72641 0.0
C185 C 0.00806 0.37186 0.62934 0.0
C186 C 0.02399 0.37939 0.78244 0.0
C187 C 0.9954 0.36491 0.7625 0.0
H188 H 0.61912 0.96271 0.86738 0.0
H189 H 0.59797 0.93796 0.10014 0.0
H190 H 0.62324 0.98729 0.13932 0.0
H191 H 0.64901 0.03781 0.10663 0.0
H192 H 0.67173 0.06238 0.87433 0.0
H193 H 0.6485 0.01302 0.83614 0.0
C194 C 0.62029 0.96815 0.92668 0.0
C195 C 0.60653 0.94675 0.9806 0.0
C196 C 0.63508 0.9966 0.94903 0.0
C197 C 0.6084 0.95406 0.0574 0.0
C198 C 0.62276 0.98229 0.07993 0.0
C199 C 0.64908 0.03231 0.04783 0.0
C200 C 0.66188 0.05372 0.99344 0.0
C201 C 0.63583 0.00379 0.02613 0.0
C202 C 0.66201 0.0463 0.91744 0.0
C203 C 0.64863 0.01805 0.89539 0.0
H204 H 0.6626 0.60527 0.40075 0.0
H205 H 0.65554 0.61511 0.1612 0.0
H206 H 0.63209 0.64229 0.18603 0.0
H207 H 0.6109 0.66036 0.27517 0.0
H208 H 0.61485 0.64786 0.51457 0.0
H209 H 0.64244 0.62467 0.49055 0.0
C210 C 0.65624 0.61368 0.35401 0.0
C211 C 0.66081 0.60826 0.27919 0.0
C212 C 0.6421 0.62861 0.36875 0.0
C213 C 0.65222 0.619 0.2192 0.0
C214 C 0.63878 0.63448 0.2334 0.0
C215 C 0.61804 0.65283 0.32226 0.0
C216 C 0.61086 0.6558 0.39661 0.0
C217 C 0.63321 0.63898 0.30785 0.0
C218 C 0.6201 0.64579 0.45689 0.0
C219 C 0.63582 0.63251 0.44312 0.0
H220 H 0.95412 0.61053 0.59408 0.0
H221 H 0.96911 0.62721 0.83286 0.0
H222 H 0.01996 0.65549 0.80967 0.0
H223 H 0.06015 0.67202 0.72244 0.0
H224 H 0.04478 0.6519 0.48529 0.0
H225 H 0.9939 0.62864 0.50671 0.0
C226 C 0.96846 0.6206 0.64108 0.0
C227 C 0.9579 0.61673 0.71517 0.0
C228 C 0.99755 0.63614 0.62748 0.0
C229 C 0.97676 0.62982 0.77539 0.0
C230 C 0.00579 0.64595 0.76211 0.0
C231 C 0.04564 0.66299 0.67528 0.0
C232 C 0.05613 0.6637 0.6023 0.0
C233 C 0.01644 0.6488 0.68853 0.0
C234 C 0.03715 0.6516 0.54187 0.0
C235 C 0.00811 0.63823 0.55417 0.0
H236 H 0.33416 0.9455 0.94183 0.0
H237 H 0.34397 0.96091 0.18185 0.0
H238 H 0.36747 0.0118 0.15933 0.0
H239 H 0.38851 0.0517 0.07137 0.0
H240 H 0.38291 0.03643 0.83127 0.0
H241 H 0.35435 0.98557 0.8536 0.0
C242 C 0.341 0.96002 0.98919 0.0
C243 C 0.33721 0.94957 0.06345 0.0
C244 C 0.35548 0.98919 0.97563 0.0
C245 C 0.34662 0.96854 0.12429 0.0
C246 C 0.36012 0.99758 0.11138 0.0
C247 C 0.38074 0.03725 0.02386 0.0
C248 C 0.38772 0.04774 0.94973 0.0
C249 C 0.36517 0.00813 0.03729 0.0
C250 C 0.37782 0.0288 0.88879 0.0
C251 C 0.36152 0.99977 0.90158 0.0
H252 H 0.17575 0.40672 0.9348 0.0
H253 H 0.19642 0.49221 0.98227 0.0
H254 H 0.2361 0.49905 0.06066 0.0
H255 H 0.2654 0.48112 0.11473 0.0
H256 H 0.24446 0.3954 0.07069 0.0
H257 H 0.20484 0.38845 0.99098 0.0
C258 C 0.18872 0.42672 0.96311 0.0
C259 C 0.18295 0.44887 0.95296 0.0
C260 C 0.21181 0.43065 0.00765 0.0
C261 C 0.20022 0.47475 0.9894 0.0
C262 C 0.22307 0.47876 0.03388 0.0
C263 C 0.25241 0.46102 0.08687 0.0
C264 C 0.25813 0.43892 0.09788 0.0
C265 C 0.22925 0.45697 0.04279 0.0
C266 C 0.2407 0.41284 0.06256 0.0
C267 C 0.21791 0.4088 0.0174 0.0
H268 H 0.81834 0.23465 0.39955 0.0
H269 H 0.8095 0.30355 0.31351 0.0
H270 H 0.7715 0.27119 0.2298 0.0
H271 H 0.74017 0.22328 0.18233 0.0
H272 H 0.74913 0.15422 0.26601 0.0
H273 H 0.7873 0.18653 0.35012 0.0
C274 C 0.80833 0.24263 0.36178 0.0
C275 C 0.81692 0.27156 0.36257 0.0
C276 C 0.78617 0.22378 0.31426 0.0
C277 C 0.80347 0.28146 0.31384 0.0
C278 C 0.78159 0.26292 0.26624 0.0
C279 C 0.75026 0.21521 0.21956 0.0
C280 C 0.74157 0.18629 0.21846 0.0
C281 C 0.77256 0.23401 0.26653 0.0
C282 C 0.75523 0.17632 0.26618 0.0
C283 C 0.77718 0.19484 0.31396 0.0
H284 H 0.51764 0.78315 0.76025 0.0
H285 H 0.60499 0.8459 0.72671 0.0
H286 H 0.61143 0.81295 0.64743 0.0
H287 H 0.59214 0.76612 0.58791 0.0
H288 H 0.50496 0.70326 0.62441 0.0
H289 H 0.49872 0.73623 0.70338 0.0
C290 C 0.53802 0.78975 0.73488 0.0
C291 C 0.56072 0.81708 0.74859 0.0
C292 C 0.54171 0.77048 0.6909 0.0
C293 C 0.58711 0.82508 0.71647 0.0
C294 C 0.59084 0.80618 0.67152 0.0
C295 C 0.57188 0.75952 0.61394 0.0
C296 C 0.54908 0.73217 0.60049 0.0
C297 C 0.56833 0.77875 0.65874 0.0
C298 C 0.5229 0.72409 0.6341 0.0
C299 C 0.51925 0.74301 0.67889 0.0
H300 H 0.74053 0.52034 0.09467 0.0
H301 H 0.7554 0.60343 0.0403 0.0
H302 H 0.79465 0.61137 0.95833 0.0
H303 H 0.82477 0.59456 0.90204 0.0
H304 H 0.80997 0.51161 0.95869 0.0
H305 H 0.77106 0.50398 0.04088 0.0
C306 C 0.75218 0.54009 0.06432 0.0
C307 C 0.74487 0.56116 0.07293 0.0
C308 C 0.77504 0.5447 0.01858 0.0
C309 C 0.76048 0.58681 0.03419 0.0
C310 C 0.78302 0.59141 0.98764 0.0
C311 C 0.81325 0.57496 0.93315 0.0
C312 C 0.82038 0.55373 0.92448 0.0
C313 C 0.7906 0.57056 0.97973 0.0
C314 C 0.80503 0.52835 0.96457 0.0
C315 C 0.78265 0.52389 0.01126 0.0
H316 H 0.20913 0.7744 0.48872 0.0
H317 H 0.15653 0.71521 0.31778 0.0
H318 H 0.18567 0.74815 0.21871 0.0
H319 H 0.22769 0.79266 0.18099 0.0
H320 H 0.28309 0.84944 0.35219 0.0
H321 H 0.25126 0.81875 0.45105 0.0
C322 C 0.20387 0.76889 0.42972 0.0
C323 C 0.18059 0.74253 0.41042 0.0
C324 C 0.22131 0.78749 0.37329 0.0
C325 C 0.17431 0.7354 0.3339 0.0
C326 C 0.19097 0.75422 0.27734 0.0
C327 C 0.23255 0.79847 0.23997 0.0
C328 C 0.25753 0.8234 0.25944 0.0
C329 C 0.21473 0.78017 0.29638 0.0
C330 C 0.26393 0.83042 0.33598 0.0
C331 C 0.24577 0.81285 0.3924 0.0
H332 H 0.47894 0.22021 0.78869 0.0
H333 H 0.40171 0.15059 0.70214 0.0
H334 H 0.39543 0.18275 0.61891 0.0
H335 H 0.41211 0.23072 0.57006 0.0
H336 H 0.48927 0.30022 0.65757 0.0
H337 H 0.49503 0.26816 0.74207 0.0
C338 C 0.46086 0.21202 0.75111 0.0
C339 C 0.44098 0.18297 0.75105 0.0
C340 C 0.45714 0.2307 0.7044 0.0
C341 C 0.41744 0.1728 0.70285 0.0
C342 C 0.41376 0.19122 0.65556 0.0
C343 C 0.42997 0.23892 0.60842 0.0
C344 C 0.45015 0.2679 0.60776 0.0
C345 C 0.43341 0.22024 0.65607 0.0
C346 C 0.47334 0.27807 0.6572 0.0
C347 C 0.47676 0.25971 0.7052 0.0
H348 H 0.20309 0.47946 0.59141 0.0
H349 H 0.16134 0.38973 0.63075 0.0
H350 H 0.19247 0.38546 0.5394 0.0
H351 H 0.23213 0.40763 0.45036 0.0
H352 H 0.27357 0.49751 0.41282 0.0
H353 H 0.2418 0.50132 0.5018 0.0
C354 C 0.20076 0.45894 0.57995 0.0
C355 C 0.1801 0.43496 0.61765 0.0
C356 C 0.21863 0.45671 0.52792 0.0
C357 C 0.17719 0.40849 0.60223 0.0
C358 C 0.19495 0.40606 0.55018 0.0
C359 C 0.23411 0.42801 0.46164 0.0
C360 C 0.25513 0.45225 0.42548 0.0
C361 C 0.21584 0.43007 0.51299 0.0
C362 C 0.25755 0.47855 0.44025 0.0
C363 C 0.23942 0.48077 0.49105 0.0
H364 H 0.82815 0.24321 0.71429 0.0
H365 H 0.78133 0.28689 0.68897 0.0
H366 H 0.74643 0.25504 0.77967 0.0
H367 H 0.7294 0.21511 0.8658 0.0
H368 H 0.77581 0.17108 0.89209 0.0
H369 H 0.81088 0.20289 0.80093 0.0
C370 C 0.8103 0.24572 0.72868 0.0
C371 C 0.80725 0.2673 0.69522 0.0
C372 C 0.79035 0.22736 0.7808 0.0
C373 C 0.78407 0.27039 0.71414 0.0
C374 C 0.76414 0.25222 0.76591 0.0
C375 C 0.74719 0.21245 0.85161 0.0
C376 C 0.75011 0.19087 0.88539 0.0
C377 C 0.7671 0.23069 0.79952 0.0
C378 C 0.77319 0.18761 0.86659 0.0
C379 C 0.79321 0.20576 0.81461 0.0
H380 H 0.59157 0.82392 0.09524 0.0
H381 H 0.50075 0.78084 0.07679 0.0
H382 H 0.49667 0.746 0.16901 0.0
H383 H 0.51864 0.7277 0.25397 0.0
H384 H 0.60932 0.76985 0.27315 0.0
H385 H 0.61376 0.80529 0.1813 0.0
C386 C 0.57093 0.8069 0.11156 0.0
C387 C 0.54652 0.80489 0.07946 0.0
C388 C 0.56871 0.78686 0.16451 0.0
C389 C 0.51987 0.78278 0.10079 0.0
C390 C 0.51748 0.76286 0.15348 0.0
C391 C 0.53939 0.74466 0.23817 0.0
C392 C 0.56361 0.74626 0.27005 0.0
C393 C 0.54174 0.76471 0.18555 0.0
C394 C 0.59037 0.76826 0.24909 0.0
C395 C 0.59291 0.78848 0.19671 0.0
H396 H 0.76884 0.59236 0.41432 0.0
H397 H 0.71718 0.5016 0.41522 0.0
H398 H 0.74873 0.49833 0.50681 0.0
H399 H 0.79109 0.52105 0.58504 0.0
H400 H 0.84322 0.61171 0.58485 0.0
H401 H 0.81133 0.61526 0.49422 0.0
C402 C 0.76449 0.57191 0.43484 0.0
C403 C 0.74081 0.54728 0.40821 0.0
C404 C 0.78277 0.57016 0.48725 0.0
C405 C 0.73535 0.52087 0.43496 0.0
C406 C 0.75335 0.51896 0.48723 0.0
C407 C 0.79548 0.54159 0.56518 0.0
C408 C 0.81941 0.56607 0.59126 0.0
C409 C 0.77715 0.54344 0.51344 0.0
C410 C 0.82487 0.59256 0.56532 0.0
C411 C 0.80667 0.5946 0.51363 0.0
H412 H 0.22627 0.76003 0.68175 0.0
H413 H 0.16972 0.70271 0.84955 0.0
H414 H 0.20119 0.73257 0.95051 0.0
H415 H 0.24324 0.77651 0.99046 0.0
H416 H 0.2963 0.83671 0.82269 0.0
H417 H 0.2679 0.80425 0.72167 0.0
C418 C 0.22114 0.754 0.7405 0.0
C419 C 0.19606 0.7293 0.75887 0.0
C420 C 0.23859 0.77186 0.79781 0.0
C421 C 0.18908 0.72175 0.83476 0.0
C422 C 0.20699 0.73877 0.89221 0.0
C423 C 0.24867 0.78226 0.93168 0.0
C424 C 0.27175 0.80865 0.91336 0.0
C425 C 0.23158 0.76408 0.87436 0.0
C426 C 0.27849 0.81636 0.83746 0.0
C427 C 0.26232 0.79787 0.77996 0.0
H428 H 0.48166 0.20679 0.10829 0.0
H429 H 0.39132 0.16362 0.07798 0.0
H430 H 0.38788 0.19497 0.17035 0.0
H431 H 0.41088 0.23531 0.25715 0.0
H432 H 0.50134 0.27831 0.28573 0.0
H433 H 0.5044 0.24615 0.19625 0.0
C434 C 0.46119 0.20418 0.12199 0.0
C435 C 0.43679 0.18308 0.08645 0.0
C436 C 0.45942 0.22221 0.17456 0.0
C437 C 0.4104 0.17982 0.10476 0.0
C438 C 0.40843 0.19771 0.1574 0.0
C439 C 0.43123 0.23755 0.24387 0.0
C440 C 0.45585 0.25912 0.27759 0.0
C441 C 0.43285 0.21908 0.19225 0.0
C442 C 0.4821 0.26185 0.26023 0.0
C443 C 0.48388 0.24351 0.20913 0.0
H444 H 0.40194 0.53418 0.22271 0.0
H445 H 0.38326 0.50658 0.4544 0.0
H446 H 0.42675 0.54787 0.49597 0.0
H447 H 0.46956 0.59271 0.46757 0.0
H448 H 0.48795 0.62125 0.23664 0.0
H449 H 0.44538 0.57892 0.19402 0.0
C450 C 0.40752 0.53717 0.28215 0.0
C451 C 0.38936 0.51735 0.33525 0.0
C452 C 0.43253 0.56124 0.30604 0.0
C453 C 0.39682 0.52156 0.41223 0.0
C454 C 0.42171 0.54519 0.43621 0.0
C455 C 0.4643 0.58959 0.40793 0.0
C456 C 0.48186 0.61011 0.3555 0.0
C457 C 0.43963 0.56531 0.38377 0.0
C458 C 0.47473 0.6058 0.27833 0.0
C459 C 0.45038 0.58158 0.2538 0.0
H460 H 0.87513 0.48989 0.58094 0.0
H461 H 0.87698 0.47514 0.8198 0.0
H462 H 0.87641 0.43107 0.79314 0.0
H463 H 0.87416 0.39625 0.70219 0.0
H464 H 0.87369 0.41145 0.46318 0.0
H465 H 0.87508 0.456 0.48961 0.0
C466 C 0.87547 0.47704 0.62714 0.0
C467 C 0.87593 0.48565 0.70228 0.0
C468 C 0.87537 0.45188 0.61134 0.0
C469 C 0.87663 0.46896 0.76154 0.0
C470 C 0.87624 0.44375 0.74631 0.0
C471 C 0.87443 0.40935 0.65583 0.0
C472 C 0.87364 0.40052 0.58082 0.0
C473 C 0.87543 0.43493 0.67149 0.0
C474 C 0.87426 0.4178 0.52138 0.0
C475 C 0.875 0.44322 0.53649 0.0
H476 H 0.47301 0.85395 0.06436 0.0
H477 H 0.47762 0.88457 0.83717 0.0
H478 H 0.4352 0.88782 0.85952 0.0
H479 H 0.39672 0.88149 0.94352 0.0
H480 H 0.39198 0.85005 0.16983 0.0
H481 H 0.43482 0.84771 0.14796 0.0
C482 C 0.46478 0.86137 0.01962 0.0
C483 C 0.47841 0.86901 0.94913 0.0
C484 C 0.44046 0.86307 0.03284 0.0
C485 C 0.46746 0.87853 0.89181 0.0
C486 C 0.44326 0.88041 0.90464 0.0
C487 C 0.40514 0.87424 0.98819 0.0
C488 C 0.39126 0.866 0.05832 0.0
C489 C 0.42959 0.87271 0.97493 0.0
C490 C 0.40231 0.85652 0.11547 0.0
C491 C 0.42676 0.85515 0.10294 0.0
H492 H 0.60742 0.48704 0.38989 0.0
H493 H 0.60466 0.46384 0.15584 0.0
H494 H 0.56106 0.41927 0.17914 0.0
H495 H 0.52495 0.38629 0.26725 0.0
H496 H 0.52756 0.40985 0.50093 0.0
H497 H 0.57019 0.45508 0.4765 0.0
C498 C 0.59721 0.4723 0.34381 0.0
C499 C 0.6093 0.47862 0.27128 0.0
C500 C 0.57229 0.44681 0.3577 0.0
C501 C 0.59574 0.45943 0.21211 0.0
C502 C 0.5709 0.43394 0.2255 0.0
C503 C 0.53482 0.40135 0.31284 0.0
C504 C 0.52328 0.39469 0.38598 0.0
C505 C 0.55919 0.42729 0.29826 0.0
C506 C 0.53611 0.41448 0.44426 0.0
C507 C 0.56047 0.4403 0.43031 0.0
H508 H 0.11621 0.60058 0.7245 0.0
H509 H 0.16146 0.6102 0.51726 0.0
H510 H 0.16274 0.56708 0.54519 0.0
H511 H 0.1514 0.52705 0.6292 0.0
H512 H 0.10645 0.51775 0.83685 0.0
H513 H 0.10475 0.56055 0.80813 0.0
C514 C 0.12627 0.5932 0.68523 0.0
C515 C 0.13869 0.60853 0.61878 0.0
C516 C 0.12708 0.56857 0.70193 0.0
C517 C 0.15172 0.59875 0.56867 0.0
C518 C 0.15249 0.57414 0.58471 0.0
C519 C 0.14126 0.5344 0.66826 0.0
C520 C 0.1291 0.51928 0.73518 0.0
C521 C 0.14034 0.55897 0.65131 0.0
C522 C 0.116 0.52904 0.78509 0.0
C523 C 0.11499 0.55348 0.76863 0.0
H524 H 0.59721 0.12879 0.09996 0.0
H525 H 0.6223 0.13876 0.86602 0.0
H526 H 0.57871 0.13724 0.8286 0.0
H527 H 0.53361 0.13402 0.86215 0.0
H528 H 0.50875 0.12459 0.0962 0.0
H529 H 0.55178 0.12486 0.13333 0.0
C530 C 0.59308 0.13056 0.04085 0.0
C531 C 0.61302 0.13394 0.98604 0.0
C532 C 0.56792 0.12978 0.01951 0.0
C533 C 0.60735 0.1362 0.90955 0.0
C534 C 0.58238 0.13533 0.88795 0.0
C535 C 0.53758 0.1319 0.92117 0.0
C536 C 0.51801 0.12932 0.97617 0.0
C537 C 0.56254 0.13225 0.94241 0.0
C538 C 0.52349 0.12665 0.05256 0.0
C539 C 0.54813 0.12682 0.074 0.0
loop_
_geom_bond_atom_site_label_1
_geom_bond_atom_site_label_2
_geom_bond_distance
_geom_bond_site_symmetry_2
_ccdc_geom_bond_type
In0 O1 2.294 . S
In0 O2 2.326 . S
In0 O6 2.266 . S
In0 O7 2.326 . S
In0 O8 2.266 . S
In0 O9 2.326 . S
In0 O11 2.294 . S
In0 O12 2.326 . S
O1 In0 2.294 . S
O1 C10 1.240 . S
O2 In0 2.326 . S
O2 C10 1.252 . S
C3 O6 1.252 . S
C3 O7 1.260 . S
C4 O11 1.240 . S
C4 O12 1.252 . S
C5 O8 1.252 . S
C5 O9 1.260 . S
O6 In0 2.266 . S
O6 C3 1.252 . S
O7 In0 2.326 . S
O7 C3 1.260 . S
O8 In0 2.266 . S
O8 C5 1.252 . S
O9 In0 2.326 . S
O9 C5 1.260 . S
C10 O1 1.240 . S
C10 O2 1.252 . S
O11 In0 2.294 . S
O11 C4 1.240 . S
O12 In0 2.326 . S
O12 C4 1.252 . S
In13 O14 2.294 . S
In13 O15 2.326 . S
In13 O19 2.266 . S
In13 O20 2.326 . S
In13 O21 2.266 . S
In13 O22 2.326 . S
In13 O24 2.294 . S
In13 O25 2.326 . S
O14 In13 2.294 . S
O14 C23 1.240 . S
O15 In13 2.326 . S
O15 C23 1.252 . S
C16 O19 1.252 . S
C16 O20 1.260 . S
C17 O24 1.240 . S
C17 O25 1.252 . S
C18 O21 1.252 . S
C18 O22 1.260 . S
O19 In13 2.266 . S
O19 C16 1.252 . S
O20 In13 2.326 . S
O20 C16 1.260 . S
O21 In13 2.266 . S
O21 C18 1.252 . S
O22 In13 2.326 . S
O22 C18 1.260 . S
C23 O14 1.240 . S
C23 O15 1.252 . S
O24 In13 2.294 . S
O24 C17 1.240 . S
O25 In13 2.326 . S
O25 C17 1.252 . S
In26 O27 2.294 1_556 S
In26 O28 2.326 . S
In26 O32 2.266 . S
In26 O33 2.326 . S
In26 O34 2.266 . S
In26 O35 2.326 1_556 S
In26 O37 2.294 . S
In26 O38 2.326 . S
O27 In26 2.294 1_554 S
O27 C36 1.240 . S
O28 In26 2.326 . S
O28 C36 1.252 1_556 S
C29 O32 1.252 . S
C29 O33 1.260 . S
C30 O37 1.240 . S
C30 O38 1.252 . S
C31 O34 1.252 . S
C31 O35 1.260 1_556 S
O32 In26 2.266 . S
O32 C29 1.252 . S
O33 In26 2.326 . S
O33 C29 1.260 . S
O34 In26 2.266 . S
O34 C31 1.252 . S
O35 In26 2.326 1_554 S
O35 C31 1.260 1_554 S
C36 O27 1.240 . S
C36 O28 1.252 1_554 S
O37 In26 2.294 . S
O37 C30 1.240 . S
O38 In26 2.326 . S
O38 C30 1.252 . S
In39 O40 2.294 . S
In39 O41 2.326 . S
In39 O45 2.266 . S
In39 O46 2.326 . S
In39 O47 2.266 . S
In39 O48 2.326 . S
In39 O50 2.294 . S
In39 O51 2.326 . S
O40 In39 2.294 . S
O40 C49 1.240 . S
O41 In39 2.326 . S
O41 C49 1.252 . S
C42 O45 1.252 . S
C42 O46 1.260 . S
C43 O50 1.240 . S
C43 O51 1.252 . S
C44 O47 1.252 . S
C44 O48 1.260 . S
O45 In39 2.266 . S
O45 C42 1.252 . S
O46 In39 2.326 . S
O46 C42 1.260 . S
O47 In39 2.266 . S
O47 C44 1.252 . S
O48 In39 2.326 . S
O48 C44 1.260 . S
C49 O40 1.240 . S
C49 O41 1.252 . S
O50 In39 2.294 . S
O50 C43 1.240 . S
O51 In39 2.326 . S
O51 C43 1.252 . S
In52 O53 2.294 . S
In52 O54 2.326 . S
In52 O58 2.266 . S
In52 O59 2.326 . S
In52 O60 2.266 . S
In52 O61 2.326 . S
In52 O63 2.294 . S
In52 O64 2.326 . S
O53 In52 2.294 . S
O53 C62 1.240 . S
O54 In52 2.326 . S
O54 C62 1.252 . S
C55 O58 1.252 . S
C55 O59 1.260 . S
C56 O63 1.240 . S
C56 O64 1.252 . S
C57 O60 1.252 . S
C57 O61 1.260 . S
O58 In52 2.266 . S
O58 C55 1.252 . S
O59 In52 2.326 . S
O59 C55 1.260 . S
O60 In52 2.266 . S
O60 C57 1.252 . S
O61 In52 2.326 . S
O61 C57 1.260 . S
C62 O53 1.240 . S
C62 O54 1.252 . S
O63 In52 2.294 . S
O63 C56 1.240 . S
O64 In52 2.326 . S
O64 C56 1.252 . S
In65 O66 2.294 1_556 S
In65 O67 2.326 . S
In65 O71 2.266 . S
In65 O72 2.326 . S
In65 O73 2.266 . S
In65 O74 2.326 1_556 S
In65 O76 2.294 . S
In65 O77 2.326 . S
O66 In65 2.294 1_554 S
O66 C75 1.240 . S
O67 In65 2.326 . S
O67 C75 1.252 1_556 S
C68 O71 1.252 . S
C68 O72 1.260 . S
C69 O76 1.240 . S
C69 O77 1.252 . S
C70 O73 1.252 . S
C70 O74 1.260 1_556 S
O71 In65 2.266 . S
O71 C68 1.252 . S
O72 In65 2.326 . S
O72 C68 1.260 . S
O73 In65 2.266 . S
O73 C70 1.252 . S
O74 In65 2.326 1_554 S
O74 C70 1.260 1_554 S
C75 O66 1.240 . S
C75 O67 1.252 1_554 S
O76 In65 2.294 . S
O76 C69 1.240 . S
O77 In65 2.326 . S
O77 C69 1.252 . S
In78 O79 2.294 . S
In78 O80 2.326 . S
In78 O84 2.266 . S
In78 O85 2.326 . S
In78 O86 2.266 . S
In78 O87 2.326 . S
In78 O89 2.294 . S
In78 O90 2.326 . S
O79 In78 2.294 . S
O79 C88 1.240 . S
O80 In78 2.326 . S
O80 C88 1.252 . S
C81 O84 1.252 . S
C81 O85 1.260 . S
C82 O89 1.240 . S
C82 O90 1.252 . S
C83 O86 1.252 . S
C83 O87 1.260 . S
O84 In78 2.266 . S
O84 C81 1.252 . S
O85 In78 2.326 . S
O85 C81 1.260 . S
O86 In78 2.266 . S
O86 C83 1.252 . S
O87 In78 2.326 . S
O87 C83 1.260 . S
C88 O79 1.240 . S
C88 O80 1.252 . S
O89 In78 2.294 . S
O89 C82 1.240 . S
O90 In78 2.326 . S
O90 C82 1.252 . S
In91 O92 2.294 . S
In91 O93 2.326 . S
In91 O97 2.266 . S
In91 O98 2.326 . S
In91 O99 2.266 . S
In91 O100 2.326 . S
In91 O102 2.294 . S
In91 O103 2.326 . S
O92 In91 2.294 . S
O92 C101 1.240 . S
O93 In91 2.326 . S
O93 C101 1.252 . S
C94 O97 1.252 . S
C94 O98 1.260 . S
C95 O102 1.240 . S
C95 O103 1.252 . S
C96 O99 1.252 . S
C96 O100 1.260 . S
O97 In91 2.266 . S
O97 C94 1.252 . S
O98 In91 2.326 . S
O98 C94 1.260 . S
O99 In91 2.266 . S
O99 C96 1.252 . S
O100 In91 2.326 . S
O100 C96 1.260 . S
C101 O92 1.240 . S
C101 O93 1.252 . S
O102 In91 2.294 . S
O102 C95 1.240 . S
O103 In91 2.326 . S
O103 C95 1.252 . S
In104 O105 2.294 . S
In104 O106 2.326 . S
In104 O110 2.266 . S
In104 O111 2.326 1_554 S
In104 O112 2.266 . S
In104 O113 2.326 . S
In104 O115 2.294 1_554 S
In104 O116 2.326 . S
O105 In104 2.294 . S
O105 C114 1.240 . S
O106 In104 2.326 . S
O106 C114 1.252 . S
C107 O110 1.252 . S
C107 O111 1.260 1_554 S
C108 O115 1.240 . S
C108 O116 1.252 1_556 S
C109 O112 1.252 . S
C109 O113 1.260 . S
O110 In104 2.266 . S
O110 C107 1.252 . S
O111 In104 2.326 1_556 S
O111 C107 1.260 1_556 S
O112 In104 2.266 . S
O112 C109 1.252 . S
O113 In104 2.326 . S
O113 C109 1.260 . S
C114 O105 1.240 . S
C114 O106 1.252 . S
O115 In104 2.294 1_556 S
O115 C108 1.240 . S
O116 In104 2.326 . S
O116 C108 1.252 1_554 S
In117 O118 2.294 . S
In117 O119 2.326 . S
In117 O123 2.266 . S
In117 O124 2.326 . S
In117 O125 2.266 . S
In117 O126 2.326 . S
In117 O128 2.294 . S
In117 O129 2.326 . S
O118 In117 2.294 . S
O118 C127 1.240 . S
O119 In117 2.326 . S
O119 C127 1.252 . S
C120 O123 1.252 . S
C120 O124 1.260 . S
C121 O128 1.240 . S
C121 O129 1.252 . S
C122 O125 1.252 . S
C122 O126 1.260 . S
O123 In117 2.266 . S
O123 C120 1.252 . S
O124 In117 2.326 . S
O124 C120 1.260 . S
O125 In117 2.266 . S
O125 C122 1.252 . S
O126 In117 2.326 . S
O126 C122 1.260 . S
C127 O118 1.240 . S
C127 O119 1.252 . S
O128 In117 2.294 . S
O128 C121 1.240 . S
O129 In117 2.326 . S
O129 C121 1.252 . S
In130 O131 2.294 . S
In130 O132 2.326 . S
In130 O136 2.266 . S
In130 O137 2.326 . S
In130 O138 2.266 . S
In130 O139 2.326 . S
In130 O141 2.294 . S
In130 O142 2.326 . S
O131 In130 2.294 . S
O131 C140 1.240 . S
O132 In130 2.326 . S
O132 C140 1.252 . S
C133 O136 1.252 . S
C133 O137 1.260 . S
C134 O141 1.240 . S
C134 O142 1.252 . S
C135 O138 1.252 . S
C135 O139 1.260 . S
O136 In130 2.266 . S
O136 C133 1.252 . S
O137 In130 2.326 . S
O137 C133 1.260 . S
O138 In130 2.266 . S
O138 C135 1.252 . S
O139 In130 2.326 . S
O139 C135 1.260 . S
C140 O131 1.240 . S
C140 O132 1.252 . S
O141 In130 2.294 . S
O141 C134 1.240 . S
O142 In130 2.326 . S
O142 C134 1.252 . S
In143 O144 2.294 . S
In143 O145 2.326 . S
In143 O149 2.266 . S
In143 O150 2.326 1_554 S
In143 O151 2.266 . S
In143 O152 2.326 . S
In143 O154 2.294 1_554 S
In143 O155 2.326 . S
O144 In143 2.294 . S
O144 C153 1.240 . S
O145 In143 2.326 . S
O145 C153 1.252 . S
C146 O149 1.252 . S
C146 O150 1.260 1_554 S
C147 O154 1.240 . S
C147 O155 1.252 1_556 S
C148 O151 1.252 . S
C148 O152 1.260 . S
O149 In143 2.266 . S
O149 C146 1.252 . S
O150 In143 2.326 1_556 S
O150 C146 1.260 1_556 S
O151 In143 2.266 . S
O151 C148 1.252 . S
O152 In143 2.326 . S
O152 C148 1.260 . S
C153 O144 1.240 . S
C153 O145 1.252 . S
O154 In143 2.294 1_556 S
O154 C147 1.240 . S
O155 In143 2.326 . S
O155 C147 1.252 1_554 S
H156 C162 0.930 . S
H157 C165 0.930 . S
H158 C166 0.930 . S
H159 C167 0.930 . S
H160 C170 0.930 . S
H161 C171 0.930 . S
C162 H156 0.930 . S
C162 C163 1.355 . S
C162 C164 1.415 . S
C163 C162 1.355 . S
C163 C165 1.419 . S
C164 C162 1.415 . S
C164 C169 1.425 . S
C164 C171 1.409 . S
C165 H157 0.930 . S
C165 C163 1.419 . S
C165 C166 1.362 . S
C166 H158 0.930 . S
C166 C165 1.362 . S
C166 C169 1.409 . S
C167 H159 0.930 . S
C167 C168 1.355 . S
C167 C169 1.415 . S
C168 C167 1.355 . S
C168 C170 1.419 . S
C169 C164 1.425 . S
C169 C166 1.409 . S
C169 C167 1.415 . S
C170 H160 0.930 . S
C170 C168 1.419 . S
C170 C171 1.362 . S
C171 H161 0.930 . S
C171 C164 1.409 . S
C171 C170 1.362 . S
H172 C178 0.930 . S
H173 C181 0.930 . S
H174 C182 0.917 1_455 S
H175 C183 0.930 . S
H176 C186 0.930 . S
H177 C187 0.917 1_655 S
C178 H172 0.930 . S
C178 C179 1.355 . S
C178 C180 1.415 . S
C179 C178 1.355 . S
C179 C181 1.419 . S
C180 C178 1.415 . S
C180 C185 1.425 1_655 S
C180 C187 1.409 1_655 S
C181 H173 0.930 . S
C181 C179 1.419 . S
C181 C182 1.362 . S
C182 H174 0.917 1_655 S
C182 C181 1.362 . S
C182 C185 1.409 1_655 S
C183 H175 0.930 . S
C183 C184 1.355 . S
C183 C185 1.415 . S
C184 C183 1.355 . S
C184 C186 1.419 . S
C185 C180 1.425 1_455 S
C185 C182 1.409 1_455 S
C185 C183 1.415 . S
C186 H176 0.930 . S
C186 C184 1.419 . S
C186 C187 1.362 . S
C187 H177 0.917 1_455 S
C187 C180 1.409 1_455 S
C187 C186 1.362 . S
H188 C194 0.930 . S
H189 C197 0.930 . S
H190 C198 0.930 . S
H191 C199 0.930 . S
H192 C202 0.930 . S
H193 C203 0.930 . S
C194 H188 0.930 . S
C194 C195 1.355 . S
C194 C196 1.413 1_565 S
C195 C194 1.355 . S
C195 C197 1.419 1_556 S
C196 C194 1.413 1_545 S
C196 C201 1.424 1_546 S
C196 C203 1.411 . S
C197 H189 0.930 . S
C197 C195 1.419 1_554 S
C197 C198 1.362 . S
C198 H190 0.930 . S
C198 C197 1.362 . S
C198 C201 1.411 . S
C199 H191 0.930 . S
C199 C200 1.355 . S
C199 C201 1.413 1_545 S
C200 C199 1.355 . S
C200 C202 1.419 1_554 S
C201 C196 1.424 1_564 S
C201 C198 1.411 . S
C201 C199 1.413 1_565 S
C202 H192 0.930 . S
C202 C200 1.419 1_556 S
C202 C203 1.362 . S
C203 H193 0.930 . S
C203 C196 1.411 . S
C203 C202 1.362 . S
H204 C210 0.930 . S
H205 C213 0.930 . S
H206 C214 0.930 . S
H207 C215 0.930 . S
H208 C218 0.930 . S
H209 C219 0.930 . S
C210 H204 0.930 . S
C210 C211 1.355 . S
C210 C212 1.415 . S
C211 C210 1.355 . S
C211 C213 1.419 . S
C212 C210 1.415 . S
C212 C217 1.425 . S
C212 C219 1.409 . S
C213 H205 0.930 . S
C213 C211 1.419 . S
C213 C214 1.362 . S
C214 H206 0.930 . S
C214 C213 1.362 . S
C214 C217 1.409 . S
C215 H207 0.930 . S
C215 C216 1.355 . S
C215 C217 1.415 . S
C216 C215 1.355 . S
C216 C218 1.419 . S
C217 C212 1.425 . S
C217 C214 1.409 . S
C217 C215 1.415 . S
C218 H208 0.930 . S
C218 C216 1.419 . S
C218 C219 1.362 . S
C219 H209 0.930 . S
C219 C212 1.409 . S
C219 C218 1.362 . S
H220 C226 0.930 . S
H221 C229 0.930 . S
H222 C230 0.930 . S
H223 C231 0.930 . S
H224 C234 0.930 . S
H225 C235 0.930 . S
C226 H220 0.930 . S
C226 C227 1.355 . S
C226 C228 1.415 . S
C227 C226 1.355 . S
C227 C229 1.419 . S
C228 C226 1.415 . S
C228 C233 1.425 1_655 S
C228 C235 1.409 1_655 S
C229 H221 0.930 . S
C229 C227 1.419 . S
C229 C230 1.362 . S
C230 H222 0.930 . S
C230 C229 1.362 . S
C230 C233 1.409 1_655 S
C231 H223 0.930 . S
C231 C232 1.355 . S
C231 C233 1.415 . S
C232 C231 1.355 . S
C232 C234 1.419 . S
C233 C228 1.425 1_455 S
C233 C230 1.409 1_455 S
C233 C231 1.415 . S
C234 H224 0.930 . S
C234 C232 1.419 . S
C234 C235 1.362 . S
C235 H225 0.930 . S
C235 C228 1.409 1_455 S
C235 C234 1.362 . S
H236 C242 0.930 . S
H237 C245 0.930 . S
H238 C246 0.930 1_545 S
H239 C247 0.930 . S
H240 C250 0.930 . S
H241 C251 0.930 1_565 S
C242 H236 0.930 . S
C242 C243 1.355 1_556 S
C242 C244 1.415 . S
C243 C242 1.355 1_554 S
C243 C245 1.419 . S
C244 C242 1.415 . S
C244 C249 1.425 1_566 S
C244 C251 1.409 1_565 S
C245 H237 0.930 . S
C245 C243 1.419 . S
C245 C246 1.362 . S
C246 H238 0.930 1_565 S
C246 C245 1.362 . S
C246 C249 1.409 1_565 S
C247 H239 0.930 . S
C247 C248 1.355 1_554 S
C247 C249 1.415 . S
C248 C247 1.355 1_556 S
C248 C250 1.419 . S
C249 C244 1.425 1_544 S
C249 C246 1.409 1_545 S
C249 C247 1.415 . S
C250 H240 0.930 . S
C250 C248 1.419 . S
C250 C251 1.362 . S
C251 H241 0.930 1_545 S
C251 C244 1.409 1_545 S
C251 C250 1.362 . S
H252 C258 0.930 1_554 S
H253 C261 0.930 . S
H254 C262 0.930 . S
H255 C263 0.930 1_556 S
H256 C266 0.930 . S
H257 C267 0.930 . S
C258 H252 0.930 1_556 S
C258 C259 1.355 . S
C258 C260 1.415 1_556 S
C259 C258 1.355 . S
C259 C261 1.419 . S
C260 C258 1.415 1_554 S
C260 C265 1.425 1_554 S
C260 C267 1.409 . S
C261 H253 0.930 . S
C261 C259 1.419 . S
C261 C262 1.362 . S
C262 H254 0.930 . S
C262 C261 1.362 . S
C262 C265 1.409 . S
C263 H255 0.930 1_554 S
C263 C264 1.355 . S
C263 C265 1.415 1_554 S
C264 C263 1.355 . S
C264 C266 1.419 . S
C265 C260 1.425 1_556 S
C265 C262 1.409 . S
C265 C263 1.415 1_556 S
C266 H256 0.930 . S
C266 C264 1.419 . S
C266 C267 1.362 . S
C267 H257 0.930 . S
C267 C260 1.409 . S
C267 C266 1.362 . S
H268 C274 0.930 . S
H269 C277 0.930 . S
H270 C278 0.930 . S
H271 C279 0.930 . S
H272 C282 0.930 . S
H273 C283 0.930 . S
C274 H268 0.930 . S
C274 C275 1.355 . S
C274 C276 1.415 . S
C275 C274 1.355 . S
C275 C277 1.419 . S
C276 C274 1.415 . S
C276 C281 1.425 . S
C276 C283 1.409 . S
C277 H269 0.930 . S
C277 C275 1.419 . S
C277 C278 1.362 . S
C278 H270 0.930 . S
C278 C277 1.362 . S
C278 C281 1.409 . S
C279 H271 0.930 . S
C279 C280 1.355 . S
C279 C281 1.415 . S
C280 C279 1.355 . S
C280 C282 1.419 . S
C281 C276 1.425 . S
C281 C278 1.409 . S
C281 C279 1.415 . S
C282 H272 0.930 . S
C282 C280 1.419 . S
C282 C283 1.362 . S
C283 H273 0.930 . S
C283 C276 1.409 . S
C283 C282 1.362 . S
H284 C290 0.930 . S
H285 C293 0.930 . S
H286 C294 0.930 . S
H287 C295 0.930 . S
H288 C298 0.930 . S
H289 C299 0.930 . S
C290 H284 0.930 . S
C290 C291 1.355 . S
C290 C292 1.415 . S
C291 C290 1.355 . S
C291 C293 1.419 . S
C292 C290 1.415 . S
C292 C297 1.425 . S
C292 C299 1.409 . S
C293 H285 0.930 . S
C293 C291 1.419 . S
C293 C294 1.362 . S
C294 H286 0.930 . S
C294 C293 1.362 . S
C294 C297 1.409 . S
C295 H287 0.930 . S
C295 C296 1.355 . S
C295 C297 1.415 . S
C296 C295 1.355 . S
C296 C298 1.419 . S
C297 C292 1.425 . S
C297 C294 1.409 . S
C297 C295 1.415 . S
C298 H288 0.930 . S
C298 C296 1.419 . S
C298 C299 1.362 . S
C299 H289 0.930 . S
C299 C292 1.409 . S
C299 C298 1.362 . S
H300 C306 0.930 . S
H301 C309 0.930 . S
H302 C310 0.930 . S
H303 C311 0.930 . S
H304 C314 0.930 . S
H305 C315 0.930 . S
C306 H300 0.930 . S
C306 C307 1.355 . S
C306 C308 1.415 1_554 S
C307 C306 1.355 . S
C307 C309 1.419 . S
C308 C306 1.415 1_556 S
C308 C313 1.425 1_556 S
C308 C315 1.409 . S
C309 H301 0.930 . S
C309 C307 1.419 . S
C309 C310 1.362 . S
C310 H302 0.930 . S
C310 C309 1.362 . S
C310 C313 1.409 . S
C311 H303 0.930 . S
C311 C312 1.355 . S
C311 C313 1.415 1_556 S
C312 C311 1.355 . S
C312 C314 1.419 . S
C313 C308 1.425 1_554 S
C313 C310 1.409 . S
C313 C311 1.415 1_554 S
C314 H304 0.930 . S
C314 C312 1.419 . S
C314 C315 1.362 . S
C315 H305 0.930 . S
C315 C308 1.409 . S
C315 C314 1.362 . S
H316 C322 0.930 . S
H317 C325 0.930 . S
H318 C326 0.930 . S
H319 C327 0.930 . S
H320 C330 0.930 . S
H321 C331 0.930 . S
C322 H316 0.930 . S
C322 C323 1.355 . S
C322 C324 1.415 . S
C323 C322 1.355 . S
C323 C325 1.419 . S
C324 C322 1.415 . S
C324 C329 1.425 . S
C324 C331 1.409 . S
C325 H317 0.930 . S
C325 C323 1.419 . S
C325 C326 1.362 . S
C326 H318 0.930 . S
C326 C325 1.362 . S
C326 C329 1.409 . S
C327 H319 0.930 . S
C327 C328 1.355 . S
C327 C329 1.415 . S
C328 C327 1.355 . S
C328 C330 1.419 . S
C329 C324 1.425 . S
C329 C326 1.409 . S
C329 C327 1.415 . S
C330 H320 0.930 . S
C330 C328 1.419 . S
C330 C331 1.362 . S
C331 H321 0.930 . S
C331 C324 1.409 . S
C331 C330 1.362 . S
H332 C338 0.930 . S
H333 C341 0.930 . S
H334 C342 0.930 . S
H335 C343 0.930 . S
H336 C346 0.930 . S
H337 C347 0.930 . S
C338 H332 0.930 . S
C338 C339 1.355 . S
C338 C340 1.415 . S
C339 C338 1.355 . S
C339 C341 1.419 . S
C340 C338 1.415 . S
C340 C345 1.425 . S
C340 C347 1.409 . S
C341 H333 0.930 . S
C341 C339 1.419 . S
C341 C342 1.362 . S
C342 H334 0.930 . S
C342 C341 1.362 . S
C342 C345 1.409 . S
C343 H335 0.930 . S
C343 C344 1.355 . S
C343 C345 1.415 . S
C344 C343 1.355 . S
C344 C346 1.419 . S
C345 C340 1.425 . S
C345 C342 1.409 . S
C345 C343 1.415 . S
C346 H336 0.930 . S
C346 C344 1.419 . S
C346 C347 1.362 . S
C347 H337 0.930 . S
C347 C340 1.409 . S
C347 C346 1.362 . S
H348 C354 0.930 . S
H349 C357 0.930 . S
H350 C358 0.930 . S
H351 C359 0.930 . S
H352 C362 0.930 . S
H353 C363 0.930 . S
C354 H348 0.930 . S
C354 C355 1.355 . S
C354 C356 1.415 . S
C355 C354 1.355 . S
C355 C357 1.419 . S
C356 C354 1.415 . S
C356 C361 1.425 . S
C356 C363 1.409 . S
C357 H349 0.930 . S
C357 C355 1.419 . S
C357 C358 1.362 . S
C358 H350 0.930 . S
C358 C357 1.362 . S
C358 C361 1.409 . S
C359 H351 0.930 . S
C359 C360 1.355 . S
C359 C361 1.415 . S
C360 C359 1.355 . S
C360 C362 1.419 . S
C361 C356 1.425 . S
C361 C358 1.409 . S
C361 C359 1.415 . S
C362 H352 0.930 . S
C362 C360 1.419 . S
C362 C363 1.362 . S
C363 H353 0.930 . S
C363 C356 1.409 . S
C363 C362 1.362 . S
H364 C370 0.930 . S
H365 C373 0.930 . S
H366 C374 0.930 . S
H367 C375 0.930 . S
H368 C378 0.930 . S
H369 C379 0.930 . S
C370 H364 0.930 . S
C370 C371 1.355 . S
C370 C372 1.415 . S
C371 C370 1.355 . S
C371 C373 1.419 . S
C372 C370 1.415 . S
C372 C377 1.425 . S
C372 C379 1.409 . S
C373 H365 0.930 . S
C373 C371 1.419 . S
C373 C374 1.362 . S
C374 H366 0.930 . S
C374 C373 1.362 . S
C374 C377 1.409 . S
C375 H367 0.930 . S
C375 C376 1.355 . S
C375 C377 1.415 . S
C376 C375 1.355 . S
C376 C378 1.419 . S
C377 C372 1.425 . S
C377 C374 1.409 . S
C377 C375 1.415 . S
C378 H368 0.930 . S
C378 C376 1.419 . S
C378 C379 1.362 . S
C379 H369 0.930 . S
C379 C372 1.409 . S
C379 C378 1.362 . S
H380 C386 0.930 . S
H381 C389 0.930 . S
H382 C390 0.930 . S
H383 C391 0.930 . S
H384 C394 0.930 . S
H385 C395 0.930 . S
C386 H380 0.930 . S
C386 C387 1.355 . S
C386 C388 1.415 . S
C387 C386 1.355 . S
C387 C389 1.419 . S
C388 C386 1.415 . S
C388 C393 1.425 . S
C388 C395 1.409 . S
C389 H381 0.930 . S
C389 C387 1.419 . S
C389 C390 1.362 . S
C390 H382 0.930 . S
C390 C389 1.362 . S
C390 C393 1.409 . S
C391 H383 0.930 . S
C391 C392 1.355 . S
C391 C393 1.415 . S
C392 C391 1.355 . S
C392 C394 1.419 . S
C393 C388 1.425 . S
C393 C390 1.409 . S
C393 C391 1.415 . S
C394 H384 0.930 . S
C394 C392 1.419 . S
C394 C395 1.362 . S
C395 H385 0.930 . S
C395 C388 1.409 . S
C395 C394 1.362 . S
H396 C402 0.930 . S
H397 C405 0.930 . S
H398 C406 0.930 . S
H399 C407 0.930 . S
H400 C410 0.930 . S
H401 C411 0.930 . S
C402 H396 0.930 . S
C402 C403 1.355 . S
C402 C404 1.415 . S
C403 C402 1.355 . S
C403 C405 1.419 . S
C404 C402 1.415 . S
C404 C409 1.425 . S
C404 C411 1.409 . S
C405 H397 0.930 . S
C405 C403 1.419 . S
C405 C406 1.362 . S
C406 H398 0.930 . S
C406 C405 1.362 . S
C406 C409 1.409 . S
C407 H399 0.930 . S
C407 C408 1.355 . S
C407 C409 1.415 . S
C408 C407 1.355 . S
C408 C410 1.419 . S
C409 C404 1.425 . S
C409 C406 1.409 . S
C409 C407 1.415 . S
C410 H400 0.930 . S
C410 C408 1.419 . S
C410 C411 1.362 . S
C411 H401 0.930 . S
C411 C404 1.409 . S
C411 C410 1.362 . S
H412 C418 0.930 . S
H413 C421 0.930 . S
H414 C422 0.930 . S
H415 C423 0.930 . S
H416 C426 0.930 . S
H417 C427 0.930 . S
C418 H412 0.930 . S
C418 C419 1.355 . S
C418 C420 1.415 . S
C419 C418 1.355 . S
C419 C421 1.419 . S
C420 C418 1.415 . S
C420 C425 1.425 . S
C420 C427 1.409 . S
C421 H413 0.930 . S
C421 C419 1.419 . S
C421 C422 1.362 . S
C422 H414 0.930 . S
C422 C421 1.362 . S
C422 C425 1.409 . S
C423 H415 0.930 . S
C423 C424 1.355 . S
C423 C425 1.415 . S
C424 C423 1.355 . S
C424 C426 1.419 . S
C425 C420 1.425 . S
C425 C422 1.409 . S
C425 C423 1.415 . S
C426 H416 0.930 . S
C426 C424 1.419 . S
C426 C427 1.362 . S
C427 H417 0.930 . S
C427 C420 1.409 . S
C427 C426 1.362 . S
H428 C434 0.930 . S
H429 C437 0.930 . S
H430 C438 0.930 . S
H431 C439 0.930 . S
H432 C442 0.930 . S
H433 C443 0.930 . S
C434 H428 0.930 . S
C434 C435 1.355 . S
C434 C436 1.415 . S
C435 C434 1.355 . S
C435 C437 1.419 . S
C436 C434 1.415 . S
C436 C441 1.425 . S
C436 C443 1.409 . S
C437 H429 0.930 . S
C437 C435 1.419 . S
C437 C438 1.362 . S
C438 H430 0.930 . S
C438 C437 1.362 . S
C438 C441 1.409 . S
C439 H431 0.930 . S
C439 C440 1.355 . S
C439 C441 1.415 . S
C440 C439 1.355 . S
C440 C442 1.419 . S
C441 C436 1.425 . S
C441 C438 1.409 . S
C441 C439 1.415 . S
C442 H432 0.930 . S
C442 C440 1.419 . S
C442 C443 1.362 . S
C443 H433 0.930 . S
C443 C436 1.409 . S
C443 C442 1.362 . S
H444 C450 0.930 . S
H445 C453 0.930 . S
H446 C454 0.930 . S
H447 C455 0.930 . S
H448 C458 0.930 . S
H449 C459 0.930 . S
C450 H444 0.930 . S
C450 C451 1.355 . S
C450 C452 1.415 . S
C451 C450 1.355 . S
C451 C453 1.419 . S
C452 C450 1.415 . S
C452 C457 1.425 . S
C452 C459 1.409 . S
C453 H445 0.930 . S
C453 C451 1.419 . S
C453 C454 1.362 . S
C454 H446 0.930 . S
C454 C453 1.362 . S
C454 C457 1.409 . S
C455 H447 0.930 . S
C455 C456 1.355 . S
C455 C457 1.415 . S
C456 C455 1.355 . S
C456 C458 1.419 . S
C457 C452 1.425 . S
C457 C454 1.409 . S
C457 C455 1.415 . S
C458 H448 0.930 . S
C458 C456 1.419 . S
C458 C459 1.362 . S
C459 H449 0.930 . S
C459 C452 1.409 . S
C459 C458 1.362 . S
H460 C466 0.930 . S
H461 C469 0.930 . S
H462 C470 0.930 . S
H463 C471 0.930 . S
H464 C474 0.930 . S
H465 C475 0.930 . S
C466 H460 0.930 . S
C466 C467 1.355 . S
C466 C468 1.415 . S
C467 C466 1.355 . S
C467 C469 1.419 . S
C468 C466 1.415 . S
C468 C473 1.425 . S
C468 C475 1.409 . S
C469 H461 0.930 . S
C469 C467 1.419 . S
C469 C470 1.362 . S
C470 H462 0.930 . S
C470 C469 1.362 . S
C470 C473 1.409 . S
C471 H463 0.930 . S
C471 C472 1.355 . S
C471 C473 1.415 . S
C472 C471 1.355 . S
C472 C474 1.419 . S
C473 C468 1.425 . S
C473 C470 1.409 . S
C473 C471 1.415 . S
C474 H464 0.930 . S
C474 C472 1.419 . S
C474 C475 1.362 . S
C475 H465 0.930 . S
C475 C468 1.409 . S
C475 C474 1.362 . S
H476 C482 0.930 . S
H477 C485 0.930 . S
H478 C486 0.930 . S
H479 C487 0.930 . S
H480 C490 0.930 . S
H481 C491 0.930 . S
C482 H476 0.930 . S
C482 C483 1.355 1_554 S
C482 C484 1.415 . S
C483 C482 1.355 1_556 S
C483 C485 1.419 . S
C484 C482 1.415 . S
C484 C489 1.425 1_554 S
C484 C491 1.409 . S
C485 H477 0.930 . S
C485 C483 1.419 . S
C485 C486 1.362 . S
C486 H478 0.930 . S
C486 C485 1.362 . S
C486 C489 1.409 . S
C487 H479 0.930 . S
C487 C488 1.355 1_556 S
C487 C489 1.415 . S
C488 C487 1.355 1_554 S
C488 C490 1.419 . S
C489 C484 1.425 1_556 S
C489 C486 1.409 . S
C489 C487 1.415 . S
C490 H480 0.930 . S
C490 C488 1.419 . S
C490 C491 1.362 . S
C491 H481 0.930 . S
C491 C484 1.409 . S
C491 C490 1.362 . S
H492 C498 0.930 . S
H493 C501 0.930 . S
H494 C502 0.930 . S
H495 C503 0.930 . S
H496 C506 0.930 . S
H497 C507 0.930 . S
C498 H492 0.930 . S
C498 C499 1.355 . S
C498 C500 1.415 . S
C499 C498 1.355 . S
C499 C501 1.419 . S
C500 C498 1.415 . S
C500 C505 1.425 . S
C500 C507 1.409 . S
C501 H493 0.930 . S
C501 C499 1.419 . S
C501 C502 1.362 . S
C502 H494 0.930 . S
C502 C501 1.362 . S
C502 C505 1.409 . S
C503 H495 0.930 . S
C503 C504 1.355 . S
C503 C505 1.415 . S
C504 C503 1.355 . S
C504 C506 1.419 . S
C505 C500 1.425 . S
C505 C502 1.409 . S
C505 C503 1.415 . S
C506 H496 0.930 . S
C506 C504 1.419 . S
C506 C507 1.362 . S
C507 H497 0.930 . S
C507 C500 1.409 . S
C507 C506 1.362 . S
H508 C514 0.930 . S
H509 C517 0.930 . S
H510 C518 0.930 . S
H511 C519 0.930 . S
H512 C522 0.930 . S
H513 C523 0.930 . S
C514 H508 0.930 . S
C514 C515 1.355 . S
C514 C516 1.415 . S
C515 C514 1.355 . S
C515 C517 1.419 . S
C516 C514 1.415 . S
C516 C521 1.425 . S
C516 C523 1.409 . S
C517 H509 0.930 . S
C517 C515 1.419 . S
C517 C518 1.362 . S
C518 H510 0.930 . S
C518 C517 1.362 . S
C518 C521 1.409 . S
C519 H511 0.930 . S
C519 C520 1.355 . S
C519 C521 1.415 . S
C520 C519 1.355 . S
C520 C522 1.419 . S
C521 C516 1.425 . S
C521 C518 1.409 . S
C521 C519 1.415 . S
C522 H512 0.930 . S
C522 C520 1.419 . S
C522 C523 1.362 . S
C523 H513 0.930 . S
C523 C516 1.409 . S
C523 C522 1.362 . S
H524 C530 0.930 . S
H525 C533 0.930 . S
H526 C534 0.930 . S
H527 C535 0.930 . S
H528 C538 0.930 . S
H529 C539 0.930 . S
C530 H524 0.930 . S
C530 C531 1.355 . S
C530 C532 1.415 . S
C531 C530 1.355 . S
C531 C533 1.419 1_554 S
C532 C530 1.415 . S
C532 C537 1.425 1_554 S
C532 C539 1.409 . S
C533 H525 0.930 . S
C533 C531 1.419 1_556 S
C533 C534 1.362 . S
C534 H526 0.930 . S
C534 C533 1.362 . S
C534 C537 1.409 . S
C535 H527 0.930 . S
C535 C536 1.355 . S
C535 C537 1.415 . S
C536 C535 1.355 . S
C536 C538 1.419 1_556 S
C537 C532 1.425 1_556 S
C537 C534 1.409 . S
C537 C535 1.415 . S
C538 H528 0.930 . S
C538 C536 1.419 1_554 S
C538 C539 1.362 . S
C539 H529 0.930 . S
C539 C532 1.409 . S
C539 C538 1.362 . S
C163 C3 1.426 . S
C168 C122 1.414 . S
C179 C16 1.454 . S
C184 C135 1.445 . S
C195 C29 1.414 . S
C200 C148 1.405 . S
C211 C42 1.440 . S
C216 C81 1.428 . S
C227 C94 1.423 . S
C232 C57 1.436 . S
C243 C109 1.460 . S
C248 C68 1.458 . S
C259 C140 1.799 . S
C264 C4 1.817 . S
C275 C17 1.838 . S
C280 C153 1.822 . S
C291 C30 1.817 . S
C296 C82 1.799 . S
C307 C43 1.815 . S
C312 C95 1.799 . S
C323 C62 1.837 . S
C328 C114 1.824 . S
C339 C69 1.804 . S
C344 C127 1.807 . S
C355 C134 1.055 . S
C360 C10 1.057 . S
C371 C23 1.051 . S
C376 C147 1.048 . S
C387 C36 1.057 . S
C392 C88 1.052 . S
C403 C49 1.057 . S
C408 C101 1.056 . S
C419 C56 1.050 . S
C424 C108 1.048 . S
C435 C75 1.048 . S
C440 C121 1.054 . S
C451 C5 1.708 . S
C456 C83 1.703 . S
C467 C96 1.697 . S
C472 C18 1.705 . S
C483 C31 1.698 . S
C488 C107 1.690 . S
C499 C44 1.692 . S
C504 C120 1.689 . S
C515 C55 1.694 . S
C520 C133 1.703 . S
C531 C146 1.707 . S
C536 C70 1.701 . S
