# Generated by pormake.
# Topology wnd, (6)-cn, num edge types: 1
# Building blocks:
#     Node 0, Type 0, BuildingBlock: GEDQOX_clean_sbu_0, # of connection points: 6
#     Node 1, Type 0, BuildingBlock: GEDQOX_clean_sbu_0, # of connection points: 6
#     Node 2, Type 0, BuildingBlock: GEDQOX_clean_sbu_0, # of connection points: 6
#     Node 3, Type 0, BuildingBlock: GEDQOX_clean_sbu_0, # of connection points: 6
#     Node 4, Type 0, BuildingBlock: GEDQOX_clean_sbu_0, # of connection points: 6
#     Node 5, Type 0, BuildingBlock: GEDQOX_clean_sbu_0, # of connection points: 6
#     Node 6, Type 0, BuildingBlock: GEDQOX_clean_sbu_0, # of connection points: 6
#     Node 7, Type 0, BuildingBlock: GEDQOX_clean_sbu_0, # of connection points: 6
#     Node 8, Type 0, BuildingBlock: GEDQOX_clean_sbu_0, # of connection points: 6
#     Node 9, Type 0, BuildingBlock: GEDQOX_clean_sbu_0, # of connection points: 6
#     Node 10, Type 0, BuildingBlock: GEDQOX_clean_sbu_0, # of connection points: 6
#     Node 11, Type 0, BuildingBlock: GEDQOX_clean_sbu_0, # of connection points: 6
#     Node 12, Type 0, BuildingBlock: GEDQOX_clean_sbu_0, # of connection points: 6
#     Node 13, Type 0, BuildingBlock: GEDQOX_clean_sbu_0, # of connection points: 6
#     Node 14, Type 0, BuildingBlock: GEDQOX_clean_sbu_0, # of connection points: 6
#     Node 15, Type 0, BuildingBlock: GEDQOX_clean_sbu_0, # of connection points: 6
#     Node 16, Type 0, BuildingBlock: GEDQOX_clean_sbu_0, # of connection points: 6
#     Node 17, Type 0, BuildingBlock: GEDQOX_clean_sbu_0, # of connection points: 6
#     Node 18, Type 0, BuildingBlock: GEDQOX_clean_sbu_0, # of connection points: 6
#     Node 19, Type 0, BuildingBlock: GEDQOX_clean_sbu_0, # of connection points: 6
#     Node 20, Type 0, BuildingBlock: GEDQOX_clean_sbu_0, # of connection points: 6
#     Node 21, Type 0, BuildingBlock: GEDQOX_clean_sbu_0, # of connection points: 6
#     Node 22, Type 0, BuildingBlock: GEDQOX_clean_sbu_0, # of connection points: 6
#     Node 23, Type 0, BuildingBlock: GEDQOX_clean_sbu_0, # of connection points: 6
#     Node 24, Type 0, BuildingBlock: GEDQOX_clean_sbu_0, # of connection points: 6
#     Node 25, Type 0, BuildingBlock: GEDQOX_clean_sbu_0, # of connection points: 6
#     Node 26, Type 0, BuildingBlock: GEDQOX_clean_sbu_0, # of connection points: 6
#     Node 27, Type 0, BuildingBlock: GEDQOX_clean_sbu_0, # of connection points: 6
#     Node 28, Type 0, BuildingBlock: GEDQOX_clean_sbu_0, # of connection points: 6
#     Node 29, Type 0, BuildingBlock: GEDQOX_clean_sbu_0, # of connection points: 6
#     Node 30, Type 0, BuildingBlock: GEDQOX_clean_sbu_0, # of connection points: 6
#     Node 31, Type 0, BuildingBlock: GEDQOX_clean_sbu_0, # of connection points: 6
#     Node 32, Type 0, BuildingBlock: GEDQOX_clean_sbu_0, # of connection points: 6
#     Node 33, Type 0, BuildingBlock: GEDQOX_clean_sbu_0, # of connection points: 6
#     Node 34, Type 0, BuildingBlock: GEDQOX_clean_sbu_0, # of connection points: 6
#     Node 35, Type 0, BuildingBlock: GEDQOX_clean_sbu_0, # of connection points: 6
#     Edge 36, Type (0, 0), BuildingBlock: TEMPAE_clean_linker_10, # of connection points: 2
#     Edge 37, Type (0, 0), BuildingBlock: TEMPAE_clean_linker_10, # of connection points: 2
#     Edge 38, Type (0, 0), BuildingBlock: TEMPAE_clean_linker_10, # of connection points: 2
#     Edge 39, Type (0, 0), BuildingBlock: TEMPAE_clean_linker_10, # of connection points: 2
#     Edge 40, Type (0, 0), BuildingBlock: TEMPAE_clean_linker_10, # of connection points: 2
#     Edge 41, Type (0, 0), BuildingBlock: TEMPAE_clean_linker_10, # of connection points: 2
#     Edge 42, Type (0, 0), BuildingBlock: TEMPAE_clean_linker_10, # of connection points: 2
#     Edge 43, Type (0, 0), BuildingBlock: TEMPAE_clean_linker_10, # of connection points: 2
#     Edge 44, Type (0, 0), BuildingBlock: TEMPAE_clean_linker_10, # of connection points: 2
#     Edge 45, Type (0, 0), BuildingBlock: TEMPAE_clean_linker_10, # of connection points: 2
#     Edge 46, Type (0, 0), BuildingBlock: TEMPAE_clean_linker_10, # of connection points: 2
#     Edge 47, Type (0, 0), BuildingBlock: TEMPAE_clean_linker_10, # of connection points: 2
#     Edge 48, Type (0, 0), BuildingBlock: TEMPAE_clean_linker_10, # of connection points: 2
#     Edge 49, Type (0, 0), BuildingBlock: TEMPAE_clean_linker_10, # of connection points: 2
#     Edge 50, Type (0, 0), BuildingBlock: TEMPAE_clean_linker_10, # of connection points: 2
#     Edge 51, Type (0, 0), BuildingBlock: TEMPAE_clean_linker_10, # of connection points: 2
#     Edge 52, Type (0, 0), BuildingBlock: TEMPAE_clean_linker_10, # of connection points: 2
#     Edge 53, Type (0, 0), BuildingBlock: TEMPAE_clean_linker_10, # of connection points: 2
#     Edge 54, Type (0, 0), BuildingBlock: TEMPAE_clean_linker_10, # of connection points: 2
#     Edge 55, Type (0, 0), BuildingBlock: TEMPAE_clean_linker_10, # of connection points: 2
#     Edge 56, Type (0, 0), BuildingBlock: TEMPAE_clean_linker_10, # of connection points: 2
#     Edge 57, Type (0, 0), BuildingBlock: TEMPAE_clean_linker_10, # of connection points: 2
#     Edge 58, Type (0, 0), BuildingBlock: TEMPAE_clean_linker_10, # of connection points: 2
#     Edge 59, Type (0, 0), BuildingBlock: TEMPAE_clean_linker_10, # of connection points: 2
#     Edge 60, Type (0, 0), BuildingBlock: TEMPAE_clean_linker_10, # of connection points: 2
#     Edge 61, Type (0, 0), BuildingBlock: TEMPAE_clean_linker_10, # of connection points: 2
#     Edge 62, Type (0, 0), BuildingBlock: TEMPAE_clean_linker_10, # of connection points: 2
#     Edge 63, Type (0, 0), BuildingBlock: TEMPAE_clean_linker_10, # of connection points: 2
#     Edge 64, Type (0, 0), BuildingBlock: TEMPAE_clean_linker_10, # of connection points: 2
#     Edge 65, Type (0, 0), BuildingBlock: TEMPAE_clean_linker_10, # of connection points: 2
#     Edge 66, Type (0, 0), BuildingBlock: TEMPAE_clean_linker_10, # of connection points: 2
#     Edge 67, Type (0, 0), BuildingBlock: TEMPAE_clean_linker_10, # of connection points: 2
#     Edge 68, Type (0, 0), BuildingBlock: TEMPAE_clean_linker_10, # of connection points: 2
#     Edge 69, Type (0, 0), BuildingBlock: TEMPAE_clean_linker_10, # of connection points: 2
#     Edge 70, Type (0, 0), BuildingBlock: TEMPAE_clean_linker_10, # of connection points: 2
#     Edge 71, Type (0, 0), BuildingBlock: TEMPAE_clean_linker_10, # of connection points: 2
#     Edge 72, Type (0, 0), BuildingBlock: TEMPAE_clean_linker_10, # of connection points: 2
#     Edge 73, Type (0, 0), BuildingBlock: TEMPAE_clean_linker_10, # of connection points: 2
#     Edge 74, Type (0, 0), BuildingBlock: TEMPAE_clean_linker_10, # of connection points: 2
#     Edge 75, Type (0, 0), BuildingBlock: TEMPAE_clean_linker_10, # of connection points: 2
#     Edge 76, Type (0, 0), BuildingBlock: TEMPAE_clean_linker_10, # of connection points: 2
#     Edge 77, Type (0, 0), BuildingBlock: TEMPAE_clean_linker_10, # of connection points: 2
#     Edge 78, Type (0, 0), BuildingBlock: TEMPAE_clean_linker_10, # of connection points: 2
#     Edge 79, Type (0, 0), BuildingBlock: TEMPAE_clean_linker_10, # of connection points: 2
#     Edge 80, Type (0, 0), BuildingBlock: TEMPAE_clean_linker_10, # of connection points: 2
#     Edge 81, Type (0, 0), BuildingBlock: TEMPAE_clean_linker_10, # of connection points: 2
#     Edge 82, Type (0, 0), BuildingBlock: TEMPAE_clean_linker_10, # of connection points: 2
#     Edge 83, Type (0, 0), BuildingBlock: TEMPAE_clean_linker_10, # of connection points: 2
#     Edge 84, Type (0, 0), BuildingBlock: TEMPAE_clean_linker_10, # of connection points: 2
#     Edge 85, Type (0, 0), BuildingBlock: TEMPAE_clean_linker_10, # of connection points: 2
#     Edge 86, Type (0, 0), BuildingBlock: TEMPAE_clean_linker_10, # of connection points: 2
#     Edge 87, Type (0, 0), BuildingBlock: TEMPAE_clean_linker_10, # of connection points: 2
#     Edge 88, Type (0, 0), BuildingBlock: TEMPAE_clean_linker_10, # of connection points: 2
#     Edge 89, Type (0, 0), BuildingBlock: TEMPAE_clean_linker_10, # of connection points: 2
#     Edge 90, Type (0, 0), BuildingBlock: TEMPAE_clean_linker_10, # of connection points: 2
#     Edge 91, Type (0, 0), BuildingBlock: TEMPAE_clean_linker_10, # of connection points: 2
#     Edge 92, Type (0, 0), BuildingBlock: TEMPAE_clean_linker_10, # of connection points: 2
#     Edge 93, Type (0, 0), BuildingBlock: TEMPAE_clean_linker_10, # of connection points: 2
#     Edge 94, Type (0, 0), BuildingBlock: TEMPAE_clean_linker_10, # of connection points: 2
#     Edge 95, Type (0, 0), BuildingBlock: TEMPAE_clean_linker_10, # of connection points: 2
#     Edge 96, Type (0, 0), BuildingBlock: TEMPAE_clean_linker_10, # of connection points: 2
#     Edge 97, Type (0, 0), BuildingBlock: TEMPAE_clean_linker_10, # of connection points: 2
#     Edge 98, Type (0, 0), BuildingBlock: TEMPAE_clean_linker_10, # of connection points: 2
#     Edge 99, Type (0, 0), BuildingBlock: TEMPAE_clean_linker_10, # of connection points: 2
#     Edge 100, Type (0, 0), BuildingBlock: TEMPAE_clean_linker_10, # of connection points: 2
#     Edge 101, Type (0, 0), BuildingBlock: TEMPAE_clean_linker_10, # of connection points: 2
#     Edge 102, Type (0, 0), BuildingBlock: TEMPAE_clean_linker_10, # of connection points: 2
#     Edge 103, Type (0, 0), BuildingBlock: TEMPAE_clean_linker_10, # of connection points: 2
#     Edge 104, Type (0, 0), BuildingBlock: TEMPAE_clean_linker_10, # of connection points: 2
#     Edge 105, Type (0, 0), BuildingBlock: TEMPAE_clean_linker_10, # of connection points: 2
#     Edge 106, Type (0, 0), BuildingBlock: TEMPAE_clean_linker_10, # of connection points: 2
#     Edge 107, Type (0, 0), BuildingBlock: TEMPAE_clean_linker_10, # of connection points: 2
#     Edge 108, Type (0, 0), BuildingBlock: TEMPAE_clean_linker_10, # of connection points: 2
#     Edge 109, Type (0, 0), BuildingBlock: TEMPAE_clean_linker_10, # of connection points: 2
#     Edge 110, Type (0, 0), BuildingBlock: TEMPAE_clean_linker_10, # of connection points: 2
#     Edge 111, Type (0, 0), BuildingBlock: TEMPAE_clean_linker_10, # of connection points: 2
#     Edge 112, Type (0, 0), BuildingBlock: TEMPAE_clean_linker_10, # of connection points: 2
#     Edge 113, Type (0, 0), BuildingBlock: TEMPAE_clean_linker_10, # of connection points: 2
#     Edge 114, Type (0, 0), BuildingBlock: TEMPAE_clean_linker_10, # of connection points: 2
#     Edge 115, Type (0, 0), BuildingBlock: TEMPAE_clean_linker_10, # of connection points: 2
#     Edge 116, Type (0, 0), BuildingBlock: TEMPAE_clean_linker_10, # of connection points: 2
#     Edge 117, Type (0, 0), BuildingBlock: TEMPAE_clean_linker_10, # of connection points: 2
#     Edge 118, Type (0, 0), BuildingBlock: TEMPAE_clean_linker_10, # of connection points: 2
#     Edge 119, Type (0, 0), BuildingBlock: TEMPAE_clean_linker_10, # of connection points: 2
#     Edge 120, Type (0, 0), BuildingBlock: TEMPAE_clean_linker_10, # of connection points: 2
#     Edge 121, Type (0, 0), BuildingBlock: TEMPAE_clean_linker_10, # of connection points: 2
#     Edge 122, Type (0, 0), BuildingBlock: TEMPAE_clean_linker_10, # of connection points: 2
#     Edge 123, Type (0, 0), BuildingBlock: TEMPAE_clean_linker_10, # of connection points: 2
#     Edge 124, Type (0, 0), BuildingBlock: TEMPAE_clean_linker_10, # of connection points: 2
#     Edge 125, Type (0, 0), BuildingBlock: TEMPAE_clean_linker_10, # of connection points: 2
#     Edge 126, Type (0, 0), BuildingBlock: TEMPAE_clean_linker_10, # of connection points: 2
#     Edge 127, Type (0, 0), BuildingBlock: TEMPAE_clean_linker_10, # of connection points: 2
#     Edge 128, Type (0, 0), BuildingBlock: TEMPAE_clean_linker_10, # of connection points: 2
#     Edge 129, Type (0, 0), BuildingBlock: TEMPAE_clean_linker_10, # of connection points: 2
#     Edge 130, Type (0, 0), BuildingBlock: TEMPAE_clean_linker_10, # of connection points: 2
#     Edge 131, Type (0, 0), BuildingBlock: TEMPAE_clean_linker_10, # of connection points: 2
#     Edge 132, Type (0, 0), BuildingBlock: TEMPAE_clean_linker_10, # of connection points: 2
#     Edge 133, Type (0, 0), BuildingBlock: TEMPAE_clean_linker_10, # of connection points: 2
#     Edge 134, Type (0, 0), BuildingBlock: TEMPAE_clean_linker_10, # of connection points: 2
#     Edge 135, Type (0, 0), BuildingBlock: TEMPAE_clean_linker_10, # of connection points: 2
#     Edge 136, Type (0, 0), BuildingBlock: TEMPAE_clean_linker_10, # of connection points: 2
#     Edge 137, Type (0, 0), BuildingBlock: TEMPAE_clean_linker_10, # of connection points: 2
#     Edge 138, Type (0, 0), BuildingBlock: TEMPAE_clean_linker_10, # of connection points: 2
#     Edge 139, Type (0, 0), BuildingBlock: TEMPAE_clean_linker_10, # of connection points: 2
#     Edge 140, Type (0, 0), BuildingBlock: TEMPAE_clean_linker_10, # of connection points: 2
#     Edge 141, Type (0, 0), BuildingBlock: TEMPAE_clean_linker_10, # of connection points: 2
#     Edge 142, Type (0, 0), BuildingBlock: TEMPAE_clean_linker_10, # of connection points: 2
#     Edge 143, Type (0, 0), BuildingBlock: TEMPAE_clean_linker_10, # of connection points: 2
# Relax obj value: 0.096
# Max RMSD: 0.206
# Mean RMSD: 0.206
data_MOF--net-wnd--node1-GEDQOX_clean_sbu_0--edge1-TEMPAE_clean_linker_10
_symmetry_space_group_name_H-M    P1
_symmetry_Int_Tables_number       1
_symmetry_cell_setting            triclinic
loop_
_symmetry_equiv_pos_as_xyz
'x, y, z'
_cell_length_a     41.04419
_cell_length_b     41.030995
_cell_length_c     157.35308
_cell_angle_alpha  89.956265
_cell_angle_beta   90.029793
_cell_angle_gamma 119.90241
loop_
_atom_site_label
_atom_site_type_symbol
_atom_site_fract_x
_atom_site_fract_y
_atom_site_fract_z
_atom_type_partial_charge
Nd0 Nd 0.54108 0.05596 0.06616 0.0
Nd1 Nd 0.45696 1.0036 0.0609 0.0
C2 C 0.6041 0.1043 0.07393 0.0
C3 C 0.64172 0.13538 0.07146 0.0
C4 C 0.6569 0.17002 0.07568 0.0
C5 C 0.69271 0.19952 0.07358 0.0
C6 C 0.71438 0.19503 0.06723 0.0
C7 C 0.69886 0.16034 0.06295 0.0
C8 C 0.66292 0.13091 0.06502 0.0
C9 C 0.53887 0.04046 0.04897 0.0
C10 C 0.49439 0.09224 0.05669 0.0
C11 C 0.38784 0.9483 0.05754 0.0
C12 C 0.36409 0.90678 0.05719 0.0
C13 C 0.37538 0.88319 0.0611 0.0
C14 C 0.3498 0.84463 0.06215 0.0
C15 C 0.31222 0.82878 0.05938 0.0
C16 C 0.30161 0.85244 0.05518 0.0
C17 C 0.32721 0.89088 0.05411 0.0
C18 C 0.46787 0.04557 0.07527 0.0
C19 C 0.5097 0.96636 0.06655 0.0
O20 O 0.5757 0.11012 0.07296 0.0
O21 O 0.59594 0.07017 0.07183 0.0
O22 O 0.56946 0.06228 0.05308 0.0
O23 O 0.51135 0.02854 0.05397 0.0
O24 O 0.52211 0.09717 0.0618 0.0
O25 O 0.46716 0.05834 0.05432 0.0
O26 O 0.41284 0.96611 0.05154 0.0
O27 O 0.39994 0.96221 0.0651 0.0
O28 O 0.44312 0.03919 0.06946 0.0
O29 O 0.48624 0.02872 0.07364 0.0
O30 O 0.4793 0.96232 0.06269 0.0
O31 O 0.53532 0.99906 0.06967 0.0
H32 H 0.64104 0.17426 0.08063 0.0
H33 H 0.70329 0.22599 0.07691 0.0
H34 H 0.71474 0.15563 0.05809 0.0
H35 H 0.65191 0.10456 0.06162 0.0
H36 H 0.40355 0.89484 0.06363 0.0
H37 H 0.35934 0.82738 0.06528 0.0
H38 H 0.27297 0.84169 0.05305 0.0
H39 H 0.31761 0.90858 0.05121 0.0
Nd40 Nd 1.01533 0.50862 0.06691 0.0
Nd41 Nd 0.0592 0.47265 0.06147 0.0
C42 C 0.96759 0.52878 0.07315 0.0
C43 C 0.93494 0.53301 0.07084 0.0
C44 C 0.91455 0.53831 0.07731 0.0
C45 C 0.8852 0.54514 0.07534 0.0
C46 C 0.87543 0.54681 0.06683 0.0
C47 C 0.89576 0.54104 0.06035 0.0
C48 C 0.92521 0.53421 0.06233 0.0
C49 C 0.03771 0.52237 0.05 0.0
C50 C 0.96982 0.42254 0.0591 0.0
C51 C 0.11173 0.4577 0.05592 0.0
C52 C 0.15253 0.47108 0.05733 0.0
C53 C 0.1781 0.48566 0.05053 0.0
C54 C 0.21602 0.49591 0.05164 0.0
C55 C 0.2295 0.49167 0.05958 0.0
C56 C 0.20388 0.47755 0.0664 0.0
C57 C 0.16605 0.46747 0.0653 0.0
C58 C 0.0263 0.44715 0.07697 0.0
C59 C 0.10331 0.55982 0.0688 0.0
O60 O 0.96246 0.4948 0.07383 0.0
O61 O 0.99955 0.55197 0.06957 0.0
O62 O 0.03782 0.54709 0.05511 0.0
O63 O 0.02519 0.49136 0.05376 0.0
O64 O 0.96866 0.44854 0.06382 0.0
O65 O 1.00205 0.42705 0.05612 0.0
O66 O 0.10246 0.47969 0.05184 0.0
O67 O 0.08889 0.44012 0.06221 0.0
O68 O 0.03034 0.42707 0.07121 0.0
O69 O 0.04222 0.48189 0.07485 0.0
O70 O 0.10425 0.53474 0.06374 0.0
O71 O 0.07171 0.55249 0.07252 0.0
H72 H 0.92181 0.53787 0.08391 0.0
H73 H 0.87071 0.54996 0.08051 0.0
H74 H 0.88881 0.54164 0.05373 0.0
H75 H 0.94066 0.53029 0.05723 0.0
H76 H 0.16864 0.48873 0.04431 0.0
H77 H 0.2348 0.50722 0.04625 0.0
H78 H 0.21275 0.4733 0.07259 0.0
H79 H 0.14729 0.45619 0.0707 0.0
Nd80 Nd 0.56279 0.52146 0.06429 0.0
Nd81 Nd 0.59079 0.61016 0.05874 0.0
C82 C 0.54578 0.4576 0.07206 0.0
C83 C 0.53834 0.41973 0.0696 0.0
C84 C 0.52016 0.38972 0.07531 0.0
C85 C 0.51228 0.35349 0.07304 0.0
C86 C 0.52242 0.3464 0.06499 0.0
C87 C 0.5405 0.37666 0.05925 0.0
C88 C 0.54835 0.41294 0.06153 0.0
C89 C 0.55904 0.52966 0.04686 0.0
C90 C 0.65003 0.57777 0.05824 0.0
C91 C 0.59968 0.6716 0.05107 0.0
C92 C 0.59135 0.702 0.0532 0.0
C93 C 0.58084 0.71856 0.04675 0.0
C94 C 0.57202 0.7467 0.04865 0.0
C95 C 0.5735 0.7591 0.05708 0.0
C96 C 0.584 0.74227 0.06353 0.0
C97 C 0.5927 0.71403 0.06162 0.0
C98 C 0.60575 0.60454 0.07577 0.0
C99 C 0.50217 0.55286 0.06462 0.0
O100 O 0.58031 0.48542 0.07115 0.0
O101 O 0.52057 0.46647 0.06971 0.0
O102 O 0.55113 0.49804 0.05044 0.0
O103 O 0.56846 0.55409 0.05257 0.0
O104 O 0.62617 0.54782 0.06265 0.0
O105 O 0.64173 0.60291 0.05504 0.0
O106 O 0.57055 0.63817 0.04979 0.0
O107 O 0.6264 0.67049 0.05541 0.0
O108 O 0.61195 0.63552 0.07213 0.0
O109 O 0.58799 0.57812 0.07054 0.0
O110 O 0.5276 0.58528 0.06125 0.0
O111 O 0.51011 0.52662 0.06709 0.0
H112 H 0.51189 0.39428 0.08154 0.0
H113 H 0.49785 0.33091 0.07759 0.0
H114 H 0.54913 0.37246 0.05303 0.0
H115 H 0.56229 0.43569 0.057 0.0
H116 H 0.57919 0.70953 0.04022 0.0
H117 H 0.56344 0.75831 0.04351 0.0
H118 H 0.58593 0.75119 0.07008 0.0
H119 H 0.60046 0.70155 0.06674 0.0
Nd120 Nd 0.06665 0.54055 0.4665 0.0
Nd121 Nd 1.01583 0.4555 0.4715 0.0
C122 C 0.11422 0.6042 0.45877 0.0
C123 C 0.14564 0.64143 0.46123 0.0
C124 C 0.15749 0.67193 0.45566 0.0
C125 C 0.18676 0.70761 0.45793 0.0
C126 C 0.2049 0.71363 0.46586 0.0
C127 C 0.19273 0.68287 0.47145 0.0
C128 C 0.16337 0.64715 0.46917 0.0
C129 C 0.05124 0.53689 0.48368 0.0
C130 C 0.10464 0.49427 0.47563 0.0
C131 C 0.96105 0.38579 0.47472 0.0
C132 C 0.91947 0.3616 0.47506 0.0
C133 C 0.89561 0.37182 0.47088 0.0
C134 C 0.85703 0.34592 0.46999 0.0
C135 C 0.84132 0.30897 0.4732 0.0
C136 C 0.86528 0.29941 0.47763 0.0
C137 C 0.90376 0.32536 0.47854 0.0
C138 C 0.05709 0.46879 0.45694 0.0
C139 C 0.97668 0.50707 0.46611 0.0
O140 O 0.11981 0.57554 0.45946 0.0
O141 O 0.0808 0.59642 0.46134 0.0
O142 O 0.071 0.56804 0.47957 0.0
O143 O 0.03996 0.5095 0.47864 0.0
O144 O 0.10906 0.52273 0.47083 0.0
O145 O 0.07102 0.46608 0.47784 0.0
O146 O 0.97869 0.41054 0.48076 0.0
O147 O 0.975 0.3984 0.46718 0.0
O148 O 0.0516 0.44338 0.4625 0.0
O149 O 0.03967 0.48623 0.45888 0.0
O150 O 0.97338 0.47669 0.46986 0.0
O151 O 1.00917 0.53346 0.46306 0.0
H152 H 0.14396 0.66818 0.44954 0.0
H153 H 0.19489 0.73063 0.45351 0.0
H154 H 0.20624 0.68625 0.47756 0.0
H155 H 0.15453 0.62398 0.47358 0.0
H156 H 0.90706 0.39941 0.46803 0.0
H157 H 0.83963 0.35476 0.46667 0.0
H158 H 0.85471 0.27127 0.48009 0.0
H159 H 0.92161 0.31651 0.48166 0.0
Nd160 Nd 0.53565 0.55158 0.46824 0.0
Nd161 Nd 0.61624 0.58808 0.47308 0.0
C162 C 0.4671 0.53132 0.46244 0.0
C163 C 0.43135 0.52953 0.46479 0.0
C164 C 0.40345 0.51944 0.45859 0.0
C165 C 0.36839 0.51522 0.46068 0.0
C166 C 0.3603 0.52106 0.46905 0.0
C167 C 0.38857 0.53148 0.47527 0.0
C168 C 0.42376 0.53568 0.47316 0.0
C169 C 0.54685 0.53943 0.48505 0.0
C170 C 0.57758 0.63887 0.47554 0.0
C171 C 0.68513 0.6047 0.47796 0.0
C172 C 0.71119 0.58951 0.47726 0.0
C173 C 0.74732 0.6098 0.48078 0.0
C174 C 0.77385 0.59818 0.47952 0.0
C175 C 0.765 0.56583 0.4747 0.0
C176 C 0.72837 0.54515 0.4713 0.0
C177 C 0.70182 0.5569 0.47255 0.0
C178 C 0.60554 0.6107 0.45752 0.0
C179 C 0.57179 0.5 0.46639 0.0
O180 O 0.49642 0.56438 0.46106 0.0
O181 O 0.4756 0.50885 0.4665 0.0
O182 O 0.52162 0.51418 0.48015 0.0
O183 O 0.5647 0.57014 0.48114 0.0
O184 O 0.5497 0.61214 0.47111 0.0
O185 O 0.6059 0.63478 0.47829 0.0
O186 O 0.65544 0.58697 0.48281 0.0
O187 O 0.67768 0.61622 0.47088 0.0
O188 O 0.62988 0.63246 0.46307 0.0
O189 O 0.58791 0.57643 0.45996 0.0
O190 O 0.59761 0.52507 0.47149 0.0
O191 O 0.54795 0.50766 0.46254 0.0
H192 H 0.40857 0.5142 0.45211 0.0
H193 H 0.34733 0.50658 0.45573 0.0
H194 H 0.38361 0.53663 0.48176 0.0
H195 H 0.44489 0.54339 0.47806 0.0
H196 H 0.7554 0.63531 0.48434 0.0
H197 H 0.80174 0.61532 0.48214 0.0
H198 H 0.72015 0.51985 0.46765 0.0
H199 H 0.67422 0.54088 0.46971 0.0
Nd200 Nd 0.51863 1.01199 0.46764 0.0
Nd201 Nd 0.48335 0.0561 0.47249 0.0
C202 C 0.538 0.96277 0.46206 0.0
C203 C 0.54194 0.93047 0.46492 0.0
C204 C 0.52832 0.89857 0.45972 0.0
C205 C 0.53456 0.86901 0.46185 0.0
C206 C 0.55483 0.87069 0.46923 0.0
C207 C 0.56759 0.9023 0.47456 0.0
C208 C 0.56122 0.93187 0.47243 0.0
C209 C 0.53325 0.0366 0.48439 0.0
C210 C 0.43264 0.96727 0.4755 0.0
C211 C 0.46884 0.10967 0.47737 0.0
C212 C 0.48468 0.15078 0.47596 0.0
C213 C 0.49156 0.1749 0.48289 0.0
C214 C 0.50386 0.21321 0.48161 0.0
C215 C 0.50938 0.22843 0.47334 0.0
C216 C 0.50317 0.20423 0.46642 0.0
C217 C 0.49115 0.16605 0.46771 0.0
C218 C 0.45662 0.02044 0.45727 0.0
C219 C 0.57065 0.09933 0.46524 0.0
O220 O 0.50412 0.95775 0.46127 0.0
O221 O 0.56172 0.99579 0.46512 0.0
O222 O 0.55773 0.03629 0.47929 0.0
O223 O 0.502 0.02348 0.4807 0.0
O224 O 0.45878 0.96544 0.47099 0.0
O225 O 0.43705 0.99997 0.4781 0.0
O226 O 0.48812 0.09879 0.48202 0.0
O227 O 0.45323 0.08781 0.47083 0.0
O228 O 0.4368 0.02458 0.46308 0.0
O229 O 0.49159 0.03717 0.45922 0.0
O230 O 0.54573 0.10084 0.47024 0.0
O231 O 0.56285 0.06732 0.46166 0.0
H232 H 0.51336 0.89679 0.45391 0.0
H233 H 0.52358 0.84482 0.45768 0.0
H234 H 0.58345 0.90472 0.48025 0.0
H235 H 0.57207 0.95614 0.47657 0.0
H236 H 0.48691 0.164 0.48932 0.0
H237 H 0.50898 0.23088 0.48713 0.0
H238 H 0.50656 0.21448 0.45996 0.0
H239 H 0.4862 0.14835 0.4622 0.0
Nd240 Nd 0.61974 0.0559 0.97353 0.0
Nd241 Nd 0.53463 1.00134 0.96769 0.0
C242 C 0.68305 0.11078 0.98018 0.0
C243 C 0.71039 0.15114 0.97841 0.0
C244 C 0.7236 0.1773 0.9851 0.0
C245 C 0.75075 0.21508 0.98364 0.0
C246 C 0.76564 0.22782 0.97544 0.0
C247 C 0.75182 0.20156 0.96873 0.0
C248 C 0.72456 0.16382 0.97019 0.0
C249 C 0.61281 0.02881 0.95733 0.0
C250 C 0.56642 0.09222 0.96749 0.0
C251 C 0.47081 0.95351 0.96002 0.0
C252 C 0.43272 0.92396 0.96265 0.0
C253 C 0.40272 0.91129 0.9569 0.0
C254 C 0.36653 0.88315 0.95925 0.0
C255 C 0.35945 0.86698 0.96743 0.0
C256 C 0.38965 0.88014 0.97321 0.0
C257 C 0.42587 0.90831 0.97084 0.0
C258 C 0.53852 1.00895 0.9853 0.0
C259 C 0.58811 0.96705 0.97362 0.0
O260 O 0.64966 0.10235 0.98294 0.0
O261 O 0.68182 0.08604 0.97476 0.0
O262 O 0.64187 0.03915 0.96216 0.0
O263 O 0.58974 0.0376 0.96061 0.0
O264 O 0.59889 0.09747 0.97046 0.0
O265 O 0.53867 0.05858 0.96532 0.0
O266 O 0.49828 0.9466 0.96136 0.0
O267 O 0.4801 0.98821 0.96184 0.0
O268 O 0.50738 0.9898 0.98117 0.0
O269 O 0.56485 0.02313 0.98002 0.0
O270 O 0.56244 0.96495 0.96822 0.0
O271 O 0.60938 0.99786 0.97815 0.0
H272 H 0.71313 0.16843 0.99149 0.0
H273 H 0.75997 0.23435 0.98896 0.0
H274 H 0.7627 0.20991 0.96235 0.0
H275 H 0.71497 0.14445 0.96488 0.0
H276 H 0.40728 0.92313 0.95056 0.0
H277 H 0.34399 0.87423 0.95467 0.0
H278 H 0.3855 0.86815 0.97952 0.0
H279 H 0.4486 0.91767 0.9754 0.0
Nd280 Nd 1.01639 0.5888 0.9734 0.0
Nd281 Nd 0.06777 0.55536 0.96863 0.0
C282 C 0.96157 0.60335 0.97693 0.0
C283 C 0.91996 0.58509 0.97714 0.0
C284 C 0.90312 0.60435 0.98074 0.0
C285 C 0.86456 0.59111 0.97968 0.0
C286 C 0.84177 0.55821 0.97497 0.0
C287 C 0.85856 0.53815 0.97165 0.0
C288 C 0.89719 0.55148 0.97271 0.0
C289 C 0.05713 0.61721 0.95879 0.0
C290 C 0.97777 0.49841 0.96803 0.0
C291 C 0.11465 0.53668 0.96153 0.0
C292 C 0.1435 0.52735 0.96451 0.0
C293 C 0.18036 0.55574 0.96642 0.0
C294 C 0.20739 0.54657 0.96909 0.0
C295 C 0.19836 0.50878 0.96991 0.0
C296 C 0.16144 0.48043 0.96803 0.0
C297 C 0.13444 0.48959 0.96534 0.0
C298 C 0.05371 0.5457 0.98596 0.0
C299 C 0.10571 0.64041 0.97694 0.0
O300 O 0.979 0.59518 0.98284 0.0
O301 O 0.97611 0.60644 0.96939 0.0
O302 O 0.05071 0.63648 0.96435 0.0
O303 O 0.04079 0.58232 0.96075 0.0
O304 O 0.97391 0.52551 0.97155 0.0
O305 O 1.01065 0.50445 0.96527 0.0
O306 O 0.12215 0.57157 0.96229 0.0
O307 O 0.07958 0.51233 0.9633 0.0
O308 O 0.07431 0.53521 0.98191 0.0
O309 O 0.04149 0.56054 0.9808 0.0
O310 O 0.10986 0.61649 0.97206 0.0
O311 O 0.07214 0.63433 0.97945 0.0
H312 H 0.92014 0.63063 0.98406 0.0
H313 H 0.85301 0.60768 0.98225 0.0
H314 H 0.84198 0.51242 0.96811 0.0
H315 H 0.90953 0.53629 0.96978 0.0
H316 H 0.18852 0.58512 0.96578 0.0
H317 H 0.23568 0.5692 0.97032 0.0
H318 H 0.15331 0.45105 0.96864 0.0
H319 H 0.10639 0.46698 0.96388 0.0
Nd320 Nd 0.48446 0.45288 0.97193 0.0
Nd321 Nd 0.51879 0.53749 0.96586 0.0
C322 C 0.47241 0.38719 0.97796 0.0
C323 C 0.48679 0.36067 0.97649 0.0
C324 C 0.49915 0.34772 0.98335 0.0
C325 C 0.51022 0.32069 0.98213 0.0
C326 C 0.50901 0.30564 0.97399 0.0
C327 C 0.49723 0.31925 0.96711 0.0
C328 C 0.48642 0.3464 0.96833 0.0
C329 C 0.45854 0.46069 0.95643 0.0
C330 C 0.57352 0.50115 0.96518 0.0
C331 C 0.53576 0.60149 0.95819 0.0
C332 C 0.54485 0.63968 0.961 0.0
C333 C 0.52466 0.65604 0.95764 0.0
C334 C 0.5323 0.69176 0.9603 0.0
C335 C 0.5605 0.71214 0.96636 0.0
C336 C 0.58084 0.69578 0.9697 0.0
C337 C 0.573 0.65991 0.96708 0.0
C338 C 0.52765 0.53565 0.98334 0.0
C339 C 0.43303 0.49134 0.97366 0.0
O340 O 0.49458 0.41925 0.98173 0.0
O341 O 0.453 0.39072 0.97181 0.0
O342 O 0.43944 0.43437 0.96189 0.0
O343 O 0.49271 0.48124 0.95883 0.0
O344 O 0.54564 0.46979 0.9684 0.0
O345 O 0.56909 0.52968 0.96289 0.0
O346 O 0.50114 0.57443 0.95939 0.0
O347 O 0.56054 0.59106 0.95982 0.0
O348 O 0.53982 0.56638 0.97902 0.0
O349 O 0.51244 0.50838 0.97831 0.0
O350 O 0.45656 0.51624 0.96814 0.0
O351 O 0.44068 0.46704 0.97752 0.0
H352 H 0.49979 0.35816 0.98971 0.0
H353 H 0.51972 0.3116 0.98758 0.0
H354 H 0.49533 0.30821 0.96077 0.0
H355 H 0.47706 0.35565 0.96288 0.0
H356 H 0.50286 0.64112 0.95295 0.0
H357 H 0.51643 0.70366 0.9575 0.0
H358 H 0.6025 0.71051 0.97442 0.0
H359 H 0.5889 0.64798 0.96985 0.0
Nd360 Nd 0.06589 0.61201 0.56079 0.0
Nd361 Nd 1.01226 0.52496 0.56465 0.0
C362 C 0.11235 0.68152 0.55545 0.0
C363 C 0.15246 0.71066 0.55701 0.0
C364 C 0.17886 0.72192 0.55038 0.0
C365 C 0.21665 0.74923 0.55171 0.0
C366 C 0.22925 0.76634 0.55973 0.0
C367 C 0.2027 0.75504 0.56636 0.0
C368 C 0.16492 0.72762 0.56503 0.0
C369 C 0.04258 0.59534 0.57767 0.0
C370 C 0.10334 0.56081 0.56568 0.0
C371 C 0.96662 0.45782 0.57129 0.0
C372 C 0.93844 0.41957 0.56823 0.0
C373 C 0.89988 0.40782 0.56844 0.0
C374 C 0.87304 0.37164 0.56579 0.0
C375 C 0.8839 0.346 0.56288 0.0
C376 C 0.92249 0.3577 0.56268 0.0
C377 C 0.94941 0.394 0.56532 0.0
C378 C 0.02901 0.5339 0.5475 0.0
C379 C 0.97377 0.57443 0.55831 0.0
O380 O 0.10622 0.65152 0.55121 0.0
O381 O 0.0884 0.67364 0.56168 0.0
O382 O 0.07671 0.61937 0.57532 0.0
O383 O 0.02404 0.57914 0.5711 0.0
O384 O 0.10736 0.59018 0.56139 0.0
O385 O 0.07075 0.53644 0.56916 0.0
O386 O 0.95786 0.48432 0.57061 0.0
O387 O 1.00209 0.46994 0.56962 0.0
O388 O 1.00664 0.50185 0.55102 0.0
O389 O 0.04073 0.55924 0.55308 0.0
O390 O 0.96905 0.54255 0.56153 0.0
O391 O 1.00758 0.60419 0.55688 0.0
H392 H 0.17026 0.70945 0.54413 0.0
H393 H 0.23611 0.75659 0.54646 0.0
H394 H 0.21095 0.76778 0.57259 0.0
H395 H 0.14549 0.71983 0.5703 0.0
H396 H 0.89034 0.42651 0.57075 0.0
H397 H 0.8436 0.36347 0.56621 0.0
H398 H 0.93195 0.33884 0.56045 0.0
H399 H 0.97881 0.4019 0.56512 0.0
Nd400 Nd 0.45972 0.47351 0.56075 0.0
Nd401 Nd 0.54419 0.50744 0.56642 0.0
C402 C 0.39071 0.45791 0.55658 0.0
C403 C 0.3663 0.47495 0.55607 0.0
C404 C 0.37589 0.50881 0.56026 0.0
C405 C 0.34951 0.52094 0.56109 0.0
C406 C 0.31282 0.49935 0.5578 0.0
C407 C 0.30396 0.46618 0.55332 0.0
C408 C 0.33037 0.45417 0.55249 0.0
C409 C 0.47024 0.44344 0.57532 0.0
C410 C 0.50971 0.56343 0.56663 0.0
C411 C 0.60786 0.52474 0.57427 0.0
C412 C 0.64629 0.5334 0.57182 0.0
C413 C 0.66197 0.51328 0.57554 0.0
C414 C 0.69842 0.5214 0.57344 0.0
C415 C 0.72033 0.55013 0.56759 0.0
C416 C 0.70439 0.57006 0.5638 0.0
C417 C 0.66781 0.56175 0.56588 0.0
C418 C 0.54201 0.51895 0.5491 0.0
C419 C 0.49968 0.4239 0.55724 0.0
O420 O 0.41737 0.46703 0.5509 0.0
O421 O 0.40116 0.45494 0.56425 0.0
O422 O 0.44563 0.4248 0.56952 0.0
O423 O 0.48857 0.47861 0.57364 0.0
O424 O 0.47967 0.5365 0.56279 0.0
O425 O 0.53622 0.55748 0.56971 0.0
O426 O 0.58067 0.49004 0.57321 0.0
O427 O 0.59794 0.54955 0.57226 0.0
O428 O 0.57272 0.52925 0.55332 0.0
O429 O 0.51465 0.50347 0.55412 0.0
O430 O 0.52655 0.44715 0.56246 0.0
O431 O 0.47235 0.4299 0.55454 0.0
H432 H 0.40329 0.52513 0.56318 0.0
H433 H 0.3577 0.54692 0.56445 0.0
H434 H 0.27602 0.44849 0.55078 0.0
H435 H 0.32208 0.42765 0.54935 0.0
H436 H 0.64597 0.49119 0.5801 0.0
H437 H 0.7093 0.50488 0.57636 0.0
H438 H 0.72039 0.59258 0.55934 0.0
H439 H 0.65653 0.57774 0.56286 0.0
Nd440 Nd 0.59196 1.00432 0.55986 0.0
Nd441 Nd 0.56542 0.06159 0.56608 0.0
C442 C 0.59791 0.9487 0.55274 0.0
C443 C 0.58621 0.90885 0.55471 0.0
C444 C 0.57538 0.88248 0.54811 0.0
C445 C 0.56556 0.84506 0.54979 0.0
C446 C 0.5664 0.83295 0.55814 0.0
C447 C 0.57677 0.85945 0.56476 0.0
C448 C 0.58646 0.89685 0.56307 0.0
C449 C 0.61602 0.03157 0.57596 0.0
C450 C 0.50335 0.97135 0.56619 0.0
C451 C 0.55153 0.11029 0.574 0.0
C452 C 0.54308 0.14014 0.57143 0.0
C453 C 0.56449 0.17651 0.57477 0.0
C454 C 0.5572 0.20518 0.57239 0.0
C455 C 0.52808 0.19819 0.56664 0.0
C456 C 0.50673 0.16167 0.56327 0.0
C457 C 0.51419 0.13304 0.56562 0.0
C458 C 0.56116 0.05557 0.54842 0.0
C459 C 0.65138 0.09349 0.55965 0.0
O460 O 0.57141 0.95626 0.55078 0.0
O461 O 0.62373 0.97446 0.55761 0.0
O462 O 0.63187 0.01856 0.57096 0.0
O463 O 0.58432 0.0247 0.5729 0.0
O464 O 0.5297 0.96441 0.56338 0.0
O465 O 0.51058 1.00568 0.56814 0.0
O466 O 0.5856 0.11673 0.57248 0.0
O467 O 0.52574 0.07537 0.5725 0.0
O468 O 0.55246 0.07701 0.55273 0.0
O469 O 0.57148 0.03909 0.55356 0.0
O470 O 0.62904 0.09602 0.56532 0.0
O471 O 0.64047 0.06224 0.55513 0.0
H472 H 0.57473 0.89091 0.54161 0.0
H473 H 0.55709 0.82555 0.54452 0.0
H474 H 0.5782 0.85155 0.57126 0.0
H475 H 0.59457 0.91651 0.56831 0.0
H476 H 0.58706 0.18282 0.57921 0.0
H477 H 0.57478 0.23301 0.575 0.0
H478 H 0.48386 0.155 0.55891 0.0
H479 H 0.49725 0.10533 0.56289 0.0
Nd480 Nd 0.2167 0.39237 0.39896 0.0
Nd481 Nd 0.13052 0.34089 0.39402 0.0
C482 C 0.28201 0.4382 0.40628 0.0
C483 C 0.31947 0.46812 0.40348 0.0
C484 C 0.34578 0.49176 0.40951 0.0
C485 C 0.38174 0.51963 0.40697 0.0
C486 C 0.39226 0.52443 0.39833 0.0
C487 C 0.3656 0.50072 0.3923 0.0
C488 C 0.32959 0.47288 0.39485 0.0
C489 C 0.21019 0.37914 0.38158 0.0
C490 C 0.16825 0.4309 0.39155 0.0
C491 C 0.06159 0.28728 0.38991 0.0
C492 C 0.03782 0.24585 0.38935 0.0
C493 C 0.04894 0.22184 0.3931 0.0
C494 C 0.02343 0.18312 0.39385 0.0
C495 C 0.98611 0.16756 0.39092 0.0
C496 C 0.97569 0.1917 0.38688 0.0
C497 C 1.00122 0.2303 0.38612 0.0
C498 C 0.14373 0.37847 0.40913 0.0
C499 C 0.18246 0.30205 0.39921 0.0
O500 O 0.25446 0.44557 0.40579 0.0
O501 O 0.27213 0.40405 0.4038 0.0
O502 O 0.24181 0.40046 0.38536 0.0
O503 O 0.18443 0.3669 0.38701 0.0
O504 O 0.19585 0.43377 0.39644 0.0
O505 O 0.14159 0.39797 0.38852 0.0
O506 O 0.08799 0.30526 0.38421 0.0
O507 O 0.07215 0.30047 0.39759 0.0
O508 O 0.11707 0.37259 0.40389 0.0
O509 O 0.16234 0.36298 0.40662 0.0
O510 O 0.15171 0.29851 0.39561 0.0
O511 O 0.2092 0.33458 0.40216 0.0
H512 H 0.33852 0.48865 0.41619 0.0
H513 H 0.40117 0.53776 0.41179 0.0
H514 H 0.37268 0.50331 0.38562 0.0
H515 H 0.30977 0.45491 0.39008 0.0
H516 H 0.07691 0.23322 0.39573 0.0
H517 H 0.03279 0.1655 0.39687 0.0
H518 H 0.94723 0.18113 0.38464 0.0
H519 H 0.99179 0.24832 0.38333 0.0
Nd520 Nd 0.68309 0.84704 0.39961 0.0
Nd521 Nd 0.73039 0.8095 0.39359 0.0
C522 C 0.63864 0.86629 0.40775 0.0
C523 C 0.60959 0.87637 0.40556 0.0
C524 C 0.57717 0.86278 0.41058 0.0
C525 C 0.54951 0.87222 0.4087 0.0
C526 C 0.55364 0.89566 0.40174 0.0
C527 C 0.5862 0.90912 0.3967 0.0
C528 C 0.6138 0.89953 0.39857 0.0
C529 C 0.69527 0.85764 0.38224 0.0
C530 C 0.64048 0.76124 0.3913 0.0
C531 C 0.78238 0.79245 0.38892 0.0
C532 C 0.82385 0.80918 0.38857 0.0
C533 C 0.84782 0.84152 0.39327 0.0
C534 C 0.88625 0.85339 0.39406 0.0
C535 C 0.90167 0.83303 0.39022 0.0
C536 C 0.87764 0.80135 0.38528 0.0
C537 C 0.83927 0.78961 0.38447 0.0
C538 C 0.69356 0.78361 0.40874 0.0
C539 C 0.77356 0.89951 0.39965 0.0
O540 O 0.62991 0.83129 0.40653 0.0
O541 O 0.67335 0.89029 0.4056 0.0
O542 O 0.6774 0.87048 0.38661 0.0
O543 O 0.7062 0.84088 0.38716 0.0
O544 O 0.63942 0.78603 0.39652 0.0
O545 O 0.67256 0.76647 0.38797 0.0
O546 O 0.76578 0.80379 0.38349 0.0
O547 O 0.76827 0.78749 0.39656 0.0
O548 O 0.69736 0.76299 0.40306 0.0
O549 O 0.71057 0.81826 0.4066 0.0
O550 O 0.77514 0.872 0.39564 0.0
O551 O 0.74193 0.89488 0.40292 0.0
H552 H 0.57318 0.84473 0.41598 0.0
H553 H 0.52459 0.86062 0.41264 0.0
H554 H 0.59063 0.92746 0.39134 0.0
H555 H 0.63849 0.91036 0.39456 0.0
H556 H 0.83655 0.85683 0.39659 0.0
H557 H 0.90377 0.87825 0.3978 0.0
H558 H 0.88808 0.78456 0.38231 0.0
H559 H 0.8213 0.76423 0.38093 0.0
Nd560 Nd 0.2302 0.85717 0.39806 0.0
Nd561 Nd 0.26211 0.94618 0.39248 0.0
C562 C 0.20931 0.79191 0.40552 0.0
C563 C 0.1994 0.75352 0.40271 0.0
C564 C 0.22403 0.74706 0.39771 0.0
C565 C 0.21411 0.71053 0.39517 0.0
C566 C 0.17924 0.67955 0.39751 0.0
C567 C 0.15445 0.68628 0.4024 0.0
C568 C 0.16447 0.72277 0.40498 0.0
C569 C 0.22945 0.86571 0.38057 0.0
C570 C 0.31905 0.91116 0.39291 0.0
C571 C 0.27392 1.00813 0.38458 0.0
C572 C 0.26531 0.03845 0.38652 0.0
C573 C 0.25605 0.0554 0.37992 0.0
C574 C 0.24647 0.08311 0.38167 0.0
C575 C 0.24594 0.09464 0.39009 0.0
C576 C 0.25527 0.07749 0.39669 0.0
C577 C 0.26469 0.04966 0.39493 0.0
C578 C 0.27439 0.94018 0.40966 0.0
C579 C 0.17225 0.89156 0.39783 0.0
O580 O 0.24453 0.81853 0.40482 0.0
O581 O 0.18561 0.80322 0.40346 0.0
O582 O 0.21989 0.83381 0.38421 0.0
O583 O 0.23888 0.89017 0.38626 0.0
O584 O 0.29356 0.88214 0.39732 0.0
O585 O 0.31244 0.9369 0.38937 0.0
O586 O 0.24491 0.97494 0.38301 0.0
O587 O 0.29937 1.00643 0.3893 0.0
O588 O 0.28195 0.97137 0.40591 0.0
O589 O 0.2567 0.91376 0.40442 0.0
O590 O 0.19892 0.92368 0.3946 0.0
O591 O 0.17862 0.86445 0.40043 0.0
H592 H 0.25112 0.77016 0.39581 0.0
H593 H 0.23421 0.70652 0.39152 0.0
H594 H 0.12718 0.66331 0.40423 0.0
H595 H 0.14485 0.72698 0.40877 0.0
H596 H 0.25587 0.04692 0.37339 0.0
H597 H 0.23886 0.09502 0.37641 0.0
H598 H 0.25566 0.08579 0.40323 0.0
H599 H 0.27138 0.03681 0.40016 0.0
Nd600 Nd 0.73844 0.87277 0.79945 0.0
Nd601 Nd 0.68612 0.78842 0.80513 0.0
C602 C 0.78402 0.93596 0.79131 0.0
C603 C 0.81266 0.975 0.79356 0.0
C604 C 0.84613 0.9935 0.78889 0.0
C605 C 0.87341 0.03055 0.79085 0.0
C606 C 0.86778 0.05013 0.79752 0.0
C607 C 0.83415 0.03137 0.80222 0.0
C608 C 0.80697 0.99422 0.80028 0.0
C609 C 0.72645 0.87043 0.81686 0.0
C610 C 0.77572 0.82658 0.80833 0.0
C611 C 0.63208 0.72192 0.8106 0.0
C612 C 0.59115 0.69598 0.80919 0.0
C613 C 0.56655 0.68122 0.81613 0.0
C614 C 0.52857 0.65412 0.81492 0.0
C615 C 0.5142 0.64081 0.80672 0.0
C616 C 0.53883 0.65636 0.79976 0.0
C617 C 0.57665 0.6836 0.80097 0.0
C618 C 0.72395 0.79719 0.79019 0.0
C619 C 0.64722 0.83869 0.79873 0.0
O620 O 0.79254 0.9097 0.79281 0.0
O621 O 0.74904 0.92543 0.79315 0.0
O622 O 0.74793 0.90114 0.81273 0.0
O623 O 0.71347 0.84339 0.81174 0.0
O624 O 0.77979 0.85269 0.80281 0.0
O625 O 0.74236 0.80112 0.81139 0.0
O626 O 0.64259 0.75317 0.81481 0.0
O627 O 0.65431 0.72651 0.80421 0.0
O628 O 0.7165 0.77127 0.79578 0.0
O629 O 0.70906 0.81709 0.7922 0.0
O630 O 0.64266 0.80608 0.80138 0.0
O631 O 0.68079 0.86754 0.79702 0.0
H632 H 0.85125 0.97921 0.78371 0.0
H633 H 0.89918 0.04364 0.78719 0.0
H634 H 0.82858 0.04552 0.80734 0.0
H635 H 0.78143 0.98061 0.80402 0.0
H636 H 0.57686 0.69018 0.82253 0.0
H637 H 0.51052 0.64352 0.82044 0.0
H638 H 0.52926 0.6467 0.79335 0.0
H639 H 0.59473 0.69428 0.79545 0.0
Nd640 Nd 0.20449 0.8815 0.80061 0.0
Nd641 Nd 0.28482 0.91694 0.80551 0.0
C642 C 0.13632 0.86168 0.79465 0.0
C643 C 0.1001 0.85862 0.79705 0.0
C644 C 0.06977 0.84125 0.79139 0.0
C645 C 0.03459 0.83649 0.79355 0.0
C646 C 0.02882 0.84906 0.80143 0.0
C647 C 0.05942 0.86651 0.80711 0.0
C648 C 0.09475 0.87125 0.80493 0.0
C649 C 0.21477 0.86928 0.81748 0.0
C650 C 0.24745 0.96896 0.80772 0.0
C651 C 0.35338 0.93277 0.81047 0.0
C652 C 0.37928 0.91739 0.80976 0.0
C653 C 0.37046 0.88573 0.80474 0.0
C654 C 0.39707 0.87408 0.80345 0.0
C655 C 0.4332 0.8939 0.80713 0.0
C656 C 0.44147 0.92521 0.81228 0.0
C657 C 0.41489 0.93675 0.81357 0.0
C658 C 0.27486 0.93985 0.78992 0.0
C659 C 0.2395 0.82889 0.7989 0.0
O660 O 0.16542 0.89531 0.79373 0.0
O661 O 0.14485 0.83852 0.79837 0.0
O662 O 0.18947 0.84428 0.81256 0.0
O663 O 0.23328 0.8999 0.81356 0.0
O664 O 0.21927 0.94235 0.80335 0.0
O665 O 0.27546 0.96448 0.81053 0.0
O666 O 0.32353 0.91503 0.81528 0.0
O667 O 0.34628 0.94467 0.80341 0.0
O668 O 0.29969 0.96126 0.79541 0.0
O669 O 0.25673 0.90563 0.79237 0.0
O670 O 0.26542 0.85375 0.80401 0.0
O671 O 0.21624 0.83711 0.79498 0.0
H672 H 0.0732 0.83097 0.78531 0.0
H673 H 1.01171 0.82239 0.78907 0.0
H674 H 0.05618 0.87688 0.81319 0.0
H675 H 0.1178 0.88462 0.80941 0.0
H676 H 0.34327 0.87043 0.80167 0.0
H677 H 0.38932 0.84958 0.79954 0.0
H678 H 0.46898 0.94166 0.81513 0.0
H679 H 0.42257 0.96153 0.81738 0.0
Nd680 Nd 0.18721 0.33528 0.80033 0.0
Nd681 Nd 0.15514 0.39224 0.80636 0.0
C682 C 0.20606 0.29068 0.79219 0.0
C683 C 0.2124 0.25931 0.79443 0.0
C684 C 0.23668 0.25243 0.78947 0.0
C685 C 0.24386 0.22346 0.79161 0.0
C686 C 0.22685 0.20065 0.79879 0.0
C687 C 0.20257 0.2078 0.80377 0.0
C688 C 0.1955 0.23689 0.80163 0.0
C689 C 0.1902 0.34504 0.81783 0.0
C690 C 0.09925 0.30037 0.80651 0.0
C691 C 0.14478 0.44347 0.81419 0.0
C692 C 0.15341 0.48223 0.81207 0.0
C693 C 0.16116 0.50848 0.81857 0.0
C694 C 0.17067 0.5456 0.81665 0.0
C695 C 0.17267 0.55746 0.80815 0.0
C696 C 0.16485 0.53092 0.80165 0.0
C697 C 0.15547 0.49384 0.80358 0.0
C698 C 0.14161 0.37315 0.78921 0.0
C699 C 0.2443 0.42742 0.80038 0.0
O700 O 0.17141 0.28419 0.79265 0.0
O701 O 0.23073 0.32376 0.79516 0.0
O702 O 0.19972 0.32291 0.81406 0.0
O703 O 0.17954 0.35964 0.81227 0.0
O704 O 0.12421 0.29647 0.80195 0.0
O705 O 0.10587 0.33296 0.8099 0.0
O706 O 0.17383 0.4391 0.81561 0.0
O707 O 0.11863 0.41603 0.80967 0.0
O708 O 0.13277 0.39573 0.79302 0.0
O709 O 0.1608 0.36612 0.79439 0.0
O710 O 0.21802 0.43252 0.80398 0.0
O711 O 0.23785 0.39421 0.79758 0.0
H712 H 0.25031 0.26965 0.78394 0.0
H713 H 0.26313 0.21924 0.78769 0.0
H714 H 0.18858 0.1906 0.80927 0.0
H715 H 0.17684 0.24187 0.80559 0.0
H716 H 0.1602 0.50035 0.82516 0.0
H717 H 0.1771 0.56519 0.82184 0.0
H718 H 0.16562 0.53866 0.79504 0.0
H719 H 0.14994 0.47424 0.79843 0.0
Nd720 Nd 0.28564 0.39355 0.30591 0.0
Nd721 Nd 0.20048 0.34341 0.30038 0.0
C722 C 0.35458 0.44589 0.31042 0.0
C723 C 0.37995 0.48711 0.31084 0.0
C724 C 0.36978 0.51219 0.30729 0.0
C725 C 0.39654 0.55051 0.30639 0.0
C726 C 0.43419 0.56454 0.30894 0.0
C727 C 0.44375 0.53929 0.31274 0.0
C728 C 0.41696 0.50114 0.31367 0.0
C729 C 0.27406 0.35588 0.29087 0.0
C730 C 0.23585 0.43377 0.29985 0.0
C731 C 0.13668 0.29728 0.29257 0.0
C732 C 0.09834 0.26738 0.29496 0.0
C733 C 0.08139 0.23323 0.29051 0.0
C734 C 0.04497 0.20479 0.29257 0.0
C735 C 0.02445 0.20987 0.2991 0.0
C736 C 0.04168 0.24411 0.30359 0.0
C737 C 0.07821 0.27249 0.30156 0.0
C738 C 0.20377 0.35674 0.31771 0.0
C739 C 0.24686 0.30385 0.30853 0.0
O740 O 0.3269 0.42945 0.3159 0.0
O741 O 0.34502 0.43218 0.30276 0.0
O742 O 0.30002 0.36164 0.2963 0.0
O743 O 0.2557 0.37202 0.2931 0.0
O744 O 0.26587 0.43695 0.30378 0.0
O745 O 0.20936 0.40132 0.29681 0.0
O746 O 0.16391 0.28973 0.29358 0.0
O747 O 0.1464 0.33181 0.29471 0.0
O748 O 0.17264 0.33772 0.31356 0.0
O749 O 0.23083 0.36815 0.31262 0.0
O750 O 0.21976 0.30106 0.30348 0.0
O751 O 0.2735 0.33665 0.31158 0.0
H752 H 0.34152 0.50193 0.30494 0.0
H753 H 0.38781 0.56901 0.30357 0.0
H754 H 0.47238 0.5486 0.31467 0.0
H755 H 0.42566 0.48221 0.31628 0.0
H756 H 0.09638 0.22853 0.28543 0.0
H757 H 0.03307 0.1786 0.28907 0.0
H758 H 0.02675 0.24926 0.30861 0.0
H759 H 0.09059 0.2985 0.30514 0.0
Nd760 Nd 0.68198 0.92347 0.30551 0.0
Nd761 Nd 0.73494 0.88961 0.30119 0.0
C762 C 0.63656 0.94748 0.31106 0.0
C763 C 0.59718 0.93805 0.30923 0.0
C764 C 0.57184 0.93035 0.31595 0.0
C765 C 0.53444 0.92076 0.31435 0.0
C766 C 0.52129 0.91873 0.30598 0.0
C767 C 0.54685 0.92652 0.29925 0.0
C768 C 0.58421 0.93593 0.30085 0.0
C769 C 0.7031 0.92903 0.2885 0.0
C770 C 0.64368 0.83485 0.30073 0.0
C771 C 0.77946 0.86849 0.29377 0.0
C772 C 0.8093 0.85983 0.29613 0.0
C773 C 0.84225 0.87492 0.29126 0.0
C774 C 0.87075 0.86687 0.29324 0.0
C775 C 0.86696 0.84327 0.30013 0.0
C776 C 0.83396 0.82841 0.30507 0.0
C777 C 0.80546 0.83663 0.3031 0.0
C778 C 0.71985 0.88181 0.31842 0.0
C779 C 0.7742 0.97705 0.30779 0.0
O780 O 0.6409 0.92178 0.315 0.0
O781 O 0.66161 0.96444 0.30508 0.0
O782 O 0.66943 0.91979 0.29105 0.0
O783 O 0.7225 0.93188 0.29494 0.0
O784 O 0.6404 0.86033 0.30515 0.0
O785 O 0.67576 0.84286 0.29699 0.0
O786 O 0.78781 0.9036 0.29438 0.0
O787 O 0.74508 0.84488 0.29621 0.0
O788 O 0.74196 0.87211 0.31475 0.0
O789 O 0.70776 0.89566 0.31297 0.0
O790 O 0.77857 0.95004 0.30437 0.0
O791 O 0.74055 0.97302 0.30947 0.0
H792 H 0.58093 0.93149 0.32246 0.0
H793 H 0.51568 0.91436 0.31971 0.0
H794 H 0.53815 0.92578 0.29273 0.0
H795 H 0.60291 0.94151 0.29551 0.0
H796 H 0.84598 0.89304 0.2859 0.0
H797 H 0.896 0.87955 0.2894 0.0
H798 H 0.82985 0.80995 0.31038 0.0
H799 H 0.78038 0.8247 0.307 0.0
Nd800 Nd 0.15903 0.79432 0.30466 0.0
Nd801 Nd 0.19027 0.88015 0.29995 0.0
C802 C 0.13832 0.72616 0.3106 0.0
C803 C 0.14958 0.69725 0.30908 0.0
C804 C 0.16101 0.68333 0.31593 0.0
C805 C 0.17195 0.65628 0.31464 0.0
C806 C 0.17163 0.64221 0.30645 0.0
C807 C 0.1602 0.6563 0.29959 0.0
C808 C 0.14942 0.68347 0.30088 0.0
C809 C 0.14992 0.80741 0.28767 0.0
C810 C 0.24661 0.84595 0.29895 0.0
C811 C 0.2076 0.94464 0.29237 0.0
C812 C 0.21908 0.98374 0.29479 0.0
C813 C 0.20849 1.00472 0.28962 0.0
C814 C 0.2177 0.0413 0.29189 0.0
C815 C 0.23786 0.05792 0.29941 0.0
C816 C 0.24864 0.03678 0.30457 0.0
C817 C 0.23928 1.00005 0.30229 0.0
C818 C 0.20356 0.87504 0.317 0.0
C819 C 0.10378 0.8309 0.30725 0.0
O820 O 0.16288 0.75707 0.31443 0.0
O821 O 0.12059 0.73251 0.30447 0.0
O822 O 0.16105 0.78436 0.29021 0.0
O823 O 0.14758 0.82447 0.29409 0.0
O824 O 0.22259 0.81761 0.30371 0.0
O825 O 0.23667 0.86843 0.29512 0.0
O826 O 0.17328 0.91912 0.29434 0.0
O827 O 0.23184 0.9332 0.29362 0.0
O828 O 0.21354 0.90657 0.31316 0.0
O829 O 0.1879 0.84856 0.31175 0.0
O830 O 0.12996 0.86222 0.30365 0.0
O831 O 0.10884 0.80189 0.30891 0.0
H832 H 0.16162 0.69352 0.32231 0.0
H833 H 0.1811 0.64674 0.32008 0.0
H834 H 0.15903 0.64595 0.29321 0.0
H835 H 0.14089 0.69361 0.29544 0.0
H836 H 0.19261 0.99259 0.28384 0.0
H837 H 0.2082 0.05624 0.28783 0.0
H838 H 0.26442 0.04865 0.31036 0.0
H839 H 0.24762 0.98432 0.30641 0.0
Nd840 Nd 0.72748 0.94728 0.89241 0.0
Nd841 Nd 0.67824 0.8624 0.89781 0.0
C842 C 0.78137 0.01593 0.88814 0.0
C843 C 0.8227 0.04101 0.8894 0.0
C844 C 0.84778 0.05196 0.8825 0.0
C845 C 0.88619 0.07809 0.88361 0.0
C846 C 0.90054 0.0942 0.89164 0.0
C847 C 0.8754 0.08272 0.89854 0.0
C848 C 0.83721 0.05658 0.89744 0.0
C849 C 0.68534 0.93579 0.90674 0.0
C850 C 0.76883 0.89969 0.89934 0.0
C851 C 0.63217 0.79816 0.90557 0.0
C852 C 0.60428 0.75935 0.90309 0.0
C853 C 0.58849 0.73123 0.90932 0.0
C854 C 0.56221 0.69419 0.90709 0.0
C855 C 0.55116 0.6844 0.89856 0.0
C856 C 0.56729 0.71279 0.89232 0.0
C857 C 0.59359 0.74988 0.89457 0.0
C858 C 0.69506 0.86601 0.88062 0.0
C859 C 0.63857 0.90587 0.88838 0.0
O860 O 0.76938 0.98715 0.88295 0.0
O861 O 0.76047 1.00808 0.89492 0.0
O862 O 0.69191 0.96069 0.90095 0.0
O863 O 0.70281 0.91779 0.90522 0.0
O864 O 0.77201 0.93055 0.89589 0.0
O865 O 0.73595 0.87131 0.90163 0.0
O866 O 0.6235 0.82426 0.90398 0.0
O867 O 0.66727 0.80896 0.90383 0.0
O868 O 0.67583 0.83475 0.88473 0.0
O869 O 0.7048 0.89289 0.8857 0.0
O870 O 0.63514 0.87915 0.89363 0.0
O871 O 0.67183 0.93334 0.88572 0.0
H872 H 0.83758 0.04074 0.87622 0.0
H873 H 0.90462 0.08574 0.87815 0.0
H874 H 0.88492 0.09478 0.90479 0.0
H875 H 0.81893 0.04928 0.90293 0.0
H876 H 0.59637 0.73796 0.91593 0.0
H877 H 0.54999 0.67337 0.91209 0.0
H878 H 0.55977 0.70631 0.88569 0.0
H879 H 0.60559 0.77116 0.88966 0.0
Nd880 Nd 0.12717 0.81346 0.89421 0.0
Nd881 Nd 0.21225 0.84505 0.89898 0.0
C882 C 0.05859 0.80018 0.89021 0.0
C883 C 0.03494 0.8182 0.88985 0.0
C884 C 0.04476 0.85146 0.89434 0.0
C885 C 1.01906 0.8645 0.89516 0.0
C886 C 0.98277 0.84445 0.89157 0.0
C887 C 0.9737 0.81183 0.88683 0.0
C888 C 0.99943 0.79894 0.88599 0.0
C889 C 0.13924 0.78796 0.90931 0.0
C890 C 0.18142 0.90425 0.89906 0.0
C891 C 0.277 0.86139 0.90619 0.0
C892 C 0.31444 0.86832 0.90333 0.0
C893 C 0.3304 0.84859 0.90713 0.0
C894 C 0.36594 0.85512 0.90463 0.0
C895 C 0.38664 0.88179 0.89829 0.0
C896 C 0.3704 0.90133 0.89444 0.0
C897 C 0.33474 0.89462 0.89692 0.0
C898 C 0.20736 0.85161 0.88157 0.0
C899 C 0.1617 0.75851 0.89162 0.0
O900 O 0.085 0.8089 0.8845 0.0
O901 O 0.06895 0.79629 0.89781 0.0
O902 O 0.11211 0.76808 0.90411 0.0
O903 O 0.1587 0.82203 0.90682 0.0
O904 O 0.1495 0.87719 0.89588 0.0
O905 O 0.20822 0.8978 0.9017 0.0
O906 O 0.24881 0.82698 0.9055 0.0
O907 O 0.26775 0.88672 0.9042 0.0
O908 O 0.23844 0.86186 0.8856 0.0
O909 O 0.18056 0.83863 0.88679 0.0
O910 O 0.18991 0.78256 0.89644 0.0
O911 O 0.13543 0.76569 0.88874 0.0
H912 H 0.07181 0.86664 0.89746 0.0
H913 H 0.02747 0.89002 0.89874 0.0
H914 H 0.94604 0.79521 0.88406 0.0
H915 H 0.99091 0.77289 0.88262 0.0
H916 H 0.31532 0.82803 0.91206 0.0
H917 H 0.37703 0.83894 0.90764 0.0
H918 H 0.38548 0.92233 0.88961 0.0
H919 H 0.32321 0.91025 0.89383 0.0
Nd920 Nd 0.26083 0.34119 0.89261 0.0
Nd921 Nd 0.22796 0.39732 0.89877 0.0
C922 C 0.27107 0.28994 0.88471 0.0
C923 C 0.26114 0.25051 0.88657 0.0
C924 C 0.28235 0.23562 0.88306 0.0
C925 C 0.27316 0.19837 0.88475 0.0
C926 C 0.24241 0.17495 0.89001 0.0
C927 C 0.22132 0.19017 0.89355 0.0
C928 C 0.23061 0.22746 0.89187 0.0
C929 C 0.27389 0.3594 0.90984 0.0
C930 C 0.17113 0.30564 0.89857 0.0
C931 C 0.21194 0.44444 0.90676 0.0
C932 C 0.19921 0.47141 0.90456 0.0
C933 C 0.2122 0.50436 0.90936 0.0
C934 C 0.20159 0.53095 0.90728 0.0
C935 C 0.17755 0.52523 0.90035 0.0
C936 C 0.16447 0.492 0.89556 0.0
C937 C 0.17525 0.46541 0.89763 0.0
C938 C 0.22266 0.38573 0.88129 0.0
C939 C 0.31743 0.43179 0.89345 0.0
O940 O 0.24304 0.29572 0.88306 0.0
O941 O 0.29666 0.31609 0.88958 0.0
O942 O 0.28301 0.33724 0.90593 0.0
O943 O 0.25447 0.36643 0.90471 0.0
O944 O 0.19761 0.30094 0.89492 0.0
O945 O 0.17737 0.33859 0.90151 0.0
O946 O 0.24592 0.45352 0.90431 0.0
O947 O 0.18774 0.40854 0.90582 0.0
O948 O 0.20982 0.40488 0.88518 0.0
O949 O 0.23709 0.37453 0.88677 0.0
O950 O 0.29171 0.43424 0.89805 0.0
O951 O 0.3105 0.40054 0.88935 0.0
H952 H 0.30614 0.25285 0.879 0.0
H953 H 0.29053 0.1881 0.88201 0.0
H954 H 0.1972 0.17311 0.89754 0.0
H955 H 0.21382 0.23825 0.8947 0.0
H956 H 0.23098 0.50975 0.91468 0.0
H957 H 0.21295 0.55644 0.91103 0.0
H958 H 0.14573 0.48639 0.89022 0.0
H959 H 0.16501 0.44028 0.89379 0.0
Nd960 Nd 0.88277 0.72959 0.73188 0.0
Nd961 Nd 0.79421 0.66995 0.72618 0.0
C962 C 0.94637 0.77631 0.73973 0.0
C963 C 0.98392 0.80703 0.73718 0.0
C964 C 1.014 0.8202 0.74291 0.0
C965 C 0.04994 0.84876 0.74054 0.0
C966 C 0.05667 0.86483 0.73236 0.0
C967 C 0.02635 0.85134 0.72661 0.0
C968 C 0.99037 0.82275 0.72899 0.0
C969 C 0.87569 0.72025 0.71439 0.0
C970 C 0.82653 0.76123 0.72593 0.0
C971 C 0.73259 0.61724 0.71862 0.0
C972 C 0.70218 0.57841 0.72068 0.0
C973 C 0.68854 0.55063 0.71435 0.0
C974 C 0.66032 0.51366 0.71617 0.0
C975 C 0.64482 0.50338 0.7244 0.0
C976 C 0.65873 0.53138 0.73075 0.0
C977 C 0.68708 0.56835 0.72892 0.0
C978 C 0.8003 0.6897 0.74331 0.0
C979 C 0.85159 0.63785 0.73164 0.0
O980 O 0.91823 0.78267 0.73892 0.0
O981 O 0.93784 0.74245 0.73729 0.0
O982 O 0.90711 0.74239 0.71822 0.0
O983 O 0.85036 0.70464 0.71992 0.0
O984 O 0.85631 0.76674 0.73036 0.0
O985 O 0.80136 0.72814 0.72264 0.0
O986 O 0.76604 0.62164 0.71727 0.0
O987 O 0.73369 0.64503 0.72298 0.0
O988 O 0.769 0.66618 0.7396 0.0
O989 O 0.82632 0.69711 0.73805 0.0
O990 O 0.81918 0.63142 0.72837 0.0
O991 O 0.87793 0.67163 0.73425 0.0
H992 H 1.00972 0.80826 0.74923 0.0
H993 H 0.07259 0.85798 0.74511 0.0
H994 H 0.03026 0.86326 0.72029 0.0
H995 H 0.96757 0.81294 0.72445 0.0
H996 H 0.69991 0.55749 0.70797 0.0
H997 H 0.65105 0.493 0.71113 0.0
H998 H 0.64739 0.52491 0.73713 0.0
H999 H 0.69717 0.58906 0.73396 0.0
Nd1000 Nd 0.34437 0.17445 0.73225 0.0
Nd1001 Nd 0.39933 0.14435 0.72655 0.0
C1002 C 0.29638 0.18954 0.74012 0.0
C1003 C 0.26432 0.19424 0.73755 0.0
C1004 C 0.25265 0.21395 0.74284 0.0
C1005 C 0.22332 0.22002 0.74036 0.0
C1006 C 0.20496 0.20652 0.7325 0.0
C1007 C 0.21684 0.18672 0.72721 0.0
C1008 C 0.24624 0.1807 0.72971 0.0
C1009 C 0.35658 0.18347 0.71485 0.0
C1010 C 0.30968 0.09106 0.7234 0.0
C1011 C 0.45532 0.13451 0.72123 0.0
C1012 C 0.49655 0.15107 0.72262 0.0
C1013 C 0.52084 0.15905 0.71567 0.0
C1014 C 0.55909 0.17098 0.71692 0.0
C1015 C 0.5741 0.17498 0.72518 0.0
C1016 C 0.54978 0.16788 0.73213 0.0
C1017 C 0.51167 0.15626 0.73087 0.0
C1018 C 0.36228 0.11572 0.74157 0.0
C1019 C 0.43506 0.23311 0.73312 0.0
O1020 O 0.29174 0.15559 0.73958 0.0
O1021 O 0.32942 0.21553 0.73744 0.0
O1022 O 0.33427 0.19197 0.71885 0.0
O1023 O 0.37023 0.17054 0.72009 0.0
O1024 O 0.30471 0.11293 0.72879 0.0
O1025 O 0.34337 0.0994 0.72042 0.0
O1026 O 0.44342 0.15387 0.7169 0.0
O1027 O 0.43358 0.11679 0.72768 0.0
O1028 O 0.37071 0.09744 0.73613 0.0
O1029 O 0.37588 0.1501 0.73938 0.0
O1030 O 0.44068 0.20617 0.73013 0.0
O1031 O 0.40119 0.22703 0.73511 0.0
H1032 H 0.26649 0.22499 0.74888 0.0
H1033 H 0.21542 0.23585 0.74455 0.0
H1034 H 0.20315 0.1755 0.72117 0.0
H1035 H 0.25496 0.16558 0.72549 0.0
H1036 H 0.51006 0.15533 0.70924 0.0
H1037 H 0.57683 0.17684 0.71139 0.0
H1038 H 0.5598 0.17008 0.73858 0.0
H1039 H 0.49385 0.15038 0.73639 0.0
Nd1040 Nd 0.89588 0.1917 0.73226 0.0
Nd1041 Nd 0.93266 0.27577 0.7267 0.0
C1042 C 0.87798 0.12825 0.7404 0.0
C1043 C 0.86919 0.08956 0.73835 0.0
C1044 C 0.85668 0.06235 0.74479 0.0
C1045 C 0.84791 0.02543 0.74298 0.0
C1046 C 0.85145 1.01484 0.73466 0.0
C1047 C 0.86384 0.0423 0.7282 0.0
C1048 C 0.87264 0.07928 0.73003 0.0
C1049 C 0.88083 0.19364 0.71513 0.0
C1050 C 0.97845 0.23289 0.72243 0.0
C1051 C 0.95013 0.34607 0.72326 0.0
C1052 C 0.93405 0.37138 0.72269 0.0
C1053 C 0.90058 0.36295 0.72692 0.0
C1054 C 0.88945 0.39014 0.72768 0.0
C1055 C 0.91158 0.4265 0.72424 0.0
C1056 C 0.9443 0.43419 0.71971 0.0
C1057 C 0.95537 0.407 0.71897 0.0
C1058 C 0.96303 0.26325 0.74103 0.0
C1059 C 0.84306 0.22898 0.73278 0.0
O1060 O 0.91266 0.15511 0.73915 0.0
O1061 O 0.85326 0.13766 0.738 0.0
O1062 O 0.86888 0.1629 0.71945 0.0
O1063 O 0.89915 0.2214 0.71994 0.0
O1064 O 0.95445 0.20591 0.72754 0.0
O1065 O 0.9741 0.26161 0.72005 0.0
O1066 O 0.9427 0.32095 0.71728 0.0
O1067 O 0.9504 0.33341 0.73087 0.0
O1068 O 0.98184 0.28659 0.73502 0.0
O1069 O 0.92766 0.24698 0.7396 0.0
O1070 O 0.86988 0.25729 0.72848 0.0
O1071 O 0.84868 0.20292 0.73625 0.0
H1072 H 0.85361 0.06965 0.75124 0.0
H1073 H 0.83799 1.00506 0.74809 0.0
H1074 H 0.86736 0.03538 0.72175 0.0
H1075 H 0.88223 0.09989 0.72496 0.0
H1076 H 0.88375 0.33579 0.72992 0.0
H1077 H 0.86378 0.38284 0.73108 0.0
H1078 H 0.96235 0.46183 0.71705 0.0
H1079 H 0.98159 0.41443 0.71579 0.0
Nd1080 Nd 0.39635 0.19668 0.13492 0.0
Nd1081 Nd 0.34062 0.1118 0.1404 0.0
C1082 C 0.44336 0.2599 0.12703 0.0
C1083 C 0.47459 0.29732 0.1295 0.0
C1084 C 0.50643 0.31558 0.1243 0.0
C1085 C 0.53584 0.35141 0.12642 0.0
C1086 C 0.53402 0.36996 0.13379 0.0
C1087 C 0.50224 0.35125 0.13907 0.0
C1088 C 0.4729 0.31531 0.13696 0.0
C1089 C 0.38855 0.19272 0.15244 0.0
C1090 C 0.43022 0.14468 0.14208 0.0
C1091 C 0.28594 0.04685 0.14648 0.0
C1092 C 0.24555 0.02012 0.14488 0.0
C1093 C 0.22241 0.03112 0.14065 0.0
C1094 C 0.1847 1.00472 0.13885 0.0
C1095 C 0.16933 0.96661 0.14117 0.0
C1096 C 0.19284 0.95591 0.1454 0.0
C1097 C 0.23037 0.98232 0.14724 0.0
C1098 C 0.37219 0.12031 0.12466 0.0
C1099 C 0.30568 0.16653 0.13475 0.0
O1100 O 0.44934 0.23149 0.12772 0.0
O1101 O 0.40961 0.25165 0.12948 0.0
O1102 O 0.41018 0.22349 0.14837 0.0
O1103 O 0.37292 0.16623 0.1472 0.0
O1104 O 0.43464 0.17175 0.13684 0.0
O1105 O 0.39733 0.12089 0.14561 0.0
O1106 O 0.29512 0.07956 0.14982 0.0
O1107 O 0.3091 0.04941 0.1405 0.0
O1108 O 0.36207 0.09142 0.12952 0.0
O1109 O 0.36138 0.14223 0.12764 0.0
O1110 O 0.29946 0.13313 0.13728 0.0
O1111 O 0.33976 0.19436 0.13296 0.0
H1112 H 0.5085 0.30215 0.11856 0.0
H1113 H 0.56014 0.36451 0.12229 0.0
H1114 H 0.49964 0.36466 0.14475 0.0
H1115 H 0.44872 0.30176 0.14113 0.0
H1116 H 0.23357 0.06002 0.13868 0.0
H1117 H 0.16757 1.01428 0.13567 0.0
H1118 H 0.18253 0.92688 0.14716 0.0
H1119 H 0.24778 0.97304 0.1504 0.0
Nd1120 Nd 0.8591 0.21603 0.13437 0.0
Nd1121 Nd 0.9473 0.24476 0.14054 0.0
C1122 C 0.79626 0.19847 0.12607 0.0
C1123 C 0.758 0.19052 0.12827 0.0
C1124 C 0.72941 0.1752 0.12215 0.0
C1125 C 0.6927 0.16641 0.12421 0.0
C1126 C 0.68374 0.17272 0.13247 0.0
C1127 C 0.71262 0.18813 0.13859 0.0
C1128 C 0.74935 0.19692 0.13652 0.0
C1129 C 0.86535 0.21249 0.15186 0.0
C1130 C 0.91373 0.30301 0.14086 0.0
C1131 C 1.00797 0.25385 0.14861 0.0
C1132 C 0.03884 0.2459 0.14671 0.0
C1133 C 0.05159 0.23096 0.15307 0.0
C1134 C 0.08002 0.22234 0.15138 0.0
C1135 C 0.09659 0.2285 0.14325 0.0
C1136 C 0.08364 0.24349 0.13688 0.0
C1137 C 0.05508 0.25196 0.13858 0.0
C1138 C 0.94342 0.26022 0.12345 0.0
C1139 C 0.89119 0.15592 0.13461 0.0
O1140 O 0.82366 0.23313 0.1271 0.0
O1141 O 0.80518 0.17351 0.12861 0.0
O1142 O 0.83406 0.20429 0.14807 0.0
O1143 O 0.89033 0.22171 0.1463 0.0
O1144 O 0.88448 0.27923 0.13624 0.0
O1145 O 0.93876 0.29491 0.1442 0.0
O1146 O 0.97452 0.2245 0.14971 0.0
O1147 O 1.00711 0.28068 0.14424 0.0
O1148 O 0.97413 0.26691 0.1273 0.0
O1149 O 0.91655 0.24174 0.12853 0.0
O1150 O 0.92318 0.18161 0.13809 0.0
O1151 O 0.86502 0.16352 0.1319 0.0
H1152 H 0.73542 0.16976 0.11577 0.0
H1153 H 0.6712 0.15416 0.11935 0.0
H1154 H 0.70698 0.19387 0.14497 0.0
H1155 H 0.771 0.20867 0.14135 0.0
H1156 H 0.03931 0.22565 0.15937 0.0
H1157 H 0.08858 0.21025 0.15642 0.0
H1158 H 0.09584 0.2491 0.13058 0.0
H1159 H 0.04566 0.2632 0.13352 0.0
Nd1160 Nd 0.84938 0.67132 0.13314 0.0
Nd1161 Nd 0.81348 0.7144 0.13888 0.0
C1162 C 0.86941 0.62391 0.12664 0.0
C1163 C 0.87337 0.59104 0.12886 0.0
C1164 C 0.88078 0.57218 0.12239 0.0
C1165 C 0.88703 0.54242 0.12431 0.0
C1166 C 0.88599 0.53072 0.13277 0.0
C1167 C 0.8782 0.54958 0.13925 0.0
C1168 C 0.87194 0.57944 0.13731 0.0
C1169 C 0.86353 0.69249 0.15011 0.0
C1170 C 0.76342 0.62496 0.14094 0.0
C1171 C 0.79867 0.76667 0.14469 0.0
C1172 C 0.81147 0.80724 0.14317 0.0
C1173 C 0.82301 0.83256 0.15001 0.0
C1174 C 0.83284 0.8703 0.14876 0.0
C1175 C 0.83121 0.88383 0.14061 0.0
C1176 C 0.82017 0.85844 0.13374 0.0
C1177 C 0.81054 0.82079 0.135 0.0
C1178 C 0.78847 0.68329 0.12319 0.0
C1179 C 0.90035 0.7592 0.1314 0.0
O1180 O 0.8355 0.61894 0.12601 0.0
O1181 O 0.89266 0.65562 0.13031 0.0
O1182 O 0.88816 0.69327 0.14488 0.0
O1183 O 0.83234 0.68007 0.14643 0.0
O1184 O 0.78917 0.62447 0.13601 0.0
O1185 O 0.76824 0.65689 0.1442 0.0
O1186 O 0.8218 0.75815 0.1485 0.0
O1187 O 0.77999 0.74321 0.13859 0.0
O1188 O 0.76812 0.68634 0.12904 0.0
O1189 O 0.82309 0.69907 0.12536 0.0
O1190 O 0.87554 0.75974 0.13661 0.0
O1191 O 0.89283 0.72784 0.12753 0.0
H1192 H 0.88236 0.5809 0.11583 0.0
H1193 H 0.89348 0.52909 0.11915 0.0
H1194 H 0.87671 0.54111 0.14583 0.0
H1195 H 0.86634 0.59371 0.14241 0.0
H1196 H 0.82404 0.82304 0.15638 0.0
H1197 H 0.84181 0.8889 0.1542 0.0
H1198 H 0.81803 0.86735 0.12739 0.0
H1199 H 0.80176 0.80216 0.12956 0.0
Nd1200 Nd 0.94508 0.71819 0.63767 0.0
Nd1201 Nd 0.86294 0.66641 0.63433 0.0
C1202 C 1.01413 0.7665 0.64305 0.0
C1203 C 0.04236 0.80646 0.64138 0.0
C1204 C 0.07934 0.82125 0.64432 0.0
C1205 C 0.10612 0.85921 0.64298 0.0
C1206 C 0.0966 0.88347 0.63867 0.0
C1207 C 0.05945 0.86834 0.63566 0.0
C1208 C 0.03266 0.83031 0.637 0.0
C1209 C 0.93065 0.69781 0.62059 0.0
C1210 C 0.89211 0.75391 0.63253 0.0
C1211 C 0.79468 0.61007 0.63085 0.0
C1212 C 0.75346 0.59148 0.63202 0.0
C1213 C 0.73006 0.56706 0.62567 0.0
C1214 C 0.69181 0.54266 0.62724 0.0
C1215 C 0.67596 0.5421 0.63522 0.0
C1216 C 0.69913 0.5683 0.64141 0.0
C1217 C 0.7375 0.59266 0.63983 0.0
C1218 C 0.87785 0.69683 0.6505 0.0
C1219 C 0.91653 0.62901 0.63819 0.0
O1220 O 0.98357 0.76031 0.64702 0.0
O1221 O 1.00715 0.74269 0.63685 0.0
O1222 O 0.95275 0.73187 0.62325 0.0
O1223 O 0.91465 0.67749 0.62695 0.0
O1224 O 0.92041 0.75776 0.63724 0.0
O1225 O 0.86926 0.72132 0.62889 0.0
O1226 O 0.81447 0.61129 0.63748 0.0
O1227 O 0.81208 0.6396 0.6259 0.0
O1228 O 0.85036 0.69307 0.64579 0.0
O1229 O 0.89647 0.68449 0.64665 0.0
O1230 O 0.88552 0.62551 0.6348 0.0
O1231 O 0.94379 0.66218 0.64081 0.0
H1232 H 0.08754 0.80341 0.64768 0.0
H1233 H 0.13446 0.86947 0.64528 0.0
H1234 H 0.05081 0.88604 0.6324 0.0
H1235 H 1.00426 0.81959 0.63469 0.0
H1236 H 0.74181 0.56526 0.61964 0.0
H1237 H 0.67522 0.5227 0.62234 0.0
H1238 H 0.68789 0.56919 0.64757 0.0
H1239 H 0.75499 0.61116 0.64486 0.0
Nd1240 Nd 0.34224 0.24518 0.63964 0.0
Nd1241 Nd 0.39521 0.21293 0.6336 0.0
C1242 C 0.28894 0.25588 0.64637 0.0
C1243 C 0.24896 0.24422 0.64464 0.0
C1244 C 0.22324 0.23327 0.65139 0.0
C1245 C 0.1859 0.22419 0.64994 0.0
C1246 C 0.17332 0.22602 0.64171 0.0
C1247 C 0.19911 0.23641 0.63494 0.0
C1248 C 0.23638 0.24527 0.63638 0.0
C1249 C 0.37295 0.26871 0.62387 0.0
C1250 C 0.30397 0.15638 0.63288 0.0
C1251 C 0.4408 0.19512 0.62551 0.0
C1252 C 0.469 0.18452 0.62797 0.0
C1253 C 0.48056 0.16681 0.62206 0.0
C1254 C 0.50679 0.15597 0.62434 0.0
C1255 C 0.52201 0.16258 0.6326 0.0
C1256 C 0.5101 0.18019 0.63853 0.0
C1257 C 0.48381 0.19099 0.63624 0.0
C1258 C 0.38546 0.20601 0.65111 0.0
C1259 C 0.43215 0.29927 0.64088 0.0
O1260 O 0.29639 0.23019 0.64913 0.0
O1261 O 0.31374 0.27866 0.64088 0.0
O1262 O 0.36301 0.28731 0.62884 0.0
O1263 O 0.36186 0.23567 0.6267 0.0
O1264 O 0.29912 0.18368 0.63599 0.0
O1265 O 0.33752 0.1617 0.63084 0.0
O1266 O 0.44923 0.22984 0.62706 0.0
O1267 O 0.40588 0.17069 0.62736 0.0
O1268 O 0.40445 0.19385 0.64694 0.0
O1269 O 0.37252 0.2198 0.64592 0.0
O1270 O 0.4347 0.27595 0.63548 0.0
O1271 O 0.40008 0.29072 0.64477 0.0
H1272 H 0.23215 0.23209 0.65781 0.0
H1273 H 0.16687 0.21563 0.65531 0.0
H1274 H 0.19082 0.23859 0.62853 0.0
H1275 H 0.25548 0.25352 0.63104 0.0
H1276 H 0.46938 0.16147 0.61565 0.0
H1277 H 0.5157 0.14305 0.61956 0.0
H1278 H 0.5209 0.18542 0.64496 0.0
H1279 H 0.47503 0.20436 0.64093 0.0
Nd1280 Nd 0.81329 0.1107 0.6399 0.0
Nd1281 Nd 0.84201 0.19866 0.63394 0.0
C1282 C 0.80292 0.04909 0.64775 0.0
C1283 C 0.80985 0.01777 0.6456 0.0
C1284 C 0.82069 1.0012 0.65199 0.0
C1285 C 0.82846 0.97238 0.65003 0.0
C1286 C 0.82556 0.95928 0.64163 0.0
C1287 C 0.81465 0.97605 0.63524 0.0
C1288 C 0.807 1.00498 0.6372 0.0
C1289 C 0.80065 0.11538 0.62264 0.0
C1290 C 0.90316 0.16852 0.63484 0.0
C1291 C 0.85864 0.26174 0.62585 0.0
C1292 C 0.87556 0.30211 0.62789 0.0
C1293 C 0.88057 0.3278 0.62145 0.0
C1294 C 0.89398 0.36574 0.62337 0.0
C1295 C 0.90261 0.37883 0.6318 0.0
C1296 C 0.89835 0.35302 0.63822 0.0
C1297 C 0.88497 0.31506 0.63628 0.0
C1298 C 0.84377 0.19209 0.65153 0.0
C1299 C 0.75324 0.13986 0.63797 0.0
O1300 O 0.83282 0.08213 0.64887 0.0
O1301 O 0.77633 0.05093 0.64353 0.0
O1302 O 0.79327 0.08454 0.62654 0.0
O1303 O 0.81873 0.14199 0.62781 0.0
O1304 O 0.87688 0.13579 0.63792 0.0
O1305 O 0.89611 0.19524 0.63228 0.0
O1306 O 0.8258 0.2395 0.62928 0.0
O1307 O 0.881 0.24748 0.62598 0.0
O1308 O 0.85277 0.22338 0.64766 0.0
O1309 O 0.83412 0.16682 0.64601 0.0
O1310 O 0.7781 0.16703 0.63304 0.0
O1311 O 0.76206 0.11858 0.64277 0.0
H1312 H 0.82349 1.01081 0.6585 0.0
H1313 H 0.8374 0.96083 0.65512 0.0
H1314 H 0.81166 0.96662 0.62872 0.0
H1315 H 0.79897 0.01742 0.63213 0.0
H1316 H 0.87329 0.31835 0.61494 0.0
H1317 H 0.8963 0.38453 0.61827 0.0
H1318 H 0.90506 0.36209 0.64477 0.0
H1319 H 0.88136 0.29571 0.64136 0.0
Nd1320 Nd 0.40079 0.27706 0.22776 0.0
Nd1321 Nd 0.35014 0.19253 0.23331 0.0
C1322 C 0.45485 0.34632 0.22406 0.0
C1323 C 0.4962 0.37088 0.22345 0.0
C1324 C 0.52087 0.36146 0.22753 0.0
C1325 C 0.55932 0.38799 0.22825 0.0
C1326 C 0.57397 0.42467 0.22496 0.0
C1327 C 0.54922 0.43336 0.22061 0.0
C1328 C 0.51088 0.40681 0.21987 0.0
C1329 C 0.35808 0.26602 0.24198 0.0
C1330 C 0.43992 0.22693 0.23424 0.0
C1331 C 0.30251 0.12909 0.24106 0.0
C1332 C 0.2734 0.09066 0.23854 0.0
C1333 C 0.23889 0.0729 0.24283 0.0
C1334 C 0.2111 0.03642 0.24062 0.0
C1335 C 0.21723 0.01667 0.23406 0.0
C1336 C 0.25183 0.03473 0.22972 0.0
C1337 C 0.27955 0.07133 0.23192 0.0
C1338 C 0.36771 0.19471 0.21626 0.0
C1339 C 0.31211 0.23719 0.22351 0.0
O1340 O 0.43683 0.32076 0.21818 0.0
O1341 O 0.44187 0.33461 0.23171 0.0
O1342 O 0.36447 0.29058 0.23613 0.0
O1343 O 0.3755 0.24805 0.24054 0.0
O1344 O 0.44323 0.25623 0.22998 0.0
O1345 O 0.40745 0.2014 0.23748 0.0
O1346 O 0.29509 0.15616 0.23962 0.0
O1347 O 0.3375 0.13889 0.23943 0.0
O1348 O 0.34785 0.16382 0.22045 0.0
O1349 O 0.37784 0.22218 0.22118 0.0
O1350 O 0.30784 0.20982 0.22867 0.0
O1351 O 0.34569 0.26485 0.22111 0.0
H1352 H 0.51018 0.33405 0.23043 0.0
H1353 H 0.57744 0.37992 0.23152 0.0
H1354 H 0.55908 0.46129 0.21807 0.0
H1355 H 0.49234 0.41498 0.21683 0.0
H1356 H 0.23339 0.0873 0.24792 0.0
H1357 H 0.18461 0.02387 0.24399 0.0
H1358 H 0.25776 0.02041 0.2247 0.0
H1359 H 0.30586 0.0844 0.22845 0.0
Nd1360 Nd 0.80002 0.15 0.22855 0.0
Nd1361 Nd 0.88671 0.1816 0.23249 0.0
C1362 C 0.73071 0.12775 0.22312 0.0
C1363 C 0.70233 0.13955 0.22458 0.0
C1364 C 0.71243 0.1747 0.22818 0.0
C1365 C 0.68521 0.18537 0.22958 0.0
C1366 C 0.64719 0.16112 0.22745 0.0
C1367 C 0.63733 0.12585 0.22388 0.0
C1368 C 0.66455 0.11525 0.22247 0.0
C1369 C 0.81595 0.14165 0.24534 0.0
C1370 C 0.85232 0.23781 0.23397 0.0
C1371 C 0.95244 0.19953 0.2395 0.0
C1372 C 0.98991 0.20687 0.23671 0.0
C1373 C 1.02079 0.22563 0.24217 0.0
C1374 C 0.05632 0.23188 0.23976 0.0
C1375 C 0.0618 0.21943 0.23183 0.0
C1376 C 0.03078 0.20114 0.2263 0.0
C1377 C 0.9952 0.19492 0.22872 0.0
C1378 C 0.87854 0.19341 0.21552 0.0
C1379 C 0.8369 0.09494 0.22542 0.0
O1380 O 0.76101 0.15119 0.21892 0.0
O1381 O 0.73812 0.11238 0.22957 0.0
O1382 O 0.79275 0.153 0.24308 0.0
O1383 O 0.83199 0.13907 0.23876 0.0
O1384 O 0.8232 0.21358 0.22943 0.0
O1385 O 0.87548 0.22807 0.23753 0.0
O1386 O 0.9247 0.165 0.23873 0.0
O1387 O 0.94289 0.22444 0.23736 0.0
O1388 O 0.91072 0.20355 0.21905 0.0
O1389 O 0.853 0.17825 0.22101 0.0
O1390 O 0.86939 0.12187 0.2284 0.0
O1391 O 0.80701 0.09926 0.22442 0.0
H1392 H 0.7414 0.19395 0.22988 0.0
H1393 H 0.69412 0.21288 0.23225 0.0
H1394 H 0.60839 0.1061 0.22227 0.0
H1395 H 0.65601 0.08791 0.21975 0.0
H1396 H 1.01738 0.23527 0.24833 0.0
H1397 H 0.07956 0.24657 0.24413 0.0
H1398 H 0.03376 0.19082 0.22019 0.0
H1399 H 0.97172 0.1804 0.2244 0.0
Nd1400 Nd 0.93259 0.67392 0.22707 0.0
Nd1401 Nd 0.89922 0.72681 0.23134 0.0
C1402 C 0.95659 0.6283 0.22159 0.0
C1403 C 0.94562 0.58853 0.22331 0.0
C1404 C 0.91132 0.56399 0.2273 0.0
C1405 C 0.90121 0.52644 0.22894 0.0
C1406 C 0.92518 0.51247 0.22665 0.0
C1407 C 0.95963 0.53737 0.22269 0.0
C1408 C 0.96969 0.57489 0.22105 0.0
C1409 C 0.93872 0.6954 0.24406 0.0
C1410 C 0.84429 0.63566 0.23206 0.0
C1411 C 0.8789 0.77203 0.23877 0.0
C1412 C 0.87057 0.80227 0.23648 0.0
C1413 C 0.89036 0.8373 0.24054 0.0
C1414 C 0.88251 0.86608 0.2387 0.0
C1415 C 0.85439 0.86057 0.2328 0.0
C1416 C 0.83478 0.82548 0.22868 0.0
C1417 C 0.84278 0.79668 0.23049 0.0
C1418 C 0.8907 0.71188 0.21409 0.0
C1419 C 0.98652 0.76604 0.22467 0.0
O1420 O 0.93211 0.63397 0.21748 0.0
O1421 O 0.9723 0.65192 0.22787 0.0
O1422 O 0.92881 0.66153 0.24154 0.0
O1423 O 0.94172 0.71481 0.23761 0.0
O1424 O 0.86949 0.63218 0.22757 0.0
O1425 O 0.85253 0.66793 0.23571 0.0
O1426 O 0.91387 0.77996 0.23811 0.0
O1427 O 0.85499 0.73766 0.23637 0.0
O1428 O 0.88056 0.73331 0.21794 0.0
O1429 O 0.90495 0.69962 0.21943 0.0
O1430 O 0.95936 0.77048 0.22797 0.0
O1431 O 0.98262 0.73232 0.22316 0.0
H1432 H 0.89228 0.57385 0.22913 0.0
H1433 H 0.87428 0.50822 0.23189 0.0
H1434 H 0.97916 0.52801 0.22094 0.0
H1435 H 0.99639 0.59332 0.21802 0.0
H1436 H 0.91196 0.84242 0.24516 0.0
H1437 H 0.89879 0.89284 0.24189 0.0
H1438 H 0.81274 0.81999 0.22415 0.0
H1439 H 0.82699 0.77 0.22724 0.0
C1440 C 0.42929 0.14542 0.11546 0.0
C1441 C 0.39027 0.12257 0.11638 0.0
C1442 C 0.44893 0.13849 0.10898 0.0
C1443 C 0.42904 0.10791 0.10332 0.0
C1444 C 0.38937 0.08593 0.10403 0.0
C1445 C 0.37066 0.09336 0.11057 0.0
C1446 C 0.49106 0.1629 0.10841 0.0
C1447 C 0.36673 0.05349 0.09808 0.0
C1448 C 0.46321 0.0981 0.08157 0.0
C1449 C 0.47012 0.06819 0.08284 0.0
C1450 C 0.45238 0.11316 0.08829 0.0
C1451 C 0.44893 0.09846 0.09658 0.0
C1452 C 0.4594 0.07067 0.09805 0.0
C1453 C 0.46975 0.05566 0.09114 0.0
C1454 C 0.44199 0.14292 0.08636 0.0
C1455 C 0.45667 0.05458 0.10681 0.0
H1456 H 0.44481 0.16716 0.12012 0.0
H1457 H 0.34068 0.07489 0.11143 0.0
H1458 H 0.50453 0.14525 0.10869 0.0
H1459 H 0.49877 0.17779 0.10222 0.0
H1460 H 0.50269 0.18409 0.11359 0.0
H1461 H 0.33606 0.03973 0.09934 0.0
H1462 H 0.37195 0.06347 0.09139 0.0
H1463 H 0.37564 0.03214 0.09873 0.0
H1464 H 0.46369 0.10803 0.07516 0.0
H1465 H 0.47459 0.03229 0.09214 0.0
H1466 H 0.46238 0.16967 0.08948 0.0
H1467 H 0.41371 0.13464 0.08891 0.0
H1468 H 0.44188 0.14801 0.07944 0.0
H1469 H 0.46949 0.07741 0.1116 0.0
H1470 H 0.4707 0.03743 0.10717 0.0
H1471 H 0.42664 0.03648 0.10853 0.0
C1472 C 0.9237 0.30217 0.11594 0.0
C1473 C 0.94491 0.2839 0.11612 0.0
C1474 C 0.93262 0.33215 0.11022 0.0
C1475 C 0.96293 0.34359 0.10443 0.0
C1476 C 0.98316 0.3239 0.10436 0.0
C1477 C 0.97418 0.29479 0.11023 0.0
C1478 C 0.91068 0.3526 0.11064 0.0
C1479 C 1.01496 0.33406 0.09817 0.0
C1480 C 0.97167 0.39273 0.0834 0.0
C1481 C 1.00381 0.42805 0.08467 0.0
C1482 C 0.95647 0.3659 0.08992 0.0
C1483 C 0.97293 0.37477 0.0981 0.0
C1484 C 1.00293 0.4119 0.09968 0.0
C1485 C 1.0184 0.43807 0.09291 0.0
C1486 C 0.92506 0.32685 0.08781 0.0
C1487 C 1.02078 0.42296 0.10835 0.0
H1488 H 0.90152 0.29451 0.12055 0.0
H1489 H 0.99103 0.28116 0.11041 0.0
H1490 H 0.89821 0.35197 0.10434 0.0
H1491 H 0.88784 0.34025 0.11544 0.0
H1492 H 0.9299 0.38256 0.11225 0.0
H1493 H 0.02727 0.31544 0.09879 0.0
H1494 H 1.00478 0.33217 0.09156 0.0
H1495 H 0.03751 0.36352 0.09924 0.0
H1496 H 0.96031 0.38478 0.07703 0.0
H1497 H 0.04354 0.46499 0.09393 0.0
H1498 H 0.90039 0.31955 0.09191 0.0
H1499 H 0.93409 0.30592 0.08908 0.0
H1500 H 0.91634 0.32419 0.08105 0.0
H1501 H 0.99901 0.41198 0.1134 0.0
H1502 H 0.03822 0.45397 0.10902 0.0
H1503 H 0.03907 0.41053 0.10937 0.0
C1504 C 0.64749 0.58465 0.08333 0.0
C1505 C 0.62902 0.60568 0.08315 0.0
C1506 C 0.67695 0.59322 0.08917 0.0
C1507 C 0.68776 0.62308 0.09507 0.0
C1508 C 0.6679 0.64314 0.09512 0.0
C1509 C 0.63924 0.63445 0.08914 0.0
C1510 C 0.69741 0.57129 0.08883 0.0
C1511 C 0.67718 0.67423 0.10145 0.0
C1512 C 0.73449 0.62973 0.11634 0.0
C1513 C 0.76988 0.66201 0.11533 0.0
C1514 C 0.70839 0.61524 0.10966 0.0
C1515 C 0.71817 0.63254 0.10157 0.0
C1516 C 0.75542 0.66278 0.10025 0.0
C1517 C 0.7808 0.67754 0.10718 0.0
C1518 C 0.66933 0.58327 0.11151 0.0
C1519 C 0.76745 0.68154 0.09169 0.0
H1520 H 0.64035 0.56286 0.07864 0.0
H1521 H 0.62543 0.65112 0.08898 0.0
H1522 H 0.69572 0.55805 0.09508 0.0
H1523 H 0.68577 0.54901 0.08388 0.0
H1524 H 0.72761 0.59064 0.08746 0.0
H1525 H 0.65877 0.68675 0.10074 0.0
H1526 H 0.67413 0.66319 0.10802 0.0
H1527 H 0.70682 0.69682 0.10065 0.0
H1528 H 0.72594 0.61753 0.12263 0.0
H1529 H 0.80784 0.70277 0.10636 0.0
H1530 H 0.66508 0.55748 0.10825 0.0
H1531 H 0.64765 0.5896 0.10912 0.0
H1532 H 0.6647 0.57749 0.11843 0.0
H1533 H 0.75713 0.66028 0.08653 0.0
H1534 H 0.79851 0.69913 0.09121 0.0
H1535 H 0.75504 0.69986 0.09066 0.0
C1536 C 0.1158 0.48179 0.44969 0.0
C1537 C 0.07781 0.47165 0.44903 0.0
C1538 C 0.13369 0.47233 0.44331 0.0
C1539 C 0.11277 0.45103 0.43619 0.0
C1540 C 0.07491 0.44264 0.43527 0.0
C1541 C 0.05791 0.45307 0.4417 0.0
C1542 C 0.17431 0.48337 0.4446 0.0
C1543 C 0.05153 0.42035 0.42777 0.0
C1544 C 0.15607 0.43753 0.41602 0.0
C1545 C 0.14894 0.40053 0.41695 0.0
C1546 C 0.14686 0.4553 0.42246 0.0
C1547 C 0.12923 0.43535 0.42997 0.0
C1548 C 0.12484 0.3991 0.43124 0.0
C1549 C 0.13459 0.38201 0.42469 0.0
C1550 C 0.15391 0.49459 0.42101 0.0
C1551 C 0.10761 0.37742 0.43931 0.0
H1552 H 0.13108 0.49521 0.45546 0.0
H1553 H 0.02822 0.44403 0.4413 0.0
H1554 H 0.17608 0.4652 0.44959 0.0
H1555 H 0.18803 0.48094 0.43876 0.0
H1556 H 0.19032 0.51289 0.44686 0.0
H1557 H 0.02342 0.41813 0.42769 0.0
H1558 H 0.06624 0.43358 0.42174 0.0
H1559 H 0.0476 0.39156 0.42797 0.0
H1560 H 0.16644 0.45174 0.40999 0.0
H1561 H 0.12809 0.35308 0.42536 0.0
H1562 H 0.16928 0.51277 0.4265 0.0
H1563 H 0.12665 0.49398 0.42051 0.0
H1564 H 0.17043 0.50735 0.41513 0.0
H1565 H 0.12272 0.39486 0.44491 0.0
H1566 H 0.1084 0.35077 0.43958 0.0
H1567 H 0.07791 0.3707 0.43976 0.0
C1568 C 0.59034 0.65305 0.44949 0.0
C1569 C 0.60244 0.62655 0.44933 0.0
C1570 C 0.59978 0.67971 0.44295 0.0
C1571 C 0.62273 0.68058 0.43613 0.0
C1572 C 0.63307 0.65232 0.43568 0.0
C1573 C 0.62288 0.62572 0.44229 0.0
C1574 C 0.58742 0.70857 0.44369 0.0
C1575 C 0.6571 0.65175 0.42849 0.0
C1576 C 0.63557 0.73466 0.41554 0.0
C1577 C 0.67167 0.76589 0.41654 0.0
C1578 C 0.61825 0.70796 0.42205 0.0
C1579 C 0.63776 0.71204 0.42975 0.0
C1580 C 0.67315 0.74504 0.43103 0.0
C1581 C 0.68973 0.77159 0.4244 0.0
C1582 C 0.58027 0.67396 0.42041 0.0
C1583 C 0.69472 0.75095 0.43919 0.0
H1584 H 0.5756 0.65463 0.45506 0.0
H1585 H 0.63346 0.60621 0.44229 0.0
H1586 H 0.61142 0.73552 0.44591 0.0
H1587 H 0.57841 0.71388 0.43744 0.0
H1588 H 0.56389 0.6996 0.44827 0.0
H1589 H 0.66052 0.62655 0.42872 0.0
H1590 H 0.64455 0.65228 0.42228 0.0
H1591 H 0.68534 0.67725 0.42882 0.0
H1592 H 0.62182 0.72966 0.40942 0.0
H1593 H 0.71805 0.79506 0.42512 0.0
H1594 H 0.5614 0.66807 0.42594 0.0
H1595 H 0.58366 0.64902 0.41946 0.0
H1596 H 0.56658 0.6776 0.41467 0.0
H1597 H 0.67652 0.74727 0.44473 0.0
H1598 H 0.72011 0.77932 0.43951 0.0
H1599 H 0.70362 0.72954 0.43971 0.0
C1600 C 0.31432 0.91914 0.41765 0.0
C1601 C 0.29664 0.94089 0.41723 0.0
C1602 C 0.34356 0.92769 0.42356 0.0
C1603 C 0.35465 0.95799 0.42935 0.0
C1604 C 0.33534 0.9786 0.4292 0.0
C1605 C 0.30709 0.97008 0.42312 0.0
C1606 C 0.36306 0.90478 0.42346 0.0
C1607 C 0.34503 1.01032 0.43537 0.0
C1608 C 0.4016 0.9666 0.4507 0.0
C1609 C 0.4373 0.99838 0.44953 0.0
C1610 C 0.37535 0.95144 0.44405 0.0
C1611 C 0.3851 0.96776 0.43587 0.0
C1612 C 0.42253 0.99743 0.43441 0.0
C1613 C 0.44818 1.01272 0.44129 0.0
C1614 C 0.33615 0.9199 0.44599 0.0
C1615 C 0.43455 1.01486 0.42572 0.0
H1616 H 0.30681 0.89679 0.4131 0.0
H1617 H 0.29388 0.98728 0.42278 0.0
H1618 H 0.39391 0.92314 0.42414 0.0
H1619 H 0.35307 0.88498 0.4289 0.0
H1620 H 0.35723 0.88819 0.41751 0.0
H1621 H 0.32685 0.02305 0.43455 0.0
H1622 H 0.34201 0.99989 0.442 0.0
H1623 H 0.37474 0.03262 0.4345 0.0
H1624 H 0.39305 0.95528 0.45706 0.0
H1625 H 0.47545 0.03748 0.44033 0.0
H1626 H 0.33218 0.91251 0.45285 0.0
H1627 H 0.33035 0.89458 0.44229 0.0
H1628 H 0.315 0.92786 0.4441 0.0
H1629 H 0.42526 0.99267 0.42079 0.0
H1630 H 0.46551 0.03336 0.42528 0.0
H1631 H 0.42104 0.03189 0.42431 0.0
C1632 C 0.64386 0.0313 0.94374 0.0
C1633 C 0.61163 1.01277 0.94882 0.0
C1634 C 0.65048 1.01301 0.93697 0.0
C1635 C 0.62475 0.97457 0.93532 0.0
C1636 C 0.59126 0.95599 0.94023 0.0
C1637 C 0.58491 0.97547 0.94686 0.0
C1638 C 0.68575 0.03472 0.93174 0.0
C1639 C 0.56256 0.91531 0.93866 0.0
C1640 C 0.63556 0.945 0.91311 0.0
C1641 C 0.6628 0.93415 0.91432 0.0
C1642 C 0.62115 0.95598 0.91993 0.0
C1643 C 0.63316 0.95496 0.9283 0.0
C1644 C 0.65767 0.94022 0.92966 0.0
C1645 C 0.67258 0.93032 0.92263 0.0
C1646 C 0.59534 0.97148 0.91807 0.0
C1647 C 0.67028 0.93747 0.93849 0.0
H1648 H 0.66494 0.05992 0.94532 0.0
H1649 H 0.56032 0.9607 0.95086 0.0
H1650 H 0.70423 0.0224 0.93258 0.0
H1651 H 0.6785 0.03272 0.92489 0.0
H1652 H 0.70183 0.0649 0.93353 0.0
H1653 H 0.54415 0.90235 0.94428 0.0
H1654 H 0.5445 0.91347 0.93323 0.0
H1655 H 0.57625 0.89867 0.93702 0.0
H1656 H 0.62744 0.94756 0.90669 0.0
H1657 H 0.69367 0.92216 0.92364 0.0
H1658 H 0.60653 0.99975 0.92096 0.0
H1659 H 0.56736 0.95286 0.92092 0.0
H1660 H 0.59172 0.97391 0.91115 0.0
H1661 H 0.69214 0.9658 0.94064 0.0
H1662 H 0.68233 0.91851 0.93872 0.0
H1663 H 0.64648 0.92709 0.94303 0.0
C1664 C 0.11277 0.76522 0.9236 0.0
C1665 C 0.1407 0.77195 0.91762 0.0
C1666 C 0.10364 0.73863 0.93014 0.0
C1667 C 0.12272 0.71785 0.93072 0.0
C1668 C 0.15216 0.72575 0.92491 0.0
C1669 C 0.16057 0.75247 0.91838 0.0
C1670 C 0.0723 0.73158 0.93621 0.0
C1671 C 0.17372 0.7049 0.92537 0.0
C1672 C 0.11144 0.67244 0.9524 0.0
C1673 C 0.08008 0.63654 0.95118 0.0
C1674 C 0.12713 0.69834 0.9457 0.0
C1675 C 0.1115 0.68811 0.93746 0.0
C1676 C 0.08188 0.65068 0.93602 0.0
C1677 C 0.06635 0.6253 0.94292 0.0
C1678 C 0.15869 0.7376 0.94758 0.0
C1679 C 0.06456 0.63841 0.92733 0.0
H1680 H 0.09636 0.77912 0.92283 0.0
H1681 H 0.18115 0.75646 0.91358 0.0
H1682 H 0.04911 0.70209 0.93558 0.0
H1683 H 0.08255 0.73545 0.94286 0.0
H1684 H 0.06082 0.75064 0.93504 0.0
H1685 H 0.19486 0.71325 0.92021 0.0
H1686 H 0.18838 0.71044 0.93158 0.0
H1687 H 0.15407 0.67417 0.92498 0.0
H1688 H 0.1221 0.6813 0.95879 0.0
H1689 H 0.04171 0.59792 0.94195 0.0
H1690 H 0.15101 0.75876 0.94552 0.0
H1691 H 0.18416 0.74308 0.94399 0.0
H1692 H 0.16567 0.7419 0.95445 0.0
H1693 H 0.04846 0.65275 0.92575 0.0
H1694 H 0.04524 0.60755 0.92698 0.0
H1695 H 0.08675 0.64661 0.92243 0.0
C1696 C 0.44887 0.46405 0.94065 0.0
C1697 C 0.43861 0.46561 0.94907 0.0
C1698 C 0.42241 0.45422 0.93396 0.0
C1699 C 0.38484 0.44521 0.93577 0.0
C1700 C 0.37588 0.45066 0.94413 0.0
C1701 C 0.4027 0.46062 0.95062 0.0
C1702 C 0.43376 0.45045 0.92506 0.0
C1703 C 0.33673 0.44208 0.94648 0.0
C1704 C 0.31108 0.42033 0.91807 0.0
C1705 C 0.29582 0.38125 0.91741 0.0
C1706 C 0.34015 0.44181 0.92395 0.0
C1707 C 0.35362 0.42368 0.92947 0.0
C1708 C 0.33641 0.38395 0.92917 0.0
C1709 C 0.30829 0.3635 0.92311 0.0
C1710 C 0.35776 0.48402 0.9239 0.0
C1711 C 0.34847 0.36291 0.93508 0.0
H1712 H 0.47629 0.46729 0.93938 0.0
H1713 H 0.3943 0.46124 0.95712 0.0
H1714 H 0.42142 0.42023 0.92347 0.0
H1715 H 0.42278 0.46294 0.9204 0.0
H1716 H 0.46477 0.46429 0.92438 0.0
H1717 H 0.33607 0.45368 0.95281 0.0
H1718 H 0.32546 0.45372 0.94169 0.0
H1719 H 0.31778 0.41116 0.94665 0.0
H1720 H 0.30185 0.43445 0.91371 0.0
H1721 H 0.29684 0.33336 0.92263 0.0
H1722 H 0.38469 0.49634 0.92035 0.0
H1723 H 0.36417 0.49568 0.93043 0.0
H1724 H 0.33932 0.49306 0.92076 0.0
H1725 H 0.37831 0.37144 0.93388 0.0
H1726 H 0.33119 0.33194 0.9343 0.0
H1727 H 0.34632 0.37002 0.94179 0.0
C1728 C 0.96901 0.70507 0.60738 0.0
C1729 C 0.9429 0.68188 0.61352 0.0
C1730 C 0.98487 0.69062 0.60155 0.0
C1731 C 0.97526 0.65225 0.60199 0.0
C1732 C 0.94844 0.62864 0.60808 0.0
C1733 C 0.93223 0.6435 0.61363 0.0
C1734 C 1.01231 0.71658 0.59498 0.0
C1735 C 0.93771 0.58781 0.60896 0.0
C1736 C 0.98935 0.60378 0.58275 0.0
C1737 C 0.02432 0.60648 0.58441 0.0
C1738 C 0.97368 0.61915 0.5883 0.0
C1739 C 0.99238 0.63644 0.59596 0.0
C1740 C 0.02704 0.63807 0.59786 0.0
C1741 C 0.04294 0.62377 0.59199 0.0
C1742 C 0.93738 0.61754 0.58582 0.0
C1743 C 0.04746 0.65519 0.60606 0.0
H1744 H 0.97761 0.73469 0.60723 0.0
H1745 H 0.91219 0.62513 0.61833 0.0
H1746 H 0.04024 0.71918 0.59602 0.0
H1747 H 1.00282 0.70467 0.58852 0.0
H1748 H 1.01555 0.74511 0.59517 0.0
H1749 H 0.91651 0.57315 0.61403 0.0
H1750 H 0.9262 0.57282 0.60287 0.0
H1751 H 0.96306 0.58576 0.61045 0.0
H1752 H 0.97472 0.59097 0.57689 0.0
H1753 H 0.07003 0.62628 0.59331 0.0
H1754 H 0.94053 0.64599 0.58615 0.0
H1755 H 0.91484 0.59933 0.59034 0.0
H1756 H 0.92833 0.60636 0.5793 0.0
H1757 H 0.05566 0.68534 0.60631 0.0
H1758 H 0.07313 0.65283 0.60679 0.0
H1759 H 0.02857 0.64113 0.61154 0.0
C1760 C 0.46694 0.38675 0.58153 0.0
C1761 C 0.47289 0.42316 0.58287 0.0
C1762 C 0.45575 0.36037 0.58815 0.0
C1763 C 0.4511 0.37074 0.59644 0.0
C1764 C 0.4607 0.40867 0.59801 0.0
C1765 C 0.4713 0.43449 0.59118 0.0
C1766 C 0.44596 0.32053 0.58612 0.0
C1767 C 0.4567 0.42112 0.60677 0.0
C1768 C 0.37212 0.29517 0.60985 0.0
C1769 C 0.39156 0.28532 0.61568 0.0
C1770 C 0.39115 0.32228 0.60351 0.0
C1771 C 0.43094 0.34072 0.60302 0.0
C1772 C 0.4507 0.32985 0.6087 0.0
C1773 C 0.43075 0.30226 0.61496 0.0
C1774 C 0.36867 0.33226 0.59752 0.0
C1775 C 0.49299 0.34865 0.60842 0.0
H1776 H 0.46824 0.37789 0.57511 0.0
H1777 H 0.47532 0.46235 0.59225 0.0
H1778 H 0.46514 0.3135 0.5896 0.0
H1779 H 0.4169 0.3004 0.5882 0.0
H1780 H 0.44801 0.31627 0.57922 0.0
H1781 H 0.47052 0.45222 0.60726 0.0
H1782 H 0.42643 0.40897 0.60829 0.0
H1783 H 0.46897 0.41074 0.61163 0.0
H1784 H 0.34199 0.28311 0.61057 0.0
H1785 H 0.44613 0.29582 0.61962 0.0
H1786 H 0.37483 0.32862 0.59084 0.0
H1787 H 0.37684 0.36223 0.59836 0.0
H1788 H 0.33791 0.31471 0.59859 0.0
H1789 H 0.50229 0.34536 0.60202 0.0
H1790 H 0.50421 0.33692 0.61323 0.0
H1791 H 0.50547 0.37924 0.60959 0.0
C1792 C 0.76916 0.14236 0.61321 0.0
C1793 C 0.77797 0.11415 0.61509 0.0
C1794 C 0.74116 0.13623 0.60712 0.0
C1795 C 0.72208 0.10142 0.6027 0.0
C1796 C 0.73233 0.07375 0.60434 0.0
C1797 C 0.75987 0.08046 0.61046 0.0
C1798 C 0.73167 0.16676 0.60548 0.0
C1799 C 0.71378 0.03654 0.5997 0.0
C1800 C 0.62732 0.05504 0.59121 0.0
C1801 C 0.63922 0.05871 0.58274 0.0
C1802 C 0.65386 0.07241 0.59786 0.0
C1803 C 0.69297 0.09373 0.59597 0.0
C1804 C 0.70428 0.10064 0.58737 0.0
C1805 C 0.67751 0.08269 0.58094 0.0
C1806 C 0.64038 0.06513 0.60695 0.0
C1807 C 0.74523 0.12336 0.5849 0.0
H1808 H 0.78313 0.16863 0.61667 0.0
H1809 H 0.76653 0.05851 0.61181 0.0
H1810 H 0.74106 0.17843 0.59901 0.0
H1811 H 0.7008 0.15506 0.60573 0.0
H1812 H 0.74534 0.19011 0.61014 0.0
H1813 H 0.72477 0.01792 0.60175 0.0
H1814 H 0.683 0.02165 0.60082 0.0
H1815 H 0.71839 0.04134 0.59276 0.0
H1816 H 0.59799 0.03619 0.5927 0.0
H1817 H 0.68724 0.08512 0.57445 0.0
H1818 H 0.65566 0.09109 0.61081 0.0
H1819 H 0.64615 0.04368 0.60974 0.0
H1820 H 0.60972 0.05466 0.6074 0.0
H1821 H 0.76008 0.14908 0.58884 0.0
H1822 H 0.74882 0.13172 0.5781 0.0
H1823 H 0.75898 0.1063 0.586 0.0
C1824 C 0.77017 0.69518 0.75644 0.0
C1825 C 0.80017 0.71235 0.75069 0.0
C1826 C 0.76302 0.71618 0.76244 0.0
C1827 C 0.78608 0.75584 0.7627 0.0
C1828 C 0.81716 0.77344 0.75705 0.0
C1829 C 0.8241 0.75144 0.75117 0.0
C1830 C 0.73019 0.69575 0.76844 0.0
C1831 C 0.84269 0.81549 0.75709 0.0
C1832 C 0.73493 0.79917 0.77433 0.0
C1833 C 0.74734 0.80028 0.78268 0.0
C1834 C 0.75013 0.78835 0.76753 0.0
C1835 C 0.77775 0.7778 0.76916 0.0
C1836 C 0.79252 0.78228 0.77747 0.0
C1837 C 0.77744 0.79376 0.78407 0.0
C1838 C 0.73434 0.78511 0.75872 0.0
C1839 C 0.82205 0.77182 0.77959 0.0
H1840 H 0.75136 0.66505 0.75606 0.0
H1841 H 0.84711 0.76507 0.74672 0.0
H1842 H 0.74011 0.70198 0.77512 0.0
H1843 H 0.70978 0.70569 0.76749 0.0
H1844 H 0.71533 0.6648 0.76752 0.0
H1845 H 0.82618 0.8301 0.75764 0.0
H1846 H 0.86162 0.82357 0.76268 0.0
H1847 H 0.86028 0.82554 0.75126 0.0
H1848 H 0.71141 0.80367 0.77321 0.0
H1849 H 0.78723 0.79469 0.79051 0.0
H1850 H 0.71488 0.75505 0.75724 0.0
H1851 H 0.75718 0.79609 0.75391 0.0
H1852 H 0.71864 0.80058 0.75813 0.0
H1853 H 0.81283 0.74267 0.77749 0.0
H1854 H 0.82809 0.7737 0.7865 0.0
H1855 H 0.84845 0.79081 0.77616 0.0
C1856 C 0.25414 0.97538 0.7808 0.0
C1857 C 0.27353 0.9554 0.78154 0.0
C1858 C 0.26314 1.00255 0.77437 0.0
C1859 C 0.29275 1.01045 0.76862 0.0
C1860 C 0.31119 0.98901 0.76911 0.0
C1861 C 0.30145 0.96193 0.77558 0.0
C1862 C 0.24229 0.02413 0.774 0.0
C1863 C 0.3427 0.9961 0.7631 0.0
C1864 C 0.30663 0.06 0.74737 0.0
C1865 C 0.33806 0.09548 0.74893 0.0
C1866 C 0.29016 0.03286 0.75381 0.0
C1867 C 0.30517 0.04134 0.76213 0.0
C1868 C 0.33496 0.07829 0.76393 0.0
C1869 C 0.35121 0.10494 0.75729 0.0
C1870 C 0.25845 0.99417 0.75156 0.0
C1871 C 0.3517 0.0887 0.77272 0.0
H1872 H 0.23358 0.97153 0.78561 0.0
H1873 H 0.31753 0.94768 0.77634 0.0
H1874 H 0.26224 0.05457 0.77488 0.0
H1875 H 0.2292 0.0207 0.76765 0.0
H1876 H 0.22 1.01469 0.77892 0.0
H1877 H 0.3532 0.97612 0.7641 0.0
H1878 H 0.33309 0.99368 0.75642 0.0
H1879 H 0.36643 0.02514 0.76399 0.0
H1880 H 0.2966 0.05241 0.7409 0.0
H1881 H 0.37603 0.13192 0.75851 0.0
H1882 H 0.25172 0.99143 0.74468 0.0
H1883 H 0.23291 0.9881 0.75521 0.0
H1884 H 0.26585 0.97246 0.7533 0.0
H1885 H 0.32922 0.08008 0.77755 0.0
H1886 H 0.37151 0.11937 0.77334 0.0
H1887 H 0.36712 0.07351 0.77414 0.0
C1888 C 0.97074 0.26365 0.75704 0.0
C1889 C 0.98329 0.26255 0.74882 0.0
C1890 C 0.99583 0.27496 0.76404 0.0
C1891 C 0.03429 0.28593 0.76274 0.0
C1892 C 0.04593 0.28165 0.75456 0.0
C1893 C 1.02028 0.26965 0.74777 0.0
C1894 C 0.98189 0.27792 0.77271 0.0
C1895 C 0.08629 0.29254 0.7528 0.0
C1896 C 0.10721 0.36817 0.77589 0.0
C1897 C 0.11965 0.35085 0.78171 0.0
C1898 C 0.07981 0.34735 0.76974 0.0
C1899 C 0.06347 0.3077 0.76942 0.0
C1900 C 0.07644 0.28995 0.77518 0.0
C1901 C 0.10472 0.31179 0.78119 0.0
C1902 C 0.06797 0.36792 0.76362 0.0
C1903 C 0.05999 0.24788 0.77512 0.0
H1904 H 0.94235 0.25847 0.75792 0.0
H1905 H 0.03006 0.26845 0.74144 0.0
H1906 H 0.99272 0.26642 0.77765 0.0
H1907 H 0.99249 0.30796 0.77424 0.0
H1908 H 0.9507 0.26276 0.77302 0.0
H1909 H 0.09163 0.29115 0.74593 0.0
H1910 H 0.10562 0.32159 0.75503 0.0
H1911 H 0.09338 0.27346 0.75631 0.0
H1912 H 0.11831 0.39827 0.77631 0.0
H1913 H 0.1137 0.29803 0.78572 0.0
H1914 H 0.03752 0.35779 0.76435 0.0
H1915 H 0.07262 0.36206 0.75698 0.0
H1916 H 0.0837 0.39884 0.76462 0.0
H1917 H 0.02893 0.23335 0.77453 0.0
H1918 H 0.06736 0.23772 0.78096 0.0
H1919 H 0.07093 0.2398 0.76955 0.0
C1920 C 0.30259 0.35989 0.27685 0.0
C1921 C 0.27337 0.33892 0.28257 0.0
C1922 C 0.31192 0.34231 0.27039 0.0
C1923 C 0.29161 0.30256 0.26962 0.0
C1924 C 0.26092 0.28133 0.27516 0.0
C1925 C 0.25238 0.29976 0.28162 0.0
C1926 C 0.34468 0.36624 0.26462 0.0
C1927 C 0.23803 0.23909 0.27447 0.0
C1928 C 0.30465 0.26987 0.24798 0.0
C1929 C 0.33482 0.26354 0.24943 0.0
C1930 C 0.28869 0.28024 0.25459 0.0
C1931 C 0.30277 0.28388 0.26294 0.0
C1932 C 0.33102 0.27422 0.26459 0.0
C1933 C 0.34687 0.26424 0.25779 0.0
C1934 C 0.25859 0.28993 0.2525 0.0
C1935 C 0.34662 0.2774 0.27342 0.0
H1936 H 0.31977 0.39001 0.27779 0.0
H1937 H 0.23072 0.28333 0.28624 0.0
H1938 H 0.3668 0.35844 0.2654 0.0
H1939 H 0.33549 0.3611 0.25788 0.0
H1940 H 0.3572 0.39675 0.26596 0.0
H1941 H 0.21654 0.22643 0.27957 0.0
H1942 H 0.22361 0.23123 0.26822 0.0
H1943 H 0.25667 0.22675 0.27478 0.0
H1944 H 0.29515 0.26922 0.24152 0.0
H1945 H 0.37049 0.25992 0.25893 0.0
H1946 H 0.26691 0.31865 0.25476 0.0
H1947 H 0.23214 0.27012 0.25581 0.0
H1948 H 0.25302 0.28872 0.24558 0.0
H1949 H 0.36368 0.30752 0.27518 0.0
H1950 H 0.36465 0.26436 0.27389 0.0
H1951 H 0.3235 0.26382 0.27812 0.0
C1952 C 0.75975 0.98173 0.28143 0.0
C1953 C 0.72084 0.95614 0.28131 0.0
C1954 C 0.77651 1.01219 0.27573 0.0
C1955 C 0.75422 0.01697 0.26952 0.0
C1956 C 0.71526 0.99015 0.26906 0.0
C1957 C 0.69899 0.96038 0.27501 0.0
C1958 C 0.81793 0.04012 0.27657 0.0
C1959 C 0.6906 0.99329 0.26238 0.0
C1960 C 0.78729 0.1142 0.25965 0.0
C1961 C 0.80398 0.11204 0.25205 0.0
C1962 C 0.77184 0.08391 0.26548 0.0
C1963 C 0.77171 0.05002 0.26354 0.0
C1964 C 0.78854 0.04781 0.25587 0.0
C1965 C 0.80506 0.07893 0.25035 0.0
C1966 C 0.75526 0.08803 0.27369 0.0
C1967 C 0.78837 1.01223 0.25334 0.0
H1968 H 0.77704 0.97902 0.28627 0.0
H1969 H 0.66897 0.94093 0.27485 0.0
H1970 H 0.83266 0.04183 0.27054 0.0
H1971 H 0.82204 0.06853 0.27784 0.0
H1972 H 0.8313 0.03261 0.28177 0.0
H1973 H 0.66149 0.96901 0.26251 0.0
H1974 H 0.68942 0.01944 0.26338 0.0
H1975 H 0.7027 0.99514 0.25597 0.0
H1976 H 0.78604 0.13946 0.261 0.0
H1977 H 0.8174 0.07654 0.24446 0.0
H1978 H 0.7685 0.082 0.27917 0.0
H1979 H 0.72475 0.0673 0.2739 0.0
H1980 H 0.75914 0.11666 0.27447 0.0
H1981 H 0.80691 1.00743 0.25767 0.0
H1982 H 0.79828 1.01356 0.24672 0.0
H1983 H 0.75965 0.98761 0.25392 0.0
C1984 C 0.99245 0.75157 0.25103 0.0
C1985 C 0.96595 0.71291 0.25125 0.0
C1986 C 1.02267 0.76797 0.2568 0.0
C1987 C 0.02636 0.74559 0.26317 0.0
C1988 C 0.99866 0.70691 0.2637 0.0
C1989 C 0.96913 0.69096 0.25769 0.0
C1990 C 0.05154 0.80907 0.25585 0.0
C1991 C 1.00054 0.68221 0.27057 0.0
C1992 C 0.12255 0.77717 0.27346 0.0
C1993 C 0.12056 0.79501 0.28089 0.0
C1994 C 0.09255 0.76173 0.26756 0.0
C1995 C 0.05906 0.76278 0.26925 0.0
C1996 C 0.05701 0.78068 0.27676 0.0
C1997 C 0.08787 0.79715 0.28235 0.0
C1998 C 0.09658 0.74403 0.25952 0.0
C1999 C 1.02186 0.78181 0.27903 0.0
H2000 H 0.9906 0.76894 0.24607 0.0
H2001 H 0.94896 0.66113 0.25793 0.0
H2002 H 0.05444 0.82427 0.26187 0.0
H2003 H 0.07937 0.81204 0.25441 0.0
H2004 H 0.04416 0.82278 0.2507 0.0
H2005 H 0.97572 0.65341 0.27048 0.0
H2006 H 0.02626 0.68009 0.26975 0.0
H2007 H 1.00236 0.69489 0.27691 0.0
H2008 H 0.14749 0.77512 0.2723 0.0
H2009 H 0.0856 0.81038 0.28811 0.0
H2010 H 0.09142 0.75719 0.2539 0.0
H2011 H 0.07523 0.71369 0.2594 0.0
H2012 H 0.1249 0.747 0.25892 0.0
H2013 H 1.0177 0.80007 0.27449 0.0
H2014 H 1.02332 0.79277 0.28556 0.0
H2015 H 0.99684 0.75327 0.2786 0.0
C2016 C 0.56262 0.06575 0.03456 0.0
C2017 C 0.53729 0.03568 0.03964 0.0
C2018 C 0.56313 0.06217 0.02569 0.0
C2019 C 0.53877 0.02711 0.02183 0.0
C2020 C 0.51335 0.99643 0.02697 0.0
C2021 C 0.51238 1.00132 0.03582 0.0
C2022 C 0.5895 0.09606 0.02046 0.0
C2023 C 0.48775 0.95828 0.02315 0.0
C2024 C 0.51458 0.02374 0.99836 0.0
C2025 C 0.54081 0.01605 0.99453 0.0
C2026 C 0.51415 0.02818 1.0072 0.0
C2027 C 0.53942 0.023 1.01239 0.0
C2028 C 0.56578 1.0148 1.00853 0.0
C2029 C 0.56669 1.01221 0.99961 0.0
C2030 C 0.48677 0.03862 1.01098 0.0
C2031 C 0.59236 1.00783 1.01384 0.0
H2032 H 0.58178 0.09242 0.03752 0.0
H2033 H 0.49309 0.97798 0.03978 0.0
H2034 H 0.60994 0.09055 0.01707 0.0
H2035 H 0.57341 0.10165 1.01557 0.0
H2036 H 0.60535 0.12171 0.02441 0.0
H2037 H 0.47101 0.93691 0.02805 0.0
H2038 H 0.46814 0.9601 0.01858 0.0
H2039 H 0.50461 0.94859 0.01956 0.0
H2040 H 0.49455 0.02667 0.99441 0.0
H2041 H 0.58654 1.00564 0.99663 0.0
H2042 H 0.50209 0.06442 1.01489 0.0
H2043 H 0.46678 0.01588 1.01524 0.0
H2044 H 0.47044 0.04364 1.00603 0.0
H2045 H 0.61123 0.03335 0.01755 0.0
H2046 H 0.60988 1.00003 1.0099 0.0
H2047 H 0.57617 0.9849 0.01846 0.0
C2048 C 0.07612 0.53953 1.0002 0.0
C2049 C 0.05016 0.54433 0.99534 0.0
C2050 C 0.07386 0.53739 1.00909 0.0
C2051 C 0.04428 0.53915 1.01328 0.0
C2052 C 1.01789 0.54406 1.00841 0.0
C2053 C 1.02141 0.54707 0.99948 0.0
C2054 C 0.10313 0.53305 1.014 0.0
C2055 C 0.98554 0.54536 1.01263 0.0
C2056 C 1.02191 0.49498 0.03536 0.0
C2057 C 0.03945 0.52666 0.04063 0.0
C2058 C 1.02199 0.49873 0.02647 0.0
C2059 C 0.0409 0.53502 0.02274 0.0
C2060 C 0.05882 0.5671 0.02806 0.0
C2061 C 0.0575 0.56253 0.03694 0.0
C2062 C 1.00205 0.4638 0.02106 0.0
C2063 C 0.08014 0.60621 0.02436 0.0
H2064 H 0.09862 0.5377 0.99704 0.0
H2065 H 1.00125 0.55066 0.99574 0.0
H2066 H 0.11652 0.55565 0.01883 0.0
H2067 H 0.08963 0.50584 0.01745 0.0
H2068 H 0.12542 0.53409 1.00982 0.0
H2069 H 0.96764 0.54963 1.00797 0.0
H2070 H 0.96785 0.51869 1.0161 0.0
H2071 H 0.99628 0.56841 0.01736 0.0
H2072 H 1.00759 0.46717 0.03818 0.0
H2073 H 0.07111 0.58708 0.04101 0.0
H2074 H 1.02278 0.46082 0.01711 0.0
H2075 H 0.98217 0.46614 0.01666 0.0
H2076 H 0.98625 0.43792 0.02494 0.0
H2077 H 0.10372 0.60891 0.0204 0.0
H2078 H 0.09173 0.62828 0.02936 0.0
H2079 H 0.06152 0.61143 0.02016 0.0
C2080 C 0.56992 0.51545 0.03216 0.0
C2081 C 0.55844 0.53486 0.03759 0.0
C2082 C 0.56622 0.51642 0.02331 0.0
C2083 C 0.54904 0.53594 0.0198 0.0
C2084 C 0.53749 0.55577 0.02528 0.0
C2085 C 0.54299 0.55558 0.03412 0.0
C2086 C 0.58045 0.49627 0.01772 0.0
C2087 C 0.51807 0.57601 0.02184 0.0
C2088 C 0.56475 0.56423 0.99646 0.0
C2089 C 0.53333 0.5343 0.99258 0.0
C2090 C 0.57047 0.56483 1.00527 0.0
C2091 C 0.54329 0.53551 1.0104 0.0
C2092 C 0.51119 0.50535 1.00651 0.0
C2093 C 0.50696 0.50474 0.99761 0.0
C2094 C 0.60584 0.59666 1.00908 0.0
C2095 C 0.481 0.47409 1.01176 0.0
H2096 H 0.58187 0.4994 0.03487 0.0
H2097 H 0.53353 0.57004 0.03835 0.0
H2098 H 0.55658 0.4727 1.01436 0.0
H2099 H 0.59969 0.51573 1.0128 0.0
H2100 H 0.59561 0.48482 0.0214 0.0
H2101 H 0.51055 0.58983 0.02693 0.0
H2102 H 0.53638 0.59766 0.01716 0.0
H2103 H 0.49204 0.55576 0.01844 0.0
H2104 H 0.58525 0.58706 0.99256 0.0
H2105 H 0.48244 0.48182 0.99462 0.0
H2106 H 0.6213 0.58523 1.01264 0.0
H2107 H 0.5986 0.61254 1.01367 0.0
H2108 H 0.62485 0.61652 1.00417 0.0
H2109 H 0.49279 0.45855 1.01513 0.0
H2110 H 0.45686 0.45385 1.00783 0.0
H2111 H 0.47056 0.48605 0.01667 0.0
C2112 C 0.06786 0.55974 0.53431 0.0
C2113 C 0.03273 0.53897 0.53821 0.0
C2114 C 0.07127 0.55945 0.52539 0.0
C2115 C 0.03861 0.53892 0.52032 0.0
C2116 C 1.00297 0.51932 0.52428 0.0
C2117 C 1.00059 0.51901 0.53317 0.0
C2118 C 0.10985 0.57994 0.52143 0.0
C2119 C 0.96731 0.49829 0.51913 0.0
C2120 C 0.04379 0.56506 0.49696 0.0
C2121 C 0.04516 0.53528 0.49295 0.0
C2122 C 0.04119 0.56635 0.50583 0.0
C2123 C 0.04141 0.53784 0.51086 0.0
C2124 C 0.04298 0.50769 0.50683 0.0
C2125 C 0.04417 0.50643 0.49789 0.0
C2126 C 0.03804 0.59813 0.50982 0.0
C2127 C 0.04418 0.47723 0.51196 0.0
H2128 H 0.09273 0.57465 0.53824 0.0
H2129 H 0.9734 0.50293 0.53621 0.0
H2130 H 0.11522 0.55972 0.51788 0.0
H2131 H 0.11148 0.60105 0.51679 0.0
H2132 H 0.13239 0.59444 0.52624 0.0
H2133 H 0.94171 0.4866 0.52316 0.0
H2134 H 0.96575 0.51724 0.51432 0.0
H2135 H 0.96733 0.4748 0.51566 0.0
H2136 H 0.04458 0.58741 0.49312 0.0
H2137 H 0.04584 0.48373 0.49479 0.0
H2138 H 0.06235 0.61471 0.51407 0.0
H2139 H 1.01228 0.58664 0.51378 0.0
H2140 H 0.03698 0.61737 0.50499 0.0
H2141 H 0.06811 0.48997 0.51649 0.0
H2142 H 0.04714 0.45675 0.50789 0.0
H2143 H 1.01814 0.46181 0.51578 0.0
C2144 C 0.56131 0.56807 0.49958 0.0
C2145 C 0.54567 0.53593 0.49443 0.0
C2146 C 0.55857 0.56505 0.50849 0.0
C2147 C 0.54056 0.52902 0.51234 0.0
C2148 C 0.52506 0.49649 0.50715 0.0
C2149 C 0.52747 0.50035 0.49826 0.0
C2150 C 0.575 0.60044 0.51377 0.0
C2151 C 0.50649 0.4576 0.511 0.0
C2152 C 0.57077 0.5243 0.53492 0.0
C2153 C 0.54034 0.52058 0.53973 0.0
C2154 C 0.57073 0.52622 0.52603 0.0
C2155 C 0.53992 0.52548 0.5218 0.0
C2156 C 0.50907 0.52187 0.52663 0.0
C2157 C 0.50941 0.51891 0.53556 0.0
C2158 C 0.60374 0.52903 0.52115 0.0
C2159 C 0.47609 0.52181 0.52238 0.0
H2160 H 0.57513 0.59565 0.49664 0.0
H2161 H 0.5154 0.47545 0.49428 0.0
H2162 H 0.55336 0.59947 0.51815 0.0
H2163 H 0.59832 0.60256 0.51774 0.0
H2164 H 0.58596 0.62618 0.5098 0.0
H2165 H 0.49548 0.43516 0.50609 0.0
H2166 H 0.52697 0.45446 0.51502 0.0
H2167 H 0.48292 0.45337 0.51517 0.0
H2168 H 0.59463 0.52527 0.53813 0.0
H2169 H 0.48595 0.51619 0.53927 0.0
H2170 H 0.61803 0.55596 0.5176 0.0
H2171 H 0.59382 0.506 0.51641 0.0
H2172 H 0.62464 0.5275 0.52537 0.0
H2173 H 0.48593 0.54835 0.51877 0.0
H2174 H 0.45441 0.51893 0.52702 0.0
H2175 H 0.46289 0.49839 0.51774 0.0
C2176 C 0.55667 0.0799 0.53424 0.0
C2177 C 0.55961 0.05263 0.53902 0.0
C2178 C 0.55372 0.07762 0.52534 0.0
C2179 C 0.55285 0.04681 0.52109 0.0
C2180 C 0.55602 0.0192 0.52589 0.0
C2181 C 0.55977 0.02265 0.5348 0.0
C2182 C 0.55123 0.10813 0.52051 0.0
C2183 C 0.55461 0.9856 0.52162 0.0
C2184 C 0.50691 0.02457 0.49917 0.0
C2185 C 0.53821 0.03979 0.49375 0.0
C2186 C 0.51128 0.02577 0.50806 0.0
C2187 C 0.54784 0.04336 0.51164 0.0
C2188 C 0.57954 0.05915 0.50618 0.0
C2189 C 0.57433 0.05686 0.49731 0.0
C2190 C 0.4767 1.00816 0.51362 0.0
C2191 C 0.61899 0.07892 0.50971 0.0
H2192 H 0.55673 0.10327 0.53747 0.0
H2193 H 0.56187 1.00145 0.53849 0.0
H2194 H 0.57354 0.1203 0.51558 0.0
H2195 H 0.52381 0.09604 0.51718 0.0
H2196 H 0.55415 0.13114 0.52472 0.0
H2197 H 0.55785 0.96686 0.52622 0.0
H2198 H 0.52739 0.96914 0.51826 0.0
H2199 H 0.57715 0.995 0.51677 0.0
H2200 H 0.47891 1.0111 0.49645 0.0
H2201 H 0.5986 0.06873 0.49315 0.0
H2202 H 0.47599 0.03005 0.51762 0.0
H2203 H 0.47761 0.98735 0.51797 0.0
H2204 H 0.45032 0.99387 0.50985 0.0
H2205 H 0.62328 0.10302 0.51371 0.0
H2206 H 0.64065 0.08951 0.50463 0.0
H2207 H 0.62332 0.05951 0.51385 0.0
C2208 C 0.17567 0.36231 0.33122 0.0
C2209 C 0.20584 0.36255 0.327 0.0
C2210 C 0.17543 0.36539 0.3401 0.0
C2211 C 0.20548 0.36731 0.34492 0.0
C2212 C 0.23601 0.36734 0.34067 0.0
C2213 C 0.23614 0.36564 0.33173 0.0
C2214 C 0.14308 0.36674 0.34432 0.0
C2215 C 0.26808 0.36832 0.34558 0.0
C2216 C 0.22452 0.40805 0.36726 0.0
C2217 C 0.20584 0.37568 0.37228 0.0
C2218 C 0.22373 0.40577 0.35835 0.0
C2219 C 0.20523 0.37006 0.35438 0.0
C2220 C 0.18637 0.33717 0.35946 0.0
C2221 C 0.18627 0.34044 0.36838 0.0
C2222 C 0.24279 0.44159 0.35321 0.0
C2223 C 0.16735 0.29854 0.3555 0.0
H2224 H 0.15224 0.35997 0.32755 0.0
H2225 H 0.25924 0.36533 0.32847 0.0
H2226 H 0.12786 0.34223 0.34861 0.0
H2227 H 0.15386 0.39243 0.34829 0.0
H2228 H 0.12278 0.36664 0.33963 0.0
H2229 H 0.28888 0.36665 0.34136 0.0
H2230 H 0.28275 0.3946 0.34935 0.0
H2231 H 0.25704 0.3445 0.35014 0.0
H2232 H 0.23966 0.4353 0.37032 0.0
H2233 H 0.17236 0.31543 0.3723 0.0
H2234 H 0.22273 0.44206 0.34854 0.0
H2235 H 0.26649 0.44288 0.34955 0.0
H2236 H 0.25381 0.46709 0.35725 0.0
H2237 H 0.14489 0.29544 0.3511 0.0
H2238 H 0.15476 0.27581 0.36034 0.0
H2239 H 0.18802 0.2948 0.3517 0.0
C2240 C 0.70291 0.89396 0.36904 0.0
C2241 C 0.70086 0.8623 0.37295 0.0
C2242 C 0.70597 0.89846 0.36017 0.0
C2243 C 0.70546 0.86986 0.35505 0.0
C2244 C 0.70304 0.83756 0.35899 0.0
C2245 C 0.70147 0.83449 0.36792 0.0
C2246 C 0.71009 0.93402 0.3563 0.0
C2247 C 0.70141 0.80596 0.35376 0.0
C2248 C 0.68055 0.86809 0.33156 0.0
C2249 C 0.71578 0.88196 0.32773 0.0
C2250 C 0.67659 0.86354 0.34046 0.0
C2251 C 0.70885 0.87444 0.34561 0.0
C2252 C 0.74464 0.88997 0.34173 0.0
C2253 C 0.74752 0.89278 0.33284 0.0
C2254 C 0.63783 0.8459 0.34432 0.0
C2255 C 0.77994 0.9034 0.34695 0.0
H2256 H 0.70249 0.91552 0.37294 0.0
H2257 H 0.69936 0.80977 0.37095 0.0
H2258 H 0.73614 0.94814 0.35243 0.0
H2259 H 0.68618 0.92715 0.35198 0.0
H2260 H 0.71123 0.95409 0.36119 0.0
H2261 H 0.6975 0.78193 0.35775 0.0
H2262 H 0.6779 0.79575 0.34914 0.0
H2263 H 0.7277 0.81627 0.35005 0.0
H2264 H 0.65597 0.85919 0.32758 0.0
H2265 H 0.7748 0.90354 0.32985 0.0
H2266 H 0.63635 0.86536 0.34898 0.0
H2267 H 0.63182 0.81999 0.34782 0.0
H2268 H 0.61561 0.83856 0.33945 0.0
H2269 H 0.78173 0.92373 0.35183 0.0
H2270 H 0.80577 0.91709 0.34299 0.0
H2271 H 0.77917 0.87934 0.35035 0.0
C2272 C 0.24138 0.90103 0.33013 0.0
C2273 C 0.20949 0.87209 0.32616 0.0
C2274 C 0.24663 0.90095 0.33895 0.0
C2275 C 0.21847 0.87204 0.34399 0.0
C2276 C 0.18608 0.84268 0.33999 0.0
C2277 C 0.18232 0.84267 0.33109 0.0
C2278 C 0.2823 0.93187 0.34286 0.0
C2279 C 0.15491 0.81191 0.34515 0.0
C2280 C 0.24137 0.85075 0.36603 0.0
C2281 C 0.23028 0.87104 0.37128 0.0
C2282 C 0.23882 0.85183 0.35715 0.0
C2283 C 0.22317 0.87237 0.35342 0.0
C2284 C 0.21204 0.89311 0.35872 0.0
C2285 C 0.2164 0.89276 0.3676 0.0
C2286 C 0.25258 0.83069 0.35176 0.0
C2287 C 0.19423 0.91449 0.35504 0.0
H2288 H 0.26242 0.92378 0.3263 0.0
H2289 H 0.15741 0.82059 0.32802 0.0
H2290 H 0.27559 0.94882 0.34726 0.0
H2291 H 0.29629 0.91954 0.34666 0.0
H2292 H 0.3024 0.95093 0.338 0.0
H2293 H 0.13108 0.79184 0.34112 0.0
H2294 H 0.16576 0.79605 0.34874 0.0
H2295 H 0.14426 0.82443 0.34987 0.0
H2296 H 0.25208 0.83391 0.3689 0.0
H2297 H 0.20721 0.90789 0.37169 0.0
H2298 H 0.2727 0.8497 0.3469 0.0
H2299 H 0.22864 0.80755 0.34832 0.0
H2300 H 0.2666 0.81849 0.3556 0.0
H2301 H 0.21363 0.93588 0.35045 0.0
H2302 H 0.18674 0.92882 0.36002 0.0
H2303 H 0.16838 0.89489 0.3515 0.0
C2304 C 0.68774 0.84392 0.83003 0.0
C2305 C 0.72233 0.86808 0.8262 0.0
C2306 C 0.68329 0.84419 0.83891 0.0
C2307 C 0.71462 0.86802 0.84408 0.0
C2308 C 0.74993 0.89145 0.8402 0.0
C2309 C 0.75311 0.8918 0.83131 0.0
C2310 C 0.64489 0.81972 0.84274 0.0
C2311 C 0.78444 0.91601 0.84545 0.0
C2312 C 0.70096 0.8959 0.8664 0.0
C2313 C 0.70267 0.86855 0.8714 0.0
C2314 C 0.70406 0.89565 0.85749 0.0
C2315 C 0.71065 0.86838 0.85353 0.0
C2316 C 0.71381 0.84161 0.85863 0.0
C2317 C 0.70888 0.84149 0.86747 0.0
C2318 C 0.69924 0.92388 0.85229 0.0
C2319 C 0.72248 0.81313 0.85476 0.0
H2320 H 0.66387 0.82587 0.82606 0.0
H2321 H 0.77995 0.91035 0.82833 0.0
H2322 H 0.64566 0.79931 0.84724 0.0
H2323 H 0.63638 0.83735 0.84641 0.0
H2324 H 0.62317 0.80391 0.83784 0.0
H2325 H 0.81022 0.93076 0.8415 0.0
H2326 H 0.78061 0.93736 0.84893 0.0
H2327 H 0.7887 0.89873 0.85028 0.0
H2328 H 0.69561 0.91649 0.86943 0.0
H2329 H 0.71024 0.82034 0.87135 0.0
H2330 H 0.67613 0.909 0.84763 0.0
H2331 H 0.72519 0.9419 0.84862 0.0
H2332 H 0.69277 0.94222 0.85629 0.0
H2333 H 0.6993 0.79404 0.85048 0.0
H2334 H 0.72646 0.79588 0.85965 0.0
H2335 H 0.74837 0.82762 0.85084 0.0
C2336 C 0.23524 0.85499 0.8674 0.0
C2337 C 0.20501 0.85192 0.87218 0.0
C2338 C 0.23522 0.8565 0.8585 0.0
C2339 C 0.20454 0.85582 0.85423 0.0
C2340 C 0.17373 0.85255 0.85902 0.0
C2341 C 0.17413 0.85019 0.86797 0.0
C2342 C 0.26825 0.85908 0.85367 0.0
C2343 C 0.14081 0.85237 0.85471 0.0
C2344 C 0.22764 0.89815 0.83199 0.0
C2345 C 0.21259 0.86595 0.82686 0.0
C2346 C 0.22391 0.89522 0.84089 0.0
C2347 C 0.20546 0.85923 0.84477 0.0
C2348 C 0.19042 0.82664 0.8396 0.0
C2349 C 0.19384 0.83041 0.83071 0.0
C2350 C 0.23994 0.93067 0.84614 0.0
C2351 C 0.17143 0.78779 0.84347 0.0
H2352 H 0.25908 0.85603 0.87062 0.0
H2353 H 0.15081 0.84797 0.87166 0.0
H2354 H 0.25835 0.83602 0.84895 0.0
H2355 H 0.28274 0.88599 0.85012 0.0
H2356 H 0.289 0.85745 0.85793 0.0
H2357 H 0.1189 0.84922 0.85931 0.0
H2358 H 0.15066 0.879 0.85114 0.0
H2359 H 0.12792 0.82909 0.85004 0.0
H2360 H 0.24184 0.9257 0.82904 0.0
H2361 H 0.18217 0.80547 0.82676 0.0
H2362 H 0.26316 0.93298 0.85017 0.0
H2363 H 0.21807 0.92964 0.85046 0.0
H2364 H 0.25093 0.95634 0.84214 0.0
H2365 H 0.19172 0.78446 0.84752 0.0
H2366 H 0.16031 0.7653 0.83857 0.0
H2367 H 0.1479 0.78386 0.84762 0.0
C2368 C 0.2043 0.38584 0.83072 0.0
C2369 C 0.19123 0.35023 0.82714 0.0
C2370 C 0.21005 0.39134 0.83956 0.0
C2371 C 0.20114 0.36019 0.84495 0.0
C2372 C 0.1865 0.32395 0.84134 0.0
C2373 C 0.18253 0.31959 0.83248 0.0
C2374 C 0.22671 0.4306 0.84311 0.0
C2375 C 0.17504 0.28971 0.84683 0.0
C2376 C 0.2442 0.37486 0.86718 0.0
C2377 C 0.21654 0.37599 0.87216 0.0
C2378 C 0.23986 0.37028 0.85829 0.0
C2379 C 0.20647 0.3653 0.85437 0.0
C2380 C 0.1779 0.36488 0.85948 0.0
C2381 C 0.18364 0.37102 0.86827 0.0
C2382 C 0.27146 0.37195 0.85306 0.0
C2383 C 0.14123 0.35804 0.85568 0.0
H2384 H 0.21167 0.40964 0.82657 0.0
H2385 H 0.17245 0.29202 0.8297 0.0
H2386 H 0.20703 0.43202 0.84772 0.0
H2387 H 0.25302 0.43803 0.8466 0.0
H2388 H 0.23312 0.45192 0.83806 0.0
H2389 H 0.16207 0.26328 0.84308 0.0
H2390 H 0.1999 0.29225 0.85021 0.0
H2391 H 0.15466 0.28765 0.85174 0.0
H2392 H 0.26985 0.3792 0.87018 0.0
H2393 H 0.16219 0.37182 0.87214 0.0
H2394 H 0.28091 0.39485 0.84828 0.0
H2395 H 0.26149 0.34529 0.84951 0.0
H2396 H 0.29592 0.37694 0.85702 0.0
H2397 H 0.14644 0.38112 0.85123 0.0
H2398 H 0.12096 0.35618 0.86059 0.0
H2399 H 0.12812 0.33154 0.85196 0.0
C2400 C 0.90041 0.74471 0.70002 0.0
C2401 C 0.87208 0.71659 0.70503 0.0
C2402 C 0.90021 0.74165 0.69114 0.0
C2403 C 0.8713 0.70925 0.68714 0.0
C2404 C 0.84219 0.68088 0.69216 0.0
C2405 C 0.84273 0.68507 0.70107 0.0
C2406 C 0.93134 0.77296 0.68607 0.0
C2407 C 0.8111 0.64572 0.68813 0.0
C2408 C 0.85694 0.71652 0.66343 0.0
C2409 C 0.87769 0.7013 0.65984 0.0
C2410 C 0.85423 0.71888 0.67229 0.0
C2411 C 0.87225 0.70514 0.67771 0.0
C2412 C 0.8932 0.68963 0.6741 0.0
C2413 C 0.89597 0.68823 0.66521 0.0
C2414 C 0.83241 0.73644 0.67585 0.0
C2415 C 0.91264 0.67446 0.67965 0.0
H2416 H 0.92308 0.76928 0.70306 0.0
H2417 H 0.82098 0.6632 0.70494 0.0
H2418 H 0.94796 0.76228 0.68274 0.0
H2419 H 0.91928 0.78321 0.68113 0.0
H2420 H 0.95068 0.79711 0.69012 0.0
H2421 H 0.79009 0.62679 0.69287 0.0
H2422 H 0.79651 0.65317 0.68322 0.0
H2423 H 0.82321 0.63017 0.68489 0.0
H2424 H 0.84279 0.72668 0.6593 0.0
H2425 H 0.91178 0.67615 0.66246 0.0
H2426 H 0.85125 0.7614 0.67973 0.0
H2427 H 0.80976 0.71624 0.6801 0.0
H2428 H 0.8196 0.74531 0.67078 0.0
H2429 H 0.93453 0.69746 0.68355 0.0
H2430 H 0.9261 0.66151 0.67587 0.0
H2431 H 0.89213 0.65306 0.68409 0.0
C2432 C 0.38002 0.23092 0.66521 0.0
C2433 C 0.3789 0.20183 0.66035 0.0
C2434 C 0.37748 0.2283 0.67413 0.0
C2435 C 0.37202 0.1951 0.67822 0.0
C2436 C 0.36955 0.16515 0.67327 0.0
C2437 C 0.37394 0.16927 0.66441 0.0
C2438 C 0.38157 0.26138 0.67919 0.0
C2439 C 0.36201 0.12863 0.6773 0.0
C2440 C 0.39547 0.19563 0.70173 0.0
C2441 C 0.36068 0.18459 0.70552 0.0
C2442 C 0.39981 0.1999 0.69285 0.0
C2443 C 0.36821 0.19134 0.68766 0.0
C2444 C 0.33273 0.17885 0.69151 0.0
C2445 C 0.32961 0.17644 0.7004 0.0
C2446 C 0.43835 0.21448 0.68903 0.0
C2447 C 0.29799 0.16783 0.68624 0.0
H2448 H 0.38438 0.25629 0.66205 0.0
H2449 H 0.373 0.14675 0.66063 0.0
H2450 H 0.35548 0.2532 0.68283 0.0
H2451 H 0.40473 0.27028 0.68387 0.0
H2452 H 0.38752 0.28577 0.67508 0.0
H2453 H 0.35878 0.10735 0.67251 0.0
H2454 H 0.38538 0.13368 0.68163 0.0
H2455 H 0.33602 0.11683 0.68119 0.0
H2456 H 0.41954 0.20231 0.70572 0.0
H2457 H 0.30263 0.1677 0.70336 0.0
H2458 H 0.44621 0.24031 0.68528 0.0
H2459 H 0.43818 0.19341 0.68459 0.0
H2460 H 0.46022 0.22108 0.69394 0.0
H2461 H 0.30112 0.19254 0.68268 0.0
H2462 H 0.27217 0.15648 0.69019 0.0
H2463 H 0.29429 0.14624 0.68149 0.0
C2464 C 0.83834 0.21212 0.6661 0.0
C2465 C 0.84519 0.18855 0.66087 0.0
C2466 C 0.84276 0.21241 0.67496 0.0
C2467 C 0.85586 0.18965 0.67869 0.0
C2468 C 0.86271 0.1656 0.67342 0.0
C2469 C 0.85666 0.16486 0.66457 0.0
C2470 C 0.83364 0.23735 0.68032 0.0
C2471 C 0.87769 0.14165 0.67708 0.0
C2472 C 0.90202 0.22104 0.70056 0.0
C2473 C 0.87408 0.19461 0.70591 0.0
C2474 C 0.89686 0.21921 0.69167 0.0
C2475 C 0.86237 0.1912 0.6881 0.0
C2476 C 0.83368 0.16527 0.69356 0.0
C2477 C 0.84021 0.1668 0.70236 0.0
C2478 C 0.92862 0.24671 0.68609 0.0
C2479 C 0.79594 0.13604 0.69011 0.0
H2480 H 0.82946 0.23048 0.66324 0.0
H2481 H 0.86255 0.14709 0.66051 0.0
H2482 H 0.81359 0.2206 0.68543 0.0
H2483 H 0.85951 0.2594 0.68345 0.0
H2484 H 0.82124 0.25128 0.67652 0.0
H2485 H 0.88179 0.12469 0.67215 0.0
H2486 H 0.905 0.15988 0.68027 0.0
H2487 H 0.85813 0.12235 0.68197 0.0
H2488 H 0.92843 0.24219 0.70329 0.0
H2489 H 0.81857 0.14634 0.70651 0.0
H2490 H 0.91981 0.26429 0.6825 0.0
H2491 H 0.93579 0.23121 0.68135 0.0
H2492 H 0.95426 0.26551 0.6898 0.0
H2493 H 0.78326 0.14987 0.68638 0.0
H2494 H 0.77607 0.11903 0.69523 0.0
H2495 H 0.79945 0.11681 0.68574 0.0
C2496 C 0.3738 0.22391 0.20196 0.0
C2497 C 0.3745 0.1962 0.20702 0.0
C2498 C 0.37545 0.22242 0.19304 0.0
C2499 C 0.37937 0.19337 0.18915 0.0
C2500 C 0.38157 0.16622 0.1943 0.0
C2501 C 0.37827 0.16751 0.20316 0.0
C2502 C 0.37189 0.25126 0.18778 0.0
C2503 C 0.38736 0.13576 0.19046 0.0
C2504 C 0.3517 0.16768 0.16589 0.0
C2505 C 0.38606 0.19001 0.16179 0.0
C2506 C 0.34894 0.16878 0.1748 0.0
C2507 C 0.38164 0.1916 0.17969 0.0
C2508 C 0.41665 0.21292 0.17554 0.0
C2509 C 0.41825 0.21247 0.16664 0.0
C2510 C 0.31091 0.14652 0.17896 0.0
C2511 C 0.45244 0.23634 0.18049 0.0
H2512 H 0.3703 0.24575 0.20496 0.0
H2513 H 0.37879 0.14606 0.2071 0.0
H2514 H 0.39748 0.26754 0.18387 0.0
H2515 H 0.34778 0.23693 0.18334 0.0
H2516 H 0.36767 0.2712 0.19176 0.0
H2517 H 0.39075 0.11823 0.19538 0.0
H2518 H 0.36305 0.11719 0.18638 0.0
H2519 H 0.4127 0.14848 0.18634 0.0
H2520 H 0.32676 0.15069 0.16212 0.0
H2521 H 0.44488 0.22964 0.16344 0.0
H2522 H 0.30428 0.16576 0.18255 0.0
H2523 H 0.31116 0.12625 0.18358 0.0
H2524 H 0.28817 0.13077 0.17426 0.0
H2525 H 0.45094 0.25922 0.18389 0.0
H2526 H 0.47769 0.24912 0.17634 0.0
H2527 H 0.45595 0.21876 0.18537 0.0
C2528 C 0.84848 0.22334 0.16631 0.0
C2529 C 0.86992 0.21324 0.16117 0.0
C2530 C 0.84966 0.2216 0.1752 0.0
C2531 C 0.87163 0.20789 0.17907 0.0
C2532 C 0.8934 0.19761 0.17389 0.0
C2533 C 0.89282 0.20109 0.16498 0.0
C2534 C 0.82733 0.23439 0.18046 0.0
C2535 C 0.91639 0.18191 0.17773 0.0
C2536 C 0.90152 0.2303 0.2022 0.0
C2537 C 0.87399 0.19816 0.20638 0.0
C2538 C 0.90043 0.23428 0.19336 0.0
C2539 C 0.87201 0.20464 0.18853 0.0
C2540 C 0.84399 0.17207 0.19275 0.0
C2541 C 0.84491 0.16953 0.20167 0.0
C2542 C 0.92988 0.27014 0.1892 0.0
C2543 C 0.81383 0.1394 0.18782 0.0
H2544 H 0.83082 0.23284 0.16334 0.0
H2545 H 0.90894 0.19276 0.16099 0.0
H2546 H 0.80531 0.21036 0.18411 0.0
H2547 H 0.84597 0.25588 0.18514 0.0
H2548 H 0.81357 0.2465 0.17649 0.0
H2549 H 0.93102 0.17442 0.17283 0.0
H2550 H 0.93771 0.20267 0.18214 0.0
H2551 H 0.8979 0.15641 0.18151 0.0
H2552 H 0.92403 0.25243 0.20587 0.0
H2553 H 0.82399 0.14443 0.20491 0.0
H2554 H 0.9162 0.28233 0.18524 0.0
H2555 H 0.94761 0.26405 0.18491 0.0
H2556 H 0.9484 0.2915 0.19392 0.0
H2557 H 0.79699 0.14864 0.18407 0.0
H2558 H 0.79458 0.11584 0.19202 0.0
H2559 H 0.827 0.12885 0.18324 0.0
C2560 C 0.90454 0.71132 0.16304 0.0
C2561 C 0.86842 0.69412 0.15948 0.0
C2562 C 0.90975 0.71274 0.1719 0.0
C2563 C 0.87805 0.69588 0.17735 0.0
C2564 C 0.84148 0.67775 0.17376 0.0
C2565 C 0.83711 0.67747 0.16488 0.0
C2566 C 0.94918 0.73317 0.17544 0.0
C2567 C 0.80691 0.65904 0.17931 0.0
C2568 C 0.89075 0.67784 0.20071 0.0
C2569 C 0.88942 0.70764 0.20472 0.0
C2570 C 0.88715 0.67352 0.19179 0.0
C2571 C 0.88296 0.70008 0.1868 0.0
C2572 C 0.88271 0.73071 0.19085 0.0
C2573 C 0.8855 0.73383 0.19973 0.0
C2574 C 0.88693 0.64013 0.18773 0.0
C2575 C 0.87915 0.76017 0.18581 0.0
H2576 H 0.92882 0.72424 0.15888 0.0
H2577 H 0.80911 0.66382 0.16217 0.0
H2578 H 0.95315 0.75759 0.17927 0.0
H2579 H 0.95378 0.7144 0.17974 0.0
H2580 H 0.97085 0.74347 0.17036 0.0
H2581 H 0.78068 0.64345 0.17553 0.0
H2582 H 0.80893 0.63917 0.18378 0.0
H2583 H 0.80489 0.68053 0.18319 0.0
H2584 H 0.89358 0.65745 0.20455 0.0
H2585 H 0.88472 0.75712 0.20278 0.0
H2586 H 0.90934 0.6497 0.18285 0.0
H2587 H 0.85972 0.62256 0.18444 0.0
H2588 H 0.89116 0.62242 0.19245 0.0
H2589 H 0.90141 0.77247 0.18089 0.0
H2590 H 0.88132 0.78326 0.18989 0.0
H2591 H 0.85168 0.74708 0.18248 0.0
C2592 C 0.49179 0.90018 0.06242 0.0
C2593 C 0.5169 0.93398 0.06652 0.0
C2594 C 0.50019 0.87106 0.06135 0.0
C2595 C 0.53456 0.8755 0.06448 0.0
C2596 C 0.5594 0.90892 0.06891 0.0
C2597 C 0.55035 0.93769 0.06986 0.0
C2598 C 0.47278 0.83605 0.05659 0.0
C2599 C 0.59618 0.9148 0.07242 0.0
C2600 C 0.54432 0.78769 0.06653 0.0
C2601 C 0.56407 0.78929 0.05909 0.0
C2602 C 0.53494 0.81563 0.06842 0.0
C2603 C 0.54527 0.84604 0.06273 0.0
C2604 C 0.56534 0.84795 0.05524 0.0
C2605 C 0.57455 0.81979 0.05353 0.0
C2606 C 0.51358 0.81238 0.07648 0.0
C2607 C 0.57696 0.87975 0.04897 0.0
H2608 H 0.46591 0.89679 0.05977 0.0
H2609 H 0.57006 0.96355 0.07304 0.0
H2610 H 0.48578 0.83412 0.05057 0.0
H2611 H 0.46595 0.81063 0.06039 0.0
H2612 H 0.44621 0.83576 0.05506 0.0
H2613 H 0.61119 0.94105 0.07621 0.0
H2614 H 0.59126 0.89068 0.07649 0.0
H2615 H 0.61466 0.91625 0.06712 0.0
H2616 H 0.53553 0.76416 0.07084 0.0
H2617 H 0.59035 0.82191 0.04784 0.0
H2618 H 0.48599 0.80966 0.07489 0.0
H2619 H 0.52927 0.83825 0.08035 0.0
H2620 H 0.50868 0.78779 0.08039 0.0
H2621 H 0.55173 0.88015 0.04657 0.0
H2622 H 0.59256 0.87737 0.04346 0.0
H2623 H 0.59499 0.90708 0.05217 0.0
C2624 C 0.13345 0.62919 0.07192 0.0
C2625 C 0.13677 0.59852 0.06909 0.0
C2626 C 0.16304 0.66648 0.07086 0.0
C2627 C 0.19703 0.67349 0.06692 0.0
C2628 C 0.2012 0.64257 0.06444 0.0
C2629 C 0.1711 0.60563 0.06552 0.0
C2630 C 0.15723 0.69847 0.0736 0.0
C2631 C 0.23696 0.6485 0.06032 0.0
C2632 C 0.25524 0.76694 0.05527 0.0
C2633 C 0.28371 0.78837 0.06117 0.0
C2634 C 0.2271 0.72973 0.05706 0.0
C2635 C 0.22725 0.71302 0.06494 0.0
C2636 C 0.2562 0.73417 0.07087 0.0
C2637 C 0.28388 0.77145 0.06894 0.0
C2638 C 0.19694 0.70833 0.05051 0.0
C2639 C 0.25766 0.71753 0.07933 0.0
H2640 H 0.10707 0.62421 0.07463 0.0
H2641 H 0.17416 0.58226 0.06332 0.0
H2642 H 0.18075 0.71826 0.07772 0.0
H2643 H 0.15705 0.71446 0.06792 0.0
H2644 H 0.1304 0.6885 0.07709 0.0
H2645 H 0.23705 0.62169 0.05941 0.0
H2646 H 0.2404 0.66202 0.05402 0.0
H2647 H 0.26167 0.66767 0.06423 0.0
H2648 H 0.25496 0.77924 0.04919 0.0
H2649 H 0.30522 0.78766 0.07363 0.0
H2650 H 0.16886 0.69956 0.05326 0.0
H2651 H 0.19719 0.68239 0.04865 0.0
H2652 H 0.20061 0.72526 0.04471 0.0
H2653 H 0.23194 0.71025 0.08304 0.0
H2654 H 0.2826 0.7371 0.08315 0.0
H2655 H 0.25834 0.69111 0.07833 0.0
C2656 C 0.28873 0.49369 0.05424 0.0
C2657 C 0.26974 0.50114 0.06072 0.0
C2658 C 0.32625 0.502 0.05524 0.0
C2659 C 0.34564 0.51801 0.06294 0.0
C2660 C 0.32669 0.52548 0.06952 0.0
C2661 C 0.28922 0.51712 0.06833 0.0
C2662 C 0.34522 0.49363 0.04803 0.0
C2663 C 0.34611 0.54254 0.07783 0.0
C2664 C 0.43293 0.50972 0.06768 0.0
C2665 C 0.46232 0.54488 0.06502 0.0
C2666 C 0.39501 0.50089 0.06723 0.0
C2667 C 0.38595 0.52771 0.064 0.0
C2668 C 0.41551 0.56355 0.06152 0.0
C2669 C 0.4531 0.57168 0.06207 0.0
C2670 C 0.36454 0.46244 0.07001 0.0
C2671 C 0.40741 0.5931 0.05805 0.0
H2672 H 0.27407 0.48079 0.04839 0.0
H2673 H 0.27533 0.52361 0.07336 0.0
H2674 H 0.37063 0.51987 0.04598 0.0
H2675 H 0.35461 0.47391 0.0502 0.0
H2676 H 0.32641 0.48112 0.04246 0.0
H2677 H 0.32728 0.54566 0.08242 0.0
H2678 H 0.35643 0.52478 0.08077 0.0
H2679 H 0.37097 0.57064 0.07667 0.0
H2680 H 0.43943 0.48866 0.06995 0.0
H2681 H 0.47527 0.59897 0.05998 0.0
H2682 H 0.34662 0.44704 0.06449 0.0
H2683 H 0.34614 0.4651 0.07479 0.0
H2684 H 0.37612 0.44542 0.07278 0.0
H2685 H 0.39107 0.58289 0.05207 0.0
H2686 H 0.43348 0.62012 0.05672 0.0
H2687 H 0.39 0.59842 0.06261 0.0
C2688 C 0.94773 0.54829 0.46394 0.0
C2689 C 0.94357 0.51319 0.46614 0.0
C2690 C 0.91793 0.55584 0.46493 0.0
C2691 C 0.88276 0.5276 0.46814 0.0
C2692 C 0.87795 0.49169 0.47007 0.0
C2693 C 0.9083 0.48502 0.46909 0.0
C2694 C 0.92455 0.59456 0.46281 0.0
C2695 C 0.841 0.46053 0.47341 0.0
C2696 C 0.82041 0.5591 0.47942 0.0
C2697 C 0.79421 0.55451 0.4731 0.0
C2698 C 0.84901 0.55028 0.47791 0.0
C2699 C 0.85173 0.53622 0.46987 0.0
C2700 C 0.82506 0.53088 0.4635 0.0
C2701 C 0.79681 0.54012 0.46517 0.0
C2702 C 0.87661 0.55635 0.48492 0.0
C2703 C 0.82664 0.51583 0.45485 0.0
H2704 H 0.97473 0.57044 0.4617 0.0
H2705 H 0.90452 0.45781 0.47083 0.0
H2706 H 0.90283 0.59252 0.4583 0.0
H2707 H 0.92208 0.60824 0.46867 0.0
H2708 H 0.95272 0.61284 0.45998 0.0
H2709 H 0.84077 0.43342 0.47397 0.0
H2710 H 0.83538 0.46831 0.47977 0.0
H2711 H 0.81764 0.45645 0.46918 0.0
H2712 H 0.81851 0.56949 0.48562 0.0
H2713 H 0.77724 0.53682 0.46017 0.0
H2714 H 0.9056 0.57652 0.48279 0.0
H2715 H 0.87573 0.52951 0.48643 0.0
H2716 H 0.87072 0.56736 0.49082 0.0
H2717 H 0.85361 0.53542 0.45169 0.0
H2718 H 0.80316 0.512 0.45067 0.0
H2719 H 0.82563 0.48842 0.45552 0.0
C2720 C 0.50652 0.28684 0.47719 0.0
C2721 C 0.52053 0.26896 0.47192 0.0
C2722 C 0.51611 0.32456 0.47586 0.0
C2723 C 0.54008 0.3452 0.46903 0.0
C2724 C 0.55431 0.32743 0.46367 0.0
C2725 C 0.54458 0.28977 0.4652 0.0
C2726 C 0.50041 0.34231 0.48177 0.0
C2727 C 0.57987 0.34824 0.45631 0.0
C2728 C 0.53557 0.432 0.46181 0.0
C2729 C 0.56635 0.46116 0.46609 0.0
C2730 C 0.52741 0.39437 0.46248 0.0
C2731 C 0.55042 0.38544 0.46757 0.0
C2732 C 0.58234 0.41493 0.47163 0.0
C2733 C 0.58992 0.45226 0.47083 0.0
C2734 C 0.49334 0.36397 0.45796 0.0
C2735 C 0.60773 0.40692 0.47712 0.0
H2736 H 0.48742 0.27116 0.4823 0.0
H2737 H 0.55617 0.27674 0.46115 0.0
H2738 H 0.52372 0.36768 0.48479 0.0
H2739 H 0.48334 0.35157 0.47811 0.0
H2740 H 0.48258 0.32274 0.48685 0.0
H2741 H 0.58804 0.33033 0.45263 0.0
H2742 H 0.56572 0.35859 0.45196 0.0
H2743 H 0.60574 0.3732 0.45867 0.0
H2744 H 0.51708 0.43835 0.45814 0.0
H2745 H 0.6138 0.47438 0.47418 0.0
H2746 H 0.47233 0.3452 0.46271 0.0
H2747 H 0.50124 0.3464 0.45409 0.0
H2748 H 0.47989 0.37564 0.45376 0.0
H2749 H 0.59191 0.39026 0.48275 0.0
H2750 H 0.63283 0.43307 0.47936 0.0
H2751 H 0.61729 0.38988 0.47356 0.0
C2752 C 0.78309 0.27886 0.46388 0.0
C2753 C 0.80071 0.28005 0.47164 0.0
C2754 C 0.74556 0.25097 0.46221 0.0
C2755 C 0.72481 0.22314 0.46841 0.0
C2756 C 0.74223 0.22433 0.47628 0.0
C2757 C 0.77968 0.25267 0.4778 0.0
C2758 C 0.72823 0.25104 0.45375 0.0
C2759 C 0.72133 0.1954 0.4831 0.0
C2760 C 0.61721 0.16738 0.4682 0.0
C2761 C 0.6096 0.13251 0.46486 0.0
C2762 C 0.65434 0.19743 0.46911 0.0
C2763 C 0.68499 0.19266 0.4667 0.0
C2764 C 0.67746 0.158 0.46303 0.0
C2765 C 0.63999 0.12851 0.46212 0.0
C2766 C 0.66077 0.23389 0.47294 0.0
C2767 C 0.70909 0.15147 0.46038 0.0
H2768 H 0.79891 0.29929 0.45899 0.0
H2769 H 0.79245 0.25341 0.48388 0.0
H2770 H 0.72046 0.22463 0.45028 0.0
H2771 H 0.70201 0.2521 0.45475 0.0
H2772 H 0.74754 0.27523 0.4497 0.0
H2773 H 0.73877 0.2 0.48886 0.0
H2774 H 0.69568 0.19619 0.48497 0.0
H2775 H 0.71213 0.16681 0.48061 0.0
H2776 H 0.59409 0.17097 0.47034 0.0
H2777 H 0.63465 0.10172 0.45959 0.0
H2778 H 0.67968 0.25792 0.46882 0.0
H2779 H 0.6748 0.23827 0.4792 0.0
H2780 H 0.63411 0.23426 0.47385 0.0
H2781 H 0.72856 0.17412 0.45603 0.0
H2782 H 0.69872 0.12395 0.45716 0.0
H2783 H 0.72553 0.15234 0.46606 0.0
C2784 C 0.53727 0.27393 0.96526 0.0
C2785 C 0.519 0.2753 0.97271 0.0
C2786 C 0.54569 0.24497 0.96387 0.0
C2787 C 0.53606 0.21662 0.97009 0.0
C2788 C 0.518 0.21798 0.97765 0.0
C2789 C 0.50957 0.24704 0.97884 0.0
C2790 C 0.56488 0.24469 0.95571 0.0
C2791 C 0.50738 0.18857 0.98449 0.0
C2792 C 0.52607 0.12137 0.96431 0.0
C2793 C 0.5601 0.12517 0.96728 0.0
C2794 C 0.51831 0.15114 0.96497 0.0
C2795 C 0.54502 0.18564 0.96875 0.0
C2796 C 0.57982 0.19 0.97154 0.0
C2797 C 0.58696 0.15993 0.97074 0.0
C2798 C 0.48104 0.14531 0.96182 0.0
C2799 C 0.60912 0.2261 0.97564 0.0
H2800 H 0.54534 0.29576 0.96051 0.0
H2801 H 0.49491 0.24715 0.98456 0.0
H2802 H 0.59221 0.24652 0.95714 0.0
H2803 H 0.54744 0.21784 0.95228 0.0
H2804 H 0.56998 0.26833 0.95143 0.0
H2805 H 0.49408 0.19387 0.99007 0.0
H2806 H 0.48754 0.16036 0.98189 0.0
H2807 H 0.53272 0.18785 0.98668 0.0
H2808 H 0.50502 0.09481 0.96163 0.0
H2809 H 0.61334 0.16341 0.97309 0.0
H2810 H 0.48557 0.16805 0.95733 0.0
H2811 H 0.46449 0.14668 0.96724 0.0
H2812 H 0.46422 0.1178 0.95858 0.0
H2813 H 0.61603 0.25034 0.97141 0.0
H2814 H 0.63543 0.22576 0.9771 0.0
H2815 H 0.59782 0.23078 0.98163 0.0
C2816 C 0.91021 0.45141 0.97152 0.0
C2817 C 0.94475 0.45922 0.96793 0.0
C2818 C 0.88017 0.41424 0.97237 0.0
C2819 C 0.88444 0.38373 0.96958 0.0
C2820 C 0.91876 0.39144 0.9657 0.0
C2821 C 0.94838 0.42891 0.96493 0.0
C2822 C 0.84421 0.40758 0.97652 0.0
C2823 C 0.92463 0.35997 0.96257 0.0
C2824 C 0.82429 0.28741 0.98 0.0
C2825 C 0.79584 0.26799 0.97394 0.0
C2826 C 0.85298 0.32488 0.97867 0.0
C2827 C 0.85374 0.3438 0.97106 0.0
C2828 C 0.82521 0.32446 0.96491 0.0
C2829 C 0.7967 0.28702 0.96642 0.0
C2830 C 0.88268 0.34422 0.98542 0.0
C2831 C 0.82478 0.34337 0.95671 0.0
H2832 H 0.90686 0.47433 0.97391 0.0
H2833 H 0.97478 0.43433 0.96216 0.0
H2834 H 0.81976 0.38959 0.97242 0.0
H2835 H 0.84017 0.39242 0.98262 0.0
H2836 H 0.84428 0.43424 0.97782 0.0
H2837 H 0.95198 0.37057 0.95926 0.0
H2838 H 0.92365 0.34233 0.96802 0.0
H2839 H 0.90171 0.34155 0.95815 0.0
H2840 H 0.82457 0.27311 0.98576 0.0
H2841 H 0.77476 0.27278 0.96173 0.0
H2842 H 0.88306 0.37016 0.98757 0.0
H2843 H 0.91083 0.35281 0.98274 0.0
H2844 H 0.87796 0.32594 0.99103 0.0
H2845 H 0.82282 0.36885 0.9581 0.0
H2846 H 0.80092 0.32453 0.95254 0.0
H2847 H 0.85142 0.35269 0.9532 0.0
C2848 C 0.61852 0.47716 0.96793 0.0
C2849 C 0.61222 0.50606 0.96508 0.0
C2850 C 0.65522 0.48326 0.96912 0.0
C2851 C 0.68668 0.51919 0.96747 0.0
C2852 C 0.68055 0.548 0.96426 0.0
C2853 C 0.64358 0.5411 0.96309 0.0
C2854 C 0.66026 0.45157 0.97247 0.0
C2855 C 0.71311 0.58672 0.96238 0.0
C2856 C 0.77882 0.55008 0.97939 0.0
C2857 C 0.80127 0.5461 0.97319 0.0
C2858 C 0.74153 0.54097 0.97764 0.0
C2859 C 0.72585 0.52732 0.96949 0.0
C2860 C 0.74801 0.52248 0.96326 0.0
C2861 C 0.78531 0.53195 0.96517 0.0
C2862 C 0.71902 0.54648 0.9845 0.0
C2863 C 0.73257 0.50799 0.95451 0.0
H2864 H 0.59472 0.44994 0.9695 0.0
H2865 H 0.63935 0.56378 0.96091 0.0
H2866 H 0.68004 0.44765 0.96837 0.0
H2867 H 0.67269 0.45867 0.97893 0.0
H2868 H 0.63326 0.42456 0.97281 0.0
H2869 H 0.70387 0.60537 0.95943 0.0
H2870 H 0.72828 0.59995 0.96836 0.0
H2871 H 0.7334 0.58475 0.95805 0.0
H2872 H 0.79043 0.56039 0.98564 0.0
H2873 H 0.80231 0.52919 0.96027 0.0
H2874 H 0.69272 0.51964 0.98574 0.0
H2875 H 0.71084 0.56717 0.98236 0.0
H2876 H 0.73491 0.5566 0.99055 0.0
H2877 H 0.70593 0.48078 0.95499 0.0
H2878 H 0.75261 0.504 0.95051 0.0
H2879 H 0.72603 0.52805 0.95126 0.0
C2880 C 0.2567 0.50459 0.55305 0.0
C2881 C 0.28338 0.51026 0.55933 0.0
C2882 C 0.22792 0.51312 0.55454 0.0
C2883 C 0.22557 0.52794 0.56251 0.0
C2884 C 0.25256 0.53409 0.56885 0.0
C2885 C 0.28097 0.52516 0.5672 0.0
C2886 C 0.19992 0.50622 0.54756 0.0
C2887 C 0.25127 0.54991 0.57742 0.0
C2888 C 0.17113 0.58101 0.56286 0.0
C2889 C 0.13566 0.55363 0.56589 0.0
C2890 C 0.20082 0.57339 0.56197 0.0
C2891 C 0.19514 0.53738 0.56412 0.0
C2892 C 0.15984 0.51001 0.56745 0.0
C2893 C 0.13061 0.51846 0.56832 0.0
C2894 C 0.23797 0.6036 0.55847 0.0
C2895 C 0.15248 0.47127 0.56983 0.0
H2896 H 0.25841 0.49364 0.5469 0.0
H2897 H 0.3009 0.52914 0.57218 0.0
H2898 H 0.17101 0.48664 0.54984 0.0
H2899 H 0.20103 0.53297 0.54583 0.0
H2900 H 0.20525 0.49416 0.54176 0.0
H2901 H 0.27454 0.55353 0.58165 0.0
H2902 H 0.25296 0.57758 0.57662 0.0
H2903 H 0.22415 0.53099 0.5806 0.0
H2904 H 0.17557 0.60835 0.56098 0.0
H2905 H 0.10339 0.49698 0.57062 0.0
H2906 H 0.24337 0.59458 0.55224 0.0
H2907 H 0.26122 0.60803 0.56279 0.0
H2908 H 0.23869 0.63083 0.55761 0.0
H2909 H 0.15413 0.45659 0.56406 0.0
H2910 H 0.12441 0.45388 0.57279 0.0
H2911 H 0.17429 0.47335 0.57431 0.0
C2912 C 0.54836 0.63275 0.57004 0.0
C2913 C 0.51544 0.60248 0.56667 0.0
C2914 C 0.55608 0.67018 0.56917 0.0
C2915 C 0.53039 0.67786 0.56481 0.0
C2916 C 0.49654 0.64737 0.56165 0.0
C2917 C 0.4895 0.61025 0.56262 0.0
C2918 C 0.59237 0.70165 0.57271 0.0
C2919 C 0.46826 0.654 0.55696 0.0
C2920 C 0.53734 0.7741 0.56726 0.0
C2921 C 0.55707 0.79313 0.55989 0.0
C2922 C 0.52866 0.73684 0.56897 0.0
C2923 C 0.53974 0.71774 0.56317 0.0
C2924 C 0.5596 0.73672 0.55572 0.0
C2925 C 0.56808 0.774 0.5542 0.0
C2926 C 0.50746 0.71783 0.57698 0.0
C2927 C 0.57198 0.71761 0.54934 0.0
H2928 H 0.56873 0.62735 0.57317 0.0
H2929 H 0.46401 0.58736 0.55995 0.0
H2930 H 0.61043 0.71935 0.56743 0.0
H2931 H 0.5866 0.72002 0.57687 0.0
H2932 H 0.60822 0.69105 0.57642 0.0
H2933 H 0.44219 0.62734 0.55541 0.0
H2934 H 0.46064 0.67185 0.56081 0.0
H2935 H 0.48085 0.66931 0.55095 0.0
H2936 H 0.52814 0.78814 0.57167 0.0
H2937 H 0.58389 0.78835 0.54856 0.0
H2938 H 0.52391 0.70843 0.58083 0.0
H2939 H 0.48046 0.6924 0.57534 0.0
H2940 H 0.50143 0.73662 0.58093 0.0
H2941 H 0.59085 0.70907 0.55245 0.0
H2942 H 0.58699 0.73602 0.54385 0.0
H2943 H 0.54721 0.69166 0.54694 0.0
C2944 C 0.4342 0.94592 0.56905 0.0
C2945 C 0.46346 0.93968 0.56649 0.0
C2946 C 0.39618 0.91747 0.56841 0.0
C2947 C 0.38682 0.88169 0.56511 0.0
C2948 C 0.41621 0.87481 0.56277 0.0
C2949 C 0.45399 0.90372 0.56349 0.0
C2950 C 0.36593 0.92609 0.57106 0.0
C2951 C 0.40775 0.83722 0.55922 0.0
C2952 C 0.28804 0.79787 0.56884 0.0
C2953 C 0.2697 0.79591 0.56114 0.0
C2954 C 0.32591 0.82553 0.57023 0.0
C2955 C 0.34637 0.85204 0.56377 0.0
C2956 C 0.32812 0.85021 0.55598 0.0
C2957 C 0.29021 0.8224 0.55478 0.0
C2958 C 0.34408 0.82631 0.57863 0.0
C2959 C 0.34866 0.87777 0.5489 0.0
H2960 H 0.44089 0.97344 0.57136 0.0
H2961 H 0.47609 0.89833 0.56146 0.0
H2962 H 0.34891 0.92463 0.56544 0.0
H2963 H 0.34663 0.90481 0.57569 0.0
H2964 H 0.37771 0.95443 0.57396 0.0
H2965 H 0.43363 0.83557 0.55812 0.0
H2966 H 0.38915 0.8143 0.56362 0.0
H2967 H 0.39254 0.8321 0.5531 0.0
H2968 H 0.27294 0.77739 0.57377 0.0
H2969 H 0.27646 0.82179 0.54885 0.0
H2970 H 0.35469 0.85411 0.58171 0.0
H2971 H 0.36862 0.82238 0.57757 0.0
H2972 H 0.32434 0.80414 0.58305 0.0
H2973 H 0.35857 0.90687 0.55114 0.0
H2974 H 0.33073 0.87245 0.5432 0.0
H2975 H 0.37387 0.87614 0.54703 0.0
C2976 C 0.21419 0.12173 0.39915 0.0
C2977 C 0.23565 0.12431 0.39195 0.0
C2978 C 0.2043 0.14936 0.40094 0.0
C2979 C 0.21587 0.18042 0.39539 0.0
C2980 C 0.23748 0.1832 0.38811 0.0
C2981 C 0.24717 0.15533 0.38651 0.0
C2982 C 0.18131 0.14523 0.40877 0.0
C2983 C 0.25042 0.21573 0.382 0.0
C2984 C 0.16394 0.23603 0.39477 0.0
C2985 C 0.18876 0.26914 0.39914 0.0
C2986 C 0.17186 0.20659 0.39371 0.0
C2987 C 0.2054 0.21001 0.39712 0.0
C2988 C 0.22982 0.24266 0.40183 0.0
C2989 C 0.2213 0.27178 0.40276 0.0
C2990 C 0.14496 0.17239 0.38864 0.0
C2991 C 0.26565 0.24741 0.40567 0.0
H2992 H 0.20456 0.09773 0.40335 0.0
H2993 H 0.26425 0.15815 0.38101 0.0
H2994 H 0.1965 0.17039 0.41288 0.0
H2995 H 0.15434 0.14335 0.40692 0.0
H2996 H 0.17509 0.11988 0.41254 0.0
H2997 H 0.26671 0.21369 0.3766 0.0
H2998 H 0.22579 0.21681 0.37943 0.0
H2999 H 0.26825 0.24261 0.38538 0.0
H3000 H 0.13879 0.23353 0.3919 0.0
H3001 H 0.24074 0.29706 0.40616 0.0
H3002 H 0.13719 0.14638 0.39229 0.0
H3003 H 0.15884 0.17109 0.38271 0.0
H3004 H 0.11886 0.17272 0.38693 0.0
H3005 H 0.25954 0.22265 0.40964 0.0
H3006 H 0.28032 0.27313 0.40964 0.0
H3007 H 0.28496 0.24914 0.40053 0.0
C3008 C 0.95698 0.10903 0.40008 0.0
C3009 C 0.9576 0.1269 0.3924 0.0
C3010 C 0.92898 0.0716 0.40176 0.0
C3011 C 0.90055 0.05132 0.39565 0.0
C3012 C 0.90137 0.06891 0.38784 0.0
C3013 C 0.92981 0.10625 0.3863 0.0
C3014 C 0.92939 0.05399 0.41016 0.0
C3015 C 0.87178 0.04844 0.38112 0.0
C3016 C 0.84163 0.94399 0.3961 0.0
C3017 C 0.8076 0.93792 0.39963 0.0
C3018 C 0.87248 0.98054 0.39503 0.0
C3019 C 0.86935 1.01211 0.39749 0.0
C3020 C 0.83556 1.00616 0.40133 0.0
C3021 C 0.80526 0.96929 0.40238 0.0
C3022 C 0.908 0.98538 0.39101 0.0
C3023 C 0.83086 0.03886 0.40404 0.0
H3024 H 0.97783 0.12463 0.40491 0.0
H3025 H 0.93019 0.11933 0.38029 0.0
H3026 H 0.90377 0.04742 0.41383 0.0
H3027 H 0.92899 0.02708 0.40908 0.0
H3028 H 0.95444 0.07268 0.41405 0.0
H3029 H 0.87662 0.06575 0.37533 0.0
H3030 H 0.87132 0.02212 0.37929 0.0
H3031 H 0.84361 0.0404 0.38371 0.0
H3032 H 0.84397 0.92019 0.39393 0.0
H3033 H 0.77921 0.96519 0.40509 0.0
H3034 H 0.93276 1.00404 0.39497 0.0
H3035 H 0.9121 0.99902 0.3847 0.0
H3036 H 0.90722 0.95813 0.39014 0.0
H3037 H 0.85412 0.05771 0.40834 0.0
H3038 H 0.80372 0.02961 0.40735 0.0
H3039 H 0.83218 0.05564 0.39838 0.0
C3040 C 0.96334 0.83995 0.38511 0.0
C3041 C 0.94205 0.84367 0.39164 0.0
C3042 C 1.00069 0.8483 0.38646 0.0
C3043 C 1.01763 0.86092 0.39455 0.0
C3044 C 0.99653 0.86517 0.40114 0.0
C3045 C 0.95916 0.85647 0.39963 0.0
C3046 C 1.02202 0.84344 0.37922 0.0
C3047 C 1.01333 0.87857 0.40985 0.0
C3048 C 0.10226 0.84892 0.39977 0.0
C3049 C 0.13278 0.88469 0.39789 0.0
C3050 C 0.0648 0.84104 0.39888 0.0
C3051 C 0.05735 0.86955 0.39607 0.0
C3052 C 0.08799 0.90601 0.39444 0.0
C3053 C 0.12514 0.91309 0.39535 0.0
C3054 C 0.03313 0.80179 0.4007 0.0
C3055 C 0.08157 0.9374 0.39151 0.0
H3056 H 0.95087 0.83066 0.37888 0.0
H3057 H 0.94306 0.85894 0.40478 0.0
H3058 H 0.04781 0.87055 0.37785 0.0
H3059 H 0.03105 0.823 0.38104 0.0
H3060 H 1.00496 0.83336 0.37332 0.0
H3061 H 0.99366 0.88128 0.41425 0.0
H3062 H 1.02116 0.8586 0.41266 0.0
H3063 H 0.03944 0.90625 0.40936 0.0
H3064 H 0.10754 0.82662 0.4017 0.0
H3065 H 0.14826 0.94087 0.39388 0.0
H3066 H 1.017 0.78911 0.39479 0.0
H3067 H 1.01338 0.8027 0.40538 0.0
H3068 H 0.0434 0.78323 0.40322 0.0
H3069 H 0.06742 0.93024 0.38522 0.0
H3070 H 0.10821 0.96464 0.39094 0.0
H3071 H 0.06273 0.94089 0.39601 0.0
C3072 C 0.46641 0.87039 0.7974 0.0
C3073 C 0.46256 0.88282 0.80548 0.0
C3074 C 0.49492 0.86157 0.79569 0.0
C3075 C 0.52054 0.86526 0.80218 0.0
C3076 C 0.51649 0.87724 0.81037 0.0
C3077 C 0.48769 0.88574 0.81191 0.0
C3078 C 0.49799 0.84886 0.78688 0.0
C3079 C 0.54291 0.88147 0.81751 0.0
C3080 C 0.5779 0.81493 0.80089 0.0
C3081 C 0.61369 0.84417 0.79851 0.0
C3082 C 0.54717 0.82105 0.80184 0.0
C3083 C 0.55203 0.85735 0.80042 0.0
C3084 C 0.58768 0.88662 0.79771 0.0
C3085 C 0.61791 0.87971 0.79678 0.0
C3086 C 0.50976 0.78888 0.80468 0.0
C3087 C 0.59431 0.92573 0.79609 0.0
H3088 H 0.44765 0.8684 0.79233 0.0
H3089 H 0.48482 0.89462 0.81821 0.0
H3090 H 0.52538 0.86937 0.78402 0.0
H3091 H 0.4971 0.82142 0.7872 0.0
H3092 H 0.47511 0.84598 0.78262 0.0
H3093 H 0.53582 0.8906 0.82354 0.0
H3094 H 0.54208 0.85437 0.81863 0.0
H3095 H 0.57218 0.90242 0.81573 0.0
H3096 H 0.57404 0.78733 0.80226 0.0
H3097 H 0.64526 0.90266 0.79497 0.0
H3098 H 0.48714 0.78574 0.80032 0.0
H3099 H 0.50287 0.7949 0.8111 0.0
H3100 H 0.50971 0.76179 0.80493 0.0
H3101 H 0.57319 0.92473 0.79153 0.0
H3102 H 0.62285 0.94484 0.79352 0.0
H3103 H 0.59091 0.93782 0.8021 0.0
C3104 C 0.25643 0.78042 0.80344 0.0
C3105 C 0.23304 0.78967 0.79873 0.0
C3106 C 0.24778 0.74284 0.80445 0.0
C3107 C 0.21493 0.71346 0.80065 0.0
C3108 C 0.19211 0.72269 0.79557 0.0
C3109 C 0.20137 0.76057 0.79468 0.0
C3110 C 0.27305 0.73451 0.8099 0.0
C3111 C 0.15704 0.6924 0.79133 0.0
C3112 C 0.20584 0.61613 0.79907 0.0
C3113 C 0.18301 0.59728 0.8061 0.0
C3114 C 0.21606 0.65362 0.79715 0.0
C3115 C 0.20341 0.67312 0.8024 0.0
C3116 C 0.18024 0.65426 0.80948 0.0
C3117 C 0.17027 0.61673 0.81122 0.0
C3118 C 0.24075 0.67252 0.78954 0.0
C3119 C 0.16609 0.67384 0.81528 0.0
H3120 H 0.28101 0.8025 0.8066 0.0
H3121 H 0.183 0.76721 0.79104 0.0
H3122 H 0.25761 0.71897 0.81568 0.0
H3123 H 0.28133 0.71627 0.80641 0.0
H3124 H 0.29892 0.76049 0.8119 0.0
H3125 H 0.14395 0.70419 0.78706 0.0
H3126 H 0.1636 0.67349 0.78759 0.0
H3127 H 0.1362 0.67495 0.79625 0.0
H3128 H 0.21638 0.6018 0.79511 0.0
H3129 H 0.15212 0.60249 0.81658 0.0
H3130 H 0.26759 0.69707 0.79164 0.0
H3131 H 0.22685 0.68326 0.78522 0.0
H3132 H 0.24719 0.65321 0.78591 0.0
H3133 H 0.19021 0.69907 0.81813 0.0
H3134 H 0.14816 0.65531 0.82049 0.0
H3135 H 0.14958 0.68362 0.81157 0.0
C3136 C 0.45367 0.60998 0.79822 0.0
C3137 C 0.47415 0.6102 0.80542 0.0
C3138 C 0.41652 0.58081 0.79681 0.0
C3139 C 0.3989 0.55113 0.80278 0.0
C3140 C 0.41921 0.55126 0.81008 0.0
C3141 C 0.45647 0.58052 0.81128 0.0
C3142 C 0.39605 0.58183 0.78893 0.0
C3143 C 0.40154 0.52041 0.81664 0.0
C3144 C 0.29181 0.4943 0.80408 0.0
C3145 C 0.2835 0.46021 0.80015 0.0
C3146 C 0.32899 0.5242 0.80482 0.0
C3147 C 0.35898 0.52036 0.80151 0.0
C3148 C 0.35079 0.4866 0.79727 0.0
C3149 C 0.31328 0.45694 0.79668 0.0
C3150 C 0.33624 0.55949 0.80942 0.0
C3151 C 0.3818 0.48144 0.79355 0.0
H3152 H 0.46654 0.63287 0.7937 0.0
H3153 H 0.47194 0.57975 0.81678 0.0
H3154 H 0.38623 0.55554 0.78523 0.0
H3155 H 0.37078 0.58345 0.79074 0.0
H3156 H 0.414 0.60614 0.78477 0.0
H3157 H 0.42089 0.52465 0.822 0.0
H3158 H 0.37575 0.51906 0.81923 0.0
H3159 H 0.393 0.49281 0.81366 0.0
H3160 H 0.26929 0.49741 0.80682 0.0
H3161 H 0.30744 0.43089 0.79364 0.0
H3162 H 0.35278 0.58448 0.80534 0.0
H3163 H 0.35314 0.56318 0.81522 0.0
H3164 H 0.30982 0.55878 0.81132 0.0
H3165 H 0.39937 0.50504 0.78919 0.0
H3166 H 0.37075 0.45458 0.79 0.0
H3167 H 0.40041 0.48179 0.79871 0.0
C3168 C 0.19665 0.46349 0.29617 0.0
C3169 C 0.22982 0.46689 0.29962 0.0
C3170 C 0.18829 0.4928 0.29685 0.0
C3171 C 0.21364 0.52662 0.30106 0.0
C3172 C 0.24782 0.53082 0.30427 0.0
C3173 C 0.25544 0.501 0.30353 0.0
C3174 C 0.15162 0.48703 0.29329 0.0
C3175 C 0.27582 0.56635 0.30877 0.0
C3176 C 0.2031 0.61347 0.29781 0.0
C3177 C 0.18287 0.61285 0.30508 0.0
C3178 C 0.21342 0.58584 0.29643 0.0
C3179 C 0.20352 0.55673 0.30247 0.0
C3180 C 0.18334 0.55605 0.30985 0.0
C3181 C 0.17322 0.58389 0.31104 0.0
C3182 C 0.23491 0.58777 0.28849 0.0
C3183 C 0.17213 0.52563 0.31646 0.0
H3184 H 0.17651 0.43741 0.29314 0.0
H3185 H 0.2811 0.50414 0.30625 0.0
H3186 H 0.13359 0.48704 0.29854 0.0
H3187 H 0.15683 0.5105 0.28896 0.0
H3188 H 0.13594 0.46013 0.28975 0.0
H3189 H 0.30228 0.56644 0.31033 0.0
H3190 H 0.28274 0.59128 0.30479 0.0
H3191 H 0.26332 0.56936 0.31477 0.0
H3192 H 0.21132 0.63588 0.29321 0.0
H3193 H 0.15712 0.58254 0.31662 0.0
H3194 H 0.21878 0.56163 0.28473 0.0
H3195 H 0.26208 0.5898 0.29021 0.0
H3196 H 0.24061 0.61217 0.28441 0.0
H3197 H 0.15356 0.49771 0.31357 0.0
H3198 H 0.15718 0.5294 0.32193 0.0
H3199 H 0.19742 0.52543 0.31889 0.0
C3200 C 0.49304 0.62438 0.31322 0.0
C3201 C 0.46375 0.60476 0.30736 0.0
C3202 C 0.52187 0.66152 0.31166 0.0
C3203 C 0.52154 0.68001 0.30407 0.0
C3204 C 0.49195 0.66061 0.29816 0.0
C3205 C 0.4636 0.62334 0.29986 0.0
C3206 C 0.55273 0.68104 0.31816 0.0
C3207 C 0.49032 0.6792 0.29002 0.0
C3208 C 0.57707 0.7873 0.30455 0.0
C3209 C 0.61116 0.79551 0.30064 0.0
C3210 C 0.54747 0.75007 0.30549 0.0
C3211 C 0.55172 0.71991 0.30245 0.0
C3212 C 0.5855 0.72799 0.29824 0.0
C3213 C 0.61475 0.76559 0.29738 0.0
C3214 C 0.51202 0.74298 0.30998 0.0
C3215 C 0.59124 0.69678 0.29488 0.0
H3216 H 0.49336 0.61078 0.3191 0.0
H3217 H 0.44164 0.60851 0.2952 0.0
H3218 H 0.58049 0.69038 0.31517 0.0
H3219 H 0.55287 0.70653 0.32055 0.0
H3220 H 0.54946 0.66261 0.32365 0.0
H3221 H 0.46543 0.66047 0.28609 0.0
H3222 H 0.48937 0.70517 0.29148 0.0
H3223 H 0.51608 0.68766 0.28622 0.0
H3224 H 0.57371 0.81 0.30709 0.0
H3225 H 0.64087 0.77141 0.29438 0.0
H3226 H 0.5088 0.72742 0.31598 0.0
H3227 H 0.48707 0.72521 0.30599 0.0
H3228 H 0.51216 0.76947 0.31153 0.0
H3229 H 0.5916 0.67941 0.30024 0.0
H3230 H 0.61795 0.70764 0.29128 0.0
H3231 H 0.56757 0.67802 0.29066 0.0
C3232 C 0.31459 0.88716 0.29461 0.0
C3233 C 0.28663 0.85465 0.29865 0.0
C3234 C 0.35294 0.89772 0.2952 0.0
C3235 C 0.36385 0.87542 0.3 0.0
C3236 C 0.33568 0.84198 0.30386 0.0
C3237 C 0.29762 0.83201 0.30313 0.0
C3238 C 0.38191 0.9334 0.29091 0.0
C3239 C 0.3458 0.81728 0.30904 0.0
C3240 C 0.46137 0.88588 0.29728 0.0
C3241 C 0.48117 0.90841 0.30429 0.0
C3242 C 0.42358 0.87555 0.29572 0.0
C3243 C 0.40468 0.88772 0.3013 0.0
C3244 C 0.42451 0.91067 0.30833 0.0
C3245 C 0.46234 0.9208 0.30971 0.0
C3246 C 0.40368 0.85112 0.28814 0.0
C3247 C 0.40561 0.92426 0.31447 0.0
H3248 H 0.30665 0.905 0.29115 0.0
H3249 H 0.27651 0.80682 0.3063 0.0
H3250 H 0.4 0.95409 0.29578 0.0
H3251 H 0.40044 0.9276 0.28682 0.0
H3252 H 0.36889 0.94631 0.28696 0.0
H3253 H 0.32058 0.7913 0.3113 0.0
H3254 H 0.36335 0.80919 0.30522 0.0
H3255 H 0.36268 0.8331 0.31464 0.0
H3256 H 0.47517 0.87559 0.29309 0.0
H3257 H 0.47727 0.93875 0.31505 0.0
H3258 H 0.39165 0.86478 0.28413 0.0
H3259 H 0.37995 0.82386 0.29031 0.0
H3260 H 0.4227 0.84549 0.28416 0.0
H3261 H 0.39469 0.94041 0.31102 0.0
H3262 H 0.42496 0.94236 0.31955 0.0
H3263 H 0.38121 0.89984 0.31749 0.0
C3264 C 0.95101 0.87058 0.90097 0.0
C3265 C 0.95388 0.85628 0.89305 0.0
C3266 C 0.92275 0.87981 0.90259 0.0
C3267 C 0.89631 0.87454 0.89617 0.0
C3268 C 0.89938 0.86072 0.88812 0.0
C3269 C 0.92802 0.85192 0.88666 0.0
C3270 C 0.92074 0.89456 0.91124 0.0
C3271 C 0.87199 0.85468 0.88107 0.0
C3272 C 0.79937 0.86023 0.90188 0.0
C3273 C 0.80282 0.89507 0.89971 0.0
C3274 C 0.82976 0.85358 0.90099 0.0
C3275 C 0.8648 0.88243 0.89789 0.0
C3276 C 0.86899 0.91815 0.89603 0.0
C3277 C 0.83807 0.924 0.89694 0.0
C3278 C 0.82385 0.81507 0.90306 0.0
C3279 C 0.9058 0.9499 0.89279 0.0
H3280 H 0.97029 0.87365 0.90602 0.0
H3281 H 0.93012 0.84156 0.88048 0.0
H3282 H 0.92101 0.92162 0.9106 0.0
H3283 H 0.89397 0.87446 0.9144 0.0
H3284 H 0.94444 0.89893 0.91541 0.0
H3285 H 0.87845 0.84436 0.87514 0.0
H3286 H 0.84302 0.83395 0.88311 0.0
H3287 H 0.87236 0.88136 0.87965 0.0
H3288 H 0.77242 0.83752 0.90399 0.0
H3289 H 0.84131 0.95105 0.89523 0.0
H3290 H 0.84572 0.8174 0.90756 0.0
H3291 H 0.82659 0.80169 0.89719 0.0
H3292 H 0.79576 0.79635 0.90589 0.0
H3293 H 0.92915 0.95421 0.89706 0.0
H3294 H 0.9055 0.97676 0.89228 0.0
H3295 H 0.91188 0.9426 0.88642 0.0
C3296 C 0.23565 0.11278 0.88538 0.0
C3297 C 0.23242 0.13495 0.89177 0.0
C3298 C 0.2267 0.07537 0.88694 0.0
C3299 C 0.21394 0.05924 0.89509 0.0
C3300 C 0.21036 0.08128 0.90156 0.0
C3301 C 0.21966 0.11871 0.89984 0.0
C3302 C 0.23093 0.05305 0.87983 0.0
C3303 C 0.19685 0.06537 0.91033 0.0
C3304 C 0.16051 0.9517 0.89629 0.0
C3305 C 0.1886 0.94382 0.89894 0.0
C3306 C 0.16804 0.98897 0.89525 0.0
C3307 C 0.20467 0.01945 0.89682 0.0
C3308 C 0.23287 1.01174 0.89972 0.0
C3309 C 0.22451 0.9742 0.90077 0.0
C3310 C 0.13694 0.99566 0.89224 0.0
C3311 C 0.27232 0.0432 0.90146 0.0
H3312 H 0.2448 0.12453 0.87908 0.0
H3313 H 0.21747 0.13547 0.90488 0.0
H3314 H 0.25083 0.04349 0.88175 0.0
H3315 H 0.2035 0.02755 0.87852 0.0
H3316 H 0.24134 0.0696 0.87387 0.0
H3317 H 0.19481 0.08576 0.91462 0.0
H3318 H 0.16883 0.03964 0.90992 0.0
H3319 H 0.21634 0.05709 0.9132 0.0
H3320 H 0.13267 0.92868 0.89485 0.0
H3321 H 0.24658 0.96873 0.90278 0.0
H3322 H 0.14397 1.00892 0.88585 0.0
H3323 H 0.13408 0.01537 0.89658 0.0
H3324 H 0.10943 0.96921 0.89185 0.0
H3325 H 0.2851 0.05876 0.89549 0.0
H3326 H 0.29058 0.03276 0.90407 0.0
H3327 H 0.27178 0.06352 0.90602 0.0
C3328 C 0.96032 0.12524 0.90038 0.0
C3329 C 0.94112 0.12366 0.89284 0.0
C3330 C 0.99769 0.15391 0.90179 0.0
C3331 C 1.01684 0.18173 0.89549 0.0
C3332 C 0.99795 0.17998 0.88781 0.0
C3333 C 0.96045 0.15119 0.88659 0.0
C3334 C 1.01662 0.15456 0.91007 0.0
C3335 C 1.01727 0.20884 0.88089 0.0
C3336 C 0.10152 0.27687 0.90141 0.0
C3337 C 0.1319 0.27284 0.89866 0.0
C3338 C 0.0641 0.24728 0.90059 0.0
C3339 C 0.05659 0.21265 0.89691 0.0
C3340 C 0.08714 0.208 0.89437 0.0
C3341 C 0.12423 0.23798 0.89528 0.0
C3342 C 0.03249 0.25344 0.90345 0.0
C3343 C 0.08064 0.17167 0.89044 0.0
H3344 H 0.94616 0.10391 0.9052 0.0
H3345 H 0.94602 0.15081 0.8808 0.0
H3346 H 0.04234 0.15288 0.90881 0.0
H3347 H 0.02552 0.18147 0.91342 0.0
H3348 H 0.99795 0.131 0.91434 0.0
H3349 H 0.99911 0.20317 0.87521 0.0
H3350 H 0.02546 0.23726 0.88333 0.0
H3351 H 0.04343 0.20929 0.87891 0.0
H3352 H 0.10684 0.30353 0.90401 0.0
H3353 H 0.14723 0.23426 0.89312 0.0
H3354 H 1.01398 0.23106 0.90797 0.0
H3355 H 1.01498 0.2517 0.8979 0.0
H3356 H 0.04291 0.2812 0.90656 0.0
H3357 H 0.06287 0.14764 0.89468 0.0
H3358 H 0.10734 0.17178 0.8892 0.0
H3359 H 0.0653 0.16683 0.88435 0.0
C3360 C 0.90711 0.48281 0.71924 0.0
C3361 C 0.90163 0.45674 0.72567 0.0
C3362 C 0.89908 0.51206 0.72059 0.0
C3363 C 0.88515 0.51563 0.72858 0.0
C3364 C 0.87943 0.48938 0.73508 0.0
C3365 C 0.88769 0.46039 0.73356 0.0
C3366 C 0.90541 0.53914 0.71344 0.0
C3367 C 0.86471 0.49203 0.74369 0.0
C3368 C 0.89505 0.61137 0.73389 0.0
C3369 C 0.85938 0.60581 0.73174 0.0
C3370 C 0.90359 0.58215 0.73307 0.0
C3371 C 0.87589 0.54635 0.73003 0.0
C3372 C 0.83956 0.54027 0.72811 0.0
C3373 C 0.83177 0.56987 0.72899 0.0
C3374 C 0.94264 0.58993 0.73524 0.0
C3375 C 0.80905 0.50267 0.72488 0.0
H3376 H 0.91739 0.48017 0.71308 0.0
H3377 H 0.88389 0.44095 0.73864 0.0
H3378 H 0.87855 0.53793 0.71178 0.0
H3379 H 0.9253 0.56833 0.71549 0.0
H3380 H 0.91681 0.53294 0.70765 0.0
H3381 H 0.86182 0.46955 0.74809 0.0
H3382 H 0.88389 0.51973 0.74661 0.0
H3383 H 0.83685 0.49 0.743 0.0
H3384 H 0.91672 0.63887 0.73599 0.0
H3385 H 0.80406 0.56492 0.72731 0.0
H3386 H 0.95654 0.58735 0.72944 0.0
H3387 H 0.94117 0.56885 0.73988 0.0
H3388 H 0.96039 0.61847 0.73796 0.0
H3389 H 0.81762 0.49633 0.71869 0.0
H3390 H 0.78181 0.50189 0.72401 0.0
H3391 H 0.80486 0.48003 0.72936 0.0
C3392 C 0.4628 0.30267 0.73593 0.0
C3393 C 0.46767 0.27253 0.73338 0.0
C3394 C 0.49193 0.34032 0.73507 0.0
C3395 C 0.52696 0.34838 0.73153 0.0
C3396 C 0.53253 0.31809 0.72925 0.0
C3397 C 0.50301 0.28072 0.73021 0.0
C3398 C 0.48472 0.37157 0.73767 0.0
C3399 C 0.56926 0.32513 0.72546 0.0
C3400 C 0.58632 0.44278 0.72028 0.0
C3401 C 0.61436 0.46375 0.72631 0.0
C3402 C 0.5579 0.40548 0.7219 0.0
C3403 C 0.55699 0.38834 0.7298 0.0
C3404 C 0.58496 0.40934 0.73595 0.0
C3405 C 0.61322 0.44657 0.73413 0.0
C3406 C 0.52878 0.38434 0.71514 0.0
C3407 C 0.58518 0.39237 0.74445 0.0
H3408 H 0.43578 0.29696 0.73837 0.0
H3409 H 0.50735 0.25793 0.72819 0.0
H3410 H 0.50722 0.39137 0.74201 0.0
H3411 H 0.48526 0.38778 0.73198 0.0
H3412 H 0.45715 0.36081 0.74089 0.0
H3413 H 0.5701 0.29872 0.72453 0.0
H3414 H 0.57361 0.33929 0.71921 0.0
H3415 H 0.59306 0.34417 0.72961 0.0
H3416 H 0.58626 0.45567 0.71427 0.0
H3417 H 0.63485 0.46203 0.73882 0.0
H3418 H 0.50029 0.37543 0.71765 0.0
H3419 H 0.52937 0.35848 0.71336 0.0
H3420 H 0.53336 0.40148 0.70933 0.0
H3421 H 0.55796 0.38269 0.74773 0.0
H3422 H 0.60821 0.41257 0.74863 0.0
H3423 H 0.58844 0.36735 0.7435 0.0
C3424 C 0.63515 0.20755 0.73351 0.0
C3425 C 0.61443 0.18522 0.72656 0.0
C3426 C 0.67243 0.21601 0.73506 0.0
C3427 C 0.68996 0.20229 0.72949 0.0
C3428 C 0.66949 0.18021 0.72241 0.0
C3429 C 0.63213 0.17182 0.72106 0.0
C3430 C 0.69303 0.23957 0.7427 0.0
C3431 C 0.68702 0.16516 0.71625 0.0
C3432 C 0.79714 0.24969 0.72836 0.0
C3433 C 0.80447 0.22436 0.73284 0.0
C3434 C 0.76029 0.24337 0.7274 0.0
C3435 C 0.72966 0.21094 0.73103 0.0
C3436 C 0.73696 0.18598 0.73583 0.0
C3437 C 0.77412 0.1929 0.73666 0.0
C3438 C 0.75404 0.27077 0.72222 0.0
C3439 C 0.70533 0.15129 0.7399 0.0
H3440 H 0.62232 0.21871 0.73775 0.0
H3441 H 0.61655 0.15403 0.71576 0.0
H3442 H 0.70207 0.22373 0.74687 0.0
H3443 H 0.71878 0.26542 0.74063 0.0
H3444 H 0.67544 0.24783 0.74647 0.0
H3445 H 0.66778 0.14916 0.71095 0.0
H3446 H 0.71314 0.18869 0.71354 0.0
H3447 H 0.69496 0.14643 0.71964 0.0
H3448 H 0.82013 0.27408 0.72535 0.0
H3449 H 0.77921 0.17304 0.74012 0.0
H3450 H 0.73725 0.2803 0.7259 0.0
H3451 H 0.73779 0.25662 0.71642 0.0
H3452 H 0.78087 0.29585 0.72029 0.0
H3453 H 0.68803 0.15901 0.74392 0.0
H3454 H 0.71572 0.13597 0.74387 0.0
H3455 H 0.68665 0.13196 0.73489 0.0
C3456 C 0.23791 0.14686 0.1377 0.0
C3457 C 0.27346 0.17398 0.13466 0.0
C3458 C 0.20852 0.15495 0.13865 0.0
C3459 C 0.21453 0.1911 0.1365 0.0
C3460 C 0.24987 0.21818 0.13315 0.0
C3461 C 0.27882 0.20936 0.13228 0.0
C3462 C 0.17141 0.12512 0.14224 0.0
C3463 C 0.25753 0.25697 0.13071 0.0
C3464 C 0.12893 0.20395 0.13359 0.0
C3465 C 0.12708 0.21926 0.14145 0.0
C3466 C 0.15725 0.19493 0.13187 0.0
C3467 C 0.18449 0.20109 0.13815 0.0
C3468 C 0.18285 0.21658 0.14608 0.0
C3469 C 0.1544 0.22554 0.14762 0.0
C3470 C 0.15785 0.17853 0.12332 0.0
C3471 C 0.21121 0.22366 0.15298 0.0
H3472 H 0.23325 0.11952 0.13962 0.0
H3473 H 0.30603 0.23066 0.12993 0.0
H3474 H 0.1666 0.13439 0.14851 0.0
H3475 H 0.14801 0.12096 0.13801 0.0
H3476 H 0.17033 0.09771 0.14308 0.0
H3477 H 0.28553 0.27404 0.12769 0.0
H3478 H 0.23566 0.25493 0.12625 0.0
H3479 H 0.25627 0.27198 0.13645 0.0
H3480 H 0.10783 0.1984 0.1288 0.0
H3481 H 0.15386 0.23791 0.15366 0.0
H3482 H 0.1544 0.15014 0.12417 0.0
H3483 H 0.1854 0.19625 0.12019 0.0
H3484 H 0.13529 0.17625 0.11904 0.0
H3485 H 0.2103 0.19697 0.15469 0.0
H3486 H 0.2061 0.23572 0.15881 0.0
H3487 H 0.23999 0.24329 0.15064 0.0
C3488 C 0.90945 0.107 0.13792 0.0
C3489 C 0.88355 0.11615 0.13436 0.0
C3490 C 0.9014 0.06946 0.1386 0.0
C3491 C 0.86659 0.03987 0.13561 0.0
C3492 C 0.84075 0.04886 0.13177 0.0
C3493 C 0.84943 0.08674 0.13122 0.0
C3494 C 0.92983 0.06143 0.14276 0.0
C3495 C 0.80347 0.01835 0.12842 0.0
C3496 C 0.85865 0.94383 0.13189 0.0
C3497 C 0.84028 0.92388 0.1393 0.0
C3498 C 0.86687 0.98119 0.13055 0.0
C3499 C 0.85685 0.99958 0.13678 0.0
C3500 C 0.83835 0.9797 0.14426 0.0
C3501 C 0.8302 0.94228 0.14541 0.0
C3502 C 0.88657 1.00113 0.12247 0.0
C3503 C 0.82724 0.99806 0.15111 0.0
H3504 H 0.9359 0.12918 0.1404 0.0
H3505 H 0.82908 0.09317 0.12847 0.0
H3506 H 0.91766 0.04467 0.14862 0.0
H3507 H 0.9369 0.04446 0.13845 0.0
H3508 H 0.95618 0.08755 0.14446 0.0
H3509 H 0.78733 0.02991 0.12519 0.0
H3510 H 0.80792 1.00031 0.12386 0.0
H3511 H 0.78629 1.00008 0.13373 0.0
H3512 H 0.86717 0.93042 0.12715 0.0
H3513 H 0.81542 0.92726 0.15109 0.0
H3514 H 0.91416 0.026 0.12402 0.0
H3515 H 0.86977 1.01152 0.1191 0.0
H3516 H 0.89129 0.98262 0.1181 0.0
H3517 H 0.85255 0.02349 0.15352 0.0
H3518 H 0.81293 0.97889 0.15654 0.0
H3519 H 0.80817 1.00734 0.14844 0.0
C3520 C 0.1077 0.90861 0.14487 0.0
C3521 C 0.12922 0.93796 0.13915 0.0
C3522 C 0.07051 0.8808 0.14298 0.0
C3523 C 0.05387 0.88222 0.13519 0.0
C3524 C 0.07514 0.91197 0.12943 0.0
C3525 C 0.11244 0.93931 0.13146 0.0
C3526 C 0.04901 0.84973 0.14933 0.0
C3527 C 0.05854 0.91477 0.12109 0.0
C3528 C 0.96941 0.78949 0.12795 0.0
C3529 C 0.93904 0.79265 0.13107 0.0
C3530 C 1.0068 0.8189 0.12897 0.0
C3531 C 1.01421 0.85253 0.13315 0.0
C3532 C 0.98356 0.85661 0.1359 0.0
C3533 C 0.94651 0.8267 0.13487 0.0
C3534 C 0.03849 0.81319 0.12594 0.0
C3535 C 0.98992 0.89201 0.1403 0.0
H3536 H 0.11984 0.90746 0.1509 0.0
H3537 H 0.1287 0.96141 0.12692 0.0
H3538 H 0.02334 0.8501 0.15138 0.0
H3539 H 0.03979 0.82201 0.14633 0.0
H3540 H 0.06601 0.85229 0.15505 0.0
H3541 H 0.07833 0.94001 0.11738 0.0
H3542 H 0.05072 0.88939 0.11719 0.0
H3543 H 0.03244 0.91587 0.12224 0.0
H3544 H 0.96415 0.76335 0.12506 0.0
H3545 H 0.92338 0.82962 0.13729 0.0
H3546 H 0.0545 0.81193 0.13149 0.0
H3547 H 0.05833 0.83726 0.12195 0.0
H3548 H 0.02819 0.78687 0.12221 0.0
H3549 H 1.00345 0.89453 0.14656 0.0
H3550 H 0.96328 0.89228 0.14134 0.0
H3551 H 1.00923 0.91712 0.13651 0.0
C3552 C 0.90817 0.81975 0.63632 0.0
C3553 C 0.88349 0.78531 0.63239 0.0
C3554 C 0.8988 0.8482 0.63728 0.0
C3555 C 0.86384 0.84245 0.63423 0.0
C3556 C 0.83938 0.80836 0.62996 0.0
C3557 C 0.84944 0.78024 0.62911 0.0
C3558 C 0.92588 0.88399 0.64184 0.0
C3559 C 0.80199 0.8011 0.62655 0.0
C3560 C 0.82416 0.89841 0.64518 0.0
C3561 C 0.8342 0.92859 0.63955 0.0
C3562 C 0.83306 0.87004 0.64345 0.0
C3563 C 0.85236 0.87143 0.63587 0.0
C3564 C 0.86201 0.90137 0.63008 0.0
C3565 C 0.85295 0.92952 0.63199 0.0
C3566 C 0.82221 0.83876 0.64983 0.0
C3567 C 0.88256 0.90407 0.62193 0.0
H3568 H 0.93463 0.82424 0.63887 0.0
H3569 H 0.83006 0.75382 0.62609 0.0
H3570 H 0.93212 0.9088 0.63788 0.0
H3571 H 0.9129 0.88636 0.64782 0.0
H3572 H 0.95278 0.88505 0.64343 0.0
H3573 H 0.78733 0.77448 0.62287 0.0
H3574 H 0.78363 0.79953 0.63189 0.0
H3575 H 0.80592 0.82464 0.62239 0.0
H3576 H 0.8091 0.89681 0.65096 0.0
H3577 H 0.86137 0.95278 0.62762 0.0
H3578 H 0.84782 0.83919 0.65225 0.0
H3579 H 0.80458 0.81111 0.64673 0.0
H3580 H 0.80649 0.84111 0.65532 0.0
H3581 H 0.91071 0.90794 0.6234 0.0
H3582 H 0.88621 0.92782 0.61786 0.0
H3583 H 0.86706 0.87757 0.61826 0.0
C3584 C 0.23537 0.10901 0.63534 0.0
C3585 C 0.27098 0.11727 0.63237 0.0
C3586 C 0.20545 0.0716 0.63595 0.0
C3587 C 0.21104 0.04143 0.63354 0.0
C3588 C 0.24645 0.04966 0.63022 0.0
C3589 C 0.27582 0.08727 0.62967 0.0
C3590 C 0.16819 0.06431 0.63946 0.0
C3591 C 0.25383 0.01859 0.62755 0.0
C3592 C 0.15129 0.94483 0.64382 0.0
C3593 C 0.12527 0.92429 0.63739 0.0
C3594 C 0.17886 0.98286 0.64268 0.0
C3595 C 0.18073 1.00127 0.63491 0.0
C3596 C 0.1543 0.98093 0.62843 0.0
C3597 C 0.127 0.94285 0.62974 0.0
C3598 C 0.20625 1.0033 0.64979 0.0
C3599 C 0.15518 0.99927 0.62005 0.0
H3600 H 0.23107 0.13172 0.63746 0.0
H3601 H 0.30303 0.09299 0.62736 0.0
H3602 H 0.14503 0.04577 0.6351 0.0
H3603 H 0.1628 0.04948 0.64564 0.0
H3604 H 0.16734 0.09069 0.64043 0.0
H3605 H 0.28199 0.02959 0.62461 0.0
H3606 H 0.25198 1.00139 0.63317 0.0
H3607 H 0.23217 0.99965 0.62295 0.0
H3608 H 0.14997 0.93122 0.64981 0.0
H3609 H 0.10744 0.92737 0.62468 0.0
H3610 H 0.20468 0.02855 0.65166 0.0
H3611 H 0.23537 1.01313 0.64759 0.0
H3612 H 0.20075 0.9853 0.65549 0.0
H3613 H 0.15329 0.02499 0.62114 0.0
H3614 H 0.13189 0.98019 0.61577 0.0
H3615 H 0.18227 1.00808 0.61679 0.0
C3616 C 0.11562 0.22887 0.64616 0.0
C3617 C 0.13376 0.21775 0.64021 0.0
C3618 C 0.07848 0.22117 0.64488 0.0
C3619 C 0.05874 0.20213 0.63744 0.0
C3620 C 0.07693 0.19122 0.63136 0.0
C3621 C 0.11401 0.19897 0.63283 0.0
C3622 C 0.06023 0.23322 0.65156 0.0
C3623 C 0.05706 0.17095 0.62332 0.0
C3624 C 0.95161 0.1503 0.63855 0.0
C3625 C 0.94281 0.17611 0.6348 0.0
C3626 C 0.98899 0.15815 0.6393 0.0
C3627 C 1.01869 0.1926 0.63619 0.0
C3628 C 1.01005 0.21833 0.63217 0.0
C3629 C 0.97233 0.2099 0.63156 0.0
C3630 C 0.99675 0.12992 0.64367 0.0
C3631 C 0.04076 0.25519 0.62867 0.0
H3632 H 0.1306 0.24401 0.65181 0.0
H3633 H 0.12732 0.18973 0.62823 0.0
H3634 H 0.05118 0.25215 0.64871 0.0
H3635 H 0.03469 0.20827 0.65406 0.0
H3636 H 0.07939 0.24801 0.65697 0.0
H3637 H 0.07556 0.16583 0.61905 0.0
H3638 H 0.03213 0.14352 0.62494 0.0
H3639 H 0.0468 0.18757 0.61983 0.0
H3640 H 0.92928 0.12412 0.64111 0.0
H3641 H 0.96608 0.2301 0.62865 0.0
H3642 H 1.01359 0.14257 0.6495 0.0
H3643 H 1.01355 0.12224 0.63946 0.0
H3644 H 0.97054 0.10385 0.64547 0.0
H3645 H 0.05911 0.27279 0.63393 0.0
H3646 H 0.0294 0.27121 0.62531 0.0
H3647 H 0.05867 0.25012 0.6242 0.0
C3648 C 0.46904 0.18717 0.23802 0.0
C3649 C 0.47276 0.22045 0.23455 0.0
C3650 C 0.49814 0.17847 0.23736 0.0
C3651 C 0.53204 0.20357 0.23312 0.0
C3652 C 0.53655 0.23785 0.2299 0.0
C3653 C 0.50698 0.24582 0.23064 0.0
C3654 C 0.49203 0.14168 0.24093 0.0
C3655 C 0.57216 0.26562 0.22538 0.0
C3656 C 0.61872 0.19252 0.23621 0.0
C3657 C 0.61794 0.17244 0.2289 0.0
C3658 C 0.59118 0.20291 0.23766 0.0
C3659 C 0.56189 0.19307 0.23168 0.0
C3660 C 0.56101 0.17296 0.22427 0.0
C3661 C 0.5889 0.16299 0.22298 0.0
C3662 C 0.59329 0.22425 0.24565 0.0
C3663 C 0.53052 0.16196 0.21769 0.0
H3664 H 0.44286 0.16721 0.24104 0.0
H3665 H 0.5104 0.2716 0.22791 0.0
H3666 H 0.49156 0.12344 0.23567 0.0
H3667 H 0.51556 0.14665 0.2452 0.0
H3668 H 0.46524 0.12635 0.24452 0.0
H3669 H 0.57249 0.29219 0.2238 0.0
H3670 H 0.59703 0.27238 0.22937 0.0
H3671 H 0.57504 0.25297 0.2194 0.0
H3672 H 0.6406 0.19965 0.2409 0.0
H3673 H 0.58817 0.14808 0.21723 0.0
H3674 H 0.56746 0.20781 0.24948 0.0
H3675 H 0.59478 0.25125 0.24398 0.0
H3676 H 0.61806 0.23032 0.24962 0.0
H3677 H 0.50256 0.14412 0.22064 0.0
H3678 H 0.53365 0.14633 0.21229 0.0
H3679 H 0.53098 0.18746 0.21517 0.0
C3680 C 0.92248 0.45173 0.22237 0.0
C3681 C 0.91428 0.47219 0.22832 0.0
C3682 C 0.91226 0.4139 0.22381 0.0
C3683 C 0.8932 0.39562 0.23139 0.0
C3684 C 0.88492 0.41606 0.23744 0.0
C3685 C 0.89552 0.45392 0.23584 0.0
C3686 C 0.92156 0.39332 0.21715 0.0
C3687 C 0.86474 0.39786 0.2456 0.0
C3688 C 0.8363 0.28824 0.23062 0.0
C3689 C 0.86102 0.27784 0.2343 0.0
C3690 C 0.84594 0.32623 0.22986 0.0
C3691 C 0.88128 0.35494 0.23285 0.0
C3692 C 0.9058 0.34464 0.23686 0.0
C3693 C 0.89542 0.30635 0.23755 0.0
C3694 C 0.81874 0.33566 0.22558 0.0
C3695 C 0.94365 0.37418 0.24018 0.0
H3696 H 0.9364 0.46512 0.21648 0.0
H3697 H 0.88943 0.46938 0.24055 0.0
H3698 H 0.93875 0.38212 0.21999 0.0
H3699 H 0.8953 0.36894 0.21474 0.0
H3700 H 0.93719 0.41163 0.21169 0.0
H3701 H 0.8607 0.41757 0.24971 0.0
H3702 H 0.8368 0.37326 0.24417 0.0
H3703 H 0.88084 0.3873 0.24921 0.0
H3704 H 0.8096 0.26666 0.2281 0.0
H3705 H 0.91489 0.29888 0.24038 0.0
H3706 H 0.8312 0.35112 0.21958 0.0
H3707 H 0.81329 0.35434 0.22971 0.0
H3708 H 0.79149 0.31017 0.22408 0.0
H3709 H 0.96159 0.39113 0.2348 0.0
H3710 H 0.95841 0.36171 0.24364 0.0
H3711 H 0.9404 0.39371 0.2445 0.0
C3712 C 0.63464 0.48104 0.22004 0.0
C3713 C 0.61432 0.45427 0.22636 0.0
C3714 C 0.67191 0.50999 0.22141 0.0
C3715 C 0.68976 0.51242 0.22929 0.0
C3716 C 0.66964 0.48533 0.23567 0.0
C3717 C 0.6323 0.45675 0.23414 0.0
C3718 C 0.6922 0.53809 0.21441 0.0
C3719 C 0.68749 0.48668 0.24415 0.0
C3720 C 0.79713 0.56777 0.22923 0.0
C3721 C 0.80503 0.60311 0.23233 0.0
C3722 C 0.75996 0.53783 0.22845 0.0
C3723 C 0.72957 0.54311 0.23078 0.0
C3724 C 0.73734 0.5783 0.23418 0.0
C3725 C 0.77487 0.60777 0.23494 0.0
C3726 C 0.75322 0.50082 0.22489 0.0
C3727 C 0.7059 0.58526 0.23675 0.0
H3728 H 0.62145 0.47927 0.21396 0.0
H3729 H 0.61692 0.43676 0.23914 0.0
H3730 H 0.70141 0.56695 0.21671 0.0
H3731 H 0.71783 0.53724 0.21254 0.0
H3732 H 0.67436 0.53266 0.20868 0.0
H3733 H 0.66841 0.46326 0.2484 0.0
H3734 H 0.71358 0.48534 0.2432 0.0
H3735 H 0.69559 0.51371 0.24737 0.0
H3736 H 0.82006 0.56363 0.22722 0.0
H3737 H 0.78047 0.63488 0.2373 0.0
H3738 H 0.73841 0.49537 0.2187 0.0
H3739 H 0.73488 0.47744 0.22922 0.0
H3740 H 0.7798 0.50037 0.2239 0.0
H3741 H 0.68902 0.58343 0.23107 0.0
H3742 H 0.71649 0.61329 0.23973 0.0
H3743 H 0.68676 0.56334 0.24128 0.0
C3744 C 0.51996 0.28549 0.06868 0.0
C3745 C 0.51472 0.30778 0.06267 0.0
C3746 C 0.51341 0.24937 0.06663 0.0
C3747 C 0.50151 0.23493 0.05832 0.0
C3748 C 0.49593 0.25712 0.05222 0.0
C3749 C 0.50255 0.29318 0.05447 0.0
C3750 C 0.52068 0.22734 0.07332 0.0
C3751 C 0.4837 0.24306 0.04328 0.0
C3752 C 0.52626 0.15979 0.05282 0.0
C3753 C 0.4927 0.12661 0.05468 0.0
C3754 C 0.52872 0.19511 0.05336 0.0
C3755 C 0.49698 0.19749 0.05598 0.0
C3756 C 0.46229 0.16387 0.05733 0.0
C3757 C 0.46047 0.12873 0.05659 0.0
C3758 C 0.56614 0.22996 0.05174 0.0
C3759 C 0.4279 0.16516 0.06021 0.0
H3760 H 0.53008 0.29662 0.07498 0.0
H3761 H 0.498 0.30991 0.04979 0.0
H3762 H 0.499 0.19716 0.07315 0.0
H3763 H 0.54823 0.22938 0.07207 0.0
H3764 H 0.52143 0.23828 0.07982 0.0
H3765 H 0.47931 0.26309 0.03937 0.0
H3766 H 0.50528 0.23841 0.04016 0.0
H3767 H 0.4572 0.21562 0.04339 0.0
H3768 H 0.55132 0.15822 0.05142 0.0
H3769 H 0.43472 0.10321 0.05822 0.0
H3770 H 0.57849 0.24409 0.05787 0.0
H3771 H 0.56256 0.25018 0.04772 0.0
H3772 H 0.58636 0.22335 0.04858 0.0
H3773 H 0.43345 0.17953 0.06646 0.0
H3774 H 0.40288 0.13666 0.06082 0.0
H3775 H 0.42139 0.18175 0.05565 0.0
C3776 C 0.93171 0.35212 0.05872 0.0
C3777 C 0.93383 0.38712 0.05784 0.0
C3778 C 0.89663 0.31894 0.05958 0.0
C3779 C 0.86306 0.32085 0.0594 0.0
C3780 C 0.8652 0.35598 0.05804 0.0
C3781 C 0.90048 0.3886 0.05732 0.0
C3782 C 0.8956 0.28227 0.06129 0.0
C3783 C 0.83033 0.35955 0.05798 0.0
C3784 C 0.76638 0.23361 0.05679 0.0
C3785 C 0.7531 0.22629 0.0652 0.0
C3786 C 0.8025 0.26356 0.05484 0.0
C3787 C 0.82593 0.28709 0.06143 0.0
C3788 C 0.81278 0.27956 0.06994 0.0
C3789 C 0.77688 0.24916 0.0717 0.0
C3790 C 0.81528 0.27055 0.04569 0.0
C3791 C 0.836 0.30295 0.07736 0.0
H3792 H 0.95743 0.35098 0.05932 0.0
H3793 H 0.90203 0.41567 0.05672 0.0
H3794 H 0.88599 0.2732 0.06791 0.0
H3795 H 0.8752 0.26 0.05699 0.0
H3796 H 0.9236 0.28469 0.06046 0.0
H3797 H 0.83645 0.38818 0.05611 0.0
H3798 H 0.80913 0.33886 0.05353 0.0
H3799 H 0.81762 0.3533 0.06442 0.0
H3800 H 0.74824 0.21643 0.05168 0.0
H3801 H 0.76751 0.24334 0.07825 0.0
H3802 H 0.84272 0.27161 0.04506 0.0
H3803 H 0.81947 0.29823 0.04362 0.0
H3804 H 0.79471 0.24853 0.04136 0.0
H3805 H 0.84561 0.28625 0.08105 0.0
H3806 H 0.8184 0.30913 0.08169 0.0
H3807 H 0.8609 0.32993 0.07549 0.0
C3808 C 0.84756 0.57848 0.058 0.0
C3809 C 0.84436 0.55477 0.06479 0.0
C3810 C 0.81866 0.58651 0.05614 0.0
C3811 C 0.78564 0.57049 0.06117 0.0
C3812 C 0.78232 0.54667 0.06804 0.0
C3813 C 0.81154 0.53908 0.06975 0.0
C3814 C 0.82343 0.61211 0.04878 0.0
C3815 C 0.74768 0.52891 0.07358 0.0
C3816 C 0.71794 0.60898 0.06208 0.0
C3817 C 0.68787 0.58243 0.05719 0.0
C3818 C 0.75091 0.60672 0.06309 0.0
C3819 C 0.75376 0.57719 0.05911 0.0
C3820 C 0.72416 0.55167 0.05377 0.0
C3821 C 0.69148 0.55438 0.05296 0.0
C3822 C 0.78143 0.63432 0.06891 0.0
C3823 C 0.72585 0.51985 0.04938 0.0
H3824 H 0.87293 0.59126 0.05419 0.0
H3825 H 0.80839 0.52032 0.07493 0.0
H3826 H 0.80074 0.59682 0.04405 0.0
H3827 H 0.82092 0.63639 0.05104 0.0
H3828 H 0.851 0.62288 0.04556 0.0
H3829 H 0.74966 0.51163 0.07878 0.0
H3830 H 0.74327 0.55109 0.07645 0.0
H3831 H 0.72253 0.51078 0.06968 0.0
H3832 H 0.71465 0.62991 0.06558 0.0
H3833 H 0.66782 0.5333 0.04935 0.0
H3834 H 0.77786 0.65881 0.07041 0.0
H3835 H 0.80955 0.64463 0.06602 0.0
H3836 H 0.78073 0.62005 0.07496 0.0
H3837 H 0.75299 0.5305 0.04599 0.0
H3838 H 0.70258 0.50502 0.04475 0.0
H3839 H 0.72405 0.4992 0.05418 0.0
C3840 C 0.30407 0.52782 0.46549 0.0
C3841 C 0.32245 0.51605 0.47121 0.0
C3842 C 0.26793 0.52204 0.46719 0.0
C3843 C 0.24948 0.50445 0.47487 0.0
C3844 C 0.26807 0.4931 0.48076 0.0
C3845 C 0.30417 0.49889 0.47885 0.0
C3846 C 0.25001 0.53562 0.46077 0.0
C3847 C 0.24981 0.47491 0.48908 0.0
C3848 C 0.1712 0.52498 0.48046 0.0
C3849 C 0.13923 0.49271 0.47746 0.0
C3850 C 0.20688 0.52798 0.48026 0.0
C3851 C 0.21099 0.49851 0.4767 0.0
C3852 C 0.17844 0.4652 0.47397 0.0
C3853 C 0.14288 0.46253 0.47449 0.0
C3854 C 0.24048 0.56378 0.48335 0.0
C3855 C 0.18155 0.4337 0.46983 0.0
H3856 H 0.3181 0.54195 0.45967 0.0
H3857 H 0.31783 0.48938 0.4833 0.0
H3858 H 0.21929 0.51625 0.46036 0.0
H3859 H 0.25461 0.56352 0.46277 0.0
H3860 H 0.2624 0.53866 0.45434 0.0
H3861 H 0.26819 0.46843 0.49307 0.0
H3862 H 0.24274 0.49377 0.49271 0.0
H3863 H 0.22309 0.44845 0.48788 0.0
H3864 H 0.16852 0.54861 0.48263 0.0
H3865 H 0.11839 0.43803 0.47192 0.0
H3866 H 0.25706 0.58062 0.47781 0.0
H3867 H 0.2591 0.55741 0.48727 0.0
H3868 H 0.23208 0.58118 0.48716 0.0
H3869 H 0.19639 0.44359 0.46366 0.0
H3870 H 0.1536 0.40858 0.46865 0.0
H3871 H 0.19839 0.42537 0.47385 0.0
C3872 C 0.61 0.70893 0.47804 0.0
C3873 C 0.57692 0.67447 0.47679 0.0
C3874 C 0.60959 0.74312 0.47776 0.0
C3875 C 0.57533 0.74274 0.47619 0.0
C3876 C 0.54166 0.70785 0.47538 0.0
C3877 C 0.54289 0.67433 0.4757 0.0
C3878 C 0.64607 0.77969 0.47868 0.0
C3879 C 0.50445 0.70589 0.47373 0.0
C3880 C 0.56096 0.82684 0.47957 0.0
C3881 C 0.56306 0.83983 0.47121 0.0
C3882 C 0.56672 0.79643 0.48137 0.0
C3883 C 0.57461 0.77839 0.47466 0.0
C3884 C 0.57814 0.7923 0.46627 0.0
C3885 C 0.57245 0.82277 0.46466 0.0
C3886 C 0.56292 0.7827 0.49041 0.0
C3887 C 0.58621 0.77386 0.45891 0.0
H3888 H 0.63643 0.70934 0.47884 0.0
H3889 H 0.51707 0.64785 0.47479 0.0
H3890 H 0.65408 0.79435 0.47246 0.0
H3891 H 0.64278 0.79849 0.48323 0.0
H3892 H 0.66931 0.77529 0.48089 0.0
H3893 H 0.48049 0.67658 0.47388 0.0
H3894 H 0.49937 0.72267 0.47853 0.0
H3895 H 0.50506 0.71811 0.4674 0.0
H3896 H 0.5536 0.83964 0.48469 0.0
H3897 H 0.57504 0.83305 0.45821 0.0
H3898 H 0.58723 0.77926 0.49216 0.0
H3899 H 0.53725 0.75472 0.49102 0.0
H3900 H 0.56097 0.80218 0.49501 0.0
H3901 H 0.61052 0.77 0.46035 0.0
H3902 H 0.59214 0.79036 0.45294 0.0
H3903 H 0.5615 0.7456 0.45783 0.0
C3904 C 0.36232 0.9296 0.47512 0.0
C3905 C 0.39685 0.93161 0.47675 0.0
C3906 C 0.32929 0.89454 0.47406 0.0
C3907 C 0.33074 0.86083 0.47488 0.0
C3908 C 0.36517 0.86291 0.47709 0.0
C3909 C 0.39779 0.89819 0.4779 0.0
C3910 C 0.29348 0.89362 0.47144 0.0
C3911 C 0.36817 0.82788 0.47802 0.0
C3912 C 0.24042 0.76577 0.47649 0.0
C3913 C 0.23665 0.7517 0.46819 0.0
C3914 C 0.27054 0.80136 0.47874 0.0
C3915 C 0.29756 0.8237 0.47253 0.0
C3916 C 0.29377 0.80971 0.46413 0.0
C3917 C 0.26357 0.77401 0.46209 0.0
C3918 C 0.27392 0.81473 0.4878 0.0
C3919 C 0.32215 0.83125 0.45725 0.0
H3920 H 0.36166 0.95534 0.47401 0.0
H3921 H 0.42452 0.89966 0.4791 0.0
H3922 H 0.27038 0.87565 0.47587 0.0
H3923 H 0.29659 0.9221 0.47131 0.0
H3924 H 0.28502 0.88097 0.46502 0.0
H3925 H 0.39548 0.83396 0.48083 0.0
H3926 H 0.34508 0.80689 0.48206 0.0
H3927 H 0.36545 0.81498 0.47167 0.0
H3928 H 0.21967 0.749 0.48125 0.0
H3929 H 0.2616 0.76325 0.45571 0.0
H3930 H 0.27478 0.84217 0.48797 0.0
H3931 H 0.30066 0.81913 0.49058 0.0
H3932 H 0.25026 0.79441 0.49183 0.0
H3933 H 0.30796 0.8272 0.45101 0.0
H3934 H 0.3417 0.82005 0.45668 0.0
H3935 H 0.33902 0.86179 0.45856 0.0
C3936 C 0.60592 0.78012 0.96984 0.0
C3937 C 0.56873 0.75041 0.96909 0.0
C3938 C 0.61385 0.81695 0.97171 0.0
C3939 C 0.58391 0.82434 0.97289 0.0
C3940 C 0.54637 0.7941 0.97256 0.0
C3941 C 0.53927 0.75766 0.97066 0.0
C3942 C 0.65424 0.84826 0.97196 0.0
C3943 C 0.51353 0.80053 0.97382 0.0
C3944 C 0.59656 0.91763 0.98128 0.0
C3945 C 0.59422 0.93437 0.97372 0.0
C3946 C 0.59496 0.8824 0.98115 0.0
C3947 C 0.59124 0.86391 0.97328 0.0
C3948 C 0.59135 0.88211 0.96563 0.0
C3949 C 0.59268 0.91686 0.96596 0.0
C3950 C 0.59516 0.86406 0.98944 0.0
C3951 C 0.58791 0.86393 0.95708 0.0
H3952 H 0.62891 0.77491 0.96861 0.0
H3953 H 0.51047 0.7348 0.97027 0.0
H3954 H 0.66034 0.86624 0.96624 0.0
H3955 H 0.65932 0.86638 0.9776 0.0
H3956 H 0.67419 0.83739 0.9721 0.0
H3957 H 0.48635 0.77374 0.97424 0.0
H3958 H 0.51736 0.81698 0.9797 0.0
H3959 H 0.51202 0.81713 0.96842 0.0
H3960 H 0.59749 0.93096 0.98729 0.0
H3961 H 0.59127 0.92991 0.96008 0.0
H3962 H 0.61482 0.85291 0.98912 0.0
H3963 H 0.56669 0.8399 0.99068 0.0
H3964 H 0.60328 0.8839 0.99488 0.0
H3965 H 0.60932 0.85512 0.95643 0.0
H3966 H 0.59138 0.88306 0.95174 0.0
H3967 H 0.55985 0.83834 0.95651 0.0
C3968 C 0.17384 0.67648 0.98029 0.0
C3969 C 0.14044 0.67671 0.97855 0.0
C3970 C 0.20908 0.70923 0.97954 0.0
C3971 C 0.21122 0.74311 0.97679 0.0
C3972 C 0.17744 0.744 0.97545 0.0
C3973 C 0.14238 0.71083 0.97645 0.0
C3974 C 0.24411 0.70677 0.98106 0.0
C3975 C 0.1784 0.77927 0.97235 0.0
C3976 C 0.30614 0.8341 0.97798 0.0
C3977 C 0.32098 0.83595 0.96982 0.0
C3978 C 0.27033 0.80447 0.9803 0.0
C3979 C 0.24854 0.77592 0.97433 0.0
C3980 C 0.26334 0.77775 0.96608 0.0
C3981 C 0.29918 0.80756 0.96396 0.0
C3982 C 0.25626 0.80314 0.98922 0.0
C3983 C 0.24263 0.74763 0.95948 0.0
H3984 H 0.17247 0.65004 0.98183 0.0
H3985 H 0.11669 0.71095 0.9749 0.0
H3986 H 0.25759 0.7079 0.97487 0.0
H3987 H 0.26467 0.73095 0.98492 0.0
H3988 H 0.23785 0.68028 0.98434 0.0
H3989 H 0.1498 0.77521 0.97139 0.0
H3990 H 0.19363 0.80233 0.97699 0.0
H3991 H 0.194 0.78845 0.96625 0.0
H3992 H 0.32252 0.85593 0.98256 0.0
H3993 H 0.31051 0.80799 0.95771 0.0
H3994 H 0.25191 0.77722 0.99245 0.0
H3995 H 0.22869 0.80198 0.98906 0.0
H3996 H 0.27614 0.82785 0.99306 0.0
H3997 H 0.25468 0.7287 0.95933 0.0
H3998 H 0.24659 0.76037 0.95306 0.0
H3999 H 0.21211 0.73028 0.96075 0.0
C4000 C 0.22996 0.46997 0.96817 0.0
C4001 C 0.22785 0.49916 0.97233 0.0
C4002 C 0.25998 0.46338 0.96965 0.0
C4003 C 0.28897 0.48672 0.97538 0.0
C4004 C 0.28566 0.51452 0.98003 0.0
C4005 C 0.25524 0.52041 0.97844 0.0
C4006 C 0.26192 0.43343 0.96448 0.0
C4007 C 0.31566 0.5399 0.98624 0.0
C4008 C 0.3684 0.46587 0.9804 0.0
C4009 C 0.39606 0.48975 0.97461 0.0
C4010 C 0.3333 0.46454 0.98082 0.0
C4011 C 0.32567 0.48722 0.97526 0.0
C4012 C 0.35343 0.51101 0.96939 0.0
C4013 C 0.38805 0.51222 0.9692 0.0
C4014 C 0.30419 0.43859 0.98711 0.0
C4015 C 0.34646 0.53503 0.96318 0.0
H4016 H 0.2092 0.45343 0.9634 0.0
H4017 H 0.25347 0.54243 0.98185 0.0
H4018 H 0.27628 0.44591 0.95838 0.0
H4019 H 0.27773 0.42176 0.96779 0.0
H4020 H 0.23331 0.41002 0.96297 0.0
H4021 H 0.30631 0.55589 0.99028 0.0
H4022 H 0.32386 0.52335 0.9904 0.0
H4023 H 0.34109 0.5603 0.98268 0.0
H4024 H 0.37409 0.44827 0.98457 0.0
H4025 H 0.40872 0.53061 0.96461 0.0
H4026 H 0.27866 0.41765 0.98367 0.0
H4027 H 0.29567 0.45483 0.99129 0.0
H4028 H 0.3146 0.42343 0.99113 0.0
H4029 H 0.32208 0.51686 0.95907 0.0
H4030 H 0.3711 0.55214 0.95903 0.0
H4031 H 0.33954 0.5543 0.96666 0.0
C4032 C 0.78292 0.55787 0.57187 0.0
C4033 C 0.7596 0.5592 0.56551 0.0
C4034 C 0.81905 0.56409 0.56999 0.0
C4035 C 0.83296 0.57286 0.56156 0.0
C4036 C 0.81024 0.57585 0.55517 0.0
C4037 C 0.77382 0.56873 0.5572 0.0
C4038 C 0.84218 0.56152 0.57715 0.0
C4039 C 0.82409 0.58566 0.54614 0.0
C4040 C 0.93852 0.60999 0.5592 0.0
C4041 C 0.939 0.57681 0.55734 0.0
C4042 C 0.90418 0.60967 0.56022 0.0
C4043 C 0.86966 0.57545 0.55933 0.0
C4044 C 0.87021 0.54244 0.55697 0.0
C4045 C 0.90473 0.54358 0.55598 0.0
C4046 C 0.90489 0.64542 0.56278 0.0
C4047 C 0.83432 0.50516 0.55611 0.0
H4048 H 0.7729 0.55184 0.57836 0.0
H4049 H 0.75616 0.56972 0.5522 0.0
H4050 H 0.85974 0.54948 0.57503 0.0
H4051 H 0.86105 0.59025 0.5796 0.0
H4052 H 0.82421 0.54423 0.5825 0.0
H4053 H 0.80464 0.5904 0.54209 0.0
H4054 H 0.85223 0.61136 0.54601 0.0
H4055 H 0.82714 0.56255 0.54332 0.0
H4056 H 0.96482 0.63562 0.5604 0.0
H4057 H 0.90485 0.5178 0.55454 0.0
H4058 H 0.89693 0.64358 0.56957 0.0
H4059 H 0.88418 0.64929 0.55902 0.0
H4060 H 0.93318 0.67052 0.56193 0.0
H4061 H 0.83941 0.48264 0.5537 0.0
H4062 H 0.81453 0.50778 0.55174 0.0
H4063 H 0.82038 0.49644 0.5624 0.0
C4064 C 0.52313 0.25541 0.57024 0.0
C4065 C 0.52009 0.22885 0.5642 0.0
C4066 C 0.51704 0.28516 0.56804 0.0
C4067 C 0.50737 0.28861 0.55956 0.0
C4068 C 0.50365 0.26162 0.55344 0.0
C4069 C 0.51006 0.23216 0.55583 0.0
C4070 C 0.52285 0.31362 0.57482 0.0
C4071 C 0.49422 0.26463 0.54431 0.0
C4072 C 0.46635 0.35355 0.5569 0.0
C4073 C 0.49897 0.38813 0.55546 0.0
C4074 C 0.4682 0.32029 0.5578 0.0
C4075 C 0.50335 0.32166 0.55706 0.0
C4076 C 0.53572 0.35612 0.55492 0.0
C4077 C 0.53318 0.38889 0.55422 0.0
C4078 C 0.43317 0.28429 0.56021 0.0
C4079 C 0.57372 0.35906 0.55404 0.0
H4080 H 0.53037 0.25309 0.57675 0.0
H4081 H 0.50819 0.21227 0.55105 0.0
H4082 H 0.50711 0.32853 0.57353 0.0
H4083 H 0.51447 0.30004 0.58116 0.0
H4084 H 0.55319 0.33492 0.57512 0.0
H4085 H 0.4901 0.24023 0.54044 0.0
H4086 H 0.46831 0.26669 0.54397 0.0
H4087 H 0.51725 0.29068 0.54145 0.0
H4088 H 0.44003 0.353 0.55804 0.0
H4089 H 0.55851 0.41567 0.55316 0.0
H4090 H 0.43703 0.27479 0.56655 0.0
H4091 H 0.42809 0.26179 0.5556 0.0
H4092 H 0.40793 0.28762 0.56042 0.0
H4093 H 0.58393 0.35663 0.56041 0.0
H4094 H 0.59484 0.38626 0.55118 0.0
H4095 H 0.57171 0.33581 0.55006 0.0
C4096 C 0.85795 0.27575 0.56296 0.0
C4097 C 0.8548 0.30689 0.5604 0.0
C4098 C 0.82849 0.23872 0.56158 0.0
C4099 C 0.79492 0.23254 0.55759 0.0
C4100 C 0.79266 0.26379 0.55448 0.0
C4101 C 0.82254 0.30045 0.55591 0.0
C4102 C 0.83225 0.20635 0.56498 0.0
C4103 C 0.75751 0.25871 0.5502 0.0
C4104 C 0.71368 0.13407 0.55204 0.0
C4105 C 0.68989 0.12695 0.55904 0.0
C4106 C 0.74865 0.16791 0.55151 0.0
C4107 C 0.75997 0.19489 0.55815 0.0
C4108 C 0.73663 0.18692 0.56535 0.0
C4109 C 0.70215 0.15348 0.56567 0.0
C4110 C 0.77298 0.17525 0.54377 0.0
C4111 C 0.74746 0.21425 0.57267 0.0
H4112 H 0.88262 0.28024 0.56645 0.0
H4113 H 0.82012 0.32421 0.55372 0.0
H4114 H 0.81547 0.19555 0.57089 0.0
H4115 H 0.82117 0.18286 0.56035 0.0
H4116 H 0.86192 0.21493 0.56647 0.0
H4117 H 0.76201 0.28498 0.5471 0.0
H4118 H 0.74756 0.23616 0.54534 0.0
H4119 H 0.73486 0.25006 0.55499 0.0
H4120 H 0.70458 0.11385 0.54689 0.0
H4121 H 0.68451 0.14837 0.5712 0.0
H4122 H 0.80225 0.18411 0.54568 0.0
H4123 H 0.77387 0.19862 0.54003 0.0
H4124 H 0.76234 0.15012 0.53961 0.0
H4125 H 0.77534 0.22102 0.57522 0.0
H4126 H 0.72679 0.20304 0.57796 0.0
H4127 H 0.74967 0.24092 0.57043 0.0
C4128 C 0.1341 0.46587 0.38741 0.0
C4129 C 0.16637 0.46605 0.39043 0.0
C4130 C 0.13152 0.49898 0.38753 0.0
C4131 C 0.16171 0.53282 0.39083 0.0
C4132 C 0.19457 0.5332 0.39367 0.0
C4133 C 0.19665 0.50019 0.39333 0.0
C4134 C 0.09591 0.49744 0.38453 0.0
C4135 C 0.22706 0.56815 0.39746 0.0
C4136 C 0.18021 0.63234 0.38735 0.0
C4137 C 0.16969 0.64035 0.39523 0.0
C4138 C 0.17497 0.59641 0.38555 0.0
C4139 C 0.159 0.56769 0.39178 0.0
C4140 C 0.14601 0.57494 0.39951 0.0
C4141 C 0.15165 0.61105 0.40114 0.0
C4142 C 0.18843 0.5898 0.37715 0.0
C4143 C 0.12858 0.54593 0.40646 0.0
H4144 H 0.11045 0.43973 0.38521 0.0
H4145 H 0.22192 0.50106 0.39566 0.0
H4146 H 0.08152 0.50176 0.39002 0.0
H4147 H 0.10259 0.52043 0.37992 0.0
H4148 H 0.07628 0.47011 0.38149 0.0
H4149 H 0.25103 0.56406 0.3992 0.0
H4150 H 0.23723 0.5919 0.39292 0.0
H4151 H 0.21752 0.57631 0.40327 0.0
H4152 H 0.1933 0.65441 0.38263 0.0
H4153 H 0.1435 0.61667 0.40728 0.0
H4154 H 0.16694 0.56271 0.37434 0.0
H4155 H 0.21426 0.58802 0.37817 0.0
H4156 H 0.19495 0.61275 0.37253 0.0
H4157 H 0.12005 0.51699 0.40436 0.0
H4158 H 0.10351 0.54605 0.40908 0.0
H4159 H 0.14914 0.55386 0.41173 0.0
C4160 C 0.60276 0.69355 0.38624 0.0
C4161 C 0.60459 0.72484 0.39032 0.0
C4162 C 0.56935 0.65821 0.38639 0.0
C4163 C 0.53735 0.65401 0.39082 0.0
C4164 C 0.53901 0.68565 0.39481 0.0
C4165 C 0.57212 0.72051 0.39439 0.0
C4166 C 0.5687 0.62499 0.38214 0.0
C4167 C 0.50628 0.6824 0.3999 0.0
C4168 C 0.43581 0.57624 0.38837 0.0
C4169 C 0.43065 0.55449 0.39568 0.0
C4170 C 0.47129 0.60693 0.38631 0.0
C4171 C 0.50239 0.61659 0.39174 0.0
C4172 C 0.49783 0.59321 0.3988 0.0
C4173 C 0.46217 0.56253 0.40066 0.0
C4174 C 0.47502 0.63027 0.37857 0.0
C4175 C 0.5296 0.60079 0.40478 0.0
H4176 H 0.62759 0.69637 0.38313 0.0
H4177 H 0.57279 0.74422 0.39758 0.0
H4178 H 0.56611 0.60439 0.38705 0.0
H4179 H 0.54385 0.61062 0.37791 0.0
H4180 H 0.59452 0.63328 0.37836 0.0
H4181 H 0.51205 0.70975 0.40262 0.0
H4182 H 0.48084 0.67137 0.39585 0.0
H4183 H 0.49982 0.6622 0.4052 0.0
H4184 H 0.4118 0.57036 0.38445 0.0
H4185 H 0.45893 0.54526 0.40617 0.0
H4186 H 0.50072 0.63668 0.37494 0.0
H4187 H 0.47777 0.65744 0.38058 0.0
H4188 H 0.45027 0.61589 0.3743 0.0
H4189 H 0.55706 0.625 0.40291 0.0
H4190 H 0.53264 0.57541 0.40519 0.0
H4191 H 0.52234 0.60583 0.41126 0.0
C4192 C 0.39008 0.94856 0.39209 0.0
C4193 C 0.35652 0.91392 0.39232 0.0
C4194 C 0.42522 0.95032 0.39298 0.0
C4195 C 0.42666 0.9167 0.3941 0.0
C4196 C 0.39286 0.88171 0.39393 0.0
C4197 C 0.35845 0.88079 0.39302 0.0
C4198 C 0.46061 0.98818 0.39309 0.0
C4199 C 0.39277 0.84509 0.39508 0.0
C4200 C 0.51353 0.90681 0.39125 0.0
C4201 C 0.52371 0.90529 0.39971 0.0
C4202 C 0.48353 0.91297 0.38929 0.0
C4203 C 0.46283 0.91744 0.39595 0.0
C4204 C 0.47401 0.91764 0.40448 0.0
C4205 C 0.50426 0.9117 0.40625 0.0
C4206 C 0.4728 0.9128 0.38011 0.0
C4207 C 0.45274 0.92213 0.41179 0.0
H4208 H 0.38883 0.97427 0.39162 0.0
H4209 H 0.3327 0.85382 0.39312 0.0
H4210 H 0.47247 0.99432 0.39961 0.0
H4211 H 0.48213 0.9881 0.38884 0.0
H4212 H 0.45535 1.01113 0.39109 0.0
H4213 H 0.36422 0.8202 0.3944 0.0
H4214 H 0.41161 0.84284 0.39036 0.0
H4215 H 0.40362 0.84427 0.40149 0.0
H4216 H 0.52803 0.90169 0.38612 0.0
H4217 H 0.51232 0.91151 0.4128 0.0
H4218 H 0.46836 0.93689 0.3788 0.0
H4219 H 0.44591 0.8867 0.37878 0.0
H4220 H 0.49451 0.91417 0.37568 0.0
H4221 H 0.44847 0.94645 0.41069 0.0
H4222 H 0.46745 0.92611 0.41796 0.0
H4223 H 0.42454 0.89667 0.41226 0.0
C4224 C 0.96968 0.84952 0.79739 0.0
C4225 C 0.99104 0.84403 0.80361 0.0
C4226 C 0.93382 0.84418 0.79921 0.0
C4227 C 0.91868 0.83333 0.8075 0.0
C4228 C 0.94008 0.82793 0.81384 0.0
C4229 C 0.97592 0.83329 0.81183 0.0
C4230 C 0.91254 0.85106 0.79226 0.0
C4231 C 0.92525 0.81682 0.82277 0.0
C4232 C 0.84339 0.85904 0.81209 0.0
C4233 C 0.81027 0.82527 0.81034 0.0
C4234 C 0.87868 0.86133 0.81181 0.0
C4235 C 0.88112 0.82925 0.80952 0.0
C4236 C 0.84752 0.79449 0.8082 0.0
C4237 C 0.8124 0.79283 0.80871 0.0
C4238 C 0.91349 0.89883 0.8134 0.0
C4239 C 0.84883 0.75975 0.80563 0.0
H4240 H 0.98126 0.85857 0.79108 0.0
H4241 H 0.99193 0.82861 0.81667 0.0
H4242 H 0.88287 0.8281 0.79207 0.0
H4243 H 0.91242 0.87755 0.79359 0.0
H4244 H 0.92528 0.85346 0.7859 0.0
H4245 H 0.9451 0.81332 0.82696 0.0
H4246 H 0.91988 0.83852 0.82557 0.0
H4247 H 0.89805 0.79005 0.82268 0.0
H4248 H 0.84179 0.88425 0.81328 0.0
H4249 H 0.7869 0.76691 0.80717 0.0
H4250 H 0.92826 0.91055 0.80729 0.0
H4251 H 0.93322 0.89551 0.81765 0.0
H4252 H 0.90673 0.91945 0.81629 0.0
H4253 H 0.86245 0.7643 0.79931 0.0
H4254 H 0.82037 0.73451 0.80528 0.0
H4255 H 0.86606 0.75422 0.81021 0.0
C4256 C 0.21348 1.00483 0.80874 0.0
C4257 C 0.24776 1.00502 0.80877 0.0
C4258 C 0.21222 0.03825 0.80799 0.0
C4259 C 0.24611 0.07293 0.80715 0.0
C4260 C 0.28096 0.07357 0.80763 0.0
C4261 C 0.28139 0.03954 0.80847 0.0
C4262 C 0.17443 0.03612 0.80761 0.0
C4263 C 0.31772 0.10988 0.80672 0.0
C4264 C 0.23621 0.14671 0.79453 0.0
C4265 C 0.23393 0.16919 0.80097 0.0
C4266 C 0.24158 0.11626 0.79646 0.0
C4267 C 0.24456 0.1077 0.80505 0.0
C4268 C 0.2431 0.13069 0.81158 0.0
C4269 C 0.23784 0.16111 0.80946 0.0
C4270 C 0.24286 0.09247 0.78929 0.0
C4271 C 0.24622 0.1226 0.82081 0.0
H4272 H 0.18736 0.97821 0.809 0.0
H4273 H 0.30794 0.03983 0.80837 0.0
H4274 H 0.17355 0.05643 0.81212 0.0
H4275 H 0.16983 0.04383 0.80114 0.0
H4276 H 0.15093 1.00753 0.80913 0.0
H4277 H 0.3422 0.10641 0.8083 0.0
H4278 H 0.32085 0.12004 0.80007 0.0
H4279 H 0.31818 0.13193 0.81087 0.0
H4280 H 0.23275 0.15226 0.78795 0.0
H4281 H 0.23679 0.17861 0.81449 0.0
H4282 H 0.21809 0.06376 0.78969 0.0
H4283 H 0.26832 0.08969 0.78984 0.0
H4284 H 0.2429 0.10437 0.78294 0.0
H4285 H 0.22186 0.09503 0.8226 0.0
H4286 H 0.24703 0.14449 0.8251 0.0
H4287 H 0.27195 0.12068 0.82185 0.0
C4288 C 0.0606 0.23086 0.80726 0.0
C4289 C 0.0621 0.26578 0.80742 0.0
C4290 C 0.02647 0.19718 0.80638 0.0
C4291 C 0.9926 0.19815 0.80566 0.0
C4292 C 0.99356 0.23314 0.80631 0.0
C4293 C 0.02841 0.26668 0.80719 0.0
C4294 C 0.027 0.1607 0.80575 0.0
C4295 C 0.95807 0.23537 0.80564 0.0
C4296 C 0.91805 0.11516 0.79314 0.0
C4297 C 0.8972 0.08964 0.79962 0.0
C4298 C 0.94785 0.15134 0.79502 0.0
C4299 C 0.95704 0.16263 0.80361 0.0
C4300 C 0.93492 0.13782 0.81018 0.0
C4301 C 0.90546 0.10163 0.80811 0.0
C4302 C 0.9707 0.17681 0.78781 0.0
C4303 C 0.9435 0.14882 0.8194 0.0
H4304 H 0.08653 0.22992 0.8075 0.0
H4305 H 0.02941 0.29358 0.80723 0.0
H4306 H 1.00708 0.13994 0.81038 0.0
H4307 H 1.01779 0.14855 0.79931 0.0
H4308 H 0.05539 0.16454 0.80694 0.0
H4309 H 0.96267 0.26344 0.80753 0.0
H4310 H 0.94789 0.22989 0.79897 0.0
H4311 H 0.93558 0.2136 0.80967 0.0
H4312 H 0.91144 0.10667 0.78656 0.0
H4313 H 0.88983 0.08225 0.81319 0.0
H4314 H 0.99937 0.18047 0.78792 0.0
H4315 H 0.97374 0.20508 0.78856 0.0
H4316 H 0.95791 0.16541 0.7815 0.0
H4317 H 0.97008 0.14972 0.8212 0.0
H4318 H 0.92082 0.1287 0.82368 0.0
H4319 H 0.94755 0.17735 0.82046 0.0
C4320 C 0.2432 0.10514 0.31042 0.0
C4321 C 0.24637 0.0966 0.30191 0.0
C4322 C 0.24758 0.14029 0.3127 0.0
C4323 C 0.25496 0.16756 0.30634 0.0
C4324 C 0.25998 0.15981 0.29782 0.0
C4325 C 0.25581 0.12462 0.29572 0.0
C4326 C 0.24239 0.14749 0.32187 0.0
C4327 C 0.26786 0.18801 0.29082 0.0
C4328 C 0.21623 0.23406 0.30833 0.0
C4329 C 0.24877 0.26889 0.30973 0.0
C4330 C 0.21778 0.20081 0.30759 0.0
C4331 C 0.25276 0.20208 0.30833 0.0
C4332 C 0.28544 0.23674 0.3103 0.0
C4333 C 0.28309 0.26983 0.31097 0.0
C4334 C 0.18216 0.16466 0.3055 0.0
C4335 C 0.32319 0.23925 0.31123 0.0
H4336 H 0.23573 0.0838 0.31526 0.0
H4337 H 0.25925 0.11879 0.28917 0.0
H4338 H 0.26514 0.17563 0.32389 0.0
H4339 H 0.21538 0.14725 0.32259 0.0
H4340 H 0.24209 0.12593 0.32619 0.0
H4341 H 0.27384 0.17895 0.28464 0.0
H4342 H 0.24319 0.19194 0.28999 0.0
H4343 H 0.29215 0.21574 0.29252 0.0
H4344 H 0.1895 0.23294 0.30744 0.0
H4345 H 0.30841 0.29661 0.31199 0.0
H4346 H 0.17807 0.14218 0.31003 0.0
H4347 H 0.18442 0.15514 0.29904 0.0
H4348 H 0.15687 0.16792 0.3057 0.0
H4349 H 0.32092 0.21613 0.3153 0.0
H4350 H 0.34455 0.26656 0.31399 0.0
H4351 H 0.33323 0.23618 0.3049 0.0
C4352 C 0.97307 0.17162 0.3097 0.0
C4353 C 0.98541 0.17943 0.30122 0.0
C4354 C 0.93713 0.14166 0.31176 0.0
C4355 C 0.91297 0.11859 0.30521 0.0
C4356 C 0.92474 0.12712 0.29663 0.0
C4357 C 0.9606 0.15742 0.29475 0.0
C4358 C 0.92557 0.13383 0.32097 0.0
C4359 C 0.89997 0.10334 0.28944 0.0
C4360 C 0.84384 0.01533 0.30913 0.0
C4361 C 0.80902 1.01405 0.30883 0.0
C4362 C 0.87778 0.04934 0.30834 0.0
C4363 C 0.8772 0.0833 0.30728 0.0
C4364 C 0.84229 0.08261 0.30753 0.0
C4365 C 0.80853 0.04793 0.30829 0.0
C4366 C 0.91418 0.04854 0.30811 0.0
C4367 C 0.84043 0.11821 0.30652 0.0
H4368 H 0.99194 0.18816 0.31477 0.0
H4369 H 0.96934 0.16366 0.28817 0.0
H4370 H 0.89705 0.13001 0.32185 0.0
H4371 H 0.92437 0.10731 0.32296 0.0
H4372 H 0.94548 0.1568 0.32521 0.0
H4373 H 0.91213 0.11501 0.2831 0.0
H4374 H 0.89577 0.0745 0.28991 0.0
H4375 H 0.8719 0.10095 0.28989 0.0
H4376 H 0.84459 0.98935 0.30963 0.0
H4377 H 0.78181 0.04723 0.30799 0.0
H4378 H 0.93456 0.06901 0.31272 0.0
H4379 H 0.92694 0.05689 0.3017 0.0
H4380 H 0.91005 0.02025 0.3096 0.0
H4381 H 0.86185 0.14093 0.31057 0.0
H4382 H 0.81225 0.11393 0.30818 0.0
H4383 H 0.84664 0.12789 0.29983 0.0
C4384 C 0.06418 0.8611 0.30842 0.0
C4385 C 0.06645 0.82805 0.30849 0.0
C4386 C 0.02954 0.86 0.30785 0.0
C4387 C 0.99587 0.8249 0.30745 0.0
C4388 C 0.99767 0.79131 0.30806 0.0
C4389 C 0.03298 0.79325 0.30854 0.0
C4390 C 0.02926 0.89658 0.30713 0.0
C4391 C 0.96253 0.75328 0.30778 0.0
C4392 C 0.90782 0.83275 0.31056 0.0
C4393 C 0.89755 0.8346 0.30212 0.0
C4394 C 0.93838 0.8273 0.31241 0.0
C4395 C 0.95958 0.8241 0.30569 0.0
C4396 C 0.94838 0.82441 0.29719 0.0
C4397 C 0.91744 0.82928 0.29552 0.0
C4398 C 0.94883 0.82637 0.32157 0.0
C4399 C 0.96947 0.82027 0.2898 0.0
H4400 H 0.08978 0.88819 0.30845 0.0
H4401 H 0.03436 0.76755 0.30852 0.0
H4402 H 1.0186 0.89845 0.30077 0.0
H4403 H 1.01008 0.89772 0.31194 0.0
H4404 H 0.05765 0.9215 0.30801 0.0
H4405 H 0.96772 0.73073 0.31012 0.0
H4406 H 0.9398 0.75313 0.31162 0.0
H4407 H 0.95243 0.74664 0.30112 0.0
H4408 H 0.89281 0.83684 0.31573 0.0
H4409 H 0.90908 0.82937 0.28899 0.0
H4410 H 0.9757 0.85226 0.32305 0.0
H4411 H 0.95318 0.8021 0.32268 0.0
H4412 H 0.92698 0.82446 0.32604 0.0
H4413 H 1.00001 0.84058 0.29035 0.0
H4414 H 0.95944 0.82466 0.28358 0.0
H4415 H 0.96565 0.79156 0.28988 0.0
C4416 C 0.44988 0.88911 0.90186 0.0
C4417 C 0.42498 0.88923 0.89574 0.0
C4418 C 0.48545 0.89475 0.89957 0.0
C4419 C 0.49684 0.9009 0.89094 0.0
C4420 C 0.47231 0.90197 0.88475 0.0
C4421 C 0.43673 0.89603 0.88721 0.0
C4422 C 0.51024 0.8927 0.90641 0.0
C4423 C 0.48321 0.90831 0.87548 0.0
C4424 C 0.60207 0.93985 0.88761 0.0
C4425 C 0.60346 0.90662 0.88663 0.0
C4426 C 0.56734 0.93877 0.88854 0.0
C4427 C 0.53335 0.90369 0.88841 0.0
C4428 C 0.53471 0.87048 0.88675 0.0
C4429 C 0.56966 0.87236 0.88593 0.0
C4430 C 0.56718 0.97478 0.89035 0.0
C4431 C 0.49938 0.8325 0.88649 0.0
H4432 H 0.44159 0.88457 0.90848 0.0
H4433 H 0.41773 0.89577 0.8824 0.0
H4434 H 0.50945 0.86533 0.90595 0.0
H4435 H 0.53986 0.91513 0.90556 0.0
H4436 H 0.5009 0.89512 0.91288 0.0
H4437 H 0.46236 0.91127 0.87155 0.0
H4438 H 0.51109 0.93396 0.87471 0.0
H4439 H 0.48569 0.8843 0.87302 0.0
H4440 H 0.62809 0.9663 0.88833 0.0
H4441 H 0.57063 0.84655 0.88522 0.0
H4442 H 0.55791 0.9744 0.89699 0.0
H4443 H 0.54688 0.97727 0.88612 0.0
H4444 H 0.59539 0.99997 0.88949 0.0
H4445 H 0.48729 0.82473 0.89297 0.0
H4446 H 0.50483 0.81013 0.88413 0.0
H4447 H 0.47795 0.83339 0.88235 0.0
C4448 C 0.12439 0.68788 0.89007 0.0
C4449 C 0.15906 0.72139 0.89034 0.0
C4450 C 0.12256 0.65265 0.89076 0.0
C4451 C 0.15615 0.65109 0.89176 0.0
C4452 C 0.1912 0.68484 0.89148 0.0
C4453 C 0.19217 0.71936 0.89075 0.0
C4454 C 0.08465 0.61734 0.89092 0.0
C4455 C 0.22779 0.6848 0.8925 0.0
C4456 C 0.16101 0.57466 0.90443 0.0
C4457 C 0.16727 0.55444 0.89805 0.0
C4458 C 0.15522 0.6048 0.90243 0.0
C4459 C 0.15528 0.61502 0.89382 0.0
C4460 C 0.15934 0.59339 0.88733 0.0
C4461 C 0.16546 0.56355 0.88952 0.0
C4462 C 0.15107 0.62703 0.90958 0.0
C4463 C 0.15914 0.60296 0.87808 0.0
H4464 H 0.09868 0.6892 0.88983 0.0
H4465 H 0.21913 0.74513 0.8909 0.0
H4466 H 0.08477 0.59526 0.88687 0.0
H4467 H 0.07811 0.60625 0.89751 0.0
H4468 H 0.06193 0.62255 0.88871 0.0
H4469 H 0.25268 0.71317 0.89158 0.0
H4470 H 0.22928 0.67481 0.89897 0.0
H4471 H 0.22936 0.66521 0.88789 0.0
H4472 H 0.16136 0.56738 0.91104 0.0
H4473 H 0.1704 0.54839 0.88451 0.0
H4474 H 0.12605 0.63018 0.90853 0.0
H4475 H 0.17602 0.65569 0.90972 0.0
H4476 H 0.14841 0.61368 0.91588 0.0
H4477 H 0.13534 0.60779 0.87672 0.0
H4478 H 0.15704 0.58043 0.87381 0.0
H4479 H 0.18545 0.62937 0.87655 0.0
C4480 C 0.36313 0.49471 0.89933 0.0
C4481 C 0.35546 0.46611 0.8934 0.0
C4482 C 0.39749 0.5284 0.89943 0.0
C4483 C 0.42556 0.53417 0.89345 0.0
C4484 C 0.41866 0.50526 0.88754 0.0
C4485 C 0.38364 0.47144 0.88759 0.0
C4486 C 0.40345 0.5581 0.90591 0.0
C4487 C 0.44802 0.51034 0.8811 0.0
C4488 C 0.49353 0.63849 0.89039 0.0
C4489 C 0.52186 0.64508 0.89629 0.0
C4490 C 0.46345 0.60198 0.88889 0.0
C4491 C 0.46141 0.57112 0.89342 0.0
C4492 C 0.49103 0.57727 0.899 0.0
C4493 C 0.52083 0.61408 0.90036 0.0
C4494 C 0.43241 0.59686 0.88293 0.0
C4495 C 0.49014 0.54527 0.90394 0.0
H4496 H 0.34204 0.49107 0.90396 0.0
H4497 H 0.37814 0.4496 0.883 0.0
H4498 H 0.42764 0.56399 0.91006 0.0
H4499 H 0.41018 0.58473 0.90266 0.0
H4500 H 0.3784 0.54954 0.90999 0.0
H4501 H 0.43927 0.48458 0.87726 0.0
H4502 H 0.45351 0.53384 0.87675 0.0
H4503 H 0.4749 0.51796 0.88434 0.0
H4504 H 0.49376 0.66209 0.88724 0.0
H4505 H 0.54296 0.61866 0.90479 0.0
H4506 H 0.40707 0.59069 0.88668 0.0
H4507 H 0.42458 0.57266 0.87863 0.0
H4508 H 0.44054 0.62235 0.87903 0.0
H4509 H 0.46836 0.53593 0.90897 0.0
H4510 H 0.51757 0.55356 0.90701 0.0
H4511 H 0.4825 0.52083 0.89973 0.0
C4512 C 0.85274 0.82798 0.72188 0.0
C4513 C 0.82221 0.79467 0.72493 0.0
C4514 C 0.85403 0.86266 0.72275 0.0
C4515 C 0.82436 0.86428 0.72696 0.0
C4516 C 0.79258 0.83037 0.72973 0.0
C4517 C 0.79181 0.79586 0.72864 0.0
C4518 C 0.88837 0.89787 0.71965 0.0
C4519 C 0.76057 0.83081 0.73433 0.0
C4520 C 0.85389 0.95648 0.73851 0.0
C4521 C 0.84292 0.97556 0.7328 0.0
C4522 C 0.84695 0.91993 0.7368 0.0
C4523 C 0.82863 0.90174 0.72916 0.0
C4524 C 0.81685 0.92048 0.72343 0.0
C4525 C 0.82416 0.95711 0.72531 0.0
C4526 C 0.86007 0.90109 0.74309 0.0
C4527 C 0.7971 0.90208 0.71524 0.0
H4528 H 0.87652 0.82709 0.71913 0.0
H4529 H 0.76867 0.77023 0.73122 0.0
H4530 H 0.88002 0.91515 0.71579 0.0
H4531 H 0.90458 0.91511 0.72518 0.0
H4532 H 0.90711 0.89149 0.71577 0.0
H4533 H 0.77038 0.84429 0.74064 0.0
H4534 H 0.75087 0.84768 0.73074 0.0
H4535 H 0.73636 0.80204 0.73531 0.0
H4536 H 0.86881 0.9705 0.74427 0.0
H4537 H 0.81502 0.97127 0.7209 0.0
H4538 H 0.88187 0.89634 0.74012 0.0
H4539 H 0.83632 0.87319 0.7449 0.0
H4540 H 0.87198 0.91805 0.74895 0.0
H4541 H 0.81621 0.89722 0.71112 0.0
H4542 H 0.78785 0.91945 0.71168 0.0
H4543 H 0.77218 0.87422 0.71657 0.0
C4544 C 0.10977 0.89756 0.72177 0.0
C4545 C 0.09497 0.89594 0.72992 0.0
C4546 C 0.14557 0.92712 0.71943 0.0
C4547 C 0.16736 0.9558 0.72536 0.0
C4548 C 0.15255 0.95425 0.7336 0.0
C4549 C 0.11673 0.92451 0.73575 0.0
C4550 C 0.15965 0.92819 0.71052 0.0
C4551 C 0.17324 0.98456 0.74017 0.0
C4552 C 0.27352 0.02073 0.72351 0.0
C4553 C 0.27552 0.05489 0.72143 0.0
C4554 C 0.23842 0.9875 0.72436 0.0
C4555 C 0.20474 0.98845 0.72291 0.0
C4556 C 0.20703 0.02236 0.72013 0.0
C4557 C 0.24229 0.05514 0.71951 0.0
C4558 C 0.23726 0.95211 0.72744 0.0
C4559 C 0.17211 0.02486 0.71849 0.0
H4560 H 0.0934 0.87558 0.71722 0.0
H4561 H 0.1054 0.92423 0.74199 0.0
H4562 H 0.16422 0.95412 0.70725 0.0
H4563 H 0.18712 0.92914 0.71071 0.0
H4564 H 0.13969 0.90347 0.70669 0.0
H4565 H 0.16937 0.97197 0.7466 0.0
H4566 H 0.20374 1.00198 0.73889 0.0
H4567 H 0.16107 1.00339 0.74029 0.0
H4568 H 0.2991 0.02065 0.72519 0.0
H4569 H 0.24377 0.08166 0.71801 0.0
H4570 H 0.22253 0.92929 0.72273 0.0
H4571 H 0.2211 0.94257 0.73346 0.0
H4572 H 0.2658 0.9562 0.72854 0.0
H4573 H 0.15162 1.0006 0.71464 0.0
H4574 H 0.17856 0.05128 0.71514 0.0
H4575 H 0.15847 0.02399 0.72464 0.0
C4576 C 0.16979 0.22175 0.72145 0.0
C4577 C 0.17345 0.21287 0.7299 0.0
C4578 C 0.13997 0.22735 0.71895 0.0
C4579 C 0.1131 0.22416 0.72504 0.0
C4580 C 0.11684 0.21555 0.73359 0.0
C4581 C 0.14674 0.20988 0.73589 0.0
C4582 C 0.13686 0.23611 0.70977 0.0
C4583 C 0.08856 0.21099 0.7403 0.0
C4584 C 0.04865 0.26551 0.72209 0.0
C4585 C 1.01394 0.23294 0.72072 0.0
C4586 C 0.08175 0.26348 0.72306 0.0
C4587 C 0.08011 0.22816 0.72249 0.0
C4588 C 0.04556 0.19577 0.72041 0.0
C4589 C 1.01291 0.19851 0.71964 0.0
C4590 C 0.11784 0.29857 0.7254 0.0
C4591 C 0.04242 0.15765 0.71962 0.0
H4592 H 0.19044 0.22458 0.71678 0.0
H4593 H 0.14872 0.20231 0.74239 0.0
H4594 H 0.11005 0.21367 0.70705 0.0
H4595 H 0.13634 0.26283 0.7093 0.0
H4596 H 0.16047 0.23853 0.70585 0.0
H4597 H 0.0997 0.21286 0.74683 0.0
H4598 H 0.07995 0.23252 0.7396 0.0
H4599 H 0.06298 0.18304 0.73957 0.0
H4600 H 0.04946 0.29203 0.72312 0.0
H4601 H 0.98605 0.17322 0.71863 0.0
H4602 H 0.11511 0.32416 0.7251 0.0
H4603 H 0.14084 0.30233 0.72109 0.0
H4604 H 0.12618 0.29574 0.73195 0.0
H4605 H 0.06551 0.15938 0.71563 0.0
H4606 H 1.01512 0.13647 0.71681 0.0
H4607 H 0.045 0.14767 0.726 0.0
C4608 C 0.62335 0.17155 0.12884 0.0
C4609 C 0.64458 0.1637 0.13463 0.0
C4610 C 0.58692 0.16422 0.13085 0.0
C4611 C 0.57111 0.14875 0.13888 0.0
C4612 C 0.59201 0.14003 0.1447 0.0
C4613 C 0.62843 0.14763 0.14252 0.0
C4614 C 0.56569 0.17397 0.12444 0.0
C4615 C 0.57612 0.12326 0.15329 0.0
C4616 C 0.49735 0.17317 0.1459 0.0
C4617 C 0.46389 0.14116 0.14345 0.0
C4618 C 0.53223 0.17498 0.14497 0.0
C4619 C 0.53383 0.14424 0.14133 0.0
C4620 C 0.49983 0.11095 0.13928 0.0
C4621 C 0.46516 0.10977 0.1404 0.0
C4622 C 0.56755 0.21091 0.14732 0.0
C4623 C 0.50016 0.07768 0.1353 0.0
H4624 H 0.63558 0.18436 0.12278 0.0
H4625 H 0.64424 0.14083 0.14699 0.0
H4626 H 0.53756 0.14921 0.12326 0.0
H4627 H 0.56122 0.19663 0.12701 0.0
H4628 H 0.5808 0.18353 0.11829 0.0
H4629 H 0.59501 0.11621 0.15691 0.0
H4630 H 0.57148 0.1434 0.15707 0.0
H4631 H 0.54841 0.09738 0.15253 0.0
H4632 H 0.49636 0.19768 0.14813 0.0
H4633 H 0.43938 0.08542 0.13827 0.0
H4634 H 0.58305 0.22533 0.14145 0.0
H4635 H 0.58638 0.20472 0.1512 0.0
H4636 H 0.56138 0.23049 0.15092 0.0
H4637 H 0.5096 0.08437 0.1286 0.0
H4638 H 0.47185 0.05213 0.13537 0.0
H4639 H 0.52018 0.0714 0.13866 0.0
C4640 C 0.9458 0.37156 0.13758 0.0
C4641 C 0.91781 0.34057 0.14199 0.0
C4642 C 0.94389 0.40476 0.13666 0.0
C4643 C 0.91332 0.40694 0.14027 0.0
C4644 C 0.88621 0.37631 0.14513 0.0
C4645 C 0.88857 0.3434 0.14585 0.0
C4646 C 0.97313 0.43638 0.13132 0.0
C4647 C 0.85326 0.37727 0.14913 0.0
C4648 C 0.91479 0.5007 0.14184 0.0
C4649 C 0.89316 0.49911 0.13476 0.0
C4650 C 0.92209 0.47128 0.14366 0.0
C4651 C 0.90742 0.43937 0.13828 0.0
C4652 C 0.88567 0.43766 0.13112 0.0
C4653 C 0.87878 0.46737 0.12946 0.0
C4654 C 0.94543 0.47429 0.15134 0.0
C4655 C 0.86938 0.40421 0.12521 0.0
H4656 H 0.96774 0.36892 0.13437 0.0
H4657 H 0.86648 0.31907 0.14909 0.0
H4658 H 0.98292 0.46386 0.13449 0.0
H4659 H 0.9978 0.43282 0.13004 0.0
H4660 H 0.96054 0.43723 0.12514 0.0
H4661 H 0.83701 0.35303 0.15345 0.0
H4662 H 0.86301 0.40367 0.15277 0.0
H4663 H 0.83414 0.37669 0.14407 0.0
H4664 H 0.92651 0.52524 0.14592 0.0
H4665 H 0.8616 0.46546 0.12405 0.0
H4666 H 0.97023 0.47208 0.14938 0.0
H4667 H 0.92871 0.45064 0.15576 0.0
H4668 H 0.95535 0.50116 0.15482 0.0
H4669 H 0.89221 0.4001 0.12264 0.0
H4670 H 0.85384 0.4075 0.11981 0.0
H4671 H 0.84995 0.37834 0.12877 0.0
C4672 C 0.72927 0.55507 0.14135 0.0
C4673 C 0.72822 0.58858 0.14223 0.0
C4674 C 0.69621 0.52008 0.14085 0.0
C4675 C 0.66088 0.51825 0.14125 0.0
C4676 C 0.65954 0.55178 0.14258 0.0
C4677 C 0.69329 0.58663 0.14308 0.0
C4678 C 0.69919 0.48533 0.13932 0.0
C4679 C 0.62252 0.55111 0.14301 0.0
C4680 C 0.58273 0.43523 0.12935 0.0
C4681 C 0.56499 0.40876 0.13586 0.0
C4682 C 0.61315 0.4712 0.13105 0.0
C4683 C 0.62594 0.4816 0.13952 0.0
C4684 C 0.60725 0.45558 0.14618 0.0
C4685 C 0.57719 0.41946 0.14427 0.0
C4686 C 0.6311 0.49803 0.12372 0.0
C4687 C 0.61967 0.46557 0.15529 0.0
H4688 H 0.75617 0.55631 0.14071 0.0
H4689 H 0.69225 0.61242 0.14365 0.0
H4690 H 0.6818 0.46308 0.14398 0.0
H4691 H 0.68826 0.47409 0.13288 0.0
H4692 H 0.72862 0.49109 0.13976 0.0
H4693 H 0.6259 0.57818 0.14534 0.0
H4694 H 0.60983 0.54567 0.13657 0.0
H4695 H 0.60256 0.5281 0.14723 0.0
H4696 H 0.57283 0.42783 0.12287 0.0
H4697 H 0.56387 0.3993 0.14936 0.0
H4698 H 0.66211 0.5147 0.12438 0.0
H4699 H 0.62004 0.51776 0.12362 0.0
H4700 H 0.62432 0.48316 0.11752 0.0
H4701 H 0.64811 0.46913 0.15611 0.0
H4702 H 0.60019 0.44367 0.1598 0.0
H4703 H 0.62158 0.49274 0.15697 0.0
C4704 C 0.93735 0.44831 0.6285 0.0
C4705 C 0.91365 0.4186 0.63391 0.0
C4706 C 0.94409 0.48509 0.62985 0.0
C4707 C 0.92665 0.49247 0.63677 0.0
C4708 C 0.90461 0.46312 0.64255 0.0
C4709 C 0.89837 0.42665 0.64105 0.0
C4710 C 0.96787 0.51546 0.62353 0.0
C4711 C 0.88523 0.46955 0.64998 0.0
C4712 C 0.95005 0.59312 0.64215 0.0
C4713 C 0.92082 0.59499 0.63797 0.0
C4714 C 0.95276 0.56009 0.6418 0.0
C4715 C 0.92582 0.5285 0.63711 0.0
C4716 C 0.89681 0.5307 0.63277 0.0
C4717 C 0.89465 0.5636 0.63328 0.0
C4718 C 0.98417 0.55882 0.64648 0.0
C4719 C 0.86768 0.4981 0.6276 0.0
H4720 H 0.94993 0.44264 0.62305 0.0
H4721 H 0.87977 0.404 0.64525 0.0
H4722 H 0.94944 0.5215 0.61945 0.0
H4723 H 0.98758 0.54192 0.62685 0.0
H4724 H 0.98427 0.50705 0.61937 0.0
H4725 H 0.87368 0.44567 0.65453 0.0
H4726 H 0.90495 0.49564 0.65341 0.0
H4727 H 0.86172 0.47311 0.64761 0.0
H4728 H 0.9705 0.61719 0.64575 0.0
H4729 H 0.87217 0.56458 0.62989 0.0
H4730 H 1.00056 0.55164 0.64201 0.0
H4731 H 0.9723 0.53643 0.65139 0.0
H4732 H 1.00353 0.58598 0.64961 0.0
H4733 H 0.8816 0.49052 0.62256 0.0
H4734 H 0.84712 0.50451 0.62454 0.0
H4735 H 0.85205 0.47306 0.63173 0.0
C4736 C 0.62816 0.4939 0.64521 0.0
C4737 C 0.6366 0.51201 0.63727 0.0
C4738 C 0.5929 0.46206 0.64683 0.0
C4739 C 0.56531 0.44757 0.64035 0.0
C4740 C 0.57279 0.46696 0.63249 0.0
C4741 C 0.6082 0.49892 0.63106 0.0
C4742 C 0.58618 0.44243 0.6553 0.0
C4743 C 0.54423 0.45257 0.62539 0.0
C4744 C 0.50106 0.34184 0.63905 0.0
C4745 C 0.46638 0.33689 0.64186 0.0
C4746 C 0.53329 0.37748 0.6387 0.0
C4747 C 0.53126 0.40944 0.64128 0.0
C4748 C 0.49677 0.40469 0.64444 0.0
C4749 C 0.46465 0.36841 0.6447 0.0
C4750 C 0.56933 0.38095 0.6353 0.0
C4751 C 0.4935 0.43804 0.64729 0.0
H4752 H 0.64979 0.50331 0.65005 0.0
H4753 H 0.614 0.51303 0.62497 0.0
H4754 H 0.55805 0.43489 0.65782 0.0
H4755 H 0.58685 0.41591 0.65448 0.0
H4756 H 0.6078 0.46006 0.66008 0.0
H4757 H 0.54113 0.4259 0.62288 0.0
H4758 H 0.51629 0.44637 0.62778 0.0
H4759 H 0.55249 0.47296 0.62006 0.0
H4760 H 0.50296 0.31774 0.6369 0.0
H4761 H 0.43801 0.36497 0.64683 0.0
H4762 H 0.59235 0.39558 0.63998 0.0
H4763 H 0.57778 0.39809 0.6294 0.0
H4764 H 0.56655 0.35319 0.63383 0.0
H4765 H 0.51614 0.45527 0.65189 0.0
H4766 H 0.46588 0.42945 0.65029 0.0
H4767 H 0.49705 0.45621 0.64174 0.0
C4768 C 0.68877 0.11715 0.64441 0.0
C4769 C 0.7145 0.13423 0.63775 0.0
C4770 C 0.65401 0.11653 0.6444 0.0
C4771 C 0.64504 0.13349 0.6376 0.0
C4772 C 0.67032 0.14924 0.63072 0.0
C4773 C 0.70433 0.14911 0.63085 0.0
C4774 C 0.62747 0.09892 0.65178 0.0
C4775 C 0.66204 0.16736 0.62328 0.0
C4776 C 0.54857 0.11885 0.63196 0.0
C4777 C 0.55123 0.15245 0.63488 0.0
C4778 C 0.57775 0.11086 0.63335 0.0
C4779 C 0.61057 0.13714 0.63774 0.0
C4780 C 0.61256 0.17015 0.64109 0.0
C4781 C 0.58293 0.17736 0.63963 0.0
C4782 C 0.57425 0.07519 0.62973 0.0
C4783 C 0.64721 0.19927 0.64569 0.0
H4784 H 0.69628 0.1055 0.64974 0.0
H4785 H 0.72353 0.16171 0.62557 0.0
H4786 H 0.62614 0.12115 0.65552 0.0
H4787 H 0.59864 0.07937 0.64945 0.0
H4788 H 0.63644 0.08332 0.65607 0.0
H4789 H 0.68607 0.18117 0.61881 0.0
H4790 H 0.63728 0.14578 0.61974 0.0
H4791 H 0.65519 0.18884 0.62555 0.0
H4792 H 0.52389 0.09904 0.62842 0.0
H4793 H 0.58552 0.20353 0.64186 0.0
H4794 H 0.58347 0.06134 0.63445 0.0
H4795 H 0.59278 0.08206 0.62409 0.0
H4796 H 0.54499 0.05499 0.62775 0.0
H4797 H 0.65592 0.18582 0.65061 0.0
H4798 H 0.64272 0.2211 0.64875 0.0
H4799 H 0.67075 0.2133 0.64109 0.0
C4800 C 0.12121 0.219 0.23556 0.0
C4801 C 0.09946 0.2246 0.22947 0.0
C4802 C 0.15644 0.22322 0.23352 0.0
C4803 C 0.17056 0.23316 0.22512 0.0
C4804 C 0.14874 0.23873 0.21891 0.0
C4805 C 0.11357 0.23448 0.22116 0.0
C4806 C 0.17735 0.21525 0.24036 0.0
C4807 C 0.16216 0.2483 0.20985 0.0
C4808 C 0.27621 0.27171 0.22301 0.0
C4809 C 0.27749 0.23864 0.22161 0.0
C4810 C 0.24151 0.2708 0.22374 0.0
C4811 C 0.2074 0.23616 0.22283 0.0
C4812 C 0.20883 0.20334 0.22073 0.0
C4813 C 0.24377 0.20491 0.22025 0.0
C4814 C 0.24128 0.30625 0.22616 0.0
C4815 C 0.1734 0.1659 0.21963 0.0
H4816 H 0.11032 0.2104 0.24194 0.0
H4817 H 0.09718 0.23907 0.21641 0.0
H4818 H 0.16714 0.1846 0.24049 0.0
H4819 H 0.20811 0.23006 0.23929 0.0
H4820 H 0.17182 0.22321 0.24672 0.0
H4821 H 0.14222 0.25226 0.2058 0.0
H4822 H 0.18994 0.27439 0.20965 0.0
H4823 H 0.16588 0.22548 0.20709 0.0
H4824 H 0.30215 0.29766 0.22425 0.0
H4825 H 0.24464 0.17921 0.21923 0.0
H4826 H 0.22491 0.31233 0.22145 0.0
H4827 H 0.27008 0.33096 0.22657 0.0
H4828 H 0.22723 0.3023 0.23241 0.0
H4829 H 0.16016 0.15533 0.22593 0.0
H4830 H 0.17911 0.14457 0.21673 0.0
H4831 H 0.15285 0.16889 0.2156 0.0
C4832 C 0.79995 0.02407 0.2257 0.0
C4833 C 0.83387 0.05753 0.22425 0.0
C4834 C 0.79909 0.98933 0.22641 0.0
C4835 C 0.83293 0.98809 0.22568 0.0
C4836 C 0.86678 0.02155 0.22376 0.0
C4837 C 0.86679 0.05565 0.22304 0.0
C4838 C 0.76236 0.95443 0.22845 0.0
C4839 C 0.90365 0.02188 0.22304 0.0
C4840 C 0.84655 0.91483 0.2376 0.0
C4841 C 0.84579 0.89139 0.231 0.0
C4842 C 0.8412 0.94555 0.23599 0.0
C4843 C 0.83409 0.95288 0.22759 0.0
C4844 C 0.83155 0.92836 0.22096 0.0
C4845 C 0.83764 0.89812 0.22273 0.0
C4846 C 0.84322 0.97008 0.24335 0.0
C4847 C 0.82342 0.93471 0.21194 0.0
H4848 H 0.77447 0.02526 0.22676 0.0
H4849 H 0.89316 0.08132 0.22191 0.0
H4850 H 0.75902 0.93018 0.22464 0.0
H4851 H 0.7621 0.94726 0.23526 0.0
H4852 H 0.73792 0.95846 0.22724 0.0
H4853 H 0.92706 0.04969 0.22101 0.0
H4854 H 0.91096 1.01473 0.2293 0.0
H4855 H 0.90118 1.00033 0.21843 0.0
H4856 H 0.85155 0.90928 0.24406 0.0
H4857 H 0.83706 0.8804 0.21756 0.0
H4858 H 0.81432 0.96343 0.24502 0.0
H4859 H 0.85957 1.00035 0.24167 0.0
H4860 H 0.85607 0.96522 0.24908 0.0
H4861 H 0.79825 0.93812 0.21176 0.0
H4862 H 0.81866 0.9112 0.20767 0.0
H4863 H 0.8474 0.96105 0.20944 0.0
C4864 C 0.05743 0.80052 0.22424 0.0
C4865 C 0.02352 0.8009 0.22363 0.0
C4866 C 0.09203 0.83435 0.22504 0.0
C4867 C 0.09259 0.86921 0.22529 0.0
C4868 C 0.05863 0.86969 0.22415 0.0
C4869 C 0.02472 0.8357 0.2233 0.0
C4870 C 0.12763 0.83258 0.22611 0.0
C4871 C 0.05767 0.90602 0.22439 0.0
C4872 C 0.16529 0.95217 0.23815 0.0
C4873 C 0.18749 0.97755 0.23179 0.0
C4874 C 0.13545 0.91626 0.23613 0.0
C4875 C 0.12763 0.90497 0.22751 0.0
C4876 C 0.151 0.92967 0.22107 0.0
C4877 C 0.18048 0.96569 0.22327 0.0
C4878 C 0.11136 0.89091 0.24322 0.0
C4879 C 0.14399 0.91863 0.21182 0.0
H4880 H 0.05681 0.77383 0.22456 0.0
H4881 H 0.99874 0.83638 0.22274 0.0
H4882 H 0.15065 0.85451 0.22221 0.0
H4883 H 0.1367 0.83802 0.23285 0.0
H4884 H 0.12362 0.80463 0.22431 0.0
H4885 H 0.02944 0.90184 0.22282 0.0
H4886 H 0.0656 0.91856 0.23083 0.0
H4887 H 0.07835 0.92661 0.21984 0.0
H4888 H 0.17096 0.96053 0.24476 0.0
H4889 H 0.19722 0.98498 0.21827 0.0
H4890 H 0.10946 0.86306 0.24271 0.0
H4891 H 0.08243 0.88634 0.24264 0.0
H4892 H 0.12246 0.90277 0.2496 0.0
H4893 H 0.14027 0.89016 0.2109 0.0
H4894 H 0.16732 0.9388 0.20768 0.0
H4895 H 0.11766 0.91753 0.20972 0.0
loop_
_geom_bond_atom_site_label_1
_geom_bond_atom_site_label_2
_geom_bond_distance
_geom_bond_site_symmetry_2
_ccdc_geom_bond_type
Nd0 C2 2.836 . S
Nd0 O20 2.500 . S
Nd0 O21 2.492 . S
Nd0 O22 2.487 . S
Nd0 O23 2.682 . S
Nd0 O24 2.410 . S
Nd0 O29 2.414 . S
Nd0 O31 2.424 1_545 S
Nd1 C11 2.836 1_545 S
Nd1 O23 2.414 . S
Nd1 O25 2.424 . S
Nd1 O26 2.500 1_545 S
Nd1 O27 2.492 1_545 S
Nd1 O28 2.487 . S
Nd1 O29 2.682 . S
Nd1 O30 2.410 1_545 S
C2 Nd0 2.836 . S
C2 C3 1.498 . S
C2 O20 1.258 . S
C2 O21 1.239 . S
C3 C2 1.498 . S
C3 C4 1.366 . S
C3 C8 1.407 . S
C4 C3 1.366 . S
C4 C5 1.392 . S
C4 H32 0.930 . S
C5 C4 1.392 . S
C5 C6 1.398 . S
C5 H33 0.929 . S
C6 C5 1.398 . S
C6 C7 1.352 . S
C7 C6 1.352 . S
C7 C8 1.384 . S
C7 H34 0.930 . S
C8 C3 1.407 . S
C8 C7 1.384 . S
C8 H35 0.929 . S
C9 O22 1.241 . S
C9 O23 1.273 . S
C10 O24 1.251 . S
C10 O25 1.268 . S
C11 Nd1 2.836 1_565 S
C11 C12 1.498 . S
C11 O26 1.258 . S
C11 O27 1.239 . S
C12 C11 1.498 . S
C12 C13 1.366 . S
C12 C17 1.407 . S
C13 C12 1.366 . S
C13 C14 1.392 . S
C13 H36 0.930 . S
C14 C13 1.392 . S
C14 C15 1.398 . S
C14 H37 0.929 . S
C15 C14 1.398 . S
C15 C16 1.352 . S
C16 C15 1.352 . S
C16 C17 1.384 . S
C16 H38 0.930 . S
C17 C12 1.407 . S
C17 C16 1.384 . S
C17 H39 0.929 . S
C18 O28 1.241 . S
C18 O29 1.273 . S
C19 O30 1.251 . S
C19 O31 1.268 . S
O20 Nd0 2.500 . S
O20 C2 1.258 . S
O21 Nd0 2.492 . S
O21 C2 1.239 . S
O22 Nd0 2.487 . S
O22 C9 1.241 . S
O23 Nd0 2.682 . S
O23 Nd1 2.414 . S
O23 C9 1.273 . S
O24 Nd0 2.410 . S
O24 C10 1.251 . S
O25 Nd1 2.424 . S
O25 C10 1.268 . S
O26 Nd1 2.500 1_565 S
O26 C11 1.258 . S
O27 Nd1 2.492 1_565 S
O27 C11 1.239 . S
O28 Nd1 2.487 . S
O28 C18 1.241 . S
O29 Nd0 2.414 . S
O29 Nd1 2.682 . S
O29 C18 1.273 . S
O30 Nd1 2.410 1_565 S
O30 C19 1.251 . S
O31 Nd0 2.424 1_565 S
O31 C19 1.268 . S
H32 C4 0.930 . S
H33 C5 0.929 . S
H34 C7 0.930 . S
H35 C8 0.929 . S
H36 C13 0.930 . S
H37 C14 0.929 . S
H38 C16 0.930 . S
H39 C17 0.929 . S
Nd40 C42 2.836 . S
Nd40 O60 2.500 . S
Nd40 O61 2.492 . S
Nd40 O62 2.487 . S
Nd40 O63 2.682 1_655 S
Nd40 O64 2.410 . S
Nd40 O69 2.414 . S
Nd40 O71 2.424 1_655 S
Nd41 C51 2.836 . S
Nd41 O63 2.414 . S
Nd41 O65 2.424 1_455 S
Nd41 O66 2.500 . S
Nd41 O67 2.492 . S
Nd41 O68 2.487 . S
Nd41 O69 2.682 1_455 S
Nd41 O70 2.410 . S
C42 Nd40 2.836 . S
C42 C43 1.498 . S
C42 O60 1.258 . S
C42 O61 1.239 . S
C43 C42 1.498 . S
C43 C44 1.366 . S
C43 C48 1.407 . S
C44 C43 1.366 . S
C44 C45 1.392 . S
C44 H72 0.930 . S
C45 C44 1.392 . S
C45 C46 1.398 . S
C45 H73 0.929 . S
C46 C45 1.398 . S
C46 C47 1.352 . S
C47 C46 1.352 . S
C47 C48 1.384 . S
C47 H74 0.930 . S
C48 C43 1.407 . S
C48 C47 1.384 . S
C48 H75 0.929 . S
C49 O62 1.241 1_455 S
C49 O63 1.273 . S
C50 O64 1.251 . S
C50 O65 1.268 . S
C51 Nd41 2.836 . S
C51 C52 1.498 . S
C51 O66 1.258 . S
C51 O67 1.239 . S
C52 C51 1.498 . S
C52 C53 1.366 . S
C52 C57 1.407 . S
C53 C52 1.366 . S
C53 C54 1.392 . S
C53 H76 0.930 . S
C54 C53 1.392 . S
C54 C55 1.398 . S
C54 H77 0.929 . S
C55 C54 1.398 . S
C55 C56 1.352 . S
C56 C55 1.352 . S
C56 C57 1.384 . S
C56 H78 0.930 . S
C57 C52 1.407 . S
C57 C56 1.384 . S
C57 H79 0.929 . S
C58 O68 1.241 . S
C58 O69 1.273 1_455 S
C59 O70 1.251 . S
C59 O71 1.268 . S
O60 Nd40 2.500 . S
O60 C42 1.258 . S
O61 Nd40 2.492 . S
O61 C42 1.239 . S
O62 Nd40 2.487 . S
O62 C49 1.241 1_655 S
O63 Nd40 2.682 1_455 S
O63 Nd41 2.414 . S
O63 C49 1.273 . S
O64 Nd40 2.410 . S
O64 C50 1.251 . S
O65 Nd41 2.424 1_655 S
O65 C50 1.268 . S
O66 Nd41 2.500 . S
O66 C51 1.258 . S
O67 Nd41 2.492 . S
O67 C51 1.239 . S
O68 Nd41 2.487 . S
O68 C58 1.241 . S
O69 Nd40 2.414 . S
O69 Nd41 2.682 1_655 S
O69 C58 1.273 1_655 S
O70 Nd41 2.410 . S
O70 C59 1.251 . S
O71 Nd40 2.424 1_455 S
O71 C59 1.268 . S
H72 C44 0.930 . S
H73 C45 0.929 . S
H74 C47 0.930 . S
H75 C48 0.929 . S
H76 C53 0.930 . S
H77 C54 0.929 . S
H78 C56 0.930 . S
H79 C57 0.929 . S
Nd80 C82 2.836 . S
Nd80 O100 2.500 . S
Nd80 O101 2.492 . S
Nd80 O102 2.487 . S
Nd80 O103 2.682 . S
Nd80 O104 2.410 . S
Nd80 O109 2.414 . S
Nd80 O111 2.424 . S
Nd81 C91 2.836 . S
Nd81 O103 2.414 . S
Nd81 O105 2.424 . S
Nd81 O106 2.500 . S
Nd81 O107 2.492 . S
Nd81 O108 2.487 . S
Nd81 O109 2.682 . S
Nd81 O110 2.410 . S
C82 Nd80 2.836 . S
C82 C83 1.498 . S
C82 O100 1.258 . S
C82 O101 1.239 . S
C83 C82 1.498 . S
C83 C84 1.366 . S
C83 C88 1.407 . S
C84 C83 1.366 . S
C84 C85 1.392 . S
C84 H112 0.930 . S
C85 C84 1.392 . S
C85 C86 1.398 . S
C85 H113 0.929 . S
C86 C85 1.398 . S
C86 C87 1.352 . S
C87 C86 1.352 . S
C87 C88 1.384 . S
C87 H114 0.930 . S
C88 C83 1.407 . S
C88 C87 1.384 . S
C88 H115 0.929 . S
C89 O102 1.241 . S
C89 O103 1.273 . S
C90 O104 1.251 . S
C90 O105 1.268 . S
C91 Nd81 2.836 . S
C91 C92 1.498 . S
C91 O106 1.258 . S
C91 O107 1.239 . S
C92 C91 1.498 . S
C92 C93 1.366 . S
C92 C97 1.407 . S
C93 C92 1.366 . S
C93 C94 1.392 . S
C93 H116 0.930 . S
C94 C93 1.392 . S
C94 C95 1.398 . S
C94 H117 0.929 . S
C95 C94 1.398 . S
C95 C96 1.352 . S
C96 C95 1.352 . S
C96 C97 1.384 . S
C96 H118 0.930 . S
C97 C92 1.407 . S
C97 C96 1.384 . S
C97 H119 0.929 . S
C98 O108 1.241 . S
C98 O109 1.273 . S
C99 O110 1.251 . S
C99 O111 1.268 . S
O100 Nd80 2.500 . S
O100 C82 1.258 . S
O101 Nd80 2.492 . S
O101 C82 1.239 . S
O102 Nd80 2.487 . S
O102 C89 1.241 . S
O103 Nd80 2.682 . S
O103 Nd81 2.414 . S
O103 C89 1.273 . S
O104 Nd80 2.410 . S
O104 C90 1.251 . S
O105 Nd81 2.424 . S
O105 C90 1.268 . S
O106 Nd81 2.500 . S
O106 C91 1.258 . S
O107 Nd81 2.492 . S
O107 C91 1.239 . S
O108 Nd81 2.487 . S
O108 C98 1.241 . S
O109 Nd80 2.414 . S
O109 Nd81 2.682 . S
O109 C98 1.273 . S
O110 Nd81 2.410 . S
O110 C99 1.251 . S
O111 Nd80 2.424 . S
O111 C99 1.268 . S
H112 C84 0.930 . S
H113 C85 0.929 . S
H114 C87 0.930 . S
H115 C88 0.929 . S
H116 C93 0.930 . S
H117 C94 0.929 . S
H118 C96 0.930 . S
H119 C97 0.929 . S
Nd120 C122 2.836 . S
Nd120 O140 2.500 . S
Nd120 O141 2.492 . S
Nd120 O142 2.487 . S
Nd120 O143 2.682 . S
Nd120 O144 2.410 . S
Nd120 O149 2.414 . S
Nd120 O151 2.424 1_455 S
Nd121 C131 2.836 1_455 S
Nd121 O143 2.414 . S
Nd121 O145 2.424 . S
Nd121 O146 2.500 1_455 S
Nd121 O147 2.492 1_455 S
Nd121 O148 2.487 . S
Nd121 O149 2.682 . S
Nd121 O150 2.410 1_455 S
C122 Nd120 2.836 . S
C122 C123 1.498 . S
C122 O140 1.258 . S
C122 O141 1.239 . S
C123 C122 1.498 . S
C123 C124 1.366 . S
C123 C128 1.407 . S
C124 C123 1.366 . S
C124 C125 1.392 . S
C124 H152 0.930 . S
C125 C124 1.392 . S
C125 C126 1.398 . S
C125 H153 0.929 . S
C126 C125 1.398 . S
C126 C127 1.352 . S
C127 C126 1.352 . S
C127 C128 1.384 . S
C127 H154 0.930 . S
C128 C123 1.407 . S
C128 C127 1.384 . S
C128 H155 0.929 . S
C129 O142 1.241 . S
C129 O143 1.273 . S
C130 O144 1.251 . S
C130 O145 1.268 . S
C131 Nd121 2.836 1_655 S
C131 C132 1.498 . S
C131 O146 1.258 . S
C131 O147 1.239 . S
C132 C131 1.498 . S
C132 C133 1.366 . S
C132 C137 1.407 . S
C133 C132 1.366 . S
C133 C134 1.392 . S
C133 H156 0.930 . S
C134 C133 1.392 . S
C134 C135 1.398 . S
C134 H157 0.929 . S
C135 C134 1.398 . S
C135 C136 1.352 . S
C136 C135 1.352 . S
C136 C137 1.384 . S
C136 H158 0.930 . S
C137 C132 1.407 . S
C137 C136 1.384 . S
C137 H159 0.929 . S
C138 O148 1.241 . S
C138 O149 1.273 . S
C139 O150 1.251 . S
C139 O151 1.268 . S
O140 Nd120 2.500 . S
O140 C122 1.258 . S
O141 Nd120 2.492 . S
O141 C122 1.239 . S
O142 Nd120 2.487 . S
O142 C129 1.241 . S
O143 Nd120 2.682 . S
O143 Nd121 2.414 . S
O143 C129 1.273 . S
O144 Nd120 2.410 . S
O144 C130 1.251 . S
O145 Nd121 2.424 . S
O145 C130 1.268 . S
O146 Nd121 2.500 1_655 S
O146 C131 1.258 . S
O147 Nd121 2.492 1_655 S
O147 C131 1.239 . S
O148 Nd121 2.487 . S
O148 C138 1.241 . S
O149 Nd120 2.414 . S
O149 Nd121 2.682 . S
O149 C138 1.273 . S
O150 Nd121 2.410 1_655 S
O150 C139 1.251 . S
O151 Nd120 2.424 1_655 S
O151 C139 1.268 . S
H152 C124 0.930 . S
H153 C125 0.929 . S
H154 C127 0.930 . S
H155 C128 0.929 . S
H156 C133 0.930 . S
H157 C134 0.929 . S
H158 C136 0.930 . S
H159 C137 0.929 . S
Nd160 C162 2.836 . S
Nd160 O180 2.500 . S
Nd160 O181 2.492 . S
Nd160 O182 2.487 . S
Nd160 O183 2.682 . S
Nd160 O184 2.410 . S
Nd160 O189 2.414 . S
Nd160 O191 2.424 . S
Nd161 C171 2.836 . S
Nd161 O183 2.414 . S
Nd161 O185 2.424 . S
Nd161 O186 2.500 . S
Nd161 O187 2.492 . S
Nd161 O188 2.487 . S
Nd161 O189 2.682 . S
Nd161 O190 2.410 . S
C162 Nd160 2.836 . S
C162 C163 1.498 . S
C162 O180 1.258 . S
C162 O181 1.239 . S
C163 C162 1.498 . S
C163 C164 1.366 . S
C163 C168 1.407 . S
C164 C163 1.366 . S
C164 C165 1.392 . S
C164 H192 0.930 . S
C165 C164 1.392 . S
C165 C166 1.398 . S
C165 H193 0.929 . S
C166 C165 1.398 . S
C166 C167 1.352 . S
C167 C166 1.352 . S
C167 C168 1.384 . S
C167 H194 0.930 . S
C168 C163 1.407 . S
C168 C167 1.384 . S
C168 H195 0.929 . S
C169 O182 1.241 . S
C169 O183 1.273 . S
C170 O184 1.251 . S
C170 O185 1.268 . S
C171 Nd161 2.836 . S
C171 C172 1.498 . S
C171 O186 1.258 . S
C171 O187 1.239 . S
C172 C171 1.498 . S
C172 C173 1.366 . S
C172 C177 1.407 . S
C173 C172 1.366 . S
C173 C174 1.392 . S
C173 H196 0.930 . S
C174 C173 1.392 . S
C174 C175 1.398 . S
C174 H197 0.929 . S
C175 C174 1.398 . S
C175 C176 1.352 . S
C176 C175 1.352 . S
C176 C177 1.384 . S
C176 H198 0.930 . S
C177 C172 1.407 . S
C177 C176 1.384 . S
C177 H199 0.929 . S
C178 O188 1.241 . S
C178 O189 1.273 . S
C179 O190 1.251 . S
C179 O191 1.268 . S
O180 Nd160 2.500 . S
O180 C162 1.258 . S
O181 Nd160 2.492 . S
O181 C162 1.239 . S
O182 Nd160 2.487 . S
O182 C169 1.241 . S
O183 Nd160 2.682 . S
O183 Nd161 2.414 . S
O183 C169 1.273 . S
O184 Nd160 2.410 . S
O184 C170 1.251 . S
O185 Nd161 2.424 . S
O185 C170 1.268 . S
O186 Nd161 2.500 . S
O186 C171 1.258 . S
O187 Nd161 2.492 . S
O187 C171 1.239 . S
O188 Nd161 2.487 . S
O188 C178 1.241 . S
O189 Nd160 2.414 . S
O189 Nd161 2.682 . S
O189 C178 1.273 . S
O190 Nd161 2.410 . S
O190 C179 1.251 . S
O191 Nd160 2.424 . S
O191 C179 1.268 . S
H192 C164 0.930 . S
H193 C165 0.929 . S
H194 C167 0.930 . S
H195 C168 0.929 . S
H196 C173 0.930 . S
H197 C174 0.929 . S
H198 C176 0.930 . S
H199 C177 0.929 . S
Nd200 C202 2.836 . S
Nd200 O220 2.500 . S
Nd200 O221 2.492 . S
Nd200 O222 2.487 . S
Nd200 O223 2.682 1_565 S
Nd200 O224 2.410 . S
Nd200 O229 2.414 . S
Nd200 O231 2.424 1_565 S
Nd201 C211 2.836 . S
Nd201 O223 2.414 . S
Nd201 O225 2.424 1_545 S
Nd201 O226 2.500 . S
Nd201 O227 2.492 . S
Nd201 O228 2.487 . S
Nd201 O229 2.682 1_545 S
Nd201 O230 2.410 . S
C202 Nd200 2.836 . S
C202 C203 1.498 . S
C202 O220 1.258 . S
C202 O221 1.239 . S
C203 C202 1.498 . S
C203 C204 1.366 . S
C203 C208 1.407 . S
C204 C203 1.366 . S
C204 C205 1.392 . S
C204 H232 0.930 . S
C205 C204 1.392 . S
C205 C206 1.398 . S
C205 H233 0.929 . S
C206 C205 1.398 . S
C206 C207 1.352 . S
C207 C206 1.352 . S
C207 C208 1.384 . S
C207 H234 0.930 . S
C208 C203 1.407 . S
C208 C207 1.384 . S
C208 H235 0.929 . S
C209 O222 1.241 1_545 S
C209 O223 1.273 . S
C210 O224 1.251 . S
C210 O225 1.268 . S
C211 Nd201 2.836 . S
C211 C212 1.498 . S
C211 O226 1.258 . S
C211 O227 1.239 . S
C212 C211 1.498 . S
C212 C213 1.366 . S
C212 C217 1.407 . S
C213 C212 1.366 . S
C213 C214 1.392 . S
C213 H236 0.930 . S
C214 C213 1.392 . S
C214 C215 1.398 . S
C214 H237 0.929 . S
C215 C214 1.398 . S
C215 C216 1.352 . S
C216 C215 1.352 . S
C216 C217 1.384 . S
C216 H238 0.930 . S
C217 C212 1.407 . S
C217 C216 1.384 . S
C217 H239 0.929 . S
C218 O228 1.241 . S
C218 O229 1.273 1_545 S
C219 O230 1.251 . S
C219 O231 1.268 . S
O220 Nd200 2.500 . S
O220 C202 1.258 . S
O221 Nd200 2.492 . S
O221 C202 1.239 . S
O222 Nd200 2.487 . S
O222 C209 1.241 1_565 S
O223 Nd200 2.682 1_545 S
O223 Nd201 2.414 . S
O223 C209 1.273 . S
O224 Nd200 2.410 . S
O224 C210 1.251 . S
O225 Nd201 2.424 1_565 S
O225 C210 1.268 . S
O226 Nd201 2.500 . S
O226 C211 1.258 . S
O227 Nd201 2.492 . S
O227 C211 1.239 . S
O228 Nd201 2.487 . S
O228 C218 1.241 . S
O229 Nd200 2.414 . S
O229 Nd201 2.682 1_565 S
O229 C218 1.273 1_565 S
O230 Nd201 2.410 . S
O230 C219 1.251 . S
O231 Nd200 2.424 1_545 S
O231 C219 1.268 . S
H232 C204 0.930 . S
H233 C205 0.929 . S
H234 C207 0.930 . S
H235 C208 0.929 . S
H236 C213 0.930 . S
H237 C214 0.929 . S
H238 C216 0.930 . S
H239 C217 0.929 . S
Nd240 C242 2.836 . S
Nd240 O260 2.500 . S
Nd240 O261 2.492 . S
Nd240 O262 2.487 . S
Nd240 O263 2.682 1_545 S
Nd240 O264 2.410 . S
Nd240 O269 2.414 . S
Nd240 O271 2.424 1_545 S
Nd241 C251 2.836 . S
Nd241 O263 2.414 . S
Nd241 O265 2.424 1_565 S
Nd241 O266 2.500 . S
Nd241 O267 2.492 . S
Nd241 O268 2.487 . S
Nd241 O269 2.682 1_565 S
Nd241 O270 2.410 . S
C242 Nd240 2.836 . S
C242 C243 1.498 . S
C242 O260 1.258 . S
C242 O261 1.239 . S
C243 C242 1.498 . S
C243 C244 1.366 . S
C243 C248 1.407 . S
C244 C243 1.366 . S
C244 C245 1.392 . S
C244 H272 0.930 . S
C245 C244 1.392 . S
C245 C246 1.398 . S
C245 H273 0.929 . S
C246 C245 1.398 . S
C246 C247 1.352 . S
C247 C246 1.352 . S
C247 C248 1.384 . S
C247 H274 0.930 . S
C248 C243 1.407 . S
C248 C247 1.384 . S
C248 H275 0.929 . S
C249 O262 1.241 . S
C249 O263 1.273 1_545 S
C250 O264 1.251 . S
C250 O265 1.268 . S
C251 Nd241 2.836 . S
C251 C252 1.498 . S
C251 O266 1.258 . S
C251 O267 1.239 . S
C252 C251 1.498 . S
C252 C253 1.366 . S
C252 C257 1.407 . S
C253 C252 1.366 . S
C253 C254 1.392 . S
C253 H276 0.930 . S
C254 C253 1.392 . S
C254 C255 1.398 . S
C254 H277 0.929 . S
C255 C254 1.398 . S
C255 C256 1.352 . S
C256 C255 1.352 . S
C256 C257 1.384 . S
C256 H278 0.930 . S
C257 C252 1.407 . S
C257 C256 1.384 . S
C257 H279 0.929 . S
C258 O268 1.241 1_545 S
C258 O269 1.273 . S
C259 O270 1.251 . S
C259 O271 1.268 . S
O260 Nd240 2.500 . S
O260 C242 1.258 . S
O261 Nd240 2.492 . S
O261 C242 1.239 . S
O262 Nd240 2.487 . S
O262 C249 1.241 . S
O263 Nd240 2.682 1_565 S
O263 Nd241 2.414 . S
O263 C249 1.273 1_565 S
O264 Nd240 2.410 . S
O264 C250 1.251 . S
O265 Nd241 2.424 1_545 S
O265 C250 1.268 . S
O266 Nd241 2.500 . S
O266 C251 1.258 . S
O267 Nd241 2.492 . S
O267 C251 1.239 . S
O268 Nd241 2.487 . S
O268 C258 1.241 1_565 S
O269 Nd240 2.414 . S
O269 Nd241 2.682 1_545 S
O269 C258 1.273 . S
O270 Nd241 2.410 . S
O270 C259 1.251 . S
O271 Nd240 2.424 1_565 S
O271 C259 1.268 . S
H272 C244 0.930 . S
H273 C245 0.929 . S
H274 C247 0.930 . S
H275 C248 0.929 . S
H276 C253 0.930 . S
H277 C254 0.929 . S
H278 C256 0.930 . S
H279 C257 0.929 . S
Nd280 C282 2.836 1_455 S
Nd280 O300 2.500 1_455 S
Nd280 O301 2.492 1_455 S
Nd280 O302 2.487 . S
Nd280 O303 2.682 . S
Nd280 O304 2.410 1_455 S
Nd280 O309 2.414 . S
Nd280 O311 2.424 . S
Nd281 C291 2.836 . S
Nd281 O303 2.414 . S
Nd281 O305 2.424 1_455 S
Nd281 O306 2.500 . S
Nd281 O307 2.492 . S
Nd281 O308 2.487 . S
Nd281 O309 2.682 . S
Nd281 O310 2.410 . S
C282 Nd280 2.836 1_655 S
C282 C283 1.498 . S
C282 O300 1.258 . S
C282 O301 1.239 . S
C283 C282 1.498 . S
C283 C284 1.366 . S
C283 C288 1.407 . S
C284 C283 1.366 . S
C284 C285 1.392 . S
C284 H312 0.930 . S
C285 C284 1.392 . S
C285 C286 1.398 . S
C285 H313 0.929 . S
C286 C285 1.398 . S
C286 C287 1.352 . S
C287 C286 1.352 . S
C287 C288 1.384 . S
C287 H314 0.930 . S
C288 C283 1.407 . S
C288 C287 1.384 . S
C288 H315 0.929 . S
C289 O302 1.241 . S
C289 O303 1.273 . S
C290 O304 1.251 . S
C290 O305 1.268 . S
C291 Nd281 2.836 . S
C291 C292 1.498 . S
C291 O306 1.258 . S
C291 O307 1.239 . S
C292 C291 1.498 . S
C292 C293 1.366 . S
C292 C297 1.407 . S
C293 C292 1.366 . S
C293 C294 1.392 . S
C293 H316 0.930 . S
C294 C293 1.392 . S
C294 C295 1.398 . S
C294 H317 0.929 . S
C295 C294 1.398 . S
C295 C296 1.352 . S
C296 C295 1.352 . S
C296 C297 1.384 . S
C296 H318 0.930 . S
C297 C292 1.407 . S
C297 C296 1.384 . S
C297 H319 0.929 . S
C298 O308 1.241 . S
C298 O309 1.273 . S
C299 O310 1.251 . S
C299 O311 1.268 . S
O300 Nd280 2.500 1_655 S
O300 C282 1.258 . S
O301 Nd280 2.492 1_655 S
O301 C282 1.239 . S
O302 Nd280 2.487 . S
O302 C289 1.241 . S
O303 Nd280 2.682 . S
O303 Nd281 2.414 . S
O303 C289 1.273 . S
O304 Nd280 2.410 1_655 S
O304 C290 1.251 . S
O305 Nd281 2.424 1_655 S
O305 C290 1.268 . S
O306 Nd281 2.500 . S
O306 C291 1.258 . S
O307 Nd281 2.492 . S
O307 C291 1.239 . S
O308 Nd281 2.487 . S
O308 C298 1.241 . S
O309 Nd280 2.414 . S
O309 Nd281 2.682 . S
O309 C298 1.273 . S
O310 Nd281 2.410 . S
O310 C299 1.251 . S
O311 Nd280 2.424 . S
O311 C299 1.268 . S
H312 C284 0.930 . S
H313 C285 0.929 . S
H314 C287 0.930 . S
H315 C288 0.929 . S
H316 C293 0.930 . S
H317 C294 0.929 . S
H318 C296 0.930 . S
H319 C297 0.929 . S
Nd320 C322 2.836 . S
Nd320 O340 2.500 . S
Nd320 O341 2.492 . S
Nd320 O342 2.487 . S
Nd320 O343 2.682 . S
Nd320 O344 2.410 . S
Nd320 O349 2.414 . S
Nd320 O351 2.424 . S
Nd321 C331 2.836 . S
Nd321 O343 2.414 . S
Nd321 O345 2.424 . S
Nd321 O346 2.500 . S
Nd321 O347 2.492 . S
Nd321 O348 2.487 . S
Nd321 O349 2.682 . S
Nd321 O350 2.410 . S
C322 Nd320 2.836 . S
C322 C323 1.498 . S
C322 O340 1.258 . S
C322 O341 1.239 . S
C323 C322 1.498 . S
C323 C324 1.366 . S
C323 C328 1.407 . S
C324 C323 1.366 . S
C324 C325 1.392 . S
C324 H352 0.930 . S
C325 C324 1.392 . S
C325 C326 1.398 . S
C325 H353 0.929 . S
C326 C325 1.398 . S
C326 C327 1.352 . S
C327 C326 1.352 . S
C327 C328 1.384 . S
C327 H354 0.930 . S
C328 C323 1.407 . S
C328 C327 1.384 . S
C328 H355 0.929 . S
C329 O342 1.241 . S
C329 O343 1.273 . S
C330 O344 1.251 . S
C330 O345 1.268 . S
C331 Nd321 2.836 . S
C331 C332 1.498 . S
C331 O346 1.258 . S
C331 O347 1.239 . S
C332 C331 1.498 . S
C332 C333 1.366 . S
C332 C337 1.407 . S
C333 C332 1.366 . S
C333 C334 1.392 . S
C333 H356 0.930 . S
C334 C333 1.392 . S
C334 C335 1.398 . S
C334 H357 0.929 . S
C335 C334 1.398 . S
C335 C336 1.352 . S
C336 C335 1.352 . S
C336 C337 1.384 . S
C336 H358 0.930 . S
C337 C332 1.407 . S
C337 C336 1.384 . S
C337 H359 0.929 . S
C338 O348 1.241 . S
C338 O349 1.273 . S
C339 O350 1.251 . S
C339 O351 1.268 . S
O340 Nd320 2.500 . S
O340 C322 1.258 . S
O341 Nd320 2.492 . S
O341 C322 1.239 . S
O342 Nd320 2.487 . S
O342 C329 1.241 . S
O343 Nd320 2.682 . S
O343 Nd321 2.414 . S
O343 C329 1.273 . S
O344 Nd320 2.410 . S
O344 C330 1.251 . S
O345 Nd321 2.424 . S
O345 C330 1.268 . S
O346 Nd321 2.500 . S
O346 C331 1.258 . S
O347 Nd321 2.492 . S
O347 C331 1.239 . S
O348 Nd321 2.487 . S
O348 C338 1.241 . S
O349 Nd320 2.414 . S
O349 Nd321 2.682 . S
O349 C338 1.273 . S
O350 Nd321 2.410 . S
O350 C339 1.251 . S
O351 Nd320 2.424 . S
O351 C339 1.268 . S
H352 C324 0.930 . S
H353 C325 0.929 . S
H354 C327 0.930 . S
H355 C328 0.929 . S
H356 C333 0.930 . S
H357 C334 0.929 . S
H358 C336 0.930 . S
H359 C337 0.929 . S
Nd360 C362 2.836 . S
Nd360 O380 2.500 . S
Nd360 O381 2.492 . S
Nd360 O382 2.487 . S
Nd360 O383 2.682 1_455 S
Nd360 O384 2.410 . S
Nd360 O389 2.414 . S
Nd360 O391 2.424 1_455 S
Nd361 C371 2.836 . S
Nd361 O383 2.414 . S
Nd361 O385 2.424 1_655 S
Nd361 O386 2.500 . S
Nd361 O387 2.492 . S
Nd361 O388 2.487 . S
Nd361 O389 2.682 1_655 S
Nd361 O390 2.410 . S
C362 Nd360 2.836 . S
C362 C363 1.498 . S
C362 O380 1.258 . S
C362 O381 1.239 . S
C363 C362 1.498 . S
C363 C364 1.366 . S
C363 C368 1.407 . S
C364 C363 1.366 . S
C364 C365 1.392 . S
C364 H392 0.930 . S
C365 C364 1.392 . S
C365 C366 1.398 . S
C365 H393 0.929 . S
C366 C365 1.398 . S
C366 C367 1.352 . S
C367 C366 1.352 . S
C367 C368 1.384 . S
C367 H394 0.930 . S
C368 C363 1.407 . S
C368 C367 1.384 . S
C368 H395 0.929 . S
C369 O382 1.241 . S
C369 O383 1.273 1_455 S
C370 O384 1.251 . S
C370 O385 1.268 . S
C371 Nd361 2.836 . S
C371 C372 1.498 . S
C371 O386 1.258 . S
C371 O387 1.239 . S
C372 C371 1.498 . S
C372 C373 1.366 . S
C372 C377 1.407 . S
C373 C372 1.366 . S
C373 C374 1.392 . S
C373 H396 0.930 . S
C374 C373 1.392 . S
C374 C375 1.398 . S
C374 H397 0.929 . S
C375 C374 1.398 . S
C375 C376 1.352 . S
C376 C375 1.352 . S
C376 C377 1.384 . S
C376 H398 0.930 . S
C377 C372 1.407 . S
C377 C376 1.384 . S
C377 H399 0.929 . S
C378 O388 1.241 1_455 S
C378 O389 1.273 . S
C379 O390 1.251 . S
C379 O391 1.268 . S
O380 Nd360 2.500 . S
O380 C362 1.258 . S
O381 Nd360 2.492 . S
O381 C362 1.239 . S
O382 Nd360 2.487 . S
O382 C369 1.241 . S
O383 Nd360 2.682 1_655 S
O383 Nd361 2.414 . S
O383 C369 1.273 1_655 S
O384 Nd360 2.410 . S
O384 C370 1.251 . S
O385 Nd361 2.424 1_455 S
O385 C370 1.268 . S
O386 Nd361 2.500 . S
O386 C371 1.258 . S
O387 Nd361 2.492 . S
O387 C371 1.239 . S
O388 Nd361 2.487 . S
O388 C378 1.241 1_655 S
O389 Nd360 2.414 . S
O389 Nd361 2.682 1_455 S
O389 C378 1.273 . S
O390 Nd361 2.410 . S
O390 C379 1.251 . S
O391 Nd360 2.424 1_655 S
O391 C379 1.268 . S
H392 C364 0.930 . S
H393 C365 0.929 . S
H394 C367 0.930 . S
H395 C368 0.929 . S
H396 C373 0.930 . S
H397 C374 0.929 . S
H398 C376 0.930 . S
H399 C377 0.929 . S
Nd400 C402 2.836 . S
Nd400 O420 2.500 . S
Nd400 O421 2.492 . S
Nd400 O422 2.487 . S
Nd400 O423 2.682 . S
Nd400 O424 2.410 . S
Nd400 O429 2.414 . S
Nd400 O431 2.424 . S
Nd401 C411 2.836 . S
Nd401 O423 2.414 . S
Nd401 O425 2.424 . S
Nd401 O426 2.500 . S
Nd401 O427 2.492 . S
Nd401 O428 2.487 . S
Nd401 O429 2.682 . S
Nd401 O430 2.410 . S
C402 Nd400 2.836 . S
C402 C403 1.498 . S
C402 O420 1.258 . S
C402 O421 1.239 . S
C403 C402 1.498 . S
C403 C404 1.366 . S
C403 C408 1.407 . S
C404 C403 1.366 . S
C404 C405 1.392 . S
C404 H432 0.930 . S
C405 C404 1.392 . S
C405 C406 1.398 . S
C405 H433 0.929 . S
C406 C405 1.398 . S
C406 C407 1.352 . S
C407 C406 1.352 . S
C407 C408 1.384 . S
C407 H434 0.930 . S
C408 C403 1.407 . S
C408 C407 1.384 . S
C408 H435 0.929 . S
C409 O422 1.241 . S
C409 O423 1.273 . S
C410 O424 1.251 . S
C410 O425 1.268 . S
C411 Nd401 2.836 . S
C411 C412 1.498 . S
C411 O426 1.258 . S
C411 O427 1.239 . S
C412 C411 1.498 . S
C412 C413 1.366 . S
C412 C417 1.407 . S
C413 C412 1.366 . S
C413 C414 1.392 . S
C413 H436 0.930 . S
C414 C413 1.392 . S
C414 C415 1.398 . S
C414 H437 0.929 . S
C415 C414 1.398 . S
C415 C416 1.352 . S
C416 C415 1.352 . S
C416 C417 1.384 . S
C416 H438 0.930 . S
C417 C412 1.407 . S
C417 C416 1.384 . S
C417 H439 0.929 . S
C418 O428 1.241 . S
C418 O429 1.273 . S
C419 O430 1.251 . S
C419 O431 1.268 . S
O420 Nd400 2.500 . S
O420 C402 1.258 . S
O421 Nd400 2.492 . S
O421 C402 1.239 . S
O422 Nd400 2.487 . S
O422 C409 1.241 . S
O423 Nd400 2.682 . S
O423 Nd401 2.414 . S
O423 C409 1.273 . S
O424 Nd400 2.410 . S
O424 C410 1.251 . S
O425 Nd401 2.424 . S
O425 C410 1.268 . S
O426 Nd401 2.500 . S
O426 C411 1.258 . S
O427 Nd401 2.492 . S
O427 C411 1.239 . S
O428 Nd401 2.487 . S
O428 C418 1.241 . S
O429 Nd400 2.414 . S
O429 Nd401 2.682 . S
O429 C418 1.273 . S
O430 Nd401 2.410 . S
O430 C419 1.251 . S
O431 Nd400 2.424 . S
O431 C419 1.268 . S
H432 C404 0.930 . S
H433 C405 0.929 . S
H434 C407 0.930 . S
H435 C408 0.929 . S
H436 C413 0.930 . S
H437 C414 0.929 . S
H438 C416 0.930 . S
H439 C417 0.929 . S
Nd440 C442 2.836 1_545 S
Nd440 O460 2.500 1_545 S
Nd440 O461 2.492 1_545 S
Nd440 O462 2.487 . S
Nd440 O463 2.682 . S
Nd440 O464 2.410 1_545 S
Nd440 O469 2.414 . S
Nd440 O471 2.424 . S
Nd441 C451 2.836 . S
Nd441 O463 2.414 . S
Nd441 O465 2.424 1_545 S
Nd441 O466 2.500 . S
Nd441 O467 2.492 . S
Nd441 O468 2.487 . S
Nd441 O469 2.682 . S
Nd441 O470 2.410 . S
C442 Nd440 2.836 1_565 S
C442 C443 1.498 . S
C442 O460 1.258 . S
C442 O461 1.239 . S
C443 C442 1.498 . S
C443 C444 1.366 . S
C443 C448 1.407 . S
C444 C443 1.366 . S
C444 C445 1.392 . S
C444 H472 0.930 . S
C445 C444 1.392 . S
C445 C446 1.398 . S
C445 H473 0.929 . S
C446 C445 1.398 . S
C446 C447 1.352 . S
C447 C446 1.352 . S
C447 C448 1.384 . S
C447 H474 0.930 . S
C448 C443 1.407 . S
C448 C447 1.384 . S
C448 H475 0.929 . S
C449 O462 1.241 . S
C449 O463 1.273 . S
C450 O464 1.251 . S
C450 O465 1.268 . S
C451 Nd441 2.836 . S
C451 C452 1.498 . S
C451 O466 1.258 . S
C451 O467 1.239 . S
C452 C451 1.498 . S
C452 C453 1.366 . S
C452 C457 1.407 . S
C453 C452 1.366 . S
C453 C454 1.392 . S
C453 H476 0.930 . S
C454 C453 1.392 . S
C454 C455 1.398 . S
C454 H477 0.929 . S
C455 C454 1.398 . S
C455 C456 1.352 . S
C456 C455 1.352 . S
C456 C457 1.384 . S
C456 H478 0.930 . S
C457 C452 1.407 . S
C457 C456 1.384 . S
C457 H479 0.929 . S
C458 O468 1.241 . S
C458 O469 1.273 . S
C459 O470 1.251 . S
C459 O471 1.268 . S
O460 Nd440 2.500 1_565 S
O460 C442 1.258 . S
O461 Nd440 2.492 1_565 S
O461 C442 1.239 . S
O462 Nd440 2.487 . S
O462 C449 1.241 . S
O463 Nd440 2.682 . S
O463 Nd441 2.414 . S
O463 C449 1.273 . S
O464 Nd440 2.410 1_565 S
O464 C450 1.251 . S
O465 Nd441 2.424 1_565 S
O465 C450 1.268 . S
O466 Nd441 2.500 . S
O466 C451 1.258 . S
O467 Nd441 2.492 . S
O467 C451 1.239 . S
O468 Nd441 2.487 . S
O468 C458 1.241 . S
O469 Nd440 2.414 . S
O469 Nd441 2.682 . S
O469 C458 1.273 . S
O470 Nd441 2.410 . S
O470 C459 1.251 . S
O471 Nd440 2.424 . S
O471 C459 1.268 . S
H472 C444 0.930 . S
H473 C445 0.929 . S
H474 C447 0.930 . S
H475 C448 0.929 . S
H476 C453 0.930 . S
H477 C454 0.929 . S
H478 C456 0.930 . S
H479 C457 0.929 . S
Nd480 C482 2.836 . S
Nd480 O500 2.500 . S
Nd480 O501 2.492 . S
Nd480 O502 2.487 . S
Nd480 O503 2.682 . S
Nd480 O504 2.410 . S
Nd480 O509 2.414 . S
Nd480 O511 2.424 . S
Nd481 C491 2.836 . S
Nd481 O503 2.414 . S
Nd481 O505 2.424 . S
Nd481 O506 2.500 . S
Nd481 O507 2.492 . S
Nd481 O508 2.487 . S
Nd481 O509 2.682 . S
Nd481 O510 2.410 . S
C482 Nd480 2.836 . S
C482 C483 1.498 . S
C482 O500 1.258 . S
C482 O501 1.239 . S
C483 C482 1.498 . S
C483 C484 1.366 . S
C483 C488 1.407 . S
C484 C483 1.366 . S
C484 C485 1.392 . S
C484 H512 0.930 . S
C485 C484 1.392 . S
C485 C486 1.398 . S
C485 H513 0.929 . S
C486 C485 1.398 . S
C486 C487 1.352 . S
C487 C486 1.352 . S
C487 C488 1.384 . S
C487 H514 0.930 . S
C488 C483 1.407 . S
C488 C487 1.384 . S
C488 H515 0.929 . S
C489 O502 1.241 . S
C489 O503 1.273 . S
C490 O504 1.251 . S
C490 O505 1.268 . S
C491 Nd481 2.836 . S
C491 C492 1.498 . S
C491 O506 1.258 . S
C491 O507 1.239 . S
C492 C491 1.498 . S
C492 C493 1.366 . S
C492 C497 1.407 1_455 S
C493 C492 1.366 . S
C493 C494 1.392 1_455 S
C493 H516 0.930 . S
C494 C493 1.392 1_655 S
C494 C495 1.398 . S
C494 H517 0.929 . S
C495 C494 1.398 . S
C495 C496 1.352 . S
C496 C495 1.352 . S
C496 C497 1.384 . S
C496 H518 0.930 . S
C497 C492 1.407 1_655 S
C497 C496 1.384 . S
C497 H519 0.929 . S
C498 O508 1.241 . S
C498 O509 1.273 . S
C499 O510 1.251 . S
C499 O511 1.268 . S
O500 Nd480 2.500 . S
O500 C482 1.258 . S
O501 Nd480 2.492 . S
O501 C482 1.239 . S
O502 Nd480 2.487 . S
O502 C489 1.241 . S
O503 Nd480 2.682 . S
O503 Nd481 2.414 . S
O503 C489 1.273 . S
O504 Nd480 2.410 . S
O504 C490 1.251 . S
O505 Nd481 2.424 . S
O505 C490 1.268 . S
O506 Nd481 2.500 . S
O506 C491 1.258 . S
O507 Nd481 2.492 . S
O507 C491 1.239 . S
O508 Nd481 2.487 . S
O508 C498 1.241 . S
O509 Nd480 2.414 . S
O509 Nd481 2.682 . S
O509 C498 1.273 . S
O510 Nd481 2.410 . S
O510 C499 1.251 . S
O511 Nd480 2.424 . S
O511 C499 1.268 . S
H512 C484 0.930 . S
H513 C485 0.929 . S
H514 C487 0.930 . S
H515 C488 0.929 . S
H516 C493 0.930 . S
H517 C494 0.929 . S
H518 C496 0.930 . S
H519 C497 0.929 . S
Nd520 C522 2.836 . S
Nd520 O540 2.500 . S
Nd520 O541 2.492 . S
Nd520 O542 2.487 . S
Nd520 O543 2.682 . S
Nd520 O544 2.410 . S
Nd520 O549 2.414 . S
Nd520 O551 2.424 . S
Nd521 C531 2.836 . S
Nd521 O543 2.414 . S
Nd521 O545 2.424 . S
Nd521 O546 2.500 . S
Nd521 O547 2.492 . S
Nd521 O548 2.487 . S
Nd521 O549 2.682 . S
Nd521 O550 2.410 . S
C522 Nd520 2.836 . S
C522 C523 1.498 . S
C522 O540 1.258 . S
C522 O541 1.239 . S
C523 C522 1.498 . S
C523 C524 1.366 . S
C523 C528 1.407 . S
C524 C523 1.366 . S
C524 C525 1.392 . S
C524 H552 0.930 . S
C525 C524 1.392 . S
C525 C526 1.398 . S
C525 H553 0.929 . S
C526 C525 1.398 . S
C526 C527 1.352 . S
C527 C526 1.352 . S
C527 C528 1.384 . S
C527 H554 0.930 . S
C528 C523 1.407 . S
C528 C527 1.384 . S
C528 H555 0.929 . S
C529 O542 1.241 . S
C529 O543 1.273 . S
C530 O544 1.251 . S
C530 O545 1.268 . S
C531 Nd521 2.836 . S
C531 C532 1.498 . S
C531 O546 1.258 . S
C531 O547 1.239 . S
C532 C531 1.498 . S
C532 C533 1.366 . S
C532 C537 1.407 . S
C533 C532 1.366 . S
C533 C534 1.392 . S
C533 H556 0.930 . S
C534 C533 1.392 . S
C534 C535 1.398 . S
C534 H557 0.929 . S
C535 C534 1.398 . S
C535 C536 1.352 . S
C536 C535 1.352 . S
C536 C537 1.384 . S
C536 H558 0.930 . S
C537 C532 1.407 . S
C537 C536 1.384 . S
C537 H559 0.929 . S
C538 O548 1.241 . S
C538 O549 1.273 . S
C539 O550 1.251 . S
C539 O551 1.268 . S
O540 Nd520 2.500 . S
O540 C522 1.258 . S
O541 Nd520 2.492 . S
O541 C522 1.239 . S
O542 Nd520 2.487 . S
O542 C529 1.241 . S
O543 Nd520 2.682 . S
O543 Nd521 2.414 . S
O543 C529 1.273 . S
O544 Nd520 2.410 . S
O544 C530 1.251 . S
O545 Nd521 2.424 . S
O545 C530 1.268 . S
O546 Nd521 2.500 . S
O546 C531 1.258 . S
O547 Nd521 2.492 . S
O547 C531 1.239 . S
O548 Nd521 2.487 . S
O548 C538 1.241 . S
O549 Nd520 2.414 . S
O549 Nd521 2.682 . S
O549 C538 1.273 . S
O550 Nd521 2.410 . S
O550 C539 1.251 . S
O551 Nd520 2.424 . S
O551 C539 1.268 . S
H552 C524 0.930 . S
H553 C525 0.929 . S
H554 C527 0.930 . S
H555 C528 0.929 . S
H556 C533 0.930 . S
H557 C534 0.929 . S
H558 C536 0.930 . S
H559 C537 0.929 . S
Nd560 C562 2.836 . S
Nd560 O580 2.500 . S
Nd560 O581 2.492 . S
Nd560 O582 2.487 . S
Nd560 O583 2.682 . S
Nd560 O584 2.410 . S
Nd560 O589 2.414 . S
Nd560 O591 2.424 . S
Nd561 C571 2.836 . S
Nd561 O583 2.414 . S
Nd561 O585 2.424 . S
Nd561 O586 2.500 . S
Nd561 O587 2.492 . S
Nd561 O588 2.487 . S
Nd561 O589 2.682 . S
Nd561 O590 2.410 . S
C562 Nd560 2.836 . S
C562 C563 1.498 . S
C562 O580 1.258 . S
C562 O581 1.239 . S
C563 C562 1.498 . S
C563 C564 1.366 . S
C563 C568 1.407 . S
C564 C563 1.366 . S
C564 C565 1.392 . S
C564 H592 0.930 . S
C565 C564 1.392 . S
C565 C566 1.398 . S
C565 H593 0.929 . S
C566 C565 1.398 . S
C566 C567 1.352 . S
C567 C566 1.352 . S
C567 C568 1.384 . S
C567 H594 0.930 . S
C568 C563 1.407 . S
C568 C567 1.384 . S
C568 H595 0.929 . S
C569 O582 1.241 . S
C569 O583 1.273 . S
C570 O584 1.251 . S
C570 O585 1.268 . S
C571 Nd561 2.836 . S
C571 C572 1.498 1_565 S
C571 O586 1.258 . S
C571 O587 1.239 . S
C572 C571 1.498 1_545 S
C572 C573 1.366 . S
C572 C577 1.407 . S
C573 C572 1.366 . S
C573 C574 1.392 . S
C573 H596 0.930 1_545 S
C574 C573 1.392 . S
C574 C575 1.398 . S
C574 H597 0.929 . S
C575 C574 1.398 . S
C575 C576 1.352 . S
C576 C575 1.352 . S
C576 C577 1.384 . S
C576 H598 0.930 . S
C577 C572 1.407 . S
C577 C576 1.384 . S
C577 H599 0.929 . S
C578 O588 1.241 . S
C578 O589 1.273 . S
C579 O590 1.251 . S
C579 O591 1.268 . S
O580 Nd560 2.500 . S
O580 C562 1.258 . S
O581 Nd560 2.492 . S
O581 C562 1.239 . S
O582 Nd560 2.487 . S
O582 C569 1.241 . S
O583 Nd560 2.682 . S
O583 Nd561 2.414 . S
O583 C569 1.273 . S
O584 Nd560 2.410 . S
O584 C570 1.251 . S
O585 Nd561 2.424 . S
O585 C570 1.268 . S
O586 Nd561 2.500 . S
O586 C571 1.258 . S
O587 Nd561 2.492 . S
O587 C571 1.239 . S
O588 Nd561 2.487 . S
O588 C578 1.241 . S
O589 Nd560 2.414 . S
O589 Nd561 2.682 . S
O589 C578 1.273 . S
O590 Nd561 2.410 . S
O590 C579 1.251 . S
O591 Nd560 2.424 . S
O591 C579 1.268 . S
H592 C564 0.930 . S
H593 C565 0.929 . S
H594 C567 0.930 . S
H595 C568 0.929 . S
H596 C573 0.930 1_565 S
H597 C574 0.929 . S
H598 C576 0.930 . S
H599 C577 0.929 . S
Nd600 C602 2.836 . S
Nd600 O620 2.500 . S
Nd600 O621 2.492 . S
Nd600 O622 2.487 . S
Nd600 O623 2.682 . S
Nd600 O624 2.410 . S
Nd600 O629 2.414 . S
Nd600 O631 2.424 . S
Nd601 C611 2.836 . S
Nd601 O623 2.414 . S
Nd601 O625 2.424 . S
Nd601 O626 2.500 . S
Nd601 O627 2.492 . S
Nd601 O628 2.487 . S
Nd601 O629 2.682 . S
Nd601 O630 2.410 . S
C602 Nd600 2.836 . S
C602 C603 1.498 . S
C602 O620 1.258 . S
C602 O621 1.239 . S
C603 C602 1.498 . S
C603 C604 1.366 . S
C603 C608 1.402 1_565 S
C604 C603 1.366 . S
C604 C605 1.392 . S
C604 H632 0.930 . S
C605 C604 1.392 . S
C605 C606 1.398 1_565 S
C605 H633 0.929 . S
C606 C605 1.398 1_545 S
C606 C607 1.352 . S
C607 C606 1.352 . S
C607 C608 1.387 . S
C607 H634 0.930 . S
C608 C603 1.402 1_545 S
C608 C607 1.387 . S
C608 H635 0.924 . S
C609 O622 1.241 . S
C609 O623 1.273 . S
C610 O624 1.251 . S
C610 O625 1.268 . S
C611 Nd601 2.836 . S
C611 C612 1.498 . S
C611 O626 1.258 . S
C611 O627 1.239 . S
C612 C611 1.498 . S
C612 C613 1.366 . S
C612 C617 1.407 . S
C613 C612 1.366 . S
C613 C614 1.392 . S
C613 H636 0.930 . S
C614 C613 1.392 . S
C614 C615 1.398 . S
C614 H637 0.929 . S
C615 C614 1.398 . S
C615 C616 1.352 . S
C616 C615 1.352 . S
C616 C617 1.384 . S
C616 H638 0.930 . S
C617 C612 1.407 . S
C617 C616 1.384 . S
C617 H639 0.929 . S
C618 O628 1.241 . S
C618 O629 1.273 . S
C619 O630 1.251 . S
C619 O631 1.268 . S
O620 Nd600 2.500 . S
O620 C602 1.258 . S
O621 Nd600 2.492 . S
O621 C602 1.239 . S
O622 Nd600 2.487 . S
O622 C609 1.241 . S
O623 Nd600 2.682 . S
O623 Nd601 2.414 . S
O623 C609 1.273 . S
O624 Nd600 2.410 . S
O624 C610 1.251 . S
O625 Nd601 2.424 . S
O625 C610 1.268 . S
O626 Nd601 2.500 . S
O626 C611 1.258 . S
O627 Nd601 2.492 . S
O627 C611 1.239 . S
O628 Nd601 2.487 . S
O628 C618 1.241 . S
O629 Nd600 2.414 . S
O629 Nd601 2.682 . S
O629 C618 1.273 . S
O630 Nd601 2.410 . S
O630 C619 1.251 . S
O631 Nd600 2.424 . S
O631 C619 1.268 . S
H632 C604 0.930 . S
H633 C605 0.929 . S
H634 C607 0.930 . S
H635 C608 0.924 . S
H636 C613 0.930 . S
H637 C614 0.929 . S
H638 C616 0.930 . S
H639 C617 0.929 . S
Nd640 C642 2.836 . S
Nd640 O660 2.500 . S
Nd640 O661 2.492 . S
Nd640 O662 2.487 . S
Nd640 O663 2.682 . S
Nd640 O664 2.410 . S
Nd640 O669 2.414 . S
Nd640 O671 2.424 . S
Nd641 C651 2.836 . S
Nd641 O663 2.414 . S
Nd641 O665 2.424 . S
Nd641 O666 2.500 . S
Nd641 O667 2.492 . S
Nd641 O668 2.487 . S
Nd641 O669 2.682 . S
Nd641 O670 2.410 . S
C642 Nd640 2.836 . S
C642 C643 1.498 . S
C642 O660 1.258 . S
C642 O661 1.239 . S
C643 C642 1.498 . S
C643 C644 1.366 . S
C643 C648 1.407 . S
C644 C643 1.366 . S
C644 C645 1.392 . S
C644 H672 0.930 . S
C645 C644 1.392 . S
C645 C646 1.398 . S
C645 H673 0.929 . S
C646 C645 1.398 . S
C646 C647 1.352 . S
C647 C646 1.352 . S
C647 C648 1.384 . S
C647 H674 0.930 1_455 S
C648 C643 1.407 . S
C648 C647 1.384 . S
C648 H675 0.929 . S
C649 O662 1.241 . S
C649 O663 1.273 . S
C650 O664 1.251 . S
C650 O665 1.268 . S
C651 Nd641 2.836 . S
C651 C652 1.498 . S
C651 O666 1.258 . S
C651 O667 1.239 . S
C652 C651 1.498 . S
C652 C653 1.366 . S
C652 C657 1.407 . S
C653 C652 1.366 . S
C653 C654 1.392 . S
C653 H676 0.930 . S
C654 C653 1.392 . S
C654 C655 1.398 . S
C654 H677 0.929 . S
C655 C654 1.398 . S
C655 C656 1.352 . S
C656 C655 1.352 . S
C656 C657 1.384 . S
C656 H678 0.930 . S
C657 C652 1.407 . S
C657 C656 1.384 . S
C657 H679 0.929 . S
C658 O668 1.241 . S
C658 O669 1.273 . S
C659 O670 1.251 . S
C659 O671 1.268 . S
O660 Nd640 2.500 . S
O660 C642 1.258 . S
O661 Nd640 2.492 . S
O661 C642 1.239 . S
O662 Nd640 2.487 . S
O662 C649 1.241 . S
O663 Nd640 2.682 . S
O663 Nd641 2.414 . S
O663 C649 1.273 . S
O664 Nd640 2.410 . S
O664 C650 1.251 . S
O665 Nd641 2.424 . S
O665 C650 1.268 . S
O666 Nd641 2.500 . S
O666 C651 1.258 . S
O667 Nd641 2.492 . S
O667 C651 1.239 . S
O668 Nd641 2.487 . S
O668 C658 1.241 . S
O669 Nd640 2.414 . S
O669 Nd641 2.682 . S
O669 C658 1.273 . S
O670 Nd641 2.410 . S
O670 C659 1.251 . S
O671 Nd640 2.424 . S
O671 C659 1.268 . S
H672 C644 0.930 . S
H673 C645 0.929 . S
H674 C647 0.930 1_655 S
H675 C648 0.929 . S
H676 C653 0.930 . S
H677 C654 0.929 . S
H678 C656 0.930 . S
H679 C657 0.929 . S
Nd680 C682 2.836 . S
Nd680 O700 2.500 . S
Nd680 O701 2.492 . S
Nd680 O702 2.487 . S
Nd680 O703 2.682 . S
Nd680 O704 2.410 . S
Nd680 O709 2.414 . S
Nd680 O711 2.424 . S
Nd681 C691 2.836 . S
Nd681 O703 2.414 . S
Nd681 O705 2.424 . S
Nd681 O706 2.500 . S
Nd681 O707 2.492 . S
Nd681 O708 2.487 . S
Nd681 O709 2.682 . S
Nd681 O710 2.410 . S
C682 Nd680 2.836 . S
C682 C683 1.498 . S
C682 O700 1.258 . S
C682 O701 1.239 . S
C683 C682 1.498 . S
C683 C684 1.366 . S
C683 C688 1.407 . S
C684 C683 1.366 . S
C684 C685 1.392 . S
C684 H712 0.930 . S
C685 C684 1.392 . S
C685 C686 1.398 . S
C685 H713 0.929 . S
C686 C685 1.398 . S
C686 C687 1.352 . S
C687 C686 1.352 . S
C687 C688 1.384 . S
C687 H714 0.930 . S
C688 C683 1.407 . S
C688 C687 1.384 . S
C688 H715 0.929 . S
C689 O702 1.241 . S
C689 O703 1.273 . S
C690 O704 1.251 . S
C690 O705 1.268 . S
C691 Nd681 2.836 . S
C691 C692 1.498 . S
C691 O706 1.258 . S
C691 O707 1.239 . S
C692 C691 1.498 . S
C692 C693 1.366 . S
C692 C697 1.407 . S
C693 C692 1.366 . S
C693 C694 1.392 . S
C693 H716 0.930 . S
C694 C693 1.392 . S
C694 C695 1.398 . S
C694 H717 0.929 . S
C695 C694 1.398 . S
C695 C696 1.352 . S
C696 C695 1.352 . S
C696 C697 1.384 . S
C696 H718 0.930 . S
C697 C692 1.407 . S
C697 C696 1.384 . S
C697 H719 0.929 . S
C698 O708 1.241 . S
C698 O709 1.273 . S
C699 O710 1.251 . S
C699 O711 1.268 . S
O700 Nd680 2.500 . S
O700 C682 1.258 . S
O701 Nd680 2.492 . S
O701 C682 1.239 . S
O702 Nd680 2.487 . S
O702 C689 1.241 . S
O703 Nd680 2.682 . S
O703 Nd681 2.414 . S
O703 C689 1.273 . S
O704 Nd680 2.410 . S
O704 C690 1.251 . S
O705 Nd681 2.424 . S
O705 C690 1.268 . S
O706 Nd681 2.500 . S
O706 C691 1.258 . S
O707 Nd681 2.492 . S
O707 C691 1.239 . S
O708 Nd681 2.487 . S
O708 C698 1.241 . S
O709 Nd680 2.414 . S
O709 Nd681 2.682 . S
O709 C698 1.273 . S
O710 Nd681 2.410 . S
O710 C699 1.251 . S
O711 Nd680 2.424 . S
O711 C699 1.268 . S
H712 C684 0.930 . S
H713 C685 0.929 . S
H714 C687 0.930 . S
H715 C688 0.929 . S
H716 C693 0.930 . S
H717 C694 0.929 . S
H718 C696 0.930 . S
H719 C697 0.929 . S
Nd720 C722 2.836 . S
Nd720 O740 2.500 . S
Nd720 O741 2.492 . S
Nd720 O742 2.487 . S
Nd720 O743 2.682 . S
Nd720 O744 2.410 . S
Nd720 O749 2.414 . S
Nd720 O751 2.424 . S
Nd721 C731 2.836 . S
Nd721 O743 2.414 . S
Nd721 O745 2.424 . S
Nd721 O746 2.500 . S
Nd721 O747 2.492 . S
Nd721 O748 2.487 . S
Nd721 O749 2.682 . S
Nd721 O750 2.410 . S
C722 Nd720 2.836 . S
C722 C723 1.498 . S
C722 O740 1.258 . S
C722 O741 1.239 . S
C723 C722 1.498 . S
C723 C724 1.366 . S
C723 C728 1.407 . S
C724 C723 1.366 . S
C724 C725 1.392 . S
C724 H752 0.930 . S
C725 C724 1.392 . S
C725 C726 1.398 . S
C725 H753 0.929 . S
C726 C725 1.398 . S
C726 C727 1.352 . S
C727 C726 1.352 . S
C727 C728 1.384 . S
C727 H754 0.930 . S
C728 C723 1.407 . S
C728 C727 1.384 . S
C728 H755 0.929 . S
C729 O742 1.241 . S
C729 O743 1.273 . S
C730 O744 1.251 . S
C730 O745 1.268 . S
C731 Nd721 2.836 . S
C731 C732 1.498 . S
C731 O746 1.258 . S
C731 O747 1.239 . S
C732 C731 1.498 . S
C732 C733 1.366 . S
C732 C737 1.407 . S
C733 C732 1.366 . S
C733 C734 1.392 . S
C733 H756 0.930 . S
C734 C733 1.392 . S
C734 C735 1.398 . S
C734 H757 0.929 . S
C735 C734 1.398 . S
C735 C736 1.352 . S
C736 C735 1.352 . S
C736 C737 1.384 . S
C736 H758 0.930 1_455 S
C737 C732 1.407 . S
C737 C736 1.384 . S
C737 H759 0.929 . S
C738 O748 1.241 . S
C738 O749 1.273 . S
C739 O750 1.251 . S
C739 O751 1.268 . S
O740 Nd720 2.500 . S
O740 C722 1.258 . S
O741 Nd720 2.492 . S
O741 C722 1.239 . S
O742 Nd720 2.487 . S
O742 C729 1.241 . S
O743 Nd720 2.682 . S
O743 Nd721 2.414 . S
O743 C729 1.273 . S
O744 Nd720 2.410 . S
O744 C730 1.251 . S
O745 Nd721 2.424 . S
O745 C730 1.268 . S
O746 Nd721 2.500 . S
O746 C731 1.258 . S
O747 Nd721 2.492 . S
O747 C731 1.239 . S
O748 Nd721 2.487 . S
O748 C738 1.241 . S
O749 Nd720 2.414 . S
O749 Nd721 2.682 . S
O749 C738 1.273 . S
O750 Nd721 2.410 . S
O750 C739 1.251 . S
O751 Nd720 2.424 . S
O751 C739 1.268 . S
H752 C724 0.930 . S
H753 C725 0.929 . S
H754 C727 0.930 . S
H755 C728 0.929 . S
H756 C733 0.930 . S
H757 C734 0.929 . S
H758 C736 0.930 1_655 S
H759 C737 0.929 . S
Nd760 C762 2.836 . S
Nd760 O780 2.500 . S
Nd760 O781 2.492 . S
Nd760 O782 2.487 . S
Nd760 O783 2.682 . S
Nd760 O784 2.410 . S
Nd760 O789 2.414 . S
Nd760 O791 2.424 . S
Nd761 C771 2.836 . S
Nd761 O783 2.414 . S
Nd761 O785 2.424 . S
Nd761 O786 2.500 . S
Nd761 O787 2.492 . S
Nd761 O788 2.487 . S
Nd761 O789 2.682 . S
Nd761 O790 2.410 . S
C762 Nd760 2.836 . S
C762 C763 1.498 . S
C762 O780 1.258 . S
C762 O781 1.239 . S
C763 C762 1.498 . S
C763 C764 1.366 . S
C763 C768 1.407 . S
C764 C763 1.366 . S
C764 C765 1.392 . S
C764 H792 0.930 . S
C765 C764 1.392 . S
C765 C766 1.398 . S
C765 H793 0.929 . S
C766 C765 1.398 . S
C766 C767 1.352 . S
C767 C766 1.352 . S
C767 C768 1.384 . S
C767 H794 0.930 . S
C768 C763 1.407 . S
C768 C767 1.384 . S
C768 H795 0.929 . S
C769 O782 1.241 . S
C769 O783 1.273 . S
C770 O784 1.251 . S
C770 O785 1.268 . S
C771 Nd761 2.836 . S
C771 C772 1.498 . S
C771 O786 1.258 . S
C771 O787 1.239 . S
C772 C771 1.498 . S
C772 C773 1.366 . S
C772 C777 1.407 . S
C773 C772 1.366 . S
C773 C774 1.392 . S
C773 H796 0.930 . S
C774 C773 1.392 . S
C774 C775 1.398 . S
C774 H797 0.929 . S
C775 C774 1.398 . S
C775 C776 1.352 . S
C776 C775 1.352 . S
C776 C777 1.384 . S
C776 H798 0.930 . S
C777 C772 1.407 . S
C777 C776 1.384 . S
C777 H799 0.929 . S
C778 O788 1.241 . S
C778 O789 1.273 . S
C779 O790 1.251 . S
C779 O791 1.268 . S
O780 Nd760 2.500 . S
O780 C762 1.258 . S
O781 Nd760 2.492 . S
O781 C762 1.239 . S
O782 Nd760 2.487 . S
O782 C769 1.241 . S
O783 Nd760 2.682 . S
O783 Nd761 2.414 . S
O783 C769 1.273 . S
O784 Nd760 2.410 . S
O784 C770 1.251 . S
O785 Nd761 2.424 . S
O785 C770 1.268 . S
O786 Nd761 2.500 . S
O786 C771 1.258 . S
O787 Nd761 2.492 . S
O787 C771 1.239 . S
O788 Nd761 2.487 . S
O788 C778 1.241 . S
O789 Nd760 2.414 . S
O789 Nd761 2.682 . S
O789 C778 1.273 . S
O790 Nd761 2.410 . S
O790 C779 1.251 . S
O791 Nd760 2.424 . S
O791 C779 1.268 . S
H792 C764 0.930 . S
H793 C765 0.929 . S
H794 C767 0.930 . S
H795 C768 0.929 . S
H796 C773 0.930 . S
H797 C774 0.929 . S
H798 C776 0.930 . S
H799 C777 0.929 . S
Nd800 C802 2.836 . S
Nd800 O820 2.500 . S
Nd800 O821 2.492 . S
Nd800 O822 2.487 . S
Nd800 O823 2.682 . S
Nd800 O824 2.410 . S
Nd800 O829 2.414 . S
Nd800 O831 2.424 . S
Nd801 C811 2.836 . S
Nd801 O823 2.414 . S
Nd801 O825 2.424 . S
Nd801 O826 2.500 . S
Nd801 O827 2.492 . S
Nd801 O828 2.487 . S
Nd801 O829 2.682 . S
Nd801 O830 2.410 . S
C802 Nd800 2.836 . S
C802 C803 1.498 . S
C802 O820 1.258 . S
C802 O821 1.239 . S
C803 C802 1.498 . S
C803 C804 1.366 . S
C803 C808 1.407 . S
C804 C803 1.366 . S
C804 C805 1.392 . S
C804 H832 0.930 . S
C805 C804 1.392 . S
C805 C806 1.398 . S
C805 H833 0.929 . S
C806 C805 1.398 . S
C806 C807 1.352 . S
C807 C806 1.352 . S
C807 C808 1.384 . S
C807 H834 0.930 . S
C808 C803 1.407 . S
C808 C807 1.384 . S
C808 H835 0.929 . S
C809 O822 1.241 . S
C809 O823 1.273 . S
C810 O824 1.251 . S
C810 O825 1.268 . S
C811 Nd801 2.836 . S
C811 C812 1.498 . S
C811 O826 1.258 . S
C811 O827 1.239 . S
C812 C811 1.498 . S
C812 C813 1.366 . S
C812 C817 1.405 1_565 S
C813 C812 1.366 . S
C813 C814 1.392 . S
C813 H836 0.930 . S
C814 C813 1.392 . S
C814 C815 1.398 1_565 S
C814 H837 0.929 . S
C815 C814 1.398 1_545 S
C815 C816 1.352 . S
C816 C815 1.352 . S
C816 C817 1.388 . S
C816 H838 0.930 . S
C817 C812 1.405 1_545 S
C817 C816 1.388 . S
C817 H839 0.934 . S
C818 O828 1.241 . S
C818 O829 1.273 . S
C819 O830 1.251 . S
C819 O831 1.268 . S
O820 Nd800 2.500 . S
O820 C802 1.258 . S
O821 Nd800 2.492 . S
O821 C802 1.239 . S
O822 Nd800 2.487 . S
O822 C809 1.241 . S
O823 Nd800 2.682 . S
O823 Nd801 2.414 . S
O823 C809 1.273 . S
O824 Nd800 2.410 . S
O824 C810 1.251 . S
O825 Nd801 2.424 . S
O825 C810 1.268 . S
O826 Nd801 2.500 . S
O826 C811 1.258 . S
O827 Nd801 2.492 . S
O827 C811 1.239 . S
O828 Nd801 2.487 . S
O828 C818 1.241 . S
O829 Nd800 2.414 . S
O829 Nd801 2.682 . S
O829 C818 1.273 . S
O830 Nd801 2.410 . S
O830 C819 1.251 . S
O831 Nd800 2.424 . S
O831 C819 1.268 . S
H832 C804 0.930 . S
H833 C805 0.929 . S
H834 C807 0.930 . S
H835 C808 0.929 . S
H836 C813 0.930 . S
H837 C814 0.929 . S
H838 C816 0.930 . S
H839 C817 0.934 . S
Nd840 C842 2.836 . S
Nd840 O860 2.500 . S
Nd840 O861 2.492 . S
Nd840 O862 2.487 . S
Nd840 O863 2.682 . S
Nd840 O864 2.410 . S
Nd840 O869 2.414 . S
Nd840 O871 2.424 . S
Nd841 C851 2.836 . S
Nd841 O863 2.414 . S
Nd841 O865 2.424 . S
Nd841 O866 2.500 . S
Nd841 O867 2.492 . S
Nd841 O868 2.487 . S
Nd841 O869 2.682 . S
Nd841 O870 2.410 . S
C842 Nd840 2.836 . S
C842 C843 1.498 1_565 S
C842 O860 1.258 . S
C842 O861 1.239 . S
C843 C842 1.498 1_545 S
C843 C844 1.366 . S
C843 C848 1.407 . S
C844 C843 1.366 . S
C844 C845 1.392 . S
C844 H872 0.930 1_545 S
C845 C844 1.392 . S
C845 C846 1.398 . S
C845 H873 0.929 . S
C846 C845 1.398 . S
C846 C847 1.352 . S
C847 C846 1.352 . S
C847 C848 1.384 . S
C847 H874 0.930 . S
C848 C843 1.407 . S
C848 C847 1.384 . S
C848 H875 0.929 . S
C849 O862 1.241 . S
C849 O863 1.273 . S
C850 O864 1.251 . S
C850 O865 1.268 . S
C851 Nd841 2.836 . S
C851 C852 1.498 . S
C851 O866 1.258 . S
C851 O867 1.239 . S
C852 C851 1.498 . S
C852 C853 1.366 . S
C852 C857 1.407 . S
C853 C852 1.366 . S
C853 C854 1.392 . S
C853 H876 0.930 . S
C854 C853 1.392 . S
C854 C855 1.398 . S
C854 H877 0.929 . S
C855 C854 1.398 . S
C855 C856 1.352 . S
C856 C855 1.352 . S
C856 C857 1.384 . S
C856 H878 0.930 . S
C857 C852 1.407 . S
C857 C856 1.384 . S
C857 H879 0.929 . S
C858 O868 1.241 . S
C858 O869 1.273 . S
C859 O870 1.251 . S
C859 O871 1.268 . S
O860 Nd840 2.500 . S
O860 C842 1.258 . S
O861 Nd840 2.492 . S
O861 C842 1.239 . S
O862 Nd840 2.487 . S
O862 C849 1.241 . S
O863 Nd840 2.682 . S
O863 Nd841 2.414 . S
O863 C849 1.273 . S
O864 Nd840 2.410 . S
O864 C850 1.251 . S
O865 Nd841 2.424 . S
O865 C850 1.268 . S
O866 Nd841 2.500 . S
O866 C851 1.258 . S
O867 Nd841 2.492 . S
O867 C851 1.239 . S
O868 Nd841 2.487 . S
O868 C858 1.241 . S
O869 Nd840 2.414 . S
O869 Nd841 2.682 . S
O869 C858 1.273 . S
O870 Nd841 2.410 . S
O870 C859 1.251 . S
O871 Nd840 2.424 . S
O871 C859 1.268 . S
H872 C844 0.930 1_565 S
H873 C845 0.929 . S
H874 C847 0.930 . S
H875 C848 0.929 . S
H876 C853 0.930 . S
H877 C854 0.929 . S
H878 C856 0.930 . S
H879 C857 0.929 . S
Nd880 C882 2.836 . S
Nd880 O900 2.500 . S
Nd880 O901 2.492 . S
Nd880 O902 2.487 . S
Nd880 O903 2.682 . S
Nd880 O904 2.410 . S
Nd880 O909 2.414 . S
Nd880 O911 2.424 . S
Nd881 C891 2.836 . S
Nd881 O903 2.414 . S
Nd881 O905 2.424 . S
Nd881 O906 2.500 . S
Nd881 O907 2.492 . S
Nd881 O908 2.487 . S
Nd881 O909 2.682 . S
Nd881 O910 2.410 . S
C882 Nd880 2.836 . S
C882 C883 1.498 . S
C882 O900 1.258 . S
C882 O901 1.239 . S
C883 C882 1.498 . S
C883 C884 1.366 . S
C883 C888 1.407 1_455 S
C884 C883 1.366 . S
C884 C885 1.392 1_455 S
C884 H912 0.930 . S
C885 C884 1.392 1_655 S
C885 C886 1.398 . S
C885 H913 0.929 . S
C886 C885 1.398 . S
C886 C887 1.352 . S
C887 C886 1.352 . S
C887 C888 1.384 . S
C887 H914 0.930 . S
C888 C883 1.407 1_655 S
C888 C887 1.384 . S
C888 H915 0.929 . S
C889 O902 1.241 . S
C889 O903 1.273 . S
C890 O904 1.251 . S
C890 O905 1.268 . S
C891 Nd881 2.836 . S
C891 C892 1.498 . S
C891 O906 1.258 . S
C891 O907 1.239 . S
C892 C891 1.498 . S
C892 C893 1.366 . S
C892 C897 1.407 . S
C893 C892 1.366 . S
C893 C894 1.392 . S
C893 H916 0.930 . S
C894 C893 1.392 . S
C894 C895 1.398 . S
C894 H917 0.929 . S
C895 C894 1.398 . S
C895 C896 1.352 . S
C896 C895 1.352 . S
C896 C897 1.384 . S
C896 H918 0.930 . S
C897 C892 1.407 . S
C897 C896 1.384 . S
C897 H919 0.929 . S
C898 O908 1.241 . S
C898 O909 1.273 . S
C899 O910 1.251 . S
C899 O911 1.268 . S
O900 Nd880 2.500 . S
O900 C882 1.258 . S
O901 Nd880 2.492 . S
O901 C882 1.239 . S
O902 Nd880 2.487 . S
O902 C889 1.241 . S
O903 Nd880 2.682 . S
O903 Nd881 2.414 . S
O903 C889 1.273 . S
O904 Nd880 2.410 . S
O904 C890 1.251 . S
O905 Nd881 2.424 . S
O905 C890 1.268 . S
O906 Nd881 2.500 . S
O906 C891 1.258 . S
O907 Nd881 2.492 . S
O907 C891 1.239 . S
O908 Nd881 2.487 . S
O908 C898 1.241 . S
O909 Nd880 2.414 . S
O909 Nd881 2.682 . S
O909 C898 1.273 . S
O910 Nd881 2.410 . S
O910 C899 1.251 . S
O911 Nd880 2.424 . S
O911 C899 1.268 . S
H912 C884 0.930 . S
H913 C885 0.929 . S
H914 C887 0.930 . S
H915 C888 0.929 . S
H916 C893 0.930 . S
H917 C894 0.929 . S
H918 C896 0.930 . S
H919 C897 0.929 . S
Nd920 C922 2.836 . S
Nd920 O940 2.500 . S
Nd920 O941 2.492 . S
Nd920 O942 2.487 . S
Nd920 O943 2.682 . S
Nd920 O944 2.410 . S
Nd920 O949 2.414 . S
Nd920 O951 2.424 . S
Nd921 C931 2.836 . S
Nd921 O943 2.414 . S
Nd921 O945 2.424 . S
Nd921 O946 2.500 . S
Nd921 O947 2.492 . S
Nd921 O948 2.487 . S
Nd921 O949 2.682 . S
Nd921 O950 2.410 . S
C922 Nd920 2.836 . S
C922 C923 1.498 . S
C922 O940 1.258 . S
C922 O941 1.239 . S
C923 C922 1.498 . S
C923 C924 1.366 . S
C923 C928 1.407 . S
C924 C923 1.366 . S
C924 C925 1.392 . S
C924 H952 0.930 . S
C925 C924 1.392 . S
C925 C926 1.398 . S
C925 H953 0.929 . S
C926 C925 1.398 . S
C926 C927 1.352 . S
C927 C926 1.352 . S
C927 C928 1.384 . S
C927 H954 0.930 . S
C928 C923 1.407 . S
C928 C927 1.384 . S
C928 H955 0.929 . S
C929 O942 1.241 . S
C929 O943 1.273 . S
C930 O944 1.251 . S
C930 O945 1.268 . S
C931 Nd921 2.836 . S
C931 C932 1.498 . S
C931 O946 1.258 . S
C931 O947 1.239 . S
C932 C931 1.498 . S
C932 C933 1.366 . S
C932 C937 1.407 . S
C933 C932 1.366 . S
C933 C934 1.392 . S
C933 H956 0.930 . S
C934 C933 1.392 . S
C934 C935 1.398 . S
C934 H957 0.929 . S
C935 C934 1.398 . S
C935 C936 1.352 . S
C936 C935 1.352 . S
C936 C937 1.384 . S
C936 H958 0.930 . S
C937 C932 1.407 . S
C937 C936 1.384 . S
C937 H959 0.929 . S
C938 O948 1.241 . S
C938 O949 1.273 . S
C939 O950 1.251 . S
C939 O951 1.268 . S
O940 Nd920 2.500 . S
O940 C922 1.258 . S
O941 Nd920 2.492 . S
O941 C922 1.239 . S
O942 Nd920 2.487 . S
O942 C929 1.241 . S
O943 Nd920 2.682 . S
O943 Nd921 2.414 . S
O943 C929 1.273 . S
O944 Nd920 2.410 . S
O944 C930 1.251 . S
O945 Nd921 2.424 . S
O945 C930 1.268 . S
O946 Nd921 2.500 . S
O946 C931 1.258 . S
O947 Nd921 2.492 . S
O947 C931 1.239 . S
O948 Nd921 2.487 . S
O948 C938 1.241 . S
O949 Nd920 2.414 . S
O949 Nd921 2.682 . S
O949 C938 1.273 . S
O950 Nd921 2.410 . S
O950 C939 1.251 . S
O951 Nd920 2.424 . S
O951 C939 1.268 . S
H952 C924 0.930 . S
H953 C925 0.929 . S
H954 C927 0.930 . S
H955 C928 0.929 . S
H956 C933 0.930 . S
H957 C934 0.929 . S
H958 C936 0.930 . S
H959 C937 0.929 . S
Nd960 C962 2.836 . S
Nd960 O980 2.500 . S
Nd960 O981 2.492 . S
Nd960 O982 2.487 . S
Nd960 O983 2.682 . S
Nd960 O984 2.410 . S
Nd960 O989 2.414 . S
Nd960 O991 2.424 . S
Nd961 C971 2.836 . S
Nd961 O983 2.414 . S
Nd961 O985 2.424 . S
Nd961 O986 2.500 . S
Nd961 O987 2.492 . S
Nd961 O988 2.487 . S
Nd961 O989 2.682 . S
Nd961 O990 2.410 . S
C962 Nd960 2.836 . S
C962 C963 1.498 . S
C962 O980 1.258 . S
C962 O981 1.239 . S
C963 C962 1.498 . S
C963 C964 1.366 . S
C963 C968 1.402 1_655 S
C964 C963 1.366 . S
C964 C965 1.392 . S
C964 H992 0.930 . S
C965 C964 1.392 . S
C965 C966 1.398 1_655 S
C965 H993 0.929 . S
C966 C965 1.398 1_455 S
C966 C967 1.352 . S
C967 C966 1.352 . S
C967 C968 1.387 . S
C967 H994 0.930 . S
C968 C963 1.402 1_455 S
C968 C967 1.387 . S
C968 H995 0.924 . S
C969 O982 1.241 . S
C969 O983 1.273 . S
C970 O984 1.251 . S
C970 O985 1.268 . S
C971 Nd961 2.836 . S
C971 C972 1.498 . S
C971 O986 1.258 . S
C971 O987 1.239 . S
C972 C971 1.498 . S
C972 C973 1.366 . S
C972 C977 1.407 . S
C973 C972 1.366 . S
C973 C974 1.392 . S
C973 H996 0.930 . S
C974 C973 1.392 . S
C974 C975 1.398 . S
C974 H997 0.929 . S
C975 C974 1.398 . S
C975 C976 1.352 . S
C976 C975 1.352 . S
C976 C977 1.384 . S
C976 H998 0.930 . S
C977 C972 1.407 . S
C977 C976 1.384 . S
C977 H999 0.929 . S
C978 O988 1.241 . S
C978 O989 1.273 . S
C979 O990 1.251 . S
C979 O991 1.268 . S
O980 Nd960 2.500 . S
O980 C962 1.258 . S
O981 Nd960 2.492 . S
O981 C962 1.239 . S
O982 Nd960 2.487 . S
O982 C969 1.241 . S
O983 Nd960 2.682 . S
O983 Nd961 2.414 . S
O983 C969 1.273 . S
O984 Nd960 2.410 . S
O984 C970 1.251 . S
O985 Nd961 2.424 . S
O985 C970 1.268 . S
O986 Nd961 2.500 . S
O986 C971 1.258 . S
O987 Nd961 2.492 . S
O987 C971 1.239 . S
O988 Nd961 2.487 . S
O988 C978 1.241 . S
O989 Nd960 2.414 . S
O989 Nd961 2.682 . S
O989 C978 1.273 . S
O990 Nd961 2.410 . S
O990 C979 1.251 . S
O991 Nd960 2.424 . S
O991 C979 1.268 . S
H992 C964 0.930 . S
H993 C965 0.929 . S
H994 C967 0.930 . S
H995 C968 0.924 . S
H996 C973 0.930 . S
H997 C974 0.929 . S
H998 C976 0.930 . S
H999 C977 0.929 . S
Nd1000 C1002 2.836 . S
Nd1000 O1020 2.500 . S
Nd1000 O1021 2.492 . S
Nd1000 O1022 2.487 . S
Nd1000 O1023 2.682 . S
Nd1000 O1024 2.410 . S
Nd1000 O1029 2.414 . S
Nd1000 O1031 2.424 . S
Nd1001 C1011 2.836 . S
Nd1001 O1023 2.414 . S
Nd1001 O1025 2.424 . S
Nd1001 O1026 2.500 . S
Nd1001 O1027 2.492 . S
Nd1001 O1028 2.487 . S
Nd1001 O1029 2.682 . S
Nd1001 O1030 2.410 . S
C1002 Nd1000 2.836 . S
C1002 C1003 1.498 . S
C1002 O1020 1.258 . S
C1002 O1021 1.239 . S
C1003 C1002 1.498 . S
C1003 C1004 1.366 . S
C1003 C1008 1.407 . S
C1004 C1003 1.366 . S
C1004 C1005 1.392 . S
C1004 H1032 0.930 . S
C1005 C1004 1.392 . S
C1005 C1006 1.398 . S
C1005 H1033 0.929 . S
C1006 C1005 1.398 . S
C1006 C1007 1.352 . S
C1007 C1006 1.352 . S
C1007 C1008 1.384 . S
C1007 H1034 0.930 . S
C1008 C1003 1.407 . S
C1008 C1007 1.384 . S
C1008 H1035 0.929 . S
C1009 O1022 1.241 . S
C1009 O1023 1.273 . S
C1010 O1024 1.251 . S
C1010 O1025 1.268 . S
C1011 Nd1001 2.836 . S
C1011 C1012 1.498 . S
C1011 O1026 1.258 . S
C1011 O1027 1.239 . S
C1012 C1011 1.498 . S
C1012 C1013 1.366 . S
C1012 C1017 1.407 . S
C1013 C1012 1.366 . S
C1013 C1014 1.392 . S
C1013 H1036 0.930 . S
C1014 C1013 1.392 . S
C1014 C1015 1.398 . S
C1014 H1037 0.929 . S
C1015 C1014 1.398 . S
C1015 C1016 1.352 . S
C1016 C1015 1.352 . S
C1016 C1017 1.384 . S
C1016 H1038 0.930 . S
C1017 C1012 1.407 . S
C1017 C1016 1.384 . S
C1017 H1039 0.929 . S
C1018 O1028 1.241 . S
C1018 O1029 1.273 . S
C1019 O1030 1.251 . S
C1019 O1031 1.268 . S
O1020 Nd1000 2.500 . S
O1020 C1002 1.258 . S
O1021 Nd1000 2.492 . S
O1021 C1002 1.239 . S
O1022 Nd1000 2.487 . S
O1022 C1009 1.241 . S
O1023 Nd1000 2.682 . S
O1023 Nd1001 2.414 . S
O1023 C1009 1.273 . S
O1024 Nd1000 2.410 . S
O1024 C1010 1.251 . S
O1025 Nd1001 2.424 . S
O1025 C1010 1.268 . S
O1026 Nd1001 2.500 . S
O1026 C1011 1.258 . S
O1027 Nd1001 2.492 . S
O1027 C1011 1.239 . S
O1028 Nd1001 2.487 . S
O1028 C1018 1.241 . S
O1029 Nd1000 2.414 . S
O1029 Nd1001 2.682 . S
O1029 C1018 1.273 . S
O1030 Nd1001 2.410 . S
O1030 C1019 1.251 . S
O1031 Nd1000 2.424 . S
O1031 C1019 1.268 . S
H1032 C1004 0.930 . S
H1033 C1005 0.929 . S
H1034 C1007 0.930 . S
H1035 C1008 0.929 . S
H1036 C1013 0.930 . S
H1037 C1014 0.929 . S
H1038 C1016 0.930 . S
H1039 C1017 0.929 . S
Nd1040 C1042 2.836 . S
Nd1040 O1060 2.500 . S
Nd1040 O1061 2.492 . S
Nd1040 O1062 2.487 . S
Nd1040 O1063 2.682 . S
Nd1040 O1064 2.410 . S
Nd1040 O1069 2.414 . S
Nd1040 O1071 2.424 . S
Nd1041 C1051 2.836 . S
Nd1041 O1063 2.414 . S
Nd1041 O1065 2.424 . S
Nd1041 O1066 2.500 . S
Nd1041 O1067 2.492 . S
Nd1041 O1068 2.487 . S
Nd1041 O1069 2.682 . S
Nd1041 O1070 2.410 . S
C1042 Nd1040 2.836 . S
C1042 C1043 1.498 . S
C1042 O1060 1.258 . S
C1042 O1061 1.239 . S
C1043 C1042 1.498 . S
C1043 C1044 1.366 . S
C1043 C1048 1.407 . S
C1044 C1043 1.366 . S
C1044 C1045 1.392 . S
C1044 H1072 0.930 . S
C1045 C1044 1.392 . S
C1045 C1046 1.398 . S
C1045 H1073 0.929 . S
C1046 C1045 1.398 . S
C1046 C1047 1.352 . S
C1047 C1046 1.352 . S
C1047 C1048 1.384 . S
C1047 H1074 0.930 1_545 S
C1048 C1043 1.407 . S
C1048 C1047 1.384 . S
C1048 H1075 0.929 . S
C1049 O1062 1.241 . S
C1049 O1063 1.273 . S
C1050 O1064 1.251 . S
C1050 O1065 1.268 . S
C1051 Nd1041 2.836 . S
C1051 C1052 1.498 . S
C1051 O1066 1.258 . S
C1051 O1067 1.239 . S
C1052 C1051 1.498 . S
C1052 C1053 1.366 . S
C1052 C1057 1.407 . S
C1053 C1052 1.366 . S
C1053 C1054 1.392 . S
C1053 H1076 0.930 . S
C1054 C1053 1.392 . S
C1054 C1055 1.398 . S
C1054 H1077 0.929 . S
C1055 C1054 1.398 . S
C1055 C1056 1.352 . S
C1056 C1055 1.352 . S
C1056 C1057 1.384 . S
C1056 H1078 0.930 . S
C1057 C1052 1.407 . S
C1057 C1056 1.384 . S
C1057 H1079 0.929 . S
C1058 O1068 1.241 . S
C1058 O1069 1.273 . S
C1059 O1070 1.251 . S
C1059 O1071 1.268 . S
O1060 Nd1040 2.500 . S
O1060 C1042 1.258 . S
O1061 Nd1040 2.492 . S
O1061 C1042 1.239 . S
O1062 Nd1040 2.487 . S
O1062 C1049 1.241 . S
O1063 Nd1040 2.682 . S
O1063 Nd1041 2.414 . S
O1063 C1049 1.273 . S
O1064 Nd1040 2.410 . S
O1064 C1050 1.251 . S
O1065 Nd1041 2.424 . S
O1065 C1050 1.268 . S
O1066 Nd1041 2.500 . S
O1066 C1051 1.258 . S
O1067 Nd1041 2.492 . S
O1067 C1051 1.239 . S
O1068 Nd1041 2.487 . S
O1068 C1058 1.241 . S
O1069 Nd1040 2.414 . S
O1069 Nd1041 2.682 . S
O1069 C1058 1.273 . S
O1070 Nd1041 2.410 . S
O1070 C1059 1.251 . S
O1071 Nd1040 2.424 . S
O1071 C1059 1.268 . S
H1072 C1044 0.930 . S
H1073 C1045 0.929 . S
H1074 C1047 0.930 1_565 S
H1075 C1048 0.929 . S
H1076 C1053 0.930 . S
H1077 C1054 0.929 . S
H1078 C1056 0.930 . S
H1079 C1057 0.929 . S
Nd1080 C1082 2.836 . S
Nd1080 O1100 2.500 . S
Nd1080 O1101 2.492 . S
Nd1080 O1102 2.487 . S
Nd1080 O1103 2.682 . S
Nd1080 O1104 2.410 . S
Nd1080 O1109 2.414 . S
Nd1080 O1111 2.424 . S
Nd1081 C1091 2.836 . S
Nd1081 O1103 2.414 . S
Nd1081 O1105 2.424 . S
Nd1081 O1106 2.500 . S
Nd1081 O1107 2.492 . S
Nd1081 O1108 2.487 . S
Nd1081 O1109 2.682 . S
Nd1081 O1110 2.410 . S
C1082 Nd1080 2.836 . S
C1082 C1083 1.498 . S
C1082 O1100 1.258 . S
C1082 O1101 1.239 . S
C1083 C1082 1.498 . S
C1083 C1084 1.366 . S
C1083 C1088 1.407 . S
C1084 C1083 1.366 . S
C1084 C1085 1.392 . S
C1084 H1112 0.930 . S
C1085 C1084 1.392 . S
C1085 C1086 1.398 . S
C1085 H1113 0.929 . S
C1086 C1085 1.398 . S
C1086 C1087 1.352 . S
C1087 C1086 1.352 . S
C1087 C1088 1.384 . S
C1087 H1114 0.930 . S
C1088 C1083 1.407 . S
C1088 C1087 1.384 . S
C1088 H1115 0.929 . S
C1089 O1102 1.241 . S
C1089 O1103 1.273 . S
C1090 O1104 1.251 . S
C1090 O1105 1.268 . S
C1091 Nd1081 2.836 . S
C1091 C1092 1.498 . S
C1091 O1106 1.258 . S
C1091 O1107 1.239 . S
C1092 C1091 1.498 . S
C1092 C1093 1.366 . S
C1092 C1097 1.407 1_545 S
C1093 C1092 1.366 . S
C1093 C1094 1.392 1_545 S
C1093 H1116 0.930 . S
C1094 C1093 1.392 1_565 S
C1094 C1095 1.398 . S
C1094 H1117 0.929 . S
C1095 C1094 1.398 . S
C1095 C1096 1.352 . S
C1096 C1095 1.352 . S
C1096 C1097 1.384 . S
C1096 H1118 0.930 . S
C1097 C1092 1.407 1_565 S
C1097 C1096 1.384 . S
C1097 H1119 0.929 . S
C1098 O1108 1.241 . S
C1098 O1109 1.273 . S
C1099 O1110 1.251 . S
C1099 O1111 1.268 . S
O1100 Nd1080 2.500 . S
O1100 C1082 1.258 . S
O1101 Nd1080 2.492 . S
O1101 C1082 1.239 . S
O1102 Nd1080 2.487 . S
O1102 C1089 1.241 . S
O1103 Nd1080 2.682 . S
O1103 Nd1081 2.414 . S
O1103 C1089 1.273 . S
O1104 Nd1080 2.410 . S
O1104 C1090 1.251 . S
O1105 Nd1081 2.424 . S
O1105 C1090 1.268 . S
O1106 Nd1081 2.500 . S
O1106 C1091 1.258 . S
O1107 Nd1081 2.492 . S
O1107 C1091 1.239 . S
O1108 Nd1081 2.487 . S
O1108 C1098 1.241 . S
O1109 Nd1080 2.414 . S
O1109 Nd1081 2.682 . S
O1109 C1098 1.273 . S
O1110 Nd1081 2.410 . S
O1110 C1099 1.251 . S
O1111 Nd1080 2.424 . S
O1111 C1099 1.268 . S
H1112 C1084 0.930 . S
H1113 C1085 0.929 . S
H1114 C1087 0.930 . S
H1115 C1088 0.929 . S
H1116 C1093 0.930 . S
H1117 C1094 0.929 . S
H1118 C1096 0.930 . S
H1119 C1097 0.929 . S
Nd1120 C1122 2.836 . S
Nd1120 O1140 2.500 . S
Nd1120 O1141 2.492 . S
Nd1120 O1142 2.487 . S
Nd1120 O1143 2.682 . S
Nd1120 O1144 2.410 . S
Nd1120 O1149 2.414 . S
Nd1120 O1151 2.424 . S
Nd1121 C1131 2.836 . S
Nd1121 O1143 2.414 . S
Nd1121 O1145 2.424 . S
Nd1121 O1146 2.500 . S
Nd1121 O1147 2.492 . S
Nd1121 O1148 2.487 . S
Nd1121 O1149 2.682 . S
Nd1121 O1150 2.410 . S
C1122 Nd1120 2.836 . S
C1122 C1123 1.498 . S
C1122 O1140 1.258 . S
C1122 O1141 1.239 . S
C1123 C1122 1.498 . S
C1123 C1124 1.366 . S
C1123 C1128 1.407 . S
C1124 C1123 1.366 . S
C1124 C1125 1.392 . S
C1124 H1152 0.930 . S
C1125 C1124 1.392 . S
C1125 C1126 1.398 . S
C1125 H1153 0.929 . S
C1126 C1125 1.398 . S
C1126 C1127 1.352 . S
C1127 C1126 1.352 . S
C1127 C1128 1.384 . S
C1127 H1154 0.930 . S
C1128 C1123 1.407 . S
C1128 C1127 1.384 . S
C1128 H1155 0.929 . S
C1129 O1142 1.241 . S
C1129 O1143 1.273 . S
C1130 O1144 1.251 . S
C1130 O1145 1.268 . S
C1131 Nd1121 2.836 . S
C1131 C1132 1.498 1_655 S
C1131 O1146 1.258 . S
C1131 O1147 1.239 . S
C1132 C1131 1.498 1_455 S
C1132 C1133 1.366 . S
C1132 C1137 1.407 . S
C1133 C1132 1.366 . S
C1133 C1134 1.392 . S
C1133 H1156 0.930 1_455 S
C1134 C1133 1.392 . S
C1134 C1135 1.398 . S
C1134 H1157 0.929 . S
C1135 C1134 1.398 . S
C1135 C1136 1.352 . S
C1136 C1135 1.352 . S
C1136 C1137 1.384 . S
C1136 H1158 0.930 . S
C1137 C1132 1.407 . S
C1137 C1136 1.384 . S
C1137 H1159 0.929 . S
C1138 O1148 1.241 . S
C1138 O1149 1.273 . S
C1139 O1150 1.251 . S
C1139 O1151 1.268 . S
O1140 Nd1120 2.500 . S
O1140 C1122 1.258 . S
O1141 Nd1120 2.492 . S
O1141 C1122 1.239 . S
O1142 Nd1120 2.487 . S
O1142 C1129 1.241 . S
O1143 Nd1120 2.682 . S
O1143 Nd1121 2.414 . S
O1143 C1129 1.273 . S
O1144 Nd1120 2.410 . S
O1144 C1130 1.251 . S
O1145 Nd1121 2.424 . S
O1145 C1130 1.268 . S
O1146 Nd1121 2.500 . S
O1146 C1131 1.258 . S
O1147 Nd1121 2.492 . S
O1147 C1131 1.239 . S
O1148 Nd1121 2.487 . S
O1148 C1138 1.241 . S
O1149 Nd1120 2.414 . S
O1149 Nd1121 2.682 . S
O1149 C1138 1.273 . S
O1150 Nd1121 2.410 . S
O1150 C1139 1.251 . S
O1151 Nd1120 2.424 . S
O1151 C1139 1.268 . S
H1152 C1124 0.930 . S
H1153 C1125 0.929 . S
H1154 C1127 0.930 . S
H1155 C1128 0.929 . S
H1156 C1133 0.930 1_655 S
H1157 C1134 0.929 . S
H1158 C1136 0.930 . S
H1159 C1137 0.929 . S
Nd1160 C1162 2.836 . S
Nd1160 O1180 2.500 . S
Nd1160 O1181 2.492 . S
Nd1160 O1182 2.487 . S
Nd1160 O1183 2.682 . S
Nd1160 O1184 2.410 . S
Nd1160 O1189 2.414 . S
Nd1160 O1191 2.424 . S
Nd1161 C1171 2.836 . S
Nd1161 O1183 2.414 . S
Nd1161 O1185 2.424 . S
Nd1161 O1186 2.500 . S
Nd1161 O1187 2.492 . S
Nd1161 O1188 2.487 . S
Nd1161 O1189 2.682 . S
Nd1161 O1190 2.410 . S
C1162 Nd1160 2.836 . S
C1162 C1163 1.498 . S
C1162 O1180 1.258 . S
C1162 O1181 1.239 . S
C1163 C1162 1.498 . S
C1163 C1164 1.366 . S
C1163 C1168 1.407 . S
C1164 C1163 1.366 . S
C1164 C1165 1.392 . S
C1164 H1192 0.930 . S
C1165 C1164 1.392 . S
C1165 C1166 1.398 . S
C1165 H1193 0.929 . S
C1166 C1165 1.398 . S
C1166 C1167 1.352 . S
C1167 C1166 1.352 . S
C1167 C1168 1.384 . S
C1167 H1194 0.930 . S
C1168 C1163 1.407 . S
C1168 C1167 1.384 . S
C1168 H1195 0.929 . S
C1169 O1182 1.241 . S
C1169 O1183 1.273 . S
C1170 O1184 1.251 . S
C1170 O1185 1.268 . S
C1171 Nd1161 2.836 . S
C1171 C1172 1.498 . S
C1171 O1186 1.258 . S
C1171 O1187 1.239 . S
C1172 C1171 1.498 . S
C1172 C1173 1.366 . S
C1172 C1177 1.407 . S
C1173 C1172 1.366 . S
C1173 C1174 1.392 . S
C1173 H1196 0.930 . S
C1174 C1173 1.392 . S
C1174 C1175 1.398 . S
C1174 H1197 0.929 . S
C1175 C1174 1.398 . S
C1175 C1176 1.352 . S
C1176 C1175 1.352 . S
C1176 C1177 1.384 . S
C1176 H1198 0.930 . S
C1177 C1172 1.407 . S
C1177 C1176 1.384 . S
C1177 H1199 0.929 . S
C1178 O1188 1.241 . S
C1178 O1189 1.273 . S
C1179 O1190 1.251 . S
C1179 O1191 1.268 . S
O1180 Nd1160 2.500 . S
O1180 C1162 1.258 . S
O1181 Nd1160 2.492 . S
O1181 C1162 1.239 . S
O1182 Nd1160 2.487 . S
O1182 C1169 1.241 . S
O1183 Nd1160 2.682 . S
O1183 Nd1161 2.414 . S
O1183 C1169 1.273 . S
O1184 Nd1160 2.410 . S
O1184 C1170 1.251 . S
O1185 Nd1161 2.424 . S
O1185 C1170 1.268 . S
O1186 Nd1161 2.500 . S
O1186 C1171 1.258 . S
O1187 Nd1161 2.492 . S
O1187 C1171 1.239 . S
O1188 Nd1161 2.487 . S
O1188 C1178 1.241 . S
O1189 Nd1160 2.414 . S
O1189 Nd1161 2.682 . S
O1189 C1178 1.273 . S
O1190 Nd1161 2.410 . S
O1190 C1179 1.251 . S
O1191 Nd1160 2.424 . S
O1191 C1179 1.268 . S
H1192 C1164 0.930 . S
H1193 C1165 0.929 . S
H1194 C1167 0.930 . S
H1195 C1168 0.929 . S
H1196 C1173 0.930 . S
H1197 C1174 0.929 . S
H1198 C1176 0.930 . S
H1199 C1177 0.929 . S
Nd1200 C1202 2.836 . S
Nd1200 O1220 2.500 . S
Nd1200 O1221 2.492 . S
Nd1200 O1222 2.487 . S
Nd1200 O1223 2.682 . S
Nd1200 O1224 2.410 . S
Nd1200 O1229 2.414 . S
Nd1200 O1231 2.424 . S
Nd1201 C1211 2.836 . S
Nd1201 O1223 2.414 . S
Nd1201 O1225 2.424 . S
Nd1201 O1226 2.500 . S
Nd1201 O1227 2.492 . S
Nd1201 O1228 2.487 . S
Nd1201 O1229 2.682 . S
Nd1201 O1230 2.410 . S
C1202 Nd1200 2.836 . S
C1202 C1203 1.498 1_655 S
C1202 O1220 1.258 . S
C1202 O1221 1.239 . S
C1203 C1202 1.498 1_455 S
C1203 C1204 1.366 . S
C1203 C1208 1.407 . S
C1204 C1203 1.366 . S
C1204 C1205 1.392 . S
C1204 H1232 0.930 1_455 S
C1205 C1204 1.392 . S
C1205 C1206 1.398 . S
C1205 H1233 0.929 . S
C1206 C1205 1.398 . S
C1206 C1207 1.352 . S
C1207 C1206 1.352 . S
C1207 C1208 1.384 . S
C1207 H1234 0.930 . S
C1208 C1203 1.407 . S
C1208 C1207 1.384 . S
C1208 H1235 0.929 . S
C1209 O1222 1.241 . S
C1209 O1223 1.273 . S
C1210 O1224 1.251 . S
C1210 O1225 1.268 . S
C1211 Nd1201 2.836 . S
C1211 C1212 1.498 . S
C1211 O1226 1.258 . S
C1211 O1227 1.239 . S
C1212 C1211 1.498 . S
C1212 C1213 1.366 . S
C1212 C1217 1.407 . S
C1213 C1212 1.366 . S
C1213 C1214 1.392 . S
C1213 H1236 0.930 . S
C1214 C1213 1.392 . S
C1214 C1215 1.398 . S
C1214 H1237 0.929 . S
C1215 C1214 1.398 . S
C1215 C1216 1.352 . S
C1216 C1215 1.352 . S
C1216 C1217 1.384 . S
C1216 H1238 0.930 . S
C1217 C1212 1.407 . S
C1217 C1216 1.384 . S
C1217 H1239 0.929 . S
C1218 O1228 1.241 . S
C1218 O1229 1.273 . S
C1219 O1230 1.251 . S
C1219 O1231 1.268 . S
O1220 Nd1200 2.500 . S
O1220 C1202 1.258 . S
O1221 Nd1200 2.492 . S
O1221 C1202 1.239 . S
O1222 Nd1200 2.487 . S
O1222 C1209 1.241 . S
O1223 Nd1200 2.682 . S
O1223 Nd1201 2.414 . S
O1223 C1209 1.273 . S
O1224 Nd1200 2.410 . S
O1224 C1210 1.251 . S
O1225 Nd1201 2.424 . S
O1225 C1210 1.268 . S
O1226 Nd1201 2.500 . S
O1226 C1211 1.258 . S
O1227 Nd1201 2.492 . S
O1227 C1211 1.239 . S
O1228 Nd1201 2.487 . S
O1228 C1218 1.241 . S
O1229 Nd1200 2.414 . S
O1229 Nd1201 2.682 . S
O1229 C1218 1.273 . S
O1230 Nd1201 2.410 . S
O1230 C1219 1.251 . S
O1231 Nd1200 2.424 . S
O1231 C1219 1.268 . S
H1232 C1204 0.930 1_655 S
H1233 C1205 0.929 . S
H1234 C1207 0.930 . S
H1235 C1208 0.929 . S
H1236 C1213 0.930 . S
H1237 C1214 0.929 . S
H1238 C1216 0.930 . S
H1239 C1217 0.929 . S
Nd1240 C1242 2.836 . S
Nd1240 O1260 2.500 . S
Nd1240 O1261 2.492 . S
Nd1240 O1262 2.487 . S
Nd1240 O1263 2.682 . S
Nd1240 O1264 2.410 . S
Nd1240 O1269 2.414 . S
Nd1240 O1271 2.424 . S
Nd1241 C1251 2.836 . S
Nd1241 O1263 2.414 . S
Nd1241 O1265 2.424 . S
Nd1241 O1266 2.500 . S
Nd1241 O1267 2.492 . S
Nd1241 O1268 2.487 . S
Nd1241 O1269 2.682 . S
Nd1241 O1270 2.410 . S
C1242 Nd1240 2.836 . S
C1242 C1243 1.498 . S
C1242 O1260 1.258 . S
C1242 O1261 1.239 . S
C1243 C1242 1.498 . S
C1243 C1244 1.366 . S
C1243 C1248 1.407 . S
C1244 C1243 1.366 . S
C1244 C1245 1.392 . S
C1244 H1272 0.930 . S
C1245 C1244 1.392 . S
C1245 C1246 1.398 . S
C1245 H1273 0.929 . S
C1246 C1245 1.398 . S
C1246 C1247 1.352 . S
C1247 C1246 1.352 . S
C1247 C1248 1.384 . S
C1247 H1274 0.930 . S
C1248 C1243 1.407 . S
C1248 C1247 1.384 . S
C1248 H1275 0.929 . S
C1249 O1262 1.241 . S
C1249 O1263 1.273 . S
C1250 O1264 1.251 . S
C1250 O1265 1.268 . S
C1251 Nd1241 2.836 . S
C1251 C1252 1.498 . S
C1251 O1266 1.258 . S
C1251 O1267 1.239 . S
C1252 C1251 1.498 . S
C1252 C1253 1.366 . S
C1252 C1257 1.407 . S
C1253 C1252 1.366 . S
C1253 C1254 1.392 . S
C1253 H1276 0.930 . S
C1254 C1253 1.392 . S
C1254 C1255 1.398 . S
C1254 H1277 0.929 . S
C1255 C1254 1.398 . S
C1255 C1256 1.352 . S
C1256 C1255 1.352 . S
C1256 C1257 1.384 . S
C1256 H1278 0.930 . S
C1257 C1252 1.407 . S
C1257 C1256 1.384 . S
C1257 H1279 0.929 . S
C1258 O1268 1.241 . S
C1258 O1269 1.273 . S
C1259 O1270 1.251 . S
C1259 O1271 1.268 . S
O1260 Nd1240 2.500 . S
O1260 C1242 1.258 . S
O1261 Nd1240 2.492 . S
O1261 C1242 1.239 . S
O1262 Nd1240 2.487 . S
O1262 C1249 1.241 . S
O1263 Nd1240 2.682 . S
O1263 Nd1241 2.414 . S
O1263 C1249 1.273 . S
O1264 Nd1240 2.410 . S
O1264 C1250 1.251 . S
O1265 Nd1241 2.424 . S
O1265 C1250 1.268 . S
O1266 Nd1241 2.500 . S
O1266 C1251 1.258 . S
O1267 Nd1241 2.492 . S
O1267 C1251 1.239 . S
O1268 Nd1241 2.487 . S
O1268 C1258 1.241 . S
O1269 Nd1240 2.414 . S
O1269 Nd1241 2.682 . S
O1269 C1258 1.273 . S
O1270 Nd1241 2.410 . S
O1270 C1259 1.251 . S
O1271 Nd1240 2.424 . S
O1271 C1259 1.268 . S
H1272 C1244 0.930 . S
H1273 C1245 0.929 . S
H1274 C1247 0.930 . S
H1275 C1248 0.929 . S
H1276 C1253 0.930 . S
H1277 C1254 0.929 . S
H1278 C1256 0.930 . S
H1279 C1257 0.929 . S
Nd1280 C1282 2.836 . S
Nd1280 O1300 2.500 . S
Nd1280 O1301 2.492 . S
Nd1280 O1302 2.487 . S
Nd1280 O1303 2.682 . S
Nd1280 O1304 2.410 . S
Nd1280 O1309 2.414 . S
Nd1280 O1311 2.424 . S
Nd1281 C1291 2.836 . S
Nd1281 O1303 2.414 . S
Nd1281 O1305 2.424 . S
Nd1281 O1306 2.500 . S
Nd1281 O1307 2.492 . S
Nd1281 O1308 2.487 . S
Nd1281 O1309 2.682 . S
Nd1281 O1310 2.410 . S
C1282 Nd1280 2.836 . S
C1282 C1283 1.498 . S
C1282 O1300 1.258 . S
C1282 O1301 1.239 . S
C1283 C1282 1.498 . S
C1283 C1284 1.366 . S
C1283 C1288 1.407 1_545 S
C1284 C1283 1.366 . S
C1284 C1285 1.392 1_545 S
C1284 H1312 0.930 . S
C1285 C1284 1.392 1_565 S
C1285 C1286 1.398 . S
C1285 H1313 0.929 . S
C1286 C1285 1.398 . S
C1286 C1287 1.352 . S
C1287 C1286 1.352 . S
C1287 C1288 1.384 . S
C1287 H1314 0.930 . S
C1288 C1283 1.407 1_565 S
C1288 C1287 1.384 . S
C1288 H1315 0.929 . S
C1289 O1302 1.241 . S
C1289 O1303 1.273 . S
C1290 O1304 1.251 . S
C1290 O1305 1.268 . S
C1291 Nd1281 2.836 . S
C1291 C1292 1.498 . S
C1291 O1306 1.258 . S
C1291 O1307 1.239 . S
C1292 C1291 1.498 . S
C1292 C1293 1.366 . S
C1292 C1297 1.407 . S
C1293 C1292 1.366 . S
C1293 C1294 1.392 . S
C1293 H1316 0.930 . S
C1294 C1293 1.392 . S
C1294 C1295 1.398 . S
C1294 H1317 0.929 . S
C1295 C1294 1.398 . S
C1295 C1296 1.352 . S
C1296 C1295 1.352 . S
C1296 C1297 1.384 . S
C1296 H1318 0.930 . S
C1297 C1292 1.407 . S
C1297 C1296 1.384 . S
C1297 H1319 0.929 . S
C1298 O1308 1.241 . S
C1298 O1309 1.273 . S
C1299 O1310 1.251 . S
C1299 O1311 1.268 . S
O1300 Nd1280 2.500 . S
O1300 C1282 1.258 . S
O1301 Nd1280 2.492 . S
O1301 C1282 1.239 . S
O1302 Nd1280 2.487 . S
O1302 C1289 1.241 . S
O1303 Nd1280 2.682 . S
O1303 Nd1281 2.414 . S
O1303 C1289 1.273 . S
O1304 Nd1280 2.410 . S
O1304 C1290 1.251 . S
O1305 Nd1281 2.424 . S
O1305 C1290 1.268 . S
O1306 Nd1281 2.500 . S
O1306 C1291 1.258 . S
O1307 Nd1281 2.492 . S
O1307 C1291 1.239 . S
O1308 Nd1281 2.487 . S
O1308 C1298 1.241 . S
O1309 Nd1280 2.414 . S
O1309 Nd1281 2.682 . S
O1309 C1298 1.273 . S
O1310 Nd1281 2.410 . S
O1310 C1299 1.251 . S
O1311 Nd1280 2.424 . S
O1311 C1299 1.268 . S
H1312 C1284 0.930 . S
H1313 C1285 0.929 . S
H1314 C1287 0.930 . S
H1315 C1288 0.929 . S
H1316 C1293 0.930 . S
H1317 C1294 0.929 . S
H1318 C1296 0.930 . S
H1319 C1297 0.929 . S
Nd1320 C1322 2.836 . S
Nd1320 O1340 2.500 . S
Nd1320 O1341 2.492 . S
Nd1320 O1342 2.487 . S
Nd1320 O1343 2.682 . S
Nd1320 O1344 2.410 . S
Nd1320 O1349 2.414 . S
Nd1320 O1351 2.424 . S
Nd1321 C1331 2.836 . S
Nd1321 O1343 2.414 . S
Nd1321 O1345 2.424 . S
Nd1321 O1346 2.500 . S
Nd1321 O1347 2.492 . S
Nd1321 O1348 2.487 . S
Nd1321 O1349 2.682 . S
Nd1321 O1350 2.410 . S
C1322 Nd1320 2.836 . S
C1322 C1323 1.498 . S
C1322 O1340 1.258 . S
C1322 O1341 1.239 . S
C1323 C1322 1.498 . S
C1323 C1324 1.366 . S
C1323 C1328 1.407 . S
C1324 C1323 1.366 . S
C1324 C1325 1.392 . S
C1324 H1352 0.930 . S
C1325 C1324 1.392 . S
C1325 C1326 1.398 . S
C1325 H1353 0.929 . S
C1326 C1325 1.398 . S
C1326 C1327 1.352 . S
C1327 C1326 1.352 . S
C1327 C1328 1.384 . S
C1327 H1354 0.930 . S
C1328 C1323 1.407 . S
C1328 C1327 1.384 . S
C1328 H1355 0.929 . S
C1329 O1342 1.241 . S
C1329 O1343 1.273 . S
C1330 O1344 1.251 . S
C1330 O1345 1.268 . S
C1331 Nd1321 2.836 . S
C1331 C1332 1.498 . S
C1331 O1346 1.258 . S
C1331 O1347 1.239 . S
C1332 C1331 1.498 . S
C1332 C1333 1.366 . S
C1332 C1337 1.407 . S
C1333 C1332 1.366 . S
C1333 C1334 1.392 . S
C1333 H1356 0.930 . S
C1334 C1333 1.392 . S
C1334 C1335 1.398 . S
C1334 H1357 0.929 . S
C1335 C1334 1.398 . S
C1335 C1336 1.352 . S
C1336 C1335 1.352 . S
C1336 C1337 1.384 . S
C1336 H1358 0.930 1_545 S
C1337 C1332 1.407 . S
C1337 C1336 1.384 . S
C1337 H1359 0.929 . S
C1338 O1348 1.241 . S
C1338 O1349 1.273 . S
C1339 O1350 1.251 . S
C1339 O1351 1.268 . S
O1340 Nd1320 2.500 . S
O1340 C1322 1.258 . S
O1341 Nd1320 2.492 . S
O1341 C1322 1.239 . S
O1342 Nd1320 2.487 . S
O1342 C1329 1.241 . S
O1343 Nd1320 2.682 . S
O1343 Nd1321 2.414 . S
O1343 C1329 1.273 . S
O1344 Nd1320 2.410 . S
O1344 C1330 1.251 . S
O1345 Nd1321 2.424 . S
O1345 C1330 1.268 . S
O1346 Nd1321 2.500 . S
O1346 C1331 1.258 . S
O1347 Nd1321 2.492 . S
O1347 C1331 1.239 . S
O1348 Nd1321 2.487 . S
O1348 C1338 1.241 . S
O1349 Nd1320 2.414 . S
O1349 Nd1321 2.682 . S
O1349 C1338 1.273 . S
O1350 Nd1321 2.410 . S
O1350 C1339 1.251 . S
O1351 Nd1320 2.424 . S
O1351 C1339 1.268 . S
H1352 C1324 0.930 . S
H1353 C1325 0.929 . S
H1354 C1327 0.930 . S
H1355 C1328 0.929 . S
H1356 C1333 0.930 . S
H1357 C1334 0.929 . S
H1358 C1336 0.930 1_565 S
H1359 C1337 0.929 . S
Nd1360 C1362 2.836 . S
Nd1360 O1380 2.500 . S
Nd1360 O1381 2.492 . S
Nd1360 O1382 2.487 . S
Nd1360 O1383 2.682 . S
Nd1360 O1384 2.410 . S
Nd1360 O1389 2.414 . S
Nd1360 O1391 2.424 . S
Nd1361 C1371 2.836 . S
Nd1361 O1383 2.414 . S
Nd1361 O1385 2.424 . S
Nd1361 O1386 2.500 . S
Nd1361 O1387 2.492 . S
Nd1361 O1388 2.487 . S
Nd1361 O1389 2.682 . S
Nd1361 O1390 2.410 . S
C1362 Nd1360 2.836 . S
C1362 C1363 1.498 . S
C1362 O1380 1.258 . S
C1362 O1381 1.239 . S
C1363 C1362 1.498 . S
C1363 C1364 1.366 . S
C1363 C1368 1.407 . S
C1364 C1363 1.366 . S
C1364 C1365 1.392 . S
C1364 H1392 0.930 . S
C1365 C1364 1.392 . S
C1365 C1366 1.398 . S
C1365 H1393 0.929 . S
C1366 C1365 1.398 . S
C1366 C1367 1.352 . S
C1367 C1366 1.352 . S
C1367 C1368 1.384 . S
C1367 H1394 0.930 . S
C1368 C1363 1.407 . S
C1368 C1367 1.384 . S
C1368 H1395 0.929 . S
C1369 O1382 1.241 . S
C1369 O1383 1.273 . S
C1370 O1384 1.251 . S
C1370 O1385 1.268 . S
C1371 Nd1361 2.836 . S
C1371 C1372 1.498 . S
C1371 O1386 1.258 . S
C1371 O1387 1.239 . S
C1372 C1371 1.498 . S
C1372 C1373 1.366 . S
C1372 C1377 1.405 1_655 S
C1373 C1372 1.366 . S
C1373 C1374 1.392 . S
C1373 H1396 0.930 . S
C1374 C1373 1.392 . S
C1374 C1375 1.398 1_655 S
C1374 H1397 0.929 . S
C1375 C1374 1.398 1_455 S
C1375 C1376 1.352 . S
C1376 C1375 1.352 . S
C1376 C1377 1.388 . S
C1376 H1398 0.930 . S
C1377 C1372 1.405 1_455 S
C1377 C1376 1.388 . S
C1377 H1399 0.934 . S
C1378 O1388 1.241 . S
C1378 O1389 1.273 . S
C1379 O1390 1.251 . S
C1379 O1391 1.268 . S
O1380 Nd1360 2.500 . S
O1380 C1362 1.258 . S
O1381 Nd1360 2.492 . S
O1381 C1362 1.239 . S
O1382 Nd1360 2.487 . S
O1382 C1369 1.241 . S
O1383 Nd1360 2.682 . S
O1383 Nd1361 2.414 . S
O1383 C1369 1.273 . S
O1384 Nd1360 2.410 . S
O1384 C1370 1.251 . S
O1385 Nd1361 2.424 . S
O1385 C1370 1.268 . S
O1386 Nd1361 2.500 . S
O1386 C1371 1.258 . S
O1387 Nd1361 2.492 . S
O1387 C1371 1.239 . S
O1388 Nd1361 2.487 . S
O1388 C1378 1.241 . S
O1389 Nd1360 2.414 . S
O1389 Nd1361 2.682 . S
O1389 C1378 1.273 . S
O1390 Nd1361 2.410 . S
O1390 C1379 1.251 . S
O1391 Nd1360 2.424 . S
O1391 C1379 1.268 . S
H1392 C1364 0.930 . S
H1393 C1365 0.929 . S
H1394 C1367 0.930 . S
H1395 C1368 0.929 . S
H1396 C1373 0.930 . S
H1397 C1374 0.929 . S
H1398 C1376 0.930 . S
H1399 C1377 0.934 . S
Nd1400 C1402 2.836 . S
Nd1400 O1420 2.500 . S
Nd1400 O1421 2.492 . S
Nd1400 O1422 2.487 . S
Nd1400 O1423 2.682 . S
Nd1400 O1424 2.410 . S
Nd1400 O1429 2.414 . S
Nd1400 O1431 2.424 . S
Nd1401 C1411 2.836 . S
Nd1401 O1423 2.414 . S
Nd1401 O1425 2.424 . S
Nd1401 O1426 2.500 . S
Nd1401 O1427 2.492 . S
Nd1401 O1428 2.487 . S
Nd1401 O1429 2.682 . S
Nd1401 O1430 2.410 . S
C1402 Nd1400 2.836 . S
C1402 C1403 1.498 . S
C1402 O1420 1.258 . S
C1402 O1421 1.239 . S
C1403 C1402 1.498 . S
C1403 C1404 1.366 . S
C1403 C1408 1.407 . S
C1404 C1403 1.366 . S
C1404 C1405 1.392 . S
C1404 H1432 0.930 . S
C1405 C1404 1.392 . S
C1405 C1406 1.398 . S
C1405 H1433 0.929 . S
C1406 C1405 1.398 . S
C1406 C1407 1.352 . S
C1407 C1406 1.352 . S
C1407 C1408 1.384 . S
C1407 H1434 0.930 . S
C1408 C1403 1.407 . S
C1408 C1407 1.384 . S
C1408 H1435 0.929 . S
C1409 O1422 1.241 . S
C1409 O1423 1.273 . S
C1410 O1424 1.251 . S
C1410 O1425 1.268 . S
C1411 Nd1401 2.836 . S
C1411 C1412 1.498 . S
C1411 O1426 1.258 . S
C1411 O1427 1.239 . S
C1412 C1411 1.498 . S
C1412 C1413 1.366 . S
C1412 C1417 1.407 . S
C1413 C1412 1.366 . S
C1413 C1414 1.392 . S
C1413 H1436 0.930 . S
C1414 C1413 1.392 . S
C1414 C1415 1.398 . S
C1414 H1437 0.929 . S
C1415 C1414 1.398 . S
C1415 C1416 1.352 . S
C1416 C1415 1.352 . S
C1416 C1417 1.384 . S
C1416 H1438 0.930 . S
C1417 C1412 1.407 . S
C1417 C1416 1.384 . S
C1417 H1439 0.929 . S
C1418 O1428 1.241 . S
C1418 O1429 1.273 . S
C1419 O1430 1.251 . S
C1419 O1431 1.268 . S
O1420 Nd1400 2.500 . S
O1420 C1402 1.258 . S
O1421 Nd1400 2.492 . S
O1421 C1402 1.239 . S
O1422 Nd1400 2.487 . S
O1422 C1409 1.241 . S
O1423 Nd1400 2.682 . S
O1423 Nd1401 2.414 . S
O1423 C1409 1.273 . S
O1424 Nd1400 2.410 . S
O1424 C1410 1.251 . S
O1425 Nd1401 2.424 . S
O1425 C1410 1.268 . S
O1426 Nd1401 2.500 . S
O1426 C1411 1.258 . S
O1427 Nd1401 2.492 . S
O1427 C1411 1.239 . S
O1428 Nd1401 2.487 . S
O1428 C1418 1.241 . S
O1429 Nd1400 2.414 . S
O1429 Nd1401 2.682 . S
O1429 C1418 1.273 . S
O1430 Nd1401 2.410 . S
O1430 C1419 1.251 . S
O1431 Nd1400 2.424 . S
O1431 C1419 1.268 . S
H1432 C1404 0.930 . S
H1433 C1405 0.929 . S
H1434 C1407 0.930 . S
H1435 C1408 0.929 . S
H1436 C1413 0.930 . S
H1437 C1414 0.929 . S
H1438 C1416 0.930 . S
H1439 C1417 0.929 . S
C1440 C1441 1.391 . S
C1440 C1442 1.394 . S
C1440 H1456 0.931 . S
C1441 C1440 1.391 . S
C1441 C1445 1.376 . S
C1442 C1440 1.394 . S
C1442 C1443 1.369 . S
C1442 C1446 1.531 . S
C1443 C1442 1.369 . S
C1443 C1444 1.410 . S
C1443 C1451 1.503 . S
C1444 C1443 1.410 . S
C1444 C1445 1.392 . S
C1444 C1447 1.511 . S
C1445 C1441 1.376 . S
C1445 C1444 1.392 . S
C1445 H1457 0.929 . S
C1446 C1442 1.531 . S
C1446 H1458 0.960 . S
C1446 H1459 0.962 . S
C1446 H1460 0.960 . S
C1447 C1444 1.511 . S
C1447 H1461 0.961 . S
C1447 H1462 0.961 . S
C1447 H1463 0.961 . S
C1448 C1449 1.370 . S
C1448 C1450 1.363 . S
C1448 H1464 0.931 . S
C1449 C1448 1.370 . S
C1449 C1453 1.408 . S
C1450 C1448 1.363 . S
C1450 C1451 1.370 . S
C1450 C1454 1.524 . S
C1451 C1443 1.503 . S
C1451 C1450 1.370 . S
C1451 C1452 1.403 . S
C1452 C1451 1.403 . S
C1452 C1453 1.404 . S
C1452 C1455 1.539 . S
C1453 C1449 1.408 . S
C1453 C1452 1.404 . S
C1453 H1465 0.930 . S
C1454 C1450 1.524 . S
C1454 H1466 0.956 . S
C1454 H1467 0.961 . S
C1454 H1468 0.961 . S
C1455 C1452 1.539 . S
C1455 H1469 0.958 . S
C1455 H1470 0.961 . S
C1455 H1471 0.960 . S
H1456 C1440 0.931 . S
H1457 C1445 0.929 . S
H1458 C1446 0.960 . S
H1459 C1446 0.962 . S
H1460 C1446 0.960 . S
H1461 C1447 0.961 . S
H1462 C1447 0.961 . S
H1463 C1447 0.961 . S
H1464 C1448 0.931 . S
H1465 C1453 0.930 . S
H1466 C1454 0.956 . S
H1467 C1454 0.961 . S
H1468 C1454 0.961 . S
H1469 C1455 0.958 . S
H1470 C1455 0.961 . S
H1471 C1455 0.960 . S
C1472 C1473 1.391 . S
C1472 C1474 1.394 . S
C1472 H1488 0.931 . S
C1473 C1472 1.391 . S
C1473 C1477 1.376 . S
C1474 C1472 1.394 . S
C1474 C1475 1.369 . S
C1474 C1478 1.531 . S
C1475 C1474 1.369 . S
C1475 C1476 1.410 . S
C1475 C1483 1.503 . S
C1476 C1475 1.410 . S
C1476 C1477 1.392 . S
C1476 C1479 1.511 . S
C1477 C1473 1.376 . S
C1477 C1476 1.392 . S
C1477 H1489 0.929 . S
C1478 C1474 1.531 . S
C1478 H1490 0.960 . S
C1478 H1491 0.962 . S
C1478 H1492 0.960 . S
C1479 C1476 1.511 . S
C1479 H1493 0.961 . S
C1479 H1494 0.961 . S
C1479 H1495 0.961 . S
C1480 C1481 1.370 . S
C1480 C1482 1.363 . S
C1480 H1496 0.931 . S
C1481 C1480 1.370 . S
C1481 C1485 1.408 . S
C1482 C1480 1.363 . S
C1482 C1483 1.370 . S
C1482 C1486 1.524 . S
C1483 C1475 1.503 . S
C1483 C1482 1.370 . S
C1483 C1484 1.403 . S
C1484 C1483 1.403 . S
C1484 C1485 1.404 . S
C1484 C1487 1.539 1_655 S
C1485 C1481 1.408 . S
C1485 C1484 1.404 . S
C1485 H1497 0.930 1_655 S
C1486 C1482 1.524 . S
C1486 H1498 0.956 . S
C1486 H1499 0.961 . S
C1486 H1500 0.961 . S
C1487 C1484 1.539 1_455 S
C1487 H1501 0.958 . S
C1487 H1502 0.961 . S
C1487 H1503 0.960 . S
H1488 C1472 0.931 . S
H1489 C1477 0.929 . S
H1490 C1478 0.960 . S
H1491 C1478 0.962 . S
H1492 C1478 0.960 . S
H1493 C1479 0.961 . S
H1494 C1479 0.961 . S
H1495 C1479 0.961 . S
H1496 C1480 0.931 . S
H1497 C1485 0.930 1_455 S
H1498 C1486 0.956 . S
H1499 C1486 0.961 . S
H1500 C1486 0.961 . S
H1501 C1487 0.958 . S
H1502 C1487 0.961 . S
H1503 C1487 0.960 . S
C1504 C1505 1.391 . S
C1504 C1506 1.394 . S
C1504 H1520 0.931 . S
C1505 C1504 1.391 . S
C1505 C1509 1.376 . S
C1506 C1504 1.394 . S
C1506 C1507 1.369 . S
C1506 C1510 1.531 . S
C1507 C1506 1.369 . S
C1507 C1508 1.410 . S
C1507 C1515 1.503 . S
C1508 C1507 1.410 . S
C1508 C1509 1.392 . S
C1508 C1511 1.511 . S
C1509 C1505 1.376 . S
C1509 C1508 1.392 . S
C1509 H1521 0.929 . S
C1510 C1506 1.531 . S
C1510 H1522 0.960 . S
C1510 H1523 0.962 . S
C1510 H1524 0.960 . S
C1511 C1508 1.511 . S
C1511 H1525 0.961 . S
C1511 H1526 0.961 . S
C1511 H1527 0.961 . S
C1512 C1513 1.370 . S
C1512 C1514 1.363 . S
C1512 H1528 0.931 . S
C1513 C1512 1.370 . S
C1513 C1517 1.408 . S
C1514 C1512 1.363 . S
C1514 C1515 1.370 . S
C1514 C1518 1.524 . S
C1515 C1507 1.503 . S
C1515 C1514 1.370 . S
C1515 C1516 1.403 . S
C1516 C1515 1.403 . S
C1516 C1517 1.404 . S
C1516 C1519 1.539 . S
C1517 C1513 1.408 . S
C1517 C1516 1.404 . S
C1517 H1529 0.930 . S
C1518 C1514 1.524 . S
C1518 H1530 0.956 . S
C1518 H1531 0.961 . S
C1518 H1532 0.961 . S
C1519 C1516 1.539 . S
C1519 H1533 0.958 . S
C1519 H1534 0.961 . S
C1519 H1535 0.960 . S
H1520 C1504 0.931 . S
H1521 C1509 0.929 . S
H1522 C1510 0.960 . S
H1523 C1510 0.962 . S
H1524 C1510 0.960 . S
H1525 C1511 0.961 . S
H1526 C1511 0.961 . S
H1527 C1511 0.961 . S
H1528 C1512 0.931 . S
H1529 C1517 0.930 . S
H1530 C1518 0.956 . S
H1531 C1518 0.961 . S
H1532 C1518 0.961 . S
H1533 C1519 0.958 . S
H1534 C1519 0.961 . S
H1535 C1519 0.960 . S
C1536 C1537 1.391 . S
C1536 C1538 1.394 . S
C1536 H1552 0.931 . S
C1537 C1536 1.391 . S
C1537 C1541 1.376 . S
C1538 C1536 1.394 . S
C1538 C1539 1.369 . S
C1538 C1542 1.531 . S
C1539 C1538 1.369 . S
C1539 C1540 1.410 . S
C1539 C1547 1.503 . S
C1540 C1539 1.410 . S
C1540 C1541 1.392 . S
C1540 C1543 1.511 . S
C1541 C1537 1.376 . S
C1541 C1540 1.392 . S
C1541 H1553 0.929 . S
C1542 C1538 1.531 . S
C1542 H1554 0.960 . S
C1542 H1555 0.962 . S
C1542 H1556 0.960 . S
C1543 C1540 1.511 . S
C1543 H1557 0.961 . S
C1543 H1558 0.961 . S
C1543 H1559 0.961 . S
C1544 C1545 1.370 . S
C1544 C1546 1.363 . S
C1544 H1560 0.931 . S
C1545 C1544 1.370 . S
C1545 C1549 1.408 . S
C1546 C1544 1.363 . S
C1546 C1547 1.370 . S
C1546 C1550 1.524 . S
C1547 C1539 1.503 . S
C1547 C1546 1.370 . S
C1547 C1548 1.403 . S
C1548 C1547 1.403 . S
C1548 C1549 1.404 . S
C1548 C1551 1.539 . S
C1549 C1545 1.408 . S
C1549 C1548 1.404 . S
C1549 H1561 0.930 . S
C1550 C1546 1.524 . S
C1550 H1562 0.956 . S
C1550 H1563 0.961 . S
C1550 H1564 0.961 . S
C1551 C1548 1.539 . S
C1551 H1565 0.958 . S
C1551 H1566 0.961 . S
C1551 H1567 0.960 . S
H1552 C1536 0.931 . S
H1553 C1541 0.929 . S
H1554 C1542 0.960 . S
H1555 C1542 0.962 . S
H1556 C1542 0.960 . S
H1557 C1543 0.961 . S
H1558 C1543 0.961 . S
H1559 C1543 0.961 . S
H1560 C1544 0.931 . S
H1561 C1549 0.930 . S
H1562 C1550 0.956 . S
H1563 C1550 0.961 . S
H1564 C1550 0.961 . S
H1565 C1551 0.958 . S
H1566 C1551 0.961 . S
H1567 C1551 0.960 . S
C1568 C1569 1.391 . S
C1568 C1570 1.394 . S
C1568 H1584 0.931 . S
C1569 C1568 1.391 . S
C1569 C1573 1.376 . S
C1570 C1568 1.394 . S
C1570 C1571 1.369 . S
C1570 C1574 1.531 . S
C1571 C1570 1.369 . S
C1571 C1572 1.410 . S
C1571 C1579 1.503 . S
C1572 C1571 1.410 . S
C1572 C1573 1.392 . S
C1572 C1575 1.511 . S
C1573 C1569 1.376 . S
C1573 C1572 1.392 . S
C1573 H1585 0.929 . S
C1574 C1570 1.531 . S
C1574 H1586 0.960 . S
C1574 H1587 0.962 . S
C1574 H1588 0.960 . S
C1575 C1572 1.511 . S
C1575 H1589 0.961 . S
C1575 H1590 0.961 . S
C1575 H1591 0.961 . S
C1576 C1577 1.370 . S
C1576 C1578 1.363 . S
C1576 H1592 0.931 . S
C1577 C1576 1.370 . S
C1577 C1581 1.408 . S
C1578 C1576 1.363 . S
C1578 C1579 1.370 . S
C1578 C1582 1.524 . S
C1579 C1571 1.503 . S
C1579 C1578 1.370 . S
C1579 C1580 1.403 . S
C1580 C1579 1.403 . S
C1580 C1581 1.404 . S
C1580 C1583 1.539 . S
C1581 C1577 1.408 . S
C1581 C1580 1.404 . S
C1581 H1593 0.930 . S
C1582 C1578 1.524 . S
C1582 H1594 0.956 . S
C1582 H1595 0.961 . S
C1582 H1596 0.961 . S
C1583 C1580 1.539 . S
C1583 H1597 0.958 . S
C1583 H1598 0.961 . S
C1583 H1599 0.960 . S
H1584 C1568 0.931 . S
H1585 C1573 0.929 . S
H1586 C1574 0.960 . S
H1587 C1574 0.962 . S
H1588 C1574 0.960 . S
H1589 C1575 0.961 . S
H1590 C1575 0.961 . S
H1591 C1575 0.961 . S
H1592 C1576 0.931 . S
H1593 C1581 0.930 . S
H1594 C1582 0.956 . S
H1595 C1582 0.961 . S
H1596 C1582 0.961 . S
H1597 C1583 0.958 . S
H1598 C1583 0.961 . S
H1599 C1583 0.960 . S
C1600 C1601 1.391 . S
C1600 C1602 1.394 . S
C1600 H1616 0.931 . S
C1601 C1600 1.391 . S
C1601 C1605 1.376 . S
C1602 C1600 1.394 . S
C1602 C1603 1.369 . S
C1602 C1606 1.531 . S
C1603 C1602 1.369 . S
C1603 C1604 1.410 . S
C1603 C1611 1.503 . S
C1604 C1603 1.410 . S
C1604 C1605 1.392 . S
C1604 C1607 1.511 . S
C1605 C1601 1.376 . S
C1605 C1604 1.392 . S
C1605 H1617 0.929 . S
C1606 C1602 1.531 . S
C1606 H1618 0.960 . S
C1606 H1619 0.962 . S
C1606 H1620 0.960 . S
C1607 C1604 1.511 . S
C1607 H1621 0.961 . S
C1607 H1622 0.961 . S
C1607 H1623 0.978 . S
C1608 C1609 1.370 . S
C1608 C1610 1.363 . S
C1608 H1624 0.931 . S
C1609 C1608 1.370 . S
C1609 C1613 1.408 . S
C1610 C1608 1.363 . S
C1610 C1611 1.370 . S
C1610 C1614 1.524 . S
C1611 C1603 1.503 . S
C1611 C1610 1.370 . S
C1611 C1612 1.403 . S
C1612 C1611 1.403 . S
C1612 C1613 1.404 . S
C1612 C1615 1.522 1_565 S
C1613 C1609 1.408 . S
C1613 C1612 1.404 . S
C1613 H1625 0.930 1_565 S
C1614 C1610 1.524 . S
C1614 H1626 0.956 . S
C1614 H1627 0.961 . S
C1614 H1628 0.961 . S
C1615 C1612 1.522 1_545 S
C1615 H1629 0.939 1_545 S
C1615 H1630 0.987 . S
C1615 H1631 0.972 1_545 S
H1616 C1600 0.931 . S
H1617 C1605 0.929 . S
H1618 C1606 0.960 . S
H1619 C1606 0.962 . S
H1620 C1606 0.960 . S
H1621 C1607 0.961 . S
H1622 C1607 0.961 . S
H1623 C1607 0.978 . S
H1624 C1608 0.931 . S
H1625 C1613 0.930 1_545 S
H1626 C1614 0.956 . S
H1627 C1614 0.961 . S
H1628 C1614 0.961 . S
H1629 C1615 0.939 1_565 S
H1630 C1615 0.987 . S
H1631 C1615 0.972 1_565 S
C1632 C1633 1.391 . S
C1632 C1634 1.394 . S
C1632 H1648 0.931 1_565 S
C1633 C1632 1.391 . S
C1633 C1637 1.376 . S
C1634 C1632 1.394 . S
C1634 C1635 1.369 . S
C1634 C1638 1.531 1_565 S
C1635 C1634 1.369 . S
C1635 C1636 1.410 . S
C1635 C1643 1.503 . S
C1636 C1635 1.410 . S
C1636 C1637 1.392 . S
C1636 C1639 1.511 . S
C1637 C1633 1.376 . S
C1637 C1636 1.392 . S
C1637 H1649 0.929 . S
C1638 C1634 1.531 1_545 S
C1638 H1650 0.960 1_545 S
C1638 H1651 0.962 . S
C1638 H1652 0.960 . S
C1639 C1636 1.511 . S
C1639 H1653 0.961 . S
C1639 H1654 0.961 . S
C1639 H1655 0.961 . S
C1640 C1641 1.370 . S
C1640 C1642 1.363 . S
C1640 H1656 0.931 . S
C1641 C1640 1.370 . S
C1641 C1645 1.408 . S
C1642 C1640 1.363 . S
C1642 C1643 1.370 . S
C1642 C1646 1.524 . S
C1643 C1635 1.503 . S
C1643 C1642 1.370 . S
C1643 C1644 1.403 . S
C1644 C1643 1.403 . S
C1644 C1645 1.404 . S
C1644 C1647 1.539 . S
C1645 C1641 1.408 . S
C1645 C1644 1.404 . S
C1645 H1657 0.930 . S
C1646 C1642 1.524 . S
C1646 H1658 0.956 . S
C1646 H1659 0.961 . S
C1646 H1660 0.961 . S
C1647 C1644 1.539 . S
C1647 H1661 0.958 . S
C1647 H1662 0.961 . S
C1647 H1663 0.960 . S
H1648 C1632 0.931 1_545 S
H1649 C1637 0.929 . S
H1650 C1638 0.960 1_565 S
H1651 C1638 0.962 . S
H1652 C1638 0.960 . S
H1653 C1639 0.961 . S
H1654 C1639 0.961 . S
H1655 C1639 0.961 . S
H1656 C1640 0.931 . S
H1657 C1645 0.930 . S
H1658 C1646 0.956 . S
H1659 C1646 0.961 . S
H1660 C1646 0.961 . S
H1661 C1647 0.958 . S
H1662 C1647 0.961 . S
H1663 C1647 0.960 . S
C1664 C1665 1.391 . S
C1664 C1666 1.394 . S
C1664 H1680 0.931 . S
C1665 C1664 1.391 . S
C1665 C1669 1.376 . S
C1666 C1664 1.394 . S
C1666 C1667 1.369 . S
C1666 C1670 1.531 . S
C1667 C1666 1.369 . S
C1667 C1668 1.410 . S
C1667 C1675 1.503 . S
C1668 C1667 1.410 . S
C1668 C1669 1.392 . S
C1668 C1671 1.511 . S
C1669 C1665 1.376 . S
C1669 C1668 1.392 . S
C1669 H1681 0.929 . S
C1670 C1666 1.531 . S
C1670 H1682 0.960 . S
C1670 H1683 0.962 . S
C1670 H1684 0.960 . S
C1671 C1668 1.511 . S
C1671 H1685 0.961 . S
C1671 H1686 0.961 . S
C1671 H1687 0.961 . S
C1672 C1673 1.370 . S
C1672 C1674 1.363 . S
C1672 H1688 0.931 . S
C1673 C1672 1.370 . S
C1673 C1677 1.408 . S
C1674 C1672 1.363 . S
C1674 C1675 1.370 . S
C1674 C1678 1.524 . S
C1675 C1667 1.503 . S
C1675 C1674 1.370 . S
C1675 C1676 1.403 . S
C1676 C1675 1.403 . S
C1676 C1677 1.404 . S
C1676 C1679 1.539 . S
C1677 C1673 1.408 . S
C1677 C1676 1.404 . S
C1677 H1689 0.930 . S
C1678 C1674 1.524 . S
C1678 H1690 0.956 . S
C1678 H1691 0.961 . S
C1678 H1692 0.961 . S
C1679 C1676 1.539 . S
C1679 H1693 0.958 . S
C1679 H1694 0.961 . S
C1679 H1695 0.960 . S
H1680 C1664 0.931 . S
H1681 C1669 0.929 . S
H1682 C1670 0.960 . S
H1683 C1670 0.962 . S
H1684 C1670 0.960 . S
H1685 C1671 0.961 . S
H1686 C1671 0.961 . S
H1687 C1671 0.961 . S
H1688 C1672 0.931 . S
H1689 C1677 0.930 . S
H1690 C1678 0.956 . S
H1691 C1678 0.961 . S
H1692 C1678 0.961 . S
H1693 C1679 0.958 . S
H1694 C1679 0.961 . S
H1695 C1679 0.960 . S
C1696 C1697 1.391 . S
C1696 C1698 1.394 . S
C1696 H1712 0.931 . S
C1697 C1696 1.391 . S
C1697 C1701 1.376 . S
C1698 C1696 1.394 . S
C1698 C1699 1.369 . S
C1698 C1702 1.531 . S
C1699 C1698 1.369 . S
C1699 C1700 1.410 . S
C1699 C1707 1.503 . S
C1700 C1699 1.410 . S
C1700 C1701 1.392 . S
C1700 C1703 1.511 . S
C1701 C1697 1.376 . S
C1701 C1700 1.392 . S
C1701 H1713 0.929 . S
C1702 C1698 1.531 . S
C1702 H1714 0.960 . S
C1702 H1715 0.962 . S
C1702 H1716 0.960 . S
C1703 C1700 1.511 . S
C1703 H1717 0.961 . S
C1703 H1718 0.961 . S
C1703 H1719 0.961 . S
C1704 C1705 1.370 . S
C1704 C1706 1.363 . S
C1704 H1720 0.931 . S
C1705 C1704 1.370 . S
C1705 C1709 1.408 . S
C1706 C1704 1.363 . S
C1706 C1707 1.370 . S
C1706 C1710 1.524 . S
C1707 C1699 1.503 . S
C1707 C1706 1.370 . S
C1707 C1708 1.403 . S
C1708 C1707 1.403 . S
C1708 C1709 1.404 . S
C1708 C1711 1.539 . S
C1709 C1705 1.408 . S
C1709 C1708 1.404 . S
C1709 H1721 0.930 . S
C1710 C1706 1.524 . S
C1710 H1722 0.956 . S
C1710 H1723 0.961 . S
C1710 H1724 0.961 . S
C1711 C1708 1.539 . S
C1711 H1725 0.958 . S
C1711 H1726 0.961 . S
C1711 H1727 0.960 . S
H1712 C1696 0.931 . S
H1713 C1701 0.929 . S
H1714 C1702 0.960 . S
H1715 C1702 0.962 . S
H1716 C1702 0.960 . S
H1717 C1703 0.961 . S
H1718 C1703 0.961 . S
H1719 C1703 0.961 . S
H1720 C1704 0.931 . S
H1721 C1709 0.930 . S
H1722 C1710 0.956 . S
H1723 C1710 0.961 . S
H1724 C1710 0.961 . S
H1725 C1711 0.958 . S
H1726 C1711 0.961 . S
H1727 C1711 0.960 . S
C1728 C1729 1.391 . S
C1728 C1730 1.394 . S
C1728 H1744 0.931 . S
C1729 C1728 1.391 . S
C1729 C1733 1.376 . S
C1730 C1728 1.394 . S
C1730 C1731 1.369 . S
C1730 C1734 1.531 . S
C1731 C1730 1.369 . S
C1731 C1732 1.410 . S
C1731 C1739 1.503 . S
C1732 C1731 1.410 . S
C1732 C1733 1.392 . S
C1732 C1735 1.511 . S
C1733 C1729 1.376 . S
C1733 C1732 1.392 . S
C1733 H1745 0.929 . S
C1734 C1730 1.531 . S
C1734 H1746 0.960 . S
C1734 H1747 0.962 1_655 S
C1734 H1748 0.960 . S
C1735 C1732 1.511 . S
C1735 H1749 0.961 . S
C1735 H1750 0.961 . S
C1735 H1751 0.961 . S
C1736 C1737 1.370 . S
C1736 C1738 1.363 . S
C1736 H1752 0.931 . S
C1737 C1736 1.370 . S
C1737 C1741 1.408 . S
C1738 C1736 1.363 . S
C1738 C1739 1.370 . S
C1738 C1742 1.524 . S
C1739 C1731 1.503 . S
C1739 C1738 1.370 . S
C1739 C1740 1.403 . S
C1740 C1739 1.403 . S
C1740 C1741 1.404 . S
C1740 C1743 1.539 . S
C1741 C1737 1.408 . S
C1741 C1740 1.404 . S
C1741 H1753 0.930 . S
C1742 C1738 1.524 . S
C1742 H1754 0.956 . S
C1742 H1755 0.961 . S
C1742 H1756 0.961 . S
C1743 C1740 1.539 . S
C1743 H1757 0.958 . S
C1743 H1758 0.961 . S
C1743 H1759 0.960 . S
H1744 C1728 0.931 . S
H1745 C1733 0.929 . S
H1746 C1734 0.960 . S
H1747 C1734 0.962 1_455 S
H1748 C1734 0.960 . S
H1749 C1735 0.961 . S
H1750 C1735 0.961 . S
H1751 C1735 0.961 . S
H1752 C1736 0.931 . S
H1753 C1741 0.930 . S
H1754 C1742 0.956 . S
H1755 C1742 0.961 . S
H1756 C1742 0.961 . S
H1757 C1743 0.958 . S
H1758 C1743 0.961 . S
H1759 C1743 0.960 . S
C1760 C1761 1.391 . S
C1760 C1762 1.394 . S
C1760 H1776 0.931 . S
C1761 C1760 1.391 . S
C1761 C1765 1.376 . S
C1762 C1760 1.394 . S
C1762 C1763 1.369 . S
C1762 C1766 1.531 . S
C1763 C1762 1.369 . S
C1763 C1764 1.410 . S
C1763 C1771 1.503 . S
C1764 C1763 1.410 . S
C1764 C1765 1.392 . S
C1764 C1767 1.511 . S
C1765 C1761 1.376 . S
C1765 C1764 1.392 . S
C1765 H1777 0.929 . S
C1766 C1762 1.531 . S
C1766 H1778 0.960 . S
C1766 H1779 0.962 . S
C1766 H1780 0.960 . S
C1767 C1764 1.511 . S
C1767 H1781 0.961 . S
C1767 H1782 0.961 . S
C1767 H1783 0.961 . S
C1768 C1769 1.370 . S
C1768 C1770 1.363 . S
C1768 H1784 0.931 . S
C1769 C1768 1.370 . S
C1769 C1773 1.408 . S
C1770 C1768 1.363 . S
C1770 C1771 1.370 . S
C1770 C1774 1.524 . S
C1771 C1763 1.503 . S
C1771 C1770 1.370 . S
C1771 C1772 1.403 . S
C1772 C1771 1.403 . S
C1772 C1773 1.404 . S
C1772 C1775 1.539 . S
C1773 C1769 1.408 . S
C1773 C1772 1.404 . S
C1773 H1785 0.930 . S
C1774 C1770 1.524 . S
C1774 H1786 0.956 . S
C1774 H1787 0.961 . S
C1774 H1788 0.961 . S
C1775 C1772 1.539 . S
C1775 H1789 0.958 . S
C1775 H1790 0.961 . S
C1775 H1791 0.960 . S
H1776 C1760 0.931 . S
H1777 C1765 0.929 . S
H1778 C1766 0.960 . S
H1779 C1766 0.962 . S
H1780 C1766 0.960 . S
H1781 C1767 0.961 . S
H1782 C1767 0.961 . S
H1783 C1767 0.961 . S
H1784 C1768 0.931 . S
H1785 C1773 0.930 . S
H1786 C1774 0.956 . S
H1787 C1774 0.961 . S
H1788 C1774 0.961 . S
H1789 C1775 0.958 . S
H1790 C1775 0.961 . S
H1791 C1775 0.960 . S
C1792 C1793 1.391 . S
C1792 C1794 1.394 . S
C1792 H1808 0.931 . S
C1793 C1792 1.391 . S
C1793 C1797 1.376 . S
C1794 C1792 1.394 . S
C1794 C1795 1.369 . S
C1794 C1798 1.531 . S
C1795 C1794 1.369 . S
C1795 C1796 1.410 . S
C1795 C1803 1.503 . S
C1796 C1795 1.410 . S
C1796 C1797 1.392 . S
C1796 C1799 1.511 . S
C1797 C1793 1.376 . S
C1797 C1796 1.392 . S
C1797 H1809 0.929 . S
C1798 C1794 1.531 . S
C1798 H1810 0.960 . S
C1798 H1811 0.962 . S
C1798 H1812 0.960 . S
C1799 C1796 1.511 . S
C1799 H1813 0.961 . S
C1799 H1814 0.961 . S
C1799 H1815 0.961 . S
C1800 C1801 1.370 . S
C1800 C1802 1.363 . S
C1800 H1816 0.931 . S
C1801 C1800 1.370 . S
C1801 C1805 1.408 . S
C1802 C1800 1.363 . S
C1802 C1803 1.370 . S
C1802 C1806 1.524 . S
C1803 C1795 1.503 . S
C1803 C1802 1.370 . S
C1803 C1804 1.403 . S
C1804 C1803 1.403 . S
C1804 C1805 1.404 . S
C1804 C1807 1.539 . S
C1805 C1801 1.408 . S
C1805 C1804 1.404 . S
C1805 H1817 0.930 . S
C1806 C1802 1.524 . S
C1806 H1818 0.956 . S
C1806 H1819 0.961 . S
C1806 H1820 0.961 . S
C1807 C1804 1.539 . S
C1807 H1821 0.958 . S
C1807 H1822 0.961 . S
C1807 H1823 0.960 . S
H1808 C1792 0.931 . S
H1809 C1797 0.929 . S
H1810 C1798 0.960 . S
H1811 C1798 0.962 . S
H1812 C1798 0.960 . S
H1813 C1799 0.961 . S
H1814 C1799 0.961 . S
H1815 C1799 0.961 . S
H1816 C1800 0.931 . S
H1817 C1805 0.930 . S
H1818 C1806 0.956 . S
H1819 C1806 0.961 . S
H1820 C1806 0.961 . S
H1821 C1807 0.958 . S
H1822 C1807 0.961 . S
H1823 C1807 0.960 . S
C1824 C1825 1.391 . S
C1824 C1826 1.394 . S
C1824 H1840 0.931 . S
C1825 C1824 1.391 . S
C1825 C1829 1.376 . S
C1826 C1824 1.394 . S
C1826 C1827 1.369 . S
C1826 C1830 1.531 . S
C1827 C1826 1.369 . S
C1827 C1828 1.410 . S
C1827 C1835 1.503 . S
C1828 C1827 1.410 . S
C1828 C1829 1.392 . S
C1828 C1831 1.511 . S
C1829 C1825 1.376 . S
C1829 C1828 1.392 . S
C1829 H1841 0.929 . S
C1830 C1826 1.531 . S
C1830 H1842 0.960 . S
C1830 H1843 0.962 . S
C1830 H1844 0.960 . S
C1831 C1828 1.511 . S
C1831 H1845 0.961 . S
C1831 H1846 0.961 . S
C1831 H1847 0.961 . S
C1832 C1833 1.370 . S
C1832 C1834 1.363 . S
C1832 H1848 0.931 . S
C1833 C1832 1.370 . S
C1833 C1837 1.408 . S
C1834 C1832 1.363 . S
C1834 C1835 1.370 . S
C1834 C1838 1.524 . S
C1835 C1827 1.503 . S
C1835 C1834 1.370 . S
C1835 C1836 1.403 . S
C1836 C1835 1.403 . S
C1836 C1837 1.404 . S
C1836 C1839 1.539 . S
C1837 C1833 1.408 . S
C1837 C1836 1.404 . S
C1837 H1849 0.930 . S
C1838 C1834 1.524 . S
C1838 H1850 0.956 . S
C1838 H1851 0.961 . S
C1838 H1852 0.961 . S
C1839 C1836 1.539 . S
C1839 H1853 0.958 . S
C1839 H1854 0.961 . S
C1839 H1855 0.960 . S
H1840 C1824 0.931 . S
H1841 C1829 0.929 . S
H1842 C1830 0.960 . S
H1843 C1830 0.962 . S
H1844 C1830 0.960 . S
H1845 C1831 0.961 . S
H1846 C1831 0.961 . S
H1847 C1831 0.961 . S
H1848 C1832 0.931 . S
H1849 C1837 0.930 . S
H1850 C1838 0.956 . S
H1851 C1838 0.961 . S
H1852 C1838 0.961 . S
H1853 C1839 0.958 . S
H1854 C1839 0.961 . S
H1855 C1839 0.960 . S
C1856 C1857 1.391 . S
C1856 C1858 1.394 . S
C1856 H1872 0.931 . S
C1857 C1856 1.391 . S
C1857 C1861 1.376 . S
C1858 C1856 1.394 . S
C1858 C1859 1.369 1_565 S
C1858 C1862 1.531 1_565 S
C1859 C1858 1.369 1_545 S
C1859 C1860 1.410 1_545 S
C1859 C1867 1.503 . S
C1860 C1859 1.410 1_565 S
C1860 C1861 1.392 . S
C1860 C1863 1.511 . S
C1861 C1857 1.376 . S
C1861 C1860 1.392 . S
C1861 H1873 0.929 . S
C1862 C1858 1.531 1_545 S
C1862 H1874 0.960 . S
C1862 H1875 0.962 . S
C1862 H1876 0.960 . S
C1863 C1860 1.511 . S
C1863 H1877 0.961 . S
C1863 H1878 0.959 1_565 S
C1863 H1879 0.963 . S
C1864 C1865 1.370 . S
C1864 C1866 1.363 . S
C1864 H1880 0.931 . S
C1865 C1864 1.370 . S
C1865 C1869 1.408 . S
C1866 C1864 1.363 . S
C1866 C1867 1.370 . S
C1866 C1870 1.524 1_545 S
C1867 C1859 1.503 . S
C1867 C1866 1.370 . S
C1867 C1868 1.403 . S
C1868 C1867 1.403 . S
C1868 C1869 1.404 . S
C1868 C1871 1.539 . S
C1869 C1865 1.408 . S
C1869 C1868 1.404 . S
C1869 H1881 0.930 . S
C1870 C1866 1.524 1_565 S
C1870 H1882 0.956 . S
C1870 H1883 0.961 . S
C1870 H1884 0.957 1_565 S
C1871 C1868 1.539 . S
C1871 H1885 0.958 . S
C1871 H1886 0.961 . S
C1871 H1887 0.960 . S
H1872 C1856 0.931 . S
H1873 C1861 0.929 . S
H1874 C1862 0.960 . S
H1875 C1862 0.962 . S
H1876 C1862 0.960 . S
H1877 C1863 0.961 . S
H1878 C1863 0.959 1_545 S
H1879 C1863 0.963 . S
H1880 C1864 0.931 . S
H1881 C1869 0.930 . S
H1882 C1870 0.956 . S
H1883 C1870 0.961 . S
H1884 C1870 0.957 1_545 S
H1885 C1871 0.958 . S
H1886 C1871 0.961 . S
H1887 C1871 0.960 . S
C1888 C1889 1.391 . S
C1888 C1890 1.394 . S
C1888 H1904 0.931 . S
C1889 C1888 1.391 . S
C1889 C1893 1.376 . S
C1890 C1888 1.394 . S
C1890 C1891 1.369 . S
C1890 C1894 1.531 . S
C1891 C1890 1.369 . S
C1891 C1892 1.410 1_655 S
C1891 C1899 1.503 1_655 S
C1892 C1891 1.410 1_455 S
C1892 C1893 1.392 1_455 S
C1892 C1895 1.511 . S
C1893 C1889 1.376 . S
C1893 C1892 1.392 1_655 S
C1893 H1905 0.929 . S
C1894 C1890 1.531 . S
C1894 H1906 0.960 . S
C1894 H1907 0.962 . S
C1894 H1908 0.960 . S
C1895 C1892 1.511 . S
C1895 H1909 0.961 . S
C1895 H1910 0.961 . S
C1895 H1911 0.961 . S
C1896 C1897 1.370 . S
C1896 C1898 1.363 . S
C1896 H1912 0.931 . S
C1897 C1896 1.370 . S
C1897 C1901 1.408 . S
C1898 C1896 1.363 . S
C1898 C1899 1.370 . S
C1898 C1902 1.524 . S
C1899 C1891 1.503 1_455 S
C1899 C1898 1.370 . S
C1899 C1900 1.403 . S
C1900 C1899 1.403 . S
C1900 C1901 1.404 . S
C1900 C1903 1.539 . S
C1901 C1897 1.408 . S
C1901 C1900 1.404 . S
C1901 H1913 0.930 . S
C1902 C1898 1.524 . S
C1902 H1914 0.956 . S
C1902 H1915 0.961 . S
C1902 H1916 0.961 . S
C1903 C1900 1.539 . S
C1903 H1917 0.958 . S
C1903 H1918 0.961 . S
C1903 H1919 0.960 . S
H1904 C1888 0.931 . S
H1905 C1893 0.929 . S
H1906 C1894 0.960 . S
H1907 C1894 0.962 . S
H1908 C1894 0.960 . S
H1909 C1895 0.961 . S
H1910 C1895 0.961 . S
H1911 C1895 0.961 . S
H1912 C1896 0.931 . S
H1913 C1901 0.930 . S
H1914 C1902 0.956 . S
H1915 C1902 0.961 . S
H1916 C1902 0.961 . S
H1917 C1903 0.958 . S
H1918 C1903 0.961 . S
H1919 C1903 0.960 . S
C1920 C1921 1.391 . S
C1920 C1922 1.394 . S
C1920 H1936 0.931 . S
C1921 C1920 1.391 . S
C1921 C1925 1.376 . S
C1922 C1920 1.394 . S
C1922 C1923 1.369 . S
C1922 C1926 1.531 . S
C1923 C1922 1.369 . S
C1923 C1924 1.410 . S
C1923 C1931 1.503 . S
C1924 C1923 1.410 . S
C1924 C1925 1.392 . S
C1924 C1927 1.511 . S
C1925 C1921 1.376 . S
C1925 C1924 1.392 . S
C1925 H1937 0.929 . S
C1926 C1922 1.531 . S
C1926 H1938 0.960 . S
C1926 H1939 0.962 . S
C1926 H1940 0.960 . S
C1927 C1924 1.511 . S
C1927 H1941 0.961 . S
C1927 H1942 0.961 . S
C1927 H1943 0.961 . S
C1928 C1929 1.370 . S
C1928 C1930 1.363 . S
C1928 H1944 0.931 . S
C1929 C1928 1.370 . S
C1929 C1933 1.408 . S
C1930 C1928 1.363 . S
C1930 C1931 1.370 . S
C1930 C1934 1.524 . S
C1931 C1923 1.503 . S
C1931 C1930 1.370 . S
C1931 C1932 1.403 . S
C1932 C1931 1.403 . S
C1932 C1933 1.404 . S
C1932 C1935 1.539 . S
C1933 C1929 1.408 . S
C1933 C1932 1.404 . S
C1933 H1945 0.930 . S
C1934 C1930 1.524 . S
C1934 H1946 0.956 . S
C1934 H1947 0.961 . S
C1934 H1948 0.961 . S
C1935 C1932 1.539 . S
C1935 H1949 0.958 . S
C1935 H1950 0.961 . S
C1935 H1951 0.960 . S
H1936 C1920 0.931 . S
H1937 C1925 0.929 . S
H1938 C1926 0.960 . S
H1939 C1926 0.962 . S
H1940 C1926 0.960 . S
H1941 C1927 0.961 . S
H1942 C1927 0.961 . S
H1943 C1927 0.961 . S
H1944 C1928 0.931 . S
H1945 C1933 0.930 . S
H1946 C1934 0.956 . S
H1947 C1934 0.961 . S
H1948 C1934 0.961 . S
H1949 C1935 0.958 . S
H1950 C1935 0.961 . S
H1951 C1935 0.960 . S
C1952 C1953 1.391 . S
C1952 C1954 1.394 . S
C1952 H1968 0.931 . S
C1953 C1952 1.391 . S
C1953 C1957 1.376 . S
C1954 C1952 1.394 . S
C1954 C1955 1.369 . S
C1954 C1958 1.531 . S
C1955 C1954 1.369 . S
C1955 C1956 1.410 . S
C1955 C1963 1.503 1_565 S
C1956 C1955 1.410 . S
C1956 C1957 1.392 . S
C1956 C1959 1.511 1_565 S
C1957 C1953 1.376 . S
C1957 C1956 1.392 . S
C1957 H1969 0.929 . S
C1958 C1954 1.531 . S
C1958 H1970 0.960 . S
C1958 H1971 0.962 . S
C1958 H1972 0.960 . S
C1959 C1956 1.511 1_545 S
C1959 H1973 0.961 . S
C1959 H1974 0.961 . S
C1959 H1975 0.961 . S
C1960 C1961 1.370 . S
C1960 C1962 1.363 . S
C1960 H1976 0.931 . S
C1961 C1960 1.370 . S
C1961 C1965 1.408 . S
C1962 C1960 1.363 . S
C1962 C1963 1.370 . S
C1962 C1966 1.524 . S
C1963 C1955 1.503 1_545 S
C1963 C1962 1.370 . S
C1963 C1964 1.403 . S
C1964 C1963 1.403 . S
C1964 C1965 1.404 . S
C1964 C1967 1.539 . S
C1965 C1961 1.408 . S
C1965 C1964 1.404 . S
C1965 H1977 0.930 . S
C1966 C1962 1.524 . S
C1966 H1978 0.956 . S
C1966 H1979 0.961 . S
C1966 H1980 0.961 . S
C1967 C1964 1.539 . S
C1967 H1981 0.958 1_545 S
C1967 H1982 0.961 . S
C1967 H1983 0.960 1_545 S
H1968 C1952 0.931 . S
H1969 C1957 0.929 . S
H1970 C1958 0.960 . S
H1971 C1958 0.962 . S
H1972 C1958 0.960 . S
H1973 C1959 0.961 . S
H1974 C1959 0.961 . S
H1975 C1959 0.961 . S
H1976 C1960 0.931 . S
H1977 C1965 0.930 . S
H1978 C1966 0.956 . S
H1979 C1966 0.961 . S
H1980 C1966 0.961 . S
H1981 C1967 0.958 1_565 S
H1982 C1967 0.961 . S
H1983 C1967 0.960 1_565 S
C1984 C1985 1.391 . S
C1984 C1986 1.394 . S
C1984 H2000 0.931 . S
C1985 C1984 1.391 . S
C1985 C1989 1.376 . S
C1986 C1984 1.394 . S
C1986 C1987 1.369 . S
C1986 C1990 1.531 . S
C1987 C1986 1.369 . S
C1987 C1988 1.410 . S
C1987 C1995 1.503 1_655 S
C1988 C1987 1.410 . S
C1988 C1989 1.392 . S
C1988 C1991 1.511 1_655 S
C1989 C1985 1.376 . S
C1989 C1988 1.392 . S
C1989 H2001 0.929 . S
C1990 C1986 1.531 . S
C1990 H2002 0.960 . S
C1990 H2003 0.962 . S
C1990 H2004 0.960 . S
C1991 C1988 1.511 1_455 S
C1991 H2005 0.961 . S
C1991 H2006 0.961 . S
C1991 H2007 0.961 . S
C1992 C1993 1.370 . S
C1992 C1994 1.363 . S
C1992 H2008 0.931 . S
C1993 C1992 1.370 . S
C1993 C1997 1.408 . S
C1994 C1992 1.363 . S
C1994 C1995 1.370 . S
C1994 C1998 1.524 . S
C1995 C1987 1.503 1_455 S
C1995 C1994 1.370 . S
C1995 C1996 1.403 . S
C1996 C1995 1.403 . S
C1996 C1997 1.404 . S
C1996 C1999 1.539 1_455 S
C1997 C1993 1.408 . S
C1997 C1996 1.404 . S
C1997 H2009 0.930 . S
C1998 C1994 1.524 . S
C1998 H2010 0.956 . S
C1998 H2011 0.961 . S
C1998 H2012 0.961 . S
C1999 C1996 1.539 1_655 S
C1999 H2013 0.958 . S
C1999 H2014 0.961 1_655 S
C1999 H2015 0.960 . S
H2000 C1984 0.931 . S
H2001 C1989 0.929 . S
H2002 C1990 0.960 . S
H2003 C1990 0.962 . S
H2004 C1990 0.960 . S
H2005 C1991 0.961 . S
H2006 C1991 0.961 . S
H2007 C1991 0.961 . S
H2008 C1992 0.931 . S
H2009 C1997 0.930 . S
H2010 C1998 0.956 . S
H2011 C1998 0.961 . S
H2012 C1998 0.961 . S
H2013 C1999 0.958 . S
H2014 C1999 0.961 1_455 S
H2015 C1999 0.960 . S
C2016 C2017 1.391 . S
C2016 C2018 1.394 . S
C2016 H2032 0.931 . S
C2017 C2016 1.391 . S
C2017 C2021 1.376 1_545 S
C2018 C2016 1.394 . S
C2018 C2019 1.369 . S
C2018 C2022 1.531 . S
C2019 C2018 1.369 . S
C2019 C2020 1.410 1_545 S
C2019 C2027 1.503 1_554 S
C2020 C2019 1.410 1_565 S
C2020 C2021 1.392 . S
C2020 C2023 1.511 . S
C2021 C2017 1.376 1_565 S
C2021 C2020 1.392 . S
C2021 H2033 0.929 . S
C2022 C2018 1.531 . S
C2022 H2034 0.969 1_554 S
C2022 H2035 0.962 . S
C2022 H2036 0.960 . S
C2023 C2020 1.511 . S
C2023 H2037 0.961 . S
C2023 H2038 0.961 1_554 S
C2023 H2039 0.961 . S
C2024 C2025 1.370 . S
C2024 C2026 1.363 . S
C2024 H2040 0.931 . S
C2025 C2024 1.370 . S
C2025 C2029 1.408 1_545 S
C2026 C2024 1.363 . S
C2026 C2027 1.370 . S
C2026 C2030 1.524 . S
C2027 C2019 1.503 1_556 S
C2027 C2026 1.370 . S
C2027 C2028 1.403 1_545 S
C2028 C2027 1.403 1_565 S
C2028 C2029 1.404 . S
C2028 C2031 1.539 . S
C2029 C2025 1.408 1_565 S
C2029 C2028 1.404 . S
C2029 H2041 0.930 . S
C2030 C2026 1.524 . S
C2030 H2042 0.969 . S
C2030 H2043 0.954 1_556 S
C2030 H2044 0.961 . S
C2031 C2028 1.539 . S
C2031 H2045 0.958 . S
C2031 H2046 0.961 . S
C2031 H2047 0.963 . S
H2032 C2016 0.931 . S
H2033 C2021 0.929 . S
H2034 C2022 0.969 1_556 S
H2035 C2022 0.962 . S
H2036 C2022 0.960 . S
H2037 C2023 0.961 . S
H2038 C2023 0.961 1_556 S
H2039 C2023 0.961 . S
H2040 C2024 0.931 . S
H2041 C2029 0.930 . S
H2042 C2030 0.969 . S
H2043 C2030 0.954 1_554 S
H2044 C2030 0.961 . S
H2045 C2031 0.958 . S
H2046 C2031 0.961 . S
H2047 C2031 0.963 . S
C2048 C2049 1.391 . S
C2048 C2050 1.394 . S
C2048 H2064 0.931 . S
C2049 C2048 1.391 . S
C2049 C2053 1.376 1_455 S
C2050 C2048 1.394 . S
C2050 C2051 1.369 . S
C2050 C2054 1.531 . S
C2051 C2050 1.369 . S
C2051 C2052 1.410 1_455 S
C2051 C2059 1.503 1_556 S
C2052 C2051 1.410 1_655 S
C2052 C2053 1.392 . S
C2052 C2055 1.511 . S
C2053 C2049 1.376 1_655 S
C2053 C2052 1.392 . S
C2053 H2065 0.929 . S
C2054 C2050 1.531 . S
C2054 H2066 0.896 1_556 S
C2054 H2067 0.962 . S
C2054 H2068 0.960 . S
C2055 C2052 1.511 . S
C2055 H2069 0.961 . S
C2055 H2070 0.961 1_556 S
C2055 H2071 0.961 . S
C2056 C2057 1.370 . S
C2056 C2058 1.363 . S
C2056 H2072 0.931 . S
C2057 C2056 1.370 . S
C2057 C2061 1.408 . S
C2058 C2056 1.363 . S
C2058 C2059 1.370 . S
C2058 C2062 1.524 . S
C2059 C2051 1.503 1_554 S
C2059 C2058 1.370 . S
C2059 C2060 1.403 . S
C2060 C2059 1.403 . S
C2060 C2061 1.404 . S
C2060 C2063 1.539 . S
C2061 C2057 1.408 . S
C2061 C2060 1.404 . S
C2061 H2073 0.930 . S
C2062 C2058 1.524 . S
C2062 H2074 0.940 1_554 S
C2062 H2075 0.888 1_554 S
C2062 H2076 0.961 . S
C2063 C2060 1.539 . S
C2063 H2077 0.958 . S
C2063 H2078 0.961 1_455 S
C2063 H2079 1.062 1_455 S
H2064 C2048 0.931 . S
H2065 C2053 0.929 . S
H2066 C2054 0.896 1_554 S
H2067 C2054 0.962 . S
H2068 C2054 0.960 . S
H2069 C2055 0.961 . S
H2070 C2055 0.961 1_554 S
H2071 C2055 0.961 . S
H2072 C2056 0.931 . S
H2073 C2061 0.930 . S
H2074 C2062 0.940 1_556 S
H2075 C2062 0.888 1_556 S
H2076 C2062 0.961 . S
H2077 C2063 0.958 . S
H2078 C2063 0.961 1_655 S
H2079 C2063 1.062 1_655 S
C2080 C2081 1.391 . S
C2080 C2082 1.394 . S
C2080 H2096 0.931 . S
C2081 C2080 1.391 . S
C2081 C2085 1.376 . S
C2082 C2080 1.394 . S
C2082 C2083 1.369 . S
C2082 C2086 1.531 . S
C2083 C2082 1.369 . S
C2083 C2084 1.410 . S
C2083 C2091 1.503 1_554 S
C2084 C2083 1.410 . S
C2084 C2085 1.392 . S
C2084 C2087 1.511 . S
C2085 C2081 1.376 . S
C2085 C2084 1.392 . S
C2085 H2097 0.929 . S
C2086 C2082 1.531 . S
C2086 H2098 0.960 1_554 S
C2086 H2099 0.962 . S
C2086 H2100 0.960 . S
C2087 C2084 1.511 . S
C2087 H2101 0.961 . S
C2087 H2102 0.961 1_554 S
C2087 H2103 0.961 . S
C2088 C2089 1.370 . S
C2088 C2090 1.363 . S
C2088 H2104 0.931 . S
C2089 C2088 1.370 . S
C2089 C2093 1.408 . S
C2090 C2088 1.363 . S
C2090 C2091 1.370 . S
C2090 C2094 1.524 . S
C2091 C2083 1.503 1_556 S
C2091 C2090 1.370 . S
C2091 C2092 1.403 . S
C2092 C2091 1.403 . S
C2092 C2093 1.404 . S
C2092 C2095 1.539 . S
C2093 C2089 1.408 . S
C2093 C2092 1.404 . S
C2093 H2105 0.930 . S
C2094 C2090 1.524 . S
C2094 H2106 1.008 . S
C2094 H2107 0.962 . S
C2094 H2108 0.961 . S
C2095 C2092 1.539 . S
C2095 H2109 0.958 . S
C2095 H2110 0.961 . S
C2095 H2111 0.927 1_556 S
H2096 C2080 0.931 . S
H2097 C2085 0.929 . S
H2098 C2086 0.960 1_556 S
H2099 C2086 0.962 . S
H2100 C2086 0.960 . S
H2101 C2087 0.961 . S
H2102 C2087 0.961 1_556 S
H2103 C2087 0.961 . S
H2104 C2088 0.931 . S
H2105 C2093 0.930 . S
H2106 C2094 1.008 . S
H2107 C2094 0.962 . S
H2108 C2094 0.961 . S
H2109 C2095 0.958 . S
H2110 C2095 0.961 . S
H2111 C2095 0.927 1_554 S
C2112 C2113 1.391 . S
C2112 C2114 1.394 . S
C2112 H2128 0.931 . S
C2113 C2112 1.391 . S
C2113 C2117 1.376 1_455 S
C2114 C2112 1.394 . S
C2114 C2115 1.369 . S
C2114 C2118 1.531 . S
C2115 C2114 1.369 . S
C2115 C2116 1.410 1_455 S
C2115 C2123 1.503 . S
C2116 C2115 1.410 1_655 S
C2116 C2117 1.392 . S
C2116 C2119 1.511 . S
C2117 C2113 1.376 1_655 S
C2117 C2116 1.392 . S
C2117 H2129 0.929 . S
C2118 C2114 1.531 . S
C2118 H2130 0.960 . S
C2118 H2131 0.962 . S
C2118 H2132 0.960 . S
C2119 C2116 1.511 . S
C2119 H2133 0.961 . S
C2119 H2134 0.961 . S
C2119 H2135 0.961 . S
C2120 C2121 1.370 1_655 S
C2120 C2122 1.362 1_655 S
C2120 H2136 0.931 . S
C2121 C2120 1.370 1_455 S
C2121 C2125 1.408 . S
C2122 C2120 1.362 1_455 S
C2122 C2123 1.393 . S
C2122 C2126 1.503 1_455 S
C2123 C2115 1.503 . S
C2123 C2122 1.393 . S
C2123 C2124 1.403 . S
C2124 C2123 1.403 . S
C2124 C2125 1.404 . S
C2124 C2127 1.539 . S
C2125 C2121 1.408 . S
C2125 C2124 1.404 . S
C2125 H2137 0.930 . S
C2126 C2122 1.503 1_655 S
C2126 H2138 0.953 1_655 S
C2126 H2139 0.961 . S
C2126 H2140 0.961 . S
C2127 C2124 1.539 . S
C2127 H2141 0.958 . S
C2127 H2142 0.961 . S
C2127 H2143 0.960 . S
H2128 C2112 0.931 . S
H2129 C2117 0.929 . S
H2130 C2118 0.960 . S
H2131 C2118 0.962 . S
H2132 C2118 0.960 . S
H2133 C2119 0.961 . S
H2134 C2119 0.961 . S
H2135 C2119 0.961 . S
H2136 C2120 0.931 . S
H2137 C2125 0.930 . S
H2138 C2126 0.953 1_455 S
H2139 C2126 0.961 . S
H2140 C2126 0.961 . S
H2141 C2127 0.958 . S
H2142 C2127 0.961 . S
H2143 C2127 0.960 . S
C2144 C2145 1.391 . S
C2144 C2146 1.394 . S
C2144 H2160 0.931 . S
C2145 C2144 1.391 . S
C2145 C2149 1.376 . S
C2146 C2144 1.394 . S
C2146 C2147 1.369 . S
C2146 C2150 1.531 . S
C2147 C2146 1.369 . S
C2147 C2148 1.410 . S
C2147 C2155 1.503 . S
C2148 C2147 1.410 . S
C2148 C2149 1.392 . S
C2148 C2151 1.511 . S
C2149 C2145 1.376 . S
C2149 C2148 1.392 . S
C2149 H2161 0.929 . S
C2150 C2146 1.531 . S
C2150 H2162 0.960 . S
C2150 H2163 0.962 . S
C2150 H2164 0.960 . S
C2151 C2148 1.511 . S
C2151 H2165 0.961 . S
C2151 H2166 0.961 . S
C2151 H2167 0.961 . S
C2152 C2153 1.370 . S
C2152 C2154 1.363 . S
C2152 H2168 0.931 . S
C2153 C2152 1.370 . S
C2153 C2157 1.408 . S
C2154 C2152 1.363 . S
C2154 C2155 1.370 . S
C2154 C2158 1.524 . S
C2155 C2147 1.503 . S
C2155 C2154 1.370 . S
C2155 C2156 1.403 . S
C2156 C2155 1.403 . S
C2156 C2157 1.404 . S
C2156 C2159 1.539 . S
C2157 C2153 1.408 . S
C2157 C2156 1.404 . S
C2157 H2169 0.930 . S
C2158 C2154 1.524 . S
C2158 H2170 0.956 . S
C2158 H2171 0.961 . S
C2158 H2172 0.961 . S
C2159 C2156 1.539 . S
C2159 H2173 0.958 . S
C2159 H2174 0.961 . S
C2159 H2175 0.960 . S
H2160 C2144 0.931 . S
H2161 C2149 0.929 . S
H2162 C2150 0.960 . S
H2163 C2150 0.962 . S
H2164 C2150 0.960 . S
H2165 C2151 0.961 . S
H2166 C2151 0.961 . S
H2167 C2151 0.961 . S
H2168 C2152 0.931 . S
H2169 C2157 0.930 . S
H2170 C2158 0.956 . S
H2171 C2158 0.961 . S
H2172 C2158 0.961 . S
H2173 C2159 0.958 . S
H2174 C2159 0.961 . S
H2175 C2159 0.960 . S
C2176 C2177 1.391 . S
C2176 C2178 1.394 . S
C2176 H2192 0.931 . S
C2177 C2176 1.391 . S
C2177 C2181 1.376 1_545 S
C2178 C2176 1.394 . S
C2178 C2179 1.369 . S
C2178 C2182 1.531 . S
C2179 C2178 1.369 . S
C2179 C2180 1.398 1_545 S
C2179 C2187 1.503 . S
C2180 C2179 1.398 1_565 S
C2180 C2181 1.393 . S
C2180 C2183 1.522 . S
C2181 C2177 1.376 1_565 S
C2181 C2180 1.393 . S
C2181 H2193 0.929 . S
C2182 C2178 1.531 . S
C2182 H2194 0.960 . S
C2182 H2195 0.962 . S
C2182 H2196 0.960 . S
C2183 C2180 1.522 . S
C2183 H2197 0.961 . S
C2183 H2198 0.961 . S
C2183 H2199 0.961 . S
C2184 C2185 1.370 1_565 S
C2184 C2186 1.363 . S
C2184 H2200 0.931 . S
C2185 C2184 1.370 1_545 S
C2185 C2189 1.408 . S
C2186 C2184 1.363 . S
C2186 C2187 1.370 1_565 S
C2186 C2190 1.524 . S
C2187 C2179 1.503 . S
C2187 C2186 1.370 1_545 S
C2187 C2188 1.403 . S
C2188 C2187 1.403 . S
C2188 C2189 1.404 . S
C2188 C2191 1.539 . S
C2189 C2185 1.408 . S
C2189 C2188 1.404 . S
C2189 H2201 0.930 . S
C2190 C2186 1.524 . S
C2190 H2202 0.956 . S
C2190 H2203 0.961 . S
C2190 H2204 0.961 . S
C2191 C2188 1.539 . S
C2191 H2205 0.958 . S
C2191 H2206 0.961 . S
C2191 H2207 0.960 . S
H2192 C2176 0.931 . S
H2193 C2181 0.929 . S
H2194 C2182 0.960 . S
H2195 C2182 0.962 . S
H2196 C2182 0.960 . S
H2197 C2183 0.961 . S
H2198 C2183 0.961 . S
H2199 C2183 0.961 . S
H2200 C2184 0.931 . S
H2201 C2189 0.930 . S
H2202 C2190 0.956 . S
H2203 C2190 0.961 . S
H2204 C2190 0.961 . S
H2205 C2191 0.958 . S
H2206 C2191 0.961 . S
H2207 C2191 0.960 . S
C2208 C2209 1.391 . S
C2208 C2210 1.394 . S
C2208 H2224 0.931 . S
C2209 C2208 1.391 . S
C2209 C2213 1.376 . S
C2210 C2208 1.394 . S
C2210 C2211 1.369 . S
C2210 C2214 1.531 . S
C2211 C2210 1.369 . S
C2211 C2212 1.410 . S
C2211 C2219 1.503 . S
C2212 C2211 1.410 . S
C2212 C2213 1.392 . S
C2212 C2215 1.511 . S
C2213 C2209 1.376 . S
C2213 C2212 1.392 . S
C2213 H2225 0.929 . S
C2214 C2210 1.531 . S
C2214 H2226 0.960 . S
C2214 H2227 0.962 . S
C2214 H2228 0.960 . S
C2215 C2212 1.511 . S
C2215 H2229 0.961 . S
C2215 H2230 0.961 . S
C2215 H2231 0.961 . S
C2216 C2217 1.370 . S
C2216 C2218 1.363 . S
C2216 H2232 0.931 . S
C2217 C2216 1.370 . S
C2217 C2221 1.408 . S
C2218 C2216 1.363 . S
C2218 C2219 1.370 . S
C2218 C2222 1.524 . S
C2219 C2211 1.503 . S
C2219 C2218 1.370 . S
C2219 C2220 1.403 . S
C2220 C2219 1.403 . S
C2220 C2221 1.404 . S
C2220 C2223 1.539 . S
C2221 C2217 1.408 . S
C2221 C2220 1.404 . S
C2221 H2233 0.930 . S
C2222 C2218 1.524 . S
C2222 H2234 0.956 . S
C2222 H2235 0.961 . S
C2222 H2236 0.961 . S
C2223 C2220 1.539 . S
C2223 H2237 0.958 . S
C2223 H2238 0.961 . S
C2223 H2239 0.960 . S
H2224 C2208 0.931 . S
H2225 C2213 0.929 . S
H2226 C2214 0.960 . S
H2227 C2214 0.962 . S
H2228 C2214 0.960 . S
H2229 C2215 0.961 . S
H2230 C2215 0.961 . S
H2231 C2215 0.961 . S
H2232 C2216 0.931 . S
H2233 C2221 0.930 . S
H2234 C2222 0.956 . S
H2235 C2222 0.961 . S
H2236 C2222 0.961 . S
H2237 C2223 0.958 . S
H2238 C2223 0.961 . S
H2239 C2223 0.960 . S
C2240 C2241 1.391 . S
C2240 C2242 1.394 . S
C2240 H2256 0.931 . S
C2241 C2240 1.391 . S
C2241 C2245 1.376 . S
C2242 C2240 1.394 . S
C2242 C2243 1.369 . S
C2242 C2246 1.531 . S
C2243 C2242 1.369 . S
C2243 C2244 1.410 . S
C2243 C2251 1.503 . S
C2244 C2243 1.410 . S
C2244 C2245 1.392 . S
C2244 C2247 1.511 . S
C2245 C2241 1.376 . S
C2245 C2244 1.392 . S
C2245 H2257 0.929 . S
C2246 C2242 1.531 . S
C2246 H2258 0.960 . S
C2246 H2259 0.962 . S
C2246 H2260 0.960 . S
C2247 C2244 1.511 . S
C2247 H2261 0.961 . S
C2247 H2262 0.961 . S
C2247 H2263 0.961 . S
C2248 C2249 1.370 . S
C2248 C2250 1.363 . S
C2248 H2264 0.931 . S
C2249 C2248 1.370 . S
C2249 C2253 1.408 . S
C2250 C2248 1.363 . S
C2250 C2251 1.370 . S
C2250 C2254 1.524 . S
C2251 C2243 1.503 . S
C2251 C2250 1.370 . S
C2251 C2252 1.403 . S
C2252 C2251 1.403 . S
C2252 C2253 1.404 . S
C2252 C2255 1.539 . S
C2253 C2249 1.408 . S
C2253 C2252 1.404 . S
C2253 H2265 0.930 . S
C2254 C2250 1.524 . S
C2254 H2266 0.956 . S
C2254 H2267 0.961 . S
C2254 H2268 0.961 . S
C2255 C2252 1.539 . S
C2255 H2269 0.958 . S
C2255 H2270 0.961 . S
C2255 H2271 0.960 . S
H2256 C2240 0.931 . S
H2257 C2245 0.929 . S
H2258 C2246 0.960 . S
H2259 C2246 0.962 . S
H2260 C2246 0.960 . S
H2261 C2247 0.961 . S
H2262 C2247 0.961 . S
H2263 C2247 0.961 . S
H2264 C2248 0.931 . S
H2265 C2253 0.930 . S
H2266 C2254 0.956 . S
H2267 C2254 0.961 . S
H2268 C2254 0.961 . S
H2269 C2255 0.958 . S
H2270 C2255 0.961 . S
H2271 C2255 0.960 . S
C2272 C2273 1.391 . S
C2272 C2274 1.394 . S
C2272 H2288 0.931 . S
C2273 C2272 1.391 . S
C2273 C2277 1.376 . S
C2274 C2272 1.394 . S
C2274 C2275 1.369 . S
C2274 C2278 1.531 . S
C2275 C2274 1.369 . S
C2275 C2276 1.410 . S
C2275 C2283 1.503 . S
C2276 C2275 1.410 . S
C2276 C2277 1.392 . S
C2276 C2279 1.511 . S
C2277 C2273 1.376 . S
C2277 C2276 1.392 . S
C2277 H2289 0.929 . S
C2278 C2274 1.531 . S
C2278 H2290 0.960 . S
C2278 H2291 0.962 . S
C2278 H2292 0.960 . S
C2279 C2276 1.511 . S
C2279 H2293 0.961 . S
C2279 H2294 0.961 . S
C2279 H2295 0.961 . S
C2280 C2281 1.370 . S
C2280 C2282 1.363 . S
C2280 H2296 0.931 . S
C2281 C2280 1.370 . S
C2281 C2285 1.408 . S
C2282 C2280 1.363 . S
C2282 C2283 1.370 . S
C2282 C2286 1.524 . S
C2283 C2275 1.503 . S
C2283 C2282 1.370 . S
C2283 C2284 1.403 . S
C2284 C2283 1.403 . S
C2284 C2285 1.404 . S
C2284 C2287 1.539 . S
C2285 C2281 1.408 . S
C2285 C2284 1.404 . S
C2285 H2297 0.930 . S
C2286 C2282 1.524 . S
C2286 H2298 0.956 . S
C2286 H2299 0.961 . S
C2286 H2300 0.961 . S
C2287 C2284 1.539 . S
C2287 H2301 0.958 . S
C2287 H2302 0.961 . S
C2287 H2303 0.960 . S
H2288 C2272 0.931 . S
H2289 C2277 0.929 . S
H2290 C2278 0.960 . S
H2291 C2278 0.962 . S
H2292 C2278 0.960 . S
H2293 C2279 0.961 . S
H2294 C2279 0.961 . S
H2295 C2279 0.961 . S
H2296 C2280 0.931 . S
H2297 C2285 0.930 . S
H2298 C2286 0.956 . S
H2299 C2286 0.961 . S
H2300 C2286 0.961 . S
H2301 C2287 0.958 . S
H2302 C2287 0.961 . S
H2303 C2287 0.960 . S
C2304 C2305 1.391 . S
C2304 C2306 1.394 . S
C2304 H2320 0.931 . S
C2305 C2304 1.391 . S
C2305 C2309 1.376 . S
C2306 C2304 1.394 . S
C2306 C2307 1.369 . S
C2306 C2310 1.531 . S
C2307 C2306 1.369 . S
C2307 C2308 1.410 . S
C2307 C2315 1.503 . S
C2308 C2307 1.410 . S
C2308 C2309 1.392 . S
C2308 C2311 1.511 . S
C2309 C2305 1.376 . S
C2309 C2308 1.392 . S
C2309 H2321 0.929 . S
C2310 C2306 1.531 . S
C2310 H2322 0.960 . S
C2310 H2323 0.962 . S
C2310 H2324 0.960 . S
C2311 C2308 1.511 . S
C2311 H2325 0.961 . S
C2311 H2326 0.961 . S
C2311 H2327 0.961 . S
C2312 C2313 1.370 . S
C2312 C2314 1.363 . S
C2312 H2328 0.931 . S
C2313 C2312 1.370 . S
C2313 C2317 1.408 . S
C2314 C2312 1.363 . S
C2314 C2315 1.370 . S
C2314 C2318 1.524 . S
C2315 C2307 1.503 . S
C2315 C2314 1.370 . S
C2315 C2316 1.403 . S
C2316 C2315 1.403 . S
C2316 C2317 1.404 . S
C2316 C2319 1.539 . S
C2317 C2313 1.408 . S
C2317 C2316 1.404 . S
C2317 H2329 0.930 . S
C2318 C2314 1.524 . S
C2318 H2330 0.956 . S
C2318 H2331 0.961 . S
C2318 H2332 0.961 . S
C2319 C2316 1.539 . S
C2319 H2333 0.958 . S
C2319 H2334 0.961 . S
C2319 H2335 0.960 . S
H2320 C2304 0.931 . S
H2321 C2309 0.929 . S
H2322 C2310 0.960 . S
H2323 C2310 0.962 . S
H2324 C2310 0.960 . S
H2325 C2311 0.961 . S
H2326 C2311 0.961 . S
H2327 C2311 0.961 . S
H2328 C2312 0.931 . S
H2329 C2317 0.930 . S
H2330 C2318 0.956 . S
H2331 C2318 0.961 . S
H2332 C2318 0.961 . S
H2333 C2319 0.958 . S
H2334 C2319 0.961 . S
H2335 C2319 0.960 . S
C2336 C2337 1.391 . S
C2336 C2338 1.394 . S
C2336 H2352 0.931 . S
C2337 C2336 1.391 . S
C2337 C2341 1.376 . S
C2338 C2336 1.394 . S
C2338 C2339 1.369 . S
C2338 C2342 1.531 . S
C2339 C2338 1.369 . S
C2339 C2340 1.410 . S
C2339 C2347 1.503 . S
C2340 C2339 1.410 . S
C2340 C2341 1.392 . S
C2340 C2343 1.511 . S
C2341 C2337 1.376 . S
C2341 C2340 1.392 . S
C2341 H2353 0.929 . S
C2342 C2338 1.531 . S
C2342 H2354 0.960 . S
C2342 H2355 0.962 . S
C2342 H2356 0.960 . S
C2343 C2340 1.511 . S
C2343 H2357 0.961 . S
C2343 H2358 0.961 . S
C2343 H2359 0.961 . S
C2344 C2345 1.370 . S
C2344 C2346 1.363 . S
C2344 H2360 0.931 . S
C2345 C2344 1.370 . S
C2345 C2349 1.408 . S
C2346 C2344 1.363 . S
C2346 C2347 1.370 . S
C2346 C2350 1.524 . S
C2347 C2339 1.503 . S
C2347 C2346 1.370 . S
C2347 C2348 1.403 . S
C2348 C2347 1.403 . S
C2348 C2349 1.404 . S
C2348 C2351 1.539 . S
C2349 C2345 1.408 . S
C2349 C2348 1.404 . S
C2349 H2361 0.930 . S
C2350 C2346 1.524 . S
C2350 H2362 0.956 . S
C2350 H2363 0.961 . S
C2350 H2364 0.961 . S
C2351 C2348 1.539 . S
C2351 H2365 0.958 . S
C2351 H2366 0.961 . S
C2351 H2367 0.960 . S
H2352 C2336 0.931 . S
H2353 C2341 0.929 . S
H2354 C2342 0.960 . S
H2355 C2342 0.962 . S
H2356 C2342 0.960 . S
H2357 C2343 0.961 . S
H2358 C2343 0.961 . S
H2359 C2343 0.961 . S
H2360 C2344 0.931 . S
H2361 C2349 0.930 . S
H2362 C2350 0.956 . S
H2363 C2350 0.961 . S
H2364 C2350 0.961 . S
H2365 C2351 0.958 . S
H2366 C2351 0.961 . S
H2367 C2351 0.960 . S
C2368 C2369 1.391 . S
C2368 C2370 1.394 . S
C2368 H2384 0.931 . S
C2369 C2368 1.391 . S
C2369 C2373 1.376 . S
C2370 C2368 1.394 . S
C2370 C2371 1.369 . S
C2370 C2374 1.531 . S
C2371 C2370 1.369 . S
C2371 C2372 1.410 . S
C2371 C2379 1.503 . S
C2372 C2371 1.410 . S
C2372 C2373 1.392 . S
C2372 C2375 1.511 . S
C2373 C2369 1.376 . S
C2373 C2372 1.392 . S
C2373 H2385 0.929 . S
C2374 C2370 1.531 . S
C2374 H2386 0.960 . S
C2374 H2387 0.962 . S
C2374 H2388 0.960 . S
C2375 C2372 1.511 . S
C2375 H2389 0.961 . S
C2375 H2390 0.961 . S
C2375 H2391 0.961 . S
C2376 C2377 1.370 . S
C2376 C2378 1.363 . S
C2376 H2392 0.931 . S
C2377 C2376 1.370 . S
C2377 C2381 1.408 . S
C2378 C2376 1.363 . S
C2378 C2379 1.370 . S
C2378 C2382 1.524 . S
C2379 C2371 1.503 . S
C2379 C2378 1.370 . S
C2379 C2380 1.403 . S
C2380 C2379 1.403 . S
C2380 C2381 1.404 . S
C2380 C2383 1.539 . S
C2381 C2377 1.408 . S
C2381 C2380 1.404 . S
C2381 H2393 0.930 . S
C2382 C2378 1.524 . S
C2382 H2394 0.956 . S
C2382 H2395 0.961 . S
C2382 H2396 0.961 . S
C2383 C2380 1.539 . S
C2383 H2397 0.958 . S
C2383 H2398 0.961 . S
C2383 H2399 0.960 . S
H2384 C2368 0.931 . S
H2385 C2373 0.929 . S
H2386 C2374 0.960 . S
H2387 C2374 0.962 . S
H2388 C2374 0.960 . S
H2389 C2375 0.961 . S
H2390 C2375 0.961 . S
H2391 C2375 0.961 . S
H2392 C2376 0.931 . S
H2393 C2381 0.930 . S
H2394 C2382 0.956 . S
H2395 C2382 0.961 . S
H2396 C2382 0.961 . S
H2397 C2383 0.958 . S
H2398 C2383 0.961 . S
H2399 C2383 0.960 . S
C2400 C2401 1.391 . S
C2400 C2402 1.394 . S
C2400 H2416 0.931 . S
C2401 C2400 1.391 . S
C2401 C2405 1.376 . S
C2402 C2400 1.394 . S
C2402 C2403 1.369 . S
C2402 C2406 1.531 . S
C2403 C2402 1.369 . S
C2403 C2404 1.410 . S
C2403 C2411 1.503 . S
C2404 C2403 1.410 . S
C2404 C2405 1.392 . S
C2404 C2407 1.511 . S
C2405 C2401 1.376 . S
C2405 C2404 1.392 . S
C2405 H2417 0.929 . S
C2406 C2402 1.531 . S
C2406 H2418 0.960 . S
C2406 H2419 0.962 . S
C2406 H2420 0.960 . S
C2407 C2404 1.511 . S
C2407 H2421 0.961 . S
C2407 H2422 0.961 . S
C2407 H2423 0.961 . S
C2408 C2409 1.370 . S
C2408 C2410 1.363 . S
C2408 H2424 0.931 . S
C2409 C2408 1.370 . S
C2409 C2413 1.408 . S
C2410 C2408 1.363 . S
C2410 C2411 1.370 . S
C2410 C2414 1.524 . S
C2411 C2403 1.503 . S
C2411 C2410 1.370 . S
C2411 C2412 1.403 . S
C2412 C2411 1.403 . S
C2412 C2413 1.404 . S
C2412 C2415 1.539 . S
C2413 C2409 1.408 . S
C2413 C2412 1.404 . S
C2413 H2425 0.930 . S
C2414 C2410 1.524 . S
C2414 H2426 0.956 . S
C2414 H2427 0.961 . S
C2414 H2428 0.961 . S
C2415 C2412 1.539 . S
C2415 H2429 0.958 . S
C2415 H2430 0.961 . S
C2415 H2431 0.960 . S
H2416 C2400 0.931 . S
H2417 C2405 0.929 . S
H2418 C2406 0.960 . S
H2419 C2406 0.962 . S
H2420 C2406 0.960 . S
H2421 C2407 0.961 . S
H2422 C2407 0.961 . S
H2423 C2407 0.961 . S
H2424 C2408 0.931 . S
H2425 C2413 0.930 . S
H2426 C2414 0.956 . S
H2427 C2414 0.961 . S
H2428 C2414 0.961 . S
H2429 C2415 0.958 . S
H2430 C2415 0.961 . S
H2431 C2415 0.960 . S
C2432 C2433 1.391 . S
C2432 C2434 1.394 . S
C2432 H2448 0.931 . S
C2433 C2432 1.391 . S
C2433 C2437 1.376 . S
C2434 C2432 1.394 . S
C2434 C2435 1.369 . S
C2434 C2438 1.531 . S
C2435 C2434 1.369 . S
C2435 C2436 1.410 . S
C2435 C2443 1.503 . S
C2436 C2435 1.410 . S
C2436 C2437 1.392 . S
C2436 C2439 1.511 . S
C2437 C2433 1.376 . S
C2437 C2436 1.392 . S
C2437 H2449 0.929 . S
C2438 C2434 1.531 . S
C2438 H2450 0.960 . S
C2438 H2451 0.962 . S
C2438 H2452 0.960 . S
C2439 C2436 1.511 . S
C2439 H2453 0.961 . S
C2439 H2454 0.961 . S
C2439 H2455 0.961 . S
C2440 C2441 1.370 . S
C2440 C2442 1.363 . S
C2440 H2456 0.931 . S
C2441 C2440 1.370 . S
C2441 C2445 1.408 . S
C2442 C2440 1.363 . S
C2442 C2443 1.370 . S
C2442 C2446 1.524 . S
C2443 C2435 1.503 . S
C2443 C2442 1.370 . S
C2443 C2444 1.403 . S
C2444 C2443 1.403 . S
C2444 C2445 1.404 . S
C2444 C2447 1.539 . S
C2445 C2441 1.408 . S
C2445 C2444 1.404 . S
C2445 H2457 0.930 . S
C2446 C2442 1.524 . S
C2446 H2458 0.956 . S
C2446 H2459 0.961 . S
C2446 H2460 0.961 . S
C2447 C2444 1.539 . S
C2447 H2461 0.958 . S
C2447 H2462 0.961 . S
C2447 H2463 0.960 . S
H2448 C2432 0.931 . S
H2449 C2437 0.929 . S
H2450 C2438 0.960 . S
H2451 C2438 0.962 . S
H2452 C2438 0.960 . S
H2453 C2439 0.961 . S
H2454 C2439 0.961 . S
H2455 C2439 0.961 . S
H2456 C2440 0.931 . S
H2457 C2445 0.930 . S
H2458 C2446 0.956 . S
H2459 C2446 0.961 . S
H2460 C2446 0.961 . S
H2461 C2447 0.958 . S
H2462 C2447 0.961 . S
H2463 C2447 0.960 . S
C2464 C2465 1.391 . S
C2464 C2466 1.394 . S
C2464 H2480 0.931 . S
C2465 C2464 1.391 . S
C2465 C2469 1.376 . S
C2466 C2464 1.394 . S
C2466 C2467 1.369 . S
C2466 C2470 1.531 . S
C2467 C2466 1.369 . S
C2467 C2468 1.410 . S
C2467 C2475 1.503 . S
C2468 C2467 1.410 . S
C2468 C2469 1.392 . S
C2468 C2471 1.511 . S
C2469 C2465 1.376 . S
C2469 C2468 1.392 . S
C2469 H2481 0.929 . S
C2470 C2466 1.531 . S
C2470 H2482 0.960 . S
C2470 H2483 0.962 . S
C2470 H2484 0.960 . S
C2471 C2468 1.511 . S
C2471 H2485 0.961 . S
C2471 H2486 0.961 . S
C2471 H2487 0.961 . S
C2472 C2473 1.370 . S
C2472 C2474 1.363 . S
C2472 H2488 0.931 . S
C2473 C2472 1.370 . S
C2473 C2477 1.408 . S
C2474 C2472 1.363 . S
C2474 C2475 1.370 . S
C2474 C2478 1.524 . S
C2475 C2467 1.503 . S
C2475 C2474 1.370 . S
C2475 C2476 1.403 . S
C2476 C2475 1.403 . S
C2476 C2477 1.404 . S
C2476 C2479 1.539 . S
C2477 C2473 1.408 . S
C2477 C2476 1.404 . S
C2477 H2489 0.930 . S
C2478 C2474 1.524 . S
C2478 H2490 0.956 . S
C2478 H2491 0.961 . S
C2478 H2492 0.961 . S
C2479 C2476 1.539 . S
C2479 H2493 0.958 . S
C2479 H2494 0.961 . S
C2479 H2495 0.960 . S
H2480 C2464 0.931 . S
H2481 C2469 0.929 . S
H2482 C2470 0.960 . S
H2483 C2470 0.962 . S
H2484 C2470 0.960 . S
H2485 C2471 0.961 . S
H2486 C2471 0.961 . S
H2487 C2471 0.961 . S
H2488 C2472 0.931 . S
H2489 C2477 0.930 . S
H2490 C2478 0.956 . S
H2491 C2478 0.961 . S
H2492 C2478 0.961 . S
H2493 C2479 0.958 . S
H2494 C2479 0.961 . S
H2495 C2479 0.960 . S
C2496 C2497 1.391 . S
C2496 C2498 1.394 . S
C2496 H2512 0.931 . S
C2497 C2496 1.391 . S
C2497 C2501 1.376 . S
C2498 C2496 1.394 . S
C2498 C2499 1.369 . S
C2498 C2502 1.531 . S
C2499 C2498 1.369 . S
C2499 C2500 1.410 . S
C2499 C2507 1.503 . S
C2500 C2499 1.410 . S
C2500 C2501 1.392 . S
C2500 C2503 1.511 . S
C2501 C2497 1.376 . S
C2501 C2500 1.392 . S
C2501 H2513 0.929 . S
C2502 C2498 1.531 . S
C2502 H2514 0.960 . S
C2502 H2515 0.962 . S
C2502 H2516 0.960 . S
C2503 C2500 1.511 . S
C2503 H2517 0.961 . S
C2503 H2518 0.961 . S
C2503 H2519 0.961 . S
C2504 C2505 1.370 . S
C2504 C2506 1.363 . S
C2504 H2520 0.931 . S
C2505 C2504 1.370 . S
C2505 C2509 1.408 . S
C2506 C2504 1.363 . S
C2506 C2507 1.370 . S
C2506 C2510 1.524 . S
C2507 C2499 1.503 . S
C2507 C2506 1.370 . S
C2507 C2508 1.403 . S
C2508 C2507 1.403 . S
C2508 C2509 1.404 . S
C2508 C2511 1.539 . S
C2509 C2505 1.408 . S
C2509 C2508 1.404 . S
C2509 H2521 0.930 . S
C2510 C2506 1.524 . S
C2510 H2522 0.956 . S
C2510 H2523 0.961 . S
C2510 H2524 0.961 . S
C2511 C2508 1.539 . S
C2511 H2525 0.958 . S
C2511 H2526 0.961 . S
C2511 H2527 0.960 . S
H2512 C2496 0.931 . S
H2513 C2501 0.929 . S
H2514 C2502 0.960 . S
H2515 C2502 0.962 . S
H2516 C2502 0.960 . S
H2517 C2503 0.961 . S
H2518 C2503 0.961 . S
H2519 C2503 0.961 . S
H2520 C2504 0.931 . S
H2521 C2509 0.930 . S
H2522 C2510 0.956 . S
H2523 C2510 0.961 . S
H2524 C2510 0.961 . S
H2525 C2511 0.958 . S
H2526 C2511 0.961 . S
H2527 C2511 0.960 . S
C2528 C2529 1.391 . S
C2528 C2530 1.394 . S
C2528 H2544 0.931 . S
C2529 C2528 1.391 . S
C2529 C2533 1.376 . S
C2530 C2528 1.394 . S
C2530 C2531 1.369 . S
C2530 C2534 1.531 . S
C2531 C2530 1.369 . S
C2531 C2532 1.410 . S
C2531 C2539 1.503 . S
C2532 C2531 1.410 . S
C2532 C2533 1.392 . S
C2532 C2535 1.511 . S
C2533 C2529 1.376 . S
C2533 C2532 1.392 . S
C2533 H2545 0.929 . S
C2534 C2530 1.531 . S
C2534 H2546 0.960 . S
C2534 H2547 0.962 . S
C2534 H2548 0.960 . S
C2535 C2532 1.511 . S
C2535 H2549 0.961 . S
C2535 H2550 0.961 . S
C2535 H2551 0.961 . S
C2536 C2537 1.370 . S
C2536 C2538 1.363 . S
C2536 H2552 0.931 . S
C2537 C2536 1.370 . S
C2537 C2541 1.408 . S
C2538 C2536 1.363 . S
C2538 C2539 1.370 . S
C2538 C2542 1.524 . S
C2539 C2531 1.503 . S
C2539 C2538 1.370 . S
C2539 C2540 1.403 . S
C2540 C2539 1.403 . S
C2540 C2541 1.404 . S
C2540 C2543 1.539 . S
C2541 C2537 1.408 . S
C2541 C2540 1.404 . S
C2541 H2553 0.930 . S
C2542 C2538 1.524 . S
C2542 H2554 0.956 . S
C2542 H2555 0.961 . S
C2542 H2556 0.961 . S
C2543 C2540 1.539 . S
C2543 H2557 0.958 . S
C2543 H2558 0.961 . S
C2543 H2559 0.960 . S
H2544 C2528 0.931 . S
H2545 C2533 0.929 . S
H2546 C2534 0.960 . S
H2547 C2534 0.962 . S
H2548 C2534 0.960 . S
H2549 C2535 0.961 . S
H2550 C2535 0.961 . S
H2551 C2535 0.961 . S
H2552 C2536 0.931 . S
H2553 C2541 0.930 . S
H2554 C2542 0.956 . S
H2555 C2542 0.961 . S
H2556 C2542 0.961 . S
H2557 C2543 0.958 . S
H2558 C2543 0.961 . S
H2559 C2543 0.960 . S
C2560 C2561 1.391 . S
C2560 C2562 1.394 . S
C2560 H2576 0.931 . S
C2561 C2560 1.391 . S
C2561 C2565 1.376 . S
C2562 C2560 1.394 . S
C2562 C2563 1.369 . S
C2562 C2566 1.531 . S
C2563 C2562 1.369 . S
C2563 C2564 1.410 . S
C2563 C2571 1.503 . S
C2564 C2563 1.410 . S
C2564 C2565 1.392 . S
C2564 C2567 1.511 . S
C2565 C2561 1.376 . S
C2565 C2564 1.392 . S
C2565 H2577 0.929 . S
C2566 C2562 1.531 . S
C2566 H2578 0.960 . S
C2566 H2579 0.962 . S
C2566 H2580 0.960 . S
C2567 C2564 1.511 . S
C2567 H2581 0.961 . S
C2567 H2582 0.961 . S
C2567 H2583 0.961 . S
C2568 C2569 1.370 . S
C2568 C2570 1.363 . S
C2568 H2584 0.931 . S
C2569 C2568 1.370 . S
C2569 C2573 1.408 . S
C2570 C2568 1.363 . S
C2570 C2571 1.370 . S
C2570 C2574 1.524 . S
C2571 C2563 1.503 . S
C2571 C2570 1.370 . S
C2571 C2572 1.403 . S
C2572 C2571 1.403 . S
C2572 C2573 1.404 . S
C2572 C2575 1.539 . S
C2573 C2569 1.408 . S
C2573 C2572 1.404 . S
C2573 H2585 0.930 . S
C2574 C2570 1.524 . S
C2574 H2586 0.956 . S
C2574 H2587 0.961 . S
C2574 H2588 0.961 . S
C2575 C2572 1.539 . S
C2575 H2589 0.958 . S
C2575 H2590 0.961 . S
C2575 H2591 0.960 . S
H2576 C2560 0.931 . S
H2577 C2565 0.929 . S
H2578 C2566 0.960 . S
H2579 C2566 0.962 . S
H2580 C2566 0.960 . S
H2581 C2567 0.961 . S
H2582 C2567 0.961 . S
H2583 C2567 0.961 . S
H2584 C2568 0.931 . S
H2585 C2573 0.930 . S
H2586 C2574 0.956 . S
H2587 C2574 0.961 . S
H2588 C2574 0.961 . S
H2589 C2575 0.958 . S
H2590 C2575 0.961 . S
H2591 C2575 0.960 . S
C2592 C2593 1.391 . S
C2592 C2594 1.394 . S
C2592 H2608 0.931 . S
C2593 C2592 1.391 . S
C2593 C2597 1.376 . S
C2594 C2592 1.394 . S
C2594 C2595 1.369 . S
C2594 C2598 1.531 . S
C2595 C2594 1.369 . S
C2595 C2596 1.410 . S
C2595 C2603 1.503 . S
C2596 C2595 1.410 . S
C2596 C2597 1.392 . S
C2596 C2599 1.511 . S
C2597 C2593 1.376 . S
C2597 C2596 1.392 . S
C2597 H2609 0.929 . S
C2598 C2594 1.531 . S
C2598 H2610 0.960 . S
C2598 H2611 0.962 . S
C2598 H2612 0.960 . S
C2599 C2596 1.511 . S
C2599 H2613 0.961 . S
C2599 H2614 0.961 . S
C2599 H2615 0.961 . S
C2600 C2601 1.370 . S
C2600 C2602 1.363 . S
C2600 H2616 0.931 . S
C2601 C2600 1.370 . S
C2601 C2605 1.408 . S
C2602 C2600 1.363 . S
C2602 C2603 1.370 . S
C2602 C2606 1.524 . S
C2603 C2595 1.503 . S
C2603 C2602 1.370 . S
C2603 C2604 1.403 . S
C2604 C2603 1.403 . S
C2604 C2605 1.404 . S
C2604 C2607 1.539 . S
C2605 C2601 1.408 . S
C2605 C2604 1.404 . S
C2605 H2617 0.930 . S
C2606 C2602 1.524 . S
C2606 H2618 0.956 . S
C2606 H2619 0.961 . S
C2606 H2620 0.961 . S
C2607 C2604 1.539 . S
C2607 H2621 0.958 . S
C2607 H2622 0.961 . S
C2607 H2623 0.960 . S
H2608 C2592 0.931 . S
H2609 C2597 0.929 . S
H2610 C2598 0.960 . S
H2611 C2598 0.962 . S
H2612 C2598 0.960 . S
H2613 C2599 0.961 . S
H2614 C2599 0.961 . S
H2615 C2599 0.961 . S
H2616 C2600 0.931 . S
H2617 C2605 0.930 . S
H2618 C2606 0.956 . S
H2619 C2606 0.961 . S
H2620 C2606 0.961 . S
H2621 C2607 0.958 . S
H2622 C2607 0.961 . S
H2623 C2607 0.960 . S
C2624 C2625 1.391 . S
C2624 C2626 1.394 . S
C2624 H2640 0.931 . S
C2625 C2624 1.391 . S
C2625 C2629 1.376 . S
C2626 C2624 1.394 . S
C2626 C2627 1.369 . S
C2626 C2630 1.531 . S
C2627 C2626 1.369 . S
C2627 C2628 1.410 . S
C2627 C2635 1.503 . S
C2628 C2627 1.410 . S
C2628 C2629 1.392 . S
C2628 C2631 1.511 . S
C2629 C2625 1.376 . S
C2629 C2628 1.392 . S
C2629 H2641 0.929 . S
C2630 C2626 1.531 . S
C2630 H2642 0.960 . S
C2630 H2643 0.962 . S
C2630 H2644 0.960 . S
C2631 C2628 1.511 . S
C2631 H2645 0.961 . S
C2631 H2646 0.961 . S
C2631 H2647 0.961 . S
C2632 C2633 1.370 . S
C2632 C2634 1.363 . S
C2632 H2648 0.931 . S
C2633 C2632 1.370 . S
C2633 C2637 1.408 . S
C2634 C2632 1.363 . S
C2634 C2635 1.370 . S
C2634 C2638 1.524 . S
C2635 C2627 1.503 . S
C2635 C2634 1.370 . S
C2635 C2636 1.403 . S
C2636 C2635 1.403 . S
C2636 C2637 1.404 . S
C2636 C2639 1.539 . S
C2637 C2633 1.408 . S
C2637 C2636 1.404 . S
C2637 H2649 0.930 . S
C2638 C2634 1.524 . S
C2638 H2650 0.956 . S
C2638 H2651 0.961 . S
C2638 H2652 0.961 . S
C2639 C2636 1.539 . S
C2639 H2653 0.958 . S
C2639 H2654 0.961 . S
C2639 H2655 0.960 . S
H2640 C2624 0.931 . S
H2641 C2629 0.929 . S
H2642 C2630 0.960 . S
H2643 C2630 0.962 . S
H2644 C2630 0.960 . S
H2645 C2631 0.961 . S
H2646 C2631 0.961 . S
H2647 C2631 0.961 . S
H2648 C2632 0.931 . S
H2649 C2637 0.930 . S
H2650 C2638 0.956 . S
H2651 C2638 0.961 . S
H2652 C2638 0.961 . S
H2653 C2639 0.958 . S
H2654 C2639 0.961 . S
H2655 C2639 0.960 . S
C2656 C2657 1.391 . S
C2656 C2658 1.394 . S
C2656 H2672 0.931 . S
C2657 C2656 1.391 . S
C2657 C2661 1.376 . S
C2658 C2656 1.394 . S
C2658 C2659 1.369 . S
C2658 C2662 1.531 . S
C2659 C2658 1.369 . S
C2659 C2660 1.410 . S
C2659 C2667 1.503 . S
C2660 C2659 1.410 . S
C2660 C2661 1.392 . S
C2660 C2663 1.511 . S
C2661 C2657 1.376 . S
C2661 C2660 1.392 . S
C2661 H2673 0.929 . S
C2662 C2658 1.531 . S
C2662 H2674 0.960 . S
C2662 H2675 0.962 . S
C2662 H2676 0.960 . S
C2663 C2660 1.511 . S
C2663 H2677 0.961 . S
C2663 H2678 0.961 . S
C2663 H2679 0.961 . S
C2664 C2665 1.370 . S
C2664 C2666 1.363 . S
C2664 H2680 0.931 . S
C2665 C2664 1.370 . S
C2665 C2669 1.408 . S
C2666 C2664 1.363 . S
C2666 C2667 1.370 . S
C2666 C2670 1.524 . S
C2667 C2659 1.503 . S
C2667 C2666 1.370 . S
C2667 C2668 1.403 . S
C2668 C2667 1.403 . S
C2668 C2669 1.404 . S
C2668 C2671 1.539 . S
C2669 C2665 1.408 . S
C2669 C2668 1.404 . S
C2669 H2681 0.930 . S
C2670 C2666 1.524 . S
C2670 H2682 0.956 . S
C2670 H2683 0.961 . S
C2670 H2684 0.961 . S
C2671 C2668 1.539 . S
C2671 H2685 0.958 . S
C2671 H2686 0.961 . S
C2671 H2687 0.960 . S
H2672 C2656 0.931 . S
H2673 C2661 0.929 . S
H2674 C2662 0.960 . S
H2675 C2662 0.962 . S
H2676 C2662 0.960 . S
H2677 C2663 0.961 . S
H2678 C2663 0.961 . S
H2679 C2663 0.961 . S
H2680 C2664 0.931 . S
H2681 C2669 0.930 . S
H2682 C2670 0.956 . S
H2683 C2670 0.961 . S
H2684 C2670 0.961 . S
H2685 C2671 0.958 . S
H2686 C2671 0.961 . S
H2687 C2671 0.960 . S
C2688 C2689 1.391 . S
C2688 C2690 1.394 . S
C2688 H2704 0.931 . S
C2689 C2688 1.391 . S
C2689 C2693 1.376 . S
C2690 C2688 1.394 . S
C2690 C2691 1.369 . S
C2690 C2694 1.531 . S
C2691 C2690 1.369 . S
C2691 C2692 1.410 . S
C2691 C2699 1.503 . S
C2692 C2691 1.410 . S
C2692 C2693 1.392 . S
C2692 C2695 1.511 . S
C2693 C2689 1.376 . S
C2693 C2692 1.392 . S
C2693 H2705 0.929 . S
C2694 C2690 1.531 . S
C2694 H2706 0.960 . S
C2694 H2707 0.962 . S
C2694 H2708 0.960 . S
C2695 C2692 1.511 . S
C2695 H2709 0.961 . S
C2695 H2710 0.961 . S
C2695 H2711 0.961 . S
C2696 C2697 1.370 . S
C2696 C2698 1.363 . S
C2696 H2712 0.931 . S
C2697 C2696 1.370 . S
C2697 C2701 1.408 . S
C2698 C2696 1.363 . S
C2698 C2699 1.370 . S
C2698 C2702 1.524 . S
C2699 C2691 1.503 . S
C2699 C2698 1.370 . S
C2699 C2700 1.403 . S
C2700 C2699 1.403 . S
C2700 C2701 1.404 . S
C2700 C2703 1.539 . S
C2701 C2697 1.408 . S
C2701 C2700 1.404 . S
C2701 H2713 0.930 . S
C2702 C2698 1.524 . S
C2702 H2714 0.956 . S
C2702 H2715 0.961 . S
C2702 H2716 0.961 . S
C2703 C2700 1.539 . S
C2703 H2717 0.958 . S
C2703 H2718 0.961 . S
C2703 H2719 0.960 . S
H2704 C2688 0.931 . S
H2705 C2693 0.929 . S
H2706 C2694 0.960 . S
H2707 C2694 0.962 . S
H2708 C2694 0.960 . S
H2709 C2695 0.961 . S
H2710 C2695 0.961 . S
H2711 C2695 0.961 . S
H2712 C2696 0.931 . S
H2713 C2701 0.930 . S
H2714 C2702 0.956 . S
H2715 C2702 0.961 . S
H2716 C2702 0.961 . S
H2717 C2703 0.958 . S
H2718 C2703 0.961 . S
H2719 C2703 0.960 . S
C2720 C2721 1.391 . S
C2720 C2722 1.394 . S
C2720 H2736 0.931 . S
C2721 C2720 1.391 . S
C2721 C2725 1.376 . S
C2722 C2720 1.394 . S
C2722 C2723 1.369 . S
C2722 C2726 1.531 . S
C2723 C2722 1.369 . S
C2723 C2724 1.410 . S
C2723 C2731 1.503 . S
C2724 C2723 1.410 . S
C2724 C2725 1.392 . S
C2724 C2727 1.511 . S
C2725 C2721 1.376 . S
C2725 C2724 1.392 . S
C2725 H2737 0.929 . S
C2726 C2722 1.531 . S
C2726 H2738 0.960 . S
C2726 H2739 0.962 . S
C2726 H2740 0.960 . S
C2727 C2724 1.511 . S
C2727 H2741 0.961 . S
C2727 H2742 0.961 . S
C2727 H2743 0.961 . S
C2728 C2729 1.370 . S
C2728 C2730 1.363 . S
C2728 H2744 0.931 . S
C2729 C2728 1.370 . S
C2729 C2733 1.408 . S
C2730 C2728 1.363 . S
C2730 C2731 1.370 . S
C2730 C2734 1.524 . S
C2731 C2723 1.503 . S
C2731 C2730 1.370 . S
C2731 C2732 1.403 . S
C2732 C2731 1.403 . S
C2732 C2733 1.404 . S
C2732 C2735 1.539 . S
C2733 C2729 1.408 . S
C2733 C2732 1.404 . S
C2733 H2745 0.930 . S
C2734 C2730 1.524 . S
C2734 H2746 0.956 . S
C2734 H2747 0.961 . S
C2734 H2748 0.961 . S
C2735 C2732 1.539 . S
C2735 H2749 0.958 . S
C2735 H2750 0.961 . S
C2735 H2751 0.960 . S
H2736 C2720 0.931 . S
H2737 C2725 0.929 . S
H2738 C2726 0.960 . S
H2739 C2726 0.962 . S
H2740 C2726 0.960 . S
H2741 C2727 0.961 . S
H2742 C2727 0.961 . S
H2743 C2727 0.961 . S
H2744 C2728 0.931 . S
H2745 C2733 0.930 . S
H2746 C2734 0.956 . S
H2747 C2734 0.961 . S
H2748 C2734 0.961 . S
H2749 C2735 0.958 . S
H2750 C2735 0.961 . S
H2751 C2735 0.960 . S
C2752 C2753 1.391 . S
C2752 C2754 1.394 . S
C2752 H2768 0.931 . S
C2753 C2752 1.391 . S
C2753 C2757 1.376 . S
C2754 C2752 1.394 . S
C2754 C2755 1.369 . S
C2754 C2758 1.531 . S
C2755 C2754 1.369 . S
C2755 C2756 1.410 . S
C2755 C2763 1.503 . S
C2756 C2755 1.410 . S
C2756 C2757 1.392 . S
C2756 C2759 1.511 . S
C2757 C2753 1.376 . S
C2757 C2756 1.392 . S
C2757 H2769 0.929 . S
C2758 C2754 1.531 . S
C2758 H2770 0.960 . S
C2758 H2771 0.962 . S
C2758 H2772 0.960 . S
C2759 C2756 1.511 . S
C2759 H2773 0.961 . S
C2759 H2774 0.961 . S
C2759 H2775 0.961 . S
C2760 C2761 1.370 . S
C2760 C2762 1.363 . S
C2760 H2776 0.931 . S
C2761 C2760 1.370 . S
C2761 C2765 1.408 . S
C2762 C2760 1.363 . S
C2762 C2763 1.370 . S
C2762 C2766 1.524 . S
C2763 C2755 1.503 . S
C2763 C2762 1.370 . S
C2763 C2764 1.403 . S
C2764 C2763 1.403 . S
C2764 C2765 1.404 . S
C2764 C2767 1.539 . S
C2765 C2761 1.408 . S
C2765 C2764 1.404 . S
C2765 H2777 0.930 . S
C2766 C2762 1.524 . S
C2766 H2778 0.956 . S
C2766 H2779 0.961 . S
C2766 H2780 0.961 . S
C2767 C2764 1.539 . S
C2767 H2781 0.958 . S
C2767 H2782 0.961 . S
C2767 H2783 0.960 . S
H2768 C2752 0.931 . S
H2769 C2757 0.929 . S
H2770 C2758 0.960 . S
H2771 C2758 0.962 . S
H2772 C2758 0.960 . S
H2773 C2759 0.961 . S
H2774 C2759 0.961 . S
H2775 C2759 0.961 . S
H2776 C2760 0.931 . S
H2777 C2765 0.930 . S
H2778 C2766 0.956 . S
H2779 C2766 0.961 . S
H2780 C2766 0.961 . S
H2781 C2767 0.958 . S
H2782 C2767 0.961 . S
H2783 C2767 0.960 . S
C2784 C2785 1.391 . S
C2784 C2786 1.394 . S
C2784 H2800 0.931 . S
C2785 C2784 1.391 . S
C2785 C2789 1.376 . S
C2786 C2784 1.394 . S
C2786 C2787 1.369 . S
C2786 C2790 1.531 . S
C2787 C2786 1.369 . S
C2787 C2788 1.410 . S
C2787 C2795 1.503 . S
C2788 C2787 1.410 . S
C2788 C2789 1.392 . S
C2788 C2791 1.511 . S
C2789 C2785 1.376 . S
C2789 C2788 1.392 . S
C2789 H2801 0.929 . S
C2790 C2786 1.531 . S
C2790 H2802 0.960 . S
C2790 H2803 0.962 . S
C2790 H2804 0.960 . S
C2791 C2788 1.511 . S
C2791 H2805 0.961 . S
C2791 H2806 0.961 . S
C2791 H2807 0.961 . S
C2792 C2793 1.370 . S
C2792 C2794 1.363 . S
C2792 H2808 0.931 . S
C2793 C2792 1.370 . S
C2793 C2797 1.408 . S
C2794 C2792 1.363 . S
C2794 C2795 1.370 . S
C2794 C2798 1.524 . S
C2795 C2787 1.503 . S
C2795 C2794 1.370 . S
C2795 C2796 1.403 . S
C2796 C2795 1.403 . S
C2796 C2797 1.404 . S
C2796 C2799 1.539 . S
C2797 C2793 1.408 . S
C2797 C2796 1.404 . S
C2797 H2809 0.930 . S
C2798 C2794 1.524 . S
C2798 H2810 0.956 . S
C2798 H2811 0.961 . S
C2798 H2812 0.961 . S
C2799 C2796 1.539 . S
C2799 H2813 0.958 . S
C2799 H2814 0.961 . S
C2799 H2815 0.960 . S
H2800 C2784 0.931 . S
H2801 C2789 0.929 . S
H2802 C2790 0.960 . S
H2803 C2790 0.962 . S
H2804 C2790 0.960 . S
H2805 C2791 0.961 . S
H2806 C2791 0.961 . S
H2807 C2791 0.961 . S
H2808 C2792 0.931 . S
H2809 C2797 0.930 . S
H2810 C2798 0.956 . S
H2811 C2798 0.961 . S
H2812 C2798 0.961 . S
H2813 C2799 0.958 . S
H2814 C2799 0.961 . S
H2815 C2799 0.960 . S
C2816 C2817 1.391 . S
C2816 C2818 1.394 . S
C2816 H2832 0.931 . S
C2817 C2816 1.391 . S
C2817 C2821 1.376 . S
C2818 C2816 1.394 . S
C2818 C2819 1.369 . S
C2818 C2822 1.531 . S
C2819 C2818 1.369 . S
C2819 C2820 1.410 . S
C2819 C2827 1.503 . S
C2820 C2819 1.410 . S
C2820 C2821 1.392 . S
C2820 C2823 1.511 . S
C2821 C2817 1.376 . S
C2821 C2820 1.392 . S
C2821 H2833 0.929 . S
C2822 C2818 1.531 . S
C2822 H2834 0.960 . S
C2822 H2835 0.962 . S
C2822 H2836 0.960 . S
C2823 C2820 1.511 . S
C2823 H2837 0.961 . S
C2823 H2838 0.961 . S
C2823 H2839 0.961 . S
C2824 C2825 1.370 . S
C2824 C2826 1.363 . S
C2824 H2840 0.931 . S
C2825 C2824 1.370 . S
C2825 C2829 1.408 . S
C2826 C2824 1.363 . S
C2826 C2827 1.370 . S
C2826 C2830 1.524 . S
C2827 C2819 1.503 . S
C2827 C2826 1.370 . S
C2827 C2828 1.403 . S
C2828 C2827 1.403 . S
C2828 C2829 1.404 . S
C2828 C2831 1.539 . S
C2829 C2825 1.408 . S
C2829 C2828 1.404 . S
C2829 H2841 0.930 . S
C2830 C2826 1.524 . S
C2830 H2842 0.956 . S
C2830 H2843 0.961 . S
C2830 H2844 0.961 . S
C2831 C2828 1.539 . S
C2831 H2845 0.958 . S
C2831 H2846 0.961 . S
C2831 H2847 0.960 . S
H2832 C2816 0.931 . S
H2833 C2821 0.929 . S
H2834 C2822 0.960 . S
H2835 C2822 0.962 . S
H2836 C2822 0.960 . S
H2837 C2823 0.961 . S
H2838 C2823 0.961 . S
H2839 C2823 0.961 . S
H2840 C2824 0.931 . S
H2841 C2829 0.930 . S
H2842 C2830 0.956 . S
H2843 C2830 0.961 . S
H2844 C2830 0.961 . S
H2845 C2831 0.958 . S
H2846 C2831 0.961 . S
H2847 C2831 0.960 . S
C2848 C2849 1.391 . S
C2848 C2850 1.394 . S
C2848 H2864 0.931 . S
C2849 C2848 1.391 . S
C2849 C2853 1.376 . S
C2850 C2848 1.394 . S
C2850 C2851 1.369 . S
C2850 C2854 1.531 . S
C2851 C2850 1.369 . S
C2851 C2852 1.410 . S
C2851 C2859 1.503 . S
C2852 C2851 1.410 . S
C2852 C2853 1.392 . S
C2852 C2855 1.511 . S
C2853 C2849 1.376 . S
C2853 C2852 1.392 . S
C2853 H2865 0.929 . S
C2854 C2850 1.531 . S
C2854 H2866 0.960 . S
C2854 H2867 0.962 . S
C2854 H2868 0.960 . S
C2855 C2852 1.511 . S
C2855 H2869 0.961 . S
C2855 H2870 0.961 . S
C2855 H2871 0.961 . S
C2856 C2857 1.370 . S
C2856 C2858 1.363 . S
C2856 H2872 0.931 . S
C2857 C2856 1.370 . S
C2857 C2861 1.408 . S
C2858 C2856 1.363 . S
C2858 C2859 1.370 . S
C2858 C2862 1.524 . S
C2859 C2851 1.503 . S
C2859 C2858 1.370 . S
C2859 C2860 1.403 . S
C2860 C2859 1.403 . S
C2860 C2861 1.404 . S
C2860 C2863 1.539 . S
C2861 C2857 1.408 . S
C2861 C2860 1.404 . S
C2861 H2873 0.930 . S
C2862 C2858 1.524 . S
C2862 H2874 0.956 . S
C2862 H2875 0.961 . S
C2862 H2876 0.961 . S
C2863 C2860 1.539 . S
C2863 H2877 0.958 . S
C2863 H2878 0.961 . S
C2863 H2879 0.960 . S
H2864 C2848 0.931 . S
H2865 C2853 0.929 . S
H2866 C2854 0.960 . S
H2867 C2854 0.962 . S
H2868 C2854 0.960 . S
H2869 C2855 0.961 . S
H2870 C2855 0.961 . S
H2871 C2855 0.961 . S
H2872 C2856 0.931 . S
H2873 C2861 0.930 . S
H2874 C2862 0.956 . S
H2875 C2862 0.961 . S
H2876 C2862 0.961 . S
H2877 C2863 0.958 . S
H2878 C2863 0.961 . S
H2879 C2863 0.960 . S
C2880 C2881 1.391 . S
C2880 C2882 1.394 . S
C2880 H2896 0.931 . S
C2881 C2880 1.391 . S
C2881 C2885 1.376 . S
C2882 C2880 1.394 . S
C2882 C2883 1.369 . S
C2882 C2886 1.531 . S
C2883 C2882 1.369 . S
C2883 C2884 1.410 . S
C2883 C2891 1.503 . S
C2884 C2883 1.410 . S
C2884 C2885 1.392 . S
C2884 C2887 1.511 . S
C2885 C2881 1.376 . S
C2885 C2884 1.392 . S
C2885 H2897 0.929 . S
C2886 C2882 1.531 . S
C2886 H2898 0.960 . S
C2886 H2899 0.962 . S
C2886 H2900 0.960 . S
C2887 C2884 1.511 . S
C2887 H2901 0.961 . S
C2887 H2902 0.961 . S
C2887 H2903 0.961 . S
C2888 C2889 1.370 . S
C2888 C2890 1.363 . S
C2888 H2904 0.931 . S
C2889 C2888 1.370 . S
C2889 C2893 1.408 . S
C2890 C2888 1.363 . S
C2890 C2891 1.370 . S
C2890 C2894 1.524 . S
C2891 C2883 1.503 . S
C2891 C2890 1.370 . S
C2891 C2892 1.403 . S
C2892 C2891 1.403 . S
C2892 C2893 1.404 . S
C2892 C2895 1.539 . S
C2893 C2889 1.408 . S
C2893 C2892 1.404 . S
C2893 H2905 0.930 . S
C2894 C2890 1.524 . S
C2894 H2906 0.956 . S
C2894 H2907 0.961 . S
C2894 H2908 0.961 . S
C2895 C2892 1.539 . S
C2895 H2909 0.958 . S
C2895 H2910 0.961 . S
C2895 H2911 0.960 . S
H2896 C2880 0.931 . S
H2897 C2885 0.929 . S
H2898 C2886 0.960 . S
H2899 C2886 0.962 . S
H2900 C2886 0.960 . S
H2901 C2887 0.961 . S
H2902 C2887 0.961 . S
H2903 C2887 0.961 . S
H2904 C2888 0.931 . S
H2905 C2893 0.930 . S
H2906 C2894 0.956 . S
H2907 C2894 0.961 . S
H2908 C2894 0.961 . S
H2909 C2895 0.958 . S
H2910 C2895 0.961 . S
H2911 C2895 0.960 . S
C2912 C2913 1.391 . S
C2912 C2914 1.394 . S
C2912 H2928 0.931 . S
C2913 C2912 1.391 . S
C2913 C2917 1.376 . S
C2914 C2912 1.394 . S
C2914 C2915 1.369 . S
C2914 C2918 1.531 . S
C2915 C2914 1.369 . S
C2915 C2916 1.410 . S
C2915 C2923 1.503 . S
C2916 C2915 1.410 . S
C2916 C2917 1.392 . S
C2916 C2919 1.511 . S
C2917 C2913 1.376 . S
C2917 C2916 1.392 . S
C2917 H2929 0.929 . S
C2918 C2914 1.531 . S
C2918 H2930 0.960 . S
C2918 H2931 0.962 . S
C2918 H2932 0.960 . S
C2919 C2916 1.511 . S
C2919 H2933 0.961 . S
C2919 H2934 0.961 . S
C2919 H2935 0.961 . S
C2920 C2921 1.370 . S
C2920 C2922 1.363 . S
C2920 H2936 0.931 . S
C2921 C2920 1.370 . S
C2921 C2925 1.408 . S
C2922 C2920 1.363 . S
C2922 C2923 1.370 . S
C2922 C2926 1.524 . S
C2923 C2915 1.503 . S
C2923 C2922 1.370 . S
C2923 C2924 1.403 . S
C2924 C2923 1.403 . S
C2924 C2925 1.404 . S
C2924 C2927 1.539 . S
C2925 C2921 1.408 . S
C2925 C2924 1.404 . S
C2925 H2937 0.930 . S
C2926 C2922 1.524 . S
C2926 H2938 0.956 . S
C2926 H2939 0.961 . S
C2926 H2940 0.961 . S
C2927 C2924 1.539 . S
C2927 H2941 0.958 . S
C2927 H2942 0.961 . S
C2927 H2943 0.960 . S
H2928 C2912 0.931 . S
H2929 C2917 0.929 . S
H2930 C2918 0.960 . S
H2931 C2918 0.962 . S
H2932 C2918 0.960 . S
H2933 C2919 0.961 . S
H2934 C2919 0.961 . S
H2935 C2919 0.961 . S
H2936 C2920 0.931 . S
H2937 C2925 0.930 . S
H2938 C2926 0.956 . S
H2939 C2926 0.961 . S
H2940 C2926 0.961 . S
H2941 C2927 0.958 . S
H2942 C2927 0.961 . S
H2943 C2927 0.960 . S
C2944 C2945 1.391 . S
C2944 C2946 1.394 . S
C2944 H2960 0.931 . S
C2945 C2944 1.391 . S
C2945 C2949 1.376 . S
C2946 C2944 1.394 . S
C2946 C2947 1.369 . S
C2946 C2950 1.531 . S
C2947 C2946 1.369 . S
C2947 C2948 1.410 . S
C2947 C2955 1.503 . S
C2948 C2947 1.410 . S
C2948 C2949 1.392 . S
C2948 C2951 1.511 . S
C2949 C2945 1.376 . S
C2949 C2948 1.392 . S
C2949 H2961 0.929 . S
C2950 C2946 1.531 . S
C2950 H2962 0.960 . S
C2950 H2963 0.962 . S
C2950 H2964 0.960 . S
C2951 C2948 1.511 . S
C2951 H2965 0.961 . S
C2951 H2966 0.961 . S
C2951 H2967 0.961 . S
C2952 C2953 1.370 . S
C2952 C2954 1.363 . S
C2952 H2968 0.931 . S
C2953 C2952 1.370 . S
C2953 C2957 1.408 . S
C2954 C2952 1.363 . S
C2954 C2955 1.370 . S
C2954 C2958 1.524 . S
C2955 C2947 1.503 . S
C2955 C2954 1.370 . S
C2955 C2956 1.403 . S
C2956 C2955 1.403 . S
C2956 C2957 1.404 . S
C2956 C2959 1.539 . S
C2957 C2953 1.408 . S
C2957 C2956 1.404 . S
C2957 H2969 0.930 . S
C2958 C2954 1.524 . S
C2958 H2970 0.956 . S
C2958 H2971 0.961 . S
C2958 H2972 0.961 . S
C2959 C2956 1.539 . S
C2959 H2973 0.958 . S
C2959 H2974 0.961 . S
C2959 H2975 0.960 . S
H2960 C2944 0.931 . S
H2961 C2949 0.929 . S
H2962 C2950 0.960 . S
H2963 C2950 0.962 . S
H2964 C2950 0.960 . S
H2965 C2951 0.961 . S
H2966 C2951 0.961 . S
H2967 C2951 0.961 . S
H2968 C2952 0.931 . S
H2969 C2957 0.930 . S
H2970 C2958 0.956 . S
H2971 C2958 0.961 . S
H2972 C2958 0.961 . S
H2973 C2959 0.958 . S
H2974 C2959 0.961 . S
H2975 C2959 0.960 . S
C2976 C2977 1.391 . S
C2976 C2978 1.394 . S
C2976 H2992 0.931 . S
C2977 C2976 1.391 . S
C2977 C2981 1.376 . S
C2978 C2976 1.394 . S
C2978 C2979 1.369 . S
C2978 C2982 1.531 . S
C2979 C2978 1.369 . S
C2979 C2980 1.410 . S
C2979 C2987 1.503 . S
C2980 C2979 1.410 . S
C2980 C2981 1.392 . S
C2980 C2983 1.511 . S
C2981 C2977 1.376 . S
C2981 C2980 1.392 . S
C2981 H2993 0.929 . S
C2982 C2978 1.531 . S
C2982 H2994 0.960 . S
C2982 H2995 0.962 . S
C2982 H2996 0.960 . S
C2983 C2980 1.511 . S
C2983 H2997 0.961 . S
C2983 H2998 0.961 . S
C2983 H2999 0.961 . S
C2984 C2985 1.370 . S
C2984 C2986 1.363 . S
C2984 H3000 0.931 . S
C2985 C2984 1.370 . S
C2985 C2989 1.408 . S
C2986 C2984 1.363 . S
C2986 C2987 1.370 . S
C2986 C2990 1.524 . S
C2987 C2979 1.503 . S
C2987 C2986 1.370 . S
C2987 C2988 1.403 . S
C2988 C2987 1.403 . S
C2988 C2989 1.404 . S
C2988 C2991 1.539 . S
C2989 C2985 1.408 . S
C2989 C2988 1.404 . S
C2989 H3001 0.930 . S
C2990 C2986 1.524 . S
C2990 H3002 0.956 . S
C2990 H3003 0.961 . S
C2990 H3004 0.961 . S
C2991 C2988 1.539 . S
C2991 H3005 0.958 . S
C2991 H3006 0.961 . S
C2991 H3007 0.960 . S
H2992 C2976 0.931 . S
H2993 C2981 0.929 . S
H2994 C2982 0.960 . S
H2995 C2982 0.962 . S
H2996 C2982 0.960 . S
H2997 C2983 0.961 . S
H2998 C2983 0.961 . S
H2999 C2983 0.961 . S
H3000 C2984 0.931 . S
H3001 C2989 0.930 . S
H3002 C2990 0.956 . S
H3003 C2990 0.961 . S
H3004 C2990 0.961 . S
H3005 C2991 0.958 . S
H3006 C2991 0.961 . S
H3007 C2991 0.960 . S
C3008 C3009 1.391 . S
C3008 C3010 1.394 . S
C3008 H3024 0.931 . S
C3009 C3008 1.391 . S
C3009 C3013 1.376 . S
C3010 C3008 1.394 . S
C3010 C3011 1.369 . S
C3010 C3014 1.531 . S
C3011 C3010 1.369 . S
C3011 C3012 1.410 . S
C3011 C3019 1.503 1_545 S
C3012 C3011 1.410 . S
C3012 C3013 1.392 . S
C3012 C3015 1.511 . S
C3013 C3009 1.376 . S
C3013 C3012 1.392 . S
C3013 H3025 0.929 . S
C3014 C3010 1.531 . S
C3014 H3026 0.962 . S
C3014 H3027 0.962 . S
C3014 H3028 0.960 . S
C3015 C3012 1.511 . S
C3015 H3029 0.961 . S
C3015 H3030 0.961 . S
C3015 H3031 0.961 . S
C3016 C3017 1.370 . S
C3016 C3018 1.363 . S
C3016 H3032 0.931 . S
C3017 C3016 1.370 . S
C3017 C3021 1.408 . S
C3018 C3016 1.363 . S
C3018 C3019 1.370 . S
C3018 C3022 1.524 . S
C3019 C3011 1.503 1_565 S
C3019 C3018 1.370 . S
C3019 C3020 1.403 . S
C3020 C3019 1.403 . S
C3020 C3021 1.404 . S
C3020 C3023 1.539 1_565 S
C3021 C3017 1.408 . S
C3021 C3020 1.404 . S
C3021 H3033 0.930 . S
C3022 C3018 1.524 . S
C3022 H3034 0.956 . S
C3022 H3035 0.961 1_565 S
C3022 H3036 0.961 . S
C3023 C3020 1.539 1_545 S
C3023 H3037 0.958 . S
C3023 H3038 0.961 . S
C3023 H3039 0.960 . S
H3024 C3008 0.931 . S
H3025 C3013 0.929 . S
H3026 C3014 0.962 . S
H3027 C3014 0.962 . S
H3028 C3014 0.960 . S
H3029 C3015 0.961 . S
H3030 C3015 0.961 . S
H3031 C3015 0.961 . S
H3032 C3016 0.931 . S
H3033 C3021 0.930 . S
H3034 C3022 0.956 . S
H3035 C3022 0.961 1_545 S
H3036 C3022 0.961 . S
H3037 C3023 0.958 . S
H3038 C3023 0.961 . S
H3039 C3023 0.960 . S
C3040 C3041 1.391 . S
C3040 C3042 1.394 . S
C3040 H3056 0.931 . S
C3041 C3040 1.391 . S
C3041 C3045 1.376 . S
C3042 C3040 1.394 . S
C3042 C3043 1.381 . S
C3042 C3046 1.531 . S
C3043 C3042 1.381 . S
C3043 C3044 1.428 . S
C3043 C3051 1.473 1_655 S
C3044 C3043 1.428 . S
C3044 C3045 1.392 . S
C3044 C3047 1.511 1_655 S
C3045 C3041 1.376 . S
C3045 C3044 1.392 . S
C3045 H3057 0.929 . S
C3046 C3042 1.531 . S
C3046 H3058 0.960 . S
C3046 H3059 0.962 . S
C3046 H3060 0.960 . S
C3047 C3044 1.511 1_455 S
C3047 H3061 0.961 . S
C3047 H3062 0.961 . S
C3047 H3063 0.961 . S
C3048 C3049 1.370 . S
C3048 C3050 1.363 . S
C3048 H3064 0.931 . S
C3049 C3048 1.370 . S
C3049 C3053 1.408 . S
C3050 C3048 1.363 . S
C3050 C3051 1.370 . S
C3050 C3054 1.524 . S
C3051 C3043 1.473 1_455 S
C3051 C3050 1.370 . S
C3051 C3052 1.403 . S
C3052 C3051 1.403 . S
C3052 C3053 1.404 . S
C3052 C3055 1.539 . S
C3053 C3049 1.408 . S
C3053 C3052 1.404 . S
C3053 H3065 0.930 . S
C3054 C3050 1.524 . S
C3054 H3066 0.956 . S
C3054 H3067 0.961 . S
C3054 H3068 0.961 . S
C3055 C3052 1.539 . S
C3055 H3069 0.958 . S
C3055 H3070 0.961 . S
C3055 H3071 0.960 . S
H3056 C3040 0.931 . S
H3057 C3045 0.929 . S
H3058 C3046 0.960 . S
H3059 C3046 0.962 . S
H3060 C3046 0.960 . S
H3061 C3047 0.961 . S
H3062 C3047 0.961 . S
H3063 C3047 0.961 . S
H3064 C3048 0.931 . S
H3065 C3053 0.930 . S
H3066 C3054 0.956 . S
H3067 C3054 0.961 . S
H3068 C3054 0.961 . S
H3069 C3055 0.958 . S
H3070 C3055 0.961 . S
H3071 C3055 0.960 . S
C3072 C3073 1.391 . S
C3072 C3074 1.394 . S
C3072 H3088 0.931 . S
C3073 C3072 1.391 . S
C3073 C3077 1.376 . S
C3074 C3072 1.394 . S
C3074 C3075 1.369 . S
C3074 C3078 1.531 . S
C3075 C3074 1.369 . S
C3075 C3076 1.410 . S
C3075 C3083 1.503 . S
C3076 C3075 1.410 . S
C3076 C3077 1.392 . S
C3076 C3079 1.511 . S
C3077 C3073 1.376 . S
C3077 C3076 1.392 . S
C3077 H3089 0.929 . S
C3078 C3074 1.531 . S
C3078 H3090 0.960 . S
C3078 H3091 0.962 . S
C3078 H3092 0.960 . S
C3079 C3076 1.511 . S
C3079 H3093 0.961 . S
C3079 H3094 0.961 . S
C3079 H3095 0.961 . S
C3080 C3081 1.370 . S
C3080 C3082 1.363 . S
C3080 H3096 0.931 . S
C3081 C3080 1.370 . S
C3081 C3085 1.408 . S
C3082 C3080 1.363 . S
C3082 C3083 1.370 . S
C3082 C3086 1.524 . S
C3083 C3075 1.503 . S
C3083 C3082 1.370 . S
C3083 C3084 1.403 . S
C3084 C3083 1.403 . S
C3084 C3085 1.404 . S
C3084 C3087 1.539 . S
C3085 C3081 1.408 . S
C3085 C3084 1.404 . S
C3085 H3097 0.930 . S
C3086 C3082 1.524 . S
C3086 H3098 0.956 . S
C3086 H3099 0.961 . S
C3086 H3100 0.961 . S
C3087 C3084 1.539 . S
C3087 H3101 0.958 . S
C3087 H3102 0.961 . S
C3087 H3103 0.960 . S
H3088 C3072 0.931 . S
H3089 C3077 0.929 . S
H3090 C3078 0.960 . S
H3091 C3078 0.962 . S
H3092 C3078 0.960 . S
H3093 C3079 0.961 . S
H3094 C3079 0.961 . S
H3095 C3079 0.961 . S
H3096 C3080 0.931 . S
H3097 C3085 0.930 . S
H3098 C3086 0.956 . S
H3099 C3086 0.961 . S
H3100 C3086 0.961 . S
H3101 C3087 0.958 . S
H3102 C3087 0.961 . S
H3103 C3087 0.960 . S
C3104 C3105 1.391 . S
C3104 C3106 1.394 . S
C3104 H3120 0.931 . S
C3105 C3104 1.391 . S
C3105 C3109 1.376 . S
C3106 C3104 1.394 . S
C3106 C3107 1.369 . S
C3106 C3110 1.531 . S
C3107 C3106 1.369 . S
C3107 C3108 1.410 . S
C3107 C3115 1.503 . S
C3108 C3107 1.410 . S
C3108 C3109 1.392 . S
C3108 C3111 1.511 . S
C3109 C3105 1.376 . S
C3109 C3108 1.392 . S
C3109 H3121 0.929 . S
C3110 C3106 1.531 . S
C3110 H3122 0.960 . S
C3110 H3123 0.962 . S
C3110 H3124 0.960 . S
C3111 C3108 1.511 . S
C3111 H3125 0.961 . S
C3111 H3126 0.961 . S
C3111 H3127 0.961 . S
C3112 C3113 1.370 . S
C3112 C3114 1.363 . S
C3112 H3128 0.931 . S
C3113 C3112 1.370 . S
C3113 C3117 1.408 . S
C3114 C3112 1.363 . S
C3114 C3115 1.370 . S
C3114 C3118 1.524 . S
C3115 C3107 1.503 . S
C3115 C3114 1.370 . S
C3115 C3116 1.403 . S
C3116 C3115 1.403 . S
C3116 C3117 1.404 . S
C3116 C3119 1.539 . S
C3117 C3113 1.408 . S
C3117 C3116 1.404 . S
C3117 H3129 0.930 . S
C3118 C3114 1.524 . S
C3118 H3130 0.956 . S
C3118 H3131 0.961 . S
C3118 H3132 0.961 . S
C3119 C3116 1.539 . S
C3119 H3133 0.958 . S
C3119 H3134 0.961 . S
C3119 H3135 0.960 . S
H3120 C3104 0.931 . S
H3121 C3109 0.929 . S
H3122 C3110 0.960 . S
H3123 C3110 0.962 . S
H3124 C3110 0.960 . S
H3125 C3111 0.961 . S
H3126 C3111 0.961 . S
H3127 C3111 0.961 . S
H3128 C3112 0.931 . S
H3129 C3117 0.930 . S
H3130 C3118 0.956 . S
H3131 C3118 0.961 . S
H3132 C3118 0.961 . S
H3133 C3119 0.958 . S
H3134 C3119 0.961 . S
H3135 C3119 0.960 . S
C3136 C3137 1.391 . S
C3136 C3138 1.394 . S
C3136 H3152 0.931 . S
C3137 C3136 1.391 . S
C3137 C3141 1.376 . S
C3138 C3136 1.394 . S
C3138 C3139 1.369 . S
C3138 C3142 1.531 . S
C3139 C3138 1.369 . S
C3139 C3140 1.410 . S
C3139 C3147 1.503 . S
C3140 C3139 1.410 . S
C3140 C3141 1.392 . S
C3140 C3143 1.511 . S
C3141 C3137 1.376 . S
C3141 C3140 1.392 . S
C3141 H3153 0.929 . S
C3142 C3138 1.531 . S
C3142 H3154 0.960 . S
C3142 H3155 0.962 . S
C3142 H3156 0.960 . S
C3143 C3140 1.511 . S
C3143 H3157 0.961 . S
C3143 H3158 0.961 . S
C3143 H3159 0.961 . S
C3144 C3145 1.370 . S
C3144 C3146 1.363 . S
C3144 H3160 0.931 . S
C3145 C3144 1.370 . S
C3145 C3149 1.408 . S
C3146 C3144 1.363 . S
C3146 C3147 1.370 . S
C3146 C3150 1.524 . S
C3147 C3139 1.503 . S
C3147 C3146 1.370 . S
C3147 C3148 1.403 . S
C3148 C3147 1.403 . S
C3148 C3149 1.404 . S
C3148 C3151 1.539 . S
C3149 C3145 1.408 . S
C3149 C3148 1.404 . S
C3149 H3161 0.930 . S
C3150 C3146 1.524 . S
C3150 H3162 0.956 . S
C3150 H3163 0.961 . S
C3150 H3164 0.961 . S
C3151 C3148 1.539 . S
C3151 H3165 0.958 . S
C3151 H3166 0.961 . S
C3151 H3167 0.960 . S
H3152 C3136 0.931 . S
H3153 C3141 0.929 . S
H3154 C3142 0.960 . S
H3155 C3142 0.962 . S
H3156 C3142 0.960 . S
H3157 C3143 0.961 . S
H3158 C3143 0.961 . S
H3159 C3143 0.961 . S
H3160 C3144 0.931 . S
H3161 C3149 0.930 . S
H3162 C3150 0.956 . S
H3163 C3150 0.961 . S
H3164 C3150 0.961 . S
H3165 C3151 0.958 . S
H3166 C3151 0.961 . S
H3167 C3151 0.960 . S
C3168 C3169 1.391 . S
C3168 C3170 1.394 . S
C3168 H3184 0.931 . S
C3169 C3168 1.391 . S
C3169 C3173 1.376 . S
C3170 C3168 1.394 . S
C3170 C3171 1.369 . S
C3170 C3174 1.531 . S
C3171 C3170 1.369 . S
C3171 C3172 1.410 . S
C3171 C3179 1.503 . S
C3172 C3171 1.410 . S
C3172 C3173 1.392 . S
C3172 C3175 1.511 . S
C3173 C3169 1.376 . S
C3173 C3172 1.392 . S
C3173 H3185 0.929 . S
C3174 C3170 1.531 . S
C3174 H3186 0.960 . S
C3174 H3187 0.962 . S
C3174 H3188 0.960 . S
C3175 C3172 1.511 . S
C3175 H3189 0.961 . S
C3175 H3190 0.961 . S
C3175 H3191 0.961 . S
C3176 C3177 1.370 . S
C3176 C3178 1.363 . S
C3176 H3192 0.931 . S
C3177 C3176 1.370 . S
C3177 C3181 1.408 . S
C3178 C3176 1.363 . S
C3178 C3179 1.370 . S
C3178 C3182 1.524 . S
C3179 C3171 1.503 . S
C3179 C3178 1.370 . S
C3179 C3180 1.403 . S
C3180 C3179 1.403 . S
C3180 C3181 1.404 . S
C3180 C3183 1.539 . S
C3181 C3177 1.408 . S
C3181 C3180 1.404 . S
C3181 H3193 0.930 . S
C3182 C3178 1.524 . S
C3182 H3194 0.956 . S
C3182 H3195 0.961 . S
C3182 H3196 0.961 . S
C3183 C3180 1.539 . S
C3183 H3197 0.958 . S
C3183 H3198 0.961 . S
C3183 H3199 0.960 . S
H3184 C3168 0.931 . S
H3185 C3173 0.929 . S
H3186 C3174 0.960 . S
H3187 C3174 0.962 . S
H3188 C3174 0.960 . S
H3189 C3175 0.961 . S
H3190 C3175 0.961 . S
H3191 C3175 0.961 . S
H3192 C3176 0.931 . S
H3193 C3181 0.930 . S
H3194 C3182 0.956 . S
H3195 C3182 0.961 . S
H3196 C3182 0.961 . S
H3197 C3183 0.958 . S
H3198 C3183 0.961 . S
H3199 C3183 0.960 . S
C3200 C3201 1.391 . S
C3200 C3202 1.394 . S
C3200 H3216 0.931 . S
C3201 C3200 1.391 . S
C3201 C3205 1.376 . S
C3202 C3200 1.394 . S
C3202 C3203 1.369 . S
C3202 C3206 1.531 . S
C3203 C3202 1.369 . S
C3203 C3204 1.410 . S
C3203 C3211 1.503 . S
C3204 C3203 1.410 . S
C3204 C3205 1.392 . S
C3204 C3207 1.511 . S
C3205 C3201 1.376 . S
C3205 C3204 1.392 . S
C3205 H3217 0.929 . S
C3206 C3202 1.531 . S
C3206 H3218 0.960 . S
C3206 H3219 0.962 . S
C3206 H3220 0.960 . S
C3207 C3204 1.511 . S
C3207 H3221 0.961 . S
C3207 H3222 0.961 . S
C3207 H3223 0.961 . S
C3208 C3209 1.370 . S
C3208 C3210 1.363 . S
C3208 H3224 0.931 . S
C3209 C3208 1.370 . S
C3209 C3213 1.408 . S
C3210 C3208 1.363 . S
C3210 C3211 1.370 . S
C3210 C3214 1.524 . S
C3211 C3203 1.503 . S
C3211 C3210 1.370 . S
C3211 C3212 1.403 . S
C3212 C3211 1.403 . S
C3212 C3213 1.404 . S
C3212 C3215 1.539 . S
C3213 C3209 1.408 . S
C3213 C3212 1.404 . S
C3213 H3225 0.930 . S
C3214 C3210 1.524 . S
C3214 H3226 0.956 . S
C3214 H3227 0.961 . S
C3214 H3228 0.961 . S
C3215 C3212 1.539 . S
C3215 H3229 0.958 . S
C3215 H3230 0.961 . S
C3215 H3231 0.960 . S
H3216 C3200 0.931 . S
H3217 C3205 0.929 . S
H3218 C3206 0.960 . S
H3219 C3206 0.962 . S
H3220 C3206 0.960 . S
H3221 C3207 0.961 . S
H3222 C3207 0.961 . S
H3223 C3207 0.961 . S
H3224 C3208 0.931 . S
H3225 C3213 0.930 . S
H3226 C3214 0.956 . S
H3227 C3214 0.961 . S
H3228 C3214 0.961 . S
H3229 C3215 0.958 . S
H3230 C3215 0.961 . S
H3231 C3215 0.960 . S
C3232 C3233 1.391 . S
C3232 C3234 1.394 . S
C3232 H3248 0.931 . S
C3233 C3232 1.391 . S
C3233 C3237 1.376 . S
C3234 C3232 1.394 . S
C3234 C3235 1.369 . S
C3234 C3238 1.531 . S
C3235 C3234 1.369 . S
C3235 C3236 1.410 . S
C3235 C3243 1.503 . S
C3236 C3235 1.410 . S
C3236 C3237 1.392 . S
C3236 C3239 1.511 . S
C3237 C3233 1.376 . S
C3237 C3236 1.392 . S
C3237 H3249 0.929 . S
C3238 C3234 1.531 . S
C3238 H3250 0.960 . S
C3238 H3251 0.962 . S
C3238 H3252 0.960 . S
C3239 C3236 1.511 . S
C3239 H3253 0.961 . S
C3239 H3254 0.961 . S
C3239 H3255 0.961 . S
C3240 C3241 1.370 . S
C3240 C3242 1.363 . S
C3240 H3256 0.931 . S
C3241 C3240 1.370 . S
C3241 C3245 1.408 . S
C3242 C3240 1.363 . S
C3242 C3243 1.370 . S
C3242 C3246 1.524 . S
C3243 C3235 1.503 . S
C3243 C3242 1.370 . S
C3243 C3244 1.403 . S
C3244 C3243 1.403 . S
C3244 C3245 1.404 . S
C3244 C3247 1.539 . S
C3245 C3241 1.408 . S
C3245 C3244 1.404 . S
C3245 H3257 0.930 . S
C3246 C3242 1.524 . S
C3246 H3258 0.956 . S
C3246 H3259 0.961 . S
C3246 H3260 0.961 . S
C3247 C3244 1.539 . S
C3247 H3261 0.958 . S
C3247 H3262 0.961 . S
C3247 H3263 0.960 . S
H3248 C3232 0.931 . S
H3249 C3237 0.929 . S
H3250 C3238 0.960 . S
H3251 C3238 0.962 . S
H3252 C3238 0.960 . S
H3253 C3239 0.961 . S
H3254 C3239 0.961 . S
H3255 C3239 0.961 . S
H3256 C3240 0.931 . S
H3257 C3245 0.930 . S
H3258 C3246 0.956 . S
H3259 C3246 0.961 . S
H3260 C3246 0.961 . S
H3261 C3247 0.958 . S
H3262 C3247 0.961 . S
H3263 C3247 0.960 . S
C3264 C3265 1.391 . S
C3264 C3266 1.394 . S
C3264 H3280 0.931 . S
C3265 C3264 1.391 . S
C3265 C3269 1.376 . S
C3266 C3264 1.394 . S
C3266 C3267 1.369 . S
C3266 C3270 1.531 . S
C3267 C3266 1.369 . S
C3267 C3268 1.410 . S
C3267 C3275 1.503 . S
C3268 C3267 1.410 . S
C3268 C3269 1.392 . S
C3268 C3271 1.511 . S
C3269 C3265 1.376 . S
C3269 C3268 1.392 . S
C3269 H3281 0.929 . S
C3270 C3266 1.531 . S
C3270 H3282 0.960 . S
C3270 H3283 0.962 . S
C3270 H3284 0.960 . S
C3271 C3268 1.511 . S
C3271 H3285 0.961 . S
C3271 H3286 0.961 . S
C3271 H3287 0.961 . S
C3272 C3273 1.370 . S
C3272 C3274 1.363 . S
C3272 H3288 0.931 . S
C3273 C3272 1.370 . S
C3273 C3277 1.408 . S
C3274 C3272 1.363 . S
C3274 C3275 1.370 . S
C3274 C3278 1.524 . S
C3275 C3267 1.503 . S
C3275 C3274 1.370 . S
C3275 C3276 1.403 . S
C3276 C3275 1.403 . S
C3276 C3277 1.404 . S
C3276 C3279 1.539 . S
C3277 C3273 1.408 . S
C3277 C3276 1.404 . S
C3277 H3289 0.930 . S
C3278 C3274 1.524 . S
C3278 H3290 0.956 . S
C3278 H3291 0.961 . S
C3278 H3292 0.961 . S
C3279 C3276 1.539 . S
C3279 H3293 0.958 . S
C3279 H3294 0.961 . S
C3279 H3295 0.960 . S
H3280 C3264 0.931 . S
H3281 C3269 0.929 . S
H3282 C3270 0.960 . S
H3283 C3270 0.962 . S
H3284 C3270 0.960 . S
H3285 C3271 0.961 . S
H3286 C3271 0.961 . S
H3287 C3271 0.961 . S
H3288 C3272 0.931 . S
H3289 C3277 0.930 . S
H3290 C3278 0.956 . S
H3291 C3278 0.961 . S
H3292 C3278 0.961 . S
H3293 C3279 0.958 . S
H3294 C3279 0.961 . S
H3295 C3279 0.960 . S
C3296 C3297 1.391 . S
C3296 C3298 1.394 . S
C3296 H3312 0.931 . S
C3297 C3296 1.391 . S
C3297 C3301 1.376 . S
C3298 C3296 1.394 . S
C3298 C3299 1.369 . S
C3298 C3302 1.531 . S
C3299 C3298 1.369 . S
C3299 C3300 1.410 . S
C3299 C3307 1.503 1_545 S
C3300 C3299 1.410 . S
C3300 C3301 1.392 . S
C3300 C3303 1.511 . S
C3301 C3297 1.376 . S
C3301 C3300 1.392 . S
C3301 H3313 0.929 . S
C3302 C3298 1.531 . S
C3302 H3314 0.960 1_545 S
C3302 H3315 0.962 1_545 S
C3302 H3316 0.960 . S
C3303 C3300 1.511 . S
C3303 H3317 0.961 . S
C3303 H3318 0.961 . S
C3303 H3319 0.961 . S
C3304 C3305 1.370 . S
C3304 C3306 1.363 . S
C3304 H3320 0.931 . S
C3305 C3304 1.370 . S
C3305 C3309 1.408 . S
C3306 C3304 1.363 . S
C3306 C3307 1.370 . S
C3306 C3310 1.524 . S
C3307 C3299 1.503 1_565 S
C3307 C3306 1.370 . S
C3307 C3308 1.403 . S
C3308 C3307 1.403 . S
C3308 C3309 1.404 . S
C3308 C3311 1.539 1_565 S
C3309 C3305 1.408 . S
C3309 C3308 1.404 . S
C3309 H3321 0.930 . S
C3310 C3306 1.524 . S
C3310 H3322 0.956 . S
C3310 H3323 0.961 1_565 S
C3310 H3324 0.961 . S
C3311 C3308 1.539 1_545 S
C3311 H3325 0.958 . S
C3311 H3326 0.961 . S
C3311 H3327 0.960 . S
H3312 C3296 0.931 . S
H3313 C3301 0.929 . S
H3314 C3302 0.960 1_565 S
H3315 C3302 0.962 1_565 S
H3316 C3302 0.960 . S
H3317 C3303 0.961 . S
H3318 C3303 0.961 . S
H3319 C3303 0.961 . S
H3320 C3304 0.931 . S
H3321 C3309 0.930 . S
H3322 C3310 0.956 . S
H3323 C3310 0.961 1_545 S
H3324 C3310 0.961 . S
H3325 C3311 0.958 . S
H3326 C3311 0.961 . S
H3327 C3311 0.960 . S
C3328 C3329 1.391 . S
C3328 C3330 1.394 . S
C3328 H3344 0.931 . S
C3329 C3328 1.391 . S
C3329 C3333 1.376 . S
C3330 C3328 1.394 . S
C3330 C3331 1.369 1_655 S
C3330 C3334 1.531 . S
C3331 C3330 1.369 1_455 S
C3331 C3332 1.410 1_455 S
C3331 C3339 1.503 . S
C3332 C3331 1.410 1_655 S
C3332 C3333 1.392 . S
C3332 C3335 1.511 1_655 S
C3333 C3329 1.376 . S
C3333 C3332 1.392 . S
C3333 H3345 0.929 . S
C3334 C3330 1.531 . S
C3334 H3346 0.960 1_655 S
C3334 H3347 0.962 . S
C3334 H3348 0.960 . S
C3335 C3332 1.511 1_455 S
C3335 H3349 0.961 1_455 S
C3335 H3350 0.961 . S
C3335 H3351 0.961 . S
C3336 C3337 1.370 . S
C3336 C3338 1.363 . S
C3336 H3352 0.931 . S
C3337 C3336 1.370 . S
C3337 C3341 1.408 . S
C3338 C3336 1.363 . S
C3338 C3339 1.370 . S
C3338 C3342 1.524 . S
C3339 C3331 1.503 . S
C3339 C3338 1.370 . S
C3339 C3340 1.403 . S
C3340 C3339 1.403 . S
C3340 C3341 1.404 . S
C3340 C3343 1.539 . S
C3341 C3337 1.408 . S
C3341 C3340 1.404 . S
C3341 H3353 0.930 . S
C3342 C3338 1.524 . S
C3342 H3354 0.956 1_455 S
C3342 H3355 0.961 1_455 S
C3342 H3356 0.961 . S
C3343 C3340 1.539 . S
C3343 H3357 0.958 . S
C3343 H3358 0.961 . S
C3343 H3359 0.960 . S
H3344 C3328 0.931 . S
H3345 C3333 0.929 . S
H3346 C3334 0.960 1_455 S
H3347 C3334 0.962 . S
H3348 C3334 0.960 . S
H3349 C3335 0.961 1_655 S
H3350 C3335 0.961 . S
H3351 C3335 0.961 . S
H3352 C3336 0.931 . S
H3353 C3341 0.930 . S
H3354 C3342 0.956 1_655 S
H3355 C3342 0.961 1_655 S
H3356 C3342 0.961 . S
H3357 C3343 0.958 . S
H3358 C3343 0.961 . S
H3359 C3343 0.960 . S
C3360 C3361 1.391 . S
C3360 C3362 1.394 . S
C3360 H3376 0.931 . S
C3361 C3360 1.391 . S
C3361 C3365 1.376 . S
C3362 C3360 1.394 . S
C3362 C3363 1.369 . S
C3362 C3366 1.531 . S
C3363 C3362 1.369 . S
C3363 C3364 1.410 . S
C3363 C3371 1.503 . S
C3364 C3363 1.410 . S
C3364 C3365 1.392 . S
C3364 C3367 1.511 . S
C3365 C3361 1.376 . S
C3365 C3364 1.392 . S
C3365 H3377 0.929 . S
C3366 C3362 1.531 . S
C3366 H3378 0.960 . S
C3366 H3379 0.962 . S
C3366 H3380 0.960 . S
C3367 C3364 1.511 . S
C3367 H3381 0.961 . S
C3367 H3382 0.961 . S
C3367 H3383 0.961 . S
C3368 C3369 1.370 . S
C3368 C3370 1.363 . S
C3368 H3384 0.931 . S
C3369 C3368 1.370 . S
C3369 C3373 1.408 . S
C3370 C3368 1.363 . S
C3370 C3371 1.370 . S
C3370 C3374 1.524 . S
C3371 C3363 1.503 . S
C3371 C3370 1.370 . S
C3371 C3372 1.403 . S
C3372 C3371 1.403 . S
C3372 C3373 1.404 . S
C3372 C3375 1.539 . S
C3373 C3369 1.408 . S
C3373 C3372 1.404 . S
C3373 H3385 0.930 . S
C3374 C3370 1.524 . S
C3374 H3386 0.956 . S
C3374 H3387 0.961 . S
C3374 H3388 0.961 . S
C3375 C3372 1.539 . S
C3375 H3389 0.958 . S
C3375 H3390 0.961 . S
C3375 H3391 0.960 . S
H3376 C3360 0.931 . S
H3377 C3365 0.929 . S
H3378 C3366 0.960 . S
H3379 C3366 0.962 . S
H3380 C3366 0.960 . S
H3381 C3367 0.961 . S
H3382 C3367 0.961 . S
H3383 C3367 0.961 . S
H3384 C3368 0.931 . S
H3385 C3373 0.930 . S
H3386 C3374 0.956 . S
H3387 C3374 0.961 . S
H3388 C3374 0.961 . S
H3389 C3375 0.958 . S
H3390 C3375 0.961 . S
H3391 C3375 0.960 . S
C3392 C3393 1.391 . S
C3392 C3394 1.394 . S
C3392 H3408 0.931 . S
C3393 C3392 1.391 . S
C3393 C3397 1.376 . S
C3394 C3392 1.394 . S
C3394 C3395 1.369 . S
C3394 C3398 1.531 . S
C3395 C3394 1.369 . S
C3395 C3396 1.410 . S
C3395 C3403 1.503 . S
C3396 C3395 1.410 . S
C3396 C3397 1.392 . S
C3396 C3399 1.511 . S
C3397 C3393 1.376 . S
C3397 C3396 1.392 . S
C3397 H3409 0.929 . S
C3398 C3394 1.531 . S
C3398 H3410 0.960 . S
C3398 H3411 0.962 . S
C3398 H3412 0.960 . S
C3399 C3396 1.511 . S
C3399 H3413 0.961 . S
C3399 H3414 0.961 . S
C3399 H3415 0.961 . S
C3400 C3401 1.370 . S
C3400 C3402 1.363 . S
C3400 H3416 0.931 . S
C3401 C3400 1.370 . S
C3401 C3405 1.408 . S
C3402 C3400 1.363 . S
C3402 C3403 1.370 . S
C3402 C3406 1.524 . S
C3403 C3395 1.503 . S
C3403 C3402 1.370 . S
C3403 C3404 1.403 . S
C3404 C3403 1.403 . S
C3404 C3405 1.404 . S
C3404 C3407 1.539 . S
C3405 C3401 1.408 . S
C3405 C3404 1.404 . S
C3405 H3417 0.930 . S
C3406 C3402 1.524 . S
C3406 H3418 0.956 . S
C3406 H3419 0.961 . S
C3406 H3420 0.961 . S
C3407 C3404 1.539 . S
C3407 H3421 0.958 . S
C3407 H3422 0.961 . S
C3407 H3423 0.960 . S
H3408 C3392 0.931 . S
H3409 C3397 0.929 . S
H3410 C3398 0.960 . S
H3411 C3398 0.962 . S
H3412 C3398 0.960 . S
H3413 C3399 0.961 . S
H3414 C3399 0.961 . S
H3415 C3399 0.961 . S
H3416 C3400 0.931 . S
H3417 C3405 0.930 . S
H3418 C3406 0.956 . S
H3419 C3406 0.961 . S
H3420 C3406 0.961 . S
H3421 C3407 0.958 . S
H3422 C3407 0.961 . S
H3423 C3407 0.960 . S
C3424 C3425 1.391 . S
C3424 C3426 1.394 . S
C3424 H3440 0.931 . S
C3425 C3424 1.391 . S
C3425 C3429 1.376 . S
C3426 C3424 1.394 . S
C3426 C3427 1.369 . S
C3426 C3430 1.531 . S
C3427 C3426 1.369 . S
C3427 C3428 1.410 . S
C3427 C3435 1.503 . S
C3428 C3427 1.410 . S
C3428 C3429 1.392 . S
C3428 C3431 1.511 . S
C3429 C3425 1.376 . S
C3429 C3428 1.392 . S
C3429 H3441 0.929 . S
C3430 C3426 1.531 . S
C3430 H3442 0.960 . S
C3430 H3443 0.962 . S
C3430 H3444 0.960 . S
C3431 C3428 1.511 . S
C3431 H3445 0.961 . S
C3431 H3446 0.961 . S
C3431 H3447 0.961 . S
C3432 C3433 1.370 . S
C3432 C3434 1.363 . S
C3432 H3448 0.931 . S
C3433 C3432 1.370 . S
C3433 C3437 1.408 . S
C3434 C3432 1.363 . S
C3434 C3435 1.370 . S
C3434 C3438 1.524 . S
C3435 C3427 1.503 . S
C3435 C3434 1.370 . S
C3435 C3436 1.403 . S
C3436 C3435 1.403 . S
C3436 C3437 1.404 . S
C3436 C3439 1.539 . S
C3437 C3433 1.408 . S
C3437 C3436 1.404 . S
C3437 H3449 0.930 . S
C3438 C3434 1.524 . S
C3438 H3450 0.956 . S
C3438 H3451 0.961 . S
C3438 H3452 0.961 . S
C3439 C3436 1.539 . S
C3439 H3453 0.958 . S
C3439 H3454 0.961 . S
C3439 H3455 0.960 . S
H3440 C3424 0.931 . S
H3441 C3429 0.929 . S
H3442 C3430 0.960 . S
H3443 C3430 0.962 . S
H3444 C3430 0.960 . S
H3445 C3431 0.961 . S
H3446 C3431 0.961 . S
H3447 C3431 0.961 . S
H3448 C3432 0.931 . S
H3449 C3437 0.930 . S
H3450 C3438 0.956 . S
H3451 C3438 0.961 . S
H3452 C3438 0.961 . S
H3453 C3439 0.958 . S
H3454 C3439 0.961 . S
H3455 C3439 0.960 . S
C3456 C3457 1.391 . S
C3456 C3458 1.394 . S
C3456 H3472 0.931 . S
C3457 C3456 1.391 . S
C3457 C3461 1.376 . S
C3458 C3456 1.394 . S
C3458 C3459 1.369 . S
C3458 C3462 1.531 . S
C3459 C3458 1.369 . S
C3459 C3460 1.410 . S
C3459 C3467 1.503 . S
C3460 C3459 1.410 . S
C3460 C3461 1.392 . S
C3460 C3463 1.511 . S
C3461 C3457 1.376 . S
C3461 C3460 1.392 . S
C3461 H3473 0.929 . S
C3462 C3458 1.531 . S
C3462 H3474 0.960 . S
C3462 H3475 0.962 . S
C3462 H3476 0.960 . S
C3463 C3460 1.511 . S
C3463 H3477 0.961 . S
C3463 H3478 0.961 . S
C3463 H3479 0.961 . S
C3464 C3465 1.370 . S
C3464 C3466 1.363 . S
C3464 H3480 0.931 . S
C3465 C3464 1.370 . S
C3465 C3469 1.408 . S
C3466 C3464 1.363 . S
C3466 C3467 1.370 . S
C3466 C3470 1.524 . S
C3467 C3459 1.503 . S
C3467 C3466 1.370 . S
C3467 C3468 1.403 . S
C3468 C3467 1.403 . S
C3468 C3469 1.404 . S
C3468 C3471 1.539 . S
C3469 C3465 1.408 . S
C3469 C3468 1.404 . S
C3469 H3481 0.930 . S
C3470 C3466 1.524 . S
C3470 H3482 0.956 . S
C3470 H3483 0.961 . S
C3470 H3484 0.961 . S
C3471 C3468 1.539 . S
C3471 H3485 0.958 . S
C3471 H3486 0.961 . S
C3471 H3487 0.960 . S
H3472 C3456 0.931 . S
H3473 C3461 0.929 . S
H3474 C3462 0.960 . S
H3475 C3462 0.962 . S
H3476 C3462 0.960 . S
H3477 C3463 0.961 . S
H3478 C3463 0.961 . S
H3479 C3463 0.961 . S
H3480 C3464 0.931 . S
H3481 C3469 0.930 . S
H3482 C3470 0.956 . S
H3483 C3470 0.961 . S
H3484 C3470 0.961 . S
H3485 C3471 0.958 . S
H3486 C3471 0.961 . S
H3487 C3471 0.960 . S
C3488 C3489 1.391 . S
C3488 C3490 1.394 . S
C3488 H3504 0.931 . S
C3489 C3488 1.391 . S
C3489 C3493 1.376 . S
C3490 C3488 1.394 . S
C3490 C3491 1.369 . S
C3490 C3494 1.531 . S
C3491 C3490 1.369 . S
C3491 C3492 1.410 . S
C3491 C3499 1.503 1_545 S
C3492 C3491 1.410 . S
C3492 C3493 1.392 . S
C3492 C3495 1.511 . S
C3493 C3489 1.376 . S
C3493 C3492 1.392 . S
C3493 H3505 0.929 . S
C3494 C3490 1.531 . S
C3494 H3506 0.960 . S
C3494 H3507 0.962 . S
C3494 H3508 0.960 . S
C3495 C3492 1.511 . S
C3495 H3509 0.961 . S
C3495 H3510 0.961 1_545 S
C3495 H3511 0.960 . S
C3496 C3497 1.370 . S
C3496 C3498 1.363 . S
C3496 H3512 0.931 . S
C3497 C3496 1.370 . S
C3497 C3501 1.408 . S
C3498 C3496 1.363 . S
C3498 C3499 1.370 . S
C3498 C3502 1.524 1_565 S
C3499 C3491 1.503 1_565 S
C3499 C3498 1.370 . S
C3499 C3500 1.403 . S
C3500 C3499 1.403 . S
C3500 C3501 1.404 . S
C3500 C3503 1.539 . S
C3501 C3497 1.408 . S
C3501 C3500 1.404 . S
C3501 H3513 0.930 . S
C3502 C3498 1.524 1_545 S
C3502 H3514 0.956 . S
C3502 H3515 0.961 . S
C3502 H3516 0.961 1_545 S
C3503 C3500 1.539 . S
C3503 H3517 0.958 . S
C3503 H3518 0.961 . S
C3503 H3519 0.960 1_565 S
H3504 C3488 0.931 . S
H3505 C3493 0.929 . S
H3506 C3494 0.960 . S
H3507 C3494 0.962 . S
H3508 C3494 0.960 . S
H3509 C3495 0.961 . S
H3510 C3495 0.961 1_565 S
H3511 C3495 0.960 . S
H3512 C3496 0.931 . S
H3513 C3501 0.930 . S
H3514 C3502 0.956 . S
H3515 C3502 0.961 . S
H3516 C3502 0.961 1_565 S
H3517 C3503 0.958 . S
H3518 C3503 0.961 . S
H3519 C3503 0.960 1_545 S
C3520 C3521 1.391 . S
C3520 C3522 1.394 . S
C3520 H3536 0.931 . S
C3521 C3520 1.391 . S
C3521 C3525 1.376 . S
C3522 C3520 1.394 . S
C3522 C3523 1.369 . S
C3522 C3526 1.531 . S
C3523 C3522 1.369 . S
C3523 C3524 1.410 . S
C3523 C3531 1.503 1_455 S
C3524 C3523 1.410 . S
C3524 C3525 1.392 . S
C3524 C3527 1.511 . S
C3525 C3521 1.376 . S
C3525 C3524 1.392 . S
C3525 H3537 0.929 . S
C3526 C3522 1.531 . S
C3526 H3538 0.960 . S
C3526 H3539 0.962 . S
C3526 H3540 0.960 . S
C3527 C3524 1.511 . S
C3527 H3541 0.961 . S
C3527 H3542 0.961 1_455 S
C3527 H3543 0.961 1_455 S
C3528 C3529 1.370 . S
C3528 C3530 1.363 . S
C3528 H3544 0.931 . S
C3529 C3528 1.370 . S
C3529 C3533 1.408 . S
C3530 C3528 1.363 . S
C3530 C3531 1.370 . S
C3530 C3534 1.524 1_655 S
C3531 C3523 1.503 1_655 S
C3531 C3530 1.370 . S
C3531 C3532 1.403 . S
C3532 C3531 1.403 . S
C3532 C3533 1.404 . S
C3532 C3535 1.539 . S
C3533 C3529 1.408 . S
C3533 C3532 1.404 . S
C3533 H3545 0.930 . S
C3534 C3530 1.524 1_455 S
C3534 H3546 0.956 . S
C3534 H3547 0.961 . S
C3534 H3548 0.961 . S
C3535 C3532 1.539 . S
C3535 H3549 0.958 . S
C3535 H3550 0.961 . S
C3535 H3551 0.960 . S
H3536 C3520 0.931 . S
H3537 C3525 0.929 . S
H3538 C3526 0.960 . S
H3539 C3526 0.962 . S
H3540 C3526 0.960 . S
H3541 C3527 0.961 . S
H3542 C3527 0.961 1_655 S
H3543 C3527 0.961 1_655 S
H3544 C3528 0.931 . S
H3545 C3533 0.930 . S
H3546 C3534 0.956 . S
H3547 C3534 0.961 . S
H3548 C3534 0.961 . S
H3549 C3535 0.958 . S
H3550 C3535 0.961 . S
H3551 C3535 0.960 . S
C3552 C3553 1.391 . S
C3552 C3554 1.394 . S
C3552 H3568 0.931 . S
C3553 C3552 1.391 . S
C3553 C3557 1.376 . S
C3554 C3552 1.394 . S
C3554 C3555 1.369 . S
C3554 C3558 1.531 . S
C3555 C3554 1.369 . S
C3555 C3556 1.410 . S
C3555 C3563 1.503 . S
C3556 C3555 1.410 . S
C3556 C3557 1.392 . S
C3556 C3559 1.511 . S
C3557 C3553 1.376 . S
C3557 C3556 1.392 . S
C3557 H3569 0.929 . S
C3558 C3554 1.531 . S
C3558 H3570 0.960 . S
C3558 H3571 0.962 . S
C3558 H3572 0.960 . S
C3559 C3556 1.511 . S
C3559 H3573 0.961 . S
C3559 H3574 0.961 . S
C3559 H3575 0.961 . S
C3560 C3561 1.370 . S
C3560 C3562 1.363 . S
C3560 H3576 0.931 . S
C3561 C3560 1.370 . S
C3561 C3565 1.408 . S
C3562 C3560 1.363 . S
C3562 C3563 1.370 . S
C3562 C3566 1.524 . S
C3563 C3555 1.503 . S
C3563 C3562 1.370 . S
C3563 C3564 1.403 . S
C3564 C3563 1.403 . S
C3564 C3565 1.404 . S
C3564 C3567 1.539 . S
C3565 C3561 1.408 . S
C3565 C3564 1.404 . S
C3565 H3577 0.930 . S
C3566 C3562 1.524 . S
C3566 H3578 0.956 . S
C3566 H3579 0.961 . S
C3566 H3580 0.961 . S
C3567 C3564 1.539 . S
C3567 H3581 0.958 . S
C3567 H3582 0.961 . S
C3567 H3583 0.960 . S
H3568 C3552 0.931 . S
H3569 C3557 0.929 . S
H3570 C3558 0.960 . S
H3571 C3558 0.962 . S
H3572 C3558 0.960 . S
H3573 C3559 0.961 . S
H3574 C3559 0.961 . S
H3575 C3559 0.961 . S
H3576 C3560 0.931 . S
H3577 C3565 0.930 . S
H3578 C3566 0.956 . S
H3579 C3566 0.961 . S
H3580 C3566 0.961 . S
H3581 C3567 0.958 . S
H3582 C3567 0.961 . S
H3583 C3567 0.960 . S
C3584 C3585 1.391 . S
C3584 C3586 1.394 . S
C3584 H3600 0.931 . S
C3585 C3584 1.391 . S
C3585 C3589 1.376 . S
C3586 C3584 1.394 . S
C3586 C3587 1.369 . S
C3586 C3590 1.531 . S
C3587 C3586 1.369 . S
C3587 C3588 1.410 . S
C3587 C3595 1.503 1_545 S
C3588 C3587 1.410 . S
C3588 C3589 1.392 . S
C3588 C3591 1.511 . S
C3589 C3585 1.376 . S
C3589 C3588 1.392 . S
C3589 H3601 0.929 . S
C3590 C3586 1.531 . S
C3590 H3602 0.960 . S
C3590 H3603 0.962 . S
C3590 H3604 0.960 . S
C3591 C3588 1.511 . S
C3591 H3605 0.961 . S
C3591 H3606 0.961 . S
C3591 H3607 0.961 . S
C3592 C3593 1.370 . S
C3592 C3594 1.363 . S
C3592 H3608 0.931 . S
C3593 C3592 1.370 . S
C3593 C3597 1.408 . S
C3594 C3592 1.363 . S
C3594 C3595 1.370 . S
C3594 C3598 1.524 1_565 S
C3595 C3587 1.503 1_565 S
C3595 C3594 1.370 . S
C3595 C3596 1.403 . S
C3596 C3595 1.403 . S
C3596 C3597 1.404 . S
C3596 C3599 1.539 . S
C3597 C3593 1.408 . S
C3597 C3596 1.404 . S
C3597 H3609 0.930 . S
C3598 C3594 1.524 1_545 S
C3598 H3610 0.956 . S
C3598 H3611 0.961 . S
C3598 H3612 0.961 . S
C3599 C3596 1.539 . S
C3599 H3613 0.958 . S
C3599 H3614 0.961 . S
C3599 H3615 0.960 . S
H3600 C3584 0.931 . S
H3601 C3589 0.929 . S
H3602 C3590 0.960 . S
H3603 C3590 0.962 . S
H3604 C3590 0.960 . S
H3605 C3591 0.961 . S
H3606 C3591 0.961 . S
H3607 C3591 0.961 . S
H3608 C3592 0.931 . S
H3609 C3597 0.930 . S
H3610 C3598 0.956 . S
H3611 C3598 0.961 . S
H3612 C3598 0.961 . S
H3613 C3599 0.958 . S
H3614 C3599 0.961 . S
H3615 C3599 0.960 . S
C3616 C3617 1.391 . S
C3616 C3618 1.394 . S
C3616 H3632 0.931 . S
C3617 C3616 1.391 . S
C3617 C3621 1.376 . S
C3618 C3616 1.394 . S
C3618 C3619 1.369 . S
C3618 C3622 1.531 . S
C3619 C3618 1.369 . S
C3619 C3620 1.410 . S
C3619 C3627 1.503 1_455 S
C3620 C3619 1.410 . S
C3620 C3621 1.392 . S
C3620 C3623 1.511 . S
C3621 C3617 1.376 . S
C3621 C3620 1.392 . S
C3621 H3633 0.929 . S
C3622 C3618 1.531 . S
C3622 H3634 0.960 . S
C3622 H3635 0.962 . S
C3622 H3636 0.960 . S
C3623 C3620 1.511 . S
C3623 H3637 0.961 . S
C3623 H3638 0.961 . S
C3623 H3639 0.961 . S
C3624 C3625 1.370 . S
C3624 C3626 1.363 . S
C3624 H3640 0.931 . S
C3625 C3624 1.370 . S
C3625 C3629 1.408 . S
C3626 C3624 1.363 . S
C3626 C3627 1.370 . S
C3626 C3630 1.524 . S
C3627 C3619 1.503 1_655 S
C3627 C3626 1.370 . S
C3627 C3628 1.403 . S
C3628 C3627 1.403 . S
C3628 C3629 1.404 . S
C3628 C3631 1.539 1_655 S
C3629 C3625 1.408 . S
C3629 C3628 1.404 . S
C3629 H3641 0.930 . S
C3630 C3626 1.524 . S
C3630 H3642 0.956 . S
C3630 H3643 0.961 . S
C3630 H3644 0.961 . S
C3631 C3628 1.539 1_455 S
C3631 H3645 0.958 . S
C3631 H3646 0.961 . S
C3631 H3647 0.960 . S
H3632 C3616 0.931 . S
H3633 C3621 0.929 . S
H3634 C3622 0.960 . S
H3635 C3622 0.962 . S
H3636 C3622 0.960 . S
H3637 C3623 0.961 . S
H3638 C3623 0.961 . S
H3639 C3623 0.961 . S
H3640 C3624 0.931 . S
H3641 C3629 0.930 . S
H3642 C3630 0.956 . S
H3643 C3630 0.961 . S
H3644 C3630 0.961 . S
H3645 C3631 0.958 . S
H3646 C3631 0.961 . S
H3647 C3631 0.960 . S
C3648 C3649 1.391 . S
C3648 C3650 1.394 . S
C3648 H3664 0.931 . S
C3649 C3648 1.391 . S
C3649 C3653 1.376 . S
C3650 C3648 1.394 . S
C3650 C3651 1.369 . S
C3650 C3654 1.531 . S
C3651 C3650 1.369 . S
C3651 C3652 1.410 . S
C3651 C3659 1.503 . S
C3652 C3651 1.410 . S
C3652 C3653 1.392 . S
C3652 C3655 1.511 . S
C3653 C3649 1.376 . S
C3653 C3652 1.392 . S
C3653 H3665 0.929 . S
C3654 C3650 1.531 . S
C3654 H3666 0.960 . S
C3654 H3667 0.962 . S
C3654 H3668 0.960 . S
C3655 C3652 1.511 . S
C3655 H3669 0.961 . S
C3655 H3670 0.961 . S
C3655 H3671 0.961 . S
C3656 C3657 1.370 . S
C3656 C3658 1.363 . S
C3656 H3672 0.931 . S
C3657 C3656 1.370 . S
C3657 C3661 1.408 . S
C3658 C3656 1.363 . S
C3658 C3659 1.370 . S
C3658 C3662 1.524 . S
C3659 C3651 1.503 . S
C3659 C3658 1.370 . S
C3659 C3660 1.403 . S
C3660 C3659 1.403 . S
C3660 C3661 1.404 . S
C3660 C3663 1.539 . S
C3661 C3657 1.408 . S
C3661 C3660 1.404 . S
C3661 H3673 0.930 . S
C3662 C3658 1.524 . S
C3662 H3674 0.956 . S
C3662 H3675 0.961 . S
C3662 H3676 0.961 . S
C3663 C3660 1.539 . S
C3663 H3677 0.958 . S
C3663 H3678 0.961 . S
C3663 H3679 0.960 . S
H3664 C3648 0.931 . S
H3665 C3653 0.929 . S
H3666 C3654 0.960 . S
H3667 C3654 0.962 . S
H3668 C3654 0.960 . S
H3669 C3655 0.961 . S
H3670 C3655 0.961 . S
H3671 C3655 0.961 . S
H3672 C3656 0.931 . S
H3673 C3661 0.930 . S
H3674 C3662 0.956 . S
H3675 C3662 0.961 . S
H3676 C3662 0.961 . S
H3677 C3663 0.958 . S
H3678 C3663 0.961 . S
H3679 C3663 0.960 . S
C3680 C3681 1.391 . S
C3680 C3682 1.394 . S
C3680 H3696 0.931 . S
C3681 C3680 1.391 . S
C3681 C3685 1.376 . S
C3682 C3680 1.394 . S
C3682 C3683 1.369 . S
C3682 C3686 1.531 . S
C3683 C3682 1.369 . S
C3683 C3684 1.410 . S
C3683 C3691 1.503 . S
C3684 C3683 1.410 . S
C3684 C3685 1.392 . S
C3684 C3687 1.511 . S
C3685 C3681 1.376 . S
C3685 C3684 1.392 . S
C3685 H3697 0.929 . S
C3686 C3682 1.531 . S
C3686 H3698 0.960 . S
C3686 H3699 0.962 . S
C3686 H3700 0.960 . S
C3687 C3684 1.511 . S
C3687 H3701 0.961 . S
C3687 H3702 0.961 . S
C3687 H3703 0.961 . S
C3688 C3689 1.370 . S
C3688 C3690 1.363 . S
C3688 H3704 0.931 . S
C3689 C3688 1.370 . S
C3689 C3693 1.408 . S
C3690 C3688 1.363 . S
C3690 C3691 1.370 . S
C3690 C3694 1.524 . S
C3691 C3683 1.503 . S
C3691 C3690 1.370 . S
C3691 C3692 1.403 . S
C3692 C3691 1.403 . S
C3692 C3693 1.404 . S
C3692 C3695 1.539 . S
C3693 C3689 1.408 . S
C3693 C3692 1.404 . S
C3693 H3705 0.930 . S
C3694 C3690 1.524 . S
C3694 H3706 0.956 . S
C3694 H3707 0.961 . S
C3694 H3708 0.961 . S
C3695 C3692 1.539 . S
C3695 H3709 0.958 . S
C3695 H3710 0.961 . S
C3695 H3711 0.960 . S
H3696 C3680 0.931 . S
H3697 C3685 0.929 . S
H3698 C3686 0.960 . S
H3699 C3686 0.962 . S
H3700 C3686 0.960 . S
H3701 C3687 0.961 . S
H3702 C3687 0.961 . S
H3703 C3687 0.961 . S
H3704 C3688 0.931 . S
H3705 C3693 0.930 . S
H3706 C3694 0.956 . S
H3707 C3694 0.961 . S
H3708 C3694 0.961 . S
H3709 C3695 0.958 . S
H3710 C3695 0.961 . S
H3711 C3695 0.960 . S
C3712 C3713 1.391 . S
C3712 C3714 1.394 . S
C3712 H3728 0.931 . S
C3713 C3712 1.391 . S
C3713 C3717 1.376 . S
C3714 C3712 1.394 . S
C3714 C3715 1.369 . S
C3714 C3718 1.531 . S
C3715 C3714 1.369 . S
C3715 C3716 1.410 . S
C3715 C3723 1.503 . S
C3716 C3715 1.410 . S
C3716 C3717 1.392 . S
C3716 C3719 1.511 . S
C3717 C3713 1.376 . S
C3717 C3716 1.392 . S
C3717 H3729 0.929 . S
C3718 C3714 1.531 . S
C3718 H3730 0.960 . S
C3718 H3731 0.962 . S
C3718 H3732 0.960 . S
C3719 C3716 1.511 . S
C3719 H3733 0.961 . S
C3719 H3734 0.961 . S
C3719 H3735 0.961 . S
C3720 C3721 1.370 . S
C3720 C3722 1.363 . S
C3720 H3736 0.931 . S
C3721 C3720 1.370 . S
C3721 C3725 1.408 . S
C3722 C3720 1.363 . S
C3722 C3723 1.370 . S
C3722 C3726 1.524 . S
C3723 C3715 1.503 . S
C3723 C3722 1.370 . S
C3723 C3724 1.403 . S
C3724 C3723 1.403 . S
C3724 C3725 1.404 . S
C3724 C3727 1.539 . S
C3725 C3721 1.408 . S
C3725 C3724 1.404 . S
C3725 H3737 0.930 . S
C3726 C3722 1.524 . S
C3726 H3738 0.956 . S
C3726 H3739 0.961 . S
C3726 H3740 0.961 . S
C3727 C3724 1.539 . S
C3727 H3741 0.958 . S
C3727 H3742 0.961 . S
C3727 H3743 0.960 . S
H3728 C3712 0.931 . S
H3729 C3717 0.929 . S
H3730 C3718 0.960 . S
H3731 C3718 0.962 . S
H3732 C3718 0.960 . S
H3733 C3719 0.961 . S
H3734 C3719 0.961 . S
H3735 C3719 0.961 . S
H3736 C3720 0.931 . S
H3737 C3725 0.930 . S
H3738 C3726 0.956 . S
H3739 C3726 0.961 . S
H3740 C3726 0.961 . S
H3741 C3727 0.958 . S
H3742 C3727 0.961 . S
H3743 C3727 0.960 . S
C3744 C3745 1.391 . S
C3744 C3746 1.394 . S
C3744 H3760 0.931 . S
C3745 C3744 1.391 . S
C3745 C3749 1.376 . S
C3746 C3744 1.394 . S
C3746 C3747 1.369 . S
C3746 C3750 1.531 . S
C3747 C3746 1.369 . S
C3747 C3748 1.410 . S
C3747 C3755 1.503 . S
C3748 C3747 1.410 . S
C3748 C3749 1.392 . S
C3748 C3751 1.511 . S
C3749 C3745 1.376 . S
C3749 C3748 1.392 . S
C3749 H3761 0.929 . S
C3750 C3746 1.531 . S
C3750 H3762 0.960 . S
C3750 H3763 0.962 . S
C3750 H3764 0.960 . S
C3751 C3748 1.511 . S
C3751 H3765 0.961 . S
C3751 H3766 0.961 . S
C3751 H3767 0.961 . S
C3752 C3753 1.370 . S
C3752 C3754 1.363 . S
C3752 H3768 0.931 . S
C3753 C3752 1.370 . S
C3753 C3757 1.408 . S
C3754 C3752 1.363 . S
C3754 C3755 1.370 . S
C3754 C3758 1.524 . S
C3755 C3747 1.503 . S
C3755 C3754 1.370 . S
C3755 C3756 1.403 . S
C3756 C3755 1.403 . S
C3756 C3757 1.404 . S
C3756 C3759 1.539 . S
C3757 C3753 1.408 . S
C3757 C3756 1.404 . S
C3757 H3769 0.930 . S
C3758 C3754 1.524 . S
C3758 H3770 0.956 . S
C3758 H3771 0.961 . S
C3758 H3772 0.961 . S
C3759 C3756 1.539 . S
C3759 H3773 0.958 . S
C3759 H3774 0.961 . S
C3759 H3775 0.960 . S
H3760 C3744 0.931 . S
H3761 C3749 0.929 . S
H3762 C3750 0.960 . S
H3763 C3750 0.962 . S
H3764 C3750 0.960 . S
H3765 C3751 0.961 . S
H3766 C3751 0.961 . S
H3767 C3751 0.961 . S
H3768 C3752 0.931 . S
H3769 C3757 0.930 . S
H3770 C3758 0.956 . S
H3771 C3758 0.961 . S
H3772 C3758 0.961 . S
H3773 C3759 0.958 . S
H3774 C3759 0.961 . S
H3775 C3759 0.960 . S
C3776 C3777 1.391 . S
C3776 C3778 1.394 . S
C3776 H3792 0.931 . S
C3777 C3776 1.391 . S
C3777 C3781 1.376 . S
C3778 C3776 1.394 . S
C3778 C3779 1.369 . S
C3778 C3782 1.531 . S
C3779 C3778 1.369 . S
C3779 C3780 1.410 . S
C3779 C3787 1.503 . S
C3780 C3779 1.410 . S
C3780 C3781 1.392 . S
C3780 C3783 1.511 . S
C3781 C3777 1.376 . S
C3781 C3780 1.392 . S
C3781 H3793 0.929 . S
C3782 C3778 1.531 . S
C3782 H3794 0.960 . S
C3782 H3795 0.962 . S
C3782 H3796 0.960 . S
C3783 C3780 1.511 . S
C3783 H3797 0.961 . S
C3783 H3798 0.961 . S
C3783 H3799 0.961 . S
C3784 C3785 1.370 . S
C3784 C3786 1.363 . S
C3784 H3800 0.931 . S
C3785 C3784 1.370 . S
C3785 C3789 1.408 . S
C3786 C3784 1.363 . S
C3786 C3787 1.370 . S
C3786 C3790 1.524 . S
C3787 C3779 1.503 . S
C3787 C3786 1.370 . S
C3787 C3788 1.403 . S
C3788 C3787 1.403 . S
C3788 C3789 1.404 . S
C3788 C3791 1.539 . S
C3789 C3785 1.408 . S
C3789 C3788 1.404 . S
C3789 H3801 0.930 . S
C3790 C3786 1.524 . S
C3790 H3802 0.956 . S
C3790 H3803 0.961 . S
C3790 H3804 0.961 . S
C3791 C3788 1.539 . S
C3791 H3805 0.958 . S
C3791 H3806 0.961 . S
C3791 H3807 0.960 . S
H3792 C3776 0.931 . S
H3793 C3781 0.929 . S
H3794 C3782 0.960 . S
H3795 C3782 0.962 . S
H3796 C3782 0.960 . S
H3797 C3783 0.961 . S
H3798 C3783 0.961 . S
H3799 C3783 0.961 . S
H3800 C3784 0.931 . S
H3801 C3789 0.930 . S
H3802 C3790 0.956 . S
H3803 C3790 0.961 . S
H3804 C3790 0.961 . S
H3805 C3791 0.958 . S
H3806 C3791 0.961 . S
H3807 C3791 0.960 . S
C3808 C3809 1.391 . S
C3808 C3810 1.394 . S
C3808 H3824 0.931 . S
C3809 C3808 1.391 . S
C3809 C3813 1.376 . S
C3810 C3808 1.394 . S
C3810 C3811 1.369 . S
C3810 C3814 1.531 . S
C3811 C3810 1.369 . S
C3811 C3812 1.410 . S
C3811 C3819 1.503 . S
C3812 C3811 1.410 . S
C3812 C3813 1.392 . S
C3812 C3815 1.511 . S
C3813 C3809 1.376 . S
C3813 C3812 1.392 . S
C3813 H3825 0.929 . S
C3814 C3810 1.531 . S
C3814 H3826 0.960 . S
C3814 H3827 0.962 . S
C3814 H3828 0.960 . S
C3815 C3812 1.511 . S
C3815 H3829 0.961 . S
C3815 H3830 0.961 . S
C3815 H3831 0.961 . S
C3816 C3817 1.370 . S
C3816 C3818 1.363 . S
C3816 H3832 0.931 . S
C3817 C3816 1.370 . S
C3817 C3821 1.408 . S
C3818 C3816 1.363 . S
C3818 C3819 1.370 . S
C3818 C3822 1.524 . S
C3819 C3811 1.503 . S
C3819 C3818 1.370 . S
C3819 C3820 1.403 . S
C3820 C3819 1.403 . S
C3820 C3821 1.404 . S
C3820 C3823 1.539 . S
C3821 C3817 1.408 . S
C3821 C3820 1.404 . S
C3821 H3833 0.930 . S
C3822 C3818 1.524 . S
C3822 H3834 0.956 . S
C3822 H3835 0.961 . S
C3822 H3836 0.961 . S
C3823 C3820 1.539 . S
C3823 H3837 0.958 . S
C3823 H3838 0.961 . S
C3823 H3839 0.960 . S
H3824 C3808 0.931 . S
H3825 C3813 0.929 . S
H3826 C3814 0.960 . S
H3827 C3814 0.962 . S
H3828 C3814 0.960 . S
H3829 C3815 0.961 . S
H3830 C3815 0.961 . S
H3831 C3815 0.961 . S
H3832 C3816 0.931 . S
H3833 C3821 0.930 . S
H3834 C3822 0.956 . S
H3835 C3822 0.961 . S
H3836 C3822 0.961 . S
H3837 C3823 0.958 . S
H3838 C3823 0.961 . S
H3839 C3823 0.960 . S
C3840 C3841 1.391 . S
C3840 C3842 1.394 . S
C3840 H3856 0.931 . S
C3841 C3840 1.391 . S
C3841 C3845 1.376 . S
C3842 C3840 1.394 . S
C3842 C3843 1.369 . S
C3842 C3846 1.531 . S
C3843 C3842 1.369 . S
C3843 C3844 1.410 . S
C3843 C3851 1.503 . S
C3844 C3843 1.410 . S
C3844 C3845 1.392 . S
C3844 C3847 1.511 . S
C3845 C3841 1.376 . S
C3845 C3844 1.392 . S
C3845 H3857 0.929 . S
C3846 C3842 1.531 . S
C3846 H3858 0.960 . S
C3846 H3859 0.962 . S
C3846 H3860 0.960 . S
C3847 C3844 1.511 . S
C3847 H3861 0.961 . S
C3847 H3862 0.961 . S
C3847 H3863 0.961 . S
C3848 C3849 1.370 . S
C3848 C3850 1.363 . S
C3848 H3864 0.931 . S
C3849 C3848 1.370 . S
C3849 C3853 1.408 . S
C3850 C3848 1.363 . S
C3850 C3851 1.370 . S
C3850 C3854 1.524 . S
C3851 C3843 1.503 . S
C3851 C3850 1.370 . S
C3851 C3852 1.403 . S
C3852 C3851 1.403 . S
C3852 C3853 1.404 . S
C3852 C3855 1.539 . S
C3853 C3849 1.408 . S
C3853 C3852 1.404 . S
C3853 H3865 0.930 . S
C3854 C3850 1.524 . S
C3854 H3866 0.956 . S
C3854 H3867 0.961 . S
C3854 H3868 0.961 . S
C3855 C3852 1.539 . S
C3855 H3869 0.958 . S
C3855 H3870 0.961 . S
C3855 H3871 0.960 . S
H3856 C3840 0.931 . S
H3857 C3845 0.929 . S
H3858 C3846 0.960 . S
H3859 C3846 0.962 . S
H3860 C3846 0.960 . S
H3861 C3847 0.961 . S
H3862 C3847 0.961 . S
H3863 C3847 0.961 . S
H3864 C3848 0.931 . S
H3865 C3853 0.930 . S
H3866 C3854 0.956 . S
H3867 C3854 0.961 . S
H3868 C3854 0.961 . S
H3869 C3855 0.958 . S
H3870 C3855 0.961 . S
H3871 C3855 0.960 . S
C3872 C3873 1.391 . S
C3872 C3874 1.394 . S
C3872 H3888 0.931 . S
C3873 C3872 1.391 . S
C3873 C3877 1.376 . S
C3874 C3872 1.394 . S
C3874 C3875 1.369 . S
C3874 C3878 1.531 . S
C3875 C3874 1.369 . S
C3875 C3876 1.410 . S
C3875 C3883 1.503 . S
C3876 C3875 1.410 . S
C3876 C3877 1.392 . S
C3876 C3879 1.511 . S
C3877 C3873 1.376 . S
C3877 C3876 1.392 . S
C3877 H3889 0.929 . S
C3878 C3874 1.531 . S
C3878 H3890 0.960 . S
C3878 H3891 0.962 . S
C3878 H3892 0.960 . S
C3879 C3876 1.511 . S
C3879 H3893 0.961 . S
C3879 H3894 0.961 . S
C3879 H3895 0.961 . S
C3880 C3881 1.370 . S
C3880 C3882 1.363 . S
C3880 H3896 0.931 . S
C3881 C3880 1.370 . S
C3881 C3885 1.408 . S
C3882 C3880 1.363 . S
C3882 C3883 1.370 . S
C3882 C3886 1.524 . S
C3883 C3875 1.503 . S
C3883 C3882 1.370 . S
C3883 C3884 1.403 . S
C3884 C3883 1.403 . S
C3884 C3885 1.404 . S
C3884 C3887 1.539 . S
C3885 C3881 1.408 . S
C3885 C3884 1.404 . S
C3885 H3897 0.930 . S
C3886 C3882 1.524 . S
C3886 H3898 0.956 . S
C3886 H3899 0.961 . S
C3886 H3900 0.961 . S
C3887 C3884 1.539 . S
C3887 H3901 0.958 . S
C3887 H3902 0.961 . S
C3887 H3903 0.960 . S
H3888 C3872 0.931 . S
H3889 C3877 0.929 . S
H3890 C3878 0.960 . S
H3891 C3878 0.962 . S
H3892 C3878 0.960 . S
H3893 C3879 0.961 . S
H3894 C3879 0.961 . S
H3895 C3879 0.961 . S
H3896 C3880 0.931 . S
H3897 C3885 0.930 . S
H3898 C3886 0.956 . S
H3899 C3886 0.961 . S
H3900 C3886 0.961 . S
H3901 C3887 0.958 . S
H3902 C3887 0.961 . S
H3903 C3887 0.960 . S
C3904 C3905 1.391 . S
C3904 C3906 1.394 . S
C3904 H3920 0.931 . S
C3905 C3904 1.391 . S
C3905 C3909 1.376 . S
C3906 C3904 1.394 . S
C3906 C3907 1.369 . S
C3906 C3910 1.531 . S
C3907 C3906 1.369 . S
C3907 C3908 1.410 . S
C3907 C3915 1.503 . S
C3908 C3907 1.410 . S
C3908 C3909 1.392 . S
C3908 C3911 1.511 . S
C3909 C3905 1.376 . S
C3909 C3908 1.392 . S
C3909 H3921 0.929 . S
C3910 C3906 1.531 . S
C3910 H3922 0.960 . S
C3910 H3923 0.962 . S
C3910 H3924 0.960 . S
C3911 C3908 1.511 . S
C3911 H3925 0.961 . S
C3911 H3926 0.961 . S
C3911 H3927 0.961 . S
C3912 C3913 1.370 . S
C3912 C3914 1.363 . S
C3912 H3928 0.931 . S
C3913 C3912 1.370 . S
C3913 C3917 1.408 . S
C3914 C3912 1.363 . S
C3914 C3915 1.370 . S
C3914 C3918 1.524 . S
C3915 C3907 1.503 . S
C3915 C3914 1.370 . S
C3915 C3916 1.403 . S
C3916 C3915 1.403 . S
C3916 C3917 1.404 . S
C3916 C3919 1.539 . S
C3917 C3913 1.408 . S
C3917 C3916 1.404 . S
C3917 H3929 0.930 . S
C3918 C3914 1.524 . S
C3918 H3930 0.956 . S
C3918 H3931 0.961 . S
C3918 H3932 0.961 . S
C3919 C3916 1.539 . S
C3919 H3933 0.958 . S
C3919 H3934 0.961 . S
C3919 H3935 0.960 . S
H3920 C3904 0.931 . S
H3921 C3909 0.929 . S
H3922 C3910 0.960 . S
H3923 C3910 0.962 . S
H3924 C3910 0.960 . S
H3925 C3911 0.961 . S
H3926 C3911 0.961 . S
H3927 C3911 0.961 . S
H3928 C3912 0.931 . S
H3929 C3917 0.930 . S
H3930 C3918 0.956 . S
H3931 C3918 0.961 . S
H3932 C3918 0.961 . S
H3933 C3919 0.958 . S
H3934 C3919 0.961 . S
H3935 C3919 0.960 . S
C3936 C3937 1.391 . S
C3936 C3938 1.394 . S
C3936 H3952 0.931 . S
C3937 C3936 1.391 . S
C3937 C3941 1.376 . S
C3938 C3936 1.394 . S
C3938 C3939 1.369 . S
C3938 C3942 1.531 . S
C3939 C3938 1.369 . S
C3939 C3940 1.410 . S
C3939 C3947 1.503 . S
C3940 C3939 1.410 . S
C3940 C3941 1.392 . S
C3940 C3943 1.511 . S
C3941 C3937 1.376 . S
C3941 C3940 1.392 . S
C3941 H3953 0.929 . S
C3942 C3938 1.531 . S
C3942 H3954 0.960 . S
C3942 H3955 0.962 . S
C3942 H3956 0.960 . S
C3943 C3940 1.511 . S
C3943 H3957 0.961 . S
C3943 H3958 0.961 . S
C3943 H3959 0.961 . S
C3944 C3945 1.370 . S
C3944 C3946 1.363 . S
C3944 H3960 0.931 . S
C3945 C3944 1.370 . S
C3945 C3949 1.408 . S
C3946 C3944 1.363 . S
C3946 C3947 1.370 . S
C3946 C3950 1.524 . S
C3947 C3939 1.503 . S
C3947 C3946 1.370 . S
C3947 C3948 1.403 . S
C3948 C3947 1.403 . S
C3948 C3949 1.404 . S
C3948 C3951 1.539 . S
C3949 C3945 1.408 . S
C3949 C3948 1.404 . S
C3949 H3961 0.930 . S
C3950 C3946 1.524 . S
C3950 H3962 0.956 . S
C3950 H3963 0.961 . S
C3950 H3964 0.961 . S
C3951 C3948 1.539 . S
C3951 H3965 0.958 . S
C3951 H3966 0.961 . S
C3951 H3967 0.960 . S
H3952 C3936 0.931 . S
H3953 C3941 0.929 . S
H3954 C3942 0.960 . S
H3955 C3942 0.962 . S
H3956 C3942 0.960 . S
H3957 C3943 0.961 . S
H3958 C3943 0.961 . S
H3959 C3943 0.961 . S
H3960 C3944 0.931 . S
H3961 C3949 0.930 . S
H3962 C3950 0.956 . S
H3963 C3950 0.961 . S
H3964 C3950 0.961 . S
H3965 C3951 0.958 . S
H3966 C3951 0.961 . S
H3967 C3951 0.960 . S
C3968 C3969 1.391 . S
C3968 C3970 1.394 . S
C3968 H3984 0.931 . S
C3969 C3968 1.391 . S
C3969 C3973 1.376 . S
C3970 C3968 1.394 . S
C3970 C3971 1.369 . S
C3970 C3974 1.531 . S
C3971 C3970 1.369 . S
C3971 C3972 1.410 . S
C3971 C3979 1.503 . S
C3972 C3971 1.410 . S
C3972 C3973 1.392 . S
C3972 C3975 1.511 . S
C3973 C3969 1.376 . S
C3973 C3972 1.392 . S
C3973 H3985 0.929 . S
C3974 C3970 1.531 . S
C3974 H3986 0.960 . S
C3974 H3987 0.962 . S
C3974 H3988 0.960 . S
C3975 C3972 1.511 . S
C3975 H3989 0.961 . S
C3975 H3990 0.961 . S
C3975 H3991 0.961 . S
C3976 C3977 1.370 . S
C3976 C3978 1.363 . S
C3976 H3992 0.931 . S
C3977 C3976 1.370 . S
C3977 C3981 1.408 . S
C3978 C3976 1.363 . S
C3978 C3979 1.370 . S
C3978 C3982 1.524 . S
C3979 C3971 1.503 . S
C3979 C3978 1.370 . S
C3979 C3980 1.403 . S
C3980 C3979 1.403 . S
C3980 C3981 1.404 . S
C3980 C3983 1.539 . S
C3981 C3977 1.408 . S
C3981 C3980 1.404 . S
C3981 H3993 0.930 . S
C3982 C3978 1.524 . S
C3982 H3994 0.956 . S
C3982 H3995 0.961 . S
C3982 H3996 0.961 . S
C3983 C3980 1.539 . S
C3983 H3997 0.958 . S
C3983 H3998 0.961 . S
C3983 H3999 0.960 . S
H3984 C3968 0.931 . S
H3985 C3973 0.929 . S
H3986 C3974 0.960 . S
H3987 C3974 0.962 . S
H3988 C3974 0.960 . S
H3989 C3975 0.961 . S
H3990 C3975 0.961 . S
H3991 C3975 0.961 . S
H3992 C3976 0.931 . S
H3993 C3981 0.930 . S
H3994 C3982 0.956 . S
H3995 C3982 0.961 . S
H3996 C3982 0.961 . S
H3997 C3983 0.958 . S
H3998 C3983 0.961 . S
H3999 C3983 0.960 . S
C4000 C4001 1.391 . S
C4000 C4002 1.394 . S
C4000 H4016 0.931 . S
C4001 C4000 1.391 . S
C4001 C4005 1.376 . S
C4002 C4000 1.394 . S
C4002 C4003 1.369 . S
C4002 C4006 1.531 . S
C4003 C4002 1.369 . S
C4003 C4004 1.410 . S
C4003 C4011 1.503 . S
C4004 C4003 1.410 . S
C4004 C4005 1.392 . S
C4004 C4007 1.511 . S
C4005 C4001 1.376 . S
C4005 C4004 1.392 . S
C4005 H4017 0.929 . S
C4006 C4002 1.531 . S
C4006 H4018 0.960 . S
C4006 H4019 0.962 . S
C4006 H4020 0.960 . S
C4007 C4004 1.511 . S
C4007 H4021 0.961 . S
C4007 H4022 0.961 . S
C4007 H4023 0.961 . S
C4008 C4009 1.370 . S
C4008 C4010 1.363 . S
C4008 H4024 0.931 . S
C4009 C4008 1.370 . S
C4009 C4013 1.408 . S
C4010 C4008 1.363 . S
C4010 C4011 1.370 . S
C4010 C4014 1.524 . S
C4011 C4003 1.503 . S
C4011 C4010 1.370 . S
C4011 C4012 1.403 . S
C4012 C4011 1.403 . S
C4012 C4013 1.404 . S
C4012 C4015 1.539 . S
C4013 C4009 1.408 . S
C4013 C4012 1.404 . S
C4013 H4025 0.930 . S
C4014 C4010 1.524 . S
C4014 H4026 0.956 . S
C4014 H4027 0.961 . S
C4014 H4028 0.961 . S
C4015 C4012 1.539 . S
C4015 H4029 0.958 . S
C4015 H4030 0.961 . S
C4015 H4031 0.960 . S
H4016 C4000 0.931 . S
H4017 C4005 0.929 . S
H4018 C4006 0.960 . S
H4019 C4006 0.962 . S
H4020 C4006 0.960 . S
H4021 C4007 0.961 . S
H4022 C4007 0.961 . S
H4023 C4007 0.961 . S
H4024 C4008 0.931 . S
H4025 C4013 0.930 . S
H4026 C4014 0.956 . S
H4027 C4014 0.961 . S
H4028 C4014 0.961 . S
H4029 C4015 0.958 . S
H4030 C4015 0.961 . S
H4031 C4015 0.960 . S
C4032 C4033 1.391 . S
C4032 C4034 1.394 . S
C4032 H4048 0.931 . S
C4033 C4032 1.391 . S
C4033 C4037 1.376 . S
C4034 C4032 1.394 . S
C4034 C4035 1.369 . S
C4034 C4038 1.531 . S
C4035 C4034 1.369 . S
C4035 C4036 1.410 . S
C4035 C4043 1.503 . S
C4036 C4035 1.410 . S
C4036 C4037 1.392 . S
C4036 C4039 1.511 . S
C4037 C4033 1.376 . S
C4037 C4036 1.392 . S
C4037 H4049 0.929 . S
C4038 C4034 1.531 . S
C4038 H4050 0.960 . S
C4038 H4051 0.962 . S
C4038 H4052 0.960 . S
C4039 C4036 1.511 . S
C4039 H4053 0.961 . S
C4039 H4054 0.961 . S
C4039 H4055 0.961 . S
C4040 C4041 1.370 . S
C4040 C4042 1.363 . S
C4040 H4056 0.931 . S
C4041 C4040 1.370 . S
C4041 C4045 1.408 . S
C4042 C4040 1.363 . S
C4042 C4043 1.370 . S
C4042 C4046 1.524 . S
C4043 C4035 1.503 . S
C4043 C4042 1.370 . S
C4043 C4044 1.403 . S
C4044 C4043 1.403 . S
C4044 C4045 1.404 . S
C4044 C4047 1.539 . S
C4045 C4041 1.408 . S
C4045 C4044 1.404 . S
C4045 H4057 0.930 . S
C4046 C4042 1.524 . S
C4046 H4058 0.956 . S
C4046 H4059 0.961 . S
C4046 H4060 0.961 . S
C4047 C4044 1.539 . S
C4047 H4061 0.958 . S
C4047 H4062 0.961 . S
C4047 H4063 0.960 . S
H4048 C4032 0.931 . S
H4049 C4037 0.929 . S
H4050 C4038 0.960 . S
H4051 C4038 0.962 . S
H4052 C4038 0.960 . S
H4053 C4039 0.961 . S
H4054 C4039 0.961 . S
H4055 C4039 0.961 . S
H4056 C4040 0.931 . S
H4057 C4045 0.930 . S
H4058 C4046 0.956 . S
H4059 C4046 0.961 . S
H4060 C4046 0.961 . S
H4061 C4047 0.958 . S
H4062 C4047 0.961 . S
H4063 C4047 0.960 . S
C4064 C4065 1.391 . S
C4064 C4066 1.394 . S
C4064 H4080 0.931 . S
C4065 C4064 1.391 . S
C4065 C4069 1.376 . S
C4066 C4064 1.394 . S
C4066 C4067 1.369 . S
C4066 C4070 1.531 . S
C4067 C4066 1.369 . S
C4067 C4068 1.410 . S
C4067 C4075 1.503 . S
C4068 C4067 1.410 . S
C4068 C4069 1.392 . S
C4068 C4071 1.511 . S
C4069 C4065 1.376 . S
C4069 C4068 1.392 . S
C4069 H4081 0.929 . S
C4070 C4066 1.531 . S
C4070 H4082 0.960 . S
C4070 H4083 0.962 . S
C4070 H4084 0.960 . S
C4071 C4068 1.511 . S
C4071 H4085 0.961 . S
C4071 H4086 0.961 . S
C4071 H4087 0.961 . S
C4072 C4073 1.370 . S
C4072 C4074 1.363 . S
C4072 H4088 0.931 . S
C4073 C4072 1.370 . S
C4073 C4077 1.408 . S
C4074 C4072 1.363 . S
C4074 C4075 1.370 . S
C4074 C4078 1.524 . S
C4075 C4067 1.503 . S
C4075 C4074 1.370 . S
C4075 C4076 1.403 . S
C4076 C4075 1.403 . S
C4076 C4077 1.404 . S
C4076 C4079 1.539 . S
C4077 C4073 1.408 . S
C4077 C4076 1.404 . S
C4077 H4089 0.930 . S
C4078 C4074 1.524 . S
C4078 H4090 0.956 . S
C4078 H4091 0.961 . S
C4078 H4092 0.961 . S
C4079 C4076 1.539 . S
C4079 H4093 0.958 . S
C4079 H4094 0.961 . S
C4079 H4095 0.960 . S
H4080 C4064 0.931 . S
H4081 C4069 0.929 . S
H4082 C4070 0.960 . S
H4083 C4070 0.962 . S
H4084 C4070 0.960 . S
H4085 C4071 0.961 . S
H4086 C4071 0.961 . S
H4087 C4071 0.961 . S
H4088 C4072 0.931 . S
H4089 C4077 0.930 . S
H4090 C4078 0.956 . S
H4091 C4078 0.961 . S
H4092 C4078 0.961 . S
H4093 C4079 0.958 . S
H4094 C4079 0.961 . S
H4095 C4079 0.960 . S
C4096 C4097 1.391 . S
C4096 C4098 1.394 . S
C4096 H4112 0.931 . S
C4097 C4096 1.391 . S
C4097 C4101 1.376 . S
C4098 C4096 1.394 . S
C4098 C4099 1.369 . S
C4098 C4102 1.531 . S
C4099 C4098 1.369 . S
C4099 C4100 1.410 . S
C4099 C4107 1.503 . S
C4100 C4099 1.410 . S
C4100 C4101 1.392 . S
C4100 C4103 1.511 . S
C4101 C4097 1.376 . S
C4101 C4100 1.392 . S
C4101 H4113 0.929 . S
C4102 C4098 1.531 . S
C4102 H4114 0.960 . S
C4102 H4115 0.962 . S
C4102 H4116 0.960 . S
C4103 C4100 1.511 . S
C4103 H4117 0.961 . S
C4103 H4118 0.961 . S
C4103 H4119 0.961 . S
C4104 C4105 1.370 . S
C4104 C4106 1.363 . S
C4104 H4120 0.931 . S
C4105 C4104 1.370 . S
C4105 C4109 1.408 . S
C4106 C4104 1.363 . S
C4106 C4107 1.370 . S
C4106 C4110 1.524 . S
C4107 C4099 1.503 . S
C4107 C4106 1.370 . S
C4107 C4108 1.403 . S
C4108 C4107 1.403 . S
C4108 C4109 1.404 . S
C4108 C4111 1.539 . S
C4109 C4105 1.408 . S
C4109 C4108 1.404 . S
C4109 H4121 0.930 . S
C4110 C4106 1.524 . S
C4110 H4122 0.956 . S
C4110 H4123 0.961 . S
C4110 H4124 0.961 . S
C4111 C4108 1.539 . S
C4111 H4125 0.958 . S
C4111 H4126 0.961 . S
C4111 H4127 0.960 . S
H4112 C4096 0.931 . S
H4113 C4101 0.929 . S
H4114 C4102 0.960 . S
H4115 C4102 0.962 . S
H4116 C4102 0.960 . S
H4117 C4103 0.961 . S
H4118 C4103 0.961 . S
H4119 C4103 0.961 . S
H4120 C4104 0.931 . S
H4121 C4109 0.930 . S
H4122 C4110 0.956 . S
H4123 C4110 0.961 . S
H4124 C4110 0.961 . S
H4125 C4111 0.958 . S
H4126 C4111 0.961 . S
H4127 C4111 0.960 . S
C4128 C4129 1.391 . S
C4128 C4130 1.394 . S
C4128 H4144 0.931 . S
C4129 C4128 1.391 . S
C4129 C4133 1.376 . S
C4130 C4128 1.394 . S
C4130 C4131 1.369 . S
C4130 C4134 1.531 . S
C4131 C4130 1.369 . S
C4131 C4132 1.410 . S
C4131 C4139 1.503 . S
C4132 C4131 1.410 . S
C4132 C4133 1.392 . S
C4132 C4135 1.511 . S
C4133 C4129 1.376 . S
C4133 C4132 1.392 . S
C4133 H4145 0.929 . S
C4134 C4130 1.531 . S
C4134 H4146 0.960 . S
C4134 H4147 0.962 . S
C4134 H4148 0.960 . S
C4135 C4132 1.511 . S
C4135 H4149 0.961 . S
C4135 H4150 0.961 . S
C4135 H4151 0.961 . S
C4136 C4137 1.370 . S
C4136 C4138 1.363 . S
C4136 H4152 0.931 . S
C4137 C4136 1.370 . S
C4137 C4141 1.408 . S
C4138 C4136 1.363 . S
C4138 C4139 1.370 . S
C4138 C4142 1.524 . S
C4139 C4131 1.503 . S
C4139 C4138 1.370 . S
C4139 C4140 1.403 . S
C4140 C4139 1.403 . S
C4140 C4141 1.404 . S
C4140 C4143 1.539 . S
C4141 C4137 1.408 . S
C4141 C4140 1.404 . S
C4141 H4153 0.930 . S
C4142 C4138 1.524 . S
C4142 H4154 0.956 . S
C4142 H4155 0.961 . S
C4142 H4156 0.961 . S
C4143 C4140 1.539 . S
C4143 H4157 0.958 . S
C4143 H4158 0.961 . S
C4143 H4159 0.960 . S
H4144 C4128 0.931 . S
H4145 C4133 0.929 . S
H4146 C4134 0.960 . S
H4147 C4134 0.962 . S
H4148 C4134 0.960 . S
H4149 C4135 0.961 . S
H4150 C4135 0.961 . S
H4151 C4135 0.961 . S
H4152 C4136 0.931 . S
H4153 C4141 0.930 . S
H4154 C4142 0.956 . S
H4155 C4142 0.961 . S
H4156 C4142 0.961 . S
H4157 C4143 0.958 . S
H4158 C4143 0.961 . S
H4159 C4143 0.960 . S
C4160 C4161 1.391 . S
C4160 C4162 1.394 . S
C4160 H4176 0.931 . S
C4161 C4160 1.391 . S
C4161 C4165 1.376 . S
C4162 C4160 1.394 . S
C4162 C4163 1.369 . S
C4162 C4166 1.531 . S
C4163 C4162 1.369 . S
C4163 C4164 1.410 . S
C4163 C4171 1.503 . S
C4164 C4163 1.410 . S
C4164 C4165 1.392 . S
C4164 C4167 1.511 . S
C4165 C4161 1.376 . S
C4165 C4164 1.392 . S
C4165 H4177 0.929 . S
C4166 C4162 1.531 . S
C4166 H4178 0.960 . S
C4166 H4179 0.962 . S
C4166 H4180 0.960 . S
C4167 C4164 1.511 . S
C4167 H4181 0.961 . S
C4167 H4182 0.961 . S
C4167 H4183 0.961 . S
C4168 C4169 1.370 . S
C4168 C4170 1.363 . S
C4168 H4184 0.931 . S
C4169 C4168 1.370 . S
C4169 C4173 1.408 . S
C4170 C4168 1.363 . S
C4170 C4171 1.370 . S
C4170 C4174 1.524 . S
C4171 C4163 1.503 . S
C4171 C4170 1.370 . S
C4171 C4172 1.403 . S
C4172 C4171 1.403 . S
C4172 C4173 1.404 . S
C4172 C4175 1.539 . S
C4173 C4169 1.408 . S
C4173 C4172 1.404 . S
C4173 H4185 0.930 . S
C4174 C4170 1.524 . S
C4174 H4186 0.956 . S
C4174 H4187 0.961 . S
C4174 H4188 0.961 . S
C4175 C4172 1.539 . S
C4175 H4189 0.958 . S
C4175 H4190 0.961 . S
C4175 H4191 0.960 . S
H4176 C4160 0.931 . S
H4177 C4165 0.929 . S
H4178 C4166 0.960 . S
H4179 C4166 0.962 . S
H4180 C4166 0.960 . S
H4181 C4167 0.961 . S
H4182 C4167 0.961 . S
H4183 C4167 0.961 . S
H4184 C4168 0.931 . S
H4185 C4173 0.930 . S
H4186 C4174 0.956 . S
H4187 C4174 0.961 . S
H4188 C4174 0.961 . S
H4189 C4175 0.958 . S
H4190 C4175 0.961 . S
H4191 C4175 0.960 . S
C4192 C4193 1.391 . S
C4192 C4194 1.394 . S
C4192 H4208 0.931 . S
C4193 C4192 1.391 . S
C4193 C4197 1.376 . S
C4194 C4192 1.394 . S
C4194 C4195 1.369 . S
C4194 C4198 1.531 . S
C4195 C4194 1.369 . S
C4195 C4196 1.410 . S
C4195 C4203 1.503 . S
C4196 C4195 1.410 . S
C4196 C4197 1.392 . S
C4196 C4199 1.511 . S
C4197 C4193 1.376 . S
C4197 C4196 1.392 . S
C4197 H4209 0.929 . S
C4198 C4194 1.531 . S
C4198 H4210 0.960 . S
C4198 H4211 0.962 . S
C4198 H4212 0.960 . S
C4199 C4196 1.511 . S
C4199 H4213 0.961 . S
C4199 H4214 0.961 . S
C4199 H4215 0.961 . S
C4200 C4201 1.370 . S
C4200 C4202 1.363 . S
C4200 H4216 0.931 . S
C4201 C4200 1.370 . S
C4201 C4205 1.408 . S
C4202 C4200 1.363 . S
C4202 C4203 1.370 . S
C4202 C4206 1.524 . S
C4203 C4195 1.503 . S
C4203 C4202 1.370 . S
C4203 C4204 1.403 . S
C4204 C4203 1.403 . S
C4204 C4205 1.404 . S
C4204 C4207 1.539 . S
C4205 C4201 1.408 . S
C4205 C4204 1.404 . S
C4205 H4217 0.930 . S
C4206 C4202 1.524 . S
C4206 H4218 0.956 . S
C4206 H4219 0.961 . S
C4206 H4220 0.961 . S
C4207 C4204 1.539 . S
C4207 H4221 0.958 . S
C4207 H4222 0.961 . S
C4207 H4223 0.960 . S
H4208 C4192 0.931 . S
H4209 C4197 0.929 . S
H4210 C4198 0.960 . S
H4211 C4198 0.962 . S
H4212 C4198 0.960 . S
H4213 C4199 0.961 . S
H4214 C4199 0.961 . S
H4215 C4199 0.961 . S
H4216 C4200 0.931 . S
H4217 C4205 0.930 . S
H4218 C4206 0.956 . S
H4219 C4206 0.961 . S
H4220 C4206 0.961 . S
H4221 C4207 0.958 . S
H4222 C4207 0.961 . S
H4223 C4207 0.960 . S
C4224 C4225 1.391 . S
C4224 C4226 1.394 . S
C4224 H4240 0.931 . S
C4225 C4224 1.391 . S
C4225 C4229 1.376 . S
C4226 C4224 1.394 . S
C4226 C4227 1.369 . S
C4226 C4230 1.531 . S
C4227 C4226 1.369 . S
C4227 C4228 1.410 . S
C4227 C4235 1.503 . S
C4228 C4227 1.410 . S
C4228 C4229 1.392 . S
C4228 C4231 1.511 . S
C4229 C4225 1.376 . S
C4229 C4228 1.392 . S
C4229 H4241 0.929 . S
C4230 C4226 1.531 . S
C4230 H4242 0.960 . S
C4230 H4243 0.962 . S
C4230 H4244 0.960 . S
C4231 C4228 1.511 . S
C4231 H4245 0.961 . S
C4231 H4246 0.961 . S
C4231 H4247 0.961 . S
C4232 C4233 1.370 . S
C4232 C4234 1.363 . S
C4232 H4248 0.931 . S
C4233 C4232 1.370 . S
C4233 C4237 1.408 . S
C4234 C4232 1.363 . S
C4234 C4235 1.370 . S
C4234 C4238 1.524 . S
C4235 C4227 1.503 . S
C4235 C4234 1.370 . S
C4235 C4236 1.403 . S
C4236 C4235 1.403 . S
C4236 C4237 1.404 . S
C4236 C4239 1.539 . S
C4237 C4233 1.408 . S
C4237 C4236 1.404 . S
C4237 H4249 0.930 . S
C4238 C4234 1.524 . S
C4238 H4250 0.956 . S
C4238 H4251 0.961 . S
C4238 H4252 0.961 . S
C4239 C4236 1.539 . S
C4239 H4253 0.958 . S
C4239 H4254 0.961 . S
C4239 H4255 0.960 . S
H4240 C4224 0.931 . S
H4241 C4229 0.929 . S
H4242 C4230 0.960 . S
H4243 C4230 0.962 . S
H4244 C4230 0.960 . S
H4245 C4231 0.961 . S
H4246 C4231 0.961 . S
H4247 C4231 0.961 . S
H4248 C4232 0.931 . S
H4249 C4237 0.930 . S
H4250 C4238 0.956 . S
H4251 C4238 0.961 . S
H4252 C4238 0.961 . S
H4253 C4239 0.958 . S
H4254 C4239 0.961 . S
H4255 C4239 0.960 . S
C4256 C4257 1.391 . S
C4256 C4258 1.394 1_565 S
C4256 H4272 0.931 . S
C4257 C4256 1.391 . S
C4257 C4261 1.376 . S
C4258 C4256 1.394 1_545 S
C4258 C4259 1.369 . S
C4258 C4262 1.531 . S
C4259 C4258 1.369 . S
C4259 C4260 1.410 . S
C4259 C4267 1.503 . S
C4260 C4259 1.410 . S
C4260 C4261 1.392 1_545 S
C4260 C4263 1.511 . S
C4261 C4257 1.376 . S
C4261 C4260 1.392 1_565 S
C4261 H4273 0.929 . S
C4262 C4258 1.531 . S
C4262 H4274 0.960 . S
C4262 H4275 0.962 1_545 S
C4262 H4276 0.960 . S
C4263 C4260 1.511 . S
C4263 H4277 0.961 . S
C4263 H4278 0.961 . S
C4263 H4279 0.961 . S
C4264 C4265 1.370 . S
C4264 C4266 1.363 . S
C4264 H4280 0.931 . S
C4265 C4264 1.370 . S
C4265 C4269 1.408 . S
C4266 C4264 1.363 . S
C4266 C4267 1.370 . S
C4266 C4270 1.524 . S
C4267 C4259 1.503 . S
C4267 C4266 1.370 . S
C4267 C4268 1.403 . S
C4268 C4267 1.403 . S
C4268 C4269 1.404 . S
C4268 C4271 1.539 . S
C4269 C4265 1.408 . S
C4269 C4268 1.404 . S
C4269 H4281 0.930 . S
C4270 C4266 1.524 . S
C4270 H4282 0.956 1_545 S
C4270 H4283 0.961 1_545 S
C4270 H4284 0.965 1_545 S
C4271 C4268 1.539 . S
C4271 H4285 0.958 . S
C4271 H4286 0.961 . S
C4271 H4287 0.960 . S
H4272 C4256 0.931 . S
H4273 C4261 0.929 . S
H4274 C4262 0.960 . S
H4275 C4262 0.962 1_565 S
H4276 C4262 0.960 . S
H4277 C4263 0.961 . S
H4278 C4263 0.961 . S
H4279 C4263 0.961 . S
H4280 C4264 0.931 . S
H4281 C4269 0.930 . S
H4282 C4270 0.956 1_565 S
H4283 C4270 0.961 1_565 S
H4284 C4270 0.965 1_565 S
H4285 C4271 0.958 . S
H4286 C4271 0.961 . S
H4287 C4271 0.960 . S
C4288 C4289 1.391 . S
C4288 C4290 1.394 . S
C4288 H4304 0.931 . S
C4289 C4288 1.391 . S
C4289 C4293 1.376 . S
C4290 C4288 1.394 . S
C4290 C4291 1.369 . S
C4290 C4294 1.531 . S
C4291 C4290 1.369 . S
C4291 C4292 1.410 . S
C4291 C4299 1.503 1_455 S
C4292 C4291 1.410 . S
C4292 C4293 1.392 . S
C4292 C4295 1.511 1_455 S
C4293 C4289 1.376 . S
C4293 C4292 1.392 . S
C4293 H4305 0.929 . S
C4294 C4290 1.531 . S
C4294 H4306 0.960 . S
C4294 H4307 0.962 . S
C4294 H4308 0.960 . S
C4295 C4292 1.511 1_655 S
C4295 H4309 0.961 . S
C4295 H4310 0.961 . S
C4295 H4311 0.961 . S
C4296 C4297 1.370 . S
C4296 C4298 1.363 . S
C4296 H4312 0.931 . S
C4297 C4296 1.370 . S
C4297 C4301 1.408 . S
C4298 C4296 1.363 . S
C4298 C4299 1.370 . S
C4298 C4302 1.524 1_655 S
C4299 C4291 1.503 1_655 S
C4299 C4298 1.370 . S
C4299 C4300 1.403 . S
C4300 C4299 1.403 . S
C4300 C4301 1.404 . S
C4300 C4303 1.539 . S
C4301 C4297 1.408 . S
C4301 C4300 1.404 . S
C4301 H4313 0.930 . S
C4302 C4298 1.524 1_455 S
C4302 H4314 0.956 . S
C4302 H4315 0.961 . S
C4302 H4316 0.961 . S
C4303 C4300 1.539 . S
C4303 H4317 0.958 . S
C4303 H4318 0.961 . S
C4303 H4319 0.960 . S
H4304 C4288 0.931 . S
H4305 C4293 0.929 . S
H4306 C4294 0.960 . S
H4307 C4294 0.962 . S
H4308 C4294 0.960 . S
H4309 C4295 0.961 . S
H4310 C4295 0.961 . S
H4311 C4295 0.961 . S
H4312 C4296 0.931 . S
H4313 C4301 0.930 . S
H4314 C4302 0.956 . S
H4315 C4302 0.961 . S
H4316 C4302 0.961 . S
H4317 C4303 0.958 . S
H4318 C4303 0.961 . S
H4319 C4303 0.960 . S
C4320 C4321 1.391 . S
C4320 C4322 1.394 . S
C4320 H4336 0.931 . S
C4321 C4320 1.391 . S
C4321 C4325 1.376 . S
C4322 C4320 1.394 . S
C4322 C4323 1.369 . S
C4322 C4326 1.531 . S
C4323 C4322 1.369 . S
C4323 C4324 1.410 . S
C4323 C4331 1.503 . S
C4324 C4323 1.410 . S
C4324 C4325 1.392 . S
C4324 C4327 1.511 . S
C4325 C4321 1.376 . S
C4325 C4324 1.392 . S
C4325 H4337 0.929 . S
C4326 C4322 1.531 . S
C4326 H4338 0.960 . S
C4326 H4339 0.962 . S
C4326 H4340 0.960 . S
C4327 C4324 1.511 . S
C4327 H4341 0.961 . S
C4327 H4342 0.961 . S
C4327 H4343 0.961 . S
C4328 C4329 1.370 . S
C4328 C4330 1.363 . S
C4328 H4344 0.931 . S
C4329 C4328 1.370 . S
C4329 C4333 1.408 . S
C4330 C4328 1.363 . S
C4330 C4331 1.370 . S
C4330 C4334 1.524 . S
C4331 C4323 1.503 . S
C4331 C4330 1.370 . S
C4331 C4332 1.403 . S
C4332 C4331 1.403 . S
C4332 C4333 1.404 . S
C4332 C4335 1.539 . S
C4333 C4329 1.408 . S
C4333 C4332 1.404 . S
C4333 H4345 0.930 . S
C4334 C4330 1.524 . S
C4334 H4346 0.956 . S
C4334 H4347 0.961 . S
C4334 H4348 0.961 . S
C4335 C4332 1.539 . S
C4335 H4349 0.958 . S
C4335 H4350 0.961 . S
C4335 H4351 0.960 . S
H4336 C4320 0.931 . S
H4337 C4325 0.929 . S
H4338 C4326 0.960 . S
H4339 C4326 0.962 . S
H4340 C4326 0.960 . S
H4341 C4327 0.961 . S
H4342 C4327 0.961 . S
H4343 C4327 0.961 . S
H4344 C4328 0.931 . S
H4345 C4333 0.930 . S
H4346 C4334 0.956 . S
H4347 C4334 0.961 . S
H4348 C4334 0.961 . S
H4349 C4335 0.958 . S
H4350 C4335 0.961 . S
H4351 C4335 0.960 . S
C4352 C4353 1.391 . S
C4352 C4354 1.394 . S
C4352 H4368 0.931 . S
C4353 C4352 1.391 . S
C4353 C4357 1.376 . S
C4354 C4352 1.394 . S
C4354 C4355 1.369 . S
C4354 C4358 1.531 . S
C4355 C4354 1.369 . S
C4355 C4356 1.410 . S
C4355 C4363 1.503 . S
C4356 C4355 1.410 . S
C4356 C4357 1.392 . S
C4356 C4359 1.511 . S
C4357 C4353 1.376 . S
C4357 C4356 1.392 . S
C4357 H4369 0.929 . S
C4358 C4354 1.531 . S
C4358 H4370 0.960 . S
C4358 H4371 0.962 . S
C4358 H4372 0.960 . S
C4359 C4356 1.511 . S
C4359 H4373 0.961 . S
C4359 H4374 0.961 . S
C4359 H4375 0.961 . S
C4360 C4361 1.370 . S
C4360 C4362 1.363 . S
C4360 H4376 0.931 . S
C4361 C4360 1.370 . S
C4361 C4365 1.408 1_565 S
C4362 C4360 1.363 . S
C4362 C4363 1.370 1_565 S
C4362 C4366 1.524 . S
C4363 C4355 1.503 . S
C4363 C4362 1.370 1_545 S
C4363 C4364 1.403 . S
C4364 C4363 1.403 . S
C4364 C4365 1.404 . S
C4364 C4367 1.539 . S
C4365 C4361 1.408 1_545 S
C4365 C4364 1.404 . S
C4365 H4377 0.930 . S
C4366 C4362 1.524 . S
C4366 H4378 0.956 . S
C4366 H4379 0.961 . S
C4366 H4380 0.961 . S
C4367 C4364 1.539 . S
C4367 H4381 0.958 . S
C4367 H4382 0.961 . S
C4367 H4383 0.960 . S
H4368 C4352 0.931 . S
H4369 C4357 0.929 . S
H4370 C4358 0.960 . S
H4371 C4358 0.962 . S
H4372 C4358 0.960 . S
H4373 C4359 0.961 . S
H4374 C4359 0.961 . S
H4375 C4359 0.961 . S
H4376 C4360 0.931 . S
H4377 C4365 0.930 . S
H4378 C4366 0.956 . S
H4379 C4366 0.961 . S
H4380 C4366 0.961 . S
H4381 C4367 0.958 . S
H4382 C4367 0.961 . S
H4383 C4367 0.960 . S
C4384 C4385 1.391 . S
C4384 C4386 1.394 . S
C4384 H4400 0.931 . S
C4385 C4384 1.391 . S
C4385 C4389 1.376 . S
C4386 C4384 1.394 . S
C4386 C4387 1.369 . S
C4386 C4390 1.531 . S
C4387 C4386 1.369 . S
C4387 C4388 1.410 . S
C4387 C4395 1.503 1_455 S
C4388 C4387 1.410 . S
C4388 C4389 1.392 . S
C4388 C4391 1.511 1_455 S
C4389 C4385 1.376 . S
C4389 C4388 1.392 . S
C4389 H4401 0.929 . S
C4390 C4386 1.531 . S
C4390 H4402 0.960 . S
C4390 H4403 0.962 . S
C4390 H4404 0.960 . S
C4391 C4388 1.511 1_655 S
C4391 H4405 0.961 . S
C4391 H4406 0.961 . S
C4391 H4407 0.961 . S
C4392 C4393 1.370 . S
C4392 C4394 1.363 . S
C4392 H4408 0.931 . S
C4393 C4392 1.370 . S
C4393 C4397 1.408 . S
C4394 C4392 1.363 . S
C4394 C4395 1.370 . S
C4394 C4398 1.524 1_655 S
C4395 C4387 1.503 1_655 S
C4395 C4394 1.370 . S
C4395 C4396 1.403 . S
C4396 C4395 1.403 . S
C4396 C4397 1.404 . S
C4396 C4399 1.539 . S
C4397 C4393 1.408 . S
C4397 C4396 1.404 . S
C4397 H4409 0.930 . S
C4398 C4394 1.524 1_455 S
C4398 H4410 0.956 . S
C4398 H4411 0.961 . S
C4398 H4412 0.961 . S
C4399 C4396 1.539 . S
C4399 H4413 0.958 . S
C4399 H4414 0.961 . S
C4399 H4415 0.960 . S
H4400 C4384 0.931 . S
H4401 C4389 0.929 . S
H4402 C4390 0.960 . S
H4403 C4390 0.962 . S
H4404 C4390 0.960 . S
H4405 C4391 0.961 . S
H4406 C4391 0.961 . S
H4407 C4391 0.961 . S
H4408 C4392 0.931 . S
H4409 C4397 0.930 . S
H4410 C4398 0.956 . S
H4411 C4398 0.961 . S
H4412 C4398 0.961 . S
H4413 C4399 0.958 . S
H4414 C4399 0.961 . S
H4415 C4399 0.960 . S
C4416 C4417 1.391 . S
C4416 C4418 1.394 . S
C4416 H4432 0.931 . S
C4417 C4416 1.391 . S
C4417 C4421 1.376 . S
C4418 C4416 1.394 . S
C4418 C4419 1.369 . S
C4418 C4422 1.531 . S
C4419 C4418 1.369 . S
C4419 C4420 1.410 . S
C4419 C4427 1.503 . S
C4420 C4419 1.410 . S
C4420 C4421 1.392 . S
C4420 C4423 1.511 . S
C4421 C4417 1.376 . S
C4421 C4420 1.392 . S
C4421 H4433 0.929 . S
C4422 C4418 1.531 . S
C4422 H4434 0.960 . S
C4422 H4435 0.962 . S
C4422 H4436 0.960 . S
C4423 C4420 1.511 . S
C4423 H4437 0.961 . S
C4423 H4438 0.961 . S
C4423 H4439 0.961 . S
C4424 C4425 1.370 . S
C4424 C4426 1.363 . S
C4424 H4440 0.931 . S
C4425 C4424 1.370 . S
C4425 C4429 1.408 . S
C4426 C4424 1.363 . S
C4426 C4427 1.370 . S
C4426 C4430 1.524 . S
C4427 C4419 1.503 . S
C4427 C4426 1.370 . S
C4427 C4428 1.403 . S
C4428 C4427 1.403 . S
C4428 C4429 1.404 . S
C4428 C4431 1.539 . S
C4429 C4425 1.408 . S
C4429 C4428 1.404 . S
C4429 H4441 0.930 . S
C4430 C4426 1.524 . S
C4430 H4442 0.956 . S
C4430 H4443 0.961 . S
C4430 H4444 0.961 . S
C4431 C4428 1.539 . S
C4431 H4445 0.958 . S
C4431 H4446 0.961 . S
C4431 H4447 0.960 . S
H4432 C4416 0.931 . S
H4433 C4421 0.929 . S
H4434 C4422 0.960 . S
H4435 C4422 0.962 . S
H4436 C4422 0.960 . S
H4437 C4423 0.961 . S
H4438 C4423 0.961 . S
H4439 C4423 0.961 . S
H4440 C4424 0.931 . S
H4441 C4429 0.930 . S
H4442 C4430 0.956 . S
H4443 C4430 0.961 . S
H4444 C4430 0.961 . S
H4445 C4431 0.958 . S
H4446 C4431 0.961 . S
H4447 C4431 0.960 . S
C4448 C4449 1.391 . S
C4448 C4450 1.394 . S
C4448 H4464 0.931 . S
C4449 C4448 1.391 . S
C4449 C4453 1.376 . S
C4450 C4448 1.394 . S
C4450 C4451 1.369 . S
C4450 C4454 1.531 . S
C4451 C4450 1.369 . S
C4451 C4452 1.410 . S
C4451 C4459 1.503 . S
C4452 C4451 1.410 . S
C4452 C4453 1.392 . S
C4452 C4455 1.511 . S
C4453 C4449 1.376 . S
C4453 C4452 1.392 . S
C4453 H4465 0.929 . S
C4454 C4450 1.531 . S
C4454 H4466 0.960 . S
C4454 H4467 0.962 . S
C4454 H4468 0.960 . S
C4455 C4452 1.511 . S
C4455 H4469 0.961 . S
C4455 H4470 0.961 . S
C4455 H4471 0.961 . S
C4456 C4457 1.370 . S
C4456 C4458 1.363 . S
C4456 H4472 0.931 . S
C4457 C4456 1.370 . S
C4457 C4461 1.408 . S
C4458 C4456 1.363 . S
C4458 C4459 1.370 . S
C4458 C4462 1.524 . S
C4459 C4451 1.503 . S
C4459 C4458 1.370 . S
C4459 C4460 1.403 . S
C4460 C4459 1.403 . S
C4460 C4461 1.404 . S
C4460 C4463 1.539 . S
C4461 C4457 1.408 . S
C4461 C4460 1.404 . S
C4461 H4473 0.930 . S
C4462 C4458 1.524 . S
C4462 H4474 0.956 . S
C4462 H4475 0.961 . S
C4462 H4476 0.961 . S
C4463 C4460 1.539 . S
C4463 H4477 0.958 . S
C4463 H4478 0.961 . S
C4463 H4479 0.960 . S
H4464 C4448 0.931 . S
H4465 C4453 0.929 . S
H4466 C4454 0.960 . S
H4467 C4454 0.962 . S
H4468 C4454 0.960 . S
H4469 C4455 0.961 . S
H4470 C4455 0.961 . S
H4471 C4455 0.961 . S
H4472 C4456 0.931 . S
H4473 C4461 0.930 . S
H4474 C4462 0.956 . S
H4475 C4462 0.961 . S
H4476 C4462 0.961 . S
H4477 C4463 0.958 . S
H4478 C4463 0.961 . S
H4479 C4463 0.960 . S
C4480 C4481 1.391 . S
C4480 C4482 1.394 . S
C4480 H4496 0.931 . S
C4481 C4480 1.391 . S
C4481 C4485 1.376 . S
C4482 C4480 1.394 . S
C4482 C4483 1.369 . S
C4482 C4486 1.531 . S
C4483 C4482 1.369 . S
C4483 C4484 1.410 . S
C4483 C4491 1.503 . S
C4484 C4483 1.410 . S
C4484 C4485 1.392 . S
C4484 C4487 1.511 . S
C4485 C4481 1.376 . S
C4485 C4484 1.392 . S
C4485 H4497 0.929 . S
C4486 C4482 1.531 . S
C4486 H4498 0.960 . S
C4486 H4499 0.962 . S
C4486 H4500 0.960 . S
C4487 C4484 1.511 . S
C4487 H4501 0.961 . S
C4487 H4502 0.961 . S
C4487 H4503 0.961 . S
C4488 C4489 1.370 . S
C4488 C4490 1.363 . S
C4488 H4504 0.931 . S
C4489 C4488 1.370 . S
C4489 C4493 1.408 . S
C4490 C4488 1.363 . S
C4490 C4491 1.370 . S
C4490 C4494 1.524 . S
C4491 C4483 1.503 . S
C4491 C4490 1.370 . S
C4491 C4492 1.403 . S
C4492 C4491 1.403 . S
C4492 C4493 1.404 . S
C4492 C4495 1.539 . S
C4493 C4489 1.408 . S
C4493 C4492 1.404 . S
C4493 H4505 0.930 . S
C4494 C4490 1.524 . S
C4494 H4506 0.956 . S
C4494 H4507 0.961 . S
C4494 H4508 0.961 . S
C4495 C4492 1.539 . S
C4495 H4509 0.958 . S
C4495 H4510 0.961 . S
C4495 H4511 0.960 . S
H4496 C4480 0.931 . S
H4497 C4485 0.929 . S
H4498 C4486 0.960 . S
H4499 C4486 0.962 . S
H4500 C4486 0.960 . S
H4501 C4487 0.961 . S
H4502 C4487 0.961 . S
H4503 C4487 0.961 . S
H4504 C4488 0.931 . S
H4505 C4493 0.930 . S
H4506 C4494 0.956 . S
H4507 C4494 0.961 . S
H4508 C4494 0.961 . S
H4509 C4495 0.958 . S
H4510 C4495 0.961 . S
H4511 C4495 0.960 . S
C4512 C4513 1.391 . S
C4512 C4514 1.394 . S
C4512 H4528 0.931 . S
C4513 C4512 1.391 . S
C4513 C4517 1.376 . S
C4514 C4512 1.394 . S
C4514 C4515 1.369 . S
C4514 C4518 1.531 . S
C4515 C4514 1.369 . S
C4515 C4516 1.410 . S
C4515 C4523 1.503 . S
C4516 C4515 1.410 . S
C4516 C4517 1.392 . S
C4516 C4519 1.511 . S
C4517 C4513 1.376 . S
C4517 C4516 1.392 . S
C4517 H4529 0.929 . S
C4518 C4514 1.531 . S
C4518 H4530 0.960 . S
C4518 H4531 0.962 . S
C4518 H4532 0.960 . S
C4519 C4516 1.511 . S
C4519 H4533 0.961 . S
C4519 H4534 0.961 . S
C4519 H4535 0.961 . S
C4520 C4521 1.370 . S
C4520 C4522 1.363 . S
C4520 H4536 0.931 . S
C4521 C4520 1.370 . S
C4521 C4525 1.408 . S
C4522 C4520 1.363 . S
C4522 C4523 1.370 . S
C4522 C4526 1.524 . S
C4523 C4515 1.503 . S
C4523 C4522 1.370 . S
C4523 C4524 1.403 . S
C4524 C4523 1.403 . S
C4524 C4525 1.404 . S
C4524 C4527 1.539 . S
C4525 C4521 1.408 . S
C4525 C4524 1.404 . S
C4525 H4537 0.930 . S
C4526 C4522 1.524 . S
C4526 H4538 0.956 . S
C4526 H4539 0.961 . S
C4526 H4540 0.961 . S
C4527 C4524 1.539 . S
C4527 H4541 0.958 . S
C4527 H4542 0.961 . S
C4527 H4543 0.960 . S
H4528 C4512 0.931 . S
H4529 C4517 0.929 . S
H4530 C4518 0.960 . S
H4531 C4518 0.962 . S
H4532 C4518 0.960 . S
H4533 C4519 0.961 . S
H4534 C4519 0.961 . S
H4535 C4519 0.961 . S
H4536 C4520 0.931 . S
H4537 C4525 0.930 . S
H4538 C4526 0.956 . S
H4539 C4526 0.961 . S
H4540 C4526 0.961 . S
H4541 C4527 0.958 . S
H4542 C4527 0.961 . S
H4543 C4527 0.960 . S
C4544 C4545 1.391 . S
C4544 C4546 1.394 . S
C4544 H4560 0.931 . S
C4545 C4544 1.391 . S
C4545 C4549 1.376 . S
C4546 C4544 1.394 . S
C4546 C4547 1.369 . S
C4546 C4550 1.531 . S
C4547 C4546 1.369 . S
C4547 C4548 1.410 . S
C4547 C4555 1.503 1_565 S
C4548 C4547 1.410 . S
C4548 C4549 1.392 . S
C4548 C4551 1.511 1_565 S
C4549 C4545 1.376 . S
C4549 C4548 1.392 . S
C4549 H4561 0.929 . S
C4550 C4546 1.531 . S
C4550 H4562 0.960 . S
C4550 H4563 0.962 . S
C4550 H4564 0.960 . S
C4551 C4548 1.511 1_545 S
C4551 H4565 0.961 . S
C4551 H4566 0.961 . S
C4551 H4567 0.961 . S
C4552 C4553 1.370 . S
C4552 C4554 1.363 . S
C4552 H4568 0.931 . S
C4553 C4552 1.370 . S
C4553 C4557 1.408 . S
C4554 C4552 1.363 . S
C4554 C4555 1.370 . S
C4554 C4558 1.524 1_545 S
C4555 C4547 1.503 1_545 S
C4555 C4554 1.370 . S
C4555 C4556 1.403 . S
C4556 C4555 1.403 . S
C4556 C4557 1.404 . S
C4556 C4559 1.539 . S
C4557 C4553 1.408 . S
C4557 C4556 1.404 . S
C4557 H4569 0.930 . S
C4558 C4554 1.524 1_565 S
C4558 H4570 0.956 . S
C4558 H4571 0.961 . S
C4558 H4572 0.961 . S
C4559 C4556 1.539 . S
C4559 H4573 0.958 . S
C4559 H4574 0.961 . S
C4559 H4575 0.960 . S
H4560 C4544 0.931 . S
H4561 C4549 0.929 . S
H4562 C4550 0.960 . S
H4563 C4550 0.962 . S
H4564 C4550 0.960 . S
H4565 C4551 0.961 . S
H4566 C4551 0.961 . S
H4567 C4551 0.961 . S
H4568 C4552 0.931 . S
H4569 C4557 0.930 . S
H4570 C4558 0.956 . S
H4571 C4558 0.961 . S
H4572 C4558 0.961 . S
H4573 C4559 0.958 . S
H4574 C4559 0.961 . S
H4575 C4559 0.960 . S
C4576 C4577 1.391 . S
C4576 C4578 1.394 . S
C4576 H4592 0.931 . S
C4577 C4576 1.391 . S
C4577 C4581 1.376 . S
C4578 C4576 1.394 . S
C4578 C4579 1.369 . S
C4578 C4582 1.531 . S
C4579 C4578 1.369 . S
C4579 C4580 1.410 . S
C4579 C4587 1.503 . S
C4580 C4579 1.410 . S
C4580 C4581 1.392 . S
C4580 C4583 1.511 1_455 S
C4581 C4577 1.376 . S
C4581 C4580 1.392 . S
C4581 H4593 0.929 . S
C4582 C4578 1.531 . S
C4582 H4594 0.960 . S
C4582 H4595 0.962 . S
C4582 H4596 0.960 . S
C4583 C4580 1.511 1_655 S
C4583 H4597 0.960 . S
C4583 H4598 0.961 . S
C4583 H4599 0.961 . S
C4584 C4585 1.370 . S
C4584 C4586 1.363 1_655 S
C4584 H4600 0.931 . S
C4585 C4584 1.370 . S
C4585 C4589 1.408 . S
C4586 C4584 1.363 1_455 S
C4586 C4587 1.370 . S
C4586 C4590 1.524 . S
C4587 C4579 1.503 . S
C4587 C4586 1.370 . S
C4587 C4588 1.403 1_455 S
C4588 C4587 1.403 1_655 S
C4588 C4589 1.404 . S
C4588 C4591 1.539 . S
C4589 C4585 1.408 . S
C4589 C4588 1.404 . S
C4589 H4601 0.930 . S
C4590 C4586 1.524 . S
C4590 H4602 0.956 . S
C4590 H4603 0.961 . S
C4590 H4604 0.961 . S
C4591 C4588 1.539 . S
C4591 H4605 0.958 1_655 S
C4591 H4606 0.961 . S
C4591 H4607 0.960 1_655 S
H4592 C4576 0.931 . S
H4593 C4581 0.929 . S
H4594 C4582 0.960 . S
H4595 C4582 0.962 . S
H4596 C4582 0.960 . S
H4597 C4583 0.960 . S
H4598 C4583 0.961 . S
H4599 C4583 0.961 . S
H4600 C4584 0.931 . S
H4601 C4589 0.930 . S
H4602 C4590 0.956 . S
H4603 C4590 0.961 . S
H4604 C4590 0.961 . S
H4605 C4591 0.958 1_455 S
H4606 C4591 0.961 . S
H4607 C4591 0.960 1_455 S
C4608 C4609 1.391 . S
C4608 C4610 1.394 . S
C4608 H4624 0.931 . S
C4609 C4608 1.391 . S
C4609 C4613 1.376 . S
C4610 C4608 1.394 . S
C4610 C4611 1.369 . S
C4610 C4614 1.531 . S
C4611 C4610 1.369 . S
C4611 C4612 1.410 . S
C4611 C4619 1.503 . S
C4612 C4611 1.410 . S
C4612 C4613 1.392 . S
C4612 C4615 1.511 . S
C4613 C4609 1.376 . S
C4613 C4612 1.392 . S
C4613 H4625 0.929 . S
C4614 C4610 1.531 . S
C4614 H4626 0.960 . S
C4614 H4627 0.962 . S
C4614 H4628 0.960 . S
C4615 C4612 1.511 . S
C4615 H4629 0.961 . S
C4615 H4630 0.961 . S
C4615 H4631 0.961 . S
C4616 C4617 1.370 . S
C4616 C4618 1.363 . S
C4616 H4632 0.931 . S
C4617 C4616 1.370 . S
C4617 C4621 1.408 . S
C4618 C4616 1.363 . S
C4618 C4619 1.370 . S
C4618 C4622 1.524 . S
C4619 C4611 1.503 . S
C4619 C4618 1.370 . S
C4619 C4620 1.403 . S
C4620 C4619 1.403 . S
C4620 C4621 1.404 . S
C4620 C4623 1.539 . S
C4621 C4617 1.408 . S
C4621 C4620 1.404 . S
C4621 H4633 0.930 . S
C4622 C4618 1.524 . S
C4622 H4634 0.956 . S
C4622 H4635 0.961 . S
C4622 H4636 0.961 . S
C4623 C4620 1.539 . S
C4623 H4637 0.958 . S
C4623 H4638 0.961 . S
C4623 H4639 0.960 . S
H4624 C4608 0.931 . S
H4625 C4613 0.929 . S
H4626 C4614 0.960 . S
H4627 C4614 0.962 . S
H4628 C4614 0.960 . S
H4629 C4615 0.961 . S
H4630 C4615 0.961 . S
H4631 C4615 0.961 . S
H4632 C4616 0.931 . S
H4633 C4621 0.930 . S
H4634 C4622 0.956 . S
H4635 C4622 0.961 . S
H4636 C4622 0.961 . S
H4637 C4623 0.958 . S
H4638 C4623 0.961 . S
H4639 C4623 0.960 . S
C4640 C4641 1.391 . S
C4640 C4642 1.394 . S
C4640 H4656 0.931 . S
C4641 C4640 1.391 . S
C4641 C4645 1.376 . S
C4642 C4640 1.394 . S
C4642 C4643 1.369 . S
C4642 C4646 1.531 . S
C4643 C4642 1.369 . S
C4643 C4644 1.410 . S
C4643 C4651 1.503 . S
C4644 C4643 1.410 . S
C4644 C4645 1.392 . S
C4644 C4647 1.511 . S
C4645 C4641 1.376 . S
C4645 C4644 1.392 . S
C4645 H4657 0.929 . S
C4646 C4642 1.531 . S
C4646 H4658 0.960 . S
C4646 H4659 0.962 . S
C4646 H4660 0.960 . S
C4647 C4644 1.511 . S
C4647 H4661 0.961 . S
C4647 H4662 0.961 . S
C4647 H4663 0.961 . S
C4648 C4649 1.370 . S
C4648 C4650 1.363 . S
C4648 H4664 0.931 . S
C4649 C4648 1.370 . S
C4649 C4653 1.408 . S
C4650 C4648 1.363 . S
C4650 C4651 1.370 . S
C4650 C4654 1.524 . S
C4651 C4643 1.503 . S
C4651 C4650 1.370 . S
C4651 C4652 1.403 . S
C4652 C4651 1.403 . S
C4652 C4653 1.404 . S
C4652 C4655 1.539 . S
C4653 C4649 1.408 . S
C4653 C4652 1.404 . S
C4653 H4665 0.930 . S
C4654 C4650 1.524 . S
C4654 H4666 0.956 . S
C4654 H4667 0.961 . S
C4654 H4668 0.961 . S
C4655 C4652 1.539 . S
C4655 H4669 0.958 . S
C4655 H4670 0.961 . S
C4655 H4671 0.960 . S
H4656 C4640 0.931 . S
H4657 C4645 0.929 . S
H4658 C4646 0.960 . S
H4659 C4646 0.962 . S
H4660 C4646 0.960 . S
H4661 C4647 0.961 . S
H4662 C4647 0.961 . S
H4663 C4647 0.961 . S
H4664 C4648 0.931 . S
H4665 C4653 0.930 . S
H4666 C4654 0.956 . S
H4667 C4654 0.961 . S
H4668 C4654 0.961 . S
H4669 C4655 0.958 . S
H4670 C4655 0.961 . S
H4671 C4655 0.960 . S
C4672 C4673 1.391 . S
C4672 C4674 1.394 . S
C4672 H4688 0.931 . S
C4673 C4672 1.391 . S
C4673 C4677 1.376 . S
C4674 C4672 1.394 . S
C4674 C4675 1.369 . S
C4674 C4678 1.531 . S
C4675 C4674 1.369 . S
C4675 C4676 1.410 . S
C4675 C4683 1.503 . S
C4676 C4675 1.410 . S
C4676 C4677 1.392 . S
C4676 C4679 1.511 . S
C4677 C4673 1.376 . S
C4677 C4676 1.392 . S
C4677 H4689 0.929 . S
C4678 C4674 1.531 . S
C4678 H4690 0.960 . S
C4678 H4691 0.962 . S
C4678 H4692 0.960 . S
C4679 C4676 1.511 . S
C4679 H4693 0.961 . S
C4679 H4694 0.961 . S
C4679 H4695 0.961 . S
C4680 C4681 1.370 . S
C4680 C4682 1.363 . S
C4680 H4696 0.931 . S
C4681 C4680 1.370 . S
C4681 C4685 1.408 . S
C4682 C4680 1.363 . S
C4682 C4683 1.370 . S
C4682 C4686 1.524 . S
C4683 C4675 1.503 . S
C4683 C4682 1.370 . S
C4683 C4684 1.403 . S
C4684 C4683 1.403 . S
C4684 C4685 1.404 . S
C4684 C4687 1.539 . S
C4685 C4681 1.408 . S
C4685 C4684 1.404 . S
C4685 H4697 0.930 . S
C4686 C4682 1.524 . S
C4686 H4698 0.956 . S
C4686 H4699 0.961 . S
C4686 H4700 0.961 . S
C4687 C4684 1.539 . S
C4687 H4701 0.958 . S
C4687 H4702 0.961 . S
C4687 H4703 0.960 . S
H4688 C4672 0.931 . S
H4689 C4677 0.929 . S
H4690 C4678 0.960 . S
H4691 C4678 0.962 . S
H4692 C4678 0.960 . S
H4693 C4679 0.961 . S
H4694 C4679 0.961 . S
H4695 C4679 0.961 . S
H4696 C4680 0.931 . S
H4697 C4685 0.930 . S
H4698 C4686 0.956 . S
H4699 C4686 0.961 . S
H4700 C4686 0.961 . S
H4701 C4687 0.958 . S
H4702 C4687 0.961 . S
H4703 C4687 0.960 . S
C4704 C4705 1.391 . S
C4704 C4706 1.394 . S
C4704 H4720 0.931 . S
C4705 C4704 1.391 . S
C4705 C4709 1.376 . S
C4706 C4704 1.394 . S
C4706 C4707 1.369 . S
C4706 C4710 1.531 . S
C4707 C4706 1.369 . S
C4707 C4708 1.410 . S
C4707 C4715 1.503 . S
C4708 C4707 1.410 . S
C4708 C4709 1.392 . S
C4708 C4711 1.511 . S
C4709 C4705 1.376 . S
C4709 C4708 1.392 . S
C4709 H4721 0.929 . S
C4710 C4706 1.531 . S
C4710 H4722 0.960 . S
C4710 H4723 0.962 . S
C4710 H4724 0.960 . S
C4711 C4708 1.511 . S
C4711 H4725 0.961 . S
C4711 H4726 0.961 . S
C4711 H4727 0.961 . S
C4712 C4713 1.370 . S
C4712 C4714 1.363 . S
C4712 H4728 0.931 . S
C4713 C4712 1.370 . S
C4713 C4717 1.408 . S
C4714 C4712 1.363 . S
C4714 C4715 1.370 . S
C4714 C4718 1.524 . S
C4715 C4707 1.503 . S
C4715 C4714 1.370 . S
C4715 C4716 1.403 . S
C4716 C4715 1.403 . S
C4716 C4717 1.404 . S
C4716 C4719 1.539 . S
C4717 C4713 1.408 . S
C4717 C4716 1.404 . S
C4717 H4729 0.930 . S
C4718 C4714 1.524 . S
C4718 H4730 0.956 . S
C4718 H4731 0.961 . S
C4718 H4732 0.961 . S
C4719 C4716 1.539 . S
C4719 H4733 0.958 . S
C4719 H4734 0.961 . S
C4719 H4735 0.960 . S
H4720 C4704 0.931 . S
H4721 C4709 0.929 . S
H4722 C4710 0.960 . S
H4723 C4710 0.962 . S
H4724 C4710 0.960 . S
H4725 C4711 0.961 . S
H4726 C4711 0.961 . S
H4727 C4711 0.961 . S
H4728 C4712 0.931 . S
H4729 C4717 0.930 . S
H4730 C4718 0.956 . S
H4731 C4718 0.961 . S
H4732 C4718 0.961 . S
H4733 C4719 0.958 . S
H4734 C4719 0.961 . S
H4735 C4719 0.960 . S
C4736 C4737 1.391 . S
C4736 C4738 1.394 . S
C4736 H4752 0.931 . S
C4737 C4736 1.391 . S
C4737 C4741 1.376 . S
C4738 C4736 1.394 . S
C4738 C4739 1.369 . S
C4738 C4742 1.531 . S
C4739 C4738 1.369 . S
C4739 C4740 1.410 . S
C4739 C4747 1.503 . S
C4740 C4739 1.410 . S
C4740 C4741 1.392 . S
C4740 C4743 1.511 . S
C4741 C4737 1.376 . S
C4741 C4740 1.392 . S
C4741 H4753 0.929 . S
C4742 C4738 1.531 . S
C4742 H4754 0.960 . S
C4742 H4755 0.962 . S
C4742 H4756 0.960 . S
C4743 C4740 1.511 . S
C4743 H4757 0.961 . S
C4743 H4758 0.961 . S
C4743 H4759 0.961 . S
C4744 C4745 1.370 . S
C4744 C4746 1.363 . S
C4744 H4760 0.931 . S
C4745 C4744 1.370 . S
C4745 C4749 1.408 . S
C4746 C4744 1.363 . S
C4746 C4747 1.370 . S
C4746 C4750 1.524 . S
C4747 C4739 1.503 . S
C4747 C4746 1.370 . S
C4747 C4748 1.403 . S
C4748 C4747 1.403 . S
C4748 C4749 1.404 . S
C4748 C4751 1.539 . S
C4749 C4745 1.408 . S
C4749 C4748 1.404 . S
C4749 H4761 0.930 . S
C4750 C4746 1.524 . S
C4750 H4762 0.956 . S
C4750 H4763 0.961 . S
C4750 H4764 0.961 . S
C4751 C4748 1.539 . S
C4751 H4765 0.958 . S
C4751 H4766 0.961 . S
C4751 H4767 0.960 . S
H4752 C4736 0.931 . S
H4753 C4741 0.929 . S
H4754 C4742 0.960 . S
H4755 C4742 0.962 . S
H4756 C4742 0.960 . S
H4757 C4743 0.961 . S
H4758 C4743 0.961 . S
H4759 C4743 0.961 . S
H4760 C4744 0.931 . S
H4761 C4749 0.930 . S
H4762 C4750 0.956 . S
H4763 C4750 0.961 . S
H4764 C4750 0.961 . S
H4765 C4751 0.958 . S
H4766 C4751 0.961 . S
H4767 C4751 0.960 . S
C4768 C4769 1.391 . S
C4768 C4770 1.394 . S
C4768 H4784 0.931 . S
C4769 C4768 1.391 . S
C4769 C4773 1.376 . S
C4770 C4768 1.394 . S
C4770 C4771 1.369 . S
C4770 C4774 1.531 . S
C4771 C4770 1.369 . S
C4771 C4772 1.410 . S
C4771 C4779 1.503 . S
C4772 C4771 1.410 . S
C4772 C4773 1.392 . S
C4772 C4775 1.511 . S
C4773 C4769 1.376 . S
C4773 C4772 1.392 . S
C4773 H4785 0.929 . S
C4774 C4770 1.531 . S
C4774 H4786 0.960 . S
C4774 H4787 0.962 . S
C4774 H4788 0.960 . S
C4775 C4772 1.511 . S
C4775 H4789 0.961 . S
C4775 H4790 0.961 . S
C4775 H4791 0.961 . S
C4776 C4777 1.370 . S
C4776 C4778 1.363 . S
C4776 H4792 0.931 . S
C4777 C4776 1.370 . S
C4777 C4781 1.408 . S
C4778 C4776 1.363 . S
C4778 C4779 1.370 . S
C4778 C4782 1.524 . S
C4779 C4771 1.503 . S
C4779 C4778 1.370 . S
C4779 C4780 1.403 . S
C4780 C4779 1.403 . S
C4780 C4781 1.404 . S
C4780 C4783 1.539 . S
C4781 C4777 1.408 . S
C4781 C4780 1.404 . S
C4781 H4793 0.930 . S
C4782 C4778 1.524 . S
C4782 H4794 0.956 . S
C4782 H4795 0.961 . S
C4782 H4796 0.961 . S
C4783 C4780 1.539 . S
C4783 H4797 0.958 . S
C4783 H4798 0.961 . S
C4783 H4799 0.960 . S
H4784 C4768 0.931 . S
H4785 C4773 0.929 . S
H4786 C4774 0.960 . S
H4787 C4774 0.962 . S
H4788 C4774 0.960 . S
H4789 C4775 0.961 . S
H4790 C4775 0.961 . S
H4791 C4775 0.961 . S
H4792 C4776 0.931 . S
H4793 C4781 0.930 . S
H4794 C4782 0.956 . S
H4795 C4782 0.961 . S
H4796 C4782 0.961 . S
H4797 C4783 0.958 . S
H4798 C4783 0.961 . S
H4799 C4783 0.960 . S
C4800 C4801 1.391 . S
C4800 C4802 1.394 . S
C4800 H4816 0.931 . S
C4801 C4800 1.391 . S
C4801 C4805 1.376 . S
C4802 C4800 1.394 . S
C4802 C4803 1.369 . S
C4802 C4806 1.531 . S
C4803 C4802 1.369 . S
C4803 C4804 1.410 . S
C4803 C4811 1.503 . S
C4804 C4803 1.410 . S
C4804 C4805 1.392 . S
C4804 C4807 1.511 . S
C4805 C4801 1.376 . S
C4805 C4804 1.392 . S
C4805 H4817 0.929 . S
C4806 C4802 1.531 . S
C4806 H4818 0.960 . S
C4806 H4819 0.962 . S
C4806 H4820 0.960 . S
C4807 C4804 1.511 . S
C4807 H4821 0.961 . S
C4807 H4822 0.961 . S
C4807 H4823 0.961 . S
C4808 C4809 1.370 . S
C4808 C4810 1.363 . S
C4808 H4824 0.931 . S
C4809 C4808 1.370 . S
C4809 C4813 1.408 . S
C4810 C4808 1.363 . S
C4810 C4811 1.370 . S
C4810 C4814 1.524 . S
C4811 C4803 1.503 . S
C4811 C4810 1.370 . S
C4811 C4812 1.403 . S
C4812 C4811 1.403 . S
C4812 C4813 1.404 . S
C4812 C4815 1.539 . S
C4813 C4809 1.408 . S
C4813 C4812 1.404 . S
C4813 H4825 0.930 . S
C4814 C4810 1.524 . S
C4814 H4826 0.956 . S
C4814 H4827 0.961 . S
C4814 H4828 0.961 . S
C4815 C4812 1.539 . S
C4815 H4829 0.958 . S
C4815 H4830 0.961 . S
C4815 H4831 0.960 . S
H4816 C4800 0.931 . S
H4817 C4805 0.929 . S
H4818 C4806 0.960 . S
H4819 C4806 0.962 . S
H4820 C4806 0.960 . S
H4821 C4807 0.961 . S
H4822 C4807 0.961 . S
H4823 C4807 0.961 . S
H4824 C4808 0.931 . S
H4825 C4813 0.930 . S
H4826 C4814 0.956 . S
H4827 C4814 0.961 . S
H4828 C4814 0.961 . S
H4829 C4815 0.958 . S
H4830 C4815 0.961 . S
H4831 C4815 0.960 . S
C4832 C4833 1.391 . S
C4832 C4834 1.394 . S
C4832 H4848 0.931 . S
C4833 C4832 1.391 . S
C4833 C4837 1.376 . S
C4834 C4832 1.394 . S
C4834 C4835 1.369 . S
C4834 C4838 1.531 1_545 S
C4835 C4834 1.369 . S
C4835 C4836 1.410 . S
C4835 C4843 1.503 1_545 S
C4836 C4835 1.410 . S
C4836 C4837 1.392 . S
C4836 C4839 1.511 . S
C4837 C4833 1.376 . S
C4837 C4836 1.392 . S
C4837 H4849 0.929 . S
C4838 C4834 1.531 1_565 S
C4838 H4850 0.960 . S
C4838 H4851 0.962 . S
C4838 H4852 0.960 . S
C4839 C4836 1.511 . S
C4839 H4853 0.961 . S
C4839 H4854 0.961 . S
C4839 H4855 0.961 . S
C4840 C4841 1.370 . S
C4840 C4842 1.363 . S
C4840 H4856 0.931 . S
C4841 C4840 1.370 . S
C4841 C4845 1.408 . S
C4842 C4840 1.363 . S
C4842 C4843 1.370 . S
C4842 C4846 1.524 . S
C4843 C4835 1.503 1_565 S
C4843 C4842 1.370 . S
C4843 C4844 1.403 . S
C4844 C4843 1.403 . S
C4844 C4845 1.404 . S
C4844 C4847 1.539 1_565 S
C4845 C4841 1.408 . S
C4845 C4844 1.404 . S
C4845 H4857 0.930 . S
C4846 C4842 1.524 . S
C4846 H4858 0.956 . S
C4846 H4859 0.961 . S
C4846 H4860 0.961 . S
C4847 C4844 1.539 1_545 S
C4847 H4861 0.958 . S
C4847 H4862 0.961 . S
C4847 H4863 0.960 . S
H4848 C4832 0.931 . S
H4849 C4837 0.929 . S
H4850 C4838 0.960 . S
H4851 C4838 0.962 . S
H4852 C4838 0.960 . S
H4853 C4839 0.961 . S
H4854 C4839 0.961 . S
H4855 C4839 0.961 . S
H4856 C4840 0.931 . S
H4857 C4845 0.930 . S
H4858 C4846 0.956 . S
H4859 C4846 0.961 . S
H4860 C4846 0.961 . S
H4861 C4847 0.958 . S
H4862 C4847 0.961 . S
H4863 C4847 0.960 . S
C4864 C4865 1.391 . S
C4864 C4866 1.394 1_655 S
C4864 H4880 0.931 1_655 S
C4865 C4864 1.391 . S
C4865 C4869 1.376 . S
C4866 C4864 1.394 1_455 S
C4866 C4867 1.369 . S
C4866 C4870 1.531 . S
C4867 C4866 1.369 . S
C4867 C4868 1.410 1_455 S
C4867 C4875 1.503 . S
C4868 C4867 1.410 1_655 S
C4868 C4869 1.392 . S
C4868 C4871 1.511 . S
C4869 C4865 1.376 . S
C4869 C4868 1.392 . S
C4869 H4881 0.929 . S
C4870 C4866 1.531 . S
C4870 H4882 0.960 . S
C4870 H4883 0.962 . S
C4870 H4884 0.960 . S
C4871 C4868 1.511 . S
C4871 H4885 0.961 . S
C4871 H4886 0.961 . S
C4871 H4887 0.961 . S
C4872 C4873 1.370 . S
C4872 C4874 1.363 . S
C4872 H4888 0.931 . S
C4873 C4872 1.370 . S
C4873 C4877 1.408 . S
C4874 C4872 1.363 . S
C4874 C4875 1.370 . S
C4874 C4878 1.524 . S
C4875 C4867 1.503 . S
C4875 C4874 1.370 . S
C4875 C4876 1.403 . S
C4876 C4875 1.403 . S
C4876 C4877 1.404 . S
C4876 C4879 1.539 . S
C4877 C4873 1.408 . S
C4877 C4876 1.404 . S
C4877 H4889 0.930 . S
C4878 C4874 1.524 . S
C4878 H4890 0.956 . S
C4878 H4891 0.961 . S
C4878 H4892 0.961 . S
C4879 C4876 1.539 . S
C4879 H4893 0.958 . S
C4879 H4894 0.961 . S
C4879 H4895 0.940 1_455 S
H4880 C4864 0.931 1_455 S
H4881 C4869 0.929 . S
H4882 C4870 0.960 . S
H4883 C4870 0.962 . S
H4884 C4870 0.960 . S
H4885 C4871 0.961 . S
H4886 C4871 0.961 . S
H4887 C4871 0.961 . S
H4888 C4872 0.931 . S
H4889 C4877 0.930 . S
H4890 C4878 0.956 . S
H4891 C4878 0.961 . S
H4892 C4878 0.961 . S
H4893 C4879 0.958 . S
H4894 C4879 0.961 . S
H4895 C4879 0.940 1_655 S
C1441 C1098 1.928 . S
C1449 C18 1.977 . S
C1473 C1138 1.929 . S
C1481 C58 1.973 1_655 S
C1505 C98 1.930 . S
C1513 C1178 1.971 . S
C1537 C138 1.930 . S
C1545 C498 1.980 . S
C1569 C178 1.929 . S
C1577 C538 1.979 . S
C1601 C578 1.928 . S
C1609 C218 1.975 1_565 S
C1633 C249 1.931 1_565 S
C1641 C849 1.984 . S
C1665 C889 1.929 . S
C1673 C289 1.982 . S
C1697 C329 1.932 . S
C1705 C929 1.972 . S
C1729 C1209 1.950 . S
C1737 C369 1.986 1_655 S
C1761 C409 2.002 . S
C1769 C1249 1.964 . S
C1793 C1289 2.004 . S
C1801 C449 1.960 . S
C1825 C978 2.003 . S
C1833 C618 1.968 . S
C1857 C658 1.928 . S
C1865 C1018 1.976 . S
C1889 C1058 1.988 . S
C1897 C698 1.980 . S
C1921 C729 1.928 . S
C1929 C1329 1.981 . S
C1953 C769 1.976 . S
C1961 C1369 1.956 . S
C1985 C1409 1.985 . S
C1993 C809 1.955 . S
C2017 C9 1.690 . S
C2025 C258 1.684 . S
C2049 C298 1.697 . S
C2057 C49 1.681 . S
C2081 C89 1.674 . S
C2089 C338 1.690 . S
C2113 C378 1.686 . S
C2121 C129 1.688 . S
C2145 C169 1.666 . S
C2153 C418 1.696 . S
C2177 C458 1.674 . S
C2185 C209 1.690 . S
C2209 C738 1.669 . S
C2217 C489 1.692 . S
C2241 C529 1.701 . S
C2249 C778 1.679 . S
C2273 C818 1.659 . S
C2281 C569 1.698 . S
C2305 C609 1.692 . S
C2313 C858 1.686 . S
C2337 C898 1.694 . S
C2345 C649 1.682 . S
C2369 C689 1.705 . S
C2377 C938 1.680 . S
C2401 C969 1.659 . S
C2409 C1218 1.698 . S
C2433 C1258 1.706 . S
C2441 C1009 1.678 . S
C2465 C1298 1.673 . S
C2473 C1049 1.691 . S
C2497 C1338 1.708 . S
C2505 C1089 1.677 . S
C2529 C1129 1.690 . S
C2537 C1378 1.684 . S
C2561 C1169 1.707 . S
C2569 C1418 1.677 . S
C2593 C19 1.792 . S
C2601 C95 1.819 . S
C2625 C59 1.819 . S
C2633 C15 1.818 . S
C2657 C55 1.814 . S
C2665 C99 1.815 . S
C2689 C139 1.795 . S
C2697 C175 1.814 . S
C2721 C215 1.821 . S
C2729 C179 1.813 . S
C2753 C135 1.804 . S
C2761 C219 1.806 . S
C2785 C326 1.816 . S
C2793 C250 1.814 . S
C2817 C290 1.800 . S
C2825 C246 1.814 . S
C2849 C330 1.796 . S
C2857 C286 1.815 . S
C2881 C406 1.802 . S
C2889 C370 1.811 . S
C2913 C410 1.794 . S
C2921 C446 1.821 . S
C2945 C450 1.807 . S
C2953 C366 1.822 . S
C2977 C575 1.804 . S
C2985 C499 1.806 . S
C3009 C495 1.803 . S
C3017 C539 1.807 . S
C3041 C535 1.823 . S
C3049 C579 1.809 . S
C3073 C655 1.802 . S
C3081 C619 1.810 . S
C3105 C659 1.793 . S
C3113 C695 1.820 . S
C3137 C615 1.808 . S
C3145 C699 1.804 . S
C3169 C730 1.807 . S
C3177 C806 1.821 . S
C3201 C726 1.804 . S
C3209 C770 1.814 . S
C3233 C810 1.801 . S
C3241 C766 1.822 . S
C3265 C886 1.823 . S
C3273 C850 1.809 . S
C3297 C926 1.819 . S
C3305 C890 1.804 . S
C3329 C846 1.814 . S
C3337 C930 1.815 . S
C3361 C1055 1.823 . S
C3369 C979 1.807 . S
C3393 C1019 1.811 . S
C3401 C975 1.814 . S
C3425 C1015 1.818 . S
C3433 C1059 1.804 . S
C3457 C1099 1.804 . S
C3465 C1135 1.822 . S
C3489 C1139 1.795 . S
C3497 C1175 1.820 . S
C3521 C1095 1.824 . S
C3529 C1179 1.811 . S
C3553 C1210 1.805 . S
C3561 C1286 1.813 . S
C3585 C1250 1.795 . S
C3593 C1206 1.815 . S
C3617 C1246 1.806 . S
C3625 C1290 1.806 . S
C3649 C1330 1.792 . S
C3657 C1366 1.817 . S
C3681 C1406 1.803 . S
C3689 C1370 1.813 . S
C3713 C1326 1.803 . S
C3721 C1410 1.809 . S
C3745 C86 1.252 . S
C3753 C10 1.292 . S
C3777 C50 1.280 . S
C3785 C6 1.270 . S
C3809 C46 1.252 . S
C3817 C90 1.292 . S
C3841 C166 1.256 . S
C3849 C130 1.292 . S
C3873 C170 1.284 . S
C3881 C206 1.264 . S
C3905 C210 1.279 . S
C3913 C126 1.271 . S
C3937 C335 1.278 . S
C3945 C259 1.288 . S
C3969 C299 1.278 . S
C3977 C255 1.271 . S
C4001 C295 1.264 . S
C4009 C339 1.289 . S
C4033 C415 1.287 . S
C4041 C379 1.287 . S
C4065 C455 1.268 . S
C4073 C419 1.291 . S
C4097 C375 1.273 . S
C4105 C459 1.289 . S
C4129 C490 1.298 . S
C4137 C566 1.244 . S
C4161 C530 1.290 . S
C4169 C486 1.256 . S
C4193 C570 1.281 . S
C4201 C526 1.268 . S
C4225 C646 1.248 1_655 S
C4233 C610 1.293 . S
C4257 C650 1.298 . S
C4265 C686 1.244 . S
C4289 C690 1.297 . S
C4297 C606 1.245 . S
C4321 C815 1.237 . S
C4329 C739 1.293 . S
C4353 C735 1.222 1_655 S
C4361 C779 1.295 . S
C4385 C819 1.291 . S
C4393 C775 1.251 . S
C4417 C895 1.280 . S
C4425 C859 1.289 . S
C4449 C899 1.292 . S
C4457 C935 1.255 . S
C4481 C939 1.291 . S
C4489 C855 1.251 . S
C4513 C970 1.298 . S
C4521 C1046 1.244 1_565 S
C4545 C966 1.262 . S
C4553 C1010 1.291 . S
C4577 C1006 1.257 . S
C4585 C1050 1.291 . S
C4609 C1126 1.242 . S
C4617 C1090 1.294 . S
C4641 C1130 1.278 . S
C4649 C1166 1.271 . S
C4673 C1170 1.294 . S
C4681 C1086 1.249 . S
C4705 C1295 1.282 . S
C4713 C1219 1.288 . S
C4737 C1215 1.222 . S
C4745 C1259 1.296 . S
C4769 C1299 1.285 . S
C4777 C1255 1.265 . S
C4801 C1375 1.255 . S
C4809 C1339 1.293 . S
C4833 C1379 1.287 . S
C4841 C1415 1.263 . S
C4865 C1419 1.288 . S
C4873 C1335 1.262 1_565 S
