# Generated by pormake.
# Topology una, (4)-cn, num edge types: 1
# Building blocks:
#     Node 0, Type 0, BuildingBlock: QUQFOY_clean_sbu_3, # of connection points: 4
#     Node 1, Type 0, BuildingBlock: QUQFOY_clean_sbu_3, # of connection points: 4
#     Node 2, Type 0, BuildingBlock: QUQFOY_clean_sbu_3, # of connection points: 4
#     Node 3, Type 0, BuildingBlock: QUQFOY_clean_sbu_3, # of connection points: 4
#     Node 4, Type 0, BuildingBlock: QUQFOY_clean_sbu_3, # of connection points: 4
#     Node 5, Type 0, BuildingBlock: QUQFOY_clean_sbu_3, # of connection points: 4
#     Node 6, Type 0, BuildingBlock: QUQFOY_clean_sbu_3, # of connection points: 4
#     Node 7, Type 0, BuildingBlock: QUQFOY_clean_sbu_3, # of connection points: 4
#     Node 8, Type 0, BuildingBlock: QUQFOY_clean_sbu_3, # of connection points: 4
#     Node 9, Type 0, BuildingBlock: QUQFOY_clean_sbu_3, # of connection points: 4
#     Node 10, Type 0, BuildingBlock: QUQFOY_clean_sbu_3, # of connection points: 4
#     Node 11, Type 0, BuildingBlock: QUQFOY_clean_sbu_3, # of connection points: 4
#     Edge 12, Type (0, 0), BuildingBlock: AJUNOK_clean_linker_0, # of connection points: 2
#     Edge 13, Type (0, 0), BuildingBlock: AJUNOK_clean_linker_0, # of connection points: 2
#     Edge 14, Type (0, 0), BuildingBlock: AJUNOK_clean_linker_0, # of connection points: 2
#     Edge 15, Type (0, 0), BuildingBlock: AJUNOK_clean_linker_0, # of connection points: 2
#     Edge 16, Type (0, 0), BuildingBlock: AJUNOK_clean_linker_0, # of connection points: 2
#     Edge 17, Type (0, 0), BuildingBlock: AJUNOK_clean_linker_0, # of connection points: 2
#     Edge 18, Type (0, 0), BuildingBlock: AJUNOK_clean_linker_0, # of connection points: 2
#     Edge 19, Type (0, 0), BuildingBlock: AJUNOK_clean_linker_0, # of connection points: 2
#     Edge 20, Type (0, 0), BuildingBlock: AJUNOK_clean_linker_0, # of connection points: 2
#     Edge 21, Type (0, 0), BuildingBlock: AJUNOK_clean_linker_0, # of connection points: 2
#     Edge 22, Type (0, 0), BuildingBlock: AJUNOK_clean_linker_0, # of connection points: 2
#     Edge 23, Type (0, 0), BuildingBlock: AJUNOK_clean_linker_0, # of connection points: 2
#     Edge 24, Type (0, 0), BuildingBlock: AJUNOK_clean_linker_0, # of connection points: 2
#     Edge 25, Type (0, 0), BuildingBlock: AJUNOK_clean_linker_0, # of connection points: 2
#     Edge 26, Type (0, 0), BuildingBlock: AJUNOK_clean_linker_0, # of connection points: 2
#     Edge 27, Type (0, 0), BuildingBlock: AJUNOK_clean_linker_0, # of connection points: 2
#     Edge 28, Type (0, 0), BuildingBlock: AJUNOK_clean_linker_0, # of connection points: 2
#     Edge 29, Type (0, 0), BuildingBlock: AJUNOK_clean_linker_0, # of connection points: 2
#     Edge 30, Type (0, 0), BuildingBlock: AJUNOK_clean_linker_0, # of connection points: 2
#     Edge 31, Type (0, 0), BuildingBlock: AJUNOK_clean_linker_0, # of connection points: 2
#     Edge 32, Type (0, 0), BuildingBlock: AJUNOK_clean_linker_0, # of connection points: 2
#     Edge 33, Type (0, 0), BuildingBlock: AJUNOK_clean_linker_0, # of connection points: 2
#     Edge 34, Type (0, 0), BuildingBlock: AJUNOK_clean_linker_0, # of connection points: 2
#     Edge 35, Type (0, 0), BuildingBlock: AJUNOK_clean_linker_0, # of connection points: 2
# Relax obj value: 0.025
# Max RMSD: 0.043
# Mean RMSD: 0.043
data_MOF--net-una--node1-QUQFOY_clean_sbu_3--edge1-AJUNOK_clean_linker_0
_symmetry_space_group_name_H-M    P1
_symmetry_Int_Tables_number       1
_symmetry_cell_setting            triclinic
loop_
_symmetry_equiv_pos_as_xyz
'x, y, z'
_cell_length_a     44.911677
_cell_length_b     44.860323
_cell_length_c     18.011928
_cell_angle_alpha  89.935171
_cell_angle_beta   89.967993
_cell_angle_gamma 120.31035
loop_
_atom_site_label
_atom_site_type_symbol
_atom_site_fract_x
_atom_site_fract_y
_atom_site_fract_z
_atom_type_partial_charge
C0 C 0.18095 0.47102 0.87221 0.0
O1 O 0.19339 0.50017 0.90368 0.0
Cd2 Cd 0.17263 0.50855 0.01719 0.0
O3 O 0.15428 0.44451 0.89844 0.0
Cd4 Cd 0.11002 0.43143 -0.00062 0.0
C5 C 0.17173 0.44272 0.12401 0.0
O6 O 0.11356 0.48741 -0.00912 0.0
O7 O 0.08795 0.4586 0.08877 0.0
O8 O 0.073 0.40458 0.89159 0.0
C9 C 0.09639 0.48488 0.04843 0.0
O10 O 0.18424 0.4741 0.10443 0.0
C11 C 0.04789 0.3799 0.92534 0.0
O12 O 0.14364 0.41908 0.09519 0.0
O13 O 0.05198 0.37751 -0.00539 0.0
C14 C 0.70789 0.18956 0.05506 0.0
O15 O 0.6945 0.2039 0.09205 0.0
Cd16 Cd 0.66271 0.18041 0.20227 0.0
O17 O 0.70279 0.15988 0.07383 0.0
Cd18 Cd 0.66743 0.11373 0.16811 0.0
C19 C 0.72162 0.16761 0.30129 0.0
O20 O 0.61939 0.12406 0.16482 0.0
O21 O 0.61777 0.09261 0.2568 0.0
O22 O 0.64995 0.07863 0.05688 0.0
C23 C 0.60246 0.10455 0.2182 0.0
O24 O 0.70597 0.18414 0.28915 0.0
C25 C 0.64984 0.05235 0.08294 0.0
O26 O 0.7141 0.1403 0.26473 0.0
O27 O 0.6599 0.05473 0.14993 0.0
C28 C 0.50172 0.71244 0.22749 0.0
O29 O 0.47416 0.69688 0.26538 0.0
Cd30 Cd 0.4665 0.66075 0.36831 0.0
O31 O 0.5274 0.70873 0.24286 0.0
Cd32 Cd 0.54171 0.67507 0.33269 0.0
C33 C 0.53412 0.71892 0.47843 0.0
O34 O 0.48523 0.62308 0.32328 0.0
O35 O 0.51535 0.62304 0.41558 0.0
O36 O 0.56791 0.66755 0.22024 0.0
C37 C 0.48861 0.60639 0.37587 0.0
O38 O 0.50197 0.69929 0.46721 0.0
C39 C 0.59302 0.66724 0.25147 0.0
O40 O 0.55638 0.71841 0.43501 0.0
O41 O 0.5956 0.67218 0.32131 0.0
C42 C 0.77594 0.51496 0.41239 0.0
O43 O 0.76252 0.48744 0.45077 0.0
Cd44 Cd 0.78848 0.47265 0.54733 0.0
O45 O 0.80716 0.53873 0.42345 0.0
Cd46 Cd 0.85642 0.54941 0.50775 0.0
C47 C 0.80753 0.54197 0.66217 0.0
O48 O 0.84308 0.49027 0.49597 0.0
O49 O 0.88386 0.51949 0.57291 0.0
O50 O 0.88897 0.5755 0.39323 0.0
C51 C 0.86522 0.49098 0.54011 0.0
O52 O 0.79208 0.50979 0.64819 0.0
C53 C 0.91597 0.59935 0.4237 0.0
O54 O 0.83099 0.56391 0.61871 0.0
O55 O 0.91495 0.60146 0.49405 0.0
C56 C 0.25755 0.79013 0.54791 0.0
O57 O 0.27013 0.77524 0.58602 0.0
Cd58 Cd 0.30224 0.79528 0.69735 0.0
O59 O 0.26254 0.81983 0.56642 0.0
Cd60 Cd 0.29446 0.8663 0.66215 0.0
C61 C 0.24225 0.80768 0.79627 0.0
O62 O 0.33961 0.85269 0.66118 0.0
O63 O 0.3502 0.89449 0.73443 0.0
O64 O 0.30353 0.90059 0.54927 0.0
C65 C 0.35993 0.87477 0.7071 0.0
O66 O 0.25826 0.79174 0.7812 0.0
C67 C 0.3053 0.92675 0.58054 0.0
O68 O 0.24929 0.83568 0.76257 0.0
O69 O 0.30045 0.92456 0.65048 0.0
C70 C 0.46468 0.27485 0.70709 0.0
O71 O 0.49386 0.29225 0.73822 0.0
Cd72 Cd 0.50314 0.32411 0.84801 0.0
O73 O 0.43848 0.2758 0.73177 0.0
Cd74 Cd 0.42473 0.30752 0.82961 0.0
C75 C 0.43773 0.25901 0.9569 0.0
O76 O 0.48041 0.36003 0.81719 0.0
O77 O 0.45268 0.3587 0.91507 0.0
O78 O 0.39621 0.31418 0.72029 0.0
C79 C 0.4786 0.37589 0.87322 0.0
O80 O 0.46896 0.2785 0.93694 0.0
C81 C 0.37195 0.31525 0.75375 0.0
O82 O 0.41368 0.26245 0.92754 0.0
O83 O 0.37078 0.31114 0.82388 0.0
C84 C 0.49819 0.78543 -0.03654 0.0
O85 O 0.47014 0.77048 0.92708 0.0
Cd86 Cd 0.45904 0.79043 0.81427 0.0
O87 O 0.52318 0.81471 0.9428 0.0
Cd88 Cd 0.53708 0.86002 0.84501 0.0
C89 C 0.5309 0.80127 0.71477 0.0
O90 O 0.47828 0.84811 0.84781 0.0
O91 O 0.51043 0.88731 0.76928 0.0
O92 O 0.56478 0.89574 0.95559 0.0
C93 C 0.48112 0.86985 0.79965 0.0
O94 O 0.49892 0.78556 0.7308 0.0
C95 C 0.58666 0.92224 0.92006 0.0
O96 O 0.55217 0.82967 0.74661 0.0
O97 O 0.58735 0.91919 0.84998 0.0
C98 C 0.70125 0.51523 0.15062 0.0
O99 O 0.68469 0.48573 0.12044 0.0
Cd100 Cd 0.65771 0.477 0.00396 0.0
O101 O 0.70141 0.54139 0.1222 0.0
Cd102 Cd 0.67077 0.55326 0.01878 0.0
C103 C 0.72385 0.54364 0.89998 0.0
O104 O 0.61829 0.49671 0.02475 0.0
O105 O 0.6226 0.52581 0.92673 0.0
O106 O 0.65914 0.57936 0.12521 0.0
C107 C 0.60435 0.49918 -0.03399 0.0
O108 O 0.70533 0.5122 0.91973 0.0
C109 C 0.65922 0.60411 0.09112 0.0
O110 O 0.71815 0.56671 0.92654 0.0
O111 O 0.66645 0.60676 0.02217 0.0
C112 C 0.1828 0.71643 0.28278 0.0
O113 O 0.19608 0.70218 0.24508 0.0
Cd114 Cd 0.16977 0.66668 0.14065 0.0
O115 O 0.15289 0.71137 0.26691 0.0
Cd116 Cd 0.10571 0.67583 0.1757 0.0
C117 C 0.15776 0.72348 0.03219 0.0
O118 O 0.11376 0.62617 0.18593 0.0
O119 O 0.08279 0.62374 0.09305 0.0
O120 O 0.07011 0.66541 0.28685 0.0
C121 C 0.09413 0.60851 0.13358 0.0
O122 O 0.17218 0.7057 0.04344 0.0
C123 C 0.04416 0.6636 0.25468 0.0
O124 O 0.13331 0.72021 0.07414 0.0
O125 O 0.04712 0.66927 0.18506 0.0
C126 C 0.46233 0.1947 0.4504 0.0
O127 O 0.49066 0.20621 0.41573 0.0
Cd128 Cd 0.50068 0.17885 0.31472 0.0
O129 O 0.43631 0.16562 0.4328 0.0
Cd130 Cd 0.42349 0.118 0.34182 0.0
C131 C 0.4366 0.17201 0.19599 0.0
O132 O 0.47929 0.12147 0.3557 0.0
O133 O 0.45061 0.09338 0.25998 0.0
O134 O 0.39575 0.08201 0.45137 0.0
C135 C 0.47673 0.10266 0.30117 0.0
O136 O 0.46813 0.18346 0.21223 0.0
C137 C 0.37113 0.05677 0.4179 0.0
O138 O 0.41254 0.14897 0.23658 0.0
O139 O 0.36911 0.06057 0.34837 0.0
C140 C 0.25825 0.46894 0.61526 0.0
O141 O 0.27602 0.49689 0.57967 0.0
Cd142 Cd 0.31424 0.506 0.48059 0.0
O143 O 0.26101 0.44259 0.60045 0.0
Cd144 Cd 0.29625 0.42891 0.51251 0.0
C145 C 0.25641 0.44107 0.36375 0.0
O146 O 0.34967 0.48456 0.52282 0.0
O147 O 0.34737 0.45457 0.42818 0.0
O148 O 0.30546 0.40297 0.62377 0.0
C149 C 0.36513 0.48111 0.46784 0.0
O150 O 0.27714 0.47274 0.37842 0.0
C151 C 0.30491 0.37748 0.59208 0.0
O152 O 0.25455 0.41728 0.4063 0.0
O153 O 0.29791 0.37414 0.52302 0.0
C154 C 0.7809 0.26101 0.78605 0.0
O155 O 0.76566 0.27235 0.7454 0.0
Cd156 Cd 0.78722 0.30544 0.63548 0.0
O157 O 0.81147 0.26769 0.77079 0.0
Cd158 Cd 0.85847 0.30168 0.6773 0.0
C159 C 0.80516 0.25004 0.536 0.0
O160 O 0.84349 0.34639 0.67437 0.0
O161 O 0.88643 0.35721 0.60419 0.0
O162 O 0.89231 0.3125 0.79141 0.0
C163 C 0.86609 0.36668 0.62895 0.0
O164 O 0.78783 0.26489 0.54769 0.0
C165 C 0.91859 0.31395 0.76152 0.0
O166 O 0.83177 0.25709 0.57498 0.0
O167 O 0.91674 0.30836 0.69193 0.0
C168 C 0.22821 0.4562 0.17732 0.0
C169 C 0.19204 0.43517 0.17868 0.0
C170 C 0.24878 0.45548 0.23479 0.0
C171 C 0.23431 0.4337 0.29674 0.0
H172 H 0.24079 0.47465 0.13276 0.0
H173 H 0.27629 0.47357 0.23245 0.0
S174 S 0.14128 0.37086 0.32449 0.0
N175 N 0.14272 0.38962 0.24442 0.0
N176 N 0.18163 0.38839 0.35332 0.0
C177 C 0.19842 0.41062 0.29665 0.0
C178 C 0.17723 0.41132 0.23743 0.0
C179 C 0.76377 0.19115 0.48943 0.0
C180 C 0.79263 0.22405 0.47594 0.0
C181 C 0.74265 0.17052 0.43086 0.0
C182 C 0.74963 0.18228 0.35702 0.0
H183 H 0.75571 0.18265 0.546 0.0
H184 H 0.71908 0.14677 0.44412 0.0
S185 S 0.82354 0.26508 0.29189 0.0
N186 N 0.8284 0.2661 0.38296 0.0
N187 N 0.78877 0.2276 0.2732 0.0
C188 C 0.77979 0.21392 0.34253 0.0
C189 C 0.8013 0.23476 0.40195 0.0
C190 C 0.55701 0.77801 0.53311 0.0
C191 C 0.5443 0.74241 0.5431 0.0
C192 C 0.55608 0.79851 0.5916 0.0
C193 C 0.54233 0.78387 0.66144 0.0
H194 H 0.56497 0.78939 0.47841 0.0
H195 H 0.56342 0.82508 0.58029 0.0
S196 S 0.51041 0.69319 0.71809 0.0
N197 N 0.52113 0.69454 0.62991 0.0
N198 N 0.51952 0.73273 0.73918 0.0
C199 C 0.53231 0.74907 0.67328 0.0
C200 C 0.53323 0.7284 0.61423 0.0
C201 C 0.79077 0.53331 0.7947 0.0
C202 C 0.7957 0.55233 0.7292 0.0
C203 C 0.76966 0.53316 0.85209 0.0
C204 C 0.7524 0.55196 0.8467 0.0
H205 H 0.80139 0.51642 0.79946 0.0
H206 H 0.7652 0.51646 0.8994 0.0
S207 S 0.75953 0.60894 0.69013 0.0
N208 N 0.78401 0.5929 0.66469 0.0
N209 N 0.74428 0.59279 0.77332 0.0
C210 C 0.75934 0.57344 0.78431 0.0
C211 C 0.781 0.57356 0.72532 0.0
C212 C 0.21691 0.8041 0.92274 0.0
C213 C 0.2136 0.79077 0.85057 0.0
C214 C 0.19581 0.78303 -0.0187 0.0
C215 C 0.17078 0.74812 -0.03077 0.0
H216 H 0.23776 0.82988 0.93533 0.0
H217 H 0.20106 0.79325 0.03724 0.0
S218 S 0.14965 0.70226 0.7891 0.0
N219 N 0.18138 0.74158 0.7694 0.0
N220 N 0.14211 0.70229 0.87887 0.0
C221 C 0.16565 0.73548 0.8964 0.0
C222 C 0.18695 0.75676 0.83719 0.0
C223 C 0.45228 0.19604 0.06859 0.0
C224 C 0.42965 0.18724 0.12927 0.0
C225 C 0.45284 0.21744 0.01144 0.0
C226 C 0.43083 0.23128 0.01185 0.0
H227 H 0.47102 0.18759 0.0669 0.0
H228 H 0.47184 0.22433 -0.03223 0.0
S229 S 0.36421 0.21367 0.15428 0.0
N230 N 0.38261 0.19186 0.1837 0.0
N231 N 0.38358 0.23228 0.0754 0.0
C232 C 0.40627 0.22082 0.06937 0.0
C233 C 0.4057 0.19878 0.12827 0.0
C234 C 0.09034 0.53596 0.01809 0.0
C235 C 0.09177 0.51395 0.07203 0.0
C236 C 0.08928 0.56564 0.03832 0.0
C237 C 0.09054 0.57486 0.11331 0.0
H238 H 0.09059 0.5305 0.95958 0.0
H239 H 0.08902 0.58216 -0.00493 0.0
S240 S 0.09268 0.52524 0.27614 0.0
N241 N 0.0925 0.50256 0.20379 0.0
N242 N 0.09163 0.55886 0.2418 0.0
C243 C 0.09104 0.55263 0.16783 0.0
C244 C 0.09133 0.52201 0.14726 0.0
C245 C 0.55951 0.09951 0.31364 0.0
C246 C 0.56846 0.09983 0.23877 0.0
C247 C 0.5292 0.09944 0.33331 0.0
C248 C 0.50634 0.09875 0.27886 0.0
H249 H 0.57677 0.10087 0.35723 0.0
H250 H 0.52392 0.10056 0.39164 0.0
S251 S 0.51672 0.09635 0.075 0.0
N252 N 0.55134 0.09768 0.11001 0.0
N253 N 0.49393 0.09641 0.14691 0.0
C254 C 0.51419 0.09731 0.20388 0.0
C255 C 0.5454 0.09819 0.18388 0.0
C256 C 0.42217 0.53332 0.49543 0.0
C257 C 0.39862 0.51037 0.44275 0.0
C258 C 0.45234 0.56348 0.47341 0.0
C259 C 0.45954 0.57223 0.39794 0.0
H260 H 0.41689 0.52826 0.5542 0.0
H261 H 0.46931 0.5809 0.51599 0.0
S262 S 0.40719 0.52015 0.23802 0.0
N263 N 0.3856 0.4976 0.31165 0.0
N264 N 0.44168 0.55478 0.27042 0.0
C265 C 0.43675 0.54903 0.34472 0.0
C266 C 0.40646 0.51794 0.36705 0.0
C267 C 0.89557 0.46084 0.58952 0.0
C268 C 0.86568 0.45904 0.55984 0.0
C269 C 0.89608 0.43072 0.60927 0.0
C270 C 0.86644 0.39794 0.60184 0.0
H271 H 0.91873 0.48567 0.59734 0.0
H272 H 0.91944 0.43314 0.63249 0.0
S273 S 0.78199 0.37883 0.52565 0.0
N274 N 0.80607 0.42129 0.52183 0.0
N275 N 0.80692 0.36528 0.56133 0.0
C276 C 0.8366 0.39577 0.5719 0.0
C277 C 0.83625 0.42618 0.55021 0.0
C278 C 0.39015 0.84296 0.74085 0.0
C279 C 0.39114 0.87463 0.73257 0.0
C280 C 0.41936 0.84173 0.76338 0.0
C281 C 0.45094 0.87217 0.77581 0.0
H282 H 0.36649 0.81886 0.73067 0.0
H283 H 0.41736 0.81677 0.76991 0.0
S284 S 0.4674 0.96164 0.76101 0.0
N285 N 0.42618 0.93716 0.73953 0.0
N286 N 0.48168 0.93486 0.77851 0.0
C287 C 0.45249 0.90403 0.76696 0.0
C288 C 0.4224 0.90527 0.7463 0.0
C289 C 0.5165 0.41727 -0.02875 0.0
C290 C 0.50862 0.40941 0.89572 0.0
C291 C 0.5472 0.44682 -0.00671 0.0
C292 C 0.57077 0.47005 0.94073 0.0
H293 H 0.49959 0.39975 0.01366 0.0
H294 H 0.55275 0.45124 0.05209 0.0
S295 S 0.56069 0.46257 0.73604 0.0
N296 N 0.52596 0.42804 0.7683 0.0
N297 N 0.58309 0.48401 0.80975 0.0
C298 C 0.56237 0.46331 0.86509 0.0
C299 C 0.53147 0.43286 0.84262 0.0
C300 C 0.22019 0.43979 0.72629 0.0
C301 C 0.23552 0.46795 0.67656 0.0
C302 C 0.20126 0.44011 0.78829 0.0
C303 C 0.19738 0.46874 0.80299 0.0
H304 H 0.22359 0.41776 0.71855 0.0
H305 H 0.19078 0.41845 0.82641 0.0
S306 S 0.228 0.54678 0.68535 0.0
N307 N 0.24204 0.52364 0.64291 0.0
N308 N 0.20722 0.52425 0.75951 0.0
C309 C 0.21111 0.49623 0.75209 0.0
C310 C 0.22996 0.49583 0.68887 0.0
C311 C 0.72057 0.23068 0.95104 0.0
C312 C 0.72746 0.20694 -0.01314 0.0
C313 C 0.73786 0.24757 0.88616 0.0
C314 C 0.76325 0.24194 0.85455 0.0
H315 H 0.70128 0.23607 -0.02726 0.0
H316 H 0.73144 0.26558 0.86109 0.0
S317 S 0.79138 0.1826 0.92679 0.0
N318 N 0.76142 0.1785 -0.014 0.0
N319 N 0.79462 0.21099 0.86404 0.0
C320 C 0.77073 0.21849 0.88988 0.0
C321 C 0.7526 0.20074 0.95584 0.0
C322 C 0.47126 0.72801 0.13336 0.0
C323 C 0.50258 0.73296 0.16202 0.0
C324 C 0.47039 0.74528 0.06962 0.0
C325 C 0.50081 0.76867 0.03205 0.0
H326 H 0.44693 0.71007 0.15943 0.0
H327 H 0.44549 0.74019 0.04973 0.0
S328 S 0.58979 0.79191 0.085 0.0
N329 N 0.56506 0.76355 0.14849 0.0
N330 N 0.56337 0.79653 0.02869 0.0
C331 C 0.53247 0.77456 0.06067 0.0
C332 C 0.53336 0.75653 0.12547 0.0
C333 C 0.77147 0.54386 0.29623 0.0
C334 C 0.75549 0.51787 0.35078 0.0
C335 C 0.75337 0.54412 0.23272 0.0
C336 C 0.7189 0.51819 0.2215 0.0
H337 H 0.79846 0.56339 0.3011 0.0
H338 H 0.76686 0.56369 0.19064 0.0
S339 S 0.66351 0.44773 0.3518 0.0
N340 N 0.70156 0.46811 0.39263 0.0
N341 N 0.66832 0.46833 0.27279 0.0
C342 C 0.70211 0.49334 0.27718 0.0
C343 C 0.72019 0.49327 0.34199 0.0
C344 C 0.22459 0.7288 0.38472 0.0
C345 C 0.2015 0.7366 0.34916 0.0
C346 C 0.2423 0.74628 0.44862 0.0
C347 C 0.23814 0.77274 0.47955 0.0
H348 H 0.22872 0.70853 0.36377 0.0
H349 H 0.25961 0.73895 0.47367 0.0
S350 S 0.18162 0.80412 0.40611 0.0
N351 N 0.17571 0.77298 0.34845 0.0
N352 N 0.20965 0.8065 0.46862 0.0
C353 C 0.21552 0.78131 0.444 0.0
C354 C 0.19698 0.76303 0.379 0.0
C355 C 0.4927 0.26081 0.60467 0.0
C356 C 0.46212 0.25422 0.64048 0.0
C357 C 0.49213 0.24174 0.54306 0.0
C358 C 0.46096 0.21487 0.51432 0.0
H359 H 0.51759 0.28099 0.62427 0.0
H360 H 0.51664 0.24795 0.51857 0.0
S361 S 0.37331 0.18756 0.58601 0.0
N362 N 0.39945 0.21937 0.64156 0.0
N363 N 0.39839 0.18307 0.52539 0.0
C364 C 0.42999 0.20807 0.54884 0.0
C365 C 0.43056 0.22787 0.61178 0.0
C366 C 0.01414 0.35689 0.80752 0.0
C367 C 0.0147 0.3576 0.8858 0.0
C368 C -0.01705 0.34083 0.76778 0.0
C369 C 0.95093 0.32528 0.80458 0.0
H370 H 0.03804 0.36988 0.77639 0.0
H371 H -0.01595 0.34223 0.70772 0.0
S372 S 0.93789 0.31688 0.0089 0.0
N373 N 0.98021 0.33864 -0.00145 0.0
N374 N 0.92171 0.30905 0.92412 0.0
C375 C 0.95107 0.32423 0.88282 0.0
C376 C -0.01713 0.34017 0.92332 0.0
C377 C 0.6214 0.95941 0.02744 0.0
C378 C 0.60623 0.95624 0.95736 0.0
C379 C 0.63658 -0.00915 0.06676 0.0
C380 C 0.63648 0.02007 0.03812 0.0
H381 H 0.62115 0.9373 0.05244 0.0
H382 H 0.6477 -0.00803 0.12076 0.0
S383 S 0.59696 0.02377 0.85927 0.0
N384 N 0.59067 0.98424 0.86235 0.0
N385 N 0.61822 0.0428 0.93583 0.0
C386 C 0.62116 0.01695 -0.03209 0.0
C387 C 0.60628 0.9852 0.9277 0.0
C388 C 0.64783 0.62693 0.2081 0.0
C389 C 0.64805 0.62618 0.12984 0.0
C390 C 0.63208 0.64242 0.24711 0.0
C391 C 0.61534 0.65734 0.20951 0.0
H392 H 0.65884 0.61428 0.23975 0.0
H393 H 0.63135 0.64092 0.30717 0.0
S394 S 0.61174 0.66567 0.00494 0.0
N395 N 0.6328 0.64464 0.01628 0.0
N396 N 0.60272 0.67322 0.08932 0.0
C397 C 0.61707 0.65855 0.1313 0.0
C398 C 0.63356 0.64317 0.09156 0.0
C399 C 0.01135 0.65155 0.37453 0.0
C400 C 0.01136 0.65229 0.29624 0.0
C401 C 0.98046 0.63634 0.41551 0.0
C402 C 0.94816 0.62074 0.37997 0.0
H403 H 0.03543 0.66183 0.40462 0.0
H404 H 0.98194 0.63529 0.47539 0.0
S405 S 0.93377 0.61871 0.17649 0.0
N406 N 0.97612 0.63856 0.18514 0.0
N407 N 0.91819 0.60959 0.2618 0.0
C408 C 0.9478 0.62286 0.30189 0.0
C409 C 0.97931 0.63874 0.26017 0.0
C410 C 0.34873 0.0227 0.53603 0.0
C411 C 0.34871 0.02354 0.45773 0.0
C412 C 0.33268 -0.00868 0.5755 0.0
C413 C 0.31636 0.95938 0.53838 0.0
H414 H 0.36235 0.04649 0.56729 0.0
H415 H 0.33473 -0.00782 0.63547 0.0
S416 S 0.30566 0.94706 0.33422 0.0
N417 N 0.32809 0.98939 0.3449 0.0
N418 N 0.2985 0.93059 0.41878 0.0
C419 C 0.3145 0.95983 0.46029 0.0
C420 C 0.33046 -0.00819 0.4201 0.0
C421 C 0.31881 0.35762 0.71096 0.0
C422 C 0.31596 0.35564 0.63285 0.0
C423 C 0.33476 0.34235 0.75035 0.0
C424 C 0.34906 0.32491 0.71323 0.0
H425 H 0.30982 0.37226 0.74191 0.0
H426 H 0.33766 0.34601 0.8099 0.0
S427 S 0.34502 0.30874 0.51027 0.0
N428 N 0.32597 0.33176 0.52081 0.0
N429 N 0.35638 0.30369 0.59444 0.0
C430 C 0.34461 0.32098 0.63568 0.0
C431 C 0.32794 0.33612 0.59565 0.0
loop_
_geom_bond_atom_site_label_1
_geom_bond_atom_site_label_2
_geom_bond_distance
_geom_bond_site_symmetry_2
_ccdc_geom_bond_type
C0 O1 1.306 . S
C0 O3 1.160 . S
O1 C0 1.306 . S
O1 Cd2 2.228 1_556 S
Cd2 O1 2.228 1_554 S
Cd2 O6 2.273 . S
Cd2 O10 2.277 . S
O3 C0 1.160 . S
O3 Cd4 2.203 1_556 S
Cd4 O3 2.203 1_554 S
Cd4 O6 2.411 . S
Cd4 O7 2.333 . S
Cd4 O8 2.352 1_554 S
Cd4 O12 2.277 . S
Cd4 O13 2.356 . S
C5 O10 1.209 . S
C5 O12 1.226 . S
O6 Cd2 2.273 . S
O6 Cd4 2.411 . S
O6 C9 1.320 . S
O7 Cd4 2.333 . S
O7 C9 1.214 . S
O8 Cd4 2.352 1_556 S
O8 C11 1.258 . S
C9 O6 1.320 . S
C9 O7 1.214 . S
O10 Cd2 2.277 . S
O10 C5 1.209 . S
C11 O8 1.258 . S
C11 O13 1.282 1_556 S
O12 Cd4 2.277 . S
O12 C5 1.226 . S
O13 Cd4 2.356 . S
O13 C11 1.282 1_554 S
C14 O15 1.306 . S
C14 O17 1.160 . S
O15 C14 1.306 . S
O15 Cd16 2.228 . S
Cd16 O15 2.228 . S
Cd16 O20 2.273 . S
Cd16 O24 2.277 . S
O17 C14 1.160 . S
O17 Cd18 2.203 . S
Cd18 O17 2.203 . S
Cd18 O20 2.411 . S
Cd18 O21 2.333 . S
Cd18 O22 2.352 . S
Cd18 O26 2.277 . S
Cd18 O27 2.356 . S
C19 O24 1.209 . S
C19 O26 1.226 . S
O20 Cd16 2.273 . S
O20 Cd18 2.411 . S
O20 C23 1.320 . S
O21 Cd18 2.333 . S
O21 C23 1.214 . S
O22 Cd18 2.352 . S
O22 C25 1.258 . S
C23 O20 1.320 . S
C23 O21 1.214 . S
O24 Cd16 2.277 . S
O24 C19 1.209 . S
C25 O22 1.258 . S
C25 O27 1.282 . S
O26 Cd18 2.277 . S
O26 C19 1.226 . S
O27 Cd18 2.356 . S
O27 C25 1.282 . S
C28 O29 1.306 . S
C28 O31 1.160 . S
O29 C28 1.306 . S
O29 Cd30 2.228 . S
Cd30 O29 2.228 . S
Cd30 O34 2.273 . S
Cd30 O38 2.277 . S
O31 C28 1.160 . S
O31 Cd32 2.203 . S
Cd32 O31 2.203 . S
Cd32 O34 2.411 . S
Cd32 O35 2.333 . S
Cd32 O36 2.352 . S
Cd32 O40 2.277 . S
Cd32 O41 2.356 . S
C33 O38 1.209 . S
C33 O40 1.226 . S
O34 Cd30 2.273 . S
O34 Cd32 2.411 . S
O34 C37 1.320 . S
O35 Cd32 2.333 . S
O35 C37 1.214 . S
O36 Cd32 2.352 . S
O36 C39 1.258 . S
C37 O34 1.320 . S
C37 O35 1.214 . S
O38 Cd30 2.277 . S
O38 C33 1.209 . S
C39 O36 1.258 . S
C39 O41 1.282 . S
O40 Cd32 2.277 . S
O40 C33 1.226 . S
O41 Cd32 2.356 . S
O41 C39 1.282 . S
C42 O43 1.306 . S
C42 O45 1.160 . S
O43 C42 1.306 . S
O43 Cd44 2.228 . S
Cd44 O43 2.228 . S
Cd44 O48 2.273 . S
Cd44 O52 2.277 . S
O45 C42 1.160 . S
O45 Cd46 2.203 . S
Cd46 O45 2.203 . S
Cd46 O48 2.411 . S
Cd46 O49 2.333 . S
Cd46 O50 2.352 . S
Cd46 O54 2.277 . S
Cd46 O55 2.356 . S
C47 O52 1.209 . S
C47 O54 1.226 . S
O48 Cd44 2.273 . S
O48 Cd46 2.411 . S
O48 C51 1.320 . S
O49 Cd46 2.333 . S
O49 C51 1.214 . S
O50 Cd46 2.352 . S
O50 C53 1.258 . S
C51 O48 1.320 . S
C51 O49 1.214 . S
O52 Cd44 2.277 . S
O52 C47 1.209 . S
C53 O50 1.258 . S
C53 O55 1.282 . S
O54 Cd46 2.277 . S
O54 C47 1.226 . S
O55 Cd46 2.356 . S
O55 C53 1.282 . S
C56 O57 1.306 . S
C56 O59 1.160 . S
O57 C56 1.306 . S
O57 Cd58 2.228 . S
Cd58 O57 2.228 . S
Cd58 O62 2.273 . S
Cd58 O66 2.277 . S
O59 C56 1.160 . S
O59 Cd60 2.203 . S
Cd60 O59 2.203 . S
Cd60 O62 2.411 . S
Cd60 O63 2.333 . S
Cd60 O64 2.352 . S
Cd60 O68 2.277 . S
Cd60 O69 2.356 . S
C61 O66 1.209 . S
C61 O68 1.226 . S
O62 Cd58 2.273 . S
O62 Cd60 2.411 . S
O62 C65 1.320 . S
O63 Cd60 2.333 . S
O63 C65 1.214 . S
O64 Cd60 2.352 . S
O64 C67 1.258 . S
C65 O62 1.320 . S
C65 O63 1.214 . S
O66 Cd58 2.277 . S
O66 C61 1.209 . S
C67 O64 1.258 . S
C67 O69 1.282 . S
O68 Cd60 2.277 . S
O68 C61 1.226 . S
O69 Cd60 2.356 . S
O69 C67 1.282 . S
C70 O71 1.306 . S
C70 O73 1.160 . S
O71 C70 1.306 . S
O71 Cd72 2.228 . S
Cd72 O71 2.228 . S
Cd72 O76 2.273 . S
Cd72 O80 2.277 . S
O73 C70 1.160 . S
O73 Cd74 2.203 . S
Cd74 O73 2.203 . S
Cd74 O76 2.411 . S
Cd74 O77 2.333 . S
Cd74 O78 2.352 . S
Cd74 O82 2.277 . S
Cd74 O83 2.356 . S
C75 O80 1.216 . S
C75 O82 1.229 . S
O76 Cd72 2.273 . S
O76 Cd74 2.411 . S
O76 C79 1.320 . S
O77 Cd74 2.333 . S
O77 C79 1.214 . S
O78 Cd74 2.352 . S
O78 C81 1.258 . S
C79 O76 1.320 . S
C79 O77 1.214 . S
O80 Cd72 2.277 . S
O80 C75 1.216 . S
C81 O78 1.258 . S
C81 O83 1.282 . S
O82 Cd74 2.277 . S
O82 C75 1.229 . S
O83 Cd74 2.356 . S
O83 C81 1.282 . S
C84 O85 1.306 . S
C84 O87 1.160 . S
O85 C84 1.306 . S
O85 Cd86 2.228 . S
Cd86 O85 2.228 . S
Cd86 O90 2.273 . S
Cd86 O94 2.277 . S
O87 C84 1.160 . S
O87 Cd88 2.203 . S
Cd88 O87 2.203 . S
Cd88 O90 2.411 . S
Cd88 O91 2.333 . S
Cd88 O92 2.352 . S
Cd88 O96 2.277 . S
Cd88 O97 2.356 . S
C89 O94 1.209 . S
C89 O96 1.226 . S
O90 Cd86 2.273 . S
O90 Cd88 2.411 . S
O90 C93 1.320 . S
O91 Cd88 2.333 . S
O91 C93 1.214 . S
O92 Cd88 2.352 . S
O92 C95 1.258 . S
C93 O90 1.320 . S
C93 O91 1.214 . S
O94 Cd86 2.277 . S
O94 C89 1.209 . S
C95 O92 1.258 . S
C95 O97 1.282 . S
O96 Cd88 2.277 . S
O96 C89 1.226 . S
O97 Cd88 2.356 . S
O97 C95 1.282 . S
C98 O99 1.306 . S
C98 O101 1.160 . S
O99 C98 1.306 . S
O99 Cd100 2.228 . S
Cd100 O99 2.228 . S
Cd100 O104 2.273 . S
Cd100 O108 2.277 1_554 S
O101 C98 1.160 . S
O101 Cd102 2.203 . S
Cd102 O101 2.203 . S
Cd102 O104 2.411 . S
Cd102 O105 2.333 1_554 S
Cd102 O106 2.352 . S
Cd102 O110 2.277 1_554 S
Cd102 O111 2.356 . S
C103 O108 1.209 . S
C103 O110 1.226 . S
O104 Cd100 2.273 . S
O104 Cd102 2.411 . S
O104 C107 1.320 . S
O105 Cd102 2.333 1_556 S
O105 C107 1.214 1_556 S
O106 Cd102 2.352 . S
O106 C109 1.258 . S
C107 O104 1.320 . S
C107 O105 1.214 1_554 S
O108 Cd100 2.277 1_556 S
O108 C103 1.209 . S
C109 O106 1.258 . S
C109 O111 1.282 . S
O110 Cd102 2.277 1_556 S
O110 C103 1.226 . S
O111 Cd102 2.356 . S
O111 C109 1.282 . S
C112 O113 1.306 . S
C112 O115 1.160 . S
O113 C112 1.306 . S
O113 Cd114 2.228 . S
Cd114 O113 2.228 . S
Cd114 O118 2.273 . S
Cd114 O122 2.277 . S
O115 C112 1.160 . S
O115 Cd116 2.203 . S
Cd116 O115 2.203 . S
Cd116 O118 2.411 . S
Cd116 O119 2.333 . S
Cd116 O120 2.352 . S
Cd116 O124 2.277 . S
Cd116 O125 2.356 . S
C117 O122 1.209 . S
C117 O124 1.226 . S
O118 Cd114 2.273 . S
O118 Cd116 2.411 . S
O118 C121 1.320 . S
O119 Cd116 2.333 . S
O119 C121 1.214 . S
O120 Cd116 2.352 . S
O120 C123 1.258 . S
C121 O118 1.320 . S
C121 O119 1.214 . S
O122 Cd114 2.277 . S
O122 C117 1.209 . S
C123 O120 1.258 . S
C123 O125 1.282 . S
O124 Cd116 2.277 . S
O124 C117 1.226 . S
O125 Cd116 2.356 . S
O125 C123 1.282 . S
C126 O127 1.306 . S
C126 O129 1.160 . S
O127 C126 1.306 . S
O127 Cd128 2.228 . S
Cd128 O127 2.228 . S
Cd128 O132 2.273 . S
Cd128 O136 2.277 . S
O129 C126 1.160 . S
O129 Cd130 2.203 . S
Cd130 O129 2.203 . S
Cd130 O132 2.411 . S
Cd130 O133 2.333 . S
Cd130 O134 2.352 . S
Cd130 O138 2.277 . S
Cd130 O139 2.356 . S
C131 O136 1.209 . S
C131 O138 1.226 . S
O132 Cd128 2.273 . S
O132 Cd130 2.411 . S
O132 C135 1.320 . S
O133 Cd130 2.333 . S
O133 C135 1.214 . S
O134 Cd130 2.352 . S
O134 C137 1.258 . S
C135 O132 1.320 . S
C135 O133 1.214 . S
O136 Cd128 2.277 . S
O136 C131 1.209 . S
C137 O134 1.258 . S
C137 O139 1.282 . S
O138 Cd130 2.277 . S
O138 C131 1.226 . S
O139 Cd130 2.356 . S
O139 C137 1.282 . S
C140 O141 1.306 . S
C140 O143 1.160 . S
O141 C140 1.306 . S
O141 Cd142 2.228 . S
Cd142 O141 2.228 . S
Cd142 O146 2.273 . S
Cd142 O150 2.277 . S
O143 C140 1.160 . S
O143 Cd144 2.203 . S
Cd144 O143 2.203 . S
Cd144 O146 2.411 . S
Cd144 O147 2.333 . S
Cd144 O148 2.352 . S
Cd144 O152 2.277 . S
Cd144 O153 2.356 . S
C145 O150 1.209 . S
C145 O152 1.226 . S
O146 Cd142 2.273 . S
O146 Cd144 2.411 . S
O146 C149 1.320 . S
O147 Cd144 2.333 . S
O147 C149 1.214 . S
O148 Cd144 2.352 . S
O148 C151 1.258 . S
C149 O146 1.320 . S
C149 O147 1.214 . S
O150 Cd142 2.277 . S
O150 C145 1.209 . S
C151 O148 1.258 . S
C151 O153 1.282 . S
O152 Cd144 2.277 . S
O152 C145 1.226 . S
O153 Cd144 2.356 . S
O153 C151 1.282 . S
C154 O155 1.306 . S
C154 O157 1.160 . S
O155 C154 1.306 . S
O155 Cd156 2.228 . S
Cd156 O155 2.228 . S
Cd156 O160 2.273 . S
Cd156 O164 2.277 . S
O157 C154 1.160 . S
O157 Cd158 2.203 . S
Cd158 O157 2.203 . S
Cd158 O160 2.411 . S
Cd158 O161 2.333 . S
Cd158 O162 2.352 . S
Cd158 O166 2.277 . S
Cd158 O167 2.356 . S
C159 O164 1.209 . S
C159 O166 1.226 . S
O160 Cd156 2.273 . S
O160 Cd158 2.411 . S
O160 C163 1.320 . S
O161 Cd158 2.333 . S
O161 C163 1.214 . S
O162 Cd158 2.352 . S
O162 C165 1.258 . S
C163 O160 1.320 . S
C163 O161 1.214 . S
O164 Cd156 2.277 . S
O164 C159 1.209 . S
C165 O162 1.258 . S
C165 O167 1.282 . S
O166 Cd158 2.277 . S
O166 C159 1.226 . S
O167 Cd158 2.356 . S
O167 C165 1.282 . S
C168 C169 1.369 . S
C168 C170 1.419 . S
C168 H172 0.930 . S
C169 C168 1.369 . S
C169 C178 1.429 . S
C170 C168 1.419 . S
C170 C171 1.363 . S
C170 H173 0.929 . S
C171 C170 1.363 . S
C171 C177 1.428 . S
H172 C168 0.930 . S
H173 C170 0.929 . S
S174 N175 1.613 . S
S174 N176 1.610 . S
N175 S174 1.613 . S
N175 C178 1.350 . S
N176 S174 1.610 . S
N176 C177 1.351 . S
C177 C171 1.428 . S
C177 N176 1.351 . S
C177 C178 1.434 . S
C178 C169 1.429 . S
C178 N175 1.350 . S
C178 C177 1.434 . S
C179 C180 1.369 . S
C179 C181 1.419 . S
C179 H183 0.930 . S
C180 C179 1.369 . S
C180 C189 1.429 . S
C181 C179 1.419 . S
C181 C182 1.363 . S
C181 H184 0.929 . S
C182 C181 1.363 . S
C182 C188 1.428 . S
H183 C179 0.930 . S
H184 C181 0.929 . S
S185 N186 1.613 . S
S185 N187 1.610 . S
N186 S185 1.613 . S
N186 C189 1.350 . S
N187 S185 1.610 . S
N187 C188 1.351 . S
C188 C182 1.428 . S
C188 N187 1.351 . S
C188 C189 1.434 . S
C189 C180 1.429 . S
C189 N186 1.350 . S
C189 C188 1.434 . S
C190 C191 1.369 . S
C190 C192 1.419 . S
C190 H194 0.930 . S
C191 C190 1.369 . S
C191 C200 1.429 . S
C192 C190 1.419 . S
C192 C193 1.363 . S
C192 H195 0.929 . S
C193 C192 1.363 . S
C193 C199 1.428 . S
H194 C190 0.930 . S
H195 C192 0.929 . S
S196 N197 1.613 . S
S196 N198 1.610 . S
N197 S196 1.613 . S
N197 C200 1.350 . S
N198 S196 1.610 . S
N198 C199 1.351 . S
C199 C193 1.428 . S
C199 N198 1.351 . S
C199 C200 1.434 . S
C200 C191 1.429 . S
C200 N197 1.350 . S
C200 C199 1.434 . S
C201 C202 1.369 . S
C201 C203 1.419 . S
C201 H205 0.930 . S
C202 C201 1.369 . S
C202 C211 1.429 . S
C203 C201 1.419 . S
C203 C204 1.363 . S
C203 H206 0.929 . S
C204 C203 1.363 . S
C204 C210 1.428 . S
H205 C201 0.930 . S
H206 C203 0.929 . S
S207 N208 1.613 . S
S207 N209 1.610 . S
N208 S207 1.613 . S
N208 C211 1.350 . S
N209 S207 1.610 . S
N209 C210 1.351 . S
C210 C204 1.428 . S
C210 N209 1.351 . S
C210 C211 1.434 . S
C211 C202 1.429 . S
C211 N208 1.350 . S
C211 C210 1.434 . S
C212 C213 1.369 . S
C212 C214 1.419 1_556 S
C212 H216 0.930 . S
C213 C212 1.369 . S
C213 C222 1.429 . S
C214 C212 1.419 1_554 S
C214 C215 1.363 . S
C214 H217 0.929 . S
C215 C214 1.363 . S
C215 C221 1.428 1_554 S
H216 C212 0.930 . S
H217 C214 0.929 . S
S218 N219 1.613 . S
S218 N220 1.610 . S
N219 S218 1.613 . S
N219 C222 1.350 . S
N220 S218 1.610 . S
N220 C221 1.351 . S
C221 C215 1.428 1_556 S
C221 N220 1.351 . S
C221 C222 1.434 . S
C222 C213 1.429 . S
C222 N219 1.350 . S
C222 C221 1.434 . S
C223 C224 1.369 . S
C223 C225 1.419 . S
C223 H227 0.930 . S
C224 C223 1.369 . S
C224 C233 1.429 . S
C225 C223 1.419 . S
C225 C226 1.363 . S
C225 H228 0.929 . S
C226 C225 1.363 . S
C226 C232 1.428 . S
H227 C223 0.930 . S
H228 C225 0.929 . S
S229 N230 1.613 . S
S229 N231 1.610 . S
N230 S229 1.613 . S
N230 C233 1.350 . S
N231 S229 1.610 . S
N231 C232 1.351 . S
C232 C226 1.428 . S
C232 N231 1.351 . S
C232 C233 1.434 . S
C233 C224 1.429 . S
C233 N230 1.350 . S
C233 C232 1.434 . S
C234 C235 1.369 . S
C234 C236 1.419 . S
C234 H238 0.930 . S
C235 C234 1.369 . S
C235 C244 1.429 . S
C236 C234 1.419 . S
C236 C237 1.363 . S
C236 H239 0.929 . S
C237 C236 1.363 . S
C237 C243 1.428 . S
H238 C234 0.930 . S
H239 C236 0.929 . S
S240 N241 1.613 . S
S240 N242 1.610 . S
N241 S240 1.613 . S
N241 C244 1.350 . S
N242 S240 1.610 . S
N242 C243 1.351 . S
C243 C237 1.428 . S
C243 N242 1.351 . S
C243 C244 1.434 . S
C244 C235 1.429 . S
C244 N241 1.350 . S
C244 C243 1.434 . S
C245 C246 1.369 . S
C245 C247 1.419 . S
C245 H249 0.930 . S
C246 C245 1.369 . S
C246 C255 1.429 . S
C247 C245 1.419 . S
C247 C248 1.363 . S
C247 H250 0.929 . S
C248 C247 1.363 . S
C248 C254 1.428 . S
H249 C245 0.930 . S
H250 C247 0.929 . S
S251 N252 1.613 . S
S251 N253 1.610 . S
N252 S251 1.613 . S
N252 C255 1.350 . S
N253 S251 1.610 . S
N253 C254 1.351 . S
C254 C248 1.428 . S
C254 N253 1.351 . S
C254 C255 1.434 . S
C255 C246 1.429 . S
C255 N252 1.350 . S
C255 C254 1.434 . S
C256 C257 1.369 . S
C256 C258 1.419 . S
C256 H260 0.930 . S
C257 C256 1.369 . S
C257 C266 1.429 . S
C258 C256 1.419 . S
C258 C259 1.363 . S
C258 H261 0.929 . S
C259 C258 1.363 . S
C259 C265 1.428 . S
H260 C256 0.930 . S
H261 C258 0.929 . S
S262 N263 1.613 . S
S262 N264 1.610 . S
N263 S262 1.613 . S
N263 C266 1.350 . S
N264 S262 1.610 . S
N264 C265 1.351 . S
C265 C259 1.428 . S
C265 N264 1.351 . S
C265 C266 1.434 . S
C266 C257 1.429 . S
C266 N263 1.350 . S
C266 C265 1.434 . S
C267 C268 1.369 . S
C267 C269 1.419 . S
C267 H271 0.930 . S
C268 C267 1.369 . S
C268 C277 1.429 . S
C269 C267 1.419 . S
C269 C270 1.363 . S
C269 H272 0.929 . S
C270 C269 1.363 . S
C270 C276 1.428 . S
H271 C267 0.930 . S
H272 C269 0.929 . S
S273 N274 1.613 . S
S273 N275 1.610 . S
N274 S273 1.613 . S
N274 C277 1.350 . S
N275 S273 1.610 . S
N275 C276 1.351 . S
C276 C270 1.428 . S
C276 N275 1.351 . S
C276 C277 1.434 . S
C277 C268 1.429 . S
C277 N274 1.350 . S
C277 C276 1.434 . S
C278 C279 1.369 . S
C278 C280 1.419 . S
C278 H282 0.930 . S
C279 C278 1.369 . S
C279 C288 1.429 . S
C280 C278 1.419 . S
C280 C281 1.363 . S
C280 H283 0.929 . S
C281 C280 1.363 . S
C281 C287 1.428 . S
H282 C278 0.930 . S
H283 C280 0.929 . S
S284 N285 1.613 . S
S284 N286 1.610 . S
N285 S284 1.613 . S
N285 C288 1.350 . S
N286 S284 1.610 . S
N286 C287 1.351 . S
C287 C281 1.428 . S
C287 N286 1.351 . S
C287 C288 1.434 . S
C288 C279 1.429 . S
C288 N285 1.350 . S
C288 C287 1.434 . S
C289 C290 1.362 1_554 S
C289 C291 1.421 . S
C289 H293 0.935 . S
C290 C289 1.362 1_556 S
C290 C299 1.429 . S
C291 C289 1.421 . S
C291 C292 1.363 1_554 S
C291 H294 0.929 . S
C292 C291 1.363 1_556 S
C292 C298 1.428 . S
H293 C289 0.935 . S
H294 C291 0.929 . S
S295 N296 1.613 . S
S295 N297 1.610 . S
N296 S295 1.613 . S
N296 C299 1.350 . S
N297 S295 1.610 . S
N297 C298 1.351 . S
C298 C292 1.428 . S
C298 N297 1.351 . S
C298 C299 1.434 . S
C299 C290 1.429 . S
C299 N296 1.350 . S
C299 C298 1.434 . S
C300 C301 1.369 . S
C300 C302 1.419 . S
C300 H304 0.930 . S
C301 C300 1.369 . S
C301 C310 1.429 . S
C302 C300 1.419 . S
C302 C303 1.363 . S
C302 H305 0.929 . S
C303 C302 1.363 . S
C303 C309 1.428 . S
H304 C300 0.930 . S
H305 C302 0.929 . S
S306 N307 1.613 . S
S306 N308 1.610 . S
N307 S306 1.613 . S
N307 C310 1.350 . S
N308 S306 1.610 . S
N308 C309 1.351 . S
C309 C303 1.428 . S
C309 N308 1.351 . S
C309 C310 1.434 . S
C310 C301 1.429 . S
C310 N307 1.350 . S
C310 C309 1.434 . S
C311 C312 1.369 . S
C311 C313 1.419 1_554 S
C311 H315 0.930 . S
C312 C311 1.369 . S
C312 C321 1.429 1_554 S
C313 C311 1.419 1_556 S
C313 C314 1.363 . S
C313 H316 0.929 . S
C314 C313 1.363 . S
C314 C320 1.428 . S
H315 C311 0.930 . S
H316 C313 0.929 . S
S317 N318 1.613 . S
S317 N319 1.610 . S
N318 S317 1.613 . S
N318 C321 1.350 . S
N319 S317 1.610 . S
N319 C320 1.351 . S
C320 C314 1.428 . S
C320 N319 1.351 . S
C320 C321 1.434 . S
C321 C312 1.429 1_556 S
C321 N318 1.350 . S
C321 C320 1.434 . S
C322 C323 1.369 . S
C322 C324 1.419 . S
C322 H326 0.930 . S
C323 C322 1.369 . S
C323 C332 1.429 . S
C324 C322 1.419 . S
C324 C325 1.363 . S
C324 H327 0.929 . S
C325 C324 1.363 . S
C325 C331 1.428 . S
H326 C322 0.930 . S
H327 C324 0.929 . S
S328 N329 1.613 . S
S328 N330 1.610 . S
N329 S328 1.613 . S
N329 C332 1.350 . S
N330 S328 1.610 . S
N330 C331 1.351 . S
C331 C325 1.428 . S
C331 N330 1.351 . S
C331 C332 1.434 . S
C332 C323 1.429 . S
C332 N329 1.350 . S
C332 C331 1.434 . S
C333 C334 1.369 . S
C333 C335 1.419 . S
C333 H337 0.930 . S
C334 C333 1.369 . S
C334 C343 1.429 . S
C335 C333 1.419 . S
C335 C336 1.363 . S
C335 H338 0.929 . S
C336 C335 1.363 . S
C336 C342 1.428 . S
H337 C333 0.930 . S
H338 C335 0.929 . S
S339 N340 1.613 . S
S339 N341 1.610 . S
N340 S339 1.613 . S
N340 C343 1.350 . S
N341 S339 1.610 . S
N341 C342 1.351 . S
C342 C336 1.428 . S
C342 N341 1.351 . S
C342 C343 1.434 . S
C343 C334 1.429 . S
C343 N340 1.350 . S
C343 C342 1.434 . S
C344 C345 1.369 . S
C344 C346 1.419 . S
C344 H348 0.930 . S
C345 C344 1.369 . S
C345 C354 1.429 . S
C346 C344 1.419 . S
C346 C347 1.363 . S
C346 H349 0.929 . S
C347 C346 1.363 . S
C347 C353 1.428 . S
H348 C344 0.930 . S
H349 C346 0.929 . S
S350 N351 1.613 . S
S350 N352 1.610 . S
N351 S350 1.613 . S
N351 C354 1.350 . S
N352 S350 1.610 . S
N352 C353 1.351 . S
C353 C347 1.428 . S
C353 N352 1.351 . S
C353 C354 1.434 . S
C354 C345 1.429 . S
C354 N351 1.350 . S
C354 C353 1.434 . S
C355 C356 1.369 . S
C355 C357 1.419 . S
C355 H359 0.930 . S
C356 C355 1.369 . S
C356 C365 1.429 . S
C357 C355 1.419 . S
C357 C358 1.363 . S
C357 H360 0.929 . S
C358 C357 1.363 . S
C358 C364 1.428 . S
H359 C355 0.930 . S
H360 C357 0.929 . S
S361 N362 1.613 . S
S361 N363 1.610 . S
N362 S361 1.613 . S
N362 C365 1.350 . S
N363 S361 1.610 . S
N363 C364 1.351 . S
C364 C358 1.428 . S
C364 N363 1.351 . S
C364 C365 1.434 . S
C365 C356 1.429 . S
C365 N362 1.350 . S
C365 C364 1.434 . S
C366 C367 1.369 . S
C366 C368 1.419 1_455 S
C366 H370 0.930 . S
C367 C366 1.369 . S
C367 C376 1.429 . S
C368 C366 1.419 1_655 S
C368 C369 1.363 . S
C368 H371 0.929 . S
C369 C368 1.363 . S
C369 C375 1.428 . S
H370 C366 0.930 . S
H371 C368 0.929 . S
S372 N373 1.613 1_655 S
S372 N374 1.610 . S
N373 S372 1.613 1_455 S
N373 C376 1.350 . S
N374 S372 1.610 . S
N374 C375 1.351 . S
C375 C369 1.428 . S
C375 N374 1.351 . S
C375 C376 1.434 1_655 S
C376 C367 1.429 . S
C376 N373 1.350 . S
C376 C375 1.434 1_455 S
C377 C378 1.369 1_554 S
C377 C379 1.419 1_565 S
C377 H381 0.930 1_554 S
C378 C377 1.369 1_556 S
C378 C387 1.429 1_556 S
C379 C377 1.419 1_545 S
C379 C380 1.363 . S
C379 H382 0.929 . S
C380 C379 1.363 . S
C380 C386 1.428 . S
H381 C377 0.930 1_556 S
H382 C379 0.929 . S
S383 N384 1.613 . S
S383 N385 1.610 1_565 S
N384 S383 1.613 . S
N384 C387 1.350 . S
N385 S383 1.610 1_545 S
N385 C386 1.351 . S
C386 C380 1.428 . S
C386 N385 1.351 . S
C386 C387 1.434 1_545 S
C387 C378 1.429 1_554 S
C387 N384 1.350 . S
C387 C386 1.434 1_565 S
C388 C389 1.369 . S
C388 C390 1.419 . S
C388 H392 0.930 . S
C389 C388 1.369 . S
C389 C398 1.429 . S
C390 C388 1.419 . S
C390 C391 1.363 . S
C390 H393 0.929 . S
C391 C390 1.363 . S
C391 C397 1.428 . S
H392 C388 0.930 . S
H393 C390 0.929 . S
S394 N395 1.613 . S
S394 N396 1.610 . S
N395 S394 1.613 . S
N395 C398 1.350 . S
N396 S394 1.610 . S
N396 C397 1.351 . S
C397 C391 1.428 . S
C397 N396 1.351 . S
C397 C398 1.434 . S
C398 C389 1.429 . S
C398 N395 1.350 . S
C398 C397 1.434 . S
C399 C400 1.369 . S
C399 C401 1.419 1_455 S
C399 H403 0.930 . S
C400 C399 1.369 . S
C400 C409 1.429 . S
C401 C399 1.419 1_655 S
C401 C402 1.363 . S
C401 H404 0.929 . S
C402 C401 1.363 . S
C402 C408 1.428 . S
H403 C399 0.930 . S
H404 C401 0.929 . S
S405 N406 1.613 1_655 S
S405 N407 1.610 . S
N406 S405 1.613 1_455 S
N406 C409 1.350 . S
N407 S405 1.610 . S
N407 C408 1.351 . S
C408 C402 1.428 . S
C408 N407 1.351 . S
C408 C409 1.434 1_655 S
C409 C400 1.429 . S
C409 N406 1.350 . S
C409 C408 1.434 1_455 S
C410 C411 1.369 . S
C410 C412 1.419 . S
C410 H414 0.930 . S
C411 C410 1.369 . S
C411 C420 1.429 1_545 S
C412 C410 1.419 . S
C412 C413 1.363 1_545 S
C412 H415 0.929 . S
C413 C412 1.363 1_565 S
C413 C419 1.428 . S
H414 C410 0.930 . S
H415 C412 0.929 . S
S416 N417 1.613 . S
S416 N418 1.610 . S
N417 S416 1.613 . S
N417 C420 1.350 . S
N418 S416 1.610 . S
N418 C419 1.351 . S
C419 C413 1.428 . S
C419 N418 1.351 . S
C419 C420 1.434 . S
C420 C411 1.429 1_565 S
C420 N417 1.350 . S
C420 C419 1.434 . S
C421 C422 1.369 . S
C421 C423 1.419 . S
C421 H425 0.930 . S
C422 C421 1.369 . S
C422 C431 1.429 . S
C423 C421 1.419 . S
C423 C424 1.363 . S
C423 H426 0.929 . S
C424 C423 1.363 . S
C424 C430 1.428 . S
H425 C421 0.930 . S
H426 C423 0.929 . S
S427 N428 1.613 . S
S427 N429 1.610 . S
N428 S427 1.613 . S
N428 C431 1.350 . S
N429 S427 1.610 . S
N429 C430 1.351 . S
C430 C424 1.428 . S
C430 N429 1.351 . S
C430 C431 1.434 . S
C431 C422 1.429 . S
C431 N428 1.350 . S
C431 C430 1.434 . S
C169 C5 1.517 . S
C171 C145 1.515 . S
C180 C159 1.515 . S
C182 C19 1.514 . S
C191 C33 1.513 . S
C193 C89 1.514 . S
C202 C47 1.517 . S
C204 C103 1.516 . S
C213 C61 1.513 . S
C215 C117 1.515 . S
C224 C131 1.517 . S
C226 C75 1.506 1_554 S
C235 C9 1.574 . S
C237 C121 1.574 . S
C246 C23 1.574 . S
C248 C135 1.575 . S
C257 C149 1.576 . S
C259 C37 1.575 . S
C268 C51 1.576 . S
C270 C163 1.575 . S
C279 C65 1.574 . S
C281 C93 1.574 . S
C290 C79 1.575 . S
C292 C107 1.576 1_556 S
C301 C140 1.345 . S
C303 C0 1.345 . S
C312 C14 1.348 . S
C314 C154 1.347 . S
C323 C28 1.348 . S
C325 C84 1.348 1_554 S
C334 C42 1.344 . S
C336 C98 1.346 . S
C345 C112 1.345 . S
C347 C56 1.346 . S
C356 C70 1.348 . S
C358 C126 1.346 . S
C367 C11 1.458 . S
C369 C165 1.457 . S
C378 C95 1.457 . S
C380 C25 1.456 . S
C389 C109 1.457 . S
C391 C39 1.456 . S
C400 C123 1.458 . S
C402 C53 1.458 . S
C411 C137 1.459 . S
C413 C67 1.456 . S
C422 C151 1.458 . S
C424 C81 1.456 . S
