# Generated by pormake.
# Topology wiv, (6)-cn, num edge types: 1
# Building blocks:
#     Node 0, Type 0, BuildingBlock: CUKXOW_clean_sbu_0, # of connection points: 6
#     Node 1, Type 0, BuildingBlock: CUKXOW_clean_sbu_0, # of connection points: 6
#     Node 2, Type 0, BuildingBlock: CUKXOW_clean_sbu_0, # of connection points: 6
#     Node 3, Type 0, BuildingBlock: CUKXOW_clean_sbu_0, # of connection points: 6
#     Node 4, Type 0, BuildingBlock: CUKXOW_clean_sbu_0, # of connection points: 6
#     Node 5, Type 0, BuildingBlock: CUKXOW_clean_sbu_0, # of connection points: 6
#     Node 6, Type 0, BuildingBlock: CUKXOW_clean_sbu_0, # of connection points: 6
#     Node 7, Type 0, BuildingBlock: CUKXOW_clean_sbu_0, # of connection points: 6
#     Node 8, Type 0, BuildingBlock: CUKXOW_clean_sbu_0, # of connection points: 6
#     Node 9, Type 0, BuildingBlock: CUKXOW_clean_sbu_0, # of connection points: 6
#     Node 10, Type 0, BuildingBlock: CUKXOW_clean_sbu_0, # of connection points: 6
#     Node 11, Type 0, BuildingBlock: CUKXOW_clean_sbu_0, # of connection points: 6
#     Node 12, Type 0, BuildingBlock: CUKXOW_clean_sbu_0, # of connection points: 6
#     Node 13, Type 0, BuildingBlock: CUKXOW_clean_sbu_0, # of connection points: 6
#     Node 14, Type 0, BuildingBlock: CUKXOW_clean_sbu_0, # of connection points: 6
#     Node 15, Type 0, BuildingBlock: CUKXOW_clean_sbu_0, # of connection points: 6
#     Edge 16, Type (0, 0), BuildingBlock: XUDNAN_clean_linker_2, # of connection points: 2
#     Edge 17, Type (0, 0), BuildingBlock: XUDNAN_clean_linker_2, # of connection points: 2
#     Edge 18, Type (0, 0), BuildingBlock: XUDNAN_clean_linker_2, # of connection points: 2
#     Edge 19, Type (0, 0), BuildingBlock: XUDNAN_clean_linker_2, # of connection points: 2
#     Edge 20, Type (0, 0), BuildingBlock: XUDNAN_clean_linker_2, # of connection points: 2
#     Edge 21, Type (0, 0), BuildingBlock: XUDNAN_clean_linker_2, # of connection points: 2
#     Edge 22, Type (0, 0), BuildingBlock: XUDNAN_clean_linker_2, # of connection points: 2
#     Edge 23, Type (0, 0), BuildingBlock: XUDNAN_clean_linker_2, # of connection points: 2
#     Edge 24, Type (0, 0), BuildingBlock: XUDNAN_clean_linker_2, # of connection points: 2
#     Edge 25, Type (0, 0), BuildingBlock: XUDNAN_clean_linker_2, # of connection points: 2
#     Edge 26, Type (0, 0), BuildingBlock: XUDNAN_clean_linker_2, # of connection points: 2
#     Edge 27, Type (0, 0), BuildingBlock: XUDNAN_clean_linker_2, # of connection points: 2
#     Edge 28, Type (0, 0), BuildingBlock: XUDNAN_clean_linker_2, # of connection points: 2
#     Edge 29, Type (0, 0), BuildingBlock: XUDNAN_clean_linker_2, # of connection points: 2
#     Edge 30, Type (0, 0), BuildingBlock: XUDNAN_clean_linker_2, # of connection points: 2
#     Edge 31, Type (0, 0), BuildingBlock: XUDNAN_clean_linker_2, # of connection points: 2
#     Edge 32, Type (0, 0), BuildingBlock: XUDNAN_clean_linker_2, # of connection points: 2
#     Edge 33, Type (0, 0), BuildingBlock: XUDNAN_clean_linker_2, # of connection points: 2
#     Edge 34, Type (0, 0), BuildingBlock: XUDNAN_clean_linker_2, # of connection points: 2
#     Edge 35, Type (0, 0), BuildingBlock: XUDNAN_clean_linker_2, # of connection points: 2
#     Edge 36, Type (0, 0), BuildingBlock: XUDNAN_clean_linker_2, # of connection points: 2
#     Edge 37, Type (0, 0), BuildingBlock: XUDNAN_clean_linker_2, # of connection points: 2
#     Edge 38, Type (0, 0), BuildingBlock: XUDNAN_clean_linker_2, # of connection points: 2
#     Edge 39, Type (0, 0), BuildingBlock: XUDNAN_clean_linker_2, # of connection points: 2
#     Edge 40, Type (0, 0), BuildingBlock: XUDNAN_clean_linker_2, # of connection points: 2
#     Edge 41, Type (0, 0), BuildingBlock: XUDNAN_clean_linker_2, # of connection points: 2
#     Edge 42, Type (0, 0), BuildingBlock: XUDNAN_clean_linker_2, # of connection points: 2
#     Edge 43, Type (0, 0), BuildingBlock: XUDNAN_clean_linker_2, # of connection points: 2
#     Edge 44, Type (0, 0), BuildingBlock: XUDNAN_clean_linker_2, # of connection points: 2
#     Edge 45, Type (0, 0), BuildingBlock: XUDNAN_clean_linker_2, # of connection points: 2
#     Edge 46, Type (0, 0), BuildingBlock: XUDNAN_clean_linker_2, # of connection points: 2
#     Edge 47, Type (0, 0), BuildingBlock: XUDNAN_clean_linker_2, # of connection points: 2
#     Edge 48, Type (0, 0), BuildingBlock: XUDNAN_clean_linker_2, # of connection points: 2
#     Edge 49, Type (0, 0), BuildingBlock: XUDNAN_clean_linker_2, # of connection points: 2
#     Edge 50, Type (0, 0), BuildingBlock: XUDNAN_clean_linker_2, # of connection points: 2
#     Edge 51, Type (0, 0), BuildingBlock: XUDNAN_clean_linker_2, # of connection points: 2
#     Edge 52, Type (0, 0), BuildingBlock: XUDNAN_clean_linker_2, # of connection points: 2
#     Edge 53, Type (0, 0), BuildingBlock: XUDNAN_clean_linker_2, # of connection points: 2
#     Edge 54, Type (0, 0), BuildingBlock: XUDNAN_clean_linker_2, # of connection points: 2
#     Edge 55, Type (0, 0), BuildingBlock: XUDNAN_clean_linker_2, # of connection points: 2
#     Edge 56, Type (0, 0), BuildingBlock: XUDNAN_clean_linker_2, # of connection points: 2
#     Edge 57, Type (0, 0), BuildingBlock: XUDNAN_clean_linker_2, # of connection points: 2
#     Edge 58, Type (0, 0), BuildingBlock: XUDNAN_clean_linker_2, # of connection points: 2
#     Edge 59, Type (0, 0), BuildingBlock: XUDNAN_clean_linker_2, # of connection points: 2
#     Edge 60, Type (0, 0), BuildingBlock: XUDNAN_clean_linker_2, # of connection points: 2
#     Edge 61, Type (0, 0), BuildingBlock: XUDNAN_clean_linker_2, # of connection points: 2
#     Edge 62, Type (0, 0), BuildingBlock: XUDNAN_clean_linker_2, # of connection points: 2
#     Edge 63, Type (0, 0), BuildingBlock: XUDNAN_clean_linker_2, # of connection points: 2
# Relax obj value: 0.074
# Max RMSD: 0.158
# Mean RMSD: 0.158
data_MOF--net-wiv--node1-CUKXOW_clean_sbu_0--edge1-XUDNAN_clean_linker_2
_symmetry_space_group_name_H-M    P1
_symmetry_Int_Tables_number       1
_symmetry_cell_setting            triclinic
loop_
_symmetry_equiv_pos_as_xyz
'x, y, z'
_cell_length_a     64.353459
_cell_length_b     64.356627
_cell_length_c     14.356519
_cell_angle_alpha  90.059513
_cell_angle_beta   89.991101
_cell_angle_gamma 89.964696
loop_
_atom_site_label
_atom_site_type_symbol
_atom_site_fract_x
_atom_site_fract_y
_atom_site_fract_z
_atom_type_partial_charge
Tb0 Tb 0.40047 0.124 0.21575 0.0
C1 C 0.38286 0.16944 0.17266 0.0
Tb2 Tb 0.35155 0.13153 0.17351 0.0
O3 O 0.40936 0.12197 0.06406 0.0
O4 O 0.37974 0.12665 0.10589 0.0
O5 O 0.39793 0.15769 0.20845 0.0
C6 C 0.31739 0.12809 0.0698 0.0
O7 O 0.36439 0.16226 0.14553 0.0
C8 C 0.35979 0.13303 0.35509 0.0
C9 C 0.36827 0.08676 0.23414 0.0
O10 O 0.32037 0.14233 0.13306 0.0
O11 O 0.33362 0.11618 0.06508 0.0
O12 O 0.34152 0.13624 0.3181 0.0
O13 O 0.37206 0.12923 0.28798 0.0
O14 O 0.35295 0.09826 0.19932 0.0
O15 O 0.3874 0.09371 0.25123 0.0
C16 C 0.43732 0.12365 0.30105 0.0
O17 O 0.43155 0.11073 0.23623 0.0
O18 O 0.42221 0.13649 0.31849 0.0
C19 C 0.39054 0.12503 1.03371 0.0
Tb20 Tb 0.12968 0.64517 0.93673 0.0
C21 C 0.08684 0.62276 0.92991 0.0
Tb22 Tb 0.12851 0.59737 0.90434 0.0
O23 O 0.14414 0.64951 0.80191 0.0
O24 O 0.12417 0.62465 0.82006 0.0
O25 O 0.09762 0.63804 0.96805 0.0
C26 C 0.12372 0.56 0.82695 0.0
O27 O 0.09592 0.6068 0.88724 0.0
C28 C 0.1294 0.60681 0.08531 0.0
C29 C 0.1713 0.6211 0.9326 0.0
O30 O 0.11043 0.56936 0.88016 0.0
O31 O 0.14016 0.57158 0.81757 0.0
O32 O 0.12947 0.58781 0.05458 0.0
O33 O 0.12916 0.61803 1.01438 0.0
O34 O 0.16188 0.60496 0.89214 0.0
O35 O 0.16096 0.63655 0.9723 0.0
C36 C 0.12541 0.68474 0.98616 0.0
O37 O 0.13829 0.67169 1.02386 0.0
O38 O 0.11498 0.67553 0.92076 0.0
C39 C 0.13657 0.63302 0.76286 0.0
Tb40 Tb 0.59586 0.86524 0.14353 0.0
C41 C 0.62266 0.8256 0.11709 0.0
Tb42 Tb 0.64155 0.87172 0.11333 0.0
O43 O 0.59306 0.85395 0.99876 0.0
O44 O 0.61458 0.87654 1.03372 0.0
O45 O 0.60476 0.83272 0.15011 0.0
C46 C 0.67815 0.87548 1.02731 0.0
O47 O 0.63804 0.83816 0.09121 0.0
C48 C 0.6309 0.87445 0.28863 0.0
C49 C 0.61479 0.91088 0.15605 0.0
O50 O 0.67557 0.86793 0.11047 0.0
O51 O 0.66024 0.88058 0.9933 0.0
O52 O 0.6469 0.88365 0.25181 0.0
O53 O 0.62288 0.86207 0.2296 0.0
O54 O 0.63231 0.90419 0.118 0.0
O55 O 0.59962 0.89808 0.18099 0.0
C56 C 0.55558 0.86819 0.18687 0.0
O57 O 0.56463 0.87616 0.11496 0.0
O58 O 0.56925 0.85803 0.23569 0.0
C59 C 0.60817 0.86533 0.9679 0.0
Tb60 Tb 0.87322 0.35799 0.95747 0.0
C61 C 0.91763 0.37858 0.91981 0.0
Tb62 Tb 0.8774 0.40743 0.91589 0.0
O63 O 0.87162 0.34767 0.81199 0.0
O64 O 0.87593 0.37858 0.84344 0.0
O65 O 0.90701 0.36211 0.94991 0.0
C66 C 0.87888 0.44422 0.83016 0.0
O67 O 0.90918 0.39668 0.89578 0.0
C68 C 0.87513 0.3975 0.09736 0.0
C69 C 0.83285 0.38709 0.9466 0.0
O70 O 0.8896 0.43911 0.90336 0.0
O71 O 0.86739 0.42855 0.80506 0.0
O72 O 0.87754 0.41644 0.06744 0.0
O73 O 0.87416 0.38661 1.02513 0.0
O74 O 0.84389 0.40311 0.91483 0.0
O75 O 0.84109 0.36907 0.97446 0.0
C76 C 0.87328 0.32329 0.05977 0.0
O77 O 0.86158 0.32654 0.98731 0.0
O78 O 0.88493 0.33948 0.07372 0.0
C79 C 0.87364 0.36614 0.7756 0.0
Tb80 Tb 0.40709 0.36691 0.12798 0.0
C81 C 0.3875 0.32195 0.15262 0.0
Tb82 Tb 0.35889 0.36251 0.1619 0.0
O83 O 0.4112 0.37809 0.27346 0.0
O84 O 0.38671 0.35918 0.23844 0.0
O85 O 0.40395 0.33334 0.12978 0.0
C86 C 0.32146 0.35968 0.24152 0.0
O87 O 0.36909 0.33006 0.17541 0.0
C88 C 0.36723 0.36307 0.98089 0.0
C89 C 0.37803 0.40574 0.10568 0.0
O90 O 0.32814 0.34864 0.17202 0.0
O91 O 0.33605 0.37243 0.26774 0.0
O92 O 0.34876 0.36101 1.01611 0.0
O93 O 0.37955 0.36501 0.04878 0.0
O94 O 0.36328 0.39639 0.15537 0.0
O95 O 0.39505 0.39606 0.0765 0.0
C96 C 0.44559 0.36498 0.05788 0.0
O97 O 0.43924 0.37822 0.12004 0.0
O98 O 0.43027 0.3529 1.03532 0.0
C99 C 0.39401 0.36992 0.30352 0.0
Tb100 Tb 0.36992 0.64168 0.89101 0.0
C101 C 0.40852 0.61491 0.94512 0.0
Tb102 Tb 0.36381 0.5943 0.92376 0.0
O103 O 0.3689 0.65277 1.03527 0.0
O104 O 0.36433 0.6218 1.00407 0.0
O105 O 0.40228 0.63172 0.89904 0.0
C106 C 0.36697 0.55371 0.95644 0.0
O107 O 0.39552 0.59995 0.97136 0.0
C108 C 0.36384 0.6076 0.74905 0.0
C109 C 0.32425 0.62184 0.91357 0.0
O110 O 0.37601 0.56386 0.89009 0.0
O111 O 0.35612 0.56654 1.00717 0.0
O112 O 0.35267 0.59222 0.7785 0.0
O113 O 0.37484 0.61394 0.81567 0.0
O114 O 0.33182 0.60378 0.9425 0.0
O115 O 0.33615 0.63742 0.88384 0.0
C116 C 0.37042 0.67575 0.78595 0.0
O117 O 0.38085 0.67343 0.86293 0.0
O118 O 0.35984 0.65903 0.76912 0.0
C119 C 0.3657 0.63446 0.07132 0.0
Tb120 Tb 0.59719 0.63132 0.13569 0.0
C121 C 0.62337 0.67259 0.12388 0.0
Tb122 Tb 0.6451 0.62943 0.16482 0.0
O123 O 0.59371 0.64803 0.26538 0.0
O124 O 0.61797 0.62692 0.25225 0.0
O125 O 0.60592 0.6631 0.09731 0.0
C126 C 0.68324 0.62651 0.23448 0.0
O127 O 0.63933 0.66272 0.16284 0.0
C128 C 0.63485 0.62902 0.98427 0.0
C129 C 0.62008 0.58797 0.15939 0.0
O130 O 0.66948 0.64017 0.2605 0.0
O131 O 0.67548 0.61475 0.16992 0.0
O132 O 0.6539 0.62884 1.01382 0.0
O133 O 0.62387 0.62914 0.05608 0.0
O134 O 0.6362 0.59778 0.19591 0.0
O135 O 0.60444 0.59804 0.11901 0.0
C136 C 0.5573 0.62414 0.09683 0.0
O137 O 0.56764 0.61644 0.16611 0.0
O138 O 0.56942 0.63618 0.04834 0.0
C139 C 0.61001 0.64043 0.30597 0.0
Tb140 Tb 0.64125 0.35447 0.90729 0.0
C141 C 0.59497 0.37208 0.92008 0.0
Tb142 Tb 0.63328 0.40219 0.9471 0.0
O143 O 0.65076 0.34959 0.05431 0.0
O144 O 0.63075 0.37348 1.01825 0.0
O145 O 0.60752 0.35742 0.88574 0.0
C146 C 0.62793 0.43876 1.03203 0.0
O147 O 0.60201 0.38955 0.9585 0.0
C148 C 0.63695 0.39469 0.76472 0.0
C149 C 0.67961 0.38445 0.93815 0.0
O150 O 0.61772 0.43237 0.95941 0.0
O151 O 0.64104 0.42446 0.05732 0.0
O152 O 0.63314 0.41279 0.80113 0.0
O153 O 0.63911 0.38254 0.83293 0.0
O154 O 0.66686 0.39962 0.96469 0.0
O155 O 0.67307 0.3662 0.90597 0.0
C156 C 0.64549 0.31829 0.81747 0.0
O157 O 0.63552 0.32081 0.8956 0.0
O158 O 0.65296 0.33605 0.79088 0.0
C159 C 0.64112 0.36608 0.08485 0.0
Tb160 Tb 0.90289 0.63624 0.68549 0.0
C161 C 0.87625 0.67765 0.66198 0.0
Tb162 Tb 0.85378 0.63387 0.64194 0.0
O163 O 0.91341 0.6378 0.5399 0.0
O164 O 0.88244 0.63692 0.57022 0.0
O165 O 0.89358 0.66906 0.69606 0.0
C166 C 0.81904 0.62922 0.54402 0.0
O167 O 0.86059 0.66676 0.62579 0.0
C168 C 0.86336 0.63242 0.82397 0.0
C169 C 0.87939 0.59248 0.67104 0.0
O170 O 0.82127 0.64202 0.61353 0.0
O171 O 0.83626 0.61919 0.53036 0.0
O172 O 0.84429 0.63272 0.79306 0.0
O173 O 0.87445 0.63242 0.75233 0.0
O174 O 0.86261 0.6014 0.63499 0.0
O175 O 0.8954 0.60311 0.70608 0.0
C176 C 0.93973 0.63563 0.76981 0.0
O177 O 0.9339 0.6232 0.70362 0.0
O178 O 0.92479 0.64862 0.78877 0.0
C179 C 0.89502 0.63718 0.50256 0.0
Tb180 Tb 0.63208 0.14259 0.45292 0.0
C181 C 0.58719 0.12424 0.43092 0.0
Tb182 Tb 0.62681 0.0948 0.41558 0.0
O183 O 0.62229 0.1491 0.30755 0.0
O184 O 0.63666 0.12138 0.34159 0.0
O185 O 0.59858 0.13939 0.46753 0.0
C186 C 0.62125 0.05832 0.32969 0.0
O187 O 0.59536 0.10691 0.39619 0.0
C188 C 0.62543 0.10253 0.59752 0.0
C189 C 0.67182 0.11323 0.44402 0.0
O190 O 0.60938 0.07453 0.32089 0.0
O191 O 0.6364 0.06274 0.38607 0.0
O192 O 0.62379 0.08421 0.56021 0.0
O193 O 0.62715 0.11518 0.53082 0.0
O194 O 0.66042 0.09818 0.40624 0.0
O195 O 0.66373 0.13095 0.47556 0.0
C196 C 0.64018 0.18042 0.52138 0.0
O197 O 0.64731 0.1729 0.44376 0.0
O198 O 0.62845 0.16658 0.561 0.0
C199 C 0.62776 0.13091 0.27645 0.0
Tb200 Tb 0.10271 0.36733 0.67476 0.0
C201 C 0.13052 0.32761 0.66751 0.0
Tb202 Tb 0.14846 0.37353 0.63608 0.0
O203 O 0.09744 0.35768 0.52783 0.0
O204 O 0.12074 0.37827 0.56188 0.0
O205 O 0.11246 0.33534 0.69521 0.0
C206 C 0.18373 0.37041 0.53783 0.0
O207 O 0.14607 0.33955 0.63879 0.0
C208 C 0.13901 0.37645 0.81339 0.0
C209 C 0.12109 0.41343 0.65652 0.0
O210 O 0.16547 0.36437 0.51125 0.0
O211 O 0.18225 0.37851 0.62064 0.0
O212 O 0.15491 0.38533 0.774 0.0
O213 O 0.13057 0.36409 0.75527 0.0
O214 O 0.13887 0.40594 0.62328 0.0
O215 O 0.10563 0.40119 0.68417 0.0
C216 C 0.06521 0.36886 0.75621 0.0
O217 O 0.08224 0.37662 0.78947 0.0
O218 O 0.06925 0.36014 0.67665 0.0
C219 C 0.11337 0.36779 0.49584 0.0
Tb220 Tb 0.37001 0.85232 0.43113 0.0
C221 C 0.40912 0.87812 0.37894 0.0
Tb222 Tb 0.36575 0.8981 0.40904 0.0
O223 O 0.37952 0.84749 0.28598 0.0
O224 O 0.36011 0.87225 0.32095 0.0
O225 O 0.40268 0.86209 0.42931 0.0
C226 C 0.35862 0.93796 0.36917 0.0
O227 O 0.39603 0.89252 0.34973 0.0
C228 C 0.37885 0.88647 0.57692 0.0
C229 C 0.32489 0.87225 0.43615 0.0
O230 O 0.37252 0.92635 0.32982 0.0
O231 O 0.34857 0.92713 0.43045 0.0
O232 O 0.38432 0.90315 0.53347 0.0
O233 O 0.36558 0.87743 0.52658 0.0
O234 O 0.33289 0.89019 0.40857 0.0
O235 O 0.33666 0.85584 0.45541 0.0
C236 C 0.36978 0.8129 0.48843 0.0
O237 O 0.35999 0.82015 0.41664 0.0
O238 O 0.37984 0.8279 0.52893 0.0
C239 C 0.3705 0.86415 0.25563 0.0
Tb240 Tb 0.90604 0.87108 0.68205 0.0
C241 C 0.87722 0.83113 0.69669 0.0
Tb242 Tb 0.85818 0.87637 0.71502 0.0
O243 O 0.91609 0.86825 0.82741 0.0
O244 O 0.88519 0.87163 0.79504 0.0
O245 O 0.89529 0.8389 0.66789 0.0
C246 C 0.81983 0.8834 0.77773 0.0
O247 O 0.86161 0.84285 0.72746 0.0
C248 C 0.87058 0.87185 0.54022 0.0
C249 C 0.88675 0.91635 0.70579 0.0
O250 O 0.83387 0.87255 0.82092 0.0
O251 O 0.82749 0.89037 0.70023 0.0
O252 O 0.85237 0.86619 0.56997 0.0
O253 O 0.87975 0.88094 0.60594 0.0
O254 O 0.86887 0.9084 0.7356 0.0
O255 O 0.90212 0.90469 0.67233 0.0
C256 C 0.94297 0.87009 0.59874 0.0
O257 O 0.93843 0.88077 0.67263 0.0
O258 O 0.92674 0.8596 0.57208 0.0
C259 C 0.8976 0.87014 0.86274 0.0
Tb260 Tb 0.86292 0.1483 0.43421 0.0
C261 C 0.90908 0.13116 0.44629 0.0
Tb262 Tb 0.87114 0.10078 0.46945 0.0
O263 O 0.85137 0.15147 0.57925 0.0
O264 O 0.8729 0.1289 0.54476 0.0
O265 O 0.89645 0.14534 0.40978 0.0
C266 C 0.87908 0.06406 0.54932 0.0
O267 O 0.90206 0.11397 0.48647 0.0
C268 C 0.8685 0.10829 0.28776 0.0
C269 C 0.82486 0.11816 0.45274 0.0
O270 O 0.89163 0.07441 0.49611 0.0
O271 O 0.86182 0.07442 0.55831 0.0
O272 O 0.87194 0.09017 0.32429 0.0
O273 O 0.86633 0.12078 0.35488 0.0
O274 O 0.83751 0.10361 0.48654 0.0
O275 O 0.8315 0.1362 0.41862 0.0
C276 C 0.86346 0.18775 0.37514 0.0
O277 O 0.85525 0.17227 0.32978 0.0
O278 O 0.87099 0.18094 0.45313 0.0
C279 C 0.86157 0.13542 0.6098 0.0
Tb280 Tb 0.09743 0.13703 0.64054 0.0
C281 C 0.12731 0.17499 0.67133 0.0
Tb282 Tb 0.14459 0.12874 0.67979 0.0
O283 O 0.09297 0.14567 0.78862 0.0
O284 O 0.11597 0.12484 0.75098 0.0
O285 O 0.1094 0.16861 0.63521 0.0
C286 C 0.18087 0.1222 0.76472 0.0
O287 O 0.14193 0.16212 0.70209 0.0
C288 C 0.13791 0.13434 0.49776 0.0
C289 C 0.11662 0.09191 0.6195 0.0
O290 O 0.16737 0.13626 0.7887 0.0
O291 O 0.17378 0.11179 0.69409 0.0
O292 O 0.15585 0.13023 0.53496 0.0
O293 O 0.1255 0.13605 0.56546 0.0
O294 O 0.13226 0.09731 0.6746 0.0
O295 O 0.10269 0.1055 0.58829 0.0
C296 C 0.05884 0.13928 0.5728 0.0
O297 O 0.06504 0.12663 0.63759 0.0
O298 O 0.0744 0.15069 0.54614 0.0
C299 C 0.1088 0.13509 0.81854 0.0
Tb300 Tb 0.12946 0.8579 0.36537 0.0
C301 C 0.0877 0.8826 0.39985 0.0
Tb302 Tb 0.13066 0.90562 0.40064 0.0
O303 O 0.12757 0.84793 0.51486 0.0
O304 O 0.12894 0.87837 0.47669 0.0
O305 O 0.09687 0.8664 0.3603 0.0
C306 C 0.1351 0.94578 0.44263 0.0
O307 O 0.09815 0.89877 0.43371 0.0
C308 C 0.12273 0.89381 0.2275 0.0
C309 C 0.17262 0.8791 0.39437 0.0
O310 O 0.14045 0.937 0.36494 0.0
O311 O 0.12771 0.93176 0.49874 0.0
O312 O 0.11509 0.91002 0.26856 0.0
O313 O 0.13539 0.88512 0.28307 0.0
O314 O 0.16341 0.89666 0.42185 0.0
O315 O 0.16244 0.86329 0.35677 0.0
C316 C 0.12516 0.823 0.26879 0.0
O317 O 0.13774 0.82544 0.33888 0.0
O318 O 0.11504 0.84009 0.25388 0.0
C319 C 0.12785 0.86688 0.54687 0.0
H320 H 0.38694 0.96491 0.29703 0.0
H321 H 0.3241 0.96108 0.40472 0.0
H322 H 0.31959 0.99886 0.37909 0.0
H323 H 0.39898 0.01355 0.4068 0.0
H324 H 0.41477 0.02285 0.31188 0.0
H325 H 0.41262 0.99536 0.33324 0.0
H326 H 0.4001 0.9896 0.16359 0.0
H327 H 0.40227 0.01707 0.14161 0.0
H328 H 0.37797 0.00393 0.12103 0.0
H329 H 0.32176 0.03659 0.33861 0.0
H330 H 0.3311 0.07256 0.29677 0.0
H331 H 0.3936 0.05244 0.2274 0.0
C332 C 0.37218 0.97205 0.31426 0.0
C333 C 0.35574 0.96023 0.35174 0.0
C334 C 0.33679 0.97 0.37548 0.0
C335 C 0.33411 0.99138 0.36108 0.0
C336 C 0.35068 0.00268 0.32451 0.0
C337 C 0.36943 0.99343 0.30236 0.0
C338 C 0.38509 0.00929 0.26855 0.0
C339 C 0.40398 0.01032 0.33405 0.0
C340 C 0.39174 0.00469 0.1677 0.0
C341 C 0.37217 0.0289 0.27449 0.0
C342 C 0.3523 0.02467 0.30593 0.0
C343 C 0.3373 0.04012 0.3145 0.0
C344 C 0.34273 0.06047 0.29032 0.0
C345 C 0.36308 0.06521 0.25935 0.0
C346 C 0.37801 0.04923 0.25192 0.0
H347 H 0.97259 0.61106 0.72267 0.0
H348 H 0.95326 0.65899 0.9169 0.0
H349 H 0.9883 0.65861 0.98817 0.0
H350 H 0.00652 0.58246 0.88284 0.0
H351 H 0.02549 0.57686 0.79387 0.0
H352 H 0.99849 0.57976 0.76314 0.0
H353 H 0.0082 0.60836 0.64391 0.0
H354 H 0.03519 0.60551 0.67405 0.0
H355 H 0.02291 0.63063 0.68219 0.0
H356 H 0.02578 0.65455 1.03103 0.0
H357 H 0.06341 0.64798 1.04086 0.0
H358 H 0.05851 0.60254 0.81809 0.0
C359 C 0.97568 0.6213 0.78095 0.0
C360 C 0.9603 0.63504 0.81474 0.0
C361 C 0.96489 0.64836 0.89029 0.0
C362 C 0.98469 0.64818 0.93128 0.0
C363 C 0.9996 0.63455 0.89584 0.0
C364 C 0.99534 0.62134 0.82237 0.0
C365 C 0.01442 0.60903 0.79407 0.0
C366 C 0.01102 0.58564 0.80943 0.0
C367 C 0.02053 0.61367 0.69256 0.0
C368 C 0.03022 0.61766 0.86192 0.0
C369 C 0.02128 0.63221 0.92051 0.0
C370 C 0.03291 0.64306 0.98612 0.0
C371 C 0.05431 0.63923 0.99094 0.0
C372 C 0.06392 0.6247 0.93033 0.0
C373 C 0.05159 0.61352 0.86619 0.0
H374 H 0.64429 0.93911 0.20991 0.0
H375 H 0.57895 0.93312 0.14135 0.0
H376 H 0.57402 0.97077 0.16905 0.0
H377 H 0.63631 0.97447 0.39917 0.0
H378 H 0.6597 0.9891 0.37769 0.0
H379 H 0.65839 0.9621 0.34522 0.0
H380 H 0.66824 0.9717 0.1756 0.0
H381 H 0.66949 0.99876 0.20749 0.0
H382 H 0.65284 0.99055 0.11346 0.0
H383 H 0.57636 0.00912 0.20212 0.0
H384 H 0.58476 0.04466 0.25601 0.0
H385 H 0.64789 0.02519 0.31589 0.0
C386 C 0.62902 0.94583 0.1997 0.0
C387 C 0.61203 0.93337 0.17229 0.0
C388 C 0.59215 0.9425 0.16198 0.0
C389 C 0.58924 0.96385 0.17713 0.0
C390 C 0.6063 0.97576 0.20416 0.0
C391 C 0.62574 0.96704 0.21678 0.0
C392 C 0.64111 0.98299 0.2528 0.0
C393 C 0.64936 0.97679 0.34946 0.0
C394 C 0.65897 0.98618 0.18316 0.0
C395 C 0.6273 0.00204 0.25831 0.0
C396 C 0.60736 0.9976 0.22843 0.0
C397 C 0.59188 0.01276 0.22605 0.0
C398 C 0.59681 0.03289 0.25645 0.0
C399 C 0.61692 0.03758 0.29028 0.0
C400 C 0.63237 0.02197 0.29055 0.0
H401 H 0.94183 0.35493 0.80324 0.0
H402 H 0.94447 0.40035 1.02579 0.0
H403 H 0.98285 0.40084 1.0152 0.0
H404 H 0.99014 0.32677 0.86061 0.0
H405 H 0.99741 0.32347 0.74025 0.0
H406 H 0.97035 0.32491 0.77211 0.0
H407 H 0.96515 0.35537 0.65663 0.0
H408 H 0.99217 0.35407 0.62465 0.0
H409 H 0.98131 0.37815 0.6666 0.0
H410 H 0.02057 0.39734 0.97755 0.0
H411 H 0.05527 0.39195 0.90824 0.0
H412 H 0.02848 0.35051 0.70225 0.0
C413 C 0.95063 0.3646 0.8508 0.0
C414 C 0.94044 0.37733 0.91661 0.0
C415 C 0.95219 0.39033 0.97591 0.0
C416 C 0.97393 0.39067 0.97042 0.0
C417 C 0.98363 0.37812 0.90424 0.0
C418 C 0.9724 0.36542 0.84493 0.0
C419 C 0.98662 0.35478 0.77519 0.0
C420 C 0.98609 0.33107 0.78783 0.0
C421 C 0.98097 0.36097 0.67484 0.0
C422 C 0.0075 0.36369 0.80388 0.0
C423 C 0.00541 0.37685 0.87945 0.0
C424 C 0.02241 0.38705 0.91842 0.0
C425 C 0.04205 0.3839 0.8786 0.0
C426 C 0.04451 0.3709 0.79983 0.0
C427 C 0.02701 0.36056 0.76244 0.0
H428 H 0.36073 0.44043 0.19151 0.0
H429 H 0.38763 0.41804 0.93269 0.0
H430 H 0.38532 0.45301 0.86616 0.0
H431 H 0.32527 0.47943 0.0829 0.0
H432 H 0.32937 0.49835 0.1737 0.0
H433 H 0.33096 0.47101 0.19989 0.0
H434 H 0.36793 0.47638 0.26681 0.0
H435 H 0.36652 0.50368 0.24026 0.0
H436 H 0.38762 0.48824 0.19511 0.0
H437 H 0.38364 0.48965 0.8312 0.0
H438 H 0.38117 0.52762 0.82533 0.0
H439 H 0.35489 0.52846 0.10406 0.0
C440 C 0.3657 0.44295 0.12036 0.0
C441 C 0.37443 0.42662 0.0672 0.0
C442 C 0.3811 0.4304 0.97482 0.0
C443 C 0.37976 0.45019 0.93614 0.0
C444 C 0.37169 0.4661 0.99063 0.0
C445 C 0.36463 0.46287 0.08041 0.0
C446 C 0.35783 0.4833 0.12438 0.0
C447 C 0.33446 0.483 0.14651 0.0
C448 C 0.37075 0.48818 0.21182 0.0
C449 C 0.36268 0.49838 0.04581 0.0
C450 C 0.37054 0.48789 0.96952 0.0
C451 C 0.37725 0.49809 0.88982 0.0
C452 C 0.37588 0.51968 0.88746 0.0
C453 C 0.36779 0.53092 0.96406 0.0
C454 C 0.36095 0.52016 0.04428 0.0
H455 H 0.52956 0.64509 0.98343 0.0
H456 H 0.53556 0.59213 0.16839 0.0
H457 H 0.49871 0.58354 0.14382 0.0
H458 H 0.47883 0.66006 0.06229 0.0
H459 H 0.46953 0.66791 0.94926 0.0
H460 H 0.49685 0.66939 0.97574 0.0
H461 H 0.50515 0.64644 0.83212 0.0
H462 H 0.47785 0.64493 0.80512 0.0
H463 H 0.49276 0.62146 0.82027 0.0
H464 H 0.46168 0.58084 0.10377 0.0
H465 H 0.42543 0.58465 0.05405 0.0
H466 H 0.44187 0.6401 0.89767 0.0
C467 C 0.52308 0.63159 1.01773 0.0
C468 C 0.53537 0.61918 0.07742 0.0
C469 C 0.52639 0.60181 0.12238 0.0
C470 C 0.50549 0.59677 0.10871 0.0
C471 C 0.4937 0.60935 0.05037 0.0
C472 C 0.50203 0.62646 1.00575 0.0
C473 C 0.48543 0.63781 0.95026 0.0
C474 C 0.48249 0.66011 0.98659 0.0
C475 C 0.49061 0.63764 0.84573 0.0
C476 C 0.46657 0.62443 0.97126 0.0
C477 C 0.47185 0.60804 1.02858 0.0
C478 C 0.4573 0.59357 0.05867 0.0
C479 C 0.4367 0.59591 1.0298 0.0
C480 C 0.43068 0.61268 0.9717 0.0
C481 C 0.44592 0.6271 0.94194 0.0
H482 H 0.60075 0.55994 1.04183 0.0
H483 H 0.64023 0.56403 0.28628 0.0
H484 H 0.64387 0.52597 0.28771 0.0
H485 H 0.57505 0.51006 0.10411 0.0
H486 H 0.57507 0.50093 0.98537 0.0
H487 H 0.57343 0.52838 1.00948 0.0
H488 H 0.60572 0.5348 0.90566 0.0
H489 H 0.60751 0.50741 0.88159 0.0
H490 H 0.6295 0.521 0.92992 0.0
H491 H 0.64606 0.48806 0.2556 0.0
H492 H 0.64653 0.45246 0.19086 0.0
H493 H 0.60591 0.47224 0.96671 0.0
C494 C 0.60973 0.55275 0.09686 0.0
C495 C 0.62012 0.56497 0.16419 0.0
C496 C 0.63214 0.55502 0.23386 0.0
C497 C 0.63424 0.53337 0.23556 0.0
C498 C 0.62425 0.52178 0.1671 0.0
C499 C 0.61216 0.53105 0.09913 0.0
C500 C 0.6044 0.51501 1.02978 0.0
C501 C 0.58057 0.51351 1.03237 0.0
C502 C 0.61226 0.51985 0.93091 0.0
C503 C 0.61442 0.49545 0.06829 0.0
C504 C 0.62563 0.49972 0.14811 0.0
C505 C 0.63713 0.48445 0.19381 0.0
C506 C 0.63735 0.4643 0.1565 0.0
C507 C 0.62619 0.45962 0.0743 0.0
C508 C 0.61438 0.47536 1.03039 0.0
H509 H 0.47872 0.39021 0.09667 0.0
H510 H 0.46063 0.33599 0.93655 0.0
H511 H 0.49669 0.3324 0.8788 0.0
H512 H 0.51505 0.41102 0.92622 0.0
H513 H 0.53306 0.42003 1.01351 0.0
H514 H 0.50572 0.41861 1.03967 0.0
H515 H 0.51367 0.39529 0.1824 0.0
H516 H 0.54102 0.39664 0.15664 0.0
H517 H 0.52842 0.37173 0.16641 0.0
H518 H 0.5353 0.33388 0.84448 0.0
H519 H 0.57303 0.3408 0.83371 0.0
H520 H 0.56539 0.39452 1.01388 0.0
C521 C 0.48235 0.37767 0.04898 0.0
C522 C 0.46696 0.36336 1.02099 0.0
C523 C 0.47224 0.34713 0.95869 0.0
C524 C 0.49266 0.34497 0.92555 0.0
C525 C 0.50756 0.35926 0.95495 0.0
C526 C 0.50261 0.37537 1.0149 0.0
C527 C 0.52153 0.38846 1.03694 0.0
C528 C 0.51866 0.41086 1.00197 0.0
C529 C 0.52645 0.38799 0.14181 0.0
C530 C 0.53793 0.37707 0.98104 0.0
C531 C 0.52961 0.36028 0.93413 0.0
C532 C 0.54196 0.34708 0.88036 0.0
C533 C 0.56339 0.35112 0.87476 0.0
C534 C 0.57224 0.36826 0.92244 0.0
C535 C 0.55918 0.38141 0.97565 0.0
H536 H 0.89904 0.47954 0.88814 0.0
H537 H 0.85812 0.45565 0.6732 0.0
H538 H 0.85607 0.49062 0.60305 0.0
H539 H 0.87315 0.52746 0.91976 0.0
H540 H 0.89636 0.54258 0.93819 0.0
H541 H 0.8961 0.51539 0.96729 0.0
H542 H 0.92799 0.50923 0.86063 0.0
H543 H 0.92836 0.53646 0.83124 0.0
H544 H 0.9269 0.51717 0.74033 0.0
H545 H 0.85622 0.52826 0.56341 0.0
H546 H 0.85872 0.56637 0.55477 0.0
H547 H 0.89994 0.56655 0.79412 0.0
C548 C 0.8899 0.48166 0.82552 0.0
C549 C 0.87879 0.46491 0.78565 0.0
C550 C 0.86679 0.46827 0.70451 0.0
C551 C 0.86557 0.48806 0.66417 0.0
C552 C 0.87648 0.50433 0.70572 0.0
C553 C 0.88849 0.50138 0.78437 0.0
C554 C 0.89784 0.52176 0.8175 0.0
C555 C 0.89041 0.52711 0.91655 0.0
C556 C 0.92169 0.52111 0.81207 0.0
C557 C 0.88888 0.53668 0.74621 0.0
C558 C 0.87669 0.5262 0.68223 0.0
C559 C 0.86588 0.5366 0.61248 0.0
C560 C 0.86735 0.55829 0.60845 0.0
C561 C 0.87958 0.56946 0.67355 0.0
C562 C 0.89073 0.55842 0.74254 0.0
H563 H 0.55904 0.10113 0.33093 0.0
H564 H 0.5634 0.15304 0.52348 0.0
H565 H 0.52526 0.15716 0.51802 0.0
H566 H 0.51938 0.12297 0.18845 0.0
H567 H 0.50648 0.09856 0.16753 0.0
H568 H 0.53397 0.09906 0.19044 0.0
H569 H 0.52882 0.07336 0.32728 0.0
H570 H 0.50127 0.07283 0.30506 0.0
H571 H 0.51078 0.07972 0.41907 0.0
H572 H 0.48665 0.15604 0.48938 0.0
H573 H 0.45071 0.15099 0.43291 0.0
H574 H 0.47158 0.10024 0.25711 0.0
C575 C 0.552 0.11328 0.37263 0.0
C576 C 0.56427 0.12671 0.42802 0.0
C577 C 0.55439 0.14256 0.48044 0.0
C578 C 0.53271 0.14497 0.47812 0.0
C579 C 0.52111 0.13146 0.4228 0.0
C580 C 0.53041 0.116 0.3706 0.0
C581 C 0.51451 0.10411 0.31378 0.0
C582 C 0.51885 0.10632 0.20884 0.0
C583 C 0.51381 0.08114 0.34308 0.0
C584 C 0.49479 0.11539 0.34164 0.0
C585 C 0.49892 0.13101 0.40522 0.0
C586 C 0.48324 0.14382 0.43983 0.0
C587 C 0.46289 0.14083 0.40746 0.0
C588 C 0.45842 0.12522 0.34087 0.0
C589 C 0.47456 0.1122 0.30854 0.0
H590 H 0.1524 0.53111 0.76583 0.0
H591 H 0.08631 0.54281 0.79406 0.0
H592 H 0.07873 0.5077 0.73503 0.0
H593 H 0.14921 0.497 0.55527 0.0
H594 H 0.16924 0.47976 0.59692 0.0
H595 H 0.1697 0.50688 0.62851 0.0
H596 H 0.17062 0.49681 0.80313 0.0
H597 H 0.17012 0.46972 0.77214 0.0
H598 H 0.15064 0.48013 0.84944 0.0
H599 H 0.07798 0.47094 0.68995 0.0
H600 H 0.08406 0.43369 0.66352 0.0
H601 H 0.15069 0.44437 0.66566 0.0
C602 C 0.13638 0.52636 0.75722 0.0
C603 C 0.1199 0.53962 0.78363 0.0
C604 C 0.09912 0.53283 0.77393 0.0
C605 C 0.09465 0.51297 0.74004 0.0
C606 C 0.11116 0.50003 0.71646 0.0
C607 C 0.13162 0.50634 0.72448 0.0
C608 C 0.14634 0.48852 0.70262 0.0
C609 C 0.15939 0.49333 0.61564 0.0
C610 C 0.16024 0.48351 0.78686 0.0
C611 C 0.1309 0.47118 0.68381 0.0
C612 C 0.11072 0.47834 0.69101 0.0
C613 C 0.09369 0.46516 0.6828 0.0
C614 C 0.09733 0.44399 0.6682 0.0
C615 C 0.11784 0.43613 0.6621 0.0
C616 C 0.13484 0.45 0.66836 0.0
H617 H 0.53014 0.84809 0.31535 0.0
H618 H 0.53166 0.89772 0.11057 0.0
H619 H 0.4952 0.90589 0.14365 0.0
H620 H 0.47817 0.83091 0.2592 0.0
H621 H 0.47089 0.82512 0.37761 0.0
H622 H 0.49772 0.8234 0.3426 0.0
H623 H 0.50795 0.849 0.47409 0.0
H624 H 0.48114 0.8508 0.50944 0.0
H625 H 0.49541 0.87401 0.48063 0.0
H626 H 0.45954 0.90909 0.19453 0.0
H627 H 0.42434 0.90622 0.25627 0.0
H628 H 0.44332 0.85368 0.42697 0.0
C629 C 0.52272 0.86071 0.27821 0.0
C630 C 0.53369 0.87233 0.21056 0.0
C631 C 0.52353 0.8886 0.16247 0.0
C632 C 0.50283 0.89344 0.18095 0.0
C633 C 0.49237 0.88176 0.24731 0.0
C634 C 0.50174 0.86564 0.29502 0.0
C635 C 0.48624 0.85522 0.36002 0.0
C636 C 0.48307 0.8323 0.33322 0.0
C637 C 0.4931 0.85739 0.46211 0.0
C638 C 0.46683 0.86802 0.34049 0.0
C639 C 0.47101 0.88332 0.2758 0.0
C640 C 0.45599 0.8972 0.24535 0.0
C641 C 0.43597 0.89541 0.2813 0.0
C642 C 0.43094 0.87972 0.34687 0.0
C643 C 0.44666 0.86584 0.37711 0.0
H644 H 0.85638 0.94681 0.70311 0.0
H645 H 0.92321 0.93762 0.6954 0.0
H646 H 0.92822 0.97506 0.66941 0.0
H647 H 0.85428 0.98281 0.52157 0.0
H648 H 0.83422 0.99893 0.57135 0.0
H649 H 0.83565 0.97182 0.60132 0.0
H650 H 0.83762 0.98137 0.77634 0.0
H651 H 0.83609 0.00856 0.74695 0.0
H652 H 0.85742 0.99907 0.81626 0.0
H653 H 0.92624 0.01221 0.62681 0.0
H654 H 0.91729 0.04753 0.57381 0.0
H655 H 0.8518 0.03393 0.61089 0.0
C656 C 0.87207 0.95278 0.69842 0.0
C657 C 0.88942 0.93924 0.70177 0.0
C658 C 0.90968 0.94762 0.69308 0.0
C659 C 0.91271 0.96891 0.67859 0.0
C660 C 0.89533 0.98175 0.6732 0.0
C661 C 0.8754 0.97411 0.68344 0.0
C662 C 0.85943 0.99118 0.66792 0.0
C663 C 0.84505 0.98586 0.58564 0.0
C664 C 0.8469 0.99529 0.7572 0.0
C665 C 0.87353 0.00941 0.64501 0.0
C666 C 0.89418 0.00356 0.6492 0.0
C667 C 0.91015 0.0171 0.62482 0.0
C668 C 0.90491 0.0371 0.59453 0.0
C669 C 0.88391 0.04347 0.58924 0.0
C670 C 0.86801 0.02954 0.61612 0.0
H671 H 0.02578 0.11481 0.61897 0.0
H672 H 0.04356 0.16716 0.44661 0.0
H673 H 0.00725 0.17037 0.39115 0.0
H674 H 0.98883 0.09241 0.45581 0.0
H675 H 0.97114 0.08435 0.54616 0.0
H676 H 0.99858 0.08597 0.56991 0.0
H677 H 0.99119 0.11076 0.70847 0.0
H678 H 0.96376 0.10923 0.68505 0.0
H679 H 0.97644 0.13418 0.68893 0.0
H680 H 0.96844 0.16869 0.36048 0.0
H681 H 0.93069 0.16165 0.35349 0.0
H682 H 0.93888 0.10981 0.54342 0.0
C683 C 0.02203 0.12687 0.56917 0.0
C684 C 0.03739 0.14078 0.53709 0.0
C685 C 0.03196 0.15636 0.47196 0.0
C686 C 0.0114 0.15829 0.44013 0.0
C687 C 0.99655 0.14441 0.47368 0.0
C688 C 0.00166 0.12892 0.53633 0.0
C689 C 0.98282 0.11611 0.56242 0.0
C690 C 0.98551 0.09336 0.53171 0.0
C691 C 0.97829 0.11768 0.66743 0.0
C692 C 0.96624 0.12695 0.50561 0.0
C693 C 0.97442 0.14323 0.45485 0.0
C694 C 0.9619 0.15587 0.39942 0.0
C695 C 0.94046 0.15178 0.39602 0.0
C696 C 0.93178 0.13512 0.4475 0.0
C697 C 0.94498 0.12255 0.50244 0.0
H698 H 0.13568 0.96878 0.60512 0.0
H699 H 0.12897 0.9736 0.30522 0.0
H700 H 0.12167 0.01105 0.32018 0.0
H701 H 0.09683 0.00594 0.67096 0.0
H702 H 0.1117 0.01724 0.76454 0.0
H703 H 0.11583 0.9905 0.73202 0.0
H704 H 0.15501 0.99778 0.70658 0.0
H705 H 0.15105 0.02447 0.74011 0.0
H706 H 0.1628 0.01843 0.62936 0.0
H707 H 0.11274 0.04707 0.36701 0.0
H708 H 0.10883 0.08152 0.44062 0.0
H709 H 0.12514 0.05503 0.7086 0.0
C710 C 0.13279 0.97783 0.5429 0.0
C711 C 0.13277 0.9684 0.45405 0.0
C712 C 0.12913 0.98062 0.37385 0.0
C713 C 0.12482 0.00185 0.38164 0.0
C714 C 0.12468 0.01071 0.47004 0.0
C715 C 0.12909 0.9993 0.54916 0.0
C716 C 0.12916 0.01311 0.63493 0.0
C717 C 0.11238 0.00629 0.70472 0.0
C718 C 0.15079 0.01347 0.68041 0.0
C719 C 0.12385 0.03394 0.59148 0.0
C720 C 0.12092 0.03204 0.49652 0.0
C721 C 0.11518 0.04884 0.44117 0.0
C722 C 0.11281 0.06828 0.48365 0.0
C723 C 0.11663 0.07081 0.58001 0.0
C724 C 0.12216 0.05342 0.6347 0.0
H725 H 0.06251 0.89984 0.53461 0.0
H726 H 0.06148 0.86271 0.28212 0.0
H727 H 0.02392 0.85695 0.30152 0.0
H728 H 0.02859 0.86829 0.66192 0.0
H729 H 0.01538 0.88915 0.72137 0.0
H730 H 0.04176 0.89257 0.68278 0.0
H731 H 0.03097 0.92521 0.58897 0.0
H732 H 0.00456 0.92203 0.62811 0.0
H733 H 0.01017 0.92337 0.50526 0.0
H734 H 0.98734 0.85259 0.35413 0.0
H735 H 0.95344 0.85111 0.43529 0.0
H736 H 0.9779 0.89067 0.65418 0.0
C737 C 0.05422 0.89099 0.48228 0.0
C738 C 0.06484 0.88179 0.40672 0.0
C739 C 0.05362 0.86986 0.3407 0.0
C740 C 0.03228 0.86653 0.3509 0.0
C741 C 0.02233 0.87524 0.42753 0.0
C742 C 0.03283 0.88735 0.49182 0.0
C743 C 0.0186 0.89378 0.57087 0.0
C744 C 0.02656 0.88544 0.66476 0.0
C745 C 0.01592 0.91751 0.57341 0.0
C746 C 0.99866 0.88305 0.54165 0.0
C747 C 0.00113 0.87256 0.45845 0.0
C748 C 0.98512 0.86091 0.41893 0.0
C749 C 0.96599 0.86006 0.46556 0.0
C750 C 0.96315 0.87074 0.55067 0.0
C751 C 0.97968 0.8824 0.58892 0.0
H752 H 0.35481 0.20177 0.16314 0.0
H753 H 0.42086 0.18776 0.16275 0.0
H754 H 0.4288 0.2251 0.15621 0.0
H755 H 0.35733 0.24638 1.00691 0.0
H756 H 0.33789 0.26092 0.06969 0.0
H757 H 0.33718 0.23293 0.06982 0.0
H758 H 0.33766 0.23302 0.25028 0.0
H759 H 0.33853 0.261 0.25071 0.0
H760 H 0.35828 0.24635 0.31076 0.0
H761 H 0.42994 0.26334 0.15271 0.0
H762 H 0.42432 0.30106 0.15243 0.0
H763 H 0.3575 0.29126 0.15914 0.0
C764 C 0.37092 0.20659 0.1605 0.0
C765 C 0.38722 0.19185 0.1633 0.0
C766 C 0.40812 0.19875 0.1611 0.0
C767 C 0.4128 0.21993 0.15717 0.0
C768 C 0.39644 0.23405 0.15596 0.0
C769 C 0.37592 0.22777 0.15753 0.0
C770 C 0.36139 0.24635 0.1586 0.0
C771 C 0.34764 0.24666 0.07103 0.0
C772 C 0.34819 0.24669 0.24791 0.0
C773 C 0.37701 0.26399 0.15765 0.0
C774 C 0.39711 0.25643 0.15567 0.0
C775 C 0.41429 0.2695 0.1541 0.0
C776 C 0.41089 0.29094 0.15391 0.0
C777 C 0.39045 0.29918 0.15579 0.0
C778 C 0.3733 0.28546 0.15822 0.0
H779 H 0.29304 0.59235 0.92498 0.0
H780 H 0.30392 0.65884 0.90393 0.0
H781 H 0.26627 0.66502 0.90375 0.0
H782 H 0.24795 0.59138 0.77324 0.0
H783 H 0.23429 0.57203 0.84012 0.0
H784 H 0.26229 0.5724 0.8395 0.0
H785 H 0.26259 0.57475 1.01957 0.0
H786 H 0.2346 0.57434 1.02081 0.0
H787 H 0.24839 0.59531 0.07654 0.0
H788 H 0.22837 0.66461 0.90954 0.0
H789 H 0.19099 0.65779 0.91759 0.0
H790 H 0.2029 0.59137 0.92955 0.0
C791 C 0.28747 0.6082 0.92062 0.0
C792 C 0.30149 0.62513 0.91455 0.0
C793 C 0.29357 0.64561 0.90821 0.0
C794 C 0.27218 0.64931 0.90818 0.0
C795 C 0.25883 0.63236 0.91379 0.0
C796 C 0.26602 0.6122 0.91951 0.0
C797 C 0.24802 0.59691 0.92398 0.0
C798 C 0.24815 0.58232 0.83914 0.0
C799 C 0.24843 0.5846 1.01569 0.0
C800 C 0.22965 0.61174 0.9207 0.0
C801 C 0.23645 0.63208 0.91513 0.0
C802 C 0.22281 0.64878 0.91368 0.0
C803 C 0.20157 0.64469 0.91876 0.0
C804 C 0.19401 0.62404 0.92474 0.0
C805 C 0.20825 0.60728 0.92452 0.0
H806 H 0.59416 0.79379 0.14257 0.0
H807 H 0.65876 0.80567 0.07217 0.0
H808 H 0.66497 0.76813 0.05878 0.0
H809 H 0.60329 0.74852 0.28116 0.0
H810 H 0.58054 0.73479 0.24153 0.0
H811 H 0.58072 0.76277 0.24309 0.0
H812 H 0.5713 0.76333 0.06772 0.0
H813 H 0.57116 0.73533 0.06555 0.0
H814 H 0.58746 0.74953 0.98579 0.0
H815 H 0.6651 0.72975 0.06089 0.0
H816 H 0.65891 0.69214 0.07592 0.0
H817 H 0.59401 0.70391 0.13887 0.0
C818 C 0.60959 0.78849 0.12404 0.0
C819 C 0.62596 0.80281 0.10849 0.0
C820 C 0.64591 0.79516 0.08428 0.0
C821 C 0.64963 0.7738 0.07638 0.0
C822 C 0.63323 0.76016 0.09215 0.0
C823 C 0.61358 0.76711 0.11511 0.0
C824 C 0.59886 0.74892 0.12969 0.0
C825 C 0.59036 0.74875 0.22982 0.0
C826 C 0.58115 0.74931 0.05789 0.0
C827 C 0.61344 0.73073 0.11258 0.0
C828 C 0.63318 0.73769 0.09108 0.0
C829 C 0.64967 0.72408 0.07676 0.0
C830 C 0.64601 0.70275 0.08568 0.0
C831 C 0.62598 0.69514 0.1079 0.0
C832 C 0.60939 0.70931 0.1202 0.0
H833 H 0.80172 0.35746 0.93792 0.0
H834 H 0.81242 0.42372 0.96901 0.0
H835 H 0.77468 0.42979 0.97396 0.0
H836 H 0.75788 0.36241 0.78548 0.0
H837 H 0.74384 0.34072 0.8337 0.0
H838 H 0.77181 0.34112 0.83805 0.0
H839 H 0.77063 0.3364 1.01713 0.0
H840 H 0.74265 0.33591 1.01327 0.0
H841 H 0.75581 0.35438 0.08699 0.0
H842 H 0.73618 0.42911 0.97399 0.0
H843 H 0.69874 0.42187 0.96401 0.0
H844 H 0.712 0.35616 0.92663 0.0
C845 C 0.79608 0.3732 0.94684 0.0
C846 C 0.81005 0.39012 0.95336 0.0
C847 C 0.80206 0.41052 0.96347 0.0
C848 C 0.78062 0.41414 0.96669 0.0
C849 C 0.76727 0.39723 0.95895 0.0
C850 C 0.77459 0.37716 0.94886 0.0
C851 C 0.75669 0.36195 0.93814 0.0
C852 C 0.75762 0.35091 0.84319 0.0
C853 C 0.75644 0.34623 1.01869 0.0
C854 C 0.73825 0.37667 0.94361 0.0
C855 C 0.7448 0.3969 0.9564 0.0
C856 C 0.73082 0.41333 0.96399 0.0
C857 C 0.70954 0.40901 0.95831 0.0
C858 C 0.70231 0.38844 0.94437 0.0
C859 C 0.71696 0.37207 0.93685 0.0
H860 H 0.90602 0.70909 0.67321 0.0
H861 H 0.83944 0.69812 0.66336 0.0
H862 H 0.83305 0.73562 0.6723 0.0
H863 H 0.90442 0.75284 0.83289 0.0
H864 H 0.92461 0.76724 0.77464 0.0
H865 H 0.92443 0.73926 0.76933 0.0
H866 H 0.92472 0.74083 0.58912 0.0
H867 H 0.92491 0.76881 0.5939 0.0
H868 H 0.90491 0.75549 0.52938 0.0
H869 H 0.83318 0.77373 0.68556 0.0
H870 H 0.83997 0.81123 0.6942 0.0
H871 H 0.90642 0.7993 0.68859 0.0
C872 C 0.89013 0.71463 0.67322 0.0
C873 C 0.87325 0.70054 0.66739 0.0
C874 C 0.85268 0.70847 0.66692 0.0
C875 C 0.84883 0.72981 0.67239 0.0
C876 C 0.86569 0.74325 0.67754 0.0
C877 C 0.88595 0.73612 0.6773 0.0
C878 C 0.90109 0.75428 0.68104 0.0
C879 C 0.91443 0.75334 0.76977 0.0
C880 C 0.91471 0.75488 0.59312 0.0
C881 C 0.88609 0.77257 0.68386 0.0
C882 C 0.86577 0.76569 0.68249 0.0
C883 C 0.84903 0.77935 0.68636 0.0
C884 C 0.85307 0.80068 0.69159 0.0
C885 C 0.87372 0.80832 0.69206 0.0
C886 C 0.89046 0.79399 0.68779 0.0
H887 H 0.79212 0.14594 0.44632 0.0
H888 H 0.80648 0.08006 0.45956 0.0
H889 H 0.76909 0.07191 0.45958 0.0
H890 H 0.74767 0.14369 0.60034 0.0
H891 H 0.73295 0.16287 0.53695 0.0
H892 H 0.76093 0.16372 0.5359 0.0
H893 H 0.76075 0.1626 0.35551 0.0
H894 H 0.73277 0.16178 0.35603 0.0
H895 H 0.74731 0.14182 0.29659 0.0
H896 H 0.73042 0.07061 0.45301 0.0
H897 H 0.69254 0.07634 0.44867 0.0
H898 H 0.7026 0.14305 0.44827 0.0
C899 C 0.78738 0.12981 0.44888 0.0
C900 C 0.80227 0.11363 0.45269 0.0
C901 C 0.79541 0.09273 0.457 0.0
C902 C 0.77418 0.08792 0.45679 0.0
C903 C 0.75993 0.10418 0.4533 0.0
C904 C 0.76616 0.12471 0.45016 0.0
C905 C 0.74751 0.13917 0.4489 0.0
C906 C 0.74726 0.15319 0.5357 0.0
C907 C 0.74707 0.1521 0.3589 0.0
C908 C 0.72988 0.12353 0.4512 0.0
C909 C 0.73745 0.10344 0.45298 0.0
C910 C 0.72429 0.08627 0.45227 0.0
C911 C 0.70279 0.08969 0.44955 0.0
C912 C 0.6946 0.11012 0.44869 0.0
C913 C 0.70839 0.12725 0.45009 0.0
H914 H 0.10124 0.29659 0.66501 0.0
H915 H 0.16771 0.30752 0.68105 0.0
H916 H 0.17386 0.26972 0.68808 0.0
H917 H 0.09941 0.2519 0.81825 0.0
H918 H 0.08021 0.23843 0.74963 0.0
H919 H 0.08087 0.26642 0.7502 0.0
H920 H 0.08398 0.26654 0.57023 0.0
H921 H 0.08335 0.23857 0.56911 0.0
H922 H 0.10468 0.25216 0.51525 0.0
H923 H 0.17291 0.23104 0.69446 0.0
H924 H 0.16516 0.19359 0.69029 0.0
H925 H 0.09937 0.20738 0.6622 0.0
C926 C 0.11706 0.29101 0.67084 0.0
C927 C 0.134 0.30497 0.67307 0.0
C928 C 0.15451 0.29709 0.67912 0.0
C929 C 0.15816 0.27566 0.68348 0.0
C930 C 0.14115 0.26231 0.6807 0.0
C931 C 0.12102 0.26962 0.67379 0.0
C932 C 0.10561 0.25185 0.668 0.0
C933 C 0.09065 0.25217 0.75151 0.0
C934 C 0.09371 0.25232 0.57511 0.0
C935 C 0.12026 0.23344 0.67275 0.0
C936 C 0.14066 0.23987 0.68102 0.0
C937 C 0.15701 0.22579 0.68778 0.0
C938 C 0.15242 0.20454 0.68558 0.0
C939 C 0.13166 0.19753 0.67567 0.0
C940 C 0.1154 0.21224 0.6692 0.0
H941 H 0.29501 0.90229 0.40473 0.0
H942 H 0.30285 0.83747 0.48219 0.0
H943 H 0.26489 0.83328 0.48731 0.0
H944 H 0.24902 0.91198 0.54932 0.0
H945 H 0.2369 0.92861 0.4642 0.0
H946 H 0.26483 0.92705 0.47074 0.0
H947 H 0.26638 0.91694 0.29625 0.0
H948 H 0.23848 0.91843 0.28913 0.0
H949 H 0.25169 0.89489 0.25547 0.0
H950 H 0.2268 0.83507 0.47395 0.0
H951 H 0.18991 0.84295 0.44764 0.0
H952 H 0.2055 0.90699 0.38363 0.0
C953 C 0.28876 0.88725 0.42359 0.0
C954 C 0.302 0.87019 0.44301 0.0
C955 C 0.29313 0.85078 0.46707 0.0
C956 C 0.27155 0.84824 0.47029 0.0
C957 C 0.25899 0.86526 0.44996 0.0
C958 C 0.26717 0.88444 0.42761 0.0
C959 C 0.25001 0.89998 0.40638 0.0
C960 C 0.25021 0.91797 0.47689 0.0
C961 C 0.25175 0.90803 0.30583 0.0
C962 C 0.23094 0.88639 0.41885 0.0
C963 C 0.23663 0.86643 0.44401 0.0
C964 C 0.22212 0.85066 0.45513 0.0
C965 C 0.20121 0.85529 0.43952 0.0
C966 C 0.19488 0.87557 0.41362 0.0
C967 C 0.20992 0.89143 0.40443 0.0
H968 H 0.19968 0.14532 0.9024 0.0
H969 H 0.20924 0.093 0.71629 0.0
H970 H 0.2451 0.08919 0.77432 0.0
H971 H 0.25052 0.16723 0.87735 0.0
H972 H 0.25289 0.17504 0.99749 0.0
H973 H 0.2276 0.17341 0.94416 0.0
H974 H 0.2154 0.14818 0.07356 0.0
H975 H 0.2406 0.14985 0.12771 0.0
H976 H 0.23011 0.12486 0.096 0.0
H977 H 0.27988 0.09156 0.84705 0.0
H978 H 0.31166 0.09891 0.93673 0.0
H979 H 0.2803 0.14968 0.07803 0.0
C980 C 0.20931 0.13297 0.87469 0.0
C981 C 0.20175 0.11941 0.805 0.0
C982 C 0.21476 0.10351 0.7698 0.0
C983 C 0.23514 0.10125 0.80218 0.0
C984 C 0.24227 0.11501 0.86987 0.0
C985 C 0.22979 0.13049 0.90634 0.0
C986 C 0.24151 0.14326 0.97809 0.0
C987 C 0.24323 0.16609 0.9474 0.0
C988 C 0.2313 0.14142 0.07456 0.0
C989 C 0.26253 0.13256 0.97582 0.0
C990 C 0.26254 0.11634 0.91261 0.0
C991 C 0.28007 0.10416 0.89706 0.0
C992 C 0.29804 0.10848 0.94824 0.0
C993 C 0.29839 0.12482 1.01429 0.0
C994 C 0.28043 0.13711 1.02786 0.0
H995 H 0.14522 0.705 0.12736 0.0
H996 H 0.09974 0.71339 0.90748 0.0
H997 H 0.09511 0.75005 0.95487 0.0
H998 H 0.11943 0.73629 0.29801 0.0
H999 H 0.1431 0.74685 0.34561 0.0
H1000 H 0.14318 0.72145 0.29287 0.0
H1001 H 0.17254 0.73299 0.18065 0.0
H1002 H 0.17256 0.75843 0.23309 0.0
H1003 H 0.16888 0.75573 0.10921 0.0
H1004 H 0.09519 0.78542 1.02684 0.0
H1005 H 0.09969 0.81737 0.12011 0.0
H1006 H 0.14505 0.78588 0.29349 0.0
C1007 C 0.13435 0.71461 0.0891 0.0
C1008 C 0.12285 0.70654 1.0138 0.0
C1009 C 0.1087 0.71941 0.96538 0.0
C1010 C 0.10598 0.7402 0.9917 0.0
C1011 C 0.11754 0.74773 0.06646 0.0
C1012 C 0.13144 0.73536 0.11454 0.0
C1013 C 0.14171 0.74719 0.19316 0.0
C1014 C 0.13653 0.73736 0.28801 0.0
C1015 C 0.16532 0.74867 0.17807 0.0
C1016 C 0.13134 0.76813 0.18201 0.0
C1017 C 0.1175 0.76812 0.10835 0.0
C1018 C 0.10597 0.78564 0.08466 0.0
C1019 C 0.10861 0.80367 0.13798 0.0
C1020 C 0.12268 0.80396 0.2137 0.0
C1021 C 0.1342 0.786 0.23581 0.0
H1022 H 0.71733 0.86264 0.08011 0.0
H1023 H 0.68376 0.89651 0.86638 0.0
H1024 H 0.71666 0.90359 0.78465 0.0
H1025 H 0.7634 0.89536 0.08335 0.0
H1026 H 0.78122 0.87398 0.09777 0.0
H1027 H 0.75513 0.8721 0.14264 0.0
H1028 H 0.74932 0.83831 0.04793 0.0
H1029 H 0.77541 0.84004 1.00324 0.0
H1030 H 0.75376 0.83843 0.92393 0.0
H1031 H 0.75257 0.90691 0.72515 0.0
H1032 H 0.78976 0.90448 0.68538 0.0
H1033 H 0.80071 0.86777 0.93407 0.0
C1034 C 0.717 0.8716 1.01631 0.0
C1035 C 0.69808 0.87912 0.97956 0.0
C1036 C 0.69812 0.89063 0.89562 0.0
C1037 C 0.71672 0.8948 0.84887 0.0
C1038 C 0.73514 0.88725 0.88671 0.0
C1039 C 0.7355 0.87577 0.96805 0.0
C1040 C 0.75745 0.86883 0.9911 0.0
C1041 C 0.76473 0.87813 0.08425 0.0
C1042 C 0.75908 0.84499 0.99154 0.0
C1043 C 0.76926 0.87815 0.90978 0.0
C1044 C 0.75604 0.88885 0.85103 0.0
C1045 C 0.76311 0.89861 0.77055 0.0
C1046 C 0.78425 0.89716 0.74864 0.0
C1047 C 0.79802 0.88596 0.80668 0.0
C1048 C 0.79047 0.8765 0.88876 0.0
H1049 H 0.85557 0.28496 1.02472 0.0
H1050 H 0.89041 0.31977 0.23125 0.0
H1051 H 0.89048 0.28922 0.33479 0.0
H1052 H 0.82372 0.25554 0.18701 0.0
H1053 H 0.82464 0.23186 0.1199 0.0
H1054 H 0.82661 0.25664 0.0622 0.0
H1055 H 0.86138 0.24521 0.98702 0.0
H1056 H 0.85948 0.22041 0.04442 0.0
H1057 H 0.88228 0.23628 0.06043 0.0
H1058 H 0.88717 0.25539 0.41556 0.0
H1059 H 0.88185 0.21937 0.46791 0.0
H1060 H 0.8499 0.20517 0.20931 0.0
C1061 C 0.86312 0.28609 0.09193 0.0
C1062 C 0.87299 0.30471 0.12022 0.0
C1063 C 0.88284 0.30563 0.2082 0.0
C1064 C 0.8829 0.28839 0.2676 0.0
C1065 C 0.87316 0.27024 0.23781 0.0
C1066 C 0.86354 0.26885 0.15198 0.0
C1067 C 0.85479 0.24716 0.13653 0.0
C1068 C 0.83103 0.24785 0.12579 0.0
C1069 C 0.8651 0.23665 0.05209 0.0
C1070 C 0.86106 0.23665 0.227 0.0
C1071 C 0.87152 0.25038 0.28437 0.0
C1072 C 0.87899 0.24449 0.37136 0.0
C1073 C 0.87587 0.22398 0.40049 0.0
C1074 C 0.86545 0.20949 0.34283 0.0
C1075 C 0.85786 0.21595 0.25497 0.0
H1076 H 0.30453 0.37943 0.39596 0.0
H1077 H 0.28984 0.33752 0.16818 0.0
H1078 H 0.25344 0.33614 0.21992 0.0
H1079 H 0.27051 0.3544 0.56609 0.0
H1080 H 0.2628 0.37842 0.62071 0.0
H1081 H 0.28797 0.3763 0.56646 0.0
H1082 H 0.27963 0.40829 0.46375 0.0
H1083 H 0.2544 0.41045 0.51736 0.0
H1084 H 0.25655 0.40821 0.39256 0.0
H1085 H 0.2187 0.34021 0.28926 0.0
H1086 H 0.18726 0.34749 0.38115 0.0
H1087 H 0.22343 0.38551 0.57124 0.0
C1088 C 0.29361 0.36994 0.3575 0.0
C1089 C 0.29998 0.35863 0.27781 0.0
C1090 C 0.28532 0.3463 0.22934 0.0
C1091 C 0.26458 0.34544 0.25804 0.0
C1092 C 0.2587 0.35684 0.33607 0.0
C1093 C 0.27272 0.36869 0.38601 0.0
C1094 C 0.26207 0.37915 0.46827 0.0
C1095 C 0.27139 0.37161 0.56087 0.0
C1096 C 0.26323 0.40294 0.45994 0.0
C1097 C 0.23991 0.37141 0.45585 0.0
C1098 C 0.23843 0.35868 0.37857 0.0
C1099 C 0.21965 0.35001 0.35041 0.0
C1100 C 0.20186 0.35429 0.40299 0.0
C1101 C 0.20293 0.36696 0.48347 0.0
C1102 C 0.22222 0.37566 0.51028 0.0
H1103 H 0.38638 0.71464 0.82321 0.0
H1104 H 0.35345 0.67865 0.61433 0.0
H1105 H 0.35096 0.70965 0.5144 0.0
H1106 H 0.35669 0.76117 0.79635 0.0
H1107 H 0.37833 0.7786 0.81183 0.0
H1108 H 0.37865 0.75337 0.86598 0.0
H1109 H 0.41365 0.74497 0.78505 0.0
H1110 H 0.41346 0.77021 0.73089 0.0
H1111 H 0.41567 0.74716 0.66018 0.0
H1112 H 0.35042 0.74422 0.44047 0.0
H1113 H 0.35237 0.781 0.39394 0.0
H1114 H 0.38577 0.79545 0.64854 0.0
C1115 C 0.37885 0.71333 0.75601 0.0
C1116 C 0.37009 0.69432 0.7262 0.0
C1117 C 0.36019 0.69312 0.63838 0.0
C1118 C 0.35874 0.71061 0.58109 0.0
C1119 C 0.36726 0.72919 0.61267 0.0
C1120 C 0.37717 0.73075 0.6978 0.0
C1121 C 0.38441 0.75286 0.71551 0.0
C1122 C 0.37389 0.76204 0.80257 0.0
C1123 C 0.40821 0.75385 0.72334 0.0
C1124 C 0.37681 0.76343 0.62741 0.0
C1125 C 0.36702 0.7494 0.56923 0.0
C1126 C 0.35817 0.75536 0.48499 0.0
C1127 C 0.35932 0.77628 0.4593 0.0
C1128 C 0.36928 0.79097 0.5175 0.0
C1129 C 0.37821 0.78446 0.60251 0.0
H1130 H 0.70163 0.64794 0.37877 0.0
H1131 H 0.71269 0.60006 0.17136 0.0
H1132 H 0.74849 0.59578 0.22878 0.0
H1133 H 0.75266 0.67115 0.36836 0.0
H1134 H 0.75419 0.67606 0.4918 0.0
H1135 H 0.72927 0.67554 0.43469 0.0
H1136 H 0.71658 0.64733 0.55008 0.0
H1137 H 0.74145 0.64777 0.60761 0.0
H1138 H 0.7313 0.62366 0.56271 0.0
H1139 H 0.78272 0.59659 0.30592 0.0
H1140 H 0.814 0.60214 0.40161 0.0
H1141 H 0.7815 0.64939 0.56116 0.0
C1142 C 0.71166 0.63662 0.3456 0.0
C1143 C 0.70451 0.62435 0.27057 0.0
C1144 C 0.71793 0.6096 0.22894 0.0
C1145 C 0.73828 0.60706 0.26096 0.0
C1146 C 0.74492 0.61935 0.33488 0.0
C1147 C 0.7321 0.63381 0.37703 0.0
C1148 C 0.74326 0.64486 0.45582 0.0
C1149 C 0.74495 0.66829 0.43646 0.0
C1150 C 0.73251 0.64065 0.54961 0.0
C1151 C 0.76435 0.63436 0.4508 0.0
C1152 C 0.76488 0.61972 0.38038 0.0
C1153 C 0.78254 0.60798 0.36139 0.0
C1154 C 0.80022 0.61126 0.41602 0.0
C1155 C 0.8001 0.62619 0.4884 0.0
C1156 C 0.78194 0.63788 0.50611 0.0
H1157 H 0.62474 0.19913 0.67973 0.0
H1158 H 0.66479 0.20959 0.44117 0.0
H1159 H 0.67114 0.24551 0.49426 0.0
H1160 H 0.6012 0.24953 0.68109 0.0
H1161 H 0.60023 0.25171 0.8062 0.0
H1162 H 0.5994 0.22648 0.75195 0.0
H1163 H 0.63121 0.21484 0.84919 0.0
H1164 H 0.63214 0.24003 0.90399 0.0
H1165 H 0.65477 0.22996 0.84528 0.0
H1166 H 0.67235 0.28038 0.56894 0.0
H1167 H 0.66864 0.31236 0.66217 0.0
H1168 H 0.62777 0.28004 0.85376 0.0
C1169 C 0.63494 0.20899 0.63919 0.0
C1170 C 0.64431 0.20163 0.55634 0.0
C1171 C 0.65749 0.21494 0.50483 0.0
C1172 C 0.66119 0.23535 0.53445 0.0
C1173 C 0.65163 0.24223 0.6159 0.0
C1174 C 0.63881 0.22949 0.66784 0.0
C1175 C 0.63019 0.24101 0.75179 0.0
C1176 C 0.60634 0.24226 0.74744 0.0
C1177 C 0.63752 0.23085 0.84296 0.0
C1178 C 0.64002 0.26225 0.73827 0.0
C1179 C 0.65237 0.26251 0.65946 0.0
C1180 C 0.6628 0.28036 0.63099 0.0
C1181 C 0.66055 0.29846 0.68425 0.0
C1182 C 0.64792 0.29867 0.76494 0.0
C1183 C 0.6376 0.28027 0.79254 0.0
H1184 H 0.39346 0.11886 0.46688 0.0
H1185 H 0.33438 0.15143 0.47714 0.0
H1186 H 0.33648 0.15314 0.64709 0.0
H1187 H 0.38505 0.08807 0.67259 0.0
H1188 H 0.41133 0.08966 0.71548 0.0
H1189 H 0.4063 0.09162 0.59232 0.0
H1190 H 0.42542 0.12693 0.58703 0.0
H1191 H 0.43064 0.12501 0.71011 0.0
H1192 H 0.41744 0.14751 0.66446 0.0
H1193 H 0.34312 0.15028 0.81529 0.0
H1194 H 0.35536 0.14432 0.97542 0.0
H1195 H 0.41049 0.11375 0.86829 0.0
C1196 C 0.3812 0.12663 0.50508 0.0
C1197 C 0.36372 0.13507 0.45761 0.0
C1198 C 0.34791 0.14482 0.51085 0.0
C1199 C 0.34891 0.1459 0.60805 0.0
C1200 C 0.36593 0.13719 0.65299 0.0
C1201 C 0.38194 0.12787 0.60398 0.0
C1202 C 0.39816 0.11949 0.67215 0.0
C1203 C 0.40033 0.0958 0.66254 0.0
C1204 C 0.41916 0.13039 0.65756 0.0
C1205 C 0.38853 0.12542 0.76609 0.0
C1206 C 0.3699 0.1356 0.75244 0.0
C1207 C 0.35771 0.14233 0.82697 0.0
C1208 C 0.36469 0.13867 0.91809 0.0
C1209 C 0.38367 0.12829 0.93517 0.0
C1210 C 0.39585 0.1217 0.85768 0.0
H1211 H 0.13127 0.59841 0.64751 0.0
H1212 H 0.13756 0.6656 0.64528 0.0
H1213 H 0.13529 0.6657 0.4749 0.0
H1214 H 0.16314 0.58992 0.44365 0.0
H1215 H 0.14779 0.56879 0.39821 0.0
H1216 H 0.14854 0.57358 0.52184 0.0
H1217 H 0.10846 0.57633 0.52532 0.0
H1218 H 0.10754 0.57153 0.40167 0.0
H1219 H 0.09554 0.59451 0.44936 0.0
H1220 H 0.13222 0.65944 0.30712 0.0
H1221 H 0.1306 0.64649 0.14617 0.0
H1222 H 0.12862 0.58312 0.24695 0.0
C1223 C 0.13198 0.61308 0.61078 0.0
C1224 C 0.13451 0.63202 0.65999 0.0
C1225 C 0.13568 0.6509 0.60951 0.0
C1226 C 0.13433 0.65116 0.51244 0.0
C1227 C 0.13205 0.63238 0.46579 0.0
C1228 C 0.13104 0.61363 0.51249 0.0
C1229 C 0.12956 0.59573 0.44319 0.0
C1230 C 0.14838 0.58115 0.45228 0.0
C1231 C 0.10905 0.58382 0.45564 0.0
C1232 C 0.12996 0.60749 0.351 0.0
C1233 C 0.13117 0.62863 0.36657 0.0
C1234 C 0.13144 0.64291 0.29385 0.0
C1235 C 0.13062 0.63543 0.20241 0.0
C1236 C 0.12985 0.61391 0.18365 0.0
C1237 C 0.1294 0.5997 0.25918 0.0
H1238 H 0.60982 0.84733 0.40969 0.0
H1239 H 0.64128 0.90691 0.39521 0.0
H1240 H 0.63811 0.9109 0.56455 0.0
H1241 H 0.57356 0.86234 0.60074 0.0
H1242 H 0.5748 0.83726 0.65624 0.0
H1243 H 0.57813 0.83935 0.53191 0.0
H1244 H 0.61346 0.82032 0.54482 0.0
H1245 H 0.61034 0.81837 0.66921 0.0
H1246 H 0.63321 0.8305 0.62135 0.0
H1247 H 0.63462 0.9078 0.734 0.0
H1248 H 0.62797 0.89903 0.89793 0.0
H1249 H 0.59781 0.8418 0.81206 0.0
C1250 C 0.61563 0.86134 0.44234 0.0
C1251 C 0.62588 0.8768 0.38907 0.0
C1252 C 0.6335 0.89481 0.43442 0.0
C1253 C 0.63178 0.89726 0.5308 0.0
C1254 C 0.62226 0.88161 0.58189 0.0
C1255 C 0.61403 0.8641 0.53986 0.0
C1256 C 0.60502 0.84957 0.61337 0.0
C1257 C 0.58148 0.84698 0.59974 0.0
C1258 C 0.61618 0.82844 0.61208 0.0
C1259 C 0.60984 0.86157 0.70248 0.0
C1260 C 0.61985 0.87998 0.68187 0.0
C1261 C 0.62662 0.89352 0.75119 0.0
C1262 C 0.62289 0.88831 0.84433 0.0
C1263 C 0.61242 0.86973 0.86809 0.0
C1264 C 0.60578 0.85617 0.79596 0.0
H1265 H 0.8871 0.4176 0.2608 0.0
H1266 H 0.85705 0.36187 0.1576 0.0
H1267 H 0.85293 0.34925 0.31847 0.0
H1268 H 0.9151 0.39284 0.45008 0.0
H1269 H 0.91173 0.41396 0.53127 0.0
H1270 H 0.9123 0.41907 0.40791 0.0
H1271 H 0.87654 0.43731 0.41975 0.0
H1272 H 0.87593 0.43219 0.54314 0.0
H1273 H 0.85487 0.42355 0.46999 0.0
H1274 H 0.85198 0.3423 0.48687 0.0
H1275 H 0.85522 0.34016 0.65628 0.0
H1276 H 0.88575 0.40033 0.66218 0.0
C1277 C 0.87964 0.40276 0.27247 0.0
C1278 C 0.87277 0.39046 0.19596 0.0
C1279 C 0.86301 0.37122 0.21424 0.0
C1280 C 0.86037 0.36406 0.30576 0.0
C1281 C 0.86742 0.37636 0.37934 0.0
C1282 C 0.87689 0.3953 0.3644 0.0
C1283 C 0.88333 0.40504 0.45739 0.0
C1284 C 0.90703 0.40789 0.46191 0.0
C1285 C 0.87199 0.42576 0.47348 0.0
C1286 C 0.87603 0.38855 0.52654 0.0
C1287 C 0.86682 0.37228 0.47886 0.0
C1288 C 0.85911 0.35496 0.52488 0.0
C1289 C 0.86108 0.35393 0.62175 0.0
C1290 C 0.87068 0.37006 0.67361 0.0
C1291 C 0.87809 0.38784 0.62513 0.0
H1292 H 0.41178 0.38693 0.46424 0.0
H1293 H 0.36233 0.34641 0.36742 0.0
H1294 H 0.35226 0.33936 0.52916 0.0
H1295 H 0.4259 0.35643 0.66768 0.0
H1296 H 0.43039 0.37844 0.74276 0.0
H1297 H 0.43425 0.38083 0.61885 0.0
H1298 H 0.40861 0.41182 0.61397 0.0
H1299 H 0.40482 0.40964 0.73796 0.0
H1300 H 0.38278 0.40869 0.6606 0.0
H1301 H 0.34722 0.3361 0.69675 0.0
H1302 H 0.34546 0.33873 0.86686 0.0
H1303 H 0.3979 0.38114 0.86667 0.0
C1304 C 0.39878 0.37668 0.47748 0.0
C1305 C 0.38779 0.36726 0.40268 0.0
C1306 C 0.37091 0.35391 0.42293 0.0
C1307 C 0.36513 0.34969 0.51486 0.0
C1308 C 0.37634 0.35891 0.58676 0.0
C1309 C 0.39268 0.37228 0.56998 0.0
C1310 C 0.40161 0.38029 0.66193 0.0
C1311 C 0.42439 0.3736 0.67345 0.0
C1312 C 0.39932 0.40402 0.66901 0.0
C1313 C 0.38767 0.36929 0.73228 0.0
C1314 C 0.37334 0.35699 0.68626 0.0
C1315 C 0.35836 0.34563 0.73367 0.0
C1316 C 0.35753 0.34722 0.83056 0.0
C1317 C 0.37159 0.36001 0.88028 0.0
C1318 C 0.38718 0.37096 0.83064 0.0
H1319 H 0.34608 0.60609 0.19084 0.0
H1320 H 0.39358 0.65382 0.17876 0.0
H1321 H 0.3985 0.65142 0.34804 0.0
H1322 H 0.32317 0.62375 0.40311 0.0
H1323 H 0.31782 0.59833 0.44988 0.0
H1324 H 0.31892 0.60209 0.32564 0.0
H1325 H 0.34699 0.57342 0.31186 0.0
H1326 H 0.34582 0.56943 0.43601 0.0
H1327 H 0.3703 0.57528 0.38098 0.0
H1328 H 0.3974 0.64582 0.5179 0.0
H1329 H 0.39112 0.63605 0.68136 0.0
H1330 H 0.3437 0.59242 0.59218 0.0
C1331 C 0.3578 0.61562 0.22397 0.0
C1332 C 0.36958 0.63005 0.17136 0.0
C1333 C 0.38442 0.64264 0.21745 0.0
C1334 C 0.38735 0.64141 0.31379 0.0
C1335 C 0.37523 0.62756 0.36428 0.0
C1336 C 0.36081 0.61476 0.32156 0.0
C1337 C 0.34931 0.60196 0.39446 0.0
C1338 C 0.32592 0.60683 0.39316 0.0
C1339 C 0.35335 0.57863 0.37995 0.0
C1340 C 0.35943 0.60976 0.48397 0.0
C1341 C 0.37438 0.62449 0.46426 0.0
C1342 C 0.38579 0.63423 0.53433 0.0
C1343 C 0.38203 0.62866 0.62717 0.0
C1344 C 0.36685 0.6136 0.64989 0.0
C1345 C 0.35537 0.60405 0.57703 0.0
H1346 H 0.65621 0.61971 0.82251 0.0
H1347 H 0.59792 0.64456 0.92532 0.0
H1348 H 0.58632 0.65068 0.76401 0.0
H1349 H 0.66214 0.65416 0.62501 0.0
H1350 H 0.67209 0.63452 0.54729 0.0
H1351 H 0.67636 0.63231 0.67093 0.0
H1352 H 0.65938 0.59587 0.6703 0.0
H1353 H 0.65517 0.59793 0.54656 0.0
H1354 H 0.6336 0.59273 0.62319 0.0
H1355 H 0.58163 0.65589 0.59541 0.0
H1356 H 0.5817 0.65633 0.42502 0.0
H1357 H 0.64182 0.62552 0.42215 0.0
C1358 C 0.64099 0.62639 0.81062 0.0
C1359 C 0.62787 0.63168 0.88655 0.0
C1360 C 0.60807 0.64025 0.86852 0.0
C1361 C 0.60144 0.6439 0.77702 0.0
C1362 C 0.61469 0.63865 0.70383 0.0
C1363 C 0.63393 0.62979 0.71896 0.0
C1364 C 0.64463 0.62494 0.62653 0.0
C1365 C 0.66501 0.63722 0.61691 0.0
C1366 C 0.64841 0.60147 0.61605 0.0
C1367 C 0.62838 0.63258 0.55742 0.0
C1368 C 0.61144 0.64068 0.60444 0.0
C1369 C 0.59467 0.64938 0.55776 0.0
C1370 C 0.59494 0.64958 0.46045 0.0
C1371 C 0.61167 0.64077 0.40948 0.0
C1372 C 0.62873 0.63222 0.45893 0.0
H1373 H 0.65573 0.3645 0.64791 0.0
H1374 H 0.61175 0.41566 0.65084 0.0
H1375 H 0.608 0.41317 0.48138 0.0
H1376 H 0.68133 0.37917 0.4372 0.0
H1377 H 0.68471 0.35324 0.39204 0.0
H1378 H 0.68319 0.35743 0.51596 0.0
H1379 H 0.65257 0.3315 0.52753 0.0
H1380 H 0.65431 0.32696 0.40388 0.0
H1381 H 0.63004 0.33513 0.45489 0.0
H1382 H 0.60979 0.40716 0.3127 0.0
H1383 H 0.61612 0.39665 0.15054 0.0
H1384 H 0.65926 0.3493 0.24535 0.0
C1385 C 0.64498 0.37478 0.61286 0.0
C1386 C 0.63388 0.39021 0.6635 0.0
C1387 C 0.6204 0.40372 0.6143 0.0
C1388 C 0.61813 0.40245 0.5176 0.0
C1389 C 0.62949 0.38756 0.46935 0.0
C1390 C 0.64257 0.37381 0.5146 0.0
C1391 C 0.65335 0.35982 0.4433 0.0
C1392 C 0.67705 0.36259 0.4474 0.0
C1393 C 0.6472 0.33699 0.45828 0.0
C1394 C 0.64448 0.36817 0.35185 0.0
C1395 C 0.63068 0.38413 0.36949 0.0
C1396 C 0.62051 0.39462 0.29789 0.0
C1397 C 0.62432 0.3886 0.2056 0.0
C1398 C 0.63829 0.37226 0.18447 0.0
C1399 C 0.64854 0.3619 0.25903 0.0
H1400 H 0.84111 0.63996 0.98803 0.0
H1401 H 0.90196 0.62254 0.88409 0.0
H1402 H 0.91532 0.62133 0.04455 0.0
H1403 H 0.85944 0.67279 0.17687 0.0
H1404 H 0.83971 0.66497 0.25879 0.0
H1405 H 0.83437 0.66433 0.13559 0.0
H1406 H 0.82442 0.62546 0.14783 0.0
H1407 H 0.8297 0.62619 0.27103 0.0
H1408 H 0.84263 0.60736 0.19821 0.0
H1409 H 0.92263 0.62229 0.21199 0.0
H1410 H 0.9243 0.62577 0.38124 0.0
H1411 H 0.85885 0.6423 0.38972 0.0
C1412 C 0.85723 0.63587 0.99947 0.0
C1413 C 0.87064 0.63166 0.92278 0.0
C1414 C 0.89156 0.62631 0.94083 0.0
C1415 C 0.89924 0.62539 1.03213 0.0
C1416 C 0.8858 0.62976 0.10584 0.0
C1417 C 0.86524 0.6349 0.09131 0.0
C1418 C 0.85448 0.63914 0.18465 0.0
C1419 C 0.84653 0.66165 0.18922 0.0
C1420 C 0.83676 0.6236 0.20136 0.0
C1421 C 0.87229 0.63565 0.2534 0.0
C1422 C 0.8901 0.6302 0.20517 0.0
C1423 C 0.90878 0.62649 0.25049 0.0
C1424 C 0.90953 0.62855 0.34733 0.0
C1425 C 0.89175 0.63426 0.39998 0.0
C1426 C 0.87269 0.6377 0.35209 0.0
H1427 H 0.61676 0.1372 0.71278 0.0
H1428 H 0.64113 0.07426 0.71341 0.0
H1429 H 0.64436 0.07536 0.88318 0.0
H1430 H 0.64916 0.15651 0.90852 0.0
H1431 H 0.62869 0.1721 0.95832 0.0
H1432 H 0.62927 0.16734 0.8346 0.0
H1433 H 0.59194 0.15264 0.84266 0.0
H1434 H 0.59129 0.15718 0.96652 0.0
H1435 H 0.58626 0.13154 0.92119 0.0
H1436 H 0.64391 0.08163 0.05063 0.0
H1437 H 0.64095 0.09371 0.2124 0.0
H1438 H 0.61629 0.15269 0.1157 0.0
C1439 C 0.62311 0.12388 0.74892 0.0
C1440 C 0.62879 0.10563 0.69926 0.0
C1441 C 0.63665 0.08838 0.74937 0.0
C1442 C 0.63858 0.08882 0.8462 0.0
C1443 C 0.63249 0.10664 0.8935 0.0
C1444 C 0.62501 0.12397 0.84739 0.0
C1445 C 0.61905 0.14074 0.91794 0.0
C1446 C 0.63234 0.16033 0.90401 0.0
C1447 C 0.59575 0.14582 0.91168 0.0
C1448 C 0.62427 0.12993 1.00988 0.0
C1449 C 0.63203 0.11029 0.99304 0.0
C1450 C 0.6379 0.09702 0.06496 0.0
C1451 C 0.63606 0.104 0.15692 0.0
C1452 C 0.62829 0.12407 0.17726 0.0
C1453 C 0.6222 0.13721 0.10244 0.0
H1454 H 0.09847 0.34766 0.33555 0.0
H1455 H 0.14063 0.39604 0.42897 0.0
H1456 H 0.15019 0.40337 0.26684 0.0
H1457 H 0.1312 0.32901 0.1461 0.0
H1458 H 0.11006 0.32417 0.0666 0.0
H1459 H 0.1058 0.32256 0.19047 0.0
H1460 H 0.076 0.3494 0.1771 0.0
H1461 H 0.08024 0.35118 0.05321 0.0
H1462 H 0.08102 0.37429 0.12411 0.0
H1463 H 0.15525 0.40632 0.09845 0.0
H1464 H 0.15743 0.40353 0.92876 0.0
H1465 H 0.11297 0.35276 0.93219 0.0
C1466 C 0.10969 0.35979 0.3215 0.0
C1467 C 0.1188 0.37128 0.39577 0.0
C1468 C 0.13345 0.38697 0.37418 0.0
C1469 C 0.13896 0.39132 0.28189 0.0
C1470 C 0.12975 0.37988 0.21062 0.0
C1471 C 0.11551 0.36435 0.22853 0.0
C1472 C 0.10847 0.35431 0.13711 0.0
C1473 C 0.11423 0.33114 0.13496 0.0
C1474 C 0.08504 0.35748 0.12202 0.0
C1475 C 0.1211 0.36661 0.06579 0.0
C1476 C 0.13307 0.38135 0.11086 0.0
C1477 C 0.14604 0.39478 0.06237 0.0
C1478 C 0.14716 0.39302 0.96544 0.0
C1479 C 0.13553 0.37784 0.91628 0.0
C1480 C 0.12208 0.36453 0.9674 0.0
H1481 H 0.37124 0.83996 0.0973 0.0
H1482 H 0.36979 0.90382 0.19216 0.0
H1483 H 0.37294 0.916 1.02999 0.0
H1484 H 0.40616 0.84536 0.90561 0.0
H1485 H 0.39196 0.82862 0.82753 0.0
H1486 H 0.39032 0.82466 0.95149 0.0
H1487 H 0.35025 0.82771 0.94359 0.0
H1488 H 0.35181 0.83153 0.81945 0.0
H1489 H 0.33866 0.85039 0.8913 0.0
H1490 H 0.37906 0.92117 0.86121 0.0
H1491 H 0.38179 0.9199 0.6908 0.0
H1492 H 0.37462 0.85282 0.69692 0.0
C1493 C 0.37155 0.8565 0.08348 0.0
C1494 C 0.37065 0.87108 0.15741 0.0
C1495 C 0.37065 0.89252 0.1369 0.0
C1496 C 0.37248 0.89952 0.0449 0.0
C1497 C 0.37359 0.88483 0.97367 0.0
C1498 C 0.37254 0.86377 0.99122 0.0
C1499 C 0.37266 0.85145 0.90054 0.0
C1500 C 0.3914 0.83665 0.89607 0.0
C1501 C 0.35212 0.83957 0.88799 0.0
C1502 C 0.37462 0.86891 0.82974 0.0
C1503 C 0.37538 0.88796 0.87421 0.0
C1504 C 0.37813 0.90639 0.82541 0.0
C1505 C 0.37979 0.90546 0.72839 0.0
C1506 C 0.3783 0.88627 0.68024 0.0
C1507 C 0.37566 0.86771 0.73179 0.0
H1508 H 0.84996 0.85789 0.38139 0.0
H1509 H 0.90578 0.88957 0.47449 0.0
H1510 H 0.9169 0.89384 0.3119 0.0
H1511 H 0.87396 0.83033 0.18878 0.0
H1512 H 0.85208 0.83307 0.11136 0.0
H1513 H 0.84804 0.83246 0.23552 0.0
H1514 H 0.82871 0.86767 0.22622 0.0
H1515 H 0.83286 0.86847 0.10209 0.0
H1516 H 0.84149 0.88972 0.17421 0.0
H1517 H 0.92259 0.89465 0.14365 0.0
H1518 H 0.9238 0.89044 0.97399 0.0
H1519 H 0.86427 0.85879 0.97914 0.0
C1520 C 0.86453 0.86566 0.36718 0.0
C1521 C 0.8771 0.87328 0.44105 0.0
C1522 C 0.896 0.88342 0.41962 0.0
C1523 C 0.90239 0.88606 0.32723 0.0
C1524 C 0.88968 0.8786 0.25621 0.0
C1525 C 0.87118 0.86852 0.27435 0.0
C1526 C 0.86085 0.86175 0.18344 0.0
C1527 C 0.8586 0.83799 0.17957 0.0
C1528 C 0.83972 0.87255 0.17077 0.0
C1529 C 0.87658 0.86947 0.11195 0.0
C1530 C 0.89296 0.87922 0.15653 0.0
C1531 C 0.90984 0.88714 0.10786 0.0
C1532 C 0.91035 0.88466 1.01127 0.0
C1533 C 0.8941 0.87444 0.96311 0.0
C1534 C 0.87673 0.86701 1.01393 0.0
H1535 H 0.85025 0.13901 0.17323 0.0
H1536 H 0.89196 0.08594 0.17207 0.0
H1537 H 0.89453 0.08777 1.00222 0.0
H1538 H 0.82247 0.12465 0.96679 0.0
H1539 H 0.81979 0.15056 0.92082 0.0
H1540 H 0.82199 0.14664 0.04469 0.0
H1541 H 0.85356 0.17147 0.05062 0.0
H1542 H 0.85133 0.17565 0.92689 0.0
H1543 H 0.87553 0.16669 0.97566 0.0
H1544 H 0.89167 0.09317 0.83481 0.0
H1545 H 0.88483 0.1035 0.6731 0.0
H1546 H 0.84466 0.1532 0.77065 0.0
C1547 C 0.86021 0.12812 0.13695 0.0
C1548 C 0.87098 0.11234 0.18637 0.0
C1549 C 0.88354 0.09812 0.13618 0.0
C1550 C 0.88514 0.09901 1.03933 0.0
C1551 C 0.87403 0.11422 0.99222 0.0
C1552 C 0.86191 0.12868 1.0385 0.0
C1553 C 0.85121 0.1429 0.96816 0.0
C1554 C 0.82745 0.14107 0.97559 0.0
C1555 C 0.85834 0.16552 0.98111 0.0
C1556 C 0.85911 0.1339 0.87615 0.0
C1557 C 0.87228 0.11737 0.89274 0.0
C1558 C 0.88148 0.10616 0.82068 0.0
C1559 C 0.8774 0.1121 0.72878 0.0
C1560 C 0.86418 0.12909 0.70879 0.0
C1561 C 0.85479 0.14009 0.78373 0.0
H1562 H 0.09231 0.15376 0.97759 0.0
H1563 H 0.13938 0.11005 0.88504 0.0
H1564 H 0.15008 0.10447 0.04786 0.0
H1565 H 0.12253 0.1767 0.16395 0.0
H1566 H 0.10098 0.17932 0.24334 0.0
H1567 H 0.09652 0.17989 0.11946 0.0
H1568 H 0.07017 0.14975 0.13571 0.0
H1569 H 0.07465 0.14902 0.25964 0.0
H1570 H 0.07818 0.12587 0.19062 0.0
H1571 H 0.15631 0.10367 0.21735 0.0
H1572 H 0.15895 0.10848 0.38633 0.0
H1573 H 0.1077 0.15234 0.37949 0.0
C1574 C 0.10486 0.14301 0.99189 0.0
C1575 C 0.11507 0.13237 0.91799 0.0
C1576 C 0.13139 0.11845 0.93979 0.0
C1577 C 0.13753 0.11511 1.03237 0.0
C1578 C 0.12715 0.12568 0.10337 0.0
C1579 C 0.11119 0.1394 0.08483 0.0
C1580 C 0.10302 0.14891 0.17544 0.0
C1581 C 0.10594 0.17261 0.17553 0.0
C1582 C 0.08015 0.14304 0.19126 0.0
C1583 C 0.11706 0.13852 0.24739 0.0
C1584 C 0.13074 0.12513 0.2033 0.0
C1585 C 0.14565 0.11405 0.25258 0.0
C1586 C 0.14701 0.11694 0.34898 0.0
C1587 C 0.13354 0.13074 0.39683 0.0
C1588 C 0.11805 0.14148 0.34531 0.0
H1589 H 0.13874 0.84567 0.70835 0.0
H1590 H 0.1119 0.90332 0.60863 0.0
H1591 H 0.10744 0.9153 0.77024 0.0
H1592 H 0.10664 0.84008 0.91673 0.0
H1593 H 0.12755 0.83064 0.98874 0.0
H1594 H 0.12794 0.82597 0.86501 0.0
H1595 H 0.16422 0.84332 0.85545 0.0
H1596 H 0.16365 0.8481 0.97914 0.0
H1597 H 0.1676 0.86936 0.89938 0.0
H1598 H 0.10455 0.92081 0.93897 0.0
H1599 H 0.10606 0.92154 0.10903 0.0
H1600 H 0.13717 0.86157 0.11004 0.0
C1601 C 0.1319 0.86079 0.72101 0.0
C1602 C 0.12568 0.87365 0.64554 0.0
C1603 C 0.11698 0.89335 0.66475 0.0
C1604 C 0.11425 0.90022 0.75659 0.0
C1605 C 0.12055 0.88732 0.82924 0.0
C1606 C 0.12942 0.86812 0.81318 0.0
C1607 C 0.13555 0.85792 0.90534 0.0
C1608 C 0.1237 0.83744 0.91976 0.0
C1609 C 0.15916 0.85447 0.91008 0.0
C1610 C 0.12857 0.87438 0.97525 0.0
C1611 C 0.11976 0.89102 0.92881 0.0
C1612 C 0.11157 0.90798 0.97611 0.0
C1613 C 0.11252 0.90818 0.07333 0.0
C1614 C 0.12188 0.89171 0.12388 0.0
C1615 C 0.13003 0.87447 0.0738 0.0
loop_
_geom_bond_atom_site_label_1
_geom_bond_atom_site_label_2
_geom_bond_distance
_geom_bond_site_symmetry_2
_ccdc_geom_bond_type
Tb0 O3 2.453 1_554 S
Tb0 O4 2.596 . S
Tb0 O5 2.374 . S
Tb0 O13 2.343 . S
Tb0 O15 2.353 . S
Tb0 O17 2.427 . S
Tb0 O18 2.513 . S
C1 O5 1.251 . S
C1 O7 1.263 . S
Tb2 O4 2.343 . S
Tb2 O7 2.353 . S
Tb2 O10 2.427 . S
Tb2 O11 2.513 . S
Tb2 O12 2.453 . S
Tb2 O13 2.596 . S
Tb2 O14 2.374 . S
O3 Tb0 2.453 1_556 S
O3 C19 1.245 . S
O4 Tb0 2.596 . S
O4 Tb2 2.343 . S
O4 C19 1.259 1_554 S
O5 Tb0 2.374 . S
O5 C1 1.251 . S
C6 O10 1.275 . S
C6 O11 1.246 . S
O7 C1 1.263 . S
O7 Tb2 2.353 . S
C8 O12 1.245 . S
C8 O13 1.259 . S
C9 O14 1.250 . S
C9 O15 1.263 . S
O10 Tb2 2.427 . S
O10 C6 1.275 . S
O11 Tb2 2.513 . S
O11 C6 1.246 . S
O12 Tb2 2.453 . S
O12 C8 1.245 . S
O13 Tb0 2.343 . S
O13 Tb2 2.596 . S
O13 C8 1.259 . S
O14 Tb2 2.374 . S
O14 C9 1.250 . S
O15 Tb0 2.353 . S
O15 C9 1.263 . S
C16 O17 1.275 . S
C16 O18 1.246 . S
O17 Tb0 2.427 . S
O17 C16 1.275 . S
O18 Tb0 2.513 . S
O18 C16 1.246 . S
C19 O3 1.245 . S
C19 O4 1.259 1_556 S
Tb20 O23 2.453 . S
Tb20 O24 2.596 . S
Tb20 O25 2.374 . S
Tb20 O33 2.343 . S
Tb20 O35 2.353 . S
Tb20 O37 2.427 . S
Tb20 O38 2.513 . S
C21 O25 1.251 . S
C21 O27 1.263 . S
Tb22 O24 2.343 . S
Tb22 O27 2.353 . S
Tb22 O30 2.427 . S
Tb22 O31 2.513 . S
Tb22 O32 2.453 1_556 S
Tb22 O33 2.596 . S
Tb22 O34 2.374 . S
O23 Tb20 2.453 . S
O23 C39 1.245 . S
O24 Tb20 2.596 . S
O24 Tb22 2.343 . S
O24 C39 1.259 . S
O25 Tb20 2.374 . S
O25 C21 1.251 . S
C26 O30 1.275 . S
C26 O31 1.246 . S
O27 C21 1.263 . S
O27 Tb22 2.353 . S
C28 O32 1.245 . S
C28 O33 1.259 1_554 S
C29 O34 1.250 . S
C29 O35 1.263 . S
O30 Tb22 2.427 . S
O30 C26 1.275 . S
O31 Tb22 2.513 . S
O31 C26 1.246 . S
O32 Tb22 2.453 1_554 S
O32 C28 1.245 . S
O33 Tb20 2.343 . S
O33 Tb22 2.596 . S
O33 C28 1.259 1_556 S
O34 Tb22 2.374 . S
O34 C29 1.250 . S
O35 Tb20 2.353 . S
O35 C29 1.263 . S
C36 O37 1.275 . S
C36 O38 1.246 . S
O37 Tb20 2.427 . S
O37 C36 1.275 . S
O38 Tb20 2.513 . S
O38 C36 1.246 . S
C39 O23 1.245 . S
C39 O24 1.259 . S
Tb40 O43 2.453 1_554 S
Tb40 O44 2.596 . S
Tb40 O45 2.374 . S
Tb40 O53 2.343 . S
Tb40 O55 2.353 . S
Tb40 O57 2.427 . S
Tb40 O58 2.513 . S
C41 O45 1.251 . S
C41 O47 1.263 . S
Tb42 O44 2.343 . S
Tb42 O47 2.353 . S
Tb42 O50 2.427 . S
Tb42 O51 2.513 . S
Tb42 O52 2.453 . S
Tb42 O53 2.596 . S
Tb42 O54 2.374 . S
O43 Tb40 2.453 1_556 S
O43 C59 1.245 . S
O44 Tb40 2.596 . S
O44 Tb42 2.343 . S
O44 C59 1.259 1_554 S
O45 Tb40 2.374 . S
O45 C41 1.251 . S
C46 O50 1.275 . S
C46 O51 1.246 . S
O47 C41 1.263 . S
O47 Tb42 2.353 . S
C48 O52 1.245 . S
C48 O53 1.259 . S
C49 O54 1.250 . S
C49 O55 1.263 . S
O50 Tb42 2.427 . S
O50 C46 1.275 . S
O51 Tb42 2.513 . S
O51 C46 1.246 . S
O52 Tb42 2.453 . S
O52 C48 1.245 . S
O53 Tb40 2.343 . S
O53 Tb42 2.596 . S
O53 C48 1.259 . S
O54 Tb42 2.374 . S
O54 C49 1.250 . S
O55 Tb40 2.353 . S
O55 C49 1.263 . S
C56 O57 1.275 . S
C56 O58 1.246 . S
O57 Tb40 2.427 . S
O57 C56 1.275 . S
O58 Tb40 2.513 . S
O58 C56 1.246 . S
C59 O43 1.245 . S
C59 O44 1.259 1_556 S
Tb60 O63 2.453 . S
Tb60 O64 2.596 . S
Tb60 O65 2.374 . S
Tb60 O73 2.343 . S
Tb60 O75 2.353 . S
Tb60 O77 2.427 . S
Tb60 O78 2.513 . S
C61 O65 1.251 . S
C61 O67 1.263 . S
Tb62 O64 2.343 . S
Tb62 O67 2.353 . S
Tb62 O70 2.427 . S
Tb62 O71 2.513 . S
Tb62 O72 2.453 1_556 S
Tb62 O73 2.596 . S
Tb62 O74 2.374 . S
O63 Tb60 2.453 . S
O63 C79 1.245 . S
O64 Tb60 2.596 . S
O64 Tb62 2.343 . S
O64 C79 1.259 . S
O65 Tb60 2.374 . S
O65 C61 1.251 . S
C66 O70 1.275 . S
C66 O71 1.246 . S
O67 C61 1.263 . S
O67 Tb62 2.353 . S
C68 O72 1.245 . S
C68 O73 1.259 1_554 S
C69 O74 1.250 . S
C69 O75 1.263 . S
O70 Tb62 2.427 . S
O70 C66 1.275 . S
O71 Tb62 2.513 . S
O71 C66 1.246 . S
O72 Tb62 2.453 1_554 S
O72 C68 1.245 . S
O73 Tb60 2.343 . S
O73 Tb62 2.596 . S
O73 C68 1.259 1_556 S
O74 Tb62 2.374 . S
O74 C69 1.250 . S
O75 Tb60 2.353 . S
O75 C69 1.263 . S
C76 O77 1.275 . S
C76 O78 1.246 . S
O77 Tb60 2.427 . S
O77 C76 1.275 . S
O78 Tb60 2.513 . S
O78 C76 1.246 . S
C79 O63 1.245 . S
C79 O64 1.259 . S
Tb80 O83 2.453 . S
Tb80 O84 2.596 . S
Tb80 O85 2.374 . S
Tb80 O93 2.343 . S
Tb80 O95 2.353 . S
Tb80 O97 2.427 . S
Tb80 O98 2.513 . S
C81 O85 1.251 . S
C81 O87 1.263 . S
Tb82 O84 2.343 . S
Tb82 O87 2.353 . S
Tb82 O90 2.427 . S
Tb82 O91 2.513 . S
Tb82 O92 2.453 1_554 S
Tb82 O93 2.596 . S
Tb82 O94 2.374 . S
O83 Tb80 2.453 . S
O83 C99 1.245 . S
O84 Tb80 2.596 . S
O84 Tb82 2.343 . S
O84 C99 1.259 . S
O85 Tb80 2.374 . S
O85 C81 1.251 . S
C86 O90 1.275 . S
C86 O91 1.246 . S
O87 C81 1.263 . S
O87 Tb82 2.353 . S
C88 O92 1.245 . S
C88 O93 1.259 1_556 S
C89 O94 1.250 . S
C89 O95 1.263 . S
O90 Tb82 2.427 . S
O90 C86 1.275 . S
O91 Tb82 2.513 . S
O91 C86 1.246 . S
O92 Tb82 2.453 1_556 S
O92 C88 1.245 . S
O93 Tb80 2.343 . S
O93 Tb82 2.596 . S
O93 C88 1.259 1_554 S
O94 Tb82 2.374 . S
O94 C89 1.250 . S
O95 Tb80 2.353 . S
O95 C89 1.263 . S
C96 O97 1.275 . S
C96 O98 1.246 . S
O97 Tb80 2.427 . S
O97 C96 1.275 . S
O98 Tb80 2.513 . S
O98 C96 1.246 . S
C99 O83 1.245 . S
C99 O84 1.259 . S
Tb100 O103 2.453 1_556 S
Tb100 O104 2.596 . S
Tb100 O105 2.374 . S
Tb100 O113 2.343 . S
Tb100 O115 2.353 . S
Tb100 O117 2.427 . S
Tb100 O118 2.513 . S
C101 O105 1.251 . S
C101 O107 1.263 . S
Tb102 O104 2.343 . S
Tb102 O107 2.353 . S
Tb102 O110 2.427 . S
Tb102 O111 2.513 . S
Tb102 O112 2.453 . S
Tb102 O113 2.596 . S
Tb102 O114 2.374 . S
O103 Tb100 2.453 1_554 S
O103 C119 1.245 . S
O104 Tb100 2.596 . S
O104 Tb102 2.343 . S
O104 C119 1.259 1_556 S
O105 Tb100 2.374 . S
O105 C101 1.251 . S
C106 O110 1.275 . S
C106 O111 1.246 . S
O107 C101 1.263 . S
O107 Tb102 2.353 . S
C108 O112 1.245 . S
C108 O113 1.259 . S
C109 O114 1.250 . S
C109 O115 1.263 . S
O110 Tb102 2.427 . S
O110 C106 1.275 . S
O111 Tb102 2.513 . S
O111 C106 1.246 . S
O112 Tb102 2.453 . S
O112 C108 1.245 . S
O113 Tb100 2.343 . S
O113 Tb102 2.596 . S
O113 C108 1.259 . S
O114 Tb102 2.374 . S
O114 C109 1.250 . S
O115 Tb100 2.353 . S
O115 C109 1.263 . S
C116 O117 1.275 . S
C116 O118 1.246 . S
O117 Tb100 2.427 . S
O117 C116 1.275 . S
O118 Tb100 2.513 . S
O118 C116 1.246 . S
C119 O103 1.245 . S
C119 O104 1.259 1_554 S
Tb120 O123 2.453 . S
Tb120 O124 2.596 . S
Tb120 O125 2.374 . S
Tb120 O133 2.343 . S
Tb120 O135 2.353 . S
Tb120 O137 2.427 . S
Tb120 O138 2.513 . S
C121 O125 1.251 . S
C121 O127 1.263 . S
Tb122 O124 2.343 . S
Tb122 O127 2.353 . S
Tb122 O130 2.427 . S
Tb122 O131 2.513 . S
Tb122 O132 2.453 1_554 S
Tb122 O133 2.596 . S
Tb122 O134 2.374 . S
O123 Tb120 2.453 . S
O123 C139 1.245 . S
O124 Tb120 2.596 . S
O124 Tb122 2.343 . S
O124 C139 1.259 . S
O125 Tb120 2.374 . S
O125 C121 1.251 . S
C126 O130 1.275 . S
C126 O131 1.246 . S
O127 C121 1.263 . S
O127 Tb122 2.353 . S
C128 O132 1.245 . S
C128 O133 1.259 1_556 S
C129 O134 1.250 . S
C129 O135 1.263 . S
O130 Tb122 2.427 . S
O130 C126 1.275 . S
O131 Tb122 2.513 . S
O131 C126 1.246 . S
O132 Tb122 2.453 1_556 S
O132 C128 1.245 . S
O133 Tb120 2.343 . S
O133 Tb122 2.596 . S
O133 C128 1.259 1_554 S
O134 Tb122 2.374 . S
O134 C129 1.250 . S
O135 Tb120 2.353 . S
O135 C129 1.263 . S
C136 O137 1.275 . S
C136 O138 1.246 . S
O137 Tb120 2.427 . S
O137 C136 1.275 . S
O138 Tb120 2.513 . S
O138 C136 1.246 . S
C139 O123 1.245 . S
C139 O124 1.259 . S
Tb140 O143 2.453 1_556 S
Tb140 O144 2.596 . S
Tb140 O145 2.374 . S
Tb140 O153 2.343 . S
Tb140 O155 2.353 . S
Tb140 O157 2.427 . S
Tb140 O158 2.513 . S
C141 O145 1.251 . S
C141 O147 1.263 . S
Tb142 O144 2.343 . S
Tb142 O147 2.353 . S
Tb142 O150 2.427 . S
Tb142 O151 2.513 . S
Tb142 O152 2.453 . S
Tb142 O153 2.596 . S
Tb142 O154 2.374 . S
O143 Tb140 2.453 1_554 S
O143 C159 1.245 . S
O144 Tb140 2.596 . S
O144 Tb142 2.343 . S
O144 C159 1.259 1_556 S
O145 Tb140 2.374 . S
O145 C141 1.251 . S
C146 O150 1.275 . S
C146 O151 1.246 . S
O147 C141 1.263 . S
O147 Tb142 2.353 . S
C148 O152 1.245 . S
C148 O153 1.259 . S
C149 O154 1.250 . S
C149 O155 1.263 . S
O150 Tb142 2.427 . S
O150 C146 1.275 . S
O151 Tb142 2.513 . S
O151 C146 1.246 . S
O152 Tb142 2.453 . S
O152 C148 1.245 . S
O153 Tb140 2.343 . S
O153 Tb142 2.596 . S
O153 C148 1.259 . S
O154 Tb142 2.374 . S
O154 C149 1.250 . S
O155 Tb140 2.353 . S
O155 C149 1.263 . S
C156 O157 1.275 . S
C156 O158 1.246 . S
O157 Tb140 2.427 . S
O157 C156 1.275 . S
O158 Tb140 2.513 . S
O158 C156 1.246 . S
C159 O143 1.245 . S
C159 O144 1.259 1_554 S
Tb160 O163 2.453 . S
Tb160 O164 2.596 . S
Tb160 O165 2.374 . S
Tb160 O173 2.343 . S
Tb160 O175 2.353 . S
Tb160 O177 2.427 . S
Tb160 O178 2.513 . S
C161 O165 1.251 . S
C161 O167 1.263 . S
Tb162 O164 2.343 . S
Tb162 O167 2.353 . S
Tb162 O170 2.427 . S
Tb162 O171 2.513 . S
Tb162 O172 2.453 . S
Tb162 O173 2.596 . S
Tb162 O174 2.374 . S
O163 Tb160 2.453 . S
O163 C179 1.245 . S
O164 Tb160 2.596 . S
O164 Tb162 2.343 . S
O164 C179 1.259 . S
O165 Tb160 2.374 . S
O165 C161 1.251 . S
C166 O170 1.275 . S
C166 O171 1.246 . S
O167 C161 1.263 . S
O167 Tb162 2.353 . S
C168 O172 1.245 . S
C168 O173 1.259 . S
C169 O174 1.250 . S
C169 O175 1.263 . S
O170 Tb162 2.427 . S
O170 C166 1.275 . S
O171 Tb162 2.513 . S
O171 C166 1.246 . S
O172 Tb162 2.453 . S
O172 C168 1.245 . S
O173 Tb160 2.343 . S
O173 Tb162 2.596 . S
O173 C168 1.259 . S
O174 Tb162 2.374 . S
O174 C169 1.250 . S
O175 Tb160 2.353 . S
O175 C169 1.263 . S
C176 O177 1.275 . S
C176 O178 1.246 . S
O177 Tb160 2.427 . S
O177 C176 1.275 . S
O178 Tb160 2.513 . S
O178 C176 1.246 . S
C179 O163 1.245 . S
C179 O164 1.259 . S
Tb180 O183 2.453 . S
Tb180 O184 2.596 . S
Tb180 O185 2.374 . S
Tb180 O193 2.343 . S
Tb180 O195 2.353 . S
Tb180 O197 2.427 . S
Tb180 O198 2.513 . S
C181 O185 1.251 . S
C181 O187 1.263 . S
Tb182 O184 2.343 . S
Tb182 O187 2.353 . S
Tb182 O190 2.427 . S
Tb182 O191 2.513 . S
Tb182 O192 2.453 . S
Tb182 O193 2.596 . S
Tb182 O194 2.374 . S
O183 Tb180 2.453 . S
O183 C199 1.245 . S
O184 Tb180 2.596 . S
O184 Tb182 2.343 . S
O184 C199 1.259 . S
O185 Tb180 2.374 . S
O185 C181 1.251 . S
C186 O190 1.275 . S
C186 O191 1.246 . S
O187 C181 1.263 . S
O187 Tb182 2.353 . S
C188 O192 1.245 . S
C188 O193 1.259 . S
C189 O194 1.250 . S
C189 O195 1.263 . S
O190 Tb182 2.427 . S
O190 C186 1.275 . S
O191 Tb182 2.513 . S
O191 C186 1.246 . S
O192 Tb182 2.453 . S
O192 C188 1.245 . S
O193 Tb180 2.343 . S
O193 Tb182 2.596 . S
O193 C188 1.259 . S
O194 Tb182 2.374 . S
O194 C189 1.250 . S
O195 Tb180 2.353 . S
O195 C189 1.263 . S
C196 O197 1.275 . S
C196 O198 1.246 . S
O197 Tb180 2.427 . S
O197 C196 1.275 . S
O198 Tb180 2.513 . S
O198 C196 1.246 . S
C199 O183 1.245 . S
C199 O184 1.259 . S
Tb200 O203 2.453 . S
Tb200 O204 2.596 . S
Tb200 O205 2.374 . S
Tb200 O213 2.343 . S
Tb200 O215 2.353 . S
Tb200 O217 2.427 . S
Tb200 O218 2.513 . S
C201 O205 1.251 . S
C201 O207 1.263 . S
Tb202 O204 2.343 . S
Tb202 O207 2.353 . S
Tb202 O210 2.427 . S
Tb202 O211 2.513 . S
Tb202 O212 2.453 . S
Tb202 O213 2.596 . S
Tb202 O214 2.374 . S
O203 Tb200 2.453 . S
O203 C219 1.245 . S
O204 Tb200 2.596 . S
O204 Tb202 2.343 . S
O204 C219 1.259 . S
O205 Tb200 2.374 . S
O205 C201 1.251 . S
C206 O210 1.275 . S
C206 O211 1.246 . S
O207 C201 1.263 . S
O207 Tb202 2.353 . S
C208 O212 1.245 . S
C208 O213 1.259 . S
C209 O214 1.250 . S
C209 O215 1.263 . S
O210 Tb202 2.427 . S
O210 C206 1.275 . S
O211 Tb202 2.513 . S
O211 C206 1.246 . S
O212 Tb202 2.453 . S
O212 C208 1.245 . S
O213 Tb200 2.343 . S
O213 Tb202 2.596 . S
O213 C208 1.259 . S
O214 Tb202 2.374 . S
O214 C209 1.250 . S
O215 Tb200 2.353 . S
O215 C209 1.263 . S
C216 O217 1.275 . S
C216 O218 1.246 . S
O217 Tb200 2.427 . S
O217 C216 1.275 . S
O218 Tb200 2.513 . S
O218 C216 1.246 . S
C219 O203 1.245 . S
C219 O204 1.259 . S
Tb220 O223 2.453 . S
Tb220 O224 2.596 . S
Tb220 O225 2.374 . S
Tb220 O233 2.343 . S
Tb220 O235 2.353 . S
Tb220 O237 2.427 . S
Tb220 O238 2.513 . S
C221 O225 1.251 . S
C221 O227 1.263 . S
Tb222 O224 2.343 . S
Tb222 O227 2.353 . S
Tb222 O230 2.427 . S
Tb222 O231 2.513 . S
Tb222 O232 2.453 . S
Tb222 O233 2.596 . S
Tb222 O234 2.374 . S
O223 Tb220 2.453 . S
O223 C239 1.245 . S
O224 Tb220 2.596 . S
O224 Tb222 2.343 . S
O224 C239 1.259 . S
O225 Tb220 2.374 . S
O225 C221 1.251 . S
C226 O230 1.275 . S
C226 O231 1.246 . S
O227 C221 1.263 . S
O227 Tb222 2.353 . S
C228 O232 1.245 . S
C228 O233 1.259 . S
C229 O234 1.250 . S
C229 O235 1.263 . S
O230 Tb222 2.427 . S
O230 C226 1.275 . S
O231 Tb222 2.513 . S
O231 C226 1.246 . S
O232 Tb222 2.453 . S
O232 C228 1.245 . S
O233 Tb220 2.343 . S
O233 Tb222 2.596 . S
O233 C228 1.259 . S
O234 Tb222 2.374 . S
O234 C229 1.250 . S
O235 Tb220 2.353 . S
O235 C229 1.263 . S
C236 O237 1.275 . S
C236 O238 1.246 . S
O237 Tb220 2.427 . S
O237 C236 1.275 . S
O238 Tb220 2.513 . S
O238 C236 1.246 . S
C239 O223 1.245 . S
C239 O224 1.259 . S
Tb240 O243 2.453 . S
Tb240 O244 2.596 . S
Tb240 O245 2.374 . S
Tb240 O253 2.343 . S
Tb240 O255 2.353 . S
Tb240 O257 2.427 . S
Tb240 O258 2.513 . S
C241 O245 1.251 . S
C241 O247 1.263 . S
Tb242 O244 2.343 . S
Tb242 O247 2.353 . S
Tb242 O250 2.427 . S
Tb242 O251 2.513 . S
Tb242 O252 2.453 . S
Tb242 O253 2.596 . S
Tb242 O254 2.374 . S
O243 Tb240 2.453 . S
O243 C259 1.245 . S
O244 Tb240 2.596 . S
O244 Tb242 2.343 . S
O244 C259 1.259 . S
O245 Tb240 2.374 . S
O245 C241 1.251 . S
C246 O250 1.275 . S
C246 O251 1.246 . S
O247 C241 1.263 . S
O247 Tb242 2.353 . S
C248 O252 1.245 . S
C248 O253 1.259 . S
C249 O254 1.250 . S
C249 O255 1.263 . S
O250 Tb242 2.427 . S
O250 C246 1.275 . S
O251 Tb242 2.513 . S
O251 C246 1.246 . S
O252 Tb242 2.453 . S
O252 C248 1.245 . S
O253 Tb240 2.343 . S
O253 Tb242 2.596 . S
O253 C248 1.259 . S
O254 Tb242 2.374 . S
O254 C249 1.250 . S
O255 Tb240 2.353 . S
O255 C249 1.263 . S
C256 O257 1.275 . S
C256 O258 1.246 . S
O257 Tb240 2.427 . S
O257 C256 1.275 . S
O258 Tb240 2.513 . S
O258 C256 1.246 . S
C259 O243 1.245 . S
C259 O244 1.259 . S
Tb260 O263 2.453 . S
Tb260 O264 2.596 . S
Tb260 O265 2.374 . S
Tb260 O273 2.343 . S
Tb260 O275 2.353 . S
Tb260 O277 2.427 . S
Tb260 O278 2.513 . S
C261 O265 1.251 . S
C261 O267 1.263 . S
Tb262 O264 2.343 . S
Tb262 O267 2.353 . S
Tb262 O270 2.427 . S
Tb262 O271 2.513 . S
Tb262 O272 2.453 . S
Tb262 O273 2.596 . S
Tb262 O274 2.374 . S
O263 Tb260 2.453 . S
O263 C279 1.245 . S
O264 Tb260 2.596 . S
O264 Tb262 2.343 . S
O264 C279 1.259 . S
O265 Tb260 2.374 . S
O265 C261 1.251 . S
C266 O270 1.275 . S
C266 O271 1.246 . S
O267 C261 1.263 . S
O267 Tb262 2.353 . S
C268 O272 1.245 . S
C268 O273 1.259 . S
C269 O274 1.250 . S
C269 O275 1.263 . S
O270 Tb262 2.427 . S
O270 C266 1.275 . S
O271 Tb262 2.513 . S
O271 C266 1.246 . S
O272 Tb262 2.453 . S
O272 C268 1.245 . S
O273 Tb260 2.343 . S
O273 Tb262 2.596 . S
O273 C268 1.259 . S
O274 Tb262 2.374 . S
O274 C269 1.250 . S
O275 Tb260 2.353 . S
O275 C269 1.263 . S
C276 O277 1.275 . S
C276 O278 1.246 . S
O277 Tb260 2.427 . S
O277 C276 1.275 . S
O278 Tb260 2.513 . S
O278 C276 1.246 . S
C279 O263 1.245 . S
C279 O264 1.259 . S
Tb280 O283 2.453 . S
Tb280 O284 2.596 . S
Tb280 O285 2.374 . S
Tb280 O293 2.343 . S
Tb280 O295 2.353 . S
Tb280 O297 2.427 . S
Tb280 O298 2.513 . S
C281 O285 1.251 . S
C281 O287 1.263 . S
Tb282 O284 2.343 . S
Tb282 O287 2.353 . S
Tb282 O290 2.427 . S
Tb282 O291 2.513 . S
Tb282 O292 2.453 . S
Tb282 O293 2.596 . S
Tb282 O294 2.374 . S
O283 Tb280 2.453 . S
O283 C299 1.245 . S
O284 Tb280 2.596 . S
O284 Tb282 2.343 . S
O284 C299 1.259 . S
O285 Tb280 2.374 . S
O285 C281 1.251 . S
C286 O290 1.275 . S
C286 O291 1.246 . S
O287 C281 1.263 . S
O287 Tb282 2.353 . S
C288 O292 1.245 . S
C288 O293 1.259 . S
C289 O294 1.250 . S
C289 O295 1.263 . S
O290 Tb282 2.427 . S
O290 C286 1.275 . S
O291 Tb282 2.513 . S
O291 C286 1.246 . S
O292 Tb282 2.453 . S
O292 C288 1.245 . S
O293 Tb280 2.343 . S
O293 Tb282 2.596 . S
O293 C288 1.259 . S
O294 Tb282 2.374 . S
O294 C289 1.250 . S
O295 Tb280 2.353 . S
O295 C289 1.263 . S
C296 O297 1.275 . S
C296 O298 1.246 . S
O297 Tb280 2.427 . S
O297 C296 1.275 . S
O298 Tb280 2.513 . S
O298 C296 1.246 . S
C299 O283 1.245 . S
C299 O284 1.259 . S
Tb300 O303 2.453 . S
Tb300 O304 2.596 . S
Tb300 O305 2.374 . S
Tb300 O313 2.343 . S
Tb300 O315 2.353 . S
Tb300 O317 2.427 . S
Tb300 O318 2.513 . S
C301 O305 1.251 . S
C301 O307 1.263 . S
Tb302 O304 2.343 . S
Tb302 O307 2.353 . S
Tb302 O310 2.427 . S
Tb302 O311 2.513 . S
Tb302 O312 2.453 . S
Tb302 O313 2.596 . S
Tb302 O314 2.374 . S
O303 Tb300 2.453 . S
O303 C319 1.245 . S
O304 Tb300 2.596 . S
O304 Tb302 2.343 . S
O304 C319 1.259 . S
O305 Tb300 2.374 . S
O305 C301 1.251 . S
C306 O310 1.275 . S
C306 O311 1.246 . S
O307 C301 1.263 . S
O307 Tb302 2.353 . S
C308 O312 1.245 . S
C308 O313 1.259 . S
C309 O314 1.250 . S
C309 O315 1.263 . S
O310 Tb302 2.427 . S
O310 C306 1.275 . S
O311 Tb302 2.513 . S
O311 C306 1.246 . S
O312 Tb302 2.453 . S
O312 C308 1.245 . S
O313 Tb300 2.343 . S
O313 Tb302 2.596 . S
O313 C308 1.259 . S
O314 Tb302 2.374 . S
O314 C309 1.250 . S
O315 Tb300 2.353 . S
O315 C309 1.263 . S
C316 O317 1.275 . S
C316 O318 1.246 . S
O317 Tb300 2.427 . S
O317 C316 1.275 . S
O318 Tb300 2.513 . S
O318 C316 1.246 . S
C319 O303 1.245 . S
C319 O304 1.259 . S
H320 C332 0.930 . S
H321 C334 0.930 . S
H322 C335 0.930 . S
H323 C339 0.959 . S
H324 C339 0.959 . S
H325 C339 0.961 1_565 S
H326 C340 0.960 1_566 S
H327 C340 0.961 1_556 S
H328 C340 0.959 . S
H329 C343 0.929 . S
H330 C344 0.931 . S
H331 C346 0.930 . S
C332 H320 0.930 . S
C332 C333 1.399 . S
C332 C337 1.399 . S
C333 C332 1.399 . S
C333 C334 1.376 . S
C334 H321 0.930 . S
C334 C333 1.376 . S
C334 C335 1.388 . S
C335 H322 0.930 . S
C335 C334 1.388 . S
C335 C336 1.390 1_565 S
C336 C335 1.390 1_545 S
C336 C337 1.394 1_545 S
C336 C342 1.465 . S
C337 C332 1.399 . S
C337 C336 1.394 1_565 S
C337 C338 1.516 1_565 S
C338 C337 1.516 1_545 S
C338 C339 1.502 . S
C338 C340 1.561 . S
C338 C341 1.526 . S
C339 H323 0.959 . S
C339 H324 0.959 . S
C339 H325 0.961 1_545 S
C339 C338 1.502 . S
C340 H326 0.960 1_544 S
C340 H327 0.961 1_554 S
C340 H328 0.959 . S
C340 C338 1.561 . S
C341 C338 1.526 . S
C341 C342 1.396 . S
C341 C346 1.390 . S
C342 C336 1.465 . S
C342 C341 1.396 . S
C342 C343 1.399 . S
C343 H329 0.929 . S
C343 C342 1.399 . S
C343 C344 1.385 . S
C344 H330 0.931 . S
C344 C343 1.385 . S
C344 C345 1.389 . S
C345 C344 1.389 . S
C345 C346 1.387 . S
C346 H331 0.930 . S
C346 C341 1.390 . S
C346 C345 1.387 . S
H347 C359 0.930 . S
H348 C361 0.930 . S
H349 C362 0.930 . S
H350 C366 0.959 . S
H351 C366 0.959 . S
H352 C366 0.961 1_655 S
H353 C367 0.960 1_655 S
H354 C367 0.961 . S
H355 C367 0.959 . S
H356 C370 0.929 . S
H357 C371 0.931 . S
H358 C373 0.930 . S
C359 H347 0.930 . S
C359 C360 1.399 . S
C359 C364 1.399 . S
C360 C359 1.399 . S
C360 C361 1.376 . S
C361 H348 0.930 . S
C361 C360 1.376 . S
C361 C362 1.388 . S
C362 H349 0.930 . S
C362 C361 1.388 . S
C362 C363 1.390 1_655 S
C363 C362 1.390 1_455 S
C363 C364 1.394 1_455 S
C363 C369 1.465 . S
C364 C359 1.399 . S
C364 C363 1.394 1_655 S
C364 C365 1.516 1_655 S
C365 C364 1.516 1_455 S
C365 C366 1.502 . S
C365 C367 1.561 . S
C365 C368 1.526 . S
C366 H350 0.959 . S
C366 H351 0.959 . S
C366 H352 0.961 1_455 S
C366 C365 1.502 . S
C367 H353 0.960 1_455 S
C367 H354 0.961 . S
C367 H355 0.959 . S
C367 C365 1.561 . S
C368 C365 1.526 . S
C368 C369 1.396 . S
C368 C373 1.390 . S
C369 C363 1.465 . S
C369 C368 1.396 . S
C369 C370 1.399 . S
C370 H356 0.929 . S
C370 C369 1.399 . S
C370 C371 1.385 . S
C371 H357 0.931 . S
C371 C370 1.385 . S
C371 C372 1.389 . S
C372 C371 1.389 . S
C372 C373 1.387 . S
C373 H358 0.930 . S
C373 C368 1.390 . S
C373 C372 1.387 . S
H374 C386 0.930 . S
H375 C388 0.930 . S
H376 C389 0.930 . S
H377 C393 0.959 . S
H378 C393 0.959 1_545 S
H379 C393 0.961 . S
H380 C394 0.960 1_556 S
H381 C394 0.961 1_546 S
H382 C394 0.959 . S
H383 C397 0.929 . S
H384 C398 0.931 . S
H385 C400 0.930 . S
C386 H374 0.930 . S
C386 C387 1.399 . S
C386 C391 1.399 . S
C387 C386 1.399 . S
C387 C388 1.376 . S
C388 H375 0.930 . S
C388 C387 1.376 . S
C388 C389 1.388 . S
C389 H376 0.930 . S
C389 C388 1.388 . S
C389 C390 1.390 . S
C390 C389 1.390 . S
C390 C391 1.394 . S
C390 C396 1.520 . S
C391 C386 1.399 . S
C391 C390 1.394 . S
C391 C392 1.516 . S
C392 C391 1.516 . S
C392 C393 1.502 . S
C392 C394 1.561 . S
C392 C395 1.526 1_565 S
C393 H377 0.959 . S
C393 H378 0.959 1_565 S
C393 H379 0.961 . S
C393 C392 1.502 . S
C394 H380 0.960 1_554 S
C394 H381 0.961 1_564 S
C394 H382 0.959 . S
C394 C392 1.561 . S
C395 C392 1.526 1_545 S
C395 C396 1.376 1_545 S
C395 C400 1.390 . S
C396 C390 1.520 . S
C396 C395 1.376 1_565 S
C396 C397 1.367 1_565 S
C397 H383 0.929 . S
C397 C396 1.367 1_545 S
C397 C398 1.385 . S
C398 H384 0.931 . S
C398 C397 1.385 . S
C398 C399 1.389 . S
C399 C398 1.389 . S
C399 C400 1.387 . S
C400 H385 0.930 . S
C400 C395 1.390 . S
C400 C399 1.387 . S
H401 C413 0.930 . S
H402 C415 0.930 . S
H403 C416 0.930 . S
H404 C420 0.959 . S
H405 C420 0.959 1_455 S
H406 C420 0.961 . S
H407 C421 0.960 . S
H408 C421 0.961 . S
H409 C421 0.959 . S
H410 C424 0.929 . S
H411 C425 0.931 . S
H412 C427 0.930 . S
C413 H401 0.930 . S
C413 C414 1.399 . S
C413 C418 1.399 . S
C414 C413 1.399 . S
C414 C415 1.376 . S
C415 H402 0.930 . S
C415 C414 1.376 . S
C415 C416 1.388 . S
C416 H403 0.930 . S
C416 C415 1.388 . S
C416 C417 1.390 . S
C417 C416 1.390 . S
C417 C418 1.394 . S
C417 C423 1.504 . S
C418 C413 1.399 . S
C418 C417 1.394 . S
C418 C419 1.516 . S
C419 C418 1.516 . S
C419 C420 1.502 . S
C419 C421 1.561 . S
C419 C422 1.526 1_655 S
C420 H404 0.959 . S
C420 H405 0.959 1_655 S
C420 H406 0.961 . S
C420 C419 1.502 . S
C421 H407 0.960 . S
C421 H408 0.961 . S
C421 H409 0.959 . S
C421 C419 1.561 . S
C422 C419 1.526 1_455 S
C422 C423 1.384 1_455 S
C422 C427 1.390 . S
C423 C417 1.504 . S
C423 C422 1.384 1_655 S
C423 C424 1.374 1_655 S
C424 H410 0.929 . S
C424 C423 1.374 1_455 S
C424 C425 1.385 . S
C425 H411 0.931 . S
C425 C424 1.385 . S
C425 C426 1.389 . S
C426 C425 1.389 . S
C426 C427 1.387 . S
C427 H412 0.930 . S
C427 C422 1.390 . S
C427 C426 1.387 . S
H428 C440 0.930 . S
H429 C442 0.930 . S
H430 C443 0.930 . S
H431 C447 0.959 . S
H432 C447 0.959 . S
H433 C447 0.961 . S
H434 C448 0.960 . S
H435 C448 0.961 . S
H436 C448 0.959 . S
H437 C451 0.929 . S
H438 C452 0.931 . S
H439 C454 0.930 . S
C440 H428 0.930 . S
C440 C441 1.399 . S
C440 C445 1.399 . S
C441 C440 1.399 . S
C441 C442 1.376 1_554 S
C442 H429 0.930 . S
C442 C441 1.376 1_556 S
C442 C443 1.388 . S
C443 H430 0.930 . S
C443 C442 1.388 . S
C443 C444 1.390 1_556 S
C444 C443 1.390 1_554 S
C444 C445 1.394 . S
C444 C450 1.466 . S
C445 C440 1.399 . S
C445 C444 1.394 . S
C445 C446 1.516 . S
C446 C445 1.516 . S
C446 C447 1.502 . S
C446 C448 1.561 . S
C446 C449 1.526 . S
C447 H431 0.959 . S
C447 H432 0.959 . S
C447 H433 0.961 . S
C447 C446 1.502 . S
C448 H434 0.960 . S
C448 H435 0.961 . S
C448 H436 0.959 . S
C448 C446 1.561 . S
C449 C446 1.526 . S
C449 C450 1.407 . S
C449 C454 1.390 . S
C450 C444 1.466 . S
C450 C449 1.407 . S
C450 C451 1.389 1_554 S
C451 H437 0.929 . S
C451 C450 1.389 1_556 S
C451 C452 1.385 . S
C452 H438 0.931 . S
C452 C451 1.385 . S
C452 C453 1.389 1_556 S
C453 C452 1.389 1_554 S
C453 C454 1.387 . S
C454 H439 0.930 . S
C454 C449 1.390 . S
C454 C453 1.387 . S
H455 C467 0.930 . S
H456 C469 0.930 . S
H457 C470 0.930 . S
H458 C474 0.959 . S
H459 C474 0.959 . S
H460 C474 0.961 . S
H461 C475 0.960 . S
H462 C475 0.961 . S
H463 C475 0.959 . S
H464 C478 0.929 . S
H465 C479 0.931 . S
H466 C481 0.930 . S
C467 H455 0.930 . S
C467 C468 1.399 . S
C467 C472 1.399 . S
C468 C467 1.399 . S
C468 C469 1.376 1_556 S
C469 H456 0.930 . S
C469 C468 1.376 1_554 S
C469 C470 1.388 . S
C470 H457 0.930 . S
C470 C469 1.388 . S
C470 C471 1.390 1_554 S
C471 C470 1.390 1_556 S
C471 C472 1.394 . S
C471 C477 1.465 . S
C472 C467 1.399 . S
C472 C471 1.394 . S
C472 C473 1.516 . S
C473 C472 1.516 . S
C473 C474 1.502 . S
C473 C475 1.561 . S
C473 C476 1.526 . S
C474 H458 0.959 . S
C474 H459 0.959 . S
C474 H460 0.961 . S
C474 C473 1.502 . S
C475 H461 0.960 . S
C475 H462 0.961 . S
C475 H463 0.959 . S
C475 C473 1.561 . S
C476 C473 1.526 . S
C476 C477 1.396 . S
C476 C481 1.390 . S
C477 C471 1.465 . S
C477 C476 1.396 . S
C477 C478 1.399 1_556 S
C478 H464 0.929 . S
C478 C477 1.399 1_554 S
C478 C479 1.385 . S
C479 H465 0.931 . S
C479 C478 1.385 . S
C479 C480 1.389 1_554 S
C480 C479 1.389 1_556 S
C480 C481 1.387 . S
C481 H466 0.930 . S
C481 C476 1.390 . S
C481 C480 1.387 . S
H482 C494 0.930 1_556 S
H483 C496 0.930 . S
H484 C497 0.930 . S
H485 C501 0.959 1_554 S
H486 C501 0.959 . S
H487 C501 0.961 . S
H488 C502 0.960 . S
H489 C502 0.961 . S
H490 C502 0.959 . S
H491 C505 0.929 . S
H492 C506 0.931 . S
H493 C508 0.930 . S
C494 H482 0.930 1_554 S
C494 C495 1.399 . S
C494 C499 1.399 . S
C495 C494 1.399 . S
C495 C496 1.376 . S
C496 H483 0.930 . S
C496 C495 1.376 . S
C496 C497 1.388 . S
C497 H484 0.930 . S
C497 C496 1.388 . S
C497 C498 1.390 . S
C498 C497 1.390 . S
C498 C499 1.394 . S
C498 C504 1.465 . S
C499 C494 1.399 . S
C499 C498 1.394 . S
C499 C500 1.516 1_554 S
C500 C499 1.516 1_556 S
C500 C501 1.502 . S
C500 C502 1.561 . S
C500 C503 1.526 1_556 S
C501 H485 0.959 1_556 S
C501 H486 0.959 . S
C501 H487 0.961 . S
C501 C500 1.502 . S
C502 H488 0.960 . S
C502 H489 0.961 . S
C502 H490 0.959 . S
C502 C500 1.561 . S
C503 C500 1.526 1_554 S
C503 C504 1.396 . S
C503 C508 1.390 1_554 S
C504 C498 1.465 . S
C504 C503 1.396 . S
C504 C505 1.399 . S
C505 H491 0.929 . S
C505 C504 1.399 . S
C505 C506 1.385 . S
C506 H492 0.931 . S
C506 C505 1.385 . S
C506 C507 1.389 . S
C507 C506 1.389 . S
C507 C508 1.387 1_554 S
C508 H493 0.930 . S
C508 C503 1.390 1_556 S
C508 C507 1.387 1_556 S
H509 C521 0.930 . S
H510 C523 0.930 . S
H511 C524 0.930 . S
H512 C528 0.959 . S
H513 C528 0.959 . S
H514 C528 0.961 . S
H515 C529 0.960 . S
H516 C529 0.961 . S
H517 C529 0.959 . S
H518 C532 0.929 . S
H519 C533 0.931 . S
H520 C535 0.930 . S
C521 H509 0.930 . S
C521 C522 1.399 . S
C521 C526 1.399 . S
C522 C521 1.399 . S
C522 C523 1.376 1_556 S
C523 H510 0.930 . S
C523 C522 1.376 1_554 S
C523 C524 1.388 . S
C524 H511 0.930 . S
C524 C523 1.388 . S
C524 C525 1.390 1_554 S
C525 C524 1.390 1_556 S
C525 C526 1.394 . S
C525 C531 1.465 . S
C526 C521 1.399 . S
C526 C525 1.394 . S
C526 C527 1.516 . S
C527 C526 1.516 . S
C527 C528 1.502 . S
C527 C529 1.561 . S
C527 C530 1.526 . S
C528 H512 0.959 . S
C528 H513 0.959 . S
C528 H514 0.961 . S
C528 C527 1.502 . S
C529 H515 0.960 . S
C529 H516 0.961 . S
C529 H517 0.959 . S
C529 C527 1.561 . S
C530 C527 1.526 . S
C530 C531 1.396 . S
C530 C535 1.390 . S
C531 C525 1.465 . S
C531 C530 1.396 . S
C531 C532 1.399 1_556 S
C532 H518 0.929 . S
C532 C531 1.399 1_554 S
C532 C533 1.385 . S
C533 H519 0.931 . S
C533 C532 1.385 . S
C533 C534 1.389 1_554 S
C534 C533 1.389 1_556 S
C534 C535 1.387 . S
C535 H520 0.930 . S
C535 C530 1.390 . S
C535 C534 1.387 . S
H536 C548 0.930 . S
H537 C550 0.930 . S
H538 C551 0.930 . S
H539 C555 0.959 . S
H540 C555 0.959 . S
H541 C555 0.961 . S
H542 C556 0.960 . S
H543 C556 0.961 . S
H544 C556 0.959 . S
H545 C559 0.929 . S
H546 C560 0.931 . S
H547 C562 0.930 . S
C548 H536 0.930 . S
C548 C549 1.399 . S
C548 C553 1.399 . S
C549 C548 1.399 . S
C549 C550 1.376 . S
C550 H537 0.930 . S
C550 C549 1.376 . S
C550 C551 1.388 . S
C551 H538 0.930 . S
C551 C550 1.388 . S
C551 C552 1.390 . S
C552 C551 1.390 . S
C552 C553 1.394 . S
C552 C558 1.465 . S
C553 C548 1.399 . S
C553 C552 1.394 . S
C553 C554 1.516 . S
C554 C553 1.516 . S
C554 C555 1.502 . S
C554 C556 1.561 . S
C554 C557 1.526 . S
C555 H539 0.959 . S
C555 H540 0.959 . S
C555 H541 0.961 . S
C555 C554 1.502 . S
C556 H542 0.960 . S
C556 H543 0.961 . S
C556 H544 0.959 . S
C556 C554 1.561 . S
C557 C554 1.526 . S
C557 C558 1.396 . S
C557 C562 1.390 . S
C558 C552 1.465 . S
C558 C557 1.396 . S
C558 C559 1.399 . S
C559 H545 0.929 . S
C559 C558 1.399 . S
C559 C560 1.385 . S
C560 H546 0.931 . S
C560 C559 1.385 . S
C560 C561 1.389 . S
C561 C560 1.389 . S
C561 C562 1.387 . S
C562 H547 0.930 . S
C562 C557 1.390 . S
C562 C561 1.387 . S
H563 C575 0.930 . S
H564 C577 0.930 . S
H565 C578 0.930 . S
H566 C582 0.959 . S
H567 C582 0.959 . S
H568 C582 0.961 . S
H569 C583 0.960 . S
H570 C583 0.961 . S
H571 C583 0.959 . S
H572 C586 0.929 . S
H573 C587 0.931 . S
H574 C589 0.930 . S
C575 H563 0.930 . S
C575 C576 1.399 . S
C575 C580 1.399 . S
C576 C575 1.399 . S
C576 C577 1.376 . S
C577 H564 0.930 . S
C577 C576 1.376 . S
C577 C578 1.388 . S
C578 H565 0.930 . S
C578 C577 1.388 . S
C578 C579 1.390 . S
C579 C578 1.390 . S
C579 C580 1.394 . S
C579 C585 1.465 . S
C580 C575 1.399 . S
C580 C579 1.394 . S
C580 C581 1.516 . S
C581 C580 1.516 . S
C581 C582 1.502 . S
C581 C583 1.561 . S
C581 C584 1.526 . S
C582 H566 0.959 . S
C582 H567 0.959 . S
C582 H568 0.961 . S
C582 C581 1.502 . S
C583 H569 0.960 . S
C583 H570 0.961 . S
C583 H571 0.959 . S
C583 C581 1.561 . S
C584 C581 1.526 . S
C584 C585 1.396 . S
C584 C589 1.390 . S
C585 C579 1.465 . S
C585 C584 1.396 . S
C585 C586 1.399 . S
C586 H572 0.929 . S
C586 C585 1.399 . S
C586 C587 1.385 . S
C587 H573 0.931 . S
C587 C586 1.385 . S
C587 C588 1.389 . S
C588 C587 1.389 . S
C588 C589 1.387 . S
C589 H574 0.930 . S
C589 C584 1.390 . S
C589 C588 1.387 . S
H590 C602 0.930 . S
H591 C604 0.930 . S
H592 C605 0.930 . S
H593 C609 0.959 . S
H594 C609 0.959 . S
H595 C609 0.961 . S
H596 C610 0.960 . S
H597 C610 0.961 . S
H598 C610 0.959 . S
H599 C613 0.929 . S
H600 C614 0.931 . S
H601 C616 0.930 . S
C602 H590 0.930 . S
C602 C603 1.399 . S
C602 C607 1.399 . S
C603 C602 1.399 . S
C603 C604 1.376 . S
C604 H591 0.930 . S
C604 C603 1.376 . S
C604 C605 1.388 . S
C605 H592 0.930 . S
C605 C604 1.388 . S
C605 C606 1.390 . S
C606 C605 1.390 . S
C606 C607 1.394 . S
C606 C612 1.465 . S
C607 C602 1.399 . S
C607 C606 1.394 . S
C607 C608 1.516 . S
C608 C607 1.516 . S
C608 C609 1.502 . S
C608 C610 1.561 . S
C608 C611 1.526 . S
C609 H593 0.959 . S
C609 H594 0.959 . S
C609 H595 0.961 . S
C609 C608 1.502 . S
C610 H596 0.960 . S
C610 H597 0.961 . S
C610 H598 0.959 . S
C610 C608 1.561 . S
C611 C608 1.526 . S
C611 C612 1.396 . S
C611 C616 1.390 . S
C612 C606 1.465 . S
C612 C611 1.396 . S
C612 C613 1.399 . S
C613 H599 0.929 . S
C613 C612 1.399 . S
C613 C614 1.385 . S
C614 H600 0.931 . S
C614 C613 1.385 . S
C614 C615 1.389 . S
C615 C614 1.389 . S
C615 C616 1.387 . S
C616 H601 0.930 . S
C616 C611 1.390 . S
C616 C615 1.387 . S
H617 C629 0.930 . S
H618 C631 0.930 . S
H619 C632 0.930 . S
H620 C636 0.959 . S
H621 C636 0.959 . S
H622 C636 0.961 . S
H623 C637 0.960 . S
H624 C637 0.961 . S
H625 C637 0.959 . S
H626 C640 0.929 . S
H627 C641 0.931 . S
H628 C643 0.930 . S
C629 H617 0.930 . S
C629 C630 1.399 . S
C629 C634 1.399 . S
C630 C629 1.399 . S
C630 C631 1.376 . S
C631 H618 0.930 . S
C631 C630 1.376 . S
C631 C632 1.388 . S
C632 H619 0.930 . S
C632 C631 1.388 . S
C632 C633 1.390 . S
C633 C632 1.390 . S
C633 C634 1.394 . S
C633 C639 1.465 . S
C634 C629 1.399 . S
C634 C633 1.394 . S
C634 C635 1.516 . S
C635 C634 1.516 . S
C635 C636 1.502 . S
C635 C637 1.561 . S
C635 C638 1.526 . S
C636 H620 0.959 . S
C636 H621 0.959 . S
C636 H622 0.961 . S
C636 C635 1.502 . S
C637 H623 0.960 . S
C637 H624 0.961 . S
C637 H625 0.959 . S
C637 C635 1.561 . S
C638 C635 1.526 . S
C638 C639 1.396 . S
C638 C643 1.390 . S
C639 C633 1.465 . S
C639 C638 1.396 . S
C639 C640 1.399 . S
C640 H626 0.929 . S
C640 C639 1.399 . S
C640 C641 1.385 . S
C641 H627 0.931 . S
C641 C640 1.385 . S
C641 C642 1.389 . S
C642 C641 1.389 . S
C642 C643 1.387 . S
C643 H628 0.930 . S
C643 C638 1.390 . S
C643 C642 1.387 . S
H644 C656 0.930 . S
H645 C658 0.930 . S
H646 C659 0.930 . S
H647 C663 0.959 . S
H648 C663 0.959 1_545 S
H649 C663 0.961 . S
H650 C664 0.960 . S
H651 C664 0.961 1_545 S
H652 C664 0.959 . S
H653 C667 0.929 . S
H654 C668 0.931 . S
H655 C670 0.930 . S
C656 H644 0.930 . S
C656 C657 1.399 . S
C656 C661 1.399 . S
C657 C656 1.399 . S
C657 C658 1.376 . S
C658 H645 0.930 . S
C658 C657 1.376 . S
C658 C659 1.388 . S
C659 H646 0.930 . S
C659 C658 1.388 . S
C659 C660 1.390 . S
C660 C659 1.390 . S
C660 C661 1.394 . S
C660 C666 1.465 . S
C661 C656 1.399 . S
C661 C660 1.394 . S
C661 C662 1.516 . S
C662 C661 1.516 . S
C662 C663 1.502 . S
C662 C664 1.561 . S
C662 C665 1.526 1_565 S
C663 H647 0.959 . S
C663 H648 0.959 1_565 S
C663 H649 0.961 . S
C663 C662 1.502 . S
C664 H650 0.960 . S
C664 H651 0.961 1_565 S
C664 H652 0.959 . S
C664 C662 1.561 . S
C665 C662 1.526 1_545 S
C665 C666 1.396 1_545 S
C665 C670 1.390 . S
C666 C660 1.465 . S
C666 C665 1.396 1_565 S
C666 C667 1.399 1_565 S
C667 H653 0.929 . S
C667 C666 1.399 1_545 S
C667 C668 1.385 . S
C668 H654 0.931 . S
C668 C667 1.385 . S
C668 C669 1.389 . S
C669 C668 1.389 . S
C669 C670 1.387 . S
C670 H655 0.930 . S
C670 C665 1.390 . S
C670 C669 1.387 . S
H671 C683 0.930 . S
H672 C685 0.930 . S
H673 C686 0.930 . S
H674 C690 0.959 . S
H675 C690 0.959 . S
H676 C690 0.961 1_455 S
H677 C691 0.960 1_455 S
H678 C691 0.961 . S
H679 C691 0.959 . S
H680 C694 0.929 . S
H681 C695 0.931 . S
H682 C697 0.930 . S
C683 H671 0.930 . S
C683 C684 1.399 . S
C683 C688 1.399 . S
C684 C683 1.399 . S
C684 C685 1.376 . S
C685 H672 0.930 . S
C685 C684 1.376 . S
C685 C686 1.388 . S
C686 H673 0.930 . S
C686 C685 1.388 . S
C686 C687 1.390 1_455 S
C687 C686 1.390 1_655 S
C687 C688 1.394 1_655 S
C687 C693 1.465 . S
C688 C683 1.399 . S
C688 C687 1.394 1_455 S
C688 C689 1.516 1_455 S
C689 C688 1.516 1_655 S
C689 C690 1.502 . S
C689 C691 1.561 . S
C689 C692 1.526 . S
C690 H674 0.959 . S
C690 H675 0.959 . S
C690 H676 0.961 1_655 S
C690 C689 1.502 . S
C691 H677 0.960 1_655 S
C691 H678 0.961 . S
C691 H679 0.959 . S
C691 C689 1.561 . S
C692 C689 1.526 . S
C692 C693 1.396 . S
C692 C697 1.390 . S
C693 C687 1.465 . S
C693 C692 1.396 . S
C693 C694 1.399 . S
C694 H680 0.929 . S
C694 C693 1.399 . S
C694 C695 1.385 . S
C695 H681 0.931 . S
C695 C694 1.385 . S
C695 C696 1.389 . S
C696 C695 1.389 . S
C696 C697 1.387 . S
C697 H682 0.930 . S
C697 C692 1.390 . S
C697 C696 1.387 . S
H698 C710 0.930 . S
H699 C712 0.930 . S
H700 C713 0.930 . S
H701 C717 0.959 . S
H702 C717 0.959 . S
H703 C717 0.961 1_565 S
H704 C718 0.960 1_565 S
H705 C718 0.961 . S
H706 C718 0.959 . S
H707 C721 0.929 . S
H708 C722 0.931 . S
H709 C724 0.930 . S
C710 H698 0.930 . S
C710 C711 1.399 . S
C710 C715 1.399 . S
C711 C710 1.399 . S
C711 C712 1.376 . S
C712 H699 0.930 . S
C712 C711 1.376 . S
C712 C713 1.388 . S
C713 H700 0.930 . S
C713 C712 1.388 . S
C713 C714 1.390 1_565 S
C714 C713 1.390 1_545 S
C714 C715 1.394 1_545 S
C714 C720 1.465 . S
C715 C710 1.399 . S
C715 C714 1.394 1_565 S
C715 C716 1.516 1_565 S
C716 C715 1.516 1_545 S
C716 C717 1.502 . S
C716 C718 1.561 . S
C716 C719 1.526 . S
C717 H701 0.959 . S
C717 H702 0.959 . S
C717 H703 0.961 1_545 S
C717 C716 1.502 . S
C718 H704 0.960 1_545 S
C718 H705 0.961 . S
C718 H706 0.959 . S
C718 C716 1.561 . S
C719 C716 1.526 . S
C719 C720 1.396 . S
C719 C724 1.390 . S
C720 C714 1.465 . S
C720 C719 1.396 . S
C720 C721 1.399 . S
C721 H707 0.929 . S
C721 C720 1.399 . S
C721 C722 1.385 . S
C722 H708 0.931 . S
C722 C721 1.385 . S
C722 C723 1.389 . S
C723 C722 1.389 . S
C723 C724 1.387 . S
C724 H709 0.930 . S
C724 C719 1.390 . S
C724 C723 1.387 . S
H725 C737 0.930 . S
H726 C739 0.930 . S
H727 C740 0.930 . S
H728 C744 0.959 . S
H729 C744 0.959 1_655 S
H730 C744 0.961 . S
H731 C745 0.960 . S
H732 C745 0.961 1_655 S
H733 C745 0.959 . S
H734 C748 0.929 . S
H735 C749 0.931 . S
H736 C751 0.930 . S
C737 H725 0.930 . S
C737 C738 1.399 . S
C737 C742 1.399 . S
C738 C737 1.399 . S
C738 C739 1.376 . S
C739 H726 0.930 . S
C739 C738 1.376 . S
C739 C740 1.388 . S
C740 H727 0.930 . S
C740 C739 1.388 . S
C740 C741 1.390 . S
C741 C740 1.390 . S
C741 C742 1.394 . S
C741 C747 1.465 . S
C742 C737 1.399 . S
C742 C741 1.394 . S
C742 C743 1.516 . S
C743 C742 1.516 . S
C743 C744 1.502 . S
C743 C745 1.561 . S
C743 C746 1.526 1_455 S
C744 H728 0.959 . S
C744 H729 0.959 1_455 S
C744 H730 0.961 . S
C744 C743 1.502 . S
C745 H731 0.960 . S
C745 H732 0.961 1_455 S
C745 H733 0.959 . S
C745 C743 1.561 . S
C746 C743 1.526 1_655 S
C746 C747 1.396 1_655 S
C746 C751 1.390 . S
C747 C741 1.465 . S
C747 C746 1.396 1_455 S
C747 C748 1.399 1_455 S
C748 H734 0.929 . S
C748 C747 1.399 1_655 S
C748 C749 1.385 . S
C749 H735 0.931 . S
C749 C748 1.385 . S
C749 C750 1.389 . S
C750 C749 1.389 . S
C750 C751 1.387 . S
C751 H736 0.930 . S
C751 C746 1.390 . S
C751 C750 1.387 . S
H752 C764 0.930 . S
H753 C766 0.930 1_556 S
H754 C767 0.930 1_556 S
H755 C771 0.959 . S
H756 C771 0.959 . S
H757 C771 0.961 . S
H758 C772 0.960 . S
H759 C772 0.961 . S
H760 C772 0.959 . S
H761 C775 0.929 1_556 S
H762 C776 0.931 . S
H763 C778 0.930 . S
C764 H752 0.930 . S
C764 C765 1.399 . S
C764 C769 1.399 . S
C765 C764 1.399 . S
C765 C766 1.376 . S
C766 H753 0.930 1_554 S
C766 C765 1.376 . S
C766 C767 1.388 . S
C767 H754 0.930 1_554 S
C767 C766 1.388 . S
C767 C768 1.390 . S
C768 C767 1.390 . S
C768 C769 1.394 . S
C768 C774 1.465 . S
C769 C764 1.399 . S
C769 C768 1.394 . S
C769 C770 1.516 . S
C770 C769 1.516 . S
C770 C771 1.502 . S
C770 C772 1.561 . S
C770 C773 1.526 . S
C771 H755 0.959 . S
C771 H756 0.959 . S
C771 H757 0.961 . S
C771 C770 1.502 . S
C772 H758 0.960 . S
C772 H759 0.961 . S
C772 H760 0.959 . S
C772 C770 1.561 . S
C773 C770 1.526 . S
C773 C774 1.396 . S
C773 C778 1.390 . S
C774 C768 1.465 . S
C774 C773 1.396 . S
C774 C775 1.399 . S
C775 H761 0.929 1_554 S
C775 C774 1.399 . S
C775 C776 1.385 . S
C776 H762 0.931 . S
C776 C775 1.385 . S
C776 C777 1.389 . S
C777 C776 1.389 . S
C777 C778 1.387 . S
C778 H763 0.930 . S
C778 C773 1.390 . S
C778 C777 1.387 . S
H779 C791 0.930 . S
H780 C793 0.930 . S
H781 C794 0.930 1_554 S
H782 C798 0.959 . S
H783 C798 0.959 . S
H784 C798 0.961 . S
H785 C799 0.960 . S
H786 C799 0.961 . S
H787 C799 0.959 . S
H788 C802 0.941 . S
H789 C803 0.931 1_554 S
H790 C805 0.930 . S
C791 H779 0.930 . S
C791 C792 1.399 . S
C791 C796 1.399 . S
C792 C791 1.399 . S
C792 C793 1.376 . S
C793 H780 0.930 . S
C793 C792 1.376 . S
C793 C794 1.388 . S
C794 H781 0.930 1_556 S
C794 C793 1.388 . S
C794 C795 1.390 . S
C795 C794 1.390 . S
C795 C796 1.394 . S
C795 C801 1.465 . S
C796 C791 1.399 . S
C796 C795 1.394 . S
C796 C797 1.516 . S
C797 C796 1.516 . S
C797 C798 1.502 . S
C797 C799 1.561 . S
C797 C800 1.526 . S
C798 H782 0.959 . S
C798 H783 0.959 . S
C798 H784 0.961 . S
C798 C797 1.502 . S
C799 H785 0.960 . S
C799 H786 0.961 . S
C799 H787 0.959 . S
C799 C797 1.561 . S
C800 C797 1.526 . S
C800 C801 1.396 . S
C800 C805 1.390 . S
C801 C795 1.465 . S
C801 C800 1.396 . S
C801 C802 1.387 1_556 S
C802 H788 0.941 . S
C802 C801 1.387 1_554 S
C802 C803 1.384 1_554 S
C803 H789 0.931 1_556 S
C803 C802 1.384 1_556 S
C803 C804 1.389 . S
C804 C803 1.389 . S
C804 C805 1.387 . S
C805 H790 0.930 . S
C805 C800 1.390 . S
C805 C804 1.387 . S
H806 C818 0.930 1_556 S
H807 C820 0.930 . S
H808 C821 0.930 . S
H809 C825 0.959 1_554 S
H810 C825 0.959 . S
H811 C825 0.961 . S
H812 C826 0.960 . S
H813 C826 0.961 . S
H814 C826 0.959 . S
H815 C829 0.929 . S
H816 C830 0.931 . S
H817 C832 0.930 . S
C818 H806 0.930 1_554 S
C818 C819 1.399 . S
C818 C823 1.399 . S
C819 C818 1.399 . S
C819 C820 1.376 . S
C820 H807 0.930 . S
C820 C819 1.376 . S
C820 C821 1.388 . S
C821 H808 0.930 . S
C821 C820 1.388 . S
C821 C822 1.390 . S
C822 C821 1.390 . S
C822 C823 1.394 . S
C822 C828 1.465 . S
C823 C818 1.399 . S
C823 C822 1.394 . S
C823 C824 1.516 . S
C824 C823 1.516 . S
C824 C825 1.502 1_554 S
C824 C826 1.561 1_554 S
C824 C827 1.526 . S
C825 H809 0.959 1_556 S
C825 H810 0.959 . S
C825 H811 0.961 . S
C825 C824 1.502 1_556 S
C826 H812 0.960 . S
C826 H813 0.961 . S
C826 H814 0.959 . S
C826 C824 1.561 1_556 S
C827 C824 1.526 . S
C827 C828 1.396 . S
C827 C832 1.390 . S
C828 C822 1.465 . S
C828 C827 1.396 . S
C828 C829 1.399 . S
C829 H815 0.929 . S
C829 C828 1.399 . S
C829 C830 1.385 . S
C830 H816 0.931 . S
C830 C829 1.385 . S
C830 C831 1.389 . S
C831 C830 1.389 . S
C831 C832 1.387 . S
C832 H817 0.930 . S
C832 C827 1.390 . S
C832 C831 1.387 . S
H833 C845 0.930 . S
H834 C847 0.930 1_554 S
H835 C848 0.929 1_554 S
H836 C852 0.959 . S
H837 C852 0.959 . S
H838 C852 0.961 . S
H839 C853 0.960 . S
H840 C853 0.961 . S
H841 C853 0.959 . S
H842 C856 0.929 1_554 S
H843 C857 0.931 . S
H844 C859 0.930 . S
C845 H833 0.930 . S
C845 C846 1.399 . S
C845 C850 1.399 . S
C846 C845 1.399 . S
C846 C847 1.376 . S
C847 H834 0.930 1_556 S
C847 C846 1.376 . S
C847 C848 1.388 . S
C848 H835 0.929 1_556 S
C848 C847 1.388 . S
C848 C849 1.391 . S
C849 C848 1.391 . S
C849 C850 1.394 . S
C849 C855 1.465 . S
C850 C845 1.399 . S
C850 C849 1.394 . S
C850 C851 1.516 . S
C851 C850 1.516 . S
C851 C852 1.502 . S
C851 C853 1.561 . S
C851 C854 1.526 . S
C852 H836 0.959 . S
C852 H837 0.959 . S
C852 H838 0.961 . S
C852 C851 1.502 . S
C853 H839 0.960 . S
C853 H840 0.961 . S
C853 H841 0.959 . S
C853 C851 1.561 . S
C854 C851 1.526 . S
C854 C855 1.396 . S
C854 C859 1.390 . S
C855 C849 1.465 . S
C855 C854 1.396 . S
C855 C856 1.399 . S
C856 H842 0.929 1_556 S
C856 C855 1.399 . S
C856 C857 1.385 . S
C857 H843 0.931 . S
C857 C856 1.385 . S
C857 C858 1.389 . S
C858 C857 1.389 . S
C858 C859 1.387 . S
C859 H844 0.930 . S
C859 C854 1.390 . S
C859 C858 1.387 . S
H860 C872 0.930 . S
H861 C874 0.930 . S
H862 C875 0.930 . S
H863 C879 0.959 . S
H864 C879 0.959 . S
H865 C879 0.961 . S
H866 C880 0.960 . S
H867 C880 0.961 . S
H868 C880 0.959 . S
H869 C883 0.929 . S
H870 C884 0.931 . S
H871 C886 0.930 . S
C872 H860 0.930 . S
C872 C873 1.399 . S
C872 C877 1.399 . S
C873 C872 1.399 . S
C873 C874 1.376 . S
C874 H861 0.930 . S
C874 C873 1.376 . S
C874 C875 1.388 . S
C875 H862 0.930 . S
C875 C874 1.388 . S
C875 C876 1.390 . S
C876 C875 1.390 . S
C876 C877 1.394 . S
C876 C882 1.465 . S
C877 C872 1.399 . S
C877 C876 1.394 . S
C877 C878 1.516 . S
C878 C877 1.516 . S
C878 C879 1.502 . S
C878 C880 1.561 . S
C878 C881 1.526 . S
C879 H863 0.959 . S
C879 H864 0.959 . S
C879 H865 0.961 . S
C879 C878 1.502 . S
C880 H866 0.960 . S
C880 H867 0.961 . S
C880 H868 0.959 . S
C880 C878 1.561 . S
C881 C878 1.526 . S
C881 C882 1.396 . S
C881 C886 1.390 . S
C882 C876 1.465 . S
C882 C881 1.396 . S
C882 C883 1.399 . S
C883 H869 0.929 . S
C883 C882 1.399 . S
C883 C884 1.385 . S
C884 H870 0.931 . S
C884 C883 1.385 . S
C884 C885 1.389 . S
C885 C884 1.389 . S
C885 C886 1.387 . S
C886 H871 0.930 . S
C886 C881 1.390 . S
C886 C885 1.387 . S
H887 C899 0.930 . S
H888 C901 0.930 . S
H889 C902 0.930 . S
H890 C906 0.959 . S
H891 C906 0.959 . S
H892 C906 0.961 . S
H893 C907 0.960 . S
H894 C907 0.961 . S
H895 C907 0.959 . S
H896 C910 0.929 . S
H897 C911 0.931 . S
H898 C913 0.930 . S
C899 H887 0.930 . S
C899 C900 1.399 . S
C899 C904 1.399 . S
C900 C899 1.399 . S
C900 C901 1.376 . S
C901 H888 0.930 . S
C901 C900 1.376 . S
C901 C902 1.388 . S
C902 H889 0.930 . S
C902 C901 1.388 . S
C902 C903 1.390 . S
C903 C902 1.390 . S
C903 C904 1.394 . S
C903 C909 1.465 . S
C904 C899 1.399 . S
C904 C903 1.394 . S
C904 C905 1.516 . S
C905 C904 1.516 . S
C905 C906 1.502 . S
C905 C907 1.561 . S
C905 C908 1.526 . S
C906 H890 0.959 . S
C906 H891 0.959 . S
C906 H892 0.961 . S
C906 C905 1.502 . S
C907 H893 0.960 . S
C907 H894 0.961 . S
C907 H895 0.959 . S
C907 C905 1.561 . S
C908 C905 1.526 . S
C908 C909 1.396 . S
C908 C913 1.390 . S
C909 C903 1.465 . S
C909 C908 1.396 . S
C909 C910 1.399 . S
C910 H896 0.929 . S
C910 C909 1.399 . S
C910 C911 1.385 . S
C911 H897 0.931 . S
C911 C910 1.385 . S
C911 C912 1.389 . S
C912 C911 1.389 . S
C912 C913 1.387 . S
C913 H898 0.930 . S
C913 C908 1.390 . S
C913 C912 1.387 . S
H914 C926 0.930 . S
H915 C928 0.930 . S
H916 C929 0.930 . S
H917 C933 0.959 . S
H918 C933 0.959 . S
H919 C933 0.961 . S
H920 C934 0.960 . S
H921 C934 0.961 . S
H922 C934 0.959 . S
H923 C937 0.929 . S
H924 C938 0.931 . S
H925 C940 0.930 . S
C926 H914 0.930 . S
C926 C927 1.399 . S
C926 C931 1.399 . S
C927 C926 1.399 . S
C927 C928 1.376 . S
C928 H915 0.930 . S
C928 C927 1.376 . S
C928 C929 1.388 . S
C929 H916 0.930 . S
C929 C928 1.388 . S
C929 C930 1.390 . S
C930 C929 1.390 . S
C930 C931 1.394 . S
C930 C936 1.465 . S
C931 C926 1.399 . S
C931 C930 1.394 . S
C931 C932 1.516 . S
C932 C931 1.516 . S
C932 C933 1.502 . S
C932 C934 1.561 . S
C932 C935 1.526 . S
C933 H917 0.959 . S
C933 H918 0.959 . S
C933 H919 0.961 . S
C933 C932 1.502 . S
C934 H920 0.960 . S
C934 H921 0.961 . S
C934 H922 0.959 . S
C934 C932 1.561 . S
C935 C932 1.526 . S
C935 C936 1.396 . S
C935 C940 1.390 . S
C936 C930 1.465 . S
C936 C935 1.396 . S
C936 C937 1.399 . S
C937 H923 0.929 . S
C937 C936 1.399 . S
C937 C938 1.385 . S
C938 H924 0.931 . S
C938 C937 1.385 . S
C938 C939 1.389 . S
C939 C938 1.389 . S
C939 C940 1.387 . S
C940 H925 0.930 . S
C940 C935 1.390 . S
C940 C939 1.387 . S
H941 C953 0.930 . S
H942 C955 0.930 . S
H943 C956 0.930 . S
H944 C960 0.959 . S
H945 C960 0.959 . S
H946 C960 0.961 . S
H947 C961 0.960 . S
H948 C961 0.961 . S
H949 C961 0.959 . S
H950 C964 0.929 . S
H951 C965 0.931 . S
H952 C967 0.930 . S
C953 H941 0.930 . S
C953 C954 1.399 . S
C953 C958 1.399 . S
C954 C953 1.399 . S
C954 C955 1.376 . S
C955 H942 0.930 . S
C955 C954 1.376 . S
C955 C956 1.388 . S
C956 H943 0.930 . S
C956 C955 1.388 . S
C956 C957 1.390 . S
C957 C956 1.390 . S
C957 C958 1.394 . S
C957 C963 1.465 . S
C958 C953 1.399 . S
C958 C957 1.394 . S
C958 C959 1.516 . S
C959 C958 1.516 . S
C959 C960 1.502 . S
C959 C961 1.561 . S
C959 C962 1.526 . S
C960 H944 0.959 . S
C960 H945 0.959 . S
C960 H946 0.961 . S
C960 C959 1.502 . S
C961 H947 0.960 . S
C961 H948 0.961 . S
C961 H949 0.959 . S
C961 C959 1.561 . S
C962 C959 1.526 . S
C962 C963 1.396 . S
C962 C967 1.390 . S
C963 C957 1.465 . S
C963 C962 1.396 . S
C963 C964 1.399 . S
C964 H950 0.929 . S
C964 C963 1.399 . S
C964 C965 1.385 . S
C965 H951 0.931 . S
C965 C964 1.385 . S
C965 C966 1.389 . S
C966 C965 1.389 . S
C966 C967 1.387 . S
C967 H952 0.930 . S
C967 C962 1.390 . S
C967 C966 1.387 . S
H968 C980 0.930 . S
H969 C982 0.930 . S
H970 C983 0.930 . S
H971 C987 0.959 . S
H972 C987 0.959 . S
H973 C987 0.961 . S
H974 C988 0.960 . S
H975 C988 0.961 . S
H976 C988 0.959 . S
H977 C991 0.929 . S
H978 C992 0.931 . S
H979 C994 0.930 . S
C980 H968 0.930 . S
C980 C981 1.399 . S
C980 C985 1.399 . S
C981 C980 1.399 . S
C981 C982 1.376 . S
C982 H969 0.930 . S
C982 C981 1.376 . S
C982 C983 1.388 . S
C983 H970 0.930 . S
C983 C982 1.388 . S
C983 C984 1.390 . S
C984 C983 1.390 . S
C984 C985 1.394 . S
C984 C990 1.465 . S
C985 C980 1.399 . S
C985 C984 1.394 . S
C985 C986 1.516 . S
C986 C985 1.516 . S
C986 C987 1.502 . S
C986 C988 1.561 . S
C986 C989 1.526 . S
C987 H971 0.959 . S
C987 H972 0.959 . S
C987 H973 0.961 . S
C987 C986 1.502 . S
C988 H974 0.960 . S
C988 H975 0.961 . S
C988 H976 0.959 . S
C988 C986 1.561 . S
C989 C986 1.526 . S
C989 C990 1.396 . S
C989 C994 1.390 . S
C990 C984 1.465 . S
C990 C989 1.396 . S
C990 C991 1.399 . S
C991 H977 0.929 . S
C991 C990 1.399 . S
C991 C992 1.385 . S
C992 H978 0.931 . S
C992 C991 1.385 . S
C992 C993 1.389 . S
C993 C992 1.389 . S
C993 C994 1.387 . S
C994 H979 0.930 . S
C994 C989 1.390 . S
C994 C993 1.387 . S
H995 C1007 0.930 . S
H996 C1009 0.930 . S
H997 C1010 0.930 . S
H998 C1014 0.959 . S
H999 C1014 0.959 . S
H1000 C1014 0.961 . S
H1001 C1015 0.960 . S
H1002 C1015 0.961 . S
H1003 C1015 0.959 . S
H1004 C1018 0.929 . S
H1005 C1019 0.931 . S
H1006 C1021 0.930 . S
C1007 H995 0.930 . S
C1007 C1008 1.399 . S
C1007 C1012 1.399 . S
C1008 C1007 1.399 . S
C1008 C1009 1.376 1_554 S
C1009 H996 0.930 . S
C1009 C1008 1.376 1_556 S
C1009 C1010 1.388 . S
C1010 H997 0.930 . S
C1010 C1009 1.388 . S
C1010 C1011 1.390 1_556 S
C1011 C1010 1.390 1_554 S
C1011 C1012 1.394 . S
C1011 C1017 1.465 . S
C1012 C1007 1.399 . S
C1012 C1011 1.394 . S
C1012 C1013 1.516 . S
C1013 C1012 1.516 . S
C1013 C1014 1.502 . S
C1013 C1015 1.561 . S
C1013 C1016 1.526 . S
C1014 H998 0.959 . S
C1014 H999 0.959 . S
C1014 H1000 0.961 . S
C1014 C1013 1.502 . S
C1015 H1001 0.960 . S
C1015 H1002 0.961 . S
C1015 H1003 0.959 . S
C1015 C1013 1.561 . S
C1016 C1013 1.526 . S
C1016 C1017 1.396 . S
C1016 C1021 1.390 . S
C1017 C1011 1.465 . S
C1017 C1016 1.396 . S
C1017 C1018 1.399 . S
C1018 H1004 0.929 . S
C1018 C1017 1.399 . S
C1018 C1019 1.385 . S
C1019 H1005 0.931 . S
C1019 C1018 1.385 . S
C1019 C1020 1.389 . S
C1020 C1019 1.389 . S
C1020 C1021 1.387 . S
C1021 H1006 0.930 . S
C1021 C1016 1.390 . S
C1021 C1020 1.387 . S
H1022 C1034 0.930 1_554 S
H1023 C1036 0.930 . S
H1024 C1037 0.930 . S
H1025 C1041 0.959 . S
H1026 C1041 0.959 . S
H1027 C1041 0.961 . S
H1028 C1042 0.960 . S
H1029 C1042 0.961 . S
H1030 C1042 0.959 . S
H1031 C1045 0.929 . S
H1032 C1046 0.931 . S
H1033 C1048 0.930 . S
C1034 H1022 0.930 1_556 S
C1034 C1035 1.399 . S
C1034 C1039 1.399 . S
C1035 C1034 1.399 . S
C1035 C1036 1.376 . S
C1036 H1023 0.930 . S
C1036 C1035 1.376 . S
C1036 C1037 1.388 . S
C1037 H1024 0.930 . S
C1037 C1036 1.388 . S
C1037 C1038 1.390 . S
C1038 C1037 1.390 . S
C1038 C1039 1.394 . S
C1038 C1044 1.465 . S
C1039 C1034 1.399 . S
C1039 C1038 1.394 . S
C1039 C1040 1.516 . S
C1040 C1039 1.516 . S
C1040 C1041 1.502 1_556 S
C1040 C1042 1.561 . S
C1040 C1043 1.526 . S
C1041 H1025 0.959 . S
C1041 H1026 0.959 . S
C1041 H1027 0.961 . S
C1041 C1040 1.502 1_554 S
C1042 H1028 0.960 . S
C1042 H1029 0.961 . S
C1042 H1030 0.959 . S
C1042 C1040 1.561 . S
C1043 C1040 1.526 . S
C1043 C1044 1.396 . S
C1043 C1048 1.390 . S
C1044 C1038 1.465 . S
C1044 C1043 1.396 . S
C1044 C1045 1.399 . S
C1045 H1031 0.929 . S
C1045 C1044 1.399 . S
C1045 C1046 1.385 . S
C1046 H1032 0.931 . S
C1046 C1045 1.385 . S
C1046 C1047 1.389 . S
C1047 C1046 1.389 . S
C1047 C1048 1.387 . S
C1048 H1033 0.930 . S
C1048 C1043 1.390 . S
C1048 C1047 1.387 . S
H1049 C1061 0.930 1_556 S
H1050 C1063 0.930 . S
H1051 C1064 0.930 . S
H1052 C1068 0.959 . S
H1053 C1068 0.959 . S
H1054 C1068 0.961 1_556 S
H1055 C1069 0.960 . S
H1056 C1069 0.961 . S
H1057 C1069 0.959 . S
H1058 C1072 0.929 . S
H1059 C1073 0.931 . S
H1060 C1075 0.930 . S
C1061 H1049 0.930 1_554 S
C1061 C1062 1.399 . S
C1061 C1066 1.399 . S
C1062 C1061 1.399 . S
C1062 C1063 1.376 . S
C1063 H1050 0.930 . S
C1063 C1062 1.376 . S
C1063 C1064 1.388 . S
C1064 H1051 0.930 . S
C1064 C1063 1.388 . S
C1064 C1065 1.390 . S
C1065 C1064 1.390 . S
C1065 C1066 1.394 . S
C1065 C1071 1.465 . S
C1066 C1061 1.399 . S
C1066 C1065 1.394 . S
C1066 C1067 1.516 . S
C1067 C1066 1.516 . S
C1067 C1068 1.502 . S
C1067 C1069 1.561 1_554 S
C1067 C1070 1.526 . S
C1068 H1052 0.959 . S
C1068 H1053 0.959 . S
C1068 H1054 0.961 1_554 S
C1068 C1067 1.502 . S
C1069 H1055 0.960 . S
C1069 H1056 0.961 . S
C1069 H1057 0.959 . S
C1069 C1067 1.561 1_556 S
C1070 C1067 1.526 . S
C1070 C1071 1.396 . S
C1070 C1075 1.390 . S
C1071 C1065 1.465 . S
C1071 C1070 1.396 . S
C1071 C1072 1.399 . S
C1072 H1058 0.929 . S
C1072 C1071 1.399 . S
C1072 C1073 1.385 . S
C1073 H1059 0.931 . S
C1073 C1072 1.385 . S
C1073 C1074 1.389 . S
C1074 C1073 1.389 . S
C1074 C1075 1.387 . S
C1075 H1060 0.930 . S
C1075 C1070 1.390 . S
C1075 C1074 1.387 . S
H1076 C1088 0.930 . S
H1077 C1090 0.930 . S
H1078 C1091 0.930 . S
H1079 C1095 0.959 . S
H1080 C1095 0.959 . S
H1081 C1095 0.961 . S
H1082 C1096 0.960 . S
H1083 C1096 0.961 . S
H1084 C1096 0.959 . S
H1085 C1099 0.929 . S
H1086 C1100 0.931 . S
H1087 C1102 0.930 . S
C1088 H1076 0.930 . S
C1088 C1089 1.399 . S
C1088 C1093 1.399 . S
C1089 C1088 1.399 . S
C1089 C1090 1.376 . S
C1090 H1077 0.930 . S
C1090 C1089 1.376 . S
C1090 C1091 1.388 . S
C1091 H1078 0.930 . S
C1091 C1090 1.388 . S
C1091 C1092 1.390 . S
C1092 C1091 1.390 . S
C1092 C1093 1.394 . S
C1092 C1098 1.465 . S
C1093 C1088 1.399 . S
C1093 C1092 1.394 . S
C1093 C1094 1.516 . S
C1094 C1093 1.516 . S
C1094 C1095 1.502 . S
C1094 C1096 1.561 . S
C1094 C1097 1.526 . S
C1095 H1079 0.959 . S
C1095 H1080 0.959 . S
C1095 H1081 0.961 . S
C1095 C1094 1.502 . S
C1096 H1082 0.960 . S
C1096 H1083 0.961 . S
C1096 H1084 0.959 . S
C1096 C1094 1.561 . S
C1097 C1094 1.526 . S
C1097 C1098 1.396 . S
C1097 C1102 1.390 . S
C1098 C1092 1.465 . S
C1098 C1097 1.396 . S
C1098 C1099 1.399 . S
C1099 H1085 0.929 . S
C1099 C1098 1.399 . S
C1099 C1100 1.385 . S
C1100 H1086 0.931 . S
C1100 C1099 1.385 . S
C1100 C1101 1.389 . S
C1101 C1100 1.389 . S
C1101 C1102 1.387 . S
C1102 H1087 0.930 . S
C1102 C1097 1.390 . S
C1102 C1101 1.387 . S
H1103 C1115 0.930 . S
H1104 C1117 0.930 . S
H1105 C1118 0.930 . S
H1106 C1122 0.959 . S
H1107 C1122 0.959 . S
H1108 C1122 0.961 . S
H1109 C1123 0.960 . S
H1110 C1123 0.961 . S
H1111 C1123 0.959 . S
H1112 C1126 0.929 . S
H1113 C1127 0.931 . S
H1114 C1129 0.930 . S
C1115 H1103 0.930 . S
C1115 C1116 1.399 . S
C1115 C1120 1.399 . S
C1116 C1115 1.399 . S
C1116 C1117 1.376 . S
C1117 H1104 0.930 . S
C1117 C1116 1.376 . S
C1117 C1118 1.388 . S
C1118 H1105 0.930 . S
C1118 C1117 1.388 . S
C1118 C1119 1.390 . S
C1119 C1118 1.390 . S
C1119 C1120 1.394 . S
C1119 C1125 1.465 . S
C1120 C1115 1.399 . S
C1120 C1119 1.394 . S
C1120 C1121 1.516 . S
C1121 C1120 1.516 . S
C1121 C1122 1.502 . S
C1121 C1123 1.561 . S
C1121 C1124 1.526 . S
C1122 H1106 0.959 . S
C1122 H1107 0.959 . S
C1122 H1108 0.961 . S
C1122 C1121 1.502 . S
C1123 H1109 0.960 . S
C1123 H1110 0.961 . S
C1123 H1111 0.959 . S
C1123 C1121 1.561 . S
C1124 C1121 1.526 . S
C1124 C1125 1.396 . S
C1124 C1129 1.390 . S
C1125 C1119 1.465 . S
C1125 C1124 1.396 . S
C1125 C1126 1.399 . S
C1126 H1112 0.929 . S
C1126 C1125 1.399 . S
C1126 C1127 1.385 . S
C1127 H1113 0.931 . S
C1127 C1126 1.385 . S
C1127 C1128 1.389 . S
C1128 C1127 1.389 . S
C1128 C1129 1.387 . S
C1129 H1114 0.930 . S
C1129 C1124 1.390 . S
C1129 C1128 1.387 . S
H1130 C1142 0.930 . S
H1131 C1144 0.930 . S
H1132 C1145 0.930 . S
H1133 C1149 0.959 . S
H1134 C1149 0.959 . S
H1135 C1149 0.961 . S
H1136 C1150 0.960 . S
H1137 C1150 0.961 . S
H1138 C1150 0.959 . S
H1139 C1153 0.929 . S
H1140 C1154 0.931 . S
H1141 C1156 0.930 . S
C1142 H1130 0.930 . S
C1142 C1143 1.399 . S
C1142 C1147 1.399 . S
C1143 C1142 1.399 . S
C1143 C1144 1.376 . S
C1144 H1131 0.930 . S
C1144 C1143 1.376 . S
C1144 C1145 1.388 . S
C1145 H1132 0.930 . S
C1145 C1144 1.388 . S
C1145 C1146 1.390 . S
C1146 C1145 1.390 . S
C1146 C1147 1.394 . S
C1146 C1152 1.465 . S
C1147 C1142 1.399 . S
C1147 C1146 1.394 . S
C1147 C1148 1.516 . S
C1148 C1147 1.516 . S
C1148 C1149 1.502 . S
C1148 C1150 1.561 . S
C1148 C1151 1.526 . S
C1149 H1133 0.959 . S
C1149 H1134 0.959 . S
C1149 H1135 0.961 . S
C1149 C1148 1.502 . S
C1150 H1136 0.960 . S
C1150 H1137 0.961 . S
C1150 H1138 0.959 . S
C1150 C1148 1.561 . S
C1151 C1148 1.526 . S
C1151 C1152 1.396 . S
C1151 C1156 1.390 . S
C1152 C1146 1.465 . S
C1152 C1151 1.396 . S
C1152 C1153 1.399 . S
C1153 H1139 0.929 . S
C1153 C1152 1.399 . S
C1153 C1154 1.385 . S
C1154 H1140 0.931 . S
C1154 C1153 1.385 . S
C1154 C1155 1.389 . S
C1155 C1154 1.389 . S
C1155 C1156 1.387 . S
C1156 H1141 0.930 . S
C1156 C1151 1.390 . S
C1156 C1155 1.387 . S
H1157 C1169 0.930 . S
H1158 C1171 0.930 . S
H1159 C1172 0.930 . S
H1160 C1176 0.959 . S
H1161 C1176 0.959 . S
H1162 C1176 0.961 . S
H1163 C1177 0.960 . S
H1164 C1177 0.961 . S
H1165 C1177 0.959 . S
H1166 C1180 0.929 . S
H1167 C1181 0.931 . S
H1168 C1183 0.930 . S
C1169 H1157 0.930 . S
C1169 C1170 1.399 . S
C1169 C1174 1.399 . S
C1170 C1169 1.399 . S
C1170 C1171 1.376 . S
C1171 H1158 0.930 . S
C1171 C1170 1.376 . S
C1171 C1172 1.388 . S
C1172 H1159 0.930 . S
C1172 C1171 1.388 . S
C1172 C1173 1.390 . S
C1173 C1172 1.390 . S
C1173 C1174 1.394 . S
C1173 C1179 1.465 . S
C1174 C1169 1.399 . S
C1174 C1173 1.394 . S
C1174 C1175 1.516 . S
C1175 C1174 1.516 . S
C1175 C1176 1.502 . S
C1175 C1177 1.561 . S
C1175 C1178 1.526 . S
C1176 H1160 0.959 . S
C1176 H1161 0.959 . S
C1176 H1162 0.961 . S
C1176 C1175 1.502 . S
C1177 H1163 0.960 . S
C1177 H1164 0.961 . S
C1177 H1165 0.959 . S
C1177 C1175 1.561 . S
C1178 C1175 1.526 . S
C1178 C1179 1.396 . S
C1178 C1183 1.390 . S
C1179 C1173 1.465 . S
C1179 C1178 1.396 . S
C1179 C1180 1.399 . S
C1180 H1166 0.929 . S
C1180 C1179 1.399 . S
C1180 C1181 1.385 . S
C1181 H1167 0.931 . S
C1181 C1180 1.385 . S
C1181 C1182 1.389 . S
C1182 C1181 1.389 . S
C1182 C1183 1.387 . S
C1183 H1168 0.930 . S
C1183 C1178 1.390 . S
C1183 C1182 1.387 . S
H1184 C1196 0.930 . S
H1185 C1198 0.930 . S
H1186 C1199 0.930 . S
H1187 C1203 0.959 . S
H1188 C1203 0.959 . S
H1189 C1203 0.961 . S
H1190 C1204 0.960 . S
H1191 C1204 0.961 . S
H1192 C1204 0.959 . S
H1193 C1207 0.929 . S
H1194 C1208 0.931 . S
H1195 C1210 0.930 . S
C1196 H1184 0.930 . S
C1196 C1197 1.399 . S
C1196 C1201 1.399 . S
C1197 C1196 1.399 . S
C1197 C1198 1.376 . S
C1198 H1185 0.930 . S
C1198 C1197 1.376 . S
C1198 C1199 1.388 . S
C1199 H1186 0.930 . S
C1199 C1198 1.388 . S
C1199 C1200 1.390 . S
C1200 C1199 1.390 . S
C1200 C1201 1.394 . S
C1200 C1206 1.465 . S
C1201 C1196 1.399 . S
C1201 C1200 1.394 . S
C1201 C1202 1.516 . S
C1202 C1201 1.516 . S
C1202 C1203 1.502 . S
C1202 C1204 1.561 . S
C1202 C1205 1.526 . S
C1203 H1187 0.959 . S
C1203 H1188 0.959 . S
C1203 H1189 0.961 . S
C1203 C1202 1.502 . S
C1204 H1190 0.960 . S
C1204 H1191 0.961 . S
C1204 H1192 0.959 . S
C1204 C1202 1.561 . S
C1205 C1202 1.526 . S
C1205 C1206 1.396 . S
C1205 C1210 1.390 . S
C1206 C1200 1.465 . S
C1206 C1205 1.396 . S
C1206 C1207 1.399 . S
C1207 H1193 0.929 . S
C1207 C1206 1.399 . S
C1207 C1208 1.385 . S
C1208 H1194 0.931 . S
C1208 C1207 1.385 . S
C1208 C1209 1.389 . S
C1209 C1208 1.389 . S
C1209 C1210 1.387 . S
C1210 H1195 0.930 . S
C1210 C1205 1.390 . S
C1210 C1209 1.387 . S
H1211 C1223 0.930 . S
H1212 C1225 0.930 . S
H1213 C1226 0.930 . S
H1214 C1230 0.959 . S
H1215 C1230 0.959 . S
H1216 C1230 0.961 . S
H1217 C1231 0.960 . S
H1218 C1231 0.961 . S
H1219 C1231 0.959 . S
H1220 C1234 0.929 . S
H1221 C1235 0.931 . S
H1222 C1237 0.930 . S
C1223 H1211 0.930 . S
C1223 C1224 1.399 . S
C1223 C1228 1.399 . S
C1224 C1223 1.399 . S
C1224 C1225 1.376 . S
C1225 H1212 0.930 . S
C1225 C1224 1.376 . S
C1225 C1226 1.388 . S
C1226 H1213 0.930 . S
C1226 C1225 1.388 . S
C1226 C1227 1.390 . S
C1227 C1226 1.390 . S
C1227 C1228 1.394 . S
C1227 C1233 1.465 . S
C1228 C1223 1.399 . S
C1228 C1227 1.394 . S
C1228 C1229 1.516 . S
C1229 C1228 1.516 . S
C1229 C1230 1.502 . S
C1229 C1231 1.561 . S
C1229 C1232 1.526 . S
C1230 H1214 0.959 . S
C1230 H1215 0.959 . S
C1230 H1216 0.961 . S
C1230 C1229 1.502 . S
C1231 H1217 0.960 . S
C1231 H1218 0.961 . S
C1231 H1219 0.959 . S
C1231 C1229 1.561 . S
C1232 C1229 1.526 . S
C1232 C1233 1.396 . S
C1232 C1237 1.390 . S
C1233 C1227 1.465 . S
C1233 C1232 1.396 . S
C1233 C1234 1.399 . S
C1234 H1220 0.929 . S
C1234 C1233 1.399 . S
C1234 C1235 1.385 . S
C1235 H1221 0.931 . S
C1235 C1234 1.385 . S
C1235 C1236 1.389 . S
C1236 C1235 1.389 . S
C1236 C1237 1.387 . S
C1237 H1222 0.930 . S
C1237 C1232 1.390 . S
C1237 C1236 1.387 . S
H1238 C1250 0.930 . S
H1239 C1252 0.930 . S
H1240 C1253 0.930 . S
H1241 C1257 0.959 . S
H1242 C1257 0.959 . S
H1243 C1257 0.961 . S
H1244 C1258 0.960 . S
H1245 C1258 0.961 . S
H1246 C1258 0.959 . S
H1247 C1261 0.929 . S
H1248 C1262 0.931 . S
H1249 C1264 0.930 . S
C1250 H1238 0.930 . S
C1250 C1251 1.399 . S
C1250 C1255 1.399 . S
C1251 C1250 1.399 . S
C1251 C1252 1.376 . S
C1252 H1239 0.930 . S
C1252 C1251 1.376 . S
C1252 C1253 1.388 . S
C1253 H1240 0.930 . S
C1253 C1252 1.388 . S
C1253 C1254 1.390 . S
C1254 C1253 1.390 . S
C1254 C1255 1.394 . S
C1254 C1260 1.465 . S
C1255 C1250 1.399 . S
C1255 C1254 1.394 . S
C1255 C1256 1.516 . S
C1256 C1255 1.516 . S
C1256 C1257 1.502 . S
C1256 C1258 1.561 . S
C1256 C1259 1.526 . S
C1257 H1241 0.959 . S
C1257 H1242 0.959 . S
C1257 H1243 0.961 . S
C1257 C1256 1.502 . S
C1258 H1244 0.960 . S
C1258 H1245 0.961 . S
C1258 H1246 0.959 . S
C1258 C1256 1.561 . S
C1259 C1256 1.526 . S
C1259 C1260 1.396 . S
C1259 C1264 1.390 . S
C1260 C1254 1.465 . S
C1260 C1259 1.396 . S
C1260 C1261 1.399 . S
C1261 H1247 0.929 . S
C1261 C1260 1.399 . S
C1261 C1262 1.385 . S
C1262 H1248 0.931 . S
C1262 C1261 1.385 . S
C1262 C1263 1.389 . S
C1263 C1262 1.389 . S
C1263 C1264 1.387 . S
C1264 H1249 0.930 . S
C1264 C1259 1.390 . S
C1264 C1263 1.387 . S
H1265 C1277 0.930 . S
H1266 C1279 0.930 . S
H1267 C1280 0.930 . S
H1268 C1284 0.959 . S
H1269 C1284 0.959 . S
H1270 C1284 0.961 . S
H1271 C1285 0.960 . S
H1272 C1285 0.961 . S
H1273 C1285 0.959 . S
H1274 C1288 0.929 . S
H1275 C1289 0.931 . S
H1276 C1291 0.930 . S
C1277 H1265 0.930 . S
C1277 C1278 1.399 . S
C1277 C1282 1.399 . S
C1278 C1277 1.399 . S
C1278 C1279 1.376 . S
C1279 H1266 0.930 . S
C1279 C1278 1.376 . S
C1279 C1280 1.388 . S
C1280 H1267 0.930 . S
C1280 C1279 1.388 . S
C1280 C1281 1.390 . S
C1281 C1280 1.390 . S
C1281 C1282 1.394 . S
C1281 C1287 1.465 . S
C1282 C1277 1.399 . S
C1282 C1281 1.394 . S
C1282 C1283 1.516 . S
C1283 C1282 1.516 . S
C1283 C1284 1.502 . S
C1283 C1285 1.561 . S
C1283 C1286 1.526 . S
C1284 H1268 0.959 . S
C1284 H1269 0.959 . S
C1284 H1270 0.961 . S
C1284 C1283 1.502 . S
C1285 H1271 0.960 . S
C1285 H1272 0.961 . S
C1285 H1273 0.959 . S
C1285 C1283 1.561 . S
C1286 C1283 1.526 . S
C1286 C1287 1.396 . S
C1286 C1291 1.390 . S
C1287 C1281 1.465 . S
C1287 C1286 1.396 . S
C1287 C1288 1.399 . S
C1288 H1274 0.929 . S
C1288 C1287 1.399 . S
C1288 C1289 1.385 . S
C1289 H1275 0.931 . S
C1289 C1288 1.385 . S
C1289 C1290 1.389 . S
C1290 C1289 1.389 . S
C1290 C1291 1.387 . S
C1291 H1276 0.930 . S
C1291 C1286 1.390 . S
C1291 C1290 1.387 . S
H1292 C1304 0.930 . S
H1293 C1306 0.930 . S
H1294 C1307 0.930 . S
H1295 C1311 0.959 . S
H1296 C1311 0.959 . S
H1297 C1311 0.961 . S
H1298 C1312 0.960 . S
H1299 C1312 0.961 . S
H1300 C1312 0.959 . S
H1301 C1315 0.929 . S
H1302 C1316 0.931 . S
H1303 C1318 0.930 . S
C1304 H1292 0.930 . S
C1304 C1305 1.399 . S
C1304 C1309 1.399 . S
C1305 C1304 1.399 . S
C1305 C1306 1.376 . S
C1306 H1293 0.930 . S
C1306 C1305 1.376 . S
C1306 C1307 1.388 . S
C1307 H1294 0.930 . S
C1307 C1306 1.388 . S
C1307 C1308 1.390 . S
C1308 C1307 1.390 . S
C1308 C1309 1.394 . S
C1308 C1314 1.465 . S
C1309 C1304 1.399 . S
C1309 C1308 1.394 . S
C1309 C1310 1.516 . S
C1310 C1309 1.516 . S
C1310 C1311 1.502 . S
C1310 C1312 1.561 . S
C1310 C1313 1.526 . S
C1311 H1295 0.959 . S
C1311 H1296 0.959 . S
C1311 H1297 0.961 . S
C1311 C1310 1.502 . S
C1312 H1298 0.960 . S
C1312 H1299 0.961 . S
C1312 H1300 0.959 . S
C1312 C1310 1.561 . S
C1313 C1310 1.526 . S
C1313 C1314 1.396 . S
C1313 C1318 1.390 . S
C1314 C1308 1.465 . S
C1314 C1313 1.396 . S
C1314 C1315 1.399 . S
C1315 H1301 0.929 . S
C1315 C1314 1.399 . S
C1315 C1316 1.385 . S
C1316 H1302 0.931 . S
C1316 C1315 1.385 . S
C1316 C1317 1.389 . S
C1317 C1316 1.389 . S
C1317 C1318 1.387 . S
C1318 H1303 0.930 . S
C1318 C1313 1.390 . S
C1318 C1317 1.387 . S
H1319 C1331 0.930 . S
H1320 C1333 0.930 . S
H1321 C1334 0.930 . S
H1322 C1338 0.959 . S
H1323 C1338 0.959 . S
H1324 C1338 0.961 . S
H1325 C1339 0.960 . S
H1326 C1339 0.961 . S
H1327 C1339 0.959 . S
H1328 C1342 0.929 . S
H1329 C1343 0.931 . S
H1330 C1345 0.930 . S
C1331 H1319 0.930 . S
C1331 C1332 1.399 . S
C1331 C1336 1.399 . S
C1332 C1331 1.399 . S
C1332 C1333 1.376 . S
C1333 H1320 0.930 . S
C1333 C1332 1.376 . S
C1333 C1334 1.388 . S
C1334 H1321 0.930 . S
C1334 C1333 1.388 . S
C1334 C1335 1.390 . S
C1335 C1334 1.390 . S
C1335 C1336 1.394 . S
C1335 C1341 1.465 . S
C1336 C1331 1.399 . S
C1336 C1335 1.394 . S
C1336 C1337 1.516 . S
C1337 C1336 1.516 . S
C1337 C1338 1.502 . S
C1337 C1339 1.561 . S
C1337 C1340 1.526 . S
C1338 H1322 0.959 . S
C1338 H1323 0.959 . S
C1338 H1324 0.961 . S
C1338 C1337 1.502 . S
C1339 H1325 0.960 . S
C1339 H1326 0.961 . S
C1339 H1327 0.959 . S
C1339 C1337 1.561 . S
C1340 C1337 1.526 . S
C1340 C1341 1.396 . S
C1340 C1345 1.390 . S
C1341 C1335 1.465 . S
C1341 C1340 1.396 . S
C1341 C1342 1.399 . S
C1342 H1328 0.929 . S
C1342 C1341 1.399 . S
C1342 C1343 1.385 . S
C1343 H1329 0.931 . S
C1343 C1342 1.385 . S
C1343 C1344 1.389 . S
C1344 C1343 1.389 . S
C1344 C1345 1.387 . S
C1345 H1330 0.930 . S
C1345 C1340 1.390 . S
C1345 C1344 1.387 . S
H1346 C1358 0.930 . S
H1347 C1360 0.930 . S
H1348 C1361 0.930 . S
H1349 C1365 0.959 . S
H1350 C1365 0.959 . S
H1351 C1365 0.961 . S
H1352 C1366 0.960 . S
H1353 C1366 0.961 . S
H1354 C1366 0.959 . S
H1355 C1369 0.929 . S
H1356 C1370 0.931 . S
H1357 C1372 0.930 . S
C1358 H1346 0.930 . S
C1358 C1359 1.399 . S
C1358 C1363 1.399 . S
C1359 C1358 1.399 . S
C1359 C1360 1.376 . S
C1360 H1347 0.930 . S
C1360 C1359 1.376 . S
C1360 C1361 1.388 . S
C1361 H1348 0.930 . S
C1361 C1360 1.388 . S
C1361 C1362 1.390 . S
C1362 C1361 1.390 . S
C1362 C1363 1.394 . S
C1362 C1368 1.465 . S
C1363 C1358 1.399 . S
C1363 C1362 1.394 . S
C1363 C1364 1.516 . S
C1364 C1363 1.516 . S
C1364 C1365 1.502 . S
C1364 C1366 1.561 . S
C1364 C1367 1.526 . S
C1365 H1349 0.959 . S
C1365 H1350 0.959 . S
C1365 H1351 0.961 . S
C1365 C1364 1.502 . S
C1366 H1352 0.960 . S
C1366 H1353 0.961 . S
C1366 H1354 0.959 . S
C1366 C1364 1.561 . S
C1367 C1364 1.526 . S
C1367 C1368 1.396 . S
C1367 C1372 1.390 . S
C1368 C1362 1.465 . S
C1368 C1367 1.396 . S
C1368 C1369 1.399 . S
C1369 H1355 0.929 . S
C1369 C1368 1.399 . S
C1369 C1370 1.385 . S
C1370 H1356 0.931 . S
C1370 C1369 1.385 . S
C1370 C1371 1.389 . S
C1371 C1370 1.389 . S
C1371 C1372 1.387 . S
C1372 H1357 0.930 . S
C1372 C1367 1.390 . S
C1372 C1371 1.387 . S
H1373 C1385 0.930 . S
H1374 C1387 0.930 . S
H1375 C1388 0.930 . S
H1376 C1392 0.959 . S
H1377 C1392 0.959 . S
H1378 C1392 0.961 . S
H1379 C1393 0.960 . S
H1380 C1393 0.961 . S
H1381 C1393 0.959 . S
H1382 C1396 0.929 . S
H1383 C1397 0.931 . S
H1384 C1399 0.930 . S
C1385 H1373 0.930 . S
C1385 C1386 1.399 . S
C1385 C1390 1.399 . S
C1386 C1385 1.399 . S
C1386 C1387 1.376 . S
C1387 H1374 0.930 . S
C1387 C1386 1.376 . S
C1387 C1388 1.388 . S
C1388 H1375 0.930 . S
C1388 C1387 1.388 . S
C1388 C1389 1.390 . S
C1389 C1388 1.390 . S
C1389 C1390 1.394 . S
C1389 C1395 1.465 . S
C1390 C1385 1.399 . S
C1390 C1389 1.394 . S
C1390 C1391 1.516 . S
C1391 C1390 1.516 . S
C1391 C1392 1.502 . S
C1391 C1393 1.561 . S
C1391 C1394 1.526 . S
C1392 H1376 0.959 . S
C1392 H1377 0.959 . S
C1392 H1378 0.961 . S
C1392 C1391 1.502 . S
C1393 H1379 0.960 . S
C1393 H1380 0.961 . S
C1393 H1381 0.959 . S
C1393 C1391 1.561 . S
C1394 C1391 1.526 . S
C1394 C1395 1.396 . S
C1394 C1399 1.390 . S
C1395 C1389 1.465 . S
C1395 C1394 1.396 . S
C1395 C1396 1.399 . S
C1396 H1382 0.929 . S
C1396 C1395 1.399 . S
C1396 C1397 1.385 . S
C1397 H1383 0.931 . S
C1397 C1396 1.385 . S
C1397 C1398 1.389 . S
C1398 C1397 1.389 . S
C1398 C1399 1.387 . S
C1399 H1384 0.930 . S
C1399 C1394 1.390 . S
C1399 C1398 1.387 . S
H1400 C1412 0.930 . S
H1401 C1414 0.930 . S
H1402 C1415 0.930 . S
H1403 C1419 0.959 . S
H1404 C1419 0.959 . S
H1405 C1419 0.961 . S
H1406 C1420 0.960 . S
H1407 C1420 0.961 . S
H1408 C1420 0.959 . S
H1409 C1423 0.929 . S
H1410 C1424 0.931 . S
H1411 C1426 0.930 . S
C1412 H1400 0.930 . S
C1412 C1413 1.399 . S
C1412 C1417 1.399 1_556 S
C1413 C1412 1.399 . S
C1413 C1414 1.376 . S
C1414 H1401 0.930 . S
C1414 C1413 1.376 . S
C1414 C1415 1.388 1_556 S
C1415 H1402 0.930 . S
C1415 C1414 1.388 1_554 S
C1415 C1416 1.390 . S
C1416 C1415 1.390 . S
C1416 C1417 1.394 . S
C1416 C1422 1.465 . S
C1417 C1412 1.399 1_554 S
C1417 C1416 1.394 . S
C1417 C1418 1.516 . S
C1418 C1417 1.516 . S
C1418 C1419 1.502 . S
C1418 C1420 1.561 . S
C1418 C1421 1.526 . S
C1419 H1403 0.959 . S
C1419 H1404 0.959 . S
C1419 H1405 0.961 . S
C1419 C1418 1.502 . S
C1420 H1406 0.960 . S
C1420 H1407 0.961 . S
C1420 H1408 0.959 . S
C1420 C1418 1.561 . S
C1421 C1418 1.526 . S
C1421 C1422 1.396 . S
C1421 C1426 1.390 . S
C1422 C1416 1.465 . S
C1422 C1421 1.396 . S
C1422 C1423 1.399 . S
C1423 H1409 0.929 . S
C1423 C1422 1.399 . S
C1423 C1424 1.385 . S
C1424 H1410 0.931 . S
C1424 C1423 1.385 . S
C1424 C1425 1.389 . S
C1425 C1424 1.389 . S
C1425 C1426 1.387 . S
C1426 H1411 0.930 . S
C1426 C1421 1.390 . S
C1426 C1425 1.387 . S
H1427 C1439 0.930 . S
H1428 C1441 0.930 . S
H1429 C1442 0.930 . S
H1430 C1446 0.959 . S
H1431 C1446 0.959 . S
H1432 C1446 0.961 . S
H1433 C1447 0.960 . S
H1434 C1447 0.961 . S
H1435 C1447 0.959 . S
H1436 C1450 0.929 . S
H1437 C1451 0.931 . S
H1438 C1453 0.930 . S
C1439 H1427 0.930 . S
C1439 C1440 1.399 . S
C1439 C1444 1.399 . S
C1440 C1439 1.399 . S
C1440 C1441 1.376 . S
C1441 H1428 0.930 . S
C1441 C1440 1.376 . S
C1441 C1442 1.388 . S
C1442 H1429 0.930 . S
C1442 C1441 1.388 . S
C1442 C1443 1.390 . S
C1443 C1442 1.390 . S
C1443 C1444 1.394 . S
C1443 C1449 1.465 . S
C1444 C1439 1.399 . S
C1444 C1443 1.394 . S
C1444 C1445 1.516 . S
C1445 C1444 1.516 . S
C1445 C1446 1.502 . S
C1445 C1447 1.561 . S
C1445 C1448 1.526 . S
C1446 H1430 0.959 . S
C1446 H1431 0.959 . S
C1446 H1432 0.961 . S
C1446 C1445 1.502 . S
C1447 H1433 0.960 . S
C1447 H1434 0.961 . S
C1447 H1435 0.959 . S
C1447 C1445 1.561 . S
C1448 C1445 1.526 . S
C1448 C1449 1.396 . S
C1448 C1453 1.390 1_556 S
C1449 C1443 1.465 . S
C1449 C1448 1.396 . S
C1449 C1450 1.399 . S
C1450 H1436 0.929 . S
C1450 C1449 1.399 . S
C1450 C1451 1.385 1_556 S
C1451 H1437 0.931 . S
C1451 C1450 1.385 1_554 S
C1451 C1452 1.389 . S
C1452 C1451 1.389 . S
C1452 C1453 1.387 . S
C1453 H1438 0.930 . S
C1453 C1448 1.390 1_554 S
C1453 C1452 1.387 . S
H1454 C1466 0.930 . S
H1455 C1468 0.930 . S
H1456 C1469 0.930 . S
H1457 C1473 0.959 . S
H1458 C1473 0.959 . S
H1459 C1473 0.961 . S
H1460 C1474 0.960 . S
H1461 C1474 0.961 . S
H1462 C1474 0.959 . S
H1463 C1477 0.929 . S
H1464 C1478 0.931 . S
H1465 C1480 0.930 . S
C1466 H1454 0.930 . S
C1466 C1467 1.399 . S
C1466 C1471 1.399 . S
C1467 C1466 1.399 . S
C1467 C1468 1.376 . S
C1468 H1455 0.930 . S
C1468 C1467 1.376 . S
C1468 C1469 1.388 . S
C1469 H1456 0.930 . S
C1469 C1468 1.388 . S
C1469 C1470 1.390 . S
C1470 C1469 1.390 . S
C1470 C1471 1.394 . S
C1470 C1476 1.465 . S
C1471 C1466 1.399 . S
C1471 C1470 1.394 . S
C1471 C1472 1.516 . S
C1472 C1471 1.516 . S
C1472 C1473 1.502 . S
C1472 C1474 1.561 . S
C1472 C1475 1.526 . S
C1473 H1457 0.959 . S
C1473 H1458 0.959 . S
C1473 H1459 0.961 . S
C1473 C1472 1.502 . S
C1474 H1460 0.960 . S
C1474 H1461 0.961 . S
C1474 H1462 0.959 . S
C1474 C1472 1.561 . S
C1475 C1472 1.526 . S
C1475 C1476 1.396 . S
C1475 C1480 1.390 1_554 S
C1476 C1470 1.465 . S
C1476 C1475 1.396 . S
C1476 C1477 1.399 . S
C1477 H1463 0.929 . S
C1477 C1476 1.399 . S
C1477 C1478 1.385 1_554 S
C1478 H1464 0.931 . S
C1478 C1477 1.385 1_556 S
C1478 C1479 1.389 . S
C1479 C1478 1.389 . S
C1479 C1480 1.387 . S
C1480 H1465 0.930 . S
C1480 C1475 1.390 1_556 S
C1480 C1479 1.387 . S
H1481 C1493 0.930 . S
H1482 C1495 0.930 . S
H1483 C1496 0.930 . S
H1484 C1500 0.959 . S
H1485 C1500 0.959 . S
H1486 C1500 0.961 . S
H1487 C1501 0.960 . S
H1488 C1501 0.961 . S
H1489 C1501 0.959 . S
H1490 C1504 0.929 . S
H1491 C1505 0.931 . S
H1492 C1507 0.930 . S
C1493 H1481 0.930 . S
C1493 C1494 1.399 . S
C1493 C1498 1.399 1_554 S
C1494 C1493 1.399 . S
C1494 C1495 1.376 . S
C1495 H1482 0.930 . S
C1495 C1494 1.376 . S
C1495 C1496 1.388 1_554 S
C1496 H1483 0.930 . S
C1496 C1495 1.388 1_556 S
C1496 C1497 1.390 . S
C1497 C1496 1.390 . S
C1497 C1498 1.394 . S
C1497 C1503 1.465 . S
C1498 C1493 1.399 1_556 S
C1498 C1497 1.394 . S
C1498 C1499 1.516 . S
C1499 C1498 1.516 . S
C1499 C1500 1.502 . S
C1499 C1501 1.561 . S
C1499 C1502 1.526 . S
C1500 H1484 0.959 . S
C1500 H1485 0.959 . S
C1500 H1486 0.961 . S
C1500 C1499 1.502 . S
C1501 H1487 0.960 . S
C1501 H1488 0.961 . S
C1501 H1489 0.959 . S
C1501 C1499 1.561 . S
C1502 C1499 1.526 . S
C1502 C1503 1.396 . S
C1502 C1507 1.390 . S
C1503 C1497 1.465 . S
C1503 C1502 1.396 . S
C1503 C1504 1.399 . S
C1504 H1490 0.929 . S
C1504 C1503 1.399 . S
C1504 C1505 1.385 . S
C1505 H1491 0.931 . S
C1505 C1504 1.385 . S
C1505 C1506 1.389 . S
C1506 C1505 1.389 . S
C1506 C1507 1.387 . S
C1507 H1492 0.930 . S
C1507 C1502 1.390 . S
C1507 C1506 1.387 . S
H1508 C1520 0.930 . S
H1509 C1522 0.930 . S
H1510 C1523 0.930 . S
H1511 C1527 0.959 . S
H1512 C1527 0.959 . S
H1513 C1527 0.961 . S
H1514 C1528 0.960 . S
H1515 C1528 0.961 . S
H1516 C1528 0.959 . S
H1517 C1531 0.929 . S
H1518 C1532 0.931 . S
H1519 C1534 0.930 . S
C1520 H1508 0.930 . S
C1520 C1521 1.399 . S
C1520 C1525 1.399 . S
C1521 C1520 1.399 . S
C1521 C1522 1.376 . S
C1522 H1509 0.930 . S
C1522 C1521 1.376 . S
C1522 C1523 1.388 . S
C1523 H1510 0.930 . S
C1523 C1522 1.388 . S
C1523 C1524 1.390 . S
C1524 C1523 1.390 . S
C1524 C1525 1.394 . S
C1524 C1530 1.465 . S
C1525 C1520 1.399 . S
C1525 C1524 1.394 . S
C1525 C1526 1.516 . S
C1526 C1525 1.516 . S
C1526 C1527 1.502 . S
C1526 C1528 1.561 . S
C1526 C1529 1.526 . S
C1527 H1511 0.959 . S
C1527 H1512 0.959 . S
C1527 H1513 0.961 . S
C1527 C1526 1.502 . S
C1528 H1514 0.960 . S
C1528 H1515 0.961 . S
C1528 H1516 0.959 . S
C1528 C1526 1.561 . S
C1529 C1526 1.526 . S
C1529 C1530 1.396 . S
C1529 C1534 1.390 1_554 S
C1530 C1524 1.465 . S
C1530 C1529 1.396 . S
C1530 C1531 1.399 . S
C1531 H1517 0.929 . S
C1531 C1530 1.399 . S
C1531 C1532 1.385 1_554 S
C1532 H1518 0.931 . S
C1532 C1531 1.385 1_556 S
C1532 C1533 1.389 . S
C1533 C1532 1.389 . S
C1533 C1534 1.387 . S
C1534 H1519 0.930 . S
C1534 C1529 1.390 1_556 S
C1534 C1533 1.387 . S
H1535 C1547 0.930 . S
H1536 C1549 0.930 . S
H1537 C1550 0.930 . S
H1538 C1554 0.959 . S
H1539 C1554 0.959 . S
H1540 C1554 0.961 . S
H1541 C1555 0.960 . S
H1542 C1555 0.961 . S
H1543 C1555 0.959 . S
H1544 C1558 0.929 . S
H1545 C1559 0.931 . S
H1546 C1561 0.930 . S
C1547 H1535 0.930 . S
C1547 C1548 1.399 . S
C1547 C1552 1.399 1_554 S
C1548 C1547 1.399 . S
C1548 C1549 1.376 . S
C1549 H1536 0.930 . S
C1549 C1548 1.376 . S
C1549 C1550 1.388 1_554 S
C1550 H1537 0.930 . S
C1550 C1549 1.388 1_556 S
C1550 C1551 1.390 . S
C1551 C1550 1.390 . S
C1551 C1552 1.394 . S
C1551 C1557 1.465 . S
C1552 C1547 1.399 1_556 S
C1552 C1551 1.394 . S
C1552 C1553 1.516 . S
C1553 C1552 1.516 . S
C1553 C1554 1.502 . S
C1553 C1555 1.561 . S
C1553 C1556 1.526 . S
C1554 H1538 0.959 . S
C1554 H1539 0.959 . S
C1554 H1540 0.961 . S
C1554 C1553 1.502 . S
C1555 H1541 0.960 . S
C1555 H1542 0.961 . S
C1555 H1543 0.959 . S
C1555 C1553 1.561 . S
C1556 C1553 1.526 . S
C1556 C1557 1.396 . S
C1556 C1561 1.390 . S
C1557 C1551 1.465 . S
C1557 C1556 1.396 . S
C1557 C1558 1.399 . S
C1558 H1544 0.929 . S
C1558 C1557 1.399 . S
C1558 C1559 1.385 . S
C1559 H1545 0.931 . S
C1559 C1558 1.385 . S
C1559 C1560 1.389 . S
C1560 C1559 1.389 . S
C1560 C1561 1.387 . S
C1561 H1546 0.930 . S
C1561 C1556 1.390 . S
C1561 C1560 1.387 . S
H1562 C1574 0.930 . S
H1563 C1576 0.930 . S
H1564 C1577 0.930 . S
H1565 C1581 0.959 . S
H1566 C1581 0.959 . S
H1567 C1581 0.961 . S
H1568 C1582 0.960 . S
H1569 C1582 0.961 . S
H1570 C1582 0.959 . S
H1571 C1585 0.929 . S
H1572 C1586 0.931 . S
H1573 C1588 0.930 . S
C1574 H1562 0.930 . S
C1574 C1575 1.399 . S
C1574 C1579 1.399 1_556 S
C1575 C1574 1.399 . S
C1575 C1576 1.376 . S
C1576 H1563 0.930 . S
C1576 C1575 1.376 . S
C1576 C1577 1.388 1_556 S
C1577 H1564 0.930 . S
C1577 C1576 1.388 1_554 S
C1577 C1578 1.390 . S
C1578 C1577 1.390 . S
C1578 C1579 1.394 . S
C1578 C1584 1.465 . S
C1579 C1574 1.399 1_554 S
C1579 C1578 1.394 . S
C1579 C1580 1.516 . S
C1580 C1579 1.516 . S
C1580 C1581 1.502 . S
C1580 C1582 1.561 . S
C1580 C1583 1.526 . S
C1581 H1565 0.959 . S
C1581 H1566 0.959 . S
C1581 H1567 0.961 . S
C1581 C1580 1.502 . S
C1582 H1568 0.960 . S
C1582 H1569 0.961 . S
C1582 H1570 0.959 . S
C1582 C1580 1.561 . S
C1583 C1580 1.526 . S
C1583 C1584 1.396 . S
C1583 C1588 1.390 . S
C1584 C1578 1.465 . S
C1584 C1583 1.396 . S
C1584 C1585 1.399 . S
C1585 H1571 0.929 . S
C1585 C1584 1.399 . S
C1585 C1586 1.385 . S
C1586 H1572 0.931 . S
C1586 C1585 1.385 . S
C1586 C1587 1.389 . S
C1587 C1586 1.389 . S
C1587 C1588 1.387 . S
C1588 H1573 0.930 . S
C1588 C1583 1.390 . S
C1588 C1587 1.387 . S
H1589 C1601 0.930 . S
H1590 C1603 0.930 . S
H1591 C1604 0.930 . S
H1592 C1608 0.959 . S
H1593 C1608 0.959 . S
H1594 C1608 0.961 . S
H1595 C1609 0.960 . S
H1596 C1609 0.961 . S
H1597 C1609 0.959 . S
H1598 C1612 0.929 . S
H1599 C1613 0.931 . S
H1600 C1615 0.930 . S
C1601 H1589 0.930 . S
C1601 C1602 1.399 . S
C1601 C1606 1.399 . S
C1602 C1601 1.399 . S
C1602 C1603 1.376 . S
C1603 H1590 0.930 . S
C1603 C1602 1.376 . S
C1603 C1604 1.388 . S
C1604 H1591 0.930 . S
C1604 C1603 1.388 . S
C1604 C1605 1.390 . S
C1605 C1604 1.390 . S
C1605 C1606 1.394 . S
C1605 C1611 1.465 . S
C1606 C1601 1.399 . S
C1606 C1605 1.394 . S
C1606 C1607 1.516 . S
C1607 C1606 1.516 . S
C1607 C1608 1.502 . S
C1607 C1609 1.561 . S
C1607 C1610 1.526 . S
C1608 H1592 0.959 . S
C1608 H1593 0.959 . S
C1608 H1594 0.961 . S
C1608 C1607 1.502 . S
C1609 H1595 0.960 . S
C1609 H1596 0.961 . S
C1609 H1597 0.959 . S
C1609 C1607 1.561 . S
C1610 C1607 1.526 . S
C1610 C1611 1.396 . S
C1610 C1615 1.390 1_556 S
C1611 C1605 1.465 . S
C1611 C1610 1.396 . S
C1611 C1612 1.399 . S
C1612 H1598 0.929 . S
C1612 C1611 1.399 . S
C1612 C1613 1.385 1_556 S
C1613 H1599 0.931 . S
C1613 C1612 1.385 1_554 S
C1613 C1614 1.389 . S
C1614 C1613 1.389 . S
C1614 C1615 1.387 . S
C1615 H1600 0.930 . S
C1615 C1610 1.390 1_554 S
C1615 C1614 1.387 . S
C333 C226 1.510 . S
C345 C9 1.625 . S
C360 C176 1.506 . S
C372 C21 1.613 . S
C387 C49 1.635 . S
C399 C186 1.493 . S
C414 C61 1.637 . S
C426 C216 1.504 . S
C441 C89 1.638 . S
C453 C106 1.487 1_554 S
C468 C136 1.495 1_556 S
C480 C101 1.638 . S
C495 C129 1.596 . S
C507 C146 1.567 1_554 S
C522 C96 1.486 1_556 S
C534 C141 1.634 . S
C549 C66 1.567 . S
C561 C169 1.598 . S
C576 C181 1.619 . S
C588 C16 1.498 . S
C603 C26 1.552 . S
C615 C209 1.605 . S
C630 C56 1.506 . S
C642 C221 1.637 . S
C657 C249 1.636 . S
C669 C266 1.491 . S
C684 C296 1.506 . S
C696 C261 1.613 . S
C711 C306 1.494 . S
C723 C289 1.633 . S
C738 C301 1.617 . S
C750 C256 1.500 . S
C765 C1 1.581 . S
C777 C81 1.513 . S
C792 C109 1.513 . S
C804 C29 1.589 . S
C819 C41 1.523 . S
C831 C121 1.589 . S
C846 C69 1.590 . S
C858 C149 1.513 . S
C873 C161 1.535 . S
C885 C241 1.584 . S
C900 C269 1.577 . S
C912 C189 1.528 . S
C927 C201 1.589 . S
C939 C281 1.515 . S
C954 C229 1.546 . S
C966 C309 1.555 . S
C981 C286 1.529 . S
C993 C6 1.506 1_556 S
C1008 C36 1.488 1_554 S
C1020 C316 1.542 . S
C1035 C46 1.542 1_556 S
C1047 C246 1.493 . S
C1062 C76 1.527 1_554 S
C1074 C276 1.495 . S
C1089 C86 1.499 . S
C1101 C206 1.533 . S
C1116 C116 1.525 . S
C1128 C236 1.496 . S
C1143 C126 1.524 . S
C1155 C166 1.512 . S
C1170 C196 1.500 . S
C1182 C156 1.543 . S
C1197 C8 1.809 . S
C1209 C19 1.835 . S
C1224 C39 1.816 . S
C1236 C28 1.853 . S
C1251 C48 1.813 . S
C1263 C59 1.831 . S
C1278 C68 1.868 . S
C1290 C79 1.786 . S
C1305 C99 1.869 . S
C1317 C88 1.793 . S
C1332 C119 1.858 . S
C1344 C108 1.810 . S
C1359 C128 1.837 . S
C1371 C139 1.834 . S
C1386 C148 1.792 . S
C1398 C159 1.869 . S
C1413 C168 1.847 . S
C1425 C179 1.823 . S
C1440 C188 1.787 . S
C1452 C199 1.871 . S
C1467 C219 1.868 . S
C1479 C208 1.797 . S
C1494 C239 1.842 . S
C1506 C228 1.804 . S
C1521 C248 1.831 . S
C1533 C259 1.840 . S
C1548 C268 1.790 . S
C1560 C279 1.870 . S
C1575 C299 1.870 . S
C1587 C288 1.792 . S
C1602 C319 1.839 . S
C1614 C308 1.806 . S
