# Generated by pormake.
# Topology zfj, (5)-cn, num edge types: 1
# Building blocks:
#     Node 0, Type 0, BuildingBlock: XOMCOT_clean_sbu_1, # of connection points: 5
#     Node 1, Type 0, BuildingBlock: XOMCOT_clean_sbu_1, # of connection points: 5
#     Node 2, Type 0, BuildingBlock: XOMCOT_clean_sbu_1, # of connection points: 5
#     Node 3, Type 0, BuildingBlock: XOMCOT_clean_sbu_1, # of connection points: 5
#     Node 4, Type 0, BuildingBlock: XOMCOT_clean_sbu_1, # of connection points: 5
#     Node 5, Type 0, BuildingBlock: XOMCOT_clean_sbu_1, # of connection points: 5
#     Node 6, Type 0, BuildingBlock: XOMCOT_clean_sbu_1, # of connection points: 5
#     Node 7, Type 0, BuildingBlock: XOMCOT_clean_sbu_1, # of connection points: 5
#     Node 8, Type 0, BuildingBlock: XOMCOT_clean_sbu_1, # of connection points: 5
#     Node 9, Type 0, BuildingBlock: XOMCOT_clean_sbu_1, # of connection points: 5
#     Node 10, Type 0, BuildingBlock: XOMCOT_clean_sbu_1, # of connection points: 5
#     Node 11, Type 0, BuildingBlock: XOMCOT_clean_sbu_1, # of connection points: 5
#     Node 12, Type 0, BuildingBlock: XOMCOT_clean_sbu_1, # of connection points: 5
#     Node 13, Type 0, BuildingBlock: XOMCOT_clean_sbu_1, # of connection points: 5
#     Node 14, Type 0, BuildingBlock: XOMCOT_clean_sbu_1, # of connection points: 5
#     Node 15, Type 0, BuildingBlock: XOMCOT_clean_sbu_1, # of connection points: 5
#     Edge 16, Type (0, 0), BuildingBlock: UVAHIK_clean_linker_0, # of connection points: 2
#     Edge 17, Type (0, 0), BuildingBlock: UVAHIK_clean_linker_0, # of connection points: 2
#     Edge 18, Type (0, 0), BuildingBlock: UVAHIK_clean_linker_0, # of connection points: 2
#     Edge 19, Type (0, 0), BuildingBlock: UVAHIK_clean_linker_0, # of connection points: 2
#     Edge 20, Type (0, 0), BuildingBlock: UVAHIK_clean_linker_0, # of connection points: 2
#     Edge 21, Type (0, 0), BuildingBlock: UVAHIK_clean_linker_0, # of connection points: 2
#     Edge 22, Type (0, 0), BuildingBlock: UVAHIK_clean_linker_0, # of connection points: 2
#     Edge 23, Type (0, 0), BuildingBlock: UVAHIK_clean_linker_0, # of connection points: 2
#     Edge 24, Type (0, 0), BuildingBlock: UVAHIK_clean_linker_0, # of connection points: 2
#     Edge 25, Type (0, 0), BuildingBlock: UVAHIK_clean_linker_0, # of connection points: 2
#     Edge 26, Type (0, 0), BuildingBlock: UVAHIK_clean_linker_0, # of connection points: 2
#     Edge 27, Type (0, 0), BuildingBlock: UVAHIK_clean_linker_0, # of connection points: 2
#     Edge 28, Type (0, 0), BuildingBlock: UVAHIK_clean_linker_0, # of connection points: 2
#     Edge 29, Type (0, 0), BuildingBlock: UVAHIK_clean_linker_0, # of connection points: 2
#     Edge 30, Type (0, 0), BuildingBlock: UVAHIK_clean_linker_0, # of connection points: 2
#     Edge 31, Type (0, 0), BuildingBlock: UVAHIK_clean_linker_0, # of connection points: 2
#     Edge 32, Type (0, 0), BuildingBlock: UVAHIK_clean_linker_0, # of connection points: 2
#     Edge 33, Type (0, 0), BuildingBlock: UVAHIK_clean_linker_0, # of connection points: 2
#     Edge 34, Type (0, 0), BuildingBlock: UVAHIK_clean_linker_0, # of connection points: 2
#     Edge 35, Type (0, 0), BuildingBlock: UVAHIK_clean_linker_0, # of connection points: 2
#     Edge 36, Type (0, 0), BuildingBlock: UVAHIK_clean_linker_0, # of connection points: 2
#     Edge 37, Type (0, 0), BuildingBlock: UVAHIK_clean_linker_0, # of connection points: 2
#     Edge 38, Type (0, 0), BuildingBlock: UVAHIK_clean_linker_0, # of connection points: 2
#     Edge 39, Type (0, 0), BuildingBlock: UVAHIK_clean_linker_0, # of connection points: 2
#     Edge 40, Type (0, 0), BuildingBlock: UVAHIK_clean_linker_0, # of connection points: 2
#     Edge 41, Type (0, 0), BuildingBlock: UVAHIK_clean_linker_0, # of connection points: 2
#     Edge 42, Type (0, 0), BuildingBlock: UVAHIK_clean_linker_0, # of connection points: 2
#     Edge 43, Type (0, 0), BuildingBlock: UVAHIK_clean_linker_0, # of connection points: 2
#     Edge 44, Type (0, 0), BuildingBlock: UVAHIK_clean_linker_0, # of connection points: 2
#     Edge 45, Type (0, 0), BuildingBlock: UVAHIK_clean_linker_0, # of connection points: 2
#     Edge 46, Type (0, 0), BuildingBlock: UVAHIK_clean_linker_0, # of connection points: 2
#     Edge 47, Type (0, 0), BuildingBlock: UVAHIK_clean_linker_0, # of connection points: 2
#     Edge 48, Type (0, 0), BuildingBlock: UVAHIK_clean_linker_0, # of connection points: 2
#     Edge 49, Type (0, 0), BuildingBlock: UVAHIK_clean_linker_0, # of connection points: 2
#     Edge 50, Type (0, 0), BuildingBlock: UVAHIK_clean_linker_0, # of connection points: 2
#     Edge 51, Type (0, 0), BuildingBlock: UVAHIK_clean_linker_0, # of connection points: 2
#     Edge 52, Type (0, 0), BuildingBlock: UVAHIK_clean_linker_0, # of connection points: 2
#     Edge 53, Type (0, 0), BuildingBlock: UVAHIK_clean_linker_0, # of connection points: 2
#     Edge 54, Type (0, 0), BuildingBlock: UVAHIK_clean_linker_0, # of connection points: 2
#     Edge 55, Type (0, 0), BuildingBlock: UVAHIK_clean_linker_0, # of connection points: 2
# Relax obj value: 0.170
# Max RMSD: 0.146
# Mean RMSD: 0.146
data_MOF--net-zfj--node1-XOMCOT_clean_sbu_1--edge1-UVAHIK_clean_linker_0
_symmetry_space_group_name_H-M    P1
_symmetry_Int_Tables_number       1
_symmetry_cell_setting            triclinic
loop_
_symmetry_equiv_pos_as_xyz
'x, y, z'
_cell_length_a     43.942307
_cell_length_b     43.808481
_cell_length_c     65.031785
_cell_angle_alpha  89.981786
_cell_angle_beta   89.969378
_cell_angle_gamma 89.958534
loop_
_atom_site_label
_atom_site_type_symbol
_atom_site_fract_x
_atom_site_fract_y
_atom_site_fract_z
_atom_type_partial_charge
C0 C 0.50468 0.26796 0.1778 0.0
C1 C 0.50051 0.29856 0.18144 0.0
N2 N 0.48332 0.31013 0.16618 0.0
N3 N 0.49003 0.26008 0.16039 0.0
C4 C 0.4769 0.28624 0.15376 0.0
H5 H 0.51903 0.25278 0.18663 0.0
Co6 Co 0.49335 0.22147 0.14822 0.0
C7 C 0.47998 0.24473 0.10496 0.0
O8 O 0.50859 0.24534 0.09932 0.0
N9 N 0.49635 0.18212 0.13641 0.0
C10 C 0.5051 0.14367 0.11487 0.0
C11 C 0.50381 0.17477 0.11688 0.0
C12 C 0.49341 0.15481 0.146 0.0
N13 N 0.49854 0.13097 0.13319 0.0
O14 O 0.45479 0.21054 0.15992 0.0
H15 H 0.50949 0.19066 0.1049 0.0
H16 H 0.48806 0.15247 0.16214 0.0
O17 O 0.47225 0.23577 0.12298 0.0
C18 C 0.45799 0.20362 0.17884 0.0
O19 O 0.48554 0.20354 0.18669 0.0
N20 N 0.53306 0.23171 0.13891 0.0
C21 C 0.5943 0.24487 0.1312 0.0
C22 C 0.57176 0.26693 0.12784 0.0
C23 C 0.54143 0.26016 0.13226 0.0
C24 C 0.55502 0.2106 0.14323 0.0
C25 C 0.58559 0.21646 0.13916 0.0
H26 H 0.52465 0.27779 0.12989 0.0
H27 H 0.5491 0.18926 0.15052 0.0
H28 H 0.4644 0.2882 0.13949 0.0
H29 H 0.51116 0.3117 0.19355 0.0
H30 H 0.5117 0.13147 0.10111 0.0
H31 H 0.57742 0.28932 0.12192 0.0
H32 H 0.60235 0.19922 0.14294 0.0
C33 C 0.2727 0.47467 0.67473 0.0
C34 C 0.24187 0.47481 0.67806 0.0
N35 N 0.2277 0.47248 0.65975 0.0
N36 N 0.27813 0.47214 0.65443 0.0
C37 C 0.25028 0.47065 0.64564 0.0
H38 H 0.29015 0.4769 0.68634 0.0
Co39 Co 0.31726 0.47364 0.64387 0.0
C40 C 0.31265 0.46835 0.59901 0.0
O41 O 0.33281 0.49049 0.59823 0.0
N42 N 0.35788 0.47445 0.63393 0.0
C43 C 0.40067 0.4572 0.61964 0.0
C44 C 0.37051 0.45121 0.6232 0.0
C45 C 0.38138 0.49381 0.63734 0.0
N46 N 0.40751 0.48396 0.62859 0.0
O47 O 0.32401 0.43271 0.65326 0.0
H48 H 0.35859 0.43072 0.6186 0.0
H49 H 0.37993 0.51426 0.64652 0.0
O50 O 0.30311 0.45895 0.61658 0.0
C51 C 0.3401 0.43396 0.66955 0.0
O52 O 0.34866 0.46085 0.67639 0.0
N53 N 0.31056 0.51488 0.63704 0.0
C54 C 0.29897 0.57737 0.63433 0.0
C55 C 0.28512 0.55695 0.62069 0.0
C56 C 0.29047 0.52568 0.6227 0.0
C57 C 0.32295 0.53438 0.65104 0.0
C58 C 0.31786 0.56576 0.64981 0.0
H59 H 0.27746 0.51038 0.61318 0.0
H60 H 0.33614 0.52537 0.66369 0.0
H61 H 0.24661 0.46941 0.62921 0.0
H62 H 0.23081 0.47669 0.69288 0.0
H63 H 0.41671 0.44229 0.61195 0.0
H64 H 0.26924 0.56496 0.60915 0.0
H65 H 0.32831 0.58074 0.66101 0.0
C66 C 0.99743 0.24321 0.17056 0.0
C67 C 0.99595 0.21203 0.17121 0.0
N68 N 0.00978 0.20098 0.15433 0.0
N69 N 0.01242 0.25202 0.15348 0.0
C70 C 0.01946 0.22568 0.14365 0.0
H71 H 0.98805 0.25864 0.18188 0.0
Co72 Co 0.01944 0.29332 0.14873 0.0
C73 C 0.0277 0.3018 0.10438 0.0
O74 O 0.01002 0.32583 0.1064 0.0
N75 N 0.02703 0.33567 0.14506 0.0
C76 C 0.05313 0.37799 0.13791 0.0
C77 C 0.05399 0.34668 0.13831 0.0
C78 C 0.01037 0.36108 0.14906 0.0
N79 N 0.02564 0.38707 0.14468 0.0
O80 O 0.05985 0.28905 0.15927 0.0
H81 H 0.07321 0.33273 0.13385 0.0
H82 H 0.98746 0.36094 0.15492 0.0
O83 O 0.03379 0.28537 0.12022 0.0
C84 C 0.05952 0.29169 0.17877 0.0
O85 O 0.03327 0.29607 0.18799 0.0
N86 N 0.97868 0.29676 0.14037 0.0
C87 C 0.91574 0.29534 0.13514 0.0
C88 C 0.93503 0.28195 0.12056 0.0
C89 C 0.9664 0.28207 0.12378 0.0
C90 C 0.96009 0.30866 0.15511 0.0
C91 C 0.9286 0.30877 0.15263 0.0
H92 H 0.98044 0.26887 0.11348 0.0
H93 H 0.96978 0.31705 0.1693 0.0
H94 H 0.03173 0.22455 0.12923 0.0
H95 H 0.98513 0.19842 0.18303 0.0
H96 H 0.07158 0.39289 0.13336 0.0
H97 H 0.92585 0.26993 0.10739 0.0
H98 H 0.91441 0.31856 0.16456 0.0
C99 C 0.24971 0.99093 0.67487 0.0
C100 C 0.27988 0.99716 0.67863 0.0
N101 N 0.29038 0.01503 0.66333 0.0
N102 N 0.24116 0.00485 0.65731 0.0
C103 C 0.26634 0.01971 0.65078 0.0
H104 H 0.23532 0.97592 0.6838 0.0
Co105 Co 0.20317 1.00014 0.64472 0.0
C106 C 0.22819 0.00961 0.60147 0.0
O107 O 0.22814 0.98056 0.59669 0.0
N108 N 0.16444 0.99589 0.63242 0.0
C109 C 0.1268 0.98552 0.61065 0.0
C110 C 0.15771 0.9875 0.61296 0.0
C111 C 0.13692 0.99883 0.64164 0.0
N112 N 0.11363 0.99248 0.62872 0.0
O113 O 0.19189 0.03982 0.65454 0.0
H114 H 0.17387 0.98205 0.60115 0.0
H115 H 0.13407 0.00446 0.65772 0.0
O116 O 0.21862 0.01888 0.619 0.0
C117 C 0.18539 0.03837 0.67361 0.0
O118 O 0.18522 0.01154 0.68264 0.0
N119 N 0.21394 0.95959 0.63727 0.0
C120 C 0.22852 0.89769 0.63274 0.0
C121 C 0.2501 0.92041 0.6285 0.0
C122 C 0.24263 0.95109 0.63138 0.0
C123 C 0.19312 0.93767 0.64224 0.0
C124 C 0.19975 0.90674 0.63982 0.0
H125 H 0.25998 0.96802 0.62858 0.0
H126 H 0.17145 0.94398 0.64884 0.0
H127 H 0.26749 0.03258 0.63662 0.0
H128 H 0.29351 0.9876 0.69091 0.0
H129 H 0.11499 0.97924 0.59668 0.0
H130 H 0.27269 0.91466 0.6231 0.0
H131 H 0.18275 0.89008 0.64421 0.0
C132 C 0.53955 0.22787 0.85207 0.0
C133 C 0.54024 0.19819 0.8455 0.0
N134 N 0.5118 0.18698 0.84631 0.0
N135 N 0.51089 0.23558 0.85753 0.0
C136 C 0.49426 0.21036 0.85308 0.0
H137 H 0.55898 0.24292 0.85281 0.0
Co138 Co 0.50113 0.27563 0.86622 0.0
C139 C 0.46549 0.23805 0.89859 0.0
O140 O 0.47527 0.21096 0.89313 0.0
N141 N 0.49281 0.31585 0.87399 0.0
C142 C 0.48962 0.35765 0.89317 0.0
C143 C 0.48935 0.32631 0.89335 0.0
C144 C 0.49523 0.34127 0.86228 0.0
N145 N 0.49361 0.36712 0.87364 0.0
O146 O 0.4671 0.27642 0.84779 0.0
H147 H 0.48915 0.31219 0.90697 0.0
H148 H 0.50044 0.34075 0.84601 0.0
O149 O 0.47468 0.26184 0.88898 0.0
C150 C 0.47439 0.27653 0.82883 0.0
O151 O 0.50334 0.27561 0.82379 0.0
N152 N 0.53557 0.27593 0.8833 0.0
C153 C 0.59289 0.2741 0.90158 0.0
C154 C 0.56949 0.25492 0.9085 0.0
C155 C 0.54096 0.2561 0.89909 0.0
C156 C 0.55765 0.29567 0.87702 0.0
C157 C 0.58641 0.29528 0.88601 0.0
H158 H 0.5241 0.23977 0.90376 0.0
H159 H 0.55346 0.31064 0.8641 0.0
H160 H 0.46979 0.20908 0.85478 0.0
H161 H 0.56039 0.18548 0.84118 0.0
H162 H 0.48832 0.37229 0.90654 0.0
H163 H 0.57355 0.23824 0.92049 0.0
H164 H 0.60393 0.31007 0.87986 0.0
C165 C 0.23108 0.52035 0.34325 0.0
C166 C 0.26204 0.52367 0.34303 0.0
N167 N 0.27418 0.50379 0.35657 0.0
N168 N 0.22343 0.49841 0.3568 0.0
C169 C 0.25017 0.48857 0.36468 0.0
H170 H 0.21504 0.53296 0.33393 0.0
Co171 Co 0.18319 0.48709 0.36114 0.0
C172 C 0.17822 0.46848 0.40438 0.0
O173 O 0.15238 0.48359 0.40498 0.0
N174 N 0.14206 0.47525 0.3647 0.0
C175 C 0.10223 0.44463 0.36969 0.0
C176 C 0.13337 0.44613 0.36831 0.0
C177 C 0.11549 0.49092 0.36374 0.0
N178 N 0.09096 0.47287 0.36681 0.0
O179 O 0.19059 0.44943 0.34701 0.0
H180 H 0.14879 0.42703 0.36997 0.0
H181 H 0.11379 0.51511 0.36112 0.0
O182 O 0.19371 0.46798 0.38767 0.0
C183 C 0.19201 0.45267 0.32757 0.0
O184 O 0.18856 0.48007 0.31971 0.0
N185 N 0.17683 0.52564 0.37327 0.0
C186 C 0.18068 0.58819 0.38133 0.0
C187 C 0.1937 0.56691 0.39481 0.0
C188 C 0.1921 0.53579 0.39028 0.0
C189 C 0.16369 0.5461 0.3602 0.0
C190 C 0.16475 0.57737 0.36415 0.0
H191 H 0.2057 0.52047 0.39944 0.0
H192 H 0.15437 0.53828 0.34575 0.0
H193 H 0.25194 0.47081 0.37618 0.0
H194 H 0.27458 0.53917 0.33324 0.0
H195 H 0.08896 0.42418 0.37224 0.0
H196 H 0.20729 0.5743 0.40777 0.0
H197 H 0.15474 0.593 0.35316 0.0
C198 C 0.97487 0.26123 0.83856 0.0
C199 C 0.97478 0.29242 0.83726 0.0
N200 N 0.99757 0.30326 0.84902 0.0
N201 N 0.99747 0.25225 0.85117 0.0
C202 C 0.01099 0.27836 0.85739 0.0
H203 H 0.95946 0.24591 0.83072 0.0
Co204 Co 0.00548 0.21133 0.85595 0.0
C205 C 0.02442 0.20525 0.89896 0.0
O206 O 0.00641 0.18131 0.89939 0.0
N207 N 0.01411 0.1694 0.85969 0.0
C208 C 0.04186 0.12791 0.86634 0.0
C209 C 0.04215 0.15913 0.86488 0.0
C210 C 0.99752 0.1436 0.85718 0.0
N211 N 0.0138 0.11829 0.86144 0.0
O212 O 0.04251 0.21452 0.84065 0.0
H213 H 0.06166 0.17358 0.86769 0.0
H214 H 0.97404 0.14287 0.85244 0.0
O215 O 0.02676 0.22083 0.88227 0.0
C216 C 0.03755 0.21254 0.8214 0.0
O217 O 0.00922 0.21099 0.81503 0.0
N218 N 0.96743 0.20873 0.86935 0.0
C219 C 0.90699 0.21292 0.88243 0.0
C220 C 0.93024 0.22755 0.89334 0.0
C221 C 0.96013 0.22589 0.88624 0.0
C222 C 0.9449 0.19521 0.85821 0.0
C223 C 0.91464 0.19642 0.86469 0.0
H224 H 0.97688 0.24013 0.89362 0.0
H225 H 0.95011 0.18514 0.84345 0.0
H226 H 0.03055 0.27905 0.86748 0.0
H227 H 0.95888 0.30607 0.82848 0.0
H228 H 0.06085 0.11332 0.87035 0.0
H229 H 0.92514 0.24187 0.90647 0.0
H230 H 0.89727 0.18554 0.85544 0.0
C231 C 0.24167 0.97337 0.33847 0.0
C232 C 0.21282 0.9785 0.33114 0.0
N233 N 0.20471 0.00717 0.33609 0.0
N234 N 0.25176 0.9985 0.34836 0.0
C235 C 0.22903 0.01912 0.34595 0.0
H236 H 0.25434 0.95234 0.33693 0.0
Co237 Co 0.29071 1.00122 0.36048 0.0
C238 C 0.25127 0.03094 0.39445 0.0
O239 O 0.22469 0.02168 0.38774 0.0
N240 N 0.3298 0.0033 0.37195 0.0
C241 C 0.3674 0.99982 0.39464 0.0
C242 C 0.33641 1.00009 0.39208 0.0
C243 C 0.35725 0.00475 0.36251 0.0
N244 N 0.38064 0.00255 0.37603 0.0
O245 O 0.29763 0.0388 0.34618 0.0
H246 H 0.31975 0.99686 0.40413 0.0
H247 H 0.35998 0.00603 0.346 0.0
O248 O 0.27561 0.02359 0.38481 0.0
C249 C 0.30189 0.03383 0.32708 0.0
O250 O 0.30145 0.0055 0.32043 0.0
N251 N 0.2851 0.96295 0.37296 0.0
C252 C 0.27573 0.90153 0.38238 0.0
C253 C 0.25834 0.92436 0.39193 0.0
C254 C 0.26335 0.955 0.38697 0.0
C255 C 0.30321 0.94117 0.36435 0.0
C256 C 0.29908 0.91039 0.36893 0.0
H257 H 0.24859 0.97176 0.39364 0.0
H258 H 0.32006 0.94768 0.35304 0.0
H259 H 0.22996 0.04229 0.35171 0.0
H260 H 0.19831 0.96192 0.32366 0.0
H261 H 0.37921 0.99735 0.40914 0.0
H262 H 0.23987 0.91857 0.40224 0.0
H263 H 0.31339 0.8936 0.36144 0.0
C264 C 0.48088 0.72841 0.83759 0.0
C265 C 0.48105 0.69848 0.83142 0.0
N266 N 0.50809 0.6862 0.83649 0.0
N267 N 0.50748 0.73515 0.84691 0.0
C268 C 0.52405 0.70916 0.84531 0.0
H269 H 0.46219 0.74422 0.83569 0.0
Co270 Co 0.51556 0.77449 0.85742 0.0
C271 C 0.54203 0.73508 0.89297 0.0
O272 O 0.53132 0.70835 0.88747 0.0
N273 N 0.52274 0.81408 0.86724 0.0
C274 C 0.52127 0.85373 0.88848 0.0
C275 C 0.52194 0.82251 0.88719 0.0
C276 C 0.52258 0.84072 0.85664 0.0
N277 N 0.52129 0.86523 0.86929 0.0
O278 O 0.55333 0.77561 0.8427 0.0
H279 H 0.51901 0.80708 0.89999 0.0
H280 H 0.52052 0.84199 0.84008 0.0
O281 O 0.53629 0.7588 0.88215 0.0
C282 C 0.54951 0.77745 0.82332 0.0
O283 O 0.52166 0.77781 0.81598 0.0
N284 N 0.47748 0.77475 0.87057 0.0
C285 C 0.417 0.77669 0.88379 0.0
C286 C 0.43694 0.75394 0.89094 0.0
C287 C 0.46716 0.75345 0.8842 0.0
C288 C 0.45849 0.79702 0.86355 0.0
C289 C 0.42854 0.7989 0.87034 0.0
H290 H 0.48153 0.73498 0.88909 0.0
H291 H 0.46639 0.8131 0.85214 0.0
H292 H 0.54727 0.70695 0.85066 0.0
H293 H 0.46216 0.68631 0.82459 0.0
H294 H 0.51903 0.86692 0.90248 0.0
H295 H 0.42907 0.73582 0.90093 0.0
H296 H 0.41444 0.8173 0.86462 0.0
C297 C 0.7257 0.52624 0.33167 0.0
C298 C 0.75644 0.5246 0.32807 0.0
N299 N 0.77101 0.52543 0.34631 0.0
N300 N 0.72077 0.52818 0.35205 0.0
C301 C 0.74879 0.52788 0.36063 0.0
H302 H 0.70792 0.52564 0.32019 0.0
Co303 Co 0.68189 0.52881 0.36292 0.0
C304 C 0.68742 0.53208 0.40776 0.0
O305 O 0.66608 0.51107 0.40831 0.0
N306 N 0.64151 0.53025 0.37325 0.0
C307 C 0.60008 0.54951 0.38817 0.0
C308 C 0.63028 0.55424 0.38393 0.0
C309 C 0.61722 0.51157 0.37076 0.0
N310 N 0.59185 0.52266 0.37985 0.0
O311 O 0.67816 0.57046 0.35432 0.0
H312 H 0.64324 0.57426 0.38813 0.0
H313 H 0.61763 0.49053 0.36219 0.0
O314 O 0.69732 0.54151 0.3903 0.0
C315 C 0.66097 0.57268 0.33862 0.0
O316 O 0.64741 0.54809 0.3316 0.0
N317 N 0.68606 0.48698 0.36895 0.0
C318 C 0.69609 0.424 0.36942 0.0
C319 C 0.71107 0.44315 0.38339 0.0
C320 C 0.7063 0.47462 0.3826 0.0
C321 C 0.67235 0.46879 0.35472 0.0
C322 C 0.67645 0.43722 0.35495 0.0
H323 H 0.72018 0.48886 0.3923 0.0
H324 H 0.65897 0.47903 0.34259 0.0
H325 H 0.75277 0.5284 0.37703 0.0
H326 H 0.76716 0.52284 0.31314 0.0
H327 H 0.58503 0.56523 0.39602 0.0
H328 H 0.72756 0.43411 0.39417 0.0
H329 H 0.66485 0.42342 0.34359 0.0
C330 C 0.0136 0.75686 0.83233 0.0
C331 C 0.00796 0.7867 0.82691 0.0
N332 N 0.98777 0.79836 0.84038 0.0
N333 N 0.99705 0.74979 0.84912 0.0
C334 C 0.98113 0.77539 0.85344 0.0
H335 H 0.02988 0.74172 0.82513 0.0
Co336 Co 0.99919 0.71291 0.8634 0.0
C337 C 0.9812 0.74192 0.90405 0.0
O338 O 0.00915 0.74389 0.91091 0.0
N339 N 0.00058 0.67523 0.87724 0.0
C340 C 0.00477 0.63868 0.90078 0.0
C341 C 0.00246 0.66954 0.89761 0.0
C342 C 0.00182 0.64733 0.86838 0.0
N343 N 0.00457 0.62464 0.88237 0.0
O344 O 0.96192 0.70104 0.85063 0.0
H345 H 0.00324 0.68646 0.90957 0.0
H346 H 0.00202 0.6439 0.85192 0.0
O347 O 0.97552 0.72993 0.88654 0.0
C348 C 0.96612 0.69268 0.83209 0.0
O349 O 0.99415 0.69089 0.82514 0.0
N350 N 0.03795 0.72435 0.87434 0.0
C351 C 0.09747 0.73901 0.88587 0.0
C352 C 0.07514 0.76169 0.88472 0.0
C353 C 0.04564 0.75397 0.87873 0.0
C354 C 0.06015 0.70245 0.87431 0.0
C355 C 0.08976 0.7091 0.88056 0.0
H356 H 0.02889 0.77194 0.87814 0.0
H357 H 0.05546 0.67969 0.86887 0.0
H358 H 0.96617 0.77778 0.86655 0.0
H359 H 0.01944 0.79944 0.81494 0.0
H360 H 0.0067 0.62756 0.91558 0.0
H361 H 0.08041 0.7852 0.88843 0.0
H362 H 0.10678 0.69119 0.88043 0.0
C363 C 0.74814 0.00383 0.32388 0.0
C364 C 0.71712 0.00399 0.32154 0.0
N365 N 0.70416 1.00044 0.34018 0.0
N366 N 0.75505 1.00007 0.34388 0.0
C367 C 0.72776 0.99778 0.3535 0.0
H368 H 0.76474 0.00695 0.31179 0.0
Co369 Co 0.79542 0.00168 0.35259 0.0
C370 C 0.79496 0.99939 0.39763 0.0
O371 O 0.81413 0.0224 0.39677 0.0
N372 N 0.83733 0.00252 0.36046 0.0
C373 C 0.88113 0.98551 0.37355 0.0
C374 C 0.85035 0.98076 0.37236 0.0
C375 C 0.86133 0.01932 0.35373 0.0
N376 N 0.88803 0.00968 0.36177 0.0
O377 O 0.80095 0.96034 0.34394 0.0
H378 H 0.83831 0.96178 0.37921 0.0
H379 H 0.85982 0.03739 0.34252 0.0
O380 O 0.78422 0.98829 0.38085 0.0
C381 C 0.81513 0.96034 0.32685 0.0
O382 O 0.8229 0.98662 0.31864 0.0
N383 N 0.78961 0.04326 0.35894 0.0
C384 C 0.77765 0.10578 0.36162 0.0
C385 C 0.76349 0.08514 0.37502 0.0
C386 C 0.76919 0.05395 0.3731 0.0
C387 C 0.80221 0.06287 0.34509 0.0
C388 C 0.79714 0.09426 0.34641 0.0
H389 H 0.75622 0.03852 0.38258 0.0
H390 H 0.81511 0.05401 0.33228 0.0
H391 H 0.72523 0.99542 0.36997 0.0
H392 H 0.70509 0.0067 0.30714 0.0
H393 H 0.89747 0.97124 0.38151 0.0
H394 H 0.74708 0.09285 0.38632 0.0
H395 H 0.80792 0.10924 0.33535 0.0
C396 C 0.48698 0.76354 0.17349 0.0
C397 C 0.49032 0.79374 0.17875 0.0
N398 N 0.50698 0.80759 0.16407 0.0
N399 N 0.50145 0.75827 0.15557 0.0
C400 C 0.51388 0.78543 0.15036 0.0
H401 H 0.47372 0.74672 0.18172 0.0
Co402 Co 0.50023 0.72075 0.142 0.0
C403 C 0.51287 0.74817 0.09979 0.0
O404 O 0.48426 0.74847 0.09417 0.0
N405 N 0.4996 0.68217 0.12902 0.0
C406 C 0.494 0.6441 0.10671 0.0
C407 C 0.49523 0.67523 0.10901 0.0
C408 C 0.50093 0.65471 0.13852 0.0
N409 N 0.49749 0.63108 0.12532 0.0
O410 O 0.53937 0.71166 0.15329 0.0
H411 H 0.49158 0.69145 0.09683 0.0
H412 H 0.50356 0.65213 0.15493 0.0
O413 O 0.52073 0.73783 0.11743 0.0
C414 C 0.53815 0.70113 0.17152 0.0
O415 O 0.5115 0.69652 0.18011 0.0
N416 N 0.45993 0.72955 0.13251 0.0
C417 C 0.39909 0.74067 0.12224 0.0
C418 C 0.42037 0.76438 0.12216 0.0
C419 C 0.45049 0.75846 0.12758 0.0
C420 C 0.43884 0.70668 0.13389 0.0
C421 C 0.40855 0.71154 0.1283 0.0
H422 H 0.46635 0.77718 0.12703 0.0
H423 H 0.4451 0.6845 0.13973 0.0
H424 H 0.52652 0.78926 0.13631 0.0
H425 H 0.47973 0.805 0.19173 0.0
H426 H 0.48942 0.63217 0.09249 0.0
H427 H 0.41387 0.78733 0.11774 0.0
H428 H 0.39246 0.69287 0.12934 0.0
C429 C 0.76489 0.48467 0.66729 0.0
C430 C 0.73379 0.48606 0.66887 0.0
N431 N 0.72364 0.5068 0.65524 0.0
N432 N 0.77435 0.50463 0.65286 0.0
C433 C 0.74861 0.51769 0.64561 0.0
H434 H 0.77981 0.47049 0.67645 0.0
Co435 Co 0.81522 0.51237 0.64752 0.0
C436 C 0.81974 0.52627 0.60353 0.0
O437 O 0.84406 0.5088 0.60319 0.0
N438 N 0.857 0.52094 0.64278 0.0
C439 C 0.89798 0.54891 0.6355 0.0
C440 C 0.86695 0.54916 0.63771 0.0
C441 C 0.88283 0.50399 0.64374 0.0
N442 N 0.90802 0.52045 0.63926 0.0
O443 O 0.81122 0.55152 0.66031 0.0
H444 H 0.85245 0.56886 0.63556 0.0
H445 H 0.88349 0.48001 0.64732 0.0
O446 O 0.8051 0.5298 0.62042 0.0
C447 C 0.81016 0.54942 0.67982 0.0
O448 O 0.81148 0.52226 0.68833 0.0
N449 N 0.81835 0.47257 0.63698 0.0
C450 C 0.81181 0.40968 0.63134 0.0
C451 C 0.79837 0.43039 0.61761 0.0
C452 C 0.80142 0.46175 0.62092 0.0
C453 C 0.83145 0.4527 0.65045 0.0
C454 C 0.82918 0.42127 0.64764 0.0
H455 H 0.78796 0.47698 0.61158 0.0
H456 H 0.84207 0.46132 0.66428 0.0
H457 H 0.74818 0.53548 0.63406 0.0
H458 H 0.71965 0.47292 0.67924 0.0
H459 H 0.91205 0.5684 0.63177 0.0
H460 H 0.78371 0.42253 0.60532 0.0
H461 H 0.83971 0.40621 0.65877 0.0
C462 C 0.01931 0.74694 0.15934 0.0
C463 C 0.01932 0.71757 0.16665 0.0
N464 N 0.99154 0.70548 0.1635 0.0
N465 N 0.99187 0.75339 0.15112 0.0
C466 C 0.97505 0.72807 0.15468 0.0
H467 H 0.03846 0.76242 0.15952 0.0
Co468 Co 0.98232 0.79119 0.13895 0.0
C469 C 0.95385 0.7475 0.10669 0.0
O470 O 0.96543 0.72153 0.113 0.0
N471 N 0.97343 0.82924 0.12734 0.0
C472 C 0.97047 0.86668 0.10442 0.0
C473 C 0.97245 0.83568 0.10707 0.0
C474 C 0.97219 0.85675 0.13673 0.0
N475 N 0.97053 0.88009 0.12308 0.0
O476 O 0.9457 0.79317 0.15487 0.0
H477 H 0.97548 0.81916 0.09491 0.0
H478 H 0.97413 0.85954 0.15321 0.0
O479 O 0.96015 0.77239 0.11603 0.0
C480 C 0.95101 0.79697 0.17395 0.0
O481 O 0.97934 0.79932 0.18018 0.0
N482 N 0.01939 0.79049 0.12449 0.0
C483 C 0.07992 0.78944 0.11131 0.0
C484 C 0.05968 0.76601 0.10577 0.0
C485 C 0.02942 0.76708 0.11241 0.0
C486 C 0.03845 0.81388 0.12945 0.0
C487 C 0.06843 0.81422 0.12259 0.0
H488 H 0.01494 0.74796 0.10909 0.0
H489 H 0.03075 0.83186 0.13956 0.0
H490 H 0.95131 0.72601 0.1505 0.0
H491 H 0.03883 0.70557 0.17281 0.0
H492 H 0.97127 0.87843 0.0898 0.0
H493 H 0.0674 0.74608 0.09743 0.0
H494 H 0.08273 0.8333 0.12686 0.0
C495 C 0.7454 0.00224 0.67496 0.0
C496 C 0.77627 0.00372 0.67789 0.0
N497 N 0.79015 0.99669 0.66002 0.0
N498 N 0.73964 0.99425 0.65537 0.0
C499 C 0.76735 0.99077 0.64659 0.0
H500 H 0.72811 0.00724 0.6863 0.0
Co501 Co 0.70001 0.99252 0.64575 0.0
C502 C 0.70201 0.98483 0.60108 0.0
O503 O 0.68124 0.00644 0.60056 0.0
N504 N 0.65882 0.99003 0.63697 0.0
C505 C 0.6169 0.96887 0.62397 0.0
C506 C 0.64753 0.96532 0.62709 0.0
C507 C 0.634 0.00771 0.64049 0.0
N508 N 0.60843 0.99548 0.63245 0.0
O509 O 0.69644 0.95201 0.6565 0.0
H510 H 0.66076 0.94554 0.62269 0.0
H511 H 0.63414 0.02871 0.64913 0.0
O512 O 0.71339 0.9767 0.61845 0.0
C513 C 0.68154 0.95288 0.6733 0.0
O514 O 0.67175 0.97943 0.68002 0.0
N515 N 0.70397 0.03351 0.6373 0.0
C516 C 0.71552 0.0959 0.63276 0.0
C517 C 0.73014 0.07445 0.62019 0.0
C518 C 0.72462 0.04339 0.62302 0.0
C519 C 0.69039 0.05401 0.65011 0.0
C520 C 0.69527 0.08532 0.64783 0.0
H521 H 0.73835 0.02745 0.61444 0.0
H522 H 0.67703 0.04597 0.66296 0.0
H523 H 0.77073 0.98512 0.63056 0.0
H524 H 0.78758 0.00961 0.69212 0.0
H525 H 0.60174 0.95255 0.61681 0.0
H526 H 0.74709 0.08145 0.60905 0.0
H527 H 0.68401 0.10098 0.65824 0.0
C528 C 0.44699 0.22256 0.07814 0.0
C529 C 0.45734 0.2485 0.0886 0.0
C530 C 0.43492 0.22521 0.05831 0.0
C531 C 0.44395 0.27724 0.01409 0.0
H532 H 0.39505 0.21593 0.98668 0.0
C533 C 0.44098 0.27036 0.92602 0.0
C534 C 0.4498 0.24146 0.91871 0.0
C535 C 0.4317 0.27417 0.94646 0.0
C536 C 0.40857 0.23336 0.99415 0.0
H537 H 0.46122 0.29763 0.08758 0.0
H538 H 0.43833 0.3027 0.05351 0.0
H539 H 0.39543 0.21841 0.02423 0.0
H540 H 0.45262 0.19339 0.92666 0.0
H541 H 0.43621 0.20002 0.96209 0.0
H542 H 0.45761 0.29171 0.98408 0.0
C543 C 0.44034 0.28013 0.06016 0.0
C544 C 0.40892 0.23473 0.01568 0.0
C545 C 0.45295 0.27737 0.07983 0.0
C546 C 0.44638 0.21607 0.93177 0.0
C547 C 0.43679 0.21983 0.95212 0.0
C548 C 0.44328 0.2761 0.99263 0.0
C549 C 0.43283 0.25394 0.04864 0.0
C550 C 0.42747 0.25603 0.02597 0.0
C551 C 0.43048 0.24906 0.95991 0.0
C552 C 0.4264 0.25353 0.98242 0.0
H553 H 0.45088 0.20001 0.08447 0.0
H554 H 0.42975 0.20444 0.05002 0.0
H555 H 0.45901 0.29363 0.02125 0.0
H556 H 0.44231 0.29025 0.91622 0.0
H557 H 0.42645 0.29692 0.95194 0.0
C558 C 0.21741 0.43835 0.42413 0.0
C559 C 0.19086 0.45622 0.42381 0.0
C560 C 0.23005 0.42891 0.44289 0.0
C561 C 0.26375 0.43221 0.48349 0.0
H562 H 0.21454 0.42768 0.53292 0.0
C563 C 0.31086 0.46904 0.56081 0.0
C564 C 0.29997 0.45681 0.57938 0.0
C565 C 0.29848 0.46021 0.54206 0.0
C566 C 0.22875 0.4282 0.51932 0.0
H567 H 0.15638 0.47754 0.44296 0.0
H568 H 0.17884 0.46255 0.47523 0.0
H569 H 0.19012 0.42592 0.49944 0.0
H570 H 0.26795 0.42484 0.59273 0.0
H571 H 0.24645 0.40875 0.55963 0.0
H572 H 0.30241 0.43366 0.50333 0.0
C573 C 0.18961 0.45473 0.46121 0.0
C574 C 0.21467 0.42774 0.50003 0.0
C575 C 0.17681 0.46371 0.44256 0.0
C576 C 0.27679 0.43474 0.57868 0.0
C577 C 0.26441 0.42566 0.55972 0.0
C578 C 0.27784 0.43202 0.50274 0.0
C579 C 0.21663 0.43753 0.46174 0.0
C580 C 0.23186 0.4313 0.48187 0.0
C581 C 0.27497 0.43854 0.54116 0.0
C582 C 0.26046 0.43164 0.52094 0.0
H583 H 0.22864 0.43201 0.40993 0.0
H584 H 0.25058 0.41525 0.44259 0.0
H585 H 0.27794 0.43492 0.47001 0.0
H586 H 0.32866 0.48613 0.56065 0.0
H587 H 0.30677 0.47135 0.52829 0.0
C588 C 0.03508 0.19666 0.93607 0.0
C589 C 0.0382 0.21538 0.91864 0.0
C590 C 0.04405 0.2068 0.95542 0.0
C591 C 0.05654 0.27853 0.98406 0.0
H592 H 0.07223 0.22078 0.02801 0.0
C593 C 0.0607 0.27179 0.0797 0.0
C594 C 0.03704 0.29269 0.08335 0.0
C595 C 0.06893 0.26407 0.05946 0.0
C596 C 0.06848 0.23748 0.01601 0.0
H597 H 0.05511 0.25889 0.90772 0.0
H598 H 0.07189 0.27648 0.94166 0.0
H599 H 0.07551 0.20415 0.99251 0.0
H600 H 0.00309 0.32131 0.06861 0.0
H601 H 0.01622 0.30705 0.03399 0.0
H602 H 0.05059 0.31211 0.0075 0.0
C603 C 0.06161 0.25411 0.94038 0.0
C604 C 0.06985 0.22778 0.99552 0.0
C605 C 0.05225 0.24398 0.92087 0.0
C606 C 0.02173 0.30544 0.06644 0.0
C607 C 0.02955 0.29746 0.04641 0.0
C608 C 0.05586 0.28838 0.00451 0.0
C609 C 0.05693 0.23589 0.95803 0.0
C610 C 0.06236 0.24778 0.97929 0.0
C611 C 0.05337 0.27681 0.04251 0.0
C612 C 0.06027 0.26766 0.02083 0.0
H613 H 0.02454 0.17437 0.935 0.0
H614 H 0.03937 0.19217 0.96845 0.0
H615 H 0.05073 0.29478 0.97215 0.0
H616 H 0.07298 0.26167 0.09243 0.0
H617 H 0.08753 0.24823 0.05714 0.0
C618 C 0.28152 0.04991 0.42472 0.0
C619 C 0.25321 0.04459 0.4153 0.0
C620 C 0.28311 0.05786 0.44554 0.0
C621 C 0.23752 0.08318 0.49071 0.0
H622 H 0.28929 0.02717 0.52076 0.0
C623 C 0.2117 0.04275 0.57281 0.0
C624 C 0.23534 0.03122 0.58498 0.0
C625 C 0.21791 0.05485 0.55335 0.0
C626 C 0.27527 0.04369 0.51278 0.0
H627 H 0.2043 0.04626 0.41996 0.0
H628 H 0.20713 0.06015 0.45609 0.0
H629 H 0.29297 0.02975 0.48365 0.0
H630 H 0.28399 0.02497 0.58737 0.0
H631 H 0.29524 0.04756 0.55383 0.0
H632 H 0.21917 0.09648 0.51989 0.0
C633 C 0.22812 0.05802 0.44747 0.0
C634 C 0.27736 0.04508 0.49138 0.0
C635 C 0.22653 0.04981 0.42674 0.0
C636 C 0.26548 0.03414 0.57824 0.0
C637 C 0.27179 0.04665 0.55892 0.0
C638 C 0.2356 0.08201 0.51219 0.0
C639 C 0.25643 0.06111 0.45729 0.0
C640 C 0.25784 0.06409 0.48004 0.0
C641 C 0.24796 0.05567 0.54576 0.0
C642 C 0.25375 0.06148 0.52348 0.0
H643 H 0.30251 0.04679 0.41627 0.0
H644 H 0.30526 0.06055 0.45261 0.0
H645 H 0.22244 0.09837 0.48239 0.0
H646 H 0.18822 0.04003 0.57759 0.0
H647 H 0.19888 0.06119 0.54368 0.0
C648 C 0.55605 0.71382 0.92751 0.0
C649 C 0.55549 0.73864 0.91377 0.0
C650 C 0.56384 0.71813 0.94816 0.0
C651 C 0.55461 0.77536 0.98703 0.0
H652 H 0.60209 0.72117 0.02155 0.0
C653 C 0.53785 0.78084 0.07368 0.0
C654 C 0.53551 0.75247 0.08347 0.0
C655 C 0.55144 0.78313 0.05429 0.0
C656 C 0.58855 0.73645 0.01221 0.0
H657 H 0.56618 0.78675 0.91055 0.0
H658 H 0.57837 0.79449 0.94683 0.0
H659 H 0.60502 0.71645 0.98416 0.0
H660 H 0.54662 0.70451 0.08145 0.0
H661 H 0.56891 0.70789 0.04733 0.0
H662 H 0.53601 0.79378 0.01455 0.0
C663 C 0.5725 0.77178 0.94157 0.0
C664 C 0.59047 0.73384 0.99077 0.0
C665 C 0.56523 0.76737 0.92083 0.0
C666 C 0.54873 0.72675 0.07429 0.0
C667 C 0.56154 0.72881 0.05464 0.0
C668 C 0.55219 0.77757 0.00838 0.0
C669 C 0.571 0.74737 0.95554 0.0
C670 C 0.573 0.75287 0.97801 0.0
C671 C 0.56178 0.75681 0.04393 0.0
C672 C 0.56854 0.75766 0.02136 0.0
H673 H 0.54906 0.69127 0.92261 0.0
H674 H 0.56239 0.69891 0.9586 0.0
H675 H 0.54056 0.79006 0.97757 0.0
H676 H 0.52753 0.80092 0.08048 0.0
H677 H 0.55212 0.8053 0.04696 0.0
C678 C 0.68918 0.53052 0.44596 0.0
C679 C 0.7007 0.5425 0.42748 0.0
C680 C 0.70185 0.53854 0.46479 0.0
C681 C 0.77275 0.56682 0.48793 0.0
H682 H 0.72264 0.56347 0.53698 0.0
C683 C 0.78262 0.55816 0.58321 0.0
C684 C 0.80785 0.53847 0.58386 0.0
C685 C 0.77069 0.56777 0.56427 0.0
C686 C 0.7371 0.56519 0.52355 0.0
H687 H 0.73426 0.57308 0.41439 0.0
H688 H 0.75637 0.58766 0.44762 0.0
H689 H 0.69868 0.56562 0.50346 0.0
H690 H 0.84076 0.51406 0.56513 0.0
H691 H 0.8195 0.52954 0.53257 0.0
H692 H 0.81119 0.56701 0.50805 0.0
C693 C 0.73763 0.57164 0.44739 0.0
C694 C 0.7233 0.56593 0.50422 0.0
C695 C 0.72492 0.56341 0.42836 0.0
C696 C 0.82133 0.52929 0.56527 0.0
C697 C 0.80926 0.53852 0.54645 0.0
C698 C 0.78659 0.56665 0.50731 0.0
C699 C 0.72633 0.55909 0.46585 0.0
C700 C 0.74093 0.5652 0.48613 0.0
C701 C 0.78355 0.55761 0.54561 0.0
C702 C 0.76897 0.56433 0.52536 0.0
H703 H 0.67057 0.51432 0.44598 0.0
H704 H 0.69296 0.5277 0.47849 0.0
H705 H 0.78714 0.56641 0.47441 0.0
H706 H 0.77185 0.56582 0.59728 0.0
H707 H 0.75115 0.58283 0.5643 0.0
C708 C 0.92676 0.77654 0.07887 0.0
C709 C 0.93824 0.74877 0.08649 0.0
C710 C 0.91739 0.77899 0.0584 0.0
C711 C 0.8988 0.7362 0.01095 0.0
H712 H 0.94932 0.79687 0.98428 0.0
C713 C 0.94462 0.72158 0.92938 0.0
C714 C 0.95679 0.74681 0.91903 0.0
C715 C 0.92998 0.72544 0.94828 0.0
C716 C 0.93415 0.78039 0.99123 0.0
H717 H 0.9456 0.70097 0.07918 0.0
H718 H 0.92891 0.70524 0.04359 0.0
H719 H 0.94531 0.79647 0.02131 0.0
H720 H 0.96085 0.79594 0.91887 0.0
H721 H 0.9332 0.80317 0.95108 0.0
H722 H 0.888 0.71974 0.98085 0.0
C723 C 0.92753 0.7252 0.05338 0.0
C724 C 0.93202 0.78011 0.01263 0.0
C725 C 0.93728 0.72282 0.07377 0.0
C726 C 0.95142 0.7762 0.92664 0.0
C727 C 0.93603 0.7802 0.94527 0.0
C728 C 0.90045 0.7368 0.98945 0.0
C729 C 0.91869 0.75357 0.04527 0.0
C730 C 0.9153 0.75733 0.02273 0.0
C731 C 0.92691 0.75474 0.95702 0.0
C732 C 0.91922 0.75812 0.9793 0.0
H733 H 0.92619 0.79673 0.08843 0.0
H734 H 0.91027 0.80105 0.05259 0.0
H735 H 0.88549 0.71857 0.01839 0.0
H736 H 0.94898 0.69865 0.92386 0.0
H737 H 0.92361 0.70516 0.95674 0.0
C738 C 0.79693 0.00249 0.43579 0.0
C739 C 0.78654 0.98722 0.41814 0.0
C740 C 0.79001 0.9917 0.45536 0.0
C741 C 0.73464 0.94516 0.48371 0.0
H742 H 0.79104 0.96211 0.52814 0.0
C743 C 0.74005 0.95636 0.57904 0.0
C744 C 0.71209 0.97157 0.58127 0.0
C745 C 0.75026 0.94755 0.55943 0.0
C746 C 0.77514 0.95645 0.51601 0.0
H747 H 0.76071 0.94833 0.40728 0.0
H748 H 0.74861 0.9291 0.44182 0.0
H749 H 0.80812 0.96605 0.49273 0.0
H750 H 0.67206 0.98757 0.56494 0.0
H751 H 0.68985 0.97316 0.53128 0.0
H752 H 0.70168 0.93547 0.50703 0.0
C753 C 0.76207 0.94968 0.44036 0.0
C754 C 0.78483 0.9592 0.49562 0.0
C755 C 0.76897 0.96066 0.42058 0.0
C756 C 0.6939 0.97621 0.56378 0.0
C757 C 0.70398 0.96748 0.54437 0.0
C758 C 0.72506 0.94199 0.50413 0.0
C759 C 0.77263 0.9651 0.45801 0.0
C760 C 0.76426 0.95521 0.47923 0.0
C761 C 0.73257 0.95366 0.54178 0.0
C762 C 0.74473 0.94919 0.52054 0.0
H763 H 0.81033 0.02317 0.4346 0.0
H764 H 0.79779 0.00479 0.46846 0.0
H765 H 0.71819 0.94167 0.47155 0.0
H766 H 0.75449 0.95238 0.59227 0.0
H767 H 0.77229 0.93666 0.55804 0.0
C768 C 0.51187 0.85372 0.14239 0.0
C769 C 0.51156 0.84003 0.16193 0.0
C770 C 0.51294 0.88549 0.1404 0.0
C771 C 0.49607 0.95634 0.16951 0.0
H772 H 0.53765 0.99474 0.12374 0.0
C773 C 0.5043 0.08822 0.15808 0.0
C774 C 0.49904 0.09872 0.13793 0.0
C775 C 0.50681 0.05688 0.16216 0.0
C776 C 0.5258 0.98432 0.13655 0.0
H777 H 0.51359 0.84889 0.19466 0.0
H778 H 0.5161 0.90432 0.19123 0.0
H779 H 0.54209 0.93981 0.12874 0.0
H780 H 0.49067 0.08411 0.10654 0.0
H781 H 0.4955 0.02992 0.1136 0.0
H782 H 0.47992 1.0011 0.17728 0.0
C783 C 0.51471 0.89058 0.17743 0.0
C784 C 0.52828 0.9528 0.1394 0.0
C785 C 0.51342 0.8588 0.17941 0.0
C786 C 0.49552 0.07705 0.12213 0.0
C787 C 0.49826 0.04589 0.12617 0.0
C788 C 0.4938 0.98795 0.16673 0.0
C789 C 0.51397 0.90438 0.1579 0.0
C790 C 0.51308 0.93828 0.15573 0.0
C791 C 0.50432 0.03543 0.14616 0.0
C792 C 0.50824 0.00221 0.15003 0.0
H793 H 0.50994 0.83997 0.12863 0.0
H794 H 0.51185 0.89523 0.12511 0.0
H795 H 0.4837 0.94596 0.1821 0.0
H796 H 0.50734 0.10415 0.17061 0.0
H797 H 0.51155 0.04947 0.17772 0.0
C798 C 0.67356 0.52019 0.66933 0.0
C799 C 0.69243 0.51538 0.65225 0.0
C800 C 0.64236 0.52471 0.66679 0.0
C801 C 0.5813 0.53709 0.62741 0.0
H802 H 0.53205 0.49537 0.66817 0.0
C803 C 0.45845 0.49382 0.61422 0.0
C804 C 0.43748 0.49688 0.63041 0.0
C805 C 0.48869 0.50287 0.61675 0.0
C806 C 0.54541 0.50758 0.65683 0.0
H807 H 0.69406 0.51259 0.61911 0.0
H808 H 0.63916 0.51911 0.61449 0.0
H809 H 0.58671 0.49822 0.67276 0.0
H810 H 0.43136 0.51282 0.66165 0.0
H811 H 0.48445 0.52838 0.6662 0.0
H812 H 0.53961 0.54475 0.61098 0.0
C813 C 0.64841 0.5203 0.62989 0.0
C814 C 0.57686 0.50935 0.65947 0.0
C815 C 0.67983 0.51644 0.63246 0.0
C816 C 0.44701 0.51039 0.64889 0.0
C817 C 0.47738 0.51908 0.65153 0.0
C818 C 0.54977 0.53491 0.62463 0.0
C819 C 0.62914 0.52372 0.64709 0.0
C820 C 0.59535 0.52391 0.64473 0.0
C821 C 0.49865 0.51482 0.63561 0.0
C822 C 0.53157 0.51991 0.63926 0.0
H823 H 0.68298 0.51989 0.68471 0.0
H824 H 0.62854 0.52825 0.68037 0.0
H825 H 0.59463 0.54889 0.61589 0.0
H826 H 0.45157 0.4837 0.59977 0.0
H827 H 0.5046 0.49912 0.60427 0.0
C828 C 0.02721 0.44137 0.1344 0.0
C829 C 0.01513 0.41814 0.14688 0.0
C830 C 0.018 0.47165 0.1369 0.0
C831 C 0.98544 0.52434 0.17509 0.0
H832 H 0.9782 0.57766 0.12774 0.0
C833 C 0.99943 0.6549 0.17945 0.0
C834 C 0.9838 0.67357 0.16539 0.0
C835 C 0.99642 0.62316 0.17876 0.0
C836 C 0.97958 0.56309 0.14116 0.0
H837 H 0.98357 0.40866 0.17172 0.0
H838 H 0.96719 0.46162 0.17595 0.0
H839 H 0.98563 0.52315 0.12267 0.0
H840 H 0.95092 0.67345 0.14053 0.0
H841 H 0.94521 0.61811 0.13956 0.0
H842 H 0.97961 0.5644 0.19358 0.0
C843 C 0.984 0.45633 0.1643 0.0
C844 C 0.98427 0.53183 0.13824 0.0
C845 C 0.99318 0.42593 0.16174 0.0
C846 C 0.96334 0.65983 0.15159 0.0
C847 C 0.96033 0.62804 0.15088 0.0
C848 C 0.98074 0.55565 0.17802 0.0
C849 C 0.99643 0.47958 0.15196 0.0
C850 C 0.98798 0.51217 0.15515 0.0
C851 C 0.97761 0.60926 0.164 0.0
C852 C 0.97842 0.57552 0.16109 0.0
H853 H 0.04385 0.43617 0.12264 0.0
H854 H 0.02835 0.48898 0.1273 0.0
H855 H 0.98832 0.5099 0.18846 0.0
H856 H 0.01499 0.66476 0.1905 0.0
H857 H 0.01019 0.60951 0.18906 0.0
C858 C 0.84178 0.01556 0.66807 0.0
C859 C 0.82253 0.99692 0.65622 0.0
C860 C 0.87324 0.01515 0.6651 0.0
C861 C 0.93298 0.99385 0.62772 0.0
H862 H 0.98546 0.99594 0.67566 0.0
C863 C 0.06194 0.97303 0.62162 0.0
C864 C 0.0814 0.99202 0.63305 0.0
C865 C 0.03055 0.97356 0.62484 0.0
C866 C 0.97114 0.9957 0.66211 0.0
H867 H 0.82139 0.96347 0.63171 0.0
H868 H 0.87651 0.96262 0.6265 0.0
H869 H 0.93034 0.99681 0.68008 0.0
H870 H 0.08304 0.02606 0.65718 0.0
H871 H 0.02796 0.02702 0.66287 0.0
H872 H 0.97377 0.99267 0.60976 0.0
C873 C 0.86713 0.97779 0.63802 0.0
C874 C 0.93953 0.99618 0.66463 0.0
C875 C 0.83553 0.97825 0.64099 0.0
C876 C 0.06871 0.01103 0.64822 0.0
C877 C 0.03716 0.01157 0.65145 0.0
C878 C 0.96458 0.99334 0.62521 0.0
C879 C 0.88638 0.99607 0.65018 0.0
C880 C 0.92004 0.99527 0.64746 0.0
C881 C 0.01769 0.99308 0.6396 0.0
C882 C 0.98406 0.99419 0.64237 0.0
H883 H 0.83255 0.03077 0.6796 0.0
H884 H 0.88726 0.03004 0.67441 0.0
H885 H 0.91869 0.99363 0.61416 0.0
H886 H 0.07095 0.95755 0.61018 0.0
H887 H 0.01634 0.95849 0.61579 0.0
C888 C 0.53098 0.64011 0.85216 0.0
C889 C 0.5153 0.65407 0.83586 0.0
C890 C 0.53283 0.60823 0.85348 0.0
C891 C 0.49136 0.53948 0.83548 0.0
H892 H 0.55824 0.49643 0.86134 0.0
C893 C 0.49061 0.40798 0.84726 0.0
C894 C 0.49912 0.39811 0.86701 0.0
C895 C 0.49521 0.4384 0.84126 0.0
C896 C 0.53933 0.50814 0.85413 0.0
H897 H 0.49144 0.6457 0.80731 0.0
H898 H 0.49539 0.59023 0.8092 0.0
H899 H 0.56279 0.55099 0.85439 0.0
H900 H 0.52032 0.41222 0.89558 0.0
H901 H 0.52809 0.46497 0.88523 0.0
H902 H 0.46784 0.49666 0.83541 0.0
C903 C 0.50537 0.60374 0.82139 0.0
C904 C 0.54191 0.53947 0.85019 0.0
C905 C 0.50328 0.63554 0.82021 0.0
C906 C 0.513 0.41913 0.88039 0.0
C907 C 0.51785 0.44934 0.87435 0.0
C908 C 0.48887 0.50814 0.83931 0.0
C909 C 0.51928 0.58957 0.83839 0.0
C910 C 0.51777 0.5557 0.84108 0.0
C911 C 0.50881 0.45947 0.85478 0.0
C912 C 0.51262 0.49218 0.84899 0.0
H913 H 0.54021 0.65374 0.86456 0.0
H914 H 0.54352 0.59827 0.86689 0.0
H915 H 0.47203 0.55117 0.8288 0.0
H916 H 0.47984 0.39234 0.83664 0.0
H917 H 0.48816 0.44544 0.82602 0.0
C918 C 0.81723 0.53437 0.36739 0.0
C919 C 0.80337 0.52251 0.34961 0.0
C920 C 0.8487 0.53164 0.37032 0.0
C921 C 0.92027 0.51778 0.34161 0.0
H922 H 0.95277 0.49493 0.39485 0.0
C923 C 0.04953 0.50741 0.35548 0.0
C924 C 0.05928 0.48167 0.36662 0.0
C925 C 0.01867 0.51513 0.35463 0.0
C926 C 0.94404 0.50124 0.37986 0.0
H927 H 0.8118 0.49755 0.32135 0.0
H928 H 0.86628 0.49286 0.32642 0.0
H929 H 0.89806 0.50273 0.39082 0.0
H930 H 0.04415 0.44455 0.38618 0.0
H931 H 0.99038 0.45756 0.3843 0.0
H932 H 0.96597 0.51531 0.33045 0.0
C933 C 0.85302 0.5049 0.3379 0.0
C934 C 0.91272 0.50604 0.37762 0.0
C935 C 0.82169 0.50761 0.33498 0.0
C936 C 0.03745 0.46425 0.37722 0.0
C937 C 0.00661 0.47197 0.37637 0.0
C938 C 0.95152 0.51301 0.34385 0.0
C939 C 0.86698 0.517 0.35553 0.0
C940 C 0.90043 0.51394 0.35838 0.0
C941 C 0.9968 0.49732 0.3649 0.0
C942 C 0.96377 0.50432 0.36294 0.0
H943 H 0.80386 0.54619 0.37888 0.0
H944 H 0.85879 0.54141 0.384 0.0
H945 H 0.91161 0.52427 0.32664 0.0
H946 H 0.06561 0.52123 0.347 0.0
H947 H 0.01194 0.53501 0.34584 0.0
C948 C 0.98857 0.07575 0.84352 0.0
C949 C 0.00379 0.08718 0.86081 0.0
C950 C 0.98179 0.04461 0.8421 0.0
C951 C 0.00619 0.97052 0.86485 0.0
H952 H 0.93819 0.9384 0.83363 0.0
C953 C 0.9795 0.84277 0.86293 0.0
C954 C 0.98078 0.83018 0.84308 0.0
C955 C 0.97733 0.87429 0.86561 0.0
C956 C 0.9572 0.94719 0.84241 0.0
H957 H 0.02207 0.07609 0.89071 0.0
H958 H 0.00874 0.02218 0.88898 0.0
H959 H 0.9434 0.99364 0.83816 0.0
H960 H 0.97892 0.84039 0.81054 0.0
H961 H 0.97454 0.89583 0.81526 0.0
H962 H 0.01952 0.92406 0.86944 0.0
C963 C 0.00328 0.03661 0.87597 0.0
C964 C 0.96037 0.97879 0.84491 0.0
C965 C 0.01071 0.06749 0.87711 0.0
C966 C 0.9781 0.84961 0.82597 0.0
C967 C 0.97542 0.88118 0.82867 0.0
C968 C 0.00265 0.93909 0.8627 0.0
C969 C 0.98956 0.02449 0.85819 0.0
C970 C 0.98505 0.9909 0.85609 0.0
C971 C 0.97593 0.89378 0.84851 0.0
C972 C 0.97828 0.92715 0.85138 0.0
H973 H 0.98322 0.09068 0.83075 0.0
H974 H 0.97154 0.03624 0.82806 0.0
H975 H 0.026 0.97876 0.87301 0.0
H976 H 0.98188 0.82843 0.87639 0.0
H977 H 0.97772 0.88355 0.88106 0.0
C978 C 0.42536 0.01587 0.35438 0.0
C979 C 0.41296 0.00148 0.3718 0.0
C980 C 0.4569 0.01565 0.3509 0.0
C981 C 0.53058 0.00424 0.37814 0.0
H982 H 0.56298 0.99433 0.32312 0.0
C983 C 0.65972 0.98636 0.36194 0.0
C984 C 0.67187 1.00118 0.34459 0.0
C985 C 0.6282 0.98631 0.36555 0.0
C986 C 0.55434 0.99744 0.33858 0.0
H987 H 0.42416 0.97437 0.3987 0.0
H988 H 0.47865 0.97392 0.39265 0.0
H989 H 0.50806 0.99461 0.32841 0.0
H990 H 0.66021 0.02883 0.31802 0.0
H991 H 0.6058 0.02871 0.32427 0.0
H992 H 0.57689 0.00705 0.38829 0.0
C993 C 0.46422 0.98609 0.38192 0.0
C994 C 0.52278 0.99764 0.3416 0.0
C995 C 0.43284 0.98635 0.38539 0.0
C996 C 0.65176 0.01648 0.33124 0.0
C997 C 0.62041 0.01643 0.33483 0.0
C998 C 0.56215 0.00402 0.37511 0.0
C999 C 0.47678 1.00094 0.36474 0.0
C1000 C 0.51044 1.00105 0.36143 0.0
C1001 C 0.60811 1.00112 0.3519 0.0
C1002 C 0.57447 1.0007 0.35528 0.0
H1003 H 0.41078 0.02791 0.34369 0.0
H1004 H 0.46575 0.02756 0.3376 0.0
H1005 H 0.52195 0.00739 0.39359 0.0
H1006 H 0.67447 0.97422 0.37246 0.0
H1007 H 0.61953 0.97411 0.37879 0.0
C1008 C 0.52024 0.13688 0.8299 0.0
C1009 C 0.50379 0.15528 0.84371 0.0
C1010 C 0.51704 0.10513 0.83013 0.0
C1011 C 0.4986 0.04437 0.86662 0.0
H1012 H 0.50292 0.99137 0.81894 0.0
C1013 C 0.49576 0.9143 0.87612 0.0
C1014 C 0.51542 0.89663 0.86391 0.0
C1015 C 0.49113 0.94518 0.87191 0.0
C1016 C 0.502 0.00585 0.83242 0.0
H1017 H 0.46963 0.15489 0.86771 0.0
H1018 H 0.46376 0.09935 0.86803 0.0
H1019 H 0.49879 0.04664 0.81425 0.0
H1020 H 0.54483 0.8972 0.83726 0.0
H1021 H 0.53742 0.95174 0.83005 0.0
H1022 H 0.50276 0.00407 0.88485 0.0
C1023 C 0.47945 0.10953 0.85717 0.0
C1024 C 0.49948 0.03752 0.82973 0.0
C1025 C 0.48252 0.14136 0.85683 0.0
C1026 C 0.5296 0.91035 0.8469 0.0
C1027 C 0.52522 0.94153 0.84278 0.0
C1028 C 0.5013 0.01285 0.86931 0.0
C1029 C 0.4974 0.09098 0.84426 0.0
C1030 C 0.49782 0.05717 0.84682 0.0
C1031 C 0.50629 0.95946 0.85548 0.0
C1032 C 0.50307 0.99309 0.85228 0.0
H1033 H 0.53658 0.14702 0.81947 0.0
H1034 H 0.53128 0.09162 0.82002 0.0
H1035 H 0.49813 0.05882 0.88013 0.0
H1036 H 0.48384 0.90419 0.88899 0.0
H1037 H 0.47568 0.95789 0.88166 0.0
C1038 C 0.32679 0.5235 0.35624 0.0
C1039 C 0.30621 0.49987 0.36083 0.0
C1040 C 0.35798 0.51935 0.35874 0.0
C1041 C 0.41617 0.47775 0.38643 0.0
H1042 H 0.46721 0.50406 0.34106 0.0
C1043 C 0.54079 0.51654 0.3951 0.0
C1044 C 0.56148 0.51033 0.37916 0.0
C1045 C 0.51034 0.50774 0.39345 0.0
C1046 C 0.45338 0.4961 0.35377 0.0
H1047 H 0.30258 0.45361 0.37252 0.0
H1048 H 0.35751 0.44669 0.37743 0.0
H1049 H 0.41214 0.5034 0.337 0.0
H1050 H 0.56676 0.48871 0.34939 0.0
H1051 H 0.51353 0.47326 0.3465 0.0
H1052 H 0.45754 0.47148 0.40344 0.0
C1053 C 0.34911 0.46828 0.37161 0.0
C1054 C 0.42182 0.496 0.35149 0.0
C1055 C 0.31769 0.47231 0.36887 0.0
C1056 C 0.55142 0.49374 0.36196 0.0
C1057 C 0.52089 0.4851 0.36025 0.0
C1058 C 0.44785 0.47812 0.38879 0.0
C1059 C 0.36952 0.49161 0.36616 0.0
C1060 C 0.40289 0.48757 0.36794 0.0
C1061 C 0.49987 0.49266 0.37575 0.0
C1062 C 0.46674 0.48794 0.3726 0.0
H1063 H 0.3189 0.54536 0.35064 0.0
H1064 H 0.37316 0.53799 0.35491 0.0
H1065 H 0.40204 0.47119 0.39935 0.0
H1066 H 0.548 0.52889 0.40866 0.0
H1067 H 0.49471 0.51412 0.4056 0.0
C1068 C 0.99814 0.35638 0.83648 0.0
C1069 C 0.00516 0.33498 0.85188 0.0
C1070 C 0.00272 0.38748 0.83974 0.0
C1071 C 0.00847 0.4436 0.88159 0.0
H1072 H 0.03132 0.49817 0.8372 0.0
C1073 C 0.02185 0.5734 0.8934 0.0
C1074 C 0.00805 0.59235 0.8786 0.0
C1075 C 0.02457 0.54204 0.8901 0.0
C1076 C 0.02475 0.48321 0.8497 0.0
H1077 H 0.02368 0.32945 0.88252 0.0
H1078 H 0.0323 0.38399 0.88814 0.0
H1079 H 0.03249 0.44308 0.83171 0.0
H1080 H 0.98654 0.5929 0.84859 0.0
H1081 H 0.99156 0.53809 0.84277 0.0
H1082 H 0.0006 0.48378 0.89954 0.0
C1083 C 0.02272 0.37661 0.87364 0.0
C1084 C 0.02542 0.45166 0.84658 0.0
C1085 C 0.0181 0.34535 0.87035 0.0
C1086 C 0.99755 0.57912 0.86023 0.0
C1087 C 0.00043 0.5477 0.85688 0.0
C1088 C 0.00798 0.47514 0.88475 0.0
C1089 C 0.01461 0.39808 0.85847 0.0
C1090 C 0.01684 0.43146 0.86239 0.0
C1091 C 0.01375 0.52881 0.87187 0.0
C1092 C 0.01571 0.4953 0.86875 0.0
H1093 H 0.98867 0.34914 0.82193 0.0
H1094 H 0.99591 0.40328 0.82778 0.0
H1095 H 0.00124 0.42878 0.894 0.0
H1096 H 0.03085 0.58276 0.90753 0.0
H1097 H 0.03538 0.52815 0.9018 0.0
C1098 C 0.94001 0.02266 0.37275 0.0
C1099 C 0.91833 0.01992 0.357 0.0
C1100 C 0.97044 0.02894 0.36812 0.0
C1101 C 0.02656 0.01344 0.32931 0.0
H1102 H 0.07625 0.0732 0.35761 0.0
C1103 C 0.15622 0.01356 0.31753 0.0
C1104 C 0.17424 0.01919 0.33492 0.0
C1105 C 0.12505 0.02016 0.31771 0.0
C1106 C 0.06288 0.05613 0.3497 0.0
H1107 H 0.91119 0.02202 0.32414 0.0
H1108 H 0.96488 0.03217 0.31588 0.0
H1109 H 0.02128 0.07255 0.3631 0.0
H1110 H 0.17406 0.03711 0.36589 0.0
H1111 H 0.1197 0.04738 0.36673 0.0
H1112 H 0.06778 0.99541 0.317 0.0
C1113 C 0.95811 0.02997 0.33183 0.0
C1114 C 0.03131 0.05598 0.35274 0.0
C1115 C 0.92747 0.02438 0.33653 0.0
C1116 C 0.16077 0.03288 0.35219 0.0
C1117 C 0.12946 0.03882 0.35259 0.0
C1118 C 0.05813 0.01313 0.32659 0.0
C1119 C 0.97995 0.03192 0.34759 0.0
C1120 C 0.01289 0.03441 0.34275 0.0
C1121 C 0.11091 0.03179 0.33554 0.0
C1122 C 0.07692 0.0342 0.33695 0.0
H1123 H 0.93343 0.01925 0.38863 0.0
H1124 H 0.98681 0.03005 0.38055 0.0
H1125 H 0.01294 0.99627 0.32163 0.0
H1126 H 0.16617 0.00321 0.30399 0.0
H1127 H 0.11196 0.01529 0.30401 0.0
C1128 C 0.47963 0.35351 0.14197 0.0
C1129 C 0.47853 0.34213 0.16215 0.0
C1130 C 0.47909 0.38499 0.13831 0.0
C1131 C 0.49538 0.45832 0.16466 0.0
H1132 H 0.45811 0.49343 0.11608 0.0
C1133 C 0.48848 0.58882 0.15011 0.0
C1134 C 0.49551 0.59887 0.13009 0.0
C1135 C 0.48539 0.55767 0.15442 0.0
C1136 C 0.4688 0.48391 0.12965 0.0
H1137 H 0.4743 0.35463 0.19421 0.0
H1138 H 0.47249 0.40951 0.1879 0.0
H1139 H 0.45267 0.43894 0.12288 0.0
H1140 H 0.50575 0.58346 0.09911 0.0
H1141 H 0.49989 0.52941 0.10659 0.0
H1142 H 0.51131 0.50342 0.17144 0.0
C1143 C 0.47471 0.39426 0.17488 0.0
C1144 C 0.46573 0.45265 0.13354 0.0
C1145 C 0.47553 0.36282 0.17852 0.0
C1146 C 0.49972 0.57681 0.1146 0.0
C1147 C 0.49639 0.54573 0.11888 0.0
C1148 C 0.49823 0.48961 0.16084 0.0
C1149 C 0.47719 0.40582 0.15476 0.0
C1150 C 0.47917 0.43937 0.15103 0.0
C1151 C 0.48903 0.5358 0.1388 0.0
C1152 C 0.48519 0.50271 0.1432 0.0
H1153 H 0.48241 0.33818 0.12905 0.0
H1154 H 0.48143 0.39297 0.12263 0.0
H1155 H 0.50656 0.4489 0.17807 0.0
H1156 H 0.48467 0.60495 0.16243 0.0
H1157 H 0.47947 0.55073 0.1699 0.0
C1158 C 0.18211 0.46022 0.63877 0.0
C1159 C 0.19528 0.4738 0.65623 0.0
C1160 C 0.15054 0.46129 0.63573 0.0
C1161 C 0.07818 0.47442 0.66396 0.0
H1162 H 0.04519 0.49267 0.61008 0.0
C1163 C 0.94872 0.48519 0.65092 0.0
C1164 C 0.93929 0.51024 0.63898 0.0
C1165 C 0.9794 0.47664 0.65157 0.0
C1166 C 0.05404 0.48761 0.62524 0.0
H1167 H 0.18554 0.50015 0.68371 0.0
H1168 H 0.13099 0.50206 0.67841 0.0
H1169 H 0.10001 0.4862 0.61427 0.0
H1170 H 0.95473 0.54495 0.61759 0.0
H1171 H 0.00808 0.53067 0.61917 0.0
H1172 H 0.03252 0.4771 0.67514 0.0
C1173 C 0.14481 0.48986 0.66733 0.0
C1174 C 0.08545 0.48356 0.62759 0.0
C1175 C 0.17621 0.48877 0.67037 0.0
C1176 C 0.96118 0.52589 0.62723 0.0
C1177 C 0.9918 0.51739 0.6279 0.0
C1178 C 0.04684 0.47852 0.66162 0.0
C1179 C 0.13151 0.47598 0.65006 0.0
C1180 C 0.09795 0.47751 0.64707 0.0
C1181 C 0.0014 0.49292 0.64029 0.0
C1182 C 0.0344 0.48568 0.6423 0.0
H1183 H 0.19612 0.44833 0.62767 0.0
H1184 H 0.141 0.45021 0.62231 0.0
H1185 H 0.08698 0.46928 0.67912 0.0
H1186 H 0.93258 0.47268 0.66024 0.0
H1187 H 0.98593 0.45743 0.66109 0.0
C1188 C 0.98676 0.92355 0.14504 0.0
C1189 C 0.97311 0.91251 0.12694 0.0
C1190 C 0.99164 0.95489 0.14778 0.0
C1191 C 0.00137 0.0263 0.11853 0.0
H1192 H 0.98356 0.06554 0.17054 0.0
C1193 C 0.00423 0.15815 0.12987 0.0
C1194 C 0.01244 0.16911 0.14936 0.0
C1195 C 0.00151 0.12664 0.12643 0.0
C1196 C 0.98921 0.05493 0.15599 0.0
H1197 H 0.95255 0.92625 0.09803 0.0
H1198 H 0.96146 0.98062 0.10272 0.0
H1199 H 0.97388 0.01121 0.16648 0.0
H1200 H 0.02642 0.15614 0.18 0.0
H1201 H 0.02306 0.1014 0.1739 0.0
H1202 H 0.01703 0.06994 0.10808 0.0
C1203 C 0.96883 0.96497 0.11462 0.0
C1204 C 0.9835 0.02374 0.15367 0.0
C1205 C 0.96372 0.93374 0.11196 0.0
C1206 C 0.01973 0.14814 0.16491 0.0
C1207 C 0.01746 0.11681 0.16144 0.0
C1208 C 0.00735 0.05751 0.1209 0.0
C1209 C 0.98316 0.97589 0.13244 0.0
C1210 C 0.98944 0.00906 0.13492 0.0
C1211 C 0.00731 0.10559 0.14238 0.0
C1212 C 0.00138 0.07226 0.13968 0.0
H1213 H 0.99461 0.90802 0.15683 0.0
H1214 H 0.0029 0.96259 0.16165 0.0
H1215 H 0.00653 0.01554 0.10394 0.0
H1216 H 0.99822 0.17396 0.11773 0.0
H1217 H 0.9935 0.11891 0.11157 0.0
C1218 C 0.3329 0.02303 0.63905 0.0
C1219 C 0.32181 0.02228 0.65933 0.0
C1220 C 0.36404 0.02602 0.63524 0.0
C1221 C 0.43796 0.04795 0.65769 0.0
H1222 H 0.4699 0.98548 0.62141 0.0
C1223 C 0.56645 0.01781 0.65276 0.0
C1224 C 0.5777 0.00648 0.63406 0.0
C1225 C 0.53541 0.02437 0.65498 0.0
C1226 C 0.46148 0.00356 0.63123 0.0
H1227 H 0.33446 0.02588 0.69141 0.0
H1228 H 0.38902 0.03123 0.68474 0.0
H1229 H 0.4154 0.98955 0.62662 0.0
H1230 H 0.56618 0.99514 0.60268 0.0
H1231 H 0.51241 0.00781 0.60612 0.0
H1232 H 0.48415 0.06203 0.66226 0.0
C1233 C 0.37357 0.02942 0.67183 0.0
C1234 C 0.43014 0.00579 0.63427 0.0
C1235 C 0.34241 0.02613 0.67565 0.0
C1236 C 0.55785 0.00347 0.61732 0.0
C1237 C 0.52703 0.01051 0.61939 0.0
C1238 C 0.46943 0.04598 0.65445 0.0
C1239 C 0.38477 0.02859 0.6516 0.0
C1240 C 0.41803 0.02783 0.64762 0.0
C1241 C 0.51516 0.0201 0.63844 0.0
C1242 C 0.48163 0.02359 0.64127 0.0
H1243 H 0.31771 0.01983 0.62613 0.0
H1244 H 0.37203 0.02556 0.61947 0.0
H1245 H 0.4292 0.06527 0.668 0.0
H1246 H 0.58136 0.02004 0.66592 0.0
H1247 H 0.52716 0.03142 0.66993 0.0
C1248 C 0.86476 0.28272 0.1498 0.0
C1249 C 0.88234 0.29265 0.13305 0.0
C1250 C 0.83351 0.27836 0.14762 0.0
C1251 C 0.7736 0.25093 0.13371 0.0
H1252 H 0.72139 0.3126 0.10941 0.0
C1253 C 0.6465 0.22924 0.11967 0.0
C1254 C 0.62691 0.25178 0.12753 0.0
C1255 C 0.67764 0.23481 0.11786 0.0
C1256 C 0.73576 0.29519 0.11618 0.0
H1257 H 0.88108 0.30645 0.10105 0.0
H1258 H 0.82607 0.29903 0.0973 0.0
H1259 H 0.77634 0.32154 0.11166 0.0
H1260 H 0.62464 0.2982 0.13913 0.0
H1261 H 0.67899 0.30801 0.13567 0.0
H1262 H 0.73319 0.22474 0.13852 0.0
C1263 C 0.83661 0.29461 0.11206 0.0
C1264 C 0.76713 0.30022 0.11735 0.0
C1265 C 0.868 0.29868 0.11417 0.0
C1266 C 0.639 0.28046 0.13277 0.0
C1267 C 0.67014 0.2861 0.13082 0.0
C1268 C 0.74237 0.24578 0.13235 0.0
C1269 C 0.81919 0.28404 0.12871 0.0
C1270 C 0.78623 0.27829 0.1264 0.0
C1271 C 0.68981 0.26312 0.12373 0.0
C1272 C 0.72311 0.26798 0.12378 0.0
H1273 H 0.87528 0.27756 0.16445 0.0
H1274 H 0.82052 0.27047 0.16075 0.0
H1275 H 0.7879 0.23354 0.14057 0.0
H1276 H 0.63782 0.20712 0.11511 0.0
H1277 H 0.69229 0.21685 0.11208 0.0
C1278 C 0.28387 0.62661 0.65091 0.0
C1279 C 0.29229 0.61043 0.63315 0.0
C1280 C 0.27679 0.65764 0.64976 0.0
C1281 C 0.24406 0.7171 0.63892 0.0
H1282 H 0.29931 0.77314 0.61171 0.0
C1283 C 0.21423 0.84357 0.6242 0.0
C1284 C 0.23628 0.86475 0.63071 0.0
C1285 C 0.22105 0.81245 0.62331 0.0
C1286 C 0.28371 0.7577 0.61933 0.0
H1287 H 0.30033 0.61391 0.60036 0.0
H1288 H 0.28837 0.66848 0.5984 0.0
H1289 H 0.31128 0.71853 0.61268 0.0
H1290 H 0.28295 0.86955 0.64125 0.0
H1291 H 0.29496 0.81535 0.63908 0.0
H1292 H 0.21649 0.75619 0.64559 0.0
C1293 C 0.28714 0.65705 0.61315 0.0
C1294 C 0.29044 0.72652 0.61977 0.0
C1295 C 0.29379 0.62589 0.61425 0.0
C1296 C 0.26554 0.85406 0.63581 0.0
C1297 C 0.27243 0.82298 0.63466 0.0
C1298 C 0.23711 0.74818 0.63822 0.0
C1299 C 0.27839 0.67314 0.63088 0.0
C1300 C 0.27081 0.706 0.62975 0.0
C1301 C 0.25015 0.80187 0.62864 0.0
C1302 C 0.25699 0.76879 0.62857 0.0
H1303 H 0.28227 0.61516 0.66563 0.0
H1304 H 0.27031 0.66959 0.66367 0.0
H1305 H 0.22846 0.70169 0.64657 0.0
H1306 H 0.19166 0.85099 0.61977 0.0
H1307 H 0.20357 0.79663 0.61839 0.0
C1308 C 0.86564 0.21751 0.90896 0.0
C1309 C 0.87474 0.21794 0.88823 0.0
C1310 C 0.83567 0.22465 0.91441 0.0
C1311 C 0.76596 0.22425 0.91897 0.0
H1312 H 0.72836 0.29228 0.89046 0.0
C1313 C 0.63676 0.23984 0.90987 0.0
C1314 C 0.62476 0.26952 0.90845 0.0
C1315 C 0.66796 0.2353 0.91246 0.0
C1316 C 0.73861 0.27357 0.89887 0.0
H1317 H 0.85955 0.22613 0.85697 0.0
H1318 H 0.80731 0.23806 0.86642 0.0
H1319 H 0.78172 0.28064 0.8844 0.0
H1320 H 0.63566 0.31767 0.91046 0.0
H1321 H 0.69027 0.30974 0.91504 0.0
H1322 H 0.72255 0.21694 0.9332 0.0
C1323 C 0.82336 0.23245 0.87849 0.0
C1324 C 0.76908 0.26664 0.89516 0.0
C1325 C 0.85318 0.22517 0.87305 0.0
C1326 C 0.64434 0.29455 0.91115 0.0
C1327 C 0.67557 0.29 0.91376 0.0
C1328 C 0.73534 0.23113 0.92264 0.0
C1329 C 0.81437 0.23264 0.89923 0.0
C1330 C 0.78288 0.2415 0.90479 0.0
C1331 C 0.68783 0.26035 0.91369 0.0
C1332 C 0.72119 0.2555 0.9123 0.0
H1333 H 0.88177 0.21188 0.92097 0.0
H1334 H 0.82936 0.22467 0.93051 0.0
H1335 H 0.77603 0.20473 0.92661 0.0
H1336 H 0.62238 0.22006 0.90759 0.0
H1337 H 0.67668 0.21218 0.91212 0.0
C1338 C 0.26806 0.84936 0.36768 0.0
C1339 C 0.26787 0.86876 0.38489 0.0
C1340 C 0.25954 0.81886 0.36952 0.0
C1341 C 0.21495 0.76606 0.40146 0.0
H1342 H 0.25888 0.70501 0.37005 0.0
C1343 C 0.18785 0.63551 0.40283 0.0
C1344 C 0.1877 0.6212 0.38347 0.0
C1345 C 0.19747 0.66584 0.40481 0.0
C1346 C 0.24628 0.72183 0.37882 0.0
H1347 H 0.25864 0.87116 0.41761 0.0
H1348 H 0.24366 0.81753 0.42084 0.0
H1349 H 0.27728 0.75738 0.3707 0.0
H1350 H 0.19739 0.62762 0.35102 0.0
H1351 H 0.21359 0.68036 0.35443 0.0
H1352 H 0.1838 0.73022 0.40941 0.0
C1353 C 0.25028 0.82618 0.40589 0.0
C1354 C 0.25682 0.75182 0.3792 0.0
C1355 C 0.25888 0.85684 0.40404 0.0
C1356 C 0.19674 0.63804 0.36611 0.0
C1357 C 0.20647 0.66816 0.3681 0.0
C1358 C 0.20443 0.73589 0.40114 0.0
C1359 C 0.25054 0.80687 0.38862 0.0
C1360 C 0.24092 0.77445 0.39013 0.0
C1361 C 0.20742 0.68224 0.38749 0.0
C1362 C 0.21964 0.71366 0.38942 0.0
H1363 H 0.27405 0.85793 0.35259 0.0
H1364 H 0.25932 0.80482 0.35581 0.0
H1365 H 0.20209 0.78301 0.40992 0.0
H1366 H 0.18094 0.62311 0.41647 0.0
H1367 H 0.19802 0.67615 0.41994 0.0
C1368 C 0.14425 0.77043 0.88104 0.0
C1369 C 0.12918 0.74671 0.89131 0.0
C1370 C 0.17496 0.77613 0.88486 0.0
C1371 C 0.2439 0.73777 0.905 0.0
H1372 H 0.27857 0.8183 0.89701 0.0
C1373 C 0.37369 0.76508 0.90819 0.0
C1374 C 0.38399 0.77619 0.88907 0.0
C1375 C 0.34252 0.76338 0.91248 0.0
C1376 C 0.26908 0.79578 0.89951 0.0
H1377 H 0.13369 0.71121 0.91427 0.0
H1378 H 0.18715 0.72185 0.92162 0.0
H1379 H 0.22338 0.81226 0.89808 0.0
H1380 H 0.369 0.79378 0.85944 0.0
H1381 H 0.31516 0.79226 0.86746 0.0
H1382 H 0.28991 0.72154 0.90641 0.0
C1383 C 0.17562 0.73549 0.91012 0.0
C1384 C 0.23753 0.7922 0.89992 0.0
C1385 C 0.145 0.72946 0.90603 0.0
C1386 C 0.36228 0.786 0.87457 0.0
C1387 C 0.33132 0.78496 0.87905 0.0
C1388 C 0.27547 0.74148 0.90498 0.0
C1389 C 0.19117 0.75854 0.8993 0.0
C1390 C 0.22452 0.763 0.90197 0.0
C1391 C 0.32119 0.77341 0.89793 0.0
C1392 C 0.28824 0.77036 0.90162 0.0
H1393 H 0.13259 0.78379 0.86944 0.0
H1394 H 0.18619 0.79362 0.87587 0.0
H1395 H 0.23485 0.71488 0.90634 0.0
H1396 H 0.38963 0.75769 0.91985 0.0
H1397 H 0.33506 0.75434 0.92714 0.0
C1398 C 0.76737 0.15347 0.38185 0.0
C1399 C 0.77044 0.13884 0.36272 0.0
C1400 C 0.75923 0.18425 0.3829 0.0
C1401 C 0.72187 0.24486 0.35266 0.0
H1402 H 0.76027 0.29909 0.39196 0.0
C1403 C 0.7065 0.37546 0.35021 0.0
C1404 C 0.70269 0.39076 0.36904 0.0
C1405 C 0.71398 0.34449 0.3498 0.0
C1406 C 0.74908 0.28413 0.38107 0.0
H1407 H 0.76738 0.14514 0.32969 0.0
H1408 H 0.75394 0.199 0.33152 0.0
H1409 H 0.77568 0.24562 0.39045 0.0
H1410 H 0.70314 0.38537 0.40219 0.0
H1411 H 0.71629 0.33122 0.40145 0.0
H1412 H 0.69544 0.28341 0.34319 0.0
C1413 C 0.75746 0.18656 0.34572 0.0
C1414 C 0.75792 0.25352 0.3802 0.0
C1415 C 0.76558 0.15579 0.34467 0.0
C1416 C 0.70628 0.37431 0.38744 0.0
C1417 C 0.71383 0.34333 0.38703 0.0
C1418 C 0.71309 0.27546 0.35351 0.0
C1419 C 0.75397 0.20109 0.36484 0.0
C1420 C 0.74449 0.23357 0.36592 0.0
C1421 C 0.71789 0.32814 0.36819 0.0
C1422 C 0.72667 0.29545 0.36767 0.0
H1423 H 0.77121 0.14109 0.39603 0.0
H1424 H 0.75649 0.19471 0.39788 0.0
H1425 H 0.71068 0.22995 0.34174 0.0
H1426 H 0.70451 0.38756 0.33575 0.0
H1427 H 0.71742 0.33353 0.33505 0.0
C1428 C 0.35157 0.77162 0.12536 0.0
C1429 C 0.36695 0.74661 0.11678 0.0
C1430 C 0.32112 0.77708 0.12058 0.0
C1431 C 0.25222 0.73866 0.10054 0.0
H1432 H 0.22132 0.82162 0.10044 0.0
C1433 C 0.12439 0.77134 0.08972 0.0
C1434 C 0.11322 0.78682 0.10717 0.0
C1435 C 0.15573 0.76722 0.08691 0.0
C1436 C 0.22975 0.79837 0.10022 0.0
H1437 H 0.3629 0.70803 0.09616 0.0
H1438 H 0.30976 0.71796 0.0873 0.0
H1439 H 0.27603 0.81277 0.1025 0.0
H1440 H 0.12691 0.80972 0.13541 0.0
H1441 H 0.18105 0.80394 0.12979 0.0
H1442 H 0.20559 0.72453 0.09828 0.0
C1443 C 0.32098 0.733 0.09811 0.0
C1444 C 0.26101 0.79323 0.1016 0.0
C1445 C 0.35141 0.72732 0.10312 0.0
C1446 C 0.13431 0.79858 0.12142 0.0
C1447 C 0.16547 0.79507 0.11835 0.0
C1448 C 0.22093 0.74387 0.0988 0.0
C1449 C 0.3054 0.75788 0.10687 0.0
C1450 C 0.27259 0.7633 0.1025 0.0
C1451 C 0.17643 0.77911 0.10122 0.0
C1452 C 0.20945 0.77374 0.09925 0.0
H1453 H 0.36292 0.78659 0.13617 0.0
H1454 H 0.30975 0.79598 0.12807 0.0
H1455 H 0.2602 0.71531 0.10137 0.0
H1456 H 0.10899 0.76227 0.07827 0.0
H1457 H 0.16381 0.75481 0.07357 0.0
C1458 C 0.72874 0.14271 0.61224 0.0
C1459 C 0.72374 0.12872 0.63141 0.0
C1460 C 0.73879 0.17294 0.61111 0.0
C1461 C 0.7788 0.23092 0.64202 0.0
H1462 H 0.74646 0.28823 0.60215 0.0
C1463 C 0.79865 0.35999 0.64819 0.0
C1464 C 0.80477 0.37654 0.63012 0.0
C1465 C 0.79036 0.32932 0.64724 0.0
C1466 C 0.75601 0.27235 0.61317 0.0
H1467 H 0.72514 0.13572 0.66444 0.0
H1468 H 0.74184 0.18854 0.66245 0.0
H1469 H 0.7277 0.23573 0.60269 0.0
H1470 H 0.80724 0.37362 0.59687 0.0
H1471 H 0.79253 0.3198 0.59523 0.0
H1472 H 0.80683 0.26753 0.65267 0.0
C1473 C 0.7384 0.17603 0.64827 0.0
C1474 C 0.74524 0.24231 0.6135 0.0
C1475 C 0.72837 0.14586 0.64941 0.0
C1476 C 0.8025 0.36157 0.61106 0.0
C1477 C 0.79405 0.3308 0.61011 0.0
C1478 C 0.78951 0.26088 0.6417 0.0
C1479 C 0.74413 0.18979 0.62913 0.0
C1480 C 0.75625 0.22139 0.62812 0.0
C1481 C 0.78782 0.3144 0.62821 0.0
C1482 C 0.77797 0.28204 0.62746 0.0
H1483 H 0.72514 0.13018 0.59809 0.0
H1484 H 0.74312 0.18284 0.59613 0.0
H1485 H 0.78826 0.21518 0.65316 0.0
H1486 H 0.79934 0.37093 0.66311 0.0
H1487 H 0.78513 0.31749 0.66144 0.0
C1488 C 0.29779 0.05473 0.29175 0.0
C1489 C 0.30732 0.05861 0.31217 0.0
C1490 C 0.30626 0.07556 0.27658 0.0
C1491 C 0.34328 0.15111 0.26739 0.0
H1492 H 0.3694 0.11183 0.21691 0.0
C1493 C 0.43476 0.19927 0.21347 0.0
C1494 C 0.43221 0.19489 0.19215 0.0
C1495 C 0.4129 0.1876 0.22686 0.0
C1496 C 0.36162 0.12333 0.23069 0.0
H1497 H 0.33199 0.08797 0.33306 0.0
H1498 H 0.34793 0.12407 0.30638 0.0
H1499 H 0.34393 0.08201 0.24321 0.0
H1500 H 0.40409 0.17609 0.16795 0.0
H1501 H 0.36573 0.155 0.19154 0.0
H1502 H 0.36264 0.19215 0.25506 0.0
C1503 C 0.33328 0.10527 0.3021 0.0
C1504 C 0.34696 0.10621 0.24586 0.0
C1505 C 0.32426 0.08459 0.31741 0.0
C1506 C 0.40653 0.17982 0.18433 0.0
C1507 C 0.38474 0.16766 0.19782 0.0
C1508 C 0.35819 0.1682 0.25224 0.0
C1509 C 0.32507 0.10049 0.28137 0.0
C1510 C 0.33805 0.11972 0.26458 0.0
C1511 C 0.3881 0.1709 0.21926 0.0
C1512 C 0.36804 0.15433 0.23389 0.0
H1513 H 0.28428 0.03509 0.28737 0.0
H1514 H 0.29872 0.07158 0.26096 0.0
H1515 H 0.3363 0.16241 0.28143 0.0
H1516 H 0.45425 0.21101 0.21992 0.0
H1517 H 0.41637 0.19023 0.24325 0.0
C1518 C 0.42678 0.29942 0.81429 0.0
C1519 C 0.45153 0.27937 0.81237 0.0
C1520 C 0.40915 0.30682 0.79702 0.0
C1521 C 0.41954 0.31048 0.74084 0.0
H1522 H 0.33686 0.34137 0.7417 0.0
C1523 C 0.33082 0.38226 0.68511 0.0
C1524 C 0.35053 0.40659 0.68061 0.0
C1525 C 0.33995 0.35927 0.69887 0.0
C1526 C 0.35976 0.33224 0.74108 0.0
H1527 H 0.47548 0.24897 0.79171 0.0
H1528 H 0.44397 0.26057 0.76194 0.0
H1529 H 0.35655 0.31331 0.77143 0.0
H1530 H 0.39543 0.42535 0.68586 0.0
H1531 H 0.41153 0.38529 0.70924 0.0
H1532 H 0.42304 0.32996 0.71079 0.0
C1533 C 0.4388 0.27169 0.7764 0.0
C1534 C 0.37119 0.31652 0.75821 0.0
C1535 C 0.45674 0.26485 0.79347 0.0
C1536 C 0.37986 0.40677 0.68908 0.0
C1537 C 0.38911 0.38373 0.70241 0.0
C1538 C 0.40813 0.32604 0.7238 0.0
C1539 C 0.41573 0.2939 0.77766 0.0
C1540 C 0.40156 0.30625 0.75854 0.0
C1541 C 0.3691 0.36008 0.70785 0.0
C1542 C 0.37852 0.33805 0.724 0.0
H1543 H 0.42246 0.31102 0.82871 0.0
H1544 H 0.39173 0.32415 0.79861 0.0
H1545 H 0.44313 0.30335 0.74048 0.0
H1546 H 0.30795 0.38191 0.67891 0.0
H1547 H 0.32411 0.34126 0.7028 0.0
C1548 C 0.17986 0.3989 0.31751 0.0
C1549 C 0.19495 0.42647 0.31353 0.0
C1550 C 0.17714 0.37687 0.302 0.0
C1551 C 0.17475 0.3755 0.24547 0.0
H1552 H 0.15937 0.28932 0.25388 0.0
C1553 C 0.11394 0.30753 0.18316 0.0
C1554 C 0.08756 0.29384 0.19109 0.0
C1555 C 0.13744 0.31637 0.19647 0.0
C1556 C 0.16389 0.3133 0.25123 0.0
H1557 H 0.22175 0.45147 0.29123 0.0
H1558 H 0.21829 0.41264 0.26457 0.0
H1559 H 0.18232 0.3194 0.28147 0.0
H1560 H 0.06627 0.27572 0.21855 0.0
H1561 H 0.10692 0.29092 0.2416 0.0
H1562 H 0.15512 0.36989 0.21571 0.0
C1563 C 0.20743 0.40835 0.27924 0.0
C1564 C 0.17689 0.33057 0.26707 0.0
C1565 C 0.20961 0.43052 0.29455 0.0
C1566 C 0.08631 0.28648 0.21209 0.0
C1567 C 0.10978 0.29499 0.22529 0.0
C1568 C 0.16192 0.35826 0.22967 0.0
C1569 C 0.18988 0.38193 0.28238 0.0
C1570 C 0.18147 0.36214 0.26463 0.0
C1571 C 0.13495 0.31133 0.21781 0.0
C1572 C 0.15525 0.32723 0.23262 0.0
H1573 H 0.16826 0.39536 0.33202 0.0
H1574 H 0.16329 0.35693 0.30499 0.0
H1575 H 0.17742 0.3998 0.24303 0.0
H1576 H 0.11542 0.31348 0.16702 0.0
H1577 H 0.15673 0.32864 0.19022 0.0
C1578 C 0.05636 0.21019 0.78532 0.0
C1579 C 0.06232 0.20707 0.80645 0.0
C1580 C 0.07703 0.19938 0.77074 0.0
C1581 C 0.13269 0.13837 0.76616 0.0
H1582 H 0.14528 0.17143 0.71147 0.0
C1583 C 0.19383 0.06682 0.70587 0.0
C1584 C 0.18043 0.06569 0.68633 0.0
C1585 C 0.18576 0.08955 0.71983 0.0
C1586 C 0.14188 0.16185 0.72665 0.0
H1587 H 0.09561 0.19223 0.8289 0.0
H1588 H 0.13196 0.17333 0.80334 0.0
H1589 H 0.12062 0.20271 0.73785 0.0
H1590 H 0.14925 0.08808 0.66549 0.0
H1591 H 0.13403 0.12756 0.69024 0.0
H1592 H 0.15245 0.09717 0.75499 0.0
C1593 C 0.11107 0.1839 0.79808 0.0
C1594 C 0.12788 0.17981 0.74178 0.0
C1595 C 0.0904 0.19493 0.81272 0.0
C1596 C 0.15998 0.08869 0.68048 0.0
C1597 C 0.15138 0.11126 0.69466 0.0
C1598 C 0.14648 0.12044 0.75108 0.0
C1599 C 0.10409 0.18504 0.77695 0.0
C1600 C 0.12272 0.16807 0.76163 0.0
C1601 C 0.16346 0.1113 0.71476 0.0
C1602 C 0.15095 0.13175 0.73104 0.0
H1603 H 0.03497 0.21965 0.78002 0.0
H1604 H 0.07079 0.20047 0.75465 0.0
H1605 H 0.12847 0.12831 0.78111 0.0
H1606 H 0.20997 0.04947 0.71061 0.0
H1607 H 0.19625 0.08937 0.73489 0.0
C1608 C 0.6446 0.92409 0.69435 0.0
C1609 C 0.67317 0.92515 0.68476 0.0
C1610 C 0.63692 0.89982 0.70714 0.0
C1611 C 0.62117 0.83782 0.72444 0.0
H1612 H 0.67105 0.82518 0.77289 0.0
C1613 C 0.57371 0.76702 0.78969 0.0
C1614 C 0.575 0.78148 0.8089 0.0
C1615 C 0.59301 0.77605 0.77379 0.0
C1616 C 0.65701 0.82826 0.75937 0.0
H1617 H 0.71613 0.90168 0.68073 0.0
H1618 H 0.70284 0.859 0.70385 0.0
H1619 H 0.68991 0.85735 0.74473 0.0
H1620 H 0.59874 0.81511 0.8272 0.0
H1621 H 0.63196 0.83187 0.79914 0.0
H1622 H 0.5875 0.81063 0.7392 0.0
C1623 C 0.68636 0.87695 0.70113 0.0
C1624 C 0.66794 0.84639 0.74319 0.0
C1625 C 0.69385 0.90111 0.68785 0.0
C1626 C 0.59755 0.80348 0.81252 0.0
C1627 C 0.61657 0.81301 0.79642 0.0
C1628 C 0.61034 0.8197 0.74046 0.0
C1629 C 0.65782 0.87625 0.71094 0.0
C1630 C 0.64962 0.85213 0.72591 0.0
C1631 C 0.61348 0.80036 0.7766 0.0
C1632 C 0.62769 0.81538 0.75842 0.0
H1633 H 0.62826 0.94235 0.6922 0.0
H1634 H 0.6149 0.90003 0.71465 0.0
H1635 H 0.60663 0.84186 0.71126 0.0
H1636 H 0.55662 0.74979 0.78664 0.0
H1637 H 0.59059 0.76523 0.75891 0.0
C1638 C 0.57883 0.72073 0.19435 0.0
C1639 C 0.56556 0.69613 0.18389 0.0
C1640 C 0.59922 0.7154 0.2105 0.0
C1641 C 0.64544 0.65624 0.23684 0.0
H1642 H 0.61438 0.69246 0.28708 0.0
C1643 C 0.62924 0.61201 0.32192 0.0
C1644 C 0.65832 0.60092 0.32664 0.0
C1645 C 0.62522 0.63288 0.30594 0.0
C1646 C 0.62372 0.68261 0.27316 0.0
H1647 H 0.5637 0.64701 0.18119 0.0
H1648 H 0.59999 0.63754 0.20897 0.0
H1649 H 0.5958 0.71054 0.25383 0.0
H1650 H 0.7062 0.60346 0.31911 0.0
H1651 H 0.69916 0.63973 0.29065 0.0
H1652 H 0.67207 0.62712 0.25624 0.0
C1653 C 0.59499 0.66092 0.20472 0.0
C1654 C 0.61323 0.69304 0.25412 0.0
C1655 C 0.57427 0.66627 0.18883 0.0
C1656 C 0.68364 0.61231 0.31597 0.0
C1657 C 0.67957 0.63275 0.29961 0.0
C1658 C 0.65623 0.64607 0.25588 0.0
C1659 C 0.60676 0.68538 0.21625 0.0
C1660 C 0.62306 0.67911 0.2358 0.0
C1661 C 0.65017 0.64242 0.29403 0.0
C1662 C 0.64454 0.65832 0.27424 0.0
H1663 H 0.57181 0.74393 0.19101 0.0
H1664 H 0.60795 0.73465 0.21912 0.0
H1665 H 0.6535 0.6452 0.22296 0.0
H1666 H 0.60939 0.60303 0.32975 0.0
H1667 H 0.60227 0.6396 0.30186 0.0
C1668 C 0.8317 0.60006 0.68947 0.0
C1669 C 0.81108 0.57633 0.69327 0.0
C1670 C 0.83865 0.62098 0.70504 0.0
C1671 C 0.8401 0.62115 0.76165 0.0
H1672 H 0.87647 0.70077 0.75348 0.0
C1673 C 0.91133 0.67963 0.82503 0.0
C1674 C 0.94055 0.68715 0.81787 0.0
C1675 C 0.88807 0.67272 0.81103 0.0
C1676 C 0.86609 0.67867 0.75603 0.0
H1677 H 0.77901 0.5576 0.71515 0.0
H1678 H 0.78976 0.595 0.74189 0.0
H1679 H 0.84702 0.67751 0.72575 0.0
H1680 H 0.9679 0.69501 0.79058 0.0
H1681 H 0.92758 0.68321 0.76639 0.0
H1682 H 0.86 0.6219 0.79166 0.0
C1683 C 0.80165 0.59687 0.72736 0.0
C1684 C 0.84936 0.66527 0.74013 0.0
C1685 C 0.79525 0.57562 0.71199 0.0
C1686 C 0.94571 0.68895 0.79659 0.0
C1687 C 0.92249 0.68257 0.78269 0.0
C1688 C 0.85655 0.63467 0.77758 0.0
C1689 C 0.82469 0.61873 0.72452 0.0
C1690 C 0.83713 0.63581 0.74246 0.0
C1691 C 0.89357 0.67387 0.78971 0.0
C1692 C 0.87069 0.66301 0.77466 0.0
H1693 H 0.84437 0.60084 0.67518 0.0
H1694 H 0.85664 0.63734 0.70226 0.0
H1695 H 0.83151 0.59826 0.76403 0.0
H1696 H 0.90674 0.67819 0.84136 0.0
H1697 H 0.86595 0.66604 0.81683 0.0
C1698 C 0.93008 0.78395 0.20814 0.0
C1699 C 0.92654 0.79908 0.18929 0.0
C1700 C 0.91109 0.79077 0.22469 0.0
C1701 C 0.84421 0.8378 0.24152 0.0
H1702 H 0.8951 0.851 0.28941 0.0
C1703 C 0.80477 0.90792 0.31297 0.0
C1704 C 0.82498 0.93212 0.31662 0.0
C1705 C 0.81335 0.88383 0.29994 0.0
C1706 C 0.88043 0.84708 0.27629 0.0
H1707 H 0.89938 0.83164 0.17234 0.0
H1708 H 0.86678 0.84476 0.20156 0.0
H1709 H 0.91507 0.82259 0.26045 0.0
H1710 H 0.87017 0.94968 0.31066 0.0
H1711 H 0.88542 0.90758 0.2886 0.0
H1712 H 0.81035 0.86446 0.25718 0.0
C1713 C 0.88364 0.82696 0.2035 0.0
C1714 C 0.89176 0.83052 0.25967 0.0
C1715 C 0.90232 0.81957 0.18674 0.0
C1716 C 0.85425 0.93117 0.30809 0.0
C1717 C 0.86299 0.90701 0.29553 0.0
C1718 C 0.83285 0.85446 0.25825 0.0
C1719 C 0.88871 0.8136 0.22294 0.0
C1720 C 0.87421 0.82648 0.24177 0.0
C1721 C 0.84247 0.88343 0.29091 0.0
C1722 C 0.85133 0.8602 0.27546 0.0
H1723 H 0.9485 0.76781 0.21034 0.0
H1724 H 0.91509 0.77935 0.23922 0.0
H1725 H 0.82994 0.83478 0.22811 0.0
H1726 H 0.78193 0.90846 0.31924 0.0
H1727 H 0.79713 0.8659 0.29661 0.0
loop_
_geom_bond_atom_site_label_1
_geom_bond_atom_site_label_2
_geom_bond_distance
_geom_bond_site_symmetry_2
_ccdc_geom_bond_type
C0 C1 1.351 . S
C0 N3 1.368 . S
C0 H5 0.931 . S
C1 C0 1.351 . S
C1 N2 1.373 . S
C1 H29 0.930 . S
N2 C1 1.373 . S
N2 C4 1.340 . S
N3 C0 1.368 . S
N3 C4 1.321 . S
N3 Co6 2.135 . S
C4 N2 1.340 . S
C4 N3 1.321 . S
C4 H28 0.930 . S
H5 C0 0.931 . S
Co6 N3 2.135 . S
Co6 N9 2.121 . S
Co6 O14 2.055 . S
Co6 O17 2.039 . S
Co6 N20 2.140 . S
C7 O8 1.227 . S
C7 O17 1.265 . S
O8 C7 1.227 . S
N9 Co6 2.121 . S
N9 C11 1.375 . S
N9 C12 1.313 . S
C10 C11 1.338 . S
C10 N13 1.377 . S
C10 H30 0.930 . S
C11 N9 1.375 . S
C11 C10 1.338 . S
C11 H15 0.931 . S
C12 N9 1.313 . S
C12 N13 1.344 . S
C12 H16 0.930 . S
N13 C10 1.377 . S
N13 C12 1.344 . S
O14 Co6 2.055 . S
O14 C18 1.253 . S
H15 C11 0.931 . S
H16 C12 0.930 . S
O17 Co6 2.039 . S
O17 C7 1.265 . S
C18 O14 1.253 . S
C18 O19 1.227 . S
O19 C18 1.227 . S
N20 Co6 2.140 . S
N20 C23 1.346 . S
N20 C24 1.345 . S
C21 C22 1.387 . S
C21 C25 1.391 . S
C22 C21 1.387 . S
C22 C23 1.369 . S
C22 H31 0.929 . S
C23 N20 1.346 . S
C23 C22 1.369 . S
C23 H26 0.928 . S
C24 N20 1.345 . S
C24 C25 1.371 . S
C24 H27 0.931 . S
C25 C21 1.391 . S
C25 C24 1.371 . S
C25 H32 0.930 . S
H26 C23 0.928 . S
H27 C24 0.931 . S
H28 C4 0.930 . S
H29 C1 0.930 . S
H30 C10 0.930 . S
H31 C22 0.929 . S
H32 C25 0.930 . S
C33 C34 1.351 . S
C33 N36 1.368 . S
C33 H38 0.931 . S
C34 C33 1.351 . S
C34 N35 1.373 . S
C34 H62 0.930 . S
N35 C34 1.373 . S
N35 C37 1.340 . S
N36 C33 1.368 . S
N36 C37 1.321 . S
N36 Co39 2.135 . S
C37 N35 1.340 . S
C37 N36 1.321 . S
C37 H61 0.930 . S
H38 C33 0.931 . S
Co39 N36 2.135 . S
Co39 N42 2.121 . S
Co39 O47 2.055 . S
Co39 O50 2.039 . S
Co39 N53 2.140 . S
C40 O41 1.227 . S
C40 O50 1.265 . S
O41 C40 1.227 . S
N42 Co39 2.121 . S
N42 C44 1.375 . S
N42 C45 1.313 . S
C43 C44 1.338 . S
C43 N46 1.377 . S
C43 H63 0.930 . S
C44 N42 1.375 . S
C44 C43 1.338 . S
C44 H48 0.931 . S
C45 N42 1.313 . S
C45 N46 1.344 . S
C45 H49 0.930 . S
N46 C43 1.377 . S
N46 C45 1.344 . S
O47 Co39 2.055 . S
O47 C51 1.253 . S
H48 C44 0.931 . S
H49 C45 0.930 . S
O50 Co39 2.039 . S
O50 C40 1.265 . S
C51 O47 1.253 . S
C51 O52 1.227 . S
O52 C51 1.227 . S
N53 Co39 2.140 . S
N53 C56 1.346 . S
N53 C57 1.345 . S
C54 C55 1.387 . S
C54 C58 1.391 . S
C55 C54 1.387 . S
C55 C56 1.369 . S
C55 H64 0.929 . S
C56 N53 1.346 . S
C56 C55 1.369 . S
C56 H59 0.928 . S
C57 N53 1.345 . S
C57 C58 1.371 . S
C57 H60 0.931 . S
C58 C54 1.391 . S
C58 C57 1.371 . S
C58 H65 0.930 . S
H59 C56 0.928 . S
H60 C57 0.931 . S
H61 C37 0.930 . S
H62 C34 0.930 . S
H63 C43 0.930 . S
H64 C55 0.929 . S
H65 C58 0.930 . S
C66 C67 1.351 . S
C66 N69 1.368 . S
C66 H71 0.931 . S
C67 C66 1.351 . S
C67 N68 1.373 . S
C67 H95 0.930 . S
N68 C67 1.373 . S
N68 C70 1.340 . S
N69 C66 1.368 . S
N69 C70 1.321 . S
N69 Co72 2.135 . S
C70 N68 1.340 . S
C70 N69 1.321 . S
C70 H94 0.930 . S
H71 C66 0.931 . S
Co72 N69 2.135 . S
Co72 N75 2.121 . S
Co72 O80 2.055 . S
Co72 O83 2.039 . S
Co72 N86 2.140 1_455 S
C73 O74 1.227 1_455 S
C73 O83 1.265 . S
O74 C73 1.227 1_655 S
N75 Co72 2.121 . S
N75 C77 1.375 1_455 S
N75 C78 1.313 . S
C76 C77 1.338 . S
C76 N79 1.377 1_655 S
C76 H96 0.930 . S
C77 N75 1.375 1_655 S
C77 C76 1.338 . S
C77 H81 0.931 . S
C78 N75 1.313 . S
C78 N79 1.344 . S
C78 H82 0.930 . S
N79 C76 1.377 1_455 S
N79 C78 1.344 . S
O80 Co72 2.055 . S
O80 C84 1.253 . S
H81 C77 0.931 . S
H82 C78 0.930 . S
O83 Co72 2.039 . S
O83 C73 1.265 . S
C84 O80 1.253 . S
C84 O85 1.227 . S
O85 C84 1.227 . S
N86 Co72 2.140 1_655 S
N86 C89 1.346 . S
N86 C90 1.345 . S
C87 C88 1.387 . S
C87 C91 1.391 . S
C88 C87 1.387 . S
C88 C89 1.369 . S
C88 H97 0.929 . S
C89 N86 1.346 . S
C89 C88 1.369 . S
C89 H92 0.928 . S
C90 N86 1.345 . S
C90 C91 1.371 . S
C90 H93 0.931 . S
C91 C87 1.391 . S
C91 C90 1.371 . S
C91 H98 0.930 . S
H92 C89 0.928 . S
H93 C90 0.931 . S
H94 C70 0.930 . S
H95 C67 0.930 . S
H96 C76 0.930 . S
H97 C88 0.929 . S
H98 C91 0.930 . S
C99 C100 1.351 . S
C99 N102 1.368 . S
C99 H104 0.931 . S
C100 C99 1.351 . S
C100 N101 1.373 . S
C100 H128 0.930 . S
N101 C100 1.373 . S
N101 C103 1.340 . S
N102 C99 1.368 . S
N102 C103 1.321 . S
N102 Co105 2.135 . S
C103 N101 1.340 . S
C103 N102 1.321 . S
C103 H127 0.930 . S
H104 C99 0.931 . S
Co105 N102 2.135 . S
Co105 N108 2.121 . S
Co105 O113 2.055 . S
Co105 O116 2.039 . S
Co105 N119 2.140 1_545 S
C106 O107 1.227 1_545 S
C106 O116 1.265 . S
O107 C106 1.227 1_565 S
N108 Co105 2.121 . S
N108 C110 1.375 1_545 S
N108 C111 1.313 . S
C109 C110 1.338 . S
C109 N112 1.377 1_565 S
C109 H129 0.930 . S
C110 N108 1.375 1_565 S
C110 C109 1.338 . S
C110 H114 0.931 . S
C111 N108 1.313 . S
C111 N112 1.344 . S
C111 H115 0.930 . S
N112 C109 1.377 1_545 S
N112 C111 1.344 . S
O113 Co105 2.055 . S
O113 C117 1.253 . S
H114 C110 0.931 . S
H115 C111 0.930 . S
O116 Co105 2.039 . S
O116 C106 1.265 . S
C117 O113 1.253 . S
C117 O118 1.227 . S
O118 C117 1.227 . S
N119 Co105 2.140 1_565 S
N119 C122 1.346 . S
N119 C123 1.345 . S
C120 C121 1.387 . S
C120 C124 1.391 . S
C121 C120 1.387 . S
C121 C122 1.369 . S
C121 H130 0.929 . S
C122 N119 1.346 . S
C122 C121 1.369 . S
C122 H125 0.928 . S
C123 N119 1.345 . S
C123 C124 1.371 . S
C123 H126 0.931 . S
C124 C120 1.391 . S
C124 C123 1.371 . S
C124 H131 0.930 . S
H125 C122 0.928 . S
H126 C123 0.931 . S
H127 C103 0.930 . S
H128 C100 0.930 . S
H129 C109 0.930 . S
H130 C121 0.929 . S
H131 C124 0.930 . S
C132 C133 1.351 . S
C132 N135 1.368 . S
C132 H137 0.931 . S
C133 C132 1.351 . S
C133 N134 1.373 . S
C133 H161 0.930 . S
N134 C133 1.373 . S
N134 C136 1.340 . S
N135 C132 1.368 . S
N135 C136 1.321 . S
N135 Co138 2.135 . S
C136 N134 1.340 . S
C136 N135 1.321 . S
C136 H160 0.930 . S
H137 C132 0.931 . S
Co138 N135 2.135 . S
Co138 N141 2.121 . S
Co138 O146 2.055 . S
Co138 O149 2.039 . S
Co138 N152 2.140 . S
C139 O140 1.227 . S
C139 O149 1.265 . S
O140 C139 1.227 . S
N141 Co138 2.121 . S
N141 C143 1.375 . S
N141 C144 1.313 . S
C142 C143 1.338 . S
C142 N145 1.377 . S
C142 H162 0.930 . S
C143 N141 1.375 . S
C143 C142 1.338 . S
C143 H147 0.931 . S
C144 N141 1.313 . S
C144 N145 1.344 . S
C144 H148 0.930 . S
N145 C142 1.377 . S
N145 C144 1.344 . S
O146 Co138 2.055 . S
O146 C150 1.253 . S
H147 C143 0.931 . S
H148 C144 0.930 . S
O149 Co138 2.039 . S
O149 C139 1.265 . S
C150 O146 1.253 . S
C150 O151 1.227 . S
O151 C150 1.227 . S
N152 Co138 2.140 . S
N152 C155 1.346 . S
N152 C156 1.345 . S
C153 C154 1.387 . S
C153 C157 1.391 . S
C154 C153 1.387 . S
C154 C155 1.369 . S
C154 H163 0.929 . S
C155 N152 1.346 . S
C155 C154 1.369 . S
C155 H158 0.928 . S
C156 N152 1.345 . S
C156 C157 1.371 . S
C156 H159 0.931 . S
C157 C153 1.391 . S
C157 C156 1.371 . S
C157 H164 0.930 . S
H158 C155 0.928 . S
H159 C156 0.931 . S
H160 C136 0.930 . S
H161 C133 0.930 . S
H162 C142 0.930 . S
H163 C154 0.929 . S
H164 C157 0.930 . S
C165 C166 1.351 . S
C165 N168 1.368 . S
C165 H170 0.931 . S
C166 C165 1.351 . S
C166 N167 1.373 . S
C166 H194 0.930 . S
N167 C166 1.373 . S
N167 C169 1.340 . S
N168 C165 1.368 . S
N168 C169 1.321 . S
N168 Co171 2.135 . S
C169 N167 1.340 . S
C169 N168 1.321 . S
C169 H193 0.930 . S
H170 C165 0.931 . S
Co171 N168 2.135 . S
Co171 N174 2.121 . S
Co171 O179 2.055 . S
Co171 O182 2.039 . S
Co171 N185 2.140 . S
C172 O173 1.227 . S
C172 O182 1.265 . S
O173 C172 1.227 . S
N174 Co171 2.121 . S
N174 C176 1.375 . S
N174 C177 1.313 . S
C175 C176 1.338 . S
C175 N178 1.377 . S
C175 H195 0.930 . S
C176 N174 1.375 . S
C176 C175 1.338 . S
C176 H180 0.931 . S
C177 N174 1.313 . S
C177 N178 1.344 . S
C177 H181 0.930 . S
N178 C175 1.377 . S
N178 C177 1.344 . S
O179 Co171 2.055 . S
O179 C183 1.253 . S
H180 C176 0.931 . S
H181 C177 0.930 . S
O182 Co171 2.039 . S
O182 C172 1.265 . S
C183 O179 1.253 . S
C183 O184 1.227 . S
O184 C183 1.227 . S
N185 Co171 2.140 . S
N185 C188 1.346 . S
N185 C189 1.345 . S
C186 C187 1.387 . S
C186 C190 1.391 . S
C187 C186 1.387 . S
C187 C188 1.369 . S
C187 H196 0.929 . S
C188 N185 1.346 . S
C188 C187 1.369 . S
C188 H191 0.928 . S
C189 N185 1.345 . S
C189 C190 1.371 . S
C189 H192 0.931 . S
C190 C186 1.391 . S
C190 C189 1.371 . S
C190 H197 0.930 . S
H191 C188 0.928 . S
H192 C189 0.931 . S
H193 C169 0.930 . S
H194 C166 0.930 . S
H195 C175 0.930 . S
H196 C187 0.929 . S
H197 C190 0.930 . S
C198 C199 1.351 . S
C198 N201 1.368 . S
C198 H203 0.931 . S
C199 C198 1.351 . S
C199 N200 1.373 . S
C199 H227 0.930 . S
N200 C199 1.373 . S
N200 C202 1.340 . S
N201 C198 1.368 . S
N201 C202 1.321 . S
N201 Co204 2.135 . S
C202 N200 1.340 . S
C202 N201 1.321 . S
C202 H226 0.930 . S
H203 C198 0.931 . S
Co204 N201 2.135 . S
Co204 N207 2.121 . S
Co204 O212 2.055 . S
Co204 O215 2.039 . S
Co204 N218 2.140 1_455 S
C205 O206 1.227 1_455 S
C205 O215 1.265 . S
O206 C205 1.227 1_655 S
N207 Co204 2.121 . S
N207 C209 1.375 1_455 S
N207 C210 1.313 . S
C208 C209 1.338 . S
C208 N211 1.377 1_655 S
C208 H228 0.930 . S
C209 N207 1.375 1_655 S
C209 C208 1.338 . S
C209 H213 0.931 . S
C210 N207 1.313 . S
C210 N211 1.344 . S
C210 H214 0.930 . S
N211 C208 1.377 1_455 S
N211 C210 1.344 . S
O212 Co204 2.055 . S
O212 C216 1.253 . S
H213 C209 0.931 . S
H214 C210 0.930 . S
O215 Co204 2.039 . S
O215 C205 1.265 . S
C216 O212 1.253 . S
C216 O217 1.227 . S
O217 C216 1.227 . S
N218 Co204 2.140 1_655 S
N218 C221 1.346 . S
N218 C222 1.345 . S
C219 C220 1.387 . S
C219 C223 1.391 . S
C220 C219 1.387 . S
C220 C221 1.369 . S
C220 H229 0.929 . S
C221 N218 1.346 . S
C221 C220 1.369 . S
C221 H224 0.928 . S
C222 N218 1.345 . S
C222 C223 1.371 . S
C222 H225 0.931 . S
C223 C219 1.391 . S
C223 C222 1.371 . S
C223 H230 0.930 . S
H224 C221 0.928 . S
H225 C222 0.931 . S
H226 C202 0.930 . S
H227 C199 0.930 . S
H228 C208 0.930 . S
H229 C220 0.929 . S
H230 C223 0.930 . S
C231 C232 1.351 . S
C231 N234 1.368 . S
C231 H236 0.931 . S
C232 C231 1.351 . S
C232 N233 1.373 . S
C232 H260 0.930 . S
N233 C232 1.373 . S
N233 C235 1.340 . S
N234 C231 1.368 . S
N234 C235 1.321 . S
N234 Co237 2.135 . S
C235 N233 1.340 . S
C235 N234 1.321 . S
C235 H259 0.930 . S
H236 C231 0.931 . S
Co237 N234 2.135 . S
Co237 N240 2.121 . S
Co237 O245 2.055 . S
Co237 O248 2.039 . S
Co237 N251 2.140 1_545 S
C238 O239 1.227 1_545 S
C238 O248 1.265 . S
O239 C238 1.227 1_565 S
N240 Co237 2.121 . S
N240 C242 1.375 1_545 S
N240 C243 1.313 . S
C241 C242 1.338 . S
C241 N244 1.377 1_565 S
C241 H261 0.930 . S
C242 N240 1.375 1_565 S
C242 C241 1.338 . S
C242 H246 0.931 . S
C243 N240 1.313 . S
C243 N244 1.344 . S
C243 H247 0.930 . S
N244 C241 1.377 1_545 S
N244 C243 1.344 . S
O245 Co237 2.055 . S
O245 C249 1.253 . S
H246 C242 0.931 . S
H247 C243 0.930 . S
O248 Co237 2.039 . S
O248 C238 1.265 . S
C249 O245 1.253 . S
C249 O250 1.227 . S
O250 C249 1.227 . S
N251 Co237 2.140 1_565 S
N251 C254 1.346 . S
N251 C255 1.345 . S
C252 C253 1.387 . S
C252 C256 1.391 . S
C253 C252 1.387 . S
C253 C254 1.369 . S
C253 H262 0.929 . S
C254 N251 1.346 . S
C254 C253 1.369 . S
C254 H257 0.928 . S
C255 N251 1.345 . S
C255 C256 1.371 . S
C255 H258 0.931 . S
C256 C252 1.391 . S
C256 C255 1.371 . S
C256 H263 0.930 . S
H257 C254 0.928 . S
H258 C255 0.931 . S
H259 C235 0.930 . S
H260 C232 0.930 . S
H261 C241 0.930 . S
H262 C253 0.929 . S
H263 C256 0.930 . S
C264 C265 1.351 . S
C264 N267 1.368 . S
C264 H269 0.931 . S
C265 C264 1.351 . S
C265 N266 1.373 . S
C265 H293 0.930 . S
N266 C265 1.373 . S
N266 C268 1.340 . S
N267 C264 1.368 . S
N267 C268 1.321 . S
N267 Co270 2.135 . S
C268 N266 1.340 . S
C268 N267 1.321 . S
C268 H292 0.930 . S
H269 C264 0.931 . S
Co270 N267 2.135 . S
Co270 N273 2.121 . S
Co270 O278 2.055 . S
Co270 O281 2.039 . S
Co270 N284 2.140 . S
C271 O272 1.227 . S
C271 O281 1.265 . S
O272 C271 1.227 . S
N273 Co270 2.121 . S
N273 C275 1.375 . S
N273 C276 1.313 . S
C274 C275 1.338 . S
C274 N277 1.377 . S
C274 H294 0.930 . S
C275 N273 1.375 . S
C275 C274 1.338 . S
C275 H279 0.931 . S
C276 N273 1.313 . S
C276 N277 1.344 . S
C276 H280 0.930 . S
N277 C274 1.377 . S
N277 C276 1.344 . S
O278 Co270 2.055 . S
O278 C282 1.253 . S
H279 C275 0.931 . S
H280 C276 0.930 . S
O281 Co270 2.039 . S
O281 C271 1.265 . S
C282 O278 1.253 . S
C282 O283 1.227 . S
O283 C282 1.227 . S
N284 Co270 2.140 . S
N284 C287 1.346 . S
N284 C288 1.345 . S
C285 C286 1.387 . S
C285 C289 1.391 . S
C286 C285 1.387 . S
C286 C287 1.369 . S
C286 H295 0.929 . S
C287 N284 1.346 . S
C287 C286 1.369 . S
C287 H290 0.928 . S
C288 N284 1.345 . S
C288 C289 1.371 . S
C288 H291 0.931 . S
C289 C285 1.391 . S
C289 C288 1.371 . S
C289 H296 0.930 . S
H290 C287 0.928 . S
H291 C288 0.931 . S
H292 C268 0.930 . S
H293 C265 0.930 . S
H294 C274 0.930 . S
H295 C286 0.929 . S
H296 C289 0.930 . S
C297 C298 1.351 . S
C297 N300 1.368 . S
C297 H302 0.931 . S
C298 C297 1.351 . S
C298 N299 1.373 . S
C298 H326 0.930 . S
N299 C298 1.373 . S
N299 C301 1.340 . S
N300 C297 1.368 . S
N300 C301 1.321 . S
N300 Co303 2.135 . S
C301 N299 1.340 . S
C301 N300 1.321 . S
C301 H325 0.930 . S
H302 C297 0.931 . S
Co303 N300 2.135 . S
Co303 N306 2.121 . S
Co303 O311 2.055 . S
Co303 O314 2.039 . S
Co303 N317 2.140 . S
C304 O305 1.227 . S
C304 O314 1.265 . S
O305 C304 1.227 . S
N306 Co303 2.121 . S
N306 C308 1.375 . S
N306 C309 1.313 . S
C307 C308 1.338 . S
C307 N310 1.377 . S
C307 H327 0.930 . S
C308 N306 1.375 . S
C308 C307 1.338 . S
C308 H312 0.931 . S
C309 N306 1.313 . S
C309 N310 1.344 . S
C309 H313 0.930 . S
N310 C307 1.377 . S
N310 C309 1.344 . S
O311 Co303 2.055 . S
O311 C315 1.253 . S
H312 C308 0.931 . S
H313 C309 0.930 . S
O314 Co303 2.039 . S
O314 C304 1.265 . S
C315 O311 1.253 . S
C315 O316 1.227 . S
O316 C315 1.227 . S
N317 Co303 2.140 . S
N317 C320 1.346 . S
N317 C321 1.345 . S
C318 C319 1.387 . S
C318 C322 1.391 . S
C319 C318 1.387 . S
C319 C320 1.369 . S
C319 H328 0.929 . S
C320 N317 1.346 . S
C320 C319 1.369 . S
C320 H323 0.928 . S
C321 N317 1.345 . S
C321 C322 1.371 . S
C321 H324 0.931 . S
C322 C318 1.391 . S
C322 C321 1.371 . S
C322 H329 0.930 . S
H323 C320 0.928 . S
H324 C321 0.931 . S
H325 C301 0.930 . S
H326 C298 0.930 . S
H327 C307 0.930 . S
H328 C319 0.929 . S
H329 C322 0.930 . S
C330 C331 1.351 . S
C330 N333 1.368 . S
C330 H335 0.931 . S
C331 C330 1.351 . S
C331 N332 1.373 . S
C331 H359 0.930 . S
N332 C331 1.373 . S
N332 C334 1.340 . S
N333 C330 1.368 . S
N333 C334 1.321 . S
N333 Co336 2.135 . S
C334 N332 1.340 . S
C334 N333 1.321 . S
C334 H358 0.930 . S
H335 C330 0.931 . S
Co336 N333 2.135 . S
Co336 N339 2.121 . S
Co336 O344 2.055 . S
Co336 O347 2.039 . S
Co336 N350 2.140 1_655 S
C337 O338 1.227 1_655 S
C337 O347 1.265 . S
O338 C337 1.227 1_455 S
N339 Co336 2.121 . S
N339 C341 1.375 1_655 S
N339 C342 1.313 . S
C340 C341 1.338 . S
C340 N343 1.377 1_455 S
C340 H360 0.930 . S
C341 N339 1.375 1_455 S
C341 C340 1.338 . S
C341 H345 0.931 . S
C342 N339 1.313 . S
C342 N343 1.344 . S
C342 H346 0.930 . S
N343 C340 1.377 1_655 S
N343 C342 1.344 . S
O344 Co336 2.055 . S
O344 C348 1.253 . S
H345 C341 0.931 . S
H346 C342 0.930 . S
O347 Co336 2.039 . S
O347 C337 1.265 . S
C348 O344 1.253 . S
C348 O349 1.227 . S
O349 C348 1.227 . S
N350 Co336 2.140 1_455 S
N350 C353 1.346 . S
N350 C354 1.345 . S
C351 C352 1.387 . S
C351 C355 1.391 . S
C352 C351 1.387 . S
C352 C353 1.369 . S
C352 H361 0.929 . S
C353 N350 1.346 . S
C353 C352 1.369 . S
C353 H356 0.928 . S
C354 N350 1.345 . S
C354 C355 1.371 . S
C354 H357 0.931 . S
C355 C351 1.391 . S
C355 C354 1.371 . S
C355 H362 0.930 . S
H356 C353 0.928 . S
H357 C354 0.931 . S
H358 C334 0.930 . S
H359 C331 0.930 . S
H360 C340 0.930 . S
H361 C352 0.929 . S
H362 C355 0.930 . S
C363 C364 1.351 . S
C363 N366 1.368 . S
C363 H368 0.931 . S
C364 C363 1.351 . S
C364 N365 1.373 . S
C364 H392 0.930 . S
N365 C364 1.373 . S
N365 C367 1.340 . S
N366 C363 1.368 . S
N366 C367 1.321 . S
N366 Co369 2.135 . S
C367 N365 1.340 . S
C367 N366 1.321 . S
C367 H391 0.930 . S
H368 C363 0.931 . S
Co369 N366 2.135 . S
Co369 N372 2.121 . S
Co369 O377 2.055 . S
Co369 O380 2.039 . S
Co369 N383 2.140 1_565 S
C370 O371 1.227 1_565 S
C370 O380 1.265 . S
O371 C370 1.227 1_545 S
N372 Co369 2.121 . S
N372 C374 1.375 1_565 S
N372 C375 1.313 . S
C373 C374 1.338 . S
C373 N376 1.377 1_545 S
C373 H393 0.930 . S
C374 N372 1.375 1_545 S
C374 C373 1.338 . S
C374 H378 0.931 . S
C375 N372 1.313 . S
C375 N376 1.344 . S
C375 H379 0.930 . S
N376 C373 1.377 1_565 S
N376 C375 1.344 . S
O377 Co369 2.055 . S
O377 C381 1.253 . S
H378 C374 0.931 . S
H379 C375 0.930 . S
O380 Co369 2.039 . S
O380 C370 1.265 . S
C381 O377 1.253 . S
C381 O382 1.227 . S
O382 C381 1.227 . S
N383 Co369 2.140 1_545 S
N383 C386 1.346 . S
N383 C387 1.345 . S
C384 C385 1.387 . S
C384 C388 1.391 . S
C385 C384 1.387 . S
C385 C386 1.369 . S
C385 H394 0.929 . S
C386 N383 1.346 . S
C386 C385 1.369 . S
C386 H389 0.928 . S
C387 N383 1.345 . S
C387 C388 1.371 . S
C387 H390 0.931 . S
C388 C384 1.391 . S
C388 C387 1.371 . S
C388 H395 0.930 . S
H389 C386 0.928 . S
H390 C387 0.931 . S
H391 C367 0.930 . S
H392 C364 0.930 . S
H393 C373 0.930 . S
H394 C385 0.929 . S
H395 C388 0.930 . S
C396 C397 1.351 . S
C396 N399 1.368 . S
C396 H401 0.931 . S
C397 C396 1.351 . S
C397 N398 1.373 . S
C397 H425 0.930 . S
N398 C397 1.373 . S
N398 C400 1.340 . S
N399 C396 1.368 . S
N399 C400 1.321 . S
N399 Co402 2.135 . S
C400 N398 1.340 . S
C400 N399 1.321 . S
C400 H424 0.930 . S
H401 C396 0.931 . S
Co402 N399 2.135 . S
Co402 N405 2.121 . S
Co402 O410 2.055 . S
Co402 O413 2.039 . S
Co402 N416 2.140 . S
C403 O404 1.227 . S
C403 O413 1.265 . S
O404 C403 1.227 . S
N405 Co402 2.121 . S
N405 C407 1.375 . S
N405 C408 1.313 . S
C406 C407 1.338 . S
C406 N409 1.377 . S
C406 H426 0.930 . S
C407 N405 1.375 . S
C407 C406 1.338 . S
C407 H411 0.931 . S
C408 N405 1.313 . S
C408 N409 1.344 . S
C408 H412 0.930 . S
N409 C406 1.377 . S
N409 C408 1.344 . S
O410 Co402 2.055 . S
O410 C414 1.253 . S
H411 C407 0.931 . S
H412 C408 0.930 . S
O413 Co402 2.039 . S
O413 C403 1.265 . S
C414 O410 1.253 . S
C414 O415 1.227 . S
O415 C414 1.227 . S
N416 Co402 2.140 . S
N416 C419 1.346 . S
N416 C420 1.345 . S
C417 C418 1.387 . S
C417 C421 1.391 . S
C418 C417 1.387 . S
C418 C419 1.369 . S
C418 H427 0.929 . S
C419 N416 1.346 . S
C419 C418 1.369 . S
C419 H422 0.928 . S
C420 N416 1.345 . S
C420 C421 1.371 . S
C420 H423 0.931 . S
C421 C417 1.391 . S
C421 C420 1.371 . S
C421 H428 0.930 . S
H422 C419 0.928 . S
H423 C420 0.931 . S
H424 C400 0.930 . S
H425 C397 0.930 . S
H426 C406 0.930 . S
H427 C418 0.929 . S
H428 C421 0.930 . S
C429 C430 1.351 . S
C429 N432 1.368 . S
C429 H434 0.931 . S
C430 C429 1.351 . S
C430 N431 1.373 . S
C430 H458 0.930 . S
N431 C430 1.373 . S
N431 C433 1.340 . S
N432 C429 1.368 . S
N432 C433 1.321 . S
N432 Co435 2.135 . S
C433 N431 1.340 . S
C433 N432 1.321 . S
C433 H457 0.930 . S
H434 C429 0.931 . S
Co435 N432 2.135 . S
Co435 N438 2.121 . S
Co435 O443 2.055 . S
Co435 O446 2.039 . S
Co435 N449 2.140 . S
C436 O437 1.227 . S
C436 O446 1.265 . S
O437 C436 1.227 . S
N438 Co435 2.121 . S
N438 C440 1.375 . S
N438 C441 1.313 . S
C439 C440 1.338 . S
C439 N442 1.377 . S
C439 H459 0.930 . S
C440 N438 1.375 . S
C440 C439 1.338 . S
C440 H444 0.931 . S
C441 N438 1.313 . S
C441 N442 1.344 . S
C441 H445 0.930 . S
N442 C439 1.377 . S
N442 C441 1.344 . S
O443 Co435 2.055 . S
O443 C447 1.253 . S
H444 C440 0.931 . S
H445 C441 0.930 . S
O446 Co435 2.039 . S
O446 C436 1.265 . S
C447 O443 1.253 . S
C447 O448 1.227 . S
O448 C447 1.227 . S
N449 Co435 2.140 . S
N449 C452 1.346 . S
N449 C453 1.345 . S
C450 C451 1.387 . S
C450 C454 1.391 . S
C451 C450 1.387 . S
C451 C452 1.369 . S
C451 H460 0.929 . S
C452 N449 1.346 . S
C452 C451 1.369 . S
C452 H455 0.928 . S
C453 N449 1.345 . S
C453 C454 1.371 . S
C453 H456 0.931 . S
C454 C450 1.391 . S
C454 C453 1.371 . S
C454 H461 0.930 . S
H455 C452 0.928 . S
H456 C453 0.931 . S
H457 C433 0.930 . S
H458 C430 0.930 . S
H459 C439 0.930 . S
H460 C451 0.929 . S
H461 C454 0.930 . S
C462 C463 1.351 . S
C462 N465 1.368 . S
C462 H467 0.931 . S
C463 C462 1.351 . S
C463 N464 1.373 . S
C463 H491 0.930 . S
N464 C463 1.373 . S
N464 C466 1.340 . S
N465 C462 1.368 . S
N465 C466 1.321 . S
N465 Co468 2.135 . S
C466 N464 1.340 . S
C466 N465 1.321 . S
C466 H490 0.930 . S
H467 C462 0.931 . S
Co468 N465 2.135 . S
Co468 N471 2.121 . S
Co468 O476 2.055 . S
Co468 O479 2.039 . S
Co468 N482 2.140 1_655 S
C469 O470 1.227 1_655 S
C469 O479 1.265 . S
O470 C469 1.227 1_455 S
N471 Co468 2.121 . S
N471 C473 1.375 1_655 S
N471 C474 1.313 . S
C472 C473 1.338 . S
C472 N475 1.377 1_455 S
C472 H492 0.930 . S
C473 N471 1.375 1_455 S
C473 C472 1.338 . S
C473 H477 0.931 . S
C474 N471 1.313 . S
C474 N475 1.344 . S
C474 H478 0.930 . S
N475 C472 1.377 1_655 S
N475 C474 1.344 . S
O476 Co468 2.055 . S
O476 C480 1.253 . S
H477 C473 0.931 . S
H478 C474 0.930 . S
O479 Co468 2.039 . S
O479 C469 1.265 . S
C480 O476 1.253 . S
C480 O481 1.227 . S
O481 C480 1.227 . S
N482 Co468 2.140 1_455 S
N482 C485 1.346 . S
N482 C486 1.345 . S
C483 C484 1.387 . S
C483 C487 1.391 . S
C484 C483 1.387 . S
C484 C485 1.369 . S
C484 H493 0.929 . S
C485 N482 1.346 . S
C485 C484 1.369 . S
C485 H488 0.928 . S
C486 N482 1.345 . S
C486 C487 1.371 . S
C486 H489 0.931 . S
C487 C483 1.391 . S
C487 C486 1.371 . S
C487 H494 0.930 . S
H488 C485 0.928 . S
H489 C486 0.931 . S
H490 C466 0.930 . S
H491 C463 0.930 . S
H492 C472 0.930 . S
H493 C484 0.929 . S
H494 C487 0.930 . S
C495 C496 1.351 . S
C495 N498 1.368 . S
C495 H500 0.931 . S
C496 C495 1.351 . S
C496 N497 1.373 . S
C496 H524 0.930 . S
N497 C496 1.373 . S
N497 C499 1.340 . S
N498 C495 1.368 . S
N498 C499 1.321 . S
N498 Co501 2.135 . S
C499 N497 1.340 . S
C499 N498 1.321 . S
C499 H523 0.930 . S
H500 C495 0.931 . S
Co501 N498 2.135 . S
Co501 N504 2.121 . S
Co501 O509 2.055 . S
Co501 O512 2.039 . S
Co501 N515 2.140 1_565 S
C502 O503 1.227 1_565 S
C502 O512 1.265 . S
O503 C502 1.227 1_545 S
N504 Co501 2.121 . S
N504 C506 1.375 1_565 S
N504 C507 1.313 . S
C505 C506 1.338 . S
C505 N508 1.377 1_545 S
C505 H525 0.930 . S
C506 N504 1.375 1_545 S
C506 C505 1.338 . S
C506 H510 0.931 . S
C507 N504 1.313 . S
C507 N508 1.344 . S
C507 H511 0.930 . S
N508 C505 1.377 1_565 S
N508 C507 1.344 . S
O509 Co501 2.055 . S
O509 C513 1.253 . S
H510 C506 0.931 . S
H511 C507 0.930 . S
O512 Co501 2.039 . S
O512 C502 1.265 . S
C513 O509 1.253 . S
C513 O514 1.227 . S
O514 C513 1.227 . S
N515 Co501 2.140 1_545 S
N515 C518 1.346 . S
N515 C519 1.345 . S
C516 C517 1.387 . S
C516 C520 1.391 . S
C517 C516 1.387 . S
C517 C518 1.369 . S
C517 H526 0.929 . S
C518 N515 1.346 . S
C518 C517 1.369 . S
C518 H521 0.928 . S
C519 N515 1.345 . S
C519 C520 1.371 . S
C519 H522 0.931 . S
C520 C516 1.391 . S
C520 C519 1.371 . S
C520 H527 0.930 . S
H521 C518 0.928 . S
H522 C519 0.931 . S
H523 C499 0.930 . S
H524 C496 0.930 . S
H525 C505 0.930 . S
H526 C517 0.929 . S
H527 C520 0.930 . S
C528 C529 1.349 . S
C528 C530 1.327 . S
C528 H553 0.950 . S
C529 C528 1.349 . S
C529 C545 1.349 . S
C530 C528 1.327 . S
C530 C549 1.429 . S
C530 H554 0.950 . S
C531 C548 1.574 1_554 S
C531 C550 1.368 . S
C531 H555 0.949 . S
H532 C536 0.949 . S
C533 C534 1.349 . S
C533 C535 1.327 . S
C533 H556 0.950 . S
C534 C533 1.349 . S
C534 C546 1.349 . S
C535 C533 1.327 . S
C535 C551 1.429 . S
C535 H557 0.950 . S
C536 H532 0.949 . S
C536 C544 1.574 1_556 S
C536 C552 1.368 . S
H537 C545 0.950 . S
H538 C543 0.950 . S
H539 C544 0.949 . S
H540 C546 0.950 . S
H541 C547 0.950 . S
H542 C548 0.949 . S
C543 H538 0.950 . S
C543 C545 1.327 . S
C543 C549 1.429 . S
C544 C536 1.574 1_554 S
C544 H539 0.949 . S
C544 C550 1.368 . S
C545 C529 1.349 . S
C545 H537 0.950 . S
C545 C543 1.327 . S
C546 C534 1.349 . S
C546 H540 0.950 . S
C546 C547 1.327 . S
C547 H541 0.950 . S
C547 C546 1.327 . S
C547 C551 1.429 . S
C548 C531 1.574 1_556 S
C548 H542 0.949 . S
C548 C552 1.368 . S
C549 C530 1.429 . S
C549 C543 1.429 . S
C549 C550 1.523 . S
C550 C531 1.368 . S
C550 C544 1.368 . S
C550 C549 1.523 . S
C551 C535 1.429 . S
C551 C547 1.429 . S
C551 C552 1.523 . S
C552 C536 1.368 . S
C552 C548 1.368 . S
C552 C551 1.523 . S
H553 C528 0.950 . S
H554 C530 0.950 . S
H555 C531 0.949 . S
H556 C533 0.950 . S
H557 C535 0.950 . S
C558 C559 1.349 . S
C558 C560 1.327 . S
C558 H583 0.950 . S
C559 C558 1.349 . S
C559 C575 1.349 . S
C560 C558 1.327 . S
C560 C579 1.429 . S
C560 H584 0.950 . S
C561 C578 1.574 . S
C561 C580 1.368 . S
C561 H585 0.949 . S
H562 C566 0.949 . S
C563 C564 1.349 . S
C563 C565 1.327 . S
C563 H586 0.950 . S
C564 C563 1.349 . S
C564 C576 1.349 . S
C565 C563 1.327 . S
C565 C581 1.429 . S
C565 H587 0.950 . S
C566 H562 0.949 . S
C566 C574 1.574 . S
C566 C582 1.368 . S
H567 C575 0.950 . S
H568 C573 0.950 . S
H569 C574 0.949 . S
H570 C576 0.950 . S
H571 C577 0.950 . S
H572 C578 0.949 . S
C573 H568 0.950 . S
C573 C575 1.327 . S
C573 C579 1.429 . S
C574 C566 1.574 . S
C574 H569 0.949 . S
C574 C580 1.368 . S
C575 C559 1.349 . S
C575 H567 0.950 . S
C575 C573 1.327 . S
C576 C564 1.349 . S
C576 H570 0.950 . S
C576 C577 1.327 . S
C577 H571 0.950 . S
C577 C576 1.327 . S
C577 C581 1.429 . S
C578 C561 1.574 . S
C578 H572 0.949 . S
C578 C582 1.368 . S
C579 C560 1.429 . S
C579 C573 1.429 . S
C579 C580 1.523 . S
C580 C561 1.368 . S
C580 C574 1.368 . S
C580 C579 1.523 . S
C581 C565 1.429 . S
C581 C577 1.429 . S
C581 C582 1.523 . S
C582 C566 1.368 . S
C582 C578 1.368 . S
C582 C581 1.523 . S
H583 C558 0.950 . S
H584 C560 0.950 . S
H585 C561 0.949 . S
H586 C563 0.950 . S
H587 C565 0.950 . S
C588 C589 1.349 . S
C588 C590 1.327 . S
C588 H613 0.950 . S
C589 C588 1.349 . S
C589 C605 1.349 . S
C590 C588 1.327 . S
C590 C609 1.429 . S
C590 H614 0.950 . S
C591 C608 1.574 1_556 S
C591 C610 1.368 . S
C591 H615 0.949 1_455 S
H592 C596 0.949 . S
C593 C594 1.349 . S
C593 C595 1.327 . S
C593 H616 0.950 1_455 S
C594 C593 1.349 . S
C594 C606 1.349 . S
C595 C593 1.327 . S
C595 C611 1.429 . S
C595 H617 0.950 1_455 S
C596 H592 0.949 . S
C596 C604 1.574 1_554 S
C596 C612 1.368 . S
H597 C605 0.950 1_655 S
H598 C603 0.950 1_655 S
H599 C604 0.949 . S
H600 C606 0.950 . S
H601 C607 0.950 . S
H602 C608 0.949 1_655 S
C603 H598 0.950 1_455 S
C603 C605 1.327 . S
C603 C609 1.429 . S
C604 C596 1.574 1_556 S
C604 H599 0.949 . S
C604 C610 1.368 . S
C605 C589 1.349 . S
C605 H597 0.950 1_455 S
C605 C603 1.327 . S
C606 C594 1.349 . S
C606 H600 0.950 . S
C606 C607 1.327 . S
C607 H601 0.950 . S
C607 C606 1.327 . S
C607 C611 1.429 . S
C608 C591 1.574 1_554 S
C608 H602 0.949 1_455 S
C608 C612 1.368 . S
C609 C590 1.429 . S
C609 C603 1.429 . S
C609 C610 1.523 . S
C610 C591 1.368 . S
C610 C604 1.368 . S
C610 C609 1.523 . S
C611 C595 1.429 . S
C611 C607 1.429 . S
C611 C612 1.523 . S
C612 C596 1.368 . S
C612 C608 1.368 . S
C612 C611 1.523 . S
H613 C588 0.950 . S
H614 C590 0.950 . S
H615 C591 0.949 1_655 S
H616 C593 0.950 1_655 S
H617 C595 0.950 1_655 S
C618 C619 1.365 . S
C618 C620 1.327 . S
C618 H643 0.934 1_545 S
C619 C618 1.365 . S
C619 C635 1.349 . S
C620 C618 1.327 . S
C620 C639 1.427 . S
C620 H644 0.951 1_545 S
C621 C638 1.574 . S
C621 C640 1.368 . S
C621 H645 0.949 . S
H622 C626 0.949 . S
C623 C624 1.349 . S
C623 C625 1.327 . S
C623 H646 0.950 . S
C624 C623 1.349 . S
C624 C636 1.365 . S
C625 C623 1.327 . S
C625 C641 1.429 . S
C625 H647 0.950 . S
C626 H622 0.949 . S
C626 C634 1.574 . S
C626 C642 1.368 1_565 S
H627 C635 0.950 . S
H628 C633 0.950 . S
H629 C634 0.949 . S
H630 C636 0.934 1_565 S
H631 C637 0.951 1_565 S
H632 C638 0.949 . S
C633 H628 0.950 . S
C633 C635 1.327 . S
C633 C639 1.429 . S
C634 C626 1.574 . S
C634 H629 0.949 . S
C634 C640 1.368 1_565 S
C635 C619 1.349 . S
C635 H627 0.950 . S
C635 C633 1.327 . S
C636 C624 1.365 . S
C636 H630 0.934 1_545 S
C636 C637 1.327 . S
C637 H631 0.951 1_545 S
C637 C636 1.327 . S
C637 C641 1.427 . S
C638 C621 1.574 . S
C638 H632 0.949 . S
C638 C642 1.368 . S
C639 C620 1.427 . S
C639 C633 1.429 . S
C639 C640 1.523 . S
C640 C621 1.368 . S
C640 C634 1.368 1_545 S
C640 C639 1.523 . S
C641 C625 1.429 . S
C641 C637 1.427 . S
C641 C642 1.523 . S
C642 C626 1.368 1_545 S
C642 C638 1.368 . S
C642 C641 1.523 . S
H643 C618 0.934 1_565 S
H644 C620 0.951 1_565 S
H645 C621 0.949 . S
H646 C623 0.950 . S
H647 C625 0.950 . S
C648 C649 1.349 . S
C648 C650 1.327 . S
C648 H673 0.950 . S
C649 C648 1.349 . S
C649 C665 1.349 . S
C650 C648 1.327 . S
C650 C669 1.429 . S
C650 H674 0.950 . S
C651 C668 1.574 1_556 S
C651 C670 1.368 . S
C651 H675 0.949 . S
H652 C656 0.949 . S
C653 C654 1.349 . S
C653 C655 1.327 . S
C653 H676 0.950 . S
C654 C653 1.349 . S
C654 C666 1.349 . S
C655 C653 1.327 . S
C655 C671 1.429 . S
C655 H677 0.950 . S
C656 H652 0.949 . S
C656 C664 1.574 1_554 S
C656 C672 1.368 . S
H657 C665 0.950 . S
H658 C663 0.950 . S
H659 C664 0.949 . S
H660 C666 0.950 . S
H661 C667 0.950 . S
H662 C668 0.949 . S
C663 H658 0.950 . S
C663 C665 1.327 . S
C663 C669 1.429 . S
C664 C656 1.574 1_556 S
C664 H659 0.949 . S
C664 C670 1.368 . S
C665 C649 1.349 . S
C665 H657 0.950 . S
C665 C663 1.327 . S
C666 C654 1.349 . S
C666 H660 0.950 . S
C666 C667 1.327 . S
C667 H661 0.950 . S
C667 C666 1.327 . S
C667 C671 1.429 . S
C668 C651 1.574 1_554 S
C668 H662 0.949 . S
C668 C672 1.368 . S
C669 C650 1.429 . S
C669 C663 1.429 . S
C669 C670 1.523 . S
C670 C651 1.368 . S
C670 C664 1.368 . S
C670 C669 1.523 . S
C671 C655 1.429 . S
C671 C667 1.429 . S
C671 C672 1.523 . S
C672 C656 1.368 . S
C672 C668 1.368 . S
C672 C671 1.523 . S
H673 C648 0.950 . S
H674 C650 0.950 . S
H675 C651 0.949 . S
H676 C653 0.950 . S
H677 C655 0.950 . S
C678 C679 1.349 . S
C678 C680 1.327 . S
C678 H703 0.950 . S
C679 C678 1.349 . S
C679 C695 1.349 . S
C680 C678 1.327 . S
C680 C699 1.429 . S
C680 H704 0.950 . S
C681 C698 1.574 . S
C681 C700 1.368 . S
C681 H705 0.949 . S
H682 C686 0.949 . S
C683 C684 1.349 . S
C683 C685 1.327 . S
C683 H706 0.950 . S
C684 C683 1.349 . S
C684 C696 1.349 . S
C685 C683 1.327 . S
C685 C701 1.429 . S
C685 H707 0.950 . S
C686 H682 0.949 . S
C686 C694 1.574 . S
C686 C702 1.368 . S
H687 C695 0.950 . S
H688 C693 0.950 . S
H689 C694 0.949 . S
H690 C696 0.950 . S
H691 C697 0.950 . S
H692 C698 0.949 . S
C693 H688 0.950 . S
C693 C695 1.327 . S
C693 C699 1.429 . S
C694 C686 1.574 . S
C694 H689 0.949 . S
C694 C700 1.368 . S
C695 C679 1.349 . S
C695 H687 0.950 . S
C695 C693 1.327 . S
C696 C684 1.349 . S
C696 H690 0.950 . S
C696 C697 1.327 . S
C697 H691 0.950 . S
C697 C696 1.327 . S
C697 C701 1.429 . S
C698 C681 1.574 . S
C698 H692 0.949 . S
C698 C702 1.368 . S
C699 C680 1.429 . S
C699 C693 1.429 . S
C699 C700 1.523 . S
C700 C681 1.368 . S
C700 C694 1.368 . S
C700 C699 1.523 . S
C701 C685 1.429 . S
C701 C697 1.429 . S
C701 C702 1.523 . S
C702 C686 1.368 . S
C702 C698 1.368 . S
C702 C701 1.523 . S
H703 C678 0.950 . S
H704 C680 0.950 . S
H705 C681 0.949 . S
H706 C683 0.950 . S
H707 C685 0.950 . S
C708 C709 1.349 . S
C708 C710 1.327 . S
C708 H733 0.950 1_655 S
C709 C708 1.349 . S
C709 C725 1.349 . S
C710 C708 1.327 . S
C710 C729 1.429 . S
C710 H734 0.950 1_655 S
C711 C728 1.574 1_554 S
C711 C730 1.368 . S
C711 H735 0.949 . S
H712 C716 0.949 1_455 S
C713 C714 1.349 . S
C713 C715 1.327 . S
C713 H736 0.950 . S
C714 C713 1.349 . S
C714 C726 1.349 . S
C715 C713 1.327 . S
C715 C731 1.429 . S
C715 H737 0.950 . S
C716 H712 0.949 1_655 S
C716 C724 1.574 1_556 S
C716 C732 1.368 . S
H717 C725 0.950 . S
H718 C723 0.950 . S
H719 C724 0.949 1_455 S
H720 C726 0.950 1_455 S
H721 C727 0.950 1_455 S
H722 C728 0.949 . S
C723 H718 0.950 . S
C723 C725 1.327 . S
C723 C729 1.429 . S
C724 C716 1.574 1_554 S
C724 H719 0.949 1_655 S
C724 C730 1.368 . S
C725 C709 1.349 . S
C725 H717 0.950 . S
C725 C723 1.327 . S
C726 C714 1.349 . S
C726 H720 0.950 1_655 S
C726 C727 1.327 . S
C727 H721 0.950 1_655 S
C727 C726 1.327 . S
C727 C731 1.429 . S
C728 C711 1.574 1_556 S
C728 H722 0.949 . S
C728 C732 1.368 . S
C729 C710 1.429 . S
C729 C723 1.429 . S
C729 C730 1.523 . S
C730 C711 1.368 . S
C730 C724 1.368 . S
C730 C729 1.523 . S
C731 C715 1.429 . S
C731 C727 1.429 . S
C731 C732 1.523 . S
C732 C716 1.368 . S
C732 C728 1.368 . S
C732 C731 1.523 . S
H733 C708 0.950 1_455 S
H734 C710 0.950 1_455 S
H735 C711 0.949 . S
H736 C713 0.950 . S
H737 C715 0.950 . S
C738 C739 1.349 . S
C738 C740 1.327 . S
C738 H763 0.950 . S
C739 C738 1.349 . S
C739 C755 1.365 . S
C740 C738 1.327 . S
C740 C759 1.429 . S
C740 H764 0.950 . S
C741 C758 1.574 . S
C741 C760 1.368 1_545 S
C741 H765 0.949 . S
H742 C746 0.949 . S
C743 C744 1.365 . S
C743 C745 1.327 . S
C743 H766 0.934 1_565 S
C744 C743 1.365 . S
C744 C756 1.349 . S
C745 C743 1.327 . S
C745 C761 1.427 . S
C745 H767 0.951 1_565 S
C746 H742 0.949 . S
C746 C754 1.574 . S
C746 C762 1.368 . S
H747 C755 0.934 1_545 S
H748 C753 0.951 1_545 S
H749 C754 0.949 . S
H750 C756 0.950 . S
H751 C757 0.950 . S
H752 C758 0.949 . S
C753 H748 0.951 1_565 S
C753 C755 1.327 . S
C753 C759 1.427 . S
C754 C746 1.574 . S
C754 H749 0.949 . S
C754 C760 1.368 . S
C755 C739 1.365 . S
C755 H747 0.934 1_565 S
C755 C753 1.327 . S
C756 C744 1.349 . S
C756 H750 0.950 . S
C756 C757 1.327 . S
C757 H751 0.950 . S
C757 C756 1.327 . S
C757 C761 1.429 . S
C758 C741 1.574 . S
C758 H752 0.949 . S
C758 C762 1.368 1_545 S
C759 C740 1.429 . S
C759 C753 1.427 . S
C759 C760 1.523 . S
C760 C741 1.368 1_565 S
C760 C754 1.368 . S
C760 C759 1.523 . S
C761 C745 1.427 . S
C761 C757 1.429 . S
C761 C762 1.523 . S
C762 C746 1.368 . S
C762 C758 1.368 1_565 S
C762 C761 1.523 . S
H763 C738 0.950 . S
H764 C740 0.950 . S
H765 C741 0.949 . S
H766 C743 0.934 1_545 S
H767 C745 0.951 1_545 S
C768 C769 1.349 . S
C768 C770 1.327 . S
C768 H793 0.950 . S
C769 C768 1.349 . S
C769 C785 1.349 . S
C770 C768 1.327 . S
C770 C789 1.429 . S
C770 H794 0.950 . S
C771 C788 1.574 . S
C771 C790 1.368 . S
C771 H795 0.949 . S
H772 C776 0.949 . S
C773 C774 1.349 . S
C773 C775 1.327 . S
C773 H796 0.950 . S
C774 C773 1.349 . S
C774 C786 1.349 . S
C775 C773 1.327 . S
C775 C791 1.429 . S
C775 H797 0.950 . S
C776 H772 0.949 . S
C776 C784 1.574 . S
C776 C792 1.368 1_565 S
H777 C785 0.950 . S
H778 C783 0.950 . S
H779 C784 0.949 . S
H780 C786 0.950 . S
H781 C787 0.950 . S
H782 C788 0.949 1_545 S
C783 H778 0.950 . S
C783 C785 1.327 . S
C783 C789 1.429 . S
C784 C776 1.574 . S
C784 H779 0.949 . S
C784 C790 1.368 . S
C785 C769 1.349 . S
C785 H777 0.950 . S
C785 C783 1.327 . S
C786 C774 1.349 . S
C786 H780 0.950 . S
C786 C787 1.327 . S
C787 H781 0.950 . S
C787 C786 1.327 . S
C787 C791 1.429 . S
C788 C771 1.574 . S
C788 H782 0.949 1_565 S
C788 C792 1.368 1_565 S
C789 C770 1.429 . S
C789 C783 1.429 . S
C789 C790 1.523 . S
C790 C771 1.368 . S
C790 C784 1.368 . S
C790 C789 1.523 . S
C791 C775 1.429 . S
C791 C787 1.429 . S
C791 C792 1.523 . S
C792 C776 1.368 1_545 S
C792 C788 1.368 1_545 S
C792 C791 1.523 . S
H793 C768 0.950 . S
H794 C770 0.950 . S
H795 C771 0.949 . S
H796 C773 0.950 . S
H797 C775 0.950 . S
C798 C799 1.349 . S
C798 C800 1.327 . S
C798 H823 0.950 . S
C799 C798 1.349 . S
C799 C815 1.349 . S
C800 C798 1.327 . S
C800 C819 1.429 . S
C800 H824 0.950 . S
C801 C818 1.574 . S
C801 C820 1.368 . S
C801 H825 0.949 . S
H802 C806 0.949 . S
C803 C804 1.349 . S
C803 C805 1.327 . S
C803 H826 0.950 . S
C804 C803 1.349 . S
C804 C816 1.349 . S
C805 C803 1.327 . S
C805 C821 1.429 . S
C805 H827 0.950 . S
C806 H802 0.949 . S
C806 C814 1.574 . S
C806 C822 1.368 . S
H807 C815 0.950 . S
H808 C813 0.950 . S
H809 C814 0.949 . S
H810 C816 0.950 . S
H811 C817 0.950 . S
H812 C818 0.949 . S
C813 H808 0.950 . S
C813 C815 1.327 . S
C813 C819 1.429 . S
C814 C806 1.574 . S
C814 H809 0.949 . S
C814 C820 1.368 . S
C815 C799 1.349 . S
C815 H807 0.950 . S
C815 C813 1.327 . S
C816 C804 1.349 . S
C816 H810 0.950 . S
C816 C817 1.327 . S
C817 H811 0.950 . S
C817 C816 1.327 . S
C817 C821 1.429 . S
C818 C801 1.574 . S
C818 H812 0.949 . S
C818 C822 1.368 . S
C819 C800 1.429 . S
C819 C813 1.429 . S
C819 C820 1.523 . S
C820 C801 1.368 . S
C820 C814 1.368 . S
C820 C819 1.523 . S
C821 C805 1.429 . S
C821 C817 1.429 . S
C821 C822 1.523 . S
C822 C806 1.368 . S
C822 C818 1.368 . S
C822 C821 1.523 . S
H823 C798 0.950 . S
H824 C800 0.950 . S
H825 C801 0.949 . S
H826 C803 0.950 . S
H827 C805 0.950 . S
C828 C829 1.349 1_655 S
C828 C830 1.327 . S
C828 H853 0.950 . S
C829 C828 1.349 1_455 S
C829 C845 1.349 . S
C830 C828 1.327 . S
C830 C849 1.429 . S
C830 H854 0.950 . S
C831 C848 1.574 1_455 S
C831 C850 1.368 1_455 S
C831 H855 0.949 . S
H832 C836 0.949 . S
C833 C834 1.349 . S
C833 C835 1.327 . S
C833 H856 0.950 . S
C834 C833 1.349 . S
C834 C846 1.349 . S
C835 C833 1.327 . S
C835 C851 1.429 . S
C835 H857 0.950 . S
C836 H832 0.949 . S
C836 C844 1.574 . S
C836 C852 1.368 . S
H837 C845 0.950 . S
H838 C843 0.950 . S
H839 C844 0.949 . S
H840 C846 0.950 . S
H841 C847 0.950 . S
H842 C848 0.949 1_455 S
C843 H838 0.950 . S
C843 C845 1.327 . S
C843 C849 1.429 1_455 S
C844 C836 1.574 . S
C844 H839 0.949 . S
C844 C850 1.368 . S
C845 C829 1.349 . S
C845 H837 0.950 . S
C845 C843 1.327 . S
C846 C834 1.349 . S
C846 H840 0.950 . S
C846 C847 1.327 . S
C847 H841 0.950 . S
C847 C846 1.327 . S
C847 C851 1.429 . S
C848 C831 1.574 1_655 S
C848 H842 0.949 1_655 S
C848 C852 1.368 . S
C849 C830 1.429 . S
C849 C843 1.429 1_655 S
C849 C850 1.523 . S
C850 C831 1.368 1_655 S
C850 C844 1.368 . S
C850 C849 1.523 . S
C851 C835 1.429 . S
C851 C847 1.429 . S
C851 C852 1.523 . S
C852 C836 1.368 . S
C852 C848 1.368 . S
C852 C851 1.523 . S
H853 C828 0.950 . S
H854 C830 0.950 . S
H855 C831 0.949 . S
H856 C833 0.950 . S
H857 C835 0.950 . S
C858 C859 1.328 1_545 S
C858 C860 1.331 . S
C858 H883 0.968 . S
C859 C858 1.328 1_565 S
C859 C875 1.349 . S
C860 C858 1.331 . S
C860 C879 1.429 1_545 S
C860 H884 0.950 . S
C861 C878 1.574 . S
C861 C880 1.368 . S
C861 H885 0.949 . S
H862 C866 0.949 1_455 S
C863 C864 1.349 1_565 S
C863 C865 1.327 . S
C863 H886 0.950 . S
C864 C863 1.349 1_545 S
C864 C876 1.349 . S
C865 C863 1.327 . S
C865 C881 1.429 . S
C865 H887 0.950 . S
C866 H862 0.949 1_655 S
C866 C874 1.574 . S
C866 C882 1.368 1_645 S
H867 C875 0.950 . S
H868 C873 0.950 . S
H869 C874 0.949 . S
H870 C876 0.950 . S
H871 C877 0.950 . S
H872 C878 0.949 1_455 S
C873 H868 0.950 . S
C873 C875 1.327 . S
C873 C879 1.429 . S
C874 C866 1.574 . S
C874 H869 0.949 . S
C874 C880 1.368 1_545 S
C875 C859 1.349 . S
C875 H867 0.950 . S
C875 C873 1.327 . S
C876 C864 1.349 . S
C876 H870 0.950 . S
C876 C877 1.327 . S
C877 H871 0.950 . S
C877 C876 1.327 . S
C877 C881 1.429 1_545 S
C878 C861 1.574 . S
C878 H872 0.949 1_655 S
C878 C882 1.368 1_655 S
C879 C860 1.429 1_565 S
C879 C873 1.429 . S
C879 C880 1.523 . S
C880 C861 1.368 . S
C880 C874 1.368 1_565 S
C880 C879 1.523 . S
C881 C865 1.429 . S
C881 C877 1.429 1_565 S
C881 C882 1.523 . S
C882 C866 1.368 1_465 S
C882 C878 1.368 1_455 S
C882 C881 1.523 . S
H883 C858 0.968 . S
H884 C860 0.950 . S
H885 C861 0.949 . S
H886 C863 0.950 . S
H887 C865 0.950 . S
C888 C889 1.349 . S
C888 C890 1.327 . S
C888 H913 0.950 . S
C889 C888 1.349 . S
C889 C905 1.349 . S
C890 C888 1.327 . S
C890 C909 1.429 . S
C890 H914 0.950 . S
C891 C908 1.574 . S
C891 C910 1.368 . S
C891 H915 0.949 . S
H892 C896 0.949 . S
C893 C894 1.349 . S
C893 C895 1.327 . S
C893 H916 0.950 . S
C894 C893 1.349 . S
C894 C906 1.349 . S
C895 C893 1.327 . S
C895 C911 1.429 . S
C895 H917 0.950 . S
C896 H892 0.949 . S
C896 C904 1.574 . S
C896 C912 1.368 . S
H897 C905 0.950 . S
H898 C903 0.950 . S
H899 C904 0.949 . S
H900 C906 0.950 . S
H901 C907 0.950 . S
H902 C908 0.949 . S
C903 H898 0.950 . S
C903 C905 1.327 . S
C903 C909 1.429 . S
C904 C896 1.574 . S
C904 H899 0.949 . S
C904 C910 1.368 . S
C905 C889 1.349 . S
C905 H897 0.950 . S
C905 C903 1.327 . S
C906 C894 1.349 . S
C906 H900 0.950 . S
C906 C907 1.327 . S
C907 H901 0.950 . S
C907 C906 1.327 . S
C907 C911 1.429 . S
C908 C891 1.574 . S
C908 H902 0.949 . S
C908 C912 1.368 . S
C909 C890 1.429 . S
C909 C903 1.429 . S
C909 C910 1.523 . S
C910 C891 1.368 . S
C910 C904 1.368 . S
C910 C909 1.523 . S
C911 C895 1.429 . S
C911 C907 1.429 . S
C911 C912 1.523 . S
C912 C896 1.368 . S
C912 C908 1.368 . S
C912 C911 1.523 . S
H913 C888 0.950 . S
H914 C890 0.950 . S
H915 C891 0.949 . S
H916 C893 0.950 . S
H917 C895 0.950 . S
C918 C919 1.349 . S
C918 C920 1.327 . S
C918 H943 0.950 . S
C919 C918 1.349 . S
C919 C935 1.349 . S
C920 C918 1.327 . S
C920 C939 1.429 . S
C920 H944 0.950 . S
C921 C938 1.574 . S
C921 C940 1.368 . S
C921 H945 0.949 . S
H922 C926 0.934 1_455 S
C923 C924 1.349 . S
C923 C925 1.327 . S
C923 H946 0.950 . S
C924 C923 1.349 . S
C924 C936 1.349 . S
C925 C923 1.327 . S
C925 C941 1.429 . S
C925 H947 0.950 . S
C926 H922 0.934 1_655 S
C926 C934 1.574 . S
C926 C942 1.368 1_655 S
H927 C935 0.950 . S
H928 C933 0.950 . S
H929 C934 0.949 . S
H930 C936 0.950 . S
H931 C937 0.950 . S
H932 C938 0.949 1_455 S
C933 H928 0.950 . S
C933 C935 1.327 . S
C933 C939 1.429 . S
C934 C926 1.574 . S
C934 H929 0.949 . S
C934 C940 1.368 . S
C935 C919 1.349 . S
C935 H927 0.950 . S
C935 C933 1.327 . S
C936 C924 1.349 . S
C936 H930 0.950 . S
C936 C937 1.327 . S
C937 H931 0.950 . S
C937 C936 1.327 . S
C937 C941 1.429 . S
C938 C921 1.574 . S
C938 H932 0.949 1_655 S
C938 C942 1.368 1_655 S
C939 C920 1.429 . S
C939 C933 1.429 . S
C939 C940 1.523 . S
C940 C921 1.368 . S
C940 C934 1.368 . S
C940 C939 1.523 . S
C941 C925 1.429 . S
C941 C937 1.429 . S
C941 C942 1.523 . S
C942 C926 1.368 1_455 S
C942 C938 1.368 1_455 S
C942 C941 1.523 . S
H943 C918 0.950 . S
H944 C920 0.950 . S
H945 C921 0.949 . S
H946 C923 0.950 . S
H947 C925 0.950 . S
C948 C949 1.349 . S
C948 C950 1.327 . S
C948 H973 0.950 . S
C949 C948 1.349 . S
C949 C965 1.349 1_455 S
C950 C948 1.327 . S
C950 C969 1.429 1_455 S
C950 H974 0.950 . S
C951 C968 1.574 . S
C951 C970 1.368 1_565 S
C951 H975 0.949 1_565 S
H952 C956 0.949 . S
C953 C954 1.349 . S
C953 C955 1.327 . S
C953 H976 0.950 . S
C954 C953 1.349 . S
C954 C966 1.349 . S
C955 C953 1.327 . S
C955 C971 1.429 . S
C955 H977 0.950 . S
C956 H952 0.949 . S
C956 C964 1.574 . S
C956 C972 1.368 1_455 S
H957 C965 0.950 . S
H958 C963 0.950 . S
H959 C964 0.949 1_545 S
H960 C966 0.950 1_455 S
H961 C967 0.952 . S
H962 C968 0.949 . S
C963 H958 0.950 . S
C963 C965 1.327 . S
C963 C969 1.429 . S
C964 C956 1.574 . S
C964 H959 0.949 1_565 S
C964 C970 1.368 1_465 S
C965 C949 1.349 1_655 S
C965 H957 0.950 . S
C965 C963 1.327 . S
C966 C954 1.349 . S
C966 H960 0.950 1_655 S
C966 C967 1.327 1_655 S
C967 H961 0.952 . S
C967 C966 1.327 1_455 S
C967 C971 1.427 1_455 S
C968 C951 1.574 . S
C968 H962 0.949 . S
C968 C972 1.368 . S
C969 C950 1.429 1_655 S
C969 C963 1.429 . S
C969 C970 1.523 . S
C970 C951 1.368 1_545 S
C970 C964 1.368 1_645 S
C970 C969 1.523 . S
C971 C955 1.429 . S
C971 C967 1.427 1_655 S
C971 C972 1.523 . S
C972 C956 1.368 1_655 S
C972 C968 1.368 . S
C972 C971 1.523 . S
H973 C948 0.950 . S
H974 C950 0.950 . S
H975 C951 0.949 1_545 S
H976 C953 0.950 . S
H977 C955 0.950 . S
C978 C979 1.349 . S
C978 C980 1.327 . S
C978 H1003 0.950 . S
C979 C978 1.349 . S
C979 C995 1.349 1_545 S
C980 C978 1.327 . S
C980 C999 1.429 1_545 S
C980 H1004 0.950 . S
C981 C998 1.574 . S
C981 C1000 1.368 . S
C981 H1005 0.949 . S
H982 C986 0.949 . S
C983 C984 1.349 . S
C983 C985 1.327 . S
C983 H1006 0.950 . S
C984 C983 1.349 . S
C984 C996 1.363 . S
C985 C983 1.327 . S
C985 C1001 1.429 . S
C985 H1007 0.950 . S
C986 H982 0.949 . S
C986 C994 1.574 . S
C986 C1002 1.368 1_545 S
H987 C995 0.950 . S
H988 C993 0.950 . S
H989 C994 0.949 . S
H990 C996 0.938 1_545 S
H991 C997 0.950 . S
H992 C998 0.949 . S
C993 H988 0.950 . S
C993 C995 1.327 . S
C993 C999 1.429 . S
C994 C986 1.574 . S
C994 H989 0.949 . S
C994 C1000 1.368 1_545 S
C995 C979 1.349 1_565 S
C995 H987 0.950 . S
C995 C993 1.327 . S
C996 C984 1.363 . S
C996 H990 0.938 1_565 S
C996 C997 1.325 1_565 S
C997 H991 0.950 . S
C997 C996 1.325 1_545 S
C997 C1001 1.429 1_545 S
C998 C981 1.574 . S
C998 H992 0.949 . S
C998 C1002 1.368 . S
C999 C980 1.429 1_565 S
C999 C993 1.429 . S
C999 C1000 1.523 . S
C1000 C981 1.368 . S
C1000 C994 1.368 1_565 S
C1000 C999 1.523 . S
C1001 C985 1.429 . S
C1001 C997 1.429 1_565 S
C1001 C1002 1.523 . S
C1002 C986 1.368 1_565 S
C1002 C998 1.368 . S
C1002 C1001 1.523 . S
H1003 C978 0.950 . S
H1004 C980 0.950 . S
H1005 C981 0.949 . S
H1006 C983 0.950 . S
H1007 C985 0.950 . S
C1008 C1009 1.349 . S
C1008 C1010 1.327 . S
C1008 H1033 0.950 . S
C1009 C1008 1.349 . S
C1009 C1025 1.349 . S
C1010 C1008 1.327 . S
C1010 C1029 1.429 . S
C1010 H1034 0.950 . S
C1011 C1028 1.574 . S
C1011 C1030 1.368 . S
C1011 H1035 0.949 . S
H1012 C1016 0.949 1_565 S
C1013 C1014 1.349 . S
C1013 C1015 1.327 . S
C1013 H1036 0.950 . S
C1014 C1013 1.349 . S
C1014 C1026 1.349 . S
C1015 C1013 1.327 . S
C1015 C1031 1.429 . S
C1015 H1037 0.950 . S
C1016 H1012 0.949 1_545 S
C1016 C1024 1.574 . S
C1016 C1032 1.368 1_545 S
H1017 C1025 0.950 . S
H1018 C1023 0.950 . S
H1019 C1024 0.949 . S
H1020 C1026 0.950 . S
H1021 C1027 0.950 . S
H1022 C1028 0.949 1_565 S
C1023 H1018 0.950 . S
C1023 C1025 1.327 . S
C1023 C1029 1.429 . S
C1024 C1016 1.574 . S
C1024 H1019 0.949 . S
C1024 C1030 1.368 . S
C1025 C1009 1.349 . S
C1025 H1017 0.950 . S
C1025 C1023 1.327 . S
C1026 C1014 1.349 . S
C1026 H1020 0.950 . S
C1026 C1027 1.327 . S
C1027 H1021 0.950 . S
C1027 C1026 1.327 . S
C1027 C1031 1.429 . S
C1028 C1011 1.574 . S
C1028 H1022 0.949 1_545 S
C1028 C1032 1.368 1_545 S
C1029 C1010 1.429 . S
C1029 C1023 1.429 . S
C1029 C1030 1.523 . S
C1030 C1011 1.368 . S
C1030 C1024 1.368 . S
C1030 C1029 1.523 . S
C1031 C1015 1.429 . S
C1031 C1027 1.429 . S
C1031 C1032 1.523 . S
C1032 C1016 1.368 1_565 S
C1032 C1028 1.368 1_565 S
C1032 C1031 1.523 . S
H1033 C1008 0.950 . S
H1034 C1010 0.950 . S
H1035 C1011 0.949 . S
H1036 C1013 0.950 . S
H1037 C1015 0.950 . S
C1038 C1039 1.349 . S
C1038 C1040 1.327 . S
C1038 H1063 0.950 . S
C1039 C1038 1.349 . S
C1039 C1055 1.349 . S
C1040 C1038 1.327 . S
C1040 C1059 1.429 . S
C1040 H1064 0.950 . S
C1041 C1058 1.574 . S
C1041 C1060 1.368 . S
C1041 H1065 0.949 . S
H1042 C1046 0.949 . S
C1043 C1044 1.349 . S
C1043 C1045 1.327 . S
C1043 H1066 0.950 . S
C1044 C1043 1.349 . S
C1044 C1056 1.349 . S
C1045 C1043 1.327 . S
C1045 C1061 1.429 . S
C1045 H1067 0.950 . S
C1046 H1042 0.949 . S
C1046 C1054 1.574 . S
C1046 C1062 1.368 . S
H1047 C1055 0.950 . S
H1048 C1053 0.950 . S
H1049 C1054 0.949 . S
H1050 C1056 0.950 . S
H1051 C1057 0.950 . S
H1052 C1058 0.949 . S
C1053 H1048 0.950 . S
C1053 C1055 1.327 . S
C1053 C1059 1.429 . S
C1054 C1046 1.574 . S
C1054 H1049 0.949 . S
C1054 C1060 1.368 . S
C1055 C1039 1.349 . S
C1055 H1047 0.950 . S
C1055 C1053 1.327 . S
C1056 C1044 1.349 . S
C1056 H1050 0.950 . S
C1056 C1057 1.327 . S
C1057 H1051 0.950 . S
C1057 C1056 1.327 . S
C1057 C1061 1.429 . S
C1058 C1041 1.574 . S
C1058 H1052 0.949 . S
C1058 C1062 1.368 . S
C1059 C1040 1.429 . S
C1059 C1053 1.429 . S
C1059 C1060 1.523 . S
C1060 C1041 1.368 . S
C1060 C1054 1.368 . S
C1060 C1059 1.523 . S
C1061 C1045 1.429 . S
C1061 C1057 1.429 . S
C1061 C1062 1.523 . S
C1062 C1046 1.368 . S
C1062 C1058 1.368 . S
C1062 C1061 1.523 . S
H1063 C1038 0.950 . S
H1064 C1040 0.950 . S
H1065 C1041 0.949 . S
H1066 C1043 0.950 . S
H1067 C1045 0.950 . S
C1068 C1069 1.349 . S
C1068 C1070 1.327 1_455 S
C1068 H1093 0.950 1_455 S
C1069 C1068 1.349 . S
C1069 C1085 1.349 . S
C1070 C1068 1.327 1_655 S
C1070 C1089 1.430 1_655 S
C1070 H1094 0.948 . S
C1071 C1088 1.574 . S
C1071 C1090 1.368 . S
C1071 H1095 0.949 . S
H1072 C1076 0.949 . S
C1073 C1074 1.349 1_455 S
C1073 C1075 1.327 . S
C1073 H1096 0.950 . S
C1074 C1073 1.349 1_655 S
C1074 C1086 1.349 . S
C1075 C1073 1.327 . S
C1075 C1091 1.429 . S
C1075 H1097 0.950 . S
C1076 H1072 0.949 . S
C1076 C1084 1.574 . S
C1076 C1092 1.368 1_655 S
H1077 C1085 0.950 . S
H1078 C1083 0.950 . S
H1079 C1084 0.949 . S
H1080 C1086 0.950 . S
H1081 C1087 0.950 . S
H1082 C1088 0.949 . S
C1083 H1078 0.950 . S
C1083 C1085 1.327 . S
C1083 C1089 1.429 . S
C1084 C1076 1.574 . S
C1084 H1079 0.949 . S
C1084 C1090 1.368 1_655 S
C1085 C1069 1.349 . S
C1085 H1077 0.950 . S
C1085 C1083 1.327 . S
C1086 C1074 1.349 . S
C1086 H1080 0.950 . S
C1086 C1087 1.327 . S
C1087 H1081 0.950 . S
C1087 C1086 1.327 . S
C1087 C1091 1.429 1_655 S
C1088 C1071 1.574 . S
C1088 H1082 0.949 . S
C1088 C1092 1.368 . S
C1089 C1070 1.430 1_455 S
C1089 C1083 1.429 . S
C1089 C1090 1.523 . S
C1090 C1071 1.368 . S
C1090 C1084 1.368 1_455 S
C1090 C1089 1.523 . S
C1091 C1075 1.429 . S
C1091 C1087 1.429 1_455 S
C1091 C1092 1.523 . S
C1092 C1076 1.368 1_455 S
C1092 C1088 1.368 . S
C1092 C1091 1.523 . S
H1093 C1068 0.950 1_655 S
H1094 C1070 0.948 . S
H1095 C1071 0.949 . S
H1096 C1073 0.950 . S
H1097 C1075 0.950 . S
C1098 C1099 1.349 . S
C1098 C1100 1.327 . S
C1098 H1123 0.950 . S
C1099 C1098 1.349 . S
C1099 C1115 1.349 1_565 S
C1100 C1098 1.327 . S
C1100 C1119 1.429 1_565 S
C1100 H1124 0.950 . S
C1101 C1118 1.574 . S
C1101 C1120 1.368 1_455 S
C1101 H1125 0.949 1_455 S
H1102 C1106 0.949 . S
C1103 C1104 1.349 . S
C1103 C1105 1.327 . S
C1103 H1126 0.950 . S
C1104 C1103 1.349 . S
C1104 C1116 1.349 . S
C1105 C1103 1.327 . S
C1105 C1121 1.429 . S
C1105 H1127 0.950 . S
C1106 H1102 0.949 . S
C1106 C1114 1.574 . S
C1106 C1122 1.368 1_565 S
H1107 C1115 0.950 . S
H1108 C1113 0.950 . S
H1109 C1114 0.949 . S
H1110 C1116 0.950 1_565 S
H1111 C1117 0.950 1_565 S
H1112 C1118 0.949 . S
C1113 H1108 0.950 . S
C1113 C1115 1.327 . S
C1113 C1119 1.429 . S
C1114 C1106 1.574 . S
C1114 H1109 0.949 . S
C1114 C1120 1.368 1_465 S
C1115 C1099 1.349 1_545 S
C1115 H1107 0.950 . S
C1115 C1113 1.327 . S
C1116 C1104 1.349 . S
C1116 H1110 0.950 1_545 S
C1116 C1117 1.327 . S
C1117 H1111 0.950 1_545 S
C1117 C1116 1.327 . S
C1117 C1121 1.429 . S
C1118 C1101 1.574 . S
C1118 H1112 0.949 . S
C1118 C1122 1.368 . S
C1119 C1100 1.429 1_545 S
C1119 C1113 1.429 . S
C1119 C1120 1.523 . S
C1120 C1101 1.368 1_655 S
C1120 C1114 1.368 1_645 S
C1120 C1119 1.523 . S
C1121 C1105 1.429 . S
C1121 C1117 1.429 . S
C1121 C1122 1.523 . S
C1122 C1106 1.368 1_545 S
C1122 C1118 1.368 . S
C1122 C1121 1.523 . S
H1123 C1098 0.950 . S
H1124 C1100 0.950 . S
H1125 C1101 0.949 1_655 S
H1126 C1103 0.950 . S
H1127 C1105 0.950 . S
C1128 C1129 1.349 . S
C1128 C1130 1.327 . S
C1128 H1153 0.950 . S
C1129 C1128 1.349 . S
C1129 C1145 1.349 . S
C1130 C1128 1.327 . S
C1130 C1149 1.429 . S
C1130 H1154 0.950 . S
C1131 C1148 1.574 . S
C1131 C1150 1.368 . S
C1131 H1155 0.949 . S
H1132 C1136 0.949 . S
C1133 C1134 1.349 . S
C1133 C1135 1.327 . S
C1133 H1156 0.950 . S
C1134 C1133 1.349 . S
C1134 C1146 1.349 . S
C1135 C1133 1.327 . S
C1135 C1151 1.429 . S
C1135 H1157 0.950 . S
C1136 H1132 0.949 . S
C1136 C1144 1.574 . S
C1136 C1152 1.368 . S
H1137 C1145 0.950 . S
H1138 C1143 0.950 . S
H1139 C1144 0.949 . S
H1140 C1146 0.950 . S
H1141 C1147 0.950 . S
H1142 C1148 0.949 . S
C1143 H1138 0.950 . S
C1143 C1145 1.327 . S
C1143 C1149 1.429 . S
C1144 C1136 1.574 . S
C1144 H1139 0.949 . S
C1144 C1150 1.368 . S
C1145 C1129 1.349 . S
C1145 H1137 0.950 . S
C1145 C1143 1.327 . S
C1146 C1134 1.349 . S
C1146 H1140 0.950 . S
C1146 C1147 1.327 . S
C1147 H1141 0.950 . S
C1147 C1146 1.327 . S
C1147 C1151 1.429 . S
C1148 C1131 1.574 . S
C1148 H1142 0.949 . S
C1148 C1152 1.368 . S
C1149 C1130 1.429 . S
C1149 C1143 1.429 . S
C1149 C1150 1.523 . S
C1150 C1131 1.368 . S
C1150 C1144 1.368 . S
C1150 C1149 1.523 . S
C1151 C1135 1.429 . S
C1151 C1147 1.429 . S
C1151 C1152 1.523 . S
C1152 C1136 1.368 . S
C1152 C1148 1.368 . S
C1152 C1151 1.523 . S
H1153 C1128 0.950 . S
H1154 C1130 0.950 . S
H1155 C1131 0.949 . S
H1156 C1133 0.950 . S
H1157 C1135 0.950 . S
C1158 C1159 1.349 . S
C1158 C1160 1.327 . S
C1158 H1183 0.950 . S
C1159 C1158 1.349 . S
C1159 C1175 1.349 . S
C1160 C1158 1.327 . S
C1160 C1179 1.429 . S
C1160 H1184 0.950 . S
C1161 C1178 1.574 . S
C1161 C1180 1.368 . S
C1161 H1185 0.949 . S
H1162 C1166 0.949 1_655 S
C1163 C1164 1.349 . S
C1163 C1165 1.327 . S
C1163 H1186 0.950 . S
C1164 C1163 1.349 . S
C1164 C1176 1.349 . S
C1165 C1163 1.327 . S
C1165 C1181 1.429 . S
C1165 H1187 0.950 . S
C1166 H1162 0.949 1_455 S
C1166 C1174 1.574 . S
C1166 C1182 1.368 1_455 S
H1167 C1175 0.950 . S
H1168 C1173 0.950 . S
H1169 C1174 0.949 . S
H1170 C1176 0.950 . S
H1171 C1177 0.950 . S
H1172 C1178 0.949 1_655 S
C1173 H1168 0.950 . S
C1173 C1175 1.327 . S
C1173 C1179 1.429 . S
C1174 C1166 1.574 . S
C1174 H1169 0.949 . S
C1174 C1180 1.368 . S
C1175 C1159 1.349 . S
C1175 H1167 0.950 . S
C1175 C1173 1.327 . S
C1176 C1164 1.349 . S
C1176 H1170 0.950 . S
C1176 C1177 1.327 . S
C1177 H1171 0.950 . S
C1177 C1176 1.327 . S
C1177 C1181 1.429 . S
C1178 C1161 1.574 . S
C1178 H1172 0.949 1_455 S
C1178 C1182 1.368 1_455 S
C1179 C1160 1.429 . S
C1179 C1173 1.429 . S
C1179 C1180 1.523 . S
C1180 C1161 1.368 . S
C1180 C1174 1.368 . S
C1180 C1179 1.523 . S
C1181 C1165 1.429 . S
C1181 C1177 1.429 . S
C1181 C1182 1.523 . S
C1182 C1166 1.368 1_655 S
C1182 C1178 1.368 1_655 S
C1182 C1181 1.523 . S
H1183 C1158 0.950 . S
H1184 C1160 0.950 . S
H1185 C1161 0.949 . S
H1186 C1163 0.950 . S
H1187 C1165 0.950 . S
C1188 C1189 1.349 1_455 S
C1188 C1190 1.327 . S
C1188 H1213 0.950 . S
C1189 C1188 1.349 1_655 S
C1189 C1205 1.349 . S
C1190 C1188 1.327 . S
C1190 C1209 1.429 . S
C1190 H1214 0.950 . S
C1191 C1208 1.574 . S
C1191 C1210 1.368 1_645 S
C1191 H1215 0.949 . S
H1192 C1196 0.949 . S
C1193 C1194 1.349 . S
C1193 C1195 1.327 . S
C1193 H1216 0.950 1_455 S
C1194 C1193 1.349 . S
C1194 C1206 1.349 . S
C1195 C1193 1.327 . S
C1195 C1211 1.429 . S
C1195 H1217 0.950 1_455 S
C1196 H1192 0.949 . S
C1196 C1204 1.574 . S
C1196 C1212 1.368 . S
H1197 C1205 0.950 . S
H1198 C1203 0.950 . S
H1199 C1204 0.949 1_565 S
H1200 C1206 0.950 . S
H1201 C1207 0.950 . S
H1202 C1208 0.949 . S
C1203 H1198 0.950 . S
C1203 C1205 1.327 . S
C1203 C1209 1.429 1_655 S
C1204 C1196 1.574 . S
C1204 H1199 0.949 1_545 S
C1204 C1210 1.368 1_545 S
C1205 C1189 1.349 . S
C1205 H1197 0.950 . S
C1205 C1203 1.327 . S
C1206 C1194 1.349 . S
C1206 H1200 0.950 . S
C1206 C1207 1.327 . S
C1207 H1201 0.950 . S
C1207 C1206 1.327 . S
C1207 C1211 1.429 . S
C1208 C1191 1.574 . S
C1208 H1202 0.949 . S
C1208 C1212 1.368 1_655 S
C1209 C1190 1.429 . S
C1209 C1203 1.429 1_455 S
C1209 C1210 1.523 . S
C1210 C1191 1.368 1_465 S
C1210 C1204 1.368 1_565 S
C1210 C1209 1.523 . S
C1211 C1195 1.429 . S
C1211 C1207 1.429 . S
C1211 C1212 1.523 . S
C1212 C1196 1.368 . S
C1212 C1208 1.368 1_455 S
C1212 C1211 1.523 . S
H1213 C1188 0.950 . S
H1214 C1190 0.950 . S
H1215 C1191 0.949 . S
H1216 C1193 0.950 1_655 S
H1217 C1195 0.950 1_655 S
C1218 C1219 1.349 . S
C1218 C1220 1.327 . S
C1218 H1243 0.950 . S
C1219 C1218 1.349 . S
C1219 C1235 1.349 1_545 S
C1220 C1218 1.327 . S
C1220 C1239 1.429 . S
C1220 H1244 0.950 . S
C1221 C1238 1.574 . S
C1221 C1240 1.368 1_565 S
C1221 H1245 0.949 . S
H1222 C1226 0.949 . S
C1223 C1224 1.349 . S
C1223 C1225 1.327 . S
C1223 H1246 0.950 . S
C1224 C1223 1.349 . S
C1224 C1236 1.349 1_565 S
C1225 C1223 1.327 . S
C1225 C1241 1.429 1_565 S
C1225 H1247 0.950 . S
C1226 H1222 0.949 . S
C1226 C1234 1.574 . S
C1226 C1242 1.368 . S
H1227 C1235 0.950 . S
H1228 C1233 0.950 . S
H1229 C1234 0.949 . S
H1230 C1236 0.950 . S
H1231 C1237 0.950 . S
H1232 C1238 0.949 . S
C1233 H1228 0.950 . S
C1233 C1235 1.327 . S
C1233 C1239 1.429 1_565 S
C1234 C1226 1.574 . S
C1234 H1229 0.949 . S
C1234 C1240 1.368 . S
C1235 C1219 1.349 1_565 S
C1235 H1227 0.950 . S
C1235 C1233 1.327 . S
C1236 C1224 1.349 1_545 S
C1236 H1230 0.950 . S
C1236 C1237 1.327 . S
C1237 H1231 0.950 . S
C1237 C1236 1.327 . S
C1237 C1241 1.429 . S
C1238 C1221 1.574 . S
C1238 H1232 0.949 . S
C1238 C1242 1.368 1_565 S
C1239 C1220 1.429 . S
C1239 C1233 1.429 1_545 S
C1239 C1240 1.523 . S
C1240 C1221 1.368 1_545 S
C1240 C1234 1.368 . S
C1240 C1239 1.523 . S
C1241 C1225 1.429 1_545 S
C1241 C1237 1.429 . S
C1241 C1242 1.523 . S
C1242 C1226 1.368 . S
C1242 C1238 1.368 1_545 S
C1242 C1241 1.523 . S
H1243 C1218 0.950 . S
H1244 C1220 0.950 . S
H1245 C1221 0.949 . S
H1246 C1223 0.950 . S
H1247 C1225 0.950 . S
C1248 C1249 1.349 . S
C1248 C1250 1.327 . S
C1248 H1273 0.950 . S
C1249 C1248 1.349 . S
C1249 C1265 1.349 . S
C1250 C1248 1.327 . S
C1250 C1269 1.429 . S
C1250 H1274 0.950 . S
C1251 C1268 1.574 . S
C1251 C1270 1.368 . S
C1251 H1275 0.949 . S
H1252 C1256 0.949 . S
C1253 C1254 1.349 . S
C1253 C1255 1.327 . S
C1253 H1276 0.950 . S
C1254 C1253 1.349 . S
C1254 C1266 1.349 . S
C1255 C1253 1.327 . S
C1255 C1271 1.429 . S
C1255 H1277 0.950 . S
C1256 H1252 0.949 . S
C1256 C1264 1.574 . S
C1256 C1272 1.368 . S
H1257 C1265 0.950 . S
H1258 C1263 0.950 . S
H1259 C1264 0.949 . S
H1260 C1266 0.950 . S
H1261 C1267 0.950 . S
H1262 C1268 0.949 . S
C1263 H1258 0.950 . S
C1263 C1265 1.327 . S
C1263 C1269 1.429 . S
C1264 C1256 1.574 . S
C1264 H1259 0.949 . S
C1264 C1270 1.368 . S
C1265 C1249 1.349 . S
C1265 H1257 0.950 . S
C1265 C1263 1.327 . S
C1266 C1254 1.349 . S
C1266 H1260 0.950 . S
C1266 C1267 1.327 . S
C1267 H1261 0.950 . S
C1267 C1266 1.327 . S
C1267 C1271 1.429 . S
C1268 C1251 1.574 . S
C1268 H1262 0.949 . S
C1268 C1272 1.368 . S
C1269 C1250 1.429 . S
C1269 C1263 1.429 . S
C1269 C1270 1.523 . S
C1270 C1251 1.368 . S
C1270 C1264 1.368 . S
C1270 C1269 1.523 . S
C1271 C1255 1.429 . S
C1271 C1267 1.429 . S
C1271 C1272 1.523 . S
C1272 C1256 1.368 . S
C1272 C1268 1.368 . S
C1272 C1271 1.523 . S
H1273 C1248 0.950 . S
H1274 C1250 0.950 . S
H1275 C1251 0.949 . S
H1276 C1253 0.950 . S
H1277 C1255 0.950 . S
C1278 C1279 1.349 . S
C1278 C1280 1.327 . S
C1278 H1303 0.950 . S
C1279 C1278 1.349 . S
C1279 C1295 1.349 . S
C1280 C1278 1.327 . S
C1280 C1299 1.429 . S
C1280 H1304 0.950 . S
C1281 C1298 1.574 . S
C1281 C1300 1.368 . S
C1281 H1305 0.949 . S
H1282 C1286 0.949 . S
C1283 C1284 1.349 . S
C1283 C1285 1.327 . S
C1283 H1306 0.950 . S
C1284 C1283 1.349 . S
C1284 C1296 1.349 . S
C1285 C1283 1.327 . S
C1285 C1301 1.429 . S
C1285 H1307 0.950 . S
C1286 H1282 0.949 . S
C1286 C1294 1.574 . S
C1286 C1302 1.368 . S
H1287 C1295 0.950 . S
H1288 C1293 0.950 . S
H1289 C1294 0.949 . S
H1290 C1296 0.950 . S
H1291 C1297 0.950 . S
H1292 C1298 0.949 . S
C1293 H1288 0.950 . S
C1293 C1295 1.327 . S
C1293 C1299 1.429 . S
C1294 C1286 1.574 . S
C1294 H1289 0.949 . S
C1294 C1300 1.368 . S
C1295 C1279 1.349 . S
C1295 H1287 0.950 . S
C1295 C1293 1.327 . S
C1296 C1284 1.349 . S
C1296 H1290 0.950 . S
C1296 C1297 1.327 . S
C1297 H1291 0.950 . S
C1297 C1296 1.327 . S
C1297 C1301 1.429 . S
C1298 C1281 1.574 . S
C1298 H1292 0.949 . S
C1298 C1302 1.368 . S
C1299 C1280 1.429 . S
C1299 C1293 1.429 . S
C1299 C1300 1.523 . S
C1300 C1281 1.368 . S
C1300 C1294 1.368 . S
C1300 C1299 1.523 . S
C1301 C1285 1.429 . S
C1301 C1297 1.429 . S
C1301 C1302 1.523 . S
C1302 C1286 1.368 . S
C1302 C1298 1.368 . S
C1302 C1301 1.523 . S
H1303 C1278 0.950 . S
H1304 C1280 0.950 . S
H1305 C1281 0.949 . S
H1306 C1283 0.950 . S
H1307 C1285 0.950 . S
C1308 C1309 1.349 . S
C1308 C1310 1.327 . S
C1308 H1333 0.950 . S
C1309 C1308 1.349 . S
C1309 C1325 1.349 . S
C1310 C1308 1.327 . S
C1310 C1329 1.429 . S
C1310 H1334 0.950 . S
C1311 C1328 1.574 . S
C1311 C1330 1.368 . S
C1311 H1335 0.949 . S
H1312 C1316 0.949 . S
C1313 C1314 1.349 . S
C1313 C1315 1.327 . S
C1313 H1336 0.950 . S
C1314 C1313 1.349 . S
C1314 C1326 1.349 . S
C1315 C1313 1.327 . S
C1315 C1331 1.429 . S
C1315 H1337 0.950 . S
C1316 H1312 0.949 . S
C1316 C1324 1.574 . S
C1316 C1332 1.368 . S
H1317 C1325 0.950 . S
H1318 C1323 0.950 . S
H1319 C1324 0.949 . S
H1320 C1326 0.950 . S
H1321 C1327 0.950 . S
H1322 C1328 0.949 . S
C1323 H1318 0.950 . S
C1323 C1325 1.327 . S
C1323 C1329 1.429 . S
C1324 C1316 1.574 . S
C1324 H1319 0.949 . S
C1324 C1330 1.368 . S
C1325 C1309 1.349 . S
C1325 H1317 0.950 . S
C1325 C1323 1.327 . S
C1326 C1314 1.349 . S
C1326 H1320 0.950 . S
C1326 C1327 1.327 . S
C1327 H1321 0.950 . S
C1327 C1326 1.327 . S
C1327 C1331 1.429 . S
C1328 C1311 1.574 . S
C1328 H1322 0.949 . S
C1328 C1332 1.368 . S
C1329 C1310 1.429 . S
C1329 C1323 1.429 . S
C1329 C1330 1.523 . S
C1330 C1311 1.368 . S
C1330 C1324 1.368 . S
C1330 C1329 1.523 . S
C1331 C1315 1.429 . S
C1331 C1327 1.429 . S
C1331 C1332 1.523 . S
C1332 C1316 1.368 . S
C1332 C1328 1.368 . S
C1332 C1331 1.523 . S
H1333 C1308 0.950 . S
H1334 C1310 0.950 . S
H1335 C1311 0.949 . S
H1336 C1313 0.950 . S
H1337 C1315 0.950 . S
C1338 C1339 1.349 . S
C1338 C1340 1.327 . S
C1338 H1363 0.950 . S
C1339 C1338 1.349 . S
C1339 C1355 1.349 . S
C1340 C1338 1.327 . S
C1340 C1359 1.429 . S
C1340 H1364 0.950 . S
C1341 C1358 1.574 . S
C1341 C1360 1.368 . S
C1341 H1365 0.949 . S
H1342 C1346 0.949 . S
C1343 C1344 1.349 . S
C1343 C1345 1.327 . S
C1343 H1366 0.950 . S
C1344 C1343 1.349 . S
C1344 C1356 1.349 . S
C1345 C1343 1.327 . S
C1345 C1361 1.429 . S
C1345 H1367 0.950 . S
C1346 H1342 0.949 . S
C1346 C1354 1.574 . S
C1346 C1362 1.368 . S
H1347 C1355 0.950 . S
H1348 C1353 0.950 . S
H1349 C1354 0.949 . S
H1350 C1356 0.950 . S
H1351 C1357 0.950 . S
H1352 C1358 0.949 . S
C1353 H1348 0.950 . S
C1353 C1355 1.327 . S
C1353 C1359 1.429 . S
C1354 C1346 1.574 . S
C1354 H1349 0.949 . S
C1354 C1360 1.368 . S
C1355 C1339 1.349 . S
C1355 H1347 0.950 . S
C1355 C1353 1.327 . S
C1356 C1344 1.349 . S
C1356 H1350 0.950 . S
C1356 C1357 1.327 . S
C1357 H1351 0.950 . S
C1357 C1356 1.327 . S
C1357 C1361 1.429 . S
C1358 C1341 1.574 . S
C1358 H1352 0.949 . S
C1358 C1362 1.368 . S
C1359 C1340 1.429 . S
C1359 C1353 1.429 . S
C1359 C1360 1.523 . S
C1360 C1341 1.368 . S
C1360 C1354 1.368 . S
C1360 C1359 1.523 . S
C1361 C1345 1.429 . S
C1361 C1357 1.429 . S
C1361 C1362 1.523 . S
C1362 C1346 1.368 . S
C1362 C1358 1.368 . S
C1362 C1361 1.523 . S
H1363 C1338 0.950 . S
H1364 C1340 0.950 . S
H1365 C1341 0.949 . S
H1366 C1343 0.950 . S
H1367 C1345 0.950 . S
C1368 C1369 1.349 . S
C1368 C1370 1.327 . S
C1368 H1393 0.950 . S
C1369 C1368 1.349 . S
C1369 C1385 1.349 . S
C1370 C1368 1.327 . S
C1370 C1389 1.429 . S
C1370 H1394 0.950 . S
C1371 C1388 1.574 . S
C1371 C1390 1.368 . S
C1371 H1395 0.949 . S
H1372 C1376 0.949 . S
C1373 C1374 1.349 . S
C1373 C1375 1.327 . S
C1373 H1396 0.950 . S
C1374 C1373 1.349 . S
C1374 C1386 1.349 . S
C1375 C1373 1.327 . S
C1375 C1391 1.429 . S
C1375 H1397 0.950 . S
C1376 H1372 0.949 . S
C1376 C1384 1.574 . S
C1376 C1392 1.368 . S
H1377 C1385 0.950 . S
H1378 C1383 0.950 . S
H1379 C1384 0.949 . S
H1380 C1386 0.950 . S
H1381 C1387 0.950 . S
H1382 C1388 0.949 . S
C1383 H1378 0.950 . S
C1383 C1385 1.327 . S
C1383 C1389 1.429 . S
C1384 C1376 1.574 . S
C1384 H1379 0.949 . S
C1384 C1390 1.368 . S
C1385 C1369 1.349 . S
C1385 H1377 0.950 . S
C1385 C1383 1.327 . S
C1386 C1374 1.349 . S
C1386 H1380 0.950 . S
C1386 C1387 1.327 . S
C1387 H1381 0.950 . S
C1387 C1386 1.327 . S
C1387 C1391 1.429 . S
C1388 C1371 1.574 . S
C1388 H1382 0.949 . S
C1388 C1392 1.368 . S
C1389 C1370 1.429 . S
C1389 C1383 1.429 . S
C1389 C1390 1.523 . S
C1390 C1371 1.368 . S
C1390 C1384 1.368 . S
C1390 C1389 1.523 . S
C1391 C1375 1.429 . S
C1391 C1387 1.429 . S
C1391 C1392 1.523 . S
C1392 C1376 1.368 . S
C1392 C1388 1.368 . S
C1392 C1391 1.523 . S
H1393 C1368 0.950 . S
H1394 C1370 0.950 . S
H1395 C1371 0.949 . S
H1396 C1373 0.950 . S
H1397 C1375 0.950 . S
C1398 C1399 1.349 . S
C1398 C1400 1.327 . S
C1398 H1423 0.950 . S
C1399 C1398 1.349 . S
C1399 C1415 1.349 . S
C1400 C1398 1.327 . S
C1400 C1419 1.429 . S
C1400 H1424 0.950 . S
C1401 C1418 1.574 . S
C1401 C1420 1.368 . S
C1401 H1425 0.949 . S
H1402 C1406 0.949 . S
C1403 C1404 1.349 . S
C1403 C1405 1.327 . S
C1403 H1426 0.950 . S
C1404 C1403 1.349 . S
C1404 C1416 1.349 . S
C1405 C1403 1.327 . S
C1405 C1421 1.429 . S
C1405 H1427 0.950 . S
C1406 H1402 0.949 . S
C1406 C1414 1.574 . S
C1406 C1422 1.368 . S
H1407 C1415 0.950 . S
H1408 C1413 0.950 . S
H1409 C1414 0.949 . S
H1410 C1416 0.950 . S
H1411 C1417 0.950 . S
H1412 C1418 0.949 . S
C1413 H1408 0.950 . S
C1413 C1415 1.327 . S
C1413 C1419 1.429 . S
C1414 C1406 1.574 . S
C1414 H1409 0.949 . S
C1414 C1420 1.368 . S
C1415 C1399 1.349 . S
C1415 H1407 0.950 . S
C1415 C1413 1.327 . S
C1416 C1404 1.349 . S
C1416 H1410 0.950 . S
C1416 C1417 1.327 . S
C1417 H1411 0.950 . S
C1417 C1416 1.327 . S
C1417 C1421 1.429 . S
C1418 C1401 1.574 . S
C1418 H1412 0.949 . S
C1418 C1422 1.368 . S
C1419 C1400 1.429 . S
C1419 C1413 1.429 . S
C1419 C1420 1.523 . S
C1420 C1401 1.368 . S
C1420 C1414 1.368 . S
C1420 C1419 1.523 . S
C1421 C1405 1.429 . S
C1421 C1417 1.429 . S
C1421 C1422 1.523 . S
C1422 C1406 1.368 . S
C1422 C1418 1.368 . S
C1422 C1421 1.523 . S
H1423 C1398 0.950 . S
H1424 C1400 0.950 . S
H1425 C1401 0.949 . S
H1426 C1403 0.950 . S
H1427 C1405 0.950 . S
C1428 C1429 1.349 . S
C1428 C1430 1.327 . S
C1428 H1453 0.950 . S
C1429 C1428 1.349 . S
C1429 C1445 1.349 . S
C1430 C1428 1.327 . S
C1430 C1449 1.429 . S
C1430 H1454 0.950 . S
C1431 C1448 1.574 . S
C1431 C1450 1.368 . S
C1431 H1455 0.949 . S
H1432 C1436 0.949 . S
C1433 C1434 1.349 . S
C1433 C1435 1.327 . S
C1433 H1456 0.950 . S
C1434 C1433 1.349 . S
C1434 C1446 1.349 . S
C1435 C1433 1.327 . S
C1435 C1451 1.429 . S
C1435 H1457 0.950 . S
C1436 H1432 0.949 . S
C1436 C1444 1.574 . S
C1436 C1452 1.368 . S
H1437 C1445 0.950 . S
H1438 C1443 0.950 . S
H1439 C1444 0.949 . S
H1440 C1446 0.950 . S
H1441 C1447 0.950 . S
H1442 C1448 0.949 . S
C1443 H1438 0.950 . S
C1443 C1445 1.327 . S
C1443 C1449 1.429 . S
C1444 C1436 1.574 . S
C1444 H1439 0.949 . S
C1444 C1450 1.368 . S
C1445 C1429 1.349 . S
C1445 H1437 0.950 . S
C1445 C1443 1.327 . S
C1446 C1434 1.349 . S
C1446 H1440 0.950 . S
C1446 C1447 1.327 . S
C1447 H1441 0.950 . S
C1447 C1446 1.327 . S
C1447 C1451 1.429 . S
C1448 C1431 1.574 . S
C1448 H1442 0.949 . S
C1448 C1452 1.368 . S
C1449 C1430 1.429 . S
C1449 C1443 1.429 . S
C1449 C1450 1.523 . S
C1450 C1431 1.368 . S
C1450 C1444 1.368 . S
C1450 C1449 1.523 . S
C1451 C1435 1.429 . S
C1451 C1447 1.429 . S
C1451 C1452 1.523 . S
C1452 C1436 1.368 . S
C1452 C1448 1.368 . S
C1452 C1451 1.523 . S
H1453 C1428 0.950 . S
H1454 C1430 0.950 . S
H1455 C1431 0.949 . S
H1456 C1433 0.950 . S
H1457 C1435 0.950 . S
C1458 C1459 1.349 . S
C1458 C1460 1.327 . S
C1458 H1483 0.950 . S
C1459 C1458 1.349 . S
C1459 C1475 1.349 . S
C1460 C1458 1.327 . S
C1460 C1479 1.429 . S
C1460 H1484 0.950 . S
C1461 C1478 1.574 . S
C1461 C1480 1.368 . S
C1461 H1485 0.949 . S
H1462 C1466 0.949 . S
C1463 C1464 1.349 . S
C1463 C1465 1.327 . S
C1463 H1486 0.950 . S
C1464 C1463 1.349 . S
C1464 C1476 1.349 . S
C1465 C1463 1.327 . S
C1465 C1481 1.429 . S
C1465 H1487 0.950 . S
C1466 H1462 0.949 . S
C1466 C1474 1.574 . S
C1466 C1482 1.368 . S
H1467 C1475 0.950 . S
H1468 C1473 0.950 . S
H1469 C1474 0.949 . S
H1470 C1476 0.950 . S
H1471 C1477 0.950 . S
H1472 C1478 0.949 . S
C1473 H1468 0.950 . S
C1473 C1475 1.327 . S
C1473 C1479 1.429 . S
C1474 C1466 1.574 . S
C1474 H1469 0.949 . S
C1474 C1480 1.368 . S
C1475 C1459 1.349 . S
C1475 H1467 0.950 . S
C1475 C1473 1.327 . S
C1476 C1464 1.349 . S
C1476 H1470 0.950 . S
C1476 C1477 1.327 . S
C1477 H1471 0.950 . S
C1477 C1476 1.327 . S
C1477 C1481 1.429 . S
C1478 C1461 1.574 . S
C1478 H1472 0.949 . S
C1478 C1482 1.368 . S
C1479 C1460 1.429 . S
C1479 C1473 1.429 . S
C1479 C1480 1.523 . S
C1480 C1461 1.368 . S
C1480 C1474 1.368 . S
C1480 C1479 1.523 . S
C1481 C1465 1.429 . S
C1481 C1477 1.429 . S
C1481 C1482 1.523 . S
C1482 C1466 1.368 . S
C1482 C1478 1.368 . S
C1482 C1481 1.523 . S
H1483 C1458 0.950 . S
H1484 C1460 0.950 . S
H1485 C1461 0.949 . S
H1486 C1463 0.950 . S
H1487 C1465 0.950 . S
C1488 C1489 1.349 . S
C1488 C1490 1.327 . S
C1488 H1513 0.950 . S
C1489 C1488 1.349 . S
C1489 C1505 1.349 . S
C1490 C1488 1.327 . S
C1490 C1509 1.429 . S
C1490 H1514 0.950 . S
C1491 C1508 1.574 . S
C1491 C1510 1.368 . S
C1491 H1515 0.949 . S
H1492 C1496 0.949 . S
C1493 C1494 1.349 . S
C1493 C1495 1.327 . S
C1493 H1516 0.950 . S
C1494 C1493 1.349 . S
C1494 C1506 1.349 . S
C1495 C1493 1.327 . S
C1495 C1511 1.429 . S
C1495 H1517 0.950 . S
C1496 H1492 0.949 . S
C1496 C1504 1.574 . S
C1496 C1512 1.368 . S
H1497 C1505 0.950 . S
H1498 C1503 0.950 . S
H1499 C1504 0.949 . S
H1500 C1506 0.950 . S
H1501 C1507 0.950 . S
H1502 C1508 0.949 . S
C1503 H1498 0.950 . S
C1503 C1505 1.327 . S
C1503 C1509 1.429 . S
C1504 C1496 1.574 . S
C1504 H1499 0.949 . S
C1504 C1510 1.368 . S
C1505 C1489 1.349 . S
C1505 H1497 0.950 . S
C1505 C1503 1.327 . S
C1506 C1494 1.349 . S
C1506 H1500 0.950 . S
C1506 C1507 1.327 . S
C1507 H1501 0.950 . S
C1507 C1506 1.327 . S
C1507 C1511 1.429 . S
C1508 C1491 1.574 . S
C1508 H1502 0.949 . S
C1508 C1512 1.368 . S
C1509 C1490 1.429 . S
C1509 C1503 1.429 . S
C1509 C1510 1.523 . S
C1510 C1491 1.368 . S
C1510 C1504 1.368 . S
C1510 C1509 1.523 . S
C1511 C1495 1.429 . S
C1511 C1507 1.429 . S
C1511 C1512 1.523 . S
C1512 C1496 1.368 . S
C1512 C1508 1.368 . S
C1512 C1511 1.523 . S
H1513 C1488 0.950 . S
H1514 C1490 0.950 . S
H1515 C1491 0.949 . S
H1516 C1493 0.950 . S
H1517 C1495 0.950 . S
C1518 C1519 1.349 . S
C1518 C1520 1.327 . S
C1518 H1543 0.950 . S
C1519 C1518 1.349 . S
C1519 C1535 1.349 . S
C1520 C1518 1.327 . S
C1520 C1539 1.429 . S
C1520 H1544 0.950 . S
C1521 C1538 1.574 . S
C1521 C1540 1.368 . S
C1521 H1545 0.949 . S
H1522 C1526 0.949 . S
C1523 C1524 1.349 . S
C1523 C1525 1.327 . S
C1523 H1546 0.950 . S
C1524 C1523 1.349 . S
C1524 C1536 1.349 . S
C1525 C1523 1.327 . S
C1525 C1541 1.429 . S
C1525 H1547 0.950 . S
C1526 H1522 0.949 . S
C1526 C1534 1.574 . S
C1526 C1542 1.368 . S
H1527 C1535 0.950 . S
H1528 C1533 0.950 . S
H1529 C1534 0.949 . S
H1530 C1536 0.950 . S
H1531 C1537 0.950 . S
H1532 C1538 0.949 . S
C1533 H1528 0.950 . S
C1533 C1535 1.327 . S
C1533 C1539 1.429 . S
C1534 C1526 1.574 . S
C1534 H1529 0.949 . S
C1534 C1540 1.368 . S
C1535 C1519 1.349 . S
C1535 H1527 0.950 . S
C1535 C1533 1.327 . S
C1536 C1524 1.349 . S
C1536 H1530 0.950 . S
C1536 C1537 1.327 . S
C1537 H1531 0.950 . S
C1537 C1536 1.327 . S
C1537 C1541 1.429 . S
C1538 C1521 1.574 . S
C1538 H1532 0.949 . S
C1538 C1542 1.368 . S
C1539 C1520 1.429 . S
C1539 C1533 1.429 . S
C1539 C1540 1.523 . S
C1540 C1521 1.368 . S
C1540 C1534 1.368 . S
C1540 C1539 1.523 . S
C1541 C1525 1.429 . S
C1541 C1537 1.429 . S
C1541 C1542 1.523 . S
C1542 C1526 1.368 . S
C1542 C1538 1.368 . S
C1542 C1541 1.523 . S
H1543 C1518 0.950 . S
H1544 C1520 0.950 . S
H1545 C1521 0.949 . S
H1546 C1523 0.950 . S
H1547 C1525 0.950 . S
C1548 C1549 1.349 . S
C1548 C1550 1.327 . S
C1548 H1573 0.950 . S
C1549 C1548 1.349 . S
C1549 C1565 1.349 . S
C1550 C1548 1.327 . S
C1550 C1569 1.429 . S
C1550 H1574 0.950 . S
C1551 C1568 1.574 . S
C1551 C1570 1.368 . S
C1551 H1575 0.949 . S
H1552 C1556 0.949 . S
C1553 C1554 1.349 . S
C1553 C1555 1.327 . S
C1553 H1576 0.950 . S
C1554 C1553 1.349 . S
C1554 C1566 1.349 . S
C1555 C1553 1.327 . S
C1555 C1571 1.429 . S
C1555 H1577 0.950 . S
C1556 H1552 0.949 . S
C1556 C1564 1.574 . S
C1556 C1572 1.368 . S
H1557 C1565 0.950 . S
H1558 C1563 0.950 . S
H1559 C1564 0.949 . S
H1560 C1566 0.950 . S
H1561 C1567 0.950 . S
H1562 C1568 0.949 . S
C1563 H1558 0.950 . S
C1563 C1565 1.327 . S
C1563 C1569 1.429 . S
C1564 C1556 1.574 . S
C1564 H1559 0.949 . S
C1564 C1570 1.368 . S
C1565 C1549 1.349 . S
C1565 H1557 0.950 . S
C1565 C1563 1.327 . S
C1566 C1554 1.349 . S
C1566 H1560 0.950 . S
C1566 C1567 1.327 . S
C1567 H1561 0.950 . S
C1567 C1566 1.327 . S
C1567 C1571 1.429 . S
C1568 C1551 1.574 . S
C1568 H1562 0.949 . S
C1568 C1572 1.368 . S
C1569 C1550 1.429 . S
C1569 C1563 1.429 . S
C1569 C1570 1.523 . S
C1570 C1551 1.368 . S
C1570 C1564 1.368 . S
C1570 C1569 1.523 . S
C1571 C1555 1.429 . S
C1571 C1567 1.429 . S
C1571 C1572 1.523 . S
C1572 C1556 1.368 . S
C1572 C1568 1.368 . S
C1572 C1571 1.523 . S
H1573 C1548 0.950 . S
H1574 C1550 0.950 . S
H1575 C1551 0.949 . S
H1576 C1553 0.950 . S
H1577 C1555 0.950 . S
C1578 C1579 1.349 . S
C1578 C1580 1.327 . S
C1578 H1603 0.950 . S
C1579 C1578 1.349 . S
C1579 C1595 1.349 . S
C1580 C1578 1.327 . S
C1580 C1599 1.429 . S
C1580 H1604 0.950 . S
C1581 C1598 1.574 . S
C1581 C1600 1.368 . S
C1581 H1605 0.949 . S
H1582 C1586 0.949 . S
C1583 C1584 1.349 . S
C1583 C1585 1.327 . S
C1583 H1606 0.950 . S
C1584 C1583 1.349 . S
C1584 C1596 1.349 . S
C1585 C1583 1.327 . S
C1585 C1601 1.429 . S
C1585 H1607 0.950 . S
C1586 H1582 0.949 . S
C1586 C1594 1.574 . S
C1586 C1602 1.368 . S
H1587 C1595 0.950 . S
H1588 C1593 0.950 . S
H1589 C1594 0.949 . S
H1590 C1596 0.950 . S
H1591 C1597 0.950 . S
H1592 C1598 0.949 . S
C1593 H1588 0.950 . S
C1593 C1595 1.327 . S
C1593 C1599 1.429 . S
C1594 C1586 1.574 . S
C1594 H1589 0.949 . S
C1594 C1600 1.368 . S
C1595 C1579 1.349 . S
C1595 H1587 0.950 . S
C1595 C1593 1.327 . S
C1596 C1584 1.349 . S
C1596 H1590 0.950 . S
C1596 C1597 1.327 . S
C1597 H1591 0.950 . S
C1597 C1596 1.327 . S
C1597 C1601 1.429 . S
C1598 C1581 1.574 . S
C1598 H1592 0.949 . S
C1598 C1602 1.368 . S
C1599 C1580 1.429 . S
C1599 C1593 1.429 . S
C1599 C1600 1.523 . S
C1600 C1581 1.368 . S
C1600 C1594 1.368 . S
C1600 C1599 1.523 . S
C1601 C1585 1.429 . S
C1601 C1597 1.429 . S
C1601 C1602 1.523 . S
C1602 C1586 1.368 . S
C1602 C1598 1.368 . S
C1602 C1601 1.523 . S
H1603 C1578 0.950 . S
H1604 C1580 0.950 . S
H1605 C1581 0.949 . S
H1606 C1583 0.950 . S
H1607 C1585 0.950 . S
C1608 C1609 1.349 . S
C1608 C1610 1.327 . S
C1608 H1633 0.950 . S
C1609 C1608 1.349 . S
C1609 C1625 1.349 . S
C1610 C1608 1.327 . S
C1610 C1629 1.429 . S
C1610 H1634 0.950 . S
C1611 C1628 1.574 . S
C1611 C1630 1.368 . S
C1611 H1635 0.949 . S
H1612 C1616 0.949 . S
C1613 C1614 1.349 . S
C1613 C1615 1.327 . S
C1613 H1636 0.950 . S
C1614 C1613 1.349 . S
C1614 C1626 1.349 . S
C1615 C1613 1.327 . S
C1615 C1631 1.429 . S
C1615 H1637 0.950 . S
C1616 H1612 0.949 . S
C1616 C1624 1.574 . S
C1616 C1632 1.368 . S
H1617 C1625 0.950 . S
H1618 C1623 0.950 . S
H1619 C1624 0.949 . S
H1620 C1626 0.950 . S
H1621 C1627 0.950 . S
H1622 C1628 0.949 . S
C1623 H1618 0.950 . S
C1623 C1625 1.327 . S
C1623 C1629 1.429 . S
C1624 C1616 1.574 . S
C1624 H1619 0.949 . S
C1624 C1630 1.368 . S
C1625 C1609 1.349 . S
C1625 H1617 0.950 . S
C1625 C1623 1.327 . S
C1626 C1614 1.349 . S
C1626 H1620 0.950 . S
C1626 C1627 1.327 . S
C1627 H1621 0.950 . S
C1627 C1626 1.327 . S
C1627 C1631 1.429 . S
C1628 C1611 1.574 . S
C1628 H1622 0.949 . S
C1628 C1632 1.368 . S
C1629 C1610 1.429 . S
C1629 C1623 1.429 . S
C1629 C1630 1.523 . S
C1630 C1611 1.368 . S
C1630 C1624 1.368 . S
C1630 C1629 1.523 . S
C1631 C1615 1.429 . S
C1631 C1627 1.429 . S
C1631 C1632 1.523 . S
C1632 C1616 1.368 . S
C1632 C1628 1.368 . S
C1632 C1631 1.523 . S
H1633 C1608 0.950 . S
H1634 C1610 0.950 . S
H1635 C1611 0.949 . S
H1636 C1613 0.950 . S
H1637 C1615 0.950 . S
C1638 C1639 1.349 . S
C1638 C1640 1.327 . S
C1638 H1663 0.950 . S
C1639 C1638 1.349 . S
C1639 C1655 1.349 . S
C1640 C1638 1.327 . S
C1640 C1659 1.429 . S
C1640 H1664 0.950 . S
C1641 C1658 1.574 . S
C1641 C1660 1.368 . S
C1641 H1665 0.949 . S
H1642 C1646 0.949 . S
C1643 C1644 1.349 . S
C1643 C1645 1.327 . S
C1643 H1666 0.950 . S
C1644 C1643 1.349 . S
C1644 C1656 1.349 . S
C1645 C1643 1.327 . S
C1645 C1661 1.429 . S
C1645 H1667 0.950 . S
C1646 H1642 0.949 . S
C1646 C1654 1.574 . S
C1646 C1662 1.368 . S
H1647 C1655 0.950 . S
H1648 C1653 0.950 . S
H1649 C1654 0.949 . S
H1650 C1656 0.950 . S
H1651 C1657 0.950 . S
H1652 C1658 0.949 . S
C1653 H1648 0.950 . S
C1653 C1655 1.327 . S
C1653 C1659 1.429 . S
C1654 C1646 1.574 . S
C1654 H1649 0.949 . S
C1654 C1660 1.368 . S
C1655 C1639 1.349 . S
C1655 H1647 0.950 . S
C1655 C1653 1.327 . S
C1656 C1644 1.349 . S
C1656 H1650 0.950 . S
C1656 C1657 1.327 . S
C1657 H1651 0.950 . S
C1657 C1656 1.327 . S
C1657 C1661 1.429 . S
C1658 C1641 1.574 . S
C1658 H1652 0.949 . S
C1658 C1662 1.368 . S
C1659 C1640 1.429 . S
C1659 C1653 1.429 . S
C1659 C1660 1.523 . S
C1660 C1641 1.368 . S
C1660 C1654 1.368 . S
C1660 C1659 1.523 . S
C1661 C1645 1.429 . S
C1661 C1657 1.429 . S
C1661 C1662 1.523 . S
C1662 C1646 1.368 . S
C1662 C1658 1.368 . S
C1662 C1661 1.523 . S
H1663 C1638 0.950 . S
H1664 C1640 0.950 . S
H1665 C1641 0.949 . S
H1666 C1643 0.950 . S
H1667 C1645 0.950 . S
C1668 C1669 1.349 . S
C1668 C1670 1.327 . S
C1668 H1693 0.950 . S
C1669 C1668 1.349 . S
C1669 C1685 1.349 . S
C1670 C1668 1.327 . S
C1670 C1689 1.429 . S
C1670 H1694 0.950 . S
C1671 C1688 1.574 . S
C1671 C1690 1.368 . S
C1671 H1695 0.949 . S
H1672 C1676 0.949 . S
C1673 C1674 1.349 . S
C1673 C1675 1.327 . S
C1673 H1696 0.950 . S
C1674 C1673 1.349 . S
C1674 C1686 1.349 . S
C1675 C1673 1.327 . S
C1675 C1691 1.429 . S
C1675 H1697 0.950 . S
C1676 H1672 0.949 . S
C1676 C1684 1.574 . S
C1676 C1692 1.368 . S
H1677 C1685 0.950 . S
H1678 C1683 0.950 . S
H1679 C1684 0.949 . S
H1680 C1686 0.950 . S
H1681 C1687 0.950 . S
H1682 C1688 0.949 . S
C1683 H1678 0.950 . S
C1683 C1685 1.327 . S
C1683 C1689 1.429 . S
C1684 C1676 1.574 . S
C1684 H1679 0.949 . S
C1684 C1690 1.368 . S
C1685 C1669 1.349 . S
C1685 H1677 0.950 . S
C1685 C1683 1.327 . S
C1686 C1674 1.349 . S
C1686 H1680 0.950 . S
C1686 C1687 1.327 . S
C1687 H1681 0.950 . S
C1687 C1686 1.327 . S
C1687 C1691 1.429 . S
C1688 C1671 1.574 . S
C1688 H1682 0.949 . S
C1688 C1692 1.368 . S
C1689 C1670 1.429 . S
C1689 C1683 1.429 . S
C1689 C1690 1.523 . S
C1690 C1671 1.368 . S
C1690 C1684 1.368 . S
C1690 C1689 1.523 . S
C1691 C1675 1.429 . S
C1691 C1687 1.429 . S
C1691 C1692 1.523 . S
C1692 C1676 1.368 . S
C1692 C1688 1.368 . S
C1692 C1691 1.523 . S
H1693 C1668 0.950 . S
H1694 C1670 0.950 . S
H1695 C1671 0.949 . S
H1696 C1673 0.950 . S
H1697 C1675 0.950 . S
C1698 C1699 1.349 . S
C1698 C1700 1.327 . S
C1698 H1723 0.950 . S
C1699 C1698 1.349 . S
C1699 C1715 1.349 . S
C1700 C1698 1.327 . S
C1700 C1719 1.429 . S
C1700 H1724 0.950 . S
C1701 C1718 1.574 . S
C1701 C1720 1.368 . S
C1701 H1725 0.949 . S
H1702 C1706 0.949 . S
C1703 C1704 1.349 . S
C1703 C1705 1.327 . S
C1703 H1726 0.950 . S
C1704 C1703 1.349 . S
C1704 C1716 1.349 . S
C1705 C1703 1.327 . S
C1705 C1721 1.429 . S
C1705 H1727 0.950 . S
C1706 H1702 0.949 . S
C1706 C1714 1.574 . S
C1706 C1722 1.368 . S
H1707 C1715 0.950 . S
H1708 C1713 0.950 . S
H1709 C1714 0.949 . S
H1710 C1716 0.950 . S
H1711 C1717 0.950 . S
H1712 C1718 0.949 . S
C1713 H1708 0.950 . S
C1713 C1715 1.327 . S
C1713 C1719 1.429 . S
C1714 C1706 1.574 . S
C1714 H1709 0.949 . S
C1714 C1720 1.368 . S
C1715 C1699 1.349 . S
C1715 H1707 0.950 . S
C1715 C1713 1.327 . S
C1716 C1704 1.349 . S
C1716 H1710 0.950 . S
C1716 C1717 1.327 . S
C1717 H1711 0.950 . S
C1717 C1716 1.327 . S
C1717 C1721 1.429 . S
C1718 C1701 1.574 . S
C1718 H1712 0.949 . S
C1718 C1722 1.368 . S
C1719 C1700 1.429 . S
C1719 C1713 1.429 . S
C1719 C1720 1.523 . S
C1720 C1701 1.368 . S
C1720 C1714 1.368 . S
C1720 C1719 1.523 . S
C1721 C1705 1.429 . S
C1721 C1717 1.429 . S
C1721 C1722 1.523 . S
C1722 C1706 1.368 . S
C1722 C1718 1.368 . S
C1722 C1721 1.523 . S
H1723 C1698 0.950 . S
H1724 C1700 0.950 . S
H1725 C1701 0.949 . S
H1726 C1703 0.950 . S
H1727 C1705 0.950 . S
C529 C7 1.388 . S
C534 C139 1.388 . S
C559 C172 1.388 . S
C564 C40 1.388 . S
C589 C205 1.388 . S
C594 C73 1.388 . S
C619 C238 1.388 . S
C624 C106 1.388 . S
C649 C271 1.388 . S
C654 C403 1.388 . S
C679 C304 1.388 . S
C684 C436 1.388 . S
C709 C469 1.388 . S
C714 C337 1.388 . S
C739 C370 1.388 . S
C744 C502 1.388 . S
C769 N398 1.201 . S
C774 N13 1.198 . S
C799 N431 1.201 . S
C804 N46 1.198 . S
C829 N79 1.198 . S
C834 N464 1.201 . S
C859 N497 1.201 . S
C864 N112 1.198 . S
C889 N266 1.201 . S
C894 N145 1.198 . S
C919 N299 1.201 . S
C924 N178 1.198 . S
C949 N211 1.198 . S
C954 N332 1.201 . S
C979 N244 1.198 . S
C984 N365 1.201 . S
C1009 N134 1.201 . S
C1014 N277 1.198 . S
C1039 N167 1.201 . S
C1044 N310 1.198 . S
C1069 N200 1.201 . S
C1074 N343 1.198 . S
C1099 N376 1.198 . S
C1104 N233 1.201 . S
C1129 N2 1.201 . S
C1134 N409 1.198 . S
C1159 N35 1.201 . S
C1164 N442 1.198 . S
C1189 N475 1.198 . S
C1194 N68 1.201 . S
C1219 N101 1.201 . S
C1224 N508 1.198 . S
C1249 C87 1.247 . S
C1254 C21 1.247 . S
C1279 C54 1.247 . S
C1284 C120 1.247 . S
C1309 C219 1.247 . S
C1314 C153 1.247 . S
C1339 C252 1.247 . S
C1344 C186 1.247 . S
C1369 C351 1.247 . S
C1374 C285 1.247 . S
C1399 C384 1.247 . S
C1404 C318 1.247 . S
C1429 C417 1.247 . S
C1434 C483 1.247 . S
C1459 C516 1.247 . S
C1464 C450 1.247 . S
C1489 C249 1.098 . S
C1494 C18 1.098 . S
C1519 C150 1.098 . S
C1524 C51 1.098 . S
C1549 C183 1.098 . S
C1554 C84 1.098 . S
C1579 C216 1.098 . S
C1584 C117 1.098 . S
C1609 C513 1.098 . S
C1614 C282 1.098 . S
C1639 C414 1.098 . S
C1644 C315 1.098 . S
C1669 C447 1.098 . S
C1674 C348 1.098 . S
C1699 C480 1.098 . S
C1704 C381 1.098 . S
