# Generated by pormake.
# Topology tfs, (6)-cn, num edge types: 1
# Building blocks:
#     Node 0, Type 0, BuildingBlock: MIFKUJ_clean_sbu_0, # of connection points: 6
#     Node 1, Type 0, BuildingBlock: MIFKUJ_clean_sbu_0, # of connection points: 6
#     Node 2, Type 0, BuildingBlock: MIFKUJ_clean_sbu_0, # of connection points: 6
#     Node 3, Type 0, BuildingBlock: MIFKUJ_clean_sbu_0, # of connection points: 6
#     Node 4, Type 0, BuildingBlock: MIFKUJ_clean_sbu_0, # of connection points: 6
#     Node 5, Type 0, BuildingBlock: MIFKUJ_clean_sbu_0, # of connection points: 6
#     Edge 6, Type (0, 0), BuildingBlock: MIFKUJ_clean_linker_0, # of connection points: 2
#     Edge 7, Type (0, 0), BuildingBlock: MIFKUJ_clean_linker_0, # of connection points: 2
#     Edge 8, Type (0, 0), BuildingBlock: MIFKUJ_clean_linker_0, # of connection points: 2
#     Edge 9, Type (0, 0), BuildingBlock: MIFKUJ_clean_linker_0, # of connection points: 2
#     Edge 10, Type (0, 0), BuildingBlock: MIFKUJ_clean_linker_0, # of connection points: 2
#     Edge 11, Type (0, 0), BuildingBlock: MIFKUJ_clean_linker_0, # of connection points: 2
#     Edge 12, Type (0, 0), BuildingBlock: MIFKUJ_clean_linker_0, # of connection points: 2
#     Edge 13, Type (0, 0), BuildingBlock: MIFKUJ_clean_linker_0, # of connection points: 2
#     Edge 14, Type (0, 0), BuildingBlock: MIFKUJ_clean_linker_0, # of connection points: 2
#     Edge 15, Type (0, 0), BuildingBlock: MIFKUJ_clean_linker_0, # of connection points: 2
#     Edge 16, Type (0, 0), BuildingBlock: MIFKUJ_clean_linker_0, # of connection points: 2
#     Edge 17, Type (0, 0), BuildingBlock: MIFKUJ_clean_linker_0, # of connection points: 2
#     Edge 18, Type (0, 0), BuildingBlock: MIFKUJ_clean_linker_0, # of connection points: 2
#     Edge 19, Type (0, 0), BuildingBlock: MIFKUJ_clean_linker_0, # of connection points: 2
#     Edge 20, Type (0, 0), BuildingBlock: MIFKUJ_clean_linker_0, # of connection points: 2
#     Edge 21, Type (0, 0), BuildingBlock: MIFKUJ_clean_linker_0, # of connection points: 2
#     Edge 22, Type (0, 0), BuildingBlock: MIFKUJ_clean_linker_0, # of connection points: 2
#     Edge 23, Type (0, 0), BuildingBlock: MIFKUJ_clean_linker_0, # of connection points: 2
# Relax obj value: 0.401
# Max RMSD: 0.242
# Mean RMSD: 0.242
data_MOF--net-tfs--node1-MIFKUJ_clean_sbu_0--edge1-MIFKUJ_clean_linker_0
_symmetry_space_group_name_H-M    P1
_symmetry_Int_Tables_number       1
_symmetry_cell_setting            triclinic
loop_
_symmetry_equiv_pos_as_xyz
'x, y, z'
_cell_length_a     59.214569
_cell_length_b     59.339553
_cell_length_c     18.522165
_cell_angle_alpha  89.914624
_cell_angle_beta   89.975773
_cell_angle_gamma 119.96746
loop_
_atom_site_label
_atom_site_type_symbol
_atom_site_fract_x
_atom_site_fract_y
_atom_site_fract_z
_atom_type_partial_charge
Zn0 Zn 0.21899 0.44657 0.00671 0.0
Zn1 Zn 0.19799 0.37129 0.97252 0.0
C2 C 0.27024 0.4867 0.04418 0.0
O3 O 0.2571 0.48846 0.09897 0.0
C4 C 0.14492 0.32962 0.93964 0.0
O5 O 0.15439 0.31432 0.95464 0.0
O6 O 0.20628 0.47174 0.02865 0.0
O7 O 0.20445 0.43167 0.9092 0.0
O8 O 0.21904 0.4048 0.92172 0.0
C9 C 0.21237 0.4893 0.98096 0.0
O10 O 0.22525 0.48901 0.9235 0.0
O11 O 0.25821 0.46884 -0.00222 0.0
C12 C 0.21217 0.33146 -0.0023 0.0
O13 O 0.19778 0.32675 0.0559 0.0
O14 O 0.21448 0.34903 0.95397 0.0
O15 O 0.19877 0.37859 0.07897 0.0
O16 O 0.20939 0.42029 0.08946 0.0
O17 O 0.16006 0.35414 0.94095 0.0
C18 C 0.20708 0.41331 0.88402 0.0
C19 C 0.20286 0.39812 0.11736 0.0
Zn20 Zn 0.75699 0.20623 0.00228 0.0
Zn21 Zn 0.81575 0.21142 0.97793 0.0
C22 C 0.76592 0.25616 0.04474 0.0
O23 O 0.7475 0.24151 0.09092 0.0
C24 C 0.79786 0.15858 0.91882 0.0
O25 O 0.81519 0.17013 0.86734 0.0
O26 O 0.7187 0.19405 0.01544 0.0
O27 O 0.76228 0.19433 0.90618 0.0
O28 O 0.80211 0.22725 0.90883 0.0
C29 C 0.70582 0.19688 0.96483 0.0
O30 O 0.71711 0.20557 0.90185 0.0
O31 O 0.77453 0.24549 0.00179 0.0
C32 C 0.86636 0.21387 0.97306 0.0
O33 O 0.85352 0.1908 0.00339 0.0
O34 O 0.85423 0.22586 0.95714 0.0
O35 O 0.812 0.21838 0.08061 0.0
O36 O 0.76891 0.19428 0.0884 0.0
O37 O 0.79544 0.17222 0.96779 0.0
C38 C 0.78318 0.20984 0.8733 0.0
C39 C 0.79142 0.20432 0.11697 0.0
Zn40 Zn 0.55685 0.76814 0.95 0.0
Zn41 Zn 0.62637 0.82519 0.97226 0.0
C42 C 0.52348 0.78555 0.00182 0.0
O43 O 0.5218 0.76996 0.05461 0.0
C44 C 0.66667 0.81214 0.97127 0.0
O45 O 0.67211 0.8253 0.91048 0.0
O46 O 0.52644 0.73138 0.95246 0.0
O47 O 0.57751 0.77527 0.85788 0.0
O48 O 0.6161 0.81135 0.8717 0.0
C49 C 0.51868 0.71348 0.90541 0.0
O50 O 0.53182 0.71769 0.84497 0.0
O51 O 0.53953 0.78989 0.95086 0.0
C52 C 0.64439 0.88013 0.00241 0.0
O53 O 0.62466 0.87068 0.04768 0.0
O54 O 0.64873 0.86451 0.96602 0.0
O55 O 0.59627 0.81466 0.03877 0.0
O56 O 0.57598 0.77209 0.04188 0.0
O57 O 0.64796 0.81003 0.0099 0.0
C58 C 0.59923 0.79303 0.83269 0.0
C59 C 0.58997 0.79377 0.07265 0.0
Zn60 Zn 0.78963 0.5512 0.98931 0.0
Zn61 Zn 0.80428 0.62074 0.01295 0.0
C62 C 0.73722 0.52733 0.04737 0.0
O63 O 0.74898 0.52868 0.10868 0.0
C64 C 0.85748 0.66091 0.00937 0.0
O65 O 0.84927 0.66615 0.94914 0.0
O66 O 0.79264 0.51884 0.98752 0.0
O67 O 0.80419 0.57202 0.89794 0.0
O68 O 0.80725 0.61089 0.91105 0.0
C69 C 0.80988 0.51523 0.95749 0.0
O70 O 0.82879 0.53425 0.92073 0.0
O71 O 0.75085 0.53721 0.99086 0.0
C72 C 0.79229 0.66032 0.05898 0.0
O73 O 0.80992 0.66465 0.10838 0.0
O74 O 0.78672 0.64253 0.01251 0.0
O75 O 0.78521 0.59059 0.07893 0.0
O76 O 0.80658 0.56939 0.08091 0.0
O77 O 0.84123 0.64224 0.04868 0.0
C78 C 0.80853 0.5938 0.87246 0.0
C79 C 0.8 0.58427 0.11174 0.0
Zn80 Zn 0.23967 0.78221 0.99056 0.0
Zn81 Zn 0.18757 0.80733 0.02687 0.0
C82 C 0.21165 0.72776 0.04159 0.0
O83 O 0.20956 0.73735 0.10346 0.0
C84 C 0.20259 0.86044 0.03262 0.0
O85 O 0.18291 0.85152 0.98735 0.0
O86 O 0.2776 0.79532 0.96927 0.0
O87 O 0.22403 0.79439 0.91245 0.0
O88 O 0.19506 0.80785 0.92069 0.0
C89 C 0.28446 0.78505 0.92006 0.0
O90 O 0.26648 0.76705 0.87877 0.0
O91 O 0.22252 0.74298 0.98838 0.0
C92 C 0.13432 0.77563 0.08239 0.0
O93 O 0.14457 0.76506 0.12366 0.0
O94 O 0.14889 0.79371 0.03884 0.0
O95 O 0.19821 0.78449 0.07698 0.0
O96 O 0.23872 0.79463 0.09011 0.0
O97 O 0.20837 0.84447 0.06115 0.0
C98 C 0.21008 0.80277 0.88343 0.0
C99 C 0.21871 0.79443 0.11499 0.0
Zn100 Zn 0.45115 0.24823 0.01829 0.0
Zn101 Zn 0.40108 0.19031 0.0037 0.0
C102 C 0.48574 0.23097 0.07652 0.0
O103 O 0.48403 0.24206 0.13602 0.0
C104 C 0.36278 0.20256 0.94452 0.0
O105 O 0.35698 0.18276 0.90176 0.0
O106 O 0.47703 0.28653 0.02479 0.0
O107 O 0.43352 0.24097 0.92248 0.0
O108 O 0.42693 0.20113 0.9242 0.0
C109 C 0.49204 0.29848 0.97204 0.0
O110 O 0.48967 0.28574 0.91196 0.0
O111 O 0.4726 0.23037 0.02155 0.0
C112 C 0.38189 0.13609 0.03021 0.0
O113 O 0.40421 0.14574 0.06461 0.0
O114 O 0.37624 0.15154 -0.00229 0.0
O115 O 0.41543 0.19736 0.10291 0.0
O116 O 0.42743 0.23897 0.10377 0.0
O117 O 0.38064 0.20902 0.99141 0.0
C118 C 0.42899 0.22045 0.88916 0.0
C119 C 0.41767 0.21713 0.13557 0.0
H120 H 0.37497 0.24889 0.00738 0.0
H121 H 0.34929 0.27074 0.00697 0.0
H122 H 0.29131 0.20981 0.87339 0.0
H123 H 0.31725 0.18812 0.87223 0.0
H124 H 0.29718 0.25518 0.83269 0.0
H125 H 0.2832 0.21016 0.05774 0.0
H126 H 0.29638 0.19797 0.17086 0.0
H127 H 0.33357 0.27734 0.24218 0.0
H128 H 0.32092 0.29007 0.12898 0.0
H129 H 0.20316 0.28598 0.06005 0.0
H130 H 0.22738 0.26307 0.04184 0.0
H131 H 0.27832 0.32241 0.8912 0.0
H132 H 0.2534 0.34473 0.90679 0.0
H133 H 0.2739 0.27533 0.07192 0.0
H134 H 0.30466 0.29935 0.77208 0.0
H135 H 0.28802 0.308 0.65945 0.0
H136 H 0.20954 0.26282 0.73795 0.0
H137 H 0.22567 0.25367 0.85067 0.0
C138 C 0.35682 0.2402 0.97755 0.0
C139 C 0.348 0.21661 0.94046 0.0
C140 C 0.34213 0.2527 0.97745 0.0
C141 C 0.31808 0.24166 0.94138 0.0
C142 C 0.30973 0.21866 0.90188 0.0
C143 C 0.32456 0.20624 0.90141 0.0
C144 C 0.30112 0.25346 0.94787 0.0
C145 C 0.29207 0.2596 0.88495 0.0
C146 C 0.29397 0.25874 0.01605 0.0
C147 C 0.3013 0.2511 0.08463 0.0
C148 C 0.29432 0.22503 0.09738 0.0
C149 C 0.30168 0.21803 0.16152 0.0
C150 C 0.31586 0.23688 0.2136 0.0
C151 C 0.32262 0.26277 0.20175 0.0
C152 C 0.31533 0.26988 0.13764 0.0
C153 C 0.21937 0.29401 0.02251 0.0
C154 C 0.22631 0.31712 0.98472 0.0
C155 C 0.23327 0.28093 0.01226 0.0
C156 C 0.2546 0.2908 0.96461 0.0
C157 C 0.26161 0.31398 0.92698 0.0
C158 C 0.24741 0.32683 0.93624 0.0
C159 C 0.27003 0.27735 0.9567 0.0
C160 C 0.27889 0.27092 0.01949 0.0
C161 C 0.27639 0.2712 0.88843 0.0
C162 C 0.26642 0.27604 0.82008 0.0
C163 C 0.28385 0.29115 0.76513 0.0
C164 C 0.27451 0.29617 0.70133 0.0
C165 C 0.24775 0.28604 0.69165 0.0
C166 C 0.23027 0.27074 0.74562 0.0
C167 C 0.2395 0.26566 0.80951 0.0
H168 H 0.24056 0.28999 0.64229 0.0
H169 H 0.32157 0.23142 0.26319 0.0
H170 H 0.10706 0.27833 0.94221 0.0
H171 H 0.05996 0.2601 0.93577 0.0
H172 H 0.0709 0.33706 0.90641 0.0
H173 H 0.11818 0.35556 0.91405 0.0
H174 H 0.03489 0.31148 0.00596 0.0
H175 H 0.05018 0.2928 0.76688 0.0
H176 H 0.06734 0.27623 0.67218 0.0
H177 H 0.02212 0.19884 0.75728 0.0
H178 H 0.00496 0.21499 0.8532 0.0
H179 H 0.90034 0.26414 0.93223 0.0
H180 H 0.94758 0.28472 0.91587 0.0
H181 H 0.94411 0.21218 0.96747 0.0
H182 H 0.89689 0.19144 0.98419 0.0
H183 H 0.97619 0.23744 0.84907 0.0
H184 H 0.96343 0.25751 0.09265 0.0
H185 H 0.94632 0.27456 0.18619 0.0
H186 H 0.98708 0.35039 0.08892 0.0
H187 H 0.00414 0.33368 0.99412 0.0
C188 C 0.09952 0.29141 0.93357 0.0
C189 C 0.11645 0.31844 0.92877 0.0
C190 C 0.07252 0.28091 0.92958 0.0
C191 C 0.0618 0.29715 0.91999 0.0
C192 C 0.07868 0.32412 0.91381 0.0
C193 C 0.10572 0.33466 0.91793 0.0
C194 C 0.03301 0.28605 0.92033 0.0
C195 C 0.02212 0.29562 0.97061 0.0
C196 C 0.01621 0.26499 0.87531 0.0
C197 C 0.02645 0.25516 0.81764 0.0
C198 C 0.04405 0.27228 0.76578 0.0
C199 C 0.05375 0.26295 0.7118 0.0
C200 C 0.04587 0.23651 0.70881 0.0
C201 C 0.02823 0.21932 0.7597 0.0
C202 C 0.01848 0.22855 0.81385 0.0
C203 C 0.90958 0.2525 0.93977 0.0
C204 C 0.89483 0.22616 0.95993 0.0
C205 C 0.9366 0.26433 0.93056 0.0
C206 C 0.94939 0.25003 0.94098 0.0
C207 C 0.93464 0.22357 0.95917 0.0
C208 C 0.90766 0.21178 0.96901 0.0
C209 C 0.97823 0.26279 0.93492 0.0
C210 C 0.98906 0.25348 0.88377 0.0
C211 C 0.995 0.28419 0.97881 0.0
C212 C 0.98481 0.29427 0.03583 0.0
C213 C 0.96856 0.27777 0.09083 0.0
C214 C 0.9589 0.28738 0.14415 0.0
C215 C 0.96554 0.31352 0.14337 0.0
C216 C 0.98191 0.33013 0.08937 0.0
C217 C 0.99159 0.3206 0.03586 0.0
H218 H 0.95806 0.32093 0.18471 0.0
H219 H 0.0534 0.22933 0.66697 0.0
H220 H 0.75605 0.12937 0.00613 0.0
H221 H 0.73079 0.08208 0.01598 0.0
H222 H 0.77813 0.0752 0.85003 0.0
H223 H 0.80342 0.12269 0.8394 0.0
H224 H 0.72767 0.03936 0.83208 0.0
H225 H 0.78819 0.06791 0.02848 0.0
H226 H 0.81091 0.09419 0.13542 0.0
H227 H 0.73815 0.06218 0.24947 0.0
H228 H 0.71493 0.03597 0.14281 0.0
H229 H 0.68569 0.90628 0.90987 0.0
H230 H 0.71241 0.95333 0.89262 0.0
H231 H 0.66731 0.96565 0.05449 0.0
H232 H 0.64071 0.91869 0.07271 0.0
H233 H 0.71852 0.99861 0.0725 0.0
H234 H 0.65798 0.97089 0.87434 0.0
H235 H 0.63542 0.94492 0.76682 0.0
H236 H 0.70863 0.97538 0.65585 0.0
H237 H 0.73168 1.00127 0.76314 0.0
C238 C 0.7611 0.11783 0.97154 0.0
C239 C 0.78186 0.12982 0.92212 0.0
C240 C 0.74667 0.09076 0.97741 0.0
C241 C 0.75285 0.07505 0.93471 0.0
C242 C 0.77307 0.08691 0.88378 0.0
C243 C 0.78749 0.11406 0.87767 0.0
C244 C 0.73842 0.04631 0.94431 0.0
C245 C 0.726 0.03042 0.88443 0.0
C246 C 0.73585 0.03462 0.01286 0.0
C247 C 0.7498 0.05014 0.07742 0.0
C248 C 0.77701 0.0666 0.07621 0.0
C249 C 0.78998 0.08147 0.13679 0.0
C250 C 0.77597 0.0799 0.19915 0.0
C251 C 0.74897 0.06339 0.20111 0.0
C252 C 0.7359 0.0485 0.14063 0.0
C253 C 0.68146 0.91899 0.9419 0.0
C254 C 0.66097 0.90867 0.99254 0.0
C255 C 0.69669 0.9459 0.93171 0.0
C256 C 0.69169 0.96304 0.97166 0.0
C257 C 0.67151 0.95281 0.02296 0.0
C258 C 0.65627 0.92593 0.03317 0.0
C259 C 0.70751 0.99166 0.96045 0.0
C260 C 0.72026 0.00753 0.02008 0.0
C261 C 0.71042 0.00329 0.89166 0.0
C262 C 0.69658 0.98779 0.82706 0.0
C263 C 0.66929 0.97188 0.82723 0.0
C264 C 0.65641 0.95721 0.76629 0.0
C265 C 0.67059 0.95843 0.70462 0.0
C266 C 0.69767 0.97441 0.7037 0.0
C267 C 0.71066 0.9891 0.76454 0.0
H268 H 0.66058 0.94706 0.65749 0.0
H269 H 0.78605 0.09144 0.24598 0.0
H270 H 0.79837 0.69835 0.15343 0.0
H271 H 0.77678 0.72431 0.15078 0.0
H272 H 0.73551 0.68441 0.95778 0.0
H273 H 0.75667 0.65806 0.96071 0.0
H274 H 0.77804 0.75813 0.05588 0.0
H275 H 0.67593 0.67916 0.95506 0.0
H276 H 0.6468 0.63168 0.96434 0.0
H277 H 0.6829 0.63067 0.16438 0.0
H278 H 0.71199 0.67818 0.15684 0.0
H279 H 0.70756 0.81307 0.90036 0.0
H280 H 0.7291 0.78818 0.92816 0.0
H281 H 0.67955 0.75494 0.11455 0.0
H282 H 0.65763 0.77965 0.08665 0.0
H283 H 0.68197 0.71807 0.03753 0.0
H284 H 0.74313 0.8003 0.13596 0.0
H285 H 0.77202 0.8479 0.13785 0.0
H286 H 0.81725 0.84261 0.96433 0.0
H287 H 0.7884 0.79499 0.9607 0.0
C288 C 0.78463 0.69501 0.11051 0.0
C289 C 0.77919 0.67605 0.05739 0.0
C290 C 0.77236 0.70993 0.109 0.0
C291 C 0.75432 0.70615 0.05455 0.0
C292 C 0.74901 0.68738 0.00109 0.0
C293 C 0.76122 0.6724 0.00266 0.0
C294 C 0.74141 0.72214 0.05281 0.0
C295 C 0.75703 0.74936 0.05202 0.0
C296 C 0.71395 0.71075 0.04946 0.0
C297 C 0.6963 0.68221 0.05499 0.0
C298 C 0.67757 0.66882 0.00119 0.0
C299 C 0.66108 0.6419 0.00611 0.0
C300 C 0.66305 0.62816 0.0648 0.0
C301 C 0.68146 0.64133 0.11882 0.0
C302 C 0.69798 0.66825 0.11419 0.0
C303 C 0.70135 0.80064 0.94765 0.0
C304 C 0.68086 0.79837 0.99129 0.0
C305 C 0.71376 0.78648 0.96361 0.0
C306 C 0.70608 0.76983 0.02374 0.0
C307 C 0.6858 0.76768 0.06788 0.0
C308 C 0.67337 0.7819 0.05201 0.0
C309 C 0.71865 0.75401 0.03867 0.0
C310 C 0.70297 0.72683 0.04181 0.0
C311 C 0.74601 0.76544 0.04567 0.0
C312 C 0.76346 0.79408 0.0477 0.0
C313 C 0.75912 0.8093 0.09783 0.0
C314 C 0.77551 0.83629 0.09928 0.0
C315 C 0.79643 0.84828 0.05115 0.0
C316 C 0.80103 0.8333 0.00155 0.0
C317 C 0.78468 0.8063 -0.00017 0.0
H318 H 0.8091 0.86917 0.05236 0.0
H319 H 0.65028 0.60732 0.06847 0.0
H320 H 0.10565 0.78706 0.98914 0.0
H321 H 0.05856 0.76932 0.98902 0.0
H322 H 0.05151 0.7247 0.18043 0.0
H323 H 0.09861 0.74181 0.17961 0.0
H324 H 0.01571 0.69533 0.08776 0.0
H325 H 0.04457 0.77997 0.18459 0.0
H326 H 0.07058 0.82784 0.18982 0.0
H327 H 0.03778 0.83331 0.98834 0.0
H328 H 0.01183 0.78545 0.98138 0.0
H329 H 0.88129 0.6546 0.12843 0.0
H330 H 0.92808 0.67614 0.15351 0.0
H331 H 0.9439 0.72057 0.95677 0.0
H332 H 0.89726 0.69953 0.93194 0.0
H333 H 0.97479 0.75035 0.06476 0.0
H334 H 0.94905 0.6656 0.96431 0.0
H335 H 0.92294 0.61771 0.95979 0.0
H336 H 0.95 0.6128 0.17111 0.0
H337 H 0.97603 0.6607 0.17722 0.0
C338 C 0.09413 0.77361 0.03154 0.0
C339 C 0.1059 0.76586 0.08441 0.0
C340 C 0.06717 0.76358 0.03165 0.0
C341 C 0.05145 0.74593 0.08534 0.0
C342 C 0.06321 0.73831 0.13852 0.0
C343 C 0.09015 0.74815 0.13804 0.0
C344 C 0.02267 0.73461 0.08403 0.0
C345 C 0.00678 0.70741 0.08414 0.0
C346 C 0.01093 0.75029 0.07801 0.0
C347 C 0.0264 0.7791 0.08222 0.0
C348 C 0.04303 0.79137 0.14115 0.0
C349 C 0.05775 0.81851 0.14446 0.0
C350 C 0.05587 0.8336 0.08938 0.0
C351 C 0.03922 0.82159 0.03095 0.0
C352 C 0.02448 0.79446 0.02734 0.0
C353 C 0.89472 0.66913 0.09083 0.0
C354 C 0.88555 0.67521 0.02788 0.0
C355 C 0.92146 0.68135 0.10513 0.0
C356 C 0.93952 0.6997 0.05648 0.0
C357 C 0.93034 0.70646 0.99501 0.0
C358 C 0.90364 0.69432 0.98079 0.0
C359 C 0.96801 0.71118 0.06768 0.0
C360 C 0.9838 0.73836 0.06929 0.0
C361 C 0.97967 0.69551 0.07551 0.0
C362 C 0.96426 0.66672 0.07151 0.0
C363 C 0.94929 0.65431 0.00999 0.0
C364 C 0.93453 0.62717 0.00711 0.0
C365 C 0.93475 0.61223 0.06521 0.0
C366 C 0.94981 0.6244 0.1262 0.0
C367 C 0.96459 0.65154 0.12938 0.0
H368 H 0.92329 0.59122 0.0629 0.0
H369 H 0.06728 0.85461 0.09203 0.0
H370 H 0.19629 0.89911 0.974 0.0
H371 H 0.22616 0.94589 0.98024 0.0
H372 H 0.27693 0.93321 0.12036 0.0
H373 H 0.24688 0.88615 0.1151 0.0
H374 H 0.27317 0.97566 0.16181 0.0
H375 H 0.29073 0.94355 0.94427 0.0
H376 H 0.27976 0.91958 0.82914 0.0
H377 H 0.25241 0.96896 0.74373 0.0
H378 H 0.26286 0.99299 0.85883 0.0
H379 H 0.38676 0.09868 0.10317 0.0
H380 H 0.35561 0.05207 0.10876 0.0
H381 H 0.30355 0.06253 0.96796 0.0
H382 H 0.33472 0.10925 0.96162 0.0
H383 H 0.3084 0.02104 0.92839 0.0
H384 H 0.29142 0.05347 0.14679 0.0
H385 H 0.30272 0.07731 0.26214 0.0
H386 H 0.32965 0.0274 0.34606 0.0
H387 H 0.31887 0.00349 0.23074 0.0
C388 C 0.21366 0.90621 0.00681 0.0
C389 C 0.21936 0.88885 0.0433 0.0
C390 C 0.23077 0.93299 0.01009 0.0
C391 C 0.25403 0.94301 0.04954 0.0
C392 C 0.25917 0.92587 0.08915 0.0
C393 C 0.24201 0.89899 0.08594 0.0
C394 C 0.27342 0.97123 0.04651 0.0
C395 C 0.28115 0.98554 0.11091 0.0
C396 C 0.28348 0.98419 0.97992 0.0
C397 C 0.27735 0.96991 0.91042 0.0
C398 C 0.2822 0.94918 0.90113 0.0
C399 C 0.27609 0.93559 0.83585 0.0
C400 C 0.26533 0.9427 0.77922 0.0
C401 C 0.26071 0.96345 0.78769 0.0
C402 C 0.26674 0.97707 0.85292 0.0
C403 C 0.36871 0.09111 0.07324 0.0
C404 C 0.36321 0.10773 0.03204 0.0
C405 C 0.35086 0.06445 0.07684 0.0
C406 C 0.32711 0.05386 0.03949 0.0
C407 C 0.32173 0.07031 -0.00261 0.0
C408 C 0.33955 0.09701 0.99392 0.0
C409 C 0.30804 0.02556 0.04362 0.0
C410 C 0.30042 0.0112 0.97934 0.0
C411 C 0.29819 0.01258 0.11033 0.0
C412 C 0.30459 0.02686 0.17983 0.0
C413 C 0.29996 0.04772 0.18961 0.0
C414 C 0.30623 0.06122 0.25503 0.0
C415 C 0.31696 0.05392 0.31132 0.0
C416 C 0.32137 0.03306 0.30236 0.0
C417 C 0.31517 0.01951 0.237 0.0
H418 H 0.32181 0.0644 0.36194 0.0
H419 H 0.26062 0.93216 0.72872 0.0
H420 H 0.18643 0.68911 0.14211 0.0
H421 H 0.17835 0.64447 0.13681 0.0
H422 H 0.21287 0.65931 0.9244 0.0
H423 H 0.22036 0.70359 0.92845 0.0
H424 H 0.17195 0.61182 0.93026 0.0
H425 H 0.24775 0.66343 0.08052 0.0
H426 H 0.27093 0.69168 0.18407 0.0
H427 H 0.21799 0.63269 0.33053 0.0
H428 H 0.19431 0.6042 0.2277 0.0
H429 H 0.2235 0.52915 0.88822 0.0
H430 H 0.21548 0.56522 0.90456 0.0
H431 H 0.17943 0.53392 0.11079 0.0
H432 H 0.18782 0.49767 0.0953 0.0
H433 H 0.21351 0.58531 0.11911 0.0
H434 H 0.14223 0.53095 0.96613 0.0
H435 H 0.12053 0.50297 0.86102 0.0
H436 H 0.16567 0.56708 0.71805 0.0
H437 H 0.18793 0.59537 0.82224 0.0
C438 C 0.19201 0.68277 0.09392 0.0
C439 C 0.20426 0.7 0.03598 0.0
C440 C 0.18747 0.65726 0.09109 0.0
C441 C 0.19542 0.64866 0.03072 0.0
C442 C 0.2066 0.6655 0.97161 0.0
C443 C 0.21094 0.69087 0.97412 0.0
C444 C 0.19348 0.6227 0.02997 0.0
C445 C 0.18111 0.60605 0.97141 0.0
C446 C 0.20477 0.6148 0.08474 0.0
C447 C 0.2191 0.63183 0.14648 0.0
C448 C 0.24096 0.65656 0.13481 0.0
C449 C 0.2542 0.6726 0.19335 0.0
C450 C 0.24588 0.66402 0.26383 0.0
C451 C 0.22437 0.63934 0.27591 0.0
C452 C 0.21105 0.62323 0.21754 0.0
C453 C 0.21369 0.52974 0.93694 0.0
C454 C 0.20625 0.51046 0.99042 0.0
C455 C 0.20897 0.55035 0.94599 0.0
C456 C 0.19648 0.55208 0.00838 0.0
C457 C 0.18896 0.53287 0.06201 0.0
C458 C 0.19371 0.51216 0.05301 0.0
C459 C 0.19258 0.57474 0.01837 0.0
C460 C 0.20387 0.59079 0.07865 0.0
C461 C 0.1804 0.58213 0.96499 0.0
C462 C 0.16685 0.56525 0.90209 0.0
C463 C 0.14765 0.53905 0.91227 0.0
C464 C 0.13523 0.52313 0.85284 0.0
C465 C 0.14175 0.53323 0.7829 0.0
C466 C 0.16065 0.55928 0.77226 0.0
C467 C 0.17314 0.57528 0.8315 0.0
H468 H 0.13212 0.52087 0.73696 0.0
H469 H 0.25615 0.67647 0.30908 0.0
H470 H 0.5003 0.21531 0.95509 0.0
H471 H 0.53495 0.20474 0.94305 0.0
H472 H 0.54948 0.21552 0.17215 0.0
H473 H 0.51516 0.22683 0.18436 0.0
H474 H 0.59379 0.23968 0.10168 0.0
H475 H 0.51986 0.15413 0.09214 0.0
H476 H 0.47695 0.11935 0.05046 0.0
H477 H 0.50712 0.12638 0.83568 0.0
H478 H 0.55013 0.16148 0.87581 0.0
H479 H 0.68256 0.19219 0.096 0.0
H480 H 0.64234 0.19294 0.12046 0.0
H481 H 0.63038 0.1962 0.89194 0.0
H482 H 0.67069 0.19562 0.86688 0.0
H483 H 0.58405 0.16256 0.96992 0.0
H484 H 0.65714 0.25014 0.98002 0.0
H485 H 0.7002 0.28418 0.02324 0.0
H486 H 0.67107 0.2723 0.24047 0.0
H487 H 0.62794 0.23781 0.19871 0.0
C488 C 0.51062 0.21514 0.00317 0.0
C489 C 0.50496 0.22197 0.07071 0.0
C490 C 0.53042 0.20898 -0.00379 0.0
C491 C 0.54473 0.20906 0.05679 0.0
C492 C 0.53874 0.21533 0.1246 0.0
C493 C 0.51905 0.22171 0.13153 0.0
C494 C 0.56677 0.20391 0.04848 0.0
C495 C 0.59149 0.22254 0.0741 0.0
C496 C 0.564 0.18182 0.0112 0.0
C497 C 0.53819 0.16059 0.98691 0.0
C498 C 0.51731 0.14839 0.0359 0.0
C499 C 0.49296 0.1286 0.01257 0.0
C500 C 0.48929 0.1207 0.94044 0.0
C501 C 0.50998 0.13254 0.89152 0.0
C502 C 0.53436 0.15236 0.91456 0.0
C503 C 0.67118 0.19265 0.05084 0.0
C504 C 0.67991 0.194 0.97945 0.0
C505 C 0.64825 0.19316 0.06497 0.0
C506 C 0.63354 0.19487 0.00802 0.0
C507 C 0.64148 0.19489 0.93663 0.0
C508 C 0.66456 0.19465 0.92245 0.0
C509 C 0.61084 0.19833 0.02287 0.0
C510 C 0.58613 0.17948 -0.00177 0.0
C511 C 0.61357 0.22014 0.06134 0.0
C512 C 0.63938 0.24118 0.08634 0.0
C513 C 0.65997 0.25463 0.03709 0.0
C514 C 0.68438 0.27402 0.0613 0.0
C515 C 0.68838 0.28035 0.13457 0.0
C516 C 0.66795 0.26734 0.18374 0.0
C517 C 0.64351 0.24787 0.15983 0.0
H518 H 0.70729 0.29537 0.15321 0.0
H519 H 0.47043 0.10538 0.92247 0.0
H520 H 0.49774 0.66901 0.82353 0.0
H521 H 0.45724 0.62804 0.84603 0.0
H522 H 0.44396 0.66066 0.03849 0.0
H523 H 0.48444 0.70133 0.01722 0.0
H524 H 0.4343 0.61222 0.06337 0.0
H525 H 0.4112 0.65538 0.88258 0.0
H526 H 0.41518 0.67708 0.76585 0.0
H527 H 0.40156 0.60812 0.65359 0.0
H528 H 0.39781 0.58613 0.76986 0.0
H529 H 0.29955 0.52986 0.12616 0.0
H530 H 0.34338 0.56554 0.10139 0.0
H531 H 0.34745 0.52575 0.91137 0.0
H532 H 0.30316 0.49007 0.93498 0.0
H533 H 0.36344 0.57528 0.88147 0.0
H534 H 0.38293 0.531 0.06626 0.0
H535 H 0.37833 0.51012 0.18476 0.0
H536 H 0.39823 0.58188 0.29139 0.0
H537 H 0.40261 0.60311 0.17355 0.0
C538 C 0.48622 0.66743 0.87071 0.0
C539 C 0.49437 0.68845 0.91857 0.0
C540 C 0.46304 0.64403 0.8834 0.0
C541 C 0.44747 0.64132 0.94377 0.0
C542 C 0.4557 0.66223 0.99179 0.0
C543 C 0.47885 0.68552 0.97936 0.0
C544 C 0.42248 0.61685 0.95703 0.0
C545 C 0.41872 0.60424 0.02382 0.0
C546 C 0.40238 0.60609 0.90482 0.0
C547 C 0.4045 0.61922 0.83489 0.0
C548 C 0.40924 0.64492 0.83301 0.0
C549 C 0.41142 0.65726 0.76693 0.0
C550 C 0.4087 0.64401 0.70231 0.0
C551 C 0.40371 0.61837 0.70368 0.0
C552 C 0.40153 0.60595 0.76966 0.0
C553 C 0.30983 0.52848 0.07951 0.0
C554 C 0.29781 0.50706 0.03258 0.0
C555 C 0.33499 0.54891 0.06556 0.0
C556 C 0.3489 0.54825 0.00492 0.0
C557 C 0.33714 0.52668 0.95857 0.0
C558 C 0.31186 0.50625 0.9723 0.0
C559 C 0.37511 0.57072 0.98819 0.0
C560 C 0.37911 0.58302 0.92076 0.0
C561 C 0.39539 0.58128 0.04003 0.0
C562 C 0.39291 0.56859 0.11101 0.0
C563 C 0.38615 0.54228 0.11498 0.0
C564 C 0.38361 0.53039 0.18204 0.0
C565 C 0.38793 0.54465 0.24556 0.0
C566 C 0.39487 0.57085 0.24214 0.0
C567 C 0.39742 0.58283 0.17522 0.0
H568 H 0.38595 0.5354 0.29742 0.0
H569 H 0.4104 0.65359 0.65118 0.0
H570 H 0.84215 0.49932 0.89805 0.0
H571 H 0.83947 0.45697 0.91284 0.0
H572 H 0.77196 0.43127 0.04953 0.0
H573 H 0.77456 0.47333 0.03561 0.0
H574 H 0.80638 0.41854 0.10625 0.0
H575 H 0.76577 0.41233 0.87439 0.0
H576 H 0.76436 0.42599 0.74942 0.0
H577 H 0.82929 0.41623 0.69279 0.0
H578 H 0.83129 0.40283 0.81776 0.0
H579 H 0.74454 0.28231 0.1097 0.0
H580 H 0.75679 0.32778 0.09427 0.0
H581 H 0.8191 0.33923 0.95077 0.0
H582 H 0.80641 0.29329 0.96441 0.0
H583 H 0.79355 0.36139 0.89667 0.0
H584 H 0.83179 0.36351 0.12453 0.0
H585 H 0.83309 0.34914 0.24866 0.0
H586 H 0.77397 0.36677 0.31318 0.0
H587 H 0.77205 0.38092 0.18914 0.0
C588 C 0.82674 0.48464 0.93124 0.0
C589 C 0.80854 0.48972 0.96548 0.0
C590 C 0.82521 0.46044 0.93952 0.0
C591 C 0.80543 0.44091 0.98204 0.0
C592 C 0.78742 0.44606 0.01665 0.0
C593 C 0.78889 0.47013 0.00832 0.0
C594 C 0.80314 0.41496 0.99052 0.0
C595 C 0.80342 0.40597 0.06049 0.0
C596 C 0.80011 0.39889 0.93067 0.0
C597 C 0.79887 0.40688 0.85558 0.0
C598 C 0.77988 0.41331 0.83543 0.0
C599 C 0.77895 0.42096 0.76458 0.0
C600 C 0.79678 0.42206 0.71326 0.0
C601 C 0.81553 0.41542 0.73264 0.0
C602 C 0.81656 0.40779 0.80344 0.0
C603 C 0.76102 0.29451 0.07537 0.0
C604 C 0.77461 0.28421 0.03861 0.0
C605 C 0.76807 0.32058 0.06677 0.0
C606 C 0.78915 0.33708 0.02225 0.0
C607 C 0.80283 0.32689 0.98559 0.0
C608 C 0.79562 0.30068 0.99366 0.0
C609 C 0.79624 0.36473 0.0126 0.0
C610 C 0.79689 0.37406 0.94247 0.0
C611 C 0.80028 0.38119 0.07231 0.0
C612 C 0.80167 0.37313 0.14736 0.0
C613 C 0.81897 0.3642 0.16509 0.0
C614 C 0.81982 0.3561 0.23545 0.0
C615 C 0.80358 0.35699 0.28874 0.0
C616 C 0.78653 0.36608 0.27183 0.0
C617 C 0.78558 0.37419 0.20152 0.0
H618 H 0.80425 0.35068 0.34316 0.0
H619 H 0.79602 0.42798 0.65843 0.0
H620 H 0.32546 0.81781 0.00579 0.0
H621 H 0.36898 0.82292 0.00868 0.0
H622 H 0.34907 0.77035 0.82857 0.0
H623 H 0.30528 0.76477 0.82607 0.0
H624 H 0.36988 0.75658 0.93301 0.0
H625 H 0.3927 0.83578 0.80979 0.0
H626 H 0.39443 0.87764 0.7886 0.0
H627 H 0.43587 0.90733 0.98773 0.0
H628 H 0.43408 0.8655 0.01063 0.0
H629 H 0.51712 0.81254 0.89079 0.0
H630 H 0.47923 0.81782 0.86906 0.0
H631 H 0.44649 0.78124 0.0736 0.0
H632 H 0.48409 0.77577 0.09575 0.0
H633 H 0.45348 0.8403 0.94102 0.0
H634 H 0.38306 0.73624 0.04366 0.0
H635 H 0.3824 0.6946 0.05876 0.0
H636 H 0.43672 0.71446 0.88377 0.0
H637 H 0.43741 0.75606 0.86691 0.0
C638 C 0.33042 0.80762 0.96605 0.0
C639 C 0.31182 0.79076 0.91591 0.0
C640 C 0.35539 0.81065 0.9676 0.0
C641 C 0.36236 0.79711 0.91864 0.0
C642 C 0.34411 0.78096 0.86697 0.0
C643 C 0.3191 0.77785 0.86547 0.0
C644 C 0.38795 0.79831 0.9249 0.0
C645 C 0.38813 0.77491 0.93432 0.0
C646 C 0.41186 0.82218 0.92587 0.0
C647 C 0.41308 0.84742 0.91217 0.0
C648 C 0.40202 0.85116 0.84933 0.0
C649 C 0.40304 0.8749 0.83697 0.0
C650 C 0.41521 0.89511 0.88686 0.0
C651 C 0.42644 0.89165 0.94915 0.0
C652 C 0.42546 0.86794 0.9618 0.0
C653 C 0.50212 0.8061 0.93185 0.0
C654 C 0.50344 0.79338 0.99455 0.0
C655 C 0.48051 0.80918 0.91934 0.0
C656 C 0.45989 0.79949 0.96913 0.0
C657 C 0.46206 0.7885 0.03404 0.0
C658 C 0.48361 0.78545 0.04664 0.0
C659 C 0.43515 0.79868 0.95082 0.0
C660 C 0.43517 0.82205 0.93921 0.0
C661 C 0.41142 0.77477 0.94656 0.0
C662 C 0.41046 0.74938 0.95453 0.0
C663 C 0.39473 0.73165 0.0081 0.0
C664 C 0.39438 0.70807 0.01702 0.0
C665 C 0.4096 0.70194 0.97246 0.0
C666 C 0.42503 0.71929 0.91844 0.0
C667 C 0.42542 0.74288 0.90923 0.0
H668 H 0.40941 0.68375 0.97982 0.0
H669 H 0.41597 0.91348 0.87719 0.0
H670 H 0.70117 0.50902 0.15629 0.0
H671 H 0.6553 0.47518 0.1476 0.0
H672 H 0.66334 0.47217 0.91676 0.0
H673 H 0.70874 0.50668 0.92472 0.0
H674 H 0.61658 0.46319 0.94503 0.0
H675 H 0.67084 0.43035 0.03652 0.0
H676 H 0.70229 0.42849 0.12012 0.0
H677 H 0.64957 0.41288 0.2971 0.0
H678 H 0.61794 0.41497 0.21459 0.0
H679 H 0.52691 0.32991 0.86961 0.0
H680 H 0.56449 0.37338 0.88644 0.0
H681 H 0.54327 0.37218 0.10979 0.0
H682 H 0.50569 0.32861 0.09361 0.0
H683 H 0.59394 0.38507 0.09366 0.0
H684 H 0.5368 0.41192 0.9906 0.0
H685 H 0.50625 0.4119 0.90016 0.0
H686 H 0.56535 0.43648 0.73657 0.0
H687 H 0.59617 0.4363 0.82581 0.0
C688 C 0.69298 0.5015 0.10355 0.0
C689 C 0.70865 0.51026 0.04133 0.0
C690 C 0.66681 0.48207 0.09866 0.0
C691 C 0.65603 0.47059 0.03173 0.0
C692 C 0.6712 0.48058 0.96906 0.0
C693 C 0.69722 0.50032 0.97374 0.0
C694 C 0.62988 0.44684 0.02731 0.0
C695 C 0.61167 0.44607 0.97732 0.0
C696 C 0.62326 0.42454 0.07001 0.0
C697 C 0.64217 0.42312 0.11959 0.0
C698 C 0.66604 0.42669 0.09335 0.0
C699 C 0.68388 0.42557 0.14051 0.0
C700 C 0.67796 0.42065 0.21392 0.0
C701 C 0.65415 0.41675 0.24026 0.0
C702 C 0.63625 0.41788 0.19333 0.0
C703 C 0.53003 0.339 0.92211 0.0
C704 C 0.51336 0.32573 0.98034 0.0
C705 C 0.55145 0.36392 0.93154 0.0
C706 C 0.55658 0.37609 -0.00074 0.0
C707 C 0.53962 0.36316 0.05704 0.0
C708 C 0.51814 0.33827 0.04763 0.0
C709 C 0.58073 0.40136 0.01109 0.0
C710 C 0.59864 0.40233 0.06226 0.0
C711 C 0.58719 0.4236 0.96853 0.0
C712 C 0.56875 0.42392 0.91485 0.0
C713 C 0.54324 0.41715 0.93524 0.0
C714 C 0.52588 0.4172 0.8842 0.0
C715 C 0.53384 0.42414 0.81264 0.0
C716 C 0.55921 0.4311 0.79202 0.0
C717 C 0.57664 0.43106 0.84283 0.0
H718 H 0.52037 0.42416 0.77321 0.0
H719 H 0.6918 0.41979 0.25035 0.0
H720 H 0.20114 0.36917 0.81883 0.0
H721 H 0.19372 0.35817 0.69026 0.0
H722 H 0.19119 0.42855 0.64969 0.0
H723 H 0.19718 0.43882 0.77776 0.0
H724 H 0.15753 0.39282 0.56844 0.0
H725 H 0.24865 0.4217 0.62628 0.0
H726 H 0.28322 0.41845 0.69168 0.0
H727 H 0.25395 0.34096 0.61095 0.0
H728 H 0.21907 0.34371 0.54555 0.0
H729 H 0.2041 0.43299 0.21607 0.0
H730 H 0.19917 0.42784 0.34683 0.0
H731 H 0.19029 0.35135 0.33052 0.0
H732 H 0.19525 0.35628 0.19924 0.0
H733 H 0.22416 0.38073 0.43943 0.0
H734 H 0.13786 0.35569 0.36423 0.0
H735 H 0.10387 0.35966 0.29813 0.0
H736 H 0.12436 0.43046 0.41109 0.0
H737 H 0.15874 0.42713 0.47715 0.0
C738 C 0.19864 0.38206 0.78245 0.0
C739 C 0.19997 0.40497 0.80825 0.0
C740 C 0.19456 0.37585 0.70892 0.0
C741 C 0.19251 0.39284 0.65975 0.0
C742 C 0.19275 0.41512 0.68624 0.0
C743 C 0.19625 0.42102 0.75966 0.0
C744 C 0.19136 0.38847 0.58039 0.0
C745 C 0.1722 0.39031 0.54033 0.0
C746 C 0.20992 0.38427 0.54345 0.0
C747 C 0.23114 0.38282 0.58169 0.0
C748 C 0.24956 0.40395 0.62273 0.0
C749 C 0.26919 0.40219 0.65976 0.0
C750 C 0.27073 0.37948 0.65563 0.0
C751 C 0.25271 0.35852 0.61418 0.0
C752 C 0.23302 0.36018 0.57707 0.0
C753 C 0.20109 0.41504 0.24005 0.0
C754 C 0.2 0.39502 0.19694 0.0
C755 C 0.19814 0.41208 0.31487 0.0
C756 C 0.19406 0.38909 0.34828 0.0
C757 C 0.19331 0.36919 0.30573 0.0
C758 C 0.19609 0.37205 0.23069 0.0
C759 C 0.19105 0.38624 0.42784 0.0
C760 C 0.20931 0.38289 0.46773 0.0
C761 C 0.17177 0.38921 0.46465 0.0
C762 C 0.15101 0.39123 0.42532 0.0
C763 C 0.13525 0.37221 0.37462 0.0
C764 C 0.11589 0.37432 0.33721 0.0
C765 C 0.11199 0.39532 0.35031 0.0
C766 C 0.12741 0.41421 0.40098 0.0
C767 C 0.14681 0.41219 0.4385 0.0
H768 H 0.097 0.39692 0.32129 0.0
H769 H 0.28592 0.37814 0.68443 0.0
H770 H 0.74712 0.17486 0.77984 0.0
H771 H 0.75363 0.16914 0.65233 0.0
H772 H 0.8347 0.22822 0.66958 0.0
H773 H 0.82835 0.23435 0.79647 0.0
H774 H 0.81083 0.23789 0.56195 0.0
H775 H 0.81909 0.1658 0.64094 0.0
H776 H 0.80686 0.12539 0.7079 0.0
H777 H 0.73461 0.08603 0.5917 0.0
H778 H 0.74645 0.12625 0.52374 0.0
H779 H 0.83564 0.22566 0.19878 0.0
H780 H 0.83859 0.2213 0.329 0.0
H781 H 0.75558 0.16877 0.33962 0.0
H782 H 0.75233 0.17286 0.20943 0.0
H783 H 0.78533 0.15522 0.43348 0.0
H784 H 0.775 0.22871 0.36736 0.0
H785 H 0.7867 0.26928 0.30157 0.0
H786 H 0.86276 0.30624 0.39805 0.0
H787 H 0.85161 0.26572 0.4636 0.0
C788 C 0.76637 0.18646 0.75656 0.0
C789 C 0.78713 0.20528 0.79767 0.0
C790 C 0.77011 0.18299 0.68405 0.0
C791 C 0.79469 0.19814 0.65208 0.0
C792 C 0.81562 0.21635 0.6936 0.0
C793 C 0.81189 0.2199 0.76588 0.0
C794 C 0.79784 0.19704 0.57366 0.0
C795 C 0.80586 0.21994 0.53402 0.0
C796 C 0.79072 0.17345 0.53756 0.0
C797 C 0.78358 0.14911 0.57764 0.0
C798 C 0.80052 0.14858 0.62995 0.0
C799 C 0.79367 0.12569 0.66806 0.0
C800 C 0.76989 0.10319 0.65451 0.0
C801 C 0.75301 0.10348 0.60227 0.0
C802 C 0.75983 0.1263 0.56371 0.0
C803 C 0.81803 0.21291 0.22861 0.0
C804 C 0.79365 0.2 0.19418 0.0
C805 C 0.81982 0.21036 0.30277 0.0
C806 C 0.79727 0.19489 0.34333 0.0
C807 C 0.77316 0.18074 0.30873 0.0
C808 C 0.77131 0.18333 0.23458 0.0
C809 C 0.79827 0.19605 0.42246 0.0
C810 C 0.79083 0.17321 0.46191 0.0
C811 C 0.8059 0.2197 0.45876 0.0
C812 C 0.81259 0.24411 0.41964 0.0
C813 C 0.79429 0.24542 0.37402 0.0
C814 C 0.80081 0.26841 0.33688 0.0
C815 C 0.82549 0.2903 0.34546 0.0
C816 C 0.84368 0.28926 0.39134 0.0
C817 C 0.83727 0.26629 0.42851 0.0
H818 H 0.83049 0.30809 0.31671 0.0
H819 H 0.76459 0.08552 0.6843 0.0
H820 H 0.57179 0.75472 0.73359 0.0
H821 H 0.57947 0.75653 0.60351 0.0
H822 H 0.64673 0.83309 0.62577 0.0
H823 H 0.63936 0.83151 0.75579 0.0
H824 H 0.61114 0.83025 0.52362 0.0
H825 H 0.65687 0.78555 0.5829 0.0
H826 H 0.66323 0.75168 0.64073 0.0
H827 H 0.59872 0.69261 0.52118 0.0
H828 H 0.5917 0.72609 0.46339 0.0
H829 H 0.62893 0.83482 0.14555 0.0
H830 H 0.63986 0.83639 0.27361 0.0
H831 H 0.57973 0.75606 0.29778 0.0
H832 H 0.56937 0.75413 0.16988 0.0
H833 H 0.6201 0.76517 0.37727 0.0
H834 H 0.5692 0.8075 0.33685 0.0
H835 H 0.56007 0.83994 0.28136 0.0
H836 H 0.63139 0.90179 0.36834 0.0
H837 H 0.64109 0.86968 0.42361 0.0
C838 C 0.58838 0.77183 0.711 0.0
C839 C 0.60485 0.79303 0.755 0.0
C840 C 0.59283 0.77276 0.63679 0.0
C841 C 0.61374 0.7949 0.60543 0.0
C842 C 0.63055 0.81583 0.64925 0.0
C843 C 0.62627 0.81484 0.72349 0.0
C844 C 0.61663 0.79701 0.52621 0.0
C845 C 0.61371 0.8164 0.49152 0.0
C846 C 0.61942 0.77857 0.48483 0.0
C847 C 0.62366 0.75835 0.51915 0.0
C848 C 0.6439 0.76532 0.56933 0.0
C849 C 0.64765 0.7462 0.60204 0.0
C850 C 0.63136 0.72001 0.58474 0.0
C851 C 0.61132 0.71291 0.53455 0.0
C852 C 0.60747 0.73196 0.50172 0.0
C853 C 0.61822 0.81747 0.17818 0.0
C854 C 0.59805 0.79447 0.14815 0.0
C855 C 0.62449 0.81838 0.25119 0.0
C856 C 0.61029 0.79646 0.29543 0.0
C857 C 0.59095 0.77319 0.26466 0.0
C858 C 0.58495 0.77216 0.19161 0.0
C859 C 0.614 0.79806 0.37461 0.0
C860 C 0.6181 0.77935 0.40935 0.0
C861 C 0.61192 0.81692 0.41629 0.0
C862 C 0.60601 0.83622 0.38357 0.0
C863 C 0.58301 0.82803 0.34372 0.0
C864 C 0.57772 0.84634 0.31237 0.0
C865 C 0.59518 0.87291 0.32111 0.0
C866 C 0.61792 0.88121 0.36146 0.0
C867 C 0.62332 0.86296 0.39283 0.0
H868 H 0.59106 0.88706 0.29678 0.0
H869 H 0.63429 0.70523 0.61012 0.0
H870 H 0.82166 0.56728 0.77617 0.0
H871 H 0.82777 0.57435 0.64581 0.0
H872 H 0.81429 0.63916 0.66253 0.0
H873 H 0.80835 0.63247 0.79284 0.0
H874 H 0.78236 0.60088 0.56202 0.0
H875 H 0.87266 0.65238 0.6225 0.0
H876 H 0.91377 0.66169 0.68129 0.0
H877 H 0.91359 0.59926 0.56391 0.0
H878 H 0.87224 0.5893 0.5052 0.0
H879 H 0.79517 0.621 0.1878 0.0
H880 H 0.80456 0.63158 0.31567 0.0
H881 H 0.8308 0.57577 0.33388 0.0
H882 H 0.8226 0.566 0.20555 0.0
H883 H 0.85933 0.61596 0.41766 0.0
H884 H 0.76741 0.5596 0.37369 0.0
H885 H 0.72515 0.54709 0.31648 0.0
H886 H 0.72696 0.61474 0.40561 0.0
H887 H 0.76943 0.62783 0.46255 0.0
C888 C 0.82028 0.58322 0.75227 0.0
C889 C 0.81433 0.59919 0.79475 0.0
C890 C 0.82394 0.58732 0.67794 0.0
C891 C 0.82157 0.60733 0.64498 0.0
C892 C 0.81626 0.62369 0.68731 0.0
C893 C 0.81289 0.6198 0.76169 0.0
C894 C 0.82229 0.60963 0.56564 0.0
C895 C 0.79936 0.60475 0.53035 0.0
C896 C 0.84428 0.61397 0.52486 0.0
C897 C 0.86922 0.61997 0.55986 0.0
C898 C 0.88126 0.64049 0.60966 0.0
C899 C 0.90463 0.64591 0.64289 0.0
C900 C 0.91626 0.63104 0.62646 0.0
C901 C 0.90455 0.61075 0.57662 0.0
C902 C 0.88116 0.60523 0.54328 0.0
C903 C 0.80337 0.61134 0.21881 0.0
C904 C 0.80785 0.59246 0.18696 0.0
C905 C 0.80866 0.61734 0.29184 0.0
C906 C 0.81786 0.60406 0.33453 0.0
C907 C 0.82365 0.58621 0.30196 0.0
C908 C 0.8188 0.58053 0.22869 0.0
C909 C 0.81927 0.6069 0.41398 0.0
C910 C 0.8425 0.61259 0.44931 0.0
C911 C 0.79739 0.60284 0.45511 0.0
C912 C 0.77171 0.59484 0.42168 0.0
C913 C 0.75886 0.57188 0.38071 0.0
C914 C 0.73487 0.56468 0.34837 0.0
C915 C 0.72341 0.58015 0.35724 0.0
C916 C 0.73588 0.60281 0.39867 0.0
C917 C 0.75991 0.61012 0.43101 0.0
H918 H 0.70484 0.57456 0.33214 0.0
H919 H 0.93435 0.63528 0.65224 0.0
H920 H 0.18502 0.80659 0.1832 0.0
H921 H 0.18139 0.81138 0.31386 0.0
H922 H 0.24679 0.79977 0.35055 0.0
H923 H 0.25053 0.79499 0.22122 0.0
H924 H 0.20081 0.76643 0.43141 0.0
H925 H 0.2562 0.85729 0.36769 0.0
H926 H 0.26625 0.89701 0.29979 0.0
H927 H 0.19899 0.8958 0.39109 0.0
H928 H 0.18825 0.85575 0.45853 0.0
H929 H 0.2408 0.79548 0.7872 0.0
H930 H 0.24001 0.79755 0.65599 0.0
H931 H 0.18007 0.81852 0.66721 0.0
H932 H 0.1809 0.81685 0.7993 0.0
H933 H 0.21668 0.84617 0.5611 0.0
H934 H 0.16228 0.75774 0.63041 0.0
H935 H 0.15014 0.71701 0.69574 0.0
H936 H 0.21243 0.71227 0.59158 0.0
H937 H 0.2252 0.75321 0.5264 0.0
C938 C 0.19861 0.80513 0.21927 0.0
C939 C 0.21781 0.80006 0.19216 0.0
C940 C 0.19663 0.80803 0.29361 0.0
C941 C 0.21374 0.80575 0.34151 0.0
C942 C 0.23335 0.80147 0.31429 0.0
C943 C 0.23552 0.79887 0.24033 0.0
C944 C 0.2107 0.80645 0.42046 0.0
C945 C 0.20443 0.78389 0.45989 0.0
C946 C 0.2145 0.82899 0.4569 0.0
C947 C 0.22123 0.85334 0.41746 0.0
C948 C 0.24341 0.86535 0.3728 0.0
C949 C 0.24926 0.88795 0.33447 0.0
C950 C 0.23322 0.89887 0.34093 0.0
C951 C 0.21136 0.88728 0.38601 0.0
C952 C 0.20539 0.86463 0.42431 0.0
C953 C 0.22751 0.80069 0.76208 0.0
C954 C 0.21067 0.80568 0.8039 0.0
C955 C 0.22709 0.80185 0.68696 0.0
C956 C 0.20968 0.80778 0.65195 0.0
C957 C 0.19357 0.81381 0.69329 0.0
C958 C 0.19401 0.81273 0.76872 0.0
C959 C 0.20765 0.80634 0.57223 0.0
C960 C 0.21278 0.82863 0.53264 0.0
C961 C 0.20252 0.78342 0.53522 0.0
C962 C 0.19481 0.75867 0.57392 0.0
C963 C 0.17351 0.74812 0.62181 0.0
C964 C 0.1665 0.72498 0.65877 0.0
C965 C 0.18054 0.71209 0.64793 0.0
C966 C 0.20158 0.72229 0.59996 0.0
C967 C 0.2087 0.74545 0.56293 0.0
H968 H 0.17508 0.69417 0.6766 0.0
H969 H 0.23776 0.91635 0.31115 0.0
H970 H 0.43105 0.25738 0.79737 0.0
H971 H 0.41931 0.25207 0.66968 0.0
H972 H 0.39896 0.17142 0.68071 0.0
H973 H 0.41101 0.17659 0.80796 0.0
H974 H 0.4311 0.19632 0.57122 0.0
H975 H 0.35163 0.18671 0.66312 0.0
H976 H 0.3242 0.19824 0.7366 0.0
H977 H 0.35317 0.27 0.61978 0.0
H978 H 0.38099 0.25901 0.54586 0.0
H979 H 0.39203 0.17263 0.21458 0.0
H980 H 0.38292 0.16905 0.34372 0.0
H981 H 0.41491 0.2521 0.35642 0.0
H982 H 0.42398 0.25597 0.22684 0.0
H983 H 0.37127 0.22127 0.45423 0.0
H984 H 0.45553 0.23346 0.37869 0.0
H985 H 0.48309 0.22216 0.3047 0.0
H986 H 0.44457 0.14505 0.39435 0.0
H987 H 0.41645 0.1558 0.46792 0.0
C988 C 0.42401 0.23851 0.77263 0.0
C989 C 0.42213 0.21746 0.81233 0.0
C990 C 0.41707 0.23545 0.70002 0.0
C991 C 0.40797 0.21127 0.66648 0.0
C992 C 0.40584 0.19018 0.7061 0.0
C993 C 0.41286 0.19323 0.77855 0.0
C994 C 0.40285 0.20863 0.58849 0.0
C995 C 0.41756 0.2012 0.54585 0.0
C996 C 0.38558 0.21555 0.55576 0.0
C997 C 0.36856 0.22211 0.59926 0.0
C998 C 0.35229 0.20503 0.65336 0.0
C999 C 0.33666 0.21147 0.6951 0.0
C1000 C 0.33703 0.2349 0.68315 0.0
C1001 C 0.35293 0.25187 0.62906 0.0
C1002 C 0.36859 0.24551 0.58708 0.0
C1003 C 0.39677 0.19011 0.24453 0.0
C1004 C 0.4094 0.21469 0.21124 0.0
C1005 C 0.39126 0.18796 0.31798 0.0
C1006 C 0.39851 0.21035 0.359 0.0
C1007 C 0.40915 0.23465 0.32509 0.0
C1008 C 0.41461 0.23684 0.25143 0.0
C1009 C 0.39954 0.20903 0.43784 0.0
C1010 C 0.38432 0.2159 0.48024 0.0
C1011 C 0.41635 0.2016 0.47082 0.0
C1012 C 0.43372 0.19534 0.42817 0.0
C1013 C 0.45284 0.21405 0.38226 0.0
C1014 C 0.46856 0.20775 0.34043 0.0
C1015 C 0.46554 0.18288 0.34469 0.0
C1016 C 0.44686 0.16429 0.39102 0.0
C1017 C 0.43103 0.17048 0.4328 0.0
H1018 H 0.47772 0.17803 0.31221 0.0
H1019 H 0.32495 0.23987 0.71568 0.0
loop_
_geom_bond_atom_site_label_1
_geom_bond_atom_site_label_2
_geom_bond_distance
_geom_bond_site_symmetry_2
_ccdc_geom_bond_type
Zn0 O6 1.969 . S
Zn0 O7 1.965 1_554 S
Zn0 O11 2.024 1_554 S
Zn0 O16 1.969 . S
Zn1 O8 1.969 . S
Zn1 O14 1.969 . S
Zn1 O15 1.965 1_556 S
Zn1 O17 2.024 1_556 S
C2 O3 1.229 . S
C2 O11 1.058 1_554 S
O3 C2 1.229 . S
C4 O5 1.229 . S
C4 O17 1.058 1_556 S
O5 C4 1.229 . S
O6 Zn0 1.969 . S
O6 C9 1.267 1_554 S
O7 Zn0 1.965 1_556 S
O7 C18 1.260 . S
O8 Zn1 1.969 . S
O8 C18 1.258 . S
C9 O6 1.267 1_556 S
C9 O10 1.228 . S
O10 C9 1.228 . S
O11 Zn0 2.024 1_556 S
O11 C2 1.058 1_556 S
C12 O13 1.228 . S
C12 O14 1.267 1_554 S
O13 C12 1.228 . S
O14 Zn1 1.969 . S
O14 C12 1.267 1_556 S
O15 Zn1 1.965 1_554 S
O15 C19 1.260 . S
O16 Zn0 1.969 . S
O16 C19 1.258 . S
O17 Zn1 2.024 1_554 S
O17 C4 1.058 1_554 S
C18 O7 1.260 . S
C18 O8 1.258 . S
C19 O15 1.260 . S
C19 O16 1.258 . S
Zn20 O26 1.969 . S
Zn20 O27 1.965 1_554 S
Zn20 O31 2.024 1_554 S
Zn20 O36 1.969 . S
Zn21 O28 1.969 . S
Zn21 O34 1.969 . S
Zn21 O35 1.965 1_556 S
Zn21 O37 2.024 1_556 S
C22 O23 1.229 . S
C22 O31 1.058 1_554 S
O23 C22 1.229 . S
C24 O25 1.229 . S
C24 O37 1.058 1_556 S
O25 C24 1.229 . S
O26 Zn20 1.969 . S
O26 C29 1.267 1_554 S
O27 Zn20 1.965 1_556 S
O27 C38 1.260 . S
O28 Zn21 1.969 . S
O28 C38 1.258 . S
C29 O26 1.267 1_556 S
C29 O30 1.228 . S
O30 C29 1.228 . S
O31 Zn20 2.024 1_556 S
O31 C22 1.058 1_556 S
C32 O33 1.228 . S
C32 O34 1.267 1_554 S
O33 C32 1.228 . S
O34 Zn21 1.969 . S
O34 C32 1.267 1_556 S
O35 Zn21 1.965 1_554 S
O35 C39 1.260 . S
O36 Zn20 1.969 . S
O36 C39 1.258 . S
O37 Zn21 2.024 1_554 S
O37 C24 1.058 1_554 S
C38 O27 1.260 . S
C38 O28 1.258 . S
C39 O35 1.260 . S
C39 O36 1.258 . S
Zn40 O46 1.969 . S
Zn40 O47 1.965 1_554 S
Zn40 O51 2.024 1_554 S
Zn40 O56 1.969 . S
Zn41 O48 1.969 . S
Zn41 O54 1.969 . S
Zn41 O55 1.965 1_556 S
Zn41 O57 2.024 1_556 S
C42 O43 1.229 . S
C42 O51 1.058 1_554 S
O43 C42 1.229 . S
C44 O45 1.229 . S
C44 O57 1.058 1_556 S
O45 C44 1.229 . S
O46 Zn40 1.969 . S
O46 C49 1.267 1_554 S
O47 Zn40 1.965 1_556 S
O47 C58 1.260 . S
O48 Zn41 1.969 . S
O48 C58 1.258 . S
C49 O46 1.267 1_556 S
C49 O50 1.228 . S
O50 C49 1.228 . S
O51 Zn40 2.024 1_556 S
O51 C42 1.058 1_556 S
C52 O53 1.228 . S
C52 O54 1.267 1_554 S
O53 C52 1.228 . S
O54 Zn41 1.969 . S
O54 C52 1.267 1_556 S
O55 Zn41 1.965 1_554 S
O55 C59 1.260 . S
O56 Zn40 1.969 . S
O56 C59 1.258 . S
O57 Zn41 2.024 1_554 S
O57 C44 1.058 1_554 S
C58 O47 1.260 . S
C58 O48 1.258 . S
C59 O55 1.260 . S
C59 O56 1.258 . S
Zn60 O66 1.969 . S
Zn60 O67 1.965 1_554 S
Zn60 O71 2.024 1_554 S
Zn60 O76 1.969 . S
Zn61 O68 1.969 . S
Zn61 O74 1.969 . S
Zn61 O75 1.965 1_556 S
Zn61 O77 2.024 1_556 S
C62 O63 1.229 . S
C62 O71 1.058 1_554 S
O63 C62 1.229 . S
C64 O65 1.229 . S
C64 O77 1.058 1_556 S
O65 C64 1.229 . S
O66 Zn60 1.969 . S
O66 C69 1.267 1_554 S
O67 Zn60 1.965 1_556 S
O67 C78 1.260 . S
O68 Zn61 1.969 . S
O68 C78 1.258 . S
C69 O66 1.267 1_556 S
C69 O70 1.228 . S
O70 C69 1.228 . S
O71 Zn60 2.024 1_556 S
O71 C62 1.058 1_556 S
C72 O73 1.228 . S
C72 O74 1.267 1_554 S
O73 C72 1.228 . S
O74 Zn61 1.969 . S
O74 C72 1.267 1_556 S
O75 Zn61 1.965 1_554 S
O75 C79 1.260 . S
O76 Zn60 1.969 . S
O76 C79 1.258 . S
O77 Zn61 2.024 1_554 S
O77 C64 1.058 1_554 S
C78 O67 1.260 . S
C78 O68 1.258 . S
C79 O75 1.260 . S
C79 O76 1.258 . S
Zn80 O86 1.969 . S
Zn80 O87 1.965 1_554 S
Zn80 O91 2.024 1_554 S
Zn80 O96 1.969 . S
Zn81 O88 1.969 . S
Zn81 O94 1.969 . S
Zn81 O95 1.965 1_556 S
Zn81 O97 2.024 1_556 S
C82 O83 1.229 . S
C82 O91 1.058 1_554 S
O83 C82 1.229 . S
C84 O85 1.229 . S
C84 O97 1.058 1_556 S
O85 C84 1.229 . S
O86 Zn80 1.969 . S
O86 C89 1.267 1_554 S
O87 Zn80 1.965 1_556 S
O87 C98 1.260 . S
O88 Zn81 1.969 . S
O88 C98 1.258 . S
C89 O86 1.267 1_556 S
C89 O90 1.228 . S
O90 C89 1.228 . S
O91 Zn80 2.024 1_556 S
O91 C82 1.058 1_556 S
C92 O93 1.228 . S
C92 O94 1.267 1_554 S
O93 C92 1.228 . S
O94 Zn81 1.969 . S
O94 C92 1.267 1_556 S
O95 Zn81 1.965 1_554 S
O95 C99 1.260 . S
O96 Zn80 1.969 . S
O96 C99 1.258 . S
O97 Zn81 2.024 1_554 S
O97 C84 1.058 1_554 S
C98 O87 1.260 . S
C98 O88 1.258 . S
C99 O95 1.260 . S
C99 O96 1.258 . S
Zn100 O106 1.969 . S
Zn100 O107 1.965 1_554 S
Zn100 O111 2.024 1_554 S
Zn100 O116 1.969 . S
Zn101 O108 1.969 . S
Zn101 O114 1.969 . S
Zn101 O115 1.965 1_556 S
Zn101 O117 2.024 1_556 S
C102 O103 1.229 . S
C102 O111 1.058 1_554 S
O103 C102 1.229 . S
C104 O105 1.229 . S
C104 O117 1.058 1_556 S
O105 C104 1.229 . S
O106 Zn100 1.969 . S
O106 C109 1.267 1_554 S
O107 Zn100 1.965 1_556 S
O107 C118 1.260 . S
O108 Zn101 1.969 . S
O108 C118 1.258 . S
C109 O106 1.267 1_556 S
C109 O110 1.228 . S
O110 C109 1.228 . S
O111 Zn100 2.024 1_556 S
O111 C102 1.058 1_556 S
C112 O113 1.228 . S
C112 O114 1.267 1_554 S
O113 C112 1.228 . S
O114 Zn101 1.969 . S
O114 C112 1.267 1_556 S
O115 Zn101 1.965 1_554 S
O115 C119 1.260 . S
O116 Zn100 1.969 . S
O116 C119 1.258 . S
O117 Zn101 2.024 1_554 S
O117 C104 1.058 1_554 S
C118 O107 1.260 . S
C118 O108 1.258 . S
C119 O115 1.260 . S
C119 O116 1.258 . S
H120 C138 0.951 . S
H121 C140 0.951 . S
H122 C142 0.950 . S
H123 C143 0.950 . S
H124 C145 0.950 . S
H125 C148 0.950 . S
H126 C149 0.950 . S
H127 C151 0.950 . S
H128 C152 0.950 . S
H129 C153 0.951 1_556 S
H130 C155 0.951 . S
H131 C157 0.950 . S
H132 C158 0.950 . S
H133 C160 0.950 . S
H134 C163 0.950 . S
H135 C164 0.950 . S
H136 C166 0.950 . S
H137 C167 0.950 . S
C138 H120 0.951 . S
C138 C139 1.366 1_554 S
C138 C140 1.388 . S
C139 C138 1.366 1_556 S
C139 C143 1.385 . S
C140 H121 0.951 . S
C140 C138 1.388 . S
C140 C141 1.366 . S
C141 C140 1.366 . S
C141 C142 1.414 1_554 S
C141 C144 1.499 . S
C142 H122 0.950 . S
C142 C141 1.414 1_556 S
C142 C143 1.374 . S
C143 H123 0.950 . S
C143 C139 1.385 . S
C143 C142 1.374 . S
C144 C141 1.499 . S
C144 C145 1.373 1_554 S
C144 C146 1.389 . S
C145 H124 0.950 . S
C145 C144 1.373 1_556 S
C145 C161 1.377 . S
C146 C144 1.389 . S
C146 C147 1.524 . S
C146 C160 1.377 . S
C147 C146 1.524 . S
C147 C148 1.397 . S
C147 C152 1.363 . S
C148 H125 0.950 . S
C148 C147 1.397 . S
C148 C149 1.334 . S
C149 H126 0.950 . S
C149 C148 1.334 . S
C149 C150 1.287 . S
C150 C149 1.287 . S
C150 C151 1.524 . S
C150 H169 0.913 . S
C151 H127 0.950 . S
C151 C150 1.524 . S
C151 C152 1.415 . S
C152 H128 0.950 . S
C152 C147 1.363 . S
C152 C151 1.415 . S
C153 H129 0.951 1_554 S
C153 C154 1.366 . S
C153 C155 1.388 1_554 S
C154 C153 1.366 . S
C154 C158 1.385 . S
C155 H130 0.951 . S
C155 C153 1.388 1_556 S
C155 C156 1.366 1_556 S
C156 C155 1.366 1_554 S
C156 C157 1.414 . S
C156 C159 1.499 . S
C157 H131 0.950 . S
C157 C156 1.414 . S
C157 C158 1.374 . S
C158 H132 0.950 . S
C158 C154 1.385 . S
C158 C157 1.374 . S
C159 C156 1.499 . S
C159 C160 1.373 . S
C159 C161 1.389 1_554 S
C160 H133 0.950 . S
C160 C146 1.377 . S
C160 C159 1.373 . S
C161 C145 1.377 . S
C161 C159 1.389 1_556 S
C161 C162 1.524 . S
C162 C161 1.524 . S
C162 C163 1.397 . S
C162 C167 1.363 . S
C163 H134 0.950 . S
C163 C162 1.397 . S
C163 C164 1.334 . S
C164 H135 0.950 . S
C164 C163 1.334 . S
C164 C165 1.287 . S
C165 C164 1.287 . S
C165 C166 1.524 . S
C165 H168 0.999 . S
C166 H136 0.950 . S
C166 C165 1.524 . S
C166 C167 1.415 . S
C167 H137 0.950 . S
C167 C162 1.363 . S
C167 C166 1.415 . S
H168 C165 0.999 . S
H169 C150 0.913 . S
H170 C188 0.951 . S
H171 C190 0.951 . S
H172 C192 0.950 . S
H173 C193 0.950 . S
H174 C195 0.950 . S
H175 C198 0.950 . S
H176 C199 0.950 . S
H177 C201 0.950 . S
H178 C202 0.950 . S
H179 C203 0.951 . S
H180 C205 0.951 . S
H181 C207 0.950 1_556 S
H182 C208 0.950 1_556 S
H183 C210 0.950 . S
H184 C213 0.950 . S
H185 C214 0.950 . S
H186 C216 0.950 . S
H187 C217 0.950 . S
C188 H170 0.951 . S
C188 C189 1.366 . S
C188 C190 1.388 . S
C189 C188 1.366 . S
C189 C193 1.385 1_556 S
C190 H171 0.951 . S
C190 C188 1.388 . S
C190 C191 1.366 1_556 S
C191 C190 1.366 1_554 S
C191 C192 1.414 . S
C191 C194 1.499 . S
C192 H172 0.950 . S
C192 C191 1.414 . S
C192 C193 1.374 . S
C193 H173 0.950 . S
C193 C189 1.385 1_554 S
C193 C192 1.374 . S
C194 C191 1.499 . S
C194 C195 1.373 . S
C194 C196 1.389 1_554 S
C195 H174 0.950 . S
C195 C194 1.373 . S
C195 C211 1.377 1_455 S
C196 C194 1.389 1_556 S
C196 C197 1.524 . S
C196 C210 1.377 1_455 S
C197 C196 1.524 . S
C197 C198 1.397 . S
C197 C202 1.363 . S
C198 H175 0.950 . S
C198 C197 1.397 . S
C198 C199 1.334 . S
C199 H176 0.950 . S
C199 C198 1.334 . S
C199 C200 1.287 . S
C200 C199 1.287 . S
C200 C201 1.524 . S
C200 H219 0.913 . S
C201 H177 0.950 . S
C201 C200 1.524 . S
C201 C202 1.415 . S
C202 H178 0.950 . S
C202 C197 1.363 . S
C202 C201 1.415 . S
C203 H179 0.951 . S
C203 C204 1.366 . S
C203 C205 1.388 . S
C204 C203 1.366 . S
C204 C208 1.385 . S
C205 H180 0.951 . S
C205 C203 1.388 . S
C205 C206 1.366 . S
C206 C205 1.366 . S
C206 C207 1.414 . S
C206 C209 1.499 . S
C207 H181 0.950 1_554 S
C207 C206 1.414 . S
C207 C208 1.374 . S
C208 H182 0.950 1_554 S
C208 C204 1.385 . S
C208 C207 1.374 . S
C209 C206 1.499 . S
C209 C210 1.373 1_554 S
C209 C211 1.389 . S
C210 H183 0.950 . S
C210 C196 1.377 1_655 S
C210 C209 1.373 1_556 S
C211 C195 1.377 1_655 S
C211 C209 1.389 . S
C211 C212 1.524 . S
C212 C211 1.524 . S
C212 C213 1.397 . S
C212 C217 1.363 . S
C213 H184 0.950 . S
C213 C212 1.397 . S
C213 C214 1.334 . S
C214 H185 0.950 . S
C214 C213 1.334 . S
C214 C215 1.287 . S
C215 C214 1.287 . S
C215 C216 1.524 . S
C215 H218 0.999 . S
C216 H186 0.950 . S
C216 C215 1.524 . S
C216 C217 1.415 . S
C217 H187 0.950 . S
C217 C212 1.363 . S
C217 C216 1.415 . S
H218 C215 0.999 . S
H219 C200 0.913 . S
H220 C238 0.951 . S
H221 C240 0.951 . S
H222 C242 0.950 . S
H223 C243 0.950 . S
H224 C245 0.950 . S
H225 C248 0.950 . S
H226 C249 0.950 . S
H227 C251 0.950 . S
H228 C252 0.950 . S
H229 C253 0.951 . S
H230 C255 0.951 . S
H231 C257 0.950 . S
H232 C258 0.950 . S
H233 C260 0.950 . S
H234 C263 0.950 . S
H235 C264 0.950 . S
H236 C266 0.950 . S
H237 C267 0.950 . S
C238 H220 0.951 . S
C238 C239 1.366 1_554 S
C238 C240 1.388 . S
C239 C238 1.366 1_556 S
C239 C243 1.385 . S
C240 H221 0.951 . S
C240 C238 1.388 . S
C240 C241 1.366 . S
C241 C240 1.366 . S
C241 C242 1.414 1_554 S
C241 C244 1.499 . S
C242 H222 0.950 . S
C242 C241 1.414 1_556 S
C242 C243 1.374 . S
C243 H223 0.950 . S
C243 C239 1.385 . S
C243 C242 1.374 . S
C244 C241 1.499 . S
C244 C245 1.373 1_554 S
C244 C246 1.389 . S
C245 H224 0.950 . S
C245 C244 1.373 1_556 S
C245 C261 1.377 1_545 S
C246 C244 1.389 . S
C246 C247 1.524 . S
C246 C260 1.377 1_545 S
C247 C246 1.524 . S
C247 C248 1.397 . S
C247 C252 1.363 . S
C248 H225 0.950 . S
C248 C247 1.397 . S
C248 C249 1.334 . S
C249 H226 0.950 . S
C249 C248 1.334 . S
C249 C250 1.287 . S
C250 C249 1.287 . S
C250 C251 1.524 . S
C250 H269 0.913 . S
C251 H227 0.950 . S
C251 C250 1.524 . S
C251 C252 1.415 . S
C252 H228 0.950 . S
C252 C247 1.363 . S
C252 C251 1.415 . S
C253 H229 0.951 . S
C253 C254 1.366 1_556 S
C253 C255 1.388 . S
C254 C253 1.366 1_554 S
C254 C258 1.385 . S
C255 H230 0.951 . S
C255 C253 1.388 . S
C255 C256 1.366 1_556 S
C256 C255 1.366 1_554 S
C256 C257 1.414 . S
C256 C259 1.499 . S
C257 H231 0.950 . S
C257 C256 1.414 . S
C257 C258 1.374 . S
C258 H232 0.950 . S
C258 C254 1.385 . S
C258 C257 1.374 . S
C259 C256 1.499 . S
C259 C260 1.373 . S
C259 C261 1.389 1_554 S
C260 H233 0.950 . S
C260 C246 1.377 1_565 S
C260 C259 1.373 . S
C261 C245 1.377 1_565 S
C261 C259 1.389 1_556 S
C261 C262 1.524 . S
C262 C261 1.524 . S
C262 C263 1.397 . S
C262 C267 1.363 . S
C263 H234 0.950 . S
C263 C262 1.397 . S
C263 C264 1.334 . S
C264 H235 0.950 . S
C264 C263 1.334 . S
C264 C265 1.287 . S
C265 C264 1.287 . S
C265 C266 1.524 . S
C265 H268 0.999 . S
C266 H236 0.950 . S
C266 C265 1.524 . S
C266 C267 1.415 . S
C267 H237 0.950 . S
C267 C262 1.363 . S
C267 C266 1.415 . S
H268 C265 0.999 . S
H269 C250 0.913 . S
H270 C288 0.951 . S
H271 C290 0.951 . S
H272 C292 0.950 . S
H273 C293 0.950 . S
H274 C295 0.950 . S
H275 C298 0.950 . S
H276 C299 0.950 . S
H277 C301 0.943 1_554 S
H278 C302 0.950 . S
H279 C303 0.951 . S
H280 C305 0.951 . S
H281 C307 0.950 . S
H282 C308 0.950 . S
H283 C310 0.950 1_556 S
H284 C313 0.950 . S
H285 C314 0.950 . S
H286 C316 0.950 1_556 S
H287 C317 0.950 1_556 S
C288 H270 0.951 . S
C288 C289 1.366 . S
C288 C290 1.388 . S
C289 C288 1.366 . S
C289 C293 1.385 1_554 S
C290 H271 0.951 . S
C290 C288 1.388 . S
C290 C291 1.366 . S
C291 C290 1.366 . S
C291 C292 1.414 1_554 S
C291 C294 1.499 . S
C292 H272 0.950 . S
C292 C291 1.414 1_556 S
C292 C293 1.374 . S
C293 H273 0.950 . S
C293 C289 1.385 1_556 S
C293 C292 1.374 . S
C294 C291 1.499 . S
C294 C295 1.373 . S
C294 C296 1.390 . S
C295 H274 0.950 . S
C295 C294 1.373 . S
C295 C311 1.377 . S
C296 C294 1.390 . S
C296 C297 1.524 1_554 S
C296 C310 1.377 . S
C297 C296 1.524 1_556 S
C297 C298 1.397 . S
C297 C302 1.363 1_556 S
C298 H275 0.950 . S
C298 C297 1.397 . S
C298 C299 1.334 . S
C299 H276 0.950 . S
C299 C298 1.334 . S
C299 C300 1.287 . S
C300 C299 1.287 . S
C300 C301 1.535 . S
C300 H319 0.913 . S
C301 H277 0.943 1_556 S
C301 C300 1.535 . S
C301 C302 1.412 1_556 S
C302 H278 0.950 . S
C302 C297 1.363 1_554 S
C302 C301 1.412 1_554 S
C303 H279 0.951 . S
C303 C304 1.366 . S
C303 C305 1.388 . S
C304 C303 1.366 . S
C304 C308 1.385 1_556 S
C305 H280 0.951 . S
C305 C303 1.388 . S
C305 C306 1.366 1_556 S
C306 C305 1.366 1_554 S
C306 C307 1.414 . S
C306 C309 1.499 . S
C307 H281 0.950 . S
C307 C306 1.414 . S
C307 C308 1.374 . S
C308 H282 0.950 . S
C308 C304 1.385 1_554 S
C308 C307 1.374 . S
C309 C306 1.499 . S
C309 C310 1.373 . S
C309 C311 1.389 . S
C310 H283 0.950 1_554 S
C310 C296 1.377 . S
C310 C309 1.373 . S
C311 C295 1.377 . S
C311 C309 1.389 . S
C311 C312 1.524 . S
C312 C311 1.524 . S
C312 C313 1.397 . S
C312 C317 1.363 . S
C313 H284 0.950 . S
C313 C312 1.397 . S
C313 C314 1.334 . S
C314 H285 0.950 . S
C314 C313 1.334 . S
C314 C315 1.287 . S
C315 C314 1.287 . S
C315 C316 1.524 . S
C315 H318 0.999 . S
C316 H286 0.950 1_554 S
C316 C315 1.524 . S
C316 C317 1.415 . S
C317 H287 0.950 1_554 S
C317 C312 1.363 . S
C317 C316 1.415 . S
H318 C315 0.999 . S
H319 C300 0.913 . S
H320 C338 0.951 . S
H321 C340 0.951 . S
H322 C342 0.950 . S
H323 C343 0.950 . S
H324 C345 0.950 . S
H325 C348 0.950 1_554 S
H326 C349 0.950 . S
H327 C351 0.950 . S
H328 C352 0.950 . S
H329 C353 0.951 . S
H330 C355 0.951 . S
H331 C357 0.950 . S
H332 C358 0.950 . S
H333 C360 0.950 . S
H334 C363 0.950 . S
H335 C364 0.950 . S
H336 C366 0.950 . S
H337 C367 0.950 . S
C338 H320 0.951 . S
C338 C339 1.366 1_556 S
C338 C340 1.388 . S
C339 C338 1.366 1_554 S
C339 C343 1.385 . S
C340 H321 0.951 . S
C340 C338 1.388 . S
C340 C341 1.366 1_556 S
C341 C340 1.366 1_554 S
C341 C342 1.414 . S
C341 C344 1.499 . S
C342 H322 0.950 . S
C342 C341 1.414 . S
C342 C343 1.374 . S
C343 H323 0.950 . S
C343 C339 1.385 . S
C343 C342 1.374 . S
C344 C341 1.499 . S
C344 C345 1.373 . S
C344 C346 1.389 1_554 S
C345 H324 0.950 . S
C345 C344 1.373 . S
C345 C361 1.377 1_455 S
C346 C344 1.389 1_556 S
C346 C347 1.524 . S
C346 C360 1.377 1_455 S
C347 C346 1.524 . S
C347 C348 1.397 . S
C347 C352 1.363 . S
C348 H325 0.950 1_556 S
C348 C347 1.397 . S
C348 C349 1.334 . S
C349 H326 0.950 . S
C349 C348 1.334 . S
C349 C350 1.287 . S
C350 C349 1.287 . S
C350 C351 1.524 . S
C350 H369 0.913 . S
C351 H327 0.950 . S
C351 C350 1.524 . S
C351 C352 1.415 . S
C352 H328 0.950 . S
C352 C347 1.363 . S
C352 C351 1.415 . S
C353 H329 0.951 . S
C353 C354 1.366 1_554 S
C353 C355 1.388 . S
C354 C353 1.366 1_556 S
C354 C358 1.385 . S
C355 H330 0.951 . S
C355 C353 1.388 . S
C355 C356 1.366 . S
C356 C355 1.366 . S
C356 C357 1.414 1_554 S
C356 C359 1.499 . S
C357 H331 0.950 . S
C357 C356 1.414 1_556 S
C357 C358 1.374 . S
C358 H332 0.950 . S
C358 C354 1.385 . S
C358 C357 1.374 . S
C359 C356 1.499 . S
C359 C360 1.373 1_554 S
C359 C361 1.389 . S
C360 H333 0.950 . S
C360 C346 1.377 1_655 S
C360 C359 1.373 1_556 S
C361 C345 1.377 1_655 S
C361 C359 1.389 . S
C361 C362 1.524 . S
C362 C361 1.524 . S
C362 C363 1.397 . S
C362 C367 1.363 . S
C363 H334 0.950 . S
C363 C362 1.397 . S
C363 C364 1.334 . S
C364 H335 0.950 . S
C364 C363 1.334 . S
C364 C365 1.287 . S
C365 C364 1.287 . S
C365 C366 1.524 . S
C365 H368 0.999 . S
C366 H336 0.950 . S
C366 C365 1.524 . S
C366 C367 1.415 . S
C367 H337 0.950 . S
C367 C362 1.363 . S
C367 C366 1.415 . S
H368 C365 0.999 . S
H369 C350 0.913 . S
H370 C388 0.951 . S
H371 C390 0.951 . S
H372 C392 0.950 . S
H373 C393 0.950 . S
H374 C395 0.950 . S
H375 C398 0.950 . S
H376 C399 0.950 . S
H377 C401 0.950 . S
H378 C402 0.950 . S
H379 C403 0.951 . S
H380 C405 0.951 . S
H381 C407 0.950 . S
H382 C408 0.950 . S
H383 C410 0.950 . S
H384 C413 0.950 . S
H385 C414 0.950 . S
H386 C416 0.950 . S
H387 C417 0.945 1_565 S
C388 H370 0.951 . S
C388 C389 1.366 . S
C388 C390 1.388 . S
C389 C388 1.366 . S
C389 C393 1.385 1_556 S
C390 H371 0.951 . S
C390 C388 1.388 . S
C390 C391 1.366 1_556 S
C391 C390 1.366 1_554 S
C391 C392 1.414 . S
C391 C394 1.499 . S
C392 H372 0.950 . S
C392 C391 1.414 . S
C392 C393 1.374 . S
C393 H373 0.950 . S
C393 C389 1.385 1_554 S
C393 C392 1.374 . S
C394 C391 1.499 . S
C394 C395 1.373 . S
C394 C396 1.389 1_554 S
C395 H374 0.950 . S
C395 C394 1.373 . S
C395 C411 1.377 1_565 S
C396 C394 1.389 1_556 S
C396 C397 1.524 . S
C396 C410 1.377 1_565 S
C397 C396 1.524 . S
C397 C398 1.397 . S
C397 C402 1.363 . S
C398 H375 0.950 . S
C398 C397 1.397 . S
C398 C399 1.334 . S
C399 H376 0.950 . S
C399 C398 1.334 . S
C399 C400 1.287 . S
C400 C399 1.287 . S
C400 C401 1.524 . S
C400 H419 0.913 . S
C401 H377 0.950 . S
C401 C400 1.524 . S
C401 C402 1.415 . S
C402 H378 0.950 . S
C402 C397 1.363 . S
C402 C401 1.415 . S
C403 H379 0.951 . S
C403 C404 1.366 . S
C403 C405 1.388 . S
C404 C403 1.366 . S
C404 C408 1.385 1_554 S
C405 H380 0.951 . S
C405 C403 1.388 . S
C405 C406 1.366 . S
C406 C405 1.366 . S
C406 C407 1.414 1_554 S
C406 C409 1.499 . S
C407 H381 0.950 . S
C407 C406 1.414 1_556 S
C407 C408 1.374 . S
C408 H382 0.950 . S
C408 C404 1.385 1_556 S
C408 C407 1.374 . S
C409 C406 1.499 . S
C409 C410 1.373 1_554 S
C409 C411 1.389 . S
C410 H383 0.950 . S
C410 C396 1.377 1_545 S
C410 C409 1.373 1_556 S
C411 C395 1.377 1_545 S
C411 C409 1.389 . S
C411 C412 1.524 . S
C412 C411 1.524 . S
C412 C413 1.397 . S
C412 C417 1.363 . S
C413 H384 0.950 . S
C413 C412 1.397 . S
C413 C414 1.334 . S
C414 H385 0.950 . S
C414 C413 1.334 . S
C414 C415 1.287 . S
C415 C414 1.287 . S
C415 C416 1.524 . S
C415 H418 0.999 . S
C416 H386 0.950 . S
C416 C415 1.524 . S
C416 C417 1.415 . S
C417 H387 0.945 1_545 S
C417 C412 1.363 . S
C417 C416 1.415 . S
H418 C415 0.999 . S
H419 C400 0.913 . S
H420 C438 0.951 . S
H421 C440 0.951 . S
H422 C442 0.950 . S
H423 C443 0.950 . S
H424 C445 0.950 . S
H425 C448 0.950 . S
H426 C449 0.950 . S
H427 C451 0.950 . S
H428 C452 0.950 . S
H429 C453 0.951 . S
H430 C455 0.951 . S
H431 C457 0.950 1_554 S
H432 C458 0.950 1_554 S
H433 C460 0.950 . S
H434 C463 0.950 . S
H435 C464 0.950 . S
H436 C466 0.950 . S
H437 C467 0.950 . S
C438 H420 0.951 . S
C438 C439 1.369 . S
C438 C440 1.388 . S
C439 C438 1.369 . S
C439 C443 1.381 1_554 S
C440 H421 0.951 . S
C440 C438 1.388 . S
C440 C441 1.366 1_554 S
C441 C440 1.366 1_556 S
C441 C442 1.414 . S
C441 C444 1.499 . S
C442 H422 0.950 . S
C442 C441 1.414 . S
C442 C443 1.374 . S
C443 H423 0.950 . S
C443 C439 1.381 1_556 S
C443 C442 1.374 . S
C444 C441 1.499 . S
C444 C445 1.373 . S
C444 C446 1.389 1_556 S
C445 H424 0.950 . S
C445 C444 1.373 . S
C445 C461 1.377 . S
C446 C444 1.389 1_554 S
C446 C447 1.524 . S
C446 C460 1.377 . S
C447 C446 1.524 . S
C447 C448 1.397 . S
C447 C452 1.363 . S
C448 H425 0.950 . S
C448 C447 1.397 . S
C448 C449 1.334 . S
C449 H426 0.950 . S
C449 C448 1.334 . S
C449 C450 1.287 . S
C450 C449 1.287 . S
C450 C451 1.524 . S
C450 H469 0.913 . S
C451 H427 0.950 . S
C451 C450 1.524 . S
C451 C452 1.415 . S
C452 H428 0.950 . S
C452 C447 1.363 . S
C452 C451 1.415 . S
C453 H429 0.951 . S
C453 C454 1.366 . S
C453 C455 1.388 . S
C454 C453 1.366 . S
C454 C458 1.385 . S
C455 H430 0.951 . S
C455 C453 1.388 . S
C455 C456 1.366 . S
C456 C455 1.366 . S
C456 C457 1.414 . S
C456 C459 1.499 . S
C457 H431 0.950 1_556 S
C457 C456 1.414 . S
C457 C458 1.374 . S
C458 H432 0.950 1_556 S
C458 C454 1.385 . S
C458 C457 1.374 . S
C459 C456 1.499 . S
C459 C460 1.373 1_556 S
C459 C461 1.389 . S
C460 H433 0.950 . S
C460 C446 1.377 . S
C460 C459 1.373 1_554 S
C461 C445 1.377 . S
C461 C459 1.389 . S
C461 C462 1.524 . S
C462 C461 1.524 . S
C462 C463 1.397 . S
C462 C467 1.363 . S
C463 H434 0.950 . S
C463 C462 1.397 . S
C463 C464 1.334 . S
C464 H435 0.950 . S
C464 C463 1.334 . S
C464 C465 1.287 . S
C465 C464 1.287 . S
C465 C466 1.524 . S
C465 H468 0.999 . S
C466 H436 0.950 . S
C466 C465 1.524 . S
C466 C467 1.415 . S
C467 H437 0.950 . S
C467 C462 1.363 . S
C467 C466 1.415 . S
H468 C465 0.999 . S
H469 C450 0.913 . S
H470 C488 0.951 . S
H471 C490 0.951 . S
H472 C492 0.950 . S
H473 C493 0.950 . S
H474 C495 0.950 . S
H475 C498 0.950 . S
H476 C499 0.950 . S
H477 C501 0.950 . S
H478 C502 0.950 . S
H479 C503 0.951 . S
H480 C505 0.951 . S
H481 C507 0.950 . S
H482 C508 0.950 . S
H483 C510 0.950 . S
H484 C513 0.950 1_556 S
H485 C514 0.950 . S
H486 C516 0.950 . S
H487 C517 0.950 . S
C488 H470 0.951 . S
C488 C489 1.352 1_556 S
C488 C490 1.388 . S
C489 C488 1.352 1_554 S
C489 C493 1.397 . S
C490 H471 0.951 . S
C490 C488 1.388 . S
C490 C491 1.366 . S
C491 C490 1.366 . S
C491 C492 1.414 1_556 S
C491 C494 1.499 . S
C492 H472 0.950 . S
C492 C491 1.414 1_554 S
C492 C493 1.374 . S
C493 H473 0.950 . S
C493 C489 1.397 . S
C493 C492 1.374 . S
C494 C491 1.499 . S
C494 C495 1.373 1_556 S
C494 C496 1.389 . S
C495 H474 0.950 . S
C495 C494 1.373 1_554 S
C495 C511 1.377 . S
C496 C494 1.389 . S
C496 C497 1.524 . S
C496 C510 1.377 . S
C497 C496 1.524 . S
C497 C498 1.397 . S
C497 C502 1.363 . S
C498 H475 0.950 . S
C498 C497 1.397 . S
C498 C499 1.334 . S
C499 H476 0.950 . S
C499 C498 1.334 . S
C499 C500 1.287 . S
C500 C499 1.287 . S
C500 C501 1.524 . S
C500 H519 0.913 . S
C501 H477 0.950 . S
C501 C500 1.524 . S
C501 C502 1.415 . S
C502 H478 0.950 . S
C502 C497 1.363 . S
C502 C501 1.415 . S
C503 H479 0.951 . S
C503 C504 1.366 1_554 S
C503 C505 1.388 . S
C504 C503 1.366 1_556 S
C504 C508 1.385 . S
C505 H480 0.951 . S
C505 C503 1.388 . S
C505 C506 1.366 1_554 S
C506 C505 1.366 1_556 S
C506 C507 1.414 . S
C506 C509 1.499 . S
C507 H481 0.950 . S
C507 C506 1.414 . S
C507 C508 1.374 . S
C508 H482 0.950 . S
C508 C504 1.385 . S
C508 C507 1.374 . S
C509 C506 1.499 . S
C509 C510 1.373 . S
C509 C511 1.389 1_556 S
C510 H483 0.950 . S
C510 C496 1.377 . S
C510 C509 1.373 . S
C511 C495 1.377 . S
C511 C509 1.389 1_554 S
C511 C512 1.524 . S
C512 C511 1.524 . S
C512 C513 1.397 . S
C512 C517 1.363 . S
C513 H484 0.950 1_554 S
C513 C512 1.397 . S
C513 C514 1.334 . S
C514 H485 0.950 . S
C514 C513 1.334 . S
C514 C515 1.287 . S
C515 C514 1.287 . S
C515 C516 1.524 . S
C515 H518 0.999 . S
C516 H486 0.950 . S
C516 C515 1.524 . S
C516 C517 1.415 . S
C517 H487 0.950 . S
C517 C512 1.363 . S
C517 C516 1.415 . S
H518 C515 0.999 . S
H519 C500 0.913 . S
H520 C538 0.951 . S
H521 C540 0.951 . S
H522 C542 0.950 . S
H523 C543 0.949 1_554 S
H524 C545 0.950 . S
H525 C548 0.950 . S
H526 C549 0.950 . S
H527 C551 0.950 . S
H528 C552 0.950 . S
H529 C553 0.951 . S
H530 C555 0.951 . S
H531 C557 0.950 . S
H532 C558 0.950 . S
H533 C560 0.950 . S
H534 C563 0.950 . S
H535 C564 0.950 . S
H536 C566 0.950 . S
H537 C567 0.950 . S
C538 H520 0.951 . S
C538 C539 1.366 . S
C538 C540 1.388 . S
C539 C538 1.366 . S
C539 C543 1.385 . S
C540 H521 0.951 . S
C540 C538 1.388 . S
C540 C541 1.366 . S
C541 C540 1.366 . S
C541 C542 1.414 1_556 S
C541 C544 1.499 . S
C542 H522 0.950 . S
C542 C541 1.414 1_554 S
C542 C543 1.374 1_554 S
C543 H523 0.949 1_556 S
C543 C539 1.385 . S
C543 C542 1.374 1_556 S
C544 C541 1.499 . S
C544 C545 1.373 1_556 S
C544 C546 1.389 . S
C545 H524 0.950 . S
C545 C544 1.373 1_554 S
C545 C561 1.377 . S
C546 C544 1.389 . S
C546 C547 1.524 . S
C546 C560 1.377 . S
C547 C546 1.524 . S
C547 C548 1.397 . S
C547 C552 1.363 . S
C548 H525 0.950 . S
C548 C547 1.397 . S
C548 C549 1.334 . S
C549 H526 0.950 . S
C549 C548 1.334 . S
C549 C550 1.287 . S
C550 C549 1.287 . S
C550 C551 1.524 . S
C550 H569 0.913 . S
C551 H527 0.950 . S
C551 C550 1.524 . S
C551 C552 1.415 . S
C552 H528 0.950 . S
C552 C547 1.363 . S
C552 C551 1.415 . S
C553 H529 0.951 . S
C553 C554 1.369 . S
C553 C555 1.388 . S
C554 C553 1.369 . S
C554 C558 1.381 1_554 S
C555 H530 0.951 . S
C555 C553 1.388 . S
C555 C556 1.366 1_554 S
C556 C555 1.366 1_556 S
C556 C557 1.414 . S
C556 C559 1.499 . S
C557 H531 0.950 . S
C557 C556 1.414 . S
C557 C558 1.374 . S
C558 H532 0.950 . S
C558 C554 1.381 1_556 S
C558 C557 1.374 . S
C559 C556 1.499 . S
C559 C560 1.373 . S
C559 C561 1.389 1_556 S
C560 H533 0.950 . S
C560 C546 1.377 . S
C560 C559 1.373 . S
C561 C545 1.377 . S
C561 C559 1.389 1_554 S
C561 C562 1.524 . S
C562 C561 1.524 . S
C562 C563 1.397 . S
C562 C567 1.363 . S
C563 H534 0.950 . S
C563 C562 1.397 . S
C563 C564 1.334 . S
C564 H535 0.950 . S
C564 C563 1.334 . S
C564 C565 1.287 . S
C565 C564 1.287 . S
C565 C566 1.524 . S
C565 H568 0.999 . S
C566 H536 0.950 . S
C566 C565 1.524 . S
C566 C567 1.415 . S
C567 H537 0.950 . S
C567 C562 1.363 . S
C567 C566 1.415 . S
H568 C565 0.999 . S
H569 C550 0.913 . S
H570 C588 0.951 . S
H571 C590 0.951 . S
H572 C592 0.950 1_554 S
H573 C593 0.950 1_554 S
H574 C595 0.950 . S
H575 C598 0.950 . S
H576 C599 0.950 . S
H577 C601 0.950 . S
H578 C602 0.950 . S
H579 C603 0.951 . S
H580 C605 0.951 . S
H581 C607 0.950 . S
H582 C608 0.950 . S
H583 C610 0.950 . S
H584 C613 0.950 . S
H585 C614 0.950 . S
H586 C616 0.950 . S
H587 C617 0.950 . S
C588 H570 0.951 . S
C588 C589 1.366 . S
C588 C590 1.388 . S
C589 C588 1.366 . S
C589 C593 1.385 . S
C590 H571 0.951 . S
C590 C588 1.388 . S
C590 C591 1.366 . S
C591 C590 1.366 . S
C591 C592 1.414 . S
C591 C594 1.499 . S
C592 H572 0.950 1_556 S
C592 C591 1.414 . S
C592 C593 1.374 . S
C593 H573 0.950 1_556 S
C593 C589 1.385 . S
C593 C592 1.374 . S
C594 C591 1.499 . S
C594 C595 1.373 1_556 S
C594 C596 1.389 . S
C595 H574 0.950 . S
C595 C594 1.373 1_554 S
C595 C611 1.377 . S
C596 C594 1.389 . S
C596 C597 1.524 . S
C596 C610 1.377 . S
C597 C596 1.524 . S
C597 C598 1.397 . S
C597 C602 1.363 . S
C598 H575 0.950 . S
C598 C597 1.397 . S
C598 C599 1.334 . S
C599 H576 0.950 . S
C599 C598 1.334 . S
C599 C600 1.287 . S
C600 C599 1.287 . S
C600 C601 1.524 . S
C600 H619 0.913 . S
C601 H577 0.950 . S
C601 C600 1.524 . S
C601 C602 1.415 . S
C602 H578 0.950 . S
C602 C597 1.363 . S
C602 C601 1.415 . S
C603 H579 0.951 . S
C603 C604 1.369 . S
C603 C605 1.388 . S
C604 C603 1.369 . S
C604 C608 1.382 1_554 S
C605 H580 0.951 . S
C605 C603 1.388 . S
C605 C606 1.366 1_554 S
C606 C605 1.366 1_556 S
C606 C607 1.414 . S
C606 C609 1.499 . S
C607 H581 0.950 . S
C607 C606 1.414 . S
C607 C608 1.374 . S
C608 H582 0.950 . S
C608 C604 1.382 1_556 S
C608 C607 1.374 . S
C609 C606 1.499 . S
C609 C610 1.373 . S
C609 C611 1.389 1_556 S
C610 H583 0.950 . S
C610 C596 1.377 . S
C610 C609 1.373 . S
C611 C595 1.377 . S
C611 C609 1.389 1_554 S
C611 C612 1.524 . S
C612 C611 1.524 . S
C612 C613 1.397 . S
C612 C617 1.363 . S
C613 H584 0.950 . S
C613 C612 1.397 . S
C613 C614 1.334 . S
C614 H585 0.950 . S
C614 C613 1.334 . S
C614 C615 1.287 . S
C615 C614 1.287 . S
C615 C616 1.524 . S
C615 H618 0.999 . S
C616 H586 0.950 . S
C616 C615 1.524 . S
C616 C617 1.415 . S
C617 H587 0.950 . S
C617 C612 1.363 . S
C617 C616 1.415 . S
H618 C615 0.999 . S
H619 C600 0.913 . S
H620 C638 0.951 . S
H621 C640 0.951 . S
H622 C642 0.950 . S
H623 C643 0.950 . S
H624 C645 0.950 . S
H625 C648 0.950 . S
H626 C649 0.950 . S
H627 C651 0.950 . S
H628 C652 0.950 . S
H629 C653 0.951 . S
H630 C655 0.951 . S
H631 C657 0.950 . S
H632 C658 0.950 . S
H633 C660 0.950 . S
H634 C663 0.950 . S
H635 C664 0.950 . S
H636 C666 0.950 . S
H637 C667 0.950 1_556 S
C638 H620 0.951 . S
C638 C639 1.366 1_554 S
C638 C640 1.388 . S
C639 C638 1.366 1_556 S
C639 C643 1.385 . S
C640 H621 0.951 . S
C640 C638 1.388 . S
C640 C641 1.366 1_554 S
C641 C640 1.366 1_556 S
C641 C642 1.414 . S
C641 C644 1.499 . S
C642 H622 0.950 . S
C642 C641 1.414 . S
C642 C643 1.374 . S
C643 H623 0.950 . S
C643 C639 1.385 . S
C643 C642 1.374 . S
C644 C641 1.499 . S
C644 C645 1.373 1_556 S
C644 C646 1.389 . S
C645 H624 0.950 . S
C645 C644 1.373 1_554 S
C645 C661 1.377 . S
C646 C644 1.389 . S
C646 C647 1.524 . S
C646 C660 1.377 . S
C647 C646 1.524 . S
C647 C648 1.397 . S
C647 C652 1.363 . S
C648 H625 0.950 . S
C648 C647 1.397 . S
C648 C649 1.334 . S
C649 H626 0.950 . S
C649 C648 1.334 . S
C649 C650 1.287 . S
C650 C649 1.287 . S
C650 C651 1.524 . S
C650 H669 0.913 . S
C651 H627 0.950 . S
C651 C650 1.524 . S
C651 C652 1.415 . S
C652 H628 0.950 . S
C652 C647 1.363 . S
C652 C651 1.415 . S
C653 H629 0.951 . S
C653 C654 1.360 1_556 S
C653 C655 1.388 . S
C654 C653 1.360 1_554 S
C654 C658 1.390 . S
C655 H630 0.951 . S
C655 C653 1.388 . S
C655 C656 1.366 . S
C656 C655 1.366 . S
C656 C657 1.414 1_556 S
C656 C659 1.499 . S
C657 H631 0.950 . S
C657 C656 1.414 1_554 S
C657 C658 1.374 . S
C658 H632 0.950 . S
C658 C654 1.390 . S
C658 C657 1.374 . S
C659 C656 1.499 . S
C659 C660 1.373 . S
C659 C661 1.389 1_556 S
C660 H633 0.950 . S
C660 C646 1.377 . S
C660 C659 1.373 . S
C661 C645 1.377 . S
C661 C659 1.389 1_554 S
C661 C662 1.524 . S
C662 C661 1.524 . S
C662 C663 1.397 . S
C662 C667 1.363 . S
C663 H634 0.950 . S
C663 C662 1.397 . S
C663 C664 1.334 . S
C664 H635 0.950 . S
C664 C663 1.334 . S
C664 C665 1.287 . S
C665 C664 1.287 . S
C665 C666 1.524 . S
C665 H668 0.999 . S
C666 H636 0.950 . S
C666 C665 1.524 . S
C666 C667 1.415 . S
C667 H637 0.950 1_554 S
C667 C662 1.363 . S
C667 C666 1.415 . S
H668 C665 0.999 . S
H669 C650 0.913 . S
H670 C688 0.951 . S
H671 C690 0.951 . S
H672 C692 0.950 . S
H673 C693 0.950 . S
H674 C695 0.950 . S
H675 C698 0.950 . S
H676 C699 0.950 . S
H677 C701 0.950 . S
H678 C702 0.950 . S
H679 C703 0.951 . S
H680 C705 0.951 . S
H681 C707 0.950 . S
H682 C708 0.950 . S
H683 C710 0.950 . S
H684 C713 0.950 . S
H685 C714 0.950 . S
H686 C716 0.950 . S
H687 C717 0.950 . S
C688 H670 0.951 . S
C688 C689 1.370 . S
C688 C690 1.388 . S
C689 C688 1.370 . S
C689 C693 1.380 1_554 S
C690 H671 0.951 . S
C690 C688 1.388 . S
C690 C691 1.366 1_554 S
C691 C690 1.366 1_556 S
C691 C692 1.414 . S
C691 C694 1.499 . S
C692 H672 0.950 . S
C692 C691 1.414 . S
C692 C693 1.374 . S
C693 H673 0.950 . S
C693 C689 1.380 1_556 S
C693 C692 1.374 . S
C694 C691 1.499 . S
C694 C695 1.373 . S
C694 C696 1.389 1_556 S
C695 H674 0.950 . S
C695 C694 1.373 . S
C695 C711 1.377 . S
C696 C694 1.389 1_554 S
C696 C697 1.524 . S
C696 C710 1.377 . S
C697 C696 1.524 . S
C697 C698 1.397 . S
C697 C702 1.363 . S
C698 H675 0.950 . S
C698 C697 1.397 . S
C698 C699 1.334 . S
C699 H676 0.950 . S
C699 C698 1.334 . S
C699 C700 1.287 . S
C700 C699 1.287 . S
C700 C701 1.524 . S
C700 H719 0.913 . S
C701 H677 0.950 . S
C701 C700 1.524 . S
C701 C702 1.415 . S
C702 H678 0.950 . S
C702 C697 1.363 . S
C702 C701 1.415 . S
C703 H679 0.951 . S
C703 C704 1.366 . S
C703 C705 1.388 . S
C704 C703 1.366 . S
C704 C708 1.385 1_556 S
C705 H680 0.951 . S
C705 C703 1.388 . S
C705 C706 1.366 . S
C706 C705 1.366 . S
C706 C707 1.414 1_556 S
C706 C709 1.499 . S
C707 H681 0.950 . S
C707 C706 1.414 1_554 S
C707 C708 1.374 . S
C708 H682 0.950 . S
C708 C704 1.385 1_554 S
C708 C707 1.374 . S
C709 C706 1.499 . S
C709 C710 1.373 1_556 S
C709 C711 1.389 . S
C710 H683 0.950 . S
C710 C696 1.377 . S
C710 C709 1.373 1_554 S
C711 C695 1.377 . S
C711 C709 1.389 . S
C711 C712 1.524 . S
C712 C711 1.524 . S
C712 C713 1.397 . S
C712 C717 1.363 . S
C713 H684 0.950 . S
C713 C712 1.397 . S
C713 C714 1.334 . S
C714 H685 0.950 . S
C714 C713 1.334 . S
C714 C715 1.287 . S
C715 C714 1.287 . S
C715 C716 1.524 . S
C715 H718 0.999 . S
C716 H686 0.950 . S
C716 C715 1.524 . S
C716 C717 1.415 . S
C717 H687 0.950 . S
C717 C712 1.363 . S
C717 C716 1.415 . S
H718 C715 0.999 . S
H719 C700 0.913 . S
H720 C738 0.951 . S
H721 C740 0.951 . S
H722 C742 0.950 . S
H723 C743 0.950 . S
H724 C745 0.950 . S
H725 C748 0.950 . S
H726 C749 0.950 . S
H727 C751 0.950 . S
H728 C752 0.950 . S
H729 C753 0.951 . S
H730 C755 0.951 . S
H731 C757 0.950 . S
H732 C758 0.950 . S
H733 C760 0.950 . S
H734 C763 0.950 . S
H735 C764 0.950 . S
H736 C766 0.950 . S
H737 C767 0.950 . S
C738 H720 0.951 . S
C738 C739 1.366 . S
C738 C740 1.388 . S
C739 C738 1.366 . S
C739 C743 1.385 . S
C740 H721 0.951 . S
C740 C738 1.388 . S
C740 C741 1.366 . S
C741 C740 1.366 . S
C741 C742 1.414 . S
C741 C744 1.499 . S
C742 H722 0.950 . S
C742 C741 1.414 . S
C742 C743 1.374 . S
C743 H723 0.950 . S
C743 C739 1.385 . S
C743 C742 1.374 . S
C744 C741 1.499 . S
C744 C745 1.373 . S
C744 C746 1.389 . S
C745 H724 0.950 . S
C745 C744 1.373 . S
C745 C761 1.377 . S
C746 C744 1.389 . S
C746 C747 1.524 . S
C746 C760 1.377 . S
C747 C746 1.524 . S
C747 C748 1.397 . S
C747 C752 1.363 . S
C748 H725 0.950 . S
C748 C747 1.397 . S
C748 C749 1.334 . S
C749 H726 0.950 . S
C749 C748 1.334 . S
C749 C750 1.287 . S
C750 C749 1.287 . S
C750 C751 1.524 . S
C750 H769 0.913 . S
C751 H727 0.950 . S
C751 C750 1.524 . S
C751 C752 1.415 . S
C752 H728 0.950 . S
C752 C747 1.363 . S
C752 C751 1.415 . S
C753 H729 0.951 . S
C753 C754 1.366 . S
C753 C755 1.388 . S
C754 C753 1.366 . S
C754 C758 1.385 . S
C755 H730 0.951 . S
C755 C753 1.388 . S
C755 C756 1.366 . S
C756 C755 1.366 . S
C756 C757 1.414 . S
C756 C759 1.499 . S
C757 H731 0.950 . S
C757 C756 1.414 . S
C757 C758 1.374 . S
C758 H732 0.950 . S
C758 C754 1.385 . S
C758 C757 1.374 . S
C759 C756 1.499 . S
C759 C760 1.373 . S
C759 C761 1.389 . S
C760 H733 0.950 . S
C760 C746 1.377 . S
C760 C759 1.373 . S
C761 C745 1.377 . S
C761 C759 1.389 . S
C761 C762 1.524 . S
C762 C761 1.524 . S
C762 C763 1.397 . S
C762 C767 1.363 . S
C763 H734 0.950 . S
C763 C762 1.397 . S
C763 C764 1.334 . S
C764 H735 0.950 . S
C764 C763 1.334 . S
C764 C765 1.287 . S
C765 C764 1.287 . S
C765 C766 1.524 . S
C765 H768 0.999 . S
C766 H736 0.950 . S
C766 C765 1.524 . S
C766 C767 1.415 . S
C767 H737 0.950 . S
C767 C762 1.363 . S
C767 C766 1.415 . S
H768 C765 0.999 . S
H769 C750 0.913 . S
H770 C788 0.951 . S
H771 C790 0.951 . S
H772 C792 0.950 . S
H773 C793 0.950 . S
H774 C795 0.950 . S
H775 C798 0.950 . S
H776 C799 0.950 . S
H777 C801 0.950 . S
H778 C802 0.950 . S
H779 C803 0.951 . S
H780 C805 0.951 . S
H781 C807 0.950 . S
H782 C808 0.950 . S
H783 C810 0.950 . S
H784 C813 0.950 . S
H785 C814 0.950 . S
H786 C816 0.950 . S
H787 C817 0.950 . S
C788 H770 0.951 . S
C788 C789 1.366 . S
C788 C790 1.388 . S
C789 C788 1.366 . S
C789 C793 1.385 . S
C790 H771 0.951 . S
C790 C788 1.388 . S
C790 C791 1.366 . S
C791 C790 1.366 . S
C791 C792 1.414 . S
C791 C794 1.499 . S
C792 H772 0.950 . S
C792 C791 1.414 . S
C792 C793 1.374 . S
C793 H773 0.950 . S
C793 C789 1.385 . S
C793 C792 1.374 . S
C794 C791 1.499 . S
C794 C795 1.373 . S
C794 C796 1.389 . S
C795 H774 0.950 . S
C795 C794 1.373 . S
C795 C811 1.377 . S
C796 C794 1.389 . S
C796 C797 1.524 . S
C796 C810 1.377 . S
C797 C796 1.524 . S
C797 C798 1.397 . S
C797 C802 1.363 . S
C798 H775 0.950 . S
C798 C797 1.397 . S
C798 C799 1.334 . S
C799 H776 0.950 . S
C799 C798 1.334 . S
C799 C800 1.287 . S
C800 C799 1.287 . S
C800 C801 1.524 . S
C800 H819 0.913 . S
C801 H777 0.950 . S
C801 C800 1.524 . S
C801 C802 1.415 . S
C802 H778 0.950 . S
C802 C797 1.363 . S
C802 C801 1.415 . S
C803 H779 0.951 . S
C803 C804 1.366 . S
C803 C805 1.388 . S
C804 C803 1.366 . S
C804 C808 1.385 . S
C805 H780 0.951 . S
C805 C803 1.388 . S
C805 C806 1.366 . S
C806 C805 1.366 . S
C806 C807 1.414 . S
C806 C809 1.499 . S
C807 H781 0.950 . S
C807 C806 1.414 . S
C807 C808 1.374 . S
C808 H782 0.950 . S
C808 C804 1.385 . S
C808 C807 1.374 . S
C809 C806 1.499 . S
C809 C810 1.373 . S
C809 C811 1.389 . S
C810 H783 0.950 . S
C810 C796 1.377 . S
C810 C809 1.373 . S
C811 C795 1.377 . S
C811 C809 1.389 . S
C811 C812 1.524 . S
C812 C811 1.524 . S
C812 C813 1.397 . S
C812 C817 1.363 . S
C813 H784 0.950 . S
C813 C812 1.397 . S
C813 C814 1.334 . S
C814 H785 0.950 . S
C814 C813 1.334 . S
C814 C815 1.287 . S
C815 C814 1.287 . S
C815 C816 1.524 . S
C815 H818 0.999 . S
C816 H786 0.950 . S
C816 C815 1.524 . S
C816 C817 1.415 . S
C817 H787 0.950 . S
C817 C812 1.363 . S
C817 C816 1.415 . S
H818 C815 0.999 . S
H819 C800 0.913 . S
H820 C838 0.951 . S
H821 C840 0.951 . S
H822 C842 0.950 . S
H823 C843 0.950 . S
H824 C845 0.950 . S
H825 C848 0.950 . S
H826 C849 0.950 . S
H827 C851 0.950 . S
H828 C852 0.950 . S
H829 C853 0.951 . S
H830 C855 0.951 . S
H831 C857 0.950 . S
H832 C858 0.950 . S
H833 C860 0.950 . S
H834 C863 0.950 . S
H835 C864 0.950 . S
H836 C866 0.950 . S
H837 C867 0.950 . S
C838 H820 0.951 . S
C838 C839 1.366 . S
C838 C840 1.388 . S
C839 C838 1.366 . S
C839 C843 1.385 . S
C840 H821 0.951 . S
C840 C838 1.388 . S
C840 C841 1.366 . S
C841 C840 1.366 . S
C841 C842 1.414 . S
C841 C844 1.499 . S
C842 H822 0.950 . S
C842 C841 1.414 . S
C842 C843 1.374 . S
C843 H823 0.950 . S
C843 C839 1.385 . S
C843 C842 1.374 . S
C844 C841 1.499 . S
C844 C845 1.373 . S
C844 C846 1.389 . S
C845 H824 0.950 . S
C845 C844 1.373 . S
C845 C861 1.377 . S
C846 C844 1.389 . S
C846 C847 1.524 . S
C846 C860 1.377 . S
C847 C846 1.524 . S
C847 C848 1.397 . S
C847 C852 1.363 . S
C848 H825 0.950 . S
C848 C847 1.397 . S
C848 C849 1.334 . S
C849 H826 0.950 . S
C849 C848 1.334 . S
C849 C850 1.287 . S
C850 C849 1.287 . S
C850 C851 1.524 . S
C850 H869 0.913 . S
C851 H827 0.950 . S
C851 C850 1.524 . S
C851 C852 1.415 . S
C852 H828 0.950 . S
C852 C847 1.363 . S
C852 C851 1.415 . S
C853 H829 0.951 . S
C853 C854 1.366 . S
C853 C855 1.388 . S
C854 C853 1.366 . S
C854 C858 1.385 . S
C855 H830 0.951 . S
C855 C853 1.388 . S
C855 C856 1.366 . S
C856 C855 1.366 . S
C856 C857 1.414 . S
C856 C859 1.499 . S
C857 H831 0.950 . S
C857 C856 1.414 . S
C857 C858 1.374 . S
C858 H832 0.950 . S
C858 C854 1.385 . S
C858 C857 1.374 . S
C859 C856 1.499 . S
C859 C860 1.373 . S
C859 C861 1.389 . S
C860 H833 0.950 . S
C860 C846 1.377 . S
C860 C859 1.373 . S
C861 C845 1.377 . S
C861 C859 1.389 . S
C861 C862 1.524 . S
C862 C861 1.524 . S
C862 C863 1.397 . S
C862 C867 1.363 . S
C863 H834 0.950 . S
C863 C862 1.397 . S
C863 C864 1.334 . S
C864 H835 0.950 . S
C864 C863 1.334 . S
C864 C865 1.287 . S
C865 C864 1.287 . S
C865 C866 1.524 . S
C865 H868 0.999 . S
C866 H836 0.950 . S
C866 C865 1.524 . S
C866 C867 1.415 . S
C867 H837 0.950 . S
C867 C862 1.363 . S
C867 C866 1.415 . S
H868 C865 0.999 . S
H869 C850 0.913 . S
H870 C888 0.951 . S
H871 C890 0.951 . S
H872 C892 0.950 . S
H873 C893 0.950 . S
H874 C895 0.950 . S
H875 C898 0.950 . S
H876 C899 0.950 . S
H877 C901 0.950 . S
H878 C902 0.950 . S
H879 C903 0.951 . S
H880 C905 0.951 . S
H881 C907 0.950 . S
H882 C908 0.950 . S
H883 C910 0.950 . S
H884 C913 0.950 . S
H885 C914 0.950 . S
H886 C916 0.950 . S
H887 C917 0.950 . S
C888 H870 0.951 . S
C888 C889 1.366 . S
C888 C890 1.388 . S
C889 C888 1.366 . S
C889 C893 1.385 . S
C890 H871 0.951 . S
C890 C888 1.388 . S
C890 C891 1.366 . S
C891 C890 1.366 . S
C891 C892 1.414 . S
C891 C894 1.499 . S
C892 H872 0.950 . S
C892 C891 1.414 . S
C892 C893 1.374 . S
C893 H873 0.950 . S
C893 C889 1.385 . S
C893 C892 1.374 . S
C894 C891 1.499 . S
C894 C895 1.373 . S
C894 C896 1.389 . S
C895 H874 0.950 . S
C895 C894 1.373 . S
C895 C911 1.377 . S
C896 C894 1.389 . S
C896 C897 1.524 . S
C896 C910 1.377 . S
C897 C896 1.524 . S
C897 C898 1.397 . S
C897 C902 1.363 . S
C898 H875 0.950 . S
C898 C897 1.397 . S
C898 C899 1.334 . S
C899 H876 0.950 . S
C899 C898 1.334 . S
C899 C900 1.287 . S
C900 C899 1.287 . S
C900 C901 1.524 . S
C900 H919 0.913 . S
C901 H877 0.950 . S
C901 C900 1.524 . S
C901 C902 1.415 . S
C902 H878 0.950 . S
C902 C897 1.363 . S
C902 C901 1.415 . S
C903 H879 0.951 . S
C903 C904 1.366 . S
C903 C905 1.388 . S
C904 C903 1.366 . S
C904 C908 1.385 . S
C905 H880 0.951 . S
C905 C903 1.388 . S
C905 C906 1.366 . S
C906 C905 1.366 . S
C906 C907 1.414 . S
C906 C909 1.499 . S
C907 H881 0.950 . S
C907 C906 1.414 . S
C907 C908 1.374 . S
C908 H882 0.950 . S
C908 C904 1.385 . S
C908 C907 1.374 . S
C909 C906 1.499 . S
C909 C910 1.373 . S
C909 C911 1.389 . S
C910 H883 0.950 . S
C910 C896 1.377 . S
C910 C909 1.373 . S
C911 C895 1.377 . S
C911 C909 1.389 . S
C911 C912 1.524 . S
C912 C911 1.524 . S
C912 C913 1.397 . S
C912 C917 1.363 . S
C913 H884 0.950 . S
C913 C912 1.397 . S
C913 C914 1.334 . S
C914 H885 0.950 . S
C914 C913 1.334 . S
C914 C915 1.287 . S
C915 C914 1.287 . S
C915 C916 1.524 . S
C915 H918 0.999 . S
C916 H886 0.950 . S
C916 C915 1.524 . S
C916 C917 1.415 . S
C917 H887 0.950 . S
C917 C912 1.363 . S
C917 C916 1.415 . S
H918 C915 0.999 . S
H919 C900 0.913 . S
H920 C938 0.951 . S
H921 C940 0.951 . S
H922 C942 0.950 . S
H923 C943 0.950 . S
H924 C945 0.950 . S
H925 C948 0.950 . S
H926 C949 0.950 . S
H927 C951 0.950 . S
H928 C952 0.950 . S
H929 C953 0.951 . S
H930 C955 0.951 . S
H931 C957 0.950 . S
H932 C958 0.950 . S
H933 C960 0.950 . S
H934 C963 0.950 . S
H935 C964 0.950 . S
H936 C966 0.950 . S
H937 C967 0.950 . S
C938 H920 0.951 . S
C938 C939 1.366 . S
C938 C940 1.388 . S
C939 C938 1.366 . S
C939 C943 1.385 . S
C940 H921 0.951 . S
C940 C938 1.388 . S
C940 C941 1.366 . S
C941 C940 1.366 . S
C941 C942 1.414 . S
C941 C944 1.499 . S
C942 H922 0.950 . S
C942 C941 1.414 . S
C942 C943 1.374 . S
C943 H923 0.950 . S
C943 C939 1.385 . S
C943 C942 1.374 . S
C944 C941 1.499 . S
C944 C945 1.373 . S
C944 C946 1.389 . S
C945 H924 0.950 . S
C945 C944 1.373 . S
C945 C961 1.377 . S
C946 C944 1.389 . S
C946 C947 1.524 . S
C946 C960 1.377 . S
C947 C946 1.524 . S
C947 C948 1.397 . S
C947 C952 1.363 . S
C948 H925 0.950 . S
C948 C947 1.397 . S
C948 C949 1.334 . S
C949 H926 0.950 . S
C949 C948 1.334 . S
C949 C950 1.287 . S
C950 C949 1.287 . S
C950 C951 1.524 . S
C950 H969 0.913 . S
C951 H927 0.950 . S
C951 C950 1.524 . S
C951 C952 1.415 . S
C952 H928 0.950 . S
C952 C947 1.363 . S
C952 C951 1.415 . S
C953 H929 0.951 . S
C953 C954 1.366 . S
C953 C955 1.388 . S
C954 C953 1.366 . S
C954 C958 1.385 . S
C955 H930 0.951 . S
C955 C953 1.388 . S
C955 C956 1.366 . S
C956 C955 1.366 . S
C956 C957 1.414 . S
C956 C959 1.499 . S
C957 H931 0.950 . S
C957 C956 1.414 . S
C957 C958 1.374 . S
C958 H932 0.950 . S
C958 C954 1.385 . S
C958 C957 1.374 . S
C959 C956 1.499 . S
C959 C960 1.373 . S
C959 C961 1.389 . S
C960 H933 0.950 . S
C960 C946 1.377 . S
C960 C959 1.373 . S
C961 C945 1.377 . S
C961 C959 1.389 . S
C961 C962 1.524 . S
C962 C961 1.524 . S
C962 C963 1.397 . S
C962 C967 1.363 . S
C963 H934 0.950 . S
C963 C962 1.397 . S
C963 C964 1.334 . S
C964 H935 0.950 . S
C964 C963 1.334 . S
C964 C965 1.287 . S
C965 C964 1.287 . S
C965 C966 1.524 . S
C965 H968 0.999 . S
C966 H936 0.950 . S
C966 C965 1.524 . S
C966 C967 1.415 . S
C967 H937 0.950 . S
C967 C962 1.363 . S
C967 C966 1.415 . S
H968 C965 0.999 . S
H969 C950 0.913 . S
H970 C988 0.951 . S
H971 C990 0.951 . S
H972 C992 0.950 . S
H973 C993 0.950 . S
H974 C995 0.950 . S
H975 C998 0.950 . S
H976 C999 0.950 . S
H977 C1001 0.950 . S
H978 C1002 0.950 . S
H979 C1003 0.951 . S
H980 C1005 0.951 . S
H981 C1007 0.950 . S
H982 C1008 0.950 . S
H983 C1010 0.950 . S
H984 C1013 0.950 . S
H985 C1014 0.950 . S
H986 C1016 0.950 . S
H987 C1017 0.950 . S
C988 H970 0.951 . S
C988 C989 1.366 . S
C988 C990 1.388 . S
C989 C988 1.366 . S
C989 C993 1.385 . S
C990 H971 0.951 . S
C990 C988 1.388 . S
C990 C991 1.366 . S
C991 C990 1.366 . S
C991 C992 1.414 . S
C991 C994 1.499 . S
C992 H972 0.950 . S
C992 C991 1.414 . S
C992 C993 1.374 . S
C993 H973 0.950 . S
C993 C989 1.385 . S
C993 C992 1.374 . S
C994 C991 1.499 . S
C994 C995 1.373 . S
C994 C996 1.389 . S
C995 H974 0.950 . S
C995 C994 1.373 . S
C995 C1011 1.377 . S
C996 C994 1.389 . S
C996 C997 1.524 . S
C996 C1010 1.377 . S
C997 C996 1.524 . S
C997 C998 1.397 . S
C997 C1002 1.363 . S
C998 H975 0.950 . S
C998 C997 1.397 . S
C998 C999 1.334 . S
C999 H976 0.950 . S
C999 C998 1.334 . S
C999 C1000 1.287 . S
C1000 C999 1.287 . S
C1000 C1001 1.524 . S
C1000 H1019 0.913 . S
C1001 H977 0.950 . S
C1001 C1000 1.524 . S
C1001 C1002 1.415 . S
C1002 H978 0.950 . S
C1002 C997 1.363 . S
C1002 C1001 1.415 . S
C1003 H979 0.951 . S
C1003 C1004 1.366 . S
C1003 C1005 1.388 . S
C1004 C1003 1.366 . S
C1004 C1008 1.385 . S
C1005 H980 0.951 . S
C1005 C1003 1.388 . S
C1005 C1006 1.366 . S
C1006 C1005 1.366 . S
C1006 C1007 1.414 . S
C1006 C1009 1.499 . S
C1007 H981 0.950 . S
C1007 C1006 1.414 . S
C1007 C1008 1.374 . S
C1008 H982 0.950 . S
C1008 C1004 1.385 . S
C1008 C1007 1.374 . S
C1009 C1006 1.499 . S
C1009 C1010 1.373 . S
C1009 C1011 1.389 . S
C1010 H983 0.950 . S
C1010 C996 1.377 . S
C1010 C1009 1.373 . S
C1011 C995 1.377 . S
C1011 C1009 1.389 . S
C1011 C1012 1.524 . S
C1012 C1011 1.524 . S
C1012 C1013 1.397 . S
C1012 C1017 1.363 . S
C1013 H984 0.950 . S
C1013 C1012 1.397 . S
C1013 C1014 1.334 . S
C1014 H985 0.950 . S
C1014 C1013 1.334 . S
C1014 C1015 1.287 . S
C1015 C1014 1.287 . S
C1015 C1016 1.524 . S
C1015 H1018 0.999 . S
C1016 H986 0.950 . S
C1016 C1015 1.524 . S
C1016 C1017 1.415 . S
C1017 H987 0.950 . S
C1017 C1012 1.363 . S
C1017 C1016 1.415 . S
H1018 C1015 0.999 . S
H1019 C1000 0.913 . S
C139 C104 1.295 . S
C154 C12 1.302 . S
C189 C4 1.295 . S
C204 C32 1.302 . S
C239 C24 1.295 . S
C254 C52 1.302 . S
C289 C72 1.302 . S
C304 C44 1.295 . S
C339 C92 1.302 . S
C354 C64 1.295 . S
C389 C84 1.295 . S
C404 C112 1.302 . S
C439 C82 1.660 . S
C454 C9 1.716 . S
C489 C102 1.660 . S
C504 C29 1.717 . S
C539 C49 1.716 . S
C554 C2 1.660 . S
C589 C69 1.716 . S
C604 C22 1.660 . S
C639 C89 1.716 . S
C654 C42 1.660 . S
C689 C62 1.660 . S
C704 C109 1.716 . S
C739 C18 1.492 . S
C754 C19 1.492 . S
C789 C38 1.492 . S
C804 C39 1.492 . S
C839 C58 1.492 . S
C854 C59 1.492 . S
C889 C78 1.492 . S
C904 C79 1.492 . S
C939 C99 1.492 . S
C954 C98 1.492 . S
C989 C118 1.492 . S
C1004 C119 1.492 . S
