# Generated by pormake.
# Topology wiv, (6)-cn, num edge types: 1
# Building blocks:
#     Node 0, Type 0, BuildingBlock: BETDIP_clean_sbu_0, # of connection points: 6
#     Node 1, Type 0, BuildingBlock: BETDIP_clean_sbu_0, # of connection points: 6
#     Node 2, Type 0, BuildingBlock: BETDIP_clean_sbu_0, # of connection points: 6
#     Node 3, Type 0, BuildingBlock: BETDIP_clean_sbu_0, # of connection points: 6
#     Node 4, Type 0, BuildingBlock: BETDIP_clean_sbu_0, # of connection points: 6
#     Node 5, Type 0, BuildingBlock: BETDIP_clean_sbu_0, # of connection points: 6
#     Node 6, Type 0, BuildingBlock: BETDIP_clean_sbu_0, # of connection points: 6
#     Node 7, Type 0, BuildingBlock: BETDIP_clean_sbu_0, # of connection points: 6
#     Node 8, Type 0, BuildingBlock: BETDIP_clean_sbu_0, # of connection points: 6
#     Node 9, Type 0, BuildingBlock: BETDIP_clean_sbu_0, # of connection points: 6
#     Node 10, Type 0, BuildingBlock: BETDIP_clean_sbu_0, # of connection points: 6
#     Node 11, Type 0, BuildingBlock: BETDIP_clean_sbu_0, # of connection points: 6
#     Node 12, Type 0, BuildingBlock: BETDIP_clean_sbu_0, # of connection points: 6
#     Node 13, Type 0, BuildingBlock: BETDIP_clean_sbu_0, # of connection points: 6
#     Node 14, Type 0, BuildingBlock: BETDIP_clean_sbu_0, # of connection points: 6
#     Node 15, Type 0, BuildingBlock: BETDIP_clean_sbu_0, # of connection points: 6
#     Edge 16, Type (0, 0), BuildingBlock: KIFKEQ_clean_linker_1, # of connection points: 2
#     Edge 17, Type (0, 0), BuildingBlock: KIFKEQ_clean_linker_1, # of connection points: 2
#     Edge 18, Type (0, 0), BuildingBlock: KIFKEQ_clean_linker_1, # of connection points: 2
#     Edge 19, Type (0, 0), BuildingBlock: KIFKEQ_clean_linker_1, # of connection points: 2
#     Edge 20, Type (0, 0), BuildingBlock: KIFKEQ_clean_linker_1, # of connection points: 2
#     Edge 21, Type (0, 0), BuildingBlock: KIFKEQ_clean_linker_1, # of connection points: 2
#     Edge 22, Type (0, 0), BuildingBlock: KIFKEQ_clean_linker_1, # of connection points: 2
#     Edge 23, Type (0, 0), BuildingBlock: KIFKEQ_clean_linker_1, # of connection points: 2
#     Edge 24, Type (0, 0), BuildingBlock: KIFKEQ_clean_linker_1, # of connection points: 2
#     Edge 25, Type (0, 0), BuildingBlock: KIFKEQ_clean_linker_1, # of connection points: 2
#     Edge 26, Type (0, 0), BuildingBlock: KIFKEQ_clean_linker_1, # of connection points: 2
#     Edge 27, Type (0, 0), BuildingBlock: KIFKEQ_clean_linker_1, # of connection points: 2
#     Edge 28, Type (0, 0), BuildingBlock: KIFKEQ_clean_linker_1, # of connection points: 2
#     Edge 29, Type (0, 0), BuildingBlock: KIFKEQ_clean_linker_1, # of connection points: 2
#     Edge 30, Type (0, 0), BuildingBlock: KIFKEQ_clean_linker_1, # of connection points: 2
#     Edge 31, Type (0, 0), BuildingBlock: KIFKEQ_clean_linker_1, # of connection points: 2
#     Edge 32, Type (0, 0), BuildingBlock: KIFKEQ_clean_linker_1, # of connection points: 2
#     Edge 33, Type (0, 0), BuildingBlock: KIFKEQ_clean_linker_1, # of connection points: 2
#     Edge 34, Type (0, 0), BuildingBlock: KIFKEQ_clean_linker_1, # of connection points: 2
#     Edge 35, Type (0, 0), BuildingBlock: KIFKEQ_clean_linker_1, # of connection points: 2
#     Edge 36, Type (0, 0), BuildingBlock: KIFKEQ_clean_linker_1, # of connection points: 2
#     Edge 37, Type (0, 0), BuildingBlock: KIFKEQ_clean_linker_1, # of connection points: 2
#     Edge 38, Type (0, 0), BuildingBlock: KIFKEQ_clean_linker_1, # of connection points: 2
#     Edge 39, Type (0, 0), BuildingBlock: KIFKEQ_clean_linker_1, # of connection points: 2
#     Edge 40, Type (0, 0), BuildingBlock: KIFKEQ_clean_linker_1, # of connection points: 2
#     Edge 41, Type (0, 0), BuildingBlock: KIFKEQ_clean_linker_1, # of connection points: 2
#     Edge 42, Type (0, 0), BuildingBlock: KIFKEQ_clean_linker_1, # of connection points: 2
#     Edge 43, Type (0, 0), BuildingBlock: KIFKEQ_clean_linker_1, # of connection points: 2
#     Edge 44, Type (0, 0), BuildingBlock: KIFKEQ_clean_linker_1, # of connection points: 2
#     Edge 45, Type (0, 0), BuildingBlock: KIFKEQ_clean_linker_1, # of connection points: 2
#     Edge 46, Type (0, 0), BuildingBlock: KIFKEQ_clean_linker_1, # of connection points: 2
#     Edge 47, Type (0, 0), BuildingBlock: KIFKEQ_clean_linker_1, # of connection points: 2
#     Edge 48, Type (0, 0), BuildingBlock: KIFKEQ_clean_linker_1, # of connection points: 2
#     Edge 49, Type (0, 0), BuildingBlock: KIFKEQ_clean_linker_1, # of connection points: 2
#     Edge 50, Type (0, 0), BuildingBlock: KIFKEQ_clean_linker_1, # of connection points: 2
#     Edge 51, Type (0, 0), BuildingBlock: KIFKEQ_clean_linker_1, # of connection points: 2
#     Edge 52, Type (0, 0), BuildingBlock: KIFKEQ_clean_linker_1, # of connection points: 2
#     Edge 53, Type (0, 0), BuildingBlock: KIFKEQ_clean_linker_1, # of connection points: 2
#     Edge 54, Type (0, 0), BuildingBlock: KIFKEQ_clean_linker_1, # of connection points: 2
#     Edge 55, Type (0, 0), BuildingBlock: KIFKEQ_clean_linker_1, # of connection points: 2
#     Edge 56, Type (0, 0), BuildingBlock: KIFKEQ_clean_linker_1, # of connection points: 2
#     Edge 57, Type (0, 0), BuildingBlock: KIFKEQ_clean_linker_1, # of connection points: 2
#     Edge 58, Type (0, 0), BuildingBlock: KIFKEQ_clean_linker_1, # of connection points: 2
#     Edge 59, Type (0, 0), BuildingBlock: KIFKEQ_clean_linker_1, # of connection points: 2
#     Edge 60, Type (0, 0), BuildingBlock: KIFKEQ_clean_linker_1, # of connection points: 2
#     Edge 61, Type (0, 0), BuildingBlock: KIFKEQ_clean_linker_1, # of connection points: 2
#     Edge 62, Type (0, 0), BuildingBlock: KIFKEQ_clean_linker_1, # of connection points: 2
#     Edge 63, Type (0, 0), BuildingBlock: KIFKEQ_clean_linker_1, # of connection points: 2
# Relax obj value: 0.126
# Max RMSD: 0.182
# Mean RMSD: 0.182
data_MOF--net-wiv--node1-BETDIP_clean_sbu_0--edge1-KIFKEQ_clean_linker_1
_symmetry_space_group_name_H-M    P1
_symmetry_Int_Tables_number       1
_symmetry_cell_setting            triclinic
loop_
_symmetry_equiv_pos_as_xyz
'x, y, z'
_cell_length_a     50.762842
_cell_length_b     50.794759
_cell_length_c     24.705777
_cell_angle_alpha  90.038006
_cell_angle_beta   90.100716
_cell_angle_gamma 89.925473
loop_
_atom_site_label
_atom_site_type_symbol
_atom_site_fract_x
_atom_site_fract_y
_atom_site_fract_z
_atom_type_partial_charge
Tb0 Tb 0.35595 0.11621 0.1776 0.0
Tb1 Tb 0.39334 0.12732 0.08879 0.0
C2 C 0.33581 0.09931 0.26414 0.0
C3 C 0.34138 0.10347 0.32228 0.0
C4 C 0.33885 0.08242 0.35858 0.0
C5 C 0.34466 0.08579 0.41359 0.0
C6 C 0.35309 0.11036 0.43365 0.0
C7 C 0.35565 0.13141 0.39689 0.0
C8 C 0.35001 0.12797 0.34182 0.0
C9 C 0.35675 0.16624 0.14804 0.0
C10 C 0.41681 0.13056 0.20332 0.0
C11 C 0.41455 0.14287 1.00229 0.0
C12 C 0.40803 0.13972 0.94439 0.0
C13 C 0.42048 0.15547 0.90554 0.0
C14 C 0.41445 0.15255 0.85048 0.0
C15 C 0.39566 0.13395 0.83329 0.0
C16 C 0.38314 0.11829 0.87251 0.0
C17 C 0.38941 0.12101 0.92744 0.0
C18 C 0.39261 0.07792 0.12311 0.0
C19 C 0.33307 0.11403 0.06087 0.0
O20 O 0.35395 0.08672 0.2371 0.0
O21 O 0.32665 0.11949 0.23715 0.0
O22 O 0.37652 0.1512 0.15157 0.0
O23 O 0.3361 0.15343 0.16358 0.0
O24 O 0.39462 0.11905 0.219 0.0
O25 O 0.41943 0.13969 0.15355 0.0
O26 O 0.3982 0.15719 1.03075 0.0
O27 O 0.42137 0.12136 1.02774 0.0
O28 O 0.37306 0.09283 0.11633 0.0
O29 O 0.41358 0.0902 0.10751 0.0
O30 O 0.35523 0.12586 0.04708 0.0
O31 O 0.32988 0.10463 0.11054 0.0
H32 H 0.33255 0.06326 0.34425 0.0
H33 H 0.34293 0.06896 0.44022 0.0
H34 H 0.36176 0.1507 0.41067 0.0
H35 H 0.3524 0.14448 0.31453 0.0
H36 H 0.4349 0.17002 0.91779 0.0
H37 H 0.42428 0.16508 0.8214 0.0
H38 H 0.3688 0.10359 0.86066 0.0
H39 H 0.37978 0.10843 0.95668 0.0
Tb40 Tb 0.12485 0.63302 0.98388 0.0
Tb41 Tb 0.1169 0.67151 0.89493 0.0
C42 C 0.13903 0.61139 0.07079 0.0
C43 C 0.13667 0.61834 0.12905 0.0
C44 C 0.1529 0.63761 0.15285 0.0
C45 C 0.15009 0.64424 0.20758 0.0
C46 C 0.13099 0.6318 0.23982 0.0
C47 C 0.11493 0.61241 0.21611 0.0
C48 C 0.11783 0.60568 0.1615 0.0
C49 C 0.07646 0.63522 0.94529 0.0
C50 C 0.11321 0.69376 1.01191 0.0
C51 C 0.10365 0.69444 0.80836 0.0
C52 C 0.105 0.68822 0.74995 0.0
C53 C 0.09964 0.6628 0.73046 0.0
C54 C 0.10202 0.65704 0.67527 0.0
C55 C 0.10968 0.67663 0.63818 0.0
C56 C 0.11468 0.70217 0.6579 0.0
C57 C 0.11241 0.70785 0.71317 0.0
C58 C 0.16596 0.66788 0.93075 0.0
C59 C 0.1283 0.61013 0.86901 0.0
O60 O 0.15466 0.62593 0.04108 0.0
O61 O 0.11705 0.60577 0.04559 0.0
O62 O 0.09161 0.6545 0.95323 0.0
O63 O 0.08774 0.61391 0.9624 0.0
O64 O 0.12311 0.67079 1.0269 0.0
O65 O 0.10581 0.69797 0.96115 0.0
O66 O 0.08758 0.68034 0.83772 0.0
O67 O 0.12622 0.69809 0.83261 0.0
O68 O 0.15012 0.64916 0.92328 0.0
O69 O 0.15439 0.68958 0.91691 0.0
O70 O 0.11765 0.63279 0.85318 0.0
O71 O 0.13691 0.60693 0.91907 0.0
H72 H 0.16766 0.64777 0.12919 0.0
H73 H 0.16263 0.65941 0.22447 0.0
H74 H 0.10028 0.60218 0.23997 0.0
H75 H 0.10521 0.59057 0.14459 0.0
H76 H 0.09376 0.64734 0.75793 0.0
H77 H 0.09831 0.63708 0.66188 0.0
H78 H 0.12018 0.71789 0.63059 0.0
H79 H 0.11656 0.72763 0.72725 0.0
Tb80 Tb 0.67266 0.90936 0.17043 0.0
Tb81 Tb 0.63363 0.90323 0.08121 0.0
C82 C 0.69545 0.92088 0.25801 0.0
C83 C 0.6883 0.92042 0.31609 0.0
C84 C 0.66633 0.9342 0.33612 0.0
C85 C 0.65981 0.93292 0.39114 0.0
C86 C 0.67503 0.91776 0.42734 0.0
C87 C 0.69699 0.90403 0.40693 0.0
C88 C 0.70358 0.90546 0.3521 0.0
C89 C 0.66917 0.86126 0.13025 0.0
C90 C 0.61149 0.89805 0.19663 0.0
C91 C 0.61144 0.88925 0.99462 0.0
C92 C 0.61784 0.89152 0.93646 0.0
C93 C 0.64395 0.88967 0.91798 0.0
C94 C 0.64978 0.893 0.86309 0.0
C95 C 0.62959 0.89793 0.82535 0.0
C96 C 0.60342 0.89937 0.84386 0.0
C97 C 0.59764 0.8963 0.89891 0.0
C98 C 0.63544 0.95057 0.12435 0.0
C99 C 0.69448 0.9159 0.05384 0.0
O100 O 0.68362 0.93816 0.22715 0.0
O101 O 0.69737 0.89792 0.23449 0.0
O102 O 0.65033 0.87684 0.13922 0.0
O103 O 0.6909 0.87258 0.14475 0.0
O104 O 0.63429 0.90819 0.21278 0.0
O105 O 0.60784 0.89052 0.14595 0.0
O106 O 0.62654 0.87373 1.02358 0.0
O107 O 0.6062 0.91136 1.0196 0.0
O108 O 0.65487 0.93576 0.11482 0.0
O109 O 0.61416 0.93968 0.10587 0.0
O110 O 0.67097 0.90792 0.03747 0.0
O111 O 0.69959 0.92049 0.10557 0.0
H112 H 0.65413 0.94593 0.30937 0.0
H113 H 0.64297 0.94404 0.40534 0.0
H114 H 0.70892 0.89177 0.43313 0.0
H115 H 0.72055 0.89458 0.33764 0.0
H116 H 0.65992 0.88567 0.94584 0.0
H117 H 0.67009 0.89143 0.8501 0.0
H118 H 0.58744 0.90336 0.81591 0.0
H119 H 0.57738 0.89787 0.91226 0.0
Tb120 Tb 0.90413 0.39511 0.98304 0.0
Tb121 Tb 0.91268 0.35643 0.8946 0.0
C122 C 0.88964 0.41695 0.06962 0.0
C123 C 0.8926 0.41022 0.12745 0.0
C124 C 0.87501 0.42059 0.16559 0.0
C125 C 0.87755 0.4142 0.22052 0.0
C126 C 0.89771 0.3972 0.23839 0.0
C127 C 0.91523 0.38674 0.19981 0.0
C128 C 0.91274 0.39324 0.14496 0.0
C129 C 0.95265 0.3932 0.94492 0.0
C130 C 0.91666 0.33462 1.01169 0.0
C131 C 0.92703 0.33488 0.8075 0.0
C132 C 0.92359 0.34093 0.74918 0.0
C133 C 0.94585 0.34401 0.71616 0.0
C134 C 0.94311 0.35005 0.66113 0.0
C135 C 0.91797 0.35306 0.63767 0.0
C136 C 0.89569 0.34992 0.67092 0.0
C137 C 0.89845 0.34401 0.726 0.0
C138 C 0.86353 0.35933 0.92959 0.0
C139 C 0.89968 0.41747 0.86777 0.0
O140 O 0.87455 0.40128 0.04117 0.0
O141 O 0.91134 0.42294 0.04397 0.0
O142 O 0.93764 0.37386 0.9531 0.0
O143 O 0.94115 0.41447 0.96156 0.0
O144 O 0.90615 0.35741 1.02608 0.0
O145 O 0.92456 0.3305 0.96123 0.0
O146 O 0.94172 0.35124 0.83498 0.0
O147 O 0.90604 0.32792 0.83456 0.0
O148 O 0.87908 0.37832 0.92249 0.0
O149 O 0.87524 0.33787 0.91474 0.0
O150 O 0.91029 0.3948 0.85206 0.0
O151 O 0.89155 0.42091 0.91807 0.0
H152 H 0.85925 0.43361 0.15287 0.0
H153 H 0.86348 0.42233 0.24891 0.0
H154 H 0.93115 0.37383 0.21206 0.0
H155 H 0.92657 0.38499 0.11621 0.0
H156 H 0.96546 0.34191 0.73308 0.0
H157 H 0.96073 0.35273 0.63715 0.0
H158 H 0.87602 0.35172 0.65429 0.0
H159 H 0.88085 0.34184 0.75031 0.0
Tb160 Tb 0.35675 0.41455 0.14599 0.0
Tb161 Tb 0.39517 0.40445 0.23427 0.0
C162 C 0.33505 0.43044 0.05996 0.0
C163 C 0.34131 0.42925 1.00144 0.0
C164 C 0.36647 0.43558 0.98172 0.0
C165 C 0.37228 0.43298 0.92653 0.0
C166 C 0.35299 0.42419 0.88961 0.0
C167 C 0.32765 0.41843 0.90952 0.0
C168 C 0.32194 0.42087 0.96473 0.0
C169 C 0.35733 0.36525 0.18026 0.0
C170 C 0.41737 0.39938 0.11927 0.0
C171 C 0.41663 0.39041 0.32159 0.0
C172 C 0.4098 0.39334 0.37989 0.0
C173 C 0.39083 0.37712 0.40459 0.0
C174 C 0.3844 0.38038 0.45935 0.0
C175 C 0.39673 0.39994 0.49079 0.0
C176 C 0.41579 0.41602 0.46615 0.0
C177 C 0.42233 0.41267 0.41153 0.0
C178 C 0.39497 0.45281 0.19489 0.0
C179 C 0.33502 0.41827 0.2634 0.0
O180 O 0.35008 0.4452 0.09053 0.0
O181 O 0.32966 0.40796 0.08298 0.0
O182 O 0.3772 0.37988 0.17415 0.0
O183 O 0.33651 0.37813 0.16537 0.0
O184 O 0.39517 0.41111 0.10374 0.0
O185 O 0.42041 0.39078 0.16939 0.0
O186 O 0.40177 0.37488 0.2922 0.0
O187 O 0.42269 0.41206 0.29581 0.0
O188 O 0.37518 0.43865 0.2045 0.0
O189 O 0.41598 0.44027 0.20981 0.0
O190 O 0.35771 0.40753 0.27775 0.0
O191 O 0.33079 0.42601 0.21287 0.0
H192 H 0.38172 0.44233 1.00902 0.0
H193 H 0.39208 0.43736 0.91306 0.0
H194 H 0.3121 0.41213 0.88242 0.0
H195 H 0.30234 0.41603 0.97888 0.0
H196 H 0.38079 0.36199 0.38161 0.0
H197 H 0.36948 0.3678 0.47689 0.0
H198 H 0.42595 0.43101 0.48931 0.0
H199 H 0.43722 0.42531 0.394 0.0
Tb200 Tb 0.40537 0.63192 0.82732 0.0
Tb201 Tb 0.41053 0.67058 0.91659 0.0
C202 C 0.39147 0.60993 0.74073 0.0
C203 C 0.39489 0.61633 0.68295 0.0
C204 C 0.37458 0.61083 0.64619 0.0
C205 C 0.3773 0.61726 0.59142 0.0
C206 C 0.40048 0.62925 0.57222 0.0
C207 C 0.42078 0.6348 0.60945 0.0
C208 C 0.41795 0.62852 0.66424 0.0
C209 C 0.45277 0.63449 0.87012 0.0
C210 C 0.41697 0.69281 0.79976 0.0
C211 C 0.42182 0.69374 1.0038 0.0
C212 C 0.42111 0.68693 0.06203 0.0
C213 C 0.43658 0.66646 0.0836 0.0
C214 C 0.43527 0.66031 0.13877 0.0
C215 C 0.41837 0.67437 0.17357 0.0
C216 C 0.40294 0.69481 0.15168 0.0
C217 C 0.40441 0.70108 0.0967 0.0
C218 C 0.36254 0.66642 0.87595 0.0
C219 C 0.40032 0.60907 0.94233 0.0
O220 O 0.37623 0.62591 0.7681 0.0
O221 O 0.41286 0.60366 0.76749 0.0
O222 O 0.43755 0.6537 0.86124 0.0
O223 O 0.44237 0.61318 0.85075 0.0
O224 O 0.40985 0.66912 0.78297 0.0
O225 O 0.42106 0.69787 0.85172 0.0
O226 O 0.43915 0.6816 0.97362 0.0
O227 O 0.39897 0.69572 0.97974 0.0
O228 O 0.37837 0.64779 0.88523 0.0
O229 O 0.3736 0.68829 0.89028 0.0
O230 O 0.40896 0.63229 0.95959 0.0
O231 O 0.39375 0.60527 0.89118 0.0
H232 H 0.35651 0.6017 0.65993 0.0
H233 H 0.36104 0.61314 0.5643 0.0
H234 H 0.43903 0.64371 0.59626 0.0
H235 H 0.43384 0.63318 0.69196 0.0
H236 H 0.4497 0.65517 0.05798 0.0
H237 H 0.44773 0.64471 0.15418 0.0
H238 H 0.38935 0.70578 0.17681 0.0
H239 H 0.39227 0.71692 0.0811 0.0
Tb240 Tb 0.67176 0.61484 0.1454 0.0
Tb241 Tb 0.63338 0.62387 0.23411 0.0
C242 C 0.69295 0.59982 0.05843 0.0
C243 C 0.68701 0.60351 1.00024 0.0
C244 C 0.68731 0.58171 0.96537 0.0
C245 C 0.68128 0.58464 0.91036 0.0
C246 C 0.6749 0.60952 0.88882 0.0
C247 C 0.6746 0.63135 0.92405 0.0
C248 C 0.68045 0.62836 0.97912 0.0
C249 C 0.66906 0.66421 0.17896 0.0
C250 C 0.61071 0.62807 0.11887 0.0
C251 C 0.61152 0.63862 0.32051 0.0
C252 C 0.61796 0.6355 0.37844 0.0
C253 C 0.60678 0.65248 0.41682 0.0
C254 C 0.61298 0.64982 0.47184 0.0
C255 C 0.63067 0.63023 0.48946 0.0
C256 C 0.64189 0.61328 0.4507 0.0
C257 C 0.63546 0.6158 0.39581 0.0
C258 C 0.63522 0.57517 0.19674 0.0
C259 C 0.69398 0.61138 0.26234 0.0
O260 O 0.67604 0.5857 0.08557 0.0
O261 O 0.70051 0.62059 0.08561 0.0
O262 O 0.64998 0.64863 0.17297 0.0
O263 O 0.69042 0.65238 0.16391 0.0
O264 O 0.6333 0.61732 0.10308 0.0
O265 O 0.60746 0.63635 0.16914 0.0
O266 O 0.62758 0.65344 0.29253 0.0
O267 O 0.60529 0.61704 0.29459 0.0
O268 O 0.65453 0.59026 0.20462 0.0
O269 O 0.61397 0.58674 0.2133 0.0
O270 O 0.67125 0.62196 0.27689 0.0
O271 O 0.69791 0.60327 0.21194 0.0
H272 H 0.69203 0.5623 0.98083 0.0
H273 H 0.68125 0.56728 0.88492 0.0
H274 H 0.67013 0.65087 0.90904 0.0
H275 H 0.67984 0.64554 1.00512 0.0
H276 H 0.59328 0.66784 0.40423 0.0
H277 H 0.6042 0.66335 0.50052 0.0
H278 H 0.65535 0.59782 0.46288 0.0
H279 H 0.64421 0.60236 0.36688 0.0
Tb280 Tb 0.62491 0.39393 0.83563 0.0
Tb281 Tb 0.61658 0.35534 0.92416 0.0
C282 C 0.63929 0.41591 0.74921 0.0
C283 C 0.63628 0.40935 0.69132 0.0
C284 C 0.65336 0.42039 0.65306 0.0
C285 C 0.65075 0.41416 0.59805 0.0
C286 C 0.63106 0.39664 0.58027 0.0
C287 C 0.61405 0.38554 0.61895 0.0
C288 C 0.61658 0.3919 0.67386 0.0
C289 C 0.57643 0.39206 0.87386 0.0
C290 C 0.61282 0.33332 0.80716 0.0
C291 C 0.60232 0.33384 1.01126 0.0
C292 C 0.60565 0.34009 0.06948 0.0
C293 C 0.58341 0.34167 0.103 0.0
C294 C 0.58604 0.3479 0.15798 0.0
C295 C 0.61104 0.35259 0.18085 0.0
C296 C 0.63329 0.351 0.14704 0.0
C297 C 0.63063 0.34492 0.09201 0.0
C298 C 0.66574 0.35843 0.88927 0.0
C299 C 0.62925 0.4164 0.95096 0.0
O300 O 0.65441 0.40013 0.77739 0.0
O301 O 0.6176 0.42185 0.77497 0.0
O302 O 0.59148 0.37269 0.86573 0.0
O303 O 0.58787 0.41329 0.85703 0.0
O304 O 0.62306 0.35617 0.79262 0.0
O305 O 0.60501 0.3292 0.85765 0.0
O306 O 0.58749 0.35003 0.98362 0.0
O307 O 0.62342 0.32699 0.98439 0.0
O308 O 0.65003 0.37733 0.89626 0.0
O309 O 0.65419 0.33693 0.90417 0.0
O310 O 0.61873 0.39372 0.96668 0.0
O311 O 0.63739 0.41978 0.90066 0.0
H312 H 0.66876 0.4338 0.66574 0.0
H313 H 0.6644 0.42282 0.56952 0.0
H314 H 0.5985 0.37221 0.60672 0.0
H315 H 0.60311 0.3832 0.7027 0.0
H316 H 0.56391 0.33825 0.08652 0.0
H317 H 0.5684 0.34937 0.18237 0.0
H318 H 0.65289 0.35412 0.16318 0.0
H319 H 0.64818 0.344 0.06721 0.0
Tb320 Tb 0.85674 0.61605 0.67241 0.0
Tb321 Tb 0.89525 0.62465 0.58378 0.0
C322 C 0.8354 0.60149 0.75948 0.0
C323 C 0.84153 0.60503 0.81763 0.0
C324 C 0.84063 0.58327 0.8525 0.0
C325 C 0.8468 0.58606 0.90749 0.0
C326 C 0.85392 0.61075 0.92898 0.0
C327 C 0.85484 0.63252 0.89372 0.0
C328 C 0.84886 0.62967 0.83867 0.0
C329 C 0.85943 0.66523 0.63788 0.0
C330 C 0.91773 0.6291 0.69913 0.0
C331 C 0.91729 0.63909 0.49745 0.0
C332 C 0.91094 0.63598 0.43948 0.0
C333 C 0.92245 0.6527 0.40114 0.0
C334 C 0.91631 0.65007 0.34608 0.0
C335 C 0.89834 0.63077 0.32841 0.0
C336 C 0.88682 0.61408 0.36712 0.0
C337 C 0.89319 0.61655 0.42205 0.0
C338 C 0.89346 0.57612 0.62194 0.0
C339 C 0.83467 0.61212 0.55542 0.0
O340 O 0.85197 0.58699 0.73214 0.0
O341 O 0.82821 0.62243 0.73245 0.0
O342 O 0.87853 0.64967 0.6444 0.0
O343 O 0.83804 0.65351 0.65293 0.0
O344 O 0.89514 0.61844 0.71488 0.0
O345 O 0.92104 0.63727 0.64882 0.0
O346 O 0.90127 0.65407 0.5253 0.0
O347 O 0.92334 0.61748 0.52342 0.0
O348 O 0.87412 0.59118 0.61372 0.0
O349 O 0.9147 0.5876 0.60528 0.0
O350 O 0.85743 0.62257 0.5408 0.0
O351 O 0.83067 0.60429 0.60594 0.0
H352 H 0.83532 0.56401 0.83709 0.0
H353 H 0.84634 0.56873 0.93295 0.0
H354 H 0.85989 0.65191 0.90869 0.0
H355 H 0.84995 0.64679 0.81265 0.0
H356 H 0.93615 0.66785 0.41379 0.0
H357 H 0.92533 0.6634 0.31741 0.0
H358 H 0.87314 0.59884 0.35488 0.0
H359 H 0.88422 0.60329 0.45094 0.0
Tb360 Tb 0.62554 0.13194 0.48552 0.0
Tb361 Tb 0.61798 0.17056 0.39687 0.0
C362 C 0.63952 0.10975 0.572 0.0
C363 C 0.63802 0.11656 0.6303 0.0
C364 C 0.64989 0.13944 0.65118 0.0
C365 C 0.64751 0.14582 0.70612 0.0
C366 C 0.63326 0.12949 0.74155 0.0
C367 C 0.62157 0.10652 0.72051 0.0
C368 C 0.62399 0.10013 0.66563 0.0
C369 C 0.57728 0.13434 0.44602 0.0
C370 C 0.61371 0.19256 0.51394 0.0
C371 C 0.60431 0.19251 0.30968 0.0
C372 C 0.6075 0.18649 0.25122 0.0
C373 C 0.58551 0.17902 0.22023 0.0
C374 C 0.58816 0.17306 0.16516 0.0
C375 C 0.61286 0.17465 0.13963 0.0
C376 C 0.63483 0.18232 0.17059 0.0
C377 C 0.63222 0.18814 0.22572 0.0
C378 C 0.66707 0.16671 0.43246 0.0
C379 C 0.6297 0.10927 0.37035 0.0
O380 O 0.65544 0.12373 0.54182 0.0
O381 O 0.61702 0.10521 0.54789 0.0
O382 O 0.59244 0.15355 0.45462 0.0
O383 O 0.58849 0.11293 0.46282 0.0
O384 O 0.62382 0.16965 0.52881 0.0
O385 O 0.60636 0.19677 0.46314 0.0
O386 O 0.58914 0.17661 0.33706 0.0
O387 O 0.62548 0.19885 0.33692 0.0
O388 O 0.6511 0.14807 0.4253 0.0
O389 O 0.65572 0.1884 0.41779 0.0
O390 O 0.61976 0.13217 0.35422 0.0
O391 O 0.63741 0.10566 0.42091 0.0
H392 H 0.66087 0.15255 0.62509 0.0
H393 H 0.65708 0.16347 0.72087 0.0
H394 H 0.61013 0.09364 0.74624 0.0
H395 H 0.61462 0.08241 0.65062 0.0
H396 H 0.56619 0.17776 0.23864 0.0
H397 H 0.57077 0.16753 0.1424 0.0
H398 H 0.65419 0.18346 0.15237 0.0
H399 H 0.64962 0.19381 0.24828 0.0
Tb400 Tb 0.17342 0.41213 0.67577 0.0
Tb401 Tb 0.13535 0.40196 0.58699 0.0
C402 C 0.19526 0.42731 0.76222 0.0
C403 C 0.1891 0.42561 0.8207 0.0
C404 C 0.16419 0.43258 0.84094 0.0
C405 C 0.15849 0.42984 0.89611 0.0
C406 C 0.17763 0.42021 0.93242 0.0
C407 C 0.20269 0.41366 0.91202 0.0
C408 C 0.20832 0.4163 0.85683 0.0
C409 C 0.17251 0.36269 0.6423 0.0
C410 C 0.11261 0.39811 0.70178 0.0
C411 C 0.11442 0.38678 0.49998 0.0
C412 C 0.12109 0.38987 0.44168 0.0
C413 C 0.13814 0.37205 0.41563 0.0
C414 C 0.14458 0.37526 0.36091 0.0
C415 C 0.13411 0.39633 0.3308 0.0
C416 C 0.1169 0.41401 0.35673 0.0
C417 C 0.11039 0.41075 0.41135 0.0
C418 C 0.1357 0.4507 0.62432 0.0
C419 C 0.19549 0.41596 0.55852 0.0
O420 O 0.18006 0.44223 0.73243 0.0
O421 O 0.20075 0.40507 0.73822 0.0
O422 O 0.15275 0.37755 0.64806 0.0
O423 O 0.1934 0.37548 0.65673 0.0
O424 O 0.13482 0.40971 0.7174 0.0
O425 O 0.10977 0.38911 0.65192 0.0
O426 O 0.13013 0.37203 0.52925 0.0
O427 O 0.1073 0.40813 0.52582 0.0
O428 O 0.15545 0.43616 0.61643 0.0
O429 O 0.11478 0.43851 0.6079 0.0
O430 O 0.1729 0.40514 0.54386 0.0
O431 O 0.19948 0.42374 0.60916 0.0
H432 H 0.14903 0.43998 0.81412 0.0
H433 H 0.1389 0.43483 0.91006 0.0
H434 H 0.21809 0.40663 0.93876 0.0
H435 H 0.22772 0.41095 0.84226 0.0
H436 H 0.14666 0.35565 0.43756 0.0
H437 H 0.15805 0.3614 0.34236 0.0
H438 H 0.10815 0.43021 0.33459 0.0
H439 H 0.09694 0.42466 0.42984 0.0
Tb440 Tb 0.40413 0.89454 0.47969 0.0
Tb441 Tb 0.41171 0.85624 0.39014 0.0
C442 C 0.3891 0.91647 0.56568 0.0
C443 C 0.39284 0.91072 0.62365 0.0
C444 C 0.37493 0.92056 0.66174 0.0
C445 C 0.37801 0.91474 0.71678 0.0
C446 C 0.39899 0.89878 0.73467 0.0
C447 C 0.4169 0.88896 0.6962 0.0
C448 C 0.41391 0.89497 0.64127 0.0
C449 C 0.4524 0.89243 0.44093 0.0
C450 C 0.41676 0.83368 0.50683 0.0
C451 C 0.42537 0.83466 0.30268 0.0
C452 C 0.42263 0.8414 0.24459 0.0
C453 C 0.44525 0.84442 0.2126 0.0
C454 C 0.4431 0.85099 0.15774 0.0
C455 C 0.41823 0.85458 0.13349 0.0
C456 C 0.3956 0.8515 0.16571 0.0
C457 C 0.39776 0.84508 0.22059 0.0
C458 C 0.36281 0.85964 0.42634 0.0
C459 C 0.39972 0.91744 0.36446 0.0
O460 O 0.3748 0.89947 0.53874 0.0
O461 O 0.41024 0.9234 0.53902 0.0
O462 O 0.43721 0.87316 0.44845 0.0
O463 O 0.44132 0.91366 0.45901 0.0
O464 O 0.40811 0.85696 0.5233 0.0
O465 O 0.42259 0.82922 0.45536 0.0
O466 O 0.44084 0.84986 0.33118 0.0
O467 O 0.40382 0.82873 0.32888 0.0
O468 O 0.37859 0.87844 0.41926 0.0
O469 O 0.37417 0.83809 0.41094 0.0
O470 O 0.40998 0.89473 0.34811 0.0
O471 O 0.39171 0.92064 0.41491 0.0
H472 H 0.35847 0.93266 0.64888 0.0
H473 H 0.3637 0.92238 0.74525 0.0
H474 H 0.43344 0.87688 0.70862 0.0
H475 H 0.42807 0.88735 0.61249 0.0
H476 H 0.46466 0.84182 0.23016 0.0
H477 H 0.46098 0.85358 0.13452 0.0
H478 H 0.37611 0.85371 0.14839 0.0
H479 H 0.37989 0.84296 0.24408 0.0
Tb480 Tb 0.85515 0.91144 0.64078 0.0
Tb481 Tb 0.89384 0.90439 0.73008 0.0
C482 C 0.83342 0.92464 0.55307 0.0
C483 C 0.84042 0.92228 0.49501 0.0
C484 C 0.84475 0.94508 0.46415 0.0
C485 C 0.85153 0.94324 0.40935 0.0
C486 C 0.85402 0.91853 0.38402 0.0
C487 C 0.8496 0.89573 0.41504 0.0
C488 C 0.84294 0.89756 0.46983 0.0
C489 C 0.85853 0.86283 0.67825 0.0
C490 C 0.91628 0.89922 0.61485 0.0
C491 C 0.91604 0.88997 0.81631 0.0
C492 C 0.91036 0.89385 0.87428 0.0
C493 C 0.91985 0.87576 0.91243 0.0
C494 C 0.91408 0.87894 0.96745 0.0
C495 C 0.89854 0.90022 0.9853 0.0
C496 C 0.88906 0.91831 0.94676 0.0
C497 C 0.89499 0.91519 0.89183 0.0
C498 C 0.8917 0.95232 0.68947 0.0
C499 C 0.83306 0.9171 0.75758 0.0
O500 O 0.84798 0.94051 0.58202 0.0
O501 O 0.82808 0.90287 0.579 0.0
O502 O 0.87741 0.87849 0.67072 0.0
O503 O 0.83693 0.87416 0.66286 0.0
O504 O 0.89355 0.90949 0.59854 0.0
O505 O 0.91966 0.89148 0.66543 0.0
O506 O 0.89915 0.87538 0.78971 0.0
O507 O 0.92274 0.91104 0.7892 0.0
O508 O 0.87243 0.93726 0.69803 0.0
O509 O 0.91299 0.94133 0.70764 0.0
O510 O 0.85644 0.90866 0.77396 0.0
O511 O 0.82829 0.92251 0.70601 0.0
H512 H 0.84301 0.96438 0.48254 0.0
H513 H 0.85512 0.96122 0.38703 0.0
H514 H 0.85093 0.87638 0.39682 0.0
H515 H 0.83972 0.87956 0.49232 0.0
H516 H 0.93162 0.85908 0.89963 0.0
H517 H 0.92142 0.86447 0.99592 0.0
H518 H 0.87731 0.93508 0.95911 0.0
H519 H 0.8876 0.92947 0.86301 0.0
Tb520 Tb 0.90505 0.13308 0.33012 0.0
Tb521 Tb 0.91526 0.17302 0.42595 0.0
C522 C 0.88905 0.1136 0.24267 0.0
C523 C 0.89134 0.12184 0.18543 0.0
C524 C 0.86971 0.11926 0.15046 0.0
C525 C 0.87158 0.12713 0.09626 0.0
C526 C 0.89521 0.13769 0.07573 0.0
C527 C 0.91678 0.14042 0.11121 0.0
C528 C 0.91484 0.13268 0.1654 0.0
C529 C 0.95304 0.13446 0.37132 0.0
C530 C 0.91799 0.19436 0.30554 0.0
C531 C 0.93578 0.19296 0.50888 0.0
C532 C 0.92912 0.19054 0.56671 0.0
C533 C 0.94319 0.2047 0.60595 0.0
C534 C 0.93826 0.20062 0.66116 0.0
C535 C 0.91937 0.18206 0.67794 0.0
C536 C 0.90495 0.16836 0.63829 0.0
C537 C 0.90969 0.17264 0.58328 0.0
C538 C 0.86409 0.1668 0.40634 0.0
C539 C 0.8991 0.11221 0.44715 0.0
O540 O 0.87433 0.12855 0.27365 0.0
O541 O 0.91095 0.10638 0.26669 0.0
O542 O 0.93778 0.15383 0.36467 0.0
O543 O 0.94213 0.11349 0.35122 0.0
O544 O 0.91073 0.17066 0.28849 0.0
O545 O 0.92285 0.19964 0.35749 0.0
O546 O 0.94403 0.1711 0.48641 0.0
O547 O 0.91862 0.20547 0.47842 0.0
O548 O 0.88354 0.15566 0.3854 0.0
O549 O 0.87346 0.18338 0.44118 0.0
O550 O 0.91148 0.13385 0.46394 0.0
O551 O 0.89087 0.10915 0.39655 0.0
H552 H 0.85131 0.11119 0.16513 0.0
H553 H 0.85439 0.12514 0.07059 0.0
H554 H 0.9354 0.14812 0.09698 0.0
H555 H 0.93179 0.13515 0.19161 0.0
H556 H 0.95835 0.21849 0.59394 0.0
H557 H 0.94981 0.21136 0.69071 0.0
H558 H 0.89003 0.15421 0.64982 0.0
H559 H 0.89851 0.16159 0.55363 0.0
Tb560 Tb 0.17292 0.11425 0.64489 0.0
Tb561 Tb 0.13484 0.12489 0.73329 0.0
C562 C 0.19366 0.09842 0.55799 0.0
C563 C 0.18789 0.10194 0.49939 0.0
C564 C 0.17645 0.08133 0.46951 0.0
C565 C 0.17074 0.08444 0.41438 0.0
C566 C 0.17651 0.10818 0.3876 0.0
C567 C 0.18816 0.12872 0.41743 0.0
C568 C 0.19378 0.12565 0.47259 0.0
C569 C 0.1721 0.16389 0.67698 0.0
C570 C 0.11211 0.12856 0.61803 0.0
C571 C 0.11362 0.14064 0.81949 0.0
C572 C 0.12031 0.13871 0.87784 0.0
C573 C 0.1446 0.14762 0.89825 0.0
C574 C 0.15083 0.14469 0.9532 0.0
C575 C 0.1329 0.13285 0.98914 0.0
C576 C 0.10852 0.12417 0.96857 0.0
C577 C 0.10231 0.12711 0.91366 0.0
C578 C 0.13521 0.07601 0.69653 0.0
C579 C 0.19487 0.1104 0.76241 0.0
O580 O 0.1766 0.08474 0.58574 0.0
O581 O 0.20178 0.11905 0.58489 0.0
O582 O 0.15231 0.14904 0.6719 0.0
O583 O 0.19287 0.15105 0.66201 0.0
O584 O 0.13454 0.11741 0.6025 0.0
O585 O 0.10895 0.13716 0.66811 0.0
O586 O 0.12875 0.15543 0.78921 0.0
O587 O 0.10744 0.11852 0.79555 0.0
O588 O 0.15493 0.09053 0.70446 0.0
O589 O 0.11425 0.08834 0.71243 0.0
O590 O 0.17241 0.1216 0.77674 0.0
O591 O 0.19881 0.10239 0.7119 0.0
H592 H 0.1719 0.06273 0.48881 0.0
H593 H 0.1621 0.06808 0.39256 0.0
H594 H 0.19261 0.14737 0.39833 0.0
H595 H 0.20265 0.14196 0.49418 0.0
H596 H 0.15895 0.15667 0.87176 0.0
H597 H 0.16965 0.15191 0.96755 0.0
H598 H 0.09434 0.11462 0.9947 0.0
H599 H 0.08348 0.12001 0.899 0.0
Tb600 Tb 0.12404 0.89587 0.33237 0.0
Tb601 Tb 0.11634 0.85705 0.42081 0.0
C602 C 0.13826 0.91817 0.24626 0.0
C603 C 0.13697 0.9115 0.18789 0.0
C604 C 0.14713 0.88767 0.16773 0.0
C605 C 0.14469 0.88134 0.11276 0.0
C606 C 0.13218 0.89876 0.07658 0.0
C607 C 0.12235 0.92274 0.09684 0.0
C608 C 0.12473 0.92901 0.15181 0.0
C609 C 0.07587 0.89387 0.37176 0.0
C610 C 0.11185 0.83524 0.30374 0.0
C611 C 0.10311 0.83499 0.50808 0.0
C612 C 0.10592 0.84133 0.56659 0.0
C613 C 0.08519 0.85351 0.5949 0.0
C614 C 0.08776 0.85955 0.64998 0.0
C615 C 0.11106 0.85342 0.67829 0.0
C616 C 0.13169 0.84105 0.65001 0.0
C617 C 0.12914 0.83503 0.59496 0.0
C618 C 0.16521 0.86038 0.38447 0.0
C619 C 0.12811 0.9182 0.44798 0.0
O620 O 0.15408 0.90407 0.27664 0.0
O621 O 0.11566 0.92264 0.26988 0.0
O622 O 0.09087 0.87451 0.36315 0.0
O623 O 0.08717 0.9152 0.35498 0.0
O624 O 0.12187 0.85817 0.2889 0.0
O625 O 0.10462 0.83094 0.35452 0.0
O626 O 0.08742 0.85008 0.47978 0.0
O627 O 0.12466 0.82934 0.48155 0.0
O628 O 0.14952 0.87923 0.39231 0.0
O629 O 0.15372 0.83877 0.39888 0.0
O630 O 0.11802 0.89533 0.46367 0.0
O631 O 0.13594 0.92189 0.39756 0.0
H632 H 0.15677 0.87375 0.19444 0.0
H633 H 0.15279 0.86286 0.09855 0.0
H634 H 0.11232 0.9365 0.0704 0.0
H635 H 0.11671 0.94749 0.16632 0.0
H636 H 0.06691 0.85834 0.57449 0.0
H637 H 0.07131 0.86871 0.67057 0.0
H638 H 0.15003 0.8363 0.67026 0.0
H639 H 0.14547 0.8255 0.57465 0.0
H640 H 0.42406 0.92314 0.26633 0.0
H641 H 0.36937 0.96186 0.37405 0.0
H642 H 0.4214 0.96055 0.20423 0.0
H643 H 0.36655 0.99908 0.31158 0.0
H644 H 0.35013 0.04947 0.15855 0.0
H645 H 0.35067 1.00968 0.21478 0.0
H646 H 0.43564 1.00885 0.20918 0.0
H647 H 0.43511 0.04892 0.15443 0.0
C648 C 0.4113 0.9395 0.27658 0.0
C649 C 0.397 0.93952 0.32533 0.0
C650 C 0.40987 0.96098 0.24108 0.0
C651 C 0.39377 0.98278 0.253 0.0
C652 C 0.37896 0.98249 0.30104 0.0
C653 C 0.38071 0.96122 0.33698 0.0
C654 C 0.3689 0.04077 0.16944 0.0
C655 C 0.39258 0.05255 0.15284 0.0
C656 C 0.36921 0.01803 0.20162 0.0
C657 C 0.39321 1.00619 0.21664 0.0
C658 C 0.41684 0.0174 0.19807 0.0
C659 C 0.41652 0.04038 0.16678 0.0
H660 H 0.96217 0.65936 0.69015 0.0
H661 H 0.9227 0.6054 0.79801 0.0
H662 H 0.99907 0.6623 0.75367 0.0
H663 H 0.95973 0.60821 0.8611 0.0
H664 H 0.0475 0.59327 0.91217 0.0
H665 H 1.00784 0.59331 0.85614 0.0
H666 H 1.00941 0.67823 0.85111 0.0
H667 H 0.04881 0.67821 0.9089 0.0
C668 C 0.96129 0.64823 0.72747 0.0
C669 C 0.93952 0.63205 0.73884 0.0
C670 C 0.98236 0.65006 0.76399 0.0
C671 C 0.98231 0.63544 0.81228 0.0
C672 C 0.96039 0.61956 0.82402 0.0
C673 C 0.93915 0.61804 0.78793 0.0
C674 C 0.03924 0.61198 0.89963 0.0
C675 C 0.05149 0.63575 0.91419 0.0
C676 C 0.01649 0.61199 0.86762 0.0
C677 C 1.0056 0.63576 0.84897 0.0
C678 C 0.01756 0.65959 0.86438 0.0
C679 C 0.04011 0.65959 0.89728 0.0
H680 H 0.67843 0.97809 0.16121 0.0
H681 H 0.59343 0.97921 0.15835 0.0
H682 H 0.67839 0.01734 0.21924 0.0
H683 H 0.5934 0.01878 0.2145 0.0
H684 H 0.60564 0.10419 0.27169 0.0
H685 H 0.60822 0.06697 0.20902 0.0
H686 H 0.66253 0.02769 0.3167 0.0
H687 H 0.65981 0.06473 0.37972 0.0
C688 C 0.65978 0.98667 0.1731 0.0
C689 C 0.63594 0.9753 0.15614 0.0
C690 C 0.65975 1.00916 0.20607 0.0
C691 C 0.63588 0.02109 0.2215 0.0
C692 C 0.6121 1.01016 0.20298 0.0
C693 C 0.61213 0.98746 0.17092 0.0
C694 C 0.61827 0.08771 0.28187 0.0
C695 C 0.63242 0.08739 0.33086 0.0
C696 C 0.61966 0.06636 0.24606 0.0
C697 C 0.63556 0.04441 0.25799 0.0
C698 C 0.65027 0.04441 0.30623 0.0
C699 C 0.64857 0.06557 0.34246 0.0
H700 H 0.98112 0.43516 0.91023 0.0
H701 H 0.98061 0.3502 0.90963 0.0
H702 H 0.02071 0.43505 0.85433 0.0
H703 H 0.0201 0.35006 0.85248 0.0
H704 H 0.06922 0.36614 0.6944 0.0
H705 H 0.03178 0.36376 0.75643 0.0
H706 H 0.0683 0.42209 0.85907 0.0
H707 H 0.10557 0.42457 0.79713 0.0
C708 C 0.98957 0.41643 0.89836 0.0
C709 C 0.97758 0.39268 0.91376 0.0
C710 C 1.0123 0.41637 0.86641 0.0
C711 C 0.02351 0.39255 0.84873 0.0
C712 C 1.01176 0.36874 0.8649 0.0
C713 C 0.98918 0.36882 0.89761 0.0
C714 C 0.06935 0.37834 0.73038 0.0
C715 C 0.09048 0.39553 0.74079 0.0
C716 C 0.04796 0.37685 0.76609 0.0
C717 C 0.04704 0.39276 0.81266 0.0
C718 C 0.06831 0.4097 0.82336 0.0
C719 C 0.0898 0.41097 0.78803 0.0
H720 H 0.43362 0.46819 0.12607 0.0
H721 H 0.3565 0.49023 0.18379 0.0
H722 H 0.43379 0.50638 0.06558 0.0
H723 H 0.35712 0.52915 0.12435 0.0
H724 H 0.39609 0.61069 0.05325 0.0
H725 H 0.39352 0.57317 0.11583 0.0
H726 H 0.39836 0.5195 0.98094 0.0
H727 H 0.40013 0.5567 0.91831 0.0
C728 C 0.41684 0.4814 0.12624 0.0
C729 C 0.39508 0.47637 0.15971 0.0
C730 C 0.41692 0.50316 0.09154 0.0
C731 C 0.39554 0.52072 0.09061 0.0
C732 C 0.3739 0.51596 0.12466 0.0
C733 C 0.37352 0.49374 0.15844 0.0
C734 C 0.3964 0.59089 0.03696 0.0
C735 C 0.39821 0.58669 0.98077 0.0
C736 C 0.39484 0.56948 0.07273 0.0
C737 C 0.39573 0.54352 0.05305 0.0
C738 C 0.39764 0.53933 0.99705 0.0
C739 C 0.39856 0.56065 0.96127 0.0
H740 H 0.60596 0.60482 1.01943 0.0
H741 H 0.56601 0.65807 0.12838 0.0
H742 H 0.56901 0.60782 0.95622 0.0
H743 H 0.52915 0.66116 0.06477 0.0
H744 H 0.47958 0.67755 0.90901 0.0
H745 H 0.5186 0.67752 0.96791 0.0
H746 H 0.52121 0.59266 0.9601 0.0
H747 H 0.48192 0.59266 0.9031 0.0
C748 C 0.58942 0.61733 1.02975 0.0
C749 C 0.5889 0.63109 0.07916 0.0
C750 C 0.56821 0.61896 0.99359 0.0
C751 C 0.54616 0.63468 1.00558 0.0
C752 C 0.54596 0.64904 0.05424 0.0
C753 C 0.567 0.64712 0.0908 0.0
C754 C 0.48837 0.65893 0.92042 0.0
C755 C 0.4774 0.63511 0.90233 0.0
C756 C 0.51073 0.6589 0.9539 0.0
C757 C 0.52292 0.63507 0.96873 0.0
C758 C 0.5124 0.61134 0.94908 0.0
C759 C 0.48985 0.61136 0.91651 0.0
H760 H 0.67819 0.54749 0.16041 0.0
H761 H 0.59321 0.54601 0.16438 0.0
H762 H 0.67815 0.50805 0.10293 0.0
H763 H 0.59319 0.50633 0.10853 0.0
H764 H 0.60534 0.42132 0.04963 0.0
H765 H 0.60804 0.45828 0.1128 0.0
H766 H 0.66224 0.49774 1.00578 0.0
H767 H 0.65942 0.46091 0.94222 0.0
C768 C 0.65954 0.5387 0.14914 0.0
C769 C 0.6357 0.55009 0.16607 0.0
C770 C 0.65952 0.51615 0.11632 0.0
C771 C 0.63566 0.50415 0.10104 0.0
C772 C 0.61189 0.515 0.11986 0.0
C773 C 0.61191 0.53776 0.15178 0.0
C774 C 0.61798 0.43778 0.03967 0.0
C775 C 0.63207 0.43819 0.99069 0.0
C776 C 0.61943 0.45899 0.07579 0.0
C777 C 0.63533 0.48093 0.06422 0.0
C778 C 0.64999 0.48102 1.016 0.0
C779 C 0.64823 0.45999 0.97945 0.0
H780 H 0.46027 0.36661 0.12609 0.0
H781 H 0.42448 0.42558 1.02381 0.0
H782 H 0.49748 0.36353 0.06354 0.0
H783 H 0.46145 0.42237 0.96131 0.0
H784 H 0.54837 0.43427 0.90889 0.0
H785 H 0.50901 0.43464 0.96534 0.0
H786 H 0.509 0.34965 0.96754 0.0
H787 H 0.54832 0.34931 0.90981 0.0
C788 C 0.46021 0.37877 0.09008 0.0
C789 C 0.4393 0.39631 0.07993 0.0
C790 C 0.48146 0.37687 0.05407 0.0
C791 C 0.48246 0.39272 1.00746 0.0
C792 C 0.46139 0.41001 0.99703 0.0
C793 C 0.44005 0.41169 1.03267 0.0
C794 C 0.53984 0.41564 0.92094 0.0
C795 C 0.55162 0.39175 0.90545 0.0
C796 C 0.51724 0.41585 0.95322 0.0
C797 C 0.5059 0.39218 0.97114 0.0
C798 C 0.51744 0.36822 0.95493 0.0
C799 C 0.53992 0.36802 0.92189 0.0
H800 H 0.92367 0.42242 0.76921 0.0
H801 H 0.86929 0.46192 0.87642 0.0
H802 H 0.9209 0.45939 0.70614 0.0
H803 H 0.8664 0.49875 0.81296 0.0
H804 H 0.85051 0.54848 0.65817 0.0
H805 H 0.85059 0.5091 0.71572 0.0
H806 H 0.93557 0.50744 0.71067 0.0
H807 H 0.9355 0.54707 0.65478 0.0
C808 C 0.91094 0.43886 0.77914 0.0
C809 C 0.89679 0.43924 0.82804 0.0
C810 C 0.90946 0.46008 0.74307 0.0
C811 C 0.89346 0.48199 0.75461 0.0
C812 C 0.87873 0.48206 0.80275 0.0
C813 C 0.88053 0.46102 0.83924 0.0
C814 C 0.86917 0.53972 0.66961 0.0
C815 C 0.893 0.55111 0.65278 0.0
C816 C 0.86922 0.5172 0.70245 0.0
C817 C 0.8931 0.50523 0.71787 0.0
C818 C 0.91685 0.51609 0.69922 0.0
C819 C 0.91681 0.53882 0.66728 0.0
H820 H 0.55013 0.17766 0.40949 0.0
H821 H 0.54762 0.09276 0.41328 0.0
H822 H 0.51049 0.17818 0.35248 0.0
H823 H 0.50775 0.0933 0.35786 0.0
H824 H 0.42252 0.10621 0.30143 0.0
H825 H 0.46007 0.10838 0.36327 0.0
H826 H 0.49887 0.16292 0.25598 0.0
H827 H 0.46142 0.16066 0.19372 0.0
C828 C 0.5411 0.15914 0.3982 0.0
C829 C 0.55222 0.13516 0.41511 0.0
C830 C 0.51842 0.15944 0.36565 0.0
C831 C 0.50603 0.13577 0.35054 0.0
C832 C 0.5167 0.11187 0.36909 0.0
C833 C 0.53958 0.11157 0.40076 0.0
C834 C 0.43896 0.11881 0.2911 0.0
C835 C 0.43897 0.13317 0.24241 0.0
C836 C 0.46052 0.11996 0.32647 0.0
C837 C 0.48246 0.13577 0.31446 0.0
C838 C 0.48218 0.15071 0.26656 0.0
C839 C 0.46076 0.14928 0.23076 0.0
H840 H 0.09992 0.60207 0.77625 0.0
H841 H 0.16176 0.5679 0.87375 0.0
H842 H 0.10275 0.56498 0.71358 0.0
H843 H 0.16443 0.53064 0.81124 0.0
H844 H 0.17785 0.4805 0.65702 0.0
H845 H 0.17705 0.51992 0.71441 0.0
H846 H 0.09208 0.51684 0.71793 0.0
H847 H 0.09294 0.47731 0.66169 0.0
C848 C 0.11435 0.58684 0.78396 0.0
C849 C 0.1307 0.58806 0.82986 0.0
C850 C 0.1158 0.56544 0.7483 0.0
C851 C 0.13382 0.54485 0.7574 0.0
C852 C 0.15052 0.5463 0.80279 0.0
C853 C 0.14885 0.56756 0.8388 0.0
C854 C 0.15904 0.48825 0.67027 0.0
C855 C 0.13549 0.47562 0.65555 0.0
C856 C 0.15857 0.51079 0.7031 0.0
C857 C 0.1345 0.52147 0.7209 0.0
C858 C 0.11094 0.50926 0.70459 0.0
C859 C 0.11144 0.48657 0.67245 0.0
H860 H 0.56665 0.86847 0.18673 0.0
H861 H 0.60673 0.92156 0.29587 0.0
H862 H 0.52971 0.86575 0.24983 0.0
H863 H 0.56967 0.91893 0.35866 0.0
H864 H 0.48201 0.93431 0.41005 0.0
H865 H 0.52177 0.93426 0.35456 0.0
H866 H 0.51912 0.84942 0.3462 0.0
H867 H 0.47964 0.84944 0.40338 0.0
C868 C 0.56766 0.87946 0.22425 0.0
C869 C 0.58963 0.89531 0.23612 0.0
C870 C 0.54655 0.87775 0.26054 0.0
C871 C 0.54676 0.89215 0.30915 0.0
C872 C 0.56887 0.90774 0.32134 0.0
C873 C 0.59015 0.90915 0.28545 0.0
C874 C 0.49007 0.91562 0.3969 0.0
C875 C 0.47747 0.89189 0.41032 0.0
C876 C 0.51287 0.9156 0.3652 0.0
C877 C 0.52349 0.89185 0.34573 0.0
C878 C 0.51121 0.86804 0.3601 0.0
C879 C 0.48861 0.86806 0.39268 0.0
H880 H 0.84864 0.97976 0.65214 0.0
H881 H 0.93361 0.9814 0.65709 0.0
H882 H 0.84867 0.01926 0.59484 0.0
H883 H 0.93361 0.02115 0.60167 0.0
H884 H 0.86827 0.0681 0.43597 0.0
H885 H 0.86487 0.03072 0.49801 0.0
H886 H 0.91858 0.06897 0.60834 0.0
H887 H 0.92192 0.10638 0.54687 0.0
C888 C 0.86728 0.98854 0.64096 0.0
C889 C 0.89113 0.97723 0.65827 0.0
C890 C 0.8673 1.01115 0.60832 0.0
C891 C 0.89115 0.02327 0.59366 0.0
C892 C 0.91491 1.01239 0.61256 0.0
C893 C 0.9149 0.98959 0.64425 0.0
C894 C 0.87921 0.06865 0.47364 0.0
C895 C 0.89551 0.09022 0.48617 0.0
C896 C 0.87712 0.04729 0.50929 0.0
C897 C 0.89155 0.04686 0.55792 0.0
C898 C 0.90741 0.06863 0.57094 0.0
C899 C 0.90922 0.09012 0.53572 0.0
H900 H 0.10652 0.10348 0.5206 0.0
H901 H 0.06782 0.15932 0.62591 0.0
H902 H 0.06933 0.10583 0.4578 0.0
H903 H 0.03076 0.16179 0.56269 0.0
H904 H 0.98108 0.17708 0.40762 0.0
H905 H 0.02044 0.17684 0.46542 0.0
H906 H 0.0211 0.09188 0.46186 0.0
H907 H 0.98147 0.09214 0.40549 0.0
C908 C 0.09021 0.11644 0.53018 0.0
C909 C 0.09015 0.13116 0.57845 0.0
C910 C 0.06884 0.11767 0.49428 0.0
C911 C 0.04709 0.13397 0.5053 0.0
C912 C 0.04732 0.1492 0.55285 0.0
C913 C 0.0685 0.14767 0.58921 0.0
C914 C 0.98963 0.15838 0.41939 0.0
C915 C 0.97793 0.13463 0.40287 0.0
C916 C 1.01212 0.15824 0.45245 0.0
C917 C 0.0238 0.13433 0.46844 0.0
C918 C 1.01266 0.11062 0.45005 0.0
C919 C 0.98993 0.11077 0.41783 0.0
H920 H 0.10327 0.92322 0.54566 0.0
H921 H 0.15859 0.96253 0.44052 0.0
H922 H 0.10582 0.96004 0.60933 0.0
H923 H 0.16132 0.99915 0.50465 0.0
H924 H 0.17754 0.04699 0.66198 0.0
H925 H 0.1769 1.00793 0.60353 0.0
H926 H 0.09189 1.00894 0.60484 0.0
H927 H 0.09253 0.04839 0.6616 0.0
C928 C 0.11614 0.93959 0.53631 0.0
C929 C 0.13066 0.93996 0.48786 0.0
C930 C 0.1175 0.96071 0.5727 0.0
C931 C 0.13377 0.98247 0.56198 0.0
C932 C 0.14877 0.98256 0.5142 0.0
C933 C 0.14707 0.96165 0.47735 0.0
C934 C 0.15874 0.03889 0.64958 0.0
C935 C 0.1351 0.05101 0.66553 0.0
C936 C 0.15838 0.01655 0.6162 0.0
C937 C 0.13434 1.00546 0.59939 0.0
C938 C 0.11071 0.01696 0.61731 0.0
C939 C 0.11109 0.03956 0.64977 0.0
H940 H 0.04654 0.93573 0.40435 0.0
H941 H 0.04846 0.8508 0.40803 0.0
H942 H 1.00673 0.93556 0.4597 0.0
H943 H 1.00894 0.85066 0.46515 0.0
H944 H 0.96101 0.86935 0.62497 0.0
H945 H 0.9982 0.86667 0.56236 0.0
H946 H 0.95869 0.92032 0.45376 0.0
H947 H 0.92136 0.92286 0.51595 0.0
C948 C 0.03839 0.917 0.41685 0.0
C949 C 0.05085 0.89328 0.40256 0.0
C950 C 0.01556 0.91692 0.44847 0.0
C951 C 1.00479 0.89311 0.46702 0.0
C952 C 0.01698 0.86932 0.45193 0.0
C953 C 0.03959 0.8694 0.41939 0.0
C954 C 0.96015 0.88044 0.58757 0.0
C955 C 0.93823 0.8964 0.5756 0.0
C956 C 0.9814 0.87876 0.55159 0.0
C957 C 0.98138 0.89333 0.50323 0.0
C958 C 0.95933 0.90901 0.4909 0.0
C959 C 0.93791 0.91036 0.52645 0.0
H960 H 0.31787 0.19913 0.18034 0.0
H961 H 0.39836 0.19912 0.12444 0.0
H962 H 0.31939 0.2463 0.19213 0.0
H963 H 0.39954 0.24727 0.13302 0.0
H964 H 0.39951 0.33239 0.19974 0.0
H965 H 0.40049 0.28421 0.19216 0.0
H966 H 0.3184 0.28496 0.14489 0.0
H967 H 0.31722 0.33222 0.15568 0.0
C968 C 0.33585 0.20933 0.16963 0.0
C969 C 0.35795 0.19537 0.15113 0.0
C970 C 0.33669 0.23659 0.17607 0.0
C971 C 0.35948 0.25098 0.16293 0.0
C972 C 0.3817 0.23697 0.14413 0.0
C973 C 0.38098 0.20941 0.13861 0.0
C974 C 0.38167 0.32205 0.1885 0.0
C975 C 0.35824 0.33607 0.17883 0.0
C976 C 0.38226 0.29447 0.18352 0.0
C977 C 0.35948 0.2804 0.16815 0.0
C978 C 0.33621 0.29473 0.15821 0.0
C979 C 0.33554 0.32204 0.16408 0.0
H980 H 0.32655 0.70347 0.84901 0.0
H981 H 0.33329 0.62351 0.90613 0.0
H982 H 0.27911 0.70208 0.86283 0.0
H983 H 0.2858 0.62234 0.92255 0.0
H984 H 0.19489 0.62406 0.90466 0.0
H985 H 0.24225 0.62198 0.88723 0.0
H986 H 0.24962 0.70348 0.93559 0.0
H987 H 0.20228 0.70569 0.95045 0.0
C988 C 0.31777 0.6855 0.86417 0.0
C989 C 0.33357 0.66366 0.8766 0.0
C990 C 0.2906 0.68478 0.87286 0.0
C991 C 0.27853 0.66231 0.89513 0.0
C992 C 0.29428 0.63997 0.90525 0.0
C993 C 0.32152 0.6406 0.8958 0.0
C994 C 0.20677 0.64139 0.91214 0.0
C995 C 0.19493 0.66511 0.92856 0.0
C996 C 0.23394 0.64023 0.90215 0.0
C997 C 0.24985 0.66271 0.90891 0.0
C998 C 0.238 0.68599 0.92817 0.0
C999 C 0.21088 0.68721 0.93743 0.0
H1000 H 0.70668 0.82547 0.10428 0.0
H1001 H 0.62613 0.83178 0.15814 0.0
H1002 H 0.70506 0.77793 0.11614 0.0
H1003 H 0.62474 0.78425 0.17289 0.0
H1004 H 0.62568 0.69385 0.15299 0.0
H1005 H 0.62424 0.7413 0.13686 0.0
H1006 H 0.70582 0.74726 0.18616 0.0
H1007 H 0.7074 0.69982 0.19943 0.0
C1008 C 0.68856 0.81658 0.1184 0.0
C1009 C 0.66659 0.83228 0.13038 0.0
C1010 C 0.68769 0.78934 0.12597 0.0
C1011 C 0.66495 0.7771 0.14675 0.0
C1012 C 0.64257 0.79281 0.15663 0.0
C1013 C 0.64333 0.8201 0.1482 0.0
C1014 C 0.64317 0.70544 0.16091 0.0
C1015 C 0.66671 0.6932 0.17719 0.0
C1016 C 0.64238 0.73268 0.15168 0.0
C1017 C 0.66505 0.74827 0.1592 0.0
C1018 C 0.68818 0.73595 0.17815 0.0
C1019 C 0.68905 0.70877 0.18653 0.0
H1020 H 0.82831 0.32129 0.95421 0.0
H1021 H 0.83339 0.40233 0.90335 0.0
H1022 H 0.78065 0.32266 0.94398 0.0
H1023 H 0.78566 0.40351 0.89016 0.0
H1024 H 0.69541 0.40178 0.91481 0.0
H1025 H 0.74311 0.40343 0.92805 0.0
H1026 H 0.74903 0.32233 0.87586 0.0
H1027 H 0.70139 0.32051 0.86558 0.0
C1028 C 0.81912 0.33945 0.94096 0.0
C1029 C 0.83451 0.36164 0.92948 0.0
C1030 C 0.79179 0.34019 0.93435 0.0
C1031 C 0.77912 0.36303 0.91499 0.0
C1032 C 0.79455 0.3856 0.90536 0.0
C1033 C 0.82195 0.38495 0.91287 0.0
C1034 C 0.70704 0.38444 0.90567 0.0
C1035 C 0.69474 0.36095 0.88949 0.0
C1036 C 0.73442 0.38536 0.91321 0.0
C1037 C 0.7501 0.36287 0.90404 0.0
C1038 C 0.73769 0.33982 0.88513 0.0
C1039 C 0.71037 0.33882 0.87848 0.0
H1040 H 0.82113 0.70058 0.61471 0.0
H1041 H 0.90258 0.69519 0.66353 0.0
H1042 H 0.82254 0.74817 0.62546 0.0
H1043 H 0.90382 0.74285 0.67723 0.0
H1044 H 0.90184 0.8331 0.65241 0.0
H1045 H 0.90346 0.78542 0.63949 0.0
H1046 H 0.82271 0.77966 0.69376 0.0
H1047 H 0.82089 0.82729 0.70371 0.0
C1048 C 0.83939 0.70968 0.62762 0.0
C1049 C 0.8617 0.69423 0.63835 0.0
C1050 C 0.84015 0.73697 0.63455 0.0
C1051 C 0.86313 0.74953 0.65346 0.0
C1052 C 0.88579 0.73404 0.66238 0.0
C1053 C 0.88512 0.70669 0.65457 0.0
C1054 C 0.88459 0.82151 0.66213 0.0
C1055 C 0.86116 0.83385 0.67873 0.0
C1056 C 0.88548 0.79414 0.65477 0.0
C1057 C 0.86306 0.77851 0.66454 0.0
C1058 C 0.84013 0.79096 0.68401 0.0
C1059 C 0.83913 0.81827 0.69048 0.0
H1060 H 0.83488 0.12231 0.42037 0.0
H1061 H 0.82984 0.20364 0.37229 0.0
H1062 H 0.78677 0.12032 0.42746 0.0
H1063 H 0.78197 0.20154 0.37572 0.0
H1064 H 0.70328 0.204 0.45574 0.0
H1065 H 0.75074 0.20173 0.44391 0.0
H1066 H 0.74379 0.12098 0.39011 0.0
H1067 H 0.69615 0.12308 0.40489 0.0
C1068 C 0.82333 0.1394 0.40906 0.0
C1069 C 0.83587 0.16306 0.3953 0.0
C1070 C 0.79576 0.13837 0.41339 0.0
C1071 C 0.78029 0.16098 0.40351 0.0
C1072 C 0.79308 0.18399 0.38562 0.0
C1073 C 0.82052 0.18512 0.38255 0.0
C1074 C 0.71198 0.18567 0.44208 0.0
C1075 C 0.69606 0.16378 0.43117 0.0
C1076 C 0.7392 0.18442 0.43445 0.0
C1077 C 0.75128 0.16136 0.41458 0.0
C1078 C 0.73534 0.13908 0.40547 0.0
C1079 C 0.70802 0.14024 0.41397 0.0
H1080 H 0.2121 0.32964 0.67027 0.0
H1081 H 0.13042 0.32999 0.62157 0.0
H1082 H 0.21061 0.28249 0.68222 0.0
H1083 H 0.1292 0.28186 0.63018 0.0
H1084 H 0.13026 0.19697 0.69838 0.0
H1085 H 0.12929 0.24511 0.68965 0.0
H1086 H 0.21027 0.24372 0.63552 0.0
H1087 H 0.21157 0.19659 0.6476 0.0
C1088 C 0.19386 0.31951 0.66108 0.0
C1089 C 0.17141 0.33356 0.64466 0.0
C1090 C 0.19302 0.29226 0.66762 0.0
C1091 C 0.16986 0.27799 0.6566 0.0
C1092 C 0.14733 0.29208 0.63967 0.0
C1093 C 0.14806 0.31962 0.63408 0.0
C1094 C 0.14787 0.20717 0.68536 0.0
C1095 C 0.17105 0.19303 0.67428 0.0
C1096 C 0.14727 0.23473 0.67972 0.0
C1097 C 0.16977 0.24861 0.6622 0.0
C1098 C 0.19274 0.23412 0.65059 0.0
C1099 C 0.19345 0.20688 0.6572 0.0
H1100 H 0.32713 0.82196 0.45037 0.0
H1101 H 0.33319 0.90312 0.40079 0.0
H1102 H 0.27952 0.82385 0.43958 0.0
H1103 H 0.28548 0.90485 0.38715 0.0
H1104 H 0.19498 0.90351 0.41121 0.0
H1105 H 0.24269 0.90486 0.42487 0.0
H1106 H 0.24837 0.82415 0.37021 0.0
H1107 H 0.20075 0.82261 0.35938 0.0
C1108 C 0.31817 0.84027 0.43734 0.0
C1109 C 0.33381 0.86233 0.4263 0.0
C1110 C 0.29087 0.84131 0.4304 0.0
C1111 C 0.2785 0.86433 0.4112 0.0
C1112 C 0.29417 0.88679 0.40216 0.0
C1113 C 0.32154 0.88584 0.40995 0.0
C1114 C 0.20657 0.88621 0.40157 0.0
C1115 C 0.19421 0.86288 0.38459 0.0
C1116 C 0.23395 0.88695 0.40937 0.0
C1117 C 0.24954 0.86445 0.39971 0.0
C1118 C 0.23708 0.84162 0.37987 0.0
C1119 C 0.20978 0.84078 0.37292 0.0
H1120 H 0.18779 0.11239 0.87171 0.0
H1121 H 0.24818 0.10021 0.7515 0.0
H1122 H 0.22068 0.11104 0.94306 0.0
H1123 H 0.28138 0.09814 0.82361 0.0
H1124 H 0.33465 0.13251 0.95722 0.0
H1125 H 0.30225 0.12818 0.88589 0.0
H1126 H 0.25168 0.08462 0.99387 0.0
H1127 H 0.28457 0.08897 0.06624 0.0
C1128 C 0.20813 0.10926 0.86038 0.0
C1129 C 0.21529 0.1068 0.80549 0.0
C1130 C 0.22705 0.10817 0.90165 0.0
C1131 C 0.25385 0.1046 0.8895 0.0
C1132 C 0.26099 0.10129 0.83464 0.0
C1133 C 0.24193 0.10227 0.79318 0.0
C1134 C 0.31681 0.12171 0.96605 0.0
C1135 C 0.31246 0.11096 1.0179 0.0
C1136 C 0.29816 0.11912 0.92465 0.0
C1137 C 0.27428 0.10588 0.93355 0.0
C1138 C 0.26977 0.0951 0.98543 0.0
C1139 C 0.28865 0.09754 1.02703 0.0
H1140 H 0.12604 0.69024 0.11916 0.0
H1141 H 0.09409 0.74455 1.00158 0.0
H1142 H 0.12337 0.72383 0.1886 0.0
H1143 H 0.09074 0.77828 0.07204 0.0
H1144 H 0.11901 0.84031 0.19469 0.0
H1145 H 0.11748 0.80664 0.12526 0.0
H1146 H 0.09532 0.7491 0.24553 0.0
H1147 H 0.0978 0.78298 0.31586 0.0
C1148 C 0.1182 0.70932 0.10801 0.0
C1149 C 0.11039 0.7146 0.0543 0.0
C1150 C 0.11645 0.72864 0.14831 0.0
C1151 C 0.10678 0.75394 0.13643 0.0
C1152 C 0.09861 0.75917 0.08282 0.0
C1153 C 0.10039 0.73976 0.0423 0.0
C1154 C 0.11386 0.8205 0.20665 0.0
C1155 C 0.10886 0.81443 0.26132 0.0
C1156 C 0.11267 0.80113 0.1664 0.0
C1157 C 0.10633 0.77494 0.17933 0.0
C1158 C 0.10068 0.76893 0.2339 0.0
C1159 C 0.10191 0.78841 0.27434 0.0
H1160 H 0.68752 0.93021 0.94855 0.0
H1161 H 0.74799 0.90948 0.06368 0.0
H1162 H 0.72026 0.93331 0.87733 0.0
H1163 H 0.78086 0.91092 0.99194 0.0
H1164 H 0.8395 0.93147 0.86291 0.0
H1165 H 0.80663 0.93402 0.93387 0.0
H1166 H 0.74659 0.91097 0.81866 0.0
H1167 H 0.77964 0.91015 0.74709 0.0
C1168 C 0.70791 0.92618 0.95857 0.0
C1169 C 0.71514 0.9196 1.01186 0.0
C1170 C 0.7268 0.92771 0.91741 0.0
C1171 C 0.75354 0.92215 0.92791 0.0
C1172 C 0.76073 0.91588 0.98173 0.0
C1173 C 0.74183 0.91491 1.02319 0.0
C1174 C 0.81922 0.92718 0.85269 0.0
C1175 C 0.81222 0.92058 0.7993 0.0
C1176 C 0.80025 0.92838 0.89371 0.0
C1177 C 0.77363 0.92241 0.883 0.0
C1178 C 0.76663 0.91619 0.82904 0.0
C1179 C 0.78562 0.91558 0.7877 0.0
H1180 H 0.90182 0.33791 0.11768 0.0
H1181 H 0.9378 0.28448 1.00347 0.0
H1182 H 0.90491 0.30487 0.18797 0.0
H1183 H 0.9412 0.25114 0.07477 0.0
H1184 H 0.91161 0.18901 0.19614 0.0
H1185 H 0.91375 0.22238 0.12648 0.0
H1186 H 0.9334 0.28073 0.24719 0.0
H1187 H 0.93075 0.24706 0.31787 0.0
C1188 C 0.91071 0.31918 0.10749 0.0
C1189 C 0.91959 0.31401 0.05448 0.0
C1190 C 0.91262 0.30016 0.14828 0.0
C1191 C 0.92338 0.2752 0.13754 0.0
C1192 C 0.93254 0.27003 0.08461 0.0
C1193 C 0.93069 0.28919 0.04363 0.0
C1194 C 0.91658 0.20887 0.20824 0.0
C1195 C 0.92092 0.2152 0.26316 0.0
C1196 C 0.918 0.2281 0.16782 0.0
C1197 C 0.92376 0.25441 0.18075 0.0
C1198 C 0.92858 0.26075 0.23557 0.0
C1199 C 0.92721 0.2414 0.27622 0.0
H1200 H 0.34024 0.40848 0.37161 0.0
H1201 H 0.28322 0.43481 0.25342 0.0
H1202 H 0.30706 0.41045 0.44185 0.0
H1203 H 0.24981 0.43737 0.3247 0.0
H1204 H 0.24666 0.43421 0.56868 0.0
H1205 H 0.27998 0.43798 0.49749 0.0
H1206 H 0.22398 0.4087 0.38026 0.0
H1207 H 0.19086 0.40549 0.45042 0.0
C1208 C 0.32063 0.41494 0.36048 0.0
C1209 C 0.31449 0.42132 0.30634 0.0
C1210 C 0.30155 0.4163 0.40123 0.0
C1211 C 0.27558 0.42406 0.38941 0.0
C1212 C 0.26949 0.43097 0.33543 0.0
C1213 C 0.2887 0.42966 0.29445 0.0
C1214 C 0.24144 0.42877 0.52766 0.0
C1215 C 0.21601 0.41944 0.51573 0.0
C1216 C 0.2606 0.43079 0.48673 0.0
C1217 C 0.25482 0.42362 0.43274 0.0
C1218 C 0.22922 0.41479 0.42089 0.0
C1219 C 0.21018 0.41272 0.4616 0.0
H1220 H 0.41011 0.74618 0.81105 0.0
H1221 H 0.43064 0.68678 0.69375 0.0
H1222 H 0.41097 0.77958 0.74036 0.0
H1223 H 0.43338 0.72008 0.62358 0.0
H1224 H 0.4104 0.78028 0.49495 0.0
H1225 H 0.41138 0.74675 0.5655 0.0
H1226 H 0.43311 0.80621 0.68293 0.0
H1227 H 0.43031 0.83953 0.61292 0.0
C1228 C 0.41539 0.74037 0.7703 0.0
C1229 C 0.42023 0.7138 0.75816 0.0
C1230 C 0.41605 0.75959 0.7294 0.0
C1231 C 0.42219 0.75291 0.67526 0.0
C1232 C 0.42787 0.72629 0.66391 0.0
C1233 C 0.42659 0.70705 0.70451 0.0
C1234 C 0.41555 0.78605 0.53584 0.0
C1235 C 0.42012 0.81262 0.54827 0.0
C1236 C 0.41626 0.76675 0.57664 0.0
C1237 C 0.4222 0.7734 0.63094 0.0
C1238 C 0.42769 0.80002 0.64251 0.0
C1239 C 0.42634 0.81929 0.60202 0.0
H1240 H 0.74518 0.59317 0.25215 0.0
H1241 H 0.69009 0.6236 0.36969 0.0
H1242 H 0.77896 0.59041 0.32305 0.0
H1243 H 0.72341 0.62069 0.43974 0.0
H1244 H 0.78367 0.59355 0.56559 0.0
H1245 H 0.74995 0.5904 0.49466 0.0
H1246 H 0.80519 0.62101 0.37795 0.0
H1247 H 0.83845 0.62432 0.44805 0.0
C1248 C 0.74016 0.59908 0.29298 0.0
C1249 C 0.71477 0.60852 0.30489 0.0
C1250 C 0.75954 0.59757 0.33367 0.0
C1251 C 0.75393 0.60523 0.38738 0.0
C1252 C 0.72841 0.6142 0.39926 0.0
C1253 C 0.70924 0.61596 0.35869 0.0
C1254 C 0.78864 0.59945 0.52475 0.0
C1255 C 0.81393 0.60909 0.51284 0.0
C1256 C 0.76929 0.59772 0.48404 0.0
C1257 C 0.77483 0.60535 0.43032 0.0
C1258 C 0.80025 0.61453 0.41844 0.0
C1259 C 0.81939 0.61651 0.45903 0.0
H1260 H 0.62096 0.18734 0.62301 0.0
H1261 H 0.59916 0.24474 0.50208 0.0
H1262 H 0.61854 0.22081 0.69287 0.0
H1263 H 0.59606 0.27842 0.57277 0.0
H1264 H 0.62703 0.33667 0.7008 0.0
H1265 H 0.62454 0.30336 0.63088 0.0
H1266 H 0.59038 0.24902 0.74529 0.0
H1267 H 0.5931 0.28268 0.8162 0.0
C1268 C 0.61548 0.20711 0.61119 0.0
C1269 C 0.61052 0.21327 0.55647 0.0
C1270 C 0.61381 0.22635 0.65166 0.0
C1271 C 0.60713 0.25248 0.63888 0.0
C1272 C 0.60161 0.2586 0.58425 0.0
C1273 C 0.60324 0.23924 0.54361 0.0
C1274 C 0.61871 0.31776 0.71133 0.0
C1275 C 0.61021 0.31253 0.76456 0.0
C1276 C 0.61716 0.29857 0.67078 0.0
C1277 C 0.60719 0.27337 0.68196 0.0
C1278 C 0.59843 0.26811 0.73511 0.0
C1279 C 0.59988 0.28746 0.77585 0.0
H1280 H 0.32801 0.08852 0.52144 0.0
H1281 H 0.3922 0.14045 0.47979 0.0
H1282 H 0.3386 0.09366 0.61687 0.0
H1283 H 0.40169 0.14695 0.57533 0.0
H1284 H 0.42989 0.13205 0.74786 0.0
H1285 H 0.41969 0.12617 0.65221 0.0
H1286 H 0.33666 0.1233 0.69033 0.0
H1287 H 0.34705 0.12849 0.78614 0.0
C1288 C 0.3444 0.10105 0.53249 0.0
C1289 C 0.35925 0.11399 0.49247 0.0
C1290 C 0.35024 0.10433 0.58751 0.0
C1291 C 0.37101 0.1208 0.60428 0.0
C1292 C 0.38578 0.13383 0.56425 0.0
C1293 C 0.38005 0.1304 0.50922 0.0
C1294 C 0.40945 0.13032 0.73573 0.0
C1295 C 0.3893 0.13074 0.77469 0.0
C1296 C 0.40355 0.12701 0.68075 0.0
C1297 C 0.37729 0.12428 0.66309 0.0
C1298 C 0.35713 0.12485 0.70221 0.0
C1299 C 0.36307 0.12792 0.75726 0.0
H1300 H 0.14722 0.6948 0.56754 0.0
H1301 H 0.07891 0.64429 0.57517 0.0
H1302 H 0.15185 0.68499 0.47159 0.0
H1303 H 0.0844 0.63337 0.47992 0.0
H1304 H 0.08516 0.63982 0.29581 0.0
H1305 H 0.07991 0.65111 0.39111 0.0
H1306 H 0.16451 0.65072 0.41105 0.0
H1307 H 0.16968 0.6399 0.31547 0.0
C1308 C 0.13313 0.68164 0.54882 0.0
C1309 C 0.11264 0.67042 0.57936 0.0
C1310 C 0.13601 0.67571 0.4938 0.0
C1311 C 0.11856 0.65831 0.46774 0.0
C1312 C 0.09806 0.64709 0.49828 0.0
C1313 C 0.09511 0.6531 0.55326 0.0
C1314 C 0.10263 0.64202 0.32064 0.0
C1315 C 0.12784 0.63892 0.29799 0.0
C1316 C 0.09963 0.64845 0.37539 0.0
C1317 C 0.12176 0.6518 0.4091 0.0
C1318 C 0.14699 0.64875 0.3863 0.0
C1319 C 0.14998 0.64248 0.33145 0.0
H1320 H 0.62572 0.91584 0.47325 0.0
H1321 H 0.70846 0.91574 0.51479 0.0
H1322 H 0.61449 0.91259 0.56875 0.0
H1323 H 0.69727 0.91076 0.60976 0.0
H1324 H 0.66947 0.92697 0.78107 0.0
H1325 H 0.67987 0.93294 0.68563 0.0
H1326 H 0.61457 0.8826 0.64212 0.0
H1327 H 0.60386 0.87723 0.73762 0.0
C1328 C 0.64155 0.91519 0.50265 0.0
C1329 C 0.66803 0.91603 0.48597 0.0
C1330 C 0.6351 0.91292 0.55754 0.0
C1331 C 0.65494 0.91128 0.59731 0.0
C1332 C 0.6814 0.91229 0.5806 0.0
C1333 C 0.68785 0.91475 0.52581 0.0
C1334 C 0.6574 0.91711 0.75108 0.0
C1335 C 0.63584 0.90161 0.76697 0.0
C1336 C 0.6634 0.92047 0.69625 0.0
C1337 C 0.64813 0.90822 0.65581 0.0
C1338 C 0.62652 0.89274 0.67186 0.0
C1339 C 0.6204 0.88957 0.7267 0.0
H1340 H 0.90968 0.34933 0.28391 0.0
H1341 H 0.89232 0.43006 0.3258 0.0
H1342 H 0.91447 0.33862 0.37963 0.0
H1343 H 0.89725 0.41943 0.42141 0.0
H1344 H 0.88194 0.38609 0.58971 0.0
H1345 H 0.87659 0.39598 0.49391 0.0
H1346 H 0.9427 0.34555 0.45651 0.0
H1347 H 0.94723 0.33463 0.55208 0.0
C1348 C 0.9071 0.36486 0.31349 0.0
C1349 C 0.90057 0.39057 0.29699 0.0
C1350 C 0.90988 0.35872 0.36849 0.0
C1351 C 0.90625 0.37813 0.40851 0.0
C1352 C 0.89975 0.40384 0.39193 0.0
C1353 C 0.89693 0.40996 0.33698 0.0
C1354 C 0.89516 0.37683 0.56107 0.0
C1355 C 0.915 0.35948 0.57891 0.0
C1356 C 0.8923 0.38279 0.50605 0.0
C1357 C 0.90924 0.37164 0.46722 0.0
C1358 C 0.92909 0.3543 0.48504 0.0
C1359 C 0.93192 0.3483 0.54008 0.0
H1360 H 0.38926 0.36186 0.56784 0.0
H1361 H 0.38874 0.44614 0.54583 0.0
H1362 H 0.37895 0.3677 0.66344 0.0
H1363 H 0.37793 0.45208 0.64117 0.0
H1364 H 0.38473 0.45493 0.8252 0.0
H1365 H 0.39554 0.44874 0.73007 0.0
H1366 H 0.34521 0.38027 0.72447 0.0
H1367 H 0.33562 0.38556 0.82025 0.0
C1368 C 0.38665 0.38165 0.58329 0.0
C1369 C 0.38988 0.40352 0.54909 0.0
C1370 C 0.38068 0.38503 0.63821 0.0
C1371 C 0.37758 0.4104 0.66043 0.0
C1372 C 0.38063 0.43226 0.62599 0.0
C1373 C 0.38677 0.42887 0.57116 0.0
C1374 C 0.37621 0.43834 0.80395 0.0
C1375 C 0.35928 0.42076 0.83082 0.0
C1376 C 0.38214 0.43499 0.74898 0.0
C1377 C 0.37124 0.41401 0.71915 0.0
C1378 C 0.35427 0.39648 0.74602 0.0
C1379 C 0.34844 0.39975 0.801 0.0
H1380 H 0.42058 0.6255 0.22114 0.0
H1381 H 0.41223 0.70811 0.25957 0.0
H1382 H 0.41766 0.61473 0.31682 0.0
H1383 H 0.40744 0.6972 0.35473 0.0
H1384 H 0.42455 0.67248 0.52736 0.0
H1385 H 0.43033 0.68271 0.43202 0.0
H1386 H 0.38744 0.61227 0.38885 0.0
H1387 H 0.3833 0.6011 0.48406 0.0
C1388 C 0.41817 0.64141 0.2499 0.0
C1389 C 0.41665 0.66771 0.23231 0.0
C1390 C 0.41607 0.63518 0.30489 0.0
C1391 C 0.41216 0.65505 0.34382 0.0
C1392 C 0.41075 0.68135 0.32621 0.0
C1393 C 0.4131 0.6876 0.27132 0.0
C1394 C 0.4167 0.65892 0.49759 0.0
C1395 C 0.40351 0.63588 0.5137 0.0
C1396 C 0.41968 0.66502 0.44272 0.0
C1397 C 0.40932 0.64838 0.40239 0.0
C1398 C 0.39603 0.6254 0.41855 0.0
C1399 C 0.39327 0.61918 0.47338 0.0
H1400 H 0.69724 0.58414 0.80182 0.0
H1401 H 0.63804 0.64211 0.842 0.0
H1402 H 0.68625 0.58865 0.7064 0.0
H1403 H 0.62821 0.64783 0.74637 0.0
H1404 H 0.59716 0.63214 0.57611 0.0
H1405 H 0.60778 0.62699 0.67173 0.0
H1406 H 0.69 0.61722 0.63105 0.0
H1407 H 0.67918 0.6218 0.53531 0.0
C1408 C 0.68187 0.59786 0.79044 0.0
C1409 C 0.66852 0.61269 0.83002 0.0
C1410 C 0.67581 0.60075 0.73543 0.0
C1411 C 0.65634 0.61866 0.71827 0.0
C1412 C 0.64308 0.63357 0.75784 0.0
C1413 C 0.64901 0.63057 0.81286 0.0
C1414 C 0.61753 0.62906 0.58764 0.0
C1415 C 0.6373 0.62738 0.548 0.0
C1416 C 0.62367 0.62616 0.64259 0.0
C1417 C 0.6498 0.62171 0.65951 0.0
C1418 C 0.6696 0.62015 0.61974 0.0
C1419 C 0.66341 0.62285 0.56474 0.0
H1420 H 0.62114 0.34846 0.53428 0.0
H1421 H 0.63439 0.43001 0.49342 0.0
H1422 H 0.61641 0.33783 0.4385 0.0
H1423 H 0.62938 0.4195 0.39773 0.0
H1424 H 0.64517 0.38767 0.22841 0.0
H1425 H 0.65048 0.39759 0.32418 0.0
H1426 H 0.58777 0.34331 0.36243 0.0
H1427 H 0.58342 0.33232 0.26689 0.0
C1428 C 0.62281 0.36418 0.50489 0.0
C1429 C 0.62819 0.3901 0.52166 0.0
C1430 C 0.62006 0.35809 0.44986 0.0
C1431 C 0.6225 0.37778 0.41009 0.0
C1432 C 0.62782 0.40371 0.42697 0.0
C1433 C 0.63068 0.40977 0.48195 0.0
C1434 C 0.63271 0.37757 0.25722 0.0
C1435 C 0.6139 0.3591 0.23961 0.0
C1436 C 0.63552 0.38355 0.31226 0.0
C1437 C 0.61953 0.37132 0.35133 0.0
C1438 C 0.60067 0.35291 0.33372 0.0
C1439 C 0.59792 0.34686 0.27869 0.0
H1440 H 0.83091 0.58611 1.01599 0.0
H1441 H 0.89166 0.64228 0.9758 0.0
H1442 H 0.84198 0.5904 0.1114 0.0
H1443 H 0.90158 0.64783 0.07143 0.0
H1444 H 0.93199 0.63174 0.24195 0.0
H1445 H 0.92137 0.6267 0.14629 0.0
H1446 H 0.8389 0.61905 0.18662 0.0
H1447 H 0.84974 0.62346 0.28239 0.0
C1448 C 0.84664 0.59939 1.02736 0.0
C1449 C 0.86039 0.61377 0.98778 0.0
C1450 C 0.85275 0.60216 0.08238 0.0
C1451 C 0.87268 0.61953 0.09954 0.0
C1452 C 0.88635 0.634 0.05996 0.0
C1453 C 0.88037 0.63109 1.00493 0.0
C1454 C 0.91158 0.62913 0.23032 0.0
C1455 C 0.89173 0.628 0.26986 0.0
C1456 C 0.90544 0.62631 0.17535 0.0
C1457 C 0.87923 0.62249 0.15832 0.0
C1458 C 0.85936 0.62148 0.19801 0.0
C1459 C 0.86555 0.62409 0.25303 0.0
H1460 H 0.63417 0.09618 0.82905 0.0
H1461 H 0.62605 0.17838 0.78707 0.0
H1462 H 0.62898 0.10724 0.92441 0.0
H1463 H 0.62125 0.18942 0.88266 0.0
H1464 H 0.64168 0.20098 0.06316 0.0
H1465 H 0.64688 0.19014 0.96746 0.0
H1466 H 0.59519 0.1234 0.98737 0.0
H1467 H 0.59052 0.13386 0.08333 0.0
C1468 C 0.63108 0.1166 0.84001 0.0
C1469 C 0.63049 0.13635 0.80009 0.0
C1470 C 0.62813 0.12294 0.8948 0.0
C1471 C 0.62465 0.14922 0.91126 0.0
C1472 C 0.62424 0.16901 0.87148 0.0
C1473 C 0.62705 0.16267 0.81661 0.0
C1474 C 0.63157 0.18389 0.0472 0.0
C1475 C 0.61572 0.16827 0.081 0.0
C1476 C 0.63434 0.17783 0.9922 0.0
C1477 C 0.62146 0.15589 0.96968 0.0
C1478 C 0.6056 0.14028 1.00348 0.0
C1479 C 0.6027 0.14644 0.05839 0.0
H1480 H 0.1458 0.44216 0.27745 0.0
H1481 H 0.13788 0.35843 0.25208 0.0
H1482 H 0.15655 0.44797 0.18206 0.0
H1483 H 0.14834 0.36422 0.15655 0.0
H1484 H 0.19312 0.38022 1.00018 0.0
H1485 H 0.18352 0.37487 0.09605 0.0
H1486 H 0.13741 0.4464 0.09336 0.0
H1487 H 0.14809 0.45244 0.99808 0.0
C1488 C 0.14613 0.425 0.2514 0.0
C1489 C 0.14094 0.39982 0.27251 0.0
C1490 C 0.15227 0.42833 0.19659 0.0
C1491 C 0.1533 0.40658 0.16131 0.0
C1492 C 0.14817 0.38139 0.18253 0.0
C1493 C 0.14213 0.37805 0.23739 0.0
C1494 C 0.18121 0.39502 1.02011 0.0
C1495 C 0.17147 0.41682 0.99115 0.0
C1496 C 0.1754 0.39175 0.07508 0.0
C1497 C 0.15962 0.41016 0.10269 0.0
C1498 C 0.14987 0.43196 0.07374 0.0
C1499 C 0.15572 0.43525 1.01877 0.0
H1500 H 0.44795 0.83626 0.04856 0.0
H1501 H 0.38308 0.8884 0.08532 0.0
H1502 H 0.44408 0.8475 0.95308 0.0
H1503 H 0.37827 0.8985 0.98957 0.0
H1504 H 0.39365 0.93193 0.82142 0.0
H1505 H 0.39884 0.92159 0.91717 0.0
H1506 H 0.41634 0.84073 0.87612 0.0
H1507 H 0.41154 0.85124 0.78032 0.0
C1508 C 0.43288 0.85016 0.03638 0.0
C1509 C 0.41585 0.8614 0.0749 0.0
C1510 C 0.43042 0.85634 0.98139 0.0
C1511 C 0.4108 0.87387 0.96334 0.0
C1512 C 0.39382 0.88516 1.00189 0.0
C1513 C 0.39634 0.87907 0.05687 0.0
C1514 C 0.39845 0.91191 0.83288 0.0
C1515 C 0.40216 0.89242 0.79318 0.0
C1516 C 0.40139 0.90595 0.88785 0.0
C1517 C 0.40798 0.88029 0.90463 0.0
C1518 C 0.4117 0.8608 0.86481 0.0
C1519 C 0.40889 0.8668 0.80981 0.0
H1520 H 0.88664 0.88254 0.33522 0.0
H1521 H 0.83737 0.94982 0.29997 0.0
H1522 H 0.89695 0.87821 0.23947 0.0
H1523 H 0.84877 0.9463 0.20447 0.0
H1524 H 0.85135 0.91423 1.03089 0.0
H1525 H 0.84091 0.91904 0.12669 0.0
H1526 H 0.92115 0.89872 0.16801 0.0
H1527 H 0.93146 0.89364 0.07226 0.0
C1528 C 0.87799 0.89644 0.3071 0.0
C1529 C 0.86105 0.91647 0.32551 0.0
C1530 C 0.8842 0.89416 0.25214 0.0
C1531 C 0.87373 0.9119 0.21402 0.0
C1532 C 0.85695 0.93207 0.23247 0.0
C1533 C 0.85069 0.93431 0.28745 0.0
C1534 C 0.86682 0.91099 0.06042 0.0
C1535 C 0.89224 0.90349 0.04383 0.0
C1536 C 0.86085 0.91379 0.11543 0.0
C1537 C 0.88016 0.90926 0.1553 0.0
C1538 C 0.90563 0.90193 0.1386 0.0
C1539 C 0.91157 0.89903 0.08363 0.0
H1540 H 0.87359 0.11319 0.98702 0.0
H1541 H 0.92218 0.17954 1.03183 0.0
H1542 H 0.87798 0.125 0.89224 0.0
H1543 H 0.92804 0.19032 0.93666 0.0
H1544 H 0.91471 0.21705 0.76213 0.0
H1545 H 0.90768 0.20724 0.85781 0.0
H1546 H 0.90878 0.12397 0.82144 0.0
H1547 H 0.91502 0.13391 0.72603 0.0
C1548 C 0.88516 0.13036 0.97681 0.0
C1549 C 0.89755 0.14532 1.01747 0.0
C1550 C 0.88803 0.13693 0.92214 0.0
C1551 C 0.9036 0.15851 0.90633 0.0
C1552 C 0.91572 0.1737 0.94703 0.0
C1553 C 0.91266 0.16725 1.00178 0.0
C1554 C 0.91349 0.19667 0.77475 0.0
C1555 C 0.91528 0.17627 0.73643 0.0
C1556 C 0.90954 0.191 0.82966 0.0
C1557 C 0.90755 0.16477 0.84772 0.0
C1558 C 0.90959 0.14442 0.80921 0.0
C1559 C 0.91327 0.1501 0.75437 0.0
H1560 H 0.1806 0.11932 0.03427 0.0
H1561 H 0.10036 0.13859 0.07709 0.0
H1562 H 0.19127 0.11336 0.12979 0.0
H1563 H 0.111 0.13238 0.17242 0.0
H1564 H 0.13238 0.09216 0.33249 0.0
H1565 H 0.12231 0.09771 0.23657 0.0
H1566 H 0.19624 0.13818 0.21395 0.0
H1567 H 0.20668 0.13191 0.30954 0.0
C1568 C 0.16527 0.12253 0.06399 0.0
C1569 C 0.13958 0.12943 0.0477 0.0
C1570 C 0.17139 0.11906 0.11886 0.0
C1571 C 0.15199 0.12231 0.15893 0.0
C1572 C 0.12634 0.12927 0.14267 0.0
C1573 C 0.12023 0.13282 0.08787 0.0
C1574 C 0.14662 0.10201 0.30698 0.0
C1575 C 0.17036 0.11157 0.32887 0.0
C1576 C 0.14071 0.10546 0.25204 0.0
C1577 C 0.15842 0.11846 0.21742 0.0
C1578 C 0.18224 0.12787 0.23924 0.0
C1579 C 0.1881 0.12453 0.29424 0.0
H1580 H 0.09466 0.89796 0.73152 0.0
H1581 H 0.13386 0.82355 0.75825 0.0
H1582 H 0.09922 0.90847 0.82738 0.0
H1583 H 0.13935 0.83453 0.85366 0.0
H1584 H 0.11982 0.85082 1.03191 0.0
H1585 H 0.11452 0.8398 0.93642 0.0
H1586 H 0.1325 0.92017 0.89315 0.0
H1587 H 0.13778 0.93118 0.98857 0.0
C1588 C 0.1042 0.8838 0.75782 0.0
C1589 C 0.11388 0.85989 0.73699 0.0
C1590 C 0.1071 0.88997 0.81276 0.0
C1591 C 0.11973 0.8724 0.84841 0.0
C1592 C 0.1293 0.84843 0.82761 0.0
C1593 C 0.12642 0.84227 0.77267 0.0
C1594 C 0.12289 0.86609 1.00202 0.0
C1595 C 0.12922 0.89191 1.0181 0.0
C1596 C 0.11984 0.85977 0.94718 0.0
C1597 C 0.12303 0.87909 0.90691 0.0
C1598 C 0.12943 0.90488 0.92301 0.0
C1599 C 0.13249 0.9112 0.97782 0.0
loop_
_geom_bond_atom_site_label_1
_geom_bond_atom_site_label_2
_geom_bond_distance
_geom_bond_site_symmetry_2
_ccdc_geom_bond_type
Tb0 C2 2.809 . S
Tb0 O20 2.484 . S
Tb0 O21 2.440 . S
Tb0 O22 2.658 . S
Tb0 O23 2.409 . S
Tb0 O24 2.378 . S
Tb0 O28 2.325 . S
Tb0 O31 2.341 . S
Tb1 C11 2.809 1_554 S
Tb1 O22 2.325 . S
Tb1 O25 2.341 . S
Tb1 O26 2.484 1_554 S
Tb1 O27 2.440 1_554 S
Tb1 O28 2.658 . S
Tb1 O29 2.409 . S
Tb1 O30 2.378 . S
C2 Tb0 2.809 . S
C2 C3 1.514 . S
C2 O20 1.248 . S
C2 O21 1.266 . S
C3 C2 1.514 . S
C3 C4 1.359 . S
C3 C8 1.348 . S
C4 C3 1.359 . S
C4 C5 1.380 . S
C4 H32 0.929 . S
C5 C4 1.380 . S
C5 C6 1.347 . S
C5 H33 0.931 . S
C6 C5 1.347 . S
C6 C7 1.369 . S
C7 C6 1.369 . S
C7 C8 1.408 . S
C7 H34 0.930 . S
C8 C3 1.348 . S
C8 C7 1.408 . S
C8 H35 0.930 . S
C9 O22 1.281 . S
C9 O23 1.254 . S
C10 O24 1.236 . S
C10 O25 1.266 . S
C11 Tb1 2.809 1_556 S
C11 C12 1.514 . S
C11 O26 1.248 . S
C11 O27 1.266 . S
C12 C11 1.514 . S
C12 C13 1.359 . S
C12 C17 1.348 . S
C13 C12 1.359 . S
C13 C14 1.380 . S
C13 H36 0.929 . S
C14 C13 1.380 . S
C14 C15 1.347 . S
C14 H37 0.931 . S
C15 C14 1.347 . S
C15 C16 1.369 . S
C16 C15 1.369 . S
C16 C17 1.408 . S
C16 H38 0.930 . S
C17 C12 1.348 . S
C17 C16 1.408 . S
C17 H39 0.930 . S
C18 O28 1.281 . S
C18 O29 1.254 . S
C19 O30 1.236 . S
C19 O31 1.266 . S
O20 Tb0 2.484 . S
O20 C2 1.248 . S
O21 Tb0 2.440 . S
O21 C2 1.266 . S
O22 Tb0 2.658 . S
O22 Tb1 2.325 . S
O22 C9 1.281 . S
O23 Tb0 2.409 . S
O23 C9 1.254 . S
O24 Tb0 2.378 . S
O24 C10 1.236 . S
O25 Tb1 2.341 . S
O25 C10 1.266 . S
O26 Tb1 2.484 1_556 S
O26 C11 1.248 . S
O27 Tb1 2.440 1_556 S
O27 C11 1.266 . S
O28 Tb0 2.325 . S
O28 Tb1 2.658 . S
O28 C18 1.281 . S
O29 Tb1 2.409 . S
O29 C18 1.254 . S
O30 Tb1 2.378 . S
O30 C19 1.236 . S
O31 Tb0 2.341 . S
O31 C19 1.266 . S
H32 C4 0.929 . S
H33 C5 0.931 . S
H34 C7 0.930 . S
H35 C8 0.930 . S
H36 C13 0.929 . S
H37 C14 0.931 . S
H38 C16 0.930 . S
H39 C17 0.930 . S
Tb40 C42 2.809 1_556 S
Tb40 O60 2.484 1_556 S
Tb40 O61 2.440 1_556 S
Tb40 O62 2.658 . S
Tb40 O63 2.409 . S
Tb40 O64 2.378 . S
Tb40 O68 2.325 . S
Tb40 O71 2.341 . S
Tb41 C51 2.809 . S
Tb41 O62 2.325 . S
Tb41 O65 2.341 . S
Tb41 O66 2.484 . S
Tb41 O67 2.440 . S
Tb41 O68 2.658 . S
Tb41 O69 2.409 . S
Tb41 O70 2.378 . S
C42 Tb40 2.809 1_554 S
C42 C43 1.514 . S
C42 O60 1.248 . S
C42 O61 1.266 . S
C43 C42 1.514 . S
C43 C44 1.359 . S
C43 C48 1.348 . S
C44 C43 1.359 . S
C44 C45 1.380 . S
C44 H72 0.929 . S
C45 C44 1.380 . S
C45 C46 1.347 . S
C45 H73 0.931 . S
C46 C45 1.347 . S
C46 C47 1.369 . S
C47 C46 1.369 . S
C47 C48 1.408 . S
C47 H74 0.930 . S
C48 C43 1.348 . S
C48 C47 1.408 . S
C48 H75 0.930 . S
C49 O62 1.281 . S
C49 O63 1.254 . S
C50 O64 1.236 . S
C50 O65 1.266 . S
C51 Tb41 2.809 . S
C51 C52 1.514 . S
C51 O66 1.248 . S
C51 O67 1.266 . S
C52 C51 1.514 . S
C52 C53 1.359 . S
C52 C57 1.348 . S
C53 C52 1.359 . S
C53 C54 1.380 . S
C53 H76 0.929 . S
C54 C53 1.380 . S
C54 C55 1.347 . S
C54 H77 0.931 . S
C55 C54 1.347 . S
C55 C56 1.369 . S
C56 C55 1.369 . S
C56 C57 1.408 . S
C56 H78 0.930 . S
C57 C52 1.348 . S
C57 C56 1.408 . S
C57 H79 0.930 . S
C58 O68 1.281 . S
C58 O69 1.254 . S
C59 O70 1.236 . S
C59 O71 1.266 . S
O60 Tb40 2.484 1_554 S
O60 C42 1.248 . S
O61 Tb40 2.440 1_554 S
O61 C42 1.266 . S
O62 Tb40 2.658 . S
O62 Tb41 2.325 . S
O62 C49 1.281 . S
O63 Tb40 2.409 . S
O63 C49 1.254 . S
O64 Tb40 2.378 . S
O64 C50 1.236 . S
O65 Tb41 2.341 . S
O65 C50 1.266 . S
O66 Tb41 2.484 . S
O66 C51 1.248 . S
O67 Tb41 2.440 . S
O67 C51 1.266 . S
O68 Tb40 2.325 . S
O68 Tb41 2.658 . S
O68 C58 1.281 . S
O69 Tb41 2.409 . S
O69 C58 1.254 . S
O70 Tb41 2.378 . S
O70 C59 1.236 . S
O71 Tb40 2.341 . S
O71 C59 1.266 . S
H72 C44 0.929 . S
H73 C45 0.931 . S
H74 C47 0.930 . S
H75 C48 0.930 . S
H76 C53 0.929 . S
H77 C54 0.931 . S
H78 C56 0.930 . S
H79 C57 0.930 . S
Tb80 C82 2.809 . S
Tb80 O100 2.484 . S
Tb80 O101 2.440 . S
Tb80 O102 2.658 . S
Tb80 O103 2.409 . S
Tb80 O104 2.378 . S
Tb80 O108 2.325 . S
Tb80 O111 2.341 . S
Tb81 C91 2.809 1_554 S
Tb81 O102 2.325 . S
Tb81 O105 2.341 . S
Tb81 O106 2.484 1_554 S
Tb81 O107 2.440 1_554 S
Tb81 O108 2.658 . S
Tb81 O109 2.409 . S
Tb81 O110 2.378 . S
C82 Tb80 2.809 . S
C82 C83 1.514 . S
C82 O100 1.248 . S
C82 O101 1.266 . S
C83 C82 1.514 . S
C83 C84 1.359 . S
C83 C88 1.348 . S
C84 C83 1.359 . S
C84 C85 1.380 . S
C84 H112 0.929 . S
C85 C84 1.380 . S
C85 C86 1.347 . S
C85 H113 0.931 . S
C86 C85 1.347 . S
C86 C87 1.369 . S
C87 C86 1.369 . S
C87 C88 1.408 . S
C87 H114 0.930 . S
C88 C83 1.348 . S
C88 C87 1.408 . S
C88 H115 0.930 . S
C89 O102 1.281 . S
C89 O103 1.254 . S
C90 O104 1.236 . S
C90 O105 1.266 . S
C91 Tb81 2.809 1_556 S
C91 C92 1.514 . S
C91 O106 1.248 . S
C91 O107 1.266 . S
C92 C91 1.514 . S
C92 C93 1.359 . S
C92 C97 1.348 . S
C93 C92 1.359 . S
C93 C94 1.380 . S
C93 H116 0.929 . S
C94 C93 1.380 . S
C94 C95 1.347 . S
C94 H117 0.931 . S
C95 C94 1.347 . S
C95 C96 1.369 . S
C96 C95 1.369 . S
C96 C97 1.408 . S
C96 H118 0.930 . S
C97 C92 1.348 . S
C97 C96 1.408 . S
C97 H119 0.930 . S
C98 O108 1.281 . S
C98 O109 1.254 . S
C99 O110 1.236 . S
C99 O111 1.266 . S
O100 Tb80 2.484 . S
O100 C82 1.248 . S
O101 Tb80 2.440 . S
O101 C82 1.266 . S
O102 Tb80 2.658 . S
O102 Tb81 2.325 . S
O102 C89 1.281 . S
O103 Tb80 2.409 . S
O103 C89 1.254 . S
O104 Tb80 2.378 . S
O104 C90 1.236 . S
O105 Tb81 2.341 . S
O105 C90 1.266 . S
O106 Tb81 2.484 1_556 S
O106 C91 1.248 . S
O107 Tb81 2.440 1_556 S
O107 C91 1.266 . S
O108 Tb80 2.325 . S
O108 Tb81 2.658 . S
O108 C98 1.281 . S
O109 Tb81 2.409 . S
O109 C98 1.254 . S
O110 Tb81 2.378 . S
O110 C99 1.236 . S
O111 Tb80 2.341 . S
O111 C99 1.266 . S
H112 C84 0.929 . S
H113 C85 0.931 . S
H114 C87 0.930 . S
H115 C88 0.930 . S
H116 C93 0.929 . S
H117 C94 0.931 . S
H118 C96 0.930 . S
H119 C97 0.930 . S
Tb120 C122 2.809 1_556 S
Tb120 O140 2.484 1_556 S
Tb120 O141 2.440 1_556 S
Tb120 O142 2.658 . S
Tb120 O143 2.409 . S
Tb120 O144 2.378 . S
Tb120 O148 2.325 . S
Tb120 O151 2.341 . S
Tb121 C131 2.809 . S
Tb121 O142 2.325 . S
Tb121 O145 2.341 . S
Tb121 O146 2.484 . S
Tb121 O147 2.440 . S
Tb121 O148 2.658 . S
Tb121 O149 2.409 . S
Tb121 O150 2.378 . S
C122 Tb120 2.809 1_554 S
C122 C123 1.514 . S
C122 O140 1.248 . S
C122 O141 1.266 . S
C123 C122 1.514 . S
C123 C124 1.359 . S
C123 C128 1.348 . S
C124 C123 1.359 . S
C124 C125 1.380 . S
C124 H152 0.929 . S
C125 C124 1.380 . S
C125 C126 1.347 . S
C125 H153 0.931 . S
C126 C125 1.347 . S
C126 C127 1.369 . S
C127 C126 1.369 . S
C127 C128 1.408 . S
C127 H154 0.930 . S
C128 C123 1.348 . S
C128 C127 1.408 . S
C128 H155 0.930 . S
C129 O142 1.281 . S
C129 O143 1.254 . S
C130 O144 1.236 . S
C130 O145 1.266 . S
C131 Tb121 2.809 . S
C131 C132 1.514 . S
C131 O146 1.248 . S
C131 O147 1.266 . S
C132 C131 1.514 . S
C132 C133 1.359 . S
C132 C137 1.348 . S
C133 C132 1.359 . S
C133 C134 1.380 . S
C133 H156 0.929 . S
C134 C133 1.380 . S
C134 C135 1.347 . S
C134 H157 0.931 . S
C135 C134 1.347 . S
C135 C136 1.369 . S
C136 C135 1.369 . S
C136 C137 1.408 . S
C136 H158 0.930 . S
C137 C132 1.348 . S
C137 C136 1.408 . S
C137 H159 0.930 . S
C138 O148 1.281 . S
C138 O149 1.254 . S
C139 O150 1.236 . S
C139 O151 1.266 . S
O140 Tb120 2.484 1_554 S
O140 C122 1.248 . S
O141 Tb120 2.440 1_554 S
O141 C122 1.266 . S
O142 Tb120 2.658 . S
O142 Tb121 2.325 . S
O142 C129 1.281 . S
O143 Tb120 2.409 . S
O143 C129 1.254 . S
O144 Tb120 2.378 . S
O144 C130 1.236 . S
O145 Tb121 2.341 . S
O145 C130 1.266 . S
O146 Tb121 2.484 . S
O146 C131 1.248 . S
O147 Tb121 2.440 . S
O147 C131 1.266 . S
O148 Tb120 2.325 . S
O148 Tb121 2.658 . S
O148 C138 1.281 . S
O149 Tb121 2.409 . S
O149 C138 1.254 . S
O150 Tb121 2.378 . S
O150 C139 1.236 . S
O151 Tb120 2.341 . S
O151 C139 1.266 . S
H152 C124 0.929 . S
H153 C125 0.931 . S
H154 C127 0.930 . S
H155 C128 0.930 . S
H156 C133 0.929 . S
H157 C134 0.931 . S
H158 C136 0.930 . S
H159 C137 0.930 . S
Tb160 C162 2.809 1_554 S
Tb160 O180 2.484 1_554 S
Tb160 O181 2.440 1_554 S
Tb160 O182 2.658 . S
Tb160 O183 2.409 . S
Tb160 O184 2.378 . S
Tb160 O188 2.325 . S
Tb160 O191 2.341 . S
Tb161 C171 2.809 . S
Tb161 O182 2.325 . S
Tb161 O185 2.341 . S
Tb161 O186 2.484 . S
Tb161 O187 2.440 . S
Tb161 O188 2.658 . S
Tb161 O189 2.409 . S
Tb161 O190 2.378 . S
C162 Tb160 2.809 1_556 S
C162 C163 1.514 . S
C162 O180 1.248 . S
C162 O181 1.266 . S
C163 C162 1.514 . S
C163 C164 1.359 . S
C163 C168 1.348 . S
C164 C163 1.359 . S
C164 C165 1.380 . S
C164 H192 0.929 . S
C165 C164 1.380 . S
C165 C166 1.347 . S
C165 H193 0.931 . S
C166 C165 1.347 . S
C166 C167 1.369 . S
C167 C166 1.369 . S
C167 C168 1.408 . S
C167 H194 0.930 . S
C168 C163 1.348 . S
C168 C167 1.408 . S
C168 H195 0.930 . S
C169 O182 1.281 . S
C169 O183 1.254 . S
C170 O184 1.236 . S
C170 O185 1.266 . S
C171 Tb161 2.809 . S
C171 C172 1.514 . S
C171 O186 1.248 . S
C171 O187 1.266 . S
C172 C171 1.514 . S
C172 C173 1.359 . S
C172 C177 1.348 . S
C173 C172 1.359 . S
C173 C174 1.380 . S
C173 H196 0.929 . S
C174 C173 1.380 . S
C174 C175 1.347 . S
C174 H197 0.931 . S
C175 C174 1.347 . S
C175 C176 1.369 . S
C176 C175 1.369 . S
C176 C177 1.408 . S
C176 H198 0.930 . S
C177 C172 1.348 . S
C177 C176 1.408 . S
C177 H199 0.930 . S
C178 O188 1.281 . S
C178 O189 1.254 . S
C179 O190 1.236 . S
C179 O191 1.266 . S
O180 Tb160 2.484 1_556 S
O180 C162 1.248 . S
O181 Tb160 2.440 1_556 S
O181 C162 1.266 . S
O182 Tb160 2.658 . S
O182 Tb161 2.325 . S
O182 C169 1.281 . S
O183 Tb160 2.409 . S
O183 C169 1.254 . S
O184 Tb160 2.378 . S
O184 C170 1.236 . S
O185 Tb161 2.341 . S
O185 C170 1.266 . S
O186 Tb161 2.484 . S
O186 C171 1.248 . S
O187 Tb161 2.440 . S
O187 C171 1.266 . S
O188 Tb160 2.325 . S
O188 Tb161 2.658 . S
O188 C178 1.281 . S
O189 Tb161 2.409 . S
O189 C178 1.254 . S
O190 Tb161 2.378 . S
O190 C179 1.236 . S
O191 Tb160 2.341 . S
O191 C179 1.266 . S
H192 C164 0.929 . S
H193 C165 0.931 . S
H194 C167 0.930 . S
H195 C168 0.930 . S
H196 C173 0.929 . S
H197 C174 0.931 . S
H198 C176 0.930 . S
H199 C177 0.930 . S
Tb200 C202 2.809 . S
Tb200 O220 2.484 . S
Tb200 O221 2.440 . S
Tb200 O222 2.658 . S
Tb200 O223 2.409 . S
Tb200 O224 2.378 . S
Tb200 O228 2.325 . S
Tb200 O231 2.341 . S
Tb201 C211 2.809 1_556 S
Tb201 O222 2.325 . S
Tb201 O225 2.341 . S
Tb201 O226 2.484 1_556 S
Tb201 O227 2.440 1_556 S
Tb201 O228 2.658 . S
Tb201 O229 2.409 . S
Tb201 O230 2.378 . S
C202 Tb200 2.809 . S
C202 C203 1.514 . S
C202 O220 1.248 . S
C202 O221 1.266 . S
C203 C202 1.514 . S
C203 C204 1.359 . S
C203 C208 1.348 . S
C204 C203 1.359 . S
C204 C205 1.380 . S
C204 H232 0.929 . S
C205 C204 1.380 . S
C205 C206 1.347 . S
C205 H233 0.931 . S
C206 C205 1.347 . S
C206 C207 1.369 . S
C207 C206 1.369 . S
C207 C208 1.408 . S
C207 H234 0.930 . S
C208 C203 1.348 . S
C208 C207 1.408 . S
C208 H235 0.930 . S
C209 O222 1.281 . S
C209 O223 1.254 . S
C210 O224 1.236 . S
C210 O225 1.266 . S
C211 Tb201 2.809 1_554 S
C211 C212 1.514 . S
C211 O226 1.248 . S
C211 O227 1.266 . S
C212 C211 1.514 . S
C212 C213 1.359 . S
C212 C217 1.348 . S
C213 C212 1.359 . S
C213 C214 1.380 . S
C213 H236 0.929 . S
C214 C213 1.380 . S
C214 C215 1.347 . S
C214 H237 0.931 . S
C215 C214 1.347 . S
C215 C216 1.369 . S
C216 C215 1.369 . S
C216 C217 1.408 . S
C216 H238 0.930 . S
C217 C212 1.348 . S
C217 C216 1.408 . S
C217 H239 0.930 . S
C218 O228 1.281 . S
C218 O229 1.254 . S
C219 O230 1.236 . S
C219 O231 1.266 . S
O220 Tb200 2.484 . S
O220 C202 1.248 . S
O221 Tb200 2.440 . S
O221 C202 1.266 . S
O222 Tb200 2.658 . S
O222 Tb201 2.325 . S
O222 C209 1.281 . S
O223 Tb200 2.409 . S
O223 C209 1.254 . S
O224 Tb200 2.378 . S
O224 C210 1.236 . S
O225 Tb201 2.341 . S
O225 C210 1.266 . S
O226 Tb201 2.484 1_554 S
O226 C211 1.248 . S
O227 Tb201 2.440 1_554 S
O227 C211 1.266 . S
O228 Tb200 2.325 . S
O228 Tb201 2.658 . S
O228 C218 1.281 . S
O229 Tb201 2.409 . S
O229 C218 1.254 . S
O230 Tb201 2.378 . S
O230 C219 1.236 . S
O231 Tb200 2.341 . S
O231 C219 1.266 . S
H232 C204 0.929 . S
H233 C205 0.931 . S
H234 C207 0.930 . S
H235 C208 0.930 . S
H236 C213 0.929 . S
H237 C214 0.931 . S
H238 C216 0.930 . S
H239 C217 0.930 . S
Tb240 C242 2.809 1_554 S
Tb240 O260 2.484 1_554 S
Tb240 O261 2.440 1_554 S
Tb240 O262 2.658 . S
Tb240 O263 2.409 . S
Tb240 O264 2.378 . S
Tb240 O268 2.325 . S
Tb240 O271 2.341 . S
Tb241 C251 2.809 . S
Tb241 O262 2.325 . S
Tb241 O265 2.341 . S
Tb241 O266 2.484 . S
Tb241 O267 2.440 . S
Tb241 O268 2.658 . S
Tb241 O269 2.409 . S
Tb241 O270 2.378 . S
C242 Tb240 2.809 1_556 S
C242 C243 1.514 . S
C242 O260 1.248 . S
C242 O261 1.266 . S
C243 C242 1.514 . S
C243 C244 1.359 . S
C243 C248 1.348 . S
C244 C243 1.359 . S
C244 C245 1.380 . S
C244 H272 0.929 . S
C245 C244 1.380 . S
C245 C246 1.347 . S
C245 H273 0.931 . S
C246 C245 1.347 . S
C246 C247 1.369 . S
C247 C246 1.369 . S
C247 C248 1.408 . S
C247 H274 0.930 . S
C248 C243 1.348 . S
C248 C247 1.408 . S
C248 H275 0.930 . S
C249 O262 1.281 . S
C249 O263 1.254 . S
C250 O264 1.236 . S
C250 O265 1.266 . S
C251 Tb241 2.809 . S
C251 C252 1.514 . S
C251 O266 1.248 . S
C251 O267 1.266 . S
C252 C251 1.514 . S
C252 C253 1.359 . S
C252 C257 1.348 . S
C253 C252 1.359 . S
C253 C254 1.380 . S
C253 H276 0.929 . S
C254 C253 1.380 . S
C254 C255 1.347 . S
C254 H277 0.931 . S
C255 C254 1.347 . S
C255 C256 1.369 . S
C256 C255 1.369 . S
C256 C257 1.408 . S
C256 H278 0.930 . S
C257 C252 1.348 . S
C257 C256 1.408 . S
C257 H279 0.930 . S
C258 O268 1.281 . S
C258 O269 1.254 . S
C259 O270 1.236 . S
C259 O271 1.266 . S
O260 Tb240 2.484 1_556 S
O260 C242 1.248 . S
O261 Tb240 2.440 1_556 S
O261 C242 1.266 . S
O262 Tb240 2.658 . S
O262 Tb241 2.325 . S
O262 C249 1.281 . S
O263 Tb240 2.409 . S
O263 C249 1.254 . S
O264 Tb240 2.378 . S
O264 C250 1.236 . S
O265 Tb241 2.341 . S
O265 C250 1.266 . S
O266 Tb241 2.484 . S
O266 C251 1.248 . S
O267 Tb241 2.440 . S
O267 C251 1.266 . S
O268 Tb240 2.325 . S
O268 Tb241 2.658 . S
O268 C258 1.281 . S
O269 Tb241 2.409 . S
O269 C258 1.254 . S
O270 Tb241 2.378 . S
O270 C259 1.236 . S
O271 Tb240 2.341 . S
O271 C259 1.266 . S
H272 C244 0.929 . S
H273 C245 0.931 . S
H274 C247 0.930 . S
H275 C248 0.930 . S
H276 C253 0.929 . S
H277 C254 0.931 . S
H278 C256 0.930 . S
H279 C257 0.930 . S
Tb280 C282 2.809 . S
Tb280 O300 2.484 . S
Tb280 O301 2.440 . S
Tb280 O302 2.658 . S
Tb280 O303 2.409 . S
Tb280 O304 2.378 . S
Tb280 O308 2.325 . S
Tb280 O311 2.341 . S
Tb281 C291 2.809 1_556 S
Tb281 O302 2.325 . S
Tb281 O305 2.341 . S
Tb281 O306 2.484 1_556 S
Tb281 O307 2.440 1_556 S
Tb281 O308 2.658 . S
Tb281 O309 2.409 . S
Tb281 O310 2.378 . S
C282 Tb280 2.809 . S
C282 C283 1.514 . S
C282 O300 1.248 . S
C282 O301 1.266 . S
C283 C282 1.514 . S
C283 C284 1.359 . S
C283 C288 1.348 . S
C284 C283 1.359 . S
C284 C285 1.380 . S
C284 H312 0.929 . S
C285 C284 1.380 . S
C285 C286 1.347 . S
C285 H313 0.931 . S
C286 C285 1.347 . S
C286 C287 1.369 . S
C287 C286 1.369 . S
C287 C288 1.408 . S
C287 H314 0.930 . S
C288 C283 1.348 . S
C288 C287 1.408 . S
C288 H315 0.930 . S
C289 O302 1.281 . S
C289 O303 1.254 . S
C290 O304 1.236 . S
C290 O305 1.266 . S
C291 Tb281 2.809 1_554 S
C291 C292 1.514 . S
C291 O306 1.248 . S
C291 O307 1.266 . S
C292 C291 1.514 . S
C292 C293 1.359 . S
C292 C297 1.348 . S
C293 C292 1.359 . S
C293 C294 1.380 . S
C293 H316 0.929 . S
C294 C293 1.380 . S
C294 C295 1.347 . S
C294 H317 0.931 . S
C295 C294 1.347 . S
C295 C296 1.369 . S
C296 C295 1.369 . S
C296 C297 1.408 . S
C296 H318 0.930 . S
C297 C292 1.348 . S
C297 C296 1.408 . S
C297 H319 0.930 . S
C298 O308 1.281 . S
C298 O309 1.254 . S
C299 O310 1.236 . S
C299 O311 1.266 . S
O300 Tb280 2.484 . S
O300 C282 1.248 . S
O301 Tb280 2.440 . S
O301 C282 1.266 . S
O302 Tb280 2.658 . S
O302 Tb281 2.325 . S
O302 C289 1.281 . S
O303 Tb280 2.409 . S
O303 C289 1.254 . S
O304 Tb280 2.378 . S
O304 C290 1.236 . S
O305 Tb281 2.341 . S
O305 C290 1.266 . S
O306 Tb281 2.484 1_554 S
O306 C291 1.248 . S
O307 Tb281 2.440 1_554 S
O307 C291 1.266 . S
O308 Tb280 2.325 . S
O308 Tb281 2.658 . S
O308 C298 1.281 . S
O309 Tb281 2.409 . S
O309 C298 1.254 . S
O310 Tb281 2.378 . S
O310 C299 1.236 . S
O311 Tb280 2.341 . S
O311 C299 1.266 . S
H312 C284 0.929 . S
H313 C285 0.931 . S
H314 C287 0.930 . S
H315 C288 0.930 . S
H316 C293 0.929 . S
H317 C294 0.931 . S
H318 C296 0.930 . S
H319 C297 0.930 . S
Tb320 C322 2.809 . S
Tb320 O340 2.484 . S
Tb320 O341 2.440 . S
Tb320 O342 2.658 . S
Tb320 O343 2.409 . S
Tb320 O344 2.378 . S
Tb320 O348 2.325 . S
Tb320 O351 2.341 . S
Tb321 C331 2.809 . S
Tb321 O342 2.325 . S
Tb321 O345 2.341 . S
Tb321 O346 2.484 . S
Tb321 O347 2.440 . S
Tb321 O348 2.658 . S
Tb321 O349 2.409 . S
Tb321 O350 2.378 . S
C322 Tb320 2.809 . S
C322 C323 1.514 . S
C322 O340 1.248 . S
C322 O341 1.266 . S
C323 C322 1.514 . S
C323 C324 1.359 . S
C323 C328 1.348 . S
C324 C323 1.359 . S
C324 C325 1.380 . S
C324 H352 0.929 . S
C325 C324 1.380 . S
C325 C326 1.347 . S
C325 H353 0.931 . S
C326 C325 1.347 . S
C326 C327 1.369 . S
C327 C326 1.369 . S
C327 C328 1.408 . S
C327 H354 0.930 . S
C328 C323 1.348 . S
C328 C327 1.408 . S
C328 H355 0.930 . S
C329 O342 1.281 . S
C329 O343 1.254 . S
C330 O344 1.236 . S
C330 O345 1.266 . S
C331 Tb321 2.809 . S
C331 C332 1.514 . S
C331 O346 1.248 . S
C331 O347 1.266 . S
C332 C331 1.514 . S
C332 C333 1.359 . S
C332 C337 1.348 . S
C333 C332 1.359 . S
C333 C334 1.380 . S
C333 H356 0.929 . S
C334 C333 1.380 . S
C334 C335 1.347 . S
C334 H357 0.931 . S
C335 C334 1.347 . S
C335 C336 1.369 . S
C336 C335 1.369 . S
C336 C337 1.408 . S
C336 H358 0.930 . S
C337 C332 1.348 . S
C337 C336 1.408 . S
C337 H359 0.930 . S
C338 O348 1.281 . S
C338 O349 1.254 . S
C339 O350 1.236 . S
C339 O351 1.266 . S
O340 Tb320 2.484 . S
O340 C322 1.248 . S
O341 Tb320 2.440 . S
O341 C322 1.266 . S
O342 Tb320 2.658 . S
O342 Tb321 2.325 . S
O342 C329 1.281 . S
O343 Tb320 2.409 . S
O343 C329 1.254 . S
O344 Tb320 2.378 . S
O344 C330 1.236 . S
O345 Tb321 2.341 . S
O345 C330 1.266 . S
O346 Tb321 2.484 . S
O346 C331 1.248 . S
O347 Tb321 2.440 . S
O347 C331 1.266 . S
O348 Tb320 2.325 . S
O348 Tb321 2.658 . S
O348 C338 1.281 . S
O349 Tb321 2.409 . S
O349 C338 1.254 . S
O350 Tb321 2.378 . S
O350 C339 1.236 . S
O351 Tb320 2.341 . S
O351 C339 1.266 . S
H352 C324 0.929 . S
H353 C325 0.931 . S
H354 C327 0.930 . S
H355 C328 0.930 . S
H356 C333 0.929 . S
H357 C334 0.931 . S
H358 C336 0.930 . S
H359 C337 0.930 . S
Tb360 C362 2.809 . S
Tb360 O380 2.484 . S
Tb360 O381 2.440 . S
Tb360 O382 2.658 . S
Tb360 O383 2.409 . S
Tb360 O384 2.378 . S
Tb360 O388 2.325 . S
Tb360 O391 2.341 . S
Tb361 C371 2.809 . S
Tb361 O382 2.325 . S
Tb361 O385 2.341 . S
Tb361 O386 2.484 . S
Tb361 O387 2.440 . S
Tb361 O388 2.658 . S
Tb361 O389 2.409 . S
Tb361 O390 2.378 . S
C362 Tb360 2.809 . S
C362 C363 1.514 . S
C362 O380 1.248 . S
C362 O381 1.266 . S
C363 C362 1.514 . S
C363 C364 1.359 . S
C363 C368 1.348 . S
C364 C363 1.359 . S
C364 C365 1.380 . S
C364 H392 0.929 . S
C365 C364 1.380 . S
C365 C366 1.347 . S
C365 H393 0.931 . S
C366 C365 1.347 . S
C366 C367 1.369 . S
C367 C366 1.369 . S
C367 C368 1.408 . S
C367 H394 0.930 . S
C368 C363 1.348 . S
C368 C367 1.408 . S
C368 H395 0.930 . S
C369 O382 1.281 . S
C369 O383 1.254 . S
C370 O384 1.236 . S
C370 O385 1.266 . S
C371 Tb361 2.809 . S
C371 C372 1.514 . S
C371 O386 1.248 . S
C371 O387 1.266 . S
C372 C371 1.514 . S
C372 C373 1.359 . S
C372 C377 1.348 . S
C373 C372 1.359 . S
C373 C374 1.380 . S
C373 H396 0.929 . S
C374 C373 1.380 . S
C374 C375 1.347 . S
C374 H397 0.931 . S
C375 C374 1.347 . S
C375 C376 1.369 . S
C376 C375 1.369 . S
C376 C377 1.408 . S
C376 H398 0.930 . S
C377 C372 1.348 . S
C377 C376 1.408 . S
C377 H399 0.930 . S
C378 O388 1.281 . S
C378 O389 1.254 . S
C379 O390 1.236 . S
C379 O391 1.266 . S
O380 Tb360 2.484 . S
O380 C362 1.248 . S
O381 Tb360 2.440 . S
O381 C362 1.266 . S
O382 Tb360 2.658 . S
O382 Tb361 2.325 . S
O382 C369 1.281 . S
O383 Tb360 2.409 . S
O383 C369 1.254 . S
O384 Tb360 2.378 . S
O384 C370 1.236 . S
O385 Tb361 2.341 . S
O385 C370 1.266 . S
O386 Tb361 2.484 . S
O386 C371 1.248 . S
O387 Tb361 2.440 . S
O387 C371 1.266 . S
O388 Tb360 2.325 . S
O388 Tb361 2.658 . S
O388 C378 1.281 . S
O389 Tb361 2.409 . S
O389 C378 1.254 . S
O390 Tb361 2.378 . S
O390 C379 1.236 . S
O391 Tb360 2.341 . S
O391 C379 1.266 . S
H392 C364 0.929 . S
H393 C365 0.931 . S
H394 C367 0.930 . S
H395 C368 0.930 . S
H396 C373 0.929 . S
H397 C374 0.931 . S
H398 C376 0.930 . S
H399 C377 0.930 . S
Tb400 C402 2.809 . S
Tb400 O420 2.484 . S
Tb400 O421 2.440 . S
Tb400 O422 2.658 . S
Tb400 O423 2.409 . S
Tb400 O424 2.378 . S
Tb400 O428 2.325 . S
Tb400 O431 2.341 . S
Tb401 C411 2.809 . S
Tb401 O422 2.325 . S
Tb401 O425 2.341 . S
Tb401 O426 2.484 . S
Tb401 O427 2.440 . S
Tb401 O428 2.658 . S
Tb401 O429 2.409 . S
Tb401 O430 2.378 . S
C402 Tb400 2.809 . S
C402 C403 1.514 . S
C402 O420 1.248 . S
C402 O421 1.266 . S
C403 C402 1.514 . S
C403 C404 1.359 . S
C403 C408 1.348 . S
C404 C403 1.359 . S
C404 C405 1.380 . S
C404 H432 0.929 . S
C405 C404 1.380 . S
C405 C406 1.347 . S
C405 H433 0.931 . S
C406 C405 1.347 . S
C406 C407 1.369 . S
C407 C406 1.369 . S
C407 C408 1.408 . S
C407 H434 0.930 . S
C408 C403 1.348 . S
C408 C407 1.408 . S
C408 H435 0.930 . S
C409 O422 1.281 . S
C409 O423 1.254 . S
C410 O424 1.236 . S
C410 O425 1.266 . S
C411 Tb401 2.809 . S
C411 C412 1.514 . S
C411 O426 1.248 . S
C411 O427 1.266 . S
C412 C411 1.514 . S
C412 C413 1.359 . S
C412 C417 1.348 . S
C413 C412 1.359 . S
C413 C414 1.380 . S
C413 H436 0.929 . S
C414 C413 1.380 . S
C414 C415 1.347 . S
C414 H437 0.931 . S
C415 C414 1.347 . S
C415 C416 1.369 . S
C416 C415 1.369 . S
C416 C417 1.408 . S
C416 H438 0.930 . S
C417 C412 1.348 . S
C417 C416 1.408 . S
C417 H439 0.930 . S
C418 O428 1.281 . S
C418 O429 1.254 . S
C419 O430 1.236 . S
C419 O431 1.266 . S
O420 Tb400 2.484 . S
O420 C402 1.248 . S
O421 Tb400 2.440 . S
O421 C402 1.266 . S
O422 Tb400 2.658 . S
O422 Tb401 2.325 . S
O422 C409 1.281 . S
O423 Tb400 2.409 . S
O423 C409 1.254 . S
O424 Tb400 2.378 . S
O424 C410 1.236 . S
O425 Tb401 2.341 . S
O425 C410 1.266 . S
O426 Tb401 2.484 . S
O426 C411 1.248 . S
O427 Tb401 2.440 . S
O427 C411 1.266 . S
O428 Tb400 2.325 . S
O428 Tb401 2.658 . S
O428 C418 1.281 . S
O429 Tb401 2.409 . S
O429 C418 1.254 . S
O430 Tb401 2.378 . S
O430 C419 1.236 . S
O431 Tb400 2.341 . S
O431 C419 1.266 . S
H432 C404 0.929 . S
H433 C405 0.931 . S
H434 C407 0.930 . S
H435 C408 0.930 . S
H436 C413 0.929 . S
H437 C414 0.931 . S
H438 C416 0.930 . S
H439 C417 0.930 . S
Tb440 C442 2.809 . S
Tb440 O460 2.484 . S
Tb440 O461 2.440 . S
Tb440 O462 2.658 . S
Tb440 O463 2.409 . S
Tb440 O464 2.378 . S
Tb440 O468 2.325 . S
Tb440 O471 2.341 . S
Tb441 C451 2.809 . S
Tb441 O462 2.325 . S
Tb441 O465 2.341 . S
Tb441 O466 2.484 . S
Tb441 O467 2.440 . S
Tb441 O468 2.658 . S
Tb441 O469 2.409 . S
Tb441 O470 2.378 . S
C442 Tb440 2.809 . S
C442 C443 1.514 . S
C442 O460 1.248 . S
C442 O461 1.266 . S
C443 C442 1.514 . S
C443 C444 1.359 . S
C443 C448 1.348 . S
C444 C443 1.359 . S
C444 C445 1.380 . S
C444 H472 0.929 . S
C445 C444 1.380 . S
C445 C446 1.347 . S
C445 H473 0.931 . S
C446 C445 1.347 . S
C446 C447 1.369 . S
C447 C446 1.369 . S
C447 C448 1.408 . S
C447 H474 0.930 . S
C448 C443 1.348 . S
C448 C447 1.408 . S
C448 H475 0.930 . S
C449 O462 1.281 . S
C449 O463 1.254 . S
C450 O464 1.236 . S
C450 O465 1.266 . S
C451 Tb441 2.809 . S
C451 C452 1.514 . S
C451 O466 1.248 . S
C451 O467 1.266 . S
C452 C451 1.514 . S
C452 C453 1.359 . S
C452 C457 1.348 . S
C453 C452 1.359 . S
C453 C454 1.380 . S
C453 H476 0.929 . S
C454 C453 1.380 . S
C454 C455 1.347 . S
C454 H477 0.931 . S
C455 C454 1.347 . S
C455 C456 1.369 . S
C456 C455 1.369 . S
C456 C457 1.408 . S
C456 H478 0.930 . S
C457 C452 1.348 . S
C457 C456 1.408 . S
C457 H479 0.930 . S
C458 O468 1.281 . S
C458 O469 1.254 . S
C459 O470 1.236 . S
C459 O471 1.266 . S
O460 Tb440 2.484 . S
O460 C442 1.248 . S
O461 Tb440 2.440 . S
O461 C442 1.266 . S
O462 Tb440 2.658 . S
O462 Tb441 2.325 . S
O462 C449 1.281 . S
O463 Tb440 2.409 . S
O463 C449 1.254 . S
O464 Tb440 2.378 . S
O464 C450 1.236 . S
O465 Tb441 2.341 . S
O465 C450 1.266 . S
O466 Tb441 2.484 . S
O466 C451 1.248 . S
O467 Tb441 2.440 . S
O467 C451 1.266 . S
O468 Tb440 2.325 . S
O468 Tb441 2.658 . S
O468 C458 1.281 . S
O469 Tb441 2.409 . S
O469 C458 1.254 . S
O470 Tb441 2.378 . S
O470 C459 1.236 . S
O471 Tb440 2.341 . S
O471 C459 1.266 . S
H472 C444 0.929 . S
H473 C445 0.931 . S
H474 C447 0.930 . S
H475 C448 0.930 . S
H476 C453 0.929 . S
H477 C454 0.931 . S
H478 C456 0.930 . S
H479 C457 0.930 . S
Tb480 C482 2.809 . S
Tb480 O500 2.484 . S
Tb480 O501 2.440 . S
Tb480 O502 2.658 . S
Tb480 O503 2.409 . S
Tb480 O504 2.378 . S
Tb480 O508 2.325 . S
Tb480 O511 2.341 . S
Tb481 C491 2.809 . S
Tb481 O502 2.325 . S
Tb481 O505 2.341 . S
Tb481 O506 2.484 . S
Tb481 O507 2.440 . S
Tb481 O508 2.658 . S
Tb481 O509 2.409 . S
Tb481 O510 2.378 . S
C482 Tb480 2.809 . S
C482 C483 1.514 . S
C482 O500 1.248 . S
C482 O501 1.266 . S
C483 C482 1.514 . S
C483 C484 1.359 . S
C483 C488 1.348 . S
C484 C483 1.359 . S
C484 C485 1.380 . S
C484 H512 0.929 . S
C485 C484 1.380 . S
C485 C486 1.347 . S
C485 H513 0.931 . S
C486 C485 1.347 . S
C486 C487 1.369 . S
C487 C486 1.369 . S
C487 C488 1.408 . S
C487 H514 0.930 . S
C488 C483 1.348 . S
C488 C487 1.408 . S
C488 H515 0.930 . S
C489 O502 1.281 . S
C489 O503 1.254 . S
C490 O504 1.236 . S
C490 O505 1.266 . S
C491 Tb481 2.809 . S
C491 C492 1.514 . S
C491 O506 1.248 . S
C491 O507 1.266 . S
C492 C491 1.514 . S
C492 C493 1.359 . S
C492 C497 1.348 . S
C493 C492 1.359 . S
C493 C494 1.380 . S
C493 H516 0.929 . S
C494 C493 1.380 . S
C494 C495 1.347 . S
C494 H517 0.931 . S
C495 C494 1.347 . S
C495 C496 1.369 . S
C496 C495 1.369 . S
C496 C497 1.408 . S
C496 H518 0.930 . S
C497 C492 1.348 . S
C497 C496 1.408 . S
C497 H519 0.930 . S
C498 O508 1.281 . S
C498 O509 1.254 . S
C499 O510 1.236 . S
C499 O511 1.266 . S
O500 Tb480 2.484 . S
O500 C482 1.248 . S
O501 Tb480 2.440 . S
O501 C482 1.266 . S
O502 Tb480 2.658 . S
O502 Tb481 2.325 . S
O502 C489 1.281 . S
O503 Tb480 2.409 . S
O503 C489 1.254 . S
O504 Tb480 2.378 . S
O504 C490 1.236 . S
O505 Tb481 2.341 . S
O505 C490 1.266 . S
O506 Tb481 2.484 . S
O506 C491 1.248 . S
O507 Tb481 2.440 . S
O507 C491 1.266 . S
O508 Tb480 2.325 . S
O508 Tb481 2.658 . S
O508 C498 1.281 . S
O509 Tb481 2.409 . S
O509 C498 1.254 . S
O510 Tb481 2.378 . S
O510 C499 1.236 . S
O511 Tb480 2.341 . S
O511 C499 1.266 . S
H512 C484 0.929 . S
H513 C485 0.931 . S
H514 C487 0.930 . S
H515 C488 0.930 . S
H516 C493 0.929 . S
H517 C494 0.931 . S
H518 C496 0.930 . S
H519 C497 0.930 . S
Tb520 C522 2.809 . S
Tb520 O540 2.484 . S
Tb520 O541 2.440 . S
Tb520 O542 2.658 . S
Tb520 O543 2.409 . S
Tb520 O544 2.378 . S
Tb520 O548 2.325 . S
Tb520 O551 2.341 . S
Tb521 C531 2.809 . S
Tb521 O542 2.325 . S
Tb521 O545 2.341 . S
Tb521 O546 2.484 . S
Tb521 O547 2.440 . S
Tb521 O548 2.658 . S
Tb521 O549 2.409 . S
Tb521 O550 2.378 . S
C522 Tb520 2.809 . S
C522 C523 1.514 . S
C522 O540 1.248 . S
C522 O541 1.266 . S
C523 C522 1.514 . S
C523 C524 1.359 . S
C523 C528 1.348 . S
C524 C523 1.359 . S
C524 C525 1.380 . S
C524 H552 0.929 . S
C525 C524 1.380 . S
C525 C526 1.347 . S
C525 H553 0.931 . S
C526 C525 1.347 . S
C526 C527 1.369 . S
C527 C526 1.369 . S
C527 C528 1.408 . S
C527 H554 0.930 . S
C528 C523 1.348 . S
C528 C527 1.408 . S
C528 H555 0.930 . S
C529 O542 1.281 . S
C529 O543 1.254 . S
C530 O544 1.236 . S
C530 O545 1.266 . S
C531 Tb521 2.809 . S
C531 C532 1.514 . S
C531 O546 1.248 . S
C531 O547 1.266 . S
C532 C531 1.514 . S
C532 C533 1.359 . S
C532 C537 1.348 . S
C533 C532 1.359 . S
C533 C534 1.380 . S
C533 H556 0.929 . S
C534 C533 1.380 . S
C534 C535 1.347 . S
C534 H557 0.931 . S
C535 C534 1.347 . S
C535 C536 1.369 . S
C536 C535 1.369 . S
C536 C537 1.408 . S
C536 H558 0.930 . S
C537 C532 1.348 . S
C537 C536 1.408 . S
C537 H559 0.930 . S
C538 O548 1.281 . S
C538 O549 1.254 . S
C539 O550 1.236 . S
C539 O551 1.266 . S
O540 Tb520 2.484 . S
O540 C522 1.248 . S
O541 Tb520 2.440 . S
O541 C522 1.266 . S
O542 Tb520 2.658 . S
O542 Tb521 2.325 . S
O542 C529 1.281 . S
O543 Tb520 2.409 . S
O543 C529 1.254 . S
O544 Tb520 2.378 . S
O544 C530 1.236 . S
O545 Tb521 2.341 . S
O545 C530 1.266 . S
O546 Tb521 2.484 . S
O546 C531 1.248 . S
O547 Tb521 2.440 . S
O547 C531 1.266 . S
O548 Tb520 2.325 . S
O548 Tb521 2.658 . S
O548 C538 1.281 . S
O549 Tb521 2.409 . S
O549 C538 1.254 . S
O550 Tb521 2.378 . S
O550 C539 1.236 . S
O551 Tb520 2.341 . S
O551 C539 1.266 . S
H552 C524 0.929 . S
H553 C525 0.931 . S
H554 C527 0.930 . S
H555 C528 0.930 . S
H556 C533 0.929 . S
H557 C534 0.931 . S
H558 C536 0.930 . S
H559 C537 0.930 . S
Tb560 C562 2.809 . S
Tb560 O580 2.484 . S
Tb560 O581 2.440 . S
Tb560 O582 2.658 . S
Tb560 O583 2.409 . S
Tb560 O584 2.378 . S
Tb560 O588 2.325 . S
Tb560 O591 2.341 . S
Tb561 C571 2.809 . S
Tb561 O582 2.325 . S
Tb561 O585 2.341 . S
Tb561 O586 2.484 . S
Tb561 O587 2.440 . S
Tb561 O588 2.658 . S
Tb561 O589 2.409 . S
Tb561 O590 2.378 . S
C562 Tb560 2.809 . S
C562 C563 1.514 . S
C562 O580 1.248 . S
C562 O581 1.266 . S
C563 C562 1.514 . S
C563 C564 1.359 . S
C563 C568 1.348 . S
C564 C563 1.359 . S
C564 C565 1.380 . S
C564 H592 0.929 . S
C565 C564 1.380 . S
C565 C566 1.347 . S
C565 H593 0.931 . S
C566 C565 1.347 . S
C566 C567 1.369 . S
C567 C566 1.369 . S
C567 C568 1.408 . S
C567 H594 0.930 . S
C568 C563 1.348 . S
C568 C567 1.408 . S
C568 H595 0.930 . S
C569 O582 1.281 . S
C569 O583 1.254 . S
C570 O584 1.236 . S
C570 O585 1.266 . S
C571 Tb561 2.809 . S
C571 C572 1.514 . S
C571 O586 1.248 . S
C571 O587 1.266 . S
C572 C571 1.514 . S
C572 C573 1.359 . S
C572 C577 1.348 . S
C573 C572 1.359 . S
C573 C574 1.380 . S
C573 H596 0.929 . S
C574 C573 1.380 . S
C574 C575 1.347 . S
C574 H597 0.931 . S
C575 C574 1.347 . S
C575 C576 1.369 . S
C576 C575 1.369 . S
C576 C577 1.408 . S
C576 H598 0.930 . S
C577 C572 1.348 . S
C577 C576 1.408 . S
C577 H599 0.930 . S
C578 O588 1.281 . S
C578 O589 1.254 . S
C579 O590 1.236 . S
C579 O591 1.266 . S
O580 Tb560 2.484 . S
O580 C562 1.248 . S
O581 Tb560 2.440 . S
O581 C562 1.266 . S
O582 Tb560 2.658 . S
O582 Tb561 2.325 . S
O582 C569 1.281 . S
O583 Tb560 2.409 . S
O583 C569 1.254 . S
O584 Tb560 2.378 . S
O584 C570 1.236 . S
O585 Tb561 2.341 . S
O585 C570 1.266 . S
O586 Tb561 2.484 . S
O586 C571 1.248 . S
O587 Tb561 2.440 . S
O587 C571 1.266 . S
O588 Tb560 2.325 . S
O588 Tb561 2.658 . S
O588 C578 1.281 . S
O589 Tb561 2.409 . S
O589 C578 1.254 . S
O590 Tb561 2.378 . S
O590 C579 1.236 . S
O591 Tb560 2.341 . S
O591 C579 1.266 . S
H592 C564 0.929 . S
H593 C565 0.931 . S
H594 C567 0.930 . S
H595 C568 0.930 . S
H596 C573 0.929 . S
H597 C574 0.931 . S
H598 C576 0.930 . S
H599 C577 0.930 . S
Tb600 C602 2.809 . S
Tb600 O620 2.484 . S
Tb600 O621 2.440 . S
Tb600 O622 2.658 . S
Tb600 O623 2.409 . S
Tb600 O624 2.378 . S
Tb600 O628 2.325 . S
Tb600 O631 2.341 . S
Tb601 C611 2.809 . S
Tb601 O622 2.325 . S
Tb601 O625 2.341 . S
Tb601 O626 2.484 . S
Tb601 O627 2.440 . S
Tb601 O628 2.658 . S
Tb601 O629 2.409 . S
Tb601 O630 2.378 . S
C602 Tb600 2.809 . S
C602 C603 1.514 . S
C602 O620 1.248 . S
C602 O621 1.266 . S
C603 C602 1.514 . S
C603 C604 1.359 . S
C603 C608 1.348 . S
C604 C603 1.359 . S
C604 C605 1.380 . S
C604 H632 0.929 . S
C605 C604 1.380 . S
C605 C606 1.347 . S
C605 H633 0.931 . S
C606 C605 1.347 . S
C606 C607 1.369 . S
C607 C606 1.369 . S
C607 C608 1.408 . S
C607 H634 0.930 . S
C608 C603 1.348 . S
C608 C607 1.408 . S
C608 H635 0.930 . S
C609 O622 1.281 . S
C609 O623 1.254 . S
C610 O624 1.236 . S
C610 O625 1.266 . S
C611 Tb601 2.809 . S
C611 C612 1.514 . S
C611 O626 1.248 . S
C611 O627 1.266 . S
C612 C611 1.514 . S
C612 C613 1.359 . S
C612 C617 1.348 . S
C613 C612 1.359 . S
C613 C614 1.380 . S
C613 H636 0.929 . S
C614 C613 1.380 . S
C614 C615 1.347 . S
C614 H637 0.931 . S
C615 C614 1.347 . S
C615 C616 1.369 . S
C616 C615 1.369 . S
C616 C617 1.408 . S
C616 H638 0.930 . S
C617 C612 1.348 . S
C617 C616 1.408 . S
C617 H639 0.930 . S
C618 O628 1.281 . S
C618 O629 1.254 . S
C619 O630 1.236 . S
C619 O631 1.266 . S
O620 Tb600 2.484 . S
O620 C602 1.248 . S
O621 Tb600 2.440 . S
O621 C602 1.266 . S
O622 Tb600 2.658 . S
O622 Tb601 2.325 . S
O622 C609 1.281 . S
O623 Tb600 2.409 . S
O623 C609 1.254 . S
O624 Tb600 2.378 . S
O624 C610 1.236 . S
O625 Tb601 2.341 . S
O625 C610 1.266 . S
O626 Tb601 2.484 . S
O626 C611 1.248 . S
O627 Tb601 2.440 . S
O627 C611 1.266 . S
O628 Tb600 2.325 . S
O628 Tb601 2.658 . S
O628 C618 1.281 . S
O629 Tb601 2.409 . S
O629 C618 1.254 . S
O630 Tb601 2.378 . S
O630 C619 1.236 . S
O631 Tb600 2.341 . S
O631 C619 1.266 . S
H632 C604 0.929 . S
H633 C605 0.931 . S
H634 C607 0.930 . S
H635 C608 0.930 . S
H636 C613 0.929 . S
H637 C614 0.931 . S
H638 C616 0.930 . S
H639 C617 0.930 . S
H640 C648 0.950 . S
H641 C653 0.950 . S
H642 C650 0.950 . S
H643 C652 0.950 . S
H644 C654 0.950 . S
H645 C656 0.941 1_565 S
H646 C658 0.950 . S
H647 C659 0.950 . S
C648 H640 0.950 . S
C648 C649 1.386 . S
C648 C650 1.391 . S
C649 C648 1.386 . S
C649 C653 1.393 . S
C650 H642 0.950 . S
C650 C648 1.391 . S
C650 C651 1.400 . S
C651 C650 1.400 . S
C651 C652 1.398 . S
C651 C657 1.491 . S
C652 H643 0.950 . S
C652 C651 1.398 . S
C652 C653 1.391 . S
C653 H641 0.950 . S
C653 C649 1.393 . S
C653 C652 1.391 . S
C654 H644 0.950 . S
C654 C655 1.386 . S
C654 C656 1.391 . S
C655 C654 1.386 . S
C655 C659 1.393 . S
C656 H645 0.941 1_545 S
C656 C654 1.391 . S
C656 C657 1.400 1_545 S
C657 C651 1.491 . S
C657 C656 1.400 1_565 S
C657 C658 1.398 . S
C658 H646 0.950 . S
C658 C657 1.398 . S
C658 C659 1.391 1_565 S
C659 H647 0.950 . S
C659 C655 1.393 . S
C659 C658 1.391 1_545 S
H660 C668 0.950 . S
H661 C673 0.950 . S
H662 C670 0.950 . S
H663 C672 0.950 . S
H664 C674 0.950 . S
H665 C676 0.951 . S
H666 C678 0.952 . S
H667 C679 0.950 . S
C668 H660 0.950 . S
C668 C669 1.386 . S
C668 C670 1.391 . S
C669 C668 1.386 . S
C669 C673 1.393 . S
C670 H662 0.950 . S
C670 C668 1.391 . S
C670 C671 1.400 . S
C671 C670 1.400 . S
C671 C672 1.398 . S
C671 C677 1.491 . S
C672 H663 0.950 . S
C672 C671 1.398 . S
C672 C673 1.391 . S
C673 H661 0.950 . S
C673 C669 1.393 . S
C673 C672 1.391 . S
C674 H664 0.950 . S
C674 C675 1.386 . S
C674 C676 1.388 1_455 S
C675 C674 1.386 . S
C675 C679 1.393 . S
C676 H665 0.951 . S
C676 C674 1.388 1_655 S
C676 C677 1.402 . S
C677 C671 1.491 . S
C677 C676 1.402 . S
C677 C678 1.401 . S
C678 H666 0.952 . S
C678 C677 1.401 . S
C678 C679 1.386 1_655 S
C679 H667 0.950 . S
C679 C675 1.393 . S
C679 C678 1.386 1_455 S
H680 C688 0.950 . S
H681 C693 0.950 . S
H682 C690 0.950 . S
H683 C692 0.950 . S
H684 C694 0.950 . S
H685 C696 0.950 . S
H686 C698 0.950 . S
H687 C699 0.950 . S
C688 H680 0.950 . S
C688 C689 1.386 . S
C688 C690 1.391 . S
C689 C688 1.386 . S
C689 C693 1.393 . S
C690 H682 0.950 . S
C690 C688 1.391 . S
C690 C691 1.400 1_565 S
C691 C690 1.400 1_545 S
C691 C692 1.398 . S
C691 C697 1.491 . S
C692 H683 0.950 . S
C692 C691 1.398 . S
C692 C693 1.391 1_545 S
C693 H681 0.950 . S
C693 C689 1.393 . S
C693 C692 1.391 1_565 S
C694 H684 0.950 . S
C694 C695 1.386 . S
C694 C696 1.391 . S
C695 C694 1.386 . S
C695 C699 1.393 . S
C696 H685 0.950 . S
C696 C694 1.391 . S
C696 C697 1.400 . S
C697 C691 1.491 . S
C697 C696 1.400 . S
C697 C698 1.398 . S
C698 H686 0.950 . S
C698 C697 1.398 . S
C698 C699 1.391 . S
C699 H687 0.950 . S
C699 C695 1.393 . S
C699 C698 1.391 . S
H700 C708 0.950 . S
H701 C713 0.950 . S
H702 C710 0.950 . S
H703 C712 0.950 . S
H704 C714 0.950 . S
H705 C716 0.950 . S
H706 C718 0.950 . S
H707 C719 0.950 . S
C708 H700 0.950 . S
C708 C709 1.386 . S
C708 C710 1.391 1_655 S
C709 C708 1.386 . S
C709 C713 1.393 . S
C710 H702 0.950 . S
C710 C708 1.391 1_455 S
C710 C711 1.400 . S
C711 C710 1.400 . S
C711 C712 1.398 1_455 S
C711 C717 1.491 . S
C712 H703 0.950 . S
C712 C711 1.398 1_655 S
C712 C713 1.391 . S
C713 H701 0.950 . S
C713 C709 1.393 . S
C713 C712 1.391 . S
C714 H704 0.950 . S
C714 C715 1.386 . S
C714 C716 1.391 . S
C715 C714 1.386 . S
C715 C719 1.393 . S
C716 H705 0.950 . S
C716 C714 1.391 . S
C716 C717 1.400 . S
C717 C711 1.491 . S
C717 C716 1.400 . S
C717 C718 1.398 . S
C718 H706 0.950 . S
C718 C717 1.398 . S
C718 C719 1.391 . S
C719 H707 0.950 . S
C719 C715 1.393 . S
C719 C718 1.391 . S
H720 C728 0.950 . S
H721 C733 0.950 . S
H722 C730 0.950 1_556 S
H723 C732 0.950 . S
H724 C734 0.950 . S
H725 C736 0.950 . S
H726 C738 0.950 . S
H727 C739 0.950 . S
C728 H720 0.950 . S
C728 C729 1.386 . S
C728 C730 1.391 . S
C729 C728 1.386 . S
C729 C733 1.393 . S
C730 H722 0.950 1_554 S
C730 C728 1.391 . S
C730 C731 1.400 . S
C731 C730 1.400 . S
C731 C732 1.398 . S
C731 C737 1.491 . S
C732 H723 0.950 . S
C732 C731 1.398 . S
C732 C733 1.391 . S
C733 H721 0.950 . S
C733 C729 1.393 . S
C733 C732 1.391 . S
C734 H724 0.950 . S
C734 C735 1.386 1_554 S
C734 C736 1.391 . S
C735 C734 1.386 1_556 S
C735 C739 1.393 . S
C736 H725 0.950 . S
C736 C734 1.391 . S
C736 C737 1.400 . S
C737 C731 1.491 . S
C737 C736 1.400 . S
C737 C738 1.398 1_554 S
C738 H726 0.950 . S
C738 C737 1.398 1_556 S
C738 C739 1.391 . S
C739 H727 0.950 . S
C739 C735 1.393 . S
C739 C738 1.391 . S
H740 C748 0.948 1_556 S
H741 C753 0.950 . S
H742 C750 0.950 . S
H743 C752 0.950 . S
H744 C754 0.950 . S
H745 C756 0.950 . S
H746 C758 0.950 . S
H747 C759 0.950 . S
C748 H740 0.948 1_554 S
C748 C749 1.394 . S
C748 C750 1.385 1_554 S
C749 C748 1.394 . S
C749 C753 1.393 . S
C750 H742 0.950 . S
C750 C748 1.385 1_556 S
C750 C751 1.400 . S
C751 C750 1.400 . S
C751 C752 1.398 1_556 S
C751 C757 1.491 . S
C752 H743 0.950 . S
C752 C751 1.398 1_554 S
C752 C753 1.391 . S
C753 H741 0.950 . S
C753 C749 1.393 . S
C753 C752 1.391 . S
C754 H744 0.950 . S
C754 C755 1.386 . S
C754 C756 1.391 . S
C755 C754 1.386 . S
C755 C759 1.393 . S
C756 H745 0.950 . S
C756 C754 1.391 . S
C756 C757 1.400 . S
C757 C751 1.491 . S
C757 C756 1.400 . S
C757 C758 1.398 . S
C758 H746 0.950 . S
C758 C757 1.398 . S
C758 C759 1.391 . S
C759 H747 0.950 . S
C759 C755 1.393 . S
C759 C758 1.391 . S
H760 C768 0.950 . S
H761 C773 0.950 . S
H762 C770 0.950 . S
H763 C772 0.950 . S
H764 C774 0.950 . S
H765 C776 0.950 . S
H766 C778 0.950 . S
H767 C779 0.950 . S
C768 H760 0.950 . S
C768 C769 1.386 . S
C768 C770 1.391 . S
C769 C768 1.386 . S
C769 C773 1.393 . S
C770 H762 0.950 . S
C770 C768 1.391 . S
C770 C771 1.400 . S
C771 C770 1.400 . S
C771 C772 1.398 . S
C771 C777 1.491 . S
C772 H763 0.950 . S
C772 C771 1.398 . S
C772 C773 1.391 . S
C773 H761 0.950 . S
C773 C769 1.393 . S
C773 C772 1.391 . S
C774 H764 0.950 . S
C774 C775 1.386 . S
C774 C776 1.391 1_556 S
C775 C774 1.386 . S
C775 C779 1.393 . S
C776 H765 0.950 . S
C776 C774 1.391 1_554 S
C776 C777 1.400 . S
C777 C771 1.491 . S
C777 C776 1.400 . S
C777 C778 1.398 1_554 S
C778 H766 0.950 . S
C778 C777 1.398 1_556 S
C778 C779 1.391 . S
C779 H767 0.950 . S
C779 C775 1.393 . S
C779 C778 1.391 . S
H780 C788 0.950 . S
H781 C793 0.950 . S
H782 C790 0.950 . S
H783 C792 0.950 . S
H784 C794 0.950 . S
H785 C796 0.950 . S
H786 C798 0.950 1_554 S
H787 C799 0.950 . S
C788 H780 0.950 . S
C788 C789 1.386 . S
C788 C790 1.391 . S
C789 C788 1.386 . S
C789 C793 1.393 1_554 S
C790 H782 0.950 . S
C790 C788 1.391 . S
C790 C791 1.400 1_554 S
C791 C790 1.400 1_556 S
C791 C792 1.398 . S
C791 C797 1.491 . S
C792 H783 0.950 . S
C792 C791 1.398 . S
C792 C793 1.391 . S
C793 H781 0.950 . S
C793 C789 1.393 1_556 S
C793 C792 1.391 . S
C794 H784 0.950 . S
C794 C795 1.386 . S
C794 C796 1.391 . S
C795 C794 1.386 . S
C795 C799 1.393 . S
C796 H785 0.950 . S
C796 C794 1.391 . S
C796 C797 1.400 . S
C797 C791 1.491 . S
C797 C796 1.400 . S
C797 C798 1.398 . S
C798 H786 0.950 1_556 S
C798 C797 1.398 . S
C798 C799 1.391 . S
C799 H787 0.950 . S
C799 C795 1.393 . S
C799 C798 1.391 . S
H800 C808 0.950 . S
H801 C813 0.950 . S
H802 C810 0.950 . S
H803 C812 0.950 . S
H804 C814 0.950 . S
H805 C816 0.950 . S
H806 C818 0.950 . S
H807 C819 0.950 . S
C808 H800 0.950 . S
C808 C809 1.386 . S
C808 C810 1.391 . S
C809 C808 1.386 . S
C809 C813 1.393 . S
C810 H802 0.950 . S
C810 C808 1.391 . S
C810 C811 1.400 . S
C811 C810 1.400 . S
C811 C812 1.398 . S
C811 C817 1.491 . S
C812 H803 0.950 . S
C812 C811 1.398 . S
C812 C813 1.391 . S
C813 H801 0.950 . S
C813 C809 1.393 . S
C813 C812 1.391 . S
C814 H804 0.950 . S
C814 C815 1.386 . S
C814 C816 1.391 . S
C815 C814 1.386 . S
C815 C819 1.393 . S
C816 H805 0.950 . S
C816 C814 1.391 . S
C816 C817 1.400 . S
C817 C811 1.491 . S
C817 C816 1.400 . S
C817 C818 1.398 . S
C818 H806 0.950 . S
C818 C817 1.398 . S
C818 C819 1.391 . S
C819 H807 0.950 . S
C819 C815 1.393 . S
C819 C818 1.391 . S
H820 C828 0.950 . S
H821 C833 0.950 . S
H822 C830 0.950 . S
H823 C832 0.950 . S
H824 C834 0.950 . S
H825 C836 0.950 . S
H826 C838 0.950 . S
H827 C839 0.950 . S
C828 H820 0.950 . S
C828 C829 1.386 . S
C828 C830 1.391 . S
C829 C828 1.386 . S
C829 C833 1.393 . S
C830 H822 0.950 . S
C830 C828 1.391 . S
C830 C831 1.400 . S
C831 C830 1.400 . S
C831 C832 1.398 . S
C831 C837 1.491 . S
C832 H823 0.950 . S
C832 C831 1.398 . S
C832 C833 1.391 . S
C833 H821 0.950 . S
C833 C829 1.393 . S
C833 C832 1.391 . S
C834 H824 0.950 . S
C834 C835 1.386 . S
C834 C836 1.391 . S
C835 C834 1.386 . S
C835 C839 1.393 . S
C836 H825 0.950 . S
C836 C834 1.391 . S
C836 C837 1.400 . S
C837 C831 1.491 . S
C837 C836 1.400 . S
C837 C838 1.398 . S
C838 H826 0.950 . S
C838 C837 1.398 . S
C838 C839 1.391 . S
C839 H827 0.950 . S
C839 C835 1.393 . S
C839 C838 1.391 . S
H840 C848 0.950 . S
H841 C853 0.950 . S
H842 C850 0.950 . S
H843 C852 0.950 . S
H844 C854 0.950 . S
H845 C856 0.950 . S
H846 C858 0.950 . S
H847 C859 0.950 . S
C848 H840 0.950 . S
C848 C849 1.386 . S
C848 C850 1.391 . S
C849 C848 1.386 . S
C849 C853 1.393 . S
C850 H842 0.950 . S
C850 C848 1.391 . S
C850 C851 1.400 . S
C851 C850 1.400 . S
C851 C852 1.398 . S
C851 C857 1.491 . S
C852 H843 0.950 . S
C852 C851 1.398 . S
C852 C853 1.391 . S
C853 H841 0.950 . S
C853 C849 1.393 . S
C853 C852 1.391 . S
C854 H844 0.950 . S
C854 C855 1.386 . S
C854 C856 1.391 . S
C855 C854 1.386 . S
C855 C859 1.393 . S
C856 H845 0.950 . S
C856 C854 1.391 . S
C856 C857 1.400 . S
C857 C851 1.491 . S
C857 C856 1.400 . S
C857 C858 1.398 . S
C858 H846 0.950 . S
C858 C857 1.398 . S
C858 C859 1.391 . S
C859 H847 0.950 . S
C859 C855 1.393 . S
C859 C858 1.391 . S
H860 C868 0.950 . S
H861 C873 0.950 . S
H862 C870 0.950 . S
H863 C872 0.950 . S
H864 C874 0.950 . S
H865 C876 0.950 . S
H866 C878 0.950 . S
H867 C879 0.950 . S
C868 H860 0.950 . S
C868 C869 1.386 . S
C868 C870 1.391 . S
C869 C868 1.386 . S
C869 C873 1.393 . S
C870 H862 0.950 . S
C870 C868 1.391 . S
C870 C871 1.400 . S
C871 C870 1.400 . S
C871 C872 1.398 . S
C871 C877 1.491 . S
C872 H863 0.950 . S
C872 C871 1.398 . S
C872 C873 1.391 . S
C873 H861 0.950 . S
C873 C869 1.393 . S
C873 C872 1.391 . S
C874 H864 0.950 . S
C874 C875 1.386 . S
C874 C876 1.391 . S
C875 C874 1.386 . S
C875 C879 1.393 . S
C876 H865 0.950 . S
C876 C874 1.391 . S
C876 C877 1.400 . S
C877 C871 1.491 . S
C877 C876 1.400 . S
C877 C878 1.398 . S
C878 H866 0.950 . S
C878 C877 1.398 . S
C878 C879 1.391 . S
C879 H867 0.950 . S
C879 C875 1.393 . S
C879 C878 1.391 . S
H880 C888 0.950 . S
H881 C893 0.950 . S
H882 C890 0.950 . S
H883 C892 0.950 . S
H884 C894 0.950 . S
H885 C896 0.950 . S
H886 C898 0.950 . S
H887 C899 0.950 . S
C888 H880 0.950 . S
C888 C889 1.386 . S
C888 C890 1.391 1_565 S
C889 C888 1.386 . S
C889 C893 1.393 . S
C890 H882 0.950 . S
C890 C888 1.391 1_545 S
C890 C891 1.400 . S
C891 C890 1.400 . S
C891 C892 1.398 1_545 S
C891 C897 1.491 . S
C892 H883 0.950 . S
C892 C891 1.398 1_565 S
C892 C893 1.391 . S
C893 H881 0.950 . S
C893 C889 1.393 . S
C893 C892 1.391 . S
C894 H884 0.950 . S
C894 C895 1.386 . S
C894 C896 1.391 . S
C895 C894 1.386 . S
C895 C899 1.393 . S
C896 H885 0.950 . S
C896 C894 1.391 . S
C896 C897 1.400 . S
C897 C891 1.491 . S
C897 C896 1.400 . S
C897 C898 1.398 . S
C898 H886 0.950 . S
C898 C897 1.398 . S
C898 C899 1.391 . S
C899 H887 0.950 . S
C899 C895 1.393 . S
C899 C898 1.391 . S
H900 C908 0.950 . S
H901 C913 0.950 . S
H902 C910 0.950 . S
H903 C912 0.950 . S
H904 C914 0.950 . S
H905 C916 0.950 1_455 S
H906 C918 0.950 . S
H907 C919 0.950 . S
C908 H900 0.950 . S
C908 C909 1.386 . S
C908 C910 1.391 . S
C909 C908 1.386 . S
C909 C913 1.393 . S
C910 H902 0.950 . S
C910 C908 1.391 . S
C910 C911 1.400 . S
C911 C910 1.400 . S
C911 C912 1.398 . S
C911 C917 1.491 . S
C912 H903 0.950 . S
C912 C911 1.398 . S
C912 C913 1.391 . S
C913 H901 0.950 . S
C913 C909 1.393 . S
C913 C912 1.391 . S
C914 H904 0.950 . S
C914 C915 1.386 . S
C914 C916 1.391 . S
C915 C914 1.386 . S
C915 C919 1.393 . S
C916 H905 0.950 1_655 S
C916 C914 1.391 . S
C916 C917 1.400 1_655 S
C917 C911 1.491 . S
C917 C916 1.400 1_455 S
C917 C918 1.398 . S
C918 H906 0.950 . S
C918 C917 1.398 . S
C918 C919 1.391 1_455 S
C919 H907 0.950 . S
C919 C915 1.393 . S
C919 C918 1.391 1_655 S
H920 C928 0.950 . S
H921 C933 0.950 . S
H922 C930 0.950 . S
H923 C932 0.950 . S
H924 C934 0.950 . S
H925 C936 0.950 . S
H926 C938 0.950 . S
H927 C939 0.950 . S
C928 H920 0.950 . S
C928 C929 1.386 . S
C928 C930 1.391 . S
C929 C928 1.386 . S
C929 C933 1.393 . S
C930 H922 0.950 . S
C930 C928 1.391 . S
C930 C931 1.400 . S
C931 C930 1.400 . S
C931 C932 1.398 . S
C931 C937 1.491 . S
C932 H923 0.950 . S
C932 C931 1.398 . S
C932 C933 1.391 . S
C933 H921 0.950 . S
C933 C929 1.393 . S
C933 C932 1.391 . S
C934 H924 0.950 . S
C934 C935 1.386 . S
C934 C936 1.391 . S
C935 C934 1.386 . S
C935 C939 1.393 . S
C936 H925 0.950 . S
C936 C934 1.391 . S
C936 C937 1.400 1_545 S
C937 C931 1.491 . S
C937 C936 1.400 1_565 S
C937 C938 1.398 . S
C938 H926 0.950 . S
C938 C937 1.398 . S
C938 C939 1.391 1_565 S
C939 H927 0.950 . S
C939 C935 1.393 . S
C939 C938 1.391 1_545 S
H940 C948 0.950 . S
H941 C953 0.950 . S
H942 C950 0.950 . S
H943 C952 0.950 . S
H944 C954 0.950 . S
H945 C956 0.950 . S
H946 C958 0.950 . S
H947 C959 0.950 . S
C948 H940 0.950 . S
C948 C949 1.386 . S
C948 C950 1.391 1_455 S
C949 C948 1.386 . S
C949 C953 1.393 . S
C950 H942 0.950 . S
C950 C948 1.391 1_655 S
C950 C951 1.400 . S
C951 C950 1.400 . S
C951 C952 1.398 1_655 S
C951 C957 1.491 . S
C952 H943 0.950 . S
C952 C951 1.398 1_455 S
C952 C953 1.391 . S
C953 H941 0.950 . S
C953 C949 1.393 . S
C953 C952 1.391 . S
C954 H944 0.950 . S
C954 C955 1.386 . S
C954 C956 1.391 . S
C955 C954 1.386 . S
C955 C959 1.393 . S
C956 H945 0.950 . S
C956 C954 1.391 . S
C956 C957 1.400 . S
C957 C951 1.491 . S
C957 C956 1.400 . S
C957 C958 1.398 . S
C958 H946 0.950 . S
C958 C957 1.398 . S
C958 C959 1.391 . S
C959 H947 0.950 . S
C959 C955 1.393 . S
C959 C958 1.391 . S
H960 C968 0.950 . S
H961 C973 0.950 . S
H962 C970 0.950 . S
H963 C972 0.950 . S
H964 C974 0.950 . S
H965 C976 0.950 . S
H966 C978 0.950 . S
H967 C979 0.950 . S
C968 H960 0.950 . S
C968 C969 1.386 . S
C968 C970 1.391 . S
C969 C968 1.386 . S
C969 C973 1.393 . S
C970 H962 0.950 . S
C970 C968 1.391 . S
C970 C971 1.400 . S
C971 C970 1.400 . S
C971 C972 1.398 . S
C971 C977 1.491 . S
C972 H963 0.950 . S
C972 C971 1.398 . S
C972 C973 1.391 . S
C973 H961 0.950 . S
C973 C969 1.393 . S
C973 C972 1.391 . S
C974 H964 0.950 . S
C974 C975 1.386 . S
C974 C976 1.391 . S
C975 C974 1.386 . S
C975 C979 1.393 . S
C976 H965 0.950 . S
C976 C974 1.391 . S
C976 C977 1.400 . S
C977 C971 1.491 . S
C977 C976 1.400 . S
C977 C978 1.398 . S
C978 H966 0.950 . S
C978 C977 1.398 . S
C978 C979 1.391 . S
C979 H967 0.950 . S
C979 C975 1.393 . S
C979 C978 1.391 . S
H980 C988 0.950 . S
H981 C993 0.950 . S
H982 C990 0.950 . S
H983 C992 0.950 . S
H984 C994 0.950 . S
H985 C996 0.950 . S
H986 C998 0.950 . S
H987 C999 0.950 . S
C988 H980 0.950 . S
C988 C989 1.386 . S
C988 C990 1.391 . S
C989 C988 1.386 . S
C989 C993 1.393 . S
C990 H982 0.950 . S
C990 C988 1.391 . S
C990 C991 1.400 . S
C991 C990 1.400 . S
C991 C992 1.398 . S
C991 C997 1.491 . S
C992 H983 0.950 . S
C992 C991 1.398 . S
C992 C993 1.391 . S
C993 H981 0.950 . S
C993 C989 1.393 . S
C993 C992 1.391 . S
C994 H984 0.950 . S
C994 C995 1.386 . S
C994 C996 1.391 . S
C995 C994 1.386 . S
C995 C999 1.393 . S
C996 H985 0.950 . S
C996 C994 1.391 . S
C996 C997 1.400 . S
C997 C991 1.491 . S
C997 C996 1.400 . S
C997 C998 1.398 . S
C998 H986 0.950 . S
C998 C997 1.398 . S
C998 C999 1.391 . S
C999 H987 0.950 . S
C999 C995 1.393 . S
C999 C998 1.391 . S
H1000 C1008 0.950 . S
H1001 C1013 0.950 . S
H1002 C1010 0.950 . S
H1003 C1012 0.950 . S
H1004 C1014 0.950 . S
H1005 C1016 0.950 . S
H1006 C1018 0.950 . S
H1007 C1019 0.950 . S
C1008 H1000 0.950 . S
C1008 C1009 1.386 . S
C1008 C1010 1.391 . S
C1009 C1008 1.386 . S
C1009 C1013 1.393 . S
C1010 H1002 0.950 . S
C1010 C1008 1.391 . S
C1010 C1011 1.400 . S
C1011 C1010 1.400 . S
C1011 C1012 1.398 . S
C1011 C1017 1.491 . S
C1012 H1003 0.950 . S
C1012 C1011 1.398 . S
C1012 C1013 1.391 . S
C1013 H1001 0.950 . S
C1013 C1009 1.393 . S
C1013 C1012 1.391 . S
C1014 H1004 0.950 . S
C1014 C1015 1.386 . S
C1014 C1016 1.391 . S
C1015 C1014 1.386 . S
C1015 C1019 1.393 . S
C1016 H1005 0.950 . S
C1016 C1014 1.391 . S
C1016 C1017 1.400 . S
C1017 C1011 1.491 . S
C1017 C1016 1.400 . S
C1017 C1018 1.398 . S
C1018 H1006 0.950 . S
C1018 C1017 1.398 . S
C1018 C1019 1.391 . S
C1019 H1007 0.950 . S
C1019 C1015 1.393 . S
C1019 C1018 1.391 . S
H1020 C1028 0.950 . S
H1021 C1033 0.950 . S
H1022 C1030 0.950 . S
H1023 C1032 0.950 . S
H1024 C1034 0.950 . S
H1025 C1036 0.950 . S
H1026 C1038 0.950 . S
H1027 C1039 0.950 . S
C1028 H1020 0.950 . S
C1028 C1029 1.386 . S
C1028 C1030 1.391 . S
C1029 C1028 1.386 . S
C1029 C1033 1.393 . S
C1030 H1022 0.950 . S
C1030 C1028 1.391 . S
C1030 C1031 1.400 . S
C1031 C1030 1.400 . S
C1031 C1032 1.398 . S
C1031 C1037 1.491 . S
C1032 H1023 0.950 . S
C1032 C1031 1.398 . S
C1032 C1033 1.391 . S
C1033 H1021 0.950 . S
C1033 C1029 1.393 . S
C1033 C1032 1.391 . S
C1034 H1024 0.950 . S
C1034 C1035 1.386 . S
C1034 C1036 1.391 . S
C1035 C1034 1.386 . S
C1035 C1039 1.393 . S
C1036 H1025 0.950 . S
C1036 C1034 1.391 . S
C1036 C1037 1.400 . S
C1037 C1031 1.491 . S
C1037 C1036 1.400 . S
C1037 C1038 1.398 . S
C1038 H1026 0.950 . S
C1038 C1037 1.398 . S
C1038 C1039 1.391 . S
C1039 H1027 0.950 . S
C1039 C1035 1.393 . S
C1039 C1038 1.391 . S
H1040 C1048 0.950 . S
H1041 C1053 0.950 . S
H1042 C1050 0.950 . S
H1043 C1052 0.950 . S
H1044 C1054 0.950 . S
H1045 C1056 0.950 . S
H1046 C1058 0.950 . S
H1047 C1059 0.950 . S
C1048 H1040 0.950 . S
C1048 C1049 1.386 . S
C1048 C1050 1.391 . S
C1049 C1048 1.386 . S
C1049 C1053 1.393 . S
C1050 H1042 0.950 . S
C1050 C1048 1.391 . S
C1050 C1051 1.400 . S
C1051 C1050 1.400 . S
C1051 C1052 1.398 . S
C1051 C1057 1.491 . S
C1052 H1043 0.950 . S
C1052 C1051 1.398 . S
C1052 C1053 1.391 . S
C1053 H1041 0.950 . S
C1053 C1049 1.393 . S
C1053 C1052 1.391 . S
C1054 H1044 0.950 . S
C1054 C1055 1.386 . S
C1054 C1056 1.391 . S
C1055 C1054 1.386 . S
C1055 C1059 1.393 . S
C1056 H1045 0.950 . S
C1056 C1054 1.391 . S
C1056 C1057 1.400 . S
C1057 C1051 1.491 . S
C1057 C1056 1.400 . S
C1057 C1058 1.398 . S
C1058 H1046 0.950 . S
C1058 C1057 1.398 . S
C1058 C1059 1.391 . S
C1059 H1047 0.950 . S
C1059 C1055 1.393 . S
C1059 C1058 1.391 . S
H1060 C1068 0.950 . S
H1061 C1073 0.950 . S
H1062 C1070 0.950 . S
H1063 C1072 0.950 . S
H1064 C1074 0.950 . S
H1065 C1076 0.950 . S
H1066 C1078 0.950 . S
H1067 C1079 0.950 . S
C1068 H1060 0.950 . S
C1068 C1069 1.386 . S
C1068 C1070 1.391 . S
C1069 C1068 1.386 . S
C1069 C1073 1.393 . S
C1070 H1062 0.950 . S
C1070 C1068 1.391 . S
C1070 C1071 1.400 . S
C1071 C1070 1.400 . S
C1071 C1072 1.398 . S
C1071 C1077 1.491 . S
C1072 H1063 0.950 . S
C1072 C1071 1.398 . S
C1072 C1073 1.391 . S
C1073 H1061 0.950 . S
C1073 C1069 1.393 . S
C1073 C1072 1.391 . S
C1074 H1064 0.950 . S
C1074 C1075 1.386 . S
C1074 C1076 1.391 . S
C1075 C1074 1.386 . S
C1075 C1079 1.393 . S
C1076 H1065 0.950 . S
C1076 C1074 1.391 . S
C1076 C1077 1.400 . S
C1077 C1071 1.491 . S
C1077 C1076 1.400 . S
C1077 C1078 1.398 . S
C1078 H1066 0.950 . S
C1078 C1077 1.398 . S
C1078 C1079 1.391 . S
C1079 H1067 0.950 . S
C1079 C1075 1.393 . S
C1079 C1078 1.391 . S
H1080 C1088 0.950 . S
H1081 C1093 0.950 . S
H1082 C1090 0.950 . S
H1083 C1092 0.950 . S
H1084 C1094 0.950 . S
H1085 C1096 0.950 . S
H1086 C1098 0.950 . S
H1087 C1099 0.950 . S
C1088 H1080 0.950 . S
C1088 C1089 1.386 . S
C1088 C1090 1.391 . S
C1089 C1088 1.386 . S
C1089 C1093 1.393 . S
C1090 H1082 0.950 . S
C1090 C1088 1.391 . S
C1090 C1091 1.400 . S
C1091 C1090 1.400 . S
C1091 C1092 1.398 . S
C1091 C1097 1.491 . S
C1092 H1083 0.950 . S
C1092 C1091 1.398 . S
C1092 C1093 1.391 . S
C1093 H1081 0.950 . S
C1093 C1089 1.393 . S
C1093 C1092 1.391 . S
C1094 H1084 0.950 . S
C1094 C1095 1.386 . S
C1094 C1096 1.391 . S
C1095 C1094 1.386 . S
C1095 C1099 1.393 . S
C1096 H1085 0.950 . S
C1096 C1094 1.391 . S
C1096 C1097 1.400 . S
C1097 C1091 1.491 . S
C1097 C1096 1.400 . S
C1097 C1098 1.398 . S
C1098 H1086 0.950 . S
C1098 C1097 1.398 . S
C1098 C1099 1.391 . S
C1099 H1087 0.950 . S
C1099 C1095 1.393 . S
C1099 C1098 1.391 . S
H1100 C1108 0.950 . S
H1101 C1113 0.950 . S
H1102 C1110 0.950 . S
H1103 C1112 0.950 . S
H1104 C1114 0.950 . S
H1105 C1116 0.950 . S
H1106 C1118 0.950 . S
H1107 C1119 0.950 . S
C1108 H1100 0.950 . S
C1108 C1109 1.386 . S
C1108 C1110 1.391 . S
C1109 C1108 1.386 . S
C1109 C1113 1.393 . S
C1110 H1102 0.950 . S
C1110 C1108 1.391 . S
C1110 C1111 1.400 . S
C1111 C1110 1.400 . S
C1111 C1112 1.398 . S
C1111 C1117 1.491 . S
C1112 H1103 0.950 . S
C1112 C1111 1.398 . S
C1112 C1113 1.391 . S
C1113 H1101 0.950 . S
C1113 C1109 1.393 . S
C1113 C1112 1.391 . S
C1114 H1104 0.950 . S
C1114 C1115 1.386 . S
C1114 C1116 1.391 . S
C1115 C1114 1.386 . S
C1115 C1119 1.393 . S
C1116 H1105 0.950 . S
C1116 C1114 1.391 . S
C1116 C1117 1.400 . S
C1117 C1111 1.491 . S
C1117 C1116 1.400 . S
C1117 C1118 1.398 . S
C1118 H1106 0.950 . S
C1118 C1117 1.398 . S
C1118 C1119 1.391 . S
C1119 H1107 0.950 . S
C1119 C1115 1.393 . S
C1119 C1118 1.391 . S
H1120 C1128 0.950 . S
H1121 C1133 0.950 . S
H1122 C1130 0.950 . S
H1123 C1132 0.950 . S
H1124 C1134 0.950 . S
H1125 C1136 0.950 . S
H1126 C1138 0.950 . S
H1127 C1139 0.950 1_554 S
C1128 H1120 0.950 . S
C1128 C1129 1.386 . S
C1128 C1130 1.391 . S
C1129 C1128 1.386 . S
C1129 C1133 1.393 . S
C1130 H1122 0.950 . S
C1130 C1128 1.391 . S
C1130 C1131 1.400 . S
C1131 C1130 1.400 . S
C1131 C1132 1.398 . S
C1131 C1137 1.491 . S
C1132 H1123 0.950 . S
C1132 C1131 1.398 . S
C1132 C1133 1.391 . S
C1133 H1121 0.950 . S
C1133 C1129 1.393 . S
C1133 C1132 1.391 . S
C1134 H1124 0.950 . S
C1134 C1135 1.386 . S
C1134 C1136 1.391 . S
C1135 C1134 1.386 . S
C1135 C1139 1.393 . S
C1136 H1125 0.950 . S
C1136 C1134 1.391 . S
C1136 C1137 1.400 . S
C1137 C1131 1.491 . S
C1137 C1136 1.400 . S
C1137 C1138 1.398 . S
C1138 H1126 0.950 . S
C1138 C1137 1.398 . S
C1138 C1139 1.391 . S
C1139 H1127 0.950 1_556 S
C1139 C1135 1.393 . S
C1139 C1138 1.391 . S
H1140 C1148 0.950 . S
H1141 C1153 0.950 1_556 S
H1142 C1150 0.950 . S
H1143 C1152 0.950 . S
H1144 C1154 0.950 . S
H1145 C1156 0.950 . S
H1146 C1158 0.950 . S
H1147 C1159 0.950 . S
C1148 H1140 0.950 . S
C1148 C1149 1.386 . S
C1148 C1150 1.391 . S
C1149 C1148 1.386 . S
C1149 C1153 1.393 . S
C1150 H1142 0.950 . S
C1150 C1148 1.391 . S
C1150 C1151 1.400 . S
C1151 C1150 1.400 . S
C1151 C1152 1.398 . S
C1151 C1157 1.491 . S
C1152 H1143 0.950 . S
C1152 C1151 1.398 . S
C1152 C1153 1.391 . S
C1153 H1141 0.950 1_554 S
C1153 C1149 1.393 . S
C1153 C1152 1.391 . S
C1154 H1144 0.950 . S
C1154 C1155 1.386 . S
C1154 C1156 1.391 . S
C1155 C1154 1.386 . S
C1155 C1159 1.393 . S
C1156 H1145 0.950 . S
C1156 C1154 1.391 . S
C1156 C1157 1.400 . S
C1157 C1151 1.491 . S
C1157 C1156 1.400 . S
C1157 C1158 1.398 . S
C1158 H1146 0.950 . S
C1158 C1157 1.398 . S
C1158 C1159 1.391 . S
C1159 H1147 0.950 . S
C1159 C1155 1.393 . S
C1159 C1158 1.391 . S
H1160 C1168 0.950 . S
H1161 C1173 0.950 . S
H1162 C1170 0.950 . S
H1163 C1172 0.950 . S
H1164 C1174 0.950 . S
H1165 C1176 0.950 . S
H1166 C1178 0.950 . S
H1167 C1179 0.950 . S
C1168 H1160 0.950 . S
C1168 C1169 1.386 . S
C1168 C1170 1.391 . S
C1169 C1168 1.386 . S
C1169 C1173 1.393 . S
C1170 H1162 0.950 . S
C1170 C1168 1.391 . S
C1170 C1171 1.400 . S
C1171 C1170 1.400 . S
C1171 C1172 1.398 . S
C1171 C1177 1.491 . S
C1172 H1163 0.950 . S
C1172 C1171 1.398 . S
C1172 C1173 1.391 . S
C1173 H1161 0.950 . S
C1173 C1169 1.393 . S
C1173 C1172 1.391 . S
C1174 H1164 0.950 . S
C1174 C1175 1.386 . S
C1174 C1176 1.391 . S
C1175 C1174 1.386 . S
C1175 C1179 1.393 . S
C1176 H1165 0.950 . S
C1176 C1174 1.391 . S
C1176 C1177 1.400 . S
C1177 C1171 1.491 . S
C1177 C1176 1.400 . S
C1177 C1178 1.398 . S
C1178 H1166 0.950 . S
C1178 C1177 1.398 . S
C1178 C1179 1.391 . S
C1179 H1167 0.950 . S
C1179 C1175 1.393 . S
C1179 C1178 1.391 . S
H1180 C1188 0.950 . S
H1181 C1193 0.950 1_556 S
H1182 C1190 0.950 . S
H1183 C1192 0.950 . S
H1184 C1194 0.950 . S
H1185 C1196 0.950 . S
H1186 C1198 0.950 . S
H1187 C1199 0.950 . S
C1188 H1180 0.950 . S
C1188 C1189 1.386 . S
C1188 C1190 1.391 . S
C1189 C1188 1.386 . S
C1189 C1193 1.393 . S
C1190 H1182 0.950 . S
C1190 C1188 1.391 . S
C1190 C1191 1.400 . S
C1191 C1190 1.400 . S
C1191 C1192 1.398 . S
C1191 C1197 1.491 . S
C1192 H1183 0.950 . S
C1192 C1191 1.398 . S
C1192 C1193 1.391 . S
C1193 H1181 0.950 1_554 S
C1193 C1189 1.393 . S
C1193 C1192 1.391 . S
C1194 H1184 0.950 . S
C1194 C1195 1.386 . S
C1194 C1196 1.391 . S
C1195 C1194 1.386 . S
C1195 C1199 1.393 . S
C1196 H1185 0.950 . S
C1196 C1194 1.391 . S
C1196 C1197 1.400 . S
C1197 C1191 1.491 . S
C1197 C1196 1.400 . S
C1197 C1198 1.398 . S
C1198 H1186 0.950 . S
C1198 C1197 1.398 . S
C1198 C1199 1.391 . S
C1199 H1187 0.950 . S
C1199 C1195 1.393 . S
C1199 C1198 1.391 . S
H1200 C1208 0.950 . S
H1201 C1213 0.950 . S
H1202 C1210 0.950 . S
H1203 C1212 0.950 . S
H1204 C1214 0.950 . S
H1205 C1216 0.950 . S
H1206 C1218 0.950 . S
H1207 C1219 0.950 . S
C1208 H1200 0.950 . S
C1208 C1209 1.386 . S
C1208 C1210 1.391 . S
C1209 C1208 1.386 . S
C1209 C1213 1.393 . S
C1210 H1202 0.950 . S
C1210 C1208 1.391 . S
C1210 C1211 1.400 . S
C1211 C1210 1.400 . S
C1211 C1212 1.398 . S
C1211 C1217 1.491 . S
C1212 H1203 0.950 . S
C1212 C1211 1.398 . S
C1212 C1213 1.391 . S
C1213 H1201 0.950 . S
C1213 C1209 1.393 . S
C1213 C1212 1.391 . S
C1214 H1204 0.950 . S
C1214 C1215 1.386 . S
C1214 C1216 1.391 . S
C1215 C1214 1.386 . S
C1215 C1219 1.393 . S
C1216 H1205 0.950 . S
C1216 C1214 1.391 . S
C1216 C1217 1.400 . S
C1217 C1211 1.491 . S
C1217 C1216 1.400 . S
C1217 C1218 1.398 . S
C1218 H1206 0.950 . S
C1218 C1217 1.398 . S
C1218 C1219 1.391 . S
C1219 H1207 0.950 . S
C1219 C1215 1.393 . S
C1219 C1218 1.391 . S
H1220 C1228 0.950 . S
H1221 C1233 0.950 . S
H1222 C1230 0.950 . S
H1223 C1232 0.950 . S
H1224 C1234 0.950 . S
H1225 C1236 0.950 . S
H1226 C1238 0.950 . S
H1227 C1239 0.950 . S
C1228 H1220 0.950 . S
C1228 C1229 1.386 . S
C1228 C1230 1.391 . S
C1229 C1228 1.386 . S
C1229 C1233 1.393 . S
C1230 H1222 0.950 . S
C1230 C1228 1.391 . S
C1230 C1231 1.400 . S
C1231 C1230 1.400 . S
C1231 C1232 1.398 . S
C1231 C1237 1.491 . S
C1232 H1223 0.950 . S
C1232 C1231 1.398 . S
C1232 C1233 1.391 . S
C1233 H1221 0.950 . S
C1233 C1229 1.393 . S
C1233 C1232 1.391 . S
C1234 H1224 0.950 . S
C1234 C1235 1.386 . S
C1234 C1236 1.391 . S
C1235 C1234 1.386 . S
C1235 C1239 1.393 . S
C1236 H1225 0.950 . S
C1236 C1234 1.391 . S
C1236 C1237 1.400 . S
C1237 C1231 1.491 . S
C1237 C1236 1.400 . S
C1237 C1238 1.398 . S
C1238 H1226 0.950 . S
C1238 C1237 1.398 . S
C1238 C1239 1.391 . S
C1239 H1227 0.950 . S
C1239 C1235 1.393 . S
C1239 C1238 1.391 . S
H1240 C1248 0.950 . S
H1241 C1253 0.950 . S
H1242 C1250 0.950 . S
H1243 C1252 0.950 . S
H1244 C1254 0.950 . S
H1245 C1256 0.950 . S
H1246 C1258 0.950 . S
H1247 C1259 0.950 . S
C1248 H1240 0.950 . S
C1248 C1249 1.386 . S
C1248 C1250 1.391 . S
C1249 C1248 1.386 . S
C1249 C1253 1.393 . S
C1250 H1242 0.950 . S
C1250 C1248 1.391 . S
C1250 C1251 1.400 . S
C1251 C1250 1.400 . S
C1251 C1252 1.398 . S
C1251 C1257 1.491 . S
C1252 H1243 0.950 . S
C1252 C1251 1.398 . S
C1252 C1253 1.391 . S
C1253 H1241 0.950 . S
C1253 C1249 1.393 . S
C1253 C1252 1.391 . S
C1254 H1244 0.950 . S
C1254 C1255 1.386 . S
C1254 C1256 1.391 . S
C1255 C1254 1.386 . S
C1255 C1259 1.393 . S
C1256 H1245 0.950 . S
C1256 C1254 1.391 . S
C1256 C1257 1.400 . S
C1257 C1251 1.491 . S
C1257 C1256 1.400 . S
C1257 C1258 1.398 . S
C1258 H1246 0.950 . S
C1258 C1257 1.398 . S
C1258 C1259 1.391 . S
C1259 H1247 0.950 . S
C1259 C1255 1.393 . S
C1259 C1258 1.391 . S
H1260 C1268 0.950 . S
H1261 C1273 0.950 . S
H1262 C1270 0.950 . S
H1263 C1272 0.950 . S
H1264 C1274 0.950 . S
H1265 C1276 0.950 . S
H1266 C1278 0.950 . S
H1267 C1279 0.950 . S
C1268 H1260 0.950 . S
C1268 C1269 1.386 . S
C1268 C1270 1.391 . S
C1269 C1268 1.386 . S
C1269 C1273 1.393 . S
C1270 H1262 0.950 . S
C1270 C1268 1.391 . S
C1270 C1271 1.400 . S
C1271 C1270 1.400 . S
C1271 C1272 1.398 . S
C1271 C1277 1.491 . S
C1272 H1263 0.950 . S
C1272 C1271 1.398 . S
C1272 C1273 1.391 . S
C1273 H1261 0.950 . S
C1273 C1269 1.393 . S
C1273 C1272 1.391 . S
C1274 H1264 0.950 . S
C1274 C1275 1.386 . S
C1274 C1276 1.391 . S
C1275 C1274 1.386 . S
C1275 C1279 1.393 . S
C1276 H1265 0.950 . S
C1276 C1274 1.391 . S
C1276 C1277 1.400 . S
C1277 C1271 1.491 . S
C1277 C1276 1.400 . S
C1277 C1278 1.398 . S
C1278 H1266 0.950 . S
C1278 C1277 1.398 . S
C1278 C1279 1.391 . S
C1279 H1267 0.950 . S
C1279 C1275 1.393 . S
C1279 C1278 1.391 . S
H1280 C1288 0.950 . S
H1281 C1293 0.950 . S
H1282 C1290 0.950 . S
H1283 C1292 0.950 . S
H1284 C1294 0.950 . S
H1285 C1296 0.950 . S
H1286 C1298 0.950 . S
H1287 C1299 0.950 . S
C1288 H1280 0.950 . S
C1288 C1289 1.386 . S
C1288 C1290 1.391 . S
C1289 C1288 1.386 . S
C1289 C1293 1.393 . S
C1290 H1282 0.950 . S
C1290 C1288 1.391 . S
C1290 C1291 1.400 . S
C1291 C1290 1.400 . S
C1291 C1292 1.398 . S
C1291 C1297 1.491 . S
C1292 H1283 0.950 . S
C1292 C1291 1.398 . S
C1292 C1293 1.391 . S
C1293 H1281 0.950 . S
C1293 C1289 1.393 . S
C1293 C1292 1.391 . S
C1294 H1284 0.950 . S
C1294 C1295 1.386 . S
C1294 C1296 1.391 . S
C1295 C1294 1.386 . S
C1295 C1299 1.393 . S
C1296 H1285 0.950 . S
C1296 C1294 1.391 . S
C1296 C1297 1.400 . S
C1297 C1291 1.491 . S
C1297 C1296 1.400 . S
C1297 C1298 1.398 . S
C1298 H1286 0.950 . S
C1298 C1297 1.398 . S
C1298 C1299 1.391 . S
C1299 H1287 0.950 . S
C1299 C1295 1.393 . S
C1299 C1298 1.391 . S
H1300 C1308 0.950 . S
H1301 C1313 0.950 . S
H1302 C1310 0.950 . S
H1303 C1312 0.950 . S
H1304 C1314 0.950 . S
H1305 C1316 0.950 . S
H1306 C1318 0.950 . S
H1307 C1319 0.950 . S
C1308 H1300 0.950 . S
C1308 C1309 1.386 . S
C1308 C1310 1.391 . S
C1309 C1308 1.386 . S
C1309 C1313 1.393 . S
C1310 H1302 0.950 . S
C1310 C1308 1.391 . S
C1310 C1311 1.400 . S
C1311 C1310 1.400 . S
C1311 C1312 1.398 . S
C1311 C1317 1.491 . S
C1312 H1303 0.950 . S
C1312 C1311 1.398 . S
C1312 C1313 1.391 . S
C1313 H1301 0.950 . S
C1313 C1309 1.393 . S
C1313 C1312 1.391 . S
C1314 H1304 0.950 . S
C1314 C1315 1.386 . S
C1314 C1316 1.391 . S
C1315 C1314 1.386 . S
C1315 C1319 1.393 . S
C1316 H1305 0.950 . S
C1316 C1314 1.391 . S
C1316 C1317 1.400 . S
C1317 C1311 1.491 . S
C1317 C1316 1.400 . S
C1317 C1318 1.398 . S
C1318 H1306 0.950 . S
C1318 C1317 1.398 . S
C1318 C1319 1.391 . S
C1319 H1307 0.950 . S
C1319 C1315 1.393 . S
C1319 C1318 1.391 . S
H1320 C1328 0.950 . S
H1321 C1333 0.950 . S
H1322 C1330 0.950 . S
H1323 C1332 0.950 . S
H1324 C1334 0.950 . S
H1325 C1336 0.950 . S
H1326 C1338 0.950 . S
H1327 C1339 0.950 . S
C1328 H1320 0.950 . S
C1328 C1329 1.386 . S
C1328 C1330 1.391 . S
C1329 C1328 1.386 . S
C1329 C1333 1.393 . S
C1330 H1322 0.950 . S
C1330 C1328 1.391 . S
C1330 C1331 1.400 . S
C1331 C1330 1.400 . S
C1331 C1332 1.398 . S
C1331 C1337 1.491 . S
C1332 H1323 0.950 . S
C1332 C1331 1.398 . S
C1332 C1333 1.391 . S
C1333 H1321 0.950 . S
C1333 C1329 1.393 . S
C1333 C1332 1.391 . S
C1334 H1324 0.950 . S
C1334 C1335 1.386 . S
C1334 C1336 1.391 . S
C1335 C1334 1.386 . S
C1335 C1339 1.393 . S
C1336 H1325 0.950 . S
C1336 C1334 1.391 . S
C1336 C1337 1.400 . S
C1337 C1331 1.491 . S
C1337 C1336 1.400 . S
C1337 C1338 1.398 . S
C1338 H1326 0.950 . S
C1338 C1337 1.398 . S
C1338 C1339 1.391 . S
C1339 H1327 0.950 . S
C1339 C1335 1.393 . S
C1339 C1338 1.391 . S
H1340 C1348 0.950 . S
H1341 C1353 0.950 . S
H1342 C1350 0.950 . S
H1343 C1352 0.950 . S
H1344 C1354 0.950 . S
H1345 C1356 0.950 . S
H1346 C1358 0.950 . S
H1347 C1359 0.950 . S
C1348 H1340 0.950 . S
C1348 C1349 1.386 . S
C1348 C1350 1.391 . S
C1349 C1348 1.386 . S
C1349 C1353 1.393 . S
C1350 H1342 0.950 . S
C1350 C1348 1.391 . S
C1350 C1351 1.400 . S
C1351 C1350 1.400 . S
C1351 C1352 1.398 . S
C1351 C1357 1.491 . S
C1352 H1343 0.950 . S
C1352 C1351 1.398 . S
C1352 C1353 1.391 . S
C1353 H1341 0.950 . S
C1353 C1349 1.393 . S
C1353 C1352 1.391 . S
C1354 H1344 0.950 . S
C1354 C1355 1.386 . S
C1354 C1356 1.391 . S
C1355 C1354 1.386 . S
C1355 C1359 1.393 . S
C1356 H1345 0.950 . S
C1356 C1354 1.391 . S
C1356 C1357 1.400 . S
C1357 C1351 1.491 . S
C1357 C1356 1.400 . S
C1357 C1358 1.398 . S
C1358 H1346 0.950 . S
C1358 C1357 1.398 . S
C1358 C1359 1.391 . S
C1359 H1347 0.950 . S
C1359 C1355 1.393 . S
C1359 C1358 1.391 . S
H1360 C1368 0.950 . S
H1361 C1373 0.950 . S
H1362 C1370 0.950 . S
H1363 C1372 0.950 . S
H1364 C1374 0.950 . S
H1365 C1376 0.950 . S
H1366 C1378 0.950 . S
H1367 C1379 0.950 . S
C1368 H1360 0.950 . S
C1368 C1369 1.386 . S
C1368 C1370 1.391 . S
C1369 C1368 1.386 . S
C1369 C1373 1.393 . S
C1370 H1362 0.950 . S
C1370 C1368 1.391 . S
C1370 C1371 1.400 . S
C1371 C1370 1.400 . S
C1371 C1372 1.398 . S
C1371 C1377 1.491 . S
C1372 H1363 0.950 . S
C1372 C1371 1.398 . S
C1372 C1373 1.391 . S
C1373 H1361 0.950 . S
C1373 C1369 1.393 . S
C1373 C1372 1.391 . S
C1374 H1364 0.950 . S
C1374 C1375 1.386 . S
C1374 C1376 1.391 . S
C1375 C1374 1.386 . S
C1375 C1379 1.393 . S
C1376 H1365 0.950 . S
C1376 C1374 1.391 . S
C1376 C1377 1.400 . S
C1377 C1371 1.491 . S
C1377 C1376 1.400 . S
C1377 C1378 1.398 . S
C1378 H1366 0.950 . S
C1378 C1377 1.398 . S
C1378 C1379 1.391 . S
C1379 H1367 0.950 . S
C1379 C1375 1.393 . S
C1379 C1378 1.391 . S
H1380 C1388 0.950 . S
H1381 C1393 0.950 . S
H1382 C1390 0.950 . S
H1383 C1392 0.950 . S
H1384 C1394 0.950 . S
H1385 C1396 0.950 . S
H1386 C1398 0.950 . S
H1387 C1399 0.950 . S
C1388 H1380 0.950 . S
C1388 C1389 1.386 . S
C1388 C1390 1.391 . S
C1389 C1388 1.386 . S
C1389 C1393 1.393 . S
C1390 H1382 0.950 . S
C1390 C1388 1.391 . S
C1390 C1391 1.400 . S
C1391 C1390 1.400 . S
C1391 C1392 1.398 . S
C1391 C1397 1.491 . S
C1392 H1383 0.950 . S
C1392 C1391 1.398 . S
C1392 C1393 1.391 . S
C1393 H1381 0.950 . S
C1393 C1389 1.393 . S
C1393 C1392 1.391 . S
C1394 H1384 0.950 . S
C1394 C1395 1.386 . S
C1394 C1396 1.391 . S
C1395 C1394 1.386 . S
C1395 C1399 1.393 . S
C1396 H1385 0.950 . S
C1396 C1394 1.391 . S
C1396 C1397 1.400 . S
C1397 C1391 1.491 . S
C1397 C1396 1.400 . S
C1397 C1398 1.398 . S
C1398 H1386 0.950 . S
C1398 C1397 1.398 . S
C1398 C1399 1.391 . S
C1399 H1387 0.950 . S
C1399 C1395 1.393 . S
C1399 C1398 1.391 . S
H1400 C1408 0.950 . S
H1401 C1413 0.950 . S
H1402 C1410 0.950 . S
H1403 C1412 0.950 . S
H1404 C1414 0.950 . S
H1405 C1416 0.950 . S
H1406 C1418 0.950 . S
H1407 C1419 0.950 . S
C1408 H1400 0.950 . S
C1408 C1409 1.386 . S
C1408 C1410 1.391 . S
C1409 C1408 1.386 . S
C1409 C1413 1.393 . S
C1410 H1402 0.950 . S
C1410 C1408 1.391 . S
C1410 C1411 1.400 . S
C1411 C1410 1.400 . S
C1411 C1412 1.398 . S
C1411 C1417 1.491 . S
C1412 H1403 0.950 . S
C1412 C1411 1.398 . S
C1412 C1413 1.391 . S
C1413 H1401 0.950 . S
C1413 C1409 1.393 . S
C1413 C1412 1.391 . S
C1414 H1404 0.950 . S
C1414 C1415 1.386 . S
C1414 C1416 1.391 . S
C1415 C1414 1.386 . S
C1415 C1419 1.393 . S
C1416 H1405 0.950 . S
C1416 C1414 1.391 . S
C1416 C1417 1.400 . S
C1417 C1411 1.491 . S
C1417 C1416 1.400 . S
C1417 C1418 1.398 . S
C1418 H1406 0.950 . S
C1418 C1417 1.398 . S
C1418 C1419 1.391 . S
C1419 H1407 0.950 . S
C1419 C1415 1.393 . S
C1419 C1418 1.391 . S
H1420 C1428 0.950 . S
H1421 C1433 0.950 . S
H1422 C1430 0.950 . S
H1423 C1432 0.950 . S
H1424 C1434 0.950 . S
H1425 C1436 0.950 . S
H1426 C1438 0.950 . S
H1427 C1439 0.950 . S
C1428 H1420 0.950 . S
C1428 C1429 1.386 . S
C1428 C1430 1.391 . S
C1429 C1428 1.386 . S
C1429 C1433 1.393 . S
C1430 H1422 0.950 . S
C1430 C1428 1.391 . S
C1430 C1431 1.400 . S
C1431 C1430 1.400 . S
C1431 C1432 1.398 . S
C1431 C1437 1.491 . S
C1432 H1423 0.950 . S
C1432 C1431 1.398 . S
C1432 C1433 1.391 . S
C1433 H1421 0.950 . S
C1433 C1429 1.393 . S
C1433 C1432 1.391 . S
C1434 H1424 0.950 . S
C1434 C1435 1.386 . S
C1434 C1436 1.391 . S
C1435 C1434 1.386 . S
C1435 C1439 1.393 . S
C1436 H1425 0.950 . S
C1436 C1434 1.391 . S
C1436 C1437 1.400 . S
C1437 C1431 1.491 . S
C1437 C1436 1.400 . S
C1437 C1438 1.398 . S
C1438 H1426 0.950 . S
C1438 C1437 1.398 . S
C1438 C1439 1.391 . S
C1439 H1427 0.950 . S
C1439 C1435 1.393 . S
C1439 C1438 1.391 . S
H1440 C1448 0.950 1_556 S
H1441 C1453 0.950 . S
H1442 C1450 0.950 . S
H1443 C1452 0.950 . S
H1444 C1454 0.950 . S
H1445 C1456 0.950 . S
H1446 C1458 0.950 . S
H1447 C1459 0.950 . S
C1448 H1440 0.950 1_554 S
C1448 C1449 1.386 1_554 S
C1448 C1450 1.391 . S
C1449 C1448 1.386 1_556 S
C1449 C1453 1.393 1_556 S
C1450 H1442 0.950 . S
C1450 C1448 1.391 . S
C1450 C1451 1.400 . S
C1451 C1450 1.400 . S
C1451 C1452 1.398 . S
C1451 C1457 1.491 . S
C1452 H1443 0.950 . S
C1452 C1451 1.398 . S
C1452 C1453 1.391 . S
C1453 H1441 0.950 . S
C1453 C1449 1.393 1_554 S
C1453 C1452 1.391 . S
C1454 H1444 0.950 . S
C1454 C1455 1.386 . S
C1454 C1456 1.391 . S
C1455 C1454 1.386 . S
C1455 C1459 1.393 . S
C1456 H1445 0.950 . S
C1456 C1454 1.391 . S
C1456 C1457 1.400 . S
C1457 C1451 1.491 . S
C1457 C1456 1.400 . S
C1457 C1458 1.398 . S
C1458 H1446 0.950 . S
C1458 C1457 1.398 . S
C1458 C1459 1.391 . S
C1459 H1447 0.950 . S
C1459 C1455 1.393 . S
C1459 C1458 1.391 . S
H1460 C1468 0.950 . S
H1461 C1473 0.950 . S
H1462 C1470 0.950 . S
H1463 C1472 0.950 . S
H1464 C1474 0.950 . S
H1465 C1476 0.950 . S
H1466 C1478 0.950 . S
H1467 C1479 0.950 1_554 S
C1468 H1460 0.950 . S
C1468 C1469 1.386 . S
C1468 C1470 1.391 . S
C1469 C1468 1.386 . S
C1469 C1473 1.393 . S
C1470 H1462 0.950 . S
C1470 C1468 1.391 . S
C1470 C1471 1.400 . S
C1471 C1470 1.400 . S
C1471 C1472 1.398 . S
C1471 C1477 1.491 . S
C1472 H1463 0.950 . S
C1472 C1471 1.398 . S
C1472 C1473 1.391 . S
C1473 H1461 0.950 . S
C1473 C1469 1.393 . S
C1473 C1472 1.391 . S
C1474 H1464 0.950 . S
C1474 C1475 1.386 1_556 S
C1474 C1476 1.391 . S
C1475 C1474 1.386 1_554 S
C1475 C1479 1.393 1_554 S
C1476 H1465 0.950 . S
C1476 C1474 1.391 . S
C1476 C1477 1.400 . S
C1477 C1471 1.491 . S
C1477 C1476 1.400 . S
C1477 C1478 1.398 . S
C1478 H1466 0.950 . S
C1478 C1477 1.398 . S
C1478 C1479 1.391 . S
C1479 H1467 0.950 1_556 S
C1479 C1475 1.393 1_556 S
C1479 C1478 1.391 . S
H1480 C1488 0.950 . S
H1481 C1493 0.950 . S
H1482 C1490 0.950 . S
H1483 C1492 0.950 . S
H1484 C1494 0.950 . S
H1485 C1496 0.950 . S
H1486 C1498 0.950 . S
H1487 C1499 0.950 1_556 S
C1488 H1480 0.950 . S
C1488 C1489 1.386 . S
C1488 C1490 1.391 . S
C1489 C1488 1.386 . S
C1489 C1493 1.393 . S
C1490 H1482 0.950 . S
C1490 C1488 1.391 . S
C1490 C1491 1.400 . S
C1491 C1490 1.400 . S
C1491 C1492 1.398 . S
C1491 C1497 1.491 . S
C1492 H1483 0.950 . S
C1492 C1491 1.398 . S
C1492 C1493 1.391 . S
C1493 H1481 0.950 . S
C1493 C1489 1.393 . S
C1493 C1492 1.391 . S
C1494 H1484 0.950 . S
C1494 C1495 1.386 1_554 S
C1494 C1496 1.391 . S
C1495 C1494 1.386 1_556 S
C1495 C1499 1.393 1_556 S
C1496 H1485 0.950 . S
C1496 C1494 1.391 . S
C1496 C1497 1.400 . S
C1497 C1491 1.491 . S
C1497 C1496 1.400 . S
C1497 C1498 1.398 . S
C1498 H1486 0.950 . S
C1498 C1497 1.398 . S
C1498 C1499 1.391 . S
C1499 H1487 0.950 1_554 S
C1499 C1495 1.393 1_554 S
C1499 C1498 1.391 . S
H1500 C1508 0.949 . S
H1501 C1513 0.950 . S
H1502 C1510 0.950 . S
H1503 C1512 0.950 . S
H1504 C1514 0.950 . S
H1505 C1516 0.950 . S
H1506 C1518 0.950 . S
H1507 C1519 0.950 . S
C1508 H1500 0.949 . S
C1508 C1509 1.386 1_556 S
C1508 C1510 1.391 . S
C1509 C1508 1.386 1_554 S
C1509 C1513 1.393 1_554 S
C1510 H1502 0.950 . S
C1510 C1508 1.391 . S
C1510 C1511 1.400 . S
C1511 C1510 1.400 . S
C1511 C1512 1.398 . S
C1511 C1517 1.491 . S
C1512 H1503 0.950 . S
C1512 C1511 1.398 . S
C1512 C1513 1.391 . S
C1513 H1501 0.950 . S
C1513 C1509 1.393 1_556 S
C1513 C1512 1.391 . S
C1514 H1504 0.950 . S
C1514 C1515 1.386 . S
C1514 C1516 1.391 . S
C1515 C1514 1.386 . S
C1515 C1519 1.393 . S
C1516 H1505 0.950 . S
C1516 C1514 1.391 . S
C1516 C1517 1.400 . S
C1517 C1511 1.491 . S
C1517 C1516 1.400 . S
C1517 C1518 1.398 . S
C1518 H1506 0.950 . S
C1518 C1517 1.398 . S
C1518 C1519 1.391 . S
C1519 H1507 0.950 . S
C1519 C1515 1.393 . S
C1519 C1518 1.391 . S
H1520 C1528 0.950 . S
H1521 C1533 0.950 . S
H1522 C1530 0.950 . S
H1523 C1532 0.950 . S
H1524 C1534 0.950 1_556 S
H1525 C1536 0.950 . S
H1526 C1538 0.950 . S
H1527 C1539 0.950 1_556 S
C1528 H1520 0.950 . S
C1528 C1529 1.386 . S
C1528 C1530 1.391 . S
C1529 C1528 1.386 . S
C1529 C1533 1.393 . S
C1530 H1522 0.950 . S
C1530 C1528 1.391 . S
C1530 C1531 1.400 . S
C1531 C1530 1.400 . S
C1531 C1532 1.398 . S
C1531 C1537 1.491 . S
C1532 H1523 0.950 . S
C1532 C1531 1.398 . S
C1532 C1533 1.391 . S
C1533 H1521 0.950 . S
C1533 C1529 1.393 . S
C1533 C1532 1.391 . S
C1534 H1524 0.950 1_554 S
C1534 C1535 1.386 1_554 S
C1534 C1536 1.391 . S
C1535 C1534 1.386 1_556 S
C1535 C1539 1.393 1_556 S
C1536 H1525 0.950 . S
C1536 C1534 1.391 . S
C1536 C1537 1.400 . S
C1537 C1531 1.491 . S
C1537 C1536 1.400 . S
C1537 C1538 1.398 . S
C1538 H1526 0.950 . S
C1538 C1537 1.398 . S
C1538 C1539 1.391 . S
C1539 H1527 0.950 1_554 S
C1539 C1535 1.393 1_554 S
C1539 C1538 1.391 . S
H1540 C1548 0.950 1_554 S
H1541 C1553 0.950 1_554 S
H1542 C1550 0.950 . S
H1543 C1552 0.950 . S
H1544 C1554 0.950 . S
H1545 C1556 0.950 . S
H1546 C1558 0.950 . S
H1547 C1559 0.950 . S
C1548 H1540 0.950 1_556 S
C1548 C1549 1.386 1_556 S
C1548 C1550 1.391 . S
C1549 C1548 1.386 1_554 S
C1549 C1553 1.393 1_554 S
C1550 H1542 0.950 . S
C1550 C1548 1.391 . S
C1550 C1551 1.400 . S
C1551 C1550 1.400 . S
C1551 C1552 1.398 . S
C1551 C1557 1.491 . S
C1552 H1543 0.950 . S
C1552 C1551 1.398 . S
C1552 C1553 1.391 . S
C1553 H1541 0.950 1_556 S
C1553 C1549 1.393 1_556 S
C1553 C1552 1.391 . S
C1554 H1544 0.950 . S
C1554 C1555 1.386 . S
C1554 C1556 1.391 . S
C1555 C1554 1.386 . S
C1555 C1559 1.393 . S
C1556 H1545 0.950 . S
C1556 C1554 1.391 . S
C1556 C1557 1.400 . S
C1557 C1551 1.491 . S
C1557 C1556 1.400 . S
C1557 C1558 1.398 . S
C1558 H1546 0.950 . S
C1558 C1557 1.398 . S
C1558 C1559 1.391 . S
C1559 H1547 0.950 . S
C1559 C1555 1.393 . S
C1559 C1558 1.391 . S
H1560 C1568 0.950 1_556 S
H1561 C1573 0.950 . S
H1562 C1570 0.950 . S
H1563 C1572 0.950 . S
H1564 C1574 0.950 . S
H1565 C1576 0.950 . S
H1566 C1578 0.950 . S
H1567 C1579 0.950 . S
C1568 H1560 0.950 1_554 S
C1568 C1569 1.386 1_554 S
C1568 C1570 1.391 . S
C1569 C1568 1.386 1_556 S
C1569 C1573 1.393 1_556 S
C1570 H1562 0.950 . S
C1570 C1568 1.391 . S
C1570 C1571 1.400 . S
C1571 C1570 1.400 . S
C1571 C1572 1.398 . S
C1571 C1577 1.491 . S
C1572 H1563 0.950 . S
C1572 C1571 1.398 . S
C1572 C1573 1.391 . S
C1573 H1561 0.950 . S
C1573 C1569 1.393 1_554 S
C1573 C1572 1.391 . S
C1574 H1564 0.950 . S
C1574 C1575 1.386 . S
C1574 C1576 1.391 . S
C1575 C1574 1.386 . S
C1575 C1579 1.393 . S
C1576 H1565 0.950 . S
C1576 C1574 1.391 . S
C1576 C1577 1.400 . S
C1577 C1571 1.491 . S
C1577 C1576 1.400 . S
C1577 C1578 1.398 . S
C1578 H1566 0.950 . S
C1578 C1577 1.398 . S
C1578 C1579 1.391 . S
C1579 H1567 0.950 . S
C1579 C1575 1.393 . S
C1579 C1578 1.391 . S
H1580 C1588 0.950 . S
H1581 C1593 0.950 . S
H1582 C1590 0.950 . S
H1583 C1592 0.950 . S
H1584 C1594 0.950 1_554 S
H1585 C1596 0.950 . S
H1586 C1598 0.950 . S
H1587 C1599 0.957 . S
C1588 H1580 0.950 . S
C1588 C1589 1.386 . S
C1588 C1590 1.391 . S
C1589 C1588 1.386 . S
C1589 C1593 1.393 . S
C1590 H1582 0.950 . S
C1590 C1588 1.391 . S
C1590 C1591 1.400 . S
C1591 C1590 1.400 . S
C1591 C1592 1.398 . S
C1591 C1597 1.491 . S
C1592 H1583 0.950 . S
C1592 C1591 1.398 . S
C1592 C1593 1.391 . S
C1593 H1581 0.950 . S
C1593 C1589 1.393 . S
C1593 C1592 1.391 . S
C1594 H1584 0.950 1_556 S
C1594 C1595 1.386 1_556 S
C1594 C1596 1.391 . S
C1595 C1594 1.386 1_554 S
C1595 C1599 1.393 1_554 S
C1596 H1585 0.950 . S
C1596 C1594 1.391 . S
C1596 C1597 1.400 . S
C1597 C1591 1.491 . S
C1597 C1596 1.400 . S
C1597 C1598 1.398 . S
C1598 H1586 0.950 . S
C1598 C1597 1.398 . S
C1598 C1599 1.391 . S
C1599 H1587 0.957 . S
C1599 C1595 1.393 1_556 S
C1599 C1598 1.391 . S
C649 C459 1.727 . S
C655 C18 1.702 . S
C669 C330 1.732 . S
C675 C49 1.708 . S
C689 C98 1.717 . S
C695 C379 1.729 . S
C709 C129 1.719 . S
C715 C410 1.734 . S
C729 C178 1.719 . S
C735 C219 1.735 . S
C749 C250 1.723 . S
C755 C209 1.710 . S
C769 C258 1.707 . S
C775 C299 1.721 . S
C789 C170 1.725 . S
C795 C289 1.701 . S
C809 C139 1.728 . S
C815 C338 1.703 . S
C829 C369 1.702 . S
C835 C10 1.727 . S
C849 C59 1.725 . S
C855 C418 1.701 . S
C869 C90 1.731 . S
C875 C449 1.707 . S
C889 C498 1.702 . S
C895 C539 1.719 . S
C909 C570 1.726 . S
C915 C529 1.714 . S
C929 C619 1.724 . S
C935 C578 1.700 . S
C949 C609 1.719 . S
C955 C490 1.732 . S
C969 C9 1.188 . S
C975 C169 1.172 . S
C989 C218 1.193 . S
C995 C58 1.206 . S
C1009 C89 1.168 . S
C1015 C249 1.179 . S
C1029 C138 1.207 . S
C1035 C298 1.201 . S
C1049 C329 1.178 . S
C1055 C489 1.168 . S
C1069 C538 1.181 . S
C1075 C378 1.169 . S
C1089 C409 1.176 . S
C1095 C569 1.194 . S
C1109 C458 1.207 . S
C1115 C618 1.200 . S
C1129 C579 2.273 . S
C1135 C19 2.275 1_556 S
C1149 C50 2.275 1_554 S
C1155 C610 2.274 . S
C1169 C99 2.276 1_556 S
C1175 C499 2.276 . S
C1189 C130 2.275 1_554 S
C1195 C530 2.273 . S
C1209 C179 2.263 . S
C1215 C419 2.264 . S
C1229 C210 2.268 . S
C1235 C450 2.271 . S
C1249 C259 2.264 . S
C1255 C339 2.263 . S
C1269 C370 2.276 . S
C1275 C290 2.275 . S
C1289 C6 1.062 . S
C1295 C15 1.062 . S
C1309 C55 1.066 . S
C1315 C46 1.066 . S
C1329 C86 1.069 . S
C1335 C95 1.069 . S
C1349 C126 1.064 . S
C1355 C135 1.064 . S
C1369 C175 1.064 . S
C1375 C166 1.064 . S
C1389 C215 1.061 . S
C1395 C206 1.061 . S
C1409 C246 1.063 . S
C1415 C255 1.063 . S
C1429 C286 1.065 . S
C1435 C295 1.065 . S
C1449 C326 1.063 . S
C1455 C335 1.063 . S
C1469 C366 1.061 . S
C1475 C375 1.061 . S
C1489 C415 1.065 . S
C1495 C406 1.065 . S
C1509 C455 1.068 . S
C1515 C446 1.068 . S
C1529 C486 1.067 . S
C1535 C495 1.067 . S
C1549 C526 1.062 . S
C1555 C535 1.062 . S
C1569 C575 1.061 . S
C1575 C566 1.061 . S
C1589 C615 1.061 . S
C1595 C606 1.061 . S
