# Generated by pormake.
# Topology snk, (6)-cn, num edge types: 1
# Building blocks:
#     Node 0, Type 0, BuildingBlock: KUMBUR_clean_sbu_0, # of connection points: 6
#     Node 1, Type 0, BuildingBlock: KUMBUR_clean_sbu_0, # of connection points: 6
#     Node 2, Type 0, BuildingBlock: KUMBUR_clean_sbu_0, # of connection points: 6
#     Node 3, Type 0, BuildingBlock: KUMBUR_clean_sbu_0, # of connection points: 6
#     Node 4, Type 0, BuildingBlock: KUMBUR_clean_sbu_0, # of connection points: 6
#     Node 5, Type 0, BuildingBlock: KUMBUR_clean_sbu_0, # of connection points: 6
#     Node 6, Type 0, BuildingBlock: KUMBUR_clean_sbu_0, # of connection points: 6
#     Node 7, Type 0, BuildingBlock: KUMBUR_clean_sbu_0, # of connection points: 6
#     Edge 8, Type (0, 0), BuildingBlock: AJUNOK_clean_linker_0, # of connection points: 2
#     Edge 9, Type (0, 0), BuildingBlock: AJUNOK_clean_linker_0, # of connection points: 2
#     Edge 10, Type (0, 0), BuildingBlock: AJUNOK_clean_linker_0, # of connection points: 2
#     Edge 11, Type (0, 0), BuildingBlock: AJUNOK_clean_linker_0, # of connection points: 2
#     Edge 12, Type (0, 0), BuildingBlock: AJUNOK_clean_linker_0, # of connection points: 2
#     Edge 13, Type (0, 0), BuildingBlock: AJUNOK_clean_linker_0, # of connection points: 2
#     Edge 14, Type (0, 0), BuildingBlock: AJUNOK_clean_linker_0, # of connection points: 2
#     Edge 15, Type (0, 0), BuildingBlock: AJUNOK_clean_linker_0, # of connection points: 2
#     Edge 16, Type (0, 0), BuildingBlock: AJUNOK_clean_linker_0, # of connection points: 2
#     Edge 17, Type (0, 0), BuildingBlock: AJUNOK_clean_linker_0, # of connection points: 2
#     Edge 18, Type (0, 0), BuildingBlock: AJUNOK_clean_linker_0, # of connection points: 2
#     Edge 19, Type (0, 0), BuildingBlock: AJUNOK_clean_linker_0, # of connection points: 2
#     Edge 20, Type (0, 0), BuildingBlock: AJUNOK_clean_linker_0, # of connection points: 2
#     Edge 21, Type (0, 0), BuildingBlock: AJUNOK_clean_linker_0, # of connection points: 2
#     Edge 22, Type (0, 0), BuildingBlock: AJUNOK_clean_linker_0, # of connection points: 2
#     Edge 23, Type (0, 0), BuildingBlock: AJUNOK_clean_linker_0, # of connection points: 2
#     Edge 24, Type (0, 0), BuildingBlock: AJUNOK_clean_linker_0, # of connection points: 2
#     Edge 25, Type (0, 0), BuildingBlock: AJUNOK_clean_linker_0, # of connection points: 2
#     Edge 26, Type (0, 0), BuildingBlock: AJUNOK_clean_linker_0, # of connection points: 2
#     Edge 27, Type (0, 0), BuildingBlock: AJUNOK_clean_linker_0, # of connection points: 2
#     Edge 28, Type (0, 0), BuildingBlock: AJUNOK_clean_linker_0, # of connection points: 2
#     Edge 29, Type (0, 0), BuildingBlock: AJUNOK_clean_linker_0, # of connection points: 2
#     Edge 30, Type (0, 0), BuildingBlock: AJUNOK_clean_linker_0, # of connection points: 2
#     Edge 31, Type (0, 0), BuildingBlock: AJUNOK_clean_linker_0, # of connection points: 2
# Relax obj value: 0.002
# Max RMSD: 0.036
# Mean RMSD: 0.036
data_MOF--net-snk--node1-KUMBUR_clean_sbu_0--edge1-AJUNOK_clean_linker_0
_symmetry_space_group_name_H-M    P1
_symmetry_Int_Tables_number       1
_symmetry_cell_setting            triclinic
loop_
_symmetry_equiv_pos_as_xyz
'x, y, z'
_cell_length_a     26.754605
_cell_length_b     26.599367
_cell_length_c     20.033583
_cell_angle_alpha  87.572709
_cell_angle_beta   87.969536
_cell_angle_gamma 89.544896
loop_
_atom_site_label
_atom_site_type_symbol
_atom_site_fract_x
_atom_site_fract_y
_atom_site_fract_z
_atom_type_partial_charge
Tb0 Tb 0.00874 0.97291 0.45944 0.0
C1 C 1.00037 0.15468 0.64466 0.0
C2 C 0.08557 0.18359 0.65404 0.0
C3 C 0.01659 0.23192 0.70124 0.0
C4 C 0.05144 0.14783 0.63269 0.0
C5 C 0.98259 0.19701 0.6789 0.0
C6 C 0.06785 0.22535 0.68847 0.0
C7 C 0.89866 0.16758 0.66709 0.0
N8 N 0.96853 0.11822 0.62704 0.0
C9 C 0.91785 0.12512 0.63616 0.0
C10 C 0.93114 0.2028 0.69058 0.0
Tb11 Tb 0.00689 0.04347 0.59937 0.0
N12 N 0.06777 0.10376 0.60674 0.0
C13 C 0.11812 0.09446 0.6001 0.0
C14 C 0.13673 0.17536 0.64286 0.0
C15 C 0.15301 0.13069 0.61535 0.0
H16 H 0.8914 0.09819 0.6202 0.0
H17 H 0.19263 0.12319 0.60836 0.0
H18 H 0.09356 0.25269 0.7056 0.0
H19 H 0.85874 0.17277 0.67376 0.0
H20 H 0.13256 0.05907 0.58376 0.0
H21 H 0.82726 0.88319 0.46276 0.0
H22 H 0.16397 0.20247 0.65729 0.0
H23 H 0.12669 0.92419 0.43035 0.0
H24 H 0.88492 0.95159 0.47933 0.0
H25 H 0.16115 0.85096 0.37644 0.0
H26 H 1.00356 0.26448 0.72776 0.0
H27 H 0.85871 0.80319 0.4186 0.0
H28 H 0.9305 0.75419 0.37136 0.0
H29 H 0.91607 0.23495 0.71622 0.0
H30 H 0.01992 0.74762 0.34177 0.0
N31 N 0.95095 0.90947 0.45567 0.0
C32 C 0.90043 0.9163 0.46458 0.0
C33 C 0.88487 0.83253 0.42904 0.0
C34 C 0.93607 0.82675 0.41516 0.0
C35 C 0.86702 0.87756 0.45392 0.0
C36 C 0.96884 0.86557 0.43106 0.0
H37 H 0.10577 0.78351 0.34297 0.0
N38 N 0.0502 0.90012 0.42961 0.0
C39 C 0.12123 0.85365 0.38657 0.0
C40 C 0.01975 0.86136 0.41587 0.0
C41 C 0.10089 0.89573 0.41726 0.0
C42 C 0.0899 0.81564 0.36787 0.0
C43 C 0.03865 0.81878 0.38315 0.0
O44 O 0.01691 0.02744 0.38031 0.0
O45 O 0.03763 0.04243 0.49786 0.0
O46 O 0.96353 0.08736 0.52377 0.0
O47 O 0.94077 0.02061 0.46116 0.0
O48 O 0.08654 0.99848 0.44732 0.0
O49 O 0.98539 0.95577 0.36365 0.0
O50 O 0.99639 0.98856 0.67816 0.0
O51 O 0.97769 0.97375 0.56171 0.0
O52 O 0.05198 0.92851 0.5332 0.0
O53 O 0.07421 0.9946 0.59764 0.0
O54 O 0.92875 0.02022 0.60827 0.0
O55 O 0.02624 0.06023 0.697 0.0
C56 C 0.08296 0.04103 0.47523 0.0
C57 C 0.03541 0.99234 0.27738 0.0
C58 C 0.04445 0.99613 0.15689 0.0
C59 C 0.01436 0.99803 0.21515 0.0
C60 C 0.09584 0.98557 0.1614 0.0
C61 C 0.08683 0.98237 0.28187 0.0
C62 C 0.11675 0.97812 0.22388 0.0
C63 C 0.93578 0.06834 0.47714 0.0
C64 C 1.00251 0.99719 0.33625 0.0
C65 C 1.00598 0.7806 0.36661 0.0
C66 C 0.95503 0.78425 0.38349 0.0
C67 C 0.9321 0.97641 0.58354 0.0
C68 C 0.972 0.02477 0.7789 0.0
C69 C 0.98943 0.01871 0.84315 0.0
C70 C 0.95681 0.02353 0.89864 0.0
C71 C 0.90619 0.03559 0.88903 0.0
C72 C 0.92162 0.03759 0.7695 0.0
C73 C 0.88898 0.04351 0.82451 0.0
C74 C 0.07926 0.9472 0.58022 0.0
C75 C 0.00798 0.01911 0.7233 0.0
H76 H 0.97431 1.00395 0.21225 0.0
H77 H 0.1198 0.98374 0.11683 0.0
H78 H 0.10403 0.97824 0.32957 0.0
H79 H 0.15638 0.9704 0.22739 0.0
H80 H 0.02878 0.01048 0.84981 0.0
H81 H 0.87985 0.03821 0.93103 0.0
H82 H 0.90706 0.04256 0.7204 0.0
H83 H 0.85007 0.05288 0.81708 0.0
Tb84 Tb 0.30718 0.75471 0.71151 0.0
C85 C 0.09944 0.76253 0.83582 0.0
C86 C 0.06936 0.84305 0.79388 0.0
C87 C 0.01397 0.77102 0.80065 0.0
C88 C 0.10852 0.81164 0.81616 0.0
C89 C 0.05176 0.74173 0.83049 0.0
C90 C 0.02265 0.82186 0.78272 0.0
C91 C 0.08078 0.66876 0.89419 0.0
N92 N 0.13738 0.73576 0.86326 0.0
C93 C 0.12777 0.69107 0.89739 0.0
C94 C 0.04337 0.69307 0.85766 0.0
Tb95 Tb 0.21564 0.76973 0.84766 0.0
N96 N 0.15518 0.82936 0.82346 0.0
C97 C 0.16316 0.88017 0.81916 0.0
C98 C 0.07817 0.89465 0.78516 0.0
C99 C 0.12491 0.91349 0.79988 0.0
H100 H 0.15699 0.67127 0.92372 0.0
H101 H 0.13187 0.95352 0.79498 0.0
H102 H 0.99255 0.84477 0.76275 0.0
H103 H 0.07398 0.63243 0.91862 0.0
H104 H 0.19916 0.89536 0.82874 0.0
H105 H 0.33288 0.55061 0.72034 0.0
H106 H 0.0489 0.92022 0.76897 0.0
H107 H 0.3953 0.84053 0.68494 0.0
H108 H 0.28895 0.62861 0.69212 0.0
H109 H 0.48439 0.84936 0.70997 0.0
H110 H 0.97704 0.7559 0.79537 0.0
H111 H 0.41672 0.55241 0.76773 0.0
H112 H 0.49015 0.60364 0.80111 0.0
H113 H 0.00763 0.67495 0.85329 0.0
H114 H 0.53068 0.68649 0.80276 0.0
N115 N 0.34666 0.67698 0.72385 0.0
C116 C 0.32533 0.63145 0.71273 0.0
C117 C 0.39793 0.58738 0.75453 0.0
C118 C 0.4209 0.63364 0.76191 0.0
C119 C 0.35049 0.5863 0.72807 0.0
C120 C 0.39437 0.67801 0.74423 0.0
H121 H 0.52966 0.77787 0.76545 0.0
N122 N 0.39153 0.76437 0.72089 0.0
C123 C 0.4657 0.81404 0.72142 0.0
C124 C 0.41735 0.72376 0.74396 0.0
C125 C 0.41573 0.80863 0.70547 0.0
C126 C 0.49099 0.77382 0.75275 0.0
C127 C 0.46733 0.72743 0.76245 0.0
O128 O 0.32902 0.79195 0.62021 0.0
O129 O 0.23621 0.78743 0.74296 0.0
O130 O 0.18219 0.71486 0.78481 0.0
O131 O 0.24584 0.70248 0.70356 0.0
O132 O 0.28258 0.83132 0.68236 0.0
O133 O 0.29132 0.72052 0.62161 0.0
O134 O 0.24373 0.75045 0.9431 0.0
O135 O 0.28679 0.7374 0.81513 0.0
O136 O 0.33777 0.80066 0.78818 0.0
O137 O 0.26564 0.83461 0.83629 0.0
O138 O 0.24068 0.69345 0.87606 0.0
O139 O 0.19951 0.81649 0.92845 0.0
C140 C 0.23847 0.82931 0.7101 0.0
C141 C 0.33506 0.74605 0.52018 0.0
C142 C 0.33016 0.74052 0.39857 0.0
C143 C 0.30704 0.74806 0.46175 0.0
C144 C 0.38182 0.7305 0.39478 0.0
C145 C 0.38637 0.73527 0.51543 0.0
C146 C 0.40954 0.72743 0.45292 0.0
C147 C 0.20174 0.69241 0.73225 0.0
C148 C 0.30976 0.75769 0.58442 0.0
C149 C 0.49258 0.68422 0.78657 0.0
C150 C 0.46958 0.63711 0.78544 0.0
C151 C 0.2839 0.69446 0.84528 0.0
C152 C 0.20015 0.779 0.03884 0.0
C153 C 0.23093 0.77048 0.09419 0.0
C154 C 0.20992 0.76303 0.15957 0.0
C155 C 0.15749 0.76524 0.16841 0.0
C156 C 0.14803 0.77977 0.04913 0.0
C157 C 0.12697 0.77313 0.11364 0.0
C158 C 0.31437 0.8348 0.82408 0.0
C159 C 0.22347 0.78854 0.97147 0.0
H160 H 0.26737 0.75669 0.46526 0.0
H161 H 0.40059 0.72455 0.34691 0.0
H162 H 0.40842 0.7334 0.55981 0.0
H163 H 0.44924 0.71928 0.44943 0.0
H164 H 0.27121 0.76949 0.0862 0.0
H165 H 0.13993 0.76158 0.2179 0.0
H166 H 0.12364 0.78607 1.0075 0.0
H167 H 0.08674 0.77454 0.12135 0.0
Tb168 Tb 0.50618 0.96232 0.10082 0.0
C169 C 0.49671 0.17079 1.02065 0.0
C170 C 0.40897 0.18913 0.03603 0.0
C171 C 0.47044 0.24617 0.07691 0.0
C172 C 0.44805 0.15686 1.01553 0.0
C173 C 0.50881 0.21678 0.0482 0.0
C174 C 0.42028 0.23245 0.0704 0.0
C175 C 0.59265 0.20651 1.00193 0.0
N176 N 0.53165 0.14197 0.9902 0.0
C177 C 0.57819 0.16129 0.97493 0.0
C178 C 0.55829 0.23335 0.04113 0.0
Tb179 Tb 0.50767 0.06083 0.97105 0.0
N180 N 0.43946 0.1144 0.98287 0.0
C181 C 0.39304 0.10697 0.95868 0.0
C182 C 0.36041 0.17817 1.01812 0.0
C183 C 0.35265 0.13793 0.97717 0.0
H184 H 0.60526 0.13971 0.94652 0.0
H185 H 0.3157 0.13097 0.95941 0.0
H186 H 0.39072 0.25699 0.08842 0.0
H187 H 0.63036 0.22032 0.99308 0.0
H188 H 0.38678 0.07807 0.9241 0.0
H189 H 0.69523 0.88193 0.09926 0.0
H190 H 0.32938 0.20214 1.03229 0.0
H191 H 0.40094 0.89435 0.12544 0.0
H192 H 0.63093 0.94212 0.13432 0.0
H193 H 0.37015 0.81333 0.08637 0.0
H194 H 0.47886 0.28123 0.09963 0.0
H195 H 0.67291 0.80936 1.03328 0.0
H196 H 0.60567 0.75787 0.98479 0.0
H197 H 0.56939 0.26845 0.06144 0.0
H198 H 0.51588 0.7382 0.98218 0.0
N199 N 0.57133 0.90569 0.08659 0.0
C200 C 0.61981 0.91139 0.1049 0.0
C201 C 0.64418 0.83577 0.04859 0.0
C202 C 0.59405 0.8277 0.03528 0.0
C203 C 0.65682 0.87671 0.08586 0.0
C204 C 0.55803 0.8626 0.05786 0.0
H205 H 0.42756 0.7575 1.02353 0.0
N206 N 0.47498 0.88353 0.08562 0.0
C207 C 0.40891 0.82373 0.07742 0.0
C208 C 0.50792 0.85099 0.05753 0.0
C209 C 0.42656 0.86911 0.10038 0.0
C210 C 0.4414 0.7924 0.04161 0.0
C211 C 0.49198 0.80519 1.0329 0.0
O212 O 0.49397 0.91931 0.19096 0.0
O213 O 0.48113 0.03795 0.07184 0.0
O214 O 0.55998 0.07903 0.04829 0.0
O215 O 0.57387 1.00488 0.1121 0.0
O216 O 0.42956 0.99056 0.11731 0.0
O217 O 0.50756 0.99818 0.19313 0.0
O218 O 0.53141 0.09921 0.88125 0.0
O219 O 0.5343 0.98625 1.00121 0.0
O220 O 0.46129 0.94042 1.01893 0.0
O221 O 0.44071 0.01449 0.96051 0.0
O222 O 0.58401 0.03229 0.95062 0.0
O223 O 0.49416 0.02869 0.87836 0.0
C224 C 0.43653 0.03648 0.09576 0.0
C225 C 0.52561 0.94969 0.292 0.0
C226 C 0.53455 0.96785 0.41054 0.0
C227 C 0.511 0.97687 0.34901 0.0
C228 C 0.57298 0.9317 0.41413 0.0
C229 C 0.56457 0.91425 0.29705 0.0
C230 C 0.58803 0.90544 0.35773 0.0
C231 C 0.58382 0.05211 0.09454 0.0
C232 C 0.49841 0.95737 0.22893 0.0
C233 C 0.52734 0.77311 1.00285 0.0
C234 C 0.57846 0.78441 1.00406 0.0
C235 C 0.5786 0.98718 0.97579 0.0
C236 C 0.49305 0.08136 0.77894 0.0
C237 C 0.50351 0.0542 0.72062 0.0
C238 C 0.48673 0.07199 0.65762 0.0
C239 C 0.45887 0.11696 0.65412 0.0
C240 C 0.46441 0.12568 0.77391 0.0
C241 C 0.44743 0.14321 0.71187 0.0
C242 C 0.435 0.96584 0.97459 0.0
C243 C 0.51561 0.06488 0.84299 0.0
H244 H 0.48094 1.00433 0.3458 0.0
H245 H 0.59154 0.92396 0.4607 0.0
H246 H 0.5766 0.89307 0.25427 0.0
H247 H 0.61788 0.87784 0.3612 0.0
H248 H 0.52592 0.0201 0.72393 0.0
H249 H 0.44557 0.13159 0.60661 0.0
H250 H 0.45591 0.14718 0.8177 0.0
H251 H 0.42569 0.17766 0.70838 0.0
Tb252 Tb 0.30068 0.26624 0.36191 0.0
C253 C 0.11569 0.26927 0.17196 0.0
C254 C 0.08396 0.18496 0.16533 0.0
C255 C 0.04075 0.25518 0.11046 0.0
C256 C 0.11967 0.21863 0.1873 0.0
C257 C 0.07556 0.28854 0.13477 0.0
C258 C 0.04511 0.20342 0.12552 0.0
C259 C 0.1073 0.37191 0.14897 0.0
N260 N 0.15173 0.29953 0.19314 0.0
C261 C 0.14753 0.3507 0.18327 0.0
C262 C 0.0718 0.34062 0.12309 0.0
Tb263 Tb 0.22371 0.25853 0.2245 0.0
N264 N 0.15993 0.20218 0.2213 0.0
C265 C 0.16615 0.15197 0.23589 0.0
C266 C 0.08918 0.13379 0.18279 0.0
C267 C 0.13019 0.1174 0.21904 0.0
H268 H 0.17517 0.37565 0.20123 0.0
H269 H 0.13551 0.07794 0.2315 0.0
H270 H 0.01796 0.17818 0.10699 0.0
H271 H 0.10432 0.41234 0.14126 0.0
H272 H 0.19996 0.13779 0.25749 0.0
H273 H 0.38488 0.45022 0.34393 0.0
H274 H 0.06242 0.10666 0.16769 0.0
H275 H 0.35011 0.15191 0.3953 0.0
H276 H 0.31847 0.38853 0.3317 0.0
H277 H 0.42588 0.11814 0.44671 0.0
H278 H 0.00994 0.26906 0.08103 0.0
H279 H 0.46595 0.42281 0.38934 0.0
H280 H 0.51812 0.35308 0.43978 0.0
H281 H 0.04122 0.35703 0.09536 0.0
H282 H 0.52811 0.26313 0.471 0.0
N283 N 0.36332 0.32502 0.35901 0.0
C284 C 0.35461 0.37523 0.34675 0.0
C285 C 0.43759 0.39515 0.38086 0.0
C286 C 0.44528 0.34423 0.39769 0.0
C287 C 0.39198 0.4107 0.35514 0.0
C288 C 0.40738 0.30965 0.3847 0.0
H289 H 0.49387 0.17539 0.47389 0.0
N290 N 0.37493 0.22821 0.39041 0.0
C291 C 0.42264 0.15808 0.43476 0.0
C292 C 0.41304 0.25948 0.40213 0.0
C293 C 0.37956 0.17764 0.40538 0.0
C294 C 0.46095 0.19045 0.45002 0.0
C295 C 0.45668 0.24182 0.43325 0.0
O296 O 0.29216 0.24154 0.4634 0.0
O297 O 0.22976 0.2361 0.32971 0.0
O298 O 0.17931 0.30027 0.30016 0.0
O299 O 0.24784 0.33115 0.35207 0.0
O300 O 0.27099 0.19161 0.3914 0.0
O301 O 0.28103 0.31933 0.43265 0.0
O302 O 0.23797 0.28405 0.12428 0.0
O303 O 0.2949 0.28796 0.25678 0.0
O304 O 0.34323 0.2217 0.28634 0.0
O305 O 0.27336 0.19216 0.2367 0.0
O306 O 0.25305 0.33307 0.19662 0.0
O307 O 0.24099 0.2052 0.15321 0.0
C308 C 0.22951 0.19325 0.36147 0.0
C309 C 0.30646 0.303 0.54313 0.0
C310 C 0.30704 0.30395 0.66472 0.0
C311 C 0.28681 0.2867 0.60614 0.0
C312 C 0.34756 0.33717 0.65993 0.0
C313 C 0.34611 0.33738 0.53918 0.0
C314 C 0.36668 0.35405 0.59728 0.0
C315 C 0.19913 0.33262 0.34066 0.0
C316 C 0.28224 0.28677 0.48287 0.0
C317 C 0.49437 0.27597 0.44703 0.0
C318 C 0.48876 0.3271 0.42906 0.0
C319 C 0.29467 0.33107 0.22606 0.0
C320 C 0.22004 0.22616 0.04164 0.0
C321 C 0.23817 0.24874 0.98118 0.0
C322 C 0.21868 0.23557 0.9203 0.0
C323 C 0.17955 0.20075 0.92026 0.0
C324 C 0.18241 0.18968 0.04056 0.0
C325 C 0.16159 0.17787 0.98029 0.0
C326 C 0.32213 0.18982 0.24618 0.0
C327 C 0.24401 0.2385 0.1039 0.0
H328 H 0.25531 0.26116 0.60966 0.0
H329 H 0.36324 0.35119 0.70459 0.0
H330 H 0.36041 0.35242 0.49156 0.0
H331 H 0.3967 0.38103 0.59352 0.0
H332 H 0.26814 0.27586 0.98139 0.0
H333 H 0.16409 0.19008 0.87367 0.0
H334 H 0.16984 0.16948 0.08576 0.0
H335 H 0.13233 0.15001 0.97997 0.0
Tb336 Tb 0.80079 0.25439 0.21721 0.0
C337 C 0.59081 0.26754 0.31833 0.0
C338 C 0.56882 0.35358 0.29065 0.0
C339 C 0.51035 0.28669 0.27076 0.0
C340 C 0.60362 0.31708 0.31272 0.0
C341 C 0.5436 0.25145 0.29944 0.0
C342 C 0.52282 0.33796 0.26697 0.0
C343 C 0.56314 0.16966 0.34901 0.0
N344 N 0.62412 0.23545 0.3465 0.0
C345 C 0.6095 0.18794 0.36726 0.0
C346 C 0.53078 0.20107 0.31281 0.0
Tb347 Tb 0.70508 0.26369 0.35023 0.0
N348 N 0.64944 0.32957 0.33298 0.0
C349 C 0.66072 0.37919 0.33959 0.0
C350 C 0.58121 0.40432 0.29398 0.0
C351 C 0.62696 0.41715 0.31991 0.0
H352 H 0.63516 0.16311 0.39324 0.0
H353 H 0.63673 0.45633 0.32353 0.0
H354 H 0.49601 0.3653 0.24823 0.0
H355 H 0.55255 0.1313 0.36197 0.0
H356 H 0.69599 0.39029 0.35843 0.0
H357 H 0.87209 0.06245 0.24121 0.0
H358 H 0.55555 0.43368 0.27774 0.0
H359 H 0.86306 0.36012 0.18367 0.0
H360 H 0.81044 0.12674 0.21096 0.0
H361 H 0.94823 0.39189 0.20129 0.0
H362 H 0.47405 0.27512 0.25486 0.0
H363 H 0.95578 0.08698 0.27652 0.0
H364 H 0.0177 0.15572 0.29095 0.0
H365 H 0.49496 0.18687 0.29904 0.0
H366 H 0.03883 0.24613 0.2774 0.0
N367 N 0.85764 0.18909 0.22953 0.0
C368 C 0.84648 0.13908 0.22565 0.0
C369 C 0.92883 0.11571 0.26252 0.0
C370 C 0.94138 0.16657 0.26088 0.0
C371 C 0.88166 0.10184 0.24263 0.0
C372 C 0.90487 0.20248 0.24248 0.0
H373 H 0.01321 0.33422 0.24423 0.0
N374 N 0.88075 0.28481 0.21475 0.0
C375 C 0.93987 0.35247 0.20994 0.0
C376 C 0.91701 0.25231 0.23414 0.0
C377 C 0.89194 0.33421 0.19956 0.0
C378 C 0.97665 0.31975 0.23409 0.0
C379 C 0.96569 0.26873 0.24515 0.0
O380 O 0.80623 0.28987 0.12082 0.0
O381 O 0.72791 0.2839 0.24777 0.0
O382 O 0.67765 0.21512 0.27431 0.0
O383 O 0.75165 0.1898 0.22011 0.0
O384 O 0.77416 0.3306 0.19141 0.0
O385 O 0.7868 0.21172 0.13383 0.0
O386 O 0.69738 0.22774 0.44594 0.0
O387 O 0.77771 0.23425 0.31942 0.0
O388 O 0.83044 0.29542 0.29814 0.0
O389 O 0.75818 0.32701 0.34979 0.0
O390 O 0.73419 0.1888 0.38101 0.0
O391 O 0.71398 0.30668 0.43515 0.0
C392 C 0.73013 0.32712 0.21866 0.0
C393 C 0.81459 0.24018 1.02488 0.0
C394 C 0.80373 0.23604 0.90415 0.0
C395 C 0.78466 0.2467 0.96856 0.0
C396 C 0.85352 0.21908 0.89707 0.0
C397 C 0.86414 0.22368 1.01663 0.0
C398 C 0.88342 0.21312 0.95289 0.0
C399 C 0.70372 0.18495 0.23539 0.0
C400 C 0.7924 0.24985 0.09145 0.0
C401 C 1.00141 0.23388 0.26788 0.0
C402 C 0.98936 0.18267 0.27556 0.0
C403 C 0.77752 0.192 0.35135 0.0
C404 C 0.68265 0.27582 0.54208 0.0
C405 C 0.70899 0.26463 0.60068 0.0
C406 C 0.68692 0.27245 0.66439 0.0
C407 C 0.63789 0.29185 0.66842 0.0
C408 C 0.63362 0.29443 0.54724 0.0
C409 C 0.61142 0.30239 0.61027 0.0
C410 C 0.8071 0.32763 0.33711 0.0
C411 C 0.708 0.26808 0.47676 0.0
H412 H 0.74624 0.25942 0.97503 0.0
H413 H 0.86958 0.2112 0.84818 0.0
H414 H 0.88768 0.21894 0.05938 0.0
H415 H 0.92175 0.20033 0.94667 0.0
H416 H 0.74712 0.25063 0.59657 0.0
H417 H 0.61987 0.29836 0.71661 0.0
H418 H 0.6128 0.303 0.50272 0.0
H419 H 0.57356 0.31693 0.61411 0.0
Tb420 Tb 0.79206 0.76702 0.8545 0.0
C421 C 0.60812 0.75782 0.66417 0.0
C422 C 0.57821 0.67225 0.6674 0.0
C423 C 0.53178 0.73814 0.60844 0.0
C424 C 0.61386 0.70813 0.68398 0.0
C425 C 0.56689 0.7737 0.62653 0.0
C426 C 0.53723 0.6875 0.62928 0.0
C427 C 0.59753 0.85863 0.62887 0.0
N428 N 0.64384 0.79042 0.68045 0.0
C429 C 0.63862 0.84072 0.66433 0.0
C430 C 0.56212 0.8248 0.6085 0.0
Tb431 Tb 0.71745 0.75458 0.71475 0.0
N432 N 0.65606 0.69453 0.71586 0.0
C433 C 0.66498 0.64479 0.73159 0.0
C434 C 0.5858 0.62192 0.68754 0.0
C435 C 0.62936 0.60818 0.72013 0.0
H436 H 0.6663 0.86738 0.67784 0.0
H437 H 0.63653 0.56907 0.73391 0.0
H438 H 0.5097 0.66046 0.61556 0.0
H439 H 0.5938 0.89839 0.61594 0.0
H440 H 0.70026 0.63254 0.75105 0.0
H441 H 0.88871 0.94264 0.82323 0.0
H442 H 0.55914 0.59329 0.67635 0.0
H443 H 0.83609 0.64935 0.89144 0.0
H444 H 0.81826 0.8856 0.8148 0.0
H445 H 0.90587 0.614 0.95434 0.0
H446 H 0.49998 0.74956 0.5793 0.0
H447 H 0.96441 0.91366 0.88106 0.0
H448 H 0.00691 0.84528 0.95021 0.0
H449 H 0.53098 0.83849 0.57967 0.0
H450 H 0.00978 0.75631 0.98985 0.0
N451 N 0.85766 0.82128 0.85235 0.0
C452 C 0.85292 0.87092 0.83356 0.0
C453 C 0.93451 0.88768 0.87436 0.0
C454 C 0.93736 0.8379 0.89911 0.0
C455 C 0.89213 0.90413 0.84115 0.0
C456 C 0.89865 0.80485 0.88481 0.0
H457 H 0.97266 0.6694 0.99057 0.0
N458 N 0.86257 0.72512 0.89019 0.0
C459 C 0.90464 0.65393 0.94164 0.0
C460 C 0.9006 0.75514 0.90608 0.0
C461 C 0.86481 0.67448 0.9059 0.0
C462 C 0.94222 0.68531 0.96209 0.0
C463 C 0.94094 0.73656 0.94348 0.0
O464 O 0.77271 0.74608 0.95482 0.0
O465 O 0.72153 0.73649 0.82093 0.0
O466 O 0.674 0.80099 0.78758 0.0
O467 O 0.74265 0.8329 0.83792 0.0
O468 O 0.76078 0.69421 0.88744 0.0
O469 O 0.78026 0.82403 0.92279 0.0
O470 O 0.72911 0.77734 0.61296 0.0
O471 O 0.78743 0.78633 0.74769 0.0
O472 O 0.8375 0.7228 0.78313 0.0
O473 O 0.76934 0.69025 0.73215 0.0
O474 O 0.74665 0.82856 0.68273 0.0
O475 O 0.73975 0.70015 0.64686 0.0
C476 C 0.7204 0.6948 0.85516 0.0
C477 C 0.7975 0.80196 0.03586 0.0
C478 C 0.80036 0.78897 0.15695 0.0
C479 C 0.77771 0.78052 0.09629 0.0
C480 C 0.8434 0.81886 0.15671 0.0
C481 C 0.83966 0.83305 0.03681 0.0
C482 C 0.86277 0.84091 0.09687 0.0
C483 C 0.69402 0.83386 0.82761 0.0
C484 C 0.77241 0.79238 0.97333 0.0
C485 C 0.97863 0.7697 0.9607 0.0
C486 C 0.97706 0.82029 0.93806 0.0
C487 C 0.78774 0.82826 0.71358 0.0
C488 C 0.71654 0.7144 0.53455 0.0
C489 C 0.73449 0.73326 0.47173 0.0
C490 C 0.71531 0.71546 0.41275 0.0
C491 C 0.67754 0.67913 0.41685 0.0
C492 C 0.67989 0.67676 0.53765 0.0
C493 C 0.66026 0.65963 0.47917 0.0
C494 C 0.81794 0.68969 0.74364 0.0
C495 C 0.73942 0.73171 0.59544 0.0
H496 H 0.74474 0.75716 0.09611 0.0
H497 H 0.86133 0.82605 0.20299 0.0
H498 H 0.85447 0.85175 0.99157 0.0
H499 H 0.89544 0.86465 0.09713 0.0
H500 H 0.76401 0.76108 0.46861 0.0
H501 H 0.6627 0.66472 0.37187 0.0
H502 H 0.66723 0.65962 0.58491 0.0
H503 H 0.63247 0.63025 0.48228 0.0
Tb504 Tb 0.50198 0.47236 0.97119 0.0
C505 C 0.50089 0.66909 0.13431 0.0
C506 C 0.58478 0.70263 0.13103 0.0
C507 C 0.51571 0.75204 0.17619 0.0
C508 C 0.55116 0.66375 0.1185 0.0
C509 C 0.48239 0.71357 0.16257 0.0
C510 C 0.56683 0.74653 0.16058 0.0
C511 C 0.39986 0.67756 0.16553 0.0
N512 N 0.47065 0.62942 0.1258 0.0
C513 C 0.4203 0.6334 0.14018 0.0
C514 C 0.43118 0.71744 0.17811 0.0
Tb515 Tb 0.5106 0.55452 0.10497 0.0
N516 N 0.56774 0.6185 0.09769 0.0
C517 C 0.61787 0.61021 0.08751 0.0
C518 C 0.63575 0.6951 0.11695 0.0
C519 C 0.65234 0.64871 0.0946 0.0
H520 H 0.39539 0.6027 0.13251 0.0
H521 H 0.69188 0.64189 0.08542 0.0
H522 H 0.59221 0.7763 0.17192 0.0
H523 H 0.3601 0.68032 0.17691 0.0
H524 H 0.63174 0.57344 0.07546 0.0
H525 H 0.32136 0.38339 0.99339 0.0
H526 H 0.6626 0.7242 0.12532 0.0
H527 H 0.61751 0.4247 0.9424 0.0
H528 H 0.38097 0.45247 1.00217 0.0
H529 H 0.653 0.34703 0.89904 0.0
H530 H 0.50233 0.78619 0.19867 0.0
H531 H 0.35119 0.30105 0.9541 0.0
H532 H 0.42164 0.24913 0.90769 0.0
H533 H 0.41548 0.751 0.1997 0.0
H534 H 0.51144 0.23974 0.88022 0.0
N535 N 0.44519 0.40804 0.97869 0.0
C536 C 0.39506 0.41587 0.98977 0.0
C537 C 0.37776 0.33058 0.96151 0.0
C538 C 0.42868 0.32343 0.94685 0.0
C539 C 0.36089 0.37696 0.98354 0.0
C540 C 0.46202 0.36281 0.95813 0.0
H541 H 0.59804 0.27569 0.87776 0.0
N542 N 0.54232 0.39767 0.94994 0.0
C543 C 0.61326 0.34962 0.91052 0.0
C544 C 0.51227 0.35771 0.94208 0.0
C545 C 0.59265 0.39389 0.93522 0.0
C546 C 0.58218 0.30936 0.89887 0.0
C547 C 0.53099 0.31302 0.91464 0.0
O548 O 0.52847 0.48814 0.87257 0.0
O549 O 0.53137 0.54444 1.00095 0.0
O550 O 0.46822 0.59583 1.02661 0.0
O551 O 0.43762 0.52509 0.97856 0.0
O552 O 0.57575 0.50234 0.94113 0.0
O553 O 0.44976 0.47768 0.89474 0.0
O554 O 0.48412 0.54203 0.20448 0.0
O555 O 0.48111 0.48259 0.0753 0.0
O556 O 0.54417 0.43069 0.04839 0.0
O557 O 0.57465 0.50088 0.09821 0.0
O558 O 0.43704 0.52442 0.13561 0.0
O559 O 0.56317 0.54643 0.18072 0.0
C560 C 0.57377 0.54456 0.96965 0.0
C561 C 0.48146 0.45792 0.78643 0.0
C562 C 0.49466 0.45786 0.66554 0.0
C563 C 0.4947 0.48308 0.72565 0.0
C564 C 0.48265 0.40648 0.66709 0.0
C565 C 0.46742 0.40724 0.78675 0.0
C566 C 0.46885 0.38144 0.72748 0.0
C567 C 0.43652 0.5744 0.98678 0.0
C568 C 0.48429 0.4856 0.8481 0.0
C569 C 0.49791 0.27407 0.90213 0.0
C570 C 0.44683 0.27929 0.91813 0.0
C571 C 0.43888 0.4822 0.10708 0.0
C572 C 0.53514 0.56833 0.28984 0.0
C573 C 0.5261 0.54258 0.35152 0.0
C574 C 0.53009 0.56739 0.41167 0.0
C575 C 0.5415 0.61888 0.40948 0.0
C576 C 0.54903 0.61908 0.28882 0.0
C577 C 0.55146 0.64439 0.34824 0.0
C578 C 0.57605 0.45172 0.08808 0.0
C579 C 0.52878 0.5412 0.22813 0.0
H580 H 0.50519 0.5224 0.72516 0.0
H581 H 0.48271 0.38604 0.62148 0.0
H582 H 0.45526 0.38757 0.83223 0.0
H583 H 0.45869 0.34211 0.72825 0.0
H584 H 0.51558 0.50325 0.35271 0.0
H585 H 0.54387 0.63901 0.45514 0.0
H586 H 0.55813 0.63921 0.24268 0.0
H587 H 0.56152 0.68378 0.34681 0.0
Tb588 Tb 1.00457 0.46467 0.60196 0.0
C589 C 0.99947 0.67243 0.49899 0.0
C590 C 0.91489 0.69679 0.52961 0.0
C591 C 0.98274 0.75582 0.53958 0.0
C592 C 0.94969 0.66017 0.50851 0.0
C593 C 0.01635 0.72089 0.51186 0.0
C594 C 0.93193 0.74386 0.54807 0.0
C595 C 0.095 0.6999 0.45637 0.0
N596 N 0.03048 0.63801 0.47129 0.0
C597 C 0.07646 0.65209 0.44509 0.0
C598 C 0.06555 0.73362 0.49237 0.0
Tb599 Tb 0.99969 0.55823 0.46958 0.0
N600 N 0.93495 0.61383 0.49133 0.0
C601 C 0.885 0.60463 0.48504 0.0
C602 C 0.86401 0.68574 0.52893 0.0
C603 C 0.84897 0.64001 0.50485 0.0
H604 H 0.09986 0.62533 0.41935 0.0
H605 H 0.80956 0.63188 0.50171 0.0
H606 H 0.90584 0.77211 0.56569 0.0
H607 H 0.13223 0.71044 0.43845 0.0
H608 H 0.87184 0.5701 0.46605 0.0
H609 H 0.19734 0.39534 0.5843 0.0
H610 H 0.8362 0.71305 0.54426 0.0
H611 H 0.89893 0.39969 0.63007 0.0
H612 H 0.13324 0.45661 0.6128 0.0
H613 H 0.86948 0.31443 0.60775 0.0
H614 H 0.99485 0.79325 0.55035 0.0
H615 H 0.17418 0.31165 0.54702 0.0
H616 H 0.10696 0.24983 0.52723 0.0
H617 H 0.08004 0.7706 0.50063 0.0
H618 H 0.01742 0.22773 0.53465 0.0
N619 N 0.07141 0.4101 0.58902 0.0
C620 C 0.12097 0.42098 0.59626 0.0
C621 C 0.14514 0.33866 0.55946 0.0
C622 C 0.09464 0.32621 0.55737 0.0
C623 C 0.1583 0.38583 0.58054 0.0
C624 C 0.05825 0.36269 0.57409 0.0
H625 H 0.92891 0.25177 0.56227 0.0
N626 N 0.97433 0.38487 0.59812 0.0
C627 C 0.90853 0.32392 0.5994 0.0
C628 C 0.00817 0.34968 0.57902 0.0
C629 C 0.92541 0.37199 0.61241 0.0
C630 C 0.94222 0.28858 0.57414 0.0
C631 C 0.99296 0.30071 0.56588 0.0
O632 O 0.01517 0.50078 0.69153 0.0
O633 O 0.97553 0.53835 0.57205 0.0
O634 O 0.05325 0.5835 0.54182 0.0
O635 O 0.06926 0.51255 0.61074 0.0
O636 O 0.92701 0.48963 0.61958 0.0
O637 O 0.99285 0.42403 0.69443 0.0
O638 O 0.98806 0.52127 0.38031 0.0
O639 O 0.03045 0.48526 0.50007 0.0
O640 O 0.96219 0.43734 0.52091 0.0
O641 O 0.93363 0.5098 0.46635 0.0
O642 O 0.07646 0.53269 0.44518 0.0
O643 O 0.99795 0.60077 0.37799 0.0
C644 C 0.93171 0.53547 0.59779 0.0
C645 C 0.9646 0.47403 0.78454 0.0
C646 C 0.94788 0.50224 0.8984 0.0
C647 C 0.98184 0.4882 0.84666 0.0
C648 C 0.89651 0.50399 0.88558 0.0
C649 C 0.91289 0.47294 0.77503 0.0
C650 C 0.87924 0.48877 0.82476 0.0
C651 C 0.07747 0.55969 0.59053 0.0
C652 C 1.00113 0.46269 0.72981 0.0
C653 C 0.0287 0.26549 0.54491 0.0
C654 C 0.0795 0.27811 0.54079 0.0
C655 C 0.07407 0.48807 0.47272 0.0
C656 C 0.02277 0.55812 0.2802 0.0
C657 C 0.99943 0.55274 0.21888 0.0
C658 C 0.02801 0.54453 0.15944 0.0
C659 C 0.08054 0.54325 0.16291 0.0
C660 C 0.07511 0.55771 0.28151 0.0
C661 C 0.10372 0.55036 0.22314 0.0
C662 C 0.93201 0.46077 0.47935 0.0
C663 C 0.99177 0.56184 0.34239 0.0
H664 H 0.02166 0.4876 0.85489 0.0
H665 H 0.8695 0.51695 0.92265 0.0
H666 H 0.89817 0.46011 0.72936 0.0
H667 H 0.83952 0.48916 0.81617 0.0
H668 H 0.95905 0.55517 0.21795 0.0
H669 H 0.10399 0.53606 0.11914 0.0
H670 H 0.09402 0.56275 0.32745 0.0
H671 H 0.14412 0.54952 0.22474 0.0
C672 C 0.16805 0.07192 0.43478 0.0
C673 C 0.11732 0.08367 0.44874 0.0
C674 C 0.20209 0.1073 0.40491 0.0
C675 C 0.18787 0.1569 0.38526 0.0
H676 H 0.18194 0.03446 0.44737 0.0
H677 H 0.24062 0.09541 0.39721 0.0
S678 S 0.05931 0.20757 0.40742 0.0
N679 N 0.05426 0.14926 0.43852 0.0
N680 N 0.11821 0.21562 0.38208 0.0
C681 C 0.13707 0.16944 0.39797 0.0
C682 C 0.10206 0.13311 0.42951 0.0
C683 C 0.16391 0.93804 0.63117 0.0
C684 C 0.11932 0.91556 0.61209 0.0
C685 C 0.20178 0.9098 0.66291 0.0
C686 C 0.19624 0.85805 0.67909 0.0
H687 H 0.16995 0.97785 0.62096 0.0
H688 H 0.23553 0.92884 0.67582 0.0
S689 S 0.08697 0.78077 0.6416 0.0
N690 N 0.07212 0.83784 0.61251 0.0
N691 N 0.14327 0.78518 0.67168 0.0
C692 C 0.15224 0.83491 0.65978 0.0
C693 C 0.11381 0.86352 0.62667 0.0
C694 C 0.39104 0.85538 0.88141 0.0
C695 C 0.34459 0.87115 0.85802 0.0
C696 C 0.419 0.88661 0.9194 0.0
C697 C 0.40283 0.93548 0.93388 0.0
H698 H 0.40534 0.81796 0.87232 0.0
H699 H 0.45384 0.872 0.93767 0.0
S700 S 0.2832 0.99467 0.88453 0.0
N701 N 0.28279 0.93866 0.85194 0.0
N702 N 0.33646 0.99776 0.92337 0.0
C703 C 0.35659 0.95211 0.91028 0.0
C704 C 0.32727 0.91979 0.87231 0.0
C705 C 0.43262 0.11532 0.16547 0.0
C706 C 0.4085 0.0781 0.13001 0.0
C707 C 0.40505 0.15081 0.20362 0.0
C708 C 0.35219 0.1501 0.20924 0.0
H709 H 0.47309 0.117 0.16388 0.0
H710 H 0.4253 0.1794 0.22813 0.0
S711 S 0.27179 0.05683 0.13025 0.0
N712 N 0.32916 0.04144 0.10567 0.0
N713 N 0.27782 0.1054 0.17776 0.0
C714 C 0.3282 0.11173 0.1753 0.0
C715 C 0.35614 0.07645 0.13611 0.0
C716 C 0.91269 0.88528 0.63407 0.0
C717 C 0.89779 0.9352 0.61513 0.0
C718 C 0.87901 0.85052 0.66923 0.0
C719 C 0.82911 0.86433 0.6876 0.0
H720 H 0.9505 0.87302 0.62198 0.0
H721 H 0.89179 0.81251 0.68073 0.0
S722 S 0.77204 0.99017 0.65212 0.0
N723 N 0.8292 0.99527 0.61914 0.0
N724 N 0.76825 0.93227 0.68462 0.0
C725 C 0.8148 0.91414 0.66957 0.0
C726 C 0.84827 0.94871 0.63387 0.0
C727 C 0.89841 0.15322 0.43937 0.0
C728 C 0.8959 0.10008 0.44351 0.0
C729 C 0.86158 0.18291 0.40657 0.0
C730 C 0.82073 0.16106 0.37631 0.0
H731 H 0.92894 0.17212 0.46181 0.0
H732 H 0.86376 0.22326 0.40754 0.0
S733 S 0.79416 0.02459 0.37554 0.0
N734 N 0.84718 0.02762 0.41479 0.0
N735 N 0.77847 0.08337 0.35613 0.0
C736 C 0.81711 0.1084 0.38154 0.0
C737 C 0.85467 0.07807 0.41369 0.0
C738 C 0.67708 0.15024 0.13104 0.0
C739 C 0.67781 0.14657 0.20089 0.0
C740 C 0.65043 0.11574 0.09627 0.0
C741 C 0.62214 0.07802 0.13039 0.0
H742 H 0.69608 0.18067 0.10315 0.0
H743 H 0.65119 0.11923 0.04245 0.0
S744 S 0.62539 0.04412 0.31164 0.0
N745 N 0.6593 0.09565 0.3018 0.0
N746 N 0.60554 0.03238 0.23675 0.0
C747 C 0.62701 0.07087 0.19978 0.0
C748 C 0.65538 0.10532 0.23512 0.0
C749 C 0.68596 0.90559 0.90779 0.0
C750 C 0.66281 0.87252 0.86469 0.0
C751 C 0.65843 0.94108 0.94504 0.0
C752 C 0.60604 0.94477 0.94282 0.0
H753 H 0.72608 0.90479 0.91266 0.0
H754 H 0.67845 0.96598 0.97598 0.0
S755 S 0.52805 0.87613 0.82937 0.0
N756 N 0.58419 0.85151 0.81675 0.0
N757 N 0.53332 0.91829 0.88644 0.0
C758 C 0.58266 0.9139 0.89827 0.0
C759 C 0.61063 0.87783 0.85972 0.0
C760 C 0.59377 0.6363 0.9244 0.0
C761 C 0.60872 0.58661 0.944 0.0
C762 C 0.62826 0.67153 0.89216 0.0
C763 C 0.67893 0.65831 0.87789 0.0
H764 H 0.55526 0.64782 0.93313 0.0
H765 H 0.61543 0.70932 0.8795 0.0
S766 S 0.73635 0.53323 0.91736 0.0
N767 N 0.67788 0.5272 0.94521 0.0
N768 N 0.74074 0.59131 0.88566 0.0
C769 C 0.69335 0.60874 0.89687 0.0
C770 C 0.65897 0.57364 0.92926 0.0
C771 C 0.6465 0.3368 0.16281 0.0
C772 C 0.68852 0.35837 0.19073 0.0
C773 C 0.61061 0.36698 0.12919 0.0
C774 C 0.6154 0.41985 0.12175 0.0
H775 H 0.64158 0.29638 0.16632 0.0
H776 H 0.57852 0.34882 0.10961 0.0
S777 S 0.72092 0.4938 0.18232 0.0
N778 N 0.73422 0.43511 0.20559 0.0
N779 N 0.66751 0.49149 0.14385 0.0
C780 C 0.65794 0.44137 0.14865 0.0
C781 C 0.69437 0.41072 0.1822 0.0
C782 C 0.85135 0.44346 0.42329 0.0
C783 C 0.89993 0.42874 0.44081 0.0
C784 C 0.82063 0.41052 0.39003 0.0
C785 C 0.83831 0.36268 0.37224 0.0
H786 H 0.83671 0.47991 0.43664 0.0
H787 H 0.78323 0.42268 0.3777 0.0
S788 S 0.96342 0.30781 0.40469 0.0
N789 N 0.96404 0.36379 0.43637 0.0
N790 N 0.90753 0.30314 0.37415 0.0
C791 C 0.88702 0.34843 0.38864 0.0
C792 C 0.91755 0.38119 0.42282 0.0
C793 C 0.8259 0.60827 0.68376 0.0
C794 C 0.8495 0.65004 0.71025 0.0
C795 C 0.85285 0.57206 0.64759 0.0
C796 C 0.90468 0.57612 0.63457 0.0
H797 H 0.7859 0.60334 0.69071 0.0
H798 H 0.83267 0.54082 0.62864 0.0
S799 S 0.98598 0.67514 0.69607 0.0
N800 N 0.92919 0.6913 0.72295 0.0
N801 N 0.97952 0.62288 0.65582 0.0
C802 C 0.92929 0.61646 0.66244 0.0
C803 C 0.90185 0.65345 0.69977 0.0
C804 C 0.38531 0.35363 0.18115 0.0
C805 C 0.33582 0.36735 0.2014 0.0
C806 C 0.41899 0.3893 0.14816 0.0
C807 C 0.40435 0.43995 0.13362 0.0
H808 H 0.39775 0.31514 0.18961 0.0
H809 H 0.4566 0.37729 0.13452 0.0
S810 S 0.27934 0.49456 0.17578 0.0
N811 N 0.27529 0.43558 0.20408 0.0
N812 N 0.3364 0.50047 0.14268 0.0
C813 C 0.35512 0.45325 0.15379 0.0
C814 C 0.32163 0.41773 0.18716 0.0
C815 C 0.40346 0.6579 0.93768 0.0
C816 C 0.39783 0.60548 0.95023 0.0
C817 C 0.36806 0.68667 0.90095 0.0
C818 C 0.32565 0.66416 0.87502 0.0
H819 H 0.43564 0.67683 0.9559 0.0
H820 H 0.37346 0.72686 0.89388 0.0
S821 S 0.29135 0.52955 0.89611 0.0
N822 N 0.34471 0.53331 0.93438 0.0
N823 N 0.27898 0.58717 0.86732 0.0
C824 C 0.31922 0.61232 0.88824 0.0
C825 C 0.35511 0.58306 0.92484 0.0
C826 C 0.16849 0.66141 0.62832 0.0
C827 C 0.17154 0.65651 0.69811 0.0
C828 C 0.14028 0.62793 0.59363 0.0
C829 C 0.11364 0.58878 0.62726 0.0
H830 H 0.18761 0.69174 0.60031 0.0
H831 H 0.13983 0.63246 0.54005 0.0
S832 S 0.11924 0.55377 0.80863 0.0
N833 N 0.15297 0.60539 0.79865 0.0
N834 N 0.09901 0.54249 0.73386 0.0
C835 C 0.11957 0.58136 0.69673 0.0
C836 C 0.14843 0.61558 0.73213 0.0
C837 C 0.11435 0.36876 0.37995 0.0
C838 C 0.16706 0.37236 0.37449 0.0
C839 C 0.08461 0.40502 0.41356 0.0
C840 C 0.1057 0.44625 0.44407 0.0
H841 H 0.09575 0.33777 0.35797 0.0
H842 H 0.04469 0.40198 0.41352 0.0
S843 S 0.24085 0.47637 0.44077 0.0
N844 N 0.23834 0.42352 0.40079 0.0
N845 N 0.18246 0.49024 0.46257 0.0
C846 C 0.15794 0.45108 0.43743 0.0
C847 C 0.18842 0.41443 0.40368 0.0
C848 C 0.01113 0.97693 0.97901 0.0
C849 C 0.97674 0.0162 0.96592 0.0
C850 C 0.03298 0.97092 0.04083 0.0
C851 C 0.02158 1.00417 0.09164 0.0
H852 H 0.02185 0.95073 0.94118 0.0
H853 H 0.05866 0.93973 0.04902 0.0
S854 S 0.93573 0.11445 0.08176 0.0
N855 N 0.93362 0.08978 1.00786 0.0
N856 N 0.97472 0.07854 0.12479 0.0
C857 C 0.98744 0.04377 0.07933 0.0
C858 C 0.96502 0.04977 1.01629 0.0
C859 C 0.31368 0.77878 0.28403 0.0
C860 C 0.30058 0.74401 0.33663 0.0
C861 C 0.28497 0.78404 0.22648 0.0
C862 C 0.24219 0.75442 0.21889 0.0
H863 H 0.34574 0.80295 0.28811 0.0
H864 H 0.29569 0.81247 0.18847 0.0
S865 S 0.19721 0.65199 0.33746 0.0
N866 N 0.24506 0.67621 0.37458 0.0
N867 N 0.19205 0.68482 0.26618 0.0
C868 C 0.23024 0.71785 0.26996 0.0
C869 C 0.25912 0.71298 0.32876 0.0
C870 C 0.52469 0.06914 0.54047 0.0
C871 C 0.49861 0.04473 0.59493 0.0
C872 C 0.53521 0.04462 0.4804 0.0
C873 C 0.51938 0.99504 0.47195 0.0
H874 H 0.53777 0.10726 0.54477 0.0
H875 H 0.55681 0.06413 0.44087 0.0
S876 S 0.4461 0.91626 0.59612 0.0
N877 N 0.45509 0.96897 0.63461 0.0
N878 N 0.47437 0.92339 0.52175 0.0
C879 C 0.49256 0.97065 0.52536 0.0
C880 C 0.48226 0.99534 0.5867 0.0
C881 C 0.29185 0.24586 0.84027 0.0
C882 C 0.24123 0.25578 0.85654 0.0
C883 C 0.31327 0.26211 0.77825 0.0
C884 C 0.28462 0.28864 0.7308 0.0
H885 H 0.31467 0.22454 0.87517 0.0
H886 H 0.35213 0.25308 0.76683 0.0
S887 S 0.15318 0.33107 0.75393 0.0
N888 N 0.1647 0.29807 0.82349 0.0
N889 N 0.20507 0.32879 0.70696 0.0
C890 C 0.23465 0.30043 0.74763 0.0
C891 C 0.21287 0.28391 0.81058 0.0
C892 C 0.74706 0.28961 0.83216 0.0
C893 C 0.77226 0.24358 0.84423 0.0
C894 C 0.71915 0.2984 0.77449 0.0
C895 C 0.71535 0.26155 0.72642 0.0
H896 H 0.7498 0.31951 0.86689 0.0
H897 H 0.70121 0.33473 0.76683 0.0
S898 S 0.76773 0.13202 0.73944 0.0
N899 N 0.7873 0.15898 0.80647 0.0
N900 N 0.73511 0.17549 0.69837 0.0
C901 C 0.73895 0.21478 0.73904 0.0
C902 C 0.76729 0.20582 0.79776 0.0
C903 C 0.70819 0.76229 0.30245 0.0
C904 C 0.73677 0.73271 0.34688 0.0
C905 C 0.72871 0.77964 0.24029 0.0
C906 C 0.77838 0.76784 0.22085 0.0
H907 H 0.67007 0.77263 0.31629 0.0
H908 H 0.70597 0.80322 0.20779 0.0
S909 S 0.86525 0.68456 0.3149 0.0
N910 N 0.81483 0.68793 0.36454 0.0
N911 N 0.85352 0.72043 0.24783 0.0
C912 C 0.8065 0.73668 0.26388 0.0
C913 C 0.78563 0.71911 0.32693 0.0
C914 C 0.48075 0.53169 0.5869 0.0
C915 C 0.50548 0.48578 0.60127 0.0
C916 C 0.48917 0.55814 0.52565 0.0
C917 C 0.52248 0.5395 0.47666 0.0
H918 H 0.45405 0.54685 0.62282 0.0
H919 H 0.46884 0.59296 0.51613 0.0
S920 S 0.60094 0.42438 0.49309 0.0
N921 N 0.56755 0.42503 0.56393 0.0
N922 N 0.58333 0.47473 0.44866 0.0
C923 C 0.5484 0.4944 0.49114 0.0
C924 C 0.53989 0.46752 0.55347 0.0
C925 C 0.00841 0.54458 0.971 0.0
C926 C 0.96588 0.51458 0.96566 0.0
C927 C 0.02692 0.55548 1.03352 0.0
C928 C 1.00417 0.53623 0.09391 0.0
H929 H 0.02751 0.55981 0.92626 0.0
H930 H 0.05964 0.57912 1.03431 0.0
S931 S 0.89045 0.45645 0.10724 0.0
N932 N 0.90063 0.46654 1.02619 0.0
N933 N 0.93541 0.48623 0.14334 0.0
C934 C 0.96079 0.50694 0.08918 0.0
C935 C 0.94179 0.4962 1.02535 0.0
loop_
_geom_bond_atom_site_label_1
_geom_bond_atom_site_label_2
_geom_bond_distance
_geom_bond_site_symmetry_2
_ccdc_geom_bond_type
Tb0 N31 2.650 1_455 S
Tb0 N38 2.600 1_455 S
Tb0 O44 2.551 . S
Tb0 O45 2.613 1_565 S
Tb0 O47 2.312 1_465 S
Tb0 O48 2.559 1_565 S
Tb0 O49 2.411 1_455 S
Tb0 O51 2.358 1_455 S
Tb0 O52 2.429 . S
Tb0 C64 2.835 . S
C1 C4 1.432 . S
C1 C5 1.414 . S
C1 N8 1.359 . S
C2 C4 1.417 . S
C2 C6 1.432 . S
C2 C14 1.410 . S
C3 C5 1.444 . S
C3 C6 1.317 . S
C3 H26 0.929 . S
C4 C1 1.432 . S
C4 C2 1.417 . S
C4 N12 1.360 . S
C5 C1 1.414 . S
C5 C3 1.444 . S
C5 C10 1.385 . S
C6 C2 1.432 . S
C6 C3 1.317 . S
C6 H18 0.930 . S
C7 C9 1.392 . S
C7 C10 1.370 1_655 S
C7 H19 0.931 . S
N8 C1 1.359 . S
N8 C9 1.327 1_455 S
N8 Tb11 2.600 1_455 S
C9 C7 1.392 . S
C9 N8 1.327 1_655 S
C9 H16 0.930 . S
C10 C5 1.385 . S
C10 C7 1.370 1_455 S
C10 H29 0.930 . S
Tb11 N8 2.600 1_655 S
Tb11 N12 2.655 1_655 S
Tb11 O45 2.360 1_655 S
Tb11 O46 2.425 . S
Tb11 O50 2.548 . S
Tb11 O51 2.611 1_545 S
Tb11 O53 2.316 1_645 S
Tb11 O54 2.556 1_545 S
Tb11 O55 2.412 1_655 S
Tb11 C75 2.834 . S
N12 C4 1.360 . S
N12 Tb11 2.655 1_455 S
N12 C13 1.305 . S
C13 N12 1.305 . S
C13 C15 1.407 . S
C13 H20 0.930 . S
C14 C2 1.410 . S
C14 C15 1.345 . S
C14 H22 0.930 . S
C15 C13 1.407 . S
C15 C14 1.345 . S
C15 H17 0.930 . S
H16 C9 0.930 . S
H17 C15 0.930 . S
H18 C6 0.930 . S
H19 C7 0.931 . S
H20 C13 0.930 . S
H21 C35 0.930 . S
H22 C14 0.930 . S
H23 C41 0.930 . S
H24 C32 0.930 . S
H25 C39 0.931 . S
H26 C3 0.929 . S
H27 C33 0.930 . S
H28 C66 0.930 . S
H29 C10 0.930 . S
H30 C65 0.929 . S
N31 Tb0 2.650 1_655 S
N31 C32 1.305 . S
N31 C36 1.360 . S
C32 H24 0.930 . S
C32 N31 1.305 . S
C32 C35 1.407 . S
C33 H27 0.930 . S
C33 C34 1.410 . S
C33 C35 1.345 . S
C34 C33 1.410 . S
C34 C36 1.417 . S
C34 C66 1.432 . S
C35 H21 0.930 . S
C35 C32 1.407 . S
C35 C33 1.345 . S
C36 N31 1.360 . S
C36 C34 1.417 . S
C36 C40 1.432 . S
H37 C42 0.929 . S
N38 Tb0 2.600 1_655 S
N38 C40 1.359 . S
N38 C41 1.327 1_655 S
C39 H25 0.931 . S
C39 C41 1.392 . S
C39 C42 1.349 1_455 S
C40 C36 1.432 . S
C40 N38 1.359 . S
C40 C43 1.414 . S
C41 H23 0.930 . S
C41 N38 1.327 1_455 S
C41 C39 1.392 . S
C42 H37 0.929 . S
C42 C39 1.349 1_655 S
C42 C43 1.406 . S
C43 C40 1.414 . S
C43 C42 1.406 . S
C43 C65 1.444 . S
O44 Tb0 2.551 . S
O44 C64 1.251 . S
O45 Tb0 2.613 1_545 S
O45 Tb11 2.360 1_455 S
O45 C56 1.283 . S
O46 Tb11 2.425 . S
O46 C63 1.262 . S
O47 Tb0 2.312 1_645 S
O47 C63 1.260 . S
O48 Tb0 2.559 1_545 S
O48 C56 1.243 . S
O49 Tb0 2.411 1_655 S
O49 C64 1.256 1_655 S
O50 Tb11 2.548 . S
O50 C75 1.251 . S
O51 Tb0 2.358 1_655 S
O51 Tb11 2.611 1_565 S
O51 C67 1.283 . S
O52 Tb0 2.429 . S
O52 C74 1.262 . S
O53 Tb11 2.316 1_465 S
O53 C74 1.260 . S
O54 Tb11 2.556 1_565 S
O54 C67 1.243 . S
O55 Tb11 2.412 1_455 S
O55 C75 1.256 1_455 S
C56 O45 1.283 . S
C56 O48 1.243 . S
C57 C59 1.382 . S
C57 C61 1.393 . S
C57 C64 1.500 . S
C58 C59 1.400 . S
C58 C60 1.384 . S
C59 C57 1.382 . S
C59 C58 1.400 . S
C59 H76 0.930 1_455 S
C60 C58 1.384 . S
C60 C62 1.392 . S
C60 H77 0.931 . S
C61 C57 1.393 . S
C61 C62 1.401 . S
C61 H78 0.930 . S
C62 C60 1.392 . S
C62 C61 1.401 . S
C62 H79 0.930 . S
C63 O46 1.262 . S
C63 O47 1.260 . S
C64 Tb0 2.835 . S
C64 O44 1.251 . S
C64 O49 1.256 1_455 S
C64 C57 1.500 . S
C65 H30 0.929 . S
C65 C43 1.444 . S
C65 C66 1.317 . S
C66 H28 0.930 . S
C66 C34 1.432 . S
C66 C65 1.317 . S
C67 O51 1.283 . S
C67 O54 1.243 . S
C68 C69 1.382 . S
C68 C72 1.393 . S
C68 C75 1.500 . S
C69 C68 1.382 . S
C69 C70 1.400 . S
C69 H80 0.930 1_655 S
C70 C69 1.400 . S
C70 C71 1.384 . S
C71 C70 1.384 . S
C71 C73 1.392 . S
C71 H81 0.931 . S
C72 C68 1.393 . S
C72 C73 1.401 . S
C72 H82 0.930 . S
C73 C71 1.392 . S
C73 C72 1.401 . S
C73 H83 0.930 . S
C74 O52 1.262 . S
C74 O53 1.260 . S
C75 Tb11 2.834 . S
C75 O50 1.251 . S
C75 O55 1.256 1_655 S
C75 C68 1.500 . S
H76 C59 0.930 1_655 S
H77 C60 0.931 . S
H78 C61 0.930 . S
H79 C62 0.930 . S
H80 C69 0.930 1_455 S
H81 C71 0.931 . S
H82 C72 0.930 . S
H83 C73 0.930 . S
Tb84 N115 2.660 . S
Tb84 N122 2.600 . S
Tb84 O128 2.546 . S
Tb84 O129 2.610 . S
Tb84 O131 2.320 . S
Tb84 O132 2.552 . S
Tb84 O133 2.413 . S
Tb84 O135 2.362 . S
Tb84 O136 2.421 . S
Tb84 C148 2.833 . S
C85 C88 1.432 . S
C85 C89 1.414 . S
C85 N92 1.359 . S
C86 C88 1.417 . S
C86 C90 1.432 . S
C86 C98 1.410 . S
C87 C89 1.444 . S
C87 C90 1.317 . S
C87 H110 0.929 1_455 S
C88 C85 1.432 . S
C88 C86 1.417 . S
C88 N96 1.360 . S
C89 C85 1.414 . S
C89 C87 1.444 . S
C89 C94 1.385 . S
C90 C86 1.432 . S
C90 C87 1.317 . S
C90 H102 0.930 . S
C91 C93 1.392 . S
C91 C94 1.370 . S
C91 H103 0.931 . S
N92 C85 1.359 . S
N92 C93 1.327 . S
N92 Tb95 2.600 . S
C93 C91 1.392 . S
C93 N92 1.327 . S
C93 H100 0.930 . S
C94 C89 1.385 . S
C94 C91 1.370 . S
C94 H113 0.930 1_455 S
Tb95 N92 2.600 . S
Tb95 N96 2.660 . S
Tb95 O129 2.362 . S
Tb95 O130 2.421 . S
Tb95 O134 2.546 . S
Tb95 O135 2.610 . S
Tb95 O137 2.320 . S
Tb95 O138 2.552 . S
Tb95 O139 2.413 . S
Tb95 C159 2.833 . S
N96 C88 1.360 . S
N96 Tb95 2.660 . S
N96 C97 1.305 . S
C97 N96 1.305 . S
C97 C99 1.407 . S
C97 H104 0.930 . S
C98 C86 1.410 . S
C98 C99 1.345 . S
C98 H106 0.930 . S
C99 C97 1.407 . S
C99 C98 1.345 . S
C99 H101 0.930 . S
H100 C93 0.930 . S
H101 C99 0.930 . S
H102 C90 0.930 . S
H103 C91 0.931 . S
H104 C97 0.930 . S
H105 C119 0.930 . S
H106 C98 0.930 . S
H107 C125 0.930 . S
H108 C116 0.930 . S
H109 C123 0.931 . S
H110 C87 0.929 1_655 S
H111 C117 0.930 . S
H112 C150 0.930 . S
H113 C94 0.930 1_655 S
H114 C149 0.929 . S
N115 Tb84 2.660 . S
N115 C116 1.305 . S
N115 C120 1.360 . S
C116 H108 0.930 . S
C116 N115 1.305 . S
C116 C119 1.407 . S
C117 H111 0.930 . S
C117 C118 1.410 . S
C117 C119 1.345 . S
C118 C117 1.410 . S
C118 C120 1.417 . S
C118 C150 1.432 . S
C119 H105 0.930 . S
C119 C116 1.407 . S
C119 C117 1.345 . S
C120 N115 1.360 . S
C120 C118 1.417 . S
C120 C124 1.432 . S
H121 C126 0.930 . S
N122 Tb84 2.600 . S
N122 C124 1.359 . S
N122 C125 1.327 . S
C123 H109 0.931 . S
C123 C125 1.392 . S
C123 C126 1.370 . S
C124 C120 1.432 . S
C124 N122 1.359 . S
C124 C127 1.414 . S
C125 H107 0.930 . S
C125 N122 1.327 . S
C125 C123 1.392 . S
C126 H121 0.930 . S
C126 C123 1.370 . S
C126 C127 1.385 . S
C127 C124 1.414 . S
C127 C126 1.385 . S
C127 C149 1.444 . S
O128 Tb84 2.546 . S
O128 C148 1.251 . S
O129 Tb84 2.610 . S
O129 Tb95 2.362 . S
O129 C140 1.283 . S
O130 Tb95 2.421 . S
O130 C147 1.262 . S
O131 Tb84 2.320 . S
O131 C147 1.260 . S
O132 Tb84 2.552 . S
O132 C140 1.243 . S
O133 Tb84 2.413 . S
O133 C148 1.256 . S
O134 Tb95 2.546 . S
O134 C159 1.251 . S
O135 Tb84 2.362 . S
O135 Tb95 2.610 . S
O135 C151 1.283 . S
O136 Tb84 2.421 . S
O136 C158 1.262 . S
O137 Tb95 2.320 . S
O137 C158 1.260 . S
O138 Tb95 2.552 . S
O138 C151 1.243 . S
O139 Tb95 2.413 . S
O139 C159 1.256 . S
C140 O129 1.283 . S
C140 O132 1.243 . S
C141 C143 1.382 . S
C141 C145 1.393 . S
C141 C148 1.500 . S
C142 C143 1.400 . S
C142 C144 1.384 . S
C143 C141 1.382 . S
C143 C142 1.400 . S
C143 H160 0.930 . S
C144 C142 1.384 . S
C144 C146 1.392 . S
C144 H161 0.931 . S
C145 C141 1.393 . S
C145 C146 1.401 . S
C145 H162 0.930 . S
C146 C144 1.392 . S
C146 C145 1.401 . S
C146 H163 0.930 . S
C147 O130 1.262 . S
C147 O131 1.260 . S
C148 Tb84 2.833 . S
C148 O128 1.251 . S
C148 O133 1.256 . S
C148 C141 1.500 . S
C149 H114 0.929 . S
C149 C127 1.444 . S
C149 C150 1.317 . S
C150 H112 0.930 . S
C150 C118 1.432 . S
C150 C149 1.317 . S
C151 O135 1.283 . S
C151 O138 1.243 . S
C152 C153 1.382 . S
C152 C156 1.393 . S
C152 C159 1.500 1_554 S
C153 C152 1.382 . S
C153 C154 1.400 . S
C153 H164 0.930 . S
C154 C153 1.400 . S
C154 C155 1.384 . S
C155 C154 1.384 . S
C155 C157 1.392 . S
C155 H165 0.931 . S
C156 C152 1.393 . S
C156 C157 1.401 . S
C156 H166 0.930 . S
C157 C155 1.392 . S
C157 C156 1.401 . S
C157 H167 0.930 . S
C158 O136 1.262 . S
C158 O137 1.260 . S
C159 Tb95 2.833 . S
C159 O134 1.251 . S
C159 O139 1.256 . S
C159 C152 1.500 1_556 S
H160 C143 0.930 . S
H161 C144 0.931 . S
H162 C145 0.930 . S
H163 C146 0.930 . S
H164 C153 0.930 . S
H165 C155 0.931 . S
H166 C156 0.930 . S
H167 C157 0.930 . S
Tb168 N199 2.660 . S
Tb168 N206 2.600 . S
Tb168 O212 2.546 . S
Tb168 O213 2.610 1_565 S
Tb168 O215 2.320 1_565 S
Tb168 O216 2.552 1_565 S
Tb168 O217 2.413 . S
Tb168 O219 2.362 1_554 S
Tb168 O220 2.421 . S
Tb168 C232 2.833 . S
C169 C172 1.432 . S
C169 C173 1.414 . S
C169 N176 1.359 . S
C170 C172 1.417 . S
C170 C174 1.432 . S
C170 C182 1.410 . S
C171 C173 1.444 . S
C171 C174 1.317 . S
C171 H194 0.929 . S
C172 C169 1.432 . S
C172 C170 1.417 . S
C172 N180 1.360 . S
C173 C169 1.414 . S
C173 C171 1.444 . S
C173 C178 1.385 . S
C174 C170 1.432 . S
C174 C171 1.317 . S
C174 H186 0.930 . S
C175 C177 1.392 . S
C175 C178 1.370 . S
C175 H187 0.931 . S
N176 C169 1.359 . S
N176 C177 1.327 . S
N176 Tb179 2.600 . S
C177 C175 1.392 . S
C177 N176 1.327 . S
C177 H184 0.930 . S
C178 C173 1.385 . S
C178 C175 1.370 . S
C178 H197 0.930 . S
Tb179 N176 2.600 . S
Tb179 N180 2.660 . S
Tb179 O213 2.362 1_556 S
Tb179 O214 2.421 . S
Tb179 O218 2.546 . S
Tb179 O219 2.610 1_545 S
Tb179 O221 2.320 1_545 S
Tb179 O222 2.552 1_545 S
Tb179 O223 2.413 . S
Tb179 C243 2.833 . S
N180 C172 1.360 . S
N180 Tb179 2.660 . S
N180 C181 1.305 . S
C181 N180 1.305 . S
C181 C183 1.407 . S
C181 H188 0.930 . S
C182 C170 1.410 . S
C182 C183 1.345 . S
C182 H190 0.930 . S
C183 C181 1.407 . S
C183 C182 1.345 . S
C183 H185 0.930 . S
H184 C177 0.930 . S
H185 C183 0.930 . S
H186 C174 0.930 . S
H187 C175 0.931 . S
H188 C181 0.930 . S
H189 C203 0.930 . S
H190 C182 0.930 . S
H191 C209 0.930 . S
H192 C200 0.930 . S
H193 C207 0.931 . S
H194 C171 0.929 . S
H195 C201 0.930 . S
H196 C234 0.930 . S
H197 C178 0.930 . S
H198 C233 0.929 . S
N199 Tb168 2.660 . S
N199 C200 1.305 . S
N199 C204 1.360 . S
C200 H192 0.930 . S
C200 N199 1.305 . S
C200 C203 1.407 . S
C201 H195 0.930 . S
C201 C202 1.410 . S
C201 C203 1.345 . S
C202 C201 1.410 . S
C202 C204 1.417 . S
C202 C234 1.432 . S
C203 H189 0.930 . S
C203 C200 1.407 . S
C203 C201 1.345 . S
C204 N199 1.360 . S
C204 C202 1.417 . S
C204 C208 1.432 . S
H205 C210 0.930 . S
N206 Tb168 2.600 . S
N206 C208 1.359 . S
N206 C209 1.327 . S
C207 H193 0.931 . S
C207 C209 1.392 . S
C207 C210 1.370 . S
C208 C204 1.432 . S
C208 N206 1.359 . S
C208 C211 1.414 . S
C209 H191 0.930 . S
C209 N206 1.327 . S
C209 C207 1.392 . S
C210 H205 0.930 . S
C210 C207 1.370 . S
C210 C211 1.385 . S
C211 C208 1.414 . S
C211 C210 1.385 . S
C211 C233 1.444 . S
O212 Tb168 2.546 . S
O212 C232 1.251 . S
O213 Tb168 2.610 1_545 S
O213 Tb179 2.362 1_554 S
O213 C224 1.283 . S
O214 Tb179 2.421 . S
O214 C231 1.262 1_556 S
O215 Tb168 2.320 1_545 S
O215 C231 1.260 . S
O216 Tb168 2.552 1_545 S
O216 C224 1.243 . S
O217 Tb168 2.413 . S
O217 C232 1.256 . S
O218 Tb179 2.546 . S
O218 C243 1.251 . S
O219 Tb168 2.362 1_556 S
O219 Tb179 2.610 1_565 S
O219 C235 1.283 . S
O220 Tb168 2.421 . S
O220 C242 1.262 1_554 S
O221 Tb179 2.320 1_565 S
O221 C242 1.260 . S
O222 Tb179 2.552 1_565 S
O222 C235 1.243 . S
O223 Tb179 2.413 . S
O223 C243 1.256 . S
C224 O213 1.283 . S
C224 O216 1.243 . S
C225 C227 1.382 . S
C225 C229 1.393 . S
C225 C232 1.500 . S
C226 C227 1.400 . S
C226 C228 1.384 . S
C227 C225 1.382 . S
C227 C226 1.400 . S
C227 H244 0.931 1_565 S
C228 C226 1.384 . S
C228 C230 1.392 . S
C228 H245 0.931 . S
C229 C225 1.393 . S
C229 C230 1.401 . S
C229 H246 0.930 . S
C230 C228 1.392 . S
C230 C229 1.401 . S
C230 H247 0.930 . S
C231 O214 1.262 1_554 S
C231 O215 1.260 . S
C232 Tb168 2.833 . S
C232 O212 1.251 . S
C232 O217 1.256 . S
C232 C225 1.500 . S
C233 H198 0.929 . S
C233 C211 1.444 . S
C233 C234 1.317 . S
C234 H196 0.930 . S
C234 C202 1.432 . S
C234 C233 1.317 . S
C235 O219 1.283 . S
C235 O222 1.243 . S
C236 C237 1.382 . S
C236 C240 1.393 . S
C236 C243 1.500 . S
C237 C236 1.382 . S
C237 C238 1.400 . S
C237 H248 0.931 . S
C238 C237 1.400 . S
C238 C239 1.384 . S
C239 C238 1.384 . S
C239 C241 1.392 . S
C239 H249 0.931 . S
C240 C236 1.393 . S
C240 C241 1.401 . S
C240 H250 0.930 . S
C241 C239 1.392 . S
C241 C240 1.401 . S
C241 H251 0.930 . S
C242 O220 1.262 1_556 S
C242 O221 1.260 . S
C243 Tb179 2.833 . S
C243 O218 1.251 . S
C243 O223 1.256 . S
C243 C236 1.500 . S
H244 C227 0.931 1_545 S
H245 C228 0.931 . S
H246 C229 0.930 . S
H247 C230 0.930 . S
H248 C237 0.931 . S
H249 C239 0.931 . S
H250 C240 0.930 . S
H251 C241 0.930 . S
Tb252 N283 2.660 . S
Tb252 N290 2.600 . S
Tb252 O296 2.546 . S
Tb252 O297 2.610 . S
Tb252 O299 2.320 . S
Tb252 O300 2.552 . S
Tb252 O301 2.413 . S
Tb252 O303 2.362 . S
Tb252 O304 2.421 . S
Tb252 C316 2.833 . S
C253 C256 1.432 . S
C253 C257 1.414 . S
C253 N260 1.359 . S
C254 C256 1.417 . S
C254 C258 1.432 . S
C254 C266 1.410 . S
C255 C257 1.444 . S
C255 C258 1.317 . S
C255 H278 0.929 1_455 S
C256 C253 1.432 . S
C256 C254 1.417 . S
C256 N264 1.360 . S
C257 C253 1.414 . S
C257 C255 1.444 . S
C257 C262 1.385 . S
C258 C254 1.432 . S
C258 C255 1.317 . S
C258 H270 0.930 . S
C259 C261 1.392 . S
C259 C262 1.370 . S
C259 H271 0.931 . S
N260 C253 1.359 . S
N260 C261 1.327 . S
N260 Tb263 2.600 . S
C261 C259 1.392 . S
C261 N260 1.327 . S
C261 H268 0.930 . S
C262 C257 1.385 . S
C262 C259 1.370 . S
C262 H281 0.930 1_455 S
Tb263 N260 2.600 . S
Tb263 N264 2.660 . S
Tb263 O297 2.362 . S
Tb263 O298 2.421 . S
Tb263 O302 2.546 . S
Tb263 O303 2.610 . S
Tb263 O305 2.320 . S
Tb263 O306 2.552 . S
Tb263 O307 2.413 . S
Tb263 C327 2.833 . S
N264 C256 1.360 . S
N264 Tb263 2.660 . S
N264 C265 1.305 . S
C265 N264 1.305 . S
C265 C267 1.407 . S
C265 H272 0.930 . S
C266 C254 1.410 . S
C266 C267 1.345 . S
C266 H274 0.930 . S
C267 C265 1.407 . S
C267 C266 1.345 . S
C267 H269 0.930 . S
H268 C261 0.930 . S
H269 C267 0.930 . S
H270 C258 0.930 . S
H271 C259 0.931 . S
H272 C265 0.930 . S
H273 C287 0.930 . S
H274 C266 0.930 . S
H275 C293 0.930 . S
H276 C284 0.930 . S
H277 C291 0.931 . S
H278 C255 0.929 1_655 S
H279 C285 0.930 . S
H280 C318 0.930 . S
H281 C262 0.930 1_655 S
H282 C317 0.929 . S
N283 Tb252 2.660 . S
N283 C284 1.305 . S
N283 C288 1.360 . S
C284 H276 0.930 . S
C284 N283 1.305 . S
C284 C287 1.407 . S
C285 H279 0.930 . S
C285 C286 1.410 . S
C285 C287 1.345 . S
C286 C285 1.410 . S
C286 C288 1.417 . S
C286 C318 1.432 . S
C287 H273 0.930 . S
C287 C284 1.407 . S
C287 C285 1.345 . S
C288 N283 1.360 . S
C288 C286 1.417 . S
C288 C292 1.432 . S
H289 C294 0.930 . S
N290 Tb252 2.600 . S
N290 C292 1.359 . S
N290 C293 1.327 . S
C291 H277 0.931 . S
C291 C293 1.392 . S
C291 C294 1.370 . S
C292 C288 1.432 . S
C292 N290 1.359 . S
C292 C295 1.414 . S
C293 H275 0.930 . S
C293 N290 1.327 . S
C293 C291 1.392 . S
C294 H289 0.930 . S
C294 C291 1.370 . S
C294 C295 1.385 . S
C295 C292 1.414 . S
C295 C294 1.385 . S
C295 C317 1.444 . S
O296 Tb252 2.546 . S
O296 C316 1.251 . S
O297 Tb252 2.610 . S
O297 Tb263 2.362 . S
O297 C308 1.283 . S
O298 Tb263 2.421 . S
O298 C315 1.262 . S
O299 Tb252 2.320 . S
O299 C315 1.260 . S
O300 Tb252 2.552 . S
O300 C308 1.243 . S
O301 Tb252 2.413 . S
O301 C316 1.256 . S
O302 Tb263 2.546 . S
O302 C327 1.251 . S
O303 Tb252 2.362 . S
O303 Tb263 2.610 . S
O303 C319 1.283 . S
O304 Tb252 2.421 . S
O304 C326 1.262 . S
O305 Tb263 2.320 . S
O305 C326 1.260 . S
O306 Tb263 2.552 . S
O306 C319 1.243 . S
O307 Tb263 2.413 . S
O307 C327 1.256 . S
C308 O297 1.283 . S
C308 O300 1.243 . S
C309 C311 1.382 . S
C309 C313 1.393 . S
C309 C316 1.500 . S
C310 C311 1.400 . S
C310 C312 1.384 . S
C311 C309 1.382 . S
C311 C310 1.400 . S
C311 H328 0.930 . S
C312 C310 1.384 . S
C312 C314 1.392 . S
C312 H329 0.931 . S
C313 C309 1.393 . S
C313 C314 1.401 . S
C313 H330 0.930 . S
C314 C312 1.392 . S
C314 C313 1.401 . S
C314 H331 0.930 . S
C315 O298 1.262 . S
C315 O299 1.260 . S
C316 Tb252 2.833 . S
C316 O296 1.251 . S
C316 O301 1.256 . S
C316 C309 1.500 . S
C317 H282 0.929 . S
C317 C295 1.444 . S
C317 C318 1.317 . S
C318 H280 0.930 . S
C318 C286 1.432 . S
C318 C317 1.317 . S
C319 O303 1.283 . S
C319 O306 1.243 . S
C320 C321 1.382 . S
C320 C324 1.393 . S
C320 C327 1.500 1_556 S
C321 C320 1.382 . S
C321 C322 1.400 . S
C321 H332 0.930 . S
C322 C321 1.400 . S
C322 C323 1.384 . S
C323 C322 1.384 . S
C323 C325 1.392 . S
C323 H333 0.931 . S
C324 C320 1.393 . S
C324 C325 1.401 . S
C324 H334 0.930 . S
C325 C323 1.392 . S
C325 C324 1.401 . S
C325 H335 0.930 . S
C326 O304 1.262 . S
C326 O305 1.260 . S
C327 Tb263 2.833 . S
C327 O302 1.251 . S
C327 O307 1.256 . S
C327 C320 1.500 1_554 S
H328 C311 0.930 . S
H329 C312 0.931 . S
H330 C313 0.930 . S
H331 C314 0.930 . S
H332 C321 0.930 . S
H333 C323 0.931 . S
H334 C324 0.930 . S
H335 C325 0.930 . S
Tb336 N367 2.660 . S
Tb336 N374 2.600 . S
Tb336 O380 2.546 . S
Tb336 O381 2.610 . S
Tb336 O383 2.320 . S
Tb336 O384 2.552 . S
Tb336 O385 2.413 . S
Tb336 O387 2.362 . S
Tb336 O388 2.421 . S
Tb336 C400 2.833 . S
C337 C340 1.432 . S
C337 C341 1.414 . S
C337 N344 1.359 . S
C338 C340 1.417 . S
C338 C342 1.432 . S
C338 C350 1.410 . S
C339 C341 1.444 . S
C339 C342 1.317 . S
C339 H362 0.929 . S
C340 C337 1.432 . S
C340 C338 1.417 . S
C340 N348 1.360 . S
C341 C337 1.414 . S
C341 C339 1.444 . S
C341 C346 1.385 . S
C342 C338 1.432 . S
C342 C339 1.317 . S
C342 H354 0.930 . S
C343 C345 1.392 . S
C343 C346 1.370 . S
C343 H355 0.931 . S
N344 C337 1.359 . S
N344 C345 1.327 . S
N344 Tb347 2.600 . S
C345 C343 1.392 . S
C345 N344 1.327 . S
C345 H352 0.930 . S
C346 C341 1.385 . S
C346 C343 1.370 . S
C346 H365 0.930 . S
Tb347 N344 2.600 . S
Tb347 N348 2.660 . S
Tb347 O381 2.362 . S
Tb347 O382 2.421 . S
Tb347 O386 2.546 . S
Tb347 O387 2.610 . S
Tb347 O389 2.320 . S
Tb347 O390 2.552 . S
Tb347 O391 2.413 . S
Tb347 C411 2.833 . S
N348 C340 1.360 . S
N348 Tb347 2.660 . S
N348 C349 1.305 . S
C349 N348 1.305 . S
C349 C351 1.407 . S
C349 H356 0.930 . S
C350 C338 1.410 . S
C350 C351 1.345 . S
C350 H358 0.930 . S
C351 C349 1.407 . S
C351 C350 1.345 . S
C351 H353 0.930 . S
H352 C345 0.930 . S
H353 C351 0.930 . S
H354 C342 0.930 . S
H355 C343 0.931 . S
H356 C349 0.930 . S
H357 C371 0.930 . S
H358 C350 0.930 . S
H359 C377 0.930 . S
H360 C368 0.930 . S
H361 C375 0.931 . S
H362 C339 0.929 . S
H363 C369 0.930 . S
H364 C402 0.930 . S
H365 C346 0.930 . S
H366 C401 0.929 1_455 S
N367 Tb336 2.660 . S
N367 C368 1.305 . S
N367 C372 1.360 . S
C368 H360 0.930 . S
C368 N367 1.305 . S
C368 C371 1.407 . S
C369 H363 0.930 . S
C369 C370 1.410 . S
C369 C371 1.345 . S
C370 C369 1.410 . S
C370 C372 1.417 . S
C370 C402 1.432 . S
C371 H357 0.930 . S
C371 C368 1.407 . S
C371 C369 1.345 . S
C372 N367 1.360 . S
C372 C370 1.417 . S
C372 C376 1.432 . S
H373 C378 0.930 1_455 S
N374 Tb336 2.600 . S
N374 C376 1.359 . S
N374 C377 1.327 . S
C375 H361 0.931 . S
C375 C377 1.392 . S
C375 C378 1.370 . S
C376 C372 1.432 . S
C376 N374 1.359 . S
C376 C379 1.414 . S
C377 H359 0.930 . S
C377 N374 1.327 . S
C377 C375 1.392 . S
C378 H373 0.930 1_655 S
C378 C375 1.370 . S
C378 C379 1.385 . S
C379 C376 1.414 . S
C379 C378 1.385 . S
C379 C401 1.444 . S
O380 Tb336 2.546 . S
O380 C400 1.251 . S
O381 Tb336 2.610 . S
O381 Tb347 2.362 . S
O381 C392 1.283 . S
O382 Tb347 2.421 . S
O382 C399 1.262 . S
O383 Tb336 2.320 . S
O383 C399 1.260 . S
O384 Tb336 2.552 . S
O384 C392 1.243 . S
O385 Tb336 2.413 . S
O385 C400 1.256 . S
O386 Tb347 2.546 . S
O386 C411 1.251 . S
O387 Tb336 2.362 . S
O387 Tb347 2.610 . S
O387 C403 1.283 . S
O388 Tb336 2.421 . S
O388 C410 1.262 . S
O389 Tb347 2.320 . S
O389 C410 1.260 . S
O390 Tb347 2.552 . S
O390 C403 1.243 . S
O391 Tb347 2.413 . S
O391 C411 1.256 . S
C392 O381 1.283 . S
C392 O384 1.243 . S
C393 C395 1.382 . S
C393 C397 1.393 . S
C393 C400 1.500 1_556 S
C394 C395 1.400 . S
C394 C396 1.384 . S
C395 C393 1.382 . S
C395 C394 1.400 . S
C395 H412 0.930 . S
C396 C394 1.384 . S
C396 C398 1.392 . S
C396 H413 0.931 . S
C397 C393 1.393 . S
C397 C398 1.401 . S
C397 H414 0.930 . S
C398 C396 1.392 . S
C398 C397 1.401 . S
C398 H415 0.930 . S
C399 O382 1.262 . S
C399 O383 1.260 . S
C400 Tb336 2.833 . S
C400 O380 1.251 . S
C400 O385 1.256 . S
C400 C393 1.500 1_554 S
C401 H366 0.929 1_655 S
C401 C379 1.444 . S
C401 C402 1.317 . S
C402 H364 0.930 . S
C402 C370 1.432 . S
C402 C401 1.317 . S
C403 O387 1.283 . S
C403 O390 1.243 . S
C404 C405 1.382 . S
C404 C408 1.393 . S
C404 C411 1.500 . S
C405 C404 1.382 . S
C405 C406 1.400 . S
C405 H416 0.930 . S
C406 C405 1.400 . S
C406 C407 1.384 . S
C407 C406 1.384 . S
C407 C409 1.392 . S
C407 H417 0.931 . S
C408 C404 1.393 . S
C408 C409 1.401 . S
C408 H418 0.930 . S
C409 C407 1.392 . S
C409 C408 1.401 . S
C409 H419 0.930 . S
C410 O388 1.262 . S
C410 O389 1.260 . S
C411 Tb347 2.833 . S
C411 O386 1.251 . S
C411 O391 1.256 . S
C411 C404 1.500 . S
H412 C395 0.930 . S
H413 C396 0.931 . S
H414 C397 0.930 . S
H415 C398 0.930 . S
H416 C405 0.930 . S
H417 C407 0.931 . S
H418 C408 0.930 . S
H419 C409 0.930 . S
Tb420 N451 2.660 . S
Tb420 N458 2.600 . S
Tb420 O464 2.546 . S
Tb420 O465 2.610 . S
Tb420 O467 2.320 . S
Tb420 O468 2.552 . S
Tb420 O469 2.413 . S
Tb420 O471 2.362 . S
Tb420 O472 2.421 . S
Tb420 C484 2.833 . S
C421 C424 1.432 . S
C421 C425 1.414 . S
C421 N428 1.359 . S
C422 C424 1.417 . S
C422 C426 1.432 . S
C422 C434 1.410 . S
C423 C425 1.444 . S
C423 C426 1.317 . S
C423 H446 0.929 . S
C424 C421 1.432 . S
C424 C422 1.417 . S
C424 N432 1.360 . S
C425 C421 1.414 . S
C425 C423 1.444 . S
C425 C430 1.385 . S
C426 C422 1.432 . S
C426 C423 1.317 . S
C426 H438 0.930 . S
C427 C429 1.392 . S
C427 C430 1.370 . S
C427 H439 0.931 . S
N428 C421 1.359 . S
N428 C429 1.327 . S
N428 Tb431 2.600 . S
C429 C427 1.392 . S
C429 N428 1.327 . S
C429 H436 0.930 . S
C430 C425 1.385 . S
C430 C427 1.370 . S
C430 H449 0.930 . S
Tb431 N428 2.600 . S
Tb431 N432 2.660 . S
Tb431 O465 2.362 . S
Tb431 O466 2.421 . S
Tb431 O470 2.546 . S
Tb431 O471 2.610 . S
Tb431 O473 2.320 . S
Tb431 O474 2.552 . S
Tb431 O475 2.413 . S
Tb431 C495 2.833 . S
N432 C424 1.360 . S
N432 Tb431 2.660 . S
N432 C433 1.305 . S
C433 N432 1.305 . S
C433 C435 1.407 . S
C433 H440 0.930 . S
C434 C422 1.410 . S
C434 C435 1.345 . S
C434 H442 0.930 . S
C435 C433 1.407 . S
C435 C434 1.345 . S
C435 H437 0.930 . S
H436 C429 0.930 . S
H437 C435 0.930 . S
H438 C426 0.930 . S
H439 C427 0.931 . S
H440 C433 0.930 . S
H441 C455 0.930 . S
H442 C434 0.930 . S
H443 C461 0.930 . S
H444 C452 0.930 . S
H445 C459 0.931 . S
H446 C423 0.929 . S
H447 C453 0.930 . S
H448 C486 0.930 . S
H449 C430 0.930 . S
H450 C485 0.929 1_455 S
N451 Tb420 2.660 . S
N451 C452 1.305 . S
N451 C456 1.360 . S
C452 H444 0.930 . S
C452 N451 1.305 . S
C452 C455 1.407 . S
C453 H447 0.930 . S
C453 C454 1.410 . S
C453 C455 1.345 . S
C454 C453 1.410 . S
C454 C456 1.417 . S
C454 C486 1.432 . S
C455 H441 0.930 . S
C455 C452 1.407 . S
C455 C453 1.345 . S
C456 N451 1.360 . S
C456 C454 1.417 . S
C456 C460 1.432 . S
H457 C462 0.930 1_455 S
N458 Tb420 2.600 . S
N458 C460 1.359 . S
N458 C461 1.327 . S
C459 H445 0.931 . S
C459 C461 1.392 . S
C459 C462 1.370 . S
C460 C456 1.432 . S
C460 N458 1.359 . S
C460 C463 1.414 . S
C461 H443 0.930 . S
C461 N458 1.327 . S
C461 C459 1.392 . S
C462 H457 0.930 1_655 S
C462 C459 1.370 . S
C462 C463 1.385 . S
C463 C460 1.414 . S
C463 C462 1.385 . S
C463 C485 1.444 . S
O464 Tb420 2.546 . S
O464 C484 1.251 . S
O465 Tb420 2.610 . S
O465 Tb431 2.362 . S
O465 C476 1.283 . S
O466 Tb431 2.421 . S
O466 C483 1.262 . S
O467 Tb420 2.320 . S
O467 C483 1.260 . S
O468 Tb420 2.552 . S
O468 C476 1.243 . S
O469 Tb420 2.413 . S
O469 C484 1.256 . S
O470 Tb431 2.546 . S
O470 C495 1.251 . S
O471 Tb420 2.362 . S
O471 Tb431 2.610 . S
O471 C487 1.283 . S
O472 Tb420 2.421 . S
O472 C494 1.262 . S
O473 Tb431 2.320 . S
O473 C494 1.260 . S
O474 Tb431 2.552 . S
O474 C487 1.243 . S
O475 Tb431 2.413 . S
O475 C495 1.256 . S
C476 O465 1.283 . S
C476 O468 1.243 . S
C477 C479 1.382 . S
C477 C481 1.393 . S
C477 C484 1.500 1_554 S
C478 C479 1.400 . S
C478 C480 1.384 . S
C479 C477 1.382 . S
C479 C478 1.400 . S
C479 H496 0.930 . S
C480 C478 1.384 . S
C480 C482 1.392 . S
C480 H497 0.931 . S
C481 C477 1.393 . S
C481 C482 1.401 . S
C481 H498 0.930 . S
C482 C480 1.392 . S
C482 C481 1.401 . S
C482 H499 0.930 . S
C483 O466 1.262 . S
C483 O467 1.260 . S
C484 Tb420 2.833 . S
C484 O464 1.251 . S
C484 O469 1.256 . S
C484 C477 1.500 1_556 S
C485 H450 0.929 1_655 S
C485 C463 1.444 . S
C485 C486 1.317 . S
C486 H448 0.930 . S
C486 C454 1.432 . S
C486 C485 1.317 . S
C487 O471 1.283 . S
C487 O474 1.243 . S
C488 C489 1.382 . S
C488 C492 1.393 . S
C488 C495 1.500 . S
C489 C488 1.382 . S
C489 C490 1.400 . S
C489 H500 0.930 . S
C490 C489 1.400 . S
C490 C491 1.384 . S
C491 C490 1.384 . S
C491 C493 1.392 . S
C491 H501 0.931 . S
C492 C488 1.393 . S
C492 C493 1.401 . S
C492 H502 0.930 . S
C493 C491 1.392 . S
C493 C492 1.401 . S
C493 H503 0.930 . S
C494 O472 1.262 . S
C494 O473 1.260 . S
C495 Tb431 2.833 . S
C495 O470 1.251 . S
C495 O475 1.256 . S
C495 C488 1.500 . S
H496 C479 0.930 . S
H497 C480 0.931 . S
H498 C481 0.930 . S
H499 C482 0.930 . S
H500 C489 0.930 . S
H501 C491 0.931 . S
H502 C492 0.930 . S
H503 C493 0.930 . S
Tb504 N535 2.660 . S
Tb504 N542 2.600 . S
Tb504 O548 2.546 . S
Tb504 O549 2.610 . S
Tb504 O551 2.320 . S
Tb504 O552 2.552 . S
Tb504 O553 2.413 . S
Tb504 O555 2.362 1_556 S
Tb504 O556 2.421 . S
Tb504 C568 2.833 . S
C505 C508 1.432 . S
C505 C509 1.414 . S
C505 N512 1.359 . S
C506 C508 1.417 . S
C506 C510 1.432 . S
C506 C518 1.410 . S
C507 C509 1.444 . S
C507 C510 1.317 . S
C507 H530 0.929 . S
C508 C505 1.432 . S
C508 C506 1.417 . S
C508 N516 1.360 . S
C509 C505 1.414 . S
C509 C507 1.444 . S
C509 C514 1.385 . S
C510 C506 1.432 . S
C510 C507 1.317 . S
C510 H522 0.930 . S
C511 C513 1.392 . S
C511 C514 1.370 . S
C511 H523 0.931 . S
N512 C505 1.359 . S
N512 C513 1.327 . S
N512 Tb515 2.600 . S
C513 C511 1.392 . S
C513 N512 1.327 . S
C513 H520 0.930 . S
C514 C509 1.385 . S
C514 C511 1.370 . S
C514 H533 0.930 . S
Tb515 N512 2.600 . S
Tb515 N516 2.660 . S
Tb515 O549 2.362 1_554 S
Tb515 O550 2.421 . S
Tb515 O554 2.546 . S
Tb515 O555 2.610 . S
Tb515 O557 2.320 . S
Tb515 O558 2.552 . S
Tb515 O559 2.413 . S
Tb515 C579 2.833 . S
N516 C508 1.360 . S
N516 Tb515 2.660 . S
N516 C517 1.305 . S
C517 N516 1.305 . S
C517 C519 1.407 . S
C517 H524 0.930 . S
C518 C506 1.410 . S
C518 C519 1.345 . S
C518 H526 0.930 . S
C519 C517 1.407 . S
C519 C518 1.345 . S
C519 H521 0.930 . S
H520 C513 0.930 . S
H521 C519 0.930 . S
H522 C510 0.930 . S
H523 C511 0.931 . S
H524 C517 0.930 . S
H525 C539 0.930 . S
H526 C518 0.930 . S
H527 C545 0.930 . S
H528 C536 0.930 . S
H529 C543 0.931 . S
H530 C507 0.929 . S
H531 C537 0.930 . S
H532 C570 0.930 . S
H533 C514 0.930 . S
H534 C569 0.929 . S
N535 Tb504 2.660 . S
N535 C536 1.305 . S
N535 C540 1.360 . S
C536 H528 0.930 . S
C536 N535 1.305 . S
C536 C539 1.407 . S
C537 H531 0.930 . S
C537 C538 1.410 . S
C537 C539 1.345 . S
C538 C537 1.410 . S
C538 C540 1.417 . S
C538 C570 1.432 . S
C539 H525 0.930 . S
C539 C536 1.407 . S
C539 C537 1.345 . S
C540 N535 1.360 . S
C540 C538 1.417 . S
C540 C544 1.432 . S
H541 C546 0.930 . S
N542 Tb504 2.600 . S
N542 C544 1.359 . S
N542 C545 1.327 . S
C543 H529 0.931 . S
C543 C545 1.392 . S
C543 C546 1.370 . S
C544 C540 1.432 . S
C544 N542 1.359 . S
C544 C547 1.414 . S
C545 H527 0.930 . S
C545 N542 1.327 . S
C545 C543 1.392 . S
C546 H541 0.930 . S
C546 C543 1.370 . S
C546 C547 1.385 . S
C547 C544 1.414 . S
C547 C546 1.385 . S
C547 C569 1.444 . S
O548 Tb504 2.546 . S
O548 C568 1.251 . S
O549 Tb504 2.610 . S
O549 Tb515 2.362 1_556 S
O549 C560 1.283 . S
O550 Tb515 2.421 . S
O550 C567 1.262 1_554 S
O551 Tb504 2.320 . S
O551 C567 1.260 . S
O552 Tb504 2.552 . S
O552 C560 1.243 . S
O553 Tb504 2.413 . S
O553 C568 1.256 . S
O554 Tb515 2.546 . S
O554 C579 1.251 . S
O555 Tb504 2.362 1_554 S
O555 Tb515 2.610 . S
O555 C571 1.283 . S
O556 Tb504 2.421 . S
O556 C578 1.262 1_556 S
O557 Tb515 2.320 . S
O557 C578 1.260 . S
O558 Tb515 2.552 . S
O558 C571 1.243 . S
O559 Tb515 2.413 . S
O559 C579 1.256 . S
C560 O549 1.283 . S
C560 O552 1.243 . S
C561 C563 1.382 . S
C561 C565 1.393 . S
C561 C568 1.500 . S
C562 C563 1.400 . S
C562 C564 1.384 . S
C563 C561 1.382 . S
C563 C562 1.400 . S
C563 H580 0.930 . S
C564 C562 1.384 . S
C564 C566 1.392 . S
C564 H581 0.931 . S
C565 C561 1.393 . S
C565 C566 1.401 . S
C565 H582 0.930 . S
C566 C564 1.392 . S
C566 C565 1.401 . S
C566 H583 0.930 . S
C567 O550 1.262 1_556 S
C567 O551 1.260 . S
C568 Tb504 2.833 . S
C568 O548 1.251 . S
C568 O553 1.256 . S
C568 C561 1.500 . S
C569 H534 0.929 . S
C569 C547 1.444 . S
C569 C570 1.317 . S
C570 H532 0.930 . S
C570 C538 1.432 . S
C570 C569 1.317 . S
C571 O555 1.283 . S
C571 O558 1.243 . S
C572 C573 1.382 . S
C572 C576 1.393 . S
C572 C579 1.500 . S
C573 C572 1.382 . S
C573 C574 1.400 . S
C573 H584 0.930 . S
C574 C573 1.400 . S
C574 C575 1.384 . S
C575 C574 1.384 . S
C575 C577 1.392 . S
C575 H585 0.931 . S
C576 C572 1.393 . S
C576 C577 1.401 . S
C576 H586 0.930 . S
C577 C575 1.392 . S
C577 C576 1.401 . S
C577 H587 0.930 . S
C578 O556 1.262 1_554 S
C578 O557 1.260 . S
C579 Tb515 2.833 . S
C579 O554 1.251 . S
C579 O559 1.256 . S
C579 C572 1.500 . S
H580 C563 0.930 . S
H581 C564 0.931 . S
H582 C565 0.930 . S
H583 C566 0.930 . S
H584 C573 0.930 . S
H585 C575 0.931 . S
H586 C576 0.930 . S
H587 C577 0.930 . S
Tb588 N619 2.655 1_655 S
Tb588 N626 2.600 1_655 S
Tb588 O632 2.548 . S
Tb588 O633 2.611 . S
Tb588 O635 2.316 1_655 S
Tb588 O636 2.555 . S
Tb588 O637 2.412 1_655 S
Tb588 O639 2.360 1_655 S
Tb588 O640 2.425 . S
Tb588 C652 2.834 . S
C589 C592 1.432 . S
C589 C593 1.414 . S
C589 N596 1.359 . S
C590 C592 1.417 . S
C590 C594 1.432 . S
C590 C602 1.410 . S
C591 C593 1.444 . S
C591 C594 1.317 . S
C591 H614 0.929 . S
C592 C589 1.432 . S
C592 C590 1.417 . S
C592 N600 1.360 . S
C593 C589 1.414 . S
C593 C591 1.444 . S
C593 C598 1.385 . S
C594 C590 1.432 . S
C594 C591 1.317 . S
C594 H606 0.930 . S
C595 C597 1.392 . S
C595 C598 1.370 1_455 S
C595 H607 0.931 . S
N596 C589 1.359 . S
N596 C597 1.327 1_655 S
N596 Tb599 2.600 1_655 S
C597 C595 1.392 . S
C597 N596 1.327 1_455 S
C597 H604 0.930 . S
C598 C593 1.385 . S
C598 C595 1.370 1_655 S
C598 H617 0.930 . S
Tb599 N596 2.600 1_455 S
Tb599 N600 2.650 1_455 S
Tb599 O633 2.358 1_455 S
Tb599 O634 2.428 . S
Tb599 O638 2.551 . S
Tb599 O639 2.613 . S
Tb599 O641 2.313 1_455 S
Tb599 O642 2.559 . S
Tb599 O643 2.411 1_455 S
Tb599 C663 2.834 . S
N600 C592 1.360 . S
N600 Tb599 2.650 1_655 S
N600 C601 1.305 . S
C601 N600 1.305 . S
C601 C603 1.407 . S
C601 H608 0.930 . S
C602 C590 1.410 . S
C602 C603 1.345 . S
C602 H610 0.930 . S
C603 C601 1.407 . S
C603 C602 1.345 . S
C603 H605 0.930 . S
H604 C597 0.930 . S
H605 C603 0.930 . S
H606 C594 0.930 . S
H607 C595 0.931 . S
H608 C601 0.930 . S
H609 C623 0.930 . S
H610 C602 0.930 . S
H611 C629 0.930 . S
H612 C620 0.930 . S
H613 C627 0.931 . S
H614 C591 0.929 . S
H615 C621 0.930 . S
H616 C654 0.930 . S
H617 C598 0.930 . S
H618 C653 0.929 . S
N619 Tb588 2.655 1_455 S
N619 C620 1.305 . S
N619 C624 1.360 . S
C620 H612 0.930 . S
C620 N619 1.305 . S
C620 C623 1.407 . S
C621 H615 0.930 . S
C621 C622 1.410 . S
C621 C623 1.345 . S
C622 C621 1.410 . S
C622 C624 1.417 . S
C622 C654 1.432 . S
C623 H609 0.930 . S
C623 C620 1.407 . S
C623 C621 1.345 . S
C624 N619 1.360 . S
C624 C622 1.417 . S
C624 C628 1.432 . S
H625 C630 0.930 . S
N626 Tb588 2.600 1_455 S
N626 C628 1.359 . S
N626 C629 1.327 1_455 S
C627 H613 0.931 . S
C627 C629 1.392 . S
C627 C630 1.370 1_655 S
C628 C624 1.432 . S
C628 N626 1.359 . S
C628 C631 1.414 . S
C629 H611 0.930 . S
C629 N626 1.327 1_655 S
C629 C627 1.392 . S
C630 H625 0.930 . S
C630 C627 1.370 1_455 S
C630 C631 1.385 . S
C631 C628 1.414 . S
C631 C630 1.385 . S
C631 C653 1.444 . S
O632 Tb588 2.548 . S
O632 C652 1.251 . S
O633 Tb588 2.611 . S
O633 Tb599 2.358 1_655 S
O633 C644 1.283 . S
O634 Tb599 2.428 . S
O634 C651 1.262 . S
O635 Tb588 2.316 1_455 S
O635 C651 1.260 . S
O636 Tb588 2.555 . S
O636 C644 1.243 . S
O637 Tb588 2.412 1_455 S
O637 C652 1.256 1_455 S
O638 Tb599 2.551 . S
O638 C663 1.251 . S
O639 Tb588 2.360 1_455 S
O639 Tb599 2.613 . S
O639 C655 1.283 . S
O640 Tb588 2.425 . S
O640 C662 1.262 . S
O641 Tb599 2.313 1_655 S
O641 C662 1.260 . S
O642 Tb599 2.559 . S
O642 C655 1.243 . S
O643 Tb599 2.411 1_655 S
O643 C663 1.256 1_655 S
C644 O633 1.283 . S
C644 O636 1.243 . S
C645 C647 1.382 . S
C645 C649 1.393 . S
C645 C652 1.500 . S
C646 C647 1.400 . S
C646 C648 1.384 . S
C647 C645 1.382 . S
C647 C646 1.400 . S
C647 H664 0.930 1_655 S
C648 C646 1.384 . S
C648 C650 1.392 . S
C648 H665 0.931 . S
C649 C645 1.393 . S
C649 C650 1.401 . S
C649 H666 0.930 . S
C650 C648 1.392 . S
C650 C649 1.401 . S
C650 H667 0.930 . S
C651 O634 1.262 . S
C651 O635 1.260 . S
C652 Tb588 2.834 . S
C652 O632 1.251 . S
C652 O637 1.256 1_655 S
C652 C645 1.500 . S
C653 H618 0.929 . S
C653 C631 1.444 . S
C653 C654 1.317 . S
C654 H616 0.930 . S
C654 C622 1.432 . S
C654 C653 1.317 . S
C655 O639 1.283 . S
C655 O642 1.243 . S
C656 C657 1.382 . S
C656 C660 1.393 . S
C656 C663 1.500 . S
C657 C656 1.382 . S
C657 C658 1.400 . S
C657 H668 0.930 1_455 S
C658 C657 1.400 . S
C658 C659 1.384 . S
C659 C658 1.384 . S
C659 C661 1.392 . S
C659 H669 0.931 . S
C660 C656 1.393 . S
C660 C661 1.401 . S
C660 H670 0.930 . S
C661 C659 1.392 . S
C661 C660 1.401 . S
C661 H671 0.930 . S
C662 O640 1.262 . S
C662 O641 1.260 . S
C663 Tb599 2.834 . S
C663 O638 1.251 . S
C663 O643 1.256 1_455 S
C663 C656 1.500 . S
H664 C647 0.930 1_455 S
H665 C648 0.931 . S
H666 C649 0.930 . S
H667 C650 0.930 . S
H668 C657 0.930 1_655 S
H669 C659 0.931 . S
H670 C660 0.930 . S
H671 C661 0.930 . S
C672 C673 1.369 . S
C672 C674 1.419 . S
C672 H676 0.930 . S
C673 C672 1.369 . S
C673 C682 1.429 . S
C674 C672 1.419 . S
C674 C675 1.363 . S
C674 H677 0.929 . S
C675 C674 1.363 . S
C675 C681 1.428 . S
H676 C672 0.930 . S
H677 C674 0.929 . S
S678 N679 1.613 . S
S678 N680 1.610 . S
N679 S678 1.613 . S
N679 C682 1.350 . S
N680 S678 1.610 . S
N680 C681 1.351 . S
C681 C675 1.428 . S
C681 N680 1.351 . S
C681 C682 1.434 . S
C682 C673 1.429 . S
C682 N679 1.350 . S
C682 C681 1.434 . S
C683 C684 1.369 . S
C683 C685 1.419 . S
C683 H687 0.930 . S
C684 C683 1.369 . S
C684 C693 1.429 . S
C685 C683 1.419 . S
C685 C686 1.363 . S
C685 H688 0.929 . S
C686 C685 1.363 . S
C686 C692 1.428 . S
H687 C683 0.930 . S
H688 C685 0.929 . S
S689 N690 1.613 . S
S689 N691 1.610 . S
N690 S689 1.613 . S
N690 C693 1.350 . S
N691 S689 1.610 . S
N691 C692 1.351 . S
C692 C686 1.428 . S
C692 N691 1.351 . S
C692 C693 1.434 . S
C693 C684 1.429 . S
C693 N690 1.350 . S
C693 C692 1.434 . S
C694 C695 1.369 . S
C694 C696 1.419 . S
C694 H698 0.930 . S
C695 C694 1.369 . S
C695 C704 1.429 . S
C696 C694 1.419 . S
C696 C697 1.363 . S
C696 H699 0.929 . S
C697 C696 1.363 . S
C697 C703 1.428 . S
H698 C694 0.930 . S
H699 C696 0.929 . S
S700 N701 1.613 . S
S700 N702 1.610 . S
N701 S700 1.613 . S
N701 C704 1.350 . S
N702 S700 1.610 . S
N702 C703 1.351 . S
C703 C697 1.428 . S
C703 N702 1.351 . S
C703 C704 1.434 . S
C704 C695 1.429 . S
C704 N701 1.350 . S
C704 C703 1.434 . S
C705 C706 1.369 . S
C705 C707 1.419 . S
C705 H709 0.930 . S
C706 C705 1.369 . S
C706 C715 1.429 . S
C707 C705 1.419 . S
C707 C708 1.363 . S
C707 H710 0.929 . S
C708 C707 1.363 . S
C708 C714 1.428 . S
H709 C705 0.930 . S
H710 C707 0.929 . S
S711 N712 1.613 . S
S711 N713 1.610 1_556 S
N712 S711 1.613 . S
N712 C715 1.350 1_556 S
N713 S711 1.610 1_554 S
N713 C714 1.351 . S
C714 C708 1.428 . S
C714 N713 1.351 . S
C714 C715 1.434 . S
C715 C706 1.429 . S
C715 N712 1.350 1_554 S
C715 C714 1.434 . S
C716 C717 1.369 . S
C716 C718 1.419 . S
C716 H720 0.930 . S
C717 C716 1.369 . S
C717 C726 1.429 . S
C718 C716 1.419 . S
C718 C719 1.363 . S
C718 H721 0.929 . S
C719 C718 1.363 . S
C719 C725 1.428 . S
H720 C716 0.930 . S
H721 C718 0.929 . S
S722 N723 1.613 . S
S722 N724 1.610 . S
N723 S722 1.613 . S
N723 C726 1.350 . S
N724 S722 1.610 . S
N724 C725 1.351 . S
C725 C719 1.428 . S
C725 N724 1.351 . S
C725 C726 1.434 . S
C726 C717 1.429 . S
C726 N723 1.350 . S
C726 C725 1.434 . S
C727 C728 1.369 . S
C727 C729 1.419 . S
C727 H731 0.930 . S
C728 C727 1.369 . S
C728 C737 1.429 . S
C729 C727 1.419 . S
C729 C730 1.363 . S
C729 H732 0.929 . S
C730 C729 1.363 . S
C730 C736 1.428 . S
H731 C727 0.930 . S
H732 C729 0.929 . S
S733 N734 1.613 . S
S733 N735 1.610 . S
N734 S733 1.613 . S
N734 C737 1.350 . S
N735 S733 1.610 . S
N735 C736 1.351 . S
C736 C730 1.428 . S
C736 N735 1.351 . S
C736 C737 1.434 . S
C737 C728 1.429 . S
C737 N734 1.350 . S
C737 C736 1.434 . S
C738 C739 1.369 . S
C738 C740 1.419 . S
C738 H742 0.930 . S
C739 C738 1.369 . S
C739 C748 1.429 . S
C740 C738 1.419 . S
C740 C741 1.363 . S
C740 H743 0.929 . S
C741 C740 1.363 . S
C741 C747 1.428 . S
H742 C738 0.930 . S
H743 C740 0.929 . S
S744 N745 1.613 . S
S744 N746 1.610 . S
N745 S744 1.613 . S
N745 C748 1.350 . S
N746 S744 1.610 . S
N746 C747 1.351 . S
C747 C741 1.428 . S
C747 N746 1.351 . S
C747 C748 1.434 . S
C748 C739 1.429 . S
C748 N745 1.350 . S
C748 C747 1.434 . S
C749 C750 1.369 . S
C749 C751 1.419 . S
C749 H753 0.930 . S
C750 C749 1.369 . S
C750 C759 1.429 . S
C751 C749 1.419 . S
C751 C752 1.363 . S
C751 H754 0.929 . S
C752 C751 1.363 . S
C752 C758 1.428 . S
H753 C749 0.930 . S
H754 C751 0.929 . S
S755 N756 1.613 . S
S755 N757 1.610 . S
N756 S755 1.613 . S
N756 C759 1.350 . S
N757 S755 1.610 . S
N757 C758 1.351 . S
C758 C752 1.428 . S
C758 N757 1.351 . S
C758 C759 1.434 . S
C759 C750 1.429 . S
C759 N756 1.350 . S
C759 C758 1.434 . S
C760 C761 1.369 . S
C760 C762 1.419 . S
C760 H764 0.930 . S
C761 C760 1.369 . S
C761 C770 1.429 . S
C762 C760 1.419 . S
C762 C763 1.363 . S
C762 H765 0.929 . S
C763 C762 1.363 . S
C763 C769 1.428 . S
H764 C760 0.930 . S
H765 C762 0.929 . S
S766 N767 1.613 . S
S766 N768 1.610 . S
N767 S766 1.613 . S
N767 C770 1.350 . S
N768 S766 1.610 . S
N768 C769 1.351 . S
C769 C763 1.428 . S
C769 N768 1.351 . S
C769 C770 1.434 . S
C770 C761 1.429 . S
C770 N767 1.350 . S
C770 C769 1.434 . S
C771 C772 1.369 . S
C771 C773 1.419 . S
C771 H775 0.930 . S
C772 C771 1.369 . S
C772 C781 1.429 . S
C773 C771 1.419 . S
C773 C774 1.363 . S
C773 H776 0.929 . S
C774 C773 1.363 . S
C774 C780 1.428 . S
H775 C771 0.930 . S
H776 C773 0.929 . S
S777 N778 1.613 . S
S777 N779 1.610 . S
N778 S777 1.613 . S
N778 C781 1.350 . S
N779 S777 1.610 . S
N779 C780 1.351 . S
C780 C774 1.428 . S
C780 N779 1.351 . S
C780 C781 1.434 . S
C781 C772 1.429 . S
C781 N778 1.350 . S
C781 C780 1.434 . S
C782 C783 1.369 . S
C782 C784 1.419 . S
C782 H786 0.930 . S
C783 C782 1.369 . S
C783 C792 1.429 . S
C784 C782 1.419 . S
C784 C785 1.363 . S
C784 H787 0.929 . S
C785 C784 1.363 . S
C785 C791 1.428 . S
H786 C782 0.930 . S
H787 C784 0.929 . S
S788 N789 1.613 . S
S788 N790 1.610 . S
N789 S788 1.613 . S
N789 C792 1.350 . S
N790 S788 1.610 . S
N790 C791 1.351 . S
C791 C785 1.428 . S
C791 N790 1.351 . S
C791 C792 1.434 . S
C792 C783 1.429 . S
C792 N789 1.350 . S
C792 C791 1.434 . S
C793 C794 1.369 . S
C793 C795 1.419 . S
C793 H797 0.930 . S
C794 C793 1.369 . S
C794 C803 1.429 . S
C795 C793 1.419 . S
C795 C796 1.363 . S
C795 H798 0.929 . S
C796 C795 1.363 . S
C796 C802 1.428 . S
H797 C793 0.930 . S
H798 C795 0.929 . S
S799 N800 1.613 . S
S799 N801 1.610 . S
N800 S799 1.613 . S
N800 C803 1.350 . S
N801 S799 1.610 . S
N801 C802 1.351 . S
C802 C796 1.428 . S
C802 N801 1.351 . S
C802 C803 1.434 . S
C803 C794 1.429 . S
C803 N800 1.350 . S
C803 C802 1.434 . S
C804 C805 1.369 . S
C804 C806 1.419 . S
C804 H808 0.930 . S
C805 C804 1.369 . S
C805 C814 1.429 . S
C806 C804 1.419 . S
C806 C807 1.363 . S
C806 H809 0.929 . S
C807 C806 1.363 . S
C807 C813 1.428 . S
H808 C804 0.930 . S
H809 C806 0.929 . S
S810 N811 1.612 1_556 S
S810 N812 1.610 1_556 S
N811 S810 1.612 1_554 S
N811 C814 1.350 . S
N812 S810 1.610 1_554 S
N812 C813 1.351 . S
C813 C807 1.428 . S
C813 N812 1.351 . S
C813 C814 1.434 . S
C814 C805 1.429 . S
C814 N811 1.350 . S
C814 C813 1.434 . S
C815 C816 1.369 . S
C815 C817 1.419 . S
C815 H819 0.930 . S
C816 C815 1.369 . S
C816 C825 1.429 . S
C817 C815 1.419 . S
C817 C818 1.363 . S
C817 H820 0.929 . S
C818 C817 1.363 . S
C818 C824 1.428 . S
H819 C815 0.930 . S
H820 C817 0.929 . S
S821 N822 1.613 . S
S821 N823 1.610 . S
N822 S821 1.613 . S
N822 C825 1.350 . S
N823 S821 1.610 . S
N823 C824 1.351 . S
C824 C818 1.428 . S
C824 N823 1.351 . S
C824 C825 1.434 . S
C825 C816 1.429 . S
C825 N822 1.350 . S
C825 C824 1.434 . S
C826 C827 1.369 . S
C826 C828 1.419 . S
C826 H830 0.930 . S
C827 C826 1.369 . S
C827 C836 1.429 . S
C828 C826 1.419 . S
C828 C829 1.363 . S
C828 H831 0.929 . S
C829 C828 1.363 . S
C829 C835 1.428 . S
H830 C826 0.930 . S
H831 C828 0.929 . S
S832 N833 1.613 . S
S832 N834 1.610 . S
N833 S832 1.613 . S
N833 C836 1.350 . S
N834 S832 1.610 . S
N834 C835 1.351 . S
C835 C829 1.428 . S
C835 N834 1.351 . S
C835 C836 1.434 . S
C836 C827 1.429 . S
C836 N833 1.350 . S
C836 C835 1.434 . S
C837 C838 1.369 . S
C837 C839 1.419 . S
C837 H841 0.930 . S
C838 C837 1.369 . S
C838 C847 1.429 . S
C839 C837 1.419 . S
C839 C840 1.363 . S
C839 H842 0.929 . S
C840 C839 1.363 . S
C840 C846 1.428 . S
H841 C837 0.930 . S
H842 C839 0.929 . S
S843 N844 1.613 . S
S843 N845 1.610 . S
N844 S843 1.613 . S
N844 C847 1.350 . S
N845 S843 1.610 . S
N845 C846 1.351 . S
C846 C840 1.428 . S
C846 N845 1.351 . S
C846 C847 1.434 . S
C847 C838 1.429 . S
C847 N844 1.350 . S
C847 C846 1.434 . S
C848 C849 1.369 1_465 S
C848 C850 1.419 1_556 S
C848 H852 0.930 . S
C849 C848 1.369 1_645 S
C849 C858 1.429 . S
C850 C848 1.419 1_554 S
C850 C851 1.363 . S
C850 H853 0.929 . S
C851 C850 1.363 . S
C851 C857 1.427 1_465 S
H852 C848 0.930 . S
H853 C850 0.929 . S
S854 N855 1.613 1_554 S
S854 N856 1.610 . S
N855 S854 1.613 1_556 S
N855 C858 1.350 . S
N856 S854 1.610 . S
N856 C857 1.351 . S
C857 C851 1.427 1_645 S
C857 N856 1.351 . S
C857 C858 1.435 1_554 S
C858 C849 1.429 . S
C858 N855 1.350 . S
C858 C857 1.435 1_556 S
C859 C860 1.369 . S
C859 C861 1.419 . S
C859 H863 0.930 . S
C860 C859 1.369 . S
C860 C869 1.429 . S
C861 C859 1.419 . S
C861 C862 1.363 . S
C861 H864 0.929 . S
C862 C861 1.363 . S
C862 C868 1.428 . S
H863 C859 0.930 . S
H864 C861 0.929 . S
S865 N866 1.613 . S
S865 N867 1.610 . S
N866 S865 1.613 . S
N866 C869 1.350 . S
N867 S865 1.610 . S
N867 C868 1.351 . S
C868 C862 1.428 . S
C868 N867 1.351 . S
C868 C869 1.434 . S
C869 C860 1.429 . S
C869 N866 1.350 . S
C869 C868 1.434 . S
C870 C871 1.369 . S
C870 C872 1.419 . S
C870 H874 0.930 . S
C871 C870 1.369 . S
C871 C880 1.429 1_545 S
C872 C870 1.419 . S
C872 C873 1.363 1_545 S
C872 H875 0.929 . S
C873 C872 1.363 1_565 S
C873 C879 1.428 . S
H874 C870 0.930 . S
H875 C872 0.929 . S
S876 N877 1.613 . S
S876 N878 1.610 . S
N877 S876 1.613 . S
N877 C880 1.350 . S
N878 S876 1.610 . S
N878 C879 1.351 . S
C879 C873 1.428 . S
C879 N878 1.351 . S
C879 C880 1.434 . S
C880 C871 1.429 1_565 S
C880 N877 1.350 . S
C880 C879 1.434 . S
C881 C882 1.369 . S
C881 C883 1.419 . S
C881 H885 0.930 . S
C882 C881 1.369 . S
C882 C891 1.429 . S
C883 C881 1.419 . S
C883 C884 1.363 . S
C883 H886 0.929 . S
C884 C883 1.363 . S
C884 C890 1.428 . S
H885 C881 0.930 . S
H886 C883 0.929 . S
S887 N888 1.613 . S
S887 N889 1.610 . S
N888 S887 1.613 . S
N888 C891 1.350 . S
N889 S887 1.610 . S
N889 C890 1.351 . S
C890 C884 1.428 . S
C890 N889 1.351 . S
C890 C891 1.434 . S
C891 C882 1.429 . S
C891 N888 1.350 . S
C891 C890 1.434 . S
C892 C893 1.369 . S
C892 C894 1.419 . S
C892 H896 0.930 . S
C893 C892 1.369 . S
C893 C902 1.429 . S
C894 C892 1.419 . S
C894 C895 1.363 . S
C894 H897 0.929 . S
C895 C894 1.363 . S
C895 C901 1.428 . S
H896 C892 0.930 . S
H897 C894 0.929 . S
S898 N899 1.613 . S
S898 N900 1.610 . S
N899 S898 1.613 . S
N899 C902 1.350 . S
N900 S898 1.610 . S
N900 C901 1.351 . S
C901 C895 1.428 . S
C901 N900 1.351 . S
C901 C902 1.434 . S
C902 C893 1.429 . S
C902 N899 1.350 . S
C902 C901 1.434 . S
C903 C904 1.369 . S
C903 C905 1.419 . S
C903 H907 0.930 . S
C904 C903 1.369 . S
C904 C913 1.429 . S
C905 C903 1.419 . S
C905 C906 1.363 . S
C905 H908 0.929 . S
C906 C905 1.363 . S
C906 C912 1.428 . S
H907 C903 0.930 . S
H908 C905 0.929 . S
S909 N910 1.613 . S
S909 N911 1.610 . S
N910 S909 1.613 . S
N910 C913 1.350 . S
N911 S909 1.610 . S
N911 C912 1.351 . S
C912 C906 1.428 . S
C912 N911 1.351 . S
C912 C913 1.434 . S
C913 C904 1.429 . S
C913 N910 1.350 . S
C913 C912 1.434 . S
C914 C915 1.369 . S
C914 C916 1.419 . S
C914 H918 0.930 . S
C915 C914 1.369 . S
C915 C924 1.429 . S
C916 C914 1.419 . S
C916 C917 1.363 . S
C916 H919 0.929 . S
C917 C916 1.363 . S
C917 C923 1.428 . S
H918 C914 0.930 . S
H919 C916 0.929 . S
S920 N921 1.613 . S
S920 N922 1.610 . S
N921 S920 1.613 . S
N921 C924 1.350 . S
N922 S920 1.610 . S
N922 C923 1.351 . S
C923 C917 1.428 . S
C923 N922 1.351 . S
C923 C924 1.434 . S
C924 C915 1.429 . S
C924 N921 1.350 . S
C924 C923 1.434 . S
C925 C926 1.369 1_455 S
C925 C927 1.419 1_556 S
C925 H929 0.930 . S
C926 C925 1.369 1_655 S
C926 C935 1.429 . S
C927 C925 1.419 1_554 S
C927 C928 1.363 . S
C927 H930 0.929 . S
C928 C927 1.363 . S
C928 C934 1.428 1_455 S
H929 C925 0.930 . S
H930 C927 0.929 . S
S931 N932 1.613 1_554 S
S931 N933 1.610 . S
N932 S931 1.613 1_556 S
N932 C935 1.350 . S
N933 S931 1.610 . S
N933 C934 1.351 . S
C934 C928 1.428 1_655 S
C934 N933 1.351 . S
C934 C935 1.434 1_554 S
C935 C926 1.429 . S
C935 N932 1.350 . S
C935 C934 1.434 1_556 S
C673 C56 1.570 . S
C675 C308 1.565 . S
C684 C74 1.475 . S
C686 C140 1.435 . S
C695 C158 1.340 . S
C697 C242 1.343 . S
C706 C224 1.440 . S
C708 C326 1.473 . S
C717 C67 1.563 . S
C719 C487 1.573 . S
C728 C63 1.470 . S
C730 C403 1.432 . S
C739 C399 1.340 . S
C741 C231 1.341 . S
C750 C483 1.473 . S
C752 C235 1.436 . S
C761 C560 1.562 . S
C763 C476 1.568 . S
C772 C392 1.434 . S
C774 C578 1.471 . S
C783 C662 1.347 . S
C785 C410 1.346 . S
C794 C494 1.475 . S
C796 C644 1.440 . S
C805 C319 1.563 . S
C807 C571 1.569 . S
C816 C567 1.470 . S
C818 C151 1.431 . S
C827 C147 1.340 . S
C829 C651 1.343 . S
C838 C315 1.472 . S
C840 C655 1.433 . S
C849 C70 1.373 . S
C851 C58 1.383 . S
C860 C142 1.364 . S
C862 C154 1.356 . S
C871 C238 1.367 . S
C873 C226 1.354 . S
C882 C322 1.376 . S
C884 C310 1.380 . S
C893 C394 1.355 . S
C895 C406 1.364 . S
C904 C490 1.376 . S
C906 C478 1.381 . S
C915 C562 1.385 . S
C917 C574 1.374 . S
C926 C646 1.353 . S
C928 C658 1.365 . S
