# Generated by pormake.
# Topology ull, (4)-cn, num edge types: 1
# Building blocks:
#     Node 0, Type 0, BuildingBlock: QUQFOY_clean_sbu_3, # of connection points: 4
#     Node 1, Type 0, BuildingBlock: QUQFOY_clean_sbu_3, # of connection points: 4
#     Node 2, Type 0, BuildingBlock: QUQFOY_clean_sbu_3, # of connection points: 4
#     Node 3, Type 0, BuildingBlock: QUQFOY_clean_sbu_3, # of connection points: 4
#     Node 4, Type 0, BuildingBlock: QUQFOY_clean_sbu_3, # of connection points: 4
#     Node 5, Type 0, BuildingBlock: QUQFOY_clean_sbu_3, # of connection points: 4
#     Node 6, Type 0, BuildingBlock: QUQFOY_clean_sbu_3, # of connection points: 4
#     Node 7, Type 0, BuildingBlock: QUQFOY_clean_sbu_3, # of connection points: 4
#     Node 8, Type 0, BuildingBlock: QUQFOY_clean_sbu_3, # of connection points: 4
#     Node 9, Type 0, BuildingBlock: QUQFOY_clean_sbu_3, # of connection points: 4
#     Node 10, Type 0, BuildingBlock: QUQFOY_clean_sbu_3, # of connection points: 4
#     Node 11, Type 0, BuildingBlock: QUQFOY_clean_sbu_3, # of connection points: 4
#     Node 12, Type 0, BuildingBlock: QUQFOY_clean_sbu_3, # of connection points: 4
#     Node 13, Type 0, BuildingBlock: QUQFOY_clean_sbu_3, # of connection points: 4
#     Node 14, Type 0, BuildingBlock: QUQFOY_clean_sbu_3, # of connection points: 4
#     Node 15, Type 0, BuildingBlock: QUQFOY_clean_sbu_3, # of connection points: 4
#     Node 16, Type 0, BuildingBlock: QUQFOY_clean_sbu_3, # of connection points: 4
#     Node 17, Type 0, BuildingBlock: QUQFOY_clean_sbu_3, # of connection points: 4
#     Node 18, Type 0, BuildingBlock: QUQFOY_clean_sbu_3, # of connection points: 4
#     Node 19, Type 0, BuildingBlock: QUQFOY_clean_sbu_3, # of connection points: 4
#     Node 20, Type 0, BuildingBlock: QUQFOY_clean_sbu_3, # of connection points: 4
#     Node 21, Type 0, BuildingBlock: QUQFOY_clean_sbu_3, # of connection points: 4
#     Node 22, Type 0, BuildingBlock: QUQFOY_clean_sbu_3, # of connection points: 4
#     Node 23, Type 0, BuildingBlock: QUQFOY_clean_sbu_3, # of connection points: 4
#     Node 24, Type 0, BuildingBlock: QUQFOY_clean_sbu_3, # of connection points: 4
#     Node 25, Type 0, BuildingBlock: QUQFOY_clean_sbu_3, # of connection points: 4
#     Node 26, Type 0, BuildingBlock: QUQFOY_clean_sbu_3, # of connection points: 4
#     Node 27, Type 0, BuildingBlock: QUQFOY_clean_sbu_3, # of connection points: 4
#     Node 28, Type 0, BuildingBlock: QUQFOY_clean_sbu_3, # of connection points: 4
#     Node 29, Type 0, BuildingBlock: QUQFOY_clean_sbu_3, # of connection points: 4
#     Node 30, Type 0, BuildingBlock: QUQFOY_clean_sbu_3, # of connection points: 4
#     Node 31, Type 0, BuildingBlock: QUQFOY_clean_sbu_3, # of connection points: 4
#     Node 32, Type 0, BuildingBlock: QUQFOY_clean_sbu_3, # of connection points: 4
#     Node 33, Type 0, BuildingBlock: QUQFOY_clean_sbu_3, # of connection points: 4
#     Node 34, Type 0, BuildingBlock: QUQFOY_clean_sbu_3, # of connection points: 4
#     Node 35, Type 0, BuildingBlock: QUQFOY_clean_sbu_3, # of connection points: 4
#     Node 36, Type 0, BuildingBlock: QUQFOY_clean_sbu_3, # of connection points: 4
#     Node 37, Type 0, BuildingBlock: QUQFOY_clean_sbu_3, # of connection points: 4
#     Node 38, Type 0, BuildingBlock: QUQFOY_clean_sbu_3, # of connection points: 4
#     Node 39, Type 0, BuildingBlock: QUQFOY_clean_sbu_3, # of connection points: 4
#     Node 40, Type 0, BuildingBlock: QUQFOY_clean_sbu_3, # of connection points: 4
#     Node 41, Type 0, BuildingBlock: QUQFOY_clean_sbu_3, # of connection points: 4
#     Node 42, Type 0, BuildingBlock: QUQFOY_clean_sbu_3, # of connection points: 4
#     Node 43, Type 0, BuildingBlock: QUQFOY_clean_sbu_3, # of connection points: 4
#     Node 44, Type 0, BuildingBlock: QUQFOY_clean_sbu_3, # of connection points: 4
#     Node 45, Type 0, BuildingBlock: QUQFOY_clean_sbu_3, # of connection points: 4
#     Node 46, Type 0, BuildingBlock: QUQFOY_clean_sbu_3, # of connection points: 4
#     Node 47, Type 0, BuildingBlock: QUQFOY_clean_sbu_3, # of connection points: 4
#     Edge 48, Type (0, 0), BuildingBlock: KIFKEQ_clean_linker_1, # of connection points: 2
#     Edge 49, Type (0, 0), BuildingBlock: KIFKEQ_clean_linker_1, # of connection points: 2
#     Edge 50, Type (0, 0), BuildingBlock: KIFKEQ_clean_linker_1, # of connection points: 2
#     Edge 51, Type (0, 0), BuildingBlock: KIFKEQ_clean_linker_1, # of connection points: 2
#     Edge 52, Type (0, 0), BuildingBlock: KIFKEQ_clean_linker_1, # of connection points: 2
#     Edge 53, Type (0, 0), BuildingBlock: KIFKEQ_clean_linker_1, # of connection points: 2
#     Edge 54, Type (0, 0), BuildingBlock: KIFKEQ_clean_linker_1, # of connection points: 2
#     Edge 55, Type (0, 0), BuildingBlock: KIFKEQ_clean_linker_1, # of connection points: 2
#     Edge 56, Type (0, 0), BuildingBlock: KIFKEQ_clean_linker_1, # of connection points: 2
#     Edge 57, Type (0, 0), BuildingBlock: KIFKEQ_clean_linker_1, # of connection points: 2
#     Edge 58, Type (0, 0), BuildingBlock: KIFKEQ_clean_linker_1, # of connection points: 2
#     Edge 59, Type (0, 0), BuildingBlock: KIFKEQ_clean_linker_1, # of connection points: 2
#     Edge 60, Type (0, 0), BuildingBlock: KIFKEQ_clean_linker_1, # of connection points: 2
#     Edge 61, Type (0, 0), BuildingBlock: KIFKEQ_clean_linker_1, # of connection points: 2
#     Edge 62, Type (0, 0), BuildingBlock: KIFKEQ_clean_linker_1, # of connection points: 2
#     Edge 63, Type (0, 0), BuildingBlock: KIFKEQ_clean_linker_1, # of connection points: 2
#     Edge 64, Type (0, 0), BuildingBlock: KIFKEQ_clean_linker_1, # of connection points: 2
#     Edge 65, Type (0, 0), BuildingBlock: KIFKEQ_clean_linker_1, # of connection points: 2
#     Edge 66, Type (0, 0), BuildingBlock: KIFKEQ_clean_linker_1, # of connection points: 2
#     Edge 67, Type (0, 0), BuildingBlock: KIFKEQ_clean_linker_1, # of connection points: 2
#     Edge 68, Type (0, 0), BuildingBlock: KIFKEQ_clean_linker_1, # of connection points: 2
#     Edge 69, Type (0, 0), BuildingBlock: KIFKEQ_clean_linker_1, # of connection points: 2
#     Edge 70, Type (0, 0), BuildingBlock: KIFKEQ_clean_linker_1, # of connection points: 2
#     Edge 71, Type (0, 0), BuildingBlock: KIFKEQ_clean_linker_1, # of connection points: 2
#     Edge 72, Type (0, 0), BuildingBlock: KIFKEQ_clean_linker_1, # of connection points: 2
#     Edge 73, Type (0, 0), BuildingBlock: KIFKEQ_clean_linker_1, # of connection points: 2
#     Edge 74, Type (0, 0), BuildingBlock: KIFKEQ_clean_linker_1, # of connection points: 2
#     Edge 75, Type (0, 0), BuildingBlock: KIFKEQ_clean_linker_1, # of connection points: 2
#     Edge 76, Type (0, 0), BuildingBlock: KIFKEQ_clean_linker_1, # of connection points: 2
#     Edge 77, Type (0, 0), BuildingBlock: KIFKEQ_clean_linker_1, # of connection points: 2
#     Edge 78, Type (0, 0), BuildingBlock: KIFKEQ_clean_linker_1, # of connection points: 2
#     Edge 79, Type (0, 0), BuildingBlock: KIFKEQ_clean_linker_1, # of connection points: 2
#     Edge 80, Type (0, 0), BuildingBlock: KIFKEQ_clean_linker_1, # of connection points: 2
#     Edge 81, Type (0, 0), BuildingBlock: KIFKEQ_clean_linker_1, # of connection points: 2
#     Edge 82, Type (0, 0), BuildingBlock: KIFKEQ_clean_linker_1, # of connection points: 2
#     Edge 83, Type (0, 0), BuildingBlock: KIFKEQ_clean_linker_1, # of connection points: 2
#     Edge 84, Type (0, 0), BuildingBlock: KIFKEQ_clean_linker_1, # of connection points: 2
#     Edge 85, Type (0, 0), BuildingBlock: KIFKEQ_clean_linker_1, # of connection points: 2
#     Edge 86, Type (0, 0), BuildingBlock: KIFKEQ_clean_linker_1, # of connection points: 2
#     Edge 87, Type (0, 0), BuildingBlock: KIFKEQ_clean_linker_1, # of connection points: 2
#     Edge 88, Type (0, 0), BuildingBlock: KIFKEQ_clean_linker_1, # of connection points: 2
#     Edge 89, Type (0, 0), BuildingBlock: KIFKEQ_clean_linker_1, # of connection points: 2
#     Edge 90, Type (0, 0), BuildingBlock: KIFKEQ_clean_linker_1, # of connection points: 2
#     Edge 91, Type (0, 0), BuildingBlock: KIFKEQ_clean_linker_1, # of connection points: 2
#     Edge 92, Type (0, 0), BuildingBlock: KIFKEQ_clean_linker_1, # of connection points: 2
#     Edge 93, Type (0, 0), BuildingBlock: KIFKEQ_clean_linker_1, # of connection points: 2
#     Edge 94, Type (0, 0), BuildingBlock: KIFKEQ_clean_linker_1, # of connection points: 2
#     Edge 95, Type (0, 0), BuildingBlock: KIFKEQ_clean_linker_1, # of connection points: 2
#     Edge 96, Type (0, 0), BuildingBlock: KIFKEQ_clean_linker_1, # of connection points: 2
#     Edge 97, Type (0, 0), BuildingBlock: KIFKEQ_clean_linker_1, # of connection points: 2
#     Edge 98, Type (0, 0), BuildingBlock: KIFKEQ_clean_linker_1, # of connection points: 2
#     Edge 99, Type (0, 0), BuildingBlock: KIFKEQ_clean_linker_1, # of connection points: 2
#     Edge 100, Type (0, 0), BuildingBlock: KIFKEQ_clean_linker_1, # of connection points: 2
#     Edge 101, Type (0, 0), BuildingBlock: KIFKEQ_clean_linker_1, # of connection points: 2
#     Edge 102, Type (0, 0), BuildingBlock: KIFKEQ_clean_linker_1, # of connection points: 2
#     Edge 103, Type (0, 0), BuildingBlock: KIFKEQ_clean_linker_1, # of connection points: 2
#     Edge 104, Type (0, 0), BuildingBlock: KIFKEQ_clean_linker_1, # of connection points: 2
#     Edge 105, Type (0, 0), BuildingBlock: KIFKEQ_clean_linker_1, # of connection points: 2
#     Edge 106, Type (0, 0), BuildingBlock: KIFKEQ_clean_linker_1, # of connection points: 2
#     Edge 107, Type (0, 0), BuildingBlock: KIFKEQ_clean_linker_1, # of connection points: 2
#     Edge 108, Type (0, 0), BuildingBlock: KIFKEQ_clean_linker_1, # of connection points: 2
#     Edge 109, Type (0, 0), BuildingBlock: KIFKEQ_clean_linker_1, # of connection points: 2
#     Edge 110, Type (0, 0), BuildingBlock: KIFKEQ_clean_linker_1, # of connection points: 2
#     Edge 111, Type (0, 0), BuildingBlock: KIFKEQ_clean_linker_1, # of connection points: 2
#     Edge 112, Type (0, 0), BuildingBlock: KIFKEQ_clean_linker_1, # of connection points: 2
#     Edge 113, Type (0, 0), BuildingBlock: KIFKEQ_clean_linker_1, # of connection points: 2
#     Edge 114, Type (0, 0), BuildingBlock: KIFKEQ_clean_linker_1, # of connection points: 2
#     Edge 115, Type (0, 0), BuildingBlock: KIFKEQ_clean_linker_1, # of connection points: 2
#     Edge 116, Type (0, 0), BuildingBlock: KIFKEQ_clean_linker_1, # of connection points: 2
#     Edge 117, Type (0, 0), BuildingBlock: KIFKEQ_clean_linker_1, # of connection points: 2
#     Edge 118, Type (0, 0), BuildingBlock: KIFKEQ_clean_linker_1, # of connection points: 2
#     Edge 119, Type (0, 0), BuildingBlock: KIFKEQ_clean_linker_1, # of connection points: 2
#     Edge 120, Type (0, 0), BuildingBlock: KIFKEQ_clean_linker_1, # of connection points: 2
#     Edge 121, Type (0, 0), BuildingBlock: KIFKEQ_clean_linker_1, # of connection points: 2
#     Edge 122, Type (0, 0), BuildingBlock: KIFKEQ_clean_linker_1, # of connection points: 2
#     Edge 123, Type (0, 0), BuildingBlock: KIFKEQ_clean_linker_1, # of connection points: 2
#     Edge 124, Type (0, 0), BuildingBlock: KIFKEQ_clean_linker_1, # of connection points: 2
#     Edge 125, Type (0, 0), BuildingBlock: KIFKEQ_clean_linker_1, # of connection points: 2
#     Edge 126, Type (0, 0), BuildingBlock: KIFKEQ_clean_linker_1, # of connection points: 2
#     Edge 127, Type (0, 0), BuildingBlock: KIFKEQ_clean_linker_1, # of connection points: 2
#     Edge 128, Type (0, 0), BuildingBlock: KIFKEQ_clean_linker_1, # of connection points: 2
#     Edge 129, Type (0, 0), BuildingBlock: KIFKEQ_clean_linker_1, # of connection points: 2
#     Edge 130, Type (0, 0), BuildingBlock: KIFKEQ_clean_linker_1, # of connection points: 2
#     Edge 131, Type (0, 0), BuildingBlock: KIFKEQ_clean_linker_1, # of connection points: 2
#     Edge 132, Type (0, 0), BuildingBlock: KIFKEQ_clean_linker_1, # of connection points: 2
#     Edge 133, Type (0, 0), BuildingBlock: KIFKEQ_clean_linker_1, # of connection points: 2
#     Edge 134, Type (0, 0), BuildingBlock: KIFKEQ_clean_linker_1, # of connection points: 2
#     Edge 135, Type (0, 0), BuildingBlock: KIFKEQ_clean_linker_1, # of connection points: 2
#     Edge 136, Type (0, 0), BuildingBlock: KIFKEQ_clean_linker_1, # of connection points: 2
#     Edge 137, Type (0, 0), BuildingBlock: KIFKEQ_clean_linker_1, # of connection points: 2
#     Edge 138, Type (0, 0), BuildingBlock: KIFKEQ_clean_linker_1, # of connection points: 2
#     Edge 139, Type (0, 0), BuildingBlock: KIFKEQ_clean_linker_1, # of connection points: 2
#     Edge 140, Type (0, 0), BuildingBlock: KIFKEQ_clean_linker_1, # of connection points: 2
#     Edge 141, Type (0, 0), BuildingBlock: KIFKEQ_clean_linker_1, # of connection points: 2
#     Edge 142, Type (0, 0), BuildingBlock: KIFKEQ_clean_linker_1, # of connection points: 2
#     Edge 143, Type (0, 0), BuildingBlock: KIFKEQ_clean_linker_1, # of connection points: 2
# Relax obj value: 0.026
# Max RMSD: 0.091
# Mean RMSD: 0.091
data_MOF--net-ull--node1-QUQFOY_clean_sbu_3--edge1-KIFKEQ_clean_linker_1
_symmetry_space_group_name_H-M    P1
_symmetry_Int_Tables_number       1
_symmetry_cell_setting            triclinic
loop_
_symmetry_equiv_pos_as_xyz
'x, y, z'
_cell_length_a     64.365845
_cell_length_b     64.406581
_cell_length_c     64.402403
_cell_angle_alpha  89.992137
_cell_angle_beta   89.935694
_cell_angle_gamma 90.015937
loop_
_atom_site_label
_atom_site_type_symbol
_atom_site_fract_x
_atom_site_fract_y
_atom_site_fract_z
_atom_type_partial_charge
C0 C 0.04196 0.31394 0.13228 0.0
O1 O 0.03565 0.29582 0.13683 0.0
Cd2 Cd 0.00906 0.28872 0.1617 0.0
O3 O 0.03468 0.32975 0.1417 0.0
Cd4 Cd 0.00963 0.33727 0.17017 0.0
C5 C 0.97034 0.31964 0.14102 0.0
O6 O 0.01771 0.30755 0.19219 0.0
O7 O -0.01051 0.32401 0.19955 0.0
O8 O 0.03677 0.36025 0.18142 0.0
C9 C 0.00251 0.31009 0.20444 0.0
O10 O 0.97732 0.3018 0.14592 0.0
C11 C 0.0251 0.37491 0.18749 0.0
O12 O 0.9799 0.33613 0.14639 0.0
O13 O 0.00572 0.37276 0.18437 0.0
C14 C 0.66057 0.04335 0.13183 0.0
O15 O 0.67889 0.03828 0.13711 0.0
Cd16 Cd 0.68734 0.01053 0.15994 0.0
O17 O 0.6448 0.03454 0.14 0.0
Cd18 Cd 0.63737 0.00899 0.16835 0.0
C19 C 0.65715 0.97131 0.13801 0.0
O20 O 0.66714 0.01762 0.18969 0.0
O21 O 0.65009 -0.00948 0.19933 0.0
O22 O 0.61317 0.03539 0.1791 0.0
C23 C 0.6649 0.00303 0.20265 0.0
O24 O 0.6746 0.97973 0.14206 0.0
C25 C 0.59884 0.02317 0.1849 0.0
O26 O 0.64026 0.97896 0.14504 0.0
O27 O 0.60177 0.00389 0.18182 0.0
C28 C 0.93441 0.66553 0.12542 0.0
O29 O 0.94084 0.68366 0.12967 0.0
Cd30 Cd 0.96794 0.69079 0.15366 0.0
O31 O 0.94162 0.64979 0.13503 0.0
Cd32 Cd 0.96643 0.64253 0.16393 0.0
C33 C 0.00571 0.65788 0.13353 0.0
O34 O 0.95948 0.67321 0.18496 0.0
O35 O 0.98743 0.65629 0.19236 0.0
O36 O 0.93846 0.62164 0.17714 0.0
C37 C 0.9748 0.67065 0.19702 0.0
O38 O -0.00152 0.67593 0.13719 0.0
C39 C 0.94946 0.60658 0.18344 0.0
O40 O -0.00334 0.64172 0.14058 0.0
O41 O 0.9688 0.60739 0.17944 0.0
C42 C 0.31431 0.9309 0.12854 0.0
O43 O 0.296 0.9352 0.13446 0.0
Cd44 Cd 0.28828 0.96338 0.15704 0.0
O45 O 0.3299 0.94034 0.13631 0.0
Cd46 Cd 0.33689 0.96589 0.16471 0.0
C47 C 0.31747 0.00235 0.13344 0.0
O48 O 0.30786 0.95785 0.18776 0.0
O49 O 0.32322 0.98714 0.19302 0.0
O50 O 0.36089 0.93997 0.17689 0.0
C51 C 0.3099 0.97391 0.19894 0.0
O52 O 0.3001 -0.00603 0.13797 0.0
C53 C 0.37526 0.95237 0.18213 0.0
O54 O 0.33445 -0.00501 0.14047 0.0
O55 O 0.37243 0.9715 0.17816 0.0
C56 C 0.04366 0.66584 0.85188 0.0
O57 O 0.03701 0.68385 0.84743 0.0
Cd58 Cd 0.00998 0.69084 0.82319 0.0
O59 O 0.03672 0.64989 0.8424 0.0
Cd60 Cd 0.01194 0.64156 0.81374 0.0
C61 C 0.9725 0.65803 0.84386 0.0
O62 O 0.01844 0.67224 0.79259 0.0
O63 O -0.00776 0.65347 0.78348 0.0
O64 O 0.03979 0.61983 0.80147 0.0
C65 C 0.00382 0.66897 0.77986 0.0
O66 O 0.97973 0.67603 0.84 0.0
C67 C 0.02861 0.60458 0.79598 0.0
O68 O 0.98145 0.64178 0.83691 0.0
O69 O 0.0093 0.60578 0.80001 0.0
C70 C 0.3104 0.04174 0.84914 0.0
O71 O 0.29244 0.03474 0.84493 0.0
Cd72 Cd 0.28548 0.00789 0.82053 0.0
O73 O 0.32635 0.0352 0.83936 0.0
Cd74 Cd 0.33475 0.01092 0.8103 0.0
C75 C 0.31942 0.97066 0.83992 0.0
O76 O 0.30358 0.01733 0.78998 0.0
O77 O 0.32258 -0.00826 0.77975 0.0
O78 O 0.35547 0.03968 0.79844 0.0
C79 C 0.30681 0.00311 0.7768 0.0
O80 O 0.30127 0.97768 0.83639 0.0
C81 C 0.37085 0.0291 0.79213 0.0
O82 O 0.33548 0.98003 0.83301 0.0
O83 O 0.37025 0.00965 0.79553 0.0
C84 C 0.93505 0.31346 0.84784 0.0
O85 O 0.94138 0.29529 0.84357 0.0
Cd86 Cd 0.96815 0.28777 0.81899 0.0
O87 O 0.9424 0.32914 0.83826 0.0
Cd88 Cd 0.96763 0.33601 0.80979 0.0
C89 C 0.00686 0.31892 0.83926 0.0
O90 O 0.95994 0.30596 0.78801 0.0
O91 O 0.98828 0.3224 0.78101 0.0
O92 O 0.94068 0.35851 0.79728 0.0
C93 C 0.97535 0.30844 0.77601 0.0
O94 O -0.0001 0.301 0.83458 0.0
C95 C 0.95242 0.37319 0.79137 0.0
O96 O -0.00274 0.33532 0.8337 0.0
O97 O 0.9717 0.37132 0.79523 0.0
C98 C 0.66791 0.93587 0.85132 0.0
O99 O 0.68566 0.94313 0.84669 0.0
Cd100 Cd 0.69174 0.96825 0.82006 0.0
O101 O 0.65183 0.94146 0.84124 0.0
Cd102 Cd 0.64345 0.96453 0.81145 0.0
C103 C 0.65869 0.00663 0.83769 0.0
O104 O 0.67377 0.95719 0.78988 0.0
O105 O 0.656 0.98435 0.78168 0.0
O106 O 0.62227 0.93597 0.80004 0.0
C107 C 0.67053 0.97186 0.77718 0.0
O108 O 0.67689 0.00039 0.83308 0.0
C109 C 0.60702 0.94674 0.79378 0.0
O110 O 0.64274 -0.00434 0.83347 0.0
O111 O 0.60793 0.96619 0.79702 0.0
C112 C 0.12949 0.04153 0.31186 0.0
O113 O 0.1343 0.03504 0.29387 0.0
Cd114 Cd 0.16029 0.00952 0.28689 0.0
O115 O 0.13916 0.03495 0.32783 0.0
Cd116 Cd 0.16833 0.01075 0.33554 0.0
C117 C 0.14067 0.97037 0.31784 0.0
O118 O 0.19042 0.01904 0.30585 0.0
O119 O 0.19808 -0.00894 0.32252 0.0
O120 O 0.17971 0.03762 0.35891 0.0
C121 C 0.20285 0.00402 0.3085 0.0
O122 O 0.14565 0.97724 0.29996 0.0
C123 C 0.18532 0.02571 0.37355 0.0
O124 O 0.14539 0.98037 0.33426 0.0
O125 O 0.18187 0.00642 0.37117 0.0
C126 C 0.93476 0.12963 0.31596 0.0
O127 O 0.94018 0.13527 0.29785 0.0
Cd128 Cd 0.96732 0.15952 0.29088 0.0
O129 O 0.94294 0.13792 0.33195 0.0
Cd130 Cd 0.96776 0.16671 0.33948 0.0
C131 C 0.00697 0.13847 0.32068 0.0
O132 O 0.95922 0.18956 0.31047 0.0
O133 O 0.98796 0.19612 0.32629 0.0
O134 O 0.94093 0.17772 0.36298 0.0
C135 C 0.97466 0.20152 0.31286 0.0
O136 O -0.00054 0.14356 0.3031 0.0
C137 C 0.95282 0.18374 0.37746 0.0
O138 O -0.00226 0.14339 0.3375 0.0
O139 O 0.97217 0.18059 0.37501 0.0
C140 C 0.84683 0.93537 0.31298 0.0
O141 O 0.8422 0.94163 0.29487 0.0
Cd142 Cd 0.81782 0.9683 0.28726 0.0
O143 O 0.83742 0.94256 0.32888 0.0
Cd144 Cd 0.80852 0.96722 0.33692 0.0
C145 C 0.8385 0.00637 0.31944 0.0
O146 O 0.78776 0.95947 0.30644 0.0
O147 O 0.77755 0.98572 0.32448 0.0
O148 O 0.79748 0.93947 0.35939 0.0
C149 C 0.77449 0.97369 0.30924 0.0
O150 O 0.83459 -0.00122 0.30161 0.0
C151 C 0.79119 0.9508 0.37422 0.0
O152 O 0.83159 -0.00223 0.3359 0.0
O153 O 0.79424 0.97024 0.37247 0.0
C154 C 0.03981 0.85126 0.31118 0.0
O155 O 0.03267 0.84704 0.29331 0.0
Cd156 Cd 0.0073 0.82087 0.28644 0.0
O157 O 0.03386 0.84102 0.32705 0.0
Cd158 Cd 0.01014 0.81145 0.33452 0.0
C159 C 0.96842 0.83815 0.31906 0.0
O160 O 0.01808 0.79038 0.30404 0.0
O161 O -0.0095 0.78189 0.32106 0.0
O162 O 0.03795 0.79939 0.35627 0.0
C163 C 0.00333 0.77763 0.30675 0.0
O164 O 0.97489 0.8338 0.30088 0.0
C165 C 0.02668 0.7932 0.37121 0.0
O166 O 0.97916 0.83363 0.33505 0.0
O167 O 0.0073 0.79673 0.36984 0.0
C168 C 0.12873 0.93239 0.66373 0.0
O169 O 0.13304 0.93903 0.68179 0.0
Cd170 Cd 0.15762 0.96553 0.68958 0.0
O171 O 0.13832 0.93934 0.64783 0.0
Cd172 Cd 0.16696 0.96416 0.63963 0.0
C173 C 0.13805 0.00408 0.65734 0.0
O174 O 0.18741 0.95628 0.67021 0.0
O175 O 0.19845 0.98199 0.6519 0.0
O176 O 0.17785 0.93686 0.61653 0.0
C177 C 0.20099 0.9702 0.66743 0.0
O178 O 0.14178 -0.00347 0.67523 0.0
C179 C 0.18358 0.94853 0.60173 0.0
O180 O 0.14457 -0.00492 0.64093 0.0
O181 O 0.1804 0.96789 0.60391 0.0
C182 C 0.04812 0.13144 0.66094 0.0
O183 O 0.04386 0.13723 0.6793 0.0
Cd184 Cd 0.01564 0.15952 0.68755 0.0
O185 O 0.03855 0.13919 0.64544 0.0
Cd186 Cd 0.01288 0.16763 0.63893 0.0
C187 C 0.97646 0.13628 0.65837 0.0
O188 O 0.02118 0.19026 0.6681 0.0
O189 O -0.00821 0.19585 0.6531 0.0
O190 O 0.0387 0.18012 0.615 0.0
C191 C 0.00515 0.20152 0.66638 0.0
O192 O 0.98493 0.14068 0.6757 0.0
C193 C 0.02624 0.18566 0.6008 0.0
O194 O 0.98377 0.1434 0.64139 0.0
O195 O 0.00711 0.18163 0.60365 0.0
C196 C 0.85123 0.0425 0.66633 0.0
O197 O 0.84556 0.03712 0.68443 0.0
Cd198 Cd 0.82087 0.01025 0.69101 0.0
O199 O 0.84255 0.03472 0.65034 0.0
Cd200 Cd 0.81309 0.01092 0.64249 0.0
C201 C 0.84141 0.97127 0.65988 0.0
O202 O 0.79052 0.0185 0.67197 0.0
O203 O 0.78419 -0.00994 0.65546 0.0
O204 O 0.8012 0.03858 0.62051 0.0
C205 C 0.77874 0.00297 0.66928 0.0
O206 O 0.83661 0.97847 0.67768 0.0
C207 C 0.79535 0.0273 0.60548 0.0
O208 O 0.83623 0.98079 0.64332 0.0
O209 O 0.79906 0.00795 0.60686 0.0
C210 C 0.93851 0.84879 0.6655 0.0
O211 O 0.94588 0.84442 0.68326 0.0
Cd212 Cd 0.96992 0.81713 0.69069 0.0
O213 O 0.94363 0.8382 0.64957 0.0
Cd214 Cd 0.96629 0.80792 0.6416 0.0
C215 C 0.00925 0.8329 0.65804 0.0
O216 O 0.95747 0.78784 0.67238 0.0
O217 O 0.98258 0.7757 0.65393 0.0
O218 O 0.93879 0.79797 0.61825 0.0
C219 C 0.97062 0.77355 0.6694 0.0
O220 O 0.00272 0.82886 0.67627 0.0
C221 C 0.95049 0.79184 0.60361 0.0
O222 O -0.00168 0.82862 0.6421 0.0
O223 O 0.96992 0.79441 0.60603 0.0
C224 C 0.30968 0.12796 0.0402 0.0
O225 O 0.29164 0.13324 0.03422 0.0
Cd226 Cd 0.28472 0.15912 0.00852 0.0
O227 O 0.32575 0.13737 0.03342 0.0
Cd228 Cd 0.33394 0.1675 0.01059 0.0
C229 C 0.31664 0.1411 0.96913 0.0
O230 O 0.30372 0.1887 0.01896 0.0
O231 O 0.32199 0.19894 -0.0072 0.0
O232 O 0.35661 0.17777 0.03842 0.0
C233 C 0.30689 0.20218 0.00498 0.0
O234 O 0.29863 0.14533 0.97619 0.0
C235 C 0.37156 0.1838 0.02706 0.0
O236 O 0.33297 0.14596 0.97922 0.0
O237 O 0.36971 0.18091 0.00762 0.0
C238 C 0.31788 0.84392 0.93084 0.0
O239 O 0.29955 0.83826 0.9354 0.0
Cd240 Cd 0.29161 0.81594 0.96373 0.0
O241 O 0.33347 0.83602 0.94015 0.0
Cd242 Cd 0.33975 0.8073 0.96561 0.0
C243 C 0.32155 0.83841 0.00272 0.0
O244 O 0.31021 0.78471 0.95794 0.0
O245 O 0.32569 0.77936 0.98712 0.0
O246 O 0.36281 0.79436 0.9393 0.0
C247 C 0.31223 0.77354 0.97401 0.0
O248 O 0.30404 0.8342 -0.00548 0.0
C249 C 0.37726 0.78867 0.95138 0.0
O250 O 0.33835 0.83135 -0.00505 0.0
O251 O 0.37501 0.79283 0.97056 0.0
C252 C 0.12567 0.31441 0.94071 0.0
O253 O 0.13006 0.29665 0.94808 0.0
Cd254 Cd 0.15699 0.28957 0.97264 0.0
O255 O 0.13599 0.33042 0.94612 0.0
Cd256 Cd 0.1658 0.33888 0.96917 0.0
C257 C 0.1404 0.32212 0.0118 0.0
O258 O 0.18628 0.30829 0.96077 0.0
O259 O 0.19796 0.327 0.98588 0.0
O260 O 0.17545 0.36167 0.94111 0.0
C261 C 0.20038 0.31147 0.97407 0.0
O262 O 0.14466 0.30398 0.00517 0.0
C263 C 0.18176 0.37655 0.95236 0.0
O264 O 0.14466 0.3382 0.00105 0.0
O265 O 0.17939 0.3746 0.97186 0.0
C266 C 0.66591 0.12738 0.93573 0.0
O267 O 0.68405 0.13167 0.94214 0.0
Cd268 Cd 0.6917 0.15607 0.96883 0.0
O269 O 0.65015 0.13713 0.94274 0.0
Cd270 Cd 0.6427 0.16632 0.96713 0.0
C271 C 0.65876 0.13669 0.00691 0.0
O272 O 0.67368 0.18682 0.95992 0.0
O273 O 0.65539 0.19668 0.9862 0.0
O274 O 0.62119 0.17823 0.9391 0.0
C275 C 0.67078 0.19986 0.97434 0.0
O276 O 0.67678 0.1402 -0.00049 0.0
C277 C 0.60617 0.18453 0.95018 0.0
O278 O 0.64255 0.14361 -0.00212 0.0
O279 O 0.60734 0.18108 0.96959 0.0
C280 C 0.8452 0.66028 0.93475 0.0
O281 O 0.83978 0.67836 0.94046 0.0
Cd282 Cd 0.81455 0.68604 0.96657 0.0
O283 O 0.83631 0.64422 0.9422 0.0
Cd284 Cd 0.80692 0.63642 0.96623 0.0
C285 C 0.834 0.65564 0.00646 0.0
O286 O 0.78527 0.66606 0.95729 0.0
O287 O 0.77538 0.64862 0.98403 0.0
O288 O 0.79697 0.61186 0.93982 0.0
C289 C 0.77199 0.66341 0.97154 0.0
O290 O 0.82932 0.67336 -0.00101 0.0
C291 C 0.79118 0.59763 0.95217 0.0
O292 O 0.82916 0.63895 -0.00302 0.0
O293 O 0.79395 0.60085 0.97144 0.0
C294 C 0.6646 0.84599 0.04456 0.0
O295 O 0.6828 0.84062 0.03912 0.0
Cd296 Cd 0.69073 0.81618 0.01228 0.0
O297 O 0.64868 0.83739 0.03652 0.0
Cd298 Cd 0.64105 0.80878 0.0116 0.0
C299 C 0.66108 0.83726 0.97264 0.0
O300 O 0.67052 0.78649 0.01996 0.0
O301 O 0.65296 0.77811 -0.00729 0.0
O302 O 0.61628 0.79764 0.03741 0.0
C303 C 0.66756 0.77387 0.00517 0.0
O304 O 0.67868 0.83234 0.98025 0.0
C305 C 0.60201 0.79269 0.02476 0.0
O306 O 0.64422 0.83199 0.98162 0.0
O307 O 0.6053 0.79652 0.00567 0.0
C308 C 0.13402 0.65911 0.04418 0.0
O309 O 0.13983 0.67726 0.03913 0.0
Cd310 Cd 0.16433 0.68491 0.01243 0.0
O311 O 0.14232 0.64319 0.03583 0.0
Cd312 Cd 0.1713 0.63627 0.01091 0.0
C313 C 0.14296 0.6562 0.97228 0.0
O314 O 0.19432 0.66505 0.02007 0.0
O315 O 0.2005 0.65003 -0.00915 0.0
O316 O 0.18238 0.6106 0.03602 0.0
C317 C 0.20609 0.66312 0.00442 0.0
O318 O 0.14824 0.67364 0.97998 0.0
C319 C 0.18823 0.59719 0.02283 0.0
O320 O 0.14782 0.63923 0.98124 0.0
O321 O 0.185 0.60133 0.00382 0.0
C322 C 0.85203 0.31377 0.03902 0.0
O323 O 0.84802 0.29598 0.03151 0.0
Cd324 Cd 0.82115 0.28851 0.00701 0.0
O325 O 0.84128 0.32956 0.03384 0.0
Cd326 Cd 0.81108 0.33735 0.01104 0.0
C327 C 0.83657 0.32184 0.96804 0.0
O328 O 0.7913 0.30614 0.01912 0.0
O329 O 0.77943 0.32475 -0.00599 0.0
O330 O 0.80048 0.35911 0.03955 0.0
C331 C 0.77721 0.30915 0.00577 0.0
O332 O 0.83276 0.30356 0.97454 0.0
C333 C 0.79374 0.37405 0.02863 0.0
O334 O 0.8321 0.33773 0.979 0.0
O335 O 0.79636 0.3727 0.00911 0.0
C336 C 0.53608 0.8108 0.62473 0.0
O337 O 0.52777 0.79329 0.62847 0.0
Cd338 Cd 0.5031 0.78621 0.65545 0.0
O339 O 0.5318 0.82655 0.63593 0.0
Cd340 Cd 0.50972 0.83454 0.66663 0.0
C341 C 0.46589 0.82199 0.64123 0.0
O342 O 0.51571 0.80242 0.68584 0.0
O343 O 0.49135 0.82232 0.69746 0.0
O344 O 0.53912 0.85416 0.67884 0.0
C345 C 0.50223 0.80609 0.69972 0.0
O346 O 0.47136 0.8033 0.64466 0.0
C347 C 0.5289 0.86975 0.68523 0.0
O348 O 0.47779 0.83717 0.64576 0.0
O349 O 0.50947 0.86976 0.68164 0.0
C350 C 0.16266 0.54591 0.63024 0.0
O351 O 0.18091 0.54045 0.63526 0.0
Cd352 Cd 0.18774 0.51249 0.6582 0.0
O353 O 0.14693 0.53743 0.63882 0.0
Cd354 Cd 0.13994 0.51162 0.66698 0.0
C355 C 0.15685 0.47461 0.63518 0.0
O356 O 0.16933 0.51901 0.68959 0.0
O357 O 0.15492 0.48902 0.69362 0.0
O358 O 0.11787 0.53865 0.68005 0.0
C359 C 0.16757 0.50256 0.70021 0.0
O360 O 0.17454 0.48227 0.63965 0.0
C361 C 0.10325 0.52711 0.68644 0.0
O362 O 0.14021 0.48268 0.64229 0.0
O363 O 0.10487 0.50779 0.68266 0.0
C364 C 0.43602 0.16763 0.62595 0.0
O365 O 0.44317 0.18545 0.63038 0.0
Cd366 Cd 0.46939 0.19156 0.65583 0.0
O367 O 0.44216 0.15161 0.63581 0.0
Cd368 Cd 0.46611 0.14339 0.665 0.0
C369 C 0.50698 0.15835 0.63654 0.0
O370 O 0.45967 0.17381 0.68662 0.0
O371 O 0.48729 0.15622 0.69371 0.0
O372 O 0.43757 0.12289 0.67769 0.0
C373 C 0.4749 0.17068 0.69868 0.0
O374 O 0.50076 0.17655 0.64114 0.0
C375 C 0.4482 0.10748 0.68378 0.0
O376 O 0.49642 0.14239 0.64171 0.0
O377 O 0.46757 0.10794 0.67988 0.0
C378 C 0.81517 0.43815 0.62646 0.0
O379 O 0.79733 0.44534 0.63085 0.0
Cd380 Cd 0.78974 0.46939 0.65811 0.0
O381 O 0.83107 0.44353 0.63695 0.0
Cd382 Cd 0.83884 0.46639 0.66709 0.0
C383 C 0.82174 0.50922 0.64234 0.0
O384 O 0.80824 0.45722 0.68739 0.0
O385 O 0.82653 0.48254 0.69933 0.0
O386 O 0.86211 0.43879 0.67689 0.0
C387 C 0.81124 0.47038 0.70167 0.0
O388 O 0.80364 0.50238 0.64648 0.0
C389 C 0.87672 0.45036 0.68329 0.0
O390 O 0.8379 0.49853 0.64643 0.0
O391 O 0.87441 0.4698 0.68083 0.0
C392 C 0.54338 0.15985 0.34684 0.0
O393 O 0.53789 0.1782 0.34221 0.0
Cd394 Cd 0.51029 0.18635 0.31911 0.0
O395 O 0.53486 0.14428 0.33806 0.0
Cd396 Cd 0.50861 0.13769 0.31025 0.0
C397 C 0.4714 0.15632 0.34147 0.0
O398 O 0.51666 0.16737 0.28815 0.0
O399 O 0.48774 0.15171 0.28184 0.0
O400 O 0.53478 0.11422 0.29762 0.0
C401 C 0.50088 0.16538 0.27658 0.0
O402 O 0.47949 0.17384 0.33712 0.0
C403 C 0.52255 0.09988 0.29193 0.0
O404 O 0.47927 0.13952 0.33454 0.0
O405 O 0.50335 0.10243 0.29587 0.0
C406 C 0.81285 0.53914 0.35205 0.0
O407 O 0.79513 0.53149 0.34797 0.0
Cd408 Cd 0.78769 0.50735 0.32082 0.0
O409 O 0.8287 0.53432 0.34117 0.0
Cd410 Cd 0.83654 0.51198 0.3106 0.0
C411 C 0.82144 0.4686 0.33576 0.0
O412 O 0.80518 0.5201 0.29118 0.0
O413 O 0.82379 0.49521 0.27884 0.0
O414 O 0.85823 0.54055 0.29985 0.0
C415 C 0.80814 0.50695 0.27689 0.0
O416 O 0.80307 0.47492 0.33208 0.0
C417 C 0.87319 0.52964 0.29311 0.0
O418 O 0.83721 0.47976 0.33129 0.0
O419 O 0.8719 0.51013 0.29584 0.0
C420 C 0.43331 0.81599 0.34219 0.0
O421 O 0.43761 0.79772 0.3362 0.0
Cd422 Cd 0.46517 0.78997 0.31285 0.0
O423 O 0.44247 0.83164 0.33419 0.0
Cd424 Cd 0.46745 0.83869 0.30524 0.0
C425 C 0.50468 0.8191 0.33554 0.0
O426 O 0.45867 0.80973 0.28247 0.0
O427 O 0.4878 0.82503 0.2762 0.0
O428 O 0.44122 0.86281 0.29402 0.0
C429 C 0.47437 0.81173 0.27075 0.0
O430 O 0.49625 0.80176 0.33106 0.0
C431 C 0.45351 0.87707 0.28821 0.0
O432 O 0.49708 0.83611 0.32884 0.0
O433 O 0.47277 0.87413 0.29146 0.0
C434 C 0.16644 0.43565 0.34826 0.0
O435 O 0.18437 0.44231 0.34343 0.0
Cd436 Cd 0.1907 0.46854 0.318 0.0
O437 O 0.15036 0.4424 0.33889 0.0
Cd438 Cd 0.1421 0.467 0.31026 0.0
C439 C 0.15942 0.50693 0.33867 0.0
O440 O 0.17165 0.45943 0.28778 0.0
O441 O 0.15472 0.48745 0.28085 0.0
O442 O 0.11926 0.43979 0.29873 0.0
C443 C 0.16872 0.47464 0.27565 0.0
O444 O 0.17734 0.50028 0.33353 0.0
C445 C 0.10432 0.45141 0.2933 0.0
O446 O 0.14305 0.49694 0.33373 0.0
O447 O 0.10628 0.47072 0.29693 0.0
C448 C 0.63318 0.54602 0.81229 0.0
O449 O 0.6381 0.54054 0.79399 0.0
Cd450 Cd 0.66013 0.5118 0.78608 0.0
O451 O 0.64112 0.53704 0.82804 0.0
Cd452 Cd 0.66813 0.51037 0.83534 0.0
C453 C 0.63683 0.47347 0.81597 0.0
O454 O 0.69051 0.5178 0.80579 0.0
O455 O 0.6978 0.48995 0.82283 0.0
O456 O 0.68009 0.53598 0.85977 0.0
C457 C 0.70242 0.50237 0.8083 0.0
O458 O 0.64182 0.48099 0.79836 0.0
C459 C 0.68508 0.52332 0.874 0.0
O460 O 0.64314 0.48184 0.83276 0.0
O461 O 0.68101 0.50426 0.87086 0.0
C462 C 0.43811 0.62455 0.813 0.0
O463 O 0.44413 0.62961 0.7949 0.0
Cd464 Cd 0.46803 0.65663 0.78658 0.0
O465 O 0.44435 0.63457 0.82891 0.0
Cd466 Cd 0.46724 0.66497 0.83649 0.0
C467 C 0.50875 0.63943 0.81714 0.0
O468 O 0.45731 0.68557 0.80647 0.0
O469 O 0.48314 0.69732 0.82412 0.0
O470 O 0.44054 0.67458 0.86098 0.0
C471 C 0.4707 0.69972 0.80909 0.0
O472 O 0.50068 0.64313 0.79948 0.0
C473 C 0.45272 0.68063 0.87523 0.0
O474 O 0.49951 0.64472 0.83386 0.0
O475 O 0.47205 0.67809 0.8721 0.0
C476 C 0.34653 0.43108 0.81403 0.0
O477 O 0.34191 0.43701 0.79582 0.0
Cd478 Cd 0.31804 0.46436 0.78887 0.0
O479 O 0.33751 0.43907 0.82973 0.0
Cd480 Cd 0.30942 0.46485 0.83622 0.0
C481 C 0.33978 0.50296 0.81927 0.0
O482 O 0.28662 0.4572 0.80697 0.0
O483 O 0.28288 0.4874 0.82099 0.0
O484 O 0.29578 0.43853 0.85878 0.0
C485 C 0.27606 0.4737 0.80863 0.0
O486 O 0.33465 0.49594 0.8015 0.0
C487 C 0.28992 0.45051 0.87326 0.0
O488 O 0.33424 0.49364 0.83583 0.0
O489 O 0.29429 0.46967 0.87128 0.0
C490 C 0.53804 0.35189 0.81211 0.0
O491 O 0.53051 0.34715 0.79452 0.0
Cd492 Cd 0.50686 0.31923 0.78833 0.0
O493 O 0.53341 0.34133 0.8282 0.0
Cd494 Cd 0.51157 0.31054 0.8365 0.0
C495 C 0.46801 0.3347 0.82173 0.0
O496 O 0.51957 0.28953 0.80597 0.0
O497 O 0.4928 0.28016 0.82379 0.0
O498 O 0.54014 0.29939 0.85787 0.0
C499 C 0.50538 0.27627 0.80915 0.0
O500 O 0.4741 0.33029 0.80343 0.0
C501 C 0.52928 0.29314 0.87308 0.0
O502 O 0.47953 0.33118 0.83744 0.0
O503 O 0.50981 0.2963 0.87204 0.0
C504 C 0.62693 0.43432 0.16601 0.0
O505 O 0.63089 0.44094 0.18415 0.0
Cd506 Cd 0.65439 0.46841 0.19176 0.0
O507 O 0.63665 0.44152 0.15031 0.0
Cd508 Cd 0.66534 0.46657 0.14293 0.0
C509 C 0.6343 0.50561 0.1583 0.0
O510 O 0.68565 0.46028 0.17418 0.0
O511 O 0.69498 0.48666 0.15574 0.0
O512 O 0.67853 0.43853 0.12215 0.0
C513 C 0.69832 0.47504 0.17126 0.0
O514 O 0.63771 0.4984 0.17639 0.0
C515 C 0.68456 0.44948 0.10692 0.0
O516 O 0.64183 0.49676 0.14224 0.0
O517 O 0.68037 0.46877 0.10761 0.0
C518 C 0.54162 0.63136 0.15888 0.0
O519 O 0.53617 0.63705 0.17695 0.0
Cd520 Cd 0.50918 0.66139 0.18395 0.0
O521 O 0.53354 0.63966 0.14283 0.0
Cd522 Cd 0.50876 0.66852 0.13537 0.0
C523 C 0.46964 0.64013 0.15422 0.0
O524 O 0.51746 0.69137 0.16433 0.0
O525 O 0.48864 0.69793 0.14869 0.0
O526 O 0.53513 0.67949 0.1112 0.0
C527 C 0.50203 0.70335 0.16204 0.0
O528 O 0.47704 0.6453 0.17183 0.0
C529 C 0.52286 0.68548 0.09703 0.0
O530 O 0.47891 0.64511 0.13744 0.0
O531 O 0.50358 0.68235 0.1 0.0
C532 C 0.34854 0.54133 0.16224 0.0
O533 O 0.3437 0.53488 0.18023 0.0
Cd534 Cd 0.31776 0.50942 0.18748 0.0
O535 O 0.33908 0.53452 0.14624 0.0
Cd536 Cd 0.31042 0.50951 0.13891 0.0
C537 C 0.33802 0.46965 0.158 0.0
O538 O 0.2878 0.51862 0.16803 0.0
O539 O 0.28073 0.48999 0.15228 0.0
O540 O 0.29936 0.53474 0.11326 0.0
C541 C 0.27554 0.50342 0.16567 0.0
O542 O 0.33264 0.47675 0.17567 0.0
C543 C 0.29361 0.52157 0.09979 0.0
O544 O 0.33361 0.47941 0.14136 0.0
O545 O 0.29689 0.50257 0.10391 0.0
C546 C 0.43617 0.34812 0.16523 0.0
O547 O 0.44309 0.34349 0.18309 0.0
Cd548 Cd 0.46823 0.31702 0.18966 0.0
O549 O 0.44217 0.33812 0.14923 0.0
Cd550 Cd 0.46567 0.30847 0.14136 0.0
C551 C 0.50733 0.33489 0.15758 0.0
O552 O 0.45755 0.28685 0.17144 0.0
O553 O 0.48514 0.27862 0.15432 0.0
O554 O 0.43789 0.29709 0.11918 0.0
C555 C 0.47228 0.27413 0.16855 0.0
O556 O 0.50073 0.33023 0.17564 0.0
C557 C 0.4492 0.29097 0.10426 0.0
O558 O 0.4967 0.33061 0.14144 0.0
O559 O 0.46862 0.29425 0.10584 0.0
C560 C 0.81257 0.62991 0.54459 0.0
O561 O 0.7944 0.6343 0.53831 0.0
Cd562 Cd 0.78703 0.65896 0.51162 0.0
O563 O 0.82832 0.63934 0.53717 0.0
Cd564 Cd 0.83553 0.66761 0.51188 0.0
C565 C 0.81786 0.63842 0.47272 0.0
O566 O 0.80574 0.68966 0.51982 0.0
O567 O 0.8222 0.69667 0.49151 0.0
O568 O 0.85865 0.67951 0.53858 0.0
C569 C 0.80825 0.70169 0.50446 0.0
O570 O 0.80001 0.64325 0.47979 0.0
C571 C 0.87323 0.6853 0.52666 0.0
O572 O 0.83437 0.6438 0.48223 0.0
O573 O 0.87097 0.6817 0.50738 0.0
C574 C 0.81448 0.34869 0.43452 0.0
O575 O 0.79637 0.34477 0.44135 0.0
Cd576 Cd 0.78804 0.31977 0.46751 0.0
O577 O 0.83016 0.33864 0.44122 0.0
Cd578 Cd 0.83713 0.30989 0.46606 0.0
C579 C 0.81987 0.33833 0.50642 0.0
O580 O 0.80636 0.28929 0.45816 0.0
O581 O 0.8242 0.27919 0.48459 0.0
O582 O 0.86031 0.29785 0.43927 0.0
C583 C 0.80903 0.27609 0.47247 0.0
O584 O 0.80184 0.33417 0.49946 0.0
C585 C 0.87487 0.29214 0.45123 0.0
O586 O 0.83617 0.33281 0.49658 0.0
O587 O 0.87257 0.29589 0.47048 0.0
C588 C 0.62799 0.81155 0.43161 0.0
O589 O 0.63359 0.79341 0.4369 0.0
Cd590 Cd 0.65721 0.7866 0.46459 0.0
O591 O 0.63622 0.82748 0.43998 0.0
Cd592 Cd 0.66479 0.83526 0.46493 0.0
C593 C 0.63508 0.81697 0.50335 0.0
O594 O 0.68766 0.80601 0.45748 0.0
O595 O 0.69337 0.82221 0.48622 0.0
O596 O 0.67707 0.85774 0.43781 0.0
C597 C 0.69912 0.80855 0.47327 0.0
O598 O 0.64013 0.79933 0.49594 0.0
C599 C 0.68266 0.87266 0.44938 0.0
O600 O 0.64068 0.83373 0.49439 0.0
O601 O 0.67866 0.87096 0.46865 0.0
C602 C 0.16372 0.62721 0.43842 0.0
O603 O 0.18146 0.63174 0.44572 0.0
Cd604 Cd 0.18797 0.65902 0.46999 0.0
O605 O 0.14772 0.63764 0.44365 0.0
Cd606 Cd 0.13981 0.66794 0.46625 0.0
C607 C 0.15512 0.64293 0.50909 0.0
O608 O 0.17026 0.68887 0.45769 0.0
O609 O 0.15294 0.69842 0.48469 0.0
O610 O 0.11773 0.67867 0.43809 0.0
C611 C 0.16738 0.70221 0.47184 0.0
O612 O 0.17336 0.64732 0.50279 0.0
C613 C 0.10282 0.68515 0.44922 0.0
O614 O 0.13925 0.64681 0.49791 0.0
O615 O 0.10439 0.68241 0.46871 0.0
C616 C 0.34535 0.1638 0.43411 0.0
O617 O 0.33959 0.182 0.43905 0.0
Cd618 Cd 0.31509 0.18918 0.46597 0.0
O619 O 0.3369 0.14796 0.44246 0.0
Cd620 Cd 0.30779 0.14049 0.46688 0.0
C621 C 0.33641 0.15959 0.50563 0.0
O622 O 0.28492 0.1695 0.45843 0.0
O623 O 0.27855 0.15366 0.48723 0.0
O624 O 0.29676 0.11693 0.44015 0.0
C625 C 0.27309 0.16716 0.474 0.0
O626 O 0.33135 0.17714 0.49802 0.0
C627 C 0.29101 0.10235 0.45208 0.0
O628 O 0.33124 0.14272 0.49665 0.0
O629 O 0.29423 0.10484 0.4714 0.0
C630 C 0.16238 0.34899 0.54192 0.0
O631 O 0.18049 0.34314 0.53673 0.0
Cd632 Cd 0.18747 0.31799 0.51039 0.0
O633 O 0.14638 0.34041 0.53404 0.0
Cd634 Cd 0.13884 0.31096 0.51006 0.0
C635 C 0.15789 0.33838 0.47036 0.0
O636 O 0.16781 0.28802 0.51876 0.0
O637 O 0.15186 0.28144 0.4901 0.0
O638 O 0.11495 0.29988 0.53664 0.0
C639 C 0.16531 0.27602 0.50338 0.0
O640 O 0.17548 0.33331 0.47787 0.0
C641 C 0.1005 0.29422 0.52453 0.0
O642 O 0.14107 0.33373 0.47974 0.0
O643 O 0.10319 0.29761 0.50526 0.0
C644 C 0.6267 0.1617 0.53607 0.0
O645 O 0.63049 0.17936 0.52813 0.0
Cd646 Cd 0.65737 0.18704 0.50359 0.0
O647 O 0.63779 0.14598 0.53137 0.0
Cd648 Cd 0.6684 0.13846 0.50891 0.0
C649 C 0.643 0.15236 0.46541 0.0
O650 O 0.68747 0.17035 0.51627 0.0
O651 O 0.69981 0.1513 0.49167 0.0
O652 O 0.67976 0.1175 0.5377 0.0
C653 C 0.70171 0.16723 0.50307 0.0
O654 O 0.64646 0.17089 0.47138 0.0
C655 C 0.68648 0.1024 0.52699 0.0
O656 O 0.64759 0.13687 0.47687 0.0
O657 O 0.68352 0.10329 0.50749 0.0
C658 C 0.34807 0.81528 0.54108 0.0
O659 O 0.34379 0.79695 0.53526 0.0
Cd660 Cd 0.32094 0.78916 0.50738 0.0
O661 O 0.33897 0.83081 0.53284 0.0
Cd662 Cd 0.31082 0.83734 0.50699 0.0
C663 C 0.34242 0.82089 0.4693 0.0
O664 O 0.2894 0.80699 0.51434 0.0
O665 O 0.28277 0.8231 0.48574 0.0
O666 O 0.2978 0.85912 0.53424 0.0
C667 C 0.27773 0.80913 0.49865 0.0
O668 O 0.33854 0.80307 0.47699 0.0
C669 C 0.29149 0.87385 0.52281 0.0
O670 O 0.33505 0.8373 0.47757 0.0
O671 O 0.29529 0.87238 0.50348 0.0
H672 H 0.07555 0.47266 0.26999 0.0
H673 H 0.09471 0.41083 0.28772 0.0
H674 H 0.05301 0.45774 0.24301 0.0
H675 H 0.07251 0.39624 0.26087 0.0
H676 H 0.00428 0.40223 0.21286 0.0
H677 H 0.01997 0.42405 0.24 0.0
H678 H 0.08102 0.40698 0.21829 0.0
H679 H 0.06565 0.3855 0.19128 0.0
C680 C 0.07449 0.45594 0.26856 0.0
C681 C 0.08711 0.4429 0.28076 0.0
C682 C 0.06166 0.44747 0.25313 0.0
C683 C 0.06139 0.42595 0.24982 0.0
C684 C 0.07269 0.41292 0.26309 0.0
C685 C 0.08536 0.42129 0.27845 0.0
C686 C 0.02103 0.40371 0.21348 0.0
C687 C 0.03377 0.39194 0.20015 0.0
C688 C 0.02994 0.41612 0.229 0.0
C689 C 0.05161 0.41682 0.23127 0.0
C690 C 0.06424 0.40645 0.21688 0.0
C691 C 0.05543 0.3942 0.20143 0.0
H692 H 0.57251 0.00128 0.21037 0.0
H693 H 0.5862 0.06319 0.18831 0.0
H694 H 0.5501 0.01606 0.23754 0.0
H695 H 0.56401 0.07767 0.21534 0.0
H696 H 0.56262 0.088 0.28693 0.0
H697 H 0.57658 0.06606 0.25947 0.0
H698 H 0.5145 0.05139 0.23915 0.0
H699 H 0.50022 0.0736 0.26679 0.0
C700 C 0.57018 0.01793 0.21085 0.0
C701 C 0.5813 0.03112 0.1974 0.0
C702 C 0.55741 0.02632 0.22638 0.0
C703 C 0.55561 0.04792 0.22847 0.0
C704 C 0.56529 0.06095 0.21396 0.0
C705 C 0.57797 0.05264 0.19853 0.0
C706 C 0.55187 0.07971 0.277 0.0
C707 C 0.53033 0.08271 0.27886 0.0
C708 C 0.55988 0.06718 0.26132 0.0
C709 C 0.54655 0.05731 0.24724 0.0
C710 C 0.52498 0.05888 0.24996 0.0
C711 C 0.51688 0.07151 0.26576 0.0
H712 H 0.90856 0.60042 0.19134 0.0
H713 H 0.96954 0.57719 0.20712 0.0
H714 H 0.89346 0.58 0.21927 0.0
H715 H 0.9541 0.55642 0.23523 0.0
H716 H 0.90266 0.5101 0.26912 0.0
H717 H 0.92366 0.52616 0.24158 0.0
H718 H 0.90083 0.58651 0.25958 0.0
H719 H 0.88011 0.57075 0.28697 0.0
C720 C 0.91871 0.59063 0.2005 0.0
C721 C 0.94029 0.59064 0.1972 0.0
C722 C 0.91005 0.57903 0.21656 0.0
C723 C 0.92272 0.56705 0.2296 0.0
C724 C 0.94409 0.56568 0.2254 0.0
C725 C 0.95285 0.57748 0.2093 0.0
C726 C 0.90261 0.52685 0.26756 0.0
C727 C 0.88951 0.53915 0.28002 0.0
C728 C 0.91458 0.53598 0.25179 0.0
C729 C 0.91344 0.55746 0.24829 0.0
C730 C 0.90164 0.56984 0.26179 0.0
C731 C 0.88986 0.56081 0.27752 0.0
H732 H 0.4754 0.90245 0.26184 0.0
H733 H 0.41368 0.89045 0.28547 0.0
H734 H 0.46049 0.9247 0.23463 0.0
H735 H 0.39907 0.91253 0.25845 0.0
H736 H 0.4014 0.97507 0.20702 0.0
H737 H 0.42429 0.96112 0.23422 0.0
H738 H 0.41088 0.89891 0.2135 0.0
H739 H 0.38819 0.91256 0.1865 0.0
C740 C 0.45879 0.90514 0.2617 0.0
C741 C 0.44566 0.89454 0.27562 0.0
C742 C 0.45033 0.91781 0.24615 0.0
C743 C 0.42872 0.92008 0.24455 0.0
C744 C 0.4158 0.91091 0.25948 0.0
C745 C 0.42418 0.89829 0.2749 0.0
C746 C 0.40392 0.95847 0.20785 0.0
C747 C 0.39284 0.94487 0.1948 0.0
C748 C 0.41695 0.95055 0.22339 0.0
C749 C 0.41909 0.92903 0.22586 0.0
C750 C 0.40936 0.91558 0.2118 0.0
C751 C 0.39639 0.92342 0.19639 0.0
H752 H 0.07619 0.50629 0.71223 0.0
H753 H 0.09392 0.56774 0.69185 0.0
H754 H 0.05544 0.52178 0.74037 0.0
H755 H 0.07355 0.5829 0.71981 0.0
H756 H 0.0694 0.59727 0.78839 0.0
H757 H 0.08398 0.57581 0.76094 0.0
H758 H 0.02287 0.55286 0.74594 0.0
H759 H 0.00794 0.57466 0.77353 0.0
C760 C 0.07519 0.52303 0.71338 0.0
C761 C 0.0869 0.53581 0.70002 0.0
C762 C 0.0634 0.53184 0.72948 0.0
C763 C 0.06332 0.55344 0.73236 0.0
C764 C 0.07367 0.56617 0.71803 0.0
C765 C 0.08527 0.55746 0.702 0.0
C766 C 0.05904 0.58735 0.7796 0.0
C767 C 0.03748 0.58789 0.78293 0.0
C768 C 0.06741 0.57511 0.76387 0.0
C769 C 0.05445 0.56304 0.75121 0.0
C770 C 0.0331 0.56213 0.75554 0.0
C771 C 0.02463 0.57455 0.77132 0.0
H772 H 0.37687 0.07029 0.78579 0.0
H773 H 0.40072 0.01008 0.76818 0.0
H774 H 0.39753 0.08644 0.75861 0.0
H775 H 0.42166 0.02653 0.7408 0.0
H776 H 0.46753 0.07725 0.707 0.0
H777 H 0.45152 0.05619 0.73455 0.0
H778 H 0.39143 0.08123 0.71868 0.0
H779 H 0.40712 0.10198 0.69133 0.0
C780 C 0.38686 0.06052 0.7764 0.0
C781 C 0.38694 0.03887 0.77895 0.0
C782 C 0.3986 0.06978 0.76077 0.0
C783 C 0.41079 0.05764 0.74738 0.0
C784 C 0.41227 0.03617 0.7509 0.0
C785 C 0.40035 0.02681 0.76658 0.0
C786 C 0.45084 0.07782 0.70908 0.0
C787 C 0.43861 0.09147 0.69718 0.0
C788 C 0.44173 0.06583 0.72486 0.0
C789 C 0.42036 0.06751 0.72896 0.0
C790 C 0.40803 0.08001 0.71608 0.0
C791 C 0.41702 0.09181 0.70035 0.0
H792 H 0.88645 0.40964 0.68789 0.0
H793 H 0.90491 0.47105 0.70772 0.0
H794 H 0.9078 0.39445 0.7151 0.0
H795 H 0.92658 0.45554 0.73502 0.0
H796 H 0.97395 0.40119 0.76729 0.0
H797 H 0.95933 0.42278 0.73938 0.0
H798 H 0.8976 0.40362 0.75709 0.0
H799 H 0.91188 0.38241 0.78487 0.0
C800 C 0.89551 0.41989 0.69767 0.0
C801 C 0.89375 0.44155 0.69587 0.0
C802 C 0.90769 0.41117 0.71325 0.0
C803 C 0.91848 0.42391 0.72722 0.0
C804 C 0.91832 0.44549 0.72437 0.0
C805 C 0.90598 0.4543 0.70875 0.0
C806 C 0.95724 0.40212 0.76559 0.0
C807 C 0.94406 0.3899 0.77808 0.0
C808 C 0.94894 0.41438 0.74962 0.0
C809 C 0.92745 0.41444 0.74602 0.0
C810 C 0.91426 0.40354 0.75949 0.0
C811 C 0.92246 0.39146 0.77541 0.0
H812 H 0.60011 0.90562 0.78793 0.0
H813 H 0.57773 0.96616 0.76957 0.0
H814 H 0.57942 0.88967 0.76072 0.0
H815 H 0.55679 0.94992 0.74215 0.0
H816 H 0.51037 0.90088 0.70784 0.0
H817 H 0.5266 0.9215 0.73551 0.0
H818 H 0.58596 0.89391 0.72104 0.0
H819 H 0.57003 0.87355 0.69357 0.0
C820 C 0.59043 0.9155 0.77837 0.0
C821 C 0.59078 0.93718 0.7807 0.0
C822 C 0.57868 0.90636 0.76271 0.0
C823 C 0.56694 0.91865 0.74909 0.0
C824 C 0.56585 0.94017 0.75242 0.0
C825 C 0.57776 0.94941 0.76813 0.0
C826 C 0.52697 0.89963 0.71027 0.0
C827 C 0.53889 0.8854 0.69871 0.0
C828 C 0.53619 0.91136 0.72612 0.0
C829 C 0.55738 0.90887 0.73065 0.0
C830 C 0.56948 0.89575 0.71813 0.0
C831 C 0.56037 0.8842 0.70231 0.0
H832 H 0.20935 0.004 0.40133 0.0
H833 H 0.19027 0.06608 0.38439 0.0
H834 H 0.23639 0.01868 0.42395 0.0
H835 H 0.21717 0.08043 0.40673 0.0
H836 H 0.28762 0.09062 0.41183 0.0
H837 H 0.26066 0.06876 0.39686 0.0
H838 H 0.23841 0.05341 0.45814 0.0
H839 H 0.26552 0.07556 0.47343 0.0
C840 C 0.21048 0.0207 0.40292 0.0
C841 C 0.19788 0.03391 0.39089 0.0
C842 C 0.22594 0.02903 0.4158 0.0
C843 C 0.22885 0.05059 0.41675 0.0
C844 C 0.2152 0.06373 0.40606 0.0
C845 C 0.19983 0.05549 0.39331 0.0
C846 C 0.27739 0.08218 0.4222 0.0
C847 C 0.2785 0.08502 0.44379 0.0
C848 C 0.26198 0.0697 0.41361 0.0
C849 C 0.24746 0.05972 0.42641 0.0
C850 C 0.24954 0.06101 0.44805 0.0
C851 C 0.26505 0.07361 0.45673 0.0
H852 H 0.88483 0.28536 0.41087 0.0
H853 H 0.90302 0.2689 0.47334 0.0
H854 H 0.90679 0.25779 0.39721 0.0
H855 H 0.9253 0.2412 0.45936 0.0
H856 H 0.9741 0.20963 0.40387 0.0
H857 H 0.95876 0.23739 0.42515 0.0
H858 H 0.89746 0.21519 0.40986 0.0
H859 H 0.91248 0.18756 0.38889 0.0
C860 C 0.89393 0.27623 0.42167 0.0
C861 C 0.89198 0.27911 0.44319 0.0
C862 C 0.90646 0.26045 0.41383 0.0
C863 C 0.91741 0.24735 0.42732 0.0
C864 C 0.91693 0.2512 0.44874 0.0
C865 C 0.90425 0.26703 0.45667 0.0
C866 C 0.95738 0.21026 0.40567 0.0
C867 C 0.94446 0.19661 0.3945 0.0
C868 C 0.94867 0.22614 0.41777 0.0
C869 C 0.92702 0.22844 0.41877 0.0
C870 C 0.91422 0.21374 0.4091 0.0
C871 C 0.92284 0.19793 0.39714 0.0
H872 H 0.68944 0.88141 0.40878 0.0
H873 H 0.70618 0.90134 0.47063 0.0
H874 H 0.71705 0.9028 0.39437 0.0
H875 H 0.73393 0.92312 0.45588 0.0
H876 H 0.76643 0.97114 0.40251 0.0
H877 H 0.73886 0.95538 0.42376 0.0
H878 H 0.75861 0.89453 0.40399 0.0
H879 H 0.78606 0.90997 0.38307 0.0
C880 C 0.69868 0.89074 0.41928 0.0
C881 C 0.69581 0.88946 0.44087 0.0
C882 C 0.71451 0.90293 0.41101 0.0
C883 C 0.72773 0.91423 0.4241 0.0
C884 C 0.7239 0.91443 0.44556 0.0
C885 C 0.70801 0.90205 0.45393 0.0
C886 C 0.76528 0.95438 0.40325 0.0
C887 C 0.77822 0.94179 0.3909 0.0
C888 C 0.7495 0.94542 0.41534 0.0
C889 C 0.74652 0.92384 0.41512 0.0
C890 C 0.7605 0.91125 0.40415 0.0
C891 C 0.77624 0.92011 0.39223 0.0
H892 H 0.06752 0.78601 0.37846 0.0
H893 H 0.00616 0.76989 0.40058 0.0
H894 H 0.08237 0.75845 0.39952 0.0
H895 H 0.02135 0.74219 0.42201 0.0
H896 H 0.07396 0.70954 0.46913 0.0
H897 H 0.05273 0.73688 0.45309 0.0
H898 H 0.07377 0.71748 0.39251 0.0
H899 H 0.09469 0.69026 0.40824 0.0
C900 C 0.05723 0.7769 0.38818 0.0
C901 C 0.03564 0.77993 0.38763 0.0
C902 C 0.06575 0.76108 0.40015 0.0
C903 C 0.0529 0.74805 0.41198 0.0
C904 C 0.03149 0.75204 0.41288 0.0
C905 C 0.02287 0.7679 0.4007 0.0
C906 C 0.07353 0.71074 0.45236 0.0
C907 C 0.08623 0.69798 0.43994 0.0
C908 C 0.06145 0.72638 0.44324 0.0
C909 C 0.06204 0.72942 0.42168 0.0
C910 C 0.07337 0.71558 0.40923 0.0
C911 C 0.08527 0.69997 0.41825 0.0
H912 H 0.18896 0.90793 0.59199 0.0
H913 H 0.20697 0.96975 0.57296 0.0
H914 H 0.21589 0.89331 0.56984 0.0
H915 H 0.23402 0.95481 0.5505 0.0
H916 H 0.26632 0.90151 0.50214 0.0
H917 H 0.23833 0.92244 0.51766 0.0
H918 H 0.2578 0.90304 0.5787 0.0
H919 H 0.28564 0.8825 0.56354 0.0
C920 C 0.19829 0.91839 0.58266 0.0
C921 C 0.19606 0.94 0.58446 0.0
C922 C 0.21371 0.91 0.57003 0.0
C923 C 0.2271 0.92301 0.55882 0.0
C924 C 0.22381 0.94454 0.55908 0.0
C925 C 0.20834 0.95302 0.57187 0.0
C926 C 0.26497 0.90225 0.51889 0.0
C927 C 0.27799 0.89016 0.53163 0.0
C928 C 0.24896 0.91413 0.5277 0.0
C929 C 0.24584 0.91393 0.54926 0.0
C930 C 0.25981 0.90315 0.56199 0.0
C931 C 0.27576 0.89146 0.55328 0.0
H932 H 0.00334 0.21076 0.57503 0.0
H933 H 0.06609 0.19087 0.58821 0.0
H934 H 0.01708 0.23875 0.55292 0.0
H935 H 0.07952 0.21868 0.56636 0.0
H936 H 0.08839 0.28999 0.56465 0.0
H937 H 0.06669 0.26247 0.57894 0.0
H938 H 0.05217 0.24132 0.51713 0.0
H939 H 0.07409 0.26899 0.50254 0.0
C940 C 0.01996 0.21191 0.57267 0.0
C941 C 0.03367 0.1988 0.58353 0.0
C942 C 0.02776 0.22791 0.5601 0.0
C943 C 0.04927 0.23081 0.55825 0.0
C944 C 0.06285 0.21669 0.56771 0.0
C945 C 0.05514 0.20081 0.58018 0.0
C946 C 0.08012 0.2799 0.55403 0.0
C947 C 0.08315 0.28148 0.53249 0.0
C948 C 0.06772 0.26419 0.56223 0.0
C949 C 0.05803 0.24983 0.54907 0.0
C950 C 0.0595 0.25235 0.52749 0.0
C951 C 0.07199 0.26818 0.51921 0.0
H952 H 0.77167 0.0067 0.5765 0.0
H953 H 0.78877 0.06809 0.59756 0.0
H954 H 0.74396 0.02195 0.55513 0.0
H955 H 0.76123 0.08302 0.57653 0.0
H956 H 0.69316 0.0964 0.56814 0.0
H957 H 0.72069 0.07598 0.58396 0.0
H958 H 0.73796 0.0519 0.52388 0.0
H959 H 0.71028 0.07261 0.50773 0.0
C960 C 0.7699 0.02342 0.57614 0.0
C961 C 0.7822 0.03619 0.58892 0.0
C962 C 0.75403 0.03208 0.56399 0.0
C963 C 0.75028 0.05355 0.56463 0.0
C964 C 0.76362 0.06637 0.57612 0.0
C965 C 0.77944 0.05781 0.58807 0.0
C966 C 0.70248 0.08645 0.55827 0.0
C967 C 0.69974 0.08635 0.53664 0.0
C968 C 0.7183 0.07485 0.56734 0.0
C969 C 0.73161 0.06277 0.55503 0.0
C970 C 0.72789 0.06121 0.53362 0.0
C971 C 0.71205 0.07301 0.52444 0.0
H972 H 0.88401 0.69026 0.56699 0.0
H973 H 0.90042 0.71011 0.50498 0.0
H974 H 0.90558 0.7177 0.58145 0.0
H975 H 0.92232 0.73769 0.51977 0.0
H976 H 0.97157 0.76775 0.57541 0.0
H977 H 0.95634 0.74076 0.55316 0.0
H978 H 0.89496 0.76052 0.57133 0.0
H979 H 0.90987 0.7874 0.59331 0.0
C980 C 0.89265 0.70013 0.55644 0.0
C981 C 0.8903 0.69822 0.53485 0.0
C982 C 0.90494 0.71583 0.56474 0.0
C983 C 0.91524 0.72984 0.55165 0.0
C984 C 0.91443 0.72699 0.53007 0.0
C985 C 0.90198 0.71121 0.52168 0.0
C986 C 0.95482 0.76676 0.5741 0.0
C987 C 0.94189 0.77948 0.58633 0.0
C988 C 0.94618 0.75133 0.56141 0.0
C989 C 0.92459 0.74855 0.56089 0.0
C990 C 0.91169 0.76237 0.5717 0.0
C991 C 0.92025 0.77774 0.58424 0.0
H992 H 0.4697 0.26711 0.07535 0.0
H993 H 0.40835 0.28496 0.09608 0.0
H994 H 0.45424 0.23959 0.05387 0.0
H995 H 0.39322 0.25756 0.07496 0.0
H996 H 0.40049 0.20766 0.00659 0.0
H997 H 0.42225 0.23488 0.02217 0.0
H998 H 0.4018 0.21611 0.08314 0.0
H999 H 0.38037 0.189 0.06789 0.0
C1000 C 0.45295 0.26556 0.07488 0.0
C1001 C 0.44024 0.27799 0.08762 0.0
C1002 C 0.44417 0.24981 0.06267 0.0
C1003 C 0.42266 0.24634 0.06319 0.0
C1004 C 0.40991 0.25981 0.07461 0.0
C1005 C 0.41858 0.27552 0.08663 0.0
C1006 C 0.40118 0.20895 0.02335 0.0
C1007 C 0.3885 0.19641 0.03603 0.0
C1008 C 0.41356 0.22453 0.03219 0.0
C1009 C 0.41328 0.22771 0.05374 0.0
C1010 C 0.40198 0.21407 0.06643 0.0
C1011 C 0.38978 0.19853 0.05769 0.0
H1012 H 0.40368 0.76361 0.97365 0.0
H1013 H 0.38839 0.78292 0.91122 0.0
H1014 H 0.42531 0.73548 0.95944 0.0
H1015 H 0.40971 0.75495 0.89734 0.0
H1016 H 0.47461 0.70543 0.90209 0.0
H1017 H 0.45994 0.73265 0.92445 0.0
H1018 H 0.39816 0.71152 0.90963 0.0
H1019 H 0.41254 0.68441 0.88749 0.0
C1020 C 0.40544 0.76227 0.95698 0.0
C1021 C 0.39416 0.77529 0.94352 0.0
C1022 C 0.41773 0.74618 0.94892 0.0
C1023 C 0.41882 0.74307 0.92739 0.0
C1024 C 0.40889 0.75706 0.91401 0.0
C1025 C 0.39674 0.77305 0.92199 0.0
C1026 C 0.45793 0.70614 0.90421 0.0
C1027 C 0.44469 0.69299 0.89282 0.0
C1028 C 0.44961 0.7217 0.91696 0.0
C1029 C 0.42802 0.72414 0.91846 0.0
C1030 C 0.41489 0.70988 0.90856 0.0
C1031 C 0.42314 0.6944 0.89591 0.0
H1032 H 0.28235 0.41021 0.88257 0.0
H1033 H 0.26618 0.47268 0.90109 0.0
H1034 H 0.25437 0.39661 0.904 0.0
H1035 H 0.23804 0.45872 0.92294 0.0
H1036 H 0.20654 0.40499 0.97228 0.0
H1037 H 0.23362 0.42645 0.95601 0.0
H1038 H 0.21247 0.40713 0.89551 0.0
H1039 H 0.1855 0.38595 0.91147 0.0
C1040 C 0.27313 0.42103 0.89158 0.0
C1041 C 0.27629 0.44254 0.88992 0.0
C1042 C 0.25709 0.41321 0.90378 0.0
C1043 C 0.24396 0.4267 0.91473 0.0
C1044 C 0.24801 0.44811 0.9145 0.0
C1045 C 0.2641 0.45602 0.90209 0.0
C1046 C 0.20724 0.40591 0.9555 0.0
C1047 C 0.19412 0.39354 0.94313 0.0
C1048 C 0.22273 0.41814 0.94625 0.0
C1049 C 0.22518 0.41807 0.92461 0.0
C1050 C 0.21092 0.4072 0.91227 0.0
C1051 C 0.19549 0.39511 0.92142 0.0
H1052 H 0.59881 0.19085 0.90924 0.0
H1053 H 0.57726 0.20877 0.97026 0.0
H1054 H 0.5782 0.21846 0.89384 0.0
H1055 H 0.55632 0.23655 0.95454 0.0
H1056 H 0.50962 0.27004 0.90317 0.0
H1057 H 0.52542 0.24255 0.92439 0.0
H1058 H 0.58583 0.25894 0.90038 0.0
H1059 H 0.57036 0.28629 0.87947 0.0
C1060 C 0.58931 0.20039 0.91934 0.0
C1061 C 0.58989 0.19782 0.94099 0.0
C1062 C 0.5776 0.21625 0.91051 0.0
C1063 C 0.5661 0.22981 0.92309 0.0
C1064 C 0.5652 0.22629 0.94458 0.0
C1065 C 0.5771 0.21039 0.95352 0.0
C1066 C 0.52634 0.26813 0.9029 0.0
C1067 C 0.53873 0.28012 0.88943 0.0
C1068 C 0.53531 0.25239 0.91498 0.0
C1069 C 0.55671 0.24845 0.91358 0.0
C1070 C 0.56922 0.26149 0.90139 0.0
C1071 C 0.56035 0.2772 0.8895 0.0
H1072 H 0.68933 0.56279 0.88797 0.0
H1073 H 0.7101 0.49999 0.89935 0.0
H1074 H 0.71657 0.5759 0.91075 0.0
H1075 H 0.73754 0.51339 0.92226 0.0
H1076 H 0.76486 0.57237 0.97414 0.0
H1077 H 0.73768 0.55007 0.95932 0.0
H1078 H 0.76195 0.56146 0.89795 0.0
H1079 H 0.78895 0.58368 0.91249 0.0
C1080 C 0.69932 0.55175 0.89581 0.0
C1081 C 0.69774 0.53039 0.89173 0.0
C1082 C 0.71486 0.55927 0.90881 0.0
C1083 C 0.72905 0.54559 0.918 0.0
C1084 C 0.7266 0.52413 0.91533 0.0
C1085 C 0.71091 0.51653 0.90231 0.0
C1086 C 0.76485 0.56948 0.95757 0.0
C1087 C 0.77885 0.57995 0.94441 0.0
C1088 C 0.74932 0.55678 0.94916 0.0
C1089 C 0.74785 0.55429 0.92759 0.0
C1090 C 0.76292 0.56323 0.91466 0.0
C1091 C 0.77831 0.57593 0.92299 0.0
H1092 H 0.50104 0.71251 0.07241 0.0
H1093 H 0.56263 0.68819 0.0834 0.0
H1094 H 0.51605 0.74029 0.05093 0.0
H1095 H 0.57735 0.71579 0.06205 0.0
H1096 H 0.57576 0.76873 0.0013 0.0
H1097 H 0.55255 0.74139 0.01441 0.0
H1098 H 0.56544 0.76059 0.07721 0.0
H1099 H 0.58851 0.78775 0.06438 0.0
C1100 C 0.51764 0.71263 0.06962 0.0
C1101 C 0.53072 0.69834 0.07975 0.0
C1102 C 0.52616 0.72852 0.05741 0.0
C1103 C 0.54776 0.73008 0.0551 0.0
C1104 C 0.56062 0.71479 0.06371 0.0
C1105 C 0.55219 0.69904 0.0759 0.0
C1106 C 0.57306 0.76757 0.01786 0.0
C1107 C 0.58412 0.78021 0.03186 0.0
C1108 C 0.55984 0.75194 0.02529 0.0
C1109 C 0.55748 0.74898 0.04673 0.0
C1110 C 0.56714 0.76268 0.06059 0.0
C1111 C 0.58031 0.77819 0.05324 0.0
H1112 H 0.18821 0.57818 0.06048 0.0
H1113 H 0.2179 0.57695 0.0003 0.0
H1114 H 0.21502 0.555 0.0741 0.0
H1115 H 0.24508 0.55415 0.01426 0.0
H1116 H 0.29303 0.5595 0.08128 0.0
H1117 H 0.2664 0.57276 0.0577 0.0
H1118 H 0.2378 0.51228 0.05556 0.0
H1119 H 0.2648 0.49869 0.07878 0.0
C1120 C 0.20009 0.57245 0.05003 0.0
C1121 C 0.20103 0.57938 0.02938 0.0
C1122 C 0.21536 0.5592 0.0578 0.0
C1123 C 0.23193 0.55291 0.04513 0.0
C1124 C 0.23225 0.55872 0.02416 0.0
C1125 C 0.21671 0.57168 0.01623 0.0
C1126 C 0.28151 0.54885 0.07521 0.0
C1127 C 0.28092 0.5281 0.08189 0.0
C1128 C 0.26635 0.55642 0.06172 0.0
C1129 C 0.25025 0.54345 0.05493 0.0
C1130 C 0.25028 0.52242 0.06051 0.0
C1131 C 0.26572 0.5147 0.07372 0.0
H1132 H 0.69321 0.40869 0.10125 0.0
H1133 H 0.70729 0.4696 0.07677 0.0
H1134 H 0.72103 0.3939 0.08046 0.0
H1135 H 0.7353 0.45446 0.05563 0.0
H1136 H 0.76898 0.40291 0.00924 0.0
H1137 H 0.74153 0.42374 0.02567 0.0
H1138 H 0.76134 0.40216 0.08589 0.0
H1139 H 0.78864 0.38161 0.06976 0.0
C1140 C 0.70197 0.41888 0.09112 0.0
C1141 C 0.69823 0.44037 0.09087 0.0
C1142 C 0.71797 0.4104 0.0793 0.0
C1143 C 0.73051 0.42315 0.06685 0.0
C1144 C 0.72586 0.44439 0.06525 0.0
C1145 C 0.70983 0.45298 0.07727 0.0
C1146 C 0.76784 0.40312 0.02602 0.0
C1147 C 0.78076 0.39039 0.03821 0.0
C1148 C 0.75212 0.41498 0.03536 0.0
C1149 C 0.74915 0.41412 0.05694 0.0
C1150 C 0.76314 0.40275 0.06916 0.0
C1151 C 0.77881 0.39106 0.05992 0.0
H1152 H 0.94835 0.21707 0.28359 0.0
H1153 H 0.00938 0.22575 0.31014 0.0
H1154 H 0.95528 0.24479 0.25872 0.0
H1155 H 0.01623 0.25357 0.28529 0.0
H1156 H 0.0284 0.27998 0.21908 0.0
H1157 H 0.02151 0.25511 0.24682 0.0
H1158 H 0.96143 0.28312 0.2572 0.0
H1159 H 0.96824 0.30797 0.22937 0.0
C1160 C 0.96317 0.22501 0.28422 0.0
C1161 C 0.97837 0.21917 0.29872 0.0
C1162 C 0.96708 0.24095 0.27006 0.0
C1163 C 0.98631 0.25128 0.27006 0.0
C1164 C 0.00136 0.24572 0.28483 0.0
C1165 C -0.00261 0.22987 0.29909 0.0
C1166 C 0.01378 0.28091 0.22737 0.0
C1167 C -0.00119 0.29584 0.22199 0.0
C1168 C 0.00989 0.26676 0.24332 0.0
C1169 C -0.00908 0.26718 0.25411 0.0
C1170 C 0.9761 0.28234 0.24899 0.0
C1171 C 0.98004 0.29659 0.23313 0.0
H1172 H 0.73814 -0.00563 0.3158 0.0
H1173 H 0.77313 0.9616 0.2688 0.0
H1174 H 0.71065 0.00138 0.29036 0.0
H1175 H 0.74593 0.96917 0.24336 0.0
H1176 H 0.70493 0.01645 0.20376 0.0
H1177 H 0.73113 0.00879 0.23018 0.0
H1178 H 0.68586 0.97384 0.26514 0.0
H1179 H 0.65966 0.98095 0.2384 0.0
C1180 C 0.73993 -0.0113 0.30006 0.0
C1181 C 0.7577 0.97746 0.29421 0.0
C1182 C 0.72423 -0.00736 0.28562 0.0
C1183 C 0.72637 0.98582 0.26505 0.0
C1184 C 0.74409 0.97459 0.25918 0.0
C1185 C 0.75954 0.97023 0.27372 0.0
C1186 C 0.70054 0.00721 0.21712 0.0
C1187 C 0.68032 -0.00075 0.21908 0.0
C1188 C 0.71552 0.00279 0.23212 0.0
C1189 C 0.71037 -0.00924 0.24952 0.0
C1190 C 0.69006 0.98319 0.2518 0.0
C1191 C 0.67518 0.98721 0.23653 0.0
H1192 H 0.94909 0.70066 0.21216 0.0
H1193 H 0.00967 0.67311 0.22098 0.0
H1194 H 0.95627 0.72533 0.23999 0.0
H1195 H 0.0168 0.69782 0.24885 0.0
H1196 H 0.02918 0.76377 0.2762 0.0
H1197 H 0.02226 0.73661 0.2507 0.0
H1198 H 0.96228 0.72552 0.27871 0.0
H1199 H 0.96914 0.7527 0.30423 0.0
C1200 C 0.96389 0.69981 0.22011 0.0
C1201 C 0.97885 0.68503 0.21436 0.0
C1202 C 0.96793 0.71385 0.23611 0.0
C1203 C 0.98708 0.71346 0.24653 0.0
C1204 C 0.00197 0.69854 0.24093 0.0
C1205 C -0.00215 0.68437 0.22506 0.0
C1206 C 0.01458 0.75544 0.27699 0.0
C1207 C -0.00034 0.76041 0.29212 0.0
C1208 C 0.01068 0.73984 0.26248 0.0
C1209 C -0.00829 0.72905 0.26273 0.0
C1210 C 0.97694 0.73377 0.27807 0.0
C1211 C 0.98092 0.74924 0.29271 0.0
H1212 H 0.21683 0.02934 0.27753 0.0
H1213 H 0.22807 0.96999 0.30678 0.0
H1214 H 0.24409 0.02201 0.25222 0.0
H1215 H 0.25542 0.96276 0.28151 0.0
H1216 H 0.2808 0.94797 0.21556 0.0
H1217 H 0.25623 0.95558 0.2434 0.0
H1218 H 0.28251 0.01695 0.24986 0.0
H1219 H 0.30705 0.00941 0.22192 0.0
C1220 C 0.22523 0.01481 0.27865 0.0
C1221 C 0.22024 0.00019 0.29405 0.0
C1222 C 0.24091 0.01067 0.26424 0.0
C1223 C 0.2518 -0.00822 0.26488 0.0
C1224 C 0.2471 0.97734 0.28053 0.0
C1225 C 0.23152 0.98154 0.29504 0.0
C1226 C 0.28141 0.96304 0.223 0.0
C1227 C 0.29577 0.97813 0.2165 0.0
C1228 C 0.26743 0.96734 0.23902 0.0
C1229 C 0.26745 0.98686 0.24875 0.0
C1230 C 0.28203 0.00184 0.24247 0.0
C1231 C 0.29611 -0.00251 0.22655 0.0
H1232 H 0.98177 0.66147 0.74457 0.0
H1233 H 0.01517 0.70958 0.77729 0.0
H1234 H 0.97317 0.68629 0.717 0.0
H1235 H 0.00607 0.73441 0.75001 0.0
H1236 H 0.95942 0.77406 0.71015 0.0
H1237 H 0.96759 0.74808 0.73663 0.0
H1238 H -0.00232 0.71013 0.69031 0.0
H1239 H -0.00998 0.73637 0.66379 0.0
C1240 C 0.98724 0.67733 0.74585 0.0
C1241 C -0.00088 0.68366 0.763 0.0
C1242 C 0.98237 0.69143 0.73011 0.0
C1243 C -0.01107 0.71215 0.73157 0.0
C1244 C 0.00079 0.71849 0.74869 0.0
C1245 C 0.00605 0.7043 0.76419 0.0
C1246 C 0.96764 0.7601 0.70558 0.0
C1247 C 0.97416 0.75719 0.68497 0.0
C1248 C 0.97238 0.74535 0.72072 0.0
C1249 C 0.98328 0.72727 0.71538 0.0
C1250 C -0.01078 0.724 0.69468 0.0
C1251 C 0.98489 0.73898 0.6796 0.0
H1252 H 0.23743 -0.00899 0.66177 0.0
H1253 H 0.20107 0.95869 0.70806 0.0
H1254 H 0.26385 -0.00118 0.68806 0.0
H1255 H 0.22722 0.967 0.73433 0.0
H1256 H 0.26597 0.01388 0.77551 0.0
H1257 H 0.24066 0.00523 0.74852 0.0
H1258 H 0.28853 0.97399 0.7135 0.0
H1259 H 0.31383 0.98213 0.74076 0.0
C1260 C 0.23513 0.98558 0.67753 0.0
C1261 C 0.21727 0.97426 0.68294 0.0
C1262 C 0.25021 -0.01001 0.69247 0.0
C1263 C 0.24739 0.98354 0.71309 0.0
C1264 C 0.2296 0.97218 0.71849 0.0
C1265 C 0.21475 0.96737 0.70348 0.0
C1266 C 0.27109 0.00522 0.76203 0.0
C1267 C 0.29181 -0.00138 0.76018 0.0
C1268 C 0.25663 0.00022 0.7467 0.0
C1269 C 0.26277 -0.01104 0.72909 0.0
C1270 C 0.28355 0.98273 0.72698 0.0
C1271 C 0.29793 0.98733 0.74255 0.0
H1272 H 0.03124 0.21724 0.69575 0.0
H1273 H 0.96972 0.22458 0.66993 0.0
H1274 H 0.02379 0.24435 0.72112 0.0
H1275 H 0.96235 0.25181 0.69525 0.0
H1276 H 0.95004 0.27775 0.76147 0.0
H1277 H 0.95733 0.25309 0.73366 0.0
H1278 H 0.01681 0.28235 0.72313 0.0
H1279 H 0.00962 0.30696 0.75105 0.0
C1280 C 0.01619 0.22475 0.6954 0.0
C1281 C 0.00103 0.21872 0.68093 0.0
C1282 C 0.01197 0.24034 0.70984 0.0
C1283 C -0.00753 0.25014 0.71017 0.0
C1284 C 0.97743 0.24436 0.69548 0.0
C1285 C 0.9817 0.22885 0.68094 0.0
C1286 C 0.96462 0.27899 0.75315 0.0
C1287 C 0.97931 0.2942 0.7585 0.0
C1288 C 0.96873 0.26496 0.73715 0.0
C1289 C 0.98765 0.2658 0.72628 0.0
C1290 C 0.00219 0.28123 0.73141 0.0
C1291 C -0.00197 0.29535 0.74732 0.0
H1292 H 0.75555 0.96757 0.67181 0.0
H1293 H 0.76248 0.02865 0.69875 0.0
H1294 H 0.72788 0.9598 0.6966 0.0
H1295 H 0.73485 0.02082 0.72352 0.0
H1296 H 0.67154 0.00589 0.75196 0.0
H1297 H 0.69642 0.01342 0.72433 0.0
H1298 H 0.72659 0.95456 0.73538 0.0
H1299 H 0.70171 0.94696 0.76298 0.0
C1300 C 0.75107 0.97937 0.68293 0.0
C1301 C 0.76123 -0.00132 0.68343 0.0
C1302 C 0.73532 0.97488 0.69715 0.0
C1303 C 0.72929 -0.01031 0.71197 0.0
C1304 C 0.73908 0.00919 0.71212 0.0
C1305 C 0.75495 0.01362 0.69803 0.0
C1306 C 0.68339 -0.0055 0.7484 0.0
C1307 C 0.68477 0.97588 0.75969 0.0
C1308 C 0.69766 -0.00114 0.73265 0.0
C1309 C 0.71343 0.98459 0.72779 0.0
C1310 C 0.71446 0.96574 0.7387 0.0
C1311 C 0.70031 0.96145 0.75457 0.0
H1312 H 0.23735 0.31768 -0.00628 0.0
H1313 H 0.20057 0.27073 0.96297 0.0
H1314 H 0.2641 0.29164 0.00131 0.0
H1315 H 0.22705 0.24473 0.97106 0.0
H1316 H 0.2665 0.20412 0.01736 0.0
H1317 H 0.24119 0.23128 0.00928 0.0
H1318 H 0.2884 0.2657 0.97641 0.0
H1319 H 0.3137 0.23828 0.98399 0.0
C1320 C 0.23504 0.30184 -0.01144 0.0
C1321 C 0.21695 0.29617 0.97777 0.0
C1322 C 0.25031 0.28703 -0.00715 0.0
C1323 C 0.24744 0.2663 0.98682 0.0
C1324 C 0.22945 0.26066 0.97593 0.0
C1325 C 0.21442 0.27552 0.97123 0.0
C1326 C 0.2715 0.21754 0.00851 0.0
C1327 C 0.29202 0.21914 0.00123 0.0
C1328 C 0.25702 0.23296 0.00384 0.0
C1329 C 0.26296 0.25041 -0.00778 0.0
C1330 C 0.28358 0.25234 0.98543 0.0
C1331 C 0.29797 0.23669 -0.01029 0.0
H1332 H 0.2208 0.69327 0.03029 0.0
H1333 H 0.23033 0.66594 0.96974 0.0
H1334 H 0.24771 0.71892 0.02288 0.0
H1335 H 0.25736 0.6915 0.96243 0.0
H1336 H 0.28245 0.75751 0.94852 0.0
H1337 H 0.25805 0.72956 0.95621 0.0
H1338 H 0.28574 0.72192 0.0168 0.0
H1339 H 0.31006 0.75001 0.00921 0.0
C1340 C 0.22877 0.69263 0.01549 0.0
C1341 C 0.22338 0.67768 0.00055 0.0
C1342 C 0.24425 0.70724 0.01129 0.0
C1343 C 0.25456 0.70725 -0.00796 0.0
C1344 C 0.24948 0.69201 0.97729 0.0
C1345 C 0.23409 0.67733 0.98153 0.0
C1346 C 0.28339 0.7498 0.96344 0.0
C1347 C 0.2981 0.75601 0.9783 0.0
C1348 C 0.26951 0.73372 0.96779 0.0
C1349 C 0.27 0.72358 0.98711 0.0
C1350 C 0.28488 0.72961 0.00186 0.0
C1351 C 0.29885 0.74562 -0.00253 0.0
H1352 H 0.74014 0.31509 0.98628 0.0
H1353 H 0.77743 0.26835 0.01672 0.0
H1354 H 0.71354 0.28887 0.97879 0.0
H1355 H 0.75108 0.24217 0.00872 0.0
H1356 H 0.71128 0.2016 0.96232 0.0
H1357 H 0.7367 0.22861 0.97065 0.0
H1358 H 0.68955 0.2629 0.00374 0.0
H1359 H 0.66415 0.23562 -0.00408 0.0
C1360 C 0.7426 0.29925 -0.00862 0.0
C1361 C 0.76078 0.2937 0.00206 0.0
C1362 C 0.72741 0.28435 0.98715 0.0
C1363 C 0.73044 0.26363 -0.00687 0.0
C1364 C 0.74854 0.25808 0.0039 0.0
C1365 C 0.7635 0.27305 0.00853 0.0
C1366 C 0.70633 0.21494 0.9713 0.0
C1367 C 0.6858 0.21656 0.97853 0.0
C1368 C 0.72086 0.23027 0.97612 0.0
C1369 C 0.71496 0.24767 0.98783 0.0
C1370 C 0.69435 0.24958 -0.00535 0.0
C1371 C 0.67991 0.234 -0.00977 0.0
H1372 H 0.73611 0.65783 -0.00664 0.0
H1373 H 0.77106 0.70374 0.95903 0.0
H1374 H 0.70976 0.68414 0.00161 0.0
H1375 H 0.74504 0.73003 0.96784 0.0
H1376 H 0.70771 0.77044 0.01796 0.0
H1377 H 0.73246 0.74294 0.00914 0.0
H1378 H 0.68487 0.71095 0.97455 0.0
H1379 H 0.66014 0.73877 0.9828 0.0
C1380 C 0.7381 0.6735 0.98756 0.0
C1381 C 0.75556 0.6788 0.97556 0.0
C1382 C 0.72308 0.68844 -0.00776 0.0
C1383 C 0.72559 0.70896 0.98539 0.0
C1384 C 0.74293 0.71425 0.9733 0.0
C1385 C 0.75769 0.69923 0.96821 0.0
C1386 C 0.7025 0.75748 0.00858 0.0
C1387 C 0.68206 0.75669 0.00101 0.0
C1388 C 0.71665 0.74187 0.0035 0.0
C1389 C 0.71043 0.72502 -0.0088 0.0
C1390 C 0.68989 0.72387 0.9841 0.0
C1391 C 0.67584 0.73974 -0.01123 0.0
H1392 H 0.49073 0.73654 0.81455 0.0
H1393 H 0.45801 0.70001 0.76878 0.0
H1394 H 0.49788 0.76307 0.78822 0.0
H1395 H 0.46561 0.72633 0.74243 0.0
H1396 H 0.51157 0.76487 0.70024 0.0
H1397 H 0.50272 0.73955 0.72717 0.0
H1398 H 0.47407 0.78799 0.76356 0.0
H1399 H 0.48247 0.81333 0.73642 0.0
C1400 C 0.48501 0.73426 0.7989 0.0
C1401 C 0.47385 0.71627 0.79365 0.0
C1402 C 0.48905 0.74941 0.78392 0.0
C1403 C 0.48236 0.74657 0.76339 0.0
C1404 C 0.471 0.72872 0.75818 0.0
C1405 C 0.46658 0.71378 0.77325 0.0
C1406 C 0.50344 0.77011 0.71401 0.0
C1407 C 0.49768 0.79102 0.71629 0.0
C1408 C 0.49829 0.75564 0.7293 0.0
C1409 C 0.4877 0.76192 0.74728 0.0
C1410 C 0.48228 0.78287 0.74979 0.0
C1411 C 0.48704 0.79728 0.73429 0.0
H1412 H 0.24685 0.44676 0.79475 0.0
H1413 H 0.26693 0.51048 0.79027 0.0
H1414 H 0.21874 0.45377 0.77046 0.0
H1415 H 0.2402 0.51728 0.76458 0.0
H1416 H 0.182 0.52965 0.72899 0.0
H1417 H 0.20628 0.52265 0.75707 0.0
H1418 H 0.21106 0.45875 0.73652 0.0
H1419 H 0.18535 0.4656 0.7098 0.0
C1420 C 0.24527 0.46224 0.78834 0.0
C1421 C 0.25889 0.47811 0.79432 0.0
C1422 C 0.22931 0.46627 0.77425 0.0
C1423 C 0.2271 0.48611 0.76526 0.0
C1424 C 0.24091 0.50194 0.7714 0.0
C1425 C 0.25641 0.49805 0.78602 0.0
C1426 C 0.18816 0.51409 0.73075 0.0
C1427 C 0.18187 0.49814 0.71738 0.0
C1428 C 0.20226 0.51006 0.7467 0.0
C1429 C 0.21095 0.49012 0.74915 0.0
C1430 C 0.20448 0.47418 0.73561 0.0
C1431 C 0.18985 0.47809 0.72012 0.0
H1432 H 0.53063 0.2631 0.77778 0.0
H1433 H 0.47163 0.25071 0.80742 0.0
H1434 H 0.52334 0.23616 0.7521 0.0
H1435 H 0.46439 0.22382 0.78171 0.0
H1436 H 0.44949 0.20036 0.71494 0.0
H1437 H 0.45731 0.2246 0.743 0.0
H1438 H 0.51809 0.1971 0.74993 0.0
H1439 H 0.51031 0.17278 0.72187 0.0
C1440 C 0.51619 0.25452 0.77889 0.0
C1441 C 0.50165 0.25907 0.79452 0.0
C1442 C 0.51208 0.23906 0.76428 0.0
C1443 C 0.49327 0.22801 0.76492 0.0
C1444 C 0.47891 0.23227 0.78078 0.0
C1445 C 0.48311 0.24758 0.79552 0.0
C1446 C 0.46448 0.19942 0.72252 0.0
C1447 C 0.47932 0.18474 0.71619 0.0
C1448 C 0.4689 0.2132 0.73864 0.0
C1449 C 0.4883 0.21269 0.74858 0.0
C1450 C 0.50307 0.19789 0.74239 0.0
C1451 C 0.49858 0.18395 0.72641 0.0
H1452 H 0.8175 0.48904 0.73909 0.0
H1453 H 0.7705 0.45912 0.7017 0.0
H1454 H 0.79142 0.49615 0.76598 0.0
H1455 H 0.74445 0.4668 0.72833 0.0
H1456 H 0.70585 0.51599 0.76849 0.0
H1457 H 0.73278 0.50695 0.7432 0.0
H1458 H 0.76377 0.46954 0.78929 0.0
H1459 H 0.73649 0.47805 0.81457 0.0
C1460 C 0.80165 0.48394 0.73669 0.0
C1461 C 0.79596 0.47356 0.71837 0.0
C1462 C 0.78683 0.48794 0.75204 0.0
C1463 C 0.76609 0.48204 0.74903 0.0
C1464 C 0.76042 0.4715 0.73085 0.0
C1465 C 0.7753 0.46706 0.71573 0.0
C1466 C 0.71844 0.5059 0.77325 0.0
C1467 C 0.71914 0.49768 0.79343 0.0
C1468 C 0.73372 0.50068 0.75878 0.0
C1469 C 0.75015 0.48757 0.76444 0.0
C1470 C 0.75117 0.4797 0.78471 0.0
C1471 C 0.73561 0.48453 0.79907 0.0
H1472 H 0.46556 0.16882 0.2534 0.0
H1473 H 0.52706 0.19472 0.26084 0.0
H1474 H 0.45838 0.19391 0.2259 0.0
H1475 H 0.51982 0.21981 0.23341 0.0
H1476 H 0.50606 0.24859 0.17009 0.0
H1477 H 0.51292 0.22092 0.19507 0.0
H1478 H 0.45368 0.23261 0.22438 0.0
H1479 H 0.44675 0.26023 0.19938 0.0
C1480 C 0.47757 0.17979 0.24909 0.0
C1481 C 0.49685 0.17988 0.25932 0.0
C1482 C 0.47342 0.19419 0.23343 0.0
C1483 C 0.48853 0.2088 0.22757 0.0
C1484 C 0.50796 0.20858 0.23748 0.0
C1485 C 0.51206 0.19431 0.25326 0.0
C1486 C 0.49445 0.24516 0.18178 0.0
C1487 C 0.47591 0.25664 0.18287 0.0
C1488 C 0.49842 0.2294 0.19611 0.0
C1489 C 0.48386 0.2247 0.21167 0.0
C1490 C 0.4651 0.2358 0.21242 0.0
C1491 C 0.46119 0.25168 0.1982 0.0
H1492 H 0.81381 0.48785 0.23958 0.0
H1493 H 0.7673 0.51781 0.27763 0.0
H1494 H 0.78736 0.48052 0.21319 0.0
H1495 H 0.74088 0.50997 0.25149 0.0
H1496 H 0.70028 0.4633 0.21178 0.0
H1497 H 0.72734 0.47196 0.23701 0.0
H1498 H 0.76104 0.50541 0.18968 0.0
H1499 H 0.7337 0.49724 0.16446 0.0
C1500 C 0.79797 0.49288 0.24225 0.0
C1501 C 0.79255 0.50337 0.26059 0.0
C1502 C 0.78293 0.48875 0.22718 0.0
C1503 C 0.76221 0.49465 0.23049 0.0
C1504 C 0.7568 0.50523 0.24873 0.0
C1505 C 0.7719 0.50977 0.26358 0.0
C1506 C 0.71348 0.47246 0.20676 0.0
C1507 C 0.71495 0.47965 0.18623 0.0
C1508 C 0.72885 0.47747 0.22118 0.0
C1509 C 0.74611 0.48934 0.21517 0.0
C1510 C 0.74782 0.4962 0.19456 0.0
C1511 C 0.73221 0.49158 0.18024 0.0
H1512 H 0.46752 0.72788 0.16463 0.0
H1513 H 0.52825 0.71847 0.19162 0.0
H1514 H 0.46074 0.75562 0.18957 0.0
H1515 H 0.52138 0.74608 0.21661 0.0
H1516 H 0.50898 0.80908 0.24634 0.0
H1517 H 0.51576 0.78428 0.21849 0.0
H1518 H 0.45501 0.75729 0.2278 0.0
H1519 H 0.44814 0.78216 0.25553 0.0
C1520 C 0.47946 0.73181 0.1758 0.0
C1521 C 0.49838 0.72094 0.17625 0.0
C1522 C 0.47553 0.74761 0.19013 0.0
C1523 C 0.49051 0.75295 0.20506 0.0
C1524 C 0.50963 0.74244 0.20515 0.0
C1525 C 0.51351 0.72655 0.19092 0.0
C1526 C 0.49702 0.79794 0.24235 0.0
C1527 C 0.47806 0.79749 0.25318 0.0
C1528 C 0.50095 0.7837 0.22648 0.0
C1529 C 0.48594 0.76884 0.22104 0.0
C1530 C 0.46679 0.76871 0.23153 0.0
C1531 C 0.46291 0.78287 0.24748 0.0
H1532 H 0.26073 0.52958 0.19555 0.0
H1533 H 0.2508 0.46911 0.16819 0.0
H1534 H 0.23334 0.52258 0.22086 0.0
H1535 H 0.22337 0.4622 0.19346 0.0
H1536 H 0.19857 0.44901 0.26001 0.0
H1537 H 0.22293 0.45633 0.23192 0.0
H1538 H 0.19484 0.51658 0.22315 0.0
H1539 H 0.17046 0.50933 0.25133 0.0
C1540 C 0.25258 0.51488 0.19483 0.0
C1541 C 0.258 0.49984 0.18 0.0
C1542 C 0.23684 0.51093 0.20924 0.0
C1543 C 0.22632 0.49181 0.20915 0.0
C1544 C 0.2314 0.47697 0.194 0.0
C1545 C 0.24703 0.48098 0.1795 0.0
C1546 C 0.1975 0.46377 0.25201 0.0
C1547 C 0.18268 0.47864 0.25792 0.0
C1548 C 0.21137 0.4679 0.23585 0.0
C1549 C 0.21077 0.48703 0.2254 0.0
C1550 C 0.19574 0.50179 0.23109 0.0
C1551 C 0.18175 0.49759 0.24714 0.0
H1552 H 0.77753 0.71626 0.52977 0.0
H1553 H 0.80649 0.72631 0.47002 0.0
H1554 H 0.7524 0.74357 0.52218 0.0
H1555 H 0.7814 0.7537 0.46252 0.0
H1556 H 0.71543 0.77896 0.44778 0.0
H1557 H 0.74322 0.75447 0.45565 0.0
H1558 H 0.7503 0.78194 0.51641 0.0
H1559 H 0.7224 0.80641 0.50862 0.0
C1560 C 0.77863 0.72441 0.5151 0.0
C1561 C 0.79388 0.71906 0.50043 0.0
C1562 C 0.76432 0.74011 0.51081 0.0
C1563 C 0.76493 0.75068 0.49174 0.0
C1564 C 0.78045 0.74563 0.47725 0.0
C1565 C 0.79485 0.73002 0.48159 0.0
C1566 C 0.723 0.77986 0.46277 0.0
C1567 C 0.71668 0.79452 0.47763 0.0
C1568 C 0.73898 0.76592 0.46722 0.0
C1569 C 0.74887 0.76631 0.48665 0.0
C1570 C 0.74279 0.78119 0.50139 0.0
C1571 C 0.7269 0.79524 0.49688 0.0
H1572 H 0.73909 0.16105 0.48415 0.0
H1573 H 0.70122 0.20821 0.51325 0.0
H1574 H 0.76584 0.18718 0.47676 0.0
H1575 H 0.72773 0.2343 0.50537 0.0
H1576 H 0.76873 0.27452 0.45987 0.0
H1577 H 0.74301 0.2477 0.46784 0.0
H1578 H 0.78943 0.21314 0.50158 0.0
H1579 H 0.81518 0.24025 0.4941 0.0
C1580 C 0.73651 0.17699 0.48896 0.0
C1581 C 0.71813 0.18267 0.49927 0.0
C1582 C 0.7518 0.19183 0.48479 0.0
C1583 C 0.74868 0.21263 0.49046 0.0
C1584 C 0.73035 0.21832 0.50079 0.0
C1585 C 0.71528 0.20341 0.50537 0.0
C1586 C 0.77345 0.26119 0.46889 0.0
C1587 C 0.79385 0.25944 0.47639 0.0
C1588 C 0.75875 0.24593 0.47353 0.0
C1589 C 0.76435 0.2285 0.48532 0.0
C1590 C 0.78486 0.22648 0.49241 0.0
C1591 C 0.79945 0.24197 0.48817 0.0
H1592 H 0.25463 0.80559 0.46329 0.0
H1593 H 0.26164 0.78019 0.52502 0.0
H1594 H 0.22661 0.78093 0.45641 0.0
H1595 H 0.23368 0.75559 0.51808 0.0
H1596 H 0.16942 0.72855 0.50496 0.0
H1597 H 0.19512 0.75572 0.51124 0.0
H1598 H 0.2242 0.74199 0.45236 0.0
H1599 H 0.19851 0.71484 0.44601 0.0
C1600 C 0.25013 0.79481 0.4754 0.0
C1601 C 0.26035 0.79475 0.49467 0.0
C1602 C 0.23417 0.78067 0.47142 0.0
C1603 C 0.22801 0.76639 0.48672 0.0
C1604 C 0.23799 0.76658 0.5061 0.0
C1605 C 0.25407 0.78057 0.51001 0.0
C1606 C 0.18121 0.73143 0.49329 0.0
C1607 C 0.18204 0.71951 0.47505 0.0
C1608 C 0.19595 0.7469 0.49694 0.0
C1609 C 0.21166 0.75087 0.48232 0.0
C1610 C 0.21214 0.73935 0.46381 0.0
C1611 C 0.19751 0.72375 0.46024 0.0
H1612 H 0.19528 0.26081 0.52915 0.0
H1613 H 0.16719 0.25136 0.46896 0.0
H1614 H 0.22002 0.23302 0.52192 0.0
H1615 H 0.19187 0.22349 0.46182 0.0
H1616 H 0.2576 0.19684 0.4481 0.0
H1617 H 0.23009 0.22183 0.45548 0.0
H1618 H 0.22152 0.19468 0.51622 0.0
H1619 H 0.24913 0.16972 0.50892 0.0
C1620 C 0.19428 0.25268 0.51446 0.0
C1621 C 0.17939 0.25833 0.49958 0.0
C1622 C 0.20836 0.23671 0.51038 0.0
C1623 C 0.20789 0.22616 0.49129 0.0
C1624 C 0.19272 0.23153 0.47658 0.0
C1625 C 0.17855 0.24741 0.48071 0.0
C1626 C 0.24975 0.19611 0.46297 0.0
C1627 C 0.25559 0.1814 0.47797 0.0
C1628 C 0.23393 0.21034 0.46714 0.0
C1629 C 0.22372 0.21021 0.48644 0.0
C1630 C 0.22929 0.19525 0.5013 0.0
C1631 C 0.24502 0.18092 0.49707 0.0
H1632 H 0.06174 0.34977 0.12017 0.0
H1633 H 0.05789 0.28407 0.10692 0.0
H1634 H 0.0878 0.35369 0.09278 0.0
H1635 H 0.0833 0.28808 0.07942 0.0
H1636 H 0.11393 0.353 0.0245 0.0
H1637 H 0.09122 0.35236 0.05502 0.0
H1638 H 0.11948 0.29474 0.07463 0.0
H1639 H 0.14147 0.29504 0.04396 0.0
C1640 C 0.06641 0.33619 0.11142 0.0
C1641 C 0.05779 0.31658 0.11579 0.0
C1642 C 0.08127 0.33846 0.09568 0.0
C1643 C 0.08777 0.32118 0.08403 0.0
C1644 C 0.07903 0.30165 0.0884 0.0
C1645 C 0.06431 0.29937 0.1041 0.0
C1646 C 0.11547 0.34041 0.03556 0.0
C1647 C 0.1292 0.32391 0.03172 0.0
C1648 C 0.10251 0.34005 0.05304 0.0
C1649 C 0.10326 0.32327 0.06704 0.0
C1650 C 0.11807 0.30757 0.06385 0.0
C1651 C 0.13077 0.30781 0.04634 0.0
H1652 H 0.62723 0.04922 0.10596 0.0
H1653 H 0.6878 0.07371 0.12123 0.0
H1654 H 0.62514 0.0731 0.07643 0.0
H1655 H 0.6854 0.09796 0.09249 0.0
H1656 H 0.6895 0.11427 0.0249 0.0
H1657 H 0.68795 0.09335 0.05593 0.0
H1658 H 0.62315 0.10908 0.06378 0.0
H1659 H 0.62453 0.12988 0.03187 0.0
C1660 C 0.6399 0.05996 0.10324 0.0
C1661 C 0.65785 0.05935 0.11563 0.0
C1662 C 0.63866 0.07369 0.0864 0.0
C1663 C 0.65527 0.08715 0.08187 0.0
C1664 C 0.67258 0.08738 0.09516 0.0
C1665 C 0.67394 0.07353 0.11171 0.0
C1666 C 0.67487 0.11342 0.03318 0.0
C1667 C 0.65716 0.12392 0.02595 0.0
C1668 C 0.67403 0.10148 0.05114 0.0
C1669 C 0.65553 0.09982 0.06259 0.0
C1670 C 0.63764 0.11004 0.05528 0.0
C1671 C 0.63844 0.12199 0.03708 0.0
H1672 H 0.92031 0.69481 0.09845 0.0
H1673 H 0.91282 0.6302 0.11504 0.0
H1674 H 0.89482 0.69083 0.07112 0.0
H1675 H 0.88659 0.62635 0.08785 0.0
H1676 H 0.85941 0.62447 0.02046 0.0
H1677 H 0.88278 0.62577 0.05036 0.0
H1678 H 0.85853 0.68625 0.06647 0.0
H1679 H 0.83592 0.68526 0.03634 0.0
C1680 C 0.91306 0.67977 0.09641 0.0
C1681 C 0.91858 0.66284 0.10899 0.0
C1682 C 0.89829 0.67752 0.08079 0.0
C1683 C 0.88845 0.65832 0.07742 0.0
C1684 C 0.89398 0.64131 0.08995 0.0
C1685 C 0.90893 0.64354 0.10557 0.0
C1686 C 0.85895 0.6379 0.03057 0.0
C1687 C 0.84609 0.6549 0.02591 0.0
C1688 C 0.87228 0.63863 0.04773 0.0
C1689 C 0.87279 0.65628 0.06061 0.0
C1690 C 0.85898 0.67268 0.05655 0.0
C1691 C 0.84592 0.67207 0.03933 0.0
H1692 H 0.35417 0.84561 0.02938 0.0
H1693 H 0.28982 0.86136 0.01847 0.0
H1694 H 0.35374 0.86654 0.06111 0.0
H1695 H 0.28959 0.88254 0.0495 0.0
H1696 H 0.28673 0.90165 0.11559 0.0
H1697 H 0.28994 0.87827 0.0862 0.0
H1698 H 0.35146 0.90213 0.07369 0.0
H1699 H 0.3485 0.92515 0.10373 0.0
C1700 C 0.34001 0.85363 0.03365 0.0
C1701 C 0.32199 0.85167 0.02149 0.0
C1702 C 0.33978 0.86566 0.05179 0.0
C1703 C 0.32154 0.876 0.058 0.0
C1704 C 0.30374 0.87435 0.04551 0.0
C1705 C 0.30392 0.86229 0.02758 0.0
C1706 C 0.30102 0.90181 0.10669 0.0
C1707 C 0.31727 0.91542 0.11184 0.0
C1708 C 0.30283 0.88848 0.08975 0.0
C1709 C 0.3208 0.8886 0.07733 0.0
C1710 C 0.33743 0.90159 0.08298 0.0
C1711 C 0.33571 0.91483 0.10014 0.0
H1712 H 0.05643 0.69532 0.87932 0.0
H1713 H 0.06608 0.6311 0.8624 0.0
H1714 H 0.08127 0.69177 0.90732 0.0
H1715 H 0.0917 0.62772 0.89019 0.0
H1716 H 0.118 0.62504 0.95743 0.0
H1717 H 0.09479 0.62656 0.92744 0.0
H1718 H 0.11726 0.68826 0.91342 0.0
H1719 H 0.13968 0.68702 0.94368 0.0
C1720 C 0.06404 0.68047 0.88142 0.0
C1721 C 0.05929 0.66351 0.86857 0.0
C1722 C 0.07844 0.67847 0.89744 0.0
C1723 C 0.08867 0.6595 0.90093 0.0
C1724 C 0.08396 0.64249 0.88806 0.0
C1725 C 0.06937 0.64446 0.87207 0.0
C1726 C 0.11805 0.63883 0.94781 0.0
C1727 C 0.13044 0.65601 0.95306 0.0
C1728 C 0.10483 0.63969 0.93057 0.0
C1729 C 0.10393 0.65766 0.91816 0.0
C1730 C 0.11711 0.6744 0.92293 0.0
C1731 C 0.13007 0.67365 0.94024 0.0
H1732 H 0.2805 0.0553 0.87581 0.0
H1733 H 0.34529 0.06376 0.86014 0.0
H1734 H 0.28373 0.0807 0.90332 0.0
H1735 H 0.34837 0.08987 0.88756 0.0
H1736 H 0.34851 0.11631 0.9555 0.0
H1737 H 0.34818 0.09329 0.92528 0.0
H1738 H 0.28788 0.11716 0.908 0.0
H1739 H 0.28792 0.13946 0.9384 0.0
C1740 C 0.29542 0.06273 0.87809 0.0
C1741 C 0.31262 0.05751 0.86571 0.0
C1742 C 0.29724 0.07745 0.89382 0.0
C1743 C 0.31626 0.08753 0.89751 0.0
C1744 C 0.33354 0.0823 0.88519 0.0
C1745 C 0.33174 0.06741 0.86944 0.0
C1746 C 0.33535 0.11679 0.94505 0.0
C1747 C 0.31811 0.12942 0.94947 0.0
C1748 C 0.33517 0.10366 0.92772 0.0
C1749 C 0.31782 0.10311 0.91444 0.0
C1750 C 0.30122 0.11675 0.91823 0.0
C1751 C 0.30129 0.12962 0.9356 0.0
H1752 H 0.86336 0.35265 0.95575 0.0
H1753 H 0.83465 0.29561 0.93529 0.0
H1754 H 0.88602 0.35214 0.92515 0.0
H1755 H 0.85659 0.29544 0.90458 0.0
H1756 H 0.91832 0.28375 0.87289 0.0
H1757 H 0.89277 0.28805 0.90019 0.0
H1758 H 0.88965 0.35382 0.88725 0.0
H1759 H 0.91584 0.34959 0.86002 0.0
C1760 C 0.86154 0.34033 0.94445 0.0
C1761 C 0.84752 0.324 0.94802 0.0
C1762 C 0.87447 0.34003 0.92693 0.0
C1763 C 0.8734 0.32349 0.91267 0.0
C1764 C 0.85824 0.30806 0.91557 0.0
C1765 C 0.84558 0.30823 0.9331 0.0
C1766 C 0.91218 0.29915 0.87575 0.0
C1767 C 0.91912 0.31631 0.86421 0.0
C1768 C 0.89737 0.3016 0.89134 0.0
C1769 C 0.88897 0.32126 0.89576 0.0
C1770 C 0.8959 0.33849 0.88428 0.0
C1771 C 0.91083 0.33604 0.86864 0.0
H1772 H 0.69219 0.84226 0.94452 0.0
H1773 H 0.62903 0.86092 0.95754 0.0
H1774 H 0.69287 0.86497 0.91446 0.0
H1775 H 0.62994 0.88438 0.9277 0.0
H1776 H 0.63411 0.91222 0.86204 0.0
H1777 H 0.63151 0.88709 0.89034 0.0
H1778 H 0.69461 0.90126 0.90838 0.0
H1779 H 0.69741 0.9257 0.87986 0.0
C1780 C 0.67843 0.85126 0.94097 0.0
C1781 C 0.66062 0.84995 0.95352 0.0
C1782 C 0.67886 0.8644 0.92379 0.0
C1783 C 0.66159 0.87678 0.91884 0.0
C1784 C 0.64348 0.87497 0.93099 0.0
C1785 C 0.64297 0.86159 0.94812 0.0
C1786 C 0.64742 0.90991 0.87206 0.0
C1787 C 0.66601 0.92087 0.86862 0.0
C1788 C 0.6459 0.89559 0.88833 0.0
C1789 C 0.6629 0.89203 0.90156 0.0
C1790 C 0.68136 0.90323 0.89823 0.0
C1791 C 0.68293 0.91738 0.88192 0.0
H1792 H 0.10184 0.05359 0.28226 0.0
H1793 H 0.118 0.0634 0.34664 0.0
H1794 H 0.07317 0.07772 0.28572 0.0
H1795 H 0.08952 0.08829 0.34994 0.0
H1796 H 0.02171 0.11356 0.35198 0.0
H1797 H 0.05206 0.09074 0.35072 0.0
H1798 H 0.06663 0.11368 0.28932 0.0
H1799 H 0.03607 0.1357 0.29029 0.0
C1800 C 0.09941 0.06107 0.29713 0.0
C1801 C 0.11227 0.0566 0.31416 0.0
C1802 C 0.08301 0.07505 0.29909 0.0
C1803 C 0.07913 0.08515 0.31806 0.0
C1804 C 0.09196 0.08066 0.33515 0.0
C1805 C 0.10834 0.06648 0.33323 0.0
C1806 C 0.03153 0.11379 0.33831 0.0
C1807 C 0.02636 0.12619 0.32112 0.0
C1808 C 0.04896 0.10079 0.33761 0.0
C1809 C 0.06163 0.10013 0.31978 0.0
C1810 C 0.05692 0.11333 0.30306 0.0
C1811 C 0.03944 0.12606 0.30366 0.0
H1812 H 0.92733 0.10477 0.34977 0.0
H1813 H 0.90632 0.11737 0.28735 0.0
H1814 H 0.90316 0.07551 0.35196 0.0
H1815 H 0.88173 0.08892 0.2898 0.0
H1816 H 0.86247 0.0221 0.28859 0.0
H1817 H 0.88458 0.05237 0.28932 0.0
H1818 H 0.86721 0.06376 0.35316 0.0
H1819 H 0.8453 0.03259 0.35264 0.0
C1820 C 0.91734 0.10148 0.33665 0.0
C1821 C 0.91895 0.11313 0.31826 0.0
C1822 C 0.90342 0.0848 0.33794 0.0
C1823 C 0.89073 0.07964 0.32093 0.0
C1824 C 0.89167 0.09205 0.30298 0.0
C1825 C 0.90572 0.10845 0.3016 0.0
C1826 C 0.86322 0.03103 0.30282 0.0
C1827 C 0.85194 0.025 0.32052 0.0
C1828 C 0.87586 0.04854 0.30319 0.0
C1829 C 0.87743 0.06075 0.32118 0.0
C1830 C 0.86639 0.05464 0.33906 0.0
C1831 C 0.85379 0.03686 0.33875 0.0
H1832 H 0.85946 0.91546 0.34861 0.0
H1833 H 0.87228 0.92017 0.28286 0.0
H1834 H 0.88732 0.88982 0.35205 0.0
H1835 H 0.90018 0.89526 0.28639 0.0
H1836 H 0.93612 0.83742 0.29218 0.0
H1837 H 0.90526 0.8591 0.29252 0.0
H1838 H 0.92523 0.88682 0.35027 0.0
H1839 H 0.95596 0.86438 0.35027 0.0
C1840 C 0.8682 0.91107 0.33492 0.0
C1841 C 0.86356 0.91979 0.31544 0.0
C1842 C 0.8842 0.89646 0.33692 0.0
C1843 C 0.89583 0.89033 0.31947 0.0
C1844 C 0.89122 0.89922 0.30008 0.0
C1845 C 0.87527 0.91366 0.29808 0.0
C1846 C 0.93381 0.84796 0.30509 0.0
C1847 C 0.94857 0.84944 0.32105 0.0
C1848 C 0.91618 0.86047 0.30524 0.0
C1849 C 0.91302 0.87503 0.32117 0.0
C1850 C 0.9272 0.87573 0.33778 0.0
C1851 C 0.94481 0.86294 0.33777 0.0
H1852 H 0.13755 0.94033 0.28847 0.0
H1853 H 0.11573 0.95691 0.34973 0.0
H1854 H 0.1144 0.91058 0.28819 0.0
H1855 H 0.09191 0.92729 0.34919 0.0
H1856 H 0.06222 0.86204 0.34581 0.0
H1857 H 0.08824 0.88954 0.34884 0.0
H1858 H 0.07765 0.90643 0.28478 0.0
H1859 H 0.05226 0.87881 0.28159 0.0
C1860 C 0.12782 0.93757 0.30193 0.0
C1861 C 0.12827 0.9511 0.31902 0.0
C1862 C 0.11445 0.92057 0.30171 0.0
C1863 C 0.10099 0.91679 0.31849 0.0
C1864 C 0.10212 0.92975 0.33605 0.0
C1865 C 0.11572 0.94673 0.33634 0.0
C1866 C 0.0655 0.87164 0.33239 0.0
C1867 C 0.05525 0.86815 0.31342 0.0
C1868 C 0.08034 0.88743 0.33416 0.0
C1869 C 0.08518 0.90005 0.317 0.0
C1870 C 0.07467 0.8967 0.29817 0.0
C1871 C 0.05998 0.88092 0.29638 0.0
H1872 H 0.04148 0.83266 0.68509 0.0
H1873 H 0.02185 0.85845 0.62639 0.0
H1874 H 0.07203 0.85482 0.68471 0.0
H1875 H 0.05224 0.8813 0.62633 0.0
H1876 H 0.11713 0.91154 0.62833 0.0
H1877 H 0.0901 0.88503 0.625 0.0
H1878 H 0.07608 0.89132 0.69033 0.0
H1879 H 0.10317 0.91716 0.69378 0.0
C1880 C 0.0438 0.84299 0.67201 0.0
C1881 C 0.02916 0.84406 0.65591 0.0
C1882 C 0.06124 0.85578 0.67185 0.0
C1883 C 0.06432 0.87016 0.65573 0.0
C1884 C 0.05033 0.87036 0.63895 0.0
C1885 C 0.03292 0.85732 0.63899 0.0
C1886 C 0.1083 0.90718 0.64197 0.0
C1887 C 0.11237 0.91642 0.66134 0.0
C1888 C 0.09279 0.89205 0.64004 0.0
C1889 C 0.08109 0.8859 0.65743 0.0
C1890 C 0.08512 0.8953 0.67671 0.0
C1891 C 0.10059 0.91028 0.67865 0.0
H1892 H 0.13107 0.02912 0.62331 0.0
H1893 H 0.11677 0.02267 0.68861 0.0
H1894 H 0.11114 0.06156 0.62237 0.0
H1895 H 0.09668 0.05432 0.68752 0.0
H1896 H 0.07892 0.1203 0.68745 0.0
H1897 H 0.10225 0.0908 0.68468 0.0
H1898 H 0.07557 0.07509 0.62517 0.0
H1899 H 0.0526 0.10528 0.62763 0.0
C1900 C 0.12364 0.03455 0.63739 0.0
C1901 C 0.12568 0.0234 0.65606 0.0
C1902 C 0.11219 0.05307 0.63684 0.0
C1903 C 0.10258 0.06069 0.65494 0.0
C1904 C 0.10434 0.04925 0.67342 0.0
C1905 C 0.11579 0.03095 0.674 0.0
C1906 C 0.07817 0.11069 0.67366 0.0
C1907 C 0.06374 0.11492 0.6579 0.0
C1908 C 0.09147 0.09372 0.67211 0.0
C1909 C 0.09046 0.08032 0.65491 0.0
C1910 C 0.07677 0.08513 0.6386 0.0
C1911 C 0.06357 0.10236 0.64004 0.0
H1912 H 0.94825 0.13005 0.62697 0.0
H1913 H 0.96295 0.1115 0.68974 0.0
H1914 H 0.91699 0.10846 0.62805 0.0
H1915 H 0.93243 0.08953 0.69057 0.0
H1916 H 0.86651 0.06888 0.69561 0.0
H1917 H 0.89591 0.09232 0.69259 0.0
H1918 H 0.90485 0.07315 0.62887 0.0
H1919 H 0.87476 0.05021 0.63169 0.0
C1920 C 0.94491 0.12125 0.6409 0.0
C1921 C 0.95797 0.12263 0.65832 0.0
C1922 C 0.92705 0.10882 0.64151 0.0
C1923 C 0.92204 0.09742 0.65949 0.0
C1924 C 0.93545 0.0985 0.67666 0.0
C1925 C 0.95308 0.11102 0.67614 0.0
C1926 C 0.87466 0.06973 0.68091 0.0
C1927 C 0.86841 0.05756 0.66394 0.0
C1928 C 0.89163 0.08309 0.6792 0.0
C1929 C 0.90298 0.0844 0.66057 0.0
C1930 C 0.89638 0.07264 0.6434 0.0
C1931 C 0.8792 0.05942 0.64504 0.0
H1932 H 0.92871 0.87757 0.69489 0.0
H1933 H 0.91525 0.85996 0.63154 0.0
H1934 H 0.9046 0.90633 0.69211 0.0
H1935 H 0.89047 0.88862 0.62896 0.0
H1936 H 0.86507 0.95659 0.62752 0.0
H1937 H 0.88818 0.92642 0.62787 0.0
H1938 H 0.86804 0.91198 0.69027 0.0
H1939 H 0.84565 0.94226 0.69015 0.0
C1940 C 0.92049 0.87973 0.68039 0.0
C1941 C 0.92385 0.86638 0.66347 0.0
C1942 C 0.90653 0.89619 0.67883 0.0
C1943 C 0.8954 0.89965 0.66038 0.0
C1944 C 0.8989 0.88646 0.64334 0.0
C1945 C 0.91302 0.86999 0.64486 0.0
C1946 C 0.86549 0.94683 0.64121 0.0
C1947 C 0.85377 0.95196 0.6589 0.0
C1948 C 0.87867 0.92952 0.6414 0.0
C1949 C 0.88021 0.91698 0.65923 0.0
C1950 C 0.86768 0.92162 0.67649 0.0
C1951 C 0.85474 0.93894 0.67638 0.0
H1952 H 0.34859 0.03101 0.12775 0.0
H1953 H 0.28647 0.01517 0.10791 0.0
H1954 H 0.34747 0.0622 0.10611 0.0
H1955 H 0.28564 0.0456 0.08583 0.0
H1956 H 0.27987 0.1115 0.06529 0.0
H1957 H 0.28281 0.0819 0.08844 0.0
H1958 H 0.34731 0.07467 0.07105 0.0
H1959 H 0.34453 0.10499 0.04846 0.0
C1960 C 0.3348 0.03408 0.11863 0.0
C1961 C 0.31755 0.02074 0.11969 0.0
C1962 C 0.33418 0.0519 0.10617 0.0
C1963 C 0.31637 0.05658 0.09438 0.0
C1964 C 0.2994 0.04286 0.0951 0.0
C1965 C 0.29992 0.02528 0.10769 0.0
C1966 C 0.29471 0.10366 0.06646 0.0
C1967 C 0.31192 0.11049 0.05492 0.0
C1968 C 0.29638 0.08658 0.07965 0.0
C1969 C 0.31522 0.07566 0.08141 0.0
C1970 C 0.3326 0.08279 0.07022 0.0
C1971 C 0.331 0.1001 0.05719 0.0
H1972 H 0.35395 0.94601 0.84644 0.0
H1973 H 0.28899 0.9522 0.86243 0.0
H1974 H 0.35559 0.91373 0.86671 0.0
H1975 H 0.29077 0.92078 0.88275 0.0
H1976 H 0.29109 0.8549 0.90026 0.0
H1977 H 0.2936 0.88427 0.87677 0.0
H1978 H 0.35343 0.90017 0.90266 0.0
H1979 H 0.35122 0.87008 0.92584 0.0
C1980 C 0.3401 0.94057 0.85431 0.0
C1981 C 0.3213 0.95156 0.8526 0.0
C1982 C 0.34104 0.92215 0.86594 0.0
C1983 C 0.32321 0.91449 0.87604 0.0
C1984 C 0.30465 0.92585 0.87468 0.0
C1985 C 0.30368 0.94402 0.86308 0.0
C1986 C 0.30489 0.86451 0.90082 0.0
C1987 C 0.32081 0.86038 0.91511 0.0
C1988 C 0.3063 0.88141 0.88741 0.0
C1989 C 0.3235 0.89485 0.88816 0.0
C1990 C 0.33999 0.89011 0.90168 0.0
C1991 C 0.33869 0.87293 0.91499 0.0
H1992 H 0.03618 0.2891 0.84437 0.0
H1993 H 0.02035 0.3515 0.86325 0.0
H1994 H 0.06555 0.28927 0.86794 0.0
H1995 H 0.0496 0.35145 0.88752 0.0
H1996 H 0.115 0.34835 0.91721 0.0
H1997 H 0.08731 0.35073 0.89136 0.0
H1998 H 0.06958 0.2874 0.90475 0.0
H1999 H 0.09741 0.28482 0.92996 0.0
C2000 C 0.03899 0.30289 0.85357 0.0
C2001 C 0.02581 0.3202 0.85213 0.0
C2002 C 0.05578 0.30294 0.86719 0.0
C2003 C 0.05969 0.32021 0.87992 0.0
C2004 C 0.04704 0.33791 0.87788 0.0
C2005 C 0.03027 0.33794 0.86403 0.0
C2006 C 0.10516 0.33495 0.91461 0.0
C2007 C 0.10851 0.31634 0.92554 0.0
C2008 C 0.08925 0.33635 0.89986 0.0
C2009 C 0.07637 0.31919 0.89582 0.0
C2010 C 0.07952 0.30076 0.90709 0.0
C2011 C 0.09543 0.29933 0.92168 0.0
H2012 H 0.69577 0.10186 0.92011 0.0
H2013 H 0.63002 0.11499 0.91613 0.0
H2014 H 0.69186 0.0742 0.89497 0.0
H2015 H 0.6262 0.08735 0.89033 0.0
H2016 H 0.6277 0.01876 0.86441 0.0
H2017 H 0.62793 0.04929 0.88711 0.0
H2018 H 0.68522 0.06976 0.85865 0.0
H2019 H 0.68532 0.03915 0.83666 0.0
C2020 C 0.68048 0.09898 0.91374 0.0
C2021 C 0.66323 0.11072 0.92011 0.0
C2022 C 0.67826 0.08317 0.89917 0.0
C2023 C 0.65876 0.07872 0.89043 0.0
C2024 C 0.64141 0.09035 0.89684 0.0
C2025 C 0.64363 0.10623 0.91154 0.0
C2026 C 0.64013 0.02999 0.86285 0.0
C2027 C 0.65667 0.02643 0.84905 0.0
C2028 C 0.64025 0.04748 0.8758 0.0
C2029 C 0.65683 0.06172 0.87497 0.0
C2030 C 0.67255 0.05879 0.86011 0.0
C2031 C 0.67254 0.0413 0.84742 0.0
H2032 H 0.9458 0.62487 0.84869 0.0
H2033 H 0.9568 0.68788 0.86898 0.0
H2034 H 0.91376 0.624 0.86936 0.0
H2035 H 0.92562 0.68679 0.88986 0.0
H2036 H 0.85939 0.68945 0.90777 0.0
H2037 H 0.88915 0.68722 0.88472 0.0
H2038 H 0.90018 0.62414 0.90482 0.0
H2039 H 0.86967 0.62615 0.92745 0.0
C2040 C 0.94148 0.63843 0.85765 0.0
C2041 C 0.95369 0.65652 0.85698 0.0
C2042 C 0.92319 0.63793 0.86952 0.0
C2043 C 0.91693 0.65546 0.88099 0.0
C2044 C 0.92958 0.67323 0.88074 0.0
C2045 C 0.9476 0.6738 0.86883 0.0
C2046 C 0.86806 0.67504 0.9072 0.0
C2047 C 0.86236 0.65807 0.91963 0.0
C2048 C 0.88521 0.67378 0.89405 0.0
C2049 C 0.89734 0.65564 0.89323 0.0
C2050 C 0.89115 0.63832 0.90503 0.0
C2051 C 0.87374 0.6395 0.91806 0.0
H2052 H 0.68855 0.95686 0.11383 0.0
H2053 H 0.62527 0.94347 0.13192 0.0
H2054 H 0.68908 0.9261 0.09229 0.0
H2055 H 0.62604 0.91193 0.11069 0.0
H2056 H 0.69346 0.86042 0.07182 0.0
H2057 H 0.6904 0.88959 0.0955 0.0
H2058 H 0.62714 0.89951 0.07533 0.0
H2059 H 0.62999 0.86963 0.05213 0.0
C2060 C 0.67476 0.94722 0.11337 0.0
C2061 C 0.6569 0.95257 0.12472 0.0
C2062 C 0.67513 0.92944 0.10109 0.0
C2063 C 0.65772 0.91631 0.09997 0.0
C2064 C 0.63969 0.92176 0.11111 0.0
C2065 C 0.63926 0.93977 0.12333 0.0
C2066 C 0.67885 0.86873 0.07252 0.0
C2067 C 0.66204 0.86285 0.05994 0.0
C2068 C 0.67711 0.88555 0.08602 0.0
C2069 C 0.65864 0.89717 0.08708 0.0
C2070 C 0.64156 0.89086 0.07501 0.0
C2071 C 0.64322 0.87379 0.06164 0.0
H2072 H 0.0314 0.62404 0.12811 0.0
H2073 H 0.02297 0.68803 0.10972 0.0
H2074 H 0.06376 0.62272 0.10798 0.0
H2075 H 0.05453 0.68654 0.08942 0.0
H2076 H 0.12102 0.68743 0.0726 0.0
H2077 H 0.09101 0.68535 0.09535 0.0
H2078 H 0.07774 0.62366 0.07251 0.0
H2079 H 0.10846 0.62549 0.05013 0.0
C2080 C 0.03635 0.63773 0.11969 0.0
C2081 C 0.02474 0.65619 0.12072 0.0
C2082 C 0.05483 0.63697 0.10813 0.0
C2083 C 0.06192 0.65464 0.09737 0.0
C2084 C 0.0499 0.67283 0.098 0.0
C2085 C 0.03166 0.67363 0.10957 0.0
C2086 C 0.11183 0.67333 0.07253 0.0
C2087 C 0.11694 0.65674 0.05936 0.0
C2088 C 0.09454 0.67217 0.08551 0.0
C2089 C 0.0817 0.65451 0.08543 0.0
C2090 C 0.08733 0.63747 0.07297 0.0
C2091 C 0.10487 0.63855 0.0601 0.0
H2092 H 0.94137 0.2895 0.13567 0.0
H2093 H 0.95665 0.3521 0.11696 0.0
H2094 H 0.91219 0.28936 0.11186 0.0
H2095 H 0.92758 0.35175 0.09248 0.0
H2096 H 0.86218 0.34781 0.06261 0.0
H2097 H 0.88979 0.35054 0.08852 0.0
H2098 H 0.90853 0.28756 0.07493 0.0
H2099 H 0.88081 0.28465 0.04963 0.0
C2100 C 0.93847 0.30327 0.12647 0.0
C2101 C 0.95146 0.32073 0.12803 0.0
C2102 C 0.9218 0.30315 0.11271 0.0
C2103 C 0.91778 0.32039 0.09997 0.0
C2104 C 0.93022 0.33823 0.10213 0.0
C2105 C 0.94689 0.33843 0.1161 0.0
C2106 C 0.87223 0.33457 0.06517 0.0
C2107 C 0.86919 0.31596 0.05416 0.0
C2108 C 0.88809 0.33617 0.07995 0.0
C2109 C 0.90122 0.3192 0.08396 0.0
C2110 C 0.8984 0.30078 0.0726 0.0
C2111 C 0.88255 0.29915 0.05797 0.0
H2112 H 0.62843 0.78556 0.53072 0.0
H2113 H 0.61225 0.84958 0.51883 0.0
H2114 H 0.60536 0.78513 0.5605 0.0
H2115 H 0.58847 0.84895 0.54851 0.0
H2116 H 0.54449 0.78205 0.59483 0.0
H2117 H 0.56875 0.7848 0.56612 0.0
H2118 H 0.58584 0.84651 0.58616 0.0
H2119 H 0.56096 0.84399 0.61475 0.0
C2120 C 0.61989 0.79957 0.53444 0.0
C2121 C 0.62203 0.81755 0.52227 0.0
C2122 C 0.60655 0.79928 0.55148 0.0
C2123 C 0.59478 0.81689 0.55671 0.0
C2124 C 0.59738 0.83514 0.54496 0.0
C2125 C 0.61094 0.83549 0.52792 0.0
C2126 C 0.55339 0.79623 0.59318 0.0
C2127 C 0.55084 0.81276 0.60717 0.0
C2128 C 0.56743 0.79776 0.57674 0.0
C2129 C 0.57944 0.81579 0.57395 0.0
C2130 C 0.57673 0.83246 0.58779 0.0
C2131 C 0.56254 0.83098 0.60422 0.0
H2132 H 0.19271 0.56382 0.60652 0.0
H2133 H 0.12635 0.56412 0.61703 0.0
H2134 H 0.1886 0.58909 0.57905 0.0
H2135 H 0.12229 0.59016 0.58965 0.0
H2136 H 0.12475 0.61559 0.5211 0.0
H2137 H 0.12497 0.59358 0.55209 0.0
H2138 H 0.18052 0.62463 0.57347 0.0
H2139 H 0.18073 0.64585 0.54228 0.0
C2140 C 0.17723 0.56946 0.60314 0.0
C2141 C 0.15986 0.56193 0.61401 0.0
C2142 C 0.17488 0.58413 0.58745 0.0
C2143 C 0.15513 0.59186 0.58227 0.0
C2144 C 0.1377 0.58443 0.59318 0.0
C2145 C 0.14005 0.56959 0.60891 0.0
C2146 C 0.13678 0.61788 0.53263 0.0
C2147 C 0.15292 0.63214 0.52917 0.0
C2148 C 0.13689 0.60533 0.5504 0.0
C2149 C 0.15301 0.60706 0.56505 0.0
C2150 C 0.16823 0.62246 0.5622 0.0
C2151 C 0.16829 0.63471 0.54439 0.0
H2152 H 0.34077 0.19053 0.53395 0.0
H2153 H 0.36071 0.12791 0.52051 0.0
H2154 H 0.36353 0.19146 0.56395 0.0
H2155 H 0.38423 0.12909 0.55027 0.0
H2156 H 0.41277 0.13345 0.61553 0.0
H2157 H 0.38727 0.1305 0.58761 0.0
H2158 H 0.39978 0.19399 0.56976 0.0
H2159 H 0.42457 0.19713 0.5979 0.0
C2160 C 0.35006 0.17694 0.53741 0.0
C2161 C 0.3491 0.15921 0.52475 0.0
C2162 C 0.36322 0.17752 0.55455 0.0
C2163 C 0.37599 0.16049 0.55935 0.0
C2164 C 0.37452 0.14244 0.54711 0.0
C2165 C 0.36111 0.14178 0.53001 0.0
C2166 C 0.41 0.14678 0.60565 0.0
C2167 C 0.42062 0.16556 0.60901 0.0
C2168 C 0.39547 0.14505 0.58959 0.0
C2169 C 0.39135 0.16205 0.57651 0.0
C2170 C 0.40217 0.18073 0.5798 0.0
C2171 C 0.41652 0.1825 0.5959 0.0
H2172 H 0.79054 0.34237 0.53639 0.0
H2173 H 0.85252 0.36226 0.51994 0.0
H2174 H 0.79083 0.36551 0.56611 0.0
H2175 H 0.85258 0.38609 0.54958 0.0
H2176 H 0.84943 0.41518 0.61546 0.0
H2177 H 0.85206 0.38959 0.58752 0.0
H2178 H 0.78853 0.4024 0.5701 0.0
H2179 H 0.78571 0.42737 0.59813 0.0
C2180 C 0.80428 0.35168 0.53917 0.0
C2181 C 0.82141 0.35069 0.52568 0.0
C2182 C 0.80439 0.36505 0.55615 0.0
C2183 C 0.82155 0.37798 0.55997 0.0
C2184 C 0.83914 0.37631 0.54707 0.0
C2185 C 0.8391 0.3627 0.53009 0.0
C2186 C 0.83605 0.41251 0.60563 0.0
C2187 C 0.8173 0.4232 0.60913 0.0
C2188 C 0.83759 0.39791 0.58959 0.0
C2189 C 0.82043 0.39377 0.57674 0.0
C2190 C 0.80189 0.40483 0.58002 0.0
C2191 C 0.80032 0.41927 0.59604 0.0
H2192 H 0.56247 0.18956 0.37001 0.0
H2193 H 0.56112 0.12321 0.35986 0.0
H2194 H 0.58853 0.18504 0.39666 0.0
H2195 H 0.58789 0.11872 0.38647 0.0
H2196 H 0.61525 0.12191 0.45469 0.0
H2197 H 0.59252 0.12182 0.42419 0.0
H2198 H 0.6243 0.17605 0.40059 0.0
H2199 H 0.64627 0.17655 0.43126 0.0
C2200 C 0.56788 0.17398 0.37331 0.0
C2201 C 0.55969 0.15675 0.36274 0.0
C2202 C 0.583 0.1714 0.38852 0.0
C2203 C 0.59052 0.15153 0.39354 0.0
C2204 C 0.58237 0.13422 0.38301 0.0
C2205 C 0.5671 0.13681 0.36773 0.0
C2206 C 0.61758 0.13351 0.44273 0.0
C2207 C 0.63223 0.14944 0.44544 0.0
C2208 C 0.60461 0.13346 0.42526 0.0
C2209 C 0.6063 0.14922 0.4102 0.0
C2210 C 0.62217 0.16407 0.41221 0.0
C2211 C 0.63485 0.16428 0.4297 0.0
H2212 H 0.78369 0.54861 0.3812 0.0
H2213 H 0.84661 0.56303 0.36258 0.0
H2214 H 0.78636 0.57319 0.40957 0.0
H2215 H 0.84908 0.58824 0.39086 0.0
H2216 H 0.85053 0.61498 0.45839 0.0
H2217 H 0.85038 0.59119 0.42874 0.0
H2218 H 0.78762 0.61002 0.4142 0.0
H2219 H 0.78755 0.63312 0.44394 0.0
C2220 C 0.79808 0.55712 0.38307 0.0
C2221 C 0.81489 0.55392 0.36953 0.0
C2222 C 0.79957 0.57134 0.3993 0.0
C2223 C 0.81785 0.5829 0.40233 0.0
C2224 C 0.83483 0.57951 0.389 0.0
C2225 C 0.83337 0.56513 0.37276 0.0
C2226 C 0.8368 0.61413 0.44871 0.0
C2227 C 0.81896 0.62569 0.45366 0.0
C2228 C 0.83673 0.60056 0.43171 0.0
C2229 C 0.81886 0.59846 0.41931 0.0
C2230 C 0.80144 0.61083 0.42375 0.0
C2231 C 0.80144 0.62417 0.44076 0.0
H2232 H 0.34845 0.85397 0.44281 0.0
H2233 H 0.3667 0.79028 0.45354 0.0
H2234 H 0.36919 0.85433 0.41084 0.0
H2235 H 0.38758 0.79083 0.42231 0.0
H2236 H 0.40463 0.78813 0.35576 0.0
H2237 H 0.3818 0.79105 0.38563 0.0
H2238 H 0.40505 0.85285 0.39755 0.0
H2239 H 0.42758 0.85017 0.36702 0.0
C2240 C 0.35698 0.84014 0.43845 0.0
C2241 C 0.35572 0.82203 0.45058 0.0
C2242 C 0.36888 0.84036 0.4202 0.0
C2243 C 0.37975 0.82249 0.41385 0.0
C2244 C 0.37894 0.80468 0.42639 0.0
C2245 C 0.36703 0.80441 0.44443 0.0
C2246 C 0.40478 0.80243 0.36462 0.0
C2247 C 0.41811 0.81882 0.35918 0.0
C2248 C 0.39176 0.80406 0.38183 0.0
C2249 C 0.3919 0.82202 0.39423 0.0
C2250 C 0.40454 0.83883 0.38829 0.0
C2251 C 0.41749 0.83726 0.37086 0.0
H2252 H 0.1317 0.41369 0.35968 0.0
H2253 H 0.19635 0.42288 0.37528 0.0
H2254 H 0.12852 0.38847 0.38785 0.0
H2255 H 0.19301 0.3984 0.40367 0.0
H2256 H 0.18814 0.34062 0.44102 0.0
H2257 H 0.18911 0.3625 0.41034 0.0
H2258 H 0.12797 0.38601 0.42518 0.0
H2259 H 0.1267 0.36335 0.45562 0.0
C2260 C 0.1452 0.41039 0.36915 0.0
C2261 C 0.1643 0.42024 0.36518 0.0
C2262 C 0.14335 0.39601 0.38535 0.0
C2263 C 0.16053 0.39129 0.39797 0.0
C2264 C 0.17956 0.40127 0.394 0.0
C2265 C 0.18145 0.41545 0.37776 0.0
C2266 C 0.17482 0.35034 0.43766 0.0
C2267 C 0.15743 0.35044 0.45085 0.0
C2268 C 0.17542 0.36299 0.42012 0.0
C2269 C 0.15878 0.37631 0.41546 0.0
C2270 C 0.14101 0.37585 0.42823 0.0
C2271 C 0.1403 0.36294 0.44571 0.0
H2272 H 0.6073 0.55208 0.84544 0.0
H2273 H 0.62399 0.57733 0.78559 0.0
H2274 H 0.57865 0.57681 0.84794 0.0
H2275 H 0.59617 0.60269 0.78847 0.0
H2276 H 0.52848 0.62089 0.78483 0.0
H2277 H 0.55996 0.6006 0.78534 0.0
H2278 H 0.56638 0.61186 0.85121 0.0
H2279 H 0.53398 0.63178 0.85083 0.0
C2280 C 0.60509 0.56322 0.83303 0.0
C2281 C 0.61759 0.56256 0.81515 0.0
C2282 C 0.58876 0.57748 0.83451 0.0
C2283 C 0.58486 0.59153 0.81824 0.0
C2284 C 0.59831 0.59169 0.80101 0.0
C2285 C 0.61433 0.57723 0.79938 0.0
C2286 C 0.5366 0.61923 0.79946 0.0
C2287 C 0.52866 0.62798 0.81781 0.0
C2288 C 0.55484 0.60768 0.79971 0.0
C2289 C 0.5659 0.60473 0.81828 0.0
C2290 C 0.55816 0.61369 0.83667 0.0
C2291 C 0.53966 0.62517 0.83645 0.0
H2292 H 0.42854 0.59546 0.78397 0.0
H2293 H 0.41543 0.61317 0.84738 0.0
H2294 H 0.40461 0.56659 0.78702 0.0
H2295 H 0.39074 0.58439 0.85023 0.0
H2296 H 0.36388 0.51695 0.8516 0.0
H2297 H 0.38772 0.5466 0.85126 0.0
H2298 H 0.36807 0.56147 0.78885 0.0
H2299 H 0.345 0.53173 0.78895 0.0
C2300 C 0.42042 0.59329 0.79855 0.0
C2301 C 0.42377 0.60675 0.81537 0.0
C2302 C 0.40658 0.57676 0.80027 0.0
C2303 C 0.39549 0.57334 0.81877 0.0
C2304 C 0.3991 0.58654 0.83579 0.0
C2305 C 0.41317 0.60307 0.83413 0.0
C2306 C 0.36461 0.52669 0.8379 0.0
C2307 C 0.35279 0.52185 0.82021 0.0
C2308 C 0.3782 0.54369 0.83772 0.0
C2309 C 0.38006 0.55621 0.8199 0.0
C2310 C 0.36748 0.55183 0.80262 0.0
C2311 C 0.35414 0.53482 0.80272 0.0
H2312 H 0.35977 0.41307 0.85038 0.0
H2313 H 0.37014 0.41289 0.78403 0.0
H2314 H 0.38715 0.38707 0.85459 0.0
H2315 H 0.39759 0.38757 0.78829 0.0
H2316 H 0.43447 0.33095 0.79669 0.0
H2317 H 0.40312 0.35197 0.79688 0.0
H2318 H 0.42487 0.38398 0.8517 0.0
H2319 H 0.45605 0.36222 0.85192 0.0
C2320 C 0.36785 0.40749 0.83671 0.0
C2321 C 0.36274 0.41504 0.81686 0.0
C2322 C 0.38358 0.39267 0.83915 0.0
C2323 C 0.39445 0.38512 0.82178 0.0
C2324 C 0.38924 0.39267 0.80198 0.0
C2325 C 0.37356 0.40736 0.79954 0.0
C2326 C 0.4324 0.34225 0.80899 0.0
C2327 C 0.44779 0.34519 0.82412 0.0
C2328 C 0.4145 0.35438 0.80903 0.0
C2329 C 0.41172 0.36999 0.82401 0.0
C2330 C 0.42652 0.37205 0.83997 0.0
C2331 C 0.44438 0.35965 0.84008 0.0
H2332 H 0.54486 0.38201 0.78322 0.0
H2333 H 0.56333 0.36249 0.84469 0.0
H2334 H 0.56857 0.41122 0.78527 0.0
H2335 H 0.58775 0.39148 0.84647 0.0
H2336 H 0.61462 0.45811 0.84902 0.0
H2337 H 0.59046 0.4288 0.8489 0.0
H2338 H 0.60482 0.41752 0.7843 0.0
H2339 H 0.62822 0.44702 0.78424 0.0
C2340 C 0.5541 0.38387 0.79714 0.0
C2341 C 0.55229 0.36984 0.81374 0.0
C2342 C 0.56781 0.40058 0.79827 0.0
C2343 C 0.58028 0.40358 0.81594 0.0
C2344 C 0.57827 0.38973 0.83271 0.0
C2345 C 0.56435 0.37306 0.83165 0.0
C2346 C 0.61263 0.44929 0.83485 0.0
C2347 C 0.62318 0.45501 0.8166 0.0
C2348 C 0.59885 0.43245 0.83479 0.0
C2349 C 0.59551 0.42094 0.81652 0.0
C2350 C 0.60659 0.42635 0.7985 0.0
C2351 C 0.62014 0.44322 0.79851 0.0
H2352 H 0.53929 0.33436 0.18489 0.0
H2353 H 0.51992 0.36144 0.12669 0.0
H2354 H 0.56981 0.35653 0.18518 0.0
H2355 H 0.55031 0.38433 0.12731 0.0
H2356 H 0.60138 0.41837 0.19569 0.0
H2357 H 0.57413 0.3928 0.19161 0.0
H2358 H 0.58822 0.38793 0.12616 0.0
H2359 H 0.61542 0.41418 0.13016 0.0
C2360 C 0.54164 0.34502 0.17208 0.0
C2361 C 0.52709 0.3464 0.15591 0.0
C2362 C 0.55908 0.3578 0.17229 0.0
C2363 C 0.56226 0.37253 0.15651 0.0
C2364 C 0.54833 0.37312 0.13968 0.0
C2365 C 0.53091 0.36006 0.13934 0.0
C2366 C 0.5988 0.41184 0.18041 0.0
C2367 C 0.61065 0.41832 0.16326 0.0
C2368 C 0.58322 0.39702 0.17809 0.0
C2369 C 0.57913 0.38812 0.15859 0.0
C2370 C 0.59093 0.39457 0.14137 0.0
C2371 C 0.60655 0.40953 0.14368 0.0
H2372 H 0.60916 0.52173 0.18794 0.0
H2373 H 0.62916 0.5316 0.12461 0.0
H2374 H 0.58802 0.55265 0.18631 0.0
H2375 H 0.60813 0.56336 0.12316 0.0
H2376 H 0.56954 0.61858 0.18776 0.0
H2377 H 0.59313 0.58927 0.18579 0.0
H2378 H 0.57214 0.57628 0.12341 0.0
H2379 H 0.5489 0.60633 0.12513 0.0
C2380 C 0.60919 0.53062 0.17366 0.0
C2381 C 0.62105 0.52429 0.15646 0.0
C2382 C 0.59712 0.54848 0.17278 0.0
C2383 C 0.59668 0.56074 0.15475 0.0
C2384 C 0.60814 0.55423 0.13729 0.0
C2385 C 0.62021 0.53611 0.13812 0.0
C2386 C 0.57003 0.60959 0.17355 0.0
C2387 C 0.55715 0.61458 0.15671 0.0
C2388 C 0.58351 0.59271 0.17244 0.0
C2389 C 0.58421 0.58015 0.1546 0.0
C2390 C 0.572 0.58567 0.13736 0.0
C2391 C 0.55863 0.60281 0.13838 0.0
H2392 H 0.44049 0.63679 0.18454 0.0
H2393 H 0.45533 0.61522 0.12277 0.0
H2394 H 0.41024 0.6143 0.1853 0.0
H2395 H 0.42532 0.59194 0.12381 0.0
H2396 H 0.35984 0.56348 0.12754 0.0
H2397 H 0.38793 0.58885 0.12445 0.0
H2398 H 0.40425 0.57823 0.18867 0.0
H2399 H 0.37597 0.55362 0.19193 0.0
C2400 C 0.43729 0.62719 0.1711 0.0
C2401 C 0.45041 0.62761 0.15368 0.0
C2402 C 0.41999 0.61418 0.17158 0.0
C2403 C 0.41553 0.60101 0.15477 0.0
C2404 C 0.42823 0.60196 0.13699 0.0
C2405 C 0.44547 0.61523 0.13641 0.0
C2406 C 0.36941 0.56665 0.14099 0.0
C2407 C 0.36558 0.55662 0.16001 0.0
C2408 C 0.38557 0.58111 0.1392 0.0
C2409 C 0.39827 0.58573 0.15636 0.0
C2410 C 0.3945 0.57547 0.17526 0.0
C2411 C 0.37832 0.56121 0.1771 0.0
H2412 H 0.4244 0.3758 0.19497 0.0
H2413 H 0.41388 0.35952 0.13073 0.0
H2414 H 0.39986 0.40418 0.19188 0.0
H2415 H 0.38866 0.38772 0.1278 0.0
H2416 H 0.36284 0.45536 0.1264 0.0
H2417 H 0.386 0.42529 0.12725 0.0
H2418 H 0.36351 0.40995 0.18864 0.0
H2419 H 0.34105 0.44021 0.18805 0.0
C2420 C 0.41671 0.37816 0.18021 0.0
C2421 C 0.42108 0.36533 0.16312 0.0
C2422 C 0.4025 0.39439 0.17847 0.0
C2423 C 0.3921 0.39812 0.15965 0.0
C2424 C 0.39652 0.38537 0.14247 0.0
C2425 C 0.4109 0.36916 0.14418 0.0
C2426 C 0.36274 0.44542 0.13997 0.0
C2427 C 0.35034 0.4503 0.15726 0.0
C2428 C 0.37595 0.42816 0.14044 0.0
C2429 C 0.37685 0.41538 0.15815 0.0
C2430 C 0.36364 0.41977 0.17498 0.0
C2431 C 0.35066 0.43707 0.17459 0.0
H2432 H 0.79447 0.54122 0.64392 0.0
H2433 H 0.85252 0.52242 0.61599 0.0
H2434 H 0.79392 0.57209 0.62226 0.0
H2435 H 0.85164 0.55313 0.59361 0.0
H2436 H 0.84853 0.61812 0.56427 0.0
H2437 H 0.8527 0.59083 0.59033 0.0
H2438 H 0.7871 0.57711 0.58622 0.0
H2439 H 0.78284 0.60452 0.56082 0.0
C2440 C 0.80721 0.54379 0.63321 0.0
C2441 C 0.8234 0.5293 0.63143 0.0
C2442 C 0.80684 0.56142 0.62071 0.0
C2443 C 0.82248 0.56484 0.60586 0.0
C2444 C 0.83936 0.55098 0.60492 0.0
C2445 C 0.83987 0.53338 0.61769 0.0
C2446 C 0.835 0.60931 0.56903 0.0
C2447 C 0.81534 0.61354 0.56049 0.0
C2448 C 0.83741 0.59364 0.5839 0.0
C2449 C 0.82021 0.58189 0.59049 0.0
C2450 C 0.80061 0.58615 0.58188 0.0
C2451 C 0.79819 0.60181 0.56715 0.0
H2452 H 0.85275 0.45647 0.362 0.0
H2453 H 0.79527 0.43574 0.33437 0.0
H2454 H 0.85265 0.42597 0.38476 0.0
H2455 H 0.79548 0.40517 0.35646 0.0
H2456 H 0.7847 0.37412 0.41861 0.0
H2457 H 0.78871 0.40133 0.39296 0.0
H2458 H 0.85432 0.38786 0.38839 0.0
H2459 H 0.8504 0.36065 0.41465 0.0
C2460 C 0.84042 0.44513 0.36043 0.0
C2461 C 0.82384 0.44861 0.34669 0.0
C2462 C 0.84036 0.42767 0.37343 0.0
C2463 C 0.82381 0.41339 0.37272 0.0
C2464 C 0.80813 0.41618 0.35782 0.0
C2465 C 0.80807 0.43364 0.34507 0.0
C2466 C 0.80001 0.37684 0.41215 0.0
C2467 C 0.81721 0.36514 0.41868 0.0
C2468 C 0.80228 0.39238 0.39728 0.0
C2469 C 0.8218 0.39661 0.38842 0.0
C2470 C 0.83909 0.38502 0.39498 0.0
C2471 C 0.83682 0.3694 0.40996 0.0
H2472 H 0.53212 0.85102 0.34284 0.0
H2473 H 0.5192 0.78716 0.35895 0.0
H2474 H 0.56319 0.85013 0.36469 0.0
H2475 H 0.54949 0.7865 0.38116 0.0
H2476 H 0.61465 0.78284 0.40363 0.0
H2477 H 0.58605 0.7858 0.37925 0.0
H2478 H 0.57458 0.84853 0.40021 0.0
H2479 H 0.6039 0.8458 0.42409 0.0
C2480 C 0.53583 0.83686 0.35112 0.0
C2481 C 0.52328 0.81912 0.34903 0.0
C2482 C 0.55357 0.83637 0.3637 0.0
C2483 C 0.55899 0.81817 0.37454 0.0
C2484 C 0.54616 0.80061 0.37264 0.0
C2485 C 0.52865 0.80104 0.35998 0.0
C2486 C 0.60612 0.79731 0.40296 0.0
C2487 C 0.6114 0.81401 0.41593 0.0
C2488 C 0.58962 0.79899 0.38905 0.0
C2489 C 0.57775 0.81729 0.38798 0.0
C2490 C 0.58345 0.83426 0.40051 0.0
C2491 C 0.60019 0.83267 0.41427 0.0
H2492 H 0.19344 0.59898 0.42797 0.0
H2493 H 0.1297 0.6159 0.41533 0.0
H2494 H 0.19091 0.57071 0.40323 0.0
H2495 H 0.12736 0.58775 0.38997 0.0
H2496 H 0.12696 0.52037 0.36291 0.0
H2497 H 0.12694 0.54991 0.38681 0.0
H2498 H 0.18883 0.56621 0.36641 0.0
H2499 H 0.18907 0.53657 0.34318 0.0
C2500 C 0.17889 0.59675 0.41981 0.0
C2501 C 0.16181 0.60979 0.42356 0.0
C2502 C 0.17748 0.58059 0.4055 0.0
C2503 C 0.15901 0.57713 0.39441 0.0
C2504 C 0.14177 0.58995 0.39834 0.0
C2505 C 0.14315 0.60612 0.41281 0.0
C2506 C 0.14044 0.53042 0.36343 0.0
C2507 C 0.15811 0.52599 0.35138 0.0
C2508 C 0.14042 0.54736 0.37707 0.0
C2509 C 0.15803 0.56021 0.37877 0.0
C2510 C 0.17524 0.5563 0.36592 0.0
C2511 C 0.17532 0.53936 0.35249 0.0
H2512 H 0.44384 0.12424 0.34786 0.0
H2513 H 0.45685 0.18762 0.36563 0.0
H2514 H 0.4122 0.12494 0.36903 0.0
H2515 H 0.42598 0.1881 0.38709 0.0
H2516 H 0.35993 0.19239 0.4066 0.0
H2517 H 0.38942 0.18922 0.38328 0.0
H2518 H 0.39951 0.12633 0.40444 0.0
H2519 H 0.36933 0.12928 0.42731 0.0
C2520 C 0.44004 0.13823 0.35639 0.0
C2521 C 0.45274 0.15593 0.3549 0.0
C2522 C 0.42197 0.13862 0.36856 0.0
C2523 C 0.41638 0.15668 0.37954 0.0
C2524 C 0.42944 0.17412 0.3784 0.0
C2525 C 0.44728 0.17379 0.36617 0.0
C2526 C 0.36834 0.17783 0.4062 0.0
C2527 C 0.36243 0.16117 0.41896 0.0
C2528 C 0.38535 0.17603 0.3929 0.0
C2529 C 0.39709 0.15763 0.39224 0.0
C2530 C 0.39075 0.14068 0.40448 0.0
C2531 C 0.37352 0.14241 0.41765 0.0
H2532 H 0.12452 0.4473 0.62899 0.0
H2533 H 0.18756 0.46053 0.60998 0.0
H2534 H 0.12475 0.41598 0.6074 0.0
H2535 H 0.18755 0.42999 0.58809 0.0
H2536 H 0.19157 0.36391 0.56855 0.0
H2537 H 0.18885 0.39349 0.59172 0.0
H2538 H 0.12545 0.40334 0.57198 0.0
H2539 H 0.12796 0.37305 0.54924 0.0
C2540 C 0.13832 0.44364 0.62008 0.0
C2541 C 0.15609 0.45626 0.62138 0.0
C2542 C 0.13844 0.42575 0.60767 0.0
C2543 C 0.15628 0.42028 0.59624 0.0
C2544 C 0.17375 0.43334 0.59713 0.0
C2545 C 0.1737 0.45098 0.60961 0.0
C2546 C 0.177 0.3723 0.5692 0.0
C2547 C 0.16005 0.36626 0.5569 0.0
C2548 C 0.17546 0.38936 0.58242 0.0
C2549 C 0.15704 0.40105 0.58347 0.0
C2550 C 0.13983 0.39463 0.57164 0.0
C2551 C 0.1413 0.37733 0.55854 0.0
H2552 H 0.6155 0.12741 0.55898 0.0
H2553 H 0.59859 0.19129 0.54715 0.0
H2554 H 0.58757 0.12489 0.58468 0.0
H2555 H 0.57067 0.1886 0.5723 0.0
H2556 H 0.53789 0.1867 0.6329 0.0
H2557 H 0.56747 0.18593 0.60956 0.0
H2558 H 0.54913 0.12507 0.58811 0.0
H2559 H 0.51951 0.12563 0.61208 0.0
C2560 C 0.60579 0.14086 0.56176 0.0
C2561 C 0.6094 0.15961 0.55111 0.0
C2562 C 0.58975 0.13937 0.57642 0.0
C2563 C 0.57707 0.15661 0.58071 0.0
C2564 C 0.58045 0.17517 0.56972 0.0
C2565 C 0.59642 0.17667 0.55518 0.0
C2566 C 0.54022 0.17304 0.62336 0.0
C2567 C 0.5262 0.15633 0.62412 0.0
C2568 C 0.55714 0.17265 0.60989 0.0
C2569 C 0.5604 0.15564 0.59665 0.0
C2570 C 0.54702 0.13841 0.59813 0.0
C2571 C 0.53007 0.13873 0.61181 0.0
H2572 H 0.45607 0.8523 0.61302 0.0
H2573 H 0.43098 0.79903 0.6451 0.0
H2574 H 0.42561 0.85278 0.59021 0.0
H2575 H 0.40039 0.79992 0.62302 0.0
H2576 H 0.37067 0.78558 0.56084 0.0
H2577 H 0.39704 0.79018 0.58718 0.0
H2578 H 0.3877 0.85659 0.58543 0.0
H2579 H 0.36131 0.85202 0.55844 0.0
C2580 C 0.44375 0.84112 0.61558 0.0
C2581 C 0.44597 0.82541 0.63053 0.0
C2582 C 0.42631 0.84139 0.60256 0.0
C2583 C 0.41083 0.82607 0.60451 0.0
C2584 C 0.41233 0.81155 0.62071 0.0
C2585 C 0.42978 0.81111 0.63345 0.0
C2586 C 0.3741 0.8012 0.56606 0.0
C2587 C 0.36383 0.81843 0.55751 0.0
C2588 C 0.38914 0.80383 0.58134 0.0
C2589 C 0.3943 0.82374 0.58861 0.0
C2590 C 0.38409 0.84105 0.5801 0.0
C2591 C 0.36895 0.83842 0.5647 0.0
loop_
_geom_bond_atom_site_label_1
_geom_bond_atom_site_label_2
_geom_bond_distance
_geom_bond_site_symmetry_2
_ccdc_geom_bond_type
C0 O1 1.306 . S
C0 O3 1.160 . S
O1 C0 1.306 . S
O1 Cd2 2.228 . S
Cd2 O1 2.228 . S
Cd2 O6 2.273 . S
Cd2 O10 2.277 . S
O3 C0 1.160 . S
O3 Cd4 2.203 . S
Cd4 O3 2.203 . S
Cd4 O6 2.411 . S
Cd4 O7 2.333 . S
Cd4 O8 2.352 . S
Cd4 O12 2.277 . S
Cd4 O13 2.356 . S
C5 O10 1.209 1_655 S
C5 O12 1.226 1_655 S
O6 Cd2 2.273 . S
O6 Cd4 2.411 . S
O6 C9 1.320 . S
O7 Cd4 2.333 . S
O7 C9 1.214 . S
O8 Cd4 2.352 . S
O8 C11 1.258 . S
C9 O6 1.320 . S
C9 O7 1.214 . S
O10 Cd2 2.277 . S
O10 C5 1.209 1_455 S
C11 O8 1.258 . S
C11 O13 1.282 . S
O12 Cd4 2.277 . S
O12 C5 1.226 1_455 S
O13 Cd4 2.356 . S
O13 C11 1.282 . S
C14 O15 1.306 . S
C14 O17 1.160 . S
O15 C14 1.306 . S
O15 Cd16 2.228 . S
Cd16 O15 2.228 . S
Cd16 O20 2.273 . S
Cd16 O24 2.277 . S
O17 C14 1.160 . S
O17 Cd18 2.203 . S
Cd18 O17 2.203 . S
Cd18 O20 2.411 . S
Cd18 O21 2.333 . S
Cd18 O22 2.352 . S
Cd18 O26 2.277 . S
Cd18 O27 2.356 . S
C19 O24 1.209 1_565 S
C19 O26 1.226 1_565 S
O20 Cd16 2.273 . S
O20 Cd18 2.411 . S
O20 C23 1.320 . S
O21 Cd18 2.333 . S
O21 C23 1.214 . S
O22 Cd18 2.352 . S
O22 C25 1.258 . S
C23 O20 1.320 . S
C23 O21 1.214 . S
O24 Cd16 2.277 . S
O24 C19 1.209 1_545 S
C25 O22 1.258 . S
C25 O27 1.282 . S
O26 Cd18 2.277 . S
O26 C19 1.226 1_545 S
O27 Cd18 2.356 . S
O27 C25 1.282 . S
C28 O29 1.306 . S
C28 O31 1.160 . S
O29 C28 1.306 . S
O29 Cd30 2.228 . S
Cd30 O29 2.228 . S
Cd30 O34 2.273 . S
Cd30 O38 2.277 . S
O31 C28 1.160 . S
O31 Cd32 2.203 . S
Cd32 O31 2.203 . S
Cd32 O34 2.411 . S
Cd32 O35 2.333 . S
Cd32 O36 2.352 . S
Cd32 O40 2.277 . S
Cd32 O41 2.356 . S
C33 O38 1.209 1_455 S
C33 O40 1.226 1_455 S
O34 Cd30 2.273 . S
O34 Cd32 2.411 . S
O34 C37 1.320 . S
O35 Cd32 2.333 . S
O35 C37 1.214 . S
O36 Cd32 2.352 . S
O36 C39 1.258 . S
C37 O34 1.320 . S
C37 O35 1.214 . S
O38 Cd30 2.277 . S
O38 C33 1.209 1_655 S
C39 O36 1.258 . S
C39 O41 1.282 . S
O40 Cd32 2.277 . S
O40 C33 1.226 1_655 S
O41 Cd32 2.356 . S
O41 C39 1.282 . S
C42 O43 1.306 . S
C42 O45 1.160 . S
O43 C42 1.306 . S
O43 Cd44 2.228 . S
Cd44 O43 2.228 . S
Cd44 O48 2.273 . S
Cd44 O52 2.277 . S
O45 C42 1.160 . S
O45 Cd46 2.203 . S
Cd46 O45 2.203 . S
Cd46 O48 2.411 . S
Cd46 O49 2.333 . S
Cd46 O50 2.352 . S
Cd46 O54 2.277 . S
Cd46 O55 2.356 . S
C47 O52 1.209 1_545 S
C47 O54 1.226 1_545 S
O48 Cd44 2.273 . S
O48 Cd46 2.411 . S
O48 C51 1.320 . S
O49 Cd46 2.333 . S
O49 C51 1.214 . S
O50 Cd46 2.352 . S
O50 C53 1.258 . S
C51 O48 1.320 . S
C51 O49 1.214 . S
O52 Cd44 2.277 . S
O52 C47 1.209 1_565 S
C53 O50 1.258 . S
C53 O55 1.282 . S
O54 Cd46 2.277 . S
O54 C47 1.226 1_565 S
O55 Cd46 2.356 . S
O55 C53 1.282 . S
C56 O57 1.306 . S
C56 O59 1.160 . S
O57 C56 1.306 . S
O57 Cd58 2.228 . S
Cd58 O57 2.228 . S
Cd58 O62 2.273 . S
Cd58 O66 2.277 . S
O59 C56 1.160 . S
O59 Cd60 2.203 . S
Cd60 O59 2.203 . S
Cd60 O62 2.411 . S
Cd60 O63 2.333 . S
Cd60 O64 2.352 . S
Cd60 O68 2.277 . S
Cd60 O69 2.356 . S
C61 O66 1.209 1_655 S
C61 O68 1.226 1_655 S
O62 Cd58 2.273 . S
O62 Cd60 2.411 . S
O62 C65 1.320 . S
O63 Cd60 2.333 . S
O63 C65 1.214 . S
O64 Cd60 2.352 . S
O64 C67 1.258 . S
C65 O62 1.320 . S
C65 O63 1.214 . S
O66 Cd58 2.277 . S
O66 C61 1.209 1_455 S
C67 O64 1.258 . S
C67 O69 1.282 . S
O68 Cd60 2.277 . S
O68 C61 1.226 1_455 S
O69 Cd60 2.356 . S
O69 C67 1.282 . S
C70 O71 1.306 . S
C70 O73 1.160 . S
O71 C70 1.306 . S
O71 Cd72 2.228 . S
Cd72 O71 2.228 . S
Cd72 O76 2.273 . S
Cd72 O80 2.277 . S
O73 C70 1.160 . S
O73 Cd74 2.203 . S
Cd74 O73 2.203 . S
Cd74 O76 2.411 . S
Cd74 O77 2.333 . S
Cd74 O78 2.352 . S
Cd74 O82 2.277 . S
Cd74 O83 2.356 . S
C75 O80 1.209 1_565 S
C75 O82 1.226 1_565 S
O76 Cd72 2.273 . S
O76 Cd74 2.411 . S
O76 C79 1.320 . S
O77 Cd74 2.333 . S
O77 C79 1.214 . S
O78 Cd74 2.352 . S
O78 C81 1.258 . S
C79 O76 1.320 . S
C79 O77 1.214 . S
O80 Cd72 2.277 . S
O80 C75 1.209 1_545 S
C81 O78 1.258 . S
C81 O83 1.282 . S
O82 Cd74 2.277 . S
O82 C75 1.226 1_545 S
O83 Cd74 2.356 . S
O83 C81 1.282 . S
C84 O85 1.306 . S
C84 O87 1.160 . S
O85 C84 1.306 . S
O85 Cd86 2.228 . S
Cd86 O85 2.228 . S
Cd86 O90 2.273 . S
Cd86 O94 2.277 . S
O87 C84 1.160 . S
O87 Cd88 2.203 . S
Cd88 O87 2.203 . S
Cd88 O90 2.411 . S
Cd88 O91 2.333 . S
Cd88 O92 2.352 . S
Cd88 O96 2.277 . S
Cd88 O97 2.356 . S
C89 O94 1.209 1_455 S
C89 O96 1.226 1_455 S
O90 Cd86 2.273 . S
O90 Cd88 2.411 . S
O90 C93 1.320 . S
O91 Cd88 2.333 . S
O91 C93 1.214 . S
O92 Cd88 2.352 . S
O92 C95 1.258 . S
C93 O90 1.320 . S
C93 O91 1.214 . S
O94 Cd86 2.277 . S
O94 C89 1.209 1_655 S
C95 O92 1.258 . S
C95 O97 1.282 . S
O96 Cd88 2.277 . S
O96 C89 1.226 1_655 S
O97 Cd88 2.356 . S
O97 C95 1.282 . S
C98 O99 1.306 . S
C98 O101 1.160 . S
O99 C98 1.306 . S
O99 Cd100 2.228 . S
Cd100 O99 2.228 . S
Cd100 O104 2.273 . S
Cd100 O108 2.277 . S
O101 C98 1.160 . S
O101 Cd102 2.203 . S
Cd102 O101 2.203 . S
Cd102 O104 2.411 . S
Cd102 O105 2.333 . S
Cd102 O106 2.352 . S
Cd102 O110 2.277 . S
Cd102 O111 2.356 . S
C103 O108 1.209 1_545 S
C103 O110 1.226 1_545 S
O104 Cd100 2.273 . S
O104 Cd102 2.411 . S
O104 C107 1.320 . S
O105 Cd102 2.333 . S
O105 C107 1.214 . S
O106 Cd102 2.352 . S
O106 C109 1.258 . S
C107 O104 1.320 . S
C107 O105 1.214 . S
O108 Cd100 2.277 . S
O108 C103 1.209 1_565 S
C109 O106 1.258 . S
C109 O111 1.282 . S
O110 Cd102 2.277 . S
O110 C103 1.226 1_565 S
O111 Cd102 2.356 . S
O111 C109 1.282 . S
C112 O113 1.306 . S
C112 O115 1.160 . S
O113 C112 1.306 . S
O113 Cd114 2.228 . S
Cd114 O113 2.228 . S
Cd114 O118 2.273 . S
Cd114 O122 2.277 . S
O115 C112 1.160 . S
O115 Cd116 2.203 . S
Cd116 O115 2.203 . S
Cd116 O118 2.411 . S
Cd116 O119 2.333 . S
Cd116 O120 2.352 . S
Cd116 O124 2.277 . S
Cd116 O125 2.356 . S
C117 O122 1.209 1_565 S
C117 O124 1.226 1_565 S
O118 Cd114 2.273 . S
O118 Cd116 2.411 . S
O118 C121 1.320 . S
O119 Cd116 2.333 . S
O119 C121 1.214 . S
O120 Cd116 2.352 . S
O120 C123 1.258 . S
C121 O118 1.320 . S
C121 O119 1.214 . S
O122 Cd114 2.277 . S
O122 C117 1.209 1_545 S
C123 O120 1.258 . S
C123 O125 1.282 . S
O124 Cd116 2.277 . S
O124 C117 1.226 1_545 S
O125 Cd116 2.356 . S
O125 C123 1.282 . S
C126 O127 1.306 . S
C126 O129 1.160 . S
O127 C126 1.306 . S
O127 Cd128 2.228 . S
Cd128 O127 2.228 . S
Cd128 O132 2.273 . S
Cd128 O136 2.277 . S
O129 C126 1.160 . S
O129 Cd130 2.203 . S
Cd130 O129 2.203 . S
Cd130 O132 2.411 . S
Cd130 O133 2.333 . S
Cd130 O134 2.352 . S
Cd130 O138 2.277 . S
Cd130 O139 2.356 . S
C131 O136 1.209 1_455 S
C131 O138 1.226 1_455 S
O132 Cd128 2.273 . S
O132 Cd130 2.411 . S
O132 C135 1.320 . S
O133 Cd130 2.333 . S
O133 C135 1.214 . S
O134 Cd130 2.352 . S
O134 C137 1.258 . S
C135 O132 1.320 . S
C135 O133 1.214 . S
O136 Cd128 2.277 . S
O136 C131 1.209 1_655 S
C137 O134 1.258 . S
C137 O139 1.282 . S
O138 Cd130 2.277 . S
O138 C131 1.226 1_655 S
O139 Cd130 2.356 . S
O139 C137 1.282 . S
C140 O141 1.306 . S
C140 O143 1.160 . S
O141 C140 1.306 . S
O141 Cd142 2.228 . S
Cd142 O141 2.228 . S
Cd142 O146 2.273 . S
Cd142 O150 2.277 . S
O143 C140 1.160 . S
O143 Cd144 2.203 . S
Cd144 O143 2.203 . S
Cd144 O146 2.411 . S
Cd144 O147 2.333 . S
Cd144 O148 2.352 . S
Cd144 O152 2.277 . S
Cd144 O153 2.356 . S
C145 O150 1.209 1_545 S
C145 O152 1.226 1_545 S
O146 Cd142 2.273 . S
O146 Cd144 2.411 . S
O146 C149 1.320 . S
O147 Cd144 2.333 . S
O147 C149 1.214 . S
O148 Cd144 2.352 . S
O148 C151 1.258 . S
C149 O146 1.320 . S
C149 O147 1.214 . S
O150 Cd142 2.277 . S
O150 C145 1.209 1_565 S
C151 O148 1.258 . S
C151 O153 1.282 . S
O152 Cd144 2.277 . S
O152 C145 1.226 1_565 S
O153 Cd144 2.356 . S
O153 C151 1.282 . S
C154 O155 1.306 . S
C154 O157 1.160 . S
O155 C154 1.306 . S
O155 Cd156 2.228 . S
Cd156 O155 2.228 . S
Cd156 O160 2.273 . S
Cd156 O164 2.277 . S
O157 C154 1.160 . S
O157 Cd158 2.203 . S
Cd158 O157 2.203 . S
Cd158 O160 2.411 . S
Cd158 O161 2.333 . S
Cd158 O162 2.352 . S
Cd158 O166 2.277 . S
Cd158 O167 2.356 . S
C159 O164 1.209 1_655 S
C159 O166 1.226 1_655 S
O160 Cd156 2.273 . S
O160 Cd158 2.411 . S
O160 C163 1.320 . S
O161 Cd158 2.333 . S
O161 C163 1.214 . S
O162 Cd158 2.352 . S
O162 C165 1.258 . S
C163 O160 1.320 . S
C163 O161 1.214 . S
O164 Cd156 2.277 . S
O164 C159 1.209 1_455 S
C165 O162 1.258 . S
C165 O167 1.282 . S
O166 Cd158 2.277 . S
O166 C159 1.226 1_455 S
O167 Cd158 2.356 . S
O167 C165 1.282 . S
C168 O169 1.306 . S
C168 O171 1.160 . S
O169 C168 1.306 . S
O169 Cd170 2.228 . S
Cd170 O169 2.228 . S
Cd170 O174 2.273 . S
Cd170 O178 2.277 . S
O171 C168 1.160 . S
O171 Cd172 2.203 . S
Cd172 O171 2.203 . S
Cd172 O174 2.411 . S
Cd172 O175 2.333 . S
Cd172 O176 2.352 . S
Cd172 O180 2.277 . S
Cd172 O181 2.356 . S
C173 O178 1.209 1_545 S
C173 O180 1.226 1_545 S
O174 Cd170 2.273 . S
O174 Cd172 2.411 . S
O174 C177 1.320 . S
O175 Cd172 2.333 . S
O175 C177 1.214 . S
O176 Cd172 2.352 . S
O176 C179 1.258 . S
C177 O174 1.320 . S
C177 O175 1.214 . S
O178 Cd170 2.277 . S
O178 C173 1.209 1_565 S
C179 O176 1.258 . S
C179 O181 1.282 . S
O180 Cd172 2.277 . S
O180 C173 1.226 1_565 S
O181 Cd172 2.356 . S
O181 C179 1.282 . S
C182 O183 1.306 . S
C182 O185 1.160 . S
O183 C182 1.306 . S
O183 Cd184 2.228 . S
Cd184 O183 2.228 . S
Cd184 O188 2.273 . S
Cd184 O192 2.277 . S
O185 C182 1.160 . S
O185 Cd186 2.203 . S
Cd186 O185 2.203 . S
Cd186 O188 2.411 . S
Cd186 O189 2.333 . S
Cd186 O190 2.352 . S
Cd186 O194 2.277 . S
Cd186 O195 2.356 . S
C187 O192 1.209 1_655 S
C187 O194 1.226 1_655 S
O188 Cd184 2.273 . S
O188 Cd186 2.411 . S
O188 C191 1.320 . S
O189 Cd186 2.333 . S
O189 C191 1.214 . S
O190 Cd186 2.352 . S
O190 C193 1.258 . S
C191 O188 1.320 . S
C191 O189 1.214 . S
O192 Cd184 2.277 . S
O192 C187 1.209 1_455 S
C193 O190 1.258 . S
C193 O195 1.282 . S
O194 Cd186 2.277 . S
O194 C187 1.226 1_455 S
O195 Cd186 2.356 . S
O195 C193 1.282 . S
C196 O197 1.306 . S
C196 O199 1.160 . S
O197 C196 1.306 . S
O197 Cd198 2.228 . S
Cd198 O197 2.228 . S
Cd198 O202 2.273 . S
Cd198 O206 2.277 . S
O199 C196 1.160 . S
O199 Cd200 2.203 . S
Cd200 O199 2.203 . S
Cd200 O202 2.411 . S
Cd200 O203 2.333 . S
Cd200 O204 2.352 . S
Cd200 O208 2.277 . S
Cd200 O209 2.356 . S
C201 O206 1.209 1_565 S
C201 O208 1.226 1_565 S
O202 Cd198 2.273 . S
O202 Cd200 2.411 . S
O202 C205 1.320 . S
O203 Cd200 2.333 . S
O203 C205 1.214 . S
O204 Cd200 2.352 . S
O204 C207 1.258 . S
C205 O202 1.320 . S
C205 O203 1.214 . S
O206 Cd198 2.277 . S
O206 C201 1.209 1_545 S
C207 O204 1.258 . S
C207 O209 1.282 . S
O208 Cd200 2.277 . S
O208 C201 1.226 1_545 S
O209 Cd200 2.356 . S
O209 C207 1.282 . S
C210 O211 1.306 . S
C210 O213 1.160 . S
O211 C210 1.306 . S
O211 Cd212 2.228 . S
Cd212 O211 2.228 . S
Cd212 O216 2.273 . S
Cd212 O220 2.277 . S
O213 C210 1.160 . S
O213 Cd214 2.203 . S
Cd214 O213 2.203 . S
Cd214 O216 2.411 . S
Cd214 O217 2.333 . S
Cd214 O218 2.352 . S
Cd214 O222 2.277 . S
Cd214 O223 2.356 . S
C215 O220 1.209 1_455 S
C215 O222 1.226 1_455 S
O216 Cd212 2.273 . S
O216 Cd214 2.411 . S
O216 C219 1.320 . S
O217 Cd214 2.333 . S
O217 C219 1.214 . S
O218 Cd214 2.352 . S
O218 C221 1.258 . S
C219 O216 1.320 . S
C219 O217 1.214 . S
O220 Cd212 2.277 . S
O220 C215 1.209 1_655 S
C221 O218 1.258 . S
C221 O223 1.282 . S
O222 Cd214 2.277 . S
O222 C215 1.226 1_655 S
O223 Cd214 2.356 . S
O223 C221 1.282 . S
C224 O225 1.306 . S
C224 O227 1.160 . S
O225 C224 1.306 . S
O225 Cd226 2.228 . S
Cd226 O225 2.228 . S
Cd226 O230 2.273 . S
Cd226 O234 2.277 . S
O227 C224 1.160 . S
O227 Cd228 2.203 . S
Cd228 O227 2.203 . S
Cd228 O230 2.411 . S
Cd228 O231 2.333 . S
Cd228 O232 2.352 . S
Cd228 O236 2.277 . S
Cd228 O237 2.356 . S
C229 O234 1.209 1_556 S
C229 O236 1.226 1_556 S
O230 Cd226 2.273 . S
O230 Cd228 2.411 . S
O230 C233 1.320 . S
O231 Cd228 2.333 . S
O231 C233 1.214 . S
O232 Cd228 2.352 . S
O232 C235 1.258 . S
C233 O230 1.320 . S
C233 O231 1.214 . S
O234 Cd226 2.277 . S
O234 C229 1.209 1_554 S
C235 O232 1.258 . S
C235 O237 1.282 . S
O236 Cd228 2.277 . S
O236 C229 1.226 1_554 S
O237 Cd228 2.356 . S
O237 C235 1.282 . S
C238 O239 1.306 . S
C238 O241 1.160 . S
O239 C238 1.306 . S
O239 Cd240 2.228 . S
Cd240 O239 2.228 . S
Cd240 O244 2.273 . S
Cd240 O248 2.277 . S
O241 C238 1.160 . S
O241 Cd242 2.203 . S
Cd242 O241 2.203 . S
Cd242 O244 2.411 . S
Cd242 O245 2.333 . S
Cd242 O246 2.352 . S
Cd242 O250 2.277 . S
Cd242 O251 2.356 . S
C243 O248 1.209 1_554 S
C243 O250 1.226 1_554 S
O244 Cd240 2.273 . S
O244 Cd242 2.411 . S
O244 C247 1.320 . S
O245 Cd242 2.333 . S
O245 C247 1.214 . S
O246 Cd242 2.352 . S
O246 C249 1.258 . S
C247 O244 1.320 . S
C247 O245 1.214 . S
O248 Cd240 2.277 . S
O248 C243 1.209 1_556 S
C249 O246 1.258 . S
C249 O251 1.282 . S
O250 Cd242 2.277 . S
O250 C243 1.226 1_556 S
O251 Cd242 2.356 . S
O251 C249 1.282 . S
C252 O253 1.306 . S
C252 O255 1.160 . S
O253 C252 1.306 . S
O253 Cd254 2.228 . S
Cd254 O253 2.228 . S
Cd254 O258 2.273 . S
Cd254 O262 2.277 . S
O255 C252 1.160 . S
O255 Cd256 2.203 . S
Cd256 O255 2.203 . S
Cd256 O258 2.411 . S
Cd256 O259 2.333 . S
Cd256 O260 2.352 . S
Cd256 O264 2.277 . S
Cd256 O265 2.356 . S
C257 O262 1.209 1_554 S
C257 O264 1.226 1_554 S
O258 Cd254 2.273 . S
O258 Cd256 2.411 . S
O258 C261 1.320 . S
O259 Cd256 2.333 . S
O259 C261 1.214 . S
O260 Cd256 2.352 . S
O260 C263 1.258 . S
C261 O258 1.320 . S
C261 O259 1.214 . S
O262 Cd254 2.277 . S
O262 C257 1.209 1_556 S
C263 O260 1.258 . S
C263 O265 1.282 . S
O264 Cd256 2.277 . S
O264 C257 1.226 1_556 S
O265 Cd256 2.356 . S
O265 C263 1.282 . S
C266 O267 1.306 . S
C266 O269 1.160 . S
O267 C266 1.306 . S
O267 Cd268 2.228 . S
Cd268 O267 2.228 . S
Cd268 O272 2.273 . S
Cd268 O276 2.277 . S
O269 C266 1.160 . S
O269 Cd270 2.203 . S
Cd270 O269 2.203 . S
Cd270 O272 2.411 . S
Cd270 O273 2.333 . S
Cd270 O274 2.352 . S
Cd270 O278 2.277 . S
Cd270 O279 2.356 . S
C271 O276 1.209 1_554 S
C271 O278 1.226 1_554 S
O272 Cd268 2.273 . S
O272 Cd270 2.411 . S
O272 C275 1.320 . S
O273 Cd270 2.333 . S
O273 C275 1.214 . S
O274 Cd270 2.352 . S
O274 C277 1.258 . S
C275 O272 1.320 . S
C275 O273 1.214 . S
O276 Cd268 2.277 . S
O276 C271 1.209 1_556 S
C277 O274 1.258 . S
C277 O279 1.282 . S
O278 Cd270 2.277 . S
O278 C271 1.226 1_556 S
O279 Cd270 2.356 . S
O279 C277 1.282 . S
C280 O281 1.306 . S
C280 O283 1.160 . S
O281 C280 1.306 . S
O281 Cd282 2.228 . S
Cd282 O281 2.228 . S
Cd282 O286 2.273 . S
Cd282 O290 2.277 . S
O283 C280 1.160 . S
O283 Cd284 2.203 . S
Cd284 O283 2.203 . S
Cd284 O286 2.411 . S
Cd284 O287 2.333 . S
Cd284 O288 2.352 . S
Cd284 O292 2.277 . S
Cd284 O293 2.356 . S
C285 O290 1.209 1_554 S
C285 O292 1.226 1_554 S
O286 Cd282 2.273 . S
O286 Cd284 2.411 . S
O286 C289 1.320 . S
O287 Cd284 2.333 . S
O287 C289 1.214 . S
O288 Cd284 2.352 . S
O288 C291 1.258 . S
C289 O286 1.320 . S
C289 O287 1.214 . S
O290 Cd282 2.277 . S
O290 C285 1.209 1_556 S
C291 O288 1.258 . S
C291 O293 1.282 . S
O292 Cd284 2.277 . S
O292 C285 1.226 1_556 S
O293 Cd284 2.356 . S
O293 C291 1.282 . S
C294 O295 1.306 . S
C294 O297 1.160 . S
O295 C294 1.306 . S
O295 Cd296 2.228 . S
Cd296 O295 2.228 . S
Cd296 O300 2.273 . S
Cd296 O304 2.277 . S
O297 C294 1.160 . S
O297 Cd298 2.203 . S
Cd298 O297 2.203 . S
Cd298 O300 2.411 . S
Cd298 O301 2.333 . S
Cd298 O302 2.352 . S
Cd298 O306 2.277 . S
Cd298 O307 2.356 . S
C299 O304 1.209 1_556 S
C299 O306 1.226 1_556 S
O300 Cd296 2.273 . S
O300 Cd298 2.411 . S
O300 C303 1.320 . S
O301 Cd298 2.333 . S
O301 C303 1.214 . S
O302 Cd298 2.352 . S
O302 C305 1.258 . S
C303 O300 1.320 . S
C303 O301 1.214 . S
O304 Cd296 2.277 . S
O304 C299 1.209 1_554 S
C305 O302 1.258 . S
C305 O307 1.282 . S
O306 Cd298 2.277 . S
O306 C299 1.226 1_554 S
O307 Cd298 2.356 . S
O307 C305 1.282 . S
C308 O309 1.306 . S
C308 O311 1.160 . S
O309 C308 1.306 . S
O309 Cd310 2.228 . S
Cd310 O309 2.228 . S
Cd310 O314 2.273 . S
Cd310 O318 2.277 . S
O311 C308 1.160 . S
O311 Cd312 2.203 . S
Cd312 O311 2.203 . S
Cd312 O314 2.411 . S
Cd312 O315 2.333 . S
Cd312 O316 2.352 . S
Cd312 O320 2.277 . S
Cd312 O321 2.356 . S
C313 O318 1.209 1_556 S
C313 O320 1.226 1_556 S
O314 Cd310 2.273 . S
O314 Cd312 2.411 . S
O314 C317 1.320 . S
O315 Cd312 2.333 . S
O315 C317 1.214 . S
O316 Cd312 2.352 . S
O316 C319 1.258 . S
C317 O314 1.320 . S
C317 O315 1.214 . S
O318 Cd310 2.277 . S
O318 C313 1.209 1_554 S
C319 O316 1.258 . S
C319 O321 1.282 . S
O320 Cd312 2.277 . S
O320 C313 1.226 1_554 S
O321 Cd312 2.356 . S
O321 C319 1.282 . S
C322 O323 1.306 . S
C322 O325 1.160 . S
O323 C322 1.306 . S
O323 Cd324 2.228 . S
Cd324 O323 2.228 . S
Cd324 O328 2.273 . S
Cd324 O332 2.277 . S
O325 C322 1.160 . S
O325 Cd326 2.203 . S
Cd326 O325 2.203 . S
Cd326 O328 2.411 . S
Cd326 O329 2.333 . S
Cd326 O330 2.352 . S
Cd326 O334 2.277 . S
Cd326 O335 2.356 . S
C327 O332 1.209 1_556 S
C327 O334 1.226 1_556 S
O328 Cd324 2.273 . S
O328 Cd326 2.411 . S
O328 C331 1.320 . S
O329 Cd326 2.333 . S
O329 C331 1.214 . S
O330 Cd326 2.352 . S
O330 C333 1.258 . S
C331 O328 1.320 . S
C331 O329 1.214 . S
O332 Cd324 2.277 . S
O332 C327 1.209 1_554 S
C333 O330 1.258 . S
C333 O335 1.282 . S
O334 Cd326 2.277 . S
O334 C327 1.226 1_554 S
O335 Cd326 2.356 . S
O335 C333 1.282 . S
C336 O337 1.306 . S
C336 O339 1.160 . S
O337 C336 1.306 . S
O337 Cd338 2.228 . S
Cd338 O337 2.228 . S
Cd338 O342 2.273 . S
Cd338 O346 2.277 . S
O339 C336 1.160 . S
O339 Cd340 2.203 . S
Cd340 O339 2.203 . S
Cd340 O342 2.411 . S
Cd340 O343 2.333 . S
Cd340 O344 2.352 . S
Cd340 O348 2.277 . S
Cd340 O349 2.356 . S
C341 O346 1.209 . S
C341 O348 1.226 . S
O342 Cd338 2.273 . S
O342 Cd340 2.411 . S
O342 C345 1.320 . S
O343 Cd340 2.333 . S
O343 C345 1.214 . S
O344 Cd340 2.352 . S
O344 C347 1.258 . S
C345 O342 1.320 . S
C345 O343 1.214 . S
O346 Cd338 2.277 . S
O346 C341 1.209 . S
C347 O344 1.258 . S
C347 O349 1.282 . S
O348 Cd340 2.277 . S
O348 C341 1.226 . S
O349 Cd340 2.356 . S
O349 C347 1.282 . S
C350 O351 1.306 . S
C350 O353 1.160 . S
O351 C350 1.306 . S
O351 Cd352 2.228 . S
Cd352 O351 2.228 . S
Cd352 O356 2.273 . S
Cd352 O360 2.277 . S
O353 C350 1.160 . S
O353 Cd354 2.203 . S
Cd354 O353 2.203 . S
Cd354 O356 2.411 . S
Cd354 O357 2.333 . S
Cd354 O358 2.352 . S
Cd354 O362 2.277 . S
Cd354 O363 2.356 . S
C355 O360 1.209 . S
C355 O362 1.226 . S
O356 Cd352 2.273 . S
O356 Cd354 2.411 . S
O356 C359 1.320 . S
O357 Cd354 2.333 . S
O357 C359 1.214 . S
O358 Cd354 2.352 . S
O358 C361 1.258 . S
C359 O356 1.320 . S
C359 O357 1.214 . S
O360 Cd352 2.277 . S
O360 C355 1.209 . S
C361 O358 1.258 . S
C361 O363 1.282 . S
O362 Cd354 2.277 . S
O362 C355 1.226 . S
O363 Cd354 2.356 . S
O363 C361 1.282 . S
C364 O365 1.306 . S
C364 O367 1.160 . S
O365 C364 1.306 . S
O365 Cd366 2.228 . S
Cd366 O365 2.228 . S
Cd366 O370 2.273 . S
Cd366 O374 2.277 . S
O367 C364 1.160 . S
O367 Cd368 2.203 . S
Cd368 O367 2.203 . S
Cd368 O370 2.411 . S
Cd368 O371 2.333 . S
Cd368 O372 2.352 . S
Cd368 O376 2.277 . S
Cd368 O377 2.356 . S
C369 O374 1.209 . S
C369 O376 1.226 . S
O370 Cd366 2.273 . S
O370 Cd368 2.411 . S
O370 C373 1.320 . S
O371 Cd368 2.333 . S
O371 C373 1.214 . S
O372 Cd368 2.352 . S
O372 C375 1.258 . S
C373 O370 1.320 . S
C373 O371 1.214 . S
O374 Cd366 2.277 . S
O374 C369 1.209 . S
C375 O372 1.258 . S
C375 O377 1.282 . S
O376 Cd368 2.277 . S
O376 C369 1.226 . S
O377 Cd368 2.356 . S
O377 C375 1.282 . S
C378 O379 1.306 . S
C378 O381 1.160 . S
O379 C378 1.306 . S
O379 Cd380 2.228 . S
Cd380 O379 2.228 . S
Cd380 O384 2.273 . S
Cd380 O388 2.277 . S
O381 C378 1.160 . S
O381 Cd382 2.203 . S
Cd382 O381 2.203 . S
Cd382 O384 2.411 . S
Cd382 O385 2.333 . S
Cd382 O386 2.352 . S
Cd382 O390 2.277 . S
Cd382 O391 2.356 . S
C383 O388 1.209 . S
C383 O390 1.226 . S
O384 Cd380 2.273 . S
O384 Cd382 2.411 . S
O384 C387 1.320 . S
O385 Cd382 2.333 . S
O385 C387 1.214 . S
O386 Cd382 2.352 . S
O386 C389 1.258 . S
C387 O384 1.320 . S
C387 O385 1.214 . S
O388 Cd380 2.277 . S
O388 C383 1.209 . S
C389 O386 1.258 . S
C389 O391 1.282 . S
O390 Cd382 2.277 . S
O390 C383 1.226 . S
O391 Cd382 2.356 . S
O391 C389 1.282 . S
C392 O393 1.306 . S
C392 O395 1.160 . S
O393 C392 1.306 . S
O393 Cd394 2.228 . S
Cd394 O393 2.228 . S
Cd394 O398 2.273 . S
Cd394 O402 2.277 . S
O395 C392 1.160 . S
O395 Cd396 2.203 . S
Cd396 O395 2.203 . S
Cd396 O398 2.411 . S
Cd396 O399 2.333 . S
Cd396 O400 2.352 . S
Cd396 O404 2.277 . S
Cd396 O405 2.356 . S
C397 O402 1.209 . S
C397 O404 1.226 . S
O398 Cd394 2.273 . S
O398 Cd396 2.411 . S
O398 C401 1.320 . S
O399 Cd396 2.333 . S
O399 C401 1.214 . S
O400 Cd396 2.352 . S
O400 C403 1.258 . S
C401 O398 1.320 . S
C401 O399 1.214 . S
O402 Cd394 2.277 . S
O402 C397 1.209 . S
C403 O400 1.258 . S
C403 O405 1.282 . S
O404 Cd396 2.277 . S
O404 C397 1.226 . S
O405 Cd396 2.356 . S
O405 C403 1.282 . S
C406 O407 1.306 . S
C406 O409 1.160 . S
O407 C406 1.306 . S
O407 Cd408 2.228 . S
Cd408 O407 2.228 . S
Cd408 O412 2.273 . S
Cd408 O416 2.277 . S
O409 C406 1.160 . S
O409 Cd410 2.203 . S
Cd410 O409 2.203 . S
Cd410 O412 2.411 . S
Cd410 O413 2.333 . S
Cd410 O414 2.352 . S
Cd410 O418 2.277 . S
Cd410 O419 2.356 . S
C411 O416 1.209 . S
C411 O418 1.226 . S
O412 Cd408 2.273 . S
O412 Cd410 2.411 . S
O412 C415 1.320 . S
O413 Cd410 2.333 . S
O413 C415 1.214 . S
O414 Cd410 2.352 . S
O414 C417 1.258 . S
C415 O412 1.320 . S
C415 O413 1.214 . S
O416 Cd408 2.277 . S
O416 C411 1.209 . S
C417 O414 1.258 . S
C417 O419 1.282 . S
O418 Cd410 2.277 . S
O418 C411 1.226 . S
O419 Cd410 2.356 . S
O419 C417 1.282 . S
C420 O421 1.306 . S
C420 O423 1.160 . S
O421 C420 1.306 . S
O421 Cd422 2.228 . S
Cd422 O421 2.228 . S
Cd422 O426 2.273 . S
Cd422 O430 2.277 . S
O423 C420 1.160 . S
O423 Cd424 2.203 . S
Cd424 O423 2.203 . S
Cd424 O426 2.411 . S
Cd424 O427 2.333 . S
Cd424 O428 2.352 . S
Cd424 O432 2.277 . S
Cd424 O433 2.356 . S
C425 O430 1.209 . S
C425 O432 1.226 . S
O426 Cd422 2.273 . S
O426 Cd424 2.411 . S
O426 C429 1.320 . S
O427 Cd424 2.333 . S
O427 C429 1.214 . S
O428 Cd424 2.352 . S
O428 C431 1.258 . S
C429 O426 1.320 . S
C429 O427 1.214 . S
O430 Cd422 2.277 . S
O430 C425 1.209 . S
C431 O428 1.258 . S
C431 O433 1.282 . S
O432 Cd424 2.277 . S
O432 C425 1.226 . S
O433 Cd424 2.356 . S
O433 C431 1.282 . S
C434 O435 1.306 . S
C434 O437 1.160 . S
O435 C434 1.306 . S
O435 Cd436 2.228 . S
Cd436 O435 2.228 . S
Cd436 O440 2.273 . S
Cd436 O444 2.277 . S
O437 C434 1.160 . S
O437 Cd438 2.203 . S
Cd438 O437 2.203 . S
Cd438 O440 2.411 . S
Cd438 O441 2.333 . S
Cd438 O442 2.352 . S
Cd438 O446 2.277 . S
Cd438 O447 2.356 . S
C439 O444 1.209 . S
C439 O446 1.226 . S
O440 Cd436 2.273 . S
O440 Cd438 2.411 . S
O440 C443 1.320 . S
O441 Cd438 2.333 . S
O441 C443 1.214 . S
O442 Cd438 2.352 . S
O442 C445 1.258 . S
C443 O440 1.320 . S
C443 O441 1.214 . S
O444 Cd436 2.277 . S
O444 C439 1.209 . S
C445 O442 1.258 . S
C445 O447 1.282 . S
O446 Cd438 2.277 . S
O446 C439 1.226 . S
O447 Cd438 2.356 . S
O447 C445 1.282 . S
C448 O449 1.306 . S
C448 O451 1.160 . S
O449 C448 1.306 . S
O449 Cd450 2.228 . S
Cd450 O449 2.228 . S
Cd450 O454 2.273 . S
Cd450 O458 2.277 . S
O451 C448 1.160 . S
O451 Cd452 2.203 . S
Cd452 O451 2.203 . S
Cd452 O454 2.411 . S
Cd452 O455 2.333 . S
Cd452 O456 2.352 . S
Cd452 O460 2.277 . S
Cd452 O461 2.356 . S
C453 O458 1.209 . S
C453 O460 1.226 . S
O454 Cd450 2.273 . S
O454 Cd452 2.411 . S
O454 C457 1.320 . S
O455 Cd452 2.333 . S
O455 C457 1.214 . S
O456 Cd452 2.352 . S
O456 C459 1.258 . S
C457 O454 1.320 . S
C457 O455 1.214 . S
O458 Cd450 2.277 . S
O458 C453 1.209 . S
C459 O456 1.258 . S
C459 O461 1.282 . S
O460 Cd452 2.277 . S
O460 C453 1.226 . S
O461 Cd452 2.356 . S
O461 C459 1.282 . S
C462 O463 1.306 . S
C462 O465 1.160 . S
O463 C462 1.306 . S
O463 Cd464 2.228 . S
Cd464 O463 2.228 . S
Cd464 O468 2.273 . S
Cd464 O472 2.277 . S
O465 C462 1.160 . S
O465 Cd466 2.203 . S
Cd466 O465 2.203 . S
Cd466 O468 2.411 . S
Cd466 O469 2.333 . S
Cd466 O470 2.352 . S
Cd466 O474 2.277 . S
Cd466 O475 2.356 . S
C467 O472 1.209 . S
C467 O474 1.226 . S
O468 Cd464 2.273 . S
O468 Cd466 2.411 . S
O468 C471 1.320 . S
O469 Cd466 2.333 . S
O469 C471 1.214 . S
O470 Cd466 2.352 . S
O470 C473 1.258 . S
C471 O468 1.320 . S
C471 O469 1.214 . S
O472 Cd464 2.277 . S
O472 C467 1.209 . S
C473 O470 1.258 . S
C473 O475 1.282 . S
O474 Cd466 2.277 . S
O474 C467 1.226 . S
O475 Cd466 2.356 . S
O475 C473 1.282 . S
C476 O477 1.306 . S
C476 O479 1.160 . S
O477 C476 1.306 . S
O477 Cd478 2.228 . S
Cd478 O477 2.228 . S
Cd478 O482 2.273 . S
Cd478 O486 2.277 . S
O479 C476 1.160 . S
O479 Cd480 2.203 . S
Cd480 O479 2.203 . S
Cd480 O482 2.411 . S
Cd480 O483 2.333 . S
Cd480 O484 2.352 . S
Cd480 O488 2.277 . S
Cd480 O489 2.356 . S
C481 O486 1.209 . S
C481 O488 1.226 . S
O482 Cd478 2.273 . S
O482 Cd480 2.411 . S
O482 C485 1.320 . S
O483 Cd480 2.333 . S
O483 C485 1.214 . S
O484 Cd480 2.352 . S
O484 C487 1.258 . S
C485 O482 1.320 . S
C485 O483 1.214 . S
O486 Cd478 2.277 . S
O486 C481 1.209 . S
C487 O484 1.258 . S
C487 O489 1.282 . S
O488 Cd480 2.277 . S
O488 C481 1.226 . S
O489 Cd480 2.356 . S
O489 C487 1.282 . S
C490 O491 1.306 . S
C490 O493 1.160 . S
O491 C490 1.306 . S
O491 Cd492 2.228 . S
Cd492 O491 2.228 . S
Cd492 O496 2.273 . S
Cd492 O500 2.277 . S
O493 C490 1.160 . S
O493 Cd494 2.203 . S
Cd494 O493 2.203 . S
Cd494 O496 2.411 . S
Cd494 O497 2.333 . S
Cd494 O498 2.352 . S
Cd494 O502 2.277 . S
Cd494 O503 2.356 . S
C495 O500 1.209 . S
C495 O502 1.226 . S
O496 Cd492 2.273 . S
O496 Cd494 2.411 . S
O496 C499 1.320 . S
O497 Cd494 2.333 . S
O497 C499 1.214 . S
O498 Cd494 2.352 . S
O498 C501 1.258 . S
C499 O496 1.320 . S
C499 O497 1.214 . S
O500 Cd492 2.277 . S
O500 C495 1.209 . S
C501 O498 1.258 . S
C501 O503 1.282 . S
O502 Cd494 2.277 . S
O502 C495 1.226 . S
O503 Cd494 2.356 . S
O503 C501 1.282 . S
C504 O505 1.306 . S
C504 O507 1.160 . S
O505 C504 1.306 . S
O505 Cd506 2.228 . S
Cd506 O505 2.228 . S
Cd506 O510 2.273 . S
Cd506 O514 2.277 . S
O507 C504 1.160 . S
O507 Cd508 2.203 . S
Cd508 O507 2.203 . S
Cd508 O510 2.411 . S
Cd508 O511 2.333 . S
Cd508 O512 2.352 . S
Cd508 O516 2.277 . S
Cd508 O517 2.356 . S
C509 O514 1.209 . S
C509 O516 1.226 . S
O510 Cd506 2.273 . S
O510 Cd508 2.411 . S
O510 C513 1.320 . S
O511 Cd508 2.333 . S
O511 C513 1.214 . S
O512 Cd508 2.352 . S
O512 C515 1.258 . S
C513 O510 1.320 . S
C513 O511 1.214 . S
O514 Cd506 2.277 . S
O514 C509 1.209 . S
C515 O512 1.258 . S
C515 O517 1.282 . S
O516 Cd508 2.277 . S
O516 C509 1.226 . S
O517 Cd508 2.356 . S
O517 C515 1.282 . S
C518 O519 1.306 . S
C518 O521 1.160 . S
O519 C518 1.306 . S
O519 Cd520 2.228 . S
Cd520 O519 2.228 . S
Cd520 O524 2.273 . S
Cd520 O528 2.277 . S
O521 C518 1.160 . S
O521 Cd522 2.203 . S
Cd522 O521 2.203 . S
Cd522 O524 2.411 . S
Cd522 O525 2.333 . S
Cd522 O526 2.352 . S
Cd522 O530 2.277 . S
Cd522 O531 2.356 . S
C523 O528 1.209 . S
C523 O530 1.226 . S
O524 Cd520 2.273 . S
O524 Cd522 2.411 . S
O524 C527 1.320 . S
O525 Cd522 2.333 . S
O525 C527 1.214 . S
O526 Cd522 2.352 . S
O526 C529 1.258 . S
C527 O524 1.320 . S
C527 O525 1.214 . S
O528 Cd520 2.277 . S
O528 C523 1.209 . S
C529 O526 1.258 . S
C529 O531 1.282 . S
O530 Cd522 2.277 . S
O530 C523 1.226 . S
O531 Cd522 2.356 . S
O531 C529 1.282 . S
C532 O533 1.306 . S
C532 O535 1.160 . S
O533 C532 1.306 . S
O533 Cd534 2.228 . S
Cd534 O533 2.228 . S
Cd534 O538 2.273 . S
Cd534 O542 2.277 . S
O535 C532 1.160 . S
O535 Cd536 2.203 . S
Cd536 O535 2.203 . S
Cd536 O538 2.411 . S
Cd536 O539 2.333 . S
Cd536 O540 2.352 . S
Cd536 O544 2.277 . S
Cd536 O545 2.356 . S
C537 O542 1.209 . S
C537 O544 1.226 . S
O538 Cd534 2.273 . S
O538 Cd536 2.411 . S
O538 C541 1.320 . S
O539 Cd536 2.333 . S
O539 C541 1.214 . S
O540 Cd536 2.352 . S
O540 C543 1.258 . S
C541 O538 1.320 . S
C541 O539 1.214 . S
O542 Cd534 2.277 . S
O542 C537 1.209 . S
C543 O540 1.258 . S
C543 O545 1.282 . S
O544 Cd536 2.277 . S
O544 C537 1.226 . S
O545 Cd536 2.356 . S
O545 C543 1.282 . S
C546 O547 1.306 . S
C546 O549 1.160 . S
O547 C546 1.306 . S
O547 Cd548 2.228 . S
Cd548 O547 2.228 . S
Cd548 O552 2.273 . S
Cd548 O556 2.277 . S
O549 C546 1.160 . S
O549 Cd550 2.203 . S
Cd550 O549 2.203 . S
Cd550 O552 2.411 . S
Cd550 O553 2.333 . S
Cd550 O554 2.352 . S
Cd550 O558 2.277 . S
Cd550 O559 2.356 . S
C551 O556 1.209 . S
C551 O558 1.226 . S
O552 Cd548 2.273 . S
O552 Cd550 2.411 . S
O552 C555 1.320 . S
O553 Cd550 2.333 . S
O553 C555 1.214 . S
O554 Cd550 2.352 . S
O554 C557 1.258 . S
C555 O552 1.320 . S
C555 O553 1.214 . S
O556 Cd548 2.277 . S
O556 C551 1.209 . S
C557 O554 1.258 . S
C557 O559 1.282 . S
O558 Cd550 2.277 . S
O558 C551 1.226 . S
O559 Cd550 2.356 . S
O559 C557 1.282 . S
C560 O561 1.306 . S
C560 O563 1.160 . S
O561 C560 1.306 . S
O561 Cd562 2.228 . S
Cd562 O561 2.228 . S
Cd562 O566 2.273 . S
Cd562 O570 2.277 . S
O563 C560 1.160 . S
O563 Cd564 2.203 . S
Cd564 O563 2.203 . S
Cd564 O566 2.411 . S
Cd564 O567 2.333 . S
Cd564 O568 2.352 . S
Cd564 O572 2.277 . S
Cd564 O573 2.356 . S
C565 O570 1.209 . S
C565 O572 1.226 . S
O566 Cd562 2.273 . S
O566 Cd564 2.411 . S
O566 C569 1.320 . S
O567 Cd564 2.333 . S
O567 C569 1.214 . S
O568 Cd564 2.352 . S
O568 C571 1.258 . S
C569 O566 1.320 . S
C569 O567 1.214 . S
O570 Cd562 2.277 . S
O570 C565 1.209 . S
C571 O568 1.258 . S
C571 O573 1.282 . S
O572 Cd564 2.277 . S
O572 C565 1.226 . S
O573 Cd564 2.356 . S
O573 C571 1.282 . S
C574 O575 1.306 . S
C574 O577 1.160 . S
O575 C574 1.306 . S
O575 Cd576 2.228 . S
Cd576 O575 2.228 . S
Cd576 O580 2.273 . S
Cd576 O584 2.277 . S
O577 C574 1.160 . S
O577 Cd578 2.203 . S
Cd578 O577 2.203 . S
Cd578 O580 2.411 . S
Cd578 O581 2.333 . S
Cd578 O582 2.352 . S
Cd578 O586 2.277 . S
Cd578 O587 2.356 . S
C579 O584 1.209 . S
C579 O586 1.226 . S
O580 Cd576 2.273 . S
O580 Cd578 2.411 . S
O580 C583 1.320 . S
O581 Cd578 2.333 . S
O581 C583 1.214 . S
O582 Cd578 2.352 . S
O582 C585 1.258 . S
C583 O580 1.320 . S
C583 O581 1.214 . S
O584 Cd576 2.277 . S
O584 C579 1.209 . S
C585 O582 1.258 . S
C585 O587 1.282 . S
O586 Cd578 2.277 . S
O586 C579 1.226 . S
O587 Cd578 2.356 . S
O587 C585 1.282 . S
C588 O589 1.306 . S
C588 O591 1.160 . S
O589 C588 1.306 . S
O589 Cd590 2.228 . S
Cd590 O589 2.228 . S
Cd590 O594 2.273 . S
Cd590 O598 2.277 . S
O591 C588 1.160 . S
O591 Cd592 2.203 . S
Cd592 O591 2.203 . S
Cd592 O594 2.411 . S
Cd592 O595 2.333 . S
Cd592 O596 2.352 . S
Cd592 O600 2.277 . S
Cd592 O601 2.356 . S
C593 O598 1.209 . S
C593 O600 1.226 . S
O594 Cd590 2.273 . S
O594 Cd592 2.411 . S
O594 C597 1.320 . S
O595 Cd592 2.333 . S
O595 C597 1.214 . S
O596 Cd592 2.352 . S
O596 C599 1.258 . S
C597 O594 1.320 . S
C597 O595 1.214 . S
O598 Cd590 2.277 . S
O598 C593 1.209 . S
C599 O596 1.258 . S
C599 O601 1.282 . S
O600 Cd592 2.277 . S
O600 C593 1.226 . S
O601 Cd592 2.356 . S
O601 C599 1.282 . S
C602 O603 1.306 . S
C602 O605 1.160 . S
O603 C602 1.306 . S
O603 Cd604 2.228 . S
Cd604 O603 2.228 . S
Cd604 O608 2.273 . S
Cd604 O612 2.277 . S
O605 C602 1.160 . S
O605 Cd606 2.203 . S
Cd606 O605 2.203 . S
Cd606 O608 2.411 . S
Cd606 O609 2.333 . S
Cd606 O610 2.352 . S
Cd606 O614 2.277 . S
Cd606 O615 2.356 . S
C607 O612 1.209 . S
C607 O614 1.226 . S
O608 Cd604 2.273 . S
O608 Cd606 2.411 . S
O608 C611 1.320 . S
O609 Cd606 2.333 . S
O609 C611 1.214 . S
O610 Cd606 2.352 . S
O610 C613 1.258 . S
C611 O608 1.320 . S
C611 O609 1.214 . S
O612 Cd604 2.277 . S
O612 C607 1.209 . S
C613 O610 1.258 . S
C613 O615 1.282 . S
O614 Cd606 2.277 . S
O614 C607 1.226 . S
O615 Cd606 2.356 . S
O615 C613 1.282 . S
C616 O617 1.306 . S
C616 O619 1.160 . S
O617 C616 1.306 . S
O617 Cd618 2.228 . S
Cd618 O617 2.228 . S
Cd618 O622 2.273 . S
Cd618 O626 2.277 . S
O619 C616 1.160 . S
O619 Cd620 2.203 . S
Cd620 O619 2.203 . S
Cd620 O622 2.411 . S
Cd620 O623 2.333 . S
Cd620 O624 2.352 . S
Cd620 O628 2.277 . S
Cd620 O629 2.356 . S
C621 O626 1.209 . S
C621 O628 1.226 . S
O622 Cd618 2.273 . S
O622 Cd620 2.411 . S
O622 C625 1.320 . S
O623 Cd620 2.333 . S
O623 C625 1.214 . S
O624 Cd620 2.352 . S
O624 C627 1.258 . S
C625 O622 1.320 . S
C625 O623 1.214 . S
O626 Cd618 2.277 . S
O626 C621 1.209 . S
C627 O624 1.258 . S
C627 O629 1.282 . S
O628 Cd620 2.277 . S
O628 C621 1.226 . S
O629 Cd620 2.356 . S
O629 C627 1.282 . S
C630 O631 1.306 . S
C630 O633 1.160 . S
O631 C630 1.306 . S
O631 Cd632 2.228 . S
Cd632 O631 2.228 . S
Cd632 O636 2.273 . S
Cd632 O640 2.277 . S
O633 C630 1.160 . S
O633 Cd634 2.203 . S
Cd634 O633 2.203 . S
Cd634 O636 2.411 . S
Cd634 O637 2.333 . S
Cd634 O638 2.352 . S
Cd634 O642 2.277 . S
Cd634 O643 2.356 . S
C635 O640 1.209 . S
C635 O642 1.226 . S
O636 Cd632 2.273 . S
O636 Cd634 2.411 . S
O636 C639 1.320 . S
O637 Cd634 2.333 . S
O637 C639 1.214 . S
O638 Cd634 2.352 . S
O638 C641 1.258 . S
C639 O636 1.320 . S
C639 O637 1.214 . S
O640 Cd632 2.277 . S
O640 C635 1.209 . S
C641 O638 1.258 . S
C641 O643 1.282 . S
O642 Cd634 2.277 . S
O642 C635 1.226 . S
O643 Cd634 2.356 . S
O643 C641 1.282 . S
C644 O645 1.306 . S
C644 O647 1.160 . S
O645 C644 1.306 . S
O645 Cd646 2.228 . S
Cd646 O645 2.228 . S
Cd646 O650 2.273 . S
Cd646 O654 2.277 . S
O647 C644 1.160 . S
O647 Cd648 2.203 . S
Cd648 O647 2.203 . S
Cd648 O650 2.411 . S
Cd648 O651 2.333 . S
Cd648 O652 2.352 . S
Cd648 O656 2.277 . S
Cd648 O657 2.356 . S
C649 O654 1.209 . S
C649 O656 1.226 . S
O650 Cd646 2.273 . S
O650 Cd648 2.411 . S
O650 C653 1.320 . S
O651 Cd648 2.333 . S
O651 C653 1.214 . S
O652 Cd648 2.352 . S
O652 C655 1.258 . S
C653 O650 1.320 . S
C653 O651 1.214 . S
O654 Cd646 2.277 . S
O654 C649 1.209 . S
C655 O652 1.258 . S
C655 O657 1.282 . S
O656 Cd648 2.277 . S
O656 C649 1.226 . S
O657 Cd648 2.356 . S
O657 C655 1.282 . S
C658 O659 1.306 . S
C658 O661 1.160 . S
O659 C658 1.306 . S
O659 Cd660 2.228 . S
Cd660 O659 2.228 . S
Cd660 O664 2.273 . S
Cd660 O668 2.277 . S
O661 C658 1.160 . S
O661 Cd662 2.203 . S
Cd662 O661 2.203 . S
Cd662 O664 2.411 . S
Cd662 O665 2.333 . S
Cd662 O666 2.352 . S
Cd662 O670 2.277 . S
Cd662 O671 2.356 . S
C663 O668 1.209 . S
C663 O670 1.226 . S
O664 Cd660 2.273 . S
O664 Cd662 2.411 . S
O664 C667 1.320 . S
O665 Cd662 2.333 . S
O665 C667 1.214 . S
O666 Cd662 2.352 . S
O666 C669 1.258 . S
C667 O664 1.320 . S
C667 O665 1.214 . S
O668 Cd660 2.277 . S
O668 C663 1.209 . S
C669 O666 1.258 . S
C669 O671 1.282 . S
O670 Cd662 2.277 . S
O670 C663 1.226 . S
O671 Cd662 2.356 . S
O671 C669 1.282 . S
H672 C680 0.950 . S
H673 C685 0.950 . S
H674 C682 0.950 . S
H675 C684 0.950 . S
H676 C686 0.950 . S
H677 C688 0.950 . S
H678 C690 0.950 . S
H679 C691 0.950 . S
C680 H672 0.950 . S
C680 C681 1.386 . S
C680 C682 1.391 . S
C681 C680 1.386 . S
C681 C685 1.393 . S
C682 H674 0.950 . S
C682 C680 1.391 . S
C682 C683 1.400 . S
C683 C682 1.400 . S
C683 C684 1.398 . S
C683 C689 1.491 . S
C684 H675 0.950 . S
C684 C683 1.398 . S
C684 C685 1.391 . S
C685 H673 0.950 . S
C685 C681 1.393 . S
C685 C684 1.391 . S
C686 H676 0.950 . S
C686 C687 1.386 . S
C686 C688 1.391 . S
C687 C686 1.386 . S
C687 C691 1.393 . S
C688 H677 0.950 . S
C688 C686 1.391 . S
C688 C689 1.400 . S
C689 C683 1.491 . S
C689 C688 1.400 . S
C689 C690 1.398 . S
C690 H678 0.950 . S
C690 C689 1.398 . S
C690 C691 1.391 . S
C691 H679 0.950 . S
C691 C687 1.393 . S
C691 C690 1.391 . S
H692 C700 0.950 . S
H693 C705 0.950 . S
H694 C702 0.950 . S
H695 C704 0.950 . S
H696 C706 0.950 . S
H697 C708 0.950 . S
H698 C710 0.950 . S
H699 C711 0.950 . S
C700 H692 0.950 . S
C700 C701 1.386 . S
C700 C702 1.391 . S
C701 C700 1.386 . S
C701 C705 1.393 . S
C702 H694 0.950 . S
C702 C700 1.391 . S
C702 C703 1.400 . S
C703 C702 1.400 . S
C703 C704 1.398 . S
C703 C709 1.491 . S
C704 H695 0.950 . S
C704 C703 1.398 . S
C704 C705 1.391 . S
C705 H693 0.950 . S
C705 C701 1.393 . S
C705 C704 1.391 . S
C706 H696 0.950 . S
C706 C707 1.386 . S
C706 C708 1.391 . S
C707 C706 1.386 . S
C707 C711 1.393 . S
C708 H697 0.950 . S
C708 C706 1.391 . S
C708 C709 1.400 . S
C709 C703 1.491 . S
C709 C708 1.400 . S
C709 C710 1.398 . S
C710 H698 0.950 . S
C710 C709 1.398 . S
C710 C711 1.391 . S
C711 H699 0.950 . S
C711 C707 1.393 . S
C711 C710 1.391 . S
H712 C720 0.950 . S
H713 C725 0.950 . S
H714 C722 0.950 . S
H715 C724 0.950 . S
H716 C726 0.950 . S
H717 C728 0.950 . S
H718 C730 0.950 . S
H719 C731 0.950 . S
C720 H712 0.950 . S
C720 C721 1.386 . S
C720 C722 1.391 . S
C721 C720 1.386 . S
C721 C725 1.393 . S
C722 H714 0.950 . S
C722 C720 1.391 . S
C722 C723 1.400 . S
C723 C722 1.400 . S
C723 C724 1.398 . S
C723 C729 1.491 . S
C724 H715 0.950 . S
C724 C723 1.398 . S
C724 C725 1.391 . S
C725 H713 0.950 . S
C725 C721 1.393 . S
C725 C724 1.391 . S
C726 H716 0.950 . S
C726 C727 1.386 . S
C726 C728 1.391 . S
C727 C726 1.386 . S
C727 C731 1.393 . S
C728 H717 0.950 . S
C728 C726 1.391 . S
C728 C729 1.400 . S
C729 C723 1.491 . S
C729 C728 1.400 . S
C729 C730 1.398 . S
C730 H718 0.950 . S
C730 C729 1.398 . S
C730 C731 1.391 . S
C731 H719 0.950 . S
C731 C727 1.393 . S
C731 C730 1.391 . S
H732 C740 0.950 . S
H733 C745 0.950 . S
H734 C742 0.950 . S
H735 C744 0.950 . S
H736 C746 0.950 . S
H737 C748 0.950 . S
H738 C750 0.950 . S
H739 C751 0.950 . S
C740 H732 0.950 . S
C740 C741 1.386 . S
C740 C742 1.391 . S
C741 C740 1.386 . S
C741 C745 1.393 . S
C742 H734 0.950 . S
C742 C740 1.391 . S
C742 C743 1.400 . S
C743 C742 1.400 . S
C743 C744 1.398 . S
C743 C749 1.491 . S
C744 H735 0.950 . S
C744 C743 1.398 . S
C744 C745 1.391 . S
C745 H733 0.950 . S
C745 C741 1.393 . S
C745 C744 1.391 . S
C746 H736 0.950 . S
C746 C747 1.386 . S
C746 C748 1.391 . S
C747 C746 1.386 . S
C747 C751 1.393 . S
C748 H737 0.950 . S
C748 C746 1.391 . S
C748 C749 1.400 . S
C749 C743 1.491 . S
C749 C748 1.400 . S
C749 C750 1.398 . S
C750 H738 0.950 . S
C750 C749 1.398 . S
C750 C751 1.391 . S
C751 H739 0.950 . S
C751 C747 1.393 . S
C751 C750 1.391 . S
H752 C760 0.950 . S
H753 C765 0.950 . S
H754 C762 0.950 . S
H755 C764 0.950 . S
H756 C766 0.950 . S
H757 C768 0.950 . S
H758 C770 0.950 . S
H759 C771 0.950 . S
C760 H752 0.950 . S
C760 C761 1.386 . S
C760 C762 1.391 . S
C761 C760 1.386 . S
C761 C765 1.393 . S
C762 H754 0.950 . S
C762 C760 1.391 . S
C762 C763 1.400 . S
C763 C762 1.400 . S
C763 C764 1.398 . S
C763 C769 1.491 . S
C764 H755 0.950 . S
C764 C763 1.398 . S
C764 C765 1.391 . S
C765 H753 0.950 . S
C765 C761 1.393 . S
C765 C764 1.391 . S
C766 H756 0.950 . S
C766 C767 1.386 . S
C766 C768 1.391 . S
C767 C766 1.386 . S
C767 C771 1.393 . S
C768 H757 0.950 . S
C768 C766 1.391 . S
C768 C769 1.400 . S
C769 C763 1.491 . S
C769 C768 1.400 . S
C769 C770 1.398 . S
C770 H758 0.950 . S
C770 C769 1.398 . S
C770 C771 1.391 . S
C771 H759 0.950 . S
C771 C767 1.393 . S
C771 C770 1.391 . S
H772 C780 0.950 . S
H773 C785 0.950 . S
H774 C782 0.950 . S
H775 C784 0.950 . S
H776 C786 0.950 . S
H777 C788 0.950 . S
H778 C790 0.950 . S
H779 C791 0.950 . S
C780 H772 0.950 . S
C780 C781 1.386 . S
C780 C782 1.391 . S
C781 C780 1.386 . S
C781 C785 1.393 . S
C782 H774 0.950 . S
C782 C780 1.391 . S
C782 C783 1.400 . S
C783 C782 1.400 . S
C783 C784 1.398 . S
C783 C789 1.491 . S
C784 H775 0.950 . S
C784 C783 1.398 . S
C784 C785 1.391 . S
C785 H773 0.950 . S
C785 C781 1.393 . S
C785 C784 1.391 . S
C786 H776 0.950 . S
C786 C787 1.386 . S
C786 C788 1.391 . S
C787 C786 1.386 . S
C787 C791 1.393 . S
C788 H777 0.950 . S
C788 C786 1.391 . S
C788 C789 1.400 . S
C789 C783 1.491 . S
C789 C788 1.400 . S
C789 C790 1.398 . S
C790 H778 0.950 . S
C790 C789 1.398 . S
C790 C791 1.391 . S
C791 H779 0.950 . S
C791 C787 1.393 . S
C791 C790 1.391 . S
H792 C800 0.950 . S
H793 C805 0.950 . S
H794 C802 0.950 . S
H795 C804 0.950 . S
H796 C806 0.950 . S
H797 C808 0.950 . S
H798 C810 0.950 . S
H799 C811 0.950 . S
C800 H792 0.950 . S
C800 C801 1.386 . S
C800 C802 1.391 . S
C801 C800 1.386 . S
C801 C805 1.393 . S
C802 H794 0.950 . S
C802 C800 1.391 . S
C802 C803 1.400 . S
C803 C802 1.400 . S
C803 C804 1.398 . S
C803 C809 1.491 . S
C804 H795 0.950 . S
C804 C803 1.398 . S
C804 C805 1.391 . S
C805 H793 0.950 . S
C805 C801 1.393 . S
C805 C804 1.391 . S
C806 H796 0.950 . S
C806 C807 1.386 . S
C806 C808 1.391 . S
C807 C806 1.386 . S
C807 C811 1.393 . S
C808 H797 0.950 . S
C808 C806 1.391 . S
C808 C809 1.400 . S
C809 C803 1.491 . S
C809 C808 1.400 . S
C809 C810 1.398 . S
C810 H798 0.950 . S
C810 C809 1.398 . S
C810 C811 1.391 . S
C811 H799 0.950 . S
C811 C807 1.393 . S
C811 C810 1.391 . S
H812 C820 0.950 . S
H813 C825 0.950 . S
H814 C822 0.950 . S
H815 C824 0.950 . S
H816 C826 0.950 . S
H817 C828 0.950 . S
H818 C830 0.950 . S
H819 C831 0.950 . S
C820 H812 0.950 . S
C820 C821 1.386 . S
C820 C822 1.391 . S
C821 C820 1.386 . S
C821 C825 1.393 . S
C822 H814 0.950 . S
C822 C820 1.391 . S
C822 C823 1.400 . S
C823 C822 1.400 . S
C823 C824 1.398 . S
C823 C829 1.491 . S
C824 H815 0.950 . S
C824 C823 1.398 . S
C824 C825 1.391 . S
C825 H813 0.950 . S
C825 C821 1.393 . S
C825 C824 1.391 . S
C826 H816 0.950 . S
C826 C827 1.386 . S
C826 C828 1.391 . S
C827 C826 1.386 . S
C827 C831 1.393 . S
C828 H817 0.950 . S
C828 C826 1.391 . S
C828 C829 1.400 . S
C829 C823 1.491 . S
C829 C828 1.400 . S
C829 C830 1.398 . S
C830 H818 0.950 . S
C830 C829 1.398 . S
C830 C831 1.391 . S
C831 H819 0.950 . S
C831 C827 1.393 . S
C831 C830 1.391 . S
H832 C840 0.950 . S
H833 C845 0.950 . S
H834 C842 0.950 . S
H835 C844 0.950 . S
H836 C846 0.950 . S
H837 C848 0.950 . S
H838 C850 0.950 . S
H839 C851 0.950 . S
C840 H832 0.950 . S
C840 C841 1.386 . S
C840 C842 1.391 . S
C841 C840 1.386 . S
C841 C845 1.393 . S
C842 H834 0.950 . S
C842 C840 1.391 . S
C842 C843 1.400 . S
C843 C842 1.400 . S
C843 C844 1.398 . S
C843 C849 1.491 . S
C844 H835 0.950 . S
C844 C843 1.398 . S
C844 C845 1.391 . S
C845 H833 0.950 . S
C845 C841 1.393 . S
C845 C844 1.391 . S
C846 H836 0.950 . S
C846 C847 1.386 . S
C846 C848 1.391 . S
C847 C846 1.386 . S
C847 C851 1.393 . S
C848 H837 0.950 . S
C848 C846 1.391 . S
C848 C849 1.400 . S
C849 C843 1.491 . S
C849 C848 1.400 . S
C849 C850 1.398 . S
C850 H838 0.950 . S
C850 C849 1.398 . S
C850 C851 1.391 . S
C851 H839 0.950 . S
C851 C847 1.393 . S
C851 C850 1.391 . S
H852 C860 0.950 . S
H853 C865 0.950 . S
H854 C862 0.950 . S
H855 C864 0.950 . S
H856 C866 0.950 . S
H857 C868 0.950 . S
H858 C870 0.950 . S
H859 C871 0.950 . S
C860 H852 0.950 . S
C860 C861 1.386 . S
C860 C862 1.391 . S
C861 C860 1.386 . S
C861 C865 1.393 . S
C862 H854 0.950 . S
C862 C860 1.391 . S
C862 C863 1.400 . S
C863 C862 1.400 . S
C863 C864 1.398 . S
C863 C869 1.491 . S
C864 H855 0.950 . S
C864 C863 1.398 . S
C864 C865 1.391 . S
C865 H853 0.950 . S
C865 C861 1.393 . S
C865 C864 1.391 . S
C866 H856 0.950 . S
C866 C867 1.386 . S
C866 C868 1.391 . S
C867 C866 1.386 . S
C867 C871 1.393 . S
C868 H857 0.950 . S
C868 C866 1.391 . S
C868 C869 1.400 . S
C869 C863 1.491 . S
C869 C868 1.400 . S
C869 C870 1.398 . S
C870 H858 0.950 . S
C870 C869 1.398 . S
C870 C871 1.391 . S
C871 H859 0.950 . S
C871 C867 1.393 . S
C871 C870 1.391 . S
H872 C880 0.950 . S
H873 C885 0.950 . S
H874 C882 0.950 . S
H875 C884 0.950 . S
H876 C886 0.950 . S
H877 C888 0.950 . S
H878 C890 0.950 . S
H879 C891 0.950 . S
C880 H872 0.950 . S
C880 C881 1.386 . S
C880 C882 1.391 . S
C881 C880 1.386 . S
C881 C885 1.393 . S
C882 H874 0.950 . S
C882 C880 1.391 . S
C882 C883 1.400 . S
C883 C882 1.400 . S
C883 C884 1.398 . S
C883 C889 1.491 . S
C884 H875 0.950 . S
C884 C883 1.398 . S
C884 C885 1.391 . S
C885 H873 0.950 . S
C885 C881 1.393 . S
C885 C884 1.391 . S
C886 H876 0.950 . S
C886 C887 1.386 . S
C886 C888 1.391 . S
C887 C886 1.386 . S
C887 C891 1.393 . S
C888 H877 0.950 . S
C888 C886 1.391 . S
C888 C889 1.400 . S
C889 C883 1.491 . S
C889 C888 1.400 . S
C889 C890 1.398 . S
C890 H878 0.950 . S
C890 C889 1.398 . S
C890 C891 1.391 . S
C891 H879 0.950 . S
C891 C887 1.393 . S
C891 C890 1.391 . S
H892 C900 0.950 . S
H893 C905 0.950 . S
H894 C902 0.950 . S
H895 C904 0.950 . S
H896 C906 0.950 . S
H897 C908 0.950 . S
H898 C910 0.950 . S
H899 C911 0.950 . S
C900 H892 0.950 . S
C900 C901 1.386 . S
C900 C902 1.391 . S
C901 C900 1.386 . S
C901 C905 1.393 . S
C902 H894 0.950 . S
C902 C900 1.391 . S
C902 C903 1.400 . S
C903 C902 1.400 . S
C903 C904 1.398 . S
C903 C909 1.491 . S
C904 H895 0.950 . S
C904 C903 1.398 . S
C904 C905 1.391 . S
C905 H893 0.950 . S
C905 C901 1.393 . S
C905 C904 1.391 . S
C906 H896 0.950 . S
C906 C907 1.386 . S
C906 C908 1.391 . S
C907 C906 1.386 . S
C907 C911 1.393 . S
C908 H897 0.950 . S
C908 C906 1.391 . S
C908 C909 1.400 . S
C909 C903 1.491 . S
C909 C908 1.400 . S
C909 C910 1.398 . S
C910 H898 0.950 . S
C910 C909 1.398 . S
C910 C911 1.391 . S
C911 H899 0.950 . S
C911 C907 1.393 . S
C911 C910 1.391 . S
H912 C920 0.950 . S
H913 C925 0.950 . S
H914 C922 0.950 . S
H915 C924 0.950 . S
H916 C926 0.950 . S
H917 C928 0.950 . S
H918 C930 0.950 . S
H919 C931 0.950 . S
C920 H912 0.950 . S
C920 C921 1.386 . S
C920 C922 1.391 . S
C921 C920 1.386 . S
C921 C925 1.393 . S
C922 H914 0.950 . S
C922 C920 1.391 . S
C922 C923 1.400 . S
C923 C922 1.400 . S
C923 C924 1.398 . S
C923 C929 1.491 . S
C924 H915 0.950 . S
C924 C923 1.398 . S
C924 C925 1.391 . S
C925 H913 0.950 . S
C925 C921 1.393 . S
C925 C924 1.391 . S
C926 H916 0.950 . S
C926 C927 1.386 . S
C926 C928 1.391 . S
C927 C926 1.386 . S
C927 C931 1.393 . S
C928 H917 0.950 . S
C928 C926 1.391 . S
C928 C929 1.400 . S
C929 C923 1.491 . S
C929 C928 1.400 . S
C929 C930 1.398 . S
C930 H918 0.950 . S
C930 C929 1.398 . S
C930 C931 1.391 . S
C931 H919 0.950 . S
C931 C927 1.393 . S
C931 C930 1.391 . S
H932 C940 0.950 . S
H933 C945 0.950 . S
H934 C942 0.950 . S
H935 C944 0.950 . S
H936 C946 0.950 . S
H937 C948 0.950 . S
H938 C950 0.950 . S
H939 C951 0.950 . S
C940 H932 0.950 . S
C940 C941 1.386 . S
C940 C942 1.391 . S
C941 C940 1.386 . S
C941 C945 1.393 . S
C942 H934 0.950 . S
C942 C940 1.391 . S
C942 C943 1.400 . S
C943 C942 1.400 . S
C943 C944 1.398 . S
C943 C949 1.491 . S
C944 H935 0.950 . S
C944 C943 1.398 . S
C944 C945 1.391 . S
C945 H933 0.950 . S
C945 C941 1.393 . S
C945 C944 1.391 . S
C946 H936 0.950 . S
C946 C947 1.386 . S
C946 C948 1.391 . S
C947 C946 1.386 . S
C947 C951 1.393 . S
C948 H937 0.950 . S
C948 C946 1.391 . S
C948 C949 1.400 . S
C949 C943 1.491 . S
C949 C948 1.400 . S
C949 C950 1.398 . S
C950 H938 0.950 . S
C950 C949 1.398 . S
C950 C951 1.391 . S
C951 H939 0.950 . S
C951 C947 1.393 . S
C951 C950 1.391 . S
H952 C960 0.950 . S
H953 C965 0.950 . S
H954 C962 0.950 . S
H955 C964 0.950 . S
H956 C966 0.950 . S
H957 C968 0.950 . S
H958 C970 0.950 . S
H959 C971 0.950 . S
C960 H952 0.950 . S
C960 C961 1.386 . S
C960 C962 1.391 . S
C961 C960 1.386 . S
C961 C965 1.393 . S
C962 H954 0.950 . S
C962 C960 1.391 . S
C962 C963 1.400 . S
C963 C962 1.400 . S
C963 C964 1.398 . S
C963 C969 1.491 . S
C964 H955 0.950 . S
C964 C963 1.398 . S
C964 C965 1.391 . S
C965 H953 0.950 . S
C965 C961 1.393 . S
C965 C964 1.391 . S
C966 H956 0.950 . S
C966 C967 1.386 . S
C966 C968 1.391 . S
C967 C966 1.386 . S
C967 C971 1.393 . S
C968 H957 0.950 . S
C968 C966 1.391 . S
C968 C969 1.400 . S
C969 C963 1.491 . S
C969 C968 1.400 . S
C969 C970 1.398 . S
C970 H958 0.950 . S
C970 C969 1.398 . S
C970 C971 1.391 . S
C971 H959 0.950 . S
C971 C967 1.393 . S
C971 C970 1.391 . S
H972 C980 0.950 . S
H973 C985 0.950 . S
H974 C982 0.950 . S
H975 C984 0.950 . S
H976 C986 0.950 . S
H977 C988 0.950 . S
H978 C990 0.950 . S
H979 C991 0.950 . S
C980 H972 0.950 . S
C980 C981 1.386 . S
C980 C982 1.391 . S
C981 C980 1.386 . S
C981 C985 1.393 . S
C982 H974 0.950 . S
C982 C980 1.391 . S
C982 C983 1.400 . S
C983 C982 1.400 . S
C983 C984 1.398 . S
C983 C989 1.491 . S
C984 H975 0.950 . S
C984 C983 1.398 . S
C984 C985 1.391 . S
C985 H973 0.950 . S
C985 C981 1.393 . S
C985 C984 1.391 . S
C986 H976 0.950 . S
C986 C987 1.386 . S
C986 C988 1.391 . S
C987 C986 1.386 . S
C987 C991 1.393 . S
C988 H977 0.950 . S
C988 C986 1.391 . S
C988 C989 1.400 . S
C989 C983 1.491 . S
C989 C988 1.400 . S
C989 C990 1.398 . S
C990 H978 0.950 . S
C990 C989 1.398 . S
C990 C991 1.391 . S
C991 H979 0.950 . S
C991 C987 1.393 . S
C991 C990 1.391 . S
H992 C1000 0.950 . S
H993 C1005 0.950 . S
H994 C1002 0.950 . S
H995 C1004 0.950 . S
H996 C1006 0.950 . S
H997 C1008 0.950 . S
H998 C1010 0.950 . S
H999 C1011 0.950 . S
C1000 H992 0.950 . S
C1000 C1001 1.386 . S
C1000 C1002 1.391 . S
C1001 C1000 1.386 . S
C1001 C1005 1.393 . S
C1002 H994 0.950 . S
C1002 C1000 1.391 . S
C1002 C1003 1.400 . S
C1003 C1002 1.400 . S
C1003 C1004 1.398 . S
C1003 C1009 1.491 . S
C1004 H995 0.950 . S
C1004 C1003 1.398 . S
C1004 C1005 1.391 . S
C1005 H993 0.950 . S
C1005 C1001 1.393 . S
C1005 C1004 1.391 . S
C1006 H996 0.950 . S
C1006 C1007 1.386 . S
C1006 C1008 1.391 . S
C1007 C1006 1.386 . S
C1007 C1011 1.393 . S
C1008 H997 0.950 . S
C1008 C1006 1.391 . S
C1008 C1009 1.400 . S
C1009 C1003 1.491 . S
C1009 C1008 1.400 . S
C1009 C1010 1.398 . S
C1010 H998 0.950 . S
C1010 C1009 1.398 . S
C1010 C1011 1.391 . S
C1011 H999 0.950 . S
C1011 C1007 1.393 . S
C1011 C1010 1.391 . S
H1012 C1020 0.950 . S
H1013 C1025 0.950 . S
H1014 C1022 0.950 . S
H1015 C1024 0.950 . S
H1016 C1026 0.950 . S
H1017 C1028 0.950 . S
H1018 C1030 0.950 . S
H1019 C1031 0.950 . S
C1020 H1012 0.950 . S
C1020 C1021 1.386 . S
C1020 C1022 1.391 . S
C1021 C1020 1.386 . S
C1021 C1025 1.393 . S
C1022 H1014 0.950 . S
C1022 C1020 1.391 . S
C1022 C1023 1.400 . S
C1023 C1022 1.400 . S
C1023 C1024 1.398 . S
C1023 C1029 1.491 . S
C1024 H1015 0.950 . S
C1024 C1023 1.398 . S
C1024 C1025 1.391 . S
C1025 H1013 0.950 . S
C1025 C1021 1.393 . S
C1025 C1024 1.391 . S
C1026 H1016 0.950 . S
C1026 C1027 1.386 . S
C1026 C1028 1.391 . S
C1027 C1026 1.386 . S
C1027 C1031 1.393 . S
C1028 H1017 0.950 . S
C1028 C1026 1.391 . S
C1028 C1029 1.400 . S
C1029 C1023 1.491 . S
C1029 C1028 1.400 . S
C1029 C1030 1.398 . S
C1030 H1018 0.950 . S
C1030 C1029 1.398 . S
C1030 C1031 1.391 . S
C1031 H1019 0.950 . S
C1031 C1027 1.393 . S
C1031 C1030 1.391 . S
H1032 C1040 0.950 . S
H1033 C1045 0.950 . S
H1034 C1042 0.950 . S
H1035 C1044 0.950 . S
H1036 C1046 0.950 . S
H1037 C1048 0.950 . S
H1038 C1050 0.950 . S
H1039 C1051 0.950 . S
C1040 H1032 0.950 . S
C1040 C1041 1.386 . S
C1040 C1042 1.391 . S
C1041 C1040 1.386 . S
C1041 C1045 1.393 . S
C1042 H1034 0.950 . S
C1042 C1040 1.391 . S
C1042 C1043 1.400 . S
C1043 C1042 1.400 . S
C1043 C1044 1.398 . S
C1043 C1049 1.491 . S
C1044 H1035 0.950 . S
C1044 C1043 1.398 . S
C1044 C1045 1.391 . S
C1045 H1033 0.950 . S
C1045 C1041 1.393 . S
C1045 C1044 1.391 . S
C1046 H1036 0.950 . S
C1046 C1047 1.386 . S
C1046 C1048 1.391 . S
C1047 C1046 1.386 . S
C1047 C1051 1.393 . S
C1048 H1037 0.950 . S
C1048 C1046 1.391 . S
C1048 C1049 1.400 . S
C1049 C1043 1.491 . S
C1049 C1048 1.400 . S
C1049 C1050 1.398 . S
C1050 H1038 0.950 . S
C1050 C1049 1.398 . S
C1050 C1051 1.391 . S
C1051 H1039 0.950 . S
C1051 C1047 1.393 . S
C1051 C1050 1.391 . S
H1052 C1060 0.950 . S
H1053 C1065 0.950 . S
H1054 C1062 0.950 . S
H1055 C1064 0.950 . S
H1056 C1066 0.950 . S
H1057 C1068 0.950 . S
H1058 C1070 0.950 . S
H1059 C1071 0.950 . S
C1060 H1052 0.950 . S
C1060 C1061 1.386 . S
C1060 C1062 1.391 . S
C1061 C1060 1.386 . S
C1061 C1065 1.393 . S
C1062 H1054 0.950 . S
C1062 C1060 1.391 . S
C1062 C1063 1.400 . S
C1063 C1062 1.400 . S
C1063 C1064 1.398 . S
C1063 C1069 1.491 . S
C1064 H1055 0.950 . S
C1064 C1063 1.398 . S
C1064 C1065 1.391 . S
C1065 H1053 0.950 . S
C1065 C1061 1.393 . S
C1065 C1064 1.391 . S
C1066 H1056 0.950 . S
C1066 C1067 1.386 . S
C1066 C1068 1.391 . S
C1067 C1066 1.386 . S
C1067 C1071 1.393 . S
C1068 H1057 0.950 . S
C1068 C1066 1.391 . S
C1068 C1069 1.400 . S
C1069 C1063 1.491 . S
C1069 C1068 1.400 . S
C1069 C1070 1.398 . S
C1070 H1058 0.950 . S
C1070 C1069 1.398 . S
C1070 C1071 1.391 . S
C1071 H1059 0.950 . S
C1071 C1067 1.393 . S
C1071 C1070 1.391 . S
H1072 C1080 0.950 . S
H1073 C1085 0.950 . S
H1074 C1082 0.950 . S
H1075 C1084 0.950 . S
H1076 C1086 0.950 . S
H1077 C1088 0.950 . S
H1078 C1090 0.950 . S
H1079 C1091 0.950 . S
C1080 H1072 0.950 . S
C1080 C1081 1.386 . S
C1080 C1082 1.391 . S
C1081 C1080 1.386 . S
C1081 C1085 1.393 . S
C1082 H1074 0.950 . S
C1082 C1080 1.391 . S
C1082 C1083 1.400 . S
C1083 C1082 1.400 . S
C1083 C1084 1.398 . S
C1083 C1089 1.491 . S
C1084 H1075 0.950 . S
C1084 C1083 1.398 . S
C1084 C1085 1.391 . S
C1085 H1073 0.950 . S
C1085 C1081 1.393 . S
C1085 C1084 1.391 . S
C1086 H1076 0.950 . S
C1086 C1087 1.386 . S
C1086 C1088 1.391 . S
C1087 C1086 1.386 . S
C1087 C1091 1.393 . S
C1088 H1077 0.950 . S
C1088 C1086 1.391 . S
C1088 C1089 1.400 . S
C1089 C1083 1.491 . S
C1089 C1088 1.400 . S
C1089 C1090 1.398 . S
C1090 H1078 0.950 . S
C1090 C1089 1.398 . S
C1090 C1091 1.391 . S
C1091 H1079 0.950 . S
C1091 C1087 1.393 . S
C1091 C1090 1.391 . S
H1092 C1100 0.950 . S
H1093 C1105 0.950 . S
H1094 C1102 0.950 . S
H1095 C1104 0.950 . S
H1096 C1106 0.950 . S
H1097 C1108 0.950 . S
H1098 C1110 0.950 . S
H1099 C1111 0.950 . S
C1100 H1092 0.950 . S
C1100 C1101 1.386 . S
C1100 C1102 1.391 . S
C1101 C1100 1.386 . S
C1101 C1105 1.393 . S
C1102 H1094 0.950 . S
C1102 C1100 1.391 . S
C1102 C1103 1.400 . S
C1103 C1102 1.400 . S
C1103 C1104 1.398 . S
C1103 C1109 1.491 . S
C1104 H1095 0.950 . S
C1104 C1103 1.398 . S
C1104 C1105 1.391 . S
C1105 H1093 0.950 . S
C1105 C1101 1.393 . S
C1105 C1104 1.391 . S
C1106 H1096 0.950 . S
C1106 C1107 1.386 . S
C1106 C1108 1.391 . S
C1107 C1106 1.386 . S
C1107 C1111 1.393 . S
C1108 H1097 0.950 . S
C1108 C1106 1.391 . S
C1108 C1109 1.400 . S
C1109 C1103 1.491 . S
C1109 C1108 1.400 . S
C1109 C1110 1.398 . S
C1110 H1098 0.950 . S
C1110 C1109 1.398 . S
C1110 C1111 1.391 . S
C1111 H1099 0.950 . S
C1111 C1107 1.393 . S
C1111 C1110 1.391 . S
H1112 C1120 0.950 . S
H1113 C1125 0.950 . S
H1114 C1122 0.950 . S
H1115 C1124 0.950 . S
H1116 C1126 0.950 . S
H1117 C1128 0.950 . S
H1118 C1130 0.950 . S
H1119 C1131 0.950 . S
C1120 H1112 0.950 . S
C1120 C1121 1.386 . S
C1120 C1122 1.391 . S
C1121 C1120 1.386 . S
C1121 C1125 1.393 . S
C1122 H1114 0.950 . S
C1122 C1120 1.391 . S
C1122 C1123 1.400 . S
C1123 C1122 1.400 . S
C1123 C1124 1.398 . S
C1123 C1129 1.491 . S
C1124 H1115 0.950 . S
C1124 C1123 1.398 . S
C1124 C1125 1.391 . S
C1125 H1113 0.950 . S
C1125 C1121 1.393 . S
C1125 C1124 1.391 . S
C1126 H1116 0.950 . S
C1126 C1127 1.386 . S
C1126 C1128 1.391 . S
C1127 C1126 1.386 . S
C1127 C1131 1.393 . S
C1128 H1117 0.950 . S
C1128 C1126 1.391 . S
C1128 C1129 1.400 . S
C1129 C1123 1.491 . S
C1129 C1128 1.400 . S
C1129 C1130 1.398 . S
C1130 H1118 0.950 . S
C1130 C1129 1.398 . S
C1130 C1131 1.391 . S
C1131 H1119 0.950 . S
C1131 C1127 1.393 . S
C1131 C1130 1.391 . S
H1132 C1140 0.950 . S
H1133 C1145 0.950 . S
H1134 C1142 0.950 . S
H1135 C1144 0.950 . S
H1136 C1146 0.950 . S
H1137 C1148 0.950 . S
H1138 C1150 0.950 . S
H1139 C1151 0.950 . S
C1140 H1132 0.950 . S
C1140 C1141 1.386 . S
C1140 C1142 1.391 . S
C1141 C1140 1.386 . S
C1141 C1145 1.393 . S
C1142 H1134 0.950 . S
C1142 C1140 1.391 . S
C1142 C1143 1.400 . S
C1143 C1142 1.400 . S
C1143 C1144 1.398 . S
C1143 C1149 1.491 . S
C1144 H1135 0.950 . S
C1144 C1143 1.398 . S
C1144 C1145 1.391 . S
C1145 H1133 0.950 . S
C1145 C1141 1.393 . S
C1145 C1144 1.391 . S
C1146 H1136 0.950 . S
C1146 C1147 1.386 . S
C1146 C1148 1.391 . S
C1147 C1146 1.386 . S
C1147 C1151 1.393 . S
C1148 H1137 0.950 . S
C1148 C1146 1.391 . S
C1148 C1149 1.400 . S
C1149 C1143 1.491 . S
C1149 C1148 1.400 . S
C1149 C1150 1.398 . S
C1150 H1138 0.950 . S
C1150 C1149 1.398 . S
C1150 C1151 1.391 . S
C1151 H1139 0.950 . S
C1151 C1147 1.393 . S
C1151 C1150 1.391 . S
H1152 C1160 0.950 . S
H1153 C1165 0.950 . S
H1154 C1162 0.950 . S
H1155 C1164 0.950 . S
H1156 C1166 0.950 . S
H1157 C1168 0.950 . S
H1158 C1170 0.950 . S
H1159 C1171 0.950 . S
C1160 H1152 0.950 . S
C1160 C1161 1.386 . S
C1160 C1162 1.391 . S
C1161 C1160 1.386 . S
C1161 C1165 1.393 1_655 S
C1162 H1154 0.950 . S
C1162 C1160 1.391 . S
C1162 C1163 1.400 . S
C1163 C1162 1.400 . S
C1163 C1164 1.398 1_655 S
C1163 C1169 1.491 1_655 S
C1164 H1155 0.950 . S
C1164 C1163 1.398 1_455 S
C1164 C1165 1.391 . S
C1165 H1153 0.950 . S
C1165 C1161 1.393 1_455 S
C1165 C1164 1.391 . S
C1166 H1156 0.950 . S
C1166 C1167 1.386 . S
C1166 C1168 1.391 . S
C1167 C1166 1.386 . S
C1167 C1171 1.393 1_455 S
C1168 H1157 0.950 . S
C1168 C1166 1.391 . S
C1168 C1169 1.400 . S
C1169 C1163 1.491 1_455 S
C1169 C1168 1.400 . S
C1169 C1170 1.398 1_455 S
C1170 H1158 0.950 . S
C1170 C1169 1.398 1_655 S
C1170 C1171 1.391 . S
C1171 H1159 0.950 . S
C1171 C1167 1.393 1_655 S
C1171 C1170 1.391 . S
H1172 C1180 0.950 . S
H1173 C1185 0.950 . S
H1174 C1182 0.950 1_545 S
H1175 C1184 0.950 . S
H1176 C1186 0.950 . S
H1177 C1188 0.950 1_565 S
H1178 C1190 0.950 . S
H1179 C1191 0.950 . S
C1180 H1172 0.950 . S
C1180 C1181 1.386 . S
C1180 C1182 1.391 . S
C1181 C1180 1.386 . S
C1181 C1185 1.393 . S
C1182 H1174 0.950 1_565 S
C1182 C1180 1.391 . S
C1182 C1183 1.400 . S
C1183 C1182 1.400 . S
C1183 C1184 1.398 . S
C1183 C1189 1.491 1_565 S
C1184 H1175 0.950 . S
C1184 C1183 1.398 . S
C1184 C1185 1.391 . S
C1185 H1173 0.950 . S
C1185 C1181 1.393 . S
C1185 C1184 1.391 . S
C1186 H1176 0.950 . S
C1186 C1187 1.386 . S
C1186 C1188 1.391 . S
C1187 C1186 1.386 . S
C1187 C1191 1.393 . S
C1188 H1177 0.950 1_545 S
C1188 C1186 1.391 . S
C1188 C1189 1.400 . S
C1189 C1183 1.491 1_545 S
C1189 C1188 1.400 . S
C1189 C1190 1.398 . S
C1190 H1178 0.950 . S
C1190 C1189 1.398 . S
C1190 C1191 1.391 . S
C1191 H1179 0.950 . S
C1191 C1187 1.393 . S
C1191 C1190 1.391 . S
H1192 C1200 0.950 . S
H1193 C1205 0.950 . S
H1194 C1202 0.950 . S
H1195 C1204 0.950 . S
H1196 C1206 0.950 . S
H1197 C1208 0.950 . S
H1198 C1210 0.950 . S
H1199 C1211 0.950 . S
C1200 H1192 0.950 . S
C1200 C1201 1.386 . S
C1200 C1202 1.391 . S
C1201 C1200 1.386 . S
C1201 C1205 1.393 1_655 S
C1202 H1194 0.950 . S
C1202 C1200 1.391 . S
C1202 C1203 1.400 . S
C1203 C1202 1.400 . S
C1203 C1204 1.398 1_655 S
C1203 C1209 1.491 1_655 S
C1204 H1195 0.950 . S
C1204 C1203 1.398 1_455 S
C1204 C1205 1.391 . S
C1205 H1193 0.950 . S
C1205 C1201 1.393 1_455 S
C1205 C1204 1.391 . S
C1206 H1196 0.950 . S
C1206 C1207 1.386 . S
C1206 C1208 1.391 . S
C1207 C1206 1.386 . S
C1207 C1211 1.393 1_455 S
C1208 H1197 0.950 . S
C1208 C1206 1.391 . S
C1208 C1209 1.400 . S
C1209 C1203 1.491 1_455 S
C1209 C1208 1.400 . S
C1209 C1210 1.398 1_455 S
C1210 H1198 0.950 . S
C1210 C1209 1.398 1_655 S
C1210 C1211 1.391 . S
C1211 H1199 0.950 . S
C1211 C1207 1.393 1_655 S
C1211 C1210 1.391 . S
H1212 C1220 0.950 . S
H1213 C1225 0.950 . S
H1214 C1222 0.950 . S
H1215 C1224 0.950 . S
H1216 C1226 0.950 . S
H1217 C1228 0.950 . S
H1218 C1230 0.950 . S
H1219 C1231 0.950 . S
C1220 H1212 0.950 . S
C1220 C1221 1.386 . S
C1220 C1222 1.391 . S
C1221 C1220 1.386 . S
C1221 C1225 1.393 1_545 S
C1222 H1214 0.950 . S
C1222 C1220 1.391 . S
C1222 C1223 1.400 . S
C1223 C1222 1.400 . S
C1223 C1224 1.398 1_545 S
C1223 C1229 1.491 1_545 S
C1224 H1215 0.950 . S
C1224 C1223 1.398 1_565 S
C1224 C1225 1.391 . S
C1225 H1213 0.950 . S
C1225 C1221 1.393 1_565 S
C1225 C1224 1.391 . S
C1226 H1216 0.950 . S
C1226 C1227 1.386 . S
C1226 C1228 1.391 . S
C1227 C1226 1.386 . S
C1227 C1231 1.393 1_565 S
C1228 H1217 0.950 . S
C1228 C1226 1.391 . S
C1228 C1229 1.400 . S
C1229 C1223 1.491 1_565 S
C1229 C1228 1.400 . S
C1229 C1230 1.398 1_565 S
C1230 H1218 0.950 . S
C1230 C1229 1.398 1_545 S
C1230 C1231 1.391 . S
C1231 H1219 0.950 . S
C1231 C1227 1.393 1_545 S
C1231 C1230 1.391 . S
H1232 C1240 0.950 . S
H1233 C1245 0.950 . S
H1234 C1242 0.963 . S
H1235 C1244 0.950 . S
H1236 C1246 0.950 . S
H1237 C1248 0.963 . S
H1238 C1250 0.950 . S
H1239 C1251 0.950 . S
C1240 H1232 0.950 . S
C1240 C1241 1.386 . S
C1240 C1242 1.391 . S
C1241 C1240 1.386 . S
C1241 C1245 1.393 . S
C1242 H1234 0.963 . S
C1242 C1240 1.391 . S
C1242 C1243 1.400 . S
C1243 C1242 1.400 . S
C1243 C1244 1.398 . S
C1243 C1249 1.491 1_455 S
C1244 H1235 0.950 . S
C1244 C1243 1.398 . S
C1244 C1245 1.391 . S
C1245 H1233 0.950 . S
C1245 C1241 1.393 . S
C1245 C1244 1.391 . S
C1246 H1236 0.950 . S
C1246 C1247 1.386 . S
C1246 C1248 1.391 . S
C1247 C1246 1.386 . S
C1247 C1251 1.393 . S
C1248 H1237 0.963 . S
C1248 C1246 1.391 . S
C1248 C1249 1.400 . S
C1249 C1243 1.491 1_655 S
C1249 C1248 1.400 . S
C1249 C1250 1.398 . S
C1250 H1238 0.950 . S
C1250 C1249 1.398 . S
C1250 C1251 1.391 . S
C1251 H1239 0.950 . S
C1251 C1247 1.393 . S
C1251 C1250 1.391 . S
H1252 C1260 0.950 . S
H1253 C1265 0.950 . S
H1254 C1262 0.950 . S
H1255 C1264 0.950 1_545 S
H1256 C1266 0.950 . S
H1257 C1268 0.950 . S
H1258 C1270 0.950 1_565 S
H1259 C1271 0.950 . S
C1260 H1252 0.950 . S
C1260 C1261 1.386 . S
C1260 C1262 1.391 . S
C1261 C1260 1.386 . S
C1261 C1265 1.393 . S
C1262 H1254 0.950 . S
C1262 C1260 1.391 . S
C1262 C1263 1.400 . S
C1263 C1262 1.400 . S
C1263 C1264 1.398 . S
C1263 C1269 1.491 1_565 S
C1264 H1255 0.950 1_565 S
C1264 C1263 1.398 . S
C1264 C1265 1.391 . S
C1265 H1253 0.950 . S
C1265 C1261 1.393 . S
C1265 C1264 1.391 . S
C1266 H1256 0.950 . S
C1266 C1267 1.386 . S
C1266 C1268 1.391 . S
C1267 C1266 1.386 . S
C1267 C1271 1.393 . S
C1268 H1257 0.950 . S
C1268 C1266 1.391 . S
C1268 C1269 1.400 . S
C1269 C1263 1.491 1_545 S
C1269 C1268 1.400 . S
C1269 C1270 1.398 . S
C1270 H1258 0.950 1_545 S
C1270 C1269 1.398 . S
C1270 C1271 1.391 . S
C1271 H1259 0.950 . S
C1271 C1267 1.393 . S
C1271 C1270 1.391 . S
H1272 C1280 0.950 . S
H1273 C1285 0.950 . S
H1274 C1282 0.950 . S
H1275 C1284 0.950 . S
H1276 C1286 0.950 . S
H1277 C1288 0.950 . S
H1278 C1290 0.950 . S
H1279 C1291 0.950 . S
C1280 H1272 0.950 . S
C1280 C1281 1.386 . S
C1280 C1282 1.391 . S
C1281 C1280 1.386 . S
C1281 C1285 1.393 1_455 S
C1282 H1274 0.950 . S
C1282 C1280 1.391 . S
C1282 C1283 1.400 . S
C1283 C1282 1.400 . S
C1283 C1284 1.398 1_455 S
C1283 C1289 1.491 1_455 S
C1284 H1275 0.950 . S
C1284 C1283 1.398 1_655 S
C1284 C1285 1.391 . S
C1285 H1273 0.950 . S
C1285 C1281 1.393 1_655 S
C1285 C1284 1.391 . S
C1286 H1276 0.950 . S
C1286 C1287 1.386 . S
C1286 C1288 1.391 . S
C1287 C1286 1.386 . S
C1287 C1291 1.393 1_655 S
C1288 H1277 0.950 . S
C1288 C1286 1.391 . S
C1288 C1289 1.400 . S
C1289 C1283 1.491 1_655 S
C1289 C1288 1.400 . S
C1289 C1290 1.398 1_655 S
C1290 H1278 0.950 . S
C1290 C1289 1.398 1_455 S
C1290 C1291 1.391 . S
C1291 H1279 0.950 . S
C1291 C1287 1.393 1_455 S
C1291 C1290 1.391 . S
H1292 C1300 0.950 . S
H1293 C1305 0.950 . S
H1294 C1302 0.950 . S
H1295 C1304 0.950 . S
H1296 C1306 0.950 . S
H1297 C1308 0.950 . S
H1298 C1310 0.950 . S
H1299 C1311 0.950 . S
C1300 H1292 0.950 . S
C1300 C1301 1.386 1_565 S
C1300 C1302 1.391 . S
C1301 C1300 1.386 1_545 S
C1301 C1305 1.393 . S
C1302 H1294 0.950 . S
C1302 C1300 1.391 . S
C1302 C1303 1.400 1_565 S
C1303 C1302 1.400 1_545 S
C1303 C1304 1.398 . S
C1303 C1309 1.491 1_545 S
C1304 H1295 0.950 . S
C1304 C1303 1.398 . S
C1304 C1305 1.391 . S
C1305 H1293 0.950 . S
C1305 C1301 1.393 . S
C1305 C1304 1.391 . S
C1306 H1296 0.950 . S
C1306 C1307 1.386 1_545 S
C1306 C1308 1.391 . S
C1307 C1306 1.386 1_565 S
C1307 C1311 1.393 . S
C1308 H1297 0.950 . S
C1308 C1306 1.391 . S
C1308 C1309 1.400 1_545 S
C1309 C1303 1.491 1_565 S
C1309 C1308 1.400 1_565 S
C1309 C1310 1.398 . S
C1310 H1298 0.950 . S
C1310 C1309 1.398 . S
C1310 C1311 1.391 . S
C1311 H1299 0.950 . S
C1311 C1307 1.393 . S
C1311 C1310 1.391 . S
H1312 C1320 0.950 . S
H1313 C1325 0.950 . S
H1314 C1322 0.950 . S
H1315 C1324 0.950 . S
H1316 C1326 0.950 . S
H1317 C1328 0.950 . S
H1318 C1330 0.950 . S
H1319 C1331 0.950 . S
C1320 H1312 0.950 . S
C1320 C1321 1.386 . S
C1320 C1322 1.391 . S
C1321 C1320 1.386 . S
C1321 C1325 1.393 . S
C1322 H1314 0.950 . S
C1322 C1320 1.391 . S
C1322 C1323 1.400 . S
C1323 C1322 1.400 . S
C1323 C1324 1.398 . S
C1323 C1329 1.491 1_556 S
C1324 H1315 0.950 . S
C1324 C1323 1.398 . S
C1324 C1325 1.391 . S
C1325 H1313 0.950 . S
C1325 C1321 1.393 . S
C1325 C1324 1.391 . S
C1326 H1316 0.950 . S
C1326 C1327 1.386 . S
C1326 C1328 1.391 . S
C1327 C1326 1.386 . S
C1327 C1331 1.393 . S
C1328 H1317 0.950 . S
C1328 C1326 1.391 . S
C1328 C1329 1.400 . S
C1329 C1323 1.491 1_554 S
C1329 C1328 1.400 . S
C1329 C1330 1.398 . S
C1330 H1318 0.950 . S
C1330 C1329 1.398 . S
C1330 C1331 1.391 . S
C1331 H1319 0.950 . S
C1331 C1327 1.393 . S
C1331 C1330 1.391 . S
H1332 C1340 0.950 . S
H1333 C1345 0.950 . S
H1334 C1342 0.950 . S
H1335 C1344 0.950 . S
H1336 C1346 0.950 . S
H1337 C1348 0.950 . S
H1338 C1350 0.950 . S
H1339 C1351 0.950 . S
C1340 H1332 0.950 . S
C1340 C1341 1.386 . S
C1340 C1342 1.391 . S
C1341 C1340 1.386 . S
C1341 C1345 1.393 1_554 S
C1342 H1334 0.950 . S
C1342 C1340 1.391 . S
C1342 C1343 1.400 . S
C1343 C1342 1.400 . S
C1343 C1344 1.398 1_554 S
C1343 C1349 1.491 1_554 S
C1344 H1335 0.950 . S
C1344 C1343 1.398 1_556 S
C1344 C1345 1.391 . S
C1345 H1333 0.950 . S
C1345 C1341 1.393 1_556 S
C1345 C1344 1.391 . S
C1346 H1336 0.950 . S
C1346 C1347 1.386 . S
C1346 C1348 1.391 . S
C1347 C1346 1.386 . S
C1347 C1351 1.393 1_556 S
C1348 H1337 0.950 . S
C1348 C1346 1.391 . S
C1348 C1349 1.400 . S
C1349 C1343 1.491 1_556 S
C1349 C1348 1.400 . S
C1349 C1350 1.398 1_556 S
C1350 H1338 0.950 . S
C1350 C1349 1.398 1_554 S
C1350 C1351 1.391 . S
C1351 H1339 0.950 . S
C1351 C1347 1.393 1_554 S
C1351 C1350 1.391 . S
H1352 C1360 0.948 1_556 S
H1353 C1365 0.950 . S
H1354 C1362 0.950 . S
H1355 C1364 0.950 . S
H1356 C1366 0.948 1_554 S
H1357 C1368 0.950 . S
H1358 C1370 0.950 . S
H1359 C1371 0.950 . S
C1360 H1352 0.948 1_554 S
C1360 C1361 1.388 . S
C1360 C1362 1.390 1_554 S
C1361 C1360 1.388 . S
C1361 C1365 1.393 . S
C1362 H1354 0.950 . S
C1362 C1360 1.390 1_556 S
C1362 C1363 1.400 1_556 S
C1363 C1362 1.400 1_554 S
C1363 C1364 1.398 . S
C1363 C1369 1.491 1_554 S
C1364 H1355 0.950 . S
C1364 C1363 1.398 . S
C1364 C1365 1.391 . S
C1365 H1353 0.950 . S
C1365 C1361 1.393 . S
C1365 C1364 1.391 . S
C1366 H1356 0.948 1_556 S
C1366 C1367 1.388 . S
C1366 C1368 1.390 1_556 S
C1367 C1366 1.388 . S
C1367 C1371 1.393 . S
C1368 H1357 0.950 . S
C1368 C1366 1.390 1_554 S
C1368 C1369 1.400 1_554 S
C1369 C1363 1.491 1_556 S
C1369 C1368 1.400 1_556 S
C1369 C1370 1.398 . S
C1370 H1358 0.950 . S
C1370 C1369 1.398 . S
C1370 C1371 1.391 . S
C1371 H1359 0.950 . S
C1371 C1367 1.393 . S
C1371 C1370 1.391 . S
H1372 C1380 0.950 . S
H1373 C1385 0.950 1_554 S
H1374 C1382 0.950 . S
H1375 C1384 0.950 . S
H1376 C1386 0.950 . S
H1377 C1388 0.950 . S
H1378 C1390 0.950 . S
H1379 C1391 0.950 1_556 S
C1380 H1372 0.950 . S
C1380 C1381 1.386 . S
C1380 C1382 1.391 . S
C1381 C1380 1.386 . S
C1381 C1385 1.393 . S
C1382 H1374 0.950 . S
C1382 C1380 1.391 . S
C1382 C1383 1.400 . S
C1383 C1382 1.400 . S
C1383 C1384 1.398 1_556 S
C1383 C1389 1.491 1_556 S
C1384 H1375 0.950 . S
C1384 C1383 1.398 1_554 S
C1384 C1385 1.391 1_554 S
C1385 H1373 0.950 1_556 S
C1385 C1381 1.393 . S
C1385 C1384 1.391 1_556 S
C1386 H1376 0.950 . S
C1386 C1387 1.386 . S
C1386 C1388 1.391 . S
C1387 C1386 1.386 . S
C1387 C1391 1.393 . S
C1388 H1377 0.950 . S
C1388 C1386 1.391 . S
C1388 C1389 1.400 . S
C1389 C1383 1.491 1_554 S
C1389 C1388 1.400 . S
C1389 C1390 1.398 1_554 S
C1390 H1378 0.950 . S
C1390 C1389 1.398 1_556 S
C1390 C1391 1.391 1_556 S
C1391 H1379 0.950 1_554 S
C1391 C1387 1.393 . S
C1391 C1390 1.391 1_554 S
H1392 C1400 0.950 . S
H1393 C1405 0.950 . S
H1394 C1402 0.950 . S
H1395 C1404 0.950 . S
H1396 C1406 0.950 . S
H1397 C1408 0.950 . S
H1398 C1410 0.950 . S
H1399 C1411 0.950 . S
C1400 H1392 0.950 . S
C1400 C1401 1.386 . S
C1400 C1402 1.391 . S
C1401 C1400 1.386 . S
C1401 C1405 1.393 . S
C1402 H1394 0.950 . S
C1402 C1400 1.391 . S
C1402 C1403 1.400 . S
C1403 C1402 1.400 . S
C1403 C1404 1.398 . S
C1403 C1409 1.491 . S
C1404 H1395 0.950 . S
C1404 C1403 1.398 . S
C1404 C1405 1.391 . S
C1405 H1393 0.950 . S
C1405 C1401 1.393 . S
C1405 C1404 1.391 . S
C1406 H1396 0.950 . S
C1406 C1407 1.386 . S
C1406 C1408 1.391 . S
C1407 C1406 1.386 . S
C1407 C1411 1.393 . S
C1408 H1397 0.950 . S
C1408 C1406 1.391 . S
C1408 C1409 1.400 . S
C1409 C1403 1.491 . S
C1409 C1408 1.400 . S
C1409 C1410 1.398 . S
C1410 H1398 0.950 . S
C1410 C1409 1.398 . S
C1410 C1411 1.391 . S
C1411 H1399 0.950 . S
C1411 C1407 1.393 . S
C1411 C1410 1.391 . S
H1412 C1420 0.950 . S
H1413 C1425 0.950 . S
H1414 C1422 0.950 . S
H1415 C1424 0.950 . S
H1416 C1426 0.950 . S
H1417 C1428 0.950 . S
H1418 C1430 0.950 . S
H1419 C1431 0.950 . S
C1420 H1412 0.950 . S
C1420 C1421 1.386 . S
C1420 C1422 1.391 . S
C1421 C1420 1.386 . S
C1421 C1425 1.393 . S
C1422 H1414 0.950 . S
C1422 C1420 1.391 . S
C1422 C1423 1.400 . S
C1423 C1422 1.400 . S
C1423 C1424 1.398 . S
C1423 C1429 1.491 . S
C1424 H1415 0.950 . S
C1424 C1423 1.398 . S
C1424 C1425 1.391 . S
C1425 H1413 0.950 . S
C1425 C1421 1.393 . S
C1425 C1424 1.391 . S
C1426 H1416 0.950 . S
C1426 C1427 1.386 . S
C1426 C1428 1.391 . S
C1427 C1426 1.386 . S
C1427 C1431 1.393 . S
C1428 H1417 0.950 . S
C1428 C1426 1.391 . S
C1428 C1429 1.400 . S
C1429 C1423 1.491 . S
C1429 C1428 1.400 . S
C1429 C1430 1.398 . S
C1430 H1418 0.950 . S
C1430 C1429 1.398 . S
C1430 C1431 1.391 . S
C1431 H1419 0.950 . S
C1431 C1427 1.393 . S
C1431 C1430 1.391 . S
H1432 C1440 0.950 . S
H1433 C1445 0.950 . S
H1434 C1442 0.950 . S
H1435 C1444 0.950 . S
H1436 C1446 0.950 . S
H1437 C1448 0.950 . S
H1438 C1450 0.950 . S
H1439 C1451 0.950 . S
C1440 H1432 0.950 . S
C1440 C1441 1.386 . S
C1440 C1442 1.391 . S
C1441 C1440 1.386 . S
C1441 C1445 1.393 . S
C1442 H1434 0.950 . S
C1442 C1440 1.391 . S
C1442 C1443 1.400 . S
C1443 C1442 1.400 . S
C1443 C1444 1.398 . S
C1443 C1449 1.491 . S
C1444 H1435 0.950 . S
C1444 C1443 1.398 . S
C1444 C1445 1.391 . S
C1445 H1433 0.950 . S
C1445 C1441 1.393 . S
C1445 C1444 1.391 . S
C1446 H1436 0.950 . S
C1446 C1447 1.386 . S
C1446 C1448 1.391 . S
C1447 C1446 1.386 . S
C1447 C1451 1.393 . S
C1448 H1437 0.950 . S
C1448 C1446 1.391 . S
C1448 C1449 1.400 . S
C1449 C1443 1.491 . S
C1449 C1448 1.400 . S
C1449 C1450 1.398 . S
C1450 H1438 0.950 . S
C1450 C1449 1.398 . S
C1450 C1451 1.391 . S
C1451 H1439 0.950 . S
C1451 C1447 1.393 . S
C1451 C1450 1.391 . S
H1452 C1460 0.950 . S
H1453 C1465 0.950 . S
H1454 C1462 0.950 . S
H1455 C1464 0.950 . S
H1456 C1466 0.950 . S
H1457 C1468 0.950 . S
H1458 C1470 0.950 . S
H1459 C1471 0.950 . S
C1460 H1452 0.950 . S
C1460 C1461 1.386 . S
C1460 C1462 1.391 . S
C1461 C1460 1.386 . S
C1461 C1465 1.393 . S
C1462 H1454 0.950 . S
C1462 C1460 1.391 . S
C1462 C1463 1.400 . S
C1463 C1462 1.400 . S
C1463 C1464 1.398 . S
C1463 C1469 1.491 . S
C1464 H1455 0.950 . S
C1464 C1463 1.398 . S
C1464 C1465 1.391 . S
C1465 H1453 0.950 . S
C1465 C1461 1.393 . S
C1465 C1464 1.391 . S
C1466 H1456 0.950 . S
C1466 C1467 1.386 . S
C1466 C1468 1.391 . S
C1467 C1466 1.386 . S
C1467 C1471 1.393 . S
C1468 H1457 0.950 . S
C1468 C1466 1.391 . S
C1468 C1469 1.400 . S
C1469 C1463 1.491 . S
C1469 C1468 1.400 . S
C1469 C1470 1.398 . S
C1470 H1458 0.950 . S
C1470 C1469 1.398 . S
C1470 C1471 1.391 . S
C1471 H1459 0.950 . S
C1471 C1467 1.393 . S
C1471 C1470 1.391 . S
H1472 C1480 0.950 . S
H1473 C1485 0.950 . S
H1474 C1482 0.950 . S
H1475 C1484 0.950 . S
H1476 C1486 0.950 . S
H1477 C1488 0.950 . S
H1478 C1490 0.950 . S
H1479 C1491 0.950 . S
C1480 H1472 0.950 . S
C1480 C1481 1.386 . S
C1480 C1482 1.391 . S
C1481 C1480 1.386 . S
C1481 C1485 1.393 . S
C1482 H1474 0.950 . S
C1482 C1480 1.391 . S
C1482 C1483 1.400 . S
C1483 C1482 1.400 . S
C1483 C1484 1.398 . S
C1483 C1489 1.491 . S
C1484 H1475 0.950 . S
C1484 C1483 1.398 . S
C1484 C1485 1.391 . S
C1485 H1473 0.950 . S
C1485 C1481 1.393 . S
C1485 C1484 1.391 . S
C1486 H1476 0.950 . S
C1486 C1487 1.386 . S
C1486 C1488 1.391 . S
C1487 C1486 1.386 . S
C1487 C1491 1.393 . S
C1488 H1477 0.950 . S
C1488 C1486 1.391 . S
C1488 C1489 1.400 . S
C1489 C1483 1.491 . S
C1489 C1488 1.400 . S
C1489 C1490 1.398 . S
C1490 H1478 0.950 . S
C1490 C1489 1.398 . S
C1490 C1491 1.391 . S
C1491 H1479 0.950 . S
C1491 C1487 1.393 . S
C1491 C1490 1.391 . S
H1492 C1500 0.950 . S
H1493 C1505 0.950 . S
H1494 C1502 0.950 . S
H1495 C1504 0.950 . S
H1496 C1506 0.950 . S
H1497 C1508 0.950 . S
H1498 C1510 0.950 . S
H1499 C1511 0.950 . S
C1500 H1492 0.950 . S
C1500 C1501 1.386 . S
C1500 C1502 1.391 . S
C1501 C1500 1.386 . S
C1501 C1505 1.393 . S
C1502 H1494 0.950 . S
C1502 C1500 1.391 . S
C1502 C1503 1.400 . S
C1503 C1502 1.400 . S
C1503 C1504 1.398 . S
C1503 C1509 1.491 . S
C1504 H1495 0.950 . S
C1504 C1503 1.398 . S
C1504 C1505 1.391 . S
C1505 H1493 0.950 . S
C1505 C1501 1.393 . S
C1505 C1504 1.391 . S
C1506 H1496 0.950 . S
C1506 C1507 1.386 . S
C1506 C1508 1.391 . S
C1507 C1506 1.386 . S
C1507 C1511 1.393 . S
C1508 H1497 0.950 . S
C1508 C1506 1.391 . S
C1508 C1509 1.400 . S
C1509 C1503 1.491 . S
C1509 C1508 1.400 . S
C1509 C1510 1.398 . S
C1510 H1498 0.950 . S
C1510 C1509 1.398 . S
C1510 C1511 1.391 . S
C1511 H1499 0.950 . S
C1511 C1507 1.393 . S
C1511 C1510 1.391 . S
H1512 C1520 0.950 . S
H1513 C1525 0.950 . S
H1514 C1522 0.950 . S
H1515 C1524 0.950 . S
H1516 C1526 0.950 . S
H1517 C1528 0.950 . S
H1518 C1530 0.950 . S
H1519 C1531 0.950 . S
C1520 H1512 0.950 . S
C1520 C1521 1.386 . S
C1520 C1522 1.391 . S
C1521 C1520 1.386 . S
C1521 C1525 1.393 . S
C1522 H1514 0.950 . S
C1522 C1520 1.391 . S
C1522 C1523 1.400 . S
C1523 C1522 1.400 . S
C1523 C1524 1.398 . S
C1523 C1529 1.491 . S
C1524 H1515 0.950 . S
C1524 C1523 1.398 . S
C1524 C1525 1.391 . S
C1525 H1513 0.950 . S
C1525 C1521 1.393 . S
C1525 C1524 1.391 . S
C1526 H1516 0.950 . S
C1526 C1527 1.386 . S
C1526 C1528 1.391 . S
C1527 C1526 1.386 . S
C1527 C1531 1.393 . S
C1528 H1517 0.950 . S
C1528 C1526 1.391 . S
C1528 C1529 1.400 . S
C1529 C1523 1.491 . S
C1529 C1528 1.400 . S
C1529 C1530 1.398 . S
C1530 H1518 0.950 . S
C1530 C1529 1.398 . S
C1530 C1531 1.391 . S
C1531 H1519 0.950 . S
C1531 C1527 1.393 . S
C1531 C1530 1.391 . S
H1532 C1540 0.950 . S
H1533 C1545 0.950 . S
H1534 C1542 0.950 . S
H1535 C1544 0.950 . S
H1536 C1546 0.950 . S
H1537 C1548 0.950 . S
H1538 C1550 0.950 . S
H1539 C1551 0.950 . S
C1540 H1532 0.950 . S
C1540 C1541 1.386 . S
C1540 C1542 1.391 . S
C1541 C1540 1.386 . S
C1541 C1545 1.393 . S
C1542 H1534 0.950 . S
C1542 C1540 1.391 . S
C1542 C1543 1.400 . S
C1543 C1542 1.400 . S
C1543 C1544 1.398 . S
C1543 C1549 1.491 . S
C1544 H1535 0.950 . S
C1544 C1543 1.398 . S
C1544 C1545 1.391 . S
C1545 H1533 0.950 . S
C1545 C1541 1.393 . S
C1545 C1544 1.391 . S
C1546 H1536 0.950 . S
C1546 C1547 1.386 . S
C1546 C1548 1.391 . S
C1547 C1546 1.386 . S
C1547 C1551 1.393 . S
C1548 H1537 0.950 . S
C1548 C1546 1.391 . S
C1548 C1549 1.400 . S
C1549 C1543 1.491 . S
C1549 C1548 1.400 . S
C1549 C1550 1.398 . S
C1550 H1538 0.950 . S
C1550 C1549 1.398 . S
C1550 C1551 1.391 . S
C1551 H1539 0.950 . S
C1551 C1547 1.393 . S
C1551 C1550 1.391 . S
H1552 C1560 0.950 . S
H1553 C1565 0.950 . S
H1554 C1562 0.950 . S
H1555 C1564 0.950 . S
H1556 C1566 0.950 . S
H1557 C1568 0.950 . S
H1558 C1570 0.950 . S
H1559 C1571 0.950 . S
C1560 H1552 0.950 . S
C1560 C1561 1.386 . S
C1560 C1562 1.391 . S
C1561 C1560 1.386 . S
C1561 C1565 1.393 . S
C1562 H1554 0.950 . S
C1562 C1560 1.391 . S
C1562 C1563 1.400 . S
C1563 C1562 1.400 . S
C1563 C1564 1.398 . S
C1563 C1569 1.491 . S
C1564 H1555 0.950 . S
C1564 C1563 1.398 . S
C1564 C1565 1.391 . S
C1565 H1553 0.950 . S
C1565 C1561 1.393 . S
C1565 C1564 1.391 . S
C1566 H1556 0.950 . S
C1566 C1567 1.386 . S
C1566 C1568 1.391 . S
C1567 C1566 1.386 . S
C1567 C1571 1.393 . S
C1568 H1557 0.950 . S
C1568 C1566 1.391 . S
C1568 C1569 1.400 . S
C1569 C1563 1.491 . S
C1569 C1568 1.400 . S
C1569 C1570 1.398 . S
C1570 H1558 0.950 . S
C1570 C1569 1.398 . S
C1570 C1571 1.391 . S
C1571 H1559 0.950 . S
C1571 C1567 1.393 . S
C1571 C1570 1.391 . S
H1572 C1580 0.950 . S
H1573 C1585 0.950 . S
H1574 C1582 0.950 . S
H1575 C1584 0.950 . S
H1576 C1586 0.950 . S
H1577 C1588 0.950 . S
H1578 C1590 0.950 . S
H1579 C1591 0.950 . S
C1580 H1572 0.950 . S
C1580 C1581 1.386 . S
C1580 C1582 1.391 . S
C1581 C1580 1.386 . S
C1581 C1585 1.393 . S
C1582 H1574 0.950 . S
C1582 C1580 1.391 . S
C1582 C1583 1.400 . S
C1583 C1582 1.400 . S
C1583 C1584 1.398 . S
C1583 C1589 1.491 . S
C1584 H1575 0.950 . S
C1584 C1583 1.398 . S
C1584 C1585 1.391 . S
C1585 H1573 0.950 . S
C1585 C1581 1.393 . S
C1585 C1584 1.391 . S
C1586 H1576 0.950 . S
C1586 C1587 1.386 . S
C1586 C1588 1.391 . S
C1587 C1586 1.386 . S
C1587 C1591 1.393 . S
C1588 H1577 0.950 . S
C1588 C1586 1.391 . S
C1588 C1589 1.400 . S
C1589 C1583 1.491 . S
C1589 C1588 1.400 . S
C1589 C1590 1.398 . S
C1590 H1578 0.950 . S
C1590 C1589 1.398 . S
C1590 C1591 1.391 . S
C1591 H1579 0.950 . S
C1591 C1587 1.393 . S
C1591 C1590 1.391 . S
H1592 C1600 0.950 . S
H1593 C1605 0.950 . S
H1594 C1602 0.950 . S
H1595 C1604 0.950 . S
H1596 C1606 0.950 . S
H1597 C1608 0.950 . S
H1598 C1610 0.950 . S
H1599 C1611 0.950 . S
C1600 H1592 0.950 . S
C1600 C1601 1.386 . S
C1600 C1602 1.391 . S
C1601 C1600 1.386 . S
C1601 C1605 1.393 . S
C1602 H1594 0.950 . S
C1602 C1600 1.391 . S
C1602 C1603 1.400 . S
C1603 C1602 1.400 . S
C1603 C1604 1.398 . S
C1603 C1609 1.491 . S
C1604 H1595 0.950 . S
C1604 C1603 1.398 . S
C1604 C1605 1.391 . S
C1605 H1593 0.950 . S
C1605 C1601 1.393 . S
C1605 C1604 1.391 . S
C1606 H1596 0.950 . S
C1606 C1607 1.386 . S
C1606 C1608 1.391 . S
C1607 C1606 1.386 . S
C1607 C1611 1.393 . S
C1608 H1597 0.950 . S
C1608 C1606 1.391 . S
C1608 C1609 1.400 . S
C1609 C1603 1.491 . S
C1609 C1608 1.400 . S
C1609 C1610 1.398 . S
C1610 H1598 0.950 . S
C1610 C1609 1.398 . S
C1610 C1611 1.391 . S
C1611 H1599 0.950 . S
C1611 C1607 1.393 . S
C1611 C1610 1.391 . S
H1612 C1620 0.950 . S
H1613 C1625 0.950 . S
H1614 C1622 0.950 . S
H1615 C1624 0.950 . S
H1616 C1626 0.950 . S
H1617 C1628 0.950 . S
H1618 C1630 0.950 . S
H1619 C1631 0.950 . S
C1620 H1612 0.950 . S
C1620 C1621 1.386 . S
C1620 C1622 1.391 . S
C1621 C1620 1.386 . S
C1621 C1625 1.393 . S
C1622 H1614 0.950 . S
C1622 C1620 1.391 . S
C1622 C1623 1.400 . S
C1623 C1622 1.400 . S
C1623 C1624 1.398 . S
C1623 C1629 1.491 . S
C1624 H1615 0.950 . S
C1624 C1623 1.398 . S
C1624 C1625 1.391 . S
C1625 H1613 0.950 . S
C1625 C1621 1.393 . S
C1625 C1624 1.391 . S
C1626 H1616 0.950 . S
C1626 C1627 1.386 . S
C1626 C1628 1.391 . S
C1627 C1626 1.386 . S
C1627 C1631 1.393 . S
C1628 H1617 0.950 . S
C1628 C1626 1.391 . S
C1628 C1629 1.400 . S
C1629 C1623 1.491 . S
C1629 C1628 1.400 . S
C1629 C1630 1.398 . S
C1630 H1618 0.950 . S
C1630 C1629 1.398 . S
C1630 C1631 1.391 . S
C1631 H1619 0.950 . S
C1631 C1627 1.393 . S
C1631 C1630 1.391 . S
H1632 C1640 0.950 . S
H1633 C1645 0.950 . S
H1634 C1642 0.950 . S
H1635 C1644 0.950 . S
H1636 C1646 0.950 . S
H1637 C1648 0.950 . S
H1638 C1650 0.950 . S
H1639 C1651 0.950 . S
C1640 H1632 0.950 . S
C1640 C1641 1.386 . S
C1640 C1642 1.391 . S
C1641 C1640 1.386 . S
C1641 C1645 1.393 . S
C1642 H1634 0.950 . S
C1642 C1640 1.391 . S
C1642 C1643 1.400 . S
C1643 C1642 1.400 . S
C1643 C1644 1.398 . S
C1643 C1649 1.491 . S
C1644 H1635 0.950 . S
C1644 C1643 1.398 . S
C1644 C1645 1.391 . S
C1645 H1633 0.950 . S
C1645 C1641 1.393 . S
C1645 C1644 1.391 . S
C1646 H1636 0.950 . S
C1646 C1647 1.386 . S
C1646 C1648 1.391 . S
C1647 C1646 1.386 . S
C1647 C1651 1.393 . S
C1648 H1637 0.950 . S
C1648 C1646 1.391 . S
C1648 C1649 1.400 . S
C1649 C1643 1.491 . S
C1649 C1648 1.400 . S
C1649 C1650 1.398 . S
C1650 H1638 0.950 . S
C1650 C1649 1.398 . S
C1650 C1651 1.391 . S
C1651 H1639 0.950 . S
C1651 C1647 1.393 . S
C1651 C1650 1.391 . S
H1652 C1660 0.950 . S
H1653 C1665 0.950 . S
H1654 C1662 0.950 . S
H1655 C1664 0.950 . S
H1656 C1666 0.950 . S
H1657 C1668 0.950 . S
H1658 C1670 0.950 . S
H1659 C1671 0.950 . S
C1660 H1652 0.950 . S
C1660 C1661 1.386 . S
C1660 C1662 1.391 . S
C1661 C1660 1.386 . S
C1661 C1665 1.393 . S
C1662 H1654 0.950 . S
C1662 C1660 1.391 . S
C1662 C1663 1.400 . S
C1663 C1662 1.400 . S
C1663 C1664 1.398 . S
C1663 C1669 1.491 . S
C1664 H1655 0.950 . S
C1664 C1663 1.398 . S
C1664 C1665 1.391 . S
C1665 H1653 0.950 . S
C1665 C1661 1.393 . S
C1665 C1664 1.391 . S
C1666 H1656 0.950 . S
C1666 C1667 1.386 . S
C1666 C1668 1.391 . S
C1667 C1666 1.386 . S
C1667 C1671 1.393 . S
C1668 H1657 0.950 . S
C1668 C1666 1.391 . S
C1668 C1669 1.400 . S
C1669 C1663 1.491 . S
C1669 C1668 1.400 . S
C1669 C1670 1.398 . S
C1670 H1658 0.950 . S
C1670 C1669 1.398 . S
C1670 C1671 1.391 . S
C1671 H1659 0.950 . S
C1671 C1667 1.393 . S
C1671 C1670 1.391 . S
H1672 C1680 0.950 . S
H1673 C1685 0.950 . S
H1674 C1682 0.950 . S
H1675 C1684 0.950 . S
H1676 C1686 0.950 . S
H1677 C1688 0.950 . S
H1678 C1690 0.950 . S
H1679 C1691 0.950 . S
C1680 H1672 0.950 . S
C1680 C1681 1.386 . S
C1680 C1682 1.391 . S
C1681 C1680 1.386 . S
C1681 C1685 1.393 . S
C1682 H1674 0.950 . S
C1682 C1680 1.391 . S
C1682 C1683 1.400 . S
C1683 C1682 1.400 . S
C1683 C1684 1.398 . S
C1683 C1689 1.491 . S
C1684 H1675 0.950 . S
C1684 C1683 1.398 . S
C1684 C1685 1.391 . S
C1685 H1673 0.950 . S
C1685 C1681 1.393 . S
C1685 C1684 1.391 . S
C1686 H1676 0.950 . S
C1686 C1687 1.386 . S
C1686 C1688 1.391 . S
C1687 C1686 1.386 . S
C1687 C1691 1.393 . S
C1688 H1677 0.950 . S
C1688 C1686 1.391 . S
C1688 C1689 1.400 . S
C1689 C1683 1.491 . S
C1689 C1688 1.400 . S
C1689 C1690 1.398 . S
C1690 H1678 0.950 . S
C1690 C1689 1.398 . S
C1690 C1691 1.391 . S
C1691 H1679 0.950 . S
C1691 C1687 1.393 . S
C1691 C1690 1.391 . S
H1692 C1700 0.950 . S
H1693 C1705 0.950 . S
H1694 C1702 0.950 . S
H1695 C1704 0.950 . S
H1696 C1706 0.950 . S
H1697 C1708 0.950 . S
H1698 C1710 0.950 . S
H1699 C1711 0.950 . S
C1700 H1692 0.950 . S
C1700 C1701 1.386 . S
C1700 C1702 1.391 . S
C1701 C1700 1.386 . S
C1701 C1705 1.393 . S
C1702 H1694 0.950 . S
C1702 C1700 1.391 . S
C1702 C1703 1.400 . S
C1703 C1702 1.400 . S
C1703 C1704 1.398 . S
C1703 C1709 1.491 . S
C1704 H1695 0.950 . S
C1704 C1703 1.398 . S
C1704 C1705 1.391 . S
C1705 H1693 0.950 . S
C1705 C1701 1.393 . S
C1705 C1704 1.391 . S
C1706 H1696 0.950 . S
C1706 C1707 1.386 . S
C1706 C1708 1.391 . S
C1707 C1706 1.386 . S
C1707 C1711 1.393 . S
C1708 H1697 0.950 . S
C1708 C1706 1.391 . S
C1708 C1709 1.400 . S
C1709 C1703 1.491 . S
C1709 C1708 1.400 . S
C1709 C1710 1.398 . S
C1710 H1698 0.950 . S
C1710 C1709 1.398 . S
C1710 C1711 1.391 . S
C1711 H1699 0.950 . S
C1711 C1707 1.393 . S
C1711 C1710 1.391 . S
H1712 C1720 0.950 . S
H1713 C1725 0.950 . S
H1714 C1722 0.950 . S
H1715 C1724 0.950 . S
H1716 C1726 0.950 . S
H1717 C1728 0.950 . S
H1718 C1730 0.950 . S
H1719 C1731 0.950 . S
C1720 H1712 0.950 . S
C1720 C1721 1.386 . S
C1720 C1722 1.391 . S
C1721 C1720 1.386 . S
C1721 C1725 1.393 . S
C1722 H1714 0.950 . S
C1722 C1720 1.391 . S
C1722 C1723 1.400 . S
C1723 C1722 1.400 . S
C1723 C1724 1.398 . S
C1723 C1729 1.491 . S
C1724 H1715 0.950 . S
C1724 C1723 1.398 . S
C1724 C1725 1.391 . S
C1725 H1713 0.950 . S
C1725 C1721 1.393 . S
C1725 C1724 1.391 . S
C1726 H1716 0.950 . S
C1726 C1727 1.386 . S
C1726 C1728 1.391 . S
C1727 C1726 1.386 . S
C1727 C1731 1.393 . S
C1728 H1717 0.950 . S
C1728 C1726 1.391 . S
C1728 C1729 1.400 . S
C1729 C1723 1.491 . S
C1729 C1728 1.400 . S
C1729 C1730 1.398 . S
C1730 H1718 0.950 . S
C1730 C1729 1.398 . S
C1730 C1731 1.391 . S
C1731 H1719 0.950 . S
C1731 C1727 1.393 . S
C1731 C1730 1.391 . S
H1732 C1740 0.950 . S
H1733 C1745 0.950 . S
H1734 C1742 0.950 . S
H1735 C1744 0.950 . S
H1736 C1746 0.950 . S
H1737 C1748 0.950 . S
H1738 C1750 0.950 . S
H1739 C1751 0.950 . S
C1740 H1732 0.950 . S
C1740 C1741 1.386 . S
C1740 C1742 1.391 . S
C1741 C1740 1.386 . S
C1741 C1745 1.393 . S
C1742 H1734 0.950 . S
C1742 C1740 1.391 . S
C1742 C1743 1.400 . S
C1743 C1742 1.400 . S
C1743 C1744 1.398 . S
C1743 C1749 1.491 . S
C1744 H1735 0.950 . S
C1744 C1743 1.398 . S
C1744 C1745 1.391 . S
C1745 H1733 0.950 . S
C1745 C1741 1.393 . S
C1745 C1744 1.391 . S
C1746 H1736 0.950 . S
C1746 C1747 1.386 . S
C1746 C1748 1.391 . S
C1747 C1746 1.386 . S
C1747 C1751 1.393 . S
C1748 H1737 0.950 . S
C1748 C1746 1.391 . S
C1748 C1749 1.400 . S
C1749 C1743 1.491 . S
C1749 C1748 1.400 . S
C1749 C1750 1.398 . S
C1750 H1738 0.950 . S
C1750 C1749 1.398 . S
C1750 C1751 1.391 . S
C1751 H1739 0.950 . S
C1751 C1747 1.393 . S
C1751 C1750 1.391 . S
H1752 C1760 0.950 . S
H1753 C1765 0.950 . S
H1754 C1762 0.950 . S
H1755 C1764 0.950 . S
H1756 C1766 0.950 . S
H1757 C1768 0.950 . S
H1758 C1770 0.950 . S
H1759 C1771 0.950 . S
C1760 H1752 0.950 . S
C1760 C1761 1.386 . S
C1760 C1762 1.391 . S
C1761 C1760 1.386 . S
C1761 C1765 1.393 . S
C1762 H1754 0.950 . S
C1762 C1760 1.391 . S
C1762 C1763 1.400 . S
C1763 C1762 1.400 . S
C1763 C1764 1.398 . S
C1763 C1769 1.491 . S
C1764 H1755 0.950 . S
C1764 C1763 1.398 . S
C1764 C1765 1.391 . S
C1765 H1753 0.950 . S
C1765 C1761 1.393 . S
C1765 C1764 1.391 . S
C1766 H1756 0.950 . S
C1766 C1767 1.386 . S
C1766 C1768 1.391 . S
C1767 C1766 1.386 . S
C1767 C1771 1.393 . S
C1768 H1757 0.950 . S
C1768 C1766 1.391 . S
C1768 C1769 1.400 . S
C1769 C1763 1.491 . S
C1769 C1768 1.400 . S
C1769 C1770 1.398 . S
C1770 H1758 0.950 . S
C1770 C1769 1.398 . S
C1770 C1771 1.391 . S
C1771 H1759 0.950 . S
C1771 C1767 1.393 . S
C1771 C1770 1.391 . S
H1772 C1780 0.950 . S
H1773 C1785 0.950 . S
H1774 C1782 0.950 . S
H1775 C1784 0.950 . S
H1776 C1786 0.950 . S
H1777 C1788 0.950 . S
H1778 C1790 0.950 . S
H1779 C1791 0.950 . S
C1780 H1772 0.950 . S
C1780 C1781 1.386 . S
C1780 C1782 1.391 . S
C1781 C1780 1.386 . S
C1781 C1785 1.393 . S
C1782 H1774 0.950 . S
C1782 C1780 1.391 . S
C1782 C1783 1.400 . S
C1783 C1782 1.400 . S
C1783 C1784 1.398 . S
C1783 C1789 1.491 . S
C1784 H1775 0.950 . S
C1784 C1783 1.398 . S
C1784 C1785 1.391 . S
C1785 H1773 0.950 . S
C1785 C1781 1.393 . S
C1785 C1784 1.391 . S
C1786 H1776 0.950 . S
C1786 C1787 1.386 . S
C1786 C1788 1.391 . S
C1787 C1786 1.386 . S
C1787 C1791 1.393 . S
C1788 H1777 0.950 . S
C1788 C1786 1.391 . S
C1788 C1789 1.400 . S
C1789 C1783 1.491 . S
C1789 C1788 1.400 . S
C1789 C1790 1.398 . S
C1790 H1778 0.950 . S
C1790 C1789 1.398 . S
C1790 C1791 1.391 . S
C1791 H1779 0.950 . S
C1791 C1787 1.393 . S
C1791 C1790 1.391 . S
H1792 C1800 0.950 . S
H1793 C1805 0.950 . S
H1794 C1802 0.950 . S
H1795 C1804 0.950 . S
H1796 C1806 0.950 . S
H1797 C1808 0.950 . S
H1798 C1810 0.950 . S
H1799 C1811 0.950 . S
C1800 H1792 0.950 . S
C1800 C1801 1.386 . S
C1800 C1802 1.391 . S
C1801 C1800 1.386 . S
C1801 C1805 1.393 . S
C1802 H1794 0.950 . S
C1802 C1800 1.391 . S
C1802 C1803 1.400 . S
C1803 C1802 1.400 . S
C1803 C1804 1.398 . S
C1803 C1809 1.491 . S
C1804 H1795 0.950 . S
C1804 C1803 1.398 . S
C1804 C1805 1.391 . S
C1805 H1793 0.950 . S
C1805 C1801 1.393 . S
C1805 C1804 1.391 . S
C1806 H1796 0.950 . S
C1806 C1807 1.386 . S
C1806 C1808 1.391 . S
C1807 C1806 1.386 . S
C1807 C1811 1.393 . S
C1808 H1797 0.950 . S
C1808 C1806 1.391 . S
C1808 C1809 1.400 . S
C1809 C1803 1.491 . S
C1809 C1808 1.400 . S
C1809 C1810 1.398 . S
C1810 H1798 0.950 . S
C1810 C1809 1.398 . S
C1810 C1811 1.391 . S
C1811 H1799 0.950 . S
C1811 C1807 1.393 . S
C1811 C1810 1.391 . S
H1812 C1820 0.950 . S
H1813 C1825 0.950 . S
H1814 C1822 0.950 . S
H1815 C1824 0.950 . S
H1816 C1826 0.950 . S
H1817 C1828 0.950 . S
H1818 C1830 0.950 . S
H1819 C1831 0.950 . S
C1820 H1812 0.950 . S
C1820 C1821 1.386 . S
C1820 C1822 1.391 . S
C1821 C1820 1.386 . S
C1821 C1825 1.393 . S
C1822 H1814 0.950 . S
C1822 C1820 1.391 . S
C1822 C1823 1.400 . S
C1823 C1822 1.400 . S
C1823 C1824 1.398 . S
C1823 C1829 1.491 . S
C1824 H1815 0.950 . S
C1824 C1823 1.398 . S
C1824 C1825 1.391 . S
C1825 H1813 0.950 . S
C1825 C1821 1.393 . S
C1825 C1824 1.391 . S
C1826 H1816 0.950 . S
C1826 C1827 1.386 . S
C1826 C1828 1.391 . S
C1827 C1826 1.386 . S
C1827 C1831 1.393 . S
C1828 H1817 0.950 . S
C1828 C1826 1.391 . S
C1828 C1829 1.400 . S
C1829 C1823 1.491 . S
C1829 C1828 1.400 . S
C1829 C1830 1.398 . S
C1830 H1818 0.950 . S
C1830 C1829 1.398 . S
C1830 C1831 1.391 . S
C1831 H1819 0.950 . S
C1831 C1827 1.393 . S
C1831 C1830 1.391 . S
H1832 C1840 0.950 . S
H1833 C1845 0.950 . S
H1834 C1842 0.950 . S
H1835 C1844 0.950 . S
H1836 C1846 0.950 . S
H1837 C1848 0.950 . S
H1838 C1850 0.950 . S
H1839 C1851 0.950 . S
C1840 H1832 0.950 . S
C1840 C1841 1.386 . S
C1840 C1842 1.391 . S
C1841 C1840 1.386 . S
C1841 C1845 1.393 . S
C1842 H1834 0.950 . S
C1842 C1840 1.391 . S
C1842 C1843 1.400 . S
C1843 C1842 1.400 . S
C1843 C1844 1.398 . S
C1843 C1849 1.491 . S
C1844 H1835 0.950 . S
C1844 C1843 1.398 . S
C1844 C1845 1.391 . S
C1845 H1833 0.950 . S
C1845 C1841 1.393 . S
C1845 C1844 1.391 . S
C1846 H1836 0.950 . S
C1846 C1847 1.386 . S
C1846 C1848 1.391 . S
C1847 C1846 1.386 . S
C1847 C1851 1.393 . S
C1848 H1837 0.950 . S
C1848 C1846 1.391 . S
C1848 C1849 1.400 . S
C1849 C1843 1.491 . S
C1849 C1848 1.400 . S
C1849 C1850 1.398 . S
C1850 H1838 0.950 . S
C1850 C1849 1.398 . S
C1850 C1851 1.391 . S
C1851 H1839 0.950 . S
C1851 C1847 1.393 . S
C1851 C1850 1.391 . S
H1852 C1860 0.950 . S
H1853 C1865 0.950 . S
H1854 C1862 0.950 . S
H1855 C1864 0.950 . S
H1856 C1866 0.950 . S
H1857 C1868 0.950 . S
H1858 C1870 0.950 . S
H1859 C1871 0.950 . S
C1860 H1852 0.950 . S
C1860 C1861 1.386 . S
C1860 C1862 1.391 . S
C1861 C1860 1.386 . S
C1861 C1865 1.393 . S
C1862 H1854 0.950 . S
C1862 C1860 1.391 . S
C1862 C1863 1.400 . S
C1863 C1862 1.400 . S
C1863 C1864 1.398 . S
C1863 C1869 1.491 . S
C1864 H1855 0.950 . S
C1864 C1863 1.398 . S
C1864 C1865 1.391 . S
C1865 H1853 0.950 . S
C1865 C1861 1.393 . S
C1865 C1864 1.391 . S
C1866 H1856 0.950 . S
C1866 C1867 1.386 . S
C1866 C1868 1.391 . S
C1867 C1866 1.386 . S
C1867 C1871 1.393 . S
C1868 H1857 0.950 . S
C1868 C1866 1.391 . S
C1868 C1869 1.400 . S
C1869 C1863 1.491 . S
C1869 C1868 1.400 . S
C1869 C1870 1.398 . S
C1870 H1858 0.950 . S
C1870 C1869 1.398 . S
C1870 C1871 1.391 . S
C1871 H1859 0.950 . S
C1871 C1867 1.393 . S
C1871 C1870 1.391 . S
H1872 C1880 0.950 . S
H1873 C1885 0.950 . S
H1874 C1882 0.950 . S
H1875 C1884 0.950 . S
H1876 C1886 0.950 . S
H1877 C1888 0.950 . S
H1878 C1890 0.950 . S
H1879 C1891 0.950 . S
C1880 H1872 0.950 . S
C1880 C1881 1.386 . S
C1880 C1882 1.391 . S
C1881 C1880 1.386 . S
C1881 C1885 1.393 . S
C1882 H1874 0.950 . S
C1882 C1880 1.391 . S
C1882 C1883 1.400 . S
C1883 C1882 1.400 . S
C1883 C1884 1.398 . S
C1883 C1889 1.491 . S
C1884 H1875 0.950 . S
C1884 C1883 1.398 . S
C1884 C1885 1.391 . S
C1885 H1873 0.950 . S
C1885 C1881 1.393 . S
C1885 C1884 1.391 . S
C1886 H1876 0.950 . S
C1886 C1887 1.386 . S
C1886 C1888 1.391 . S
C1887 C1886 1.386 . S
C1887 C1891 1.393 . S
C1888 H1877 0.950 . S
C1888 C1886 1.391 . S
C1888 C1889 1.400 . S
C1889 C1883 1.491 . S
C1889 C1888 1.400 . S
C1889 C1890 1.398 . S
C1890 H1878 0.950 . S
C1890 C1889 1.398 . S
C1890 C1891 1.391 . S
C1891 H1879 0.950 . S
C1891 C1887 1.393 . S
C1891 C1890 1.391 . S
H1892 C1900 0.950 . S
H1893 C1905 0.950 . S
H1894 C1902 0.950 . S
H1895 C1904 0.950 . S
H1896 C1906 0.950 . S
H1897 C1908 0.950 . S
H1898 C1910 0.950 . S
H1899 C1911 0.950 . S
C1900 H1892 0.950 . S
C1900 C1901 1.386 . S
C1900 C1902 1.391 . S
C1901 C1900 1.386 . S
C1901 C1905 1.393 . S
C1902 H1894 0.950 . S
C1902 C1900 1.391 . S
C1902 C1903 1.400 . S
C1903 C1902 1.400 . S
C1903 C1904 1.398 . S
C1903 C1909 1.491 . S
C1904 H1895 0.950 . S
C1904 C1903 1.398 . S
C1904 C1905 1.391 . S
C1905 H1893 0.950 . S
C1905 C1901 1.393 . S
C1905 C1904 1.391 . S
C1906 H1896 0.950 . S
C1906 C1907 1.386 . S
C1906 C1908 1.391 . S
C1907 C1906 1.386 . S
C1907 C1911 1.393 . S
C1908 H1897 0.950 . S
C1908 C1906 1.391 . S
C1908 C1909 1.400 . S
C1909 C1903 1.491 . S
C1909 C1908 1.400 . S
C1909 C1910 1.398 . S
C1910 H1898 0.950 . S
C1910 C1909 1.398 . S
C1910 C1911 1.391 . S
C1911 H1899 0.950 . S
C1911 C1907 1.393 . S
C1911 C1910 1.391 . S
H1912 C1920 0.950 . S
H1913 C1925 0.950 . S
H1914 C1922 0.950 . S
H1915 C1924 0.950 . S
H1916 C1926 0.950 . S
H1917 C1928 0.950 . S
H1918 C1930 0.950 . S
H1919 C1931 0.950 . S
C1920 H1912 0.950 . S
C1920 C1921 1.386 . S
C1920 C1922 1.391 . S
C1921 C1920 1.386 . S
C1921 C1925 1.393 . S
C1922 H1914 0.950 . S
C1922 C1920 1.391 . S
C1922 C1923 1.400 . S
C1923 C1922 1.400 . S
C1923 C1924 1.398 . S
C1923 C1929 1.491 . S
C1924 H1915 0.950 . S
C1924 C1923 1.398 . S
C1924 C1925 1.391 . S
C1925 H1913 0.950 . S
C1925 C1921 1.393 . S
C1925 C1924 1.391 . S
C1926 H1916 0.950 . S
C1926 C1927 1.386 . S
C1926 C1928 1.391 . S
C1927 C1926 1.386 . S
C1927 C1931 1.393 . S
C1928 H1917 0.950 . S
C1928 C1926 1.391 . S
C1928 C1929 1.400 . S
C1929 C1923 1.491 . S
C1929 C1928 1.400 . S
C1929 C1930 1.398 . S
C1930 H1918 0.950 . S
C1930 C1929 1.398 . S
C1930 C1931 1.391 . S
C1931 H1919 0.950 . S
C1931 C1927 1.393 . S
C1931 C1930 1.391 . S
H1932 C1940 0.950 . S
H1933 C1945 0.950 . S
H1934 C1942 0.950 . S
H1935 C1944 0.950 . S
H1936 C1946 0.950 . S
H1937 C1948 0.950 . S
H1938 C1950 0.950 . S
H1939 C1951 0.950 . S
C1940 H1932 0.950 . S
C1940 C1941 1.386 . S
C1940 C1942 1.391 . S
C1941 C1940 1.386 . S
C1941 C1945 1.393 . S
C1942 H1934 0.950 . S
C1942 C1940 1.391 . S
C1942 C1943 1.400 . S
C1943 C1942 1.400 . S
C1943 C1944 1.398 . S
C1943 C1949 1.491 . S
C1944 H1935 0.950 . S
C1944 C1943 1.398 . S
C1944 C1945 1.391 . S
C1945 H1933 0.950 . S
C1945 C1941 1.393 . S
C1945 C1944 1.391 . S
C1946 H1936 0.950 . S
C1946 C1947 1.386 . S
C1946 C1948 1.391 . S
C1947 C1946 1.386 . S
C1947 C1951 1.393 . S
C1948 H1937 0.950 . S
C1948 C1946 1.391 . S
C1948 C1949 1.400 . S
C1949 C1943 1.491 . S
C1949 C1948 1.400 . S
C1949 C1950 1.398 . S
C1950 H1938 0.950 . S
C1950 C1949 1.398 . S
C1950 C1951 1.391 . S
C1951 H1939 0.950 . S
C1951 C1947 1.393 . S
C1951 C1950 1.391 . S
H1952 C1960 0.950 . S
H1953 C1965 0.950 . S
H1954 C1962 0.950 . S
H1955 C1964 0.950 . S
H1956 C1966 0.950 . S
H1957 C1968 0.950 . S
H1958 C1970 0.950 . S
H1959 C1971 0.950 . S
C1960 H1952 0.950 . S
C1960 C1961 1.386 . S
C1960 C1962 1.391 . S
C1961 C1960 1.386 . S
C1961 C1965 1.393 . S
C1962 H1954 0.950 . S
C1962 C1960 1.391 . S
C1962 C1963 1.400 . S
C1963 C1962 1.400 . S
C1963 C1964 1.398 . S
C1963 C1969 1.491 . S
C1964 H1955 0.950 . S
C1964 C1963 1.398 . S
C1964 C1965 1.391 . S
C1965 H1953 0.950 . S
C1965 C1961 1.393 . S
C1965 C1964 1.391 . S
C1966 H1956 0.950 . S
C1966 C1967 1.386 . S
C1966 C1968 1.391 . S
C1967 C1966 1.386 . S
C1967 C1971 1.393 . S
C1968 H1957 0.950 . S
C1968 C1966 1.391 . S
C1968 C1969 1.400 . S
C1969 C1963 1.491 . S
C1969 C1968 1.400 . S
C1969 C1970 1.398 . S
C1970 H1958 0.950 . S
C1970 C1969 1.398 . S
C1970 C1971 1.391 . S
C1971 H1959 0.950 . S
C1971 C1967 1.393 . S
C1971 C1970 1.391 . S
H1972 C1980 0.950 . S
H1973 C1985 0.950 . S
H1974 C1982 0.950 . S
H1975 C1984 0.950 . S
H1976 C1986 0.950 . S
H1977 C1988 0.950 . S
H1978 C1990 0.950 . S
H1979 C1991 0.950 . S
C1980 H1972 0.950 . S
C1980 C1981 1.386 . S
C1980 C1982 1.391 . S
C1981 C1980 1.386 . S
C1981 C1985 1.393 . S
C1982 H1974 0.950 . S
C1982 C1980 1.391 . S
C1982 C1983 1.400 . S
C1983 C1982 1.400 . S
C1983 C1984 1.398 . S
C1983 C1989 1.491 . S
C1984 H1975 0.950 . S
C1984 C1983 1.398 . S
C1984 C1985 1.391 . S
C1985 H1973 0.950 . S
C1985 C1981 1.393 . S
C1985 C1984 1.391 . S
C1986 H1976 0.950 . S
C1986 C1987 1.386 . S
C1986 C1988 1.391 . S
C1987 C1986 1.386 . S
C1987 C1991 1.393 . S
C1988 H1977 0.950 . S
C1988 C1986 1.391 . S
C1988 C1989 1.400 . S
C1989 C1983 1.491 . S
C1989 C1988 1.400 . S
C1989 C1990 1.398 . S
C1990 H1978 0.950 . S
C1990 C1989 1.398 . S
C1990 C1991 1.391 . S
C1991 H1979 0.950 . S
C1991 C1987 1.393 . S
C1991 C1990 1.391 . S
H1992 C2000 0.950 . S
H1993 C2005 0.950 . S
H1994 C2002 0.950 . S
H1995 C2004 0.950 . S
H1996 C2006 0.950 . S
H1997 C2008 0.950 . S
H1998 C2010 0.950 . S
H1999 C2011 0.950 . S
C2000 H1992 0.950 . S
C2000 C2001 1.386 . S
C2000 C2002 1.391 . S
C2001 C2000 1.386 . S
C2001 C2005 1.393 . S
C2002 H1994 0.950 . S
C2002 C2000 1.391 . S
C2002 C2003 1.400 . S
C2003 C2002 1.400 . S
C2003 C2004 1.398 . S
C2003 C2009 1.491 . S
C2004 H1995 0.950 . S
C2004 C2003 1.398 . S
C2004 C2005 1.391 . S
C2005 H1993 0.950 . S
C2005 C2001 1.393 . S
C2005 C2004 1.391 . S
C2006 H1996 0.950 . S
C2006 C2007 1.386 . S
C2006 C2008 1.391 . S
C2007 C2006 1.386 . S
C2007 C2011 1.393 . S
C2008 H1997 0.950 . S
C2008 C2006 1.391 . S
C2008 C2009 1.400 . S
C2009 C2003 1.491 . S
C2009 C2008 1.400 . S
C2009 C2010 1.398 . S
C2010 H1998 0.950 . S
C2010 C2009 1.398 . S
C2010 C2011 1.391 . S
C2011 H1999 0.950 . S
C2011 C2007 1.393 . S
C2011 C2010 1.391 . S
H2012 C2020 0.950 . S
H2013 C2025 0.950 . S
H2014 C2022 0.950 . S
H2015 C2024 0.950 . S
H2016 C2026 0.950 . S
H2017 C2028 0.950 . S
H2018 C2030 0.950 . S
H2019 C2031 0.950 . S
C2020 H2012 0.950 . S
C2020 C2021 1.386 . S
C2020 C2022 1.391 . S
C2021 C2020 1.386 . S
C2021 C2025 1.393 . S
C2022 H2014 0.950 . S
C2022 C2020 1.391 . S
C2022 C2023 1.400 . S
C2023 C2022 1.400 . S
C2023 C2024 1.398 . S
C2023 C2029 1.491 . S
C2024 H2015 0.950 . S
C2024 C2023 1.398 . S
C2024 C2025 1.391 . S
C2025 H2013 0.950 . S
C2025 C2021 1.393 . S
C2025 C2024 1.391 . S
C2026 H2016 0.950 . S
C2026 C2027 1.386 . S
C2026 C2028 1.391 . S
C2027 C2026 1.386 . S
C2027 C2031 1.393 . S
C2028 H2017 0.950 . S
C2028 C2026 1.391 . S
C2028 C2029 1.400 . S
C2029 C2023 1.491 . S
C2029 C2028 1.400 . S
C2029 C2030 1.398 . S
C2030 H2018 0.950 . S
C2030 C2029 1.398 . S
C2030 C2031 1.391 . S
C2031 H2019 0.950 . S
C2031 C2027 1.393 . S
C2031 C2030 1.391 . S
H2032 C2040 0.950 . S
H2033 C2045 0.950 . S
H2034 C2042 0.950 . S
H2035 C2044 0.950 . S
H2036 C2046 0.950 . S
H2037 C2048 0.950 . S
H2038 C2050 0.950 . S
H2039 C2051 0.950 . S
C2040 H2032 0.950 . S
C2040 C2041 1.386 . S
C2040 C2042 1.391 . S
C2041 C2040 1.386 . S
C2041 C2045 1.393 . S
C2042 H2034 0.950 . S
C2042 C2040 1.391 . S
C2042 C2043 1.400 . S
C2043 C2042 1.400 . S
C2043 C2044 1.398 . S
C2043 C2049 1.491 . S
C2044 H2035 0.950 . S
C2044 C2043 1.398 . S
C2044 C2045 1.391 . S
C2045 H2033 0.950 . S
C2045 C2041 1.393 . S
C2045 C2044 1.391 . S
C2046 H2036 0.950 . S
C2046 C2047 1.386 . S
C2046 C2048 1.391 . S
C2047 C2046 1.386 . S
C2047 C2051 1.393 . S
C2048 H2037 0.950 . S
C2048 C2046 1.391 . S
C2048 C2049 1.400 . S
C2049 C2043 1.491 . S
C2049 C2048 1.400 . S
C2049 C2050 1.398 . S
C2050 H2038 0.950 . S
C2050 C2049 1.398 . S
C2050 C2051 1.391 . S
C2051 H2039 0.950 . S
C2051 C2047 1.393 . S
C2051 C2050 1.391 . S
H2052 C2060 0.950 . S
H2053 C2065 0.950 . S
H2054 C2062 0.950 . S
H2055 C2064 0.950 . S
H2056 C2066 0.950 . S
H2057 C2068 0.950 . S
H2058 C2070 0.950 . S
H2059 C2071 0.950 . S
C2060 H2052 0.950 . S
C2060 C2061 1.386 . S
C2060 C2062 1.391 . S
C2061 C2060 1.386 . S
C2061 C2065 1.393 . S
C2062 H2054 0.950 . S
C2062 C2060 1.391 . S
C2062 C2063 1.400 . S
C2063 C2062 1.400 . S
C2063 C2064 1.398 . S
C2063 C2069 1.491 . S
C2064 H2055 0.950 . S
C2064 C2063 1.398 . S
C2064 C2065 1.391 . S
C2065 H2053 0.950 . S
C2065 C2061 1.393 . S
C2065 C2064 1.391 . S
C2066 H2056 0.950 . S
C2066 C2067 1.386 . S
C2066 C2068 1.391 . S
C2067 C2066 1.386 . S
C2067 C2071 1.393 . S
C2068 H2057 0.950 . S
C2068 C2066 1.391 . S
C2068 C2069 1.400 . S
C2069 C2063 1.491 . S
C2069 C2068 1.400 . S
C2069 C2070 1.398 . S
C2070 H2058 0.950 . S
C2070 C2069 1.398 . S
C2070 C2071 1.391 . S
C2071 H2059 0.950 . S
C2071 C2067 1.393 . S
C2071 C2070 1.391 . S
H2072 C2080 0.950 . S
H2073 C2085 0.950 . S
H2074 C2082 0.950 . S
H2075 C2084 0.950 . S
H2076 C2086 0.950 . S
H2077 C2088 0.950 . S
H2078 C2090 0.950 . S
H2079 C2091 0.950 . S
C2080 H2072 0.950 . S
C2080 C2081 1.386 . S
C2080 C2082 1.391 . S
C2081 C2080 1.386 . S
C2081 C2085 1.393 . S
C2082 H2074 0.950 . S
C2082 C2080 1.391 . S
C2082 C2083 1.400 . S
C2083 C2082 1.400 . S
C2083 C2084 1.398 . S
C2083 C2089 1.491 . S
C2084 H2075 0.950 . S
C2084 C2083 1.398 . S
C2084 C2085 1.391 . S
C2085 H2073 0.950 . S
C2085 C2081 1.393 . S
C2085 C2084 1.391 . S
C2086 H2076 0.950 . S
C2086 C2087 1.386 . S
C2086 C2088 1.391 . S
C2087 C2086 1.386 . S
C2087 C2091 1.393 . S
C2088 H2077 0.950 . S
C2088 C2086 1.391 . S
C2088 C2089 1.400 . S
C2089 C2083 1.491 . S
C2089 C2088 1.400 . S
C2089 C2090 1.398 . S
C2090 H2078 0.950 . S
C2090 C2089 1.398 . S
C2090 C2091 1.391 . S
C2091 H2079 0.950 . S
C2091 C2087 1.393 . S
C2091 C2090 1.391 . S
H2092 C2100 0.950 . S
H2093 C2105 0.950 . S
H2094 C2102 0.950 . S
H2095 C2104 0.950 . S
H2096 C2106 0.950 . S
H2097 C2108 0.950 . S
H2098 C2110 0.950 . S
H2099 C2111 0.950 . S
C2100 H2092 0.950 . S
C2100 C2101 1.386 . S
C2100 C2102 1.391 . S
C2101 C2100 1.386 . S
C2101 C2105 1.393 . S
C2102 H2094 0.950 . S
C2102 C2100 1.391 . S
C2102 C2103 1.400 . S
C2103 C2102 1.400 . S
C2103 C2104 1.398 . S
C2103 C2109 1.491 . S
C2104 H2095 0.950 . S
C2104 C2103 1.398 . S
C2104 C2105 1.391 . S
C2105 H2093 0.950 . S
C2105 C2101 1.393 . S
C2105 C2104 1.391 . S
C2106 H2096 0.950 . S
C2106 C2107 1.386 . S
C2106 C2108 1.391 . S
C2107 C2106 1.386 . S
C2107 C2111 1.393 . S
C2108 H2097 0.950 . S
C2108 C2106 1.391 . S
C2108 C2109 1.400 . S
C2109 C2103 1.491 . S
C2109 C2108 1.400 . S
C2109 C2110 1.398 . S
C2110 H2098 0.950 . S
C2110 C2109 1.398 . S
C2110 C2111 1.391 . S
C2111 H2099 0.950 . S
C2111 C2107 1.393 . S
C2111 C2110 1.391 . S
H2112 C2120 0.950 . S
H2113 C2125 0.950 . S
H2114 C2122 0.950 . S
H2115 C2124 0.950 . S
H2116 C2126 0.950 . S
H2117 C2128 0.950 . S
H2118 C2130 0.950 . S
H2119 C2131 0.950 . S
C2120 H2112 0.950 . S
C2120 C2121 1.386 . S
C2120 C2122 1.391 . S
C2121 C2120 1.386 . S
C2121 C2125 1.393 . S
C2122 H2114 0.950 . S
C2122 C2120 1.391 . S
C2122 C2123 1.400 . S
C2123 C2122 1.400 . S
C2123 C2124 1.398 . S
C2123 C2129 1.491 . S
C2124 H2115 0.950 . S
C2124 C2123 1.398 . S
C2124 C2125 1.391 . S
C2125 H2113 0.950 . S
C2125 C2121 1.393 . S
C2125 C2124 1.391 . S
C2126 H2116 0.950 . S
C2126 C2127 1.386 . S
C2126 C2128 1.391 . S
C2127 C2126 1.386 . S
C2127 C2131 1.393 . S
C2128 H2117 0.950 . S
C2128 C2126 1.391 . S
C2128 C2129 1.400 . S
C2129 C2123 1.491 . S
C2129 C2128 1.400 . S
C2129 C2130 1.398 . S
C2130 H2118 0.950 . S
C2130 C2129 1.398 . S
C2130 C2131 1.391 . S
C2131 H2119 0.950 . S
C2131 C2127 1.393 . S
C2131 C2130 1.391 . S
H2132 C2140 0.950 . S
H2133 C2145 0.950 . S
H2134 C2142 0.950 . S
H2135 C2144 0.950 . S
H2136 C2146 0.950 . S
H2137 C2148 0.950 . S
H2138 C2150 0.950 . S
H2139 C2151 0.950 . S
C2140 H2132 0.950 . S
C2140 C2141 1.386 . S
C2140 C2142 1.391 . S
C2141 C2140 1.386 . S
C2141 C2145 1.393 . S
C2142 H2134 0.950 . S
C2142 C2140 1.391 . S
C2142 C2143 1.400 . S
C2143 C2142 1.400 . S
C2143 C2144 1.398 . S
C2143 C2149 1.491 . S
C2144 H2135 0.950 . S
C2144 C2143 1.398 . S
C2144 C2145 1.391 . S
C2145 H2133 0.950 . S
C2145 C2141 1.393 . S
C2145 C2144 1.391 . S
C2146 H2136 0.950 . S
C2146 C2147 1.386 . S
C2146 C2148 1.391 . S
C2147 C2146 1.386 . S
C2147 C2151 1.393 . S
C2148 H2137 0.950 . S
C2148 C2146 1.391 . S
C2148 C2149 1.400 . S
C2149 C2143 1.491 . S
C2149 C2148 1.400 . S
C2149 C2150 1.398 . S
C2150 H2138 0.950 . S
C2150 C2149 1.398 . S
C2150 C2151 1.391 . S
C2151 H2139 0.950 . S
C2151 C2147 1.393 . S
C2151 C2150 1.391 . S
H2152 C2160 0.950 . S
H2153 C2165 0.950 . S
H2154 C2162 0.950 . S
H2155 C2164 0.950 . S
H2156 C2166 0.950 . S
H2157 C2168 0.950 . S
H2158 C2170 0.950 . S
H2159 C2171 0.950 . S
C2160 H2152 0.950 . S
C2160 C2161 1.386 . S
C2160 C2162 1.391 . S
C2161 C2160 1.386 . S
C2161 C2165 1.393 . S
C2162 H2154 0.950 . S
C2162 C2160 1.391 . S
C2162 C2163 1.400 . S
C2163 C2162 1.400 . S
C2163 C2164 1.398 . S
C2163 C2169 1.491 . S
C2164 H2155 0.950 . S
C2164 C2163 1.398 . S
C2164 C2165 1.391 . S
C2165 H2153 0.950 . S
C2165 C2161 1.393 . S
C2165 C2164 1.391 . S
C2166 H2156 0.950 . S
C2166 C2167 1.386 . S
C2166 C2168 1.391 . S
C2167 C2166 1.386 . S
C2167 C2171 1.393 . S
C2168 H2157 0.950 . S
C2168 C2166 1.391 . S
C2168 C2169 1.400 . S
C2169 C2163 1.491 . S
C2169 C2168 1.400 . S
C2169 C2170 1.398 . S
C2170 H2158 0.950 . S
C2170 C2169 1.398 . S
C2170 C2171 1.391 . S
C2171 H2159 0.950 . S
C2171 C2167 1.393 . S
C2171 C2170 1.391 . S
H2172 C2180 0.950 . S
H2173 C2185 0.950 . S
H2174 C2182 0.950 . S
H2175 C2184 0.950 . S
H2176 C2186 0.950 . S
H2177 C2188 0.950 . S
H2178 C2190 0.950 . S
H2179 C2191 0.950 . S
C2180 H2172 0.950 . S
C2180 C2181 1.386 . S
C2180 C2182 1.391 . S
C2181 C2180 1.386 . S
C2181 C2185 1.393 . S
C2182 H2174 0.950 . S
C2182 C2180 1.391 . S
C2182 C2183 1.400 . S
C2183 C2182 1.400 . S
C2183 C2184 1.398 . S
C2183 C2189 1.491 . S
C2184 H2175 0.950 . S
C2184 C2183 1.398 . S
C2184 C2185 1.391 . S
C2185 H2173 0.950 . S
C2185 C2181 1.393 . S
C2185 C2184 1.391 . S
C2186 H2176 0.950 . S
C2186 C2187 1.386 . S
C2186 C2188 1.391 . S
C2187 C2186 1.386 . S
C2187 C2191 1.393 . S
C2188 H2177 0.950 . S
C2188 C2186 1.391 . S
C2188 C2189 1.400 . S
C2189 C2183 1.491 . S
C2189 C2188 1.400 . S
C2189 C2190 1.398 . S
C2190 H2178 0.950 . S
C2190 C2189 1.398 . S
C2190 C2191 1.391 . S
C2191 H2179 0.950 . S
C2191 C2187 1.393 . S
C2191 C2190 1.391 . S
H2192 C2200 0.950 . S
H2193 C2205 0.950 . S
H2194 C2202 0.950 . S
H2195 C2204 0.950 . S
H2196 C2206 0.950 . S
H2197 C2208 0.950 . S
H2198 C2210 0.950 . S
H2199 C2211 0.950 . S
C2200 H2192 0.950 . S
C2200 C2201 1.386 . S
C2200 C2202 1.391 . S
C2201 C2200 1.386 . S
C2201 C2205 1.393 . S
C2202 H2194 0.950 . S
C2202 C2200 1.391 . S
C2202 C2203 1.400 . S
C2203 C2202 1.400 . S
C2203 C2204 1.398 . S
C2203 C2209 1.491 . S
C2204 H2195 0.950 . S
C2204 C2203 1.398 . S
C2204 C2205 1.391 . S
C2205 H2193 0.950 . S
C2205 C2201 1.393 . S
C2205 C2204 1.391 . S
C2206 H2196 0.950 . S
C2206 C2207 1.386 . S
C2206 C2208 1.391 . S
C2207 C2206 1.386 . S
C2207 C2211 1.393 . S
C2208 H2197 0.950 . S
C2208 C2206 1.391 . S
C2208 C2209 1.400 . S
C2209 C2203 1.491 . S
C2209 C2208 1.400 . S
C2209 C2210 1.398 . S
C2210 H2198 0.950 . S
C2210 C2209 1.398 . S
C2210 C2211 1.391 . S
C2211 H2199 0.950 . S
C2211 C2207 1.393 . S
C2211 C2210 1.391 . S
H2212 C2220 0.950 . S
H2213 C2225 0.950 . S
H2214 C2222 0.950 . S
H2215 C2224 0.950 . S
H2216 C2226 0.950 . S
H2217 C2228 0.950 . S
H2218 C2230 0.950 . S
H2219 C2231 0.950 . S
C2220 H2212 0.950 . S
C2220 C2221 1.386 . S
C2220 C2222 1.391 . S
C2221 C2220 1.386 . S
C2221 C2225 1.393 . S
C2222 H2214 0.950 . S
C2222 C2220 1.391 . S
C2222 C2223 1.400 . S
C2223 C2222 1.400 . S
C2223 C2224 1.398 . S
C2223 C2229 1.491 . S
C2224 H2215 0.950 . S
C2224 C2223 1.398 . S
C2224 C2225 1.391 . S
C2225 H2213 0.950 . S
C2225 C2221 1.393 . S
C2225 C2224 1.391 . S
C2226 H2216 0.950 . S
C2226 C2227 1.386 . S
C2226 C2228 1.391 . S
C2227 C2226 1.386 . S
C2227 C2231 1.393 . S
C2228 H2217 0.950 . S
C2228 C2226 1.391 . S
C2228 C2229 1.400 . S
C2229 C2223 1.491 . S
C2229 C2228 1.400 . S
C2229 C2230 1.398 . S
C2230 H2218 0.950 . S
C2230 C2229 1.398 . S
C2230 C2231 1.391 . S
C2231 H2219 0.950 . S
C2231 C2227 1.393 . S
C2231 C2230 1.391 . S
H2232 C2240 0.950 . S
H2233 C2245 0.950 . S
H2234 C2242 0.950 . S
H2235 C2244 0.950 . S
H2236 C2246 0.950 . S
H2237 C2248 0.950 . S
H2238 C2250 0.950 . S
H2239 C2251 0.950 . S
C2240 H2232 0.950 . S
C2240 C2241 1.386 . S
C2240 C2242 1.391 . S
C2241 C2240 1.386 . S
C2241 C2245 1.393 . S
C2242 H2234 0.950 . S
C2242 C2240 1.391 . S
C2242 C2243 1.400 . S
C2243 C2242 1.400 . S
C2243 C2244 1.398 . S
C2243 C2249 1.491 . S
C2244 H2235 0.950 . S
C2244 C2243 1.398 . S
C2244 C2245 1.391 . S
C2245 H2233 0.950 . S
C2245 C2241 1.393 . S
C2245 C2244 1.391 . S
C2246 H2236 0.950 . S
C2246 C2247 1.386 . S
C2246 C2248 1.391 . S
C2247 C2246 1.386 . S
C2247 C2251 1.393 . S
C2248 H2237 0.950 . S
C2248 C2246 1.391 . S
C2248 C2249 1.400 . S
C2249 C2243 1.491 . S
C2249 C2248 1.400 . S
C2249 C2250 1.398 . S
C2250 H2238 0.950 . S
C2250 C2249 1.398 . S
C2250 C2251 1.391 . S
C2251 H2239 0.950 . S
C2251 C2247 1.393 . S
C2251 C2250 1.391 . S
H2252 C2260 0.950 . S
H2253 C2265 0.950 . S
H2254 C2262 0.950 . S
H2255 C2264 0.950 . S
H2256 C2266 0.950 . S
H2257 C2268 0.950 . S
H2258 C2270 0.950 . S
H2259 C2271 0.950 . S
C2260 H2252 0.950 . S
C2260 C2261 1.386 . S
C2260 C2262 1.391 . S
C2261 C2260 1.386 . S
C2261 C2265 1.393 . S
C2262 H2254 0.950 . S
C2262 C2260 1.391 . S
C2262 C2263 1.400 . S
C2263 C2262 1.400 . S
C2263 C2264 1.398 . S
C2263 C2269 1.491 . S
C2264 H2255 0.950 . S
C2264 C2263 1.398 . S
C2264 C2265 1.391 . S
C2265 H2253 0.950 . S
C2265 C2261 1.393 . S
C2265 C2264 1.391 . S
C2266 H2256 0.950 . S
C2266 C2267 1.386 . S
C2266 C2268 1.391 . S
C2267 C2266 1.386 . S
C2267 C2271 1.393 . S
C2268 H2257 0.950 . S
C2268 C2266 1.391 . S
C2268 C2269 1.400 . S
C2269 C2263 1.491 . S
C2269 C2268 1.400 . S
C2269 C2270 1.398 . S
C2270 H2258 0.950 . S
C2270 C2269 1.398 . S
C2270 C2271 1.391 . S
C2271 H2259 0.950 . S
C2271 C2267 1.393 . S
C2271 C2270 1.391 . S
H2272 C2280 0.950 . S
H2273 C2285 0.950 . S
H2274 C2282 0.950 . S
H2275 C2284 0.950 . S
H2276 C2286 0.950 . S
H2277 C2288 0.950 . S
H2278 C2290 0.950 . S
H2279 C2291 0.950 . S
C2280 H2272 0.950 . S
C2280 C2281 1.386 . S
C2280 C2282 1.391 . S
C2281 C2280 1.386 . S
C2281 C2285 1.393 . S
C2282 H2274 0.950 . S
C2282 C2280 1.391 . S
C2282 C2283 1.400 . S
C2283 C2282 1.400 . S
C2283 C2284 1.398 . S
C2283 C2289 1.491 . S
C2284 H2275 0.950 . S
C2284 C2283 1.398 . S
C2284 C2285 1.391 . S
C2285 H2273 0.950 . S
C2285 C2281 1.393 . S
C2285 C2284 1.391 . S
C2286 H2276 0.950 . S
C2286 C2287 1.386 . S
C2286 C2288 1.391 . S
C2287 C2286 1.386 . S
C2287 C2291 1.393 . S
C2288 H2277 0.950 . S
C2288 C2286 1.391 . S
C2288 C2289 1.400 . S
C2289 C2283 1.491 . S
C2289 C2288 1.400 . S
C2289 C2290 1.398 . S
C2290 H2278 0.950 . S
C2290 C2289 1.398 . S
C2290 C2291 1.391 . S
C2291 H2279 0.950 . S
C2291 C2287 1.393 . S
C2291 C2290 1.391 . S
H2292 C2300 0.950 . S
H2293 C2305 0.950 . S
H2294 C2302 0.950 . S
H2295 C2304 0.950 . S
H2296 C2306 0.950 . S
H2297 C2308 0.950 . S
H2298 C2310 0.950 . S
H2299 C2311 0.950 . S
C2300 H2292 0.950 . S
C2300 C2301 1.386 . S
C2300 C2302 1.391 . S
C2301 C2300 1.386 . S
C2301 C2305 1.393 . S
C2302 H2294 0.950 . S
C2302 C2300 1.391 . S
C2302 C2303 1.400 . S
C2303 C2302 1.400 . S
C2303 C2304 1.398 . S
C2303 C2309 1.491 . S
C2304 H2295 0.950 . S
C2304 C2303 1.398 . S
C2304 C2305 1.391 . S
C2305 H2293 0.950 . S
C2305 C2301 1.393 . S
C2305 C2304 1.391 . S
C2306 H2296 0.950 . S
C2306 C2307 1.386 . S
C2306 C2308 1.391 . S
C2307 C2306 1.386 . S
C2307 C2311 1.393 . S
C2308 H2297 0.950 . S
C2308 C2306 1.391 . S
C2308 C2309 1.400 . S
C2309 C2303 1.491 . S
C2309 C2308 1.400 . S
C2309 C2310 1.398 . S
C2310 H2298 0.950 . S
C2310 C2309 1.398 . S
C2310 C2311 1.391 . S
C2311 H2299 0.950 . S
C2311 C2307 1.393 . S
C2311 C2310 1.391 . S
H2312 C2320 0.950 . S
H2313 C2325 0.950 . S
H2314 C2322 0.950 . S
H2315 C2324 0.950 . S
H2316 C2326 0.950 . S
H2317 C2328 0.950 . S
H2318 C2330 0.950 . S
H2319 C2331 0.950 . S
C2320 H2312 0.950 . S
C2320 C2321 1.386 . S
C2320 C2322 1.391 . S
C2321 C2320 1.386 . S
C2321 C2325 1.393 . S
C2322 H2314 0.950 . S
C2322 C2320 1.391 . S
C2322 C2323 1.400 . S
C2323 C2322 1.400 . S
C2323 C2324 1.398 . S
C2323 C2329 1.491 . S
C2324 H2315 0.950 . S
C2324 C2323 1.398 . S
C2324 C2325 1.391 . S
C2325 H2313 0.950 . S
C2325 C2321 1.393 . S
C2325 C2324 1.391 . S
C2326 H2316 0.950 . S
C2326 C2327 1.386 . S
C2326 C2328 1.391 . S
C2327 C2326 1.386 . S
C2327 C2331 1.393 . S
C2328 H2317 0.950 . S
C2328 C2326 1.391 . S
C2328 C2329 1.400 . S
C2329 C2323 1.491 . S
C2329 C2328 1.400 . S
C2329 C2330 1.398 . S
C2330 H2318 0.950 . S
C2330 C2329 1.398 . S
C2330 C2331 1.391 . S
C2331 H2319 0.950 . S
C2331 C2327 1.393 . S
C2331 C2330 1.391 . S
H2332 C2340 0.950 . S
H2333 C2345 0.950 . S
H2334 C2342 0.950 . S
H2335 C2344 0.950 . S
H2336 C2346 0.950 . S
H2337 C2348 0.950 . S
H2338 C2350 0.950 . S
H2339 C2351 0.950 . S
C2340 H2332 0.950 . S
C2340 C2341 1.386 . S
C2340 C2342 1.391 . S
C2341 C2340 1.386 . S
C2341 C2345 1.393 . S
C2342 H2334 0.950 . S
C2342 C2340 1.391 . S
C2342 C2343 1.400 . S
C2343 C2342 1.400 . S
C2343 C2344 1.398 . S
C2343 C2349 1.491 . S
C2344 H2335 0.950 . S
C2344 C2343 1.398 . S
C2344 C2345 1.391 . S
C2345 H2333 0.950 . S
C2345 C2341 1.393 . S
C2345 C2344 1.391 . S
C2346 H2336 0.950 . S
C2346 C2347 1.386 . S
C2346 C2348 1.391 . S
C2347 C2346 1.386 . S
C2347 C2351 1.393 . S
C2348 H2337 0.950 . S
C2348 C2346 1.391 . S
C2348 C2349 1.400 . S
C2349 C2343 1.491 . S
C2349 C2348 1.400 . S
C2349 C2350 1.398 . S
C2350 H2338 0.950 . S
C2350 C2349 1.398 . S
C2350 C2351 1.391 . S
C2351 H2339 0.950 . S
C2351 C2347 1.393 . S
C2351 C2350 1.391 . S
H2352 C2360 0.950 . S
H2353 C2365 0.950 . S
H2354 C2362 0.950 . S
H2355 C2364 0.950 . S
H2356 C2366 0.950 . S
H2357 C2368 0.950 . S
H2358 C2370 0.950 . S
H2359 C2371 0.950 . S
C2360 H2352 0.950 . S
C2360 C2361 1.386 . S
C2360 C2362 1.391 . S
C2361 C2360 1.386 . S
C2361 C2365 1.393 . S
C2362 H2354 0.950 . S
C2362 C2360 1.391 . S
C2362 C2363 1.400 . S
C2363 C2362 1.400 . S
C2363 C2364 1.398 . S
C2363 C2369 1.491 . S
C2364 H2355 0.950 . S
C2364 C2363 1.398 . S
C2364 C2365 1.391 . S
C2365 H2353 0.950 . S
C2365 C2361 1.393 . S
C2365 C2364 1.391 . S
C2366 H2356 0.950 . S
C2366 C2367 1.386 . S
C2366 C2368 1.391 . S
C2367 C2366 1.386 . S
C2367 C2371 1.393 . S
C2368 H2357 0.950 . S
C2368 C2366 1.391 . S
C2368 C2369 1.400 . S
C2369 C2363 1.491 . S
C2369 C2368 1.400 . S
C2369 C2370 1.398 . S
C2370 H2358 0.950 . S
C2370 C2369 1.398 . S
C2370 C2371 1.391 . S
C2371 H2359 0.950 . S
C2371 C2367 1.393 . S
C2371 C2370 1.391 . S
H2372 C2380 0.950 . S
H2373 C2385 0.950 . S
H2374 C2382 0.950 . S
H2375 C2384 0.950 . S
H2376 C2386 0.950 . S
H2377 C2388 0.950 . S
H2378 C2390 0.950 . S
H2379 C2391 0.950 . S
C2380 H2372 0.950 . S
C2380 C2381 1.386 . S
C2380 C2382 1.391 . S
C2381 C2380 1.386 . S
C2381 C2385 1.393 . S
C2382 H2374 0.950 . S
C2382 C2380 1.391 . S
C2382 C2383 1.400 . S
C2383 C2382 1.400 . S
C2383 C2384 1.398 . S
C2383 C2389 1.491 . S
C2384 H2375 0.950 . S
C2384 C2383 1.398 . S
C2384 C2385 1.391 . S
C2385 H2373 0.950 . S
C2385 C2381 1.393 . S
C2385 C2384 1.391 . S
C2386 H2376 0.950 . S
C2386 C2387 1.386 . S
C2386 C2388 1.391 . S
C2387 C2386 1.386 . S
C2387 C2391 1.393 . S
C2388 H2377 0.950 . S
C2388 C2386 1.391 . S
C2388 C2389 1.400 . S
C2389 C2383 1.491 . S
C2389 C2388 1.400 . S
C2389 C2390 1.398 . S
C2390 H2378 0.950 . S
C2390 C2389 1.398 . S
C2390 C2391 1.391 . S
C2391 H2379 0.950 . S
C2391 C2387 1.393 . S
C2391 C2390 1.391 . S
H2392 C2400 0.950 . S
H2393 C2405 0.950 . S
H2394 C2402 0.950 . S
H2395 C2404 0.950 . S
H2396 C2406 0.950 . S
H2397 C2408 0.950 . S
H2398 C2410 0.950 . S
H2399 C2411 0.950 . S
C2400 H2392 0.950 . S
C2400 C2401 1.386 . S
C2400 C2402 1.391 . S
C2401 C2400 1.386 . S
C2401 C2405 1.393 . S
C2402 H2394 0.950 . S
C2402 C2400 1.391 . S
C2402 C2403 1.400 . S
C2403 C2402 1.400 . S
C2403 C2404 1.398 . S
C2403 C2409 1.491 . S
C2404 H2395 0.950 . S
C2404 C2403 1.398 . S
C2404 C2405 1.391 . S
C2405 H2393 0.950 . S
C2405 C2401 1.393 . S
C2405 C2404 1.391 . S
C2406 H2396 0.950 . S
C2406 C2407 1.386 . S
C2406 C2408 1.391 . S
C2407 C2406 1.386 . S
C2407 C2411 1.393 . S
C2408 H2397 0.950 . S
C2408 C2406 1.391 . S
C2408 C2409 1.400 . S
C2409 C2403 1.491 . S
C2409 C2408 1.400 . S
C2409 C2410 1.398 . S
C2410 H2398 0.950 . S
C2410 C2409 1.398 . S
C2410 C2411 1.391 . S
C2411 H2399 0.950 . S
C2411 C2407 1.393 . S
C2411 C2410 1.391 . S
H2412 C2420 0.950 . S
H2413 C2425 0.950 . S
H2414 C2422 0.950 . S
H2415 C2424 0.950 . S
H2416 C2426 0.950 . S
H2417 C2428 0.950 . S
H2418 C2430 0.950 . S
H2419 C2431 0.950 . S
C2420 H2412 0.950 . S
C2420 C2421 1.386 . S
C2420 C2422 1.391 . S
C2421 C2420 1.386 . S
C2421 C2425 1.393 . S
C2422 H2414 0.950 . S
C2422 C2420 1.391 . S
C2422 C2423 1.400 . S
C2423 C2422 1.400 . S
C2423 C2424 1.398 . S
C2423 C2429 1.491 . S
C2424 H2415 0.950 . S
C2424 C2423 1.398 . S
C2424 C2425 1.391 . S
C2425 H2413 0.950 . S
C2425 C2421 1.393 . S
C2425 C2424 1.391 . S
C2426 H2416 0.950 . S
C2426 C2427 1.386 . S
C2426 C2428 1.391 . S
C2427 C2426 1.386 . S
C2427 C2431 1.393 . S
C2428 H2417 0.950 . S
C2428 C2426 1.391 . S
C2428 C2429 1.400 . S
C2429 C2423 1.491 . S
C2429 C2428 1.400 . S
C2429 C2430 1.398 . S
C2430 H2418 0.950 . S
C2430 C2429 1.398 . S
C2430 C2431 1.391 . S
C2431 H2419 0.950 . S
C2431 C2427 1.393 . S
C2431 C2430 1.391 . S
H2432 C2440 0.950 . S
H2433 C2445 0.950 . S
H2434 C2442 0.950 . S
H2435 C2444 0.950 . S
H2436 C2446 0.950 . S
H2437 C2448 0.950 . S
H2438 C2450 0.950 . S
H2439 C2451 0.950 . S
C2440 H2432 0.950 . S
C2440 C2441 1.386 . S
C2440 C2442 1.391 . S
C2441 C2440 1.386 . S
C2441 C2445 1.393 . S
C2442 H2434 0.950 . S
C2442 C2440 1.391 . S
C2442 C2443 1.400 . S
C2443 C2442 1.400 . S
C2443 C2444 1.398 . S
C2443 C2449 1.491 . S
C2444 H2435 0.950 . S
C2444 C2443 1.398 . S
C2444 C2445 1.391 . S
C2445 H2433 0.950 . S
C2445 C2441 1.393 . S
C2445 C2444 1.391 . S
C2446 H2436 0.950 . S
C2446 C2447 1.386 . S
C2446 C2448 1.391 . S
C2447 C2446 1.386 . S
C2447 C2451 1.393 . S
C2448 H2437 0.950 . S
C2448 C2446 1.391 . S
C2448 C2449 1.400 . S
C2449 C2443 1.491 . S
C2449 C2448 1.400 . S
C2449 C2450 1.398 . S
C2450 H2438 0.950 . S
C2450 C2449 1.398 . S
C2450 C2451 1.391 . S
C2451 H2439 0.950 . S
C2451 C2447 1.393 . S
C2451 C2450 1.391 . S
H2452 C2460 0.950 . S
H2453 C2465 0.950 . S
H2454 C2462 0.950 . S
H2455 C2464 0.950 . S
H2456 C2466 0.950 . S
H2457 C2468 0.950 . S
H2458 C2470 0.950 . S
H2459 C2471 0.950 . S
C2460 H2452 0.950 . S
C2460 C2461 1.386 . S
C2460 C2462 1.391 . S
C2461 C2460 1.386 . S
C2461 C2465 1.393 . S
C2462 H2454 0.950 . S
C2462 C2460 1.391 . S
C2462 C2463 1.400 . S
C2463 C2462 1.400 . S
C2463 C2464 1.398 . S
C2463 C2469 1.491 . S
C2464 H2455 0.950 . S
C2464 C2463 1.398 . S
C2464 C2465 1.391 . S
C2465 H2453 0.950 . S
C2465 C2461 1.393 . S
C2465 C2464 1.391 . S
C2466 H2456 0.950 . S
C2466 C2467 1.386 . S
C2466 C2468 1.391 . S
C2467 C2466 1.386 . S
C2467 C2471 1.393 . S
C2468 H2457 0.950 . S
C2468 C2466 1.391 . S
C2468 C2469 1.400 . S
C2469 C2463 1.491 . S
C2469 C2468 1.400 . S
C2469 C2470 1.398 . S
C2470 H2458 0.950 . S
C2470 C2469 1.398 . S
C2470 C2471 1.391 . S
C2471 H2459 0.950 . S
C2471 C2467 1.393 . S
C2471 C2470 1.391 . S
H2472 C2480 0.950 . S
H2473 C2485 0.950 . S
H2474 C2482 0.950 . S
H2475 C2484 0.950 . S
H2476 C2486 0.950 . S
H2477 C2488 0.950 . S
H2478 C2490 0.950 . S
H2479 C2491 0.950 . S
C2480 H2472 0.950 . S
C2480 C2481 1.386 . S
C2480 C2482 1.391 . S
C2481 C2480 1.386 . S
C2481 C2485 1.393 . S
C2482 H2474 0.950 . S
C2482 C2480 1.391 . S
C2482 C2483 1.400 . S
C2483 C2482 1.400 . S
C2483 C2484 1.398 . S
C2483 C2489 1.491 . S
C2484 H2475 0.950 . S
C2484 C2483 1.398 . S
C2484 C2485 1.391 . S
C2485 H2473 0.950 . S
C2485 C2481 1.393 . S
C2485 C2484 1.391 . S
C2486 H2476 0.950 . S
C2486 C2487 1.386 . S
C2486 C2488 1.391 . S
C2487 C2486 1.386 . S
C2487 C2491 1.393 . S
C2488 H2477 0.950 . S
C2488 C2486 1.391 . S
C2488 C2489 1.400 . S
C2489 C2483 1.491 . S
C2489 C2488 1.400 . S
C2489 C2490 1.398 . S
C2490 H2478 0.950 . S
C2490 C2489 1.398 . S
C2490 C2491 1.391 . S
C2491 H2479 0.950 . S
C2491 C2487 1.393 . S
C2491 C2490 1.391 . S
H2492 C2500 0.950 . S
H2493 C2505 0.950 . S
H2494 C2502 0.950 . S
H2495 C2504 0.950 . S
H2496 C2506 0.950 . S
H2497 C2508 0.950 . S
H2498 C2510 0.950 . S
H2499 C2511 0.950 . S
C2500 H2492 0.950 . S
C2500 C2501 1.386 . S
C2500 C2502 1.391 . S
C2501 C2500 1.386 . S
C2501 C2505 1.393 . S
C2502 H2494 0.950 . S
C2502 C2500 1.391 . S
C2502 C2503 1.400 . S
C2503 C2502 1.400 . S
C2503 C2504 1.398 . S
C2503 C2509 1.491 . S
C2504 H2495 0.950 . S
C2504 C2503 1.398 . S
C2504 C2505 1.391 . S
C2505 H2493 0.950 . S
C2505 C2501 1.393 . S
C2505 C2504 1.391 . S
C2506 H2496 0.950 . S
C2506 C2507 1.386 . S
C2506 C2508 1.391 . S
C2507 C2506 1.386 . S
C2507 C2511 1.393 . S
C2508 H2497 0.950 . S
C2508 C2506 1.391 . S
C2508 C2509 1.400 . S
C2509 C2503 1.491 . S
C2509 C2508 1.400 . S
C2509 C2510 1.398 . S
C2510 H2498 0.950 . S
C2510 C2509 1.398 . S
C2510 C2511 1.391 . S
C2511 H2499 0.950 . S
C2511 C2507 1.393 . S
C2511 C2510 1.391 . S
H2512 C2520 0.950 . S
H2513 C2525 0.950 . S
H2514 C2522 0.950 . S
H2515 C2524 0.950 . S
H2516 C2526 0.950 . S
H2517 C2528 0.950 . S
H2518 C2530 0.950 . S
H2519 C2531 0.950 . S
C2520 H2512 0.950 . S
C2520 C2521 1.386 . S
C2520 C2522 1.391 . S
C2521 C2520 1.386 . S
C2521 C2525 1.393 . S
C2522 H2514 0.950 . S
C2522 C2520 1.391 . S
C2522 C2523 1.400 . S
C2523 C2522 1.400 . S
C2523 C2524 1.398 . S
C2523 C2529 1.491 . S
C2524 H2515 0.950 . S
C2524 C2523 1.398 . S
C2524 C2525 1.391 . S
C2525 H2513 0.950 . S
C2525 C2521 1.393 . S
C2525 C2524 1.391 . S
C2526 H2516 0.950 . S
C2526 C2527 1.386 . S
C2526 C2528 1.391 . S
C2527 C2526 1.386 . S
C2527 C2531 1.393 . S
C2528 H2517 0.950 . S
C2528 C2526 1.391 . S
C2528 C2529 1.400 . S
C2529 C2523 1.491 . S
C2529 C2528 1.400 . S
C2529 C2530 1.398 . S
C2530 H2518 0.950 . S
C2530 C2529 1.398 . S
C2530 C2531 1.391 . S
C2531 H2519 0.950 . S
C2531 C2527 1.393 . S
C2531 C2530 1.391 . S
H2532 C2540 0.950 . S
H2533 C2545 0.950 . S
H2534 C2542 0.950 . S
H2535 C2544 0.950 . S
H2536 C2546 0.950 . S
H2537 C2548 0.950 . S
H2538 C2550 0.950 . S
H2539 C2551 0.950 . S
C2540 H2532 0.950 . S
C2540 C2541 1.386 . S
C2540 C2542 1.391 . S
C2541 C2540 1.386 . S
C2541 C2545 1.393 . S
C2542 H2534 0.950 . S
C2542 C2540 1.391 . S
C2542 C2543 1.400 . S
C2543 C2542 1.400 . S
C2543 C2544 1.398 . S
C2543 C2549 1.491 . S
C2544 H2535 0.950 . S
C2544 C2543 1.398 . S
C2544 C2545 1.391 . S
C2545 H2533 0.950 . S
C2545 C2541 1.393 . S
C2545 C2544 1.391 . S
C2546 H2536 0.950 . S
C2546 C2547 1.386 . S
C2546 C2548 1.391 . S
C2547 C2546 1.386 . S
C2547 C2551 1.393 . S
C2548 H2537 0.950 . S
C2548 C2546 1.391 . S
C2548 C2549 1.400 . S
C2549 C2543 1.491 . S
C2549 C2548 1.400 . S
C2549 C2550 1.398 . S
C2550 H2538 0.950 . S
C2550 C2549 1.398 . S
C2550 C2551 1.391 . S
C2551 H2539 0.950 . S
C2551 C2547 1.393 . S
C2551 C2550 1.391 . S
H2552 C2560 0.950 . S
H2553 C2565 0.950 . S
H2554 C2562 0.950 . S
H2555 C2564 0.950 . S
H2556 C2566 0.950 . S
H2557 C2568 0.950 . S
H2558 C2570 0.950 . S
H2559 C2571 0.950 . S
C2560 H2552 0.950 . S
C2560 C2561 1.386 . S
C2560 C2562 1.391 . S
C2561 C2560 1.386 . S
C2561 C2565 1.393 . S
C2562 H2554 0.950 . S
C2562 C2560 1.391 . S
C2562 C2563 1.400 . S
C2563 C2562 1.400 . S
C2563 C2564 1.398 . S
C2563 C2569 1.491 . S
C2564 H2555 0.950 . S
C2564 C2563 1.398 . S
C2564 C2565 1.391 . S
C2565 H2553 0.950 . S
C2565 C2561 1.393 . S
C2565 C2564 1.391 . S
C2566 H2556 0.950 . S
C2566 C2567 1.386 . S
C2566 C2568 1.391 . S
C2567 C2566 1.386 . S
C2567 C2571 1.393 . S
C2568 H2557 0.950 . S
C2568 C2566 1.391 . S
C2568 C2569 1.400 . S
C2569 C2563 1.491 . S
C2569 C2568 1.400 . S
C2569 C2570 1.398 . S
C2570 H2558 0.950 . S
C2570 C2569 1.398 . S
C2570 C2571 1.391 . S
C2571 H2559 0.950 . S
C2571 C2567 1.393 . S
C2571 C2570 1.391 . S
H2572 C2580 0.950 . S
H2573 C2585 0.950 . S
H2574 C2582 0.950 . S
H2575 C2584 0.950 . S
H2576 C2586 0.950 . S
H2577 C2588 0.950 . S
H2578 C2590 0.950 . S
H2579 C2591 0.950 . S
C2580 H2572 0.950 . S
C2580 C2581 1.386 . S
C2580 C2582 1.391 . S
C2581 C2580 1.386 . S
C2581 C2585 1.393 . S
C2582 H2574 0.950 . S
C2582 C2580 1.391 . S
C2582 C2583 1.400 . S
C2583 C2582 1.400 . S
C2583 C2584 1.398 . S
C2583 C2589 1.491 . S
C2584 H2575 0.950 . S
C2584 C2583 1.398 . S
C2584 C2585 1.391 . S
C2585 H2573 0.950 . S
C2585 C2581 1.393 . S
C2585 C2584 1.391 . S
C2586 H2576 0.950 . S
C2586 C2587 1.386 . S
C2586 C2588 1.391 . S
C2587 C2586 1.386 . S
C2587 C2591 1.393 . S
C2588 H2577 0.950 . S
C2588 C2586 1.391 . S
C2588 C2589 1.400 . S
C2589 C2583 1.491 . S
C2589 C2588 1.400 . S
C2589 C2590 1.398 . S
C2590 H2578 0.950 . S
C2590 C2589 1.398 . S
C2590 C2591 1.391 . S
C2591 H2579 0.950 . S
C2591 C2587 1.393 . S
C2591 C2590 1.391 . S
C681 C445 1.376 . S
C687 C11 1.376 . S
C701 C25 1.372 . S
C707 C403 1.372 . S
C721 C39 1.378 . S
C727 C417 1.378 . S
C741 C431 1.376 . S
C747 C53 1.376 . S
C761 C361 1.374 . S
C767 C67 1.374 . S
C781 C81 1.377 . S
C787 C375 1.377 . S
C801 C389 1.377 . S
C807 C95 1.377 . S
C821 C109 1.378 . S
C827 C347 1.378 . S
C841 C123 1.374 . S
C847 C627 1.374 . S
C861 C585 1.377 . S
C867 C137 1.377 . S
C881 C599 1.378 . S
C887 C151 1.378 . S
C901 C165 1.377 . S
C907 C613 1.377 . S
C921 C179 1.378 . S
C927 C669 1.378 . S
C941 C193 1.373 . S
C947 C641 1.373 . S
C961 C207 1.372 . S
C967 C655 1.372 . S
C981 C571 1.377 . S
C987 C221 1.377 . S
C1001 C557 1.374 . S
C1007 C235 1.374 . S
C1021 C249 1.374 . S
C1027 C473 1.374 . S
C1041 C487 1.377 . S
C1047 C263 1.377 . S
C1061 C277 1.378 . S
C1067 C501 1.378 . S
C1081 C459 1.377 . S
C1087 C291 1.377 . S
C1101 C529 1.374 . S
C1107 C305 1.374 . S
C1121 C319 1.373 . S
C1127 C543 1.373 . S
C1141 C515 1.377 . S
C1147 C333 1.377 . S
C1161 C135 1.288 . S
C1167 C9 1.300 . S
C1181 C149 1.295 . S
C1187 C23 1.290 . S
C1201 C37 1.288 . S
C1207 C163 1.298 . S
C1221 C121 1.288 . S
C1227 C51 1.299 . S
C1241 C65 1.294 . S
C1247 C219 1.291 . S
C1261 C177 1.292 . S
C1267 C79 1.293 . S
C1281 C191 1.288 . S
C1287 C93 1.300 . S
C1301 C205 1.300 . S
C1307 C107 1.290 . S
C1321 C261 1.293 . S
C1327 C233 1.291 . S
C1341 C317 1.288 . S
C1347 C247 1.300 . S
C1361 C331 1.298 . S
C1367 C275 1.288 . S
C1381 C289 1.289 . S
C1387 C303 1.296 . S
C1401 C471 1.291 . S
C1407 C345 1.294 . S
C1421 C485 1.288 . S
C1427 C359 1.298 . S
C1441 C499 1.290 . S
C1447 C373 1.300 . S
C1461 C387 1.289 . S
C1467 C457 1.297 . S
C1481 C401 1.300 . S
C1487 C555 1.290 . S
C1501 C415 1.299 . S
C1507 C513 1.288 . S
C1521 C527 1.299 . S
C1527 C429 1.292 . S
C1541 C541 1.292 . S
C1547 C443 1.299 . S
C1561 C569 1.294 . S
C1567 C597 1.297 . S
C1581 C653 1.290 . S
C1587 C583 1.295 . S
C1601 C667 1.299 . S
C1607 C611 1.292 . S
C1621 C639 1.288 . S
C1627 C625 1.299 . S
C1641 C0 1.426 . S
C1647 C257 1.429 . S
C1661 C14 1.431 . S
C1667 C271 1.419 . S
C1681 C28 1.425 . S
C1687 C285 1.421 . S
C1701 C243 1.423 . S
C1707 C42 1.431 . S
C1721 C56 1.423 . S
C1727 C313 1.429 . S
C1741 C70 1.423 . S
C1747 C229 1.425 . S
C1761 C327 1.419 . S
C1767 C84 1.428 . S
C1781 C299 1.422 . S
C1787 C98 1.424 . S
C1801 C112 1.423 . S
C1807 C131 1.429 . S
C1821 C126 1.431 . S
C1827 C145 1.421 . S
C1841 C140 1.427 . S
C1847 C159 1.419 . S
C1861 C117 1.425 . S
C1867 C154 1.423 . S
C1881 C215 1.428 . S
C1887 C168 1.422 . S
C1901 C173 1.426 . S
C1907 C182 1.429 . S
C1921 C187 1.425 . S
C1927 C196 1.430 . S
C1941 C210 1.423 . S
C1947 C201 1.429 . S
C1961 C47 1.423 . S
C1967 C224 1.431 . S
C1981 C75 1.426 . S
C1987 C238 1.429 . S
C2001 C89 1.425 . S
C2007 C252 1.423 . S
C2021 C266 1.423 . S
C2027 C103 1.429 . S
C2041 C61 1.423 . S
C2047 C280 1.431 . S
C2061 C19 1.420 . S
C2067 C294 1.426 . S
C2081 C33 1.419 . S
C2087 C308 1.431 . S
C2101 C5 1.429 . S
C2107 C322 1.423 . S
C2121 C593 1.428 . S
C2127 C336 1.428 . S
C2141 C350 1.423 . S
C2147 C607 1.426 . S
C2161 C621 1.426 . S
C2167 C364 1.423 . S
C2181 C579 1.425 . S
C2187 C378 1.423 . S
C2201 C392 1.425 . S
C2207 C649 1.430 . S
C2221 C406 1.422 . S
C2227 C565 1.426 . S
C2241 C663 1.427 . S
C2247 C420 1.429 . S
C2261 C434 1.431 . S
C2267 C635 1.419 . S
C2281 C448 1.431 . S
C2287 C467 1.420 . S
C2301 C462 1.426 . S
C2307 C481 1.420 . S
C2321 C476 1.429 . S
C2327 C495 1.419 . S
C2341 C490 1.425 . S
C2347 C453 1.421 . S
C2361 C551 1.429 . S
C2367 C504 1.427 . S
C2381 C509 1.420 . S
C2387 C518 1.426 . S
C2401 C523 1.430 . S
C2407 C532 1.425 . S
C2421 C546 1.422 . S
C2427 C537 1.427 . S
C2441 C383 1.430 . S
C2447 C560 1.426 . S
C2461 C411 1.420 . S
C2467 C574 1.427 . S
C2481 C425 1.421 . S
C2487 C588 1.431 . S
C2501 C602 1.424 . S
C2507 C439 1.430 . S
C2521 C397 1.421 . S
C2527 C616 1.431 . S
C2541 C355 1.423 . S
C2547 C630 1.431 . S
C2561 C644 1.429 . S
C2567 C369 1.419 . S
C2581 C341 1.419 . S
C2587 C658 1.428 . S
