# Generated by pormake.
# Topology umb, (4)-cn, num edge types: 1
# Building blocks:
#     Node 0, Type 0, BuildingBlock: CEKHIL_clean_sbu_0, # of connection points: 4
#     Node 1, Type 0, BuildingBlock: CEKHIL_clean_sbu_0, # of connection points: 4
#     Node 2, Type 0, BuildingBlock: CEKHIL_clean_sbu_0, # of connection points: 4
#     Node 3, Type 0, BuildingBlock: CEKHIL_clean_sbu_0, # of connection points: 4
#     Node 4, Type 0, BuildingBlock: CEKHIL_clean_sbu_0, # of connection points: 4
#     Node 5, Type 0, BuildingBlock: CEKHIL_clean_sbu_0, # of connection points: 4
#     Node 6, Type 0, BuildingBlock: CEKHIL_clean_sbu_0, # of connection points: 4
#     Node 7, Type 0, BuildingBlock: CEKHIL_clean_sbu_0, # of connection points: 4
#     Node 8, Type 0, BuildingBlock: CEKHIL_clean_sbu_0, # of connection points: 4
#     Node 9, Type 0, BuildingBlock: CEKHIL_clean_sbu_0, # of connection points: 4
#     Node 10, Type 0, BuildingBlock: CEKHIL_clean_sbu_0, # of connection points: 4
#     Node 11, Type 0, BuildingBlock: CEKHIL_clean_sbu_0, # of connection points: 4
#     Edge 12, Type (0, 0), BuildingBlock: TEMPAE_clean_linker_10, # of connection points: 2
#     Edge 13, Type (0, 0), BuildingBlock: TEMPAE_clean_linker_10, # of connection points: 2
#     Edge 14, Type (0, 0), BuildingBlock: TEMPAE_clean_linker_10, # of connection points: 2
#     Edge 15, Type (0, 0), BuildingBlock: TEMPAE_clean_linker_10, # of connection points: 2
#     Edge 16, Type (0, 0), BuildingBlock: TEMPAE_clean_linker_10, # of connection points: 2
#     Edge 17, Type (0, 0), BuildingBlock: TEMPAE_clean_linker_10, # of connection points: 2
#     Edge 18, Type (0, 0), BuildingBlock: TEMPAE_clean_linker_10, # of connection points: 2
#     Edge 19, Type (0, 0), BuildingBlock: TEMPAE_clean_linker_10, # of connection points: 2
#     Edge 20, Type (0, 0), BuildingBlock: TEMPAE_clean_linker_10, # of connection points: 2
#     Edge 21, Type (0, 0), BuildingBlock: TEMPAE_clean_linker_10, # of connection points: 2
#     Edge 22, Type (0, 0), BuildingBlock: TEMPAE_clean_linker_10, # of connection points: 2
#     Edge 23, Type (0, 0), BuildingBlock: TEMPAE_clean_linker_10, # of connection points: 2
#     Edge 24, Type (0, 0), BuildingBlock: TEMPAE_clean_linker_10, # of connection points: 2
#     Edge 25, Type (0, 0), BuildingBlock: TEMPAE_clean_linker_10, # of connection points: 2
#     Edge 26, Type (0, 0), BuildingBlock: TEMPAE_clean_linker_10, # of connection points: 2
#     Edge 27, Type (0, 0), BuildingBlock: TEMPAE_clean_linker_10, # of connection points: 2
#     Edge 28, Type (0, 0), BuildingBlock: TEMPAE_clean_linker_10, # of connection points: 2
#     Edge 29, Type (0, 0), BuildingBlock: TEMPAE_clean_linker_10, # of connection points: 2
#     Edge 30, Type (0, 0), BuildingBlock: TEMPAE_clean_linker_10, # of connection points: 2
#     Edge 31, Type (0, 0), BuildingBlock: TEMPAE_clean_linker_10, # of connection points: 2
#     Edge 32, Type (0, 0), BuildingBlock: TEMPAE_clean_linker_10, # of connection points: 2
#     Edge 33, Type (0, 0), BuildingBlock: TEMPAE_clean_linker_10, # of connection points: 2
#     Edge 34, Type (0, 0), BuildingBlock: TEMPAE_clean_linker_10, # of connection points: 2
#     Edge 35, Type (0, 0), BuildingBlock: TEMPAE_clean_linker_10, # of connection points: 2
# Relax obj value: 0.273
# Max RMSD: 0.248
# Mean RMSD: 0.248
data_MOF--net-umb--node1-CEKHIL_clean_sbu_0--edge1-TEMPAE_clean_linker_10
_symmetry_space_group_name_H-M    P1
_symmetry_Int_Tables_number       1
_symmetry_cell_setting            triclinic
loop_
_symmetry_equiv_pos_as_xyz
'x, y, z'
_cell_length_a     47.656774
_cell_length_b     47.631076
_cell_length_c     36.837006
_cell_angle_alpha  89.992515
_cell_angle_beta   90.079306
_cell_angle_gamma 119.95812
loop_
_atom_site_label
_atom_site_type_symbol
_atom_site_fract_x
_atom_site_fract_y
_atom_site_fract_z
_atom_type_partial_charge
Co0 Co 0.51236 0.15296 0.33177 0.0
O1 O 0.48896 0.1076 0.32114 0.0
O2 O 0.54235 0.13715 0.32861 0.0
C3 C 0.48863 0.16895 0.28953 0.0
O4 O 0.54477 0.20013 0.34124 0.0
Co5 Co 0.47746 0.18449 0.3661 0.0
O6 O 0.51817 0.22554 0.35929 0.0
C7 C 0.5032 0.15408 0.41459 0.0
C8 C 0.51691 0.10912 0.32227 0.0
C9 C 0.54404 0.22572 0.35057 0.0
O10 O 0.5099 0.14371 0.38563 0.0
O11 O 0.48938 0.17121 0.41342 0.0
O12 O 0.51168 0.16315 0.28142 0.0
O13 O 0.47699 0.16065 0.32238 0.0
Co14 Co 0.3549 0.52083 0.65593 0.0
O15 O 0.3618 0.48444 0.65848 0.0
O16 O 0.40002 0.53574 0.64942 0.0
C17 C 0.31248 0.49923 0.61769 0.0
O18 O 0.3574 0.56432 0.65141 0.0
Co19 Co 0.29282 0.51636 0.68647 0.0
O20 O 0.30811 0.55809 0.66081 0.0
C21 C 0.34705 0.53172 0.73649 0.0
C22 C 0.39212 0.50553 0.65302 0.0
C23 C 0.33777 0.57537 0.65193 0.0
O24 O 0.36236 0.52835 0.7097 0.0
O25 O 0.31812 0.52673 0.7335 0.0
O26 O 0.34184 0.51173 0.60566 0.0
O27 O 0.3091 0.49646 0.65273 0.0
Co28 Co 0.83191 0.35836 0.99889 0.0
O29 O 0.8776 0.37847 0.9916 0.0
O30 O 0.84974 0.40444 0.99433 0.0
C31 C 0.81568 0.31796 0.95743 0.0
O32 O 0.78492 0.34536 1.00573 0.0
Co33 Co 0.79821 0.2915 0.03418 0.0
O34 O 0.75878 0.29436 0.02751 0.0
C35 C 0.82832 0.34818 0.08214 0.0
C36 C 0.87752 0.4057 0.99118 0.0
C37 C 0.75929 0.32003 0.01693 0.0
O38 O 0.83874 0.36516 0.05311 0.0
O39 O 0.81168 0.31718 0.08119 0.0
O40 O 0.8236 0.34721 0.94815 0.0
O41 O 0.82261 0.31473 0.99095 0.0
Co42 Co 0.46848 0.83359 0.32841 0.0
O43 O 0.50485 0.87684 0.33044 0.0
O44 O 0.45307 0.86383 0.32801 0.0
C45 C 0.48781 0.81439 0.28521 0.0
O46 O 0.42491 0.79246 0.32479 0.0
Co47 Co 0.47467 0.7755 0.35264 0.0
O48 O 0.43346 0.75027 0.32569 0.0
C49 C 0.46027 0.81132 0.40764 0.0
C50 C 0.48343 0.88609 0.32957 0.0
C51 C 0.41499 0.76213 0.32106 0.0
O52 O 0.46418 0.83171 0.38265 0.0
O53 O 0.46419 0.78697 0.40187 0.0
O54 O 0.47469 0.83174 0.27697 0.0
O55 O 0.49267 0.81247 0.31969 0.0
Co56 Co 0.62768 0.46916 0.65861 0.0
O57 O 0.60905 0.49634 0.66452 0.0
O58 O 0.58175 0.44383 0.65087 0.0
C59 C 0.66947 0.50108 0.62158 0.0
O60 O 0.63921 0.43427 0.64931 0.0
Co61 Co 0.69318 0.49034 0.69395 0.0
O62 O 0.69225 0.45673 0.66159 0.0
C63 C 0.63613 0.46009 0.74081 0.0
C64 C 0.58151 0.47049 0.65762 0.0
C65 C 0.66604 0.434 0.64826 0.0
O66 O 0.61979 0.45706 0.71188 0.0
O67 O 0.66712 0.47438 0.74049 0.0
O68 O 0.64016 0.48396 0.6094 0.0
O69 O 0.67187 0.50279 0.65697 0.0
Co70 Co 0.15098 0.63433 0.99118 0.0
O71 O 0.10849 0.62921 0.99586 0.0
O72 O 0.11932 0.58954 0.98531 0.0
C73 C 0.17216 0.67626 0.95233 0.0
O74 O 0.19088 0.63022 0.98426 0.0
Co75 Co 0.21096 0.69571 0.01969 0.0
O76 O 0.23442 0.67992 0.98906 0.0
C77 C 0.17307 0.64209 0.07066 0.0
C78 C 0.09805 0.5987 0.98985 0.0
C79 C 0.22139 0.64995 0.98119 0.0
O80 O 0.15288 0.62715 0.04481 0.0
O81 O 0.19757 0.67058 0.06681 0.0
O82 O 0.15339 0.64693 0.94098 0.0
O83 O 0.17389 0.68014 0.98736 0.0
Co84 Co 0.82746 0.46246 0.39129 0.0
O85 O 0.87288 0.48545 0.40164 0.0
O86 O 0.84253 0.43195 0.3955 0.0
C87 C 0.8113 0.48701 0.43183 0.0
O88 O 0.78012 0.43059 0.38235 0.0
Co89 Co 0.79684 0.49776 0.35495 0.0
O90 O 0.75557 0.45879 0.36756 0.0
C91 C 0.8268 0.47056 0.30802 0.0
C92 C 0.87087 0.45725 0.40094 0.0
C93 C 0.75461 0.43238 0.37571 0.0
O94 O 0.83641 0.46363 0.33746 0.0
O95 O 0.81044 0.48522 0.30834 0.0
O96 O 0.81722 0.46432 0.44147 0.0
O97 O 0.82036 0.4982 0.39896 0.0
Co98 Co 0.35847 0.84289 0.71199 0.0
O99 O 0.36114 0.88445 0.711 0.0
O100 O 0.40319 0.87634 0.71056 0.0
C101 C 0.32186 0.82164 0.75723 0.0
O102 O 0.36529 0.80421 0.71364 0.0
Co103 Co 0.29551 0.78074 0.69213 0.0
O104 O 0.31662 0.75926 0.71699 0.0
C105 C 0.34327 0.81741 0.63467 0.0
C106 C 0.3923 0.89653 0.71074 0.0
C107 C 0.34739 0.77353 0.71815 0.0
O108 O 0.35866 0.84052 0.65753 0.0
O109 O 0.31685 0.79153 0.64269 0.0
O110 O 0.35238 0.84064 0.76403 0.0
O111 O 0.31368 0.81877 0.72318 0.0
Co112 Co 0.51401 0.35428 0.05082 0.0
O113 O 0.48813 0.37433 0.05704 0.0
O114 O 0.54192 0.40042 0.05345 0.0
C115 C 0.49055 0.31499 0.0933 0.0
O116 O 0.54853 0.34177 0.0462 0.0
Co117 Co 0.48381 0.28658 0.01868 0.0
O118 O 0.52383 0.28825 0.03577 0.0
C119 C 0.5102 0.34161 0.9683 0.0
C120 C 0.51538 0.40157 0.05691 0.0
C121 C 0.54902 0.3152 0.04286 0.0
O122 O 0.51413 0.35937 0.99621 0.0
O123 O 0.49761 0.31083 0.97085 0.0
O124 O 0.51133 0.34463 0.10191 0.0
O125 O 0.4802 0.31069 0.05978 0.0
Co126 Co 0.14627 0.50907 0.37322 0.0
O127 O 0.1033 0.47219 0.37355 0.0
O128 O 0.11541 0.52374 0.37281 0.0
C129 C 0.16652 0.49185 0.4177 0.0
O130 O 0.18693 0.55318 0.37378 0.0
Co131 Co 0.20492 0.50323 0.35055 0.0
O132 O 0.23009 0.5462 0.37392 0.0
C133 C 0.16826 0.51593 0.29454 0.0
C134 C 0.09351 0.49321 0.37349 0.0
C135 C 0.21751 0.5642 0.37659 0.0
O136 O 0.14692 0.5108 0.31879 0.0
O137 O 0.19332 0.51344 0.30122 0.0
O138 O 0.14939 0.50537 0.42502 0.0
O139 O 0.16815 0.48581 0.38355 0.0
Co140 Co 0.61926 0.16306 0.72148 0.0
O141 O 0.5956 0.1201 0.74082 0.0
O142 O 0.57407 0.15014 0.72416 0.0
C143 C 0.66042 0.18379 0.7625 0.0
O144 O 0.63567 0.20822 0.70167 0.0
Co145 Co 0.68383 0.18547 0.68605 0.0
O146 O 0.68388 0.22583 0.67472 0.0
C147 C 0.62592 0.1535 0.64036 0.0
C148 C 0.56996 0.12266 0.73618 0.0
C149 C 0.66015 0.22941 0.68367 0.0
O150 O 0.60998 0.14543 0.6702 0.0
O151 O 0.65687 0.16989 0.64008 0.0
O152 O 0.63259 0.18128 0.76929 0.0
O153 O 0.66168 0.16945 0.7328 0.0
Co154 Co 0.47188 0.63254 0.04177 0.0
O155 O 0.50683 0.62369 0.04685 0.0
O156 O 0.45471 0.58662 0.04083 0.0
C157 C 0.48695 0.66928 0.08664 0.0
O158 O 0.42923 0.63175 0.03703 0.0
Co159 Co 0.48324 0.69892 0.01791 0.0
O160 O 0.43847 0.68272 0.03535 0.0
C161 C 0.47148 0.64948 0.96238 0.0
C162 C 0.48456 0.59338 0.04458 0.0
C163 C 0.41931 0.65229 0.03732 0.0
O164 O 0.47471 0.63256 0.98741 0.0
O165 O 0.47456 0.67735 0.96859 0.0
O166 O 0.47125 0.63847 0.09356 0.0
O167 O 0.49646 0.67735 0.05329 0.0
C168 C 0.52282 0.17025 0.47919 0.0
C169 C 0.51579 0.1489 0.44984 0.0
C170 C 0.53987 0.16898 0.51001 0.0
C171 C 0.54991 0.14551 0.51202 0.0
C172 C 0.54171 0.12306 0.48313 0.0
C173 C 0.52505 0.12515 0.45249 0.0
C174 C 0.54823 0.19362 0.53988 0.0
C175 C 0.55141 0.09735 0.48404 0.0
C176 C 0.62227 0.16441 0.57375 0.0
C177 C 0.60711 0.14744 0.60568 0.0
C178 C 0.60406 0.16348 0.54299 0.0
C179 C 0.5697 0.14504 0.5438 0.0
C180 C 0.55433 0.12683 0.57539 0.0
C181 C 0.57309 0.12829 0.60577 0.0
C182 C 0.62162 0.18332 0.51006 0.0
C183 C 0.5179 0.10662 0.57764 0.0
H184 H 0.51633 0.18902 0.47739 0.0
H185 H 0.51991 0.10851 0.43007 0.0
H186 H 0.53929 0.18121 0.56634 0.0
H187 H 0.57494 0.209 0.54211 0.0
H188 H 0.53777 0.20955 0.53501 0.0
H189 H 0.54189 0.08072 0.46036 0.0
H190 H 0.5782 0.10897 0.48425 0.0
H191 H 0.5424 0.08285 0.50929 0.0
H192 H 0.64839 0.17963 0.57327 0.0
H193 H 0.56088 0.11511 0.63014 0.0
H194 H 0.61516 0.20245 0.50569 0.0
H195 H 0.61403 0.16781 0.48546 0.0
H196 H 0.64835 0.19506 0.51287 0.0
H197 H 0.50723 0.12264 0.57653 0.0
H198 H 0.50971 0.09215 0.60304 0.0
H199 H 0.50825 0.0899 0.55411 0.0
C200 C 0.35053 0.54954 0.80177 0.0
C201 C 0.36552 0.54576 0.77081 0.0
C202 C 0.3688 0.56626 0.83261 0.0
C203 C 0.40294 0.58001 0.83235 0.0
C204 C 0.41811 0.57581 0.80149 0.0
C205 C 0.39928 0.55859 0.77137 0.0
C206 C 0.35161 0.56967 0.86528 0.0
C207 C 0.45442 0.59031 0.79987 0.0
C208 C 0.45205 0.64932 0.89855 0.0
C209 C 0.4585 0.63338 0.92664 0.0
C210 C 0.43459 0.63243 0.86739 0.0
C211 C 0.42287 0.59868 0.86437 0.0
C212 C 0.43011 0.58268 0.89205 0.0
C213 C 0.44802 0.60021 0.92254 0.0
C214 C 0.42793 0.65054 0.83811 0.0
C215 C 0.41786 0.54671 0.89018 0.0
H216 H 0.32456 0.53987 0.80173 0.0
H217 H 0.41134 0.55617 0.74765 0.0
H218 H 0.35775 0.56037 0.88989 0.0
H219 H 0.35986 0.59563 0.87016 0.0
H220 H 0.32488 0.55642 0.86187 0.0
H221 H 0.46249 0.58462 0.77401 0.0
H222 H 0.46644 0.61703 0.80279 0.0
H223 H 0.46281 0.58117 0.82272 0.0
H224 H 0.45979 0.67482 0.90136 0.0
H225 H 0.45252 0.58737 0.944 0.0
H226 H 0.4015 0.64123 0.83616 0.0
H227 H 0.43599 0.64646 0.81137 0.0
H228 H 0.44031 0.67702 0.84343 0.0
H229 H 0.39099 0.53325 0.88975 0.0
H230 H 0.42618 0.53799 0.91355 0.0
H231 H 0.42613 0.54068 0.86474 0.0
C232 C 0.85302 0.44462 0.27232 0.0
C233 C 0.83197 0.45737 0.27321 0.0
C234 C 0.85472 0.42758 0.24187 0.0
C235 C 0.83476 0.42274 0.21124 0.0
C236 C 0.81422 0.43641 0.21143 0.0
C237 C 0.81316 0.45358 0.24222 0.0
C238 C 0.8773 0.41394 0.24298 0.0
C239 C 0.7925 0.43196 0.17949 0.0
C240 C 0.85475 0.39965 0.11911 0.0
C241 C 0.8329 0.36608 0.11719 0.0
C242 C 0.8561 0.41813 0.14967 0.0
C243 C 0.83494 0.40297 0.17934 0.0
C244 C 0.81351 0.36894 0.17812 0.0
C245 C 0.81283 0.35096 0.14727 0.0
C246 C 0.87961 0.45415 0.1497 0.0
C247 C 0.79046 0.35165 0.20898 0.0
H248 H 0.86775 0.44727 0.29593 0.0
H249 H 0.79656 0.46291 0.24251 0.0
H250 H 0.86303 0.38709 0.24192 0.0
H251 H 0.89343 0.42216 0.21892 0.0
H252 H 0.89251 0.42126 0.26789 0.0
H253 H 0.77874 0.44492 0.18318 0.0
H254 H 0.80706 0.44088 0.1543 0.0
H255 H 0.77501 0.40579 0.17555 0.0
H256 H 0.87043 0.41178 0.0962 0.0
H257 H 0.79558 0.32521 0.14613 0.0
H258 H 0.8949 0.46115 0.17448 0.0
H259 H 0.86607 0.46749 0.15016 0.0
H260 H 0.89566 0.46205 0.12552 0.0
H261 H 0.80404 0.35647 0.23486 0.0
H262 H 0.77615 0.32503 0.20465 0.0
H263 H 0.77345 0.36104 0.21203 0.0
C264 C 0.43425 0.8358 0.44527 0.0
C265 C 0.44649 0.8144 0.44282 0.0
C266 C 0.41712 0.83644 0.4759 0.0
C267 C 0.41252 0.8157 0.50552 0.0
C268 C 0.42566 0.79476 0.50394 0.0
C269 C 0.44219 0.7941 0.47247 0.0
C270 C 0.40319 0.85882 0.47611 0.0
C271 C 0.42196 0.77282 0.53537 0.0
C272 C 0.39324 0.84033 0.59632 0.0
C273 C 0.35974 0.81889 0.59973 0.0
C274 C 0.41067 0.83912 0.56623 0.0
C275 C 0.39427 0.8164 0.5382 0.0
C276 C 0.36034 0.79526 0.54086 0.0
C277 C 0.34355 0.7965 0.57175 0.0
C278 C 0.44685 0.86176 0.56484 0.0
C279 C 0.34181 0.77115 0.51118 0.0
H280 H 0.437 0.85147 0.42259 0.0
H281 H 0.45136 0.77739 0.47094 0.0
H282 H 0.37651 0.84449 0.47948 0.0
H283 H 0.41299 0.87577 0.49943 0.0
H284 H 0.40865 0.87326 0.45075 0.0
H285 H 0.43454 0.75885 0.53053 0.0
H286 H 0.43181 0.78735 0.56051 0.0
H287 H 0.39592 0.75552 0.54024 0.0
H288 H 0.40627 0.85739 0.61793 0.0
H289 H 0.3178 0.77965 0.57416 0.0
H290 H 0.45331 0.87738 0.54041 0.0
H291 H 0.45945 0.84754 0.56266 0.0
H292 H 0.45612 0.87756 0.58921 0.0
H293 H 0.34557 0.78393 0.48489 0.0
H294 H 0.31541 0.75702 0.51682 0.0
H295 H 0.35102 0.75402 0.50801 0.0
C296 C 0.53735 0.39216 0.92971 0.0
C297 C 0.52456 0.35847 0.93295 0.0
C298 C 0.55513 0.40944 0.89888 0.0
C299 C 0.56057 0.3929 0.87019 0.0
C300 C 0.54702 0.3588 0.87276 0.0
C301 C 0.52921 0.34206 0.90392 0.0
C302 C 0.56873 0.44564 0.89743 0.0
C303 C 0.55205 0.34005 0.84293 0.0
C304 C 0.5838 0.43226 0.7761 0.0
C305 C 0.61754 0.44477 0.77502 0.0
C306 C 0.56521 0.41574 0.80678 0.0
C307 C 0.58039 0.41125 0.83756 0.0
C308 C 0.61448 0.42421 0.83698 0.0
C309 C 0.63259 0.44082 0.80589 0.0
C310 C 0.5291 0.40273 0.80604 0.0
C311 C 0.6318 0.42011 0.86908 0.0
H312 H 0.53416 0.40534 0.95179 0.0
H313 H 0.51987 0.31619 0.906 0.0
H314 H 0.59555 0.45817 0.89614 0.0
H315 H 0.56023 0.45222 0.8725 0.0
H316 H 0.56164 0.45485 0.92139 0.0
H317 H 0.53938 0.3136 0.84847 0.0
H318 H 0.54318 0.34414 0.8167 0.0
H319 H 0.5783 0.34884 0.83973 0.0
H320 H 0.57167 0.43512 0.75267 0.0
H321 H 0.6585 0.45013 0.80555 0.0
H322 H 0.52193 0.41262 0.82923 0.0
H323 H 0.51608 0.37598 0.80903 0.0
H324 H 0.521 0.40889 0.78047 0.0
H325 H 0.6272 0.43049 0.89379 0.0
H326 H 0.65838 0.43197 0.86478 0.0
H327 H 0.62227 0.39394 0.87432 0.0
C328 C 0.14427 0.54217 0.25633 0.0
C329 C 0.16576 0.53009 0.25935 0.0
C330 C 0.14477 0.56038 0.22612 0.0
C331 C 0.16681 0.56625 0.19753 0.0
C332 C 0.18773 0.55311 0.19958 0.0
C333 C 0.1872 0.53549 0.23061 0.0
C334 C 0.12239 0.5743 0.22541 0.0
C335 C 0.21111 0.55822 0.1693 0.0
C336 C 0.14786 0.59007 0.10592 0.0
C337 C 0.16963 0.62365 0.10474 0.0
C338 C 0.14692 0.57119 0.1357 0.0
C339 C 0.16785 0.58614 0.16558 0.0
C340 C 0.18924 0.62013 0.16519 0.0
C341 C 0.19006 0.63842 0.1347 0.0
C342 C 0.12393 0.53504 0.13481 0.0
C343 C 0.21151 0.63713 0.19685 0.0
H344 H 0.12778 0.53862 0.27838 0.0
H345 H 0.20401 0.52648 0.23262 0.0
H346 H 0.13686 0.60114 0.22423 0.0
H347 H 0.10697 0.56604 0.20075 0.0
H348 H 0.10643 0.56725 0.24963 0.0
H349 H 0.22445 0.54496 0.17403 0.0
H350 H 0.19793 0.55006 0.1431 0.0
H351 H 0.22895 0.58441 0.16659 0.0
H352 H 0.1321 0.57816 0.08295 0.0
H353 H 0.20704 0.66425 0.13417 0.0
H354 H 0.10715 0.52763 0.15825 0.0
H355 H 0.13778 0.52207 0.13722 0.0
H356 H 0.10937 0.52706 0.10944 0.0
H357 H 0.22597 0.66378 0.1929 0.0
H358 H 0.22838 0.62768 0.20079 0.0
H359 H 0.19721 0.63212 0.22219 0.0
C360 C 0.71915 0.37436 0.39196 0.0
C361 C 0.72316 0.40236 0.37477 0.0
C362 C 0.68985 0.34514 0.3892 0.0
C363 C 0.66441 0.34406 0.36833 0.0
C364 C 0.66817 0.37231 0.3513 0.0
C365 C 0.6975 0.40127 0.35498 0.0
C366 C 0.6862 0.31542 0.40827 0.0
C367 C 0.64149 0.3718 0.32857 0.0
C368 C 0.60049 0.26334 0.33102 0.0
C369 C 0.57467 0.25609 0.35442 0.0
C370 C 0.63004 0.2921 0.3352 0.0
C371 C 0.63376 0.31333 0.36404 0.0
C372 C 0.60791 0.30575 0.38816 0.0
C373 C 0.57842 0.27731 0.38273 0.0
C374 C 0.65707 0.29997 0.3086 0.0
C375 C 0.61144 0.3276 0.41967 0.0
H376 H 0.73893 0.37526 0.40748 0.0
H377 H 0.70061 0.42285 0.34143 0.0
H378 H 0.66486 0.30526 0.42653 0.0
H379 H 0.6819 0.29642 0.38804 0.0
H380 H 0.70795 0.32072 0.42454 0.0
H381 H 0.64846 0.39597 0.31705 0.0
H382 H 0.63516 0.35431 0.30588 0.0
H383 H 0.61936 0.36355 0.34519 0.0
H384 H 0.59737 0.24677 0.30916 0.0
H385 H 0.55849 0.27126 0.40119 0.0
H386 H 0.67882 0.30311 0.32321 0.0
H387 H 0.66399 0.32322 0.29473 0.0
H388 H 0.65015 0.2808 0.2877 0.0
H389 H 0.63229 0.33176 0.43689 0.0
H390 H 0.58937 0.31732 0.43686 0.0
H391 H 0.61646 0.35157 0.40945 0.0
C392 C 0.34925 0.72381 0.73274 0.0
C393 C 0.36197 0.753 0.71373 0.0
C394 C 0.35442 0.69897 0.72044 0.0
C395 C 0.37176 0.70328 0.68772 0.0
C396 C 0.38733 0.73388 0.67049 0.0
C397 C 0.38253 0.75865 0.68405 0.0
C398 C 0.33839 0.66699 0.74036 0.0
C399 C 0.40586 0.73948 0.63551 0.0
C400 C 0.38124 0.63105 0.66685 0.0
C401 C 0.35124 0.61062 0.65033 0.0
C402 C 0.38995 0.66282 0.6766 0.0
C403 C 0.36837 0.67429 0.6689 0.0
C404 C 0.34008 0.65507 0.64806 0.0
C405 C 0.33162 0.6232 0.63939 0.0
C406 C 0.42039 0.6826 0.69854 0.0
C407 C 0.31703 0.66695 0.63811 0.0
H408 H 0.33336 0.7196 0.75567 0.0
H409 H 0.39203 0.78118 0.66905 0.0
H410 H 0.317 0.64902 0.72469 0.0
H411 H 0.35526 0.65741 0.74305 0.0
H412 H 0.33015 0.66917 0.76788 0.0
H413 H 0.42311 0.76567 0.63105 0.0
H414 H 0.41939 0.72614 0.63514 0.0
H415 H 0.38852 0.73056 0.61247 0.0
H416 H 0.39647 0.62132 0.67541 0.0
H417 H 0.30863 0.60745 0.62622 0.0
H418 H 0.41399 0.68061 0.72776 0.0
H419 H 0.43238 0.7086 0.69105 0.0
H420 H 0.43787 0.67383 0.6949 0.0
H421 H 0.30376 0.66722 0.66272 0.0
H422 H 0.29901 0.6512 0.61744 0.0
H423 H 0.3305 0.69206 0.62744 0.0
C424 C 0.608 0.34386 0.05691 0.0
C425 C 0.5804 0.31647 0.04341 0.0
C426 C 0.6385 0.34651 0.05426 0.0
C427 C 0.64119 0.32135 0.03731 0.0
C428 C 0.61338 0.29338 0.02432 0.0
C429 C 0.58321 0.29115 0.02782 0.0
C430 C 0.66781 0.37628 0.06912 0.0
C431 C 0.61555 0.26612 1.00602 0.0
C432 C 0.72033 0.33706 0.9966 0.0
C433 C 0.72987 0.32173 0.02207 0.0
C434 C 0.69164 0.33787 1.00162 0.0
C435 C 0.67303 0.32382 0.0333 0.0
C436 C 0.6835 0.30969 0.05985 0.0
C437 C 0.71168 0.30845 0.05365 0.0
C438 C 0.68064 0.35262 0.97257 0.0
C439 C 0.66454 0.29517 0.09431 0.0
H440 H 0.60582 0.36337 0.0692 0.0
H441 H 0.56195 0.26999 0.01717 0.0
H442 H 0.68082 0.36915 0.08873 0.0
H443 H 0.6849 0.38961 0.04676 0.0
H444 H 0.66128 0.39298 0.08291 0.0
H445 H 0.59152 0.24622 0.99704 0.0
H446 H 0.63167 0.27552 0.982 0.0
H447 H 0.62632 0.25591 0.02487 0.0
H448 H 0.73474 0.34746 0.97236 0.0
H449 H 0.71971 0.29729 0.07371 0.0
H450 H 0.67595 0.37125 0.98452 0.0
H451 H 0.65753 0.3336 0.96055 0.0
H452 H 0.69875 0.36394 0.95049 0.0
H453 H 0.65907 0.31266 0.10792 0.0
H454 H 0.67778 0.28808 0.11371 0.0
H455 H 0.64106 0.27334 0.08767 0.0
C456 C 0.3686 0.70867 0.30384 0.0
C457 C 0.38 0.73924 0.31947 0.0
C458 C 0.3373 0.68338 0.31124 0.0
C459 C 0.31745 0.6888 0.3355 0.0
C460 C 0.32768 0.72042 0.34839 0.0
C461 C 0.35889 0.74549 0.33988 0.0
C462 C 0.32679 0.65015 0.29593 0.0
C463 C 0.30718 0.72714 0.37423 0.0
C464 C 0.23355 0.61649 0.34667 0.0
C465 C 0.23947 0.59922 0.37354 0.0
C466 C 0.25822 0.64698 0.33526 0.0
C467 C 0.28904 0.66053 0.35188 0.0
C468 C 0.29397 0.64453 0.38157 0.0
C469 C 0.26919 0.6137 0.39166 0.0
C470 C 0.25212 0.66296 0.3032 0.0
C471 C 0.32629 0.65866 0.40068 0.0
H472 H 0.38489 0.70402 0.28773 0.0
H473 H 0.36774 0.76915 0.35211 0.0
H474 H 0.32767 0.63447 0.31766 0.0
H475 H 0.30147 0.63862 0.28589 0.0
H476 H 0.34267 0.65111 0.27334 0.0
H477 H 0.31539 0.75343 0.37579 0.0
H478 H 0.28132 0.71382 0.36605 0.0
H479 H 0.30891 0.71871 0.4018 0.0
H480 H 0.21062 0.60495 0.33225 0.0
H481 H 0.27362 0.60018 0.41237 0.0
H482 H 0.26216 0.6581 0.27837 0.0
H483 H 0.26429 0.68962 0.30676 0.0
H484 H 0.22581 0.6534 0.29875 0.0
H485 H 0.34418 0.65749 0.38242 0.0
H486 H 0.32478 0.64537 0.42606 0.0
H487 H 0.33554 0.68452 0.40745 0.0
C488 C 0.69436 0.40275 0.63908 0.0
C489 C 0.66592 0.40448 0.63613 0.0
C490 C 0.69315 0.37288 0.63833 0.0
C491 C 0.66291 0.34438 0.63352 0.0
C492 C 0.63508 0.34645 0.62494 0.0
C493 C 0.63681 0.37663 0.62668 0.0
C494 C 0.72348 0.37167 0.64732 0.0
C495 C 0.60281 0.31653 0.6177 0.0
C496 C 0.66674 0.26713 0.63406 0.0
C497 C 0.65967 0.25801 0.67052 0.0
C498 C 0.66601 0.29428 0.62078 0.0
C499 C 0.65938 0.31316 0.64509 0.0
C500 C 0.65175 0.30362 0.6819 0.0
C501 C 0.65141 0.27567 0.69402 0.0
C502 C 0.67299 0.303 0.58113 0.0
C503 C 0.64501 0.32349 0.7088 0.0
H504 H 0.71721 0.42436 0.64515 0.0
H505 H 0.6149 0.37794 0.62321 0.0
H506 H 0.72173 0.36269 0.6755 0.0
H507 H 0.72618 0.35472 0.62902 0.0
H508 H 0.74561 0.3959 0.64527 0.0
H509 H 0.58597 0.32252 0.60329 0.0
H510 H 0.60585 0.29868 0.60132 0.0
H511 H 0.59153 0.30485 0.64388 0.0
H512 H 0.67242 0.25276 0.61586 0.0
H513 H 0.64576 0.26818 0.72212 0.0
H514 H 0.69834 0.32294 0.57799 0.0
H515 H 0.65693 0.31158 0.57004 0.0
H516 H 0.6699 0.28209 0.56466 0.0
H517 H 0.66628 0.3483 0.71065 0.0
H518 H 0.6396 0.31263 0.73638 0.0
H519 H 0.62412 0.32582 0.69952 0.0
C520 C 0.27265 0.65477 0.95931 0.0
C521 C 0.24314 0.63674 0.97733 0.0
C522 C 0.29822 0.64893 0.96582 0.0
C523 C 0.29418 0.62529 0.99183 0.0
C524 C 0.26328 0.60458 1.00682 0.0
C525 C 0.23783 0.61034 0.99897 0.0
C526 C 0.33053 0.67059 0.94809 0.0
C527 C 0.25802 0.57911 0.0346 0.0
C528 C 0.36748 0.6157 1.00649 0.0
C529 C 0.38471 0.64035 0.03195 0.0
C530 C 0.33694 0.60909 0.99423 0.0
C531 C 0.32332 0.62716 1.00851 0.0
C532 C 0.33951 0.65011 0.03654 0.0
C533 C 0.37035 0.65681 0.04752 0.0
C534 C 0.32075 0.58486 0.96396 0.0
C535 C 0.32528 0.66921 0.05323 0.0
H536 H 0.27649 0.67499 0.9423 0.0
H537 H 0.21494 0.59647 0.01303 0.0
H538 H 0.34695 0.68908 0.96793 0.0
H539 H 0.34206 0.65639 0.93951 0.0
H540 H 0.32814 0.68335 0.92406 0.0
H541 H 0.23193 0.56086 0.03759 0.0
H542 H 0.27148 0.5665 0.02729 0.0
H543 H 0.26721 0.59096 0.06133 0.0
H544 H 0.37891 0.60329 0.99408 0.0
H545 H 0.38381 0.6758 0.06724 0.0
H546 H 0.32534 0.59801 0.93782 0.0
H547 H 0.29415 0.57057 0.96785 0.0
H548 H 0.33038 0.56795 0.9618 0.0
H549 H 0.32538 0.68648 0.03293 0.0
H550 H 0.33914 0.6832 0.07744 0.0
H551 H 0.29977 0.65279 0.06135 0.0
C552 C 0.53873 0.07444 0.34352 0.0
C553 C 0.51886 0.07953 0.31962 0.0
C554 C 0.53658 0.04405 0.34561 0.0
C555 C 0.51478 0.01882 0.32241 0.0
C556 C 0.49625 0.02466 0.29661 0.0
C557 C 0.4981 0.05489 0.296 0.0
C558 C 0.55594 0.03836 0.37417 0.0
C559 C 0.47336 -0.00144 0.2708 0.0
C560 C 0.51999 0.94271 0.30991 0.0
C561 C 0.49311 0.92044 0.32996 0.0
C562 C 0.52787 0.97521 0.30768 0.0
C563 C 0.50901 0.98553 0.32705 0.0
C564 C 0.48285 0.96332 0.34889 0.0
C565 C 0.47481 0.93078 0.34949 0.0
C566 C 0.55527 -0.00195 0.28331 0.0
C567 C 0.46284 0.97371 0.37084 0.0
H568 H 0.55441 0.09356 0.36212 0.0
H569 H 0.48284 0.05909 0.27752 0.0
H570 H 0.53926 0.02141 0.39498 0.0
H571 H 0.56905 0.0269 0.36202 0.0
H572 H 0.57375 0.06117 0.38791 0.0
H573 H 0.46376 0.0082 0.24967 0.0
H574 H 0.48576 0.98697 0.25721 0.0
H575 H 0.4526 0.97942 0.28616 0.0
H576 H 0.53394 0.93441 0.29471 0.0
H577 H 0.45425 0.91339 0.36533 0.0
H578 H 0.57246 0.02021 0.2984 0.0
H579 H 0.54544 0.00578 0.26051 0.0
H580 H 0.56879 0.98668 0.27188 0.0
H581 H 0.47883 -0.00444 0.38716 0.0
H582 H 0.4458 0.95431 0.38945 0.0
H583 H 0.44859 0.9802 0.35234 0.0
C584 C 0.41442 0.4712 0.67443 0.0
C585 C 0.41679 0.49585 0.65173 0.0
C586 C 0.43943 0.46384 0.67575 0.0
C587 C 0.46669 0.48092 0.65293 0.0
C588 C 0.46826 0.50466 0.6286 0.0
C589 C 0.44348 0.51227 0.62879 0.0
C590 C 0.43746 0.43907 0.70275 0.0
C591 C 0.49658 0.52271 0.60317 0.0
C592 C 0.54908 0.49462 0.67932 0.0
C593 C 0.55128 0.47149 0.658 0.0
C594 C 0.52093 0.49685 0.67919 0.0
C595 C 0.49485 0.47603 0.65637 0.0
C596 C 0.49671 0.4522 0.63524 0.0
C597 C 0.5249 0.44993 0.6367 0.0
C598 C 0.51943 0.522 0.70281 0.0
C599 C 0.46955 0.43009 0.61007 0.0
H600 H 0.39372 0.45873 0.69231 0.0
H601 H 0.44496 0.53111 0.611 0.0
H602 H 0.44177 0.42082 0.68911 0.0
H603 H 0.45667 0.45126 0.72359 0.0
H604 H 0.41362 0.42635 0.71665 0.0
H605 H 0.49239 0.53786 0.58339 0.0
H606 H 0.51871 0.53871 0.61904 0.0
H607 H 0.50133 0.50541 0.58796 0.0
H608 H 0.56941 0.51097 0.69619 0.0
H609 H 0.52675 0.43207 0.62019 0.0
H610 H 0.49695 0.51065 0.71928 0.0
H611 H 0.51877 0.54072 0.68549 0.0
H612 H 0.54056 0.53419 0.72139 0.0
H613 H 0.44633 0.41739 0.62508 0.0
H614 H 0.4741 0.41172 0.59701 0.0
H615 H 0.46661 0.4447 0.5885 0.0
C616 C 0.93651 0.43778 1.00199 0.0
C617 C 0.90809 0.43663 0.98998 0.0
C618 C 0.96597 0.46687 1.00204 0.0
C619 C 0.96712 0.49531 0.98883 0.0
C620 C 0.93848 0.49438 0.97666 0.0
C621 C 0.90905 0.46496 0.97784 0.0
C622 C -0.00408 0.46707 0.016 0.0
C623 C 0.93911 0.52418 0.96168 0.0
C624 C 0.04291 0.57232 0.01617 0.0
C625 C 0.06351 0.57529 0.98765 0.0
C626 C 0.01061 0.54712 0.01623 0.0
C627 C -0.00119 0.52544 0.98643 0.0
C628 C 0.0191 0.53008 0.95633 0.0
C629 C 0.05154 0.55463 0.95768 0.0
C630 C 0.98995 0.5423 0.04926 0.0
C631 C 0.00708 0.50804 0.92361 0.0
H632 H 0.93565 0.41592 1.01191 0.0
H633 H 0.88697 0.46397 0.96859 0.0
H634 H 0.01349 0.47299 0.99355 0.0
H635 H 0.00793 0.48601 0.03714 0.0
H636 H 0.99036 0.44334 0.02771 0.0
H637 H 0.91456 0.51954 0.95417 0.0
H638 H 0.94971 0.5441 0.98189 0.0
H639 H 0.95477 0.53274 0.93724 0.0
H640 H 0.05256 0.58848 0.03931 0.0
H641 H 0.06771 0.55745 0.93552 0.0
H642 H 0.98611 0.52039 0.06414 0.0
H643 H 0.96576 0.53821 0.04122 0.0
H644 H 0.00138 0.56333 0.06806 0.0
H645 H 0.00395 0.48403 0.93083 0.0
H646 H 0.02421 0.51796 0.90045 0.0
H647 H 0.98314 0.50417 0.91475 0.0
C648 C 0.0473 0.50135 0.35891 0.0
C649 C 0.05903 0.48293 0.3757 0.0
C650 C 0.01483 0.49298 0.36268 0.0
C651 C -0.00587 0.46629 0.38486 0.0
C652 C 0.00579 0.44728 0.40137 0.0
C653 C 0.03813 0.45557 0.39608 0.0
C654 C 0.00293 0.51322 0.34374 0.0
C655 C 0.9846 0.41923 0.42595 0.0
C656 C 0.92604 0.4754 0.42403 0.0
C657 C 0.90033 0.45496 0.40138 0.0
C658 C 0.9563 0.47761 0.42049 0.0
C659 C 0.96102 0.45989 0.39266 0.0
C660 C 0.93472 0.43834 0.37049 0.0
C661 C 0.90438 0.43576 0.37555 0.0
C662 C 0.98359 0.50016 0.44529 0.0
C663 C 0.93912 0.41989 0.33981 0.0
H664 H 0.06357 0.52233 0.34286 0.0
H665 H 0.04746 0.44153 0.40923 0.0
H666 H 0.9803 0.49741 0.32854 0.0
H667 H -0.00274 0.52678 0.36414 0.0
H668 H 0.02115 0.53091 0.32454 0.0
H669 H -0.00316 0.4058 0.43505 0.0
H670 H 0.97792 0.42837 0.45025 0.0
H671 H 0.96176 0.40209 0.4119 0.0
H672 H 0.92266 0.49025 0.44392 0.0
H673 H 0.88446 0.42043 0.35762 0.0
H674 H 0.00165 0.52146 0.42967 0.0
H675 H -0.00381 0.48778 0.45648 0.0
H676 H 0.9749 0.50896 0.46821 0.0
H677 H 0.95413 0.43715 0.31826 0.0
H678 H 0.91564 0.40167 0.32765 0.0
H679 H 0.95212 0.40738 0.34933 0.0
C680 C 0.53225 0.0691 0.76271 0.0
C681 C 0.5378 0.0937 0.73813 0.0
C682 C 0.50485 0.03831 0.75939 0.0
C683 C 0.48323 0.03192 0.73007 0.0
C684 C 0.48771 0.05731 0.7065 0.0
C685 C 0.51488 0.08817 0.71113 0.0
C686 C 0.50037 0.01205 0.78567 0.0
C687 C 0.4656 0.0513 0.67448 0.0
C688 C 0.44536 0.94529 0.69758 0.0
C689 C 0.41438 0.93164 0.71263 0.0
C690 C 0.46742 0.97844 0.70138 0.0
C691 C 0.4585 -0.00202 0.72179 0.0
C692 C 0.42694 0.9844 0.73634 0.0
C693 C 0.40501 0.95134 0.73112 0.0
C694 C 0.5006 0.99232 0.68451 0.0
C695 C 0.41688 0.00438 0.75885 0.0
H696 H 0.5501 0.07354 0.78355 0.0
H697 H 0.51955 0.10717 0.69176 0.0
H698 H 0.4749 -0.00165 0.79516 0.0
H699 H 0.50579 -0.00537 0.77179 0.0
H700 H 0.51655 0.022 0.80968 0.0
H701 H 0.46902 0.07428 0.6627 0.0
H702 H 0.47088 0.03819 0.65309 0.0
H703 H 0.43984 0.03591 0.68228 0.0
H704 H 0.45237 0.93 0.68295 0.0
H705 H 0.38101 0.94061 0.74293 0.0
H706 H 0.51916 -0.00029 0.70618 0.0
H707 H 0.50641 0.01429 0.66847 0.0
H708 H 0.50249 0.97464 0.6665 0.0
H709 H 0.43114 0.01188 0.7844 0.0
H710 H 0.39072 0.99078 0.76585 0.0
H711 H 0.42209 0.0268 0.74417 0.0
C712 C 0.47549 0.53993 0.02452 0.0
C713 C 0.49277 0.56764 0.0459 0.0
C714 C 0.48246 0.51471 0.026 0.0
C715 C 0.50642 0.51694 0.05047 0.0
C716 C 0.52414 0.54508 0.07193 0.0
C717 C 0.51745 0.57047 0.06889 0.0
C718 C 0.46379 0.48547 1.00186 0.0
C719 C 0.54917 0.54779 0.09905 0.0
C720 C 0.49286 0.43512 0.07947 0.0
C721 C 0.51573 0.43241 0.05834 0.0
C722 C 0.49082 0.4634 0.07863 0.0
C723 C 0.51138 0.48889 0.05503 0.0
C724 C 0.53497 0.48646 0.03411 0.0
C725 C 0.53722 0.45829 0.03649 0.0
C726 C 0.46599 0.46556 0.10208 0.0
C727 C 0.55656 0.51276 1.00783 0.0
H728 H 0.45669 0.53814 1.00641 0.0
H729 H 0.53064 0.59201 0.08547 0.0
H730 H 0.48072 0.48006 0.98686 0.0
H731 H 0.44806 0.46395 0.01868 0.0
H732 H 0.44833 0.48901 0.9819 0.0
H733 H 0.56171 0.57186 0.11257 0.0
H734 H 0.53731 0.52882 0.12016 0.0
H735 H 0.56754 0.54361 0.08554 0.0
H736 H 0.47641 0.41499 0.09646 0.0
H737 H 0.55462 0.45581 0.01986 0.0
H738 H 0.44682 0.46526 0.08469 0.0
H739 H 0.47742 0.4887 0.11744 0.0
H740 H 0.45437 0.44516 0.12165 0.0
H741 H 0.54154 0.51481 0.98608 0.0
H742 H 0.57478 0.50786 0.99505 0.0
H743 H 0.5694 0.53654 0.02182 0.0
C744 C 0.48224 0.1783 0.22446 0.0
C745 C 0.47688 0.18284 0.26097 0.0
C746 C 0.4784 0.19595 0.19629 0.0
C747 C 0.46873 0.21889 0.20446 0.0
C748 C 0.4607 0.22175 0.24096 0.0
C749 C 0.46492 0.20372 0.26889 0.0
C750 C 0.48759 0.19202 0.15816 0.0
C751 C 0.44981 0.24553 0.25087 0.0
C752 C 0.50814 0.29442 0.14537 0.0
C753 C 0.4839 0.28881 0.11992 0.0
C754 C 0.50315 0.27218 0.17304 0.0
C755 C 0.47282 0.24338 0.17611 0.0
C756 C 0.44806 0.23738 0.1505 0.0
C757 C 0.45399 0.26005 0.12241 0.0
C758 C 0.53073 0.27945 0.19874 0.0
C759 C 0.41528 0.20721 0.15305 0.0
H760 H 0.49112 0.16192 0.21792 0.0
H761 H 0.46078 0.20745 0.29695 0.0
H762 H 0.46909 0.1899 0.13837 0.0
H763 H 0.51085 0.2138 0.15071 0.0
H764 H 0.49054 0.1704 0.15545 0.0
H765 H 0.43906 0.24092 0.27848 0.0
H766 H 0.4709 0.27049 0.25016 0.0
H767 H 0.43178 0.24438 0.23095 0.0
H768 H 0.53147 0.31644 0.14353 0.0
H769 H 0.43504 0.25571 0.10313 0.0
H770 H 0.5373 0.26019 0.19669 0.0
H771 H 0.5232 0.27968 0.22716 0.0
H772 H 0.55268 0.30314 0.19298 0.0
H773 H 0.41779 0.18537 0.15055 0.0
H774 H 0.39837 0.20631 0.13168 0.0
H775 H 0.40448 0.20611 0.18005 0.0
C776 C 0.17519 0.48677 0.48336 0.0
C777 C 0.18393 0.48572 0.44721 0.0
C778 C 0.19324 0.48503 0.51243 0.0
C779 C 0.22091 0.48228 0.50531 0.0
C780 C 0.22894 0.47948 0.4689 0.0
C781 C 0.21026 0.48116 0.44018 0.0
C782 C 0.18371 0.48801 0.55073 0.0
C783 C 0.25819 0.47635 0.46024 0.0
C784 C 0.29031 0.52134 0.57269 0.0
C785 C 0.2865 0.49468 0.59263 0.0
C786 C 0.26878 0.5176 0.54469 0.0
C787 C 0.24333 0.48619 0.53566 0.0
C788 C 0.23919 0.4591 0.55604 0.0
C789 C 0.26078 0.46372 0.58463 0.0
C790 C 0.27363 0.54727 0.52441 0.0
C791 C 0.21265 0.42523 0.54691 0.0
H792 H 0.15459 0.48988 0.48904 0.0
H793 H 0.21708 0.48028 0.41232 0.0
H794 H 0.18278 0.46857 0.56815 0.0
H795 H 0.20221 0.51153 0.56247 0.0
H796 H 0.1598 0.48672 0.55183 0.0
H797 H 0.25908 0.47077 0.43112 0.0
H798 H 0.28055 0.49939 0.46691 0.0
H799 H 0.25824 0.45704 0.47703 0.0
H800 H 0.31055 0.54521 0.57871 0.0
H801 H 0.25841 0.44307 0.59963 0.0
H802 H 0.25122 0.5489 0.52555 0.0
H803 H 0.27868 0.5454 0.49539 0.0
H804 H 0.29395 0.57002 0.53566 0.0
H805 H 0.18876 0.42393 0.5472 0.0
H806 H 0.21196 0.40692 0.56612 0.0
H807 H 0.21637 0.41884 0.51905 0.0
C808 C 0.77429 0.26056 0.93875 0.0
C809 C 0.79954 0.29162 0.92994 0.0
C810 C 0.7542 0.23907 0.91123 0.0
C811 C 0.75945 0.24897 0.87421 0.0
C812 C 0.7866 0.27929 0.8653 0.0
C813 C 0.80616 0.30003 0.89311 0.0
C814 C 0.72591 0.20678 0.92202 0.0
C815 C 0.79334 0.2913 0.82658 0.0
C816 C 0.71222 0.19345 0.79385 0.0
C817 C 0.68732 0.20075 0.78929 0.0
C818 C 0.73543 0.20809 0.82201 0.0
C819 C 0.73397 0.23088 0.84574 0.0
C820 C 0.70907 0.23852 0.84067 0.0
C821 C 0.68618 0.22334 0.81288 0.0
C822 C 0.76131 0.19896 0.82666 0.0
C823 C 0.70671 0.26315 0.86442 0.0
H824 H 0.76884 0.25389 0.96707 0.0
H825 H 0.82579 0.32392 0.88597 0.0
H826 H 0.70325 0.2079 0.92024 0.0
H827 H 0.72345 0.18745 0.90327 0.0
H828 H 0.72842 0.20007 0.95024 0.0
H829 H 0.81761 0.31322 0.82356 0.0
H830 H 0.7918 0.27221 0.80809 0.0
H831 H 0.7748 0.29744 0.81768 0.0
H832 H 0.71309 0.17576 0.77608 0.0
H833 H 0.66717 0.22934 0.80956 0.0
H834 H 0.75995 0.18927 0.8544 0.0
H835 H 0.78563 0.22074 0.82379 0.0
H836 H 0.75894 0.18052 0.80656 0.0
H837 H 0.70454 0.25583 0.89332 0.0
H838 H 0.68564 0.26605 0.85727 0.0
H839 H 0.72909 0.28707 0.86177 0.0
C840 C 0.46526 0.68411 0.13979 0.0
C841 C 0.49048 0.69276 0.11492 0.0
C842 C 0.46786 0.7051 0.16791 0.0
C843 C 0.49686 0.73514 0.17201 0.0
C844 C 0.52271 0.7438 0.14727 0.0
C845 C 0.51898 0.72267 0.11853 0.0
C846 C 0.43925 0.69537 0.19275 0.0
C847 C 0.55426 0.77525 0.15131 0.0
C848 C 0.48628 0.79939 0.22029 0.0
C849 C 0.49367 0.79615 0.25643 0.0
C850 C 0.48852 0.78063 0.19242 0.0
C851 C 0.49883 0.75819 0.20063 0.0
C852 C 0.50782 0.75581 0.23676 0.0
C853 C 0.50494 0.77472 0.26437 0.0
C854 C 0.47823 0.78369 0.15448 0.0
C855 C 0.51941 0.7325 0.24643 0.0
H856 H 0.44312 0.661 0.13684 0.0
H857 H 0.53862 0.72913 0.09952 0.0
H858 H 0.44637 0.69496 0.22134 0.0
H859 H 0.43108 0.71345 0.19099 0.0
H860 H 0.41847 0.67114 0.1859 0.0
H861 H 0.57258 0.77761 0.13107 0.0
H862 H 0.55008 0.79602 0.14807 0.0
H863 H 0.56425 0.77693 0.17897 0.0
H864 H 0.47774 0.81604 0.21376 0.0
H865 H 0.51083 0.77221 0.29217 0.0
H866 H 0.45634 0.76066 0.14661 0.0
H867 H 0.49751 0.78812 0.13468 0.0
H868 H 0.47263 0.80364 0.15219 0.0
H869 H 0.49905 0.70725 0.24399 0.0
H870 H 0.52908 0.73625 0.27455 0.0
H871 H 0.53856 0.7352 0.22727 0.0
C872 C 0.68993 0.51265 0.55819 0.0
C873 C 0.69673 0.51187 0.59523 0.0
C874 C 0.71133 0.51448 0.53092 0.0
C875 C 0.74077 0.51599 0.54062 0.0
C876 C 0.74924 0.51829 0.57799 0.0
C877 C 0.7271 0.51621 0.60493 0.0
C878 C 0.70085 0.51168 0.49173 0.0
C879 C 0.78065 0.52056 0.58961 0.0
C880 C 0.76804 0.47072 0.47787 0.0
C881 C 0.7921 0.49554 0.45668 0.0
C882 C 0.75152 0.47722 0.50512 0.0
C883 C 0.75947 0.5096 0.51215 0.0
C884 C 0.7836 0.53492 0.49061 0.0
C885 C 0.79947 0.52757 0.46283 0.0
C886 C 0.72544 0.44921 0.52642 0.0
C887 C 0.79314 0.56978 0.49751 0.0
H888 H 0.66674 0.50983 0.55027 0.0
H889 H 0.7328 0.51598 0.63337 0.0
H890 H 0.72085 0.52985 0.47468 0.0
H891 H 0.69441 0.48734 0.48126 0.0
H892 H 0.67949 0.51496 0.48841 0.0
H893 H 0.78649 0.52816 0.61844 0.0
H894 H 0.77878 0.49652 0.58645 0.0
H895 H 0.8009 0.53798 0.57224 0.0
H896 H 0.76215 0.44588 0.47318 0.0
H897 H 0.81842 0.54688 0.44697 0.0
H898 H 0.70205 0.44878 0.52345 0.0
H899 H 0.73166 0.45221 0.55573 0.0
H900 H 0.722 0.42543 0.51739 0.0
H901 H 0.77165 0.57292 0.49539 0.0
H902 H 0.81188 0.58661 0.47818 0.0
H903 H 0.80267 0.57663 0.52557 0.0
C904 C 0.20124 0.73242 0.92611 0.0
C905 C 0.19537 0.70056 0.9268 0.0
C906 C 0.22096 0.75411 0.89889 0.0
C907 C 0.23569 0.74377 0.87267 0.0
C908 C 0.23061 0.71189 0.87431 0.0
C909 C 0.21017 0.6906 0.90098 0.0
C910 C 0.22545 0.78777 0.89765 0.0
C911 C 0.24667 0.70012 0.84779 0.0
C912 C 0.26566 0.78423 0.78062 0.0
C913 C 0.29905 0.80306 0.78684 0.0
C914 C 0.24444 0.76593 0.80882 0.0
C915 C 0.25704 0.76617 0.84381 0.0
C916 C 0.29067 0.78561 0.85029 0.0
C917 C 0.31117 0.80393 0.82184 0.0
C918 C 0.20867 0.7457 0.80097 0.0
C919 C 0.30522 0.78607 0.8869 0.0
H920 H 0.18952 0.73994 0.94595 0.0
H921 H 0.2058 0.66597 0.90176 0.0
H922 H 0.25156 0.80612 0.89946 0.0
H923 H 0.21646 0.79153 0.87133 0.0
H924 H 0.21243 0.7921 0.91999 0.0
H925 H 0.24112 0.67499 0.85369 0.0
H926 H 0.23854 0.70087 0.81976 0.0
H927 H 0.27333 0.7163 0.84858 0.0
H928 H 0.25614 0.78358 0.7537 0.0
H929 H 0.33697 0.81841 0.82693 0.0
H930 H 0.1946 0.75062 0.82144 0.0
H931 H 0.20105 0.71961 0.80292 0.0
H932 H 0.20235 0.75046 0.77349 0.0
H933 H 0.29289 0.79201 0.90855 0.0
H934 H 0.33157 0.80387 0.88807 0.0
H935 H 0.30161 0.76166 0.89301 0.0
loop_
_geom_bond_atom_site_label_1
_geom_bond_atom_site_label_2
_geom_bond_distance
_geom_bond_site_symmetry_2
_ccdc_geom_bond_type
Co0 O1 2.216 . S
Co0 O2 2.091 . S
Co0 O4 2.004 . S
Co0 O10 2.021 . S
Co0 O12 2.137 . S
Co0 O13 2.244 . S
O1 Co0 2.216 . S
O1 C8 1.247 . S
O2 Co0 2.091 . S
O2 C8 1.261 . S
C3 O12 1.247 . S
C3 O13 1.272 . S
O4 Co0 2.004 . S
O4 C9 1.259 . S
Co5 O6 2.061 . S
Co5 O11 2.052 . S
Co5 O13 2.135 . S
O6 Co5 2.061 . S
O6 C9 1.235 . S
C7 O10 1.238 . S
C7 O11 1.241 . S
C8 O1 1.247 . S
C8 O2 1.261 . S
C9 O4 1.259 . S
C9 O6 1.235 . S
O10 Co0 2.021 . S
O10 C7 1.238 . S
O11 Co5 2.052 . S
O11 C7 1.241 . S
O12 Co0 2.137 . S
O12 C3 1.247 . S
O13 Co0 2.244 . S
O13 C3 1.272 . S
O13 Co5 2.135 . S
Co14 O15 2.216 . S
Co14 O16 2.091 . S
Co14 O18 2.004 . S
Co14 O24 2.021 . S
Co14 O26 2.137 . S
Co14 O27 2.244 . S
O15 Co14 2.216 . S
O15 C22 1.247 . S
O16 Co14 2.091 . S
O16 C22 1.261 . S
C17 O26 1.247 . S
C17 O27 1.272 . S
O18 Co14 2.004 . S
O18 C23 1.259 . S
Co19 O20 2.061 . S
Co19 O25 2.052 . S
Co19 O27 2.135 . S
O20 Co19 2.061 . S
O20 C23 1.235 . S
C21 O24 1.238 . S
C21 O25 1.241 . S
C22 O15 1.247 . S
C22 O16 1.261 . S
C23 O18 1.259 . S
C23 O20 1.235 . S
O24 Co14 2.021 . S
O24 C21 1.238 . S
O25 Co19 2.052 . S
O25 C21 1.241 . S
O26 Co14 2.137 . S
O26 C17 1.247 . S
O27 Co14 2.244 . S
O27 C17 1.272 . S
O27 Co19 2.135 . S
Co28 O29 2.216 . S
Co28 O30 2.091 . S
Co28 O32 2.004 . S
Co28 O38 2.021 1_556 S
Co28 O40 2.137 . S
Co28 O41 2.244 . S
O29 Co28 2.216 . S
O29 C36 1.247 . S
O30 Co28 2.091 . S
O30 C36 1.261 . S
C31 O40 1.247 . S
C31 O41 1.272 . S
O32 Co28 2.004 . S
O32 C37 1.259 . S
Co33 O34 2.061 . S
Co33 O39 2.052 . S
Co33 O41 2.135 1_554 S
O34 Co33 2.061 . S
O34 C37 1.235 1_554 S
C35 O38 1.238 . S
C35 O39 1.241 . S
C36 O29 1.247 . S
C36 O30 1.261 . S
C37 O32 1.259 . S
C37 O34 1.235 1_556 S
O38 Co28 2.021 1_554 S
O38 C35 1.238 . S
O39 Co33 2.052 . S
O39 C35 1.241 . S
O40 Co28 2.137 . S
O40 C31 1.247 . S
O41 Co28 2.244 . S
O41 C31 1.272 . S
O41 Co33 2.135 1_556 S
Co42 O43 2.216 . S
Co42 O44 2.091 . S
Co42 O46 2.004 . S
Co42 O52 2.021 . S
Co42 O54 2.137 . S
Co42 O55 2.244 . S
O43 Co42 2.216 . S
O43 C50 1.247 . S
O44 Co42 2.091 . S
O44 C50 1.261 . S
C45 O54 1.247 . S
C45 O55 1.272 . S
O46 Co42 2.004 . S
O46 C51 1.259 . S
Co47 O48 2.061 . S
Co47 O53 2.052 . S
Co47 O55 2.135 . S
O48 Co47 2.061 . S
O48 C51 1.235 . S
C49 O52 1.238 . S
C49 O53 1.241 . S
C50 O43 1.247 . S
C50 O44 1.261 . S
C51 O46 1.259 . S
C51 O48 1.235 . S
O52 Co42 2.021 . S
O52 C49 1.238 . S
O53 Co47 2.052 . S
O53 C49 1.241 . S
O54 Co42 2.137 . S
O54 C45 1.247 . S
O55 Co42 2.244 . S
O55 C45 1.272 . S
O55 Co47 2.135 . S
Co56 O57 2.216 . S
Co56 O58 2.091 . S
Co56 O60 2.004 . S
Co56 O66 2.021 . S
Co56 O68 2.137 . S
Co56 O69 2.244 . S
O57 Co56 2.216 . S
O57 C64 1.247 . S
O58 Co56 2.091 . S
O58 C64 1.261 . S
C59 O68 1.247 . S
C59 O69 1.272 . S
O60 Co56 2.004 . S
O60 C65 1.259 . S
Co61 O62 2.061 . S
Co61 O67 2.052 . S
Co61 O69 2.135 . S
O62 Co61 2.061 . S
O62 C65 1.235 . S
C63 O66 1.238 . S
C63 O67 1.241 . S
C64 O57 1.247 . S
C64 O58 1.261 . S
C65 O60 1.259 . S
C65 O62 1.235 . S
O66 Co56 2.021 . S
O66 C63 1.238 . S
O67 Co61 2.052 . S
O67 C63 1.241 . S
O68 Co56 2.137 . S
O68 C59 1.247 . S
O69 Co56 2.244 . S
O69 C59 1.272 . S
O69 Co61 2.135 . S
Co70 O71 2.216 . S
Co70 O72 2.091 . S
Co70 O74 2.004 . S
Co70 O80 2.021 1_556 S
Co70 O82 2.137 . S
Co70 O83 2.244 . S
O71 Co70 2.216 . S
O71 C78 1.247 . S
O72 Co70 2.091 . S
O72 C78 1.261 . S
C73 O82 1.247 . S
C73 O83 1.272 . S
O74 Co70 2.004 . S
O74 C79 1.259 . S
Co75 O76 2.061 . S
Co75 O81 2.052 . S
Co75 O83 2.135 1_554 S
O76 Co75 2.061 . S
O76 C79 1.235 1_554 S
C77 O80 1.238 . S
C77 O81 1.241 . S
C78 O71 1.247 . S
C78 O72 1.261 . S
C79 O74 1.259 . S
C79 O76 1.235 1_556 S
O80 Co70 2.021 1_554 S
O80 C77 1.238 . S
O81 Co75 2.052 . S
O81 C77 1.241 . S
O82 Co70 2.137 . S
O82 C73 1.247 . S
O83 Co70 2.244 . S
O83 C73 1.272 . S
O83 Co75 2.135 1_556 S
Co84 O85 2.216 . S
Co84 O86 2.091 . S
Co84 O88 2.004 . S
Co84 O94 2.021 . S
Co84 O96 2.137 . S
Co84 O97 2.244 . S
O85 Co84 2.216 . S
O85 C92 1.247 . S
O86 Co84 2.091 . S
O86 C92 1.261 . S
C87 O96 1.247 . S
C87 O97 1.272 . S
O88 Co84 2.004 . S
O88 C93 1.259 . S
Co89 O90 2.061 . S
Co89 O95 2.052 . S
Co89 O97 2.135 . S
O90 Co89 2.061 . S
O90 C93 1.235 . S
C91 O94 1.238 . S
C91 O95 1.241 . S
C92 O85 1.247 . S
C92 O86 1.261 . S
C93 O88 1.259 . S
C93 O90 1.235 . S
O94 Co84 2.021 . S
O94 C91 1.238 . S
O95 Co89 2.052 . S
O95 C91 1.241 . S
O96 Co84 2.137 . S
O96 C87 1.247 . S
O97 Co84 2.244 . S
O97 C87 1.272 . S
O97 Co89 2.135 . S
Co98 O99 2.216 . S
Co98 O100 2.091 . S
Co98 O102 2.004 . S
Co98 O108 2.021 . S
Co98 O110 2.137 . S
Co98 O111 2.244 . S
O99 Co98 2.216 . S
O99 C106 1.247 . S
O100 Co98 2.091 . S
O100 C106 1.261 . S
C101 O110 1.247 . S
C101 O111 1.272 . S
O102 Co98 2.004 . S
O102 C107 1.259 . S
Co103 O104 2.061 . S
Co103 O109 2.052 . S
Co103 O111 2.135 . S
O104 Co103 2.061 . S
O104 C107 1.235 . S
C105 O108 1.238 . S
C105 O109 1.241 . S
C106 O99 1.247 . S
C106 O100 1.261 . S
C107 O102 1.259 . S
C107 O104 1.235 . S
O108 Co98 2.021 . S
O108 C105 1.238 . S
O109 Co103 2.052 . S
O109 C105 1.241 . S
O110 Co98 2.137 . S
O110 C101 1.247 . S
O111 Co98 2.244 . S
O111 C101 1.272 . S
O111 Co103 2.135 . S
Co112 O113 2.216 . S
Co112 O114 2.091 . S
Co112 O116 2.004 . S
Co112 O122 2.021 1_554 S
Co112 O124 2.137 . S
Co112 O125 2.244 . S
O113 Co112 2.216 . S
O113 C120 1.247 . S
O114 Co112 2.091 . S
O114 C120 1.261 . S
C115 O124 1.247 . S
C115 O125 1.272 . S
O116 Co112 2.004 . S
O116 C121 1.259 . S
Co117 O118 2.061 1_556 S
Co117 O123 2.052 . S
Co117 O125 2.135 1_556 S
O118 Co117 2.061 1_554 S
O118 C121 1.235 . S
C119 O122 1.238 . S
C119 O123 1.241 . S
C120 O113 1.247 . S
C120 O114 1.261 . S
C121 O116 1.259 . S
C121 O118 1.235 . S
O122 Co112 2.021 1_556 S
O122 C119 1.238 . S
O123 Co117 2.052 . S
O123 C119 1.241 . S
O124 Co112 2.137 . S
O124 C115 1.247 . S
O125 Co112 2.244 . S
O125 C115 1.272 . S
O125 Co117 2.135 1_554 S
Co126 O127 2.216 . S
Co126 O128 2.091 . S
Co126 O130 2.004 . S
Co126 O136 2.021 . S
Co126 O138 2.137 . S
Co126 O139 2.244 . S
O127 Co126 2.216 . S
O127 C134 1.247 . S
O128 Co126 2.091 . S
O128 C134 1.261 . S
C129 O138 1.247 . S
C129 O139 1.272 . S
O130 Co126 2.004 . S
O130 C135 1.259 . S
Co131 O132 2.061 . S
Co131 O137 2.052 . S
Co131 O139 2.135 . S
O132 Co131 2.061 . S
O132 C135 1.235 . S
C133 O136 1.238 . S
C133 O137 1.241 . S
C134 O127 1.247 . S
C134 O128 1.261 . S
C135 O130 1.259 . S
C135 O132 1.235 . S
O136 Co126 2.021 . S
O136 C133 1.238 . S
O137 Co131 2.052 . S
O137 C133 1.241 . S
O138 Co126 2.137 . S
O138 C129 1.247 . S
O139 Co126 2.244 . S
O139 C129 1.272 . S
O139 Co131 2.135 . S
Co140 O141 2.216 . S
Co140 O142 2.091 . S
Co140 O144 2.004 . S
Co140 O150 2.021 . S
Co140 O152 2.137 . S
Co140 O153 2.244 . S
O141 Co140 2.216 . S
O141 C148 1.247 . S
O142 Co140 2.091 . S
O142 C148 1.261 . S
C143 O152 1.247 . S
C143 O153 1.272 . S
O144 Co140 2.004 . S
O144 C149 1.259 . S
Co145 O146 2.061 . S
Co145 O151 2.052 . S
Co145 O153 2.135 . S
O146 Co145 2.061 . S
O146 C149 1.235 . S
C147 O150 1.238 . S
C147 O151 1.241 . S
C148 O141 1.247 . S
C148 O142 1.261 . S
C149 O144 1.259 . S
C149 O146 1.235 . S
O150 Co140 2.021 . S
O150 C147 1.238 . S
O151 Co145 2.052 . S
O151 C147 1.241 . S
O152 Co140 2.137 . S
O152 C143 1.247 . S
O153 Co140 2.244 . S
O153 C143 1.272 . S
O153 Co145 2.135 . S
Co154 O155 2.216 . S
Co154 O156 2.091 . S
Co154 O158 2.004 . S
Co154 O164 2.021 1_554 S
Co154 O166 2.137 . S
Co154 O167 2.244 . S
O155 Co154 2.216 . S
O155 C162 1.247 . S
O156 Co154 2.091 . S
O156 C162 1.261 . S
C157 O166 1.247 . S
C157 O167 1.272 . S
O158 Co154 2.004 . S
O158 C163 1.259 . S
Co159 O160 2.061 1_556 S
Co159 O165 2.052 . S
Co159 O167 2.135 1_556 S
O160 Co159 2.061 1_554 S
O160 C163 1.235 . S
C161 O164 1.238 . S
C161 O165 1.241 . S
C162 O155 1.247 . S
C162 O156 1.261 . S
C163 O158 1.259 . S
C163 O160 1.235 . S
O164 Co154 2.021 1_556 S
O164 C161 1.238 . S
O165 Co159 2.052 . S
O165 C161 1.241 . S
O166 Co154 2.137 . S
O166 C157 1.247 . S
O167 Co154 2.244 . S
O167 C157 1.272 . S
O167 Co159 2.135 1_554 S
C168 C169 1.391 . S
C168 C170 1.394 . S
C168 H184 0.931 . S
C169 C168 1.391 . S
C169 C173 1.376 . S
C170 C168 1.394 . S
C170 C171 1.369 . S
C170 C174 1.531 . S
C171 C170 1.369 . S
C171 C172 1.410 . S
C171 C179 1.503 . S
C172 C171 1.410 . S
C172 C173 1.392 . S
C172 C175 1.511 . S
C173 C169 1.376 . S
C173 C172 1.392 . S
C173 H185 0.929 . S
C174 C170 1.531 . S
C174 H186 0.960 . S
C174 H187 0.962 . S
C174 H188 0.960 . S
C175 C172 1.511 . S
C175 H189 0.961 . S
C175 H190 0.961 . S
C175 H191 0.961 . S
C176 C177 1.370 . S
C176 C178 1.363 . S
C176 H192 0.931 . S
C177 C176 1.370 . S
C177 C181 1.408 . S
C178 C176 1.363 . S
C178 C179 1.370 . S
C178 C182 1.524 . S
C179 C171 1.503 . S
C179 C178 1.370 . S
C179 C180 1.403 . S
C180 C179 1.403 . S
C180 C181 1.404 . S
C180 C183 1.539 . S
C181 C177 1.408 . S
C181 C180 1.404 . S
C181 H193 0.930 . S
C182 C178 1.524 . S
C182 H194 0.956 . S
C182 H195 0.961 . S
C182 H196 0.961 . S
C183 C180 1.539 . S
C183 H197 0.958 . S
C183 H198 0.961 . S
C183 H199 0.960 . S
H184 C168 0.931 . S
H185 C173 0.929 . S
H186 C174 0.960 . S
H187 C174 0.962 . S
H188 C174 0.960 . S
H189 C175 0.961 . S
H190 C175 0.961 . S
H191 C175 0.961 . S
H192 C176 0.931 . S
H193 C181 0.930 . S
H194 C182 0.956 . S
H195 C182 0.961 . S
H196 C182 0.961 . S
H197 C183 0.958 . S
H198 C183 0.961 . S
H199 C183 0.960 . S
C200 C201 1.391 . S
C200 C202 1.394 . S
C200 H216 0.931 . S
C201 C200 1.391 . S
C201 C205 1.376 . S
C202 C200 1.394 . S
C202 C203 1.369 . S
C202 C206 1.531 . S
C203 C202 1.369 . S
C203 C204 1.410 . S
C203 C211 1.503 . S
C204 C203 1.410 . S
C204 C205 1.392 . S
C204 C207 1.511 . S
C205 C201 1.376 . S
C205 C204 1.392 . S
C205 H217 0.929 . S
C206 C202 1.531 . S
C206 H218 0.960 . S
C206 H219 0.962 . S
C206 H220 0.960 . S
C207 C204 1.511 . S
C207 H221 0.961 . S
C207 H222 0.961 . S
C207 H223 0.961 . S
C208 C209 1.370 . S
C208 C210 1.363 . S
C208 H224 0.931 . S
C209 C208 1.370 . S
C209 C213 1.408 . S
C210 C208 1.363 . S
C210 C211 1.370 . S
C210 C214 1.524 . S
C211 C203 1.503 . S
C211 C210 1.370 . S
C211 C212 1.403 . S
C212 C211 1.403 . S
C212 C213 1.404 . S
C212 C215 1.539 . S
C213 C209 1.408 . S
C213 C212 1.404 . S
C213 H225 0.930 . S
C214 C210 1.524 . S
C214 H226 0.956 . S
C214 H227 0.961 . S
C214 H228 0.961 . S
C215 C212 1.539 . S
C215 H229 0.958 . S
C215 H230 0.961 . S
C215 H231 0.960 . S
H216 C200 0.931 . S
H217 C205 0.929 . S
H218 C206 0.960 . S
H219 C206 0.962 . S
H220 C206 0.960 . S
H221 C207 0.961 . S
H222 C207 0.961 . S
H223 C207 0.961 . S
H224 C208 0.931 . S
H225 C213 0.930 . S
H226 C214 0.956 . S
H227 C214 0.961 . S
H228 C214 0.961 . S
H229 C215 0.958 . S
H230 C215 0.961 . S
H231 C215 0.960 . S
C232 C233 1.391 . S
C232 C234 1.394 . S
C232 H248 0.931 . S
C233 C232 1.391 . S
C233 C237 1.376 . S
C234 C232 1.394 . S
C234 C235 1.369 . S
C234 C238 1.531 . S
C235 C234 1.369 . S
C235 C236 1.410 . S
C235 C243 1.503 . S
C236 C235 1.410 . S
C236 C237 1.392 . S
C236 C239 1.511 . S
C237 C233 1.376 . S
C237 C236 1.392 . S
C237 H249 0.929 . S
C238 C234 1.531 . S
C238 H250 0.960 . S
C238 H251 0.962 . S
C238 H252 0.960 . S
C239 C236 1.511 . S
C239 H253 0.961 . S
C239 H254 0.961 . S
C239 H255 0.961 . S
C240 C241 1.370 . S
C240 C242 1.363 . S
C240 H256 0.931 . S
C241 C240 1.370 . S
C241 C245 1.408 . S
C242 C240 1.363 . S
C242 C243 1.370 . S
C242 C246 1.524 . S
C243 C235 1.503 . S
C243 C242 1.370 . S
C243 C244 1.403 . S
C244 C243 1.403 . S
C244 C245 1.404 . S
C244 C247 1.539 . S
C245 C241 1.408 . S
C245 C244 1.404 . S
C245 H257 0.930 . S
C246 C242 1.524 . S
C246 H258 0.956 . S
C246 H259 0.961 . S
C246 H260 0.961 . S
C247 C244 1.539 . S
C247 H261 0.958 . S
C247 H262 0.961 . S
C247 H263 0.960 . S
H248 C232 0.931 . S
H249 C237 0.929 . S
H250 C238 0.960 . S
H251 C238 0.962 . S
H252 C238 0.960 . S
H253 C239 0.961 . S
H254 C239 0.961 . S
H255 C239 0.961 . S
H256 C240 0.931 . S
H257 C245 0.930 . S
H258 C246 0.956 . S
H259 C246 0.961 . S
H260 C246 0.961 . S
H261 C247 0.958 . S
H262 C247 0.961 . S
H263 C247 0.960 . S
C264 C265 1.391 . S
C264 C266 1.394 . S
C264 H280 0.931 . S
C265 C264 1.391 . S
C265 C269 1.376 . S
C266 C264 1.394 . S
C266 C267 1.369 . S
C266 C270 1.531 . S
C267 C266 1.369 . S
C267 C268 1.410 . S
C267 C275 1.503 . S
C268 C267 1.410 . S
C268 C269 1.392 . S
C268 C271 1.511 . S
C269 C265 1.376 . S
C269 C268 1.392 . S
C269 H281 0.929 . S
C270 C266 1.531 . S
C270 H282 0.960 . S
C270 H283 0.962 . S
C270 H284 0.960 . S
C271 C268 1.511 . S
C271 H285 0.961 . S
C271 H286 0.961 . S
C271 H287 0.961 . S
C272 C273 1.370 . S
C272 C274 1.363 . S
C272 H288 0.931 . S
C273 C272 1.370 . S
C273 C277 1.408 . S
C274 C272 1.363 . S
C274 C275 1.370 . S
C274 C278 1.524 . S
C275 C267 1.503 . S
C275 C274 1.370 . S
C275 C276 1.403 . S
C276 C275 1.403 . S
C276 C277 1.404 . S
C276 C279 1.539 . S
C277 C273 1.408 . S
C277 C276 1.404 . S
C277 H289 0.930 . S
C278 C274 1.524 . S
C278 H290 0.956 . S
C278 H291 0.961 . S
C278 H292 0.961 . S
C279 C276 1.539 . S
C279 H293 0.958 . S
C279 H294 0.961 . S
C279 H295 0.960 . S
H280 C264 0.931 . S
H281 C269 0.929 . S
H282 C270 0.960 . S
H283 C270 0.962 . S
H284 C270 0.960 . S
H285 C271 0.961 . S
H286 C271 0.961 . S
H287 C271 0.961 . S
H288 C272 0.931 . S
H289 C277 0.930 . S
H290 C278 0.956 . S
H291 C278 0.961 . S
H292 C278 0.961 . S
H293 C279 0.958 . S
H294 C279 0.961 . S
H295 C279 0.960 . S
C296 C297 1.391 . S
C296 C298 1.394 . S
C296 H312 0.931 . S
C297 C296 1.391 . S
C297 C301 1.376 . S
C298 C296 1.394 . S
C298 C299 1.369 . S
C298 C302 1.531 . S
C299 C298 1.369 . S
C299 C300 1.410 . S
C299 C307 1.503 . S
C300 C299 1.410 . S
C300 C301 1.392 . S
C300 C303 1.511 . S
C301 C297 1.376 . S
C301 C300 1.392 . S
C301 H313 0.929 . S
C302 C298 1.531 . S
C302 H314 0.960 . S
C302 H315 0.962 . S
C302 H316 0.960 . S
C303 C300 1.511 . S
C303 H317 0.961 . S
C303 H318 0.961 . S
C303 H319 0.961 . S
C304 C305 1.370 . S
C304 C306 1.363 . S
C304 H320 0.931 . S
C305 C304 1.370 . S
C305 C309 1.408 . S
C306 C304 1.363 . S
C306 C307 1.370 . S
C306 C310 1.524 . S
C307 C299 1.503 . S
C307 C306 1.370 . S
C307 C308 1.403 . S
C308 C307 1.403 . S
C308 C309 1.404 . S
C308 C311 1.539 . S
C309 C305 1.408 . S
C309 C308 1.404 . S
C309 H321 0.930 . S
C310 C306 1.524 . S
C310 H322 0.956 . S
C310 H323 0.961 . S
C310 H324 0.961 . S
C311 C308 1.539 . S
C311 H325 0.958 . S
C311 H326 0.961 . S
C311 H327 0.960 . S
H312 C296 0.931 . S
H313 C301 0.929 . S
H314 C302 0.960 . S
H315 C302 0.962 . S
H316 C302 0.960 . S
H317 C303 0.961 . S
H318 C303 0.961 . S
H319 C303 0.961 . S
H320 C304 0.931 . S
H321 C309 0.930 . S
H322 C310 0.956 . S
H323 C310 0.961 . S
H324 C310 0.961 . S
H325 C311 0.958 . S
H326 C311 0.961 . S
H327 C311 0.960 . S
C328 C329 1.391 . S
C328 C330 1.394 . S
C328 H344 0.931 . S
C329 C328 1.391 . S
C329 C333 1.376 . S
C330 C328 1.394 . S
C330 C331 1.369 . S
C330 C334 1.531 . S
C331 C330 1.369 . S
C331 C332 1.410 . S
C331 C339 1.503 . S
C332 C331 1.410 . S
C332 C333 1.392 . S
C332 C335 1.511 . S
C333 C329 1.376 . S
C333 C332 1.392 . S
C333 H345 0.929 . S
C334 C330 1.531 . S
C334 H346 0.960 . S
C334 H347 0.962 . S
C334 H348 0.960 . S
C335 C332 1.511 . S
C335 H349 0.961 . S
C335 H350 0.961 . S
C335 H351 0.961 . S
C336 C337 1.370 . S
C336 C338 1.363 . S
C336 H352 0.931 . S
C337 C336 1.370 . S
C337 C341 1.408 . S
C338 C336 1.363 . S
C338 C339 1.370 . S
C338 C342 1.524 . S
C339 C331 1.503 . S
C339 C338 1.370 . S
C339 C340 1.403 . S
C340 C339 1.403 . S
C340 C341 1.404 . S
C340 C343 1.539 . S
C341 C337 1.408 . S
C341 C340 1.404 . S
C341 H353 0.930 . S
C342 C338 1.524 . S
C342 H354 0.956 . S
C342 H355 0.961 . S
C342 H356 0.961 . S
C343 C340 1.539 . S
C343 H357 0.958 . S
C343 H358 0.961 . S
C343 H359 0.960 . S
H344 C328 0.931 . S
H345 C333 0.929 . S
H346 C334 0.960 . S
H347 C334 0.962 . S
H348 C334 0.960 . S
H349 C335 0.961 . S
H350 C335 0.961 . S
H351 C335 0.961 . S
H352 C336 0.931 . S
H353 C341 0.930 . S
H354 C342 0.956 . S
H355 C342 0.961 . S
H356 C342 0.961 . S
H357 C343 0.958 . S
H358 C343 0.961 . S
H359 C343 0.960 . S
C360 C361 1.391 . S
C360 C362 1.394 . S
C360 H376 0.931 . S
C361 C360 1.391 . S
C361 C365 1.376 . S
C362 C360 1.394 . S
C362 C363 1.369 . S
C362 C366 1.531 . S
C363 C362 1.369 . S
C363 C364 1.410 . S
C363 C371 1.503 . S
C364 C363 1.410 . S
C364 C365 1.392 . S
C364 C367 1.511 . S
C365 C361 1.376 . S
C365 C364 1.392 . S
C365 H377 0.929 . S
C366 C362 1.531 . S
C366 H378 0.960 . S
C366 H379 0.962 . S
C366 H380 0.960 . S
C367 C364 1.511 . S
C367 H381 0.961 . S
C367 H382 0.961 . S
C367 H383 0.961 . S
C368 C369 1.370 . S
C368 C370 1.363 . S
C368 H384 0.931 . S
C369 C368 1.370 . S
C369 C373 1.408 . S
C370 C368 1.363 . S
C370 C371 1.370 . S
C370 C374 1.524 . S
C371 C363 1.503 . S
C371 C370 1.370 . S
C371 C372 1.403 . S
C372 C371 1.403 . S
C372 C373 1.404 . S
C372 C375 1.539 . S
C373 C369 1.408 . S
C373 C372 1.404 . S
C373 H385 0.930 . S
C374 C370 1.524 . S
C374 H386 0.956 . S
C374 H387 0.961 . S
C374 H388 0.961 . S
C375 C372 1.539 . S
C375 H389 0.958 . S
C375 H390 0.961 . S
C375 H391 0.960 . S
H376 C360 0.931 . S
H377 C365 0.929 . S
H378 C366 0.960 . S
H379 C366 0.962 . S
H380 C366 0.960 . S
H381 C367 0.961 . S
H382 C367 0.961 . S
H383 C367 0.961 . S
H384 C368 0.931 . S
H385 C373 0.930 . S
H386 C374 0.956 . S
H387 C374 0.961 . S
H388 C374 0.961 . S
H389 C375 0.958 . S
H390 C375 0.961 . S
H391 C375 0.960 . S
C392 C393 1.391 . S
C392 C394 1.394 . S
C392 H408 0.931 . S
C393 C392 1.391 . S
C393 C397 1.376 . S
C394 C392 1.394 . S
C394 C395 1.369 . S
C394 C398 1.531 . S
C395 C394 1.369 . S
C395 C396 1.410 . S
C395 C403 1.503 . S
C396 C395 1.410 . S
C396 C397 1.392 . S
C396 C399 1.511 . S
C397 C393 1.376 . S
C397 C396 1.392 . S
C397 H409 0.929 . S
C398 C394 1.531 . S
C398 H410 0.960 . S
C398 H411 0.962 . S
C398 H412 0.960 . S
C399 C396 1.511 . S
C399 H413 0.961 . S
C399 H414 0.961 . S
C399 H415 0.961 . S
C400 C401 1.370 . S
C400 C402 1.363 . S
C400 H416 0.931 . S
C401 C400 1.370 . S
C401 C405 1.408 . S
C402 C400 1.363 . S
C402 C403 1.370 . S
C402 C406 1.524 . S
C403 C395 1.503 . S
C403 C402 1.370 . S
C403 C404 1.403 . S
C404 C403 1.403 . S
C404 C405 1.404 . S
C404 C407 1.539 . S
C405 C401 1.408 . S
C405 C404 1.404 . S
C405 H417 0.930 . S
C406 C402 1.524 . S
C406 H418 0.956 . S
C406 H419 0.961 . S
C406 H420 0.961 . S
C407 C404 1.539 . S
C407 H421 0.958 . S
C407 H422 0.961 . S
C407 H423 0.960 . S
H408 C392 0.931 . S
H409 C397 0.929 . S
H410 C398 0.960 . S
H411 C398 0.962 . S
H412 C398 0.960 . S
H413 C399 0.961 . S
H414 C399 0.961 . S
H415 C399 0.961 . S
H416 C400 0.931 . S
H417 C405 0.930 . S
H418 C406 0.956 . S
H419 C406 0.961 . S
H420 C406 0.961 . S
H421 C407 0.958 . S
H422 C407 0.961 . S
H423 C407 0.960 . S
C424 C425 1.391 . S
C424 C426 1.394 . S
C424 H440 0.931 . S
C425 C424 1.391 . S
C425 C429 1.376 . S
C426 C424 1.394 . S
C426 C427 1.369 . S
C426 C430 1.531 . S
C427 C426 1.369 . S
C427 C428 1.410 . S
C427 C435 1.503 . S
C428 C427 1.410 . S
C428 C429 1.392 . S
C428 C431 1.511 1_554 S
C429 C425 1.376 . S
C429 C428 1.392 . S
C429 H441 0.929 1_554 S
C430 C426 1.531 . S
C430 H442 0.960 . S
C430 H443 0.962 . S
C430 H444 0.960 . S
C431 C428 1.511 1_556 S
C431 H445 0.961 . S
C431 H446 0.961 . S
C431 H447 0.961 . S
C432 C433 1.370 . S
C432 C434 1.363 . S
C432 H448 0.931 . S
C433 C432 1.370 . S
C433 C437 1.408 1_556 S
C434 C432 1.363 . S
C434 C435 1.370 1_556 S
C434 C438 1.524 . S
C435 C427 1.503 . S
C435 C434 1.370 1_554 S
C435 C436 1.403 . S
C436 C435 1.403 . S
C436 C437 1.404 . S
C436 C439 1.539 . S
C437 C433 1.408 1_554 S
C437 C436 1.404 . S
C437 H449 0.930 . S
C438 C434 1.524 . S
C438 H450 0.956 . S
C438 H451 0.961 . S
C438 H452 0.961 . S
C439 C436 1.539 . S
C439 H453 0.958 . S
C439 H454 0.961 . S
C439 H455 0.960 . S
H440 C424 0.931 . S
H441 C429 0.929 1_556 S
H442 C430 0.960 . S
H443 C430 0.962 . S
H444 C430 0.960 . S
H445 C431 0.961 . S
H446 C431 0.961 . S
H447 C431 0.961 . S
H448 C432 0.931 . S
H449 C437 0.930 . S
H450 C438 0.956 . S
H451 C438 0.961 . S
H452 C438 0.961 . S
H453 C439 0.958 . S
H454 C439 0.961 . S
H455 C439 0.960 . S
C456 C457 1.391 . S
C456 C458 1.394 . S
C456 H472 0.931 . S
C457 C456 1.391 . S
C457 C461 1.376 . S
C458 C456 1.394 . S
C458 C459 1.369 . S
C458 C462 1.531 . S
C459 C458 1.369 . S
C459 C460 1.410 . S
C459 C467 1.503 . S
C460 C459 1.410 . S
C460 C461 1.392 . S
C460 C463 1.511 . S
C461 C457 1.376 . S
C461 C460 1.392 . S
C461 H473 0.929 . S
C462 C458 1.531 . S
C462 H474 0.960 . S
C462 H475 0.962 . S
C462 H476 0.960 . S
C463 C460 1.511 . S
C463 H477 0.961 . S
C463 H478 0.961 . S
C463 H479 0.961 . S
C464 C465 1.370 . S
C464 C466 1.363 . S
C464 H480 0.931 . S
C465 C464 1.370 . S
C465 C469 1.408 . S
C466 C464 1.363 . S
C466 C467 1.370 . S
C466 C470 1.524 . S
C467 C459 1.503 . S
C467 C466 1.370 . S
C467 C468 1.403 . S
C468 C467 1.403 . S
C468 C469 1.404 . S
C468 C471 1.539 . S
C469 C465 1.408 . S
C469 C468 1.404 . S
C469 H481 0.930 . S
C470 C466 1.524 . S
C470 H482 0.956 . S
C470 H483 0.961 . S
C470 H484 0.961 . S
C471 C468 1.539 . S
C471 H485 0.958 . S
C471 H486 0.961 . S
C471 H487 0.960 . S
H472 C456 0.931 . S
H473 C461 0.929 . S
H474 C462 0.960 . S
H475 C462 0.962 . S
H476 C462 0.960 . S
H477 C463 0.961 . S
H478 C463 0.961 . S
H479 C463 0.961 . S
H480 C464 0.931 . S
H481 C469 0.930 . S
H482 C470 0.956 . S
H483 C470 0.961 . S
H484 C470 0.961 . S
H485 C471 0.958 . S
H486 C471 0.961 . S
H487 C471 0.960 . S
C488 C489 1.391 . S
C488 C490 1.394 . S
C488 H504 0.931 . S
C489 C488 1.391 . S
C489 C493 1.376 . S
C490 C488 1.394 . S
C490 C491 1.369 . S
C490 C494 1.531 . S
C491 C490 1.369 . S
C491 C492 1.410 . S
C491 C499 1.503 . S
C492 C491 1.410 . S
C492 C493 1.392 . S
C492 C495 1.511 . S
C493 C489 1.376 . S
C493 C492 1.392 . S
C493 H505 0.929 . S
C494 C490 1.531 . S
C494 H506 0.960 . S
C494 H507 0.962 . S
C494 H508 0.960 . S
C495 C492 1.511 . S
C495 H509 0.961 . S
C495 H510 0.961 . S
C495 H511 0.961 . S
C496 C497 1.370 . S
C496 C498 1.363 . S
C496 H512 0.931 . S
C497 C496 1.370 . S
C497 C501 1.408 . S
C498 C496 1.363 . S
C498 C499 1.370 . S
C498 C502 1.524 . S
C499 C491 1.503 . S
C499 C498 1.370 . S
C499 C500 1.403 . S
C500 C499 1.403 . S
C500 C501 1.404 . S
C500 C503 1.539 . S
C501 C497 1.408 . S
C501 C500 1.404 . S
C501 H513 0.930 . S
C502 C498 1.524 . S
C502 H514 0.956 . S
C502 H515 0.961 . S
C502 H516 0.961 . S
C503 C500 1.539 . S
C503 H517 0.958 . S
C503 H518 0.961 . S
C503 H519 0.960 . S
H504 C488 0.931 . S
H505 C493 0.929 . S
H506 C494 0.960 . S
H507 C494 0.962 . S
H508 C494 0.960 . S
H509 C495 0.961 . S
H510 C495 0.961 . S
H511 C495 0.961 . S
H512 C496 0.931 . S
H513 C501 0.930 . S
H514 C502 0.956 . S
H515 C502 0.961 . S
H516 C502 0.961 . S
H517 C503 0.958 . S
H518 C503 0.961 . S
H519 C503 0.960 . S
C520 C521 1.391 . S
C520 C522 1.394 . S
C520 H536 0.931 . S
C521 C520 1.391 . S
C521 C525 1.376 1_556 S
C522 C520 1.394 . S
C522 C523 1.369 1_556 S
C522 C526 1.531 . S
C523 C522 1.369 1_554 S
C523 C524 1.410 . S
C523 C531 1.503 . S
C524 C523 1.410 . S
C524 C525 1.392 . S
C524 C527 1.511 . S
C525 C521 1.376 1_554 S
C525 C524 1.392 . S
C525 H537 0.929 . S
C526 C522 1.531 . S
C526 H538 0.960 . S
C526 H539 0.962 . S
C526 H540 0.960 . S
C527 C524 1.511 . S
C527 H541 0.961 . S
C527 H542 0.961 . S
C527 H543 0.961 . S
C528 C529 1.370 . S
C528 C530 1.363 . S
C528 H544 0.931 . S
C529 C528 1.370 . S
C529 C533 1.408 . S
C530 C528 1.363 . S
C530 C531 1.370 . S
C530 C534 1.524 . S
C531 C523 1.503 . S
C531 C530 1.370 . S
C531 C532 1.403 . S
C532 C531 1.403 . S
C532 C533 1.404 . S
C532 C535 1.539 . S
C533 C529 1.408 . S
C533 C532 1.404 . S
C533 H545 0.930 . S
C534 C530 1.524 . S
C534 H546 0.956 1_554 S
C534 H547 0.961 . S
C534 H548 0.961 . S
C535 C532 1.539 . S
C535 H549 0.958 1_554 S
C535 H550 0.961 . S
C535 H551 0.960 . S
H536 C520 0.931 . S
H537 C525 0.929 . S
H538 C526 0.960 . S
H539 C526 0.962 . S
H540 C526 0.960 . S
H541 C527 0.961 . S
H542 C527 0.961 . S
H543 C527 0.961 . S
H544 C528 0.931 . S
H545 C533 0.930 . S
H546 C534 0.956 1_556 S
H547 C534 0.961 . S
H548 C534 0.961 . S
H549 C535 0.958 1_556 S
H550 C535 0.961 . S
H551 C535 0.960 . S
C552 C553 1.391 . S
C552 C554 1.394 . S
C552 H568 0.931 . S
C553 C552 1.391 . S
C553 C557 1.376 . S
C554 C552 1.394 . S
C554 C555 1.369 . S
C554 C558 1.531 . S
C555 C554 1.369 . S
C555 C556 1.410 . S
C555 C563 1.503 1_545 S
C556 C555 1.410 . S
C556 C557 1.392 . S
C556 C559 1.511 1_545 S
C557 C553 1.376 . S
C557 C556 1.392 . S
C557 H569 0.929 . S
C558 C554 1.531 . S
C558 H570 0.960 . S
C558 H571 0.962 . S
C558 H572 0.960 . S
C559 C556 1.511 1_565 S
C559 H573 0.957 1_565 S
C559 H574 0.961 . S
C559 H575 0.961 . S
C560 C561 1.370 . S
C560 C562 1.363 . S
C560 H576 0.931 . S
C561 C560 1.370 . S
C561 C565 1.408 . S
C562 C560 1.363 . S
C562 C563 1.370 . S
C562 C566 1.524 . S
C563 C555 1.503 1_565 S
C563 C562 1.370 . S
C563 C564 1.403 . S
C564 C563 1.403 . S
C564 C565 1.404 . S
C564 C567 1.539 . S
C565 C561 1.408 . S
C565 C564 1.404 . S
C565 H577 0.930 . S
C566 C562 1.524 . S
C566 H578 0.956 1_565 S
C566 H579 0.961 1_565 S
C566 H580 0.961 . S
C567 C564 1.539 . S
C567 H581 0.958 . S
C567 H582 0.961 . S
C567 H583 0.960 . S
H568 C552 0.931 . S
H569 C557 0.929 . S
H570 C558 0.960 . S
H571 C558 0.962 . S
H572 C558 0.960 . S
H573 C559 0.957 1_545 S
H574 C559 0.961 . S
H575 C559 0.961 . S
H576 C560 0.931 . S
H577 C565 0.930 . S
H578 C566 0.956 1_545 S
H579 C566 0.961 1_545 S
H580 C566 0.961 . S
H581 C567 0.958 . S
H582 C567 0.961 . S
H583 C567 0.960 . S
C584 C585 1.391 . S
C584 C586 1.394 . S
C584 H600 0.931 . S
C585 C584 1.391 . S
C585 C589 1.376 . S
C586 C584 1.394 . S
C586 C587 1.369 . S
C586 C590 1.531 . S
C587 C586 1.369 . S
C587 C588 1.410 . S
C587 C595 1.503 . S
C588 C587 1.410 . S
C588 C589 1.392 . S
C588 C591 1.511 . S
C589 C585 1.376 . S
C589 C588 1.392 . S
C589 H601 0.929 . S
C590 C586 1.531 . S
C590 H602 0.960 . S
C590 H603 0.962 . S
C590 H604 0.960 . S
C591 C588 1.511 . S
C591 H605 0.961 . S
C591 H606 0.961 . S
C591 H607 0.961 . S
C592 C593 1.370 . S
C592 C594 1.363 . S
C592 H608 0.931 . S
C593 C592 1.370 . S
C593 C597 1.408 . S
C594 C592 1.363 . S
C594 C595 1.370 . S
C594 C598 1.524 . S
C595 C587 1.503 . S
C595 C594 1.370 . S
C595 C596 1.403 . S
C596 C595 1.403 . S
C596 C597 1.404 . S
C596 C599 1.539 . S
C597 C593 1.408 . S
C597 C596 1.404 . S
C597 H609 0.930 . S
C598 C594 1.524 . S
C598 H610 0.956 . S
C598 H611 0.961 . S
C598 H612 0.961 . S
C599 C596 1.539 . S
C599 H613 0.958 . S
C599 H614 0.961 . S
C599 H615 0.960 . S
H600 C584 0.931 . S
H601 C589 0.929 . S
H602 C590 0.960 . S
H603 C590 0.962 . S
H604 C590 0.960 . S
H605 C591 0.961 . S
H606 C591 0.961 . S
H607 C591 0.961 . S
H608 C592 0.931 . S
H609 C597 0.930 . S
H610 C598 0.956 . S
H611 C598 0.961 . S
H612 C598 0.961 . S
H613 C599 0.958 . S
H614 C599 0.961 . S
H615 C599 0.960 . S
C616 C617 1.391 . S
C616 C618 1.394 . S
C616 H632 0.931 . S
C617 C616 1.391 . S
C617 C621 1.376 . S
C618 C616 1.394 . S
C618 C619 1.369 . S
C618 C622 1.531 1_655 S
C619 C618 1.369 . S
C619 C620 1.410 . S
C619 C627 1.503 1_655 S
C620 C619 1.410 . S
C620 C621 1.392 . S
C620 C623 1.511 . S
C621 C617 1.376 . S
C621 C620 1.392 . S
C621 H633 0.929 . S
C622 C618 1.531 1_455 S
C622 H634 0.960 . S
C622 H635 0.962 . S
C622 H636 0.960 . S
C623 C620 1.511 . S
C623 H637 0.961 . S
C623 H638 0.961 . S
C623 H639 0.961 . S
C624 C625 1.370 1_554 S
C624 C626 1.363 . S
C624 H640 0.931 . S
C625 C624 1.370 1_556 S
C625 C629 1.408 . S
C626 C624 1.363 . S
C626 C627 1.370 1_554 S
C626 C630 1.524 . S
C627 C619 1.503 1_455 S
C627 C626 1.370 1_556 S
C627 C628 1.403 . S
C628 C627 1.403 . S
C628 C629 1.404 . S
C628 C631 1.539 . S
C629 C625 1.408 . S
C629 C628 1.404 . S
C629 H641 0.930 . S
C630 C626 1.524 . S
C630 H642 0.956 . S
C630 H643 0.961 1_455 S
C630 H644 0.961 . S
C631 C628 1.539 . S
C631 H645 0.958 . S
C631 H646 0.961 . S
C631 H647 0.960 1_455 S
H632 C616 0.931 . S
H633 C621 0.929 . S
H634 C622 0.960 . S
H635 C622 0.962 . S
H636 C622 0.960 . S
H637 C623 0.961 . S
H638 C623 0.961 . S
H639 C623 0.961 . S
H640 C624 0.931 . S
H641 C629 0.930 . S
H642 C630 0.956 . S
H643 C630 0.961 1_655 S
H644 C630 0.961 . S
H645 C631 0.958 . S
H646 C631 0.961 . S
H647 C631 0.960 1_655 S
C648 C649 1.391 . S
C648 C650 1.394 . S
C648 H664 0.931 . S
C649 C648 1.391 . S
C649 C653 1.376 . S
C650 C648 1.394 . S
C650 C651 1.369 . S
C650 C654 1.531 . S
C651 C650 1.369 . S
C651 C652 1.410 . S
C651 C659 1.503 1_455 S
C652 C651 1.410 . S
C652 C653 1.392 . S
C652 C655 1.511 1_455 S
C653 C649 1.376 . S
C653 C652 1.392 . S
C653 H665 0.929 . S
C654 C650 1.531 . S
C654 H666 0.960 . S
C654 H667 0.962 . S
C654 H668 0.960 . S
C655 C652 1.511 1_655 S
C655 H669 0.944 1_655 S
C655 H670 0.961 . S
C655 H671 0.961 . S
C656 C657 1.370 . S
C656 C658 1.363 . S
C656 H672 0.931 . S
C657 C656 1.370 . S
C657 C661 1.408 . S
C658 C656 1.363 . S
C658 C659 1.370 . S
C658 C662 1.524 . S
C659 C651 1.503 1_655 S
C659 C658 1.370 . S
C659 C660 1.403 . S
C660 C659 1.403 . S
C660 C661 1.404 . S
C660 C663 1.539 . S
C661 C657 1.408 . S
C661 C660 1.404 . S
C661 H673 0.930 . S
C662 C658 1.524 . S
C662 H674 0.956 1_655 S
C662 H675 0.961 1_655 S
C662 H676 0.961 . S
C663 C660 1.539 . S
C663 H677 0.958 . S
C663 H678 0.961 . S
C663 H679 0.960 . S
H664 C648 0.931 . S
H665 C653 0.929 . S
H666 C654 0.960 . S
H667 C654 0.962 . S
H668 C654 0.960 . S
H669 C655 0.944 1_455 S
H670 C655 0.961 . S
H671 C655 0.961 . S
H672 C656 0.931 . S
H673 C661 0.930 . S
H674 C662 0.956 1_455 S
H675 C662 0.961 1_455 S
H676 C662 0.961 . S
H677 C663 0.958 . S
H678 C663 0.961 . S
H679 C663 0.960 . S
C680 C681 1.391 . S
C680 C682 1.394 . S
C680 H696 0.931 . S
C681 C680 1.391 . S
C681 C685 1.376 . S
C682 C680 1.394 . S
C682 C683 1.369 . S
C682 C686 1.531 1_545 S
C683 C682 1.369 . S
C683 C684 1.410 . S
C683 C691 1.503 1_545 S
C684 C683 1.410 . S
C684 C685 1.392 . S
C684 C687 1.511 . S
C685 C681 1.376 . S
C685 C684 1.392 . S
C685 H697 0.929 . S
C686 C682 1.531 1_565 S
C686 H698 0.960 . S
C686 H699 0.962 . S
C686 H700 0.960 1_565 S
C687 C684 1.511 . S
C687 H701 0.961 . S
C687 H702 0.961 . S
C687 H703 0.961 . S
C688 C689 1.370 . S
C688 C690 1.363 . S
C688 H704 0.931 . S
C689 C688 1.370 . S
C689 C693 1.408 . S
C690 C688 1.363 . S
C690 C691 1.370 . S
C690 C694 1.524 . S
C691 C683 1.503 1_565 S
C691 C690 1.370 . S
C691 C692 1.403 . S
C692 C691 1.403 . S
C692 C693 1.404 . S
C692 C695 1.539 . S
C693 C689 1.408 . S
C693 C692 1.404 . S
C693 H705 0.930 . S
C694 C690 1.524 . S
C694 H706 0.956 . S
C694 H707 0.961 . S
C694 H708 0.961 . S
C695 C692 1.539 . S
C695 H709 0.958 . S
C695 H710 0.961 . S
C695 H711 0.960 1_565 S
H696 C680 0.931 . S
H697 C685 0.929 . S
H698 C686 0.960 . S
H699 C686 0.962 . S
H700 C686 0.960 1_545 S
H701 C687 0.961 . S
H702 C687 0.961 . S
H703 C687 0.961 . S
H704 C688 0.931 . S
H705 C693 0.930 . S
H706 C694 0.956 . S
H707 C694 0.961 . S
H708 C694 0.961 . S
H709 C695 0.958 . S
H710 C695 0.961 . S
H711 C695 0.960 1_545 S
C712 C713 1.391 . S
C712 C714 1.394 . S
C712 H728 0.931 1_554 S
C713 C712 1.391 . S
C713 C717 1.376 . S
C714 C712 1.394 . S
C714 C715 1.369 . S
C714 C718 1.531 1_554 S
C715 C714 1.369 . S
C715 C716 1.410 . S
C715 C723 1.503 . S
C716 C715 1.410 . S
C716 C717 1.392 . S
C716 C719 1.511 . S
C717 C713 1.376 . S
C717 C716 1.392 . S
C717 H729 0.929 . S
C718 C714 1.531 1_556 S
C718 H730 0.960 . S
C718 H731 0.962 . S
C718 H732 0.960 . S
C719 C716 1.511 . S
C719 H733 0.961 . S
C719 H734 0.961 . S
C719 H735 0.961 . S
C720 C721 1.370 . S
C720 C722 1.363 . S
C720 H736 0.931 . S
C721 C720 1.370 . S
C721 C725 1.408 . S
C722 C720 1.363 . S
C722 C723 1.370 . S
C722 C726 1.524 . S
C723 C715 1.503 . S
C723 C722 1.370 . S
C723 C724 1.403 . S
C724 C723 1.403 . S
C724 C725 1.404 . S
C724 C727 1.539 . S
C725 C721 1.408 . S
C725 C724 1.404 . S
C725 H737 0.930 . S
C726 C722 1.524 . S
C726 H738 0.956 . S
C726 H739 0.961 . S
C726 H740 0.961 . S
C727 C724 1.539 . S
C727 H741 0.958 1_554 S
C727 H742 0.961 . S
C727 H743 0.960 . S
H728 C712 0.931 1_556 S
H729 C717 0.929 . S
H730 C718 0.960 . S
H731 C718 0.962 . S
H732 C718 0.960 . S
H733 C719 0.961 . S
H734 C719 0.961 . S
H735 C719 0.961 . S
H736 C720 0.931 . S
H737 C725 0.930 . S
H738 C726 0.956 . S
H739 C726 0.961 . S
H740 C726 0.961 . S
H741 C727 0.958 1_556 S
H742 C727 0.961 . S
H743 C727 0.960 . S
C744 C745 1.391 . S
C744 C746 1.394 . S
C744 H760 0.931 . S
C745 C744 1.391 . S
C745 C749 1.376 . S
C746 C744 1.394 . S
C746 C747 1.369 . S
C746 C750 1.531 . S
C747 C746 1.369 . S
C747 C748 1.410 . S
C747 C755 1.503 . S
C748 C747 1.410 . S
C748 C749 1.392 . S
C748 C751 1.511 . S
C749 C745 1.376 . S
C749 C748 1.392 . S
C749 H761 0.929 . S
C750 C746 1.531 . S
C750 H762 0.960 . S
C750 H763 0.962 . S
C750 H764 0.960 . S
C751 C748 1.511 . S
C751 H765 0.961 . S
C751 H766 0.961 . S
C751 H767 0.961 . S
C752 C753 1.370 . S
C752 C754 1.363 . S
C752 H768 0.931 . S
C753 C752 1.370 . S
C753 C757 1.408 . S
C754 C752 1.363 . S
C754 C755 1.370 . S
C754 C758 1.524 . S
C755 C747 1.503 . S
C755 C754 1.370 . S
C755 C756 1.403 . S
C756 C755 1.403 . S
C756 C757 1.404 . S
C756 C759 1.539 . S
C757 C753 1.408 . S
C757 C756 1.404 . S
C757 H769 0.930 . S
C758 C754 1.524 . S
C758 H770 0.956 . S
C758 H771 0.961 . S
C758 H772 0.961 . S
C759 C756 1.539 . S
C759 H773 0.958 . S
C759 H774 0.961 . S
C759 H775 0.960 . S
H760 C744 0.931 . S
H761 C749 0.929 . S
H762 C750 0.960 . S
H763 C750 0.962 . S
H764 C750 0.960 . S
H765 C751 0.961 . S
H766 C751 0.961 . S
H767 C751 0.961 . S
H768 C752 0.931 . S
H769 C757 0.930 . S
H770 C758 0.956 . S
H771 C758 0.961 . S
H772 C758 0.961 . S
H773 C759 0.958 . S
H774 C759 0.961 . S
H775 C759 0.960 . S
C776 C777 1.391 . S
C776 C778 1.394 . S
C776 H792 0.931 . S
C777 C776 1.391 . S
C777 C781 1.376 . S
C778 C776 1.394 . S
C778 C779 1.369 . S
C778 C782 1.531 . S
C779 C778 1.369 . S
C779 C780 1.410 . S
C779 C787 1.503 . S
C780 C779 1.410 . S
C780 C781 1.392 . S
C780 C783 1.511 . S
C781 C777 1.376 . S
C781 C780 1.392 . S
C781 H793 0.929 . S
C782 C778 1.531 . S
C782 H794 0.960 . S
C782 H795 0.962 . S
C782 H796 0.960 . S
C783 C780 1.511 . S
C783 H797 0.961 . S
C783 H798 0.961 . S
C783 H799 0.961 . S
C784 C785 1.370 . S
C784 C786 1.363 . S
C784 H800 0.931 . S
C785 C784 1.370 . S
C785 C789 1.408 . S
C786 C784 1.363 . S
C786 C787 1.370 . S
C786 C790 1.524 . S
C787 C779 1.503 . S
C787 C786 1.370 . S
C787 C788 1.403 . S
C788 C787 1.403 . S
C788 C789 1.404 . S
C788 C791 1.539 . S
C789 C785 1.408 . S
C789 C788 1.404 . S
C789 H801 0.930 . S
C790 C786 1.524 . S
C790 H802 0.956 . S
C790 H803 0.961 . S
C790 H804 0.961 . S
C791 C788 1.539 . S
C791 H805 0.958 . S
C791 H806 0.961 . S
C791 H807 0.960 . S
H792 C776 0.931 . S
H793 C781 0.929 . S
H794 C782 0.960 . S
H795 C782 0.962 . S
H796 C782 0.960 . S
H797 C783 0.961 . S
H798 C783 0.961 . S
H799 C783 0.961 . S
H800 C784 0.931 . S
H801 C789 0.930 . S
H802 C790 0.956 . S
H803 C790 0.961 . S
H804 C790 0.961 . S
H805 C791 0.958 . S
H806 C791 0.961 . S
H807 C791 0.960 . S
C808 C809 1.391 . S
C808 C810 1.394 . S
C808 H824 0.931 . S
C809 C808 1.391 . S
C809 C813 1.376 . S
C810 C808 1.394 . S
C810 C811 1.369 . S
C810 C814 1.531 . S
C811 C810 1.369 . S
C811 C812 1.410 . S
C811 C819 1.503 . S
C812 C811 1.410 . S
C812 C813 1.392 . S
C812 C815 1.511 . S
C813 C809 1.376 . S
C813 C812 1.392 . S
C813 H825 0.929 . S
C814 C810 1.531 . S
C814 H826 0.960 . S
C814 H827 0.962 . S
C814 H828 0.960 . S
C815 C812 1.511 . S
C815 H829 0.961 . S
C815 H830 0.961 . S
C815 H831 0.961 . S
C816 C817 1.370 . S
C816 C818 1.363 . S
C816 H832 0.931 . S
C817 C816 1.370 . S
C817 C821 1.408 . S
C818 C816 1.363 . S
C818 C819 1.370 . S
C818 C822 1.524 . S
C819 C811 1.503 . S
C819 C818 1.370 . S
C819 C820 1.403 . S
C820 C819 1.403 . S
C820 C821 1.404 . S
C820 C823 1.539 . S
C821 C817 1.408 . S
C821 C820 1.404 . S
C821 H833 0.930 . S
C822 C818 1.524 . S
C822 H834 0.956 . S
C822 H835 0.961 . S
C822 H836 0.961 . S
C823 C820 1.539 . S
C823 H837 0.958 . S
C823 H838 0.961 . S
C823 H839 0.960 . S
H824 C808 0.931 . S
H825 C813 0.929 . S
H826 C814 0.960 . S
H827 C814 0.962 . S
H828 C814 0.960 . S
H829 C815 0.961 . S
H830 C815 0.961 . S
H831 C815 0.961 . S
H832 C816 0.931 . S
H833 C821 0.930 . S
H834 C822 0.956 . S
H835 C822 0.961 . S
H836 C822 0.961 . S
H837 C823 0.958 . S
H838 C823 0.961 . S
H839 C823 0.960 . S
C840 C841 1.391 . S
C840 C842 1.394 . S
C840 H856 0.931 . S
C841 C840 1.391 . S
C841 C845 1.376 . S
C842 C840 1.394 . S
C842 C843 1.369 . S
C842 C846 1.531 . S
C843 C842 1.369 . S
C843 C844 1.410 . S
C843 C851 1.503 . S
C844 C843 1.410 . S
C844 C845 1.392 . S
C844 C847 1.511 . S
C845 C841 1.376 . S
C845 C844 1.392 . S
C845 H857 0.929 . S
C846 C842 1.531 . S
C846 H858 0.960 . S
C846 H859 0.962 . S
C846 H860 0.960 . S
C847 C844 1.511 . S
C847 H861 0.961 . S
C847 H862 0.961 . S
C847 H863 0.961 . S
C848 C849 1.370 . S
C848 C850 1.363 . S
C848 H864 0.931 . S
C849 C848 1.370 . S
C849 C853 1.408 . S
C850 C848 1.363 . S
C850 C851 1.370 . S
C850 C854 1.524 . S
C851 C843 1.503 . S
C851 C850 1.370 . S
C851 C852 1.403 . S
C852 C851 1.403 . S
C852 C853 1.404 . S
C852 C855 1.539 . S
C853 C849 1.408 . S
C853 C852 1.404 . S
C853 H865 0.930 . S
C854 C850 1.524 . S
C854 H866 0.956 . S
C854 H867 0.961 . S
C854 H868 0.961 . S
C855 C852 1.539 . S
C855 H869 0.958 . S
C855 H870 0.961 . S
C855 H871 0.960 . S
H856 C840 0.931 . S
H857 C845 0.929 . S
H858 C846 0.960 . S
H859 C846 0.962 . S
H860 C846 0.960 . S
H861 C847 0.961 . S
H862 C847 0.961 . S
H863 C847 0.961 . S
H864 C848 0.931 . S
H865 C853 0.930 . S
H866 C854 0.956 . S
H867 C854 0.961 . S
H868 C854 0.961 . S
H869 C855 0.958 . S
H870 C855 0.961 . S
H871 C855 0.960 . S
C872 C873 1.391 . S
C872 C874 1.394 . S
C872 H888 0.931 . S
C873 C872 1.391 . S
C873 C877 1.376 . S
C874 C872 1.394 . S
C874 C875 1.369 . S
C874 C878 1.531 . S
C875 C874 1.369 . S
C875 C876 1.410 . S
C875 C883 1.503 . S
C876 C875 1.410 . S
C876 C877 1.392 . S
C876 C879 1.511 . S
C877 C873 1.376 . S
C877 C876 1.392 . S
C877 H889 0.929 . S
C878 C874 1.531 . S
C878 H890 0.960 . S
C878 H891 0.962 . S
C878 H892 0.960 . S
C879 C876 1.511 . S
C879 H893 0.961 . S
C879 H894 0.961 . S
C879 H895 0.961 . S
C880 C881 1.370 . S
C880 C882 1.363 . S
C880 H896 0.931 . S
C881 C880 1.370 . S
C881 C885 1.408 . S
C882 C880 1.363 . S
C882 C883 1.370 . S
C882 C886 1.524 . S
C883 C875 1.503 . S
C883 C882 1.370 . S
C883 C884 1.403 . S
C884 C883 1.403 . S
C884 C885 1.404 . S
C884 C887 1.539 . S
C885 C881 1.408 . S
C885 C884 1.404 . S
C885 H897 0.930 . S
C886 C882 1.524 . S
C886 H898 0.956 . S
C886 H899 0.961 . S
C886 H900 0.961 . S
C887 C884 1.539 . S
C887 H901 0.958 . S
C887 H902 0.961 . S
C887 H903 0.960 . S
H888 C872 0.931 . S
H889 C877 0.929 . S
H890 C878 0.960 . S
H891 C878 0.962 . S
H892 C878 0.960 . S
H893 C879 0.961 . S
H894 C879 0.961 . S
H895 C879 0.961 . S
H896 C880 0.931 . S
H897 C885 0.930 . S
H898 C886 0.956 . S
H899 C886 0.961 . S
H900 C886 0.961 . S
H901 C887 0.958 . S
H902 C887 0.961 . S
H903 C887 0.960 . S
C904 C905 1.391 . S
C904 C906 1.394 . S
C904 H920 0.931 . S
C905 C904 1.391 . S
C905 C909 1.376 . S
C906 C904 1.394 . S
C906 C907 1.369 . S
C906 C910 1.531 . S
C907 C906 1.369 . S
C907 C908 1.410 . S
C907 C915 1.503 . S
C908 C907 1.410 . S
C908 C909 1.392 . S
C908 C911 1.511 . S
C909 C905 1.376 . S
C909 C908 1.392 . S
C909 H921 0.929 . S
C910 C906 1.531 . S
C910 H922 0.960 . S
C910 H923 0.962 . S
C910 H924 0.960 . S
C911 C908 1.511 . S
C911 H925 0.961 . S
C911 H926 0.961 . S
C911 H927 0.961 . S
C912 C913 1.370 . S
C912 C914 1.363 . S
C912 H928 0.931 . S
C913 C912 1.370 . S
C913 C917 1.408 . S
C914 C912 1.363 . S
C914 C915 1.370 . S
C914 C918 1.524 . S
C915 C907 1.503 . S
C915 C914 1.370 . S
C915 C916 1.403 . S
C916 C915 1.403 . S
C916 C917 1.404 . S
C916 C919 1.539 . S
C917 C913 1.408 . S
C917 C916 1.404 . S
C917 H929 0.930 . S
C918 C914 1.524 . S
C918 H930 0.956 . S
C918 H931 0.961 . S
C918 H932 0.961 . S
C919 C916 1.539 . S
C919 H933 0.958 . S
C919 H934 0.961 . S
C919 H935 0.960 . S
H920 C904 0.931 . S
H921 C909 0.929 . S
H922 C910 0.960 . S
H923 C910 0.962 . S
H924 C910 0.960 . S
H925 C911 0.961 . S
H926 C911 0.961 . S
H927 C911 0.961 . S
H928 C912 0.931 . S
H929 C917 0.930 . S
H930 C918 0.956 . S
H931 C918 0.961 . S
H932 C918 0.961 . S
H933 C919 0.958 . S
H934 C919 0.961 . S
H935 C919 0.960 . S
C169 C7 1.600 . S
C177 C147 1.586 . S
C201 C21 1.627 . S
C209 C161 1.608 . S
C233 C91 1.569 . S
C241 C35 1.592 . S
C265 C49 1.568 . S
C273 C105 1.611 . S
C297 C119 1.575 . S
C305 C63 1.614 . S
C329 C133 1.594 . S
C337 C77 1.586 . S
C361 C93 0.500 . S
C369 C9 0.436 . S
C393 C107 0.405 . S
C401 C23 0.449 . S
C425 C121 0.484 . S
C433 C37 0.434 . S
C457 C51 0.437 . S
C465 C135 0.499 . S
C489 C65 0.424 . S
C497 C149 0.496 . S
C521 C79 0.410 . S
C529 C163 0.446 . S
C553 C8 1.455 . S
C561 C50 1.456 . S
C585 C22 1.474 . S
C593 C64 1.460 . S
C617 C36 1.468 . S
C625 C78 1.466 . S
C649 C134 1.457 . S
C657 C92 1.457 . S
C681 C148 1.457 . S
C689 C106 1.469 . S
C713 C162 1.466 . S
C721 C120 1.455 . S
C745 C3 1.565 . S
C753 C115 1.557 . S
C777 C129 1.571 . S
C785 C17 1.553 . S
C809 C31 1.517 . S
C817 C143 1.532 . S
C841 C157 1.524 . S
C849 C45 1.546 . S
C873 C59 1.561 . S
C881 C87 1.557 . S
C905 C73 1.550 . S
C913 C101 1.540 . S
