# Generated by pormake.
# Topology dmp, (4)-cn, num edge types: 1
# Building blocks:
#     Node 0, Type 0, BuildingBlock: ICAMEG_clean_sbu_1, # of connection points: 4
#     Node 1, Type 0, BuildingBlock: ICAMEG_clean_sbu_1, # of connection points: 4
#     Node 2, Type 0, BuildingBlock: ICAMEG_clean_sbu_1, # of connection points: 4
#     Node 3, Type 0, BuildingBlock: ICAMEG_clean_sbu_1, # of connection points: 4
#     Edge 4, Type (0, 0), BuildingBlock: FUNLAD_clean_linker_0, # of connection points: 2
#     Edge 5, Type (0, 0), BuildingBlock: FUNLAD_clean_linker_0, # of connection points: 2
#     Edge 6, Type (0, 0), BuildingBlock: FUNLAD_clean_linker_0, # of connection points: 2
#     Edge 7, Type (0, 0), BuildingBlock: FUNLAD_clean_linker_0, # of connection points: 2
#     Edge 8, Type (0, 0), BuildingBlock: FUNLAD_clean_linker_0, # of connection points: 2
#     Edge 9, Type (0, 0), BuildingBlock: FUNLAD_clean_linker_0, # of connection points: 2
#     Edge 10, Type (0, 0), BuildingBlock: FUNLAD_clean_linker_0, # of connection points: 2
#     Edge 11, Type (0, 0), BuildingBlock: FUNLAD_clean_linker_0, # of connection points: 2
# Relax obj value: 0.009
# Max RMSD: 0.073
# Mean RMSD: 0.073
data_MOF--net-dmp--node1-ICAMEG_clean_sbu_1--edge1-FUNLAD_clean_linker_0
_symmetry_space_group_name_H-M    P1
_symmetry_Int_Tables_number       1
_symmetry_cell_setting            triclinic
loop_
_symmetry_equiv_pos_as_xyz
'x, y, z'
_cell_length_a     50.296597
_cell_length_b     22.147553
_cell_length_c     20.494076
_cell_angle_alpha  89.964357
_cell_angle_beta   90.22152
_cell_angle_gamma 90.186011
loop_
_atom_site_label
_atom_site_type_symbol
_atom_site_fract_x
_atom_site_fract_y
_atom_site_fract_z
_atom_type_partial_charge
Co0 Co 0.11807 0.24957 0.16914 0.0
Co1 Co 0.12029 0.24396 0.33744 0.0
O2 O 0.10108 0.24552 0.25457 0.0
C3 C 0.08432 0.14055 0.16105 0.0
O4 O 0.09472 0.1239 0.21708 0.0
C5 C 0.08385 0.34731 0.35162 0.0
O6 O 0.09176 0.36561 0.29389 0.0
O7 O 0.14252 0.31465 0.31152 0.0
O8 O 0.14478 0.30903 0.20213 0.0
H9 H 0.20148 0.24885 0.48106 0.0
H10 H 0.05993 0.2687 0.18052 0.0
O11 O 0.09158 0.1899 0.1345 0.0
H12 H 0.09532 0.45694 0.08542 0.0
H13 H 0.11799 0.25772 0.92365 0.0
H14 H 0.17376 0.25255 0.12204 0.0
H15 H 0.12521 0.37198 0.11083 0.0
H16 H 0.09742 0.25377 0.03267 0.0
O17 O 0.09332 0.29921 0.37637 0.0
H18 H 0.17711 0.24997 0.37642 0.0
H19 H 0.10358 0.23597 0.47663 0.0
H20 H 0.19515 0.25696 0.01404 0.0
H21 H 0.02929 0.35235 0.15536 0.0
H22 H 0.1672 0.25957 0.91388 0.0
H23 H 0.04697 0.44738 0.10765 0.0
O24 O 0.14286 0.18249 0.19175 0.0
H25 H 0.03504 0.1276 0.36308 0.0
H26 H 0.1323 0.12278 0.3938 0.0
H27 H 0.10551 0.03332 0.42282 0.0
H28 H 0.05651 0.03541 0.40755 0.0
H29 H 0.06262 0.21588 0.33421 0.0
H30 H 0.12715 0.23517 0.58242 0.0
H31 H 0.17646 0.24141 0.58505 0.0
O32 O 0.14755 0.18902 0.30057 0.0
C33 C 0.15188 0.33178 0.25669 0.0
C34 C 0.17999 0.24593 0.48056 0.0
C35 C 0.13827 0.23833 0.53744 0.0
N36 N 0.13897 0.24262 0.42041 0.0
C37 C 0.16609 0.24639 0.42144 0.0
C38 C 0.12503 0.23895 0.47741 0.0
C39 C 0.16594 0.24181 0.53888 0.0
C40 C 0.06773 0.3097 0.1592 0.0
N41 N 0.09431 0.31535 0.14692 0.0
C42 C 0.05031 0.357 0.1453 0.0
C43 C 0.06025 0.41034 0.11862 0.0
C44 C 0.08737 0.41575 0.10618 0.0
C45 C 0.10421 0.36754 0.12081 0.0
C46 C 0.13038 0.2567 0.96694 0.0
C47 C 0.16146 0.25402 0.07869 0.0
C48 C 0.11885 0.25432 0.02878 0.0
N49 N 0.13438 0.25335 0.08365 0.0
C50 C 0.17369 0.25635 0.01767 0.0
C51 C 0.158 0.25776 0.96149 0.0
C52 C 0.15395 0.16712 0.24535 0.0
C53 C 0.05637 0.1262 0.37014 0.0
C54 C 0.111 0.12399 0.38689 0.0
C55 C 0.09593 0.07324 0.40353 0.0
C56 C 0.06843 0.07446 0.39499 0.0
N57 N 0.09902 0.1746 0.36262 0.0
C58 C 0.07208 0.17614 0.35413 0.0
Co59 Co 0.38242 0.75743 0.33356 0.0
Co60 Co 0.38433 0.73356 0.16702 0.0
O61 O 0.40129 0.74734 0.25149 0.0
C62 C 0.41823 0.65487 0.35746 0.0
O63 O 0.40981 0.63305 0.30151 0.0
C64 C 0.4156 0.84453 0.14971 0.0
O65 O 0.40467 0.86266 0.2043 0.0
O66 O 0.35837 0.79983 0.18157 0.0
O67 O 0.35514 0.8092 0.29046 0.0
H68 H 0.30749 0.70401 0.01272 0.0
H69 H 0.44022 0.78356 0.32755 0.0
O70 O 0.40933 0.70507 0.37823 0.0
H71 H 0.39837 0.97499 0.39346 0.0
H72 H 0.37675 0.7898 0.57619 0.0
H73 H 0.32577 0.7563 0.37331 0.0
H74 H 0.37111 0.88372 0.37522 0.0
H75 H 0.39981 0.77825 0.47091 0.0
O76 O 0.40969 0.79279 0.12642 0.0
H77 H 0.32873 0.72076 0.11991 0.0
H78 H 0.40507 0.7187 0.03209 0.0
H79 H 0.30189 0.76807 0.47741 0.0
H80 H 0.46826 0.87364 0.34574 0.0
H81 H 0.32743 0.78497 0.57981 0.0
H82 H 0.44731 0.97028 0.37871 0.0
O83 O 0.35987 0.68534 0.31594 0.0
H84 H 0.47491 0.63853 0.1648 0.0
H85 H 0.37928 0.60555 0.12383 0.0
H86 H 0.41065 0.5214 0.10841 0.0
H87 H 0.45884 0.53768 0.12891 0.0
H88 H 0.44282 0.72129 0.18009 0.0
H89 H 0.38465 0.7024 0.92382 0.0
H90 H 0.33552 0.69471 0.91372 0.0
O91 O 0.35857 0.67517 0.20671 0.0
C92 C 0.3479 0.82259 0.23249 0.0
C93 C 0.32892 0.70707 0.01652 0.0
C94 C 0.37223 0.70625 0.96661 0.0
N95 N 0.36811 0.72015 0.08228 0.0
C96 C 0.34106 0.71637 0.07711 0.0
C97 C 0.38367 0.71559 0.028 0.0
C98 C 0.34466 0.70192 0.96098 0.0
C99 C 0.43101 0.82529 0.34259 0.0
N100 N 0.40409 0.82829 0.3507 0.0
C101 C 0.44696 0.87621 0.35252 0.0
C102 C 0.43519 0.93044 0.37093 0.0
C103 C 0.40773 0.93313 0.37917 0.0
C104 C 0.39239 0.88132 0.36869 0.0
C105 C 0.3654 0.7826 0.53188 0.0
C106 C 0.33701 0.76403 0.41761 0.0
C107 C 0.37835 0.77592 0.47216 0.0
N108 N 0.36413 0.76715 0.41598 0.0
C109 C 0.32338 0.77048 0.47643 0.0
C110 C 0.33773 0.7799 0.53388 0.0
C111 C 0.35112 0.66023 0.26406 0.0
C112 C 0.45397 0.63094 0.15552 0.0
C113 C 0.40022 0.61294 0.13292 0.0
C114 C 0.41789 0.56517 0.124 0.0
C115 C 0.44493 0.57434 0.13548 0.0
N116 N 0.40924 0.66835 0.15249 0.0
C117 C 0.43572 0.6777 0.16382 0.0
Co118 Co 0.88251 0.74635 0.8215 0.0
Co119 Co 0.88133 0.76616 0.65413 0.0
O120 O 0.89991 0.75483 0.73693 0.0
C121 C 0.91805 0.85109 0.83728 0.0
O122 O 0.90814 0.8707 0.78188 0.0
C123 C 0.91403 0.65763 0.63259 0.0
O124 O 0.90538 0.63755 0.68897 0.0
O125 O 0.85647 0.6983 0.67351 0.0
O126 O 0.85489 0.69193 0.783 0.0
H127 H 0.80111 0.78759 0.50922 0.0
H128 H 0.94033 0.72281 0.80988 0.0
O129 O 0.90991 0.80129 0.86128 0.0
H130 H 0.90111 0.53155 0.88737 0.0
H131 H 0.88155 0.72103 0.06556 0.0
H132 H 0.82664 0.7449 0.8674 0.0
H133 H 0.87289 0.62081 0.86868 0.0
H134 H 0.90256 0.73084 0.95746 0.0
O135 O 0.90632 0.70863 0.61114 0.0
H136 H 0.82477 0.77423 0.61387 0.0
H137 H 0.89907 0.78056 0.51629 0.0
H138 H 0.8048 0.73477 0.97442 0.0
H139 H 0.96932 0.63478 0.8284 0.0
H140 H 0.83232 0.72273 0.07447 0.0
H141 H 0.9497 0.53823 0.86725 0.0
O142 O 0.85903 0.81703 0.80437 0.0
H143 H 0.97083 0.86677 0.64107 0.0
H144 H 0.87445 0.89271 0.60704 0.0
H145 H 0.90473 0.97839 0.58659 0.0
H146 H 0.95332 0.96567 0.6036 0.0
H147 H 0.93979 0.78245 0.66145 0.0
H148 H 0.87621 0.7935 0.41051 0.0
H149 H 0.82688 0.79733 0.40658 0.0
O150 O 0.85608 0.82371 0.69514 0.0
C151 C 0.84702 0.67623 0.72617 0.0
C152 C 0.82261 0.78619 0.51033 0.0
C153 C 0.86477 0.78941 0.45491 0.0
N154 N 0.86327 0.77708 0.57122 0.0
C155 C 0.83612 0.7788 0.56945 0.0
C156 C 0.8776 0.78194 0.51493 0.0
C157 C 0.83709 0.79158 0.45274 0.0
C158 C 0.93169 0.68113 0.82739 0.0
N159 N 0.90498 0.67705 0.83853 0.0
C160 C 0.94818 0.63136 0.83753 0.0
C161 C 0.93716 0.57717 0.85924 0.0
C162 C 0.9099 0.57338 0.8705 0.0
C163 C 0.89401 0.62405 0.85972 0.0
C164 C 0.86935 0.72615 0.02232 0.0
C165 C 0.83874 0.73931 0.91067 0.0
C166 C 0.88113 0.73185 0.96101 0.0
N167 N 0.86583 0.738 0.90617 0.0
C168 C 0.82626 0.73377 0.97116 0.0
C169 C 0.84172 0.72708 0.02728 0.0
C170 C 0.84949 0.84032 0.75238 0.0
C171 C 0.94971 0.87283 0.63334 0.0
C172 C 0.89554 0.88689 0.61473 0.0
C173 C 0.91261 0.93552 0.60291 0.0
C174 C 0.93987 0.92834 0.61241 0.0
N175 N 0.90534 0.8326 0.63526 0.0
C176 C 0.93205 0.82518 0.64454 0.0
Co177 Co 0.62131 0.2423 0.67429 0.0
Co178 Co 0.61609 0.25878 0.84146 0.0
O179 O 0.60079 0.24892 0.75446 0.0
C180 C 0.58625 0.34655 0.65154 0.0
O181 O 0.59362 0.3659 0.70941 0.0
C182 C 0.58406 0.14763 0.85026 0.0
O183 O 0.59552 0.13115 0.79569 0.0
O184 O 0.64219 0.19282 0.8265 0.0
O185 O 0.64742 0.18786 0.71776 0.0
H186 H 0.68994 0.28063 0.00567 0.0
H187 H 0.56335 0.21722 0.672 0.0
O188 O 0.5955 0.29722 0.62934 0.0
H189 H 0.60581 0.0284 0.59996 0.0
H190 H 0.63189 0.22154 0.4312 0.0
H191 H 0.67872 0.24345 0.64176 0.0
H192 H 0.63299 0.11796 0.62681 0.0
H193 H 0.6067 0.22867 0.53396 0.0
O194 O 0.58994 0.19827 0.8762 0.0
H195 H 0.67074 0.26895 0.89544 0.0
H196 H 0.59281 0.26799 0.97452 0.0
H197 H 0.70469 0.23601 0.54026 0.0
H198 H 0.5354 0.12888 0.64515 0.0
H199 H 0.68125 0.22497 0.434 0.0
H200 H 0.55664 0.03356 0.60904 0.0
O201 O 0.64375 0.31308 0.69847 0.0
H202 H 0.52565 0.35451 0.83758 0.0
H203 H 0.62035 0.38462 0.89215 0.0
H204 H 0.58877 0.46826 0.90812 0.0
H205 H 0.54104 0.45343 0.88078 0.0
H206 H 0.55795 0.27223 0.82191 0.0
H207 H 0.61117 0.27917 0.08569 0.0
H208 H 0.66007 0.2858 0.10174 0.0
O209 O 0.64255 0.31869 0.80802 0.0
C210 C 0.65344 0.17176 0.77573 0.0
C211 C 0.6686 0.27799 0.99929 0.0
C212 C 0.62439 0.27709 0.04421 0.0
N213 N 0.63068 0.2683 0.92856 0.0
C214 C 0.65761 0.27156 0.93698 0.0
C215 C 0.61411 0.27064 0.98118 0.0
C216 C 0.65183 0.28083 0.05317 0.0
C217 C 0.57272 0.17609 0.65568 0.0
N218 N 0.59976 0.17285 0.65064 0.0
C219 C 0.5568 0.12614 0.64082 0.0
C220 C 0.56873 0.07264 0.62065 0.0
C221 C 0.59632 0.0697 0.61558 0.0
C222 C 0.61161 0.12052 0.63097 0.0
C223 C 0.64233 0.22623 0.4772 0.0
C224 C 0.66839 0.23828 0.59575 0.0
C225 C 0.62818 0.2304 0.53552 0.0
N226 N 0.64124 0.236 0.59381 0.0
C227 C 0.6832 0.23426 0.53842 0.0
C228 C 0.67003 0.22813 0.47881 0.0
C229 C 0.65126 0.33605 0.75261 0.0
C230 C 0.54639 0.36146 0.84985 0.0
C231 C 0.59962 0.37786 0.88006 0.0
C232 C 0.58182 0.42535 0.88931 0.0
C233 C 0.55504 0.41698 0.874 0.0
N234 N 0.59097 0.32352 0.85643 0.0
C235 C 0.56474 0.31496 0.84134 0.0
C236 C 0.31189 0.88648 0.27962 0.0
C237 C 0.32541 0.86503 0.22447 0.0
C238 C 0.28963 0.92327 0.2728 0.0
C239 C 0.2805 0.9406 0.21052 0.0
C240 C 0.29398 0.91923 0.15533 0.0
C241 C 0.31625 0.88195 0.16214 0.0
C242 C 0.25635 0.97851 0.20175 0.0
C243 C 0.24754 0.0161 0.2485 0.0
C244 C 0.22253 0.05134 0.2446 0.0
C245 C 0.21138 0.07128 0.30329 0.0
C246 C 0.18865 0.1069 0.30325 0.0
C247 C 0.1765 0.12423 0.24425 0.0
H248 H 0.21841 0.05381 0.13892 0.0
C249 C 0.18732 0.10346 0.18519 0.0
C250 C 0.21016 0.06732 0.18529 0.0
H251 H 0.1786 0.11638 0.13885 0.0
H252 H 0.31807 0.8738 0.32841 0.0
H253 H 0.2793 0.93633 0.31673 0.0
H254 H 0.28723 0.93126 0.10678 0.0
H255 H 0.32605 0.86588 0.11853 0.0
H256 H 0.24562 0.97459 0.15591 0.0
H257 H 0.2588 0.02066 0.29349 0.0
H258 H 0.22044 0.05964 0.34968 0.0
H259 H 0.18099 0.12186 0.34982 0.0
C260 C 0.18628 0.39555 0.31378 0.0
C261 C 0.17335 0.37782 0.25587 0.0
C262 C 0.20829 0.43437 0.31173 0.0
C263 C 0.21779 0.45628 0.25161 0.0
C264 C 0.20417 0.44051 0.19423 0.0
C265 C 0.18235 0.40152 0.19618 0.0
C266 C 0.24164 0.49578 0.24609 0.0
C267 C 0.26138 0.49788 0.2907 0.0
C268 C 0.28537 0.53651 0.28263 0.0
C269 C 0.29841 0.55867 0.33835 0.0
C270 C 0.32028 0.59738 0.33249 0.0
C271 C 0.32982 0.61416 0.27057 0.0
H272 H 0.28677 0.53293 0.17667 0.0
C273 C 0.31753 0.58954 0.21481 0.0
C274 C 0.29559 0.55111 0.22074 0.0
H275 H 0.32448 0.60084 0.16634 0.0
H276 H 0.17982 0.37842 0.36064 0.0
H277 H 0.21765 0.44703 0.35732 0.0
H278 H 0.21083 0.45724 0.14733 0.0
H279 H 0.17287 0.38918 0.15055 0.0
H280 H 0.24323 0.5229 0.2021 0.0
H281 H 0.25993 0.47161 0.33526 0.0
H282 H 0.29119 0.54737 0.38661 0.0
H283 H 0.32931 0.61514 0.37657 0.0
C284 C 0.68828 0.10428 0.72895 0.0
C285 C 0.67543 0.12801 0.78403 0.0
C286 C 0.71022 0.06656 0.73598 0.0
C287 C 0.72004 0.05187 0.79833 0.0
C288 C 0.70662 0.07341 0.85347 0.0
C289 C 0.68462 0.11146 0.84649 0.0
C290 C 0.74386 0.01311 0.80656 0.0
C291 C 0.76388 0.01365 0.76306 0.0
C292 C 0.78676 0.97148 0.76413 0.0
C293 C 0.80033 0.96171 0.70545 0.0
C294 C 0.821 0.92017 0.70218 0.0
C295 C 0.82895 0.88779 0.7579 0.0
H296 H 0.78569 0.94803 0.8672 0.0
C297 C 0.8161 0.89918 0.81748 0.0
C298 C 0.79515 0.94057 0.82061 0.0
H299 H 0.8218 0.87518 0.8614 0.0
H300 H 0.68162 0.11529 0.68006 0.0
H301 H 0.71932 0.0487 0.69231 0.0
H302 H 0.71354 0.06192 0.90203 0.0
H303 H 0.67513 0.12865 0.89001 0.0
H304 H 0.74461 0.98374 0.8489 0.0
H305 H 0.76287 0.04469 0.72204 0.0
H306 H 0.79445 0.98519 0.6613 0.0
H307 H 0.83045 0.91288 0.65548 0.0
C308 C 0.81325 0.60838 0.77851 0.0
C309 C 0.82496 0.63178 0.72155 0.0
C310 C 0.79139 0.5695 0.77469 0.0
C311 C 0.78058 0.55322 0.71375 0.0
C312 C 0.79278 0.57491 0.65683 0.0
C313 C 0.81462 0.61405 0.66059 0.0
C314 C 0.75711 0.51253 0.70792 0.0
C315 C 0.73819 0.50855 0.75422 0.0
C316 C 0.71511 0.4664 0.75116 0.0
C317 C 0.70211 0.4515 0.80952 0.0
C318 C 0.681 0.41037 0.80983 0.0
C319 C 0.67219 0.3834 0.75149 0.0
H320 H 0.71452 0.45271 0.64598 0.0
C321 C 0.68457 0.39993 0.69264 0.0
C322 C 0.70574 0.44103 0.69239 0.0
H323 H 0.6782 0.38044 0.64667 0.0
H324 H 0.82079 0.62044 0.82635 0.0
H325 H 0.78326 0.5519 0.81968 0.0
H326 H 0.78508 0.56242 0.60924 0.0
H327 H 0.82316 0.63095 0.61567 0.0
H328 H 0.75551 0.4858 0.66375 0.0
H329 H 0.73991 0.53626 0.79773 0.0
H330 H 0.70867 0.47078 0.85545 0.0
H331 H 0.67193 0.39904 0.85611 0.0
C332 C 0.05275 0.12081 0.06873 0.0
C333 C 0.06398 0.10249 0.12844 0.0
C334 C 0.03357 0.08527 0.03753 0.0
C335 C 0.02528 0.03011 0.06506 0.0
C336 C 0.03619 0.01232 0.12527 0.0
C337 C 0.05541 0.04795 0.15656 0.0
C338 C 0.00472 0.99112 0.03367 0.0
C339 C 0.99929 0.99226 0.96913 0.0
C340 C 0.97836 0.95483 0.93709 0.0
C341 C 0.96867 0.97312 0.87584 0.0
C342 C 0.94907 0.93959 0.84355 0.0
C343 C 0.93882 0.88656 0.87159 0.0
H344 H 0.97575 0.88432 0.01091 0.0
C345 C 0.94874 0.86761 0.93246 0.0
C346 C 0.96832 0.90125 0.96486 0.0
H347 H 0.94144 0.82662 0.95513 0.0
H348 H 0.05865 0.16296 0.04606 0.0
H349 H 0.02502 0.10205 0.99259 0.0
H350 H 0.02997 0.97045 0.14802 0.0
H351 H 0.0635 0.03273 0.20276 0.0
H352 H 0.99395 0.96038 0.06528 0.0
H353 H 0.01031 0.02273 0.93771 0.0
H354 H 0.97616 0.01385 0.85296 0.0
H355 H 0.94202 0.95527 0.7965 0.0
C356 C 0.55318 0.12283 0.94222 0.0
C357 C 0.56442 0.10729 0.88187 0.0
C358 C 0.53488 0.08445 0.97251 0.0
C359 C 0.52718 0.02976 0.94275 0.0
C360 C 0.5386 0.01414 0.88268 0.0
C361 C 0.55692 0.05251 0.8524 0.0
C362 C 0.50814 0.9869 0.97368 0.0
C363 C 0.49005 0.0035 0.01861 0.0
C364 C 0.47127 0.96093 0.05093 0.0
C365 C 0.45971 0.97843 0.1102 0.0
C366 C 0.44178 0.94054 0.14232 0.0
C367 C 0.43477 0.88425 0.1156 0.0
H368 H 0.47188 0.89 0.97739 0.0
C369 C 0.44613 0.86672 0.05601 0.0
C370 C 0.46413 0.90467 0.02385 0.0
H371 H 0.44099 0.82383 0.03386 0.0
H372 H 0.55872 0.16444 0.96657 0.0
H373 H 0.52736 0.09747 0.01979 0.0
H374 H 0.53324 0.97214 0.85885 0.0
H375 H 0.56521 0.0391 0.80593 0.0
H376 H 0.50915 0.94017 0.95812 0.0
H377 H 0.489 0.05037 0.0337 0.0
H378 H 0.46469 0.02157 0.13206 0.0
H379 H 0.43341 0.95552 0.18814 0.0
C380 C 0.94345 0.56739 0.61802 0.0
C381 C 0.93293 0.62162 0.59363 0.0
C382 C 0.96149 0.53391 0.58106 0.0
C383 C 0.96949 0.55423 0.51895 0.0
C384 C 0.9586 0.60789 0.49434 0.0
C385 C 0.94067 0.6414 0.5313 0.0
C386 C 0.98855 0.52032 0.47763 0.0
C387 C 0.00693 0.48228 0.50199 0.0
C388 C 0.02624 0.44852 0.46118 0.0
C389 C 0.0381 0.39669 0.48762 0.0
C390 C 0.05663 0.3638 0.45187 0.0
C391 C 0.06398 0.38228 0.3888 0.0
H392 H 0.02572 0.50802 0.37651 0.0
C393 C 0.05233 0.43443 0.36229 0.0
C394 C 0.0337 0.46736 0.39811 0.0
H395 H 0.0577 0.45007 0.31399 0.0
H396 H 0.93775 0.55069 0.66567 0.0
H397 H 0.96869 0.4918 0.60103 0.0
H398 H 0.9642 0.62434 0.44649 0.0
H399 H 0.93285 0.68283 0.51081 0.0
H400 H 0.98755 0.52831 0.42545 0.0
H401 H 0.00792 0.47466 0.55426 0.0
H402 H 0.03292 0.38134 0.53617 0.0
H403 H 0.06526 0.32394 0.47396 0.0
C404 C 0.44853 0.56648 0.37397 0.0
C405 C 0.43788 0.62103 0.39691 0.0
C406 C 0.46684 0.53418 0.41169 0.0
C407 C 0.47503 0.55601 0.47315 0.0
C408 C 0.4642 0.61029 0.49611 0.0
C409 C 0.44595 0.64262 0.45838 0.0
C410 C 0.49402 0.52275 0.51574 0.0
C411 C 0.51185 0.48263 0.49314 0.0
C412 C 0.5307 0.44878 0.5356 0.0
C413 C 0.54188 0.3953 0.51148 0.0
C414 C 0.55981 0.36204 0.54916 0.0
C415 C 0.56717 0.3818 0.61186 0.0
H416 H 0.53087 0.5108 0.61805 0.0
C417 C 0.55624 0.43563 0.63593 0.0
C418 C 0.53828 0.46893 0.5982 0.0
H419 H 0.56165 0.45233 0.68387 0.0
H420 H 0.4426 0.5484 0.327 0.0
H421 H 0.47397 0.49162 0.39291 0.0
H422 H 0.46995 0.62795 0.54342 0.0
H423 H 0.43806 0.68439 0.47768 0.0
H424 H 0.49323 0.53256 0.56754 0.0
H425 H 0.51264 0.47308 0.44127 0.0
H426 H 0.5366 0.37889 0.46332 0.0
H427 H 0.56791 0.32086 0.52898 0.0
loop_
_geom_bond_atom_site_label_1
_geom_bond_atom_site_label_2
_geom_bond_distance
_geom_bond_site_symmetry_2
_ccdc_geom_bond_type
Co0 O2 2.143 . S
Co0 O8 2.074 . S
Co0 O11 2.093 . S
Co0 O24 2.097 . S
Co0 N41 2.151 . S
Co0 N49 2.214 . S
Co1 O2 2.160 . S
Co1 O7 2.058 . S
Co1 O17 2.057 . S
Co1 O32 2.037 . S
Co1 N36 2.145 . S
Co1 N57 2.257 . S
O2 Co0 2.143 . S
O2 Co1 2.160 . S
C3 O4 1.278 . S
C3 O11 1.224 . S
O4 C3 1.278 . S
C5 O6 1.245 . S
C5 O17 1.232 . S
O6 C5 1.245 . S
O7 Co1 2.058 . S
O7 C33 1.269 . S
O8 Co0 2.074 . S
O8 C33 1.257 . S
H9 C34 0.930 . S
H10 C40 0.930 . S
O11 Co0 2.093 . S
O11 C3 1.224 . S
H12 C44 0.929 . S
H13 C46 0.930 . S
H14 C47 0.930 . S
H15 C45 0.929 . S
H16 C48 0.928 . S
O17 Co1 2.057 . S
O17 C5 1.232 . S
H18 C37 0.929 . S
H19 C38 0.929 . S
H20 C50 0.931 . S
H21 C42 0.929 . S
H22 C51 0.930 . S
H23 C43 0.931 1_556 S
O24 Co0 2.097 . S
O24 C52 1.214 . S
H25 C53 0.929 . S
H26 C54 0.929 . S
H27 C55 0.930 . S
H28 C56 0.929 . S
H29 C58 0.930 . S
H30 C35 0.930 . S
H31 C39 0.930 . S
O32 Co1 2.037 . S
O32 C52 1.234 . S
C33 O7 1.269 . S
C33 O8 1.257 . S
C34 H9 0.930 . S
C34 C37 1.388 . S
C34 C39 1.418 . S
C35 H30 0.930 . S
C35 C38 1.404 . S
C35 C39 1.353 . S
N36 Co1 2.145 . S
N36 C37 1.397 . S
N36 C38 1.334 . S
C37 H18 0.929 . S
C37 C34 1.388 . S
C37 N36 1.397 . S
C38 H19 0.929 . S
C38 C35 1.404 . S
C38 N36 1.334 . S
C39 H31 0.930 . S
C39 C34 1.418 . S
C39 C35 1.353 . S
C40 H10 0.930 . S
C40 N41 1.330 . S
C40 C42 1.446 . S
N41 Co0 2.151 . S
N41 C40 1.330 . S
N41 C45 1.418 . S
C42 H21 0.929 . S
C42 C40 1.446 . S
C42 C43 1.332 . S
C43 H23 0.931 1_554 S
C43 C42 1.332 . S
C43 C44 1.267 . S
C44 H12 0.929 . S
C44 C43 1.267 . S
C44 C45 1.251 . S
C45 H15 0.929 . S
C45 N41 1.418 . S
C45 C44 1.251 . S
C46 H13 0.930 . S
C46 C48 1.406 1_556 S
C46 C51 1.261 . S
C47 H14 0.930 . S
C47 N49 1.325 . S
C47 C50 1.357 . S
C48 H16 0.928 . S
C48 C46 1.406 1_554 S
C48 N49 1.261 . S
N49 Co0 2.214 . S
N49 C47 1.325 . S
N49 C48 1.261 . S
C50 H20 0.931 . S
C50 C47 1.357 . S
C50 C51 1.312 1_554 S
C51 H22 0.930 . S
C51 C46 1.261 . S
C51 C50 1.312 1_556 S
C52 O24 1.214 . S
C52 O32 1.234 . S
C53 H25 0.929 . S
C53 C56 1.391 . S
C53 C58 1.391 . S
C54 H26 0.929 . S
C54 C55 1.390 . S
C54 N57 1.391 . S
C55 H27 0.930 . S
C55 C54 1.390 . S
C55 C56 1.392 . S
C56 H28 0.929 . S
C56 C53 1.391 . S
C56 C55 1.392 . S
N57 Co1 2.257 . S
N57 C54 1.391 . S
N57 C58 1.388 . S
C58 H29 0.930 . S
C58 C53 1.391 . S
C58 N57 1.388 . S
Co59 O61 2.143 . S
Co59 O67 2.074 . S
Co59 O70 2.093 . S
Co59 O83 2.097 . S
Co59 N100 2.151 . S
Co59 N108 2.214 . S
Co60 O61 2.160 . S
Co60 O66 2.058 . S
Co60 O76 2.057 . S
Co60 O91 2.037 . S
Co60 N95 2.145 . S
Co60 N116 2.257 . S
O61 Co59 2.143 . S
O61 Co60 2.160 . S
C62 O63 1.278 . S
C62 O70 1.224 . S
O63 C62 1.278 . S
C64 O65 1.245 . S
C64 O76 1.232 . S
O65 C64 1.245 . S
O66 Co60 2.058 . S
O66 C92 1.269 . S
O67 Co59 2.074 . S
O67 C92 1.257 . S
H68 C93 0.930 . S
H69 C99 0.930 . S
O70 Co59 2.093 . S
O70 C62 1.224 . S
H71 C103 0.929 . S
H72 C105 0.930 . S
H73 C106 0.930 . S
H74 C104 0.929 . S
H75 C107 0.928 . S
O76 Co60 2.057 . S
O76 C64 1.232 . S
H77 C96 0.929 . S
H78 C97 0.929 . S
H79 C109 0.931 . S
H80 C101 0.929 . S
H81 C110 0.930 . S
H82 C102 0.931 . S
O83 Co59 2.097 . S
O83 C111 1.214 . S
H84 C112 0.929 . S
H85 C113 0.929 . S
H86 C114 0.930 . S
H87 C115 0.929 . S
H88 C117 0.930 . S
H89 C94 0.930 . S
H90 C98 0.930 . S
O91 Co60 2.037 . S
O91 C111 1.234 . S
C92 O66 1.269 . S
C92 O67 1.257 . S
C93 H68 0.930 . S
C93 C96 1.388 . S
C93 C98 1.418 1_554 S
C94 H89 0.930 . S
C94 C97 1.404 1_556 S
C94 C98 1.353 . S
N95 Co60 2.145 . S
N95 C96 1.397 . S
N95 C97 1.334 . S
C96 H77 0.929 . S
C96 C93 1.388 . S
C96 N95 1.397 . S
C97 H78 0.929 . S
C97 C94 1.404 1_554 S
C97 N95 1.334 . S
C98 H90 0.930 . S
C98 C93 1.418 1_556 S
C98 C94 1.353 . S
C99 H69 0.930 . S
C99 N100 1.330 . S
C99 C101 1.446 . S
N100 Co59 2.151 . S
N100 C99 1.330 . S
N100 C104 1.418 . S
C101 H80 0.929 . S
C101 C99 1.446 . S
C101 C102 1.332 . S
C102 H82 0.931 . S
C102 C101 1.332 . S
C102 C103 1.267 . S
C103 H71 0.929 . S
C103 C102 1.267 . S
C103 C104 1.251 . S
C104 H74 0.929 . S
C104 N100 1.418 . S
C104 C103 1.251 . S
C105 H72 0.930 . S
C105 C107 1.406 . S
C105 C110 1.261 . S
C106 H73 0.930 . S
C106 N108 1.325 . S
C106 C109 1.357 . S
C107 H75 0.928 . S
C107 C105 1.406 . S
C107 N108 1.261 . S
N108 Co59 2.214 . S
N108 C106 1.325 . S
N108 C107 1.261 . S
C109 H79 0.931 . S
C109 C106 1.357 . S
C109 C110 1.312 . S
C110 H81 0.930 . S
C110 C105 1.261 . S
C110 C109 1.312 . S
C111 O83 1.214 . S
C111 O91 1.234 . S
C112 H84 0.929 . S
C112 C115 1.391 . S
C112 C117 1.391 . S
C113 H85 0.929 . S
C113 C114 1.390 . S
C113 N116 1.391 . S
C114 H86 0.930 . S
C114 C113 1.390 . S
C114 C115 1.392 . S
C115 H87 0.929 . S
C115 C112 1.391 . S
C115 C114 1.392 . S
N116 Co60 2.257 . S
N116 C113 1.391 . S
N116 C117 1.388 . S
C117 H88 0.930 . S
C117 C112 1.391 . S
C117 N116 1.388 . S
Co118 O120 2.143 . S
Co118 O126 2.074 . S
Co118 O129 2.093 . S
Co118 O142 2.097 . S
Co118 N159 2.151 . S
Co118 N167 2.214 . S
Co119 O120 2.160 . S
Co119 O125 2.058 . S
Co119 O135 2.057 . S
Co119 O150 2.037 . S
Co119 N154 2.145 . S
Co119 N175 2.257 . S
O120 Co118 2.143 . S
O120 Co119 2.160 . S
C121 O122 1.278 . S
C121 O129 1.224 . S
O122 C121 1.278 . S
C123 O124 1.245 . S
C123 O135 1.232 . S
O124 C123 1.245 . S
O125 Co119 2.058 . S
O125 C151 1.269 . S
O126 Co118 2.074 . S
O126 C151 1.257 . S
H127 C152 0.930 . S
H128 C158 0.930 . S
O129 Co118 2.093 . S
O129 C121 1.224 . S
H130 C162 0.929 . S
H131 C164 0.930 . S
H132 C165 0.930 . S
H133 C163 0.929 . S
H134 C166 0.928 . S
O135 Co119 2.057 . S
O135 C123 1.232 . S
H136 C155 0.929 . S
H137 C156 0.929 . S
H138 C168 0.931 . S
H139 C160 0.929 . S
H140 C169 0.930 . S
H141 C161 0.931 1_554 S
O142 Co118 2.097 . S
O142 C170 1.214 . S
H143 C171 0.929 . S
H144 C172 0.929 . S
H145 C173 0.930 . S
H146 C174 0.929 . S
H147 C176 0.930 . S
H148 C153 0.930 . S
H149 C157 0.930 . S
O150 Co119 2.037 . S
O150 C170 1.234 . S
C151 O125 1.269 . S
C151 O126 1.257 . S
C152 H127 0.930 . S
C152 C155 1.388 . S
C152 C157 1.418 . S
C153 H148 0.930 . S
C153 C156 1.404 . S
C153 C157 1.353 . S
N154 Co119 2.145 . S
N154 C155 1.397 . S
N154 C156 1.334 . S
C155 H136 0.929 . S
C155 C152 1.388 . S
C155 N154 1.397 . S
C156 H137 0.929 . S
C156 C153 1.404 . S
C156 N154 1.334 . S
C157 H149 0.930 . S
C157 C152 1.418 . S
C157 C153 1.353 . S
C158 H128 0.930 . S
C158 N159 1.330 . S
C158 C160 1.446 . S
N159 Co118 2.151 . S
N159 C158 1.330 . S
N159 C163 1.418 . S
C160 H139 0.929 . S
C160 C158 1.446 . S
C160 C161 1.332 . S
C161 H141 0.931 1_556 S
C161 C160 1.332 . S
C161 C162 1.267 . S
C162 H130 0.929 . S
C162 C161 1.267 . S
C162 C163 1.251 . S
C163 H133 0.929 . S
C163 N159 1.418 . S
C163 C162 1.251 . S
C164 H131 0.930 . S
C164 C166 1.406 1_554 S
C164 C169 1.261 . S
C165 H132 0.930 . S
C165 N167 1.325 . S
C165 C168 1.357 . S
C166 H134 0.928 . S
C166 C164 1.406 1_556 S
C166 N167 1.261 . S
N167 Co118 2.214 . S
N167 C165 1.325 . S
N167 C166 1.261 . S
C168 H138 0.931 . S
C168 C165 1.357 . S
C168 C169 1.312 1_556 S
C169 H140 0.930 . S
C169 C164 1.261 . S
C169 C168 1.312 1_554 S
C170 O142 1.214 . S
C170 O150 1.234 . S
C171 H143 0.929 . S
C171 C174 1.391 . S
C171 C176 1.391 . S
C172 H144 0.929 . S
C172 C173 1.390 . S
C172 N175 1.391 . S
C173 H145 0.930 . S
C173 C172 1.390 . S
C173 C174 1.392 . S
C174 H146 0.929 . S
C174 C171 1.391 . S
C174 C173 1.392 . S
N175 Co119 2.257 . S
N175 C172 1.391 . S
N175 C176 1.388 . S
C176 H147 0.930 . S
C176 C171 1.391 . S
C176 N175 1.388 . S
Co177 O179 2.143 . S
Co177 O185 2.074 . S
Co177 O188 2.093 . S
Co177 O201 2.097 . S
Co177 N218 2.151 . S
Co177 N226 2.214 . S
Co178 O179 2.160 . S
Co178 O184 2.058 . S
Co178 O194 2.057 . S
Co178 O209 2.037 . S
Co178 N213 2.145 . S
Co178 N234 2.257 . S
O179 Co177 2.143 . S
O179 Co178 2.160 . S
C180 O181 1.278 . S
C180 O188 1.224 . S
O181 C180 1.278 . S
C182 O183 1.245 . S
C182 O194 1.232 . S
O183 C182 1.245 . S
O184 Co178 2.058 . S
O184 C210 1.269 . S
O185 Co177 2.074 . S
O185 C210 1.257 . S
H186 C211 0.930 . S
H187 C217 0.930 . S
O188 Co177 2.093 . S
O188 C180 1.224 . S
H189 C221 0.929 . S
H190 C223 0.930 . S
H191 C224 0.930 . S
H192 C222 0.929 . S
H193 C225 0.928 . S
O194 Co178 2.057 . S
O194 C182 1.232 . S
H195 C214 0.929 . S
H196 C215 0.929 . S
H197 C227 0.931 . S
H198 C219 0.929 . S
H199 C228 0.930 . S
H200 C220 0.931 . S
O201 Co177 2.097 . S
O201 C229 1.214 . S
H202 C230 0.929 . S
H203 C231 0.929 . S
H204 C232 0.930 . S
H205 C233 0.929 . S
H206 C235 0.930 . S
H207 C212 0.930 . S
H208 C216 0.930 . S
O209 Co178 2.037 . S
O209 C229 1.234 . S
C210 O184 1.269 . S
C210 O185 1.257 . S
C211 H186 0.930 . S
C211 C214 1.388 . S
C211 C216 1.418 1_556 S
C212 H207 0.930 . S
C212 C215 1.404 1_554 S
C212 C216 1.353 . S
N213 Co178 2.145 . S
N213 C214 1.397 . S
N213 C215 1.334 . S
C214 H195 0.929 . S
C214 C211 1.388 . S
C214 N213 1.397 . S
C215 H196 0.929 . S
C215 C212 1.404 1_556 S
C215 N213 1.334 . S
C216 H208 0.930 . S
C216 C211 1.418 1_554 S
C216 C212 1.353 . S
C217 H187 0.930 . S
C217 N218 1.330 . S
C217 C219 1.446 . S
N218 Co177 2.151 . S
N218 C217 1.330 . S
N218 C222 1.418 . S
C219 H198 0.929 . S
C219 C217 1.446 . S
C219 C220 1.332 . S
C220 H200 0.931 . S
C220 C219 1.332 . S
C220 C221 1.267 . S
C221 H189 0.929 . S
C221 C220 1.267 . S
C221 C222 1.251 . S
C222 H192 0.929 . S
C222 N218 1.418 . S
C222 C221 1.251 . S
C223 H190 0.930 . S
C223 C225 1.406 . S
C223 C228 1.261 . S
C224 H191 0.930 . S
C224 N226 1.325 . S
C224 C227 1.357 . S
C225 H193 0.928 . S
C225 C223 1.406 . S
C225 N226 1.261 . S
N226 Co177 2.214 . S
N226 C224 1.325 . S
N226 C225 1.261 . S
C227 H197 0.931 . S
C227 C224 1.357 . S
C227 C228 1.312 . S
C228 H199 0.930 . S
C228 C223 1.261 . S
C228 C227 1.312 . S
C229 O201 1.214 . S
C229 O209 1.234 . S
C230 H202 0.929 . S
C230 C233 1.391 . S
C230 C235 1.391 . S
C231 H203 0.929 . S
C231 C232 1.390 . S
C231 N234 1.391 . S
C232 H204 0.930 . S
C232 C231 1.390 . S
C232 C233 1.392 . S
C233 H205 0.929 . S
C233 C230 1.391 . S
C233 C232 1.392 . S
N234 Co178 2.257 . S
N234 C231 1.391 . S
N234 C235 1.388 . S
C235 H206 0.930 . S
C235 C230 1.391 . S
C235 N234 1.388 . S
C236 C237 1.386 . S
C236 C238 1.383 . S
C236 H252 0.951 . S
C237 C236 1.386 . S
C237 C241 1.383 . S
C238 C236 1.383 . S
C238 C239 1.402 . S
C238 H253 0.951 . S
C239 C238 1.402 . S
C239 C240 1.375 . S
C239 C242 1.481 1_565 S
C240 C239 1.375 . S
C240 C241 1.367 . S
C240 H254 0.951 . S
C241 C237 1.383 . S
C241 C240 1.367 . S
C241 H255 0.950 . S
C242 C239 1.481 1_545 S
C242 C243 1.297 . S
C242 H256 0.950 . S
C243 C242 1.297 . S
C243 C244 1.479 . S
C243 H257 0.950 . S
C244 C243 1.479 . S
C244 C245 1.375 . S
C244 C250 1.404 . S
C245 C244 1.375 . S
C245 C246 1.369 . S
C245 H258 0.950 . S
C246 C245 1.369 . S
C246 C247 1.392 . S
C246 H259 0.951 . S
C247 C246 1.392 . S
C247 C249 1.384 . S
H248 C250 0.949 . S
C249 C247 1.384 . S
C249 C250 1.385 . S
C249 H251 0.950 . S
C250 C244 1.404 . S
C250 H248 0.949 . S
C250 C249 1.385 . S
H251 C249 0.950 . S
H252 C236 0.951 . S
H253 C238 0.951 . S
H254 C240 0.951 . S
H255 C241 0.950 . S
H256 C242 0.950 . S
H257 C243 0.950 . S
H258 C245 0.950 . S
H259 C246 0.951 . S
C260 C261 1.386 . S
C260 C262 1.383 . S
C260 H276 0.951 . S
C261 C260 1.386 . S
C261 C265 1.383 . S
C262 C260 1.383 . S
C262 C263 1.402 . S
C262 H277 0.951 . S
C263 C262 1.402 . S
C263 C264 1.375 . S
C263 C266 1.481 . S
C264 C263 1.375 . S
C264 C265 1.367 . S
C264 H278 0.951 . S
C265 C261 1.383 . S
C265 C264 1.367 . S
C265 H279 0.950 . S
C266 C263 1.481 . S
C266 C267 1.297 . S
C266 H280 0.950 . S
C267 C266 1.297 . S
C267 C268 1.479 . S
C267 H281 0.950 . S
C268 C267 1.479 . S
C268 C269 1.375 . S
C268 C274 1.404 . S
C269 C268 1.375 . S
C269 C270 1.369 . S
C269 H282 0.950 . S
C270 C269 1.369 . S
C270 C271 1.392 . S
C270 H283 0.951 . S
C271 C270 1.392 . S
C271 C273 1.384 . S
H272 C274 0.949 . S
C273 C271 1.384 . S
C273 C274 1.385 . S
C273 H275 0.950 . S
C274 C268 1.404 . S
C274 H272 0.949 . S
C274 C273 1.385 . S
H275 C273 0.950 . S
H276 C260 0.951 . S
H277 C262 0.951 . S
H278 C264 0.951 . S
H279 C265 0.950 . S
H280 C266 0.950 . S
H281 C267 0.950 . S
H282 C269 0.950 . S
H283 C270 0.951 . S
C284 C285 1.386 . S
C284 C286 1.383 . S
C284 H300 0.951 . S
C285 C284 1.386 . S
C285 C289 1.383 . S
C286 C284 1.383 . S
C286 C287 1.402 . S
C286 H301 0.951 . S
C287 C286 1.402 . S
C287 C288 1.375 . S
C287 C290 1.481 . S
C288 C287 1.375 . S
C288 C289 1.367 . S
C288 H302 0.951 . S
C289 C285 1.383 . S
C289 C288 1.367 . S
C289 H303 0.950 . S
C290 C287 1.481 . S
C290 C291 1.297 . S
C290 H304 0.950 . S
C291 C290 1.297 . S
C291 C292 1.479 1_545 S
C291 H305 0.950 . S
C292 C291 1.479 1_565 S
C292 C293 1.375 . S
C292 C298 1.404 . S
C293 C292 1.375 . S
C293 C294 1.369 . S
C293 H306 0.950 . S
C294 C293 1.369 . S
C294 C295 1.392 . S
C294 H307 0.951 . S
C295 C294 1.392 . S
C295 C297 1.384 . S
H296 C298 0.949 . S
C297 C295 1.384 . S
C297 C298 1.385 . S
C297 H299 0.950 . S
C298 C292 1.404 . S
C298 H296 0.949 . S
C298 C297 1.385 . S
H299 C297 0.950 . S
H300 C284 0.951 . S
H301 C286 0.951 . S
H302 C288 0.951 . S
H303 C289 0.950 . S
H304 C290 0.950 . S
H305 C291 0.950 . S
H306 C293 0.950 . S
H307 C294 0.951 . S
C308 C309 1.386 . S
C308 C310 1.383 . S
C308 H324 0.951 . S
C309 C308 1.386 . S
C309 C313 1.383 . S
C310 C308 1.383 . S
C310 C311 1.402 . S
C310 H325 0.951 . S
C311 C310 1.402 . S
C311 C312 1.375 . S
C311 C314 1.481 . S
C312 C311 1.375 . S
C312 C313 1.367 . S
C312 H326 0.951 . S
C313 C309 1.383 . S
C313 C312 1.367 . S
C313 H327 0.950 . S
C314 C311 1.481 . S
C314 C315 1.297 . S
C314 H328 0.950 . S
C315 C314 1.297 . S
C315 C316 1.479 . S
C315 H329 0.950 . S
C316 C315 1.479 . S
C316 C317 1.375 . S
C316 C322 1.404 . S
C317 C316 1.375 . S
C317 C318 1.369 . S
C317 H330 0.950 . S
C318 C317 1.369 . S
C318 C319 1.392 . S
C318 H331 0.951 . S
C319 C318 1.392 . S
C319 C321 1.384 . S
H320 C322 0.949 . S
C321 C319 1.384 . S
C321 C322 1.385 . S
C321 H323 0.950 . S
C322 C316 1.404 . S
C322 H320 0.949 . S
C322 C321 1.385 . S
H323 C321 0.950 . S
H324 C308 0.951 . S
H325 C310 0.951 . S
H326 C312 0.951 . S
H327 C313 0.950 . S
H328 C314 0.950 . S
H329 C315 0.950 . S
H330 C317 0.950 . S
H331 C318 0.951 . S
C332 C333 1.386 . S
C332 C334 1.383 . S
C332 H348 0.951 . S
C333 C332 1.386 . S
C333 C337 1.383 . S
C334 C332 1.383 . S
C334 C335 1.402 . S
C334 H349 0.951 . S
C335 C334 1.402 . S
C335 C336 1.375 . S
C335 C338 1.481 1_544 S
C336 C335 1.375 . S
C336 C337 1.367 . S
C336 H350 0.951 1_545 S
C337 C333 1.383 . S
C337 C336 1.367 . S
C337 H351 0.950 . S
C338 C335 1.481 1_566 S
C338 C339 1.297 1_465 S
C338 H352 0.950 1_556 S
C339 C338 1.297 1_645 S
C339 C340 1.479 1_545 S
C339 H353 0.950 . S
C340 C339 1.479 1_565 S
C340 C341 1.375 . S
C340 C346 1.404 . S
C341 C340 1.375 . S
C341 C342 1.369 . S
C341 H354 0.950 1_565 S
C342 C341 1.369 . S
C342 C343 1.392 . S
C342 H355 0.951 . S
C343 C342 1.392 . S
C343 C345 1.384 . S
H344 C346 0.949 1_455 S
C345 C343 1.384 . S
C345 C346 1.385 . S
C345 H347 0.950 . S
C346 C340 1.404 . S
C346 H344 0.949 1_655 S
C346 C345 1.385 . S
H347 C345 0.950 . S
H348 C332 0.951 . S
H349 C334 0.951 . S
H350 C336 0.951 1_565 S
H351 C337 0.950 . S
H352 C338 0.950 1_554 S
H353 C339 0.950 . S
H354 C341 0.950 1_545 S
H355 C342 0.951 . S
C356 C357 1.386 . S
C356 C358 1.383 . S
C356 H372 0.951 . S
C357 C356 1.386 . S
C357 C361 1.383 . S
C358 C356 1.383 . S
C358 C359 1.402 . S
C358 H373 0.951 . S
C359 C358 1.402 . S
C359 C360 1.375 . S
C359 C362 1.481 1_545 S
C360 C359 1.375 . S
C360 C361 1.367 . S
C360 H374 0.951 1_545 S
C361 C357 1.383 . S
C361 C360 1.367 . S
C361 H375 0.950 . S
C362 C359 1.481 1_565 S
C362 C363 1.297 1_565 S
C362 H376 0.950 . S
C363 C362 1.297 1_545 S
C363 C364 1.479 1_546 S
C363 H377 0.950 1_556 S
C364 C363 1.479 1_564 S
C364 C365 1.375 . S
C364 C370 1.404 . S
C365 C364 1.375 . S
C365 C366 1.369 . S
C365 H378 0.950 1_565 S
C366 C365 1.369 . S
C366 C367 1.392 . S
C366 H379 0.951 . S
C367 C366 1.392 . S
C367 C369 1.384 . S
H368 C370 0.949 1_556 S
C369 C367 1.384 . S
C369 C370 1.385 . S
C369 H371 0.950 . S
C370 C364 1.404 . S
C370 H368 0.949 1_554 S
C370 C369 1.385 . S
H371 C369 0.950 . S
H372 C356 0.951 . S
H373 C358 0.951 . S
H374 C360 0.951 1_565 S
H375 C361 0.950 . S
H376 C362 0.950 . S
H377 C363 0.950 1_554 S
H378 C365 0.950 1_545 S
H379 C366 0.951 . S
C380 C381 1.386 . S
C380 C382 1.383 . S
C380 H396 0.951 . S
C381 C380 1.386 . S
C381 C385 1.383 . S
C382 C380 1.383 . S
C382 C383 1.402 . S
C382 H397 0.951 1_655 S
C383 C382 1.402 . S
C383 C384 1.375 . S
C383 C386 1.481 . S
C384 C383 1.375 . S
C384 C385 1.367 . S
C384 H398 0.951 . S
C385 C381 1.383 . S
C385 C384 1.367 . S
C385 H399 0.950 . S
C386 C383 1.481 . S
C386 C387 1.297 1_655 S
C386 H400 0.950 . S
C387 C386 1.297 1_455 S
C387 C388 1.479 . S
C387 H401 0.950 . S
C388 C387 1.479 . S
C388 C389 1.375 . S
C388 C394 1.404 . S
C389 C388 1.375 . S
C389 C390 1.369 . S
C389 H402 0.950 . S
C390 C389 1.369 . S
C390 C391 1.392 . S
C390 H403 0.951 . S
C391 C390 1.392 . S
C391 C393 1.384 . S
H392 C394 0.923 1_655 S
C393 C391 1.384 . S
C393 C394 1.385 . S
C393 H395 0.950 . S
C394 C388 1.404 . S
C394 H392 0.923 1_455 S
C394 C393 1.385 . S
H395 C393 0.950 . S
H396 C380 0.951 . S
H397 C382 0.951 1_455 S
H398 C384 0.951 . S
H399 C385 0.950 . S
H400 C386 0.950 . S
H401 C387 0.950 . S
H402 C389 0.950 . S
H403 C390 0.951 . S
C404 C405 1.386 . S
C404 C406 1.383 . S
C404 H420 0.951 . S
C405 C404 1.386 . S
C405 C409 1.383 . S
C406 C404 1.383 . S
C406 C407 1.402 . S
C406 H421 0.951 . S
C407 C406 1.402 . S
C407 C408 1.375 . S
C407 C410 1.481 . S
C408 C407 1.375 . S
C408 C409 1.367 . S
C408 H422 0.951 . S
C409 C405 1.383 . S
C409 C408 1.367 . S
C409 H423 0.950 . S
C410 C407 1.481 . S
C410 C411 1.297 . S
C410 H424 0.950 . S
C411 C410 1.297 . S
C411 C412 1.479 . S
C411 H425 0.950 . S
C412 C411 1.479 . S
C412 C413 1.375 . S
C412 C418 1.404 . S
C413 C412 1.375 . S
C413 C414 1.369 . S
C413 H426 0.950 . S
C414 C413 1.369 . S
C414 C415 1.392 . S
C414 H427 0.951 . S
C415 C414 1.392 . S
C415 C417 1.384 . S
H416 C418 0.949 . S
C417 C415 1.384 . S
C417 C418 1.385 . S
C417 H419 0.950 . S
C418 C412 1.404 . S
C418 H416 0.949 . S
C418 C417 1.385 . S
H419 C417 0.950 . S
H420 C404 0.951 . S
H421 C406 0.951 . S
H422 C408 0.951 . S
H423 C409 0.950 . S
H424 C410 0.950 . S
H425 C411 0.950 . S
H426 C413 0.950 . S
H427 C414 0.951 . S
C237 C92 1.280 . S
C247 C52 1.275 . S
C261 C33 1.269 . S
C271 C111 1.268 . S
C285 C210 1.266 . S
C295 C170 1.283 . S
C309 C151 1.267 . S
C319 C229 1.284 . S
C333 C3 1.466 . S
C343 C121 1.469 . S
C357 C182 1.482 . S
C367 C64 1.480 . S
C381 C123 1.480 . S
C391 C5 1.495 . S
C405 C62 1.496 . S
C415 C180 1.461 . S
