# Generated by pormake.
# Topology umr, (4)-cn, num edge types: 1
# Building blocks:
#     Node 0, Type 0, BuildingBlock: QUQFOY_clean_sbu_1, # of connection points: 4
#     Node 1, Type 0, BuildingBlock: QUQFOY_clean_sbu_1, # of connection points: 4
#     Node 2, Type 0, BuildingBlock: QUQFOY_clean_sbu_1, # of connection points: 4
#     Node 3, Type 0, BuildingBlock: QUQFOY_clean_sbu_1, # of connection points: 4
#     Node 4, Type 0, BuildingBlock: QUQFOY_clean_sbu_1, # of connection points: 4
#     Node 5, Type 0, BuildingBlock: QUQFOY_clean_sbu_1, # of connection points: 4
#     Node 6, Type 0, BuildingBlock: QUQFOY_clean_sbu_1, # of connection points: 4
#     Node 7, Type 0, BuildingBlock: QUQFOY_clean_sbu_1, # of connection points: 4
#     Node 8, Type 0, BuildingBlock: QUQFOY_clean_sbu_1, # of connection points: 4
#     Node 9, Type 0, BuildingBlock: QUQFOY_clean_sbu_1, # of connection points: 4
#     Node 10, Type 0, BuildingBlock: QUQFOY_clean_sbu_1, # of connection points: 4
#     Node 11, Type 0, BuildingBlock: QUQFOY_clean_sbu_1, # of connection points: 4
#     Node 12, Type 0, BuildingBlock: QUQFOY_clean_sbu_1, # of connection points: 4
#     Node 13, Type 0, BuildingBlock: QUQFOY_clean_sbu_1, # of connection points: 4
#     Node 14, Type 0, BuildingBlock: QUQFOY_clean_sbu_1, # of connection points: 4
#     Node 15, Type 0, BuildingBlock: QUQFOY_clean_sbu_1, # of connection points: 4
#     Node 16, Type 0, BuildingBlock: QUQFOY_clean_sbu_1, # of connection points: 4
#     Node 17, Type 0, BuildingBlock: QUQFOY_clean_sbu_1, # of connection points: 4
#     Node 18, Type 0, BuildingBlock: QUQFOY_clean_sbu_1, # of connection points: 4
#     Node 19, Type 0, BuildingBlock: QUQFOY_clean_sbu_1, # of connection points: 4
#     Node 20, Type 0, BuildingBlock: QUQFOY_clean_sbu_1, # of connection points: 4
#     Node 21, Type 0, BuildingBlock: QUQFOY_clean_sbu_1, # of connection points: 4
#     Node 22, Type 0, BuildingBlock: QUQFOY_clean_sbu_1, # of connection points: 4
#     Node 23, Type 0, BuildingBlock: QUQFOY_clean_sbu_1, # of connection points: 4
#     Node 24, Type 0, BuildingBlock: QUQFOY_clean_sbu_1, # of connection points: 4
#     Node 25, Type 0, BuildingBlock: QUQFOY_clean_sbu_1, # of connection points: 4
#     Node 26, Type 0, BuildingBlock: QUQFOY_clean_sbu_1, # of connection points: 4
#     Node 27, Type 0, BuildingBlock: QUQFOY_clean_sbu_1, # of connection points: 4
#     Node 28, Type 0, BuildingBlock: QUQFOY_clean_sbu_1, # of connection points: 4
#     Node 29, Type 0, BuildingBlock: QUQFOY_clean_sbu_1, # of connection points: 4
#     Node 30, Type 0, BuildingBlock: QUQFOY_clean_sbu_1, # of connection points: 4
#     Node 31, Type 0, BuildingBlock: QUQFOY_clean_sbu_1, # of connection points: 4
#     Edge 32, Type (0, 0), BuildingBlock: CIFDUS_clean_linker_0, # of connection points: 2
#     Edge 33, Type (0, 0), BuildingBlock: CIFDUS_clean_linker_0, # of connection points: 2
#     Edge 34, Type (0, 0), BuildingBlock: CIFDUS_clean_linker_0, # of connection points: 2
#     Edge 35, Type (0, 0), BuildingBlock: CIFDUS_clean_linker_0, # of connection points: 2
#     Edge 36, Type (0, 0), BuildingBlock: CIFDUS_clean_linker_0, # of connection points: 2
#     Edge 37, Type (0, 0), BuildingBlock: CIFDUS_clean_linker_0, # of connection points: 2
#     Edge 38, Type (0, 0), BuildingBlock: CIFDUS_clean_linker_0, # of connection points: 2
#     Edge 39, Type (0, 0), BuildingBlock: CIFDUS_clean_linker_0, # of connection points: 2
#     Edge 40, Type (0, 0), BuildingBlock: CIFDUS_clean_linker_0, # of connection points: 2
#     Edge 41, Type (0, 0), BuildingBlock: CIFDUS_clean_linker_0, # of connection points: 2
#     Edge 42, Type (0, 0), BuildingBlock: CIFDUS_clean_linker_0, # of connection points: 2
#     Edge 43, Type (0, 0), BuildingBlock: CIFDUS_clean_linker_0, # of connection points: 2
#     Edge 44, Type (0, 0), BuildingBlock: CIFDUS_clean_linker_0, # of connection points: 2
#     Edge 45, Type (0, 0), BuildingBlock: CIFDUS_clean_linker_0, # of connection points: 2
#     Edge 46, Type (0, 0), BuildingBlock: CIFDUS_clean_linker_0, # of connection points: 2
#     Edge 47, Type (0, 0), BuildingBlock: CIFDUS_clean_linker_0, # of connection points: 2
#     Edge 48, Type (0, 0), BuildingBlock: CIFDUS_clean_linker_0, # of connection points: 2
#     Edge 49, Type (0, 0), BuildingBlock: CIFDUS_clean_linker_0, # of connection points: 2
#     Edge 50, Type (0, 0), BuildingBlock: CIFDUS_clean_linker_0, # of connection points: 2
#     Edge 51, Type (0, 0), BuildingBlock: CIFDUS_clean_linker_0, # of connection points: 2
#     Edge 52, Type (0, 0), BuildingBlock: CIFDUS_clean_linker_0, # of connection points: 2
#     Edge 53, Type (0, 0), BuildingBlock: CIFDUS_clean_linker_0, # of connection points: 2
#     Edge 54, Type (0, 0), BuildingBlock: CIFDUS_clean_linker_0, # of connection points: 2
#     Edge 55, Type (0, 0), BuildingBlock: CIFDUS_clean_linker_0, # of connection points: 2
#     Edge 56, Type (0, 0), BuildingBlock: CIFDUS_clean_linker_0, # of connection points: 2
#     Edge 57, Type (0, 0), BuildingBlock: CIFDUS_clean_linker_0, # of connection points: 2
#     Edge 58, Type (0, 0), BuildingBlock: CIFDUS_clean_linker_0, # of connection points: 2
#     Edge 59, Type (0, 0), BuildingBlock: CIFDUS_clean_linker_0, # of connection points: 2
#     Edge 60, Type (0, 0), BuildingBlock: CIFDUS_clean_linker_0, # of connection points: 2
#     Edge 61, Type (0, 0), BuildingBlock: CIFDUS_clean_linker_0, # of connection points: 2
#     Edge 62, Type (0, 0), BuildingBlock: CIFDUS_clean_linker_0, # of connection points: 2
#     Edge 63, Type (0, 0), BuildingBlock: CIFDUS_clean_linker_0, # of connection points: 2
#     Edge 64, Type (0, 0), BuildingBlock: CIFDUS_clean_linker_0, # of connection points: 2
#     Edge 65, Type (0, 0), BuildingBlock: CIFDUS_clean_linker_0, # of connection points: 2
#     Edge 66, Type (0, 0), BuildingBlock: CIFDUS_clean_linker_0, # of connection points: 2
#     Edge 67, Type (0, 0), BuildingBlock: CIFDUS_clean_linker_0, # of connection points: 2
#     Edge 68, Type (0, 0), BuildingBlock: CIFDUS_clean_linker_0, # of connection points: 2
#     Edge 69, Type (0, 0), BuildingBlock: CIFDUS_clean_linker_0, # of connection points: 2
#     Edge 70, Type (0, 0), BuildingBlock: CIFDUS_clean_linker_0, # of connection points: 2
#     Edge 71, Type (0, 0), BuildingBlock: CIFDUS_clean_linker_0, # of connection points: 2
#     Edge 72, Type (0, 0), BuildingBlock: CIFDUS_clean_linker_0, # of connection points: 2
#     Edge 73, Type (0, 0), BuildingBlock: CIFDUS_clean_linker_0, # of connection points: 2
#     Edge 74, Type (0, 0), BuildingBlock: CIFDUS_clean_linker_0, # of connection points: 2
#     Edge 75, Type (0, 0), BuildingBlock: CIFDUS_clean_linker_0, # of connection points: 2
#     Edge 76, Type (0, 0), BuildingBlock: CIFDUS_clean_linker_0, # of connection points: 2
#     Edge 77, Type (0, 0), BuildingBlock: CIFDUS_clean_linker_0, # of connection points: 2
#     Edge 78, Type (0, 0), BuildingBlock: CIFDUS_clean_linker_0, # of connection points: 2
#     Edge 79, Type (0, 0), BuildingBlock: CIFDUS_clean_linker_0, # of connection points: 2
#     Edge 80, Type (0, 0), BuildingBlock: CIFDUS_clean_linker_0, # of connection points: 2
#     Edge 81, Type (0, 0), BuildingBlock: CIFDUS_clean_linker_0, # of connection points: 2
#     Edge 82, Type (0, 0), BuildingBlock: CIFDUS_clean_linker_0, # of connection points: 2
#     Edge 83, Type (0, 0), BuildingBlock: CIFDUS_clean_linker_0, # of connection points: 2
#     Edge 84, Type (0, 0), BuildingBlock: CIFDUS_clean_linker_0, # of connection points: 2
#     Edge 85, Type (0, 0), BuildingBlock: CIFDUS_clean_linker_0, # of connection points: 2
#     Edge 86, Type (0, 0), BuildingBlock: CIFDUS_clean_linker_0, # of connection points: 2
#     Edge 87, Type (0, 0), BuildingBlock: CIFDUS_clean_linker_0, # of connection points: 2
#     Edge 88, Type (0, 0), BuildingBlock: CIFDUS_clean_linker_0, # of connection points: 2
#     Edge 89, Type (0, 0), BuildingBlock: CIFDUS_clean_linker_0, # of connection points: 2
#     Edge 90, Type (0, 0), BuildingBlock: CIFDUS_clean_linker_0, # of connection points: 2
#     Edge 91, Type (0, 0), BuildingBlock: CIFDUS_clean_linker_0, # of connection points: 2
#     Edge 92, Type (0, 0), BuildingBlock: CIFDUS_clean_linker_0, # of connection points: 2
#     Edge 93, Type (0, 0), BuildingBlock: CIFDUS_clean_linker_0, # of connection points: 2
#     Edge 94, Type (0, 0), BuildingBlock: CIFDUS_clean_linker_0, # of connection points: 2
#     Edge 95, Type (0, 0), BuildingBlock: CIFDUS_clean_linker_0, # of connection points: 2
# Relax obj value: 0.050
# Max RMSD: 0.109
# Mean RMSD: 0.109
data_MOF--net-umr--node1-QUQFOY_clean_sbu_1--edge1-CIFDUS_clean_linker_0
_symmetry_space_group_name_H-M    P1
_symmetry_Int_Tables_number       1
_symmetry_cell_setting            triclinic
loop_
_symmetry_equiv_pos_as_xyz
'x, y, z'
_cell_length_a     75.810097
_cell_length_b     75.783299
_cell_length_c     24.692188
_cell_angle_alpha  89.963508
_cell_angle_beta   90.011633
_cell_angle_gamma 90.0775
loop_
_atom_site_label
_atom_site_type_symbol
_atom_site_fract_x
_atom_site_fract_y
_atom_site_fract_z
_atom_type_partial_charge
O0 O 0.16998 0.29496 0.21086 0.0
Cd1 Cd 0.17344 0.30983 0.14125 0.0
Cd2 Cd 0.17173 0.27741 0.09483 0.0
O3 O 0.16256 0.27004 0.17069 0.0
O4 O 0.16765 0.33469 0.16041 0.0
O5 O 0.15102 0.31818 0.10648 0.0
C6 C 0.15359 0.33294 0.1315 0.0
C7 C 0.15916 0.2678 0.01365 0.0
C8 C 0.16426 0.27919 0.21359 0.0
C9 C 0.20585 0.29716 0.08462 0.0
O10 O 0.19825 0.28222 0.08436 0.0
O11 O 0.19771 0.31064 0.10224 0.0
O12 O 0.16762 0.25716 0.04506 0.0
O13 O 0.15651 0.28371 0.03064 0.0
O14 O 0.96092 0.9183 0.44463 0.0
Cd15 Cd 0.94957 0.92249 0.36955 0.0
Cd16 Cd 0.98416 0.92001 0.34306 0.0
O17 O 0.98739 0.90957 0.41983 0.0
O18 O 0.92432 0.91746 0.3854 0.0
O19 O 0.94038 0.90136 0.32901 0.0
C20 C 0.92568 0.90388 0.35431 0.0
C21 C 0.99732 0.90826 0.26583 0.0
C22 C 0.97588 0.91182 0.45657 0.0
C23 C 0.9662 0.95494 0.326 0.0
O24 O 0.98058 0.94684 0.33504 0.0
O25 O 0.95153 0.94705 0.33251 0.0
O26 O 0.00652 0.91586 0.30304 0.0
O27 O 0.98065 0.90603 0.27454 0.0
O28 O 0.33143 0.71013 0.70143 0.0
Cd29 Cd 0.3285 0.69512 0.63203 0.0
Cd30 Cd 0.331 0.72873 0.58469 0.0
O31 O 0.33974 0.73482 0.66142 0.0
O32 O 0.33322 0.67023 0.65365 0.0
O33 O 0.35112 0.68575 0.60091 0.0
C34 C 0.34774 0.67129 0.62668 0.0
C35 C 0.34264 0.74367 0.51023 0.0
C36 C 0.33753 0.72575 0.70418 0.0
C37 C 0.29699 0.70828 0.57129 0.0
O38 O 0.3048 0.72311 0.57115 0.0
O39 O 0.30466 0.69474 0.59045 0.0
O40 O 0.33324 0.75162 0.54605 0.0
O41 O 0.34651 0.72729 0.51849 0.0
O42 O 0.53888 0.08407 0.94207 0.0
Cd43 Cd 0.55244 0.08174 0.86973 0.0
Cd44 Cd 0.52042 0.08702 0.82995 0.0
O45 O 0.51565 0.09686 0.90584 0.0
O46 O 0.57738 0.08823 0.88539 0.0
O47 O 0.55928 0.1049 0.83682 0.0
C48 C 0.57445 0.10283 0.86 0.0
C49 C 0.50798 0.10022 0.75412 0.0
C50 C 0.52445 0.09243 0.94739 0.0
C51 C 0.53647 0.05134 0.81368 0.0
O52 O 0.52236 0.06015 0.81949 0.0
O53 O 0.55122 0.05827 0.82609 0.0
O54 O 0.49842 0.0924 0.78993 0.0
O55 O 0.5247 0.10164 0.7632 0.0
O56 O 0.16526 0.71502 0.31146 0.0
Cd57 Cd 0.16982 0.70278 0.38516 0.0
Cd58 Cd 0.16828 0.737 0.41441 0.0
O59 O 0.15787 0.74179 0.33754 0.0
O60 O 0.16488 0.67762 0.36683 0.0
O61 O 0.14915 0.69277 0.42633 0.0
C62 C 0.15167 0.67836 0.39953 0.0
C63 C 0.15668 0.7456 0.49813 0.0
C64 C 0.15954 0.73036 0.30011 0.0
C65 C 0.20292 0.71864 0.42779 0.0
O66 O 0.19513 0.73328 0.42014 0.0
O67 O 0.19464 0.70421 0.42079 0.0
O68 O 0.16353 0.75695 0.46521 0.0
O69 O 0.15481 0.72957 0.4811 0.0
O70 O 0.54248 0.91897 0.55563 0.0
Cd71 Cd 0.55648 0.92245 0.62637 0.0
Cd72 Cd 0.52166 0.9229 0.66197 0.0
O73 O 0.51549 0.91357 0.5842 0.0
O74 O 0.58072 0.91775 0.59877 0.0
O75 O 0.56771 0.90103 0.66053 0.0
C76 C 0.58097 0.90389 0.62889 0.0
C77 C 0.5118 0.91115 0.74456 0.0
C78 C 0.52667 0.91443 0.54573 0.0
C79 C 0.54355 0.95594 0.67587 0.0
O80 O 0.52823 0.94921 0.67152 0.0
O81 O 0.55712 0.94693 0.66364 0.0
O82 O 0.5013 0.91959 0.71259 0.0
O83 O 0.52756 0.90788 0.72718 0.0
O84 O 0.334 0.29025 0.81789 0.0
Cd85 Cd 0.33177 0.30388 0.89023 0.0
Cd86 Cd 0.33585 0.27162 0.9297 0.0
O87 O 0.34612 0.26671 0.85438 0.0
O88 O 0.33908 0.32865 0.87514 0.0
O89 O 0.35494 0.30999 0.92429 0.0
C90 C 0.35344 0.32526 0.90128 0.0
C91 C 0.34788 0.25859 1.00652 0.0
C92 C 0.34203 0.27562 0.81273 0.0
C93 C 0.30062 0.28871 0.94404 0.0
O94 O 0.30897 0.27434 0.93783 0.0
O95 O 0.30813 0.3033 0.93305 0.0
O96 O 0.34014 0.24936 0.96978 0.0
O97 O 0.34994 0.27529 0.99788 0.0
O98 O 0.96285 0.08399 0.05405 0.0
Cd99 Cd 0.94716 0.0815 0.12237 0.0
Cd100 Cd 0.97992 0.08278 0.17098 0.0
O101 O 0.98762 0.09165 0.0948 0.0
O102 O 0.92253 0.08666 0.09861 0.0
O103 O 0.93785 0.10432 0.15259 0.0
C104 C 0.92355 0.10115 0.12574 0.0
C105 C 0.99041 0.09408 0.25319 0.0
C106 C 0.97868 0.08954 0.05156 0.0
C107 C 0.95917 0.04923 0.18146 0.0
O108 O 0.9743 0.05643 0.18087 0.0
O109 O 0.94583 0.05762 0.16383 0.0
O110 O 1.00055 0.08562 0.22037 0.0
O111 O 0.9746 0.09767 0.23692 0.0
O112 O 0.83301 0.7111 0.82318 0.0
Cd113 Cd 0.82994 0.69581 0.8919 0.0
Cd114 Cd 0.83092 0.7293 0.94004 0.0
O115 O 0.84022 0.73594 0.86417 0.0
O116 O 0.83493 0.67109 0.86922 0.0
O117 O 0.85243 0.68639 0.92385 0.0
C118 C 0.84924 0.67206 0.89723 0.0
C119 C 0.8417 0.74405 0.01626 0.0
C120 C 0.83862 0.72691 0.82109 0.0
C121 C 0.7974 0.70792 0.94911 0.0
O122 O 0.80468 0.72301 0.95027 0.0
O123 O 0.80579 0.69466 0.93112 0.0
O124 O 0.83244 0.75201 0.98008 0.0
O125 O 0.84585 0.72776 0.0077 0.0
O126 O 0.04681 0.081 0.56178 0.0
Cd127 Cd 0.05892 0.0806 0.63669 0.0
Cd128 Cd 0.02397 0.08001 0.667 0.0
O129 O 0.02006 0.08865 0.58765 0.0
O130 O 0.08421 0.0857 0.62068 0.0
O131 O 0.06685 0.10434 0.66444 0.0
C132 C 0.08203 0.10086 0.64324 0.0
C133 C 0.00921 0.09117 0.74286 0.0
C134 C 0.03131 0.08617 0.55011 0.0
C135 C 0.04581 0.04798 0.69072 0.0
O136 O 0.03052 0.05393 0.6803 0.0
O137 O 0.05934 0.05743 0.68146 0.0
O138 O 1.00104 0.08229 0.70603 0.0
O139 O 0.02556 0.09512 0.73428 0.0
O140 O 0.66816 0.28977 0.31295 0.0
Cd141 Cd 0.6722 0.30579 0.37979 0.0
Cd142 Cd 0.67148 0.27331 0.4298 0.0
O143 O 0.66259 0.26463 0.35463 0.0
O144 O 0.66395 0.32952 0.35556 0.0
O145 O 0.65122 0.31439 0.42184 0.0
C146 C 0.65159 0.32823 0.39123 0.0
C147 C 0.66048 0.26285 0.51251 0.0
C148 C 0.66348 0.27365 0.31118 0.0
C149 C 0.70533 0.29469 0.43468 0.0
O150 O 0.69772 0.27979 0.43872 0.0
O151 O 0.69715 0.30777 0.41439 0.0
O152 O 0.66934 0.25286 0.48026 0.0
O153 O 0.65646 0.27848 0.49565 0.0
O154 O 0.45929 0.92325 0.05955 0.0
Cd155 Cd 0.44824 0.92435 0.13621 0.0
Cd156 Cd 0.48129 0.92051 0.16185 0.0
O157 O 0.48444 0.91092 0.08307 0.0
O158 O 0.42238 0.92065 0.12615 0.0
O159 O 0.43992 0.90097 0.16494 0.0
C160 C 0.42444 0.90527 0.14755 0.0
C161 C 0.48827 0.90779 0.24533 0.0
C162 C 0.47367 0.91572 0.04626 0.0
C163 C 0.4659 0.95508 0.18615 0.0
O164 O 0.47988 0.94743 0.17039 0.0
O165 O 0.4512 0.94706 0.18274 0.0
O166 O 0.50045 0.91323 0.21268 0.0
O167 O 0.47219 0.90768 0.2277 0.0
O168 O 0.83285 0.29069 0.71067 0.0
Cd169 Cd 0.82943 0.30497 0.63959 0.0
Cd170 Cd 0.83479 0.27317 0.59745 0.0
O171 O 0.84494 0.26731 0.6728 0.0
O172 O 0.83307 0.33029 0.65862 0.0
O173 O 0.85197 0.31477 0.60933 0.0
C174 C 0.84795 0.32936 0.63346 0.0
C175 C 0.84796 0.26513 0.51591 0.0
C176 C 0.84099 0.27606 0.71499 0.0
C177 C 0.7991 0.28844 0.58284 0.0
O178 O 0.80786 0.27432 0.58895 0.0
O179 O 0.80606 0.30319 0.59513 0.0
O180 O 0.84118 0.25352 0.54801 0.0
O181 O 0.84866 0.28129 0.5325 0.0
O182 O 0.46316 0.08907 0.4474 0.0
Cd183 Cd 0.44756 0.08292 0.38141 0.0
Cd184 Cd 0.48124 0.08338 0.33224 0.0
O185 O 0.48866 0.09317 0.4063 0.0
O186 O 0.42355 0.09014 0.4052 0.0
O187 O 0.43772 0.10273 0.33669 0.0
C188 C 0.42406 0.10206 0.36795 0.0
C189 C 0.49626 0.09326 0.25576 0.0
C190 C 0.47929 0.09366 0.44882 0.0
C191 C 0.45953 0.04937 0.33036 0.0
O192 O 0.47412 0.05733 0.32365 0.0
O193 O 0.44649 0.05735 0.35151 0.0
O194 O 0.50385 0.08364 0.29181 0.0
O195 O 0.48021 0.09817 0.26455 0.0
O196 O 0.66608 0.71124 0.20197 0.0
Cd197 Cd 0.66999 0.69745 0.13059 0.0
Cd198 Cd 0.66478 0.73009 0.08957 0.0
O199 O 0.6542 0.73479 0.16446 0.0
O200 O 0.66677 0.67203 0.14862 0.0
O201 O 0.64796 0.68723 0.09807 0.0
C202 C 0.65214 0.67266 0.12205 0.0
C203 C 0.65245 0.74289 0.0128 0.0
C204 C 0.65792 0.72584 0.20636 0.0
C205 C 0.70075 0.71441 0.07783 0.0
O206 O 0.69174 0.72844 0.08223 0.0
O207 O 0.69385 0.6996 0.08958 0.0
O208 O 0.65992 0.75227 0.04971 0.0
O209 O 0.65088 0.72613 0.02117 0.0
O210 O 0.03879 0.91786 0.95131 0.0
Cd211 Cd 0.05307 0.9212 0.88055 0.0
Cd212 Cd 0.02157 0.91661 0.8379 0.0
O213 O 0.01519 0.90634 0.91291 0.0
O214 O 0.07794 0.91447 0.89716 0.0
O215 O 0.06017 0.89855 0.84517 0.0
C216 C 0.07518 0.90028 0.8695 0.0
C217 C 0.01357 0.9041 0.75521 0.0
C218 C 0.02397 0.91006 0.95532 0.0
C219 C 0.03756 0.95241 0.82711 0.0
O220 O 0.02337 0.94357 0.83091 0.0
O221 O 0.05218 0.94528 0.8397 0.0
O222 O 0.00198 0.91083 0.78732 0.0
O223 O 0.02964 0.90302 0.77234 0.0
O224 O 0.66556 0.78692 0.70548 0.0
Cd225 Cd 0.67124 0.80302 0.63985 0.0
Cd226 Cd 0.66816 0.76932 0.59052 0.0
O227 O 0.65752 0.7625 0.66372 0.0
O228 O 0.66716 0.82681 0.67169 0.0
O229 O 0.65097 0.81582 0.60497 0.0
C230 C 0.65384 0.82828 0.63958 0.0
C231 C 0.65775 0.75482 0.51363 0.0
C232 C 0.65903 0.77146 0.70679 0.0
C233 C 0.7034 0.7886 0.58714 0.0
O234 O 0.69478 0.77424 0.58483 0.0
O235 O 0.69608 0.80267 0.60381 0.0
O236 O 0.66659 0.74669 0.55041 0.0
O237 O 0.65398 0.77123 0.52166 0.0
O238 O 0.45906 0.4193 0.95448 0.0
Cd239 Cd 0.448 0.42132 0.87829 0.0
Cd240 Cd 0.48122 0.41662 0.85143 0.0
O241 O 0.48412 0.40694 0.93015 0.0
O242 O 0.42209 0.41825 0.88927 0.0
O243 O 0.43894 0.39836 0.8487 0.0
C244 C 0.42368 0.4029 0.86732 0.0
C245 C 0.48812 0.4031 0.76918 0.0
C246 C 0.47332 0.41147 0.96716 0.0
C247 C 0.46636 0.45178 0.8281 0.0
O248 O 0.48029 0.44356 0.84147 0.0
O249 O 0.45142 0.44432 0.83355 0.0
O250 O 0.50033 0.40874 0.80137 0.0
O251 O 0.47203 0.40339 0.78658 0.0
O252 O 0.83624 0.21259 0.2038 0.0
Cd253 Cd 0.83416 0.20242 0.1264 0.0
Cd254 Cd 0.83575 0.2365 0.10349 0.0
O255 O 0.84611 0.23888 0.18065 0.0
O256 O 0.84103 0.17711 0.13294 0.0
O257 O 0.85735 0.19712 0.09074 0.0
C258 C 0.8555 0.18115 0.10833 0.0
C259 C 0.8469 0.25007 0.02607 0.0
C260 C 0.84301 0.22736 0.2169 0.0
C261 C 0.80159 0.21831 0.08272 0.0
O262 O 0.809 0.23272 0.09591 0.0
O263 O 0.81016 0.20393 0.0858 0.0
O264 O 0.83965 0.25911 0.06428 0.0
O265 O 0.84934 0.23339 0.0342 0.0
O266 O 0.04463 0.5836 0.44578 0.0
Cd267 Cd 0.06013 0.57933 0.37817 0.0
Cd268 Cd 0.02693 0.58124 0.3292 0.0
O269 O 0.01976 0.5904 0.40459 0.0
O270 O 0.08402 0.58739 0.40114 0.0
O271 O 0.06855 0.60039 0.3361 0.0
C272 C 0.0825 0.59995 0.36618 0.0
C273 C 0.01192 0.59174 0.25321 0.0
C274 C 0.02881 0.58909 0.44768 0.0
C275 C 0.0479 0.54684 0.32263 0.0
O276 O 0.03337 0.55507 0.31849 0.0
O277 O 0.06129 0.5544 0.34335 0.0
O278 O 0.00418 0.58226 0.28934 0.0
O279 O 0.02812 0.59625 0.26167 0.0
O280 O 0.67294 0.20628 0.82066 0.0
Cd281 Cd 0.67369 0.19402 0.89518 0.0
Cd282 Cd 0.6732 0.22886 0.92644 0.0
O283 O 0.66457 0.23277 0.847 0.0
O284 O 0.66918 0.16864 0.8788 0.0
O285 O 0.65018 0.18552 0.92295 0.0
C286 C 0.65399 0.17046 0.90142 0.0
C287 C 0.66158 0.24307 1.00276 0.0
C288 C 0.6674 0.22167 0.80925 0.0
C289 C 0.70597 0.20792 0.94872 0.0
O290 O 0.69945 0.22306 0.93944 0.0
O291 O 0.69698 0.19411 0.93904 0.0
O292 O 0.67018 0.25161 0.96608 0.0
O293 O 0.65816 0.22661 0.99382 0.0
O294 O 0.03634 0.41706 0.05857 0.0
Cd295 Cd 0.05031 0.42022 0.13028 0.0
Cd296 Cd 0.01836 0.41734 0.17142 0.0
O297 O 0.01189 0.40727 0.0964 0.0
O298 O 0.07515 0.41323 0.11512 0.0
O299 O 0.05697 0.39756 0.16658 0.0
C300 C 0.07218 0.39921 0.14341 0.0
C301 C 0.00952 0.40486 0.25328 0.0
C302 C 0.0211 0.41012 0.05425 0.0
C303 C 0.03608 0.45223 0.18309 0.0
O304 O 0.02144 0.44419 0.17874 0.0
O305 O 0.05032 0.44434 0.17089 0.0
O306 O 0.99838 0.41235 0.22123 0.0
O307 O 0.02559 0.40313 0.23661 0.0
O308 O 0.83458 0.79243 0.32251 0.0
Cd309 Cd 0.83048 0.80865 0.38854 0.0
Cd310 Cd 0.8318 0.77502 0.44055 0.0
O311 O 0.84028 0.76741 0.36466 0.0
O312 O 0.83794 0.83232 0.36175 0.0
O313 O 0.85153 0.81815 0.4284 0.0
C314 C 0.85062 0.83165 0.39648 0.0
C315 C 0.84181 0.75934 0.51607 0.0
C316 C 0.83939 0.77637 0.32126 0.0
C317 C 0.79808 0.79742 0.44708 0.0
O318 O 0.80606 0.7828 0.45274 0.0
O319 O 0.8057 0.81035 0.42393 0.0
O320 O 0.83179 0.75218 0.48022 0.0
O321 O 0.84713 0.77529 0.50757 0.0
O322 O 0.45896 0.58027 0.56109 0.0
Cd323 Cd 0.4476 0.58003 0.63702 0.0
Cd324 Cd 0.48127 0.57864 0.66454 0.0
O325 O 0.48593 0.58763 0.58543 0.0
O326 O 0.42277 0.58774 0.62485 0.0
O327 O 0.44244 0.60389 0.66884 0.0
C328 C 0.42676 0.60231 0.64886 0.0
C329 C 0.49113 0.59027 0.74688 0.0
C330 C 0.47446 0.58522 0.54836 0.0
C331 C 0.45989 0.54665 0.68678 0.0
O332 O 0.47518 0.55234 0.67495 0.0
O333 O 0.44653 0.55654 0.68004 0.0
O334 O 0.5018 0.58242 0.714 0.0
O335 O 0.47526 0.5933 0.7301 0.0
O336 O 0.33501 0.21332 0.31333 0.0
Cd337 Cd 0.32924 0.1978 0.37982 0.0
Cd338 Cd 0.33061 0.23125 0.42958 0.0
O339 O 0.34 0.2386 0.3548 0.0
O340 O 0.33686 0.1738 0.35717 0.0
O341 O 0.34935 0.18864 0.42451 0.0
C342 C 0.34889 0.1748 0.39397 0.0
C343 C 0.34098 0.24642 0.50527 0.0
C344 C 0.33994 0.22935 0.31198 0.0
C345 C 0.29626 0.20986 0.43306 0.0
O346 O 0.30457 0.22426 0.43985 0.0
O347 O 0.30381 0.19676 0.41082 0.0
O348 O 0.33117 0.25395 0.46961 0.0
O349 O 0.34579 0.23033 0.49656 0.0
O350 O 0.54439 0.57711 0.06135 0.0
Cd351 Cd 0.55581 0.57756 0.13713 0.0
Cd352 Cd 0.52232 0.57713 0.16587 0.0
O353 O 0.51778 0.58552 0.08594 0.0
O354 O 0.58046 0.5859 0.12506 0.0
O355 O 0.56017 0.60176 0.16734 0.0
C356 C 0.57594 0.60054 0.14777 0.0
C357 C 0.5127 0.58989 0.24686 0.0
C358 C 0.52903 0.58247 0.0487 0.0
C359 C 0.54328 0.54504 0.19131 0.0
O360 O 0.52804 0.55087 0.17947 0.0
O361 O 0.55681 0.55456 0.18258 0.0
O362 O 0.50186 0.58183 0.21488 0.0
O363 O 0.52863 0.59242 0.22979 0.0
O364 O 0.17147 0.79693 0.81294 0.0
Cd365 Cd 0.17334 0.80803 0.88925 0.0
Cd366 Cd 0.16875 0.77484 0.91601 0.0
O367 O 0.15907 0.77184 0.8373 0.0
O368 O 0.16972 0.83391 0.87887 0.0
O369 O 0.15022 0.81647 0.91917 0.0
C370 C 0.15443 0.8319 0.90091 0.0
C371 C 0.15545 0.76776 0.99862 0.0
C372 C 0.16369 0.78261 0.80023 0.0
C373 C 0.20393 0.78994 0.93863 0.0
O374 O 0.19571 0.776 0.92509 0.0
O375 O 0.1964 0.80485 0.93395 0.0
O376 O 0.1611 0.75562 0.96629 0.0
O377 O 0.15563 0.78387 0.98124 0.0
O378 O 0.95786 0.41839 0.56622 0.0
Cd379 Cd 0.94788 0.42014 0.64387 0.0
Cd380 Cd 0.98162 0.41729 0.66606 0.0
O381 O 0.98349 0.40692 0.58881 0.0
O382 O 0.92256 0.41336 0.63753 0.0
O383 O 0.94263 0.39677 0.67835 0.0
C384 C 0.92665 0.39869 0.66095 0.0
C385 C 0.99477 0.40558 0.74334 0.0
C386 C 0.97219 0.41087 0.55273 0.0
C387 C 0.96468 0.45201 0.68767 0.0
O388 O 0.97875 0.44417 0.6735 0.0
O389 O 0.95002 0.44386 0.68565 0.0
O390 O 0.00407 0.41257 0.70519 0.0
O391 O 0.97801 0.40376 0.73526 0.0
O392 O 0.33498 0.7908 0.20196 0.0
Cd393 Cd 0.33252 0.80576 0.13235 0.0
Cd394 Cd 0.33221 0.7724 0.08619 0.0
O395 O 0.34151 0.76566 0.16179 0.0
O396 O 0.34077 0.82991 0.15184 0.0
O397 O 0.35536 0.8122 0.09632 0.0
C398 C 0.35453 0.82697 0.12244 0.0
C399 C 0.34195 0.75692 0.01027 0.0
C400 C 0.34019 0.77487 0.20456 0.0
C401 C 0.29938 0.79493 0.07686 0.0
O402 O 0.30624 0.77965 0.07629 0.0
O403 O 0.30821 0.80805 0.09416 0.0
O404 O 0.33247 0.7495 0.04705 0.0
O405 O 0.34695 0.77301 0.0182 0.0
O406 O 0.96413 0.58351 0.94581 0.0
Cd407 Cd 0.949 0.58114 0.8767 0.0
Cd408 Cd 0.98195 0.58133 0.82889 0.0
O409 O 0.98907 0.59022 0.90476 0.0
O410 O 0.92494 0.58924 0.89695 0.0
O411 O 0.94247 0.60402 0.84114 0.0
C412 C 0.92778 0.60305 0.86764 0.0
C413 C 0.99707 0.59179 0.753 0.0
C414 C 0.98006 0.58874 0.94789 0.0
C415 C 0.95953 0.54826 0.82007 0.0
O416 O 0.97471 0.55535 0.81798 0.0
O417 O 0.94652 0.55685 0.83893 0.0
O418 O 0.00466 0.58208 0.78881 0.0
O419 O 0.98096 0.59653 0.76174 0.0
O420 O 0.16942 0.21428 0.70102 0.0
Cd421 Cd 0.16996 0.20363 0.62388 0.0
Cd422 Cd 0.1684 0.23755 0.60045 0.0
O423 O 0.15866 0.24022 0.67843 0.0
O424 O 0.16351 0.17835 0.63414 0.0
O425 O 0.14618 0.19766 0.59293 0.0
C426 C 0.14855 0.18191 0.61175 0.0
C427 C 0.15716 0.25111 0.52306 0.0
C428 C 0.1626 0.22895 0.71466 0.0
C429 C 0.202 0.21904 0.57627 0.0
O430 O 0.19506 0.23343 0.59168 0.0
O431 O 0.19315 0.2048 0.57893 0.0
O432 O 0.16457 0.26014 0.56105 0.0
O433 O 0.15458 0.23446 0.53141 0.0
O434 O 0.53992 0.41406 0.4557 0.0
Cd435 Cd 0.55167 0.41866 0.38133 0.0
Cd436 Cd 0.51775 0.41596 0.35294 0.0
O437 O 0.51341 0.40559 0.43004 0.0
O438 O 0.57697 0.41337 0.39676 0.0
O439 O 0.56077 0.39786 0.33913 0.0
C440 C 0.57554 0.40013 0.36429 0.0
C441 C 0.50954 0.40389 0.26961 0.0
C442 C 0.52481 0.40778 0.46733 0.0
C443 C 0.53492 0.45117 0.33798 0.0
O444 O 0.52056 0.4429 0.34613 0.0
O445 O 0.54961 0.44341 0.34522 0.0
O446 O 0.49797 0.41037 0.30241 0.0
O447 O 0.52562 0.4026 0.28669 0.0
H448 H 0.2811 0.31573 0.98741 0.0
H449 H 0.27931 0.26 0.95117 0.0
H450 H 0.25025 0.25778 0.99214 0.0
H451 H 0.22551 0.27126 0.03917 0.0
H452 H 0.22663 0.32685 0.0769 0.0
H453 H 0.25577 0.32944 0.03487 0.0
C454 C 0.27427 0.30315 0.98812 0.0
C455 C 0.28243 0.28807 0.96614 0.0
C456 C 0.25749 0.30186 0.01245 0.0
C457 C 0.27343 0.27183 0.96784 0.0
C458 C 0.25678 0.27051 0.99137 0.0
C459 C 0.2321 0.28397 0.03851 0.0
C460 C 0.22386 0.29882 0.06141 0.0
C461 C 0.24875 0.28538 0.01412 0.0
C462 C 0.23266 0.31517 0.05979 0.0
C463 C 0.24932 0.31668 0.03559 0.0
H464 H 0.93973 0.97414 0.27838 0.0
H465 H 0.99461 0.97684 0.32487 0.0
H466 H 0.99716 0.00589 0.2838 0.0
H467 H 0.98429 0.03021 0.23308 0.0
H468 H 0.92954 0.02823 0.18551 0.0
H469 H 0.92653 0.99921 0.2283 0.0
C470 C 0.95219 0.98117 0.27997 0.0
C471 C 0.96695 0.97324 0.30472 0.0
C472 C 0.95367 0.99793 0.2556 0.0
C473 C 0.98303 0.98253 0.30603 0.0
C474 C 0.98453 0.99917 0.28242 0.0
C475 C 0.97168 0.02346 0.23174 0.0
C476 C 0.9572 0.03139 0.20572 0.0
C477 C 0.97002 0.0069 0.25664 0.0
C478 C 0.94094 0.02243 0.20501 0.0
C479 C 0.9392 0.00584 0.22962 0.0
H480 H 0.2213 0.69149 0.47456 0.0
H481 H 0.22581 0.74628 0.4282 0.0
H482 H 0.25505 0.74777 0.46858 0.0
H483 H 0.27895 0.73403 0.51907 0.0
H484 H 0.27501 0.67938 0.56698 0.0
H485 H 0.24592 0.67739 0.52424 0.0
C486 C 0.22876 0.70369 0.4728 0.0
C487 C 0.22131 0.71875 0.44833 0.0
C488 C 0.2456 0.70456 0.49686 0.0
C489 C 0.23114 0.73449 0.44684 0.0
C490 C 0.24788 0.73539 0.47005 0.0
C491 C 0.27176 0.72165 0.52043 0.0
C492 C 0.27917 0.70691 0.54658 0.0
C493 C 0.25515 0.72059 0.49567 0.0
C494 C 0.26963 0.69097 0.54738 0.0
C495 C 0.253 0.68982 0.52281 0.0
H496 H 0.56339 0.03039 0.77636 0.0
H497 H 0.50687 0.03173 0.79817 0.0
H498 H 0.50417 0.00283 0.75637 0.0
H499 H 0.51752 0.97723 0.71331 0.0
H500 H 0.57394 0.97521 0.69062 0.0
H501 H 0.57693 0.00431 0.73257 0.0
C502 C 0.55051 0.0243 0.77225 0.0
C503 C 0.53538 0.03329 0.79054 0.0
C504 C 0.54897 0.00759 0.7476 0.0
C505 C 0.51877 0.02521 0.78449 0.0
C506 C 0.51717 0.00864 0.76046 0.0
C507 C 0.5305 0.98314 0.71718 0.0
C508 C 0.54546 0.974 0.69859 0.0
C509 C 0.53214 0.99976 0.74165 0.0
C510 C 0.56216 0.98192 0.70436 0.0
C511 C 0.56389 0.99856 0.72854 0.0
H512 H 0.7218 0.68775 0.04003 0.0
H513 H 0.72087 0.74396 0.06867 0.0
H514 H 0.75038 0.74679 0.03105 0.0
H515 H 0.77628 0.73363 0.9892 0.0
H516 H 0.77771 0.67757 0.95864 0.0
H517 H 0.74817 0.67442 0.99748 0.0
C518 C 0.72812 0.70058 0.03835 0.0
C519 C 0.71909 0.7156 0.05726 0.0
C520 C 0.74514 0.7022 0.01597 0.0
C521 C 0.72744 0.73216 0.05435 0.0
C522 C 0.74434 0.73383 0.03277 0.0
C523 C 0.77018 0.72069 0.99083 0.0
C524 C 0.77925 0.70588 0.97088 0.0
C525 C 0.75326 0.71897 0.0132 0.0
C526 C 0.77104 0.68923 0.97351 0.0
C527 C 0.75415 0.68741 0.99588 0.0
H528 H 0.06488 0.9739 0.79518 0.0
H529 H 0.00812 0.97199 0.80958 0.0
H530 H 0.00581 1.00104 0.76856 0.0
H531 H 0.01953 0.02673 0.72689 0.0
H532 H 0.07619 0.02939 0.71169 0.0
H533 H 0.07884 1.00036 0.75445 0.0
C534 C 0.05203 0.97991 0.78971 0.0
C535 C 0.03672 0.97068 0.80546 0.0
C536 C 0.05072 0.99672 0.76553 0.0
C537 C 0.02016 0.97868 0.79779 0.0
C538 C 0.01878 0.99533 0.7742 0.0
C539 C 0.0325 0.02099 0.73267 0.0
C540 C 0.04762 0.03024 0.71572 0.0
C541 C 0.03393 0.00439 0.75749 0.0
C542 C 0.0643 0.02257 0.72414 0.0
C543 C 0.06583 0.00596 0.7487 0.0
H544 H 0.72529 0.26933 0.48166 0.0
H545 H 0.72581 0.32471 0.44084 0.0
H546 H 0.75461 0.32797 0.48491 0.0
H547 H 0.77964 0.31492 0.53596 0.0
H548 H 0.77834 0.25938 0.57515 0.0
H549 H 0.74976 0.25648 0.53136 0.0
C550 C 0.73167 0.28215 0.48201 0.0
C551 C 0.72334 0.29674 0.45775 0.0
C552 C 0.74807 0.28394 0.50769 0.0
C553 C 0.73191 0.31322 0.45892 0.0
C554 C 0.74836 0.3151 0.48437 0.0
C555 C 0.77301 0.30224 0.53528 0.0
C556 C 0.78116 0.28741 0.55902 0.0
C557 C 0.75653 0.30056 0.50923 0.0
C558 C 0.77245 0.27102 0.55723 0.0
C559 C 0.75608 0.26931 0.53206 0.0
H560 H 0.44005 0.97371 0.23858 0.0
H561 H 0.49463 0.97657 0.18896 0.0
H562 H 0.49747 0.00541 0.23112 0.0
H563 H 0.48472 0.02984 0.28116 0.0
H564 H 0.4302 0.02784 0.33132 0.0
H565 H 0.42719 0.99855 0.29038 0.0
C566 C 0.45253 0.98069 0.23679 0.0
C567 C 0.46708 0.97295 0.21039 0.0
C568 C 0.45416 0.99736 0.26154 0.0
C569 C 0.4832 0.98215 0.20886 0.0
C570 C 0.48487 0.99867 0.23308 0.0
C571 C 0.47215 0.02303 0.28356 0.0
C572 C 0.45771 0.03109 0.3094 0.0
C573 C 0.47047 0.00637 0.25954 0.0
C574 C 0.44156 0.02196 0.31185 0.0
C575 C 0.43981 0.00523 0.28823 0.0
H576 H 0.72228 0.81572 0.5413 0.0
H577 H 0.72589 0.761 0.58874 0.0
H578 H 0.75523 0.75906 0.54945 0.0
H579 H 0.77934 0.77226 0.4993 0.0
H580 H 0.77648 0.82672 0.4488 0.0
H581 H 0.74732 0.82933 0.49108 0.0
C582 C 0.72963 0.80348 0.5436 0.0
C583 C 0.72191 0.78853 0.56801 0.0
C584 C 0.74651 0.80231 0.51975 0.0
C585 C 0.73149 0.77268 0.57008 0.0
C586 C 0.74827 0.77152 0.54749 0.0
C587 C 0.77241 0.78475 0.49727 0.0
C588 C 0.78013 0.79925 0.47059 0.0
C589 C 0.75579 0.78616 0.52164 0.0
C590 C 0.77084 0.8153 0.46877 0.0
C591 C 0.75419 0.81682 0.49315 0.0
H592 H 0.4397 0.47313 0.79204 0.0
H593 H 0.49636 0.47062 0.80893 0.0
H594 H 0.49925 0.49934 0.7657 0.0
H595 H 0.48593 0.5251 0.72275 0.0
H596 H 0.42933 0.52829 0.70652 0.0
H597 H 0.42624 0.49935 0.74954 0.0
C598 C 0.45267 0.47889 0.78646 0.0
C599 C 0.46777 0.46965 0.80384 0.0
C600 C 0.45429 0.4955 0.76138 0.0
C601 C 0.48448 0.47737 0.79614 0.0
C602 C 0.48618 0.49381 0.77124 0.0
C603 C 0.47289 0.51946 0.72827 0.0
C604 C 0.45789 0.52885 0.7111 0.0
C605 C 0.4712 0.50295 0.75352 0.0
C606 C 0.44112 0.52135 0.7192 0.0
C607 C 0.43933 0.50481 0.7439 0.0
H608 H 0.72589 0.23448 0.98954 0.0
H609 H 0.72628 0.17824 0.96225 0.0
H610 H 0.75573 0.17629 1.00249 0.0
H611 H 0.78159 0.19075 0.04465 0.0
H612 H 0.78038 0.24704 0.07215 0.0
H613 H 0.75104 0.24867 0.03291 0.0
C614 C 0.7324 0.22177 0.99215 0.0
C615 C 0.72389 0.20656 0.97254 0.0
C616 C 0.74921 0.22072 0.01564 0.0
C617 C 0.73252 0.19019 0.97688 0.0
C618 C 0.74936 0.18906 0.99994 0.0
C619 C 0.77487 0.20335 0.04232 0.0
C620 C 0.78329 0.21873 0.06135 0.0
C621 C 0.75786 0.20426 0.01945 0.0
C622 C 0.77432 0.23495 0.0579 0.0
C623 C 0.75751 0.23594 0.03531 0.0
H624 H 0.06378 0.47067 0.2273 0.0
H625 H 0.00839 0.47475 0.18829 0.0
H626 H 0.00728 0.50395 0.22882 0.0
H627 H 0.02157 0.52807 0.27622 0.0
H628 H 0.07682 0.52482 0.31724 0.0
H629 H 0.07838 0.4955 0.27554 0.0
C630 C 0.05153 0.47804 0.22728 0.0
C631 C 0.0362 0.47049 0.20465 0.0
C632 C 0.05089 0.49489 0.25148 0.0
C633 C 0.02038 0.48016 0.20547 0.0
C634 C 0.01971 0.49689 0.22874 0.0
C635 C 0.03401 0.521 0.27635 0.0
C636 C 0.04905 0.52869 0.30005 0.0
C637 C 0.03481 0.5043 0.25219 0.0
C638 C 0.065 0.51923 0.29953 0.0
C639 C 0.06591 0.50248 0.27548 0.0
H640 H 0.27806 0.23499 0.48685 0.0
H641 H 0.27348 0.18145 0.42894 0.0
H642 H 0.24401 0.17925 0.46934 0.0
H643 H 0.21954 0.19272 0.52188 0.0
H644 H 0.22518 0.24633 0.57892 0.0
H645 H 0.2543 0.24816 0.53842 0.0
C646 C 0.27066 0.2228 0.48268 0.0
C647 C 0.27802 0.20842 0.45466 0.0
C648 C 0.25391 0.22159 0.50628 0.0
C649 C 0.26815 0.19276 0.45009 0.0
C650 C 0.25131 0.19148 0.47336 0.0
C651 C 0.2272 0.20475 0.5257 0.0
C652 C 0.22011 0.21935 0.55353 0.0
C653 C 0.24407 0.20581 0.50182 0.0
C654 C 0.23021 0.23488 0.55775 0.0
C655 C 0.2469 0.23598 0.5345 0.0
H656 H 0.56212 0.47156 0.29947 0.0
H657 H 0.5058 0.47178 0.32613 0.0
H658 H 0.50353 0.5005 0.28275 0.0
H659 H 0.51714 0.52518 0.23497 0.0
H660 H 0.57339 0.52571 0.2084 0.0
H661 H 0.57602 0.49709 0.25373 0.0
C662 C 0.54938 0.47796 0.29627 0.0
C663 C 0.53416 0.46941 0.31603 0.0
C664 C 0.54809 0.49456 0.27077 0.0
C665 C 0.51775 0.47795 0.31127 0.0
C666 C 0.5164 0.4944 0.28628 0.0
C667 C 0.52999 0.51904 0.23879 0.0
C668 C 0.54502 0.52754 0.21781 0.0
C669 C 0.53143 0.50272 0.26532 0.0
C670 C 0.56158 0.51944 0.22394 0.0
C671 C 0.5631 0.50308 0.24996 0.0
H672 H 0.27859 0.76978 0.03201 0.0
H673 H 0.27958 0.82531 0.07075 0.0
H674 H 0.25026 0.82885 0.03048 0.0
H675 H 0.22433 0.81603 0.98373 0.0
H676 H 0.22412 0.76038 0.94571 0.0
H677 H 0.25319 0.75715 0.98598 0.0
C678 C 0.27243 0.78269 0.03197 0.0
C679 C 0.28132 0.79725 0.05459 0.0
C680 C 0.2557 0.78464 0.00853 0.0
C681 C 0.27306 0.81386 0.05379 0.0
C682 C 0.2563 0.8159 0.03063 0.0
C683 C 0.23068 0.80322 0.98404 0.0
C684 C 0.22198 0.78849 0.96156 0.0
C685 C 0.24751 0.80137 0.00768 0.0
C686 C 0.23042 0.77197 0.96262 0.0
C687 C 0.24708 0.77007 0.98576 0.0
H688 H 0.93878 0.47195 0.73561 0.0
H689 H 0.99344 0.47341 0.6862 0.0
H690 H 0.99651 0.50295 0.72312 0.0
H691 H 0.98413 0.52818 0.77017 0.0
H692 H 0.92961 0.52759 0.82047 0.0
H693 H 0.9261 0.49791 0.78264 0.0
C694 C 0.95132 0.47878 0.73267 0.0
C695 C 0.96585 0.47038 0.70812 0.0
C696 C 0.95309 0.49589 0.75441 0.0
C697 C 0.98202 0.47945 0.7049 0.0
C698 C 0.98383 0.49638 0.72608 0.0
C699 C 0.97145 0.52161 0.77313 0.0
C700 C 0.95718 0.53013 0.7984 0.0
C701 C 0.96951 0.50467 0.75118 0.0
C702 C 0.94084 0.52135 0.80139 0.0
C703 C 0.93882 0.50438 0.77968 0.0
H704 H 0.16316 0.23541 0.96893 0.0
H705 H 0.1461 0.2883 0.93124 0.0
H706 H 0.14446 0.28065 0.83508 0.0
H707 H 0.1508 0.2597 0.76082 0.0
H708 H 0.16865 0.20712 0.80027 0.0
H709 H 0.16706 0.21395 0.89634 0.0
C710 C 0.1588 0.24522 0.93989 0.0
C711 C 0.15489 0.26245 0.95735 0.0
C712 C 0.15827 0.24086 0.88468 0.0
C713 C 0.14919 0.27494 0.91902 0.0
C714 C 0.14838 0.2706 0.86391 0.0
C715 C 0.15418 0.24968 0.79043 0.0
C716 C 0.16005 0.23298 0.77304 0.0
C717 C 0.15337 0.25373 0.84609 0.0
C718 C 0.16426 0.22015 0.81218 0.0
C719 C 0.16334 0.22402 0.86731 0.0
H720 H 0.0415 0.90966 0.0512 0.0
H721 H 0.98994 0.90141 0.98155 0.0
H722 H 0.97735 0.89784 0.07206 0.0
H723 H 0.98055 0.90008 0.17123 0.0
H724 H 0.03221 0.9087 0.23994 0.0
H725 H 0.04519 0.90876 0.14967 0.0
C726 C 0.02753 0.90695 0.05574 0.0
C727 C 0.01665 0.90608 0.00966 0.0
C728 C 0.02037 0.90495 0.10784 0.0
C729 C 0.99861 0.90226 0.01631 0.0
C730 C 0.99139 0.90024 0.0681 0.0
C731 C 0.99469 0.90158 0.16652 0.0
C732 C 0.00535 0.90455 0.21233 0.0
C733 C 0.00208 0.90195 0.11423 0.0
C734 C 0.02367 0.90651 0.20542 0.0
C735 C 0.03111 0.90664 0.15374 0.0
H736 H 0.3507 0.72836 0.41386 0.0
H737 H 0.34255 0.77893 0.48998 0.0
H738 H 0.34245 0.79333 0.40159 0.0
H739 H 0.34121 0.7911 0.30275 0.0
H740 H 0.34823 0.74039 0.22615 0.0
H741 H 0.35226 0.72656 0.31453 0.0
C742 C 0.34934 0.74258 0.41114 0.0
C743 C 0.34653 0.75255 0.45833 0.0
C744 C 0.34876 0.75073 0.36002 0.0
C745 C 0.34465 0.77095 0.45417 0.0
C746 C 0.34448 0.77919 0.40363 0.0
C747 C 0.34376 0.77705 0.30528 0.0
C748 C 0.34415 0.76679 0.25785 0.0
C749 C 0.34592 0.76913 0.35624 0.0
C750 C 0.34769 0.74861 0.26197 0.0
C751 C 0.35002 0.74067 0.31254 0.0
H752 H 0.5251 0.10457 0.65848 0.0
H753 H 0.47331 0.10529 0.73092 0.0
H754 H 0.45974 0.10513 0.64135 0.0
H755 H 0.46257 0.10049 0.54372 0.0
H756 H 0.51432 0.09851 0.47102 0.0
H757 H 0.52789 0.10353 0.55933 0.0
C758 C 0.51086 0.1052 0.65459 0.0
C759 C 0.50021 0.10476 0.70116 0.0
C760 C 0.50312 0.1045 0.60295 0.0
C761 C 0.48178 0.10549 0.69559 0.0
C762 C 0.474 0.10528 0.64441 0.0
C763 C 0.47682 0.10133 0.54705 0.0
C764 C 0.48741 0.09879 0.501 0.0
C765 C 0.48454 0.10403 0.59797 0.0
C766 C 0.50584 0.10023 0.50591 0.0
C767 C 0.51363 0.1031 0.55643 0.0
H768 H 0.15202 0.75168 0.75339 0.0
H769 H 0.16837 0.80486 0.71502 0.0
H770 H 0.16573 0.79861 0.6189 0.0
H771 H 0.16109 0.77767 0.54523 0.0
H772 H 0.14554 0.72416 0.58124 0.0
H773 H 0.14523 0.73103 0.67812 0.0
C774 C 0.15484 0.76194 0.72401 0.0
C775 C 0.16058 0.77868 0.74184 0.0
C776 C 0.15343 0.75822 0.66807 0.0
C777 C 0.16412 0.7918 0.7029 0.0
C778 C 0.16258 0.78827 0.64766 0.0
C779 C 0.15735 0.76754 0.57409 0.0
C780 C 0.15341 0.7504 0.55574 0.0
C781 C 0.15757 0.77146 0.62973 0.0
C782 C 0.14861 0.73749 0.59402 0.0
C783 C 0.14854 0.74138 0.64958 0.0
H784 H 0.50421 0.90327 0.99892 0.0
H785 H 0.45216 0.92281 0.96079 0.0
H786 H 0.45879 0.9214 0.86468 0.0
H787 H 0.47985 0.91683 0.7912 0.0
H788 H 0.53215 0.89779 0.82706 0.0
H789 H 0.52483 0.89651 0.92356 0.0
C790 C 0.49427 0.90706 0.96958 0.0
C791 C 0.47775 0.91332 0.98759 0.0
C792 C 0.4982 0.90632 0.91364 0.0
C793 C 0.46505 0.9181 0.94863 0.0
C794 C 0.4688 0.91728 0.89337 0.0
C795 C 0.4896 0.91213 0.81991 0.0
C796 C 0.50656 0.90748 0.80164 0.0
C797 C 0.48541 0.91172 0.8754 0.0
C798 C 0.51897 0.90142 0.83974 0.0
C799 C 0.51483 0.9008 0.89511 0.0
H800 H 0.35212 0.27536 0.10288 0.0
H801 H 0.35146 0.2237 0.02945 0.0
H802 H 0.35051 0.20995 0.11873 0.0
H803 H 0.34594 0.2127 0.21643 0.0
H804 H 0.34548 0.26433 0.29019 0.0
H805 H 0.35084 0.27796 0.2021 0.0
C806 C 0.35225 0.26109 0.1065 0.0
C807 C 0.35171 0.25056 0.05969 0.0
C808 C 0.35114 0.25327 0.15798 0.0
C809 C 0.35177 0.23209 0.06495 0.0
C810 C 0.35111 0.22422 0.11597 0.0
C811 C 0.34715 0.22693 0.21337 0.0
C812 C 0.34499 0.23748 0.2597 0.0
C813 C 0.35009 0.23469 0.1626 0.0
C814 C 0.34691 0.25588 0.2551 0.0
C815 C 0.34998 0.26371 0.20471 0.0
H816 H 1.00001 0.09819 0.50713 0.0
H817 H 0.0521 0.08038 0.46211 0.0
H818 H 0.04459 0.08316 0.36688 0.0
H819 H 0.02286 0.08857 0.29602 0.0
H820 H 0.97052 0.10597 0.3387 0.0
H821 H 0.97865 0.10579 0.4347 0.0
C822 C 0.00974 0.09501 0.4765 0.0
C823 C 0.02656 0.08889 0.49218 0.0
C824 C 0.00534 0.09663 0.42115 0.0
C825 C 0.03902 0.08499 0.45166 0.0
C826 C 0.03476 0.08659 0.39693 0.0
C827 C 0.01326 0.0926 0.32615 0.0
C828 C 0.99607 0.0972 0.31002 0.0
C829 C 0.01791 0.09214 0.3812 0.0
C830 C 0.98387 0.10242 0.34983 0.0
C831 C 0.98847 0.10218 0.40485 0.0
H832 H 0.84884 0.72874 0.11362 0.0
H833 H 0.84219 0.77929 0.03582 0.0
H834 H 0.84234 0.79395 0.12372 0.0
H835 H 0.84108 0.7921 0.22246 0.0
H836 H 0.84652 0.74152 0.30123 0.0
H837 H 0.85019 0.72723 0.21331 0.0
C838 C 0.84785 0.743 0.11592 0.0
C839 C 0.84542 0.75291 0.06832 0.0
C840 C 0.84743 0.75132 0.16682 0.0
C841 C 0.84398 0.77136 0.07191 0.0
C842 C 0.84399 0.77975 0.12218 0.0
C843 C 0.8432 0.77797 0.22056 0.0
C844 C 0.84327 0.7679 0.26844 0.0
C845 C 0.84512 0.7698 0.16991 0.0
C846 C 0.84626 0.74961 0.26506 0.0
C847 C 0.84837 0.74141 0.21474 0.0
H848 H 0.96249 0.08952 0.95311 0.0
H849 H 0.01327 0.09731 0.02856 0.0
H850 H 0.02695 0.10065 0.93947 0.0
H851 H 0.02488 0.09883 0.83974 0.0
H852 H 0.97409 0.09019 0.76536 0.0
H853 H 0.96006 0.09002 0.85424 0.0
C854 C 0.97654 0.09206 0.95024 0.0
C855 C 0.98683 0.09295 0.99769 0.0
C856 C 0.98435 0.09386 0.89888 0.0
C857 C 0.005 0.09645 0.99289 0.0
C858 C 0.01286 0.09836 0.94185 0.0
C859 C 0.01069 0.09731 0.84293 0.0
C860 C 1.00057 0.09449 0.79584 0.0
C861 C 0.00272 0.09678 0.89449 0.0
C862 C 0.98221 0.09235 0.80084 0.0
C863 C 0.97417 0.09216 0.85174 0.0
H864 H 0.66579 0.23038 0.55529 0.0
H865 H 0.64838 0.28273 0.59776 0.0
H866 H 0.64817 0.27452 0.69373 0.0
H867 H 0.65547 0.25304 0.76627 0.0
H868 H 0.67325 0.20092 0.72127 0.0
H869 H 0.67082 0.20854 0.62608 0.0
C870 C 0.66169 0.23996 0.58538 0.0
C871 C 0.6572 0.25718 0.56923 0.0
C872 C 0.66191 0.23525 0.64038 0.0
C873 C 0.65186 0.26936 0.60893 0.0
C874 C 0.65187 0.2647 0.66393 0.0
C875 C 0.65871 0.24333 0.73564 0.0
C876 C 0.66474 0.22648 0.75134 0.0
C877 C 0.6573 0.24779 0.68028 0.0
C878 C 0.66872 0.21404 0.71082 0.0
C879 C 0.66732 0.21836 0.65611 0.0
H880 H 0.5206 0.90604 0.29223 0.0
H881 H 0.46513 0.90299 0.3298 0.0
H882 H 0.47191 0.9037 0.42675 0.0
H883 H 0.49367 0.90822 0.50112 0.0
H884 H 0.54901 0.91162 0.46034 0.0
H885 H 0.54214 0.90778 0.36527 0.0
C886 C 0.50997 0.90521 0.32152 0.0
C887 C 0.49238 0.90455 0.30348 0.0
C888 C 0.51392 0.90598 0.37711 0.0
C889 C 0.47882 0.90344 0.34232 0.0
C890 C 0.48268 0.90401 0.39792 0.0
C891 C 0.50421 0.90795 0.47148 0.0
C892 C 0.52182 0.9105 0.48836 0.0
C893 C 0.50019 0.90577 0.41588 0.0
C894 C 0.5353 0.90997 0.44905 0.0
C895 C 0.53141 0.90772 0.39432 0.0
H896 H 0.85339 0.25865 0.26247 0.0
H897 H 0.84054 0.2046 0.30195 0.0
H898 H 0.84341 0.21112 0.398 0.0
H899 H 0.84662 0.23259 0.47085 0.0
H900 H 0.8583 0.28697 0.43307 0.0
H901 H 0.85926 0.27978 0.33652 0.0
C902 C 0.85141 0.24826 0.29206 0.0
C903 C 0.84651 0.23121 0.27484 0.0
C904 C 0.85288 0.25213 0.34764 0.0
C905 C 0.84411 0.21789 0.31386 0.0
C906 C 0.84578 0.22158 0.36894 0.0
C907 C 0.84969 0.24285 0.44167 0.0
C908 C 0.85223 0.26032 0.45923 0.0
C909 C 0.84974 0.23873 0.3863 0.0
C910 C 0.85628 0.2734 0.42074 0.0
C911 C 0.85669 0.26932 0.36543 0.0
H912 H 0.48149 0.105 0.16209 0.0
H913 H 0.53092 0.08829 0.23194 0.0
H914 H 0.54445 0.0878 0.14243 0.0
H915 H 0.54135 0.08892 0.04381 0.0
H916 H 0.49176 0.10498 0.9734 0.0
H917 H 0.47925 0.10898 0.06356 0.0
C918 C 0.49531 0.10163 0.15783 0.0
C919 C 0.50512 0.09652 0.20348 0.0
C920 C 0.50293 0.10098 0.10604 0.0
C921 C 0.52303 0.09214 0.19733 0.0
C922 C 0.53077 0.09178 0.14613 0.0
C923 C 0.52785 0.09342 0.04815 0.0
C924 C 0.51745 0.09637 1.00194 0.0
C925 C 0.52069 0.0956 0.10008 0.0
C926 C 0.50004 0.10246 0.00831 0.0
C927 C 0.49286 0.10475 0.05988 0.0
H928 H 0.64705 0.72608 0.91695 0.0
H929 H 0.64939 0.77782 0.98958 0.0
H930 H 0.65004 0.79141 0.90012 0.0
H931 H 0.65399 0.78842 0.80222 0.0
H932 H 0.65245 0.73673 0.72907 0.0
H933 H 0.64736 0.72333 0.81768 0.0
C934 C 0.64723 0.74034 0.91316 0.0
C935 C 0.64838 0.75091 0.95977 0.0
C936 C 0.64809 0.74807 0.86151 0.0
C937 C 0.64865 0.76937 0.95426 0.0
C938 C 0.64912 0.77717 0.90312 0.0
C939 C 0.65239 0.77424 0.80557 0.0
C940 C 0.65394 0.76357 0.7593 0.0
C941 C 0.64957 0.76661 0.85659 0.0
C942 C 0.65148 0.74524 0.76416 0.0
C943 C 0.64858 0.73755 0.81484 0.0
H944 H 0.00747 0.90173 0.50117 0.0
H945 H 0.95307 0.91235 0.54159 0.0
H946 H 0.95958 0.90842 0.63722 0.0
H947 H 0.98106 0.90499 0.70992 0.0
H948 H 0.03572 0.89533 0.67158 0.0
H949 H 0.02867 0.89542 0.57487 0.0
C950 C 0.99701 0.90299 0.53085 0.0
C951 C 0.97985 0.90761 0.51403 0.0
C952 C 1.00087 0.90087 0.5863 0.0
C953 C 0.96644 0.90905 0.55317 0.0
C954 C 0.97013 0.90677 0.60804 0.0
C955 C 0.99141 0.90258 0.68054 0.0
C956 C 0.00891 0.90032 0.69805 0.0
C957 C 0.98736 0.90311 0.62513 0.0
C958 C 0.02212 0.89711 0.65929 0.0
C959 C 0.01812 0.89731 0.6039 0.0
H960 H 0.6467 0.76987 0.41946 0.0
H961 H 0.66095 0.71987 0.49087 0.0
H962 H 0.66074 0.70604 0.40184 0.0
H963 H 0.65999 0.70891 0.30315 0.0
H964 H 0.64634 0.759 0.23112 0.0
H965 H 0.64273 0.77193 0.32085 0.0
C966 C 0.64939 0.75587 0.41564 0.0
C967 C 0.65405 0.74598 0.46159 0.0
C968 C 0.64961 0.74804 0.3641 0.0
C969 C 0.65749 0.72784 0.45602 0.0
C970 C 0.65744 0.71991 0.40509 0.0
C971 C 0.65606 0.72261 0.30704 0.0
C972 C 0.65373 0.73302 0.26051 0.0
C973 C 0.65413 0.73002 0.35872 0.0
C974 C 0.64837 0.75069 0.26628 0.0
C975 C 0.64631 0.75813 0.31761 0.0
H976 H 0.52041 0.40203 0.72163 0.0
H977 H 0.46501 0.39589 0.68641 0.0
H978 H 0.47146 0.39538 0.58932 0.0
H979 H 0.49266 0.39996 0.51393 0.0
H980 H 0.5479 0.40681 0.55149 0.0
H981 H 0.54164 0.40374 0.64749 0.0
C982 C 0.50974 0.40025 0.69287 0.0
C983 C 0.49224 0.39912 0.71153 0.0
C984 C 0.51349 0.40036 0.6371 0.0
C985 C 0.47863 0.39678 0.67339 0.0
C986 C 0.4823 0.39662 0.61771 0.0
C987 C 0.50334 0.40056 0.54307 0.0
C988 C 0.5207 0.40387 0.52515 0.0
C989 C 0.49965 0.39893 0.59896 0.0
C990 C 0.53437 0.40452 0.56375 0.0
C991 C 0.53083 0.40273 0.61892 0.0
H992 H 0.84137 0.29378 0.81076 0.0
H993 H 0.8506 0.24236 0.74141 0.0
H994 H 0.85551 0.2301 0.83169 0.0
H995 H 0.85445 0.23345 0.93086 0.0
H996 H 0.84499 0.28493 0.99966 0.0
H997 H 0.84328 0.2977 0.90918 0.0
C998 C 0.84455 0.27991 0.81533 0.0
C999 C 0.84535 0.26897 0.76938 0.0
C1000 C 0.84739 0.27294 0.86736 0.0
C1001 C 0.84979 0.25108 0.77605 0.0
C1002 C 0.85259 0.24404 0.82772 0.0
C1003 C 0.85241 0.24753 0.92611 0.0
C1004 C 0.84972 0.25817 0.97208 0.0
C1005 C 0.85109 0.25478 0.87377 0.0
C1006 C 0.84703 0.27639 0.96506 0.0
C1007 C 0.84594 0.28371 0.91326 0.0
H1008 H 0.02706 0.5995 0.15621 0.0
H1009 H 0.97669 0.59104 0.23338 0.0
H1010 H 0.96214 0.59066 0.14528 0.0
H1011 H 0.96414 0.5895 0.04649 0.0
H1012 H 0.01461 0.59682 0.96861 0.0
H1013 H 0.02865 0.6009 0.0567 0.0
C1014 C 0.01285 0.59799 0.15374 0.0
C1015 C 0.00298 0.59522 0.20117 0.0
C1016 C 0.00461 0.59727 0.10278 0.0
C1017 C 0.98459 0.59312 0.19738 0.0
C1018 C 0.97627 0.59281 0.14701 0.0
C1019 C 0.9782 0.5921 0.04866 0.0
C1020 C 0.98832 0.5926 1.00098 0.0
C1021 C 0.98622 0.59429 0.09943 0.0
C1022 C 0.00649 0.59622 1.00465 0.0
C1023 C 0.01456 0.59856 0.05505 0.0
H1024 H 0.66159 0.2898 0.21286 0.0
H1025 H 0.65728 0.23866 0.28879 0.0
H1026 H 0.65407 0.2248 0.19988 0.0
H1027 H 0.65524 0.22696 0.09995 0.0
H1028 H 0.66058 0.27818 0.02524 0.0
H1029 H 0.66034 0.2922 0.11411 0.0
C1030 C 0.65981 0.27562 0.21017 0.0
C1031 C 0.65988 0.2653 0.25767 0.0
C1032 C 0.65814 0.26772 0.15891 0.0
C1033 C 0.65738 0.24696 0.25307 0.0
C1034 C 0.65556 0.23901 0.20214 0.0
C1035 C 0.65594 0.24122 0.1031 0.0
C1036 C 0.65796 0.25149 0.05589 0.0
C1037 C 0.65626 0.24921 0.15467 0.0
C1038 C 0.65906 0.26994 0.06081 0.0
C1039 C 0.65901 0.27798 0.1117 0.0
H1040 H 0.00276 0.39884 0.5066 0.0
H1041 H 0.94967 0.41523 0.46789 0.0
H1042 H 0.95599 0.41244 0.3717 0.0
H1043 H 0.97719 0.40821 0.29862 0.0
H1044 H 0.03066 0.39292 0.33569 0.0
H1045 H 0.02345 0.39202 0.43224 0.0
C1046 C 0.99252 0.40162 0.47714 0.0
C1047 C 0.97583 0.40748 0.49463 0.0
C1048 C 0.99629 0.40018 0.42149 0.0
C1049 C 0.9627 0.41091 0.45577 0.0
C1050 C 0.96628 0.40929 0.40062 0.0
C1051 C 0.98722 0.40437 0.32764 0.0
C1052 C 0.00448 0.40079 0.30991 0.0
C1053 C 0.98312 0.40435 0.38302 0.0
C1054 C 0.01727 0.39577 0.34818 0.0
C1055 C 0.01318 0.39538 0.40348 0.0
H1056 H 0.83826 0.71119 0.72209 0.0
H1057 H 0.84828 0.7611 0.80057 0.0
H1058 H 0.85261 0.77514 0.71259 0.0
H1059 H 0.85067 0.77386 0.61309 0.0
H1060 H 0.83947 0.72412 0.53535 0.0
H1061 H 0.83884 0.70938 0.62318 0.0
C1062 C 0.84152 0.72511 0.72008 0.0
C1063 C 0.8427 0.73509 0.76795 0.0
C1064 C 0.84383 0.73316 0.66935 0.0
C1065 C 0.84713 0.75309 0.76443 0.0
C1066 C 0.84963 0.76116 0.71407 0.0
C1067 C 0.84851 0.75973 0.61536 0.0
C1068 C 0.84505 0.75011 0.56785 0.0
C1069 C 0.84764 0.75141 0.66621 0.0
C1070 C 0.8421 0.73183 0.5714 0.0
C1071 C 0.84164 0.7234 0.62163 0.0
H1072 H 0.49818 0.59473 1.00226 0.0
H1073 H 0.55029 0.57566 0.96258 0.0
H1074 H 0.54377 0.57817 0.86671 0.0
H1075 H 0.52297 0.58394 0.79347 0.0
H1076 H 0.47062 0.6026 0.83048 0.0
H1077 H 0.47768 0.60242 0.92725 0.0
C1078 C 0.50812 0.59119 0.97264 0.0
C1079 C 0.52466 0.58484 0.99018 0.0
C1080 C 0.5043 0.59267 0.91673 0.0
C1081 C 0.53739 0.58047 0.95085 0.0
C1082 C 0.53371 0.58193 0.89568 0.0
C1083 C 0.51315 0.58825 0.82251 0.0
C1084 C 0.49627 0.59324 0.80443 0.0
C1085 C 0.51717 0.58779 0.87811 0.0
C1086 C 0.48376 0.59875 0.843 0.0
C1087 C 0.48774 0.59851 0.89852 0.0
H1088 H 0.3532 0.23187 0.59878 0.0
H1089 H 0.33643 0.28121 0.52825 0.0
H1090 H 0.33664 0.29507 0.61729 0.0
H1091 H 0.33832 0.2923 0.71593 0.0
H1092 H 0.35438 0.24281 0.7871 0.0
H1093 H 0.35779 0.22997 0.69716 0.0
C1094 C 0.34997 0.24575 0.60277 0.0
C1095 C 0.34463 0.25543 0.55708 0.0
C1096 C 0.34972 0.25356 0.65433 0.0
C1097 C 0.34045 0.27341 0.56289 0.0
C1098 C 0.34049 0.28134 0.61383 0.0
C1099 C 0.34271 0.27875 0.7118 0.0
C1100 C 0.34581 0.26847 0.75821 0.0
C1101 C 0.34453 0.27139 0.66 0.0
C1102 C 0.35174 0.251 0.75208 0.0
C1103 C 0.3537 0.24362 0.70062 0.0
H1104 H 0.50584 0.59595 0.50167 0.0
H1105 H 0.45263 0.57992 0.4625 0.0
H1106 H 0.45925 0.58182 0.36657 0.0
H1107 H 0.48044 0.58586 0.29321 0.0
H1108 H 0.53381 0.60161 0.32984 0.0
H1109 H 0.52672 0.60233 0.42652 0.0
C1110 C 0.49568 0.59298 0.47216 0.0
C1111 C 0.4788 0.5876 0.48984 0.0
C1112 C 0.49955 0.59409 0.41622 0.0
C1113 C 0.46579 0.58396 0.45064 0.0
C1114 C 0.46953 0.58506 0.39544 0.0
C1115 C 0.49048 0.58975 0.32215 0.0
C1116 C 0.50766 0.59361 0.30403 0.0
C1117 C 0.48641 0.58983 0.37772 0.0
C1118 C 0.52045 0.59862 0.34241 0.0
C1119 C 0.51644 0.59889 0.39789 0.0
H1120 H 0.15236 0.76276 0.25395 0.0
H1121 H 0.15814 0.70747 0.2155 0.0
H1122 H 0.15526 0.71397 0.11962 0.0
H1123 H 0.15397 0.73538 0.04576 0.0
H1124 H 0.14871 0.7908 0.08186 0.0
H1125 H 0.14815 0.78417 0.17886 0.0
C1126 C 0.15276 0.75212 0.22465 0.0
C1127 C 0.15572 0.73467 0.24233 0.0
C1128 C 0.15121 0.75595 0.16879 0.0
C1129 C 0.15612 0.72107 0.20347 0.0
C1130 C 0.15444 0.72475 0.14835 0.0
C1131 C 0.15238 0.74602 0.0747 0.0
C1132 C 0.1515 0.76357 0.0563 0.0
C1133 C 0.15241 0.74216 0.13043 0.0
C1134 C 0.1494 0.77714 0.09466 0.0
C1135 C 0.1492 0.77337 0.1503 0.0
H1136 H 0.97788 0.39865 0.83855 0.0
H1137 H 0.02969 0.4059 0.76953 0.0
H1138 H 0.04258 0.40686 0.85995 0.0
H1139 H 0.03879 0.40883 0.95842 0.0
H1140 H 0.98699 0.40198 0.02791 0.0
H1141 H 0.97452 0.39765 0.93769 0.0
C1142 C 0.99203 0.40004 0.84324 0.0
C1143 C 0.00276 0.40233 0.79723 0.0
C1144 C 0.99936 0.40097 0.89554 0.0
C1145 C 0.02109 0.40419 0.80416 0.0
C1146 C 0.02848 0.40485 0.85593 0.0
C1147 C 0.02479 0.40628 0.95392 0.0
C1148 C 0.01383 0.40599 0.9999 0.0
C1149 C 0.01768 0.40382 0.90189 0.0
C1150 C 0.99575 0.40239 0.99326 0.0
C1151 C 0.98858 0.39992 0.94162 0.0
H1152 H 0.35059 0.77169 0.91344 0.0
H1153 H 0.33908 0.72178 0.98991 0.0
H1154 H 0.33786 0.70742 0.9016 0.0
H1155 H 0.33697 0.70964 0.8027 0.0
H1156 H 0.34749 0.75974 0.72575 0.0
H1157 H 0.35219 0.77337 0.81407 0.0
C1158 C 0.34822 0.7576 0.9108 0.0
C1159 C 0.34484 0.74784 0.9581 0.0
C1160 C 0.34704 0.7495 0.85973 0.0
C1161 C 0.34164 0.72961 0.95404 0.0
C1162 C 0.34085 0.72139 0.90354 0.0
C1163 C 0.3404 0.72351 0.80514 0.0
C1164 C 0.34163 0.73367 0.75761 0.0
C1165 C 0.34297 0.73132 0.85608 0.0
C1166 C 0.34631 0.7516 0.76164 0.0
C1167 C 0.34902 0.75943 0.81218 0.0
H1168 H 0.98203 0.60011 0.65623 0.0
H1169 H 0.03228 0.59073 0.73308 0.0
H1170 H 0.04682 0.59055 0.64499 0.0
H1171 H 0.04478 0.58971 0.54621 0.0
H1172 H 0.99443 0.59788 0.46848 0.0
H1173 H 0.98047 0.60194 0.55669 0.0
C1174 C 0.99622 0.59845 0.6537 0.0
C1175 C 0.00605 0.59535 0.70104 0.0
C1176 C 0.00444 0.59784 0.6027 0.0
C1177 C 0.0244 0.59306 0.69717 0.0
C1178 C 0.03272 0.59286 0.64679 0.0
C1179 C 0.03078 0.59253 0.54842 0.0
C1180 C 0.02065 0.59323 0.50074 0.0
C1181 C 0.02279 0.59466 0.59925 0.0
C1182 C 0.00254 0.59711 0.5045 0.0
C1183 C 0.99453 0.59943 0.55498 0.0
H1184 H 0.16128 0.29623 0.31014 0.0
H1185 H 0.15748 0.24453 0.23777 0.0
H1186 H 0.15261 0.23144 0.327 0.0
H1187 H 0.15211 0.23438 0.42647 0.0
H1188 H 0.15657 0.28611 0.49819 0.0
H1189 H 0.15813 0.29945 0.4084 0.0
C1190 C 0.15929 0.2821 0.31374 0.0
C1191 C 0.15999 0.27138 0.26725 0.0
C1192 C 0.15654 0.27464 0.36519 0.0
C1193 C 0.15713 0.25312 0.2728 0.0
C1194 C 0.15434 0.2456 0.32389 0.0
C1195 C 0.153 0.2486 0.42244 0.0
C1196 C 0.15429 0.25921 0.46909 0.0
C1197 C 0.15434 0.25619 0.37051 0.0
C1198 C 0.1556 0.27762 0.46304 0.0
C1199 C 0.15661 0.28527 0.41165 0.0
H1200 H 0.47751 0.40767 0.22198 0.0
H1201 H 0.53134 0.39327 0.18693 0.0
H1202 H 0.52474 0.39318 0.08986 0.0
H1203 H 0.50423 0.4 0.01432 0.0
H1204 H 0.45074 0.41534 0.05178 0.0
H1205 H 0.45672 0.41227 0.14795 0.0
C1206 C 0.48777 0.40421 0.19329 0.0
C1207 C 0.50492 0.40056 0.21194 0.0
C1208 C 0.484 0.40461 0.13757 0.0
C1209 C 0.518 0.39612 0.17389 0.0
C1210 C 0.51426 0.39619 0.11824 0.0
C1211 C 0.49385 0.40251 0.04351 0.0
C1212 C 0.47711 0.40811 0.02547 0.0
C1213 C 0.49741 0.40087 0.09946 0.0
C1214 C 0.46382 0.41123 0.06413 0.0
C1215 C 0.4672 0.40944 0.11938 0.0
H1216 H 0.11829 0.32987 0.14309 0.0
H1217 H 0.1598 0.36792 0.11844 0.0
H1218 H 0.13823 0.39197 0.12 0.0
H1219 H 0.10754 0.4021 0.12896 0.0
H1220 H 0.06639 0.36426 0.16232 0.0
H1221 H 0.08781 0.3402 0.15772 0.0
C1222 C 0.12251 0.34344 0.13755 0.0
C1223 C 0.14047 0.34721 0.12967 0.0
C1224 C 0.11014 0.3572 0.1408 0.0
C1225 C 0.14597 0.3648 0.12403 0.0
C1226 C 0.13367 0.37851 0.12512 0.0
C1227 C 0.1033 0.38859 0.13551 0.0
C1228 C 0.08543 0.38494 0.14579 0.0
C1229 C 0.11573 0.37487 0.13371 0.0
C1230 C 0.08011 0.36741 0.15469 0.0
C1231 C 0.09233 0.35364 0.15168 0.0
H1232 H 0.86662 0.84683 0.31071 0.0
H1233 H 0.86507 0.84728 0.48516 0.0
H1234 H 0.88745 0.87067 0.48702 0.0
H1235 H 0.90772 0.89064 0.43878 0.0
H1236 H 0.9121 0.88751 0.2651 0.0
H1237 H 0.88832 0.86548 0.26269 0.0
C1238 C 0.87117 0.85215 0.34902 0.0
C1239 C 0.86414 0.84561 0.39776 0.0
C1240 C 0.88451 0.86504 0.34971 0.0
C1241 C 0.87032 0.85223 0.44727 0.0
C1242 C 0.88307 0.86558 0.44828 0.0
C1243 C 0.90334 0.88518 0.40045 0.0
C1244 C 0.91133 0.89079 0.35206 0.0
C1245 C 0.89026 0.87205 0.39976 0.0
C1246 C 0.90598 0.88339 0.30269 0.0
C1247 C 0.89242 0.87084 0.30139 0.0
H1248 H 0.38326 0.67327 0.6368 0.0
H1249 H 0.34028 0.63634 0.62127 0.0
H1250 H 0.36094 0.61161 0.62746 0.0
H1251 H 0.39122 0.60054 0.63745 0.0
H1252 H 0.43398 0.63737 0.6608 0.0
H1253 H 0.41344 0.6621 0.6524 0.0
C1254 C 0.37851 0.65979 0.63428 0.0
C1255 C 0.36038 0.65654 0.62767 0.0
C1256 C 0.39038 0.64566 0.64001 0.0
C1257 C 0.35424 0.63907 0.62589 0.0
C1258 C 0.36602 0.62497 0.62961 0.0
C1259 C 0.39602 0.61399 0.64104 0.0
C1260 C 0.41409 0.61713 0.64957 0.0
C1261 C 0.38411 0.6281 0.63687 0.0
C1262 C 0.4201 0.6346 0.65459 0.0
C1263 C 0.40839 0.64875 0.64938 0.0
H1264 H 0.61915 0.17299 0.87904 0.0
H1265 H 0.66016 0.13551 0.91563 0.0
H1266 H 0.63922 0.11112 0.90512 0.0
H1267 H 0.60929 0.10049 0.88476 0.0
H1268 H 0.56882 0.13783 0.84079 0.0
H1269 H 0.58953 0.16221 0.85384 0.0
C1270 C 0.62338 0.15947 0.88533 0.0
C1271 C 0.64102 0.15598 0.89908 0.0
C1272 C 0.61144 0.14551 0.87701 0.0
C1273 C 0.64656 0.13845 0.90561 0.0
C1274 C 0.63463 0.12452 0.89934 0.0
C1275 C 0.60504 0.11396 0.87765 0.0
C1276 C 0.58753 0.11734 0.86189 0.0
C1277 C 0.61706 0.12789 0.88472 0.0
C1278 C 0.58226 0.13485 0.85254 0.0
C1279 C 0.59406 0.14882 0.86042 0.0
H1280 H 0.09771 0.61698 0.44986 0.0
H1281 H 0.09687 0.61452 0.27555 0.0
H1282 H 0.11919 0.63795 0.27081 0.0
H1283 H 0.13855 0.65942 0.31658 0.0
H1284 H 0.13653 0.66451 0.49026 0.0
H1285 H 0.11568 0.63975 0.49538 0.0
C1286 C 0.10253 0.62155 0.41093 0.0
C1287 C 0.09594 0.61397 0.36307 0.0
C1288 C 0.11477 0.63548 0.40862 0.0
C1289 C 0.10188 0.62018 0.31278 0.0
C1290 C 0.11461 0.63353 0.31014 0.0
C1291 C 0.13358 0.65499 0.35551 0.0
C1292 C 0.13917 0.6635 0.4031 0.0
C1293 C 0.12111 0.6413 0.3578 0.0
C1294 C 0.13241 0.65803 0.45324 0.0
C1295 C 0.12053 0.64391 0.45611 0.0
H1296 H 0.63724 0.84689 0.5605 0.0
H1297 H 0.64249 0.84242 0.73373 0.0
H1298 H 0.62006 0.86522 0.74662 0.0
H1299 H 0.5982 0.88591 0.70829 0.0
H1300 H 0.59545 0.89273 0.53524 0.0
H1301 H 0.6176 0.86968 0.52237 0.0
C1302 C 0.6335 0.85104 0.60094 0.0
C1303 C 0.64134 0.843 0.64608 0.0
C1304 C 0.62102 0.86455 0.60802 0.0
C1305 C 0.63662 0.84854 0.69839 0.0
C1306 C 0.62376 0.8615 0.7058 0.0
C1307 C 0.60258 0.88236 0.66792 0.0
C1308 C 0.5952 0.89083 0.62277 0.0
C1309 C 0.61576 0.86952 0.66092 0.0
C1310 C 0.60105 0.88636 0.57057 0.0
C1311 C 0.61365 0.87316 0.56317 0.0
H1312 H 0.42491 0.36798 0.88869 0.0
H1313 H 0.38901 0.41022 0.8504 0.0
H1314 H 0.36393 0.38996 0.85828 0.0
H1315 H 0.35227 0.36024 0.87699 0.0
H1316 H 0.38807 0.31859 0.92272 0.0
H1317 H 0.4131 0.33864 0.91207 0.0
C1318 C 0.41159 0.37263 0.88143 0.0
C1319 C 0.40875 0.39042 0.86799 0.0
C1320 C 0.39723 0.36109 0.88825 0.0
C1321 C 0.39145 0.39651 0.86022 0.0
C1322 C 0.37714 0.38496 0.86498 0.0
C1323 C 0.36554 0.35559 0.88498 0.0
C1324 C 0.3683 0.33794 0.90056 0.0
C1325 C 0.37987 0.36724 0.87932 0.0
C1326 C 0.38557 0.33214 0.91107 0.0
C1327 C 0.39991 0.34356 0.90458 0.0
H1328 H 0.85326 0.14546 0.11585 0.0
H1329 H 0.89057 0.18796 0.09532 0.0
H1330 H 0.91504 0.16707 0.10193 0.0
H1331 H 0.92588 0.1367 0.11634 0.0
H1332 H 0.88851 0.09401 0.12926 0.0
H1333 H 0.86401 0.11495 0.12355 0.0
C1334 C 0.86675 0.15012 0.11233 0.0
C1335 C 0.8701 0.16824 0.10528 0.0
C1336 C 0.88074 0.13801 0.11558 0.0
C1337 C 0.88763 0.17407 0.10039 0.0
C1338 C 0.90164 0.16215 0.10461 0.0
C1339 C 0.91235 0.13207 0.11829 0.0
C1340 C 0.90892 0.11394 0.12416 0.0
C1341 C 0.89836 0.14412 0.1129 0.0
C1342 C 0.8914 0.10796 0.12522 0.0
C1343 C 0.87741 0.1199 0.12179 0.0
H1344 H 0.88425 0.67397 0.87781 0.0
H1345 H 0.84219 0.63735 0.91196 0.0
H1346 H 0.86282 0.61258 0.90556 0.0
H1347 H 0.89281 0.60141 0.88967 0.0
H1348 H 0.93435 0.63778 0.84695 0.0
H1349 H 0.91395 0.66259 0.85625 0.0
C1350 C 0.87973 0.66055 0.88435 0.0
C1351 C 0.8619 0.65738 0.89635 0.0
C1352 C 0.8915 0.64638 0.8783 0.0
C1353 C 0.85595 0.64 0.90327 0.0
C1354 C 0.8677 0.62587 0.89939 0.0
C1355 C 0.89735 0.61477 0.8821 0.0
C1356 C 0.91505 0.61779 0.86781 0.0
C1357 C 0.88549 0.62891 0.88669 0.0
C1358 C 0.92075 0.63512 0.85763 0.0
C1359 C 0.90912 0.64932 0.86334 0.0
H1360 H 0.15134 0.14664 0.62888 0.0
H1361 H 0.11331 0.18764 0.59686 0.0
H1362 H 0.08923 0.16641 0.60756 0.0
H1363 H 0.07894 0.13615 0.6275 0.0
H1364 H 0.11715 0.09489 0.65291 0.0
H1365 H 0.1412 0.11627 0.64423 0.0
C1366 C 0.13779 0.15091 0.62386 0.0
C1367 C 0.13413 0.16871 0.61217 0.0
C1368 C 0.12404 0.13862 0.62968 0.0
C1369 C 0.1165 0.174 0.60549 0.0
C1370 C 0.10271 0.16189 0.61203 0.0
C1371 C 0.09255 0.13194 0.63172 0.0
C1372 C 0.09633 0.11408 0.64171 0.0
C1373 C 0.10631 0.1442 0.62465 0.0
C1374 C 0.11397 0.10863 0.64569 0.0
C1375 C 0.12771 0.12082 0.6405 0.0
H1376 H 0.59424 0.38583 0.4458 0.0
H1377 H 0.58864 0.38529 0.27219 0.0
H1378 H 0.61258 0.36362 0.26503 0.0
H1379 H 0.63478 0.34451 0.30879 0.0
H1380 H 0.63761 0.34231 0.48297 0.0
H1381 H 0.61505 0.36536 0.48973 0.0
C1382 C 0.59839 0.381 0.40645 0.0
C1383 C 0.58999 0.38725 0.35946 0.0
C1384 C 0.61158 0.36805 0.40298 0.0
C1385 C 0.59507 0.38067 0.30874 0.0
C1386 C 0.60871 0.36832 0.30473 0.0
C1387 C 0.63046 0.34917 0.34814 0.0
C1388 C 0.63791 0.34197 0.39537 0.0
C1389 C 0.61702 0.36189 0.3516 0.0
C1390 C 0.63204 0.34776 0.44619 0.0
C1391 C 0.61919 0.36092 0.45 0.0
H1392 H 0.35348 0.86178 0.14799 0.0
H1393 H 0.38891 0.82055 0.09676 0.0
H1394 H 0.41392 0.84084 0.10398 0.0
H1395 H 0.42576 0.87035 0.12559 0.0
H1396 H 0.39 0.91216 0.169 0.0
H1397 H 0.36508 0.8916 0.16493 0.0
C1398 C 0.36667 0.85727 0.13815 0.0
C1399 C 0.36935 0.83968 0.12198 0.0
C1400 C 0.38093 0.86907 0.14165 0.0
C1401 C 0.38649 0.83406 0.10895 0.0
C1402 C 0.4008 0.84562 0.11344 0.0
C1403 C 0.41251 0.87485 0.13473 0.0
C1404 C 0.40967 0.8926 0.1485 0.0
C1405 C 0.3982 0.86312 0.13012 0.0
C1406 C 0.39245 0.89848 0.15881 0.0
C1407 C 0.37822 0.88676 0.15627 0.0
H1408 H 0.89107 0.40042 0.64836 0.0
H1409 H 0.93364 0.36372 0.67537 0.0
H1410 H 0.9132 0.33895 0.66581 0.0
H1411 H 0.88329 0.32766 0.6472 0.0
H1412 H 0.84037 0.36433 0.62735 0.0
H1413 H 0.86087 0.38919 0.63583 0.0
C1414 C 0.89584 0.387 0.65267 0.0
C1415 C 0.91386 0.38392 0.66244 0.0
C1416 C 0.88398 0.37283 0.64754 0.0
C1417 C 0.91982 0.36646 0.66823 0.0
C1418 C 0.90816 0.35228 0.66231 0.0
C1419 C 0.87851 0.34112 0.64422 0.0
C1420 C 0.86046 0.34425 0.63564 0.0
C1421 C 0.89026 0.3553 0.65126 0.0
C1422 C 0.85427 0.36168 0.63338 0.0
C1423 C 0.86596 0.37586 0.63845 0.0
H1424 H 0.36471 0.15744 0.31216 0.0
H1425 H 0.36344 0.16148 0.48621 0.0
H1426 H 0.38599 0.13842 0.49344 0.0
H1427 H 0.40636 0.11748 0.44983 0.0
H1428 H 0.41012 0.11603 0.27572 0.0
H1429 H 0.38628 0.13775 0.26853 0.0
C1430 C 0.36933 0.15315 0.35162 0.0
C1431 C 0.36235 0.16088 0.39868 0.0
C1432 C 0.38273 0.14043 0.35525 0.0
C1433 C 0.36864 0.1556 0.44957 0.0
C1434 C 0.38149 0.14245 0.45364 0.0
C1435 C 0.40185 0.12188 0.41037 0.0
C1436 C 0.40974 0.11509 0.36329 0.0
C1437 C 0.38865 0.13481 0.40674 0.0
C1438 C 0.40414 0.1211 0.31239 0.0
C1439 C 0.39053 0.13347 0.30833 0.0
H1440 H 0.61667 0.67317 0.13313 0.0
H1441 H 0.6609 0.63803 0.11462 0.0
H1442 H 0.64122 0.61247 0.12147 0.0
H1443 H 0.61145 0.60018 0.13363 0.0
H1444 H 0.56753 0.63529 0.15985 0.0
H1445 H 0.58706 0.6608 0.15009 0.0
C1446 C 0.6219 0.65989 0.12999 0.0
C1447 C 0.64009 0.65739 0.12243 0.0
C1448 C 0.61061 0.6453 0.13617 0.0
C1449 C 0.64688 0.64019 0.11992 0.0
C1450 C 0.63566 0.62561 0.12406 0.0
C1451 C 0.60618 0.61342 0.13753 0.0
C1452 C 0.58807 0.61585 0.14734 0.0
C1453 C 0.61751 0.62801 0.13252 0.0
C1454 C 0.58144 0.63307 0.15267 0.0
C1455 C 0.59258 0.64767 0.14669 0.0
H1456 H 0.11005 0.90225 0.89506 0.0
H1457 H 0.06947 0.86564 0.84579 0.0
H1458 H 0.0901 0.84109 0.8553 0.0
H1459 H 0.11963 0.82992 0.8786 0.0
H1460 H 0.1609 0.86665 0.92001 0.0
H1461 H 0.14004 0.89125 0.91347 0.0
C1462 C 0.10577 0.88891 0.88606 0.0
C1463 C 0.08825 0.88578 0.86982 0.0
C1464 C 0.11777 0.87486 0.89096 0.0
C1465 C 0.08292 0.86843 0.85798 0.0
C1466 C 0.09467 0.85436 0.86381 0.0
C1467 C 0.12395 0.84331 0.88681 0.0
C1468 C 0.14163 0.84652 0.90078 0.0
C1469 C 0.11207 0.8574 0.88071 0.0
C1470 C 0.14727 0.86392 0.90978 0.0
C1471 C 0.13538 0.87796 0.90578 0.0
loop_
_geom_bond_atom_site_label_1
_geom_bond_atom_site_label_2
_geom_bond_distance
_geom_bond_site_symmetry_2
_ccdc_geom_bond_type
O0 Cd1 2.223 . S
O0 C8 1.315 . S
Cd1 O0 2.223 . S
Cd1 O4 2.297 . S
Cd1 O5 2.439 . S
Cd1 O11 2.240 . S
Cd2 O3 2.240 . S
Cd2 O10 2.223 . S
Cd2 O12 2.297 1_554 S
Cd2 O13 2.439 1_554 S
O3 Cd2 2.240 . S
O3 C8 1.279 . S
O4 Cd1 2.297 . S
O4 C6 1.247 . S
O5 Cd1 2.439 . S
O5 C6 1.208 . S
C6 O4 1.247 . S
C6 O5 1.208 . S
C7 O12 1.247 . S
C7 O13 1.208 . S
C8 O0 1.315 . S
C8 O3 1.279 . S
C9 O10 1.315 . S
C9 O11 1.279 . S
O10 Cd2 2.223 . S
O10 C9 1.315 . S
O11 Cd1 2.240 . S
O11 C9 1.279 . S
O12 Cd2 2.297 1_556 S
O12 C7 1.247 . S
O13 Cd2 2.439 1_556 S
O13 C7 1.208 . S
O14 Cd15 2.223 . S
O14 C22 1.315 . S
Cd15 O14 2.223 . S
Cd15 O18 2.297 . S
Cd15 O19 2.439 . S
Cd15 O25 2.240 . S
Cd16 O17 2.240 . S
Cd16 O24 2.223 . S
Cd16 O26 2.297 . S
Cd16 O27 2.439 . S
O17 Cd16 2.240 . S
O17 C22 1.279 . S
O18 Cd15 2.297 . S
O18 C20 1.247 . S
O19 Cd15 2.439 . S
O19 C20 1.208 . S
C20 O18 1.247 . S
C20 O19 1.208 . S
C21 O26 1.247 . S
C21 O27 1.208 . S
C22 O14 1.315 . S
C22 O17 1.279 . S
C23 O24 1.315 . S
C23 O25 1.279 . S
O24 Cd16 2.223 . S
O24 C23 1.315 . S
O25 Cd15 2.240 . S
O25 C23 1.279 . S
O26 Cd16 2.297 . S
O26 C21 1.247 . S
O27 Cd16 2.439 . S
O27 C21 1.208 . S
O28 Cd29 2.223 . S
O28 C36 1.315 . S
Cd29 O28 2.223 . S
Cd29 O32 2.297 . S
Cd29 O33 2.439 . S
Cd29 O39 2.240 . S
Cd30 O31 2.240 . S
Cd30 O38 2.223 . S
Cd30 O40 2.297 . S
Cd30 O41 2.439 . S
O31 Cd30 2.240 . S
O31 C36 1.279 . S
O32 Cd29 2.297 . S
O32 C34 1.247 . S
O33 Cd29 2.439 . S
O33 C34 1.208 . S
C34 O32 1.247 . S
C34 O33 1.208 . S
C35 O40 1.247 . S
C35 O41 1.208 . S
C36 O28 1.315 . S
C36 O31 1.279 . S
C37 O38 1.315 . S
C37 O39 1.279 . S
O38 Cd30 2.223 . S
O38 C37 1.315 . S
O39 Cd29 2.240 . S
O39 C37 1.279 . S
O40 Cd30 2.297 . S
O40 C35 1.247 . S
O41 Cd30 2.439 . S
O41 C35 1.208 . S
O42 Cd43 2.223 . S
O42 C50 1.315 . S
Cd43 O42 2.223 . S
Cd43 O46 2.297 . S
Cd43 O47 2.439 . S
Cd43 O53 2.240 . S
Cd44 O45 2.240 . S
Cd44 O52 2.223 . S
Cd44 O54 2.297 . S
Cd44 O55 2.439 . S
O45 Cd44 2.240 . S
O45 C50 1.279 . S
O46 Cd43 2.297 . S
O46 C48 1.247 . S
O47 Cd43 2.439 . S
O47 C48 1.208 . S
C48 O46 1.247 . S
C48 O47 1.208 . S
C49 O54 1.247 . S
C49 O55 1.208 . S
C50 O42 1.315 . S
C50 O45 1.279 . S
C51 O52 1.315 . S
C51 O53 1.279 . S
O52 Cd44 2.223 . S
O52 C51 1.315 . S
O53 Cd43 2.240 . S
O53 C51 1.279 . S
O54 Cd44 2.297 . S
O54 C49 1.247 . S
O55 Cd44 2.439 . S
O55 C49 1.208 . S
O56 Cd57 2.223 . S
O56 C64 1.315 . S
Cd57 O56 2.223 . S
Cd57 O60 2.297 . S
Cd57 O61 2.439 . S
Cd57 O67 2.240 . S
Cd58 O59 2.240 . S
Cd58 O66 2.223 . S
Cd58 O68 2.297 . S
Cd58 O69 2.439 . S
O59 Cd58 2.240 . S
O59 C64 1.279 . S
O60 Cd57 2.297 . S
O60 C62 1.247 . S
O61 Cd57 2.439 . S
O61 C62 1.208 . S
C62 O60 1.247 . S
C62 O61 1.208 . S
C63 O68 1.247 . S
C63 O69 1.208 . S
C64 O56 1.315 . S
C64 O59 1.279 . S
C65 O66 1.315 . S
C65 O67 1.279 . S
O66 Cd58 2.223 . S
O66 C65 1.315 . S
O67 Cd57 2.240 . S
O67 C65 1.279 . S
O68 Cd58 2.297 . S
O68 C63 1.247 . S
O69 Cd58 2.439 . S
O69 C63 1.208 . S
O70 Cd71 2.223 . S
O70 C78 1.315 . S
Cd71 O70 2.223 . S
Cd71 O74 2.297 . S
Cd71 O75 2.439 . S
Cd71 O81 2.240 . S
Cd72 O73 2.240 . S
Cd72 O80 2.223 . S
Cd72 O82 2.297 . S
Cd72 O83 2.439 . S
O73 Cd72 2.240 . S
O73 C78 1.279 . S
O74 Cd71 2.297 . S
O74 C76 1.247 . S
O75 Cd71 2.439 . S
O75 C76 1.208 . S
C76 O74 1.247 . S
C76 O75 1.208 . S
C77 O82 1.247 . S
C77 O83 1.208 . S
C78 O70 1.315 . S
C78 O73 1.279 . S
C79 O80 1.315 . S
C79 O81 1.279 . S
O80 Cd72 2.223 . S
O80 C79 1.315 . S
O81 Cd71 2.240 . S
O81 C79 1.279 . S
O82 Cd72 2.297 . S
O82 C77 1.247 . S
O83 Cd72 2.439 . S
O83 C77 1.208 . S
O84 Cd85 2.223 . S
O84 C92 1.315 . S
Cd85 O84 2.223 . S
Cd85 O88 2.297 . S
Cd85 O89 2.439 . S
Cd85 O95 2.240 . S
Cd86 O87 2.240 . S
Cd86 O94 2.223 . S
Cd86 O96 2.297 1_556 S
Cd86 O97 2.439 1_556 S
O87 Cd86 2.240 . S
O87 C92 1.279 . S
O88 Cd85 2.297 . S
O88 C90 1.247 . S
O89 Cd85 2.439 . S
O89 C90 1.208 . S
C90 O88 1.247 . S
C90 O89 1.208 . S
C91 O96 1.247 . S
C91 O97 1.208 . S
C92 O84 1.315 . S
C92 O87 1.279 . S
C93 O94 1.315 . S
C93 O95 1.279 . S
O94 Cd86 2.223 . S
O94 C93 1.315 . S
O95 Cd85 2.240 . S
O95 C93 1.279 . S
O96 Cd86 2.297 1_554 S
O96 C91 1.247 . S
O97 Cd86 2.439 1_554 S
O97 C91 1.208 . S
O98 Cd99 2.223 . S
O98 C106 1.315 . S
Cd99 O98 2.223 . S
Cd99 O102 2.297 . S
Cd99 O103 2.439 . S
Cd99 O109 2.240 . S
Cd100 O101 2.240 . S
Cd100 O108 2.223 . S
Cd100 O110 2.297 . S
Cd100 O111 2.439 . S
O101 Cd100 2.240 . S
O101 C106 1.279 . S
O102 Cd99 2.297 . S
O102 C104 1.247 . S
O103 Cd99 2.439 . S
O103 C104 1.208 . S
C104 O102 1.247 . S
C104 O103 1.208 . S
C105 O110 1.247 . S
C105 O111 1.208 . S
C106 O98 1.315 . S
C106 O101 1.279 . S
C107 O108 1.315 . S
C107 O109 1.279 . S
O108 Cd100 2.223 . S
O108 C107 1.315 . S
O109 Cd99 2.240 . S
O109 C107 1.279 . S
O110 Cd100 2.297 . S
O110 C105 1.247 . S
O111 Cd100 2.439 . S
O111 C105 1.208 . S
O112 Cd113 2.223 . S
O112 C120 1.315 . S
Cd113 O112 2.223 . S
Cd113 O116 2.297 . S
Cd113 O117 2.439 . S
Cd113 O123 2.240 . S
Cd114 O115 2.240 . S
Cd114 O122 2.223 . S
Cd114 O124 2.297 1_556 S
Cd114 O125 2.439 1_556 S
O115 Cd114 2.240 . S
O115 C120 1.279 . S
O116 Cd113 2.297 . S
O116 C118 1.247 . S
O117 Cd113 2.439 . S
O117 C118 1.208 . S
C118 O116 1.247 . S
C118 O117 1.208 . S
C119 O124 1.247 . S
C119 O125 1.208 . S
C120 O112 1.315 . S
C120 O115 1.279 . S
C121 O122 1.315 . S
C121 O123 1.279 . S
O122 Cd114 2.223 . S
O122 C121 1.315 . S
O123 Cd113 2.240 . S
O123 C121 1.279 . S
O124 Cd114 2.297 1_554 S
O124 C119 1.247 . S
O125 Cd114 2.439 1_554 S
O125 C119 1.208 . S
O126 Cd127 2.223 . S
O126 C134 1.315 . S
Cd127 O126 2.223 . S
Cd127 O130 2.297 . S
Cd127 O131 2.439 . S
Cd127 O137 2.240 . S
Cd128 O129 2.240 . S
Cd128 O136 2.223 . S
Cd128 O138 2.297 . S
Cd128 O139 2.439 . S
O129 Cd128 2.240 . S
O129 C134 1.279 . S
O130 Cd127 2.297 . S
O130 C132 1.247 . S
O131 Cd127 2.439 . S
O131 C132 1.208 . S
C132 O130 1.247 . S
C132 O131 1.208 . S
C133 O138 1.247 . S
C133 O139 1.208 . S
C134 O126 1.315 . S
C134 O129 1.279 . S
C135 O136 1.315 . S
C135 O137 1.279 . S
O136 Cd128 2.223 . S
O136 C135 1.315 . S
O137 Cd127 2.240 . S
O137 C135 1.279 . S
O138 Cd128 2.297 . S
O138 C133 1.247 . S
O139 Cd128 2.439 . S
O139 C133 1.208 . S
O140 Cd141 2.223 . S
O140 C148 1.315 . S
Cd141 O140 2.223 . S
Cd141 O144 2.297 . S
Cd141 O145 2.439 . S
Cd141 O151 2.240 . S
Cd142 O143 2.240 . S
Cd142 O150 2.223 . S
Cd142 O152 2.297 . S
Cd142 O153 2.439 . S
O143 Cd142 2.240 . S
O143 C148 1.279 . S
O144 Cd141 2.297 . S
O144 C146 1.247 . S
O145 Cd141 2.439 . S
O145 C146 1.208 . S
C146 O144 1.247 . S
C146 O145 1.208 . S
C147 O152 1.247 . S
C147 O153 1.208 . S
C148 O140 1.315 . S
C148 O143 1.279 . S
C149 O150 1.315 . S
C149 O151 1.279 . S
O150 Cd142 2.223 . S
O150 C149 1.315 . S
O151 Cd141 2.240 . S
O151 C149 1.279 . S
O152 Cd142 2.297 . S
O152 C147 1.247 . S
O153 Cd142 2.439 . S
O153 C147 1.208 . S
O154 Cd155 2.223 . S
O154 C162 1.315 . S
Cd155 O154 2.223 . S
Cd155 O158 2.297 . S
Cd155 O159 2.439 . S
Cd155 O165 2.240 . S
Cd156 O157 2.240 . S
Cd156 O164 2.223 . S
Cd156 O166 2.297 . S
Cd156 O167 2.439 . S
O157 Cd156 2.240 . S
O157 C162 1.279 . S
O158 Cd155 2.297 . S
O158 C160 1.247 . S
O159 Cd155 2.439 . S
O159 C160 1.208 . S
C160 O158 1.247 . S
C160 O159 1.208 . S
C161 O166 1.247 . S
C161 O167 1.208 . S
C162 O154 1.315 . S
C162 O157 1.279 . S
C163 O164 1.315 . S
C163 O165 1.279 . S
O164 Cd156 2.223 . S
O164 C163 1.315 . S
O165 Cd155 2.240 . S
O165 C163 1.279 . S
O166 Cd156 2.297 . S
O166 C161 1.247 . S
O167 Cd156 2.439 . S
O167 C161 1.208 . S
O168 Cd169 2.223 . S
O168 C176 1.315 . S
Cd169 O168 2.223 . S
Cd169 O172 2.297 . S
Cd169 O173 2.439 . S
Cd169 O179 2.240 . S
Cd170 O171 2.240 . S
Cd170 O178 2.223 . S
Cd170 O180 2.297 . S
Cd170 O181 2.439 . S
O171 Cd170 2.240 . S
O171 C176 1.279 . S
O172 Cd169 2.297 . S
O172 C174 1.247 . S
O173 Cd169 2.439 . S
O173 C174 1.208 . S
C174 O172 1.247 . S
C174 O173 1.208 . S
C175 O180 1.247 . S
C175 O181 1.208 . S
C176 O168 1.315 . S
C176 O171 1.279 . S
C177 O178 1.315 . S
C177 O179 1.279 . S
O178 Cd170 2.223 . S
O178 C177 1.315 . S
O179 Cd169 2.240 . S
O179 C177 1.279 . S
O180 Cd170 2.297 . S
O180 C175 1.247 . S
O181 Cd170 2.439 . S
O181 C175 1.208 . S
O182 Cd183 2.223 . S
O182 C190 1.315 . S
Cd183 O182 2.223 . S
Cd183 O186 2.297 . S
Cd183 O187 2.439 . S
Cd183 O193 2.240 . S
Cd184 O185 2.240 . S
Cd184 O192 2.223 . S
Cd184 O194 2.297 . S
Cd184 O195 2.439 . S
O185 Cd184 2.240 . S
O185 C190 1.279 . S
O186 Cd183 2.297 . S
O186 C188 1.247 . S
O187 Cd183 2.439 . S
O187 C188 1.208 . S
C188 O186 1.247 . S
C188 O187 1.208 . S
C189 O194 1.247 . S
C189 O195 1.208 . S
C190 O182 1.315 . S
C190 O185 1.279 . S
C191 O192 1.315 . S
C191 O193 1.279 . S
O192 Cd184 2.223 . S
O192 C191 1.315 . S
O193 Cd183 2.240 . S
O193 C191 1.279 . S
O194 Cd184 2.297 . S
O194 C189 1.247 . S
O195 Cd184 2.439 . S
O195 C189 1.208 . S
O196 Cd197 2.223 . S
O196 C204 1.315 . S
Cd197 O196 2.223 . S
Cd197 O200 2.297 . S
Cd197 O201 2.439 . S
Cd197 O207 2.240 . S
Cd198 O199 2.240 . S
Cd198 O206 2.223 . S
Cd198 O208 2.297 1_554 S
Cd198 O209 2.439 1_554 S
O199 Cd198 2.240 . S
O199 C204 1.279 . S
O200 Cd197 2.297 . S
O200 C202 1.247 . S
O201 Cd197 2.439 . S
O201 C202 1.208 . S
C202 O200 1.247 . S
C202 O201 1.208 . S
C203 O208 1.247 . S
C203 O209 1.208 . S
C204 O196 1.315 . S
C204 O199 1.279 . S
C205 O206 1.315 . S
C205 O207 1.279 . S
O206 Cd198 2.223 . S
O206 C205 1.315 . S
O207 Cd197 2.240 . S
O207 C205 1.279 . S
O208 Cd198 2.297 1_556 S
O208 C203 1.247 . S
O209 Cd198 2.439 1_556 S
O209 C203 1.208 . S
O210 Cd211 2.223 . S
O210 C218 1.315 . S
Cd211 O210 2.223 . S
Cd211 O214 2.297 . S
Cd211 O215 2.439 . S
Cd211 O221 2.240 . S
Cd212 O213 2.240 . S
Cd212 O220 2.223 . S
Cd212 O222 2.297 . S
Cd212 O223 2.439 . S
O213 Cd212 2.240 . S
O213 C218 1.279 . S
O214 Cd211 2.297 . S
O214 C216 1.247 . S
O215 Cd211 2.439 . S
O215 C216 1.208 . S
C216 O214 1.247 . S
C216 O215 1.208 . S
C217 O222 1.247 . S
C217 O223 1.208 . S
C218 O210 1.315 . S
C218 O213 1.279 . S
C219 O220 1.315 . S
C219 O221 1.279 . S
O220 Cd212 2.223 . S
O220 C219 1.315 . S
O221 Cd211 2.240 . S
O221 C219 1.279 . S
O222 Cd212 2.297 . S
O222 C217 1.247 . S
O223 Cd212 2.439 . S
O223 C217 1.208 . S
O224 Cd225 2.223 . S
O224 C232 1.315 . S
Cd225 O224 2.223 . S
Cd225 O228 2.297 . S
Cd225 O229 2.439 . S
Cd225 O235 2.240 . S
Cd226 O227 2.240 . S
Cd226 O234 2.223 . S
Cd226 O236 2.297 . S
Cd226 O237 2.439 . S
O227 Cd226 2.240 . S
O227 C232 1.279 . S
O228 Cd225 2.297 . S
O228 C230 1.247 . S
O229 Cd225 2.439 . S
O229 C230 1.208 . S
C230 O228 1.247 . S
C230 O229 1.208 . S
C231 O236 1.247 . S
C231 O237 1.208 . S
C232 O224 1.315 . S
C232 O227 1.279 . S
C233 O234 1.315 . S
C233 O235 1.279 . S
O234 Cd226 2.223 . S
O234 C233 1.315 . S
O235 Cd225 2.240 . S
O235 C233 1.279 . S
O236 Cd226 2.297 . S
O236 C231 1.247 . S
O237 Cd226 2.439 . S
O237 C231 1.208 . S
O238 Cd239 2.223 . S
O238 C246 1.315 . S
Cd239 O238 2.223 . S
Cd239 O242 2.297 . S
Cd239 O243 2.439 . S
Cd239 O249 2.240 . S
Cd240 O241 2.240 . S
Cd240 O248 2.223 . S
Cd240 O250 2.297 . S
Cd240 O251 2.439 . S
O241 Cd240 2.240 . S
O241 C246 1.279 . S
O242 Cd239 2.297 . S
O242 C244 1.247 . S
O243 Cd239 2.439 . S
O243 C244 1.208 . S
C244 O242 1.247 . S
C244 O243 1.208 . S
C245 O250 1.247 . S
C245 O251 1.208 . S
C246 O238 1.315 . S
C246 O241 1.279 . S
C247 O248 1.315 . S
C247 O249 1.279 . S
O248 Cd240 2.223 . S
O248 C247 1.315 . S
O249 Cd239 2.240 . S
O249 C247 1.279 . S
O250 Cd240 2.297 . S
O250 C245 1.247 . S
O251 Cd240 2.439 . S
O251 C245 1.208 . S
O252 Cd253 2.223 . S
O252 C260 1.315 . S
Cd253 O252 2.223 . S
Cd253 O256 2.297 . S
Cd253 O257 2.439 . S
Cd253 O263 2.240 . S
Cd254 O255 2.240 . S
Cd254 O262 2.223 . S
Cd254 O264 2.297 1_554 S
Cd254 O265 2.439 1_554 S
O255 Cd254 2.240 . S
O255 C260 1.279 . S
O256 Cd253 2.297 . S
O256 C258 1.247 . S
O257 Cd253 2.439 . S
O257 C258 1.208 . S
C258 O256 1.247 . S
C258 O257 1.208 . S
C259 O264 1.247 . S
C259 O265 1.208 . S
C260 O252 1.315 . S
C260 O255 1.279 . S
C261 O262 1.315 . S
C261 O263 1.279 . S
O262 Cd254 2.223 . S
O262 C261 1.315 . S
O263 Cd253 2.240 . S
O263 C261 1.279 . S
O264 Cd254 2.297 1_556 S
O264 C259 1.247 . S
O265 Cd254 2.439 1_556 S
O265 C259 1.208 . S
O266 Cd267 2.223 . S
O266 C274 1.315 . S
Cd267 O266 2.223 . S
Cd267 O270 2.297 . S
Cd267 O271 2.439 . S
Cd267 O277 2.240 . S
Cd268 O269 2.240 . S
Cd268 O276 2.223 . S
Cd268 O278 2.297 . S
Cd268 O279 2.439 . S
O269 Cd268 2.240 . S
O269 C274 1.279 . S
O270 Cd267 2.297 . S
O270 C272 1.247 . S
O271 Cd267 2.439 . S
O271 C272 1.208 . S
C272 O270 1.247 . S
C272 O271 1.208 . S
C273 O278 1.247 . S
C273 O279 1.208 . S
C274 O266 1.315 . S
C274 O269 1.279 . S
C275 O276 1.315 . S
C275 O277 1.279 . S
O276 Cd268 2.223 . S
O276 C275 1.315 . S
O277 Cd267 2.240 . S
O277 C275 1.279 . S
O278 Cd268 2.297 . S
O278 C273 1.247 . S
O279 Cd268 2.439 . S
O279 C273 1.208 . S
O280 Cd281 2.223 . S
O280 C288 1.315 . S
Cd281 O280 2.223 . S
Cd281 O284 2.297 . S
Cd281 O285 2.439 . S
Cd281 O291 2.240 . S
Cd282 O283 2.240 . S
Cd282 O290 2.223 . S
Cd282 O292 2.297 1_556 S
Cd282 O293 2.439 1_556 S
O283 Cd282 2.240 . S
O283 C288 1.279 . S
O284 Cd281 2.297 . S
O284 C286 1.247 . S
O285 Cd281 2.439 . S
O285 C286 1.208 . S
C286 O284 1.247 . S
C286 O285 1.208 . S
C287 O292 1.247 . S
C287 O293 1.208 . S
C288 O280 1.315 . S
C288 O283 1.279 . S
C289 O290 1.315 . S
C289 O291 1.279 . S
O290 Cd282 2.223 . S
O290 C289 1.315 . S
O291 Cd281 2.240 . S
O291 C289 1.279 . S
O292 Cd282 2.297 1_554 S
O292 C287 1.247 . S
O293 Cd282 2.439 1_554 S
O293 C287 1.208 . S
O294 Cd295 2.223 . S
O294 C302 1.315 . S
Cd295 O294 2.223 . S
Cd295 O298 2.297 . S
Cd295 O299 2.439 . S
Cd295 O305 2.240 . S
Cd296 O297 2.240 . S
Cd296 O304 2.223 . S
Cd296 O306 2.297 . S
Cd296 O307 2.439 . S
O297 Cd296 2.240 . S
O297 C302 1.279 . S
O298 Cd295 2.297 . S
O298 C300 1.247 . S
O299 Cd295 2.439 . S
O299 C300 1.208 . S
C300 O298 1.247 . S
C300 O299 1.208 . S
C301 O306 1.247 . S
C301 O307 1.208 . S
C302 O294 1.315 . S
C302 O297 1.279 . S
C303 O304 1.315 . S
C303 O305 1.279 . S
O304 Cd296 2.223 . S
O304 C303 1.315 . S
O305 Cd295 2.240 . S
O305 C303 1.279 . S
O306 Cd296 2.297 . S
O306 C301 1.247 . S
O307 Cd296 2.439 . S
O307 C301 1.208 . S
O308 Cd309 2.223 . S
O308 C316 1.315 . S
Cd309 O308 2.223 . S
Cd309 O312 2.297 . S
Cd309 O313 2.439 . S
Cd309 O319 2.240 . S
Cd310 O311 2.240 . S
Cd310 O318 2.223 . S
Cd310 O320 2.297 . S
Cd310 O321 2.439 . S
O311 Cd310 2.240 . S
O311 C316 1.279 . S
O312 Cd309 2.297 . S
O312 C314 1.247 . S
O313 Cd309 2.439 . S
O313 C314 1.208 . S
C314 O312 1.247 . S
C314 O313 1.208 . S
C315 O320 1.247 . S
C315 O321 1.208 . S
C316 O308 1.315 . S
C316 O311 1.279 . S
C317 O318 1.315 . S
C317 O319 1.279 . S
O318 Cd310 2.223 . S
O318 C317 1.315 . S
O319 Cd309 2.240 . S
O319 C317 1.279 . S
O320 Cd310 2.297 . S
O320 C315 1.247 . S
O321 Cd310 2.439 . S
O321 C315 1.208 . S
O322 Cd323 2.223 . S
O322 C330 1.315 . S
Cd323 O322 2.223 . S
Cd323 O326 2.297 . S
Cd323 O327 2.439 . S
Cd323 O333 2.240 . S
Cd324 O325 2.240 . S
Cd324 O332 2.223 . S
Cd324 O334 2.297 . S
Cd324 O335 2.439 . S
O325 Cd324 2.240 . S
O325 C330 1.279 . S
O326 Cd323 2.297 . S
O326 C328 1.247 . S
O327 Cd323 2.439 . S
O327 C328 1.208 . S
C328 O326 1.247 . S
C328 O327 1.208 . S
C329 O334 1.247 . S
C329 O335 1.208 . S
C330 O322 1.315 . S
C330 O325 1.279 . S
C331 O332 1.315 . S
C331 O333 1.279 . S
O332 Cd324 2.223 . S
O332 C331 1.315 . S
O333 Cd323 2.240 . S
O333 C331 1.279 . S
O334 Cd324 2.297 . S
O334 C329 1.247 . S
O335 Cd324 2.439 . S
O335 C329 1.208 . S
O336 Cd337 2.223 . S
O336 C344 1.315 . S
Cd337 O336 2.223 . S
Cd337 O340 2.297 . S
Cd337 O341 2.439 . S
Cd337 O347 2.240 . S
Cd338 O339 2.240 . S
Cd338 O346 2.223 . S
Cd338 O348 2.297 . S
Cd338 O349 2.439 . S
O339 Cd338 2.240 . S
O339 C344 1.279 . S
O340 Cd337 2.297 . S
O340 C342 1.247 . S
O341 Cd337 2.439 . S
O341 C342 1.208 . S
C342 O340 1.247 . S
C342 O341 1.208 . S
C343 O348 1.247 . S
C343 O349 1.208 . S
C344 O336 1.315 . S
C344 O339 1.279 . S
C345 O346 1.315 . S
C345 O347 1.279 . S
O346 Cd338 2.223 . S
O346 C345 1.315 . S
O347 Cd337 2.240 . S
O347 C345 1.279 . S
O348 Cd338 2.297 . S
O348 C343 1.247 . S
O349 Cd338 2.439 . S
O349 C343 1.208 . S
O350 Cd351 2.223 . S
O350 C358 1.315 . S
Cd351 O350 2.223 . S
Cd351 O354 2.297 . S
Cd351 O355 2.439 . S
Cd351 O361 2.240 . S
Cd352 O353 2.240 . S
Cd352 O360 2.223 . S
Cd352 O362 2.297 . S
Cd352 O363 2.439 . S
O353 Cd352 2.240 . S
O353 C358 1.279 . S
O354 Cd351 2.297 . S
O354 C356 1.247 . S
O355 Cd351 2.439 . S
O355 C356 1.208 . S
C356 O354 1.247 . S
C356 O355 1.208 . S
C357 O362 1.247 . S
C357 O363 1.208 . S
C358 O350 1.315 . S
C358 O353 1.279 . S
C359 O360 1.315 . S
C359 O361 1.279 . S
O360 Cd352 2.223 . S
O360 C359 1.315 . S
O361 Cd351 2.240 . S
O361 C359 1.279 . S
O362 Cd352 2.297 . S
O362 C357 1.247 . S
O363 Cd352 2.439 . S
O363 C357 1.208 . S
O364 Cd365 2.223 . S
O364 C372 1.315 . S
Cd365 O364 2.223 . S
Cd365 O368 2.297 . S
Cd365 O369 2.439 . S
Cd365 O375 2.240 . S
Cd366 O367 2.240 . S
Cd366 O374 2.223 . S
Cd366 O376 2.297 1_556 S
Cd366 O377 2.439 1_556 S
O367 Cd366 2.240 . S
O367 C372 1.279 . S
O368 Cd365 2.297 . S
O368 C370 1.247 . S
O369 Cd365 2.439 . S
O369 C370 1.208 . S
C370 O368 1.247 . S
C370 O369 1.208 . S
C371 O376 1.247 . S
C371 O377 1.208 . S
C372 O364 1.315 . S
C372 O367 1.279 . S
C373 O374 1.315 . S
C373 O375 1.279 . S
O374 Cd366 2.223 . S
O374 C373 1.315 . S
O375 Cd365 2.240 . S
O375 C373 1.279 . S
O376 Cd366 2.297 1_554 S
O376 C371 1.247 . S
O377 Cd366 2.439 1_554 S
O377 C371 1.208 . S
O378 Cd379 2.223 . S
O378 C386 1.315 . S
Cd379 O378 2.223 . S
Cd379 O382 2.297 . S
Cd379 O383 2.439 . S
Cd379 O389 2.240 . S
Cd380 O381 2.240 . S
Cd380 O388 2.223 . S
Cd380 O390 2.297 . S
Cd380 O391 2.439 . S
O381 Cd380 2.240 . S
O381 C386 1.279 . S
O382 Cd379 2.297 . S
O382 C384 1.247 . S
O383 Cd379 2.439 . S
O383 C384 1.208 . S
C384 O382 1.247 . S
C384 O383 1.208 . S
C385 O390 1.247 . S
C385 O391 1.208 . S
C386 O378 1.315 . S
C386 O381 1.279 . S
C387 O388 1.315 . S
C387 O389 1.279 . S
O388 Cd380 2.223 . S
O388 C387 1.315 . S
O389 Cd379 2.240 . S
O389 C387 1.279 . S
O390 Cd380 2.297 . S
O390 C385 1.247 . S
O391 Cd380 2.439 . S
O391 C385 1.208 . S
O392 Cd393 2.223 . S
O392 C400 1.315 . S
Cd393 O392 2.223 . S
Cd393 O396 2.297 . S
Cd393 O397 2.439 . S
Cd393 O403 2.240 . S
Cd394 O395 2.240 . S
Cd394 O402 2.223 . S
Cd394 O404 2.297 1_554 S
Cd394 O405 2.439 1_554 S
O395 Cd394 2.240 . S
O395 C400 1.279 . S
O396 Cd393 2.297 . S
O396 C398 1.247 . S
O397 Cd393 2.439 . S
O397 C398 1.208 . S
C398 O396 1.247 . S
C398 O397 1.208 . S
C399 O404 1.247 . S
C399 O405 1.208 . S
C400 O392 1.315 . S
C400 O395 1.279 . S
C401 O402 1.315 . S
C401 O403 1.279 . S
O402 Cd394 2.223 . S
O402 C401 1.315 . S
O403 Cd393 2.240 . S
O403 C401 1.279 . S
O404 Cd394 2.297 1_556 S
O404 C399 1.247 . S
O405 Cd394 2.439 1_556 S
O405 C399 1.208 . S
O406 Cd407 2.223 . S
O406 C414 1.315 . S
Cd407 O406 2.223 . S
Cd407 O410 2.297 . S
Cd407 O411 2.439 . S
Cd407 O417 2.240 . S
Cd408 O409 2.240 . S
Cd408 O416 2.223 . S
Cd408 O418 2.297 . S
Cd408 O419 2.439 . S
O409 Cd408 2.240 . S
O409 C414 1.279 . S
O410 Cd407 2.297 . S
O410 C412 1.247 . S
O411 Cd407 2.439 . S
O411 C412 1.208 . S
C412 O410 1.247 . S
C412 O411 1.208 . S
C413 O418 1.247 . S
C413 O419 1.208 . S
C414 O406 1.315 . S
C414 O409 1.279 . S
C415 O416 1.315 . S
C415 O417 1.279 . S
O416 Cd408 2.223 . S
O416 C415 1.315 . S
O417 Cd407 2.240 . S
O417 C415 1.279 . S
O418 Cd408 2.297 . S
O418 C413 1.247 . S
O419 Cd408 2.439 . S
O419 C413 1.208 . S
O420 Cd421 2.223 . S
O420 C428 1.315 . S
Cd421 O420 2.223 . S
Cd421 O424 2.297 . S
Cd421 O425 2.439 . S
Cd421 O431 2.240 . S
Cd422 O423 2.240 . S
Cd422 O430 2.223 . S
Cd422 O432 2.297 . S
Cd422 O433 2.439 . S
O423 Cd422 2.240 . S
O423 C428 1.279 . S
O424 Cd421 2.297 . S
O424 C426 1.247 . S
O425 Cd421 2.439 . S
O425 C426 1.208 . S
C426 O424 1.247 . S
C426 O425 1.208 . S
C427 O432 1.247 . S
C427 O433 1.208 . S
C428 O420 1.315 . S
C428 O423 1.279 . S
C429 O430 1.315 . S
C429 O431 1.279 . S
O430 Cd422 2.223 . S
O430 C429 1.315 . S
O431 Cd421 2.240 . S
O431 C429 1.279 . S
O432 Cd422 2.297 . S
O432 C427 1.247 . S
O433 Cd422 2.439 . S
O433 C427 1.208 . S
O434 Cd435 2.223 . S
O434 C442 1.315 . S
Cd435 O434 2.223 . S
Cd435 O438 2.297 . S
Cd435 O439 2.439 . S
Cd435 O445 2.240 . S
Cd436 O437 2.240 . S
Cd436 O444 2.223 . S
Cd436 O446 2.297 . S
Cd436 O447 2.439 . S
O437 Cd436 2.240 . S
O437 C442 1.279 . S
O438 Cd435 2.297 . S
O438 C440 1.247 . S
O439 Cd435 2.439 . S
O439 C440 1.208 . S
C440 O438 1.247 . S
C440 O439 1.208 . S
C441 O446 1.247 . S
C441 O447 1.208 . S
C442 O434 1.315 . S
C442 O437 1.279 . S
C443 O444 1.315 . S
C443 O445 1.279 . S
O444 Cd436 2.223 . S
O444 C443 1.315 . S
O445 Cd435 2.240 . S
O445 C443 1.279 . S
O446 Cd436 2.297 . S
O446 C441 1.247 . S
O447 Cd436 2.439 . S
O447 C441 1.208 . S
H448 C454 0.930 . S
H449 C457 0.930 . S
H450 C458 0.930 . S
H451 C459 0.930 . S
H452 C462 0.930 . S
H453 C463 0.930 . S
C454 H448 0.930 . S
C454 C455 1.355 1_554 S
C454 C456 1.415 . S
C455 C454 1.355 1_556 S
C455 C457 1.419 . S
C456 C454 1.415 . S
C456 C461 1.425 1_554 S
C456 C463 1.409 . S
C457 H449 0.930 . S
C457 C455 1.419 . S
C457 C458 1.362 . S
C458 H450 0.930 . S
C458 C457 1.362 . S
C458 C461 1.409 . S
C459 H451 0.930 . S
C459 C460 1.355 1_556 S
C459 C461 1.415 . S
C460 C459 1.355 1_554 S
C460 C462 1.419 . S
C461 C456 1.425 1_556 S
C461 C458 1.409 . S
C461 C459 1.415 . S
C462 H452 0.930 . S
C462 C460 1.419 . S
C462 C463 1.362 . S
C463 H453 0.930 . S
C463 C456 1.409 . S
C463 C462 1.362 . S
H464 C470 0.930 . S
H465 C473 0.930 . S
H466 C474 0.930 1_455 S
H467 C475 0.930 . S
H468 C478 0.930 . S
H469 C479 0.930 . S
C470 H464 0.930 . S
C470 C471 1.355 . S
C470 C472 1.415 . S
C471 C470 1.355 . S
C471 C473 1.419 . S
C472 C470 1.415 . S
C472 C477 1.425 1_565 S
C472 C479 1.409 1_565 S
C473 H465 0.930 . S
C473 C471 1.419 . S
C473 C474 1.362 . S
C474 H466 0.930 1_655 S
C474 C473 1.362 . S
C474 C477 1.409 1_565 S
C475 H467 0.930 . S
C475 C476 1.355 . S
C475 C477 1.415 . S
C476 C475 1.355 . S
C476 C478 1.419 . S
C477 C472 1.425 1_545 S
C477 C474 1.409 1_545 S
C477 C475 1.415 . S
C478 H468 0.930 . S
C478 C476 1.419 . S
C478 C479 1.362 . S
C479 H469 0.930 . S
C479 C472 1.409 1_545 S
C479 C478 1.362 . S
H480 C486 0.930 . S
H481 C489 0.930 . S
H482 C490 0.930 . S
H483 C491 0.930 . S
H484 C494 0.930 . S
H485 C495 0.930 . S
C486 H480 0.930 . S
C486 C487 1.355 . S
C486 C488 1.415 . S
C487 C486 1.355 . S
C487 C489 1.419 . S
C488 C486 1.415 . S
C488 C493 1.425 . S
C488 C495 1.409 . S
C489 H481 0.930 . S
C489 C487 1.419 . S
C489 C490 1.362 . S
C490 H482 0.930 . S
C490 C489 1.362 . S
C490 C493 1.409 . S
C491 H483 0.930 . S
C491 C492 1.355 . S
C491 C493 1.415 . S
C492 C491 1.355 . S
C492 C494 1.419 . S
C493 C488 1.425 . S
C493 C490 1.409 . S
C493 C491 1.415 . S
C494 H484 0.930 . S
C494 C492 1.419 . S
C494 C495 1.362 . S
C495 H485 0.930 . S
C495 C488 1.409 . S
C495 C494 1.362 . S
H496 C502 0.930 . S
H497 C505 0.930 . S
H498 C506 0.930 . S
H499 C507 0.930 . S
H500 C510 0.930 . S
H501 C511 0.930 . S
C502 H496 0.930 . S
C502 C503 1.355 . S
C502 C504 1.415 . S
C503 C502 1.355 . S
C503 C505 1.419 . S
C504 C502 1.415 . S
C504 C509 1.425 1_545 S
C504 C511 1.409 1_545 S
C505 H497 0.930 . S
C505 C503 1.419 . S
C505 C506 1.362 . S
C506 H498 0.930 . S
C506 C505 1.362 . S
C506 C509 1.409 1_545 S
C507 H499 0.930 . S
C507 C508 1.355 . S
C507 C509 1.415 . S
C508 C507 1.355 . S
C508 C510 1.419 . S
C509 C504 1.425 1_565 S
C509 C506 1.409 1_565 S
C509 C507 1.415 . S
C510 H500 0.930 . S
C510 C508 1.419 . S
C510 C511 1.362 . S
C511 H501 0.930 . S
C511 C504 1.409 1_565 S
C511 C510 1.362 . S
H512 C518 0.930 . S
H513 C521 0.930 . S
H514 C522 0.930 . S
H515 C523 0.930 . S
H516 C526 0.930 . S
H517 C527 0.930 . S
C518 H512 0.930 . S
C518 C519 1.355 . S
C518 C520 1.415 . S
C519 C518 1.355 . S
C519 C521 1.419 1_554 S
C520 C518 1.415 . S
C520 C525 1.425 1_554 S
C520 C527 1.409 . S
C521 H513 0.930 . S
C521 C519 1.419 1_556 S
C521 C522 1.362 . S
C522 H514 0.930 . S
C522 C521 1.362 . S
C522 C525 1.409 . S
C523 H515 0.930 . S
C523 C524 1.355 . S
C523 C525 1.415 . S
C524 C523 1.355 . S
C524 C526 1.419 1_556 S
C525 C520 1.425 1_556 S
C525 C522 1.409 . S
C525 C523 1.415 . S
C526 H516 0.930 . S
C526 C524 1.419 1_554 S
C526 C527 1.362 . S
C527 H517 0.930 . S
C527 C520 1.409 . S
C527 C526 1.362 . S
H528 C534 0.930 . S
H529 C537 0.930 . S
H530 C538 0.930 . S
H531 C539 0.930 . S
H532 C542 0.930 . S
H533 C543 0.930 . S
C534 H528 0.930 . S
C534 C535 1.355 . S
C534 C536 1.415 . S
C535 C534 1.355 . S
C535 C537 1.419 . S
C536 C534 1.415 . S
C536 C541 1.425 1_565 S
C536 C543 1.409 1_565 S
C537 H529 0.930 . S
C537 C535 1.419 . S
C537 C538 1.362 . S
C538 H530 0.930 . S
C538 C537 1.362 . S
C538 C541 1.409 1_565 S
C539 H531 0.930 . S
C539 C540 1.355 . S
C539 C541 1.415 . S
C540 C539 1.355 . S
C540 C542 1.419 . S
C541 C536 1.425 1_545 S
C541 C538 1.409 1_545 S
C541 C539 1.415 . S
C542 H532 0.930 . S
C542 C540 1.419 . S
C542 C543 1.362 . S
C543 H533 0.930 . S
C543 C536 1.409 1_545 S
C543 C542 1.362 . S
H544 C550 0.930 . S
H545 C553 0.930 . S
H546 C554 0.930 . S
H547 C555 0.930 . S
H548 C558 0.930 . S
H549 C559 0.930 . S
C550 H544 0.930 . S
C550 C551 1.355 . S
C550 C552 1.415 . S
C551 C550 1.355 . S
C551 C553 1.419 . S
C552 C550 1.415 . S
C552 C557 1.425 . S
C552 C559 1.409 . S
C553 H545 0.930 . S
C553 C551 1.419 . S
C553 C554 1.362 . S
C554 H546 0.930 . S
C554 C553 1.362 . S
C554 C557 1.409 . S
C555 H547 0.930 . S
C555 C556 1.355 . S
C555 C557 1.415 . S
C556 C555 1.355 . S
C556 C558 1.419 . S
C557 C552 1.425 . S
C557 C554 1.409 . S
C557 C555 1.415 . S
C558 H548 0.930 . S
C558 C556 1.419 . S
C558 C559 1.362 . S
C559 H549 0.930 . S
C559 C552 1.409 . S
C559 C558 1.362 . S
H560 C566 0.930 . S
H561 C569 0.930 . S
H562 C570 0.930 . S
H563 C571 0.930 . S
H564 C574 0.930 . S
H565 C575 0.930 . S
C566 H560 0.930 . S
C566 C567 1.355 . S
C566 C568 1.415 . S
C567 C566 1.355 . S
C567 C569 1.419 . S
C568 C566 1.415 . S
C568 C573 1.425 1_565 S
C568 C575 1.409 1_565 S
C569 H561 0.930 . S
C569 C567 1.419 . S
C569 C570 1.362 . S
C570 H562 0.930 . S
C570 C569 1.362 . S
C570 C573 1.409 1_565 S
C571 H563 0.930 . S
C571 C572 1.355 . S
C571 C573 1.415 . S
C572 C571 1.355 . S
C572 C574 1.419 . S
C573 C568 1.425 1_545 S
C573 C570 1.409 1_545 S
C573 C571 1.415 . S
C574 H564 0.930 . S
C574 C572 1.419 . S
C574 C575 1.362 . S
C575 H565 0.930 . S
C575 C568 1.409 1_545 S
C575 C574 1.362 . S
H576 C582 0.930 . S
H577 C585 0.930 . S
H578 C586 0.930 . S
H579 C587 0.930 . S
H580 C590 0.930 . S
H581 C591 0.930 . S
C582 H576 0.930 . S
C582 C583 1.355 . S
C582 C584 1.415 . S
C583 C582 1.355 . S
C583 C585 1.419 . S
C584 C582 1.415 . S
C584 C589 1.425 . S
C584 C591 1.409 . S
C585 H577 0.930 . S
C585 C583 1.419 . S
C585 C586 1.362 . S
C586 H578 0.930 . S
C586 C585 1.362 . S
C586 C589 1.409 . S
C587 H579 0.930 . S
C587 C588 1.355 . S
C587 C589 1.415 . S
C588 C587 1.355 . S
C588 C590 1.419 . S
C589 C584 1.425 . S
C589 C586 1.409 . S
C589 C587 1.415 . S
C590 H580 0.930 . S
C590 C588 1.419 . S
C590 C591 1.362 . S
C591 H581 0.930 . S
C591 C584 1.409 . S
C591 C590 1.362 . S
H592 C598 0.930 . S
H593 C601 0.930 . S
H594 C602 0.930 . S
H595 C603 0.930 . S
H596 C606 0.930 . S
H597 C607 0.930 . S
C598 H592 0.930 . S
C598 C599 1.355 . S
C598 C600 1.415 . S
C599 C598 1.355 . S
C599 C601 1.419 . S
C600 C598 1.415 . S
C600 C605 1.425 . S
C600 C607 1.409 . S
C601 H593 0.930 . S
C601 C599 1.419 . S
C601 C602 1.362 . S
C602 H594 0.930 . S
C602 C601 1.362 . S
C602 C605 1.409 . S
C603 H595 0.930 . S
C603 C604 1.355 . S
C603 C605 1.415 . S
C604 C603 1.355 . S
C604 C606 1.419 . S
C605 C600 1.425 . S
C605 C602 1.409 . S
C605 C603 1.415 . S
C606 H596 0.930 . S
C606 C604 1.419 . S
C606 C607 1.362 . S
C607 H597 0.930 . S
C607 C600 1.409 . S
C607 C606 1.362 . S
H608 C614 0.930 . S
H609 C617 0.930 . S
H610 C618 0.930 . S
H611 C619 0.930 . S
H612 C622 0.930 . S
H613 C623 0.930 . S
C614 H608 0.930 . S
C614 C615 1.355 1_554 S
C614 C616 1.415 . S
C615 C614 1.355 1_556 S
C615 C617 1.419 . S
C616 C614 1.415 . S
C616 C621 1.425 1_554 S
C616 C623 1.409 . S
C617 H609 0.930 . S
C617 C615 1.419 . S
C617 C618 1.362 . S
C618 H610 0.930 . S
C618 C617 1.362 . S
C618 C621 1.409 . S
C619 H611 0.930 . S
C619 C620 1.355 1_556 S
C619 C621 1.415 . S
C620 C619 1.355 1_554 S
C620 C622 1.419 . S
C621 C616 1.425 1_556 S
C621 C618 1.409 . S
C621 C619 1.415 . S
C622 H612 0.930 . S
C622 C620 1.419 . S
C622 C623 1.362 . S
C623 H613 0.930 . S
C623 C616 1.409 . S
C623 C622 1.362 . S
H624 C630 0.930 . S
H625 C633 0.930 . S
H626 C634 0.930 . S
H627 C635 0.930 . S
H628 C638 0.930 . S
H629 C639 0.930 . S
C630 H624 0.930 . S
C630 C631 1.355 . S
C630 C632 1.415 . S
C631 C630 1.355 . S
C631 C633 1.419 . S
C632 C630 1.415 . S
C632 C637 1.425 . S
C632 C639 1.409 . S
C633 H625 0.930 . S
C633 C631 1.419 . S
C633 C634 1.362 . S
C634 H626 0.930 . S
C634 C633 1.362 . S
C634 C637 1.409 . S
C635 H627 0.930 . S
C635 C636 1.355 . S
C635 C637 1.415 . S
C636 C635 1.355 . S
C636 C638 1.419 . S
C637 C632 1.425 . S
C637 C634 1.409 . S
C637 C635 1.415 . S
C638 H628 0.930 . S
C638 C636 1.419 . S
C638 C639 1.362 . S
C639 H629 0.930 . S
C639 C632 1.409 . S
C639 C638 1.362 . S
H640 C646 0.930 . S
H641 C649 0.930 . S
H642 C650 0.930 . S
H643 C651 0.930 . S
H644 C654 0.930 . S
H645 C655 0.930 . S
C646 H640 0.930 . S
C646 C647 1.355 . S
C646 C648 1.415 . S
C647 C646 1.355 . S
C647 C649 1.419 . S
C648 C646 1.415 . S
C648 C653 1.425 . S
C648 C655 1.409 . S
C649 H641 0.930 . S
C649 C647 1.419 . S
C649 C650 1.362 . S
C650 H642 0.930 . S
C650 C649 1.362 . S
C650 C653 1.409 . S
C651 H643 0.930 . S
C651 C652 1.355 . S
C651 C653 1.415 . S
C652 C651 1.355 . S
C652 C654 1.419 . S
C653 C648 1.425 . S
C653 C650 1.409 . S
C653 C651 1.415 . S
C654 H644 0.930 . S
C654 C652 1.419 . S
C654 C655 1.362 . S
C655 H645 0.930 . S
C655 C648 1.409 . S
C655 C654 1.362 . S
H656 C662 0.930 . S
H657 C665 0.930 . S
H658 C666 0.930 . S
H659 C667 0.930 . S
H660 C670 0.930 . S
H661 C671 0.930 . S
C662 H656 0.930 . S
C662 C663 1.355 . S
C662 C664 1.415 . S
C663 C662 1.355 . S
C663 C665 1.419 . S
C664 C662 1.415 . S
C664 C669 1.425 . S
C664 C671 1.409 . S
C665 H657 0.930 . S
C665 C663 1.419 . S
C665 C666 1.362 . S
C666 H658 0.930 . S
C666 C665 1.362 . S
C666 C669 1.409 . S
C667 H659 0.930 . S
C667 C668 1.355 . S
C667 C669 1.415 . S
C668 C667 1.355 . S
C668 C670 1.419 . S
C669 C664 1.425 . S
C669 C666 1.409 . S
C669 C667 1.415 . S
C670 H660 0.930 . S
C670 C668 1.419 . S
C670 C671 1.362 . S
C671 H661 0.930 . S
C671 C664 1.409 . S
C671 C670 1.362 . S
H672 C678 0.930 . S
H673 C681 0.930 . S
H674 C682 0.930 . S
H675 C683 0.930 . S
H676 C686 0.930 . S
H677 C687 0.930 . S
C678 H672 0.930 . S
C678 C679 1.355 . S
C678 C680 1.415 . S
C679 C678 1.355 . S
C679 C681 1.419 . S
C680 C678 1.415 . S
C680 C685 1.425 1_554 S
C680 C687 1.409 . S
C681 H673 0.930 . S
C681 C679 1.419 . S
C681 C682 1.362 1_554 S
C682 H674 0.930 . S
C682 C681 1.362 1_556 S
C682 C685 1.409 . S
C683 H675 0.930 . S
C683 C684 1.355 . S
C683 C685 1.415 . S
C684 C683 1.355 . S
C684 C686 1.419 . S
C685 C680 1.425 1_556 S
C685 C682 1.409 . S
C685 C683 1.415 . S
C686 H676 0.930 . S
C686 C684 1.419 . S
C686 C687 1.362 1_556 S
C687 H677 0.930 . S
C687 C680 1.409 . S
C687 C686 1.362 1_554 S
H688 C694 0.930 . S
H689 C697 0.930 . S
H690 C698 0.930 . S
H691 C699 0.930 . S
H692 C702 0.930 . S
H693 C703 0.930 . S
C694 H688 0.930 . S
C694 C695 1.355 . S
C694 C696 1.415 . S
C695 C694 1.355 . S
C695 C697 1.419 . S
C696 C694 1.415 . S
C696 C701 1.425 . S
C696 C703 1.409 . S
C697 H689 0.930 . S
C697 C695 1.419 . S
C697 C698 1.362 . S
C698 H690 0.930 . S
C698 C697 1.362 . S
C698 C701 1.409 . S
C699 H691 0.930 . S
C699 C700 1.355 . S
C699 C701 1.415 . S
C700 C699 1.355 . S
C700 C702 1.419 . S
C701 C696 1.425 . S
C701 C698 1.409 . S
C701 C699 1.415 . S
C702 H692 0.930 . S
C702 C700 1.419 . S
C702 C703 1.362 . S
C703 H693 0.930 . S
C703 C696 1.409 . S
C703 C702 1.362 . S
H704 C710 0.930 . S
H705 C713 0.930 . S
H706 C714 0.930 . S
H707 C715 0.930 . S
H708 C718 0.930 . S
H709 C719 0.930 . S
C710 H704 0.930 . S
C710 C711 1.355 . S
C710 C712 1.415 . S
C711 C710 1.355 . S
C711 C713 1.419 . S
C712 C710 1.415 . S
C712 C717 1.425 . S
C712 C719 1.409 . S
C713 H705 0.930 . S
C713 C711 1.419 . S
C713 C714 1.362 . S
C714 H706 0.930 . S
C714 C713 1.362 . S
C714 C717 1.409 . S
C715 H707 0.930 . S
C715 C716 1.355 . S
C715 C717 1.415 . S
C716 C715 1.355 . S
C716 C718 1.419 . S
C717 C712 1.425 . S
C717 C714 1.409 . S
C717 C715 1.415 . S
C718 H708 0.930 . S
C718 C716 1.419 . S
C718 C719 1.362 . S
C719 H709 0.930 . S
C719 C712 1.409 . S
C719 C718 1.362 . S
H720 C726 0.930 . S
H721 C729 0.930 . S
H722 C730 0.930 . S
H723 C731 0.930 . S
H724 C734 0.930 . S
H725 C735 0.936 . S
C726 H720 0.930 . S
C726 C727 1.355 . S
C726 C728 1.415 1_556 S
C727 C726 1.355 . S
C727 C729 1.419 . S
C728 C726 1.415 1_554 S
C728 C733 1.419 1_455 S
C728 C735 1.409 1_455 S
C729 H721 0.930 . S
C729 C727 1.419 . S
C729 C730 1.362 . S
C730 H722 0.930 . S
C730 C729 1.362 . S
C730 C733 1.399 1_456 S
C731 H723 0.930 . S
C731 C732 1.355 . S
C731 C733 1.432 . S
C732 C731 1.355 . S
C732 C734 1.419 . S
C733 C728 1.419 1_655 S
C733 C730 1.399 1_654 S
C733 C731 1.432 . S
C734 H724 0.930 . S
C734 C732 1.419 . S
C734 C735 1.362 . S
C735 H725 0.936 . S
C735 C728 1.409 1_655 S
C735 C734 1.362 . S
H736 C742 0.930 . S
H737 C745 0.930 . S
H738 C746 0.930 . S
H739 C747 0.930 . S
H740 C750 0.930 . S
H741 C751 0.930 . S
C742 H736 0.930 . S
C742 C743 1.355 . S
C742 C744 1.415 . S
C743 C742 1.355 . S
C743 C745 1.419 . S
C744 C742 1.415 . S
C744 C749 1.425 . S
C744 C751 1.409 . S
C745 H737 0.930 . S
C745 C743 1.419 . S
C745 C746 1.362 . S
C746 H738 0.930 . S
C746 C745 1.362 . S
C746 C749 1.409 . S
C747 H739 0.930 . S
C747 C748 1.355 . S
C747 C749 1.415 . S
C748 C747 1.355 . S
C748 C750 1.419 . S
C749 C744 1.425 . S
C749 C746 1.409 . S
C749 C747 1.415 . S
C750 H740 0.930 . S
C750 C748 1.419 . S
C750 C751 1.362 . S
C751 H741 0.930 . S
C751 C744 1.409 . S
C751 C750 1.362 . S
H752 C758 0.930 . S
H753 C761 0.930 . S
H754 C762 0.930 . S
H755 C763 0.930 . S
H756 C766 0.930 . S
H757 C767 0.930 . S
C758 H752 0.930 . S
C758 C759 1.355 . S
C758 C760 1.415 . S
C759 C758 1.355 . S
C759 C761 1.419 . S
C760 C758 1.415 . S
C760 C765 1.425 . S
C760 C767 1.409 . S
C761 H753 0.930 . S
C761 C759 1.419 . S
C761 C762 1.362 . S
C762 H754 0.930 . S
C762 C761 1.362 . S
C762 C765 1.409 . S
C763 H755 0.930 . S
C763 C764 1.355 . S
C763 C765 1.415 . S
C764 C763 1.355 . S
C764 C766 1.419 . S
C765 C760 1.425 . S
C765 C762 1.409 . S
C765 C763 1.415 . S
C766 H756 0.930 . S
C766 C764 1.419 . S
C766 C767 1.362 . S
C767 H757 0.930 . S
C767 C760 1.409 . S
C767 C766 1.362 . S
H768 C774 0.930 . S
H769 C777 0.930 . S
H770 C778 0.930 . S
H771 C779 0.930 . S
H772 C782 0.930 . S
H773 C783 0.930 . S
C774 H768 0.930 . S
C774 C775 1.355 . S
C774 C776 1.415 . S
C775 C774 1.355 . S
C775 C777 1.419 . S
C776 C774 1.415 . S
C776 C781 1.425 . S
C776 C783 1.409 . S
C777 H769 0.930 . S
C777 C775 1.419 . S
C777 C778 1.362 . S
C778 H770 0.930 . S
C778 C777 1.362 . S
C778 C781 1.409 . S
C779 H771 0.930 . S
C779 C780 1.355 . S
C779 C781 1.415 . S
C780 C779 1.355 . S
C780 C782 1.419 . S
C781 C776 1.425 . S
C781 C778 1.409 . S
C781 C779 1.415 . S
C782 H772 0.930 . S
C782 C780 1.419 . S
C782 C783 1.362 . S
C783 H773 0.930 . S
C783 C776 1.409 . S
C783 C782 1.362 . S
H784 C790 0.930 . S
H785 C793 0.930 . S
H786 C794 0.930 . S
H787 C795 0.930 . S
H788 C798 0.930 . S
H789 C799 0.930 1_554 S
C790 H784 0.930 . S
C790 C791 1.355 . S
C790 C792 1.415 . S
C791 C790 1.355 . S
C791 C793 1.419 . S
C792 C790 1.415 . S
C792 C797 1.425 1_554 S
C792 C799 1.409 1_554 S
C793 H785 0.930 . S
C793 C791 1.419 . S
C793 C794 1.362 1_554 S
C794 H786 0.930 . S
C794 C793 1.362 1_556 S
C794 C797 1.409 . S
C795 H787 0.930 . S
C795 C796 1.355 . S
C795 C797 1.415 . S
C796 C795 1.355 . S
C796 C798 1.419 . S
C797 C792 1.425 1_556 S
C797 C794 1.409 . S
C797 C795 1.415 . S
C798 H788 0.930 . S
C798 C796 1.419 . S
C798 C799 1.362 . S
C799 H789 0.930 1_556 S
C799 C792 1.409 1_556 S
C799 C798 1.362 . S
H800 C806 0.930 . S
H801 C809 0.930 . S
H802 C810 0.930 . S
H803 C811 0.930 . S
H804 C814 0.930 . S
H805 C815 0.930 . S
C806 H800 0.930 . S
C806 C807 1.355 . S
C806 C808 1.415 . S
C807 C806 1.355 . S
C807 C809 1.419 . S
C808 C806 1.415 . S
C808 C813 1.425 . S
C808 C815 1.409 . S
C809 H801 0.930 . S
C809 C807 1.419 . S
C809 C810 1.362 . S
C810 H802 0.930 . S
C810 C809 1.362 . S
C810 C813 1.409 . S
C811 H803 0.930 . S
C811 C812 1.355 . S
C811 C813 1.415 . S
C812 C811 1.355 . S
C812 C814 1.419 . S
C813 C808 1.425 . S
C813 C810 1.409 . S
C813 C811 1.415 . S
C814 H804 0.930 . S
C814 C812 1.419 . S
C814 C815 1.362 . S
C815 H805 0.930 . S
C815 C808 1.409 . S
C815 C814 1.362 . S
H816 C822 0.930 . S
H817 C825 0.930 . S
H818 C826 0.930 . S
H819 C827 0.930 . S
H820 C830 0.930 . S
H821 C831 0.930 . S
C822 H816 0.930 . S
C822 C823 1.355 1_655 S
C822 C824 1.415 . S
C823 C822 1.355 1_455 S
C823 C825 1.419 . S
C824 C822 1.415 . S
C824 C829 1.425 1_655 S
C824 C831 1.409 . S
C825 H817 0.930 . S
C825 C823 1.419 . S
C825 C826 1.362 . S
C826 H818 0.930 . S
C826 C825 1.362 . S
C826 C829 1.409 . S
C827 H819 0.930 . S
C827 C828 1.355 1_455 S
C827 C829 1.415 . S
C828 C827 1.355 1_655 S
C828 C830 1.419 . S
C829 C824 1.425 1_455 S
C829 C826 1.409 . S
C829 C827 1.415 . S
C830 H820 0.930 . S
C830 C828 1.419 . S
C830 C831 1.362 . S
C831 H821 0.930 . S
C831 C824 1.409 . S
C831 C830 1.362 . S
H832 C838 0.930 . S
H833 C841 0.930 . S
H834 C842 0.930 . S
H835 C843 0.930 . S
H836 C846 0.930 . S
H837 C847 0.930 . S
C838 H832 0.930 . S
C838 C839 1.355 . S
C838 C840 1.415 . S
C839 C838 1.355 . S
C839 C841 1.419 . S
C840 C838 1.415 . S
C840 C845 1.425 . S
C840 C847 1.409 . S
C841 H833 0.930 . S
C841 C839 1.419 . S
C841 C842 1.362 . S
C842 H834 0.930 . S
C842 C841 1.362 . S
C842 C845 1.409 . S
C843 H835 0.930 . S
C843 C844 1.355 . S
C843 C845 1.415 . S
C844 C843 1.355 . S
C844 C846 1.419 . S
C845 C840 1.425 . S
C845 C842 1.409 . S
C845 C843 1.415 . S
C846 H836 0.930 . S
C846 C844 1.419 . S
C846 C847 1.362 . S
C847 H837 0.930 . S
C847 C840 1.409 . S
C847 C846 1.362 . S
H848 C854 0.930 . S
H849 C857 0.930 . S
H850 C858 0.930 . S
H851 C859 0.930 . S
H852 C862 0.930 . S
H853 C863 0.930 . S
C854 H848 0.930 . S
C854 C855 1.355 . S
C854 C856 1.415 1_554 S
C855 C854 1.355 . S
C855 C857 1.419 . S
C856 C854 1.415 1_556 S
C856 C861 1.425 1_655 S
C856 C863 1.409 . S
C857 H849 0.930 . S
C857 C855 1.419 . S
C857 C858 1.362 1_655 S
C858 H850 0.930 . S
C858 C857 1.362 1_455 S
C858 C861 1.409 1_554 S
C859 H851 0.930 . S
C859 C860 1.355 . S
C859 C861 1.415 . S
C860 C859 1.355 . S
C860 C862 1.419 . S
C861 C856 1.425 1_455 S
C861 C858 1.409 1_556 S
C861 C859 1.415 . S
C862 H852 0.930 . S
C862 C860 1.419 . S
C862 C863 1.362 1_455 S
C863 H853 0.930 . S
C863 C856 1.409 . S
C863 C862 1.362 1_655 S
H864 C870 0.930 . S
H865 C873 0.930 . S
H866 C874 0.930 . S
H867 C875 0.930 . S
H868 C878 0.930 . S
H869 C879 0.930 . S
C870 H864 0.930 . S
C870 C871 1.355 . S
C870 C872 1.415 . S
C871 C870 1.355 . S
C871 C873 1.419 . S
C872 C870 1.415 . S
C872 C877 1.425 . S
C872 C879 1.409 . S
C873 H865 0.930 . S
C873 C871 1.419 . S
C873 C874 1.362 . S
C874 H866 0.930 . S
C874 C873 1.362 . S
C874 C877 1.409 . S
C875 H867 0.930 . S
C875 C876 1.355 . S
C875 C877 1.415 . S
C876 C875 1.355 . S
C876 C878 1.419 . S
C877 C872 1.425 . S
C877 C874 1.409 . S
C877 C875 1.415 . S
C878 H868 0.930 . S
C878 C876 1.419 . S
C878 C879 1.362 . S
C879 H869 0.930 . S
C879 C872 1.409 . S
C879 C878 1.362 . S
H880 C886 0.930 . S
H881 C889 0.930 . S
H882 C890 0.930 . S
H883 C891 0.930 . S
H884 C894 0.930 . S
H885 C895 0.930 . S
C886 H880 0.930 . S
C886 C887 1.355 . S
C886 C888 1.415 . S
C887 C886 1.355 . S
C887 C889 1.419 . S
C888 C886 1.415 . S
C888 C893 1.425 . S
C888 C895 1.409 . S
C889 H881 0.930 . S
C889 C887 1.419 . S
C889 C890 1.362 . S
C890 H882 0.930 . S
C890 C889 1.362 . S
C890 C893 1.409 . S
C891 H883 0.930 . S
C891 C892 1.355 . S
C891 C893 1.415 . S
C892 C891 1.355 . S
C892 C894 1.419 . S
C893 C888 1.425 . S
C893 C890 1.409 . S
C893 C891 1.415 . S
C894 H884 0.930 . S
C894 C892 1.419 . S
C894 C895 1.362 . S
C895 H885 0.930 . S
C895 C888 1.409 . S
C895 C894 1.362 . S
H896 C902 0.930 . S
H897 C905 0.930 . S
H898 C906 0.930 . S
H899 C907 0.930 . S
H900 C910 0.930 . S
H901 C911 0.930 . S
C902 H896 0.930 . S
C902 C903 1.355 . S
C902 C904 1.415 . S
C903 C902 1.355 . S
C903 C905 1.419 . S
C904 C902 1.415 . S
C904 C909 1.425 . S
C904 C911 1.409 . S
C905 H897 0.930 . S
C905 C903 1.419 . S
C905 C906 1.362 . S
C906 H898 0.930 . S
C906 C905 1.362 . S
C906 C909 1.409 . S
C907 H899 0.930 . S
C907 C908 1.355 . S
C907 C909 1.415 . S
C908 C907 1.355 . S
C908 C910 1.419 . S
C909 C904 1.425 . S
C909 C906 1.409 . S
C909 C907 1.415 . S
C910 H900 0.930 . S
C910 C908 1.419 . S
C910 C911 1.362 . S
C911 H901 0.930 . S
C911 C904 1.409 . S
C911 C910 1.362 . S
H912 C918 0.930 . S
H913 C921 0.930 . S
H914 C922 0.930 . S
H915 C923 0.930 . S
H916 C926 0.930 . S
H917 C927 0.930 . S
C918 H912 0.930 . S
C918 C919 1.355 . S
C918 C920 1.415 . S
C919 C918 1.355 . S
C919 C921 1.419 . S
C920 C918 1.415 . S
C920 C925 1.425 . S
C920 C927 1.409 1_554 S
C921 H913 0.930 . S
C921 C919 1.419 . S
C921 C922 1.362 . S
C922 H914 0.930 . S
C922 C921 1.362 . S
C922 C925 1.409 . S
C923 H915 0.930 . S
C923 C924 1.355 . S
C923 C925 1.415 1_556 S
C924 C923 1.355 . S
C924 C926 1.419 . S
C925 C920 1.425 . S
C925 C922 1.409 . S
C925 C923 1.415 1_554 S
C926 H916 0.930 . S
C926 C924 1.419 . S
C926 C927 1.362 . S
C927 H917 0.930 . S
C927 C920 1.409 1_556 S
C927 C926 1.362 . S
H928 C934 0.930 . S
H929 C937 0.930 . S
H930 C938 0.930 . S
H931 C939 0.930 . S
H932 C942 0.930 . S
H933 C943 0.930 . S
C934 H928 0.930 . S
C934 C935 1.355 . S
C934 C936 1.415 . S
C935 C934 1.355 . S
C935 C937 1.419 . S
C936 C934 1.415 . S
C936 C941 1.425 . S
C936 C943 1.409 . S
C937 H929 0.930 . S
C937 C935 1.419 . S
C937 C938 1.362 . S
C938 H930 0.930 . S
C938 C937 1.362 . S
C938 C941 1.409 . S
C939 H931 0.930 . S
C939 C940 1.355 . S
C939 C941 1.415 . S
C940 C939 1.355 . S
C940 C942 1.419 . S
C941 C936 1.425 . S
C941 C938 1.409 . S
C941 C939 1.415 . S
C942 H932 0.930 . S
C942 C940 1.419 . S
C942 C943 1.362 . S
C943 H933 0.930 . S
C943 C936 1.409 . S
C943 C942 1.362 . S
H944 C950 0.953 . S
H945 C953 0.930 . S
H946 C954 0.930 . S
H947 C955 0.930 . S
H948 C958 0.930 . S
H949 C959 0.930 . S
C950 H944 0.953 . S
C950 C951 1.323 1_455 S
C950 C952 1.424 . S
C951 C950 1.323 1_655 S
C951 C953 1.419 . S
C952 C950 1.424 . S
C952 C957 1.425 1_455 S
C952 C959 1.409 . S
C953 H945 0.930 . S
C953 C951 1.419 . S
C953 C954 1.362 . S
C954 H946 0.930 . S
C954 C953 1.362 . S
C954 C957 1.409 . S
C955 H947 0.930 . S
C955 C956 1.355 1_655 S
C955 C957 1.415 . S
C956 C955 1.355 1_455 S
C956 C958 1.419 . S
C957 C952 1.425 1_655 S
C957 C954 1.409 . S
C957 C955 1.415 . S
C958 H948 0.930 . S
C958 C956 1.419 . S
C958 C959 1.362 . S
C959 H949 0.930 . S
C959 C952 1.409 . S
C959 C958 1.362 . S
H960 C966 0.930 . S
H961 C969 0.930 . S
H962 C970 0.930 . S
H963 C971 0.930 . S
H964 C974 0.930 . S
H965 C975 0.930 . S
C966 H960 0.930 . S
C966 C967 1.355 . S
C966 C968 1.415 . S
C967 C966 1.355 . S
C967 C969 1.419 . S
C968 C966 1.415 . S
C968 C973 1.425 . S
C968 C975 1.409 . S
C969 H961 0.930 . S
C969 C967 1.419 . S
C969 C970 1.362 . S
C970 H962 0.930 . S
C970 C969 1.362 . S
C970 C973 1.409 . S
C971 H963 0.930 . S
C971 C972 1.355 . S
C971 C973 1.415 . S
C972 C971 1.355 . S
C972 C974 1.419 . S
C973 C968 1.425 . S
C973 C970 1.409 . S
C973 C971 1.415 . S
C974 H964 0.930 . S
C974 C972 1.419 . S
C974 C975 1.362 . S
C975 H965 0.930 . S
C975 C968 1.409 . S
C975 C974 1.362 . S
H976 C982 0.930 . S
H977 C985 0.930 . S
H978 C986 0.930 . S
H979 C987 0.930 . S
H980 C990 0.930 . S
H981 C991 0.930 . S
C982 H976 0.930 . S
C982 C983 1.355 . S
C982 C984 1.415 . S
C983 C982 1.355 . S
C983 C985 1.419 . S
C984 C982 1.415 . S
C984 C989 1.425 . S
C984 C991 1.409 . S
C985 H977 0.930 . S
C985 C983 1.419 . S
C985 C986 1.362 . S
C986 H978 0.930 . S
C986 C985 1.362 . S
C986 C989 1.409 . S
C987 H979 0.930 . S
C987 C988 1.355 . S
C987 C989 1.415 . S
C988 C987 1.355 . S
C988 C990 1.419 . S
C989 C984 1.425 . S
C989 C986 1.409 . S
C989 C987 1.415 . S
C990 H980 0.930 . S
C990 C988 1.419 . S
C990 C991 1.362 . S
C991 H981 0.930 . S
C991 C984 1.409 . S
C991 C990 1.362 . S
H992 C998 0.930 . S
H993 C1001 0.930 . S
H994 C1002 0.930 . S
H995 C1003 0.930 . S
H996 C1006 0.930 . S
H997 C1007 0.930 . S
C998 H992 0.930 . S
C998 C999 1.355 . S
C998 C1000 1.415 . S
C999 C998 1.355 . S
C999 C1001 1.419 . S
C1000 C998 1.415 . S
C1000 C1005 1.425 . S
C1000 C1007 1.409 . S
C1001 H993 0.930 . S
C1001 C999 1.419 . S
C1001 C1002 1.362 . S
C1002 H994 0.930 . S
C1002 C1001 1.362 . S
C1002 C1005 1.409 . S
C1003 H995 0.930 . S
C1003 C1004 1.355 . S
C1003 C1005 1.415 . S
C1004 C1003 1.355 . S
C1004 C1006 1.419 . S
C1005 C1000 1.425 . S
C1005 C1002 1.409 . S
C1005 C1003 1.415 . S
C1006 H996 0.930 . S
C1006 C1004 1.419 . S
C1006 C1007 1.362 . S
C1007 H997 0.930 . S
C1007 C1000 1.409 . S
C1007 C1006 1.362 . S
H1008 C1014 0.930 . S
H1009 C1017 0.930 . S
H1010 C1018 0.930 . S
H1011 C1019 0.930 . S
H1012 C1022 0.930 . S
H1013 C1023 0.930 . S
C1014 H1008 0.930 . S
C1014 C1015 1.355 . S
C1014 C1016 1.415 . S
C1015 C1014 1.355 . S
C1015 C1017 1.419 1_455 S
C1016 C1014 1.415 . S
C1016 C1021 1.425 1_455 S
C1016 C1023 1.409 1_554 S
C1017 H1009 0.930 . S
C1017 C1015 1.419 1_655 S
C1017 C1018 1.362 . S
C1018 H1010 0.930 . S
C1018 C1017 1.362 . S
C1018 C1021 1.409 . S
C1019 H1011 0.930 . S
C1019 C1020 1.355 . S
C1019 C1021 1.415 1_556 S
C1020 C1019 1.355 . S
C1020 C1022 1.419 1_655 S
C1021 C1016 1.425 1_655 S
C1021 C1018 1.409 . S
C1021 C1019 1.415 1_554 S
C1022 H1012 0.930 . S
C1022 C1020 1.419 1_455 S
C1022 C1023 1.362 . S
C1023 H1013 0.930 . S
C1023 C1016 1.409 1_556 S
C1023 C1022 1.362 . S
H1024 C1030 0.930 . S
H1025 C1033 0.930 . S
H1026 C1034 0.930 . S
H1027 C1035 0.930 . S
H1028 C1038 0.930 . S
H1029 C1039 0.930 . S
C1030 H1024 0.930 . S
C1030 C1031 1.355 . S
C1030 C1032 1.415 . S
C1031 C1030 1.355 . S
C1031 C1033 1.419 . S
C1032 C1030 1.415 . S
C1032 C1037 1.425 . S
C1032 C1039 1.409 . S
C1033 H1025 0.930 . S
C1033 C1031 1.419 . S
C1033 C1034 1.362 . S
C1034 H1026 0.930 . S
C1034 C1033 1.362 . S
C1034 C1037 1.409 . S
C1035 H1027 0.930 . S
C1035 C1036 1.355 . S
C1035 C1037 1.415 . S
C1036 C1035 1.355 . S
C1036 C1038 1.419 . S
C1037 C1032 1.425 . S
C1037 C1034 1.409 . S
C1037 C1035 1.415 . S
C1038 H1028 0.930 . S
C1038 C1036 1.419 . S
C1038 C1039 1.362 . S
C1039 H1029 0.930 . S
C1039 C1032 1.409 . S
C1039 C1038 1.362 . S
H1040 C1046 0.952 . S
H1041 C1049 0.930 . S
H1042 C1050 0.930 . S
H1043 C1051 0.930 . S
H1044 C1054 0.930 . S
H1045 C1055 0.930 . S
C1046 H1040 0.952 . S
C1046 C1047 1.325 1_455 S
C1046 C1048 1.423 . S
C1047 C1046 1.325 1_655 S
C1047 C1049 1.419 . S
C1048 C1046 1.423 . S
C1048 C1053 1.425 1_455 S
C1048 C1055 1.409 . S
C1049 H1041 0.930 . S
C1049 C1047 1.419 . S
C1049 C1050 1.362 . S
C1050 H1042 0.930 . S
C1050 C1049 1.362 . S
C1050 C1053 1.409 . S
C1051 H1043 0.930 . S
C1051 C1052 1.355 1_655 S
C1051 C1053 1.415 . S
C1052 C1051 1.355 1_455 S
C1052 C1054 1.419 . S
C1053 C1048 1.425 1_655 S
C1053 C1050 1.409 . S
C1053 C1051 1.415 . S
C1054 H1044 0.930 . S
C1054 C1052 1.419 . S
C1054 C1055 1.362 . S
C1055 H1045 0.930 . S
C1055 C1048 1.409 . S
C1055 C1054 1.362 . S
H1056 C1062 0.930 . S
H1057 C1065 0.930 . S
H1058 C1066 0.930 . S
H1059 C1067 0.930 . S
H1060 C1070 0.930 . S
H1061 C1071 0.930 . S
C1062 H1056 0.930 . S
C1062 C1063 1.355 . S
C1062 C1064 1.415 . S
C1063 C1062 1.355 . S
C1063 C1065 1.419 . S
C1064 C1062 1.415 . S
C1064 C1069 1.425 . S
C1064 C1071 1.409 . S
C1065 H1057 0.930 . S
C1065 C1063 1.419 . S
C1065 C1066 1.362 . S
C1066 H1058 0.930 . S
C1066 C1065 1.362 . S
C1066 C1069 1.409 . S
C1067 H1059 0.930 . S
C1067 C1068 1.355 . S
C1067 C1069 1.415 . S
C1068 C1067 1.355 . S
C1068 C1070 1.419 . S
C1069 C1064 1.425 . S
C1069 C1066 1.409 . S
C1069 C1067 1.415 . S
C1070 H1060 0.930 . S
C1070 C1068 1.419 . S
C1070 C1071 1.362 . S
C1071 H1061 0.930 . S
C1071 C1064 1.409 . S
C1071 C1070 1.362 . S
H1072 C1078 0.930 . S
H1073 C1081 0.930 . S
H1074 C1082 0.930 . S
H1075 C1083 0.930 . S
H1076 C1086 0.930 . S
H1077 C1087 0.930 1_554 S
C1078 H1072 0.930 . S
C1078 C1079 1.355 . S
C1078 C1080 1.415 . S
C1079 C1078 1.355 . S
C1079 C1081 1.419 . S
C1080 C1078 1.415 . S
C1080 C1085 1.425 1_554 S
C1080 C1087 1.409 1_554 S
C1081 H1073 0.930 . S
C1081 C1079 1.419 . S
C1081 C1082 1.362 1_554 S
C1082 H1074 0.930 . S
C1082 C1081 1.362 1_556 S
C1082 C1085 1.409 . S
C1083 H1075 0.930 . S
C1083 C1084 1.355 . S
C1083 C1085 1.415 . S
C1084 C1083 1.355 . S
C1084 C1086 1.419 . S
C1085 C1080 1.425 1_556 S
C1085 C1082 1.409 . S
C1085 C1083 1.415 . S
C1086 H1076 0.930 . S
C1086 C1084 1.419 . S
C1086 C1087 1.362 . S
C1087 H1077 0.930 1_556 S
C1087 C1080 1.409 1_556 S
C1087 C1086 1.362 . S
H1088 C1094 0.930 . S
H1089 C1097 0.930 . S
H1090 C1098 0.930 . S
H1091 C1099 0.930 . S
H1092 C1102 0.930 . S
H1093 C1103 0.930 . S
C1094 H1088 0.930 . S
C1094 C1095 1.355 . S
C1094 C1096 1.415 . S
C1095 C1094 1.355 . S
C1095 C1097 1.419 . S
C1096 C1094 1.415 . S
C1096 C1101 1.425 . S
C1096 C1103 1.409 . S
C1097 H1089 0.930 . S
C1097 C1095 1.419 . S
C1097 C1098 1.362 . S
C1098 H1090 0.930 . S
C1098 C1097 1.362 . S
C1098 C1101 1.409 . S
C1099 H1091 0.930 . S
C1099 C1100 1.355 . S
C1099 C1101 1.415 . S
C1100 C1099 1.355 . S
C1100 C1102 1.419 . S
C1101 C1096 1.425 . S
C1101 C1098 1.409 . S
C1101 C1099 1.415 . S
C1102 H1092 0.930 . S
C1102 C1100 1.419 . S
C1102 C1103 1.362 . S
C1103 H1093 0.930 . S
C1103 C1096 1.409 . S
C1103 C1102 1.362 . S
H1104 C1110 0.930 . S
H1105 C1113 0.930 . S
H1106 C1114 0.930 . S
H1107 C1115 0.930 . S
H1108 C1118 0.930 . S
H1109 C1119 0.930 . S
C1110 H1104 0.930 . S
C1110 C1111 1.355 . S
C1110 C1112 1.415 . S
C1111 C1110 1.355 . S
C1111 C1113 1.419 . S
C1112 C1110 1.415 . S
C1112 C1117 1.425 . S
C1112 C1119 1.409 . S
C1113 H1105 0.930 . S
C1113 C1111 1.419 . S
C1113 C1114 1.362 . S
C1114 H1106 0.930 . S
C1114 C1113 1.362 . S
C1114 C1117 1.409 . S
C1115 H1107 0.930 . S
C1115 C1116 1.355 . S
C1115 C1117 1.415 . S
C1116 C1115 1.355 . S
C1116 C1118 1.419 . S
C1117 C1112 1.425 . S
C1117 C1114 1.409 . S
C1117 C1115 1.415 . S
C1118 H1108 0.930 . S
C1118 C1116 1.419 . S
C1118 C1119 1.362 . S
C1119 H1109 0.930 . S
C1119 C1112 1.409 . S
C1119 C1118 1.362 . S
H1120 C1126 0.930 . S
H1121 C1129 0.930 . S
H1122 C1130 0.930 . S
H1123 C1131 0.930 . S
H1124 C1134 0.930 . S
H1125 C1135 0.930 . S
C1126 H1120 0.930 . S
C1126 C1127 1.355 . S
C1126 C1128 1.415 . S
C1127 C1126 1.355 . S
C1127 C1129 1.419 . S
C1128 C1126 1.415 . S
C1128 C1133 1.425 . S
C1128 C1135 1.409 . S
C1129 H1121 0.930 . S
C1129 C1127 1.419 . S
C1129 C1130 1.362 . S
C1130 H1122 0.930 . S
C1130 C1129 1.362 . S
C1130 C1133 1.409 . S
C1131 H1123 0.930 . S
C1131 C1132 1.355 . S
C1131 C1133 1.415 . S
C1132 C1131 1.355 . S
C1132 C1134 1.419 . S
C1133 C1128 1.425 . S
C1133 C1130 1.409 . S
C1133 C1131 1.415 . S
C1134 H1124 0.930 . S
C1134 C1132 1.419 . S
C1134 C1135 1.362 . S
C1135 H1125 0.930 . S
C1135 C1128 1.409 . S
C1135 C1134 1.362 . S
H1136 C1142 0.930 . S
H1137 C1145 0.930 . S
H1138 C1146 0.930 . S
H1139 C1147 0.930 . S
H1140 C1150 0.930 . S
H1141 C1151 0.915 1_655 S
C1142 H1136 0.930 . S
C1142 C1143 1.355 . S
C1142 C1144 1.415 . S
C1143 C1142 1.355 . S
C1143 C1145 1.419 . S
C1144 C1142 1.415 . S
C1144 C1149 1.425 1_655 S
C1144 C1151 1.401 1_656 S
C1145 H1137 0.930 . S
C1145 C1143 1.419 . S
C1145 C1146 1.362 1_655 S
C1146 H1138 0.930 . S
C1146 C1145 1.362 1_455 S
C1146 C1149 1.409 . S
C1147 H1139 0.930 . S
C1147 C1148 1.355 . S
C1147 C1149 1.415 1_554 S
C1148 C1147 1.355 . S
C1148 C1150 1.419 . S
C1149 C1144 1.425 1_455 S
C1149 C1146 1.409 . S
C1149 C1147 1.415 1_556 S
C1150 H1140 0.930 . S
C1150 C1148 1.419 . S
C1150 C1151 1.390 . S
C1151 H1141 0.915 1_455 S
C1151 C1144 1.401 1_454 S
C1151 C1150 1.390 . S
H1152 C1158 0.930 . S
H1153 C1161 0.930 . S
H1154 C1162 0.930 . S
H1155 C1163 0.930 . S
H1156 C1166 0.930 . S
H1157 C1167 0.930 . S
C1158 H1152 0.930 . S
C1158 C1159 1.355 . S
C1158 C1160 1.415 . S
C1159 C1158 1.355 . S
C1159 C1161 1.419 . S
C1160 C1158 1.415 . S
C1160 C1165 1.425 . S
C1160 C1167 1.409 . S
C1161 H1153 0.930 . S
C1161 C1159 1.419 . S
C1161 C1162 1.362 . S
C1162 H1154 0.930 . S
C1162 C1161 1.362 . S
C1162 C1165 1.409 . S
C1163 H1155 0.930 . S
C1163 C1164 1.355 . S
C1163 C1165 1.415 . S
C1164 C1163 1.355 . S
C1164 C1166 1.419 . S
C1165 C1160 1.425 . S
C1165 C1162 1.409 . S
C1165 C1163 1.415 . S
C1166 H1156 0.930 . S
C1166 C1164 1.419 . S
C1166 C1167 1.362 . S
C1167 H1157 0.930 . S
C1167 C1160 1.409 . S
C1167 C1166 1.362 . S
H1168 C1174 0.930 . S
H1169 C1177 0.929 1_455 S
H1170 C1178 0.930 . S
H1171 C1179 0.930 . S
H1172 C1182 0.930 . S
H1173 C1183 0.930 . S
C1174 H1168 0.930 . S
C1174 C1175 1.355 . S
C1174 C1176 1.415 . S
C1175 C1174 1.355 . S
C1175 C1177 1.419 . S
C1176 C1174 1.415 . S
C1176 C1181 1.425 1_655 S
C1176 C1183 1.409 . S
C1177 H1169 0.929 1_655 S
C1177 C1175 1.419 . S
C1177 C1178 1.362 1_655 S
C1178 H1170 0.930 . S
C1178 C1177 1.362 1_455 S
C1178 C1181 1.409 . S
C1179 H1171 0.930 . S
C1179 C1180 1.355 . S
C1179 C1181 1.415 . S
C1180 C1179 1.355 . S
C1180 C1182 1.419 . S
C1181 C1176 1.425 1_455 S
C1181 C1178 1.409 . S
C1181 C1179 1.415 . S
C1182 H1172 0.930 . S
C1182 C1180 1.419 . S
C1182 C1183 1.362 1_455 S
C1183 H1173 0.930 . S
C1183 C1176 1.409 . S
C1183 C1182 1.362 1_655 S
H1184 C1190 0.930 . S
H1185 C1193 0.930 . S
H1186 C1194 0.930 . S
H1187 C1195 0.930 . S
H1188 C1198 0.930 . S
H1189 C1199 0.930 . S
C1190 H1184 0.930 . S
C1190 C1191 1.355 . S
C1190 C1192 1.415 . S
C1191 C1190 1.355 . S
C1191 C1193 1.419 . S
C1192 C1190 1.415 . S
C1192 C1197 1.425 . S
C1192 C1199 1.409 . S
C1193 H1185 0.930 . S
C1193 C1191 1.419 . S
C1193 C1194 1.362 . S
C1194 H1186 0.930 . S
C1194 C1193 1.362 . S
C1194 C1197 1.409 . S
C1195 H1187 0.930 . S
C1195 C1196 1.355 . S
C1195 C1197 1.415 . S
C1196 C1195 1.355 . S
C1196 C1198 1.419 . S
C1197 C1192 1.425 . S
C1197 C1194 1.409 . S
C1197 C1195 1.415 . S
C1198 H1188 0.930 . S
C1198 C1196 1.419 . S
C1198 C1199 1.362 . S
C1199 H1189 0.930 . S
C1199 C1192 1.409 . S
C1199 C1198 1.362 . S
H1200 C1206 0.930 . S
H1201 C1209 0.930 . S
H1202 C1210 0.930 1_556 S
H1203 C1211 0.930 . S
H1204 C1214 0.930 . S
H1205 C1215 0.930 . S
C1206 H1200 0.930 . S
C1206 C1207 1.355 . S
C1206 C1208 1.415 . S
C1207 C1206 1.355 . S
C1207 C1209 1.419 . S
C1208 C1206 1.415 . S
C1208 C1213 1.425 1_554 S
C1208 C1215 1.409 . S
C1209 H1201 0.930 . S
C1209 C1207 1.419 . S
C1209 C1210 1.362 . S
C1210 H1202 0.930 1_554 S
C1210 C1209 1.362 . S
C1210 C1213 1.409 1_554 S
C1211 H1203 0.930 . S
C1211 C1212 1.355 . S
C1211 C1213 1.415 . S
C1212 C1211 1.355 . S
C1212 C1214 1.419 . S
C1213 C1208 1.425 1_556 S
C1213 C1210 1.409 1_556 S
C1213 C1211 1.415 . S
C1214 H1204 0.930 . S
C1214 C1212 1.419 . S
C1214 C1215 1.362 1_556 S
C1215 H1205 0.930 . S
C1215 C1208 1.409 . S
C1215 C1214 1.362 1_554 S
H1216 C1222 0.930 . S
H1217 C1225 0.930 . S
H1218 C1226 0.930 . S
H1219 C1227 0.930 . S
H1220 C1230 0.930 . S
H1221 C1231 0.930 . S
C1222 H1216 0.930 . S
C1222 C1223 1.355 . S
C1222 C1224 1.415 . S
C1223 C1222 1.355 . S
C1223 C1225 1.419 . S
C1224 C1222 1.415 . S
C1224 C1229 1.425 . S
C1224 C1231 1.409 . S
C1225 H1217 0.930 . S
C1225 C1223 1.419 . S
C1225 C1226 1.362 . S
C1226 H1218 0.930 . S
C1226 C1225 1.362 . S
C1226 C1229 1.409 . S
C1227 H1219 0.930 . S
C1227 C1228 1.355 . S
C1227 C1229 1.415 . S
C1228 C1227 1.355 . S
C1228 C1230 1.419 . S
C1229 C1224 1.425 . S
C1229 C1226 1.409 . S
C1229 C1227 1.415 . S
C1230 H1220 0.930 . S
C1230 C1228 1.419 . S
C1230 C1231 1.362 . S
C1231 H1221 0.930 . S
C1231 C1224 1.409 . S
C1231 C1230 1.362 . S
H1232 C1238 0.930 . S
H1233 C1241 0.930 . S
H1234 C1242 0.930 . S
H1235 C1243 0.930 . S
H1236 C1246 0.930 . S
H1237 C1247 0.930 . S
C1238 H1232 0.930 . S
C1238 C1239 1.355 . S
C1238 C1240 1.415 . S
C1239 C1238 1.355 . S
C1239 C1241 1.419 . S
C1240 C1238 1.415 . S
C1240 C1245 1.425 . S
C1240 C1247 1.409 . S
C1241 H1233 0.930 . S
C1241 C1239 1.419 . S
C1241 C1242 1.362 . S
C1242 H1234 0.930 . S
C1242 C1241 1.362 . S
C1242 C1245 1.409 . S
C1243 H1235 0.930 . S
C1243 C1244 1.355 . S
C1243 C1245 1.415 . S
C1244 C1243 1.355 . S
C1244 C1246 1.419 . S
C1245 C1240 1.425 . S
C1245 C1242 1.409 . S
C1245 C1243 1.415 . S
C1246 H1236 0.930 . S
C1246 C1244 1.419 . S
C1246 C1247 1.362 . S
C1247 H1237 0.930 . S
C1247 C1240 1.409 . S
C1247 C1246 1.362 . S
H1248 C1254 0.930 . S
H1249 C1257 0.930 . S
H1250 C1258 0.930 . S
H1251 C1259 0.930 . S
H1252 C1262 0.930 . S
H1253 C1263 0.930 . S
C1254 H1248 0.930 . S
C1254 C1255 1.355 . S
C1254 C1256 1.415 . S
C1255 C1254 1.355 . S
C1255 C1257 1.419 . S
C1256 C1254 1.415 . S
C1256 C1261 1.425 . S
C1256 C1263 1.409 . S
C1257 H1249 0.930 . S
C1257 C1255 1.419 . S
C1257 C1258 1.362 . S
C1258 H1250 0.930 . S
C1258 C1257 1.362 . S
C1258 C1261 1.409 . S
C1259 H1251 0.930 . S
C1259 C1260 1.355 . S
C1259 C1261 1.415 . S
C1260 C1259 1.355 . S
C1260 C1262 1.419 . S
C1261 C1256 1.425 . S
C1261 C1258 1.409 . S
C1261 C1259 1.415 . S
C1262 H1252 0.930 . S
C1262 C1260 1.419 . S
C1262 C1263 1.362 . S
C1263 H1253 0.930 . S
C1263 C1256 1.409 . S
C1263 C1262 1.362 . S
H1264 C1270 0.930 . S
H1265 C1273 0.930 . S
H1266 C1274 0.930 . S
H1267 C1275 0.930 . S
H1268 C1278 0.930 . S
H1269 C1279 0.930 . S
C1270 H1264 0.930 . S
C1270 C1271 1.355 . S
C1270 C1272 1.415 . S
C1271 C1270 1.355 . S
C1271 C1273 1.419 . S
C1272 C1270 1.415 . S
C1272 C1277 1.425 . S
C1272 C1279 1.409 . S
C1273 H1265 0.930 . S
C1273 C1271 1.419 . S
C1273 C1274 1.362 . S
C1274 H1266 0.930 . S
C1274 C1273 1.362 . S
C1274 C1277 1.409 . S
C1275 H1267 0.930 . S
C1275 C1276 1.355 . S
C1275 C1277 1.415 . S
C1276 C1275 1.355 . S
C1276 C1278 1.419 . S
C1277 C1272 1.425 . S
C1277 C1274 1.409 . S
C1277 C1275 1.415 . S
C1278 H1268 0.930 . S
C1278 C1276 1.419 . S
C1278 C1279 1.362 . S
C1279 H1269 0.930 . S
C1279 C1272 1.409 . S
C1279 C1278 1.362 . S
H1280 C1286 0.930 . S
H1281 C1289 0.930 . S
H1282 C1290 0.930 . S
H1283 C1291 0.930 . S
H1284 C1294 0.930 . S
H1285 C1295 0.930 . S
C1286 H1280 0.930 . S
C1286 C1287 1.355 . S
C1286 C1288 1.415 . S
C1287 C1286 1.355 . S
C1287 C1289 1.419 . S
C1288 C1286 1.415 . S
C1288 C1293 1.425 . S
C1288 C1295 1.409 . S
C1289 H1281 0.930 . S
C1289 C1287 1.419 . S
C1289 C1290 1.362 . S
C1290 H1282 0.930 . S
C1290 C1289 1.362 . S
C1290 C1293 1.409 . S
C1291 H1283 0.930 . S
C1291 C1292 1.355 . S
C1291 C1293 1.415 . S
C1292 C1291 1.355 . S
C1292 C1294 1.419 . S
C1293 C1288 1.425 . S
C1293 C1290 1.409 . S
C1293 C1291 1.415 . S
C1294 H1284 0.930 . S
C1294 C1292 1.419 . S
C1294 C1295 1.362 . S
C1295 H1285 0.930 . S
C1295 C1288 1.409 . S
C1295 C1294 1.362 . S
H1296 C1302 0.930 . S
H1297 C1305 0.930 . S
H1298 C1306 0.930 . S
H1299 C1307 0.930 . S
H1300 C1310 0.930 . S
H1301 C1311 0.930 . S
C1302 H1296 0.930 . S
C1302 C1303 1.355 . S
C1302 C1304 1.415 . S
C1303 C1302 1.355 . S
C1303 C1305 1.419 . S
C1304 C1302 1.415 . S
C1304 C1309 1.425 . S
C1304 C1311 1.409 . S
C1305 H1297 0.930 . S
C1305 C1303 1.419 . S
C1305 C1306 1.362 . S
C1306 H1298 0.930 . S
C1306 C1305 1.362 . S
C1306 C1309 1.409 . S
C1307 H1299 0.930 . S
C1307 C1308 1.355 . S
C1307 C1309 1.415 . S
C1308 C1307 1.355 . S
C1308 C1310 1.419 . S
C1309 C1304 1.425 . S
C1309 C1306 1.409 . S
C1309 C1307 1.415 . S
C1310 H1300 0.930 . S
C1310 C1308 1.419 . S
C1310 C1311 1.362 . S
C1311 H1301 0.930 . S
C1311 C1304 1.409 . S
C1311 C1310 1.362 . S
H1312 C1318 0.930 . S
H1313 C1321 0.930 . S
H1314 C1322 0.930 . S
H1315 C1323 0.930 . S
H1316 C1326 0.930 . S
H1317 C1327 0.930 . S
C1318 H1312 0.930 . S
C1318 C1319 1.355 . S
C1318 C1320 1.415 . S
C1319 C1318 1.355 . S
C1319 C1321 1.419 . S
C1320 C1318 1.415 . S
C1320 C1325 1.425 . S
C1320 C1327 1.409 . S
C1321 H1313 0.930 . S
C1321 C1319 1.419 . S
C1321 C1322 1.362 . S
C1322 H1314 0.930 . S
C1322 C1321 1.362 . S
C1322 C1325 1.409 . S
C1323 H1315 0.930 . S
C1323 C1324 1.355 . S
C1323 C1325 1.415 . S
C1324 C1323 1.355 . S
C1324 C1326 1.419 . S
C1325 C1320 1.425 . S
C1325 C1322 1.409 . S
C1325 C1323 1.415 . S
C1326 H1316 0.930 . S
C1326 C1324 1.419 . S
C1326 C1327 1.362 . S
C1327 H1317 0.930 . S
C1327 C1320 1.409 . S
C1327 C1326 1.362 . S
H1328 C1334 0.930 . S
H1329 C1337 0.930 . S
H1330 C1338 0.930 . S
H1331 C1339 0.930 . S
H1332 C1342 0.930 . S
H1333 C1343 0.930 . S
C1334 H1328 0.930 . S
C1334 C1335 1.355 . S
C1334 C1336 1.415 . S
C1335 C1334 1.355 . S
C1335 C1337 1.419 . S
C1336 C1334 1.415 . S
C1336 C1341 1.425 . S
C1336 C1343 1.409 . S
C1337 H1329 0.930 . S
C1337 C1335 1.419 . S
C1337 C1338 1.362 . S
C1338 H1330 0.930 . S
C1338 C1337 1.362 . S
C1338 C1341 1.409 . S
C1339 H1331 0.930 . S
C1339 C1340 1.355 . S
C1339 C1341 1.415 . S
C1340 C1339 1.355 . S
C1340 C1342 1.419 . S
C1341 C1336 1.425 . S
C1341 C1338 1.409 . S
C1341 C1339 1.415 . S
C1342 H1332 0.930 . S
C1342 C1340 1.419 . S
C1342 C1343 1.362 . S
C1343 H1333 0.930 . S
C1343 C1336 1.409 . S
C1343 C1342 1.362 . S
H1344 C1350 0.930 . S
H1345 C1353 0.930 . S
H1346 C1354 0.930 . S
H1347 C1355 0.930 . S
H1348 C1358 0.930 . S
H1349 C1359 0.930 . S
C1350 H1344 0.930 . S
C1350 C1351 1.355 . S
C1350 C1352 1.415 . S
C1351 C1350 1.355 . S
C1351 C1353 1.419 . S
C1352 C1350 1.415 . S
C1352 C1357 1.425 . S
C1352 C1359 1.409 . S
C1353 H1345 0.930 . S
C1353 C1351 1.419 . S
C1353 C1354 1.362 . S
C1354 H1346 0.930 . S
C1354 C1353 1.362 . S
C1354 C1357 1.409 . S
C1355 H1347 0.930 . S
C1355 C1356 1.355 . S
C1355 C1357 1.415 . S
C1356 C1355 1.355 . S
C1356 C1358 1.419 . S
C1357 C1352 1.425 . S
C1357 C1354 1.409 . S
C1357 C1355 1.415 . S
C1358 H1348 0.930 . S
C1358 C1356 1.419 . S
C1358 C1359 1.362 . S
C1359 H1349 0.930 . S
C1359 C1352 1.409 . S
C1359 C1358 1.362 . S
H1360 C1366 0.930 . S
H1361 C1369 0.930 . S
H1362 C1370 0.930 . S
H1363 C1371 0.930 . S
H1364 C1374 0.930 . S
H1365 C1375 0.930 . S
C1366 H1360 0.930 . S
C1366 C1367 1.355 . S
C1366 C1368 1.415 . S
C1367 C1366 1.355 . S
C1367 C1369 1.419 . S
C1368 C1366 1.415 . S
C1368 C1373 1.425 . S
C1368 C1375 1.409 . S
C1369 H1361 0.930 . S
C1369 C1367 1.419 . S
C1369 C1370 1.362 . S
C1370 H1362 0.930 . S
C1370 C1369 1.362 . S
C1370 C1373 1.409 . S
C1371 H1363 0.930 . S
C1371 C1372 1.355 . S
C1371 C1373 1.415 . S
C1372 C1371 1.355 . S
C1372 C1374 1.419 . S
C1373 C1368 1.425 . S
C1373 C1370 1.409 . S
C1373 C1371 1.415 . S
C1374 H1364 0.930 . S
C1374 C1372 1.419 . S
C1374 C1375 1.362 . S
C1375 H1365 0.930 . S
C1375 C1368 1.409 . S
C1375 C1374 1.362 . S
H1376 C1382 0.930 . S
H1377 C1385 0.930 . S
H1378 C1386 0.930 . S
H1379 C1387 0.930 . S
H1380 C1390 0.930 . S
H1381 C1391 0.930 . S
C1382 H1376 0.930 . S
C1382 C1383 1.355 . S
C1382 C1384 1.415 . S
C1383 C1382 1.355 . S
C1383 C1385 1.419 . S
C1384 C1382 1.415 . S
C1384 C1389 1.425 . S
C1384 C1391 1.409 . S
C1385 H1377 0.930 . S
C1385 C1383 1.419 . S
C1385 C1386 1.362 . S
C1386 H1378 0.930 . S
C1386 C1385 1.362 . S
C1386 C1389 1.409 . S
C1387 H1379 0.930 . S
C1387 C1388 1.355 . S
C1387 C1389 1.415 . S
C1388 C1387 1.355 . S
C1388 C1390 1.419 . S
C1389 C1384 1.425 . S
C1389 C1386 1.409 . S
C1389 C1387 1.415 . S
C1390 H1380 0.930 . S
C1390 C1388 1.419 . S
C1390 C1391 1.362 . S
C1391 H1381 0.930 . S
C1391 C1384 1.409 . S
C1391 C1390 1.362 . S
H1392 C1398 0.930 . S
H1393 C1401 0.930 . S
H1394 C1402 0.930 . S
H1395 C1403 0.930 . S
H1396 C1406 0.930 . S
H1397 C1407 0.930 . S
C1398 H1392 0.930 . S
C1398 C1399 1.355 . S
C1398 C1400 1.415 . S
C1399 C1398 1.355 . S
C1399 C1401 1.419 . S
C1400 C1398 1.415 . S
C1400 C1405 1.425 . S
C1400 C1407 1.409 . S
C1401 H1393 0.930 . S
C1401 C1399 1.419 . S
C1401 C1402 1.362 . S
C1402 H1394 0.930 . S
C1402 C1401 1.362 . S
C1402 C1405 1.409 . S
C1403 H1395 0.930 . S
C1403 C1404 1.355 . S
C1403 C1405 1.415 . S
C1404 C1403 1.355 . S
C1404 C1406 1.419 . S
C1405 C1400 1.425 . S
C1405 C1402 1.409 . S
C1405 C1403 1.415 . S
C1406 H1396 0.930 . S
C1406 C1404 1.419 . S
C1406 C1407 1.362 . S
C1407 H1397 0.930 . S
C1407 C1400 1.409 . S
C1407 C1406 1.362 . S
H1408 C1414 0.930 . S
H1409 C1417 0.930 . S
H1410 C1418 0.930 . S
H1411 C1419 0.930 . S
H1412 C1422 0.930 . S
H1413 C1423 0.930 . S
C1414 H1408 0.930 . S
C1414 C1415 1.355 . S
C1414 C1416 1.415 . S
C1415 C1414 1.355 . S
C1415 C1417 1.419 . S
C1416 C1414 1.415 . S
C1416 C1421 1.425 . S
C1416 C1423 1.409 . S
C1417 H1409 0.930 . S
C1417 C1415 1.419 . S
C1417 C1418 1.362 . S
C1418 H1410 0.930 . S
C1418 C1417 1.362 . S
C1418 C1421 1.409 . S
C1419 H1411 0.930 . S
C1419 C1420 1.355 . S
C1419 C1421 1.415 . S
C1420 C1419 1.355 . S
C1420 C1422 1.419 . S
C1421 C1416 1.425 . S
C1421 C1418 1.409 . S
C1421 C1419 1.415 . S
C1422 H1412 0.930 . S
C1422 C1420 1.419 . S
C1422 C1423 1.362 . S
C1423 H1413 0.930 . S
C1423 C1416 1.409 . S
C1423 C1422 1.362 . S
H1424 C1430 0.930 . S
H1425 C1433 0.930 . S
H1426 C1434 0.930 . S
H1427 C1435 0.930 . S
H1428 C1438 0.930 . S
H1429 C1439 0.930 . S
C1430 H1424 0.930 . S
C1430 C1431 1.355 . S
C1430 C1432 1.415 . S
C1431 C1430 1.355 . S
C1431 C1433 1.419 . S
C1432 C1430 1.415 . S
C1432 C1437 1.425 . S
C1432 C1439 1.409 . S
C1433 H1425 0.930 . S
C1433 C1431 1.419 . S
C1433 C1434 1.362 . S
C1434 H1426 0.930 . S
C1434 C1433 1.362 . S
C1434 C1437 1.409 . S
C1435 H1427 0.930 . S
C1435 C1436 1.355 . S
C1435 C1437 1.415 . S
C1436 C1435 1.355 . S
C1436 C1438 1.419 . S
C1437 C1432 1.425 . S
C1437 C1434 1.409 . S
C1437 C1435 1.415 . S
C1438 H1428 0.930 . S
C1438 C1436 1.419 . S
C1438 C1439 1.362 . S
C1439 H1429 0.930 . S
C1439 C1432 1.409 . S
C1439 C1438 1.362 . S
H1440 C1446 0.930 . S
H1441 C1449 0.930 . S
H1442 C1450 0.930 . S
H1443 C1451 0.930 . S
H1444 C1454 0.930 . S
H1445 C1455 0.930 . S
C1446 H1440 0.930 . S
C1446 C1447 1.355 . S
C1446 C1448 1.415 . S
C1447 C1446 1.355 . S
C1447 C1449 1.419 . S
C1448 C1446 1.415 . S
C1448 C1453 1.425 . S
C1448 C1455 1.409 . S
C1449 H1441 0.930 . S
C1449 C1447 1.419 . S
C1449 C1450 1.362 . S
C1450 H1442 0.930 . S
C1450 C1449 1.362 . S
C1450 C1453 1.409 . S
C1451 H1443 0.930 . S
C1451 C1452 1.355 . S
C1451 C1453 1.415 . S
C1452 C1451 1.355 . S
C1452 C1454 1.419 . S
C1453 C1448 1.425 . S
C1453 C1450 1.409 . S
C1453 C1451 1.415 . S
C1454 H1444 0.930 . S
C1454 C1452 1.419 . S
C1454 C1455 1.362 . S
C1455 H1445 0.930 . S
C1455 C1448 1.409 . S
C1455 C1454 1.362 . S
H1456 C1462 0.930 . S
H1457 C1465 0.930 . S
H1458 C1466 0.930 . S
H1459 C1467 0.930 . S
H1460 C1470 0.930 . S
H1461 C1471 0.930 . S
C1462 H1456 0.930 . S
C1462 C1463 1.355 . S
C1462 C1464 1.415 . S
C1463 C1462 1.355 . S
C1463 C1465 1.419 . S
C1464 C1462 1.415 . S
C1464 C1469 1.425 . S
C1464 C1471 1.409 . S
C1465 H1457 0.930 . S
C1465 C1463 1.419 . S
C1465 C1466 1.362 . S
C1466 H1458 0.930 . S
C1466 C1465 1.362 . S
C1466 C1469 1.409 . S
C1467 H1459 0.930 . S
C1467 C1468 1.355 . S
C1467 C1469 1.415 . S
C1468 C1467 1.355 . S
C1468 C1470 1.419 . S
C1469 C1464 1.425 . S
C1469 C1466 1.409 . S
C1469 C1467 1.415 . S
C1470 H1460 0.930 . S
C1470 C1468 1.419 . S
C1470 C1471 1.362 . S
C1471 H1461 0.930 . S
C1471 C1464 1.409 . S
C1471 C1470 1.362 . S
C455 C93 1.524 . S
C460 C9 1.546 . S
C471 C23 1.491 . S
C476 C107 1.528 . S
C487 C65 1.521 . S
C492 C37 1.546 . S
C503 C51 1.501 . S
C508 C79 1.541 . S
C519 C205 1.489 . S
C524 C121 1.519 . S
C535 C219 1.490 . S
C540 C135 1.526 . S
C551 C149 1.493 . S
C556 C177 1.502 . S
C567 C163 1.518 . S
C572 C191 1.546 . S
C583 C233 1.490 . S
C588 C317 1.525 . S
C599 C247 1.489 . S
C604 C331 1.520 . S
C615 C289 1.545 . S
C620 C261 1.527 . S
C631 C303 1.496 . S
C636 C275 1.498 . S
C647 C345 1.544 . S
C652 C429 1.531 . S
C663 C443 1.502 . S
C668 C359 1.541 . S
C679 C401 1.527 . S
C684 C373 1.491 . S
C695 C387 1.527 . S
C700 C415 1.545 . S
C711 C7 1.347 . S
C716 C428 1.310 . S
C727 C218 1.318 . S
C732 C21 1.299 . S
C743 C35 1.283 . S
C748 C400 1.330 . S
C759 C49 1.340 . S
C764 C190 1.346 . S
C775 C372 1.360 . S
C780 C63 1.320 . S
C791 C162 1.326 . S
C796 C77 1.353 . S
C807 C91 1.278 . S
C812 C344 1.361 . S
C823 C134 1.314 . S
C828 C105 1.351 . S
C839 C119 1.286 . S
C844 C316 1.365 . S
C855 C106 1.346 . S
C860 C133 1.274 . S
C871 C147 1.352 . S
C876 C288 1.317 . S
C887 C161 1.353 . S
C892 C78 1.318 . S
C903 C260 1.337 . S
C908 C175 1.349 . S
C919 C189 1.292 . S
C924 C50 1.322 . S
C935 C203 1.283 . S
C940 C232 1.364 . S
C951 C22 1.309 . S
C956 C217 1.320 . S
C967 C231 1.316 . S
C972 C204 1.362 . S
C983 C245 1.353 . S
C988 C442 1.322 . S
C999 C176 1.329 . S
C1004 C259 1.284 . S
C1015 C273 1.311 . S
C1020 C414 1.363 . S
C1031 C148 1.317 . S
C1036 C287 1.299 . S
C1047 C386 1.325 . S
C1052 C301 1.353 . S
C1063 C120 1.362 . S
C1068 C315 1.279 . S
C1079 C358 1.330 . S
C1084 C329 1.352 . S
C1095 C343 1.310 . S
C1100 C92 1.312 . S
C1111 C330 1.343 . S
C1116 C357 1.343 . S
C1127 C64 1.315 . S
C1132 C371 1.351 . S
C1143 C385 1.293 . S
C1148 C302 1.322 . S
C1159 C399 1.314 . S
C1164 C36 1.362 . S
C1175 C413 1.282 . S
C1180 C274 1.331 . S
C1191 C8 1.333 . S
C1196 C427 1.281 . S
C1207 C441 1.353 . S
C1212 C246 1.324 . S
C1223 C6 1.454 . S
C1228 C300 1.501 . S
C1239 C314 1.515 . S
C1244 C20 1.473 . S
C1255 C34 1.462 . S
C1260 C328 1.509 . S
C1271 C286 1.459 . S
C1276 C48 1.506 . S
C1287 C272 1.517 . S
C1292 C62 1.484 . S
C1303 C230 1.451 . S
C1308 C76 1.471 . S
C1319 C244 1.483 . S
C1324 C90 1.517 . S
C1335 C258 1.488 . S
C1340 C104 1.449 . S
C1351 C118 1.451 . S
C1356 C412 1.470 . S
C1367 C426 1.486 . S
C1372 C132 1.449 . S
C1383 C440 1.496 . S
C1388 C146 1.515 . S
C1399 C398 1.481 . S
C1404 C160 1.449 . S
C1415 C384 1.487 . S
C1420 C174 1.449 . S
C1431 C342 1.515 . S
C1436 C188 1.473 . S
C1447 C202 1.449 . S
C1452 C356 1.482 . S
C1463 C216 1.516 . S
C1468 C370 1.474 . S
