# Generated by pormake.
# Topology sxb, (6)-cn, num edge types: 1
# Building blocks:
#     Node 0, Type 0, BuildingBlock: JUFBIX_clean_sbu_0, # of connection points: 6
#     Node 1, Type 0, BuildingBlock: JUFBIX_clean_sbu_0, # of connection points: 6
#     Node 2, Type 0, BuildingBlock: JUFBIX_clean_sbu_0, # of connection points: 6
#     Node 3, Type 0, BuildingBlock: JUFBIX_clean_sbu_0, # of connection points: 6
#     Edge 4, Type (0, 0), BuildingBlock: FUNLAD_clean_linker_1, # of connection points: 2
#     Edge 5, Type (0, 0), BuildingBlock: FUNLAD_clean_linker_1, # of connection points: 2
#     Edge 6, Type (0, 0), BuildingBlock: FUNLAD_clean_linker_1, # of connection points: 2
#     Edge 7, Type (0, 0), BuildingBlock: FUNLAD_clean_linker_1, # of connection points: 2
#     Edge 8, Type (0, 0), BuildingBlock: FUNLAD_clean_linker_1, # of connection points: 2
#     Edge 9, Type (0, 0), BuildingBlock: FUNLAD_clean_linker_1, # of connection points: 2
#     Edge 10, Type (0, 0), BuildingBlock: FUNLAD_clean_linker_1, # of connection points: 2
#     Edge 11, Type (0, 0), BuildingBlock: FUNLAD_clean_linker_1, # of connection points: 2
#     Edge 12, Type (0, 0), BuildingBlock: FUNLAD_clean_linker_1, # of connection points: 2
#     Edge 13, Type (0, 0), BuildingBlock: FUNLAD_clean_linker_1, # of connection points: 2
#     Edge 14, Type (0, 0), BuildingBlock: FUNLAD_clean_linker_1, # of connection points: 2
#     Edge 15, Type (0, 0), BuildingBlock: FUNLAD_clean_linker_1, # of connection points: 2
# Relax obj value: 0.057
# Max RMSD: 0.079
# Mean RMSD: 0.079
data_MOF--net-sxb--node1-JUFBIX_clean_sbu_0--edge1-FUNLAD_clean_linker_1
_symmetry_space_group_name_H-M    P1
_symmetry_Int_Tables_number       1
_symmetry_cell_setting            triclinic
loop_
_symmetry_equiv_pos_as_xyz
'x, y, z'
_cell_length_a     14.919647
_cell_length_b     38.493231
_cell_length_c     30.748323
_cell_angle_alpha  90.218378
_cell_angle_beta   94.877331
_cell_angle_gamma 89.564576
loop_
_atom_site_label
_atom_site_type_symbol
_atom_site_fract_x
_atom_site_fract_y
_atom_site_fract_z
_atom_type_partial_charge
Co0 Co 0.00413 0.99603 0.01852 0.0
C1 C 0.97868 0.03454 0.09319 0.0
Co2 Co 0.9695 0.05194 1.00537 0.0
C3 C 0.09545 0.92882 1.01016 0.0
C4 C 0.00096 0.92836 0.05869 0.0
N5 N 0.03544 0.94924 0.02929 0.0
N6 N 0.09979 0.89617 0.0265 0.0
C7 C 0.04011 0.89588 0.0571 0.0
H8 H 0.13526 0.93772 0.9846 0.0
H9 H 0.94998 0.93619 0.07981 0.0
C10 C -0.00465 1.01389 0.93063 0.0
N11 N 0.93793 0.09863 0.99464 0.0
C12 C 0.87275 0.11792 0.01151 0.0
C13 C 0.97625 0.12048 0.96763 0.0
N14 N 0.86909 0.15088 0.99623 0.0
C15 C 0.93434 0.1525 0.9685 0.0
C16 C 0.15052 0.03915 0.02037 0.0
O17 O 0.01075 0.98893 0.95729 0.0
O18 O 0.97599 0.04389 0.94478 0.0
O19 O 0.09342 0.0633 1.01144 0.0
O20 O 0.12471 1.00805 0.0243 0.0
O21 O 0.96232 0.05914 0.06616 0.0
H22 H 0.03116 0.11354 0.94838 0.0
H23 H 0.82871 0.10799 0.03471 0.0
O24 O -0.00151 1.00441 0.0795 0.0
O25 O 0.88054 0.98465 0.01288 0.0
O26 O 0.84863 0.03973 0.99932 0.0
C27 C 0.82315 1.00864 1.0038 0.0
H28 H 0.02442 0.87382 0.07667 0.0
H29 H 0.95082 0.17497 0.94984 0.0
Co30 Co 0.98033 1.00866 0.50268 0.0
C31 C 0.01473 0.05169 0.43261 0.0
Co32 Co 0.0167 0.06344 0.52099 0.0
C33 C 0.92877 0.93502 0.50651 0.0
C34 C 0.89954 0.95752 0.44345 0.0
N35 N 0.93903 0.96458 0.48367 0.0
N36 N 0.88418 0.91023 0.48219 0.0
C37 C 0.86652 0.92434 0.44235 0.0
H38 H 0.95 0.93211 0.54085 0.0
H39 H 0.89089 0.97577 0.41681 0.0
C40 C 0.98181 1.02003 0.59091 0.0
N41 N 0.05786 0.1077 0.53988 0.0
C42 C 0.07031 0.13692 0.51667 0.0
C43 C 0.09406 0.11537 0.58055 0.0
N44 N 0.1129 0.1621 0.54118 0.0
C45 C 0.12727 0.14855 0.5815 0.0
C46 C 0.83653 0.05576 0.50398 0.0
O47 O 0.96683 0.99677 0.56189 0.0
O48 O 0.00378 0.05035 0.57983 0.0
O49 O 0.89475 0.07877 0.51549 0.0
O50 O 0.86149 1.02475 0.49702 0.0
O51 O 0.02965 0.07528 0.46129 0.0
H52 H 0.1001 0.09759 0.60775 0.0
H53 H 0.05175 0.13936 0.48201 0.0
O54 O -0.00646 1.02148 0.44429 0.0
O55 O 0.10224 0.99329 0.50838 0.0
O56 O 0.13559 0.04739 0.52651 0.0
C57 C 0.16049 1.01633 0.51974 0.0
H58 H 0.83003 0.91222 0.41451 0.0
H59 H 0.16172 0.16103 0.60964 0.0
Co60 Co 0.46915 0.49164 0.01648 0.0
C61 C 0.45178 0.53078 0.09069 0.0
Co62 Co 0.46836 0.54886 1.00364 0.0
C63 C 0.53671 0.42108 1.01087 0.0
C64 C 0.4244 0.4236 0.04959 0.0
N65 N 0.47569 0.44347 0.0257 0.0
N66 N 0.52607 0.38817 0.0246 0.0
C67 C 0.45507 0.38963 0.04898 0.0
H68 H 0.58902 0.42886 0.99066 0.0
H69 H 0.3689 0.43325 0.06676 0.0
C70 C 0.48529 0.50921 0.92942 0.0
N71 N 0.46236 0.5971 0.99417 0.0
C72 C 0.40458 0.62029 1.01015 0.0
C73 C 0.51207 0.61619 0.96861 0.0
N74 N 0.41567 0.65291 0.9954 0.0
C75 C 0.48364 0.65042 0.96926 0.0
C76 C 0.63656 0.52221 0.02514 0.0
O77 O 0.47983 0.48426 0.95598 0.0
O78 O 0.48304 0.54043 0.94327 0.0
O79 O 0.59477 0.55048 0.01566 0.0
O80 O 0.594 0.49397 0.02676 0.0
O81 O 0.45272 0.55608 0.06421 0.0
H82 H 0.56522 0.60584 0.9504 0.0
H83 H 0.35415 0.61328 0.03182 0.0
O84 O 0.45892 0.49978 0.07681 0.0
O85 O 0.34214 0.49038 1.0062 0.0
O86 O 0.34406 0.54638 0.99155 0.0
C87 C 0.30094 0.51843 0.99484 0.0
H88 H 0.42725 0.36796 0.06548 0.0
H89 H 0.51145 0.67166 0.95196 0.0
Co90 Co 0.48028 0.50871 0.50888 0.0
C91 C 0.49715 0.54688 0.43064 0.0
Co92 Co 0.51591 0.56486 0.51603 0.0
C93 C 0.4348 0.43443 0.51963 0.0
C94 C 0.3755 0.45753 0.46086 0.0
N95 N 0.43246 0.46433 0.49635 0.0
N96 N 0.38219 0.40946 0.49973 0.0
C97 C 0.34497 0.42414 0.46274 0.0
H98 H 0.47171 0.43136 0.55126 0.0
H99 H 0.3535 0.47619 0.43595 0.0
C100 C 0.49895 0.52743 0.59439 0.0
N101 N 0.56333 0.60909 0.52889 0.0
C102 C 0.56007 0.6392 0.50606 0.0
C103 C 0.6213 0.61557 0.56409 0.0
N104 N 0.61338 0.66396 0.52588 0.0
C105 C 0.65176 0.64897 0.56244 0.0
C106 C 0.33803 0.55734 0.5124 0.0
O107 O 0.48299 0.50077 0.57042 0.0
O108 O 0.51339 0.55639 0.57682 0.0
O109 O 0.39586 0.58151 0.51422 0.0
O110 O 0.36288 0.52584 0.50949 0.0
O111 O 0.51801 0.57256 0.45537 0.0
H112 H 0.64382 0.59665 0.58861 0.0
H113 H 0.52211 0.64252 0.47473 0.0
O114 O 0.47842 0.5179 0.44732 0.0
O115 O 0.60002 0.49215 0.50885 0.0
O116 O 0.63357 0.54756 0.51729 0.0
C117 C 0.65816 0.51618 0.51273 0.0
H118 H 0.29568 0.41242 0.43947 0.0
H119 H 0.70144 0.66051 0.58565 0.0
H120 H 0.32009 0.68134 0.03259 0.0
C121 C 0.36416 0.68336 1.00633 0.0
H122 H 0.41043 0.71633 0.95838 0.0
H123 H 0.03312 0.79646 1.00909 0.0
H124 H 0.9553 0.74414 0.98408 0.0
H125 H 0.0397 0.69248 0.96239 0.0
H126 H 0.20227 0.69263 0.9661 0.0
C127 C 0.36652 0.71376 0.98451 0.0
C128 C 0.31362 0.74547 0.99609 0.0
C129 C 0.21799 0.74533 0.99278 0.0
C130 C 0.169 0.77555 1.0043 0.0
C131 C 0.07376 0.77434 1.00101 0.0
C132 C 0.0281 0.74451 0.98645 0.0
C133 C 0.07562 0.71542 0.97431 0.0
C134 C 0.16926 0.71575 0.97706 0.0
H135 H 0.19264 0.87161 0.98402 0.0
C136 C 0.15521 0.8678 0.01243 0.0
H137 H 0.1244 0.83244 0.06132 0.0
H138 H 0.4955 0.75586 1.00401 0.0
H139 H 0.57287 0.80887 0.02656 0.0
H140 H 0.48818 0.86099 0.04642 0.0
H141 H 0.3257 0.8605 0.0438 0.0
C142 C 0.16226 0.8369 0.03332 0.0
C143 C 0.21494 0.80645 0.01792 0.0
C144 C 0.3104 0.80699 0.01988 0.0
C145 C 0.3595 0.77664 1.00877 0.0
C146 C 0.45468 0.77805 0.0116 0.0
C147 C 0.50011 0.8083 0.02471 0.0
C148 C 0.45243 0.83766 0.03588 0.0
C149 C 0.35886 0.83707 0.03392 0.0
H150 H 0.63577 0.36269 0.99367 0.0
C151 C 0.58185 0.35864 0.01474 0.0
H152 H 0.51931 0.32189 0.05296 0.0
H153 H 0.72813 0.21892 0.91821 0.0
H154 H 0.6277 0.24401 0.86042 0.0
H155 H 0.52583 0.29249 0.87555 0.0
H156 H 0.52418 0.3164 0.94844 0.0
C157 C 0.5704 0.32643 0.03062 0.0
C158 C 0.63081 0.29642 0.02107 0.0
C159 C 0.63031 0.28233 0.97829 0.0
C160 C 0.68832 0.2539 0.96967 0.0
C161 C 0.68614 0.24056 0.9266 0.0
C162 C 0.62847 0.25461 0.89311 0.0
C163 C 0.57117 0.28193 0.90163 0.0
C164 C 0.57143 0.29559 0.94364 0.0
H165 H 0.75499 0.17132 0.02895 0.0
C166 C 0.80695 0.17791 1.00771 0.0
H167 H 0.86147 0.21795 0.9714 0.0
H168 H 0.64674 0.31584 0.10697 0.0
H169 H 0.74619 0.29042 0.1649 0.0
H170 H 0.84809 0.24194 0.1498 0.0
H171 H 0.8508 0.21837 0.07683 0.0
C172 C 0.81153 0.21097 0.99338 0.0
C173 C 0.74598 0.23897 1.00386 0.0
C174 C 0.7454 0.25268 0.0468 0.0
C175 C 0.68732 0.28112 0.05542 0.0
C176 C 0.6889 0.29426 0.09856 0.0
C177 C 0.74594 0.28 0.13214 0.0
C178 C 0.80326 0.25268 0.12365 0.0
C179 C 0.80368 0.23922 0.08155 0.0
H180 H 0.12468 0.2023 0.49191 0.0
C181 C 0.14225 0.19529 0.52579 0.0
H182 H 0.2093 0.21146 0.58586 0.0
H183 H 0.41451 0.31192 0.45208 0.0
H184 H 0.47473 0.25851 0.42373 0.0
H185 H 0.42275 0.20152 0.4474 0.0
H186 H 0.30966 0.19747 0.49918 0.0
C187 C 0.19247 0.21741 0.55173 0.0
C188 C 0.22329 0.25175 0.53626 0.0
C189 C 0.29033 0.25364 0.50627 0.0
C190 C 0.32139 0.2866 0.49309 0.0
C191 C 0.38816 0.28765 0.46302 0.0
C192 C 0.42362 0.25719 0.44663 0.0
C193 C 0.3943 0.22509 0.45994 0.0
C194 C 0.32883 0.22316 0.48953 0.0
H195 H 0.38629 0.36954 0.55046 0.0
C196 C 0.36255 0.37566 0.51695 0.0
H197 H 0.29298 0.35684 0.45886 0.0
H198 H 0.09633 0.25753 0.59508 0.0
H199 H 0.03639 0.3109 0.62353 0.0
H200 H 0.08828 0.36791 0.59981 0.0
H201 H 0.20095 0.37196 0.54793 0.0
C202 C 0.31329 0.35198 0.49298 0.0
C203 C 0.28673 0.31769 0.51039 0.0
C204 C 0.22029 0.31579 0.5407 0.0
C205 C 0.18927 0.28283 0.55391 0.0
C206 C 0.12265 0.28178 0.58407 0.0
C207 C 0.08734 0.31223 0.60054 0.0
C208 C 0.11661 0.34433 0.58722 0.0
C209 C 0.18186 0.34626 0.55752 0.0
H210 H 0.87919 0.86873 0.53029 0.0
C211 C 0.85594 0.87687 0.49741 0.0
H212 H 0.77633 0.86329 0.4396 0.0
H213 H 0.78415 0.70166 0.47005 0.0
H214 H 0.88337 0.70662 0.41213 0.0
H215 H 0.93162 0.76401 0.38791 0.0
H216 H 0.88157 0.81682 0.42188 0.0
C217 C 0.79966 0.85605 0.47267 0.0
C218 C 0.77019 0.82152 0.48794 0.0
C219 C 0.79821 0.79083 0.46709 0.0
C220 C 0.76906 0.75769 0.48057 0.0
C221 C 0.8018 0.72753 0.46043 0.0
C222 C 0.8594 0.72997 0.42724 0.0
C223 C 0.88663 0.76228 0.41363 0.0
C224 C 0.85704 0.79241 0.43333 0.0
H225 H 0.60322 0.70488 0.4764 0.0
C226 C 0.63191 0.69793 0.50891 0.0
H227 H 0.71215 0.71505 0.56488 0.0
H228 H 0.69557 0.8752 0.53169 0.0
H229 H 0.59516 0.87032 0.58926 0.0
H230 H 0.5464 0.81296 0.61332 0.0
H231 H 0.59709 0.76008 0.57963 0.0
C232 C 0.68603 0.72075 0.53171 0.0
C233 C 0.71026 0.7553 0.51438 0.0
C234 C 0.68124 0.78605 0.53479 0.0
C235 C 0.71052 0.81917 0.52135 0.0
C236 C 0.67761 0.84937 0.54134 0.0
C237 C 0.61939 0.84697 0.57428 0.0
C238 C 0.59188 0.81467 0.58781 0.0
C239 C 0.62187 0.7845 0.56831 0.0
H240 H 0.2695 0.06876 1.00531 0.0
C241 C 0.24678 0.04613 0.02222 0.0
H242 H 0.2827 0.99992 0.05636 0.0
H243 H 0.6066 0.97063 0.94365 0.0
H244 H 0.50621 0.92296 0.92299 0.0
H245 H 0.3554 0.92023 0.95006 0.0
H246 H 0.30403 0.96517 0.99741 0.0
C247 C 0.30585 1.02258 0.03962 0.0
C248 C 0.39957 1.02251 0.02799 0.0
C249 C 0.42851 0.99551 1.00081 0.0
C250 C 0.51564 0.99671 0.98584 0.0
C251 C 0.542 0.97035 0.95715 0.0
C252 C 0.48474 0.94299 0.94471 0.0
C253 C 0.39983 0.94148 0.95988 0.0
C254 C 0.37135 0.96749 0.98726 0.0
H255 H 0.70569 0.9786 0.01983 0.0
C256 C 0.72711 1.00145 1.00291 0.0
H257 H 0.68859 0.04787 0.96989 0.0
H258 H 0.36677 0.07601 0.08371 0.0
H259 H 0.46814 0.12312 0.10555 0.0
H260 H 0.61952 0.12563 0.07905 0.0
H261 H 0.67027 0.08109 0.03093 0.0
C262 C 0.66679 1.0249 0.98646 0.0
C263 C 0.57373 1.02441 0.99907 0.0
C264 C 0.54514 0.05116 0.02671 0.0
C265 C 0.4579 0.05002 0.04154 0.0
C266 C 0.43163 0.07623 0.07045 0.0
C267 C 0.48942 0.10326 0.08354 0.0
C268 C 0.57462 0.10465 0.06868 0.0
C269 C 0.60275 0.0789 0.04085 0.0
H270 H 0.27948 0.98708 0.50116 0.0
C271 C 0.25728 1.00894 0.52008 0.0
H272 H 0.29376 0.05393 0.55658 0.0
H273 H 0.6936 0.98304 0.52826 0.0
H274 H 0.64894 0.93453 0.57105 0.0
H275 H 0.49491 0.93098 0.59416 0.0
H276 H 0.38473 0.9761 0.57444 0.0
C277 C 0.31688 0.03202 0.53796 0.0
C278 C 0.40992 0.03368 0.52485 0.0
C279 C 0.4733 1.00715 0.53691 0.0
C280 C 0.56206 1.00937 0.52383 0.0
C281 C 0.62472 0.98265 0.53673 0.0
C282 C 0.60014 0.95463 0.56154 0.0
C283 C 0.51346 0.95265 0.57454 0.0
C284 C 0.45067 0.97863 0.56272 0.0
H285 H 0.71755 0.08498 0.52264 0.0
C286 C 0.73973 0.06311 0.50373 0.0
H287 H 0.70322 1.01803 0.46741 0.0
H288 H 0.30359 0.08907 0.49592 0.0
H289 H 0.3483 0.1376 0.45315 0.0
H290 H 0.50217 0.14099 0.42979 0.0
H291 H 0.61222 0.09583 0.44942 0.0
C292 C 0.68013 0.03996 0.48598 0.0
C293 C 0.58713 0.03832 0.49914 0.0
C294 C 0.52375 0.06485 0.48707 0.0
C295 C 0.43501 0.06265 0.5002 0.0
C296 C 0.37243 0.08941 0.48738 0.0
C297 C 0.39702 0.11743 0.46257 0.0
C298 C 0.48361 0.11935 0.44945 0.0
C299 C 0.54634 0.09334 0.46122 0.0
H300 H 0.76439 0.4966 0.0447 0.0
C301 C 0.73431 0.52062 0.03154 0.0
H302 H 0.75804 0.5678 0.99963 0.0
H303 H 0.15283 0.50377 0.08727 0.0
H304 H 0.10495 0.5247 0.15619 0.0
H305 H 0.9547 0.55124 0.16008 0.0
H306 H 0.85168 0.5571 0.09486 0.0
C307 C 0.78669 0.54476 0.01593 0.0
C308 C 0.88209 0.53572 0.01246 0.0
C309 C 0.94136 0.53273 0.05074 0.0
C310 C 0.0278 0.5177 0.0484 0.0
C311 C 0.08616 0.51504 0.08712 0.0
C312 C 0.05952 0.52694 0.12693 0.0
C313 C 0.97491 0.54183 0.12913 0.0
C314 C 0.91627 0.54483 0.09156 0.0
H315 H 0.17384 0.54416 0.97419 0.0
C316 C 0.2032 0.52027 0.98814 0.0
H317 H 0.17792 0.47385 0.02127 0.0
H318 H 0.78476 0.53908 0.93272 0.0
H319 H 0.83296 0.51867 0.86365 0.0
H320 H 0.98257 0.49158 0.85974 0.0
H321 H 0.08511 0.48506 0.92505 0.0
C322 C 0.14997 0.4967 1.00428 0.0
C323 C 0.05486 0.50634 1.00759 0.0
C324 C -0.00433 0.50949 0.96926 0.0
C325 C 0.90932 0.52461 0.97161 0.0
C326 C 0.85123 0.52762 0.93285 0.0
C327 C 0.87801 0.51598 0.89296 0.0
C328 C 0.96233 0.50084 0.89075 0.0
C329 C 0.02071 0.49747 0.92838 0.0
H330 H 0.2118 0.58745 0.49841 0.0
C331 C 0.24187 0.56443 0.51413 0.0
H332 H 0.22323 0.51764 0.54757 0.0
H333 H 0.81432 0.58789 0.54262 0.0
H334 H 0.88123 0.63474 0.58651 0.0
H335 H 0.04579 0.6379 0.60283 0.0
H336 H 0.14414 0.59427 0.57491 0.0
C337 C 0.19128 0.54026 0.53155 0.0
C338 C 0.09271 0.539 0.52224 0.0
C339 C 0.03662 0.56458 0.53924 0.0
C340 C 0.942 0.56247 0.5302 0.0
C341 C 0.88691 0.58826 0.54786 0.0
C342 C 0.92439 0.61528 0.57341 0.0
C343 C 0.01698 0.61707 0.58257 0.0
C344 C 0.07274 0.59196 0.56604 0.0
H345 H 0.78387 0.48574 0.52662 0.0
C346 C 0.75439 0.50907 0.51142 0.0
H347 H 0.77409 0.55642 0.47951 0.0
H348 H 0.18264 0.48542 0.48483 0.0
H349 H 0.11584 0.43853 0.44098 0.0
H350 H 0.95137 0.4355 0.42428 0.0
H351 H 0.853 0.47928 0.45181 0.0
C352 C 0.80564 0.53351 0.495 0.0
C353 C 0.9042 0.53454 0.50467 0.0
C354 C 0.96033 0.50892 0.48774 0.0
C355 C 0.05493 0.51099 0.49687 0.0
C356 C 0.11007 0.48511 0.47942 0.0
C357 C 0.07266 0.45806 0.4539 0.0
C358 C 0.98011 0.45635 0.44455 0.0
C359 C 0.92432 0.48154 0.46088 0.0
H360 H 0.07978 0.07465 0.37745 0.0
C361 C 0.02538 0.05814 0.38611 0.0
H362 H 0.9183 1.02546 0.36506 0.0
H363 H 0.05473 0.09386 0.18063 0.0
H364 H 0.03463 0.15095 0.21203 0.0
H365 H -0.01197 0.15741 0.28674 0.0
H366 H 0.96505 0.10687 0.33101 0.0
C367 C 0.97275 0.04144 0.35513 0.0
C368 C -0.00678 0.03874 0.30852 0.0
C369 C -0.00073 0.06862 0.28203 0.0
C370 C 0.01811 0.06486 0.23757 0.0
C371 C 0.0337 0.09514 0.21339 0.0
C372 C 0.02342 0.1281 0.2312 0.0
C373 C -0.00225 0.13174 0.27335 0.0
C374 C 0.98565 0.10245 0.2986 0.0
H375 H 0.92068 0.05893 0.14944 0.0
C376 C 0.97243 0.04108 0.14002 0.0
H377 H 0.08308 1.00938 0.16057 0.0
H378 H -0.00357 0.97591 0.35088 0.0
H379 H 0.00547 0.91902 0.31802 0.0
H380 H 0.01863 0.91247 0.23901 0.0
H381 H 0.02467 0.96279 0.19266 0.0
C382 C 0.03062 1.02665 0.17062 0.0
C383 C 0.02143 0.03124 0.21838 0.0
C384 C 0.01486 1.00139 0.24484 0.0
C385 C 0.00314 1.00516 0.29007 0.0
C386 C 0.00153 0.9748 0.31603 0.0
C387 C 0.00732 0.94184 0.29765 0.0
C388 C 0.01502 0.93816 0.25323 0.0
C389 C 0.01878 0.96742 0.22699 0.0
H390 H 0.05483 0.99014 0.87423 0.0
C391 C 0.00437 1.00852 0.88374 0.0
H392 H 0.90231 0.04422 0.86356 0.0
H393 H 0.01521 0.0924 0.68402 0.0
H394 H 0.01202 0.14588 0.72517 0.0
H395 H -0.00627 0.14527 0.8041 0.0
H396 H 0.97641 0.09123 0.84203 0.0
C397 C 0.95314 1.02632 0.85323 0.0
C398 C 0.96978 1.02571 0.80594 0.0
C399 C 0.98398 0.0576 0.78456 0.0
C400 C -0.00098 0.05784 0.73946 0.0
C401 C 0.00729 0.09032 0.71853 0.0
C402 C 0.00503 0.12139 0.74173 0.0
C403 C -0.00557 0.12106 0.7861 0.0
C404 C 0.98403 0.0897 0.80742 0.0
H405 H 0.91483 0.99604 0.64454 0.0
C406 C 0.96993 1.01266 0.63702 0.0
H407 H 0.07935 0.04328 0.66056 0.0
H408 H 0.92555 0.96058 0.83306 0.0
H409 H 0.94366 0.90649 0.79413 0.0
H410 H -0.00143 0.90618 0.72067 0.0
H411 H 0.03153 0.96006 0.68505 0.0
C412 C 0.02397 1.02721 0.6692 0.0
C413 C 0.00522 1.02606 0.71619 0.0
C414 C -0.00545 0.99408 0.73803 0.0
C415 C 0.9716 0.99403 0.78209 0.0
C416 C 0.9502 0.962 0.80108 0.0
C417 C 0.95929 0.93075 0.77887 0.0
C418 C -0.01043 0.93059 0.73741 0.0
C419 C 0.00722 0.96179 0.7171 0.0
H420 H 0.55362 0.56521 0.37094 0.0
C421 C 0.50039 0.54981 0.38304 0.0
H422 H 0.38783 0.51829 0.36818 0.0
H423 H 0.52552 0.5865 0.1819 0.0
H424 H 0.51451 0.64326 0.21532 0.0
H425 H 0.46472 0.64948 0.28946 0.0
H426 H 0.43049 0.59878 0.33132 0.0
C427 C 0.44118 0.53304 0.35508 0.0
C428 C 0.45108 0.53059 0.30708 0.0
C429 C 0.46111 0.56074 0.28143 0.0
C430 C 0.47983 0.55741 0.23691 0.0
C431 C 0.50279 0.58764 0.21431 0.0
C432 C 0.49795 0.62041 0.23335 0.0
C433 C 0.47063 0.6239 0.27519 0.0
C434 C 0.45229 0.59451 0.29909 0.0
H435 H 0.39323 0.55746 0.14535 0.0
C436 C 0.44074 0.53746 0.13713 0.0
H437 H 0.53794 0.5006 0.15965 0.0
H438 H 0.4381 0.46687 0.34629 0.0
H439 H 0.43133 0.4109 0.31055 0.0
H440 H 0.44044 0.40593 0.23109 0.0
H441 H 0.45866 0.45688 0.18715 0.0
C442 C 0.48978 0.52008 0.16882 0.0
C443 C 0.47636 0.52424 0.2163 0.0
C444 C 0.46106 0.49426 0.24135 0.0
C445 C 0.45124 0.49731 0.28689 0.0
C446 C 0.44228 0.46653 0.31137 0.0
C447 C 0.43879 0.43404 0.2913 0.0
C448 C 0.44422 0.43122 0.24662 0.0
C449 C 0.45521 0.46081 0.2218 0.0
H450 H 0.50832 0.55128 0.65936 0.0
C451 C 0.49844 0.52661 0.64227 0.0
H452 H 0.47729 0.47274 0.6501 0.0
H453 H 0.65075 0.49635 0.84817 0.0
H454 H 0.7732 0.46581 0.81723 0.0
H455 H 0.76422 0.45094 0.7389 0.0
H456 H 0.63238 0.46655 0.69092 0.0
C457 C 0.48505 0.49805 0.66564 0.0
C458 C 0.48321 0.50121 0.71393 0.0
C459 C 0.55914 0.49092 0.74183 0.0
C460 C 0.56346 0.49895 0.78723 0.0
C461 C 0.64242 0.48997 0.81379 0.0
C462 C 0.71363 0.47268 0.79638 0.0
C463 C 0.70864 0.46434 0.75225 0.0
C464 C 0.63267 0.47345 0.72508 0.0
H465 H 0.49037 0.47395 0.87304 0.0
C466 C 0.49115 0.50114 0.88277 0.0
H467 H 0.49155 0.55305 0.86103 0.0
H468 H 0.32349 0.52072 0.67035 0.0
H469 H 0.19859 0.5498 0.70126 0.0
H470 H 0.20545 0.56369 0.77987 0.0
H471 H 0.33711 0.54866 0.82802 0.0
C472 C 0.49431 0.52574 0.8521 0.0
C473 C 0.49052 0.5165 0.8048 0.0
C474 C 0.4131 0.5256 0.77706 0.0
C475 C 0.40926 0.51777 0.73169 0.0
C476 C 0.33057 0.52668 0.70489 0.0
C477 C 0.25818 0.54317 0.72225 0.0
C478 C 0.26202 0.55098 0.76651 0.0
C479 C 0.33821 0.54228 0.79377 0.0
loop_
_geom_bond_atom_site_label_1
_geom_bond_atom_site_label_2
_geom_bond_distance
_geom_bond_site_symmetry_2
_ccdc_geom_bond_type
Co0 N5 2.057 1_556 S
Co0 O17 2.021 . S
Co0 O20 2.062 . S
Co0 O24 2.117 1_556 S
Co0 O25 2.020 1_455 S
C1 O21 1.259 1_455 S
C1 O24 1.258 1_545 S
Co2 N11 2.057 1_554 S
Co2 O18 2.117 1_554 S
Co2 O19 2.020 1_655 S
Co2 O21 2.021 . S
Co2 O26 2.062 . S
C3 N5 1.316 1_556 S
C3 N6 1.347 1_556 S
C3 H8 0.931 . S
C4 N5 1.375 . S
C4 C7 1.350 . S
C4 H9 0.930 . S
N5 Co0 2.057 1_554 S
N5 C3 1.316 1_554 S
N5 C4 1.375 . S
N6 C3 1.347 1_554 S
N6 C7 1.373 . S
C7 C4 1.350 . S
C7 N6 1.373 . S
C7 H28 0.931 . S
H8 C3 0.931 . S
H9 C4 0.930 . S
C10 O17 1.259 1_655 S
C10 O18 1.258 1_565 S
N11 Co2 2.057 1_556 S
N11 C12 1.316 1_556 S
N11 C13 1.375 . S
C12 N11 1.316 1_554 S
C12 N14 1.347 1_554 S
C12 H23 0.931 . S
C13 N11 1.375 . S
C13 C15 1.350 . S
C13 H22 0.930 . S
N14 C12 1.347 1_556 S
N14 C15 1.373 . S
C15 C13 1.350 . S
C15 N14 1.373 . S
C15 H29 0.931 . S
C16 O19 1.257 . S
C16 O20 1.254 1_544 S
O17 Co0 2.021 . S
O17 C10 1.259 1_455 S
O18 Co2 2.117 1_556 S
O18 C10 1.258 1_545 S
O19 Co2 2.020 1_455 S
O19 C16 1.257 . S
O20 Co0 2.062 . S
O20 C16 1.254 1_566 S
O21 C1 1.259 1_655 S
O21 Co2 2.021 . S
H22 C13 0.930 . S
H23 C12 0.931 . S
O24 Co0 2.117 1_554 S
O24 C1 1.258 1_565 S
O25 Co0 2.020 1_655 S
O25 C27 1.257 . S
O26 Co2 2.062 . S
O26 C27 1.254 1_544 S
C27 O25 1.257 . S
C27 O26 1.254 1_566 S
H28 C7 0.931 . S
H29 C15 0.931 . S
Co30 N35 2.057 . S
Co30 O47 2.021 . S
Co30 O50 2.062 . S
Co30 O54 2.117 . S
Co30 O55 2.020 1_655 S
C31 O51 1.259 1_655 S
C31 O54 1.258 1_545 S
Co32 N41 2.057 . S
Co32 O48 2.117 . S
Co32 O49 2.020 1_455 S
Co32 O51 2.021 . S
Co32 O56 2.062 . S
C33 N35 1.316 . S
C33 N36 1.347 . S
C33 H38 0.931 . S
C34 N35 1.375 . S
C34 C37 1.350 . S
C34 H39 0.930 . S
N35 Co30 2.057 . S
N35 C33 1.316 . S
N35 C34 1.375 . S
N36 C33 1.347 . S
N36 C37 1.373 . S
C37 C34 1.350 . S
C37 N36 1.373 . S
C37 H58 0.931 . S
H38 C33 0.931 . S
H39 C34 0.930 . S
C40 O47 1.259 1_455 S
C40 O48 1.258 1_565 S
N41 Co32 2.057 . S
N41 C42 1.316 . S
N41 C43 1.375 . S
C42 N41 1.316 . S
C42 N44 1.347 . S
C42 H53 0.931 . S
C43 N41 1.375 . S
C43 C45 1.350 . S
C43 H52 0.930 . S
N44 C42 1.347 . S
N44 C45 1.373 . S
C45 C43 1.350 . S
C45 N44 1.373 . S
C45 H59 0.931 . S
C46 O49 1.256 . S
C46 O50 1.255 1_545 S
O47 Co30 2.021 . S
O47 C40 1.259 1_655 S
O48 Co32 2.117 . S
O48 C40 1.258 1_545 S
O49 Co32 2.020 1_655 S
O49 C46 1.256 . S
O50 Co30 2.062 . S
O50 C46 1.255 1_565 S
O51 C31 1.259 1_455 S
O51 Co32 2.021 . S
H52 C43 0.930 . S
H53 C42 0.931 . S
O54 Co30 2.117 . S
O54 C31 1.258 1_565 S
O55 Co30 2.020 1_455 S
O55 C57 1.256 . S
O56 Co32 2.062 . S
O56 C57 1.255 1_545 S
C57 O55 1.256 . S
C57 O56 1.255 1_565 S
H58 C37 0.931 . S
H59 C45 0.931 . S
Co60 N65 2.057 1_556 S
Co60 O77 2.021 . S
Co60 O80 2.062 . S
Co60 O84 2.117 1_556 S
Co60 O85 2.020 . S
C61 O81 1.259 . S
C61 O84 1.258 . S
Co62 N71 2.057 1_554 S
Co62 O78 2.117 1_554 S
Co62 O79 2.020 . S
Co62 O81 2.021 . S
Co62 O86 2.062 . S
C63 N65 1.316 1_556 S
C63 N66 1.347 1_556 S
C63 H68 0.931 . S
C64 N65 1.375 . S
C64 C67 1.350 . S
C64 H69 0.930 . S
N65 Co60 2.057 1_554 S
N65 C63 1.316 1_554 S
N65 C64 1.375 . S
N66 C63 1.347 1_554 S
N66 C67 1.373 . S
C67 C64 1.350 . S
C67 N66 1.373 . S
C67 H88 0.931 . S
H68 C63 0.931 . S
H69 C64 0.930 . S
C70 O77 1.259 . S
C70 O78 1.258 . S
N71 Co62 2.057 1_556 S
N71 C72 1.316 1_556 S
N71 C73 1.375 . S
C72 N71 1.316 1_554 S
C72 N74 1.347 1_554 S
C72 H83 0.931 . S
C73 N71 1.375 . S
C73 C75 1.350 . S
C73 H82 0.930 . S
N74 C72 1.347 1_556 S
N74 C75 1.373 . S
C75 C73 1.350 . S
C75 N74 1.373 . S
C75 H89 0.931 . S
C76 O79 1.257 . S
C76 O80 1.254 1_554 S
O77 Co60 2.021 . S
O77 C70 1.259 . S
O78 Co62 2.117 1_556 S
O78 C70 1.258 . S
O79 Co62 2.020 . S
O79 C76 1.257 . S
O80 Co60 2.062 . S
O80 C76 1.254 1_556 S
O81 C61 1.259 . S
O81 Co62 2.021 . S
H82 C73 0.930 . S
H83 C72 0.931 . S
O84 Co60 2.117 1_554 S
O84 C61 1.258 . S
O85 Co60 2.020 . S
O85 C87 1.257 . S
O86 Co62 2.062 . S
O86 C87 1.254 1_554 S
C87 O85 1.257 . S
C87 O86 1.254 1_556 S
H88 C67 0.931 . S
H89 C75 0.931 . S
Co90 N95 2.057 . S
Co90 O107 2.021 . S
Co90 O110 2.062 . S
Co90 O114 2.117 . S
Co90 O115 2.020 . S
C91 O111 1.259 . S
C91 O114 1.258 . S
Co92 N101 2.057 . S
Co92 O108 2.117 . S
Co92 O109 2.020 . S
Co92 O111 2.021 . S
Co92 O116 2.062 . S
C93 N95 1.316 . S
C93 N96 1.347 . S
C93 H98 0.931 . S
C94 N95 1.375 . S
C94 C97 1.350 . S
C94 H99 0.930 . S
N95 Co90 2.057 . S
N95 C93 1.316 . S
N95 C94 1.375 . S
N96 C93 1.347 . S
N96 C97 1.373 . S
C97 C94 1.350 . S
C97 N96 1.373 . S
C97 H118 0.931 . S
H98 C93 0.931 . S
H99 C94 0.930 . S
C100 O107 1.259 . S
C100 O108 1.258 . S
N101 Co92 2.057 . S
N101 C102 1.316 . S
N101 C103 1.375 . S
C102 N101 1.316 . S
C102 N104 1.347 . S
C102 H113 0.931 . S
C103 N101 1.375 . S
C103 C105 1.350 . S
C103 H112 0.930 . S
N104 C102 1.347 . S
N104 C105 1.373 . S
C105 C103 1.350 . S
C105 N104 1.373 . S
C105 H119 0.931 . S
C106 O109 1.256 . S
C106 O110 1.255 . S
O107 Co90 2.021 . S
O107 C100 1.259 . S
O108 Co92 2.117 . S
O108 C100 1.258 . S
O109 Co92 2.020 . S
O109 C106 1.256 . S
O110 Co90 2.062 . S
O110 C106 1.255 . S
O111 C91 1.259 . S
O111 Co92 2.021 . S
H112 C103 0.930 . S
H113 C102 0.931 . S
O114 Co90 2.117 . S
O114 C91 1.258 . S
O115 Co90 2.020 . S
O115 C117 1.256 . S
O116 Co92 2.062 . S
O116 C117 1.255 . S
C117 O115 1.256 . S
C117 O116 1.255 . S
H118 C97 0.931 . S
H119 C105 0.931 . S
H120 C121 0.951 . S
C121 H120 0.951 . S
C121 C127 1.265 . S
H122 C127 0.950 . S
H123 C131 0.949 . S
H124 C132 0.950 . S
H125 C133 0.951 . S
H126 C134 0.951 . S
C127 C121 1.265 . S
C127 H122 0.950 . S
C127 C128 1.478 . S
C128 C127 1.478 . S
C128 C129 1.397 . S
C128 C145 1.394 1_554 S
C129 C128 1.397 . S
C129 C130 1.438 . S
C129 C134 1.429 . S
C130 C129 1.438 . S
C130 C131 1.428 . S
C130 C143 1.394 1_554 S
C131 H123 0.949 . S
C131 C130 1.428 . S
C131 C132 1.345 . S
C132 H124 0.950 . S
C132 C131 1.345 . S
C132 C133 1.424 . S
C133 H125 0.951 . S
C133 C132 1.424 . S
C133 C134 1.347 . S
C134 H126 0.951 . S
C134 C129 1.429 . S
C134 C133 1.347 . S
H135 C136 0.951 . S
C136 H135 0.951 . S
C136 C142 1.265 . S
H137 C142 0.950 . S
H138 C146 0.949 . S
H139 C147 0.950 . S
H140 C148 0.951 . S
H141 C149 0.951 . S
C142 C136 1.265 . S
C142 H137 0.950 . S
C142 C143 1.478 . S
C143 C130 1.394 1_556 S
C143 C142 1.478 . S
C143 C144 1.397 . S
C144 C143 1.397 . S
C144 C145 1.438 . S
C144 C149 1.429 . S
C145 C128 1.394 1_556 S
C145 C144 1.438 . S
C145 C146 1.428 . S
C146 H138 0.949 . S
C146 C145 1.428 . S
C146 C147 1.345 . S
C147 H139 0.950 . S
C147 C146 1.345 . S
C147 C148 1.424 . S
C148 H140 0.951 . S
C148 C147 1.424 . S
C148 C149 1.347 . S
C149 H141 0.951 . S
C149 C144 1.429 . S
C149 C148 1.347 . S
H150 C151 0.951 1_554 S
C151 H150 0.951 1_556 S
C151 C157 1.265 . S
H152 C157 0.950 . S
H153 C161 0.949 . S
H154 C162 0.950 . S
H155 C163 0.951 . S
H156 C164 0.951 . S
C157 C151 1.265 . S
C157 H152 0.950 . S
C157 C158 1.478 . S
C158 C157 1.478 . S
C158 C159 1.397 . S
C158 C175 1.394 1_556 S
C159 C158 1.397 . S
C159 C160 1.438 . S
C159 C164 1.429 . S
C160 C159 1.438 . S
C160 C161 1.428 . S
C160 C173 1.394 1_556 S
C161 H153 0.949 . S
C161 C160 1.428 . S
C161 C162 1.345 . S
C162 H154 0.950 . S
C162 C161 1.345 . S
C162 C163 1.424 . S
C163 H155 0.951 . S
C163 C162 1.424 . S
C163 C164 1.347 . S
C164 H156 0.951 . S
C164 C159 1.429 . S
C164 C163 1.347 . S
H165 C166 0.951 1_556 S
C166 H165 0.951 1_554 S
C166 C172 1.265 . S
H167 C172 0.950 . S
H168 C176 0.949 . S
H169 C177 0.950 . S
H170 C178 0.951 . S
H171 C179 0.951 . S
C172 C166 1.265 . S
C172 H167 0.950 . S
C172 C173 1.478 . S
C173 C160 1.394 1_554 S
C173 C172 1.478 . S
C173 C174 1.397 . S
C174 C173 1.397 . S
C174 C175 1.438 . S
C174 C179 1.429 . S
C175 C158 1.394 1_554 S
C175 C174 1.438 . S
C175 C176 1.428 . S
C176 H168 0.949 . S
C176 C175 1.428 . S
C176 C177 1.345 . S
C177 H169 0.950 . S
C177 C176 1.345 . S
C177 C178 1.424 . S
C178 H170 0.951 . S
C178 C177 1.424 . S
C178 C179 1.347 . S
C179 H171 0.951 . S
C179 C174 1.429 . S
C179 C178 1.347 . S
H180 C181 0.951 . S
C181 H180 0.951 . S
C181 C187 1.265 . S
H182 C187 0.950 . S
H183 C191 0.949 . S
H184 C192 0.950 . S
H185 C193 0.951 . S
H186 C194 0.951 . S
C187 C181 1.265 . S
C187 H182 0.950 . S
C187 C188 1.478 . S
C188 C187 1.478 . S
C188 C189 1.397 . S
C188 C205 1.394 . S
C189 C188 1.397 . S
C189 C190 1.438 . S
C189 C194 1.429 . S
C190 C189 1.438 . S
C190 C191 1.428 . S
C190 C203 1.394 . S
C191 H183 0.949 . S
C191 C190 1.428 . S
C191 C192 1.345 . S
C192 H184 0.950 . S
C192 C191 1.345 . S
C192 C193 1.424 . S
C193 H185 0.951 . S
C193 C192 1.424 . S
C193 C194 1.347 . S
C194 H186 0.951 . S
C194 C189 1.429 . S
C194 C193 1.347 . S
H195 C196 0.951 . S
C196 H195 0.951 . S
C196 C202 1.265 . S
H197 C202 0.950 . S
H198 C206 0.949 . S
H199 C207 0.950 . S
H200 C208 0.951 . S
H201 C209 0.951 . S
C202 C196 1.265 . S
C202 H197 0.950 . S
C202 C203 1.478 . S
C203 C190 1.394 . S
C203 C202 1.478 . S
C203 C204 1.397 . S
C204 C203 1.397 . S
C204 C205 1.438 . S
C204 C209 1.429 . S
C205 C188 1.394 . S
C205 C204 1.438 . S
C205 C206 1.428 . S
C206 H198 0.949 . S
C206 C205 1.428 . S
C206 C207 1.345 . S
C207 H199 0.950 . S
C207 C206 1.345 . S
C207 C208 1.424 . S
C208 H200 0.951 . S
C208 C207 1.424 . S
C208 C209 1.347 . S
C209 H201 0.951 . S
C209 C204 1.429 . S
C209 C208 1.347 . S
H210 C211 0.951 . S
C211 H210 0.951 . S
C211 C217 1.265 . S
H212 C217 0.950 . S
H213 C221 0.949 . S
H214 C222 0.950 . S
H215 C223 0.951 . S
H216 C224 0.951 . S
C217 C211 1.265 . S
C217 H212 0.950 . S
C217 C218 1.478 . S
C218 C217 1.478 . S
C218 C219 1.397 . S
C218 C235 1.394 . S
C219 C218 1.397 . S
C219 C220 1.438 . S
C219 C224 1.429 . S
C220 C219 1.438 . S
C220 C221 1.428 . S
C220 C233 1.394 . S
C221 H213 0.949 . S
C221 C220 1.428 . S
C221 C222 1.345 . S
C222 H214 0.950 . S
C222 C221 1.345 . S
C222 C223 1.424 . S
C223 H215 0.951 . S
C223 C222 1.424 . S
C223 C224 1.347 . S
C224 H216 0.951 . S
C224 C219 1.429 . S
C224 C223 1.347 . S
H225 C226 0.951 . S
C226 H225 0.951 . S
C226 C232 1.265 . S
H227 C232 0.950 . S
H228 C236 0.949 . S
H229 C237 0.950 . S
H230 C238 0.951 . S
H231 C239 0.951 . S
C232 C226 1.265 . S
C232 H227 0.950 . S
C232 C233 1.478 . S
C233 C220 1.394 . S
C233 C232 1.478 . S
C233 C234 1.397 . S
C234 C233 1.397 . S
C234 C235 1.438 . S
C234 C239 1.429 . S
C235 C218 1.394 . S
C235 C234 1.438 . S
C235 C236 1.428 . S
C236 H228 0.949 . S
C236 C235 1.428 . S
C236 C237 1.345 . S
C237 H229 0.950 . S
C237 C236 1.345 . S
C237 C238 1.424 . S
C238 H230 0.951 . S
C238 C237 1.424 . S
C238 C239 1.347 . S
C239 H231 0.951 . S
C239 C234 1.429 . S
C239 C238 1.347 . S
H240 C241 0.951 . S
C241 H240 0.951 . S
C241 C247 1.270 1_556 S
H242 C247 0.945 1_565 S
H243 C251 0.949 1_556 S
H244 C252 0.950 . S
H245 C253 0.951 . S
H246 C254 0.951 . S
C247 C241 1.270 1_554 S
C247 H242 0.945 1_545 S
C247 C248 1.478 . S
C248 C247 1.478 . S
C248 C249 1.380 1_545 S
C248 C265 1.411 1_554 S
C249 C248 1.380 1_565 S
C249 C250 1.438 . S
C249 C254 1.429 . S
C250 C249 1.438 . S
C250 C251 1.428 . S
C250 C263 1.404 1_554 S
C251 H243 0.949 1_554 S
C251 C250 1.428 . S
C251 C252 1.345 . S
C252 H244 0.950 . S
C252 C251 1.345 . S
C252 C253 1.424 . S
C253 H245 0.951 . S
C253 C252 1.424 . S
C253 C254 1.347 . S
C254 H246 0.951 . S
C254 C249 1.429 . S
C254 C253 1.347 . S
H255 C256 0.951 . S
C256 H255 0.951 . S
C256 C262 1.267 1_554 S
H257 C262 0.947 1_545 S
H258 C266 0.949 1_554 S
H259 C267 0.950 . S
H260 C268 0.951 . S
H261 C269 0.951 . S
C262 C256 1.267 1_556 S
C262 H257 0.947 1_565 S
C262 C263 1.478 . S
C263 C250 1.404 1_556 S
C263 C262 1.478 . S
C263 C264 1.387 1_565 S
C264 C263 1.387 1_545 S
C264 C265 1.438 . S
C264 C269 1.429 . S
C265 C248 1.411 1_556 S
C265 C264 1.438 . S
C265 C266 1.428 . S
C266 H258 0.949 1_556 S
C266 C265 1.428 . S
C266 C267 1.345 . S
C267 H259 0.950 . S
C267 C266 1.345 . S
C267 C268 1.424 . S
C268 H260 0.951 . S
C268 C267 1.424 . S
C268 C269 1.347 . S
C269 H261 0.951 . S
C269 C264 1.429 . S
C269 C268 1.347 . S
H270 C271 0.951 1_545 S
C271 H270 0.951 1_565 S
C271 C277 1.265 . S
H272 C277 0.950 . S
H273 C281 0.949 . S
H274 C282 0.950 . S
H275 C283 0.951 . S
H276 C284 0.951 . S
C277 C271 1.265 . S
C277 H272 0.950 . S
C277 C278 1.478 . S
C278 C277 1.478 . S
C278 C279 1.397 . S
C278 C295 1.394 1_565 S
C279 C278 1.397 . S
C279 C280 1.438 . S
C279 C284 1.429 . S
C280 C279 1.438 . S
C280 C281 1.428 . S
C280 C293 1.394 1_565 S
C281 H273 0.949 . S
C281 C280 1.428 . S
C281 C282 1.345 . S
C282 H274 0.950 . S
C282 C281 1.345 . S
C282 C283 1.424 . S
C283 H275 0.951 . S
C283 C282 1.424 . S
C283 C284 1.347 . S
C284 H276 0.951 . S
C284 C279 1.429 . S
C284 C283 1.347 . S
H285 C286 0.951 1_565 S
C286 H285 0.951 1_545 S
C286 C292 1.265 . S
H287 C292 0.950 . S
H288 C296 0.949 . S
H289 C297 0.950 . S
H290 C298 0.951 . S
H291 C299 0.951 . S
C292 C286 1.265 . S
C292 H287 0.950 . S
C292 C293 1.478 . S
C293 C280 1.394 1_545 S
C293 C292 1.478 . S
C293 C294 1.397 . S
C294 C293 1.397 . S
C294 C295 1.438 . S
C294 C299 1.429 . S
C295 C278 1.394 1_545 S
C295 C294 1.438 . S
C295 C296 1.428 . S
C296 H288 0.949 . S
C296 C295 1.428 . S
C296 C297 1.345 . S
C297 H289 0.950 . S
C297 C296 1.345 . S
C297 C298 1.424 . S
C298 H290 0.951 . S
C298 C297 1.424 . S
C298 C299 1.347 . S
C299 H291 0.951 . S
C299 C294 1.429 . S
C299 C298 1.347 . S
H300 C301 0.962 . S
C301 H300 0.962 . S
C301 C307 1.259 1_556 S
H302 C307 0.950 . S
H303 C311 0.949 . S
H304 C312 0.950 . S
H305 C313 0.951 . S
H306 C314 0.951 . S
C307 C301 1.259 1_554 S
C307 H302 0.950 . S
C307 C308 1.478 . S
C308 C307 1.478 . S
C308 C309 1.397 . S
C308 C325 1.394 1_554 S
C309 C308 1.397 . S
C309 C310 1.438 1_655 S
C309 C314 1.429 . S
C310 C309 1.438 1_455 S
C310 C311 1.428 . S
C310 C323 1.394 1_554 S
C311 H303 0.949 . S
C311 C310 1.428 . S
C311 C312 1.345 . S
C312 H304 0.950 . S
C312 C311 1.345 . S
C312 C313 1.424 1_455 S
C313 H305 0.951 . S
C313 C312 1.424 1_655 S
C313 C314 1.347 . S
C314 H306 0.951 . S
C314 C309 1.429 . S
C314 C313 1.347 . S
H315 C316 0.951 . S
C316 H315 0.951 . S
C316 C322 1.265 1_554 S
H317 C322 0.950 . S
H318 C326 0.949 . S
H319 C327 0.950 . S
H320 C328 0.951 . S
H321 C329 0.951 . S
C322 C316 1.265 1_556 S
C322 H317 0.950 . S
C322 C323 1.478 . S
C323 C310 1.394 1_556 S
C323 C322 1.478 . S
C323 C324 1.397 . S
C324 C323 1.397 . S
C324 C325 1.438 1_455 S
C324 C329 1.429 . S
C325 C308 1.394 1_556 S
C325 C324 1.438 1_655 S
C325 C326 1.428 . S
C326 H318 0.949 . S
C326 C325 1.428 . S
C326 C327 1.345 . S
C327 H319 0.950 . S
C327 C326 1.345 . S
C327 C328 1.424 1_655 S
C328 H320 0.951 . S
C328 C327 1.424 1_455 S
C328 C329 1.347 . S
C329 H321 0.951 . S
C329 C324 1.429 . S
C329 C328 1.347 . S
H330 C331 0.951 . S
C331 H330 0.951 . S
C331 C337 1.265 . S
H332 C337 0.950 . S
H333 C341 0.949 . S
H334 C342 0.950 . S
H335 C343 0.951 . S
H336 C344 0.951 . S
C337 C331 1.265 . S
C337 H332 0.950 . S
C337 C338 1.478 . S
C338 C337 1.478 . S
C338 C339 1.397 . S
C338 C355 1.394 . S
C339 C338 1.397 . S
C339 C340 1.438 1_455 S
C339 C344 1.429 . S
C340 C339 1.438 1_655 S
C340 C341 1.428 . S
C340 C353 1.394 . S
C341 H333 0.949 . S
C341 C340 1.428 . S
C341 C342 1.345 . S
C342 H334 0.950 . S
C342 C341 1.345 . S
C342 C343 1.424 1_655 S
C343 H335 0.951 . S
C343 C342 1.424 1_455 S
C343 C344 1.347 . S
C344 H336 0.951 . S
C344 C339 1.429 . S
C344 C343 1.347 . S
H345 C346 0.951 . S
C346 H345 0.951 . S
C346 C352 1.265 . S
H347 C352 0.950 . S
H348 C356 0.949 . S
H349 C357 0.950 . S
H350 C358 0.951 . S
H351 C359 0.951 . S
C352 C346 1.265 . S
C352 H347 0.950 . S
C352 C353 1.478 . S
C353 C340 1.394 . S
C353 C352 1.478 . S
C353 C354 1.397 . S
C354 C353 1.397 . S
C354 C355 1.438 1_655 S
C354 C359 1.429 . S
C355 C338 1.394 . S
C355 C354 1.438 1_455 S
C355 C356 1.428 . S
C356 H348 0.949 . S
C356 C355 1.428 . S
C356 C357 1.345 . S
C357 H349 0.950 . S
C357 C356 1.345 . S
C357 C358 1.424 1_455 S
C358 H350 0.951 . S
C358 C357 1.424 1_655 S
C358 C359 1.347 . S
C359 H351 0.951 . S
C359 C354 1.429 . S
C359 C358 1.347 . S
H360 C361 0.951 . S
C361 H360 0.951 . S
C361 C367 1.265 1_455 S
H362 C367 0.950 . S
H363 C371 0.949 . S
H364 C372 0.950 . S
H365 C373 0.951 . S
H366 C374 0.951 . S
C367 C361 1.265 1_655 S
C367 H362 0.950 . S
C367 C368 1.478 . S
C368 C367 1.478 . S
C368 C369 1.397 . S
C368 C385 1.394 1_645 S
C369 C368 1.397 . S
C369 C370 1.438 . S
C369 C374 1.429 . S
C370 C369 1.438 . S
C370 C371 1.428 . S
C370 C383 1.394 1_655 S
C371 H363 0.949 . S
C371 C370 1.428 . S
C371 C372 1.345 . S
C372 H364 0.950 . S
C372 C371 1.345 . S
C372 C373 1.424 . S
C373 H365 0.951 . S
C373 C372 1.424 . S
C373 C374 1.347 . S
C374 H366 0.951 . S
C374 C369 1.429 . S
C374 C373 1.347 . S
H375 C376 0.952 . S
C376 H375 0.952 . S
C376 C382 1.266 1_655 S
H377 C382 0.949 . S
H378 C386 0.949 . S
H379 C387 0.950 . S
H380 C388 0.951 . S
H381 C389 0.951 . S
C382 C376 1.266 1_455 S
C382 H377 0.949 . S
C382 C383 1.479 . S
C383 C370 1.394 1_455 S
C383 C382 1.479 . S
C383 C384 1.397 1_545 S
C384 C383 1.397 1_565 S
C384 C385 1.438 . S
C384 C389 1.429 . S
C385 C368 1.394 1_465 S
C385 C384 1.438 . S
C385 C386 1.428 . S
C386 H378 0.949 . S
C386 C385 1.428 . S
C386 C387 1.345 . S
C387 H379 0.950 . S
C387 C386 1.345 . S
C387 C388 1.424 . S
C388 H380 0.951 . S
C388 C387 1.424 . S
C388 C389 1.347 . S
C389 H381 0.951 . S
C389 C384 1.429 . S
C389 C388 1.347 . S
H390 C391 0.951 . S
C391 H390 0.951 . S
C391 C397 1.265 1_465 S
H392 C397 0.950 . S
H393 C401 0.949 . S
H394 C402 0.950 . S
H395 C403 0.951 . S
H396 C404 0.951 . S
C397 C391 1.265 1_645 S
C397 H392 0.950 . S
C397 C398 1.478 1_545 S
C398 C397 1.478 1_565 S
C398 C399 1.394 1_565 S
C398 C415 1.397 1_655 S
C399 C398 1.394 1_545 S
C399 C400 1.438 . S
C399 C404 1.429 . S
C400 C399 1.438 . S
C400 C401 1.428 . S
C400 C413 1.394 1_645 S
C401 H393 0.949 . S
C401 C400 1.428 . S
C401 C402 1.345 . S
C402 H394 0.950 . S
C402 C401 1.345 . S
C402 C403 1.424 . S
C403 H395 0.951 . S
C403 C402 1.424 . S
C403 C404 1.347 . S
C404 H396 0.951 . S
C404 C399 1.429 . S
C404 C403 1.347 . S
H405 C406 0.948 1_545 S
C406 H405 0.948 1_565 S
C406 C412 1.268 1_655 S
H407 C412 0.950 . S
H408 C416 0.949 . S
H409 C417 0.950 . S
H410 C418 0.951 . S
H411 C419 0.951 . S
C412 C406 1.268 1_455 S
C412 H407 0.950 . S
C412 C413 1.478 . S
C413 C400 1.394 1_465 S
C413 C412 1.478 . S
C413 C414 1.397 . S
C414 C413 1.397 . S
C414 C415 1.438 . S
C414 C419 1.429 . S
C415 C398 1.397 1_455 S
C415 C414 1.438 . S
C415 C416 1.428 . S
C416 H408 0.949 . S
C416 C415 1.428 . S
C416 C417 1.345 . S
C417 H409 0.950 . S
C417 C416 1.345 . S
C417 C418 1.424 . S
C418 H410 0.951 . S
C418 C417 1.424 . S
C418 C419 1.347 . S
C419 H411 0.951 . S
C419 C414 1.429 . S
C419 C418 1.347 . S
H420 C421 0.951 . S
C421 H420 0.951 . S
C421 C427 1.265 . S
H422 C427 0.950 . S
H423 C431 0.949 . S
H424 C432 0.950 . S
H425 C433 0.951 . S
H426 C434 0.951 . S
C427 C421 1.265 . S
C427 H422 0.950 . S
C427 C428 1.478 . S
C428 C427 1.478 . S
C428 C429 1.397 . S
C428 C445 1.394 . S
C429 C428 1.397 . S
C429 C430 1.438 . S
C429 C434 1.429 . S
C430 C429 1.438 . S
C430 C431 1.428 . S
C430 C443 1.394 . S
C431 H423 0.949 . S
C431 C430 1.428 . S
C431 C432 1.345 . S
C432 H424 0.950 . S
C432 C431 1.345 . S
C432 C433 1.424 . S
C433 H425 0.951 . S
C433 C432 1.424 . S
C433 C434 1.347 . S
C434 H426 0.951 . S
C434 C429 1.429 . S
C434 C433 1.347 . S
H435 C436 0.951 . S
C436 H435 0.951 . S
C436 C442 1.265 . S
H437 C442 0.950 . S
H438 C446 0.949 . S
H439 C447 0.950 . S
H440 C448 0.951 . S
H441 C449 0.951 . S
C442 C436 1.265 . S
C442 H437 0.950 . S
C442 C443 1.478 . S
C443 C430 1.394 . S
C443 C442 1.478 . S
C443 C444 1.397 . S
C444 C443 1.397 . S
C444 C445 1.438 . S
C444 C449 1.429 . S
C445 C428 1.394 . S
C445 C444 1.438 . S
C445 C446 1.428 . S
C446 H438 0.949 . S
C446 C445 1.428 . S
C446 C447 1.345 . S
C447 H439 0.950 . S
C447 C446 1.345 . S
C447 C448 1.424 . S
C448 H440 0.951 . S
C448 C447 1.424 . S
C448 C449 1.347 . S
C449 H441 0.951 . S
C449 C444 1.429 . S
C449 C448 1.347 . S
H450 C451 0.951 . S
C451 H450 0.951 . S
C451 C457 1.265 . S
H452 C457 0.950 . S
H453 C461 0.949 . S
H454 C462 0.950 . S
H455 C463 0.951 . S
H456 C464 0.951 . S
C457 C451 1.265 . S
C457 H452 0.950 . S
C457 C458 1.478 . S
C458 C457 1.478 . S
C458 C459 1.397 . S
C458 C475 1.394 . S
C459 C458 1.397 . S
C459 C460 1.438 . S
C459 C464 1.429 . S
C460 C459 1.438 . S
C460 C461 1.428 . S
C460 C473 1.394 . S
C461 H453 0.949 . S
C461 C460 1.428 . S
C461 C462 1.345 . S
C462 H454 0.950 . S
C462 C461 1.345 . S
C462 C463 1.424 . S
C463 H455 0.951 . S
C463 C462 1.424 . S
C463 C464 1.347 . S
C464 H456 0.951 . S
C464 C459 1.429 . S
C464 C463 1.347 . S
H465 C466 0.951 . S
C466 H465 0.951 . S
C466 C472 1.265 . S
H467 C472 0.950 . S
H468 C476 0.949 . S
H469 C477 0.950 . S
H470 C478 0.951 . S
H471 C479 0.951 . S
C472 C466 1.265 . S
C472 H467 0.950 . S
C472 C473 1.478 . S
C473 C460 1.394 . S
C473 C472 1.478 . S
C473 C474 1.397 . S
C474 C473 1.397 . S
C474 C475 1.438 . S
C474 C479 1.429 . S
C475 C458 1.394 . S
C475 C474 1.438 . S
C475 C476 1.428 . S
C476 H468 0.949 . S
C476 C475 1.428 . S
C476 C477 1.345 . S
C477 H469 0.950 . S
C477 C476 1.345 . S
C477 C478 1.424 . S
C478 H470 0.951 . S
C478 C477 1.424 . S
C478 C479 1.347 . S
C479 H471 0.951 . S
C479 C474 1.429 . S
C479 C478 1.347 . S
C121 N74 1.525 1_554 S
C136 N6 1.528 1_556 S
C151 N66 1.525 1_556 S
C166 N14 1.523 1_554 S
C181 N44 1.530 . S
C196 N96 1.526 . S
C211 N36 1.529 . S
C226 N104 1.533 . S
C241 C16 0.924 1_556 S
C256 C27 0.925 1_554 S
C271 C57 0.904 . S
C286 C46 0.904 . S
C301 C76 0.900 1_556 S
C316 C87 0.903 1_554 S
C331 C106 0.933 . S
C346 C117 0.933 . S
C361 C31 1.488 1_455 S
C376 C1 1.487 1_655 S
C391 C10 1.488 1_455 S
C406 C40 1.496 1_655 S
C421 C91 1.490 . S
C436 C61 1.485 . S
C451 C100 1.486 . S
C466 C70 1.487 . S
