# Generated by pormake.
# Topology smu, (6)-cn, num edge types: 1
# Building blocks:
#     Node 0, Type 0, BuildingBlock: CUKXOW_clean_sbu_0, # of connection points: 6
#     Node 1, Type 0, BuildingBlock: CUKXOW_clean_sbu_0, # of connection points: 6
#     Node 2, Type 0, BuildingBlock: CUKXOW_clean_sbu_0, # of connection points: 6
#     Node 3, Type 0, BuildingBlock: CUKXOW_clean_sbu_0, # of connection points: 6
#     Node 4, Type 0, BuildingBlock: CUKXOW_clean_sbu_0, # of connection points: 6
#     Node 5, Type 0, BuildingBlock: CUKXOW_clean_sbu_0, # of connection points: 6
#     Edge 6, Type (0, 0), BuildingBlock: ZUJKAS_clean_linker_0, # of connection points: 2
#     Edge 7, Type (0, 0), BuildingBlock: ZUJKAS_clean_linker_0, # of connection points: 2
#     Edge 8, Type (0, 0), BuildingBlock: ZUJKAS_clean_linker_0, # of connection points: 2
#     Edge 9, Type (0, 0), BuildingBlock: ZUJKAS_clean_linker_0, # of connection points: 2
#     Edge 10, Type (0, 0), BuildingBlock: ZUJKAS_clean_linker_0, # of connection points: 2
#     Edge 11, Type (0, 0), BuildingBlock: ZUJKAS_clean_linker_0, # of connection points: 2
#     Edge 12, Type (0, 0), BuildingBlock: ZUJKAS_clean_linker_0, # of connection points: 2
#     Edge 13, Type (0, 0), BuildingBlock: ZUJKAS_clean_linker_0, # of connection points: 2
#     Edge 14, Type (0, 0), BuildingBlock: ZUJKAS_clean_linker_0, # of connection points: 2
#     Edge 15, Type (0, 0), BuildingBlock: ZUJKAS_clean_linker_0, # of connection points: 2
#     Edge 16, Type (0, 0), BuildingBlock: ZUJKAS_clean_linker_0, # of connection points: 2
#     Edge 17, Type (0, 0), BuildingBlock: ZUJKAS_clean_linker_0, # of connection points: 2
#     Edge 18, Type (0, 0), BuildingBlock: ZUJKAS_clean_linker_0, # of connection points: 2
#     Edge 19, Type (0, 0), BuildingBlock: ZUJKAS_clean_linker_0, # of connection points: 2
#     Edge 20, Type (0, 0), BuildingBlock: ZUJKAS_clean_linker_0, # of connection points: 2
#     Edge 21, Type (0, 0), BuildingBlock: ZUJKAS_clean_linker_0, # of connection points: 2
#     Edge 22, Type (0, 0), BuildingBlock: ZUJKAS_clean_linker_0, # of connection points: 2
#     Edge 23, Type (0, 0), BuildingBlock: ZUJKAS_clean_linker_0, # of connection points: 2
# Relax obj value: 0.191
# Max RMSD: 0.295
# Mean RMSD: 0.274
data_MOF--net-smu--node1-CUKXOW_clean_sbu_0--edge1-ZUJKAS_clean_linker_0
_symmetry_space_group_name_H-M    P1
_symmetry_Int_Tables_number       1
_symmetry_cell_setting            triclinic
loop_
_symmetry_equiv_pos_as_xyz
'x, y, z'
_cell_length_a     39.02941
_cell_length_b     39.084833
_cell_length_c     36.886739
_cell_angle_alpha  93.59636
_cell_angle_beta   91.821629
_cell_angle_gamma 120.21375
loop_
_atom_site_label
_atom_site_type_symbol
_atom_site_fract_x
_atom_site_fract_y
_atom_site_fract_z
_atom_type_partial_charge
Tb0 Tb 0.39778 0.1504 0.30464 0.0
C1 C 0.36142 0.09365 0.36728 0.0
Tb2 Tb 0.32617 0.06828 0.28514 0.0
O3 O 0.35968 0.1708 0.32757 0.0
O4 O 0.33775 0.12756 0.28431 0.0
O5 O 0.39524 0.12208 0.35548 0.0
C6 C 0.24971 1.01106 0.28036 0.0
O7 O 0.32921 0.07234 0.34472 0.0
C8 C 0.39676 0.07479 0.28101 0.0
C9 C 0.36702 0.1159 0.22083 0.0
O10 O 0.27933 1.00516 0.27544 0.0
O11 O 0.26337 0.0487 0.28782 0.0
O12 O 0.36535 0.04859 0.26052 0.0
O13 O 0.38627 0.09217 0.3038 0.0
O14 O 0.3325 0.08912 0.23188 0.0
O15 O 0.39801 0.14057 0.24424 0.0
C16 C 0.46478 0.22205 0.31294 0.0
O17 O 0.45434 0.196 0.28504 0.0
O18 O 0.4383 0.20696 0.3364 0.0
C19 C 0.3283 0.14594 0.30726 0.0
Tb20 Tb 0.76392 0.71066 0.27341 0.0
C21 C 0.76902 0.66997 0.34091 0.0
Tb22 Tb 0.77501 0.63871 0.26172 0.0
O23 O 0.70541 0.67197 0.29539 0.0
O24 O 0.72793 0.64963 0.25657 0.0
O25 O 0.78043 0.70463 0.32808 0.0
C26 C 0.77859 0.57262 0.24841 0.0
O27 O 0.75917 0.6375 0.31893 0.0
C28 C 0.84025 0.70736 0.28108 0.0
C29 C 0.75846 0.67595 0.1925 0.0
O30 O 0.75438 0.57625 0.26963 0.0
O31 O 0.79921 0.60563 0.23349 0.0
O32 O 0.83416 0.67345 0.29006 0.0
O33 O 0.81131 0.70123 0.26012 0.0
O34 O 0.75941 0.64486 0.20486 0.0
O35 O 0.7621 0.70604 0.21445 0.0
C36 C 0.78243 0.78628 0.28 0.0
O37 O 0.74739 0.75641 0.26884 0.0
O38 O 0.80631 0.77335 0.28762 0.0
C39 C 0.69978 0.63997 0.27655 0.0
Tb40 Tb 0.8888 0.25428 0.25283 0.0
C41 C 0.92199 0.27213 0.33788 0.0
Tb42 Tb 0.9735 0.27493 0.27522 0.0
O43 O 0.87374 0.19428 0.23308 0.0
O44 O 0.9157 0.22446 0.27639 0.0
O45 O 0.89443 0.26916 0.31321 0.0
C46 C 0.03491 0.26356 0.28547 0.0
O47 O 0.95364 0.27051 0.32896 0.0
C48 C 0.96075 0.33495 0.27322 0.0
C49 C 0.94784 0.26787 0.19187 0.0
O50 O 0.03724 0.29521 0.27334 0.0
O51 O 0.99852 0.23922 0.29219 0.0
O52 O 0.98797 0.33584 0.29542 0.0
O53 O 0.94573 0.30364 0.25239 0.0
O54 O 0.96877 0.26106 0.21641 0.0
O55 O 0.91758 0.27261 0.20124 0.0
C56 C 0.8157 0.24443 0.24217 0.0
O57 O 0.84376 0.27086 0.26537 0.0
O58 O 0.82938 0.2247 0.22459 0.0
C59 C 0.90008 0.19364 0.25459 0.0
Tb60 Tb 0.06062 0.31531 0.75718 0.0
C61 C 0.10188 0.35857 0.69042 0.0
Tb62 Tb 0.14768 0.38194 0.76812 0.0
O63 O 0.04334 0.35936 0.74279 0.0
O64 O 0.09234 0.37531 0.77811 0.0
O65 O 0.0775 0.32355 0.70185 0.0
C66 C 0.22184 0.44163 0.78659 0.0
O67 O 0.12873 0.38907 0.71312 0.0
C68 C 0.13516 0.31148 0.74287 0.0
C69 C 0.10021 0.3409 0.83709 0.0
O70 O 0.1951 0.44443 0.76704 0.0
O71 O 0.20631 0.40574 0.7962 0.0
O72 O 0.16364 0.34502 0.73403 0.0
O73 O 0.11646 0.31888 0.76621 0.0
O74 O 0.13147 0.37271 0.82543 0.0
O75 O 0.07112 0.31299 0.81449 0.0
C76 C 0.99661 0.24278 0.75122 0.0
O77 O 1.00007 0.27336 0.77091 0.0
O78 O 0.02862 0.25354 0.73425 0.0
C79 C 0.07385 0.38879 0.76176 0.0
Tb80 Tb 0.27915 0.97007 0.77509 0.0
C81 C 0.27858 0.92341 0.70452 0.0
Tb82 Tb 0.26563 0.88687 0.78172 0.0
O83 O 0.33976 0.99023 0.7567 0.0
O84 O 0.31344 0.94509 0.79077 0.0
O85 O 0.26985 0.9498 0.71826 0.0
C86 C 0.25248 0.81272 0.77106 0.0
O87 O 0.28423 0.89964 0.72527 0.0
C88 C 0.20307 0.89435 0.78908 0.0
C89 C 0.28062 0.94186 0.85373 0.0
O90 O 0.23544 0.82789 0.75268 0.0
O91 O 0.278 0.83974 0.79579 0.0
O92 O 0.20983 0.87003 0.80583 0.0
O93 O 0.22959 0.91111 0.76717 0.0
O94 O 0.28465 0.91201 0.83896 0.0
O95 O 0.27254 0.96427 0.83346 0.0
C96 C 0.26126 0.02717 0.77065 0.0
O97 O 0.29414 0.03237 0.78633 0.0
O98 O 0.23919 0.9904 0.75793 0.0
C99 C 0.34312 0.96317 0.77285 0.0
Tb100 Tb 0.7155 0.75762 0.77333 0.0
C101 C 0.68553 0.76012 0.69426 0.0
Tb102 Tb 0.64636 0.77334 0.76507 0.0
O103 O 0.67415 0.69678 0.78899 0.0
O104 O 0.65486 0.72493 0.75524 0.0
O105 O 0.71558 0.76416 0.71553 0.0
C106 C 0.5872 0.78653 0.74739 0.0
O107 O 0.65333 0.75859 0.70758 0.0
C108 C 0.7161 0.83534 0.78873 0.0
C109 C 0.67158 0.75876 0.84176 0.0
O110 O 0.62279 0.80507 0.73635 0.0
O111 O 0.58429 0.75932 0.76789 0.0
O112 O 0.68227 0.8294 0.79875 0.0
O113 O 0.70945 0.80774 0.76504 0.0
O114 O 0.64039 0.75202 0.82004 0.0
O115 O 0.70672 0.76984 0.82926 0.0
C116 C 0.78964 0.77124 0.77875 0.0
O117 O 0.77691 0.79206 0.79614 0.0
O118 O 0.76022 0.74178 0.75874 0.0
C119 C 0.64322 0.6946 0.77198 0.0
H120 H 0.3311 0.93405 0.90214 0.0
H121 H 0.35218 0.96454 0.9654 0.0
H122 H 0.27177 1.00947 0.9576 0.0
H123 H 0.25099 0.97967 0.89487 0.0
H124 H 0.38456 0.05361 0.98763 0.0
H125 H 0.24926 0.95047 0.05434 0.0
H126 H 0.26278 0.93621 1.01201 0.0
H127 H 0.24061 0.96683 1.0123 0.0
C128 C 0.31737 0.94973 0.91423 0.0
C129 C 0.28923 0.95427 0.8935 0.0
C130 C 0.32971 0.96746 0.95022 0.0
C131 C 0.31356 0.98933 0.96623 0.0
C132 C 0.28454 0.99265 0.94593 0.0
H133 H 0.31586 0.11197 0.16744 0.0
H134 H 0.30844 0.08487 0.10433 0.0
C135 C 0.27265 0.9755 0.91003 0.0
C136 C 0.32736 1.00989 1.0037 0.0
H137 H 0.29442 1.01159 0.08807 0.0
C138 C 0.36515 0.04423 1.00982 0.0
C139 C 0.30193 0.99777 0.03251 0.0
C140 C 0.26146 0.96063 0.02775 0.0
C141 C 0.37746 0.06769 0.04355 0.0
C142 C 0.35154 0.05607 0.07217 0.0
C143 C 0.31428 0.02091 0.06621 0.0
C144 C 0.36129 0.08007 0.1082 0.0
C145 C 0.41734 0.10555 0.04766 0.0
C146 C 0.39468 0.08857 0.1312 0.0
C147 C 0.39953 0.10524 0.16727 0.0
C148 C 0.37071 0.113 0.18108 0.0
C149 C 0.33884 0.10686 0.15738 0.0
C150 C 0.33433 0.09087 0.12138 0.0
H151 H 0.42875 0.11562 1.02081 0.0
H152 H 0.41563 0.12976 0.06336 0.0
H153 H 0.43911 0.10025 0.06261 0.0
H154 H 0.4156 0.07996 0.12214 0.0
H155 H 0.42382 0.10871 0.18517 0.0
H156 H 0.62494 0.70703 0.64453 0.0
H157 H 0.63279 0.68229 0.58407 0.0
H158 H 0.75806 0.76916 0.59531 0.0
H159 H 0.75056 0.79311 0.65554 0.0
H160 H 0.6622 0.71476 0.51871 0.0
H161 H 0.75859 0.66551 0.58183 0.0
H162 H 0.72959 0.68067 0.6083 0.0
H163 H 0.77684 0.71731 0.59368 0.0
C164 C 0.65388 0.72147 0.63358 0.0
C165 C 0.68718 0.75187 0.65479 0.0
C166 C 0.65843 0.70709 0.59921 0.0
C167 C 0.69629 0.72298 0.58565 0.0
C168 C 0.72881 0.75551 0.60563 0.0
H169 H 0.81004 0.72798 0.39547 0.0
H170 H 0.78848 0.73293 0.45603 0.0
C171 C 0.72439 0.76951 0.63991 0.0
C172 C 0.7027 0.70515 0.55144 0.0
H173 H 0.76123 0.67057 0.51715 0.0
C174 C 0.68323 0.70435 0.51844 0.0
C175 C 0.72984 0.69105 0.55103 0.0
C176 C 0.74958 0.68824 0.58567 0.0
C177 C 0.6921 0.69225 0.48498 0.0
C178 C 0.72104 0.68059 0.48453 0.0
C179 C 0.73911 0.67959 0.51757 0.0
C180 C 0.73629 0.67421 0.44989 0.0
C181 C 0.67203 0.69382 0.45003 0.0
C182 C 0.71506 0.6387 0.42699 0.0
C183 C 0.72784 0.63546 0.39238 0.0
C184 C 0.76154 0.66798 0.38009 0.0
C185 C 0.78393 0.70242 0.40413 0.0
C186 C 0.77155 0.7054 0.43869 0.0
H187 H 0.65031 0.70376 0.4549 0.0
H188 H 0.69473 0.71448 0.43257 0.0
H189 H 0.65627 0.66393 0.43477 0.0
H190 H 0.68786 0.61418 0.43529 0.0
H191 H 0.70994 0.60864 0.37445 0.0
H192 H 0.91028 0.26826 0.12698 0.0
H193 H 0.93911 0.28307 0.06744 0.0
H194 H 0.0512 0.30566 0.11643 0.0
H195 H 0.02266 0.28951 0.17464 0.0
H196 H 1.00095 0.34813 0.04284 0.0
H197 H 0.03421 0.22621 0.03436 0.0
H198 H 1.0036 0.23004 0.06808 0.0
H199 H 0.05703 0.25854 0.07525 0.0
C200 C 0.94092 0.27601 0.12481 0.0
C201 C 0.96378 0.27676 0.15542 0.0
C202 C 0.95744 0.28463 0.09088 0.0
C203 C 0.99713 0.29447 0.08717 0.0
C204 C 1.0202 0.29676 0.11811 0.0
H205 H 0.13109 0.39907 0.89524 0.0
H206 H 0.10992 0.39086 0.95789 0.0
C207 C 1.00368 0.28755 0.15157 0.0
C208 C 1.01493 0.30238 0.05128 0.0
H209 H 0.066 0.27596 0.99334 0.0
C210 C 1.01495 0.33219 0.03185 0.0
C211 C 0.03301 0.28141 0.03672 0.0
C212 C 0.03161 0.24701 0.05451 0.0
C213 C 0.03267 0.34169 0.99845 0.0
C214 C 0.05197 0.32164 0.98459 0.0
C215 C 0.0519 0.29189 1.00413 0.0
C216 C 0.06841 0.32751 0.94804 0.0
C217 C 0.02938 0.37216 0.97781 0.0
C218 C 0.05411 0.29449 0.92232 0.0
C219 C 0.06679 0.29897 0.88717 0.0
C220 C 0.094 0.33668 0.87645 0.0
C221 C 0.11014 0.36964 0.90263 0.0
C222 C 0.09752 0.36504 0.93826 0.0
H223 H 1.00583 0.37766 0.98771 0.0
H224 H 0.05806 0.40071 0.98159 0.0
H225 H 0.02273 0.36251 0.94822 0.0
H226 H 0.03198 0.26517 0.92906 0.0
H227 H 0.05398 0.27277 0.8679 0.0
H228 H 0.29618 0.05567 0.40538 0.0
H229 H 0.28997 0.02408 0.46159 0.0
H230 H 0.41588 0.06695 0.46872 0.0
H231 H 0.42243 0.09967 0.41241 0.0
H232 H 0.30437 0.96473 0.47179 0.0
H233 H 0.40009 0.09352 0.5724 0.0
H234 H 0.38443 0.09953 0.52787 0.0
H235 H 0.42398 0.0889 0.53309 0.0
C236 C 0.32277 0.05906 0.4192 0.0
C237 C 0.35985 0.08031 0.4044 0.0
C238 C 0.31912 0.04078 0.45134 0.0
C239 C 0.35238 0.043 0.46963 0.0
C240 C 0.38981 0.06525 0.45558 0.0
H241 H 0.3446 0.93065 0.67343 0.0
H242 H 0.3665 0.95559 0.61375 0.0
C243 C 0.39357 0.08402 0.42337 0.0
C244 C 0.34669 0.02011 0.50212 0.0
H245 H 0.36952 0.02993 0.59396 0.0
C246 C 0.31894 0.97905 0.49842 0.0
C247 C 0.36584 0.0385 0.53695 0.0
C248 C 0.39502 0.08257 0.54308 0.0
C249 C 0.30884 0.95633 0.52855 0.0
C250 C 0.32679 0.975 0.56351 0.0
C251 C 0.35592 0.01559 0.56709 0.0
C252 C 0.31215 0.95428 0.59709 0.0
C253 C 0.27829 0.91261 0.52293 0.0
C254 C 0.27405 0.94425 0.60712 0.0
C255 C 0.26177 0.93042 0.64107 0.0
C256 C 0.28707 0.92576 0.66566 0.0
C257 C 0.32423 0.93323 0.65475 0.0
C258 C 0.33689 0.94787 0.62085 0.0
H259 H 0.27528 0.90062 0.49415 0.0
H260 H 0.28614 0.89536 0.5408 0.0
H261 H 0.24896 0.90812 0.53001 0.0
H262 H 0.25461 0.94935 0.58952 0.0
H263 H 0.23327 0.92556 0.64902 0.0
H264 H 0.72043 0.8054 0.89971 0.0
H265 H 0.72855 0.78384 0.95851 0.0
H266 H 0.62605 0.66799 0.92848 0.0
H267 H 0.61696 0.69025 0.8698 0.0
H268 H 0.63281 0.69109 1.00282 0.0
H269 H 0.77651 0.71303 0.96 0.0
H270 H 0.77428 0.75771 0.95959 0.0
H271 H 0.74089 0.71488 0.92902 0.0
C272 C 0.69874 0.77579 0.90619 0.0
C273 C 0.66798 0.74955 0.88025 0.0
C274 C 0.70377 0.76325 0.9396 0.0
C275 C 0.67883 0.72381 0.94749 0.0
C276 C 0.64602 0.69842 0.92288 0.0
H277 H 0.71051 0.61368 0.14104 0.0
H278 H 0.68862 0.61896 0.07914 0.0
C279 C 0.64057 0.71125 0.88949 0.0
C280 C 0.68894 0.70897 0.98021 0.0
H281 H 0.76578 0.70517 1.02334 0.0
C282 C 0.66162 0.69355 1.00705 0.0
C283 C 0.72635 0.71153 0.98563 0.0
C284 C 0.75601 0.72477 0.95685 0.0
C285 C 0.67168 0.68302 0.03996 0.0
C286 C 0.70992 0.68783 0.04612 0.0
C287 C 0.73652 0.70159 1.01867 0.0
C288 C 0.72449 0.68315 0.08228 0.0
C289 C 0.64214 0.66858 0.06874 0.0
C290 C 0.75281 0.7172 0.10399 0.0
C291 C 0.76519 0.71425 0.13902 0.0
C292 C 0.74999 0.6771 0.15316 0.0
C293 C 0.72305 0.64266 0.13078 0.0
C294 C 0.71021 0.6457 0.09562 0.0
H295 H 0.61487 0.66945 0.06099 0.0
H296 H 0.63344 0.6375 0.07324 0.0
H297 H 0.65591 0.68703 0.09496 0.0
H298 H 0.76446 0.74635 0.09424 0.0
H299 H 0.78601 0.74137 0.15551 0.0
H300 H 0.93146 0.34025 0.37255 0.0
H301 H 0.96163 0.36572 0.43506 0.0
H302 H 0.94656 0.25131 0.45345 0.0
H303 H 0.91699 0.22611 0.39117 0.0
H304 H 0.94005 0.32933 0.51487 0.0
H305 H 0.07292 0.34235 0.4512 0.0
H306 H 0.03269 0.34199 0.42521 0.0
H307 H 0.02663 0.29656 0.4401 0.0
C308 C 0.93247 0.31996 0.39066 0.0
C309 C 0.92126 0.281 0.37722 0.0
C310 C 0.95019 0.33468 0.42624 0.0
C311 C 0.95673 0.3105 0.44876 0.0
C312 C 0.9418 0.27046 0.43656 0.0
H313 H 0.08635 0.30576 0.63272 0.0
H314 H 0.05507 0.30209 0.57316 0.0
C315 C 0.92439 0.25591 0.4011 0.0
C316 C 0.98408 0.32786 0.48237 0.0
H317 H 0.07666 0.35066 0.51559 0.0
C318 C 0.97016 0.33472 0.51505 0.0
C319 C 0.02339 0.33492 0.48245 0.0
C320 C 0.04012 0.3289 0.44789 0.0
C321 C 0.99391 0.34649 0.54819 0.0
C322 C 0.03276 0.35204 0.54849 0.0
C323 C 0.04707 0.34668 0.51544 0.0
C324 C 0.05686 0.35812 0.58309 0.0
C325 C 0.97649 0.35076 0.58294 0.0
C326 C 0.07028 0.39189 0.60805 0.0
C327 C 0.08893 0.39434 0.64222 0.0
C328 C 0.09415 0.36294 0.65189 0.0
C329 C 0.08299 0.33055 0.62592 0.0
C330 C 0.06484 0.32829 0.59191 0.0
H331 H 0.94412 0.33959 0.5788 0.0
H332 H 0.98131 0.33435 0.60415 0.0
H333 H 0.99161 0.38261 0.59332 0.0
H334 H 0.0651 0.41564 0.60164 0.0
H335 H 0.09668 0.41936 0.66188 0.0
H336 H 0.46127 0.13159 0.32236 0.0
H337 H 0.53108 0.16036 0.31092 0.0
H338 H 0.49871 0.08047 0.21344 0.0
H339 H 0.42787 0.05187 0.2245 0.0
H340 H 0.5763 0.12579 0.3066 0.0
H341 H 0.57252 0.1881 0.17621 0.0
H342 H 0.53197 0.17046 0.20559 0.0
H343 H 0.53851 0.13569 0.17676 0.0
C344 C 0.46884 0.11999 0.29845 0.0
C345 C 0.43899 0.08946 0.27427 0.0
C346 C 0.5089 0.13655 0.29194 0.0
C347 C 0.52032 0.12307 0.26108 0.0
C348 C 0.49065 0.09196 0.23709 0.0
H349 H 0.75624 0.18913 0.19433 0.0
H350 H 0.68461 0.16149 0.19749 0.0
C351 C 0.45023 0.07532 0.2436 0.0
C352 C 0.56345 0.14145 0.25506 0.0
H353 H 0.63409 0.1954 0.19705 0.0
C354 C 0.58888 0.14101 0.28263 0.0
C355 C 0.57998 0.16143 0.22382 0.0
C356 C 0.55449 0.16437 0.19399 0.0
C357 C 0.63017 0.15976 0.27983 0.0
C358 C 0.64676 0.1801 0.24882 0.0
C359 C 0.62137 0.18009 0.22094 0.0
C360 C 0.69032 0.20034 0.24456 0.0
C361 C 0.65565 0.15711 0.30989 0.0
C362 C 0.7175 0.23244 0.26917 0.0
C363 C 0.75859 0.24845 0.26734 0.0
C364 C 0.77312 0.23261 0.24083 0.0
C365 C 0.74592 0.20192 0.21509 0.0
C366 C 0.70495 0.18606 0.21686 0.0
H367 H 0.63769 0.13323 0.32757 0.0
H368 H 0.67851 0.15143 0.29849 0.0
H369 H 0.67122 0.18577 0.32718 0.0
H370 H 0.7069 0.24437 0.29044 0.0
H371 H 0.77883 0.27204 0.28754 0.0
H372 H 0.68369 0.57539 0.23244 0.0
H373 H 0.64454 0.5057 0.24392 0.0
H374 H 0.61446 0.53946 0.34637 0.0
H375 H 0.65332 0.60994 0.3344 0.0
H376 H 0.65816 0.4707 0.29942 0.0
H377 H 0.50673 0.45034 0.30255 0.0
H378 H 0.54749 0.49308 0.28517 0.0
H379 H 0.54399 0.49011 0.33345 0.0
C380 C 0.66821 0.568 0.25719 0.0
C381 C 0.67157 0.59807 0.28258 0.0
C382 C 0.64597 0.5281 0.26379 0.0
C383 C 0.6264 0.51714 0.29594 0.0
C384 C 0.62876 0.54707 0.32107 0.0
H385 H 0.48214 0.27939 0.36773 0.0
H386 H 0.52446 0.35137 0.3665 0.0
C387 C 0.65095 0.5873 0.31427 0.0
C388 C 0.60514 0.47445 0.30317 0.0
H389 H 0.51347 0.39545 0.31509 0.0
C390 C 0.62652 0.45429 0.30296 0.0
C391 C 0.56389 0.45299 0.30785 0.0
C392 C 0.539 0.47253 0.307 0.0
C393 C 0.60779 0.41333 0.30693 0.0
C394 C 0.56643 0.39174 0.31088 0.0
C395 C 0.5452 0.41203 0.31201 0.0
C396 C 0.54427 0.34793 0.31301 0.0
C397 C 0.63247 0.39355 0.30704 0.0
C398 C 0.54181 0.32191 0.28358 0.0
C399 C 0.51763 0.28064 0.28425 0.0
C400 C 0.49541 0.26473 0.31431 0.0
C401 C 0.49907 0.29076 0.34425 0.0
C402 C 0.5231 0.33193 0.34353 0.0
H403 H 0.66457 0.4155 0.31341 0.0
H404 H 0.62254 0.37101 0.32715 0.0
H405 H 0.62902 0.37822 0.27966 0.0
H406 H 0.55736 0.33355 0.25948 0.0
H407 H 0.51507 0.26132 0.26066 0.0
H408 H 0.97151 0.39205 0.32777 0.0
H409 H 0.93721 0.43063 0.33028 0.0
H410 H 0.87931 0.37649 0.22375 0.0
H411 H 0.9124 0.33793 0.22146 0.0
H412 H 0.93719 0.4846 0.28597 0.0
H413 H 0.78527 0.35467 0.28147 0.0
H414 H 0.82903 0.35116 0.29086 0.0
H415 H 0.81188 0.3499 0.24462 0.0
C416 C 0.95154 0.38865 0.30496 0.0
C417 C 0.94427 0.36172 0.27462 0.0
C418 C 0.93186 0.41049 0.30644 0.0
C419 C 0.90473 0.40554 0.27762 0.0
C420 C 0.89897 0.37985 0.24682 0.0
H421 H 0.82962 0.56333 0.20618 0.0
H422 H 0.85821 0.52116 0.2156 0.0
C423 C 0.91827 0.35808 0.24544 0.0
C424 C 0.88308 0.4278 0.27854 0.0
H425 H 0.79044 0.41536 0.26327 0.0
C426 C 0.90507 0.46948 0.28156 0.0
C427 C 0.84105 0.40813 0.27345 0.0
C428 C 0.81543 0.36352 0.27282 0.0
C429 C 0.8864 0.49193 0.27762 0.0
C430 C 0.84469 0.47214 0.26953 0.0
C431 C 0.82247 0.43054 0.26861 0.0
C432 C 0.8239 0.4942 0.26127 0.0
C433 C 0.91166 0.5367 0.28211 0.0
C434 C 0.79306 0.49104 0.28211 0.0
C435 C 0.77606 0.51461 0.27625 0.0
C436 C 0.78969 0.54168 0.24946 0.0
C437 C 0.81869 0.54288 0.22714 0.0
C438 C 0.83541 0.51916 0.23282 0.0
H439 H 0.9396 0.54673 0.29918 0.0
H440 H 0.91994 0.54788 0.25496 0.0
H441 H 0.89536 0.55031 0.29472 0.0
H442 H 0.78328 0.47158 0.30389 0.0
H443 H 0.75378 0.51312 0.2939 0.0
H444 H 0.05249 0.42775 0.71398 0.0
H445 H 0.08461 0.50037 0.71156 0.0
H446 H 0.16202 0.51863 0.80594 0.0
H447 H 0.13079 0.44707 0.80814 0.0
H448 H 0.09318 0.56009 0.76398 0.0
H449 H 0.24101 0.58297 0.73362 0.0
H450 H 0.19667 0.53444 0.72927 0.0
H451 H 0.22251 0.5567 0.7732 0.0
C452 C 0.07618 0.44742 0.73423 0.0
C453 C 0.08937 0.43187 0.76105 0.0
C454 C 0.09461 0.48878 0.73278 0.0
C455 C 0.12644 0.5149 0.75804 0.0
C456 C 0.1384 0.49916 0.78553 0.0
H457 H 0.27195 0.77021 0.81577 0.0
H458 H 0.24238 0.69742 0.81135 0.0
C459 C 0.12024 0.45819 0.78691 0.0
C460 C 0.14693 0.5587 0.75664 0.0
H461 H 0.23871 0.64128 0.75327 0.0
C462 C 0.12489 0.57781 0.7612 0.0
C463 C 0.18844 0.58183 0.7533 0.0
C464 C 0.21349 0.56293 0.74672 0.0
C465 C 0.14337 0.61947 0.76355 0.0
C466 C 0.18493 0.64262 0.76068 0.0
C467 C 0.20694 0.62351 0.75572 0.0
C468 C 0.20569 0.68666 0.76189 0.0
C469 C 0.11839 0.63844 0.77008 0.0
C470 C 0.19598 0.70468 0.7349 0.0
C471 C 0.21274 0.74587 0.73736 0.0
C472 C 0.23981 0.77003 0.76675 0.0
C473 C 0.25119 0.75227 0.79285 0.0
C474 C 0.23424 0.71078 0.79038 0.0
H475 H 0.08946 0.61753 0.78066 0.0
H476 H 0.13432 0.66532 0.78971 0.0
H477 H 0.11216 0.64764 0.74399 0.0
H478 H 0.1747 0.68675 0.71228 0.0
H479 H 0.20361 0.75874 0.71666 0.0
H480 H 0.35056 0.90976 0.80984 0.0
H481 H 0.39211 0.88086 0.79813 0.0
H482 H 0.44231 0.95579 0.71083 0.0
H483 H 0.40008 0.9851 0.72252 0.0
H484 H 0.39176 0.83972 0.73099 0.0
H485 H 0.54028 0.97129 0.77474 0.0
H486 H 0.49463 0.968 0.78798 0.0
H487 H 0.50912 0.97805 0.74243 0.0
C488 C 0.37052 0.92032 0.78819 0.0
C489 C 0.37189 0.94955 0.76693 0.0
C490 C 0.39426 0.90369 0.78153 0.0
C491 C 0.42033 0.91608 0.75365 0.0
C492 C 0.42262 0.94602 0.73274 0.0
H493 H 0.5916 0.84144 0.70337 0.0
H494 H 0.54913 0.87067 0.70062 0.0
C495 C 0.39859 0.96276 0.73941 0.0
C496 C 0.44409 0.89656 0.74658 0.0
H497 H 0.53822 0.91175 0.75563 0.0
C498 C 0.42385 0.85551 0.73606 0.0
C499 C 0.48588 0.91717 0.75322 0.0
C500 C 0.50896 0.96102 0.76544 0.0
C501 C 0.4442 0.83445 0.73234 0.0
C502 C 0.4859 0.85479 0.74016 0.0
C503 C 0.50625 0.89607 0.74976 0.0
C504 C 0.50908 0.83393 0.7393 0.0
C505 C 0.4208 0.79068 0.71983 0.0
C506 C 0.50048 0.80298 0.76156 0.0
C507 C 0.52461 0.78589 0.76291 0.0
C508 C 0.55804 0.79981 0.74236 0.0
C509 C 0.56596 0.83 0.71944 0.0
C510 C 0.54179 0.84687 0.71795 0.0
H511 H 0.39241 0.78257 0.70445 0.0
H512 H 0.43817 0.78181 0.70232 0.0
H513 H 0.41343 0.77334 0.74398 0.0
H514 H 0.47596 0.793 0.77891 0.0
H515 H 0.51806 0.76298 0.78111 0.0
H516 H 0.26325 0.51166 0.75495 0.0
H517 H 0.33588 0.55503 0.75731 0.0
H518 H 0.34959 0.48209 0.83279 0.0
H519 H 0.27745 0.43836 0.82983 0.0
H520 H 0.39452 0.59953 0.81261 0.0
H521 H 0.4153 0.47845 0.75135 0.0
H522 H 0.36711 0.47415 0.75235 0.0
H523 H 0.38946 0.46672 0.79223 0.0
C524 C 0.28182 0.50523 0.77234 0.0
C525 C 0.26478 0.47145 0.79192 0.0
C526 C 0.32328 0.52994 0.77362 0.0
C527 C 0.34828 0.52122 0.79449 0.0
C528 C 0.33105 0.4888 0.81568 0.0
H529 H 0.60976 0.6346 0.81795 0.0
H530 H 0.53829 0.59193 0.8263 0.0
C531 C 0.28977 0.46402 0.81421 0.0
C532 C 0.39229 0.54525 0.79337 0.0
H533 H 0.47374 0.53897 0.77184 0.0
C534 C 0.41181 0.58627 0.80371 0.0
C535 C 0.41496 0.52797 0.78176 0.0
C536 C 0.39567 0.4845 0.76846 0.0
C537 C 0.45326 0.61037 0.80288 0.0
C538 C 0.4758 0.5931 0.79105 0.0
C539 C 0.45645 0.55205 0.78123 0.0
C540 C 0.51894 0.61773 0.78592 0.0
C541 C 0.47267 0.65419 0.81472 0.0
C542 C 0.53154 0.64536 0.75981 0.0
C543 C 0.57189 0.66925 0.75489 0.0
C544 C 0.6007 0.66616 0.77599 0.0
C545 C 0.58818 0.63762 0.8014 0.0
C546 C 0.54747 0.61343 0.80625 0.0
H547 H 0.45358 0.66078 0.83209 0.0
H548 H 0.50184 0.66525 0.82999 0.0
H549 H 0.47787 0.67087 0.79027 0.0
H550 H 0.51008 0.64856 0.74322 0.0
H551 H 0.58055 0.69058 0.73472 0.0
H552 H 0.30071 0.17471 0.35972 0.0
H553 H 0.2487 0.19166 0.35321 0.0
H554 H 0.22676 0.14763 0.23962 0.0
H555 H 0.27791 0.12901 0.24659 0.0
H556 H 0.24989 0.24511 0.31259 0.0
H557 H 0.11507 0.09964 0.26937 0.0
H558 H 0.16071 0.1037 0.28709 0.0
H559 H 0.15512 0.11226 0.24048 0.0
C560 C 0.28415 0.16786 0.33356 0.0
C561 C 0.29318 0.15056 0.30368 0.0
C562 C 0.25459 0.17772 0.32981 0.0
C563 C 0.23366 0.1709 0.29596 0.0
C564 C 0.24188 0.1525 0.26619 0.0
H565 H 0.10682 0.29985 0.25531 0.0
H566 H 0.15625 0.27851 0.25529 0.0
C567 C 0.27116 0.14197 0.27013 0.0
C568 C 0.20535 0.18558 0.29183 0.0
H569 H 0.10886 0.15682 0.2674 0.0
C570 C 0.21901 0.22576 0.30274 0.0
C571 C 0.16504 0.16033 0.27912 0.0
C572 C 0.14795 0.11651 0.26867 0.0
C573 C 0.19343 0.24123 0.30203 0.0
C574 C 0.15325 0.21615 0.28884 0.0
C575 C 0.13973 0.17612 0.2773 0.0
C576 C 0.12407 0.23002 0.28884 0.0
C577 C 0.20943 0.28385 0.31677 0.0
C578 C 0.08928 0.20955 0.30708 0.0
C579 C 0.06093 0.22129 0.30659 0.0
C580 C 0.06687 0.25396 0.28808 0.0
C581 C 0.10187 0.27493 0.27022 0.0
C582 C 0.13011 0.26279 0.27029 0.0
H583 H 0.23711 0.29538 0.3347 0.0
H584 H 0.21658 0.30273 0.29373 0.0
H585 H 0.18722 0.287 0.33248 0.0
H586 H 0.08392 0.18426 0.32162 0.0
H587 H 0.03409 0.20449 0.32046 0.0
H588 H 0.90402 0.72193 0.32477 0.0
H589 H 0.97231 0.77719 0.32485 0.0
H590 H 0.93525 0.82895 0.24359 0.0
H591 H 0.86653 0.77333 0.24326 0.0
H592 H 1.00185 0.82013 0.22667 0.0
H593 H 0.02268 0.89468 0.3653 0.0
H594 H 1.00268 0.84194 0.36408 0.0
H595 H 0.97416 0.86075 0.34289 0.0
C596 C 0.9103 0.74541 0.30733 0.0
C597 C 0.88006 0.7434 0.28401 0.0
C598 C 0.9493 0.77702 0.3075 0.0
C599 C 0.95879 0.80728 0.28442 0.0
C600 C 0.92846 0.80591 0.26169 0.0
H601 H 0.18834 0.02361 0.29002 0.0
H602 H 0.11767 0.9742 0.28913 0.0
C603 C 0.88926 0.7743 0.26165 0.0
C604 C 1.00083 0.83883 0.28259 0.0
H605 H 0.08124 0.91304 0.3342 0.0
C606 C 1.01918 0.8407 0.25005 0.0
C607 C 0.02327 0.86567 0.3131 0.0
C608 C 1.00468 0.86603 0.34825 0.0
C609 C 0.05969 0.86817 0.24748 0.0
C610 C 0.08247 0.89409 0.27839 0.0
C611 C 0.06385 0.89281 0.31065 0.0
C612 C 0.12541 0.92365 0.27764 0.0
C613 C 0.07769 0.8695 0.21163 0.0
C614 C 0.15335 0.91162 0.27156 0.0
C615 C 0.19395 0.93992 0.27204 0.0
C616 C 0.2071 0.98058 0.27877 0.0
C617 C 0.17906 0.99245 0.28475 0.0
C618 C 0.13866 0.96427 0.28428 0.0
H619 H 0.05455 0.85457 0.18863 0.0
H620 H 0.09834 0.90067 0.20591 0.0
H621 H 0.09488 0.85399 0.21292 0.0
H622 H 0.14382 0.88035 0.267 0.0
H623 H 0.21501 0.93003 0.26753 0.0
H624 H 0.89729 0.16284 0.31943 0.0
H625 H 0.88034 0.09448 0.32763 0.0
H626 H 0.88399 0.07294 0.2119 0.0
H627 H 0.89789 0.1402 0.20359 0.0
H628 H 0.81965 0.01753 0.2316 0.0
H629 H 0.93798 0.03604 0.33122 0.0
H630 H 0.91243 0.0602 0.34861 0.0
H631 H 0.94087 0.0773 0.30937 0.0
C632 C 0.89542 0.14366 0.29599 0.0
C633 C 0.89894 0.15645 0.26091 0.0
C634 C 0.8859 0.10464 0.30067 0.0
C635 C 0.8812 0.07844 0.27043 0.0
C636 C 0.88723 0.09238 0.23565 0.0
H637 H 0.85743 0.84746 0.27837 0.0
H638 H 0.87955 0.91782 0.27688 0.0
C639 C 0.89545 0.13084 0.23089 0.0
C640 C 0.8662 0.0356 0.27414 0.0
H641 H 0.88064 0.971 0.32135 0.0
C642 C 0.83332 1.00743 0.25102 0.0
C643 C 0.88394 0.02223 0.29937 0.0
C644 C 0.92099 0.05056 0.32325 0.0
C645 C 0.81811 0.9665 0.25192 0.0
C646 C 0.83484 0.95306 0.2781 0.0
C647 C 0.86744 0.9812 0.30156 0.0
C648 C 0.82077 0.91015 0.28009 0.0
C649 C 0.78537 0.9384 0.22371 0.0
C650 C 0.78035 0.88218 0.28281 0.0
C651 C 0.76746 0.84162 0.28251 0.0
C652 C 0.79505 0.82869 0.28087 0.0
C653 C 0.83556 0.85674 0.27967 0.0
C654 C 0.84824 0.89699 0.27894 0.0
H655 H 0.78472 0.95363 0.19947 0.0
H656 H 0.78889 0.91284 0.21446 0.0
H657 H 0.75623 0.92689 0.23565 0.0
H658 H 0.75871 0.89165 0.28499 0.0
H659 H 0.73613 0.82049 0.28393 0.0
H660 H 0.16979 0.2888 0.69169 0.0
H661 H 0.18685 0.23667 0.69441 0.0
H662 H 0.12938 0.20435 0.79494 0.0
H663 H 0.11052 0.25498 0.79117 0.0
H664 H 0.23501 0.2351 0.7434 0.0
H665 H 0.0899 0.09673 0.74577 0.0
H666 H 0.09379 0.1427 0.73441 0.0
H667 H 0.09665 0.13343 0.78134 0.0
C668 C 0.15981 0.26969 0.71373 0.0
C669 C 0.1388 0.27573 0.74113 0.0
C670 C 0.16977 0.24012 0.71543 0.0
C671 C 0.15929 0.21637 0.7448 0.0
C672 C 0.137 0.22152 0.77154 0.0
H673 H 0.29157 0.09993 0.80962 0.0
H674 H 0.26758 0.14697 0.80509 0.0
C675 C 0.12634 0.25059 0.76944 0.0
C676 C 0.17469 0.18883 0.74895 0.0
H677 H 0.14739 0.09342 0.76387 0.0
C678 C 0.21577 0.204 0.74755 0.0
C679 C 0.14965 0.14823 0.75424 0.0
C680 C 0.10503 0.12923 0.75365 0.0
C681 C 0.23247 0.17979 0.75112 0.0
C682 C 0.20763 0.13953 0.7577 0.0
C683 C 0.16656 0.12439 0.75923 0.0
C684 C 0.22297 0.11184 0.76093 0.0
C685 C 0.27634 0.19739 0.74665 0.0
C686 C 0.20531 0.07608 0.7384 0.0
C687 C 0.21827 0.04901 0.74162 0.0
C688 C 0.24956 0.05729 0.76711 0.0
C689 C 0.26772 0.09318 0.78947 0.0
C690 C 0.25415 0.12008 0.78672 0.0
H691 H 0.28836 0.2243 0.73145 0.0
H692 H 0.29265 0.20634 0.77393 0.0
H693 H 0.28245 0.17554 0.73201 0.0
H694 H 0.1813 0.06899 0.71828 0.0
H695 H 0.20373 0.02149 0.72403 0.0
H696 H 0.16641 0.91087 0.73355 0.0
H697 H 0.09623 0.89294 0.72799 0.0
H698 H 0.08124 0.85182 0.8354 0.0
H699 H 0.15057 0.86862 0.84056 0.0
H700 H 0.02629 0.79613 0.78514 0.0
H701 H 0.03448 0.94108 0.77339 0.0
H702 H 0.06147 0.92938 0.74118 0.0
H703 H 0.07685 0.93756 0.78888 0.0
C704 C 0.14825 0.89886 0.7562 0.0
C705 C 0.16369 0.89094 0.78743 0.0
C706 C 0.10821 0.88866 0.75305 0.0
C707 C 0.08345 0.87104 0.78132 0.0
C708 C 0.09967 0.86515 0.81318 0.0
H709 H 0.85094 0.82909 0.823 0.0
H710 H 0.92168 0.85178 0.82097 0.0
C711 C 0.13931 0.8749 0.81615 0.0
C712 C 0.04002 0.85573 0.77719 0.0
H713 H 0.97047 0.88352 0.76653 0.0
C714 C 1.01405 0.81523 0.78097 0.0
C715 C 0.02416 0.8807 0.77186 0.0
C716 C 0.0506 0.92467 0.76888 0.0
C717 C 0.97277 0.79914 0.78043 0.0
C718 C 0.95683 0.82404 0.775 0.0
C719 C 0.98273 0.86442 0.77051 0.0
C720 C 0.91363 0.80938 0.77608 0.0
C721 C 0.94683 0.756 0.78712 0.0
C722 C 0.88545 0.77782 0.75162 0.0
C723 C 0.84483 0.76437 0.75311 0.0
C724 C 0.83189 0.78269 0.77875 0.0
C725 C 0.86009 0.81427 0.8031 0.0
C726 C 0.90054 0.82743 0.80181 0.0
H727 H 0.96428 0.74396 0.79983 0.0
H728 H 0.92298 0.75196 0.80505 0.0
H729 H 0.93262 0.73818 0.76075 0.0
H730 H 0.89489 0.76395 0.73105 0.0
H731 H 0.82371 0.74035 0.7337 0.0
H732 H 0.98847 0.17777 0.71187 0.0
H733 H 0.94165 0.10794 0.71972 0.0
H734 H 0.88869 0.14376 0.80374 0.0
H735 H 0.93512 0.21379 0.79552 0.0
H736 H 0.93472 0.07064 0.78255 0.0
H737 H 0.79202 0.06033 0.73939 0.0
H738 H 0.8396 0.10124 0.7297 0.0
H739 H 0.82156 0.09982 0.77416 0.0
C740 C 0.96633 0.17072 0.73153 0.0
C741 C 0.96515 0.20108 0.75293 0.0
C742 C 0.93978 0.13086 0.73612 0.0
C743 C 0.91152 0.12064 0.76211 0.0
C744 C 0.90978 0.15096 0.78305 0.0
H745 H 0.7303 0.89896 0.83417 0.0
H746 H 0.78168 0.9683 0.83062 0.0
C747 C 0.93629 0.19092 0.77837 0.0
C748 C 0.88517 0.07833 0.76837 0.0
H749 H 0.78784 1.00536 0.76711 0.0
C750 C 0.90259 0.05627 0.77905 0.0
C751 C 0.84331 0.05971 0.76379 0.0
C752 C 0.82294 0.08133 0.75081 0.0
C753 C 0.87919 0.0162 0.78584 0.0
C754 C 0.83735 0.9977 0.78141 0.0
C755 C 0.81997 0.01974 0.77069 0.0
C756 C 0.81067 0.95536 0.78729 0.0
C757 C 0.89935 0.99423 0.79833 0.0
C758 C 0.81072 0.92498 0.76486 0.0
C759 C 0.78144 0.88522 0.76697 0.0
C760 C 0.75152 0.87548 0.79126 0.0
C761 C 0.75294 0.90571 0.81509 0.0
C762 C 0.78218 0.94531 0.81304 0.0
H763 H 0.93057 1.01497 0.80912 0.0
H764 H 0.88298 0.97469 0.81976 0.0
H765 H 0.89977 0.97523 0.7749 0.0
H766 H 0.83211 0.93214 0.74446 0.0
H767 H 0.78093 0.86245 0.74823 0.0
loop_
_geom_bond_atom_site_label_1
_geom_bond_atom_site_label_2
_geom_bond_distance
_geom_bond_site_symmetry_2
_ccdc_geom_bond_type
Tb0 O3 2.453 . S
Tb0 O4 2.596 . S
Tb0 O5 2.374 . S
Tb0 O13 2.343 . S
Tb0 O15 2.353 . S
Tb0 O17 2.427 . S
Tb0 O18 2.513 . S
C1 O5 1.251 . S
C1 O7 1.263 . S
Tb2 O4 2.343 . S
Tb2 O7 2.353 . S
Tb2 O10 2.427 . S
Tb2 O11 2.513 . S
Tb2 O12 2.453 . S
Tb2 O13 2.596 . S
Tb2 O14 2.374 . S
O3 Tb0 2.453 . S
O3 C19 1.245 . S
O4 Tb0 2.596 . S
O4 Tb2 2.343 . S
O4 C19 1.259 . S
O5 Tb0 2.374 . S
O5 C1 1.251 . S
C6 O10 1.275 1_565 S
C6 O11 1.246 1_565 S
O7 C1 1.263 . S
O7 Tb2 2.353 . S
C8 O12 1.245 . S
C8 O13 1.259 . S
C9 O14 1.250 . S
C9 O15 1.263 . S
O10 Tb2 2.427 . S
O10 C6 1.275 1_545 S
O11 Tb2 2.513 . S
O11 C6 1.246 1_545 S
O12 Tb2 2.453 . S
O12 C8 1.245 . S
O13 Tb0 2.343 . S
O13 Tb2 2.596 . S
O13 C8 1.259 . S
O14 Tb2 2.374 . S
O14 C9 1.250 . S
O15 Tb0 2.353 . S
O15 C9 1.263 . S
C16 O17 1.275 . S
C16 O18 1.246 . S
O17 Tb0 2.427 . S
O17 C16 1.275 . S
O18 Tb0 2.513 . S
O18 C16 1.246 . S
C19 O3 1.245 . S
C19 O4 1.259 . S
Tb20 O23 2.453 . S
Tb20 O24 2.596 . S
Tb20 O25 2.374 . S
Tb20 O33 2.343 . S
Tb20 O35 2.353 . S
Tb20 O37 2.427 . S
Tb20 O38 2.513 . S
C21 O25 1.251 . S
C21 O27 1.263 . S
Tb22 O24 2.343 . S
Tb22 O27 2.353 . S
Tb22 O30 2.427 . S
Tb22 O31 2.513 . S
Tb22 O32 2.453 . S
Tb22 O33 2.596 . S
Tb22 O34 2.374 . S
O23 Tb20 2.453 . S
O23 C39 1.245 . S
O24 Tb20 2.596 . S
O24 Tb22 2.343 . S
O24 C39 1.259 . S
O25 Tb20 2.374 . S
O25 C21 1.251 . S
C26 O30 1.275 . S
C26 O31 1.246 . S
O27 C21 1.263 . S
O27 Tb22 2.353 . S
C28 O32 1.245 . S
C28 O33 1.259 . S
C29 O34 1.250 . S
C29 O35 1.263 . S
O30 Tb22 2.427 . S
O30 C26 1.275 . S
O31 Tb22 2.513 . S
O31 C26 1.246 . S
O32 Tb22 2.453 . S
O32 C28 1.245 . S
O33 Tb20 2.343 . S
O33 Tb22 2.596 . S
O33 C28 1.259 . S
O34 Tb22 2.374 . S
O34 C29 1.250 . S
O35 Tb20 2.353 . S
O35 C29 1.263 . S
C36 O37 1.275 . S
C36 O38 1.246 . S
O37 Tb20 2.427 . S
O37 C36 1.275 . S
O38 Tb20 2.513 . S
O38 C36 1.246 . S
C39 O23 1.245 . S
C39 O24 1.259 . S
Tb40 O43 2.453 . S
Tb40 O44 2.596 . S
Tb40 O45 2.374 . S
Tb40 O53 2.343 . S
Tb40 O55 2.353 . S
Tb40 O57 2.427 . S
Tb40 O58 2.513 . S
C41 O45 1.251 . S
C41 O47 1.263 . S
Tb42 O44 2.343 . S
Tb42 O47 2.353 . S
Tb42 O50 2.427 . S
Tb42 O51 2.513 . S
Tb42 O52 2.453 . S
Tb42 O53 2.596 . S
Tb42 O54 2.374 . S
O43 Tb40 2.453 . S
O43 C59 1.245 . S
O44 Tb40 2.596 . S
O44 Tb42 2.343 . S
O44 C59 1.259 . S
O45 Tb40 2.374 . S
O45 C41 1.251 . S
C46 O50 1.275 1_455 S
C46 O51 1.246 1_455 S
O47 C41 1.263 . S
O47 Tb42 2.353 . S
C48 O52 1.245 . S
C48 O53 1.259 . S
C49 O54 1.250 . S
C49 O55 1.263 . S
O50 Tb42 2.427 . S
O50 C46 1.275 1_655 S
O51 Tb42 2.513 . S
O51 C46 1.246 1_655 S
O52 Tb42 2.453 . S
O52 C48 1.245 . S
O53 Tb40 2.343 . S
O53 Tb42 2.596 . S
O53 C48 1.259 . S
O54 Tb42 2.374 . S
O54 C49 1.250 . S
O55 Tb40 2.353 . S
O55 C49 1.263 . S
C56 O57 1.275 . S
C56 O58 1.246 . S
O57 Tb40 2.427 . S
O57 C56 1.275 . S
O58 Tb40 2.513 . S
O58 C56 1.246 . S
C59 O43 1.245 . S
C59 O44 1.259 . S
Tb60 O63 2.453 . S
Tb60 O64 2.596 . S
Tb60 O65 2.374 . S
Tb60 O73 2.343 . S
Tb60 O75 2.353 . S
Tb60 O77 2.427 . S
Tb60 O78 2.513 . S
C61 O65 1.251 . S
C61 O67 1.263 . S
Tb62 O64 2.343 . S
Tb62 O67 2.353 . S
Tb62 O70 2.427 . S
Tb62 O71 2.513 . S
Tb62 O72 2.453 . S
Tb62 O73 2.596 . S
Tb62 O74 2.374 . S
O63 Tb60 2.453 . S
O63 C79 1.245 . S
O64 Tb60 2.596 . S
O64 Tb62 2.343 . S
O64 C79 1.259 . S
O65 Tb60 2.374 . S
O65 C61 1.251 . S
C66 O70 1.275 . S
C66 O71 1.246 . S
O67 C61 1.263 . S
O67 Tb62 2.353 . S
C68 O72 1.245 . S
C68 O73 1.259 . S
C69 O74 1.250 . S
C69 O75 1.263 . S
O70 Tb62 2.427 . S
O70 C66 1.275 . S
O71 Tb62 2.513 . S
O71 C66 1.246 . S
O72 Tb62 2.453 . S
O72 C68 1.245 . S
O73 Tb60 2.343 . S
O73 Tb62 2.596 . S
O73 C68 1.259 . S
O74 Tb62 2.374 . S
O74 C69 1.250 . S
O75 Tb60 2.353 . S
O75 C69 1.263 . S
C76 O77 1.275 1_655 S
C76 O78 1.246 1_655 S
O77 Tb60 2.427 . S
O77 C76 1.275 1_455 S
O78 Tb60 2.513 . S
O78 C76 1.246 1_455 S
C79 O63 1.245 . S
C79 O64 1.259 . S
Tb80 O83 2.453 . S
Tb80 O84 2.596 . S
Tb80 O85 2.374 . S
Tb80 O93 2.343 . S
Tb80 O95 2.353 . S
Tb80 O97 2.427 . S
Tb80 O98 2.513 . S
C81 O85 1.251 . S
C81 O87 1.263 . S
Tb82 O84 2.343 . S
Tb82 O87 2.353 . S
Tb82 O90 2.427 . S
Tb82 O91 2.513 . S
Tb82 O92 2.453 . S
Tb82 O93 2.596 . S
Tb82 O94 2.374 . S
O83 Tb80 2.453 . S
O83 C99 1.245 . S
O84 Tb80 2.596 . S
O84 Tb82 2.343 . S
O84 C99 1.259 . S
O85 Tb80 2.374 . S
O85 C81 1.251 . S
C86 O90 1.275 . S
C86 O91 1.246 . S
O87 C81 1.263 . S
O87 Tb82 2.353 . S
C88 O92 1.245 . S
C88 O93 1.259 . S
C89 O94 1.250 . S
C89 O95 1.263 . S
O90 Tb82 2.427 . S
O90 C86 1.275 . S
O91 Tb82 2.513 . S
O91 C86 1.246 . S
O92 Tb82 2.453 . S
O92 C88 1.245 . S
O93 Tb80 2.343 . S
O93 Tb82 2.596 . S
O93 C88 1.259 . S
O94 Tb82 2.374 . S
O94 C89 1.250 . S
O95 Tb80 2.353 . S
O95 C89 1.263 . S
C96 O97 1.275 1_545 S
C96 O98 1.246 1_545 S
O97 Tb80 2.427 . S
O97 C96 1.275 1_565 S
O98 Tb80 2.513 . S
O98 C96 1.246 1_565 S
C99 O83 1.245 . S
C99 O84 1.259 . S
Tb100 O103 2.453 . S
Tb100 O104 2.596 . S
Tb100 O105 2.374 . S
Tb100 O113 2.343 . S
Tb100 O115 2.353 . S
Tb100 O117 2.427 . S
Tb100 O118 2.513 . S
C101 O105 1.251 . S
C101 O107 1.263 . S
Tb102 O104 2.343 . S
Tb102 O107 2.353 . S
Tb102 O110 2.427 . S
Tb102 O111 2.513 . S
Tb102 O112 2.453 . S
Tb102 O113 2.596 . S
Tb102 O114 2.374 . S
O103 Tb100 2.453 . S
O103 C119 1.245 . S
O104 Tb100 2.596 . S
O104 Tb102 2.343 . S
O104 C119 1.259 . S
O105 Tb100 2.374 . S
O105 C101 1.251 . S
C106 O110 1.275 . S
C106 O111 1.246 . S
O107 C101 1.263 . S
O107 Tb102 2.353 . S
C108 O112 1.245 . S
C108 O113 1.259 . S
C109 O114 1.250 . S
C109 O115 1.263 . S
O110 Tb102 2.427 . S
O110 C106 1.275 . S
O111 Tb102 2.513 . S
O111 C106 1.246 . S
O112 Tb102 2.453 . S
O112 C108 1.245 . S
O113 Tb100 2.343 . S
O113 Tb102 2.596 . S
O113 C108 1.259 . S
O114 Tb102 2.374 . S
O114 C109 1.250 . S
O115 Tb100 2.353 . S
O115 C109 1.263 . S
C116 O117 1.275 . S
C116 O118 1.246 . S
O117 Tb100 2.427 . S
O117 C116 1.275 . S
O118 Tb100 2.513 . S
O118 C116 1.246 . S
C119 O103 1.245 . S
C119 O104 1.259 . S
H120 C128 0.929 . S
H121 C130 0.930 . S
H122 C132 0.930 1_545 S
H123 C135 0.929 . S
H124 C138 0.930 . S
H125 C140 0.960 . S
H126 C140 0.960 1_565 S
H127 C140 0.960 . S
C128 H120 0.929 . S
C128 C129 1.377 . S
C128 C130 1.384 . S
C129 C128 1.377 . S
C129 C135 1.390 . S
C130 H121 0.930 . S
C130 C128 1.384 . S
C130 C131 1.372 . S
C131 C130 1.372 . S
C131 C132 1.400 . S
C131 C136 1.490 . S
C132 H122 0.930 1_565 S
C132 C131 1.400 . S
C132 C135 1.386 . S
H133 C149 0.930 . S
H134 C150 0.931 . S
C135 H123 0.929 . S
C135 C129 1.390 . S
C135 C132 1.386 . S
C136 C131 1.490 . S
C136 C138 1.395 . S
C136 C139 1.403 1_565 S
H137 C143 0.930 . S
C138 H124 0.930 . S
C138 C136 1.395 . S
C138 C141 1.403 1_556 S
C139 C136 1.403 1_545 S
C139 C140 1.524 . S
C139 C143 1.400 1_556 S
C140 H125 0.960 . S
C140 H126 0.960 1_545 S
C140 H127 0.960 . S
C140 C139 1.524 . S
C141 C138 1.403 1_554 S
C141 C142 1.392 1_565 S
C141 C145 1.495 . S
C142 C141 1.392 1_545 S
C142 C143 1.385 . S
C142 C144 1.478 . S
C143 H137 0.930 . S
C143 C139 1.400 1_554 S
C143 C142 1.385 . S
C144 C142 1.478 . S
C144 C146 1.381 . S
C144 C150 1.383 . S
C145 C141 1.495 . S
C145 H151 0.959 . S
C145 H152 0.951 1_565 S
C145 H153 0.960 . S
C146 C144 1.381 . S
C146 C147 1.394 . S
C146 H154 0.930 1_545 S
C147 C146 1.394 . S
C147 C148 1.383 . S
C147 H155 0.929 . S
C148 C147 1.383 . S
C148 C149 1.377 . S
C149 H133 0.930 . S
C149 C148 1.377 . S
C149 C150 1.379 . S
C150 H134 0.931 . S
C150 C144 1.383 . S
C150 C149 1.379 . S
H151 C145 0.959 . S
H152 C145 0.951 1_545 S
H153 C145 0.960 . S
H154 C146 0.930 1_565 S
H155 C147 0.929 . S
H156 C164 0.929 . S
H157 C166 0.930 . S
H158 C168 0.930 . S
H159 C171 0.929 . S
H160 C174 0.930 . S
H161 C176 0.960 . S
H162 C176 0.960 . S
H163 C176 0.960 . S
C164 H156 0.929 . S
C164 C165 1.377 . S
C164 C166 1.384 . S
C165 C164 1.377 . S
C165 C171 1.390 . S
C166 H157 0.930 . S
C166 C164 1.384 . S
C166 C167 1.372 . S
C167 C166 1.372 . S
C167 C168 1.400 . S
C167 C172 1.490 . S
C168 H158 0.930 . S
C168 C167 1.400 . S
C168 C171 1.386 . S
H169 C185 0.930 . S
H170 C186 0.931 . S
C171 H159 0.929 . S
C171 C165 1.390 . S
C171 C168 1.386 . S
C172 C167 1.490 . S
C172 C174 1.395 . S
C172 C175 1.403 . S
H173 C179 0.930 . S
C174 H160 0.930 . S
C174 C172 1.395 . S
C174 C177 1.403 . S
C175 C172 1.403 . S
C175 C176 1.524 . S
C175 C179 1.400 . S
C176 H161 0.960 . S
C176 H162 0.960 . S
C176 H163 0.960 . S
C176 C175 1.524 . S
C177 C174 1.403 . S
C177 C178 1.392 . S
C177 C181 1.495 . S
C178 C177 1.392 . S
C178 C179 1.385 . S
C178 C180 1.478 . S
C179 H173 0.930 . S
C179 C175 1.400 . S
C179 C178 1.385 . S
C180 C178 1.478 . S
C180 C182 1.381 . S
C180 C186 1.383 . S
C181 C177 1.495 . S
C181 H187 0.959 . S
C181 H188 0.961 . S
C181 H189 0.960 . S
C182 C180 1.381 . S
C182 C183 1.394 . S
C182 H190 0.930 . S
C183 C182 1.394 . S
C183 C184 1.383 . S
C183 H191 0.929 . S
C184 C183 1.383 . S
C184 C185 1.377 . S
C185 H169 0.930 . S
C185 C184 1.377 . S
C185 C186 1.379 . S
C186 H170 0.931 . S
C186 C180 1.383 . S
C186 C185 1.379 . S
H187 C181 0.959 . S
H188 C181 0.961 . S
H189 C181 0.960 . S
H190 C182 0.930 . S
H191 C183 0.929 . S
H192 C200 0.929 . S
H193 C202 0.930 . S
H194 C204 0.930 1_455 S
H195 C207 0.929 . S
H196 C210 0.930 . S
H197 C212 0.960 . S
H198 C212 0.960 . S
H199 C212 0.960 . S
C200 H192 0.929 . S
C200 C201 1.377 . S
C200 C202 1.384 . S
C201 C200 1.377 . S
C201 C207 1.390 . S
C202 H193 0.930 . S
C202 C200 1.384 . S
C202 C203 1.372 . S
C203 C202 1.372 . S
C203 C204 1.400 . S
C203 C208 1.490 . S
C204 H194 0.930 1_655 S
C204 C203 1.400 . S
C204 C207 1.386 . S
H205 C221 0.930 . S
H206 C222 0.931 . S
C207 H195 0.929 . S
C207 C201 1.390 . S
C207 C204 1.386 . S
C208 C203 1.490 . S
C208 C210 1.395 . S
C208 C211 1.403 1_655 S
H209 C215 0.930 . S
C210 H196 0.930 . S
C210 C208 1.395 . S
C210 C213 1.403 1_554 S
C211 C208 1.403 1_455 S
C211 C212 1.524 . S
C211 C215 1.400 1_554 S
C212 H197 0.960 . S
C212 H198 0.960 . S
C212 H199 0.960 . S
C212 C211 1.524 . S
C213 C210 1.403 1_556 S
C213 C214 1.392 1_655 S
C213 C217 1.495 . S
C214 C213 1.392 1_455 S
C214 C215 1.385 . S
C214 C216 1.478 . S
C215 H209 0.930 . S
C215 C211 1.400 1_556 S
C215 C214 1.385 . S
C216 C214 1.478 . S
C216 C218 1.381 . S
C216 C222 1.383 . S
C217 C213 1.495 . S
C217 H223 0.959 . S
C217 H224 0.961 . S
C217 H225 0.960 . S
C218 C216 1.381 . S
C218 C219 1.394 . S
C218 H226 0.930 1_455 S
C219 C218 1.394 . S
C219 C220 1.383 . S
C219 H227 0.929 . S
C220 C219 1.383 . S
C220 C221 1.377 . S
C221 H205 0.930 . S
C221 C220 1.377 . S
C221 C222 1.379 . S
C222 H206 0.931 . S
C222 C216 1.383 . S
C222 C221 1.379 . S
H223 C217 0.959 . S
H224 C217 0.961 . S
H225 C217 0.960 . S
H226 C218 0.930 1_655 S
H227 C219 0.929 . S
H228 C236 0.929 . S
H229 C238 0.930 . S
H230 C240 0.930 1_565 S
H231 C243 0.929 . S
H232 C246 0.930 . S
H233 C248 0.960 1_565 S
H234 C248 0.960 . S
H235 C248 0.954 1_565 S
C236 H228 0.929 . S
C236 C237 1.377 . S
C236 C238 1.384 . S
C237 C236 1.377 . S
C237 C243 1.390 . S
C238 H229 0.930 . S
C238 C236 1.384 . S
C238 C239 1.372 . S
C239 C238 1.372 . S
C239 C240 1.400 . S
C239 C244 1.490 . S
C240 H230 0.930 1_545 S
C240 C239 1.400 . S
C240 C243 1.386 . S
H241 C257 0.930 . S
H242 C258 0.931 . S
C243 H231 0.929 . S
C243 C237 1.390 . S
C243 C240 1.386 . S
C244 C239 1.490 . S
C244 C246 1.395 . S
C244 C247 1.403 . S
H245 C251 0.930 . S
C246 H232 0.930 . S
C246 C244 1.395 . S
C246 C249 1.403 1_545 S
C247 C244 1.403 . S
C247 C248 1.524 . S
C247 C251 1.400 1_545 S
C248 H233 0.960 1_545 S
C248 H234 0.960 . S
C248 H235 0.954 1_545 S
C248 C247 1.524 . S
C249 C246 1.403 1_565 S
C249 C250 1.392 . S
C249 C253 1.495 . S
C250 C249 1.392 . S
C250 C251 1.385 . S
C250 C252 1.478 . S
C251 H245 0.930 . S
C251 C247 1.400 1_565 S
C251 C250 1.385 . S
C252 C250 1.478 . S
C252 C254 1.381 . S
C252 C258 1.383 . S
C253 C249 1.495 . S
C253 H259 0.959 1_565 S
C253 H260 0.961 . S
C253 H261 0.960 1_565 S
C254 C252 1.381 . S
C254 C255 1.394 . S
C254 H262 0.930 1_565 S
C255 C254 1.394 . S
C255 C256 1.383 . S
C255 H263 0.929 . S
C256 C255 1.383 . S
C256 C257 1.377 . S
C257 H241 0.930 . S
C257 C256 1.377 . S
C257 C258 1.379 . S
C258 H242 0.931 . S
C258 C252 1.383 . S
C258 C257 1.379 . S
H259 C253 0.959 1_545 S
H260 C253 0.961 . S
H261 C253 0.960 1_545 S
H262 C254 0.930 1_545 S
H263 C255 0.929 . S
H264 C272 0.929 . S
H265 C274 0.930 . S
H266 C276 0.930 . S
H267 C279 0.929 . S
H268 C282 0.930 . S
H269 C284 0.960 . S
H270 C284 0.960 . S
H271 C284 0.960 . S
C272 H264 0.929 . S
C272 C273 1.377 . S
C272 C274 1.384 . S
C273 C272 1.377 . S
C273 C279 1.390 . S
C274 H265 0.930 . S
C274 C272 1.384 . S
C274 C275 1.372 . S
C275 C274 1.372 . S
C275 C276 1.400 . S
C275 C280 1.490 . S
C276 H266 0.930 . S
C276 C275 1.400 . S
C276 C279 1.386 . S
H277 C293 0.930 . S
H278 C294 0.931 . S
C279 H267 0.929 . S
C279 C273 1.390 . S
C279 C276 1.386 . S
C280 C275 1.490 . S
C280 C282 1.395 . S
C280 C283 1.403 . S
H281 C287 0.930 . S
C282 H268 0.930 . S
C282 C280 1.395 . S
C282 C285 1.403 1_556 S
C283 C280 1.403 . S
C283 C284 1.524 . S
C283 C287 1.400 1_556 S
C284 H269 0.960 . S
C284 H270 0.960 . S
C284 H271 0.960 . S
C284 C283 1.524 . S
C285 C282 1.403 1_554 S
C285 C286 1.392 . S
C285 C289 1.495 . S
C286 C285 1.392 . S
C286 C287 1.385 . S
C286 C288 1.478 . S
C287 H281 0.930 . S
C287 C283 1.400 1_554 S
C287 C286 1.385 . S
C288 C286 1.478 . S
C288 C290 1.381 . S
C288 C294 1.383 . S
C289 C285 1.495 . S
C289 H295 0.959 . S
C289 H296 0.961 . S
C289 H297 0.960 . S
C290 C288 1.381 . S
C290 C291 1.394 . S
C290 H298 0.930 . S
C291 C290 1.394 . S
C291 C292 1.383 . S
C291 H299 0.929 . S
C292 C291 1.383 . S
C292 C293 1.377 . S
C293 H277 0.930 . S
C293 C292 1.377 . S
C293 C294 1.379 . S
C294 H278 0.931 . S
C294 C288 1.383 . S
C294 C293 1.379 . S
H295 C289 0.959 . S
H296 C289 0.961 . S
H297 C289 0.960 . S
H298 C290 0.930 . S
H299 C291 0.929 . S
H300 C308 0.929 . S
H301 C310 0.930 . S
H302 C312 0.930 . S
H303 C315 0.929 . S
H304 C318 0.930 . S
H305 C320 0.960 . S
H306 C320 0.960 . S
H307 C320 0.960 . S
C308 H300 0.929 . S
C308 C309 1.377 . S
C308 C310 1.384 . S
C309 C308 1.377 . S
C309 C315 1.390 . S
C310 H301 0.930 . S
C310 C308 1.384 . S
C310 C311 1.372 . S
C311 C310 1.372 . S
C311 C312 1.400 . S
C311 C316 1.490 . S
C312 H302 0.930 . S
C312 C311 1.400 . S
C312 C315 1.386 . S
H313 C329 0.930 . S
H314 C330 0.931 . S
C315 H303 0.929 . S
C315 C309 1.390 . S
C315 C312 1.386 . S
C316 C311 1.490 . S
C316 C318 1.395 . S
C316 C319 1.403 1_655 S
H317 C323 0.930 . S
C318 H304 0.930 . S
C318 C316 1.395 . S
C318 C321 1.403 . S
C319 C316 1.403 1_455 S
C319 C320 1.524 . S
C319 C323 1.400 . S
C320 H305 0.960 . S
C320 H306 0.960 . S
C320 H307 0.960 . S
C320 C319 1.524 . S
C321 C318 1.403 . S
C321 C322 1.392 1_655 S
C321 C325 1.495 . S
C322 C321 1.392 1_455 S
C322 C323 1.385 . S
C322 C324 1.478 . S
C323 H317 0.930 . S
C323 C319 1.400 . S
C323 C322 1.385 . S
C324 C322 1.478 . S
C324 C326 1.381 . S
C324 C330 1.383 . S
C325 C321 1.495 . S
C325 H331 0.959 . S
C325 H332 0.961 . S
C325 H333 0.960 . S
C326 C324 1.381 . S
C326 C327 1.394 . S
C326 H334 0.930 . S
C327 C326 1.394 . S
C327 C328 1.383 . S
C327 H335 0.929 . S
C328 C327 1.383 . S
C328 C329 1.377 . S
C329 H313 0.930 . S
C329 C328 1.377 . S
C329 C330 1.379 . S
C330 H314 0.931 . S
C330 C324 1.383 . S
C330 C329 1.379 . S
H331 C325 0.959 . S
H332 C325 0.961 . S
H333 C325 0.960 . S
H334 C326 0.930 . S
H335 C327 0.929 . S
H336 C344 0.929 . S
H337 C346 0.930 . S
H338 C348 0.930 . S
H339 C351 0.929 . S
H340 C354 0.930 . S
H341 C356 0.960 . S
H342 C356 0.960 . S
H343 C356 0.960 . S
C344 H336 0.929 . S
C344 C345 1.377 . S
C344 C346 1.384 . S
C345 C344 1.377 . S
C345 C351 1.390 . S
C346 H337 0.930 . S
C346 C344 1.384 . S
C346 C347 1.372 . S
C347 C346 1.372 . S
C347 C348 1.400 . S
C347 C352 1.490 . S
C348 H338 0.930 . S
C348 C347 1.400 . S
C348 C351 1.386 . S
H349 C365 0.930 . S
H350 C366 0.931 . S
C351 H339 0.929 . S
C351 C345 1.390 . S
C351 C348 1.386 . S
C352 C347 1.490 . S
C352 C354 1.395 . S
C352 C355 1.403 . S
H353 C359 0.930 . S
C354 H340 0.930 . S
C354 C352 1.395 . S
C354 C357 1.403 . S
C355 C352 1.403 . S
C355 C356 1.524 . S
C355 C359 1.400 . S
C356 H341 0.960 . S
C356 H342 0.960 . S
C356 H343 0.960 . S
C356 C355 1.524 . S
C357 C354 1.403 . S
C357 C358 1.392 . S
C357 C361 1.495 . S
C358 C357 1.392 . S
C358 C359 1.385 . S
C358 C360 1.478 . S
C359 H353 0.930 . S
C359 C355 1.400 . S
C359 C358 1.385 . S
C360 C358 1.478 . S
C360 C362 1.381 . S
C360 C366 1.383 . S
C361 C357 1.495 . S
C361 H367 0.959 . S
C361 H368 0.961 . S
C361 H369 0.960 . S
C362 C360 1.381 . S
C362 C363 1.394 . S
C362 H370 0.930 . S
C363 C362 1.394 . S
C363 C364 1.383 . S
C363 H371 0.929 . S
C364 C363 1.383 . S
C364 C365 1.377 . S
C365 H349 0.930 . S
C365 C364 1.377 . S
C365 C366 1.379 . S
C366 H350 0.931 . S
C366 C360 1.383 . S
C366 C365 1.379 . S
H367 C361 0.959 . S
H368 C361 0.961 . S
H369 C361 0.960 . S
H370 C362 0.930 . S
H371 C363 0.929 . S
H372 C380 0.929 . S
H373 C382 0.930 . S
H374 C384 0.930 . S
H375 C387 0.929 . S
H376 C390 0.930 . S
H377 C392 0.960 . S
H378 C392 0.960 . S
H379 C392 0.960 . S
C380 H372 0.929 . S
C380 C381 1.377 . S
C380 C382 1.384 . S
C381 C380 1.377 . S
C381 C387 1.390 . S
C382 H373 0.930 . S
C382 C380 1.384 . S
C382 C383 1.372 . S
C383 C382 1.372 . S
C383 C384 1.400 . S
C383 C388 1.490 . S
C384 H374 0.930 . S
C384 C383 1.400 . S
C384 C387 1.386 . S
H385 C401 0.930 . S
H386 C402 0.931 . S
C387 H375 0.929 . S
C387 C381 1.390 . S
C387 C384 1.386 . S
C388 C383 1.490 . S
C388 C390 1.395 . S
C388 C391 1.403 . S
H389 C395 0.930 . S
C390 H376 0.930 . S
C390 C388 1.395 . S
C390 C393 1.403 . S
C391 C388 1.403 . S
C391 C392 1.524 . S
C391 C395 1.400 . S
C392 H377 0.960 . S
C392 H378 0.960 . S
C392 H379 0.960 . S
C392 C391 1.524 . S
C393 C390 1.403 . S
C393 C394 1.392 . S
C393 C397 1.495 . S
C394 C393 1.392 . S
C394 C395 1.385 . S
C394 C396 1.478 . S
C395 H389 0.930 . S
C395 C391 1.400 . S
C395 C394 1.385 . S
C396 C394 1.478 . S
C396 C398 1.381 . S
C396 C402 1.383 . S
C397 C393 1.495 . S
C397 H403 0.959 . S
C397 H404 0.961 . S
C397 H405 0.960 . S
C398 C396 1.381 . S
C398 C399 1.394 . S
C398 H406 0.930 . S
C399 C398 1.394 . S
C399 C400 1.383 . S
C399 H407 0.929 . S
C400 C399 1.383 . S
C400 C401 1.377 . S
C401 H385 0.930 . S
C401 C400 1.377 . S
C401 C402 1.379 . S
C402 H386 0.931 . S
C402 C396 1.383 . S
C402 C401 1.379 . S
H403 C397 0.959 . S
H404 C397 0.961 . S
H405 C397 0.960 . S
H406 C398 0.930 . S
H407 C399 0.929 . S
H408 C416 0.929 . S
H409 C418 0.930 . S
H410 C420 0.930 . S
H411 C423 0.929 . S
H412 C426 0.930 . S
H413 C428 0.960 . S
H414 C428 0.960 . S
H415 C428 0.960 . S
C416 H408 0.929 . S
C416 C417 1.377 . S
C416 C418 1.384 . S
C417 C416 1.377 . S
C417 C423 1.390 . S
C418 H409 0.930 . S
C418 C416 1.384 . S
C418 C419 1.372 . S
C419 C418 1.372 . S
C419 C420 1.400 . S
C419 C424 1.490 . S
C420 H410 0.930 . S
C420 C419 1.400 . S
C420 C423 1.386 . S
H421 C437 0.930 . S
H422 C438 0.931 . S
C423 H411 0.929 . S
C423 C417 1.390 . S
C423 C420 1.386 . S
C424 C419 1.490 . S
C424 C426 1.395 . S
C424 C427 1.403 . S
H425 C431 0.930 . S
C426 H412 0.930 . S
C426 C424 1.395 . S
C426 C429 1.403 . S
C427 C424 1.403 . S
C427 C428 1.524 . S
C427 C431 1.400 . S
C428 H413 0.960 . S
C428 H414 0.960 . S
C428 H415 0.960 . S
C428 C427 1.524 . S
C429 C426 1.403 . S
C429 C430 1.392 . S
C429 C433 1.495 . S
C430 C429 1.392 . S
C430 C431 1.385 . S
C430 C432 1.478 . S
C431 H425 0.930 . S
C431 C427 1.400 . S
C431 C430 1.385 . S
C432 C430 1.478 . S
C432 C434 1.381 . S
C432 C438 1.383 . S
C433 C429 1.495 . S
C433 H439 0.959 . S
C433 H440 0.961 . S
C433 H441 0.960 . S
C434 C432 1.381 . S
C434 C435 1.394 . S
C434 H442 0.930 . S
C435 C434 1.394 . S
C435 C436 1.383 . S
C435 H443 0.929 . S
C436 C435 1.383 . S
C436 C437 1.377 . S
C437 H421 0.930 . S
C437 C436 1.377 . S
C437 C438 1.379 . S
C438 H422 0.931 . S
C438 C432 1.383 . S
C438 C437 1.379 . S
H439 C433 0.959 . S
H440 C433 0.961 . S
H441 C433 0.960 . S
H442 C434 0.930 . S
H443 C435 0.929 . S
H444 C452 0.929 . S
H445 C454 0.930 . S
H446 C456 0.930 . S
H447 C459 0.929 . S
H448 C462 0.930 . S
H449 C464 0.960 . S
H450 C464 0.960 . S
H451 C464 0.960 . S
C452 H444 0.929 . S
C452 C453 1.377 . S
C452 C454 1.384 . S
C453 C452 1.377 . S
C453 C459 1.390 . S
C454 H445 0.930 . S
C454 C452 1.384 . S
C454 C455 1.372 . S
C455 C454 1.372 . S
C455 C456 1.400 . S
C455 C460 1.490 . S
C456 H446 0.930 . S
C456 C455 1.400 . S
C456 C459 1.386 . S
H457 C473 0.930 . S
H458 C474 0.931 . S
C459 H447 0.929 . S
C459 C453 1.390 . S
C459 C456 1.386 . S
C460 C455 1.490 . S
C460 C462 1.395 . S
C460 C463 1.403 . S
H461 C467 0.930 . S
C462 H448 0.930 . S
C462 C460 1.395 . S
C462 C465 1.403 . S
C463 C460 1.403 . S
C463 C464 1.524 . S
C463 C467 1.400 . S
C464 H449 0.960 . S
C464 H450 0.960 . S
C464 H451 0.960 . S
C464 C463 1.524 . S
C465 C462 1.403 . S
C465 C466 1.392 . S
C465 C469 1.495 . S
C466 C465 1.392 . S
C466 C467 1.385 . S
C466 C468 1.478 . S
C467 H461 0.930 . S
C467 C463 1.400 . S
C467 C466 1.385 . S
C468 C466 1.478 . S
C468 C470 1.381 . S
C468 C474 1.383 . S
C469 C465 1.495 . S
C469 H475 0.959 . S
C469 H476 0.961 . S
C469 H477 0.960 . S
C470 C468 1.381 . S
C470 C471 1.394 . S
C470 H478 0.930 . S
C471 C470 1.394 . S
C471 C472 1.383 . S
C471 H479 0.929 . S
C472 C471 1.383 . S
C472 C473 1.377 . S
C473 H457 0.930 . S
C473 C472 1.377 . S
C473 C474 1.379 . S
C474 H458 0.931 . S
C474 C468 1.383 . S
C474 C473 1.379 . S
H475 C469 0.959 . S
H476 C469 0.961 . S
H477 C469 0.960 . S
H478 C470 0.930 . S
H479 C471 0.929 . S
H480 C488 0.929 . S
H481 C490 0.930 . S
H482 C492 0.930 . S
H483 C495 0.929 . S
H484 C498 0.930 . S
H485 C500 0.960 . S
H486 C500 0.960 . S
H487 C500 0.960 . S
C488 H480 0.929 . S
C488 C489 1.377 . S
C488 C490 1.384 . S
C489 C488 1.377 . S
C489 C495 1.390 . S
C490 H481 0.930 . S
C490 C488 1.384 . S
C490 C491 1.372 . S
C491 C490 1.372 . S
C491 C492 1.400 . S
C491 C496 1.490 . S
C492 H482 0.930 . S
C492 C491 1.400 . S
C492 C495 1.386 . S
H493 C509 0.930 . S
H494 C510 0.931 . S
C495 H483 0.929 . S
C495 C489 1.390 . S
C495 C492 1.386 . S
C496 C491 1.490 . S
C496 C498 1.395 . S
C496 C499 1.403 . S
H497 C503 0.930 . S
C498 H484 0.930 . S
C498 C496 1.395 . S
C498 C501 1.403 . S
C499 C496 1.403 . S
C499 C500 1.524 . S
C499 C503 1.400 . S
C500 H485 0.960 . S
C500 H486 0.960 . S
C500 H487 0.960 . S
C500 C499 1.524 . S
C501 C498 1.403 . S
C501 C502 1.392 . S
C501 C505 1.495 . S
C502 C501 1.392 . S
C502 C503 1.385 . S
C502 C504 1.478 . S
C503 H497 0.930 . S
C503 C499 1.400 . S
C503 C502 1.385 . S
C504 C502 1.478 . S
C504 C506 1.381 . S
C504 C510 1.383 . S
C505 C501 1.495 . S
C505 H511 0.959 . S
C505 H512 0.961 . S
C505 H513 0.960 . S
C506 C504 1.381 . S
C506 C507 1.394 . S
C506 H514 0.930 . S
C507 C506 1.394 . S
C507 C508 1.383 . S
C507 H515 0.929 . S
C508 C507 1.383 . S
C508 C509 1.377 . S
C509 H493 0.930 . S
C509 C508 1.377 . S
C509 C510 1.379 . S
C510 H494 0.931 . S
C510 C504 1.383 . S
C510 C509 1.379 . S
H511 C505 0.959 . S
H512 C505 0.961 . S
H513 C505 0.960 . S
H514 C506 0.930 . S
H515 C507 0.929 . S
H516 C524 0.929 . S
H517 C526 0.930 . S
H518 C528 0.930 . S
H519 C531 0.929 . S
H520 C534 0.930 . S
H521 C536 0.960 . S
H522 C536 0.960 . S
H523 C536 0.960 . S
C524 H516 0.929 . S
C524 C525 1.377 . S
C524 C526 1.384 . S
C525 C524 1.377 . S
C525 C531 1.390 . S
C526 H517 0.930 . S
C526 C524 1.384 . S
C526 C527 1.372 . S
C527 C526 1.372 . S
C527 C528 1.400 . S
C527 C532 1.490 . S
C528 H518 0.930 . S
C528 C527 1.400 . S
C528 C531 1.386 . S
H529 C545 0.930 . S
H530 C546 0.931 . S
C531 H519 0.929 . S
C531 C525 1.390 . S
C531 C528 1.386 . S
C532 C527 1.490 . S
C532 C534 1.395 . S
C532 C535 1.403 . S
H533 C539 0.930 . S
C534 H520 0.930 . S
C534 C532 1.395 . S
C534 C537 1.403 . S
C535 C532 1.403 . S
C535 C536 1.524 . S
C535 C539 1.400 . S
C536 H521 0.960 . S
C536 H522 0.960 . S
C536 H523 0.960 . S
C536 C535 1.524 . S
C537 C534 1.403 . S
C537 C538 1.392 . S
C537 C541 1.495 . S
C538 C537 1.392 . S
C538 C539 1.385 . S
C538 C540 1.478 . S
C539 H533 0.930 . S
C539 C535 1.400 . S
C539 C538 1.385 . S
C540 C538 1.478 . S
C540 C542 1.381 . S
C540 C546 1.383 . S
C541 C537 1.495 . S
C541 H547 0.959 . S
C541 H548 0.961 . S
C541 H549 0.960 . S
C542 C540 1.381 . S
C542 C543 1.394 . S
C542 H550 0.930 . S
C543 C542 1.394 . S
C543 C544 1.383 . S
C543 H551 0.929 . S
C544 C543 1.383 . S
C544 C545 1.377 . S
C545 H529 0.930 . S
C545 C544 1.377 . S
C545 C546 1.379 . S
C546 H530 0.931 . S
C546 C540 1.383 . S
C546 C545 1.379 . S
H547 C541 0.959 . S
H548 C541 0.961 . S
H549 C541 0.960 . S
H550 C542 0.930 . S
H551 C543 0.929 . S
H552 C560 0.929 . S
H553 C562 0.930 . S
H554 C564 0.930 . S
H555 C567 0.929 . S
H556 C570 0.930 . S
H557 C572 0.960 . S
H558 C572 0.960 . S
H559 C572 0.960 . S
C560 H552 0.929 . S
C560 C561 1.377 . S
C560 C562 1.384 . S
C561 C560 1.377 . S
C561 C567 1.390 . S
C562 H553 0.930 . S
C562 C560 1.384 . S
C562 C563 1.372 . S
C563 C562 1.372 . S
C563 C564 1.400 . S
C563 C568 1.490 . S
C564 H554 0.930 . S
C564 C563 1.400 . S
C564 C567 1.386 . S
H565 C581 0.930 . S
H566 C582 0.931 . S
C567 H555 0.929 . S
C567 C561 1.390 . S
C567 C564 1.386 . S
C568 C563 1.490 . S
C568 C570 1.395 . S
C568 C571 1.403 . S
H569 C575 0.930 . S
C570 H556 0.930 . S
C570 C568 1.395 . S
C570 C573 1.403 . S
C571 C568 1.403 . S
C571 C572 1.524 . S
C571 C575 1.400 . S
C572 H557 0.960 . S
C572 H558 0.960 . S
C572 H559 0.960 . S
C572 C571 1.524 . S
C573 C570 1.403 . S
C573 C574 1.392 . S
C573 C577 1.495 . S
C574 C573 1.392 . S
C574 C575 1.385 . S
C574 C576 1.478 . S
C575 H569 0.930 . S
C575 C571 1.400 . S
C575 C574 1.385 . S
C576 C574 1.478 . S
C576 C578 1.381 . S
C576 C582 1.383 . S
C577 C573 1.495 . S
C577 H583 0.959 . S
C577 H584 0.961 . S
C577 H585 0.960 . S
C578 C576 1.381 . S
C578 C579 1.394 . S
C578 H586 0.930 . S
C579 C578 1.394 . S
C579 C580 1.383 . S
C579 H587 0.929 1_455 S
C580 C579 1.383 . S
C580 C581 1.377 . S
C581 H565 0.930 . S
C581 C580 1.377 . S
C581 C582 1.379 . S
C582 H566 0.931 . S
C582 C576 1.383 . S
C582 C581 1.379 . S
H583 C577 0.959 . S
H584 C577 0.961 . S
H585 C577 0.960 . S
H586 C578 0.930 . S
H587 C579 0.929 1_655 S
H588 C596 0.929 . S
H589 C598 0.930 . S
H590 C600 0.930 . S
H591 C603 0.929 . S
H592 C606 0.930 1_655 S
H593 C608 0.960 1_455 S
H594 C608 0.960 . S
H595 C608 0.960 . S
C596 H588 0.929 . S
C596 C597 1.377 . S
C596 C598 1.384 . S
C597 C596 1.377 . S
C597 C603 1.390 . S
C598 H589 0.930 . S
C598 C596 1.384 . S
C598 C599 1.372 . S
C599 C598 1.372 . S
C599 C600 1.400 . S
C599 C604 1.490 . S
C600 H590 0.930 . S
C600 C599 1.400 . S
C600 C603 1.386 . S
H601 C617 0.930 1_545 S
H602 C618 0.931 . S
C603 H591 0.929 . S
C603 C597 1.390 . S
C603 C600 1.386 . S
C604 C599 1.490 . S
C604 C606 1.395 1_655 S
C604 C607 1.403 1_655 S
H605 C611 0.930 . S
C606 H592 0.930 1_455 S
C606 C604 1.395 1_455 S
C606 C609 1.403 . S
C607 C604 1.403 1_455 S
C607 C608 1.524 1_455 S
C607 C611 1.400 . S
C608 H593 0.960 1_655 S
C608 H594 0.960 . S
C608 H595 0.960 . S
C608 C607 1.524 1_655 S
C609 C606 1.403 . S
C609 C610 1.392 . S
C609 C613 1.495 . S
C610 C609 1.392 . S
C610 C611 1.385 . S
C610 C612 1.478 . S
C611 H605 0.930 . S
C611 C607 1.400 . S
C611 C610 1.385 . S
C612 C610 1.478 . S
C612 C614 1.381 . S
C612 C618 1.383 . S
C613 C609 1.495 . S
C613 H619 0.959 . S
C613 H620 0.961 . S
C613 H621 0.960 . S
C614 C612 1.381 . S
C614 C615 1.394 . S
C614 H622 0.930 . S
C615 C614 1.394 . S
C615 C616 1.383 . S
C615 H623 0.929 . S
C616 C615 1.383 . S
C616 C617 1.377 . S
C617 H601 0.930 1_565 S
C617 C616 1.377 . S
C617 C618 1.379 . S
C618 H602 0.931 . S
C618 C612 1.383 . S
C618 C617 1.379 . S
H619 C613 0.959 . S
H620 C613 0.961 . S
H621 C613 0.960 . S
H622 C614 0.930 . S
H623 C615 0.929 . S
H624 C632 0.929 . S
H625 C634 0.930 . S
H626 C636 0.930 . S
H627 C639 0.929 . S
H628 C642 0.930 . S
H629 C644 0.960 . S
H630 C644 0.960 . S
H631 C644 0.960 . S
C632 H624 0.929 . S
C632 C633 1.377 . S
C632 C634 1.384 . S
C633 C632 1.377 . S
C633 C639 1.390 . S
C634 H625 0.930 . S
C634 C632 1.384 . S
C634 C635 1.372 . S
C635 C634 1.372 . S
C635 C636 1.400 . S
C635 C640 1.490 . S
C636 H626 0.930 . S
C636 C635 1.400 . S
C636 C639 1.386 . S
H637 C653 0.930 . S
H638 C654 0.931 . S
C639 H627 0.929 . S
C639 C633 1.390 . S
C639 C636 1.386 . S
C640 C635 1.490 . S
C640 C642 1.395 1_545 S
C640 C643 1.403 1_545 S
H641 C647 0.930 . S
C642 H628 0.930 . S
C642 C640 1.395 1_565 S
C642 C645 1.403 . S
C643 C640 1.403 1_565 S
C643 C644 1.524 1_565 S
C643 C647 1.400 . S
C644 H629 0.960 . S
C644 H630 0.960 . S
C644 H631 0.960 . S
C644 C643 1.524 1_545 S
C645 C642 1.403 . S
C645 C646 1.392 . S
C645 C649 1.495 . S
C646 C645 1.392 . S
C646 C647 1.385 . S
C646 C648 1.478 . S
C647 H641 0.930 . S
C647 C643 1.400 . S
C647 C646 1.385 . S
C648 C646 1.478 . S
C648 C650 1.381 . S
C648 C654 1.383 . S
C649 C645 1.495 . S
C649 H655 0.959 . S
C649 H656 0.961 . S
C649 H657 0.960 . S
C650 C648 1.381 . S
C650 C651 1.394 . S
C650 H658 0.930 . S
C651 C650 1.394 . S
C651 C652 1.383 . S
C651 H659 0.929 . S
C652 C651 1.383 . S
C652 C653 1.377 . S
C653 H637 0.930 . S
C653 C652 1.377 . S
C653 C654 1.379 . S
C654 H638 0.931 . S
C654 C648 1.383 . S
C654 C653 1.379 . S
H655 C649 0.959 . S
H656 C649 0.961 . S
H657 C649 0.960 . S
H658 C650 0.930 . S
H659 C651 0.929 . S
H660 C668 0.929 . S
H661 C670 0.930 . S
H662 C672 0.930 . S
H663 C675 0.929 . S
H664 C678 0.930 . S
H665 C680 0.960 . S
H666 C680 0.960 . S
H667 C680 0.960 . S
C668 H660 0.929 . S
C668 C669 1.377 . S
C668 C670 1.384 . S
C669 C668 1.377 . S
C669 C675 1.390 . S
C670 H661 0.930 . S
C670 C668 1.384 . S
C670 C671 1.372 . S
C671 C670 1.372 . S
C671 C672 1.400 . S
C671 C676 1.490 . S
C672 H662 0.930 . S
C672 C671 1.400 . S
C672 C675 1.386 . S
H673 C689 0.930 . S
H674 C690 0.931 . S
C675 H663 0.929 . S
C675 C669 1.390 . S
C675 C672 1.386 . S
C676 C671 1.490 . S
C676 C678 1.395 . S
C676 C679 1.403 . S
H677 C683 0.930 . S
C678 H664 0.930 . S
C678 C676 1.395 . S
C678 C681 1.403 . S
C679 C676 1.403 . S
C679 C680 1.524 . S
C679 C683 1.400 . S
C680 H665 0.960 . S
C680 H666 0.960 . S
C680 H667 0.960 . S
C680 C679 1.524 . S
C681 C678 1.403 . S
C681 C682 1.392 . S
C681 C685 1.495 . S
C682 C681 1.392 . S
C682 C683 1.385 . S
C682 C684 1.478 . S
C683 H677 0.930 . S
C683 C679 1.400 . S
C683 C682 1.385 . S
C684 C682 1.478 . S
C684 C686 1.381 . S
C684 C690 1.383 . S
C685 C681 1.495 . S
C685 H691 0.959 . S
C685 H692 0.961 . S
C685 H693 0.960 . S
C686 C684 1.381 . S
C686 C687 1.394 . S
C686 H694 0.930 . S
C687 C686 1.394 . S
C687 C688 1.383 . S
C687 H695 0.929 . S
C688 C687 1.383 . S
C688 C689 1.377 . S
C689 H673 0.930 . S
C689 C688 1.377 . S
C689 C690 1.379 . S
C690 H674 0.931 . S
C690 C684 1.383 . S
C690 C689 1.379 . S
H691 C685 0.959 . S
H692 C685 0.961 . S
H693 C685 0.960 . S
H694 C686 0.930 . S
H695 C687 0.929 . S
H696 C704 0.929 . S
H697 C706 0.930 . S
H698 C708 0.930 . S
H699 C711 0.929 . S
H700 C714 0.930 . S
H701 C716 0.960 . S
H702 C716 0.960 . S
H703 C716 0.960 . S
C704 H696 0.929 . S
C704 C705 1.377 . S
C704 C706 1.384 . S
C705 C704 1.377 . S
C705 C711 1.390 . S
C706 H697 0.930 . S
C706 C704 1.384 . S
C706 C707 1.372 . S
C707 C706 1.372 . S
C707 C708 1.400 . S
C707 C712 1.490 . S
C708 H698 0.930 . S
C708 C707 1.400 . S
C708 C711 1.386 . S
H709 C725 0.930 . S
H710 C726 0.931 . S
C711 H699 0.929 . S
C711 C705 1.390 . S
C711 C708 1.386 . S
C712 C707 1.490 . S
C712 C714 1.395 1_455 S
C712 C715 1.403 1_455 S
H713 C719 0.930 . S
C714 H700 0.930 . S
C714 C712 1.395 1_655 S
C714 C717 1.403 . S
C715 C712 1.403 1_655 S
C715 C716 1.524 1_655 S
C715 C719 1.400 . S
C716 H701 0.960 . S
C716 H702 0.960 . S
C716 H703 0.960 . S
C716 C715 1.524 1_455 S
C717 C714 1.403 . S
C717 C718 1.392 . S
C717 C721 1.495 . S
C718 C717 1.392 . S
C718 C719 1.385 . S
C718 C720 1.478 . S
C719 H713 0.930 . S
C719 C715 1.400 . S
C719 C718 1.385 . S
C720 C718 1.478 . S
C720 C722 1.381 . S
C720 C726 1.383 . S
C721 C717 1.495 . S
C721 H727 0.959 . S
C721 H728 0.961 . S
C721 H729 0.960 . S
C722 C720 1.381 . S
C722 C723 1.394 . S
C722 H730 0.930 . S
C723 C722 1.394 . S
C723 C724 1.383 . S
C723 H731 0.929 . S
C724 C723 1.383 . S
C724 C725 1.377 . S
C725 H709 0.930 . S
C725 C724 1.377 . S
C725 C726 1.379 . S
C726 H710 0.931 . S
C726 C720 1.383 . S
C726 C725 1.379 . S
H727 C721 0.959 . S
H728 C721 0.961 . S
H729 C721 0.960 . S
H730 C722 0.930 . S
H731 C723 0.929 . S
H732 C740 0.929 . S
H733 C742 0.930 . S
H734 C744 0.930 . S
H735 C747 0.929 . S
H736 C750 0.930 . S
H737 C752 0.960 . S
H738 C752 0.960 . S
H739 C752 0.960 . S
C740 H732 0.929 . S
C740 C741 1.377 . S
C740 C742 1.384 . S
C741 C740 1.377 . S
C741 C747 1.390 . S
C742 H733 0.930 . S
C742 C740 1.384 . S
C742 C743 1.372 . S
C743 C742 1.372 . S
C743 C744 1.400 . S
C743 C748 1.490 . S
C744 H734 0.930 . S
C744 C743 1.400 . S
C744 C747 1.386 . S
H745 C761 0.930 . S
H746 C762 0.931 . S
C747 H735 0.929 . S
C747 C741 1.390 . S
C747 C744 1.386 . S
C748 C743 1.490 . S
C748 C750 1.395 . S
C748 C751 1.403 . S
H749 C755 0.930 . S
C750 H736 0.930 . S
C750 C748 1.395 . S
C750 C753 1.379 1_545 S
C751 C748 1.403 . S
C751 C752 1.524 . S
C751 C755 1.400 . S
C752 H737 0.960 . S
C752 H738 0.960 . S
C752 H739 0.960 . S
C752 C751 1.524 . S
C753 C750 1.379 1_565 S
C753 C754 1.392 . S
C753 C757 1.519 . S
C754 C753 1.392 . S
C754 C755 1.385 1_565 S
C754 C756 1.478 . S
C755 H749 0.930 . S
C755 C751 1.400 . S
C755 C754 1.385 1_545 S
C756 C754 1.478 . S
C756 C758 1.381 . S
C756 C762 1.383 . S
C757 C753 1.519 . S
C757 H763 0.959 . S
C757 H764 0.961 . S
C757 H765 0.960 . S
C758 C756 1.381 . S
C758 C759 1.394 . S
C758 H766 0.930 . S
C759 C758 1.394 . S
C759 C760 1.383 . S
C759 H767 0.929 . S
C760 C759 1.383 . S
C760 C761 1.377 . S
C761 H745 0.930 . S
C761 C760 1.377 . S
C761 C762 1.379 . S
C762 H746 0.931 . S
C762 C756 1.383 . S
C762 C761 1.379 . S
H763 C757 0.959 . S
H764 C757 0.961 . S
H765 C757 0.960 . S
H766 C758 0.930 . S
H767 C759 0.929 . S
C129 C89 1.891 . S
C148 C9 1.867 . S
C165 C101 2.066 . S
C184 C21 2.079 . S
C201 C49 2.327 . S
C220 C69 2.338 . S
C237 C1 2.443 . S
C256 C81 2.384 . S
C273 C109 2.224 . S
C292 C29 2.223 . S
C309 C41 1.948 . S
C328 C61 1.916 . S
C345 C8 1.777 . S
C364 C56 1.716 . S
C381 C39 1.770 . S
C400 C16 1.714 . S
C417 C48 1.772 . S
C436 C26 1.658 . S
C453 C79 1.782 . S
C472 C86 1.672 . S
C489 C99 1.771 . S
C508 C106 1.720 . S
C525 C66 1.714 . S
C544 C119 1.789 . S
C561 C19 0.919 . S
C580 C46 0.990 . S
C597 C28 0.895 . S
C616 C6 0.972 . S
C633 C59 0.909 . S
C652 C36 0.970 . S
C669 C68 0.913 . S
C688 C96 0.973 . S
C705 C88 0.900 . S
C724 C116 0.970 . S
C741 C76 1.002 . S
C760 C108 0.950 . S
