# Generated by pormake.
# Topology ecm, (8)-cn, num edge types: 1
# Building blocks:
#     Node 0, Type 0, BuildingBlock: TAGTUT_clean_sbu_1, # of connection points: 8
#     Node 1, Type 0, BuildingBlock: TAGTUT_clean_sbu_1, # of connection points: 8
#     Node 2, Type 0, BuildingBlock: TAGTUT_clean_sbu_1, # of connection points: 8
#     Node 3, Type 0, BuildingBlock: TAGTUT_clean_sbu_1, # of connection points: 8
#     Node 4, Type 0, BuildingBlock: TAGTUT_clean_sbu_1, # of connection points: 8
#     Node 5, Type 0, BuildingBlock: TAGTUT_clean_sbu_1, # of connection points: 8
#     Node 6, Type 0, BuildingBlock: TAGTUT_clean_sbu_1, # of connection points: 8
#     Node 7, Type 0, BuildingBlock: TAGTUT_clean_sbu_1, # of connection points: 8
#     Edge 8, Type (0, 0), BuildingBlock: AJUNOK_clean_linker_0, # of connection points: 2
#     Edge 9, Type (0, 0), BuildingBlock: AJUNOK_clean_linker_0, # of connection points: 2
#     Edge 10, Type (0, 0), BuildingBlock: AJUNOK_clean_linker_0, # of connection points: 2
#     Edge 11, Type (0, 0), BuildingBlock: AJUNOK_clean_linker_0, # of connection points: 2
#     Edge 12, Type (0, 0), BuildingBlock: AJUNOK_clean_linker_0, # of connection points: 2
#     Edge 13, Type (0, 0), BuildingBlock: AJUNOK_clean_linker_0, # of connection points: 2
#     Edge 14, Type (0, 0), BuildingBlock: AJUNOK_clean_linker_0, # of connection points: 2
#     Edge 15, Type (0, 0), BuildingBlock: AJUNOK_clean_linker_0, # of connection points: 2
#     Edge 16, Type (0, 0), BuildingBlock: AJUNOK_clean_linker_0, # of connection points: 2
#     Edge 17, Type (0, 0), BuildingBlock: AJUNOK_clean_linker_0, # of connection points: 2
#     Edge 18, Type (0, 0), BuildingBlock: AJUNOK_clean_linker_0, # of connection points: 2
#     Edge 19, Type (0, 0), BuildingBlock: AJUNOK_clean_linker_0, # of connection points: 2
#     Edge 20, Type (0, 0), BuildingBlock: AJUNOK_clean_linker_0, # of connection points: 2
#     Edge 21, Type (0, 0), BuildingBlock: AJUNOK_clean_linker_0, # of connection points: 2
#     Edge 22, Type (0, 0), BuildingBlock: AJUNOK_clean_linker_0, # of connection points: 2
#     Edge 23, Type (0, 0), BuildingBlock: AJUNOK_clean_linker_0, # of connection points: 2
#     Edge 24, Type (0, 0), BuildingBlock: AJUNOK_clean_linker_0, # of connection points: 2
#     Edge 25, Type (0, 0), BuildingBlock: AJUNOK_clean_linker_0, # of connection points: 2
#     Edge 26, Type (0, 0), BuildingBlock: AJUNOK_clean_linker_0, # of connection points: 2
#     Edge 27, Type (0, 0), BuildingBlock: AJUNOK_clean_linker_0, # of connection points: 2
#     Edge 28, Type (0, 0), BuildingBlock: AJUNOK_clean_linker_0, # of connection points: 2
#     Edge 29, Type (0, 0), BuildingBlock: AJUNOK_clean_linker_0, # of connection points: 2
#     Edge 30, Type (0, 0), BuildingBlock: AJUNOK_clean_linker_0, # of connection points: 2
#     Edge 31, Type (0, 0), BuildingBlock: AJUNOK_clean_linker_0, # of connection points: 2
#     Edge 32, Type (0, 0), BuildingBlock: AJUNOK_clean_linker_0, # of connection points: 2
#     Edge 33, Type (0, 0), BuildingBlock: AJUNOK_clean_linker_0, # of connection points: 2
#     Edge 34, Type (0, 0), BuildingBlock: AJUNOK_clean_linker_0, # of connection points: 2
#     Edge 35, Type (0, 0), BuildingBlock: AJUNOK_clean_linker_0, # of connection points: 2
#     Edge 36, Type (0, 0), BuildingBlock: AJUNOK_clean_linker_0, # of connection points: 2
#     Edge 37, Type (0, 0), BuildingBlock: AJUNOK_clean_linker_0, # of connection points: 2
#     Edge 38, Type (0, 0), BuildingBlock: AJUNOK_clean_linker_0, # of connection points: 2
#     Edge 39, Type (0, 0), BuildingBlock: AJUNOK_clean_linker_0, # of connection points: 2
# Relax obj value: 0.269
# Max RMSD: 0.269
# Mean RMSD: 0.269
data_MOF--net-ecm--node1-TAGTUT_clean_sbu_1--edge1-AJUNOK_clean_linker_0
_symmetry_space_group_name_H-M    P1
_symmetry_Int_Tables_number       1
_symmetry_cell_setting            triclinic
loop_
_symmetry_equiv_pos_as_xyz
'x, y, z'
_cell_length_a     32.973539
_cell_length_b     33.036837
_cell_length_c     12.148039
_cell_angle_alpha  90.002458
_cell_angle_beta   89.941155
_cell_angle_gamma 90.024706
loop_
_atom_site_label
_atom_site_type_symbol
_atom_site_fract_x
_atom_site_fract_y
_atom_site_fract_z
_atom_type_partial_charge
C0 C 0.58163 0.30498 0.98283 0.0
C1 C 0.55806 0.20814 0.24407 0.0
C2 C 0.43902 0.14894 0.98479 0.0
Mg3 Mg 0.51578 0.2899 0.1675 0.0
O4 O 0.49478 0.2609 0.04507 0.0
Mg5 Mg 0.52556 0.21526 0.97719 0.0
Mg6 Mg 0.44091 0.23631 0.05874 0.0
O7 O 0.38437 0.21315 0.06635 0.0
Mg8 Mg 0.3646 0.19196 0.92699 0.0
Mg9 Mg 0.358 0.26545 0.11487 0.0
C10 C 0.42632 0.32976 0.15303 0.0
C11 C 0.41616 0.23774 0.32123 0.0
O12 O 0.57513 0.26933 0.94049 0.0
O13 O 0.56302 0.31691 0.06974 0.0
O14 O 0.55567 0.19808 0.14277 0.0
O15 O 0.54204 0.24153 0.27787 0.0
O16 O 0.46252 0.33298 0.19299 0.0
O17 O 0.41627 0.29865 0.09716 0.0
C18 C 0.46021 0.23858 0.78874 0.0
O19 O 0.43458 0.24504 0.86619 0.0
O20 O 0.49617 0.22734 0.81073 0.0
O21 O 0.30225 0.22571 0.11581 0.0
O22 O 0.30615 0.17383 0.99421 0.0
O23 O 0.34199 0.28666 0.94312 0.0
C24 C 0.28753 0.19412 0.06885 0.0
O25 O 0.35413 0.24086 0.81416 0.0
O26 O 0.42249 0.16112 0.89594 0.0
C27 C 0.34381 0.27646 0.84243 0.0
O28 O 0.46742 0.17132 0.02718 0.0
O29 O 0.4442 0.23003 0.25042 0.0
O30 O 0.3805 0.24893 0.291 0.0
C31 C 0.19449 0.74457 0.94692 0.0
C32 C 0.28179 0.69048 0.16549 0.0
C33 C 0.32868 0.60532 0.87899 0.0
Mg34 Mg 0.19347 0.66953 0.09783 0.0
O35 O 0.21173 0.64778 0.95855 0.0
Mg36 Mg 0.26354 0.67284 0.90087 0.0
Mg37 Mg 0.23393 0.5905 0.96875 0.0
O38 O 0.25918 0.53717 0.98338 0.0
Mg39 Mg 0.28975 0.51663 0.86197 0.0
Mg40 Mg 0.2139 0.50615 0.04974 0.0
C41 C 0.14863 0.59477 0.03947 0.0
C42 C 0.23463 0.57196 0.2385 0.0
O43 O 0.22511 0.72879 0.89781 0.0
O44 O 0.17525 0.72739 0.0262 0.0
O45 O 0.28951 0.69226 0.06338 0.0
O46 O 0.24685 0.68008 0.20025 0.0
O47 O 0.16139 0.61166 0.12732 0.0
O48 O 0.1691 0.56423 1.0009 0.0
C49 C 0.23136 0.61235 0.70683 0.0
O50 O 0.22774 0.58456 0.77988 0.0
O51 O 0.24114 0.64869 0.73299 0.0
O52 O 0.26843 0.45721 0.0881 0.0
O53 O 0.31712 0.47078 0.96264 0.0
O54 O 0.19761 0.47593 0.88317 0.0
C55 C 0.30485 0.45207 0.04886 0.0
O56 O 0.24233 0.48881 0.75024 0.0
O57 O 0.33381 0.56947 0.83906 0.0
C58 C 0.20855 0.47296 0.78254 0.0
O59 O 0.29576 0.61443 0.92765 0.0
O60 O 0.24064 0.598 0.16179 0.0
O61 O 0.22594 0.53543 0.21542 0.0
C62 C 0.44895 0.72957 0.99591 0.0
C63 C 0.47541 0.82515 0.24726 0.0
C64 C 0.5936 0.88449 0.98576 0.0
Mg65 Mg 0.51811 0.74462 0.16922 0.0
O66 O 0.53728 0.7723 0.0418 0.0
Mg67 Mg 0.50633 0.81831 0.97872 0.0
Mg68 Mg 0.59099 0.79701 0.05442 0.0
O69 O 0.64767 0.81992 0.06346 0.0
Mg70 Mg 0.66861 0.84349 0.92858 0.0
Mg71 Mg 0.67349 0.76708 0.10951 0.0
C72 C 0.60604 0.70333 0.14556 0.0
C73 C 0.61449 0.79449 0.31613 0.0
O74 O 0.45615 0.76397 0.94697 0.0
O75 O 0.46846 0.71858 0.08199 0.0
O76 O 0.4771 0.83481 0.14564 0.0
O77 O 0.49267 0.7925 0.28148 0.0
O78 O 0.57052 0.70042 0.1899 0.0
O79 O 0.6155 0.73435 0.08869 0.0
C80 C 0.57097 0.79653 0.78542 0.0
O81 O 0.59712 0.78958 0.86118 0.0
O82 O 0.53493 0.80699 0.8102 0.0
O83 O 0.72924 0.80622 0.11643 0.0
O84 O 0.72624 0.86078 1.00382 0.0
O85 O 0.69028 0.74706 0.93561 0.0
C86 C 0.74438 0.8387 0.07564 0.0
O87 O 0.67983 0.79573 0.81331 0.0
O88 O 0.60979 0.8723 0.89663 0.0
C89 C 0.68903 0.75934 0.83637 0.0
O90 O 0.56488 0.86238 0.02795 0.0
O91 O 0.587 0.80275 0.24478 0.0
O92 O 0.64999 0.78261 0.28619 0.0
C93 C 0.83568 0.28728 0.95691 0.0
C94 C 0.74936 0.34481 0.16232 0.0
C95 C 0.70213 0.4267 0.85855 0.0
Mg96 Mg 0.83657 0.36527 0.09144 0.0
O97 O 0.81887 0.38409 0.94749 0.0
Mg98 Mg 0.76712 0.35821 0.89382 0.0
Mg99 Mg 0.79599 0.44079 0.95335 0.0
O100 O 0.77108 0.49469 0.96683 0.0
Mg101 Mg 0.74172 0.51627 0.84564 0.0
Mg102 Mg 0.81626 0.52537 0.0366 0.0
C103 C 0.8817 0.43789 0.03136 0.0
C104 C 0.79268 0.45953 0.22331 0.0
O105 O 0.80591 0.30233 0.90238 0.0
O106 O 0.85472 0.30605 0.03354 0.0
O107 O 0.74157 0.34242 0.06035 0.0
O108 O 0.7843 0.35538 0.19605 0.0
O109 O 0.86859 0.42259 0.12096 0.0
O110 O 0.86079 0.46711 0.98753 0.0
C111 C 0.79716 0.41619 0.69114 0.0
O112 O 0.80199 0.44448 0.7628 0.0
O113 O 0.7882 0.37983 0.7202 0.0
O114 O 0.76281 0.57549 0.07169 0.0
O115 O 0.71503 0.56358 0.94276 0.0
O116 O 0.834 0.55579 0.87281 0.0
C117 C 0.72723 0.58219 0.02914 0.0
O118 O 0.79026 0.54363 0.73731 0.0
O119 O 0.69789 0.46326 0.82228 0.0
C120 C 0.82378 0.5592 0.77195 0.0
O121 O 0.73418 0.41654 0.91004 0.0
O122 O 0.78773 0.43392 0.14532 0.0
O123 O 0.80219 0.49602 0.20206 0.0
C124 C 0.08119 0.80609 0.48859 0.0
C125 C 0.05913 0.70835 0.74653 0.0
C126 C 0.94001 0.64899 0.48829 0.0
Mg127 Mg 1.01567 0.79057 0.67447 0.0
O128 O 0.99398 0.76113 0.5537 0.0
Mg129 Mg 0.02529 0.71645 0.48325 0.0
Mg130 Mg 0.94064 0.73477 0.56945 0.0
O131 O 0.88481 0.7099 0.57822 0.0
Mg132 Mg 0.86512 0.69127 0.43639 0.0
Mg133 Mg 0.85717 0.75994 0.63544 0.0
C134 C 0.92437 0.82808 0.66428 0.0
C135 C 0.91759 0.73229 0.83258 0.0
O136 O 0.07471 0.77039 0.44691 0.0
O137 O 0.06241 0.81822 0.57505 0.0
O138 O 0.05553 0.69881 0.64549 0.0
O139 O 0.04394 0.74187 0.78219 0.0
O140 O 0.96123 0.83291 0.69851 0.0
O141 O 0.91427 0.79579 0.61365 0.0
C142 C 0.95885 0.73879 0.29971 0.0
O143 O 0.93294 0.74293 0.37764 0.0
O144 O 0.99559 0.73015 0.32047 0.0
O145 O 0.80351 0.71779 0.6358 0.0
O146 O 0.80665 0.67125 0.49936 0.0
O147 O 0.83814 0.78526 0.46973 0.0
C148 C 0.78875 0.68771 0.58199 0.0
O149 O 0.85312 0.74334 0.33358 0.0
O150 O 0.92372 0.66215 0.40026 0.0
C151 C 0.84104 0.7777 0.36755 0.0
O152 O 0.96818 0.67102 0.53318 0.0
O153 O 0.94573 0.72864 0.75979 0.0
O154 O 0.88084 0.74 0.80538 0.0
C155 C 0.69245 0.24405 0.44846 0.0
C156 C 0.77423 0.18906 0.67937 0.0
C157 C 0.82952 0.10539 0.37325 0.0
Mg158 Mg 0.68968 0.16788 0.59294 0.0
O159 O 0.71205 0.14769 0.45522 0.0
Mg160 Mg 0.76452 0.17386 0.40707 0.0
Mg161 Mg 0.73501 0.09111 0.46345 0.0
O162 O 0.75951 0.03723 0.47782 0.0
Mg163 Mg 0.78952 1.01599 0.35735 0.0
Mg164 Mg 0.71352 1.00652 0.54421 0.0
C165 C 0.64791 0.09366 0.53407 0.0
C166 C 0.73616 0.07194 0.73342 0.0
O167 O 0.72463 0.2294 0.40416 0.0
O168 O 0.67132 0.22547 0.52163 0.0
O169 O 0.78505 0.19025 0.57905 0.0
O170 O 0.73831 0.17917 0.70663 0.0
O171 O 0.66019 0.10948 0.62359 0.0
O172 O 0.66956 0.06462 0.49209 0.0
C173 C 0.73681 0.11553 0.20118 0.0
O174 O 0.7291 0.08762 0.27208 0.0
O175 O 0.74821 0.1511 0.23119 0.0
O176 O 0.76741 0.95669 0.58333 0.0
O177 O 0.8159 0.96876 0.45629 0.0
O178 O 0.69733 0.97625 0.37858 0.0
C179 C 0.80337 0.95007 0.5424 0.0
O180 O 0.74169 0.98951 0.2451 0.0
O181 O 0.83301 0.06912 0.33423 0.0
C182 C 0.70802 0.97359 0.27781 0.0
O183 O 0.79773 0.11564 0.42641 0.0
O184 O 0.74321 0.09749 0.65629 0.0
O185 O 0.72477 0.03611 0.71093 0.0
C186 C 0.95322 0.22568 0.48033 0.0
C187 C 0.97273 0.32261 0.74534 0.0
C188 C 0.09487 0.38247 0.48984 0.0
Mg189 Mg 1.01681 0.241 0.67 0.0
O190 O 0.03882 0.27131 0.55141 0.0
Mg191 Mg 1.00794 0.31617 0.48107 0.0
Mg192 Mg 0.09266 0.29629 0.56589 0.0
O193 O 0.14926 0.3195 0.57233 0.0
Mg194 Mg 0.16806 0.33789 0.42898 0.0
Mg195 Mg 0.17551 0.26789 0.62496 0.0
C196 C 0.10692 0.20242 0.65916 0.0
C197 C 0.11725 0.29737 0.82771 0.0
O198 O 0.95872 0.262 0.4414 0.0
O199 O 0.9716 0.21339 0.56701 0.0
O200 O 0.97654 0.3333 0.64485 0.0
O201 O 0.98813 0.28889 0.77896 0.0
O202 O 0.07021 0.198 0.69468 0.0
O203 O 0.11722 0.23453 0.60812 0.0
C204 C 0.07435 0.29357 0.29558 0.0
O205 O 0.09987 0.28852 0.37377 0.0
O206 O 0.03779 0.30298 0.31647 0.0
O207 O 0.23123 0.30717 0.61727 0.0
O208 O 0.22713 0.35643 0.48767 0.0
O209 O 0.19136 0.24286 0.45797 0.0
C210 C 0.24605 0.33732 0.56385 0.0
O211 O 0.17826 0.28603 0.32343 0.0
O212 O 0.11056 0.36988 0.40012 0.0
C213 C 0.18881 0.25102 0.35623 0.0
O214 O 0.06604 0.3608 0.53312 0.0
O215 O 0.08884 0.30197 0.75625 0.0
O216 O 0.1537 0.28856 0.79855 0.0
C217 C 0.34605 0.79117 0.43126 0.0
C218 C 0.25583 0.84056 0.65937 0.0
C219 C 0.20424 0.92555 0.36371 0.0
Mg220 Mg 0.34209 0.86436 0.58668 0.0
O221 O 0.32208 0.88496 0.44721 0.0
Mg222 Mg 0.27138 0.85789 0.39115 0.0
Mg223 Mg 0.29811 0.9409 0.45654 0.0
O224 O 0.27235 0.99427 0.47183 0.0
Mg225 Mg 0.24325 1.01572 0.35008 0.0
Mg226 Mg 0.31748 0.02521 0.5407 0.0
C227 C 0.38406 0.93909 0.53469 0.0
C228 C 0.29459 0.95918 0.72576 0.0
O229 O 0.31365 0.80465 0.38575 0.0
O230 O 0.36387 0.80853 0.51246 0.0
O231 O 0.24729 0.83896 0.55763 0.0
O232 O 0.29085 0.85131 0.692 0.0
O233 O 0.37066 0.92295 0.62262 0.0
O234 O 0.36271 0.96798 0.49099 0.0
C235 C 0.29934 0.91806 0.19323 0.0
O236 O 0.30392 0.946 0.26596 0.0
O237 O 0.29067 0.8816 0.22056 0.0
O238 O 0.26355 0.07474 0.57668 0.0
O239 O 0.21586 0.06267 0.44789 0.0
O240 O 0.33556 0.05479 0.37743 0.0
C241 C 0.22786 0.08127 0.53459 0.0
O242 O 0.2923 0.04281 0.24134 0.0
O243 O 0.19999 0.96216 0.32766 0.0
C244 C 0.32611 0.05766 0.27611 0.0
O245 O 0.2364 0.91525 0.41473 0.0
O246 O 0.29021 0.93319 0.64834 0.0
O247 O 0.30354 0.99576 0.70428 0.0
C248 C 0.44851 0.20327 0.6087 0.0
C249 C 0.44743 0.23928 0.67097 0.0
C250 C 0.43823 0.2028 0.49599 0.0
C251 C 0.42645 0.23829 0.44092 0.0
H252 H 0.45739 0.17512 0.6476 0.0
H253 H 0.43922 0.17446 0.45188 0.0
S254 S 0.42397 0.34139 0.5622 0.0
N255 N 0.43708 0.31193 0.66629 0.0
N256 N 0.41761 0.3111 0.45526 0.0
C257 C 0.42631 0.27468 0.50149 0.0
C258 C 0.43686 0.27518 0.61621 0.0
C259 C 0.25381 0.55948 0.43533 0.0
C260 C 0.23413 0.58394 0.35691 0.0
C261 C 0.25143 0.56801 0.54869 0.0
C262 C 0.22919 0.60133 0.58836 0.0
H263 H 0.27147 0.53362 0.40871 0.0
H264 H 0.26813 0.54903 0.60544 0.0
S265 S 0.16844 0.67234 0.41979 0.0
N266 N 0.18844 0.64081 0.32935 0.0
N267 N 0.18528 0.65757 0.5413 0.0
C268 C 0.20842 0.62535 0.51155 0.0
C269 C 0.21053 0.61646 0.39621 0.0
C270 C 0.61296 0.76281 0.50542 0.0
C271 C 0.60395 0.79586 0.43595 0.0
C272 C 0.60292 0.76319 0.61863 0.0
C273 C 0.58291 0.79643 0.66652 0.0
H274 H 0.62786 0.7363 0.47187 0.0
H275 H 0.61038 0.73708 0.66857 0.0
S276 S 0.55238 0.89051 0.52104 0.0
N277 N 0.57346 0.86248 0.42404 0.0
N278 N 0.55484 0.86346 0.63525 0.0
C279 C 0.57335 0.82943 0.59757 0.0
C280 C 0.58361 0.82901 0.48278 0.0
C281 C 0.81465 0.41377 0.37915 0.0
C282 C 0.79123 0.44668 0.34113 0.0
C283 C 0.81653 0.40377 0.49216 0.0
C284 C 0.79602 0.42704 0.5718 0.0
H285 H 0.83254 0.39624 0.32167 0.0
H286 H 0.8348 0.37818 0.51756 0.0
S287 S 0.72822 0.51425 0.5147 0.0
N288 N 0.74563 0.5011 0.39227 0.0
N289 N 0.7493 0.48268 0.60318 0.0
C290 C 0.77218 0.45963 0.53448 0.0
C291 C 0.76993 0.46948 0.41981 0.0
C292 C 0.91343 0.71665 0.14409 0.0
C293 C 0.9464 0.73993 0.18209 0.0
C294 C 0.90425 0.71396 0.03092 0.0
C295 C 0.92848 0.73344 0.95141 0.0
H296 H 0.89525 0.69945 0.20167 0.0
H297 H 0.87846 0.69597 1.00533 0.0
S298 S 1.01687 0.79976 1.00847 0.0
N299 N 1.00246 0.7837 0.13114 0.0
N300 N 0.98522 0.77887 0.9198 0.0
C301 C 0.96125 0.75702 0.98866 0.0
C302 C 0.97033 0.76002 0.10345 0.0
C303 C 0.70138 0.09179 0.02871 0.0
C304 C 0.73683 0.10526 0.08157 0.0
C305 C 0.70149 0.08167 0.91579 0.0
C306 C 0.73705 0.08449 0.85141 0.0
H307 H 0.67333 0.08926 0.07476 0.0
H308 H 0.67346 0.07154 0.87837 0.0
S309 S 0.83918 0.11143 0.95513 0.0
N310 N 0.8093 0.11677 0.06353 0.0
N311 N 0.80942 0.09751 0.85239 0.0
C312 C 0.77293 0.0965 0.90427 0.0
C313 C 0.77282 0.10693 0.01902 0.0
C314 C 0.11985 0.31565 0.1391 0.0
C315 C 0.08719 0.29197 0.17785 0.0
C316 C 0.12973 0.31735 0.02596 0.0
C317 C 0.1065 0.29646 0.94704 0.0
H318 H 0.1373 0.33381 0.1961 0.0
H319 H 0.15517 0.33577 0.99989 0.0
S320 S 0.01964 0.22828 1.00617 0.0
N321 N 0.03292 0.24591 0.12817 0.0
N322 N 0.05096 0.24946 0.91691 0.0
C323 C 0.07404 0.27252 0.98504 0.0
C324 C 0.0644 0.27037 0.09984 0.0
C325 C 0.31823 0.90463 0.99533 0.0
C326 C 0.29859 0.92892 0.07435 0.0
C327 C 0.31601 0.91383 0.88208 0.0
C328 C 0.29315 0.94695 0.84354 0.0
H329 H 0.33593 0.87873 0.02138 0.0
H330 H 0.33318 0.89549 0.82483 0.0
S331 S 0.23302 0.01758 0.01564 0.0
N332 N 0.25333 0.98579 0.10481 0.0
N333 N 0.24955 1.0032 0.89338 0.0
C334 C 0.27292 0.97096 0.92167 0.0
C335 C 0.27537 0.9618 0.03652 0.0
C336 C 0.3737 0.10957 0.02209 0.0
C337 C 0.41182 0.12401 0.05993 0.0
C338 C 0.34641 0.0882 0.0908 0.0
C339 C 0.35608 0.07896 0.20072 0.0
H340 H 0.36429 0.11522 0.93815 0.0
H341 H 0.31734 0.07917 0.05738 0.0
S342 S 0.45562 0.10123 0.33405 0.0
N343 N 0.45958 0.12223 0.21131 0.0
N344 N 0.40977 0.08125 0.33898 0.0
C345 C 0.39527 0.09084 0.23757 0.0
C346 C 0.42269 0.11326 0.16789 0.0
C347 C 0.10702 0.65832 1.00288 0.0
C348 C 0.12483 0.62211 0.96236 0.0
C349 C 0.08613 0.68588 0.93407 0.0
C350 C 0.08143 0.6787 0.8206 0.0
H351 H 0.10947 0.66586 0.08938 0.0
H352 H 0.07364 0.71309 0.97046 0.0
S353 S 0.11972 0.58722 0.6723 0.0
N354 N 0.13429 0.5801 0.80069 0.0
N355 N 0.09567 0.63101 0.67161 0.0
C356 C 0.09841 0.64211 0.77913 0.0
C357 C 0.11969 0.61412 0.84952 0.0
C358 C 0.6187 0.9076 0.17557 0.0
C359 C 0.62175 0.90874 0.05998 0.0
C360 C 0.64669 0.92828 0.24382 0.0
C361 C 0.67938 0.95142 0.20065 0.0
H362 H 0.59481 0.89012 0.214 0.0
H363 H 0.64266 0.92574 0.33203 0.0
S364 S 0.70029 0.9662 0.90327 0.0
N365 N 0.65978 0.93683 0.90554 0.0
N366 N 0.71199 0.9747 0.0333 0.0
C367 C 0.68253 0.9532 0.08531 0.0
C368 C 0.65391 0.93236 0.01564 0.0
C369 C 0.90629 0.41228 0.84319 0.0
C370 C 0.90608 0.40917 0.95889 0.0
C371 C 0.92744 0.38412 0.7764 0.0
C372 C 0.94976 0.35124 0.82107 0.0
H373 H 0.88955 0.43635 0.80334 0.0
H374 H 0.92598 0.38826 0.68807 0.0
S375 S 0.96086 0.33003 0.11949 0.0
N376 N 0.93187 0.37072 0.11516 0.0
N377 N 0.97069 0.31837 0.99007 0.0
C378 C 0.95007 0.34798 0.93653 0.0
C379 C 0.92871 0.3767 1.00479 0.0
C380 C 0.3244 0.38584 0.14414 0.0
C381 C 0.33532 0.42383 0.10081 0.0
C382 C 0.35423 0.35657 0.17097 0.0
C383 C 0.39626 0.36406 0.15695 0.0
H384 H 0.29268 0.3777 0.15091 0.0
H385 H 0.34407 0.32734 0.19967 0.0
S386 S 0.44111 0.46124 0.06531 0.0
N387 N 0.3917 0.46909 0.05997 0.0
N388 N 0.4468 0.41436 0.10963 0.0
C389 C 0.40747 0.40313 0.12345 0.0
C390 C 0.37732 0.43278 0.09539 0.0
C391 C 0.39888 0.6748 0.03652 0.0
C392 C 0.41761 0.69961 0.9568 0.0
C393 C 0.37197 0.6437 1.00816 0.0
C394 C 0.36299 0.63431 0.89799 0.0
H395 H 0.40492 0.67948 0.1232 0.0
H396 H 0.35751 0.62697 0.0742 0.0
S397 S 0.40921 0.68449 0.65504 0.0
N398 N 0.42845 0.70945 0.76078 0.0
N399 N 0.37816 0.65 0.70689 0.0
C400 C 0.38276 0.65731 0.81602 0.0
C401 C 0.40994 0.69004 0.84544 0.0
C402 C 0.6781 0.67642 0.15927 0.0
C403 C 0.63603 0.66902 0.1461 0.0
C404 C 0.70785 0.64764 0.12824 0.0
C405 C 0.69679 0.6102 0.08192 0.0
H406 H 0.68834 0.70521 0.19083 0.0
H407 H 0.73959 0.65569 0.13503 0.0
S408 S 0.59092 0.57302 0.04693 0.0
N409 N 0.58535 0.61932 0.09573 0.0
N410 N 0.64031 0.56534 0.03894 0.0
C411 C 0.65478 0.60124 0.07703 0.0
C412 C 0.62472 0.63043 0.10904 0.0
C413 C 0.60488 0.37712 0.95615 0.0
C414 C 0.61017 0.33551 0.93141 0.0
C415 C 0.63268 0.40699 0.92179 0.0
C416 C 0.66755 0.39703 0.86121 0.0
H417 H 0.57946 0.38687 1.00604 0.0
H418 H 0.62817 0.43784 0.94956 0.0
S419 S 0.69368 0.29389 0.76073 0.0
N420 N 0.65147 0.28693 0.83174 0.0
N421 N 0.70357 0.3429 0.76708 0.0
C422 C 0.67206 0.35603 0.82949 0.0
C423 C 0.64343 0.32545 0.86401 0.0
C424 C 0.91389 0.6251 0.67609 0.0
C425 C 0.91184 0.62405 0.56032 0.0
C426 C 0.88525 0.60445 0.7423 0.0
C427 C 0.85298 0.58144 0.69681 0.0
H428 H 0.93731 0.64267 0.71633 0.0
H429 H 0.88842 0.60695 0.83076 0.0
S430 S 0.83523 0.56633 0.39814 0.0
N431 N 0.87557 0.59588 0.4032 0.0
N432 N 0.82222 0.5579 0.52734 0.0
C433 C 0.85101 0.57954 0.58134 0.0
C434 C 0.88025 0.60038 0.51369 0.0
C435 C 0.62455 0.11896 0.34449 0.0
C436 C 0.62352 0.1218 0.4602 0.0
C437 C 0.60356 0.1469 0.27679 0.0
C438 C 0.58025 0.17929 0.32058 0.0
H439 H 0.6422 0.09535 0.30542 0.0
H440 H 0.60606 0.14311 0.18851 0.0
S441 S 0.5655 0.19939 0.61839 0.0
N442 N 0.59525 0.15922 0.61534 0.0
N443 N 0.5568 0.21126 0.48859 0.0
C444 C 0.57853 0.18215 0.43599 0.0
C445 C 0.59968 0.15362 0.50512 0.0
C446 C 0.11894 0.40737 0.67921 0.0
C447 C 0.12328 0.40671 0.56376 0.0
C448 C 0.14658 0.42849 0.74763 0.0
C449 C 0.18026 0.4503 0.70506 0.0
H450 H 0.09422 0.39103 0.71766 0.0
H451 H 0.14142 0.42739 0.83562 0.0
S452 S 0.20516 0.45974 0.40817 0.0
N453 N 0.16388 0.43148 0.40999 0.0
N454 N 0.2155 0.46994 0.53815 0.0
C455 C 0.18484 0.4501 0.58986 0.0
C456 C 0.15655 0.42886 0.51989 0.0
C457 C 0.41104 0.91575 0.34726 0.0
C458 C 0.40927 0.91115 0.46238 0.0
C459 C 0.43235 0.88796 0.27998 0.0
C460 C 0.4531 0.85389 0.32361 0.0
H461 H 0.3953 0.94065 0.30815 0.0
H462 H 0.43211 0.89328 0.19203 0.0
S463 S 0.45885 0.82786 0.6203 0.0
N464 N 0.4319 0.86994 0.61734 0.0
N465 N 0.47026 0.81773 0.49089 0.0
C466 C 0.45189 0.8491 0.43856 0.0
C467 C 0.43067 0.87766 0.50746 0.0
C468 C 0.87536 0.92633 0.57142 0.0
C469 C 0.83348 0.92103 0.59385 0.0
C470 C 0.90494 0.89805 0.60464 0.0
C471 C 0.89444 0.86254 0.66151 0.0
H472 H 0.88557 0.95221 0.52417 0.0
H473 H 0.93605 0.90281 0.57885 0.0
S474 S 0.79035 0.83597 0.75569 0.0
N475 N 0.78403 0.87895 0.68821 0.0
N476 N 0.8394 0.82583 0.75006 0.0
C477 C 0.85312 0.8579 0.69098 0.0
C478 C 0.82284 0.8871 0.65795 0.0
C479 C 0.85708 0.17727 0.35769 0.0
C480 C 0.86414 0.13524 0.37131 0.0
C481 C 0.88675 0.20675 0.38462 0.0
C482 C 0.92468 0.1955 0.42802 0.0
H483 H 0.82793 0.18771 0.32904 0.0
H484 H 0.87892 0.23849 0.37789 0.0
S485 S 0.961 0.08958 0.46329 0.0
N486 N 0.91402 0.08434 0.41862 0.0
N487 N 0.96935 0.13881 0.46901 0.0
C488 C 0.93316 0.15351 0.43343 0.0
C489 C 0.90317 0.1237 0.40501 0.0
C490 C 0.12614 0.13301 0.59583 0.0
C491 C 0.13647 0.16782 0.65592 0.0
C492 C 0.1558 0.10502 0.56147 0.0
C493 C 0.19754 0.11002 0.58585 0.0
H494 H 0.09517 0.12869 0.5685 0.0
H495 H 0.1458 0.07966 0.51192 0.0
S496 S 0.24005 0.19329 0.75521 0.0
N497 N 0.19104 0.20354 0.74904 0.0
N498 N 0.24663 0.15102 0.68466 0.0
C499 C 0.20795 0.14324 0.65276 0.0
C500 C 0.17759 0.17209 0.68715 0.0
C501 C 0.13446 0.90702 0.42762 0.0
C502 C 0.16932 0.89628 0.36785 0.0
C503 C 0.10597 0.87777 0.46188 0.0
C504 C 0.11045 0.83606 0.43756 0.0
H505 H 0.13044 0.93802 0.45467 0.0
H506 H 0.08062 0.88808 0.5112 0.0
S507 S 0.19372 0.79249 0.26929 0.0
N508 N 0.20466 0.84127 0.27572 0.0
N509 N 0.15109 0.78652 0.33913 0.0
C510 C 0.14376 0.82523 0.37102 0.0
C511 C 0.17317 0.85514 0.33703 0.0
C512 C 0.31565 0.31907 0.5648 0.0
C513 C 0.28696 0.34827 0.59596 0.0
C514 C 0.33574 0.29654 0.64555 0.0
C515 C 0.33117 0.30598 0.75775 0.0
H516 H 0.31569 0.30749 0.48127 0.0
H517 H 0.35187 0.26958 0.62032 0.0
S518 S 0.26987 0.39011 0.87177 0.0
N519 N 0.26317 0.39307 0.73778 0.0
N520 N 0.30272 0.35321 0.89126 0.0
C521 C 0.30968 0.34142 0.7858 0.0
C522 C 0.28869 0.36348 0.70291 0.0
C523 C 0.36838 0.75251 0.27732 0.0
C524 C 0.35919 0.75207 0.39008 0.0
C525 C 0.34425 0.73055 0.20388 0.0
C526 C 0.3135 0.70451 0.24262 0.0
H527 H 0.38755 0.77626 0.24419 0.0
H528 H 0.3473 0.73708 0.1169 0.0
S529 S 0.295 0.67789 0.53392 0.0
N530 N 0.32892 0.71444 0.539 0.0
N531 N 0.28631 0.66936 0.4021 0.0
C532 C 0.31198 0.69654 0.35597 0.0
C533 C 0.33576 0.72006 0.42994 0.0
C534 C 0.73368 0.66705 0.69929 0.0
C535 C 0.74516 0.68322 0.59723 0.0
C536 C 0.71179 0.69079 0.77425 0.0
C537 C 0.70068 0.73088 0.74759 0.0
H538 H 0.74786 0.63952 0.72883 0.0
H539 H 0.70747 0.67913 0.85681 0.0
S540 S 0.71364 0.77996 0.47511 0.0
N541 N 0.73244 0.73412 0.45908 0.0
N542 N 0.69659 0.78171 0.6027 0.0
C543 C 0.70543 0.74365 0.63779 0.0
C544 C 0.72472 0.71782 0.55981 0.0
C545 C 0.70266 0.31597 0.43364 0.0
C546 C 0.67941 0.28238 0.40144 0.0
C547 C 0.72269 0.33945 0.35443 0.0
C548 C 0.71853 0.33061 0.24174 0.0
H549 H 0.71159 0.31941 0.51891 0.0
H550 H 0.74452 0.3617 0.38198 0.0
S551 S 0.6505 0.25326 0.11971 0.0
N552 N 0.6446 0.24831 0.25371 0.0
N553 N 0.68173 0.29181 0.10336 0.0
C554 C 0.68856 0.30255 0.20978 0.0
C555 C 0.66801 0.27925 0.29095 0.0
C556 C 0.21566 0.20451 0.08322 0.0
C557 C 0.24898 0.18066 0.11412 0.0
C558 C 0.19298 0.22487 0.16347 0.0
C559 C 0.2022 0.22024 0.2758 0.0
H560 H 0.21213 0.21374 0.99818 0.0
H561 H 0.17111 0.24718 0.13694 0.0
S562 S 0.27802 0.14967 0.39405 0.0
N563 N 0.28234 0.14408 0.25979 0.0
N564 N 0.24045 0.18195 0.41231 0.0
C565 C 0.22955 0.18946 0.30636 0.0
C566 C 0.25194 0.16852 0.22405 0.0
C567 C 0.20736 0.81571 0.93269 0.0
C568 C 0.18206 0.78344 0.90197 0.0
C569 C 0.22946 0.8368 0.85248 0.0
C570 C 0.22488 0.82748 0.74013 0.0
H571 H 0.21624 0.81923 0.01803 0.0
H572 H 0.25267 0.85768 0.87925 0.0
S573 S 0.15069 0.75525 0.62184 0.0
N574 N 0.14425 0.75173 0.75596 0.0
N575 N 0.18521 0.79076 0.60352 0.0
C576 C 0.19287 0.80158 0.70941 0.0
C577 C 0.17025 0.78078 0.79169 0.0
C578 C 0.83729 0.80453 0.17509 0.0
C579 C 0.8276 0.80869 0.28739 0.0
C580 C 0.81572 0.82601 0.09478 0.0
C581 C 0.78278 0.85054 0.12506 0.0
H582 H 0.8589 0.78199 0.14831 0.0
H583 H 0.81977 0.81738 1.00939 0.0
S584 S 0.75317 0.8808 0.40562 0.0
N585 N 0.78981 0.84747 0.42394 0.0
N586 N 0.74929 0.88679 0.27141 0.0
C587 C 0.77913 0.86167 0.2357 0.0
C588 C 0.80071 0.83987 0.31804 0.0
C589 C 0.79339 0.19809 0.87671 0.0
C590 C 0.80348 0.20189 0.76469 0.0
C591 C 0.81594 0.21819 0.95749 0.0
C592 C 0.84593 0.2461 0.92636 0.0
H593 H 0.76609 0.18237 0.90164 0.0
H594 H 0.80395 0.21875 0.04062 0.0
S595 S 0.88942 0.2611 0.65149 0.0
N596 N 0.85192 0.22888 0.63184 0.0
N597 N 0.89191 0.26835 0.78532 0.0
C598 C 0.86161 0.24359 0.82001 0.0
C599 C 0.83948 0.22264 0.7371 0.0
loop_
_geom_bond_atom_site_label_1
_geom_bond_atom_site_label_2
_geom_bond_distance
_geom_bond_site_symmetry_2
_ccdc_geom_bond_type
C0 O12 1.241 . S
C0 O13 1.280 1_556 S
C1 O14 1.277 . S
C1 O15 1.245 . S
C2 O26 1.247 . S
C2 O28 1.289 . S
Mg3 O4 1.926 . S
Mg3 O13 1.984 . S
Mg3 O15 1.988 . S
Mg3 O16 2.061 . S
O4 Mg3 1.926 . S
O4 Mg5 1.986 . S
O4 Mg6 1.917 . S
Mg5 O4 1.986 . S
Mg5 O12 2.042 1_554 S
Mg5 O14 2.041 . S
Mg5 O20 2.038 1_554 S
Mg5 O28 2.238 . S
Mg6 O4 1.917 . S
Mg6 O7 1.917 . S
Mg6 O17 2.106 . S
Mg6 O19 2.079 1_554 S
Mg6 O28 2.106 . S
Mg6 O29 2.079 . S
O7 Mg6 1.917 . S
O7 Mg8 1.926 . S
O7 Mg9 1.986 . S
Mg8 O7 1.926 . S
Mg8 O22 1.984 . S
Mg8 O25 1.988 1_554 S
Mg8 O26 2.061 . S
Mg9 O7 1.986 . S
Mg9 O17 2.238 . S
Mg9 O21 2.042 . S
Mg9 O23 2.041 . S
Mg9 O30 2.038 . S
C10 O16 1.247 . S
C10 O17 1.289 . S
C11 O29 1.245 . S
C11 O30 1.274 . S
O12 C0 1.241 . S
O12 Mg5 2.042 1_556 S
O13 C0 1.280 1_554 S
O13 Mg3 1.984 . S
O14 C1 1.277 . S
O14 Mg5 2.041 . S
O15 C1 1.245 . S
O15 Mg3 1.988 . S
O16 Mg3 2.061 . S
O16 C10 1.247 . S
O17 Mg6 2.106 . S
O17 Mg9 2.238 . S
O17 C10 1.289 . S
C18 O19 1.245 . S
C18 O20 1.274 . S
O19 Mg6 2.079 1_556 S
O19 C18 1.245 . S
O20 Mg5 2.038 1_556 S
O20 C18 1.274 . S
O21 Mg9 2.042 . S
O21 C24 1.241 . S
O22 Mg8 1.984 . S
O22 C24 1.280 . S
O23 Mg9 2.041 . S
O23 C27 1.277 . S
C24 O21 1.241 . S
C24 O22 1.280 . S
O25 Mg8 1.988 1_556 S
O25 C27 1.245 1_556 S
O26 C2 1.247 . S
O26 Mg8 2.061 . S
C27 O23 1.277 . S
C27 O25 1.245 1_554 S
O28 C2 1.289 . S
O28 Mg5 2.238 . S
O28 Mg6 2.106 . S
O29 Mg6 2.079 . S
O29 C11 1.245 . S
O30 Mg9 2.038 . S
O30 C11 1.274 . S
C31 O43 1.241 . S
C31 O44 1.280 . S
C32 O45 1.277 . S
C32 O46 1.245 1_556 S
C33 O57 1.247 . S
C33 O59 1.289 . S
Mg34 O35 1.926 . S
Mg34 O44 1.984 . S
Mg34 O46 1.988 1_556 S
Mg34 O47 2.061 . S
O35 Mg34 1.926 . S
O35 Mg36 1.986 . S
O35 Mg37 1.917 . S
Mg36 O35 1.986 . S
Mg36 O43 2.042 . S
Mg36 O45 2.041 . S
Mg36 O51 2.038 . S
Mg36 O59 2.238 . S
Mg37 O35 1.917 . S
Mg37 O38 1.917 . S
Mg37 O48 2.106 . S
Mg37 O50 2.079 . S
Mg37 O59 2.106 . S
Mg37 O60 2.079 1_556 S
O38 Mg37 1.917 . S
O38 Mg39 1.926 . S
O38 Mg40 1.986 . S
Mg39 O38 1.926 . S
Mg39 O53 1.984 . S
Mg39 O56 1.988 . S
Mg39 O57 2.061 . S
Mg40 O38 1.986 . S
Mg40 O48 2.238 . S
Mg40 O52 2.042 1_556 S
Mg40 O54 2.041 . S
Mg40 O61 2.038 1_556 S
C41 O47 1.247 . S
C41 O48 1.289 . S
C42 O60 1.245 . S
C42 O61 1.274 . S
O43 C31 1.241 . S
O43 Mg36 2.042 . S
O44 C31 1.280 . S
O44 Mg34 1.984 . S
O45 C32 1.277 . S
O45 Mg36 2.041 . S
O46 C32 1.245 1_554 S
O46 Mg34 1.988 1_554 S
O47 Mg34 2.061 . S
O47 C41 1.247 . S
O48 Mg37 2.106 . S
O48 Mg40 2.238 . S
O48 C41 1.289 . S
C49 O50 1.245 . S
C49 O51 1.274 . S
O50 Mg37 2.079 . S
O50 C49 1.245 . S
O51 Mg36 2.038 . S
O51 C49 1.274 . S
O52 Mg40 2.042 1_554 S
O52 C55 1.241 . S
O53 Mg39 1.984 . S
O53 C55 1.280 1_556 S
O54 Mg40 2.041 . S
O54 C58 1.277 . S
C55 O52 1.241 . S
C55 O53 1.280 1_554 S
O56 Mg39 1.988 . S
O56 C58 1.245 . S
O57 C33 1.247 . S
O57 Mg39 2.061 . S
C58 O54 1.277 . S
C58 O56 1.245 . S
O59 C33 1.289 . S
O59 Mg36 2.238 . S
O59 Mg37 2.106 . S
O60 Mg37 2.079 1_554 S
O60 C42 1.245 . S
O61 Mg40 2.038 1_554 S
O61 C42 1.274 . S
C62 O74 1.241 . S
C62 O75 1.280 1_556 S
C63 O76 1.277 . S
C63 O77 1.245 . S
C64 O88 1.247 . S
C64 O90 1.289 . S
Mg65 O66 1.926 . S
Mg65 O75 1.984 . S
Mg65 O77 1.988 . S
Mg65 O78 2.061 . S
O66 Mg65 1.926 . S
O66 Mg67 1.986 . S
O66 Mg68 1.917 . S
Mg67 O66 1.986 . S
Mg67 O74 2.042 1_554 S
Mg67 O76 2.041 . S
Mg67 O82 2.038 1_554 S
Mg67 O90 2.238 . S
Mg68 O66 1.917 . S
Mg68 O69 1.917 . S
Mg68 O79 2.106 . S
Mg68 O81 2.079 1_554 S
Mg68 O90 2.106 . S
Mg68 O91 2.079 . S
O69 Mg68 1.917 . S
O69 Mg70 1.926 . S
O69 Mg71 1.986 . S
Mg70 O69 1.926 . S
Mg70 O84 1.984 . S
Mg70 O87 1.988 1_554 S
Mg70 O88 2.061 . S
Mg71 O69 1.986 . S
Mg71 O79 2.238 . S
Mg71 O83 2.042 . S
Mg71 O85 2.041 . S
Mg71 O92 2.038 . S
C72 O78 1.247 . S
C72 O79 1.289 . S
C73 O91 1.245 . S
C73 O92 1.274 . S
O74 C62 1.241 . S
O74 Mg67 2.042 1_556 S
O75 C62 1.280 1_554 S
O75 Mg65 1.984 . S
O76 C63 1.277 . S
O76 Mg67 2.041 . S
O77 C63 1.245 . S
O77 Mg65 1.988 . S
O78 Mg65 2.061 . S
O78 C72 1.247 . S
O79 Mg68 2.106 . S
O79 Mg71 2.238 . S
O79 C72 1.289 . S
C80 O81 1.245 . S
C80 O82 1.274 . S
O81 Mg68 2.079 1_556 S
O81 C80 1.245 . S
O82 Mg67 2.038 1_556 S
O82 C80 1.274 . S
O83 Mg71 2.042 . S
O83 C86 1.241 . S
O84 Mg70 1.984 . S
O84 C86 1.280 . S
O85 Mg71 2.041 . S
O85 C89 1.277 . S
C86 O83 1.241 . S
C86 O84 1.280 . S
O87 Mg70 1.988 1_556 S
O87 C89 1.245 1_556 S
O88 C64 1.247 . S
O88 Mg70 2.061 . S
C89 O85 1.277 . S
C89 O87 1.245 1_554 S
O90 C64 1.289 . S
O90 Mg67 2.238 . S
O90 Mg68 2.106 . S
O91 Mg68 2.079 . S
O91 C73 1.245 . S
O92 Mg71 2.038 . S
O92 C73 1.274 . S
C93 O105 1.241 . S
C93 O106 1.280 . S
C94 O107 1.277 . S
C94 O108 1.245 1_556 S
C95 O119 1.247 . S
C95 O121 1.289 . S
Mg96 O97 1.926 . S
Mg96 O106 1.984 . S
Mg96 O108 1.988 1_556 S
Mg96 O109 2.061 . S
O97 Mg96 1.926 . S
O97 Mg98 1.986 . S
O97 Mg99 1.917 . S
Mg98 O97 1.986 . S
Mg98 O105 2.042 . S
Mg98 O107 2.041 . S
Mg98 O113 2.038 . S
Mg98 O121 2.238 . S
Mg99 O97 1.917 . S
Mg99 O100 1.917 . S
Mg99 O110 2.106 . S
Mg99 O112 2.079 . S
Mg99 O121 2.106 . S
Mg99 O122 2.079 1_556 S
O100 Mg99 1.917 . S
O100 Mg101 1.926 . S
O100 Mg102 1.986 . S
Mg101 O100 1.926 . S
Mg101 O115 1.984 . S
Mg101 O118 1.988 . S
Mg101 O119 2.061 . S
Mg102 O100 1.986 . S
Mg102 O110 2.238 . S
Mg102 O114 2.042 1_556 S
Mg102 O116 2.041 . S
Mg102 O123 2.038 1_556 S
C103 O109 1.247 . S
C103 O110 1.289 . S
C104 O122 1.245 . S
C104 O123 1.274 . S
O105 C93 1.241 . S
O105 Mg98 2.042 . S
O106 C93 1.280 . S
O106 Mg96 1.984 . S
O107 C94 1.277 . S
O107 Mg98 2.041 . S
O108 C94 1.245 1_554 S
O108 Mg96 1.988 1_554 S
O109 Mg96 2.061 . S
O109 C103 1.247 . S
O110 Mg99 2.106 . S
O110 Mg102 2.238 . S
O110 C103 1.289 . S
C111 O112 1.245 . S
C111 O113 1.274 . S
O112 Mg99 2.079 . S
O112 C111 1.245 . S
O113 Mg98 2.038 . S
O113 C111 1.274 . S
O114 Mg102 2.042 1_554 S
O114 C117 1.241 . S
O115 Mg101 1.984 . S
O115 C117 1.280 1_556 S
O116 Mg102 2.041 . S
O116 C120 1.277 . S
C117 O114 1.241 . S
C117 O115 1.280 1_554 S
O118 Mg101 1.988 . S
O118 C120 1.245 . S
O119 C95 1.247 . S
O119 Mg101 2.061 . S
C120 O116 1.277 . S
C120 O118 1.245 . S
O121 C95 1.289 . S
O121 Mg98 2.238 . S
O121 Mg99 2.106 . S
O122 Mg99 2.079 1_554 S
O122 C104 1.245 . S
O123 Mg102 2.038 1_554 S
O123 C104 1.274 . S
C124 O136 1.241 . S
C124 O137 1.280 . S
C125 O138 1.277 . S
C125 O139 1.245 . S
C126 O150 1.247 . S
C126 O152 1.289 . S
Mg127 O128 1.926 . S
Mg127 O137 1.984 1_655 S
Mg127 O139 1.988 1_655 S
Mg127 O140 2.061 . S
O128 Mg127 1.926 . S
O128 Mg129 1.986 . S
O128 Mg130 1.917 . S
Mg129 O128 1.986 . S
Mg129 O136 2.042 1_655 S
Mg129 O138 2.041 1_655 S
Mg129 O144 2.038 . S
Mg129 O152 2.238 . S
Mg130 O128 1.917 . S
Mg130 O131 1.917 . S
Mg130 O141 2.106 . S
Mg130 O143 2.079 . S
Mg130 O152 2.106 . S
Mg130 O153 2.079 . S
O131 Mg130 1.917 . S
O131 Mg132 1.926 . S
O131 Mg133 1.986 . S
Mg132 O131 1.926 . S
Mg132 O146 1.984 . S
Mg132 O149 1.988 . S
Mg132 O150 2.061 . S
Mg133 O131 1.986 . S
Mg133 O141 2.238 . S
Mg133 O145 2.042 . S
Mg133 O147 2.041 . S
Mg133 O154 2.038 . S
C134 O140 1.247 . S
C134 O141 1.289 . S
C135 O153 1.245 . S
C135 O154 1.274 . S
O136 C124 1.241 . S
O136 Mg129 2.042 1_455 S
O137 C124 1.280 . S
O137 Mg127 1.984 1_455 S
O138 C125 1.277 . S
O138 Mg129 2.041 1_455 S
O139 C125 1.245 . S
O139 Mg127 1.988 1_455 S
O140 Mg127 2.061 . S
O140 C134 1.247 . S
O141 Mg130 2.106 . S
O141 Mg133 2.238 . S
O141 C134 1.289 . S
C142 O143 1.245 . S
C142 O144 1.274 . S
O143 Mg130 2.079 . S
O143 C142 1.245 . S
O144 Mg129 2.038 . S
O144 C142 1.274 . S
O145 Mg133 2.042 . S
O145 C148 1.241 . S
O146 Mg132 1.984 . S
O146 C148 1.280 . S
O147 Mg133 2.041 . S
O147 C151 1.277 . S
C148 O145 1.241 . S
C148 O146 1.280 . S
O149 Mg132 1.988 . S
O149 C151 1.245 . S
O150 C126 1.247 . S
O150 Mg132 2.061 . S
C151 O147 1.277 . S
C151 O149 1.245 . S
O152 C126 1.289 . S
O152 Mg129 2.238 . S
O152 Mg130 2.106 . S
O153 Mg130 2.079 . S
O153 C135 1.245 . S
O154 Mg133 2.038 . S
O154 C135 1.274 . S
C155 O167 1.241 . S
C155 O168 1.280 . S
C156 O169 1.277 . S
C156 O170 1.245 . S
C157 O181 1.247 . S
C157 O183 1.289 . S
Mg158 O159 1.926 . S
Mg158 O168 1.984 . S
Mg158 O170 1.988 . S
Mg158 O171 2.061 . S
O159 Mg158 1.926 . S
O159 Mg160 1.986 . S
O159 Mg161 1.917 . S
Mg160 O159 1.986 . S
Mg160 O167 2.042 . S
Mg160 O169 2.041 . S
Mg160 O175 2.038 . S
Mg160 O183 2.238 . S
Mg161 O159 1.917 . S
Mg161 O162 1.917 . S
Mg161 O172 2.106 . S
Mg161 O174 2.079 . S
Mg161 O183 2.106 . S
Mg161 O184 2.079 . S
O162 Mg161 1.917 . S
O162 Mg163 1.926 . S
O162 Mg164 1.986 . S
Mg163 O162 1.926 . S
Mg163 O177 1.984 1_545 S
Mg163 O180 1.988 1_545 S
Mg163 O181 2.061 . S
Mg164 O162 1.986 . S
Mg164 O172 2.238 . S
Mg164 O176 2.042 1_545 S
Mg164 O178 2.041 1_545 S
Mg164 O185 2.038 . S
C165 O171 1.247 . S
C165 O172 1.289 . S
C166 O184 1.245 . S
C166 O185 1.274 . S
O167 C155 1.241 . S
O167 Mg160 2.042 . S
O168 C155 1.280 . S
O168 Mg158 1.984 . S
O169 C156 1.277 . S
O169 Mg160 2.041 . S
O170 C156 1.245 . S
O170 Mg158 1.988 . S
O171 Mg158 2.061 . S
O171 C165 1.247 . S
O172 Mg161 2.106 . S
O172 Mg164 2.238 . S
O172 C165 1.289 . S
C173 O174 1.245 . S
C173 O175 1.274 . S
O174 Mg161 2.079 . S
O174 C173 1.245 . S
O175 Mg160 2.038 . S
O175 C173 1.274 . S
O176 Mg164 2.042 1_565 S
O176 C179 1.241 . S
O177 Mg163 1.984 1_565 S
O177 C179 1.280 . S
O178 Mg164 2.041 1_565 S
O178 C182 1.277 . S
C179 O176 1.241 . S
C179 O177 1.280 . S
O180 Mg163 1.988 1_565 S
O180 C182 1.245 . S
O181 C157 1.247 . S
O181 Mg163 2.061 . S
C182 O178 1.277 . S
C182 O180 1.245 . S
O183 C157 1.289 . S
O183 Mg160 2.238 . S
O183 Mg161 2.106 . S
O184 Mg161 2.079 . S
O184 C166 1.245 . S
O185 Mg164 2.038 . S
O185 C166 1.274 . S
C186 O198 1.241 . S
C186 O199 1.280 . S
C187 O200 1.277 . S
C187 O201 1.245 . S
C188 O212 1.247 . S
C188 O214 1.289 . S
Mg189 O190 1.926 . S
Mg189 O199 1.984 1_455 S
Mg189 O201 1.988 1_455 S
Mg189 O202 2.061 . S
O190 Mg189 1.926 . S
O190 Mg191 1.986 . S
O190 Mg192 1.917 . S
Mg191 O190 1.986 . S
Mg191 O198 2.042 1_455 S
Mg191 O200 2.041 1_455 S
Mg191 O206 2.038 . S
Mg191 O214 2.238 . S
Mg192 O190 1.917 . S
Mg192 O193 1.917 . S
Mg192 O203 2.106 . S
Mg192 O205 2.079 . S
Mg192 O214 2.106 . S
Mg192 O215 2.079 . S
O193 Mg192 1.917 . S
O193 Mg194 1.926 . S
O193 Mg195 1.986 . S
Mg194 O193 1.926 . S
Mg194 O208 1.984 . S
Mg194 O211 1.988 . S
Mg194 O212 2.061 . S
Mg195 O193 1.986 . S
Mg195 O203 2.238 . S
Mg195 O207 2.042 . S
Mg195 O209 2.041 . S
Mg195 O216 2.038 . S
C196 O202 1.247 . S
C196 O203 1.289 . S
C197 O215 1.245 . S
C197 O216 1.274 . S
O198 C186 1.241 . S
O198 Mg191 2.042 1_655 S
O199 C186 1.280 . S
O199 Mg189 1.984 1_655 S
O200 C187 1.277 . S
O200 Mg191 2.041 1_655 S
O201 C187 1.245 . S
O201 Mg189 1.988 1_655 S
O202 Mg189 2.061 . S
O202 C196 1.247 . S
O203 Mg192 2.106 . S
O203 Mg195 2.238 . S
O203 C196 1.289 . S
C204 O205 1.245 . S
C204 O206 1.274 . S
O205 Mg192 2.079 . S
O205 C204 1.245 . S
O206 Mg191 2.038 . S
O206 C204 1.274 . S
O207 Mg195 2.042 . S
O207 C210 1.241 . S
O208 Mg194 1.984 . S
O208 C210 1.280 . S
O209 Mg195 2.041 . S
O209 C213 1.277 . S
C210 O207 1.241 . S
C210 O208 1.280 . S
O211 Mg194 1.988 . S
O211 C213 1.245 . S
O212 C188 1.247 . S
O212 Mg194 2.061 . S
C213 O209 1.277 . S
C213 O211 1.245 . S
O214 C188 1.289 . S
O214 Mg191 2.238 . S
O214 Mg192 2.106 . S
O215 Mg192 2.079 . S
O215 C197 1.245 . S
O216 Mg195 2.038 . S
O216 C197 1.274 . S
C217 O229 1.241 . S
C217 O230 1.280 . S
C218 O231 1.277 . S
C218 O232 1.245 . S
C219 O243 1.247 . S
C219 O245 1.289 . S
Mg220 O221 1.926 . S
Mg220 O230 1.984 . S
Mg220 O232 1.988 . S
Mg220 O233 2.061 . S
O221 Mg220 1.926 . S
O221 Mg222 1.986 . S
O221 Mg223 1.917 . S
Mg222 O221 1.986 . S
Mg222 O229 2.042 . S
Mg222 O231 2.041 . S
Mg222 O237 2.038 . S
Mg222 O245 2.238 . S
Mg223 O221 1.917 . S
Mg223 O224 1.917 . S
Mg223 O234 2.106 . S
Mg223 O236 2.079 . S
Mg223 O245 2.106 . S
Mg223 O246 2.079 . S
O224 Mg223 1.917 . S
O224 Mg225 1.926 . S
O224 Mg226 1.986 . S
Mg225 O224 1.926 . S
Mg225 O239 1.984 1_565 S
Mg225 O242 1.988 1_565 S
Mg225 O243 2.061 . S
Mg226 O224 1.986 . S
Mg226 O234 2.238 . S
Mg226 O238 2.042 1_565 S
Mg226 O240 2.041 1_565 S
Mg226 O247 2.038 . S
C227 O233 1.247 . S
C227 O234 1.289 . S
C228 O246 1.245 . S
C228 O247 1.274 . S
O229 C217 1.241 . S
O229 Mg222 2.042 . S
O230 C217 1.280 . S
O230 Mg220 1.984 . S
O231 C218 1.277 . S
O231 Mg222 2.041 . S
O232 C218 1.245 . S
O232 Mg220 1.988 . S
O233 Mg220 2.061 . S
O233 C227 1.247 . S
O234 Mg223 2.106 . S
O234 Mg226 2.238 . S
O234 C227 1.289 . S
C235 O236 1.245 . S
C235 O237 1.274 . S
O236 Mg223 2.079 . S
O236 C235 1.245 . S
O237 Mg222 2.038 . S
O237 C235 1.274 . S
O238 Mg226 2.042 1_545 S
O238 C241 1.241 . S
O239 Mg225 1.984 1_545 S
O239 C241 1.280 . S
O240 Mg226 2.041 1_545 S
O240 C244 1.277 . S
C241 O238 1.241 . S
C241 O239 1.280 . S
O242 Mg225 1.988 1_545 S
O242 C244 1.245 . S
O243 C219 1.247 . S
O243 Mg225 2.061 . S
C244 O240 1.277 . S
C244 O242 1.245 . S
O245 C219 1.289 . S
O245 Mg222 2.238 . S
O245 Mg223 2.106 . S
O246 Mg223 2.079 . S
O246 C228 1.245 . S
O247 Mg226 2.038 . S
O247 C228 1.274 . S
C248 C249 1.369 . S
C248 C250 1.419 . S
C248 H252 0.930 . S
C249 C248 1.369 . S
C249 C258 1.429 . S
C250 C248 1.419 . S
C250 C251 1.363 . S
C250 H253 0.929 . S
C251 C250 1.363 . S
C251 C257 1.428 . S
H252 C248 0.930 . S
H253 C250 0.929 . S
S254 N255 1.613 . S
S254 N256 1.610 . S
N255 S254 1.613 . S
N255 C258 1.350 . S
N256 S254 1.610 . S
N256 C257 1.351 . S
C257 C251 1.428 . S
C257 N256 1.351 . S
C257 C258 1.434 . S
C258 C249 1.429 . S
C258 N255 1.350 . S
C258 C257 1.434 . S
C259 C260 1.369 . S
C259 C261 1.419 . S
C259 H263 0.930 . S
C260 C259 1.369 . S
C260 C269 1.429 . S
C261 C259 1.419 . S
C261 C262 1.363 . S
C261 H264 0.929 . S
C262 C261 1.363 . S
C262 C268 1.428 . S
H263 C259 0.930 . S
H264 C261 0.929 . S
S265 N266 1.613 . S
S265 N267 1.610 . S
N266 S265 1.613 . S
N266 C269 1.350 . S
N267 S265 1.610 . S
N267 C268 1.351 . S
C268 C262 1.428 . S
C268 N267 1.351 . S
C268 C269 1.434 . S
C269 C260 1.429 . S
C269 N266 1.350 . S
C269 C268 1.434 . S
C270 C271 1.369 . S
C270 C272 1.419 . S
C270 H274 0.930 . S
C271 C270 1.369 . S
C271 C280 1.429 . S
C272 C270 1.419 . S
C272 C273 1.363 . S
C272 H275 0.929 . S
C273 C272 1.363 . S
C273 C279 1.428 . S
H274 C270 0.930 . S
H275 C272 0.929 . S
S276 N277 1.613 . S
S276 N278 1.610 . S
N277 S276 1.613 . S
N277 C280 1.350 . S
N278 S276 1.610 . S
N278 C279 1.351 . S
C279 C273 1.428 . S
C279 N278 1.351 . S
C279 C280 1.434 . S
C280 C271 1.429 . S
C280 N277 1.350 . S
C280 C279 1.434 . S
C281 C282 1.369 . S
C281 C283 1.419 . S
C281 H285 0.930 . S
C282 C281 1.369 . S
C282 C291 1.429 . S
C283 C281 1.419 . S
C283 C284 1.363 . S
C283 H286 0.929 . S
C284 C283 1.363 . S
C284 C290 1.428 . S
H285 C281 0.930 . S
H286 C283 0.929 . S
S287 N288 1.613 . S
S287 N289 1.610 . S
N288 S287 1.613 . S
N288 C291 1.350 . S
N289 S287 1.610 . S
N289 C290 1.351 . S
C290 C284 1.428 . S
C290 N289 1.351 . S
C290 C291 1.434 . S
C291 C282 1.429 . S
C291 N288 1.350 . S
C291 C290 1.434 . S
C292 C293 1.369 . S
C292 C294 1.419 . S
C292 H296 0.930 . S
C293 C292 1.369 . S
C293 C302 1.429 . S
C294 C292 1.419 . S
C294 C295 1.363 . S
C294 H297 0.929 . S
C295 C294 1.363 . S
C295 C301 1.428 . S
H296 C292 0.930 . S
H297 C294 0.929 . S
S298 N299 1.613 . S
S298 N300 1.610 . S
N299 S298 1.613 . S
N299 C302 1.350 . S
N300 S298 1.610 . S
N300 C301 1.351 . S
C301 C295 1.428 . S
C301 N300 1.351 . S
C301 C302 1.434 . S
C302 C293 1.429 . S
C302 N299 1.350 . S
C302 C301 1.434 . S
C303 C304 1.369 . S
C303 C305 1.419 . S
C303 H307 0.930 . S
C304 C303 1.369 . S
C304 C313 1.429 . S
C305 C303 1.419 . S
C305 C306 1.363 . S
C305 H308 0.929 . S
C306 C305 1.363 . S
C306 C312 1.428 . S
H307 C303 0.930 . S
H308 C305 0.929 . S
S309 N310 1.613 . S
S309 N311 1.610 . S
N310 S309 1.613 . S
N310 C313 1.350 . S
N311 S309 1.610 . S
N311 C312 1.351 . S
C312 C306 1.428 . S
C312 N311 1.351 . S
C312 C313 1.434 . S
C313 C304 1.429 . S
C313 N310 1.350 . S
C313 C312 1.434 . S
C314 C315 1.369 . S
C314 C316 1.419 . S
C314 H318 0.930 . S
C315 C314 1.369 . S
C315 C324 1.429 . S
C316 C314 1.419 . S
C316 C317 1.363 . S
C316 H319 0.929 . S
C317 C316 1.363 . S
C317 C323 1.428 . S
H318 C314 0.930 . S
H319 C316 0.929 . S
S320 N321 1.613 1_655 S
S320 N322 1.610 1_655 S
N321 S320 1.613 1_455 S
N321 C324 1.350 . S
N322 S320 1.610 1_455 S
N322 C323 1.351 . S
C323 C317 1.428 . S
C323 N322 1.351 . S
C323 C324 1.434 . S
C324 C315 1.429 . S
C324 N321 1.350 . S
C324 C323 1.434 . S
C325 C326 1.369 . S
C325 C327 1.419 . S
C325 H329 0.930 . S
C326 C325 1.369 . S
C326 C335 1.429 . S
C327 C325 1.419 . S
C327 C328 1.363 . S
C327 H330 0.929 . S
C328 C327 1.363 . S
C328 C334 1.428 . S
H329 C325 0.930 . S
H330 C327 0.929 . S
S331 N332 1.613 . S
S331 N333 1.610 . S
N332 S331 1.613 . S
N332 C335 1.350 . S
N333 S331 1.610 . S
N333 C334 1.351 . S
C334 C328 1.428 . S
C334 N333 1.351 . S
C334 C335 1.434 . S
C335 C326 1.429 . S
C335 N332 1.350 . S
C335 C334 1.434 . S
C336 C337 1.369 . S
C336 C338 1.419 . S
C336 H340 0.930 . S
C337 C336 1.369 . S
C337 C346 1.429 . S
C338 C336 1.419 . S
C338 C339 1.363 . S
C338 H341 0.929 . S
C339 C338 1.363 . S
C339 C345 1.428 . S
H340 C336 0.930 . S
H341 C338 0.929 . S
S342 N343 1.613 . S
S342 N344 1.610 . S
N343 S342 1.613 . S
N343 C346 1.350 . S
N344 S342 1.610 . S
N344 C345 1.351 . S
C345 C339 1.428 . S
C345 N344 1.351 . S
C345 C346 1.434 . S
C346 C337 1.429 . S
C346 N343 1.350 . S
C346 C345 1.434 . S
C347 C348 1.369 . S
C347 C349 1.419 . S
C347 H351 0.930 . S
C348 C347 1.369 . S
C348 C357 1.429 . S
C349 C347 1.419 . S
C349 C350 1.363 . S
C349 H352 0.929 . S
C350 C349 1.363 . S
C350 C356 1.428 . S
H351 C347 0.930 . S
H352 C349 0.929 . S
S353 N354 1.613 . S
S353 N355 1.610 . S
N354 S353 1.613 . S
N354 C357 1.350 . S
N355 S353 1.610 . S
N355 C356 1.351 . S
C356 C350 1.428 . S
C356 N355 1.351 . S
C356 C357 1.434 . S
C357 C348 1.429 . S
C357 N354 1.350 . S
C357 C356 1.434 . S
C358 C359 1.369 . S
C358 C360 1.419 . S
C358 H362 0.930 . S
C359 C358 1.369 . S
C359 C368 1.429 . S
C360 C358 1.419 . S
C360 C361 1.363 . S
C360 H363 0.929 . S
C361 C360 1.363 . S
C361 C367 1.428 . S
H362 C358 0.930 . S
H363 C360 0.929 . S
S364 N365 1.613 . S
S364 N366 1.610 . S
N365 S364 1.613 . S
N365 C368 1.350 . S
N366 S364 1.610 . S
N366 C367 1.351 . S
C367 C361 1.428 . S
C367 N366 1.351 . S
C367 C368 1.434 . S
C368 C359 1.429 . S
C368 N365 1.350 . S
C368 C367 1.434 . S
C369 C370 1.369 . S
C369 C371 1.419 . S
C369 H373 0.930 . S
C370 C369 1.369 . S
C370 C379 1.429 . S
C371 C369 1.419 . S
C371 C372 1.363 . S
C371 H374 0.929 . S
C372 C371 1.363 . S
C372 C378 1.428 . S
H373 C369 0.930 . S
H374 C371 0.929 . S
S375 N376 1.613 . S
S375 N377 1.610 . S
N376 S375 1.613 . S
N376 C379 1.350 . S
N377 S375 1.610 . S
N377 C378 1.351 . S
C378 C372 1.428 . S
C378 N377 1.351 . S
C378 C379 1.434 . S
C379 C370 1.429 . S
C379 N376 1.350 . S
C379 C378 1.434 . S
C380 C381 1.369 . S
C380 C382 1.419 . S
C380 H384 0.930 . S
C381 C380 1.369 . S
C381 C390 1.429 . S
C382 C380 1.419 . S
C382 C383 1.363 . S
C382 H385 0.929 . S
C383 C382 1.363 . S
C383 C389 1.428 . S
H384 C380 0.930 . S
H385 C382 0.929 . S
S386 N387 1.613 . S
S386 N388 1.610 1_556 S
N387 S386 1.613 . S
N387 C390 1.350 1_556 S
N388 S386 1.610 1_554 S
N388 C389 1.351 . S
C389 C383 1.428 . S
C389 N388 1.351 . S
C389 C390 1.434 . S
C390 C381 1.429 . S
C390 N387 1.350 1_554 S
C390 C389 1.434 . S
C391 C392 1.369 . S
C391 C393 1.419 . S
C391 H395 0.930 1_556 S
C392 C391 1.369 . S
C392 C401 1.429 . S
C393 C391 1.419 . S
C393 C394 1.363 . S
C393 H396 0.929 1_556 S
C394 C393 1.363 . S
C394 C400 1.428 . S
H395 C391 0.930 1_554 S
H396 C393 0.929 1_554 S
S397 N398 1.613 . S
S397 N399 1.610 . S
N398 S397 1.613 . S
N398 C401 1.350 . S
N399 S397 1.610 . S
N399 C400 1.351 . S
C400 C394 1.428 . S
C400 N399 1.351 . S
C400 C401 1.434 . S
C401 C392 1.429 . S
C401 N398 1.350 . S
C401 C400 1.434 . S
C402 C403 1.369 . S
C402 C404 1.419 . S
C402 H406 0.930 . S
C403 C402 1.369 . S
C403 C412 1.429 . S
C404 C402 1.419 . S
C404 C405 1.363 . S
C404 H407 0.929 . S
C405 C404 1.363 . S
C405 C411 1.428 . S
H406 C402 0.930 . S
H407 C404 0.929 . S
S408 N409 1.613 . S
S408 N410 1.610 . S
N409 S408 1.613 . S
N409 C412 1.350 . S
N410 S408 1.610 . S
N410 C411 1.351 . S
C411 C405 1.428 . S
C411 N410 1.351 . S
C411 C412 1.434 . S
C412 C403 1.429 . S
C412 N409 1.350 . S
C412 C411 1.434 . S
C413 C414 1.369 . S
C413 C415 1.419 . S
C413 H417 0.930 . S
C414 C413 1.369 . S
C414 C423 1.429 . S
C415 C413 1.419 . S
C415 C416 1.363 . S
C415 H418 0.929 . S
C416 C415 1.363 . S
C416 C422 1.428 . S
H417 C413 0.930 . S
H418 C415 0.929 . S
S419 N420 1.613 . S
S419 N421 1.610 . S
N420 S419 1.613 . S
N420 C423 1.350 . S
N421 S419 1.610 . S
N421 C422 1.351 . S
C422 C416 1.428 . S
C422 N421 1.351 . S
C422 C423 1.434 . S
C423 C414 1.429 . S
C423 N420 1.350 . S
C423 C422 1.434 . S
C424 C425 1.369 . S
C424 C426 1.419 . S
C424 H428 0.930 . S
C425 C424 1.369 . S
C425 C434 1.429 . S
C426 C424 1.419 . S
C426 C427 1.363 . S
C426 H429 0.929 . S
C427 C426 1.363 . S
C427 C433 1.428 . S
H428 C424 0.930 . S
H429 C426 0.929 . S
S430 N431 1.613 . S
S430 N432 1.610 . S
N431 S430 1.613 . S
N431 C434 1.350 . S
N432 S430 1.610 . S
N432 C433 1.351 . S
C433 C427 1.428 . S
C433 N432 1.351 . S
C433 C434 1.434 . S
C434 C425 1.429 . S
C434 N431 1.350 . S
C434 C433 1.434 . S
C435 C436 1.369 . S
C435 C437 1.419 . S
C435 H439 0.930 . S
C436 C435 1.369 . S
C436 C445 1.429 . S
C437 C435 1.419 . S
C437 C438 1.363 . S
C437 H440 0.929 . S
C438 C437 1.363 . S
C438 C444 1.428 . S
H439 C435 0.930 . S
H440 C437 0.929 . S
S441 N442 1.613 . S
S441 N443 1.610 . S
N442 S441 1.613 . S
N442 C445 1.350 . S
N443 S441 1.610 . S
N443 C444 1.351 . S
C444 C438 1.428 . S
C444 N443 1.351 . S
C444 C445 1.434 . S
C445 C436 1.429 . S
C445 N442 1.350 . S
C445 C444 1.434 . S
C446 C447 1.369 . S
C446 C448 1.419 . S
C446 H450 0.930 . S
C447 C446 1.369 . S
C447 C456 1.429 . S
C448 C446 1.419 . S
C448 C449 1.363 . S
C448 H451 0.929 . S
C449 C448 1.363 . S
C449 C455 1.428 . S
H450 C446 0.930 . S
H451 C448 0.929 . S
S452 N453 1.613 . S
S452 N454 1.610 . S
N453 S452 1.613 . S
N453 C456 1.350 . S
N454 S452 1.610 . S
N454 C455 1.351 . S
C455 C449 1.428 . S
C455 N454 1.351 . S
C455 C456 1.434 . S
C456 C447 1.429 . S
C456 N453 1.350 . S
C456 C455 1.434 . S
C457 C458 1.369 . S
C457 C459 1.419 . S
C457 H461 0.930 . S
C458 C457 1.369 . S
C458 C467 1.429 . S
C459 C457 1.419 . S
C459 C460 1.363 . S
C459 H462 0.929 . S
C460 C459 1.363 . S
C460 C466 1.428 . S
H461 C457 0.930 . S
H462 C459 0.929 . S
S463 N464 1.613 . S
S463 N465 1.610 . S
N464 S463 1.613 . S
N464 C467 1.350 . S
N465 S463 1.610 . S
N465 C466 1.351 . S
C466 C460 1.428 . S
C466 N465 1.351 . S
C466 C467 1.434 . S
C467 C458 1.429 . S
C467 N464 1.350 . S
C467 C466 1.434 . S
C468 C469 1.369 . S
C468 C470 1.419 . S
C468 H472 0.930 . S
C469 C468 1.369 . S
C469 C478 1.429 . S
C470 C468 1.419 . S
C470 C471 1.363 . S
C470 H473 0.929 . S
C471 C470 1.363 . S
C471 C477 1.428 . S
H472 C468 0.930 . S
H473 C470 0.929 . S
S474 N475 1.613 . S
S474 N476 1.610 . S
N475 S474 1.613 . S
N475 C478 1.350 . S
N476 S474 1.610 . S
N476 C477 1.351 . S
C477 C471 1.428 . S
C477 N476 1.351 . S
C477 C478 1.434 . S
C478 C469 1.429 . S
C478 N475 1.350 . S
C478 C477 1.434 . S
C479 C480 1.369 . S
C479 C481 1.419 . S
C479 H483 0.930 . S
C480 C479 1.369 . S
C480 C489 1.429 . S
C481 C479 1.419 . S
C481 C482 1.363 . S
C481 H484 0.929 . S
C482 C481 1.363 . S
C482 C488 1.428 . S
H483 C479 0.930 . S
H484 C481 0.929 . S
S485 N486 1.613 . S
S485 N487 1.610 . S
N486 S485 1.613 . S
N486 C489 1.350 . S
N487 S485 1.610 . S
N487 C488 1.351 . S
C488 C482 1.428 . S
C488 N487 1.351 . S
C488 C489 1.434 . S
C489 C480 1.429 . S
C489 N486 1.350 . S
C489 C488 1.434 . S
C490 C491 1.369 . S
C490 C492 1.419 . S
C490 H494 0.930 . S
C491 C490 1.369 . S
C491 C500 1.429 . S
C492 C490 1.419 . S
C492 C493 1.363 . S
C492 H495 0.929 . S
C493 C492 1.363 . S
C493 C499 1.428 . S
H494 C490 0.930 . S
H495 C492 0.929 . S
S496 N497 1.613 . S
S496 N498 1.610 . S
N497 S496 1.613 . S
N497 C500 1.350 . S
N498 S496 1.610 . S
N498 C499 1.351 . S
C499 C493 1.428 . S
C499 N498 1.351 . S
C499 C500 1.434 . S
C500 C491 1.429 . S
C500 N497 1.350 . S
C500 C499 1.434 . S
C501 C502 1.369 . S
C501 C503 1.419 . S
C501 H505 0.930 . S
C502 C501 1.369 . S
C502 C511 1.429 . S
C503 C501 1.419 . S
C503 C504 1.363 . S
C503 H506 0.929 . S
C504 C503 1.363 . S
C504 C510 1.428 . S
H505 C501 0.930 . S
H506 C503 0.929 . S
S507 N508 1.613 . S
S507 N509 1.610 . S
N508 S507 1.613 . S
N508 C511 1.350 . S
N509 S507 1.610 . S
N509 C510 1.351 . S
C510 C504 1.428 . S
C510 N509 1.351 . S
C510 C511 1.434 . S
C511 C502 1.429 . S
C511 N508 1.350 . S
C511 C510 1.434 . S
C512 C513 1.369 . S
C512 C514 1.419 . S
C512 H516 0.930 . S
C513 C512 1.369 . S
C513 C522 1.429 . S
C514 C512 1.419 . S
C514 C515 1.363 . S
C514 H517 0.929 . S
C515 C514 1.363 . S
C515 C521 1.428 . S
H516 C512 0.930 . S
H517 C514 0.929 . S
S518 N519 1.613 1_554 S
S518 N520 1.610 . S
N519 S518 1.613 1_556 S
N519 C522 1.350 . S
N520 S518 1.610 . S
N520 C521 1.351 1_554 S
C521 C515 1.428 . S
C521 N520 1.351 1_556 S
C521 C522 1.434 . S
C522 C513 1.429 . S
C522 N519 1.350 . S
C522 C521 1.434 . S
C523 C524 1.369 . S
C523 C525 1.419 1_554 S
C523 H527 0.930 . S
C524 C523 1.369 . S
C524 C533 1.429 . S
C525 C523 1.419 1_556 S
C525 C526 1.363 1_556 S
C525 H528 0.929 . S
C526 C525 1.363 1_554 S
C526 C532 1.428 . S
H527 C523 0.930 . S
H528 C525 0.929 . S
S529 N530 1.613 . S
S529 N531 1.610 . S
N530 S529 1.613 . S
N530 C533 1.350 . S
N531 S529 1.610 . S
N531 C532 1.351 . S
C532 C526 1.428 . S
C532 N531 1.351 . S
C532 C533 1.434 . S
C533 C524 1.429 . S
C533 N530 1.350 . S
C533 C532 1.434 . S
C534 C535 1.369 . S
C534 C536 1.419 . S
C534 H538 0.930 . S
C535 C534 1.369 . S
C535 C544 1.429 . S
C536 C534 1.419 . S
C536 C537 1.363 . S
C536 H539 0.929 1_556 S
C537 C536 1.363 . S
C537 C543 1.428 . S
H538 C534 0.930 . S
H539 C536 0.929 1_554 S
S540 N541 1.613 . S
S540 N542 1.610 . S
N541 S540 1.613 . S
N541 C544 1.350 . S
N542 S540 1.610 . S
N542 C543 1.351 . S
C543 C537 1.428 . S
C543 N542 1.351 . S
C543 C544 1.434 . S
C544 C535 1.429 . S
C544 N541 1.350 . S
C544 C543 1.434 . S
C545 C546 1.369 . S
C545 C547 1.419 . S
C545 H549 0.930 . S
C546 C545 1.369 . S
C546 C555 1.429 . S
C547 C545 1.419 . S
C547 C548 1.363 . S
C547 H550 0.929 . S
C548 C547 1.363 . S
C548 C554 1.428 . S
H549 C545 0.930 . S
H550 C547 0.929 . S
S551 N552 1.613 1_556 S
S551 N553 1.610 . S
N552 S551 1.613 1_554 S
N552 C555 1.350 . S
N553 S551 1.610 . S
N553 C554 1.351 1_556 S
C554 C548 1.428 . S
C554 N553 1.351 1_554 S
C554 C555 1.434 . S
C555 C546 1.429 . S
C555 N552 1.350 . S
C555 C554 1.434 . S
C556 C557 1.369 . S
C556 C558 1.419 . S
C556 H560 0.930 . S
C557 C556 1.369 . S
C557 C566 1.429 . S
C558 C556 1.419 . S
C558 C559 1.363 . S
C558 H561 0.929 . S
C559 C558 1.363 . S
C559 C565 1.428 . S
H560 C556 0.930 . S
H561 C558 0.929 . S
S562 N563 1.613 . S
S562 N564 1.610 . S
N563 S562 1.613 . S
N563 C566 1.350 . S
N564 S562 1.610 . S
N564 C565 1.351 . S
C565 C559 1.428 . S
C565 N564 1.351 . S
C565 C566 1.434 . S
C566 C557 1.429 . S
C566 N563 1.350 . S
C566 C565 1.434 . S
C567 C568 1.369 . S
C567 C569 1.419 . S
C567 H571 0.930 . S
C568 C567 1.369 . S
C568 C577 1.429 . S
C569 C567 1.419 . S
C569 C570 1.363 . S
C569 H572 0.929 . S
C570 C569 1.363 . S
C570 C576 1.428 . S
H571 C567 0.930 . S
H572 C569 0.929 . S
S573 N574 1.613 . S
S573 N575 1.610 . S
N574 S573 1.613 . S
N574 C577 1.350 . S
N575 S573 1.610 . S
N575 C576 1.351 . S
C576 C570 1.428 . S
C576 N575 1.351 . S
C576 C577 1.434 . S
C577 C568 1.429 . S
C577 N574 1.350 . S
C577 C576 1.434 . S
C578 C579 1.369 . S
C578 C580 1.419 . S
C578 H582 0.930 . S
C579 C578 1.369 . S
C579 C588 1.429 . S
C580 C578 1.419 . S
C580 C581 1.363 . S
C580 H583 0.929 . S
C581 C580 1.363 . S
C581 C587 1.428 . S
H582 C578 0.930 . S
H583 C580 0.929 . S
S584 N585 1.613 . S
S584 N586 1.610 . S
N585 S584 1.613 . S
N585 C588 1.350 . S
N586 S584 1.610 . S
N586 C587 1.351 . S
C587 C581 1.428 . S
C587 N586 1.351 . S
C587 C588 1.434 . S
C588 C579 1.429 . S
C588 N585 1.350 . S
C588 C587 1.434 . S
C589 C590 1.369 . S
C589 C591 1.419 . S
C589 H593 0.930 . S
C590 C589 1.369 . S
C590 C599 1.429 . S
C591 C589 1.419 . S
C591 C592 1.363 . S
C591 H594 0.929 . S
C592 C591 1.363 . S
C592 C598 1.428 . S
H593 C589 0.930 . S
H594 C591 0.929 . S
S595 N596 1.613 . S
S595 N597 1.610 . S
N596 S595 1.613 . S
N596 C599 1.350 . S
N597 S595 1.610 . S
N597 C598 1.351 . S
C598 C592 1.428 . S
C598 N597 1.351 . S
C598 C599 1.434 . S
C599 C590 1.429 . S
C599 N596 1.350 . S
C599 C598 1.434 . S
C249 C18 1.896 . S
C251 C11 1.893 . S
C260 C42 1.895 . S
C262 C49 1.893 . S
C271 C73 1.894 . S
C273 C80 1.893 . S
C282 C104 1.892 . S
C284 C111 1.895 . S
C293 C142 1.894 . S
C295 C135 1.894 1_554 S
C304 C173 1.893 1_556 S
C306 C166 1.895 . S
C315 C204 1.892 . S
C317 C197 1.895 1_554 S
C326 C235 1.895 1_556 S
C328 C228 1.893 . S
C337 C2 1.635 . S
C339 C244 1.837 . S
C348 C41 1.637 . S
C350 C125 1.838 . S
C359 C64 1.624 . S
C361 C182 1.840 . S
C370 C103 1.622 . S
C372 C187 1.842 . S
C381 C55 1.958 . S
C383 C10 2.101 . S
C392 C62 1.967 . S
C394 C33 2.097 . S
C403 C72 2.099 . S
C405 C117 1.964 . S
C414 C0 1.966 . S
C416 C95 2.098 . S
C425 C126 1.632 . S
C427 C120 1.842 . S
C436 C165 1.634 . S
C438 C1 1.843 . S
C447 C188 1.622 . S
C449 C58 1.844 . S
C458 C227 1.622 . S
C460 C63 1.843 . S
C469 C179 1.967 . S
C471 C134 2.096 . S
C480 C157 2.101 . S
C482 C186 1.961 . S
C491 C196 2.097 . S
C493 C241 1.961 . S
C502 C219 2.099 . S
C504 C124 1.965 . S
C513 C210 0.511 . S
C515 C27 0.428 1_556 S
C524 C217 0.486 . S
C526 C32 0.428 1_554 S
C535 C148 0.497 . S
C537 C89 0.432 1_556 S
C546 C155 0.511 . S
C548 C94 0.421 1_554 S
C557 C24 0.507 . S
C559 C213 0.417 . S
C568 C31 0.507 . S
C570 C218 0.418 . S
C579 C151 0.415 . S
C581 C86 0.487 . S
C590 C156 0.422 . S
C592 C93 0.508 . S
