# Generated by pormake.
# Topology unu, (4)-cn, num edge types: 1
# Building blocks:
#     Node 0, Type 0, BuildingBlock: NAHDIM_clean_sbu_0, # of connection points: 4
#     Node 1, Type 0, BuildingBlock: NAHDIM_clean_sbu_0, # of connection points: 4
#     Node 2, Type 0, BuildingBlock: NAHDIM_clean_sbu_0, # of connection points: 4
#     Node 3, Type 0, BuildingBlock: NAHDIM_clean_sbu_0, # of connection points: 4
#     Node 4, Type 0, BuildingBlock: NAHDIM_clean_sbu_0, # of connection points: 4
#     Node 5, Type 0, BuildingBlock: NAHDIM_clean_sbu_0, # of connection points: 4
#     Node 6, Type 0, BuildingBlock: NAHDIM_clean_sbu_0, # of connection points: 4
#     Node 7, Type 0, BuildingBlock: NAHDIM_clean_sbu_0, # of connection points: 4
#     Node 8, Type 0, BuildingBlock: NAHDIM_clean_sbu_0, # of connection points: 4
#     Node 9, Type 0, BuildingBlock: NAHDIM_clean_sbu_0, # of connection points: 4
#     Node 10, Type 0, BuildingBlock: NAHDIM_clean_sbu_0, # of connection points: 4
#     Node 11, Type 0, BuildingBlock: NAHDIM_clean_sbu_0, # of connection points: 4
#     Node 12, Type 0, BuildingBlock: NAHDIM_clean_sbu_0, # of connection points: 4
#     Node 13, Type 0, BuildingBlock: NAHDIM_clean_sbu_0, # of connection points: 4
#     Node 14, Type 0, BuildingBlock: NAHDIM_clean_sbu_0, # of connection points: 4
#     Node 15, Type 0, BuildingBlock: NAHDIM_clean_sbu_0, # of connection points: 4
#     Node 16, Type 0, BuildingBlock: NAHDIM_clean_sbu_0, # of connection points: 4
#     Node 17, Type 0, BuildingBlock: NAHDIM_clean_sbu_0, # of connection points: 4
#     Node 18, Type 0, BuildingBlock: NAHDIM_clean_sbu_0, # of connection points: 4
#     Node 19, Type 0, BuildingBlock: NAHDIM_clean_sbu_0, # of connection points: 4
#     Node 20, Type 0, BuildingBlock: NAHDIM_clean_sbu_0, # of connection points: 4
#     Node 21, Type 0, BuildingBlock: NAHDIM_clean_sbu_0, # of connection points: 4
#     Node 22, Type 0, BuildingBlock: NAHDIM_clean_sbu_0, # of connection points: 4
#     Node 23, Type 0, BuildingBlock: NAHDIM_clean_sbu_0, # of connection points: 4
#     Node 24, Type 0, BuildingBlock: NAHDIM_clean_sbu_0, # of connection points: 4
#     Node 25, Type 0, BuildingBlock: NAHDIM_clean_sbu_0, # of connection points: 4
#     Node 26, Type 0, BuildingBlock: NAHDIM_clean_sbu_0, # of connection points: 4
#     Node 27, Type 0, BuildingBlock: NAHDIM_clean_sbu_0, # of connection points: 4
#     Node 28, Type 0, BuildingBlock: NAHDIM_clean_sbu_0, # of connection points: 4
#     Node 29, Type 0, BuildingBlock: NAHDIM_clean_sbu_0, # of connection points: 4
#     Node 30, Type 0, BuildingBlock: NAHDIM_clean_sbu_0, # of connection points: 4
#     Node 31, Type 0, BuildingBlock: NAHDIM_clean_sbu_0, # of connection points: 4
#     Node 32, Type 0, BuildingBlock: NAHDIM_clean_sbu_0, # of connection points: 4
#     Node 33, Type 0, BuildingBlock: NAHDIM_clean_sbu_0, # of connection points: 4
#     Node 34, Type 0, BuildingBlock: NAHDIM_clean_sbu_0, # of connection points: 4
#     Node 35, Type 0, BuildingBlock: NAHDIM_clean_sbu_0, # of connection points: 4
#     Edge 36, Type (0, 0), BuildingBlock: XUDNAN_clean_linker_2, # of connection points: 2
#     Edge 37, Type (0, 0), BuildingBlock: XUDNAN_clean_linker_2, # of connection points: 2
#     Edge 38, Type (0, 0), BuildingBlock: XUDNAN_clean_linker_2, # of connection points: 2
#     Edge 39, Type (0, 0), BuildingBlock: XUDNAN_clean_linker_2, # of connection points: 2
#     Edge 40, Type (0, 0), BuildingBlock: XUDNAN_clean_linker_2, # of connection points: 2
#     Edge 41, Type (0, 0), BuildingBlock: XUDNAN_clean_linker_2, # of connection points: 2
#     Edge 42, Type (0, 0), BuildingBlock: XUDNAN_clean_linker_2, # of connection points: 2
#     Edge 43, Type (0, 0), BuildingBlock: XUDNAN_clean_linker_2, # of connection points: 2
#     Edge 44, Type (0, 0), BuildingBlock: XUDNAN_clean_linker_2, # of connection points: 2
#     Edge 45, Type (0, 0), BuildingBlock: XUDNAN_clean_linker_2, # of connection points: 2
#     Edge 46, Type (0, 0), BuildingBlock: XUDNAN_clean_linker_2, # of connection points: 2
#     Edge 47, Type (0, 0), BuildingBlock: XUDNAN_clean_linker_2, # of connection points: 2
#     Edge 48, Type (0, 0), BuildingBlock: XUDNAN_clean_linker_2, # of connection points: 2
#     Edge 49, Type (0, 0), BuildingBlock: XUDNAN_clean_linker_2, # of connection points: 2
#     Edge 50, Type (0, 0), BuildingBlock: XUDNAN_clean_linker_2, # of connection points: 2
#     Edge 51, Type (0, 0), BuildingBlock: XUDNAN_clean_linker_2, # of connection points: 2
#     Edge 52, Type (0, 0), BuildingBlock: XUDNAN_clean_linker_2, # of connection points: 2
#     Edge 53, Type (0, 0), BuildingBlock: XUDNAN_clean_linker_2, # of connection points: 2
#     Edge 54, Type (0, 0), BuildingBlock: XUDNAN_clean_linker_2, # of connection points: 2
#     Edge 55, Type (0, 0), BuildingBlock: XUDNAN_clean_linker_2, # of connection points: 2
#     Edge 56, Type (0, 0), BuildingBlock: XUDNAN_clean_linker_2, # of connection points: 2
#     Edge 57, Type (0, 0), BuildingBlock: XUDNAN_clean_linker_2, # of connection points: 2
#     Edge 58, Type (0, 0), BuildingBlock: XUDNAN_clean_linker_2, # of connection points: 2
#     Edge 59, Type (0, 0), BuildingBlock: XUDNAN_clean_linker_2, # of connection points: 2
#     Edge 60, Type (0, 0), BuildingBlock: XUDNAN_clean_linker_2, # of connection points: 2
#     Edge 61, Type (0, 0), BuildingBlock: XUDNAN_clean_linker_2, # of connection points: 2
#     Edge 62, Type (0, 0), BuildingBlock: XUDNAN_clean_linker_2, # of connection points: 2
#     Edge 63, Type (0, 0), BuildingBlock: XUDNAN_clean_linker_2, # of connection points: 2
#     Edge 64, Type (0, 0), BuildingBlock: XUDNAN_clean_linker_2, # of connection points: 2
#     Edge 65, Type (0, 0), BuildingBlock: XUDNAN_clean_linker_2, # of connection points: 2
#     Edge 66, Type (0, 0), BuildingBlock: XUDNAN_clean_linker_2, # of connection points: 2
#     Edge 67, Type (0, 0), BuildingBlock: XUDNAN_clean_linker_2, # of connection points: 2
#     Edge 68, Type (0, 0), BuildingBlock: XUDNAN_clean_linker_2, # of connection points: 2
#     Edge 69, Type (0, 0), BuildingBlock: XUDNAN_clean_linker_2, # of connection points: 2
#     Edge 70, Type (0, 0), BuildingBlock: XUDNAN_clean_linker_2, # of connection points: 2
#     Edge 71, Type (0, 0), BuildingBlock: XUDNAN_clean_linker_2, # of connection points: 2
#     Edge 72, Type (0, 0), BuildingBlock: XUDNAN_clean_linker_2, # of connection points: 2
#     Edge 73, Type (0, 0), BuildingBlock: XUDNAN_clean_linker_2, # of connection points: 2
#     Edge 74, Type (0, 0), BuildingBlock: XUDNAN_clean_linker_2, # of connection points: 2
#     Edge 75, Type (0, 0), BuildingBlock: XUDNAN_clean_linker_2, # of connection points: 2
#     Edge 76, Type (0, 0), BuildingBlock: XUDNAN_clean_linker_2, # of connection points: 2
#     Edge 77, Type (0, 0), BuildingBlock: XUDNAN_clean_linker_2, # of connection points: 2
#     Edge 78, Type (0, 0), BuildingBlock: XUDNAN_clean_linker_2, # of connection points: 2
#     Edge 79, Type (0, 0), BuildingBlock: XUDNAN_clean_linker_2, # of connection points: 2
#     Edge 80, Type (0, 0), BuildingBlock: XUDNAN_clean_linker_2, # of connection points: 2
#     Edge 81, Type (0, 0), BuildingBlock: XUDNAN_clean_linker_2, # of connection points: 2
#     Edge 82, Type (0, 0), BuildingBlock: XUDNAN_clean_linker_2, # of connection points: 2
#     Edge 83, Type (0, 0), BuildingBlock: XUDNAN_clean_linker_2, # of connection points: 2
#     Edge 84, Type (0, 0), BuildingBlock: XUDNAN_clean_linker_2, # of connection points: 2
#     Edge 85, Type (0, 0), BuildingBlock: XUDNAN_clean_linker_2, # of connection points: 2
#     Edge 86, Type (0, 0), BuildingBlock: XUDNAN_clean_linker_2, # of connection points: 2
#     Edge 87, Type (0, 0), BuildingBlock: XUDNAN_clean_linker_2, # of connection points: 2
#     Edge 88, Type (0, 0), BuildingBlock: XUDNAN_clean_linker_2, # of connection points: 2
#     Edge 89, Type (0, 0), BuildingBlock: XUDNAN_clean_linker_2, # of connection points: 2
#     Edge 90, Type (0, 0), BuildingBlock: XUDNAN_clean_linker_2, # of connection points: 2
#     Edge 91, Type (0, 0), BuildingBlock: XUDNAN_clean_linker_2, # of connection points: 2
#     Edge 92, Type (0, 0), BuildingBlock: XUDNAN_clean_linker_2, # of connection points: 2
#     Edge 93, Type (0, 0), BuildingBlock: XUDNAN_clean_linker_2, # of connection points: 2
#     Edge 94, Type (0, 0), BuildingBlock: XUDNAN_clean_linker_2, # of connection points: 2
#     Edge 95, Type (0, 0), BuildingBlock: XUDNAN_clean_linker_2, # of connection points: 2
#     Edge 96, Type (0, 0), BuildingBlock: XUDNAN_clean_linker_2, # of connection points: 2
#     Edge 97, Type (0, 0), BuildingBlock: XUDNAN_clean_linker_2, # of connection points: 2
#     Edge 98, Type (0, 0), BuildingBlock: XUDNAN_clean_linker_2, # of connection points: 2
#     Edge 99, Type (0, 0), BuildingBlock: XUDNAN_clean_linker_2, # of connection points: 2
#     Edge 100, Type (0, 0), BuildingBlock: XUDNAN_clean_linker_2, # of connection points: 2
#     Edge 101, Type (0, 0), BuildingBlock: XUDNAN_clean_linker_2, # of connection points: 2
#     Edge 102, Type (0, 0), BuildingBlock: XUDNAN_clean_linker_2, # of connection points: 2
#     Edge 103, Type (0, 0), BuildingBlock: XUDNAN_clean_linker_2, # of connection points: 2
#     Edge 104, Type (0, 0), BuildingBlock: XUDNAN_clean_linker_2, # of connection points: 2
#     Edge 105, Type (0, 0), BuildingBlock: XUDNAN_clean_linker_2, # of connection points: 2
#     Edge 106, Type (0, 0), BuildingBlock: XUDNAN_clean_linker_2, # of connection points: 2
#     Edge 107, Type (0, 0), BuildingBlock: XUDNAN_clean_linker_2, # of connection points: 2
# Relax obj value: 0.298
# Max RMSD: 0.283
# Mean RMSD: 0.283
data_MOF--net-unu--node1-NAHDIM_clean_sbu_0--edge1-XUDNAN_clean_linker_2
_symmetry_space_group_name_H-M    P1
_symmetry_Int_Tables_number       1
_symmetry_cell_setting            triclinic
loop_
_symmetry_equiv_pos_as_xyz
'x, y, z'
_cell_length_a     39.611952
_cell_length_b     39.628492
_cell_length_c     123.67218
_cell_angle_alpha  90.005798
_cell_angle_beta   90.024739
_cell_angle_gamma 119.98723
loop_
_atom_site_label
_atom_site_type_symbol
_atom_site_fract_x
_atom_site_fract_y
_atom_site_fract_z
_atom_type_partial_charge
C0 C 0.29701 0.06847 0.10039 0.0
O1 O 0.29285 0.05345 0.11009 0.0
O2 O 0.19751 0.03542 0.11121 0.0
Zn3 Zn 0.24559 0.08834 0.10999 0.0
O4 O 0.27735 0.10401 0.12362 0.0
C5 C 0.19662 0.11475 0.1013 0.0
O6 O 0.18096 0.08023 0.09674 0.0
O7 O 0.27901 0.08656 0.09807 0.0
C8 C 0.27056 0.11976 0.13163 0.0
O9 O 0.24012 0.12466 0.13139 0.0
C10 C 0.19198 0.00599 0.11669 0.0
O11 O 0.22011 0.00822 0.12282 0.0
O12 O 0.22723 0.12643 0.10697 0.0
C13 C 0.91165 0.22196 0.10868 0.0
O14 O 0.91412 0.22538 0.11925 0.0
O15 O 0.96438 0.15571 0.11054 0.0
Zn16 Zn 0.91256 0.15134 0.11346 0.0
O17 O 0.90967 0.16141 0.12922 0.0
C18 C 0.87833 0.07496 0.10414 0.0
O19 O 0.91046 0.09162 0.09837 0.0
O20 O 0.90861 0.19147 0.10431 0.0
C21 C 0.8768 0.1515 0.13345 0.0
O22 O 0.84535 0.13464 0.1274 0.0
C23 C 0.99699 0.18658 0.11187 0.0
O24 O 0.99786 0.21814 0.11552 0.0
O25 O 0.87119 0.0958 0.11051 0.0
C26 C 0.77199 0.69779 0.10402 0.0
O27 O 0.76119 0.70946 0.11261 0.0
O28 O 0.83362 0.79928 0.11169 0.0
Zn29 Zn 0.84117 0.75286 0.11326 0.0
O30 O 0.82188 0.72746 0.12772 0.0
C31 C 0.91978 0.80281 0.10649 0.0
O32 O 0.90259 0.81757 0.10065 0.0
O33 O 0.80822 0.71291 0.10204 0.0
C34 C 0.84327 0.73236 0.13589 0.0
O35 O 0.88094 0.7568 0.13528 0.0
C36 C 0.81069 0.8064 0.11712 0.0
O37 O 0.78878 0.7819 0.12467 0.0
O38 O 0.89888 0.77241 0.11207 0.0
C39 C 0.10132 0.29745 0.39545 0.0
O40 O 0.09013 0.2952 0.38535 0.0
O41 O 0.05246 0.18612 0.38961 0.0
Zn42 Zn 0.10671 0.23204 0.38856 0.0
O43 O 0.12001 0.25364 0.37352 0.0
C44 C 0.13655 0.19269 0.4013 0.0
O45 O 0.11193 0.19289 0.40838 0.0
O46 O 0.11161 0.27364 0.39885 0.0
C47 C 0.15513 0.28044 0.3722 0.0
O48 O 0.17906 0.29119 0.3805 0.0
C49 C 0.02048 0.18619 0.39024 0.0
O50 O 0.0204 0.21921 0.38951 0.0
O51 O 0.1416 0.21065 0.39241 0.0
C52 C 0.70042 0.77037 0.39565 0.0
O53 O 0.7157 0.76585 0.38671 0.0
O54 O 0.80082 0.8268 0.39143 0.0
Zn55 Zn 0.76024 0.84331 0.39092 0.0
O56 O 0.74023 0.84262 0.37596 0.0
C57 C 0.81756 0.9156 0.40063 0.0
O58 O 0.83437 0.8951 0.40293 0.0
O59 O 0.71484 0.80431 0.39968 0.0
C60 C 0.71516 0.85372 0.37575 0.0
O61 O 0.70578 0.86402 0.38486 0.0
C62 C 0.81787 0.82041 0.38367 0.0
O63 O 0.80904 0.82402 0.37366 0.0
O64 O 0.78402 0.8987 0.39626 0.0
C65 C 0.20537 0.86595 0.39241 0.0
O66 O 0.19743 0.85535 0.38224 0.0
O67 O 0.15647 0.94075 0.39444 0.0
Zn68 Zn 0.14661 0.88809 0.38955 0.0
O69 O 0.15546 0.88729 0.37357 0.0
C70 C 0.06553 0.82757 0.38634 0.0
O71 O 0.07762 0.82352 0.3768 0.0
O72 O 0.18511 0.87777 0.39739 0.0
C73 C 0.13909 0.89592 0.3661 0.0
O74 O 0.11474 0.90809 0.36864 0.0
C75 C 0.17509 0.9729 0.38941 0.0
O76 O 0.19052 0.97387 0.37994 0.0
O77 O 0.09023 0.85046 0.39323 0.0
C78 C 0.69486 0.90172 0.89938 0.0
O79 O 0.69949 0.91201 0.88916 0.0
O80 O 0.79734 0.94368 0.89087 0.0
Zn81 Zn 0.75375 0.88812 0.89268 0.0
O82 O 0.72322 0.86379 0.87909 0.0
C83 C 0.80637 0.86164 0.89139 0.0
O84 O 0.81157 0.88073 0.8823 0.0
O85 O 0.71556 0.88853 0.90338 0.0
C86 C 0.7335 0.87213 0.86929 0.0
O87 O 0.76918 0.89952 0.86696 0.0
C88 C 0.79944 0.97196 0.88548 0.0
O89 O 0.76988 0.96673 0.87946 0.0
O90 O 0.77989 0.85846 0.89783 0.0
C91 C 0.10499 0.79741 0.89883 0.0
O92 O 0.08726 0.79237 0.88949 0.0
O93 O 0.06132 0.85526 0.89333 0.0
Zn94 Zn 0.118 0.87009 0.89347 0.0
O95 O 0.1342 0.86574 0.87838 0.0
C96 C 0.17171 0.95322 0.89271 0.0
O97 O 0.18172 0.94471 0.88343 0.0
O98 O 0.12331 0.83154 0.9028 0.0
C99 C 0.12024 0.87402 0.87022 0.0
O100 O 0.09536 0.88636 0.87172 0.0
C101 C 0.04011 0.84199 0.90172 0.0
O102 O 0.05519 0.83677 0.91059 0.0
O103 O 0.14764 0.9257 0.89876 0.0
C104 C 0.20702 0.31082 0.89398 0.0
O105 O 0.21557 0.2988 0.88503 0.0
O106 O 0.15129 0.20609 0.89098 0.0
Zn107 Zn 0.13735 0.2475 0.88774 0.0
O108 O 0.14753 0.26479 0.87227 0.0
C109 C 0.06122 0.1943 0.89605 0.0
O110 O 0.0811 0.18208 0.90171 0.0
O111 O 0.17179 0.29343 0.89718 0.0
C112 C 0.13324 0.24167 0.8643 0.0
O113 O 0.11171 0.20406 0.86607 0.0
C114 C 0.1729 0.19698 0.88561 0.0
O115 O 0.18882 0.21527 0.87654 0.0
O116 O 0.0796 0.2244 0.89016 0.0
C117 C 0.88349 0.67865 0.60507 0.0
O118 O 0.87024 0.67034 0.61501 0.0
O119 O 0.96023 0.80196 0.60836 0.0
Zn120 Zn 0.90569 0.75795 0.61123 0.0
O121 O 0.90202 0.74194 0.62683 0.0
C122 C 0.86687 0.8005 0.6152 0.0
O123 O 0.88513 0.80562 0.62445 0.0
O124 O 0.89722 0.71329 0.6016 0.0
C125 C 0.87029 0.72442 0.63209 0.0
O126 O 0.83737 0.71569 0.62725 0.0
C127 C 0.98105 0.82431 0.61595 0.0
O128 O 0.96698 0.81788 0.62583 0.0
O129 O 0.86967 0.77899 0.60803 0.0
C130 C 0.32685 0.23118 0.60417 0.0
O131 O 0.32711 0.23688 0.61463 0.0
O132 O 0.2111 0.17819 0.60684 0.0
Zn133 Zn 0.25321 0.16482 0.60949 0.0
O134 O 0.26943 0.1715 0.62514 0.0
C135 C 0.20449 0.08641 0.61306 0.0
O136 O 0.19987 0.10328 0.62163 0.0
O137 O 0.29875 0.20056 0.60005 0.0
C138 C 0.29433 0.16196 0.62802 0.0
O139 O 0.30942 0.14941 0.62067 0.0
C140 C 0.19283 0.1858 0.61397 0.0
O141 O 0.20215 0.18673 0.62421 0.0
O142 O 0.22877 0.10768 0.60586 0.0
C143 C 0.80352 0.08527 0.5877 0.0
O144 O 0.81952 0.06468 0.58465 0.0
O145 O 0.83918 0.04424 0.60597 0.0
Zn146 Zn 0.85207 0.10035 0.60646 0.0
O147 O 0.84152 0.11617 0.62095 0.0
C148 C 0.93462 0.15583 0.60907 0.0
O149 O 0.92344 0.1615 0.61855 0.0
O150 O 0.81548 0.1054 0.59628 0.0
C151 C 0.84959 0.10958 0.63038 0.0
O152 O 0.86745 0.08942 0.63159 0.0
C153 C 0.81914 0.01691 0.61259 0.0
O154 O 0.804 0.02372 0.62118 0.0
O155 O 0.90902 0.13321 0.60232 0.0
C156 C 0.98184 0.40781 0.44033 0.0
O157 O 0.97682 0.40166 0.45079 0.0
O158 O 0.86567 0.35492 0.44078 0.0
Zn159 Zn 0.911 0.40904 0.44297 0.0
O160 O 0.92351 0.42073 0.45879 0.0
C161 C 0.86372 0.44058 0.44338 0.0
O162 O 0.85303 0.41656 0.45165 0.0
O163 O 0.95754 0.41335 0.43499 0.0
C164 C 0.95017 0.4548 0.46138 0.0
O165 O 0.96858 0.48049 0.45371 0.0
C166 C 0.8643 0.32288 0.44288 0.0
O167 O 0.89469 0.3232 0.44725 0.0
O168 O 0.89207 0.44472 0.43758 0.0
C169 C 0.55317 0.52188 0.43176 0.0
O170 O 0.53621 0.51397 0.44127 0.0
O171 O 0.62599 0.47459 0.43894 0.0
Zn172 Zn 0.56981 0.46069 0.43749 0.0
O173 O 0.54923 0.46077 0.45233 0.0
C174 C 0.55587 0.3894 0.42712 0.0
O175 O 0.59337 0.41001 0.4251 0.0
O176 O 0.56725 0.50131 0.42824 0.0
C177 C 0.5131 0.43928 0.45429 0.0
O178 O 0.48989 0.4168 0.44659 0.0
C179 C 0.65217 0.49503 0.43205 0.0
O180 O 0.6431 0.50946 0.42371 0.0
O181 O 0.53897 0.40583 0.43161 0.0
C182 C 0.45112 0.00195 0.42975 0.0
O183 O 0.44496 0.00891 0.43972 0.0
O184 O 0.51586 0.11499 0.43258 0.0
Zn185 Zn 0.5228 0.06844 0.43485 0.0
O186 O 0.51252 0.05211 0.45038 0.0
C187 C 0.59958 0.11653 0.42641 0.0
O188 O 0.58166 0.13177 0.42111 0.0
O189 O 0.48442 0.02367 0.42552 0.0
C190 C 0.52593 0.07619 0.45816 0.0
O191 O 0.54765 0.11355 0.45607 0.0
C192 C 0.48452 0.11631 0.4332 0.0
O193 O 0.45177 0.08468 0.43569 0.0
O194 O 0.57949 0.08615 0.43207 0.0
C195 C 0.78011 0.66888 0.72981 0.0
O196 O 0.79139 0.67689 0.71969 0.0
O197 O 0.70999 0.54967 0.72347 0.0
Zn198 Zn 0.76617 0.59224 0.72392 0.0
O199 O 0.78416 0.61231 0.70888 0.0
C200 C 0.78241 0.53616 0.73411 0.0
O201 O 0.74662 0.52158 0.73772 0.0
O202 O 0.77017 0.63524 0.73353 0.0
C203 C 0.82045 0.62894 0.70687 0.0
O204 O 0.84457 0.63243 0.71466 0.0
C205 C 0.70072 0.52023 0.7175 0.0
O206 O 0.72758 0.51993 0.71133 0.0
O207 O 0.79795 0.56817 0.72894 0.0
C208 C 0.34074 0.12485 0.73036 0.0
O209 O 0.33206 0.12923 0.7204 0.0
O210 O 0.45849 0.16166 0.72512 0.0
Zn211 Zn 0.41909 0.17933 0.72343 0.0
O212 O 0.39661 0.17315 0.70846 0.0
C213 C 0.47884 0.25421 0.7209 0.0
O214 O 0.48629 0.23329 0.71411 0.0
O215 O 0.37548 0.14625 0.73374 0.0
C216 C 0.40941 0.17205 0.69913 0.0
O217 O 0.44345 0.17424 0.69811 0.0
C218 C 0.46222 0.13545 0.72028 0.0
O219 O 0.43792 0.11489 0.71253 0.0
O220 O 0.44829 0.23703 0.7267 0.0
C221 C 0.88257 0.25474 0.72145 0.0
O222 O 0.88353 0.26114 0.71101 0.0
O223 O 0.80933 0.29561 0.72014 0.0
Zn224 Zn 0.80604 0.2434 0.71849 0.0
O225 O 0.80951 0.23172 0.70281 0.0
C226 C 0.72491 0.18807 0.71747 0.0
O227 O 0.73259 0.19576 0.70714 0.0
O228 O 0.85143 0.24543 0.72668 0.0
C229 C 0.81042 0.20096 0.70045 0.0
O230 O 0.80955 0.17813 0.70828 0.0
C231 C 0.84101 0.32807 0.71993 0.0
O232 O 0.8739 0.32865 0.71801 0.0
O233 O 0.75279 0.20373 0.72425 0.0
C234 C 0.34148 0.23615 0.22608 0.0
O235 O 0.33328 0.22495 0.21596 0.0
O236 O 0.4646 0.30018 0.22203 0.0
Zn237 Zn 0.41727 0.24695 0.22047 0.0
O238 O 0.40015 0.23658 0.20496 0.0
C239 C 0.46355 0.21843 0.23039 0.0
O240 O 0.47915 0.25244 0.23524 0.0
O241 O 0.37469 0.24469 0.22987 0.0
C242 C 0.42051 0.22989 0.1983 0.0
O243 O 0.45325 0.2325 0.20163 0.0
C244 C 0.46439 0.33206 0.22274 0.0
O245 O 0.43129 0.33195 0.22181 0.0
O246 O 0.43366 0.20786 0.22448 0.0
C247 C 0.74712 0.12181 0.2268 0.0
O248 O 0.73608 0.11673 0.21663 0.0
O249 O 0.70095 0.18472 0.22155 0.0
Zn250 Zn 0.75582 0.19403 0.22135 0.0
O251 O 0.77378 0.18865 0.20658 0.0
C252 C 0.79018 0.27308 0.2187 0.0
O253 O 0.77232 0.25831 0.20948 0.0
O254 O 0.75874 0.15492 0.23115 0.0
C255 C 0.80953 0.19826 0.20613 0.0
O256 O 0.83075 0.21087 0.21495 0.0
C257 C 0.66948 0.15607 0.21805 0.0
O258 O 0.67031 0.12718 0.21311 0.0
O259 O 0.78911 0.24996 0.226 0.0
C260 C 0.88006 0.65169 0.23107 0.0
O261 O 0.88344 0.63367 0.22257 0.0
O262 O 0.82164 0.55143 0.22783 0.0
Zn263 Zn 0.80625 0.59285 0.22689 0.0
O264 O 0.80821 0.60988 0.21148 0.0
C265 C 0.73312 0.5363 0.23623 0.0
O266 O 0.75341 0.51943 0.23871 0.0
O267 O 0.84638 0.63946 0.2351 0.0
C268 C 0.77836 0.59449 0.20539 0.0
O269 O 0.74547 0.56572 0.20912 0.0
C270 C 0.82283 0.53225 0.21976 0.0
O271 O 0.81505 0.54021 0.21008 0.0
O272 O 0.75057 0.57023 0.23209 0.0
C273 C 0.56399 0.01682 0.93783 0.0
O274 O 0.54995 0.0109 0.94769 0.0
O275 O 0.63878 0.14208 0.93843 0.0
Zn276 Zn 0.58657 0.09712 0.94248 0.0
O277 O 0.58706 0.08516 0.95829 0.0
C278 C 0.55414 0.14315 0.94642 0.0
O279 O 0.58168 0.15384 0.95375 0.0
O280 O 0.57796 0.05054 0.93365 0.0
C281 C 0.55534 0.06898 0.96359 0.0
O282 O 0.52275 0.06086 0.95866 0.0
C283 C 0.67133 0.14527 0.94097 0.0
O284 O 0.67199 0.1175 0.9466 0.0
O285 O 0.54824 0.11581 0.93993 0.0
C286 C 0.98328 0.55054 0.93594 0.0
O287 O 0.9873 0.54092 0.94582 0.0
O288 O 0.85712 0.49727 0.93489 0.0
Zn289 Zn 0.90287 0.49088 0.93899 0.0
O290 O 0.91303 0.49725 0.95496 0.0
C291 C 0.86285 0.41583 0.92863 0.0
O292 O 0.84634 0.43232 0.92325 0.0
O293 O 0.95037 0.53173 0.93126 0.0
C294 C 0.89344 0.46917 0.9614 0.0
O295 O 0.86379 0.43697 0.95763 0.0
C296 C 0.84492 0.51714 0.93987 0.0
O297 O 0.86278 0.53598 0.94872 0.0
O298 O 0.89013 0.43625 0.93524 0.0
C299 C 0.44423 0.43969 0.9356 0.0
O300 O 0.44819 0.44598 0.94607 0.0
O301 O 0.49636 0.37323 0.93863 0.0
Zn302 Zn 0.5111 0.42998 0.93861 0.0
O303 O 0.51516 0.44992 0.95385 0.0
C304 C 0.59031 0.49293 0.93331 0.0
O305 O 0.58335 0.51459 0.93996 0.0
O306 O 0.46896 0.43401 0.93056 0.0
C307 C 0.54458 0.46193 0.96004 0.0
O308 O 0.57558 0.46093 0.95673 0.0
C309 C 0.49964 0.35582 0.94684 0.0
O310 O 0.5113 0.3746 0.95606 0.0
O311 O 0.5634 0.45844 0.93121 0.0
C312 C 0.64222 0.76543 0.77259 0.0
O313 O 0.62733 0.7424 0.78101 0.0
O314 O 0.53872 0.72382 0.77635 0.0
Zn315 Zn 0.58344 0.77789 0.77945 0.0
O316 O 0.60159 0.78344 0.79481 0.0
C317 C 0.53449 0.80678 0.77159 0.0
O318 O 0.52036 0.77515 0.76563 0.0
O319 O 0.62814 0.78683 0.76986 0.0
C320 C 0.57922 0.77777 0.80278 0.0
O321 O 0.54233 0.7664 0.80103 0.0
C322 C 0.52689 0.69368 0.78222 0.0
O323 O 0.54468 0.69599 0.79139 0.0
O324 O 0.56417 0.81588 0.77746 0.0
C325 C 0.24877 0.88836 0.77205 0.0
O326 O 0.26571 0.89684 0.78158 0.0
O327 O 0.29129 0.83037 0.78048 0.0
Zn328 Zn 0.2354 0.81794 0.78001 0.0
O329 O 0.21667 0.82919 0.79389 0.0
C330 C 0.1781 0.73546 0.7824 0.0
O331 O 0.16618 0.74715 0.79076 0.0
O332 O 0.23159 0.85308 0.76889 0.0
C333 C 0.22304 0.82391 0.80363 0.0
O334 O 0.24492 0.80845 0.80574 0.0
C335 C 0.32016 0.8546 0.78611 0.0
O336 O 0.31554 0.8764 0.79328 0.0
O337 O 0.20459 0.76071 0.77633 0.0
C338 C 0.11444 0.37385 0.76675 0.0
O339 O 0.10472 0.37778 0.77664 0.0
O340 O 0.17073 0.46342 0.78037 0.0
Zn341 Zn 0.18585 0.42355 0.77619 0.0
O342 O 0.17733 0.3867 0.78842 0.0
C343 C 0.26857 0.46433 0.77898 0.0
O344 O 0.25801 0.45382 0.78904 0.0
O345 O 0.15028 0.39167 0.76415 0.0
C346 C 0.17668 0.39507 0.7983 0.0
O347 O 0.18261 0.42978 0.80089 0.0
C348 C 0.18102 0.49182 0.77389 0.0
O349 O 0.2006 0.49345 0.76514 0.0
O350 O 0.24244 0.45291 0.7717 0.0
C351 C 0.42307 0.96528 0.05392 0.0
O352 O 0.42557 0.96652 0.04333 0.0
O353 O 0.38255 0.85199 0.0483 0.0
Zn354 Zn 0.4345 0.90072 0.05032 0.0
O355 O 0.45776 0.92406 0.03594 0.0
C356 C 0.45437 0.85374 0.06328 0.0
O357 O 0.41738 0.8378 0.0659 0.0
O358 O 0.42708 0.93959 0.05902 0.0
C359 C 0.49421 0.94754 0.0353 0.0
O360 O 0.51592 0.95467 0.04397 0.0
C361 C 0.34975 0.85028 0.04751 0.0
O362 O 0.34828 0.88266 0.04732 0.0
O363 O 0.4696 0.8841 0.05741 0.0
C364 C 0.0265 0.43361 0.05686 0.0
O365 O 0.02647 0.42001 0.04717 0.0
O366 O 0.12616 0.48632 0.04391 0.0
Zn367 Zn 0.08387 0.5001 0.04632 0.0
O368 O 0.04879 0.48631 0.03336 0.0
C369 C 0.14533 0.57575 0.05255 0.0
O370 O 0.16129 0.55514 0.0556 0.0
O371 O 0.04981 0.46946 0.05882 0.0
C372 C 0.05194 0.51034 0.02608 0.0
O373 O 0.08097 0.54642 0.02653 0.0
C374 C 0.13267 0.46501 0.0503 0.0
O375 O 0.10897 0.44783 0.05845 0.0
O376 O 0.11074 0.55824 0.04884 0.0
C377 C 0.54438 0.55064 0.05873 0.0
O378 O 0.54208 0.53766 0.04883 0.0
O379 O 0.49284 0.62155 0.05382 0.0
Zn380 Zn 0.48642 0.5688 0.051 0.0
O381 O 0.50465 0.56634 0.03595 0.0
C382 C 0.40801 0.5411 0.04724 0.0
O383 O 0.42562 0.57208 0.04103 0.0
O384 O 0.52088 0.56196 0.06169 0.0
C385 C 0.48446 0.53825 0.02955 0.0
O386 O 0.44961 0.51079 0.03252 0.0
C387 C 0.52483 0.65314 0.05512 0.0
O388 O 0.55792 0.65324 0.0542 0.0
O389 O 0.42878 0.53109 0.05273 0.0
C390 C 0.01949 0.57992 0.56262 0.0
O391 O 0.02914 0.59731 0.55317 0.0
O392 O 0.12437 0.62445 0.55693 0.0
Zn393 Zn 0.08007 0.5688 0.5561 0.0
O394 O 0.05531 0.55042 0.54142 0.0
C395 C 0.1287 0.53832 0.55377 0.0
O396 O 0.13503 0.55967 0.54507 0.0
O397 O 0.03783 0.56346 0.56613 0.0
C398 C 0.06768 0.56353 0.532 0.0
O399 O 0.10213 0.59467 0.53078 0.0
C400 C 0.13129 0.6556 0.55211 0.0
O401 O 0.10706 0.65475 0.54473 0.0
O402 O 0.10339 0.53586 0.56053 0.0
C403 C 0.41306 0.44277 0.55396 0.0
O404 O 0.39078 0.42951 0.54534 0.0
O405 O 0.36313 0.49873 0.5477 0.0
Zn406 Zn 0.41798 0.50999 0.54537 0.0
O407 O 0.42165 0.49295 0.53038 0.0
C408 C 0.44865 0.58791 0.53939 0.0
O409 O 0.42538 0.56948 0.53123 0.0
O410 O 0.43013 0.47908 0.55596 0.0
C411 C 0.45422 0.50301 0.52594 0.0
O412 O 0.48656 0.52615 0.53118 0.0
C413 C 0.345 0.48752 0.55664 0.0
O414 O 0.36192 0.48129 0.56492 0.0
O415 O 0.45242 0.56801 0.54686 0.0
C416 C 0.5467 0.95918 0.55435 0.0
O417 O 0.54807 0.94418 0.54499 0.0
O418 O 0.48154 0.86581 0.54729 0.0
Zn419 Zn 0.47076 0.91036 0.54885 0.0
O420 O 0.47636 0.93955 0.53502 0.0
C421 C 0.3878 0.8865 0.55087 0.0
O422 O 0.39302 0.9062 0.54189 0.0
O423 O 0.51355 0.94909 0.55847 0.0
C424 C 0.45956 0.92847 0.5259 0.0
O425 O 0.43299 0.89179 0.5244 0.0
C426 C 0.48499 0.84934 0.53889 0.0
O427 O 0.4815 0.86124 0.52927 0.0
O428 O 0.41691 0.88709 0.55541 0.0
C429 C 0.24757 0.37291 0.27088 0.0
O430 O 0.27096 0.38708 0.27926 0.0
O431 O 0.28871 0.47414 0.27661 0.0
Zn432 Zn 0.23364 0.43002 0.27867 0.0
O433 O 0.22854 0.41103 0.29396 0.0
C434 C 0.19338 0.47041 0.28367 0.0
O435 O 0.20816 0.47042 0.29318 0.0
O436 O 0.22555 0.38673 0.26861 0.0
C437 C 0.19809 0.38315 0.29813 0.0
O438 O 0.16632 0.36441 0.29227 0.0
C439 C 0.30741 0.49531 0.28463 0.0
O440 O 0.29063 0.48749 0.29417 0.0
O441 O 0.19831 0.45227 0.2759 0.0
C442 C 0.6251 0.87732 0.26453 0.0
O443 O 0.59294 0.85521 0.25909 0.0
O444 O 0.53534 0.84912 0.27846 0.0
Zn445 Zn 0.57693 0.83666 0.28276 0.0
O446 O 0.58967 0.84626 0.29855 0.0
C447 C 0.53003 0.75761 0.28643 0.0
O448 O 0.52301 0.77356 0.29481 0.0
O449 O 0.62553 0.87231 0.27465 0.0
C450 C 0.61452 0.83792 0.30226 0.0
O451 O 0.63037 0.82377 0.29567 0.0
C452 C 0.51848 0.86149 0.28472 0.0
O453 O 0.52886 0.86812 0.29493 0.0
O454 O 0.55519 0.7797 0.27953 0.0
C455 C 0.13105 0.80214 0.26557 0.0
O456 O 0.1422 0.82531 0.27402 0.0
O457 O 0.16718 0.71985 0.27473 0.0
Zn458 Zn 0.18139 0.77651 0.27481 0.0
O459 O 0.17007 0.79341 0.2891 0.0
C460 C 0.2642 0.83728 0.27584 0.0
O461 O 0.25383 0.85204 0.28381 0.0
O462 O 0.14649 0.78117 0.26382 0.0
C463 C 0.18628 0.79802 0.29827 0.0
O464 O 0.21455 0.79008 0.29947 0.0
C465 C 0.16091 0.69769 0.28281 0.0
O466 O 0.16244 0.71108 0.29261 0.0
O467 O 0.23836 0.80767 0.27077 0.0
H468 H 0.26416 0.15272 0.15052 0.0
H469 H 0.33988 0.12078 0.13341 0.0
H470 H 0.38754 0.14788 0.14829 0.0
H471 H 0.33996 0.24324 0.1615 0.0
H472 H 0.31573 0.23736 0.17427 0.0
H473 H 0.28749 0.21581 0.16222 0.0
H474 H 0.25355 0.14801 0.17145 0.0
H475 H 0.28148 0.1694 0.18355 0.0
H476 H 0.28284 0.12927 0.17712 0.0
H477 H 0.42715 0.17861 0.16492 0.0
H478 H 0.45438 0.20759 0.18271 0.0
H479 H 0.35264 0.21889 0.1891 0.0
C480 C 0.29073 0.15138 0.1499 0.0
C481 C 0.29829 0.13469 0.14078 0.0
C482 C 0.33339 0.13339 0.14031 0.0
C483 C 0.36074 0.14883 0.14871 0.0
C484 C 0.35253 0.16535 0.15753 0.0
C485 C 0.31831 0.16651 0.15823 0.0
C486 C 0.3163 0.18518 0.16871 0.0
C487 C 0.31479 0.22262 0.16654 0.0
C488 C 0.28148 0.15623 0.17561 0.0
C489 C 0.35469 0.19419 0.1738 0.0
C490 C 0.37525 0.18275 0.16718 0.0
C491 C 0.41135 0.18771 0.17018 0.0
C492 C 0.4266 0.20428 0.18029 0.0
C493 C 0.40567 0.21551 0.1873 0.0
C494 C 0.36943 0.21072 0.18392 0.0
H495 H 0.77262 0.16737 0.18683 0.0
H496 H 0.88593 0.2208 0.20248 0.0
H497 H 0.9153 0.21404 0.18563 0.0
H498 H 0.78433 0.09711 0.17136 0.0
H499 H 0.75905 0.1006 0.15967 0.0
H500 H 0.74685 0.10989 0.17295 0.0
H501 H 0.76011 0.17785 0.16667 0.0
H502 H 0.77224 0.16873 0.15336 0.0
H503 H 0.8066 0.21147 0.16075 0.0
H504 H 0.93246 0.20179 0.16715 0.0
H505 H 0.93631 0.18498 0.14815 0.0
H506 H 0.81173 0.13898 0.14461 0.0
C507 C 0.80363 0.17774 0.18671 0.0
C508 C 0.827 0.19465 0.19596 0.0
C509 C 0.86743 0.20772 0.19549 0.0
C510 C 0.88441 0.20402 0.18596 0.0
C511 C 0.86054 0.1871 0.177 0.0
C512 C 0.82104 0.17416 0.17728 0.0
C513 C 0.80193 0.15695 0.16652 0.0
C514 C 0.77123 0.11356 0.1677 0.0
C515 C 0.78419 0.18015 0.16153 0.0
C516 C 0.83691 0.16237 0.16015 0.0
C517 C 0.87041 0.1798 0.16635 0.0
C518 C 0.90643 0.18807 0.16221 0.0
C519 C 0.9083 0.1784 0.15141 0.0
C520 C 0.87432 0.16063 0.1449 0.0
C521 C 0.8382 0.15244 0.14938 0.0
H522 H 0.8426 0.65218 0.19509 0.0
H523 H 0.71878 0.57168 0.19083 0.0
H524 H 0.72186 0.59895 0.17267 0.0
H525 H 0.84523 0.73374 0.18185 0.0
H526 H 0.89208 0.75006 0.17567 0.0
H527 H 0.8803 0.72397 0.18829 0.0
H528 H 0.89532 0.67301 0.17988 0.0
H529 H 0.90734 0.69904 0.16724 0.0
H530 H 0.87074 0.64815 0.16763 0.0
H531 H 0.73814 0.63556 0.15517 0.0
H532 H 0.76691 0.67727 0.13915 0.0
H533 H 0.88031 0.73362 0.15481 0.0
C534 C 0.81611 0.64018 0.19034 0.0
C535 C 0.78041 0.60982 0.19438 0.0
C536 C 0.74646 0.59491 0.18789 0.0
C537 C 0.74789 0.61025 0.17758 0.0
C538 C 0.7835 0.64038 0.17389 0.0
C539 C 0.81703 0.65506 0.18004 0.0
C540 C 0.85162 0.68736 0.17415 0.0
C541 C 0.86827 0.72607 0.18036 0.0
C542 C 0.8831 0.6762 0.1721 0.0
C543 C 0.83226 0.68859 0.16373 0.0
C544 C 0.79295 0.66134 0.16376 0.0
C545 C 0.7689 0.65697 0.15503 0.0
C546 C 0.78554 0.68088 0.14598 0.0
C547 C 0.8259 0.70873 0.14572 0.0
C548 C 0.84939 0.71267 0.15476 0.0
H549 H 0.11286 0.26684 0.35345 0.0
H550 H 0.22857 0.33816 0.36706 0.0
H551 H 0.25186 0.37156 0.34956 0.0
H552 H 0.1443 0.25547 0.32696 0.0
H553 H 0.10587 0.25829 0.31995 0.0
H554 H 0.09816 0.23955 0.33354 0.0
H555 H 0.07956 0.29078 0.33957 0.0
H556 H 0.08725 0.3097 0.326 0.0
H557 H 0.11302 0.34174 0.33713 0.0
H558 H 0.2626 0.39778 0.33084 0.0
H559 H 0.26043 0.41514 0.31185 0.0
H560 H 0.13782 0.32683 0.3102 0.0
C561 C 0.14313 0.2894 0.35274 0.0
C562 C 0.16891 0.29988 0.36163 0.0
C563 C 0.20827 0.32962 0.36038 0.0
C564 C 0.2218 0.34878 0.35047 0.0
C565 C 0.19564 0.33784 0.34189 0.0
C566 C 0.15716 0.30886 0.3429 0.0
C567 C 0.13512 0.30297 0.3324 0.0
C568 C 0.11998 0.26162 0.32795 0.0
C569 C 0.10177 0.31184 0.33387 0.0
C570 C 0.16726 0.33327 0.32536 0.0
C571 C 0.20189 0.353 0.33101 0.0
C572 C 0.23569 0.38251 0.32631 0.0
C573 C 0.23411 0.39215 0.31551 0.0
C574 C 0.19895 0.37232 0.30952 0.0
C575 C 0.16514 0.34246 0.31455 0.0
H576 H 0.72491 0.83119 0.3555 0.0
H577 H 0.66286 0.87873 0.37292 0.0
H578 H 0.63075 0.88025 0.35601 0.0
H579 H 0.74118 0.88699 0.33108 0.0
H580 H 0.73387 0.84764 0.32228 0.0
H581 H 0.75232 0.85055 0.33576 0.0
H582 H 0.69592 0.78066 0.33973 0.0
H583 H 0.67728 0.77755 0.32626 0.0
H584 H 0.64623 0.76934 0.33778 0.0
H585 H 0.60494 0.87621 0.33731 0.0
H586 H 0.58721 0.86686 0.31797 0.0
H587 H 0.66593 0.82192 0.31272 0.0
C588 C 0.70465 0.84201 0.35575 0.0
C589 C 0.69642 0.85486 0.36553 0.0
C590 C 0.66964 0.86871 0.36553 0.0
C591 C 0.65124 0.86972 0.35597 0.0
C592 C 0.65991 0.85676 0.34647 0.0
C593 C 0.68596 0.84318 0.34628 0.0
C594 C 0.68986 0.83067 0.335 0.0
C595 C 0.7318 0.85545 0.33078 0.0
C596 C 0.67651 0.78696 0.33468 0.0
C597 C 0.66192 0.83937 0.3289 0.0
C598 C 0.64497 0.8544 0.33567 0.0
C599 C 0.61805 0.8645 0.33192 0.0
C600 C 0.60817 0.85908 0.32092 0.0
C601 C 0.6252 0.8437 0.31383 0.0
C602 C 0.65243 0.83378 0.31792 0.0
H603 H 0.1874 0.87065 0.35845 0.0
H604 H 0.10088 0.90071 0.34815 0.0
H605 H 0.10469 0.88016 0.32953 0.0
H606 H 0.24587 0.90142 0.33382 0.0
H607 H 0.25587 0.8618 0.33439 0.0
H608 H 0.24797 0.88119 0.34669 0.0
H609 H 0.19284 0.81216 0.35201 0.0
H610 H 0.20027 0.79258 0.33968 0.0
H611 H 0.1527 0.78541 0.34284 0.0
H612 H 0.11493 0.8525 0.31239 0.0
H613 H 0.13316 0.8229 0.29765 0.0
H614 H 0.2133 0.81119 0.31922 0.0
C615 C 0.16957 0.87342 0.35227 0.0
C616 C 0.14383 0.88733 0.35475 0.0
C617 C 0.12092 0.8903 0.34643 0.0
C618 C 0.12282 0.87862 0.33584 0.0
C619 C 0.14791 0.86426 0.33373 0.0
C620 C 0.17112 0.86195 0.34169 0.0
C621 C 0.19485 0.8445 0.33741 0.0
C622 C 0.23874 0.87399 0.33812 0.0
C623 C 0.18453 0.80641 0.34334 0.0
C624 C 0.18101 0.83687 0.32579 0.0
C625 C 0.15396 0.84851 0.32385 0.0
C626 C 0.1363 0.84357 0.31379 0.0
C627 C 0.1468 0.82659 0.30548 0.0
C628 C 0.17477 0.81478 0.30726 0.0
C629 C 0.19196 0.82 0.31758 0.0
H630 H 0.65592 0.81789 0.80872 0.0
H631 H 0.53864 0.7559 0.82184 0.0
H632 H 0.56576 0.77099 0.84037 0.0
H633 H 0.7027 0.79015 0.82936 0.0
H634 H 0.74647 0.83717 0.82943 0.0
H635 H 0.71788 0.8194 0.81726 0.0
H636 H 0.71244 0.88185 0.81629 0.0
H637 H 0.74093 0.89978 0.82846 0.0
H638 H 0.69336 0.89519 0.82772 0.0
H639 H 0.60556 0.7939 0.85735 0.0
H640 H 0.65486 0.82524 0.87168 0.0
H641 H 0.74613 0.87431 0.84738 0.0
C642 C 0.63591 0.80708 0.81549 0.0
C643 C 0.59516 0.78551 0.81387 0.0
C644 C 0.56995 0.77243 0.82292 0.0
C645 C 0.58508 0.78076 0.83345 0.0
C646 C 0.62541 0.80236 0.83476 0.0
C647 C 0.65047 0.81548 0.82602 0.0
C648 C 0.69251 0.83971 0.82961 0.0
C649 C 0.71628 0.82044 0.82621 0.0
C650 C 0.71087 0.88161 0.82526 0.0
C651 C 0.6872 0.83845 0.84174 0.0
C652 C 0.64831 0.81642 0.84454 0.0
C653 C 0.6361 0.81115 0.85526 0.0
C654 C 0.66437 0.82905 0.86334 0.0
C655 C 0.70438 0.85226 0.86065 0.0
C656 C 0.71581 0.85682 0.84969 0.0
H657 H 0.16817 0.84564 0.8644 0.0
H658 H 0.09914 0.8932 0.85112 0.0
H659 H 0.11874 0.88613 0.8327 0.0
H660 H 0.24763 0.89108 0.84544 0.0
H661 H 0.25471 0.84961 0.84469 0.0
H662 H 0.23563 0.85879 0.85686 0.0
H663 H 0.17535 0.78939 0.85583 0.0
H664 H 0.19422 0.77999 0.84366 0.0
H665 H 0.14612 0.77425 0.84371 0.0
H666 H 0.14529 0.8737 0.81584 0.0
H667 H 0.17658 0.85617 0.80146 0.0
H668 H 0.22827 0.81617 0.82563 0.0
C669 C 0.15724 0.85469 0.85763 0.0
C670 C 0.13215 0.87004 0.8592 0.0
C671 C 0.11838 0.88137 0.85011 0.0
C672 C 0.12937 0.8775 0.83962 0.0
C673 C 0.15408 0.86223 0.83837 0.0
C674 C 0.16783 0.85096 0.84711 0.0
C675 C 0.19371 0.835 0.84351 0.0
C676 C 0.23539 0.86013 0.84788 0.0
C677 C 0.17629 0.79211 0.84688 0.0
C678 C 0.19229 0.839 0.83137 0.0
C679 C 0.16931 0.85485 0.82861 0.0
C680 C 0.16336 0.86129 0.8179 0.0
C681 C 0.1813 0.85118 0.80979 0.0
C682 C 0.2049 0.83473 0.81241 0.0
C683 C 0.21045 0.82868 0.82337 0.0
H684 H 0.16316 0.31779 0.85844 0.0
H685 H 0.11615 0.20141 0.84515 0.0
H686 H 0.12414 0.22833 0.82668 0.0
H687 H 0.11597 0.34936 0.84008 0.0
H688 H 0.15616 0.39862 0.83925 0.0
H689 H 0.14896 0.37047 0.85133 0.0
H690 H 0.21931 0.38223 0.84979 0.0
H691 H 0.22679 0.41055 0.83772 0.0
H692 H 0.23448 0.3694 0.83746 0.0
H693 H 0.13639 0.26812 0.8097 0.0
H694 H 0.14992 0.31721 0.79554 0.0
H695 H 0.18672 0.40692 0.82017 0.0
C696 C 0.1549 0.29793 0.85165 0.0
C697 C 0.13922 0.2575 0.85322 0.0
C698 C 0.12829 0.23249 0.84412 0.0
C699 C 0.13278 0.24751 0.83361 0.0
C700 C 0.14804 0.28752 0.83237 0.0
C701 C 0.15882 0.31234 0.84115 0.0
C702 C 0.173 0.35392 0.83769 0.0
C703 C 0.14696 0.36896 0.84237 0.0
C704 C 0.21595 0.38059 0.84085 0.0
C705 C 0.16826 0.34864 0.82558 0.0
C706 C 0.15417 0.31021 0.82266 0.0
C707 C 0.14746 0.29829 0.81189 0.0
C708 C 0.15526 0.3264 0.80392 0.0
C709 C 0.16928 0.36586 0.80676 0.0
C710 C 0.17586 0.37697 0.81774 0.0
H711 H 0.77867 0.6292 0.6892 0.0
H712 H 0.89631 0.66591 0.70011 0.0
H713 H 0.92175 0.6943 0.68215 0.0
H714 H 0.79015 0.60309 0.66211 0.0
H715 H 0.7605 0.62079 0.65609 0.0
H716 H 0.7515 0.60311 0.6698 0.0
H717 H 0.75913 0.66875 0.67632 0.0
H718 H 0.76824 0.68666 0.66264 0.0
H719 H 0.80306 0.71357 0.67312 0.0
H720 H 0.93448 0.7191 0.66314 0.0
H721 H 0.93369 0.73822 0.64421 0.0
H722 H 0.80771 0.68535 0.64569 0.0
C723 C 0.80978 0.64311 0.68782 0.0
C724 C 0.83552 0.64534 0.69606 0.0
C725 C 0.87603 0.66386 0.69392 0.0
C726 C 0.89078 0.68008 0.68375 0.0
C727 C 0.86462 0.67751 0.67582 0.0
C728 C 0.825 0.65947 0.67772 0.0
C729 C 0.80321 0.66081 0.66782 0.0
C730 C 0.77466 0.61949 0.66371 0.0
C731 C 0.78218 0.68382 0.67011 0.0
C732 C 0.83682 0.68247 0.66006 0.0
C733 C 0.87197 0.69183 0.66484 0.0
C734 C 0.90714 0.71191 0.65929 0.0
C735 C 0.90636 0.72265 0.64855 0.0
C736 C 0.87063 0.71326 0.64347 0.0
C737 C 0.83548 0.69295 0.64934 0.0
H738 H 0.42312 0.16255 0.67781 0.0
H739 H 0.34353 0.17771 0.69871 0.0
H740 H 0.30575 0.17685 0.68281 0.0
H741 H 0.42375 0.22255 0.65606 0.0
H742 H 0.4248 0.19152 0.64557 0.0
H743 H 0.44575 0.193 0.65861 0.0
H744 H 0.40173 0.11815 0.66039 0.0
H745 H 0.38073 0.11642 0.64733 0.0
H746 H 0.34966 0.09652 0.659 0.0
H747 H 0.27767 0.17648 0.66474 0.0
H748 H 0.25915 0.17328 0.64555 0.0
H749 H 0.35557 0.1565 0.63636 0.0
C750 C 0.39771 0.16561 0.67904 0.0
C751 C 0.38639 0.17029 0.68951 0.0
C752 C 0.35283 0.17404 0.69078 0.0
C753 C 0.33116 0.17367 0.68179 0.0
C754 C 0.34322 0.16925 0.6716 0.0
C755 C 0.3755 0.16501 0.67016 0.0
C756 C 0.38188 0.16038 0.6583 0.0
C757 C 0.42139 0.19386 0.65441 0.0
C758 C 0.37827 0.12049 0.65613 0.0
C759 C 0.34828 0.16294 0.65333 0.0
C760 C 0.32646 0.16824 0.66114 0.0
C761 C 0.29438 0.17215 0.65853 0.0
C762 C 0.28417 0.17041 0.64762 0.0
C763 C 0.30585 0.16454 0.63947 0.0
C764 C 0.3383 0.16078 0.6424 0.0
H765 H 0.83033 0.14833 0.69285 0.0
H766 H 0.79723 0.23242 0.68241 0.0
H767 H 0.80238 0.21692 0.66336 0.0
H768 H 0.90148 0.16996 0.67214 0.0
H769 H 0.89025 0.12018 0.67059 0.0
H770 H 0.88261 0.1368 0.68342 0.0
H771 H 0.81037 0.0816 0.68328 0.0
H772 H 0.81777 0.0648 0.67044 0.0
H773 H 0.77986 0.07701 0.67191 0.0
H774 H 0.8108 0.19242 0.6456 0.0
H775 H 0.82461 0.16244 0.63006 0.0
H776 H 0.85435 0.09554 0.65197 0.0
C777 C 0.82393 0.16331 0.68656 0.0
C778 C 0.81323 0.19146 0.68908 0.0
C779 C 0.80553 0.21078 0.68063 0.0
C780 C 0.80827 0.20211 0.6698 0.0
C781 C 0.81899 0.17429 0.66759 0.0
C782 C 0.82691 0.1553 0.6757 0.0
C783 C 0.83898 0.12748 0.6711 0.0
C784 C 0.88082 0.13933 0.67451 0.0
C785 C 0.81001 0.08522 0.67438 0.0
C786 C 0.83658 0.1338 0.65912 0.0
C787 C 0.82474 0.16074 0.65729 0.0
C788 C 0.82014 0.17133 0.64691 0.0
C789 C 0.82802 0.15405 0.63814 0.0
C790 C 0.84064 0.12667 0.6398 0.0
C791 C 0.84489 0.11645 0.65044 0.0
H792 H 0.0825 0.58394 0.51052 0.0
H793 H 0.99846 0.4949 0.53203 0.0
H794 H 0.95898 0.45806 0.51634 0.0
H795 H 0.01186 0.58048 0.49122 0.0
H796 H 0.04258 0.58782 0.47968 0.0
H797 H 0.06415 0.60771 0.49264 0.0
H798 H 0.1034 0.57152 0.49167 0.0
H799 H 0.0819 0.55147 0.47873 0.0
H800 H 0.07791 0.5195 0.48963 0.0
H801 H 0.92969 0.42956 0.49839 0.0
H802 H 0.9114 0.41245 0.47925 0.0
H803 H 0.01349 0.52045 0.46939 0.0
C804 C 0.05573 0.55678 0.51194 0.0
C805 C 0.04365 0.54233 0.52252 0.0
C806 C 0.00837 0.50665 0.52401 0.0
C807 C 0.9857 0.48543 0.51515 0.0
C808 C 0.99854 0.50035 0.50483 0.0
C809 C 0.03258 0.53527 0.50317 0.0
C810 C 0.03978 0.54462 0.49123 0.0
C811 C 0.03956 0.5824 0.48854 0.0
C812 C 0.07801 0.5469 0.48761 0.0
C813 C 0.00462 0.50934 0.48647 0.0
C814 C 0.98126 0.48414 0.49446 0.0
C815 C 0.94761 0.44915 0.49205 0.0
C816 C 0.93752 0.43965 0.48116 0.0
C817 C 0.96093 0.46516 0.47283 0.0
C818 C 0.99484 0.50047 0.47557 0.0
H819 H 0.5183 0.52405 0.51314 0.0
H820 H 0.39273 0.44781 0.51427 0.0
H821 H 0.39446 0.42193 0.49627 0.0
H822 H 0.52347 0.54727 0.48494 0.0
H823 H 0.56883 0.548 0.4828 0.0
H824 H 0.55782 0.55997 0.49588 0.0
H825 H 0.56818 0.50638 0.50463 0.0
H826 H 0.5791 0.49416 0.49156 0.0
H827 H 0.5408 0.45704 0.4997 0.0
H828 H 0.40961 0.40454 0.47818 0.0
H829 H 0.43705 0.39825 0.46088 0.0
H830 H 0.55262 0.48618 0.47151 0.0
C831 C 0.49117 0.50185 0.50962 0.0
C832 C 0.4554 0.48791 0.51512 0.0
C833 C 0.4205 0.45899 0.5102 0.0
C834 C 0.42117 0.44402 0.5 0.0
C835 C 0.45692 0.45834 0.49481 0.0
C836 C 0.49127 0.4867 0.49942 0.0
C837 C 0.52566 0.49764 0.49203 0.0
C838 C 0.54507 0.54077 0.48872 0.0
C839 C 0.55517 0.48822 0.4973 0.0
C840 C 0.50524 0.47098 0.48254 0.0
C841 C 0.46563 0.44848 0.48433 0.0
C842 C 0.4406 0.42196 0.47668 0.0
C843 C 0.45648 0.41859 0.46689 0.0
C844 C 0.49696 0.44169 0.46484 0.0
C845 C 0.52157 0.46801 0.47283 0.0
H846 H 0.47962 0.00097 0.46495 0.0
H847 H 0.55411 0.11874 0.4768 0.0
H848 H 0.54248 0.09388 0.49555 0.0
H849 H 0.40897 0.9685 0.48692 0.0
H850 H 0.40255 0.92015 0.48709 0.0
H851 H 0.41514 0.94754 0.47467 0.0
H852 H 0.47544 0.93881 0.47257 0.0
H853 H 0.46311 0.91149 0.48499 0.0
H854 H 0.51061 0.954 0.48339 0.0
H855 H 0.52583 0.05585 0.5128 0.0
H856 H 0.5046 0.00756 0.5275 0.0
H857 H 0.44019 0.91457 0.50437 0.0
C858 C 0.49329 0.02165 0.47148 0.0
C859 C 0.51783 0.06183 0.46941 0.0
C860 C 0.53517 0.08786 0.47819 0.0
C861 C 0.52871 0.07402 0.48886 0.0
C862 C 0.50467 0.03418 0.49059 0.0
C863 C 0.48707 0.00839 0.48215 0.0
C864 C 0.46345 0.96684 0.48616 0.0
C865 C 0.41995 0.94976 0.48356 0.0
C866 C 0.4791 0.9413 0.4815 0.0
C867 C 0.47103 0.97318 0.49818 0.0
C868 C 0.49475 0.01225 0.50056 0.0
C869 C 0.50699 0.02522 0.51105 0.0
C870 C 0.49483 0.99751 0.51934 0.0
C871 C 0.47063 0.95726 0.51709 0.0
C872 C 0.45837 0.94511 0.50637 0.0
H873 H 0.45569 0.94948 0.01717 0.0
H874 H 0.5717 0.99337 0.03048 0.0
H875 H 0.6003 0.03016 0.01361 0.0
H876 H 0.47862 0.93799 0.98978 0.0
H877 H 0.44679 0.95342 0.98397 0.0
H878 H 0.4358 0.93017 0.99702 0.0
H879 H 0.43386 0.9893 0.00529 0.0
H880 H 0.44506 0.01283 0.99228 0.0
H881 H 0.47546 0.03747 0.00378 0.0
H882 H 0.61604 0.06185 0.99522 0.0
H883 H 0.61771 0.08602 0.97669 0.0
H884 H 0.49118 0.02237 0.97582 0.0
C885 C 0.48713 0.9666 0.01652 0.0
C886 C 0.5115 0.96846 0.02511 0.0
C887 C 0.55248 0.99152 0.02399 0.0
C888 C 0.56899 0.01251 0.01445 0.0
C889 C 0.54407 0.01025 0.00617 0.0
C890 C 0.50403 0.9879 0.00712 0.0
C891 C 0.48364 0.99073 0.99712 0.0
C892 C 0.45982 0.9507 0.99165 0.0
C893 C 0.458 0.00866 -0.00022 0.0
C894 C 0.51848 0.01807 0.99036 0.0
C895 C 0.55308 0.02898 0.9957 0.0
C896 C 0.58913 0.0536 0.99097 0.0
C897 C 0.58977 0.06718 0.98045 0.0
C898 C 0.55458 0.05618 0.97484 0.0
C899 C 0.51858 0.03154 0.97992 0.0
H900 H 0.95822 0.52888 0.97096 0.0
H901 H 0.86182 0.41212 0.97686 0.0
H902 H 0.8906 0.41121 0.99448 0.0
H903 H 0.03126 0.51381 0.98142 0.0
H904 H 0.05923 0.56137 0.98746 0.0
H905 H 0.02915 0.55475 0.97584 0.0
H906 H 0.99288 0.58365 0.98636 0.0
H907 H 0.02318 0.59083 0.99799 0.0
H908 H 0.97088 0.56303 -0.00077 0.0
H909 H 0.93285 0.42052 0.01058 0.0
H910 H 0.98359 0.44093 0.02462 0.0
H911 H 0.05229 0.55184 0.00825 0.0
C912 C 0.94267 0.5034 0.97605 0.0
C913 C 0.9077 0.47057 0.97253 0.0
C914 C 0.88856 0.43767 0.97939 0.0
C915 C 0.9047 0.43685 0.98941 0.0
C916 C 0.93981 0.46925 0.99248 0.0
C917 C 0.95835 0.5021 0.98606 0.0
C918 C 0.9967 0.53231 0.99099 0.0
C919 C 0.0311 0.54105 0.98348 0.0
C920 C 0.99584 0.56966 0.99381 0.0
C921 C 0.99724 0.51097 0.00107 0.0
C922 C 0.96411 0.47471 0.00179 0.0
C923 C 0.95871 0.44903 0.01017 0.0
C924 C 0.98782 0.46084 0.01808 0.0
C925 C 0.0219 0.49804 0.01755 0.0
C926 C 0.0265 0.52334 0.00892 0.0
H927 H 0.48067 0.44905 0.97163 0.0
H928 H 0.60711 0.51095 0.97257 0.0
H929 H 0.60569 0.53973 0.99021 0.0
H930 H 0.46664 0.52336 0.98377 0.0
H931 H 0.42444 0.48943 0.99141 0.0
H932 H 0.43557 0.47465 0.97875 0.0
H933 H 0.43582 0.4165 0.98828 0.0
H934 H 0.42445 0.43094 0.00094 0.0
H935 H 0.46683 0.42544 -0.00014 0.0
H936 H 0.59009 0.56289 0.00754 0.0
H937 H 0.56165 0.57361 0.02408 0.0
H938 H 0.44551 0.4938 0.01202 0.0
C939 C 0.50808 0.46874 0.97554 0.0
C940 C 0.54402 0.478 0.97074 0.0
C941 C 0.57926 0.50345 0.97614 0.0
C942 C 0.57874 0.52007 0.98612 0.0
C943 C 0.54274 0.51053 0.99059 0.0
C944 C 0.50807 0.48507 0.98553 0.0
C945 C 0.47327 0.47832 0.99221 0.0
C946 C 0.44853 0.49229 0.98617 0.0
C947 C 0.44866 0.43525 0.99552 0.0
C948 C 0.49374 0.50397 0.00185 0.0
C949 C 0.53379 0.52271 0.0007 0.0
C950 C 0.55878 0.54826 0.00854 0.0
C951 C 0.54236 0.5543 0.01787 0.0
C952 C 0.5014 0.53443 0.01932 0.0
C953 C 0.47692 0.50923 0.01115 0.0
H954 H 0.33105 0.02354 0.10235 0.0
H955 H 0.3159 0.09923 0.07992 0.0
H956 H 0.35259 0.08585 0.06604 0.0
H957 H 0.42908 0.04725 0.09349 0.0
H958 H 0.41867 0.99777 0.09517 0.0
H959 H 0.39485 0.01656 0.10365 0.0
H960 H 0.32745 0.95959 0.09779 0.0
H961 H 0.35101 0.94067 0.08931 0.0
H962 H 0.31559 0.95147 0.0836 0.0
H963 H 0.38646 0.06032 0.05425 0.0
H964 H 0.41308 0.02314 0.04524 0.0
H965 H 0.40531 0.9637 0.07542 0.0
C966 C 0.33596 0.03786 0.09458 0.0
C967 C 0.32078 0.06258 0.09222 0.0
C968 C 0.32737 0.08027 0.08191 0.0
C969 C 0.34829 0.07297 0.07399 0.0
C970 C 0.36244 0.04803 0.07655 0.0
C971 C 0.35656 0.03078 0.08661 0.0
C972 C 0.37231 0.00301 0.08709 0.0
C973 C 0.40572 0.017 0.09534 0.0
C974 C 0.33964 0.96123 0.08959 0.0
C975 C 0.38713 0.00656 0.07565 0.0
C976 C 0.38163 0.03304 0.06974 0.0
C977 C 0.39128 0.03982 0.05883 0.0
C978 C 0.40634 0.0185 0.05378 0.0
C979 C 0.41133 0.99054 0.05963 0.0
C980 C 0.4022 0.98511 0.07076 0.0
H981 H 0.98947 0.35426 0.05653 0.0
H982 H 0.01078 0.45215 0.0769 0.0
H983 H 0.9749 0.40664 0.09182 0.0
H984 H 0.892 0.28325 0.06732 0.0
H985 H 0.90198 0.24366 0.0665 0.0
H986 H 0.9241 0.28333 0.05698 0.0
H987 H 0.99254 0.29525 0.06229 0.0
H988 H 0.97069 0.2557 0.07178 0.0
H989 H 0.00724 0.30347 0.07628 0.0
H990 H 0.94264 0.35131 0.10495 0.0
H991 H 0.92005 0.29127 0.11562 0.0
H992 H 0.92121 0.2298 0.08669 0.0
C993 C 0.98581 0.36612 0.06404 0.0
C994 C 0.0026 0.4067 0.06554 0.0
C995 C 0.99798 0.42112 0.07557 0.0
C996 C 0.97748 0.39549 0.08406 0.0
C997 C 0.96183 0.35563 0.08236 0.0
C998 C 0.96582 0.34104 0.07259 0.0
C999 C 0.94994 0.29752 0.07316 0.0
C1000 C 0.91492 0.27565 0.06554 0.0
C1001 C 0.98202 0.28742 0.07074 0.0
C1002 C 0.93744 0.29002 0.08488 0.0
C1003 C 0.94388 0.32377 0.08999 0.0
C1004 C 0.93701 0.32461 0.101 0.0
C1005 C 0.92421 0.29033 0.107 0.0
C1006 C 0.91881 0.2558 0.10199 0.0
C1007 C 0.92458 0.25555 0.09073 0.0
H1008 H 0.56005 0.58138 0.07912 0.0
H1009 H 0.60777 0.5437 0.05329 0.0
H1010 H 0.67058 0.57212 0.06299 0.0
H1011 H 0.64001 0.67091 0.0828 0.0
H1012 H 0.6363 0.67243 0.0973 0.0
H1013 H 0.59332 0.64342 0.08935 0.0
H1014 H 0.57833 0.582 0.10046 0.0
H1015 H 0.62105 0.61098 0.10859 0.0
H1016 H 0.6151 0.56812 0.10178 0.0
H1017 H 0.73107 0.6138 0.07414 0.0
H1018 H 0.78224 0.66068 0.08653 0.0
H1019 H 0.69381 0.66959 0.10498 0.0
C1020 C 0.58327 0.57798 0.07565 0.0
C1021 C 0.57894 0.56028 0.06545 0.0
C1022 C 0.61029 0.55694 0.06113 0.0
C1023 C 0.64614 0.57306 0.06657 0.0
C1024 C 0.64996 0.5919 0.07639 0.0
C1025 C 0.6191 0.59378 0.08097 0.0
C1026 C 0.63139 0.61825 0.09114 0.0
C1027 C 0.62488 0.65331 0.09007 0.0
C1028 C 0.61021 0.59334 0.10108 0.0
C1029 C 0.67428 0.63103 0.09134 0.0
C1030 C 0.68453 0.6154 0.08284 0.0
C1031 C 0.72323 0.62558 0.08096 0.0
C1032 C 0.75211 0.65236 0.08799 0.0
C1033 C 0.74199 0.66859 0.09675 0.0
C1034 C 0.7025 0.65735 0.09845 0.0
H1035 H 0.98912 0.39947 0.41858 0.0
H1036 H 0.04181 0.40312 0.44965 0.0
H1037 H 0.08567 0.38414 0.44087 0.0
H1038 H 0.98457 0.31625 0.40957 0.0
H1039 H 0.9956 0.33042 0.39559 0.0
H1040 H 0.97365 0.35156 0.40384 0.0
H1041 H 0.03028 0.42078 0.39934 0.0
H1042 H 0.05236 0.39981 0.39098 0.0
H1043 H 0.07988 0.43263 0.40179 0.0
H1044 H 0.11554 0.3542 0.42944 0.0
H1045 H 0.13066 0.31753 0.416 0.0
H1046 H 0.0597 0.33449 0.39229 0.0
C1047 C 0.01078 0.39758 0.42347 0.0
C1048 C 0.01213 0.40289 0.43479 0.0
C1049 C 0.04028 0.39925 0.44096 0.0
C1050 C 0.06546 0.38863 0.43604 0.0
C1051 C 0.0624 0.38213 0.42493 0.0
C1052 C 0.03609 0.38691 0.41869 0.0
C1053 C 0.03579 0.37416 0.40713 0.0
C1054 C 0.995 0.34114 0.40385 0.0
C1055 C 0.05047 0.40892 0.39935 0.0
C1056 C 0.06464 0.3598 0.40798 0.0
C1057 C 0.08009 0.36514 0.41827 0.0
C1058 C 0.1044 0.35069 0.42128 0.0
C1059 C 0.11269 0.32976 0.41361 0.0
C1060 C 0.09665 0.32349 0.40308 0.0
C1061 C 0.07307 0.33951 0.4002 0.0
H1062 H 0.59015 0.54847 0.41234 0.0
H1063 H 0.53848 0.5788 0.43885 0.0
H1064 H 0.56457 0.64474 0.43124 0.0
H1065 H 0.67643 0.63358 0.41178 0.0
H1066 H 0.68254 0.63655 0.3973 0.0
H1067 H 0.65417 0.58989 0.40368 0.0
H1068 H 0.59489 0.57517 0.39158 0.0
H1069 H 0.62328 0.62173 0.38504 0.0
H1070 H 0.57721 0.60916 0.39119 0.0
H1071 H 0.60561 0.71026 0.4225 0.0
H1072 H 0.65432 0.76853 0.41251 0.0
H1073 H 0.67718 0.6944 0.39154 0.0
C1074 C 0.58327 0.56855 0.41637 0.0
C1075 C 0.5623 0.55847 0.42619 0.0
C1076 C 0.55435 0.58578 0.43129 0.0
C1077 C 0.56905 0.62335 0.42703 0.0
C1078 C 0.59106 0.63289 0.41758 0.0
C1079 C 0.59753 0.60602 0.41221 0.0
C1080 C 0.62478 0.62435 0.40273 0.0
C1081 C 0.66164 0.62089 0.40396 0.0
C1082 C 0.60377 0.60654 0.392 0.0
C1083 C 0.63399 0.66608 0.40389 0.0
C1084 C 0.61405 0.67047 0.41243 0.0
C1085 C 0.62069 0.70705 0.41563 0.0
C1086 C 0.64852 0.73997 0.40996 0.0
C1087 C 0.66924 0.73593 0.40121 0.0
C1088 C 0.66132 0.69841 0.39808 0.0
H1089 H 0.37426 0.96598 0.43499 0.0
H1090 H 0.45345 0.97219 0.40982 0.0
H1091 H 0.397 0.92732 0.39853 0.0
H1092 H 0.29552 0.86339 0.43032 0.0
H1093 H 0.25811 0.87563 0.43286 0.0
H1094 H 0.30443 0.90187 0.43968 0.0
H1095 H 0.31299 0.96709 0.43242 0.0
H1096 H 0.26685 0.94115 0.42563 0.0
H1097 H 0.31011 0.9732 0.41807 0.0
H1098 H 0.33205 0.8882 0.38926 0.0
H1099 H 0.2655 0.86345 0.38221 0.0
H1100 H 0.22961 0.88535 0.41334 0.0
C1101 C 0.37988 0.95707 0.42723 0.0
C1102 C 0.41824 0.97222 0.42332 0.0
C1103 C 0.42426 0.96068 0.413 0.0
C1104 C 0.39239 0.93505 0.40657 0.0
C1105 C 0.35483 0.9213 0.4106 0.0
C1106 C 0.34853 0.93204 0.4207 0.0
C1107 C 0.30576 0.91762 0.42265 0.0
C1108 C 0.29004 0.88785 0.43193 0.0
C1109 C 0.29853 0.95179 0.42481 0.0
C1110 C 0.289 0.89835 0.4119 0.0
C1111 C 0.31755 0.89985 0.40515 0.0
C1112 C 0.30938 0.88638 0.39453 0.0
C1113 C 0.27142 0.87229 0.3906 0.0
C1114 C 0.24234 0.8725 0.39723 0.0
C1115 C 0.25109 0.88452 0.40811 0.0
H1116 H 0.66772 0.95109 0.89511 0.0
H1117 H 0.66242 0.86826 0.91895 0.0
H1118 H 0.61939 0.88224 0.93034 0.0
H1119 H 0.67738 0.02109 0.91363 0.0
H1120 H 0.6493 0.03719 0.90598 0.0
H1121 H 0.67446 0.01625 0.89912 0.0
H1122 H 0.60953 0.96486 0.89025 0.0
H1123 H 0.58407 0.98558 0.89716 0.0
H1124 H 0.56817 0.93455 0.89869 0.0
H1125 H 0.58079 0.90875 0.93958 0.0
H1126 H 0.55631 0.95036 0.9469 0.0
H1127 H 0.59 0.01794 0.91724 0.0
C1128 C 0.65684 0.93521 0.90262 0.0
C1129 C 0.66793 0.90824 0.90611 0.0
C1130 C 0.65403 0.8889 0.91612 0.0
C1131 C 0.6294 0.89646 0.92259 0.0
C1132 C 0.61926 0.92353 0.91893 0.0
C1133 C 0.63286 0.94284 0.90921 0.0
C1134 C 0.6215 0.97371 0.90762 0.0
C1135 C 0.65782 0.01445 0.90653 0.0
C1136 C 0.59418 0.96408 0.89785 0.0
C1137 C 0.6002 0.96956 0.91811 0.0
C1138 C 0.59839 0.93986 0.92441 0.0
C1139 C 0.58176 0.93184 0.93468 0.0
C1140 C 0.56784 0.95562 0.93876 0.0
C1141 C 0.57131 0.98748 0.93264 0.0
C1142 C 0.58671 0.9937 0.92208 0.0
H1143 H 0.98585 0.57624 0.91532 0.0
H1144 H 0.04976 0.60759 0.94561 0.0
H1145 H 0.09464 0.67316 0.93837 0.0
H1146 H 0.07202 0.63622 0.89726 0.0
H1147 H 0.04307 0.6484 0.8886 0.0
H1148 H 0.02083 0.60206 0.89545 0.0
H1149 H 0.96965 0.61687 0.90384 0.0
H1150 H 0.99187 0.66326 0.89714 0.0
H1151 H 0.98594 0.66083 0.91162 0.0
H1152 H 0.12476 0.7384 0.92905 0.0
H1153 H 0.13975 0.79633 0.918 0.0
H1154 H 0.05702 0.72115 0.89376 0.0
C1155 C 0.00999 0.59647 0.92032 0.0
C1156 C 0.0143 0.58683 0.93102 0.0
C1157 C 0.04603 0.61425 0.93735 0.0
C1158 C 0.0717 0.65159 0.93331 0.0
C1159 C 0.0656 0.66072 0.92287 0.0
C1160 C 0.03591 0.63365 0.9164 0.0
C1161 C 0.03316 0.65156 0.90588 0.0
C1162 C 0.04286 0.63349 0.89623 0.0
C1163 C 0.99278 0.64792 0.90455 0.0
C1164 C 0.06464 0.69336 0.90767 0.0
C1165 C 0.08342 0.69811 0.91744 0.0
C1166 C 0.11094 0.7349 0.92126 0.0
C1167 C 0.11915 0.76763 0.91496 0.0
C1168 C 0.09977 0.76322 0.90499 0.0
C1169 C 0.07282 0.7255 0.90126 0.0
H1170 H 0.42422 0.42074 0.91437 0.0
H1171 H 0.38204 0.44181 0.94457 0.0
H1172 H 0.31777 0.41964 0.9362 0.0
H1173 H 0.36495 0.44666 0.89589 0.0
H1174 H 0.35723 0.40846 0.88657 0.0
H1175 H 0.4017 0.4329 0.89431 0.0
H1176 H 0.3889 0.36626 0.90167 0.0
H1177 H 0.34442 0.34172 0.89405 0.0
H1178 H 0.34357 0.33475 0.90847 0.0
H1179 H 0.25537 0.38464 0.92556 0.0
H1180 H 0.20119 0.34192 0.91333 0.0
H1181 H 0.28491 0.34531 0.8901 0.0
C1182 C 0.40188 0.42187 0.91913 0.0
C1183 C 0.4082 0.43303 0.93012 0.0
C1184 C 0.37797 0.43352 0.93612 0.0
C1185 C 0.34134 0.42106 0.93143 0.0
C1186 C 0.3356 0.40874 0.92069 0.0
C1187 C 0.36526 0.40962 0.91458 0.0
C1188 C 0.35071 0.39125 0.9036 0.0
C1189 C 0.36978 0.42164 0.89456 0.0
C1190 C 0.35728 0.35644 0.90186 0.0
C1191 C 0.30788 0.37815 0.90469 0.0
C1192 C 0.29971 0.38897 0.91453 0.0
C1193 C 0.26153 0.37679 0.91773 0.0
C1194 C 0.23093 0.35244 0.91075 0.0
C1195 C 0.23881 0.34045 0.90074 0.0
C1196 C 0.27787 0.35436 0.89762 0.0
H1197 H 0.9096 0.6861 0.58426 0.0
H1198 H 0.87401 0.60878 0.61201 0.0
H1199 H 0.89789 0.56921 0.603 0.0
H1200 H 0.88906 0.60905 0.56319 0.0
H1201 H 0.93112 0.64265 0.55545 0.0
H1202 H 0.90451 0.66025 0.5632 0.0
H1203 H 0.96833 0.70891 0.57304 0.0
H1204 H 0.99499 0.69119 0.56548 0.0
H1205 H 0.99598 0.69078 0.58005 0.0
H1206 H 0.93687 0.54599 0.59259 0.0
H1207 H 0.9827 0.53766 0.58081 0.0
H1208 H 0.9906 0.62875 0.55968 0.0
C1209 C 0.90563 0.66011 0.5883 0.0
C1210 C 0.89001 0.65059 0.59884 0.0
C1211 C 0.88571 0.61658 0.6039 0.0
C1212 C 0.89922 0.59389 0.59885 0.0
C1213 C 0.91622 0.60518 0.58866 0.0
C1214 C 0.91869 0.63705 0.58334 0.0
C1215 C 0.94132 0.64518 0.5729 0.0
C1216 C 0.91492 0.63889 0.5631 0.0
C1217 C 0.97727 0.68644 0.57288 0.0
C1218 C 0.95291 0.61421 0.57345 0.0
C1219 C 0.93788 0.59113 0.58254 0.0
C1220 C 0.94797 0.56317 0.5853 0.0
C1221 C 0.97418 0.55882 0.57862 0.0
C1222 C 0.98987 0.5823 0.5693 0.0
C1223 C 0.97851 0.60982 0.56664 0.0
H1224 H 0.32238 0.23813 0.58228 0.0
H1225 H 0.39236 0.29803 0.6104 0.0
H1226 H 0.43019 0.35733 0.59947 0.0
H1227 H 0.40183 0.29078 0.56128 0.0
H1228 H 0.36728 0.29161 0.55195 0.0
H1229 H 0.35194 0.25158 0.56127 0.0
H1230 H 0.29754 0.26399 0.56837 0.0
H1231 H 0.31289 0.30418 0.55921 0.0
H1232 H 0.31044 0.31153 0.57351 0.0
H1233 H 0.45148 0.41298 0.58663 0.0
H1234 H 0.45587 0.45969 0.57269 0.0
H1235 H 0.37224 0.36344 0.55296 0.0
C1236 C 0.34668 0.26321 0.58603 0.0
C1237 C 0.35451 0.26343 0.59717 0.0
C1238 C 0.38591 0.29716 0.60186 0.0
C1239 C 0.40768 0.33097 0.5957 0.0
C1240 C 0.39794 0.33044 0.58486 0.0
C1241 C 0.36853 0.29722 0.58001 0.0
C1242 C 0.36049 0.30552 0.56865 0.0
C1243 C 0.37103 0.28357 0.56029 0.0
C1244 C 0.31784 0.29575 0.56737 0.0
C1245 C 0.38841 0.34895 0.56808 0.0
C1246 C 0.41031 0.36271 0.57741 0.0
C1247 C 0.43522 0.40244 0.57917 0.0
C1248 C 0.4374 0.42877 0.57123 0.0
C1249 C 0.41454 0.4152 0.56172 0.0
C1250 C 0.39051 0.37473 0.56007 0.0
H1251 H 0.76921 0.04393 0.56928 0.0
H1252 H 0.75423 0.11026 0.59488 0.0
H1253 H 0.68782 0.08913 0.5883 0.0
H1254 H 0.71101 0.06099 0.54846 0.0
H1255 H 0.69157 0.01249 0.54308 0.0
H1256 H 0.73964 0.03718 0.54896 0.0
H1257 H 0.71951 0.97898 0.562 0.0
H1258 H 0.67131 0.95439 0.5563 0.0
H1259 H 0.67766 0.96368 0.57063 0.0
H1260 H 0.61965 0.05268 0.58062 0.0
H1261 H 0.55758 0.00903 0.57119 0.0
H1262 H 0.6185 0.96898 0.55033 0.0
C1263 C 0.7524 0.0549 0.57332 0.0
C1264 C 0.76694 0.0787 0.58259 0.0
C1265 C 0.74383 0.09213 0.58772 0.0
C1266 C 0.70598 0.08023 0.58406 0.0
C1267 C 0.69195 0.05544 0.57516 0.0
C1268 C 0.71475 0.04358 0.56973 0.0
C1269 C 0.69214 0.01522 0.56077 0.0
C1270 C 0.70963 0.03252 0.54966 0.0
C1271 C 0.69004 0.97575 0.56254 0.0
C1272 C 0.65272 0.01193 0.56226 0.0
C1273 C 0.65309 0.03537 0.57057 0.0
C1274 C 0.61919 0.03482 0.57394 0.0
C1275 C 0.58407 0.00981 0.5686 0.0
C1276 C 0.58335 0.98596 0.55998 0.0
C1277 C 0.61823 0.98737 0.55677 0.0
H1278 H 0.75092 0.65872 0.75035 0.0
H1279 H 0.79014 0.73946 0.72334 0.0
H1280 H 0.76613 0.77858 0.73257 0.0
H1281 H 0.66441 0.65524 0.75412 0.0
H1282 H 0.66393 0.65264 0.76868 0.0
H1283 H 0.69056 0.63515 0.761 0.0
H1284 H 0.75371 0.68129 0.77152 0.0
H1285 H 0.72712 0.6987 0.77935 0.0
H1286 H 0.77027 0.73271 0.77207 0.0
H1287 H 0.72809 0.80241 0.74327 0.0
H1288 H 0.68223 0.8106 0.75507 0.0
H1289 H 0.66933 0.71491 0.77509 0.0
C1290 C 0.75559 0.68529 0.74651 0.0
C1291 C 0.7724 0.696 0.73613 0.0
C1292 C 0.77746 0.7307 0.73132 0.0
C1293 C 0.76395 0.75318 0.7365 0.0
C1294 C 0.74599 0.74087 0.74655 0.0
C1295 C 0.74237 0.70804 0.75158 0.0
C1296 C 0.71878 0.69892 0.76186 0.0
C1297 C 0.68227 0.65809 0.76138 0.0
C1298 C 0.74398 0.70318 0.77179 0.0
C1299 C 0.70818 0.73064 0.76157 0.0
C1300 C 0.72448 0.75489 0.75277 0.0
C1301 C 0.71587 0.78415 0.75033 0.0
C1302 C 0.68968 0.78849 0.75704 0.0
C1303 C 0.67239 0.76356 0.76603 0.0
C1304 C 0.68244 0.73482 0.76838 0.0
H1305 H 0.35008 0.10541 0.75093 0.0
H1306 H 0.27125 0.06365 0.72348 0.0
H1307 H 0.23422 0.99911 0.73209 0.0
H1308 H 0.35847 0.0251 0.75413 0.0
H1309 H 0.35968 0.02534 0.7687 0.0
H1310 H 0.37564 0.0701 0.76146 0.0
H1311 H 0.32611 0.08242 0.77191 0.0
H1312 H 0.31038 0.03792 0.77936 0.0
H1313 H 0.27531 0.04541 0.77203 0.0
H1314 H 0.21346 0.93624 0.74209 0.0
H1315 H 0.20655 0.8822 0.75372 0.0
H1316 H 0.29775 0.96605 0.77473 0.0
C1317 C 0.32426 0.08312 0.74689 0.0
C1318 C 0.31365 0.0896 0.73653 0.0
C1319 C 0.2799 0.05948 0.73145 0.0
C1320 C 0.25867 0.02264 0.73627 0.0
C1321 C 0.27115 0.01662 0.74624 0.0
C1322 C 0.30266 0.04633 0.75161 0.0
C1323 C 0.31212 0.03169 0.76181 0.0
C1324 C 0.35394 0.03846 0.7615 0.0
C1325 C 0.30557 0.05047 0.77187 0.0
C1326 C 0.28216 0.98885 0.7611 0.0
C1327 C 0.25858 0.98063 0.75211 0.0
C1328 C 0.23111 0.94244 0.7493 0.0
C1329 C 0.22756 0.91194 0.75589 0.0
C1330 C 0.25135 0.91998 0.76516 0.0
C1331 C 0.27865 0.95898 0.7678 0.0
H1332 H 0.89922 0.26859 0.74308 0.0
H1333 H 0.94862 0.26233 0.71234 0.0
H1334 H 0.0126 0.28637 0.72106 0.0
H1335 H 0.97712 0.35614 0.75121 0.0
H1336 H 0.97475 0.34421 0.76535 0.0
H1337 H 0.93144 0.32076 0.75718 0.0
H1338 H 0.921 0.25301 0.76259 0.0
H1339 H 0.96415 0.27626 0.77089 0.0
H1340 H 0.95974 0.24231 0.76052 0.0
H1341 H 0.07264 0.31869 0.73249 0.0
H1342 H 0.12408 0.35507 0.74607 0.0
H1343 H 0.03562 0.34024 0.76933 0.0
C1344 C 0.92321 0.27115 0.73827 0.0
C1345 C 0.91894 0.26343 0.72706 0.0
C1346 C 0.95125 0.26804 0.72096 0.0
C1347 C 0.9877 0.28157 0.72584 0.0
C1348 C 0.9913 0.29019 0.73683 0.0
C1349 C 0.95988 0.28484 0.743 0.0
C1350 C 0.97229 0.29943 0.75444 0.0
C1351 C 0.96338 0.33207 0.7572 0.0
C1352 C 0.95316 0.26574 0.76259 0.0
C1353 C 0.01572 0.3149 0.75362 0.0
C1354 C 0.02607 0.30895 0.74344 0.0
C1355 C 0.06486 0.32297 0.74056 0.0
C1356 C 0.09387 0.34373 0.7483 0.0
C1357 C 0.08386 0.35034 0.75876 0.0
C1358 C 0.04421 0.33531 0.76144 0.0
H1359 H 0.35248 0.26466 0.24671 0.0
H1360 H 0.27205 0.22936 0.21965 0.0
H1361 H 0.23411 0.2542 0.22918 0.0
H1362 H 0.27935 0.24498 0.26843 0.0
H1363 H 0.31378 0.28713 0.27601 0.0
H1364 H 0.33065 0.26094 0.2678 0.0
H1365 H 0.37739 0.32488 0.2577 0.0
H1366 H 0.36047 0.35116 0.26578 0.0
H1367 H 0.35785 0.35225 0.25125 0.0
H1368 H 0.21071 0.29148 0.24053 0.0
H1369 H 0.2026 0.33565 0.25305 0.0
H1370 H 0.2981 0.34539 0.27261 0.0
C1371 C 0.32627 0.26112 0.2429 0.0
C1372 C 0.31521 0.245 0.23244 0.0
C1373 C 0.28102 0.24144 0.22768 0.0
C1374 C 0.25924 0.25544 0.23304 0.0
C1375 C 0.2718 0.27248 0.24319 0.0
C1376 C 0.30426 0.27487 0.24813 0.0
C1377 C 0.31368 0.29737 0.25862 0.0
C1378 C 0.30907 0.27102 0.26829 0.0
C1379 C 0.35476 0.33355 0.25831 0.0
C1380 C 0.28237 0.30858 0.25862 0.0
C1381 C 0.25819 0.29365 0.24974 0.0
C1382 C 0.22901 0.30271 0.24763 0.0
C1383 C 0.2247 0.32791 0.25476 0.0
C1384 C 0.24958 0.34382 0.26383 0.0
C1385 C 0.27827 0.33338 0.26583 0.0
H1386 H 0.63124 0.90082 0.24347 0.0
H1387 H 0.6902 0.9351 0.27449 0.0
H1388 H 0.73515 0.00037 0.26723 0.0
H1389 H 0.7209 0.96261 0.22627 0.0
H1390 H 0.69255 0.97321 0.2169 0.0
H1391 H 0.6705 0.92702 0.22383 0.0
H1392 H 0.61619 0.93948 0.23098 0.0
H1393 H 0.63824 0.98578 0.22423 0.0
H1394 H 0.62948 0.9832 0.23859 0.0
H1395 H 0.76397 0.06507 0.25796 0.0
H1396 H 0.77837 0.12237 0.24669 0.0
H1397 H 0.70264 0.04528 0.22156 0.0
C1398 C 0.65449 0.92157 0.24862 0.0
C1399 C 0.65709 0.91286 0.25954 0.0
C1400 C 0.68763 0.94102 0.26607 0.0
C1401 C 0.7134 0.97824 0.26202 0.0
C1402 C 0.70873 0.98658 0.25137 0.0
C1403 C 0.68058 0.95875 0.24468 0.0
C1404 C 0.67905 0.97608 0.23392 0.0
C1405 C 0.69151 0.9587 0.22469 0.0
C1406 C 0.63835 0.97083 0.23182 0.0
C1407 C 0.70911 0.01835 0.23585 0.0
C1408 C 0.72627 0.02385 0.24591 0.0
C1409 C 0.75162 0.06104 0.24994 0.0
C1410 C 0.75943 0.09339 0.24353 0.0
C1411 C 0.74196 0.0882 0.23322 0.0
C1412 C 0.71713 0.05016 0.2293 0.0
H1413 H 0.95504 0.6706 0.22727 0.0
H1414 H 0.88484 0.7041 0.24646 0.0
H1415 H 0.94464 0.75482 0.2555 0.0
H1416 H 0.0152 0.67566 0.24805 0.0
H1417 H 0.05849 0.69341 0.23989 0.0
H1418 H 0.01132 0.66473 0.2338 0.0
H1419 H 0.02772 0.71989 0.21992 0.0
H1420 H 0.07503 0.7489 0.22604 0.0
H1421 H 0.04274 0.7684 0.22467 0.0
H1422 H 0.01141 0.7975 0.26354 0.0
H1423 H 0.07743 0.82355 0.27115 0.0
H1424 H 0.10272 0.75985 0.24699 0.0
C1425 C 0.95223 0.68918 0.23319 0.0
C1426 C 0.91538 0.68371 0.2361 0.0
C1427 C 0.91287 0.70797 0.24409 0.0
C1428 C 0.94668 0.73699 0.24919 0.0
C1429 C 0.98259 0.74124 0.24621 0.0
C1430 C 0.98546 0.7178 0.23842 0.0
C1431 C 0.02657 0.72489 0.23754 0.0
C1432 C 0.02795 0.68746 0.23997 0.0
C1433 C 0.04404 0.74152 0.22638 0.0
C1434 C 0.04626 0.75505 0.24631 0.0
C1435 C 0.02071 0.76487 0.25105 0.0
C1436 C 0.03176 0.79039 0.2598 0.0
C1437 C 0.06941 0.80512 0.26405 0.0
C1438 C 0.09522 0.79369 0.25966 0.0
C1439 C 0.08376 0.76934 0.25047 0.0
H1440 H 0.00411 0.12813 0.10242 0.0
H1441 H 0.07213 0.24386 0.11622 0.0
H1442 H 0.13239 0.24094 0.1133 0.0
H1443 H 0.05581 0.08782 0.1142 0.0
H1444 H 0.05237 0.05838 0.10268 0.0
H1445 H 0.01541 0.0713 0.10494 0.0
H1446 H 0.02727 0.10143 0.08576 0.0
H1447 H 0.0644 0.08864 0.08343 0.0
H1448 H 0.0757 0.13844 0.08187 0.0
H1449 H 0.18421 0.22236 0.11053 0.0
H1450 H 0.2232 0.18994 0.108 0.0
H1451 H 0.12093 0.08753 0.09548 0.0
C1452 C 0.0317 0.15312 0.10472 0.0
C1453 C 0.03344 0.18623 0.10957 0.0
C1454 C 0.07012 0.21823 0.11247 0.0
C1455 C 0.10449 0.21687 0.11082 0.0
C1456 C 0.10164 0.18351 0.10614 0.0
C1457 C 0.06615 0.15234 0.10306 0.0
C1458 C 0.07057 0.11908 0.09872 0.0
C1459 C 0.04717 0.08198 0.10555 0.0
C1460 C 0.0588 0.11147 0.08673 0.0
C1461 C 0.11399 0.13593 0.10012 0.0
C1462 C 0.1315 0.17321 0.10433 0.0
C1463 C 0.17094 0.19345 0.10705 0.0
C1464 C 0.19284 0.17481 0.1056 0.0
C1465 C 0.1752 0.13639 0.10144 0.0
C1466 C 0.13547 0.11719 0.09847 0.0
H1467 H 0.89628 0.02235 0.09552 0.0
H1468 H 0.81019 0.03068 0.11528 0.0
H1469 H 0.77923 0.96045 0.11942 0.0
H1470 H 0.83132 0.92149 0.08527 0.0
H1471 H 0.86995 0.91005 0.08603 0.0
H1472 H 0.88121 0.95924 0.08325 0.0
H1473 H 0.92881 0.98368 0.09954 0.0
H1474 H 0.91736 0.93464 0.10245 0.0
H1475 H 0.91115 0.96324 0.11275 0.0
H1476 H 0.7632 0.89163 0.12335 0.0
H1477 H 0.76174 0.82911 0.12609 0.0
H1478 H 0.85871 0.86656 0.10383 0.0
C1479 C 0.87018 0.00923 0.10044 0.0
C1480 C 0.85553 0.03199 0.10502 0.0
C1481 C 0.8218 0.01378 0.11162 0.0
C1482 C 0.80401 0.9739 0.11402 0.0
C1483 C 0.82017 0.95264 0.10971 0.0
C1484 C 0.85226 0.96961 0.10295 0.0
C1485 C 0.86612 0.94136 0.10013 0.0
C1486 C 0.86188 0.93251 0.08795 0.0
C1487 C 0.90834 0.95665 0.10395 0.0
C1488 C 0.83754 0.90622 0.10661 0.0
C1489 C 0.81103 0.9131 0.112 0.0
C1490 C 0.78339 0.88567 0.11902 0.0
C1491 C 0.7829 0.85033 0.12057 0.0
C1492 C 0.80997 0.84284 0.11514 0.0
C1493 C 0.83731 0.87114 0.108 0.0
H1494 H 0.97099 0.87488 0.09846 0.0
H1495 H 0.96523 0.78144 0.11815 0.0
H1496 H 0.03545 0.82214 0.12229 0.0
H1497 H 0.06955 0.91079 0.08776 0.0
H1498 H 0.08115 0.96091 0.08838 0.0
H1499 H 0.03156 0.92286 0.08617 0.0
H1500 H 0.00957 0.94715 0.10274 0.0
H1501 H 0.05908 0.98499 0.10505 0.0
H1502 H 0.03211 0.95107 0.1157 0.0
H1503 H 0.10549 0.87538 0.12537 0.0
H1504 H 0.16959 0.9358 0.12665 0.0
H1505 H 0.12803 0.99373 0.1051 0.0
C1506 C 0.98457 0.86256 0.10346 0.0
C1507 C 0.96262 0.82485 0.10793 0.0
C1508 C 0.9815 0.81017 0.11458 0.0
C1509 C 0.02136 0.83309 0.11699 0.0
C1510 C 0.04188 0.87056 0.11268 0.0
C1511 C 0.02414 0.88505 0.10599 0.0
C1512 C 0.05198 0.92688 0.10284 0.0
C1513 C 0.05898 0.93055 0.09056 0.0
C1514 C 0.0373 0.95411 0.10682 0.0
C1515 C 0.08804 0.93388 0.10892 0.0
C1516 C 0.08182 0.90108 0.11451 0.0
C1517 C 0.11077 0.90113 0.12095 0.0
C1518 C 0.14704 0.9356 0.12166 0.0
C1519 C 0.15391 0.9695 0.11597 0.0
C1520 C 0.12388 0.96833 0.10952 0.0
H1521 H 0.17202 0.17091 0.38603 0.0
H1522 H 0.13332 0.15158 0.41944 0.0
H1523 H 0.14763 0.09783 0.42067 0.0
H1524 H 0.12793 0.07524 0.37889 0.0
H1525 H 0.16555 0.07905 0.36992 0.0
H1526 H 0.15981 0.12069 0.3722 0.0
H1527 H 0.23187 0.1612 0.3783 0.0
H1528 H 0.23804 0.11971 0.37593 0.0
H1529 H 0.24956 0.14312 0.38898 0.0
H1530 H 0.15597 0.0403 0.41745 0.0
H1531 H 0.15965 0.98426 0.4102 0.0
H1532 H 0.19294 0.04071 0.37884 0.0
C1533 C 0.16783 0.1563 0.39372 0.0
C1534 C 0.15177 0.16562 0.40267 0.0
C1535 C 0.14581 0.14511 0.4125 0.0
C1536 C 0.15392 0.11457 0.41328 0.0
C1537 C 0.16824 0.10509 0.40418 0.0
C1538 C 0.17557 0.12562 0.39462 0.0
C1539 C 0.18697 0.10703 0.3857 0.0
C1540 C 0.15835 0.09478 0.37612 0.0
C1541 C 0.22912 0.1344 0.38201 0.0
C1542 C 0.18338 0.07195 0.39162 0.0
C1543 C 0.17306 0.07168 0.40231 0.0
C1544 C 0.16482 0.04059 0.40916 0.0
C1545 C 0.16679 0.00879 0.40494 0.0
C1546 C 0.17681 0.00823 0.39397 0.0
C1547 C 0.18589 0.04061 0.38731 0.0
H1548 H 0.01376 0.11724 0.39662 0.0
H1549 H 0.94505 0.17168 0.38889 0.0
H1550 H 0.88461 0.10913 0.39243 0.0
H1551 H 0.9529 0.02707 0.38428 0.0
H1552 H 0.96039 0.99895 0.39447 0.0
H1553 H 0.99761 0.04849 0.39195 0.0
H1554 H 0.99659 0.06503 0.41218 0.0
H1555 H 0.95907 0.01551 0.41477 0.0
H1556 H 0.95132 0.05522 0.41834 0.0
H1557 H 0.83177 0.03887 0.39547 0.0
H1558 H 0.79142 0.9674 0.39758 0.0
H1559 H 0.89578 0.96097 0.40402 0.0
C1560 C 0.98604 0.11617 0.3957 0.0
C1561 C 0.98407 0.14927 0.39243 0.0
C1562 C 0.94721 0.14664 0.39139 0.0
C1563 C 0.91277 0.1113 0.39342 0.0
C1564 C 0.91584 0.07916 0.39661 0.0
C1565 C 0.95161 0.08144 0.3978 0.0
C1566 C 0.94724 0.04262 0.40096 0.0
C1567 C 0.96561 0.02846 0.3924 0.0
C1568 C 0.96458 0.04474 0.41223 0.0
C1569 C 0.90334 0.01771 0.40108 0.0
C1570 C 0.88564 0.03926 0.39862 0.0
C1571 C 0.8453 0.02184 0.39755 0.0
C1572 C 0.82263 0.98124 0.39877 0.0
C1573 C 0.8404 0.95863 0.40105 0.0
C1574 C 0.88118 0.97743 0.40247 0.0
H1575 H 0.01036 0.81277 0.371 0.0
H1576 H 0.02745 0.81416 0.40567 0.0
H1577 H 0.961 0.80321 0.40862 0.0
H1578 H 0.96712 0.86843 0.37147 0.0
H1579 H 0.93299 0.84403 0.36064 0.0
H1580 H 0.97797 0.8433 0.36109 0.0
H1581 H 0.93994 0.76784 0.36067 0.0
H1582 H 0.89468 0.76828 0.36008 0.0
H1583 H 0.90246 0.74134 0.37058 0.0
H1584 H 0.89735 0.80155 0.40786 0.0
H1585 H 0.84126 0.80987 0.40356 0.0
H1586 H 0.8664 0.81223 0.3693 0.0
C1587 C 0.99952 0.80915 0.3792 0.0
C1588 C 0.02374 0.81363 0.38812 0.0
C1589 C 0.00913 0.81033 0.39874 0.0
C1590 C 0.97144 0.80405 0.40048 0.0
C1591 C 0.94883 0.80129 0.39151 0.0
C1592 C 0.96222 0.80354 0.38107 0.0
C1593 C 0.9343 0.80469 0.37289 0.0
C1594 C 0.9543 0.84235 0.36613 0.0
C1595 C 0.9168 0.76836 0.36563 0.0
C1596 C 0.90381 0.80419 0.38038 0.0
C1597 C 0.9124 0.80147 0.39107 0.0
C1598 C 0.88999 0.80305 0.39951 0.0
C1599 C 0.85824 0.80795 0.39697 0.0
C1600 C 0.84933 0.81164 0.38608 0.0
C1601 C 0.87216 0.80909 0.37769 0.0
H1602 H 0.86666 0.86754 0.87935 0.0
H1603 H 0.80935 0.82689 0.91039 0.0
H1604 H 0.86037 0.81167 0.91593 0.0
H1605 H 0.90111 0.79717 0.87647 0.0
H1606 H 0.94632 0.83298 0.87038 0.0
H1607 H 0.90285 0.83611 0.86851 0.0
H1608 H 0.9388 0.90664 0.87602 0.0
H1609 H 0.98223 0.90368 0.87797 0.0
H1610 H 0.96121 0.9158 0.88919 0.0
H1611 H 0.92144 0.80708 0.91861 0.0
H1612 H 0.98656 0.81298 0.91819 0.0
H1613 H 0.00303 0.85703 0.88533 0.0
C1614 C 0.86427 0.85472 0.88725 0.0
C1615 C 0.83392 0.84828 0.89443 0.0
C1616 C 0.83223 0.83186 0.90473 0.0
C1617 C 0.86106 0.82312 0.90794 0.0
C1618 C 0.89113 0.83075 0.90072 0.0
C1619 C 0.8927 0.84595 0.89056 0.0
C1620 C 0.92928 0.85406 0.88456 0.0
C1621 C 0.91928 0.82855 0.87438 0.0
C1622 C 0.95435 0.89762 0.88178 0.0
C1623 C 0.94865 0.84194 0.89303 0.0
C1624 C 0.92611 0.82824 0.90226 0.0
C1625 C 0.93907 0.81731 0.91137 0.0
C1626 C 0.97615 0.82084 0.91106 0.0
C1627 C 0.99988 0.83537 0.90172 0.0
C1628 C 0.98552 0.84549 0.89256 0.0
H1629 H 0.20334 0.01508 0.87879 0.0
H1630 H 0.15911 0.98204 0.91147 0.0
H1631 H 0.16279 0.04559 0.91393 0.0
H1632 H 0.2681 0.12246 0.88406 0.0
H1633 H 0.25601 0.13473 0.87114 0.0
H1634 H 0.25722 0.09011 0.8727 0.0
H1635 H 0.18641 0.05113 0.86551 0.0
H1636 H 0.18472 0.09539 0.86407 0.0
H1637 H 0.14858 0.05606 0.87215 0.0
H1638 H 0.1609 0.10712 0.91184 0.0
H1639 H 0.15622 0.16376 0.90566 0.0
H1640 H 0.20151 0.15708 0.87426 0.0
C1641 C 0.19578 0.02172 0.8866 0.0
C1642 C 0.18117 0.99367 0.89497 0.0
C1643 C 0.17061 0.00316 0.90498 0.0
C1644 C 0.17265 0.03921 0.90645 0.0
C1645 C 0.18556 0.06553 0.89787 0.0
C1646 C 0.19741 0.05746 0.88818 0.0
C1647 C 0.20606 0.08883 0.87985 0.0
C1648 C 0.24943 0.11031 0.87676 0.0
C1649 C 0.17987 0.07182 0.86981 0.0
C1650 C 0.19567 0.11497 0.88623 0.0
C1651 C 0.18441 0.10126 0.89665 0.0
C1652 C 0.17042 0.1186 0.90378 0.0
C1653 C 0.16765 0.15062 0.90017 0.0
C1654 C 0.17871 0.16497 0.88949 0.0
C1655 C 0.19345 0.14718 0.88252 0.0
H1656 H 0.01524 0.12169 0.90455 0.0
H1657 H 0.01093 0.20928 0.88446 0.0
H1658 H 0.94176 0.16299 0.8803 0.0
H1659 H 0.96114 0.04351 0.88747 0.0
H1660 H 0.93609 0.00846 0.89804 0.0
H1661 H 0.98349 0.04985 0.90057 0.0
H1662 H 0.95614 0.06984 0.91687 0.0
H1663 H 0.90868 0.02814 0.91448 0.0
H1664 H 0.91456 0.07625 0.91496 0.0
H1665 H 0.87461 0.10462 0.87698 0.0
H1666 H 0.81479 0.04015 0.87541 0.0
H1667 H 0.86466 0.99153 0.89747 0.0
C1668 C 0.99957 0.13158 0.89949 0.0
C1669 C 0.01849 0.16921 0.89488 0.0
C1670 C 0.997 0.18066 0.88814 0.0
C1671 C 0.9577 0.15456 0.88572 0.0
C1672 C 0.94034 0.1172 0.89012 0.0
C1673 C 0.96054 0.1059 0.89695 0.0
C1674 C 0.93619 0.06347 0.90008 0.0
C1675 C 0.95538 0.03996 0.89631 0.0
C1676 C 0.92843 0.05919 0.91232 0.0
C1677 C 0.89938 0.05239 0.89378 0.0
C1678 C 0.90211 0.08374 0.88814 0.0
C1679 C 0.87202 0.07997 0.88146 0.0
C1680 C 0.83822 0.04322 0.88058 0.0
C1681 C 0.83496 0.01077 0.88632 0.0
C1682 C 0.86606 0.0157 0.893 0.0
H1683 H 0.81811 0.96713 0.628 0.0
H1684 H 0.8145 0.98147 0.59335 0.0
H1685 H 0.81594 0.92052 0.59036 0.0
H1686 H 0.88781 0.9396 0.62705 0.0
H1687 H 0.86875 0.90527 0.63806 0.0
H1688 H 0.8595 0.94526 0.63756 0.0
H1689 H 0.78515 0.8969 0.63853 0.0
H1690 H 0.79421 0.85664 0.63905 0.0
H1691 H 0.76268 0.85806 0.62877 0.0
H1692 H 0.82466 0.86219 0.59107 0.0
H1693 H 0.84565 0.81454 0.59533 0.0
H1694 H 0.84739 0.84051 0.62948 0.0
C1695 C 0.81632 0.95666 0.61981 0.0
C1696 C 0.81556 0.97846 0.6109 0.0
C1697 C 0.81477 0.96485 0.60027 0.0
C1698 C 0.81535 0.9302 0.59851 0.0
C1699 C 0.81706 0.90974 0.60746 0.0
C1700 C 0.81774 0.92256 0.61791 0.0
C1701 C 0.82496 0.8983 0.62604 0.0
C1702 C 0.86248 0.92362 0.63255 0.0
C1703 C 0.78963 0.87616 0.63354 0.0
C1704 C 0.8295 0.8707 0.61851 0.0
C1705 C 0.82385 0.87709 0.60785 0.0
C1706 C 0.82868 0.85658 0.5994 0.0
C1707 C 0.84056 0.82953 0.6019 0.0
C1708 C 0.84816 0.82385 0.61273 0.0
C1709 C 0.84162 0.84409 0.62113 0.0
H1710 H 0.15883 0.03409 0.62829 0.0
H1711 H 0.19117 0.04327 0.59445 0.0
H1712 H 0.14106 0.97397 0.59178 0.0
H1713 H 0.13548 0.93189 0.63228 0.0
H1714 H 0.09543 0.92178 0.64116 0.0
H1715 H 0.13725 0.97013 0.64059 0.0
H1716 H 0.09204 0.99809 0.63612 0.0
H1717 H 0.05021 0.94994 0.63659 0.0
H1718 H 0.05982 0.97937 0.62463 0.0
H1719 H 0.0816 0.90609 0.59247 0.0
H1720 H 0.02007 0.84543 0.59654 0.0
H1721 H 0.02824 0.8819 0.62999 0.0
C1722 C 0.15601 0.02139 0.62035 0.0
C1723 C 0.17885 0.04401 0.61157 0.0
C1724 C 0.17412 0.02634 0.60131 0.0
C1725 C 0.14573 0.98704 0.59972 0.0
C1726 C 0.12283 0.96589 0.60852 0.0
C1727 C 0.1281 0.98242 0.61866 0.0
C1728 C 0.09819 0.95465 0.62663 0.0
C1729 C 0.11776 0.94398 0.6357 0.0
C1730 C 0.07362 0.97153 0.63126 0.0
C1731 C 0.07428 0.92026 0.61932 0.0
C1732 C 0.08907 0.92701 0.60893 0.0
C1733 C 0.07018 0.90027 0.60062 0.0
C1734 C 0.03519 0.86596 0.60301 0.0
C1735 C 0.01941 0.85884 0.6136 0.0
C1736 C 0.03969 0.88621 0.62185 0.0
H1737 H 0.14309 0.19632 0.62718 0.0
H1738 H 0.16512 0.18289 0.59351 0.0
H1739 H 0.10468 0.18206 0.58827 0.0
H1740 H 0.04401 0.13199 0.62669 0.0
H1741 H 0.03079 0.15945 0.63563 0.0
H1742 H 0.07836 0.16445 0.63658 0.0
H1743 H 0.11024 0.23907 0.63387 0.0
H1744 H 0.06262 0.23428 0.63292 0.0
H1745 H 0.09753 0.25764 0.6222 0.0
H1746 H 0.03776 0.17359 0.58695 0.0
H1747 H 0.97015 0.15966 0.58971 0.0
H1748 H 0.99274 0.18089 0.62409 0.0
C1749 C 0.1357 0.19412 0.61868 0.0
C1750 C 0.15892 0.18972 0.61077 0.0
C1751 C 0.14789 0.18638 0.59974 0.0
C1752 C 0.11363 0.186 0.59667 0.0
C1753 C 0.09091 0.18946 0.60469 0.0
C1754 C 0.10167 0.19384 0.61547 0.0
C1755 C 0.07067 0.19401 0.62259 0.0
C1756 C 0.05504 0.16048 0.63085 0.0
C1757 C 0.0862 0.23362 0.62823 0.0
C1758 C 0.04021 0.18756 0.61418 0.0
C1759 C 0.05256 0.18538 0.60389 0.0
C1760 C 0.02805 0.17607 0.59494 0.0
C1761 C 0.9897 0.16813 0.59658 0.0
C1762 C 0.97633 0.16964 0.60708 0.0
C1763 C 0.00232 0.18037 0.61592 0.0
H1764 H 0.67839 0.46564 0.44783 0.0
H1765 H 0.71315 0.53045 0.41771 0.0
H1766 H 0.77487 0.52903 0.41805 0.0
H1767 H 0.77615 0.50977 0.46008 0.0
H1768 H 0.76613 0.46426 0.4661 0.0
H1769 H 0.72713 0.47453 0.46403 0.0
H1770 H 0.68887 0.41044 0.45309 0.0
H1771 H 0.72774 0.40007 0.45507 0.0
H1772 H 0.71166 0.40212 0.44158 0.0
H1773 H 0.83 0.51433 0.42086 0.0
H1774 H 0.87322 0.48844 0.42604 0.0
H1775 H 0.80121 0.43414 0.45429 0.0
C1776 C 0.69925 0.48025 0.4414 0.0
C1777 C 0.69096 0.49823 0.43276 0.0
C1778 C 0.71894 0.51662 0.42445 0.0
C1779 C 0.7541 0.516 0.42457 0.0
C1780 C 0.7609 0.49715 0.4331 0.0
C1781 C 0.7343 0.4799 0.4414 0.0
C1782 C 0.74702 0.45926 0.44927 0.0
C1783 C 0.75456 0.4781 0.46054 0.0
C1784 C 0.71705 0.41539 0.44977 0.0
C1785 C 0.7845 0.46674 0.44398 0.0
C1786 C 0.79235 0.48888 0.43472 0.0
C1787 C 0.8244 0.49743 0.42819 0.0
C1788 C 0.84876 0.4826 0.43118 0.0
C1789 C 0.84068 0.45938 0.44058 0.0
C1790 C 0.80845 0.45202 0.44709 0.0
H1791 H 0.54724 0.18556 0.42702 0.0
H1792 H 0.42441 0.13175 0.43511 0.0
H1793 H 0.4276 0.19521 0.43261 0.0
H1794 H 0.57771 0.2729 0.44088 0.0
H1795 H 0.61366 0.30308 0.43101 0.0
H1796 H 0.60063 0.25287 0.43249 0.0
H1797 H 0.5832 0.24112 0.41214 0.0
H1798 H 0.59608 0.29137 0.41057 0.0
H1799 H 0.54839 0.25307 0.40657 0.0
H1800 H 0.44587 0.26585 0.43071 0.0
H1801 H 0.4778 0.33767 0.42983 0.0
H1802 H 0.58808 0.34405 0.42259 0.0
C1803 C 0.52082 0.18689 0.42815 0.0
C1804 C 0.48554 0.15365 0.43126 0.0
C1805 C 0.45175 0.15681 0.43271 0.0
C1806 C 0.45326 0.1927 0.43127 0.0
C1807 C 0.48866 0.22497 0.4283 0.0
C1808 C 0.52178 0.2223 0.42672 0.0
C1809 C 0.55671 0.26156 0.42411 0.0
C1810 C 0.58906 0.27328 0.43263 0.0
C1811 C 0.57198 0.26178 0.41267 0.0
C1812 C 0.53835 0.28702 0.42474 0.0
C1813 C 0.49901 0.2654 0.42708 0.0
C1814 C 0.47652 0.283 0.42873 0.0
C1815 C 0.4949 0.3238 0.42821 0.0
C1816 C 0.53537 0.34648 0.42606 0.0
C1817 C 0.55699 0.32759 0.42408 0.0
H1818 H 0.80053 0.31326 0.43172 0.0
H1819 H 0.84697 0.24851 0.44822 0.0
H1820 H 0.78596 0.18701 0.44429 0.0
H1821 H 0.70443 0.2581 0.44115 0.0
H1822 H 0.68234 0.261 0.4287 0.0
H1823 H 0.73055 0.29912 0.43223 0.0
H1824 H 0.75676 0.28928 0.41398 0.0
H1825 H 0.70856 0.25089 0.41044 0.0
H1826 H 0.74875 0.24167 0.41047 0.0
H1827 H 0.71735 0.13319 0.4398 0.0
H1828 H 0.6475 0.09211 0.4352 0.0
H1829 H 0.64812 0.19267 0.42108 0.0
C1830 C 0.79812 0.28617 0.43444 0.0
C1831 C 0.82854 0.28571 0.4403 0.0
C1832 C 0.82408 0.24958 0.44371 0.0
C1833 C 0.78958 0.2145 0.44149 0.0
C1834 C 0.76008 0.21609 0.43575 0.0
C1835 C 0.76416 0.25104 0.43223 0.0
C1836 C 0.72774 0.24524 0.4266 0.0
C1837 C 0.71024 0.26715 0.43253 0.0
C1838 C 0.73596 0.25749 0.41466 0.0
C1839 C 0.70208 0.2016 0.4277 0.0
C1840 C 0.7212 0.18519 0.43295 0.0
C1841 C 0.7023 0.14565 0.43553 0.0
C1842 C 0.66266 0.12253 0.43288 0.0
C1843 C 0.64245 0.13905 0.42767 0.0
C1844 C 0.66284 0.17892 0.42486 0.0
H1845 H 0.74653 0.45717 0.73631 0.0
H1846 H 0.85927 0.55963 0.73047 0.0
H1847 H 0.88763 0.51737 0.72712 0.0
H1848 H 0.78197 0.39636 0.74905 0.0
H1849 H 0.74508 0.35278 0.7425 0.0
H1850 H 0.73527 0.39133 0.74583 0.0
H1851 H 0.71741 0.3941 0.72583 0.0
H1852 H 0.72759 0.35597 0.72239 0.0
H1853 H 0.75221 0.40192 0.71536 0.0
H1854 H 0.90234 0.46367 0.72306 0.0
H1855 H 0.90252 0.40284 0.71881 0.0
H1856 H 0.77927 0.33594 0.7266 0.0
C1857 C 0.77745 0.47082 0.73466 0.0
C1858 C 0.80086 0.51171 0.7338 0.0
C1859 C 0.84093 0.52836 0.73127 0.0
C1860 C 0.85726 0.5046 0.72934 0.0
C1861 C 0.83305 0.46431 0.72993 0.0
C1862 C 0.79404 0.44757 0.73257 0.0
C1863 C 0.7736 0.40357 0.73184 0.0
C1864 C 0.75808 0.38492 0.74297 0.0
C1865 C 0.74078 0.38799 0.72335 0.0
C1866 C 0.80708 0.39817 0.72823 0.0
C1867 C 0.84121 0.43349 0.72727 0.0
C1868 C 0.87585 0.43583 0.72386 0.0
C1869 C 0.87563 0.40112 0.72143 0.0
C1870 C 0.84093 0.36461 0.72235 0.0
C1871 C 0.80629 0.36334 0.72579 0.0
H1872 H 0.54795 0.29541 0.71037 0.0
H1873 H 0.47207 0.30884 0.73313 0.0
H1874 H 0.51932 0.37972 0.73414 0.0
H1875 H 0.63745 0.36243 0.72295 0.0
H1876 H 0.66319 0.37988 0.71033 0.0
H1877 H 0.62271 0.33094 0.71128 0.0
H1878 H 0.58912 0.34466 0.69521 0.0
H1879 H 0.62945 0.39376 0.69429 0.0
H1880 H 0.58058 0.38523 0.69596 0.0
H1881 H 0.57651 0.44924 0.73286 0.0
H1882 H 0.63878 0.51038 0.72986 0.0
H1883 H 0.67567 0.44955 0.7079 0.0
C1884 C 0.54098 0.31314 0.71554 0.0
C1885 C 0.50623 0.29661 0.72166 0.0
C1886 C 0.49852 0.32092 0.72837 0.0
C1887 C 0.52513 0.36117 0.72897 0.0
C1888 C 0.55916 0.37644 0.7228 0.0
C1889 C 0.56708 0.35303 0.71625 0.0
C1890 C 0.60602 0.376 0.71065 0.0
C1891 C 0.63398 0.36145 0.71401 0.0
C1892 C 0.60097 0.37484 0.6983 0.0
C1893 C 0.61905 0.41615 0.7151 0.0
C1894 C 0.59168 0.41597 0.72207 0.0
C1895 C 0.59801 0.44969 0.72737 0.0
C1896 C 0.63344 0.48428 0.7256 0.0
C1897 C 0.66204 0.4848 0.7186 0.0
C1898 C 0.65434 0.45028 0.71322 0.0
H1899 H 0.66027 0.14836 0.70488 0.0
H1900 H 0.69677 0.18351 0.73803 0.0
H1901 H 0.62864 0.16186 0.74308 0.0
H1902 H 0.60014 0.18439 0.70299 0.0
H1903 H 0.563 0.14623 0.69481 0.0
H1904 H 0.61216 0.1554 0.69429 0.0
H1905 H 0.58852 0.08356 0.69938 0.0
H1906 H 0.53898 0.07396 0.6998 0.0
H1907 H 0.55954 0.06307 0.71138 0.0
H1908 H 0.56104 0.15076 0.74358 0.0
H1909 H 0.49813 0.14714 0.73978 0.0
H1910 H 0.50436 0.11707 0.70644 0.0
C1911 C 0.65375 0.15021 0.71329 0.0
C1912 C 0.68381 0.1676 0.72107 0.0
C1913 C 0.67418 0.16999 0.73195 0.0
C1914 C 0.63553 0.15774 0.73489 0.0
C1915 C 0.60684 0.14252 0.72689 0.0
C1916 C 0.61537 0.13801 0.71634 0.0
C1917 C 0.58038 0.12528 0.70901 0.0
C1918 C 0.58949 0.15458 0.69974 0.0
C1919 C 0.566 0.084 0.70464 0.0
C1920 C 0.55153 0.12573 0.71694 0.0
C1921 C 0.56716 0.13513 0.72725 0.0
C1922 C 0.54802 0.14219 0.73564 0.0
C1923 C 0.51244 0.14029 0.73339 0.0
C1924 C 0.49628 0.13126 0.72286 0.0
C1925 C 0.51556 0.12284 0.71462 0.0
H1926 H 0.65852 0.20973 0.22901 0.0
H1927 H 0.59617 0.10126 0.21112 0.0
H1928 H 0.53453 0.10169 0.21396 0.0
H1929 H 0.5824 0.1888 0.24886 0.0
H1930 H 0.5926 0.23851 0.24911 0.0
H1931 H 0.63111 0.22813 0.24626 0.0
H1932 H 0.64603 0.26658 0.22827 0.0
H1933 H 0.60784 0.2773 0.2311 0.0
H1934 H 0.60735 0.25365 0.2186 0.0
H1935 H 0.4806 0.11695 0.21765 0.0
H1936 H 0.43967 0.14649 0.22144 0.0
H1937 H 0.53787 0.24372 0.23732 0.0
C1938 C 0.63192 0.18581 0.22575 0.0
C1939 C 0.6322 0.15543 0.21983 0.0
C1940 C 0.59668 0.12483 0.21568 0.0
C1941 C 0.56152 0.12475 0.21729 0.0
C1942 C 0.56238 0.15528 0.22314 0.0
C1943 C 0.59672 0.18519 0.22731 0.0
C1944 C 0.59035 0.21559 0.23285 0.0
C1945 C 0.59967 0.21787 0.24499 0.0
C1946 C 0.6143 0.25562 0.22738 0.0
C1947 C 0.54716 0.19861 0.23095 0.0
C1948 C 0.5314 0.16368 0.22541 0.0
C1949 C 0.49252 0.14399 0.22212 0.0
C1950 C 0.46948 0.16096 0.22433 0.0
C1951 C 0.48544 0.19725 0.22976 0.0
C1952 C 0.52452 0.21564 0.23333 0.0
H1953 H 0.79939 0.32841 0.20412 0.0
H1954 H 0.81701 0.31255 0.23796 0.0
H1955 H 0.83555 0.38113 0.24157 0.0
H1956 H 0.87807 0.43216 0.2019 0.0
H1957 H 0.84893 0.44342 0.19302 0.0
H1958 H 0.84337 0.39541 0.19289 0.0
H1959 H 0.7694 0.36526 0.19656 0.0
H1960 H 0.77473 0.41301 0.19679 0.0
H1961 H 0.75356 0.38098 0.20822 0.0
H1962 H 0.84315 0.44833 0.24183 0.0
H1963 H 0.84033 0.50843 0.23873 0.0
H1964 H 0.81761 0.47941 0.20466 0.0
C1965 C 0.80806 0.33954 0.21226 0.0
C1966 C 0.80682 0.31518 0.22076 0.0
C1967 C 0.81802 0.3308 0.23131 0.0
C1968 C 0.82861 0.3697 0.23343 0.0
C1969 C 0.82825 0.39255 0.22489 0.0
C1970 C 0.81865 0.37808 0.21449 0.0
C1971 C 0.81706 0.40718 0.2069 0.0
C1972 C 0.84876 0.42032 0.19816 0.0
C1973 C 0.77627 0.39061 0.20183 0.0
C1974 C 0.82575 0.43982 0.21472 0.0
C1975 C 0.83266 0.43114 0.22503 0.0
C1976 C 0.83848 0.45572 0.23376 0.0
C1977 C 0.83671 0.48974 0.23192 0.0
C1978 C 0.8289 0.49871 0.22144 0.0
C1979 C 0.82412 0.47367 0.21274 0.0
H1980 H 0.68809 0.45762 0.23868 0.0
H1981 H 0.68097 0.56179 0.23266 0.0
H1982 H 0.60994 0.52092 0.22961 0.0
H1983 H 0.62564 0.40258 0.21801 0.0
H1984 H 0.60371 0.35695 0.22521 0.0
H1985 H 0.65257 0.39439 0.22843 0.0
H1986 H 0.63302 0.39307 0.2485 0.0
H1987 H 0.58414 0.35522 0.24534 0.0
H1988 H 0.59223 0.39948 0.25177 0.0
H1989 H 0.54023 0.46777 0.22585 0.0
H1990 H 0.47837 0.4073 0.22174 0.0
H1991 H 0.53331 0.33903 0.22941 0.0
C1992 C 0.67153 0.47203 0.23701 0.0
C1993 C 0.69004 0.51297 0.23602 0.0
C1994 C 0.66734 0.53049 0.23356 0.0
C1995 C 0.627 0.50751 0.2318 0.0
C1996 C 0.60992 0.46711 0.2325 0.0
C1997 C 0.63152 0.44958 0.2351 0.0
C1998 C 0.60709 0.40565 0.23453 0.0
C1999 C 0.62322 0.38894 0.22604 0.0
C2000 C 0.60393 0.38728 0.2457 0.0
C2001 C 0.5685 0.40112 0.23101 0.0
C2002 C 0.57045 0.43678 0.23001 0.0
C2003 C 0.53835 0.43969 0.22667 0.0
C2004 C 0.50339 0.40523 0.22433 0.0
C2005 C 0.50105 0.36848 0.2252 0.0
C2006 C 0.53414 0.36665 0.22861 0.0
H2007 H 0.55298 0.1939 0.96098 0.0
H2008 H 0.50962 0.14341 0.92935 0.0
H2009 H 0.48318 0.18785 0.92683 0.0
H2010 H 0.47218 0.21233 0.96805 0.0
H2011 H 0.50519 0.25733 0.97477 0.0
H2012 H 0.51521 0.21769 0.97463 0.0
H2013 H 0.58319 0.26341 0.9663 0.0
H2014 H 0.57334 0.30302 0.96635 0.0
H2015 H 0.58655 0.28887 0.95391 0.0
H2016 H 0.47023 0.24432 0.92682 0.0
H2017 H 0.46999 0.30602 0.92952 0.0
H2018 H 0.52089 0.31787 0.96135 0.0
C2019 C 0.53715 0.1915 0.95361 0.0
C2020 C 0.53333 0.16523 0.94535 0.0
C2021 C 0.51263 0.16317 0.93581 0.0
C2022 C 0.49753 0.18829 0.93432 0.0
C2023 C 0.50292 0.21474 0.94252 0.0
C2024 C 0.52182 0.21607 0.95204 0.0
C2025 C 0.52663 0.24898 0.95927 0.0
C2026 C 0.50341 0.23312 0.96981 0.0
C2027 C 0.56999 0.27775 0.96158 0.0
C2028 C 0.50892 0.26707 0.95216 0.0
C2029 C 0.49499 0.24675 0.94257 0.0
C2030 C 0.48032 0.25998 0.93438 0.0
C2031 C 0.48042 0.29512 0.93598 0.0
C2032 C 0.49518 0.31664 0.94568 0.0
C2033 C 0.5088 0.30183 0.95392 0.0
H2034 H 0.792 0.36273 0.92038 0.0
H2035 H 0.89145 0.3721 0.9378 0.0
H2036 H 0.85556 0.30095 0.94084 0.0
H2037 H 0.72331 0.29972 0.93791 0.0
H2038 H 0.68659 0.27177 0.92795 0.0
H2039 H 0.72246 0.32157 0.9252 0.0
H2040 H 0.74302 0.30057 0.9077 0.0
H2041 H 0.70679 0.25056 0.91033 0.0
H2042 H 0.75701 0.26376 0.90839 0.0
H2043 H 0.80555 0.23052 0.94416 0.0
H2044 H 0.74588 0.16728 0.94749 0.0
H2045 H 0.67916 0.20524 0.92831 0.0
C2046 C 0.80681 0.34971 0.9245 0.0
C2047 C 0.84466 0.37292 0.92877 0.0
C2048 C 0.86257 0.35482 0.93438 0.0
C2049 C 0.84242 0.31441 0.93613 0.0
C2050 C 0.80449 0.29257 0.93219 0.0
C2051 C 0.787 0.30959 0.92641 0.0
C2052 C 0.7446 0.28075 0.92412 0.0
C2053 C 0.71769 0.29427 0.9291 0.0
C2054 C 0.73745 0.27348 0.91191 0.0
C2055 C 0.74054 0.24522 0.92985 0.0
C2056 C 0.7755 0.25229 0.93429 0.0
C2057 C 0.77816 0.22445 0.94056 0.0
C2058 C 0.74411 0.18866 0.94244 0.0
C2059 C 0.70786 0.1813 0.93816 0.0
C2060 C 0.70642 0.20983 0.93165 0.0
H2061 H 0.80426 0.5481 0.94978 0.0
H2062 H 0.8057 0.48613 0.92098 0.0
H2063 H 0.74473 0.4822 0.91481 0.0
H2064 H 0.70498 0.4924 0.95454 0.0
H2065 H 0.69864 0.53195 0.95923 0.0
H2066 H 0.74514 0.53476 0.96066 0.0
H2067 H 0.77805 0.60014 0.95017 0.0
H2068 H 0.73145 0.59737 0.94866 0.0
H2069 H 0.76049 0.60248 0.9369 0.0
H2070 H 0.67987 0.47707 0.9129 0.0
H2071 H 0.61501 0.47035 0.91562 0.0
H2072 H 0.65584 0.5373 0.94526 0.0
C2073 C 0.79221 0.53446 0.94206 0.0
C2074 C 0.80989 0.51756 0.93586 0.0
C2075 C 0.79279 0.49937 0.92589 0.0
C2076 C 0.75823 0.49717 0.92227 0.0
C2077 C 0.7412 0.51355 0.92865 0.0
C2078 C 0.75764 0.53199 0.93832 0.0
C2079 C 0.73162 0.5441 0.9441 0.0
C2080 C 0.71937 0.52462 0.95529 0.0
C2081 C 0.7516 0.58868 0.94501 0.0
C2082 C 0.69738 0.52829 0.93636 0.0
C2083 C 0.70375 0.51121 0.92743 0.0
C2084 C 0.67485 0.49113 0.91971 0.0
C2085 C 0.63814 0.48746 0.92131 0.0
C2086 C 0.63074 0.50394 0.93052 0.0
C2087 C 0.66111 0.52555 0.93796 0.0
H2088 H 0.33759 0.81189 0.77223 0.0
H2089 H 0.38959 0.90381 0.79628 0.0
H2090 H 0.453 0.9068 0.79368 0.0
H2091 H 0.38543 0.76208 0.7802 0.0
H2092 H 0.39101 0.74855 0.76668 0.0
H2093 H 0.35118 0.75651 0.76977 0.0
H2094 H 0.3732 0.80776 0.75442 0.0
H2095 H 0.41332 0.8001 0.75132 0.0
H2096 H 0.42235 0.8484 0.75436 0.0
H2097 H 0.50944 0.89604 0.78933 0.0
H2098 H 0.55292 0.87063 0.78428 0.0
H2099 H 0.46319 0.7863 0.763 0.0
C2100 C 0.36235 0.83304 0.77688 0.0
C2101 C 0.35862 0.8577 0.78445 0.0
C2102 C 0.39175 0.88466 0.79042 0.0
C2103 C 0.42791 0.88669 0.78896 0.0
C2104 C 0.43042 0.86173 0.78146 0.0
C2105 C 0.39845 0.83544 0.77553 0.0
C2106 C 0.40795 0.81009 0.76848 0.0
C2107 C 0.38239 0.76676 0.77147 0.0
C2108 C 0.40397 0.81702 0.75643 0.0
C2109 C 0.45009 0.82552 0.77156 0.0
C2110 C 0.46274 0.8556 0.77896 0.0
C2111 C 0.49998 0.87283 0.78345 0.0
C2112 C 0.52449 0.85823 0.78051 0.0
C2113 C 0.51155 0.82656 0.7732 0.0
C2114 C 0.47421 0.81083 0.76849 0.0
H2115 H 0.20668 0.70316 0.76807 0.0
H2116 H 0.12468 0.6739 0.79454 0.0
H2117 H 0.11321 0.60664 0.79453 0.0
H2118 H 0.15562 0.60779 0.75418 0.0
H2119 H 0.20078 0.61001 0.75059 0.0
H2120 H 0.19879 0.65427 0.75187 0.0
H2121 H 0.25543 0.68044 0.76573 0.0
H2122 H 0.25729 0.63614 0.7646 0.0
H2123 H 0.2506 0.65219 0.77765 0.0
H2124 H 0.11638 0.54475 0.79298 0.0
H2125 H 0.13095 0.49202 0.7892 0.0
H2126 H 0.21045 0.56215 0.76371 0.0
C2127 C 0.18553 0.68241 0.77369 0.0
C2128 C 0.16647 0.69382 0.78128 0.0
C2129 C 0.13951 0.66583 0.78861 0.0
C2130 C 0.13283 0.62755 0.78868 0.0
C2131 C 0.15315 0.61767 0.78133 0.0
C2132 C 0.17861 0.64419 0.77389 0.0
C2133 C 0.19862 0.62707 0.7673 0.0
C2134 C 0.18779 0.62463 0.75527 0.0
C2135 C 0.24311 0.65034 0.76893 0.0
C2136 C 0.18099 0.587 0.77233 0.0
C2137 C 0.15476 0.58204 0.78039 0.0
C2138 C 0.13643 0.54809 0.78657 0.0
C2139 C 0.14502 0.5184 0.78441 0.0
C2140 C 0.17163 0.52287 0.77612 0.0
C2141 C 0.18961 0.55762 0.77001 0.0
H2142 H 0.4815 0.63015 0.79491 0.0
H2143 H 0.49222 0.67502 0.76232 0.0
H2144 H 0.43054 0.61628 0.75728 0.0
H2145 H 0.43442 0.52522 0.78763 0.0
H2146 H 0.40288 0.51072 0.79928 0.0
H2147 H 0.4506 0.55351 0.7999 0.0
H2148 H 0.4196 0.59487 0.80571 0.0
H2149 H 0.37193 0.55232 0.80511 0.0
H2150 H 0.38232 0.59496 0.79736 0.0
H2151 H 0.36481 0.55602 0.75625 0.0
H2152 H 0.2988 0.50049 0.75958 0.0
H2153 H 0.33053 0.49559 0.79291 0.0
C2154 C 0.47136 0.62718 0.78664 0.0
C2155 C 0.49179 0.657 0.77899 0.0
C2156 C 0.47708 0.65246 0.76831 0.0
C2157 C 0.44218 0.61911 0.76535 0.0
C2158 C 0.42234 0.59055 0.77315 0.0
C2159 C 0.4364 0.59424 0.78358 0.0
C2160 C 0.4077 0.56124 0.7907 0.0
C2161 C 0.42494 0.53619 0.79461 0.0
C2162 C 0.39462 0.57679 0.80028 0.0
C2163 C 0.37482 0.53914 0.78274 0.0
C2164 C 0.38409 0.55609 0.77261 0.0
C2165 C 0.3574 0.54216 0.76411 0.0
C2166 C 0.31996 0.51059 0.76607 0.0
C2167 C 0.30949 0.49362 0.77649 0.0
C2168 C 0.33769 0.50767 0.78483 0.0
H2169 H 0.42177 0.77626 0.06749 0.0
H2170 H 0.53287 0.88072 0.06164 0.0
H2171 H 0.56494 0.84088 0.06079 0.0
H2172 H 0.45902 0.72098 0.08306 0.0
H2173 H 0.42447 0.6758 0.07669 0.0
H2174 H 0.41209 0.71329 0.07887 0.0
H2175 H 0.39686 0.71213 0.05845 0.0
H2176 H 0.40971 0.67518 0.05616 0.0
H2177 H 0.43386 0.72016 0.04866 0.0
H2178 H 0.58325 0.78857 0.05852 0.0
H2179 H 0.586 0.72853 0.05488 0.0
H2180 H 0.46192 0.6591 0.0613 0.0
C2181 C 0.45309 0.79099 0.06642 0.0
C2182 C 0.47496 0.83164 0.06478 0.0
C2183 C 0.51567 0.84963 0.06303 0.0
C2184 C 0.5341 0.82724 0.06254 0.0
C2185 C 0.51136 0.78696 0.06378 0.0
C2186 C 0.47173 0.76907 0.06573 0.0
C2187 C 0.45295 0.72517 0.06555 0.0
C2188 C 0.43615 0.7078 0.07671 0.0
C2189 C 0.42152 0.70713 0.05668 0.0
C2190 C 0.48798 0.72109 0.06288 0.0
C2191 C 0.52155 0.75695 0.06207 0.0
C2192 C 0.55722 0.76032 0.05925 0.0
C2193 C 0.55849 0.72611 0.05718 0.0
C2194 C 0.52419 0.68919 0.05777 0.0
C2195 C 0.48868 0.68688 0.06076 0.0
H2196 H 0.22403 0.62048 0.05544 0.0
H2197 H 0.12056 0.62809 0.04855 0.0
H2198 H 0.16149 0.6996 0.04667 0.0
H2199 H 0.27636 0.71051 0.0707 0.0
H2200 H 0.32294 0.72191 0.06513 0.0
H2201 H 0.28503 0.67186 0.06657 0.0
H2202 H 0.29063 0.66055 0.04616 0.0
H2203 H 0.3283 0.71064 0.04468 0.0
H2204 H 0.28528 0.69115 0.03633 0.0
H2205 H 0.21433 0.77037 0.04516 0.0
H2206 H 0.2747 0.83455 0.04417 0.0
H2207 H 0.34298 0.77923 0.05146 0.0
C2208 C 0.20982 0.63716 0.05369 0.0
C2209 C 0.16904 0.61874 0.05222 0.0
C2210 C 0.15174 0.64163 0.04976 0.0
C2211 C 0.17474 0.68224 0.04867 0.0
C2212 C 0.21495 0.69938 0.05 0.0
C2213 C 0.23231 0.67753 0.05248 0.0
C2214 C 0.2762 0.70268 0.05313 0.0
C2215 C 0.29098 0.70168 0.06456 0.0
C2216 C 0.29626 0.69053 0.04456 0.0
C2217 C 0.28087 0.74214 0.0506 0.0
C2218 C 0.24527 0.73974 0.04888 0.0
C2219 C 0.24238 0.7726 0.04649 0.0
C2220 C 0.27681 0.80889 0.04593 0.0
C2221 C 0.31356 0.81192 0.04768 0.0
C2222 C 0.3154 0.77794 0.05 0.0
H2223 H 0.35786 0.55967 0.03739 0.0
H2224 H 0.36093 0.47502 0.05904 0.0
H2225 H 0.28918 0.44234 0.06096 0.0
H2226 H 0.2871 0.57017 0.05167 0.0
H2227 H 0.26402 0.57569 0.03978 0.0
H2228 H 0.31486 0.59007 0.03946 0.0
H2229 H 0.3023 0.5446 0.02302 0.0
H2230 H 0.25132 0.53 0.0233 0.0
H2231 H 0.266 0.49372 0.024 0.0
H2232 H 0.21759 0.42222 0.06154 0.0
H2233 H 0.15264 0.41674 0.06089 0.0
H2234 H 0.19746 0.51441 0.03864 0.0
C2235 C 0.34351 0.53393 0.04243 0.0
C2236 C 0.36499 0.51978 0.04803 0.0
C2237 C 0.34503 0.48628 0.05464 0.0
C2238 C 0.30431 0.46751 0.05576 0.0
C2239 C 0.2841 0.48255 0.05019 0.0
C2240 C 0.3031 0.515 0.04364 0.0
C2241 C 0.2752 0.52682 0.03899 0.0
C2242 C 0.28593 0.56811 0.0427 0.0
C2243 C 0.27362 0.52357 0.02659 0.0
C2244 C 0.23747 0.49624 0.04405 0.0
C2245 C 0.24308 0.47084 0.05045 0.0
C2246 C 0.21279 0.44163 0.05644 0.0
C2247 C 0.17601 0.43875 0.05602 0.0
C2248 C 0.16989 0.4649 0.04964 0.0
C2249 C 0.20096 0.49349 0.04344 0.0
H2250 H 0.18097 0.53581 0.54004 0.0
H2251 H 0.13278 0.50194 0.57233 0.0
H2252 H 0.17948 0.47909 0.57616 0.0
H2253 H 0.20171 0.45612 0.53554 0.0
H2254 H 0.24616 0.48757 0.52836 0.0
H2255 H 0.20601 0.49679 0.52788 0.0
H2256 H 0.25137 0.56714 0.5348 0.0
H2257 H 0.29153 0.55812 0.53536 0.0
H2258 H 0.27775 0.57449 0.54728 0.0
H2259 H 0.23648 0.4665 0.57695 0.0
H2260 H 0.29743 0.46443 0.57453 0.0
H2261 H 0.30665 0.50649 0.54165 0.0
C2262 C 0.17965 0.52296 0.54787 0.0
C2263 C 0.15322 0.52061 0.55589 0.0
C2264 C 0.15268 0.50383 0.56604 0.0
C2265 C 0.17907 0.49078 0.56829 0.0
C2266 C 0.20542 0.49443 0.56025 0.0
C2267 C 0.20558 0.50985 0.55021 0.0
C2268 C 0.23824 0.51308 0.54317 0.0
C2269 C 0.22205 0.48681 0.53315 0.0
C2270 C 0.26637 0.55573 0.53997 0.0
C2271 C 0.2572 0.49803 0.55089 0.0
C2272 C 0.23779 0.48708 0.56068 0.0
C2273 C 0.25155 0.47448 0.56926 0.0
C2274 C 0.28622 0.47347 0.56782 0.0
C2275 C 0.30674 0.48515 0.55789 0.0
C2276 C 0.29151 0.49697 0.54931 0.0
H2277 H 0.44578 0.63777 0.52464 0.0
H2278 H 0.4892 0.63427 0.55661 0.0
H2279 H 0.50992 0.70379 0.55918 0.0
H2280 H 0.52168 0.73958 0.51797 0.0
H2281 H 0.48699 0.74865 0.51102 0.0
H2282 H 0.48057 0.70029 0.51116 0.0
H2283 H 0.41122 0.67336 0.51908 0.0
H2284 H 0.41748 0.72153 0.51905 0.0
H2285 H 0.40501 0.69387 0.53143 0.0
H2286 H 0.51741 0.77048 0.55922 0.0
H2287 H 0.51387 0.83034 0.55644 0.0
H2288 H 0.46708 0.79086 0.52425 0.0
C2289 C 0.46048 0.6518 0.53209 0.0
C2290 C 0.46592 0.63059 0.54043 0.0
C2291 C 0.48491 0.64997 0.55009 0.0
C2292 C 0.49679 0.68946 0.55162 0.0
C2293 C 0.48992 0.7092 0.54335 0.0
C2294 C 0.47263 0.69115 0.53372 0.0
C2295 C 0.46595 0.71796 0.52642 0.0
C2296 C 0.49026 0.72717 0.51603 0.0
C2297 C 0.42234 0.70064 0.52385 0.0
C2298 C 0.48092 0.7535 0.5336 0.0
C2299 C 0.49489 0.74797 0.5433 0.0
C2300 C 0.50727 0.77544 0.55158 0.0
C2301 C 0.50497 0.80924 0.54995 0.0
C2302 C 0.4905 0.81533 0.5401 0.0
C2303 C 0.47899 0.78735 0.53178 0.0
H2304 H 0.31972 0.85928 0.53946 0.0
H2305 H 0.36623 0.847 0.57006 0.0
H2306 H 0.30214 0.79066 0.57461 0.0
H2307 H 0.21764 0.82561 0.54922 0.0
H2308 H 0.19686 0.80028 0.53672 0.0
H2309 H 0.24408 0.84384 0.53673 0.0
H2310 H 0.27346 0.806 0.5273 0.0
H2311 H 0.22659 0.7623 0.52737 0.0
H2312 H 0.26791 0.76231 0.53348 0.0
H2313 H 0.23737 0.73037 0.5746 0.0
H2314 H 0.17487 0.67143 0.57043 0.0
H2315 H 0.16942 0.72228 0.53986 0.0
C2316 C 0.31607 0.84564 0.54729 0.0
C2317 C 0.34794 0.85772 0.55444 0.0
C2318 C 0.3422 0.83839 0.56448 0.0
C2319 C 0.30587 0.80638 0.56714 0.0
C2320 C 0.2755 0.79422 0.55972 0.0
C2321 C 0.28001 0.81348 0.55005 0.0
C2322 C 0.24392 0.79214 0.54303 0.0
C2323 C 0.22447 0.81695 0.54133 0.0
C2324 C 0.25357 0.77997 0.53216 0.0
C2325 C 0.21906 0.75707 0.55009 0.0
C2326 C 0.2377 0.75914 0.55973 0.0
C2327 C 0.22213 0.72877 0.56718 0.0
C2328 C 0.18672 0.6953 0.5647 0.0
C2329 C 0.16717 0.69238 0.55485 0.0
C2330 C 0.18334 0.72399 0.54754 0.0
H2331 H 0.18405 0.51642 0.29843 0.0
H2332 H 0.16708 0.48402 0.2645 0.0
H2333 H 0.14919 0.53447 0.26096 0.0
H2334 H 0.1056 0.54217 0.30055 0.0
H2335 H 0.13455 0.58231 0.30952 0.0
H2336 H 0.13996 0.53976 0.30963 0.0
H2337 H 0.21403 0.58341 0.30613 0.0
H2338 H 0.20886 0.62596 0.30591 0.0
H2339 H 0.23031 0.61521 0.29453 0.0
H2340 H 0.14231 0.59418 0.2607 0.0
H2341 H 0.14494 0.65699 0.26381 0.0
H2342 H 0.1659 0.64989 0.29796 0.0
C2343 C 0.17557 0.51915 0.2903 0.0
C2344 C 0.17686 0.49616 0.28175 0.0
C2345 C 0.16609 0.50112 0.2712 0.0
C2346 C 0.15585 0.52969 0.26911 0.0
C2347 C 0.15616 0.55275 0.27767 0.0
C2348 C 0.16532 0.54747 0.28809 0.0
C2349 C 0.16676 0.5781 0.2957 0.0
C2350 C 0.13481 0.55946 0.30436 0.0
C2351 C 0.2074 0.60208 0.30086 0.0
C2352 C 0.1584 0.60236 0.28787 0.0
C2353 C 0.15195 0.58704 0.27754 0.0
C2354 C 0.1466 0.60604 0.26879 0.0
C2355 C 0.14831 0.6418 0.27064 0.0
C2356 C 0.15539 0.65824 0.28114 0.0
C2357 C 0.15979 0.63779 0.28987 0.0
H2358 H 0.4802 0.70353 0.30072 0.0
H2359 H 0.52316 0.71639 0.26785 0.0
H2360 H 0.47452 0.64734 0.26422 0.0
H2361 H 0.45598 0.60078 0.30463 0.0
H2362 H 0.41318 0.58966 0.31241 0.0
H2363 H 0.45499 0.63807 0.31274 0.0
H2364 H 0.41132 0.66645 0.3069 0.0
H2365 H 0.36955 0.61826 0.30645 0.0
H2366 H 0.38299 0.64903 0.29466 0.0
H2367 H 0.41521 0.57956 0.2636 0.0
H2368 H 0.35249 0.51855 0.26625 0.0
H2369 H 0.34989 0.55111 0.29962 0.0
C2370 C 0.48006 0.69166 0.29282 0.0
C2371 C 0.50544 0.71528 0.28456 0.0
C2372 C 0.50413 0.6987 0.27432 0.0
C2373 C 0.47659 0.65953 0.27219 0.0
C2374 C 0.45107 0.63739 0.28044 0.0
C2375 C 0.453 0.65281 0.2906 0.0
C2376 C 0.42063 0.62414 0.29785 0.0
C2377 C 0.4372 0.61247 0.30747 0.0
C2378 C 0.3946 0.64045 0.30168 0.0
C2379 C 0.39925 0.59059 0.29009 0.0
C2380 C 0.41735 0.5985 0.28011 0.0
C2381 C 0.40119 0.57279 0.27144 0.0
C2382 C 0.3655 0.5383 0.27301 0.0
C2383 C 0.34638 0.52999 0.28316 0.0
C2384 C 0.36395 0.55633 0.2918 0.0
H2385 H 0.47122 0.88087 0.29621 0.0
H2386 H 0.48985 0.84913 0.26407 0.0
H2387 H 0.43054 0.84828 0.25766 0.0
H2388 H 0.37153 0.81985 0.29678 0.0
H2389 H 0.36043 0.85267 0.30397 0.0
H2390 H 0.40718 0.85626 0.30569 0.0
H2391 H 0.44145 0.92892 0.30003 0.0
H2392 H 0.39465 0.92553 0.29829 0.0
H2393 H 0.42914 0.94224 0.2873 0.0
H2394 H 0.36488 0.84148 0.25537 0.0
H2395 H 0.2981 0.83067 0.25735 0.0
H2396 H 0.32298 0.86933 0.2907 0.0
C2397 C 0.46335 0.87464 0.28777 0.0
C2398 C 0.48526 0.86512 0.28065 0.0
C2399 C 0.47362 0.85659 0.26969 0.0
C2400 C 0.44002 0.85617 0.26594 0.0
C2401 C 0.41859 0.86481 0.27322 0.0
C2402 C 0.42994 0.87424 0.28388 0.0
C2403 C 0.40009 0.87929 0.29024 0.0
C2404 C 0.38385 0.85028 0.29972 0.0
C2405 C 0.41737 0.92152 0.2942 0.0
C2406 C 0.36949 0.86974 0.2816 0.0
C2407 C 0.38091 0.86183 0.27181 0.0
C2408 C 0.35596 0.8485 0.26291 0.0
C2409 C 0.3181 0.84238 0.26411 0.0
C2410 C 0.30568 0.84978 0.27411 0.0
C2411 C 0.33209 0.86454 0.28287 0.0
loop_
_geom_bond_atom_site_label_1
_geom_bond_atom_site_label_2
_geom_bond_distance
_geom_bond_site_symmetry_2
_ccdc_geom_bond_type
C0 O1 1.160 . S
C0 O7 1.185 . S
O1 C0 1.160 . S
O2 Zn3 1.899 . S
O2 C10 1.284 . S
Zn3 O2 1.899 . S
Zn3 O4 2.032 . S
Zn3 O7 2.086 . S
Zn3 O12 1.977 . S
O4 Zn3 2.032 . S
O4 C8 1.278 . S
C5 O6 1.203 . S
C5 O12 1.267 . S
O6 C5 1.203 . S
O7 C0 1.185 . S
O7 Zn3 2.086 . S
C8 O4 1.278 . S
C8 O9 1.211 . S
O9 C8 1.211 . S
C10 O2 1.284 . S
C10 O11 1.273 . S
O11 C10 1.273 . S
O12 Zn3 1.977 . S
O12 C5 1.267 . S
C13 O14 1.160 . S
C13 O20 1.185 . S
O14 C13 1.160 . S
O15 Zn16 1.899 . S
O15 C23 1.284 . S
Zn16 O15 1.899 . S
Zn16 O17 2.032 . S
Zn16 O20 2.086 . S
Zn16 O25 1.977 . S
O17 Zn16 2.032 . S
O17 C21 1.278 . S
C18 O19 1.203 . S
C18 O25 1.267 . S
O19 C18 1.203 . S
O20 C13 1.185 . S
O20 Zn16 2.086 . S
C21 O17 1.278 . S
C21 O22 1.211 . S
O22 C21 1.211 . S
C23 O15 1.284 . S
C23 O24 1.273 . S
O24 C23 1.273 . S
O25 Zn16 1.977 . S
O25 C18 1.267 . S
C26 O27 1.160 . S
C26 O33 1.185 . S
O27 C26 1.160 . S
O28 Zn29 1.899 . S
O28 C36 1.284 . S
Zn29 O28 1.899 . S
Zn29 O30 2.032 . S
Zn29 O33 2.086 . S
Zn29 O38 1.977 . S
O30 Zn29 2.032 . S
O30 C34 1.278 . S
C31 O32 1.203 . S
C31 O38 1.267 . S
O32 C31 1.203 . S
O33 C26 1.185 . S
O33 Zn29 2.086 . S
C34 O30 1.278 . S
C34 O35 1.211 . S
O35 C34 1.211 . S
C36 O28 1.284 . S
C36 O37 1.273 . S
O37 C36 1.273 . S
O38 Zn29 1.977 . S
O38 C31 1.267 . S
C39 O40 1.160 . S
C39 O46 1.185 . S
O40 C39 1.160 . S
O41 Zn42 1.899 . S
O41 C49 1.284 . S
Zn42 O41 1.899 . S
Zn42 O43 2.032 . S
Zn42 O46 2.086 . S
Zn42 O51 1.977 . S
O43 Zn42 2.032 . S
O43 C47 1.278 . S
C44 O45 1.203 . S
C44 O51 1.267 . S
O45 C44 1.203 . S
O46 C39 1.185 . S
O46 Zn42 2.086 . S
C47 O43 1.278 . S
C47 O48 1.211 . S
O48 C47 1.211 . S
C49 O41 1.284 . S
C49 O50 1.273 . S
O50 C49 1.273 . S
O51 Zn42 1.977 . S
O51 C44 1.267 . S
C52 O53 1.160 . S
C52 O59 1.185 . S
O53 C52 1.160 . S
O54 Zn55 1.899 . S
O54 C62 1.284 . S
Zn55 O54 1.899 . S
Zn55 O56 2.032 . S
Zn55 O59 2.086 . S
Zn55 O64 1.977 . S
O56 Zn55 2.032 . S
O56 C60 1.278 . S
C57 O58 1.203 . S
C57 O64 1.267 . S
O58 C57 1.203 . S
O59 C52 1.185 . S
O59 Zn55 2.086 . S
C60 O56 1.278 . S
C60 O61 1.211 . S
O61 C60 1.211 . S
C62 O54 1.284 . S
C62 O63 1.273 . S
O63 C62 1.273 . S
O64 Zn55 1.977 . S
O64 C57 1.267 . S
C65 O66 1.160 . S
C65 O72 1.185 . S
O66 C65 1.160 . S
O67 Zn68 1.899 . S
O67 C75 1.284 . S
Zn68 O67 1.899 . S
Zn68 O69 2.032 . S
Zn68 O72 2.086 . S
Zn68 O77 1.977 . S
O69 Zn68 2.032 . S
O69 C73 1.278 . S
C70 O71 1.203 . S
C70 O77 1.267 . S
O71 C70 1.203 . S
O72 C65 1.185 . S
O72 Zn68 2.086 . S
C73 O69 1.278 . S
C73 O74 1.211 . S
O74 C73 1.211 . S
C75 O67 1.284 . S
C75 O76 1.273 . S
O76 C75 1.273 . S
O77 Zn68 1.977 . S
O77 C70 1.267 . S
C78 O79 1.160 . S
C78 O85 1.185 . S
O79 C78 1.160 . S
O80 Zn81 1.899 . S
O80 C88 1.284 . S
Zn81 O80 1.899 . S
Zn81 O82 2.032 . S
Zn81 O85 2.086 . S
Zn81 O90 1.977 . S
O82 Zn81 2.032 . S
O82 C86 1.278 . S
C83 O84 1.203 . S
C83 O90 1.267 . S
O84 C83 1.203 . S
O85 C78 1.185 . S
O85 Zn81 2.086 . S
C86 O82 1.278 . S
C86 O87 1.211 . S
O87 C86 1.211 . S
C88 O80 1.284 . S
C88 O89 1.273 . S
O89 C88 1.273 . S
O90 Zn81 1.977 . S
O90 C83 1.267 . S
C91 O92 1.160 . S
C91 O98 1.185 . S
O92 C91 1.160 . S
O93 Zn94 1.899 . S
O93 C101 1.284 . S
Zn94 O93 1.899 . S
Zn94 O95 2.032 . S
Zn94 O98 2.086 . S
Zn94 O103 1.977 . S
O95 Zn94 2.032 . S
O95 C99 1.278 . S
C96 O97 1.203 . S
C96 O103 1.267 . S
O97 C96 1.203 . S
O98 C91 1.185 . S
O98 Zn94 2.086 . S
C99 O95 1.278 . S
C99 O100 1.211 . S
O100 C99 1.211 . S
C101 O93 1.284 . S
C101 O102 1.273 . S
O102 C101 1.273 . S
O103 Zn94 1.977 . S
O103 C96 1.267 . S
C104 O105 1.160 . S
C104 O111 1.185 . S
O105 C104 1.160 . S
O106 Zn107 1.899 . S
O106 C114 1.284 . S
Zn107 O106 1.899 . S
Zn107 O108 2.032 . S
Zn107 O111 2.086 . S
Zn107 O116 1.977 . S
O108 Zn107 2.032 . S
O108 C112 1.278 . S
C109 O110 1.203 . S
C109 O116 1.267 . S
O110 C109 1.203 . S
O111 C104 1.185 . S
O111 Zn107 2.086 . S
C112 O108 1.278 . S
C112 O113 1.211 . S
O113 C112 1.211 . S
C114 O106 1.284 . S
C114 O115 1.273 . S
O115 C114 1.273 . S
O116 Zn107 1.977 . S
O116 C109 1.267 . S
C117 O118 1.160 . S
C117 O124 1.185 . S
O118 C117 1.160 . S
O119 Zn120 1.899 . S
O119 C127 1.284 . S
Zn120 O119 1.899 . S
Zn120 O121 2.032 . S
Zn120 O124 2.086 . S
Zn120 O129 1.977 . S
O121 Zn120 2.032 . S
O121 C125 1.278 . S
C122 O123 1.203 . S
C122 O129 1.267 . S
O123 C122 1.203 . S
O124 C117 1.185 . S
O124 Zn120 2.086 . S
C125 O121 1.278 . S
C125 O126 1.211 . S
O126 C125 1.211 . S
C127 O119 1.284 . S
C127 O128 1.273 . S
O128 C127 1.273 . S
O129 Zn120 1.977 . S
O129 C122 1.267 . S
C130 O131 1.160 . S
C130 O137 1.185 . S
O131 C130 1.160 . S
O132 Zn133 1.899 . S
O132 C140 1.284 . S
Zn133 O132 1.899 . S
Zn133 O134 2.032 . S
Zn133 O137 2.086 . S
Zn133 O142 1.977 . S
O134 Zn133 2.032 . S
O134 C138 1.278 . S
C135 O136 1.203 . S
C135 O142 1.267 . S
O136 C135 1.203 . S
O137 C130 1.185 . S
O137 Zn133 2.086 . S
C138 O134 1.278 . S
C138 O139 1.211 . S
O139 C138 1.211 . S
C140 O132 1.284 . S
C140 O141 1.273 . S
O141 C140 1.273 . S
O142 Zn133 1.977 . S
O142 C135 1.267 . S
C143 O144 1.160 . S
C143 O150 1.185 . S
O144 C143 1.160 . S
O145 Zn146 1.899 . S
O145 C153 1.284 . S
Zn146 O145 1.899 . S
Zn146 O147 2.032 . S
Zn146 O150 2.086 . S
Zn146 O155 1.977 . S
O147 Zn146 2.032 . S
O147 C151 1.278 . S
C148 O149 1.203 . S
C148 O155 1.267 . S
O149 C148 1.203 . S
O150 C143 1.185 . S
O150 Zn146 2.086 . S
C151 O147 1.278 . S
C151 O152 1.211 . S
O152 C151 1.211 . S
C153 O145 1.284 . S
C153 O154 1.273 . S
O154 C153 1.273 . S
O155 Zn146 1.977 . S
O155 C148 1.267 . S
C156 O157 1.160 . S
C156 O163 1.185 . S
O157 C156 1.160 . S
O158 Zn159 1.899 . S
O158 C166 1.284 . S
Zn159 O158 1.899 . S
Zn159 O160 2.032 . S
Zn159 O163 2.086 . S
Zn159 O168 1.977 . S
O160 Zn159 2.032 . S
O160 C164 1.278 . S
C161 O162 1.203 . S
C161 O168 1.267 . S
O162 C161 1.203 . S
O163 C156 1.185 . S
O163 Zn159 2.086 . S
C164 O160 1.278 . S
C164 O165 1.211 . S
O165 C164 1.211 . S
C166 O158 1.284 . S
C166 O167 1.273 . S
O167 C166 1.273 . S
O168 Zn159 1.977 . S
O168 C161 1.267 . S
C169 O170 1.160 . S
C169 O176 1.185 . S
O170 C169 1.160 . S
O171 Zn172 1.899 . S
O171 C179 1.284 . S
Zn172 O171 1.899 . S
Zn172 O173 2.032 . S
Zn172 O176 2.086 . S
Zn172 O181 1.977 . S
O173 Zn172 2.032 . S
O173 C177 1.278 . S
C174 O175 1.203 . S
C174 O181 1.267 . S
O175 C174 1.203 . S
O176 C169 1.185 . S
O176 Zn172 2.086 . S
C177 O173 1.278 . S
C177 O178 1.211 . S
O178 C177 1.211 . S
C179 O171 1.284 . S
C179 O180 1.273 . S
O180 C179 1.273 . S
O181 Zn172 1.977 . S
O181 C174 1.267 . S
C182 O183 1.160 . S
C182 O189 1.185 . S
O183 C182 1.160 . S
O184 Zn185 1.899 . S
O184 C192 1.284 . S
Zn185 O184 1.899 . S
Zn185 O186 2.032 . S
Zn185 O189 2.086 . S
Zn185 O194 1.977 . S
O186 Zn185 2.032 . S
O186 C190 1.278 . S
C187 O188 1.203 . S
C187 O194 1.267 . S
O188 C187 1.203 . S
O189 C182 1.185 . S
O189 Zn185 2.086 . S
C190 O186 1.278 . S
C190 O191 1.211 . S
O191 C190 1.211 . S
C192 O184 1.284 . S
C192 O193 1.273 . S
O193 C192 1.273 . S
O194 Zn185 1.977 . S
O194 C187 1.267 . S
C195 O196 1.160 . S
C195 O202 1.185 . S
O196 C195 1.160 . S
O197 Zn198 1.899 . S
O197 C205 1.284 . S
Zn198 O197 1.899 . S
Zn198 O199 2.032 . S
Zn198 O202 2.086 . S
Zn198 O207 1.977 . S
O199 Zn198 2.032 . S
O199 C203 1.278 . S
C200 O201 1.203 . S
C200 O207 1.267 . S
O201 C200 1.203 . S
O202 C195 1.185 . S
O202 Zn198 2.086 . S
C203 O199 1.278 . S
C203 O204 1.211 . S
O204 C203 1.211 . S
C205 O197 1.284 . S
C205 O206 1.273 . S
O206 C205 1.273 . S
O207 Zn198 1.977 . S
O207 C200 1.267 . S
C208 O209 1.160 . S
C208 O215 1.185 . S
O209 C208 1.160 . S
O210 Zn211 1.899 . S
O210 C218 1.284 . S
Zn211 O210 1.899 . S
Zn211 O212 2.032 . S
Zn211 O215 2.086 . S
Zn211 O220 1.977 . S
O212 Zn211 2.032 . S
O212 C216 1.278 . S
C213 O214 1.203 . S
C213 O220 1.267 . S
O214 C213 1.203 . S
O215 C208 1.185 . S
O215 Zn211 2.086 . S
C216 O212 1.278 . S
C216 O217 1.211 . S
O217 C216 1.211 . S
C218 O210 1.284 . S
C218 O219 1.273 . S
O219 C218 1.273 . S
O220 Zn211 1.977 . S
O220 C213 1.267 . S
C221 O222 1.160 . S
C221 O228 1.185 . S
O222 C221 1.160 . S
O223 Zn224 1.899 . S
O223 C231 1.284 . S
Zn224 O223 1.899 . S
Zn224 O225 2.032 . S
Zn224 O228 2.086 . S
Zn224 O233 1.977 . S
O225 Zn224 2.032 . S
O225 C229 1.278 . S
C226 O227 1.203 . S
C226 O233 1.267 . S
O227 C226 1.203 . S
O228 C221 1.185 . S
O228 Zn224 2.086 . S
C229 O225 1.278 . S
C229 O230 1.211 . S
O230 C229 1.211 . S
C231 O223 1.284 . S
C231 O232 1.273 . S
O232 C231 1.273 . S
O233 Zn224 1.977 . S
O233 C226 1.267 . S
C234 O235 1.160 . S
C234 O241 1.185 . S
O235 C234 1.160 . S
O236 Zn237 1.899 . S
O236 C244 1.284 . S
Zn237 O236 1.899 . S
Zn237 O238 2.032 . S
Zn237 O241 2.086 . S
Zn237 O246 1.977 . S
O238 Zn237 2.032 . S
O238 C242 1.278 . S
C239 O240 1.203 . S
C239 O246 1.267 . S
O240 C239 1.203 . S
O241 C234 1.185 . S
O241 Zn237 2.086 . S
C242 O238 1.278 . S
C242 O243 1.211 . S
O243 C242 1.211 . S
C244 O236 1.284 . S
C244 O245 1.273 . S
O245 C244 1.273 . S
O246 Zn237 1.977 . S
O246 C239 1.267 . S
C247 O248 1.160 . S
C247 O254 1.185 . S
O248 C247 1.160 . S
O249 Zn250 1.899 . S
O249 C257 1.284 . S
Zn250 O249 1.899 . S
Zn250 O251 2.032 . S
Zn250 O254 2.086 . S
Zn250 O259 1.977 . S
O251 Zn250 2.032 . S
O251 C255 1.278 . S
C252 O253 1.203 . S
C252 O259 1.267 . S
O253 C252 1.203 . S
O254 C247 1.185 . S
O254 Zn250 2.086 . S
C255 O251 1.278 . S
C255 O256 1.211 . S
O256 C255 1.211 . S
C257 O249 1.284 . S
C257 O258 1.273 . S
O258 C257 1.273 . S
O259 Zn250 1.977 . S
O259 C252 1.267 . S
C260 O261 1.160 . S
C260 O267 1.185 . S
O261 C260 1.160 . S
O262 Zn263 1.899 . S
O262 C270 1.284 . S
Zn263 O262 1.899 . S
Zn263 O264 2.032 . S
Zn263 O267 2.086 . S
Zn263 O272 1.977 . S
O264 Zn263 2.032 . S
O264 C268 1.278 . S
C265 O266 1.203 . S
C265 O272 1.267 . S
O266 C265 1.203 . S
O267 C260 1.185 . S
O267 Zn263 2.086 . S
C268 O264 1.278 . S
C268 O269 1.211 . S
O269 C268 1.211 . S
C270 O262 1.284 . S
C270 O271 1.273 . S
O271 C270 1.273 . S
O272 Zn263 1.977 . S
O272 C265 1.267 . S
C273 O274 1.160 . S
C273 O280 1.185 . S
O274 C273 1.160 . S
O275 Zn276 1.899 . S
O275 C283 1.284 . S
Zn276 O275 1.899 . S
Zn276 O277 2.032 . S
Zn276 O280 2.086 . S
Zn276 O285 1.977 . S
O277 Zn276 2.032 . S
O277 C281 1.278 . S
C278 O279 1.203 . S
C278 O285 1.267 . S
O279 C278 1.203 . S
O280 C273 1.185 . S
O280 Zn276 2.086 . S
C281 O277 1.278 . S
C281 O282 1.211 . S
O282 C281 1.211 . S
C283 O275 1.284 . S
C283 O284 1.273 . S
O284 C283 1.273 . S
O285 Zn276 1.977 . S
O285 C278 1.267 . S
C286 O287 1.160 . S
C286 O293 1.185 . S
O287 C286 1.160 . S
O288 Zn289 1.899 . S
O288 C296 1.284 . S
Zn289 O288 1.899 . S
Zn289 O290 2.032 . S
Zn289 O293 2.086 . S
Zn289 O298 1.977 . S
O290 Zn289 2.032 . S
O290 C294 1.278 . S
C291 O292 1.203 . S
C291 O298 1.267 . S
O292 C291 1.203 . S
O293 C286 1.185 . S
O293 Zn289 2.086 . S
C294 O290 1.278 . S
C294 O295 1.211 . S
O295 C294 1.211 . S
C296 O288 1.284 . S
C296 O297 1.273 . S
O297 C296 1.273 . S
O298 Zn289 1.977 . S
O298 C291 1.267 . S
C299 O300 1.160 . S
C299 O306 1.185 . S
O300 C299 1.160 . S
O301 Zn302 1.899 . S
O301 C309 1.284 . S
Zn302 O301 1.899 . S
Zn302 O303 2.032 . S
Zn302 O306 2.086 . S
Zn302 O311 1.977 . S
O303 Zn302 2.032 . S
O303 C307 1.278 . S
C304 O305 1.203 . S
C304 O311 1.267 . S
O305 C304 1.203 . S
O306 C299 1.185 . S
O306 Zn302 2.086 . S
C307 O303 1.278 . S
C307 O308 1.211 . S
O308 C307 1.211 . S
C309 O301 1.284 . S
C309 O310 1.273 . S
O310 C309 1.273 . S
O311 Zn302 1.977 . S
O311 C304 1.267 . S
C312 O313 1.160 . S
C312 O319 1.185 . S
O313 C312 1.160 . S
O314 Zn315 1.899 . S
O314 C322 1.284 . S
Zn315 O314 1.899 . S
Zn315 O316 2.032 . S
Zn315 O319 2.086 . S
Zn315 O324 1.977 . S
O316 Zn315 2.032 . S
O316 C320 1.278 . S
C317 O318 1.203 . S
C317 O324 1.267 . S
O318 C317 1.203 . S
O319 C312 1.185 . S
O319 Zn315 2.086 . S
C320 O316 1.278 . S
C320 O321 1.211 . S
O321 C320 1.211 . S
C322 O314 1.284 . S
C322 O323 1.273 . S
O323 C322 1.273 . S
O324 Zn315 1.977 . S
O324 C317 1.267 . S
C325 O326 1.160 . S
C325 O332 1.185 . S
O326 C325 1.160 . S
O327 Zn328 1.899 . S
O327 C335 1.284 . S
Zn328 O327 1.899 . S
Zn328 O329 2.032 . S
Zn328 O332 2.086 . S
Zn328 O337 1.977 . S
O329 Zn328 2.032 . S
O329 C333 1.278 . S
C330 O331 1.203 . S
C330 O337 1.267 . S
O331 C330 1.203 . S
O332 C325 1.185 . S
O332 Zn328 2.086 . S
C333 O329 1.278 . S
C333 O334 1.211 . S
O334 C333 1.211 . S
C335 O327 1.284 . S
C335 O336 1.273 . S
O336 C335 1.273 . S
O337 Zn328 1.977 . S
O337 C330 1.267 . S
C338 O339 1.160 . S
C338 O345 1.185 . S
O339 C338 1.160 . S
O340 Zn341 1.899 . S
O340 C348 1.284 . S
Zn341 O340 1.899 . S
Zn341 O342 2.032 . S
Zn341 O345 2.086 . S
Zn341 O350 1.977 . S
O342 Zn341 2.032 . S
O342 C346 1.278 . S
C343 O344 1.203 . S
C343 O350 1.267 . S
O344 C343 1.203 . S
O345 C338 1.185 . S
O345 Zn341 2.086 . S
C346 O342 1.278 . S
C346 O347 1.211 . S
O347 C346 1.211 . S
C348 O340 1.284 . S
C348 O349 1.273 . S
O349 C348 1.273 . S
O350 Zn341 1.977 . S
O350 C343 1.267 . S
C351 O352 1.160 . S
C351 O358 1.185 . S
O352 C351 1.160 . S
O353 Zn354 1.899 . S
O353 C361 1.284 . S
Zn354 O353 1.899 . S
Zn354 O355 2.032 . S
Zn354 O358 2.086 . S
Zn354 O363 1.977 . S
O355 Zn354 2.032 . S
O355 C359 1.278 . S
C356 O357 1.203 . S
C356 O363 1.267 . S
O357 C356 1.203 . S
O358 C351 1.185 . S
O358 Zn354 2.086 . S
C359 O355 1.278 . S
C359 O360 1.211 . S
O360 C359 1.211 . S
C361 O353 1.284 . S
C361 O362 1.273 . S
O362 C361 1.273 . S
O363 Zn354 1.977 . S
O363 C356 1.267 . S
C364 O365 1.160 . S
C364 O371 1.185 . S
O365 C364 1.160 . S
O366 Zn367 1.899 . S
O366 C374 1.284 . S
Zn367 O366 1.899 . S
Zn367 O368 2.032 . S
Zn367 O371 2.086 . S
Zn367 O376 1.977 . S
O368 Zn367 2.032 . S
O368 C372 1.278 . S
C369 O370 1.203 . S
C369 O376 1.267 . S
O370 C369 1.203 . S
O371 C364 1.185 . S
O371 Zn367 2.086 . S
C372 O368 1.278 . S
C372 O373 1.211 . S
O373 C372 1.211 . S
C374 O366 1.284 . S
C374 O375 1.273 . S
O375 C374 1.273 . S
O376 Zn367 1.977 . S
O376 C369 1.267 . S
C377 O378 1.160 . S
C377 O384 1.185 . S
O378 C377 1.160 . S
O379 Zn380 1.899 . S
O379 C387 1.284 . S
Zn380 O379 1.899 . S
Zn380 O381 2.032 . S
Zn380 O384 2.086 . S
Zn380 O389 1.977 . S
O381 Zn380 2.032 . S
O381 C385 1.278 . S
C382 O383 1.203 . S
C382 O389 1.267 . S
O383 C382 1.203 . S
O384 C377 1.185 . S
O384 Zn380 2.086 . S
C385 O381 1.278 . S
C385 O386 1.211 . S
O386 C385 1.211 . S
C387 O379 1.284 . S
C387 O388 1.273 . S
O388 C387 1.273 . S
O389 Zn380 1.977 . S
O389 C382 1.267 . S
C390 O391 1.160 . S
C390 O397 1.185 . S
O391 C390 1.160 . S
O392 Zn393 1.899 . S
O392 C400 1.284 . S
Zn393 O392 1.899 . S
Zn393 O394 2.032 . S
Zn393 O397 2.086 . S
Zn393 O402 1.977 . S
O394 Zn393 2.032 . S
O394 C398 1.278 . S
C395 O396 1.203 . S
C395 O402 1.267 . S
O396 C395 1.203 . S
O397 C390 1.185 . S
O397 Zn393 2.086 . S
C398 O394 1.278 . S
C398 O399 1.211 . S
O399 C398 1.211 . S
C400 O392 1.284 . S
C400 O401 1.273 . S
O401 C400 1.273 . S
O402 Zn393 1.977 . S
O402 C395 1.267 . S
C403 O404 1.160 . S
C403 O410 1.185 . S
O404 C403 1.160 . S
O405 Zn406 1.899 . S
O405 C413 1.284 . S
Zn406 O405 1.899 . S
Zn406 O407 2.032 . S
Zn406 O410 2.086 . S
Zn406 O415 1.977 . S
O407 Zn406 2.032 . S
O407 C411 1.278 . S
C408 O409 1.203 . S
C408 O415 1.267 . S
O409 C408 1.203 . S
O410 C403 1.185 . S
O410 Zn406 2.086 . S
C411 O407 1.278 . S
C411 O412 1.211 . S
O412 C411 1.211 . S
C413 O405 1.284 . S
C413 O414 1.273 . S
O414 C413 1.273 . S
O415 Zn406 1.977 . S
O415 C408 1.267 . S
C416 O417 1.160 . S
C416 O423 1.185 . S
O417 C416 1.160 . S
O418 Zn419 1.899 . S
O418 C426 1.284 . S
Zn419 O418 1.899 . S
Zn419 O420 2.032 . S
Zn419 O423 2.086 . S
Zn419 O428 1.977 . S
O420 Zn419 2.032 . S
O420 C424 1.278 . S
C421 O422 1.203 . S
C421 O428 1.267 . S
O422 C421 1.203 . S
O423 C416 1.185 . S
O423 Zn419 2.086 . S
C424 O420 1.278 . S
C424 O425 1.211 . S
O425 C424 1.211 . S
C426 O418 1.284 . S
C426 O427 1.273 . S
O427 C426 1.273 . S
O428 Zn419 1.977 . S
O428 C421 1.267 . S
C429 O430 1.160 . S
C429 O436 1.185 . S
O430 C429 1.160 . S
O431 Zn432 1.899 . S
O431 C439 1.284 . S
Zn432 O431 1.899 . S
Zn432 O433 2.032 . S
Zn432 O436 2.086 . S
Zn432 O441 1.977 . S
O433 Zn432 2.032 . S
O433 C437 1.278 . S
C434 O435 1.203 . S
C434 O441 1.267 . S
O435 C434 1.203 . S
O436 C429 1.185 . S
O436 Zn432 2.086 . S
C437 O433 1.278 . S
C437 O438 1.211 . S
O438 C437 1.211 . S
C439 O431 1.284 . S
C439 O440 1.273 . S
O440 C439 1.273 . S
O441 Zn432 1.977 . S
O441 C434 1.267 . S
C442 O443 1.160 . S
C442 O449 1.185 . S
O443 C442 1.160 . S
O444 Zn445 1.899 . S
O444 C452 1.284 . S
Zn445 O444 1.899 . S
Zn445 O446 2.032 . S
Zn445 O449 2.086 . S
Zn445 O454 1.977 . S
O446 Zn445 2.032 . S
O446 C450 1.278 . S
C447 O448 1.203 . S
C447 O454 1.267 . S
O448 C447 1.203 . S
O449 C442 1.185 . S
O449 Zn445 2.086 . S
C450 O446 1.278 . S
C450 O451 1.211 . S
O451 C450 1.211 . S
C452 O444 1.284 . S
C452 O453 1.273 . S
O453 C452 1.273 . S
O454 Zn445 1.977 . S
O454 C447 1.267 . S
C455 O456 1.160 . S
C455 O462 1.185 . S
O456 C455 1.160 . S
O457 Zn458 1.899 . S
O457 C465 1.284 . S
Zn458 O457 1.899 . S
Zn458 O459 2.032 . S
Zn458 O462 2.086 . S
Zn458 O467 1.977 . S
O459 Zn458 2.032 . S
O459 C463 1.278 . S
C460 O461 1.203 . S
C460 O467 1.267 . S
O461 C460 1.203 . S
O462 C455 1.185 . S
O462 Zn458 2.086 . S
C463 O459 1.278 . S
C463 O464 1.211 . S
O464 C463 1.211 . S
C465 O457 1.284 . S
C465 O466 1.273 . S
O466 C465 1.273 . S
O467 Zn458 1.977 . S
O467 C460 1.267 . S
H468 C480 0.930 . S
H469 C482 0.930 . S
H470 C483 0.930 . S
H471 C487 0.959 . S
H472 C487 0.959 . S
H473 C487 0.961 . S
H474 C488 0.960 . S
H475 C488 0.961 . S
H476 C488 0.959 . S
H477 C491 0.929 . S
H478 C492 0.931 . S
H479 C494 0.930 . S
C480 H468 0.930 . S
C480 C481 1.399 . S
C480 C485 1.399 . S
C481 C480 1.399 . S
C481 C482 1.376 . S
C482 H469 0.930 . S
C482 C481 1.376 . S
C482 C483 1.388 . S
C483 H470 0.930 . S
C483 C482 1.388 . S
C483 C484 1.390 . S
C484 C483 1.390 . S
C484 C485 1.394 . S
C484 C490 1.465 . S
C485 C480 1.399 . S
C485 C484 1.394 . S
C485 C486 1.516 . S
C486 C485 1.516 . S
C486 C487 1.502 . S
C486 C488 1.561 . S
C486 C489 1.526 . S
C487 H471 0.959 . S
C487 H472 0.959 . S
C487 H473 0.961 . S
C487 C486 1.502 . S
C488 H474 0.960 . S
C488 H475 0.961 . S
C488 H476 0.959 . S
C488 C486 1.561 . S
C489 C486 1.526 . S
C489 C490 1.396 . S
C489 C494 1.390 . S
C490 C484 1.465 . S
C490 C489 1.396 . S
C490 C491 1.399 . S
C491 H477 0.929 . S
C491 C490 1.399 . S
C491 C492 1.385 . S
C492 H478 0.931 . S
C492 C491 1.385 . S
C492 C493 1.389 . S
C493 C492 1.389 . S
C493 C494 1.387 . S
C494 H479 0.930 . S
C494 C489 1.390 . S
C494 C493 1.387 . S
H495 C507 0.930 . S
H496 C509 0.930 . S
H497 C510 0.930 . S
H498 C514 0.959 . S
H499 C514 0.959 . S
H500 C514 0.961 . S
H501 C515 0.960 . S
H502 C515 0.961 . S
H503 C515 0.959 . S
H504 C518 0.929 . S
H505 C519 0.931 . S
H506 C521 0.930 . S
C507 H495 0.930 . S
C507 C508 1.399 . S
C507 C512 1.399 . S
C508 C507 1.399 . S
C508 C509 1.376 . S
C509 H496 0.930 . S
C509 C508 1.376 . S
C509 C510 1.388 . S
C510 H497 0.930 . S
C510 C509 1.388 . S
C510 C511 1.390 . S
C511 C510 1.390 . S
C511 C512 1.394 . S
C511 C517 1.465 . S
C512 C507 1.399 . S
C512 C511 1.394 . S
C512 C513 1.516 . S
C513 C512 1.516 . S
C513 C514 1.502 . S
C513 C515 1.561 . S
C513 C516 1.526 . S
C514 H498 0.959 . S
C514 H499 0.959 . S
C514 H500 0.961 . S
C514 C513 1.502 . S
C515 H501 0.960 . S
C515 H502 0.961 . S
C515 H503 0.959 . S
C515 C513 1.561 . S
C516 C513 1.526 . S
C516 C517 1.396 . S
C516 C521 1.390 . S
C517 C511 1.465 . S
C517 C516 1.396 . S
C517 C518 1.399 . S
C518 H504 0.929 . S
C518 C517 1.399 . S
C518 C519 1.385 . S
C519 H505 0.931 . S
C519 C518 1.385 . S
C519 C520 1.389 . S
C520 C519 1.389 . S
C520 C521 1.387 . S
C521 H506 0.930 . S
C521 C516 1.390 . S
C521 C520 1.387 . S
H522 C534 0.930 . S
H523 C536 0.930 . S
H524 C537 0.930 . S
H525 C541 0.959 . S
H526 C541 0.959 . S
H527 C541 0.961 . S
H528 C542 0.960 . S
H529 C542 0.961 . S
H530 C542 0.959 . S
H531 C545 0.929 . S
H532 C546 0.931 . S
H533 C548 0.930 . S
C534 H522 0.930 . S
C534 C535 1.399 . S
C534 C539 1.399 . S
C535 C534 1.399 . S
C535 C536 1.376 . S
C536 H523 0.930 . S
C536 C535 1.376 . S
C536 C537 1.388 . S
C537 H524 0.930 . S
C537 C536 1.388 . S
C537 C538 1.390 . S
C538 C537 1.390 . S
C538 C539 1.394 . S
C538 C544 1.465 . S
C539 C534 1.399 . S
C539 C538 1.394 . S
C539 C540 1.516 . S
C540 C539 1.516 . S
C540 C541 1.502 . S
C540 C542 1.561 . S
C540 C543 1.526 . S
C541 H525 0.959 . S
C541 H526 0.959 . S
C541 H527 0.961 . S
C541 C540 1.502 . S
C542 H528 0.960 . S
C542 H529 0.961 . S
C542 H530 0.959 . S
C542 C540 1.561 . S
C543 C540 1.526 . S
C543 C544 1.396 . S
C543 C548 1.390 . S
C544 C538 1.465 . S
C544 C543 1.396 . S
C544 C545 1.399 . S
C545 H531 0.929 . S
C545 C544 1.399 . S
C545 C546 1.385 . S
C546 H532 0.931 . S
C546 C545 1.385 . S
C546 C547 1.389 . S
C547 C546 1.389 . S
C547 C548 1.387 . S
C548 H533 0.930 . S
C548 C543 1.390 . S
C548 C547 1.387 . S
H549 C561 0.930 . S
H550 C563 0.930 . S
H551 C564 0.930 . S
H552 C568 0.959 . S
H553 C568 0.959 . S
H554 C568 0.961 . S
H555 C569 0.960 . S
H556 C569 0.961 . S
H557 C569 0.959 . S
H558 C572 0.929 . S
H559 C573 0.931 . S
H560 C575 0.930 . S
C561 H549 0.930 . S
C561 C562 1.399 . S
C561 C566 1.399 . S
C562 C561 1.399 . S
C562 C563 1.376 . S
C563 H550 0.930 . S
C563 C562 1.376 . S
C563 C564 1.388 . S
C564 H551 0.930 . S
C564 C563 1.388 . S
C564 C565 1.390 . S
C565 C564 1.390 . S
C565 C566 1.394 . S
C565 C571 1.465 . S
C566 C561 1.399 . S
C566 C565 1.394 . S
C566 C567 1.516 . S
C567 C566 1.516 . S
C567 C568 1.502 . S
C567 C569 1.561 . S
C567 C570 1.526 . S
C568 H552 0.959 . S
C568 H553 0.959 . S
C568 H554 0.961 . S
C568 C567 1.502 . S
C569 H555 0.960 . S
C569 H556 0.961 . S
C569 H557 0.959 . S
C569 C567 1.561 . S
C570 C567 1.526 . S
C570 C571 1.396 . S
C570 C575 1.390 . S
C571 C565 1.465 . S
C571 C570 1.396 . S
C571 C572 1.399 . S
C572 H558 0.929 . S
C572 C571 1.399 . S
C572 C573 1.385 . S
C573 H559 0.931 . S
C573 C572 1.385 . S
C573 C574 1.389 . S
C574 C573 1.389 . S
C574 C575 1.387 . S
C575 H560 0.930 . S
C575 C570 1.390 . S
C575 C574 1.387 . S
H576 C588 0.930 . S
H577 C590 0.930 . S
H578 C591 0.930 . S
H579 C595 0.959 . S
H580 C595 0.959 . S
H581 C595 0.961 . S
H582 C596 0.960 . S
H583 C596 0.961 . S
H584 C596 0.959 . S
H585 C599 0.929 . S
H586 C600 0.931 . S
H587 C602 0.930 . S
C588 H576 0.930 . S
C588 C589 1.399 . S
C588 C593 1.399 . S
C589 C588 1.399 . S
C589 C590 1.376 . S
C590 H577 0.930 . S
C590 C589 1.376 . S
C590 C591 1.388 . S
C591 H578 0.930 . S
C591 C590 1.388 . S
C591 C592 1.390 . S
C592 C591 1.390 . S
C592 C593 1.394 . S
C592 C598 1.465 . S
C593 C588 1.399 . S
C593 C592 1.394 . S
C593 C594 1.516 . S
C594 C593 1.516 . S
C594 C595 1.502 . S
C594 C596 1.561 . S
C594 C597 1.526 . S
C595 H579 0.959 . S
C595 H580 0.959 . S
C595 H581 0.961 . S
C595 C594 1.502 . S
C596 H582 0.960 . S
C596 H583 0.961 . S
C596 H584 0.959 . S
C596 C594 1.561 . S
C597 C594 1.526 . S
C597 C598 1.396 . S
C597 C602 1.390 . S
C598 C592 1.465 . S
C598 C597 1.396 . S
C598 C599 1.399 . S
C599 H585 0.929 . S
C599 C598 1.399 . S
C599 C600 1.385 . S
C600 H586 0.931 . S
C600 C599 1.385 . S
C600 C601 1.389 . S
C601 C600 1.389 . S
C601 C602 1.387 . S
C602 H587 0.930 . S
C602 C597 1.390 . S
C602 C601 1.387 . S
H603 C615 0.930 . S
H604 C617 0.930 . S
H605 C618 0.930 . S
H606 C622 0.959 . S
H607 C622 0.959 . S
H608 C622 0.961 . S
H609 C623 0.960 . S
H610 C623 0.961 . S
H611 C623 0.959 . S
H612 C626 0.929 . S
H613 C627 0.931 . S
H614 C629 0.930 . S
C615 H603 0.930 . S
C615 C616 1.399 . S
C615 C620 1.399 . S
C616 C615 1.399 . S
C616 C617 1.376 . S
C617 H604 0.930 . S
C617 C616 1.376 . S
C617 C618 1.388 . S
C618 H605 0.930 . S
C618 C617 1.388 . S
C618 C619 1.390 . S
C619 C618 1.390 . S
C619 C620 1.394 . S
C619 C625 1.465 . S
C620 C615 1.399 . S
C620 C619 1.394 . S
C620 C621 1.516 . S
C621 C620 1.516 . S
C621 C622 1.502 . S
C621 C623 1.561 . S
C621 C624 1.526 . S
C622 H606 0.959 . S
C622 H607 0.959 . S
C622 H608 0.961 . S
C622 C621 1.502 . S
C623 H609 0.960 . S
C623 H610 0.961 . S
C623 H611 0.959 . S
C623 C621 1.561 . S
C624 C621 1.526 . S
C624 C625 1.396 . S
C624 C629 1.390 . S
C625 C619 1.465 . S
C625 C624 1.396 . S
C625 C626 1.399 . S
C626 H612 0.929 . S
C626 C625 1.399 . S
C626 C627 1.385 . S
C627 H613 0.931 . S
C627 C626 1.385 . S
C627 C628 1.389 . S
C628 C627 1.389 . S
C628 C629 1.387 . S
C629 H614 0.930 . S
C629 C624 1.390 . S
C629 C628 1.387 . S
H630 C642 0.930 . S
H631 C644 0.930 . S
H632 C645 0.930 . S
H633 C649 0.959 . S
H634 C649 0.959 . S
H635 C649 0.961 . S
H636 C650 0.960 . S
H637 C650 0.961 . S
H638 C650 0.959 . S
H639 C653 0.929 . S
H640 C654 0.931 . S
H641 C656 0.930 . S
C642 H630 0.930 . S
C642 C643 1.399 . S
C642 C647 1.399 . S
C643 C642 1.399 . S
C643 C644 1.376 . S
C644 H631 0.930 . S
C644 C643 1.376 . S
C644 C645 1.388 . S
C645 H632 0.930 . S
C645 C644 1.388 . S
C645 C646 1.390 . S
C646 C645 1.390 . S
C646 C647 1.394 . S
C646 C652 1.465 . S
C647 C642 1.399 . S
C647 C646 1.394 . S
C647 C648 1.516 . S
C648 C647 1.516 . S
C648 C649 1.502 . S
C648 C650 1.561 . S
C648 C651 1.526 . S
C649 H633 0.959 . S
C649 H634 0.959 . S
C649 H635 0.961 . S
C649 C648 1.502 . S
C650 H636 0.960 . S
C650 H637 0.961 . S
C650 H638 0.959 . S
C650 C648 1.561 . S
C651 C648 1.526 . S
C651 C652 1.396 . S
C651 C656 1.390 . S
C652 C646 1.465 . S
C652 C651 1.396 . S
C652 C653 1.399 . S
C653 H639 0.929 . S
C653 C652 1.399 . S
C653 C654 1.385 . S
C654 H640 0.931 . S
C654 C653 1.385 . S
C654 C655 1.389 . S
C655 C654 1.389 . S
C655 C656 1.387 . S
C656 H641 0.930 . S
C656 C651 1.390 . S
C656 C655 1.387 . S
H657 C669 0.930 . S
H658 C671 0.930 . S
H659 C672 0.930 . S
H660 C676 0.959 . S
H661 C676 0.959 . S
H662 C676 0.961 . S
H663 C677 0.960 . S
H664 C677 0.961 . S
H665 C677 0.959 . S
H666 C680 0.929 . S
H667 C681 0.931 . S
H668 C683 0.930 . S
C669 H657 0.930 . S
C669 C670 1.399 . S
C669 C674 1.399 . S
C670 C669 1.399 . S
C670 C671 1.376 . S
C671 H658 0.930 . S
C671 C670 1.376 . S
C671 C672 1.388 . S
C672 H659 0.930 . S
C672 C671 1.388 . S
C672 C673 1.390 . S
C673 C672 1.390 . S
C673 C674 1.394 . S
C673 C679 1.465 . S
C674 C669 1.399 . S
C674 C673 1.394 . S
C674 C675 1.516 . S
C675 C674 1.516 . S
C675 C676 1.502 . S
C675 C677 1.561 . S
C675 C678 1.526 . S
C676 H660 0.959 . S
C676 H661 0.959 . S
C676 H662 0.961 . S
C676 C675 1.502 . S
C677 H663 0.960 . S
C677 H664 0.961 . S
C677 H665 0.959 . S
C677 C675 1.561 . S
C678 C675 1.526 . S
C678 C679 1.396 . S
C678 C683 1.390 . S
C679 C673 1.465 . S
C679 C678 1.396 . S
C679 C680 1.399 . S
C680 H666 0.929 . S
C680 C679 1.399 . S
C680 C681 1.385 . S
C681 H667 0.931 . S
C681 C680 1.385 . S
C681 C682 1.389 . S
C682 C681 1.389 . S
C682 C683 1.387 . S
C683 H668 0.930 . S
C683 C678 1.390 . S
C683 C682 1.387 . S
H684 C696 0.930 . S
H685 C698 0.930 . S
H686 C699 0.930 . S
H687 C703 0.959 . S
H688 C703 0.959 . S
H689 C703 0.961 . S
H690 C704 0.960 . S
H691 C704 0.961 . S
H692 C704 0.959 . S
H693 C707 0.929 . S
H694 C708 0.931 . S
H695 C710 0.930 . S
C696 H684 0.930 . S
C696 C697 1.399 . S
C696 C701 1.399 . S
C697 C696 1.399 . S
C697 C698 1.376 . S
C698 H685 0.930 . S
C698 C697 1.376 . S
C698 C699 1.388 . S
C699 H686 0.930 . S
C699 C698 1.388 . S
C699 C700 1.390 . S
C700 C699 1.390 . S
C700 C701 1.394 . S
C700 C706 1.465 . S
C701 C696 1.399 . S
C701 C700 1.394 . S
C701 C702 1.516 . S
C702 C701 1.516 . S
C702 C703 1.502 . S
C702 C704 1.561 . S
C702 C705 1.526 . S
C703 H687 0.959 . S
C703 H688 0.959 . S
C703 H689 0.961 . S
C703 C702 1.502 . S
C704 H690 0.960 . S
C704 H691 0.961 . S
C704 H692 0.959 . S
C704 C702 1.561 . S
C705 C702 1.526 . S
C705 C706 1.396 . S
C705 C710 1.390 . S
C706 C700 1.465 . S
C706 C705 1.396 . S
C706 C707 1.399 . S
C707 H693 0.929 . S
C707 C706 1.399 . S
C707 C708 1.385 . S
C708 H694 0.931 . S
C708 C707 1.385 . S
C708 C709 1.389 . S
C709 C708 1.389 . S
C709 C710 1.387 . S
C710 H695 0.930 . S
C710 C705 1.390 . S
C710 C709 1.387 . S
H711 C723 0.930 . S
H712 C725 0.930 . S
H713 C726 0.930 . S
H714 C730 0.959 . S
H715 C730 0.959 . S
H716 C730 0.961 . S
H717 C731 0.960 . S
H718 C731 0.961 . S
H719 C731 0.959 . S
H720 C734 0.929 . S
H721 C735 0.931 . S
H722 C737 0.930 . S
C723 H711 0.930 . S
C723 C724 1.399 . S
C723 C728 1.399 . S
C724 C723 1.399 . S
C724 C725 1.376 . S
C725 H712 0.930 . S
C725 C724 1.376 . S
C725 C726 1.388 . S
C726 H713 0.930 . S
C726 C725 1.388 . S
C726 C727 1.390 . S
C727 C726 1.390 . S
C727 C728 1.394 . S
C727 C733 1.465 . S
C728 C723 1.399 . S
C728 C727 1.394 . S
C728 C729 1.516 . S
C729 C728 1.516 . S
C729 C730 1.502 . S
C729 C731 1.561 . S
C729 C732 1.526 . S
C730 H714 0.959 . S
C730 H715 0.959 . S
C730 H716 0.961 . S
C730 C729 1.502 . S
C731 H717 0.960 . S
C731 H718 0.961 . S
C731 H719 0.959 . S
C731 C729 1.561 . S
C732 C729 1.526 . S
C732 C733 1.396 . S
C732 C737 1.390 . S
C733 C727 1.465 . S
C733 C732 1.396 . S
C733 C734 1.399 . S
C734 H720 0.929 . S
C734 C733 1.399 . S
C734 C735 1.385 . S
C735 H721 0.931 . S
C735 C734 1.385 . S
C735 C736 1.389 . S
C736 C735 1.389 . S
C736 C737 1.387 . S
C737 H722 0.930 . S
C737 C732 1.390 . S
C737 C736 1.387 . S
H738 C750 0.930 . S
H739 C752 0.930 . S
H740 C753 0.930 . S
H741 C757 0.959 . S
H742 C757 0.959 . S
H743 C757 0.961 . S
H744 C758 0.960 . S
H745 C758 0.961 . S
H746 C758 0.959 . S
H747 C761 0.929 . S
H748 C762 0.931 . S
H749 C764 0.930 . S
C750 H738 0.930 . S
C750 C751 1.399 . S
C750 C755 1.399 . S
C751 C750 1.399 . S
C751 C752 1.376 . S
C752 H739 0.930 . S
C752 C751 1.376 . S
C752 C753 1.388 . S
C753 H740 0.930 . S
C753 C752 1.388 . S
C753 C754 1.390 . S
C754 C753 1.390 . S
C754 C755 1.394 . S
C754 C760 1.465 . S
C755 C750 1.399 . S
C755 C754 1.394 . S
C755 C756 1.516 . S
C756 C755 1.516 . S
C756 C757 1.502 . S
C756 C758 1.561 . S
C756 C759 1.526 . S
C757 H741 0.959 . S
C757 H742 0.959 . S
C757 H743 0.961 . S
C757 C756 1.502 . S
C758 H744 0.960 . S
C758 H745 0.961 . S
C758 H746 0.959 . S
C758 C756 1.561 . S
C759 C756 1.526 . S
C759 C760 1.396 . S
C759 C764 1.390 . S
C760 C754 1.465 . S
C760 C759 1.396 . S
C760 C761 1.399 . S
C761 H747 0.929 . S
C761 C760 1.399 . S
C761 C762 1.385 . S
C762 H748 0.931 . S
C762 C761 1.385 . S
C762 C763 1.389 . S
C763 C762 1.389 . S
C763 C764 1.387 . S
C764 H749 0.930 . S
C764 C759 1.390 . S
C764 C763 1.387 . S
H765 C777 0.930 . S
H766 C779 0.930 . S
H767 C780 0.930 . S
H768 C784 0.959 . S
H769 C784 0.959 . S
H770 C784 0.961 . S
H771 C785 0.960 . S
H772 C785 0.961 . S
H773 C785 0.959 . S
H774 C788 0.929 . S
H775 C789 0.931 . S
H776 C791 0.930 . S
C777 H765 0.930 . S
C777 C778 1.399 . S
C777 C782 1.399 . S
C778 C777 1.399 . S
C778 C779 1.376 . S
C779 H766 0.930 . S
C779 C778 1.376 . S
C779 C780 1.388 . S
C780 H767 0.930 . S
C780 C779 1.388 . S
C780 C781 1.390 . S
C781 C780 1.390 . S
C781 C782 1.394 . S
C781 C787 1.465 . S
C782 C777 1.399 . S
C782 C781 1.394 . S
C782 C783 1.516 . S
C783 C782 1.516 . S
C783 C784 1.502 . S
C783 C785 1.561 . S
C783 C786 1.526 . S
C784 H768 0.959 . S
C784 H769 0.959 . S
C784 H770 0.961 . S
C784 C783 1.502 . S
C785 H771 0.960 . S
C785 H772 0.961 . S
C785 H773 0.959 . S
C785 C783 1.561 . S
C786 C783 1.526 . S
C786 C787 1.396 . S
C786 C791 1.390 . S
C787 C781 1.465 . S
C787 C786 1.396 . S
C787 C788 1.399 . S
C788 H774 0.929 . S
C788 C787 1.399 . S
C788 C789 1.385 . S
C789 H775 0.931 . S
C789 C788 1.385 . S
C789 C790 1.389 . S
C790 C789 1.389 . S
C790 C791 1.387 . S
C791 H776 0.930 . S
C791 C786 1.390 . S
C791 C790 1.387 . S
H792 C804 0.930 . S
H793 C806 0.930 . S
H794 C807 0.930 . S
H795 C811 0.959 . S
H796 C811 0.959 . S
H797 C811 0.961 1_455 S
H798 C812 0.960 . S
H799 C812 0.961 . S
H800 C812 0.959 . S
H801 C815 0.929 . S
H802 C816 0.931 . S
H803 C818 0.930 . S
C804 H792 0.930 . S
C804 C805 1.399 . S
C804 C809 1.399 . S
C805 C804 1.399 . S
C805 C806 1.376 . S
C806 H793 0.930 . S
C806 C805 1.376 . S
C806 C807 1.388 . S
C807 H794 0.930 . S
C807 C806 1.388 . S
C807 C808 1.390 . S
C808 C807 1.390 . S
C808 C809 1.394 . S
C808 C814 1.465 1_455 S
C809 C804 1.399 . S
C809 C808 1.394 . S
C809 C810 1.516 . S
C810 C809 1.516 . S
C810 C811 1.502 1_455 S
C810 C812 1.561 . S
C810 C813 1.526 1_455 S
C811 H795 0.959 . S
C811 H796 0.959 . S
C811 H797 0.961 1_655 S
C811 C810 1.502 1_655 S
C812 H798 0.960 . S
C812 H799 0.961 . S
C812 H800 0.959 . S
C812 C810 1.561 . S
C813 C810 1.526 1_655 S
C813 C814 1.396 . S
C813 C818 1.390 . S
C814 C808 1.465 1_655 S
C814 C813 1.396 . S
C814 C815 1.399 . S
C815 H801 0.929 . S
C815 C814 1.399 . S
C815 C816 1.385 . S
C816 H802 0.931 . S
C816 C815 1.385 . S
C816 C817 1.389 . S
C817 C816 1.389 . S
C817 C818 1.387 . S
C818 H803 0.930 . S
C818 C813 1.390 . S
C818 C817 1.387 . S
H819 C831 0.930 . S
H820 C833 0.930 . S
H821 C834 0.930 . S
H822 C838 0.959 . S
H823 C838 0.959 . S
H824 C838 0.961 . S
H825 C839 0.960 . S
H826 C839 0.961 . S
H827 C839 0.959 . S
H828 C842 0.929 . S
H829 C843 0.931 . S
H830 C845 0.930 . S
C831 H819 0.930 . S
C831 C832 1.399 . S
C831 C836 1.399 . S
C832 C831 1.399 . S
C832 C833 1.376 . S
C833 H820 0.930 . S
C833 C832 1.376 . S
C833 C834 1.388 . S
C834 H821 0.930 . S
C834 C833 1.388 . S
C834 C835 1.390 . S
C835 C834 1.390 . S
C835 C836 1.394 . S
C835 C841 1.465 . S
C836 C831 1.399 . S
C836 C835 1.394 . S
C836 C837 1.516 . S
C837 C836 1.516 . S
C837 C838 1.502 . S
C837 C839 1.561 . S
C837 C840 1.526 . S
C838 H822 0.959 . S
C838 H823 0.959 . S
C838 H824 0.961 . S
C838 C837 1.502 . S
C839 H825 0.960 . S
C839 H826 0.961 . S
C839 H827 0.959 . S
C839 C837 1.561 . S
C840 C837 1.526 . S
C840 C841 1.396 . S
C840 C845 1.390 . S
C841 C835 1.465 . S
C841 C840 1.396 . S
C841 C842 1.399 . S
C842 H828 0.929 . S
C842 C841 1.399 . S
C842 C843 1.385 . S
C843 H829 0.931 . S
C843 C842 1.385 . S
C843 C844 1.389 . S
C844 C843 1.389 . S
C844 C845 1.387 . S
C845 H830 0.930 . S
C845 C840 1.390 . S
C845 C844 1.387 . S
H846 C858 0.930 1_565 S
H847 C860 0.930 . S
H848 C861 0.930 . S
H849 C865 0.959 . S
H850 C865 0.959 . S
H851 C865 0.961 . S
H852 C866 0.960 . S
H853 C866 0.961 . S
H854 C866 0.959 . S
H855 C869 0.929 . S
H856 C870 0.931 1_545 S
H857 C872 0.930 . S
C858 H846 0.930 1_545 S
C858 C859 1.399 . S
C858 C863 1.396 1_545 S
C859 C858 1.399 . S
C859 C860 1.376 . S
C860 H847 0.930 . S
C860 C859 1.376 . S
C860 C861 1.388 . S
C861 H848 0.930 . S
C861 C860 1.388 . S
C861 C862 1.390 . S
C862 C861 1.390 . S
C862 C863 1.391 1_545 S
C862 C868 1.465 . S
C863 C858 1.396 1_565 S
C863 C862 1.391 1_565 S
C863 C864 1.522 . S
C864 C863 1.522 . S
C864 C865 1.502 . S
C864 C866 1.561 . S
C864 C867 1.526 . S
C865 H849 0.959 . S
C865 H850 0.959 . S
C865 H851 0.961 . S
C865 C864 1.502 . S
C866 H852 0.960 . S
C866 H853 0.961 . S
C866 H854 0.959 . S
C866 C864 1.561 . S
C867 C864 1.526 . S
C867 C868 1.396 1_565 S
C867 C872 1.390 . S
C868 C862 1.465 . S
C868 C867 1.396 1_545 S
C868 C869 1.399 . S
C869 H855 0.929 . S
C869 C868 1.399 . S
C869 C870 1.385 1_545 S
C870 H856 0.931 1_565 S
C870 C869 1.385 1_565 S
C870 C871 1.389 . S
C871 C870 1.389 . S
C871 C872 1.387 . S
C872 H857 0.930 . S
C872 C867 1.390 . S
C872 C871 1.387 . S
H873 C885 0.930 . S
H874 C887 0.930 . S
H875 C888 0.930 . S
H876 C892 0.959 1_565 S
H877 C892 0.959 . S
H878 C892 0.961 1_554 S
H879 C893 0.960 . S
H880 C893 0.961 . S
H881 C893 0.959 . S
H882 C896 0.929 1_565 S
H883 C897 0.931 . S
H884 C899 0.930 . S
C885 H873 0.930 . S
C885 C886 1.399 . S
C885 C890 1.399 . S
C886 C885 1.399 . S
C886 C887 1.376 . S
C887 H874 0.930 . S
C887 C886 1.376 . S
C887 C888 1.388 . S
C888 H875 0.930 . S
C888 C887 1.388 . S
C888 C889 1.390 . S
C889 C888 1.390 . S
C889 C890 1.394 . S
C889 C895 1.465 1_564 S
C890 C885 1.399 . S
C890 C889 1.394 . S
C890 C891 1.549 1_565 S
C891 C890 1.549 1_545 S
C891 C892 1.483 1_554 S
C891 C893 1.584 . S
C891 C894 1.493 1_554 S
C892 H876 0.959 1_545 S
C892 H877 0.959 . S
C892 H878 0.961 1_556 S
C892 C891 1.483 1_556 S
C893 H879 0.960 . S
C893 H880 0.961 . S
C893 H881 0.959 . S
C893 C891 1.584 . S
C894 C891 1.493 1_556 S
C894 C895 1.396 . S
C894 C899 1.390 . S
C895 C889 1.465 1_546 S
C895 C894 1.396 . S
C895 C896 1.399 . S
C896 H882 0.929 1_545 S
C896 C895 1.399 . S
C896 C897 1.385 . S
C897 H883 0.931 . S
C897 C896 1.385 . S
C897 C898 1.389 . S
C898 C897 1.389 . S
C898 C899 1.387 . S
C899 H884 0.930 . S
C899 C894 1.390 . S
C899 C898 1.387 . S
H900 C912 0.927 1_455 S
H901 C914 0.930 . S
H902 C915 0.930 . S
H903 C919 0.959 . S
H904 C919 0.959 . S
H905 C919 0.961 . S
H906 C920 0.931 1_556 S
H907 C920 0.979 . S
H908 C920 0.981 . S
H909 C923 0.929 . S
H910 C924 0.931 . S
H911 C926 0.930 . S
C912 H900 0.927 1_655 S
C912 C913 1.399 . S
C912 C917 1.399 . S
C913 C912 1.399 . S
C913 C914 1.376 . S
C914 H901 0.930 . S
C914 C913 1.376 . S
C914 C915 1.388 . S
C915 H902 0.930 . S
C915 C914 1.388 . S
C915 C916 1.390 . S
C916 C915 1.390 . S
C916 C917 1.394 . S
C916 C922 1.465 1_556 S
C917 C912 1.399 . S
C917 C916 1.394 . S
C917 C918 1.516 1_655 S
C918 C917 1.516 1_455 S
C918 C919 1.502 . S
C918 C920 1.552 1_556 S
C918 C921 1.526 1_556 S
C919 H903 0.959 . S
C919 H904 0.959 . S
C919 H905 0.961 . S
C919 C918 1.502 . S
C920 H906 0.931 1_554 S
C920 H907 0.979 . S
C920 H908 0.981 . S
C920 C918 1.552 1_554 S
C921 C918 1.526 1_554 S
C921 C922 1.396 1_455 S
C921 C926 1.390 . S
C922 C916 1.465 1_554 S
C922 C921 1.396 1_655 S
C922 C923 1.399 . S
C923 H909 0.929 . S
C923 C922 1.399 . S
C923 C924 1.385 1_655 S
C924 H910 0.931 . S
C924 C923 1.385 1_455 S
C924 C925 1.389 . S
C925 C924 1.389 . S
C925 C926 1.387 . S
C926 H911 0.930 . S
C926 C921 1.390 . S
C926 C925 1.387 . S
H927 C939 0.930 . S
H928 C941 0.930 . S
H929 C942 0.930 . S
H930 C946 0.959 . S
H931 C946 0.959 1_554 S
H932 C946 0.961 . S
H933 C947 0.960 . S
H934 C947 0.961 . S
H935 C947 0.959 . S
H936 C950 0.929 . S
H937 C951 0.931 . S
H938 C953 0.930 . S
C939 H927 0.930 . S
C939 C940 1.399 . S
C939 C944 1.399 . S
C940 C939 1.399 . S
C940 C941 1.376 . S
C941 H928 0.930 . S
C941 C940 1.376 . S
C941 C942 1.388 . S
C942 H929 0.930 . S
C942 C941 1.388 . S
C942 C943 1.390 . S
C943 C942 1.390 . S
C943 C944 1.394 . S
C943 C949 1.465 1_556 S
C944 C939 1.399 . S
C944 C943 1.394 . S
C944 C945 1.516 1_556 S
C945 C944 1.516 1_554 S
C945 C946 1.502 1_554 S
C945 C947 1.561 . S
C945 C948 1.526 . S
C946 H930 0.959 . S
C946 H931 0.959 1_556 S
C946 H932 0.961 . S
C946 C945 1.502 1_556 S
C947 H933 0.960 . S
C947 H934 0.961 . S
C947 H935 0.959 . S
C947 C945 1.561 . S
C948 C945 1.526 . S
C948 C949 1.396 . S
C948 C953 1.390 . S
C949 C943 1.465 1_554 S
C949 C948 1.396 . S
C949 C950 1.399 . S
C950 H936 0.929 . S
C950 C949 1.399 . S
C950 C951 1.385 . S
C951 H937 0.931 . S
C951 C950 1.385 . S
C951 C952 1.389 . S
C952 C951 1.389 . S
C952 C953 1.387 . S
C953 H938 0.930 . S
C953 C948 1.390 . S
C953 C952 1.387 . S
H954 C966 0.930 . S
H955 C968 0.930 . S
H956 C969 0.930 . S
H957 C973 0.959 . S
H958 C973 0.959 . S
H959 C973 0.961 . S
H960 C974 0.960 . S
H961 C974 0.961 . S
H962 C974 0.959 . S
H963 C977 0.929 . S
H964 C978 0.931 . S
H965 C980 0.930 1_545 S
C966 H954 0.930 . S
C966 C967 1.399 . S
C966 C971 1.399 . S
C967 C966 1.399 . S
C967 C968 1.376 . S
C968 H955 0.930 . S
C968 C967 1.376 . S
C968 C969 1.388 1_545 S
C969 H956 0.930 . S
C969 C968 1.388 1_565 S
C969 C970 1.390 1_565 S
C970 C969 1.390 1_545 S
C970 C971 1.394 . S
C970 C976 1.465 1_545 S
C971 C966 1.399 . S
C971 C970 1.394 . S
C971 C972 1.516 . S
C972 C971 1.516 . S
C972 C973 1.502 . S
C972 C974 1.561 . S
C972 C975 1.526 . S
C973 H957 0.959 . S
C973 H958 0.959 . S
C973 H959 0.961 . S
C973 C972 1.502 . S
C974 H960 0.960 . S
C974 H961 0.961 . S
C974 H962 0.959 . S
C974 C972 1.561 . S
C975 C972 1.526 . S
C975 C976 1.396 1_545 S
C975 C980 1.390 1_545 S
C976 C970 1.465 1_565 S
C976 C975 1.396 1_565 S
C976 C977 1.399 . S
C977 H963 0.929 . S
C977 C976 1.399 . S
C977 C978 1.385 . S
C978 H964 0.931 . S
C978 C977 1.385 . S
C978 C979 1.389 . S
C979 C978 1.389 . S
C979 C980 1.387 . S
C980 H965 0.930 1_565 S
C980 C975 1.390 1_565 S
C980 C979 1.387 . S
H981 C993 0.930 . S
H982 C995 0.930 . S
H983 C996 0.930 . S
H984 C1000 0.959 . S
H985 C1000 0.959 . S
H986 C1000 0.961 . S
H987 C1001 0.960 1_455 S
H988 C1001 0.961 . S
H989 C1001 0.959 1_455 S
H990 C1004 0.929 1_455 S
H991 C1005 0.931 . S
H992 C1007 0.930 . S
C993 H981 0.930 . S
C993 C994 1.399 . S
C993 C998 1.399 1_455 S
C994 C993 1.399 . S
C994 C995 1.376 . S
C995 H982 0.930 . S
C995 C994 1.376 . S
C995 C996 1.388 . S
C996 H983 0.930 . S
C996 C995 1.388 . S
C996 C997 1.390 . S
C997 C996 1.390 . S
C997 C998 1.394 1_455 S
C997 C1003 1.465 1_455 S
C998 C993 1.399 1_655 S
C998 C997 1.394 1_655 S
C998 C999 1.516 . S
C999 C998 1.516 . S
C999 C1000 1.502 . S
C999 C1001 1.561 . S
C999 C1002 1.526 . S
C1000 H984 0.959 . S
C1000 H985 0.959 . S
C1000 H986 0.961 . S
C1000 C999 1.502 . S
C1001 H987 0.960 1_655 S
C1001 H988 0.961 . S
C1001 H989 0.959 1_655 S
C1001 C999 1.561 . S
C1002 C999 1.526 . S
C1002 C1003 1.396 . S
C1002 C1007 1.390 . S
C1003 C997 1.465 1_655 S
C1003 C1002 1.396 . S
C1003 C1004 1.399 . S
C1004 H990 0.929 1_655 S
C1004 C1003 1.399 . S
C1004 C1005 1.385 . S
C1005 H991 0.931 . S
C1005 C1004 1.385 . S
C1005 C1006 1.389 . S
C1006 C1005 1.389 . S
C1006 C1007 1.387 . S
C1007 H992 0.930 . S
C1007 C1002 1.390 . S
C1007 C1006 1.387 . S
H1008 C1020 0.930 . S
H1009 C1022 0.930 . S
H1010 C1023 0.930 . S
H1011 C1027 0.959 . S
H1012 C1027 0.959 . S
H1013 C1027 0.961 . S
H1014 C1028 0.960 . S
H1015 C1028 0.961 . S
H1016 C1028 0.959 . S
H1017 C1031 0.929 . S
H1018 C1032 0.931 . S
H1019 C1034 0.930 . S
C1020 H1008 0.930 . S
C1020 C1021 1.399 . S
C1020 C1025 1.399 . S
C1021 C1020 1.399 . S
C1021 C1022 1.376 . S
C1022 H1009 0.930 . S
C1022 C1021 1.376 . S
C1022 C1023 1.388 . S
C1023 H1010 0.930 . S
C1023 C1022 1.388 . S
C1023 C1024 1.390 . S
C1024 C1023 1.390 . S
C1024 C1025 1.394 . S
C1024 C1030 1.465 . S
C1025 C1020 1.399 . S
C1025 C1024 1.394 . S
C1025 C1026 1.516 . S
C1026 C1025 1.516 . S
C1026 C1027 1.502 . S
C1026 C1028 1.561 . S
C1026 C1029 1.526 . S
C1027 H1011 0.959 . S
C1027 H1012 0.959 . S
C1027 H1013 0.961 . S
C1027 C1026 1.502 . S
C1028 H1014 0.960 . S
C1028 H1015 0.961 . S
C1028 H1016 0.959 . S
C1028 C1026 1.561 . S
C1029 C1026 1.526 . S
C1029 C1030 1.396 . S
C1029 C1034 1.390 . S
C1030 C1024 1.465 . S
C1030 C1029 1.396 . S
C1030 C1031 1.399 . S
C1031 H1017 0.929 . S
C1031 C1030 1.399 . S
C1031 C1032 1.385 . S
C1032 H1018 0.931 . S
C1032 C1031 1.385 . S
C1032 C1033 1.389 . S
C1033 C1032 1.389 . S
C1033 C1034 1.387 . S
C1034 H1019 0.930 . S
C1034 C1029 1.390 . S
C1034 C1033 1.387 . S
H1035 C1047 0.930 . S
H1036 C1049 0.930 . S
H1037 C1050 0.930 . S
H1038 C1054 0.959 . S
H1039 C1054 0.959 1_455 S
H1040 C1054 0.961 . S
H1041 C1055 0.960 . S
H1042 C1055 0.961 . S
H1043 C1055 0.959 . S
H1044 C1058 0.929 . S
H1045 C1059 0.931 . S
H1046 C1061 0.930 . S
C1047 H1035 0.930 . S
C1047 C1048 1.399 . S
C1047 C1052 1.401 1_655 S
C1048 C1047 1.399 . S
C1048 C1049 1.376 . S
C1049 H1036 0.930 . S
C1049 C1048 1.376 . S
C1049 C1050 1.388 . S
C1050 H1037 0.930 . S
C1050 C1049 1.388 . S
C1050 C1051 1.390 1_655 S
C1051 C1050 1.390 1_455 S
C1051 C1052 1.393 . S
C1051 C1057 1.465 . S
C1052 C1047 1.401 1_455 S
C1052 C1051 1.393 . S
C1052 C1053 1.515 . S
C1053 C1052 1.515 . S
C1053 C1054 1.502 1_455 S
C1053 C1055 1.561 . S
C1053 C1056 1.526 . S
C1054 H1038 0.959 . S
C1054 H1039 0.959 1_655 S
C1054 H1040 0.961 . S
C1054 C1053 1.502 1_655 S
C1055 H1041 0.960 . S
C1055 H1042 0.961 . S
C1055 H1043 0.959 . S
C1055 C1053 1.561 . S
C1056 C1053 1.526 . S
C1056 C1057 1.396 . S
C1056 C1061 1.390 . S
C1057 C1051 1.465 . S
C1057 C1056 1.396 . S
C1057 C1058 1.399 . S
C1058 H1044 0.929 . S
C1058 C1057 1.399 . S
C1058 C1059 1.385 . S
C1059 H1045 0.931 . S
C1059 C1058 1.385 . S
C1059 C1060 1.389 . S
C1060 C1059 1.389 . S
C1060 C1061 1.387 . S
C1061 H1046 0.930 . S
C1061 C1056 1.390 . S
C1061 C1060 1.387 . S
H1062 C1074 0.930 . S
H1063 C1076 0.930 . S
H1064 C1077 0.930 . S
H1065 C1081 0.959 . S
H1066 C1081 0.959 . S
H1067 C1081 0.961 . S
H1068 C1082 0.960 . S
H1069 C1082 0.961 . S
H1070 C1082 0.959 . S
H1071 C1085 0.929 . S
H1072 C1086 0.931 . S
H1073 C1088 0.930 . S
C1074 H1062 0.930 . S
C1074 C1075 1.399 . S
C1074 C1079 1.399 . S
C1075 C1074 1.399 . S
C1075 C1076 1.376 . S
C1076 H1063 0.930 . S
C1076 C1075 1.376 . S
C1076 C1077 1.388 . S
C1077 H1064 0.930 . S
C1077 C1076 1.388 . S
C1077 C1078 1.390 . S
C1078 C1077 1.390 . S
C1078 C1079 1.394 . S
C1078 C1084 1.465 . S
C1079 C1074 1.399 . S
C1079 C1078 1.394 . S
C1079 C1080 1.516 . S
C1080 C1079 1.516 . S
C1080 C1081 1.502 . S
C1080 C1082 1.561 . S
C1080 C1083 1.526 . S
C1081 H1065 0.959 . S
C1081 H1066 0.959 . S
C1081 H1067 0.961 . S
C1081 C1080 1.502 . S
C1082 H1068 0.960 . S
C1082 H1069 0.961 . S
C1082 H1070 0.959 . S
C1082 C1080 1.561 . S
C1083 C1080 1.526 . S
C1083 C1084 1.396 . S
C1083 C1088 1.390 . S
C1084 C1078 1.465 . S
C1084 C1083 1.396 . S
C1084 C1085 1.399 . S
C1085 H1071 0.929 . S
C1085 C1084 1.399 . S
C1085 C1086 1.385 . S
C1086 H1072 0.931 . S
C1086 C1085 1.385 . S
C1086 C1087 1.389 . S
C1087 C1086 1.389 . S
C1087 C1088 1.387 . S
C1088 H1073 0.930 . S
C1088 C1083 1.390 . S
C1088 C1087 1.387 . S
H1089 C1101 0.932 1_565 S
H1090 C1103 0.930 . S
H1091 C1104 0.930 . S
H1092 C1108 0.959 . S
H1093 C1108 0.959 . S
H1094 C1108 0.961 . S
H1095 C1109 0.960 . S
H1096 C1109 0.961 . S
H1097 C1109 0.959 . S
H1098 C1112 0.929 . S
H1099 C1113 0.931 . S
H1100 C1115 0.930 . S
C1101 H1089 0.932 1_545 S
C1101 C1102 1.398 . S
C1101 C1106 1.399 1_545 S
C1102 C1101 1.398 . S
C1102 C1103 1.376 . S
C1103 H1090 0.930 . S
C1103 C1102 1.376 . S
C1103 C1104 1.388 . S
C1104 H1091 0.930 . S
C1104 C1103 1.388 . S
C1104 C1105 1.390 . S
C1105 C1104 1.390 . S
C1105 C1106 1.394 1_545 S
C1105 C1111 1.465 1_545 S
C1106 C1101 1.399 1_565 S
C1106 C1105 1.394 1_565 S
C1106 C1107 1.516 . S
C1107 C1106 1.516 . S
C1107 C1108 1.502 . S
C1107 C1109 1.561 . S
C1107 C1110 1.526 . S
C1108 H1092 0.959 . S
C1108 H1093 0.959 . S
C1108 H1094 0.961 . S
C1108 C1107 1.502 . S
C1109 H1095 0.960 . S
C1109 H1096 0.961 . S
C1109 H1097 0.959 . S
C1109 C1107 1.561 . S
C1110 C1107 1.526 . S
C1110 C1111 1.396 . S
C1110 C1115 1.390 . S
C1111 C1105 1.465 1_565 S
C1111 C1110 1.396 . S
C1111 C1112 1.399 1_565 S
C1112 H1098 0.929 . S
C1112 C1111 1.399 1_545 S
C1112 C1113 1.385 1_545 S
C1113 H1099 0.931 . S
C1113 C1112 1.385 1_565 S
C1113 C1114 1.389 . S
C1114 C1113 1.389 . S
C1114 C1115 1.387 . S
C1115 H1100 0.930 . S
C1115 C1110 1.390 . S
C1115 C1114 1.387 . S
H1116 C1128 0.930 . S
H1117 C1130 0.930 . S
H1118 C1131 0.930 . S
H1119 C1135 0.959 . S
H1120 C1135 0.959 . S
H1121 C1135 0.961 . S
H1122 C1136 0.960 . S
H1123 C1136 0.961 . S
H1124 C1136 0.959 1_565 S
H1125 C1139 0.929 . S
H1126 C1140 0.931 . S
H1127 C1142 0.930 . S
C1128 H1116 0.930 . S
C1128 C1129 1.399 . S
C1128 C1133 1.399 . S
C1129 C1128 1.399 . S
C1129 C1130 1.376 . S
C1130 H1117 0.930 . S
C1130 C1129 1.376 . S
C1130 C1131 1.388 . S
C1131 H1118 0.930 . S
C1131 C1130 1.388 . S
C1131 C1132 1.390 . S
C1132 C1131 1.390 . S
C1132 C1133 1.394 . S
C1132 C1138 1.465 . S
C1133 C1128 1.399 . S
C1133 C1132 1.394 . S
C1133 C1134 1.516 1_565 S
C1134 C1133 1.516 1_545 S
C1134 C1135 1.502 . S
C1134 C1136 1.561 . S
C1134 C1137 1.526 . S
C1135 H1119 0.959 . S
C1135 H1120 0.959 . S
C1135 H1121 0.961 . S
C1135 C1134 1.502 . S
C1136 H1122 0.960 . S
C1136 H1123 0.961 . S
C1136 H1124 0.959 1_545 S
C1136 C1134 1.561 . S
C1137 C1134 1.526 . S
C1137 C1138 1.396 1_545 S
C1137 C1142 1.390 . S
C1138 C1132 1.465 . S
C1138 C1137 1.396 1_565 S
C1138 C1139 1.399 . S
C1139 H1125 0.929 . S
C1139 C1138 1.399 . S
C1139 C1140 1.385 . S
C1140 H1126 0.931 . S
C1140 C1139 1.385 . S
C1140 C1141 1.389 1_565 S
C1141 C1140 1.389 1_545 S
C1141 C1142 1.387 . S
C1142 H1127 0.930 . S
C1142 C1137 1.390 . S
C1142 C1141 1.387 . S
H1143 C1155 0.930 1_455 S
H1144 C1157 0.930 . S
H1145 C1158 0.930 . S
H1146 C1162 0.959 . S
H1147 C1162 0.959 . S
H1148 C1162 0.961 . S
H1149 C1163 0.960 . S
H1150 C1163 0.961 . S
H1151 C1163 0.959 . S
H1152 C1166 0.929 . S
H1153 C1167 0.931 . S
H1154 C1169 0.930 . S
C1155 H1143 0.930 1_655 S
C1155 C1156 1.399 . S
C1155 C1160 1.399 1_655 S
C1156 C1155 1.399 . S
C1156 C1157 1.376 . S
C1157 H1144 0.930 . S
C1157 C1156 1.376 . S
C1157 C1158 1.388 . S
C1158 H1145 0.930 . S
C1158 C1157 1.388 . S
C1158 C1159 1.390 . S
C1159 C1158 1.390 . S
C1159 C1160 1.394 1_655 S
C1159 C1165 1.465 1_655 S
C1160 C1155 1.399 1_455 S
C1160 C1159 1.394 1_455 S
C1160 C1161 1.516 . S
C1161 C1160 1.516 . S
C1161 C1162 1.502 . S
C1161 C1163 1.561 . S
C1161 C1164 1.526 . S
C1162 H1146 0.959 . S
C1162 H1147 0.959 . S
C1162 H1148 0.961 . S
C1162 C1161 1.502 . S
C1163 H1149 0.960 . S
C1163 H1150 0.961 . S
C1163 H1151 0.959 . S
C1163 C1161 1.561 . S
C1164 C1161 1.526 . S
C1164 C1165 1.396 . S
C1164 C1169 1.390 . S
C1165 C1159 1.465 1_455 S
C1165 C1164 1.396 . S
C1165 C1166 1.399 1_455 S
C1166 H1152 0.929 . S
C1166 C1165 1.399 1_655 S
C1166 C1167 1.385 1_655 S
C1167 H1153 0.931 . S
C1167 C1166 1.385 1_455 S
C1167 C1168 1.389 . S
C1168 C1167 1.389 . S
C1168 C1169 1.387 . S
C1169 H1154 0.930 . S
C1169 C1164 1.390 . S
C1169 C1168 1.387 . S
H1170 C1182 0.930 . S
H1171 C1184 0.930 . S
H1172 C1185 0.930 . S
H1173 C1189 0.959 . S
H1174 C1189 0.959 . S
H1175 C1189 0.961 . S
H1176 C1190 0.960 . S
H1177 C1190 0.961 . S
H1178 C1190 0.959 . S
H1179 C1193 0.929 . S
H1180 C1194 0.931 . S
H1181 C1196 0.930 . S
C1182 H1170 0.930 . S
C1182 C1183 1.399 . S
C1182 C1187 1.399 . S
C1183 C1182 1.399 . S
C1183 C1184 1.376 . S
C1184 H1171 0.930 . S
C1184 C1183 1.376 . S
C1184 C1185 1.388 . S
C1185 H1172 0.930 . S
C1185 C1184 1.388 . S
C1185 C1186 1.390 . S
C1186 C1185 1.390 . S
C1186 C1187 1.394 . S
C1186 C1192 1.465 . S
C1187 C1182 1.399 . S
C1187 C1186 1.394 . S
C1187 C1188 1.516 . S
C1188 C1187 1.516 . S
C1188 C1189 1.502 . S
C1188 C1190 1.561 . S
C1188 C1191 1.526 . S
C1189 H1173 0.959 . S
C1189 H1174 0.959 . S
C1189 H1175 0.961 . S
C1189 C1188 1.502 . S
C1190 H1176 0.960 . S
C1190 H1177 0.961 . S
C1190 H1178 0.959 . S
C1190 C1188 1.561 . S
C1191 C1188 1.526 . S
C1191 C1192 1.396 . S
C1191 C1196 1.390 . S
C1192 C1186 1.465 . S
C1192 C1191 1.396 . S
C1192 C1193 1.399 . S
C1193 H1179 0.929 . S
C1193 C1192 1.399 . S
C1193 C1194 1.385 . S
C1194 H1180 0.931 . S
C1194 C1193 1.385 . S
C1194 C1195 1.389 . S
C1195 C1194 1.389 . S
C1195 C1196 1.387 . S
C1196 H1181 0.930 . S
C1196 C1191 1.390 . S
C1196 C1195 1.387 . S
H1197 C1209 0.930 . S
H1198 C1211 0.930 . S
H1199 C1212 0.930 . S
H1200 C1216 0.959 . S
H1201 C1216 0.959 . S
H1202 C1216 0.961 . S
H1203 C1217 0.960 . S
H1204 C1217 0.961 . S
H1205 C1217 0.959 . S
H1206 C1220 0.929 . S
H1207 C1221 0.931 . S
H1208 C1223 0.930 . S
C1209 H1197 0.930 . S
C1209 C1210 1.399 . S
C1209 C1214 1.399 . S
C1210 C1209 1.399 . S
C1210 C1211 1.376 . S
C1211 H1198 0.930 . S
C1211 C1210 1.376 . S
C1211 C1212 1.388 . S
C1212 H1199 0.930 . S
C1212 C1211 1.388 . S
C1212 C1213 1.390 . S
C1213 C1212 1.390 . S
C1213 C1214 1.394 . S
C1213 C1219 1.465 1_655 S
C1214 C1209 1.399 . S
C1214 C1213 1.394 . S
C1214 C1215 1.516 . S
C1215 C1214 1.516 . S
C1215 C1216 1.502 . S
C1215 C1217 1.561 1_655 S
C1215 C1218 1.526 1_655 S
C1216 H1200 0.959 . S
C1216 H1201 0.959 . S
C1216 H1202 0.961 . S
C1216 C1215 1.502 . S
C1217 H1203 0.960 . S
C1217 H1204 0.961 . S
C1217 H1205 0.959 . S
C1217 C1215 1.561 1_455 S
C1218 C1215 1.526 1_455 S
C1218 C1219 1.396 . S
C1218 C1223 1.390 . S
C1219 C1213 1.465 1_455 S
C1219 C1218 1.396 . S
C1219 C1220 1.399 . S
C1220 H1206 0.929 . S
C1220 C1219 1.399 . S
C1220 C1221 1.385 . S
C1221 H1207 0.931 . S
C1221 C1220 1.385 . S
C1221 C1222 1.389 . S
C1222 C1221 1.389 . S
C1222 C1223 1.387 . S
C1223 H1208 0.930 . S
C1223 C1218 1.390 . S
C1223 C1222 1.387 . S
H1224 C1236 0.930 . S
H1225 C1238 0.930 . S
H1226 C1239 0.930 . S
H1227 C1243 0.959 . S
H1228 C1243 0.959 . S
H1229 C1243 0.961 . S
H1230 C1244 0.960 . S
H1231 C1244 0.961 . S
H1232 C1244 0.959 . S
H1233 C1247 0.929 . S
H1234 C1248 0.931 . S
H1235 C1250 0.930 . S
C1236 H1224 0.930 . S
C1236 C1237 1.399 . S
C1236 C1241 1.399 . S
C1237 C1236 1.399 . S
C1237 C1238 1.376 . S
C1238 H1225 0.930 . S
C1238 C1237 1.376 . S
C1238 C1239 1.388 . S
C1239 H1226 0.930 . S
C1239 C1238 1.388 . S
C1239 C1240 1.390 . S
C1240 C1239 1.390 . S
C1240 C1241 1.394 . S
C1240 C1246 1.465 . S
C1241 C1236 1.399 . S
C1241 C1240 1.394 . S
C1241 C1242 1.516 . S
C1242 C1241 1.516 . S
C1242 C1243 1.502 . S
C1242 C1244 1.561 . S
C1242 C1245 1.526 . S
C1243 H1227 0.959 . S
C1243 H1228 0.959 . S
C1243 H1229 0.961 . S
C1243 C1242 1.502 . S
C1244 H1230 0.960 . S
C1244 H1231 0.961 . S
C1244 H1232 0.959 . S
C1244 C1242 1.561 . S
C1245 C1242 1.526 . S
C1245 C1246 1.396 . S
C1245 C1250 1.390 . S
C1246 C1240 1.465 . S
C1246 C1245 1.396 . S
C1246 C1247 1.399 . S
C1247 H1233 0.929 . S
C1247 C1246 1.399 . S
C1247 C1248 1.385 . S
C1248 H1234 0.931 . S
C1248 C1247 1.385 . S
C1248 C1249 1.389 . S
C1249 C1248 1.389 . S
C1249 C1250 1.387 . S
C1250 H1235 0.930 . S
C1250 C1245 1.390 . S
C1250 C1249 1.387 . S
H1251 C1263 0.930 . S
H1252 C1265 0.930 . S
H1253 C1266 0.930 . S
H1254 C1270 0.959 . S
H1255 C1270 0.959 . S
H1256 C1270 0.961 . S
H1257 C1271 0.960 . S
H1258 C1271 0.961 . S
H1259 C1271 0.959 . S
H1260 C1274 0.929 . S
H1261 C1275 0.931 . S
H1262 C1277 0.930 1_545 S
C1263 H1251 0.930 . S
C1263 C1264 1.399 . S
C1263 C1268 1.399 . S
C1264 C1263 1.399 . S
C1264 C1265 1.376 . S
C1265 H1252 0.930 . S
C1265 C1264 1.376 . S
C1265 C1266 1.388 1_545 S
C1266 H1253 0.930 . S
C1266 C1265 1.388 1_565 S
C1266 C1267 1.390 1_565 S
C1267 C1266 1.390 1_545 S
C1267 C1268 1.394 . S
C1267 C1273 1.465 1_545 S
C1268 C1263 1.399 . S
C1268 C1267 1.394 . S
C1268 C1269 1.516 . S
C1269 C1268 1.516 . S
C1269 C1270 1.502 . S
C1269 C1271 1.561 . S
C1269 C1272 1.526 . S
C1270 H1254 0.959 . S
C1270 H1255 0.959 . S
C1270 H1256 0.961 . S
C1270 C1269 1.502 . S
C1271 H1257 0.960 . S
C1271 H1258 0.961 . S
C1271 H1259 0.959 . S
C1271 C1269 1.561 . S
C1272 C1269 1.526 . S
C1272 C1273 1.396 1_545 S
C1272 C1277 1.390 1_545 S
C1273 C1267 1.465 1_565 S
C1273 C1272 1.396 1_565 S
C1273 C1274 1.399 . S
C1274 H1260 0.929 . S
C1274 C1273 1.399 . S
C1274 C1275 1.385 . S
C1275 H1261 0.931 . S
C1275 C1274 1.385 . S
C1275 C1276 1.389 . S
C1276 C1275 1.389 . S
C1276 C1277 1.387 . S
C1277 H1262 0.930 1_565 S
C1277 C1272 1.390 1_565 S
C1277 C1276 1.387 . S
H1278 C1290 0.930 . S
H1279 C1292 0.930 . S
H1280 C1293 0.930 . S
H1281 C1297 0.959 . S
H1282 C1297 0.959 . S
H1283 C1297 0.961 . S
H1284 C1298 0.960 . S
H1285 C1298 0.961 . S
H1286 C1298 0.959 . S
H1287 C1301 0.929 . S
H1288 C1302 0.931 . S
H1289 C1304 0.930 . S
C1290 H1278 0.930 . S
C1290 C1291 1.399 . S
C1290 C1295 1.399 . S
C1291 C1290 1.399 . S
C1291 C1292 1.376 . S
C1292 H1279 0.930 . S
C1292 C1291 1.376 . S
C1292 C1293 1.388 . S
C1293 H1280 0.930 . S
C1293 C1292 1.388 . S
C1293 C1294 1.390 . S
C1294 C1293 1.390 . S
C1294 C1295 1.394 . S
C1294 C1300 1.465 . S
C1295 C1290 1.399 . S
C1295 C1294 1.394 . S
C1295 C1296 1.516 . S
C1296 C1295 1.516 . S
C1296 C1297 1.502 . S
C1296 C1298 1.561 . S
C1296 C1299 1.526 . S
C1297 H1281 0.959 . S
C1297 H1282 0.959 . S
C1297 H1283 0.961 . S
C1297 C1296 1.502 . S
C1298 H1284 0.960 . S
C1298 H1285 0.961 . S
C1298 H1286 0.959 . S
C1298 C1296 1.561 . S
C1299 C1296 1.526 . S
C1299 C1300 1.396 . S
C1299 C1304 1.390 . S
C1300 C1294 1.465 . S
C1300 C1299 1.396 . S
C1300 C1301 1.399 . S
C1301 H1287 0.929 . S
C1301 C1300 1.399 . S
C1301 C1302 1.385 . S
C1302 H1288 0.931 . S
C1302 C1301 1.385 . S
C1302 C1303 1.389 . S
C1303 C1302 1.389 . S
C1303 C1304 1.387 . S
C1304 H1289 0.930 . S
C1304 C1299 1.390 . S
C1304 C1303 1.387 . S
H1305 C1317 0.930 . S
H1306 C1319 0.930 . S
H1307 C1320 0.930 . S
H1308 C1324 0.959 . S
H1309 C1324 0.959 . S
H1310 C1324 0.961 . S
H1311 C1325 0.960 . S
H1312 C1325 0.961 . S
H1313 C1325 0.959 . S
H1314 C1328 0.929 . S
H1315 C1329 0.931 . S
H1316 C1331 0.930 . S
C1317 H1305 0.930 . S
C1317 C1318 1.399 . S
C1317 C1322 1.399 . S
C1318 C1317 1.399 . S
C1318 C1319 1.376 . S
C1319 H1306 0.930 . S
C1319 C1318 1.376 . S
C1319 C1320 1.388 . S
C1320 H1307 0.930 . S
C1320 C1319 1.388 . S
C1320 C1321 1.390 . S
C1321 C1320 1.390 . S
C1321 C1322 1.394 . S
C1321 C1327 1.465 1_545 S
C1322 C1317 1.399 . S
C1322 C1321 1.394 . S
C1322 C1323 1.516 . S
C1323 C1322 1.516 . S
C1323 C1324 1.502 . S
C1323 C1325 1.561 . S
C1323 C1326 1.526 1_545 S
C1324 H1308 0.959 . S
C1324 H1309 0.959 . S
C1324 H1310 0.961 . S
C1324 C1323 1.502 . S
C1325 H1311 0.960 . S
C1325 H1312 0.961 . S
C1325 H1313 0.959 . S
C1325 C1323 1.561 . S
C1326 C1323 1.526 1_565 S
C1326 C1327 1.396 . S
C1326 C1331 1.390 . S
C1327 C1321 1.465 1_565 S
C1327 C1326 1.396 . S
C1327 C1328 1.399 . S
C1328 H1314 0.929 . S
C1328 C1327 1.399 . S
C1328 C1329 1.385 . S
C1329 H1315 0.931 . S
C1329 C1328 1.385 . S
C1329 C1330 1.389 . S
C1330 C1329 1.389 . S
C1330 C1331 1.387 . S
C1331 H1316 0.930 . S
C1331 C1326 1.390 . S
C1331 C1330 1.387 . S
H1332 C1344 0.930 . S
H1333 C1346 0.930 . S
H1334 C1347 0.930 . S
H1335 C1351 0.959 . S
H1336 C1351 0.959 . S
H1337 C1351 0.961 . S
H1338 C1352 0.960 . S
H1339 C1352 0.961 . S
H1340 C1352 0.959 . S
H1341 C1355 0.929 . S
H1342 C1356 0.931 . S
H1343 C1358 0.930 . S
C1344 H1332 0.930 . S
C1344 C1345 1.399 . S
C1344 C1349 1.399 . S
C1345 C1344 1.399 . S
C1345 C1346 1.376 . S
C1346 H1333 0.930 . S
C1346 C1345 1.376 . S
C1346 C1347 1.388 . S
C1347 H1334 0.930 . S
C1347 C1346 1.388 . S
C1347 C1348 1.390 . S
C1348 C1347 1.390 . S
C1348 C1349 1.394 . S
C1348 C1354 1.465 1_655 S
C1349 C1344 1.399 . S
C1349 C1348 1.394 . S
C1349 C1350 1.516 . S
C1350 C1349 1.516 . S
C1350 C1351 1.502 . S
C1350 C1352 1.561 . S
C1350 C1353 1.526 1_655 S
C1351 H1335 0.959 . S
C1351 H1336 0.959 . S
C1351 H1337 0.961 . S
C1351 C1350 1.502 . S
C1352 H1338 0.960 . S
C1352 H1339 0.961 . S
C1352 H1340 0.959 . S
C1352 C1350 1.561 . S
C1353 C1350 1.526 1_455 S
C1353 C1354 1.396 . S
C1353 C1358 1.390 . S
C1354 C1348 1.465 1_455 S
C1354 C1353 1.396 . S
C1354 C1355 1.399 . S
C1355 H1341 0.929 . S
C1355 C1354 1.399 . S
C1355 C1356 1.385 . S
C1356 H1342 0.931 . S
C1356 C1355 1.385 . S
C1356 C1357 1.389 . S
C1357 C1356 1.389 . S
C1357 C1358 1.387 . S
C1358 H1343 0.930 . S
C1358 C1353 1.390 . S
C1358 C1357 1.387 . S
H1359 C1371 0.930 . S
H1360 C1373 0.930 . S
H1361 C1374 0.930 . S
H1362 C1378 0.959 . S
H1363 C1378 0.959 . S
H1364 C1378 0.961 . S
H1365 C1379 0.960 . S
H1366 C1379 0.961 . S
H1367 C1379 0.959 . S
H1368 C1382 0.929 . S
H1369 C1383 0.931 . S
H1370 C1385 0.930 . S
C1371 H1359 0.930 . S
C1371 C1372 1.399 . S
C1371 C1376 1.399 . S
C1372 C1371 1.399 . S
C1372 C1373 1.376 . S
C1373 H1360 0.930 . S
C1373 C1372 1.376 . S
C1373 C1374 1.388 . S
C1374 H1361 0.930 . S
C1374 C1373 1.388 . S
C1374 C1375 1.390 . S
C1375 C1374 1.390 . S
C1375 C1376 1.394 . S
C1375 C1381 1.465 . S
C1376 C1371 1.399 . S
C1376 C1375 1.394 . S
C1376 C1377 1.516 . S
C1377 C1376 1.516 . S
C1377 C1378 1.502 . S
C1377 C1379 1.561 . S
C1377 C1380 1.526 . S
C1378 H1362 0.959 . S
C1378 H1363 0.959 . S
C1378 H1364 0.961 . S
C1378 C1377 1.502 . S
C1379 H1365 0.960 . S
C1379 H1366 0.961 . S
C1379 H1367 0.959 . S
C1379 C1377 1.561 . S
C1380 C1377 1.526 . S
C1380 C1381 1.396 . S
C1380 C1385 1.390 . S
C1381 C1375 1.465 . S
C1381 C1380 1.396 . S
C1381 C1382 1.399 . S
C1382 H1368 0.929 . S
C1382 C1381 1.399 . S
C1382 C1383 1.385 . S
C1383 H1369 0.931 . S
C1383 C1382 1.385 . S
C1383 C1384 1.389 . S
C1384 C1383 1.389 . S
C1384 C1385 1.387 . S
C1385 H1370 0.930 . S
C1385 C1380 1.390 . S
C1385 C1384 1.387 . S
H1386 C1398 0.930 . S
H1387 C1400 0.930 . S
H1388 C1401 0.930 . S
H1389 C1405 0.959 . S
H1390 C1405 0.959 . S
H1391 C1405 0.961 . S
H1392 C1406 0.960 . S
H1393 C1406 0.961 . S
H1394 C1406 0.959 . S
H1395 C1409 0.929 . S
H1396 C1410 0.931 . S
H1397 C1412 0.930 . S
C1398 H1386 0.930 . S
C1398 C1399 1.399 . S
C1398 C1403 1.399 . S
C1399 C1398 1.399 . S
C1399 C1400 1.376 . S
C1400 H1387 0.930 . S
C1400 C1399 1.376 . S
C1400 C1401 1.388 . S
C1401 H1388 0.930 . S
C1401 C1400 1.388 . S
C1401 C1402 1.390 . S
C1402 C1401 1.390 . S
C1402 C1403 1.394 . S
C1402 C1408 1.465 1_565 S
C1403 C1398 1.399 . S
C1403 C1402 1.394 . S
C1403 C1404 1.516 . S
C1404 C1403 1.516 . S
C1404 C1405 1.502 . S
C1404 C1406 1.561 . S
C1404 C1407 1.526 1_565 S
C1405 H1389 0.959 . S
C1405 H1390 0.959 . S
C1405 H1391 0.961 . S
C1405 C1404 1.502 . S
C1406 H1392 0.960 . S
C1406 H1393 0.961 . S
C1406 H1394 0.959 . S
C1406 C1404 1.561 . S
C1407 C1404 1.526 1_545 S
C1407 C1408 1.396 . S
C1407 C1412 1.390 . S
C1408 C1402 1.465 1_545 S
C1408 C1407 1.396 . S
C1408 C1409 1.399 . S
C1409 H1395 0.929 . S
C1409 C1408 1.399 . S
C1409 C1410 1.385 . S
C1410 H1396 0.931 . S
C1410 C1409 1.385 . S
C1410 C1411 1.389 . S
C1411 C1410 1.389 . S
C1411 C1412 1.387 . S
C1412 H1397 0.930 . S
C1412 C1407 1.390 . S
C1412 C1411 1.387 . S
H1413 C1425 0.930 . S
H1414 C1427 0.930 . S
H1415 C1428 0.930 . S
H1416 C1432 0.959 . S
H1417 C1432 0.959 . S
H1418 C1432 0.961 . S
H1419 C1433 0.960 . S
H1420 C1433 0.961 . S
H1421 C1433 0.959 . S
H1422 C1436 0.929 . S
H1423 C1437 0.931 . S
H1424 C1439 0.930 . S
C1425 H1413 0.930 . S
C1425 C1426 1.399 . S
C1425 C1430 1.399 . S
C1426 C1425 1.399 . S
C1426 C1427 1.376 . S
C1427 H1414 0.930 . S
C1427 C1426 1.376 . S
C1427 C1428 1.388 . S
C1428 H1415 0.930 . S
C1428 C1427 1.388 . S
C1428 C1429 1.390 . S
C1429 C1428 1.390 . S
C1429 C1430 1.394 . S
C1429 C1435 1.465 1_655 S
C1430 C1425 1.399 . S
C1430 C1429 1.394 . S
C1430 C1431 1.516 1_655 S
C1431 C1430 1.516 1_455 S
C1431 C1432 1.502 . S
C1431 C1433 1.561 . S
C1431 C1434 1.526 . S
C1432 H1416 0.959 . S
C1432 H1417 0.959 . S
C1432 H1418 0.961 . S
C1432 C1431 1.502 . S
C1433 H1419 0.960 . S
C1433 H1420 0.961 . S
C1433 H1421 0.959 . S
C1433 C1431 1.561 . S
C1434 C1431 1.526 . S
C1434 C1435 1.396 . S
C1434 C1439 1.390 . S
C1435 C1429 1.465 1_455 S
C1435 C1434 1.396 . S
C1435 C1436 1.399 . S
C1436 H1422 0.929 . S
C1436 C1435 1.399 . S
C1436 C1437 1.385 . S
C1437 H1423 0.931 . S
C1437 C1436 1.385 . S
C1437 C1438 1.389 . S
C1438 C1437 1.389 . S
C1438 C1439 1.387 . S
C1439 H1424 0.930 . S
C1439 C1434 1.390 . S
C1439 C1438 1.387 . S
H1440 C1452 0.930 . S
H1441 C1454 0.930 . S
H1442 C1455 0.930 . S
H1443 C1459 0.959 . S
H1444 C1459 0.959 . S
H1445 C1459 0.961 . S
H1446 C1460 0.960 . S
H1447 C1460 0.961 . S
H1448 C1460 0.959 . S
H1449 C1463 0.929 . S
H1450 C1464 0.931 . S
H1451 C1466 0.930 . S
C1452 H1440 0.930 . S
C1452 C1453 1.399 . S
C1452 C1457 1.399 . S
C1453 C1452 1.399 . S
C1453 C1454 1.376 . S
C1454 H1441 0.930 . S
C1454 C1453 1.376 . S
C1454 C1455 1.388 . S
C1455 H1442 0.930 . S
C1455 C1454 1.388 . S
C1455 C1456 1.390 . S
C1456 C1455 1.390 . S
C1456 C1457 1.394 . S
C1456 C1462 1.465 . S
C1457 C1452 1.399 . S
C1457 C1456 1.394 . S
C1457 C1458 1.516 . S
C1458 C1457 1.516 . S
C1458 C1459 1.502 . S
C1458 C1460 1.561 . S
C1458 C1461 1.526 . S
C1459 H1443 0.959 . S
C1459 H1444 0.959 . S
C1459 H1445 0.961 . S
C1459 C1458 1.502 . S
C1460 H1446 0.960 . S
C1460 H1447 0.961 . S
C1460 H1448 0.959 . S
C1460 C1458 1.561 . S
C1461 C1458 1.526 . S
C1461 C1462 1.396 . S
C1461 C1466 1.390 . S
C1462 C1456 1.465 . S
C1462 C1461 1.396 . S
C1462 C1463 1.399 . S
C1463 H1449 0.929 . S
C1463 C1462 1.399 . S
C1463 C1464 1.385 . S
C1464 H1450 0.931 . S
C1464 C1463 1.385 . S
C1464 C1465 1.389 . S
C1465 C1464 1.389 . S
C1465 C1466 1.387 . S
C1466 H1451 0.930 . S
C1466 C1461 1.390 . S
C1466 C1465 1.387 . S
H1467 C1479 0.930 . S
H1468 C1481 0.930 . S
H1469 C1482 0.930 . S
H1470 C1486 0.959 . S
H1471 C1486 0.959 . S
H1472 C1486 0.961 . S
H1473 C1487 0.960 . S
H1474 C1487 0.961 . S
H1475 C1487 0.959 . S
H1476 C1490 0.929 . S
H1477 C1491 0.931 . S
H1478 C1493 0.930 . S
C1479 H1467 0.930 . S
C1479 C1480 1.399 . S
C1479 C1484 1.399 1_545 S
C1480 C1479 1.399 . S
C1480 C1481 1.376 . S
C1481 H1468 0.930 . S
C1481 C1480 1.376 . S
C1481 C1482 1.388 . S
C1482 H1469 0.930 . S
C1482 C1481 1.388 . S
C1482 C1483 1.390 1_545 S
C1483 C1482 1.390 1_565 S
C1483 C1484 1.394 . S
C1483 C1489 1.465 . S
C1484 C1479 1.399 1_565 S
C1484 C1483 1.394 . S
C1484 C1485 1.516 . S
C1485 C1484 1.516 . S
C1485 C1486 1.502 . S
C1485 C1487 1.561 . S
C1485 C1488 1.526 . S
C1486 H1470 0.959 . S
C1486 H1471 0.959 . S
C1486 H1472 0.961 . S
C1486 C1485 1.502 . S
C1487 H1473 0.960 . S
C1487 H1474 0.961 . S
C1487 H1475 0.959 . S
C1487 C1485 1.561 . S
C1488 C1485 1.526 . S
C1488 C1489 1.396 . S
C1488 C1493 1.390 . S
C1489 C1483 1.465 . S
C1489 C1488 1.396 . S
C1489 C1490 1.399 . S
C1490 H1476 0.929 . S
C1490 C1489 1.399 . S
C1490 C1491 1.385 . S
C1491 H1477 0.931 . S
C1491 C1490 1.385 . S
C1491 C1492 1.389 . S
C1492 C1491 1.389 . S
C1492 C1493 1.387 . S
C1493 H1478 0.930 . S
C1493 C1488 1.390 . S
C1493 C1492 1.387 . S
H1494 C1506 0.930 . S
H1495 C1508 0.930 . S
H1496 C1509 0.930 . S
H1497 C1513 0.959 . S
H1498 C1513 0.959 . S
H1499 C1513 0.961 . S
H1500 C1514 0.960 . S
H1501 C1514 0.961 . S
H1502 C1514 0.959 . S
H1503 C1517 0.929 . S
H1504 C1518 0.931 . S
H1505 C1520 0.930 . S
C1506 H1494 0.930 . S
C1506 C1507 1.399 . S
C1506 C1511 1.399 1_655 S
C1507 C1506 1.399 . S
C1507 C1508 1.376 . S
C1508 H1495 0.930 . S
C1508 C1507 1.376 . S
C1508 C1509 1.388 . S
C1509 H1496 0.930 . S
C1509 C1508 1.388 . S
C1509 C1510 1.390 1_655 S
C1510 C1509 1.390 1_455 S
C1510 C1511 1.394 . S
C1510 C1516 1.465 . S
C1511 C1506 1.399 1_455 S
C1511 C1510 1.394 . S
C1511 C1512 1.516 . S
C1512 C1511 1.516 . S
C1512 C1513 1.502 . S
C1512 C1514 1.561 . S
C1512 C1515 1.526 . S
C1513 H1497 0.959 . S
C1513 H1498 0.959 . S
C1513 H1499 0.961 . S
C1513 C1512 1.502 . S
C1514 H1500 0.960 . S
C1514 H1501 0.961 . S
C1514 H1502 0.959 . S
C1514 C1512 1.561 . S
C1515 C1512 1.526 . S
C1515 C1516 1.396 . S
C1515 C1520 1.390 . S
C1516 C1510 1.465 . S
C1516 C1515 1.396 . S
C1516 C1517 1.399 . S
C1517 H1503 0.929 . S
C1517 C1516 1.399 . S
C1517 C1518 1.385 . S
C1518 H1504 0.931 . S
C1518 C1517 1.385 . S
C1518 C1519 1.389 . S
C1519 C1518 1.389 . S
C1519 C1520 1.387 . S
C1520 H1505 0.930 . S
C1520 C1515 1.390 . S
C1520 C1519 1.387 . S
H1521 C1533 0.930 . S
H1522 C1535 0.930 . S
H1523 C1536 0.930 . S
H1524 C1540 0.959 . S
H1525 C1540 0.959 . S
H1526 C1540 0.961 . S
H1527 C1541 0.960 . S
H1528 C1541 0.961 . S
H1529 C1541 0.959 . S
H1530 C1544 0.929 . S
H1531 C1545 0.931 . S
H1532 C1547 0.930 . S
C1533 H1521 0.930 . S
C1533 C1534 1.399 . S
C1533 C1538 1.399 . S
C1534 C1533 1.399 . S
C1534 C1535 1.376 . S
C1535 H1522 0.930 . S
C1535 C1534 1.376 . S
C1535 C1536 1.388 . S
C1536 H1523 0.930 . S
C1536 C1535 1.388 . S
C1536 C1537 1.390 . S
C1537 C1536 1.390 . S
C1537 C1538 1.394 . S
C1537 C1543 1.465 . S
C1538 C1533 1.399 . S
C1538 C1537 1.394 . S
C1538 C1539 1.516 . S
C1539 C1538 1.516 . S
C1539 C1540 1.502 . S
C1539 C1541 1.561 . S
C1539 C1542 1.526 . S
C1540 H1524 0.959 . S
C1540 H1525 0.959 . S
C1540 H1526 0.961 . S
C1540 C1539 1.502 . S
C1541 H1527 0.960 . S
C1541 H1528 0.961 . S
C1541 H1529 0.959 . S
C1541 C1539 1.561 . S
C1542 C1539 1.526 . S
C1542 C1543 1.396 . S
C1542 C1547 1.390 . S
C1543 C1537 1.465 . S
C1543 C1542 1.396 . S
C1543 C1544 1.399 . S
C1544 H1530 0.929 . S
C1544 C1543 1.399 . S
C1544 C1545 1.385 . S
C1545 H1531 0.931 . S
C1545 C1544 1.385 . S
C1545 C1546 1.389 . S
C1546 C1545 1.389 . S
C1546 C1547 1.387 . S
C1547 H1532 0.930 . S
C1547 C1542 1.390 . S
C1547 C1546 1.387 . S
H1548 C1560 0.930 . S
H1549 C1562 0.930 . S
H1550 C1563 0.930 . S
H1551 C1567 0.959 . S
H1552 C1567 0.959 . S
H1553 C1567 0.961 . S
H1554 C1568 0.960 . S
H1555 C1568 0.961 . S
H1556 C1568 0.959 . S
H1557 C1571 0.929 . S
H1558 C1572 0.931 . S
H1559 C1574 0.930 . S
C1560 H1548 0.930 . S
C1560 C1561 1.399 . S
C1560 C1565 1.399 . S
C1561 C1560 1.399 . S
C1561 C1562 1.376 . S
C1562 H1549 0.930 . S
C1562 C1561 1.376 . S
C1562 C1563 1.388 . S
C1563 H1550 0.930 . S
C1563 C1562 1.388 . S
C1563 C1564 1.390 . S
C1564 C1563 1.390 . S
C1564 C1565 1.394 . S
C1564 C1570 1.465 . S
C1565 C1560 1.399 . S
C1565 C1564 1.394 . S
C1565 C1566 1.516 . S
C1566 C1565 1.516 . S
C1566 C1567 1.502 . S
C1566 C1568 1.561 . S
C1566 C1569 1.526 . S
C1567 H1551 0.959 . S
C1567 H1552 0.959 . S
C1567 H1553 0.961 . S
C1567 C1566 1.502 . S
C1568 H1554 0.960 . S
C1568 H1555 0.961 . S
C1568 H1556 0.959 . S
C1568 C1566 1.561 . S
C1569 C1566 1.526 . S
C1569 C1570 1.396 . S
C1569 C1574 1.390 1_545 S
C1570 C1564 1.465 . S
C1570 C1569 1.396 . S
C1570 C1571 1.399 . S
C1571 H1557 0.929 . S
C1571 C1570 1.399 . S
C1571 C1572 1.385 1_545 S
C1572 H1558 0.931 . S
C1572 C1571 1.385 1_565 S
C1572 C1573 1.389 . S
C1573 C1572 1.389 . S
C1573 C1574 1.387 . S
C1574 H1559 0.930 . S
C1574 C1569 1.390 1_565 S
C1574 C1573 1.387 . S
H1575 C1587 0.930 . S
H1576 C1589 0.930 . S
H1577 C1590 0.930 . S
H1578 C1594 0.959 . S
H1579 C1594 0.959 . S
H1580 C1594 0.961 . S
H1581 C1595 0.960 . S
H1582 C1595 0.961 . S
H1583 C1595 0.959 . S
H1584 C1598 0.929 . S
H1585 C1599 0.931 . S
H1586 C1601 0.930 . S
C1587 H1575 0.930 . S
C1587 C1588 1.399 . S
C1587 C1592 1.399 1_455 S
C1588 C1587 1.399 . S
C1588 C1589 1.376 . S
C1589 H1576 0.930 . S
C1589 C1588 1.376 . S
C1589 C1590 1.388 . S
C1590 H1577 0.930 . S
C1590 C1589 1.388 . S
C1590 C1591 1.390 1_455 S
C1591 C1590 1.390 1_655 S
C1591 C1592 1.394 . S
C1591 C1597 1.465 . S
C1592 C1587 1.399 1_655 S
C1592 C1591 1.394 . S
C1592 C1593 1.516 . S
C1593 C1592 1.516 . S
C1593 C1594 1.502 . S
C1593 C1595 1.561 . S
C1593 C1596 1.526 . S
C1594 H1578 0.959 . S
C1594 H1579 0.959 . S
C1594 H1580 0.961 . S
C1594 C1593 1.502 . S
C1595 H1581 0.960 . S
C1595 H1582 0.961 . S
C1595 H1583 0.959 . S
C1595 C1593 1.561 . S
C1596 C1593 1.526 . S
C1596 C1597 1.396 . S
C1596 C1601 1.390 . S
C1597 C1591 1.465 . S
C1597 C1596 1.396 . S
C1597 C1598 1.399 . S
C1598 H1584 0.929 . S
C1598 C1597 1.399 . S
C1598 C1599 1.385 . S
C1599 H1585 0.931 . S
C1599 C1598 1.385 . S
C1599 C1600 1.389 . S
C1600 C1599 1.389 . S
C1600 C1601 1.387 . S
C1601 H1586 0.930 . S
C1601 C1596 1.390 . S
C1601 C1600 1.387 . S
H1602 C1614 0.930 . S
H1603 C1616 0.930 . S
H1604 C1617 0.930 . S
H1605 C1621 0.959 . S
H1606 C1621 0.959 . S
H1607 C1621 0.961 . S
H1608 C1622 0.960 . S
H1609 C1622 0.961 . S
H1610 C1622 0.959 . S
H1611 C1625 0.929 . S
H1612 C1626 0.931 . S
H1613 C1628 0.930 . S
C1614 H1602 0.930 . S
C1614 C1615 1.399 . S
C1614 C1619 1.399 . S
C1615 C1614 1.399 . S
C1615 C1616 1.376 . S
C1616 H1603 0.930 . S
C1616 C1615 1.376 . S
C1616 C1617 1.388 . S
C1617 H1604 0.930 . S
C1617 C1616 1.388 . S
C1617 C1618 1.390 . S
C1618 C1617 1.390 . S
C1618 C1619 1.394 . S
C1618 C1624 1.465 . S
C1619 C1614 1.399 . S
C1619 C1618 1.394 . S
C1619 C1620 1.516 . S
C1620 C1619 1.516 . S
C1620 C1621 1.502 . S
C1620 C1622 1.561 . S
C1620 C1623 1.526 . S
C1621 H1605 0.959 . S
C1621 H1606 0.959 . S
C1621 H1607 0.961 . S
C1621 C1620 1.502 . S
C1622 H1608 0.960 . S
C1622 H1609 0.961 . S
C1622 H1610 0.959 . S
C1622 C1620 1.561 . S
C1623 C1620 1.526 . S
C1623 C1624 1.396 . S
C1623 C1628 1.390 . S
C1624 C1618 1.465 . S
C1624 C1623 1.396 . S
C1624 C1625 1.399 . S
C1625 H1611 0.929 . S
C1625 C1624 1.399 . S
C1625 C1626 1.385 . S
C1626 H1612 0.931 . S
C1626 C1625 1.385 . S
C1626 C1627 1.389 . S
C1627 C1626 1.389 . S
C1627 C1628 1.387 . S
C1628 H1613 0.930 . S
C1628 C1623 1.390 . S
C1628 C1627 1.387 . S
H1629 C1641 0.930 . S
H1630 C1643 0.930 . S
H1631 C1644 0.930 . S
H1632 C1648 0.959 . S
H1633 C1648 0.959 . S
H1634 C1648 0.961 . S
H1635 C1649 0.960 1_565 S
H1636 C1649 0.961 . S
H1637 C1649 0.959 . S
H1638 C1652 0.929 . S
H1639 C1653 0.931 . S
H1640 C1655 0.930 . S
C1641 H1629 0.930 . S
C1641 C1642 1.399 . S
C1641 C1646 1.399 1_565 S
C1642 C1641 1.399 . S
C1642 C1643 1.376 . S
C1643 H1630 0.930 . S
C1643 C1642 1.376 . S
C1643 C1644 1.388 1_565 S
C1644 H1631 0.930 . S
C1644 C1643 1.388 1_545 S
C1644 C1645 1.390 . S
C1645 C1644 1.390 . S
C1645 C1646 1.394 . S
C1645 C1651 1.465 . S
C1646 C1641 1.399 1_545 S
C1646 C1645 1.394 . S
C1646 C1647 1.516 . S
C1647 C1646 1.516 . S
C1647 C1648 1.502 . S
C1647 C1649 1.561 . S
C1647 C1650 1.526 . S
C1648 H1632 0.959 . S
C1648 H1633 0.959 . S
C1648 H1634 0.961 . S
C1648 C1647 1.502 . S
C1649 H1635 0.960 1_545 S
C1649 H1636 0.961 . S
C1649 H1637 0.959 . S
C1649 C1647 1.561 . S
C1650 C1647 1.526 . S
C1650 C1651 1.396 . S
C1650 C1655 1.390 . S
C1651 C1645 1.465 . S
C1651 C1650 1.396 . S
C1651 C1652 1.399 . S
C1652 H1638 0.929 . S
C1652 C1651 1.399 . S
C1652 C1653 1.385 . S
C1653 H1639 0.931 . S
C1653 C1652 1.385 . S
C1653 C1654 1.389 . S
C1654 C1653 1.389 . S
C1654 C1655 1.387 . S
C1655 H1640 0.930 . S
C1655 C1650 1.390 . S
C1655 C1654 1.387 . S
H1656 C1668 0.930 . S
H1657 C1670 0.930 . S
H1658 C1671 0.930 . S
H1659 C1675 0.959 . S
H1660 C1675 0.959 . S
H1661 C1675 0.961 . S
H1662 C1676 0.960 . S
H1663 C1676 0.961 . S
H1664 C1676 0.959 . S
H1665 C1679 0.929 . S
H1666 C1680 0.931 . S
H1667 C1682 0.930 . S
C1668 H1656 0.930 . S
C1668 C1669 1.399 . S
C1668 C1673 1.399 1_455 S
C1669 C1668 1.399 . S
C1669 C1670 1.376 . S
C1670 H1657 0.930 . S
C1670 C1669 1.376 . S
C1670 C1671 1.388 1_455 S
C1671 H1658 0.930 . S
C1671 C1670 1.388 1_655 S
C1671 C1672 1.390 . S
C1672 C1671 1.390 . S
C1672 C1673 1.394 . S
C1672 C1678 1.465 . S
C1673 C1668 1.399 1_655 S
C1673 C1672 1.394 . S
C1673 C1674 1.516 . S
C1674 C1673 1.516 . S
C1674 C1675 1.502 . S
C1674 C1676 1.561 . S
C1674 C1677 1.526 . S
C1675 H1659 0.959 . S
C1675 H1660 0.959 . S
C1675 H1661 0.961 . S
C1675 C1674 1.502 . S
C1676 H1662 0.960 . S
C1676 H1663 0.961 . S
C1676 H1664 0.959 . S
C1676 C1674 1.561 . S
C1677 C1674 1.526 . S
C1677 C1678 1.396 . S
C1677 C1682 1.390 . S
C1678 C1672 1.465 . S
C1678 C1677 1.396 . S
C1678 C1679 1.399 . S
C1679 H1665 0.929 . S
C1679 C1678 1.399 . S
C1679 C1680 1.385 . S
C1680 H1666 0.931 . S
C1680 C1679 1.385 . S
C1680 C1681 1.389 . S
C1681 C1680 1.389 . S
C1681 C1682 1.387 . S
C1682 H1667 0.930 . S
C1682 C1677 1.390 . S
C1682 C1681 1.387 . S
H1683 C1695 0.930 . S
H1684 C1697 0.930 1_545 S
H1685 C1698 0.930 . S
H1686 C1702 0.959 . S
H1687 C1702 0.959 . S
H1688 C1702 0.961 . S
H1689 C1703 0.960 . S
H1690 C1703 0.961 . S
H1691 C1703 0.959 . S
H1692 C1706 0.929 . S
H1693 C1707 0.931 . S
H1694 C1709 0.930 . S
C1695 H1683 0.930 . S
C1695 C1696 1.399 . S
C1695 C1700 1.399 . S
C1696 C1695 1.399 . S
C1696 C1697 1.376 . S
C1697 H1684 0.930 1_565 S
C1697 C1696 1.376 . S
C1697 C1698 1.388 . S
C1698 H1685 0.930 . S
C1698 C1697 1.388 . S
C1698 C1699 1.390 . S
C1699 C1698 1.390 . S
C1699 C1700 1.394 . S
C1699 C1705 1.465 . S
C1700 C1695 1.399 . S
C1700 C1699 1.394 . S
C1700 C1701 1.516 . S
C1701 C1700 1.516 . S
C1701 C1702 1.502 . S
C1701 C1703 1.561 . S
C1701 C1704 1.526 . S
C1702 H1686 0.959 . S
C1702 H1687 0.959 . S
C1702 H1688 0.961 . S
C1702 C1701 1.502 . S
C1703 H1689 0.960 . S
C1703 H1690 0.961 . S
C1703 H1691 0.959 . S
C1703 C1701 1.561 . S
C1704 C1701 1.526 . S
C1704 C1705 1.396 . S
C1704 C1709 1.390 . S
C1705 C1699 1.465 . S
C1705 C1704 1.396 . S
C1705 C1706 1.399 . S
C1706 H1692 0.929 . S
C1706 C1705 1.399 . S
C1706 C1707 1.385 . S
C1707 H1693 0.931 . S
C1707 C1706 1.385 . S
C1707 C1708 1.389 . S
C1708 C1707 1.389 . S
C1708 C1709 1.387 . S
C1709 H1694 0.930 . S
C1709 C1704 1.390 . S
C1709 C1708 1.387 . S
H1710 C1722 0.930 . S
H1711 C1724 0.930 . S
H1712 C1725 0.930 . S
H1713 C1729 0.959 . S
H1714 C1729 0.959 . S
H1715 C1729 0.961 . S
H1716 C1730 0.960 1_545 S
H1717 C1730 0.961 . S
H1718 C1730 0.959 . S
H1719 C1733 0.929 . S
H1720 C1734 0.931 1_655 S
H1721 C1736 0.930 . S
C1722 H1710 0.930 . S
C1722 C1723 1.399 . S
C1722 C1727 1.399 1_545 S
C1723 C1722 1.399 . S
C1723 C1724 1.376 . S
C1724 H1711 0.930 . S
C1724 C1723 1.376 . S
C1724 C1725 1.388 1_545 S
C1725 H1712 0.930 . S
C1725 C1724 1.388 1_565 S
C1725 C1726 1.390 . S
C1726 C1725 1.390 . S
C1726 C1727 1.394 . S
C1726 C1732 1.465 . S
C1727 C1722 1.399 1_565 S
C1727 C1726 1.394 . S
C1727 C1728 1.516 . S
C1728 C1727 1.516 . S
C1728 C1729 1.502 . S
C1728 C1730 1.561 . S
C1728 C1731 1.526 . S
C1729 H1713 0.959 . S
C1729 H1714 0.959 . S
C1729 H1715 0.961 . S
C1729 C1728 1.502 . S
C1730 H1716 0.960 1_565 S
C1730 H1717 0.961 . S
C1730 H1718 0.959 . S
C1730 C1728 1.561 . S
C1731 C1728 1.526 . S
C1731 C1732 1.396 . S
C1731 C1736 1.390 . S
C1732 C1726 1.465 . S
C1732 C1731 1.396 . S
C1732 C1733 1.399 . S
C1733 H1719 0.929 . S
C1733 C1732 1.399 . S
C1733 C1734 1.385 . S
C1734 H1720 0.931 1_455 S
C1734 C1733 1.385 . S
C1734 C1735 1.389 . S
C1735 C1734 1.389 . S
C1735 C1736 1.387 . S
C1736 H1721 0.930 . S
C1736 C1731 1.390 . S
C1736 C1735 1.387 . S
H1737 C1749 0.930 . S
H1738 C1751 0.930 . S
H1739 C1752 0.930 . S
H1740 C1756 0.959 . S
H1741 C1756 0.959 . S
H1742 C1756 0.961 . S
H1743 C1757 0.960 . S
H1744 C1757 0.961 . S
H1745 C1757 0.959 . S
H1746 C1760 0.929 . S
H1747 C1761 0.931 . S
H1748 C1763 0.930 1_455 S
C1749 H1737 0.930 . S
C1749 C1750 1.399 . S
C1749 C1754 1.399 . S
C1750 C1749 1.399 . S
C1750 C1751 1.376 . S
C1751 H1738 0.930 . S
C1751 C1750 1.376 . S
C1751 C1752 1.388 . S
C1752 H1739 0.930 . S
C1752 C1751 1.388 . S
C1752 C1753 1.390 . S
C1753 C1752 1.390 . S
C1753 C1754 1.394 . S
C1753 C1759 1.465 . S
C1754 C1749 1.399 . S
C1754 C1753 1.394 . S
C1754 C1755 1.516 . S
C1755 C1754 1.516 . S
C1755 C1756 1.502 . S
C1755 C1757 1.561 . S
C1755 C1758 1.526 . S
C1756 H1740 0.959 . S
C1756 H1741 0.959 . S
C1756 H1742 0.961 . S
C1756 C1755 1.502 . S
C1757 H1743 0.960 . S
C1757 H1744 0.961 . S
C1757 H1745 0.959 . S
C1757 C1755 1.561 . S
C1758 C1755 1.526 . S
C1758 C1759 1.396 . S
C1758 C1763 1.390 1_455 S
C1759 C1753 1.465 . S
C1759 C1758 1.396 . S
C1759 C1760 1.399 1_455 S
C1760 H1746 0.929 . S
C1760 C1759 1.399 1_655 S
C1760 C1761 1.385 . S
C1761 H1747 0.931 . S
C1761 C1760 1.385 . S
C1761 C1762 1.389 . S
C1762 C1761 1.389 . S
C1762 C1763 1.387 . S
C1763 H1748 0.930 1_655 S
C1763 C1758 1.390 1_655 S
C1763 C1762 1.387 . S
H1764 C1776 0.930 . S
H1765 C1778 0.930 . S
H1766 C1779 0.930 . S
H1767 C1783 0.959 . S
H1768 C1783 0.959 . S
H1769 C1783 0.961 . S
H1770 C1784 0.960 . S
H1771 C1784 0.961 . S
H1772 C1784 0.959 . S
H1773 C1787 0.929 . S
H1774 C1788 0.931 . S
H1775 C1790 0.930 . S
C1776 H1764 0.930 . S
C1776 C1777 1.399 . S
C1776 C1781 1.399 . S
C1777 C1776 1.399 . S
C1777 C1778 1.376 . S
C1778 H1765 0.930 . S
C1778 C1777 1.376 . S
C1778 C1779 1.388 . S
C1779 H1766 0.930 . S
C1779 C1778 1.388 . S
C1779 C1780 1.390 . S
C1780 C1779 1.390 . S
C1780 C1781 1.394 . S
C1780 C1786 1.465 . S
C1781 C1776 1.399 . S
C1781 C1780 1.394 . S
C1781 C1782 1.516 . S
C1782 C1781 1.516 . S
C1782 C1783 1.502 . S
C1782 C1784 1.561 . S
C1782 C1785 1.526 . S
C1783 H1767 0.959 . S
C1783 H1768 0.959 . S
C1783 H1769 0.961 . S
C1783 C1782 1.502 . S
C1784 H1770 0.960 . S
C1784 H1771 0.961 . S
C1784 H1772 0.959 . S
C1784 C1782 1.561 . S
C1785 C1782 1.526 . S
C1785 C1786 1.396 . S
C1785 C1790 1.390 . S
C1786 C1780 1.465 . S
C1786 C1785 1.396 . S
C1786 C1787 1.399 . S
C1787 H1773 0.929 . S
C1787 C1786 1.399 . S
C1787 C1788 1.385 . S
C1788 H1774 0.931 . S
C1788 C1787 1.385 . S
C1788 C1789 1.389 . S
C1789 C1788 1.389 . S
C1789 C1790 1.387 . S
C1790 H1775 0.930 . S
C1790 C1785 1.390 . S
C1790 C1789 1.387 . S
H1791 C1803 0.930 . S
H1792 C1805 0.930 . S
H1793 C1806 0.930 . S
H1794 C1810 0.959 . S
H1795 C1810 0.959 . S
H1796 C1810 0.961 . S
H1797 C1811 0.960 . S
H1798 C1811 0.961 . S
H1799 C1811 0.959 . S
H1800 C1814 0.929 . S
H1801 C1815 0.931 . S
H1802 C1817 0.930 . S
C1803 H1791 0.930 . S
C1803 C1804 1.399 . S
C1803 C1808 1.399 . S
C1804 C1803 1.399 . S
C1804 C1805 1.376 . S
C1805 H1792 0.930 . S
C1805 C1804 1.376 . S
C1805 C1806 1.388 . S
C1806 H1793 0.930 . S
C1806 C1805 1.388 . S
C1806 C1807 1.390 . S
C1807 C1806 1.390 . S
C1807 C1808 1.394 . S
C1807 C1813 1.465 . S
C1808 C1803 1.399 . S
C1808 C1807 1.394 . S
C1808 C1809 1.516 . S
C1809 C1808 1.516 . S
C1809 C1810 1.502 . S
C1809 C1811 1.561 . S
C1809 C1812 1.526 . S
C1810 H1794 0.959 . S
C1810 H1795 0.959 . S
C1810 H1796 0.961 . S
C1810 C1809 1.502 . S
C1811 H1797 0.960 . S
C1811 H1798 0.961 . S
C1811 H1799 0.959 . S
C1811 C1809 1.561 . S
C1812 C1809 1.526 . S
C1812 C1813 1.396 . S
C1812 C1817 1.390 . S
C1813 C1807 1.465 . S
C1813 C1812 1.396 . S
C1813 C1814 1.399 . S
C1814 H1800 0.929 . S
C1814 C1813 1.399 . S
C1814 C1815 1.385 . S
C1815 H1801 0.931 . S
C1815 C1814 1.385 . S
C1815 C1816 1.389 . S
C1816 C1815 1.389 . S
C1816 C1817 1.387 . S
C1817 H1802 0.930 . S
C1817 C1812 1.390 . S
C1817 C1816 1.387 . S
H1818 C1830 0.930 . S
H1819 C1832 0.930 . S
H1820 C1833 0.930 . S
H1821 C1837 0.959 . S
H1822 C1837 0.959 . S
H1823 C1837 0.961 . S
H1824 C1838 0.960 . S
H1825 C1838 0.961 . S
H1826 C1838 0.959 . S
H1827 C1841 0.929 . S
H1828 C1842 0.931 . S
H1829 C1844 0.930 . S
C1830 H1818 0.930 . S
C1830 C1831 1.399 . S
C1830 C1835 1.399 . S
C1831 C1830 1.399 . S
C1831 C1832 1.376 . S
C1832 H1819 0.930 . S
C1832 C1831 1.376 . S
C1832 C1833 1.388 . S
C1833 H1820 0.930 . S
C1833 C1832 1.388 . S
C1833 C1834 1.390 . S
C1834 C1833 1.390 . S
C1834 C1835 1.394 . S
C1834 C1840 1.465 . S
C1835 C1830 1.399 . S
C1835 C1834 1.394 . S
C1835 C1836 1.516 . S
C1836 C1835 1.516 . S
C1836 C1837 1.502 . S
C1836 C1838 1.561 . S
C1836 C1839 1.526 . S
C1837 H1821 0.959 . S
C1837 H1822 0.959 . S
C1837 H1823 0.961 . S
C1837 C1836 1.502 . S
C1838 H1824 0.960 . S
C1838 H1825 0.961 . S
C1838 H1826 0.959 . S
C1838 C1836 1.561 . S
C1839 C1836 1.526 . S
C1839 C1840 1.396 . S
C1839 C1844 1.390 . S
C1840 C1834 1.465 . S
C1840 C1839 1.396 . S
C1840 C1841 1.399 . S
C1841 H1827 0.929 . S
C1841 C1840 1.399 . S
C1841 C1842 1.385 . S
C1842 H1828 0.931 . S
C1842 C1841 1.385 . S
C1842 C1843 1.389 . S
C1843 C1842 1.389 . S
C1843 C1844 1.387 . S
C1844 H1829 0.930 . S
C1844 C1839 1.390 . S
C1844 C1843 1.387 . S
H1845 C1857 0.930 . S
H1846 C1859 0.930 . S
H1847 C1860 0.930 . S
H1848 C1864 0.959 . S
H1849 C1864 0.959 . S
H1850 C1864 0.961 . S
H1851 C1865 0.960 . S
H1852 C1865 0.961 . S
H1853 C1865 0.959 . S
H1854 C1868 0.929 . S
H1855 C1869 0.931 . S
H1856 C1871 0.930 . S
C1857 H1845 0.930 . S
C1857 C1858 1.399 . S
C1857 C1862 1.399 . S
C1858 C1857 1.399 . S
C1858 C1859 1.376 . S
C1859 H1846 0.930 . S
C1859 C1858 1.376 . S
C1859 C1860 1.388 . S
C1860 H1847 0.930 . S
C1860 C1859 1.388 . S
C1860 C1861 1.390 . S
C1861 C1860 1.390 . S
C1861 C1862 1.394 . S
C1861 C1867 1.465 . S
C1862 C1857 1.399 . S
C1862 C1861 1.394 . S
C1862 C1863 1.516 . S
C1863 C1862 1.516 . S
C1863 C1864 1.502 . S
C1863 C1865 1.561 . S
C1863 C1866 1.526 . S
C1864 H1848 0.959 . S
C1864 H1849 0.959 . S
C1864 H1850 0.961 . S
C1864 C1863 1.502 . S
C1865 H1851 0.960 . S
C1865 H1852 0.961 . S
C1865 H1853 0.959 . S
C1865 C1863 1.561 . S
C1866 C1863 1.526 . S
C1866 C1867 1.396 . S
C1866 C1871 1.390 . S
C1867 C1861 1.465 . S
C1867 C1866 1.396 . S
C1867 C1868 1.399 . S
C1868 H1854 0.929 . S
C1868 C1867 1.399 . S
C1868 C1869 1.385 . S
C1869 H1855 0.931 . S
C1869 C1868 1.385 . S
C1869 C1870 1.389 . S
C1870 C1869 1.389 . S
C1870 C1871 1.387 . S
C1871 H1856 0.930 . S
C1871 C1866 1.390 . S
C1871 C1870 1.387 . S
H1872 C1884 0.930 . S
H1873 C1886 0.930 . S
H1874 C1887 0.930 . S
H1875 C1891 0.959 . S
H1876 C1891 0.959 . S
H1877 C1891 0.961 . S
H1878 C1892 0.960 . S
H1879 C1892 0.961 . S
H1880 C1892 0.959 . S
H1881 C1895 0.929 . S
H1882 C1896 0.931 . S
H1883 C1898 0.930 . S
C1884 H1872 0.930 . S
C1884 C1885 1.399 . S
C1884 C1889 1.399 . S
C1885 C1884 1.399 . S
C1885 C1886 1.376 . S
C1886 H1873 0.930 . S
C1886 C1885 1.376 . S
C1886 C1887 1.388 . S
C1887 H1874 0.930 . S
C1887 C1886 1.388 . S
C1887 C1888 1.390 . S
C1888 C1887 1.390 . S
C1888 C1889 1.394 . S
C1888 C1894 1.465 . S
C1889 C1884 1.399 . S
C1889 C1888 1.394 . S
C1889 C1890 1.516 . S
C1890 C1889 1.516 . S
C1890 C1891 1.502 . S
C1890 C1892 1.561 . S
C1890 C1893 1.526 . S
C1891 H1875 0.959 . S
C1891 H1876 0.959 . S
C1891 H1877 0.961 . S
C1891 C1890 1.502 . S
C1892 H1878 0.960 . S
C1892 H1879 0.961 . S
C1892 H1880 0.959 . S
C1892 C1890 1.561 . S
C1893 C1890 1.526 . S
C1893 C1894 1.396 . S
C1893 C1898 1.390 . S
C1894 C1888 1.465 . S
C1894 C1893 1.396 . S
C1894 C1895 1.399 . S
C1895 H1881 0.929 . S
C1895 C1894 1.399 . S
C1895 C1896 1.385 . S
C1896 H1882 0.931 . S
C1896 C1895 1.385 . S
C1896 C1897 1.389 . S
C1897 C1896 1.389 . S
C1897 C1898 1.387 . S
C1898 H1883 0.930 . S
C1898 C1893 1.390 . S
C1898 C1897 1.387 . S
H1899 C1911 0.930 . S
H1900 C1913 0.930 . S
H1901 C1914 0.930 . S
H1902 C1918 0.959 . S
H1903 C1918 0.959 . S
H1904 C1918 0.961 . S
H1905 C1919 0.960 . S
H1906 C1919 0.961 . S
H1907 C1919 0.959 . S
H1908 C1922 0.929 . S
H1909 C1923 0.931 . S
H1910 C1925 0.930 . S
C1911 H1899 0.930 . S
C1911 C1912 1.399 . S
C1911 C1916 1.399 . S
C1912 C1911 1.399 . S
C1912 C1913 1.376 . S
C1913 H1900 0.930 . S
C1913 C1912 1.376 . S
C1913 C1914 1.388 . S
C1914 H1901 0.930 . S
C1914 C1913 1.388 . S
C1914 C1915 1.390 . S
C1915 C1914 1.390 . S
C1915 C1916 1.394 . S
C1915 C1921 1.465 . S
C1916 C1911 1.399 . S
C1916 C1915 1.394 . S
C1916 C1917 1.516 . S
C1917 C1916 1.516 . S
C1917 C1918 1.502 . S
C1917 C1919 1.561 . S
C1917 C1920 1.526 . S
C1918 H1902 0.959 . S
C1918 H1903 0.959 . S
C1918 H1904 0.961 . S
C1918 C1917 1.502 . S
C1919 H1905 0.960 . S
C1919 H1906 0.961 . S
C1919 H1907 0.959 . S
C1919 C1917 1.561 . S
C1920 C1917 1.526 . S
C1920 C1921 1.396 . S
C1920 C1925 1.390 . S
C1921 C1915 1.465 . S
C1921 C1920 1.396 . S
C1921 C1922 1.399 . S
C1922 H1908 0.929 . S
C1922 C1921 1.399 . S
C1922 C1923 1.385 . S
C1923 H1909 0.931 . S
C1923 C1922 1.385 . S
C1923 C1924 1.389 . S
C1924 C1923 1.389 . S
C1924 C1925 1.387 . S
C1925 H1910 0.930 . S
C1925 C1920 1.390 . S
C1925 C1924 1.387 . S
H1926 C1938 0.930 . S
H1927 C1940 0.930 . S
H1928 C1941 0.930 . S
H1929 C1945 0.959 . S
H1930 C1945 0.959 . S
H1931 C1945 0.961 . S
H1932 C1946 0.960 . S
H1933 C1946 0.961 . S
H1934 C1946 0.959 . S
H1935 C1949 0.929 . S
H1936 C1950 0.931 . S
H1937 C1952 0.930 . S
C1938 H1926 0.930 . S
C1938 C1939 1.399 . S
C1938 C1943 1.399 . S
C1939 C1938 1.399 . S
C1939 C1940 1.376 . S
C1940 H1927 0.930 . S
C1940 C1939 1.376 . S
C1940 C1941 1.388 . S
C1941 H1928 0.930 . S
C1941 C1940 1.388 . S
C1941 C1942 1.390 . S
C1942 C1941 1.390 . S
C1942 C1943 1.394 . S
C1942 C1948 1.465 . S
C1943 C1938 1.399 . S
C1943 C1942 1.394 . S
C1943 C1944 1.516 . S
C1944 C1943 1.516 . S
C1944 C1945 1.502 . S
C1944 C1946 1.561 . S
C1944 C1947 1.526 . S
C1945 H1929 0.959 . S
C1945 H1930 0.959 . S
C1945 H1931 0.961 . S
C1945 C1944 1.502 . S
C1946 H1932 0.960 . S
C1946 H1933 0.961 . S
C1946 H1934 0.959 . S
C1946 C1944 1.561 . S
C1947 C1944 1.526 . S
C1947 C1948 1.396 . S
C1947 C1952 1.390 . S
C1948 C1942 1.465 . S
C1948 C1947 1.396 . S
C1948 C1949 1.399 . S
C1949 H1935 0.929 . S
C1949 C1948 1.399 . S
C1949 C1950 1.385 . S
C1950 H1936 0.931 . S
C1950 C1949 1.385 . S
C1950 C1951 1.389 . S
C1951 C1950 1.389 . S
C1951 C1952 1.387 . S
C1952 H1937 0.930 . S
C1952 C1947 1.390 . S
C1952 C1951 1.387 . S
H1953 C1965 0.930 . S
H1954 C1967 0.930 . S
H1955 C1968 0.930 . S
H1956 C1972 0.959 . S
H1957 C1972 0.959 . S
H1958 C1972 0.961 . S
H1959 C1973 0.960 . S
H1960 C1973 0.961 . S
H1961 C1973 0.959 . S
H1962 C1976 0.929 . S
H1963 C1977 0.931 . S
H1964 C1979 0.930 . S
C1965 H1953 0.930 . S
C1965 C1966 1.399 . S
C1965 C1970 1.399 . S
C1966 C1965 1.399 . S
C1966 C1967 1.376 . S
C1967 H1954 0.930 . S
C1967 C1966 1.376 . S
C1967 C1968 1.388 . S
C1968 H1955 0.930 . S
C1968 C1967 1.388 . S
C1968 C1969 1.390 . S
C1969 C1968 1.390 . S
C1969 C1970 1.394 . S
C1969 C1975 1.465 . S
C1970 C1965 1.399 . S
C1970 C1969 1.394 . S
C1970 C1971 1.516 . S
C1971 C1970 1.516 . S
C1971 C1972 1.502 . S
C1971 C1973 1.561 . S
C1971 C1974 1.526 . S
C1972 H1956 0.959 . S
C1972 H1957 0.959 . S
C1972 H1958 0.961 . S
C1972 C1971 1.502 . S
C1973 H1959 0.960 . S
C1973 H1960 0.961 . S
C1973 H1961 0.959 . S
C1973 C1971 1.561 . S
C1974 C1971 1.526 . S
C1974 C1975 1.396 . S
C1974 C1979 1.390 . S
C1975 C1969 1.465 . S
C1975 C1974 1.396 . S
C1975 C1976 1.399 . S
C1976 H1962 0.929 . S
C1976 C1975 1.399 . S
C1976 C1977 1.385 . S
C1977 H1963 0.931 . S
C1977 C1976 1.385 . S
C1977 C1978 1.389 . S
C1978 C1977 1.389 . S
C1978 C1979 1.387 . S
C1979 H1964 0.930 . S
C1979 C1974 1.390 . S
C1979 C1978 1.387 . S
H1980 C1992 0.930 . S
H1981 C1994 0.930 . S
H1982 C1995 0.930 . S
H1983 C1999 0.959 . S
H1984 C1999 0.959 . S
H1985 C1999 0.961 . S
H1986 C2000 0.960 . S
H1987 C2000 0.961 . S
H1988 C2000 0.959 . S
H1989 C2003 0.929 . S
H1990 C2004 0.931 . S
H1991 C2006 0.930 . S
C1992 H1980 0.930 . S
C1992 C1993 1.399 . S
C1992 C1997 1.399 . S
C1993 C1992 1.399 . S
C1993 C1994 1.376 . S
C1994 H1981 0.930 . S
C1994 C1993 1.376 . S
C1994 C1995 1.388 . S
C1995 H1982 0.930 . S
C1995 C1994 1.388 . S
C1995 C1996 1.390 . S
C1996 C1995 1.390 . S
C1996 C1997 1.394 . S
C1996 C2002 1.465 . S
C1997 C1992 1.399 . S
C1997 C1996 1.394 . S
C1997 C1998 1.516 . S
C1998 C1997 1.516 . S
C1998 C1999 1.502 . S
C1998 C2000 1.561 . S
C1998 C2001 1.526 . S
C1999 H1983 0.959 . S
C1999 H1984 0.959 . S
C1999 H1985 0.961 . S
C1999 C1998 1.502 . S
C2000 H1986 0.960 . S
C2000 H1987 0.961 . S
C2000 H1988 0.959 . S
C2000 C1998 1.561 . S
C2001 C1998 1.526 . S
C2001 C2002 1.396 . S
C2001 C2006 1.390 . S
C2002 C1996 1.465 . S
C2002 C2001 1.396 . S
C2002 C2003 1.399 . S
C2003 H1989 0.929 . S
C2003 C2002 1.399 . S
C2003 C2004 1.385 . S
C2004 H1990 0.931 . S
C2004 C2003 1.385 . S
C2004 C2005 1.389 . S
C2005 C2004 1.389 . S
C2005 C2006 1.387 . S
C2006 H1991 0.930 . S
C2006 C2001 1.390 . S
C2006 C2005 1.387 . S
H2007 C2019 0.930 . S
H2008 C2021 0.930 . S
H2009 C2022 0.930 . S
H2010 C2026 0.959 . S
H2011 C2026 0.959 . S
H2012 C2026 0.961 . S
H2013 C2027 0.960 . S
H2014 C2027 0.961 . S
H2015 C2027 0.959 . S
H2016 C2030 0.929 . S
H2017 C2031 0.931 . S
H2018 C2033 0.930 . S
C2019 H2007 0.930 . S
C2019 C2020 1.399 . S
C2019 C2024 1.399 . S
C2020 C2019 1.399 . S
C2020 C2021 1.376 . S
C2021 H2008 0.930 . S
C2021 C2020 1.376 . S
C2021 C2022 1.388 . S
C2022 H2009 0.930 . S
C2022 C2021 1.388 . S
C2022 C2023 1.390 . S
C2023 C2022 1.390 . S
C2023 C2024 1.394 . S
C2023 C2029 1.465 . S
C2024 C2019 1.399 . S
C2024 C2023 1.394 . S
C2024 C2025 1.516 . S
C2025 C2024 1.516 . S
C2025 C2026 1.502 . S
C2025 C2027 1.561 . S
C2025 C2028 1.526 . S
C2026 H2010 0.959 . S
C2026 H2011 0.959 . S
C2026 H2012 0.961 . S
C2026 C2025 1.502 . S
C2027 H2013 0.960 . S
C2027 H2014 0.961 . S
C2027 H2015 0.959 . S
C2027 C2025 1.561 . S
C2028 C2025 1.526 . S
C2028 C2029 1.396 . S
C2028 C2033 1.390 . S
C2029 C2023 1.465 . S
C2029 C2028 1.396 . S
C2029 C2030 1.399 . S
C2030 H2016 0.929 . S
C2030 C2029 1.399 . S
C2030 C2031 1.385 . S
C2031 H2017 0.931 . S
C2031 C2030 1.385 . S
C2031 C2032 1.389 . S
C2032 C2031 1.389 . S
C2032 C2033 1.387 . S
C2033 H2018 0.930 . S
C2033 C2028 1.390 . S
C2033 C2032 1.387 . S
H2034 C2046 0.930 . S
H2035 C2048 0.930 . S
H2036 C2049 0.930 . S
H2037 C2053 0.959 . S
H2038 C2053 0.959 . S
H2039 C2053 0.961 . S
H2040 C2054 0.960 . S
H2041 C2054 0.961 . S
H2042 C2054 0.959 . S
H2043 C2057 0.929 . S
H2044 C2058 0.931 . S
H2045 C2060 0.930 . S
C2046 H2034 0.930 . S
C2046 C2047 1.399 . S
C2046 C2051 1.399 . S
C2047 C2046 1.399 . S
C2047 C2048 1.376 . S
C2048 H2035 0.930 . S
C2048 C2047 1.376 . S
C2048 C2049 1.388 . S
C2049 H2036 0.930 . S
C2049 C2048 1.388 . S
C2049 C2050 1.390 . S
C2050 C2049 1.390 . S
C2050 C2051 1.394 . S
C2050 C2056 1.465 . S
C2051 C2046 1.399 . S
C2051 C2050 1.394 . S
C2051 C2052 1.516 . S
C2052 C2051 1.516 . S
C2052 C2053 1.502 . S
C2052 C2054 1.561 . S
C2052 C2055 1.526 . S
C2053 H2037 0.959 . S
C2053 H2038 0.959 . S
C2053 H2039 0.961 . S
C2053 C2052 1.502 . S
C2054 H2040 0.960 . S
C2054 H2041 0.961 . S
C2054 H2042 0.959 . S
C2054 C2052 1.561 . S
C2055 C2052 1.526 . S
C2055 C2056 1.396 . S
C2055 C2060 1.390 . S
C2056 C2050 1.465 . S
C2056 C2055 1.396 . S
C2056 C2057 1.399 . S
C2057 H2043 0.929 . S
C2057 C2056 1.399 . S
C2057 C2058 1.385 . S
C2058 H2044 0.931 . S
C2058 C2057 1.385 . S
C2058 C2059 1.389 . S
C2059 C2058 1.389 . S
C2059 C2060 1.387 . S
C2060 H2045 0.930 . S
C2060 C2055 1.390 . S
C2060 C2059 1.387 . S
H2061 C2073 0.930 . S
H2062 C2075 0.930 . S
H2063 C2076 0.930 . S
H2064 C2080 0.959 . S
H2065 C2080 0.959 . S
H2066 C2080 0.961 . S
H2067 C2081 0.960 . S
H2068 C2081 0.961 . S
H2069 C2081 0.959 . S
H2070 C2084 0.929 . S
H2071 C2085 0.931 . S
H2072 C2087 0.930 . S
C2073 H2061 0.930 . S
C2073 C2074 1.399 . S
C2073 C2078 1.399 . S
C2074 C2073 1.399 . S
C2074 C2075 1.376 . S
C2075 H2062 0.930 . S
C2075 C2074 1.376 . S
C2075 C2076 1.388 . S
C2076 H2063 0.930 . S
C2076 C2075 1.388 . S
C2076 C2077 1.390 . S
C2077 C2076 1.390 . S
C2077 C2078 1.394 . S
C2077 C2083 1.465 . S
C2078 C2073 1.399 . S
C2078 C2077 1.394 . S
C2078 C2079 1.516 . S
C2079 C2078 1.516 . S
C2079 C2080 1.502 . S
C2079 C2081 1.561 . S
C2079 C2082 1.526 . S
C2080 H2064 0.959 . S
C2080 H2065 0.959 . S
C2080 H2066 0.961 . S
C2080 C2079 1.502 . S
C2081 H2067 0.960 . S
C2081 H2068 0.961 . S
C2081 H2069 0.959 . S
C2081 C2079 1.561 . S
C2082 C2079 1.526 . S
C2082 C2083 1.396 . S
C2082 C2087 1.390 . S
C2083 C2077 1.465 . S
C2083 C2082 1.396 . S
C2083 C2084 1.399 . S
C2084 H2070 0.929 . S
C2084 C2083 1.399 . S
C2084 C2085 1.385 . S
C2085 H2071 0.931 . S
C2085 C2084 1.385 . S
C2085 C2086 1.389 . S
C2086 C2085 1.389 . S
C2086 C2087 1.387 . S
C2087 H2072 0.930 . S
C2087 C2082 1.390 . S
C2087 C2086 1.387 . S
H2088 C2100 0.930 . S
H2089 C2102 0.930 . S
H2090 C2103 0.930 . S
H2091 C2107 0.959 . S
H2092 C2107 0.959 . S
H2093 C2107 0.961 . S
H2094 C2108 0.960 . S
H2095 C2108 0.961 . S
H2096 C2108 0.959 . S
H2097 C2111 0.929 . S
H2098 C2112 0.931 . S
H2099 C2114 0.930 . S
C2100 H2088 0.930 . S
C2100 C2101 1.399 . S
C2100 C2105 1.399 . S
C2101 C2100 1.399 . S
C2101 C2102 1.376 . S
C2102 H2089 0.930 . S
C2102 C2101 1.376 . S
C2102 C2103 1.388 . S
C2103 H2090 0.930 . S
C2103 C2102 1.388 . S
C2103 C2104 1.390 . S
C2104 C2103 1.390 . S
C2104 C2105 1.394 . S
C2104 C2110 1.465 . S
C2105 C2100 1.399 . S
C2105 C2104 1.394 . S
C2105 C2106 1.516 . S
C2106 C2105 1.516 . S
C2106 C2107 1.502 . S
C2106 C2108 1.561 . S
C2106 C2109 1.526 . S
C2107 H2091 0.959 . S
C2107 H2092 0.959 . S
C2107 H2093 0.961 . S
C2107 C2106 1.502 . S
C2108 H2094 0.960 . S
C2108 H2095 0.961 . S
C2108 H2096 0.959 . S
C2108 C2106 1.561 . S
C2109 C2106 1.526 . S
C2109 C2110 1.396 . S
C2109 C2114 1.390 . S
C2110 C2104 1.465 . S
C2110 C2109 1.396 . S
C2110 C2111 1.399 . S
C2111 H2097 0.929 . S
C2111 C2110 1.399 . S
C2111 C2112 1.385 . S
C2112 H2098 0.931 . S
C2112 C2111 1.385 . S
C2112 C2113 1.389 . S
C2113 C2112 1.389 . S
C2113 C2114 1.387 . S
C2114 H2099 0.930 . S
C2114 C2109 1.390 . S
C2114 C2113 1.387 . S
H2115 C2127 0.930 . S
H2116 C2129 0.930 . S
H2117 C2130 0.930 . S
H2118 C2134 0.959 . S
H2119 C2134 0.959 . S
H2120 C2134 0.961 . S
H2121 C2135 0.960 . S
H2122 C2135 0.961 . S
H2123 C2135 0.959 . S
H2124 C2138 0.929 . S
H2125 C2139 0.931 . S
H2126 C2141 0.930 . S
C2127 H2115 0.930 . S
C2127 C2128 1.399 . S
C2127 C2132 1.399 . S
C2128 C2127 1.399 . S
C2128 C2129 1.376 . S
C2129 H2116 0.930 . S
C2129 C2128 1.376 . S
C2129 C2130 1.388 . S
C2130 H2117 0.930 . S
C2130 C2129 1.388 . S
C2130 C2131 1.390 . S
C2131 C2130 1.390 . S
C2131 C2132 1.394 . S
C2131 C2137 1.465 . S
C2132 C2127 1.399 . S
C2132 C2131 1.394 . S
C2132 C2133 1.516 . S
C2133 C2132 1.516 . S
C2133 C2134 1.502 . S
C2133 C2135 1.561 . S
C2133 C2136 1.526 . S
C2134 H2118 0.959 . S
C2134 H2119 0.959 . S
C2134 H2120 0.961 . S
C2134 C2133 1.502 . S
C2135 H2121 0.960 . S
C2135 H2122 0.961 . S
C2135 H2123 0.959 . S
C2135 C2133 1.561 . S
C2136 C2133 1.526 . S
C2136 C2137 1.396 . S
C2136 C2141 1.390 . S
C2137 C2131 1.465 . S
C2137 C2136 1.396 . S
C2137 C2138 1.399 . S
C2138 H2124 0.929 . S
C2138 C2137 1.399 . S
C2138 C2139 1.385 . S
C2139 H2125 0.931 . S
C2139 C2138 1.385 . S
C2139 C2140 1.389 . S
C2140 C2139 1.389 . S
C2140 C2141 1.387 . S
C2141 H2126 0.930 . S
C2141 C2136 1.390 . S
C2141 C2140 1.387 . S
H2142 C2154 0.930 . S
H2143 C2156 0.930 . S
H2144 C2157 0.930 . S
H2145 C2161 0.959 . S
H2146 C2161 0.959 . S
H2147 C2161 0.961 . S
H2148 C2162 0.960 . S
H2149 C2162 0.961 . S
H2150 C2162 0.959 . S
H2151 C2165 0.929 . S
H2152 C2166 0.931 . S
H2153 C2168 0.930 . S
C2154 H2142 0.930 . S
C2154 C2155 1.399 . S
C2154 C2159 1.399 . S
C2155 C2154 1.399 . S
C2155 C2156 1.376 . S
C2156 H2143 0.930 . S
C2156 C2155 1.376 . S
C2156 C2157 1.388 . S
C2157 H2144 0.930 . S
C2157 C2156 1.388 . S
C2157 C2158 1.390 . S
C2158 C2157 1.390 . S
C2158 C2159 1.394 . S
C2158 C2164 1.465 . S
C2159 C2154 1.399 . S
C2159 C2158 1.394 . S
C2159 C2160 1.516 . S
C2160 C2159 1.516 . S
C2160 C2161 1.502 . S
C2160 C2162 1.561 . S
C2160 C2163 1.526 . S
C2161 H2145 0.959 . S
C2161 H2146 0.959 . S
C2161 H2147 0.961 . S
C2161 C2160 1.502 . S
C2162 H2148 0.960 . S
C2162 H2149 0.961 . S
C2162 H2150 0.959 . S
C2162 C2160 1.561 . S
C2163 C2160 1.526 . S
C2163 C2164 1.396 . S
C2163 C2168 1.390 . S
C2164 C2158 1.465 . S
C2164 C2163 1.396 . S
C2164 C2165 1.399 . S
C2165 H2151 0.929 . S
C2165 C2164 1.399 . S
C2165 C2166 1.385 . S
C2166 H2152 0.931 . S
C2166 C2165 1.385 . S
C2166 C2167 1.389 . S
C2167 C2166 1.389 . S
C2167 C2168 1.387 . S
C2168 H2153 0.930 . S
C2168 C2163 1.390 . S
C2168 C2167 1.387 . S
H2169 C2181 0.930 . S
H2170 C2183 0.930 . S
H2171 C2184 0.930 . S
H2172 C2188 0.959 . S
H2173 C2188 0.959 . S
H2174 C2188 0.961 . S
H2175 C2189 0.960 . S
H2176 C2189 0.961 . S
H2177 C2189 0.959 . S
H2178 C2192 0.929 . S
H2179 C2193 0.931 . S
H2180 C2195 0.930 . S
C2181 H2169 0.930 . S
C2181 C2182 1.399 . S
C2181 C2186 1.399 . S
C2182 C2181 1.399 . S
C2182 C2183 1.376 . S
C2183 H2170 0.930 . S
C2183 C2182 1.376 . S
C2183 C2184 1.388 . S
C2184 H2171 0.930 . S
C2184 C2183 1.388 . S
C2184 C2185 1.390 . S
C2185 C2184 1.390 . S
C2185 C2186 1.394 . S
C2185 C2191 1.465 . S
C2186 C2181 1.399 . S
C2186 C2185 1.394 . S
C2186 C2187 1.516 . S
C2187 C2186 1.516 . S
C2187 C2188 1.502 . S
C2187 C2189 1.561 . S
C2187 C2190 1.526 . S
C2188 H2172 0.959 . S
C2188 H2173 0.959 . S
C2188 H2174 0.961 . S
C2188 C2187 1.502 . S
C2189 H2175 0.960 . S
C2189 H2176 0.961 . S
C2189 H2177 0.959 . S
C2189 C2187 1.561 . S
C2190 C2187 1.526 . S
C2190 C2191 1.396 . S
C2190 C2195 1.390 . S
C2191 C2185 1.465 . S
C2191 C2190 1.396 . S
C2191 C2192 1.399 . S
C2192 H2178 0.929 . S
C2192 C2191 1.399 . S
C2192 C2193 1.385 . S
C2193 H2179 0.931 . S
C2193 C2192 1.385 . S
C2193 C2194 1.389 . S
C2194 C2193 1.389 . S
C2194 C2195 1.387 . S
C2195 H2180 0.930 . S
C2195 C2190 1.390 . S
C2195 C2194 1.387 . S
H2196 C2208 0.930 . S
H2197 C2210 0.930 . S
H2198 C2211 0.930 . S
H2199 C2215 0.959 . S
H2200 C2215 0.959 . S
H2201 C2215 0.961 . S
H2202 C2216 0.960 . S
H2203 C2216 0.961 . S
H2204 C2216 0.959 . S
H2205 C2219 0.929 . S
H2206 C2220 0.931 . S
H2207 C2222 0.930 . S
C2208 H2196 0.930 . S
C2208 C2209 1.399 . S
C2208 C2213 1.399 . S
C2209 C2208 1.399 . S
C2209 C2210 1.376 . S
C2210 H2197 0.930 . S
C2210 C2209 1.376 . S
C2210 C2211 1.388 . S
C2211 H2198 0.930 . S
C2211 C2210 1.388 . S
C2211 C2212 1.390 . S
C2212 C2211 1.390 . S
C2212 C2213 1.394 . S
C2212 C2218 1.465 . S
C2213 C2208 1.399 . S
C2213 C2212 1.394 . S
C2213 C2214 1.516 . S
C2214 C2213 1.516 . S
C2214 C2215 1.502 . S
C2214 C2216 1.561 . S
C2214 C2217 1.526 . S
C2215 H2199 0.959 . S
C2215 H2200 0.959 . S
C2215 H2201 0.961 . S
C2215 C2214 1.502 . S
C2216 H2202 0.960 . S
C2216 H2203 0.961 . S
C2216 H2204 0.959 . S
C2216 C2214 1.561 . S
C2217 C2214 1.526 . S
C2217 C2218 1.396 . S
C2217 C2222 1.390 . S
C2218 C2212 1.465 . S
C2218 C2217 1.396 . S
C2218 C2219 1.399 . S
C2219 H2205 0.929 . S
C2219 C2218 1.399 . S
C2219 C2220 1.385 . S
C2220 H2206 0.931 . S
C2220 C2219 1.385 . S
C2220 C2221 1.389 . S
C2221 C2220 1.389 . S
C2221 C2222 1.387 . S
C2222 H2207 0.930 . S
C2222 C2217 1.390 . S
C2222 C2221 1.387 . S
H2223 C2235 0.930 . S
H2224 C2237 0.930 . S
H2225 C2238 0.930 . S
H2226 C2242 0.959 . S
H2227 C2242 0.959 . S
H2228 C2242 0.961 . S
H2229 C2243 0.960 . S
H2230 C2243 0.961 . S
H2231 C2243 0.959 . S
H2232 C2246 0.929 . S
H2233 C2247 0.931 . S
H2234 C2249 0.930 . S
C2235 H2223 0.930 . S
C2235 C2236 1.399 . S
C2235 C2240 1.399 . S
C2236 C2235 1.399 . S
C2236 C2237 1.376 . S
C2237 H2224 0.930 . S
C2237 C2236 1.376 . S
C2237 C2238 1.388 . S
C2238 H2225 0.930 . S
C2238 C2237 1.388 . S
C2238 C2239 1.390 . S
C2239 C2238 1.390 . S
C2239 C2240 1.394 . S
C2239 C2245 1.465 . S
C2240 C2235 1.399 . S
C2240 C2239 1.394 . S
C2240 C2241 1.516 . S
C2241 C2240 1.516 . S
C2241 C2242 1.502 . S
C2241 C2243 1.561 . S
C2241 C2244 1.526 . S
C2242 H2226 0.959 . S
C2242 H2227 0.959 . S
C2242 H2228 0.961 . S
C2242 C2241 1.502 . S
C2243 H2229 0.960 . S
C2243 H2230 0.961 . S
C2243 H2231 0.959 . S
C2243 C2241 1.561 . S
C2244 C2241 1.526 . S
C2244 C2245 1.396 . S
C2244 C2249 1.390 . S
C2245 C2239 1.465 . S
C2245 C2244 1.396 . S
C2245 C2246 1.399 . S
C2246 H2232 0.929 . S
C2246 C2245 1.399 . S
C2246 C2247 1.385 . S
C2247 H2233 0.931 . S
C2247 C2246 1.385 . S
C2247 C2248 1.389 . S
C2248 C2247 1.389 . S
C2248 C2249 1.387 . S
C2249 H2234 0.930 . S
C2249 C2244 1.390 . S
C2249 C2248 1.387 . S
H2250 C2262 0.930 . S
H2251 C2264 0.930 . S
H2252 C2265 0.930 . S
H2253 C2269 0.959 . S
H2254 C2269 0.959 . S
H2255 C2269 0.961 . S
H2256 C2270 0.960 . S
H2257 C2270 0.961 . S
H2258 C2270 0.959 . S
H2259 C2273 0.929 . S
H2260 C2274 0.931 . S
H2261 C2276 0.930 . S
C2262 H2250 0.930 . S
C2262 C2263 1.399 . S
C2262 C2267 1.399 . S
C2263 C2262 1.399 . S
C2263 C2264 1.376 . S
C2264 H2251 0.930 . S
C2264 C2263 1.376 . S
C2264 C2265 1.388 . S
C2265 H2252 0.930 . S
C2265 C2264 1.388 . S
C2265 C2266 1.390 . S
C2266 C2265 1.390 . S
C2266 C2267 1.394 . S
C2266 C2272 1.465 . S
C2267 C2262 1.399 . S
C2267 C2266 1.394 . S
C2267 C2268 1.516 . S
C2268 C2267 1.516 . S
C2268 C2269 1.502 . S
C2268 C2270 1.561 . S
C2268 C2271 1.526 . S
C2269 H2253 0.959 . S
C2269 H2254 0.959 . S
C2269 H2255 0.961 . S
C2269 C2268 1.502 . S
C2270 H2256 0.960 . S
C2270 H2257 0.961 . S
C2270 H2258 0.959 . S
C2270 C2268 1.561 . S
C2271 C2268 1.526 . S
C2271 C2272 1.396 . S
C2271 C2276 1.390 . S
C2272 C2266 1.465 . S
C2272 C2271 1.396 . S
C2272 C2273 1.399 . S
C2273 H2259 0.929 . S
C2273 C2272 1.399 . S
C2273 C2274 1.385 . S
C2274 H2260 0.931 . S
C2274 C2273 1.385 . S
C2274 C2275 1.389 . S
C2275 C2274 1.389 . S
C2275 C2276 1.387 . S
C2276 H2261 0.930 . S
C2276 C2271 1.390 . S
C2276 C2275 1.387 . S
H2277 C2289 0.930 . S
H2278 C2291 0.930 . S
H2279 C2292 0.930 . S
H2280 C2296 0.959 . S
H2281 C2296 0.959 . S
H2282 C2296 0.961 . S
H2283 C2297 0.960 . S
H2284 C2297 0.961 . S
H2285 C2297 0.959 . S
H2286 C2300 0.929 . S
H2287 C2301 0.931 . S
H2288 C2303 0.930 . S
C2289 H2277 0.930 . S
C2289 C2290 1.399 . S
C2289 C2294 1.399 . S
C2290 C2289 1.399 . S
C2290 C2291 1.376 . S
C2291 H2278 0.930 . S
C2291 C2290 1.376 . S
C2291 C2292 1.388 . S
C2292 H2279 0.930 . S
C2292 C2291 1.388 . S
C2292 C2293 1.390 . S
C2293 C2292 1.390 . S
C2293 C2294 1.394 . S
C2293 C2299 1.465 . S
C2294 C2289 1.399 . S
C2294 C2293 1.394 . S
C2294 C2295 1.516 . S
C2295 C2294 1.516 . S
C2295 C2296 1.502 . S
C2295 C2297 1.561 . S
C2295 C2298 1.526 . S
C2296 H2280 0.959 . S
C2296 H2281 0.959 . S
C2296 H2282 0.961 . S
C2296 C2295 1.502 . S
C2297 H2283 0.960 . S
C2297 H2284 0.961 . S
C2297 H2285 0.959 . S
C2297 C2295 1.561 . S
C2298 C2295 1.526 . S
C2298 C2299 1.396 . S
C2298 C2303 1.390 . S
C2299 C2293 1.465 . S
C2299 C2298 1.396 . S
C2299 C2300 1.399 . S
C2300 H2286 0.929 . S
C2300 C2299 1.399 . S
C2300 C2301 1.385 . S
C2301 H2287 0.931 . S
C2301 C2300 1.385 . S
C2301 C2302 1.389 . S
C2302 C2301 1.389 . S
C2302 C2303 1.387 . S
C2303 H2288 0.930 . S
C2303 C2298 1.390 . S
C2303 C2302 1.387 . S
H2304 C2316 0.930 . S
H2305 C2318 0.930 . S
H2306 C2319 0.930 . S
H2307 C2323 0.959 . S
H2308 C2323 0.959 . S
H2309 C2323 0.961 . S
H2310 C2324 0.960 . S
H2311 C2324 0.961 . S
H2312 C2324 0.959 . S
H2313 C2327 0.929 . S
H2314 C2328 0.931 . S
H2315 C2330 0.930 . S
C2316 H2304 0.930 . S
C2316 C2317 1.399 . S
C2316 C2321 1.399 . S
C2317 C2316 1.399 . S
C2317 C2318 1.376 . S
C2318 H2305 0.930 . S
C2318 C2317 1.376 . S
C2318 C2319 1.388 . S
C2319 H2306 0.930 . S
C2319 C2318 1.388 . S
C2319 C2320 1.390 . S
C2320 C2319 1.390 . S
C2320 C2321 1.394 . S
C2320 C2326 1.465 . S
C2321 C2316 1.399 . S
C2321 C2320 1.394 . S
C2321 C2322 1.516 . S
C2322 C2321 1.516 . S
C2322 C2323 1.502 . S
C2322 C2324 1.561 . S
C2322 C2325 1.526 . S
C2323 H2307 0.959 . S
C2323 H2308 0.959 . S
C2323 H2309 0.961 . S
C2323 C2322 1.502 . S
C2324 H2310 0.960 . S
C2324 H2311 0.961 . S
C2324 H2312 0.959 . S
C2324 C2322 1.561 . S
C2325 C2322 1.526 . S
C2325 C2326 1.396 . S
C2325 C2330 1.390 . S
C2326 C2320 1.465 . S
C2326 C2325 1.396 . S
C2326 C2327 1.399 . S
C2327 H2313 0.929 . S
C2327 C2326 1.399 . S
C2327 C2328 1.385 . S
C2328 H2314 0.931 . S
C2328 C2327 1.385 . S
C2328 C2329 1.389 . S
C2329 C2328 1.389 . S
C2329 C2330 1.387 . S
C2330 H2315 0.930 . S
C2330 C2325 1.390 . S
C2330 C2329 1.387 . S
H2331 C2343 0.930 . S
H2332 C2345 0.930 . S
H2333 C2346 0.930 . S
H2334 C2350 0.959 . S
H2335 C2350 0.959 . S
H2336 C2350 0.961 . S
H2337 C2351 0.960 . S
H2338 C2351 0.961 . S
H2339 C2351 0.959 . S
H2340 C2354 0.929 . S
H2341 C2355 0.931 . S
H2342 C2357 0.930 . S
C2343 H2331 0.930 . S
C2343 C2344 1.399 . S
C2343 C2348 1.399 . S
C2344 C2343 1.399 . S
C2344 C2345 1.376 . S
C2345 H2332 0.930 . S
C2345 C2344 1.376 . S
C2345 C2346 1.388 . S
C2346 H2333 0.930 . S
C2346 C2345 1.388 . S
C2346 C2347 1.390 . S
C2347 C2346 1.390 . S
C2347 C2348 1.394 . S
C2347 C2353 1.465 . S
C2348 C2343 1.399 . S
C2348 C2347 1.394 . S
C2348 C2349 1.516 . S
C2349 C2348 1.516 . S
C2349 C2350 1.502 . S
C2349 C2351 1.561 . S
C2349 C2352 1.526 . S
C2350 H2334 0.959 . S
C2350 H2335 0.959 . S
C2350 H2336 0.961 . S
C2350 C2349 1.502 . S
C2351 H2337 0.960 . S
C2351 H2338 0.961 . S
C2351 H2339 0.959 . S
C2351 C2349 1.561 . S
C2352 C2349 1.526 . S
C2352 C2353 1.396 . S
C2352 C2357 1.390 . S
C2353 C2347 1.465 . S
C2353 C2352 1.396 . S
C2353 C2354 1.399 . S
C2354 H2340 0.929 . S
C2354 C2353 1.399 . S
C2354 C2355 1.385 . S
C2355 H2341 0.931 . S
C2355 C2354 1.385 . S
C2355 C2356 1.389 . S
C2356 C2355 1.389 . S
C2356 C2357 1.387 . S
C2357 H2342 0.930 . S
C2357 C2352 1.390 . S
C2357 C2356 1.387 . S
H2358 C2370 0.930 . S
H2359 C2372 0.930 . S
H2360 C2373 0.930 . S
H2361 C2377 0.959 . S
H2362 C2377 0.959 . S
H2363 C2377 0.961 . S
H2364 C2378 0.960 . S
H2365 C2378 0.961 . S
H2366 C2378 0.959 . S
H2367 C2381 0.929 . S
H2368 C2382 0.931 . S
H2369 C2384 0.930 . S
C2370 H2358 0.930 . S
C2370 C2371 1.399 . S
C2370 C2375 1.399 . S
C2371 C2370 1.399 . S
C2371 C2372 1.376 . S
C2372 H2359 0.930 . S
C2372 C2371 1.376 . S
C2372 C2373 1.388 . S
C2373 H2360 0.930 . S
C2373 C2372 1.388 . S
C2373 C2374 1.390 . S
C2374 C2373 1.390 . S
C2374 C2375 1.394 . S
C2374 C2380 1.465 . S
C2375 C2370 1.399 . S
C2375 C2374 1.394 . S
C2375 C2376 1.516 . S
C2376 C2375 1.516 . S
C2376 C2377 1.502 . S
C2376 C2378 1.561 . S
C2376 C2379 1.526 . S
C2377 H2361 0.959 . S
C2377 H2362 0.959 . S
C2377 H2363 0.961 . S
C2377 C2376 1.502 . S
C2378 H2364 0.960 . S
C2378 H2365 0.961 . S
C2378 H2366 0.959 . S
C2378 C2376 1.561 . S
C2379 C2376 1.526 . S
C2379 C2380 1.396 . S
C2379 C2384 1.390 . S
C2380 C2374 1.465 . S
C2380 C2379 1.396 . S
C2380 C2381 1.399 . S
C2381 H2367 0.929 . S
C2381 C2380 1.399 . S
C2381 C2382 1.385 . S
C2382 H2368 0.931 . S
C2382 C2381 1.385 . S
C2382 C2383 1.389 . S
C2383 C2382 1.389 . S
C2383 C2384 1.387 . S
C2384 H2369 0.930 . S
C2384 C2379 1.390 . S
C2384 C2383 1.387 . S
H2385 C2397 0.930 . S
H2386 C2399 0.930 . S
H2387 C2400 0.930 . S
H2388 C2404 0.959 . S
H2389 C2404 0.959 . S
H2390 C2404 0.961 . S
H2391 C2405 0.960 . S
H2392 C2405 0.961 . S
H2393 C2405 0.959 . S
H2394 C2408 0.929 . S
H2395 C2409 0.931 . S
H2396 C2411 0.930 . S
C2397 H2385 0.930 . S
C2397 C2398 1.399 . S
C2397 C2402 1.399 . S
C2398 C2397 1.399 . S
C2398 C2399 1.376 . S
C2399 H2386 0.930 . S
C2399 C2398 1.376 . S
C2399 C2400 1.388 . S
C2400 H2387 0.930 . S
C2400 C2399 1.388 . S
C2400 C2401 1.390 . S
C2401 C2400 1.390 . S
C2401 C2402 1.394 . S
C2401 C2407 1.465 . S
C2402 C2397 1.399 . S
C2402 C2401 1.394 . S
C2402 C2403 1.516 . S
C2403 C2402 1.516 . S
C2403 C2404 1.502 . S
C2403 C2405 1.561 . S
C2403 C2406 1.526 . S
C2404 H2388 0.959 . S
C2404 H2389 0.959 . S
C2404 H2390 0.961 . S
C2404 C2403 1.502 . S
C2405 H2391 0.960 . S
C2405 H2392 0.961 . S
C2405 H2393 0.959 . S
C2405 C2403 1.561 . S
C2406 C2403 1.526 . S
C2406 C2407 1.396 . S
C2406 C2411 1.390 . S
C2407 C2401 1.465 . S
C2407 C2406 1.396 . S
C2407 C2408 1.399 . S
C2408 H2394 0.929 . S
C2408 C2407 1.399 . S
C2408 C2409 1.385 . S
C2409 H2395 0.931 . S
C2409 C2408 1.385 . S
C2409 C2410 1.389 . S
C2410 C2409 1.389 . S
C2410 C2411 1.387 . S
C2411 H2396 0.930 . S
C2411 C2406 1.390 . S
C2411 C2410 1.387 . S
C481 C8 1.362 . S
C493 C242 1.345 . S
C508 C255 1.347 . S
C520 C21 1.361 . S
C535 C268 1.359 . S
C547 C34 1.349 . S
C562 C47 1.329 . S
C574 C437 1.376 . S
C589 C60 1.326 . S
C601 C450 1.378 . S
C616 C73 1.337 . S
C628 C463 1.347 . S
C643 C320 1.334 . S
C655 C86 1.350 . S
C670 C99 1.359 . S
C682 C333 1.349 . S
C697 C112 1.364 . S
C709 C346 1.343 . S
C724 C203 1.320 . S
C736 C125 1.382 . S
C751 C216 1.336 . S
C763 C138 1.370 . S
C778 C229 1.338 . S
C790 C151 1.346 . S
C805 C398 1.310 . S
C817 C164 1.379 . S
C832 C411 1.379 . S
C844 C177 1.311 . S
C859 C190 1.314 . S
C871 C424 1.373 . S
C886 C359 1.313 . S
C898 C281 1.385 . S
C913 C294 1.325 . S
C925 C372 1.378 . S
C940 C307 1.310 . S
C952 C385 1.386 . S
C967 C0 1.332 . S
C979 C351 1.336 . S
C994 C364 1.373 . S
C1006 C13 1.346 . S
C1021 C377 1.365 . S
C1033 C26 1.397 . S
C1048 C156 1.371 . S
C1060 C39 1.402 . S
C1075 C169 1.408 . S
C1087 C52 1.430 . S
C1102 C182 1.342 . S
C1114 C65 1.332 . S
C1129 C78 1.439 . S
C1141 C273 1.407 . S
C1156 C286 1.337 . S
C1168 C91 1.344 . S
C1183 C299 1.379 . S
C1195 C104 1.432 . S
C1210 C117 1.348 . S
C1222 C390 1.410 . S
C1237 C130 1.334 . S
C1249 C403 1.388 . S
C1264 C143 1.330 . S
C1276 C416 1.372 . S
C1291 C195 1.418 . S
C1303 C312 1.435 . S
C1318 C208 1.398 . S
C1330 C325 1.424 . S
C1345 C221 1.419 . S
C1357 C338 1.436 . S
C1372 C234 1.331 . S
C1384 C429 1.362 . S
C1399 C442 1.337 . S
C1411 C247 1.393 . S
C1426 C260 1.414 . S
C1438 C455 1.353 . S
C1453 C23 1.096 1_455 S
C1465 C5 0.947 . S
C1480 C18 0.833 . S
C1492 C36 1.094 . S
C1507 C31 0.834 . S
C1519 C10 1.094 1_565 S
C1534 C44 1.040 . S
C1546 C75 1.073 1_545 S
C1561 C49 1.096 1_655 S
C1573 C57 0.953 . S
C1588 C70 0.952 . S
C1600 C62 1.072 . S
C1615 C83 1.043 . S
C1627 C101 1.082 1_655 S
C1642 C96 0.960 . S
C1654 C114 1.070 . S
C1669 C109 0.980 . S
C1681 C88 1.098 1_545 S
C1696 C153 1.074 1_565 S
C1708 C122 1.012 . S
C1723 C135 0.963 . S
C1735 C127 1.070 1_455 S
C1750 C140 1.073 . S
C1762 C148 0.877 . S
C1777 C179 1.077 . S
C1789 C161 1.043 . S
C1804 C192 1.098 . S
C1816 C174 0.916 . S
C1831 C166 1.089 . S
C1843 C187 1.009 . S
C1858 C200 0.833 . S
C1870 C231 1.091 . S
C1885 C213 1.021 . S
C1897 C205 1.087 . S
C1912 C226 0.894 . S
C1924 C218 1.078 . S
C1939 C257 1.098 . S
C1951 C239 0.989 . S
C1966 C252 0.920 . S
C1978 C270 1.070 . S
C1993 C265 0.939 . S
C2005 C244 1.099 . S
C2020 C278 0.850 . S
C2032 C309 1.077 . S
C2047 C291 0.972 . S
C2059 C283 1.099 . S
C2074 C296 1.072 . S
C2086 C304 0.887 . S
C2101 C335 1.094 . S
C2113 C317 0.976 . S
C2128 C330 1.045 . S
C2140 C348 1.076 . S
C2155 C322 1.078 . S
C2167 C343 0.892 . S
C2182 C356 0.836 . S
C2194 C387 1.095 . S
C2209 C369 0.854 . S
C2221 C361 1.098 . S
C2236 C382 0.954 . S
C2248 C374 1.096 . S
C2263 C395 1.045 . S
C2275 C413 1.086 . S
C2290 C408 0.884 . S
C2302 C426 1.072 . S
C2317 C421 0.984 . S
C2329 C400 1.072 . S
C2344 C434 0.856 . S
C2356 C465 1.075 . S
C2371 C447 0.882 . S
C2383 C439 1.072 . S
C2398 C452 1.073 . S
C2410 C460 1.003 . S
