# Generated by pormake.
# Topology smm, (6)-cn, num edge types: 1
# Building blocks:
#     Node 0, Type 0, BuildingBlock: UKALOJ_clean_sbu_0, # of connection points: 6
#     Node 1, Type 0, BuildingBlock: UKALOJ_clean_sbu_0, # of connection points: 6
#     Node 2, Type 0, BuildingBlock: UKALOJ_clean_sbu_0, # of connection points: 6
#     Node 3, Type 0, BuildingBlock: UKALOJ_clean_sbu_0, # of connection points: 6
#     Node 4, Type 0, BuildingBlock: UKALOJ_clean_sbu_0, # of connection points: 6
#     Node 5, Type 0, BuildingBlock: UKALOJ_clean_sbu_0, # of connection points: 6
#     Node 6, Type 0, BuildingBlock: UKALOJ_clean_sbu_0, # of connection points: 6
#     Node 7, Type 0, BuildingBlock: UKALOJ_clean_sbu_0, # of connection points: 6
#     Node 8, Type 0, BuildingBlock: UKALOJ_clean_sbu_0, # of connection points: 6
#     Edge 9, Type (0, 0), BuildingBlock: XIVTED_clean_linker_0, # of connection points: 2
#     Edge 10, Type (0, 0), BuildingBlock: XIVTED_clean_linker_0, # of connection points: 2
#     Edge 11, Type (0, 0), BuildingBlock: XIVTED_clean_linker_0, # of connection points: 2
#     Edge 12, Type (0, 0), BuildingBlock: XIVTED_clean_linker_0, # of connection points: 2
#     Edge 13, Type (0, 0), BuildingBlock: XIVTED_clean_linker_0, # of connection points: 2
#     Edge 14, Type (0, 0), BuildingBlock: XIVTED_clean_linker_0, # of connection points: 2
#     Edge 15, Type (0, 0), BuildingBlock: XIVTED_clean_linker_0, # of connection points: 2
#     Edge 16, Type (0, 0), BuildingBlock: XIVTED_clean_linker_0, # of connection points: 2
#     Edge 17, Type (0, 0), BuildingBlock: XIVTED_clean_linker_0, # of connection points: 2
#     Edge 18, Type (0, 0), BuildingBlock: XIVTED_clean_linker_0, # of connection points: 2
#     Edge 19, Type (0, 0), BuildingBlock: XIVTED_clean_linker_0, # of connection points: 2
#     Edge 20, Type (0, 0), BuildingBlock: XIVTED_clean_linker_0, # of connection points: 2
#     Edge 21, Type (0, 0), BuildingBlock: XIVTED_clean_linker_0, # of connection points: 2
#     Edge 22, Type (0, 0), BuildingBlock: XIVTED_clean_linker_0, # of connection points: 2
#     Edge 23, Type (0, 0), BuildingBlock: XIVTED_clean_linker_0, # of connection points: 2
#     Edge 24, Type (0, 0), BuildingBlock: XIVTED_clean_linker_0, # of connection points: 2
#     Edge 25, Type (0, 0), BuildingBlock: XIVTED_clean_linker_0, # of connection points: 2
#     Edge 26, Type (0, 0), BuildingBlock: XIVTED_clean_linker_0, # of connection points: 2
#     Edge 27, Type (0, 0), BuildingBlock: XIVTED_clean_linker_0, # of connection points: 2
#     Edge 28, Type (0, 0), BuildingBlock: XIVTED_clean_linker_0, # of connection points: 2
#     Edge 29, Type (0, 0), BuildingBlock: XIVTED_clean_linker_0, # of connection points: 2
#     Edge 30, Type (0, 0), BuildingBlock: XIVTED_clean_linker_0, # of connection points: 2
#     Edge 31, Type (0, 0), BuildingBlock: XIVTED_clean_linker_0, # of connection points: 2
#     Edge 32, Type (0, 0), BuildingBlock: XIVTED_clean_linker_0, # of connection points: 2
#     Edge 33, Type (0, 0), BuildingBlock: XIVTED_clean_linker_0, # of connection points: 2
#     Edge 34, Type (0, 0), BuildingBlock: XIVTED_clean_linker_0, # of connection points: 2
#     Edge 35, Type (0, 0), BuildingBlock: XIVTED_clean_linker_0, # of connection points: 2
# Relax obj value: 0.320
# Max RMSD: 0.270
# Mean RMSD: 0.256
data_MOF--net-smm--node1-UKALOJ_clean_sbu_0--edge1-XIVTED_clean_linker_0
_symmetry_space_group_name_H-M    P1
_symmetry_Int_Tables_number       1
_symmetry_cell_setting            triclinic
loop_
_symmetry_equiv_pos_as_xyz
'x, y, z'
_cell_length_a     48.862563
_cell_length_b     47.999126
_cell_length_c     19.771179
_cell_angle_alpha  92.987249
_cell_angle_beta   92.805631
_cell_angle_gamma 120.03398
loop_
_atom_site_label
_atom_site_type_symbol
_atom_site_fract_x
_atom_site_fract_y
_atom_site_fract_z
_atom_type_partial_charge
Zn0 Zn 0.01894 0.2092 0.10177 0.0
O1 O 0.98825 0.15944 0.12202 0.0
C2 C 0.05077 0.17995 0.04039 0.0
Zn3 Zn -0.00132 0.19414 0.99764 0.0
C4 C 0.96494 0.14093 0.07909 0.0
O5 O 0.96168 0.15117 0.02338 0.0
C6 C 0.05184 0.26139 0.0124 0.0
O7 O 0.96927 0.21586 0.00611 0.0
O8 O 0.98238 0.21832 0.11493 0.0
N9 N 0.98408 0.17859 0.89761 0.0
C10 C 0.98813 0.19506 0.84233 0.0
C11 C 0.97115 0.14596 0.80726 0.0
N12 N 0.97324 0.14802 0.87572 0.0
N13 N 0.9806 0.17522 0.78506 0.0
C14 C 0.03089 0.20762 0.2568 0.0
C15 C 0.04468 0.25578 0.29343 0.0
N16 N 0.03316 0.22404 0.20215 0.0
N17 N 0.04204 0.25404 0.22503 0.0
N18 N 0.03761 0.2269 0.31466 0.0
H19 H -0.00223 0.15675 0.24984 0.0
H20 H 0.0343 0.16906 0.30016 0.0
H21 H 0.03349 0.1679 0.20842 0.0
C22 C 0.02381 0.17336 0.25359 0.0
C23 C -0.00197 0.23015 0.84431 0.0
H24 H 0.99079 0.23778 0.89073 0.0
H25 H 0.98734 0.23487 0.79866 0.0
H26 H 0.02416 0.24488 0.84454 0.0
O27 O 0.03586 0.23699 0.97018 0.0
O28 O 0.04855 0.25826 0.07554 0.0
C29 C 0.96599 0.22163 0.06796 0.0
O30 O 0.05537 0.19965 0.09079 0.0
O31 O 0.02809 0.17229 0.99509 0.0
Zn32 Zn 0.80885 0.84634 0.09939 0.0
O33 O 0.7594 0.83096 0.06679 0.0
C34 C 0.79322 0.7772 0.08718 0.0
Zn35 Zn 0.82022 0.83139 0.00245 0.0
C36 C 0.7548 0.82434 0.00232 0.0
O37 O 0.7765 0.82408 0.97064 0.0
C38 C 0.87561 0.85477 0.08922 0.0
O39 O 0.84321 0.88274 0.98709 0.0
O40 O 0.82147 0.89181 0.07364 0.0
N41 N 0.82498 0.82056 0.90277 0.0
C42 C 0.82218 0.83376 0.84595 0.0
C43 C 0.82875 0.79452 0.81466 0.0
N44 N 0.82908 0.79618 0.88312 0.0
N45 N 0.82467 0.818 0.79004 0.0
C46 C 0.79139 0.84353 0.25007 0.0
C47 C 0.8267 0.8906 0.29199 0.0
N48 N 0.80656 0.86031 0.19797 0.0
N49 N 0.82826 0.88963 0.22424 0.0
N50 N 0.80399 0.86188 0.31002 0.0
H51 H 0.74995 0.80601 0.19035 0.0
H52 H 0.74657 0.80736 0.28136 0.0
H53 H 0.76998 0.79207 0.24532 0.0
C54 C 0.76271 0.81036 0.24122 0.0
C55 C 0.81494 0.86071 0.84452 0.0
H56 H 0.80297 0.86233 0.8891 0.0
H57 H 0.79954 0.85744 0.79816 0.0
H58 H 0.83748 0.884 0.84438 0.0
O59 O 0.86344 0.83805 0.03301 0.0
O60 O 0.85923 0.86277 0.12527 0.0
C61 C 0.83827 0.90202 0.02419 0.0
O62 O 0.79654 0.80055 0.1266 0.0
O63 O 0.79891 0.78147 0.02507 0.0
Zn64 Zn 0.16531 0.01067 0.96688 0.0
O65 O 0.21668 0.04046 0.9744 0.0
C66 C 0.17793 0.95678 0.95754 0.0
Zn67 Zn 0.16638 0.99367 0.06581 0.0
C68 C 0.22936 0.04582 0.03511 0.0
O69 O 0.21261 0.03074 0.08179 0.0
C70 C 0.10196 0.95965 0.00783 0.0
O71 O 0.15095 0.02621 0.10357 0.0
O72 O 0.16289 0.04966 0.00842 0.0
N73 N 0.17109 0.98122 0.16131 0.0
C74 C 0.15667 0.98088 0.21799 0.0
C75 C 0.19582 0.97479 0.24694 0.0
N76 N 0.19515 0.97703 0.17933 0.0
N77 N 0.17184 0.97699 0.27245 0.0
C78 C 0.17353 0.02135 0.81381 0.0
C79 C 0.137 0.03173 0.78675 0.0
N80 N 0.16054 0.0231 0.8714 0.0
N81 N 0.13807 0.02986 0.85452 0.0
N82 N 0.15914 0.02665 0.76011 0.0
H83 H 0.2096 0.01261 0.85897 0.0
H84 H 0.21584 0.02575 0.77492 0.0
H85 H 0.18554 0.98537 0.78615 0.0
C86 C 0.19758 0.01077 0.80872 0.0
C87 C 0.12994 0.98768 0.22093 0.0
H88 H 0.13988 0.01395 0.2338 0.0
H89 H 0.11421 0.97467 0.26054 0.0
H90 H 0.11554 0.98033 0.17138 0.0
O91 O 0.1198 0.95666 0.05191 0.0
O92 O 0.11426 0.98129 0.96625 0.0
C93 C 0.15401 0.04872 0.06771 0.0
O94 O 0.16723 0.97142 0.92373 0.0
O95 O 0.18243 0.9624 0.02208 0.0
Zn96 Zn 0.6134 0.50114 0.22519 0.0
O97 O 0.64249 0.48074 0.19286 0.0
C98 C 0.57725 0.43846 0.27261 0.0
Zn99 Zn 0.63406 0.50329 0.32826 0.0
C100 C 0.66305 0.48073 0.23501 0.0
O101 O 0.66562 0.49095 0.29636 0.0
C102 C 0.58414 0.52179 0.3283 0.0
O103 O 0.67042 0.55392 0.32722 0.0
O104 O 0.65102 0.54734 0.22134 0.0
N105 N 0.64706 0.50087 0.42602 0.0
C106 C 0.64727 0.51692 0.48418 0.0
C107 C 0.65164 0.47685 0.51117 0.0
N108 N 0.65011 0.47617 0.4429 0.0
N109 N 0.64958 0.502 0.53837 0.0
C110 C 0.61374 0.50381 0.06986 0.0
C111 C 0.56765 0.49547 0.03895 0.0
N112 N 0.5987 0.50103 0.12658 0.0
N113 N 0.57008 0.49595 0.10738 0.0
N114 N 0.5947 0.50006 0.01437 0.0
H115 H 0.66156 0.52513 0.11678 0.0
H116 H 0.6588 0.52682 0.02624 0.0
H117 H 0.64842 0.48927 0.06133 0.0
C118 C 0.64762 0.5119 0.06868 0.0
C119 C 0.64694 0.54806 0.48795 0.0
H120 H 0.65812 0.56207 0.44462 0.0
H121 H 0.65969 0.56283 0.53625 0.0
H122 H 0.6222 0.54302 0.48607 0.0
O123 O 0.60209 0.51506 0.36306 0.0
O124 O 0.58427 0.52037 0.26365 0.0
C125 C 0.67189 0.56474 0.26911 0.0
O126 O 0.57641 0.45506 0.22589 0.0
O127 O 0.59832 0.45218 0.3227 0.0
Zn128 Zn 0.51032 0.16367 0.31196 0.0
O129 O 0.45847 0.13848 0.30628 0.0
C130 C 0.50891 0.10123 0.30191 0.0
Zn131 Zn 0.5078 0.14623 0.20555 0.0
C132 C 0.44391 0.12288 0.24954 0.0
O133 O 0.45969 0.12231 0.2014 0.0
C134 C 0.57414 0.18802 0.25845 0.0
O135 O 0.50728 0.18979 0.17731 0.0
O136 O 0.50919 0.20297 0.2858 0.0
N137 N 0.50358 0.12977 0.10751 0.0
C138 C 0.51227 0.14575 0.05152 0.0
C139 C 0.48627 0.09538 0.01915 0.0
N140 N 0.48759 0.09847 0.08754 0.0
N141 N 0.50142 0.12476 0.99563 0.0
C142 C 0.50317 0.16294 0.46484 0.0
C143 C 0.53172 0.21277 0.50053 0.0
N144 N 0.51407 0.17955 0.41026 0.0
N145 N 0.53163 0.21054 0.43228 0.0
N146 N 0.51414 0.18317 0.52186 0.0
H147 H 0.46606 0.11756 0.41385 0.0
H148 H 0.46553 0.12114 0.50505 0.0
H149 H 0.49507 0.11487 0.46809 0.0
C150 C 0.48104 0.1271 0.46256 0.0
C151 C 0.53244 0.18174 0.05142 0.0
H152 H 0.54838 0.19243 0.09871 0.0
H153 H 0.51694 0.19242 0.04752 0.0
H154 H 0.54696 0.18812 0.00722 0.0
O155 O 0.55665 0.17045 0.20647 0.0
O156 O 0.5615 0.18953 0.31241 0.0
C157 C 0.50733 0.2088 0.22489 0.0
O158 O 0.51163 0.12401 0.34184 0.0
O159 O 0.50656 0.10296 0.238 0.0
Zn160 Zn 0.85086 0.37616 0.3638 0.0
O161 O 0.87928 0.35331 0.35351 0.0
C162 C 0.91019 0.44217 0.38442 0.0
Zn163 Zn 0.86622 0.4008 0.27059 0.0
C164 C 0.89229 0.35745 0.2977 0.0
O165 O 0.88991 0.37588 0.25745 0.0
C166 C 0.82314 0.41826 0.32546 0.0
O167 O 0.82067 0.35877 0.2264 0.0
O168 O 0.81374 0.33484 0.32051 0.0
N169 N 0.87696 0.41682 0.17648 0.0
C170 C 0.86942 0.39966 0.11551 0.0
C171 C 0.89274 0.44947 0.0974 0.0
N172 N 0.89158 0.44778 0.16524 0.0
N173 N 0.87872 0.41955 0.0652 0.0
C174 C 0.85619 0.36659 0.51603 0.0
C175 C 0.80809 0.34562 0.53947 0.0
N176 N 0.8383 0.36054 0.45714 0.0
N177 N 0.80839 0.34723 0.4717 0.0
N178 N 0.83783 0.35791 0.56864 0.0
H179 H 0.89864 0.3724 0.47462 0.0
H180 H 0.89825 0.37013 0.56555 0.0
H181 H 0.90421 0.40606 0.52922 0.0
C182 C 0.89129 0.37938 0.52155 0.0
C183 C 0.85425 0.36354 0.10498 0.0
H184 H 0.85945 0.35342 0.14937 0.0
H185 H 0.86265 0.35649 0.05961 0.0
H186 H 0.82814 0.35256 0.09659 0.0
O187 O 0.84325 0.42614 0.28188 0.0
O188 O 0.82056 0.39759 0.36654 0.0
C189 C 0.80448 0.33438 0.25961 0.0
O190 O 0.88853 0.4184 0.41071 0.0
O191 O 0.90957 0.44196 0.31981 0.0
Zn192 Zn 0.35671 0.88932 0.6999 0.0
O193 O 0.31933 0.84138 0.72457 0.0
C194 C 0.38406 0.85404 0.64577 0.0
Zn195 Zn 0.33294 0.86999 0.59588 0.0
C196 C 0.29756 0.82071 0.6807 0.0
O197 O 0.29709 0.82762 0.6202 0.0
C198 C 0.39158 0.937 0.60634 0.0
O199 O 0.30153 0.8897 0.60309 0.0
O200 O 0.32589 0.90651 0.70567 0.0
N201 N 0.31931 0.85408 0.49533 0.0
C202 C 0.32262 0.87048 0.44021 0.0
C203 C 0.30908 0.82231 0.40455 0.0
N204 N 0.31056 0.82403 0.47303 0.0
N205 N 0.3168 0.85126 0.38278 0.0
C206 C 0.36605 0.888 0.85527 0.0
C207 C 0.38106 0.9365 0.89161 0.0
N208 N 0.37019 0.9048 0.80047 0.0
N209 N 0.37982 0.93502 0.82317 0.0
N210 N 0.37227 0.90721 0.91294 0.0
H211 H 0.33104 0.8378 0.85127 0.0
H212 H 0.36774 0.84862 0.8988 0.0
H213 H 0.36537 0.84626 0.8069 0.0
C214 C 0.35718 0.85318 0.85271 0.0
C215 C 0.33068 0.90499 0.44222 0.0
H216 H 0.32378 0.91225 0.48959 0.0
H217 H 0.31856 0.90868 0.39755 0.0
H218 H 0.35657 0.92057 0.43982 0.0
O219 O 0.3696 0.91355 0.56857 0.0
O220 O 0.39328 0.93515 0.67026 0.0
C221 C 0.30498 0.90411 0.66166 0.0
O222 O 0.38748 0.87286 0.69665 0.0
O223 O 0.36356 0.84842 0.59642 0.0
Zn224 Zn 0.14349 0.52871 0.78298 0.0
O225 O 0.09964 0.53013 0.77093 0.0
C226 C 0.11125 0.45701 0.76845 0.0
Zn227 Zn 0.1377 0.50974 0.67639 0.0
C228 C 0.08429 0.51879 0.71272 0.0
O229 O 0.0947 0.50751 0.66825 0.0
C230 C 0.19806 0.52168 0.73623 0.0
O231 O 0.16045 0.56011 0.65075 0.0
O232 O 0.16762 0.57495 0.75969 0.0
N233 N 0.12926 0.49278 0.57748 0.0
C234 C 0.14398 0.50676 0.52279 0.0
C235 C 0.10192 0.46274 0.48681 0.0
N236 N 0.10327 0.46528 0.55521 0.0
N237 N 0.12712 0.48859 0.46542 0.0
C238 C 0.13553 0.53367 0.93583 0.0
C239 C 0.18006 0.57443 0.97342 0.0
N240 N 0.15199 0.54588 0.88192 0.0
N241 N 0.17954 0.57143 0.9052 0.0
N242 N 0.15271 0.55092 0.9937 0.0
H243 H 0.08934 0.50247 0.88262 0.0
H244 H 0.08952 0.50811 0.97398 0.0
H245 H 0.10373 0.48314 0.93816 0.0
C246 C 0.1025 0.50529 0.93211 0.0
C247 C 0.17542 0.53746 0.52541 0.0
H248 H 0.19033 0.54062 0.57242 0.0
H249 H 0.17157 0.55834 0.52458 0.0
H250 H 0.18823 0.53736 0.48065 0.0
O251 O 0.18044 0.51212 0.68122 0.0
O252 O 0.18825 0.52885 0.7894 0.0
C253 C 0.17186 0.58241 0.6994 0.0
O254 O 0.11948 0.4815 0.80956 0.0
O255 O 0.11618 0.46078 0.70605 0.0
Zn256 Zn 0.49209 0.66649 0.74878 0.0
O257 O 0.47529 0.69837 0.78853 0.0
C258 C 0.42862 0.62746 0.68806 0.0
Zn259 Zn 0.49004 0.6853 0.64945 0.0
C260 C 0.47258 0.7175 0.74996 0.0
O261 O 0.47859 0.71739 0.68868 0.0
C262 C 0.50775 0.63428 0.63759 0.0
O263 O 0.53984 0.72338 0.66327 0.0
O264 O 0.53741 0.70461 0.76315 0.0
N265 N 0.48342 0.69653 0.55369 0.0
C266 C 0.49847 0.69888 0.49695 0.0
C267 C 0.45511 0.69713 0.46724 0.0
N268 N 0.4567 0.69589 0.5351 0.0
N269 N 0.48104 0.69904 0.44188 0.0
C270 C 0.4846 0.65454 0.90197 0.0
C271 C 0.52584 0.65187 0.93002 0.0
N272 N 0.49868 0.65513 0.84458 0.0
N273 N 0.52407 0.65307 0.86212 0.0
N274 N 0.50128 0.65264 0.95631 0.0
H275 H 0.46522 0.68524 0.91978 0.0
H276 H 0.44126 0.64524 0.94481 0.0
H277 H 0.44219 0.65177 0.85614 0.0
C278 C 0.45663 0.65933 0.90563 0.0
C279 C 0.52899 0.69863 0.49457 0.0
H280 H 0.5383 0.69691 0.54529 0.0
H281 H 0.54712 0.72136 0.47538 0.0
H282 H 0.52549 0.67833 0.45869 0.0
O283 O 0.50079 0.65273 0.6075 0.0
O284 O 0.50813 0.63494 0.70235 0.0
C285 C 0.55258 0.72552 0.72268 0.0
O286 O 0.44682 0.62898 0.73761 0.0
O287 O 0.43994 0.64757 0.64302 0.0
H288 H 0.0838 0.27574 0.89892 0.0
H289 H 0.07283 0.43476 0.87054 0.0
H290 H 0.05635 0.31811 0.06022 0.0
H291 H 0.12325 0.40827 0.73254 0.0
H292 H 0.06334 0.38948 0.93577 0.0
H293 H 0.09801 0.32295 0.83566 0.0
C294 C 0.08165 0.29549 0.92185 0.0
C295 C 0.069 0.29315 0.98496 0.0
C296 C 0.07643 0.39343 0.8912 0.0
C297 C 0.08413 0.34663 0.91189 0.0
C298 C 0.08173 0.4192 0.85379 0.0
C299 C 0.09923 0.4255 0.79675 0.0
C300 C 0.0885 0.37351 0.87121 0.0
C301 C 0.10948 0.40409 0.77604 0.0
C302 C 0.08946 0.32225 0.88542 0.0
C303 C 0.06637 0.31916 0.01213 0.0
N304 N 0.10412 0.37907 0.81358 0.0
N305 N 0.0734 0.34463 0.97492 0.0
H306 H 0.74696 0.81941 0.86493 0.0
H307 H 0.56342 0.7628 0.83789 0.0
H308 H 0.69616 0.81355 0.04148 0.0
H309 H 0.61141 0.7476 0.67541 0.0
H310 H 0.61408 0.79375 0.90696 0.0
H311 H 0.70011 0.805 0.7921 0.0
C312 C 0.72598 0.8153 0.88893 0.0
C313 C 0.72567 0.81744 0.96025 0.0
C314 C 0.61371 0.78436 0.85569 0.0
C315 C 0.67107 0.80042 0.87501 0.0
C316 C 0.58494 0.76708 0.81586 0.0
C317 C 0.5834 0.7528 0.7508 0.0
C318 C 0.6412 0.78737 0.83027 0.0
C319 C 0.61169 0.75858 0.72487 0.0
C320 C 0.69907 0.80699 0.84663 0.0
C321 C 0.69751 0.81197 0.98706 0.0
N322 N 0.63947 0.77512 0.76516 0.0
N323 N 0.67114 0.80336 0.94428 0.0
H324 H 0.23299 0.95705 0.9886 0.0
H325 H 0.23985 0.87403 0.63669 0.0
H326 H 0.1541 0.92056 0.8359 0.0
H327 H 0.32063 0.95623 0.74728 0.0
H328 H 0.20486 0.88213 0.71134 0.0
H329 H 0.26229 0.94425 0.90745 0.0
C330 C 0.22138 0.94518 0.93894 0.0
C331 C 0.19108 0.9397 0.91897 0.0
C332 C 0.23023 0.89867 0.71808 0.0
C333 C 0.22466 0.92587 0.82543 0.0
C334 C 0.25009 0.89445 0.67478 0.0
C335 C 0.28314 0.91455 0.68582 0.0
C336 C 0.2438 0.92264 0.77306 0.0
C337 C 0.29526 0.94016 0.73712 0.0
C338 C 0.2383 0.93849 0.8922 0.0
C339 C 0.17743 0.925 0.8532 0.0
N340 N 0.27572 0.94307 0.77956 0.0
N341 N 0.19438 0.91874 0.80845 0.0
H342 H 0.40541 0.14585 0.29152 0.0
H343 H 0.27733 0.0426 0.97769 0.0
H344 H 0.4056 0.07024 0.16413 0.0
H345 H 0.25783 0.09214 0.13944 0.0
H346 H 0.32999 0.0617 0.03579 0.0
H347 H 0.35397 0.1319 0.23259 0.0
C348 C 0.39413 0.12566 0.25289 0.0
C349 C 0.40962 0.10909 0.23271 0.0
C350 C 0.31442 0.06895 0.05788 0.0
C351 C 0.35211 0.0942 0.16322 0.0
C352 C 0.28472 0.05865 0.02389 0.0
C353 C 0.26356 0.06614 0.05368 0.0
C354 C 0.32281 0.08685 0.12178 0.0
C355 C 0.27378 0.08616 0.1148 0.0
C356 C 0.36516 0.11812 0.2184 0.0
C357 C 0.3944 0.08363 0.18113 0.0
N358 N 0.30261 0.09562 0.14729 0.0
N359 N 0.36676 0.07728 0.14761 0.0
H360 H 0.93473 0.37321 0.20324 0.0
H361 H 0.92669 0.20333 0.16848 0.0
H362 H 0.87993 0.29722 0.33027 0.0
H363 H 0.96363 0.27278 0.01954 0.0
H364 H 0.9085 0.23618 0.22803 0.0
H365 H 0.94776 0.33722 0.13997 0.0
C366 C 0.92592 0.34904 0.21873 0.0
C367 C 0.90619 0.33819 0.27225 0.0
C368 C 0.91995 0.24395 0.18159 0.0
C369 C 0.92053 0.29646 0.19855 0.0
C370 C 0.92997 0.22504 0.14711 0.0
C371 C 0.94637 0.2353 0.08873 0.0
C372 C 0.92693 0.27369 0.15821 0.0
C373 C 0.95059 0.2638 0.0637 0.0
C374 C 0.93306 0.32837 0.18188 0.0
C375 C 0.89547 0.30666 0.28988 0.0
N376 N 0.94137 0.28231 0.09926 0.0
N377 N 0.90264 0.28677 0.25277 0.0
H378 H 0.79877 0.76706 0.21984 0.0
H379 H 0.70206 0.57546 0.15493 0.0
H380 H 0.76409 0.71597 0.02041 0.0
H381 H 0.70138 0.62477 0.34281 0.0
H382 H 0.73678 0.62711 0.11199 0.0
H383 H 0.77439 0.71558 0.27048 0.0
C384 C 0.78587 0.74497 0.18659 0.0
C385 C 0.78249 0.74582 0.11576 0.0
C386 C 0.72935 0.62674 0.16283 0.0
C387 C 0.7556 0.68681 0.17367 0.0
C388 C 0.70952 0.59725 0.18754 0.0
C389 C 0.6983 0.59586 0.25203 0.0
C390 C 0.73831 0.65531 0.20293 0.0
C391 C 0.70946 0.62484 0.29276 0.0
C392 C 0.77222 0.71564 0.2157 0.0
C393 C 0.76697 0.71644 0.07517 0.0
N394 N 0.72867 0.65358 0.26714 0.0
N395 N 0.75388 0.68807 0.1048 0.0
H396 H 0.08803 0.56359 0.63254 0.0
H397 H 0.9734 0.48256 0.36402 0.0
H398 H 0.02121 0.48113 0.73026 0.0
H399 H 0.9056 0.45915 0.51401 0.0
H400 H 0.01642 0.51329 0.4547 0.0
H401 H 0.04519 0.55541 0.54943 0.0
C402 C 0.06394 0.54481 0.63863 0.0
C403 C 0.05795 0.5232 0.68873 0.0
C404 C 0.99203 0.50223 0.4672 0.0
C405 C 0.00933 0.51304 0.59267 0.0
C406 C 0.96754 0.48476 0.41541 0.0
C407 C 0.93599 0.46784 0.43172 0.0
C408 C 0.98468 0.50229 0.53529 0.0
C409 C 0.9297 0.47128 0.49944 0.0
C410 C 0.03974 0.53977 0.59034 0.0
C411 C 0.02663 0.49863 0.69321 0.0
N412 N 0.9538 0.48727 0.54897 0.0
N413 N 0.00345 0.49398 0.64516 0.0
H414 H 0.53283 0.59571 0.67413 0.0
H415 H 0.56126 0.56174 0.29161 0.0
H416 H 0.49807 0.62363 0.50041 0.0
H417 H 0.56431 0.5061 0.45336 0.0
H418 H 0.53907 0.58602 0.36794 0.0
H419 H 0.5467 0.56402 0.59535 0.0
C420 C 0.52801 0.59511 0.61986 0.0
C421 C 0.51478 0.61284 0.59412 0.0
C422 C 0.54433 0.56821 0.38634 0.0
C423 C 0.53064 0.57707 0.50406 0.0
C424 C 0.55673 0.55422 0.34254 0.0
C425 C 0.56506 0.53229 0.36643 0.0
C426 C 0.54059 0.56034 0.45435 0.0
C427 C 0.55882 0.52347 0.43323 0.0
C428 C 0.53588 0.57707 0.5749 0.0
C429 C 0.50889 0.61103 0.52301 0.0
N430 N 0.54745 0.53784 0.47509 0.0
N431 N 0.51711 0.59384 0.48075 0.0
H432 H 0.45881 0.04145 0.26418 0.0
H433 H 0.45704 0.96822 0.61709 0.0
H434 H 0.53879 0.09391 0.4134 0.0
H435 H 0.37704 0.9685 0.51609 0.0
H436 H 0.49137 0.00484 0.53519 0.0
H437 H 0.43275 0.00021 0.34363 0.0
C438 C 0.47161 0.04339 0.31216 0.0
C439 C 0.50094 0.07103 0.33237 0.0
C440 C 0.46629 0.99686 0.53155 0.0
C441 C 0.47101 0.02473 0.42397 0.0
C442 C 0.44691 0.97657 0.57877 0.0
C443 C 0.4142 0.96526 0.5727 0.0
C444 C 0.45245 0.00493 0.47762 0.0
C445 C 0.40205 0.97622 0.52151 0.0
C446 C 0.45647 0.02027 0.35805 0.0
C447 C 0.51616 0.07278 0.39605 0.0
N448 N 0.421 0.99497 0.47534 0.0
N449 N 0.50081 0.0502 0.44028 0.0
H450 H 0.18576 0.11405 0.07213 0.0
H451 H 0.02851 0.11711 0.99589 0.0
H452 H 0.09473 0.0317 0.09954 0.0
H453 H 0.11156 0.20213 0.09236 0.0
H454 H 0.05461 0.08564 0.01672 0.0
H455 H 0.16121 0.14786 0.06911 0.0
C456 C 0.16081 0.10344 0.07993 0.0
C457 C 0.14223 0.07036 0.08738 0.0
C458 C 0.06711 0.11123 0.03291 0.0
C459 C 0.11387 0.1081 0.07984 0.0
C460 C 0.05251 0.12926 0.01999 0.0
C461 C 0.06814 0.16227 0.04176 0.0
C462 C 0.09772 0.12651 0.06649 0.0
C463 C 0.09889 0.17674 0.07439 0.0
C464 C 0.1468 0.12257 0.07749 0.0
C465 C 0.10986 0.05733 0.09524 0.0
N466 N 0.11285 0.1588 0.08535 0.0
N467 N 0.09648 0.07614 0.08978 0.0
H468 H 0.81421 0.94187 0.03329 0.0
H469 H 0.98343 0.0992 0.12068 0.0
H470 H 0.90108 0.94127 0.00876 0.0
H471 H 0.90159 0.10414 0.04704 0.0
H472 H 0.95198 0.03994 0.10109 0.0
H473 H 0.84468 0.00084 0.05334 0.0
C474 C 0.83967 0.95435 0.0304 0.0
C475 C 0.85522 0.93696 0.01836 0.0
C476 C 0.94087 0.05406 0.09026 0.0
C477 C 0.89024 0.00395 0.04458 0.0
C478 C 0.95855 0.0877 0.10269 0.0
C479 C 0.94481 0.1063 0.08616 0.0
C480 C 0.90925 0.03921 0.06222 0.0
C481 C 0.91282 0.09046 0.06097 0.0
C482 C 0.85703 0.98786 0.04253 0.0
C483 C 0.88826 0.95402 0.01657 0.0
N484 N 0.89608 0.05778 0.04975 0.0
N485 N 0.90484 0.98667 0.03065 0.0
H486 H 0.90978 0.82452 0.08852 0.0
H487 H 0.05993 0.98039 0.98319 0.0
H488 H 0.91891 0.91861 0.11262 0.0
H489 H 0.06681 0.9003 0.05322 0.0
H490 H 0.00564 0.95556 0.01783 0.0
H491 H 0.9662 0.85002 0.07019 0.0
C492 C 0.92406 0.85065 0.09252 0.0
C493 C 0.91002 0.86961 0.10303 0.0
C494 C 0.01903 0.94338 0.02514 0.0
C495 C 0.97375 0.89873 0.07815 0.0
C496 C 0.04969 0.95718 0.0042 0.0
C497 C 0.06761 0.94211 0.01466 0.0
C498 C 0.00617 0.91412 0.05567 0.0
C499 C 0.0536 0.91252 0.04383 0.0
C500 C 0.95607 0.86515 0.08117 0.0
C501 C 0.92915 0.90329 0.10592 0.0
N502 N 0.02363 0.8994 0.0631 0.0
N503 N 0.96001 0.91683 0.09201 0.0
H504 H 0.6488 0.41913 0.24246 0.0
H505 H 0.8331 0.47455 0.27985 0.0
H506 H 0.72314 0.51289 0.19917 0.0
H507 H 0.76027 0.38589 0.34952 0.0
H508 H 0.79271 0.48718 0.24149 0.0
H509 H 0.68846 0.40303 0.26541 0.0
C510 C 0.67337 0.43571 0.23443 0.0
C511 C 0.68283 0.46707 0.21747 0.0
C512 C 0.78549 0.4651 0.26576 0.0
C513 C 0.72836 0.44968 0.24731 0.0
C514 C 0.80858 0.45807 0.28842 0.0
C515 C 0.8 0.42928 0.31849 0.0
C516 C 0.75344 0.44306 0.27257 0.0
C517 C 0.76791 0.4086 0.32766 0.0
C518 C 0.69605 0.42683 0.24909 0.0
C519 C 0.71497 0.48824 0.21052 0.0
N520 N 0.74569 0.41577 0.30422 0.0
N521 N 0.73669 0.4793 0.22627 0.0
H522 H 0.55274 0.4032 0.15073 0.0
H523 H 0.47902 0.23333 0.30087 0.0
H524 H 0.5596 0.39302 0.36568 0.0
H525 H 0.53358 0.25161 0.12659 0.0
H526 H 0.48987 0.28881 0.30765 0.0
H527 H 0.52843 0.34471 0.1276 0.0
C528 C 0.54845 0.38861 0.19329 0.0
C529 C 0.55816 0.40298 0.26052 0.0
C530 C 0.49887 0.28046 0.2671 0.0
C531 C 0.53009 0.33627 0.23377 0.0
C532 C 0.49261 0.24885 0.26278 0.0
C533 C 0.506 0.23817 0.21378 0.0
C534 C 0.51822 0.30145 0.22148 0.0
C535 C 0.52297 0.25903 0.16516 0.0
C536 C 0.53483 0.35535 0.17971 0.0
C537 C 0.55244 0.38292 0.31331 0.0
N538 N 0.52904 0.29009 0.17076 0.0
N539 N 0.53864 0.35045 0.29879 0.0
H540 H 0.62263 0.20785 0.35856 0.0
H541 H 0.76058 0.33476 0.16706 0.0
H542 H 0.60364 0.21343 0.14574 0.0
H543 H 0.77521 0.27406 0.30017 0.0
H544 H 0.70302 0.29613 0.15994 0.0
H545 H 0.67979 0.24006 0.34534 0.0
C546 C 0.6305 0.21594 0.30931 0.0
C547 C 0.60855 0.20787 0.25314 0.0
C548 C 0.71909 0.2911 0.18935 0.0
C549 C 0.6733 0.24483 0.23792 0.0
C550 C 0.75184 0.31283 0.1927 0.0
C551 C 0.77255 0.30773 0.23489 0.0
C552 C 0.70742 0.26478 0.22948 0.0
C553 C 0.75997 0.27913 0.26786 0.0
C554 C 0.66295 0.23405 0.30163 0.0
C555 C 0.6199 0.21893 0.19019 0.0
N556 N 0.72818 0.25916 0.2659 0.0
N557 N 0.65155 0.2372 0.18433 0.0
H558 H 0.41053 0.69789 0.75228 0.0
H559 H 0.44438 0.87575 0.69659 0.0
H560 H 0.5039 0.78211 0.78041 0.0
H561 H 0.35837 0.78905 0.61803 0.0
H562 H 0.46532 0.84274 0.74007 0.0
H563 H 0.38849 0.73229 0.72438 0.0
C564 C 0.42612 0.72388 0.75637 0.0
C565 C 0.45895 0.73738 0.76984 0.0
C566 C 0.44206 0.83089 0.71245 0.0
C567 C 0.43436 0.77654 0.73441 0.0
C568 C 0.43033 0.8497 0.68672 0.0
C569 C 0.3999 0.83504 0.65256 0.0
C570 C 0.42297 0.79711 0.70512 0.0
C571 C 0.38227 0.80124 0.64259 0.0
C572 C 0.41369 0.74338 0.73858 0.0
C573 C 0.47837 0.77097 0.77169 0.0
N574 N 0.39394 0.78334 0.66946 0.0
N575 N 0.46586 0.78941 0.75318 0.0
H576 H 0.1661 0.61666 0.59674 0.0
H577 H 0.30496 0.78604 0.77892 0.0
H578 H 0.2215 0.62666 0.78268 0.0
H579 H 0.2412 0.77844 0.61067 0.0
H580 H 0.27425 0.72735 0.78146 0.0
H581 H 0.19503 0.67602 0.59662 0.0
C582 C 0.18464 0.63131 0.63669 0.0
C583 C 0.19137 0.61696 0.68991 0.0
C584 C 0.26673 0.73858 0.74453 0.0
C585 C 0.22394 0.6842 0.69101 0.0
C586 C 0.28401 0.77216 0.74388 0.0
C587 C 0.27561 0.78711 0.69466 0.0
C588 C 0.24107 0.71995 0.69532 0.0
C589 C 0.24858 0.7678 0.64931 0.0
C590 C 0.20085 0.66508 0.63721 0.0
C591 C 0.21539 0.63689 0.74101 0.0
N592 N 0.23248 0.73521 0.65023 0.0
N593 N 0.23069 0.6694 0.74041 0.0
H594 H 0.38031 0.61188 0.58878 0.0
H595 H 0.24635 0.54655 0.83953 0.0
H596 H 0.3985 0.5933 0.79282 0.0
H597 H 0.22546 0.5146 0.62522 0.0
H598 H 0.30289 0.56751 0.82564 0.0
H599 H 0.3231 0.58004 0.60144 0.0
C600 C 0.37233 0.60082 0.63568 0.0
C601 C 0.39419 0.60531 0.68969 0.0
C602 C 0.28569 0.55544 0.78208 0.0
C603 C 0.32931 0.56977 0.70504 0.0
C604 C 0.25351 0.54341 0.79005 0.0
C605 C 0.23116 0.52904 0.73351 0.0
C606 C 0.29541 0.55362 0.717 0.0
C607 C 0.24182 0.52572 0.67031 0.0
C608 C 0.33979 0.5827 0.64291 0.0
C609 C 0.38254 0.59052 0.74968 0.0
N610 N 0.27321 0.53846 0.66351 0.0
N611 N 0.35093 0.57385 0.75612 0.0
H612 H 0.94408 0.14285 0.66972 0.0
H613 H 0.07362 0.26024 0.42981 0.0
H614 H 0.03463 0.22447 0.74529 0.0
H615 H 0.98579 0.17499 0.35428 0.0
H616 H 0.05968 0.24793 0.54642 0.0
H617 H 0.95853 0.1545 0.5531 0.0
C618 C 0.96677 0.1635 0.66148 0.0
C619 C 0.98774 0.18337 0.71681 0.0
C620 C 0.04363 0.23166 0.50434 0.0
C621 C 0.0048 0.19657 0.58452 0.0
C622 C 0.05168 0.23865 0.43809 0.0
C623 C 0.03126 0.2181 0.3828 0.0
C624 C 0.01469 0.20416 0.51509 0.0
C625 C 0.00274 0.19074 0.3956 0.0
C626 C 0.9751 0.1701 0.59523 0.0
C627 C 0.0172 0.20946 0.70404 0.0
N628 N -0.00474 0.18459 0.46043 0.0
N629 N 0.02484 0.21533 0.63922 0.0
H630 H 0.79239 0.77197 0.68594 0.0
H631 H 0.81138 0.89997 0.42246 0.0
H632 H 0.84992 0.875 0.73243 0.0
H633 H 0.79214 0.80438 0.35615 0.0
H634 H 0.81554 0.88846 0.54055 0.0
H635 H 0.78371 0.78081 0.56718 0.0
C636 C 0.80314 0.79641 0.67109 0.0
C637 C 0.82113 0.82283 0.71945 0.0
C638 C 0.80989 0.86983 0.50005 0.0
C639 C 0.81099 0.83313 0.58467 0.0
C640 C 0.80727 0.8763 0.43278 0.0
C641 C 0.80072 0.85295 0.37906 0.0
C642 C 0.80585 0.83969 0.51406 0.0
C643 C 0.79601 0.82276 0.39542 0.0
C644 C 0.79808 0.80144 0.60363 0.0
C645 C 0.83482 0.85402 0.69757 0.0
N646 N 0.79871 0.81702 0.46143 0.0
N647 N 0.8292 0.85832 0.63205 0.0
H648 H 0.21087 0.05651 0.68978 0.0
H649 H 0.12083 0.94465 0.34428 0.0
H650 H 0.11187 0.98366 0.66971 0.0
H651 H 0.21782 0.02253 0.36125 0.0
H652 H 0.11714 0.95739 0.46427 0.0
H653 H 0.21429 0.0437 0.56982 0.0
C654 C 0.18995 0.03769 0.65985 0.0
C655 C 0.1612 0.02074 0.6892 0.0
C656 C 0.13922 0.97179 0.44177 0.0
C657 C 0.16459 0.0061 0.55243 0.0
C658 C 0.14121 0.96459 0.37342 0.0
C659 C 0.16945 0.98301 0.34316 0.0
C660 C 0.16582 0.99743 0.47996 0.0
C661 C 0.19562 0.00794 0.38314 0.0
C662 C 0.19178 0.03045 0.59151 0.0
C663 C 0.13443 0.99714 0.6484 0.0
N664 N 0.19316 0.01452 0.44946 0.0
N665 N 0.13678 0.99037 0.58207 0.0
H666 H 0.60671 0.51737 0.58426 0.0
H667 H 0.61942 0.46701 0.95367 0.0
H668 H 0.67659 0.49245 0.64992 0.0
H669 H 0.58299 0.53045 0.91541 0.0
H670 H 0.63491 0.47027 0.83753 0.0
H671 H 0.59343 0.51832 0.70119 0.0
C672 C 0.62012 0.51326 0.62352 0.0
C673 C 0.64372 0.50601 0.60771 0.0
C674 C 0.62374 0.48368 0.85457 0.0
C675 C 0.62707 0.50498 0.74096 0.0
C676 C 0.61505 0.48193 0.92079 0.0
C677 C 0.60098 0.49942 0.94438 0.0
C678 C 0.61762 0.50245 0.81113 0.0
C679 C 0.59418 0.517 0.89891 0.0
C680 C 0.61209 0.51325 0.69017 0.0
C681 C 0.65862 0.49861 0.66032 0.0
N682 N 0.60268 0.51819 0.83416 0.0
N683 N 0.64993 0.49809 0.72461 0.0
H684 H 0.49796 0.20902 0.62536 0.0
H685 H 0.51766 0.0989 0.89224 0.0
H686 H 0.52709 0.14001 0.57404 0.0
H687 H 0.48502 0.16521 0.94169 0.0
H688 H 0.52054 0.1129 0.77413 0.0
H689 H 0.49358 0.19383 0.74271 0.0
C690 C 0.5033 0.19061 0.6392 0.0
C691 C 0.5121 0.1751 0.59058 0.0
C692 C 0.51285 0.12449 0.81088 0.0
C693 C 0.50742 0.1577 0.72311 0.0
C694 C 0.51116 0.11641 0.8778 0.0
C695 C 0.50197 0.13166 0.9262 0.0
C696 C 0.50499 0.14775 0.79279 0.0
C697 C 0.49331 0.15389 0.90585 0.0
C698 C 0.50074 0.18185 0.70566 0.0
C699 C 0.51921 0.15165 0.6101 0.0
N700 N 0.49519 0.16144 0.84058 0.0
N701 N 0.51665 0.14357 0.675 0.0
H702 H 0.88714 0.41358 0.63157 0.0
H703 H 0.82367 0.37479 0.99538 0.0
H704 H 0.80736 0.32187 0.66941 0.0
H705 H 0.92051 0.44631 0.97075 0.0
H706 H 0.81536 0.35814 0.8739 0.0
H707 H 0.89876 0.42846 0.75358 0.0
C708 C 0.87272 0.39606 0.66552 0.0
C709 C 0.84689 0.36587 0.64037 0.0
C710 C 0.83854 0.37727 0.89503 0.0
C711 C 0.85892 0.38366 0.78005 0.0
C712 C 0.84333 0.38662 0.96434 0.0
C713 C 0.87314 0.41114 0.99312 0.0
C714 C 0.86355 0.39309 0.85386 0.0
C715 C 0.89734 0.42701 0.95022 0.0
C716 C 0.87907 0.40484 0.73526 0.0
C717 C 0.82773 0.34514 0.68695 0.0
N718 N 0.89206 0.41766 0.88246 0.0
N719 N 0.83402 0.35447 0.75461 0.0
H720 H 0.37113 0.90127 0.34674 0.0
H721 H 0.31794 0.85714 0.94893 0.0
H722 H 0.28108 0.82062 0.26535 0.0
H723 H 0.40783 0.938 0.03046 0.0
H724 H 0.30414 0.84309 0.06409 0.0
H725 H 0.3848 0.91548 0.23163 0.0
C726 C 0.35389 0.88707 0.30449 0.0
C727 C 0.32445 0.86044 0.3153 0.0
C728 C 0.32704 0.86372 0.05701 0.0
C729 C 0.34044 0.87563 0.18319 0.0
C730 C 0.33511 0.87144 0.99122 0.0
C731 C 0.36454 0.89808 0.98043 0.0
C732 C 0.34843 0.88303 0.11255 0.0
C733 C 0.38515 0.91698 0.03703 0.0
C734 C 0.36189 0.89487 0.23871 0.0
C735 C 0.30377 0.84163 0.25874 0.0
N736 N 0.37676 0.90903 0.10081 0.0
N737 N 0.3121 0.84964 0.19495 0.0
H738 H 0.1586 0.58921 0.10435 0.0
H739 H 0.12184 0.45068 0.35461 0.0
H740 H 0.13718 0.49307 0.03736 0.0
H741 H 0.13874 0.54531 0.42082 0.0
H742 H 0.12716 0.46559 0.2371 0.0
H743 H 0.15185 0.57393 0.22165 0.0
C744 C 0.15209 0.56481 0.11465 0.0
C745 C 0.14746 0.54203 0.06171 0.0
C746 C 0.12996 0.4832 0.27743 0.0
C747 C 0.14023 0.52443 0.19428 0.0
C748 C 0.12696 0.47467 0.34409 0.0
C749 C 0.13089 0.49719 0.39696 0.0
C750 C 0.13659 0.51438 0.26402 0.0
C751 C 0.13689 0.5278 0.38149 0.0
C752 C 0.14827 0.55605 0.18115 0.0
C753 C 0.13966 0.51084 0.0768 0.0
N754 N 0.13967 0.53557 0.31632 0.0
N755 N 0.13628 0.50292 0.14181 0.0
H756 H 0.43589 0.65254 0.35296 0.0
H757 H 0.54637 0.70047 0.04312 0.0
H758 H 0.53228 0.73181 0.3699 0.0
H759 H 0.45161 0.61853 0.03047 0.0
H760 H 0.542 0.71249 0.16291 0.0
H761 H 0.44086 0.64049 0.23398 0.0
C762 C 0.4581 0.66744 0.33131 0.0
C763 C 0.48386 0.69291 0.37131 0.0
C764 C 0.5221 0.69191 0.13405 0.0
C765 C 0.48989 0.67928 0.23538 0.0
C766 C 0.52467 0.68503 0.06596 0.0
C767 C 0.49909 0.65886 0.0271 0.0
C768 C 0.49375 0.67232 0.1635 0.0
C769 C 0.47149 0.63941 0.05854 0.0
C770 C 0.46101 0.66047 0.26361 0.0
C771 C 0.51217 0.71147 0.3412 0.0
N772 N 0.46948 0.64659 0.1249 0.0
N773 N 0.51445 0.70428 0.27495 0.0
loop_
_geom_bond_atom_site_label_1
_geom_bond_atom_site_label_2
_geom_bond_distance
_geom_bond_site_symmetry_2
_ccdc_geom_bond_type
Zn0 O1 2.055 1_455 S
Zn0 O8 2.046 1_455 S
Zn0 N16 2.036 . S
Zn0 O28 2.053 . S
Zn0 O30 2.066 . S
O1 Zn0 2.055 1_655 S
O1 C4 1.259 . S
C2 O30 1.256 . S
C2 O31 1.244 1_554 S
Zn3 O5 2.046 . S
Zn3 O7 2.055 . S
Zn3 N9 2.036 . S
Zn3 O27 2.066 1_655 S
Zn3 O31 2.053 1_655 S
C4 O1 1.259 . S
C4 O5 1.254 1_554 S
O5 Zn3 2.046 . S
O5 C4 1.254 1_556 S
C6 O27 1.256 1_554 S
C6 O28 1.244 . S
O7 Zn3 2.055 . S
O7 C29 1.259 1_556 S
O8 Zn0 2.046 1_655 S
O8 C29 1.254 . S
N9 Zn3 2.036 . S
N9 C10 1.298 . S
N9 N12 1.398 1_655 S
C10 N9 1.298 . S
C10 N13 1.367 . S
C10 C23 1.481 . S
C11 N12 1.299 . S
C11 N13 1.379 1_455 S
N12 N9 1.398 1_455 S
N12 C11 1.299 . S
N13 C10 1.367 . S
N13 C11 1.379 1_655 S
C14 N16 1.298 . S
C14 N18 1.367 . S
C14 C22 1.481 . S
C15 N17 1.299 . S
C15 N18 1.379 . S
N16 Zn0 2.036 . S
N16 C14 1.298 . S
N16 N17 1.398 . S
N17 C15 1.299 . S
N17 N16 1.398 . S
N18 C14 1.367 . S
N18 C15 1.379 . S
H19 C22 0.980 1_655 S
H20 C22 0.981 . S
H21 C22 0.981 . S
C22 C14 1.481 . S
C22 H19 0.980 1_455 S
C22 H20 0.981 . S
C22 H21 0.981 . S
C23 C10 1.481 . S
C23 H24 0.980 . S
C23 H25 0.981 . S
C23 H26 0.981 . S
H24 C23 0.980 . S
H25 C23 0.981 . S
H26 C23 0.981 . S
O27 Zn3 2.066 1_455 S
O27 C6 1.256 1_556 S
O28 Zn0 2.053 . S
O28 C6 1.244 . S
C29 O7 1.259 1_554 S
C29 O8 1.254 . S
O30 Zn0 2.066 . S
O30 C2 1.256 . S
O31 C2 1.244 1_556 S
O31 Zn3 2.053 1_455 S
Zn32 O33 2.055 . S
Zn32 O40 2.046 . S
Zn32 N48 2.036 . S
Zn32 O60 2.053 . S
Zn32 O62 2.066 . S
O33 Zn32 2.055 . S
O33 C36 1.259 . S
C34 O62 1.256 . S
C34 O63 1.238 1_554 S
Zn35 O37 2.046 . S
Zn35 O39 2.055 . S
Zn35 N41 2.036 . S
Zn35 O59 2.066 . S
Zn35 O63 2.056 . S
C36 O33 1.259 . S
C36 O37 1.254 1_554 S
O37 Zn35 2.046 . S
O37 C36 1.254 1_556 S
C38 O59 1.256 1_554 S
C38 O60 1.244 . S
O39 Zn35 2.055 . S
O39 C61 1.259 1_556 S
O40 Zn32 2.046 . S
O40 C61 1.254 . S
N41 Zn35 2.036 . S
N41 C42 1.298 . S
N41 N44 1.398 . S
C42 N41 1.298 . S
C42 N45 1.367 . S
C42 C55 1.481 . S
C43 N44 1.299 . S
C43 N45 1.379 . S
N44 N41 1.398 . S
N44 C43 1.299 . S
N45 C42 1.367 . S
N45 C43 1.379 . S
C46 N48 1.298 . S
C46 N50 1.367 . S
C46 C54 1.481 . S
C47 N49 1.299 . S
C47 N50 1.379 . S
N48 Zn32 2.036 . S
N48 C46 1.298 . S
N48 N49 1.398 . S
N49 C47 1.299 . S
N49 N48 1.398 . S
N50 C46 1.367 . S
N50 C47 1.379 . S
H51 C54 0.980 . S
H52 C54 0.981 . S
H53 C54 0.981 . S
C54 C46 1.481 . S
C54 H51 0.980 . S
C54 H52 0.981 . S
C54 H53 0.981 . S
C55 C42 1.481 . S
C55 H56 0.980 . S
C55 H57 0.981 . S
C55 H58 0.981 . S
H56 C55 0.980 . S
H57 C55 0.981 . S
H58 C55 0.981 . S
O59 Zn35 2.066 . S
O59 C38 1.256 1_556 S
O60 Zn32 2.053 . S
O60 C38 1.244 . S
C61 O39 1.259 1_554 S
C61 O40 1.254 . S
O62 Zn32 2.066 . S
O62 C34 1.256 . S
O63 C34 1.238 1_556 S
O63 Zn35 2.056 . S
Zn64 O65 2.055 . S
Zn64 O72 2.046 . S
Zn64 N80 2.036 . S
Zn64 O92 2.053 1_545 S
Zn64 O94 2.066 1_545 S
O65 Zn64 2.055 . S
O65 C68 1.259 1_556 S
C66 O94 1.256 . S
C66 O95 1.244 1_556 S
Zn67 O69 2.046 . S
Zn67 O71 2.055 . S
Zn67 N73 2.036 . S
Zn67 O91 2.066 1_545 S
Zn67 O95 2.053 1_545 S
C68 O65 1.259 1_554 S
C68 O69 1.254 . S
O69 Zn67 2.046 . S
O69 C68 1.254 . S
C70 O91 1.256 1_556 S
C70 O92 1.244 . S
O71 Zn67 2.055 . S
O71 C93 1.259 . S
O72 Zn64 2.046 . S
O72 C93 1.254 1_556 S
N73 Zn67 2.036 . S
N73 C74 1.287 . S
N73 N76 1.398 1_545 S
C74 N73 1.287 . S
C74 N77 1.342 1_545 S
C74 C87 1.513 . S
C75 N76 1.299 . S
C75 N77 1.379 . S
N76 N73 1.398 1_565 S
N76 C75 1.299 . S
N77 C74 1.342 1_565 S
N77 C75 1.379 . S
C78 N80 1.298 . S
C78 N82 1.367 . S
C78 C86 1.481 . S
C79 N81 1.299 . S
C79 N82 1.379 . S
N80 Zn64 2.036 . S
N80 C78 1.298 . S
N80 N81 1.398 . S
N81 C79 1.299 . S
N81 N80 1.398 . S
N82 C78 1.367 . S
N82 C79 1.379 . S
H83 C86 0.980 . S
H84 C86 0.981 . S
H85 C86 0.981 . S
C86 C78 1.481 . S
C86 H83 0.980 . S
C86 H84 0.981 . S
C86 H85 0.981 . S
C87 C74 1.513 . S
C87 H88 0.980 . S
C87 H89 0.981 . S
C87 H90 0.981 1_545 S
H88 C87 0.980 . S
H89 C87 0.981 . S
H90 C87 0.981 1_565 S
O91 Zn67 2.066 1_565 S
O91 C70 1.256 1_554 S
O92 Zn64 2.053 1_565 S
O92 C70 1.244 . S
C93 O71 1.259 . S
C93 O72 1.254 1_554 S
O94 Zn64 2.066 1_565 S
O94 C66 1.256 . S
O95 C66 1.244 1_554 S
O95 Zn67 2.053 1_565 S
Zn96 O97 2.055 . S
Zn96 O104 2.046 . S
Zn96 N112 2.036 . S
Zn96 O124 2.053 . S
Zn96 O126 2.066 . S
O97 Zn96 2.055 . S
O97 C100 1.259 . S
C98 O126 1.256 . S
C98 O127 1.244 . S
Zn99 O101 2.046 . S
Zn99 O103 2.055 . S
Zn99 N105 2.036 . S
Zn99 O123 2.066 . S
Zn99 O127 2.053 . S
C100 O97 1.259 . S
C100 O101 1.254 . S
O101 Zn99 2.046 . S
O101 C100 1.254 . S
C102 O123 1.256 . S
C102 O124 1.244 . S
O103 Zn99 2.055 . S
O103 C125 1.259 . S
O104 Zn96 2.046 . S
O104 C125 1.254 . S
N105 Zn99 2.036 . S
N105 C106 1.298 . S
N105 N108 1.398 . S
C106 N105 1.298 . S
C106 N109 1.367 . S
C106 C119 1.481 . S
C107 N108 1.299 . S
C107 N109 1.379 . S
N108 N105 1.398 . S
N108 C107 1.299 . S
N109 C106 1.367 . S
N109 C107 1.379 . S
C110 N112 1.298 . S
C110 N114 1.367 . S
C110 C118 1.481 . S
C111 N113 1.299 . S
C111 N114 1.379 . S
N112 Zn96 2.036 . S
N112 C110 1.298 . S
N112 N113 1.398 . S
N113 C111 1.299 . S
N113 N112 1.398 . S
N114 C110 1.367 . S
N114 C111 1.379 . S
H115 C118 0.980 . S
H116 C118 0.981 . S
H117 C118 0.981 . S
C118 C110 1.481 . S
C118 H115 0.980 . S
C118 H116 0.981 . S
C118 H117 0.981 . S
C119 C106 1.481 . S
C119 H120 0.980 . S
C119 H121 0.981 . S
C119 H122 0.981 . S
H120 C119 0.980 . S
H121 C119 0.981 . S
H122 C119 0.981 . S
O123 Zn99 2.066 . S
O123 C102 1.256 . S
O124 Zn96 2.053 . S
O124 C102 1.244 . S
C125 O103 1.259 . S
C125 O104 1.254 . S
O126 Zn96 2.066 . S
O126 C98 1.256 . S
O127 C98 1.244 . S
O127 Zn99 2.053 . S
Zn128 O129 2.055 . S
Zn128 O136 2.046 . S
Zn128 N144 2.036 . S
Zn128 O156 2.053 . S
Zn128 O158 2.066 . S
O129 Zn128 2.055 . S
O129 C132 1.259 . S
C130 O158 1.256 . S
C130 O159 1.244 . S
Zn131 O133 2.046 . S
Zn131 O135 2.055 . S
Zn131 N137 2.036 . S
Zn131 O155 2.066 . S
Zn131 O159 2.053 . S
C132 O129 1.259 . S
C132 O133 1.254 . S
O133 Zn131 2.046 . S
O133 C132 1.254 . S
C134 O155 1.256 . S
C134 O156 1.244 . S
O135 Zn131 2.055 . S
O135 C157 1.259 . S
O136 Zn128 2.046 . S
O136 C157 1.254 . S
N137 Zn131 2.036 . S
N137 C138 1.298 . S
N137 N140 1.398 . S
C138 N137 1.298 . S
C138 N141 1.367 . S
C138 C151 1.481 . S
C139 N140 1.299 . S
C139 N141 1.379 . S
N140 N137 1.398 . S
N140 C139 1.299 . S
N141 C138 1.367 . S
N141 C139 1.379 . S
C142 N144 1.298 . S
C142 N146 1.367 . S
C142 C150 1.481 . S
C143 N145 1.299 . S
C143 N146 1.379 . S
N144 Zn128 2.036 . S
N144 C142 1.298 . S
N144 N145 1.398 . S
N145 C143 1.299 . S
N145 N144 1.398 . S
N146 C142 1.367 . S
N146 C143 1.379 . S
H147 C150 0.980 . S
H148 C150 0.981 . S
H149 C150 0.981 . S
C150 C142 1.481 . S
C150 H147 0.980 . S
C150 H148 0.981 . S
C150 H149 0.981 . S
C151 C138 1.481 . S
C151 H152 0.980 . S
C151 H153 0.981 . S
C151 H154 0.981 . S
H152 C151 0.980 . S
H153 C151 0.981 . S
H154 C151 0.981 . S
O155 Zn131 2.066 . S
O155 C134 1.256 . S
O156 Zn128 2.053 . S
O156 C134 1.244 . S
C157 O135 1.259 . S
C157 O136 1.254 . S
O158 Zn128 2.066 . S
O158 C130 1.256 . S
O159 C130 1.244 . S
O159 Zn131 2.053 . S
Zn160 O161 2.055 . S
Zn160 O168 2.046 . S
Zn160 N176 2.036 . S
Zn160 O188 2.053 . S
Zn160 O190 2.066 . S
O161 Zn160 2.055 . S
O161 C164 1.259 . S
C162 O190 1.256 . S
C162 O191 1.244 . S
Zn163 O165 2.046 . S
Zn163 O167 2.055 . S
Zn163 N169 2.036 . S
Zn163 O187 2.066 . S
Zn163 O191 2.053 . S
C164 O161 1.259 . S
C164 O165 1.254 . S
O165 Zn163 2.046 . S
O165 C164 1.254 . S
C166 O187 1.256 . S
C166 O188 1.244 . S
O167 Zn163 2.055 . S
O167 C189 1.259 . S
O168 Zn160 2.046 . S
O168 C189 1.254 . S
N169 Zn163 2.036 . S
N169 C170 1.298 . S
N169 N172 1.398 . S
C170 N169 1.298 . S
C170 N173 1.367 . S
C170 C183 1.481 . S
C171 N172 1.299 . S
C171 N173 1.379 . S
N172 N169 1.398 . S
N172 C171 1.299 . S
N173 C170 1.367 . S
N173 C171 1.379 . S
C174 N176 1.298 . S
C174 N178 1.367 . S
C174 C182 1.481 . S
C175 N177 1.299 . S
C175 N178 1.379 . S
N176 Zn160 2.036 . S
N176 C174 1.298 . S
N176 N177 1.398 . S
N177 C175 1.299 . S
N177 N176 1.398 . S
N178 C174 1.367 . S
N178 C175 1.379 . S
H179 C182 0.980 . S
H180 C182 0.981 . S
H181 C182 0.981 . S
C182 C174 1.481 . S
C182 H179 0.980 . S
C182 H180 0.981 . S
C182 H181 0.981 . S
C183 C170 1.481 . S
C183 H184 0.980 . S
C183 H185 0.981 . S
C183 H186 0.981 . S
H184 C183 0.980 . S
H185 C183 0.981 . S
H186 C183 0.981 . S
O187 Zn163 2.066 . S
O187 C166 1.256 . S
O188 Zn160 2.053 . S
O188 C166 1.244 . S
C189 O167 1.259 . S
C189 O168 1.254 . S
O190 Zn160 2.066 . S
O190 C162 1.256 . S
O191 C162 1.244 . S
O191 Zn163 2.053 . S
Zn192 O193 2.055 . S
Zn192 O200 2.046 . S
Zn192 N208 2.036 . S
Zn192 O220 2.053 . S
Zn192 O222 2.066 . S
O193 Zn192 2.055 . S
O193 C196 1.259 . S
C194 O222 1.256 . S
C194 O223 1.244 . S
Zn195 O197 2.046 . S
Zn195 O199 2.055 . S
Zn195 N201 2.036 . S
Zn195 O219 2.066 . S
Zn195 O223 2.053 . S
C196 O193 1.259 . S
C196 O197 1.254 . S
O197 Zn195 2.046 . S
O197 C196 1.254 . S
C198 O219 1.256 . S
C198 O220 1.244 . S
O199 Zn195 2.055 . S
O199 C221 1.259 . S
O200 Zn192 2.046 . S
O200 C221 1.254 . S
N201 Zn195 2.036 . S
N201 C202 1.298 . S
N201 N204 1.398 . S
C202 N201 1.298 . S
C202 N205 1.367 . S
C202 C215 1.481 . S
C203 N204 1.299 . S
C203 N205 1.379 . S
N204 N201 1.398 . S
N204 C203 1.299 . S
N205 C202 1.367 . S
N205 C203 1.379 . S
C206 N208 1.298 . S
C206 N210 1.367 . S
C206 C214 1.481 . S
C207 N209 1.299 . S
C207 N210 1.379 . S
N208 Zn192 2.036 . S
N208 C206 1.298 . S
N208 N209 1.398 . S
N209 C207 1.299 . S
N209 N208 1.398 . S
N210 C206 1.367 . S
N210 C207 1.379 . S
H211 C214 0.980 . S
H212 C214 0.981 . S
H213 C214 0.981 . S
C214 C206 1.481 . S
C214 H211 0.980 . S
C214 H212 0.981 . S
C214 H213 0.981 . S
C215 C202 1.481 . S
C215 H216 0.980 . S
C215 H217 0.981 . S
C215 H218 0.981 . S
H216 C215 0.980 . S
H217 C215 0.981 . S
H218 C215 0.981 . S
O219 Zn195 2.066 . S
O219 C198 1.256 . S
O220 Zn192 2.053 . S
O220 C198 1.244 . S
C221 O199 1.259 . S
C221 O200 1.254 . S
O222 Zn192 2.066 . S
O222 C194 1.256 . S
O223 C194 1.244 . S
O223 Zn195 2.053 . S
Zn224 O225 2.055 . S
Zn224 O232 2.046 . S
Zn224 N240 2.036 . S
Zn224 O252 2.053 . S
Zn224 O254 2.066 . S
O225 Zn224 2.055 . S
O225 C228 1.259 . S
C226 O254 1.256 . S
C226 O255 1.244 . S
Zn227 O229 2.046 . S
Zn227 O231 2.055 . S
Zn227 N233 2.036 . S
Zn227 O251 2.066 . S
Zn227 O255 2.053 . S
C228 O225 1.259 . S
C228 O229 1.254 . S
O229 Zn227 2.046 . S
O229 C228 1.254 . S
C230 O251 1.256 . S
C230 O252 1.244 . S
O231 Zn227 2.055 . S
O231 C253 1.259 . S
O232 Zn224 2.046 . S
O232 C253 1.254 . S
N233 Zn227 2.036 . S
N233 C234 1.298 . S
N233 N236 1.398 . S
C234 N233 1.298 . S
C234 N237 1.367 . S
C234 C247 1.481 . S
C235 N236 1.299 . S
C235 N237 1.379 . S
N236 N233 1.398 . S
N236 C235 1.299 . S
N237 C234 1.367 . S
N237 C235 1.379 . S
C238 N240 1.298 . S
C238 N242 1.367 . S
C238 C246 1.481 . S
C239 N241 1.299 . S
C239 N242 1.379 . S
N240 Zn224 2.036 . S
N240 C238 1.298 . S
N240 N241 1.398 . S
N241 C239 1.299 . S
N241 N240 1.398 . S
N242 C238 1.367 . S
N242 C239 1.379 . S
H243 C246 0.980 . S
H244 C246 0.981 . S
H245 C246 0.981 . S
C246 C238 1.481 . S
C246 H243 0.980 . S
C246 H244 0.981 . S
C246 H245 0.981 . S
C247 C234 1.481 . S
C247 H248 0.980 . S
C247 H249 0.981 . S
C247 H250 0.981 . S
H248 C247 0.980 . S
H249 C247 0.981 . S
H250 C247 0.981 . S
O251 Zn227 2.066 . S
O251 C230 1.256 . S
O252 Zn224 2.053 . S
O252 C230 1.244 . S
C253 O231 1.259 . S
C253 O232 1.254 . S
O254 Zn224 2.066 . S
O254 C226 1.256 . S
O255 C226 1.244 . S
O255 Zn227 2.053 . S
Zn256 O257 2.055 . S
Zn256 O264 2.046 . S
Zn256 N272 2.036 . S
Zn256 O284 2.053 . S
Zn256 O286 2.066 . S
O257 Zn256 2.055 . S
O257 C260 1.259 . S
C258 O286 1.256 . S
C258 O287 1.244 . S
Zn259 O261 2.046 . S
Zn259 O263 2.055 . S
Zn259 N265 2.036 . S
Zn259 O283 2.066 . S
Zn259 O287 2.053 . S
C260 O257 1.259 . S
C260 O261 1.254 . S
O261 Zn259 2.046 . S
O261 C260 1.254 . S
C262 O283 1.256 . S
C262 O284 1.244 . S
O263 Zn259 2.055 . S
O263 C285 1.259 . S
O264 Zn256 2.046 . S
O264 C285 1.254 . S
N265 Zn259 2.036 . S
N265 C266 1.298 . S
N265 N268 1.398 . S
C266 N265 1.298 . S
C266 N269 1.367 . S
C266 C279 1.481 . S
C267 N268 1.299 . S
C267 N269 1.379 . S
N268 N265 1.398 . S
N268 C267 1.299 . S
N269 C266 1.367 . S
N269 C267 1.379 . S
C270 N272 1.298 . S
C270 N274 1.367 . S
C270 C278 1.481 . S
C271 N273 1.299 . S
C271 N274 1.379 . S
N272 Zn256 2.036 . S
N272 C270 1.298 . S
N272 N273 1.398 . S
N273 C271 1.299 . S
N273 N272 1.398 . S
N274 C270 1.367 . S
N274 C271 1.379 . S
H275 C278 0.980 . S
H276 C278 0.981 . S
H277 C278 0.981 . S
C278 C270 1.481 . S
C278 H275 0.980 . S
C278 H276 0.981 . S
C278 H277 0.981 . S
C279 C266 1.481 . S
C279 H280 0.980 . S
C279 H281 0.981 . S
C279 H282 0.981 . S
H280 C279 0.980 . S
H281 C279 0.981 . S
H282 C279 0.981 . S
O283 Zn259 2.066 . S
O283 C262 1.256 . S
O284 Zn256 2.053 . S
O284 C262 1.244 . S
C285 O263 1.259 . S
C285 O264 1.254 . S
O286 Zn256 2.066 . S
O286 C258 1.256 . S
O287 C258 1.244 . S
O287 Zn259 2.053 . S
H288 C294 0.930 . S
H289 C298 0.930 . S
H290 C303 0.929 . S
H291 C301 0.929 . S
H292 C296 0.929 . S
H293 C302 0.929 . S
C294 H288 0.930 . S
C294 C295 1.367 . S
C294 C302 1.378 . S
C295 C294 1.367 . S
C295 C303 1.433 . S
C296 H292 0.929 . S
C296 C298 1.378 . S
C296 C300 1.350 . S
C297 C300 1.463 . S
C297 C302 1.350 . S
C297 N305 1.427 . S
C298 H289 0.930 . S
C298 C296 1.378 . S
C298 C299 1.367 . S
C299 C298 1.367 . S
C299 C301 1.433 . S
C300 C296 1.350 . S
C300 C297 1.463 . S
C300 N304 1.427 . S
C301 H291 0.929 . S
C301 C299 1.433 . S
C301 N304 1.384 . S
C302 H293 0.929 . S
C302 C294 1.378 . S
C302 C297 1.350 . S
C303 H290 0.929 . S
C303 C295 1.433 . S
C303 N305 1.384 . S
N304 C300 1.427 . S
N304 C301 1.384 . S
N305 C297 1.427 . S
N305 C303 1.384 . S
H306 C312 0.930 . S
H307 C316 0.930 . S
H308 C321 0.929 . S
H309 C319 0.929 . S
H310 C314 0.929 . S
H311 C320 0.929 . S
C312 H306 0.930 . S
C312 C313 1.367 . S
C312 C320 1.378 . S
C313 C312 1.367 . S
C313 C321 1.433 1_556 S
C314 H310 0.929 . S
C314 C316 1.378 . S
C314 C318 1.350 . S
C315 C318 1.463 . S
C315 C320 1.350 . S
C315 N323 1.427 . S
C316 H307 0.930 . S
C316 C314 1.378 . S
C316 C317 1.367 . S
C317 C316 1.367 . S
C317 C319 1.433 . S
C318 C314 1.350 . S
C318 C315 1.463 . S
C318 N322 1.427 . S
C319 H309 0.929 . S
C319 C317 1.433 . S
C319 N322 1.384 . S
C320 H311 0.929 . S
C320 C312 1.378 . S
C320 C315 1.350 . S
C321 H308 0.929 . S
C321 C313 1.433 1_554 S
C321 N323 1.384 1_554 S
N322 C318 1.427 . S
N322 C319 1.384 . S
N323 C315 1.427 . S
N323 C321 1.384 1_556 S
H324 C330 0.960 . S
H325 C334 0.930 . S
H326 C339 0.929 . S
H327 C337 0.929 . S
H328 C332 0.929 . S
H329 C338 0.929 . S
C330 H324 0.960 . S
C330 C331 1.367 . S
C330 C338 1.378 . S
C331 C330 1.367 . S
C331 C339 1.433 . S
C332 H328 0.929 . S
C332 C334 1.378 . S
C332 C336 1.350 . S
C333 C336 1.463 . S
C333 C338 1.350 . S
C333 N341 1.427 . S
C334 H325 0.930 . S
C334 C332 1.378 . S
C334 C335 1.367 . S
C335 C334 1.367 . S
C335 C337 1.433 . S
C336 C332 1.350 . S
C336 C333 1.463 . S
C336 N340 1.427 . S
C337 H327 0.929 . S
C337 C335 1.433 . S
C337 N340 1.384 . S
C338 H329 0.929 . S
C338 C330 1.378 . S
C338 C333 1.350 . S
C339 H326 0.929 . S
C339 C331 1.433 . S
C339 N341 1.384 . S
N340 C336 1.427 . S
N340 C337 1.384 . S
N341 C333 1.427 . S
N341 C339 1.384 . S
H342 C348 0.930 . S
H343 C352 0.930 1_556 S
H344 C357 0.929 . S
H345 C355 0.929 . S
H346 C350 0.929 . S
H347 C356 0.929 . S
C348 H342 0.930 . S
C348 C349 1.367 . S
C348 C356 1.378 . S
C349 C348 1.367 . S
C349 C357 1.433 . S
C350 H346 0.929 . S
C350 C352 1.378 . S
C350 C354 1.350 . S
C351 C354 1.463 . S
C351 C356 1.350 . S
C351 N359 1.427 . S
C352 H343 0.930 1_554 S
C352 C350 1.378 . S
C352 C353 1.367 . S
C353 C352 1.367 . S
C353 C355 1.433 . S
C354 C350 1.350 . S
C354 C351 1.463 . S
C354 N358 1.427 . S
C355 H345 0.929 . S
C355 C353 1.433 . S
C355 N358 1.384 . S
C356 H347 0.929 . S
C356 C348 1.378 . S
C356 C351 1.350 . S
C357 H344 0.929 . S
C357 C349 1.433 . S
C357 N359 1.384 . S
N358 C354 1.427 . S
N358 C355 1.384 . S
N359 C351 1.427 . S
N359 C357 1.384 . S
H360 C366 0.930 . S
H361 C370 0.930 . S
H362 C375 0.929 . S
H363 C373 0.929 . S
H364 C368 0.929 . S
H365 C374 0.929 . S
C366 H360 0.930 . S
C366 C367 1.367 . S
C366 C374 1.378 . S
C367 C366 1.367 . S
C367 C375 1.433 . S
C368 H364 0.929 . S
C368 C370 1.378 . S
C368 C372 1.350 . S
C369 C372 1.463 . S
C369 C374 1.350 . S
C369 N377 1.427 . S
C370 H361 0.930 . S
C370 C368 1.378 . S
C370 C371 1.367 . S
C371 C370 1.367 . S
C371 C373 1.433 . S
C372 C368 1.350 . S
C372 C369 1.463 . S
C372 N376 1.427 . S
C373 H363 0.929 . S
C373 C371 1.433 . S
C373 N376 1.384 . S
C374 H365 0.929 . S
C374 C366 1.378 . S
C374 C369 1.350 . S
C375 H362 0.929 . S
C375 C367 1.433 . S
C375 N377 1.384 . S
N376 C372 1.427 . S
N376 C373 1.384 . S
N377 C369 1.427 . S
N377 C375 1.384 . S
H378 C384 0.930 . S
H379 C388 0.930 . S
H380 C393 0.929 . S
H381 C391 0.929 . S
H382 C386 0.929 . S
H383 C392 0.929 . S
C384 H378 0.930 . S
C384 C385 1.367 . S
C384 C392 1.378 . S
C385 C384 1.367 . S
C385 C393 1.433 . S
C386 H382 0.929 . S
C386 C388 1.378 . S
C386 C390 1.350 . S
C387 C390 1.463 . S
C387 C392 1.350 . S
C387 N395 1.427 . S
C388 H379 0.930 . S
C388 C386 1.378 . S
C388 C389 1.367 . S
C389 C388 1.367 . S
C389 C391 1.433 . S
C390 C386 1.350 . S
C390 C387 1.463 . S
C390 N394 1.427 . S
C391 H381 0.929 . S
C391 C389 1.433 . S
C391 N394 1.384 . S
C392 H383 0.929 . S
C392 C384 1.378 . S
C392 C387 1.350 . S
C393 H380 0.929 . S
C393 C385 1.433 . S
C393 N395 1.384 . S
N394 C390 1.427 . S
N394 C391 1.384 . S
N395 C387 1.427 . S
N395 C393 1.384 . S
H396 C402 0.930 . S
H397 C406 0.930 . S
H398 C411 0.929 . S
H399 C409 0.929 . S
H400 C404 0.929 . S
H401 C410 0.929 . S
C402 H396 0.930 . S
C402 C403 1.367 . S
C402 C410 1.378 . S
C403 C402 1.367 . S
C403 C411 1.433 . S
C404 H400 0.929 . S
C404 C406 1.378 . S
C404 C408 1.350 . S
C405 C408 1.463 1_455 S
C405 C410 1.350 . S
C405 N413 1.427 . S
C406 H397 0.930 . S
C406 C404 1.378 . S
C406 C407 1.367 . S
C407 C406 1.367 . S
C407 C409 1.433 . S
C408 C404 1.350 . S
C408 C405 1.463 1_655 S
C408 N412 1.427 . S
C409 H399 0.929 . S
C409 C407 1.433 . S
C409 N412 1.384 . S
C410 H401 0.929 . S
C410 C402 1.378 . S
C410 C405 1.350 . S
C411 H398 0.929 . S
C411 C403 1.433 . S
C411 N413 1.384 . S
N412 C408 1.427 . S
N412 C409 1.384 . S
N413 C405 1.427 . S
N413 C411 1.384 . S
H414 C420 0.930 . S
H415 C424 0.930 . S
H416 C429 0.929 . S
H417 C427 0.929 . S
H418 C422 0.929 . S
H419 C428 0.929 . S
C420 H414 0.930 . S
C420 C421 1.367 . S
C420 C428 1.378 . S
C421 C420 1.367 . S
C421 C429 1.433 . S
C422 H418 0.929 . S
C422 C424 1.378 . S
C422 C426 1.350 . S
C423 C426 1.463 . S
C423 C428 1.350 . S
C423 N431 1.427 . S
C424 H415 0.930 . S
C424 C422 1.378 . S
C424 C425 1.367 . S
C425 C424 1.367 . S
C425 C427 1.433 . S
C426 C422 1.350 . S
C426 C423 1.463 . S
C426 N430 1.427 . S
C427 H417 0.929 . S
C427 C425 1.433 . S
C427 N430 1.384 . S
C428 H419 0.929 . S
C428 C420 1.378 . S
C428 C423 1.350 . S
C429 H416 0.929 . S
C429 C421 1.433 . S
C429 N431 1.384 . S
N430 C426 1.427 . S
N430 C427 1.384 . S
N431 C423 1.427 . S
N431 C429 1.384 . S
H432 C438 0.930 . S
H433 C442 0.930 . S
H434 C447 0.929 . S
H435 C445 0.929 . S
H436 C440 0.929 . S
H437 C446 0.929 . S
C438 H432 0.930 . S
C438 C439 1.367 . S
C438 C446 1.378 . S
C439 C438 1.367 . S
C439 C447 1.433 . S
C440 H436 0.929 . S
C440 C442 1.378 1_545 S
C440 C444 1.350 . S
C441 C444 1.463 . S
C441 C446 1.350 . S
C441 N449 1.427 . S
C442 H433 0.930 . S
C442 C440 1.378 1_565 S
C442 C443 1.367 . S
C443 C442 1.367 . S
C443 C445 1.433 . S
C444 C440 1.350 . S
C444 C441 1.463 . S
C444 N448 1.427 1_545 S
C445 H435 0.929 . S
C445 C443 1.433 . S
C445 N448 1.384 . S
C446 H437 0.929 . S
C446 C438 1.378 . S
C446 C441 1.350 . S
C447 H434 0.929 . S
C447 C439 1.433 . S
C447 N449 1.384 . S
N448 C444 1.427 1_565 S
N448 C445 1.384 . S
N449 C441 1.427 . S
N449 C447 1.384 . S
H450 C456 0.930 . S
H451 C460 0.930 . S
H452 C465 0.929 . S
H453 C463 0.929 . S
H454 C458 0.929 . S
H455 C464 0.929 . S
C456 H450 0.930 . S
C456 C457 1.367 . S
C456 C464 1.378 . S
C457 C456 1.367 . S
C457 C465 1.433 1_554 S
C458 H454 0.929 . S
C458 C460 1.378 . S
C458 C462 1.350 1_556 S
C459 C462 1.463 . S
C459 C464 1.350 . S
C459 N467 1.427 1_554 S
C460 H451 0.930 . S
C460 C458 1.378 . S
C460 C461 1.367 1_556 S
C461 C460 1.367 1_554 S
C461 C463 1.433 . S
C462 C458 1.350 1_554 S
C462 C459 1.463 . S
C462 N466 1.427 . S
C463 H453 0.929 . S
C463 C461 1.433 . S
C463 N466 1.384 . S
C464 H455 0.929 . S
C464 C456 1.378 . S
C464 C459 1.350 . S
C465 H452 0.929 . S
C465 C457 1.433 1_556 S
C465 N467 1.384 . S
N466 C462 1.427 . S
N466 C463 1.384 . S
N467 C459 1.427 1_556 S
N467 C465 1.384 . S
H468 C474 0.930 . S
H469 C478 0.930 . S
H470 C483 0.929 . S
H471 C481 0.929 . S
H472 C476 0.929 . S
H473 C482 0.929 1_545 S
C474 H468 0.930 . S
C474 C475 1.367 1_556 S
C474 C482 1.378 . S
C475 C474 1.367 1_554 S
C475 C483 1.433 . S
C476 H472 0.929 . S
C476 C478 1.378 . S
C476 C480 1.350 . S
C477 C480 1.463 . S
C477 C482 1.350 1_544 S
C477 N485 1.427 1_545 S
C478 H469 0.930 . S
C478 C476 1.378 . S
C478 C479 1.367 . S
C479 C478 1.367 . S
C479 C481 1.433 1_554 S
C480 C476 1.350 . S
C480 C477 1.463 . S
C480 N484 1.427 1_554 S
C481 H471 0.929 . S
C481 C479 1.433 1_556 S
C481 N484 1.384 . S
C482 H473 0.929 1_565 S
C482 C474 1.378 . S
C482 C477 1.350 1_566 S
C483 H470 0.929 . S
C483 C475 1.433 . S
C483 N485 1.384 . S
N484 C480 1.427 1_556 S
N484 C481 1.384 . S
N485 C477 1.427 1_565 S
N485 C483 1.384 . S
H486 C492 0.930 . S
H487 C496 0.930 . S
H488 C501 0.929 . S
H489 C499 0.929 . S
H490 C494 0.929 . S
H491 C500 0.929 . S
C492 H486 0.930 . S
C492 C493 1.367 1_556 S
C492 C500 1.378 . S
C493 C492 1.367 1_554 S
C493 C501 1.433 . S
C494 H490 0.929 . S
C494 C496 1.378 . S
C494 C498 1.350 . S
C495 C498 1.463 1_655 S
C495 C500 1.350 1_554 S
C495 N503 1.427 . S
C496 H487 0.930 . S
C496 C494 1.378 . S
C496 C497 1.356 1_554 S
C497 C496 1.356 1_556 S
C497 C499 1.441 . S
C498 C494 1.350 . S
C498 C495 1.463 1_455 S
C498 N502 1.427 1_554 S
C499 H489 0.929 . S
C499 C497 1.441 . S
C499 N502 1.384 . S
C500 H491 0.929 . S
C500 C492 1.378 . S
C500 C495 1.350 1_556 S
C501 H488 0.929 . S
C501 C493 1.433 . S
C501 N503 1.384 . S
N502 C498 1.427 1_556 S
N502 C499 1.384 . S
N503 C495 1.427 . S
N503 C501 1.384 . S
H504 C510 0.930 . S
H505 C514 0.930 . S
H506 C519 0.929 . S
H507 C517 0.929 . S
H508 C512 0.929 . S
H509 C518 0.929 . S
C510 H504 0.930 . S
C510 C511 1.367 . S
C510 C518 1.378 . S
C511 C510 1.367 . S
C511 C519 1.433 . S
C512 H508 0.929 . S
C512 C514 1.378 . S
C512 C516 1.350 . S
C513 C516 1.463 . S
C513 C518 1.350 . S
C513 N521 1.427 . S
C514 H505 0.930 . S
C514 C512 1.378 . S
C514 C515 1.367 . S
C515 C514 1.367 . S
C515 C517 1.433 . S
C516 C512 1.350 . S
C516 C513 1.463 . S
C516 N520 1.427 . S
C517 H507 0.929 . S
C517 C515 1.433 . S
C517 N520 1.384 . S
C518 H509 0.929 . S
C518 C510 1.378 . S
C518 C513 1.350 . S
C519 H506 0.929 . S
C519 C511 1.433 . S
C519 N521 1.384 . S
N520 C516 1.427 . S
N520 C517 1.384 . S
N521 C513 1.427 . S
N521 C519 1.384 . S
H522 C528 0.930 . S
H523 C532 0.930 . S
H524 C537 0.929 . S
H525 C535 0.929 . S
H526 C530 0.929 . S
H527 C536 0.929 . S
C528 H522 0.930 . S
C528 C529 1.367 . S
C528 C536 1.378 . S
C529 C528 1.367 . S
C529 C537 1.433 . S
C530 H526 0.929 . S
C530 C532 1.378 . S
C530 C534 1.350 . S
C531 C534 1.463 . S
C531 C536 1.350 . S
C531 N539 1.427 . S
C532 H523 0.930 . S
C532 C530 1.378 . S
C532 C533 1.367 . S
C533 C532 1.367 . S
C533 C535 1.433 . S
C534 C530 1.350 . S
C534 C531 1.463 . S
C534 N538 1.427 . S
C535 H525 0.929 . S
C535 C533 1.433 . S
C535 N538 1.384 . S
C536 H527 0.929 . S
C536 C528 1.378 . S
C536 C531 1.350 . S
C537 H524 0.929 . S
C537 C529 1.433 . S
C537 N539 1.384 . S
N538 C534 1.427 . S
N538 C535 1.384 . S
N539 C531 1.427 . S
N539 C537 1.384 . S
H540 C546 0.930 . S
H541 C550 0.930 . S
H542 C555 0.929 . S
H543 C553 0.929 . S
H544 C548 0.929 . S
H545 C554 0.929 . S
C546 H540 0.930 . S
C546 C547 1.367 . S
C546 C554 1.378 . S
C547 C546 1.367 . S
C547 C555 1.433 . S
C548 H544 0.929 . S
C548 C550 1.378 . S
C548 C552 1.350 . S
C549 C552 1.463 . S
C549 C554 1.350 . S
C549 N557 1.427 . S
C550 H541 0.930 . S
C550 C548 1.378 . S
C550 C551 1.367 . S
C551 C550 1.367 . S
C551 C553 1.433 . S
C552 C548 1.350 . S
C552 C549 1.463 . S
C552 N556 1.427 . S
C553 H543 0.929 . S
C553 C551 1.433 . S
C553 N556 1.384 . S
C554 H545 0.929 . S
C554 C546 1.378 . S
C554 C549 1.350 . S
C555 H542 0.929 . S
C555 C547 1.433 . S
C555 N557 1.384 . S
N556 C552 1.427 . S
N556 C553 1.384 . S
N557 C549 1.427 . S
N557 C555 1.384 . S
H558 C564 0.930 . S
H559 C568 0.930 . S
H560 C573 0.929 . S
H561 C571 0.929 . S
H562 C566 0.929 . S
H563 C572 0.929 . S
C564 H558 0.930 . S
C564 C565 1.367 . S
C564 C572 1.378 . S
C565 C564 1.367 . S
C565 C573 1.433 . S
C566 H562 0.929 . S
C566 C568 1.378 . S
C566 C570 1.350 . S
C567 C570 1.463 . S
C567 C572 1.350 . S
C567 N575 1.427 . S
C568 H559 0.930 . S
C568 C566 1.378 . S
C568 C569 1.367 . S
C569 C568 1.367 . S
C569 C571 1.433 . S
C570 C566 1.350 . S
C570 C567 1.463 . S
C570 N574 1.427 . S
C571 H561 0.929 . S
C571 C569 1.433 . S
C571 N574 1.384 . S
C572 H563 0.929 . S
C572 C564 1.378 . S
C572 C567 1.350 . S
C573 H560 0.929 . S
C573 C565 1.433 . S
C573 N575 1.384 . S
N574 C570 1.427 . S
N574 C571 1.384 . S
N575 C567 1.427 . S
N575 C573 1.384 . S
H576 C582 0.930 . S
H577 C586 0.930 . S
H578 C591 0.929 . S
H579 C589 0.929 . S
H580 C584 0.929 . S
H581 C590 0.929 . S
C582 H576 0.930 . S
C582 C583 1.367 . S
C582 C590 1.378 . S
C583 C582 1.367 . S
C583 C591 1.433 . S
C584 H580 0.929 . S
C584 C586 1.378 . S
C584 C588 1.350 . S
C585 C588 1.463 . S
C585 C590 1.350 . S
C585 N593 1.427 . S
C586 H577 0.930 . S
C586 C584 1.378 . S
C586 C587 1.367 . S
C587 C586 1.367 . S
C587 C589 1.433 . S
C588 C584 1.350 . S
C588 C585 1.463 . S
C588 N592 1.427 . S
C589 H579 0.929 . S
C589 C587 1.433 . S
C589 N592 1.384 . S
C590 H581 0.929 . S
C590 C582 1.378 . S
C590 C585 1.350 . S
C591 H578 0.929 . S
C591 C583 1.433 . S
C591 N593 1.384 . S
N592 C588 1.427 . S
N592 C589 1.384 . S
N593 C585 1.427 . S
N593 C591 1.384 . S
H594 C600 0.930 . S
H595 C604 0.930 . S
H596 C609 0.929 . S
H597 C607 0.929 . S
H598 C602 0.929 . S
H599 C608 0.929 . S
C600 H594 0.930 . S
C600 C601 1.367 . S
C600 C608 1.378 . S
C601 C600 1.367 . S
C601 C609 1.433 . S
C602 H598 0.929 . S
C602 C604 1.378 . S
C602 C606 1.350 . S
C603 C606 1.463 . S
C603 C608 1.350 . S
C603 N611 1.427 . S
C604 H595 0.930 . S
C604 C602 1.378 . S
C604 C605 1.367 . S
C605 C604 1.367 . S
C605 C607 1.433 . S
C606 C602 1.350 . S
C606 C603 1.463 . S
C606 N610 1.427 . S
C607 H597 0.929 . S
C607 C605 1.433 . S
C607 N610 1.384 . S
C608 H599 0.929 . S
C608 C600 1.378 . S
C608 C603 1.350 . S
C609 H596 0.929 . S
C609 C601 1.433 . S
C609 N611 1.384 . S
N610 C606 1.427 . S
N610 C607 1.384 . S
N611 C603 1.427 . S
N611 C609 1.384 . S
H612 C618 0.930 . S
H613 C622 0.930 . S
H614 C627 0.929 . S
H615 C625 0.929 1_655 S
H616 C620 0.929 . S
H617 C626 0.929 . S
C618 H612 0.930 . S
C618 C619 1.367 . S
C618 C626 1.378 . S
C619 C618 1.367 . S
C619 C627 1.433 1_655 S
C620 H616 0.929 . S
C620 C622 1.378 . S
C620 C624 1.350 . S
C621 C624 1.463 . S
C621 C626 1.350 1_455 S
C621 N629 1.427 . S
C622 H613 0.930 . S
C622 C620 1.378 . S
C622 C623 1.367 . S
C623 C622 1.367 . S
C623 C625 1.433 . S
C624 C620 1.350 . S
C624 C621 1.463 . S
C624 N628 1.427 . S
C625 H615 0.929 1_455 S
C625 C623 1.433 . S
C625 N628 1.384 . S
C626 H617 0.929 . S
C626 C618 1.378 . S
C626 C621 1.350 1_655 S
C627 H614 0.929 . S
C627 C619 1.433 1_455 S
C627 N629 1.384 . S
N628 C624 1.427 . S
N628 C625 1.384 . S
N629 C621 1.427 . S
N629 C627 1.384 . S
H630 C636 0.930 . S
H631 C640 0.930 . S
H632 C645 0.929 . S
H633 C643 0.929 . S
H634 C638 0.929 . S
H635 C644 0.929 . S
C636 H630 0.930 . S
C636 C637 1.367 . S
C636 C644 1.378 . S
C637 C636 1.367 . S
C637 C645 1.433 . S
C638 H634 0.929 . S
C638 C640 1.378 . S
C638 C642 1.350 . S
C639 C642 1.463 . S
C639 C644 1.350 . S
C639 N647 1.427 . S
C640 H631 0.930 . S
C640 C638 1.378 . S
C640 C641 1.367 . S
C641 C640 1.367 . S
C641 C643 1.433 . S
C642 C638 1.350 . S
C642 C639 1.463 . S
C642 N646 1.427 . S
C643 H633 0.929 . S
C643 C641 1.433 . S
C643 N646 1.384 . S
C644 H635 0.929 . S
C644 C636 1.378 . S
C644 C639 1.350 . S
C645 H632 0.929 . S
C645 C637 1.433 . S
C645 N647 1.384 . S
N646 C642 1.427 . S
N646 C643 1.384 . S
N647 C639 1.427 . S
N647 C645 1.384 . S
H648 C654 0.930 . S
H649 C658 0.930 . S
H650 C663 0.929 . S
H651 C661 0.929 . S
H652 C656 0.929 . S
H653 C662 0.929 . S
C654 H648 0.930 . S
C654 C655 1.367 . S
C654 C662 1.378 . S
C655 C654 1.367 . S
C655 C663 1.433 1_545 S
C656 H652 0.929 . S
C656 C658 1.378 . S
C656 C660 1.350 . S
C657 C660 1.463 1_545 S
C657 C662 1.350 . S
C657 N665 1.427 1_545 S
C658 H649 0.930 . S
C658 C656 1.378 . S
C658 C659 1.367 . S
C659 C658 1.367 . S
C659 C661 1.433 1_565 S
C660 C656 1.350 . S
C660 C657 1.463 1_565 S
C660 N664 1.427 1_565 S
C661 H651 0.929 . S
C661 C659 1.433 1_545 S
C661 N664 1.384 . S
C662 H653 0.929 . S
C662 C654 1.378 . S
C662 C657 1.350 . S
C663 H650 0.929 . S
C663 C655 1.433 1_565 S
C663 N665 1.384 . S
N664 C660 1.427 1_545 S
N664 C661 1.384 . S
N665 C657 1.427 1_565 S
N665 C663 1.384 . S
H666 C672 0.930 . S
H667 C676 0.930 . S
H668 C681 0.929 . S
H669 C679 0.929 . S
H670 C674 0.929 . S
H671 C680 0.929 . S
C672 H666 0.930 . S
C672 C673 1.367 . S
C672 C680 1.378 . S
C673 C672 1.367 . S
C673 C681 1.433 . S
C674 H670 0.929 . S
C674 C676 1.378 . S
C674 C678 1.350 . S
C675 C678 1.463 . S
C675 C680 1.350 . S
C675 N683 1.427 . S
C676 H667 0.930 . S
C676 C674 1.378 . S
C676 C677 1.367 . S
C677 C676 1.367 . S
C677 C679 1.433 . S
C678 C674 1.350 . S
C678 C675 1.463 . S
C678 N682 1.427 . S
C679 H669 0.929 . S
C679 C677 1.433 . S
C679 N682 1.384 . S
C680 H671 0.929 . S
C680 C672 1.378 . S
C680 C675 1.350 . S
C681 H668 0.929 . S
C681 C673 1.433 . S
C681 N683 1.384 . S
N682 C678 1.427 . S
N682 C679 1.384 . S
N683 C675 1.427 . S
N683 C681 1.384 . S
H684 C690 0.930 . S
H685 C694 0.930 . S
H686 C699 0.929 . S
H687 C697 0.929 . S
H688 C692 0.929 . S
H689 C698 0.929 . S
C690 H684 0.930 . S
C690 C691 1.367 . S
C690 C698 1.378 . S
C691 C690 1.367 . S
C691 C699 1.433 . S
C692 H688 0.929 . S
C692 C694 1.378 . S
C692 C696 1.350 . S
C693 C696 1.463 . S
C693 C698 1.350 . S
C693 N701 1.427 . S
C694 H685 0.930 . S
C694 C692 1.378 . S
C694 C695 1.367 . S
C695 C694 1.367 . S
C695 C697 1.433 . S
C696 C692 1.350 . S
C696 C693 1.463 . S
C696 N700 1.427 . S
C697 H687 0.929 . S
C697 C695 1.433 . S
C697 N700 1.384 . S
C698 H689 0.929 . S
C698 C690 1.378 . S
C698 C693 1.350 . S
C699 H686 0.929 . S
C699 C691 1.433 . S
C699 N701 1.384 . S
N700 C696 1.427 . S
N700 C697 1.384 . S
N701 C693 1.427 . S
N701 C699 1.384 . S
H702 C708 0.930 . S
H703 C712 0.930 . S
H704 C717 0.929 . S
H705 C715 0.921 1_554 S
H706 C710 0.929 . S
H707 C716 0.929 . S
C708 H702 0.930 . S
C708 C709 1.367 . S
C708 C716 1.378 . S
C709 C708 1.367 . S
C709 C717 1.433 . S
C710 H706 0.929 . S
C710 C712 1.378 . S
C710 C714 1.350 . S
C711 C714 1.463 . S
C711 C716 1.350 . S
C711 N719 1.427 . S
C712 H703 0.930 . S
C712 C710 1.378 . S
C712 C713 1.367 . S
C713 C712 1.367 . S
C713 C715 1.433 . S
C714 C710 1.350 . S
C714 C711 1.463 . S
C714 N718 1.427 . S
C715 H705 0.921 1_556 S
C715 C713 1.433 . S
C715 N718 1.384 . S
C716 H707 0.929 . S
C716 C708 1.378 . S
C716 C711 1.350 . S
C717 H704 0.929 . S
C717 C709 1.433 . S
C717 N719 1.384 . S
N718 C714 1.427 . S
N718 C715 1.384 . S
N719 C711 1.427 . S
N719 C717 1.384 . S
H720 C726 0.930 . S
H721 C730 0.930 1_556 S
H722 C735 0.929 . S
H723 C733 0.929 . S
H724 C728 0.929 . S
H725 C734 0.929 . S
C726 H720 0.930 . S
C726 C727 1.367 . S
C726 C734 1.378 . S
C727 C726 1.367 . S
C727 C735 1.433 . S
C728 H724 0.929 . S
C728 C730 1.378 . S
C728 C732 1.350 . S
C729 C732 1.463 . S
C729 C734 1.350 . S
C729 N737 1.427 . S
C730 H721 0.930 1_554 S
C730 C728 1.378 . S
C730 C731 1.367 . S
C731 C730 1.367 . S
C731 C733 1.433 . S
C732 C728 1.350 . S
C732 C729 1.463 . S
C732 N736 1.427 . S
C733 H723 0.929 . S
C733 C731 1.433 . S
C733 N736 1.384 . S
C734 H725 0.929 . S
C734 C726 1.378 . S
C734 C729 1.350 . S
C735 H722 0.929 . S
C735 C727 1.433 . S
C735 N737 1.384 . S
N736 C732 1.427 . S
N736 C733 1.384 . S
N737 C729 1.427 . S
N737 C735 1.384 . S
H738 C744 0.930 . S
H739 C748 0.930 . S
H740 C753 0.929 . S
H741 C751 0.929 . S
H742 C746 0.929 . S
H743 C752 0.929 . S
C744 H738 0.930 . S
C744 C745 1.367 . S
C744 C752 1.378 . S
C745 C744 1.367 . S
C745 C753 1.433 . S
C746 H742 0.929 . S
C746 C748 1.378 . S
C746 C750 1.350 . S
C747 C750 1.463 . S
C747 C752 1.350 . S
C747 N755 1.427 . S
C748 H739 0.930 . S
C748 C746 1.378 . S
C748 C749 1.367 . S
C749 C748 1.367 . S
C749 C751 1.433 . S
C750 C746 1.350 . S
C750 C747 1.463 . S
C750 N754 1.427 . S
C751 H741 0.929 . S
C751 C749 1.433 . S
C751 N754 1.384 . S
C752 H743 0.929 . S
C752 C744 1.378 . S
C752 C747 1.350 . S
C753 H740 0.929 . S
C753 C745 1.433 . S
C753 N755 1.384 . S
N754 C750 1.427 . S
N754 C751 1.384 . S
N755 C747 1.427 . S
N755 C753 1.384 . S
H756 C762 0.930 . S
H757 C766 0.930 . S
H758 C771 0.929 . S
H759 C769 0.929 . S
H760 C764 0.929 . S
H761 C770 0.929 . S
C762 H756 0.930 . S
C762 C763 1.367 . S
C762 C770 1.378 . S
C763 C762 1.367 . S
C763 C771 1.433 . S
C764 H760 0.929 . S
C764 C766 1.378 . S
C764 C768 1.350 . S
C765 C768 1.463 . S
C765 C770 1.350 . S
C765 N773 1.427 . S
C766 H757 0.930 . S
C766 C764 1.378 . S
C766 C767 1.367 . S
C767 C766 1.367 . S
C767 C769 1.433 . S
C768 C764 1.350 . S
C768 C765 1.463 . S
C768 N772 1.427 . S
C769 H759 0.929 . S
C769 C767 1.433 . S
C769 N772 1.384 . S
C770 H761 0.929 . S
C770 C762 1.378 . S
C770 C765 1.350 . S
C771 H758 0.929 . S
C771 C763 1.433 . S
C771 N773 1.384 . S
N772 C768 1.427 . S
N772 C769 1.384 . S
N773 C765 1.427 . S
N773 C771 1.384 . S
C295 C6 1.808 1_556 S
C299 C226 1.813 . S
C313 C36 1.586 1_556 S
C317 C285 1.589 . S
C331 C66 1.716 . S
C335 C221 1.693 . S
C349 C132 1.412 . S
C353 C68 1.409 . S
C367 C164 1.549 . S
C371 C29 1.550 . S
C385 C34 1.706 . S
C389 C125 1.682 . S
C403 C228 1.711 . S
C407 C162 1.733 . S
C421 C262 1.865 . S
C425 C102 1.866 . S
C439 C130 2.022 . S
C443 C198 2.036 . S
C457 C93 1.275 . S
C461 C2 1.272 . S
C475 C61 1.253 . S
C479 C4 1.252 . S
C493 C38 1.283 . S
C497 C70 1.282 . S
C511 C100 1.287 . S
C515 C166 1.291 . S
C529 C98 1.322 . S
C533 C157 1.319 . S
C547 C134 1.298 . S
C551 C189 1.296 . S
C565 C260 1.319 . S
C569 C194 1.326 . S
C583 C253 1.282 . S
C587 C196 1.281 . S
C601 C258 1.316 . S
C605 C230 1.314 . S
C619 N13 1.142 . S
C623 N18 1.116 . S
C637 N45 0.996 . S
C641 N50 1.015 . S
C655 N82 0.990 . S
C659 N77 0.979 . S
C673 N109 1.141 . S
C677 N114 1.111 1_556 S
C691 N146 1.062 . S
C695 N141 1.042 1_556 S
C709 N178 1.060 . S
C713 N173 1.040 1_556 S
C727 N205 1.165 . S
C731 N210 1.129 1_554 S
C745 N242 1.109 1_554 S
C749 N237 1.084 . S
C763 N269 1.002 . S
C767 N274 0.982 1_554 S
