# Generated by pormake.
# Topology pyc, (8)-cn, num edge types: 1
# Building blocks:
#     Node 0, Type 0, BuildingBlock: GIZVER_clean_sbu_0, # of connection points: 8
#     Node 1, Type 0, BuildingBlock: GIZVER_clean_sbu_0, # of connection points: 8
#     Node 2, Type 0, BuildingBlock: GIZVER_clean_sbu_0, # of connection points: 8
#     Node 3, Type 0, BuildingBlock: GIZVER_clean_sbu_0, # of connection points: 8
#     Node 4, Type 0, BuildingBlock: GIZVER_clean_sbu_0, # of connection points: 8
#     Node 5, Type 0, BuildingBlock: GIZVER_clean_sbu_0, # of connection points: 8
#     Node 6, Type 0, BuildingBlock: GIZVER_clean_sbu_0, # of connection points: 8
#     Node 7, Type 0, BuildingBlock: GIZVER_clean_sbu_0, # of connection points: 8
#     Node 8, Type 0, BuildingBlock: GIZVER_clean_sbu_0, # of connection points: 8
#     Node 9, Type 0, BuildingBlock: GIZVER_clean_sbu_0, # of connection points: 8
#     Node 10, Type 0, BuildingBlock: GIZVER_clean_sbu_0, # of connection points: 8
#     Node 11, Type 0, BuildingBlock: GIZVER_clean_sbu_0, # of connection points: 8
#     Node 12, Type 0, BuildingBlock: GIZVER_clean_sbu_0, # of connection points: 8
#     Node 13, Type 0, BuildingBlock: GIZVER_clean_sbu_0, # of connection points: 8
#     Node 14, Type 0, BuildingBlock: GIZVER_clean_sbu_0, # of connection points: 8
#     Node 15, Type 0, BuildingBlock: GIZVER_clean_sbu_0, # of connection points: 8
#     Node 16, Type 0, BuildingBlock: GIZVER_clean_sbu_0, # of connection points: 8
#     Node 17, Type 0, BuildingBlock: GIZVER_clean_sbu_0, # of connection points: 8
#     Node 18, Type 0, BuildingBlock: GIZVER_clean_sbu_0, # of connection points: 8
#     Node 19, Type 0, BuildingBlock: GIZVER_clean_sbu_0, # of connection points: 8
#     Node 20, Type 0, BuildingBlock: GIZVER_clean_sbu_0, # of connection points: 8
#     Node 21, Type 0, BuildingBlock: GIZVER_clean_sbu_0, # of connection points: 8
#     Node 22, Type 0, BuildingBlock: GIZVER_clean_sbu_0, # of connection points: 8
#     Node 23, Type 0, BuildingBlock: GIZVER_clean_sbu_0, # of connection points: 8
#     Node 24, Type 0, BuildingBlock: GIZVER_clean_sbu_0, # of connection points: 8
#     Node 25, Type 0, BuildingBlock: GIZVER_clean_sbu_0, # of connection points: 8
#     Node 26, Type 0, BuildingBlock: GIZVER_clean_sbu_0, # of connection points: 8
#     Node 27, Type 0, BuildingBlock: GIZVER_clean_sbu_0, # of connection points: 8
#     Node 28, Type 0, BuildingBlock: GIZVER_clean_sbu_0, # of connection points: 8
#     Node 29, Type 0, BuildingBlock: GIZVER_clean_sbu_0, # of connection points: 8
#     Node 30, Type 0, BuildingBlock: GIZVER_clean_sbu_0, # of connection points: 8
#     Node 31, Type 0, BuildingBlock: GIZVER_clean_sbu_0, # of connection points: 8
#     Node 32, Type 0, BuildingBlock: GIZVER_clean_sbu_0, # of connection points: 8
#     Node 33, Type 0, BuildingBlock: GIZVER_clean_sbu_0, # of connection points: 8
#     Node 34, Type 0, BuildingBlock: GIZVER_clean_sbu_0, # of connection points: 8
#     Node 35, Type 0, BuildingBlock: GIZVER_clean_sbu_0, # of connection points: 8
#     Node 36, Type 0, BuildingBlock: GIZVER_clean_sbu_0, # of connection points: 8
#     Node 37, Type 0, BuildingBlock: GIZVER_clean_sbu_0, # of connection points: 8
#     Node 38, Type 0, BuildingBlock: GIZVER_clean_sbu_0, # of connection points: 8
#     Node 39, Type 0, BuildingBlock: GIZVER_clean_sbu_0, # of connection points: 8
#     Node 40, Type 0, BuildingBlock: GIZVER_clean_sbu_0, # of connection points: 8
#     Node 41, Type 0, BuildingBlock: GIZVER_clean_sbu_0, # of connection points: 8
#     Node 42, Type 0, BuildingBlock: GIZVER_clean_sbu_0, # of connection points: 8
#     Node 43, Type 0, BuildingBlock: GIZVER_clean_sbu_0, # of connection points: 8
#     Node 44, Type 0, BuildingBlock: GIZVER_clean_sbu_0, # of connection points: 8
#     Node 45, Type 0, BuildingBlock: GIZVER_clean_sbu_0, # of connection points: 8
#     Node 46, Type 0, BuildingBlock: GIZVER_clean_sbu_0, # of connection points: 8
#     Node 47, Type 0, BuildingBlock: GIZVER_clean_sbu_0, # of connection points: 8
#     Edge 48, Type (0, 0), BuildingBlock: OJICUG_clean_linker_0, # of connection points: 2
#     Edge 49, Type (0, 0), BuildingBlock: OJICUG_clean_linker_0, # of connection points: 2
#     Edge 50, Type (0, 0), BuildingBlock: OJICUG_clean_linker_0, # of connection points: 2
#     Edge 51, Type (0, 0), BuildingBlock: OJICUG_clean_linker_0, # of connection points: 2
#     Edge 52, Type (0, 0), BuildingBlock: OJICUG_clean_linker_0, # of connection points: 2
#     Edge 53, Type (0, 0), BuildingBlock: OJICUG_clean_linker_0, # of connection points: 2
#     Edge 54, Type (0, 0), BuildingBlock: OJICUG_clean_linker_0, # of connection points: 2
#     Edge 55, Type (0, 0), BuildingBlock: OJICUG_clean_linker_0, # of connection points: 2
#     Edge 56, Type (0, 0), BuildingBlock: OJICUG_clean_linker_0, # of connection points: 2
#     Edge 57, Type (0, 0), BuildingBlock: OJICUG_clean_linker_0, # of connection points: 2
#     Edge 58, Type (0, 0), BuildingBlock: OJICUG_clean_linker_0, # of connection points: 2
#     Edge 59, Type (0, 0), BuildingBlock: OJICUG_clean_linker_0, # of connection points: 2
#     Edge 60, Type (0, 0), BuildingBlock: OJICUG_clean_linker_0, # of connection points: 2
#     Edge 61, Type (0, 0), BuildingBlock: OJICUG_clean_linker_0, # of connection points: 2
#     Edge 62, Type (0, 0), BuildingBlock: OJICUG_clean_linker_0, # of connection points: 2
#     Edge 63, Type (0, 0), BuildingBlock: OJICUG_clean_linker_0, # of connection points: 2
#     Edge 64, Type (0, 0), BuildingBlock: OJICUG_clean_linker_0, # of connection points: 2
#     Edge 65, Type (0, 0), BuildingBlock: OJICUG_clean_linker_0, # of connection points: 2
#     Edge 66, Type (0, 0), BuildingBlock: OJICUG_clean_linker_0, # of connection points: 2
#     Edge 67, Type (0, 0), BuildingBlock: OJICUG_clean_linker_0, # of connection points: 2
#     Edge 68, Type (0, 0), BuildingBlock: OJICUG_clean_linker_0, # of connection points: 2
#     Edge 69, Type (0, 0), BuildingBlock: OJICUG_clean_linker_0, # of connection points: 2
#     Edge 70, Type (0, 0), BuildingBlock: OJICUG_clean_linker_0, # of connection points: 2
#     Edge 71, Type (0, 0), BuildingBlock: OJICUG_clean_linker_0, # of connection points: 2
#     Edge 72, Type (0, 0), BuildingBlock: OJICUG_clean_linker_0, # of connection points: 2
#     Edge 73, Type (0, 0), BuildingBlock: OJICUG_clean_linker_0, # of connection points: 2
#     Edge 74, Type (0, 0), BuildingBlock: OJICUG_clean_linker_0, # of connection points: 2
#     Edge 75, Type (0, 0), BuildingBlock: OJICUG_clean_linker_0, # of connection points: 2
#     Edge 76, Type (0, 0), BuildingBlock: OJICUG_clean_linker_0, # of connection points: 2
#     Edge 77, Type (0, 0), BuildingBlock: OJICUG_clean_linker_0, # of connection points: 2
#     Edge 78, Type (0, 0), BuildingBlock: OJICUG_clean_linker_0, # of connection points: 2
#     Edge 79, Type (0, 0), BuildingBlock: OJICUG_clean_linker_0, # of connection points: 2
#     Edge 80, Type (0, 0), BuildingBlock: OJICUG_clean_linker_0, # of connection points: 2
#     Edge 81, Type (0, 0), BuildingBlock: OJICUG_clean_linker_0, # of connection points: 2
#     Edge 82, Type (0, 0), BuildingBlock: OJICUG_clean_linker_0, # of connection points: 2
#     Edge 83, Type (0, 0), BuildingBlock: OJICUG_clean_linker_0, # of connection points: 2
#     Edge 84, Type (0, 0), BuildingBlock: OJICUG_clean_linker_0, # of connection points: 2
#     Edge 85, Type (0, 0), BuildingBlock: OJICUG_clean_linker_0, # of connection points: 2
#     Edge 86, Type (0, 0), BuildingBlock: OJICUG_clean_linker_0, # of connection points: 2
#     Edge 87, Type (0, 0), BuildingBlock: OJICUG_clean_linker_0, # of connection points: 2
#     Edge 88, Type (0, 0), BuildingBlock: OJICUG_clean_linker_0, # of connection points: 2
#     Edge 89, Type (0, 0), BuildingBlock: OJICUG_clean_linker_0, # of connection points: 2
#     Edge 90, Type (0, 0), BuildingBlock: OJICUG_clean_linker_0, # of connection points: 2
#     Edge 91, Type (0, 0), BuildingBlock: OJICUG_clean_linker_0, # of connection points: 2
#     Edge 92, Type (0, 0), BuildingBlock: OJICUG_clean_linker_0, # of connection points: 2
#     Edge 93, Type (0, 0), BuildingBlock: OJICUG_clean_linker_0, # of connection points: 2
#     Edge 94, Type (0, 0), BuildingBlock: OJICUG_clean_linker_0, # of connection points: 2
#     Edge 95, Type (0, 0), BuildingBlock: OJICUG_clean_linker_0, # of connection points: 2
#     Edge 96, Type (0, 0), BuildingBlock: OJICUG_clean_linker_0, # of connection points: 2
#     Edge 97, Type (0, 0), BuildingBlock: OJICUG_clean_linker_0, # of connection points: 2
#     Edge 98, Type (0, 0), BuildingBlock: OJICUG_clean_linker_0, # of connection points: 2
#     Edge 99, Type (0, 0), BuildingBlock: OJICUG_clean_linker_0, # of connection points: 2
#     Edge 100, Type (0, 0), BuildingBlock: OJICUG_clean_linker_0, # of connection points: 2
#     Edge 101, Type (0, 0), BuildingBlock: OJICUG_clean_linker_0, # of connection points: 2
#     Edge 102, Type (0, 0), BuildingBlock: OJICUG_clean_linker_0, # of connection points: 2
#     Edge 103, Type (0, 0), BuildingBlock: OJICUG_clean_linker_0, # of connection points: 2
#     Edge 104, Type (0, 0), BuildingBlock: OJICUG_clean_linker_0, # of connection points: 2
#     Edge 105, Type (0, 0), BuildingBlock: OJICUG_clean_linker_0, # of connection points: 2
#     Edge 106, Type (0, 0), BuildingBlock: OJICUG_clean_linker_0, # of connection points: 2
#     Edge 107, Type (0, 0), BuildingBlock: OJICUG_clean_linker_0, # of connection points: 2
#     Edge 108, Type (0, 0), BuildingBlock: OJICUG_clean_linker_0, # of connection points: 2
#     Edge 109, Type (0, 0), BuildingBlock: OJICUG_clean_linker_0, # of connection points: 2
#     Edge 110, Type (0, 0), BuildingBlock: OJICUG_clean_linker_0, # of connection points: 2
#     Edge 111, Type (0, 0), BuildingBlock: OJICUG_clean_linker_0, # of connection points: 2
#     Edge 112, Type (0, 0), BuildingBlock: OJICUG_clean_linker_0, # of connection points: 2
#     Edge 113, Type (0, 0), BuildingBlock: OJICUG_clean_linker_0, # of connection points: 2
#     Edge 114, Type (0, 0), BuildingBlock: OJICUG_clean_linker_0, # of connection points: 2
#     Edge 115, Type (0, 0), BuildingBlock: OJICUG_clean_linker_0, # of connection points: 2
#     Edge 116, Type (0, 0), BuildingBlock: OJICUG_clean_linker_0, # of connection points: 2
#     Edge 117, Type (0, 0), BuildingBlock: OJICUG_clean_linker_0, # of connection points: 2
#     Edge 118, Type (0, 0), BuildingBlock: OJICUG_clean_linker_0, # of connection points: 2
#     Edge 119, Type (0, 0), BuildingBlock: OJICUG_clean_linker_0, # of connection points: 2
#     Edge 120, Type (0, 0), BuildingBlock: OJICUG_clean_linker_0, # of connection points: 2
#     Edge 121, Type (0, 0), BuildingBlock: OJICUG_clean_linker_0, # of connection points: 2
#     Edge 122, Type (0, 0), BuildingBlock: OJICUG_clean_linker_0, # of connection points: 2
#     Edge 123, Type (0, 0), BuildingBlock: OJICUG_clean_linker_0, # of connection points: 2
#     Edge 124, Type (0, 0), BuildingBlock: OJICUG_clean_linker_0, # of connection points: 2
#     Edge 125, Type (0, 0), BuildingBlock: OJICUG_clean_linker_0, # of connection points: 2
#     Edge 126, Type (0, 0), BuildingBlock: OJICUG_clean_linker_0, # of connection points: 2
#     Edge 127, Type (0, 0), BuildingBlock: OJICUG_clean_linker_0, # of connection points: 2
#     Edge 128, Type (0, 0), BuildingBlock: OJICUG_clean_linker_0, # of connection points: 2
#     Edge 129, Type (0, 0), BuildingBlock: OJICUG_clean_linker_0, # of connection points: 2
#     Edge 130, Type (0, 0), BuildingBlock: OJICUG_clean_linker_0, # of connection points: 2
#     Edge 131, Type (0, 0), BuildingBlock: OJICUG_clean_linker_0, # of connection points: 2
#     Edge 132, Type (0, 0), BuildingBlock: OJICUG_clean_linker_0, # of connection points: 2
#     Edge 133, Type (0, 0), BuildingBlock: OJICUG_clean_linker_0, # of connection points: 2
#     Edge 134, Type (0, 0), BuildingBlock: OJICUG_clean_linker_0, # of connection points: 2
#     Edge 135, Type (0, 0), BuildingBlock: OJICUG_clean_linker_0, # of connection points: 2
#     Edge 136, Type (0, 0), BuildingBlock: OJICUG_clean_linker_0, # of connection points: 2
#     Edge 137, Type (0, 0), BuildingBlock: OJICUG_clean_linker_0, # of connection points: 2
#     Edge 138, Type (0, 0), BuildingBlock: OJICUG_clean_linker_0, # of connection points: 2
#     Edge 139, Type (0, 0), BuildingBlock: OJICUG_clean_linker_0, # of connection points: 2
#     Edge 140, Type (0, 0), BuildingBlock: OJICUG_clean_linker_0, # of connection points: 2
#     Edge 141, Type (0, 0), BuildingBlock: OJICUG_clean_linker_0, # of connection points: 2
#     Edge 142, Type (0, 0), BuildingBlock: OJICUG_clean_linker_0, # of connection points: 2
#     Edge 143, Type (0, 0), BuildingBlock: OJICUG_clean_linker_0, # of connection points: 2
#     Edge 144, Type (0, 0), BuildingBlock: OJICUG_clean_linker_0, # of connection points: 2
#     Edge 145, Type (0, 0), BuildingBlock: OJICUG_clean_linker_0, # of connection points: 2
#     Edge 146, Type (0, 0), BuildingBlock: OJICUG_clean_linker_0, # of connection points: 2
#     Edge 147, Type (0, 0), BuildingBlock: OJICUG_clean_linker_0, # of connection points: 2
#     Edge 148, Type (0, 0), BuildingBlock: OJICUG_clean_linker_0, # of connection points: 2
#     Edge 149, Type (0, 0), BuildingBlock: OJICUG_clean_linker_0, # of connection points: 2
#     Edge 150, Type (0, 0), BuildingBlock: OJICUG_clean_linker_0, # of connection points: 2
#     Edge 151, Type (0, 0), BuildingBlock: OJICUG_clean_linker_0, # of connection points: 2
#     Edge 152, Type (0, 0), BuildingBlock: OJICUG_clean_linker_0, # of connection points: 2
#     Edge 153, Type (0, 0), BuildingBlock: OJICUG_clean_linker_0, # of connection points: 2
#     Edge 154, Type (0, 0), BuildingBlock: OJICUG_clean_linker_0, # of connection points: 2
#     Edge 155, Type (0, 0), BuildingBlock: OJICUG_clean_linker_0, # of connection points: 2
#     Edge 156, Type (0, 0), BuildingBlock: OJICUG_clean_linker_0, # of connection points: 2
#     Edge 157, Type (0, 0), BuildingBlock: OJICUG_clean_linker_0, # of connection points: 2
#     Edge 158, Type (0, 0), BuildingBlock: OJICUG_clean_linker_0, # of connection points: 2
#     Edge 159, Type (0, 0), BuildingBlock: OJICUG_clean_linker_0, # of connection points: 2
#     Edge 160, Type (0, 0), BuildingBlock: OJICUG_clean_linker_0, # of connection points: 2
#     Edge 161, Type (0, 0), BuildingBlock: OJICUG_clean_linker_0, # of connection points: 2
#     Edge 162, Type (0, 0), BuildingBlock: OJICUG_clean_linker_0, # of connection points: 2
#     Edge 163, Type (0, 0), BuildingBlock: OJICUG_clean_linker_0, # of connection points: 2
#     Edge 164, Type (0, 0), BuildingBlock: OJICUG_clean_linker_0, # of connection points: 2
#     Edge 165, Type (0, 0), BuildingBlock: OJICUG_clean_linker_0, # of connection points: 2
#     Edge 166, Type (0, 0), BuildingBlock: OJICUG_clean_linker_0, # of connection points: 2
#     Edge 167, Type (0, 0), BuildingBlock: OJICUG_clean_linker_0, # of connection points: 2
#     Edge 168, Type (0, 0), BuildingBlock: OJICUG_clean_linker_0, # of connection points: 2
#     Edge 169, Type (0, 0), BuildingBlock: OJICUG_clean_linker_0, # of connection points: 2
#     Edge 170, Type (0, 0), BuildingBlock: OJICUG_clean_linker_0, # of connection points: 2
#     Edge 171, Type (0, 0), BuildingBlock: OJICUG_clean_linker_0, # of connection points: 2
#     Edge 172, Type (0, 0), BuildingBlock: OJICUG_clean_linker_0, # of connection points: 2
#     Edge 173, Type (0, 0), BuildingBlock: OJICUG_clean_linker_0, # of connection points: 2
#     Edge 174, Type (0, 0), BuildingBlock: OJICUG_clean_linker_0, # of connection points: 2
#     Edge 175, Type (0, 0), BuildingBlock: OJICUG_clean_linker_0, # of connection points: 2
#     Edge 176, Type (0, 0), BuildingBlock: OJICUG_clean_linker_0, # of connection points: 2
#     Edge 177, Type (0, 0), BuildingBlock: OJICUG_clean_linker_0, # of connection points: 2
#     Edge 178, Type (0, 0), BuildingBlock: OJICUG_clean_linker_0, # of connection points: 2
#     Edge 179, Type (0, 0), BuildingBlock: OJICUG_clean_linker_0, # of connection points: 2
#     Edge 180, Type (0, 0), BuildingBlock: OJICUG_clean_linker_0, # of connection points: 2
#     Edge 181, Type (0, 0), BuildingBlock: OJICUG_clean_linker_0, # of connection points: 2
#     Edge 182, Type (0, 0), BuildingBlock: OJICUG_clean_linker_0, # of connection points: 2
#     Edge 183, Type (0, 0), BuildingBlock: OJICUG_clean_linker_0, # of connection points: 2
#     Edge 184, Type (0, 0), BuildingBlock: OJICUG_clean_linker_0, # of connection points: 2
#     Edge 185, Type (0, 0), BuildingBlock: OJICUG_clean_linker_0, # of connection points: 2
#     Edge 186, Type (0, 0), BuildingBlock: OJICUG_clean_linker_0, # of connection points: 2
#     Edge 187, Type (0, 0), BuildingBlock: OJICUG_clean_linker_0, # of connection points: 2
#     Edge 188, Type (0, 0), BuildingBlock: OJICUG_clean_linker_0, # of connection points: 2
#     Edge 189, Type (0, 0), BuildingBlock: OJICUG_clean_linker_0, # of connection points: 2
#     Edge 190, Type (0, 0), BuildingBlock: OJICUG_clean_linker_0, # of connection points: 2
#     Edge 191, Type (0, 0), BuildingBlock: OJICUG_clean_linker_0, # of connection points: 2
#     Edge 192, Type (0, 0), BuildingBlock: OJICUG_clean_linker_0, # of connection points: 2
#     Edge 193, Type (0, 0), BuildingBlock: OJICUG_clean_linker_0, # of connection points: 2
#     Edge 194, Type (0, 0), BuildingBlock: OJICUG_clean_linker_0, # of connection points: 2
#     Edge 195, Type (0, 0), BuildingBlock: OJICUG_clean_linker_0, # of connection points: 2
#     Edge 196, Type (0, 0), BuildingBlock: OJICUG_clean_linker_0, # of connection points: 2
#     Edge 197, Type (0, 0), BuildingBlock: OJICUG_clean_linker_0, # of connection points: 2
#     Edge 198, Type (0, 0), BuildingBlock: OJICUG_clean_linker_0, # of connection points: 2
#     Edge 199, Type (0, 0), BuildingBlock: OJICUG_clean_linker_0, # of connection points: 2
#     Edge 200, Type (0, 0), BuildingBlock: OJICUG_clean_linker_0, # of connection points: 2
#     Edge 201, Type (0, 0), BuildingBlock: OJICUG_clean_linker_0, # of connection points: 2
#     Edge 202, Type (0, 0), BuildingBlock: OJICUG_clean_linker_0, # of connection points: 2
#     Edge 203, Type (0, 0), BuildingBlock: OJICUG_clean_linker_0, # of connection points: 2
#     Edge 204, Type (0, 0), BuildingBlock: OJICUG_clean_linker_0, # of connection points: 2
#     Edge 205, Type (0, 0), BuildingBlock: OJICUG_clean_linker_0, # of connection points: 2
#     Edge 206, Type (0, 0), BuildingBlock: OJICUG_clean_linker_0, # of connection points: 2
#     Edge 207, Type (0, 0), BuildingBlock: OJICUG_clean_linker_0, # of connection points: 2
#     Edge 208, Type (0, 0), BuildingBlock: OJICUG_clean_linker_0, # of connection points: 2
#     Edge 209, Type (0, 0), BuildingBlock: OJICUG_clean_linker_0, # of connection points: 2
#     Edge 210, Type (0, 0), BuildingBlock: OJICUG_clean_linker_0, # of connection points: 2
#     Edge 211, Type (0, 0), BuildingBlock: OJICUG_clean_linker_0, # of connection points: 2
#     Edge 212, Type (0, 0), BuildingBlock: OJICUG_clean_linker_0, # of connection points: 2
#     Edge 213, Type (0, 0), BuildingBlock: OJICUG_clean_linker_0, # of connection points: 2
#     Edge 214, Type (0, 0), BuildingBlock: OJICUG_clean_linker_0, # of connection points: 2
#     Edge 215, Type (0, 0), BuildingBlock: OJICUG_clean_linker_0, # of connection points: 2
#     Edge 216, Type (0, 0), BuildingBlock: OJICUG_clean_linker_0, # of connection points: 2
#     Edge 217, Type (0, 0), BuildingBlock: OJICUG_clean_linker_0, # of connection points: 2
#     Edge 218, Type (0, 0), BuildingBlock: OJICUG_clean_linker_0, # of connection points: 2
#     Edge 219, Type (0, 0), BuildingBlock: OJICUG_clean_linker_0, # of connection points: 2
#     Edge 220, Type (0, 0), BuildingBlock: OJICUG_clean_linker_0, # of connection points: 2
#     Edge 221, Type (0, 0), BuildingBlock: OJICUG_clean_linker_0, # of connection points: 2
#     Edge 222, Type (0, 0), BuildingBlock: OJICUG_clean_linker_0, # of connection points: 2
#     Edge 223, Type (0, 0), BuildingBlock: OJICUG_clean_linker_0, # of connection points: 2
#     Edge 224, Type (0, 0), BuildingBlock: OJICUG_clean_linker_0, # of connection points: 2
#     Edge 225, Type (0, 0), BuildingBlock: OJICUG_clean_linker_0, # of connection points: 2
#     Edge 226, Type (0, 0), BuildingBlock: OJICUG_clean_linker_0, # of connection points: 2
#     Edge 227, Type (0, 0), BuildingBlock: OJICUG_clean_linker_0, # of connection points: 2
#     Edge 228, Type (0, 0), BuildingBlock: OJICUG_clean_linker_0, # of connection points: 2
#     Edge 229, Type (0, 0), BuildingBlock: OJICUG_clean_linker_0, # of connection points: 2
#     Edge 230, Type (0, 0), BuildingBlock: OJICUG_clean_linker_0, # of connection points: 2
#     Edge 231, Type (0, 0), BuildingBlock: OJICUG_clean_linker_0, # of connection points: 2
#     Edge 232, Type (0, 0), BuildingBlock: OJICUG_clean_linker_0, # of connection points: 2
#     Edge 233, Type (0, 0), BuildingBlock: OJICUG_clean_linker_0, # of connection points: 2
#     Edge 234, Type (0, 0), BuildingBlock: OJICUG_clean_linker_0, # of connection points: 2
#     Edge 235, Type (0, 0), BuildingBlock: OJICUG_clean_linker_0, # of connection points: 2
#     Edge 236, Type (0, 0), BuildingBlock: OJICUG_clean_linker_0, # of connection points: 2
#     Edge 237, Type (0, 0), BuildingBlock: OJICUG_clean_linker_0, # of connection points: 2
#     Edge 238, Type (0, 0), BuildingBlock: OJICUG_clean_linker_0, # of connection points: 2
#     Edge 239, Type (0, 0), BuildingBlock: OJICUG_clean_linker_0, # of connection points: 2
# Relax obj value: 0.412
# Max RMSD: 0.244
# Mean RMSD: 0.208
data_MOF--net-pyc--node1-GIZVER_clean_sbu_0--edge1-OJICUG_clean_linker_0
_symmetry_space_group_name_H-M    P1
_symmetry_Int_Tables_number       1
_symmetry_cell_setting            triclinic
loop_
_symmetry_equiv_pos_as_xyz
'x, y, z'
_cell_length_a     50.199094
_cell_length_b     49.11141
_cell_length_c     47.709942
_cell_angle_alpha  89.761788
_cell_angle_beta   87.849557
_cell_angle_gamma 91.420467
loop_
_atom_site_label
_atom_site_type_symbol
_atom_site_fract_x
_atom_site_fract_y
_atom_site_fract_z
_atom_type_partial_charge
Co0 Co 0.19725 0.22718 0.47122 0.0
Co1 Co 0.1984 0.21143 0.51764 0.0
Co2 Co 0.18429 0.1619 0.47744 0.0
O3 O 0.17946 0.19882 0.4903 0.0
H4 H 0.16082 0.20219 0.4943 0.0
O5 O 0.18882 0.1254 0.46493 0.0
Co6 Co 0.16653 0.09551 0.47464 0.0
Co7 Co 0.17611 0.12458 0.42894 0.0
H8 H 0.20743 0.12072 0.46396 0.0
O9 O 0.17967 0.22765 0.54373 0.0
O10 O 0.20599 0.24698 0.50807 0.0
O11 O 0.22721 0.19009 0.52848 0.0
O12 O 0.21653 0.1544 0.50182 0.0
O13 O 0.15687 0.14947 0.50857 0.0
O14 O 0.14827 0.06535 0.48275 0.0
O15 O 0.19225 0.071 0.47207 0.0
O16 O 0.13568 0.11831 0.48345 0.0
O17 O 0.14699 0.16609 0.45632 0.0
O18 O 0.14667 0.14366 0.41654 0.0
O19 O 0.16082 0.09125 0.43337 0.0
O20 O 0.19559 0.10708 0.40422 0.0
C21 C 0.18451 0.25931 0.45126 0.0
C22 C 0.23621 0.19136 0.45197 0.0
C23 C 0.2314 0.16622 0.51976 0.0
C24 C 0.1925 0.24854 0.53236 0.0
C25 C 0.17207 0.05562 0.48088 0.0
C26 C 0.13566 0.13473 0.5045 0.0
C27 C 0.13372 0.15572 0.43556 0.0
C28 C 0.17941 0.0878 0.41361 0.0
O29 O 0.20989 0.25446 0.45112 0.0
O30 O 0.16767 0.24598 0.46786 0.0
O31 O 0.21598 0.17446 0.44674 0.0
O32 O 0.23131 0.20953 0.47041 0.0
Co33 Co 0.88127 0.46853 0.69675 0.0
Co34 Co 0.86528 0.45595 0.74052 0.0
Co35 Co 0.92832 0.44883 0.72812 0.0
O36 O 0.89113 0.44141 0.72153 0.0
H37 H 0.88722 0.42295 0.71574 0.0
O38 O 0.96569 0.4566 0.73446 0.0
Co39 Co 0.98847 0.4325 0.75085 0.0
Co40 Co 0.98446 0.44771 0.70259 0.0
H41 H 0.96902 0.4754 0.73946 0.0
O42 O 0.83736 0.43359 0.74314 0.0
O43 O 0.8439 0.46903 0.71227 0.0
O44 O 0.87686 0.475 0.77385 0.0
O45 O 0.92108 0.47137 0.7653 0.0
O46 O 0.92895 0.41414 0.75066 0.0
O47 O 1.01072 0.41163 0.76735 0.0
O48 O 1.00755 0.45736 0.77036 0.0
O49 O 0.96939 0.402 0.73562 0.0
O50 O 0.93388 0.41993 0.69321 0.0
O51 O 0.97631 0.41657 0.68014 0.0
O52 O 1.01477 0.43814 0.71745 0.0
O53 O 1.0046 0.47383 0.68801 0.0
C54 C 0.8725 0.46864 0.65645 0.0
C55 C 0.91074 0.50547 0.71343 0.0
C56 C 0.90088 0.47948 0.78087 0.0
C57 C 0.82891 0.44947 0.72353 0.0
C58 C 1.01792 0.43457 0.77836 0.0
C59 C 0.94606 0.39562 0.74591 0.0
C60 C 0.95303 0.40658 0.67982 0.0
C61 C 1.02154 0.45835 0.69996 0.0
O62 O 0.87344 0.49139 0.67022 0.0
O63 O 0.87406 0.44546 0.6696 0.0
O64 O 0.92822 0.48721 0.70636 0.0
O65 O 0.88838 0.49624 0.72198 0.0
Co66 Co 0.69642 0.23219 0.96652 0.0
Co67 Co 0.70157 0.21812 1.01199 0.0
Co68 Co 0.68396 0.16681 0.97685 0.0
O69 O 0.67994 0.20439 0.98777 0.0
H70 H 0.66165 0.20803 0.99329 0.0
O71 O 0.68758 0.12964 0.96567 0.0
Co72 Co 0.66397 0.10146 0.97812 0.0
Co73 Co 0.67456 0.12776 0.92927 0.0
H74 H 0.70598 0.12424 0.9651 0.0
O75 O 0.68458 0.23258 0.04003 0.0
O76 O 0.70625 0.25381 1.0021 0.0
O77 O 0.73201 0.19798 1.02005 0.0
O78 O 0.71633 0.15956 1.00111 0.0
O79 O 0.65681 0.15661 1.00938 0.0
O80 O 0.64453 0.073 0.98903 0.0
O81 O 0.68824 0.07507 0.97591 0.0
O82 O 0.63484 0.12545 0.98566 0.0
O83 O 0.64647 0.17028 0.95608 0.0
O84 O 0.64678 0.14897 0.91572 0.0
O85 O 0.65557 0.09694 0.93789 0.0
O86 O 0.6895 0.10444 0.90532 0.0
C87 C 0.68246 0.26358 0.94594 0.0
C88 C 0.73557 0.19512 0.94871 0.0
C89 C 0.73392 0.17285 1.01486 0.0
C90 C 0.69476 0.2543 0.02755 0.0
C91 C 0.66757 0.06162 0.98685 0.0
C92 C 0.6354 0.14195 1.00632 0.0
C93 C 0.63342 0.16 0.93517 0.0
C94 C 0.6715 0.08856 0.91755 0.0
O95 O 0.70784 0.25878 0.94475 0.0
O96 O 0.66636 0.2505 0.96356 0.0
O97 O 0.71546 0.1775 0.94529 0.0
O98 O 0.73074 0.21512 0.96499 0.0
Co99 Co 0.88083 0.96493 0.19205 0.0
Co100 Co 0.86575 0.95826 0.23667 0.0
Co101 Co 0.92836 0.94956 0.22569 0.0
O102 O 0.89139 0.94114 0.21991 0.0
H103 H 0.88752 0.92213 0.21651 0.0
O104 O 0.96546 0.95836 0.23134 0.0
Co105 Co 0.9887 0.93595 0.24919 0.0
Co106 Co 0.98454 0.94895 0.19976 0.0
H107 H 0.96831 0.97745 0.23558 0.0
O108 O 0.83986 0.93513 0.24459 0.0
O109 O 0.843 0.96426 0.20688 0.0
O110 O 0.87742 0.98171 0.26723 0.0
O111 O 0.92099 0.97221 0.26231 0.0
O112 O 0.92989 0.9154 0.24884 0.0
O113 O 1.01161 0.91683 0.26689 0.0
O114 O 1.00657 0.96244 0.26765 0.0
O115 O 0.97091 0.90399 0.23504 0.0
O116 O 0.93416 0.92055 0.19125 0.0
O117 O 0.97678 0.91668 0.17876 0.0
O118 O 1.01485 0.94125 0.21607 0.0
O119 O 1.00478 0.97538 0.18511 0.0
C120 C 0.87309 0.9606 0.15173 0.0
C121 C 0.90888 1.00524 0.20824 0.0
C122 C 0.90124 0.98374 0.27569 0.0
C123 C 0.83014 0.94554 0.22206 0.0
C124 C 1.01786 0.94058 0.27675 0.0
C125 C 0.94755 0.89727 0.24504 0.0
C126 C 0.95339 0.90682 0.17855 0.0
C127 C 1.0216 0.96255 0.20012 0.0
O128 O 0.8726 0.98445 0.16337 0.0
O129 O 0.87538 0.93878 0.16705 0.0
O130 O 0.9275 0.98756 0.20348 0.0
O131 O 0.88598 0.99561 0.21411 0.0
Co132 Co 0.13233 0.18604 0.85147 0.0
Co133 Co 0.12988 0.18988 0.80397 0.0
Co134 Co 0.13364 0.12833 0.82075 0.0
O135 O 0.14336 0.16549 0.82277 0.0
H136 H 0.16245 0.16762 0.81988 0.0
O137 O 0.12684 0.08817 0.81716 0.0
Co138 Co 0.15276 0.06887 0.79267 0.0
Co139 Co 0.14293 0.06622 0.8426 0.0
H140 H 0.10838 0.08332 0.81425 0.0
O141 O 0.15515 0.20591 0.7841 0.0
O142 O 0.13446 0.22067 0.8251 0.0
O143 O 0.10017 0.17798 0.78326 0.0
O144 O 0.10955 0.13343 0.78592 0.0
O145 O 0.16659 0.12629 0.79452 0.0
O146 O 0.17335 0.05144 0.76853 0.0
O147 O 0.12843 0.04966 0.77243 0.0
O148 O 0.18318 0.08766 0.80736 0.0
O149 O 0.16318 0.12455 0.8541 0.0
O150 O 0.17239 0.08097 0.86239 0.0
O151 O 0.15572 0.03817 0.82078 0.0
O152 O 0.12576 0.0376 0.8585 0.0
C153 C 0.15154 0.20094 0.88383 0.0
C154 C 0.08135 0.15843 0.84658 0.0
C155 C 0.0966 0.15351 0.77533 0.0
C156 C 0.14962 0.22513 0.80194 0.0
C157 C 0.15067 0.04391 0.75868 0.0
C158 C 0.18694 0.11173 0.79794 0.0
C159 C 0.17883 0.10584 0.86477 0.0
C160 C 0.14292 1.02558 0.84191 0.0
O161 O 0.12599 0.20474 0.88166 0.0
O162 O 0.16543 0.19133 0.86283 0.0
O163 O 0.09523 0.13545 0.84436 0.0
O164 O 0.09476 0.18083 0.84407 0.0
Co165 Co 0.86851 0.39475 0.12616 0.0
Co166 Co 0.8577 0.38379 0.08216 0.0
Co167 Co 0.9185 0.39778 0.08051 0.0
O168 O 0.88254 0.40627 0.09111 0.0
H169 H 0.8784 0.4248 0.08637 0.0
O170 O 0.95469 0.38939 0.0698 0.0
Co171 Co 0.9789 0.41222 0.04912 0.0
Co172 Co 0.97195 0.39884 0.10227 0.0
H173 H 0.95699 0.37026 0.066 0.0
O174 O 0.83542 0.40111 0.06344 0.0
O175 O 0.83164 0.38707 0.10971 0.0
O176 O 0.86844 0.34978 0.0664 0.0
O177 O 0.90875 0.36713 0.05384 0.0
O178 O 0.9187 0.42795 0.0489 0.0
O179 O 1.00308 0.43155 0.02992 0.0
O180 O 1.0002 0.3859 0.03477 0.0
O181 O 0.95889 0.44367 0.05876 0.0
O182 O 0.92769 0.43241 0.10453 0.0
O183 O 0.96517 0.42905 0.12614 0.0
O184 O 1.00044 0.41258 0.08346 0.0
O185 O 0.99472 0.37528 0.1127 0.0
C186 C 0.85357 0.41454 0.15943 0.0
C187 C 0.89993 0.34811 0.12054 0.0
C188 C 0.89101 0.34777 0.0538 0.0
C189 C 0.82136 0.39656 0.0866 0.0
C190 C 1.01218 0.40772 0.02399 0.0
C191 C 0.93717 0.44701 0.04607 0.0
C192 C 0.94615 0.4434 0.11918 0.0
C193 C 1.0096 0.39137 0.09665 0.0
O194 O 0.8561 0.38824 0.15982 0.0
O195 O 0.85969 0.42833 0.13659 0.0
O196 O 0.9194 0.36478 0.11131 0.0
O197 O 0.87655 0.35726 0.12075 0.0
Co198 Co 0.63276 0.18646 0.35014 0.0
Co199 Co 0.63057 0.18974 0.30252 0.0
Co200 Co 0.63345 0.12823 0.32013 0.0
O201 O 0.64351 0.16539 0.32184 0.0
H202 H 0.66261 0.16724 0.31894 0.0
O203 O 0.62641 0.08802 0.3168 0.0
Co204 Co 0.65233 0.06867 0.29226 0.0
Co205 Co 0.6425 0.06599 0.34224 0.0
H206 H 0.60794 0.08324 0.31386 0.0
O207 O 0.65593 0.20544 0.28244 0.0
O208 O 0.63491 0.2208 0.32305 0.0
O209 O 0.60056 0.17817 0.28243 0.0
O210 O 0.60896 0.1334 0.28564 0.0
O211 O 0.66608 0.12585 0.29358 0.0
O212 O 0.6729 0.0513 0.26806 0.0
O213 O 0.62799 0.04945 0.27204 0.0
O214 O 0.68271 0.08743 0.30692 0.0
O215 O 0.66315 0.12441 0.35323 0.0
O216 O 0.6719 0.08081 0.36204 0.0
O217 O 0.65544 0.03799 0.32035 0.0
O218 O 0.62559 0.03716 0.35814 0.0
C219 C 0.65223 0.2016 0.38215 0.0
C220 C 0.58162 0.15863 0.34615 0.0
C221 C 0.59629 0.15367 0.27501 0.0
C222 C 0.64994 0.22501 0.29971 0.0
C223 C 0.65022 0.04378 0.25821 0.0
C224 C 0.68645 0.11141 0.29726 0.0
C225 C 0.67857 0.10565 0.36414 0.0
C226 C 0.64288 1.0253 0.34156 0.0
O227 O 0.62671 0.20563 0.38006 0.0
O228 O 0.66596 0.19182 0.36114 0.0
O229 O 0.59545 0.13563 0.34412 0.0
O230 O 0.59501 0.18104 0.34318 0.0
Co231 Co 0.87051 0.89417 0.62465 0.0
Co232 Co 0.85861 0.88367 0.58054 0.0
Co233 Co 0.91998 0.89689 0.57838 0.0
O234 O 0.88399 0.90535 0.58924 0.0
H235 H 0.87998 0.92395 0.58465 0.0
O236 O 0.95679 0.88948 0.56745 0.0
Co237 Co 0.98133 0.91474 0.54883 0.0
Co238 Co 0.97236 0.89899 0.60139 0.0
H239 H 0.95974 0.87057 0.56299 0.0
O240 O 0.83556 0.90148 0.56309 0.0
O241 O 0.83342 0.88663 0.60909 0.0
O242 O 0.86906 0.84987 0.56472 0.0
O243 O 0.91017 0.86559 0.55237 0.0
O244 O 0.91986 0.92683 0.54649 0.0
O245 O 1.00532 0.93651 0.53189 0.0
O246 O 1.00548 0.89078 0.5343 0.0
O247 O 0.95885 0.94423 0.55828 0.0
O248 O 0.92863 0.93172 0.60204 0.0
O249 O 0.96374 0.92764 0.62707 0.0
O250 O 1.00101 0.91466 0.58464 0.0
O251 O 0.99519 0.87606 0.61223 0.0
C252 C 0.85565 0.91411 0.65789 0.0
C253 C 0.90147 0.84726 0.61885 0.0
C254 C 0.89171 0.84686 0.55255 0.0
C255 C 0.82236 0.89679 0.58676 0.0
C256 C 1.01642 0.91386 0.52512 0.0
C257 C 0.93782 0.94646 0.54415 0.0
C258 C 0.94574 0.94241 0.61842 0.0
C259 C 1.01024 0.89342 0.59785 0.0
O260 O 0.85856 0.88787 0.65852 0.0
O261 O 0.86187 0.92783 0.63504 0.0
O262 O 0.92103 0.86384 0.60941 0.0
O263 O 0.87819 0.85666 0.6192 0.0
Co264 Co 0.52081 0.10101 0.1126 0.0
Co265 Co 0.47134 0.10905 0.12654 0.0
Co266 Co 0.50082 0.16965 0.12801 0.0
O267 O 0.50226 0.12827 0.13512 0.0
H268 H 0.50517 0.1248 0.15471 0.0
O269 O 0.49906 0.21339 0.1244 0.0
Co270 Co 0.47139 0.24364 0.14048 0.0
Co271 Co 0.51186 0.22278 0.1604 0.0
H272 H 0.51116 0.22048 0.10976 0.0
O273 O 0.4596 0.07701 0.14484 0.0
O274 O 0.48528 0.08022 0.10501 0.0
O275 O 0.44798 0.12873 0.10405 0.0
O276 O 0.47403 0.16592 0.09563 0.0
O277 O 0.47073 0.1707 0.15762 0.0
O278 O 0.4479 0.2706 0.15537 0.0
O279 O 0.48069 0.27998 0.1248 0.0
O280 O 0.45723 0.2141 0.1604 0.0
O281 O 0.52913 0.17003 0.15877 0.0
O282 O 0.51264 0.19683 0.19109 0.0
O283 O 0.49406 0.25222 0.17123 0.0
O284 O 0.53795 0.24927 0.15932 0.0
C285 C 0.53674 0.06291 0.1185 0.0
C286 C 0.53631 0.14705 0.08059 0.0
C287 C 0.45433 0.14962 0.0893 0.0
C288 C 0.47088 0.06518 0.12338 0.0
C289 C 0.46174 0.28944 0.14186 0.0
C290 C 0.45539 0.18919 0.16763 0.0
C291 C 0.52635 0.17645 0.18477 0.0
C292 C 0.51766 0.26347 0.16766 0.0
O293 O 0.53801 0.075 0.09418 0.0
O294 O 0.52594 0.07549 0.14006 0.0
O295 O 0.53184 0.16673 0.09818 0.0
O296 O 0.52054 0.1259 0.08098 0.0
Co297 Co 0.89354 0.70565 0.44696 0.0
Co298 Co 0.90436 0.75349 0.44369 0.0
Co299 Co 0.90586 0.72989 0.38304 0.0
O300 O 0.91296 0.72657 0.42202 0.0
H301 H 0.93188 0.72434 0.42395 0.0
O302 O 0.90165 0.73476 0.34184 0.0
Co303 Co 0.92837 0.75776 0.32067 0.0
Co304 Co 0.91844 0.70855 0.32048 0.0
H305 H 0.88343 0.73749 0.33684 0.0
O306 O 0.92954 0.76537 0.46526 0.0
O307 O 0.89349 0.73674 0.47608 0.0
O308 O 0.87746 0.77688 0.43178 0.0
O309 O 0.87605 0.7607 0.38822 0.0
O310 O 0.93605 0.75801 0.38162 0.0
O311 O 0.95025 0.77991 0.30104 0.0
O312 O 0.90572 0.77626 0.29816 0.0
O313 O 0.9568 0.74522 0.34267 0.0
O314 O 0.94003 0.70002 0.37824 0.0
O315 O 0.94804 0.68851 0.33374 0.0
O316 O 0.93358 0.72824 0.29129 0.0
O317 O 0.90048 0.69483 0.29234 0.0
C318 C 0.90318 0.6773 0.47404 0.0
C319 C 0.85168 0.70744 0.41094 0.0
C320 C 0.8667 0.77652 0.40823 0.0
C321 C 0.91136 0.75558 0.48304 0.0
C322 C 0.92843 0.78883 0.29113 0.0
C323 C 0.95762 0.75648 0.36667 0.0
C324 C 0.9558 0.68814 0.35857 0.0
C325 C 0.91897 0.70934 0.27907 0.0
O326 O 0.87826 0.68306 0.47108 0.0
O327 O 0.92206 0.69153 0.46115 0.0
O328 O 0.86932 0.70434 0.38945 0.0
O329 O 0.86055 0.71725 0.4335 0.0
Co330 Co 0.35293 0.15224 0.74338 0.0
Co331 Co 0.31227 0.16589 0.71755 0.0
Co332 Co 0.36031 0.1706 0.6739 0.0
O333 O 0.34801 0.17804 0.71346 0.0
H334 H 0.35046 0.19693 0.7186 0.0
O335 O 0.36921 0.1599 0.63583 0.0
Co336 Co 0.34813 0.17315 0.60708 0.0
Co337 Co 0.39621 0.17815 0.61849 0.0
H338 H 0.3723 0.1406 0.63417 0.0
O339 O 0.28888 0.18054 0.74284 0.0
O340 O 0.31213 0.14178 0.7478 0.0
O341 O 0.29663 0.14603 0.68667 0.0
O342 O 0.33711 0.13596 0.67119 0.0
O343 O 0.33081 0.19319 0.66119 0.0
O344 O 0.32856 0.18349 0.57928 0.0
O345 O 0.33971 0.14071 0.59032 0.0
O346 O 0.35043 0.20873 0.62199 0.0
O347 O 0.38334 0.21056 0.6718 0.0
O348 O 0.40403 0.21451 0.62933 0.0
O349 O 0.38207 0.1776 0.58396 0.0
O350 O 0.41937 0.15742 0.60054 0.0
C351 C 0.35822 0.15539 0.78491 0.0
C352 C 0.38167 0.12213 0.70235 0.0
C353 C 0.31199 0.13102 0.67225 0.0
C354 C 0.29081 0.15638 0.75379 0.0
C355 C 0.32582 0.15748 0.57559 0.0
C356 C 0.33548 0.21254 0.6438 0.0
C357 C 0.39636 0.22581 0.65191 0.0
C358 C 0.40228 0.16106 0.58108 0.0
O359 O 0.35947 0.13199 0.77246 0.0
O360 O 0.34995 0.17671 0.77164 0.0
O361 O 0.38902 0.14369 0.68749 0.0
O362 O 0.36015 0.12299 0.71761 0.0
Co363 Co 0.98004 0.56863 0.93579 0.0
Co364 Co 0.97143 0.61917 0.93182 0.0
Co365 Co 0.91092 0.58577 0.92957 0.0
O366 O 0.95145 0.58882 0.9191 0.0
H367 H 0.95384 0.58835 0.89892 0.0
O368 O 0.86876 0.58468 0.93856 0.0
Co369 Co 0.83837 0.59352 0.90997 0.0
Co370 Co 0.85981 0.54926 0.92928 0.0
H371 H 0.86414 0.58854 0.95795 0.0
O372 O 1.00301 0.63522 0.91452 0.0
O373 O 1.00171 0.60406 0.9491 0.0
O374 O 0.95154 0.63832 0.95959 0.0
O375 O 0.91525 0.61047 0.96516 0.0
O376 O 0.90372 0.61739 0.90385 0.0
O377 O 0.81096 0.60153 0.88372 0.0
O378 O 0.80178 0.5944 0.92839 0.0
O379 O 0.86877 0.59558 0.88564 0.0
O380 O 0.90877 0.56107 0.89397 0.0
O381 O 0.88485 0.52561 0.90942 0.0
O382 O 0.83287 0.55389 0.90477 0.0
O383 O 0.83211 0.53337 0.94791 0.0
C384 C 1.01608 0.55431 0.92206 0.0
C385 C 0.93661 0.54722 0.97169 0.0
C386 C 0.93098 0.63004 0.97381 0.0
C387 C 1.01572 0.62244 0.93356 0.0
C388 C 0.79253 0.60023 0.90352 0.0
C389 C 0.88409 0.61668 0.88712 0.0
C390 C 0.89997 0.53648 0.89045 0.0
C391 C 0.82231 0.53648 0.92326 0.0
O392 O 1.00666 0.54941 0.94739 0.0
O393 O 1.00237 0.56859 0.90481 0.0
O394 O 0.91725 0.55223 0.9552 0.0
O395 O 0.95797 0.56257 0.97057 0.0
Co396 Co 0.26216 0.46589 0.11856 0.0
Co397 Co 0.23582 0.50858 0.11323 0.0
Co398 Co 0.19723 0.45592 0.11084 0.0
O399 O 0.2316 0.47353 0.10055 0.0
H400 H 0.23432 0.47347 0.08039 0.0
O401 O 0.1625 0.44031 0.12119 0.0
Co402 Co 0.13394 0.45139 0.09954 0.0
Co403 Co 0.15933 0.4044 0.10941 0.0
H404 H 0.15845 0.4411 0.14113 0.0
O405 O 0.25944 0.53465 0.09789 0.0
O406 O 0.26661 0.50506 0.13323 0.0
O407 O 0.20788 0.52063 0.13864 0.0
O408 O 0.19094 0.47883 0.14604 0.0
O409 O 0.18193 0.4846 0.08758 0.0
O410 O 0.10514 0.46154 0.0827 0.0
O411 O 0.10929 0.45096 0.12835 0.0
O412 O 0.15524 0.45618 0.06656 0.0
O413 O 0.20123 0.43282 0.07329 0.0
O414 O 0.18223 0.39183 0.0798 0.0
O415 O 0.1302 0.41315 0.08979 0.0
O416 O 0.13228 0.38109 0.12349 0.0
C417 C 0.29918 0.46168 0.10417 0.0
C418 C 0.22707 0.43552 0.1569 0.0
C419 C 0.19279 0.50403 0.15258 0.0
C420 C 0.27185 0.52837 0.12035 0.0
C421 C 0.0962 0.46277 0.1086 0.0
C422 C 0.16993 0.47748 0.06584 0.0
C423 C 0.19366 0.40924 0.06355 0.0
C424 C 0.11948 0.39321 0.10411 0.0
O425 O 0.29301 0.45724 0.13065 0.0
O426 O 0.28266 0.47308 0.08783 0.0
O427 O 0.21309 0.42758 0.1363 0.0
O428 O 0.24328 0.45577 0.15329 0.0
Co429 Co 0.62893 0.37904 0.18464 0.0
Co430 Co 0.61857 0.33344 0.18144 0.0
Co431 Co 0.68124 0.34673 0.17184 0.0
O432 O 0.64383 0.35059 0.16317 0.0
H433 H 0.64048 0.35111 0.14336 0.0
O434 O 0.71872 0.34407 0.18033 0.0
Co435 Co 0.74638 0.33178 0.15751 0.0
Co436 Co 0.73155 0.37662 0.1651 0.0
H437 H 0.72175 0.34302 0.2002 0.0
O438 O 0.59307 0.32238 0.16044 0.0
O439 O 0.59353 0.35938 0.18969 0.0
O440 O 0.63025 0.311 0.21027 0.0
O441 O 0.67461 0.3169 0.20271 0.0
O442 O 0.6867 0.31954 0.14139 0.0
O443 O 0.77291 0.31988 0.13713 0.0
O444 O 0.76764 0.31899 0.18426 0.0
O445 O 0.72585 0.33814 0.12576 0.0
O446 O 0.68397 0.37417 0.13713 0.0
O447 O 0.72413 0.39121 0.12875 0.0
O448 O 0.76526 0.36964 0.16132 0.0
O449 O 0.74111 0.39917 0.19015 0.0
C450 C 0.61258 0.41442 0.17599 0.0
C451 C 0.66153 0.37031 0.22498 0.0
C452 C 0.65406 0.30641 0.21662 0.0
C453 C 0.58104 0.34216 0.17354 0.0
C454 C 0.78042 0.31146 0.16122 0.0
C455 C 0.70524 0.32261 0.12213 0.0
C456 C 0.70116 0.38652 0.12024 0.0
C457 C 0.76337 0.38984 0.17972 0.0
O458 O 0.61636 0.40691 0.20157 0.0
O459 O 0.61809 0.39809 0.15515 0.0
O460 O 0.67917 0.37395 0.20491 0.0
O461 O 0.63829 0.36368 0.21835 0.0
Co462 Co 0.75304 0.87982 0.46286 0.0
Co463 Co 0.70451 0.89298 0.45278 0.0
Co464 Co 0.73561 0.89152 0.39214 0.0
O465 O 0.73669 0.90073 0.43363 0.0
H466 H 0.74056 0.9199 0.43612 0.0
O467 O 0.73539 0.88299 0.34974 0.0
Co468 Co 0.72323 0.90953 0.32085 0.0
Co469 Co 0.77108 0.89239 0.3359 0.0
H470 H 0.73058 0.86424 0.34593 0.0
O471 O 0.69357 0.90977 0.48649 0.0
O472 O 0.71587 0.87065 0.48245 0.0
O473 O 0.67879 0.87608 0.42899 0.0
O474 O 0.70954 0.86041 0.39849 0.0
O475 O 0.70489 0.91692 0.38775 0.0
O476 O 0.7134 0.93216 0.29332 0.0
O477 O 0.72085 0.88784 0.28814 0.0
O478 O 0.72335 0.93548 0.34925 0.0
O479 O 0.75996 0.9238 0.38728 0.0
O480 O 0.79427 0.91521 0.35851 0.0
O481 O 0.76022 0.91815 0.31108 0.0
O482 O 0.78378 0.8814 0.30003 0.0
C483 C 0.76494 0.88759 0.50255 0.0
C484 C 0.77075 0.84775 0.41519 0.0
C485 C 0.68593 0.85949 0.40989 0.0
C486 C 0.70283 0.88838 0.49851 0.0
C487 C 0.71497 0.9113 0.27677 0.0
C488 C 0.7045 0.9343 0.36772 0.0
C489 C 0.78287 0.93004 0.37676 0.0
C490 C 0.77346 0.90417 0.29268 0.0
O491 O 0.76804 0.86369 0.4914 0.0
O492 O 0.75556 0.9073 0.48766 0.0
O493 O 0.76696 0.86574 0.39603 0.0
O494 O 0.75597 0.84761 0.43805 0.0
Co495 Co 0.2609 0.97262 0.61712 0.0
Co496 Co 0.23102 1.01311 0.61277 0.0
Co497 Co 0.19636 0.95802 0.6107 0.0
O498 O 0.22942 0.97785 0.60003 0.0
H499 H 0.23192 0.97784 0.57986 0.0
O500 O 0.16264 0.94017 0.62117 0.0
Co501 Co 0.13364 0.95053 0.59958 0.0
Co502 Co 0.16065 0.90413 0.60919 0.0
H503 H 0.15858 0.94074 0.64112 0.0
O504 O 0.25267 0.04084 0.59735 0.0
O505 O 0.26248 1.01165 0.63206 0.0
O506 O 0.20163 1.02336 0.63772 0.0
O507 O 0.18867 0.9804 0.64588 0.0
O508 O 0.17914 0.98552 0.58741 0.0
O509 O 0.10455 0.95997 0.58289 0.0
O510 O 0.10917 0.94981 0.62857 0.0
O511 O 0.15444 0.95543 0.56641 0.0
O512 O 0.20173 0.93517 0.5734 0.0
O513 O 0.18367 0.89351 0.57882 0.0
O514 O 0.13111 0.91229 0.58996 0.0
O515 O 0.13372 0.87972 0.6228 0.0
C516 C 0.29808 0.97198 0.60196 0.0
C517 C 0.22796 0.94032 0.65631 0.0
C518 C 0.18788 1.00574 0.65187 0.0
C519 C 0.26649 0.03497 0.61895 0.0
C520 C 0.0958 0.96134 0.60885 0.0
C521 C 0.16818 0.97732 0.56544 0.0
C522 C 0.19473 0.91166 0.56313 0.0
C523 C 0.1205 0.89223 0.60404 0.0
O524 O 0.29268 0.96669 0.62845 0.0
O525 O 0.28026 0.98165 0.586 0.0
O526 O 0.21421 0.93112 0.63608 0.0
O527 O 0.24345 0.96103 0.65199 0.0
Co528 Co 0.62121 0.32058 0.38371 0.0
Co529 Co 0.57949 0.34481 0.39602 0.0
Co530 Co 0.62655 0.38653 0.3952 0.0
O531 O 0.61404 0.35023 0.40452 0.0
H532 H 0.6156 0.3472 0.42442 0.0
O533 O 0.63645 0.42393 0.38662 0.0
Co534 Co 0.62109 0.44954 0.41202 0.0
Co535 Co 0.67064 0.4331 0.39712 0.0
H536 H 0.63435 0.42867 0.36716 0.0
O537 O 0.55803 0.32127 0.41582 0.0
O538 O 0.58096 0.3134 0.37462 0.0
O539 O 0.56257 0.37538 0.37851 0.0
O540 O 0.60236 0.39009 0.36267 0.0
O541 O 0.59719 0.3973 0.42075 0.0
O542 O 0.60685 0.47509 0.43236 0.0
O543 O 0.61608 0.47587 0.38573 0.0
O544 O 0.62143 0.42593 0.44374 0.0
O545 O 0.65117 0.38449 0.43056 0.0
O546 O 0.68721 0.41149 0.4241 0.0
O547 O 0.65785 0.46091 0.41871 0.0
O548 O 0.68774 0.46387 0.38221 0.0
C549 C 0.63133 0.28556 0.39566 0.0
C550 C 0.64743 0.35937 0.34551 0.0
C551 C 0.57703 0.39096 0.36272 0.0
C552 C 0.5605 0.30804 0.3923 0.0
C553 C 0.60457 0.48654 0.40804 0.0
C554 C 0.60238 0.40854 0.44356 0.0
C555 C 0.67309 0.39552 0.43969 0.0
C556 C 0.67349 0.47523 0.40194 0.0
O557 O 0.63113 0.2903 0.36869 0.0
O558 O 0.61771 0.29978 0.41356 0.0
O559 O 0.65449 0.37429 0.36629 0.0
O560 O 0.62867 0.34132 0.34919 0.0
Co561 Co 0.1259 0.88184 0.18681 0.0
Co562 Co 0.1149 0.83851 0.17059 0.0
Co563 Co 0.1775 0.84908 0.17281 0.0
O564 O 0.14212 0.8582 0.16152 0.0
H565 H 0.14123 0.8633 0.142 0.0
O566 O 0.21375 0.84123 0.18407 0.0
Co567 Co 0.24198 0.82665 0.16304 0.0
Co568 Co 0.23089 0.87253 0.16976 0.0
H569 H 0.21534 0.83981 0.20416 0.0
O570 O 0.09189 0.83631 0.14434 0.0
O571 O 0.09016 0.86253 0.18404 0.0
O572 O 0.12183 0.80872 0.19423 0.0
O573 O 0.16589 0.81642 0.19759 0.0
O574 O 0.18181 0.82484 0.13968 0.0
O575 O 0.26839 0.81347 0.14426 0.0
O576 O 0.26085 0.8119 0.19111 0.0
O577 O 0.22476 0.83513 0.12984 0.0
O578 O 0.18602 0.88121 0.14337 0.0
O579 O 0.22829 0.88569 0.13207 0.0
O580 O 0.26359 0.8624 0.16923 0.0
O581 O 0.24063 0.89474 0.19539 0.0
C582 C 0.11168 0.91905 0.18411 0.0
C583 C 0.15438 0.86519 0.22792 0.0
C584 C 0.14408 0.80319 0.20446 0.0
C585 C 0.07851 0.84999 0.16334 0.0
C586 C 0.27497 0.80509 0.16862 0.0
C587 C 0.20251 0.82396 0.12324 0.0
C588 C 0.20477 0.88594 0.12424 0.0
C589 C 0.26235 0.88233 0.18791 0.0
O590 O 0.11204 0.90641 0.20802 0.0
O591 O 0.11846 0.9066 0.16092 0.0
O592 O 0.17397 0.87139 0.21033 0.0
O593 O 0.13223 0.85961 0.21744 0.0
Co594 Co 0.12058 0.32057 0.88591 0.0
Co595 Co 0.0788 0.34474 0.89868 0.0
Co596 Co 0.12591 0.38654 0.89774 0.0
O597 O 0.11354 0.35015 0.90713 0.0
H598 H 0.1153 0.34703 0.92698 0.0
O599 O 0.13561 0.42388 0.88863 0.0
Co600 Co 0.12061 0.4501 0.9133 0.0
Co601 Co 0.1699 0.43303 0.89855 0.0
H602 H 0.1335 0.42827 0.86909 0.0
O603 O 0.05723 0.32065 0.91783 0.0
O604 O 0.08038 0.3137 0.87661 0.0
O605 O 0.06175 0.3754 0.88139 0.0
O606 O 0.1015 0.38983 0.86524 0.0
O607 O 0.09664 0.39731 0.92352 0.0
O608 O 0.10669 0.47619 0.93308 0.0
O609 O 0.11581 0.47587 0.88643 0.0
O610 O 0.12073 0.42707 0.94541 0.0
O611 O 0.15074 0.38496 0.93317 0.0
O612 O 0.1867 0.41186 0.9257 0.0
O613 O 0.15756 0.46141 0.91955 0.0
O614 O 0.18714 0.46319 0.88266 0.0
C615 C 0.13045 0.28531 0.89753 0.0
C616 C 0.14687 0.35954 0.84789 0.0
C617 C 0.07615 0.3908 0.86537 0.0
C618 C 0.0598 0.30796 0.894 0.0
C619 C 0.10449 0.48713 0.90851 0.0
C620 C 0.1015 0.40984 0.94575 0.0
C621 C 0.17284 0.39613 0.94179 0.0
C622 C 0.17327 0.47516 0.90228 0.0
O623 O 0.13035 0.29034 0.87061 0.0
O624 O 0.11696 0.29951 0.91556 0.0
O625 O 0.15387 0.3744 0.86874 0.0
O626 O 0.12811 0.3415 0.85152 0.0
Co627 Co 0.11096 0.69123 0.34115 0.0
Co628 Co 0.13925 0.6857 0.29782 0.0
Co629 Co 0.13122 0.62963 0.32458 0.0
O630 O 0.13701 0.66777 0.33001 0.0
H631 H 0.15364 0.67104 0.33915 0.0
O632 O 0.1273 0.58915 0.31786 0.0
Co633 Co 0.15673 0.57357 0.29489 0.0
Co634 Co 0.14105 0.56639 0.34521 0.0
H635 H 0.10973 0.5836 0.31216 0.0
O636 O 0.16344 0.71237 0.29476 0.0
O637 O 0.11864 0.715 0.30612 0.0
O638 O 0.12654 0.66805 0.26461 0.0
O639 O 0.10702 0.6347 0.2902 0.0
O640 O 0.16506 0.63214 0.29918 0.0
O641 O 0.18099 0.55946 0.27303 0.0
O642 O 0.13688 0.55131 0.27166 0.0
O643 O 0.18293 0.59461 0.31284 0.0
O644 O 0.16088 0.6251 0.35779 0.0
O645 O 0.16783 0.58155 0.36869 0.0
O646 O 0.16109 0.54366 0.32232 0.0
O647 O 0.12765 0.53205 0.35395 0.0
C648 C 0.10966 0.71647 0.37039 0.0
C649 C 0.0741 0.6521 0.34077 0.0
C650 C 0.1091 0.64905 0.26733 0.0
C651 C 0.14118 0.72548 0.29503 0.0
C652 C 0.16106 0.54814 0.26081 0.0
C653 C 0.18595 0.61822 0.30234 0.0
C654 C 0.17532 0.60625 0.36999 0.0
C655 C 0.14855 0.52573 0.3387 0.0
O656 O 0.08857 0.71381 0.35552 0.0
O657 O 0.13316 0.71019 0.36045 0.0
O658 O 0.09207 0.63351 0.34766 0.0
O659 O 0.08304 0.67117 0.3245 0.0
Co660 Co 0.3704 0.89079 0.12876 0.0
Co661 Co 0.3587 0.8933 0.08161 0.0
Co662 Co 0.42081 0.89975 0.08402 0.0
O663 O 0.38546 0.90875 0.09718 0.0
H664 H 0.38305 0.92821 0.09742 0.0
O665 O 0.45633 0.89071 0.07063 0.0
Co666 Co 0.48068 0.91279 0.04943 0.0
Co667 Co 0.47561 0.9008 0.10097 0.0
H668 H 0.4583 0.87146 0.06723 0.0
O669 O 0.33572 0.91762 0.07312 0.0
O670 O 0.33434 0.88726 0.11013 0.0
O671 O 0.36576 0.86192 0.05841 0.0
O672 O 0.40972 0.86991 0.05754 0.0
O673 O 0.42067 0.93047 0.0531 0.0
O674 O 0.50467 0.9319 0.02999 0.0
O675 O 0.49994 0.88619 0.03283 0.0
O676 O 0.46198 0.94482 0.06096 0.0
O677 O 0.43102 0.93362 0.1087 0.0
O678 O 0.4721 0.93282 0.12249 0.0
O679 O 0.50534 0.9093 0.08205 0.0
O680 O 0.49337 0.87467 0.11369 0.0
C681 C 0.35479 0.90333 0.16541 0.0
C682 C 0.40241 0.84762 0.11966 0.0
C683 C 0.3893 0.85562 0.05076 0.0
C684 C 0.32248 0.90289 0.09198 0.0
C685 C 0.51278 0.90799 1.02306 0.0
C686 C 0.43975 0.9488 0.04919 0.0
C687 C 0.45108 0.94566 0.11995 0.0
C688 C 0.51062 0.88737 0.09695 0.0
O689 O 0.3571 0.87759 0.15989 0.0
O690 O 0.36112 0.92155 0.14618 0.0
O691 O 0.42178 0.86588 0.11408 0.0
O692 O 0.37897 0.8554 0.11562 0.0
Co693 Co 0.19584 0.73051 0.96976 0.0
Co694 Co 0.19796 0.71671 1.01686 0.0
Co695 Co 0.18347 0.66609 0.97816 0.0
O696 O 0.17871 0.70306 0.99041 0.0
H697 H 0.16006 0.7064 0.99465 0.0
O698 O 0.18783 0.62951 0.96574 0.0
Co699 Co 0.16504 0.60074 0.97782 0.0
Co700 Co 0.17473 0.62809 0.92925 0.0
H701 H 0.20632 0.62459 0.965 0.0
O702 O 0.1796 0.73427 0.04257 0.0
O703 O 0.20519 0.75184 1.00537 0.0
O704 O 0.2272 0.69569 0.0276 0.0
O705 O 0.21613 0.65927 1.00209 0.0
O706 O 0.15682 0.65466 1.01055 0.0
O707 O 0.14653 0.57166 0.98838 0.0
O708 O 0.19006 0.57531 0.97464 0.0
O709 O 0.13527 0.62371 0.98624 0.0
O710 O 0.14577 0.66929 0.95759 0.0
O711 O 0.14617 0.64889 0.91667 0.0
O712 O 0.15611 0.59699 0.93779 0.0
O713 O 0.18943 0.60471 0.90474 0.0
C714 C 0.18229 0.7612 0.94844 0.0
C715 C 0.23486 0.69487 0.95127 0.0
C716 C 0.2313 0.6716 1.0194 0.0
C717 C 0.19216 0.75455 0.02976 0.0
C718 C 0.16998 0.56118 0.98584 0.0
C719 C 0.13557 0.6399 1.00714 0.0
C720 C 0.13276 0.65938 0.93644 0.0
C721 C 0.17165 0.58872 0.91715 0.0
O722 O 0.20778 0.75692 0.94814 0.0
O723 O 0.16597 0.74858 0.96614 0.0
O724 O 0.21455 0.67792 0.94661 0.0
O725 O 0.23009 0.71345 0.96924 0.0
Co726 Co 0.38178 0.96737 0.69382 0.0
Co727 Co 0.36615 0.96034 0.73818 0.0
Co728 Co 0.42858 0.95007 0.72761 0.0
O729 O 0.39147 0.94278 0.72137 0.0
H730 H 0.38712 0.92388 0.71757 0.0
O731 O 0.46602 0.95759 0.73378 0.0
Co732 Co 0.48875 0.93308 0.74963 0.0
Co733 Co 0.48451 0.94937 0.7015 0.0
H734 H 0.46941 0.97626 0.73917 0.0
O735 O 0.33961 0.93783 0.74545 0.0
O736 O 0.34388 0.96746 0.70822 0.0
O737 O 0.37815 0.98299 0.76923 0.0
O738 O 0.42148 0.97229 0.76464 0.0
O739 O 0.42911 0.91531 0.75001 0.0
O740 O 0.51106 0.91191 0.76563 0.0
O741 O 0.50823 0.95765 0.76905 0.0
O742 O 0.46922 0.90277 0.73442 0.0
O743 O 0.43375 0.92166 0.69265 0.0
O744 O 0.47594 0.9188 0.67856 0.0
O745 O 0.51468 0.93879 0.71601 0.0
O746 O 0.50522 0.97545 0.68759 0.0
C747 C 0.37435 0.9641 0.65332 0.0
C748 C 0.41051 1.00652 0.71086 0.0
C749 C 0.40191 0.98422 0.77797 0.0
C750 C 0.33041 0.94885 0.72295 0.0
C751 C 0.51858 0.93474 0.77668 0.0
C752 C 0.44596 0.8966 0.74505 0.0
C753 C 0.4527 0.9087 0.67871 0.0
C754 C 0.52186 0.95937 0.69917 0.0
O755 O 0.37431 0.98771 0.66545 0.0
O756 O 0.37596 0.9419 0.6682 0.0
O757 O 0.42879 0.98848 0.70604 0.0
O758 O 0.38742 0.99736 0.71656 0.0
Co759 Co 0.62036 0.82074 0.88613 0.0
Co760 Co 0.57865 0.84531 0.8979 0.0
Co761 Co 0.6259 0.88687 0.89675 0.0
O762 O 0.61322 0.8507 0.90663 0.0
H763 H 0.61471 0.8479 0.92657 0.0
O764 O 0.63599 0.92411 0.88741 0.0
Co765 Co 0.62114 0.95044 0.91227 0.0
Co766 Co 0.67038 0.93295 0.89756 0.0
H767 H 0.63388 0.9285 0.86787 0.0
O768 O 0.55685 0.82187 0.91752 0.0
O769 O 0.58018 0.81381 0.87661 0.0
O770 O 0.56197 0.87575 0.87986 0.0
O771 O 0.60189 0.8899 0.86391 0.0
O772 O 0.59644 0.89821 0.92183 0.0
O773 O 0.60746 0.97653 0.93216 0.0
O774 O 0.61679 0.97649 0.88554 0.0
O775 O 0.62079 0.92726 0.94425 0.0
O776 O 0.65035 0.88542 0.93227 0.0
O777 O 0.68691 0.9114 0.92466 0.0
O778 O 0.65811 0.96115 0.9189 0.0
O779 O 0.68786 0.96333 0.88224 0.0
C780 C 0.62998 0.78559 0.8985 0.0
C781 C 0.64716 0.85903 0.84783 0.0
C782 C 0.57657 0.8909 0.86377 0.0
C783 C 0.55944 0.80866 0.89399 0.0
C784 C 0.60547 0.9877 0.90766 0.0
C785 C 0.60131 0.91036 0.94424 0.0
C786 C 0.67262 0.89615 0.94084 0.0
C787 C 0.67399 0.97509 0.90201 0.0
O788 O 0.63015 0.79023 0.87151 0.0
O789 O 0.61645 0.80017 0.91617 0.0
O790 O 0.65406 0.87411 0.86851 0.0
O791 O 0.62827 0.84112 0.85148 0.0
Co792 Co 0.12864 0.37786 0.68675 0.0
Co793 Co 0.11859 0.33223 0.68414 0.0
Co794 Co 0.18113 0.34568 0.67422 0.0
O795 O 0.14369 0.34932 0.66568 0.0
H796 H 0.14027 0.34956 0.64586 0.0
O797 O 0.21877 0.34323 0.68234 0.0
Co798 Co 0.24621 0.33071 0.6591 0.0
Co799 Co 0.23144 0.37578 0.66692 0.0
H800 H 0.22199 0.34221 0.70215 0.0
O801 O 0.09344 0.32041 0.66323 0.0
O802 O 0.09324 0.35799 0.69178 0.0
O803 O 0.13044 0.31032 0.71319 0.0
O804 O 0.17477 0.31627 0.70542 0.0
O805 O 0.18631 0.31807 0.6442 0.0
O806 O 0.27249 0.31869 0.63843 0.0
O807 O 0.268 0.31848 0.68562 0.0
O808 O 0.22512 0.33652 0.62751 0.0
O809 O 0.18364 0.37265 0.63924 0.0
O810 O 0.22357 0.39021 0.63075 0.0
O811 O 0.26506 0.36861 0.66207 0.0
O812 O 0.24193 0.39825 0.69168 0.0
C813 C 0.11234 0.41312 0.67769 0.0
C814 C 0.16134 0.36972 0.72722 0.0
C815 C 0.1543 0.30594 0.71952 0.0
C816 C 0.0811 0.3403 0.6758 0.0
C817 C 0.28055 0.31081 0.6625 0.0
C818 C 0.20456 0.32072 0.6246 0.0
C819 C 0.20065 0.38513 0.6223 0.0
C820 C 0.26384 0.38881 0.68051 0.0
O821 O 0.11592 0.4058 0.70337 0.0
O822 O 0.11783 0.39658 0.65703 0.0
O823 O 0.17903 0.37317 0.70713 0.0
O824 O 0.1381 0.36296 0.72064 0.0
Co825 Co 0.39471 0.71227 0.94639 0.0
Co826 Co 0.40745 0.75991 0.94072 0.0
Co827 Co 0.40776 0.73152 0.88139 0.0
O828 O 0.41542 0.73122 0.92066 0.0
H829 H 0.43421 0.72837 0.92274 0.0
O830 O 0.40243 0.73342 0.84021 0.0
Co831 Co 0.4276 0.75636 0.81738 0.0
Co832 Co 0.42079 0.70736 0.81997 0.0
H833 H 0.38396 0.73476 0.83542 0.0
O834 O 0.43098 0.7723 0.96449 0.0
O835 O 0.3938 0.74484 0.97327 0.0
O836 O 0.38161 0.78313 0.92661 0.0
O837 O 0.37791 0.7625 0.88523 0.0
O838 O 0.43856 0.75908 0.87709 0.0
O839 O 0.44837 0.77833 0.79642 0.0
O840 O 0.40366 0.77465 0.79611 0.0
O841 O 0.4569 0.74435 0.83751 0.0
O842 O 0.44211 0.70167 0.87802 0.0
O843 O 0.45215 0.69006 0.83377 0.0
O844 O 0.43157 0.7264 0.78827 0.0
O845 O 0.40278 0.68933 0.79469 0.0
C846 C 0.40291 0.68511 0.975 0.0
C847 C 0.35348 0.7112 0.91052 0.0
C848 C 0.36962 0.7803 0.90392 0.0
C849 C 0.4111 0.76383 0.98089 0.0
C850 C 0.42603 0.78729 0.7879 0.0
C851 C 0.45937 0.7559 0.86114 0.0
C852 C 0.45899 0.69025 0.85898 0.0
C853 C 0.41769 0.70547 0.77873 0.0
O854 O 0.37825 0.69138 0.97123 0.0
O855 O 0.42244 0.69859 0.96236 0.0
O856 O 0.37119 0.70604 0.88964 0.0
O857 O 0.36257 0.72373 0.93146 0.0
Co858 Co 0.98137 0.06881 0.43081 0.0
Co859 Co 0.97182 0.11925 0.43059 0.0
Co860 Co 0.91179 0.08508 0.42697 0.0
O861 O 0.9521 0.08953 0.4167 0.0
H862 H 0.95422 0.0905 0.3965 0.0
O863 O 0.86963 0.08176 0.43491 0.0
Co864 Co 0.83997 0.09139 0.40592 0.0
Co865 Co 0.86195 0.04671 0.42243 0.0
H866 H 0.8644 0.08412 0.45443 0.0
O867 O 1.00325 0.13651 0.41413 0.0
O868 O 1.0023 0.10335 0.44663 0.0
O869 O 0.95158 0.1367 0.45906 0.0
O870 O 0.91527 0.10861 0.46352 0.0
O871 O 0.9042 0.1178 0.40286 0.0
O872 O 0.81285 0.10069 0.38005 0.0
O873 O 0.80344 0.0896 0.42396 0.0
O874 O 0.87044 0.09635 0.38237 0.0
O875 O 0.91029 0.06232 0.39048 0.0
O876 O 0.88915 1.02431 0.40337 0.0
O877 O 0.83654 0.05201 0.39614 0.0
O878 O 0.83351 1.02925 0.43813 0.0
C879 C 1.01755 0.05689 0.4147 0.0
C880 C 0.93839 0.04513 0.46739 0.0
C881 C 0.93077 0.12814 0.47271 0.0
C882 C 1.01612 0.12261 0.43219 0.0
C883 C 0.79434 0.09747 0.39963 0.0
C884 C 0.88502 0.11766 0.38563 0.0
C885 C 0.90398 0.03731 0.38565 0.0
C886 C 0.82639 1.03244 0.41237 0.0
O887 O 1.00912 0.04943 0.43976 0.0
O888 O 1.00275 0.07198 0.39935 0.0
O889 O 0.9188 0.05072 0.45134 0.0
O890 O 0.9603 0.05964 0.46578 0.0
Co891 Co 0.51787 0.60088 0.61351 0.0
Co892 Co 0.46846 0.6097 0.62708 0.0
Co893 Co 0.49892 0.66974 0.62896 0.0
O894 O 0.49963 0.62827 0.63617 0.0
H895 H 0.50236 0.62468 0.65577 0.0
O896 O 0.49783 0.71353 0.62524 0.0
Co897 Co 0.47034 0.74414 0.64083 0.0
Co898 Co 0.51037 0.72297 0.66132 0.0
H899 H 0.51012 0.72041 0.61068 0.0
O900 O 0.45538 0.57797 0.64475 0.0
O901 O 0.48203 0.58064 0.60557 0.0
O902 O 0.44553 0.62994 0.60468 0.0
O903 O 0.47253 0.66634 0.59609 0.0
O904 O 0.46857 0.67124 0.65818 0.0
O905 O 0.44697 0.77139 0.65525 0.0
O906 O 0.48027 0.78032 0.62515 0.0
O907 O 0.45563 0.71483 0.66067 0.0
O908 O 0.52696 0.66972 0.66011 0.0
O909 O 0.51087 0.69712 0.69212 0.0
O910 O 0.49266 0.75258 0.67194 0.0
O911 O 0.5366 0.74934 0.6604 0.0
C912 C 0.53383 0.56262 0.61907 0.0
C913 C 0.53428 0.64675 0.58194 0.0
C914 C 0.45259 0.65041 0.58964 0.0
C915 C 0.46655 0.56591 0.62335 0.0
C916 C 0.46119 0.79004 0.64187 0.0
C917 C 0.45339 0.68996 0.66797 0.0
C918 C 0.52445 0.6766 0.68602 0.0
C919 C 0.51638 0.76366 0.66869 0.0
O920 O 0.53493 0.575 0.59492 0.0
O921 O 0.52275 0.57484 0.64074 0.0
O922 O 0.53015 0.66643 0.59958 0.0
O923 O 0.51801 0.62601 0.58212 0.0
Co924 Co 0.89631 0.20869 0.94499 0.0
Co925 Co 0.90782 0.2564 0.94004 0.0
Co926 Co 0.90875 0.22952 0.88018 0.0
O927 O 0.91635 0.22856 0.91938 0.0
H928 H 0.93523 0.22616 0.9214 0.0
O929 O 0.90359 0.23166 0.83894 0.0
Co930 Co 0.92875 0.25478 0.81635 0.0
Co931 Co 0.92208 0.20575 0.81851 0.0
H932 H 0.88513 0.23299 0.83409 0.0
O933 O 0.93208 0.26917 0.96252 0.0
O934 O 0.89598 0.24061 0.97287 0.0
O935 O 0.88122 0.27915 0.92673 0.0
O936 O 0.87888 0.26055 0.88422 0.0
O937 O 0.93949 0.25719 0.87627 0.0
O938 O 0.94942 0.277 0.79565 0.0
O939 O 0.90474 0.27285 0.79511 0.0
O940 O 0.95808 0.24293 0.83662 0.0
O941 O 0.94313 0.19982 0.87669 0.0
O942 O 0.95342 0.1885 0.83242 0.0
O943 O 0.93327 0.22498 0.78705 0.0
O944 O 0.90442 0.18791 0.7927 0.0
C945 C 0.90528 0.18116 0.97313 0.0
C946 C 0.85454 0.20864 0.90927 0.0
C947 C 0.86989 0.27739 0.90354 0.0
C948 C 0.91354 0.25961 0.98002 0.0
C949 C 0.927 0.28578 0.78712 0.0
C950 C 0.96037 0.25433 0.86034 0.0
C951 C 0.96014 0.18861 0.85766 0.0
C952 C 0.91977 0.20397 0.77713 0.0
O953 O 0.8805 0.18713 0.96965 0.0
O954 O 0.9245 0.1948 0.96012 0.0
O955 O 0.8722 0.20413 0.88816 0.0
O956 O 0.86358 0.22014 0.93087 0.0
Co957 Co 1.0209 0.59848 0.11216 0.0
Co958 Co 0.97162 0.60664 0.12643 0.0
Co959 Co 1.00167 0.66751 0.1286 0.0
O960 O 1.0027 0.62584 0.13522 0.0
H961 H 1.00578 0.62217 0.15473 0.0
O962 O 1.00014 0.71134 0.12533 0.0
Co963 Co 0.97287 0.74171 0.1423 0.0
Co964 Co 1.01495 0.72134 0.16044 0.0
H965 H 1.01137 0.7183 0.1099 0.0
O966 O 0.95963 0.57442 0.14448 0.0
O967 O 0.98524 0.57771 0.10466 0.0
O968 O 0.94868 0.62643 0.10355 0.0
O969 O 0.97397 0.66446 0.09689 0.0
O970 O 0.97273 0.66876 0.15952 0.0
O971 O 0.94978 0.76882 0.15802 0.0
O972 O 0.98078 0.77795 0.12549 0.0
O973 O 0.95985 0.71238 0.16326 0.0
O974 O 1.03124 0.66743 0.15808 0.0
O975 O 1.0187 0.69564 0.19124 0.0
O976 O 0.99725 0.75096 0.17157 0.0
O977 O 1.04059 0.74834 0.15728 0.0
C978 C 1.03696 0.56023 0.11745 0.0
C979 C 1.03609 0.6448 0.08039 0.0
C980 C 0.95465 0.64801 0.08975 0.0
C981 C 0.97068 0.56262 0.12288 0.0
C982 C 0.96259 0.78757 0.14333 0.0
C983 C 0.95822 0.68748 0.17048 0.0
C984 C 1.03126 0.67475 0.18393 0.0
C985 C 1.02054 0.76249 0.16636 0.0
O986 O 1.03788 0.57257 0.09327 0.0
O987 O 1.02633 0.57258 0.13927 0.0
O988 O 1.03178 0.66453 0.09792 0.0
O989 O 1.02029 0.62367 0.08085 0.0
Co990 Co 0.6945 0.73014 0.46979 0.0
Co991 Co 0.70074 0.71611 0.51492 0.0
Co992 Co 0.68233 0.66503 0.47958 0.0
O993 O 0.67856 0.70234 0.49133 0.0
H994 H 0.66039 0.7059 0.49736 0.0
O995 O 0.68574 0.62805 0.46772 0.0
Co996 Co 0.66189 0.59984 0.47957 0.0
Co997 Co 0.67271 0.62707 0.43132 0.0
H998 H 0.7041 0.62252 0.46706 0.0
O999 O 0.68444 0.73044 0.54355 0.0
O1000 O 0.70484 0.75194 0.50509 0.0
O1001 O 0.73129 0.69575 0.52195 0.0
O1002 O 0.71484 0.65735 0.50351 0.0
O1003 O 0.65532 0.65441 0.51202 0.0
O1004 O 0.64223 0.5713 0.48993 0.0
O1005 O 0.68593 0.57328 0.47681 0.0
O1006 O 0.63298 0.62397 0.48771 0.0
O1007 O 0.64485 0.66901 0.45896 0.0
O1008 O 0.64553 0.64916 0.41785 0.0
O1009 O 0.6534 0.59628 0.43919 0.0
O1010 O 0.68751 0.60431 0.40689 0.0
C1011 C 0.67981 0.76092 0.44928 0.0
C1012 C 0.7336 0.6936 0.45111 0.0
C1013 C 0.73286 0.67057 0.51678 0.0
C1014 C 0.69395 0.75231 0.53081 0.0
C1015 C 0.66522 0.55983 0.48768 0.0
C1016 C 0.63373 0.64011 0.50865 0.0
C1017 C 0.63199 0.65953 0.43756 0.0
C1018 C 0.6693 0.58832 0.41861 0.0
O1019 O 0.70529 0.75664 0.44778 0.0
O1020 O 0.66418 0.74795 0.46742 0.0
O1021 O 0.71346 0.67603 0.44789 0.0
O1022 O 0.72905 0.71354 0.46753 0.0
Co1023 Co 0.63098 0.68663 0.85232 0.0
Co1024 Co 0.62864 0.6906 0.80489 0.0
Co1025 Co 0.6323 0.62898 0.82131 0.0
O1026 O 0.64199 0.66614 0.82363 0.0
H1027 H 0.66108 0.66827 0.8208 0.0
O1028 O 0.62591 0.58854 0.81741 0.0
Co1029 Co 0.6526 0.56943 0.79329 0.0
Co1030 Co 0.64134 0.5665 0.84355 0.0
H1031 H 0.60759 0.5836 0.81392 0.0
O1032 O 0.65387 0.7064 0.78487 0.0
O1033 O 0.63342 0.72136 0.82595 0.0
O1034 O 0.5987 0.67897 0.78456 0.0
O1035 O 0.60792 0.63433 0.78667 0.0
O1036 O 0.66526 0.62729 0.79496 0.0
O1037 O 0.67378 0.55223 0.76923 0.0
O1038 O 0.62896 0.54901 0.77312 0.0
O1039 O 0.6822 0.58902 0.80822 0.0
O1040 O 0.66184 0.62516 0.85453 0.0
O1041 O 0.66996 0.5817 0.86466 0.0
O1042 O 0.65681 0.5396 0.82192 0.0
O1043 O 0.62437 0.53612 0.857 0.0
C1044 C 0.65004 0.70126 0.88489 0.0
C1045 C 0.58002 0.65912 0.84735 0.0
C1046 C 0.59487 0.65458 0.77651 0.0
C1047 C 0.64852 0.72569 0.8027 0.0
C1048 C 0.65137 0.54373 0.75942 0.0
C1049 C 0.68576 0.61297 0.79854 0.0
C1050 C 0.67687 0.60655 0.86622 0.0
C1051 C 0.64348 0.52569 0.8417 0.0
O1052 O 0.62455 0.70525 0.88254 0.0
O1053 O 0.66403 0.69175 0.8639 0.0
O1054 O 0.59387 0.63607 0.84507 0.0
O1055 O 0.59347 0.6815 0.84478 0.0
Co1056 Co 0.35248 0.65227 0.24402 0.0
Co1057 Co 0.31188 0.66359 0.21747 0.0
Co1058 Co 0.35999 0.6695 0.17415 0.0
O1059 O 0.34718 0.67691 0.21352 0.0
H1060 H 0.34883 0.69595 0.21834 0.0
O1061 O 0.36924 0.65956 0.13592 0.0
Co1062 Co 0.34801 0.6742 0.10767 0.0
Co1063 Co 0.39639 0.67833 0.11919 0.0
H1064 H 0.37226 0.64032 0.13366 0.0
O1065 O 0.28805 0.68057 0.23997 0.0
O1066 O 0.31136 0.6426 0.24975 0.0
O1067 O 0.29735 0.63997 0.1888 0.0
O1068 O 0.33784 0.63413 0.17061 0.0
O1069 O 0.32989 0.69082 0.16145 0.0
O1070 O 0.32853 0.68586 0.08039 0.0
O1071 O 0.33941 0.64257 0.08944 0.0
O1072 O 0.35015 0.70921 0.12413 0.0
O1073 O 0.3824 0.71022 0.17247 0.0
O1074 O 0.40435 0.71443 0.13072 0.0
O1075 O 0.38196 0.67931 0.08483 0.0
O1076 O 0.41921 0.65808 0.10006 0.0
C1077 C 0.35811 0.65631 0.28548 0.0
C1078 C 0.38103 0.62135 0.20337 0.0
C1079 C 0.31337 0.62653 0.17352 0.0
C1080 C 0.28995 0.65776 0.25365 0.0
C1081 C 0.32562 0.66008 0.0755 0.0
C1082 C 0.33443 0.71129 0.14564 0.0
C1083 C 0.39599 0.72568 0.15306 0.0
C1084 C 0.40185 0.66252 0.08107 0.0
O1085 O 0.35928 0.63269 0.27349 0.0
O1086 O 0.35002 0.67744 0.27173 0.0
O1087 O 0.38862 0.64278 0.18829 0.0
O1088 O 0.35949 0.62249 0.21871 0.0
Co1089 Co 0.62882 0.87853 0.68706 0.0
Co1090 Co 0.61829 0.83296 0.68464 0.0
Co1091 Co 0.681 0.8459 0.67465 0.0
O1092 O 0.64356 0.84972 0.6661 0.0
H1093 H 0.64014 0.84992 0.6463 0.0
O1094 O 0.71869 0.84326 0.68273 0.0
Co1095 Co 0.74591 0.83074 0.65915 0.0
Co1096 Co 0.73162 0.87588 0.66774 0.0
H1097 H 0.72193 0.84189 0.70254 0.0
O1098 O 0.5928 0.82143 0.66393 0.0
O1099 O 0.59327 0.85907 0.69235 0.0
O1100 O 0.63011 0.81103 0.71372 0.0
O1101 O 0.67449 0.81625 0.70564 0.0
O1102 O 0.68614 0.81866 0.64416 0.0
O1103 O 0.77196 0.8186 0.63814 0.0
O1104 O 0.76766 0.81768 0.68534 0.0
O1105 O 0.7249 0.83754 0.62791 0.0
O1106 O 0.68346 0.87332 0.64025 0.0
O1107 O 0.72332 0.8911 0.63189 0.0
O1108 O 0.7652 0.86839 0.66242 0.0
O1109 O 0.74269 0.89783 0.69276 0.0
C1110 C 0.61277 0.91389 0.67783 0.0
C1111 C 0.6614 0.86997 0.72758 0.0
C1112 C 0.65393 0.80628 0.71991 0.0
C1113 C 0.58079 0.84148 0.67658 0.0
C1114 C 0.77995 0.8101 0.66202 0.0
C1115 C 0.70436 0.82185 0.62459 0.0
C1116 C 0.70032 0.88617 0.62353 0.0
C1117 C 0.76437 0.88854 0.68094 0.0
O1118 O 0.6164 0.90671 0.70354 0.0
O1119 O 0.61815 0.8972 0.65727 0.0
O1120 O 0.67916 0.87319 0.70759 0.0
O1121 O 0.63808 0.86363 0.72096 0.0
Co1122 Co 0.75627 0.37973 0.95924 0.0
Co1123 Co 0.70829 0.39449 0.94901 0.0
Co1124 Co 0.73986 0.39326 0.88794 0.0
O1125 O 0.74078 0.4011 0.92985 0.0
H1126 H 0.74524 0.42011 0.93267 0.0
O1127 O 0.73977 0.38649 0.84492 0.0
Co1128 Co 0.71325 0.39551 0.81489 0.0
Co1129 Co 0.75241 0.42015 0.83146 0.0
H1130 H 0.75176 0.37229 0.83917 0.0
O1131 O 0.69777 0.41138 0.98289 0.0
O1132 O 0.71863 0.37146 0.9787 0.0
O1133 O 0.68193 0.37888 0.92516 0.0
O1134 O 0.71132 0.3641 0.89263 0.0
O1135 O 0.71133 0.42163 0.8849 0.0
O1136 O 0.69102 0.40292 0.78704 0.0
O1137 O 0.72739 0.37768 0.783 0.0
O1138 O 0.69566 0.41662 0.84163 0.0
O1139 O 0.76859 0.42276 0.88492 0.0
O1140 O 0.75219 0.45092 0.85481 0.0
O1141 O 0.73401 0.42813 0.80207 0.0
O1142 O 0.77821 0.41946 0.8044 0.0
C1143 C 0.76783 0.38712 0.99919 0.0
C1144 C 0.77288 0.34713 0.91091 0.0
C1145 C 0.68828 0.36279 0.90531 0.0
C1146 C 0.706 0.38948 0.99484 0.0
C1147 C 0.70832 0.39077 0.77082 0.0
C1148 C 0.69468 0.42703 0.86594 0.0
C1149 C 0.76465 0.44703 0.87671 0.0
C1150 C 0.75794 0.42739 0.79055 0.0
O1151 O 0.77062 0.36318 0.98803 0.0
O1152 O 0.75916 0.40707 0.98412 0.0
O1153 O 0.76891 0.36475 0.89143 0.0
O1154 O 0.75869 0.34757 0.93419 0.0
Co1155 Co 0.11072 0.82818 0.40008 0.0
Co1156 Co 0.07153 0.85874 0.40604 0.0
Co1157 Co 0.12368 0.89553 0.39879 0.0
O1158 O 0.10753 0.86203 0.41254 0.0
H1159 H 0.10987 0.86191 0.43251 0.0
O1160 O 0.13671 0.93091 0.38626 0.0
Co1161 Co 0.12461 0.96095 0.40844 0.0
Co1162 Co 0.17081 0.93899 0.39571 0.0
H1163 H 0.13497 0.93373 0.36636 0.0
O1164 O 1.04621 0.83613 0.42471 0.0
O1165 O 0.07185 0.82564 0.38677 0.0
O1166 O 0.05799 0.88875 0.38474 0.0
O1167 O 0.09854 0.89892 0.36714 0.0
O1168 O 0.09734 0.91225 0.42434 0.0
O1169 O 0.11381 0.99028 0.42561 0.0
O1170 O 0.11895 0.98325 0.37906 0.0
O1171 O 0.12467 0.94113 0.44369 0.0
O1172 O 0.14965 0.89316 0.43315 0.0
O1173 O 0.18518 0.92089 0.42636 0.0
O1174 O 0.1625 0.97229 0.41003 0.0
O1175 O 0.19058 0.96187 0.37298 0.0
C1176 C 0.10758 0.79326 0.42124 0.0
C1177 C 0.14011 0.85887 0.3528 0.0
C1178 C 0.07337 0.90179 0.36747 0.0
C1179 C 0.0503 0.82109 0.40268 0.0
C1180 C 0.11004 0.99795 0.40005 0.0
C1181 C 0.10464 0.92463 0.44589 0.0
C1182 C 0.17166 0.90439 0.4419 0.0
C1183 C 0.17866 0.97941 0.38905 0.0
O1184 O 0.1143 0.79334 0.39436 0.0
O1185 O 0.10053 0.81513 0.4338 0.0
O1186 O 0.14852 0.87748 0.36967 0.0
O1187 O 0.1234 0.84033 0.36212 0.0
Co1188 Co 0.37092 0.39462 0.62667 0.0
Co1189 Co 0.35999 0.38464 0.58213 0.0
Co1190 Co 0.4211 0.39762 0.58093 0.0
O1191 O 0.38519 0.40642 0.59177 0.0
H1192 H 0.3813 0.42509 0.5873 0.0
O1193 O 0.45711 0.38838 0.56901 0.0
Co1194 Co 0.48214 0.40909 0.54743 0.0
Co1195 Co 0.47566 0.40083 0.59864 0.0
H1196 H 0.45932 0.36898 0.56711 0.0
O1197 O 0.33736 0.40278 0.56434 0.0
O1198 O 0.33418 0.38723 0.61006 0.0
O1199 O 0.37048 0.35072 0.56592 0.0
O1200 O 0.41103 0.36764 0.55359 0.0
O1201 O 0.42178 0.42818 0.54991 0.0
O1202 O 0.50678 0.42709 0.52792 0.0
O1203 O 0.5016 0.38155 0.53272 0.0
O1204 O 0.46351 0.4419 0.55683 0.0
O1205 O 0.42956 0.43161 0.60695 0.0
O1206 O 0.47236 0.43512 0.61453 0.0
O1207 O 0.50612 0.40671 0.58076 0.0
O1208 O 0.49193 0.37584 0.6155 0.0
C1209 C 0.35543 0.41405 0.65991 0.0
C1210 C 0.40204 0.34777 0.62051 0.0
C1211 C 0.39308 0.34848 0.55341 0.0
C1212 C 0.32358 0.39754 0.58753 0.0
C1213 C 0.51505 0.40286 0.52267 0.0
C1214 C 0.44103 0.44621 0.54571 0.0
C1215 C 0.4501 0.44593 0.6146 0.0
C1216 C 0.51003 0.38607 0.59796 0.0
O1217 O 0.35826 0.38779 0.66016 0.0
O1218 O 0.36202 0.42811 0.63738 0.0
O1219 O 0.42167 0.36416 0.61118 0.0
O1220 O 0.37878 0.3572 0.62085 0.0
Co1221 Co 0.38256 0.46293 0.19224 0.0
Co1222 Co 0.3658 0.46032 0.23661 0.0
Co1223 Co 0.42839 0.44923 0.2283 0.0
O1224 O 0.39146 0.44135 0.22255 0.0
H1225 H 0.38718 0.42215 0.22053 0.0
O1226 O 0.46576 0.4572 0.23414 0.0
Co1227 Co 0.48881 0.43308 0.24995 0.0
Co1228 Co 0.48417 0.449 0.20177 0.0
H1229 H 0.46897 0.47593 0.23943 0.0
O1230 O 0.33947 0.43794 0.24547 0.0
O1231 O 0.34425 0.4629 0.20485 0.0
O1232 O 0.37785 0.48428 0.26692 0.0
O1233 O 0.42078 0.47163 0.26502 0.0
O1234 O 0.42938 0.41461 0.25096 0.0
O1235 O 0.5114 0.41233 0.26596 0.0
O1236 O 0.5081 0.45807 0.26894 0.0
O1237 O 0.46949 0.40235 0.23513 0.0
O1238 O 0.4337 0.42065 0.19351 0.0
O1239 O 0.47579 0.41827 0.17893 0.0
O1240 O 0.51453 0.43875 0.21612 0.0
O1241 O 0.50462 0.4752 0.18763 0.0
C1242 C 0.37705 0.45544 0.15186 0.0
C1243 C 0.40922 0.50498 0.20917 0.0
C1244 C 0.40115 0.48463 0.27701 0.0
C1245 C 0.33114 0.4452 0.22103 0.0
C1246 C 0.5187 0.43535 0.27674 0.0
C1247 C 0.44634 0.39601 0.24597 0.0
C1248 C 0.45264 0.40791 0.17934 0.0
C1249 C 0.52146 0.45926 0.1991 0.0
O1250 O 0.37593 0.48013 0.16149 0.0
O1251 O 0.37869 0.43492 0.16908 0.0
O1252 O 0.42835 0.48756 0.2066 0.0
O1253 O 0.38601 0.49521 0.21222 0.0
Co1254 Co 0.39716 0.20777 0.44656 0.0
Co1255 Co 0.40967 0.25531 0.44151 0.0
Co1256 Co 0.40929 0.22862 0.38173 0.0
O1257 O 0.41744 0.22716 0.42082 0.0
H1258 H 0.43628 0.22431 0.42263 0.0
O1259 O 0.40362 0.23148 0.34055 0.0
Co1260 Co 0.42868 0.25488 0.31787 0.0
Co1261 Co 0.42205 0.20585 0.31965 0.0
H1262 H 0.38513 0.23282 0.33593 0.0
O1263 O 0.43425 0.26761 0.46387 0.0
O1264 O 0.39762 0.2398 0.47438 0.0
O1265 O 0.3831 0.27842 0.42874 0.0
O1266 O 0.37958 0.2595 0.38652 0.0
O1267 O 0.44009 0.25625 0.37773 0.0
O1268 O 0.44935 0.27725 0.29717 0.0
O1269 O 0.40466 0.2736 0.29697 0.0
O1270 O 0.45802 0.2425 0.33755 0.0
O1271 O 0.44352 0.19896 0.37751 0.0
O1272 O 0.45365 0.18848 0.33299 0.0
O1273 O 0.43265 0.22541 0.2882 0.0
O1274 O 0.40409 0.1881 0.2941 0.0
C1275 C 0.40554 0.17996 0.47462 0.0
C1276 C 0.35524 0.20806 0.41134 0.0
C1277 C 0.37113 0.27642 0.40595 0.0
C1278 C 0.41538 0.25868 0.48133 0.0
C1279 C 0.427 0.28636 0.28885 0.0
C1280 C 0.46069 0.25366 0.36132 0.0
C1281 C 0.46047 0.18816 0.3582 0.0
C1282 C 0.41905 0.20441 0.27839 0.0
O1283 O 0.38094 0.18664 0.47124 0.0
O1284 O 0.42507 0.1932 0.46167 0.0
O1285 O 0.37261 0.20325 0.39001 0.0
O1286 O 0.36478 0.21991 0.4325 0.0
Co1287 Co 1.02068 0.09712 0.61102 0.0
Co1288 Co 0.97149 0.10565 0.62535 0.0
Co1289 Co 1.00152 0.16643 0.62663 0.0
O1290 O 1.00258 0.12482 0.63379 0.0
H1291 H 1.00564 0.12135 0.65334 0.0
O1292 O 0.99998 0.2105 0.62284 0.0
Co1293 Co 0.97262 0.24138 0.63942 0.0
Co1294 Co 1.01358 0.22037 0.65833 0.0
H1295 H 1.01177 0.2174 0.60783 0.0
O1296 O 0.95965 0.07344 0.6436 0.0
O1297 O 0.98494 0.07661 0.60358 0.0
O1298 O 0.9483 0.12563 0.60285 0.0
O1299 O 0.97441 0.16284 0.59449 0.0
O1300 O 0.97164 0.16806 0.65657 0.0
O1301 O 0.94934 0.26868 0.65492 0.0
O1302 O 0.98168 0.27835 0.62413 0.0
O1303 O 0.95865 0.21169 0.65931 0.0
O1304 O 1.03002 0.16664 0.65742 0.0
O1305 O 1.01454 0.1948 0.68909 0.0
O1306 O 0.99566 0.24958 0.66978 0.0
O1307 O 1.03933 0.24735 0.65677 0.0
C1308 C 1.03653 0.05878 0.61678 0.0
C1309 C 1.03643 0.14281 0.57882 0.0
C1310 C 0.95464 0.1466 0.58819 0.0
C1311 C 0.97054 0.06157 0.62195 0.0
C1312 C 0.96293 0.28774 0.6415 0.0
C1313 C 0.95659 0.18681 0.66664 0.0
C1314 C 1.02771 0.17396 0.68325 0.0
C1315 C 1.01906 0.26116 0.66589 0.0
O1316 O 1.03754 0.07087 0.59245 0.0
O1317 O 1.02592 0.07142 0.63842 0.0
O1318 O 1.03238 0.16274 0.59634 0.0
O1319 O 1.02027 0.12198 0.57946 0.0
Co1320 Co 0.8521 0.15172 0.24137 0.0
Co1321 Co 0.81103 0.16419 0.21611 0.0
Co1322 Co 0.85904 0.17012 0.17184 0.0
O1323 O 0.84636 0.17713 0.21142 0.0
H1324 H 0.8484 0.19605 0.21657 0.0
O1325 O 0.86848 0.16007 0.13367 0.0
Co1326 Co 0.84832 0.17439 0.10474 0.0
Co1327 Co 0.89627 0.17843 0.11759 0.0
H1328 H 0.87136 0.14078 0.13162 0.0
O1329 O 0.78766 0.1795 0.24077 0.0
O1330 O 0.81145 0.14124 0.24708 0.0
O1331 O 0.79569 0.14254 0.18653 0.0
O1332 O 0.8359 0.13535 0.16807 0.0
O1333 O 0.82972 0.19301 0.15906 0.0
O1334 O 0.82973 0.18589 0.07677 0.0
O1335 O 0.84004 0.1426 0.08668 0.0
O1336 O 0.85045 0.20937 0.12079 0.0
O1337 O 0.88197 0.21026 0.1707 0.0
O1338 O 0.90394 0.21461 0.129 0.0
O1339 O 0.8829 0.17903 0.08273 0.0
O1340 O 0.91961 0.15794 0.09949 0.0
C1341 C 0.85821 0.15518 0.28278 0.0
C1342 C 0.88 0.12126 0.20023 0.0
C1343 C 0.81115 0.12871 0.17098 0.0
C1344 C 0.78998 0.15577 0.25258 0.0
C1345 C 0.82681 0.16006 0.0721 0.0
C1346 C 0.83475 0.21269 0.14212 0.0
C1347 C 0.89547 0.22576 0.15135 0.0
C1348 C 0.90289 0.16223 0.07983 0.0
O1349 O 0.85939 0.13173 0.27043 0.0
O1350 O 0.84973 0.17641 0.2695 0.0
O1351 O 0.88752 0.14284 0.18546 0.0
O1352 O 0.85858 0.12232 0.21563 0.0
Co1353 Co 0.48012 0.56863 0.43571 0.0
Co1354 Co 0.47091 0.61902 0.43206 0.0
Co1355 Co 0.41089 0.58485 0.42941 0.0
O1356 O 0.45143 0.58875 0.41906 0.0
H1357 H 0.45393 0.58851 0.39889 0.0
O1358 O 0.36864 0.58172 0.43752 0.0
Co1359 Co 0.33839 0.59127 0.40895 0.0
Co1360 Co 0.36069 0.54674 0.42492 0.0
H1361 H 0.36356 0.58393 0.4571 0.0
O1362 O 0.5024 0.63554 0.41505 0.0
O1363 O 0.50129 0.60408 0.44934 0.0
O1364 O 0.4503 0.63765 0.45956 0.0
O1365 O 0.41466 0.60888 0.46559 0.0
O1366 O 0.40327 0.61738 0.40498 0.0
O1367 O 0.31067 0.60058 0.38345 0.0
O1368 O 0.30181 0.58929 0.42732 0.0
O1369 O 0.36879 0.59639 0.3851 0.0
O1370 O 0.4092 0.5619 0.39302 0.0
O1371 O 0.38761 0.52408 0.40566 0.0
O1372 O 0.33503 0.55186 0.39898 0.0
O1373 O 0.33259 0.52942 0.44121 0.0
C1374 C 0.51632 0.55441 0.42213 0.0
C1375 C 0.43733 0.54629 0.47102 0.0
C1376 C 0.42997 0.62897 0.47394 0.0
C1377 C 0.51518 0.62265 0.43397 0.0
C1378 C 0.29232 0.59723 0.4032 0.0
C1379 C 0.38372 0.61752 0.38818 0.0
C1380 C 0.4026 0.537 0.38802 0.0
C1381 C 0.32591 0.53174 0.41519 0.0
O1382 O 0.50676 0.54952 0.4474 0.0
O1383 O 0.50269 0.56874 0.40482 0.0
O1384 O 0.41795 0.55071 0.45428 0.0
O1385 O 0.45808 0.56246 0.47022 0.0
Co1386 Co 0.75676 0.46828 0.61817 0.0
Co1387 Co 0.72709 0.5088 0.61221 0.0
Co1388 Co 0.69179 0.45438 0.61058 0.0
O1389 O 0.72552 0.47295 0.60008 0.0
H1390 H 0.72834 0.47252 0.57994 0.0
O1391 O 0.65738 0.43848 0.62183 0.0
Co1392 Co 0.62799 0.44968 0.60166 0.0
Co1393 Co 0.65265 0.40456 0.60858 0.0
H1394 H 0.65403 0.4384 0.64191 0.0
O1395 O 0.75088 0.53612 0.5985 0.0
O1396 O 0.75685 0.50708 0.63437 0.0
O1397 O 0.69689 0.51972 0.63561 0.0
O1398 O 0.68578 0.47684 0.64634 0.0
O1399 O 0.67491 0.48229 0.58775 0.0
O1400 O 0.59922 0.46039 0.5858 0.0
O1401 O 0.60458 0.45201 0.63168 0.0
O1402 O 0.64828 0.45288 0.5675 0.0
O1403 O 0.69621 0.43162 0.57275 0.0
O1404 O 0.67331 0.39242 0.57734 0.0
O1405 O 0.62006 0.41059 0.59441 0.0
O1406 O 0.63244 0.38077 0.62869 0.0
C1407 C 0.7944 0.47061 0.60404 0.0
C1408 C 0.72335 0.43312 0.65519 0.0
C1409 C 0.68434 0.50242 0.65129 0.0
C1410 C 0.76275 0.53016 0.62138 0.0
C1411 C 0.59123 0.46332 0.6118 0.0
C1412 C 0.66274 0.47453 0.56625 0.0
C1413 C 0.68737 0.4088 0.56224 0.0
C1414 C 0.61558 0.38947 0.61087 0.0
O1415 O 0.78864 0.46336 0.62999 0.0
O1416 O 0.77628 0.47937 0.58794 0.0
O1417 O 0.70895 0.426 0.63469 0.0
O1418 O 0.73885 0.45415 0.6526 0.0
Co1419 Co 0.25463 0.87949 0.96111 0.0
Co1420 Co 0.20531 0.89126 0.95258 0.0
Co1421 Co 0.23617 0.89229 0.89131 0.0
O1422 O 0.23696 0.90075 0.93309 0.0
H1423 H 0.24028 0.91996 0.93604 0.0
O1424 O 0.23616 0.88439 0.8489 0.0
Co1425 Co 0.22374 0.91096 0.82051 0.0
Co1426 Co 0.27175 0.89434 0.83548 0.0
H1427 H 0.23163 0.86562 0.84478 0.0
O1428 O 0.19324 0.90663 0.98668 0.0
O1429 O 0.21817 0.86928 0.98193 0.0
O1430 O 0.18011 0.87391 0.92855 0.0
O1431 O 0.21085 0.86052 0.89683 0.0
O1432 O 0.20491 0.91704 0.88742 0.0
O1433 O 0.21367 0.9337 0.79321 0.0
O1434 O 0.22206 0.88957 0.78771 0.0
O1435 O 0.22316 0.93652 0.84928 0.0
O1436 O 0.25986 0.92513 0.88707 0.0
O1437 O 0.29463 0.91672 0.85884 0.0
O1438 O 0.26068 0.92047 0.81118 0.0
O1439 O 0.28479 0.88425 0.79947 0.0
C1440 C 0.26826 0.88642 1.00018 0.0
C1441 C 0.27198 0.84872 0.91285 0.0
C1442 C 0.18734 0.85862 0.90833 0.0
C1443 C 0.20416 0.88599 0.99841 0.0
C1444 C 0.21585 0.91299 0.77651 0.0
C1445 C 0.20426 0.93468 0.86765 0.0
C1446 C 0.28296 0.93138 0.87707 0.0
C1447 C 0.27425 0.90705 0.79258 0.0
O1448 O 0.27112 0.86296 0.9881 0.0
O1449 O 0.25753 0.90631 0.98665 0.0
O1450 O 0.26806 0.86722 0.89434 0.0
O1451 O 0.25717 0.84788 0.93564 0.0
Co1452 Co 0.75818 0.96979 0.11691 0.0
Co1453 Co 0.72947 1.01109 0.11187 0.0
Co1454 Co 0.69328 0.95664 0.11018 0.0
O1455 O 0.7269 0.97562 0.09947 0.0
H1456 H 0.7295 0.97536 0.07931 0.0
O1457 O 0.65901 0.94019 0.12099 0.0
Co1458 Co 0.62963 0.95085 0.10035 0.0
Co1459 Co 0.65495 0.90575 0.10844 0.0
H1460 H 0.65542 0.94036 0.14104 0.0
O1461 O 0.75243 0.03815 0.09664 0.0
O1462 O 0.76055 1.00887 0.13179 0.0
O1463 O 0.7003 1.02219 0.13674 0.0
O1464 O 0.68622 0.97957 0.14509 0.0
O1465 O 0.67653 0.98401 0.08661 0.0
O1466 O 0.60045 0.96111 0.08442 0.0
O1467 O 0.60618 0.95202 0.13014 0.0
O1468 O 0.65009 0.95463 0.06626 0.0
O1469 O 0.69824 0.93326 0.07289 0.0
O1470 O 0.67692 0.89325 0.07838 0.0
O1471 O 0.62315 0.91189 0.0923 0.0
O1472 O 0.63298 0.88207 0.12731 0.0
C1473 C 0.79536 0.96815 0.10199 0.0
C1474 C 0.72453 0.93838 0.15617 0.0
C1475 C 0.6862 1.00495 0.15104 0.0
C1476 C 0.76552 1.03204 0.11868 0.0
C1477 C 0.59256 0.96342 0.11055 0.0
C1478 C 0.66474 0.97609 0.06499 0.0
C1479 C 0.69002 0.91002 0.06281 0.0
C1480 C 0.61723 0.89103 0.10853 0.0
O1481 O 0.78972 0.96314 0.12848 0.0
O1482 O 0.7779 0.97826 0.08588 0.0
O1483 O 0.71042 0.92947 0.13605 0.0
O1484 O 0.74039 0.95876 0.15172 0.0
Co1485 Co 0.48131 0.0692 0.93573 0.0
Co1486 Co 0.4721 0.11963 0.9322 0.0
Co1487 Co 0.41219 0.08539 0.92937 0.0
O1488 O 0.45267 0.0893 0.91928 0.0
H1489 H 0.45519 0.08913 0.8991 0.0
O1490 O 0.36991 0.08236 0.93708 0.0
Co1491 Co 0.3403 0.09189 0.90782 0.0
Co1492 Co 0.36201 0.04716 0.92487 0.0
H1493 H 0.3646 0.08491 0.95655 0.0
O1494 O 0.50342 0.13627 0.91499 0.0
O1495 O 0.50264 0.10469 0.94917 0.0
O1496 O 0.45154 0.13808 0.95987 0.0
O1497 O 0.41566 0.10956 0.96539 0.0
O1498 O 0.4049 0.11781 0.90466 0.0
O1499 O 0.31322 0.10105 0.88168 0.0
O1500 O 0.30354 0.09032 0.92558 0.0
O1501 O 0.37093 0.09645 0.88446 0.0
O1502 O 0.41074 0.06214 0.89319 0.0
O1503 O 0.3891 1.02439 0.90604 0.0
O1504 O 0.33686 0.05257 0.89829 0.0
O1505 O 0.33317 1.02998 0.9403 0.0
C1506 C 0.5174 0.05514 0.92182 0.0
C1507 C 0.43826 0.04711 0.97164 0.0
C1508 C 0.43098 0.12951 0.97395 0.0
C1509 C 0.51639 0.12329 0.93369 0.0
C1510 C 0.29456 0.09799 0.90113 0.0
C1511 C 0.38561 0.1177 0.88756 0.0
C1512 C 0.40415 0.03719 0.88837 0.0
C1513 C 0.32635 0.03316 0.91445 0.0
O1514 O 0.50806 0.0501 0.94715 0.0
O1515 O 0.50359 0.06945 0.90469 0.0
O1516 O 0.41905 0.05146 0.95465 0.0
O1517 O 0.45936 0.06285 0.97052 0.0
Co1518 Co 0.8517 0.65088 0.74163 0.0
Co1519 Co 0.81069 0.66335 0.71628 0.0
Co1520 Co 0.85869 0.66904 0.67193 0.0
O1521 O 0.84605 0.6763 0.71154 0.0
H1522 H 0.84812 0.69524 0.71662 0.0
O1523 O 0.86818 0.65878 0.63389 0.0
Co1524 Co 0.84798 0.67283 0.60487 0.0
Co1525 Co 0.89596 0.67704 0.6176 0.0
H1526 H 0.87106 0.63947 0.63199 0.0
O1527 O 0.78738 0.67926 0.74047 0.0
O1528 O 0.8109 0.64093 0.7476 0.0
O1529 O 0.79539 0.64088 0.68736 0.0
O1530 O 0.83545 0.63403 0.66831 0.0
O1531 O 0.82935 0.69175 0.65893 0.0
O1532 O 0.82936 0.68404 0.5768 0.0
O1533 O 0.83968 0.64088 0.58724 0.0
O1534 O 0.85007 0.70804 0.62061 0.0
O1535 O 0.88168 0.70937 0.67033 0.0
O1536 O 0.90365 0.71336 0.62856 0.0
O1537 O 0.88257 0.67713 0.58276 0.0
O1538 O 0.91931 0.65631 0.59983 0.0
C1539 C 0.85782 0.65415 0.78313 0.0
C1540 C 0.87973 0.62046 0.70081 0.0
C1541 C 0.81078 0.627 0.67182 0.0
C1542 C 0.78953 0.65575 0.75276 0.0
C1543 C 0.8264 0.65815 0.57249 0.0
C1544 C 0.8344 0.71142 0.64198 0.0
C1545 C 0.89523 0.72474 0.65082 0.0
C1546 C 0.90248 0.66018 0.58017 0.0
O1547 O 0.85885 0.63077 0.77064 0.0
O1548 O 0.84961 0.67554 0.76989 0.0
O1549 O 0.88723 0.64196 0.68589 0.0
O1550 O 0.85804 0.62147 0.71581 0.0
Co1551 Co 0.25589 0.37796 0.46223 0.0
Co1552 Co 0.20762 0.39128 0.45118 0.0
Co1553 Co 0.24021 0.38949 0.39069 0.0
O1554 O 0.24007 0.39871 0.43231 0.0
H1555 H 0.24387 0.4179 0.43477 0.0
O1556 O 0.24149 0.38027 0.34831 0.0
Co1557 Co 0.22889 0.40633 0.32004 0.0
Co1558 Co 0.27693 0.38977 0.33342 0.0
H1559 H 0.23653 0.36152 0.34465 0.0
O1560 O 0.19633 0.40819 0.48481 0.0
O1561 O 0.2184 0.36894 0.48124 0.0
O1562 O 0.18207 0.37469 0.42702 0.0
O1563 O 0.21271 0.35949 0.39609 0.0
O1564 O 0.21101 0.41703 0.3847 0.0
O1565 O 0.21757 0.42887 0.29312 0.0
O1566 O 0.2234 0.38421 0.28828 0.0
O1567 O 0.23352 0.43216 0.34747 0.0
O1568 O 0.26666 0.42015 0.38717 0.0
O1569 O 0.29887 0.41536 0.35455 0.0
O1570 O 0.26513 0.41357 0.30726 0.0
O1571 O 0.28926 0.37717 0.29744 0.0
C1572 C 0.26711 0.38622 0.50208 0.0
C1573 C 0.27379 0.34494 0.4149 0.0
C1574 C 0.18935 0.35806 0.40802 0.0
C1575 C 0.20522 0.38676 0.49707 0.0
C1576 C 0.21763 0.40768 0.27691 0.0
C1577 C 0.21413 0.43456 0.36477 0.0
C1578 C 0.28844 0.42809 0.37511 0.0
C1579 C 0.27767 0.39887 0.28907 0.0
O1580 O 0.27038 0.36219 0.4913 0.0
O1581 O 0.25798 0.40574 0.48674 0.0
O1582 O 0.27011 0.36262 0.39555 0.0
O1583 O 0.25933 0.34531 0.43796 0.0
C1584 C 0.15383 0.99107 0.51817 0.0
C1585 C 0.17293 0.99213 0.53889 0.0
H1586 H 0.13891 1.01087 0.4821 0.0
C1587 C 0.19548 1.00943 0.53515 0.0
H1588 H 0.13651 0.97751 0.52037 0.0
C1589 C 0.19739 1.02764 0.51269 0.0
C1590 C 0.17631 1.02937 0.49438 0.0
H1591 H 0.21076 1.01022 0.55055 0.0
H1592 H 0.21371 0.04253 0.5118 0.0
C1593 C 0.15535 1.00988 0.49613 0.0
C1594 C 1.03897 0.41965 0.85013 0.0
C1595 C 0.06348 0.40739 0.84406 0.0
H1596 H 1.00564 0.43992 0.83345 0.0
C1597 C 0.07517 0.40996 0.81696 0.0
H1598 H 1.02969 0.41813 0.87096 0.0
C1599 C 0.06157 0.42253 0.79568 0.0
C1600 C 1.03628 0.43314 0.80131 0.0
H1601 H 0.09376 0.40029 0.81165 0.0
H1602 H 0.06975 0.42186 0.77434 0.0
C1603 C 1.02553 0.43264 0.82889 0.0
C1604 C 0.67385 0.28266 0.06404 0.0
C1605 C 0.69567 0.27866 0.04537 0.0
H1606 H 0.65991 0.29894 0.10309 0.0
C1607 C 0.71997 0.29234 0.05006 0.0
H1608 H 0.65489 0.27229 0.06088 0.0
C1609 C 0.72296 0.30771 0.07456 0.0
C1610 C 0.70173 0.30932 0.09464 0.0
H1611 H 0.73721 0.28921 0.03621 0.0
H1612 H 0.74226 0.31694 0.07852 0.0
C1613 C 0.67689 0.2975 0.08852 0.0
C1614 C 0.77405 0.94274 0.25866 0.0
C1615 C 0.77723 0.9148 0.26396 0.0
H1616 H 0.78633 0.97637 0.23245 0.0
C1617 C 0.78647 0.89812 0.24204 0.0
H1618 H 0.76544 0.95598 0.27448 0.0
C1619 C 0.79747 0.91024 0.21756 0.0
C1620 C 0.80228 0.93854 0.21741 0.0
H1621 H 0.7875 0.87627 0.24479 0.0
H1622 H 0.80835 0.89751 0.20284 0.0
C1623 C 0.78521 0.95435 0.23406 0.0
C1624 C 0.13611 0.28958 0.76628 0.0
C1625 C 0.15723 0.29009 0.74578 0.0
H1626 H 0.1178 0.26911 0.80207 0.0
C1627 C 0.17962 0.27451 0.75041 0.0
H1628 H 0.11898 0.30229 0.76405 0.0
C1629 C 0.17915 0.25599 0.77289 0.0
C1630 C 0.15623 0.25267 0.79086 0.0
H1631 H 0.19646 0.275 0.73553 0.0
H1632 H 0.1954 0.24197 0.77419 0.0
C1633 C 0.13567 0.27114 0.7887 0.0
C1634 C 0.77621 0.41698 0.04062 0.0
C1635 C 0.77254 0.39087 0.02932 0.0
H1636 H 0.79081 0.44 0.0749 0.0
C1637 C 0.77347 0.36814 0.0473 0.0
H1638 H 0.77426 0.43502 0.02779 0.0
C1639 C 0.78248 0.37128 0.07452 0.0
C1640 C 0.79268 0.39674 0.0827 0.0
H1641 H 0.76907 0.3478 0.03977 0.0
H1642 H 0.78686 0.35313 0.08631 0.0
C1643 C 0.78461 0.41987 0.06809 0.0
C1644 C 0.65785 0.05132 0.20754 0.0
C1645 C 0.65098 0.03293 0.2294 0.0
H1646 H 0.6744 0.05706 0.1659 0.0
C1647 C 0.6529 1.00491 0.22433 0.0
H1648 H 0.6572 0.07308 0.21117 0.0
C1649 C 0.66263 0.99559 0.19813 0.0
C1650 C 0.67159 1.0142 0.17698 0.0
H1651 H 0.64852 0.99035 0.2411 0.0
H1652 H 0.66466 0.97389 0.1951 0.0
C1653 C 0.66809 0.04213 0.18172 0.0
C1654 C 0.07874 0.94336 0.48717 0.0
C1655 C 0.08735 0.92097 0.47155 0.0
H1656 H 0.04932 0.95862 0.51626 0.0
C1657 C 0.07451 0.89539 0.47651 0.0
H1658 H 0.088 0.96331 0.48367 0.0
C1659 C 0.05231 0.89259 0.49498 0.0
C1660 C 1.04217 0.91542 0.50865 0.0
H1661 H 0.08058 0.87768 0.46481 0.0
H1662 H 1.04224 0.87289 0.49725 0.0
C1663 C 0.05627 0.94063 0.50546 0.0
C1664 C 0.56528 0.12642 0.04091 0.0
C1665 C 0.56147 0.14718 0.06103 0.0
H1666 H 0.59036 0.10854 1.00882 0.0
C1667 C 0.58275 0.16659 0.06298 0.0
H1668 H 0.54989 0.11088 0.03838 0.0
C1669 C 0.60663 0.16508 0.04579 0.0
C1670 C 0.6103 0.14418 0.02573 0.0
H1671 H 0.58115 0.18286 0.07814 0.0
H1672 H 0.62223 0.18043 0.04821 0.0
C1673 C 0.5889 0.12501 1.02378 0.0
C1674 C 0.95505 0.82166 0.26031 0.0
C1675 C 0.93051 0.81443 0.27406 0.0
H1676 H 0.97963 0.85293 0.24034 0.0
C1677 C 0.91054 0.83398 0.27549 0.0
H1678 H 0.97092 0.80712 0.25869 0.0
C1679 C 0.9157 0.86059 0.26516 0.0
C1680 C 0.94093 0.86827 0.25306 0.0
H1681 H 0.89155 0.82926 0.28616 0.0
H1682 H 0.90021 0.87545 0.26767 0.0
C1683 C 0.96016 0.84809 0.24991 0.0
C1684 C 0.30454 0.16008 0.52962 0.0
C1685 C 0.30477 0.14837 0.55655 0.0
H1686 H 0.28071 0.17406 0.49633 0.0
C1687 C 0.28092 0.1367 0.56809 0.0
H1688 H 0.32248 0.1698 0.52052 0.0
C1689 C 0.25678 0.13961 0.55441 0.0
C1690 C 0.25628 0.15371 0.52872 0.0
H1691 H 0.28035 0.12828 0.58915 0.0
H1692 H 0.23827 0.13314 0.56513 0.0
C1693 C 0.28057 0.16261 0.51581 0.0
C1694 C 0.88702 0.49795 0.85794 0.0
C1695 C 0.90321 0.52134 0.86259 0.0
H1696 H 0.87379 0.46715 0.82955 0.0
C1697 C 0.92055 0.52999 0.83996 0.0
H1698 H 0.87318 0.49033 0.87426 0.0
C1699 C 0.92127 0.51589 0.81379 0.0
C1700 C 0.90425 0.49303 0.80923 0.0
H1701 H 0.9333 0.54788 0.8423 0.0
H1702 H 0.93432 0.52355 0.79681 0.0
C1703 C 0.88734 0.48443 0.83197 0.0
C1704 C 0.58394 0.14507 0.22451 0.0
C1705 C 0.57616 0.15035 0.25269 0.0
H1706 H 0.57446 0.14875 0.18081 0.0
C1707 C 0.55066 0.1609 0.25791 0.0
H1708 H 0.60375 0.13781 0.21954 0.0
C1709 C 0.53415 0.16757 0.23588 0.0
C1710 C 0.54249 0.16414 0.20757 0.0
H1711 H 0.54417 0.16587 0.27916 0.0
H1712 H 0.51523 0.1768 0.24108 0.0
C1713 C 0.56722 0.15168 0.20222 0.0
C1714 C 0.92319 0.81285 0.53229 0.0
C1715 C 0.89694 0.82054 0.53866 0.0
H1716 H 0.94849 0.78464 0.51106 0.0
C1717 C 0.87579 0.80255 0.53211 0.0
H1718 H 0.93997 0.82573 0.53793 0.0
C1719 C 0.88069 0.77877 0.5169 0.0
C1720 C 0.90683 0.77256 0.50813 0.0
H1721 H 0.85532 0.80758 0.53735 0.0
H1722 H 0.86387 0.76672 0.50985 0.0
C1723 C 0.92808 0.78899 0.5174 0.0
C1724 C 0.26214 0.11655 0.77543 0.0
C1725 C 0.26579 0.14448 0.76869 0.0
H1726 H 0.23491 0.08424 0.78999 0.0
C1727 C 0.24355 0.16123 0.77335 0.0
H1728 H 0.27847 0.1028 0.77207 0.0
C1729 C 0.21859 0.15057 0.78302 0.0
C1730 C 0.21455 0.12264 0.78895 0.0
H1731 H 0.24508 0.18282 0.76869 0.0
H1732 H 0.20223 0.16442 0.78553 0.0
C1733 C 0.23697 0.10584 0.78556 0.0
C1734 C 0.91387 0.47842 1.00982 0.0
C1735 C 0.93503 0.47314 0.02783 0.0
H1736 H 0.89738 0.5049 0.97864 0.0
C1737 C 0.9558 0.49334 0.02757 0.0
H1738 H 0.89738 0.46386 1.00888 0.0
C1739 C 0.95583 0.51696 1.01019 0.0
C1740 C 0.93505 0.52217 0.99181 0.0
H1741 H 0.97263 0.49083 0.04081 0.0
H1742 H 0.97265 0.53114 1.01101 0.0
C1743 C 0.91389 0.50229 0.99228 0.0
C1744 C 0.07431 0.49755 0.14009 0.0
C1745 C 0.0745 0.4822 0.11515 0.0
H1746 H 0.06215 0.53454 0.16062 0.0
C1747 C 0.05844 0.49062 0.09338 0.0
H1748 H 0.08669 0.49185 0.15716 0.0
C1749 C 1.045 0.51519 0.09514 0.0
C1750 C 1.04691 0.53193 0.11886 0.0
H1751 H 0.05793 0.47929 0.07395 0.0
H1752 H 1.03415 0.52177 0.07722 0.0
C1753 C 0.06049 0.52219 0.14198 0.0
C1754 C 0.52524 0.30433 0.19692 0.0
C1755 C 0.52159 0.29284 0.17046 0.0
H1756 H 0.54732 0.33448 0.2192 0.0
C1757 C 0.5284 0.30814 0.14627 0.0
H1758 H 0.51989 0.29285 0.21583 0.0
C1759 C 0.54155 0.33319 0.14847 0.0
C1760 C 0.552 0.34026 0.17428 0.0
H1761 H 0.52635 0.29956 0.12558 0.0
H1762 H 0.54958 0.34276 0.12933 0.0
C1763 C 0.5403 0.32856 0.19884 0.0
C1764 C 0.83166 0.80707 0.38368 0.0
C1765 C 0.84088 0.79308 0.4073 0.0
H1766 H 0.80324 0.83517 0.36736 0.0
C1767 C 0.82564 0.79657 0.43272 0.0
H1768 H 0.84245 0.8055 0.36371 0.0
C1769 C 0.80292 0.81311 0.43476 0.0
C1770 C 0.79408 0.82788 0.41164 0.0
H1771 H 0.83137 0.78634 0.45164 0.0
H1772 H 0.79264 0.81487 0.45501 0.0
C1773 C 0.80896 0.82432 0.3859 0.0
C1774 C 0.27543 0.0954 0.66702 0.0
C1775 C 0.30097 0.1058 0.65889 0.0
H1776 H 0.2451 0.06454 0.66117 0.0
C1777 C 0.31579 0.09164 0.63814 0.0
H1778 H 0.26346 0.1055 0.68302 0.0
C1779 C 0.30502 0.06821 0.62536 0.0
C1780 C 0.27952 0.05804 0.63362 0.0
H1781 H 0.33555 0.09892 0.63141 0.0
H1782 H 0.31651 0.05819 0.60892 0.0
C1783 C 0.26496 0.07178 0.65468 0.0
C1784 C 0.56168 0.5423 0.43502 0.0
C1785 C 0.54277 0.54373 0.41423 0.0
H1786 H 0.59647 0.52335 0.44898 0.0
C1787 C 0.54791 0.53095 0.38833 0.0
H1788 H 0.55841 0.5523 0.45503 0.0
C1789 C 0.57024 0.51436 0.38464 0.0
C1790 C 0.58747 0.51057 0.40685 0.0
H1791 H 0.53353 0.53176 0.37199 0.0
H1792 H 0.5725 0.50256 0.36561 0.0
C1793 C 0.58369 0.52589 0.43142 0.0
C1794 C 0.31386 0.78449 0.14475 0.0
C1795 C 0.2964 0.78528 0.16858 0.0
H1796 H 0.33866 0.76008 0.11806 0.0
C1797 C 0.2948 0.76304 0.18697 0.0
H1798 H 0.31573 0.80161 0.13034 0.0
C1799 C 0.30826 0.73931 0.18001 0.0
C1800 C 0.3233 0.73751 0.15449 0.0
H1801 H 0.28135 0.76303 0.20527 0.0
H1802 H 0.30562 0.72189 0.19393 0.0
C1803 C 0.32675 0.76063 0.13745 0.0
C1804 C 0.79322 0.99485 0.41713 0.0
C1805 C 0.8122 1.00914 0.40024 0.0
H1806 H 0.76985 0.95858 0.42332 0.0
C1807 C 0.82161 0.99751 0.37496 0.0
H1808 H 0.78604 1.00322 0.43692 0.0
C1809 C 0.81273 0.97137 0.36728 0.0
C1810 C 0.7942 0.9568 0.38473 0.0
H1811 H 0.83684 1.00794 0.36196 0.0
H1812 H 0.82032 0.96262 0.34786 0.0
C1813 C 0.78429 0.96908 0.40946 0.0
C1814 C 1.00898 0.26885 0.84975 0.0
C1815 C 0.98701 0.26554 0.86901 0.0
H1816 H 0.04918 0.28458 0.84218 0.0
C1817 C 0.99054 0.27376 0.89682 0.0
H1818 H 1.00717 0.26262 0.82815 0.0
C1819 C 1.01467 0.28585 0.90492 0.0
C1820 C 1.03627 0.29055 0.8855 0.0
H1821 H 0.97441 0.27126 0.91243 0.0
H1822 H 1.01598 0.29237 0.92649 0.0
C1823 C 1.03322 0.28132 0.85784 0.0
C1824 C 0.91535 1.00042 0.48839 0.0
C1825 C 0.93644 1.0204 0.48794 0.0
H1826 H 0.8987 0.96222 0.50547 0.0
C1827 C 0.95688 1.01561 0.50686 0.0
H1828 H 0.89909 1.0027 0.47435 0.0
C1829 C 0.95659 0.99237 0.52478 0.0
C1830 C 0.93592 0.97206 0.52505 0.0
H1831 H 0.97361 1.02988 0.50777 0.0
H1832 H 0.97315 0.99027 0.53846 0.0
C1833 C 0.91511 0.97686 0.50643 0.0
C1834 C 0.07615 0.65564 0.19653 0.0
C1835 C 0.04996 0.6628 0.2046 0.0
H1836 H 0.11535 0.64581 0.2099 0.0
C1837 C 1.04272 0.66138 0.2335 0.0
H1838 H 0.08268 0.65678 0.17465 0.0
C1839 C 0.06121 0.65399 0.25366 0.0
C1840 C 0.08786 0.64854 0.24577 0.0
H1841 H 1.02287 0.6669 0.24069 0.0
H1842 H 0.0551 0.65452 0.27566 0.0
C1843 C 0.0949 0.64919 0.21681 0.0
C1844 C 0.42525 0.79655 1.01711 0.0
C1845 C 0.4045 0.78194 1.00464 0.0
H1846 H 0.43681 0.83119 0.04089 0.0
C1847 C 0.37811 0.79024 1.00956 0.0
H1848 H 0.44578 0.79071 1.01357 0.0
C1849 C 0.37288 0.81396 0.02493 0.0
C1850 C 0.39398 0.82975 0.03554 0.0
H1851 H 0.36174 0.77966 0.99976 0.0
H1852 H 0.35249 0.82049 0.0275 0.0
C1853 C 0.42009 0.82012 0.03233 0.0
C1854 C 0.28059 0.66885 1.01608 0.0
C1855 C 0.25626 0.65919 0.0283 0.0
H1856 H 0.32248 0.67554 1.02129 0.0
C1857 C 0.25663 0.64359 0.05305 0.0
H1858 H 0.28082 0.68133 0.99729 0.0
C1859 C 0.28071 0.63988 0.06666 0.0
C1860 C 0.30463 0.6521 0.05591 0.0
H1861 H 0.23809 0.63643 0.0632 0.0
H1862 H 0.28005 0.63025 0.08717 0.0
C1863 C 0.3045 0.66538 0.02976 0.0
C1864 C 0.4223 1.00237 0.85314 0.0
C1865 C 0.40712 1.02561 0.85914 0.0
H1866 H 0.43363 0.97173 0.82278 0.0
C1867 C 0.39195 0.03599 0.83747 0.0
H1868 H 0.43392 0.99352 0.86937 0.0
C1869 C 0.39113 1.02306 0.81113 0.0
C1870 C 0.40606 0.99966 0.80502 0.0
H1871 H 0.37963 0.05348 0.84133 0.0
H1872 H 0.37826 1.03117 0.79558 0.0
C1873 C 0.42218 0.98988 0.82633 0.0
C1874 C 0.0834 0.16078 0.56088 0.0
C1875 C 0.06154 0.1421 0.55905 0.0
H1876 H 0.1232 0.17331 0.54611 0.0
C1877 C 0.06472 0.1212 0.53885 0.0
H1878 H 0.08237 0.1771 0.57603 0.0
C1879 C 0.08829 0.11899 0.52159 0.0
C1880 C 0.11027 0.13744 0.52355 0.0
H1881 H 0.04885 0.10617 0.53636 0.0
H1882 H 0.08928 0.10252 0.5066 0.0
C1883 C 0.10717 0.15845 0.54365 0.0
C1884 C 0.56434 0.88478 0.96947 0.0
C1885 C 0.58171 0.90777 0.9678 0.0
H1886 H 0.52878 0.86662 0.98858 0.0
C1887 C 0.57784 0.9293 0.98648 0.0
H1888 H 0.56714 0.86775 0.95538 0.0
C1889 C 0.55574 0.92875 1.00507 0.0
C1890 C 0.53741 0.90652 1.00551 0.0
H1891 H 0.59094 0.94718 0.98567 0.0
H1892 H 0.55263 0.94614 1.0186 0.0
C1893 C 0.54243 0.88406 0.98837 0.0
C1894 C 0.7749 0.91766 0.54337 0.0
C1895 C 0.7705 0.89152 0.53242 0.0
H1896 H 0.79179 0.94063 0.57646 0.0
C1897 C 0.77203 0.86885 0.55039 0.0
H1898 H 0.77253 0.93565 0.53058 0.0
C1899 C 0.7825 0.872 0.57695 0.0
C1900 C 0.79349 0.89736 0.58431 0.0
H1901 H 0.76709 0.84852 0.54319 0.0
H1902 H 0.7873 0.85384 0.58853 0.0
C1903 C 0.78492 0.92056 0.57017 0.0
C1904 C 0.15593 0.51341 0.18909 0.0
C1905 C 0.18315 0.51281 0.18074 0.0
H1906 H 0.12704 0.52543 0.2212 0.0
C1907 C 0.2022 0.52139 0.19959 0.0
H1908 H 0.14085 0.5067 0.17482 0.0
C1909 C 0.19455 0.53104 0.22592 0.0
C1910 C 0.16741 0.53334 0.23418 0.0
H1911 H 0.22327 0.52051 0.19395 0.0
H1912 H 0.21028 0.53755 0.2395 0.0
C1913 C 0.14806 0.52394 0.21562 0.0
C1914 C 0.5269 0.93364 0.82707 0.0
C1915 C 0.5372 0.93304 0.79935 0.0
H1916 H 0.53124 0.91998 0.86941 0.0
C1917 C 0.56199 0.92136 0.79357 0.0
H1918 H 0.50737 0.94179 0.83176 0.0
C1919 C 0.57548 0.90881 0.81494 0.0
C1920 C 0.56415 0.90736 0.84225 0.0
H1921 H 0.56979 0.9199 0.77215 0.0
H1922 H 0.59362 0.89832 0.8096 0.0
C1923 C 0.5402 0.92065 0.8484 0.0
C1924 C 0.17593 0.29398 0.59257 0.0
C1925 C 0.20083 0.30617 0.59778 0.0
H1926 H 0.15353 0.26744 0.5666 0.0
C1927 C 0.22186 0.30349 0.57763 0.0
H1928 H 0.15907 0.2962 0.60716 0.0
C1929 C 0.21859 0.28683 0.55404 0.0
C1930 C 0.1942 0.27288 0.55033 0.0
H1931 H 0.24119 0.31301 0.58084 0.0
H1932 H 0.23562 0.2832 0.54007 0.0
C1933 C 0.17262 0.27778 0.56906 0.0
C1934 C 0.19577 0.51069 0.03542 0.0
C1935 C 0.17285 0.49411 0.04028 0.0
H1936 H 0.21332 0.54461 1.01263 0.0
C1937 C 0.1516 0.49577 1.02216 0.0
H1938 H 0.2126 0.50938 0.04889 0.0
C1939 C 0.15186 0.51617 1.00177 0.0
C1940 C 0.1737 0.53453 0.99877 0.0
H1941 H 0.13383 0.48298 0.02536 0.0
H1942 H 0.1341 0.51896 0.98995 0.0
C1943 C 0.19635 0.53057 1.01444 0.0
C1944 C 0.08406 0.52718 0.93089 0.0
C1945 C 0.08751 0.51116 0.90677 0.0
H1946 H 0.05878 0.55385 0.95422 0.0
C1947 C 0.06986 0.51411 0.88479 0.0
H1948 H 0.09722 0.52531 0.94824 0.0
C1949 C 1.0474 0.53049 0.88841 0.0
C1950 C 1.04256 0.54387 0.91403 0.0
H1951 H 0.07189 0.50174 0.86612 0.0
H1952 H 1.03271 0.53064 0.87236 0.0
C1953 C 0.06186 0.54335 0.93447 0.0
C1954 C 0.51417 0.78704 0.90529 0.0
C1955 C 0.53576 0.79134 0.88576 0.0
H1956 H 0.47377 0.77303 0.91304 0.0
C1957 C 0.53253 0.78192 0.85819 0.0
H1958 H 0.51563 0.79372 0.92679 0.0
C1959 C 0.50811 0.7697 0.85029 0.0
C1960 C 0.48616 0.76683 0.86964 0.0
H1961 H 0.54846 0.78488 0.84247 0.0
H1962 H 0.50616 0.76333 0.82875 0.0
C1963 C 0.48987 0.7752 0.89737 0.0
C1964 C 0.31192 0.24426 0.67677 0.0
C1965 C 0.32532 0.23976 0.65075 0.0
H1966 H 0.28782 0.27117 0.70155 0.0
C1967 C 0.32834 0.2613 0.63146 0.0
H1968 H 0.30969 0.22819 0.69237 0.0
C1969 C 0.31645 0.28613 0.63716 0.0
C1970 C 0.3009 0.28973 0.66202 0.0
H1971 H 0.33905 0.2587 0.61155 0.0
H1972 H 0.3178 0.30185 0.62113 0.0
C1973 C 0.29983 0.26908 0.68238 0.0
C1974 C 0.544 0.51856 0.59596 0.0
C1975 C 0.54397 0.53436 0.62044 0.0
H1976 H 0.55662 0.48269 0.57501 0.0
C1977 C 0.55547 0.52354 0.64442 0.0
H1978 H 0.53547 0.52611 0.57701 0.0
C1979 C 0.56888 0.49857 0.64292 0.0
C1980 C 0.57028 0.48378 0.61762 0.0
H1981 H 0.5558 0.53522 0.66361 0.0
H1982 H 0.57974 0.49196 0.66081 0.0
C1983 C 0.55623 0.49343 0.59481 0.0
C1984 C 0.82957 0.29827 0.9286 0.0
C1985 C 0.84371 0.29342 0.90274 0.0
H1986 H 0.79718 0.31714 0.95133 0.0
C1987 C 0.833 0.30559 0.87882 0.0
H1988 H 0.83642 0.28948 0.94783 0.0
C1989 C 0.80999 0.32244 0.88112 0.0
C1990 C 0.79622 0.32728 0.90728 0.0
H1991 H 0.84287 0.30295 0.85848 0.0
H1992 H 0.80315 0.33197 0.86229 0.0
C1993 C 0.80651 0.31427 0.93075 0.0
C1994 C 1.04094 0.83125 0.19187 0.0
C1995 C 0.05006 0.84256 0.16598 0.0
H1996 H 1.02416 0.79527 0.21224 0.0
C1997 C 1.03922 0.83243 0.14139 0.0
H1998 H 1.0482 0.83928 0.21136 0.0
C1999 C 1.02869 0.80606 0.1416 0.0
C2000 C 1.02394 0.79211 0.16704 0.0
H2001 H 1.0451 0.84149 0.12126 0.0
H2002 H 1.02658 0.79586 0.12171 0.0
C2003 C 1.02787 0.80571 0.19237 0.0
C2004 C 0.0614 0.93099 0.29601 0.0
C2005 C 1.03568 0.94109 0.30019 0.0
H2006 H 0.09379 0.91075 0.31442 0.0
C2007 C 1.02411 0.94185 0.32735 0.0
H2008 H 0.07031 0.92961 0.27504 0.0
C2009 C 1.03694 0.93003 0.34966 0.0
C2010 C 0.06172 0.91784 0.34508 0.0
H2011 H 1.00397 0.94893 0.33082 0.0
H2012 H 1.02689 0.9292 0.37016 0.0
C2013 C 0.07456 0.91981 0.31844 0.0
C2014 C 0.7218 0.80673 0.57697 0.0
C2015 C 0.70073 0.80826 0.59725 0.0
H2016 H 0.73598 0.78798 0.53873 0.0
C2017 C 0.676 0.79597 0.59154 0.0
H2018 H 0.741 0.81633 0.5806 0.0
C2019 C 0.67298 0.78065 0.56734 0.0
C2020 C 0.69469 0.7768 0.54848 0.0
H2021 H 0.65913 0.79732 0.60627 0.0
H2022 H 0.65415 0.76989 0.56454 0.0
C2023 C 0.71882 0.79097 0.55272 0.0
C2024 C 0.78633 0.46961 0.73314 0.0
C2025 C 0.80022 0.44865 0.71962 0.0
H2026 H 0.76101 0.47856 0.76896 0.0
C2027 C 0.78882 0.42235 0.72018 0.0
H2028 H 0.79399 0.49043 0.73181 0.0
C2029 C 0.77159 0.41519 0.7426 0.0
C2030 C 0.76288 0.43525 0.76136 0.0
H2031 H 0.79847 0.40612 0.70864 0.0
H2032 H 0.7681 0.39378 0.74734 0.0
C2033 C 0.76783 0.46278 0.7548 0.0
C2034 C 0.16493 0.76231 0.26714 0.0
C2035 C 0.14079 0.74897 0.27569 0.0
H2036 H 0.18515 0.78934 0.23763 0.0
C2037 C 0.11773 0.75418 0.26111 0.0
H2038 H 0.1831 0.7586 0.27796 0.0
C2039 C 0.11906 0.77122 0.2376 0.0
C2040 C 0.14344 0.7837 0.22827 0.0
H2041 H 0.09895 0.74391 0.26685 0.0
H2042 H 0.10089 0.77441 0.22661 0.0
C2043 C 0.16624 0.77951 0.24371 0.0
C2044 C 0.66891 0.54044 0.68254 0.0
C2045 C 0.67078 0.51229 0.67773 0.0
H2046 H 0.66038 0.5721 0.71203 0.0
C2047 C 0.66138 0.49426 0.69924 0.0
H2048 H 0.67556 0.55507 0.66656 0.0
C2049 C 0.65268 0.50422 0.72565 0.0
C2050 C 0.65243 0.53239 0.73067 0.0
H2051 H 0.66199 0.47245 0.69619 0.0
H2052 H 0.64761 0.48996 0.74251 0.0
C2053 C 0.6599 0.55029 0.70858 0.0
C2054 C 0.07671 0.43 0.98654 0.0
C2055 C 0.08182 0.4076 0.96934 0.0
H2056 H 0.05027 0.44761 1.01705 0.0
C2057 C 0.06545 0.38395 0.9723 0.0
H2058 H 0.08898 0.44843 0.9847 0.0
C2059 C 1.04339 0.38327 0.99109 0.0
C2060 C 1.03711 0.40645 1.00671 0.0
H2061 H 0.06915 0.3663 0.9593 0.0
H2062 H 1.03058 0.3652 0.99232 0.0
C2063 C 0.05436 0.42955 1.0048 0.0
C2064 C 0.56327 0.6255 0.54269 0.0
C2065 C 0.55961 0.64636 0.56271 0.0
H2066 H 0.58835 0.60722 0.51085 0.0
C2067 C 0.58113 0.66544 0.56487 0.0
H2068 H 0.54768 0.6102 0.54002 0.0
C2069 C 0.60511 0.66356 0.54793 0.0
C2070 C 0.60861 0.64259 0.52792 0.0
H2071 H 0.57963 0.68176 0.57998 0.0
H2072 H 0.62088 0.67869 0.55045 0.0
C2073 C 0.587 0.62371 0.52579 0.0
C2074 C 0.90897 0.3319 0.77526 0.0
C2075 C 0.92811 0.3118 0.7708 0.0
H2076 H 0.89961 0.37417 0.77112 0.0
C2077 C 0.95172 0.31897 0.75529 0.0
H2078 H 0.89077 0.32721 0.78743 0.0
C2079 C 0.957 0.34582 0.7463 0.0
C2080 C 0.93882 0.36645 0.75252 0.0
H2081 H 0.96692 0.30402 0.75139 0.0
H2082 H 0.97586 0.35054 0.73536 0.0
C2083 C 0.91427 0.35893 0.76622 0.0
C2084 C 0.88986 0.03486 0.33549 0.0
C2085 C 0.9067 1.02588 0.35638 0.0
H2086 H 0.87487 1.0288 0.29432 0.0
C2087 C 0.92339 1.00391 0.34971 0.0
H2088 H 0.87641 0.05135 0.33992 0.0
C2089 C 0.92303 0.99124 0.32301 0.0
C2090 C 0.90529 0.99955 0.30251 0.0
H2091 H 0.93633 0.99613 0.36537 0.0
H2092 H 0.93569 0.97404 0.31895 0.0
C2093 C 0.88894 1.02178 0.30926 0.0
C2094 C 0.58226 0.64561 0.72598 0.0
C2095 C 0.57469 0.65139 0.75412 0.0
H2096 H 0.57251 0.64862 0.68228 0.0
C2097 C 0.54927 0.66219 0.75927 0.0
H2098 H 0.60198 0.63812 0.72102 0.0
C2099 C 0.53265 0.66856 0.73723 0.0
C2100 C 0.54074 0.6646 0.70893 0.0
H2101 H 0.54291 0.6675 0.78047 0.0
H2102 H 0.5138 0.67796 0.7424 0.0
C2103 C 0.56542 0.65196 0.70367 0.0
C2104 C 0.9235 0.3164 0.03079 0.0
C2105 C 0.89704 0.32229 0.03858 0.0
H2106 H 0.94967 0.29066 1.00736 0.0
C2107 C 0.87661 0.30358 0.03174 0.0
H2108 H 0.93981 0.32988 0.03647 0.0
C2109 C 0.88231 0.28085 1.0151 0.0
C2110 C 0.90855 0.27641 1.00521 0.0
H2111 H 0.85603 0.30725 0.03793 0.0
H2112 H 0.86592 0.26813 1.00815 0.0
C2113 C 0.9292 0.29364 1.01447 0.0
C2114 C 0.23558 0.6112 0.29017 0.0
C2115 C 0.21334 0.62844 0.29187 0.0
H2116 H 0.27697 0.60644 0.27723 0.0
C2117 C 0.2176 0.65562 0.28317 0.0
H2118 H 0.23335 0.59012 0.29679 0.0
C2119 C 0.24271 0.66505 0.27246 0.0
C2120 C 0.26479 0.6477 0.26962 0.0
H2121 H 0.20134 0.66971 0.28432 0.0
H2122 H 0.24451 0.68608 0.26561 0.0
C2123 C 0.26083 0.62062 0.27912 0.0
C2124 C 1.04429 1.01336 0.59515 0.0
C2125 C 1.04641 1.03047 0.61857 0.0
H2126 H 0.05706 0.97715 0.5744 0.0
C2127 C 0.0602 1.02107 0.6417 0.0
H2128 H 1.03328 1.01967 0.57723 0.0
C2129 C 0.07402 0.99641 0.64007 0.0
C2130 C 0.07402 0.98069 0.61537 0.0
H2131 H 0.06203 0.03371 0.66011 0.0
H2132 H 0.08659 0.991 0.65709 0.0
C2133 C 0.05772 0.98877 0.59365 0.0
C2134 C 0.52783 0.80856 0.64818 0.0
C2135 C 0.52058 0.79295 0.67204 0.0
H2136 H 0.54984 0.84299 0.63201 0.0
C2137 C 0.52427 0.80388 0.69873 0.0
H2138 H 0.52575 0.80039 0.62732 0.0
C2139 C 0.53973 0.8278 0.70122 0.0
C2140 C 0.55176 0.83978 0.67696 0.0
H2141 H 0.51864 0.79215 0.7174 0.0
H2142 H 0.5467 0.83322 0.72174 0.0
C2143 C 0.54148 0.83327 0.65092 0.0
C2144 C 0.28264 0.58498 0.17301 0.0
C2145 C 0.30406 0.60033 0.1606 0.0
H2146 H 0.25661 0.54975 0.17055 0.0
C2147 C 0.31638 0.59028 0.13581 0.0
H2148 H 0.27277 0.59184 0.19219 0.0
C2149 C 0.30662 0.56638 0.12303 0.0
C2150 C 0.28514 0.5512 0.13546 0.0
H2151 H 0.33307 0.60135 0.12581 0.0
H2152 H 0.31567 0.55992 0.10327 0.0
C2153 C 0.27357 0.56061 0.16081 0.0
C2154 C 0.56313 0.04393 0.93409 0.0
C2155 C 0.54387 0.04477 0.91364 0.0
H2156 H 0.59823 1.02544 0.94781 0.0
C2157 C 0.54871 1.03163 0.88787 0.0
H2158 H 0.56005 0.05421 0.95397 0.0
C2159 C 0.57111 1.01518 0.8841 0.0
C2160 C 0.58868 1.01189 0.90609 0.0
H2161 H 0.53404 1.03202 0.8718 0.0
H2162 H 0.57311 1.00301 0.86529 0.0
C2163 C 0.58523 1.02766 0.93039 0.0
C2164 C 0.77721 0.49635 0.87707 0.0
C2165 C 0.77692 0.47067 0.89034 0.0
H2166 H 0.79167 0.53768 0.87739 0.0
C2167 C 0.78862 0.46791 0.91632 0.0
H2168 H 0.76796 0.4992 0.85716 0.0
C2169 C 0.80164 0.49014 0.92816 0.0
C2170 C 0.80356 0.51533 0.91391 0.0
H2171 H 0.78832 0.44848 0.92717 0.0
H2172 H 0.81148 0.48706 0.9477 0.0
C2173 C 0.79061 0.51847 0.88868 0.0
C2174 C 1.00548 0.79747 0.41191 0.0
C2175 C 1.02834 0.80158 0.39416 0.0
H2176 H 0.96595 0.78037 0.41746 0.0
C2177 C 1.02849 0.78885 0.36768 0.0
H2178 H 1.00442 0.80664 0.43251 0.0
C2179 C 1.00603 0.77355 0.3589 0.0
C2180 C 0.98274 0.77056 0.37632 0.0
H2181 H 1.04562 0.79141 0.35335 0.0
H2182 H 1.00667 0.76471 0.33813 0.0
C2183 C 0.98319 0.78232 0.40318 0.0
C2184 C 1.03497 0.16609 0.73459 0.0
C2185 C 1.04367 0.16207 0.70647 0.0
H2186 H 1.04441 0.1656 0.77808 0.0
C2187 C 0.06863 0.14986 0.70182 0.0
H2188 H 1.01589 0.1752 0.7393 0.0
C2189 C 0.08514 0.14403 0.72456 0.0
C2190 C 0.07695 0.14992 0.75251 0.0
H2191 H 0.07619 0.14655 0.68059 0.0
H2192 H 0.10508 0.13686 0.72009 0.0
C2193 C 0.05127 0.16025 0.75705 0.0
C2194 C 0.43101 0.29345 0.51508 0.0
C2195 C 0.4103 0.27618 0.50602 0.0
H2196 H 0.44179 0.33001 0.53646 0.0
C2197 C 0.38402 0.28112 0.51549 0.0
H2198 H 0.45151 0.29014 0.50826 0.0
C2199 C 0.37841 0.30423 0.53161 0.0
C2200 C 0.39896 0.32286 0.53834 0.0
H2201 H 0.36758 0.26841 0.50865 0.0
H2202 H 0.35784 0.30818 0.53756 0.0
C2203 C 0.4254 0.31659 0.53087 0.0
C2204 C 0.38902 0.53503 0.33756 0.0
C2205 C 0.40542 0.52563 0.35867 0.0
H2206 H 0.37469 0.52968 0.29601 0.0
C2207 C 0.4219 0.50349 0.35203 0.0
H2208 H 0.37573 0.55166 0.34193 0.0
C2209 C 0.42184 0.49112 0.32514 0.0
C2210 C 0.40461 0.49991 0.30435 0.0
H2211 H 0.43452 0.49539 0.36781 0.0
H2212 H 0.43439 0.47385 0.32112 0.0
C2213 C 0.38839 0.52225 0.31112 0.0
C2214 C 0.08248 0.66434 0.06315 0.0
C2215 C 0.06131 0.64485 0.06103 0.0
H2216 H 0.12199 0.67828 0.04874 0.0
C2217 C 0.06533 0.62402 0.04105 0.0
H2218 H 0.08069 0.68066 0.07824 0.0
C2219 C 0.0891 0.62263 0.02417 0.0
C2220 C 0.11037 0.64191 0.02631 0.0
H2221 H 0.05 0.60843 0.03844 0.0
H2222 H 0.09077 0.60613 1.00927 0.0
C2223 C 0.10649 0.66286 0.04624 0.0
C2224 C 0.54439 0.37963 0.48729 0.0
C2225 C 0.54031 0.40074 0.50639 0.0
H2226 H 0.56785 0.36564 0.45219 0.0
C2227 C 0.55949 0.42208 0.50786 0.0
H2228 H 0.53002 0.3629 0.48601 0.0
C2229 C 0.58118 0.42364 0.48876 0.0
C2230 C 0.58377 0.40401 0.46776 0.0
H2231 H 0.55702 0.43833 0.52296 0.0
H2232 H 0.59475 0.44112 0.48927 0.0
C2233 C 0.56595 0.38134 0.46796 0.0
C2234 C 0.15764 0.05138 0.70795 0.0
C2235 C 0.15147 0.03293 0.72994 0.0
H2236 H 0.17406 0.05742 0.6663 0.0
C2237 C 0.15439 1.00498 0.72504 0.0
H2238 H 0.15622 0.07311 0.71143 0.0
C2239 C 0.16444 0.99584 0.6989 0.0
C2240 C 0.17281 1.0146 0.67768 0.0
H2241 H 0.15056 0.99041 0.74191 0.0
H2242 H 0.16721 0.97423 0.696 0.0
C2243 C 0.16826 0.04239 0.6822 0.0
C2244 C 0.54019 0.4204 0.34807 0.0
C2245 C 0.56447 0.40786 0.34169 0.0
H2246 H 0.50697 0.44113 0.3318 0.0
C2247 C 0.57607 0.41049 0.31457 0.0
H2248 H 0.53104 0.41887 0.36897 0.0
C2249 C 0.56246 0.42332 0.29348 0.0
C2250 C 0.5373 0.43409 0.2994 0.0
H2251 H 0.59453 0.40066 0.30907 0.0
H2252 H 0.57046 0.42265 0.27207 0.0
C2253 C 0.52676 0.43367 0.32704 0.0
C2254 C 0.22039 0.78747 0.05533 0.0
C2255 C 0.19504 0.77932 0.04663 0.0
H2256 H 0.24271 0.8075 0.08702 0.0
C2257 C 0.17234 0.78907 0.06102 0.0
H2258 H 0.23816 0.77966 0.04496 0.0
C2259 C 0.17483 0.80486 0.08507 0.0
C2260 C 0.20012 0.81097 0.0954 0.0
H2261 H 0.15259 0.78267 0.0549 0.0
H2262 H 0.15688 0.81102 0.09637 0.0
C2263 C 0.22292 0.80301 0.07969 0.0
C2264 C 0.06576 0.05367 0.4224 0.0
C2265 C 1.04438 0.04901 0.40485 0.0
H2266 H 0.10482 0.04214 0.43325 0.0
C2267 C 1.04808 0.03289 0.38085 0.0
H2268 H 0.06339 0.06634 0.44084 0.0
C2269 C 0.07185 1.01874 0.37656 0.0
C2270 C 0.09198 1.02081 0.39623 0.0
H2271 H 1.03175 1.02907 0.36707 0.0
H2272 H 0.07311 1.00392 0.35984 0.0
C2273 C 0.08952 0.03998 0.41791 0.0
C2274 C 0.51578 0.28563 0.40446 0.0
C2275 C 0.53695 0.29034 0.38451 0.0
H2276 H 0.47572 0.2709 0.41298 0.0
C2277 C 0.53338 0.28093 0.35701 0.0
H2278 H 0.51753 0.29228 0.42594 0.0
C2279 C 0.50901 0.26833 0.34958 0.0
C2280 C 0.48745 0.26503 0.36935 0.0
H2281 H 0.54899 0.2842 0.34098 0.0
H2282 H 0.50677 0.26197 0.32807 0.0
C2283 C 0.49152 0.27339 0.39701 0.0
C2284 C 0.57268 0.99961 0.14172 0.0
C2285 C 0.57169 0.98368 0.11722 0.0
H2286 H 0.56227 0.03749 0.16155 0.0
C2287 C 0.5554 0.99216 0.09566 0.0
H2288 H 0.58527 0.99385 0.1586 0.0
C2289 C 0.54296 1.01727 0.09708 0.0
C2290 C 0.54604 0.03445 0.12027 0.0
H2291 H 0.55399 0.98039 0.07659 0.0
H2292 H 0.53188 1.02383 0.0793 0.0
C2293 C 0.55979 1.02478 0.1433 0.0
C2294 C 1.04233 0.3318 0.6495 0.0
C2295 C 0.05209 0.33828 0.6758 0.0
H2296 H 1.02791 0.29873 0.62515 0.0
C2297 C 1.04005 0.32565 0.6997 0.0
H2298 H 0.05056 0.34215 0.63088 0.0
C2299 C 1.02556 0.30119 0.69663 0.0
C2300 C 1.02273 0.29046 0.66971 0.0
H2301 H 1.04647 0.33112 0.72041 0.0
H2302 H 1.02001 0.28908 0.71506 0.0
C2303 C 1.02966 0.30663 0.64617 0.0
C2304 C 0.69168 1.00782 0.03402 0.0
C2305 C 0.66801 0.9924 0.03917 0.0
H2306 H 0.71047 0.04156 1.01197 0.0
C2307 C 0.64642 0.99593 1.02188 0.0
H2308 H 0.70873 1.00519 0.0469 0.0
C2309 C 0.64727 1.0171 1.00222 0.0
C2310 C 0.66999 0.0344 0.99919 0.0
H2311 H 0.62805 0.98413 0.02534 0.0
H2312 H 0.62945 1.02126 0.99099 0.0
C2313 C 0.69279 1.02847 1.01385 0.0
C2314 C 0.2748 0.94625 0.75938 0.0
C2315 C 0.27787 0.9182 0.76408 0.0
H2316 H 0.28688 0.98023 0.73354 0.0
C2317 C 0.28663 0.90183 0.74169 0.0
H2318 H 0.26644 0.95927 0.77556 0.0
C2319 C 0.2973 0.91433 0.71725 0.0
C2320 C 0.30252 0.94255 0.71773 0.0
H2321 H 0.28747 0.87992 0.74396 0.0
H2322 H 0.30778 0.90178 0.70204 0.0
C2323 C 0.28567 0.95819 0.7348 0.0
C2324 C 0.67884 0.25588 0.26972 0.0
C2325 C 0.656 0.25243 0.28779 0.0
H2326 H 0.69618 0.27523 0.23253 0.0
C2327 C 0.63523 0.27064 0.28545 0.0
H2328 H 0.69523 0.24204 0.27107 0.0
C2329 C 0.6356 0.28918 0.26307 0.0
C2330 C 0.65684 0.29008 0.24269 0.0
H2331 H 0.61735 0.26848 0.2988 0.0
H2332 H 0.61838 0.30177 0.26084 0.0
C2333 C 0.67927 0.27452 0.24731 0.0
C2334 C 0.27411 0.36812 0.55024 0.0
C2335 C 0.2723 0.39055 0.532 0.0
H2336 H 0.28948 0.35379 0.5886 0.0
C2337 C 0.27621 0.41688 0.54268 0.0
H2338 H 0.26957 0.34763 0.54323 0.0
C2339 C 0.28606 0.42026 0.5695 0.0
C2340 C 0.29481 0.39739 0.58407 0.0
H2341 H 0.27365 0.43467 0.52966 0.0
H2342 H 0.29257 0.44052 0.5756 0.0
C2343 C 0.28441 0.37174 0.57682 0.0
C2344 C 0.45653 0.84665 0.74619 0.0
C2345 C 0.43853 0.86752 0.75209 0.0
H2346 H 0.46613 0.80484 0.75195 0.0
C2347 C 0.41395 0.86037 0.76594 0.0
H2348 H 0.47541 0.85108 0.73517 0.0
C2349 C 0.40843 0.8335 0.77542 0.0
C2350 C 0.42738 0.81317 0.77126 0.0
H2351 H 0.39941 0.87579 0.77061 0.0
H2352 H 0.3902 0.82914 0.78765 0.0
C2353 C 0.45105 0.81996 0.75563 0.0
C2354 C 0.75856 0.14336 0.04784 0.0
C2355 C 0.75859 0.15983 1.02366 0.0
H2356 H 0.78139 0.12927 0.08209 0.0
C2357 C 0.78311 0.16973 1.0121 0.0
H2358 H 0.73987 0.13592 0.05745 0.0
C2359 C 0.80676 0.16582 0.02602 0.0
C2360 C 0.80642 0.15203 0.0519 0.0
H2361 H 0.78365 0.18275 0.99368 0.0
H2362 H 0.82485 0.17618 1.01813 0.0
C2363 C 0.78239 0.13938 0.06183 0.0
C2364 C 0.73645 0.10551 0.28507 0.0
C2365 C 0.71403 0.1223 0.2883 0.0
H2366 H 0.77791 0.10241 0.27153 0.0
C2367 C 0.71801 0.1502 0.28223 0.0
H2368 H 0.7344 0.08393 0.28964 0.0
C2369 C 0.74294 0.16082 0.27249 0.0
C2370 C 0.76516 0.14405 0.26789 0.0
H2371 H 0.70163 0.16404 0.28463 0.0
H2372 H 0.74445 0.18239 0.26767 0.0
C2373 C 0.76159 0.11618 0.27485 0.0
C2374 C 0.41581 0.47838 0.51175 0.0
C2375 C 0.43852 0.47225 0.52732 0.0
H2376 H 0.39726 0.50535 0.4824 0.0
C2377 C 0.46012 0.49138 0.52422 0.0
H2378 H 0.39862 0.46462 0.51293 0.0
C2379 C 0.45926 0.51498 0.50686 0.0
C2380 C 0.43683 0.52109 0.491 0.0
H2381 H 0.47829 0.48802 0.5351 0.0
H2382 H 0.47673 0.52836 0.50556 0.0
C2383 C 0.41503 0.50208 0.494 0.0
C2384 C 0.33263 0.80873 0.87986 0.0
C2385 C 0.34315 0.79577 0.90343 0.0
H2386 H 0.30285 0.83561 0.86405 0.0
C2387 C 0.32891 0.79979 0.92936 0.0
H2388 H 0.34271 0.80686 0.85952 0.0
C2389 C 0.30577 0.81564 0.93191 0.0
C2390 C 0.29564 0.82939 0.90881 0.0
H2391 H 0.33579 0.7905 0.94833 0.0
H2392 H 0.29628 0.8178 0.95251 0.0
C2393 C 0.30959 0.82547 0.88258 0.0
C2394 C 0.80149 0.06896 0.12054 0.0
C2395 C 0.77952 0.05474 0.13322 0.0
H2396 H 0.82942 0.10276 0.12306 0.0
C2397 C 0.7686 0.06458 0.15868 0.0
H2398 H 0.81012 0.06204 0.10076 0.0
C2399 C 0.7788 0.08852 0.17074 0.0
C2400 C 0.80072 0.10295 0.1581 0.0
H2401 H 0.75138 0.05433 0.1687 0.0
H2402 H 0.76946 0.09576 0.19006 0.0
C2403 C 0.81236 0.09243 0.13319 0.0
C2404 C 0.82718 0.7603 0.63013 0.0
C2405 C 0.82414 0.73857 0.64919 0.0
H2406 H 0.8168 0.80102 0.62026 0.0
C2407 C 0.81069 0.74284 0.67524 0.0
H2408 H 0.83787 0.75787 0.61018 0.0
C2409 C 0.79872 0.76769 0.68115 0.0
C2410 C 0.79993 0.7886 0.66106 0.0
H2411 H 0.80842 0.72662 0.69066 0.0
H2412 H 0.78676 0.76965 0.70037 0.0
C2413 C 0.81538 0.78513 0.63611 0.0
C2414 C 0.29332 0.99537 0.91872 0.0
C2415 C 0.3123 1.00992 0.90207 0.0
H2416 H 0.2699 0.95901 0.9242 0.0
C2417 C 0.3217 0.99874 0.87656 0.0
H2418 H 0.28613 1.0034 0.93866 0.0
C2419 C 0.31282 0.97277 0.8684 0.0
C2420 C 0.29427 0.95794 0.88558 0.0
H2421 H 0.33691 1.00939 0.86372 0.0
H2422 H 0.3204 0.96436 0.84881 0.0
C2423 C 0.28435 0.96976 0.91055 0.0
C2424 C 0.45838 0.99464 0.02885 0.0
C2425 C 0.43754 0.97454 0.03024 0.0
H2426 H 0.47501 1.03191 1.01074 0.0
C2427 C 0.41605 0.97939 1.01246 0.0
H2428 H 0.47545 0.99246 0.04184 0.0
C2429 C 0.41582 1.00268 0.99407 0.0
C2430 C 0.43702 1.02251 0.9925 0.0
H2431 H 0.39947 0.96487 1.01231 0.0
H2432 H 0.39904 1.0049 0.98072 0.0
C2433 C 0.45813 1.01776 1.01069 0.0
C2434 C 0.7579 0.64107 0.54935 0.0
C2435 C 0.7576 0.65738 0.52509 0.0
H2436 H 0.78122 0.62727 0.58335 0.0
C2437 C 0.78197 0.66716 0.51306 0.0
H2438 H 0.73933 0.63374 0.55932 0.0
C2439 C 0.80582 0.66336 0.52663 0.0
C2440 C 0.80582 0.64982 0.55262 0.0
H2441 H 0.78225 0.68008 0.49458 0.0
H2442 H 0.82381 0.67369 0.5184 0.0
C2443 C 0.78194 0.6372 0.563 0.0
C2444 C 0.29367 0.86964 0.07155 0.0
C2445 C 0.29566 0.89569 0.08323 0.0
H2446 H 0.28622 0.84695 0.03453 0.0
C2447 C 0.28141 0.91685 0.07124 0.0
H2448 H 0.30371 0.85269 0.0808 0.0
C2449 C 0.27181 0.91386 0.04425 0.0
C2450 C 0.27531 0.88929 0.02981 0.0
H2451 H 0.28206 0.93703 0.08032 0.0
H2452 H 0.26334 0.93123 0.03411 0.0
C2453 C 0.28468 0.86669 0.04444 0.0
C2454 C 0.69052 0.52667 0.51462 0.0
C2455 C 0.66763 0.53261 0.50009 0.0
H2456 H 0.70666 0.50346 0.54765 0.0
C2457 C 0.64486 0.51542 0.50344 0.0
H2458 H 0.70825 0.53965 0.51248 0.0
C2459 C 0.64407 0.49438 0.52327 0.0
C2460 C 0.6658 0.49085 0.5404 0.0
H2461 H 0.62697 0.51957 0.49232 0.0
H2462 H 0.62568 0.48267 0.52697 0.0
C2463 C 0.68949 0.50614 0.53494 0.0
C2464 C 0.81623 0.28648 0.13608 0.0
C2465 C 0.80038 0.28997 0.16075 0.0
H2466 H 0.83893 0.25915 0.11049 0.0
C2467 C 0.7987 0.26901 0.18078 0.0
H2468 H 0.81803 0.30241 0.12029 0.0
C2469 C 0.81061 0.2441 0.17505 0.0
C2470 C 0.82444 0.23982 0.14923 0.0
H2471 H 0.78641 0.271 0.19978 0.0
H2472 H 0.80799 0.22784 0.19039 0.0
C2473 C 0.82792 0.26158 0.13025 0.0
C2474 C 0.31051 0.32057 0.38478 0.0
C2475 C 0.29711 0.32524 0.41115 0.0
H2476 H 0.34323 0.3015 0.36159 0.0
C2477 C 0.30779 0.31236 0.43446 0.0
H2478 H 0.30332 0.33005 0.36608 0.0
C2479 C 0.331 0.29663 0.43189 0.0
C2480 C 0.34477 0.292 0.40579 0.0
H2481 H 0.29871 0.31517 0.45516 0.0
H2482 H 0.33832 0.28796 0.45097 0.0
C2483 C 0.33362 0.30401 0.38207 0.0
C2484 C 0.29306 0.39302 0.23891 0.0
C2485 C 0.28082 0.40879 0.25996 0.0
H2486 H 0.3168 0.39454 0.20082 0.0
C2487 C 0.27445 0.4359 0.25363 0.0
H2488 H 0.29683 0.37167 0.24236 0.0
C2489 C 0.28486 0.44815 0.22905 0.0
C2490 C 0.30485 0.43459 0.21399 0.0
H2491 H 0.26381 0.44844 0.26869 0.0
H2492 H 0.28308 0.46999 0.22672 0.0
C2493 C 0.30365 0.40597 0.21464 0.0
C2494 C 0.67831 0.75623 0.77354 0.0
C2495 C 0.65536 0.75316 0.79152 0.0
H2496 H 0.69581 0.77495 0.73611 0.0
C2497 C 0.63497 0.77179 0.78924 0.0
H2498 H 0.69444 0.74207 0.77493 0.0
C2499 C 0.63558 0.79016 0.76674 0.0
C2500 C 0.65671 0.79043 0.74624 0.0
H2501 H 0.61707 0.76997 0.8026 0.0
H2502 H 0.61857 0.80302 0.76446 0.0
C2503 C 0.67895 0.77465 0.75096 0.0
C2504 C 0.45734 0.34614 0.24743 0.0
C2505 C 0.43915 0.36688 0.25317 0.0
H2506 H 0.46724 0.30441 0.25329 0.0
C2507 C 0.41459 0.35954 0.26698 0.0
H2508 H 0.47623 0.35069 0.23647 0.0
C2509 C 0.40924 0.33262 0.27649 0.0
C2510 C 0.42834 0.31242 0.27243 0.0
H2511 H 0.3999 0.37484 0.27154 0.0
H2512 H 0.39098 0.32813 0.28861 0.0
C2513 C 0.45203 0.31942 0.25692 0.0
C2514 C 0.71751 0.6514 0.78267 0.0
C2515 C 0.71331 0.62364 0.78922 0.0
H2516 H 0.74425 0.68309 0.76745 0.0
C2517 C 0.73558 0.60659 0.78621 0.0
H2518 H 0.70125 0.66541 0.78493 0.0
C2519 C 0.76078 0.61684 0.77576 0.0
C2520 C 0.7646 0.64456 0.76831 0.0
H2521 H 0.73337 0.5851 0.79116 0.0
H2522 H 0.77696 0.60287 0.77265 0.0
C2523 C 0.74253 0.66162 0.77266 0.0
C2524 C 0.76916 0.56144 0.66233 0.0
C2525 C 0.7778 0.55255 0.63559 0.0
H2526 H 0.77213 0.59203 0.69423 0.0
C2527 C 0.79829 0.56774 0.62128 0.0
H2528 H 0.7531 0.55055 0.67371 0.0
C2529 C 0.80985 0.59115 0.63346 0.0
C2530 C 0.80025 0.60085 0.6596 0.0
H2531 H 0.80516 0.56168 0.60049 0.0
H2532 H 0.82565 0.60219 0.62196 0.0
C2533 C 0.7799 0.58544 0.67395 0.0
C2534 C 0.29884 0.48935 0.42061 0.0
C2535 C 0.31373 0.50722 0.40286 0.0
H2536 H 0.28065 0.45015 0.42624 0.0
C2537 C 0.32111 0.49871 0.37556 0.0
H2538 H 0.29319 0.49517 0.44186 0.0
C2539 C 0.314 0.47243 0.36648 0.0
C2540 C 0.29942 0.45449 0.38462 0.0
H2541 H 0.3332 0.5119 0.36167 0.0
H2542 H 0.31958 0.46632 0.34531 0.0
C2543 C 0.29194 0.46337 0.4117 0.0
C2544 C 0.16765 1.02467 0.37341 0.0
C2545 C 0.18563 1.00773 0.38623 0.0
H2546 H 0.15055 0.06418 0.37375 0.0
C2547 C 0.20464 1.01837 0.40408 0.0
H2548 H 0.15339 1.01658 0.35897 0.0
C2549 C 0.20362 0.04549 0.41167 0.0
C2550 C 0.18305 0.06131 0.40206 0.0
H2551 H 0.21849 1.00522 0.41415 0.0
H2552 H 0.21755 0.05349 0.42655 0.0
C2553 C 0.16591 0.05153 0.38187 0.0
C2554 C 0.09465 0.4552 0.69688 0.0
C2555 C 0.09705 0.43758 0.67376 0.0
H2556 H 0.06673 0.47434 0.72502 0.0
C2557 C 0.07712 0.43674 0.65405 0.0
H2558 H 0.11039 0.45694 0.71178 0.0
C2559 C 0.05246 0.44754 0.66123 0.0
C2560 C 1.0483 0.45904 0.68785 0.0
H2561 H 0.07882 0.42384 0.63573 0.0
H2562 H 1.03584 0.44336 0.6479 0.0
C2563 C 0.06976 0.46496 0.70466 0.0
C2564 C 0.68508 0.31522 0.88955 0.0
C2565 C 0.67343 0.33659 0.90469 0.0
H2566 H 0.69796 0.27424 0.89224 0.0
C2567 C 0.65525 0.33018 0.92714 0.0
H2568 H 0.69798 0.31927 0.87121 0.0
C2569 C 0.65529 0.30431 0.93926 0.0
C2570 C 0.67277 0.28506 0.92815 0.0
H2571 H 0.64475 0.34604 0.93836 0.0
H2572 H 0.64468 0.30077 0.95919 0.0
C2573 C 0.68534 0.28952 0.90174 0.0
C2574 C 0.84001 0.98524 0.0917 0.0
C2575 C 0.82214 0.96302 0.09118 0.0
H2576 H 0.8735 1.00146 0.11271 0.0
C2577 C 0.8313 0.93691 0.09699 0.0
H2578 H 0.83374 1.0054 0.08589 0.0
C2579 C 0.85351 0.93462 0.11333 0.0
C2580 C 0.8662 0.95857 0.12229 0.0
H2581 H 0.81811 0.91924 0.09514 0.0
H2582 H 0.85702 0.9152 0.12321 0.0
C2583 C 0.86258 0.98296 0.10749 0.0
C2584 C 0.14802 0.22001 0.92982 0.0
C2585 C 0.16545 0.21322 0.90737 0.0
H2586 H 0.11842 0.2495 0.94059 0.0
C2587 C 0.18287 0.23401 0.89737 0.0
H2588 H 0.13748 0.20407 0.94182 0.0
C2589 C 0.17182 0.25958 0.89483 0.0
C2590 C 0.14668 0.26387 0.90779 0.0
H2591 H 0.20001 0.22929 0.88393 0.0
H2592 H 0.18124 0.27457 0.8807 0.0
C2593 C 0.13665 0.24562 0.92855 0.0
C2594 C 0.81707 0.44265 0.17206 0.0
C2595 C 0.83748 0.42678 0.18213 0.0
H2596 H 0.77645 0.43984 0.15971 0.0
C2597 C 0.83073 0.40861 0.20429 0.0
H2598 H 0.82165 0.45944 0.15772 0.0
C2599 C 0.80553 0.396 0.20429 0.0
C2600 C 0.78689 0.4058 0.18592 0.0
H2601 H 0.84627 0.39853 0.21524 0.0
H2602 H 0.80146 0.37765 0.21655 0.0
C2603 C 0.79151 0.43095 0.17236 0.0
C2604 C 0.66138 0.99524 0.37788 0.0
C2605 C 0.65264 0.99868 0.35038 0.0
H2606 H 0.68509 0.97163 0.40521 0.0
C2607 C 0.65677 0.97799 0.33078 0.0
H2608 H 0.65851 1.01112 0.39332 0.0
C2609 C 0.67086 0.95501 0.33805 0.0
C2610 C 0.68228 0.953 0.36443 0.0
H2611 H 0.64994 0.98004 0.30962 0.0
H2612 H 0.67396 0.93939 0.32253 0.0
C2613 C 0.6764 0.97263 0.3848 0.0
C2614 C 0.05473 0.90403 0.57841 0.0
C2615 C 1.03853 0.88938 0.59757 0.0
H2616 H 0.09336 0.91177 0.5617 0.0
C2617 C 0.04969 0.87129 0.6166 0.0
H2618 H 1.04714 0.91955 0.5652 0.0
C2619 C 0.07722 0.87003 0.6178 0.0
C2620 C 0.09307 0.88568 0.59888 0.0
H2621 H 1.03737 0.85969 0.63172 0.0
H2622 H 0.0859 0.85836 0.63431 0.0
C2623 C 0.08155 0.90029 0.57737 0.0
C2624 C 0.42296 0.12992 0.05368 0.0
C2625 C 0.44198 0.15037 0.06091 0.0
H2626 H 0.40429 0.1072 1.02092 0.0
C2627 C 0.45229 0.16743 0.03926 0.0
H2628 H 0.41415 0.11636 0.06961 0.0
C2629 C 0.44591 0.16248 1.0112 0.0
C2630 C 0.42944 0.13995 1.00367 0.0
H2631 H 0.4668 0.18339 0.04366 0.0
H2632 H 0.45576 0.17515 0.99511 0.0
C2633 C 0.41697 0.12464 0.02555 0.0
C2634 C 0.91903 0.69556 0.20161 0.0
C2635 C 0.94374 0.68298 0.19736 0.0
H2636 H 0.89196 0.71432 0.23119 0.0
C2637 C 0.9586 0.67646 0.22066 0.0
H2638 H 0.90747 0.70122 0.18385 0.0
C2639 C 0.95048 0.68532 0.24734 0.0
C2640 C 0.92701 0.7 0.25106 0.0
H2641 H 0.97779 0.66705 0.21791 0.0
H2642 H 0.9629 0.68139 0.26495 0.0
C2643 C 0.91056 0.70375 0.22842 0.0
C2644 C 0.38965 0.14526 0.50855 0.0
C2645 C 0.41105 0.16079 0.49676 0.0
H2646 H 0.37021 0.13249 0.54692 0.0
C2647 C 0.4343 0.16482 0.51176 0.0
H2648 H 0.37203 0.14079 0.49676 0.0
C2649 C 0.43319 0.16004 0.54048 0.0
C2650 C 0.40897 0.15119 0.55332 0.0
H2651 H 0.45145 0.17591 0.50264 0.0
H2652 H 0.44947 0.16753 0.55285 0.0
C2653 C 0.38849 0.14069 0.53719 0.0
C2654 C 0.8935 0.64755 0.81643 0.0
C2655 C 0.86728 0.6555 0.81185 0.0
H2656 H 0.92001 0.6298 0.84519 0.0
C2657 C 0.84909 0.65729 0.83467 0.0
H2658 H 0.90771 0.64572 0.79891 0.0
C2659 C 0.85619 0.64815 0.86114 0.0
C2660 C 0.88146 0.6372 0.86497 0.0
H2661 H 0.82869 0.66292 0.8315 0.0
H2662 H 0.84106 0.64706 0.87793 0.0
C2663 C 0.90064 0.63864 0.84292 0.0
C2664 C 0.45134 0.17062 0.21593 0.0
C2665 C 0.4397 0.18444 0.19388 0.0
H2666 H 0.45406 0.16702 0.26056 0.0
C2667 C 0.41809 0.20153 0.19994 0.0
H2668 H 0.46821 0.15765 0.21194 0.0
C2669 C 0.41065 0.20751 0.22764 0.0
C2670 C 0.42432 0.19597 0.24949 0.0
H2671 H 0.40883 0.21248 0.18326 0.0
H2672 H 0.39526 0.22217 0.23193 0.0
C2673 C 0.4437 0.17645 0.24367 0.0
C2674 C 0.93331 0.66327 0.51033 0.0
C2675 C 0.90984 0.65828 0.49591 0.0
H2676 H 0.94906 0.66752 0.55105 0.0
C2677 C 0.88919 0.6422 0.50836 0.0
H2678 H 0.94998 0.67472 0.50068 0.0
C2679 C 0.88874 0.63813 0.53709 0.0
C2680 C 0.9091 0.64981 0.5526 0.0
H2681 H 0.87147 0.63694 0.49705 0.0
H2682 H 0.87099 0.6293 0.5473 0.0
C2683 C 0.93283 0.65918 0.53915 0.0
C2684 C 0.39439 0.14958 0.81773 0.0
C2685 C 0.36796 0.15702 0.81348 0.0
H2686 H 0.42145 0.13216 0.84609 0.0
C2687 C 0.35004 0.15873 0.83653 0.0
H2688 H 0.40842 0.14789 0.80004 0.0
C2689 C 0.35759 0.14982 0.86291 0.0
C2690 C 0.38303 0.1391 0.86636 0.0
H2691 H 0.32949 0.16403 0.8336 0.0
H2692 H 0.34261 0.14838 0.87983 0.0
C2693 C 0.40197 0.14084 0.84411 0.0
C2694 C 0.92278 0.62985 0.05372 0.0
C2695 C 0.94235 0.64961 0.06131 0.0
H2696 H 0.90355 0.60811 1.02062 0.0
C2697 C 0.95335 0.66648 0.03982 0.0
H2698 H 0.91346 0.61644 0.06949 0.0
C2699 C 0.94705 0.66197 1.01163 0.0
C2700 C 0.92985 0.64013 1.00375 0.0
H2701 H 0.96837 0.68186 0.04444 0.0
H2702 H 0.95743 0.67442 0.99571 0.0
C2703 C 0.91679 0.62506 0.02547 0.0
C2704 C 0.04931 0.36922 0.1146 0.0
C2705 C 1.03784 0.38687 0.09542 0.0
H2706 H 0.0856 0.35775 0.13306 0.0
C2707 C 0.05379 0.40184 0.07622 0.0
H2708 H 1.03719 0.35726 0.1296 0.0
C2709 C 0.08084 0.39989 0.07633 0.0
C2710 C 0.09241 0.3858 0.09816 0.0
H2711 H 1.04575 0.41666 0.06244 0.0
H2712 H 0.09252 0.41216 0.0612 0.0
C2713 C 0.07682 0.36915 0.11641 0.0
C2714 C 0.59462 0.4562 0.19562 0.0
C2715 C 0.59701 0.43874 0.17238 0.0
H2716 H 0.56675 0.47516 0.22396 0.0
C2717 C 0.57692 0.43781 0.15282 0.0
H2718 H 0.61043 0.45798 0.21042 0.0
C2719 C 0.55223 0.44842 0.16023 0.0
C2720 C 0.54818 0.45988 0.18687 0.0
H2721 H 0.57859 0.42499 0.13444 0.0
H2722 H 0.53554 0.4442 0.14699 0.0
C2723 C 0.56972 0.46583 0.20357 0.0
C2724 C 0.68209 0.81235 0.39322 0.0
C2725 C 0.67077 0.83358 0.40878 0.0
H2726 H 0.69451 0.77119 0.39531 0.0
C2727 C 0.65238 0.82713 0.43101 0.0
H2728 H 0.69511 0.81655 0.37499 0.0
C2729 C 0.65213 0.80113 0.44275 0.0
C2730 C 0.66953 0.78193 0.43142 0.0
H2731 H 0.64208 0.84297 0.44247 0.0
H2732 H 0.64159 0.79749 0.4627 0.0
C2733 C 0.68198 0.78647 0.40498 0.0
C2734 C 0.34246 0.98992 0.59268 0.0
C2735 C 0.32494 0.96752 0.59094 0.0
H2736 H 0.37477 1.0061 0.61558 0.0
C2737 C 0.33436 0.94141 0.59625 0.0
H2738 H 0.33612 1.01011 0.5871 0.0
C2739 C 0.35583 0.939 0.61361 0.0
C2740 C 0.36783 0.96287 0.62373 0.0
H2741 H 0.32157 0.92362 0.59332 0.0
H2742 H 0.35929 0.91937 0.62307 0.0
C2743 C 0.36434 0.9876 0.60947 0.0
C2744 C 0.65681 0.51506 0.42615 0.0
C2745 C 0.67346 0.50443 0.40502 0.0
H2746 H 0.63772 0.54952 0.4422 0.0
C2747 C 0.68795 0.52188 0.38646 0.0
H2748 H 0.64657 0.50236 0.44184 0.0
C2749 C 0.68602 0.54988 0.38984 0.0
C2750 C 0.66845 0.56003 0.41068 0.0
H2751 H 0.701 0.514 0.36999 0.0
H2752 H 0.69842 0.56339 0.37661 0.0
C2753 C 0.65243 0.54233 0.42711 0.0
C2754 C 0.29324 0.92173 0.18877 0.0
C2755 C 0.28691 0.89481 0.19701 0.0
H2756 H 0.32495 0.94878 0.17514 0.0
C2757 C 0.30598 0.87909 0.20962 0.0
H2758 H 0.27828 0.93463 0.18024 0.0
C2759 C 0.3324 0.88843 0.20864 0.0
C2760 C 0.3392 0.91056 0.19074 0.0
H2761 H 0.30103 0.85876 0.21741 0.0
H2762 H 0.34751 0.87436 0.21464 0.0
C2763 C 0.31991 0.93014 0.18657 0.0
C2764 C 0.94581 1.02014 0.60146 0.0
C2765 C 0.96546 1.031 0.61904 0.0
H2766 H 0.92322 0.98473 0.58817 0.0
C2767 C 0.97668 1.01265 0.63783 0.0
H2768 H 0.93591 0.03355 0.58733 0.0
C2769 C 0.96943 0.98455 0.63836 0.0
C2770 C 0.94991 0.97341 0.6207 0.0
H2771 H 0.9912 1.0201 0.65237 0.0
H2772 H 0.97944 0.97141 0.65265 0.0
C2773 C 0.93812 0.99199 0.60235 0.0
C2774 C 0.99393 0.65505 0.3401 0.0
C2775 C 0.9851 0.67465 0.36067 0.0
H2776 H 1.02535 0.63249 0.31839 0.0
C2777 C 1.00701 0.68399 0.37694 0.0
H2778 H 0.97944 0.64712 0.32579 0.0
C2779 C 1.03459 0.67487 0.37251 0.0
C2780 C 1.04322 0.65535 0.35167 0.0
H2781 H 1.00332 0.69975 0.39229 0.0
H2782 H 0.04971 0.6843 0.38506 0.0
C2783 C 1.02125 0.64608 0.33574 0.0
C2784 C 0.38293 0.77823 0.16166 0.0
C2785 C 0.40076 0.75816 0.1514 0.0
H2786 H 0.369 0.81983 0.16012 0.0
C2787 C 0.4213 0.76968 0.13263 0.0
H2788 H 0.36664 0.77189 0.17587 0.0
C2789 C 0.42329 0.79804 0.12397 0.0
C2790 C 0.40454 0.81769 0.13287 0.0
H2791 H 0.4358 0.75616 0.12327 0.0
H2792 H 0.43894 0.80415 0.10884 0.0
C2793 C 0.38445 0.80653 0.15233 0.0
C2794 C 0.25679 0.11957 0.87119 0.0
C2795 C 0.26423 0.10315 0.8944 0.0
H2796 H 0.22593 0.13518 0.84495 0.0
C2797 C 0.24199 0.09108 0.90952 0.0
H2798 H 0.27241 0.12951 0.85833 0.0
C2799 C 0.21477 0.09407 0.90126 0.0
C2800 C 0.20722 0.11026 0.87791 0.0
H2801 H 0.24562 0.07804 0.92725 0.0
H2802 H 0.19933 0.08256 0.91291 0.0
C2803 C 0.22944 0.12321 0.86345 0.0
C2804 C 0.97207 0.84055 0.13597 0.0
C2805 C 0.95761 0.81874 0.14952 0.0
H2806 H 0.9822 0.88366 0.13376 0.0
C2807 C 0.93892 0.82737 0.17089 0.0
H2808 H 0.98634 0.83602 0.11919 0.0
C2809 C 0.93559 0.85552 0.17869 0.0
C2810 C 0.95103 0.87719 0.16599 0.0
H2811 H 0.92706 0.81207 0.18242 0.0
H2812 H 0.92174 0.86006 0.19586 0.0
C2813 C 0.96926 0.86854 0.14424 0.0
C2814 C 0.30731 0.67978 0.91235 0.0
C2815 C 0.32174 0.70545 0.91353 0.0
H2816 H 0.27052 0.65551 0.92172 0.0
C2817 C 0.3057 0.72616 0.92575 0.0
H2818 H 0.31787 0.66223 0.90462 0.0
C2819 C 0.27856 0.72225 0.93604 0.0
C2820 C 0.26394 0.69697 0.93555 0.0
H2821 H 0.31475 0.74605 0.92862 0.0
H2822 H 0.26907 0.73975 0.94539 0.0
C2823 C 0.27944 0.67576 0.92272 0.0
C2824 C 0.40792 0.05423 0.73112 0.0
C2825 C 0.41285 0.03776 0.70733 0.0
H2826 H 0.39522 0.09252 0.74825 0.0
C2827 C 0.41027 0.05102 0.68102 0.0
H2828 H 0.40833 0.04512 0.7518 0.0
C2829 C 0.40265 0.07899 0.67885 0.0
C2830 C 0.39666 0.09493 0.70294 0.0
H2831 H 0.41227 0.0392 0.66198 0.0
H2832 H 0.39952 0.08743 0.65827 0.0
C2833 C 0.40006 0.08178 0.72901 0.0
C2834 C 0.09123 0.13762 0.41189 0.0
C2835 C 0.10266 0.15051 0.43549 0.0
H2836 H 0.05709 0.11898 0.39256 0.0
C2837 C 0.08454 0.15336 0.4589 0.0
H2838 H 0.10349 0.13446 0.39309 0.0
C2839 C 0.05724 0.14319 0.45883 0.0
C2840 C 1.04634 0.12987 0.43518 0.0
H2841 H 0.09143 0.16335 0.47751 0.0
H2842 H 1.04446 0.14637 0.47725 0.0
C2843 C 0.06416 0.12807 0.41164 0.0
C2844 C 0.67215 0.88313 1.02124 0.0
C2845 C 0.68919 0.90432 0.03126 0.0
H2846 H 0.65318 0.86394 0.98618 0.0
C2847 C 0.70184 0.92128 1.01071 0.0
H2848 H 0.66142 0.86963 0.03595 0.0
C2849 C 0.69746 0.91738 0.98174 0.0
C2850 C 0.67966 0.89681 0.97183 0.0
H2851 H 0.71462 0.93808 1.01699 0.0
H2852 H 0.70732 0.93155 0.96707 0.0
C2853 C 0.66722 0.87969 0.99235 0.0
C2854 C 0.15346 0.39201 0.77451 0.0
C2855 C 0.16634 0.37186 0.75828 0.0
H2856 H 0.13934 0.4051 0.81548 0.0
C2857 C 0.17639 0.34961 0.77299 0.0
H2858 H 0.14488 0.4092 0.76415 0.0
C2859 C 0.17117 0.34611 0.80224 0.0
C2860 C 0.15721 0.36568 0.81819 0.0
H2861 H 0.18668 0.33384 0.76156 0.0
H2862 H 0.17729 0.32755 0.81222 0.0
C2863 C 0.14976 0.38938 0.80401 0.0
C2864 C 0.68679 0.8669 0.54628 0.0
C2865 C 0.70114 0.88735 0.53067 0.0
H2866 H 0.67194 0.85255 0.58704 0.0
C2867 C 0.71105 0.90957 0.54626 0.0
H2868 H 0.6774 0.85013 0.5354 0.0
C2869 C 0.7099 0.90974 0.57603 0.0
C2870 C 0.69636 0.88895 0.59186 0.0
H2871 H 0.72073 0.92667 0.53529 0.0
H2872 H 0.71992 0.92623 0.58674 0.0
C2873 C 0.68366 0.86827 0.57614 0.0
C2874 C 0.21053 0.43866 0.23558 0.0
C2875 C 0.21541 0.41218 0.24552 0.0
H2876 H 0.21087 0.46633 0.20077 0.0
C2877 C 0.22176 0.39229 0.22512 0.0
H2878 H 0.20574 0.45482 0.25016 0.0
C2879 C 0.22411 0.39909 0.19605 0.0
C2880 C 0.22057 0.42605 0.18665 0.0
H2881 H 0.22611 0.37179 0.23167 0.0
H2882 H 0.23002 0.3836 0.18115 0.0
C2883 C 0.21346 0.44544 0.20697 0.0
C2884 C 0.64975 0.88904 0.80429 0.0
C2885 C 0.65735 0.86528 0.81822 0.0
H2886 H 0.64474 0.90909 0.76462 0.0
C2887 C 0.67149 0.84592 0.8022 0.0
H2888 H 0.63917 0.90457 0.81587 0.0
C2889 C 0.67669 0.84965 0.77302 0.0
C2890 C 0.66643 0.87192 0.75853 0.0
H2891 H 0.67775 0.82735 0.81207 0.0
H2892 H 0.68707 0.83403 0.76144 0.0
C2893 C 0.65344 0.89189 0.77486 0.0
C2894 C 0.18509 0.36657 0.57462 0.0
C2895 C 0.19703 0.38762 0.5905 0.0
H2896 H 0.17988 0.34813 0.5338 0.0
C2897 C 0.21048 0.40854 0.57476 0.0
H2898 H 0.17352 0.35066 0.58538 0.0
C2899 C 0.21222 0.40823 0.54499 0.0
C2900 C 0.20296 0.38579 0.52928 0.0
H2901 H 0.22002 0.42527 0.58557 0.0
H2902 H 0.22185 0.42542 0.53414 0.0
C2903 C 0.18875 0.36513 0.54477 0.0
C2904 C 0.71295 0.9434 0.23549 0.0
C2905 C 0.71404 0.9163 0.24533 0.0
H2906 H 0.71625 0.97119 0.20075 0.0
C2907 C 0.71677 0.89571 0.22482 0.0
H2908 H 0.71103 0.96011 0.25011 0.0
C2909 C 0.71879 0.90229 0.19567 0.0
C2910 C 0.71892 0.92966 0.18632 0.0
H2911 H 0.71799 0.87464 0.23128 0.0
H2912 H 0.72145 0.88608 0.18059 0.0
C2913 C 0.71594 0.94991 0.20686 0.0
C2914 C 0.20376 0.42066 1.01115 0.0
C2915 C 0.19147 0.4038 0.03201 0.0
H2916 H 0.2084 0.43098 0.9675 0.0
C2917 C 0.17383 0.38291 1.0224 0.0
H2918 H 0.21698 0.43723 1.01711 0.0
C2919 C 0.16816 0.3796 0.99359 0.0
C2920 C 0.18038 0.39657 0.97275 0.0
H2921 H 0.1633 0.36956 0.0374 0.0
H2922 H 0.15376 0.36405 0.98776 0.0
C2923 C 0.19864 0.4169 0.98232 0.0
C2924 C 0.09058 0.63964 0.91309 0.0
C2925 C 0.10184 0.65266 0.9367 0.0
H2926 H 0.05679 0.62026 0.89378 0.0
C2927 C 0.08372 0.65468 0.96029 0.0
H2928 H 0.10281 0.63705 0.89416 0.0
C2929 C 0.05666 0.64371 0.96033 0.0
C2930 C 1.0459 0.63039 0.93659 0.0
H2931 H 0.09043 0.66474 0.97893 0.0
H2932 H 1.04392 0.64638 0.97887 0.0
C2933 C 0.06372 0.62931 0.91294 0.0
C2934 C 0.49847 0.65563 0.84659 0.0
C2935 C 0.48888 0.67865 0.86254 0.0
H2936 H 0.53106 0.63064 0.82998 0.0
C2937 C 0.51064 0.69336 0.87447 0.0
H2938 H 0.48397 0.6436 0.83546 0.0
C2939 C 0.53866 0.68603 0.87051 0.0
C2940 C 0.54824 0.66295 0.85469 0.0
H2941 H 0.50629 0.71185 0.88581 0.0
H2942 H 0.55335 0.69949 0.87962 0.0
C2943 C 0.52647 0.64789 0.8432 0.0
C2944 C 0.38467 0.30624 0.65244 0.0
C2945 C 0.40417 0.31751 0.63247 0.0
H2946 H 0.3674 0.27135 0.67584 0.0
C2947 C 0.42274 0.29811 0.62266 0.0
H2948 H 0.36949 0.31947 0.661 0.0
C2949 C 0.42105 0.26972 0.63103 0.0
C2950 C 0.40105 0.25812 0.65032 0.0
H2951 H 0.43799 0.30446 0.6072 0.0
H2952 H 0.43531 0.2563 0.62111 0.0
C2953 C 0.38338 0.27792 0.66134 0.0
C2954 C 0.72912 0.123 0.36258 0.0
C2955 C 0.707 0.10995 0.3771 0.0
H2956 H 0.77206 0.12929 0.35724 0.0
C2957 C 0.71463 0.09364 0.40031 0.0
H2958 H 0.7255 0.1351 0.3442 0.0
C2959 C 0.74188 0.09057 0.40837 0.0
C2960 C 0.76402 0.10271 0.39316 0.0
H2961 H 0.69924 0.08209 0.41199 0.0
H2962 H 0.7456 0.07744 0.426 0.0
C2963 C 0.75649 0.11928 0.37012 0.0
C2964 C 0.43524 0.4929 0.63374 0.0
C2965 C 0.45111 0.47702 0.61554 0.0
H2966 H 0.42796 0.53271 0.65099 0.0
C2967 C 0.47119 0.4912 0.59909 0.0
H2968 H 0.41988 0.48314 0.64709 0.0
C2969 C 0.47509 0.51975 0.60034 0.0
C2970 C 0.46042 0.53552 0.61953 0.0
H2971 H 0.48446 0.48005 0.58523 0.0
H2972 H 0.49017 0.52944 0.5867 0.0
C2973 C 0.4401 0.52152 0.636 0.0
C2974 C 0.78094 0.17386 0.92414 0.0
C2975 C 0.76473 0.19616 0.93314 0.0
H2976 H 0.82003 0.15906 0.90957 0.0
C2977 C 0.7788 0.22173 0.93013 0.0
H2978 H 0.77253 0.15341 0.92618 0.0
C2979 C 0.80611 0.22497 0.91999 0.0
C2980 C 0.82277 0.2032 0.91146 0.0
H2981 H 0.76872 0.24004 0.93658 0.0
H2982 H 0.81478 0.24527 0.92004 0.0
C2983 C 0.8089 0.17723 0.91404 0.0
C2984 C 0.18917 0.52128 0.8863 0.0
C2985 C 0.1739 0.50444 0.9048 0.0
H2986 H 0.20097 0.56245 0.87613 0.0
C2987 C 0.15731 0.51577 0.92552 0.0
H2988 H 0.20223 0.51284 0.87015 0.0
C2989 C 0.15383 0.54319 0.92621 0.0
C2990 C 0.17051 0.56028 0.90978 0.0
H2991 H 0.1465 0.50355 0.94118 0.0
H2992 H 0.1392 0.55091 0.94112 0.0
C2993 C 0.18804 0.54941 0.88933 0.0
C2994 C 0.0928 0.95742 0.20973 0.0
C2995 C 0.09869 0.94526 0.18367 0.0
H2996 H 0.06103 0.97197 0.23622 0.0
C2997 C 0.08345 0.95146 0.16062 0.0
H2998 H 0.10519 0.95406 0.22748 0.0
C2999 C 0.05857 0.96272 0.16549 0.0
C3000 C 0.04962 0.96735 0.19323 0.0
H3001 H 0.0882 0.94319 0.14007 0.0
H3002 H 1.04488 0.96311 0.14846 0.0
C3003 C 0.06759 0.96763 0.21484 0.0
C3004 C 0.83461 0.44569 0.59754 0.0
C3005 C 0.82199 0.47053 0.59412 0.0
H3006 H 0.8625 0.42529 0.62228 0.0
C3007 C 0.83631 0.49483 0.59829 0.0
H3008 H 0.82428 0.4267 0.59287 0.0
C3009 C 0.85811 0.49423 0.61539 0.0
C3010 C 0.86501 0.4692 0.62717 0.0
H3011 H 0.82738 0.51427 0.59429 0.0
H3012 H 0.86589 0.51335 0.62333 0.0
C3013 C 0.85627 0.44491 0.61478 0.0
C3014 C 0.08202 0.73529 0.40937 0.0
C3015 C 0.10712 0.7278 0.39828 0.0
H3016 H 0.06219 0.76369 0.43587 0.0
C3017 C 0.13003 0.73359 0.41348 0.0
H3018 H 0.0637 0.72932 0.39954 0.0
C3019 C 0.12841 0.75299 0.43452 0.0
C3020 C 0.10503 0.76778 0.43664 0.0
H3021 H 0.1494 0.72609 0.40698 0.0
H3022 H 0.14679 0.76134 0.44254 0.0
C3023 C 0.08108 0.7543 0.43081 0.0
C3024 C 0.80732 0.89562 0.70379 0.0
C3025 C 0.78823 0.9046 0.68552 0.0
H3026 H 0.8483 0.89862 0.71365 0.0
C3027 C 0.79249 0.92915 0.67074 0.0
H3028 H 0.80355 0.87776 0.71689 0.0
C3029 C 0.81796 0.94106 0.66944 0.0
C3030 C 0.83874 0.92604 0.68005 0.0
H3031 H 0.7771 0.9374 0.65807 0.0
H3032 H 0.82209 0.95727 0.65429 0.0
C3033 C 0.8325 0.90828 0.7027 0.0
C3034 C 0.69058 0.47665 0.87347 0.0
C3035 C 0.67817 0.45139 0.86809 0.0
H3036 H 0.68952 0.52001 0.86804 0.0
C3037 C 0.65288 0.45088 0.85622 0.0
H3038 H 0.71026 0.47769 0.88202 0.0
C3039 C 0.64096 0.4751 0.84834 0.0
C3040 C 0.65455 0.50007 0.85151 0.0
H3041 H 0.64315 0.43162 0.85136 0.0
H3042 H 0.62187 0.47423 0.83849 0.0
C3043 C 0.679 0.50078 0.8649 0.0
C3044 C 0.42146 0.63059 0.55379 0.0
C3045 C 0.44076 0.65082 0.56094 0.0
H3046 H 0.40269 0.6077 0.52118 0.0
C3047 C 0.45173 0.66722 0.53909 0.0
H3048 H 0.41214 0.61752 0.56985 0.0
C3049 C 0.44558 0.6619 0.51102 0.0
C3050 C 0.42869 0.63962 0.50364 0.0
H3051 H 0.4665 0.68295 0.54338 0.0
H3052 H 0.45586 0.67414 0.49485 0.0
C3053 C 0.41571 0.62493 0.52566 0.0
C3054 C 0.91156 0.20577 0.72622 0.0
C3055 C 0.92553 0.1952 0.74838 0.0
H3056 H 0.90959 0.20948 0.68171 0.0
C3057 C 0.94538 0.17606 0.74306 0.0
H3058 H 0.89578 0.22009 0.73012 0.0
C3059 C 0.95307 0.16959 0.71547 0.0
C3060 C 0.94103 0.18243 0.69305 0.0
H3061 H 0.95597 0.16734 0.76019 0.0
H3062 H 0.97021 0.15692 0.71181 0.0
C3063 C 0.91911 0.19922 0.69867 0.0
C3064 C 0.38715 0.64369 0.03689 0.0
C3065 C 0.40801 0.65351 0.05289 0.0
H3066 H 0.36949 0.64581 0.99713 0.0
C3067 C 0.43186 0.66306 0.03982 0.0
H3068 H 0.36923 0.6348 0.0467 0.0
C3069 C 0.43218 0.66922 1.01142 0.0
C3070 C 0.40853 0.66582 0.99694 0.0
H3071 H 0.44845 0.67001 0.05207 0.0
H3072 H 0.44914 0.68064 1.00234 0.0
C3073 C 0.38741 0.64982 1.00857 0.0
C3074 C 0.85724 0.14982 0.36076 0.0
C3075 C 0.88261 0.13903 0.36438 0.0
H3076 H 0.82935 0.1641 0.33128 0.0
C3077 C 0.90166 0.14065 0.34222 0.0
H3078 H 0.84216 0.14843 0.37759 0.0
C3079 C 0.89425 0.14937 0.31577 0.0
C3080 C 0.86788 0.15691 0.31137 0.0
H3081 H 0.9211 0.1319 0.34434 0.0
H3082 H 0.90835 0.14757 0.29815 0.0
C3083 C 0.84986 0.15875 0.33432 0.0
C3084 C 0.41651 0.7033 0.70033 0.0
C3085 C 0.43749 0.68546 0.69412 0.0
H3086 H 0.39454 0.72456 0.73251 0.0
C3087 C 0.44853 0.67087 0.71603 0.0
H3088 H 0.40768 0.71479 0.68376 0.0
C3089 C 0.44105 0.67666 0.74381 0.0
C3090 C 0.42249 0.69693 0.74981 0.0
H3091 H 0.4649 0.65731 0.71193 0.0
H3092 H 0.45102 0.66664 0.76062 0.0
C3093 C 0.40932 0.7093 0.72807 0.0
C3094 C 0.93449 0.16723 1.01038 0.0
C3095 C 0.91131 0.1624 0.99544 0.0
H3096 H 0.94971 0.17049 0.05142 0.0
C3097 C 0.8904 0.14626 1.00732 0.0
H3098 H 0.95128 0.17884 1.00119 0.0
C3099 C 0.88956 0.14157 0.03595 0.0
C3100 C 0.90978 0.15273 0.052 0.0
H3101 H 0.87287 0.14121 0.99561 0.0
H3102 H 0.87164 0.13265 0.04573 0.0
C3103 C 0.93363 0.16246 0.03909 0.0
C3104 C 0.4007 0.64179 0.34547 0.0
C3105 C 0.38119 0.63907 0.3671 0.0
H3106 H 0.40821 0.65011 0.30176 0.0
C3107 C 0.35568 0.64944 0.36318 0.0
H3108 H 0.42027 0.63343 0.34781 0.0
C3109 C 0.34871 0.65895 0.33683 0.0
C3110 C 0.36727 0.65821 0.31426 0.0
H3111 H 0.34029 0.64733 0.37963 0.0
H3112 H 0.32814 0.66386 0.33343 0.0
C3113 C 0.3937 0.65116 0.3191 0.0
C3114 C 0.9233 0.127 0.55245 0.0
C3115 C 0.94208 0.1476 0.55991 0.0
H3116 H 0.90469 0.10459 0.51941 0.0
C3117 C 0.95189 0.16524 0.53852 0.0
H3118 H 0.91486 0.11299 0.56817 0.0
C3119 C 0.94529 0.16073 0.51044 0.0
C3120 C 0.92911 0.13808 0.5026 0.0
H3121 H 0.96618 0.18134 0.54309 0.0
H3122 H 0.95479 0.17384 0.49451 0.0
C3123 C 0.9171 0.12217 0.52428 0.0
C3124 C 0.57002 0.96588 0.70428 0.0
C3125 C 0.5487 0.95994 0.68728 0.0
H3126 H 0.61051 0.95777 0.71188 0.0
C3127 C 0.55304 0.94831 0.66077 0.0
H3128 H 0.56682 0.97535 0.72458 0.0
C3129 C 0.57773 0.93746 0.65385 0.0
C3130 C 0.5975 0.93833 0.67376 0.0
H3131 H 0.53652 0.94412 0.64731 0.0
H3132 H 0.57955 0.92451 0.63558 0.0
C3133 C 0.59494 0.95602 0.6968 0.0
C3134 C 0.35735 0.42684 0.11586 0.0
C3135 C 0.37115 0.45097 0.12241 0.0
H3136 H 0.32019 0.41161 0.10155 0.0
C3137 C 0.36784 0.47422 0.10569 0.0
H3138 H 0.36071 0.40807 0.12706 0.0
C3139 C 0.34433 0.47635 0.09138 0.0
C3140 C 0.32565 0.45482 0.09368 0.0
H3141 H 0.37968 0.49262 0.1089 0.0
H3142 H 0.33851 0.4963 0.08441 0.0
C3143 C 0.33411 0.42885 0.1011 0.0
C3144 C 0.65823 1.01538 0.92605 0.0
C3145 C 0.67465 1.00432 0.90499 0.0
H3146 H 0.63978 0.0503 0.94184 0.0
C3147 C 0.68956 1.0214 0.88642 0.0
H3148 H 0.64767 1.00296 0.94174 0.0
C3149 C 0.68813 0.04948 0.88959 0.0
C3150 C 0.67067 0.06009 0.91026 0.0
H3151 H 0.70248 1.01317 0.87002 0.0
H3152 H 0.70074 0.06269 0.87624 0.0
C3153 C 0.65441 0.04276 0.92686 0.0
C3154 C 0.29232 0.4295 0.67192 0.0
C3155 C 0.28765 0.40461 0.68596 0.0
H3156 H 0.32237 0.45777 0.65678 0.0
C3157 C 0.30632 0.39504 0.70441 0.0
H3158 H 0.27723 0.43819 0.65916 0.0
C3159 C 0.33156 0.40756 0.70418 0.0
C3160 C 0.33831 0.42575 0.68205 0.0
H3161 H 0.30221 0.37688 0.71698 0.0
H3162 H 0.34707 0.39754 0.71524 0.0
C3163 C 0.31786 0.44123 0.67144 0.0
C3164 C 0.9775 0.51359 0.13795 0.0
C3165 C 0.96555 0.53205 0.11984 0.0
H3166 H 0.98085 0.47228 0.15229 0.0
C3167 C 0.94515 0.52128 0.10311 0.0
H3168 H 0.99256 0.52094 0.15192 0.0
C3169 C 0.93753 0.4931 0.10404 0.0
C3170 C 0.95006 0.47442 0.12169 0.0
H3171 H 0.93468 0.53479 0.08957 0.0
H3172 H 0.92216 0.48588 0.0904 0.0
C3173 C 0.97026 0.4855 0.13856 0.0
C3174 C 1.03974 0.18506 0.86953 0.0
C3175 C 0.04954 0.16207 0.85374 0.0
H3176 H 1.00711 0.21058 0.88472 0.0
C3177 C 1.02795 0.14682 0.84215 0.0
H3178 H 0.05429 0.19863 0.87871 0.0
C3179 C 0.99989 0.15432 0.84542 0.0
C3180 C 0.99007 0.17724 0.86134 0.0
H3181 H 1.03274 0.12961 0.82896 0.0
H3182 H 0.98552 0.14217 0.83421 0.0
C3183 C 1.01165 0.19213 0.87338 0.0
C3184 C 0.21236 0.59333 0.40505 0.0
C3185 C 0.20427 0.60997 0.38225 0.0
H3186 H 0.24378 0.57681 0.42996 0.0
C3187 C 0.22625 0.62316 0.36755 0.0
H3188 H 0.19716 0.58168 0.41689 0.0
C3189 C 0.2538 0.61931 0.37452 0.0
C3190 C 0.26178 0.60247 0.3972 0.0
H3191 H 0.22236 0.63557 0.34947 0.0
H3192 H 0.26917 0.62949 0.36152 0.0
C3193 C 0.2398 0.59015 0.41257 0.0
C3194 C 0.97035 0.36874 0.6456 0.0
C3195 C 0.95105 0.37709 0.6665 0.0
H3196 H 0.98872 0.33672 0.62082 0.0
C3197 C 0.93482 0.35517 0.67762 0.0
H3198 H 0.98398 0.38396 0.63632 0.0
C3199 C 0.9383 0.32717 0.66909 0.0
C3200 C 0.95801 0.31886 0.64855 0.0
H3201 H 0.92012 0.35936 0.69411 0.0
H3202 H 0.92567 0.31169 0.67941 0.0
C3203 C 0.97345 0.34093 0.6367 0.0
C3204 C 0.28066 0.21859 0.43891 0.0
C3205 C 0.2655 0.19376 0.43657 0.0
H3206 H 0.31726 0.24207 0.43307 0.0
C3207 C 0.28055 0.17322 0.42197 0.0
H3208 H 0.27157 0.2356 0.44962 0.0
C3209 C 0.30845 0.17738 0.41166 0.0
C3210 C 0.32342 0.20254 0.41473 0.0
H3211 H 0.27121 0.15334 0.41938 0.0
H3212 H 0.31858 0.16024 0.40237 0.0
C3213 C 0.30784 0.22263 0.42874 0.0
C3214 C 0.41007 0.55058 0.18102 0.0
C3215 C 0.41136 0.53637 0.207 0.0
H3216 H 0.40068 0.58785 0.15897 0.0
C3217 C 0.40524 0.55202 0.2311 0.0
H3218 H 0.41306 0.53944 0.16166 0.0
C3219 C 0.39754 0.57968 0.22954 0.0
C3220 C 0.39551 0.59379 0.20374 0.0
H3221 H 0.40464 0.54222 0.25149 0.0
H3222 H 0.39183 0.58977 0.24891 0.0
C3223 C 0.40267 0.57866 0.17942 0.0
C3224 C 0.69742 0.41601 0.48134 0.0
C3225 C 0.67958 0.39578 0.47085 0.0
H3226 H 0.71384 0.43641 0.51718 0.0
C3227 C 0.6663 0.37885 0.49098 0.0
H3228 H 0.70793 0.43003 0.46699 0.0
C3229 C 0.67039 0.38221 0.52005 0.0
C3230 C 0.68742 0.40313 0.53063 0.0
H3231 H 0.65217 0.36337 0.48437 0.0
H3232 H 0.65902 0.36889 0.53442 0.0
C3233 C 0.70099 0.41983 0.51048 0.0
C3234 C 0.1692 0.88048 0.27784 0.0
C3235 C 0.15554 0.86233 0.25999 0.0
H3236 H 0.17521 0.89423 0.32046 0.0
C3237 C 0.13848 0.84262 0.27359 0.0
H3238 H 0.18206 0.89643 0.26869 0.0
C3239 C 0.13482 0.84108 0.30305 0.0
C3240 C 0.14746 0.85963 0.32109 0.0
H3241 H 0.12697 0.82852 0.26124 0.0
H3242 H 0.12102 0.82563 0.31161 0.0
C3243 C 0.16507 0.87928 0.30779 0.0
C3244 C 0.71128 0.41033 0.07289 0.0
C3245 C 0.69755 0.38943 0.08841 0.0
H3246 H 0.7228 0.42755 0.03245 0.0
C3247 C 0.68527 0.36881 0.07224 0.0
H3248 H 0.72101 0.42682 0.08389 0.0
C3249 C 0.68904 0.36757 0.04237 0.0
C3250 C 0.7036 0.38815 0.0271 0.0
H3251 H 0.67332 0.35307 0.08281 0.0
H3252 H 0.67992 0.35083 0.0312 0.0
C3253 C 0.71302 0.41033 0.0431 0.0
C3254 C 0.22134 0.90425 0.69558 0.0
C3255 C 0.22194 0.93165 0.68635 0.0
H3256 H 0.2195 0.8765 0.73109 0.0
C3257 C 0.21857 0.95188 0.70683 0.0
H3258 H 0.22418 0.88806 0.6805 0.0
C3259 C 0.21475 0.94529 0.73536 0.0
C3260 C 0.21547 0.91815 0.74512 0.0
H3261 H 0.21913 0.97318 0.70078 0.0
H3262 H 0.21255 0.96195 0.75 0.0
C3263 C 0.21857 0.8976 0.72464 0.0
C3264 C 0.65411 0.39233 0.27242 0.0
C3265 C 0.66662 0.3721 0.25599 0.0
H3266 H 0.64031 0.40528 0.31354 0.0
C3267 C 0.67637 0.34955 0.27045 0.0
H3268 H 0.64576 0.40975 0.26224 0.0
C3269 C 0.67122 0.34589 0.29966 0.0
C3270 C 0.65763 0.36555 0.31581 0.0
H3271 H 0.68636 0.33371 0.25883 0.0
H3272 H 0.6771 0.32714 0.30946 0.0
C3273 C 0.65048 0.38951 0.3019 0.0
C3274 C 0.18257 0.89922 0.07712 0.0
C3275 C 0.20144 0.88478 0.09215 0.0
H3276 H 0.16925 0.91193 0.03655 0.0
C3277 C 0.21979 0.86964 0.07544 0.0
H3278 H 0.16824 0.91158 0.08842 0.0
C3279 C 0.21846 0.86736 0.04594 0.0
C3280 C 0.20149 0.88351 0.03067 0.0
H3281 H 0.23564 0.85912 0.08523 0.0
H3282 H 0.23192 0.85391 0.03492 0.0
C3283 C 0.18317 0.89926 0.04704 0.0
C3284 C 0.71874 0.38242 0.71789 0.0
C3285 C 0.71017 0.39933 0.74017 0.0
H3286 H 0.72872 0.37934 0.67341 0.0
C3287 C 0.70528 0.4268 0.73354 0.0
H3288 H 0.72301 0.36131 0.722 0.0
C3289 C 0.70997 0.43735 0.70631 0.0
C3290 C 0.71816 0.42064 0.68397 0.0
H3291 H 0.6992 0.4408 0.74992 0.0
H3292 H 0.70732 0.45887 0.70276 0.0
C3293 C 0.72211 0.39283 0.69002 0.0
C3294 C 0.19799 0.92337 0.4827 0.0
C3295 C 0.17981 0.90331 0.47252 0.0
H3296 H 0.21681 0.94209 0.51802 0.0
C3297 C 0.1684 0.88498 0.49256 0.0
H3298 H 0.20714 0.93841 0.46849 0.0
C3299 C 0.17473 0.88679 0.52129 0.0
C3300 C 0.19224 0.90744 0.53154 0.0
H3301 H 0.15412 0.86953 0.48619 0.0
H3302 H 0.16476 0.87252 0.53577 0.0
C3303 C 0.20377 0.9256 0.51146 0.0
C3304 C 0.5401 0.18509 0.36941 0.0
C3305 C 0.54988 0.16216 0.35356 0.0
H3306 H 0.50742 0.21037 0.38487 0.0
C3307 C 0.52832 0.14674 0.34215 0.0
H3308 H 0.55466 0.19875 0.37845 0.0
C3309 C 0.50024 0.15406 0.34562 0.0
C3310 C 0.49043 0.17691 0.36162 0.0
H3311 H 0.53313 0.12955 0.32894 0.0
H3312 H 0.48585 0.14184 0.33453 0.0
C3313 C 0.512 0.19196 0.37349 0.0
C3314 C 0.71277 0.5955 0.90315 0.0
C3315 C 0.70526 0.61111 0.87938 0.0
H3316 H 0.74357 0.5804 0.9298 0.0
C3317 C 0.72747 0.62399 0.86482 0.0
H3318 H 0.69735 0.58408 0.91492 0.0
C3319 C 0.75478 0.62082 0.8729 0.0
C3320 C 0.76219 0.60508 0.8966 0.0
H3321 H 0.72399 0.63551 0.84601 0.0
H3322 H 0.77042 0.63061 0.85993 0.0
C3323 C 0.73995 0.59304 0.91177 0.0
C3324 C 0.43924 0.9947 0.10633 0.0
C3325 C 0.45335 0.9766 0.12316 0.0
H3326 H 0.43429 0.03614 0.09211 0.0
C3327 C 0.4738 0.98838 0.13916 0.0
H3328 H 0.42362 0.98684 0.09334 0.0
C3329 C 0.47985 1.01668 0.13845 0.0
C3330 C 0.46655 0.03455 0.12085 0.0
H3331 H 0.48552 0.97554 0.1522 0.0
H3332 H 0.49509 1.02464 0.15187 0.0
C3333 C 0.44578 1.02307 0.10513 0.0
C3334 C 0.77956 0.67215 0.42933 0.0
C3335 C 0.76235 0.69454 0.43489 0.0
H3336 H 0.81938 0.65761 0.41759 0.0
C3337 C 0.77523 0.7202 0.42832 0.0
H3338 H 0.77213 0.65181 0.43449 0.0
C3339 C 0.80248 0.72348 0.41778 0.0
C3340 C 0.82009 0.70156 0.41264 0.0
H3341 H 0.76424 0.73858 0.43225 0.0
H3342 H 0.81032 0.74399 0.41487 0.0
C3343 C 0.80737 0.67558 0.41908 0.0
C3344 C 0.1878 0.31002 0.39382 0.0
C3345 C 0.17527 0.33145 0.40802 0.0
H3346 H 0.20164 0.26952 0.39804 0.0
C3347 C 0.15687 0.32523 0.43032 0.0
H3348 H 0.20092 0.31388 0.3756 0.0
C3349 C 0.15732 0.29975 0.44321 0.0
C3350 C 0.17546 0.2807 0.43304 0.0
H3351 H 0.14574 0.3411 0.44081 0.0
H3352 H 0.14629 0.29641 0.46294 0.0
C3353 C 0.18853 0.28475 0.40684 0.0
C3354 C 0.67282 0.26004 0.39311 0.0
C3355 C 0.64771 0.26436 0.40613 0.0
H3356 H 0.70088 0.22973 0.38207 0.0
C3357 C 0.63774 0.24616 0.42697 0.0
H3358 H 0.68219 0.275 0.3789 0.0
C3359 C 0.64907 0.22053 0.42821 0.0
C3360 C 0.66635 0.21371 0.40564 0.0
H3361 H 0.61953 0.25007 0.43903 0.0
H3362 H 0.63849 0.20465 0.44026 0.0
C3363 C 0.68382 0.23445 0.39562 0.0
C3364 C 0.15644 0.97822 0.83097 0.0
C3365 C 0.15232 0.99881 0.85067 0.0
H3366 H 0.17374 0.9397 0.82251 0.0
C3367 C 0.16085 0.99517 0.87822 0.0
H3368 H 0.14977 0.98044 0.80976 0.0
C3369 C 0.17579 0.9725 0.88507 0.0
C3370 C 0.18177 0.95303 0.86458 0.0
H3371 H 0.15797 1.01098 0.89374 0.0
H3372 H 0.18444 0.9714 0.9055 0.0
C3373 C 0.17046 0.95518 0.83816 0.0
C3374 C 0.57499 0.87332 0.12851 0.0
C3375 C 0.59179 0.87791 0.10494 0.0
H3376 H 0.53468 0.87336 0.14411 0.0
C3377 C 0.58173 0.87802 0.07797 0.0
H3378 H 0.58274 0.87295 0.14941 0.0
C3379 C 0.55457 0.87892 0.07501 0.0
C3380 C 0.53779 0.8792 0.09891 0.0
H3381 H 0.59483 0.8808 0.05952 0.0
H3382 H 0.54699 0.88117 0.05439 0.0
C3383 C 0.5477 0.87398 0.12546 0.0
C3384 C 0.55369 0.37363 0.57793 0.0
C3385 C 0.53671 0.37695 0.60137 0.0
H3386 H 0.59416 0.37338 0.56306 0.0
C3387 C 0.54618 0.37443 0.62853 0.0
H3388 H 0.54638 0.37387 0.557 0.0
C3389 C 0.57339 0.3736 0.6321 0.0
C3390 C 0.5905 0.37538 0.60842 0.0
H3391 H 0.53297 0.37625 0.64689 0.0
H3392 H 0.58091 0.37559 0.65301 0.0
C3393 C 0.58079 0.37261 0.58145 0.0
C3394 C 0.18612 0.78618 0.90376 0.0
C3395 C 0.17255 0.78168 0.92963 0.0
H3396 H 0.19917 0.81605 0.8736 0.0
C3397 C 0.15355 0.8001 0.93931 0.0
H3398 H 0.19979 0.77134 0.89521 0.0
C3399 C 0.15311 0.82573 0.92681 0.0
C3400 C 0.17256 0.83264 0.90575 0.0
H3401 H 0.142 0.79634 0.95865 0.0
H3402 H 0.14148 0.84127 0.93722 0.0
C3403 C 0.18542 0.81165 0.89119 0.0
C3404 C 0.92192 0.79723 0.62133 0.0
C3405 C 0.90346 0.81687 0.63095 0.0
H3406 H 0.93431 0.75533 0.62002 0.0
C3407 C 0.88376 0.80561 0.65078 0.0
H3408 H 0.9373 0.80343 0.60594 0.0
C3409 C 0.88223 0.77723 0.65975 0.0
C3410 C 0.89986 0.75722 0.64899 0.0
H3411 H 0.86859 0.81891 0.65921 0.0
H3412 H 0.86612 0.77081 0.67416 0.0
C3413 C 0.92002 0.76881 0.62979 0.0
C3414 C 0.43692 0.82979 0.66872 0.0
C3415 C 0.45663 0.82114 0.64842 0.0
H3416 H 0.41914 0.86241 0.69333 0.0
C3417 C 0.47247 0.84277 0.63637 0.0
H3418 H 0.42404 0.81457 0.67911 0.0
C3419 C 0.46971 0.87064 0.64494 0.0
C3420 C 0.45046 0.87931 0.66568 0.0
H3421 H 0.48775 0.83816 0.62063 0.0
H3422 H 0.48357 0.88562 0.63558 0.0
C3423 C 0.43383 0.85784 0.67695 0.0
C3424 C 0.90514 0.05275 0.22891 0.0
C3425 C 0.91082 0.03658 0.20506 0.0
H3426 H 0.89203 0.09084 0.24613 0.0
C3427 C 0.90905 0.0502 0.17882 0.0
H3428 H 0.90495 0.04341 0.24951 0.0
C3429 C 0.90151 0.07823 0.17676 0.0
C3430 C 0.8948 0.09388 0.20086 0.0
H3431 H 0.91171 0.03864 0.15968 0.0
H3432 H 0.89906 0.08696 0.15616 0.0
C3433 C 0.89739 0.08035 0.22689 0.0
C3434 C 0.58444 0.15628 0.95914 0.0
C3435 C 0.60252 0.15331 0.93567 0.0
H3436 H 0.54461 0.14882 0.97796 0.0
C3437 C 0.59124 0.13941 0.91258 0.0
H3438 H 0.59119 0.16699 0.97739 0.0
C3439 C 0.56436 0.12913 0.91282 0.0
C3440 C 0.54658 0.13118 0.93639 0.0
H3441 H 0.60346 0.13609 0.89379 0.0
H3442 H 0.55739 0.11936 0.89405 0.0
C3443 C 0.55736 0.1454 0.95957 0.0
C3444 C 0.59003 0.63985 0.41387 0.0
C3445 C 0.60112 0.65283 0.43758 0.0
H3446 H 0.55635 0.6205 0.39435 0.0
C3447 C 0.58291 0.65488 0.46107 0.0
H3448 H 0.60237 0.63727 0.39502 0.0
C3449 C 0.55587 0.64394 0.46093 0.0
C3450 C 0.54527 0.63064 0.43711 0.0
H3451 H 0.58951 0.66494 0.47974 0.0
H3452 H 0.54303 0.64659 0.4794 0.0
C3453 C 0.56318 0.62955 0.41355 0.0
C3454 C 0.88299 0.30622 0.15237 0.0
C3455 C 0.90235 0.3178 0.13241 0.0
H3456 H 0.86608 0.27105 0.17562 0.0
C3457 C 0.92103 0.29857 0.12243 0.0
H3458 H 0.86773 0.31927 0.16106 0.0
C3459 C 0.9196 0.27012 0.13062 0.0
C3460 C 0.89973 0.25819 0.14988 0.0
H3461 H 0.9362 0.30512 0.10695 0.0
H3462 H 0.93399 0.25691 0.12059 0.0
C3463 C 0.88195 0.27781 0.1611 0.0
C3464 C 0.63529 0.74589 0.92975 0.0
C3465 C 0.64588 0.76411 0.90924 0.0
H3466 H 0.63522 0.70427 0.94277 0.0
C3467 C 0.67111 0.75949 0.89665 0.0
H3468 H 0.61693 0.74998 0.94148 0.0
C3469 C 0.68169 0.73369 0.89916 0.0
C3470 C 0.66381 0.71314 0.90874 0.0
H3471 H 0.68092 0.7744 0.88271 0.0
H3472 H 0.69889 0.72881 0.88588 0.0
C3473 C 0.64623 0.72007 0.93103 0.0
C3474 C 0.20199 0.47396 0.33583 0.0
C3475 C 0.19531 0.45656 0.35873 0.0
H3476 H 0.19199 0.50753 0.31066 0.0
C3477 C 0.17136 0.46077 0.37412 0.0
H3478 H 0.22043 0.47204 0.32356 0.0
C3479 C 0.15497 0.4825 0.36697 0.0
C3480 C 0.16224 0.49992 0.34413 0.0
H3481 H 0.1656 0.44775 0.39181 0.0
H3482 H 0.13716 0.48614 0.37977 0.0
C3483 C 0.18557 0.49474 0.32833 0.0
C3484 C 0.43427 0.35684 0.1777 0.0
C3485 C 0.45054 0.37852 0.16625 0.0
H3486 H 0.42491 0.31348 0.17983 0.0
C3487 C 0.46957 0.37011 0.14516 0.0
H3488 H 0.41977 0.36122 0.19434 0.0
C3489 C 0.47244 0.3423 0.13642 0.0
C3490 C 0.45699 0.32047 0.14863 0.0
H3491 H 0.48314 0.38525 0.13564 0.0
H3492 H 0.48753 0.3379 0.1204 0.0
C3493 C 0.4375 0.32886 0.1693 0.0
C3494 C 0.90223 0.5771 0.67892 0.0
C3495 C 0.89509 0.59346 0.70242 0.0
H3496 H 0.91335 0.53719 0.66332 0.0
C3497 C 0.89789 0.58092 0.72891 0.0
H3498 H 0.89969 0.58505 0.65801 0.0
C3499 C 0.90615 0.55361 0.73196 0.0
C3500 C 0.91221 0.53668 0.70876 0.0
H3501 H 0.8923 0.59196 0.74774 0.0
H3502 H 0.90601 0.54501 0.75291 0.0
C3503 C 0.91037 0.54933 0.68201 0.0
loop_
_geom_bond_atom_site_label_1
_geom_bond_atom_site_label_2
_geom_bond_distance
_geom_bond_site_symmetry_2
_ccdc_geom_bond_type
Co0 O3 2.042 . S
Co0 O10 2.264 . S
Co0 O29 2.286 . S
Co0 O30 2.069 . S
Co0 O32 2.015 . S
Co1 O3 2.122 . S
Co1 O9 2.073 . S
Co1 O10 2.327 . S
Co1 O11 1.976 . S
Co2 O3 2.087 . S
Co2 O5 2.087 . S
Co2 O12 2.111 . S
Co2 O13 2.143 . S
Co2 O17 2.111 . S
Co2 O31 2.143 . S
O3 Co0 2.042 . S
O3 Co1 2.122 . S
O3 Co2 2.087 . S
O3 H4 0.980 . S
H4 O3 0.980 . S
O5 Co2 2.087 . S
O5 Co6 2.042 . S
O5 Co7 2.122 . S
O5 H8 0.980 . S
Co6 O5 2.042 . S
Co6 O14 2.286 . S
Co6 O15 2.069 . S
Co6 O16 2.015 . S
Co6 O19 2.264 . S
Co7 O5 2.122 . S
Co7 O18 1.976 . S
Co7 O19 2.327 . S
Co7 O20 2.073 . S
H8 O5 0.980 . S
O9 Co1 2.073 . S
O9 C24 1.245 . S
O10 Co0 2.264 . S
O10 Co1 2.327 . S
O10 C24 1.257 . S
O11 Co1 1.976 . S
O11 C23 1.251 . S
O12 Co2 2.111 . S
O12 C23 1.274 . S
O13 Co2 2.143 . S
O13 C26 1.246 . S
O14 Co6 2.286 . S
O14 C25 1.259 . S
O15 Co6 2.069 . S
O15 C25 1.289 . S
O16 Co6 2.015 . S
O16 C26 1.257 . S
O17 Co2 2.111 . S
O17 C27 1.274 . S
O18 Co7 1.976 . S
O18 C27 1.251 . S
O19 Co6 2.264 . S
O19 Co7 2.327 . S
O19 C28 1.257 . S
O20 Co7 2.073 . S
O20 C28 1.245 . S
C21 O29 1.259 . S
C21 O30 1.289 . S
C22 O31 1.246 . S
C22 O32 1.257 . S
C23 O11 1.251 . S
C23 O12 1.274 . S
C24 O9 1.245 . S
C24 O10 1.257 . S
C25 O14 1.259 . S
C25 O15 1.289 . S
C26 O13 1.246 . S
C26 O16 1.257 . S
C27 O17 1.274 . S
C27 O18 1.251 . S
C28 O19 1.257 . S
C28 O20 1.245 . S
O29 Co0 2.286 . S
O29 C21 1.259 . S
O30 Co0 2.069 . S
O30 C21 1.289 . S
O31 Co2 2.143 . S
O31 C22 1.246 . S
O32 Co0 2.015 . S
O32 C22 1.257 . S
Co33 O36 2.042 . S
Co33 O43 2.264 . S
Co33 O62 2.286 . S
Co33 O63 2.069 . S
Co33 O65 2.015 . S
Co34 O36 2.122 . S
Co34 O42 2.073 . S
Co34 O43 2.327 . S
Co34 O44 1.976 . S
Co35 O36 2.087 . S
Co35 O38 2.087 . S
Co35 O45 2.111 . S
Co35 O46 2.143 . S
Co35 O50 2.111 . S
Co35 O64 2.143 . S
O36 Co33 2.042 . S
O36 Co34 2.122 . S
O36 Co35 2.087 . S
O36 H37 0.980 . S
H37 O36 0.980 . S
O38 Co35 2.087 . S
O38 Co39 2.042 . S
O38 Co40 2.122 . S
O38 H41 0.980 . S
Co39 O38 2.042 . S
Co39 O47 2.286 . S
Co39 O48 2.069 . S
Co39 O49 2.015 . S
Co39 O52 2.264 . S
Co40 O38 2.122 . S
Co40 O51 1.976 . S
Co40 O52 2.327 . S
Co40 O53 2.073 . S
H41 O38 0.980 . S
O42 Co34 2.073 . S
O42 C57 1.245 . S
O43 Co33 2.264 . S
O43 Co34 2.327 . S
O43 C57 1.257 . S
O44 Co34 1.976 . S
O44 C56 1.251 . S
O45 Co35 2.111 . S
O45 C56 1.274 . S
O46 Co35 2.143 . S
O46 C59 1.246 . S
O47 Co39 2.286 . S
O47 C58 1.259 . S
O48 Co39 2.069 . S
O48 C58 1.289 . S
O49 Co39 2.015 . S
O49 C59 1.257 . S
O50 Co35 2.111 . S
O50 C60 1.274 . S
O51 Co40 1.976 . S
O51 C60 1.251 . S
O52 Co39 2.264 . S
O52 Co40 2.327 . S
O52 C61 1.257 . S
O53 Co40 2.073 . S
O53 C61 1.245 . S
C54 O62 1.259 . S
C54 O63 1.289 . S
C55 O64 1.246 . S
C55 O65 1.257 . S
C56 O44 1.251 . S
C56 O45 1.274 . S
C57 O42 1.245 . S
C57 O43 1.257 . S
C58 O47 1.259 . S
C58 O48 1.289 . S
C59 O46 1.246 . S
C59 O49 1.257 . S
C60 O50 1.274 . S
C60 O51 1.251 . S
C61 O52 1.257 . S
C61 O53 1.245 . S
O62 Co33 2.286 . S
O62 C54 1.259 . S
O63 Co33 2.069 . S
O63 C54 1.289 . S
O64 Co35 2.143 . S
O64 C55 1.246 . S
O65 Co33 2.015 . S
O65 C55 1.257 . S
Co66 O69 2.042 . S
Co66 O76 2.264 . S
Co66 O95 2.286 . S
Co66 O96 2.069 . S
Co66 O98 2.015 . S
Co67 O69 2.122 . S
Co67 O75 2.073 . S
Co67 O76 2.327 . S
Co67 O77 1.976 . S
Co68 O69 2.087 . S
Co68 O71 2.087 . S
Co68 O78 2.111 . S
Co68 O79 2.143 . S
Co68 O83 2.111 . S
Co68 O97 2.143 . S
O69 Co66 2.042 . S
O69 Co67 2.122 . S
O69 Co68 2.087 . S
O69 H70 0.980 . S
H70 O69 0.980 . S
O71 Co68 2.087 . S
O71 Co72 2.042 . S
O71 Co73 2.122 . S
O71 H74 0.980 . S
Co72 O71 2.042 . S
Co72 O80 2.286 . S
Co72 O81 2.069 . S
Co72 O82 2.015 . S
Co72 O85 2.264 . S
Co73 O71 2.122 . S
Co73 O84 1.976 . S
Co73 O85 2.327 . S
Co73 O86 2.073 . S
H74 O71 0.980 . S
O75 Co67 2.073 . S
O75 C90 1.245 . S
O76 Co66 2.264 . S
O76 Co67 2.327 . S
O76 C90 1.257 . S
O77 Co67 1.976 . S
O77 C89 1.251 . S
O78 Co68 2.111 . S
O78 C89 1.274 . S
O79 Co68 2.143 . S
O79 C92 1.246 . S
O80 Co72 2.286 . S
O80 C91 1.259 . S
O81 Co72 2.069 . S
O81 C91 1.289 . S
O82 Co72 2.015 . S
O82 C92 1.257 . S
O83 Co68 2.111 . S
O83 C93 1.274 . S
O84 Co73 1.976 . S
O84 C93 1.251 . S
O85 Co72 2.264 . S
O85 Co73 2.327 . S
O85 C94 1.257 . S
O86 Co73 2.073 . S
O86 C94 1.245 . S
C87 O95 1.259 . S
C87 O96 1.289 . S
C88 O97 1.246 . S
C88 O98 1.257 . S
C89 O77 1.251 . S
C89 O78 1.274 . S
C90 O75 1.245 . S
C90 O76 1.257 . S
C91 O80 1.259 . S
C91 O81 1.289 . S
C92 O79 1.246 . S
C92 O82 1.257 . S
C93 O83 1.274 . S
C93 O84 1.251 . S
C94 O85 1.257 . S
C94 O86 1.245 . S
O95 Co66 2.286 . S
O95 C87 1.259 . S
O96 Co66 2.069 . S
O96 C87 1.289 . S
O97 Co68 2.143 . S
O97 C88 1.246 . S
O98 Co66 2.015 . S
O98 C88 1.257 . S
Co99 O102 2.042 . S
Co99 O109 2.264 . S
Co99 O128 2.286 . S
Co99 O129 2.069 . S
Co99 O131 2.015 . S
Co100 O102 2.122 . S
Co100 O108 2.073 . S
Co100 O109 2.327 . S
Co100 O110 1.976 . S
Co101 O102 2.087 . S
Co101 O104 2.087 . S
Co101 O111 2.111 . S
Co101 O112 2.143 . S
Co101 O116 2.111 . S
Co101 O130 2.143 . S
O102 Co99 2.042 . S
O102 Co100 2.122 . S
O102 Co101 2.087 . S
O102 H103 0.980 . S
H103 O102 0.980 . S
O104 Co101 2.087 . S
O104 Co105 2.042 . S
O104 Co106 2.122 . S
O104 H107 0.980 . S
Co105 O104 2.042 . S
Co105 O113 2.286 . S
Co105 O114 2.069 . S
Co105 O115 2.015 . S
Co105 O118 2.264 . S
Co106 O104 2.122 . S
Co106 O117 1.976 . S
Co106 O118 2.327 . S
Co106 O119 2.073 . S
H107 O104 0.980 . S
O108 Co100 2.073 . S
O108 C123 1.245 . S
O109 Co99 2.264 . S
O109 Co100 2.327 . S
O109 C123 1.257 . S
O110 Co100 1.976 . S
O110 C122 1.251 . S
O111 Co101 2.111 . S
O111 C122 1.274 . S
O112 Co101 2.143 . S
O112 C125 1.246 . S
O113 Co105 2.286 . S
O113 C124 1.259 . S
O114 Co105 2.069 . S
O114 C124 1.289 . S
O115 Co105 2.015 . S
O115 C125 1.257 . S
O116 Co101 2.111 . S
O116 C126 1.274 . S
O117 Co106 1.976 . S
O117 C126 1.251 . S
O118 Co105 2.264 . S
O118 Co106 2.327 . S
O118 C127 1.257 . S
O119 Co106 2.073 . S
O119 C127 1.245 . S
C120 O128 1.259 . S
C120 O129 1.289 . S
C121 O130 1.246 . S
C121 O131 1.257 . S
C122 O110 1.251 . S
C122 O111 1.274 . S
C123 O108 1.245 . S
C123 O109 1.257 . S
C124 O113 1.259 . S
C124 O114 1.289 . S
C125 O112 1.246 . S
C125 O115 1.257 . S
C126 O116 1.274 . S
C126 O117 1.251 . S
C127 O118 1.257 . S
C127 O119 1.245 . S
O128 Co99 2.286 . S
O128 C120 1.259 . S
O129 Co99 2.069 . S
O129 C120 1.289 . S
O130 Co101 2.143 . S
O130 C121 1.246 . S
O131 Co99 2.015 . S
O131 C121 1.257 . S
Co132 O135 2.042 . S
Co132 O142 2.264 . S
Co132 O161 2.286 . S
Co132 O162 2.069 . S
Co132 O164 2.015 . S
Co133 O135 2.122 . S
Co133 O141 2.073 . S
Co133 O142 2.327 . S
Co133 O143 1.976 . S
Co134 O135 2.087 . S
Co134 O137 2.087 . S
Co134 O144 2.111 . S
Co134 O145 2.143 . S
Co134 O149 2.111 . S
Co134 O163 2.143 . S
O135 Co132 2.042 . S
O135 Co133 2.122 . S
O135 Co134 2.087 . S
O135 H136 0.980 . S
H136 O135 0.980 . S
O137 Co134 2.087 . S
O137 Co138 2.042 . S
O137 Co139 2.122 . S
O137 H140 0.980 . S
Co138 O137 2.042 . S
Co138 O146 2.286 . S
Co138 O147 2.069 . S
Co138 O148 2.015 . S
Co138 O151 2.264 . S
Co139 O137 2.122 . S
Co139 O150 1.976 . S
Co139 O151 2.327 . S
Co139 O152 2.073 . S
H140 O137 0.980 . S
O141 Co133 2.073 . S
O141 C156 1.245 . S
O142 Co132 2.264 . S
O142 Co133 2.327 . S
O142 C156 1.257 . S
O143 Co133 1.976 . S
O143 C155 1.251 . S
O144 Co134 2.111 . S
O144 C155 1.274 . S
O145 Co134 2.143 . S
O145 C158 1.246 . S
O146 Co138 2.286 . S
O146 C157 1.259 1_545 S
O147 Co138 2.069 . S
O147 C157 1.289 1_545 S
O148 Co138 2.015 . S
O148 C158 1.257 . S
O149 Co134 2.111 . S
O149 C159 1.274 . S
O150 Co139 1.976 . S
O150 C159 1.251 . S
O151 Co138 2.264 . S
O151 Co139 2.327 . S
O151 C160 1.257 . S
O152 Co139 2.073 . S
O152 C160 1.245 . S
C153 O161 1.259 . S
C153 O162 1.289 . S
C154 O163 1.246 . S
C154 O164 1.257 . S
C155 O143 1.251 . S
C155 O144 1.274 . S
C156 O141 1.245 . S
C156 O142 1.257 . S
C157 O146 1.259 1_565 S
C157 O147 1.289 1_565 S
C158 O145 1.246 . S
C158 O148 1.257 . S
C159 O149 1.274 . S
C159 O150 1.251 . S
C160 O151 1.257 . S
C160 O152 1.245 . S
O161 Co132 2.286 . S
O161 C153 1.259 . S
O162 Co132 2.069 . S
O162 C153 1.289 . S
O163 Co134 2.143 . S
O163 C154 1.246 . S
O164 Co132 2.015 . S
O164 C154 1.257 . S
Co165 O168 2.042 . S
Co165 O175 2.264 . S
Co165 O194 2.286 . S
Co165 O195 2.069 . S
Co165 O197 2.015 . S
Co166 O168 2.122 . S
Co166 O174 2.073 . S
Co166 O175 2.327 . S
Co166 O176 1.976 . S
Co167 O168 2.087 . S
Co167 O170 2.087 . S
Co167 O177 2.111 . S
Co167 O178 2.143 . S
Co167 O182 2.111 . S
Co167 O196 2.143 . S
O168 Co165 2.042 . S
O168 Co166 2.122 . S
O168 Co167 2.087 . S
O168 H169 0.980 . S
H169 O168 0.980 . S
O170 Co167 2.087 . S
O170 Co171 2.042 . S
O170 Co172 2.122 . S
O170 H173 0.980 . S
Co171 O170 2.042 . S
Co171 O179 2.286 . S
Co171 O180 2.069 . S
Co171 O181 2.015 . S
Co171 O184 2.264 . S
Co172 O170 2.122 . S
Co172 O183 1.976 . S
Co172 O184 2.327 . S
Co172 O185 2.073 . S
H173 O170 0.980 . S
O174 Co166 2.073 . S
O174 C189 1.245 . S
O175 Co165 2.264 . S
O175 Co166 2.327 . S
O175 C189 1.257 . S
O176 Co166 1.976 . S
O176 C188 1.251 . S
O177 Co167 2.111 . S
O177 C188 1.274 . S
O178 Co167 2.143 . S
O178 C191 1.246 . S
O179 Co171 2.286 . S
O179 C190 1.259 . S
O180 Co171 2.069 . S
O180 C190 1.289 . S
O181 Co171 2.015 . S
O181 C191 1.257 . S
O182 Co167 2.111 . S
O182 C192 1.274 . S
O183 Co172 1.976 . S
O183 C192 1.251 . S
O184 Co171 2.264 . S
O184 Co172 2.327 . S
O184 C193 1.257 . S
O185 Co172 2.073 . S
O185 C193 1.245 . S
C186 O194 1.259 . S
C186 O195 1.289 . S
C187 O196 1.246 . S
C187 O197 1.257 . S
C188 O176 1.251 . S
C188 O177 1.274 . S
C189 O174 1.245 . S
C189 O175 1.257 . S
C190 O179 1.259 . S
C190 O180 1.289 . S
C191 O178 1.246 . S
C191 O181 1.257 . S
C192 O182 1.274 . S
C192 O183 1.251 . S
C193 O184 1.257 . S
C193 O185 1.245 . S
O194 Co165 2.286 . S
O194 C186 1.259 . S
O195 Co165 2.069 . S
O195 C186 1.289 . S
O196 Co167 2.143 . S
O196 C187 1.246 . S
O197 Co165 2.015 . S
O197 C187 1.257 . S
Co198 O201 2.042 . S
Co198 O208 2.264 . S
Co198 O227 2.286 . S
Co198 O228 2.069 . S
Co198 O230 2.015 . S
Co199 O201 2.122 . S
Co199 O207 2.073 . S
Co199 O208 2.327 . S
Co199 O209 1.976 . S
Co200 O201 2.087 . S
Co200 O203 2.087 . S
Co200 O210 2.111 . S
Co200 O211 2.143 . S
Co200 O215 2.111 . S
Co200 O229 2.143 . S
O201 Co198 2.042 . S
O201 Co199 2.122 . S
O201 Co200 2.087 . S
O201 H202 0.980 . S
H202 O201 0.980 . S
O203 Co200 2.087 . S
O203 Co204 2.042 . S
O203 Co205 2.122 . S
O203 H206 0.980 . S
Co204 O203 2.042 . S
Co204 O212 2.286 . S
Co204 O213 2.069 . S
Co204 O214 2.015 . S
Co204 O217 2.264 . S
Co205 O203 2.122 . S
Co205 O216 1.976 . S
Co205 O217 2.327 . S
Co205 O218 2.073 . S
H206 O203 0.980 . S
O207 Co199 2.073 . S
O207 C222 1.245 . S
O208 Co198 2.264 . S
O208 Co199 2.327 . S
O208 C222 1.257 . S
O209 Co199 1.976 . S
O209 C221 1.251 . S
O210 Co200 2.111 . S
O210 C221 1.274 . S
O211 Co200 2.143 . S
O211 C224 1.246 . S
O212 Co204 2.286 . S
O212 C223 1.259 1_545 S
O213 Co204 2.069 . S
O213 C223 1.289 1_545 S
O214 Co204 2.015 . S
O214 C224 1.257 . S
O215 Co200 2.111 . S
O215 C225 1.274 . S
O216 Co205 1.976 . S
O216 C225 1.251 . S
O217 Co204 2.264 . S
O217 Co205 2.327 . S
O217 C226 1.257 . S
O218 Co205 2.073 . S
O218 C226 1.245 . S
C219 O227 1.259 . S
C219 O228 1.289 . S
C220 O229 1.246 . S
C220 O230 1.257 . S
C221 O209 1.251 . S
C221 O210 1.274 . S
C222 O207 1.245 . S
C222 O208 1.257 . S
C223 O212 1.259 1_565 S
C223 O213 1.289 1_565 S
C224 O211 1.246 . S
C224 O214 1.257 . S
C225 O215 1.274 . S
C225 O216 1.251 . S
C226 O217 1.257 . S
C226 O218 1.245 . S
O227 Co198 2.286 . S
O227 C219 1.259 . S
O228 Co198 2.069 . S
O228 C219 1.289 . S
O229 Co200 2.143 . S
O229 C220 1.246 . S
O230 Co198 2.015 . S
O230 C220 1.257 . S
Co231 O234 2.042 . S
Co231 O241 2.264 . S
Co231 O260 2.286 . S
Co231 O261 2.069 . S
Co231 O263 2.015 . S
Co232 O234 2.122 . S
Co232 O240 2.073 . S
Co232 O241 2.327 . S
Co232 O242 1.976 . S
Co233 O234 2.087 . S
Co233 O236 2.087 . S
Co233 O243 2.111 . S
Co233 O244 2.143 . S
Co233 O248 2.111 . S
Co233 O262 2.143 . S
O234 Co231 2.042 . S
O234 Co232 2.122 . S
O234 Co233 2.087 . S
O234 H235 0.980 . S
H235 O234 0.980 . S
O236 Co233 2.087 . S
O236 Co237 2.042 . S
O236 Co238 2.122 . S
O236 H239 0.980 . S
Co237 O236 2.042 . S
Co237 O245 2.286 . S
Co237 O246 2.069 . S
Co237 O247 2.015 . S
Co237 O250 2.264 . S
Co238 O236 2.122 . S
Co238 O249 1.976 . S
Co238 O250 2.327 . S
Co238 O251 2.073 . S
H239 O236 0.980 . S
O240 Co232 2.073 . S
O240 C255 1.245 . S
O241 Co231 2.264 . S
O241 Co232 2.327 . S
O241 C255 1.257 . S
O242 Co232 1.976 . S
O242 C254 1.251 . S
O243 Co233 2.111 . S
O243 C254 1.274 . S
O244 Co233 2.143 . S
O244 C257 1.246 . S
O245 Co237 2.286 . S
O245 C256 1.259 . S
O246 Co237 2.069 . S
O246 C256 1.289 . S
O247 Co237 2.015 . S
O247 C257 1.257 . S
O248 Co233 2.111 . S
O248 C258 1.274 . S
O249 Co238 1.976 . S
O249 C258 1.251 . S
O250 Co237 2.264 . S
O250 Co238 2.327 . S
O250 C259 1.257 . S
O251 Co238 2.073 . S
O251 C259 1.245 . S
C252 O260 1.259 . S
C252 O261 1.289 . S
C253 O262 1.246 . S
C253 O263 1.257 . S
C254 O242 1.251 . S
C254 O243 1.274 . S
C255 O240 1.245 . S
C255 O241 1.257 . S
C256 O245 1.259 . S
C256 O246 1.289 . S
C257 O244 1.246 . S
C257 O247 1.257 . S
C258 O248 1.274 . S
C258 O249 1.251 . S
C259 O250 1.257 . S
C259 O251 1.245 . S
O260 Co231 2.286 . S
O260 C252 1.259 . S
O261 Co231 2.069 . S
O261 C252 1.289 . S
O262 Co233 2.143 . S
O262 C253 1.246 . S
O263 Co231 2.015 . S
O263 C253 1.257 . S
Co264 O267 2.042 . S
Co264 O274 2.264 . S
Co264 O293 2.286 . S
Co264 O294 2.069 . S
Co264 O296 2.015 . S
Co265 O267 2.122 . S
Co265 O273 2.073 . S
Co265 O274 2.327 . S
Co265 O275 1.976 . S
Co266 O267 2.087 . S
Co266 O269 2.087 . S
Co266 O276 2.111 . S
Co266 O277 2.143 . S
Co266 O281 2.111 . S
Co266 O295 2.143 . S
O267 Co264 2.042 . S
O267 Co265 2.122 . S
O267 Co266 2.087 . S
O267 H268 0.980 . S
H268 O267 0.980 . S
O269 Co266 2.087 . S
O269 Co270 2.042 . S
O269 Co271 2.122 . S
O269 H272 0.980 . S
Co270 O269 2.042 . S
Co270 O278 2.286 . S
Co270 O279 2.069 . S
Co270 O280 2.015 . S
Co270 O283 2.264 . S
Co271 O269 2.122 . S
Co271 O282 1.976 . S
Co271 O283 2.327 . S
Co271 O284 2.073 . S
H272 O269 0.980 . S
O273 Co265 2.073 . S
O273 C288 1.245 . S
O274 Co264 2.264 . S
O274 Co265 2.327 . S
O274 C288 1.257 . S
O275 Co265 1.976 . S
O275 C287 1.251 . S
O276 Co266 2.111 . S
O276 C287 1.274 . S
O277 Co266 2.143 . S
O277 C290 1.246 . S
O278 Co270 2.286 . S
O278 C289 1.259 . S
O279 Co270 2.069 . S
O279 C289 1.289 . S
O280 Co270 2.015 . S
O280 C290 1.257 . S
O281 Co266 2.111 . S
O281 C291 1.274 . S
O282 Co271 1.976 . S
O282 C291 1.251 . S
O283 Co270 2.264 . S
O283 Co271 2.327 . S
O283 C292 1.257 . S
O284 Co271 2.073 . S
O284 C292 1.245 . S
C285 O293 1.259 . S
C285 O294 1.289 . S
C286 O295 1.246 . S
C286 O296 1.257 . S
C287 O275 1.251 . S
C287 O276 1.274 . S
C288 O273 1.245 . S
C288 O274 1.257 . S
C289 O278 1.259 . S
C289 O279 1.289 . S
C290 O277 1.246 . S
C290 O280 1.257 . S
C291 O281 1.274 . S
C291 O282 1.251 . S
C292 O283 1.257 . S
C292 O284 1.245 . S
O293 Co264 2.286 . S
O293 C285 1.259 . S
O294 Co264 2.069 . S
O294 C285 1.289 . S
O295 Co266 2.143 . S
O295 C286 1.246 . S
O296 Co264 2.015 . S
O296 C286 1.257 . S
Co297 O300 2.042 . S
Co297 O307 2.264 . S
Co297 O326 2.286 . S
Co297 O327 2.069 . S
Co297 O329 2.015 . S
Co298 O300 2.122 . S
Co298 O306 2.073 . S
Co298 O307 2.327 . S
Co298 O308 1.976 . S
Co299 O300 2.087 . S
Co299 O302 2.087 . S
Co299 O309 2.111 . S
Co299 O310 2.143 . S
Co299 O314 2.111 . S
Co299 O328 2.143 . S
O300 Co297 2.042 . S
O300 Co298 2.122 . S
O300 Co299 2.087 . S
O300 H301 0.980 . S
H301 O300 0.980 . S
O302 Co299 2.087 . S
O302 Co303 2.042 . S
O302 Co304 2.122 . S
O302 H305 0.980 . S
Co303 O302 2.042 . S
Co303 O311 2.286 . S
Co303 O312 2.069 . S
Co303 O313 2.015 . S
Co303 O316 2.264 . S
Co304 O302 2.122 . S
Co304 O315 1.976 . S
Co304 O316 2.327 . S
Co304 O317 2.073 . S
H305 O302 0.980 . S
O306 Co298 2.073 . S
O306 C321 1.245 . S
O307 Co297 2.264 . S
O307 Co298 2.327 . S
O307 C321 1.257 . S
O308 Co298 1.976 . S
O308 C320 1.251 . S
O309 Co299 2.111 . S
O309 C320 1.274 . S
O310 Co299 2.143 . S
O310 C323 1.246 . S
O311 Co303 2.286 . S
O311 C322 1.259 . S
O312 Co303 2.069 . S
O312 C322 1.289 . S
O313 Co303 2.015 . S
O313 C323 1.257 . S
O314 Co299 2.111 . S
O314 C324 1.274 . S
O315 Co304 1.976 . S
O315 C324 1.251 . S
O316 Co303 2.264 . S
O316 Co304 2.327 . S
O316 C325 1.257 . S
O317 Co304 2.073 . S
O317 C325 1.245 . S
C318 O326 1.259 . S
C318 O327 1.289 . S
C319 O328 1.246 . S
C319 O329 1.257 . S
C320 O308 1.251 . S
C320 O309 1.274 . S
C321 O306 1.245 . S
C321 O307 1.257 . S
C322 O311 1.259 . S
C322 O312 1.289 . S
C323 O310 1.246 . S
C323 O313 1.257 . S
C324 O314 1.274 . S
C324 O315 1.251 . S
C325 O316 1.257 . S
C325 O317 1.245 . S
O326 Co297 2.286 . S
O326 C318 1.259 . S
O327 Co297 2.069 . S
O327 C318 1.289 . S
O328 Co299 2.143 . S
O328 C319 1.246 . S
O329 Co297 2.015 . S
O329 C319 1.257 . S
Co330 O333 2.042 . S
Co330 O340 2.264 . S
Co330 O359 2.286 . S
Co330 O360 2.069 . S
Co330 O362 2.015 . S
Co331 O333 2.122 . S
Co331 O339 2.073 . S
Co331 O340 2.327 . S
Co331 O341 1.976 . S
Co332 O333 2.087 . S
Co332 O335 2.087 . S
Co332 O342 2.111 . S
Co332 O343 2.143 . S
Co332 O347 2.111 . S
Co332 O361 2.143 . S
O333 Co330 2.042 . S
O333 Co331 2.122 . S
O333 Co332 2.087 . S
O333 H334 0.980 . S
H334 O333 0.980 . S
O335 Co332 2.087 . S
O335 Co336 2.042 . S
O335 Co337 2.122 . S
O335 H338 0.980 . S
Co336 O335 2.042 . S
Co336 O344 2.286 . S
Co336 O345 2.069 . S
Co336 O346 2.015 . S
Co336 O349 2.264 . S
Co337 O335 2.122 . S
Co337 O348 1.976 . S
Co337 O349 2.327 . S
Co337 O350 2.073 . S
H338 O335 0.980 . S
O339 Co331 2.073 . S
O339 C354 1.245 . S
O340 Co330 2.264 . S
O340 Co331 2.327 . S
O340 C354 1.257 . S
O341 Co331 1.976 . S
O341 C353 1.251 . S
O342 Co332 2.111 . S
O342 C353 1.274 . S
O343 Co332 2.143 . S
O343 C356 1.246 . S
O344 Co336 2.286 . S
O344 C355 1.259 . S
O345 Co336 2.069 . S
O345 C355 1.289 . S
O346 Co336 2.015 . S
O346 C356 1.257 . S
O347 Co332 2.111 . S
O347 C357 1.274 . S
O348 Co337 1.976 . S
O348 C357 1.251 . S
O349 Co336 2.264 . S
O349 Co337 2.327 . S
O349 C358 1.257 . S
O350 Co337 2.073 . S
O350 C358 1.245 . S
C351 O359 1.259 . S
C351 O360 1.289 . S
C352 O361 1.246 . S
C352 O362 1.257 . S
C353 O341 1.251 . S
C353 O342 1.274 . S
C354 O339 1.245 . S
C354 O340 1.257 . S
C355 O344 1.259 . S
C355 O345 1.289 . S
C356 O343 1.246 . S
C356 O346 1.257 . S
C357 O347 1.274 . S
C357 O348 1.251 . S
C358 O349 1.257 . S
C358 O350 1.245 . S
O359 Co330 2.286 . S
O359 C351 1.259 . S
O360 Co330 2.069 . S
O360 C351 1.289 . S
O361 Co332 2.143 . S
O361 C352 1.246 . S
O362 Co330 2.015 . S
O362 C352 1.257 . S
Co363 O366 2.042 . S
Co363 O373 2.264 . S
Co363 O392 2.286 . S
Co363 O393 2.069 . S
Co363 O395 2.015 . S
Co364 O366 2.122 . S
Co364 O372 2.073 . S
Co364 O373 2.327 . S
Co364 O374 1.976 . S
Co365 O366 2.087 . S
Co365 O368 2.087 . S
Co365 O375 2.111 . S
Co365 O376 2.143 . S
Co365 O380 2.111 . S
Co365 O394 2.143 . S
O366 Co363 2.042 . S
O366 Co364 2.122 . S
O366 Co365 2.087 . S
O366 H367 0.980 . S
H367 O366 0.980 . S
O368 Co365 2.087 . S
O368 Co369 2.042 . S
O368 Co370 2.122 . S
O368 H371 0.980 . S
Co369 O368 2.042 . S
Co369 O377 2.286 . S
Co369 O378 2.069 . S
Co369 O379 2.015 . S
Co369 O382 2.264 . S
Co370 O368 2.122 . S
Co370 O381 1.976 . S
Co370 O382 2.327 . S
Co370 O383 2.073 . S
H371 O368 0.980 . S
O372 Co364 2.073 . S
O372 C387 1.245 . S
O373 Co363 2.264 . S
O373 Co364 2.327 . S
O373 C387 1.257 . S
O374 Co364 1.976 . S
O374 C386 1.251 . S
O375 Co365 2.111 . S
O375 C386 1.274 . S
O376 Co365 2.143 . S
O376 C389 1.246 . S
O377 Co369 2.286 . S
O377 C388 1.259 . S
O378 Co369 2.069 . S
O378 C388 1.289 . S
O379 Co369 2.015 . S
O379 C389 1.257 . S
O380 Co365 2.111 . S
O380 C390 1.274 . S
O381 Co370 1.976 . S
O381 C390 1.251 . S
O382 Co369 2.264 . S
O382 Co370 2.327 . S
O382 C391 1.257 . S
O383 Co370 2.073 . S
O383 C391 1.245 . S
C384 O392 1.259 . S
C384 O393 1.289 . S
C385 O394 1.246 . S
C385 O395 1.257 . S
C386 O374 1.251 . S
C386 O375 1.274 . S
C387 O372 1.245 . S
C387 O373 1.257 . S
C388 O377 1.259 . S
C388 O378 1.289 . S
C389 O376 1.246 . S
C389 O379 1.257 . S
C390 O380 1.274 . S
C390 O381 1.251 . S
C391 O382 1.257 . S
C391 O383 1.245 . S
O392 Co363 2.286 . S
O392 C384 1.259 . S
O393 Co363 2.069 . S
O393 C384 1.289 . S
O394 Co365 2.143 . S
O394 C385 1.246 . S
O395 Co363 2.015 . S
O395 C385 1.257 . S
Co396 O399 2.042 . S
Co396 O406 2.264 . S
Co396 O425 2.286 . S
Co396 O426 2.069 . S
Co396 O428 2.015 . S
Co397 O399 2.122 . S
Co397 O405 2.073 . S
Co397 O406 2.327 . S
Co397 O407 1.976 . S
Co398 O399 2.087 . S
Co398 O401 2.087 . S
Co398 O408 2.111 . S
Co398 O409 2.143 . S
Co398 O413 2.111 . S
Co398 O427 2.143 . S
O399 Co396 2.042 . S
O399 Co397 2.122 . S
O399 Co398 2.087 . S
O399 H400 0.980 . S
H400 O399 0.980 . S
O401 Co398 2.087 . S
O401 Co402 2.042 . S
O401 Co403 2.122 . S
O401 H404 0.980 . S
Co402 O401 2.042 . S
Co402 O410 2.286 . S
Co402 O411 2.069 . S
Co402 O412 2.015 . S
Co402 O415 2.264 . S
Co403 O401 2.122 . S
Co403 O414 1.976 . S
Co403 O415 2.327 . S
Co403 O416 2.073 . S
H404 O401 0.980 . S
O405 Co397 2.073 . S
O405 C420 1.245 . S
O406 Co396 2.264 . S
O406 Co397 2.327 . S
O406 C420 1.257 . S
O407 Co397 1.976 . S
O407 C419 1.251 . S
O408 Co398 2.111 . S
O408 C419 1.274 . S
O409 Co398 2.143 . S
O409 C422 1.246 . S
O410 Co402 2.286 . S
O410 C421 1.259 . S
O411 Co402 2.069 . S
O411 C421 1.289 . S
O412 Co402 2.015 . S
O412 C422 1.257 . S
O413 Co398 2.111 . S
O413 C423 1.274 . S
O414 Co403 1.976 . S
O414 C423 1.251 . S
O415 Co402 2.264 . S
O415 Co403 2.327 . S
O415 C424 1.257 . S
O416 Co403 2.073 . S
O416 C424 1.245 . S
C417 O425 1.259 . S
C417 O426 1.289 . S
C418 O427 1.246 . S
C418 O428 1.257 . S
C419 O407 1.251 . S
C419 O408 1.274 . S
C420 O405 1.245 . S
C420 O406 1.257 . S
C421 O410 1.259 . S
C421 O411 1.289 . S
C422 O409 1.246 . S
C422 O412 1.257 . S
C423 O413 1.274 . S
C423 O414 1.251 . S
C424 O415 1.257 . S
C424 O416 1.245 . S
O425 Co396 2.286 . S
O425 C417 1.259 . S
O426 Co396 2.069 . S
O426 C417 1.289 . S
O427 Co398 2.143 . S
O427 C418 1.246 . S
O428 Co396 2.015 . S
O428 C418 1.257 . S
Co429 O432 2.042 . S
Co429 O439 2.264 . S
Co429 O458 2.286 . S
Co429 O459 2.069 . S
Co429 O461 2.015 . S
Co430 O432 2.122 . S
Co430 O438 2.073 . S
Co430 O439 2.327 . S
Co430 O440 1.976 . S
Co431 O432 2.087 . S
Co431 O434 2.087 . S
Co431 O441 2.111 . S
Co431 O442 2.143 . S
Co431 O446 2.111 . S
Co431 O460 2.143 . S
O432 Co429 2.042 . S
O432 Co430 2.122 . S
O432 Co431 2.087 . S
O432 H433 0.980 . S
H433 O432 0.980 . S
O434 Co431 2.087 . S
O434 Co435 2.042 . S
O434 Co436 2.122 . S
O434 H437 0.980 . S
Co435 O434 2.042 . S
Co435 O443 2.286 . S
Co435 O444 2.069 . S
Co435 O445 2.015 . S
Co435 O448 2.264 . S
Co436 O434 2.122 . S
Co436 O447 1.976 . S
Co436 O448 2.327 . S
Co436 O449 2.073 . S
H437 O434 0.980 . S
O438 Co430 2.073 . S
O438 C453 1.245 . S
O439 Co429 2.264 . S
O439 Co430 2.327 . S
O439 C453 1.257 . S
O440 Co430 1.976 . S
O440 C452 1.251 . S
O441 Co431 2.111 . S
O441 C452 1.274 . S
O442 Co431 2.143 . S
O442 C455 1.246 . S
O443 Co435 2.286 . S
O443 C454 1.259 . S
O444 Co435 2.069 . S
O444 C454 1.289 . S
O445 Co435 2.015 . S
O445 C455 1.257 . S
O446 Co431 2.111 . S
O446 C456 1.274 . S
O447 Co436 1.976 . S
O447 C456 1.251 . S
O448 Co435 2.264 . S
O448 Co436 2.327 . S
O448 C457 1.257 . S
O449 Co436 2.073 . S
O449 C457 1.245 . S
C450 O458 1.259 . S
C450 O459 1.289 . S
C451 O460 1.246 . S
C451 O461 1.257 . S
C452 O440 1.251 . S
C452 O441 1.274 . S
C453 O438 1.245 . S
C453 O439 1.257 . S
C454 O443 1.259 . S
C454 O444 1.289 . S
C455 O442 1.246 . S
C455 O445 1.257 . S
C456 O446 1.274 . S
C456 O447 1.251 . S
C457 O448 1.257 . S
C457 O449 1.245 . S
O458 Co429 2.286 . S
O458 C450 1.259 . S
O459 Co429 2.069 . S
O459 C450 1.289 . S
O460 Co431 2.143 . S
O460 C451 1.246 . S
O461 Co429 2.015 . S
O461 C451 1.257 . S
Co462 O465 2.042 . S
Co462 O472 2.264 . S
Co462 O491 2.286 . S
Co462 O492 2.069 . S
Co462 O494 2.015 . S
Co463 O465 2.122 . S
Co463 O471 2.073 . S
Co463 O472 2.327 . S
Co463 O473 1.976 . S
Co464 O465 2.087 . S
Co464 O467 2.087 . S
Co464 O474 2.111 . S
Co464 O475 2.143 . S
Co464 O479 2.111 . S
Co464 O493 2.143 . S
O465 Co462 2.042 . S
O465 Co463 2.122 . S
O465 Co464 2.087 . S
O465 H466 0.980 . S
H466 O465 0.980 . S
O467 Co464 2.087 . S
O467 Co468 2.042 . S
O467 Co469 2.122 . S
O467 H470 0.980 . S
Co468 O467 2.042 . S
Co468 O476 2.286 . S
Co468 O477 2.069 . S
Co468 O478 2.015 . S
Co468 O481 2.264 . S
Co469 O467 2.122 . S
Co469 O480 1.976 . S
Co469 O481 2.327 . S
Co469 O482 2.073 . S
H470 O467 0.980 . S
O471 Co463 2.073 . S
O471 C486 1.245 . S
O472 Co462 2.264 . S
O472 Co463 2.327 . S
O472 C486 1.257 . S
O473 Co463 1.976 . S
O473 C485 1.251 . S
O474 Co464 2.111 . S
O474 C485 1.274 . S
O475 Co464 2.143 . S
O475 C488 1.246 . S
O476 Co468 2.286 . S
O476 C487 1.259 . S
O477 Co468 2.069 . S
O477 C487 1.289 . S
O478 Co468 2.015 . S
O478 C488 1.257 . S
O479 Co464 2.111 . S
O479 C489 1.274 . S
O480 Co469 1.976 . S
O480 C489 1.251 . S
O481 Co468 2.264 . S
O481 Co469 2.327 . S
O481 C490 1.257 . S
O482 Co469 2.073 . S
O482 C490 1.245 . S
C483 O491 1.259 . S
C483 O492 1.289 . S
C484 O493 1.246 . S
C484 O494 1.257 . S
C485 O473 1.251 . S
C485 O474 1.274 . S
C486 O471 1.245 . S
C486 O472 1.257 . S
C487 O476 1.259 . S
C487 O477 1.289 . S
C488 O475 1.246 . S
C488 O478 1.257 . S
C489 O479 1.274 . S
C489 O480 1.251 . S
C490 O481 1.257 . S
C490 O482 1.245 . S
O491 Co462 2.286 . S
O491 C483 1.259 . S
O492 Co462 2.069 . S
O492 C483 1.289 . S
O493 Co464 2.143 . S
O493 C484 1.246 . S
O494 Co462 2.015 . S
O494 C484 1.257 . S
Co495 O498 2.042 . S
Co495 O505 2.264 . S
Co495 O524 2.286 . S
Co495 O525 2.069 . S
Co495 O527 2.015 . S
Co496 O498 2.122 . S
Co496 O504 2.073 . S
Co496 O505 2.327 . S
Co496 O506 1.976 . S
Co497 O498 2.087 . S
Co497 O500 2.087 . S
Co497 O507 2.111 . S
Co497 O508 2.143 . S
Co497 O512 2.111 . S
Co497 O526 2.143 . S
O498 Co495 2.042 . S
O498 Co496 2.122 . S
O498 Co497 2.087 . S
O498 H499 0.980 . S
H499 O498 0.980 . S
O500 Co497 2.087 . S
O500 Co501 2.042 . S
O500 Co502 2.122 . S
O500 H503 0.980 . S
Co501 O500 2.042 . S
Co501 O509 2.286 . S
Co501 O510 2.069 . S
Co501 O511 2.015 . S
Co501 O514 2.264 . S
Co502 O500 2.122 . S
Co502 O513 1.976 . S
Co502 O514 2.327 . S
Co502 O515 2.073 . S
H503 O500 0.980 . S
O504 Co496 2.073 . S
O504 C519 1.245 . S
O505 Co495 2.264 . S
O505 Co496 2.327 . S
O505 C519 1.257 . S
O506 Co496 1.976 . S
O506 C518 1.251 . S
O507 Co497 2.111 . S
O507 C518 1.274 . S
O508 Co497 2.143 . S
O508 C521 1.246 . S
O509 Co501 2.286 . S
O509 C520 1.259 . S
O510 Co501 2.069 . S
O510 C520 1.289 . S
O511 Co501 2.015 . S
O511 C521 1.257 . S
O512 Co497 2.111 . S
O512 C522 1.274 . S
O513 Co502 1.976 . S
O513 C522 1.251 . S
O514 Co501 2.264 . S
O514 Co502 2.327 . S
O514 C523 1.257 . S
O515 Co502 2.073 . S
O515 C523 1.245 . S
C516 O524 1.259 . S
C516 O525 1.289 . S
C517 O526 1.246 . S
C517 O527 1.257 . S
C518 O506 1.251 . S
C518 O507 1.274 . S
C519 O504 1.245 . S
C519 O505 1.257 . S
C520 O509 1.259 . S
C520 O510 1.289 . S
C521 O508 1.246 . S
C521 O511 1.257 . S
C522 O512 1.274 . S
C522 O513 1.251 . S
C523 O514 1.257 . S
C523 O515 1.245 . S
O524 Co495 2.286 . S
O524 C516 1.259 . S
O525 Co495 2.069 . S
O525 C516 1.289 . S
O526 Co497 2.143 . S
O526 C517 1.246 . S
O527 Co495 2.015 . S
O527 C517 1.257 . S
Co528 O531 2.042 . S
Co528 O538 2.264 . S
Co528 O557 2.286 . S
Co528 O558 2.069 . S
Co528 O560 2.015 . S
Co529 O531 2.122 . S
Co529 O537 2.073 . S
Co529 O538 2.327 . S
Co529 O539 1.976 . S
Co530 O531 2.087 . S
Co530 O533 2.087 . S
Co530 O540 2.111 . S
Co530 O541 2.143 . S
Co530 O545 2.111 . S
Co530 O559 2.143 . S
O531 Co528 2.042 . S
O531 Co529 2.122 . S
O531 Co530 2.087 . S
O531 H532 0.980 . S
H532 O531 0.980 . S
O533 Co530 2.087 . S
O533 Co534 2.042 . S
O533 Co535 2.122 . S
O533 H536 0.980 . S
Co534 O533 2.042 . S
Co534 O542 2.286 . S
Co534 O543 2.069 . S
Co534 O544 2.015 . S
Co534 O547 2.264 . S
Co535 O533 2.122 . S
Co535 O546 1.976 . S
Co535 O547 2.327 . S
Co535 O548 2.073 . S
H536 O533 0.980 . S
O537 Co529 2.073 . S
O537 C552 1.245 . S
O538 Co528 2.264 . S
O538 Co529 2.327 . S
O538 C552 1.257 . S
O539 Co529 1.976 . S
O539 C551 1.251 . S
O540 Co530 2.111 . S
O540 C551 1.274 . S
O541 Co530 2.143 . S
O541 C554 1.246 . S
O542 Co534 2.286 . S
O542 C553 1.259 . S
O543 Co534 2.069 . S
O543 C553 1.289 . S
O544 Co534 2.015 . S
O544 C554 1.257 . S
O545 Co530 2.111 . S
O545 C555 1.274 . S
O546 Co535 1.976 . S
O546 C555 1.251 . S
O547 Co534 2.264 . S
O547 Co535 2.327 . S
O547 C556 1.257 . S
O548 Co535 2.073 . S
O548 C556 1.245 . S
C549 O557 1.259 . S
C549 O558 1.289 . S
C550 O559 1.246 . S
C550 O560 1.257 . S
C551 O539 1.251 . S
C551 O540 1.274 . S
C552 O537 1.245 . S
C552 O538 1.257 . S
C553 O542 1.259 . S
C553 O543 1.289 . S
C554 O541 1.246 . S
C554 O544 1.257 . S
C555 O545 1.274 . S
C555 O546 1.251 . S
C556 O547 1.257 . S
C556 O548 1.245 . S
O557 Co528 2.286 . S
O557 C549 1.259 . S
O558 Co528 2.069 . S
O558 C549 1.289 . S
O559 Co530 2.143 . S
O559 C550 1.246 . S
O560 Co528 2.015 . S
O560 C550 1.257 . S
Co561 O564 2.042 . S
Co561 O571 2.264 . S
Co561 O590 2.286 . S
Co561 O591 2.069 . S
Co561 O593 2.015 . S
Co562 O564 2.122 . S
Co562 O570 2.073 . S
Co562 O571 2.327 . S
Co562 O572 1.976 . S
Co563 O564 2.087 . S
Co563 O566 2.087 . S
Co563 O573 2.111 . S
Co563 O574 2.143 . S
Co563 O578 2.111 . S
Co563 O592 2.143 . S
O564 Co561 2.042 . S
O564 Co562 2.122 . S
O564 Co563 2.087 . S
O564 H565 0.980 . S
H565 O564 0.980 . S
O566 Co563 2.087 . S
O566 Co567 2.042 . S
O566 Co568 2.122 . S
O566 H569 0.980 . S
Co567 O566 2.042 . S
Co567 O575 2.286 . S
Co567 O576 2.069 . S
Co567 O577 2.015 . S
Co567 O580 2.264 . S
Co568 O566 2.122 . S
Co568 O579 1.976 . S
Co568 O580 2.327 . S
Co568 O581 2.073 . S
H569 O566 0.980 . S
O570 Co562 2.073 . S
O570 C585 1.245 . S
O571 Co561 2.264 . S
O571 Co562 2.327 . S
O571 C585 1.257 . S
O572 Co562 1.976 . S
O572 C584 1.251 . S
O573 Co563 2.111 . S
O573 C584 1.274 . S
O574 Co563 2.143 . S
O574 C587 1.246 . S
O575 Co567 2.286 . S
O575 C586 1.259 . S
O576 Co567 2.069 . S
O576 C586 1.289 . S
O577 Co567 2.015 . S
O577 C587 1.257 . S
O578 Co563 2.111 . S
O578 C588 1.274 . S
O579 Co568 1.976 . S
O579 C588 1.251 . S
O580 Co567 2.264 . S
O580 Co568 2.327 . S
O580 C589 1.257 . S
O581 Co568 2.073 . S
O581 C589 1.245 . S
C582 O590 1.259 . S
C582 O591 1.289 . S
C583 O592 1.246 . S
C583 O593 1.257 . S
C584 O572 1.251 . S
C584 O573 1.274 . S
C585 O570 1.245 . S
C585 O571 1.257 . S
C586 O575 1.259 . S
C586 O576 1.289 . S
C587 O574 1.246 . S
C587 O577 1.257 . S
C588 O578 1.274 . S
C588 O579 1.251 . S
C589 O580 1.257 . S
C589 O581 1.245 . S
O590 Co561 2.286 . S
O590 C582 1.259 . S
O591 Co561 2.069 . S
O591 C582 1.289 . S
O592 Co563 2.143 . S
O592 C583 1.246 . S
O593 Co561 2.015 . S
O593 C583 1.257 . S
Co594 O597 2.042 . S
Co594 O604 2.264 . S
Co594 O623 2.286 . S
Co594 O624 2.069 . S
Co594 O626 2.015 . S
Co595 O597 2.122 . S
Co595 O603 2.073 . S
Co595 O604 2.327 . S
Co595 O605 1.976 . S
Co596 O597 2.087 . S
Co596 O599 2.087 . S
Co596 O606 2.111 . S
Co596 O607 2.143 . S
Co596 O611 2.111 . S
Co596 O625 2.143 . S
O597 Co594 2.042 . S
O597 Co595 2.122 . S
O597 Co596 2.087 . S
O597 H598 0.980 . S
H598 O597 0.980 . S
O599 Co596 2.087 . S
O599 Co600 2.042 . S
O599 Co601 2.122 . S
O599 H602 0.980 . S
Co600 O599 2.042 . S
Co600 O608 2.286 . S
Co600 O609 2.069 . S
Co600 O610 2.015 . S
Co600 O613 2.264 . S
Co601 O599 2.122 . S
Co601 O612 1.976 . S
Co601 O613 2.327 . S
Co601 O614 2.073 . S
H602 O599 0.980 . S
O603 Co595 2.073 . S
O603 C618 1.245 . S
O604 Co594 2.264 . S
O604 Co595 2.327 . S
O604 C618 1.257 . S
O605 Co595 1.976 . S
O605 C617 1.251 . S
O606 Co596 2.111 . S
O606 C617 1.274 . S
O607 Co596 2.143 . S
O607 C620 1.246 . S
O608 Co600 2.286 . S
O608 C619 1.259 . S
O609 Co600 2.069 . S
O609 C619 1.289 . S
O610 Co600 2.015 . S
O610 C620 1.257 . S
O611 Co596 2.111 . S
O611 C621 1.274 . S
O612 Co601 1.976 . S
O612 C621 1.251 . S
O613 Co600 2.264 . S
O613 Co601 2.327 . S
O613 C622 1.257 . S
O614 Co601 2.073 . S
O614 C622 1.245 . S
C615 O623 1.259 . S
C615 O624 1.289 . S
C616 O625 1.246 . S
C616 O626 1.257 . S
C617 O605 1.251 . S
C617 O606 1.274 . S
C618 O603 1.245 . S
C618 O604 1.257 . S
C619 O608 1.259 . S
C619 O609 1.289 . S
C620 O607 1.246 . S
C620 O610 1.257 . S
C621 O611 1.274 . S
C621 O612 1.251 . S
C622 O613 1.257 . S
C622 O614 1.245 . S
O623 Co594 2.286 . S
O623 C615 1.259 . S
O624 Co594 2.069 . S
O624 C615 1.289 . S
O625 Co596 2.143 . S
O625 C616 1.246 . S
O626 Co594 2.015 . S
O626 C616 1.257 . S
Co627 O630 2.042 . S
Co627 O637 2.264 . S
Co627 O656 2.286 . S
Co627 O657 2.069 . S
Co627 O659 2.015 . S
Co628 O630 2.122 . S
Co628 O636 2.073 . S
Co628 O637 2.327 . S
Co628 O638 1.976 . S
Co629 O630 2.087 . S
Co629 O632 2.087 . S
Co629 O639 2.111 . S
Co629 O640 2.143 . S
Co629 O644 2.111 . S
Co629 O658 2.143 . S
O630 Co627 2.042 . S
O630 Co628 2.122 . S
O630 Co629 2.087 . S
O630 H631 0.980 . S
H631 O630 0.980 . S
O632 Co629 2.087 . S
O632 Co633 2.042 . S
O632 Co634 2.122 . S
O632 H635 0.980 . S
Co633 O632 2.042 . S
Co633 O641 2.286 . S
Co633 O642 2.069 . S
Co633 O643 2.015 . S
Co633 O646 2.264 . S
Co634 O632 2.122 . S
Co634 O645 1.976 . S
Co634 O646 2.327 . S
Co634 O647 2.073 . S
H635 O632 0.980 . S
O636 Co628 2.073 . S
O636 C651 1.245 . S
O637 Co627 2.264 . S
O637 Co628 2.327 . S
O637 C651 1.257 . S
O638 Co628 1.976 . S
O638 C650 1.251 . S
O639 Co629 2.111 . S
O639 C650 1.274 . S
O640 Co629 2.143 . S
O640 C653 1.246 . S
O641 Co633 2.286 . S
O641 C652 1.259 . S
O642 Co633 2.069 . S
O642 C652 1.289 . S
O643 Co633 2.015 . S
O643 C653 1.257 . S
O644 Co629 2.111 . S
O644 C654 1.274 . S
O645 Co634 1.976 . S
O645 C654 1.251 . S
O646 Co633 2.264 . S
O646 Co634 2.327 . S
O646 C655 1.257 . S
O647 Co634 2.073 . S
O647 C655 1.245 . S
C648 O656 1.259 . S
C648 O657 1.289 . S
C649 O658 1.246 . S
C649 O659 1.257 . S
C650 O638 1.251 . S
C650 O639 1.274 . S
C651 O636 1.245 . S
C651 O637 1.257 . S
C652 O641 1.259 . S
C652 O642 1.289 . S
C653 O640 1.246 . S
C653 O643 1.257 . S
C654 O644 1.274 . S
C654 O645 1.251 . S
C655 O646 1.257 . S
C655 O647 1.245 . S
O656 Co627 2.286 . S
O656 C648 1.259 . S
O657 Co627 2.069 . S
O657 C648 1.289 . S
O658 Co629 2.143 . S
O658 C649 1.246 . S
O659 Co627 2.015 . S
O659 C649 1.257 . S
Co660 O663 2.042 . S
Co660 O670 2.264 . S
Co660 O689 2.286 . S
Co660 O690 2.069 . S
Co660 O692 2.015 . S
Co661 O663 2.122 . S
Co661 O669 2.073 . S
Co661 O670 2.327 . S
Co661 O671 1.976 . S
Co662 O663 2.087 . S
Co662 O665 2.087 . S
Co662 O672 2.111 . S
Co662 O673 2.143 . S
Co662 O677 2.111 . S
Co662 O691 2.143 . S
O663 Co660 2.042 . S
O663 Co661 2.122 . S
O663 Co662 2.087 . S
O663 H664 0.980 . S
H664 O663 0.980 . S
O665 Co662 2.087 . S
O665 Co666 2.042 . S
O665 Co667 2.122 . S
O665 H668 0.980 . S
Co666 O665 2.042 . S
Co666 O674 2.286 . S
Co666 O675 2.069 . S
Co666 O676 2.015 . S
Co666 O679 2.264 . S
Co667 O665 2.122 . S
Co667 O678 1.976 . S
Co667 O679 2.327 . S
Co667 O680 2.073 . S
H668 O665 0.980 . S
O669 Co661 2.073 . S
O669 C684 1.245 . S
O670 Co660 2.264 . S
O670 Co661 2.327 . S
O670 C684 1.257 . S
O671 Co661 1.976 . S
O671 C683 1.251 . S
O672 Co662 2.111 . S
O672 C683 1.274 . S
O673 Co662 2.143 . S
O673 C686 1.246 . S
O674 Co666 2.286 . S
O674 C685 1.259 . S
O675 Co666 2.069 . S
O675 C685 1.289 . S
O676 Co666 2.015 . S
O676 C686 1.257 . S
O677 Co662 2.111 . S
O677 C687 1.274 . S
O678 Co667 1.976 . S
O678 C687 1.251 . S
O679 Co666 2.264 . S
O679 Co667 2.327 . S
O679 C688 1.257 . S
O680 Co667 2.073 . S
O680 C688 1.245 . S
C681 O689 1.259 . S
C681 O690 1.289 . S
C682 O691 1.246 . S
C682 O692 1.257 . S
C683 O671 1.251 . S
C683 O672 1.274 . S
C684 O669 1.245 . S
C684 O670 1.257 . S
C685 O674 1.259 . S
C685 O675 1.289 . S
C686 O673 1.246 . S
C686 O676 1.257 . S
C687 O677 1.274 . S
C687 O678 1.251 . S
C688 O679 1.257 . S
C688 O680 1.245 . S
O689 Co660 2.286 . S
O689 C681 1.259 . S
O690 Co660 2.069 . S
O690 C681 1.289 . S
O691 Co662 2.143 . S
O691 C682 1.246 . S
O692 Co660 2.015 . S
O692 C682 1.257 . S
Co693 O696 2.042 . S
Co693 O703 2.264 . S
Co693 O722 2.286 . S
Co693 O723 2.069 . S
Co693 O725 2.015 . S
Co694 O696 2.122 . S
Co694 O702 2.073 . S
Co694 O703 2.327 . S
Co694 O704 1.976 . S
Co695 O696 2.087 . S
Co695 O698 2.087 . S
Co695 O705 2.111 . S
Co695 O706 2.143 . S
Co695 O710 2.111 . S
Co695 O724 2.143 . S
O696 Co693 2.042 . S
O696 Co694 2.122 . S
O696 Co695 2.087 . S
O696 H697 0.980 . S
H697 O696 0.980 . S
O698 Co695 2.087 . S
O698 Co699 2.042 . S
O698 Co700 2.122 . S
O698 H701 0.980 . S
Co699 O698 2.042 . S
Co699 O707 2.286 . S
Co699 O708 2.069 . S
Co699 O709 2.015 . S
Co699 O712 2.264 . S
Co700 O698 2.122 . S
Co700 O711 1.976 . S
Co700 O712 2.327 . S
Co700 O713 2.073 . S
H701 O698 0.980 . S
O702 Co694 2.073 . S
O702 C717 1.245 . S
O703 Co693 2.264 . S
O703 Co694 2.327 . S
O703 C717 1.257 . S
O704 Co694 1.976 . S
O704 C716 1.251 . S
O705 Co695 2.111 . S
O705 C716 1.274 . S
O706 Co695 2.143 . S
O706 C719 1.246 . S
O707 Co699 2.286 . S
O707 C718 1.259 . S
O708 Co699 2.069 . S
O708 C718 1.289 . S
O709 Co699 2.015 . S
O709 C719 1.257 . S
O710 Co695 2.111 . S
O710 C720 1.274 . S
O711 Co700 1.976 . S
O711 C720 1.251 . S
O712 Co699 2.264 . S
O712 Co700 2.327 . S
O712 C721 1.257 . S
O713 Co700 2.073 . S
O713 C721 1.245 . S
C714 O722 1.259 . S
C714 O723 1.289 . S
C715 O724 1.246 . S
C715 O725 1.257 . S
C716 O704 1.251 . S
C716 O705 1.274 . S
C717 O702 1.245 . S
C717 O703 1.257 . S
C718 O707 1.259 . S
C718 O708 1.289 . S
C719 O706 1.246 . S
C719 O709 1.257 . S
C720 O710 1.274 . S
C720 O711 1.251 . S
C721 O712 1.257 . S
C721 O713 1.245 . S
O722 Co693 2.286 . S
O722 C714 1.259 . S
O723 Co693 2.069 . S
O723 C714 1.289 . S
O724 Co695 2.143 . S
O724 C715 1.246 . S
O725 Co693 2.015 . S
O725 C715 1.257 . S
Co726 O729 2.042 . S
Co726 O736 2.264 . S
Co726 O755 2.286 . S
Co726 O756 2.069 . S
Co726 O758 2.015 . S
Co727 O729 2.122 . S
Co727 O735 2.073 . S
Co727 O736 2.327 . S
Co727 O737 1.976 . S
Co728 O729 2.087 . S
Co728 O731 2.087 . S
Co728 O738 2.111 . S
Co728 O739 2.143 . S
Co728 O743 2.111 . S
Co728 O757 2.143 . S
O729 Co726 2.042 . S
O729 Co727 2.122 . S
O729 Co728 2.087 . S
O729 H730 0.980 . S
H730 O729 0.980 . S
O731 Co728 2.087 . S
O731 Co732 2.042 . S
O731 Co733 2.122 . S
O731 H734 0.980 . S
Co732 O731 2.042 . S
Co732 O740 2.286 . S
Co732 O741 2.069 . S
Co732 O742 2.015 . S
Co732 O745 2.264 . S
Co733 O731 2.122 . S
Co733 O744 1.976 . S
Co733 O745 2.327 . S
Co733 O746 2.073 . S
H734 O731 0.980 . S
O735 Co727 2.073 . S
O735 C750 1.245 . S
O736 Co726 2.264 . S
O736 Co727 2.327 . S
O736 C750 1.257 . S
O737 Co727 1.976 . S
O737 C749 1.251 . S
O738 Co728 2.111 . S
O738 C749 1.274 . S
O739 Co728 2.143 . S
O739 C752 1.246 . S
O740 Co732 2.286 . S
O740 C751 1.259 . S
O741 Co732 2.069 . S
O741 C751 1.289 . S
O742 Co732 2.015 . S
O742 C752 1.257 . S
O743 Co728 2.111 . S
O743 C753 1.274 . S
O744 Co733 1.976 . S
O744 C753 1.251 . S
O745 Co732 2.264 . S
O745 Co733 2.327 . S
O745 C754 1.257 . S
O746 Co733 2.073 . S
O746 C754 1.245 . S
C747 O755 1.259 . S
C747 O756 1.289 . S
C748 O757 1.246 . S
C748 O758 1.257 . S
C749 O737 1.251 . S
C749 O738 1.274 . S
C750 O735 1.245 . S
C750 O736 1.257 . S
C751 O740 1.259 . S
C751 O741 1.289 . S
C752 O739 1.246 . S
C752 O742 1.257 . S
C753 O743 1.274 . S
C753 O744 1.251 . S
C754 O745 1.257 . S
C754 O746 1.245 . S
O755 Co726 2.286 . S
O755 C747 1.259 . S
O756 Co726 2.069 . S
O756 C747 1.289 . S
O757 Co728 2.143 . S
O757 C748 1.246 . S
O758 Co726 2.015 . S
O758 C748 1.257 . S
Co759 O762 2.042 . S
Co759 O769 2.264 . S
Co759 O788 2.286 . S
Co759 O789 2.069 . S
Co759 O791 2.015 . S
Co760 O762 2.122 . S
Co760 O768 2.073 . S
Co760 O769 2.327 . S
Co760 O770 1.976 . S
Co761 O762 2.087 . S
Co761 O764 2.087 . S
Co761 O771 2.111 . S
Co761 O772 2.143 . S
Co761 O776 2.111 . S
Co761 O790 2.143 . S
O762 Co759 2.042 . S
O762 Co760 2.122 . S
O762 Co761 2.087 . S
O762 H763 0.980 . S
H763 O762 0.980 . S
O764 Co761 2.087 . S
O764 Co765 2.042 . S
O764 Co766 2.122 . S
O764 H767 0.980 . S
Co765 O764 2.042 . S
Co765 O773 2.286 . S
Co765 O774 2.069 . S
Co765 O775 2.015 . S
Co765 O778 2.264 . S
Co766 O764 2.122 . S
Co766 O777 1.976 . S
Co766 O778 2.327 . S
Co766 O779 2.073 . S
H767 O764 0.980 . S
O768 Co760 2.073 . S
O768 C783 1.245 . S
O769 Co759 2.264 . S
O769 Co760 2.327 . S
O769 C783 1.257 . S
O770 Co760 1.976 . S
O770 C782 1.251 . S
O771 Co761 2.111 . S
O771 C782 1.274 . S
O772 Co761 2.143 . S
O772 C785 1.246 . S
O773 Co765 2.286 . S
O773 C784 1.259 . S
O774 Co765 2.069 . S
O774 C784 1.289 . S
O775 Co765 2.015 . S
O775 C785 1.257 . S
O776 Co761 2.111 . S
O776 C786 1.274 . S
O777 Co766 1.976 . S
O777 C786 1.251 . S
O778 Co765 2.264 . S
O778 Co766 2.327 . S
O778 C787 1.257 . S
O779 Co766 2.073 . S
O779 C787 1.245 . S
C780 O788 1.259 . S
C780 O789 1.289 . S
C781 O790 1.246 . S
C781 O791 1.257 . S
C782 O770 1.251 . S
C782 O771 1.274 . S
C783 O768 1.245 . S
C783 O769 1.257 . S
C784 O773 1.259 . S
C784 O774 1.289 . S
C785 O772 1.246 . S
C785 O775 1.257 . S
C786 O776 1.274 . S
C786 O777 1.251 . S
C787 O778 1.257 . S
C787 O779 1.245 . S
O788 Co759 2.286 . S
O788 C780 1.259 . S
O789 Co759 2.069 . S
O789 C780 1.289 . S
O790 Co761 2.143 . S
O790 C781 1.246 . S
O791 Co759 2.015 . S
O791 C781 1.257 . S
Co792 O795 2.042 . S
Co792 O802 2.264 . S
Co792 O821 2.286 . S
Co792 O822 2.069 . S
Co792 O824 2.015 . S
Co793 O795 2.122 . S
Co793 O801 2.073 . S
Co793 O802 2.327 . S
Co793 O803 1.976 . S
Co794 O795 2.087 . S
Co794 O797 2.087 . S
Co794 O804 2.111 . S
Co794 O805 2.143 . S
Co794 O809 2.111 . S
Co794 O823 2.143 . S
O795 Co792 2.042 . S
O795 Co793 2.122 . S
O795 Co794 2.087 . S
O795 H796 0.980 . S
H796 O795 0.980 . S
O797 Co794 2.087 . S
O797 Co798 2.042 . S
O797 Co799 2.122 . S
O797 H800 0.980 . S
Co798 O797 2.042 . S
Co798 O806 2.286 . S
Co798 O807 2.069 . S
Co798 O808 2.015 . S
Co798 O811 2.264 . S
Co799 O797 2.122 . S
Co799 O810 1.976 . S
Co799 O811 2.327 . S
Co799 O812 2.073 . S
H800 O797 0.980 . S
O801 Co793 2.073 . S
O801 C816 1.245 . S
O802 Co792 2.264 . S
O802 Co793 2.327 . S
O802 C816 1.257 . S
O803 Co793 1.976 . S
O803 C815 1.251 . S
O804 Co794 2.111 . S
O804 C815 1.274 . S
O805 Co794 2.143 . S
O805 C818 1.246 . S
O806 Co798 2.286 . S
O806 C817 1.259 . S
O807 Co798 2.069 . S
O807 C817 1.289 . S
O808 Co798 2.015 . S
O808 C818 1.257 . S
O809 Co794 2.111 . S
O809 C819 1.274 . S
O810 Co799 1.976 . S
O810 C819 1.251 . S
O811 Co798 2.264 . S
O811 Co799 2.327 . S
O811 C820 1.257 . S
O812 Co799 2.073 . S
O812 C820 1.245 . S
C813 O821 1.259 . S
C813 O822 1.289 . S
C814 O823 1.246 . S
C814 O824 1.257 . S
C815 O803 1.251 . S
C815 O804 1.274 . S
C816 O801 1.245 . S
C816 O802 1.257 . S
C817 O806 1.259 . S
C817 O807 1.289 . S
C818 O805 1.246 . S
C818 O808 1.257 . S
C819 O809 1.274 . S
C819 O810 1.251 . S
C820 O811 1.257 . S
C820 O812 1.245 . S
O821 Co792 2.286 . S
O821 C813 1.259 . S
O822 Co792 2.069 . S
O822 C813 1.289 . S
O823 Co794 2.143 . S
O823 C814 1.246 . S
O824 Co792 2.015 . S
O824 C814 1.257 . S
Co825 O828 2.042 . S
Co825 O835 2.264 . S
Co825 O854 2.286 . S
Co825 O855 2.069 . S
Co825 O857 2.015 . S
Co826 O828 2.122 . S
Co826 O834 2.073 . S
Co826 O835 2.327 . S
Co826 O836 1.976 . S
Co827 O828 2.087 . S
Co827 O830 2.087 . S
Co827 O837 2.111 . S
Co827 O838 2.143 . S
Co827 O842 2.111 . S
Co827 O856 2.143 . S
O828 Co825 2.042 . S
O828 Co826 2.122 . S
O828 Co827 2.087 . S
O828 H829 0.980 . S
H829 O828 0.980 . S
O830 Co827 2.087 . S
O830 Co831 2.042 . S
O830 Co832 2.122 . S
O830 H833 0.980 . S
Co831 O830 2.042 . S
Co831 O839 2.286 . S
Co831 O840 2.069 . S
Co831 O841 2.015 . S
Co831 O844 2.264 . S
Co832 O830 2.122 . S
Co832 O843 1.976 . S
Co832 O844 2.327 . S
Co832 O845 2.073 . S
H833 O830 0.980 . S
O834 Co826 2.073 . S
O834 C849 1.245 . S
O835 Co825 2.264 . S
O835 Co826 2.327 . S
O835 C849 1.257 . S
O836 Co826 1.976 . S
O836 C848 1.251 . S
O837 Co827 2.111 . S
O837 C848 1.274 . S
O838 Co827 2.143 . S
O838 C851 1.246 . S
O839 Co831 2.286 . S
O839 C850 1.259 . S
O840 Co831 2.069 . S
O840 C850 1.289 . S
O841 Co831 2.015 . S
O841 C851 1.257 . S
O842 Co827 2.111 . S
O842 C852 1.274 . S
O843 Co832 1.976 . S
O843 C852 1.251 . S
O844 Co831 2.264 . S
O844 Co832 2.327 . S
O844 C853 1.257 . S
O845 Co832 2.073 . S
O845 C853 1.245 . S
C846 O854 1.259 . S
C846 O855 1.289 . S
C847 O856 1.246 . S
C847 O857 1.257 . S
C848 O836 1.251 . S
C848 O837 1.274 . S
C849 O834 1.245 . S
C849 O835 1.257 . S
C850 O839 1.259 . S
C850 O840 1.289 . S
C851 O838 1.246 . S
C851 O841 1.257 . S
C852 O842 1.274 . S
C852 O843 1.251 . S
C853 O844 1.257 . S
C853 O845 1.245 . S
O854 Co825 2.286 . S
O854 C846 1.259 . S
O855 Co825 2.069 . S
O855 C846 1.289 . S
O856 Co827 2.143 . S
O856 C847 1.246 . S
O857 Co825 2.015 . S
O857 C847 1.257 . S
Co858 O861 2.042 . S
Co858 O868 2.264 . S
Co858 O887 2.286 . S
Co858 O888 2.069 . S
Co858 O890 2.015 . S
Co859 O861 2.122 . S
Co859 O867 2.073 . S
Co859 O868 2.327 . S
Co859 O869 1.976 . S
Co860 O861 2.087 . S
Co860 O863 2.087 . S
Co860 O870 2.111 . S
Co860 O871 2.143 . S
Co860 O875 2.111 . S
Co860 O889 2.143 . S
O861 Co858 2.042 . S
O861 Co859 2.122 . S
O861 Co860 2.087 . S
O861 H862 0.980 . S
H862 O861 0.980 . S
O863 Co860 2.087 . S
O863 Co864 2.042 . S
O863 Co865 2.122 . S
O863 H866 0.980 . S
Co864 O863 2.042 . S
Co864 O872 2.286 . S
Co864 O873 2.069 . S
Co864 O874 2.015 . S
Co864 O877 2.264 . S
Co865 O863 2.122 . S
Co865 O876 1.976 . S
Co865 O877 2.327 . S
Co865 O878 2.073 . S
H866 O863 0.980 . S
O867 Co859 2.073 . S
O867 C882 1.245 . S
O868 Co858 2.264 . S
O868 Co859 2.327 . S
O868 C882 1.257 . S
O869 Co859 1.976 . S
O869 C881 1.251 . S
O870 Co860 2.111 . S
O870 C881 1.274 . S
O871 Co860 2.143 . S
O871 C884 1.246 . S
O872 Co864 2.286 . S
O872 C883 1.259 . S
O873 Co864 2.069 . S
O873 C883 1.289 . S
O874 Co864 2.015 . S
O874 C884 1.257 . S
O875 Co860 2.111 . S
O875 C885 1.274 . S
O876 Co865 1.976 . S
O876 C885 1.251 . S
O877 Co864 2.264 . S
O877 Co865 2.327 . S
O877 C886 1.257 . S
O878 Co865 2.073 . S
O878 C886 1.245 . S
C879 O887 1.259 . S
C879 O888 1.289 . S
C880 O889 1.246 . S
C880 O890 1.257 . S
C881 O869 1.251 . S
C881 O870 1.274 . S
C882 O867 1.245 . S
C882 O868 1.257 . S
C883 O872 1.259 . S
C883 O873 1.289 . S
C884 O871 1.246 . S
C884 O874 1.257 . S
C885 O875 1.274 . S
C885 O876 1.251 . S
C886 O877 1.257 . S
C886 O878 1.245 . S
O887 Co858 2.286 . S
O887 C879 1.259 . S
O888 Co858 2.069 . S
O888 C879 1.289 . S
O889 Co860 2.143 . S
O889 C880 1.246 . S
O890 Co858 2.015 . S
O890 C880 1.257 . S
Co891 O894 2.042 . S
Co891 O901 2.264 . S
Co891 O920 2.286 . S
Co891 O921 2.069 . S
Co891 O923 2.015 . S
Co892 O894 2.122 . S
Co892 O900 2.073 . S
Co892 O901 2.327 . S
Co892 O902 1.976 . S
Co893 O894 2.087 . S
Co893 O896 2.087 . S
Co893 O903 2.111 . S
Co893 O904 2.143 . S
Co893 O908 2.111 . S
Co893 O922 2.143 . S
O894 Co891 2.042 . S
O894 Co892 2.122 . S
O894 Co893 2.087 . S
O894 H895 0.980 . S
H895 O894 0.980 . S
O896 Co893 2.087 . S
O896 Co897 2.042 . S
O896 Co898 2.122 . S
O896 H899 0.980 . S
Co897 O896 2.042 . S
Co897 O905 2.286 . S
Co897 O906 2.069 . S
Co897 O907 2.015 . S
Co897 O910 2.264 . S
Co898 O896 2.122 . S
Co898 O909 1.976 . S
Co898 O910 2.327 . S
Co898 O911 2.073 . S
H899 O896 0.980 . S
O900 Co892 2.073 . S
O900 C915 1.245 . S
O901 Co891 2.264 . S
O901 Co892 2.327 . S
O901 C915 1.257 . S
O902 Co892 1.976 . S
O902 C914 1.251 . S
O903 Co893 2.111 . S
O903 C914 1.274 . S
O904 Co893 2.143 . S
O904 C917 1.246 . S
O905 Co897 2.286 . S
O905 C916 1.259 . S
O906 Co897 2.069 . S
O906 C916 1.289 . S
O907 Co897 2.015 . S
O907 C917 1.257 . S
O908 Co893 2.111 . S
O908 C918 1.274 . S
O909 Co898 1.976 . S
O909 C918 1.251 . S
O910 Co897 2.264 . S
O910 Co898 2.327 . S
O910 C919 1.257 . S
O911 Co898 2.073 . S
O911 C919 1.245 . S
C912 O920 1.259 . S
C912 O921 1.289 . S
C913 O922 1.246 . S
C913 O923 1.257 . S
C914 O902 1.251 . S
C914 O903 1.274 . S
C915 O900 1.245 . S
C915 O901 1.257 . S
C916 O905 1.259 . S
C916 O906 1.289 . S
C917 O904 1.246 . S
C917 O907 1.257 . S
C918 O908 1.274 . S
C918 O909 1.251 . S
C919 O910 1.257 . S
C919 O911 1.245 . S
O920 Co891 2.286 . S
O920 C912 1.259 . S
O921 Co891 2.069 . S
O921 C912 1.289 . S
O922 Co893 2.143 . S
O922 C913 1.246 . S
O923 Co891 2.015 . S
O923 C913 1.257 . S
Co924 O927 2.042 . S
Co924 O934 2.264 . S
Co924 O953 2.286 . S
Co924 O954 2.069 . S
Co924 O956 2.015 . S
Co925 O927 2.122 . S
Co925 O933 2.073 . S
Co925 O934 2.327 . S
Co925 O935 1.976 . S
Co926 O927 2.087 . S
Co926 O929 2.087 . S
Co926 O936 2.111 . S
Co926 O937 2.143 . S
Co926 O941 2.111 . S
Co926 O955 2.143 . S
O927 Co924 2.042 . S
O927 Co925 2.122 . S
O927 Co926 2.087 . S
O927 H928 0.980 . S
H928 O927 0.980 . S
O929 Co926 2.087 . S
O929 Co930 2.042 . S
O929 Co931 2.122 . S
O929 H932 0.980 . S
Co930 O929 2.042 . S
Co930 O938 2.286 . S
Co930 O939 2.069 . S
Co930 O940 2.015 . S
Co930 O943 2.264 . S
Co931 O929 2.122 . S
Co931 O942 1.976 . S
Co931 O943 2.327 . S
Co931 O944 2.073 . S
H932 O929 0.980 . S
O933 Co925 2.073 . S
O933 C948 1.245 . S
O934 Co924 2.264 . S
O934 Co925 2.327 . S
O934 C948 1.257 . S
O935 Co925 1.976 . S
O935 C947 1.251 . S
O936 Co926 2.111 . S
O936 C947 1.274 . S
O937 Co926 2.143 . S
O937 C950 1.246 . S
O938 Co930 2.286 . S
O938 C949 1.259 . S
O939 Co930 2.069 . S
O939 C949 1.289 . S
O940 Co930 2.015 . S
O940 C950 1.257 . S
O941 Co926 2.111 . S
O941 C951 1.274 . S
O942 Co931 1.976 . S
O942 C951 1.251 . S
O943 Co930 2.264 . S
O943 Co931 2.327 . S
O943 C952 1.257 . S
O944 Co931 2.073 . S
O944 C952 1.245 . S
C945 O953 1.259 . S
C945 O954 1.289 . S
C946 O955 1.246 . S
C946 O956 1.257 . S
C947 O935 1.251 . S
C947 O936 1.274 . S
C948 O933 1.245 . S
C948 O934 1.257 . S
C949 O938 1.259 . S
C949 O939 1.289 . S
C950 O937 1.246 . S
C950 O940 1.257 . S
C951 O941 1.274 . S
C951 O942 1.251 . S
C952 O943 1.257 . S
C952 O944 1.245 . S
O953 Co924 2.286 . S
O953 C945 1.259 . S
O954 Co924 2.069 . S
O954 C945 1.289 . S
O955 Co926 2.143 . S
O955 C946 1.246 . S
O956 Co924 2.015 . S
O956 C946 1.257 . S
Co957 O960 2.042 . S
Co957 O967 2.264 . S
Co957 O986 2.286 . S
Co957 O987 2.069 . S
Co957 O989 2.015 . S
Co958 O960 2.122 . S
Co958 O966 2.073 . S
Co958 O967 2.327 . S
Co958 O968 1.976 . S
Co959 O960 2.087 . S
Co959 O962 2.087 . S
Co959 O969 2.111 . S
Co959 O970 2.143 . S
Co959 O974 2.111 . S
Co959 O988 2.143 . S
O960 Co957 2.042 . S
O960 Co958 2.122 . S
O960 Co959 2.087 . S
O960 H961 0.980 . S
H961 O960 0.980 . S
O962 Co959 2.087 . S
O962 Co963 2.042 . S
O962 Co964 2.122 . S
O962 H965 0.980 . S
Co963 O962 2.042 . S
Co963 O971 2.286 . S
Co963 O972 2.069 . S
Co963 O973 2.015 . S
Co963 O976 2.264 . S
Co964 O962 2.122 . S
Co964 O975 1.976 . S
Co964 O976 2.327 . S
Co964 O977 2.073 . S
H965 O962 0.980 . S
O966 Co958 2.073 . S
O966 C981 1.245 . S
O967 Co957 2.264 . S
O967 Co958 2.327 . S
O967 C981 1.257 . S
O968 Co958 1.976 . S
O968 C980 1.251 . S
O969 Co959 2.111 . S
O969 C980 1.274 . S
O970 Co959 2.143 . S
O970 C983 1.246 . S
O971 Co963 2.286 . S
O971 C982 1.259 . S
O972 Co963 2.069 . S
O972 C982 1.289 . S
O973 Co963 2.015 . S
O973 C983 1.257 . S
O974 Co959 2.111 . S
O974 C984 1.274 . S
O975 Co964 1.976 . S
O975 C984 1.251 . S
O976 Co963 2.264 . S
O976 Co964 2.327 . S
O976 C985 1.257 . S
O977 Co964 2.073 . S
O977 C985 1.245 . S
C978 O986 1.259 . S
C978 O987 1.289 . S
C979 O988 1.246 . S
C979 O989 1.257 . S
C980 O968 1.251 . S
C980 O969 1.274 . S
C981 O966 1.245 . S
C981 O967 1.257 . S
C982 O971 1.259 . S
C982 O972 1.289 . S
C983 O970 1.246 . S
C983 O973 1.257 . S
C984 O974 1.274 . S
C984 O975 1.251 . S
C985 O976 1.257 . S
C985 O977 1.245 . S
O986 Co957 2.286 . S
O986 C978 1.259 . S
O987 Co957 2.069 . S
O987 C978 1.289 . S
O988 Co959 2.143 . S
O988 C979 1.246 . S
O989 Co957 2.015 . S
O989 C979 1.257 . S
Co990 O993 2.042 . S
Co990 O1000 2.264 . S
Co990 O1019 2.286 . S
Co990 O1020 2.069 . S
Co990 O1022 2.015 . S
Co991 O993 2.122 . S
Co991 O999 2.073 . S
Co991 O1000 2.327 . S
Co991 O1001 1.976 . S
Co992 O993 2.087 . S
Co992 O995 2.087 . S
Co992 O1002 2.111 . S
Co992 O1003 2.143 . S
Co992 O1007 2.111 . S
Co992 O1021 2.143 . S
O993 Co990 2.042 . S
O993 Co991 2.122 . S
O993 Co992 2.087 . S
O993 H994 0.980 . S
H994 O993 0.980 . S
O995 Co992 2.087 . S
O995 Co996 2.042 . S
O995 Co997 2.122 . S
O995 H998 0.980 . S
Co996 O995 2.042 . S
Co996 O1004 2.286 . S
Co996 O1005 2.069 . S
Co996 O1006 2.015 . S
Co996 O1009 2.264 . S
Co997 O995 2.122 . S
Co997 O1008 1.976 . S
Co997 O1009 2.327 . S
Co997 O1010 2.073 . S
H998 O995 0.980 . S
O999 Co991 2.073 . S
O999 C1014 1.245 . S
O1000 Co990 2.264 . S
O1000 Co991 2.327 . S
O1000 C1014 1.257 . S
O1001 Co991 1.976 . S
O1001 C1013 1.251 . S
O1002 Co992 2.111 . S
O1002 C1013 1.274 . S
O1003 Co992 2.143 . S
O1003 C1016 1.246 . S
O1004 Co996 2.286 . S
O1004 C1015 1.259 . S
O1005 Co996 2.069 . S
O1005 C1015 1.289 . S
O1006 Co996 2.015 . S
O1006 C1016 1.257 . S
O1007 Co992 2.111 . S
O1007 C1017 1.274 . S
O1008 Co997 1.976 . S
O1008 C1017 1.251 . S
O1009 Co996 2.264 . S
O1009 Co997 2.327 . S
O1009 C1018 1.257 . S
O1010 Co997 2.073 . S
O1010 C1018 1.245 . S
C1011 O1019 1.259 . S
C1011 O1020 1.289 . S
C1012 O1021 1.246 . S
C1012 O1022 1.257 . S
C1013 O1001 1.251 . S
C1013 O1002 1.274 . S
C1014 O999 1.245 . S
C1014 O1000 1.257 . S
C1015 O1004 1.259 . S
C1015 O1005 1.289 . S
C1016 O1003 1.246 . S
C1016 O1006 1.257 . S
C1017 O1007 1.274 . S
C1017 O1008 1.251 . S
C1018 O1009 1.257 . S
C1018 O1010 1.245 . S
O1019 Co990 2.286 . S
O1019 C1011 1.259 . S
O1020 Co990 2.069 . S
O1020 C1011 1.289 . S
O1021 Co992 2.143 . S
O1021 C1012 1.246 . S
O1022 Co990 2.015 . S
O1022 C1012 1.257 . S
Co1023 O1026 2.042 . S
Co1023 O1033 2.264 . S
Co1023 O1052 2.286 . S
Co1023 O1053 2.069 . S
Co1023 O1055 2.015 . S
Co1024 O1026 2.122 . S
Co1024 O1032 2.073 . S
Co1024 O1033 2.327 . S
Co1024 O1034 1.976 . S
Co1025 O1026 2.087 . S
Co1025 O1028 2.087 . S
Co1025 O1035 2.111 . S
Co1025 O1036 2.143 . S
Co1025 O1040 2.111 . S
Co1025 O1054 2.143 . S
O1026 Co1023 2.042 . S
O1026 Co1024 2.122 . S
O1026 Co1025 2.087 . S
O1026 H1027 0.980 . S
H1027 O1026 0.980 . S
O1028 Co1025 2.087 . S
O1028 Co1029 2.042 . S
O1028 Co1030 2.122 . S
O1028 H1031 0.980 . S
Co1029 O1028 2.042 . S
Co1029 O1037 2.286 . S
Co1029 O1038 2.069 . S
Co1029 O1039 2.015 . S
Co1029 O1042 2.264 . S
Co1030 O1028 2.122 . S
Co1030 O1041 1.976 . S
Co1030 O1042 2.327 . S
Co1030 O1043 2.073 . S
H1031 O1028 0.980 . S
O1032 Co1024 2.073 . S
O1032 C1047 1.245 . S
O1033 Co1023 2.264 . S
O1033 Co1024 2.327 . S
O1033 C1047 1.257 . S
O1034 Co1024 1.976 . S
O1034 C1046 1.251 . S
O1035 Co1025 2.111 . S
O1035 C1046 1.274 . S
O1036 Co1025 2.143 . S
O1036 C1049 1.246 . S
O1037 Co1029 2.286 . S
O1037 C1048 1.259 . S
O1038 Co1029 2.069 . S
O1038 C1048 1.289 . S
O1039 Co1029 2.015 . S
O1039 C1049 1.257 . S
O1040 Co1025 2.111 . S
O1040 C1050 1.274 . S
O1041 Co1030 1.976 . S
O1041 C1050 1.251 . S
O1042 Co1029 2.264 . S
O1042 Co1030 2.327 . S
O1042 C1051 1.257 . S
O1043 Co1030 2.073 . S
O1043 C1051 1.245 . S
C1044 O1052 1.259 . S
C1044 O1053 1.289 . S
C1045 O1054 1.246 . S
C1045 O1055 1.257 . S
C1046 O1034 1.251 . S
C1046 O1035 1.274 . S
C1047 O1032 1.245 . S
C1047 O1033 1.257 . S
C1048 O1037 1.259 . S
C1048 O1038 1.289 . S
C1049 O1036 1.246 . S
C1049 O1039 1.257 . S
C1050 O1040 1.274 . S
C1050 O1041 1.251 . S
C1051 O1042 1.257 . S
C1051 O1043 1.245 . S
O1052 Co1023 2.286 . S
O1052 C1044 1.259 . S
O1053 Co1023 2.069 . S
O1053 C1044 1.289 . S
O1054 Co1025 2.143 . S
O1054 C1045 1.246 . S
O1055 Co1023 2.015 . S
O1055 C1045 1.257 . S
Co1056 O1059 2.042 . S
Co1056 O1066 2.264 . S
Co1056 O1085 2.286 . S
Co1056 O1086 2.069 . S
Co1056 O1088 2.015 . S
Co1057 O1059 2.122 . S
Co1057 O1065 2.073 . S
Co1057 O1066 2.327 . S
Co1057 O1067 1.976 . S
Co1058 O1059 2.087 . S
Co1058 O1061 2.087 . S
Co1058 O1068 2.111 . S
Co1058 O1069 2.143 . S
Co1058 O1073 2.111 . S
Co1058 O1087 2.143 . S
O1059 Co1056 2.042 . S
O1059 Co1057 2.122 . S
O1059 Co1058 2.087 . S
O1059 H1060 0.980 . S
H1060 O1059 0.980 . S
O1061 Co1058 2.087 . S
O1061 Co1062 2.042 . S
O1061 Co1063 2.122 . S
O1061 H1064 0.980 . S
Co1062 O1061 2.042 . S
Co1062 O1070 2.286 . S
Co1062 O1071 2.069 . S
Co1062 O1072 2.015 . S
Co1062 O1075 2.264 . S
Co1063 O1061 2.122 . S
Co1063 O1074 1.976 . S
Co1063 O1075 2.327 . S
Co1063 O1076 2.073 . S
H1064 O1061 0.980 . S
O1065 Co1057 2.073 . S
O1065 C1080 1.245 . S
O1066 Co1056 2.264 . S
O1066 Co1057 2.327 . S
O1066 C1080 1.257 . S
O1067 Co1057 1.976 . S
O1067 C1079 1.251 . S
O1068 Co1058 2.111 . S
O1068 C1079 1.274 . S
O1069 Co1058 2.143 . S
O1069 C1082 1.246 . S
O1070 Co1062 2.286 . S
O1070 C1081 1.259 . S
O1071 Co1062 2.069 . S
O1071 C1081 1.289 . S
O1072 Co1062 2.015 . S
O1072 C1082 1.257 . S
O1073 Co1058 2.111 . S
O1073 C1083 1.274 . S
O1074 Co1063 1.976 . S
O1074 C1083 1.251 . S
O1075 Co1062 2.264 . S
O1075 Co1063 2.327 . S
O1075 C1084 1.257 . S
O1076 Co1063 2.073 . S
O1076 C1084 1.245 . S
C1077 O1085 1.259 . S
C1077 O1086 1.289 . S
C1078 O1087 1.246 . S
C1078 O1088 1.257 . S
C1079 O1067 1.251 . S
C1079 O1068 1.274 . S
C1080 O1065 1.245 . S
C1080 O1066 1.257 . S
C1081 O1070 1.259 . S
C1081 O1071 1.289 . S
C1082 O1069 1.246 . S
C1082 O1072 1.257 . S
C1083 O1073 1.274 . S
C1083 O1074 1.251 . S
C1084 O1075 1.257 . S
C1084 O1076 1.245 . S
O1085 Co1056 2.286 . S
O1085 C1077 1.259 . S
O1086 Co1056 2.069 . S
O1086 C1077 1.289 . S
O1087 Co1058 2.143 . S
O1087 C1078 1.246 . S
O1088 Co1056 2.015 . S
O1088 C1078 1.257 . S
Co1089 O1092 2.042 . S
Co1089 O1099 2.264 . S
Co1089 O1118 2.286 . S
Co1089 O1119 2.069 . S
Co1089 O1121 2.015 . S
Co1090 O1092 2.122 . S
Co1090 O1098 2.073 . S
Co1090 O1099 2.327 . S
Co1090 O1100 1.976 . S
Co1091 O1092 2.087 . S
Co1091 O1094 2.087 . S
Co1091 O1101 2.111 . S
Co1091 O1102 2.143 . S
Co1091 O1106 2.111 . S
Co1091 O1120 2.143 . S
O1092 Co1089 2.042 . S
O1092 Co1090 2.122 . S
O1092 Co1091 2.087 . S
O1092 H1093 0.980 . S
H1093 O1092 0.980 . S
O1094 Co1091 2.087 . S
O1094 Co1095 2.042 . S
O1094 Co1096 2.122 . S
O1094 H1097 0.980 . S
Co1095 O1094 2.042 . S
Co1095 O1103 2.286 . S
Co1095 O1104 2.069 . S
Co1095 O1105 2.015 . S
Co1095 O1108 2.264 . S
Co1096 O1094 2.122 . S
Co1096 O1107 1.976 . S
Co1096 O1108 2.327 . S
Co1096 O1109 2.073 . S
H1097 O1094 0.980 . S
O1098 Co1090 2.073 . S
O1098 C1113 1.245 . S
O1099 Co1089 2.264 . S
O1099 Co1090 2.327 . S
O1099 C1113 1.257 . S
O1100 Co1090 1.976 . S
O1100 C1112 1.251 . S
O1101 Co1091 2.111 . S
O1101 C1112 1.274 . S
O1102 Co1091 2.143 . S
O1102 C1115 1.246 . S
O1103 Co1095 2.286 . S
O1103 C1114 1.259 . S
O1104 Co1095 2.069 . S
O1104 C1114 1.289 . S
O1105 Co1095 2.015 . S
O1105 C1115 1.257 . S
O1106 Co1091 2.111 . S
O1106 C1116 1.274 . S
O1107 Co1096 1.976 . S
O1107 C1116 1.251 . S
O1108 Co1095 2.264 . S
O1108 Co1096 2.327 . S
O1108 C1117 1.257 . S
O1109 Co1096 2.073 . S
O1109 C1117 1.245 . S
C1110 O1118 1.259 . S
C1110 O1119 1.289 . S
C1111 O1120 1.246 . S
C1111 O1121 1.257 . S
C1112 O1100 1.251 . S
C1112 O1101 1.274 . S
C1113 O1098 1.245 . S
C1113 O1099 1.257 . S
C1114 O1103 1.259 . S
C1114 O1104 1.289 . S
C1115 O1102 1.246 . S
C1115 O1105 1.257 . S
C1116 O1106 1.274 . S
C1116 O1107 1.251 . S
C1117 O1108 1.257 . S
C1117 O1109 1.245 . S
O1118 Co1089 2.286 . S
O1118 C1110 1.259 . S
O1119 Co1089 2.069 . S
O1119 C1110 1.289 . S
O1120 Co1091 2.143 . S
O1120 C1111 1.246 . S
O1121 Co1089 2.015 . S
O1121 C1111 1.257 . S
Co1122 O1125 2.042 . S
Co1122 O1132 2.264 . S
Co1122 O1151 2.286 . S
Co1122 O1152 2.069 . S
Co1122 O1154 2.015 . S
Co1123 O1125 2.122 . S
Co1123 O1131 2.073 . S
Co1123 O1132 2.327 . S
Co1123 O1133 1.976 . S
Co1124 O1125 2.087 . S
Co1124 O1127 2.087 . S
Co1124 O1134 2.111 . S
Co1124 O1135 2.143 . S
Co1124 O1139 2.111 . S
Co1124 O1153 2.143 . S
O1125 Co1122 2.042 . S
O1125 Co1123 2.122 . S
O1125 Co1124 2.087 . S
O1125 H1126 0.980 . S
H1126 O1125 0.980 . S
O1127 Co1124 2.087 . S
O1127 Co1128 2.042 . S
O1127 Co1129 2.122 . S
O1127 H1130 0.980 . S
Co1128 O1127 2.042 . S
Co1128 O1136 2.286 . S
Co1128 O1137 2.069 . S
Co1128 O1138 2.015 . S
Co1128 O1141 2.264 . S
Co1129 O1127 2.122 . S
Co1129 O1140 1.976 . S
Co1129 O1141 2.327 . S
Co1129 O1142 2.073 . S
H1130 O1127 0.980 . S
O1131 Co1123 2.073 . S
O1131 C1146 1.245 . S
O1132 Co1122 2.264 . S
O1132 Co1123 2.327 . S
O1132 C1146 1.257 . S
O1133 Co1123 1.976 . S
O1133 C1145 1.251 . S
O1134 Co1124 2.111 . S
O1134 C1145 1.274 . S
O1135 Co1124 2.143 . S
O1135 C1148 1.246 . S
O1136 Co1128 2.286 . S
O1136 C1147 1.259 . S
O1137 Co1128 2.069 . S
O1137 C1147 1.289 . S
O1138 Co1128 2.015 . S
O1138 C1148 1.257 . S
O1139 Co1124 2.111 . S
O1139 C1149 1.274 . S
O1140 Co1129 1.976 . S
O1140 C1149 1.251 . S
O1141 Co1128 2.264 . S
O1141 Co1129 2.327 . S
O1141 C1150 1.257 . S
O1142 Co1129 2.073 . S
O1142 C1150 1.245 . S
C1143 O1151 1.259 . S
C1143 O1152 1.289 . S
C1144 O1153 1.246 . S
C1144 O1154 1.257 . S
C1145 O1133 1.251 . S
C1145 O1134 1.274 . S
C1146 O1131 1.245 . S
C1146 O1132 1.257 . S
C1147 O1136 1.259 . S
C1147 O1137 1.289 . S
C1148 O1135 1.246 . S
C1148 O1138 1.257 . S
C1149 O1139 1.274 . S
C1149 O1140 1.251 . S
C1150 O1141 1.257 . S
C1150 O1142 1.245 . S
O1151 Co1122 2.286 . S
O1151 C1143 1.259 . S
O1152 Co1122 2.069 . S
O1152 C1143 1.289 . S
O1153 Co1124 2.143 . S
O1153 C1144 1.246 . S
O1154 Co1122 2.015 . S
O1154 C1144 1.257 . S
Co1155 O1158 2.042 . S
Co1155 O1165 2.264 . S
Co1155 O1184 2.286 . S
Co1155 O1185 2.069 . S
Co1155 O1187 2.015 . S
Co1156 O1158 2.122 . S
Co1156 O1164 2.073 . S
Co1156 O1165 2.327 . S
Co1156 O1166 1.976 . S
Co1157 O1158 2.087 . S
Co1157 O1160 2.087 . S
Co1157 O1167 2.111 . S
Co1157 O1168 2.143 . S
Co1157 O1172 2.111 . S
Co1157 O1186 2.143 . S
O1158 Co1155 2.042 . S
O1158 Co1156 2.122 . S
O1158 Co1157 2.087 . S
O1158 H1159 0.980 . S
H1159 O1158 0.980 . S
O1160 Co1157 2.087 . S
O1160 Co1161 2.042 . S
O1160 Co1162 2.122 . S
O1160 H1163 0.980 . S
Co1161 O1160 2.042 . S
Co1161 O1169 2.286 . S
Co1161 O1170 2.069 . S
Co1161 O1171 2.015 . S
Co1161 O1174 2.264 . S
Co1162 O1160 2.122 . S
Co1162 O1173 1.976 . S
Co1162 O1174 2.327 . S
Co1162 O1175 2.073 . S
H1163 O1160 0.980 . S
O1164 Co1156 2.073 . S
O1164 C1179 1.245 . S
O1165 Co1155 2.264 . S
O1165 Co1156 2.327 . S
O1165 C1179 1.257 . S
O1166 Co1156 1.976 . S
O1166 C1178 1.251 . S
O1167 Co1157 2.111 . S
O1167 C1178 1.274 . S
O1168 Co1157 2.143 . S
O1168 C1181 1.246 . S
O1169 Co1161 2.286 . S
O1169 C1180 1.259 . S
O1170 Co1161 2.069 . S
O1170 C1180 1.289 . S
O1171 Co1161 2.015 . S
O1171 C1181 1.257 . S
O1172 Co1157 2.111 . S
O1172 C1182 1.274 . S
O1173 Co1162 1.976 . S
O1173 C1182 1.251 . S
O1174 Co1161 2.264 . S
O1174 Co1162 2.327 . S
O1174 C1183 1.257 . S
O1175 Co1162 2.073 . S
O1175 C1183 1.245 . S
C1176 O1184 1.259 . S
C1176 O1185 1.289 . S
C1177 O1186 1.246 . S
C1177 O1187 1.257 . S
C1178 O1166 1.251 . S
C1178 O1167 1.274 . S
C1179 O1164 1.245 . S
C1179 O1165 1.257 . S
C1180 O1169 1.259 . S
C1180 O1170 1.289 . S
C1181 O1168 1.246 . S
C1181 O1171 1.257 . S
C1182 O1172 1.274 . S
C1182 O1173 1.251 . S
C1183 O1174 1.257 . S
C1183 O1175 1.245 . S
O1184 Co1155 2.286 . S
O1184 C1176 1.259 . S
O1185 Co1155 2.069 . S
O1185 C1176 1.289 . S
O1186 Co1157 2.143 . S
O1186 C1177 1.246 . S
O1187 Co1155 2.015 . S
O1187 C1177 1.257 . S
Co1188 O1191 2.042 . S
Co1188 O1198 2.264 . S
Co1188 O1217 2.286 . S
Co1188 O1218 2.069 . S
Co1188 O1220 2.015 . S
Co1189 O1191 2.122 . S
Co1189 O1197 2.073 . S
Co1189 O1198 2.327 . S
Co1189 O1199 1.976 . S
Co1190 O1191 2.087 . S
Co1190 O1193 2.087 . S
Co1190 O1200 2.111 . S
Co1190 O1201 2.143 . S
Co1190 O1205 2.111 . S
Co1190 O1219 2.143 . S
O1191 Co1188 2.042 . S
O1191 Co1189 2.122 . S
O1191 Co1190 2.087 . S
O1191 H1192 0.980 . S
H1192 O1191 0.980 . S
O1193 Co1190 2.087 . S
O1193 Co1194 2.042 . S
O1193 Co1195 2.122 . S
O1193 H1196 0.980 . S
Co1194 O1193 2.042 . S
Co1194 O1202 2.286 . S
Co1194 O1203 2.069 . S
Co1194 O1204 2.015 . S
Co1194 O1207 2.264 . S
Co1195 O1193 2.122 . S
Co1195 O1206 1.976 . S
Co1195 O1207 2.327 . S
Co1195 O1208 2.073 . S
H1196 O1193 0.980 . S
O1197 Co1189 2.073 . S
O1197 C1212 1.245 . S
O1198 Co1188 2.264 . S
O1198 Co1189 2.327 . S
O1198 C1212 1.257 . S
O1199 Co1189 1.976 . S
O1199 C1211 1.251 . S
O1200 Co1190 2.111 . S
O1200 C1211 1.274 . S
O1201 Co1190 2.143 . S
O1201 C1214 1.246 . S
O1202 Co1194 2.286 . S
O1202 C1213 1.259 . S
O1203 Co1194 2.069 . S
O1203 C1213 1.289 . S
O1204 Co1194 2.015 . S
O1204 C1214 1.257 . S
O1205 Co1190 2.111 . S
O1205 C1215 1.274 . S
O1206 Co1195 1.976 . S
O1206 C1215 1.251 . S
O1207 Co1194 2.264 . S
O1207 Co1195 2.327 . S
O1207 C1216 1.257 . S
O1208 Co1195 2.073 . S
O1208 C1216 1.245 . S
C1209 O1217 1.259 . S
C1209 O1218 1.289 . S
C1210 O1219 1.246 . S
C1210 O1220 1.257 . S
C1211 O1199 1.251 . S
C1211 O1200 1.274 . S
C1212 O1197 1.245 . S
C1212 O1198 1.257 . S
C1213 O1202 1.259 . S
C1213 O1203 1.289 . S
C1214 O1201 1.246 . S
C1214 O1204 1.257 . S
C1215 O1205 1.274 . S
C1215 O1206 1.251 . S
C1216 O1207 1.257 . S
C1216 O1208 1.245 . S
O1217 Co1188 2.286 . S
O1217 C1209 1.259 . S
O1218 Co1188 2.069 . S
O1218 C1209 1.289 . S
O1219 Co1190 2.143 . S
O1219 C1210 1.246 . S
O1220 Co1188 2.015 . S
O1220 C1210 1.257 . S
Co1221 O1224 2.042 . S
Co1221 O1231 2.264 . S
Co1221 O1250 2.286 . S
Co1221 O1251 2.069 . S
Co1221 O1253 2.015 . S
Co1222 O1224 2.122 . S
Co1222 O1230 2.073 . S
Co1222 O1231 2.327 . S
Co1222 O1232 1.976 . S
Co1223 O1224 2.087 . S
Co1223 O1226 2.087 . S
Co1223 O1233 2.111 . S
Co1223 O1234 2.143 . S
Co1223 O1238 2.111 . S
Co1223 O1252 2.143 . S
O1224 Co1221 2.042 . S
O1224 Co1222 2.122 . S
O1224 Co1223 2.087 . S
O1224 H1225 0.980 . S
H1225 O1224 0.980 . S
O1226 Co1223 2.087 . S
O1226 Co1227 2.042 . S
O1226 Co1228 2.122 . S
O1226 H1229 0.980 . S
Co1227 O1226 2.042 . S
Co1227 O1235 2.286 . S
Co1227 O1236 2.069 . S
Co1227 O1237 2.015 . S
Co1227 O1240 2.264 . S
Co1228 O1226 2.122 . S
Co1228 O1239 1.976 . S
Co1228 O1240 2.327 . S
Co1228 O1241 2.073 . S
H1229 O1226 0.980 . S
O1230 Co1222 2.073 . S
O1230 C1245 1.245 . S
O1231 Co1221 2.264 . S
O1231 Co1222 2.327 . S
O1231 C1245 1.257 . S
O1232 Co1222 1.976 . S
O1232 C1244 1.251 . S
O1233 Co1223 2.111 . S
O1233 C1244 1.274 . S
O1234 Co1223 2.143 . S
O1234 C1247 1.246 . S
O1235 Co1227 2.286 . S
O1235 C1246 1.259 . S
O1236 Co1227 2.069 . S
O1236 C1246 1.289 . S
O1237 Co1227 2.015 . S
O1237 C1247 1.257 . S
O1238 Co1223 2.111 . S
O1238 C1248 1.274 . S
O1239 Co1228 1.976 . S
O1239 C1248 1.251 . S
O1240 Co1227 2.264 . S
O1240 Co1228 2.327 . S
O1240 C1249 1.257 . S
O1241 Co1228 2.073 . S
O1241 C1249 1.245 . S
C1242 O1250 1.259 . S
C1242 O1251 1.289 . S
C1243 O1252 1.246 . S
C1243 O1253 1.257 . S
C1244 O1232 1.251 . S
C1244 O1233 1.274 . S
C1245 O1230 1.245 . S
C1245 O1231 1.257 . S
C1246 O1235 1.259 . S
C1246 O1236 1.289 . S
C1247 O1234 1.246 . S
C1247 O1237 1.257 . S
C1248 O1238 1.274 . S
C1248 O1239 1.251 . S
C1249 O1240 1.257 . S
C1249 O1241 1.245 . S
O1250 Co1221 2.286 . S
O1250 C1242 1.259 . S
O1251 Co1221 2.069 . S
O1251 C1242 1.289 . S
O1252 Co1223 2.143 . S
O1252 C1243 1.246 . S
O1253 Co1221 2.015 . S
O1253 C1243 1.257 . S
Co1254 O1257 2.042 . S
Co1254 O1264 2.264 . S
Co1254 O1283 2.286 . S
Co1254 O1284 2.069 . S
Co1254 O1286 2.015 . S
Co1255 O1257 2.122 . S
Co1255 O1263 2.073 . S
Co1255 O1264 2.327 . S
Co1255 O1265 1.976 . S
Co1256 O1257 2.087 . S
Co1256 O1259 2.087 . S
Co1256 O1266 2.111 . S
Co1256 O1267 2.143 . S
Co1256 O1271 2.111 . S
Co1256 O1285 2.143 . S
O1257 Co1254 2.042 . S
O1257 Co1255 2.122 . S
O1257 Co1256 2.087 . S
O1257 H1258 0.980 . S
H1258 O1257 0.980 . S
O1259 Co1256 2.087 . S
O1259 Co1260 2.042 . S
O1259 Co1261 2.122 . S
O1259 H1262 0.980 . S
Co1260 O1259 2.042 . S
Co1260 O1268 2.286 . S
Co1260 O1269 2.069 . S
Co1260 O1270 2.015 . S
Co1260 O1273 2.264 . S
Co1261 O1259 2.122 . S
Co1261 O1272 1.976 . S
Co1261 O1273 2.327 . S
Co1261 O1274 2.073 . S
H1262 O1259 0.980 . S
O1263 Co1255 2.073 . S
O1263 C1278 1.245 . S
O1264 Co1254 2.264 . S
O1264 Co1255 2.327 . S
O1264 C1278 1.257 . S
O1265 Co1255 1.976 . S
O1265 C1277 1.251 . S
O1266 Co1256 2.111 . S
O1266 C1277 1.274 . S
O1267 Co1256 2.143 . S
O1267 C1280 1.246 . S
O1268 Co1260 2.286 . S
O1268 C1279 1.259 . S
O1269 Co1260 2.069 . S
O1269 C1279 1.289 . S
O1270 Co1260 2.015 . S
O1270 C1280 1.257 . S
O1271 Co1256 2.111 . S
O1271 C1281 1.274 . S
O1272 Co1261 1.976 . S
O1272 C1281 1.251 . S
O1273 Co1260 2.264 . S
O1273 Co1261 2.327 . S
O1273 C1282 1.257 . S
O1274 Co1261 2.073 . S
O1274 C1282 1.245 . S
C1275 O1283 1.259 . S
C1275 O1284 1.289 . S
C1276 O1285 1.246 . S
C1276 O1286 1.257 . S
C1277 O1265 1.251 . S
C1277 O1266 1.274 . S
C1278 O1263 1.245 . S
C1278 O1264 1.257 . S
C1279 O1268 1.259 . S
C1279 O1269 1.289 . S
C1280 O1267 1.246 . S
C1280 O1270 1.257 . S
C1281 O1271 1.274 . S
C1281 O1272 1.251 . S
C1282 O1273 1.257 . S
C1282 O1274 1.245 . S
O1283 Co1254 2.286 . S
O1283 C1275 1.259 . S
O1284 Co1254 2.069 . S
O1284 C1275 1.289 . S
O1285 Co1256 2.143 . S
O1285 C1276 1.246 . S
O1286 Co1254 2.015 . S
O1286 C1276 1.257 . S
Co1287 O1290 2.042 . S
Co1287 O1297 2.264 . S
Co1287 O1316 2.286 . S
Co1287 O1317 2.069 . S
Co1287 O1319 2.015 . S
Co1288 O1290 2.122 . S
Co1288 O1296 2.073 . S
Co1288 O1297 2.327 . S
Co1288 O1298 1.976 . S
Co1289 O1290 2.087 . S
Co1289 O1292 2.087 . S
Co1289 O1299 2.111 . S
Co1289 O1300 2.143 . S
Co1289 O1304 2.111 . S
Co1289 O1318 2.143 . S
O1290 Co1287 2.042 . S
O1290 Co1288 2.122 . S
O1290 Co1289 2.087 . S
O1290 H1291 0.980 . S
H1291 O1290 0.980 . S
O1292 Co1289 2.087 . S
O1292 Co1293 2.042 . S
O1292 Co1294 2.122 . S
O1292 H1295 0.980 . S
Co1293 O1292 2.042 . S
Co1293 O1301 2.286 . S
Co1293 O1302 2.069 . S
Co1293 O1303 2.015 . S
Co1293 O1306 2.264 . S
Co1294 O1292 2.122 . S
Co1294 O1305 1.976 . S
Co1294 O1306 2.327 . S
Co1294 O1307 2.073 . S
H1295 O1292 0.980 . S
O1296 Co1288 2.073 . S
O1296 C1311 1.245 . S
O1297 Co1287 2.264 . S
O1297 Co1288 2.327 . S
O1297 C1311 1.257 . S
O1298 Co1288 1.976 . S
O1298 C1310 1.251 . S
O1299 Co1289 2.111 . S
O1299 C1310 1.274 . S
O1300 Co1289 2.143 . S
O1300 C1313 1.246 . S
O1301 Co1293 2.286 . S
O1301 C1312 1.259 . S
O1302 Co1293 2.069 . S
O1302 C1312 1.289 . S
O1303 Co1293 2.015 . S
O1303 C1313 1.257 . S
O1304 Co1289 2.111 . S
O1304 C1314 1.274 . S
O1305 Co1294 1.976 . S
O1305 C1314 1.251 . S
O1306 Co1293 2.264 . S
O1306 Co1294 2.327 . S
O1306 C1315 1.257 . S
O1307 Co1294 2.073 . S
O1307 C1315 1.245 . S
C1308 O1316 1.259 . S
C1308 O1317 1.289 . S
C1309 O1318 1.246 . S
C1309 O1319 1.257 . S
C1310 O1298 1.251 . S
C1310 O1299 1.274 . S
C1311 O1296 1.245 . S
C1311 O1297 1.257 . S
C1312 O1301 1.259 . S
C1312 O1302 1.289 . S
C1313 O1300 1.246 . S
C1313 O1303 1.257 . S
C1314 O1304 1.274 . S
C1314 O1305 1.251 . S
C1315 O1306 1.257 . S
C1315 O1307 1.245 . S
O1316 Co1287 2.286 . S
O1316 C1308 1.259 . S
O1317 Co1287 2.069 . S
O1317 C1308 1.289 . S
O1318 Co1289 2.143 . S
O1318 C1309 1.246 . S
O1319 Co1287 2.015 . S
O1319 C1309 1.257 . S
Co1320 O1323 2.042 . S
Co1320 O1330 2.264 . S
Co1320 O1349 2.286 . S
Co1320 O1350 2.069 . S
Co1320 O1352 2.015 . S
Co1321 O1323 2.122 . S
Co1321 O1329 2.073 . S
Co1321 O1330 2.327 . S
Co1321 O1331 1.976 . S
Co1322 O1323 2.087 . S
Co1322 O1325 2.087 . S
Co1322 O1332 2.111 . S
Co1322 O1333 2.143 . S
Co1322 O1337 2.111 . S
Co1322 O1351 2.143 . S
O1323 Co1320 2.042 . S
O1323 Co1321 2.122 . S
O1323 Co1322 2.087 . S
O1323 H1324 0.980 . S
H1324 O1323 0.980 . S
O1325 Co1322 2.087 . S
O1325 Co1326 2.042 . S
O1325 Co1327 2.122 . S
O1325 H1328 0.980 . S
Co1326 O1325 2.042 . S
Co1326 O1334 2.286 . S
Co1326 O1335 2.069 . S
Co1326 O1336 2.015 . S
Co1326 O1339 2.264 . S
Co1327 O1325 2.122 . S
Co1327 O1338 1.976 . S
Co1327 O1339 2.327 . S
Co1327 O1340 2.073 . S
H1328 O1325 0.980 . S
O1329 Co1321 2.073 . S
O1329 C1344 1.245 . S
O1330 Co1320 2.264 . S
O1330 Co1321 2.327 . S
O1330 C1344 1.257 . S
O1331 Co1321 1.976 . S
O1331 C1343 1.251 . S
O1332 Co1322 2.111 . S
O1332 C1343 1.274 . S
O1333 Co1322 2.143 . S
O1333 C1346 1.246 . S
O1334 Co1326 2.286 . S
O1334 C1345 1.259 . S
O1335 Co1326 2.069 . S
O1335 C1345 1.289 . S
O1336 Co1326 2.015 . S
O1336 C1346 1.257 . S
O1337 Co1322 2.111 . S
O1337 C1347 1.274 . S
O1338 Co1327 1.976 . S
O1338 C1347 1.251 . S
O1339 Co1326 2.264 . S
O1339 Co1327 2.327 . S
O1339 C1348 1.257 . S
O1340 Co1327 2.073 . S
O1340 C1348 1.245 . S
C1341 O1349 1.259 . S
C1341 O1350 1.289 . S
C1342 O1351 1.246 . S
C1342 O1352 1.257 . S
C1343 O1331 1.251 . S
C1343 O1332 1.274 . S
C1344 O1329 1.245 . S
C1344 O1330 1.257 . S
C1345 O1334 1.259 . S
C1345 O1335 1.289 . S
C1346 O1333 1.246 . S
C1346 O1336 1.257 . S
C1347 O1337 1.274 . S
C1347 O1338 1.251 . S
C1348 O1339 1.257 . S
C1348 O1340 1.245 . S
O1349 Co1320 2.286 . S
O1349 C1341 1.259 . S
O1350 Co1320 2.069 . S
O1350 C1341 1.289 . S
O1351 Co1322 2.143 . S
O1351 C1342 1.246 . S
O1352 Co1320 2.015 . S
O1352 C1342 1.257 . S
Co1353 O1356 2.042 . S
Co1353 O1363 2.264 . S
Co1353 O1382 2.286 . S
Co1353 O1383 2.069 . S
Co1353 O1385 2.015 . S
Co1354 O1356 2.122 . S
Co1354 O1362 2.073 . S
Co1354 O1363 2.327 . S
Co1354 O1364 1.976 . S
Co1355 O1356 2.087 . S
Co1355 O1358 2.087 . S
Co1355 O1365 2.111 . S
Co1355 O1366 2.143 . S
Co1355 O1370 2.111 . S
Co1355 O1384 2.143 . S
O1356 Co1353 2.042 . S
O1356 Co1354 2.122 . S
O1356 Co1355 2.087 . S
O1356 H1357 0.980 . S
H1357 O1356 0.980 . S
O1358 Co1355 2.087 . S
O1358 Co1359 2.042 . S
O1358 Co1360 2.122 . S
O1358 H1361 0.980 . S
Co1359 O1358 2.042 . S
Co1359 O1367 2.286 . S
Co1359 O1368 2.069 . S
Co1359 O1369 2.015 . S
Co1359 O1372 2.264 . S
Co1360 O1358 2.122 . S
Co1360 O1371 1.976 . S
Co1360 O1372 2.327 . S
Co1360 O1373 2.073 . S
H1361 O1358 0.980 . S
O1362 Co1354 2.073 . S
O1362 C1377 1.245 . S
O1363 Co1353 2.264 . S
O1363 Co1354 2.327 . S
O1363 C1377 1.257 . S
O1364 Co1354 1.976 . S
O1364 C1376 1.251 . S
O1365 Co1355 2.111 . S
O1365 C1376 1.274 . S
O1366 Co1355 2.143 . S
O1366 C1379 1.246 . S
O1367 Co1359 2.286 . S
O1367 C1378 1.259 . S
O1368 Co1359 2.069 . S
O1368 C1378 1.289 . S
O1369 Co1359 2.015 . S
O1369 C1379 1.257 . S
O1370 Co1355 2.111 . S
O1370 C1380 1.274 . S
O1371 Co1360 1.976 . S
O1371 C1380 1.251 . S
O1372 Co1359 2.264 . S
O1372 Co1360 2.327 . S
O1372 C1381 1.257 . S
O1373 Co1360 2.073 . S
O1373 C1381 1.245 . S
C1374 O1382 1.259 . S
C1374 O1383 1.289 . S
C1375 O1384 1.246 . S
C1375 O1385 1.257 . S
C1376 O1364 1.251 . S
C1376 O1365 1.274 . S
C1377 O1362 1.245 . S
C1377 O1363 1.257 . S
C1378 O1367 1.259 . S
C1378 O1368 1.289 . S
C1379 O1366 1.246 . S
C1379 O1369 1.257 . S
C1380 O1370 1.274 . S
C1380 O1371 1.251 . S
C1381 O1372 1.257 . S
C1381 O1373 1.245 . S
O1382 Co1353 2.286 . S
O1382 C1374 1.259 . S
O1383 Co1353 2.069 . S
O1383 C1374 1.289 . S
O1384 Co1355 2.143 . S
O1384 C1375 1.246 . S
O1385 Co1353 2.015 . S
O1385 C1375 1.257 . S
Co1386 O1389 2.042 . S
Co1386 O1396 2.264 . S
Co1386 O1415 2.286 . S
Co1386 O1416 2.069 . S
Co1386 O1418 2.015 . S
Co1387 O1389 2.122 . S
Co1387 O1395 2.073 . S
Co1387 O1396 2.327 . S
Co1387 O1397 1.976 . S
Co1388 O1389 2.087 . S
Co1388 O1391 2.087 . S
Co1388 O1398 2.111 . S
Co1388 O1399 2.143 . S
Co1388 O1403 2.111 . S
Co1388 O1417 2.143 . S
O1389 Co1386 2.042 . S
O1389 Co1387 2.122 . S
O1389 Co1388 2.087 . S
O1389 H1390 0.980 . S
H1390 O1389 0.980 . S
O1391 Co1388 2.087 . S
O1391 Co1392 2.042 . S
O1391 Co1393 2.122 . S
O1391 H1394 0.980 . S
Co1392 O1391 2.042 . S
Co1392 O1400 2.286 . S
Co1392 O1401 2.069 . S
Co1392 O1402 2.015 . S
Co1392 O1405 2.264 . S
Co1393 O1391 2.122 . S
Co1393 O1404 1.976 . S
Co1393 O1405 2.327 . S
Co1393 O1406 2.073 . S
H1394 O1391 0.980 . S
O1395 Co1387 2.073 . S
O1395 C1410 1.245 . S
O1396 Co1386 2.264 . S
O1396 Co1387 2.327 . S
O1396 C1410 1.257 . S
O1397 Co1387 1.976 . S
O1397 C1409 1.251 . S
O1398 Co1388 2.111 . S
O1398 C1409 1.274 . S
O1399 Co1388 2.143 . S
O1399 C1412 1.246 . S
O1400 Co1392 2.286 . S
O1400 C1411 1.259 . S
O1401 Co1392 2.069 . S
O1401 C1411 1.289 . S
O1402 Co1392 2.015 . S
O1402 C1412 1.257 . S
O1403 Co1388 2.111 . S
O1403 C1413 1.274 . S
O1404 Co1393 1.976 . S
O1404 C1413 1.251 . S
O1405 Co1392 2.264 . S
O1405 Co1393 2.327 . S
O1405 C1414 1.257 . S
O1406 Co1393 2.073 . S
O1406 C1414 1.245 . S
C1407 O1415 1.259 . S
C1407 O1416 1.289 . S
C1408 O1417 1.246 . S
C1408 O1418 1.257 . S
C1409 O1397 1.251 . S
C1409 O1398 1.274 . S
C1410 O1395 1.245 . S
C1410 O1396 1.257 . S
C1411 O1400 1.259 . S
C1411 O1401 1.289 . S
C1412 O1399 1.246 . S
C1412 O1402 1.257 . S
C1413 O1403 1.274 . S
C1413 O1404 1.251 . S
C1414 O1405 1.257 . S
C1414 O1406 1.245 . S
O1415 Co1386 2.286 . S
O1415 C1407 1.259 . S
O1416 Co1386 2.069 . S
O1416 C1407 1.289 . S
O1417 Co1388 2.143 . S
O1417 C1408 1.246 . S
O1418 Co1386 2.015 . S
O1418 C1408 1.257 . S
Co1419 O1422 2.042 . S
Co1419 O1429 2.264 . S
Co1419 O1448 2.286 . S
Co1419 O1449 2.069 . S
Co1419 O1451 2.015 . S
Co1420 O1422 2.122 . S
Co1420 O1428 2.073 . S
Co1420 O1429 2.327 . S
Co1420 O1430 1.976 . S
Co1421 O1422 2.087 . S
Co1421 O1424 2.087 . S
Co1421 O1431 2.111 . S
Co1421 O1432 2.143 . S
Co1421 O1436 2.111 . S
Co1421 O1450 2.143 . S
O1422 Co1419 2.042 . S
O1422 Co1420 2.122 . S
O1422 Co1421 2.087 . S
O1422 H1423 0.980 . S
H1423 O1422 0.980 . S
O1424 Co1421 2.087 . S
O1424 Co1425 2.042 . S
O1424 Co1426 2.122 . S
O1424 H1427 0.980 . S
Co1425 O1424 2.042 . S
Co1425 O1433 2.286 . S
Co1425 O1434 2.069 . S
Co1425 O1435 2.015 . S
Co1425 O1438 2.264 . S
Co1426 O1424 2.122 . S
Co1426 O1437 1.976 . S
Co1426 O1438 2.327 . S
Co1426 O1439 2.073 . S
H1427 O1424 0.980 . S
O1428 Co1420 2.073 . S
O1428 C1443 1.245 . S
O1429 Co1419 2.264 . S
O1429 Co1420 2.327 . S
O1429 C1443 1.257 . S
O1430 Co1420 1.976 . S
O1430 C1442 1.251 . S
O1431 Co1421 2.111 . S
O1431 C1442 1.274 . S
O1432 Co1421 2.143 . S
O1432 C1445 1.246 . S
O1433 Co1425 2.286 . S
O1433 C1444 1.259 . S
O1434 Co1425 2.069 . S
O1434 C1444 1.289 . S
O1435 Co1425 2.015 . S
O1435 C1445 1.257 . S
O1436 Co1421 2.111 . S
O1436 C1446 1.274 . S
O1437 Co1426 1.976 . S
O1437 C1446 1.251 . S
O1438 Co1425 2.264 . S
O1438 Co1426 2.327 . S
O1438 C1447 1.257 . S
O1439 Co1426 2.073 . S
O1439 C1447 1.245 . S
C1440 O1448 1.259 . S
C1440 O1449 1.289 . S
C1441 O1450 1.246 . S
C1441 O1451 1.257 . S
C1442 O1430 1.251 . S
C1442 O1431 1.274 . S
C1443 O1428 1.245 . S
C1443 O1429 1.257 . S
C1444 O1433 1.259 . S
C1444 O1434 1.289 . S
C1445 O1432 1.246 . S
C1445 O1435 1.257 . S
C1446 O1436 1.274 . S
C1446 O1437 1.251 . S
C1447 O1438 1.257 . S
C1447 O1439 1.245 . S
O1448 Co1419 2.286 . S
O1448 C1440 1.259 . S
O1449 Co1419 2.069 . S
O1449 C1440 1.289 . S
O1450 Co1421 2.143 . S
O1450 C1441 1.246 . S
O1451 Co1419 2.015 . S
O1451 C1441 1.257 . S
Co1452 O1455 2.042 . S
Co1452 O1462 2.264 . S
Co1452 O1481 2.286 . S
Co1452 O1482 2.069 . S
Co1452 O1484 2.015 . S
Co1453 O1455 2.122 . S
Co1453 O1461 2.073 . S
Co1453 O1462 2.327 . S
Co1453 O1463 1.976 . S
Co1454 O1455 2.087 . S
Co1454 O1457 2.087 . S
Co1454 O1464 2.111 . S
Co1454 O1465 2.143 . S
Co1454 O1469 2.111 . S
Co1454 O1483 2.143 . S
O1455 Co1452 2.042 . S
O1455 Co1453 2.122 . S
O1455 Co1454 2.087 . S
O1455 H1456 0.980 . S
H1456 O1455 0.980 . S
O1457 Co1454 2.087 . S
O1457 Co1458 2.042 . S
O1457 Co1459 2.122 . S
O1457 H1460 0.980 . S
Co1458 O1457 2.042 . S
Co1458 O1466 2.286 . S
Co1458 O1467 2.069 . S
Co1458 O1468 2.015 . S
Co1458 O1471 2.264 . S
Co1459 O1457 2.122 . S
Co1459 O1470 1.976 . S
Co1459 O1471 2.327 . S
Co1459 O1472 2.073 . S
H1460 O1457 0.980 . S
O1461 Co1453 2.073 . S
O1461 C1476 1.245 . S
O1462 Co1452 2.264 . S
O1462 Co1453 2.327 . S
O1462 C1476 1.257 . S
O1463 Co1453 1.976 . S
O1463 C1475 1.251 . S
O1464 Co1454 2.111 . S
O1464 C1475 1.274 . S
O1465 Co1454 2.143 . S
O1465 C1478 1.246 . S
O1466 Co1458 2.286 . S
O1466 C1477 1.259 . S
O1467 Co1458 2.069 . S
O1467 C1477 1.289 . S
O1468 Co1458 2.015 . S
O1468 C1478 1.257 . S
O1469 Co1454 2.111 . S
O1469 C1479 1.274 . S
O1470 Co1459 1.976 . S
O1470 C1479 1.251 . S
O1471 Co1458 2.264 . S
O1471 Co1459 2.327 . S
O1471 C1480 1.257 . S
O1472 Co1459 2.073 . S
O1472 C1480 1.245 . S
C1473 O1481 1.259 . S
C1473 O1482 1.289 . S
C1474 O1483 1.246 . S
C1474 O1484 1.257 . S
C1475 O1463 1.251 . S
C1475 O1464 1.274 . S
C1476 O1461 1.245 . S
C1476 O1462 1.257 . S
C1477 O1466 1.259 . S
C1477 O1467 1.289 . S
C1478 O1465 1.246 . S
C1478 O1468 1.257 . S
C1479 O1469 1.274 . S
C1479 O1470 1.251 . S
C1480 O1471 1.257 . S
C1480 O1472 1.245 . S
O1481 Co1452 2.286 . S
O1481 C1473 1.259 . S
O1482 Co1452 2.069 . S
O1482 C1473 1.289 . S
O1483 Co1454 2.143 . S
O1483 C1474 1.246 . S
O1484 Co1452 2.015 . S
O1484 C1474 1.257 . S
Co1485 O1488 2.042 . S
Co1485 O1495 2.264 . S
Co1485 O1514 2.286 . S
Co1485 O1515 2.069 . S
Co1485 O1517 2.015 . S
Co1486 O1488 2.122 . S
Co1486 O1494 2.073 . S
Co1486 O1495 2.327 . S
Co1486 O1496 1.976 . S
Co1487 O1488 2.087 . S
Co1487 O1490 2.087 . S
Co1487 O1497 2.111 . S
Co1487 O1498 2.143 . S
Co1487 O1502 2.111 . S
Co1487 O1516 2.143 . S
O1488 Co1485 2.042 . S
O1488 Co1486 2.122 . S
O1488 Co1487 2.087 . S
O1488 H1489 0.980 . S
H1489 O1488 0.980 . S
O1490 Co1487 2.087 . S
O1490 Co1491 2.042 . S
O1490 Co1492 2.122 . S
O1490 H1493 0.980 . S
Co1491 O1490 2.042 . S
Co1491 O1499 2.286 . S
Co1491 O1500 2.069 . S
Co1491 O1501 2.015 . S
Co1491 O1504 2.264 . S
Co1492 O1490 2.122 . S
Co1492 O1503 1.976 . S
Co1492 O1504 2.327 . S
Co1492 O1505 2.073 . S
H1493 O1490 0.980 . S
O1494 Co1486 2.073 . S
O1494 C1509 1.245 . S
O1495 Co1485 2.264 . S
O1495 Co1486 2.327 . S
O1495 C1509 1.257 . S
O1496 Co1486 1.976 . S
O1496 C1508 1.251 . S
O1497 Co1487 2.111 . S
O1497 C1508 1.274 . S
O1498 Co1487 2.143 . S
O1498 C1511 1.246 . S
O1499 Co1491 2.286 . S
O1499 C1510 1.259 . S
O1500 Co1491 2.069 . S
O1500 C1510 1.289 . S
O1501 Co1491 2.015 . S
O1501 C1511 1.257 . S
O1502 Co1487 2.111 . S
O1502 C1512 1.274 . S
O1503 Co1492 1.976 . S
O1503 C1512 1.251 . S
O1504 Co1491 2.264 . S
O1504 Co1492 2.327 . S
O1504 C1513 1.257 . S
O1505 Co1492 2.073 . S
O1505 C1513 1.245 . S
C1506 O1514 1.259 . S
C1506 O1515 1.289 . S
C1507 O1516 1.246 . S
C1507 O1517 1.257 . S
C1508 O1496 1.251 . S
C1508 O1497 1.274 . S
C1509 O1494 1.245 . S
C1509 O1495 1.257 . S
C1510 O1499 1.259 . S
C1510 O1500 1.289 . S
C1511 O1498 1.246 . S
C1511 O1501 1.257 . S
C1512 O1502 1.274 . S
C1512 O1503 1.251 . S
C1513 O1504 1.257 . S
C1513 O1505 1.245 . S
O1514 Co1485 2.286 . S
O1514 C1506 1.259 . S
O1515 Co1485 2.069 . S
O1515 C1506 1.289 . S
O1516 Co1487 2.143 . S
O1516 C1507 1.246 . S
O1517 Co1485 2.015 . S
O1517 C1507 1.257 . S
Co1518 O1521 2.042 . S
Co1518 O1528 2.264 . S
Co1518 O1547 2.286 . S
Co1518 O1548 2.069 . S
Co1518 O1550 2.015 . S
Co1519 O1521 2.122 . S
Co1519 O1527 2.073 . S
Co1519 O1528 2.327 . S
Co1519 O1529 1.976 . S
Co1520 O1521 2.087 . S
Co1520 O1523 2.087 . S
Co1520 O1530 2.111 . S
Co1520 O1531 2.143 . S
Co1520 O1535 2.111 . S
Co1520 O1549 2.143 . S
O1521 Co1518 2.042 . S
O1521 Co1519 2.122 . S
O1521 Co1520 2.087 . S
O1521 H1522 0.980 . S
H1522 O1521 0.980 . S
O1523 Co1520 2.087 . S
O1523 Co1524 2.042 . S
O1523 Co1525 2.122 . S
O1523 H1526 0.980 . S
Co1524 O1523 2.042 . S
Co1524 O1532 2.286 . S
Co1524 O1533 2.069 . S
Co1524 O1534 2.015 . S
Co1524 O1537 2.264 . S
Co1525 O1523 2.122 . S
Co1525 O1536 1.976 . S
Co1525 O1537 2.327 . S
Co1525 O1538 2.073 . S
H1526 O1523 0.980 . S
O1527 Co1519 2.073 . S
O1527 C1542 1.245 . S
O1528 Co1518 2.264 . S
O1528 Co1519 2.327 . S
O1528 C1542 1.257 . S
O1529 Co1519 1.976 . S
O1529 C1541 1.251 . S
O1530 Co1520 2.111 . S
O1530 C1541 1.274 . S
O1531 Co1520 2.143 . S
O1531 C1544 1.246 . S
O1532 Co1524 2.286 . S
O1532 C1543 1.259 . S
O1533 Co1524 2.069 . S
O1533 C1543 1.289 . S
O1534 Co1524 2.015 . S
O1534 C1544 1.257 . S
O1535 Co1520 2.111 . S
O1535 C1545 1.274 . S
O1536 Co1525 1.976 . S
O1536 C1545 1.251 . S
O1537 Co1524 2.264 . S
O1537 Co1525 2.327 . S
O1537 C1546 1.257 . S
O1538 Co1525 2.073 . S
O1538 C1546 1.245 . S
C1539 O1547 1.259 . S
C1539 O1548 1.289 . S
C1540 O1549 1.246 . S
C1540 O1550 1.257 . S
C1541 O1529 1.251 . S
C1541 O1530 1.274 . S
C1542 O1527 1.245 . S
C1542 O1528 1.257 . S
C1543 O1532 1.259 . S
C1543 O1533 1.289 . S
C1544 O1531 1.246 . S
C1544 O1534 1.257 . S
C1545 O1535 1.274 . S
C1545 O1536 1.251 . S
C1546 O1537 1.257 . S
C1546 O1538 1.245 . S
O1547 Co1518 2.286 . S
O1547 C1539 1.259 . S
O1548 Co1518 2.069 . S
O1548 C1539 1.289 . S
O1549 Co1520 2.143 . S
O1549 C1540 1.246 . S
O1550 Co1518 2.015 . S
O1550 C1540 1.257 . S
Co1551 O1554 2.042 . S
Co1551 O1561 2.264 . S
Co1551 O1580 2.286 . S
Co1551 O1581 2.069 . S
Co1551 O1583 2.015 . S
Co1552 O1554 2.122 . S
Co1552 O1560 2.073 . S
Co1552 O1561 2.327 . S
Co1552 O1562 1.976 . S
Co1553 O1554 2.087 . S
Co1553 O1556 2.087 . S
Co1553 O1563 2.111 . S
Co1553 O1564 2.143 . S
Co1553 O1568 2.111 . S
Co1553 O1582 2.143 . S
O1554 Co1551 2.042 . S
O1554 Co1552 2.122 . S
O1554 Co1553 2.087 . S
O1554 H1555 0.980 . S
H1555 O1554 0.980 . S
O1556 Co1553 2.087 . S
O1556 Co1557 2.042 . S
O1556 Co1558 2.122 . S
O1556 H1559 0.980 . S
Co1557 O1556 2.042 . S
Co1557 O1565 2.286 . S
Co1557 O1566 2.069 . S
Co1557 O1567 2.015 . S
Co1557 O1570 2.264 . S
Co1558 O1556 2.122 . S
Co1558 O1569 1.976 . S
Co1558 O1570 2.327 . S
Co1558 O1571 2.073 . S
H1559 O1556 0.980 . S
O1560 Co1552 2.073 . S
O1560 C1575 1.245 . S
O1561 Co1551 2.264 . S
O1561 Co1552 2.327 . S
O1561 C1575 1.257 . S
O1562 Co1552 1.976 . S
O1562 C1574 1.251 . S
O1563 Co1553 2.111 . S
O1563 C1574 1.274 . S
O1564 Co1553 2.143 . S
O1564 C1577 1.246 . S
O1565 Co1557 2.286 . S
O1565 C1576 1.259 . S
O1566 Co1557 2.069 . S
O1566 C1576 1.289 . S
O1567 Co1557 2.015 . S
O1567 C1577 1.257 . S
O1568 Co1553 2.111 . S
O1568 C1578 1.274 . S
O1569 Co1558 1.976 . S
O1569 C1578 1.251 . S
O1570 Co1557 2.264 . S
O1570 Co1558 2.327 . S
O1570 C1579 1.257 . S
O1571 Co1558 2.073 . S
O1571 C1579 1.245 . S
C1572 O1580 1.259 . S
C1572 O1581 1.289 . S
C1573 O1582 1.246 . S
C1573 O1583 1.257 . S
C1574 O1562 1.251 . S
C1574 O1563 1.274 . S
C1575 O1560 1.245 . S
C1575 O1561 1.257 . S
C1576 O1565 1.259 . S
C1576 O1566 1.289 . S
C1577 O1564 1.246 . S
C1577 O1567 1.257 . S
C1578 O1568 1.274 . S
C1578 O1569 1.251 . S
C1579 O1570 1.257 . S
C1579 O1571 1.245 . S
O1580 Co1551 2.286 . S
O1580 C1572 1.259 . S
O1581 Co1551 2.069 . S
O1581 C1572 1.289 . S
O1582 Co1553 2.143 . S
O1582 C1573 1.246 . S
O1583 Co1551 2.015 . S
O1583 C1573 1.257 . S
C1584 C1585 1.387 . S
C1584 H1588 0.950 . S
C1584 C1593 1.390 . S
C1585 C1584 1.387 . S
C1585 C1587 1.387 . S
H1586 C1593 0.950 . S
C1587 C1585 1.387 . S
C1587 C1589 1.390 . S
C1587 H1591 0.950 . S
H1588 C1584 0.950 . S
C1589 C1587 1.390 . S
C1589 C1590 1.380 1_565 S
C1589 H1592 0.934 1_565 S
C1590 C1589 1.380 1_545 S
C1590 C1593 1.379 1_545 S
H1591 C1587 0.950 . S
H1592 C1589 0.934 1_545 S
C1593 C1584 1.390 . S
C1593 H1586 0.950 . S
C1593 C1590 1.379 1_565 S
C1594 C1595 1.387 . S
C1594 H1598 0.950 . S
C1594 C1603 1.390 . S
C1595 C1594 1.387 . S
C1595 C1597 1.387 . S
H1596 C1603 0.950 . S
C1597 C1595 1.387 . S
C1597 C1599 1.390 . S
C1597 H1601 0.950 . S
H1598 C1594 0.950 . S
C1599 C1597 1.390 . S
C1599 C1600 1.387 . S
C1599 H1602 0.950 . S
C1600 C1599 1.387 . S
C1600 C1603 1.387 . S
H1601 C1597 0.950 . S
H1602 C1599 0.950 . S
C1603 C1594 1.390 . S
C1603 H1596 0.950 . S
C1603 C1600 1.387 . S
C1604 C1605 1.387 1_554 S
C1604 H1608 0.950 . S
C1604 C1613 1.390 . S
C1605 C1604 1.387 1_556 S
C1605 C1607 1.387 1_556 S
H1606 C1613 0.950 . S
C1607 C1605 1.387 1_554 S
C1607 C1609 1.390 . S
C1607 H1611 0.950 1_554 S
H1608 C1604 0.950 . S
C1609 C1607 1.390 . S
C1609 C1610 1.387 . S
C1609 H1612 0.950 . S
C1610 C1609 1.387 . S
C1610 C1613 1.387 . S
H1611 C1607 0.950 1_556 S
H1612 C1609 0.950 . S
C1613 C1604 1.390 . S
C1613 H1606 0.950 . S
C1613 C1610 1.387 . S
C1614 C1615 1.387 . S
C1614 H1618 0.950 . S
C1614 C1623 1.390 . S
C1615 C1614 1.387 . S
C1615 C1617 1.387 . S
H1616 C1623 0.950 . S
C1617 C1615 1.387 . S
C1617 C1619 1.390 . S
C1617 H1621 0.950 . S
H1618 C1614 0.950 . S
C1619 C1617 1.390 . S
C1619 C1620 1.387 . S
C1619 H1622 0.950 . S
C1620 C1619 1.387 . S
C1620 C1623 1.387 . S
H1621 C1617 0.950 . S
H1622 C1619 0.950 . S
C1623 C1614 1.390 . S
C1623 H1616 0.950 . S
C1623 C1620 1.387 . S
C1624 C1625 1.387 . S
C1624 H1628 0.950 . S
C1624 C1633 1.390 . S
C1625 C1624 1.387 . S
C1625 C1627 1.387 . S
H1626 C1633 0.950 . S
C1627 C1625 1.387 . S
C1627 C1629 1.390 . S
C1627 H1631 0.950 . S
H1628 C1624 0.950 . S
C1629 C1627 1.390 . S
C1629 C1630 1.387 . S
C1629 H1632 0.950 . S
C1630 C1629 1.387 . S
C1630 C1633 1.387 . S
H1631 C1627 0.950 . S
H1632 C1629 0.950 . S
C1633 C1624 1.390 . S
C1633 H1626 0.950 . S
C1633 C1630 1.387 . S
C1634 C1635 1.387 . S
C1634 H1638 0.950 . S
C1634 C1643 1.390 . S
C1635 C1634 1.387 . S
C1635 C1637 1.387 . S
H1636 C1643 0.950 . S
C1637 C1635 1.387 . S
C1637 C1639 1.390 . S
C1637 H1641 0.950 . S
H1638 C1634 0.950 . S
C1639 C1637 1.390 . S
C1639 C1640 1.387 . S
C1639 H1642 0.950 . S
C1640 C1639 1.387 . S
C1640 C1643 1.387 . S
H1641 C1637 0.950 . S
H1642 C1639 0.950 . S
C1643 C1634 1.390 . S
C1643 H1636 0.950 . S
C1643 C1640 1.387 . S
C1644 C1645 1.387 . S
C1644 H1648 0.937 1_565 S
C1644 C1653 1.390 . S
C1645 C1644 1.387 . S
C1645 C1647 1.387 . S
H1646 C1653 0.950 . S
C1647 C1645 1.387 . S
C1647 C1649 1.390 . S
C1647 H1651 0.950 . S
H1648 C1644 0.937 1_545 S
C1649 C1647 1.390 . S
C1649 C1650 1.387 . S
C1649 H1652 0.950 . S
C1650 C1649 1.387 . S
C1650 C1653 1.387 . S
H1651 C1647 0.950 . S
H1652 C1649 0.950 . S
C1653 C1644 1.390 . S
C1653 H1646 0.950 . S
C1653 C1650 1.387 . S
C1654 C1655 1.387 . S
C1654 H1658 0.950 . S
C1654 C1663 1.390 . S
C1655 C1654 1.387 . S
C1655 C1657 1.387 . S
H1656 C1663 0.950 . S
C1657 C1655 1.387 . S
C1657 C1659 1.390 . S
C1657 H1661 0.950 . S
H1658 C1654 0.950 . S
C1659 C1657 1.390 . S
C1659 C1660 1.387 . S
C1659 H1662 0.950 . S
C1660 C1659 1.387 . S
C1660 C1663 1.387 . S
H1661 C1657 0.950 . S
H1662 C1659 0.950 . S
C1663 C1654 1.390 . S
C1663 H1656 0.950 . S
C1663 C1660 1.387 . S
C1664 C1665 1.387 . S
C1664 H1668 0.950 . S
C1664 C1673 1.390 1_554 S
C1665 C1664 1.387 . S
C1665 C1667 1.387 . S
H1666 C1673 0.950 . S
C1667 C1665 1.387 . S
C1667 C1669 1.390 1_554 S
C1667 H1671 0.950 . S
H1668 C1664 0.950 . S
C1669 C1667 1.390 1_556 S
C1669 C1670 1.387 . S
C1669 H1672 0.950 . S
C1670 C1669 1.387 . S
C1670 C1673 1.387 . S
H1671 C1667 0.950 . S
H1672 C1669 0.950 . S
C1673 C1664 1.390 1_556 S
C1673 H1666 0.950 . S
C1673 C1670 1.387 . S
C1674 C1675 1.387 . S
C1674 H1678 0.950 . S
C1674 C1683 1.390 . S
C1675 C1674 1.387 . S
C1675 C1677 1.387 . S
H1676 C1683 0.950 . S
C1677 C1675 1.387 . S
C1677 C1679 1.390 . S
C1677 H1681 0.950 . S
H1678 C1674 0.950 . S
C1679 C1677 1.390 . S
C1679 C1680 1.387 . S
C1679 H1682 0.950 . S
C1680 C1679 1.387 . S
C1680 C1683 1.387 . S
H1681 C1677 0.950 . S
H1682 C1679 0.950 . S
C1683 C1674 1.390 . S
C1683 H1676 0.950 . S
C1683 C1680 1.387 . S
C1684 C1685 1.387 . S
C1684 H1688 0.950 . S
C1684 C1693 1.390 . S
C1685 C1684 1.387 . S
C1685 C1687 1.387 . S
H1686 C1693 0.950 . S
C1687 C1685 1.387 . S
C1687 C1689 1.390 . S
C1687 H1691 0.950 . S
H1688 C1684 0.950 . S
C1689 C1687 1.390 . S
C1689 C1690 1.387 . S
C1689 H1692 0.950 . S
C1690 C1689 1.387 . S
C1690 C1693 1.387 . S
H1691 C1687 0.950 . S
H1692 C1689 0.950 . S
C1693 C1684 1.390 . S
C1693 H1686 0.950 . S
C1693 C1690 1.387 . S
C1694 C1695 1.387 . S
C1694 H1698 0.950 . S
C1694 C1703 1.390 . S
C1695 C1694 1.387 . S
C1695 C1697 1.387 . S
H1696 C1703 0.950 . S
C1697 C1695 1.387 . S
C1697 C1699 1.390 . S
C1697 H1701 0.950 . S
H1698 C1694 0.950 . S
C1699 C1697 1.390 . S
C1699 C1700 1.387 . S
C1699 H1702 0.950 . S
C1700 C1699 1.387 . S
C1700 C1703 1.387 . S
H1701 C1697 0.950 . S
H1702 C1699 0.950 . S
C1703 C1694 1.390 . S
C1703 H1696 0.950 . S
C1703 C1700 1.387 . S
C1704 C1705 1.387 . S
C1704 H1708 0.950 . S
C1704 C1713 1.390 . S
C1705 C1704 1.387 . S
C1705 C1707 1.387 . S
H1706 C1713 0.950 . S
C1707 C1705 1.387 . S
C1707 C1709 1.390 . S
C1707 H1711 0.950 . S
H1708 C1704 0.950 . S
C1709 C1707 1.390 . S
C1709 C1710 1.387 . S
C1709 H1712 0.950 . S
C1710 C1709 1.387 . S
C1710 C1713 1.387 . S
H1711 C1707 0.950 . S
H1712 C1709 0.950 . S
C1713 C1704 1.390 . S
C1713 H1706 0.950 . S
C1713 C1710 1.387 . S
C1714 C1715 1.387 . S
C1714 H1718 0.950 . S
C1714 C1723 1.390 . S
C1715 C1714 1.387 . S
C1715 C1717 1.387 . S
H1716 C1723 0.950 . S
C1717 C1715 1.387 . S
C1717 C1719 1.390 . S
C1717 H1721 0.950 . S
H1718 C1714 0.950 . S
C1719 C1717 1.390 . S
C1719 C1720 1.387 . S
C1719 H1722 0.950 . S
C1720 C1719 1.387 . S
C1720 C1723 1.387 . S
H1721 C1717 0.950 . S
H1722 C1719 0.950 . S
C1723 C1714 1.390 . S
C1723 H1716 0.950 . S
C1723 C1720 1.387 . S
C1724 C1725 1.387 . S
C1724 H1728 0.950 . S
C1724 C1733 1.390 . S
C1725 C1724 1.387 . S
C1725 C1727 1.387 . S
H1726 C1733 0.950 . S
C1727 C1725 1.387 . S
C1727 C1729 1.390 . S
C1727 H1731 0.950 . S
H1728 C1724 0.950 . S
C1729 C1727 1.390 . S
C1729 C1730 1.387 . S
C1729 H1732 0.950 . S
C1730 C1729 1.387 . S
C1730 C1733 1.387 . S
H1731 C1727 0.950 . S
H1732 C1729 0.950 . S
C1733 C1724 1.390 . S
C1733 H1726 0.950 . S
C1733 C1730 1.387 . S
C1734 C1735 1.387 1_556 S
C1734 H1738 0.950 . S
C1734 C1743 1.390 . S
C1735 C1734 1.387 1_554 S
C1735 C1737 1.387 . S
H1736 C1743 0.950 . S
C1737 C1735 1.387 . S
C1737 C1739 1.390 . S
C1737 H1741 0.950 . S
H1738 C1734 0.950 . S
C1739 C1737 1.390 . S
C1739 C1740 1.387 1_554 S
C1739 H1742 0.950 . S
C1740 C1739 1.387 1_556 S
C1740 C1743 1.387 . S
H1741 C1737 0.950 . S
H1742 C1739 0.950 . S
C1743 C1734 1.390 . S
C1743 H1736 0.950 . S
C1743 C1740 1.387 . S
C1744 C1745 1.387 1_655 S
C1744 H1748 0.948 1_655 S
C1744 C1753 1.390 . S
C1745 C1744 1.387 1_455 S
C1745 C1747 1.387 1_455 S
H1746 C1753 0.950 . S
C1747 C1745 1.387 1_655 S
C1747 C1749 1.390 . S
C1747 H1751 0.959 . S
H1748 C1744 0.948 1_455 S
C1749 C1747 1.390 . S
C1749 C1750 1.387 . S
C1749 H1752 0.950 . S
C1750 C1749 1.387 . S
C1750 C1753 1.387 . S
H1751 C1747 0.959 . S
H1752 C1749 0.950 . S
C1753 C1744 1.390 . S
C1753 H1746 0.950 . S
C1753 C1750 1.387 . S
C1754 C1755 1.387 . S
C1754 H1758 0.950 . S
C1754 C1763 1.390 . S
C1755 C1754 1.387 . S
C1755 C1757 1.387 . S
H1756 C1763 0.950 . S
C1757 C1755 1.387 . S
C1757 C1759 1.390 . S
C1757 H1761 0.950 . S
H1758 C1754 0.950 . S
C1759 C1757 1.390 . S
C1759 C1760 1.387 . S
C1759 H1762 0.950 . S
C1760 C1759 1.387 . S
C1760 C1763 1.387 . S
H1761 C1757 0.950 . S
H1762 C1759 0.950 . S
C1763 C1754 1.390 . S
C1763 H1756 0.950 . S
C1763 C1760 1.387 . S
C1764 C1765 1.387 . S
C1764 H1768 0.950 . S
C1764 C1773 1.390 . S
C1765 C1764 1.387 . S
C1765 C1767 1.387 . S
H1766 C1773 0.950 . S
C1767 C1765 1.387 . S
C1767 C1769 1.390 . S
C1767 H1771 0.950 . S
H1768 C1764 0.950 . S
C1769 C1767 1.390 . S
C1769 C1770 1.387 . S
C1769 H1772 0.950 . S
C1770 C1769 1.387 . S
C1770 C1773 1.387 . S
H1771 C1767 0.950 . S
H1772 C1769 0.950 . S
C1773 C1764 1.390 . S
C1773 H1766 0.950 . S
C1773 C1770 1.387 . S
C1774 C1775 1.387 . S
C1774 H1778 0.950 . S
C1774 C1783 1.390 1_545 S
C1775 C1774 1.387 . S
C1775 C1777 1.387 . S
H1776 C1783 0.950 . S
C1777 C1775 1.387 . S
C1777 C1779 1.390 1_545 S
C1777 H1781 0.950 . S
H1778 C1774 0.950 . S
C1779 C1777 1.390 1_565 S
C1779 C1780 1.387 . S
C1779 H1782 0.950 . S
C1780 C1779 1.387 . S
C1780 C1783 1.387 . S
H1781 C1777 0.950 . S
H1782 C1779 0.950 . S
C1783 C1774 1.390 1_565 S
C1783 H1776 0.950 . S
C1783 C1780 1.387 . S
C1784 C1785 1.387 . S
C1784 H1788 0.950 . S
C1784 C1793 1.390 . S
C1785 C1784 1.387 . S
C1785 C1787 1.387 . S
H1786 C1793 0.950 . S
C1787 C1785 1.387 . S
C1787 C1789 1.390 . S
C1787 H1791 0.950 . S
H1788 C1784 0.950 . S
C1789 C1787 1.390 . S
C1789 C1790 1.387 . S
C1789 H1792 0.950 . S
C1790 C1789 1.387 . S
C1790 C1793 1.387 . S
H1791 C1787 0.950 . S
H1792 C1789 0.950 . S
C1793 C1784 1.390 . S
C1793 H1786 0.950 . S
C1793 C1790 1.387 . S
C1794 C1795 1.387 . S
C1794 H1798 0.950 . S
C1794 C1803 1.390 . S
C1795 C1794 1.387 . S
C1795 C1797 1.387 . S
H1796 C1803 0.950 . S
C1797 C1795 1.387 . S
C1797 C1799 1.390 . S
C1797 H1801 0.950 . S
H1798 C1794 0.950 . S
C1799 C1797 1.390 . S
C1799 C1800 1.387 . S
C1799 H1802 0.950 . S
C1800 C1799 1.387 . S
C1800 C1803 1.387 . S
H1801 C1797 0.950 . S
H1802 C1799 0.950 . S
C1803 C1794 1.390 . S
C1803 H1796 0.950 . S
C1803 C1800 1.387 . S
C1804 C1805 1.387 1_565 S
C1804 H1808 0.953 . S
C1804 C1813 1.390 . S
C1805 C1804 1.387 1_545 S
C1805 C1807 1.378 1_545 S
H1806 C1813 0.950 . S
C1807 C1805 1.378 1_565 S
C1807 C1809 1.417 . S
C1807 H1811 0.933 1_565 S
H1808 C1804 0.953 . S
C1809 C1807 1.417 . S
C1809 C1810 1.387 . S
C1809 H1812 0.950 . S
C1810 C1809 1.387 . S
C1810 C1813 1.387 . S
H1811 C1807 0.933 1_545 S
H1812 C1809 0.950 . S
C1813 C1804 1.390 . S
C1813 H1806 0.950 . S
C1813 C1810 1.387 . S
C1814 C1815 1.387 . S
C1814 H1818 0.950 . S
C1814 C1823 1.390 1_655 S
C1815 C1814 1.387 . S
C1815 C1817 1.387 . S
H1816 C1823 0.950 . S
C1817 C1815 1.387 . S
C1817 C1819 1.390 1_655 S
C1817 H1821 0.950 . S
H1818 C1814 0.950 . S
C1819 C1817 1.390 1_455 S
C1819 C1820 1.387 . S
C1819 H1822 0.950 . S
C1820 C1819 1.387 . S
C1820 C1823 1.387 . S
H1821 C1817 0.950 . S
H1822 C1819 0.950 . S
C1823 C1814 1.390 1_455 S
C1823 H1816 0.950 . S
C1823 C1820 1.387 . S
C1824 C1825 1.387 . S
C1824 H1828 0.950 . S
C1824 C1833 1.390 1_545 S
C1825 C1824 1.387 . S
C1825 C1827 1.387 1_545 S
H1826 C1833 0.950 . S
C1827 C1825 1.387 1_565 S
C1827 C1829 1.390 . S
C1827 H1831 0.950 . S
H1828 C1824 0.950 . S
C1829 C1827 1.390 . S
C1829 C1830 1.387 . S
C1829 H1832 0.950 . S
C1830 C1829 1.387 . S
C1830 C1833 1.387 . S
H1831 C1827 0.950 . S
H1832 C1829 0.950 . S
C1833 C1824 1.390 1_565 S
C1833 H1826 0.950 . S
C1833 C1830 1.387 . S
C1834 C1835 1.394 . S
C1834 H1838 0.950 . S
C1834 C1843 1.383 1_655 S
C1835 C1834 1.394 . S
C1835 C1837 1.387 . S
H1836 C1843 0.950 . S
C1837 C1835 1.387 . S
C1837 C1839 1.390 1_655 S
C1837 H1841 0.950 . S
H1838 C1834 0.950 . S
C1839 C1837 1.390 1_455 S
C1839 C1840 1.387 . S
C1839 H1842 0.950 . S
C1840 C1839 1.387 . S
C1840 C1843 1.387 . S
H1841 C1837 0.950 . S
H1842 C1839 0.950 . S
C1843 C1834 1.383 1_455 S
C1843 H1836 0.950 . S
C1843 C1840 1.387 . S
C1844 C1845 1.387 . S
C1844 H1848 0.950 . S
C1844 C1853 1.390 1_556 S
C1845 C1844 1.387 . S
C1845 C1847 1.387 1_556 S
H1846 C1853 0.950 . S
C1847 C1845 1.387 1_554 S
C1847 C1849 1.390 . S
C1847 H1851 0.950 . S
H1848 C1844 0.950 . S
C1849 C1847 1.390 . S
C1849 C1850 1.387 . S
C1849 H1852 0.950 . S
C1850 C1849 1.387 . S
C1850 C1853 1.387 . S
H1851 C1847 0.950 . S
H1852 C1849 0.950 . S
C1853 C1844 1.390 1_554 S
C1853 H1846 0.950 . S
C1853 C1850 1.387 . S
C1854 C1855 1.387 . S
C1854 H1858 0.950 . S
C1854 C1863 1.390 . S
C1855 C1854 1.387 . S
C1855 C1857 1.387 . S
H1856 C1863 0.950 . S
C1857 C1855 1.387 . S
C1857 C1859 1.390 . S
C1857 H1861 0.950 . S
H1858 C1854 0.950 . S
C1859 C1857 1.390 . S
C1859 C1860 1.387 . S
C1859 H1862 0.950 1_556 S
C1860 C1859 1.387 . S
C1860 C1863 1.386 . S
H1861 C1857 0.950 . S
H1862 C1859 0.950 1_554 S
C1863 C1854 1.390 . S
C1863 H1856 0.950 . S
C1863 C1860 1.386 . S
C1864 C1865 1.387 . S
C1864 H1868 0.950 . S
C1864 C1873 1.390 1_545 S
C1865 C1864 1.387 . S
C1865 C1867 1.387 . S
H1866 C1873 0.950 . S
C1867 C1865 1.387 . S
C1867 C1869 1.390 1_545 S
C1867 H1871 0.950 . S
H1868 C1864 0.950 . S
C1869 C1867 1.390 1_565 S
C1869 C1870 1.387 . S
C1869 H1872 0.950 . S
C1870 C1869 1.387 . S
C1870 C1873 1.387 . S
H1871 C1867 0.950 . S
H1872 C1869 0.950 . S
C1873 C1864 1.390 1_565 S
C1873 H1866 0.950 . S
C1873 C1870 1.387 . S
C1874 C1875 1.387 1_455 S
C1874 H1878 0.950 1_455 S
C1874 C1883 1.390 . S
C1875 C1874 1.387 1_655 S
C1875 C1877 1.369 1_655 S
H1876 C1883 0.950 . S
C1877 C1875 1.369 1_455 S
C1877 C1879 1.427 . S
C1877 H1881 0.933 1_455 S
H1878 C1874 0.950 1_655 S
C1879 C1877 1.427 . S
C1879 C1880 1.387 . S
C1879 H1882 0.950 . S
C1880 C1879 1.387 . S
C1880 C1883 1.387 . S
H1881 C1877 0.933 1_655 S
H1882 C1879 0.950 . S
C1883 C1874 1.390 . S
C1883 H1876 0.950 . S
C1883 C1880 1.387 . S
C1884 C1885 1.387 . S
C1884 H1888 0.950 . S
C1884 C1893 1.390 . S
C1885 C1884 1.387 . S
C1885 C1887 1.387 . S
H1886 C1893 0.950 1_554 S
C1887 C1885 1.387 . S
C1887 C1889 1.376 1_556 S
C1887 H1891 0.950 . S
H1888 C1884 0.950 . S
C1889 C1887 1.376 1_554 S
C1889 C1890 1.394 . S
C1889 H1892 0.957 . S
C1890 C1889 1.394 . S
C1890 C1893 1.387 1_554 S
H1891 C1887 0.950 . S
H1892 C1889 0.957 . S
C1893 C1884 1.390 . S
C1893 H1886 0.950 1_556 S
C1893 C1890 1.387 1_556 S
C1894 C1895 1.387 . S
C1894 H1898 0.950 . S
C1894 C1903 1.390 . S
C1895 C1894 1.387 . S
C1895 C1897 1.387 . S
H1896 C1903 0.950 . S
C1897 C1895 1.387 . S
C1897 C1899 1.390 . S
C1897 H1901 0.950 . S
H1898 C1894 0.950 . S
C1899 C1897 1.390 . S
C1899 C1900 1.387 . S
C1899 H1902 0.950 . S
C1900 C1899 1.387 . S
C1900 C1903 1.387 . S
H1901 C1897 0.950 . S
H1902 C1899 0.950 . S
C1903 C1894 1.390 . S
C1903 H1896 0.950 . S
C1903 C1900 1.387 . S
C1904 C1905 1.387 . S
C1904 H1908 0.950 . S
C1904 C1913 1.390 . S
C1905 C1904 1.387 . S
C1905 C1907 1.387 . S
H1906 C1913 0.950 . S
C1907 C1905 1.387 . S
C1907 C1909 1.390 . S
C1907 H1911 0.950 . S
H1908 C1904 0.950 . S
C1909 C1907 1.390 . S
C1909 C1910 1.387 . S
C1909 H1912 0.950 . S
C1910 C1909 1.387 . S
C1910 C1913 1.387 . S
H1911 C1907 0.950 . S
H1912 C1909 0.950 . S
C1913 C1904 1.390 . S
C1913 H1906 0.950 . S
C1913 C1910 1.387 . S
C1914 C1915 1.387 . S
C1914 H1918 0.950 . S
C1914 C1923 1.390 . S
C1915 C1914 1.387 . S
C1915 C1917 1.387 . S
H1916 C1923 0.950 . S
C1917 C1915 1.387 . S
C1917 C1919 1.390 . S
C1917 H1921 0.950 . S
H1918 C1914 0.950 . S
C1919 C1917 1.390 . S
C1919 C1920 1.387 . S
C1919 H1922 0.950 . S
C1920 C1919 1.387 . S
C1920 C1923 1.387 . S
H1921 C1917 0.950 . S
H1922 C1919 0.950 . S
C1923 C1914 1.390 . S
C1923 H1916 0.950 . S
C1923 C1920 1.387 . S
C1924 C1925 1.387 . S
C1924 H1928 0.950 . S
C1924 C1933 1.390 . S
C1925 C1924 1.387 . S
C1925 C1927 1.387 . S
H1926 C1933 0.950 . S
C1927 C1925 1.387 . S
C1927 C1929 1.390 . S
C1927 H1931 0.950 . S
H1928 C1924 0.950 . S
C1929 C1927 1.390 . S
C1929 C1930 1.387 . S
C1929 H1932 0.950 . S
C1930 C1929 1.387 . S
C1930 C1933 1.387 . S
H1931 C1927 0.950 . S
H1932 C1929 0.950 . S
C1933 C1924 1.390 . S
C1933 H1926 0.950 . S
C1933 C1930 1.387 . S
C1934 C1935 1.387 . S
C1934 H1938 0.950 . S
C1934 C1943 1.390 1_554 S
C1935 C1934 1.387 . S
C1935 C1937 1.387 . S
H1936 C1943 0.950 . S
C1937 C1935 1.387 . S
C1937 C1939 1.417 . S
C1937 H1941 0.950 . S
H1938 C1934 0.950 . S
C1939 C1937 1.417 . S
C1939 C1940 1.364 1_554 S
C1939 H1942 0.948 . S
C1940 C1939 1.364 1_556 S
C1940 C1943 1.387 . S
H1941 C1937 0.950 . S
H1942 C1939 0.948 . S
C1943 C1934 1.390 1_556 S
C1943 H1936 0.950 . S
C1943 C1940 1.387 . S
C1944 C1945 1.387 . S
C1944 H1948 0.950 . S
C1944 C1953 1.390 . S
C1945 C1944 1.387 . S
C1945 C1947 1.387 . S
H1946 C1953 0.950 1_655 S
C1947 C1945 1.387 . S
C1947 C1949 1.390 . S
C1947 H1951 0.950 . S
H1948 C1944 0.950 . S
C1949 C1947 1.390 . S
C1949 C1950 1.387 1_455 S
C1949 H1952 0.950 . S
C1950 C1949 1.387 1_655 S
C1950 C1953 1.387 1_655 S
H1951 C1947 0.950 . S
H1952 C1949 0.950 . S
C1953 C1944 1.390 . S
C1953 H1946 0.950 1_455 S
C1953 C1950 1.387 1_455 S
C1954 C1955 1.387 . S
C1954 H1958 0.950 . S
C1954 C1963 1.390 . S
C1955 C1954 1.387 . S
C1955 C1957 1.387 . S
H1956 C1963 0.950 . S
C1957 C1955 1.387 . S
C1957 C1959 1.390 . S
C1957 H1961 0.950 . S
H1958 C1954 0.950 . S
C1959 C1957 1.390 . S
C1959 C1960 1.387 . S
C1959 H1962 0.950 . S
C1960 C1959 1.387 . S
C1960 C1963 1.387 . S
H1961 C1957 0.950 . S
H1962 C1959 0.950 . S
C1963 C1954 1.390 . S
C1963 H1956 0.950 . S
C1963 C1960 1.387 . S
C1964 C1965 1.387 . S
C1964 H1968 0.950 . S
C1964 C1973 1.390 . S
C1965 C1964 1.387 . S
C1965 C1967 1.387 . S
H1966 C1973 0.950 . S
C1967 C1965 1.387 . S
C1967 C1969 1.390 . S
C1967 H1971 0.950 . S
H1968 C1964 0.950 . S
C1969 C1967 1.390 . S
C1969 C1970 1.387 . S
C1969 H1972 0.950 . S
C1970 C1969 1.387 . S
C1970 C1973 1.387 . S
H1971 C1967 0.950 . S
H1972 C1969 0.950 . S
C1973 C1964 1.390 . S
C1973 H1966 0.950 . S
C1973 C1970 1.387 . S
C1974 C1975 1.387 . S
C1974 H1978 0.950 . S
C1974 C1983 1.390 . S
C1975 C1974 1.387 . S
C1975 C1977 1.387 . S
H1976 C1983 0.950 . S
C1977 C1975 1.387 . S
C1977 C1979 1.390 . S
C1977 H1981 0.950 . S
H1978 C1974 0.950 . S
C1979 C1977 1.390 . S
C1979 C1980 1.387 . S
C1979 H1982 0.950 . S
C1980 C1979 1.387 . S
C1980 C1983 1.387 . S
H1981 C1977 0.950 . S
H1982 C1979 0.950 . S
C1983 C1974 1.390 . S
C1983 H1976 0.950 . S
C1983 C1980 1.387 . S
C1984 C1985 1.387 . S
C1984 H1988 0.950 . S
C1984 C1993 1.390 . S
C1985 C1984 1.387 . S
C1985 C1987 1.387 . S
H1986 C1993 0.950 . S
C1987 C1985 1.387 . S
C1987 C1989 1.390 . S
C1987 H1991 0.950 . S
H1988 C1984 0.950 . S
C1989 C1987 1.390 . S
C1989 C1990 1.387 . S
C1989 H1992 0.950 . S
C1990 C1989 1.387 . S
C1990 C1993 1.387 . S
H1991 C1987 0.950 . S
H1992 C1989 0.950 . S
C1993 C1984 1.390 . S
C1993 H1986 0.950 . S
C1993 C1990 1.387 . S
C1994 C1995 1.387 . S
C1994 H1998 0.950 . S
C1994 C2003 1.390 1_455 S
C1995 C1994 1.387 . S
C1995 C1997 1.387 1_455 S
H1996 C2003 0.950 . S
C1997 C1995 1.387 1_655 S
C1997 C1999 1.390 . S
C1997 H2001 0.950 . S
H1998 C1994 0.950 . S
C1999 C1997 1.390 . S
C1999 C2000 1.387 . S
C1999 H2002 0.950 . S
C2000 C1999 1.387 . S
C2000 C2003 1.387 . S
H2001 C1997 0.950 . S
H2002 C1999 0.950 . S
C2003 C1994 1.390 1_655 S
C2003 H1996 0.950 . S
C2003 C2000 1.387 . S
C2004 C2005 1.387 . S
C2004 H2008 0.950 . S
C2004 C2013 1.390 . S
C2005 C2004 1.387 . S
C2005 C2007 1.387 . S
H2006 C2013 0.950 . S
C2007 C2005 1.387 . S
C2007 C2009 1.390 . S
C2007 H2011 0.950 . S
H2008 C2004 0.950 . S
C2009 C2007 1.390 . S
C2009 C2010 1.387 . S
C2009 H2012 0.950 . S
C2010 C2009 1.387 . S
C2010 C2013 1.387 . S
H2011 C2007 0.950 . S
H2012 C2009 0.950 . S
C2013 C2004 1.390 . S
C2013 H2006 0.950 . S
C2013 C2010 1.387 . S
C2014 C2015 1.387 . S
C2014 H2018 0.950 . S
C2014 C2023 1.390 . S
C2015 C2014 1.387 . S
C2015 C2017 1.387 . S
H2016 C2023 0.950 . S
C2017 C2015 1.387 . S
C2017 C2019 1.390 . S
C2017 H2021 0.950 . S
H2018 C2014 0.950 . S
C2019 C2017 1.390 . S
C2019 C2020 1.387 . S
C2019 H2022 0.950 . S
C2020 C2019 1.387 . S
C2020 C2023 1.387 . S
H2021 C2017 0.950 . S
H2022 C2019 0.950 . S
C2023 C2014 1.390 . S
C2023 H2016 0.950 . S
C2023 C2020 1.387 . S
C2024 C2025 1.387 . S
C2024 H2028 0.950 . S
C2024 C2033 1.390 . S
C2025 C2024 1.387 . S
C2025 C2027 1.387 . S
H2026 C2033 0.950 . S
C2027 C2025 1.387 . S
C2027 C2029 1.390 . S
C2027 H2031 0.950 . S
H2028 C2024 0.950 . S
C2029 C2027 1.390 . S
C2029 C2030 1.387 . S
C2029 H2032 0.950 . S
C2030 C2029 1.387 . S
C2030 C2033 1.387 . S
H2031 C2027 0.950 . S
H2032 C2029 0.950 . S
C2033 C2024 1.390 . S
C2033 H2026 0.950 . S
C2033 C2030 1.387 . S
C2034 C2035 1.387 . S
C2034 H2038 0.950 . S
C2034 C2043 1.390 . S
C2035 C2034 1.387 . S
C2035 C2037 1.387 . S
H2036 C2043 0.950 . S
C2037 C2035 1.387 . S
C2037 C2039 1.390 . S
C2037 H2041 0.950 . S
H2038 C2034 0.950 . S
C2039 C2037 1.390 . S
C2039 C2040 1.387 . S
C2039 H2042 0.950 . S
C2040 C2039 1.387 . S
C2040 C2043 1.387 . S
H2041 C2037 0.950 . S
H2042 C2039 0.950 . S
C2043 C2034 1.390 . S
C2043 H2036 0.950 . S
C2043 C2040 1.387 . S
C2044 C2045 1.387 . S
C2044 H2048 0.950 . S
C2044 C2053 1.390 . S
C2045 C2044 1.387 . S
C2045 C2047 1.387 . S
H2046 C2053 0.950 . S
C2047 C2045 1.387 . S
C2047 C2049 1.390 . S
C2047 H2051 0.950 . S
H2048 C2044 0.950 . S
C2049 C2047 1.390 . S
C2049 C2050 1.387 . S
C2049 H2052 0.950 . S
C2050 C2049 1.387 . S
C2050 C2053 1.387 . S
H2051 C2047 0.950 . S
H2052 C2049 0.950 . S
C2053 C2044 1.390 . S
C2053 H2046 0.950 . S
C2053 C2050 1.387 . S
C2054 C2055 1.387 . S
C2054 H2058 0.950 . S
C2054 C2063 1.368 1_556 S
C2055 C2054 1.387 . S
C2055 C2057 1.387 . S
H2056 C2063 0.962 . S
C2057 C2055 1.387 . S
C2057 C2059 1.390 . S
C2057 H2061 0.950 . S
H2058 C2054 0.950 . S
C2059 C2057 1.390 . S
C2059 C2060 1.387 1_556 S
C2059 H2062 0.950 1_556 S
C2060 C2059 1.387 1_554 S
C2060 C2063 1.398 . S
H2061 C2057 0.950 . S
H2062 C2059 0.950 1_554 S
C2063 C2054 1.368 1_554 S
C2063 H2056 0.962 . S
C2063 C2060 1.398 . S
C2064 C2065 1.387 . S
C2064 H2068 0.950 . S
C2064 C2073 1.390 . S
C2065 C2064 1.387 . S
C2065 C2067 1.387 . S
H2066 C2073 0.950 . S
C2067 C2065 1.387 . S
C2067 C2069 1.390 . S
C2067 H2071 0.950 . S
H2068 C2064 0.950 . S
C2069 C2067 1.390 . S
C2069 C2070 1.387 . S
C2069 H2072 0.950 . S
C2070 C2069 1.387 . S
C2070 C2073 1.387 . S
H2071 C2067 0.950 . S
H2072 C2069 0.950 . S
C2073 C2064 1.390 . S
C2073 H2066 0.950 . S
C2073 C2070 1.387 . S
C2074 C2075 1.387 . S
C2074 H2078 0.950 . S
C2074 C2083 1.390 . S
C2075 C2074 1.387 . S
C2075 C2077 1.387 . S
H2076 C2083 0.950 . S
C2077 C2075 1.387 . S
C2077 C2079 1.390 . S
C2077 H2081 0.950 . S
H2078 C2074 0.950 . S
C2079 C2077 1.390 . S
C2079 C2080 1.387 . S
C2079 H2082 0.950 . S
C2080 C2079 1.387 . S
C2080 C2083 1.387 . S
H2081 C2077 0.950 . S
H2082 C2079 0.950 . S
C2083 C2074 1.390 . S
C2083 H2076 0.950 . S
C2083 C2080 1.387 . S
C2084 C2085 1.387 . S
C2084 H2088 0.950 . S
C2084 C2093 1.390 1_545 S
C2085 C2084 1.387 . S
C2085 C2087 1.387 . S
H2086 C2093 0.950 . S
C2087 C2085 1.387 . S
C2087 C2089 1.390 1_545 S
C2087 H2091 0.950 . S
H2088 C2084 0.950 . S
C2089 C2087 1.390 1_565 S
C2089 C2090 1.387 . S
C2089 H2092 0.950 . S
C2090 C2089 1.387 . S
C2090 C2093 1.387 . S
H2091 C2087 0.950 . S
H2092 C2089 0.950 . S
C2093 C2084 1.390 1_565 S
C2093 H2086 0.950 . S
C2093 C2090 1.387 . S
C2094 C2095 1.387 . S
C2094 H2098 0.950 . S
C2094 C2103 1.390 . S
C2095 C2094 1.387 . S
C2095 C2097 1.387 . S
H2096 C2103 0.950 . S
C2097 C2095 1.387 . S
C2097 C2099 1.390 . S
C2097 H2101 0.950 . S
H2098 C2094 0.950 . S
C2099 C2097 1.390 . S
C2099 C2100 1.387 . S
C2099 H2102 0.950 . S
C2100 C2099 1.387 . S
C2100 C2103 1.387 . S
H2101 C2097 0.950 . S
H2102 C2099 0.950 . S
C2103 C2094 1.390 . S
C2103 H2096 0.950 . S
C2103 C2100 1.387 . S
C2104 C2105 1.387 . S
C2104 H2108 0.950 . S
C2104 C2113 1.390 . S
C2105 C2104 1.387 . S
C2105 C2107 1.387 . S
H2106 C2113 0.950 . S
C2107 C2105 1.387 . S
C2107 C2109 1.390 1_554 S
C2107 H2111 0.950 . S
H2108 C2104 0.950 . S
C2109 C2107 1.390 1_556 S
C2109 C2110 1.387 . S
C2109 H2112 0.950 . S
C2110 C2109 1.387 . S
C2110 C2113 1.387 1_556 S
H2111 C2107 0.950 . S
H2112 C2109 0.950 . S
C2113 C2104 1.390 . S
C2113 H2106 0.950 . S
C2113 C2110 1.387 1_554 S
C2114 C2115 1.387 . S
C2114 H2118 0.950 . S
C2114 C2123 1.390 . S
C2115 C2114 1.387 . S
C2115 C2117 1.387 . S
H2116 C2123 0.950 . S
C2117 C2115 1.387 . S
C2117 C2119 1.390 . S
C2117 H2121 0.950 . S
H2118 C2114 0.950 . S
C2119 C2117 1.390 . S
C2119 C2120 1.387 . S
C2119 H2122 0.950 . S
C2120 C2119 1.387 . S
C2120 C2123 1.387 . S
H2121 C2117 0.950 . S
H2122 C2119 0.950 . S
C2123 C2114 1.390 . S
C2123 H2116 0.950 . S
C2123 C2120 1.387 . S
C2124 C2125 1.387 . S
C2124 H2128 0.950 . S
C2124 C2133 1.390 . S
C2125 C2124 1.387 . S
C2125 C2127 1.387 . S
H2126 C2133 0.950 1_455 S
C2127 C2125 1.387 . S
C2127 C2129 1.390 . S
C2127 H2131 0.950 . S
H2128 C2124 0.950 . S
C2129 C2127 1.390 . S
C2129 C2130 1.387 1_655 S
C2129 H2132 0.967 . S
C2130 C2129 1.387 1_455 S
C2130 C2133 1.387 1_455 S
H2131 C2127 0.950 . S
H2132 C2129 0.967 . S
C2133 C2124 1.390 . S
C2133 H2126 0.950 1_655 S
C2133 C2130 1.387 1_655 S
C2134 C2135 1.387 . S
C2134 H2138 0.950 . S
C2134 C2143 1.390 . S
C2135 C2134 1.387 . S
C2135 C2137 1.387 . S
H2136 C2143 0.950 . S
C2137 C2135 1.387 . S
C2137 C2139 1.390 . S
C2137 H2141 0.950 . S
H2138 C2134 0.950 . S
C2139 C2137 1.390 . S
C2139 C2140 1.387 . S
C2139 H2142 0.950 . S
C2140 C2139 1.387 . S
C2140 C2143 1.387 . S
H2141 C2137 0.950 . S
H2142 C2139 0.950 . S
C2143 C2134 1.390 . S
C2143 H2136 0.950 . S
C2143 C2140 1.387 . S
C2144 C2145 1.387 . S
C2144 H2148 0.950 . S
C2144 C2153 1.390 . S
C2145 C2144 1.387 . S
C2145 C2147 1.387 . S
H2146 C2153 0.950 . S
C2147 C2145 1.387 . S
C2147 C2149 1.390 . S
C2147 H2151 0.950 . S
H2148 C2144 0.950 . S
C2149 C2147 1.390 . S
C2149 C2150 1.387 . S
C2149 H2152 0.950 . S
C2150 C2149 1.387 . S
C2150 C2153 1.387 . S
H2151 C2147 0.950 . S
H2152 C2149 0.950 . S
C2153 C2144 1.390 . S
C2153 H2146 0.950 . S
C2153 C2150 1.387 . S
C2154 C2155 1.387 . S
C2154 H2158 0.950 . S
C2154 C2163 1.390 . S
C2155 C2154 1.387 . S
C2155 C2157 1.387 . S
H2156 C2163 0.952 . S
C2157 C2155 1.387 . S
C2157 C2159 1.390 . S
C2157 H2161 0.950 . S
H2158 C2154 0.950 . S
C2159 C2157 1.390 . S
C2159 C2160 1.387 . S
C2159 H2162 0.950 . S
C2160 C2159 1.387 . S
C2160 C2163 1.387 . S
H2161 C2157 0.950 . S
H2162 C2159 0.950 . S
C2163 C2154 1.390 . S
C2163 H2156 0.952 . S
C2163 C2160 1.387 . S
C2164 C2165 1.387 . S
C2164 H2168 0.950 . S
C2164 C2173 1.390 . S
C2165 C2164 1.387 . S
C2165 C2167 1.387 . S
H2166 C2173 0.950 . S
C2167 C2165 1.387 . S
C2167 C2169 1.390 . S
C2167 H2171 0.950 . S
H2168 C2164 0.950 . S
C2169 C2167 1.390 . S
C2169 C2170 1.387 . S
C2169 H2172 0.950 . S
C2170 C2169 1.387 . S
C2170 C2173 1.387 . S
H2171 C2167 0.950 . S
H2172 C2169 0.950 . S
C2173 C2164 1.390 . S
C2173 H2166 0.950 . S
C2173 C2170 1.387 . S
C2174 C2175 1.387 . S
C2174 H2178 0.950 . S
C2174 C2183 1.390 1_455 S
C2175 C2174 1.387 . S
C2175 C2177 1.387 . S
H2176 C2183 0.950 . S
C2177 C2175 1.387 . S
C2177 C2179 1.390 1_455 S
C2177 H2181 0.950 . S
H2178 C2174 0.950 . S
C2179 C2177 1.390 1_655 S
C2179 C2180 1.387 . S
C2179 H2182 0.950 . S
C2180 C2179 1.387 . S
C2180 C2183 1.387 . S
H2181 C2177 0.950 . S
H2182 C2179 0.950 . S
C2183 C2174 1.390 1_655 S
C2183 H2176 0.950 . S
C2183 C2180 1.387 . S
C2184 C2185 1.387 . S
C2184 H2188 0.950 . S
C2184 C2193 1.390 1_655 S
C2185 C2184 1.387 . S
C2185 C2187 1.387 . S
H2186 C2193 0.950 . S
C2187 C2185 1.387 . S
C2187 C2189 1.390 1_655 S
C2187 H2191 0.950 . S
H2188 C2184 0.950 . S
C2189 C2187 1.390 1_455 S
C2189 C2190 1.387 . S
C2189 H2192 0.950 . S
C2190 C2189 1.387 . S
C2190 C2193 1.387 . S
H2191 C2187 0.950 . S
H2192 C2189 0.950 . S
C2193 C2184 1.390 1_455 S
C2193 H2186 0.950 . S
C2193 C2190 1.387 . S
C2194 C2195 1.387 . S
C2194 H2198 0.950 . S
C2194 C2203 1.390 . S
C2195 C2194 1.387 . S
C2195 C2197 1.387 . S
H2196 C2203 0.950 . S
C2197 C2195 1.387 . S
C2197 C2199 1.390 . S
C2197 H2201 0.950 . S
H2198 C2194 0.950 . S
C2199 C2197 1.390 . S
C2199 C2200 1.387 . S
C2199 H2202 0.950 . S
C2200 C2199 1.387 . S
C2200 C2203 1.387 . S
H2201 C2197 0.950 . S
H2202 C2199 0.950 . S
C2203 C2194 1.390 . S
C2203 H2196 0.950 . S
C2203 C2200 1.387 . S
C2204 C2205 1.387 . S
C2204 H2208 0.950 . S
C2204 C2213 1.390 . S
C2205 C2204 1.387 . S
C2205 C2207 1.387 . S
H2206 C2213 0.950 . S
C2207 C2205 1.387 . S
C2207 C2209 1.390 . S
C2207 H2211 0.950 . S
H2208 C2204 0.950 . S
C2209 C2207 1.390 . S
C2209 C2210 1.387 . S
C2209 H2212 0.950 . S
C2210 C2209 1.387 . S
C2210 C2213 1.387 . S
H2211 C2207 0.950 . S
H2212 C2209 0.950 . S
C2213 C2204 1.390 . S
C2213 H2206 0.950 . S
C2213 C2210 1.387 . S
C2214 C2215 1.387 1_455 S
C2214 H2218 0.950 1_455 S
C2214 C2223 1.404 . S
C2215 C2214 1.387 1_655 S
C2215 C2217 1.386 . S
H2216 C2223 0.946 1_556 S
C2217 C2215 1.386 . S
C2217 C2219 1.394 1_654 S
C2217 H2221 0.948 . S
H2218 C2214 0.950 1_655 S
C2219 C2217 1.394 1_456 S
C2219 C2220 1.387 . S
C2219 H2222 0.950 . S
C2220 C2219 1.387 . S
C2220 C2223 1.378 1_556 S
H2221 C2217 0.948 . S
H2222 C2219 0.950 . S
C2223 C2214 1.404 . S
C2223 H2216 0.946 1_554 S
C2223 C2220 1.378 1_554 S
C2224 C2225 1.387 . S
C2224 H2228 0.950 . S
C2224 C2233 1.390 . S
C2225 C2224 1.387 . S
C2225 C2227 1.387 . S
H2226 C2233 0.950 . S
C2227 C2225 1.387 . S
C2227 C2229 1.390 . S
C2227 H2231 0.950 . S
H2228 C2224 0.950 . S
C2229 C2227 1.390 . S
C2229 C2230 1.387 . S
C2229 H2232 0.950 . S
C2230 C2229 1.387 . S
C2230 C2233 1.387 . S
H2231 C2227 0.950 . S
H2232 C2229 0.950 . S
C2233 C2224 1.390 . S
C2233 H2226 0.950 . S
C2233 C2230 1.387 . S
C2234 C2235 1.387 . S
C2234 H2238 0.950 1_565 S
C2234 C2243 1.390 . S
C2235 C2234 1.387 . S
C2235 C2237 1.387 . S
H2236 C2243 0.950 . S
C2237 C2235 1.387 . S
C2237 C2239 1.390 . S
C2237 H2241 0.950 . S
H2238 C2234 0.950 1_545 S
C2239 C2237 1.390 . S
C2239 C2240 1.387 . S
C2239 H2242 0.950 . S
C2240 C2239 1.387 . S
C2240 C2243 1.387 . S
H2241 C2237 0.950 . S
H2242 C2239 0.950 . S
C2243 C2234 1.390 . S
C2243 H2236 0.950 . S
C2243 C2240 1.387 . S
C2244 C2245 1.387 . S
C2244 H2248 0.950 . S
C2244 C2253 1.390 . S
C2245 C2244 1.387 . S
C2245 C2247 1.387 . S
H2246 C2253 0.950 . S
C2247 C2245 1.387 . S
C2247 C2249 1.390 . S
C2247 H2251 0.950 . S
H2248 C2244 0.950 . S
C2249 C2247 1.390 . S
C2249 C2250 1.387 . S
C2249 H2252 0.950 . S
C2250 C2249 1.387 . S
C2250 C2253 1.387 . S
H2251 C2247 0.950 . S
H2252 C2249 0.950 . S
C2253 C2244 1.390 . S
C2253 H2246 0.950 . S
C2253 C2250 1.387 . S
C2254 C2255 1.387 1_554 S
C2254 H2258 0.950 . S
C2254 C2263 1.390 . S
C2255 C2254 1.387 1_556 S
C2255 C2257 1.382 1_556 S
H2256 C2263 0.950 . S
C2257 C2255 1.382 1_554 S
C2257 C2259 1.418 . S
C2257 H2261 0.928 1_554 S
H2258 C2254 0.950 . S
C2259 C2257 1.418 . S
C2259 C2260 1.387 . S
C2259 H2262 0.950 . S
C2260 C2259 1.387 . S
C2260 C2263 1.387 . S
H2261 C2257 0.928 1_556 S
H2262 C2259 0.950 . S
C2263 C2254 1.390 . S
C2263 H2256 0.950 . S
C2263 C2260 1.387 . S
C2264 C2265 1.387 1_455 S
C2264 H2268 0.950 . S
C2264 C2273 1.390 . S
C2265 C2264 1.387 1_655 S
C2265 C2267 1.387 . S
H2266 C2273 0.950 . S
C2267 C2265 1.387 . S
C2267 C2269 1.390 1_645 S
C2267 H2271 0.950 1_545 S
H2268 C2264 0.950 . S
C2269 C2267 1.390 1_465 S
C2269 C2270 1.387 1_565 S
C2269 H2272 0.950 . S
C2270 C2269 1.387 1_545 S
C2270 C2273 1.387 . S
H2271 C2267 0.950 1_565 S
H2272 C2269 0.950 . S
C2273 C2264 1.390 . S
C2273 H2266 0.950 . S
C2273 C2270 1.387 . S
C2274 C2275 1.387 . S
C2274 H2278 0.950 . S
C2274 C2283 1.390 . S
C2275 C2274 1.387 . S
C2275 C2277 1.387 . S
H2276 C2283 0.950 . S
C2277 C2275 1.387 . S
C2277 C2279 1.390 . S
C2277 H2281 0.950 . S
H2278 C2274 0.950 . S
C2279 C2277 1.390 . S
C2279 C2280 1.387 . S
C2279 H2282 0.950 . S
C2280 C2279 1.387 . S
C2280 C2283 1.387 . S
H2281 C2277 0.950 . S
H2282 C2279 0.950 . S
C2283 C2274 1.390 . S
C2283 H2276 0.950 . S
C2283 C2280 1.387 . S
C2284 C2285 1.387 . S
C2284 H2288 0.950 . S
C2284 C2293 1.390 . S
C2285 C2284 1.387 . S
C2285 C2287 1.387 . S
H2286 C2293 0.950 . S
C2287 C2285 1.387 . S
C2287 C2289 1.390 . S
C2287 H2291 0.950 . S
H2288 C2284 0.950 . S
C2289 C2287 1.390 . S
C2289 C2290 1.387 . S
C2289 H2292 0.950 . S
C2290 C2289 1.387 . S
C2290 C2293 1.387 . S
H2291 C2287 0.950 . S
H2292 C2289 0.950 . S
C2293 C2284 1.390 . S
C2293 H2286 0.950 . S
C2293 C2290 1.387 . S
C2294 C2295 1.387 . S
C2294 H2298 0.950 . S
C2294 C2303 1.390 1_455 S
C2295 C2294 1.387 . S
C2295 C2297 1.387 1_455 S
H2296 C2303 0.950 . S
C2297 C2295 1.387 1_655 S
C2297 C2299 1.390 . S
C2297 H2301 0.950 . S
H2298 C2294 0.950 . S
C2299 C2297 1.390 . S
C2299 C2300 1.387 . S
C2299 H2302 0.950 . S
C2300 C2299 1.387 . S
C2300 C2303 1.387 . S
H2301 C2297 0.950 . S
H2302 C2299 0.950 . S
C2303 C2294 1.390 1_655 S
C2303 H2296 0.950 . S
C2303 C2300 1.387 . S
C2304 C2305 1.387 . S
C2304 H2308 0.950 . S
C2304 C2313 1.390 1_564 S
C2305 C2304 1.387 . S
C2305 C2307 1.387 . S
H2306 C2313 0.950 . S
C2307 C2305 1.387 . S
C2307 C2309 1.390 1_554 S
C2307 H2311 0.950 . S
H2308 C2304 0.950 . S
C2309 C2307 1.390 1_556 S
C2309 C2310 1.377 1_565 S
C2309 H2312 0.950 . S
C2310 C2309 1.377 1_545 S
C2310 C2313 1.387 . S
H2311 C2307 0.950 . S
H2312 C2309 0.950 . S
C2313 C2304 1.390 1_546 S
C2313 H2306 0.950 . S
C2313 C2310 1.387 . S
C2314 C2315 1.387 . S
C2314 H2318 0.950 . S
C2314 C2323 1.390 . S
C2315 C2314 1.387 . S
C2315 C2317 1.387 . S
H2316 C2323 0.950 . S
C2317 C2315 1.387 . S
C2317 C2319 1.390 . S
C2317 H2321 0.950 . S
H2318 C2314 0.950 . S
C2319 C2317 1.390 . S
C2319 C2320 1.387 . S
C2319 H2322 0.950 . S
C2320 C2319 1.387 . S
C2320 C2323 1.387 . S
H2321 C2317 0.950 . S
H2322 C2319 0.950 . S
C2323 C2314 1.390 . S
C2323 H2316 0.950 . S
C2323 C2320 1.387 . S
C2324 C2325 1.387 . S
C2324 H2328 0.950 . S
C2324 C2333 1.390 . S
C2325 C2324 1.387 . S
C2325 C2327 1.387 . S
H2326 C2333 0.950 . S
C2327 C2325 1.387 . S
C2327 C2329 1.390 . S
C2327 H2331 0.950 . S
H2328 C2324 0.950 . S
C2329 C2327 1.390 . S
C2329 C2330 1.387 . S
C2329 H2332 0.950 . S
C2330 C2329 1.387 . S
C2330 C2333 1.387 . S
H2331 C2327 0.950 . S
H2332 C2329 0.950 . S
C2333 C2324 1.390 . S
C2333 H2326 0.950 . S
C2333 C2330 1.387 . S
C2334 C2335 1.387 . S
C2334 H2338 0.950 . S
C2334 C2343 1.390 . S
C2335 C2334 1.387 . S
C2335 C2337 1.387 . S
H2336 C2343 0.950 . S
C2337 C2335 1.387 . S
C2337 C2339 1.390 . S
C2337 H2341 0.950 . S
H2338 C2334 0.950 . S
C2339 C2337 1.390 . S
C2339 C2340 1.387 . S
C2339 H2342 0.950 . S
C2340 C2339 1.387 . S
C2340 C2343 1.387 . S
H2341 C2337 0.950 . S
H2342 C2339 0.950 . S
C2343 C2334 1.390 . S
C2343 H2336 0.950 . S
C2343 C2340 1.387 . S
C2344 C2345 1.387 . S
C2344 H2348 0.950 . S
C2344 C2353 1.390 . S
C2345 C2344 1.387 . S
C2345 C2347 1.387 . S
H2346 C2353 0.950 . S
C2347 C2345 1.387 . S
C2347 C2349 1.390 . S
C2347 H2351 0.950 . S
H2348 C2344 0.950 . S
C2349 C2347 1.390 . S
C2349 C2350 1.387 . S
C2349 H2352 0.950 . S
C2350 C2349 1.387 . S
C2350 C2353 1.387 . S
H2351 C2347 0.950 . S
H2352 C2349 0.950 . S
C2353 C2344 1.390 . S
C2353 H2346 0.950 . S
C2353 C2350 1.387 . S
C2354 C2355 1.387 . S
C2354 H2358 0.950 . S
C2354 C2363 1.390 . S
C2355 C2354 1.387 . S
C2355 C2357 1.387 . S
H2356 C2363 0.950 . S
C2357 C2355 1.387 . S
C2357 C2359 1.390 . S
C2357 H2361 0.950 . S
H2358 C2354 0.950 . S
C2359 C2357 1.390 . S
C2359 C2360 1.389 . S
C2359 H2362 0.942 1_556 S
C2360 C2359 1.389 . S
C2360 C2363 1.389 . S
H2361 C2357 0.950 . S
H2362 C2359 0.942 1_554 S
C2363 C2354 1.390 . S
C2363 H2356 0.950 . S
C2363 C2360 1.389 . S
C2364 C2365 1.387 . S
C2364 H2368 0.950 . S
C2364 C2373 1.390 . S
C2365 C2364 1.387 . S
C2365 C2367 1.387 . S
H2366 C2373 0.950 . S
C2367 C2365 1.387 . S
C2367 C2369 1.390 . S
C2367 H2371 0.950 . S
H2368 C2364 0.950 . S
C2369 C2367 1.390 . S
C2369 C2370 1.387 . S
C2369 H2372 0.950 . S
C2370 C2369 1.387 . S
C2370 C2373 1.387 . S
H2371 C2367 0.950 . S
H2372 C2369 0.950 . S
C2373 C2364 1.390 . S
C2373 H2366 0.950 . S
C2373 C2370 1.387 . S
C2374 C2375 1.387 . S
C2374 H2378 0.950 . S
C2374 C2383 1.390 . S
C2375 C2374 1.387 . S
C2375 C2377 1.387 . S
H2376 C2383 0.950 . S
C2377 C2375 1.387 . S
C2377 C2379 1.390 . S
C2377 H2381 0.950 . S
H2378 C2374 0.950 . S
C2379 C2377 1.390 . S
C2379 C2380 1.387 . S
C2379 H2382 0.950 . S
C2380 C2379 1.387 . S
C2380 C2383 1.387 . S
H2381 C2377 0.950 . S
H2382 C2379 0.950 . S
C2383 C2374 1.390 . S
C2383 H2376 0.950 . S
C2383 C2380 1.387 . S
C2384 C2385 1.387 . S
C2384 H2388 0.950 . S
C2384 C2393 1.390 . S
C2385 C2384 1.387 . S
C2385 C2387 1.387 . S
H2386 C2393 0.950 . S
C2387 C2385 1.387 . S
C2387 C2389 1.390 . S
C2387 H2391 0.950 . S
H2388 C2384 0.950 . S
C2389 C2387 1.390 . S
C2389 C2390 1.387 . S
C2389 H2392 0.950 . S
C2390 C2389 1.387 . S
C2390 C2393 1.387 . S
H2391 C2387 0.950 . S
H2392 C2389 0.950 . S
C2393 C2384 1.390 . S
C2393 H2386 0.950 . S
C2393 C2390 1.387 . S
C2394 C2395 1.387 . S
C2394 H2398 0.950 . S
C2394 C2403 1.390 1_565 S
C2395 C2394 1.387 . S
C2395 C2397 1.387 . S
H2396 C2403 0.950 . S
C2397 C2395 1.387 . S
C2397 C2399 1.390 1_565 S
C2397 H2401 0.950 . S
H2398 C2394 0.950 . S
C2399 C2397 1.390 1_545 S
C2399 C2400 1.387 . S
C2399 H2402 0.950 . S
C2400 C2399 1.387 . S
C2400 C2403 1.387 . S
H2401 C2397 0.950 . S
H2402 C2399 0.950 . S
C2403 C2394 1.390 1_545 S
C2403 H2396 0.950 . S
C2403 C2400 1.387 . S
C2404 C2405 1.387 . S
C2404 H2408 0.950 . S
C2404 C2413 1.390 . S
C2405 C2404 1.387 . S
C2405 C2407 1.387 . S
H2406 C2413 0.950 . S
C2407 C2405 1.387 . S
C2407 C2409 1.390 . S
C2407 H2411 0.950 . S
H2408 C2404 0.950 . S
C2409 C2407 1.390 . S
C2409 C2410 1.387 . S
C2409 H2412 0.950 . S
C2410 C2409 1.387 . S
C2410 C2413 1.387 . S
H2411 C2407 0.950 . S
H2412 C2409 0.950 . S
C2413 C2404 1.390 . S
C2413 H2406 0.950 . S
C2413 C2410 1.387 . S
C2414 C2415 1.387 1_565 S
C2414 H2418 0.960 . S
C2414 C2423 1.390 . S
C2415 C2414 1.387 1_545 S
C2415 C2417 1.383 1_545 S
H2416 C2423 0.950 . S
C2417 C2415 1.383 1_565 S
C2417 C2419 1.405 . S
C2417 H2421 0.940 1_565 S
H2418 C2414 0.960 . S
C2419 C2417 1.405 . S
C2419 C2420 1.387 . S
C2419 H2422 0.950 . S
C2420 C2419 1.387 . S
C2420 C2423 1.387 . S
H2421 C2417 0.940 1_545 S
H2422 C2419 0.950 . S
C2423 C2414 1.390 . S
C2423 H2416 0.950 . S
C2423 C2420 1.387 . S
C2424 C2425 1.387 . S
C2424 H2428 0.950 . S
C2424 C2433 1.390 1_565 S
C2425 C2424 1.387 . S
C2425 C2427 1.387 1_554 S
H2426 C2433 0.950 . S
C2427 C2425 1.387 1_556 S
C2427 C2429 1.390 . S
C2427 H2431 0.950 . S
H2428 C2424 0.950 . S
C2429 C2427 1.390 . S
C2429 C2430 1.387 1_565 S
C2429 H2432 0.950 . S
C2430 C2429 1.387 1_545 S
C2430 C2433 1.387 1_556 S
H2431 C2427 0.950 . S
H2432 C2429 0.950 . S
C2433 C2424 1.390 1_545 S
C2433 H2426 0.950 . S
C2433 C2430 1.387 1_554 S
C2434 C2435 1.387 . S
C2434 H2438 0.950 . S
C2434 C2443 1.390 . S
C2435 C2434 1.387 . S
C2435 C2437 1.387 . S
H2436 C2443 0.950 . S
C2437 C2435 1.387 . S
C2437 C2439 1.390 . S
C2437 H2441 0.950 . S
H2438 C2434 0.950 . S
C2439 C2437 1.390 . S
C2439 C2440 1.387 . S
C2439 H2442 0.950 . S
C2440 C2439 1.387 . S
C2440 C2443 1.387 . S
H2441 C2437 0.950 . S
H2442 C2439 0.950 . S
C2443 C2434 1.390 . S
C2443 H2436 0.950 . S
C2443 C2440 1.387 . S
C2444 C2445 1.387 . S
C2444 H2448 0.950 . S
C2444 C2453 1.390 . S
C2445 C2444 1.387 . S
C2445 C2447 1.387 . S
H2446 C2453 0.950 . S
C2447 C2445 1.387 . S
C2447 C2449 1.390 . S
C2447 H2451 0.950 . S
H2448 C2444 0.950 . S
C2449 C2447 1.390 . S
C2449 C2450 1.387 . S
C2449 H2452 0.950 . S
C2450 C2449 1.387 . S
C2450 C2453 1.387 . S
H2451 C2447 0.950 . S
H2452 C2449 0.950 . S
C2453 C2444 1.390 . S
C2453 H2446 0.950 . S
C2453 C2450 1.387 . S
C2454 C2455 1.387 . S
C2454 H2458 0.950 . S
C2454 C2463 1.390 . S
C2455 C2454 1.387 . S
C2455 C2457 1.387 . S
H2456 C2463 0.950 . S
C2457 C2455 1.387 . S
C2457 C2459 1.390 . S
C2457 H2461 0.950 . S
H2458 C2454 0.950 . S
C2459 C2457 1.390 . S
C2459 C2460 1.387 . S
C2459 H2462 0.950 . S
C2460 C2459 1.387 . S
C2460 C2463 1.387 . S
H2461 C2457 0.950 . S
H2462 C2459 0.950 . S
C2463 C2454 1.390 . S
C2463 H2456 0.950 . S
C2463 C2460 1.387 . S
C2464 C2465 1.387 . S
C2464 H2468 0.950 . S
C2464 C2473 1.390 . S
C2465 C2464 1.387 . S
C2465 C2467 1.387 . S
H2466 C2473 0.950 . S
C2467 C2465 1.387 . S
C2467 C2469 1.390 . S
C2467 H2471 0.950 . S
H2468 C2464 0.950 . S
C2469 C2467 1.390 . S
C2469 C2470 1.387 . S
C2469 H2472 0.950 . S
C2470 C2469 1.387 . S
C2470 C2473 1.387 . S
H2471 C2467 0.950 . S
H2472 C2469 0.950 . S
C2473 C2464 1.390 . S
C2473 H2466 0.950 . S
C2473 C2470 1.387 . S
C2474 C2475 1.387 . S
C2474 H2478 0.950 . S
C2474 C2483 1.390 . S
C2475 C2474 1.387 . S
C2475 C2477 1.387 . S
H2476 C2483 0.950 . S
C2477 C2475 1.387 . S
C2477 C2479 1.390 . S
C2477 H2481 0.950 . S
H2478 C2474 0.950 . S
C2479 C2477 1.390 . S
C2479 C2480 1.387 . S
C2479 H2482 0.950 . S
C2480 C2479 1.387 . S
C2480 C2483 1.387 . S
H2481 C2477 0.950 . S
H2482 C2479 0.950 . S
C2483 C2474 1.390 . S
C2483 H2476 0.950 . S
C2483 C2480 1.387 . S
C2484 C2485 1.387 . S
C2484 H2488 0.950 . S
C2484 C2493 1.390 . S
C2485 C2484 1.387 . S
C2485 C2487 1.387 . S
H2486 C2493 0.950 . S
C2487 C2485 1.387 . S
C2487 C2489 1.390 . S
C2487 H2491 0.950 . S
H2488 C2484 0.950 . S
C2489 C2487 1.390 . S
C2489 C2490 1.387 . S
C2489 H2492 0.950 . S
C2490 C2489 1.387 . S
C2490 C2493 1.387 . S
H2491 C2487 0.950 . S
H2492 C2489 0.950 . S
C2493 C2484 1.390 . S
C2493 H2486 0.950 . S
C2493 C2490 1.387 . S
C2494 C2495 1.387 . S
C2494 H2498 0.950 . S
C2494 C2503 1.390 . S
C2495 C2494 1.387 . S
C2495 C2497 1.387 . S
H2496 C2503 0.950 . S
C2497 C2495 1.387 . S
C2497 C2499 1.390 . S
C2497 H2501 0.950 . S
H2498 C2494 0.950 . S
C2499 C2497 1.390 . S
C2499 C2500 1.387 . S
C2499 H2502 0.950 . S
C2500 C2499 1.387 . S
C2500 C2503 1.387 . S
H2501 C2497 0.950 . S
H2502 C2499 0.950 . S
C2503 C2494 1.390 . S
C2503 H2496 0.950 . S
C2503 C2500 1.387 . S
C2504 C2505 1.387 . S
C2504 H2508 0.950 . S
C2504 C2513 1.390 . S
C2505 C2504 1.387 . S
C2505 C2507 1.387 . S
H2506 C2513 0.950 . S
C2507 C2505 1.387 . S
C2507 C2509 1.390 . S
C2507 H2511 0.950 . S
H2508 C2504 0.950 . S
C2509 C2507 1.390 . S
C2509 C2510 1.387 . S
C2509 H2512 0.950 . S
C2510 C2509 1.387 . S
C2510 C2513 1.387 . S
H2511 C2507 0.950 . S
H2512 C2509 0.950 . S
C2513 C2504 1.390 . S
C2513 H2506 0.950 . S
C2513 C2510 1.387 . S
C2514 C2515 1.387 . S
C2514 H2518 0.950 . S
C2514 C2523 1.390 . S
C2515 C2514 1.387 . S
C2515 C2517 1.387 . S
H2516 C2523 0.950 . S
C2517 C2515 1.387 . S
C2517 C2519 1.390 . S
C2517 H2521 0.950 . S
H2518 C2514 0.950 . S
C2519 C2517 1.390 . S
C2519 C2520 1.387 . S
C2519 H2522 0.950 . S
C2520 C2519 1.387 . S
C2520 C2523 1.387 . S
H2521 C2517 0.950 . S
H2522 C2519 0.950 . S
C2523 C2514 1.390 . S
C2523 H2516 0.950 . S
C2523 C2520 1.387 . S
C2524 C2525 1.387 . S
C2524 H2528 0.950 . S
C2524 C2533 1.390 . S
C2525 C2524 1.387 . S
C2525 C2527 1.387 . S
H2526 C2533 0.950 . S
C2527 C2525 1.387 . S
C2527 C2529 1.390 . S
C2527 H2531 0.950 . S
H2528 C2524 0.950 . S
C2529 C2527 1.390 . S
C2529 C2530 1.387 . S
C2529 H2532 0.950 . S
C2530 C2529 1.387 . S
C2530 C2533 1.387 . S
H2531 C2527 0.950 . S
H2532 C2529 0.950 . S
C2533 C2524 1.390 . S
C2533 H2526 0.950 . S
C2533 C2530 1.387 . S
C2534 C2535 1.387 . S
C2534 H2538 0.950 . S
C2534 C2543 1.390 . S
C2535 C2534 1.387 . S
C2535 C2537 1.387 . S
H2536 C2543 0.950 . S
C2537 C2535 1.387 . S
C2537 C2539 1.390 . S
C2537 H2541 0.950 . S
H2538 C2534 0.950 . S
C2539 C2537 1.390 . S
C2539 C2540 1.387 . S
C2539 H2542 0.950 . S
C2540 C2539 1.387 . S
C2540 C2543 1.387 . S
H2541 C2537 0.950 . S
H2542 C2539 0.950 . S
C2543 C2534 1.390 . S
C2543 H2536 0.950 . S
C2543 C2540 1.387 . S
C2544 C2545 1.387 . S
C2544 H2548 0.950 . S
C2544 C2553 1.390 1_565 S
C2545 C2544 1.387 . S
C2545 C2547 1.387 . S
H2546 C2553 0.950 . S
C2547 C2545 1.387 . S
C2547 C2549 1.390 1_565 S
C2547 H2551 0.950 . S
H2548 C2544 0.950 . S
C2549 C2547 1.390 1_545 S
C2549 C2550 1.387 . S
C2549 H2552 0.950 . S
C2550 C2549 1.387 . S
C2550 C2553 1.387 . S
H2551 C2547 0.950 . S
H2552 C2549 0.950 . S
C2553 C2544 1.390 1_545 S
C2553 H2546 0.950 . S
C2553 C2550 1.387 . S
C2554 C2555 1.387 . S
C2554 H2558 0.950 . S
C2554 C2563 1.390 1_455 S
C2555 C2554 1.387 . S
C2555 C2557 1.387 . S
H2556 C2563 0.950 . S
C2557 C2555 1.387 . S
C2557 C2559 1.390 1_455 S
C2557 H2561 0.950 . S
H2558 C2554 0.950 . S
C2559 C2557 1.390 1_655 S
C2559 C2560 1.387 . S
C2559 H2562 0.950 . S
C2560 C2559 1.387 . S
C2560 C2563 1.387 . S
H2561 C2557 0.950 . S
H2562 C2559 0.950 . S
C2563 C2554 1.390 1_655 S
C2563 H2556 0.950 . S
C2563 C2560 1.387 . S
C2564 C2565 1.387 . S
C2564 H2568 0.950 . S
C2564 C2573 1.390 . S
C2565 C2564 1.387 . S
C2565 C2567 1.387 . S
H2566 C2573 0.950 . S
C2567 C2565 1.387 . S
C2567 C2569 1.390 . S
C2567 H2571 0.950 . S
H2568 C2564 0.950 . S
C2569 C2567 1.390 . S
C2569 C2570 1.387 . S
C2569 H2572 0.950 . S
C2570 C2569 1.387 . S
C2570 C2573 1.387 . S
H2571 C2567 0.950 . S
H2572 C2569 0.950 . S
C2573 C2564 1.390 . S
C2573 H2566 0.950 . S
C2573 C2570 1.387 . S
C2574 C2575 1.387 . S
C2574 H2578 0.950 . S
C2574 C2583 1.390 . S
C2575 C2574 1.387 . S
C2575 C2577 1.387 . S
H2576 C2583 0.950 . S
C2577 C2575 1.387 . S
C2577 C2579 1.390 . S
C2577 H2581 0.950 . S
H2578 C2574 0.950 . S
C2579 C2577 1.390 . S
C2579 C2580 1.387 . S
C2579 H2582 0.950 . S
C2580 C2579 1.387 . S
C2580 C2583 1.387 . S
H2581 C2577 0.950 . S
H2582 C2579 0.950 . S
C2583 C2574 1.390 . S
C2583 H2576 0.950 . S
C2583 C2580 1.387 . S
C2584 C2585 1.387 . S
C2584 H2588 0.950 . S
C2584 C2593 1.390 . S
C2585 C2584 1.387 . S
C2585 C2587 1.387 . S
H2586 C2593 0.950 . S
C2587 C2585 1.387 . S
C2587 C2589 1.390 . S
C2587 H2591 0.950 . S
H2588 C2584 0.950 . S
C2589 C2587 1.390 . S
C2589 C2590 1.387 . S
C2589 H2592 0.950 . S
C2590 C2589 1.387 . S
C2590 C2593 1.387 . S
H2591 C2587 0.950 . S
H2592 C2589 0.950 . S
C2593 C2584 1.390 . S
C2593 H2586 0.950 . S
C2593 C2590 1.387 . S
C2594 C2595 1.387 . S
C2594 H2598 0.950 . S
C2594 C2603 1.390 . S
C2595 C2594 1.387 . S
C2595 C2597 1.387 . S
H2596 C2603 0.950 . S
C2597 C2595 1.387 . S
C2597 C2599 1.390 . S
C2597 H2601 0.950 . S
H2598 C2594 0.950 . S
C2599 C2597 1.390 . S
C2599 C2600 1.387 . S
C2599 H2602 0.950 . S
C2600 C2599 1.387 . S
C2600 C2603 1.387 . S
H2601 C2597 0.950 . S
H2602 C2599 0.950 . S
C2603 C2594 1.390 . S
C2603 H2596 0.950 . S
C2603 C2600 1.387 . S
C2604 C2605 1.387 . S
C2604 H2608 0.950 . S
C2604 C2613 1.390 . S
C2605 C2604 1.387 . S
C2605 C2607 1.387 . S
H2606 C2613 0.950 . S
C2607 C2605 1.387 . S
C2607 C2609 1.390 . S
C2607 H2611 0.950 . S
H2608 C2604 0.950 . S
C2609 C2607 1.390 . S
C2609 C2610 1.387 . S
C2609 H2612 0.950 . S
C2610 C2609 1.387 . S
C2610 C2613 1.387 . S
H2611 C2607 0.950 . S
H2612 C2609 0.950 . S
C2613 C2604 1.390 . S
C2613 H2606 0.950 . S
C2613 C2610 1.387 . S
C2614 C2615 1.387 . S
C2614 H2618 0.950 . S
C2614 C2623 1.390 1_655 S
C2615 C2614 1.387 . S
C2615 C2617 1.387 . S
H2616 C2623 0.950 . S
C2617 C2615 1.387 . S
C2617 C2619 1.390 1_655 S
C2617 H2621 0.950 . S
H2618 C2614 0.950 . S
C2619 C2617 1.390 1_455 S
C2619 C2620 1.387 . S
C2619 H2622 0.950 . S
C2620 C2619 1.387 . S
C2620 C2623 1.387 . S
H2621 C2617 0.950 . S
H2622 C2619 0.950 . S
C2623 C2614 1.390 1_455 S
C2623 H2616 0.950 . S
C2623 C2620 1.387 . S
C2624 C2625 1.387 . S
C2624 H2628 0.950 . S
C2624 C2633 1.390 1_554 S
C2625 C2624 1.387 . S
C2625 C2627 1.387 . S
H2626 C2633 0.950 . S
C2627 C2625 1.387 . S
C2627 C2629 1.390 1_554 S
C2627 H2631 0.950 . S
H2628 C2624 0.950 . S
C2629 C2627 1.390 1_556 S
C2629 C2630 1.387 . S
C2629 H2632 0.950 . S
C2630 C2629 1.387 . S
C2630 C2633 1.387 . S
H2631 C2627 0.950 . S
H2632 C2629 0.950 . S
C2633 C2624 1.390 1_556 S
C2633 H2626 0.950 . S
C2633 C2630 1.387 . S
C2634 C2635 1.387 . S
C2634 H2638 0.950 . S
C2634 C2643 1.390 . S
C2635 C2634 1.387 . S
C2635 C2637 1.387 . S
H2636 C2643 0.950 . S
C2637 C2635 1.387 . S
C2637 C2639 1.390 . S
C2637 H2641 0.950 . S
H2638 C2634 0.950 . S
C2639 C2637 1.390 . S
C2639 C2640 1.387 . S
C2639 H2642 0.950 . S
C2640 C2639 1.387 . S
C2640 C2643 1.387 . S
H2641 C2637 0.950 . S
H2642 C2639 0.950 . S
C2643 C2634 1.390 . S
C2643 H2636 0.950 . S
C2643 C2640 1.387 . S
C2644 C2645 1.387 . S
C2644 H2648 0.950 . S
C2644 C2653 1.390 . S
C2645 C2644 1.387 . S
C2645 C2647 1.387 . S
H2646 C2653 0.950 . S
C2647 C2645 1.387 . S
C2647 C2649 1.390 . S
C2647 H2651 0.950 . S
H2648 C2644 0.950 . S
C2649 C2647 1.390 . S
C2649 C2650 1.387 . S
C2649 H2652 0.950 . S
C2650 C2649 1.387 . S
C2650 C2653 1.387 . S
H2651 C2647 0.950 . S
H2652 C2649 0.950 . S
C2653 C2644 1.390 . S
C2653 H2646 0.950 . S
C2653 C2650 1.387 . S
C2654 C2655 1.387 . S
C2654 H2658 0.950 . S
C2654 C2663 1.390 . S
C2655 C2654 1.387 . S
C2655 C2657 1.387 . S
H2656 C2663 0.950 . S
C2657 C2655 1.387 . S
C2657 C2659 1.390 . S
C2657 H2661 0.950 . S
H2658 C2654 0.950 . S
C2659 C2657 1.390 . S
C2659 C2660 1.387 . S
C2659 H2662 0.950 . S
C2660 C2659 1.387 . S
C2660 C2663 1.387 . S
H2661 C2657 0.950 . S
H2662 C2659 0.950 . S
C2663 C2654 1.390 . S
C2663 H2656 0.950 . S
C2663 C2660 1.387 . S
C2664 C2665 1.387 . S
C2664 H2668 0.950 . S
C2664 C2673 1.390 . S
C2665 C2664 1.387 . S
C2665 C2667 1.387 . S
H2666 C2673 0.950 . S
C2667 C2665 1.387 . S
C2667 C2669 1.390 . S
C2667 H2671 0.950 . S
H2668 C2664 0.950 . S
C2669 C2667 1.390 . S
C2669 C2670 1.387 . S
C2669 H2672 0.950 . S
C2670 C2669 1.387 . S
C2670 C2673 1.387 . S
H2671 C2667 0.950 . S
H2672 C2669 0.950 . S
C2673 C2664 1.390 . S
C2673 H2666 0.950 . S
C2673 C2670 1.387 . S
C2674 C2675 1.387 . S
C2674 H2678 0.950 . S
C2674 C2683 1.390 . S
C2675 C2674 1.387 . S
C2675 C2677 1.387 . S
H2676 C2683 0.950 . S
C2677 C2675 1.387 . S
C2677 C2679 1.390 . S
C2677 H2681 0.950 . S
H2678 C2674 0.950 . S
C2679 C2677 1.390 . S
C2679 C2680 1.387 . S
C2679 H2682 0.950 . S
C2680 C2679 1.387 . S
C2680 C2683 1.387 . S
H2681 C2677 0.950 . S
H2682 C2679 0.950 . S
C2683 C2674 1.390 . S
C2683 H2676 0.950 . S
C2683 C2680 1.387 . S
C2684 C2685 1.387 . S
C2684 H2688 0.950 . S
C2684 C2693 1.390 . S
C2685 C2684 1.387 . S
C2685 C2687 1.387 . S
H2686 C2693 0.950 . S
C2687 C2685 1.387 . S
C2687 C2689 1.390 . S
C2687 H2691 0.950 . S
H2688 C2684 0.950 . S
C2689 C2687 1.390 . S
C2689 C2690 1.387 . S
C2689 H2692 0.950 . S
C2690 C2689 1.387 . S
C2690 C2693 1.387 . S
H2691 C2687 0.950 . S
H2692 C2689 0.950 . S
C2693 C2684 1.390 . S
C2693 H2686 0.950 . S
C2693 C2690 1.387 . S
C2694 C2695 1.387 . S
C2694 H2698 0.950 . S
C2694 C2703 1.390 1_554 S
C2695 C2694 1.387 . S
C2695 C2697 1.387 . S
H2696 C2703 0.950 . S
C2697 C2695 1.387 . S
C2697 C2699 1.390 1_554 S
C2697 H2701 0.950 . S
H2698 C2694 0.950 . S
C2699 C2697 1.390 1_556 S
C2699 C2700 1.387 . S
C2699 H2702 0.950 . S
C2700 C2699 1.387 . S
C2700 C2703 1.387 . S
H2701 C2697 0.950 . S
H2702 C2699 0.950 . S
C2703 C2694 1.390 1_556 S
C2703 H2696 0.950 . S
C2703 C2700 1.387 . S
C2704 C2705 1.387 . S
C2704 H2708 0.950 . S
C2704 C2713 1.390 1_655 S
C2705 C2704 1.387 . S
C2705 C2707 1.387 . S
H2706 C2713 0.950 . S
C2707 C2705 1.387 . S
C2707 C2709 1.390 1_655 S
C2707 H2711 0.950 . S
H2708 C2704 0.950 . S
C2709 C2707 1.390 1_455 S
C2709 C2710 1.387 . S
C2709 H2712 0.950 . S
C2710 C2709 1.387 . S
C2710 C2713 1.387 . S
H2711 C2707 0.950 . S
H2712 C2709 0.950 . S
C2713 C2704 1.390 1_455 S
C2713 H2706 0.950 . S
C2713 C2710 1.387 . S
C2714 C2715 1.387 . S
C2714 H2718 0.950 . S
C2714 C2723 1.390 . S
C2715 C2714 1.387 . S
C2715 C2717 1.387 . S
H2716 C2723 0.950 . S
C2717 C2715 1.387 . S
C2717 C2719 1.390 . S
C2717 H2721 0.950 . S
H2718 C2714 0.950 . S
C2719 C2717 1.390 . S
C2719 C2720 1.387 . S
C2719 H2722 0.950 . S
C2720 C2719 1.387 . S
C2720 C2723 1.387 . S
H2721 C2717 0.950 . S
H2722 C2719 0.950 . S
C2723 C2714 1.390 . S
C2723 H2716 0.950 . S
C2723 C2720 1.387 . S
C2724 C2725 1.387 . S
C2724 H2728 0.950 . S
C2724 C2733 1.390 . S
C2725 C2724 1.387 . S
C2725 C2727 1.387 . S
H2726 C2733 0.950 . S
C2727 C2725 1.387 . S
C2727 C2729 1.390 . S
C2727 H2731 0.950 . S
H2728 C2724 0.950 . S
C2729 C2727 1.390 . S
C2729 C2730 1.387 . S
C2729 H2732 0.950 . S
C2730 C2729 1.387 . S
C2730 C2733 1.387 . S
H2731 C2727 0.950 . S
H2732 C2729 0.950 . S
C2733 C2724 1.390 . S
C2733 H2726 0.950 . S
C2733 C2730 1.387 . S
C2734 C2735 1.387 . S
C2734 H2738 0.950 . S
C2734 C2743 1.390 . S
C2735 C2734 1.387 . S
C2735 C2737 1.387 . S
H2736 C2743 0.950 . S
C2737 C2735 1.387 . S
C2737 C2739 1.390 . S
C2737 H2741 0.950 . S
H2738 C2734 0.950 . S
C2739 C2737 1.390 . S
C2739 C2740 1.387 . S
C2739 H2742 0.950 . S
C2740 C2739 1.387 . S
C2740 C2743 1.387 . S
H2741 C2737 0.950 . S
H2742 C2739 0.950 . S
C2743 C2734 1.390 . S
C2743 H2736 0.950 . S
C2743 C2740 1.387 . S
C2744 C2745 1.387 . S
C2744 H2748 0.950 . S
C2744 C2753 1.390 . S
C2745 C2744 1.387 . S
C2745 C2747 1.387 . S
H2746 C2753 0.950 . S
C2747 C2745 1.387 . S
C2747 C2749 1.390 . S
C2747 H2751 0.950 . S
H2748 C2744 0.950 . S
C2749 C2747 1.390 . S
C2749 C2750 1.387 . S
C2749 H2752 0.950 . S
C2750 C2749 1.387 . S
C2750 C2753 1.387 . S
H2751 C2747 0.950 . S
H2752 C2749 0.950 . S
C2753 C2744 1.390 . S
C2753 H2746 0.950 . S
C2753 C2750 1.387 . S
C2754 C2755 1.387 . S
C2754 H2758 0.950 . S
C2754 C2763 1.390 . S
C2755 C2754 1.387 . S
C2755 C2757 1.387 . S
H2756 C2763 0.950 . S
C2757 C2755 1.387 . S
C2757 C2759 1.390 . S
C2757 H2761 0.950 . S
H2758 C2754 0.950 . S
C2759 C2757 1.390 . S
C2759 C2760 1.387 . S
C2759 H2762 0.950 . S
C2760 C2759 1.387 . S
C2760 C2763 1.387 . S
H2761 C2757 0.950 . S
H2762 C2759 0.950 . S
C2763 C2754 1.390 . S
C2763 H2756 0.950 . S
C2763 C2760 1.387 . S
C2764 C2765 1.387 . S
C2764 H2768 0.950 . S
C2764 C2773 1.390 . S
C2765 C2764 1.387 . S
C2765 C2767 1.387 . S
H2766 C2773 0.950 . S
C2767 C2765 1.387 . S
C2767 C2769 1.390 . S
C2767 H2771 0.950 . S
H2768 C2764 0.950 . S
C2769 C2767 1.390 . S
C2769 C2770 1.387 . S
C2769 H2772 0.950 . S
C2770 C2769 1.387 . S
C2770 C2773 1.387 . S
H2771 C2767 0.950 . S
H2772 C2769 0.950 . S
C2773 C2764 1.390 . S
C2773 H2766 0.950 . S
C2773 C2770 1.387 . S
C2774 C2775 1.387 . S
C2774 H2778 0.950 . S
C2774 C2783 1.390 . S
C2775 C2774 1.387 . S
C2775 C2777 1.387 . S
H2776 C2783 0.950 1_455 S
C2777 C2775 1.387 . S
C2777 C2779 1.390 . S
C2777 H2781 0.950 . S
H2778 C2774 0.950 . S
C2779 C2777 1.390 . S
C2779 C2780 1.387 1_655 S
C2779 H2782 0.950 1_655 S
C2780 C2779 1.387 1_455 S
C2780 C2783 1.387 1_455 S
H2781 C2777 0.950 . S
H2782 C2779 0.950 1_455 S
C2783 C2774 1.390 . S
C2783 H2776 0.950 1_655 S
C2783 C2780 1.387 1_655 S
C2784 C2785 1.387 . S
C2784 H2788 0.950 . S
C2784 C2793 1.390 . S
C2785 C2784 1.387 . S
C2785 C2787 1.387 . S
H2786 C2793 0.950 . S
C2787 C2785 1.387 . S
C2787 C2789 1.390 . S
C2787 H2791 0.950 . S
H2788 C2784 0.950 . S
C2789 C2787 1.390 . S
C2789 C2790 1.387 . S
C2789 H2792 0.950 . S
C2790 C2789 1.387 . S
C2790 C2793 1.387 . S
H2791 C2787 0.950 . S
H2792 C2789 0.950 . S
C2793 C2784 1.390 . S
C2793 H2786 0.950 . S
C2793 C2790 1.387 . S
C2794 C2795 1.387 . S
C2794 H2798 0.950 . S
C2794 C2803 1.390 . S
C2795 C2794 1.387 . S
C2795 C2797 1.387 . S
H2796 C2803 0.950 . S
C2797 C2795 1.387 . S
C2797 C2799 1.390 . S
C2797 H2801 0.950 . S
H2798 C2794 0.950 . S
C2799 C2797 1.390 . S
C2799 C2800 1.387 . S
C2799 H2802 0.950 . S
C2800 C2799 1.387 . S
C2800 C2803 1.387 . S
H2801 C2797 0.950 . S
H2802 C2799 0.950 . S
C2803 C2794 1.390 . S
C2803 H2796 0.950 . S
C2803 C2800 1.387 . S
C2804 C2805 1.387 . S
C2804 H2808 0.950 . S
C2804 C2813 1.390 . S
C2805 C2804 1.387 . S
C2805 C2807 1.387 . S
H2806 C2813 0.950 . S
C2807 C2805 1.387 . S
C2807 C2809 1.390 . S
C2807 H2811 0.950 . S
H2808 C2804 0.950 . S
C2809 C2807 1.390 . S
C2809 C2810 1.387 . S
C2809 H2812 0.950 . S
C2810 C2809 1.387 . S
C2810 C2813 1.387 . S
H2811 C2807 0.950 . S
H2812 C2809 0.950 . S
C2813 C2804 1.390 . S
C2813 H2806 0.950 . S
C2813 C2810 1.387 . S
C2814 C2815 1.387 . S
C2814 H2818 0.950 . S
C2814 C2823 1.390 . S
C2815 C2814 1.387 . S
C2815 C2817 1.387 . S
H2816 C2823 0.950 . S
C2817 C2815 1.387 . S
C2817 C2819 1.390 . S
C2817 H2821 0.950 . S
H2818 C2814 0.950 . S
C2819 C2817 1.390 . S
C2819 C2820 1.387 . S
C2819 H2822 0.950 . S
C2820 C2819 1.387 . S
C2820 C2823 1.387 . S
H2821 C2817 0.950 . S
H2822 C2819 0.950 . S
C2823 C2814 1.390 . S
C2823 H2816 0.950 . S
C2823 C2820 1.387 . S
C2824 C2825 1.390 . S
C2824 H2828 0.952 . S
C2824 C2833 1.385 1_565 S
C2825 C2824 1.390 . S
C2825 C2827 1.406 . S
H2826 C2833 0.950 . S
C2827 C2825 1.406 . S
C2827 C2829 1.353 1_565 S
C2827 H2831 0.969 . S
H2828 C2824 0.952 . S
C2829 C2827 1.353 1_545 S
C2829 C2830 1.387 . S
C2829 H2832 0.950 . S
C2830 C2829 1.387 . S
C2830 C2833 1.387 . S
H2831 C2827 0.969 . S
H2832 C2829 0.950 . S
C2833 C2824 1.385 1_545 S
C2833 H2826 0.950 . S
C2833 C2830 1.387 . S
C2834 C2835 1.387 . S
C2834 H2838 0.950 . S
C2834 C2843 1.390 . S
C2835 C2834 1.387 . S
C2835 C2837 1.387 . S
H2836 C2843 0.950 . S
C2837 C2835 1.387 . S
C2837 C2839 1.390 . S
C2837 H2841 0.950 . S
H2838 C2834 0.950 . S
C2839 C2837 1.390 . S
C2839 C2840 1.387 1_455 S
C2839 H2842 0.950 . S
C2840 C2839 1.387 1_655 S
C2840 C2843 1.387 1_655 S
H2841 C2837 0.950 . S
H2842 C2839 0.950 . S
C2843 C2834 1.390 . S
C2843 H2836 0.950 . S
C2843 C2840 1.387 1_455 S
C2844 C2845 1.387 . S
C2844 H2848 0.950 . S
C2844 C2853 1.390 1_554 S
C2845 C2844 1.387 . S
C2845 C2847 1.396 . S
H2846 C2853 0.950 . S
C2847 C2845 1.396 . S
C2847 C2849 1.374 1_554 S
C2847 H2851 0.957 . S
H2848 C2844 0.950 . S
C2849 C2847 1.374 1_556 S
C2849 C2850 1.387 . S
C2849 H2852 0.950 . S
C2850 C2849 1.387 . S
C2850 C2853 1.387 . S
H2851 C2847 0.957 . S
H2852 C2849 0.950 . S
C2853 C2844 1.390 1_556 S
C2853 H2846 0.950 . S
C2853 C2850 1.387 . S
C2854 C2855 1.387 . S
C2854 H2858 0.950 . S
C2854 C2863 1.390 . S
C2855 C2854 1.387 . S
C2855 C2857 1.387 . S
H2856 C2863 0.950 . S
C2857 C2855 1.387 . S
C2857 C2859 1.390 . S
C2857 H2861 0.950 . S
H2858 C2854 0.950 . S
C2859 C2857 1.390 . S
C2859 C2860 1.387 . S
C2859 H2862 0.950 . S
C2860 C2859 1.387 . S
C2860 C2863 1.387 . S
H2861 C2857 0.950 . S
H2862 C2859 0.950 . S
C2863 C2854 1.390 . S
C2863 H2856 0.950 . S
C2863 C2860 1.387 . S
C2864 C2865 1.387 . S
C2864 H2868 0.950 . S
C2864 C2873 1.390 . S
C2865 C2864 1.387 . S
C2865 C2867 1.387 . S
H2866 C2873 0.950 . S
C2867 C2865 1.387 . S
C2867 C2869 1.390 . S
C2867 H2871 0.950 . S
H2868 C2864 0.950 . S
C2869 C2867 1.390 . S
C2869 C2870 1.387 . S
C2869 H2872 0.950 . S
C2870 C2869 1.387 . S
C2870 C2873 1.387 . S
H2871 C2867 0.950 . S
H2872 C2869 0.950 . S
C2873 C2864 1.390 . S
C2873 H2866 0.950 . S
C2873 C2870 1.387 . S
C2874 C2875 1.387 . S
C2874 H2878 0.950 . S
C2874 C2883 1.390 . S
C2875 C2874 1.387 . S
C2875 C2877 1.387 . S
H2876 C2883 0.950 . S
C2877 C2875 1.387 . S
C2877 C2879 1.390 . S
C2877 H2881 0.950 . S
H2878 C2874 0.950 . S
C2879 C2877 1.390 . S
C2879 C2880 1.387 . S
C2879 H2882 0.950 . S
C2880 C2879 1.387 . S
C2880 C2883 1.387 . S
H2881 C2877 0.950 . S
H2882 C2879 0.950 . S
C2883 C2874 1.390 . S
C2883 H2876 0.950 . S
C2883 C2880 1.387 . S
C2884 C2885 1.387 . S
C2884 H2888 0.950 . S
C2884 C2893 1.390 . S
C2885 C2884 1.387 . S
C2885 C2887 1.387 . S
H2886 C2893 0.950 . S
C2887 C2885 1.387 . S
C2887 C2889 1.390 . S
C2887 H2891 0.950 . S
H2888 C2884 0.950 . S
C2889 C2887 1.390 . S
C2889 C2890 1.387 . S
C2889 H2892 0.950 . S
C2890 C2889 1.387 . S
C2890 C2893 1.387 . S
H2891 C2887 0.950 . S
H2892 C2889 0.950 . S
C2893 C2884 1.390 . S
C2893 H2886 0.950 . S
C2893 C2890 1.387 . S
C2894 C2895 1.387 . S
C2894 H2898 0.950 . S
C2894 C2903 1.390 . S
C2895 C2894 1.387 . S
C2895 C2897 1.387 . S
H2896 C2903 0.950 . S
C2897 C2895 1.387 . S
C2897 C2899 1.390 . S
C2897 H2901 0.950 . S
H2898 C2894 0.950 . S
C2899 C2897 1.390 . S
C2899 C2900 1.387 . S
C2899 H2902 0.950 . S
C2900 C2899 1.387 . S
C2900 C2903 1.387 . S
H2901 C2897 0.950 . S
H2902 C2899 0.950 . S
C2903 C2894 1.390 . S
C2903 H2896 0.950 . S
C2903 C2900 1.387 . S
C2904 C2905 1.387 . S
C2904 H2908 0.950 . S
C2904 C2913 1.390 . S
C2905 C2904 1.387 . S
C2905 C2907 1.387 . S
H2906 C2913 0.950 . S
C2907 C2905 1.387 . S
C2907 C2909 1.390 . S
C2907 H2911 0.950 . S
H2908 C2904 0.950 . S
C2909 C2907 1.390 . S
C2909 C2910 1.387 . S
C2909 H2912 0.950 . S
C2910 C2909 1.387 . S
C2910 C2913 1.387 . S
H2911 C2907 0.950 . S
H2912 C2909 0.950 . S
C2913 C2904 1.390 . S
C2913 H2906 0.950 . S
C2913 C2910 1.387 . S
C2914 C2915 1.387 1_556 S
C2914 H2918 0.950 1_556 S
C2914 C2923 1.390 . S
C2915 C2914 1.387 1_554 S
C2915 C2917 1.387 . S
H2916 C2923 0.950 . S
C2917 C2915 1.387 . S
C2917 C2919 1.390 1_554 S
C2917 H2921 0.950 . S
H2918 C2914 0.950 1_554 S
C2919 C2917 1.390 1_556 S
C2919 C2920 1.387 . S
C2919 H2922 0.950 . S
C2920 C2919 1.387 . S
C2920 C2923 1.387 . S
H2921 C2917 0.950 . S
H2922 C2919 0.950 . S
C2923 C2914 1.390 . S
C2923 H2916 0.950 . S
C2923 C2920 1.387 . S
C2924 C2925 1.387 . S
C2924 H2928 0.950 . S
C2924 C2933 1.390 . S
C2925 C2924 1.387 . S
C2925 C2927 1.387 . S
H2926 C2933 0.950 . S
C2927 C2925 1.387 . S
C2927 C2929 1.390 . S
C2927 H2931 0.950 . S
H2928 C2924 0.950 . S
C2929 C2927 1.390 . S
C2929 C2930 1.387 1_455 S
C2929 H2932 0.950 . S
C2930 C2929 1.387 1_655 S
C2930 C2933 1.387 1_655 S
H2931 C2927 0.950 . S
H2932 C2929 0.950 . S
C2933 C2924 1.390 . S
C2933 H2926 0.950 . S
C2933 C2930 1.387 1_455 S
C2934 C2935 1.387 . S
C2934 H2938 0.950 . S
C2934 C2943 1.390 . S
C2935 C2934 1.387 . S
C2935 C2937 1.387 . S
H2936 C2943 0.950 . S
C2937 C2935 1.387 . S
C2937 C2939 1.390 . S
C2937 H2941 0.950 . S
H2938 C2934 0.950 . S
C2939 C2937 1.390 . S
C2939 C2940 1.387 . S
C2939 H2942 0.950 . S
C2940 C2939 1.387 . S
C2940 C2943 1.387 . S
H2941 C2937 0.950 . S
H2942 C2939 0.950 . S
C2943 C2934 1.390 . S
C2943 H2936 0.950 . S
C2943 C2940 1.387 . S
C2944 C2945 1.387 . S
C2944 H2948 0.950 . S
C2944 C2953 1.390 . S
C2945 C2944 1.387 . S
C2945 C2947 1.387 . S
H2946 C2953 0.950 . S
C2947 C2945 1.387 . S
C2947 C2949 1.390 . S
C2947 H2951 0.950 . S
H2948 C2944 0.950 . S
C2949 C2947 1.390 . S
C2949 C2950 1.387 . S
C2949 H2952 0.950 . S
C2950 C2949 1.387 . S
C2950 C2953 1.387 . S
H2951 C2947 0.950 . S
H2952 C2949 0.950 . S
C2953 C2944 1.390 . S
C2953 H2946 0.950 . S
C2953 C2950 1.387 . S
C2954 C2955 1.387 . S
C2954 H2958 0.950 . S
C2954 C2963 1.390 . S
C2955 C2954 1.387 . S
C2955 C2957 1.387 . S
H2956 C2963 0.950 . S
C2957 C2955 1.387 . S
C2957 C2959 1.390 . S
C2957 H2961 0.950 . S
H2958 C2954 0.950 . S
C2959 C2957 1.390 . S
C2959 C2960 1.387 . S
C2959 H2962 0.950 . S
C2960 C2959 1.387 . S
C2960 C2963 1.387 . S
H2961 C2957 0.950 . S
H2962 C2959 0.950 . S
C2963 C2954 1.390 . S
C2963 H2956 0.950 . S
C2963 C2960 1.387 . S
C2964 C2965 1.387 . S
C2964 H2968 0.950 . S
C2964 C2973 1.390 . S
C2965 C2964 1.387 . S
C2965 C2967 1.387 . S
H2966 C2973 0.950 . S
C2967 C2965 1.387 . S
C2967 C2969 1.390 . S
C2967 H2971 0.950 . S
H2968 C2964 0.950 . S
C2969 C2967 1.390 . S
C2969 C2970 1.387 . S
C2969 H2972 0.950 . S
C2970 C2969 1.387 . S
C2970 C2973 1.387 . S
H2971 C2967 0.950 . S
H2972 C2969 0.950 . S
C2973 C2964 1.390 . S
C2973 H2966 0.950 . S
C2973 C2970 1.387 . S
C2974 C2975 1.387 . S
C2974 H2978 0.950 . S
C2974 C2983 1.390 . S
C2975 C2974 1.387 . S
C2975 C2977 1.387 . S
H2976 C2983 0.950 . S
C2977 C2975 1.387 . S
C2977 C2979 1.390 . S
C2977 H2981 0.950 . S
H2978 C2974 0.950 . S
C2979 C2977 1.390 . S
C2979 C2980 1.387 . S
C2979 H2982 0.950 . S
C2980 C2979 1.387 . S
C2980 C2983 1.387 . S
H2981 C2977 0.950 . S
H2982 C2979 0.950 . S
C2983 C2974 1.390 . S
C2983 H2976 0.950 . S
C2983 C2980 1.387 . S
C2984 C2985 1.387 . S
C2984 H2988 0.950 . S
C2984 C2993 1.390 . S
C2985 C2984 1.387 . S
C2985 C2987 1.387 . S
H2986 C2993 0.950 . S
C2987 C2985 1.387 . S
C2987 C2989 1.390 . S
C2987 H2991 0.950 . S
H2988 C2984 0.950 . S
C2989 C2987 1.390 . S
C2989 C2990 1.387 . S
C2989 H2992 0.950 . S
C2990 C2989 1.387 . S
C2990 C2993 1.387 . S
H2991 C2987 0.950 . S
H2992 C2989 0.950 . S
C2993 C2984 1.390 . S
C2993 H2986 0.950 . S
C2993 C2990 1.387 . S
C2994 C2995 1.387 . S
C2994 H2998 0.950 . S
C2994 C3003 1.390 1_455 S
C2995 C2994 1.387 . S
C2995 C2997 1.387 . S
H2996 C3003 0.950 . S
C2997 C2995 1.387 . S
C2997 C2999 1.390 1_455 S
C2997 H3001 0.950 . S
H2998 C2994 0.950 . S
C2999 C2997 1.390 1_655 S
C2999 C3000 1.387 . S
C2999 H3002 0.950 . S
C3000 C2999 1.387 . S
C3000 C3003 1.387 . S
H3001 C2997 0.950 . S
H3002 C2999 0.950 . S
C3003 C2994 1.390 1_655 S
C3003 H2996 0.950 . S
C3003 C3000 1.387 . S
C3004 C3005 1.387 . S
C3004 H3008 0.950 . S
C3004 C3013 1.390 . S
C3005 C3004 1.387 . S
C3005 C3007 1.387 . S
H3006 C3013 0.950 . S
C3007 C3005 1.387 . S
C3007 C3009 1.390 . S
C3007 H3011 0.950 . S
H3008 C3004 0.950 . S
C3009 C3007 1.390 . S
C3009 C3010 1.387 . S
C3009 H3012 0.950 . S
C3010 C3009 1.387 . S
C3010 C3013 1.387 . S
H3011 C3007 0.950 . S
H3012 C3009 0.950 . S
C3013 C3004 1.390 . S
C3013 H3006 0.950 . S
C3013 C3010 1.387 . S
C3014 C3015 1.387 . S
C3014 H3018 0.950 . S
C3014 C3023 1.390 . S
C3015 C3014 1.387 . S
C3015 C3017 1.387 . S
H3016 C3023 0.950 . S
C3017 C3015 1.387 . S
C3017 C3019 1.390 . S
C3017 H3021 0.950 . S
H3018 C3014 0.950 . S
C3019 C3017 1.390 . S
C3019 C3020 1.387 . S
C3019 H3022 0.950 . S
C3020 C3019 1.387 . S
C3020 C3023 1.387 . S
H3021 C3017 0.950 . S
H3022 C3019 0.950 . S
C3023 C3014 1.390 . S
C3023 H3016 0.950 . S
C3023 C3020 1.387 . S
C3024 C3025 1.387 . S
C3024 H3028 0.950 . S
C3024 C3033 1.390 . S
C3025 C3024 1.387 . S
C3025 C3027 1.387 . S
H3026 C3033 0.950 . S
C3027 C3025 1.387 . S
C3027 C3029 1.390 . S
C3027 H3031 0.950 . S
H3028 C3024 0.950 . S
C3029 C3027 1.390 . S
C3029 C3030 1.387 . S
C3029 H3032 0.950 . S
C3030 C3029 1.387 . S
C3030 C3033 1.387 . S
H3031 C3027 0.950 . S
H3032 C3029 0.950 . S
C3033 C3024 1.390 . S
C3033 H3026 0.950 . S
C3033 C3030 1.387 . S
C3034 C3035 1.387 . S
C3034 H3038 0.950 . S
C3034 C3043 1.390 . S
C3035 C3034 1.387 . S
C3035 C3037 1.387 . S
H3036 C3043 0.950 . S
C3037 C3035 1.387 . S
C3037 C3039 1.390 . S
C3037 H3041 0.950 . S
H3038 C3034 0.950 . S
C3039 C3037 1.390 . S
C3039 C3040 1.387 . S
C3039 H3042 0.950 . S
C3040 C3039 1.387 . S
C3040 C3043 1.387 . S
H3041 C3037 0.950 . S
H3042 C3039 0.950 . S
C3043 C3034 1.390 . S
C3043 H3036 0.950 . S
C3043 C3040 1.387 . S
C3044 C3045 1.387 . S
C3044 H3048 0.950 . S
C3044 C3053 1.390 . S
C3045 C3044 1.387 . S
C3045 C3047 1.387 . S
H3046 C3053 0.950 . S
C3047 C3045 1.387 . S
C3047 C3049 1.390 . S
C3047 H3051 0.950 . S
H3048 C3044 0.950 . S
C3049 C3047 1.390 . S
C3049 C3050 1.387 . S
C3049 H3052 0.950 . S
C3050 C3049 1.387 . S
C3050 C3053 1.387 . S
H3051 C3047 0.950 . S
H3052 C3049 0.950 . S
C3053 C3044 1.390 . S
C3053 H3046 0.950 . S
C3053 C3050 1.387 . S
C3054 C3055 1.387 . S
C3054 H3058 0.950 . S
C3054 C3063 1.390 . S
C3055 C3054 1.387 . S
C3055 C3057 1.387 . S
H3056 C3063 0.950 . S
C3057 C3055 1.387 . S
C3057 C3059 1.390 . S
C3057 H3061 0.950 . S
H3058 C3054 0.950 . S
C3059 C3057 1.390 . S
C3059 C3060 1.387 . S
C3059 H3062 0.950 . S
C3060 C3059 1.387 . S
C3060 C3063 1.387 . S
H3061 C3057 0.950 . S
H3062 C3059 0.950 . S
C3063 C3054 1.390 . S
C3063 H3056 0.950 . S
C3063 C3060 1.387 . S
C3064 C3065 1.387 . S
C3064 H3068 0.950 . S
C3064 C3073 1.390 1_554 S
C3065 C3064 1.387 . S
C3065 C3067 1.387 . S
H3066 C3073 0.950 . S
C3067 C3065 1.387 . S
C3067 C3069 1.390 1_554 S
C3067 H3071 0.950 . S
H3068 C3064 0.950 . S
C3069 C3067 1.390 1_556 S
C3069 C3070 1.387 . S
C3069 H3072 0.950 . S
C3070 C3069 1.387 . S
C3070 C3073 1.387 . S
H3071 C3067 0.950 . S
H3072 C3069 0.950 . S
C3073 C3064 1.390 1_556 S
C3073 H3066 0.950 . S
C3073 C3070 1.387 . S
C3074 C3075 1.387 . S
C3074 H3078 0.950 . S
C3074 C3083 1.390 . S
C3075 C3074 1.387 . S
C3075 C3077 1.387 . S
H3076 C3083 0.950 . S
C3077 C3075 1.387 . S
C3077 C3079 1.390 . S
C3077 H3081 0.950 . S
H3078 C3074 0.950 . S
C3079 C3077 1.390 . S
C3079 C3080 1.387 . S
C3079 H3082 0.950 . S
C3080 C3079 1.387 . S
C3080 C3083 1.387 . S
H3081 C3077 0.950 . S
H3082 C3079 0.950 . S
C3083 C3074 1.390 . S
C3083 H3076 0.950 . S
C3083 C3080 1.387 . S
C3084 C3085 1.387 . S
C3084 H3088 0.950 . S
C3084 C3093 1.390 . S
C3085 C3084 1.387 . S
C3085 C3087 1.387 . S
H3086 C3093 0.950 . S
C3087 C3085 1.387 . S
C3087 C3089 1.390 . S
C3087 H3091 0.950 . S
H3088 C3084 0.950 . S
C3089 C3087 1.390 . S
C3089 C3090 1.387 . S
C3089 H3092 0.950 . S
C3090 C3089 1.387 . S
C3090 C3093 1.387 . S
H3091 C3087 0.950 . S
H3092 C3089 0.950 . S
C3093 C3084 1.390 . S
C3093 H3086 0.950 . S
C3093 C3090 1.387 . S
C3094 C3095 1.387 . S
C3094 H3098 0.950 . S
C3094 C3103 1.390 1_556 S
C3095 C3094 1.387 . S
C3095 C3097 1.387 . S
H3096 C3103 0.950 . S
C3097 C3095 1.387 . S
C3097 C3099 1.390 1_556 S
C3097 H3101 0.950 . S
H3098 C3094 0.950 . S
C3099 C3097 1.390 1_554 S
C3099 C3100 1.387 . S
C3099 H3102 0.950 . S
C3100 C3099 1.387 . S
C3100 C3103 1.387 . S
H3101 C3097 0.950 . S
H3102 C3099 0.950 . S
C3103 C3094 1.390 1_554 S
C3103 H3096 0.950 . S
C3103 C3100 1.387 . S
C3104 C3105 1.387 . S
C3104 H3108 0.950 . S
C3104 C3113 1.390 . S
C3105 C3104 1.387 . S
C3105 C3107 1.387 . S
H3106 C3113 0.950 . S
C3107 C3105 1.387 . S
C3107 C3109 1.390 . S
C3107 H3111 0.950 . S
H3108 C3104 0.950 . S
C3109 C3107 1.390 . S
C3109 C3110 1.387 . S
C3109 H3112 0.950 . S
C3110 C3109 1.387 . S
C3110 C3113 1.387 . S
H3111 C3107 0.950 . S
H3112 C3109 0.950 . S
C3113 C3104 1.390 . S
C3113 H3106 0.950 . S
C3113 C3110 1.387 . S
C3114 C3115 1.387 . S
C3114 H3118 0.950 . S
C3114 C3123 1.390 . S
C3115 C3114 1.387 . S
C3115 C3117 1.387 . S
H3116 C3123 0.950 . S
C3117 C3115 1.387 . S
C3117 C3119 1.390 . S
C3117 H3121 0.950 . S
H3118 C3114 0.950 . S
C3119 C3117 1.390 . S
C3119 C3120 1.387 . S
C3119 H3122 0.950 . S
C3120 C3119 1.387 . S
C3120 C3123 1.387 . S
H3121 C3117 0.950 . S
H3122 C3119 0.950 . S
C3123 C3114 1.390 . S
C3123 H3116 0.950 . S
C3123 C3120 1.387 . S
C3124 C3125 1.387 . S
C3124 H3128 0.950 . S
C3124 C3133 1.390 . S
C3125 C3124 1.387 . S
C3125 C3127 1.387 . S
H3126 C3133 0.950 . S
C3127 C3125 1.387 . S
C3127 C3129 1.390 . S
C3127 H3131 0.950 . S
H3128 C3124 0.950 . S
C3129 C3127 1.390 . S
C3129 C3130 1.387 . S
C3129 H3132 0.950 . S
C3130 C3129 1.387 . S
C3130 C3133 1.387 . S
H3131 C3127 0.950 . S
H3132 C3129 0.950 . S
C3133 C3124 1.390 . S
C3133 H3126 0.950 . S
C3133 C3130 1.387 . S
C3134 C3135 1.387 . S
C3134 H3138 0.950 . S
C3134 C3143 1.390 . S
C3135 C3134 1.387 . S
C3135 C3137 1.387 . S
H3136 C3143 0.950 . S
C3137 C3135 1.387 . S
C3137 C3139 1.390 . S
C3137 H3141 0.950 . S
H3138 C3134 0.950 . S
C3139 C3137 1.390 . S
C3139 C3140 1.387 . S
C3139 H3142 0.950 . S
C3140 C3139 1.387 . S
C3140 C3143 1.387 . S
H3141 C3137 0.950 . S
H3142 C3139 0.950 . S
C3143 C3134 1.390 . S
C3143 H3136 0.950 . S
C3143 C3140 1.387 . S
C3144 C3145 1.387 . S
C3144 H3148 0.950 . S
C3144 C3153 1.390 1_565 S
C3145 C3144 1.387 . S
C3145 C3147 1.387 . S
H3146 C3153 0.950 . S
C3147 C3145 1.387 . S
C3147 C3149 1.390 1_565 S
C3147 H3151 0.950 . S
H3148 C3144 0.950 . S
C3149 C3147 1.390 1_545 S
C3149 C3150 1.387 . S
C3149 H3152 0.950 . S
C3150 C3149 1.387 . S
C3150 C3153 1.387 . S
H3151 C3147 0.950 . S
H3152 C3149 0.950 . S
C3153 C3144 1.390 1_545 S
C3153 H3146 0.950 . S
C3153 C3150 1.387 . S
C3154 C3155 1.387 . S
C3154 H3158 0.950 . S
C3154 C3163 1.390 . S
C3155 C3154 1.387 . S
C3155 C3157 1.387 . S
H3156 C3163 0.950 . S
C3157 C3155 1.387 . S
C3157 C3159 1.390 . S
C3157 H3161 0.950 . S
H3158 C3154 0.950 . S
C3159 C3157 1.390 . S
C3159 C3160 1.387 . S
C3159 H3162 0.950 . S
C3160 C3159 1.387 . S
C3160 C3163 1.387 . S
H3161 C3157 0.950 . S
H3162 C3159 0.950 . S
C3163 C3154 1.390 . S
C3163 H3156 0.950 . S
C3163 C3160 1.387 . S
C3164 C3165 1.387 . S
C3164 H3168 0.950 . S
C3164 C3173 1.390 . S
C3165 C3164 1.387 . S
C3165 C3167 1.387 . S
H3166 C3173 0.950 . S
C3167 C3165 1.387 . S
C3167 C3169 1.390 . S
C3167 H3171 0.950 . S
H3168 C3164 0.950 . S
C3169 C3167 1.390 . S
C3169 C3170 1.387 . S
C3169 H3172 0.950 . S
C3170 C3169 1.387 . S
C3170 C3173 1.387 . S
H3171 C3167 0.950 . S
H3172 C3169 0.950 . S
C3173 C3164 1.390 . S
C3173 H3166 0.950 . S
C3173 C3170 1.387 . S
C3174 C3175 1.387 1_655 S
C3174 H3178 0.950 1_655 S
C3174 C3183 1.390 . S
C3175 C3174 1.387 1_455 S
C3175 C3177 1.387 1_455 S
H3176 C3183 0.950 . S
C3177 C3175 1.387 1_655 S
C3177 C3179 1.390 . S
C3177 H3181 0.950 1_655 S
H3178 C3174 0.950 1_455 S
C3179 C3177 1.390 . S
C3179 C3180 1.387 . S
C3179 H3182 0.950 . S
C3180 C3179 1.387 . S
C3180 C3183 1.387 . S
H3181 C3177 0.950 1_455 S
H3182 C3179 0.950 . S
C3183 C3174 1.390 . S
C3183 H3176 0.950 . S
C3183 C3180 1.387 . S
C3184 C3185 1.387 . S
C3184 H3188 0.950 . S
C3184 C3193 1.390 . S
C3185 C3184 1.387 . S
C3185 C3187 1.387 . S
H3186 C3193 0.950 . S
C3187 C3185 1.387 . S
C3187 C3189 1.390 . S
C3187 H3191 0.950 . S
H3188 C3184 0.950 . S
C3189 C3187 1.390 . S
C3189 C3190 1.387 . S
C3189 H3192 0.950 . S
C3190 C3189 1.387 . S
C3190 C3193 1.387 . S
H3191 C3187 0.950 . S
H3192 C3189 0.950 . S
C3193 C3184 1.390 . S
C3193 H3186 0.950 . S
C3193 C3190 1.387 . S
C3194 C3195 1.387 . S
C3194 H3198 0.950 . S
C3194 C3203 1.390 . S
C3195 C3194 1.387 . S
C3195 C3197 1.387 . S
H3196 C3203 0.950 . S
C3197 C3195 1.387 . S
C3197 C3199 1.390 . S
C3197 H3201 0.950 . S
H3198 C3194 0.950 . S
C3199 C3197 1.390 . S
C3199 C3200 1.387 . S
C3199 H3202 0.950 . S
C3200 C3199 1.387 . S
C3200 C3203 1.387 . S
H3201 C3197 0.950 . S
H3202 C3199 0.950 . S
C3203 C3194 1.390 . S
C3203 H3196 0.950 . S
C3203 C3200 1.387 . S
C3204 C3205 1.387 . S
C3204 H3208 0.950 . S
C3204 C3213 1.390 . S
C3205 C3204 1.387 . S
C3205 C3207 1.387 . S
H3206 C3213 0.950 . S
C3207 C3205 1.387 . S
C3207 C3209 1.390 . S
C3207 H3211 0.950 . S
H3208 C3204 0.950 . S
C3209 C3207 1.390 . S
C3209 C3210 1.387 . S
C3209 H3212 0.950 . S
C3210 C3209 1.387 . S
C3210 C3213 1.387 . S
H3211 C3207 0.950 . S
H3212 C3209 0.950 . S
C3213 C3204 1.390 . S
C3213 H3206 0.950 . S
C3213 C3210 1.387 . S
C3214 C3215 1.387 . S
C3214 H3218 0.950 . S
C3214 C3223 1.390 . S
C3215 C3214 1.387 . S
C3215 C3217 1.387 . S
H3216 C3223 0.950 . S
C3217 C3215 1.387 . S
C3217 C3219 1.390 . S
C3217 H3221 0.950 . S
H3218 C3214 0.950 . S
C3219 C3217 1.390 . S
C3219 C3220 1.387 . S
C3219 H3222 0.950 . S
C3220 C3219 1.387 . S
C3220 C3223 1.387 . S
H3221 C3217 0.950 . S
H3222 C3219 0.950 . S
C3223 C3214 1.390 . S
C3223 H3216 0.950 . S
C3223 C3220 1.387 . S
C3224 C3225 1.387 . S
C3224 H3228 0.950 . S
C3224 C3233 1.390 . S
C3225 C3224 1.387 . S
C3225 C3227 1.387 . S
H3226 C3233 0.950 . S
C3227 C3225 1.387 . S
C3227 C3229 1.390 . S
C3227 H3231 0.950 . S
H3228 C3224 0.950 . S
C3229 C3227 1.390 . S
C3229 C3230 1.387 . S
C3229 H3232 0.950 . S
C3230 C3229 1.387 . S
C3230 C3233 1.387 . S
H3231 C3227 0.950 . S
H3232 C3229 0.950 . S
C3233 C3224 1.390 . S
C3233 H3226 0.950 . S
C3233 C3230 1.387 . S
C3234 C3235 1.387 . S
C3234 H3238 0.950 . S
C3234 C3243 1.390 . S
C3235 C3234 1.387 . S
C3235 C3237 1.387 . S
H3236 C3243 0.950 . S
C3237 C3235 1.387 . S
C3237 C3239 1.390 . S
C3237 H3241 0.950 . S
H3238 C3234 0.950 . S
C3239 C3237 1.390 . S
C3239 C3240 1.387 . S
C3239 H3242 0.950 . S
C3240 C3239 1.387 . S
C3240 C3243 1.387 . S
H3241 C3237 0.950 . S
H3242 C3239 0.950 . S
C3243 C3234 1.390 . S
C3243 H3236 0.950 . S
C3243 C3240 1.387 . S
C3244 C3245 1.387 . S
C3244 H3248 0.950 . S
C3244 C3253 1.390 . S
C3245 C3244 1.387 . S
C3245 C3247 1.387 . S
H3246 C3253 0.950 . S
C3247 C3245 1.387 . S
C3247 C3249 1.390 . S
C3247 H3251 0.950 . S
H3248 C3244 0.950 . S
C3249 C3247 1.390 . S
C3249 C3250 1.387 . S
C3249 H3252 0.950 . S
C3250 C3249 1.387 . S
C3250 C3253 1.387 . S
H3251 C3247 0.950 . S
H3252 C3249 0.950 . S
C3253 C3244 1.390 . S
C3253 H3246 0.950 . S
C3253 C3250 1.387 . S
C3254 C3255 1.387 . S
C3254 H3258 0.950 . S
C3254 C3263 1.390 . S
C3255 C3254 1.387 . S
C3255 C3257 1.387 . S
H3256 C3263 0.950 . S
C3257 C3255 1.387 . S
C3257 C3259 1.390 . S
C3257 H3261 0.950 . S
H3258 C3254 0.950 . S
C3259 C3257 1.390 . S
C3259 C3260 1.387 . S
C3259 H3262 0.950 . S
C3260 C3259 1.387 . S
C3260 C3263 1.387 . S
H3261 C3257 0.950 . S
H3262 C3259 0.950 . S
C3263 C3254 1.390 . S
C3263 H3256 0.950 . S
C3263 C3260 1.387 . S
C3264 C3265 1.387 . S
C3264 H3268 0.950 . S
C3264 C3273 1.390 . S
C3265 C3264 1.387 . S
C3265 C3267 1.387 . S
H3266 C3273 0.950 . S
C3267 C3265 1.387 . S
C3267 C3269 1.390 . S
C3267 H3271 0.950 . S
H3268 C3264 0.950 . S
C3269 C3267 1.390 . S
C3269 C3270 1.387 . S
C3269 H3272 0.950 . S
C3270 C3269 1.387 . S
C3270 C3273 1.387 . S
H3271 C3267 0.950 . S
H3272 C3269 0.950 . S
C3273 C3264 1.390 . S
C3273 H3266 0.950 . S
C3273 C3270 1.387 . S
C3274 C3275 1.387 . S
C3274 H3278 0.950 . S
C3274 C3283 1.390 . S
C3275 C3274 1.387 . S
C3275 C3277 1.387 . S
H3276 C3283 0.950 . S
C3277 C3275 1.387 . S
C3277 C3279 1.390 . S
C3277 H3281 0.950 . S
H3278 C3274 0.950 . S
C3279 C3277 1.390 . S
C3279 C3280 1.387 . S
C3279 H3282 0.950 . S
C3280 C3279 1.387 . S
C3280 C3283 1.387 . S
H3281 C3277 0.950 . S
H3282 C3279 0.950 . S
C3283 C3274 1.390 . S
C3283 H3276 0.950 . S
C3283 C3280 1.387 . S
C3284 C3285 1.387 . S
C3284 H3288 0.950 . S
C3284 C3293 1.390 . S
C3285 C3284 1.387 . S
C3285 C3287 1.387 . S
H3286 C3293 0.950 . S
C3287 C3285 1.387 . S
C3287 C3289 1.390 . S
C3287 H3291 0.950 . S
H3288 C3284 0.950 . S
C3289 C3287 1.390 . S
C3289 C3290 1.387 . S
C3289 H3292 0.950 . S
C3290 C3289 1.387 . S
C3290 C3293 1.387 . S
H3291 C3287 0.950 . S
H3292 C3289 0.950 . S
C3293 C3284 1.390 . S
C3293 H3286 0.950 . S
C3293 C3290 1.387 . S
C3294 C3295 1.387 . S
C3294 H3298 0.950 . S
C3294 C3303 1.390 . S
C3295 C3294 1.387 . S
C3295 C3297 1.387 . S
H3296 C3303 0.950 . S
C3297 C3295 1.387 . S
C3297 C3299 1.390 . S
C3297 H3301 0.950 . S
H3298 C3294 0.950 . S
C3299 C3297 1.390 . S
C3299 C3300 1.387 . S
C3299 H3302 0.950 . S
C3300 C3299 1.387 . S
C3300 C3303 1.387 . S
H3301 C3297 0.950 . S
H3302 C3299 0.950 . S
C3303 C3294 1.390 . S
C3303 H3296 0.950 . S
C3303 C3300 1.387 . S
C3304 C3305 1.387 . S
C3304 H3308 0.950 . S
C3304 C3313 1.390 . S
C3305 C3304 1.387 . S
C3305 C3307 1.387 . S
H3306 C3313 0.950 . S
C3307 C3305 1.387 . S
C3307 C3309 1.390 . S
C3307 H3311 0.950 . S
H3308 C3304 0.950 . S
C3309 C3307 1.390 . S
C3309 C3310 1.387 . S
C3309 H3312 0.950 . S
C3310 C3309 1.387 . S
C3310 C3313 1.387 . S
H3311 C3307 0.950 . S
H3312 C3309 0.950 . S
C3313 C3304 1.390 . S
C3313 H3306 0.950 . S
C3313 C3310 1.387 . S
C3314 C3315 1.387 . S
C3314 H3318 0.950 . S
C3314 C3323 1.390 . S
C3315 C3314 1.387 . S
C3315 C3317 1.387 . S
H3316 C3323 0.950 . S
C3317 C3315 1.387 . S
C3317 C3319 1.390 . S
C3317 H3321 0.950 . S
H3318 C3314 0.950 . S
C3319 C3317 1.390 . S
C3319 C3320 1.387 . S
C3319 H3322 0.950 . S
C3320 C3319 1.387 . S
C3320 C3323 1.387 . S
H3321 C3317 0.950 . S
H3322 C3319 0.950 . S
C3323 C3314 1.390 . S
C3323 H3316 0.950 . S
C3323 C3320 1.387 . S
C3324 C3325 1.387 . S
C3324 H3328 0.950 . S
C3324 C3333 1.390 . S
C3325 C3324 1.387 . S
C3325 C3327 1.387 . S
H3326 C3333 0.950 . S
C3327 C3325 1.387 . S
C3327 C3329 1.390 . S
C3327 H3331 0.950 . S
H3328 C3324 0.950 . S
C3329 C3327 1.390 . S
C3329 C3330 1.387 . S
C3329 H3332 0.950 . S
C3330 C3329 1.387 . S
C3330 C3333 1.387 . S
H3331 C3327 0.950 . S
H3332 C3329 0.950 . S
C3333 C3324 1.390 . S
C3333 H3326 0.950 . S
C3333 C3330 1.387 . S
C3334 C3335 1.387 . S
C3334 H3338 0.950 . S
C3334 C3343 1.390 . S
C3335 C3334 1.387 . S
C3335 C3337 1.387 . S
H3336 C3343 0.950 . S
C3337 C3335 1.387 . S
C3337 C3339 1.390 . S
C3337 H3341 0.950 . S
H3338 C3334 0.950 . S
C3339 C3337 1.390 . S
C3339 C3340 1.387 . S
C3339 H3342 0.950 . S
C3340 C3339 1.387 . S
C3340 C3343 1.387 . S
H3341 C3337 0.950 . S
H3342 C3339 0.950 . S
C3343 C3334 1.390 . S
C3343 H3336 0.950 . S
C3343 C3340 1.387 . S
C3344 C3345 1.387 . S
C3344 H3348 0.950 . S
C3344 C3353 1.390 . S
C3345 C3344 1.387 . S
C3345 C3347 1.387 . S
H3346 C3353 0.950 . S
C3347 C3345 1.387 . S
C3347 C3349 1.390 . S
C3347 H3351 0.950 . S
H3348 C3344 0.950 . S
C3349 C3347 1.390 . S
C3349 C3350 1.387 . S
C3349 H3352 0.950 . S
C3350 C3349 1.387 . S
C3350 C3353 1.387 . S
H3351 C3347 0.950 . S
H3352 C3349 0.950 . S
C3353 C3344 1.390 . S
C3353 H3346 0.950 . S
C3353 C3350 1.387 . S
C3354 C3355 1.387 . S
C3354 H3358 0.950 . S
C3354 C3363 1.390 . S
C3355 C3354 1.387 . S
C3355 C3357 1.387 . S
H3356 C3363 0.950 . S
C3357 C3355 1.387 . S
C3357 C3359 1.390 . S
C3357 H3361 0.950 . S
H3358 C3354 0.950 . S
C3359 C3357 1.390 . S
C3359 C3360 1.387 . S
C3359 H3362 0.950 . S
C3360 C3359 1.387 . S
C3360 C3363 1.387 . S
H3361 C3357 0.950 . S
H3362 C3359 0.950 . S
C3363 C3354 1.390 . S
C3363 H3356 0.950 . S
C3363 C3360 1.387 . S
C3364 C3365 1.387 . S
C3364 H3368 0.950 . S
C3364 C3373 1.390 . S
C3365 C3364 1.387 . S
C3365 C3367 1.387 . S
H3366 C3373 0.950 . S
C3367 C3365 1.387 . S
C3367 C3369 1.390 . S
C3367 H3371 0.950 . S
H3368 C3364 0.950 . S
C3369 C3367 1.390 . S
C3369 C3370 1.387 . S
C3369 H3372 0.950 . S
C3370 C3369 1.387 . S
C3370 C3373 1.387 . S
H3371 C3367 0.950 . S
H3372 C3369 0.950 . S
C3373 C3364 1.390 . S
C3373 H3366 0.950 . S
C3373 C3370 1.387 . S
C3374 C3375 1.387 . S
C3374 H3378 0.950 . S
C3374 C3383 1.390 . S
C3375 C3374 1.387 . S
C3375 C3377 1.387 . S
H3376 C3383 0.950 . S
C3377 C3375 1.387 . S
C3377 C3379 1.390 . S
C3377 H3381 0.950 . S
H3378 C3374 0.950 . S
C3379 C3377 1.390 . S
C3379 C3380 1.387 . S
C3379 H3382 0.950 . S
C3380 C3379 1.387 . S
C3380 C3383 1.387 . S
H3381 C3377 0.950 . S
H3382 C3379 0.950 . S
C3383 C3374 1.390 . S
C3383 H3376 0.950 . S
C3383 C3380 1.387 . S
C3384 C3385 1.387 . S
C3384 H3388 0.950 . S
C3384 C3393 1.390 . S
C3385 C3384 1.387 . S
C3385 C3387 1.387 . S
H3386 C3393 0.950 . S
C3387 C3385 1.387 . S
C3387 C3389 1.390 . S
C3387 H3391 0.950 . S
H3388 C3384 0.950 . S
C3389 C3387 1.390 . S
C3389 C3390 1.387 . S
C3389 H3392 0.950 . S
C3390 C3389 1.387 . S
C3390 C3393 1.387 . S
H3391 C3387 0.950 . S
H3392 C3389 0.950 . S
C3393 C3384 1.390 . S
C3393 H3386 0.950 . S
C3393 C3390 1.387 . S
C3394 C3395 1.387 . S
C3394 H3398 0.950 . S
C3394 C3403 1.390 . S
C3395 C3394 1.387 . S
C3395 C3397 1.387 . S
H3396 C3403 0.950 . S
C3397 C3395 1.387 . S
C3397 C3399 1.390 . S
C3397 H3401 0.950 . S
H3398 C3394 0.950 . S
C3399 C3397 1.390 . S
C3399 C3400 1.387 . S
C3399 H3402 0.950 . S
C3400 C3399 1.387 . S
C3400 C3403 1.387 . S
H3401 C3397 0.950 . S
H3402 C3399 0.950 . S
C3403 C3394 1.390 . S
C3403 H3396 0.950 . S
C3403 C3400 1.387 . S
C3404 C3405 1.387 . S
C3404 H3408 0.950 . S
C3404 C3413 1.390 . S
C3405 C3404 1.387 . S
C3405 C3407 1.387 . S
H3406 C3413 0.950 . S
C3407 C3405 1.387 . S
C3407 C3409 1.390 . S
C3407 H3411 0.950 . S
H3408 C3404 0.950 . S
C3409 C3407 1.390 . S
C3409 C3410 1.387 . S
C3409 H3412 0.950 . S
C3410 C3409 1.387 . S
C3410 C3413 1.387 . S
H3411 C3407 0.950 . S
H3412 C3409 0.950 . S
C3413 C3404 1.390 . S
C3413 H3406 0.950 . S
C3413 C3410 1.387 . S
C3414 C3415 1.387 . S
C3414 H3418 0.950 . S
C3414 C3423 1.390 . S
C3415 C3414 1.387 . S
C3415 C3417 1.387 . S
H3416 C3423 0.950 . S
C3417 C3415 1.387 . S
C3417 C3419 1.390 . S
C3417 H3421 0.950 . S
H3418 C3414 0.950 . S
C3419 C3417 1.390 . S
C3419 C3420 1.387 . S
C3419 H3422 0.950 . S
C3420 C3419 1.387 . S
C3420 C3423 1.387 . S
H3421 C3417 0.950 . S
H3422 C3419 0.950 . S
C3423 C3414 1.390 . S
C3423 H3416 0.950 . S
C3423 C3420 1.387 . S
C3424 C3425 1.383 1_545 S
C3424 H3428 0.946 1_545 S
C3424 C3433 1.399 . S
C3425 C3424 1.383 1_565 S
C3425 C3427 1.387 . S
H3426 C3433 0.950 . S
C3427 C3425 1.387 . S
C3427 C3429 1.390 1_565 S
C3427 H3431 0.950 . S
H3428 C3424 0.946 1_565 S
C3429 C3427 1.390 1_545 S
C3429 C3430 1.387 . S
C3429 H3432 0.950 . S
C3430 C3429 1.387 . S
C3430 C3433 1.387 . S
H3431 C3427 0.950 . S
H3432 C3429 0.950 . S
C3433 C3424 1.399 . S
C3433 H3426 0.950 . S
C3433 C3430 1.387 . S
C3434 C3435 1.387 . S
C3434 H3438 0.950 . S
C3434 C3443 1.390 . S
C3435 C3434 1.387 . S
C3435 C3437 1.387 . S
H3436 C3443 0.950 . S
C3437 C3435 1.387 . S
C3437 C3439 1.390 . S
C3437 H3441 0.950 . S
H3438 C3434 0.950 . S
C3439 C3437 1.390 . S
C3439 C3440 1.387 . S
C3439 H3442 0.950 . S
C3440 C3439 1.387 . S
C3440 C3443 1.387 . S
H3441 C3437 0.950 . S
H3442 C3439 0.950 . S
C3443 C3434 1.390 . S
C3443 H3436 0.950 . S
C3443 C3440 1.387 . S
C3444 C3445 1.387 . S
C3444 H3448 0.950 . S
C3444 C3453 1.390 . S
C3445 C3444 1.387 . S
C3445 C3447 1.387 . S
H3446 C3453 0.950 . S
C3447 C3445 1.387 . S
C3447 C3449 1.390 . S
C3447 H3451 0.950 . S
H3448 C3444 0.950 . S
C3449 C3447 1.390 . S
C3449 C3450 1.387 . S
C3449 H3452 0.950 . S
C3450 C3449 1.387 . S
C3450 C3453 1.387 . S
H3451 C3447 0.950 . S
H3452 C3449 0.950 . S
C3453 C3444 1.390 . S
C3453 H3446 0.950 . S
C3453 C3450 1.387 . S
C3454 C3455 1.387 . S
C3454 H3458 0.950 . S
C3454 C3463 1.390 . S
C3455 C3454 1.387 . S
C3455 C3457 1.387 . S
H3456 C3463 0.950 . S
C3457 C3455 1.387 . S
C3457 C3459 1.390 . S
C3457 H3461 0.950 . S
H3458 C3454 0.950 . S
C3459 C3457 1.390 . S
C3459 C3460 1.387 . S
C3459 H3462 0.950 . S
C3460 C3459 1.387 . S
C3460 C3463 1.387 . S
H3461 C3457 0.950 . S
H3462 C3459 0.950 . S
C3463 C3454 1.390 . S
C3463 H3456 0.950 . S
C3463 C3460 1.387 . S
C3464 C3465 1.387 . S
C3464 H3468 0.950 . S
C3464 C3473 1.390 . S
C3465 C3464 1.387 . S
C3465 C3467 1.387 . S
H3466 C3473 0.950 . S
C3467 C3465 1.387 . S
C3467 C3469 1.390 . S
C3467 H3471 0.950 . S
H3468 C3464 0.950 . S
C3469 C3467 1.390 . S
C3469 C3470 1.387 . S
C3469 H3472 0.950 . S
C3470 C3469 1.387 . S
C3470 C3473 1.387 . S
H3471 C3467 0.950 . S
H3472 C3469 0.950 . S
C3473 C3464 1.390 . S
C3473 H3466 0.950 . S
C3473 C3470 1.387 . S
C3474 C3475 1.387 . S
C3474 H3478 0.950 . S
C3474 C3483 1.390 . S
C3475 C3474 1.387 . S
C3475 C3477 1.387 . S
H3476 C3483 0.950 . S
C3477 C3475 1.387 . S
C3477 C3479 1.390 . S
C3477 H3481 0.950 . S
H3478 C3474 0.950 . S
C3479 C3477 1.390 . S
C3479 C3480 1.387 . S
C3479 H3482 0.950 . S
C3480 C3479 1.387 . S
C3480 C3483 1.387 . S
H3481 C3477 0.950 . S
H3482 C3479 0.950 . S
C3483 C3474 1.390 . S
C3483 H3476 0.950 . S
C3483 C3480 1.387 . S
C3484 C3485 1.387 . S
C3484 H3488 0.950 . S
C3484 C3493 1.390 . S
C3485 C3484 1.387 . S
C3485 C3487 1.387 . S
H3486 C3493 0.950 . S
C3487 C3485 1.387 . S
C3487 C3489 1.390 . S
C3487 H3491 0.950 . S
H3488 C3484 0.950 . S
C3489 C3487 1.390 . S
C3489 C3490 1.387 . S
C3489 H3492 0.950 . S
C3490 C3489 1.387 . S
C3490 C3493 1.387 . S
H3491 C3487 0.950 . S
H3492 C3489 0.950 . S
C3493 C3484 1.390 . S
C3493 H3486 0.950 . S
C3493 C3490 1.387 . S
C3494 C3495 1.387 . S
C3494 H3498 0.950 . S
C3494 C3503 1.390 . S
C3495 C3494 1.387 . S
C3495 C3497 1.387 . S
H3496 C3503 0.950 . S
C3497 C3495 1.387 . S
C3497 C3499 1.390 . S
C3497 H3501 0.950 . S
H3498 C3494 0.950 . S
C3499 C3497 1.390 . S
C3499 C3500 1.387 . S
C3499 H3502 0.950 . S
C3500 C3499 1.387 . S
C3500 C3503 1.387 . S
H3501 C3497 0.950 . S
H3502 C3499 0.950 . S
C3503 C3494 1.390 . S
C3503 H3496 0.950 . S
C3503 C3500 1.387 . S
C1585 C521 1.688 . S
C1590 C25 1.737 . S
C1595 C617 1.927 . S
C1600 C58 1.897 1_455 S
C1605 C90 1.939 . S
C1610 C455 2.300 . S
C1615 C490 1.520 . S
C1620 C123 1.692 . S
C1625 C815 2.089 . S
C1630 C156 2.097 . S
C1635 C1143 1.434 1_554 S
C1640 C189 1.410 . S
C1645 C223 1.852 . S
C1650 C1475 2.002 . S
C1655 C1181 1.872 . S
C1660 C256 1.799 1_455 S
C1665 C286 2.795 . S
C1670 C92 2.877 . S
C1675 C322 1.860 . S
C1680 C125 2.072 . S
C1685 C355 2.022 . S
C1690 C23 2.108 . S
C1695 C390 2.783 . S
C1700 C56 2.641 . S
C1705 C221 2.831 . S
C1710 C291 2.895 . S
C1715 C254 2.046 . S
C1720 C321 1.912 . S
C1725 C354 2.118 . S
C1730 C158 2.646 . S
C1735 C191 2.935 . S
C1740 C385 2.821 . S
C1745 C421 1.446 . S
C1750 C978 1.439 . S
C1755 C292 1.581 . S
C1760 C453 1.634 . S
C1765 C320 3.003 . S
C1770 C484 3.113 . S
C1775 C353 2.371 . S
C1780 C519 2.064 . S
C1785 C1374 1.416 . S
C1790 C553 1.340 . S
C1795 C586 2.003 . S
C1800 C1082 2.108 . S
C1805 C886 2.061 . S
C1810 C489 2.266 . S
C1815 C950 2.583 . S
C1820 C618 2.138 . S
C1825 C880 2.820 . S
C1830 C257 2.935 . S
C1835 C984 2.897 . S
C1840 C650 2.829 . S
C1845 C849 1.912 . S
C1850 C683 2.046 . S
C1855 C716 2.108 . S
C1860 C1081 2.025 1_556 S
C1865 C1512 2.785 . S
C1870 C749 2.638 . S
C1875 C1309 2.796 . S
C1880 C26 2.876 . S
C1885 C785 1.871 . S
C1890 C685 1.802 . S
C1895 C483 1.433 . S
C1900 C255 1.410 . S
C1905 C419 2.001 . S
C1910 C652 1.855 . S
C1915 C751 1.897 . S
C1920 C782 1.927 . S
C1925 C818 2.300 . S
C1930 C24 1.939 . S
C1935 C422 1.687 . S
C1940 C718 1.720 . S
C1945 C619 1.340 . S
C1950 C384 1.415 . S
C1955 C783 2.142 . S
C1960 C851 2.583 . S
C1965 C356 2.108 . S
C1970 C817 2.006 . S
C1975 C912 1.442 . S
C1980 C1411 1.443 . S
C1985 C947 3.005 . S
C1990 C1144 3.111 . S
C1995 C585 1.634 . S
C2000 C985 1.581 . S
C2005 C124 1.894 1_455 S
C2010 C1178 1.930 . S
C2015 C1115 2.300 . S
C2020 C1014 1.935 . S
C2025 C57 1.690 . S
C2030 C1150 1.523 . S
C2035 C651 2.099 . S
C2040 C584 2.086 . S
C2045 C1409 2.002 . S
C2050 C1048 1.852 . S
C2055 C620 1.872 . S
C2060 C190 1.799 1_455 S
C2065 C913 2.795 . S
C2070 C1016 2.877 . S
C2075 C949 1.864 . S
C2080 C59 2.071 . S
C2085 C885 2.783 . S
C2090 C122 2.641 . S
C2095 C1046 2.829 . S
C2100 C918 2.897 . S
C2105 C188 2.046 . S
C2110 C948 1.912 . S
C2115 C653 2.646 . S
C2120 C1080 2.118 . S
C2125 C1308 1.442 1_565 S
C2130 C520 1.443 . S
C2135 C919 1.579 . S
C2140 C1113 1.637 . S
C2145 C1079 2.371 . S
C2150 C420 2.064 . S
C2155 C1506 1.416 . S
C2160 C784 1.340 1_545 S
C2165 C1149 2.264 . S
C2170 C391 2.065 . S
C2175 C1179 2.142 . S
C2180 C323 2.583 . S
C2185 C1314 2.895 . S
C2190 C155 2.832 . S
C2195 C1278 1.912 . S
C2200 C1211 2.046 . S
C2205 C1380 2.783 . S
C2210 C1244 2.641 . S
C2215 C979 2.796 . S
C2220 C719 2.876 . S
C2225 C1213 1.802 . S
C2230 C554 1.871 . S
C2235 C157 1.854 . S
C2240 C518 2.001 . S
C2245 C551 1.927 . S
C2250 C1246 1.897 . S
C2255 C717 1.936 . S
C2260 C587 2.299 . S
C2265 C879 1.415 . S
C2270 C1180 1.341 1_545 S
C2275 C552 2.142 . S
C2280 C1280 2.583 . S
C2285 C1477 1.446 . S
C2290 C285 1.439 1_565 S
C2295 C816 1.638 . S
C2300 C1315 1.577 . S
C2305 C1478 1.685 . S
C2310 C91 1.733 . S
C2315 C1447 1.523 . S
C2320 C750 1.690 . S
C2325 C222 2.100 . S
C2330 C452 2.085 . S
C2335 C1572 1.437 . S
C2340 C1212 1.405 . S
C2345 C752 2.071 . S
C2350 C850 1.860 . S
C2355 C89 2.106 . S
C2360 C1345 2.021 1_556 S
C2365 C224 2.646 . S
C2370 C1344 2.118 . S
C2375 C1214 2.935 . S
C2380 C1375 2.821 . S
C2385 C848 3.003 . S
C2390 C1441 3.112 . S
C2395 C1476 2.068 . S
C2400 C1343 2.370 . S
C2405 C1544 2.108 . S
C2410 C1114 2.003 . S
C2415 C1513 2.061 . S
C2420 C1446 2.266 . S
C2425 C686 2.936 . S
C2430 C1507 2.819 . S
C2435 C1013 2.106 . S
C2440 C1543 2.025 . S
C2445 C684 1.405 . S
C2450 C1440 1.437 1_554 S
C2455 C1015 1.719 . S
C2460 C1412 1.688 . S
C2465 C454 2.003 . S
C2470 C1346 2.108 . S
C2475 C1573 3.113 . S
C2480 C1277 3.003 . S
C2485 C1579 1.518 . S
C2490 C1245 1.694 . S
C2495 C1047 2.099 . S
C2500 C1112 2.086 . S
C2505 C1247 2.070 . S
C2510 C1279 1.860 . S
C2515 C1049 2.647 . S
C2520 C1542 2.121 . S
C2525 C1410 2.064 . S
C2530 C1541 2.371 . S
C2535 C1381 2.061 . S
C2540 C1578 2.266 . S
C2545 C1183 0.464 . S
C2550 C28 0.468 . S
C2555 C813 0.558 . S
C2560 C61 0.652 . S
C2565 C1145 0.765 . S
C2570 C87 0.768 . S
C2575 C1473 0.677 . S
C2580 C120 0.561 . S
C2585 C153 0.427 . S
C2590 C615 0.533 . S
C2595 C186 0.310 . S
C2600 C457 0.445 . S
C2605 C226 1.309 1_565 S
C2610 C488 1.330 . S
C2615 C259 0.387 . S
C2620 C523 0.400 . S
C2625 C287 1.591 . S
C2630 C1508 1.594 . S
C2635 C983 1.162 . S
C2640 C325 1.216 . S
C2645 C1275 0.486 . S
C2650 C358 0.504 . S
C2655 C1539 1.075 . S
C2660 C389 1.019 . S
C2665 C290 1.168 . S
C2670 C1282 1.220 . S
C2675 C318 0.494 . S
C2680 C1546 0.510 . S
C2685 C351 1.075 . S
C2690 C1511 1.019 . S
C2695 C980 1.593 . S
C2700 C386 1.594 . S
C2705 C193 0.393 . S
C2710 C424 0.407 . S
C2715 C450 0.558 . S
C2720 C1249 0.652 . S
C2725 C485 0.764 . S
C2730 C1011 0.767 . S
C2735 C516 0.677 . S
C2740 C747 0.562 . S
C2745 C556 0.466 . S
C2750 C1018 0.469 . S
C2755 C589 0.454 . S
C2760 C681 0.315 . S
C2765 C1311 1.717 1_565 S
C2770 C258 1.674 . S
C2775 C324 2.770 . S
C2780 C649 2.696 . S
C2785 C1083 2.497 . S
C2790 C682 2.561 . S
C2795 C1510 2.120 . S
C2800 C159 2.126 . S
C2805 C982 1.869 . S
C2810 C126 1.833 . S
C2815 C847 2.664 . S
C2820 C715 2.720 . S
C2825 C748 1.976 . S
C2830 C352 2.091 . S
C2835 C27 1.909 . S
C2840 C882 1.989 . S
C2845 C1479 1.728 . S
C2850 C786 1.744 . S
C2855 C814 1.896 . S
C2860 C616 1.862 . S
C2865 C486 1.631 . S
C2870 C1116 1.587 . S
C2875 C1576 1.469 . S
C2880 C418 1.399 . S
C2885 C781 1.865 . S
C2890 C1111 1.895 . S
C2895 C819 1.587 . S
C2900 C1575 1.631 . S
C2905 C487 1.469 . S
C2910 C1474 1.399 . S
C2915 C423 1.725 . S
C2920 C621 1.743 . S
C2925 C720 1.909 . S
C2930 C387 1.989 . S
C2935 C852 2.770 . S
C2940 C1045 2.696 . S
C2945 C1210 2.561 . S
C2950 C357 2.497 . S
C2955 C225 2.126 . S
C2960 C883 2.120 . S
C2965 C1215 1.675 . S
C2970 C915 1.718 . S
C2975 C88 2.720 . S
C2980 C946 2.664 . S
C2985 C622 0.463 . S
C2990 C721 0.466 . S
C2995 C582 0.558 . S
C3000 C127 0.652 . S
C3005 C1407 0.666 . S
C3010 C54 0.556 . S
C3015 C648 0.427 . S
C3020 C1176 0.533 . S
C3025 C1117 0.456 . S
C3030 C252 0.313 . S
C3035 C1148 1.333 . S
C3040 C1051 1.313 . S
C3045 C914 1.592 . S
C3050 C1376 1.594 . S
C3055 C952 1.215 . S
C3060 C1313 1.163 . S
C3065 C1084 0.502 . S
C3070 C846 0.486 . S
C3075 C884 1.014 . S
C3080 C1341 1.075 . S
C3085 C917 1.163 . S
C3090 C853 1.217 . S
C3095 C945 0.495 . S
C3100 C1348 0.510 . S
C3105 C1379 1.019 . S
C3110 C1077 1.075 . S
C3115 C1310 1.593 . S
C3120 C881 1.594 . S
C3125 C754 0.652 . S
C3130 C1110 0.558 . S
C3135 C1242 0.555 . S
C3140 C417 0.666 . S
C3145 C787 0.467 . S
C3150 C94 0.470 . S
C3155 C820 0.444 . S
C3160 C1209 0.308 . S
C3165 C981 1.718 . S
C3170 C192 1.675 . S
C3175 C154 2.696 . S
C3180 C951 2.770 . S
C3185 C654 2.125 . S
C3190 C1378 2.118 . S
C3195 C60 1.832 . S
C3200 C1312 1.869 . S
C3205 C22 2.720 . S
C3210 C1276 2.662 . S
C3215 C1243 1.979 . S
C3220 C1078 2.091 . S
C3225 C555 1.742 . S
C3230 C1413 1.725 . S
C3235 C583 1.896 . S
C3240 C1177 1.862 . S
C3245 C456 1.590 . S
C3250 C1146 1.633 1_554 S
C3255 C517 1.402 . S
C3260 C1444 1.468 . S
C3265 C451 1.896 . S
C3270 C550 1.863 . S
C3275 C588 1.590 . S
C3280 C1443 1.633 1_554 S
C3285 C1147 1.468 . S
C3290 C1408 1.402 . S
C3295 C1182 1.742 . S
C3300 C522 1.725 . S
C3305 C220 2.694 . S
C3310 C1281 2.768 . S
C3315 C1050 2.125 . S
C3320 C388 2.118 . S
C3325 C687 1.673 . S
C3330 C288 1.717 1_565 S
C3335 C1012 2.720 . S
C3340 C319 2.664 . S
C3345 C1574 0.762 . S
C3350 C21 0.766 . S
C3355 C549 0.522 . S
C3360 C219 0.422 . S
C3365 C160 1.313 1_565 S
C3370 C1445 1.330 . S
C3375 C1480 0.408 . S
C3380 C688 0.393 . S
C3385 C1216 0.393 . S
C3390 C1414 0.408 . S
C3395 C714 0.767 . S
C3400 C1442 0.764 . S
C3405 C253 2.559 . S
C3410 C1545 2.496 . S
C3415 C916 1.870 . S
C3420 C753 1.835 . S
C3425 C121 1.976 . S
C3430 C1342 2.091 . S
C3435 C93 1.907 . S
C3440 C1509 1.987 . S
C3445 C1017 1.909 . S
C3450 C1377 1.989 . S
C3455 C187 2.560 . S
C3460 C1347 2.495 . S
C3465 C780 0.533 . S
C3470 C1044 0.427 . S
C3475 C1577 1.332 . S
C3480 C655 1.314 . S
C3485 C1248 1.832 . S
C3490 C289 1.870 . S
C3495 C1540 2.091 . S
C3500 C55 1.979 . S
