# Generated by pormake.
# Topology yfg, (5)-cn, num edge types: 1
# Building blocks:
#     Node 0, Type 0, BuildingBlock: XOMCOT_clean_sbu_1, # of connection points: 5
#     Node 1, Type 0, BuildingBlock: XOMCOT_clean_sbu_1, # of connection points: 5
#     Node 2, Type 0, BuildingBlock: XOMCOT_clean_sbu_1, # of connection points: 5
#     Node 3, Type 0, BuildingBlock: XOMCOT_clean_sbu_1, # of connection points: 5
#     Node 4, Type 0, BuildingBlock: XOMCOT_clean_sbu_1, # of connection points: 5
#     Node 5, Type 0, BuildingBlock: XOMCOT_clean_sbu_1, # of connection points: 5
#     Node 6, Type 0, BuildingBlock: XOMCOT_clean_sbu_1, # of connection points: 5
#     Node 7, Type 0, BuildingBlock: XOMCOT_clean_sbu_1, # of connection points: 5
#     Edge 8, Type (0, 0), BuildingBlock: ZUJKAS_clean_linker_0, # of connection points: 2
#     Edge 9, Type (0, 0), BuildingBlock: ZUJKAS_clean_linker_0, # of connection points: 2
#     Edge 10, Type (0, 0), BuildingBlock: ZUJKAS_clean_linker_0, # of connection points: 2
#     Edge 11, Type (0, 0), BuildingBlock: ZUJKAS_clean_linker_0, # of connection points: 2
#     Edge 12, Type (0, 0), BuildingBlock: ZUJKAS_clean_linker_0, # of connection points: 2
#     Edge 13, Type (0, 0), BuildingBlock: ZUJKAS_clean_linker_0, # of connection points: 2
#     Edge 14, Type (0, 0), BuildingBlock: ZUJKAS_clean_linker_0, # of connection points: 2
#     Edge 15, Type (0, 0), BuildingBlock: ZUJKAS_clean_linker_0, # of connection points: 2
#     Edge 16, Type (0, 0), BuildingBlock: ZUJKAS_clean_linker_0, # of connection points: 2
#     Edge 17, Type (0, 0), BuildingBlock: ZUJKAS_clean_linker_0, # of connection points: 2
#     Edge 18, Type (0, 0), BuildingBlock: ZUJKAS_clean_linker_0, # of connection points: 2
#     Edge 19, Type (0, 0), BuildingBlock: ZUJKAS_clean_linker_0, # of connection points: 2
#     Edge 20, Type (0, 0), BuildingBlock: ZUJKAS_clean_linker_0, # of connection points: 2
#     Edge 21, Type (0, 0), BuildingBlock: ZUJKAS_clean_linker_0, # of connection points: 2
#     Edge 22, Type (0, 0), BuildingBlock: ZUJKAS_clean_linker_0, # of connection points: 2
#     Edge 23, Type (0, 0), BuildingBlock: ZUJKAS_clean_linker_0, # of connection points: 2
#     Edge 24, Type (0, 0), BuildingBlock: ZUJKAS_clean_linker_0, # of connection points: 2
#     Edge 25, Type (0, 0), BuildingBlock: ZUJKAS_clean_linker_0, # of connection points: 2
#     Edge 26, Type (0, 0), BuildingBlock: ZUJKAS_clean_linker_0, # of connection points: 2
#     Edge 27, Type (0, 0), BuildingBlock: ZUJKAS_clean_linker_0, # of connection points: 2
# Relax obj value: 0.436
# Max RMSD: 0.199
# Mean RMSD: 0.199
data_MOF--net-yfg--node1-XOMCOT_clean_sbu_1--edge1-ZUJKAS_clean_linker_0
_symmetry_space_group_name_H-M    P1
_symmetry_Int_Tables_number       1
_symmetry_cell_setting            triclinic
loop_
_symmetry_equiv_pos_as_xyz
'x, y, z'
_cell_length_a     45.201145
_cell_length_b     45.245775
_cell_length_c     49.450399
_cell_angle_alpha  90.271279
_cell_angle_beta   90.134213
_cell_angle_gamma 89.830711
loop_
_atom_site_label
_atom_site_type_symbol
_atom_site_fract_x
_atom_site_fract_y
_atom_site_fract_z
_atom_type_partial_charge
C0 C 0.20271 0.52219 0.07744 0.0
C1 C 0.19574 0.52533 0.10436 0.0
N2 N 0.2176 0.51302 0.11915 0.0
N3 N 0.22868 0.50772 0.07527 0.0
C4 C 0.23735 0.50261 0.10096 0.0
H5 H 0.1899 0.53021 0.06048 0.0
Co6 Co 0.24827 0.49986 0.04307 0.0
C7 C 0.27123 0.43871 0.05862 0.0
O8 O 0.25417 0.42362 0.04209 0.0
N9 N 0.26837 0.4933 0.01034 0.0
C10 C 0.28836 0.47566 0.97242 0.0
C11 C 0.27232 0.46871 0.99515 0.0
C12 C 0.28169 0.51488 0.99609 0.0
N13 N 0.29422 0.5048 0.97308 0.0
O14 O 0.27962 0.52487 0.05508 0.0
H15 H 0.26327 0.44729 0.99948 0.0
H16 H 0.2822 0.53772 1.00247 0.0
O17 O 0.26938 0.46687 0.05974 0.0
C18 C 0.27496 0.55263 0.05504 0.0
O19 O 0.24976 0.5626 0.04534 0.0
N20 N 0.21592 0.4767 0.03143 0.0
C21 C 0.1588 0.45743 0.01847 0.0
C22 C 0.17299 0.4478 0.04216 0.0
C23 C 0.20146 0.4578 0.04833 0.0
C24 C 0.20297 0.48528 0.00779 0.0
C25 C 0.17472 0.4755 1.0007 0.0
H26 H 0.21092 0.45219 0.06774 0.0
H27 H 0.21373 0.50136 0.99508 0.0
H28 H 0.25779 0.49154 0.10618 0.0
H29 H 0.17642 0.53648 0.11235 0.0
H30 H 0.29442 0.4606 0.95628 0.0
H31 H 0.16149 0.4344 0.05683 0.0
H32 H 0.16492 0.48328 0.98204 0.0
C33 C 0.48976 0.18825 0.32117 0.0
C34 C 0.48855 0.18099 0.34811 0.0
N35 N 0.50001 0.20356 0.36257 0.0
N36 N 0.50209 0.21518 0.31868 0.0
C37 C 0.50809 0.22398 0.34422 0.0
H38 H 0.48147 0.17515 0.30445 0.0
Co39 Co 0.50443 0.23646 0.28677 0.0
C40 C 0.56557 0.26301 0.29747 0.0
O41 O 0.57998 0.24814 0.2788 0.0
N42 N 0.50523 0.25826 0.25454 0.0
C43 C 0.51578 0.28059 0.21571 0.0
C44 C 0.52705 0.26405 0.23674 0.0
C45 C 0.481 0.27117 0.24368 0.0
N46 N 0.48677 0.28517 0.22027 0.0
O47 O 0.47952 0.26567 0.30256 0.0
H48 H 0.5495 0.25614 0.23831 0.0
H49 H 0.45918 0.26964 0.25241 0.0
O50 O 0.53792 0.25881 0.30093 0.0
C51 C 0.45239 0.25961 0.30629 0.0
O52 O 0.4421 0.23412 0.29764 0.0
N53 N 0.52778 0.20613 0.27144 0.0
C54 C 0.54633 0.14958 0.25557 0.0
C55 C 0.55914 0.16375 0.27806 0.0
C56 C 0.54956 0.19202 0.28566 0.0
C57 C 0.5164 0.19347 0.24862 0.0
C58 C 0.52579 0.16557 0.24003 0.0
H59 H 0.55758 0.20129 0.30448 0.0
H60 H 0.49829 0.204 0.23804 0.0
H61 H 0.51677 0.24557 0.34933 0.0
H62 H 0.47957 0.16084 0.35643 0.0
H63 H 0.52803 0.28861 0.19847 0.0
H64 H 0.57468 0.1523 0.29103 0.0
H65 H 0.51565 0.15594 0.22221 0.0
C66 C 0.80774 0.49539 0.56145 0.0
C67 C 0.81474 0.49564 0.58852 0.0
N68 N 0.79083 0.505 0.60245 0.0
N69 N 0.77967 0.50482 0.55828 0.0
C70 C 0.76986 0.51036 0.58357 0.0
H71 H 0.82195 0.48818 0.54512 0.0
Co72 Co 0.75922 0.50561 0.5257 0.0
C73 C 0.72559 0.56353 0.53442 0.0
O74 O 0.73646 0.57756 0.51353 0.0
N75 N 0.73855 0.50483 0.49245 0.0
C76 C 0.71979 0.51314 0.45144 0.0
C77 C 0.73542 0.52522 0.47277 0.0
C78 C 0.72505 0.48052 0.48229 0.0
N79 N 0.71318 0.48494 0.45755 0.0
O80 O 0.73178 0.47869 0.54052 0.0
H81 H 0.74499 0.54703 0.47312 0.0
H82 H 0.72496 0.45941 0.49233 0.0
O83 O 0.73381 0.53712 0.53952 0.0
C84 C 0.73934 0.452 0.5446 0.0
O85 O 0.76536 0.44277 0.53625 0.0
N86 N 0.78785 0.53143 0.51187 0.0
C87 C 0.84358 0.55516 0.50159 0.0
C88 C 0.82496 0.56799 0.52106 0.0
C89 C 0.79726 0.55564 0.52608 0.0
C90 C 0.80473 0.51999 0.49154 0.0
C91 C 0.8326 0.5317 0.48587 0.0
H92 H 0.78489 0.56362 0.5433 0.0
H93 H 0.79777 0.5 0.48131 0.0
H94 H 0.74761 0.51774 0.588 0.0
H95 H 0.83551 0.48847 0.59725 0.0
H96 H 0.71408 0.52421 0.43278 0.0
H97 H 0.83255 0.58612 0.53364 0.0
H98 H 0.84638 0.52078 0.47096 0.0
C99 C 0.44449 0.78173 0.81223 0.0
C100 C 0.43969 0.78365 0.83963 0.0
N101 N 0.4535 0.76079 0.85164 0.0
N102 N 0.46166 0.75794 0.80679 0.0
C103 C 0.4663 0.74546 0.8313 0.0
H104 H 0.43524 0.79663 0.79752 0.0
Co105 Co 0.47409 0.74165 0.77338 0.0
C106 C 0.43529 0.69753 0.78554 0.0
O107 O 0.41692 0.71601 0.77374 0.0
N108 N 0.48541 0.72494 0.74065 0.0
C109 C 0.48102 0.7065 0.6992 0.0
C110 C 0.46633 0.72009 0.72019 0.0
C111 C 0.51166 0.71435 0.73168 0.0
N112 N 0.50956 0.70284 0.70645 0.0
O113 O 0.51311 0.73429 0.78844 0.0
H114 H 0.44312 0.72594 0.72064 0.0
H115 H 0.53179 0.71448 0.74355 0.0
O116 O 0.46267 0.70382 0.78616 0.0
C117 C 0.52958 0.74769 0.80553 0.0
O118 O 0.52195 0.77394 0.8147 0.0
N119 N 0.48373 0.77911 0.75989 0.0
C120 C 0.48777 0.83813 0.74441 0.0
C121 C 0.46065 0.82316 0.74324 0.0
C122 C 0.45933 0.79348 0.7505 0.0
C123 C 0.51093 0.79195 0.75778 0.0
C124 C 0.51336 0.82177 0.75064 0.0
H125 H 0.43821 0.78228 0.75043 0.0
H126 H 0.53084 0.77961 0.76194 0.0
H127 H 0.47852 0.72509 0.83409 0.0
H128 H 0.42707 0.80069 0.84986 0.0
H129 H 0.47144 0.70003 0.67999 0.0
H130 H 0.44028 0.83453 0.73823 0.0
H131 H 0.53499 0.83201 0.75042 0.0
C132 C 0.19608 0.48936 0.44822 0.0
C133 C 0.1895 0.48901 0.42107 0.0
N134 N 0.21362 0.49793 0.40739 0.0
N135 N 0.22414 0.49864 0.45165 0.0
C136 C 0.23431 0.50363 0.42644 0.0
H137 H 0.18151 0.4829 0.46446 0.0
Co138 Co 0.24389 0.50039 0.48456 0.0
C139 C 0.27873 0.55716 0.4759 0.0
O140 O 0.26872 0.57139 0.49719 0.0
N141 N 0.2638 0.50075 0.51819 0.0
C142 C 0.28136 0.51051 0.55944 0.0
C143 C 0.26529 0.52145 0.53793 0.0
C144 C 0.27862 0.47734 0.52855 0.0
N145 N 0.28983 0.48268 0.55342 0.0
O146 O 0.27176 0.4727 0.47088 0.0
H147 H 0.25447 0.54273 0.53741 0.0
H148 H 0.28023 0.45619 0.51848 0.0
O149 O 0.26965 0.53111 0.47054 0.0
C150 C 0.26449 0.44605 0.46614 0.0
O151 O 0.23772 0.43715 0.47239 0.0
N152 N 0.21502 0.52695 0.49719 0.0
C153 C 0.1593 0.55211 0.50539 0.0
C154 C 0.17911 0.56441 0.4868 0.0
C155 C 0.20675 0.5513 0.48275 0.0
C156 C 0.19699 0.51604 0.51678 0.0
C157 C 0.16908 0.52843 0.52138 0.0
H158 H 0.22003 0.55888 0.46606 0.0
H159 H 0.20316 0.49597 0.52721 0.0
H160 H 0.25678 0.51023 0.4221 0.0
H161 H 0.16858 0.48263 0.41214 0.0
H162 H 0.28615 0.52213 0.57811 0.0
H163 H 0.17253 0.58272 0.47408 0.0
H164 H 0.15441 0.51787 0.53564 0.0
C165 C 0.52383 0.19627 0.69298 0.0
C166 C 0.52609 0.18881 0.6661 0.0
N167 N 0.51463 0.21107 0.65136 0.0
N168 N 0.51087 0.22303 0.69518 0.0
C169 C 0.50549 0.23154 0.6695 0.0
H170 H 0.53181 0.18339 0.70987 0.0
Co171 Co 0.50691 0.24377 0.72744 0.0
C172 C 0.44694 0.27255 0.71789 0.0
O173 O 0.43395 0.26087 0.73899 0.0
N174 N 0.50444 0.26482 0.7605 0.0
C175 C 0.49328 0.28219 0.80154 0.0
C176 C 0.48378 0.26483 0.78023 0.0
C177 C 0.52633 0.28195 0.77063 0.0
N178 N 0.52011 0.29303 0.79534 0.0
O179 O 0.53199 0.27321 0.71308 0.0
H180 H 0.46372 0.25195 0.77996 0.0
H181 H 0.54726 0.28523 0.76068 0.0
O182 O 0.47385 0.26622 0.71256 0.0
C183 C 0.55944 0.26768 0.71055 0.0
O184 O 0.5701 0.24278 0.72012 0.0
N185 N 0.48338 0.21311 0.74076 0.0
C186 C 0.467 0.15454 0.74904 0.0
C187 C 0.45197 0.17204 0.73005 0.0
C188 C 0.46065 0.20129 0.72606 0.0
C189 C 0.49645 0.19725 0.76091 0.0
C190 C 0.48839 0.16796 0.76557 0.0
H191 H 0.45148 0.21309 0.70904 0.0
H192 H 0.51534 0.20631 0.77152 0.0
H193 H 0.4964 0.25289 0.66416 0.0
H194 H 0.53572 0.16871 0.65802 0.0
H195 H 0.48152 0.28607 0.82027 0.0
H196 H 0.4353 0.16253 0.71689 0.0
H197 H 0.50088 0.15519 0.78016 0.0
C198 C 0.80611 0.5286 0.93244 0.0
C199 C 0.81328 0.52946 0.90545 0.0
N200 N 0.79046 0.51829 0.89109 0.0
N201 N 0.77902 0.51667 0.93513 0.0
C202 C 0.76995 0.51077 0.90965 0.0
H203 H 0.81946 0.5367 0.94906 0.0
Co204 Co 0.75842 0.51343 0.96739 0.0
C205 C 0.73141 0.45279 0.95645 0.0
O206 O 0.74623 0.43858 0.9752 0.0
N207 N 0.73728 0.51153 1.00018 0.0
C208 C 0.71696 0.499 0.03948 0.0
C209 C 0.73372 0.48926 0.01797 0.0
C210 C 0.72292 0.53463 0.01169 0.0
N211 N 0.71018 0.52764 0.03547 0.0
O212 O 0.72899 0.53899 0.95278 0.0
H213 H 0.74367 0.46767 0.01628 0.0
H214 H 0.72185 0.55636 0.00282 0.0
O215 O 0.73565 0.48038 0.95277 0.0
C216 C 0.73487 0.56634 0.95049 0.0
O217 O 0.76007 0.57636 0.96011 0.0
N218 N 0.78902 0.48944 0.9813 0.0
C219 C 0.8447 0.46763 0.99617 0.0
C220 C 0.82976 0.45623 0.97349 0.0
C221 C 0.80202 0.46753 0.96633 0.0
C222 C 0.80263 0.4999 0.00403 0.0
C223 C 0.83015 0.48894 0.0121 0.0
H224 H 0.79215 0.46037 0.94749 0.0
H225 H 0.79301 0.51821 0.01509 0.0
H226 H 0.74851 0.50155 0.90486 0.0
H227 H 0.83334 0.5386 0.89707 0.0
H228 H 0.7111 0.48622 0.05711 0.0
H229 H 0.84023 0.4403 0.96018 0.0
H230 H 0.84055 0.49821 0.02995 0.0
C231 C 0.46209 0.79054 0.17586 0.0
C232 C 0.45776 0.79237 0.14841 0.0
N233 N 0.46508 0.76615 0.13723 0.0
N234 N 0.47218 0.76326 0.18203 0.0
C235 C 0.47381 0.74895 0.15804 0.0
H236 H 0.45779 0.8079 0.19046 0.0
Co237 Co 0.47874 0.74702 0.21648 0.0
C238 C 0.54064 0.72372 0.20486 0.0
O239 O 0.55437 0.74114 0.22205 0.0
N240 N 0.48407 0.72924 0.25068 0.0
C241 C 0.49894 0.71204 0.29065 0.0
C242 C 0.50727 0.72743 0.2679 0.0
C243 C 0.46207 0.71481 0.26349 0.0
N244 N 0.47037 0.70427 0.28783 0.0
O245 O 0.44183 0.76794 0.23045 0.0
H246 H 0.52853 0.73759 0.2649 0.0
H247 H 0.44009 0.71224 0.25516 0.0
O248 O 0.51258 0.72524 0.20218 0.0
C249 C 0.4152 0.76493 0.22134 0.0
O250 O 0.44136 0.76891 0.23139 0.0
N251 N 0.50249 0.78067 0.22643 0.0
C252 C 0.52733 0.8364 0.23682 0.0
C253 C 0.53358 0.82108 0.21275 0.0
C254 C 0.52113 0.79327 0.20804 0.0
C255 C 0.49767 0.79453 0.25067 0.0
C256 C 0.51003 0.82214 0.25632 0.0
H257 H 0.52526 0.78256 0.18882 0.0
H258 H 0.48302 0.78497 0.26545 0.0
H259 H 0.4802 0.72598 0.15601 0.0
H260 H 0.4499 0.81156 0.13753 0.0
H261 H 0.51253 0.70785 0.30827 0.0
H262 H 0.54662 0.83106 0.19692 0.0
H263 H 0.50516 0.83262 0.27553 0.0
H264 H 0.25003 0.53435 0.37955 0.0
H265 H 0.25479 0.53778 0.33029 0.0
H266 H 0.18923 0.46951 0.32047 0.0
H267 H 0.18478 0.46552 0.36952 0.0
H268 H 0.24163 0.46262 0.28777 0.0
H269 H 0.19027 0.57423 0.27981 0.0
H270 H 0.22037 0.57051 0.30343 0.0
H271 H 0.18628 0.55143 0.30944 0.0
C272 C 0.23681 0.51993 0.3669 0.0
C273 C 0.21685 0.49981 0.37846 0.0
C274 C 0.23939 0.52207 0.33879 0.0
C275 C 0.22211 0.50412 0.32182 0.0
C276 C 0.20263 0.48366 0.33327 0.0
H277 H 0.17218 0.51447 0.15484 0.0
H278 H 0.17546 0.51279 0.20409 0.0
C279 C 0.19995 0.48159 0.3613 0.0
C280 C 0.22398 0.50662 0.29205 0.0
H281 H 0.20689 0.55207 0.23934 0.0
C282 C 0.23425 0.48222 0.27713 0.0
C283 C 0.21403 0.53214 0.27835 0.0
C284 C 0.20189 0.55856 0.29345 0.0
C285 C 0.23464 0.4826 0.24875 0.0
C286 C 0.22471 0.50814 0.23504 0.0
C287 C 0.21464 0.53261 0.24998 0.0
C288 C 0.22317 0.50937 0.20517 0.0
C289 C 0.24479 0.45538 0.23362 0.0
C290 C 0.24897 0.50825 0.18949 0.0
C291 C 0.2472 0.50936 0.16128 0.0
C292 C 0.21956 0.51174 0.14825 0.0
C293 C 0.19381 0.51302 0.16414 0.0
C294 C 0.19562 0.51193 0.19231 0.0
H295 H 0.24618 0.43573 0.24696 0.0
H296 H 0.22955 0.45034 0.21657 0.0
H297 H 0.26709 0.45939 0.22507 0.0
H298 H 0.27049 0.50676 0.19909 0.0
H299 H 0.2675 0.50885 0.14974 0.0
H300 H 0.54091 0.23327 0.39205 0.0
H301 H 0.54396 0.2365 0.44148 0.0
H302 H 0.46499 0.18375 0.44805 0.0
H303 H 0.46212 0.18011 0.39882 0.0
H304 H 0.506 0.25855 0.47935 0.0
H305 H 0.52232 0.13842 0.49506 0.0
H306 H 0.52487 0.15524 0.46216 0.0
H307 H 0.48929 0.1467 0.47636 0.0
C308 C 0.52419 0.22244 0.40407 0.0
C309 C 0.50151 0.20609 0.39158 0.0
C310 C 0.52596 0.22427 0.43228 0.0
C311 C 0.50504 0.20986 0.44846 0.0
C312 C 0.48186 0.19432 0.436 0.0
H313 H 0.47338 0.23854 0.62055 0.0
H314 H 0.47141 0.23994 0.57102 0.0
C315 C 0.48024 0.19225 0.40785 0.0
C316 C 0.50745 0.21098 0.47836 0.0
H317 H 0.51219 0.16729 0.53427 0.0
C318 C 0.5075 0.23863 0.49139 0.0
C319 C 0.50985 0.18497 0.494 0.0
C320 C 0.5119 0.15467 0.48119 0.0
C321 C 0.50941 0.24094 0.51969 0.0
C322 C 0.51061 0.21487 0.53536 0.0
C323 C 0.51096 0.18727 0.52227 0.0
C324 C 0.5122 0.21547 0.56534 0.0
C325 C 0.51074 0.27127 0.53245 0.0
C326 C 0.53543 0.20082 0.57861 0.0
C327 C 0.53632 0.19963 0.60679 0.0
C328 C 0.51403 0.21315 0.62233 0.0
C329 C 0.491 0.22821 0.60907 0.0
C330 C 0.48995 0.22913 0.58079 0.0
H331 H 0.51815 0.28821 0.51776 0.0
H332 H 0.48833 0.27764 0.53954 0.0
H333 H 0.52598 0.27156 0.5501 0.0
H334 H 0.55285 0.19013 0.56712 0.0
H335 H 0.55456 0.18824 0.61643 0.0
H336 H 0.83507 0.51302 0.6388 0.0
H337 H 0.8308 0.51514 0.68791 0.0
H338 H 0.73613 0.50586 0.68139 0.0
H339 H 0.74028 0.5025 0.6322 0.0
H340 H 0.80039 0.55509 0.7196 0.0
H341 H 0.75779 0.44128 0.7352 0.0
H342 H 0.77364 0.45302 0.70357 0.0
H343 H 0.73649 0.46355 0.71229 0.0
C344 C 0.81335 0.51104 0.64774 0.0
C345 C 0.78807 0.50734 0.63145 0.0
C346 C 0.81093 0.51247 0.67585 0.0
C347 C 0.78321 0.51021 0.68833 0.0
C348 C 0.75781 0.50708 0.6722 0.0
H349 H 0.74001 0.51675 0.86089 0.0
H350 H 0.73642 0.51506 0.81153 0.0
C351 C 0.76021 0.50555 0.64403 0.0
C352 C 0.78115 0.51162 0.71822 0.0
H353 H 0.76206 0.47172 0.774 0.0
C354 C 0.79194 0.53689 0.73149 0.0
C355 C 0.76999 0.48787 0.73367 0.0
C356 C 0.75903 0.45977 0.72055 0.0
C357 C 0.79218 0.53896 0.75979 0.0
C358 C 0.78166 0.51498 0.77522 0.0
C359 C 0.77013 0.49002 0.76203 0.0
C360 C 0.78371 0.515 0.80509 0.0
C361 C 0.80369 0.56678 0.773 0.0
C362 C 0.8115 0.51488 0.81774 0.0
C363 C 0.81366 0.51557 0.8459 0.0
C364 C 0.78806 0.51637 0.86202 0.0
C365 C 0.7602 0.51587 0.84921 0.0
C366 C 0.75807 0.51507 0.82098 0.0
H367 H 0.80405 0.58562 0.75867 0.0
H368 H 0.78998 0.573 0.79076 0.0
H369 H 0.82665 0.56289 0.78017 0.0
H370 H 0.83155 0.51425 0.80579 0.0
H371 H 0.83544 0.51531 0.85501 0.0
H372 H 0.49627 0.73052 0.87866 0.0
H373 H 0.49882 0.7215 0.92738 0.0
H374 H 0.4165 0.76845 0.93825 0.0
H375 H 0.41327 0.77663 0.88965 0.0
H376 H 0.50211 0.76319 0.9672 0.0
H377 H 0.4024 0.69496 0.98275 0.0
H378 H 0.41807 0.70107 0.9497 0.0
H379 H 0.39406 0.72832 0.9648 0.0
C380 C 0.47839 0.73838 0.89133 0.0
C381 C 0.45453 0.7543 0.88018 0.0
C382 C 0.47996 0.73332 0.91921 0.0
C383 C 0.4576 0.74386 0.93643 0.0
C384 C 0.43367 0.7595 0.92532 0.0
H385 H 0.42614 0.78694 0.10034 0.0
H386 H 0.42566 0.77669 0.05176 0.0
C387 C 0.43207 0.76456 0.89752 0.0
C388 C 0.46023 0.74065 0.96621 0.0
H389 H 0.42183 0.71968 0.02234 0.0
C390 C 0.48486 0.75316 0.97925 0.0
C391 C 0.43775 0.72744 0.9819 0.0
C392 C 0.41175 0.71191 0.96904 0.0
C393 C 0.48677 0.75433 0.00758 0.0
C394 C 0.46355 0.74247 0.02323 0.0
C395 C 0.43952 0.72887 0.01024 0.0
C396 C 0.46269 0.74635 0.05298 0.0
C397 C 0.51285 0.76957 0.02061 0.0
C398 C 0.48327 0.73213 0.06982 0.0
C399 C 0.48361 0.738 0.09765 0.0
C400 C 0.4635 0.75833 0.10899 0.0
C401 C 0.4423 0.77169 0.09212 0.0
C402 C 0.44183 0.76565 0.06442 0.0
H403 H 0.52686 0.78115 0.00559 0.0
H404 H 0.50518 0.78588 0.03594 0.0
H405 H 0.52676 0.75295 0.03114 0.0
H406 H 0.49937 0.71694 0.06137 0.0
H407 H 0.50019 0.72739 0.11014 0.0
H408 H 0.11726 0.495 0.99732 0.0
H409 H 0.06412 0.48745 0.99336 0.0
H410 H 0.07339 0.40012 0.02675 0.0
H411 H 0.1271 0.40701 0.03007 0.0
H412 H 0.03068 0.43863 0.96606 0.0
H413 H 0.014 0.44788 0.07745 0.0
H414 H 0.04691 0.46157 0.06116 0.0
H415 H 0.04177 0.42257 0.06517 0.0
C416 C 0.1083 0.47382 0.0032 0.0
C417 C 0.12668 0.45157 0.01395 0.0
C418 C 0.0778 0.46967 1.0011 0.0
C419 C 0.06486 0.44335 0.00995 0.0
C420 C 0.083 0.42072 0.02006 0.0
H421 H 0.87289 0.41391 0.98924 0.0
H422 H 0.92603 0.40356 0.99318 0.0
C423 C 0.11366 0.42476 0.022 0.0
C424 C 0.03222 0.44049 0.00952 0.0
H425 H 0.97141 0.44481 0.05025 0.0
C426 C 0.01766 0.43943 0.98445 0.0
C427 C 0.01542 0.44187 0.03358 0.0
C428 C 0.03014 0.44368 0.06095 0.0
C429 C 0.98664 0.44047 0.98278 0.0
C430 C 0.96987 0.44262 0.00681 0.0
C431 C 0.9844 0.4429 0.03191 0.0
C432 C 0.93751 0.44779 0.00608 0.0
C433 C 0.97197 0.4407 0.95535 0.0
C434 C 0.92643 0.47589 0.01251 0.0
C435 C 0.89626 0.48199 0.01001 0.0
C436 C 0.87637 0.45999 1.00128 0.0
C437 C 0.88753 0.43149 0.99569 0.0
C438 C 0.91786 0.42548 0.99802 0.0
H439 H 0.98829 0.4418 0.93862 0.0
H440 H 0.95866 0.42032 0.95276 0.0
H441 H 0.95668 0.45988 0.95374 0.0
H442 H 0.94131 0.49343 0.01864 0.0
H443 H 0.8888 0.50435 0.01394 0.0
H444 H 0.59758 0.11693 0.2627 0.0
H445 H 0.6035 0.06319 0.25847 0.0
H446 H 0.51279 0.05559 0.23251 0.0
H447 H 0.50617 0.10862 0.23766 0.0
H448 H 0.56594 0.01968 0.28712 0.0
H449 H 0.56236 0.00741 0.17543 0.0
H450 H 0.5721 0.04172 0.19204 0.0
H451 H 0.534 0.03085 0.18937 0.0
C452 C 0.57888 0.10388 0.25603 0.0
C453 C 0.55143 0.1174 0.25035 0.0
C454 C 0.58238 0.07318 0.2535 0.0
C455 C 0.55868 0.05552 0.24485 0.0
C456 C 0.53153 0.0689 0.23869 0.0
H457 H 0.4964 0.88117 0.2615 0.0
H458 H 0.50948 0.93319 0.26495 0.0
C459 C 0.52789 0.09941 0.24148 0.0
C460 C 0.56129 0.02287 0.24389 0.0
H461 H 0.55355 0.96376 0.20128 0.0
C462 C 0.56378 0.0074 0.26832 0.0
C463 C 0.55861 0.00694 0.21934 0.0
C464 C 0.55687 0.02251 0.19249 0.0
C465 C 0.56203 0.97641 0.26896 0.0
C466 C 0.55763 0.96059 0.24456 0.0
C467 C 0.55679 0.97596 0.21999 0.0
C468 C 0.55135 0.92845 0.24432 0.0
C469 C 0.56419 0.96083 0.29579 0.0
C470 C 0.57058 0.90844 0.23153 0.0
C471 C 0.56339 0.87838 0.22984 0.0
C472 C 0.53657 0.86784 0.24058 0.0
C473 C 0.51756 0.88811 0.25358 0.0
C474 C 0.52491 0.91801 0.25547 0.0
H475 H 0.57497 0.9749 0.3114 0.0
H476 H 0.54159 0.95541 0.30292 0.0
H477 H 0.57681 0.93984 0.29379 0.0
H478 H 0.59106 0.91613 0.22269 0.0
H479 H 0.57875 0.86348 0.21994 0.0
H480 H 0.12463 0.56365 0.46143 0.0
H481 H 0.07129 0.57174 0.46017 0.0
H482 H 0.06786 0.5663 0.54711 0.0
H483 H 0.12161 0.55883 0.54867 0.0
H484 H 0.03096 0.5296 0.48063 0.0
H485 H 0.01587 0.63955 0.52925 0.0
H486 H 0.05083 0.62752 0.5153 0.0
H487 H 0.03879 0.61387 0.54747 0.0
C488 C 0.11277 0.56508 0.4804 0.0
C489 C 0.1275 0.5608 0.50521 0.0
C490 C 0.0822 0.56947 0.47959 0.0
C491 C 0.06566 0.56988 0.50353 0.0
C492 C 0.08029 0.56653 0.52841 0.0
H493 H 0.88087 0.56477 0.54415 0.0
H494 H 0.93443 0.57091 0.54308 0.0
C495 C 0.11095 0.56202 0.52926 0.0
C496 C 0.0329 0.571 0.50214 0.0
H497 H 0.97243 0.6115 0.52096 0.0
C498 C 0.01813 0.54762 0.48924 0.0
C499 C 0.01631 0.59444 0.51354 0.0
C500 C 0.03117 0.62044 0.52701 0.0
C501 C 0.98713 0.54663 0.48798 0.0
C502 C 0.97044 0.57011 0.49933 0.0
C503 C 0.98525 0.59364 0.51209 0.0
C504 C 0.93759 0.56971 0.49945 0.0
C505 C 0.97259 0.51987 0.4754 0.0
C506 C 0.92137 0.56799 0.47522 0.0
C507 C 0.89061 0.56444 0.47574 0.0
C508 C 0.87549 0.56299 0.50052 0.0
C509 C 0.8917 0.56625 0.52469 0.0
C510 C 0.9224 0.5696 0.52414 0.0
H511 H 0.9881 0.50084 0.47391 0.0
H512 H 0.95299 0.51296 0.48728 0.0
H513 H 0.9651 0.52539 0.45465 0.0
H514 H 0.93258 0.56872 0.4559 0.0
H515 H 0.87873 0.56229 0.45679 0.0
H516 H 0.46477 0.11878 0.70463 0.0
H517 H 0.46693 0.06488 0.70308 0.0
H518 H 0.46703 0.06203 0.79019 0.0
H519 H 0.46452 0.11623 0.79199 0.0
H520 H 0.51505 0.03111 0.72895 0.0
H521 H 0.40244 0.00053 0.76436 0.0
H522 H 0.41056 0.03629 0.75009 0.0
H523 H 0.42205 0.02785 0.78394 0.0
C524 C 0.4644 0.10674 0.7235 0.0
C525 C 0.46418 0.12181 0.74847 0.0
C526 C 0.46595 0.07593 0.72255 0.0
C527 C 0.46704 0.05954 0.74649 0.0
C528 C 0.46594 0.07434 0.77148 0.0
H529 H 0.52122 0.87798 0.77287 0.0
H530 H 0.5179 0.9319 0.77177 0.0
C531 C 0.4646 0.10525 0.77248 0.0
C532 C 0.47108 0.02709 0.74517 0.0
H533 H 0.43655 0.96153 0.7574 0.0
C534 C 0.49792 0.01585 0.73517 0.0
C535 C 0.44859 0.00736 0.75312 0.0
C536 C 0.41915 0.01845 0.76333 0.0
C537 C 0.50297 0.98528 0.73316 0.0
C538 C 0.48061 0.96555 0.74141 0.0
C539 C 0.45366 0.97679 0.75116 0.0
C540 C 0.48474 0.93311 0.7402 0.0
C541 C 0.532 0.97423 0.72196 0.0
C542 C 0.46751 0.91599 0.72252 0.0
C543 C 0.4696 0.88517 0.72283 0.0
C544 C 0.4887 0.87083 0.74113 0.0
C545 C 0.50663 0.88819 0.75822 0.0
C546 C 0.50465 0.91904 0.75775 0.0
H547 H 0.54462 0.99206 0.71184 0.0
H548 H 0.54573 0.96541 0.73873 0.0
H549 H 0.52824 0.95599 0.70726 0.0
H550 H 0.4521 0.9265 0.70875 0.0
H551 H 0.4558 0.87256 0.70909 0.0
H552 H 0.44498 0.71264 0.20832 0.0
H553 H 0.42968 0.67551 0.17531 0.0
H554 H 0.35398 0.72888 0.1543 0.0
H555 H 0.36898 0.76614 0.18774 0.0
H556 H 0.36961 0.64806 0.17776 0.0
H557 H 0.39476 0.70282 0.08011 0.0
H558 H 0.41412 0.71136 0.1112 0.0
H559 H 0.37757 0.72565 0.10557 0.0
C560 C 0.42523 0.71671 0.19666 0.0
C561 C 0.40818 0.74247 0.20057 0.0
C562 C 0.4166 0.69546 0.17767 0.0
C563 C 0.39098 0.69972 0.16218 0.0
C564 C 0.37414 0.7255 0.16578 0.0
H565 H 0.27001 0.61248 0.05941 0.0
H566 H 0.30283 0.64624 0.08355 0.0
C567 C 0.3826 0.74661 0.18496 0.0
C568 C 0.38009 0.67607 0.14412 0.0
H569 H 0.36301 0.66082 0.07832 0.0
C570 C 0.36857 0.6505 0.15596 0.0
C571 C 0.37887 0.67956 0.11579 0.0
C572 C 0.39216 0.7062 0.10225 0.0
C573 C 0.3543 0.62891 0.14029 0.0
C574 C 0.35213 0.6328 0.11197 0.0
C575 C 0.36474 0.6579 0.10002 0.0
C576 C 0.33442 0.61248 0.09491 0.0
C577 C 0.34025 0.60296 0.15437 0.0
C578 C 0.34174 0.58239 0.0927 0.0
C579 C 0.32285 0.56291 0.07906 0.0
C580 C 0.29649 0.57331 0.06725 0.0
C581 C 0.29003 0.6037 0.06841 0.0
C582 C 0.30883 0.62309 0.08211 0.0
H583 H 0.33887 0.60637 0.1766 0.0
H584 H 0.31761 0.59891 0.14644 0.0
H585 H 0.35371 0.58282 0.15059 0.0
H586 H 0.36168 0.57388 0.10207 0.0
H587 H 0.32855 0.53965 0.07832 0.0
H588 H 0.39472 0.25141 0.32042 0.0
H589 H 0.36366 0.28407 0.34786 0.0
H590 H 0.43537 0.34635 0.3545 0.0
H591 H 0.46666 0.3139 0.32695 0.0
H592 H 0.37779 0.30382 0.402 0.0
H593 H 0.36294 0.39645 0.3296 0.0
H594 H 0.37459 0.35997 0.31904 0.0
H595 H 0.40043 0.38448 0.33514 0.0
C596 C 0.40383 0.27218 0.32748 0.0
C597 C 0.43312 0.28012 0.32149 0.0
C598 C 0.38607 0.29074 0.34319 0.0
C599 C 0.39721 0.31762 0.35295 0.0
C600 C 0.4263 0.32583 0.34678 0.0
H601 H 0.32141 0.45755 0.45125 0.0
H602 H 0.35465 0.42554 0.42535 0.0
C603 C 0.44414 0.30724 0.33113 0.0
C604 C 0.37871 0.3365 0.37051 0.0
H605 H 0.34415 0.4035 0.37374 0.0
C606 C 0.37035 0.3256 0.39586 0.0
C607 C 0.36927 0.36489 0.36237 0.0
C608 C 0.37701 0.37717 0.33498 0.0
C609 C 0.35291 0.34255 0.41352 0.0
C610 C 0.34319 0.37084 0.40528 0.0
C611 C 0.35172 0.38179 0.37997 0.0
C612 C 0.32369 0.3893 0.42237 0.0
C613 C 0.34547 0.33024 0.44098 0.0
C614 C 0.29532 0.37942 0.42928 0.0
C615 C 0.2763 0.39757 0.44416 0.0
C616 C 0.28528 0.42602 0.45215 0.0
C617 C 0.31385 0.43572 0.44543 0.0
C618 C 0.33286 0.41751 0.43061 0.0
H619 H 0.36105 0.31238 0.44697 0.0
H620 H 0.34593 0.34783 0.45671 0.0
H621 H 0.32287 0.32076 0.44038 0.0
H622 H 0.28763 0.35793 0.42262 0.0
H623 H 0.25437 0.38955 0.44886 0.0
H624 H 0.54248 0.31549 0.68085 0.0
H625 H 0.57389 0.34674 0.65275 0.0
H626 H 0.65074 0.29705 0.67756 0.0
H627 H 0.61954 0.2655 0.70569 0.0
H628 H 0.65326 0.36485 0.67831 0.0
H629 H 0.61679 0.3123 0.58177 0.0
H630 H 0.58837 0.32282 0.60544 0.0
H631 H 0.61389 0.2939 0.61402 0.0
C632 C 0.5661 0.31136 0.68054 0.0
C633 C 0.57858 0.28799 0.69538 0.0
C634 C 0.58392 0.32914 0.66442 0.0
C635 C 0.61443 0.32388 0.66302 0.0
C636 C 0.62714 0.30123 0.67842 0.0
H637 H 0.74551 0.39259 0.55236 0.0
H638 H 0.71519 0.36093 0.5812 0.0
C639 C 0.60931 0.28328 0.69441 0.0
C640 C 0.633 0.3417 0.645 0.0
H641 H 0.64824 0.35381 0.57845 0.0
C642 C 0.65227 0.36248 0.65649 0.0
C643 C 0.63166 0.33817 0.61662 0.0
C644 C 0.61174 0.31548 0.60357 0.0
C645 C 0.66998 0.38038 0.64014 0.0
C646 C 0.66816 0.37729 0.61174 0.0
C647 C 0.64932 0.35611 0.60027 0.0
C648 C 0.68562 0.39608 0.59362 0.0
C649 C 0.6906 0.40241 0.65321 0.0
C650 C 0.67846 0.42604 0.5908 0.0
C651 C 0.6955 0.4441 0.57425 0.0
C652 C 0.72005 0.43241 0.56038 0.0
C653 C 0.72678 0.4022 0.56285 0.0
C654 C 0.70955 0.38411 0.57927 0.0
H655 H 0.69304 0.39861 0.67529 0.0
H656 H 0.7128 0.40133 0.64367 0.0
H657 H 0.68176 0.42507 0.65019 0.0
H658 H 0.65984 0.43548 0.60161 0.0
H659 H 0.68982 0.46731 0.5728 0.0
H660 H 0.68703 0.55132 0.91953 0.0
H661 H 0.65469 0.58464 0.89395 0.0
H662 H 0.704 0.65964 0.92332 0.0
H663 H 0.73664 0.62659 0.94883 0.0
H664 H 0.63362 0.65783 0.92621 0.0
H665 H 0.68678 0.63793 0.82619 0.0
H666 H 0.67995 0.60663 0.84769 0.0
H667 H 0.70672 0.63373 0.85767 0.0
C668 C 0.6909 0.57491 0.92069 0.0
C669 C 0.71438 0.58636 0.93618 0.0
C670 C 0.67251 0.59384 0.90599 0.0
C671 C 0.67722 0.62444 0.90671 0.0
C672 C 0.70021 0.63602 0.92252 0.0
H673 H 0.56991 0.76889 0.84213 0.0
H674 H 0.60809 0.74071 0.86598 0.0
C675 C 0.71878 0.61711 0.93704 0.0
C676 C 0.65802 0.64436 0.89095 0.0
H677 H 0.64391 0.66781 0.82676 0.0
C678 C 0.63588 0.66025 0.90449 0.0
C679 C 0.66116 0.64716 0.8627 0.0
C680 C 0.68499 0.63063 0.84754 0.0
C681 C 0.61611 0.67846 0.8903 0.0
C682 C 0.61923 0.68138 0.86194 0.0
C683 C 0.64169 0.66567 0.8485 0.0
C684 C 0.59839 0.69935 0.8457 0.0
C685 C 0.59142 0.69349 0.90567 0.0
C686 C 0.58141 0.6858 0.82539 0.0
C687 C 0.55993 0.7019 0.81145 0.0
C688 C 0.55497 0.73188 0.81763 0.0
C689 C 0.573 0.74577 0.83707 0.0
C690 C 0.59467 0.72966 0.85087 0.0
H691 H 0.58771 0.68313 0.9257 0.0
H692 H 0.59727 0.717 0.90917 0.0
H693 H 0.57038 0.69277 0.89404 0.0
H694 H 0.5841 0.66247 0.82095 0.0
H695 H 0.54651 0.69052 0.79653 0.0
H696 H 0.30708 0.46194 0.09811 0.0
H697 H 0.34412 0.43603 0.1253 0.0
H698 H 0.32317 0.3544 0.08425 0.0
H699 H 0.28559 0.37993 0.05744 0.0
H700 H 0.3278 0.3468 0.13828 0.0
H701 H 0.42518 0.40855 0.101 0.0
H702 H 0.39694 0.43196 0.11501 0.0
H703 H 0.38937 0.41079 0.08491 0.0
C704 C 0.31033 0.43847 0.09484 0.0
C705 C 0.2934 0.42304 0.07549 0.0
C706 C 0.3317 0.42372 0.11027 0.0
C707 C 0.33686 0.39337 0.10645 0.0
C708 C 0.31971 0.37786 0.08744 0.0
H709 H 0.48861 0.29309 0.16588 0.0
H710 H 0.45215 0.31916 0.13796 0.0
C711 C 0.29821 0.39252 0.07212 0.0
C712 C 0.35965 0.37756 0.12262 0.0
H713 H 0.43325 0.3769 0.13863 0.0
C714 C 0.35087 0.35332 0.13828 0.0
C715 C 0.38985 0.38579 0.12231 0.0
C716 C 0.40101 0.4105 0.1047 0.0
C717 C 0.37133 0.3374 0.15396 0.0
C718 C 0.40131 0.34635 0.15447 0.0
C719 C 0.41021 0.37025 0.13845 0.0
C720 C 0.42376 0.33113 0.17147 0.0
C721 C 0.36068 0.31082 0.16944 0.0
C722 C 0.42027 0.32973 0.19962 0.0
C723 C 0.441 0.31483 0.21557 0.0
C724 C 0.4659 0.30125 0.20375 0.0
C725 C 0.46979 0.30339 0.17562 0.0
C726 C 0.44891 0.3182 0.15964 0.0
H727 H 0.33968 0.30202 0.16094 0.0
H728 H 0.37748 0.29288 0.16929 0.0
H729 H 0.3565 0.31733 0.19075 0.0
H730 H 0.4015 0.34024 0.20931 0.0
H731 H 0.43767 0.31421 0.23722 0.0
H732 H 0.54252 0.29808 0.33762 0.0
H733 H 0.56787 0.33611 0.36412 0.0
H734 H 0.64901 0.31754 0.32157 0.0
H735 H 0.62395 0.27916 0.29512 0.0
H736 H 0.65677 0.32273 0.37724 0.0
H737 H 0.59269 0.41779 0.33721 0.0
H738 H 0.57024 0.38885 0.35095 0.0
H739 H 0.59223 0.38176 0.32137 0.0
C740 C 0.56577 0.30203 0.33384 0.0
C741 C 0.58115 0.2856 0.31409 0.0
C742 C 0.58018 0.32395 0.34893 0.0
C743 C 0.61021 0.33006 0.34451 0.0
C744 C 0.62577 0.31334 0.3252 0.0
H745 H 0.70806 0.48404 0.40266 0.0
H746 H 0.68335 0.44649 0.37492 0.0
C747 C 0.61139 0.2914 0.31008 0.0
C748 C 0.62553 0.35355 0.36031 0.0
H749 H 0.6243 0.42754 0.37469 0.0
C750 C 0.64973 0.34566 0.37662 0.0
C751 C 0.61659 0.38355 0.35922 0.0
C752 C 0.5917 0.39364 0.34106 0.0
C753 C 0.66485 0.36681 0.39228 0.0
C754 C 0.65526 0.39663 0.39191 0.0
C755 C 0.63146 0.40464 0.37516 0.0
C756 C 0.66965 0.41979 0.40881 0.0
C757 C 0.6912 0.3571 0.40882 0.0
C758 C 0.66964 0.41763 0.43711 0.0
C759 C 0.68362 0.4391 0.45302 0.0
C760 C 0.69787 0.46337 0.44101 0.0
C761 C 0.69722 0.46583 0.41264 0.0
C762 C 0.6832 0.44429 0.39673 0.0
H763 H 0.70036 0.33571 0.40147 0.0
H764 H 0.709 0.37395 0.40834 0.0
H765 H 0.6843 0.35416 0.43015 0.0
H766 H 0.65869 0.39934 0.44693 0.0
H767 H 0.68301 0.43677 0.47477 0.0
H768 H 0.56851 0.71447 0.70803 0.0
H769 H 0.60704 0.69227 0.67951 0.0
H770 H 0.54147 0.63737 0.64079 0.0
H771 H 0.50301 0.65958 0.66892 0.0
H772 H 0.6264 0.63546 0.67324 0.0
H773 H 0.58021 0.67581 0.57638 0.0
H774 H 0.56749 0.68929 0.60874 0.0
H775 H 0.55394 0.65479 0.59538 0.0
C776 C 0.56235 0.69758 0.69352 0.0
C777 C 0.5326 0.68908 0.69052 0.0
C778 C 0.58437 0.68497 0.67718 0.0
C779 C 0.57708 0.66362 0.65755 0.0
C780 C 0.54755 0.65444 0.65518 0.0
H781 H 0.69418 0.53957 0.5762 0.0
H782 H 0.6595 0.56458 0.60649 0.0
C783 C 0.52555 0.66715 0.67133 0.0
C784 C 0.60023 0.65074 0.63963 0.0
H785 H 0.61764 0.63869 0.57328 0.0
C786 C 0.62461 0.63634 0.65138 0.0
C787 C 0.5982 0.6523 0.61109 0.0
C788 C 0.57372 0.66915 0.59713 0.0
C789 C 0.64653 0.62276 0.63539 0.0
C790 C 0.64366 0.62303 0.60685 0.0
C791 C 0.6197 0.63813 0.59514 0.0
C792 C 0.66516 0.60782 0.58869 0.0
C793 C 0.67273 0.60866 0.64927 0.0
C794 C 0.67929 0.62351 0.56797 0.0
C795 C 0.69883 0.60916 0.55031 0.0
C796 C 0.7047 0.57877 0.55299 0.0
C797 C 0.69041 0.56306 0.57368 0.0
C798 C 0.67071 0.57739 0.5912 0.0
H799 H 0.67631 0.61813 0.66979 0.0
H800 H 0.66859 0.58464 0.65158 0.0
H801 H 0.69329 0.61152 0.63732 0.0
H802 H 0.67525 0.64696 0.5655 0.0
H803 H 0.70943 0.62195 0.53464 0.0
H804 H 0.28735 0.56311 0.9621 0.0
H805 H 0.31472 0.59215 0.92913 0.0
H806 H 0.36461 0.51469 0.90611 0.0
H807 H 0.33732 0.4854 0.93921 0.0
H808 H 0.37518 0.60239 0.92568 0.0
H809 H 0.33302 0.54519 0.83371 0.0
H810 H 0.31617 0.54084 0.8665 0.0
H811 H 0.34979 0.52146 0.85845 0.0
C812 C 0.30425 0.55222 0.95019 0.0
C813 C 0.3101 0.52186 0.9533 0.0
C814 C 0.3198 0.56885 0.93126 0.0
C815 C 0.34146 0.55552 0.91497 0.0
C816 C 0.34757 0.52529 0.91811 0.0
H817 H 0.46591 0.66097 0.81975 0.0
H818 H 0.44526 0.62425 0.85061 0.0
C819 C 0.33194 0.50858 0.93701 0.0
C820 C 0.35768 0.57349 0.8949 0.0
H821 H 0.36925 0.58198 0.82716 0.0
C822 C 0.37404 0.59787 0.90414 0.0
C823 C 0.35587 0.56766 0.86682 0.0
C824 C 0.33758 0.54254 0.85565 0.0
C825 C 0.38844 0.61678 0.88603 0.0
C826 C 0.38682 0.61079 0.85795 0.0
C827 C 0.37068 0.58628 0.84872 0.0
C828 C 0.39995 0.63094 0.83776 0.0
C829 C 0.40435 0.64358 0.89704 0.0
C830 C 0.38146 0.64593 0.81956 0.0
C831 C 0.39317 0.6667 0.80179 0.0
C832 C 0.42364 0.67281 0.80181 0.0
C833 C 0.44233 0.6568 0.81925 0.0
C834 C 0.43056 0.63599 0.83705 0.0
H835 H 0.39817 0.64841 0.91834 0.0
H836 H 0.42857 0.63958 0.89637 0.0
H837 H 0.39945 0.66339 0.88461 0.0
H838 H 0.35779 0.64223 0.8197 0.0
H839 H 0.37818 0.67857 0.78858 0.0
H840 H 0.29519 0.61539 0.47524 0.0
H841 H 0.32813 0.63973 0.44313 0.0
H842 H 0.34273 0.55652 0.40232 0.0
H843 H 0.30929 0.53218 0.43386 0.0
H844 H 0.38578 0.63156 0.43197 0.0
H845 H 0.3195 0.60844 0.33987 0.0
H846 H 0.30534 0.60248 0.37347 0.0
H847 H 0.32948 0.57563 0.358 0.0
C848 C 0.30535 0.60226 0.4594 0.0
C849 C 0.29937 0.57188 0.457 0.0
C850 C 0.3242 0.61621 0.44106 0.0
C851 C 0.3375 0.60009 0.41997 0.0
C852 C 0.33212 0.56961 0.41793 0.0
H853 H 0.48748 0.66329 0.3246 0.0
H854 H 0.45589 0.63751 0.35701 0.0
C855 C 0.3131 0.55569 0.43611 0.0
C856 C 0.35727 0.61514 0.40039 0.0
H857 H 0.36757 0.62817 0.33307 0.0
C858 C 0.38176 0.63089 0.41035 0.0
C859 C 0.35183 0.61459 0.37218 0.0
C860 C 0.32496 0.59964 0.36023 0.0
C861 C 0.40104 0.64589 0.39291 0.0
C862 C 0.39614 0.64453 0.36464 0.0
C863 C 0.37154 0.62896 0.35471 0.0
C864 C 0.4156 0.65995 0.34501 0.0
C865 C 0.42599 0.66368 0.40505 0.0
C866 C 0.40343 0.68054 0.32696 0.0
C867 C 0.42137 0.695 0.30825 0.0
C868 C 0.45194 0.68923 0.30717 0.0
C869 C 0.46411 0.66853 0.3252 0.0
C870 C 0.44608 0.65385 0.34379 0.0
H871 H 0.42177 0.6692 0.42662 0.0
H872 H 0.44673 0.65053 0.40408 0.0
H873 H 0.42943 0.68455 0.39378 0.0
H874 H 0.38 0.68563 0.32748 0.0
H875 H 0.41132 0.71107 0.29491 0.0
H876 H 0.29551 0.4834 0.60829 0.0
H877 H 0.32286 0.44811 0.63621 0.0
H878 H 0.34897 0.40004 0.56466 0.0
H879 H 0.3222 0.43536 0.53656 0.0
H880 H 0.32601 0.36404 0.6064 0.0
H881 H 0.41369 0.43969 0.64403 0.0
H882 H 0.37642 0.45269 0.6487 0.0
H883 H 0.39081 0.44824 0.61509 0.0
C884 C 0.30736 0.46559 0.59841 0.0
C885 C 0.30649 0.46231 0.57008 0.0
C886 C 0.32298 0.44539 0.61444 0.0
C887 C 0.33815 0.42157 0.6025 0.0
C888 C 0.33739 0.41823 0.5743 0.0
H889 H 0.46798 0.30358 0.67457 0.0
H890 H 0.44117 0.33901 0.64638 0.0
C891 C 0.32188 0.43842 0.55826 0.0
C892 C 0.35424 0.39965 0.61935 0.0
H893 H 0.41215 0.39186 0.66331 0.0
C894 C 0.34484 0.3701 0.61885 0.0
C895 C 0.37902 0.40755 0.63532 0.0
C896 C 0.39084 0.4387 0.63574 0.0
C897 C 0.35933 0.3483 0.63417 0.0
C898 C 0.38368 0.35633 0.65062 0.0
C899 C 0.39333 0.38581 0.65084 0.0
C900 C 0.39964 0.3344 0.66756 0.0
C901 C 0.34877 0.31676 0.63228 0.0
C902 C 0.38522 0.32014 0.68893 0.0
C903 C 0.40048 0.29986 0.70513 0.0
C904 C 0.4305 0.29347 0.70031 0.0
C905 C 0.44485 0.30783 0.67883 0.0
C906 C 0.4296 0.32817 0.66271 0.0
H907 H 0.33457 0.31306 0.61421 0.0
H908 H 0.36778 0.30118 0.63144 0.0
H909 H 0.33556 0.31149 0.65051 0.0
H910 H 0.36223 0.32496 0.69329 0.0
H911 H 0.38876 0.28934 0.72154 0.0
H912 H 0.71754 0.39395 0.95774 0.0
H913 H 0.68077 0.36781 0.93037 0.0
H914 H 0.65857 0.44899 0.88969 0.0
H915 H 0.69517 0.47545 0.91708 0.0
H916 H 0.60876 0.41579 0.90753 0.0
H917 H 0.68832 0.34687 0.84927 0.0
H918 H 0.69266 0.34517 0.88536 0.0
H919 H 0.69947 0.3793 0.86806 0.0
C920 C 0.70495 0.40628 0.94292 0.0
C921 C 0.70943 0.4368 0.93956 0.0
C922 C 0.684 0.39125 0.92722 0.0
C923 C 0.66718 0.40639 0.9078 0.0
C924 C 0.6714 0.43688 0.90451 0.0
H925 H 0.56294 0.33024 0.77807 0.0
H926 H 0.59755 0.35845 0.80587 0.0
C927 C 0.69239 0.45194 0.92015 0.0
C928 C 0.64496 0.39047 0.89112 0.0
H929 H 0.63745 0.33557 0.84399 0.0
C930 C 0.615 0.39828 0.89359 0.0
C931 C 0.65321 0.36785 0.87277 0.0
C932 C 0.68517 0.35939 0.86844 0.0
C933 C 0.59299 0.38376 0.87845 0.0
C934 C 0.60119 0.36065 0.86059 0.0
C935 C 0.6312 0.35313 0.85787 0.0
C936 C 0.57912 0.34438 0.844 0.0
C937 C 0.56123 0.39359 0.88133 0.0
C938 C 0.55717 0.32708 0.85619 0.0
C939 C 0.53738 0.31069 0.8403 0.0
C940 C 0.53931 0.31115 0.8119 0.0
C941 C 0.56109 0.3289 0.79984 0.0
C942 C 0.58083 0.34521 0.81571 0.0
H943 H 0.55948 0.41579 0.89089 0.0
H944 H 0.55003 0.39418 0.86133 0.0
H945 H 0.54927 0.37763 0.89427 0.0
H946 H 0.55578 0.32572 0.87801 0.0
H947 H 0.52117 0.29703 0.85029 0.0
H948 H 0.60068 0.71556 0.20398 0.0
H949 H 0.62908 0.68208 0.17495 0.0
H950 H 0.54827 0.65112 0.13815 0.0
H951 H 0.51967 0.68479 0.1668 0.0
H952 H 0.6268 0.62115 0.1706 0.0
H953 H 0.59814 0.67376 0.07277 0.0
H954 H 0.59126 0.69148 0.10493 0.0
H955 H 0.56667 0.66329 0.0926 0.0
C956 C 0.5889 0.7017 0.18968 0.0
C957 C 0.55788 0.70301 0.18765 0.0
C958 C 0.60519 0.68255 0.17312 0.0
C959 C 0.59084 0.66442 0.1541 0.0
C960 C 0.55986 0.66535 0.15228 0.0
H961 H 0.66775 0.51189 0.07136 0.0
H962 H 0.63885 0.54474 0.10061 0.0
C963 C 0.54353 0.68451 0.16881 0.0
C964 C 0.60834 0.64426 0.13651 0.0
H965 H 0.6242 0.62819 0.07054 0.0
C966 C 0.62627 0.6227 0.14872 0.0
C967 C 0.60788 0.64654 0.10798 0.0
C968 C 0.59019 0.67017 0.09374 0.0
C969 C 0.64352 0.60315 0.13317 0.0
C970 C 0.64246 0.60492 0.10462 0.0
C971 C 0.62477 0.62669 0.09242 0.0
C972 C 0.66003 0.58482 0.08703 0.0
C973 C 0.6632 0.58118 0.14746 0.0
C974 C 0.68113 0.59645 0.06927 0.0
C975 C 0.69765 0.57774 0.0525 0.0
C976 C 0.69332 0.54695 0.05301 0.0
C977 C 0.67203 0.53539 0.07075 0.0
C978 C 0.65547 0.55415 0.0875 0.0
H979 H 0.6672 0.58761 0.16887 0.0
H980 H 0.65237 0.55921 0.14732 0.0
H981 H 0.68487 0.57901 0.13708 0.0
H982 H 0.68501 0.62006 0.06857 0.0
H983 H 0.71406 0.58744 0.0394 0.0
loop_
_geom_bond_atom_site_label_1
_geom_bond_atom_site_label_2
_geom_bond_distance
_geom_bond_site_symmetry_2
_ccdc_geom_bond_type
C0 C1 1.351 . S
C0 N3 1.368 . S
C0 H5 0.931 . S
C1 C0 1.351 . S
C1 N2 1.373 . S
C1 H29 0.930 . S
N2 C1 1.373 . S
N2 C4 1.340 . S
N3 C0 1.368 . S
N3 C4 1.321 . S
N3 Co6 2.135 . S
C4 N2 1.340 . S
C4 N3 1.321 . S
C4 H28 0.930 . S
H5 C0 0.931 . S
Co6 N3 2.135 . S
Co6 N9 2.121 . S
Co6 O14 2.055 . S
Co6 O17 2.039 . S
Co6 N20 2.140 . S
C7 O8 1.227 . S
C7 O17 1.265 . S
O8 C7 1.227 . S
N9 Co6 2.121 . S
N9 C11 1.375 . S
N9 C12 1.313 . S
C10 C11 1.338 1_556 S
C10 N13 1.377 . S
C10 H30 0.930 . S
C11 N9 1.375 . S
C11 C10 1.338 1_554 S
C11 H15 0.931 . S
C12 N9 1.313 . S
C12 N13 1.344 1_554 S
C12 H16 0.930 . S
N13 C10 1.377 . S
N13 C12 1.344 1_556 S
O14 Co6 2.055 . S
O14 C18 1.253 . S
H15 C11 0.931 . S
H16 C12 0.930 . S
O17 Co6 2.039 . S
O17 C7 1.265 . S
C18 O14 1.253 . S
C18 O19 1.227 . S
O19 C18 1.227 . S
N20 Co6 2.140 . S
N20 C23 1.346 . S
N20 C24 1.345 . S
C21 C22 1.387 . S
C21 C25 1.391 . S
C22 C21 1.387 . S
C22 C23 1.369 . S
C22 H31 0.929 . S
C23 N20 1.346 . S
C23 C22 1.369 . S
C23 H26 0.928 . S
C24 N20 1.345 . S
C24 C25 1.371 . S
C24 H27 0.931 . S
C25 C21 1.391 . S
C25 C24 1.371 . S
C25 H32 0.930 1_554 S
H26 C23 0.928 . S
H27 C24 0.931 . S
H28 C4 0.930 . S
H29 C1 0.930 . S
H30 C10 0.930 . S
H31 C22 0.929 . S
H32 C25 0.930 1_556 S
C33 C34 1.351 . S
C33 N36 1.368 . S
C33 H38 0.931 . S
C34 C33 1.351 . S
C34 N35 1.373 . S
C34 H62 0.930 . S
N35 C34 1.373 . S
N35 C37 1.340 . S
N36 C33 1.368 . S
N36 C37 1.321 . S
N36 Co39 2.135 . S
C37 N35 1.340 . S
C37 N36 1.321 . S
C37 H61 0.930 . S
H38 C33 0.931 . S
Co39 N36 2.135 . S
Co39 N42 2.121 . S
Co39 O47 2.055 . S
Co39 O50 2.039 . S
Co39 N53 2.140 . S
C40 O41 1.227 . S
C40 O50 1.265 . S
O41 C40 1.227 . S
N42 Co39 2.121 . S
N42 C44 1.375 . S
N42 C45 1.313 . S
C43 C44 1.338 . S
C43 N46 1.377 . S
C43 H63 0.930 . S
C44 N42 1.375 . S
C44 C43 1.338 . S
C44 H48 0.931 . S
C45 N42 1.313 . S
C45 N46 1.344 . S
C45 H49 0.930 . S
N46 C43 1.377 . S
N46 C45 1.344 . S
O47 Co39 2.055 . S
O47 C51 1.253 . S
H48 C44 0.931 . S
H49 C45 0.930 . S
O50 Co39 2.039 . S
O50 C40 1.265 . S
C51 O47 1.253 . S
C51 O52 1.227 . S
O52 C51 1.227 . S
N53 Co39 2.140 . S
N53 C56 1.346 . S
N53 C57 1.345 . S
C54 C55 1.387 . S
C54 C58 1.391 . S
C55 C54 1.387 . S
C55 C56 1.369 . S
C55 H64 0.929 . S
C56 N53 1.346 . S
C56 C55 1.369 . S
C56 H59 0.928 . S
C57 N53 1.345 . S
C57 C58 1.371 . S
C57 H60 0.931 . S
C58 C54 1.391 . S
C58 C57 1.371 . S
C58 H65 0.930 . S
H59 C56 0.928 . S
H60 C57 0.931 . S
H61 C37 0.930 . S
H62 C34 0.930 . S
H63 C43 0.930 . S
H64 C55 0.929 . S
H65 C58 0.930 . S
C66 C67 1.351 . S
C66 N69 1.368 . S
C66 H71 0.931 . S
C67 C66 1.351 . S
C67 N68 1.373 . S
C67 H95 0.930 . S
N68 C67 1.373 . S
N68 C70 1.340 . S
N69 C66 1.368 . S
N69 C70 1.321 . S
N69 Co72 2.135 . S
C70 N68 1.340 . S
C70 N69 1.321 . S
C70 H94 0.930 . S
H71 C66 0.931 . S
Co72 N69 2.135 . S
Co72 N75 2.121 . S
Co72 O80 2.055 . S
Co72 O83 2.039 . S
Co72 N86 2.140 . S
C73 O74 1.227 . S
C73 O83 1.265 . S
O74 C73 1.227 . S
N75 Co72 2.121 . S
N75 C77 1.375 . S
N75 C78 1.313 . S
C76 C77 1.338 . S
C76 N79 1.377 . S
C76 H96 0.930 . S
C77 N75 1.375 . S
C77 C76 1.338 . S
C77 H81 0.931 . S
C78 N75 1.313 . S
C78 N79 1.344 . S
C78 H82 0.930 . S
N79 C76 1.377 . S
N79 C78 1.344 . S
O80 Co72 2.055 . S
O80 C84 1.253 . S
H81 C77 0.931 . S
H82 C78 0.930 . S
O83 Co72 2.039 . S
O83 C73 1.265 . S
C84 O80 1.253 . S
C84 O85 1.227 . S
O85 C84 1.227 . S
N86 Co72 2.140 . S
N86 C89 1.346 . S
N86 C90 1.345 . S
C87 C88 1.387 . S
C87 C91 1.391 . S
C88 C87 1.387 . S
C88 C89 1.369 . S
C88 H97 0.929 . S
C89 N86 1.346 . S
C89 C88 1.369 . S
C89 H92 0.928 . S
C90 N86 1.345 . S
C90 C91 1.371 . S
C90 H93 0.931 . S
C91 C87 1.391 . S
C91 C90 1.371 . S
C91 H98 0.930 . S
H92 C89 0.928 . S
H93 C90 0.931 . S
H94 C70 0.930 . S
H95 C67 0.930 . S
H96 C76 0.930 . S
H97 C88 0.929 . S
H98 C91 0.930 . S
C99 C100 1.351 . S
C99 N102 1.368 . S
C99 H104 0.931 . S
C100 C99 1.351 . S
C100 N101 1.373 . S
C100 H128 0.930 . S
N101 C100 1.373 . S
N101 C103 1.340 . S
N102 C99 1.368 . S
N102 C103 1.321 . S
N102 Co105 2.135 . S
C103 N101 1.340 . S
C103 N102 1.321 . S
C103 H127 0.930 . S
H104 C99 0.931 . S
Co105 N102 2.135 . S
Co105 N108 2.121 . S
Co105 O113 2.055 . S
Co105 O116 2.039 . S
Co105 N119 2.140 . S
C106 O107 1.227 . S
C106 O116 1.265 . S
O107 C106 1.227 . S
N108 Co105 2.121 . S
N108 C110 1.375 . S
N108 C111 1.313 . S
C109 C110 1.338 . S
C109 N112 1.377 . S
C109 H129 0.930 . S
C110 N108 1.375 . S
C110 C109 1.338 . S
C110 H114 0.931 . S
C111 N108 1.313 . S
C111 N112 1.344 . S
C111 H115 0.930 . S
N112 C109 1.377 . S
N112 C111 1.344 . S
O113 Co105 2.055 . S
O113 C117 1.253 . S
H114 C110 0.931 . S
H115 C111 0.930 . S
O116 Co105 2.039 . S
O116 C106 1.265 . S
C117 O113 1.253 . S
C117 O118 1.227 . S
O118 C117 1.227 . S
N119 Co105 2.140 . S
N119 C122 1.346 . S
N119 C123 1.345 . S
C120 C121 1.387 . S
C120 C124 1.391 . S
C121 C120 1.387 . S
C121 C122 1.369 . S
C121 H130 0.929 . S
C122 N119 1.346 . S
C122 C121 1.369 . S
C122 H125 0.928 . S
C123 N119 1.345 . S
C123 C124 1.371 . S
C123 H126 0.931 . S
C124 C120 1.391 . S
C124 C123 1.371 . S
C124 H131 0.930 . S
H125 C122 0.928 . S
H126 C123 0.931 . S
H127 C103 0.930 . S
H128 C100 0.930 . S
H129 C109 0.930 . S
H130 C121 0.929 . S
H131 C124 0.930 . S
C132 C133 1.351 . S
C132 N135 1.368 . S
C132 H137 0.931 . S
C133 C132 1.351 . S
C133 N134 1.373 . S
C133 H161 0.930 . S
N134 C133 1.373 . S
N134 C136 1.340 . S
N135 C132 1.368 . S
N135 C136 1.321 . S
N135 Co138 2.135 . S
C136 N134 1.340 . S
C136 N135 1.321 . S
C136 H160 0.930 . S
H137 C132 0.931 . S
Co138 N135 2.135 . S
Co138 N141 2.121 . S
Co138 O146 2.055 . S
Co138 O149 2.039 . S
Co138 N152 2.140 . S
C139 O140 1.227 . S
C139 O149 1.265 . S
O140 C139 1.227 . S
N141 Co138 2.121 . S
N141 C143 1.375 . S
N141 C144 1.313 . S
C142 C143 1.338 . S
C142 N145 1.377 . S
C142 H162 0.930 . S
C143 N141 1.375 . S
C143 C142 1.338 . S
C143 H147 0.931 . S
C144 N141 1.313 . S
C144 N145 1.344 . S
C144 H148 0.930 . S
N145 C142 1.377 . S
N145 C144 1.344 . S
O146 Co138 2.055 . S
O146 C150 1.253 . S
H147 C143 0.931 . S
H148 C144 0.930 . S
O149 Co138 2.039 . S
O149 C139 1.265 . S
C150 O146 1.253 . S
C150 O151 1.227 . S
O151 C150 1.227 . S
N152 Co138 2.140 . S
N152 C155 1.346 . S
N152 C156 1.345 . S
C153 C154 1.387 . S
C153 C157 1.391 . S
C154 C153 1.387 . S
C154 C155 1.369 . S
C154 H163 0.929 . S
C155 N152 1.346 . S
C155 C154 1.369 . S
C155 H158 0.928 . S
C156 N152 1.345 . S
C156 C157 1.371 . S
C156 H159 0.931 . S
C157 C153 1.391 . S
C157 C156 1.371 . S
C157 H164 0.930 . S
H158 C155 0.928 . S
H159 C156 0.931 . S
H160 C136 0.930 . S
H161 C133 0.930 . S
H162 C142 0.930 . S
H163 C154 0.929 . S
H164 C157 0.930 . S
C165 C166 1.351 . S
C165 N168 1.368 . S
C165 H170 0.931 . S
C166 C165 1.351 . S
C166 N167 1.373 . S
C166 H194 0.930 . S
N167 C166 1.373 . S
N167 C169 1.340 . S
N168 C165 1.368 . S
N168 C169 1.321 . S
N168 Co171 2.135 . S
C169 N167 1.340 . S
C169 N168 1.321 . S
C169 H193 0.930 . S
H170 C165 0.931 . S
Co171 N168 2.135 . S
Co171 N174 2.121 . S
Co171 O179 2.055 . S
Co171 O182 2.039 . S
Co171 N185 2.140 . S
C172 O173 1.227 . S
C172 O182 1.265 . S
O173 C172 1.227 . S
N174 Co171 2.121 . S
N174 C176 1.375 . S
N174 C177 1.313 . S
C175 C176 1.338 . S
C175 N178 1.377 . S
C175 H195 0.930 . S
C176 N174 1.375 . S
C176 C175 1.338 . S
C176 H180 0.931 . S
C177 N174 1.313 . S
C177 N178 1.344 . S
C177 H181 0.930 . S
N178 C175 1.377 . S
N178 C177 1.344 . S
O179 Co171 2.055 . S
O179 C183 1.253 . S
H180 C176 0.931 . S
H181 C177 0.930 . S
O182 Co171 2.039 . S
O182 C172 1.265 . S
C183 O179 1.253 . S
C183 O184 1.227 . S
O184 C183 1.227 . S
N185 Co171 2.140 . S
N185 C188 1.346 . S
N185 C189 1.345 . S
C186 C187 1.387 . S
C186 C190 1.391 . S
C187 C186 1.387 . S
C187 C188 1.369 . S
C187 H196 0.929 . S
C188 N185 1.346 . S
C188 C187 1.369 . S
C188 H191 0.928 . S
C189 N185 1.345 . S
C189 C190 1.371 . S
C189 H192 0.931 . S
C190 C186 1.391 . S
C190 C189 1.371 . S
C190 H197 0.930 . S
H191 C188 0.928 . S
H192 C189 0.931 . S
H193 C169 0.930 . S
H194 C166 0.930 . S
H195 C175 0.930 . S
H196 C187 0.929 . S
H197 C190 0.930 . S
C198 C199 1.351 . S
C198 N201 1.368 . S
C198 H203 0.931 . S
C199 C198 1.351 . S
C199 N200 1.373 . S
C199 H227 0.930 . S
N200 C199 1.373 . S
N200 C202 1.340 . S
N201 C198 1.368 . S
N201 C202 1.321 . S
N201 Co204 2.135 . S
C202 N200 1.340 . S
C202 N201 1.321 . S
C202 H226 0.930 . S
H203 C198 0.931 . S
Co204 N201 2.135 . S
Co204 N207 2.121 . S
Co204 O212 2.055 . S
Co204 O215 2.039 . S
Co204 N218 2.140 . S
C205 O206 1.227 . S
C205 O215 1.265 . S
O206 C205 1.227 . S
N207 Co204 2.121 . S
N207 C209 1.375 . S
N207 C210 1.313 . S
C208 C209 1.338 1_554 S
C208 N211 1.377 . S
C208 H228 0.930 . S
C209 N207 1.375 . S
C209 C208 1.338 1_556 S
C209 H213 0.931 . S
C210 N207 1.313 . S
C210 N211 1.344 1_556 S
C210 H214 0.930 . S
N211 C208 1.377 . S
N211 C210 1.344 1_554 S
O212 Co204 2.055 . S
O212 C216 1.253 . S
H213 C209 0.931 . S
H214 C210 0.930 . S
O215 Co204 2.039 . S
O215 C205 1.265 . S
C216 O212 1.253 . S
C216 O217 1.227 . S
O217 C216 1.227 . S
N218 Co204 2.140 . S
N218 C221 1.346 . S
N218 C222 1.345 . S
C219 C220 1.387 . S
C219 C223 1.391 . S
C220 C219 1.387 . S
C220 C221 1.369 . S
C220 H229 0.929 . S
C221 N218 1.346 . S
C221 C220 1.369 . S
C221 H224 0.928 . S
C222 N218 1.345 . S
C222 C223 1.371 . S
C222 H225 0.931 . S
C223 C219 1.391 . S
C223 C222 1.371 . S
C223 H230 0.930 1_556 S
H224 C221 0.928 . S
H225 C222 0.931 . S
H226 C202 0.930 . S
H227 C199 0.930 . S
H228 C208 0.930 . S
H229 C220 0.929 . S
H230 C223 0.930 1_554 S
C231 C232 1.351 . S
C231 N234 1.368 . S
C231 H236 0.931 . S
C232 C231 1.351 . S
C232 N233 1.373 . S
C232 H260 0.930 . S
N233 C232 1.373 . S
N233 C235 1.340 . S
N234 C231 1.368 . S
N234 C235 1.321 . S
N234 Co237 2.135 . S
C235 N233 1.340 . S
C235 N234 1.321 . S
C235 H259 0.930 . S
H236 C231 0.931 . S
Co237 N234 2.135 . S
Co237 N240 2.121 . S
Co237 O245 2.055 . S
Co237 O248 2.039 . S
Co237 N251 2.140 . S
C238 O239 1.227 . S
C238 O248 1.265 . S
O239 C238 1.227 . S
N240 Co237 2.121 . S
N240 C242 1.375 . S
N240 C243 1.313 . S
C241 C242 1.338 . S
C241 N244 1.377 . S
C241 H261 0.930 . S
C242 N240 1.375 . S
C242 C241 1.338 . S
C242 H246 0.931 . S
C243 N240 1.313 . S
C243 N244 1.344 . S
C243 H247 0.930 . S
N244 C241 1.377 . S
N244 C243 1.344 . S
O245 Co237 2.055 . S
O245 C249 1.253 . S
H246 C242 0.931 . S
H247 C243 0.930 . S
O248 Co237 2.039 . S
O248 C238 1.265 . S
C249 O245 1.253 . S
C249 O250 1.227 . S
O250 C249 1.227 . S
N251 Co237 2.140 . S
N251 C254 1.346 . S
N251 C255 1.345 . S
C252 C253 1.387 . S
C252 C256 1.391 . S
C253 C252 1.387 . S
C253 C254 1.369 . S
C253 H262 0.929 . S
C254 N251 1.346 . S
C254 C253 1.369 . S
C254 H257 0.928 . S
C255 N251 1.345 . S
C255 C256 1.371 . S
C255 H258 0.931 . S
C256 C252 1.391 . S
C256 C255 1.371 . S
C256 H263 0.930 . S
H257 C254 0.928 . S
H258 C255 0.931 . S
H259 C235 0.930 . S
H260 C232 0.930 . S
H261 C241 0.930 . S
H262 C253 0.929 . S
H263 C256 0.930 . S
H264 C272 0.929 . S
H265 C274 0.930 . S
H266 C276 0.930 . S
H267 C279 0.929 . S
H268 C282 0.930 . S
H269 C284 0.960 . S
H270 C284 0.960 . S
H271 C284 0.960 . S
C272 H264 0.929 . S
C272 C273 1.377 . S
C272 C274 1.384 . S
C273 C272 1.377 . S
C273 C279 1.390 . S
C274 H265 0.930 . S
C274 C272 1.384 . S
C274 C275 1.372 . S
C275 C274 1.372 . S
C275 C276 1.400 . S
C275 C280 1.490 . S
C276 H266 0.930 . S
C276 C275 1.400 . S
C276 C279 1.386 . S
H277 C293 0.930 . S
H278 C294 0.931 . S
C279 H267 0.929 . S
C279 C273 1.390 . S
C279 C276 1.386 . S
C280 C275 1.490 . S
C280 C282 1.395 . S
C280 C283 1.403 . S
H281 C287 0.930 . S
C282 H268 0.930 . S
C282 C280 1.395 . S
C282 C285 1.403 . S
C283 C280 1.403 . S
C283 C284 1.524 . S
C283 C287 1.400 . S
C284 H269 0.960 . S
C284 H270 0.960 . S
C284 H271 0.960 . S
C284 C283 1.524 . S
C285 C282 1.403 . S
C285 C286 1.392 . S
C285 C289 1.495 . S
C286 C285 1.392 . S
C286 C287 1.385 . S
C286 C288 1.478 . S
C287 H281 0.930 . S
C287 C283 1.400 . S
C287 C286 1.385 . S
C288 C286 1.478 . S
C288 C290 1.381 . S
C288 C294 1.383 . S
C289 C285 1.495 . S
C289 H295 0.959 . S
C289 H296 0.961 . S
C289 H297 0.960 . S
C290 C288 1.381 . S
C290 C291 1.394 . S
C290 H298 0.930 . S
C291 C290 1.394 . S
C291 C292 1.383 . S
C291 H299 0.929 . S
C292 C291 1.383 . S
C292 C293 1.377 . S
C293 H277 0.930 . S
C293 C292 1.377 . S
C293 C294 1.379 . S
C294 H278 0.931 . S
C294 C288 1.383 . S
C294 C293 1.379 . S
H295 C289 0.959 . S
H296 C289 0.961 . S
H297 C289 0.960 . S
H298 C290 0.930 . S
H299 C291 0.929 . S
H300 C308 0.929 . S
H301 C310 0.930 . S
H302 C312 0.930 . S
H303 C315 0.929 . S
H304 C318 0.930 . S
H305 C320 0.960 . S
H306 C320 0.960 . S
H307 C320 0.960 . S
C308 H300 0.929 . S
C308 C309 1.377 . S
C308 C310 1.384 . S
C309 C308 1.377 . S
C309 C315 1.390 . S
C310 H301 0.930 . S
C310 C308 1.384 . S
C310 C311 1.372 . S
C311 C310 1.372 . S
C311 C312 1.400 . S
C311 C316 1.490 . S
C312 H302 0.930 . S
C312 C311 1.400 . S
C312 C315 1.386 . S
H313 C329 0.930 . S
H314 C330 0.931 . S
C315 H303 0.929 . S
C315 C309 1.390 . S
C315 C312 1.386 . S
C316 C311 1.490 . S
C316 C318 1.395 . S
C316 C319 1.403 . S
H317 C323 0.930 . S
C318 H304 0.930 . S
C318 C316 1.395 . S
C318 C321 1.403 . S
C319 C316 1.403 . S
C319 C320 1.524 . S
C319 C323 1.400 . S
C320 H305 0.960 . S
C320 H306 0.960 . S
C320 H307 0.960 . S
C320 C319 1.524 . S
C321 C318 1.403 . S
C321 C322 1.392 . S
C321 C325 1.495 . S
C322 C321 1.392 . S
C322 C323 1.385 . S
C322 C324 1.478 . S
C323 H317 0.930 . S
C323 C319 1.400 . S
C323 C322 1.385 . S
C324 C322 1.478 . S
C324 C326 1.381 . S
C324 C330 1.383 . S
C325 C321 1.495 . S
C325 H331 0.959 . S
C325 H332 0.961 . S
C325 H333 0.960 . S
C326 C324 1.381 . S
C326 C327 1.394 . S
C326 H334 0.930 . S
C327 C326 1.394 . S
C327 C328 1.383 . S
C327 H335 0.929 . S
C328 C327 1.383 . S
C328 C329 1.377 . S
C329 H313 0.930 . S
C329 C328 1.377 . S
C329 C330 1.379 . S
C330 H314 0.931 . S
C330 C324 1.383 . S
C330 C329 1.379 . S
H331 C325 0.959 . S
H332 C325 0.961 . S
H333 C325 0.960 . S
H334 C326 0.930 . S
H335 C327 0.929 . S
H336 C344 0.929 . S
H337 C346 0.930 . S
H338 C348 0.930 . S
H339 C351 0.929 . S
H340 C354 0.930 . S
H341 C356 0.960 . S
H342 C356 0.960 . S
H343 C356 0.960 . S
C344 H336 0.929 . S
C344 C345 1.377 . S
C344 C346 1.384 . S
C345 C344 1.377 . S
C345 C351 1.390 . S
C346 H337 0.930 . S
C346 C344 1.384 . S
C346 C347 1.372 . S
C347 C346 1.372 . S
C347 C348 1.400 . S
C347 C352 1.490 . S
C348 H338 0.930 . S
C348 C347 1.400 . S
C348 C351 1.386 . S
H349 C365 0.930 . S
H350 C366 0.931 . S
C351 H339 0.929 . S
C351 C345 1.390 . S
C351 C348 1.386 . S
C352 C347 1.490 . S
C352 C354 1.395 . S
C352 C355 1.403 . S
H353 C359 0.930 . S
C354 H340 0.930 . S
C354 C352 1.395 . S
C354 C357 1.403 . S
C355 C352 1.403 . S
C355 C356 1.524 . S
C355 C359 1.400 . S
C356 H341 0.960 . S
C356 H342 0.960 . S
C356 H343 0.960 . S
C356 C355 1.524 . S
C357 C354 1.403 . S
C357 C358 1.392 . S
C357 C361 1.495 . S
C358 C357 1.392 . S
C358 C359 1.385 . S
C358 C360 1.478 . S
C359 H353 0.930 . S
C359 C355 1.400 . S
C359 C358 1.385 . S
C360 C358 1.478 . S
C360 C362 1.381 . S
C360 C366 1.383 . S
C361 C357 1.495 . S
C361 H367 0.959 . S
C361 H368 0.961 . S
C361 H369 0.960 . S
C362 C360 1.381 . S
C362 C363 1.394 . S
C362 H370 0.930 . S
C363 C362 1.394 . S
C363 C364 1.383 . S
C363 H371 0.929 . S
C364 C363 1.383 . S
C364 C365 1.377 . S
C365 H349 0.930 . S
C365 C364 1.377 . S
C365 C366 1.379 . S
C366 H350 0.931 . S
C366 C360 1.383 . S
C366 C365 1.379 . S
H367 C361 0.959 . S
H368 C361 0.961 . S
H369 C361 0.960 . S
H370 C362 0.930 . S
H371 C363 0.929 . S
H372 C380 0.929 . S
H373 C382 0.930 . S
H374 C384 0.930 . S
H375 C387 0.929 . S
H376 C390 0.930 . S
H377 C392 0.960 . S
H378 C392 0.960 . S
H379 C392 0.960 . S
C380 H372 0.929 . S
C380 C381 1.377 . S
C380 C382 1.384 . S
C381 C380 1.377 . S
C381 C387 1.390 . S
C382 H373 0.930 . S
C382 C380 1.384 . S
C382 C383 1.372 . S
C383 C382 1.372 . S
C383 C384 1.400 . S
C383 C388 1.490 . S
C384 H374 0.930 . S
C384 C383 1.400 . S
C384 C387 1.386 . S
H385 C401 0.930 . S
H386 C402 0.931 . S
C387 H375 0.929 . S
C387 C381 1.390 . S
C387 C384 1.386 . S
C388 C383 1.490 . S
C388 C390 1.395 . S
C388 C391 1.403 . S
H389 C395 0.930 . S
C390 H376 0.930 . S
C390 C388 1.395 . S
C390 C393 1.403 1_556 S
C391 C388 1.403 . S
C391 C392 1.524 . S
C391 C395 1.400 1_556 S
C392 H377 0.960 . S
C392 H378 0.960 . S
C392 H379 0.960 . S
C392 C391 1.524 . S
C393 C390 1.403 1_554 S
C393 C394 1.392 . S
C393 C397 1.495 . S
C394 C393 1.392 . S
C394 C395 1.385 . S
C394 C396 1.478 . S
C395 H389 0.930 . S
C395 C391 1.400 1_554 S
C395 C394 1.385 . S
C396 C394 1.478 . S
C396 C398 1.381 . S
C396 C402 1.383 . S
C397 C393 1.495 . S
C397 H403 0.959 . S
C397 H404 0.961 . S
C397 H405 0.960 . S
C398 C396 1.381 . S
C398 C399 1.394 . S
C398 H406 0.930 . S
C399 C398 1.394 . S
C399 C400 1.383 . S
C399 H407 0.929 . S
C400 C399 1.383 . S
C400 C401 1.377 . S
C401 H385 0.930 . S
C401 C400 1.377 . S
C401 C402 1.379 . S
C402 H386 0.931 . S
C402 C396 1.383 . S
C402 C401 1.379 . S
H403 C397 0.959 . S
H404 C397 0.961 . S
H405 C397 0.960 . S
H406 C398 0.930 . S
H407 C399 0.929 . S
H408 C416 0.920 1_556 S
H409 C418 0.930 . S
H410 C420 0.930 . S
H411 C423 0.929 . S
H412 C426 0.930 . S
H413 C428 0.960 . S
H414 C428 0.960 . S
H415 C428 0.960 . S
C416 H408 0.920 1_554 S
C416 C417 1.391 . S
C416 C418 1.380 1_554 S
C417 C416 1.391 . S
C417 C423 1.390 . S
C418 H409 0.930 . S
C418 C416 1.380 1_556 S
C418 C419 1.372 1_556 S
C419 C418 1.372 1_554 S
C419 C420 1.400 . S
C419 C424 1.490 . S
C420 H410 0.930 . S
C420 C419 1.400 . S
C420 C423 1.386 . S
H421 C437 0.930 1_554 S
H422 C438 0.931 1_554 S
C423 H411 0.929 . S
C423 C417 1.390 . S
C423 C420 1.386 . S
C424 C419 1.490 . S
C424 C426 1.395 1_554 S
C424 C427 1.403 . S
H425 C431 0.930 . S
C426 H412 0.930 . S
C426 C424 1.395 1_556 S
C426 C429 1.403 1_455 S
C427 C424 1.403 . S
C427 C428 1.524 . S
C427 C431 1.400 1_455 S
C428 H413 0.960 . S
C428 H414 0.960 . S
C428 H415 0.960 . S
C428 C427 1.524 . S
C429 C426 1.403 1_655 S
C429 C430 1.392 . S
C429 C433 1.495 . S
C430 C429 1.392 . S
C430 C431 1.385 1_556 S
C430 C432 1.478 . S
C431 H425 0.930 . S
C431 C427 1.400 1_655 S
C431 C430 1.385 1_554 S
C432 C430 1.478 . S
C432 C434 1.381 . S
C432 C438 1.383 . S
C433 C429 1.495 . S
C433 H439 0.959 . S
C433 H440 0.961 . S
C433 H441 0.960 . S
C434 C432 1.381 . S
C434 C435 1.394 . S
C434 H442 0.930 . S
C435 C434 1.394 . S
C435 C436 1.383 . S
C435 H443 0.929 . S
C436 C435 1.383 . S
C436 C437 1.377 . S
C437 H421 0.930 1_556 S
C437 C436 1.377 . S
C437 C438 1.379 . S
C438 H422 0.931 1_556 S
C438 C432 1.383 . S
C438 C437 1.379 . S
H439 C433 0.959 . S
H440 C433 0.961 . S
H441 C433 0.960 . S
H442 C434 0.930 . S
H443 C435 0.929 . S
H444 C452 0.929 . S
H445 C454 0.930 . S
H446 C456 0.930 . S
H447 C459 0.929 . S
H448 C462 0.930 . S
H449 C464 0.960 . S
H450 C464 0.960 . S
H451 C464 0.960 . S
C452 H444 0.929 . S
C452 C453 1.377 . S
C452 C454 1.384 . S
C453 C452 1.377 . S
C453 C459 1.390 . S
C454 H445 0.930 . S
C454 C452 1.384 . S
C454 C455 1.372 . S
C455 C454 1.372 . S
C455 C456 1.400 . S
C455 C460 1.490 . S
C456 H446 0.930 . S
C456 C455 1.400 . S
C456 C459 1.386 . S
H457 C473 0.930 . S
H458 C474 0.931 . S
C459 H447 0.929 . S
C459 C453 1.390 . S
C459 C456 1.386 . S
C460 C455 1.490 . S
C460 C462 1.395 . S
C460 C463 1.403 . S
H461 C467 0.930 . S
C462 H448 0.930 . S
C462 C460 1.395 . S
C462 C465 1.403 1_545 S
C463 C460 1.403 . S
C463 C464 1.524 . S
C463 C467 1.400 1_545 S
C464 H449 0.960 . S
C464 H450 0.960 . S
C464 H451 0.960 . S
C464 C463 1.524 . S
C465 C462 1.403 1_565 S
C465 C466 1.392 . S
C465 C469 1.495 . S
C466 C465 1.392 . S
C466 C467 1.385 . S
C466 C468 1.478 . S
C467 H461 0.930 . S
C467 C463 1.400 1_565 S
C467 C466 1.385 . S
C468 C466 1.478 . S
C468 C470 1.381 . S
C468 C474 1.383 . S
C469 C465 1.495 . S
C469 H475 0.959 . S
C469 H476 0.961 . S
C469 H477 0.960 . S
C470 C468 1.381 . S
C470 C471 1.394 . S
C470 H478 0.930 . S
C471 C470 1.394 . S
C471 C472 1.383 . S
C471 H479 0.929 . S
C472 C471 1.383 . S
C472 C473 1.377 . S
C473 H457 0.930 . S
C473 C472 1.377 . S
C473 C474 1.379 . S
C474 H458 0.931 . S
C474 C468 1.383 . S
C474 C473 1.379 . S
H475 C469 0.959 . S
H476 C469 0.961 . S
H477 C469 0.960 . S
H478 C470 0.930 . S
H479 C471 0.929 . S
H480 C488 0.929 . S
H481 C490 0.930 . S
H482 C492 0.930 . S
H483 C495 0.929 . S
H484 C498 0.930 . S
H485 C500 0.960 . S
H486 C500 0.960 . S
H487 C500 0.960 . S
C488 H480 0.929 . S
C488 C489 1.377 . S
C488 C490 1.384 . S
C489 C488 1.377 . S
C489 C495 1.390 . S
C490 H481 0.930 . S
C490 C488 1.384 . S
C490 C491 1.372 . S
C491 C490 1.372 . S
C491 C492 1.400 . S
C491 C496 1.490 . S
C492 H482 0.930 . S
C492 C491 1.400 . S
C492 C495 1.386 . S
H493 C509 0.930 . S
H494 C510 0.931 . S
C495 H483 0.929 . S
C495 C489 1.390 . S
C495 C492 1.386 . S
C496 C491 1.490 . S
C496 C498 1.395 . S
C496 C499 1.403 . S
H497 C503 0.930 . S
C498 H484 0.930 . S
C498 C496 1.395 . S
C498 C501 1.403 1_455 S
C499 C496 1.403 . S
C499 C500 1.524 . S
C499 C503 1.400 1_455 S
C500 H485 0.960 . S
C500 H486 0.960 . S
C500 H487 0.960 . S
C500 C499 1.524 . S
C501 C498 1.403 1_655 S
C501 C502 1.392 . S
C501 C505 1.495 . S
C502 C501 1.392 . S
C502 C503 1.385 . S
C502 C504 1.478 . S
C503 H497 0.930 . S
C503 C499 1.400 1_655 S
C503 C502 1.385 . S
C504 C502 1.478 . S
C504 C506 1.381 . S
C504 C510 1.383 . S
C505 C501 1.495 . S
C505 H511 0.959 . S
C505 H512 0.961 . S
C505 H513 0.960 . S
C506 C504 1.381 . S
C506 C507 1.394 . S
C506 H514 0.930 . S
C507 C506 1.394 . S
C507 C508 1.383 . S
C507 H515 0.929 . S
C508 C507 1.383 . S
C508 C509 1.377 . S
C509 H493 0.930 . S
C509 C508 1.377 . S
C509 C510 1.379 . S
C510 H494 0.931 . S
C510 C504 1.383 . S
C510 C509 1.379 . S
H511 C505 0.959 . S
H512 C505 0.961 . S
H513 C505 0.960 . S
H514 C506 0.930 . S
H515 C507 0.929 . S
H516 C524 0.929 . S
H517 C526 0.930 . S
H518 C528 0.930 . S
H519 C531 0.929 . S
H520 C534 0.930 . S
H521 C536 0.960 . S
H522 C536 0.960 . S
H523 C536 0.960 . S
C524 H516 0.929 . S
C524 C525 1.377 . S
C524 C526 1.384 . S
C525 C524 1.377 . S
C525 C531 1.390 . S
C526 H517 0.930 . S
C526 C524 1.384 . S
C526 C527 1.372 . S
C527 C526 1.372 . S
C527 C528 1.400 . S
C527 C532 1.490 . S
C528 H518 0.930 . S
C528 C527 1.400 . S
C528 C531 1.386 . S
H529 C545 0.930 . S
H530 C546 0.931 . S
C531 H519 0.929 . S
C531 C525 1.390 . S
C531 C528 1.386 . S
C532 C527 1.490 . S
C532 C534 1.395 . S
C532 C535 1.403 . S
H533 C539 0.930 . S
C534 H520 0.930 . S
C534 C532 1.395 . S
C534 C537 1.403 1_545 S
C535 C532 1.403 . S
C535 C536 1.524 . S
C535 C539 1.400 1_545 S
C536 H521 0.960 . S
C536 H522 0.960 . S
C536 H523 0.960 . S
C536 C535 1.524 . S
C537 C534 1.403 1_565 S
C537 C538 1.392 . S
C537 C541 1.495 . S
C538 C537 1.392 . S
C538 C539 1.385 . S
C538 C540 1.478 . S
C539 H533 0.930 . S
C539 C535 1.400 1_565 S
C539 C538 1.385 . S
C540 C538 1.478 . S
C540 C542 1.381 . S
C540 C546 1.383 . S
C541 C537 1.495 . S
C541 H547 0.959 . S
C541 H548 0.961 . S
C541 H549 0.960 . S
C542 C540 1.381 . S
C542 C543 1.394 . S
C542 H550 0.930 . S
C543 C542 1.394 . S
C543 C544 1.383 . S
C543 H551 0.929 . S
C544 C543 1.383 . S
C544 C545 1.377 . S
C545 H529 0.930 . S
C545 C544 1.377 . S
C545 C546 1.379 . S
C546 H530 0.931 . S
C546 C540 1.383 . S
C546 C545 1.379 . S
H547 C541 0.959 . S
H548 C541 0.961 . S
H549 C541 0.960 . S
H550 C542 0.930 . S
H551 C543 0.929 . S
H552 C560 0.929 . S
H553 C562 0.930 . S
H554 C564 0.930 . S
H555 C567 0.929 . S
H556 C570 0.930 . S
H557 C572 0.960 . S
H558 C572 0.960 . S
H559 C572 0.960 . S
C560 H552 0.929 . S
C560 C561 1.377 . S
C560 C562 1.384 . S
C561 C560 1.377 . S
C561 C567 1.390 . S
C562 H553 0.930 . S
C562 C560 1.384 . S
C562 C563 1.372 . S
C563 C562 1.372 . S
C563 C564 1.400 . S
C563 C568 1.490 . S
C564 H554 0.930 . S
C564 C563 1.400 . S
C564 C567 1.386 . S
H565 C581 0.930 . S
H566 C582 0.931 . S
C567 H555 0.929 . S
C567 C561 1.390 . S
C567 C564 1.386 . S
C568 C563 1.490 . S
C568 C570 1.395 . S
C568 C571 1.403 . S
H569 C575 0.930 . S
C570 H556 0.930 . S
C570 C568 1.395 . S
C570 C573 1.403 . S
C571 C568 1.403 . S
C571 C572 1.524 . S
C571 C575 1.400 . S
C572 H557 0.960 . S
C572 H558 0.960 . S
C572 H559 0.960 . S
C572 C571 1.524 . S
C573 C570 1.403 . S
C573 C574 1.392 . S
C573 C577 1.495 . S
C574 C573 1.392 . S
C574 C575 1.385 . S
C574 C576 1.478 . S
C575 H569 0.930 . S
C575 C571 1.400 . S
C575 C574 1.385 . S
C576 C574 1.478 . S
C576 C578 1.381 . S
C576 C582 1.383 . S
C577 C573 1.495 . S
C577 H583 0.959 . S
C577 H584 0.961 . S
C577 H585 0.960 . S
C578 C576 1.381 . S
C578 C579 1.394 . S
C578 H586 0.930 . S
C579 C578 1.394 . S
C579 C580 1.383 . S
C579 H587 0.929 . S
C580 C579 1.383 . S
C580 C581 1.377 . S
C581 H565 0.930 . S
C581 C580 1.377 . S
C581 C582 1.379 . S
C582 H566 0.931 . S
C582 C576 1.383 . S
C582 C581 1.379 . S
H583 C577 0.959 . S
H584 C577 0.961 . S
H585 C577 0.960 . S
H586 C578 0.930 . S
H587 C579 0.929 . S
H588 C596 0.929 . S
H589 C598 0.930 . S
H590 C600 0.930 . S
H591 C603 0.929 . S
H592 C606 0.930 . S
H593 C608 0.960 . S
H594 C608 0.960 . S
H595 C608 0.960 . S
C596 H588 0.929 . S
C596 C597 1.377 . S
C596 C598 1.384 . S
C597 C596 1.377 . S
C597 C603 1.390 . S
C598 H589 0.930 . S
C598 C596 1.384 . S
C598 C599 1.372 . S
C599 C598 1.372 . S
C599 C600 1.400 . S
C599 C604 1.490 . S
C600 H590 0.930 . S
C600 C599 1.400 . S
C600 C603 1.386 . S
H601 C617 0.930 . S
H602 C618 0.931 . S
C603 H591 0.929 . S
C603 C597 1.390 . S
C603 C600 1.386 . S
C604 C599 1.490 . S
C604 C606 1.395 . S
C604 C607 1.403 . S
H605 C611 0.930 . S
C606 H592 0.930 . S
C606 C604 1.395 . S
C606 C609 1.403 . S
C607 C604 1.403 . S
C607 C608 1.524 . S
C607 C611 1.400 . S
C608 H593 0.960 . S
C608 H594 0.960 . S
C608 H595 0.960 . S
C608 C607 1.524 . S
C609 C606 1.403 . S
C609 C610 1.392 . S
C609 C613 1.495 . S
C610 C609 1.392 . S
C610 C611 1.385 . S
C610 C612 1.478 . S
C611 H605 0.930 . S
C611 C607 1.400 . S
C611 C610 1.385 . S
C612 C610 1.478 . S
C612 C614 1.381 . S
C612 C618 1.383 . S
C613 C609 1.495 . S
C613 H619 0.959 . S
C613 H620 0.961 . S
C613 H621 0.960 . S
C614 C612 1.381 . S
C614 C615 1.394 . S
C614 H622 0.930 . S
C615 C614 1.394 . S
C615 C616 1.383 . S
C615 H623 0.929 . S
C616 C615 1.383 . S
C616 C617 1.377 . S
C617 H601 0.930 . S
C617 C616 1.377 . S
C617 C618 1.379 . S
C618 H602 0.931 . S
C618 C612 1.383 . S
C618 C617 1.379 . S
H619 C613 0.959 . S
H620 C613 0.961 . S
H621 C613 0.960 . S
H622 C614 0.930 . S
H623 C615 0.929 . S
H624 C632 0.929 . S
H625 C634 0.930 . S
H626 C636 0.930 . S
H627 C639 0.929 . S
H628 C642 0.930 . S
H629 C644 0.960 . S
H630 C644 0.960 . S
H631 C644 0.960 . S
C632 H624 0.929 . S
C632 C633 1.377 . S
C632 C634 1.384 . S
C633 C632 1.377 . S
C633 C639 1.390 . S
C634 H625 0.930 . S
C634 C632 1.384 . S
C634 C635 1.372 . S
C635 C634 1.372 . S
C635 C636 1.400 . S
C635 C640 1.490 . S
C636 H626 0.930 . S
C636 C635 1.400 . S
C636 C639 1.386 . S
H637 C653 0.930 . S
H638 C654 0.931 . S
C639 H627 0.929 . S
C639 C633 1.390 . S
C639 C636 1.386 . S
C640 C635 1.490 . S
C640 C642 1.395 . S
C640 C643 1.403 . S
H641 C647 0.930 . S
C642 H628 0.930 . S
C642 C640 1.395 . S
C642 C645 1.403 . S
C643 C640 1.403 . S
C643 C644 1.524 . S
C643 C647 1.400 . S
C644 H629 0.960 . S
C644 H630 0.960 . S
C644 H631 0.960 . S
C644 C643 1.524 . S
C645 C642 1.403 . S
C645 C646 1.392 . S
C645 C649 1.495 . S
C646 C645 1.392 . S
C646 C647 1.385 . S
C646 C648 1.478 . S
C647 H641 0.930 . S
C647 C643 1.400 . S
C647 C646 1.385 . S
C648 C646 1.478 . S
C648 C650 1.381 . S
C648 C654 1.383 . S
C649 C645 1.495 . S
C649 H655 0.959 . S
C649 H656 0.961 . S
C649 H657 0.960 . S
C650 C648 1.381 . S
C650 C651 1.394 . S
C650 H658 0.930 . S
C651 C650 1.394 . S
C651 C652 1.383 . S
C651 H659 0.929 . S
C652 C651 1.383 . S
C652 C653 1.377 . S
C653 H637 0.930 . S
C653 C652 1.377 . S
C653 C654 1.379 . S
C654 H638 0.931 . S
C654 C648 1.383 . S
C654 C653 1.379 . S
H655 C649 0.959 . S
H656 C649 0.961 . S
H657 C649 0.960 . S
H658 C650 0.930 . S
H659 C651 0.929 . S
H660 C668 0.929 . S
H661 C670 0.930 . S
H662 C672 0.930 . S
H663 C675 0.929 . S
H664 C678 0.930 . S
H665 C680 0.960 . S
H666 C680 0.960 . S
H667 C680 0.960 . S
C668 H660 0.929 . S
C668 C669 1.377 . S
C668 C670 1.384 . S
C669 C668 1.377 . S
C669 C675 1.390 . S
C670 H661 0.930 . S
C670 C668 1.384 . S
C670 C671 1.372 . S
C671 C670 1.372 . S
C671 C672 1.400 . S
C671 C676 1.490 . S
C672 H662 0.930 . S
C672 C671 1.400 . S
C672 C675 1.386 . S
H673 C689 0.930 . S
H674 C690 0.931 . S
C675 H663 0.929 . S
C675 C669 1.390 . S
C675 C672 1.386 . S
C676 C671 1.490 . S
C676 C678 1.395 . S
C676 C679 1.403 . S
H677 C683 0.930 . S
C678 H664 0.930 . S
C678 C676 1.395 . S
C678 C681 1.403 . S
C679 C676 1.403 . S
C679 C680 1.524 . S
C679 C683 1.400 . S
C680 H665 0.960 . S
C680 H666 0.960 . S
C680 H667 0.960 . S
C680 C679 1.524 . S
C681 C678 1.403 . S
C681 C682 1.392 . S
C681 C685 1.495 . S
C682 C681 1.392 . S
C682 C683 1.385 . S
C682 C684 1.478 . S
C683 H677 0.930 . S
C683 C679 1.400 . S
C683 C682 1.385 . S
C684 C682 1.478 . S
C684 C686 1.381 . S
C684 C690 1.383 . S
C685 C681 1.495 . S
C685 H691 0.959 . S
C685 H692 0.961 . S
C685 H693 0.960 . S
C686 C684 1.381 . S
C686 C687 1.394 . S
C686 H694 0.930 . S
C687 C686 1.394 . S
C687 C688 1.383 . S
C687 H695 0.929 . S
C688 C687 1.383 . S
C688 C689 1.377 . S
C689 H673 0.930 . S
C689 C688 1.377 . S
C689 C690 1.379 . S
C690 H674 0.931 . S
C690 C684 1.383 . S
C690 C689 1.379 . S
H691 C685 0.959 . S
H692 C685 0.961 . S
H693 C685 0.960 . S
H694 C686 0.930 . S
H695 C687 0.929 . S
H696 C704 0.929 . S
H697 C706 0.930 . S
H698 C708 0.930 . S
H699 C711 0.929 . S
H700 C714 0.930 . S
H701 C716 0.960 . S
H702 C716 0.960 . S
H703 C716 0.960 . S
C704 H696 0.929 . S
C704 C705 1.377 . S
C704 C706 1.384 . S
C705 C704 1.377 . S
C705 C711 1.390 . S
C706 H697 0.930 . S
C706 C704 1.384 . S
C706 C707 1.372 . S
C707 C706 1.372 . S
C707 C708 1.400 . S
C707 C712 1.490 . S
C708 H698 0.930 . S
C708 C707 1.400 . S
C708 C711 1.386 . S
H709 C725 0.930 . S
H710 C726 0.931 . S
C711 H699 0.929 . S
C711 C705 1.390 . S
C711 C708 1.386 . S
C712 C707 1.490 . S
C712 C714 1.395 . S
C712 C715 1.403 . S
H713 C719 0.930 . S
C714 H700 0.930 . S
C714 C712 1.395 . S
C714 C717 1.403 . S
C715 C712 1.403 . S
C715 C716 1.524 . S
C715 C719 1.400 . S
C716 H701 0.960 . S
C716 H702 0.960 . S
C716 H703 0.960 . S
C716 C715 1.524 . S
C717 C714 1.403 . S
C717 C718 1.392 . S
C717 C721 1.495 . S
C718 C717 1.392 . S
C718 C719 1.385 . S
C718 C720 1.478 . S
C719 H713 0.930 . S
C719 C715 1.400 . S
C719 C718 1.385 . S
C720 C718 1.478 . S
C720 C722 1.381 . S
C720 C726 1.383 . S
C721 C717 1.495 . S
C721 H727 0.959 . S
C721 H728 0.961 . S
C721 H729 0.960 . S
C722 C720 1.381 . S
C722 C723 1.394 . S
C722 H730 0.930 . S
C723 C722 1.394 . S
C723 C724 1.383 . S
C723 H731 0.929 . S
C724 C723 1.383 . S
C724 C725 1.377 . S
C725 H709 0.930 . S
C725 C724 1.377 . S
C725 C726 1.379 . S
C726 H710 0.931 . S
C726 C720 1.383 . S
C726 C725 1.379 . S
H727 C721 0.959 . S
H728 C721 0.961 . S
H729 C721 0.960 . S
H730 C722 0.930 . S
H731 C723 0.929 . S
H732 C740 0.929 . S
H733 C742 0.930 . S
H734 C744 0.930 . S
H735 C747 0.929 . S
H736 C750 0.930 . S
H737 C752 0.960 . S
H738 C752 0.960 . S
H739 C752 0.960 . S
C740 H732 0.929 . S
C740 C741 1.377 . S
C740 C742 1.384 . S
C741 C740 1.377 . S
C741 C747 1.390 . S
C742 H733 0.930 . S
C742 C740 1.384 . S
C742 C743 1.372 . S
C743 C742 1.372 . S
C743 C744 1.400 . S
C743 C748 1.490 . S
C744 H734 0.930 . S
C744 C743 1.400 . S
C744 C747 1.386 . S
H745 C761 0.930 . S
H746 C762 0.931 . S
C747 H735 0.929 . S
C747 C741 1.390 . S
C747 C744 1.386 . S
C748 C743 1.490 . S
C748 C750 1.395 . S
C748 C751 1.403 . S
H749 C755 0.930 . S
C750 H736 0.930 . S
C750 C748 1.395 . S
C750 C753 1.403 . S
C751 C748 1.403 . S
C751 C752 1.524 . S
C751 C755 1.400 . S
C752 H737 0.960 . S
C752 H738 0.960 . S
C752 H739 0.960 . S
C752 C751 1.524 . S
C753 C750 1.403 . S
C753 C754 1.392 . S
C753 C757 1.495 . S
C754 C753 1.392 . S
C754 C755 1.385 . S
C754 C756 1.478 . S
C755 H749 0.930 . S
C755 C751 1.400 . S
C755 C754 1.385 . S
C756 C754 1.478 . S
C756 C758 1.381 . S
C756 C762 1.383 . S
C757 C753 1.495 . S
C757 H763 0.959 . S
C757 H764 0.961 . S
C757 H765 0.960 . S
C758 C756 1.381 . S
C758 C759 1.394 . S
C758 H766 0.930 . S
C759 C758 1.394 . S
C759 C760 1.383 . S
C759 H767 0.929 . S
C760 C759 1.383 . S
C760 C761 1.377 . S
C761 H745 0.930 . S
C761 C760 1.377 . S
C761 C762 1.379 . S
C762 H746 0.931 . S
C762 C756 1.383 . S
C762 C761 1.379 . S
H763 C757 0.959 . S
H764 C757 0.961 . S
H765 C757 0.960 . S
H766 C758 0.930 . S
H767 C759 0.929 . S
H768 C776 0.929 . S
H769 C778 0.930 . S
H770 C780 0.930 . S
H771 C783 0.929 . S
H772 C786 0.930 . S
H773 C788 0.960 . S
H774 C788 0.960 . S
H775 C788 0.960 . S
C776 H768 0.929 . S
C776 C777 1.377 . S
C776 C778 1.384 . S
C777 C776 1.377 . S
C777 C783 1.390 . S
C778 H769 0.930 . S
C778 C776 1.384 . S
C778 C779 1.372 . S
C779 C778 1.372 . S
C779 C780 1.400 . S
C779 C784 1.490 . S
C780 H770 0.930 . S
C780 C779 1.400 . S
C780 C783 1.386 . S
H781 C797 0.930 . S
H782 C798 0.931 . S
C783 H771 0.929 . S
C783 C777 1.390 . S
C783 C780 1.386 . S
C784 C779 1.490 . S
C784 C786 1.395 . S
C784 C787 1.403 . S
H785 C791 0.930 . S
C786 H772 0.930 . S
C786 C784 1.395 . S
C786 C789 1.403 . S
C787 C784 1.403 . S
C787 C788 1.524 . S
C787 C791 1.400 . S
C788 H773 0.960 . S
C788 H774 0.960 . S
C788 H775 0.960 . S
C788 C787 1.524 . S
C789 C786 1.403 . S
C789 C790 1.392 . S
C789 C793 1.495 . S
C790 C789 1.392 . S
C790 C791 1.385 . S
C790 C792 1.478 . S
C791 H785 0.930 . S
C791 C787 1.400 . S
C791 C790 1.385 . S
C792 C790 1.478 . S
C792 C794 1.381 . S
C792 C798 1.383 . S
C793 C789 1.495 . S
C793 H799 0.959 . S
C793 H800 0.961 . S
C793 H801 0.960 . S
C794 C792 1.381 . S
C794 C795 1.394 . S
C794 H802 0.930 . S
C795 C794 1.394 . S
C795 C796 1.383 . S
C795 H803 0.929 . S
C796 C795 1.383 . S
C796 C797 1.377 . S
C797 H781 0.930 . S
C797 C796 1.377 . S
C797 C798 1.379 . S
C798 H782 0.931 . S
C798 C792 1.383 . S
C798 C797 1.379 . S
H799 C793 0.959 . S
H800 C793 0.961 . S
H801 C793 0.960 . S
H802 C794 0.930 . S
H803 C795 0.929 . S
H804 C812 0.929 . S
H805 C814 0.930 . S
H806 C816 0.930 . S
H807 C819 0.929 . S
H808 C822 0.930 . S
H809 C824 0.960 . S
H810 C824 0.960 . S
H811 C824 0.960 . S
C812 H804 0.929 . S
C812 C813 1.377 . S
C812 C814 1.384 . S
C813 C812 1.377 . S
C813 C819 1.390 . S
C814 H805 0.930 . S
C814 C812 1.384 . S
C814 C815 1.372 . S
C815 C814 1.372 . S
C815 C816 1.400 . S
C815 C820 1.490 . S
C816 H806 0.930 . S
C816 C815 1.400 . S
C816 C819 1.386 . S
H817 C833 0.930 . S
H818 C834 0.931 . S
C819 H807 0.929 . S
C819 C813 1.390 . S
C819 C816 1.386 . S
C820 C815 1.490 . S
C820 C822 1.395 . S
C820 C823 1.403 . S
H821 C827 0.930 . S
C822 H808 0.930 . S
C822 C820 1.395 . S
C822 C825 1.403 . S
C823 C820 1.403 . S
C823 C824 1.524 . S
C823 C827 1.400 . S
C824 H809 0.960 . S
C824 H810 0.960 . S
C824 H811 0.960 . S
C824 C823 1.524 . S
C825 C822 1.403 . S
C825 C826 1.392 . S
C825 C829 1.495 . S
C826 C825 1.392 . S
C826 C827 1.385 . S
C826 C828 1.478 . S
C827 H821 0.930 . S
C827 C823 1.400 . S
C827 C826 1.385 . S
C828 C826 1.478 . S
C828 C830 1.381 . S
C828 C834 1.383 . S
C829 C825 1.495 . S
C829 H835 0.959 . S
C829 H836 0.961 . S
C829 H837 0.960 . S
C830 C828 1.381 . S
C830 C831 1.394 . S
C830 H838 0.930 . S
C831 C830 1.394 . S
C831 C832 1.383 . S
C831 H839 0.929 . S
C832 C831 1.383 . S
C832 C833 1.377 . S
C833 H817 0.930 . S
C833 C832 1.377 . S
C833 C834 1.379 . S
C834 H818 0.931 . S
C834 C828 1.383 . S
C834 C833 1.379 . S
H835 C829 0.959 . S
H836 C829 0.961 . S
H837 C829 0.960 . S
H838 C830 0.930 . S
H839 C831 0.929 . S
H840 C848 0.929 . S
H841 C850 0.930 . S
H842 C852 0.930 . S
H843 C855 0.929 . S
H844 C858 0.930 . S
H845 C860 0.960 . S
H846 C860 0.960 . S
H847 C860 0.960 . S
C848 H840 0.929 . S
C848 C849 1.377 . S
C848 C850 1.384 . S
C849 C848 1.377 . S
C849 C855 1.390 . S
C850 H841 0.930 . S
C850 C848 1.384 . S
C850 C851 1.372 . S
C851 C850 1.372 . S
C851 C852 1.400 . S
C851 C856 1.490 . S
C852 H842 0.930 . S
C852 C851 1.400 . S
C852 C855 1.386 . S
H853 C869 0.930 . S
H854 C870 0.931 . S
C855 H843 0.929 . S
C855 C849 1.390 . S
C855 C852 1.386 . S
C856 C851 1.490 . S
C856 C858 1.395 . S
C856 C859 1.403 . S
H857 C863 0.930 . S
C858 H844 0.930 . S
C858 C856 1.395 . S
C858 C861 1.403 . S
C859 C856 1.403 . S
C859 C860 1.524 . S
C859 C863 1.400 . S
C860 H845 0.960 . S
C860 H846 0.960 . S
C860 H847 0.960 . S
C860 C859 1.524 . S
C861 C858 1.403 . S
C861 C862 1.392 . S
C861 C865 1.495 . S
C862 C861 1.392 . S
C862 C863 1.385 . S
C862 C864 1.478 . S
C863 H857 0.930 . S
C863 C859 1.400 . S
C863 C862 1.385 . S
C864 C862 1.478 . S
C864 C866 1.381 . S
C864 C870 1.383 . S
C865 C861 1.495 . S
C865 H871 0.959 . S
C865 H872 0.961 . S
C865 H873 0.960 . S
C866 C864 1.381 . S
C866 C867 1.394 . S
C866 H874 0.930 . S
C867 C866 1.394 . S
C867 C868 1.383 . S
C867 H875 0.929 . S
C868 C867 1.383 . S
C868 C869 1.377 . S
C869 H853 0.930 . S
C869 C868 1.377 . S
C869 C870 1.379 . S
C870 H854 0.931 . S
C870 C864 1.383 . S
C870 C869 1.379 . S
H871 C865 0.959 . S
H872 C865 0.961 . S
H873 C865 0.960 . S
H874 C866 0.930 . S
H875 C867 0.929 . S
H876 C884 0.929 . S
H877 C886 0.930 . S
H878 C888 0.930 . S
H879 C891 0.929 . S
H880 C894 0.930 . S
H881 C896 0.960 . S
H882 C896 0.960 . S
H883 C896 0.960 . S
C884 H876 0.929 . S
C884 C885 1.377 . S
C884 C886 1.384 . S
C885 C884 1.377 . S
C885 C891 1.390 . S
C886 H877 0.930 . S
C886 C884 1.384 . S
C886 C887 1.372 . S
C887 C886 1.372 . S
C887 C888 1.400 . S
C887 C892 1.490 . S
C888 H878 0.930 . S
C888 C887 1.400 . S
C888 C891 1.386 . S
H889 C905 0.930 . S
H890 C906 0.931 . S
C891 H879 0.929 . S
C891 C885 1.390 . S
C891 C888 1.386 . S
C892 C887 1.490 . S
C892 C894 1.395 . S
C892 C895 1.403 . S
H893 C899 0.930 . S
C894 H880 0.930 . S
C894 C892 1.395 . S
C894 C897 1.403 . S
C895 C892 1.403 . S
C895 C896 1.524 . S
C895 C899 1.400 . S
C896 H881 0.960 . S
C896 H882 0.960 . S
C896 H883 0.960 . S
C896 C895 1.524 . S
C897 C894 1.403 . S
C897 C898 1.392 . S
C897 C901 1.495 . S
C898 C897 1.392 . S
C898 C899 1.385 . S
C898 C900 1.478 . S
C899 H893 0.930 . S
C899 C895 1.400 . S
C899 C898 1.385 . S
C900 C898 1.478 . S
C900 C902 1.381 . S
C900 C906 1.383 . S
C901 C897 1.495 . S
C901 H907 0.959 . S
C901 H908 0.961 . S
C901 H909 0.960 . S
C902 C900 1.381 . S
C902 C903 1.394 . S
C902 H910 0.930 . S
C903 C902 1.394 . S
C903 C904 1.383 . S
C903 H911 0.929 . S
C904 C903 1.383 . S
C904 C905 1.377 . S
C905 H889 0.930 . S
C905 C904 1.377 . S
C905 C906 1.379 . S
C906 H890 0.931 . S
C906 C900 1.383 . S
C906 C905 1.379 . S
H907 C901 0.959 . S
H908 C901 0.961 . S
H909 C901 0.960 . S
H910 C902 0.930 . S
H911 C903 0.929 . S
H912 C920 0.929 . S
H913 C922 0.930 . S
H914 C924 0.930 . S
H915 C927 0.929 . S
H916 C930 0.930 . S
H917 C932 0.960 . S
H918 C932 0.960 . S
H919 C932 0.960 . S
C920 H912 0.929 . S
C920 C921 1.377 . S
C920 C922 1.384 . S
C921 C920 1.377 . S
C921 C927 1.390 . S
C922 H913 0.930 . S
C922 C920 1.384 . S
C922 C923 1.372 . S
C923 C922 1.372 . S
C923 C924 1.400 . S
C923 C928 1.490 . S
C924 H914 0.930 . S
C924 C923 1.400 . S
C924 C927 1.386 . S
H925 C941 0.930 . S
H926 C942 0.931 . S
C927 H915 0.929 . S
C927 C921 1.390 . S
C927 C924 1.386 . S
C928 C923 1.490 . S
C928 C930 1.395 . S
C928 C931 1.403 . S
H929 C935 0.930 . S
C930 H916 0.930 . S
C930 C928 1.395 . S
C930 C933 1.403 . S
C931 C928 1.403 . S
C931 C932 1.524 . S
C931 C935 1.400 . S
C932 H917 0.960 . S
C932 H918 0.960 . S
C932 H919 0.960 . S
C932 C931 1.524 . S
C933 C930 1.403 . S
C933 C934 1.392 . S
C933 C937 1.495 . S
C934 C933 1.392 . S
C934 C935 1.385 . S
C934 C936 1.478 . S
C935 H929 0.930 . S
C935 C931 1.400 . S
C935 C934 1.385 . S
C936 C934 1.478 . S
C936 C938 1.381 . S
C936 C942 1.383 . S
C937 C933 1.495 . S
C937 H943 0.959 . S
C937 H944 0.961 . S
C937 H945 0.960 . S
C938 C936 1.381 . S
C938 C939 1.394 . S
C938 H946 0.930 . S
C939 C938 1.394 . S
C939 C940 1.383 . S
C939 H947 0.929 . S
C940 C939 1.383 . S
C940 C941 1.377 . S
C941 H925 0.930 . S
C941 C940 1.377 . S
C941 C942 1.379 . S
C942 H926 0.931 . S
C942 C936 1.383 . S
C942 C941 1.379 . S
H943 C937 0.959 . S
H944 C937 0.961 . S
H945 C937 0.960 . S
H946 C938 0.930 . S
H947 C939 0.929 . S
H948 C956 0.929 . S
H949 C958 0.930 . S
H950 C960 0.930 . S
H951 C963 0.929 . S
H952 C966 0.930 . S
H953 C968 0.960 . S
H954 C968 0.960 . S
H955 C968 0.960 . S
C956 H948 0.929 . S
C956 C957 1.377 . S
C956 C958 1.384 . S
C957 C956 1.377 . S
C957 C963 1.390 . S
C958 H949 0.930 . S
C958 C956 1.384 . S
C958 C959 1.372 . S
C959 C958 1.372 . S
C959 C960 1.400 . S
C959 C964 1.490 . S
C960 H950 0.930 . S
C960 C959 1.400 . S
C960 C963 1.386 . S
H961 C977 0.930 . S
H962 C978 0.931 . S
C963 H951 0.929 . S
C963 C957 1.390 . S
C963 C960 1.386 . S
C964 C959 1.490 . S
C964 C966 1.395 . S
C964 C967 1.403 . S
H965 C971 0.930 . S
C966 H952 0.930 . S
C966 C964 1.395 . S
C966 C969 1.403 . S
C967 C964 1.403 . S
C967 C968 1.524 . S
C967 C971 1.400 . S
C968 H953 0.960 . S
C968 H954 0.960 . S
C968 H955 0.960 . S
C968 C967 1.524 . S
C969 C966 1.403 . S
C969 C970 1.392 . S
C969 C973 1.495 . S
C970 C969 1.392 . S
C970 C971 1.385 . S
C970 C972 1.478 . S
C971 H965 0.930 . S
C971 C967 1.400 . S
C971 C970 1.385 . S
C972 C970 1.478 . S
C972 C974 1.381 . S
C972 C978 1.383 . S
C973 C969 1.495 . S
C973 H979 0.959 . S
C973 H980 0.961 . S
C973 H981 0.960 . S
C974 C972 1.381 . S
C974 C975 1.394 . S
C974 H982 0.930 . S
C975 C974 1.394 . S
C975 C976 1.383 . S
C975 H983 0.929 . S
C976 C975 1.383 . S
C976 C977 1.377 . S
C977 H961 0.930 . S
C977 C976 1.377 . S
C977 C978 1.379 . S
C978 H962 0.931 . S
C978 C972 1.383 . S
C978 C977 1.379 . S
H979 C973 0.959 . S
H980 C973 0.961 . S
H981 C973 0.960 . S
H982 C974 0.930 . S
H983 C975 0.929 . S
C273 N134 0.479 . S
C292 N2 0.428 . S
C309 N35 0.481 . S
C328 N167 0.372 . S
C345 N68 0.452 . S
C364 N200 0.455 . S
C381 N101 0.447 . S
C400 N233 0.560 . S
C417 C21 0.801 . S
C436 C219 0.778 . S
C453 C54 0.810 . S
C472 C252 0.825 . S
C489 C153 0.804 . S
C508 C87 0.823 . S
C525 C186 0.802 . S
C544 C120 0.815 . S
C561 C249 0.422 . S
C580 C18 0.375 . S
C597 C51 0.439 . S
C616 C150 0.499 . S
C633 C183 0.424 . S
C652 C84 0.430 . S
C669 C216 0.420 . S
C688 C117 0.399 . S
C705 C7 1.894 . S
C724 N46 1.951 . S
C741 C40 1.891 . S
C760 N79 1.959 . S
C777 N112 1.960 . S
C796 C73 1.870 . S
C813 N13 1.960 . S
C832 C106 1.871 . S
C849 C139 1.895 . S
C868 N244 1.962 . S
C885 N145 1.960 . S
C904 C172 1.889 . S
C921 C205 1.900 . S
C940 N178 1.951 . S
C957 C238 1.895 . S
C976 N211 1.962 . S
