# Generated by pormake.
# Topology uma, (4)-cn, num edge types: 1
# Building blocks:
#     Node 0, Type 0, BuildingBlock: MUDLON_clean_sbu_0, # of connection points: 4
#     Node 1, Type 0, BuildingBlock: MUDLON_clean_sbu_0, # of connection points: 4
#     Node 2, Type 0, BuildingBlock: MUDLON_clean_sbu_0, # of connection points: 4
#     Node 3, Type 0, BuildingBlock: MUDLON_clean_sbu_0, # of connection points: 4
#     Node 4, Type 0, BuildingBlock: MUDLON_clean_sbu_0, # of connection points: 4
#     Node 5, Type 0, BuildingBlock: MUDLON_clean_sbu_0, # of connection points: 4
#     Node 6, Type 0, BuildingBlock: MUDLON_clean_sbu_0, # of connection points: 4
#     Node 7, Type 0, BuildingBlock: MUDLON_clean_sbu_0, # of connection points: 4
#     Node 8, Type 0, BuildingBlock: MUDLON_clean_sbu_0, # of connection points: 4
#     Node 9, Type 0, BuildingBlock: MUDLON_clean_sbu_0, # of connection points: 4
#     Node 10, Type 0, BuildingBlock: MUDLON_clean_sbu_0, # of connection points: 4
#     Node 11, Type 0, BuildingBlock: MUDLON_clean_sbu_0, # of connection points: 4
#     Node 12, Type 0, BuildingBlock: MUDLON_clean_sbu_0, # of connection points: 4
#     Node 13, Type 0, BuildingBlock: MUDLON_clean_sbu_0, # of connection points: 4
#     Node 14, Type 0, BuildingBlock: MUDLON_clean_sbu_0, # of connection points: 4
#     Node 15, Type 0, BuildingBlock: MUDLON_clean_sbu_0, # of connection points: 4
#     Node 16, Type 0, BuildingBlock: MUDLON_clean_sbu_0, # of connection points: 4
#     Node 17, Type 0, BuildingBlock: MUDLON_clean_sbu_0, # of connection points: 4
#     Node 18, Type 0, BuildingBlock: MUDLON_clean_sbu_0, # of connection points: 4
#     Node 19, Type 0, BuildingBlock: MUDLON_clean_sbu_0, # of connection points: 4
#     Node 20, Type 0, BuildingBlock: MUDLON_clean_sbu_0, # of connection points: 4
#     Node 21, Type 0, BuildingBlock: MUDLON_clean_sbu_0, # of connection points: 4
#     Node 22, Type 0, BuildingBlock: MUDLON_clean_sbu_0, # of connection points: 4
#     Node 23, Type 0, BuildingBlock: MUDLON_clean_sbu_0, # of connection points: 4
#     Node 24, Type 0, BuildingBlock: MUDLON_clean_sbu_0, # of connection points: 4
#     Node 25, Type 0, BuildingBlock: MUDLON_clean_sbu_0, # of connection points: 4
#     Node 26, Type 0, BuildingBlock: MUDLON_clean_sbu_0, # of connection points: 4
#     Node 27, Type 0, BuildingBlock: MUDLON_clean_sbu_0, # of connection points: 4
#     Node 28, Type 0, BuildingBlock: MUDLON_clean_sbu_0, # of connection points: 4
#     Node 29, Type 0, BuildingBlock: MUDLON_clean_sbu_0, # of connection points: 4
#     Node 30, Type 0, BuildingBlock: MUDLON_clean_sbu_0, # of connection points: 4
#     Node 31, Type 0, BuildingBlock: MUDLON_clean_sbu_0, # of connection points: 4
#     Node 32, Type 0, BuildingBlock: MUDLON_clean_sbu_0, # of connection points: 4
#     Node 33, Type 0, BuildingBlock: MUDLON_clean_sbu_0, # of connection points: 4
#     Node 34, Type 0, BuildingBlock: MUDLON_clean_sbu_0, # of connection points: 4
#     Node 35, Type 0, BuildingBlock: MUDLON_clean_sbu_0, # of connection points: 4
#     Edge 36, Type (0, 0), BuildingBlock: AJUNOK_clean_linker_0, # of connection points: 2
#     Edge 37, Type (0, 0), BuildingBlock: AJUNOK_clean_linker_0, # of connection points: 2
#     Edge 38, Type (0, 0), BuildingBlock: AJUNOK_clean_linker_0, # of connection points: 2
#     Edge 39, Type (0, 0), BuildingBlock: AJUNOK_clean_linker_0, # of connection points: 2
#     Edge 40, Type (0, 0), BuildingBlock: AJUNOK_clean_linker_0, # of connection points: 2
#     Edge 41, Type (0, 0), BuildingBlock: AJUNOK_clean_linker_0, # of connection points: 2
#     Edge 42, Type (0, 0), BuildingBlock: AJUNOK_clean_linker_0, # of connection points: 2
#     Edge 43, Type (0, 0), BuildingBlock: AJUNOK_clean_linker_0, # of connection points: 2
#     Edge 44, Type (0, 0), BuildingBlock: AJUNOK_clean_linker_0, # of connection points: 2
#     Edge 45, Type (0, 0), BuildingBlock: AJUNOK_clean_linker_0, # of connection points: 2
#     Edge 46, Type (0, 0), BuildingBlock: AJUNOK_clean_linker_0, # of connection points: 2
#     Edge 47, Type (0, 0), BuildingBlock: AJUNOK_clean_linker_0, # of connection points: 2
#     Edge 48, Type (0, 0), BuildingBlock: AJUNOK_clean_linker_0, # of connection points: 2
#     Edge 49, Type (0, 0), BuildingBlock: AJUNOK_clean_linker_0, # of connection points: 2
#     Edge 50, Type (0, 0), BuildingBlock: AJUNOK_clean_linker_0, # of connection points: 2
#     Edge 51, Type (0, 0), BuildingBlock: AJUNOK_clean_linker_0, # of connection points: 2
#     Edge 52, Type (0, 0), BuildingBlock: AJUNOK_clean_linker_0, # of connection points: 2
#     Edge 53, Type (0, 0), BuildingBlock: AJUNOK_clean_linker_0, # of connection points: 2
#     Edge 54, Type (0, 0), BuildingBlock: AJUNOK_clean_linker_0, # of connection points: 2
#     Edge 55, Type (0, 0), BuildingBlock: AJUNOK_clean_linker_0, # of connection points: 2
#     Edge 56, Type (0, 0), BuildingBlock: AJUNOK_clean_linker_0, # of connection points: 2
#     Edge 57, Type (0, 0), BuildingBlock: AJUNOK_clean_linker_0, # of connection points: 2
#     Edge 58, Type (0, 0), BuildingBlock: AJUNOK_clean_linker_0, # of connection points: 2
#     Edge 59, Type (0, 0), BuildingBlock: AJUNOK_clean_linker_0, # of connection points: 2
#     Edge 60, Type (0, 0), BuildingBlock: AJUNOK_clean_linker_0, # of connection points: 2
#     Edge 61, Type (0, 0), BuildingBlock: AJUNOK_clean_linker_0, # of connection points: 2
#     Edge 62, Type (0, 0), BuildingBlock: AJUNOK_clean_linker_0, # of connection points: 2
#     Edge 63, Type (0, 0), BuildingBlock: AJUNOK_clean_linker_0, # of connection points: 2
#     Edge 64, Type (0, 0), BuildingBlock: AJUNOK_clean_linker_0, # of connection points: 2
#     Edge 65, Type (0, 0), BuildingBlock: AJUNOK_clean_linker_0, # of connection points: 2
#     Edge 66, Type (0, 0), BuildingBlock: AJUNOK_clean_linker_0, # of connection points: 2
#     Edge 67, Type (0, 0), BuildingBlock: AJUNOK_clean_linker_0, # of connection points: 2
#     Edge 68, Type (0, 0), BuildingBlock: AJUNOK_clean_linker_0, # of connection points: 2
#     Edge 69, Type (0, 0), BuildingBlock: AJUNOK_clean_linker_0, # of connection points: 2
#     Edge 70, Type (0, 0), BuildingBlock: AJUNOK_clean_linker_0, # of connection points: 2
#     Edge 71, Type (0, 0), BuildingBlock: AJUNOK_clean_linker_0, # of connection points: 2
#     Edge 72, Type (0, 0), BuildingBlock: AJUNOK_clean_linker_0, # of connection points: 2
#     Edge 73, Type (0, 0), BuildingBlock: AJUNOK_clean_linker_0, # of connection points: 2
#     Edge 74, Type (0, 0), BuildingBlock: AJUNOK_clean_linker_0, # of connection points: 2
#     Edge 75, Type (0, 0), BuildingBlock: AJUNOK_clean_linker_0, # of connection points: 2
#     Edge 76, Type (0, 0), BuildingBlock: AJUNOK_clean_linker_0, # of connection points: 2
#     Edge 77, Type (0, 0), BuildingBlock: AJUNOK_clean_linker_0, # of connection points: 2
#     Edge 78, Type (0, 0), BuildingBlock: AJUNOK_clean_linker_0, # of connection points: 2
#     Edge 79, Type (0, 0), BuildingBlock: AJUNOK_clean_linker_0, # of connection points: 2
#     Edge 80, Type (0, 0), BuildingBlock: AJUNOK_clean_linker_0, # of connection points: 2
#     Edge 81, Type (0, 0), BuildingBlock: AJUNOK_clean_linker_0, # of connection points: 2
#     Edge 82, Type (0, 0), BuildingBlock: AJUNOK_clean_linker_0, # of connection points: 2
#     Edge 83, Type (0, 0), BuildingBlock: AJUNOK_clean_linker_0, # of connection points: 2
#     Edge 84, Type (0, 0), BuildingBlock: AJUNOK_clean_linker_0, # of connection points: 2
#     Edge 85, Type (0, 0), BuildingBlock: AJUNOK_clean_linker_0, # of connection points: 2
#     Edge 86, Type (0, 0), BuildingBlock: AJUNOK_clean_linker_0, # of connection points: 2
#     Edge 87, Type (0, 0), BuildingBlock: AJUNOK_clean_linker_0, # of connection points: 2
#     Edge 88, Type (0, 0), BuildingBlock: AJUNOK_clean_linker_0, # of connection points: 2
#     Edge 89, Type (0, 0), BuildingBlock: AJUNOK_clean_linker_0, # of connection points: 2
#     Edge 90, Type (0, 0), BuildingBlock: AJUNOK_clean_linker_0, # of connection points: 2
#     Edge 91, Type (0, 0), BuildingBlock: AJUNOK_clean_linker_0, # of connection points: 2
#     Edge 92, Type (0, 0), BuildingBlock: AJUNOK_clean_linker_0, # of connection points: 2
#     Edge 93, Type (0, 0), BuildingBlock: AJUNOK_clean_linker_0, # of connection points: 2
#     Edge 94, Type (0, 0), BuildingBlock: AJUNOK_clean_linker_0, # of connection points: 2
#     Edge 95, Type (0, 0), BuildingBlock: AJUNOK_clean_linker_0, # of connection points: 2
#     Edge 96, Type (0, 0), BuildingBlock: AJUNOK_clean_linker_0, # of connection points: 2
#     Edge 97, Type (0, 0), BuildingBlock: AJUNOK_clean_linker_0, # of connection points: 2
#     Edge 98, Type (0, 0), BuildingBlock: AJUNOK_clean_linker_0, # of connection points: 2
#     Edge 99, Type (0, 0), BuildingBlock: AJUNOK_clean_linker_0, # of connection points: 2
#     Edge 100, Type (0, 0), BuildingBlock: AJUNOK_clean_linker_0, # of connection points: 2
#     Edge 101, Type (0, 0), BuildingBlock: AJUNOK_clean_linker_0, # of connection points: 2
#     Edge 102, Type (0, 0), BuildingBlock: AJUNOK_clean_linker_0, # of connection points: 2
#     Edge 103, Type (0, 0), BuildingBlock: AJUNOK_clean_linker_0, # of connection points: 2
#     Edge 104, Type (0, 0), BuildingBlock: AJUNOK_clean_linker_0, # of connection points: 2
#     Edge 105, Type (0, 0), BuildingBlock: AJUNOK_clean_linker_0, # of connection points: 2
#     Edge 106, Type (0, 0), BuildingBlock: AJUNOK_clean_linker_0, # of connection points: 2
#     Edge 107, Type (0, 0), BuildingBlock: AJUNOK_clean_linker_0, # of connection points: 2
# Relax obj value: 0.095
# Max RMSD: 0.080
# Mean RMSD: 0.076
data_MOF--net-uma--node1-MUDLON_clean_sbu_0--edge1-AJUNOK_clean_linker_0
_symmetry_space_group_name_H-M    P1
_symmetry_Int_Tables_number       1
_symmetry_cell_setting            triclinic
loop_
_symmetry_equiv_pos_as_xyz
'x, y, z'
_cell_length_a     59.624287
_cell_length_b     59.73456
_cell_length_c     30.288884
_cell_angle_alpha  90.065715
_cell_angle_beta   89.978915
_cell_angle_gamma 119.99014
loop_
_atom_site_label
_atom_site_type_symbol
_atom_site_fract_x
_atom_site_fract_y
_atom_site_fract_z
_atom_type_partial_charge
Mg0 Mg 0.13202 0.39764 0.0332 0.0
C1 C 0.13294 0.39157 0.9328 0.0
O2 O 0.14786 0.38238 0.94533 0.0
C3 C 0.13001 0.44022 0.09745 0.0
O4 O 0.12367 0.44969 0.06367 0.0
C5 C 0.18283 0.40226 0.06001 0.0
O6 O 0.18474 0.42397 0.07401 0.0
O7 O 0.16191 0.38603 0.04069 0.0
O8 O 0.12592 0.40243 0.96185 0.0
O9 O 0.09235 0.36847 0.0475 0.0
C10 C 0.07717 0.37741 0.04082 0.0
O11 O 0.08705 0.40109 0.02573 0.0
O12 O 0.13569 0.42252 0.09085 0.0
Mg13 Mg 0.65474 0.74757 0.02143 0.0
C14 C 0.67279 0.71254 1.0107 0.0
O15 O 0.68269 0.72622 0.0467 0.0
C16 C 0.62164 0.77232 0.03594 0.0
O17 O 0.62998 0.77241 0.07612 0.0
C18 C 0.65798 0.738 0.12698 0.0
O19 O 0.67797 0.76136 0.13164 0.0
O20 O 0.64692 0.7309 0.08951 0.0
O21 O 0.65561 0.71507 0.98975 0.0
O22 O 0.68868 0.7767 0.98321 0.0
C23 C 0.70965 0.77662 0.9749 0.0
O24 O 0.7186 0.76697 1.00426 0.0
O25 O 0.62682 0.76065 1.00571 0.0
Mg26 Mg 0.30783 0.90157 1.00686 0.0
C27 C 0.29799 0.90687 0.91113 0.0
O28 O 0.31274 0.89641 0.90744 0.0
C29 C 0.33293 0.92192 0.08869 0.0
O30 O 0.33237 0.89989 0.08211 0.0
C31 C 0.26229 0.84543 1.00335 0.0
O32 O 0.26767 0.84857 0.96098 0.0
O33 O 0.27672 0.86362 0.02979 0.0
O34 O 0.29272 0.91168 0.94952 0.0
O35 O 0.34516 0.90499 0.98876 0.0
C36 C 0.36743 0.92554 0.99134 0.0
O37 O 0.38814 0.92389 0.98265 0.0
O38 O 0.32001 0.9279 0.06271 0.0
Mg39 Mg 0.39048 0.07772 0.02279 0.0
C40 C 0.37122 0.08822 0.10359 0.0
O41 O 0.39652 0.10262 0.10614 0.0
C42 C 0.39306 0.05827 0.93614 0.0
O43 O 0.41133 0.05779 0.95955 0.0
C44 C 0.41767 0.13263 0.98875 0.0
O45 O 0.40683 0.11964 0.9525 0.0
O46 O 0.41743 0.12004 0.02294 0.0
O47 O 0.36133 0.07448 0.06917 0.0
O48 O 0.39728 0.04598 0.04198 0.0
C49 C 0.37596 0.02492 0.03585 0.0
O50 O 0.35507 0.02654 0.02872 0.0
O51 O 0.37927 0.06657 0.95415 0.0
Mg52 Mg 0.92047 0.27042 1.00204 0.0
C53 C 0.96906 0.30766 0.02792 0.0
O54 O 0.96951 0.28937 1.00463 0.0
C55 C 0.86596 0.23751 0.96917 0.0
O56 O 0.88015 0.23576 0.93765 0.0
C57 C 0.93972 0.30519 0.92426 0.0
O58 O 0.9295 0.31479 0.9514 0.0
O59 O 0.93749 0.28331 0.93442 0.0
O60 O 0.94752 0.30704 0.03335 0.0
O61 O 0.92682 0.24892 0.05603 0.0
C62 C 0.94323 0.24205 0.06668 0.0
O63 O 0.9599 0.24319 0.03714 0.0
O64 O 0.87766 0.25284 1.00127 0.0
Mg65 Mg 0.7445 0.62145 1.02 0.0
C66 C 0.73698 0.63845 0.11374 0.0
O67 O 0.731 0.65305 0.08987 0.0
C68 C 0.72459 0.59539 0.93349 0.0
O69 O 0.74767 0.61508 0.92505 0.0
C70 C 0.80164 0.64201 0.98609 0.0
O71 O 0.79856 0.65906 0.96355 0.0
O72 O 0.78309 0.62577 1.01007 0.0
O73 O 0.74087 0.62171 0.09388 0.0
O74 O 0.73792 0.65236 0.9975 0.0
C75 C 0.71433 0.64494 0.98807 0.0
O76 O 0.69716 0.62027 0.99127 0.0
O77 O 0.71758 0.59058 0.97397 0.0
Mg78 Mg 0.93987 0.62738 1.01971 0.0
C79 C 0.95522 0.58692 0.04469 0.0
O80 O 0.9513 0.56384 0.05446 0.0
C81 C 0.9 0.64174 0.98795 0.0
O82 O 0.92111 0.66112 0.9712 0.0
C83 C 0.95631 0.61743 0.93494 0.0
O84 O 0.93575 0.5955 0.94592 0.0
O85 O 0.96281 0.63709 0.95932 0.0
O86 O 0.93587 0.59021 0.03887 0.0
O87 O 0.95864 0.65505 0.07304 0.0
C88 C 0.94796 0.64885 0.11086 0.0
O89 O 0.92696 0.62618 0.11546 0.0
O90 O 0.90189 0.62428 1.00895 0.0
Mg91 Mg 0.40069 0.26713 1.01761 0.0
C92 C 0.35458 0.25633 0.07853 0.0
O93 O 0.35387 0.27477 0.0561 0.0
C94 C 0.38755 0.29047 0.93802 0.0
O95 O 0.37922 0.29971 0.96925 0.0
C96 C 0.4199 0.23096 0.98674 0.0
O97 O 0.41207 0.23548 0.94897 0.0
O98 O 0.41959 0.24339 0.02076 0.0
O99 O 0.36897 0.24769 0.06479 0.0
O100 O 0.42151 0.30689 0.04215 0.0
C101 C 0.41364 0.31287 0.07694 0.0
O102 O 0.40651 0.29691 0.11058 0.0
O103 O 0.39412 0.27382 0.94832 0.0
Mg104 Mg 0.7168 0.10141 1.01435 0.0
C105 C 0.73499 0.1091 0.1053 0.0
O106 O 0.73046 0.12805 0.09692 0.0
C107 C 0.69577 0.0593 0.94375 0.0
O108 O 0.68384 0.04425 0.97749 0.0
C109 C 0.76135 0.14946 0.97476 0.0
O110 O 0.75947 0.13103 0.94866 0.0
O111 O 0.74427 0.14348 1.00487 0.0
O112 O 0.73181 0.0933 0.07424 0.0
O113 O 0.67475 0.08286 0.02644 0.0
C114 C 0.6656 0.07216 0.06358 0.0
O115 O 0.67738 0.0851 0.0994 0.0
O116 O 0.71409 0.08227 0.95123 0.0
Mg117 Mg 0.62287 0.91209 0.04264 0.0
C118 C 0.6626 0.94311 0.9702 0.0
O119 O 0.65341 0.9587 0.97706 0.0
C120 C 0.60066 0.90023 0.13079 0.0
O121 O 0.5815 0.89105 0.10224 0.0
C122 C 0.60594 0.8591 1.00072 0.0
O123 O 0.62065 0.87353 0.96832 0.0
O124 O 0.59952 0.86984 0.03081 0.0
O125 O 0.65561 0.92376 0.99587 0.0
O126 O 0.61399 0.94405 0.03814 0.0
C127 C 0.63044 0.96249 0.06253 0.0
O128 O 0.64756 0.95882 0.08372 0.0
O129 O 0.62372 0.91036 0.11556 0.0
Mg130 Mg 0.10252 0.72736 0.0438 0.0
C131 C 0.09828 0.73856 0.95237 0.0
O132 O 0.10921 0.72415 0.9527 0.0
C133 C 0.09397 0.71401 0.1368 0.0
O134 O 0.10786 0.70427 0.12124 0.0
C135 C 0.15889 0.76588 0.05809 0.0
O136 O 0.1477 0.77402 0.08616 0.0
O137 O 0.14474 0.74474 0.03756 0.0
O138 O 0.09239 0.74449 0.98936 0.0
O139 O 0.07639 0.68609 0.03234 0.0
C140 C 0.05357 0.68127 0.04197 0.0
O141 O 0.05006 0.7005 0.05348 0.0
O142 O 0.09053 0.72916 0.1117 0.0
Mg143 Mg 0.31991 0.385 0.03787 0.0
C144 C 0.35473 0.36406 0.03821 0.0
O145 O 0.36358 0.38199 1.00756 0.0
C146 C 0.27753 0.39574 0.06212 0.0
O147 O 0.29881 0.4182 0.06663 0.0
C148 C 0.37009 0.42888 0.08337 0.0
O149 O 0.38257 0.43067 0.04665 0.0
O150 O 0.34551 0.41497 0.0846 0.0
O151 O 0.33314 0.35801 0.05653 0.0
O152 O 0.32509 0.38771 0.96569 0.0
C153 C 0.30651 0.38379 0.94002 0.0
O154 O 0.28591 0.38306 0.95708 0.0
O155 O 0.2797 0.37626 0.05121 0.0
Mg156 Mg 0.78521 0.71904 0.36815 0.0
C157 C 0.7718 0.67844 0.29306 0.0
O158 O 0.79366 0.68048 0.30668 0.0
C159 C 0.7801 0.73457 0.46137 0.0
O160 O 0.80327 0.75295 0.4496 0.0
C161 C 0.84449 0.74447 0.36737 0.0
O162 O 0.8418 0.7646 0.35942 0.0
O163 O 0.82407 0.72267 0.37342 0.0
O164 O 0.76287 0.69094 0.31404 0.0
O165 O 0.78983 0.75584 0.34571 0.0
C166 C 0.77136 0.76031 0.33856 0.0
O167 O 0.77669 0.78303 0.32341 0.0
O168 O 0.76759 0.71579 0.43444 0.0
Mg169 Mg 0.27482 0.05113 0.33687 0.0
C170 C 0.23992 0.99211 0.3245 0.0
O171 O 0.21761 0.97055 0.32161 0.0
C172 C 0.26363 0.09686 0.32197 0.0
O173 O 0.26053 0.08926 0.2806 0.0
C174 C 0.2677 0.03121 0.42369 0.0
O175 O 0.24743 0.03309 0.41233 0.0
O176 O 0.28682 0.04021 0.39722 0.0
O177 O 0.24025 0.01372 0.32359 0.0
O178 O 0.29964 0.05958 0.2799 0.0
C179 C 0.31502 0.08171 0.26403 0.0
O180 O 0.31896 0.10256 0.28528 0.0
O181 O 0.26851 0.0842 0.35068 0.0
Mg182 Mg 0.95724 0.25471 0.35563 0.0
C183 C 0.96731 0.24109 0.25467 0.0
O184 O 0.98414 0.23432 0.26745 0.0
C185 C 1.0008 0.28155 0.42439 0.0
O186 O 0.99717 0.30073 0.41331 0.0
C187 C 0.91447 0.19892 0.36053 0.0
O188 O 0.93088 0.19711 0.33389 0.0
O189 O 0.92064 0.22106 0.37645 0.0
O190 O 0.95719 0.2491 0.28317 0.0
O191 O 0.9562 0.29068 0.36218 0.0
C192 C 0.96462 0.3068 0.33045 0.0
O193 O 0.9701 0.29964 0.29286 0.0
O194 O 0.98843 0.26022 0.40302 0.0
Mg195 Mg 0.06934 0.4679 0.3418 0.0
C196 C 0.07329 0.44955 0.43672 0.0
O197 O 0.06815 0.42811 0.41619 0.0
C198 C 0.09726 0.45162 0.2745 0.0
O199 O 0.08335 0.42949 0.29502 0.0
C200 C 0.07721 0.52222 0.33378 0.0
O201 O 0.10104 0.52793 0.34282 0.0
O202 O 0.05979 0.49848 0.33065 0.0
O203 O 0.07744 0.46914 0.41362 0.0
O204 O 0.03574 0.42994 0.32995 0.0
C205 C 1.0179 0.41753 0.35807 0.0
O206 O 1.018 0.42887 0.39531 0.0
O207 O 0.0972 0.47158 0.28954 0.0
Mg208 Mg 0.61441 0.63601 0.35616 0.0
C209 C 0.66667 0.67506 0.35529 0.0
O210 O 0.66355 0.65488 0.33279 0.0
C211 C 0.55645 0.60544 0.34337 0.0
O212 O 0.5649 0.60584 0.30316 0.0
C213 C 0.62018 0.6684 0.28009 0.0
O214 O 0.61426 0.6778 0.31456 0.0
O215 O 0.61962 0.64679 0.28472 0.0
O216 O 0.64721 0.67356 0.37567 0.0
O217 O 0.62341 0.60949 0.394 0.0
C218 C 0.63243 0.61773 0.43274 0.0
O219 O 0.63771 0.64111 0.44386 0.0
O220 O 0.57294 0.61919 0.37294 0.0
Mg221 Mg 0.38047 0.9812 0.32601 0.0
C222 C 0.3889 1.00299 0.41302 0.0
O223 O 0.36734 0.98059 0.41521 0.0
C224 C 0.39676 0.98629 0.232 0.0
O225 O 0.4143 0.98177 0.24929 0.0
C226 C 0.41175 0.95676 0.3636 0.0
O227 O 0.4106 0.9683 0.3997 0.0
O228 O 0.39888 0.9566 0.32977 0.0
O229 O 0.39999 1.01049 0.37574 0.0
O230 O 0.33923 0.96963 0.3359 0.0
C231 C 0.33596 0.98843 0.32454 0.0
O232 O 0.35618 1.00976 0.31039 0.0
O233 O 0.38456 0.99324 0.25767 0.0
Mg234 Mg 0.55019 0.9413 0.35937 0.0
C235 C 0.60733 0.97571 0.37192 0.0
O236 O 0.60044 0.96416 0.4103 0.0
C237 C 0.49649 0.93374 0.36478 0.0
O238 O 0.49591 0.91624 0.39173 0.0
C239 C 0.57266 0.91267 0.31054 0.0
O240 O 0.58981 0.923 0.3423 0.0
O241 O 0.55141 0.9129 0.31415 0.0
O242 O 0.58961 0.97307 0.34524 0.0
O243 O 0.54775 0.93777 0.4319 0.0
C244 C 0.55566 0.928 0.46114 0.0
O245 O 0.56641 0.91443 0.44877 0.0
O246 O 0.51733 0.94763 0.34302 0.0
Mg247 Mg 0.0568 0.65665 0.34666 0.0
C248 C 0.06027 0.64356 0.44143 0.0
O249 O 0.0777 0.63904 0.42364 0.0
C250 C 0.01854 0.65549 0.27332 0.0
O251 O 0.99489 0.64871 0.26077 0.0
C252 C 0.05309 0.60595 0.33062 0.0
O253 O 0.02902 0.60044 0.33636 0.0
O254 O 0.07082 0.62966 0.33158 0.0
O255 O 0.04813 0.65129 0.41699 0.0
O256 O 0.07844 0.69804 0.33479 0.0
C257 C 0.07992 0.71321 0.36573 0.0
O258 O 0.07762 0.70532 0.40677 0.0
O259 O 0.02147 0.64639 0.30971 0.0
Mg260 Mg 0.41622 0.45681 0.35317 0.0
C261 C 0.41957 0.44292 0.44498 0.0
O262 O 0.40512 0.4538 0.44592 0.0
C263 C 0.42082 0.46165 0.25423 0.0
O264 O 0.42757 0.4854 0.26568 0.0
C265 C 0.46016 0.5107 0.38125 0.0
O266 O 0.4632 0.49655 0.41117 0.0
O267 O 0.44061 0.49973 0.35543 0.0
O268 O 0.42885 0.4414 0.40776 0.0
O269 O 0.37423 0.43353 0.36534 0.0
C270 C 0.35891 0.41977 0.33448 0.0
O271 O 0.3642 0.42879 0.29404 0.0
O272 O 0.41756 0.44547 0.28455 0.0
Mg273 Mg 0.30033 0.2555 0.3405 0.0
C274 C 0.32779 0.24429 0.26537 0.0
O275 O 0.31643 0.22092 0.28209 0.0
C276 C 0.29134 0.26684 0.42906 0.0
O277 O 0.27232 0.26471 0.40419 0.0
C278 C 0.27901 0.19964 0.36108 0.0
O279 O 0.29646 0.21196 0.39182 0.0
O280 O 0.27376 0.21306 0.33453 0.0
O281 O 0.32771 0.26259 0.2869 0.0
O282 O 0.29579 0.28967 0.32794 0.0
C283 C 0.31622 0.30938 0.34295 0.0
O284 O 0.33478 0.3059 0.3587 0.0
O285 O 0.30835 0.26254 0.41169 0.0
Mg286 Mg 0.75701 0.07077 0.36869 0.0
C287 C 0.76277 0.09307 0.28237 0.0
O288 O 0.77921 0.08455 0.28522 0.0
C289 C 0.72425 0.05015 0.45266 0.0
O290 O 0.70502 0.03926 0.42448 0.0
C291 C 0.80889 0.11335 0.38659 0.0
O292 O 0.79271 0.11966 0.40444 0.0
O293 O 0.79949 0.09093 0.36934 0.0
O294 O 0.74971 0.09175 0.31674 0.0
O295 O 0.73184 0.03036 0.34939 0.0
C296 C 0.71553 0.02503 0.31822 0.0
O297 O 0.72245 0.04049 0.28399 0.0
O298 O 0.74631 0.06775 0.43875 0.0
Mg299 Mg 0.98868 0.73743 0.35631 0.0
C300 C 0.04285 0.78506 0.33531 0.0
O301 O 0.05861 0.80966 0.32714 0.0
C302 C 0.94692 0.75296 0.35559 0.0
O303 O 0.96471 0.77133 0.33091 0.0
C304 C 1.01786 0.74838 0.44036 0.0
O305 O 1.01715 0.7696 0.4322 0.0
O306 O 1.0057 0.72927 0.41426 0.0
O307 O 0.01846 0.77648 0.33616 0.0
O308 O 0.97999 0.71038 0.3015 0.0
C309 C 0.98217 0.71862 0.26207 0.0
O310 O 0.99008 0.7432 0.25554 0.0
O311 O 0.95172 0.73613 0.37192 0.0
Mg312 Mg 0.4456 0.06187 0.67374 0.0
C313 C 0.43721 0.05306 0.57823 0.0
O314 O 0.44976 0.07837 0.58148 0.0
C315 C 0.42298 0.06132 0.75819 0.0
O316 O 0.43812 0.0858 0.74843 0.0
C317 C 0.50147 0.07463 0.65312 0.0
O318 O 0.49474 0.07826 0.6137 0.0
O319 O 0.4856 0.06947 0.68497 0.0
O320 O 0.43292 0.0396 0.61303 0.0
O321 O 0.43745 0.09374 0.66209 0.0
C322 C 0.41615 0.09426 0.66338 0.0
O323 O 0.41741 0.11656 0.65636 0.0
O324 O 0.42287 0.04418 0.73302 0.0
Mg325 Mg 0.99535 0.39491 0.68005 0.0
C326 C 0.99074 0.35032 0.62712 0.0
O327 O 1.00776 0.36851 0.60132 0.0
C328 C 0.97744 0.43435 0.69785 0.0
O329 O 0.98659 0.43394 0.73711 0.0
C330 C 0.99221 0.36298 0.76281 0.0
O331 O 0.99836 0.35092 0.73324 0.0
O332 O 0.99278 0.38393 0.75141 0.0
O333 O 0.97704 0.3558 0.6523 0.0
O334 O 0.03168 0.41509 0.64043 0.0
C335 C 0.03687 0.43557 0.61902 0.0
O336 O 0.02432 0.44764 0.62959 0.0
O337 O 0.97637 0.41834 0.66875 0.0
Mg338 Mg 0.63044 0.56449 0.69508 0.0
C339 C 0.62479 0.56145 0.59339 0.0
O340 O 0.60113 0.54366 0.604 0.0
C341 C 0.65188 0.56284 0.7851 0.0
O342 O 0.62794 0.55666 0.79436 0.0
C343 C 0.58875 0.50664 0.68991 0.0
O344 O 0.60653 0.50514 0.66654 0.0
O345 O 0.59349 0.5286 0.70459 0.0
O346 O 0.6416 0.57165 0.62422 0.0
O347 O 0.62766 0.59855 0.71245 0.0
C348 C 0.62297 0.61115 0.68355 0.0
O349 O 0.61607 0.60134 0.64377 0.0
O350 O 0.65886 0.56631 0.74455 0.0
Mg351 Mg 0.71261 0.775 0.68779 0.0
C352 C 0.73249 0.776 0.78683 0.0
O353 O 0.74333 0.76289 0.77249 0.0
C354 C 0.72776 0.754 0.60896 0.0
O355 O 0.70249 0.74295 0.60543 0.0
C356 C 0.72595 0.83033 0.67705 0.0
O357 O 0.74692 0.8325 0.69535 0.0
O358 O 0.70759 0.8077 0.66743 0.0
O359 O 0.72102 0.78297 0.75927 0.0
O360 O 0.67709 0.73724 0.68398 0.0
C361 C 0.6705 0.72127 0.71582 0.0
O362 O 0.68282 0.72934 0.75353 0.0
O363 O 0.73879 0.7696 0.6413 0.0
Mg364 Mg 0.26188 0.95973 0.67244 0.0
C365 C 0.31404 1.00065 0.67886 0.0
O366 O 0.31304 0.97958 0.66349 0.0
C367 C 0.20389 0.92472 0.65838 0.0
O368 O 0.21282 0.92404 0.61906 0.0
C369 C 0.25926 0.97978 0.59068 0.0
O370 O 0.2495 0.98769 0.62189 0.0
O371 O 0.26667 0.96383 0.601 0.0
O372 O 0.29263 0.99923 0.68974 0.0
O373 O 0.27286 0.93736 0.71461 0.0
C374 C 0.26677 0.94022 0.75374 0.0
O375 O 0.25617 0.95473 0.75928 0.0
O376 O 0.21973 0.94042 0.687 0.0
Mg377 Mg 0.07559 0.31036 0.68399 0.0
C378 C 0.08116 0.34415 0.7667 0.0
O379 O 0.05656 0.32682 0.77118 0.0
C380 C 0.05457 0.29229 0.59268 0.0
O381 O 0.05143 0.27141 0.61266 0.0
C382 C 0.11181 0.2929 0.71989 0.0
O383 O 0.10181 0.29597 0.75647 0.0
O384 O 0.10377 0.29672 0.68324 0.0
O385 O 0.09309 0.34332 0.73211 0.0
O386 O 0.0387 0.28094 0.7121 0.0
C387 C 1.01564 0.27716 0.7094 0.0
O388 O 0.99729 0.25706 0.73023 0.0
O389 O 0.06574 0.3136 0.61417 0.0
Mg390 Mg 0.25701 0.29135 0.69902 0.0
C391 C 0.28244 0.25704 0.72773 0.0
O392 O 0.27947 0.23594 0.74658 0.0
C393 C 0.20489 0.28361 0.72937 0.0
O394 O 0.21705 0.28841 0.76739 0.0
C395 C 0.27266 0.27791 0.61273 0.0
O396 O 0.26393 0.25628 0.63494 0.0
O397 O 0.27198 0.2969 0.63075 0.0
O398 O 0.26277 0.26038 0.72684 0.0
O399 O 0.27559 0.32486 0.74476 0.0
C400 C 0.28702 0.32384 0.7797 0.0
O401 O 0.28928 0.30337 0.7866 0.0
O402 O 0.21644 0.28232 0.69487 0.0
Mg403 Mg 0.72017 0.97419 0.6987 0.0
C404 C 0.70161 0.94983 0.79135 0.0
O405 O 0.71081 0.93502 0.77839 0.0
C406 C 0.72135 0.99098 0.60853 0.0
O407 O 0.74243 0.98964 0.61512 0.0
C408 C 0.71055 0.91999 0.6757 0.0
O409 O 0.68675 0.91571 0.67251 0.0
O410 O 0.72862 0.94283 0.68486 0.0
O411 O 0.70122 0.96602 0.76426 0.0
O412 O 0.75553 0.01191 0.70617 0.0
C413 C 0.75722 0.03382 0.69886 0.0
O414 O 0.78008 0.05482 0.6998 0.0
O415 O 0.70432 0.9827 0.63913 0.0
Mg416 Mg 0.07245 0.77116 0.6823 0.0
C417 C 0.07748 0.76834 0.77982 0.0
O418 O 0.06599 0.78213 0.77585 0.0
C419 C 0.07071 0.74285 0.5991 0.0
O420 O 0.05752 0.7213 0.62146 0.0
C421 C 0.11312 0.82685 0.70164 0.0
O422 O 0.11973 0.81412 0.72905 0.0
O423 O 0.09223 0.81413 0.67933 0.0
O424 O 0.08335 0.76059 0.74469 0.0
O425 O 0.03059 0.74383 0.67197 0.0
C426 C 1.01749 0.72601 0.69994 0.0
O427 O 0.02669 0.72852 0.7401 0.0
O428 O 0.08588 0.76334 0.62036 0.0
Mg429 Mg 0.98913 0.58465 0.68868 0.0
C430 C 0.03038 0.62351 0.6257 0.0
O431 O 0.02809 0.64051 0.64991 0.0
C432 C 1.00638 0.61722 0.77135 0.0
O433 O 1.00931 0.63538 0.74362 0.0
C434 C 0.97722 0.53018 0.66021 0.0
O435 O 0.99109 0.54341 0.62608 0.0
O436 O 0.97147 0.54192 0.68946 0.0
O437 O 0.01821 0.59984 0.63688 0.0
O438 O 0.96661 0.60469 0.68323 0.0
C439 C 0.9689 0.61933 0.65085 0.0
O440 O 0.97593 0.61467 0.61239 0.0
O441 O 1.00299 0.59594 0.7558 0.0
Mg442 Mg 0.43536 0.37533 0.69058 0.0
C443 C 0.43717 0.39865 0.60507 0.0
O444 O 0.44862 0.38489 0.59997 0.0
C445 C 0.42429 0.34627 0.7706 0.0
O446 O 0.43535 0.33815 0.74225 0.0
C447 C 0.48556 0.41661 0.71127 0.0
O448 O 0.46801 0.42057 0.7302 0.0
O449 O 0.47771 0.39533 0.69059 0.0
O450 O 0.42897 0.39971 0.64357 0.0
O451 O 0.40551 0.33696 0.66882 0.0
C452 C 0.38489 0.33823 0.6738 0.0
O453 O 0.38745 0.36098 0.68225 0.0
O454 O 0.42299 0.36635 0.76022 0.0
Mg455 Mg 0.61343 0.02263 0.69371 0.0
C456 C 0.66345 0.03417 0.6493 0.0
O457 O 0.64764 0.01257 0.62887 0.0
C458 C 0.58813 0.05472 0.66276 0.0
O459 O 0.60338 0.05941 0.62853 0.0
C460 C 0.63854 0.04035 0.77841 0.0
O461 O 0.6439 0.06094 0.755 0.0
O462 O 0.62254 0.01828 0.76226 0.0
O463 O 0.65375 0.04534 0.67164 0.0
O464 O 0.59539 0.98769 0.65193 0.0
C465 C 0.57555 0.98247 0.62871 0.0
O466 O 0.5643 0.99634 0.63468 0.0
O467 O 0.58919 0.0411 0.69416 0.0
C468 C 1.00544 0.35266 0.02439 0.0
C469 C 0.994 0.32829 0.0444 0.0
C470 C 0.03239 0.36903 0.02546 0.0
C471 C 0.04873 0.36136 0.04611 0.0
H472 H 0.99382 0.35815 1.00458 0.0
H473 H 0.04052 0.38709 1.0075 0.0
S474 S 0.02727 0.30088 0.10926 0.0
N475 N 1.00026 0.29846 0.08991 0.0
N476 N 0.05089 0.3291 0.09196 0.0
C477 C 0.03718 0.33789 0.06927 0.0
C478 C 1.00978 0.32139 0.06842 0.0
C479 C 0.72041 0.68891 0.99949 0.0
C480 C 0.70513 0.6637 0.98328 0.0
C481 C 0.70995 0.70504 1.00543 0.0
C482 C 0.68394 0.6968 0.99485 0.0
H483 H 0.74005 0.69569 1.01056 0.0
H484 H 0.72212 0.72377 0.02048 0.0
S485 S 0.63722 0.6344 0.94348 0.0
N486 N 0.66365 0.63246 0.95081 0.0
N487 N 0.64417 0.66321 0.96196 0.0
C488 C 0.66915 0.67265 0.97468 0.0
C489 C 0.67972 0.65599 0.96894 0.0
C490 C 0.35435 0.98147 1.00005 0.0
C491 C 0.3748 0.99984 0.02642 0.0
C492 C 0.35252 0.95792 0.98846 0.0
C493 C 0.37047 0.9511 1.00363 0.0
H494 H 0.33976 0.98546 0.98718 0.0
H495 H 0.33707 0.94509 0.9669 0.0
S496 S 0.42862 0.99265 0.0716 0.0
N497 N 0.41428 1.01004 0.06571 0.0
N498 N 0.41051 0.96537 0.04453 0.0
C499 C 0.39149 0.96948 0.0291 0.0
C500 C 0.39359 0.9938 0.0406 0.0
C501 C 0.02204 0.63889 1.007 0.0
C502 C 0.03122 0.65483 0.04455 0.0
C503 C 0.99765 0.61615 1.00751 0.0
C504 C 0.98175 0.60915 0.04519 0.0
H505 H 0.03313 0.64462 0.97665 0.0
H506 H 0.99089 0.60442 0.978 0.0
S507 S 0.99934 0.6414 0.15396 0.0
N508 N 0.02415 0.66002 0.12189 0.0
N509 N 0.97854 0.61738 0.12252 0.0
C510 C 0.9916 0.62384 0.0836 0.0
C511 C 1.01626 0.64677 0.08325 0.0
C512 C 0.40464 0.34248 0.03133 0.0
C513 C 0.40223 0.33003 0.07194 0.0
C514 C 0.38905 0.35315 0.02101 0.0
C515 C 0.37074 0.35245 0.05114 0.0
H516 H 0.41772 0.34282 1.00619 0.0
H517 H 0.39102 0.36151 0.98848 0.0
S518 S 0.36307 0.33023 0.16729 0.0
N519 N 0.38404 0.32279 0.14608 0.0
N520 N 0.35519 0.34351 0.12679 0.0
C521 C 0.36998 0.34254 0.09357 0.0
C522 C 0.3858 0.33143 0.10403 0.0
C523 C 0.64731 1.00464 0.10109 0.0
C524 C 0.6333 0.98877 0.06516 0.0
C525 C 0.65592 0.03115 0.1016 0.0
C526 C 0.65112 0.04328 0.06599 0.0
H527 H 0.65284 0.99677 0.12848 0.0
H528 H 0.66784 0.0424 0.12912 0.0
S529 S 0.61025 1.00976 0.96854 0.0
N530 N 0.61136 0.98649 0.99623 0.0
N531 N 0.62769 0.03661 0.99709 0.0
C532 C 0.63506 0.02733 0.03168 0.0
C533 C 0.6261 1.00005 0.03128 0.0
C534 C 0.73228 0.73222 0.38463 0.0
C535 C 0.74409 0.73977 0.34289 0.0
C536 C 0.70643 0.71211 0.38893 0.0
C537 C 0.69173 0.69924 0.35144 0.0
H538 H 0.7431 0.74188 0.41402 0.0
H539 H 0.69826 0.70599 0.42162 0.0
S540 S 0.71233 0.7151 0.23464 0.0
N541 N 0.7382 0.7352 0.26349 0.0
N542 N 0.68986 0.69745 0.27128 0.0
C543 C 0.70293 0.70778 0.30953 0.0
C544 C 0.72905 0.72815 0.30527 0.0
C545 C 0.30565 1.00159 0.29305 0.0
C546 C 0.31037 0.9872 0.32484 0.0
C547 C 0.28283 1.00292 0.29345 0.0
C548 C 0.26412 0.99079 0.3264 0.0
H549 H 0.31963 0.01174 0.26712 0.0
H550 H 0.27937 0.01287 0.26695 0.0
S551 S 0.26609 0.94963 0.41622 0.0
N552 N 0.29354 0.95939 0.38921 0.0
N553 N 0.25089 0.9626 0.39049 0.0
C554 C 0.2681 0.97574 0.35782 0.0
C555 C 0.29122 0.97392 0.35704 0.0
C556 C 0.98409 0.352 0.30224 0.0
C557 C 0.97335 0.33462 0.33778 0.0
C558 C 0.9972 0.37878 0.3089 0.0
C559 C 0.99998 0.38942 0.35135 0.0
H560 H 0.98349 0.34494 0.26905 0.0
H561 H 1.00608 0.39123 0.28063 0.0
S562 S 0.97285 0.35255 0.45513 0.0
N563 N 0.96433 0.33012 0.41669 0.0
N564 N 0.98892 0.38049 0.42917 0.0
C565 C 0.98777 0.37237 0.38686 0.0
C566 C 0.97446 0.34497 0.38009 0.0
C567 C 0.64355 1.00253 0.31923 0.0
C568 C 0.63469 0.98695 0.35713 0.0
C569 C 0.66936 0.01344 0.3052 0.0
C570 C 0.6874 1.00911 0.32838 0.0
H571 H 0.63062 1.00688 0.30081 0.0
H572 H 0.67539 0.02622 0.27692 0.0
S573 S 0.67303 0.96627 0.42546 0.0
N574 N 0.64545 0.96537 0.4148 0.0
N575 N 0.69368 0.98562 0.38794 0.0
C576 C 0.67836 0.99219 0.36458 0.0
C577 C 0.65216 0.98128 0.37918 0.0
C578 C 0.04474 0.74541 0.31747 0.0
C579 C 0.05363 0.76786 0.34289 0.0
C580 C 0.05431 0.72853 0.32389 0.0
C581 C 0.07341 0.73355 0.35569 0.0
H582 H 0.03053 0.74102 0.292 0.0
H583 H 0.04584 0.71085 0.30509 0.0
S584 S 0.10475 0.79093 0.42875 0.0
N585 N 0.08394 0.79534 0.39928 0.0
N586 N 0.10161 0.76316 0.41207 0.0
C587 C 0.08303 0.75632 0.38073 0.0
C588 C 0.07341 0.77372 0.37384 0.0
C589 C 0.32863 0.37509 0.30438 0.0
C590 C 0.34193 0.39116 0.34083 0.0
C591 C 0.3179 0.34802 0.30615 0.0
C592 C 0.32021 0.33602 0.34436 0.0
H593 H 0.32789 0.38358 0.27322 0.0
H594 H 0.30958 0.33674 0.27646 0.0
S595 S 0.34918 0.36821 0.45104 0.0
N596 N 0.35335 0.39204 0.41825 0.0
N597 N 0.33405 0.34168 0.42093 0.0
C598 C 0.33154 0.35151 0.38197 0.0
C599 C 0.34209 0.3789 0.38045 0.0
C600 C 0.36195 0.02375 0.66829 0.0
C601 C 0.33971 0.02506 0.67961 0.0
C602 C 0.3863 0.04596 0.66428 0.0
C603 C 0.39012 0.07076 0.67154 0.0
H604 H 0.36065 1.00534 0.66141 0.0
H605 H 0.40205 0.04345 0.65443 0.0
S606 S 0.33864 0.08522 0.70537 0.0
N607 N 0.32323 0.05343 0.70036 0.0
N608 N 0.36923 0.09528 0.69316 0.0
C609 C 0.36815 0.07247 0.68425 0.0
C610 C 0.34305 0.04967 0.68837 0.0
C611 C 0.02221 0.33682 0.65089 0.0
C612 C 0.99639 0.33005 0.64221 0.0
C613 C 0.02826 0.31978 0.67255 0.0
C614 C 1.00896 0.29475 0.68472 0.0
H615 H 0.03787 0.35609 0.64338 0.0
H616 H 0.04818 0.32689 0.68125 0.0
S617 S 0.93813 0.26734 0.66761 0.0
N618 N 0.95126 0.2969 0.64738 0.0
N619 N 0.96251 0.26397 0.68513 0.0
C620 C 0.98297 0.28752 0.67496 0.0
C621 C 0.97677 0.30529 0.65427 0.0
C622 C 0.64958 0.67557 0.74267 0.0
C623 C 0.65348 0.69299 0.70821 0.0
C624 C 0.63823 0.64894 0.73491 0.0
C625 C 0.63015 0.63849 0.69236 0.0
H626 H 0.6565 0.68261 0.77569 0.0
H627 H 0.63687 0.63665 0.76224 0.0
S628 S 0.63236 0.67519 0.59181 0.0
N629 N 0.64557 0.6974 0.63074 0.0
N630 N 0.62422 0.64744 0.61612 0.0
C631 C 0.63205 0.65541 0.65823 0.0
C632 C 0.6437 0.6826 0.66615 0.0
C633 C 0.33762 0.31962 0.68091 0.0
C634 C 0.35872 0.31533 0.67946 0.0
C635 C 0.31342 0.30081 0.69618 0.0
C636 C 0.30837 0.27621 0.70907 0.0
H637 H 0.34003 0.33832 0.67243 0.0
H638 H 0.29909 0.30641 0.69937 0.0
S639 S 0.35672 0.25407 0.70817 0.0
N640 N 0.37313 0.28426 0.69072 0.0
N641 N 0.32685 0.24802 0.71689 0.0
C642 C 0.32905 0.27104 0.70556 0.0
C643 C 0.35425 0.29067 0.69101 0.0
C644 C 0.73314 0.04806 0.6486 0.0
C645 C 0.73414 0.03597 0.68791 0.0
C646 C 0.7104 0.0482 0.63612 0.0
C647 C 0.68854 0.03735 0.66373 0.0
H648 H 0.74962 0.05646 0.62652 0.0
H649 H 0.70977 0.05632 0.60451 0.0
S650 S 0.68332 1.00829 0.77376 0.0
N651 N 0.71279 0.01653 0.75684 0.0
N652 N 0.67021 0.01655 0.73365 0.0
C653 C 0.69007 0.02689 0.7043 0.0
C654 C 0.7129 0.0264 0.71651 0.0
C655 C 0.9978 0.69202 0.64051 0.0
C656 C 0.9977 0.69957 0.68456 0.0
C657 C 0.98621 0.66576 0.6287 0.0
C658 C 0.97352 0.64595 0.66027 0.0
H659 H 1.00866 0.70638 0.61558 0.0
H660 H 0.98895 0.66113 0.59527 0.0
S661 S 0.95945 0.65562 0.77592 0.0
N662 N 0.97826 0.68519 0.75703 0.0
N663 N 0.95575 0.63599 0.73462 0.0
C664 C 0.96986 0.65332 0.70267 0.0
C665 C 0.98206 0.68006 0.71485 0.0
C666 C 0.23063 0.37787 0.03963 0.0
C667 C 0.25193 0.39445 0.06633 0.0
C668 C 0.20786 0.37969 0.03876 0.0
C669 C 0.20553 0.39809 0.06467 0.0
H670 H 0.232 0.36426 1.01774 0.0
H671 H 0.19243 0.36727 1.0164 0.0
S672 S 0.25436 0.44324 0.14516 0.0
N673 N 0.26806 0.4279 0.12259 0.0
N674 N 0.22571 0.43118 0.12144 0.0
C675 C 0.22618 0.41364 0.09336 0.0
C676 C 0.24923 0.41186 0.09405 0.0
C677 C 0.61509 0.80096 0.9826 0.0
C678 C 0.6116 0.79018 0.0251 0.0
C679 C 0.61124 0.822 0.97426 0.0
C680 C 0.6035 0.83311 1.00791 0.0
H681 H 0.62249 0.79425 0.95614 0.0
H682 H 0.61573 0.83049 0.94159 0.0
S683 S 0.58737 0.80909 0.12318 0.0
N684 N 0.59675 0.79012 0.0999 0.0
N685 N 0.58933 0.82931 0.08424 0.0
C686 C 0.59775 0.82102 0.04959 0.0
C687 C 0.60189 0.79972 0.05816 0.0
C688 C 0.20242 0.80457 0.07366 0.0
C689 C 0.18665 0.78338 0.04617 0.0
C690 C 0.22734 0.82374 0.0606 0.0
C691 C 0.23757 0.82281 1.01915 0.0
H692 H 0.19516 0.80686 0.10513 0.0
H693 H 0.23817 0.84003 0.08247 0.0
S694 S 0.20531 0.77015 0.93638 0.0
N695 N 0.18403 0.76162 0.97684 0.0
N696 N 0.23065 0.79766 0.95213 0.0
C697 C 0.22255 0.80105 0.99223 0.0
C698 C 0.19721 0.78135 1.00576 0.0
C699 C 0.42746 0.19745 0.95098 0.0
C700 C 0.42483 0.20877 0.99001 0.0
C701 C 0.4272 0.17382 0.95153 0.0
C702 C 0.4243 0.16029 0.99113 0.0
H703 H 0.42857 0.2063 0.91925 0.0
H704 H 0.42801 0.16549 0.92019 0.0
S705 S 0.41958 0.18278 0.10331 0.0
N706 N 0.42159 0.20563 0.07012 0.0
N707 N 0.42106 0.16123 0.07109 0.0
C708 C 0.42355 0.17224 0.03084 0.0
C709 C 0.42381 0.19644 0.03029 0.0
C710 C 0.82333 0.2107 1.00964 0.0
C711 C 0.83736 0.21882 0.96968 0.0
C712 C 0.79779 0.18939 1.01098 0.0
C713 C 0.78535 0.1754 0.97244 0.0
H714 H 0.83265 0.21984 0.04044 0.0
H715 H 0.78842 0.18284 0.04276 0.0
S716 S 0.8117 0.19157 0.85861 0.0
N717 N 0.83526 0.21314 0.88998 0.0
N718 N 0.78785 0.17338 0.89267 0.0
C719 C 0.79846 0.1846 0.93207 0.0
C720 C 0.82425 0.2062 0.93064 0.0
C721 C 0.85374 0.62444 1.01197 0.0
C722 C 0.87472 0.64128 0.98505 0.0
C723 C 0.83028 0.6247 1.01176 0.0
C724 C 0.82662 0.64176 0.98451 0.0
H725 H 0.85556 0.61121 0.03411 0.0
H726 H 0.81498 0.61154 0.03364 0.0
S727 S 0.87481 0.68859 0.90531 0.0
N728 N 0.88975 0.6747 0.92868 0.0
N729 N 0.84584 0.67515 0.92821 0.0
C730 C 0.84724 0.65829 0.95663 0.0
C731 C 0.87117 0.65806 0.95692 0.0
C732 C 0.8742 0.72563 0.37435 0.0
C733 C 0.87093 0.74716 0.36705 0.0
C734 C 0.89883 0.72771 0.37203 0.0
C735 C 0.92124 0.75135 0.36185 0.0
H736 H 0.85756 0.70688 0.38135 0.0
H737 H 0.90019 0.71047 0.37705 0.0
S738 S 0.92385 0.81406 0.3431 0.0
N739 N 0.8929 0.79335 0.35168 0.0
N740 N 0.93865 0.79705 0.34696 0.0
C741 C 0.91833 0.77312 0.35561 0.0
C742 C 0.89339 0.77109 0.3583 0.0
C743 C 0.26429 0.16117 0.3102 0.0
C744 C 0.27034 0.17172 0.35303 0.0
C745 C 0.26124 0.13663 0.30085 0.0
C746 C 0.26396 0.12147 0.33394 0.0
H747 H 0.26324 0.17246 0.28316 0.0
H748 H 0.25759 0.12995 0.26697 0.0
S749 S 0.27626 0.13883 0.45279 0.0
N750 N 0.27641 0.16393 0.42971 0.0
N751 N 0.27061 0.11814 0.41233 0.0
C752 C 0.26847 0.13121 0.37739 0.0
C753 C 0.27165 0.15617 0.38685 0.0
C754 C 0.84593 0.15732 0.40469 0.0
C755 C 0.83679 0.13348 0.3827 0.0
C756 C 0.87115 0.178 0.39821 0.0
C757 C 0.88851 0.17587 0.36943 0.0
H758 H 0.83331 0.16035 0.42654 0.0
H759 H 0.87684 0.19599 0.41535 0.0
S760 S 0.87486 0.11712 0.30559 0.0
N761 N 0.84764 0.10862 0.33233 0.0
N762 N 0.89503 0.14733 0.32016 0.0
C763 C 0.87997 0.15182 0.34835 0.0
C764 C 0.85418 0.1307 0.35499 0.0
C765 C 0.09022 0.56933 0.3359 0.0
C766 C 0.07078 0.54332 0.3296 0.0
C767 C 0.08458 0.58954 0.3347 0.0
C768 C 0.05922 0.58465 0.32733 0.0
H769 H 0.10998 0.57419 0.34263 0.0
H770 H 0.10013 0.60907 0.34083 0.0
S771 S 1.00156 0.52032 0.30514 0.0
N772 N 0.02531 0.51412 0.313 0.0
N773 N 1.01473 0.5519 0.31076 0.0
C774 C 0.03974 0.55885 0.31952 0.0
C775 C 0.04549 0.53827 0.32065 0.0
C776 C 0.52436 0.57333 0.39735 0.0
C777 C 0.52959 0.58481 0.35525 0.0
C778 C 0.50112 0.55022 0.40614 0.0
C779 C 0.48189 0.53771 0.37347 0.0
H780 H 0.53899 0.58128 0.42296 0.0
H781 H 0.49874 0.5415 0.4384 0.0
S782 S 0.48455 0.56186 0.25958 0.0
N783 N 0.51243 0.58329 0.28181 0.0
N784 N 0.46879 0.5403 0.29852 0.0
C785 C 0.48605 0.5501 0.33228 0.0
C786 C 0.50987 0.57347 0.32315 0.0
C787 C 0.44768 0.95359 0.32485 0.0
C788 C 0.43097 0.9477 0.3614 0.0
C789 C 0.46884 0.94911 0.32584 0.0
C790 C 0.47377 0.93802 0.36304 0.0
H791 H 0.44508 0.96277 0.29603 0.0
H792 H 0.48149 0.95449 0.29738 0.0
S793 S 0.43485 0.91796 0.46641 0.0
N794 N 0.42045 0.92966 0.43518 0.0
N795 N 0.45931 0.92057 0.43685 0.0
C796 C 0.45657 0.93128 0.39911 0.0
C797 C 0.43546 0.93629 0.39835 0.0
C798 C 0.54866 0.0538 0.69563 0.0
C799 C 0.56791 0.06267 0.66257 0.0
C800 C 0.52795 0.05881 0.69366 0.0
C801 C 0.52548 0.07282 0.65843 0.0
H802 H 0.54908 0.04216 0.72267 0.0
H803 H 0.5132 0.05071 0.71904 0.0
S804 S 0.57224 0.10316 0.56625 0.0
N805 N 0.58421 0.0883 0.59559 0.0
N806 N 0.54547 0.09751 0.59184 0.0
C807 C 0.54525 0.08288 0.62636 0.0
C808 C 0.56637 0.07788 0.62843 0.0
C809 C 0.96987 0.47069 0.72025 0.0
C810 C 0.97274 0.45608 0.68633 0.0
C811 C 0.9696 0.49369 0.7113 0.0
C812 C 0.97264 0.50344 0.66805 0.0
H813 H 0.96867 0.46476 0.75436 0.0
H814 H 0.96838 0.5046 0.73888 0.0
S815 S 0.9784 0.47155 0.56666 0.0
N816 N 0.97649 0.45216 0.60709 0.0
N817 N 0.97659 0.49549 0.59043 0.0
C818 C 0.97423 0.48839 0.63356 0.0
C819 C 0.97409 0.46473 0.64261 0.0
C820 C 0.55486 0.46077 0.67169 0.0
C821 C 0.5632 0.48304 0.69808 0.0
C822 C 0.53018 0.43881 0.67725 0.0
C823 C 0.51292 0.4382 0.70958 0.0
H824 H 0.56717 0.46053 0.64562 0.0
H825 H 0.5243 0.42259 0.65503 0.0
S826 S 0.52666 0.49016 0.79107 0.0
N827 N 0.55297 0.5021 0.76028 0.0
N828 N 0.50702 0.46105 0.77111 0.0
C829 C 0.52158 0.45988 0.73757 0.0
C830 C 0.54655 0.48222 0.73171 0.0
C831 C 0.69487 0.87257 0.66466 0.0
C832 C 0.71558 0.89785 0.6723 0.0
C833 C 0.69849 0.85101 0.66461 0.0
C834 C 0.72299 0.85369 0.67238 0.0
H835 H 0.67545 0.86921 0.65954 0.0
H836 H 0.68174 0.83202 0.65973 0.0
S837 S 0.78419 0.9158 0.69033 0.0
N838 N 0.76191 0.9243 0.68503 0.0
N839 N 0.76874 0.88405 0.68498 0.0
C840 C 0.74407 0.87895 0.67845 0.0
C841 C 0.74038 0.90091 0.6784 0.0
C842 C 0.1513 0.8692 0.72458 0.0
C843 C 0.13249 0.85454 0.69236 0.0
C844 C 0.17329 0.89313 0.71443 0.0
C845 C 0.17768 0.90325 0.67135 0.0
H846 H 0.14969 0.86153 0.75755 0.0
H847 H 0.18781 0.90279 0.73982 0.0
S848 S 0.13294 0.87431 0.57616 0.0
N849 N 0.11855 0.85344 0.61665 0.0
N850 N 0.15994 0.89803 0.59734 0.0
C851 C 0.15816 0.88969 0.6396 0.0
C852 C 0.13556 0.86549 0.65014 0.0
C853 C 0.17101 0.28788 0.68614 0.0
C854 C 0.17948 0.28281 0.7264 0.0
C855 C 0.14868 0.29025 0.68391 0.0
C856 C 0.13379 0.28756 0.72182 0.0
H857 H 0.18224 0.291 0.65632 0.0
H858 H 0.14354 0.29503 0.65242 0.0
S859 S 0.1457 0.27078 0.83424 0.0
N860 N 0.16976 0.27282 0.80425 0.0
N861 N 0.12798 0.27707 0.80014 0.0
C862 C 0.14135 0.28118 0.76181 0.0
C863 C 0.1641 0.27886 0.76408 0.0
C864 C 0.11434 0.43162 0.22075 0.0
C865 C 0.10964 0.45191 0.2312 0.0
C866 C 0.12233 0.42893 0.17831 0.0
C867 C 0.12561 0.44617 0.14382 0.0
H868 H 0.11113 0.41715 0.24532 0.0
H869 H 0.12478 0.41243 0.1721 0.0
S870 S 0.11785 0.50391 0.15439 0.0
N871 N 0.11066 0.49069 0.20399 0.0
N872 N 0.12519 0.48542 0.1242 0.0
C873 C 0.12205 0.46722 0.15426 0.0
C874 C 0.11425 0.47016 0.19783 0.0
C875 C 0.64211 0.71214 0.24474 0.0
C876 C 0.63036 0.68505 0.23982 0.0
C877 C 0.65129 0.72896 0.20837 0.0
C878 C 0.64863 0.71954 0.16505 0.0
H879 H 0.64443 0.72059 0.27726 0.0
H880 H 0.66009 0.74954 0.21428 0.0
S881 S 0.62065 0.65047 0.13362 0.0
N882 N 0.61784 0.64976 0.18796 0.0
N883 N 0.63435 0.68123 0.11933 0.0
C884 C 0.63726 0.69252 0.15947 0.0
C885 C 0.62838 0.67535 0.19683 0.0
C886 C 0.34712 0.95987 0.13963 0.0
C887 C 0.35117 0.94052 0.12146 0.0
C888 C 0.36326 0.97614 0.17329 0.0
C889 C 0.3843 0.97394 0.18941 0.0
H890 H 0.33075 0.96171 0.12919 0.0
H891 H 0.35847 0.98972 0.18816 0.0
S892 S 0.40618 0.92983 0.1459 0.0
N893 N 0.37973 0.92241 0.1176 0.0
N894 N 0.41038 0.95334 0.17956 0.0
C895 C 0.38985 0.95621 0.1685 0.0
C896 C 0.37314 0.93934 0.13501 0.0
C897 C 0.40124 0.03673 0.87317 0.0
C898 C 0.39243 0.05332 0.88836 0.0
C899 C 0.40871 0.03732 0.82913 0.0
C900 C 0.40794 0.05483 0.79931 0.0
H901 H 0.40413 0.02452 0.89621 0.0
H902 H 0.41726 0.02575 0.81953 0.0
S903 S 0.38156 0.09845 0.82012 0.0
N904 N 0.37938 0.08454 0.86827 0.0
N905 N 0.394 0.08611 0.78566 0.0
C906 C 0.39667 0.06952 0.81288 0.0
C907 C 0.38866 0.0686 0.85747 0.0
C908 C 0.96359 0.3103 0.85202 0.0
C909 C 0.95428 0.32062 0.88425 0.0
C910 C 0.97657 0.32449 0.81392 0.0
C911 C 0.98093 0.34974 0.80609 0.0
H912 H 0.96049 0.29093 0.85583 0.0
H913 H 0.98272 0.31523 0.78987 0.0
S914 S 0.96256 0.38676 0.88186 0.0
N915 N 0.95203 0.35869 0.90674 0.0
N916 N 0.97609 0.38488 0.83554 0.0
C917 C 0.97249 0.3606 0.83872 0.0
C918 C 0.95929 0.34621 0.87752 0.0
C919 C 0.67916 0.5721 0.9025 0.0
C920 C 0.70598 0.58306 0.89596 0.0
C921 C 0.66188 0.56481 0.86653 0.0
C922 C 0.67056 0.568 0.82228 0.0
H923 H 0.67151 0.57029 0.93556 0.0
H924 H 0.64157 0.55734 0.87368 0.0
S925 S 0.73865 0.59286 0.78727 0.0
N926 N 0.74013 0.59456 0.84169 0.0
N927 N 0.70781 0.58088 0.77457 0.0
C928 C 0.69718 0.57759 0.81541 0.0
C929 C 0.71478 0.58509 0.85203 0.0
C930 C 0.98746 0.64116 0.87317 0.0
C931 C 0.97235 0.6182 0.89687 0.0
C932 C 1.00029 0.64118 0.83417 0.0
C933 C 0.99863 0.61829 0.81771 0.0
H934 H 0.98835 0.65895 0.88352 0.0
H935 H 1.01047 0.65901 0.81563 0.0
S936 S 0.96609 0.55428 0.87332 0.0
N937 N 0.9597 0.57289 0.90498 0.0
N938 N 0.98395 0.57294 0.83249 0.0
C939 C 0.98558 0.59578 0.8436 0.0
C940 C 0.97231 0.59571 0.88284 0.0
C941 C 0.39665 0.32773 0.88764 0.0
C942 C 0.39397 0.30303 0.89358 0.0
C943 C 0.4059 0.34148 0.84772 0.0
C944 C 0.41287 0.33112 0.81204 0.0
H945 H 0.39242 0.33698 0.91457 0.0
H946 H 0.40824 0.36062 0.84528 0.0
S947 S 0.40607 0.26565 0.80841 0.0
N948 N 0.39678 0.26792 0.85873 0.0
N949 N 0.41381 0.29328 0.78405 0.0
C950 C 0.40902 0.30587 0.81688 0.0
C951 C 0.39969 0.29198 0.85746 0.0
C952 C 0.68826 0.0729 0.86974 0.0
C953 C 0.68304 0.05281 0.89951 0.0
C954 C 0.67369 0.06843 0.83118 0.0
C955 C 0.65328 0.04361 0.82004 0.0
H956 H 0.70314 0.09257 0.87695 0.0
H957 H 0.67846 0.08485 0.81011 0.0
S958 S 0.63399 0.98354 0.88346 0.0
N959 N 0.65739 1.00656 0.91319 0.0
N960 N 0.6302 0.99812 0.84017 0.0
C961 C 0.64856 0.02304 0.84837 0.0
C962 C 0.66339 0.02764 0.88807 0.0
C963 C 0.56853 0.88927 0.19216 0.0
C964 C 0.59468 0.90102 0.17859 0.0
C965 C 0.5616 0.89217 0.23524 0.0
C966 C 0.58046 0.90669 0.26712 0.0
H967 H 0.55305 0.87831 0.1689 0.0
H968 H 0.54123 0.88348 0.24325 0.0
S969 S 0.65181 0.94045 0.24978 0.0
N970 N 0.63958 0.92701 0.20151 0.0
N971 N 0.62673 0.93222 0.28251 0.0
C972 C 0.60676 0.91762 0.25471 0.0
C973 C 0.61382 0.91485 0.21055 0.0
C974 C 0.03949 0.69298 0.22088 0.0
C975 C 0.04059 0.67321 0.2445 0.0
C976 C 0.05794 0.70754 0.18836 0.0
C977 C 0.07802 0.70258 0.17745 0.0
H978 H 0.02377 0.69674 0.22677 0.0
H979 H 0.05556 0.72178 0.17006 0.0
S980 S 0.08957 0.65297 0.2299 0.0
N981 N 0.06339 0.64961 0.25459 0.0
N982 N 0.09846 0.6771 0.19491 0.0
C983 C 0.07992 0.68358 0.20225 0.0
C984 C 0.06109 0.66882 0.23525 0.0
C985 C 0.39023 0.42746 0.20175 0.0
C986 C 0.41086 0.45276 0.20874 0.0
C987 C 0.37707 0.42013 0.1612 0.0
C988 C 0.38452 0.43752 0.12556 0.0
H989 H 0.38341 0.41347 0.22831 0.0
H990 H 0.36093 0.40062 0.1577 0.0
S991 S 0.43912 0.50494 0.12471 0.0
N992 N 0.43914 0.4947 0.17536 0.0
N993 N 0.41512 0.48035 0.09854 0.0
C994 C 0.40604 0.46231 0.13109 0.0
C995 C 0.41902 0.47006 0.1728 0.0
C996 C 0.72843 0.72806 0.54371 0.0
C997 C 0.7423 0.74824 0.57439 0.0
C998 C 0.74081 0.72299 0.50868 0.0
C999 C 0.76773 0.738 0.50219 0.0
H1000 H 0.70758 0.71616 0.54622 0.0
H1001 H 0.729 0.70766 0.48571 0.0
S1002 S 0.81353 0.79187 0.57492 0.0
N1003 N 0.78486 0.78228 0.59721 0.0
N1004 N 0.80817 0.77303 0.5316 0.0
C1005 C 0.78202 0.75766 0.53356 0.0
C1006 C 0.76936 0.76269 0.56948 0.0
C1007 C 0.24521 1.00977 0.49322 0.0
C1008 C 0.26662 0.01738 0.46512 0.0
C1009 C 0.2427 0.99659 0.53252 0.0
C1010 C 0.26133 0.99014 0.54562 0.0
H1011 H 0.2302 0.01429 0.4853 0.0
H1012 H 0.22608 0.99176 0.55327 0.0
S1013 S 0.32082 1.00466 0.48385 0.0
N1014 N 0.30672 0.01682 0.45277 0.0
N1015 N 0.30181 0.99175 0.52724 0.0
C1016 C 0.28259 0.99688 0.51758 0.0
C1017 C 0.28532 1.01065 0.47729 0.0
C1018 C 0.04001 0.31021 0.53037 0.0
C1019 C 0.04313 0.29008 0.54761 0.0
C1020 C 0.02712 0.30746 0.49 0.0
C1021 C 1.01668 0.28444 0.46479 0.0
H1022 H 0.04689 0.32802 0.54877 0.0
H1023 H 0.02479 0.32345 0.47914 0.0
S1024 S 0.02146 0.22656 0.49322 0.0
N1025 N 0.03604 0.24674 0.53454 0.0
N1026 N 1.01184 0.24169 0.45927 0.0
C1027 C 0.02046 0.26449 0.48088 0.0
C1028 C 0.03362 0.26728 0.52201 0.0
C1029 C 0.29608 0.2598 0.50925 0.0
C1030 C 0.29169 0.27358 0.47616 0.0
C1031 C 0.29096 0.26227 0.55376 0.0
C1032 C 0.28182 0.27899 0.56678 0.0
H1033 H 0.3019 0.24585 0.50048 0.0
H1034 H 0.29339 0.25033 0.57802 0.0
S1035 S 0.27072 0.32196 0.49297 0.0
N1036 N 0.27985 0.30615 0.45954 0.0
N1037 N 0.27119 0.31144 0.54317 0.0
C1038 C 0.2793 0.29432 0.53428 0.0
C1039 C 0.28395 0.29139 0.48895 0.0
C1040 C 0.74427 0.02475 0.55095 0.0
C1041 C 0.72061 1.00623 0.57006 0.0
C1042 C 0.74521 0.03993 0.51501 0.0
C1043 C 0.72248 0.03699 0.49552 0.0
H1044 H 0.76248 0.02777 0.56404 0.0
H1045 H 0.76401 0.05341 0.5014 0.0
S1046 S 0.65541 0.99181 0.53324 0.0
N1047 N 0.67378 0.98652 0.56764 0.0
N1048 N 0.67543 0.01455 0.49899 0.0
C1049 C 0.69861 0.01888 0.51466 0.0
C1050 C 0.69769 1.00365 0.55206 0.0
C1051 C 0.04345 0.72263 0.53126 0.0
C1052 C 0.06049 0.74506 0.5552 0.0
C1053 C 0.03029 0.7238 0.4935 0.0
C1054 C 0.03318 0.74743 0.4786 0.0
H1055 H 0.03967 0.70386 0.54248 0.0
H1056 H 1.01712 0.70594 0.47678 0.0
S1057 S 0.07686 0.81216 0.52733 0.0
N1058 N 0.08083 0.79194 0.55892 0.0
N1059 N 0.0556 0.79405 0.48948 0.0
C1060 C 0.05079 0.7701 0.50139 0.0
C1061 C 0.06459 0.76897 0.53916 0.0
C1062 C 0.13398 0.37973 0.85325 0.0
C1063 C 0.12102 0.38468 0.88761 0.0
C1064 C 0.12161 0.36841 0.81295 0.0
C1065 C 0.09549 0.36099 0.80542 0.0
H1066 H 0.15364 0.38372 0.85817 0.0
H1067 H 0.13219 0.36403 0.78863 0.0
S1068 S 0.05323 0.37148 0.88296 0.0
N1069 N 0.08096 0.3829 0.90972 0.0
N1070 N 0.05764 0.36128 0.83477 0.0
C1071 C 0.08267 0.36701 0.83861 0.0
C1072 C 0.09543 0.37894 0.87937 0.0
C1073 C 0.70868 0.78932 0.89573 0.0
C1074 C 0.71937 0.7805 0.92819 0.0
C1075 C 0.71398 0.78889 0.85053 0.0
C1076 C 0.73009 0.77944 0.83541 0.0
H1077 H 0.6953 0.79579 0.90508 0.0
H1078 H 0.70449 0.79515 0.82716 0.0
S1079 S 0.765 0.75628 0.9068 0.0
N1080 N 0.74859 0.76383 0.94179 0.0
N1081 N 0.75829 0.76285 0.85727 0.0
C1082 C 0.74196 0.77177 0.86761 0.0
C1083 C 0.7367 0.77236 0.91374 0.0
C1084 C 0.29938 0.9142 0.82933 0.0
C1085 C 0.28853 0.91378 0.87093 0.0
C1086 C 0.29167 0.92188 0.79111 0.0
C1087 C 0.27282 0.92941 0.79308 0.0
H1088 H 0.3144 0.90914 0.8263 0.0
H1089 H 0.30112 0.92266 0.76013 0.0
S1090 S 0.23623 0.92882 0.89296 0.0
N1091 N 0.25647 0.91962 0.91099 0.0
N1092 N 0.24187 0.93383 0.83953 0.0
C1093 C 0.26106 0.92804 0.83417 0.0
C1094 C 0.26895 0.92031 0.87299 0.0
C1095 C 0.36559 0.10711 0.17333 0.0
C1096 C 0.35528 0.08699 0.14193 0.0
C1097 C 0.35215 0.10559 0.21221 0.0
C1098 C 0.32809 0.08371 0.22147 0.0
H1099 H 0.38439 0.12409 0.16814 0.0
H1100 H 0.36105 0.12135 0.23571 0.0
S1101 S 0.29178 0.02653 0.14871 0.0
N1102 N 0.31891 0.04512 0.1217 0.0
N1103 N 0.29362 0.04224 0.19467 0.0
C1104 C 0.31717 0.06381 0.18972 0.0
C1105 C 0.33075 0.06547 0.14993 0.0
C1106 C 0.97457 0.2365 0.17353 0.0
C1107 C 0.95974 0.23935 0.207 0.0
C1108 C 0.96844 0.23616 0.12846 0.0
C1109 C 0.94711 0.23854 0.11468 0.0
H1110 H 0.99152 0.2352 0.18208 0.0
H1111 H 0.98109 0.23484 0.10422 0.0
S1112 S 0.90032 0.24372 0.18931 0.0
N1113 N 0.9215 0.24267 0.223 0.0
N1114 N 0.90997 0.24189 0.13906 0.0
C1115 C 0.93145 0.24025 0.14798 0.0
C1116 C 0.93778 0.24074 0.19377 0.0
C1117 C 0.74275 0.66988 0.22671 0.0
C1118 C 0.75996 0.66465 0.2503 0.0
C1119 C 0.7345 0.66028 0.18361 0.0
C1120 C 0.74272 0.6446 0.16207 0.0
H1121 H 0.73648 0.68246 0.24089 0.0
H1122 H 0.72213 0.66591 0.16653 0.0
S1123 S 0.78538 0.62251 0.21116 0.0
N1124 N 0.7832 0.64079 0.24992 0.0
N1125 N 0.76752 0.62265 0.16962 0.0
C1126 C 0.75866 0.63791 0.18631 0.0
C1127 C 0.76731 0.64794 0.23007 0.0
C1128 C 0.95576 0.67484 0.22804 0.0
C1129 C 0.97531 0.7008 0.22391 0.0
C1130 C 0.94735 0.6582 0.19143 0.0
C1131 C 0.95843 0.66674 0.1493 0.0
H1132 H 0.94627 0.66749 0.25951 0.0
H1133 H 0.9318 0.63854 0.19625 0.0
S1134 S 1.0129 0.73215 0.12252 0.0
N1135 N 1.00715 0.73378 0.17541 0.0
N1136 N 0.99181 0.70243 0.10681 0.0
C1137 C 0.97895 0.69236 0.14527 0.0
C1138 C 0.98723 0.70941 0.18247 0.0
C1139 C 0.34944 0.23769 0.19992 0.0
C1140 C 0.33451 0.24764 0.21788 0.0
C1141 C 0.35493 0.23962 0.15452 0.0
C1142 C 0.34529 0.25117 0.12513 0.0
H1143 H 0.35726 0.2287 0.22123 0.0
H1144 H 0.36736 0.23251 0.14267 0.0
S1145 S 0.3009 0.27552 0.15499 0.0
N1146 N 0.30754 0.26656 0.20251 0.0
N1147 N 0.31737 0.26979 0.11717 0.0
C1148 C 0.32913 0.2599 0.14257 0.0
C1149 C 0.32388 0.25826 0.1889 0.0
C1150 C 0.76184 0.08818 0.20036 0.0
C1151 C 0.75609 0.09844 0.23789 0.0
C1152 C 0.7548 0.09152 0.15776 0.0
C1153 C 0.74214 0.10568 0.15075 0.0
H1154 H 0.77146 0.07697 0.20382 0.0
H1155 H 0.75949 0.08307 0.13012 0.0
S1156 S 0.72288 0.13684 0.23767 0.0
N1157 N 0.73694 0.12333 0.26515 0.0
N1158 N 0.72412 0.13017 0.1851 0.0
C1159 C 0.7365 0.11632 0.18792 0.0
C1160 C 0.74333 0.11254 0.23144 0.0
C1161 C 0.67946 0.92462 0.85975 0.0
C1162 C 0.69328 0.94859 0.83806 0.0
C1163 C 0.67097 0.92298 0.90366 0.0
C1164 C 0.67606 0.94527 0.92762 0.0
H1165 H 0.67452 0.90692 0.84225 0.0
H1166 H 0.65944 0.90404 0.91817 0.0
S1167 S 0.71671 0.01293 0.88937 0.0
N1168 N 0.71537 0.99523 0.84644 0.0
N1169 N 0.69915 0.99221 0.92835 0.0
C1170 C 0.69135 0.96941 0.9072 0.0
C1171 C 0.69999 0.97106 0.86262 0.0
C1172 C 0.09499 0.74661 0.82831 0.0
C1173 C 0.08283 0.7615 0.82439 0.0
C1174 C 0.09992 0.73953 0.86975 0.0
C1175 C 0.09291 0.74697 0.90928 0.0
H1176 H 0.10073 0.74023 0.79913 0.0
H1177 H 0.10929 0.72799 0.87057 0.0
S1178 S 0.06067 0.78624 0.91764 0.0
N1179 N 0.06396 0.78365 0.86407 0.0
N1180 N 0.07323 0.77025 0.94176 0.0
C1181 C 0.08082 0.76196 0.90598 0.0
C1182 C 0.07579 0.76923 0.86367 0.0
C1183 C 0.31456 0.34674 0.84524 0.0
C1184 C 0.29514 0.34363 0.81525 0.0
C1185 C 0.31962 0.36159 0.88381 0.0
C1186 C 0.30512 0.37358 0.89451 0.0
H1187 H 0.32531 0.33677 0.83976 0.0
H1188 H 0.33389 0.36225 0.90671 0.0
S1189 S 0.25406 0.37387 0.82464 0.0
N1190 N 0.26305 0.35585 0.79683 0.0
N1191 N 0.27217 0.38337 0.86959 0.0
C1192 C 0.28676 0.37197 0.86341 0.0
C1193 C 0.28188 0.35713 0.82374 0.0
C1194 C 0.06489 0.42731 0.51072 0.0
C1195 C 0.0691 0.44902 0.48571 0.0
C1196 C 0.0565 0.42404 0.55498 0.0
C1197 C 0.05152 0.44212 0.57619 0.0
H1198 H 0.0671 0.41211 0.4955 0.0
H1199 H 0.05263 0.40649 0.57181 0.0
S1200 S 0.0629 0.50415 0.5278 0.0
N1201 N 0.07033 0.49034 0.48758 0.0
N1202 N 0.05437 0.48409 0.57003 0.0
C1203 C 0.0574 0.46479 0.55258 0.0
C1204 C 0.06618 0.46824 0.50765 0.0
C1205 C 0.64954 0.59926 0.54241 0.0
C1206 C 0.62986 0.57343 0.54838 0.0
C1207 C 0.65129 0.61277 0.50336 0.0
C1208 C 0.63374 0.60101 0.46813 0.0
H1209 H 0.66274 0.60974 0.56914 0.0
H1210 H 0.66584 0.63307 0.50164 0.0
S1211 S 0.58068 0.53277 0.46448 0.0
N1212 N 0.5939 0.53584 0.51366 0.0
N1213 N 0.59749 0.56123 0.44032 0.0
C1214 C 0.61522 0.57465 0.47221 0.0
C1215 C 0.61319 0.56091 0.51229 0.0
C1216 C 0.4038 0.01596 0.53487 0.0
C1217 C 0.42592 0.04064 0.53555 0.0
C1218 C 0.39174 1.00433 0.49507 0.0
C1219 C 0.40152 0.01676 0.4543 0.0
H1220 H 0.3954 1.00569 0.56537 0.0
H1221 H 0.37471 0.98527 0.49646 0.0
S1222 S 0.4594 0.08152 0.43821 0.0
N1223 N 0.45738 0.0772 0.49221 0.0
N1224 N 0.43483 0.05514 0.41715 0.0
C1225 C 0.42376 0.04143 0.45449 0.0
C1226 C 0.43592 0.05341 0.49517 0.0
C1227 C 0.54436 0.95013 0.51999 0.0
C1228 C 0.5577 0.93718 0.50766 0.0
C1229 C 0.54924 0.96334 0.56026 0.0
C1230 C 0.56782 0.96442 0.59022 0.0
H1231 H 0.53067 0.95098 0.49752 0.0
H1232 H 0.53909 0.97379 0.56687 0.0
S1233 S 0.60514 0.93025 0.57739 0.0
N1234 N 0.58816 0.92369 0.53133 0.0
N1235 N 0.59741 0.94864 0.60702 0.0
C1236 C 0.58001 0.95002 0.57987 0.0
C1237 C 0.57491 0.93638 0.53871 0.0
C1238 C 0.04001 0.65011 0.55734 0.0
C1239 C 0.04129 0.63039 0.58061 0.0
C1240 C 0.04629 0.65434 0.51234 0.0
C1241 C 0.05464 0.63939 0.48924 0.0
H1242 H 0.03302 0.66164 0.57347 0.0
H1243 H 0.04443 0.66931 0.49545 0.0
S1244 S 0.06265 0.58631 0.53557 0.0
N1245 N 0.05228 0.59633 0.57756 0.0
N1246 N 0.06476 0.60472 0.49333 0.0
C1247 C 0.05697 0.62029 0.51252 0.0
C1248 C 0.05012 0.61567 0.55811 0.0
C1249 C 0.43987 0.42091 0.48613 0.0
C1250 C 0.42439 0.43254 0.4866 0.0
C1251 C 0.44413 0.4105 0.52469 0.0
C1252 C 0.43312 0.41121 0.56561 0.0
H1253 H 0.44869 0.41964 0.45566 0.0
H1254 H 0.45608 0.40162 0.52213 0.0
S1255 S 0.39114 0.43966 0.58523 0.0
N1256 N 0.3981 0.44432 0.5321 0.0
N1257 N 0.40617 0.42476 0.60413 0.0
C1258 C 0.41782 0.42301 0.56674 0.0
C1259 C 0.41343 0.43362 0.52744 0.0
loop_
_geom_bond_atom_site_label_1
_geom_bond_atom_site_label_2
_geom_bond_distance
_geom_bond_site_symmetry_2
_ccdc_geom_bond_type
Mg0 O7 2.141 . S
Mg0 O8 2.048 1_554 S
Mg0 O9 2.048 . S
Mg0 O12 2.141 . S
C1 O2 1.313 . S
C1 O8 1.195 . S
O2 C1 1.313 . S
C3 O4 1.245 . S
C3 O12 1.289 . S
O4 C3 1.245 . S
C5 O6 1.245 . S
C5 O7 1.289 1_556 S
O6 C5 1.245 . S
O7 Mg0 2.141 . S
O7 C5 1.289 1_554 S
O8 Mg0 2.048 1_556 S
O8 C1 1.195 . S
O9 Mg0 2.048 . S
O9 C10 1.195 1_554 S
C10 O9 1.195 1_556 S
C10 O11 1.313 . S
O11 C10 1.313 . S
O12 Mg0 2.141 . S
O12 C3 1.289 . S
Mg13 O20 2.141 1_556 S
Mg13 O21 2.048 . S
Mg13 O22 2.048 . S
Mg13 O25 2.141 . S
C14 O15 1.313 1_556 S
C14 O21 1.195 . S
O15 C14 1.313 1_554 S
C16 O17 1.245 . S
C16 O25 1.289 1_554 S
O17 C16 1.245 . S
C18 O19 1.245 . S
C18 O20 1.289 . S
O19 C18 1.245 . S
O20 Mg13 2.141 1_554 S
O20 C18 1.289 . S
O21 Mg13 2.048 . S
O21 C14 1.195 . S
O22 Mg13 2.048 . S
O22 C23 1.195 . S
C23 O22 1.195 . S
C23 O24 1.313 . S
O24 C23 1.313 . S
O25 Mg13 2.141 . S
O25 C16 1.289 1_556 S
Mg26 O33 2.141 . S
Mg26 O34 2.048 1_554 S
Mg26 O35 2.048 . S
Mg26 O38 2.141 . S
C27 O28 1.313 . S
C27 O34 1.195 . S
O28 C27 1.313 . S
C29 O30 1.245 . S
C29 O38 1.289 . S
O30 C29 1.245 . S
C31 O32 1.245 . S
C31 O33 1.289 1_556 S
O32 C31 1.245 . S
O33 Mg26 2.141 . S
O33 C31 1.289 1_554 S
O34 Mg26 2.048 1_556 S
O34 C27 1.195 . S
O35 Mg26 2.048 . S
O35 C36 1.195 1_554 S
C36 O35 1.195 1_556 S
C36 O37 1.313 . S
O37 C36 1.313 . S
O38 Mg26 2.141 . S
O38 C29 1.289 . S
Mg39 O46 2.141 . S
Mg39 O47 2.048 1_556 S
Mg39 O48 2.048 . S
Mg39 O51 2.141 . S
C40 O41 1.313 . S
C40 O47 1.195 . S
O41 C40 1.313 . S
C42 O43 1.245 . S
C42 O51 1.289 . S
O43 C42 1.245 . S
C44 O45 1.245 . S
C44 O46 1.289 1_554 S
O45 C44 1.245 . S
O46 Mg39 2.141 . S
O46 C44 1.289 1_556 S
O47 Mg39 2.048 1_554 S
O47 C40 1.195 . S
O48 Mg39 2.048 . S
O48 C49 1.195 1_556 S
C49 O48 1.195 1_554 S
C49 O50 1.313 . S
O50 C49 1.313 . S
O51 Mg39 2.141 . S
O51 C42 1.289 . S
Mg52 O59 2.141 1_554 S
Mg52 O60 2.048 . S
Mg52 O61 2.048 . S
Mg52 O64 2.141 . S
C53 O54 1.313 1_554 S
C53 O60 1.195 . S
O54 C53 1.313 1_556 S
C55 O56 1.245 . S
C55 O64 1.289 1_556 S
O56 C55 1.245 . S
C57 O58 1.245 . S
C57 O59 1.289 . S
O58 C57 1.245 . S
O59 Mg52 2.141 1_556 S
O59 C57 1.289 . S
O60 Mg52 2.048 . S
O60 C53 1.195 . S
O61 Mg52 2.048 . S
O61 C62 1.195 . S
C62 O61 1.195 . S
C62 O63 1.313 . S
O63 C62 1.313 . S
O64 Mg52 2.141 . S
O64 C55 1.289 1_554 S
Mg65 O72 2.141 . S
Mg65 O73 2.048 1_556 S
Mg65 O74 2.048 . S
Mg65 O77 2.141 . S
C66 O67 1.313 . S
C66 O73 1.195 . S
O67 C66 1.313 . S
C68 O69 1.245 . S
C68 O77 1.289 . S
O69 C68 1.245 . S
C70 O71 1.245 . S
C70 O72 1.289 1_554 S
O71 C70 1.245 . S
O72 Mg65 2.141 . S
O72 C70 1.289 1_556 S
O73 Mg65 2.048 1_554 S
O73 C66 1.195 . S
O74 Mg65 2.048 . S
O74 C75 1.195 1_556 S
C75 O74 1.195 1_554 S
C75 O76 1.313 . S
O76 C75 1.313 . S
O77 Mg65 2.141 . S
O77 C68 1.289 . S
Mg78 O85 2.141 . S
Mg78 O86 2.048 . S
Mg78 O87 2.048 1_556 S
Mg78 O90 2.141 . S
C79 O80 1.313 . S
C79 O86 1.195 1_554 S
O80 C79 1.313 . S
C81 O82 1.245 . S
C81 O90 1.289 1_554 S
O82 C81 1.245 . S
C83 O84 1.245 . S
C83 O85 1.289 . S
O84 C83 1.245 . S
O85 Mg78 2.141 . S
O85 C83 1.289 . S
O86 Mg78 2.048 . S
O86 C79 1.195 1_556 S
O87 Mg78 2.048 1_554 S
O87 C88 1.195 . S
C88 O87 1.195 . S
C88 O89 1.313 . S
O89 C88 1.313 . S
O90 Mg78 2.141 . S
O90 C81 1.289 1_556 S
Mg91 O98 2.141 . S
Mg91 O99 2.048 . S
Mg91 O100 2.048 . S
Mg91 O103 2.141 1_554 S
C92 O93 1.313 . S
C92 O99 1.195 . S
O93 C92 1.313 . S
C94 O95 1.245 . S
C94 O103 1.289 . S
O95 C94 1.245 . S
C96 O97 1.245 . S
C96 O98 1.289 1_556 S
O97 C96 1.245 . S
O98 Mg91 2.141 . S
O98 C96 1.289 1_554 S
O99 Mg91 2.048 . S
O99 C92 1.195 . S
O100 Mg91 2.048 . S
O100 C101 1.195 . S
C101 O100 1.195 . S
C101 O102 1.313 1_554 S
O102 C101 1.313 1_556 S
O103 Mg91 2.141 1_556 S
O103 C94 1.289 . S
Mg104 O111 2.141 . S
Mg104 O112 2.048 . S
Mg104 O113 2.048 . S
Mg104 O116 2.141 1_554 S
C105 O106 1.313 . S
C105 O112 1.195 . S
O106 C105 1.313 . S
C107 O108 1.245 . S
C107 O116 1.289 . S
O108 C107 1.245 . S
C109 O110 1.245 . S
C109 O111 1.289 1_556 S
O110 C109 1.245 . S
O111 Mg104 2.141 . S
O111 C109 1.289 1_554 S
O112 Mg104 2.048 . S
O112 C105 1.195 . S
O113 Mg104 2.048 . S
O113 C114 1.195 . S
C114 O113 1.195 . S
C114 O115 1.313 1_554 S
O115 C114 1.313 1_556 S
O116 Mg104 2.141 1_556 S
O116 C107 1.289 . S
Mg117 O124 2.141 . S
Mg117 O125 2.048 . S
Mg117 O126 2.048 . S
Mg117 O129 2.141 1_556 S
C118 O119 1.313 . S
C118 O125 1.195 . S
O119 C118 1.313 . S
C120 O121 1.245 . S
C120 O129 1.289 . S
O121 C120 1.245 . S
C122 O123 1.245 . S
C122 O124 1.289 1_554 S
O123 C122 1.245 . S
O124 Mg117 2.141 . S
O124 C122 1.289 1_556 S
O125 Mg117 2.048 . S
O125 C118 1.195 . S
O126 Mg117 2.048 . S
O126 C127 1.195 . S
C127 O126 1.195 . S
C127 O128 1.313 1_556 S
O128 C127 1.313 1_554 S
O129 Mg117 2.141 1_554 S
O129 C120 1.289 . S
Mg130 O137 2.141 . S
Mg130 O138 2.048 . S
Mg130 O139 2.048 . S
Mg130 O142 2.141 1_556 S
C131 O132 1.313 . S
C131 O138 1.195 . S
O132 C131 1.313 . S
C133 O134 1.245 . S
C133 O142 1.289 . S
O134 C133 1.245 . S
C135 O136 1.245 . S
C135 O137 1.289 1_554 S
O136 C135 1.245 . S
O137 Mg130 2.141 . S
O137 C135 1.289 1_556 S
O138 Mg130 2.048 . S
O138 C131 1.195 . S
O139 Mg130 2.048 . S
O139 C140 1.195 . S
C140 O139 1.195 . S
C140 O141 1.313 1_556 S
O141 C140 1.313 1_554 S
O142 Mg130 2.141 1_554 S
O142 C133 1.289 . S
Mg143 O150 2.141 . S
Mg143 O151 2.048 . S
Mg143 O152 2.048 1_554 S
Mg143 O155 2.141 . S
C144 O145 1.313 . S
C144 O151 1.195 1_556 S
O145 C144 1.313 . S
C146 O147 1.245 . S
C146 O155 1.289 1_556 S
O147 C146 1.245 . S
C148 O149 1.245 . S
C148 O150 1.289 . S
O149 C148 1.245 . S
O150 Mg143 2.141 . S
O150 C148 1.289 . S
O151 Mg143 2.048 . S
O151 C144 1.195 1_554 S
O152 Mg143 2.048 1_556 S
O152 C153 1.195 . S
C153 O152 1.195 . S
C153 O154 1.313 . S
O154 C153 1.313 . S
O155 Mg143 2.141 . S
O155 C146 1.289 1_554 S
Mg156 O163 2.141 . S
Mg156 O164 2.048 . S
Mg156 O165 2.048 . S
Mg156 O168 2.141 . S
C157 O158 1.313 . S
C157 O164 1.195 . S
O158 C157 1.313 . S
C159 O160 1.245 . S
C159 O168 1.289 . S
O160 C159 1.245 . S
C161 O162 1.245 . S
C161 O163 1.289 . S
O162 C161 1.245 . S
O163 Mg156 2.141 . S
O163 C161 1.289 . S
O164 Mg156 2.048 . S
O164 C157 1.195 . S
O165 Mg156 2.048 . S
O165 C166 1.195 . S
C166 O165 1.195 . S
C166 O167 1.313 . S
O167 C166 1.313 . S
O168 Mg156 2.141 . S
O168 C159 1.289 . S
Mg169 O176 2.141 . S
Mg169 O177 2.048 1_545 S
Mg169 O178 2.048 . S
Mg169 O181 2.141 . S
C170 O171 1.313 1_565 S
C170 O177 1.195 . S
O171 C170 1.313 1_545 S
C172 O173 1.245 . S
C172 O181 1.289 . S
O173 C172 1.245 . S
C174 O175 1.245 . S
C174 O176 1.289 . S
O175 C174 1.245 . S
O176 Mg169 2.141 . S
O176 C174 1.289 . S
O177 Mg169 2.048 1_565 S
O177 C170 1.195 . S
O178 Mg169 2.048 . S
O178 C179 1.195 . S
C179 O178 1.195 . S
C179 O180 1.313 . S
O180 C179 1.313 . S
O181 Mg169 2.141 . S
O181 C172 1.289 . S
Mg182 O189 2.141 . S
Mg182 O190 2.048 . S
Mg182 O191 2.048 . S
Mg182 O194 2.141 . S
C183 O184 1.313 . S
C183 O190 1.195 . S
O184 C183 1.313 . S
C185 O186 1.214 1_655 S
C185 O194 1.289 . S
O186 C185 1.214 1_455 S
C187 O188 1.245 . S
C187 O189 1.289 . S
O188 C187 1.245 . S
O189 Mg182 2.141 . S
O189 C187 1.289 . S
O190 Mg182 2.048 . S
O190 C183 1.195 . S
O191 Mg182 2.048 . S
O191 C192 1.195 1_655 S
C192 O191 1.195 1_455 S
C192 O193 1.313 . S
O193 C192 1.313 . S
O194 Mg182 2.141 . S
O194 C185 1.289 . S
Mg195 O202 2.141 . S
Mg195 O203 2.048 . S
Mg195 O204 2.048 . S
Mg195 O207 2.141 . S
C196 O197 1.313 . S
C196 O203 1.195 . S
O197 C196 1.313 . S
C198 O199 1.245 . S
C198 O207 1.289 . S
O199 C198 1.245 . S
C200 O201 1.245 . S
C200 O202 1.289 . S
O201 C200 1.245 . S
O202 Mg195 2.141 . S
O202 C200 1.289 . S
O203 Mg195 2.048 . S
O203 C196 1.195 . S
O204 Mg195 2.048 . S
O204 C205 1.195 . S
C205 O204 1.195 . S
C205 O206 1.313 . S
O206 C205 1.313 . S
O207 Mg195 2.141 . S
O207 C198 1.289 . S
Mg208 O215 2.141 . S
Mg208 O216 2.048 . S
Mg208 O217 2.048 . S
Mg208 O220 2.141 . S
C209 O210 1.313 . S
C209 O216 1.195 . S
O210 C209 1.313 . S
C211 O212 1.245 . S
C211 O220 1.289 . S
O212 C211 1.245 . S
C213 O214 1.245 . S
C213 O215 1.289 . S
O214 C213 1.245 . S
O215 Mg208 2.141 . S
O215 C213 1.289 . S
O216 Mg208 2.048 . S
O216 C209 1.195 . S
O217 Mg208 2.048 . S
O217 C218 1.195 . S
C218 O217 1.195 . S
C218 O219 1.313 . S
O219 C218 1.313 . S
O220 Mg208 2.141 . S
O220 C211 1.289 . S
Mg221 O228 2.141 . S
Mg221 O229 2.048 . S
Mg221 O230 2.048 . S
Mg221 O233 2.141 . S
C222 O223 1.313 . S
C222 O229 1.195 . S
O223 C222 1.313 . S
C224 O225 1.245 . S
C224 O233 1.289 . S
O225 C224 1.245 . S
C226 O227 1.245 . S
C226 O228 1.289 . S
O227 C226 1.245 . S
O228 Mg221 2.141 . S
O228 C226 1.289 . S
O229 Mg221 2.048 . S
O229 C222 1.195 . S
O230 Mg221 2.048 . S
O230 C231 1.195 . S
C231 O230 1.195 . S
C231 O232 1.313 . S
O232 C231 1.313 . S
O233 Mg221 2.141 . S
O233 C224 1.289 . S
Mg234 O241 2.141 . S
Mg234 O242 2.048 . S
Mg234 O243 2.048 . S
Mg234 O246 2.141 . S
C235 O236 1.313 . S
C235 O242 1.195 . S
O236 C235 1.313 . S
C237 O238 1.245 . S
C237 O246 1.289 . S
O238 C237 1.245 . S
C239 O240 1.245 . S
C239 O241 1.289 . S
O240 C239 1.245 . S
O241 Mg234 2.141 . S
O241 C239 1.289 . S
O242 Mg234 2.048 . S
O242 C235 1.195 . S
O243 Mg234 2.048 . S
O243 C244 1.195 . S
C244 O243 1.195 . S
C244 O245 1.313 . S
O245 C244 1.313 . S
O246 Mg234 2.141 . S
O246 C237 1.289 . S
Mg247 O254 2.141 . S
Mg247 O255 2.048 . S
Mg247 O256 2.048 . S
Mg247 O259 2.141 . S
C248 O249 1.313 . S
C248 O255 1.195 . S
O249 C248 1.313 . S
C250 O251 1.245 . S
C250 O259 1.289 . S
O251 C250 1.245 . S
C252 O253 1.245 . S
C252 O254 1.289 . S
O253 C252 1.245 . S
O254 Mg247 2.141 . S
O254 C252 1.289 . S
O255 Mg247 2.048 . S
O255 C248 1.195 . S
O256 Mg247 2.048 . S
O256 C257 1.195 . S
C257 O256 1.195 . S
C257 O258 1.313 . S
O258 C257 1.313 . S
O259 Mg247 2.141 . S
O259 C250 1.289 . S
Mg260 O267 2.141 . S
Mg260 O268 2.048 . S
Mg260 O269 2.048 . S
Mg260 O272 2.141 . S
C261 O262 1.313 . S
C261 O268 1.195 . S
O262 C261 1.313 . S
C263 O264 1.245 . S
C263 O272 1.289 . S
O264 C263 1.245 . S
C265 O266 1.245 . S
C265 O267 1.289 . S
O266 C265 1.245 . S
O267 Mg260 2.141 . S
O267 C265 1.289 . S
O268 Mg260 2.048 . S
O268 C261 1.195 . S
O269 Mg260 2.048 . S
O269 C270 1.195 . S
C270 O269 1.195 . S
C270 O271 1.313 . S
O271 C270 1.313 . S
O272 Mg260 2.141 . S
O272 C263 1.289 . S
Mg273 O280 2.141 . S
Mg273 O281 2.048 . S
Mg273 O282 2.048 . S
Mg273 O285 2.141 . S
C274 O275 1.313 . S
C274 O281 1.195 . S
O275 C274 1.313 . S
C276 O277 1.245 . S
C276 O285 1.289 . S
O277 C276 1.245 . S
C278 O279 1.245 . S
C278 O280 1.289 . S
O279 C278 1.245 . S
O280 Mg273 2.141 . S
O280 C278 1.289 . S
O281 Mg273 2.048 . S
O281 C274 1.195 . S
O282 Mg273 2.048 . S
O282 C283 1.195 . S
C283 O282 1.195 . S
C283 O284 1.313 . S
O284 C283 1.313 . S
O285 Mg273 2.141 . S
O285 C276 1.289 . S
Mg286 O293 2.141 . S
Mg286 O294 2.048 . S
Mg286 O295 2.048 1_545 S
Mg286 O298 2.141 . S
C287 O288 1.313 . S
C287 O294 1.195 . S
O288 C287 1.313 . S
C289 O290 1.245 . S
C289 O298 1.289 . S
O290 C289 1.245 . S
C291 O292 1.245 . S
C291 O293 1.289 . S
O292 C291 1.245 . S
O293 Mg286 2.141 . S
O293 C291 1.289 . S
O294 Mg286 2.048 . S
O294 C287 1.195 . S
O295 Mg286 2.048 1_565 S
O295 C296 1.195 . S
C296 O295 1.195 . S
C296 O297 1.313 1_565 S
O297 C296 1.313 1_545 S
O298 Mg286 2.141 . S
O298 C289 1.289 . S
Mg299 O306 2.141 . S
Mg299 O307 2.048 . S
Mg299 O308 2.048 . S
Mg299 O311 2.141 . S
C300 O301 1.313 . S
C300 O307 1.195 1_455 S
O301 C300 1.313 . S
C302 O303 1.245 . S
C302 O311 1.289 . S
O303 C302 1.245 . S
C304 O305 1.234 1_655 S
C304 O306 1.289 . S
O305 C304 1.234 1_455 S
O306 Mg299 2.141 . S
O306 C304 1.289 . S
O307 Mg299 2.048 . S
O307 C300 1.195 1_655 S
O308 Mg299 2.048 . S
O308 C309 1.195 . S
C309 O308 1.195 . S
C309 O310 1.313 . S
O310 C309 1.313 . S
O311 Mg299 2.141 . S
O311 C302 1.289 . S
Mg312 O319 2.141 . S
Mg312 O320 2.048 . S
Mg312 O321 2.048 . S
Mg312 O324 2.141 . S
C313 O314 1.313 . S
C313 O320 1.195 . S
O314 C313 1.313 . S
C315 O316 1.245 . S
C315 O324 1.289 . S
O316 C315 1.245 . S
C317 O318 1.245 . S
C317 O319 1.289 . S
O318 C317 1.245 . S
O319 Mg312 2.141 . S
O319 C317 1.289 . S
O320 Mg312 2.048 . S
O320 C313 1.195 . S
O321 Mg312 2.048 . S
O321 C322 1.195 . S
C322 O321 1.195 . S
C322 O323 1.313 . S
O323 C322 1.313 . S
O324 Mg312 2.141 . S
O324 C315 1.289 . S
Mg325 O332 2.141 . S
Mg325 O333 2.048 . S
Mg325 O334 2.048 . S
Mg325 O337 2.141 . S
C326 O327 1.313 . S
C326 O333 1.195 . S
O327 C326 1.313 . S
C328 O329 1.245 . S
C328 O337 1.289 . S
O329 C328 1.245 . S
C330 O331 1.245 . S
C330 O332 1.289 . S
O331 C330 1.245 . S
O332 Mg325 2.141 . S
O332 C330 1.289 . S
O333 Mg325 2.048 . S
O333 C326 1.195 . S
O334 Mg325 2.048 . S
O334 C335 1.195 . S
C335 O334 1.195 . S
C335 O336 1.313 . S
O336 C335 1.313 . S
O337 Mg325 2.141 . S
O337 C328 1.289 . S
Mg338 O345 2.141 . S
Mg338 O346 2.048 . S
Mg338 O347 2.048 . S
Mg338 O350 2.141 . S
C339 O340 1.313 . S
C339 O346 1.195 . S
O340 C339 1.313 . S
C341 O342 1.245 . S
C341 O350 1.289 . S
O342 C341 1.245 . S
C343 O344 1.245 . S
C343 O345 1.289 . S
O344 C343 1.245 . S
O345 Mg338 2.141 . S
O345 C343 1.289 . S
O346 Mg338 2.048 . S
O346 C339 1.195 . S
O347 Mg338 2.048 . S
O347 C348 1.195 . S
C348 O347 1.195 . S
C348 O349 1.313 . S
O349 C348 1.313 . S
O350 Mg338 2.141 . S
O350 C341 1.289 . S
Mg351 O358 2.141 . S
Mg351 O359 2.048 . S
Mg351 O360 2.048 . S
Mg351 O363 2.141 . S
C352 O353 1.313 . S
C352 O359 1.195 . S
O353 C352 1.313 . S
C354 O355 1.245 . S
C354 O363 1.289 . S
O355 C354 1.245 . S
C356 O357 1.245 . S
C356 O358 1.289 . S
O357 C356 1.245 . S
O358 Mg351 2.141 . S
O358 C356 1.289 . S
O359 Mg351 2.048 . S
O359 C352 1.195 . S
O360 Mg351 2.048 . S
O360 C361 1.195 . S
C361 O360 1.195 . S
C361 O362 1.313 . S
O362 C361 1.313 . S
O363 Mg351 2.141 . S
O363 C354 1.289 . S
Mg364 O371 2.141 . S
Mg364 O372 2.048 1_565 S
Mg364 O373 2.048 . S
Mg364 O376 2.141 . S
C365 O366 1.313 1_545 S
C365 O372 1.195 . S
O366 C365 1.313 1_565 S
C367 O368 1.245 . S
C367 O376 1.289 . S
O368 C367 1.245 . S
C369 O370 1.245 . S
C369 O371 1.289 . S
O370 C369 1.245 . S
O371 Mg364 2.141 . S
O371 C369 1.289 . S
O372 Mg364 2.048 1_545 S
O372 C365 1.195 . S
O373 Mg364 2.048 . S
O373 C374 1.195 . S
C374 O373 1.195 . S
C374 O375 1.313 . S
O375 C374 1.313 . S
O376 Mg364 2.141 . S
O376 C367 1.289 . S
Mg377 O384 2.141 . S
Mg377 O385 2.048 . S
Mg377 O386 2.048 . S
Mg377 O389 2.141 . S
C378 O379 1.313 . S
C378 O385 1.195 . S
O379 C378 1.313 . S
C380 O381 1.234 1_455 S
C380 O389 1.289 . S
O381 C380 1.234 1_655 S
C382 O383 1.245 . S
C382 O384 1.289 . S
O383 C382 1.245 . S
O384 Mg377 2.141 . S
O384 C382 1.289 . S
O385 Mg377 2.048 . S
O385 C378 1.195 . S
O386 Mg377 2.048 . S
O386 C387 1.195 1_455 S
C387 O386 1.195 1_655 S
C387 O388 1.313 . S
O388 C387 1.313 . S
O389 Mg377 2.141 . S
O389 C380 1.289 . S
Mg390 O397 2.141 . S
Mg390 O398 2.048 . S
Mg390 O399 2.048 . S
Mg390 O402 2.141 . S
C391 O392 1.313 . S
C391 O398 1.195 . S
O392 C391 1.313 . S
C393 O394 1.245 . S
C393 O402 1.289 . S
O394 C393 1.245 . S
C395 O396 1.245 . S
C395 O397 1.289 . S
O396 C395 1.245 . S
O397 Mg390 2.141 . S
O397 C395 1.289 . S
O398 Mg390 2.048 . S
O398 C391 1.195 . S
O399 Mg390 2.048 . S
O399 C400 1.195 . S
C400 O399 1.195 . S
C400 O401 1.313 . S
O401 C400 1.313 . S
O402 Mg390 2.141 . S
O402 C393 1.289 . S
Mg403 O410 2.141 . S
Mg403 O411 2.048 . S
Mg403 O412 2.048 1_565 S
Mg403 O415 2.141 . S
C404 O405 1.313 . S
C404 O411 1.195 . S
O405 C404 1.313 . S
C406 O407 1.245 . S
C406 O415 1.289 . S
O407 C406 1.245 . S
C408 O409 1.245 . S
C408 O410 1.289 . S
O409 C408 1.245 . S
O410 Mg403 2.141 . S
O410 C408 1.289 . S
O411 Mg403 2.048 . S
O411 C404 1.195 . S
O412 Mg403 2.048 1_545 S
O412 C413 1.195 . S
C413 O412 1.195 . S
C413 O414 1.313 1_545 S
O414 C413 1.313 1_565 S
O415 Mg403 2.141 . S
O415 C406 1.289 . S
Mg416 O423 2.141 . S
Mg416 O424 2.048 . S
Mg416 O425 2.048 1_455 S
Mg416 O428 2.141 . S
C417 O418 1.313 . S
C417 O424 1.195 . S
O418 C417 1.313 . S
C419 O420 1.245 . S
C419 O428 1.289 . S
O420 C419 1.245 . S
C421 O422 1.245 . S
C421 O423 1.289 . S
O422 C421 1.245 . S
O423 Mg416 2.141 . S
O423 C421 1.289 . S
O424 Mg416 2.048 . S
O424 C417 1.195 . S
O425 Mg416 2.048 1_655 S
O425 C426 1.195 . S
C426 O425 1.195 . S
C426 O427 1.313 1_655 S
O427 C426 1.313 1_455 S
O428 Mg416 2.141 . S
O428 C419 1.289 . S
Mg429 O436 2.141 . S
Mg429 O437 2.048 . S
Mg429 O438 2.048 . S
Mg429 O441 2.141 . S
C430 O431 1.313 . S
C430 O437 1.195 . S
O431 C430 1.313 . S
C432 O433 1.245 . S
C432 O441 1.289 . S
O433 C432 1.245 . S
C434 O435 1.245 . S
C434 O436 1.289 . S
O435 C434 1.245 . S
O436 Mg429 2.141 . S
O436 C434 1.289 . S
O437 Mg429 2.048 . S
O437 C430 1.195 . S
O438 Mg429 2.048 . S
O438 C439 1.195 . S
C439 O438 1.195 . S
C439 O440 1.313 . S
O440 C439 1.313 . S
O441 Mg429 2.141 . S
O441 C432 1.289 . S
Mg442 O449 2.141 . S
Mg442 O450 2.048 . S
Mg442 O451 2.048 . S
Mg442 O454 2.141 . S
C443 O444 1.313 . S
C443 O450 1.195 . S
O444 C443 1.313 . S
C445 O446 1.245 . S
C445 O454 1.289 . S
O446 C445 1.245 . S
C447 O448 1.245 . S
C447 O449 1.289 . S
O448 C447 1.245 . S
O449 Mg442 2.141 . S
O449 C447 1.289 . S
O450 Mg442 2.048 . S
O450 C443 1.195 . S
O451 Mg442 2.048 . S
O451 C452 1.195 . S
C452 O451 1.195 . S
C452 O453 1.313 . S
O453 C452 1.313 . S
O454 Mg442 2.141 . S
O454 C445 1.289 . S
Mg455 O462 2.141 . S
Mg455 O463 2.048 . S
Mg455 O464 2.048 . S
Mg455 O467 2.141 . S
C456 O457 1.313 . S
C456 O463 1.195 . S
O457 C456 1.313 . S
C458 O459 1.245 . S
C458 O467 1.289 . S
O459 C458 1.245 . S
C460 O461 1.245 . S
C460 O462 1.289 . S
O461 C460 1.245 . S
O462 Mg455 2.141 . S
O462 C460 1.289 . S
O463 Mg455 2.048 . S
O463 C456 1.195 . S
O464 Mg455 2.048 . S
O464 C465 1.195 . S
C465 O464 1.195 . S
C465 O466 1.313 . S
O466 C465 1.313 . S
O467 Mg455 2.141 . S
O467 C458 1.289 . S
C468 C469 1.369 1_556 S
C468 C470 1.419 1_655 S
C468 H472 0.930 . S
C469 C468 1.369 1_554 S
C469 C478 1.429 . S
C470 C468 1.419 1_455 S
C470 C471 1.381 . S
C470 H473 0.929 . S
C471 C470 1.381 . S
C471 C477 1.409 1_556 S
H472 C468 0.930 . S
H473 C470 0.929 . S
S474 N475 1.613 1_455 S
S474 N476 1.610 . S
N475 S474 1.613 1_655 S
N475 C478 1.350 . S
N476 S474 1.610 . S
N476 C477 1.351 . S
C477 C471 1.409 1_554 S
C477 N476 1.351 . S
C477 C478 1.434 1_455 S
C478 C469 1.429 . S
C478 N475 1.350 . S
C478 C477 1.434 1_655 S
C479 C480 1.373 . S
C479 C481 1.419 . S
C479 H483 0.930 . S
C480 C479 1.373 . S
C480 C489 1.424 1_554 S
C481 C479 1.419 . S
C481 C482 1.363 1_554 S
C481 H484 0.929 . S
C482 C481 1.363 1_556 S
C482 C488 1.428 . S
H483 C479 0.930 . S
H484 C481 0.929 . S
S485 N486 1.613 . S
S485 N487 1.610 . S
N486 S485 1.613 . S
N486 C489 1.350 . S
N487 S485 1.610 . S
N487 C488 1.351 . S
C488 C482 1.428 . S
C488 N487 1.351 . S
C488 C489 1.434 . S
C489 C480 1.424 1_556 S
C489 N486 1.350 . S
C489 C488 1.434 . S
C490 C491 1.369 1_556 S
C490 C492 1.419 1_545 S
C490 H494 0.930 . S
C491 C490 1.369 1_554 S
C491 C500 1.429 . S
C492 C490 1.419 1_565 S
C492 C493 1.363 . S
C492 H495 0.929 . S
C493 C492 1.363 . S
C493 C499 1.428 1_556 S
H494 C490 0.930 . S
H495 C492 0.929 . S
S496 N497 1.613 1_565 S
S496 N498 1.610 . S
N497 S496 1.613 1_545 S
N497 C500 1.350 . S
N498 S496 1.610 . S
N498 C499 1.351 . S
C499 C493 1.428 1_554 S
C499 N498 1.351 . S
C499 C500 1.434 1_565 S
C500 C491 1.429 . S
C500 N497 1.350 . S
C500 C499 1.434 1_545 S
C501 C502 1.375 . S
C501 C503 1.419 1_455 S
C501 H505 0.930 . S
C502 C501 1.375 . S
C502 C511 1.422 1_556 S
C503 C501 1.419 1_655 S
C503 C504 1.363 1_556 S
C503 H506 0.929 . S
C504 C503 1.363 1_554 S
C504 C510 1.428 . S
H505 C501 0.930 . S
H506 C503 0.929 . S
S507 N508 1.649 . S
S507 N509 1.596 1_455 S
N508 S507 1.649 . S
N508 C511 1.350 . S
N509 S507 1.596 1_655 S
N509 C510 1.351 . S
C510 C504 1.428 . S
C510 N509 1.351 . S
C510 C511 1.434 1_655 S
C511 C502 1.422 1_554 S
C511 N508 1.350 . S
C511 C510 1.434 1_455 S
C512 C513 1.369 1_556 S
C512 C514 1.419 . S
C512 H516 0.930 . S
C513 C512 1.369 1_554 S
C513 C522 1.429 . S
C514 C512 1.419 . S
C514 C515 1.363 . S
C514 H517 0.929 . S
C515 C514 1.363 . S
C515 C521 1.428 1_556 S
H516 C512 0.930 . S
H517 C514 0.929 . S
S518 N519 1.613 . S
S518 N520 1.610 . S
N519 S518 1.613 . S
N519 C522 1.350 . S
N520 S518 1.610 . S
N520 C521 1.351 . S
C521 C515 1.428 1_554 S
C521 N520 1.351 . S
C521 C522 1.434 . S
C522 C513 1.429 . S
C522 N519 1.350 . S
C522 C521 1.434 . S
C523 C524 1.369 1_554 S
C523 C525 1.419 1_565 S
C523 H527 0.930 . S
C524 C523 1.369 1_556 S
C524 C533 1.429 . S
C525 C523 1.419 1_545 S
C525 C526 1.363 . S
C525 H528 0.929 . S
C526 C525 1.363 . S
C526 C532 1.428 1_554 S
H527 C523 0.930 . S
H528 C525 0.929 . S
S529 N530 1.613 1_545 S
S529 N531 1.610 . S
N530 S529 1.613 1_565 S
N530 C533 1.350 . S
N531 S529 1.610 . S
N531 C532 1.351 . S
C532 C526 1.428 1_556 S
C532 N531 1.351 . S
C532 C533 1.434 1_545 S
C533 C524 1.429 . S
C533 N530 1.350 . S
C533 C532 1.434 1_565 S
C534 C535 1.369 . S
C534 C536 1.419 . S
C534 H538 0.930 . S
C535 C534 1.369 . S
C535 C544 1.429 . S
C536 C534 1.419 . S
C536 C537 1.363 . S
C536 H539 0.929 . S
C537 C536 1.363 . S
C537 C543 1.428 . S
H538 C534 0.930 . S
H539 C536 0.929 . S
S540 N541 1.613 . S
S540 N542 1.610 . S
N541 S540 1.613 . S
N541 C544 1.350 . S
N542 S540 1.610 . S
N542 C543 1.351 . S
C543 C537 1.428 . S
C543 N542 1.351 . S
C543 C544 1.434 . S
C544 C535 1.429 . S
C544 N541 1.350 . S
C544 C543 1.434 . S
C545 C546 1.369 . S
C545 C547 1.419 . S
C545 H549 0.930 . S
C546 C545 1.369 . S
C546 C555 1.429 . S
C547 C545 1.419 . S
C547 C548 1.363 . S
C547 H550 0.929 . S
C548 C547 1.363 . S
C548 C554 1.428 . S
H549 C545 0.930 . S
H550 C547 0.929 . S
S551 N552 1.613 . S
S551 N553 1.610 . S
N552 S551 1.613 . S
N552 C555 1.350 . S
N553 S551 1.610 . S
N553 C554 1.351 . S
C554 C548 1.428 . S
C554 N553 1.351 . S
C554 C555 1.434 . S
C555 C546 1.429 . S
C555 N552 1.350 . S
C555 C554 1.434 . S
C556 C557 1.369 . S
C556 C558 1.419 . S
C556 H560 0.930 . S
C557 C556 1.369 . S
C557 C566 1.429 . S
C558 C556 1.419 . S
C558 C559 1.363 . S
C558 H561 0.929 . S
C559 C558 1.363 . S
C559 C565 1.428 . S
H560 C556 0.930 . S
H561 C558 0.929 . S
S562 N563 1.613 . S
S562 N564 1.610 . S
N563 S562 1.613 . S
N563 C566 1.350 . S
N564 S562 1.610 . S
N564 C565 1.351 . S
C565 C559 1.428 . S
C565 N564 1.351 . S
C565 C566 1.434 . S
C566 C557 1.429 . S
C566 N563 1.350 . S
C566 C565 1.434 . S
C567 C568 1.369 . S
C567 C569 1.419 . S
C567 H571 0.930 . S
C568 C567 1.369 . S
C568 C577 1.429 . S
C569 C567 1.419 . S
C569 C570 1.363 . S
C569 H572 0.929 . S
C570 C569 1.363 . S
C570 C576 1.428 . S
H571 C567 0.930 . S
H572 C569 0.929 . S
S573 N574 1.613 . S
S573 N575 1.610 . S
N574 S573 1.613 . S
N574 C577 1.350 . S
N575 S573 1.610 . S
N575 C576 1.351 . S
C576 C570 1.428 . S
C576 N575 1.351 . S
C576 C577 1.434 . S
C577 C568 1.429 . S
C577 N574 1.350 . S
C577 C576 1.434 . S
C578 C579 1.369 . S
C578 C580 1.419 . S
C578 H582 0.930 . S
C579 C578 1.369 . S
C579 C588 1.429 . S
C580 C578 1.419 . S
C580 C581 1.363 . S
C580 H583 0.929 . S
C581 C580 1.363 . S
C581 C587 1.428 . S
H582 C578 0.930 . S
H583 C580 0.929 . S
S584 N585 1.613 . S
S584 N586 1.610 . S
N585 S584 1.613 . S
N585 C588 1.350 . S
N586 S584 1.610 . S
N586 C587 1.351 . S
C587 C581 1.428 . S
C587 N586 1.351 . S
C587 C588 1.434 . S
C588 C579 1.429 . S
C588 N585 1.350 . S
C588 C587 1.434 . S
C589 C590 1.369 . S
C589 C591 1.419 . S
C589 H593 0.930 . S
C590 C589 1.369 . S
C590 C599 1.429 . S
C591 C589 1.419 . S
C591 C592 1.363 . S
C591 H594 0.929 . S
C592 C591 1.363 . S
C592 C598 1.428 . S
H593 C589 0.930 . S
H594 C591 0.929 . S
S595 N596 1.613 . S
S595 N597 1.610 . S
N596 S595 1.613 . S
N596 C599 1.350 . S
N597 S595 1.610 . S
N597 C598 1.351 . S
C598 C592 1.428 . S
C598 N597 1.351 . S
C598 C599 1.434 . S
C599 C590 1.429 . S
C599 N596 1.350 . S
C599 C598 1.434 . S
C600 C601 1.369 . S
C600 C602 1.419 . S
C600 H604 0.930 . S
C601 C600 1.369 . S
C601 C610 1.429 . S
C602 C600 1.419 . S
C602 C603 1.363 . S
C602 H605 0.929 . S
C603 C602 1.363 . S
C603 C609 1.428 . S
H604 C600 0.930 . S
H605 C602 0.929 . S
S606 N607 1.613 . S
S606 N608 1.610 . S
N607 S606 1.613 . S
N607 C610 1.350 . S
N608 S606 1.610 . S
N608 C609 1.351 . S
C609 C603 1.428 . S
C609 N608 1.351 . S
C609 C610 1.434 . S
C610 C601 1.429 . S
C610 N607 1.350 . S
C610 C609 1.434 . S
C611 C612 1.369 . S
C611 C613 1.419 . S
C611 H615 0.930 . S
C612 C611 1.369 . S
C612 C621 1.429 . S
C613 C611 1.419 . S
C613 C614 1.363 . S
C613 H616 0.929 . S
C614 C613 1.363 . S
C614 C620 1.428 . S
H615 C611 0.930 . S
H616 C613 0.929 . S
S617 N618 1.613 . S
S617 N619 1.610 . S
N618 S617 1.613 . S
N618 C621 1.350 . S
N619 S617 1.610 . S
N619 C620 1.351 . S
C620 C614 1.428 . S
C620 N619 1.351 . S
C620 C621 1.434 . S
C621 C612 1.429 . S
C621 N618 1.350 . S
C621 C620 1.434 . S
C622 C623 1.369 . S
C622 C624 1.419 . S
C622 H626 0.930 . S
C623 C622 1.369 . S
C623 C632 1.429 . S
C624 C622 1.419 . S
C624 C625 1.363 . S
C624 H627 0.929 . S
C625 C624 1.363 . S
C625 C631 1.428 . S
H626 C622 0.930 . S
H627 C624 0.929 . S
S628 N629 1.613 . S
S628 N630 1.610 . S
N629 S628 1.613 . S
N629 C632 1.350 . S
N630 S628 1.610 . S
N630 C631 1.351 . S
C631 C625 1.428 . S
C631 N630 1.351 . S
C631 C632 1.434 . S
C632 C623 1.429 . S
C632 N629 1.350 . S
C632 C631 1.434 . S
C633 C634 1.369 . S
C633 C635 1.419 . S
C633 H637 0.930 . S
C634 C633 1.369 . S
C634 C643 1.429 . S
C635 C633 1.419 . S
C635 C636 1.363 . S
C635 H638 0.929 . S
C636 C635 1.363 . S
C636 C642 1.428 . S
H637 C633 0.930 . S
H638 C635 0.929 . S
S639 N640 1.613 . S
S639 N641 1.610 . S
N640 S639 1.613 . S
N640 C643 1.350 . S
N641 S639 1.610 . S
N641 C642 1.351 . S
C642 C636 1.428 . S
C642 N641 1.351 . S
C642 C643 1.434 . S
C643 C634 1.429 . S
C643 N640 1.350 . S
C643 C642 1.434 . S
C644 C645 1.369 . S
C644 C646 1.419 . S
C644 H648 0.930 . S
C645 C644 1.369 . S
C645 C654 1.429 . S
C646 C644 1.419 . S
C646 C647 1.363 . S
C646 H649 0.929 . S
C647 C646 1.363 . S
C647 C653 1.428 . S
H648 C644 0.930 . S
H649 C646 0.929 . S
S650 N651 1.613 . S
S650 N652 1.610 . S
N651 S650 1.613 . S
N651 C654 1.350 . S
N652 S650 1.610 . S
N652 C653 1.351 . S
C653 C647 1.428 . S
C653 N652 1.351 . S
C653 C654 1.434 . S
C654 C645 1.429 . S
C654 N651 1.350 . S
C654 C653 1.434 . S
C655 C656 1.369 . S
C655 C657 1.419 . S
C655 H659 0.930 . S
C656 C655 1.369 . S
C656 C665 1.429 . S
C657 C655 1.419 . S
C657 C658 1.363 . S
C657 H660 0.929 . S
C658 C657 1.363 . S
C658 C664 1.428 . S
H659 C655 0.930 . S
H660 C657 0.929 . S
S661 N662 1.613 . S
S661 N663 1.610 1_455 S
N662 S661 1.613 . S
N662 C665 1.350 1_455 S
N663 S661 1.610 1_655 S
N663 C664 1.351 . S
C664 C658 1.428 . S
C664 N663 1.351 . S
C664 C665 1.434 . S
C665 C656 1.429 . S
C665 N662 1.350 1_655 S
C665 C664 1.434 . S
C666 C667 1.369 . S
C666 C668 1.419 . S
C666 H670 0.930 . S
C667 C666 1.369 . S
C667 C676 1.429 1_556 S
C668 C666 1.419 . S
C668 C669 1.363 . S
C668 H671 0.929 . S
C669 C668 1.363 . S
C669 C675 1.428 1_556 S
H670 C666 0.930 . S
H671 C668 0.929 . S
S672 N673 1.613 . S
S672 N674 1.610 . S
N673 S672 1.613 . S
N673 C676 1.350 . S
N674 S672 1.610 . S
N674 C675 1.351 . S
C675 C669 1.428 1_554 S
C675 N674 1.351 . S
C675 C676 1.434 . S
C676 C667 1.429 1_554 S
C676 N673 1.350 . S
C676 C675 1.434 . S
C677 C678 1.369 . S
C677 C679 1.419 . S
C677 H681 0.930 . S
C678 C677 1.369 . S
C678 C687 1.429 1_556 S
C679 C677 1.419 . S
C679 C680 1.363 . S
C679 H682 0.929 . S
C680 C679 1.363 . S
C680 C686 1.428 1_556 S
H681 C677 0.930 . S
H682 C679 0.929 . S
S683 N684 1.613 . S
S683 N685 1.610 . S
N684 S683 1.613 . S
N684 C687 1.350 . S
N685 S683 1.610 . S
N685 C686 1.351 . S
C686 C680 1.428 1_554 S
C686 N685 1.351 . S
C686 C687 1.434 . S
C687 C678 1.429 1_554 S
C687 N684 1.350 . S
C687 C686 1.434 . S
C688 C689 1.369 1_554 S
C688 C690 1.419 . S
C688 H692 0.930 . S
C689 C688 1.369 1_556 S
C689 C698 1.429 . S
C690 C688 1.419 . S
C690 C691 1.363 1_554 S
C690 H693 0.929 . S
C691 C690 1.363 1_556 S
C691 C697 1.428 . S
H692 C688 0.930 . S
H693 C690 0.929 . S
S694 N695 1.613 . S
S694 N696 1.610 . S
N695 S694 1.613 . S
N695 C698 1.350 . S
N696 S694 1.610 . S
N696 C697 1.351 . S
C697 C691 1.428 . S
C697 N696 1.351 . S
C697 C698 1.434 . S
C698 C689 1.429 . S
C698 N695 1.350 . S
C698 C697 1.434 . S
C699 C700 1.369 1_556 S
C699 C701 1.419 . S
C699 H703 0.930 . S
C700 C699 1.369 1_554 S
C700 C709 1.429 . S
C701 C699 1.419 . S
C701 C702 1.363 1_556 S
C701 H704 0.929 . S
C702 C701 1.363 1_554 S
C702 C708 1.428 . S
H703 C699 0.930 . S
H704 C701 0.929 . S
S705 N706 1.613 . S
S705 N707 1.610 . S
N706 S705 1.613 . S
N706 C709 1.350 . S
N707 S705 1.610 . S
N707 C708 1.351 . S
C708 C702 1.428 . S
C708 N707 1.351 . S
C708 C709 1.434 . S
C709 C700 1.429 . S
C709 N706 1.350 . S
C709 C708 1.434 . S
C710 C711 1.369 . S
C710 C712 1.419 . S
C710 H714 0.930 . S
C711 C710 1.369 . S
C711 C720 1.429 1_554 S
C712 C710 1.419 . S
C712 C713 1.363 . S
C712 H715 0.929 . S
C713 C712 1.363 . S
C713 C719 1.428 1_554 S
H714 C710 0.930 . S
H715 C712 0.929 . S
S716 N717 1.613 . S
S716 N718 1.610 . S
N717 S716 1.613 . S
N717 C720 1.350 . S
N718 S716 1.610 . S
N718 C719 1.351 . S
C719 C713 1.428 1_556 S
C719 N718 1.351 . S
C719 C720 1.434 . S
C720 C711 1.429 1_556 S
C720 N717 1.350 . S
C720 C719 1.434 . S
C721 C722 1.369 . S
C721 C723 1.419 . S
C721 H725 0.930 . S
C722 C721 1.369 . S
C722 C731 1.429 1_554 S
C723 C721 1.419 . S
C723 C724 1.363 . S
C723 H726 0.929 . S
C724 C723 1.363 . S
C724 C730 1.428 1_554 S
H725 C721 0.930 . S
H726 C723 0.929 . S
S727 N728 1.613 . S
S727 N729 1.610 . S
N728 S727 1.613 . S
N728 C731 1.350 . S
N729 S727 1.610 . S
N729 C730 1.351 . S
C730 C724 1.428 1_556 S
C730 N729 1.351 . S
C730 C731 1.434 . S
C731 C722 1.429 1_556 S
C731 N728 1.350 . S
C731 C730 1.434 . S
C732 C733 1.369 . S
C732 C734 1.419 . S
C732 H736 0.930 . S
C733 C732 1.369 . S
C733 C742 1.429 . S
C734 C732 1.419 . S
C734 C735 1.363 . S
C734 H737 0.929 . S
C735 C734 1.363 . S
C735 C741 1.428 . S
H736 C732 0.930 . S
H737 C734 0.929 . S
S738 N739 1.613 . S
S738 N740 1.610 . S
N739 S738 1.613 . S
N739 C742 1.350 . S
N740 S738 1.610 . S
N740 C741 1.351 . S
C741 C735 1.428 . S
C741 N740 1.351 . S
C741 C742 1.434 . S
C742 C733 1.429 . S
C742 N739 1.350 . S
C742 C741 1.434 . S
C743 C744 1.369 . S
C743 C745 1.419 . S
C743 H747 0.930 . S
C744 C743 1.369 . S
C744 C753 1.429 . S
C745 C743 1.419 . S
C745 C746 1.363 . S
C745 H748 0.929 . S
C746 C745 1.363 . S
C746 C752 1.428 . S
H747 C743 0.930 . S
H748 C745 0.929 . S
S749 N750 1.613 . S
S749 N751 1.610 . S
N750 S749 1.613 . S
N750 C753 1.350 . S
N751 S749 1.610 . S
N751 C752 1.351 . S
C752 C746 1.428 . S
C752 N751 1.351 . S
C752 C753 1.434 . S
C753 C744 1.429 . S
C753 N750 1.350 . S
C753 C752 1.434 . S
C754 C755 1.369 . S
C754 C756 1.419 . S
C754 H758 0.930 . S
C755 C754 1.369 . S
C755 C764 1.429 . S
C756 C754 1.419 . S
C756 C757 1.363 . S
C756 H759 0.929 . S
C757 C756 1.363 . S
C757 C763 1.428 . S
H758 C754 0.930 . S
H759 C756 0.929 . S
S760 N761 1.613 . S
S760 N762 1.610 . S
N761 S760 1.613 . S
N761 C764 1.350 . S
N762 S760 1.610 . S
N762 C763 1.351 . S
C763 C757 1.428 . S
C763 N762 1.351 . S
C763 C764 1.434 . S
C764 C755 1.429 . S
C764 N761 1.350 . S
C764 C763 1.434 . S
C765 C766 1.369 . S
C765 C767 1.419 . S
C765 H769 0.930 . S
C766 C765 1.369 . S
C766 C775 1.429 . S
C767 C765 1.419 . S
C767 C768 1.363 . S
C767 H770 0.929 . S
C768 C767 1.363 . S
C768 C774 1.428 . S
H769 C765 0.930 . S
H770 C767 0.929 . S
S771 N772 1.613 . S
S771 N773 1.610 . S
N772 S771 1.613 . S
N772 C775 1.350 . S
N773 S771 1.610 . S
N773 C774 1.351 . S
C774 C768 1.428 . S
C774 N773 1.351 . S
C774 C775 1.434 . S
C775 C766 1.429 . S
C775 N772 1.350 . S
C775 C774 1.434 . S
C776 C777 1.369 . S
C776 C778 1.419 . S
C776 H780 0.930 . S
C777 C776 1.369 . S
C777 C786 1.429 . S
C778 C776 1.419 . S
C778 C779 1.363 . S
C778 H781 0.929 . S
C779 C778 1.363 . S
C779 C785 1.428 . S
H780 C776 0.930 . S
H781 C778 0.929 . S
S782 N783 1.613 . S
S782 N784 1.610 . S
N783 S782 1.613 . S
N783 C786 1.350 . S
N784 S782 1.610 . S
N784 C785 1.351 . S
C785 C779 1.428 . S
C785 N784 1.351 . S
C785 C786 1.434 . S
C786 C777 1.429 . S
C786 N783 1.350 . S
C786 C785 1.434 . S
C787 C788 1.369 . S
C787 C789 1.419 . S
C787 H791 0.930 . S
C788 C787 1.369 . S
C788 C797 1.429 . S
C789 C787 1.419 . S
C789 C790 1.363 . S
C789 H792 0.929 . S
C790 C789 1.363 . S
C790 C796 1.428 . S
H791 C787 0.930 . S
H792 C789 0.929 . S
S793 N794 1.613 . S
S793 N795 1.610 . S
N794 S793 1.613 . S
N794 C797 1.350 . S
N795 S793 1.610 . S
N795 C796 1.351 . S
C796 C790 1.428 . S
C796 N795 1.351 . S
C796 C797 1.434 . S
C797 C788 1.429 . S
C797 N794 1.350 . S
C797 C796 1.434 . S
C798 C799 1.369 . S
C798 C800 1.419 . S
C798 H802 0.930 . S
C799 C798 1.369 . S
C799 C808 1.429 . S
C800 C798 1.419 . S
C800 C801 1.363 . S
C800 H803 0.929 . S
C801 C800 1.363 . S
C801 C807 1.428 . S
H802 C798 0.930 . S
H803 C800 0.929 . S
S804 N805 1.613 . S
S804 N806 1.610 . S
N805 S804 1.613 . S
N805 C808 1.350 . S
N806 S804 1.610 . S
N806 C807 1.351 . S
C807 C801 1.428 . S
C807 N806 1.351 . S
C807 C808 1.434 . S
C808 C799 1.429 . S
C808 N805 1.350 . S
C808 C807 1.434 . S
C809 C810 1.369 . S
C809 C811 1.419 . S
C809 H813 0.930 . S
C810 C809 1.369 . S
C810 C819 1.429 . S
C811 C809 1.419 . S
C811 C812 1.363 . S
C811 H814 0.929 . S
C812 C811 1.363 . S
C812 C818 1.428 . S
H813 C809 0.930 . S
H814 C811 0.929 . S
S815 N816 1.613 . S
S815 N817 1.610 . S
N816 S815 1.613 . S
N816 C819 1.350 . S
N817 S815 1.610 . S
N817 C818 1.351 . S
C818 C812 1.428 . S
C818 N817 1.351 . S
C818 C819 1.434 . S
C819 C810 1.429 . S
C819 N816 1.350 . S
C819 C818 1.434 . S
C820 C821 1.369 . S
C820 C822 1.419 . S
C820 H824 0.930 . S
C821 C820 1.369 . S
C821 C830 1.429 . S
C822 C820 1.419 . S
C822 C823 1.363 . S
C822 H825 0.929 . S
C823 C822 1.363 . S
C823 C829 1.428 . S
H824 C820 0.930 . S
H825 C822 0.929 . S
S826 N827 1.613 . S
S826 N828 1.610 . S
N827 S826 1.613 . S
N827 C830 1.350 . S
N828 S826 1.610 . S
N828 C829 1.351 . S
C829 C823 1.428 . S
C829 N828 1.351 . S
C829 C830 1.434 . S
C830 C821 1.429 . S
C830 N827 1.350 . S
C830 C829 1.434 . S
C831 C832 1.369 . S
C831 C833 1.419 . S
C831 H835 0.930 . S
C832 C831 1.369 . S
C832 C841 1.429 . S
C833 C831 1.419 . S
C833 C834 1.363 . S
C833 H836 0.929 . S
C834 C833 1.363 . S
C834 C840 1.428 . S
H835 C831 0.930 . S
H836 C833 0.929 . S
S837 N838 1.613 . S
S837 N839 1.610 . S
N838 S837 1.613 . S
N838 C841 1.350 . S
N839 S837 1.610 . S
N839 C840 1.351 . S
C840 C834 1.428 . S
C840 N839 1.351 . S
C840 C841 1.434 . S
C841 C832 1.429 . S
C841 N838 1.350 . S
C841 C840 1.434 . S
C842 C843 1.369 . S
C842 C844 1.419 . S
C842 H846 0.930 . S
C843 C842 1.369 . S
C843 C852 1.429 . S
C844 C842 1.419 . S
C844 C845 1.363 . S
C844 H847 0.929 . S
C845 C844 1.363 . S
C845 C851 1.428 . S
H846 C842 0.930 . S
H847 C844 0.929 . S
S848 N849 1.613 . S
S848 N850 1.610 . S
N849 S848 1.613 . S
N849 C852 1.350 . S
N850 S848 1.610 . S
N850 C851 1.351 . S
C851 C845 1.428 . S
C851 N850 1.351 . S
C851 C852 1.434 . S
C852 C843 1.429 . S
C852 N849 1.350 . S
C852 C851 1.434 . S
C853 C854 1.369 . S
C853 C855 1.419 . S
C853 H857 0.930 . S
C854 C853 1.369 . S
C854 C863 1.429 . S
C855 C853 1.419 . S
C855 C856 1.363 . S
C855 H858 0.929 . S
C856 C855 1.363 . S
C856 C862 1.428 . S
H857 C853 0.930 . S
H858 C855 0.929 . S
S859 N860 1.613 . S
S859 N861 1.610 . S
N860 S859 1.613 . S
N860 C863 1.350 . S
N861 S859 1.610 . S
N861 C862 1.351 . S
C862 C856 1.428 . S
C862 N861 1.351 . S
C862 C863 1.434 . S
C863 C854 1.429 . S
C863 N860 1.350 . S
C863 C862 1.434 . S
C864 C865 1.369 . S
C864 C866 1.419 . S
C864 H868 0.930 . S
C865 C864 1.369 . S
C865 C874 1.429 . S
C866 C864 1.419 . S
C866 C867 1.363 . S
C866 H869 0.929 . S
C867 C866 1.363 . S
C867 C873 1.428 . S
H868 C864 0.930 . S
H869 C866 0.929 . S
S870 N871 1.613 . S
S870 N872 1.610 . S
N871 S870 1.613 . S
N871 C874 1.350 . S
N872 S870 1.610 . S
N872 C873 1.351 . S
C873 C867 1.428 . S
C873 N872 1.351 . S
C873 C874 1.434 . S
C874 C865 1.429 . S
C874 N871 1.350 . S
C874 C873 1.434 . S
C875 C876 1.369 . S
C875 C877 1.419 . S
C875 H879 0.930 . S
C876 C875 1.369 . S
C876 C885 1.429 . S
C877 C875 1.419 . S
C877 C878 1.363 . S
C877 H880 0.929 . S
C878 C877 1.363 . S
C878 C884 1.428 . S
H879 C875 0.930 . S
H880 C877 0.929 . S
S881 N882 1.613 . S
S881 N883 1.610 . S
N882 S881 1.613 . S
N882 C885 1.350 . S
N883 S881 1.610 . S
N883 C884 1.351 . S
C884 C878 1.428 . S
C884 N883 1.351 . S
C884 C885 1.434 . S
C885 C876 1.429 . S
C885 N882 1.350 . S
C885 C884 1.434 . S
C886 C887 1.369 . S
C886 C888 1.419 . S
C886 H890 0.930 . S
C887 C886 1.369 . S
C887 C896 1.429 . S
C888 C886 1.419 . S
C888 C889 1.363 . S
C888 H891 0.929 . S
C889 C888 1.363 . S
C889 C895 1.428 . S
H890 C886 0.930 . S
H891 C888 0.929 . S
S892 N893 1.613 . S
S892 N894 1.610 . S
N893 S892 1.613 . S
N893 C896 1.350 . S
N894 S892 1.610 . S
N894 C895 1.351 . S
C895 C889 1.428 . S
C895 N894 1.351 . S
C895 C896 1.434 . S
C896 C887 1.429 . S
C896 N893 1.350 . S
C896 C895 1.434 . S
C897 C898 1.369 . S
C897 C899 1.419 . S
C897 H901 0.930 . S
C898 C897 1.369 . S
C898 C907 1.429 . S
C899 C897 1.419 . S
C899 C900 1.363 . S
C899 H902 0.929 . S
C900 C899 1.363 . S
C900 C906 1.428 . S
H901 C897 0.930 . S
H902 C899 0.929 . S
S903 N904 1.613 . S
S903 N905 1.610 . S
N904 S903 1.613 . S
N904 C907 1.350 . S
N905 S903 1.610 . S
N905 C906 1.351 . S
C906 C900 1.428 . S
C906 N905 1.351 . S
C906 C907 1.434 . S
C907 C898 1.429 . S
C907 N904 1.350 . S
C907 C906 1.434 . S
C908 C909 1.369 . S
C908 C910 1.419 . S
C908 H912 0.930 . S
C909 C908 1.369 . S
C909 C918 1.429 . S
C910 C908 1.419 . S
C910 C911 1.363 . S
C910 H913 0.929 . S
C911 C910 1.363 . S
C911 C917 1.428 . S
H912 C908 0.930 . S
H913 C910 0.929 . S
S914 N915 1.613 . S
S914 N916 1.610 . S
N915 S914 1.613 . S
N915 C918 1.350 . S
N916 S914 1.610 . S
N916 C917 1.351 . S
C917 C911 1.428 . S
C917 N916 1.351 . S
C917 C918 1.434 . S
C918 C909 1.429 . S
C918 N915 1.350 . S
C918 C917 1.434 . S
C919 C920 1.369 . S
C919 C921 1.419 . S
C919 H923 0.930 . S
C920 C919 1.369 . S
C920 C929 1.429 . S
C921 C919 1.419 . S
C921 C922 1.363 . S
C921 H924 0.929 . S
C922 C921 1.363 . S
C922 C928 1.428 . S
H923 C919 0.930 . S
H924 C921 0.929 . S
S925 N926 1.613 . S
S925 N927 1.610 . S
N926 S925 1.613 . S
N926 C929 1.350 . S
N927 S925 1.610 . S
N927 C928 1.351 . S
C928 C922 1.428 . S
C928 N927 1.351 . S
C928 C929 1.434 . S
C929 C920 1.429 . S
C929 N926 1.350 . S
C929 C928 1.434 . S
C930 C931 1.369 . S
C930 C932 1.419 . S
C930 H934 0.930 . S
C931 C930 1.369 . S
C931 C940 1.429 . S
C932 C930 1.419 . S
C932 C933 1.363 . S
C932 H935 0.929 . S
C933 C932 1.363 . S
C933 C939 1.428 . S
H934 C930 0.930 . S
H935 C932 0.929 . S
S936 N937 1.613 . S
S936 N938 1.610 . S
N937 S936 1.613 . S
N937 C940 1.350 . S
N938 S936 1.610 . S
N938 C939 1.351 . S
C939 C933 1.428 . S
C939 N938 1.351 . S
C939 C940 1.434 . S
C940 C931 1.429 . S
C940 N937 1.350 . S
C940 C939 1.434 . S
C941 C942 1.369 . S
C941 C943 1.419 . S
C941 H945 0.930 . S
C942 C941 1.369 . S
C942 C951 1.429 . S
C943 C941 1.419 . S
C943 C944 1.363 . S
C943 H946 0.929 . S
C944 C943 1.363 . S
C944 C950 1.428 . S
H945 C941 0.930 . S
H946 C943 0.929 . S
S947 N948 1.613 . S
S947 N949 1.610 . S
N948 S947 1.613 . S
N948 C951 1.350 . S
N949 S947 1.610 . S
N949 C950 1.351 . S
C950 C944 1.428 . S
C950 N949 1.351 . S
C950 C951 1.434 . S
C951 C942 1.429 . S
C951 N948 1.350 . S
C951 C950 1.434 . S
C952 C953 1.369 . S
C952 C954 1.419 . S
C952 H956 0.930 . S
C953 C952 1.369 . S
C953 C962 1.429 . S
C954 C952 1.419 . S
C954 C955 1.363 . S
C954 H957 0.929 . S
C955 C954 1.363 . S
C955 C961 1.428 . S
H956 C952 0.930 . S
H957 C954 0.929 . S
S958 N959 1.613 . S
S958 N960 1.610 . S
N959 S958 1.613 . S
N959 C962 1.350 . S
N960 S958 1.610 . S
N960 C961 1.351 . S
C961 C955 1.428 . S
C961 N960 1.351 . S
C961 C962 1.434 . S
C962 C953 1.429 . S
C962 N959 1.350 . S
C962 C961 1.434 . S
C963 C964 1.369 . S
C963 C965 1.419 . S
C963 H967 0.930 . S
C964 C963 1.369 . S
C964 C973 1.429 . S
C965 C963 1.419 . S
C965 C966 1.363 . S
C965 H968 0.929 . S
C966 C965 1.363 . S
C966 C972 1.428 . S
H967 C963 0.930 . S
H968 C965 0.929 . S
S969 N970 1.613 . S
S969 N971 1.610 . S
N970 S969 1.613 . S
N970 C973 1.350 . S
N971 S969 1.610 . S
N971 C972 1.351 . S
C972 C966 1.428 . S
C972 N971 1.351 . S
C972 C973 1.434 . S
C973 C964 1.429 . S
C973 N970 1.350 . S
C973 C972 1.434 . S
C974 C975 1.369 . S
C974 C976 1.419 . S
C974 H978 0.930 . S
C975 C974 1.369 . S
C975 C984 1.429 . S
C976 C974 1.419 . S
C976 C977 1.363 . S
C976 H979 0.929 . S
C977 C976 1.363 . S
C977 C983 1.428 . S
H978 C974 0.930 . S
H979 C976 0.929 . S
S980 N981 1.613 . S
S980 N982 1.610 . S
N981 S980 1.613 . S
N981 C984 1.350 . S
N982 S980 1.610 . S
N982 C983 1.351 . S
C983 C977 1.428 . S
C983 N982 1.351 . S
C983 C984 1.434 . S
C984 C975 1.429 . S
C984 N981 1.350 . S
C984 C983 1.434 . S
C985 C986 1.369 . S
C985 C987 1.419 . S
C985 H989 0.930 . S
C986 C985 1.369 . S
C986 C995 1.429 . S
C987 C985 1.419 . S
C987 C988 1.363 . S
C987 H990 0.929 . S
C988 C987 1.363 . S
C988 C994 1.428 . S
H989 C985 0.930 . S
H990 C987 0.929 . S
S991 N992 1.613 . S
S991 N993 1.610 . S
N992 S991 1.613 . S
N992 C995 1.350 . S
N993 S991 1.610 . S
N993 C994 1.351 . S
C994 C988 1.428 . S
C994 N993 1.351 . S
C994 C995 1.434 . S
C995 C986 1.429 . S
C995 N992 1.350 . S
C995 C994 1.434 . S
C996 C997 1.369 . S
C996 C998 1.419 . S
C996 H1000 0.930 . S
C997 C996 1.369 . S
C997 C1006 1.429 . S
C998 C996 1.419 . S
C998 C999 1.363 . S
C998 H1001 0.929 . S
C999 C998 1.363 . S
C999 C1005 1.428 . S
H1000 C996 0.930 . S
H1001 C998 0.929 . S
S1002 N1003 1.613 . S
S1002 N1004 1.610 . S
N1003 S1002 1.613 . S
N1003 C1006 1.350 . S
N1004 S1002 1.610 . S
N1004 C1005 1.351 . S
C1005 C999 1.428 . S
C1005 N1004 1.351 . S
C1005 C1006 1.434 . S
C1006 C997 1.429 . S
C1006 N1003 1.350 . S
C1006 C1005 1.434 . S
C1007 C1008 1.369 1_565 S
C1007 C1009 1.419 . S
C1007 H1011 0.930 . S
C1008 C1007 1.369 1_545 S
C1008 C1017 1.429 . S
C1009 C1007 1.419 . S
C1009 C1010 1.363 . S
C1009 H1012 0.929 . S
C1010 C1009 1.363 . S
C1010 C1016 1.428 1_565 S
H1011 C1007 0.930 . S
H1012 C1009 0.929 . S
S1013 N1014 1.613 . S
S1013 N1015 1.610 . S
N1014 S1013 1.613 . S
N1014 C1017 1.350 . S
N1015 S1013 1.610 . S
N1015 C1016 1.351 . S
C1016 C1010 1.428 1_545 S
C1016 N1015 1.351 . S
C1016 C1017 1.434 . S
C1017 C1008 1.429 . S
C1017 N1014 1.350 . S
C1017 C1016 1.434 . S
C1018 C1019 1.369 . S
C1018 C1020 1.419 . S
C1018 H1022 0.930 . S
C1019 C1018 1.369 . S
C1019 C1028 1.429 1_455 S
C1020 C1018 1.419 . S
C1020 C1021 1.363 1_455 S
C1020 H1023 0.929 . S
C1021 C1020 1.363 1_655 S
C1021 C1027 1.428 . S
H1022 C1018 0.930 . S
H1023 C1020 0.929 . S
S1024 N1025 1.613 . S
S1024 N1026 1.610 . S
N1025 S1024 1.613 . S
N1025 C1028 1.350 . S
N1026 S1024 1.610 . S
N1026 C1027 1.351 . S
C1027 C1021 1.428 . S
C1027 N1026 1.351 . S
C1027 C1028 1.434 . S
C1028 C1019 1.429 1_655 S
C1028 N1025 1.350 . S
C1028 C1027 1.434 . S
C1029 C1030 1.369 . S
C1029 C1031 1.419 . S
C1029 H1033 0.930 . S
C1030 C1029 1.369 . S
C1030 C1039 1.429 . S
C1031 C1029 1.419 . S
C1031 C1032 1.363 . S
C1031 H1034 0.929 . S
C1032 C1031 1.363 . S
C1032 C1038 1.428 . S
H1033 C1029 0.930 . S
H1034 C1031 0.929 . S
S1035 N1036 1.613 . S
S1035 N1037 1.610 . S
N1036 S1035 1.613 . S
N1036 C1039 1.350 . S
N1037 S1035 1.610 . S
N1037 C1038 1.351 . S
C1038 C1032 1.428 . S
C1038 N1037 1.351 . S
C1038 C1039 1.434 . S
C1039 C1030 1.429 . S
C1039 N1036 1.350 . S
C1039 C1038 1.434 . S
C1040 C1041 1.369 1_545 S
C1040 C1042 1.419 . S
C1040 H1044 0.930 . S
C1041 C1040 1.369 1_565 S
C1041 C1050 1.429 . S
C1042 C1040 1.419 . S
C1042 C1043 1.363 . S
C1042 H1045 0.929 . S
C1043 C1042 1.363 . S
C1043 C1049 1.428 1_545 S
H1044 C1040 0.930 . S
H1045 C1042 0.929 . S
S1046 N1047 1.613 . S
S1046 N1048 1.610 . S
N1047 S1046 1.613 . S
N1047 C1050 1.350 . S
N1048 S1046 1.610 . S
N1048 C1049 1.351 . S
C1049 C1043 1.428 1_565 S
C1049 N1048 1.351 . S
C1049 C1050 1.434 . S
C1050 C1041 1.429 . S
C1050 N1047 1.350 . S
C1050 C1049 1.434 . S
C1051 C1052 1.369 . S
C1051 C1053 1.419 . S
C1051 H1055 0.930 . S
C1052 C1051 1.369 . S
C1052 C1061 1.429 1_455 S
C1053 C1051 1.419 . S
C1053 C1054 1.363 1_455 S
C1053 H1056 0.929 . S
C1054 C1053 1.363 1_655 S
C1054 C1060 1.428 . S
H1055 C1051 0.930 . S
H1056 C1053 0.929 . S
S1057 N1058 1.613 . S
S1057 N1059 1.610 . S
N1058 S1057 1.613 . S
N1058 C1061 1.350 . S
N1059 S1057 1.610 . S
N1059 C1060 1.351 . S
C1060 C1054 1.428 . S
C1060 N1059 1.351 . S
C1060 C1061 1.434 . S
C1061 C1052 1.429 1_655 S
C1061 N1058 1.350 . S
C1061 C1060 1.434 . S
C1062 C1063 1.369 . S
C1062 C1064 1.419 . S
C1062 H1066 0.930 . S
C1063 C1062 1.369 . S
C1063 C1072 1.429 . S
C1064 C1062 1.419 . S
C1064 C1065 1.363 . S
C1064 H1067 0.929 . S
C1065 C1064 1.363 . S
C1065 C1071 1.428 . S
H1066 C1062 0.930 . S
H1067 C1064 0.929 . S
S1068 N1069 1.613 . S
S1068 N1070 1.610 . S
N1069 S1068 1.613 . S
N1069 C1072 1.350 . S
N1070 S1068 1.610 . S
N1070 C1071 1.351 . S
C1071 C1065 1.428 . S
C1071 N1070 1.351 . S
C1071 C1072 1.434 . S
C1072 C1063 1.429 . S
C1072 N1069 1.350 . S
C1072 C1071 1.434 . S
C1073 C1074 1.369 . S
C1073 C1075 1.419 . S
C1073 H1077 0.930 . S
C1074 C1073 1.369 . S
C1074 C1083 1.429 . S
C1075 C1073 1.419 . S
C1075 C1076 1.363 . S
C1075 H1078 0.929 . S
C1076 C1075 1.363 . S
C1076 C1082 1.428 . S
H1077 C1073 0.930 . S
H1078 C1075 0.929 . S
S1079 N1080 1.613 . S
S1079 N1081 1.610 . S
N1080 S1079 1.613 . S
N1080 C1083 1.350 . S
N1081 S1079 1.610 . S
N1081 C1082 1.351 . S
C1082 C1076 1.428 . S
C1082 N1081 1.351 . S
C1082 C1083 1.434 . S
C1083 C1074 1.429 . S
C1083 N1080 1.350 . S
C1083 C1082 1.434 . S
C1084 C1085 1.369 . S
C1084 C1086 1.419 . S
C1084 H1088 0.930 . S
C1085 C1084 1.369 . S
C1085 C1094 1.429 . S
C1086 C1084 1.419 . S
C1086 C1087 1.363 . S
C1086 H1089 0.929 . S
C1087 C1086 1.363 . S
C1087 C1093 1.428 . S
H1088 C1084 0.930 . S
H1089 C1086 0.929 . S
S1090 N1091 1.613 . S
S1090 N1092 1.610 . S
N1091 S1090 1.613 . S
N1091 C1094 1.350 . S
N1092 S1090 1.610 . S
N1092 C1093 1.351 . S
C1093 C1087 1.428 . S
C1093 N1092 1.351 . S
C1093 C1094 1.434 . S
C1094 C1085 1.429 . S
C1094 N1091 1.350 . S
C1094 C1093 1.434 . S
C1095 C1096 1.369 . S
C1095 C1097 1.419 . S
C1095 H1099 0.930 . S
C1096 C1095 1.369 . S
C1096 C1105 1.429 . S
C1097 C1095 1.419 . S
C1097 C1098 1.363 . S
C1097 H1100 0.929 . S
C1098 C1097 1.363 . S
C1098 C1104 1.428 . S
H1099 C1095 0.930 . S
H1100 C1097 0.929 . S
S1101 N1102 1.613 . S
S1101 N1103 1.610 . S
N1102 S1101 1.613 . S
N1102 C1105 1.350 . S
N1103 S1101 1.610 . S
N1103 C1104 1.351 . S
C1104 C1098 1.428 . S
C1104 N1103 1.351 . S
C1104 C1105 1.434 . S
C1105 C1096 1.429 . S
C1105 N1102 1.350 . S
C1105 C1104 1.434 . S
C1106 C1107 1.369 . S
C1106 C1108 1.419 . S
C1106 H1110 0.930 . S
C1107 C1106 1.369 . S
C1107 C1116 1.429 . S
C1108 C1106 1.419 . S
C1108 C1109 1.363 . S
C1108 H1111 0.929 . S
C1109 C1108 1.363 . S
C1109 C1115 1.428 . S
H1110 C1106 0.930 . S
H1111 C1108 0.929 . S
S1112 N1113 1.613 . S
S1112 N1114 1.610 . S
N1113 S1112 1.613 . S
N1113 C1116 1.350 . S
N1114 S1112 1.610 . S
N1114 C1115 1.351 . S
C1115 C1109 1.428 . S
C1115 N1114 1.351 . S
C1115 C1116 1.434 . S
C1116 C1107 1.429 . S
C1116 N1113 1.350 . S
C1116 C1115 1.434 . S
C1117 C1118 1.369 . S
C1117 C1119 1.419 . S
C1117 H1121 0.930 . S
C1118 C1117 1.369 . S
C1118 C1127 1.429 . S
C1119 C1117 1.419 . S
C1119 C1120 1.363 . S
C1119 H1122 0.929 . S
C1120 C1119 1.363 . S
C1120 C1126 1.428 . S
H1121 C1117 0.930 . S
H1122 C1119 0.929 . S
S1123 N1124 1.613 . S
S1123 N1125 1.610 . S
N1124 S1123 1.613 . S
N1124 C1127 1.350 . S
N1125 S1123 1.610 . S
N1125 C1126 1.351 . S
C1126 C1120 1.428 . S
C1126 N1125 1.351 . S
C1126 C1127 1.434 . S
C1127 C1118 1.429 . S
C1127 N1124 1.350 . S
C1127 C1126 1.434 . S
C1128 C1129 1.369 . S
C1128 C1130 1.419 . S
C1128 H1132 0.930 . S
C1129 C1128 1.369 . S
C1129 C1138 1.429 . S
C1130 C1128 1.419 . S
C1130 C1131 1.363 . S
C1130 H1133 0.929 . S
C1131 C1130 1.363 . S
C1131 C1137 1.428 . S
H1132 C1128 0.930 . S
H1133 C1130 0.929 . S
S1134 N1135 1.613 . S
S1134 N1136 1.610 . S
N1135 S1134 1.613 . S
N1135 C1138 1.350 . S
N1136 S1134 1.610 . S
N1136 C1137 1.351 . S
C1137 C1131 1.428 . S
C1137 N1136 1.351 . S
C1137 C1138 1.434 . S
C1138 C1129 1.429 . S
C1138 N1135 1.350 . S
C1138 C1137 1.434 . S
C1139 C1140 1.369 . S
C1139 C1141 1.419 . S
C1139 H1143 0.930 . S
C1140 C1139 1.369 . S
C1140 C1149 1.429 . S
C1141 C1139 1.419 . S
C1141 C1142 1.363 . S
C1141 H1144 0.929 . S
C1142 C1141 1.363 . S
C1142 C1148 1.428 . S
H1143 C1139 0.930 . S
H1144 C1141 0.929 . S
S1145 N1146 1.613 . S
S1145 N1147 1.610 . S
N1146 S1145 1.613 . S
N1146 C1149 1.350 . S
N1147 S1145 1.610 . S
N1147 C1148 1.351 . S
C1148 C1142 1.428 . S
C1148 N1147 1.351 . S
C1148 C1149 1.434 . S
C1149 C1140 1.429 . S
C1149 N1146 1.350 . S
C1149 C1148 1.434 . S
C1150 C1151 1.369 . S
C1150 C1152 1.419 . S
C1150 H1154 0.930 . S
C1151 C1150 1.369 . S
C1151 C1160 1.429 . S
C1152 C1150 1.419 . S
C1152 C1153 1.363 . S
C1152 H1155 0.929 . S
C1153 C1152 1.363 . S
C1153 C1159 1.428 . S
H1154 C1150 0.930 . S
H1155 C1152 0.929 . S
S1156 N1157 1.613 . S
S1156 N1158 1.610 . S
N1157 S1156 1.613 . S
N1157 C1160 1.350 . S
N1158 S1156 1.610 . S
N1158 C1159 1.351 . S
C1159 C1153 1.428 . S
C1159 N1158 1.351 . S
C1159 C1160 1.434 . S
C1160 C1151 1.429 . S
C1160 N1157 1.350 . S
C1160 C1159 1.434 . S
C1161 C1162 1.369 . S
C1161 C1163 1.419 . S
C1161 H1165 0.930 . S
C1162 C1161 1.369 . S
C1162 C1171 1.429 . S
C1163 C1161 1.419 . S
C1163 C1164 1.363 . S
C1163 H1166 0.929 . S
C1164 C1163 1.363 . S
C1164 C1170 1.428 . S
H1165 C1161 0.930 . S
H1166 C1163 0.929 . S
S1167 N1168 1.613 . S
S1167 N1169 1.610 . S
N1168 S1167 1.613 . S
N1168 C1171 1.350 . S
N1169 S1167 1.610 . S
N1169 C1170 1.351 . S
C1170 C1164 1.428 . S
C1170 N1169 1.351 . S
C1170 C1171 1.434 . S
C1171 C1162 1.429 . S
C1171 N1168 1.350 . S
C1171 C1170 1.434 . S
C1172 C1173 1.369 . S
C1172 C1174 1.419 . S
C1172 H1176 0.930 . S
C1173 C1172 1.369 . S
C1173 C1182 1.429 . S
C1174 C1172 1.419 . S
C1174 C1175 1.363 . S
C1174 H1177 0.929 . S
C1175 C1174 1.363 . S
C1175 C1181 1.428 . S
H1176 C1172 0.930 . S
H1177 C1174 0.929 . S
S1178 N1179 1.613 . S
S1178 N1180 1.610 . S
N1179 S1178 1.613 . S
N1179 C1182 1.350 . S
N1180 S1178 1.610 . S
N1180 C1181 1.351 . S
C1181 C1175 1.428 . S
C1181 N1180 1.351 . S
C1181 C1182 1.434 . S
C1182 C1173 1.429 . S
C1182 N1179 1.350 . S
C1182 C1181 1.434 . S
C1183 C1184 1.369 . S
C1183 C1185 1.419 . S
C1183 H1187 0.930 . S
C1184 C1183 1.369 . S
C1184 C1193 1.429 . S
C1185 C1183 1.419 . S
C1185 C1186 1.363 . S
C1185 H1188 0.929 . S
C1186 C1185 1.363 . S
C1186 C1192 1.428 . S
H1187 C1183 0.930 . S
H1188 C1185 0.929 . S
S1189 N1190 1.613 . S
S1189 N1191 1.610 . S
N1190 S1189 1.613 . S
N1190 C1193 1.350 . S
N1191 S1189 1.610 . S
N1191 C1192 1.351 . S
C1192 C1186 1.428 . S
C1192 N1191 1.351 . S
C1192 C1193 1.434 . S
C1193 C1184 1.429 . S
C1193 N1190 1.350 . S
C1193 C1192 1.434 . S
C1194 C1195 1.369 . S
C1194 C1196 1.419 1_455 S
C1194 H1198 0.930 . S
C1195 C1194 1.369 . S
C1195 C1204 1.429 . S
C1196 C1194 1.419 1_655 S
C1196 C1197 1.363 . S
C1196 H1199 0.929 . S
C1197 C1196 1.363 . S
C1197 C1203 1.428 . S
H1198 C1194 0.930 . S
H1199 C1196 0.929 . S
S1200 N1201 1.613 1_655 S
S1200 N1202 1.610 . S
N1201 S1200 1.613 1_455 S
N1201 C1204 1.350 . S
N1202 S1200 1.610 . S
N1202 C1203 1.351 . S
C1203 C1197 1.428 . S
C1203 N1202 1.351 . S
C1203 C1204 1.434 1_655 S
C1204 C1195 1.429 . S
C1204 N1201 1.350 . S
C1204 C1203 1.434 1_455 S
C1205 C1206 1.369 . S
C1205 C1207 1.419 . S
C1205 H1209 0.930 . S
C1206 C1205 1.369 . S
C1206 C1215 1.429 . S
C1207 C1205 1.419 . S
C1207 C1208 1.363 . S
C1207 H1210 0.929 . S
C1208 C1207 1.363 . S
C1208 C1214 1.428 . S
H1209 C1205 0.930 . S
H1210 C1207 0.929 . S
S1211 N1212 1.613 . S
S1211 N1213 1.610 . S
N1212 S1211 1.613 . S
N1212 C1215 1.350 . S
N1213 S1211 1.610 . S
N1213 C1214 1.351 . S
C1214 C1208 1.428 . S
C1214 N1213 1.351 . S
C1214 C1215 1.434 . S
C1215 C1206 1.429 . S
C1215 N1212 1.350 . S
C1215 C1214 1.434 . S
C1216 C1217 1.369 . S
C1216 C1218 1.419 1_545 S
C1216 H1220 0.930 . S
C1217 C1216 1.369 . S
C1217 C1226 1.429 . S
C1218 C1216 1.419 1_565 S
C1218 C1219 1.363 . S
C1218 H1221 0.929 . S
C1219 C1218 1.363 . S
C1219 C1225 1.428 . S
H1220 C1216 0.930 . S
H1221 C1218 0.929 . S
S1222 N1223 1.613 . S
S1222 N1224 1.610 1_545 S
N1223 S1222 1.613 . S
N1223 C1226 1.350 . S
N1224 S1222 1.610 1_565 S
N1224 C1225 1.351 . S
C1225 C1219 1.428 . S
C1225 N1224 1.351 . S
C1225 C1226 1.434 1_565 S
C1226 C1217 1.429 . S
C1226 N1223 1.350 . S
C1226 C1225 1.434 1_545 S
C1227 C1228 1.369 . S
C1227 C1229 1.419 1_565 S
C1227 H1231 0.930 . S
C1228 C1227 1.369 . S
C1228 C1237 1.429 . S
C1229 C1227 1.419 1_545 S
C1229 C1230 1.363 . S
C1229 H1232 0.929 . S
C1230 C1229 1.363 . S
C1230 C1236 1.428 . S
H1231 C1227 0.930 . S
H1232 C1229 0.929 . S
S1233 N1234 1.613 . S
S1233 N1235 1.634 . S
N1234 S1233 1.613 . S
N1234 C1237 1.350 . S
N1235 S1233 1.634 . S
N1235 C1236 1.345 1_565 S
C1236 C1230 1.428 . S
C1236 N1235 1.345 1_545 S
C1236 C1237 1.434 1_545 S
C1237 C1228 1.429 . S
C1237 N1234 1.350 . S
C1237 C1236 1.434 1_565 S
C1238 C1239 1.369 . S
C1238 C1240 1.419 1_655 S
C1238 H1242 0.930 . S
C1239 C1238 1.369 . S
C1239 C1248 1.429 . S
C1240 C1238 1.419 1_455 S
C1240 C1241 1.363 . S
C1240 H1243 0.929 . S
C1241 C1240 1.363 . S
C1241 C1247 1.428 . S
H1242 C1238 0.930 . S
H1243 C1240 0.929 . S
S1244 N1245 1.613 . S
S1244 N1246 1.641 . S
N1245 S1244 1.613 . S
N1245 C1248 1.350 . S
N1246 S1244 1.641 . S
N1246 C1247 1.357 1_655 S
C1247 C1241 1.428 . S
C1247 N1246 1.357 1_455 S
C1247 C1248 1.434 1_455 S
C1248 C1239 1.429 . S
C1248 N1245 1.350 . S
C1248 C1247 1.434 1_655 S
C1249 C1250 1.369 . S
C1249 C1251 1.419 . S
C1249 H1253 0.930 . S
C1250 C1249 1.369 . S
C1250 C1259 1.429 . S
C1251 C1249 1.419 . S
C1251 C1252 1.363 . S
C1251 H1254 0.929 . S
C1252 C1251 1.363 . S
C1252 C1258 1.428 . S
H1253 C1249 0.930 . S
H1254 C1251 0.929 . S
S1255 N1256 1.613 . S
S1255 N1257 1.610 . S
N1256 S1255 1.613 . S
N1256 C1259 1.350 . S
N1257 S1255 1.610 . S
N1257 C1258 1.351 . S
C1258 C1252 1.428 . S
C1258 N1257 1.351 . S
C1258 C1259 1.434 . S
C1259 C1250 1.429 . S
C1259 N1256 1.350 . S
C1259 C1258 1.434 . S
C469 C53 1.272 . S
C471 C10 1.304 . S
C480 C75 1.306 . S
C482 C14 1.275 . S
C491 C49 1.302 . S
C493 C36 1.302 . S
C502 C140 1.269 . S
C504 C79 1.300 . S
C513 C101 1.269 . S
C515 C144 1.301 . S
C524 C127 1.269 . S
C526 C114 1.270 . S
C535 C166 1.370 . S
C537 C209 1.324 . S
C546 C231 1.370 . S
C548 C170 1.328 . S
C557 C192 1.368 . S
C559 C205 1.369 . S
C568 C235 1.369 . S
C570 C296 1.327 . S
C579 C300 1.369 . S
C581 C257 1.329 . S
C590 C270 1.325 . S
C592 C283 1.326 . S
C601 C365 1.333 . S
C603 C322 1.368 . S
C612 C326 1.323 . S
C614 C387 1.370 . S
C623 C361 1.368 . S
C625 C348 1.369 . S
C634 C452 1.331 . S
C636 C391 1.369 . S
C645 C413 1.332 . S
C647 C456 1.368 . S
C656 C426 1.326 . S
C658 C439 1.322 . S
C667 C146 1.705 . S
C669 C5 1.705 . S
C678 C16 1.657 1_556 S
C680 C122 1.658 1_556 S
C689 C135 1.663 1_556 S
C691 C31 1.705 . S
C700 C96 1.661 1_554 S
C702 C44 1.705 . S
C711 C55 1.659 1_554 S
C713 C109 1.659 1_554 S
C722 C81 1.705 . S
C724 C70 1.705 . S
C733 C161 1.759 . S
C735 C302 1.759 . S
C744 C278 1.708 . S
C746 C172 1.708 . S
C755 C291 1.711 . S
C757 C187 1.758 . S
C766 C200 1.747 . S
C768 C252 1.693 . S
C777 C211 1.699 . S
C779 C265 1.698 . S
C788 C226 1.747 . S
C790 C237 1.747 . S
C799 C458 1.747 . S
C801 C317 1.747 . S
C810 C328 1.692 . S
C812 C434 1.692 . S
C821 C343 1.746 . S
C823 C447 1.692 . S
C832 C408 1.710 . S
C834 C356 1.759 . S
C843 C421 1.710 . S
C845 C367 1.710 . S
C854 C393 1.759 . S
C856 C382 1.759 . S
C865 C198 1.582 . S
C867 C3 1.585 . S
C876 C213 1.525 . S
C878 C18 1.543 . S
C887 C29 1.588 . S
C889 C224 1.581 . S
C898 C42 1.588 . S
C900 C315 1.581 . S
C909 C57 1.543 . S
C911 C330 1.526 . S
C920 C68 1.588 . S
C922 C341 1.581 . S
C931 C83 1.588 . S
C933 C432 1.526 . S
C942 C94 1.544 . S
C944 C445 1.520 . S
C953 C107 1.539 . S
C955 C460 1.579 . S
C964 C120 1.542 . S
C966 C239 1.580 . S
C975 C250 1.528 . S
C977 C133 1.538 . S
C986 C263 1.525 . S
C988 C148 1.585 . S
C997 C354 1.838 . S
C999 C159 1.837 . S
C1008 C174 1.783 . S
C1010 C369 1.786 . S
C1019 C380 1.837 . S
C1021 C185 1.838 . S
C1030 C276 1.785 . S
C1032 C395 1.838 . S
C1041 C406 1.784 . S
C1043 C289 1.787 . S
C1052 C419 1.789 . S
C1054 C304 1.838 . S
C1063 C1 2.091 . S
C1065 C378 2.104 . S
C1074 C23 2.006 . S
C1076 C352 2.103 . S
C1085 C27 2.094 . S
C1087 C374 2.018 . S
C1096 C40 2.091 . S
C1098 C179 2.018 . S
C1107 C183 2.100 . S
C1109 C62 2.015 . S
C1118 C157 2.102 . S
C1120 C66 2.096 . S
C1129 C309 2.102 . S
C1131 C88 2.095 . S
C1140 C274 2.018 . S
C1142 C92 2.009 . S
C1151 C287 2.017 . S
C1153 C105 2.009 . S
C1162 C404 2.017 . S
C1164 C118 2.009 . S
C1173 C417 2.015 . S
C1175 C131 2.011 . S
C1184 C400 2.098 . S
C1186 C153 2.098 . S
C1195 C196 1.899 . S
C1197 C335 1.804 . S
C1206 C339 1.900 . S
C1208 C218 1.800 . S
C1217 C313 1.901 . S
C1219 C222 1.896 . S
C1228 C244 1.900 . S
C1230 C465 1.895 . S
C1239 C430 1.808 . S
C1241 C248 1.801 . S
C1250 C261 1.802 . S
C1252 C443 1.804 . S
