# Generated by pormake.
# Topology tfs, (6)-cn, num edge types: 1
# Building blocks:
#     Node 0, Type 0, BuildingBlock: GEDQOX_clean_sbu_0, # of connection points: 6
#     Node 1, Type 0, BuildingBlock: GEDQOX_clean_sbu_0, # of connection points: 6
#     Node 2, Type 0, BuildingBlock: GEDQOX_clean_sbu_0, # of connection points: 6
#     Node 3, Type 0, BuildingBlock: GEDQOX_clean_sbu_0, # of connection points: 6
#     Node 4, Type 0, BuildingBlock: GEDQOX_clean_sbu_0, # of connection points: 6
#     Node 5, Type 0, BuildingBlock: GEDQOX_clean_sbu_0, # of connection points: 6
#     Edge 6, Type (0, 0), BuildingBlock: UVAHIK_clean_linker_0, # of connection points: 2
#     Edge 7, Type (0, 0), BuildingBlock: UVAHIK_clean_linker_0, # of connection points: 2
#     Edge 8, Type (0, 0), BuildingBlock: UVAHIK_clean_linker_0, # of connection points: 2
#     Edge 9, Type (0, 0), BuildingBlock: UVAHIK_clean_linker_0, # of connection points: 2
#     Edge 10, Type (0, 0), BuildingBlock: UVAHIK_clean_linker_0, # of connection points: 2
#     Edge 11, Type (0, 0), BuildingBlock: UVAHIK_clean_linker_0, # of connection points: 2
#     Edge 12, Type (0, 0), BuildingBlock: UVAHIK_clean_linker_0, # of connection points: 2
#     Edge 13, Type (0, 0), BuildingBlock: UVAHIK_clean_linker_0, # of connection points: 2
#     Edge 14, Type (0, 0), BuildingBlock: UVAHIK_clean_linker_0, # of connection points: 2
#     Edge 15, Type (0, 0), BuildingBlock: UVAHIK_clean_linker_0, # of connection points: 2
#     Edge 16, Type (0, 0), BuildingBlock: UVAHIK_clean_linker_0, # of connection points: 2
#     Edge 17, Type (0, 0), BuildingBlock: UVAHIK_clean_linker_0, # of connection points: 2
#     Edge 18, Type (0, 0), BuildingBlock: UVAHIK_clean_linker_0, # of connection points: 2
#     Edge 19, Type (0, 0), BuildingBlock: UVAHIK_clean_linker_0, # of connection points: 2
#     Edge 20, Type (0, 0), BuildingBlock: UVAHIK_clean_linker_0, # of connection points: 2
#     Edge 21, Type (0, 0), BuildingBlock: UVAHIK_clean_linker_0, # of connection points: 2
#     Edge 22, Type (0, 0), BuildingBlock: UVAHIK_clean_linker_0, # of connection points: 2
#     Edge 23, Type (0, 0), BuildingBlock: UVAHIK_clean_linker_0, # of connection points: 2
# Relax obj value: 0.528
# Max RMSD: 0.402
# Mean RMSD: 0.335
data_MOF--net-tfs--node1-GEDQOX_clean_sbu_0--edge1-UVAHIK_clean_linker_0
_symmetry_space_group_name_H-M    P1
_symmetry_Int_Tables_number       1
_symmetry_cell_setting            triclinic
loop_
_symmetry_equiv_pos_as_xyz
'x, y, z'
_cell_length_a     57.667267
_cell_length_b     61.887582
_cell_length_c     16.980033
_cell_angle_alpha  95.947165
_cell_angle_beta   88.712345
_cell_angle_gamma 114.24325
loop_
_atom_site_label
_atom_site_type_symbol
_atom_site_fract_x
_atom_site_fract_y
_atom_site_fract_z
_atom_type_partial_charge
Nd0 Nd 0.22442 0.37615 0.01644 0.0
Nd1 Nd 0.2799 0.40167 0.97535 0.0
C2 C 0.17742 0.35807 0.06428 0.0
C3 C 0.1617 0.3351 0.09153 0.0
C4 C 0.17282 0.32155 0.12401 0.0
C5 C 0.1575 0.30053 0.15571 0.0
C6 C 0.13093 0.29294 0.15573 0.0
C7 C 0.12003 0.306 0.11854 0.0
C8 C 0.13534 0.32685 0.08639 0.0
C9 C 0.23861 0.35804 0.87891 0.0
C10 C 0.26321 0.35533 0.07413 0.0
C11 C 0.3247 0.41487 0.91121 0.0
C12 C 0.3442 0.43856 0.90158 0.0
C13 C 0.34875 0.44631 0.8257 0.0
C14 C 0.36381 0.47007 0.81694 0.0
C15 C 0.37441 0.48617 0.88402 0.0
C16 C 0.37076 0.47829 0.95951 0.0
C17 C 0.35573 0.45462 0.96835 0.0
C18 C 0.26801 0.41768 0.12121 0.0
C19 C 0.24512 0.43021 0.95631 0.0
O20 O 0.19661 0.37189 0.11108 0.0
O21 O 0.18317 0.35753 -0.01053 0.0
O22 O 0.22255 0.34471 0.9269 0.0
O23 O 0.24509 0.37975 0.90196 0.0
O24 O 0.24209 0.35804 0.09198 0.0
O25 O 0.27762 0.36635 0.01647 0.0
O26 O 0.30375 0.40906 0.86982 0.0
O27 O 0.32059 0.40906 0.98383 0.0
O28 O 0.28649 0.4313 0.07959 0.0
O29 O 0.25955 0.39674 0.08876 0.0
O30 O 0.2666 0.42877 0.93515 0.0
O31 O 0.22721 0.41329 -0.00759 0.0
H32 H 0.1933 0.32755 0.12694 0.0
H33 H 0.16652 0.2907 0.18237 0.0
H34 H 0.09972 0.30103 0.11815 0.0
H35 H 0.12663 0.33703 0.06026 0.0
H36 H 0.33976 0.43424 0.77363 0.0
H37 H 0.36643 0.47604 0.7583 0.0
H38 H 0.37918 0.49055 0.01174 0.0
H39 H 0.35243 0.4492 0.02769 0.0
Nd40 Nd 0.84601 0.26768 0.77426 0.0
Nd41 Nd 0.78921 0.25228 0.82789 0.0
C42 C 0.89186 0.28383 0.71835 0.0
C43 C 0.90945 0.27261 0.69779 0.0
C44 C 0.90605 0.25753 0.62728 0.0
C45 C 0.92342 0.24768 0.60747 0.0
C46 C 0.94435 0.25276 0.65787 0.0
C47 C 0.94698 0.26675 0.7303 0.0
C48 C 0.92969 0.27668 0.75001 0.0
C49 C 0.83483 0.25455 0.92218 0.0
C50 C 0.80967 0.21192 0.74241 0.0
C51 C 0.74672 0.23751 0.90307 0.0
C52 C 0.7291 0.24897 0.91306 0.0
C53 C 0.72401 0.25694 -0.01088 0.0
C54 C 0.70764 0.26839 -0.00187 0.0
C55 C 0.69642 0.27179 0.93102 0.0
C56 C 0.70252 0.26501 0.8551 0.0
C57 C 0.71886 0.25376 0.84604 0.0
C58 C 0.79868 0.26267 0.67958 0.0
C59 C 0.82435 0.30911 0.82833 0.0
O60 O 0.87151 0.27715 0.67269 0.0
O61 O 0.88738 0.28617 0.79401 0.0
O62 O 0.85189 0.25022 0.88056 0.0
O63 O 0.82653 0.26664 0.8869 0.0
O64 O 0.83075 0.22928 0.72173 0.0
O65 O 0.79306 0.21616 0.79084 0.0
O66 O 0.76869 0.2491 0.94057 0.0
O67 O 0.74855 0.22888 0.83047 0.0
O68 O 0.78169 0.26814 0.71821 0.0
O69 O 0.80784 0.25193 0.71755 0.0
O70 O 0.80316 0.29296 0.85466 0.0
O71 O 0.84152 0.3032 0.78999 0.0
H72 H 0.89043 0.25382 0.58633 0.0
H73 H 0.92127 0.23722 0.55069 0.0
H74 H 0.96299 0.27079 0.77004 0.0
H75 H 0.93249 0.28797 0.80531 0.0
H76 H 0.73237 0.254 0.04124 0.0
H77 H 0.70274 0.27348 0.05703 0.0
H78 H 0.69377 0.26755 0.80298 0.0
H79 H 0.72307 0.24854 0.78643 0.0
Nd80 Nd 0.6317 0.88938 0.10107 0.0
Nd81 Nd 0.61098 0.83728 0.06117 0.0
C82 C 0.65076 0.93618 0.10362 0.0
C83 C 0.67375 0.95574 0.13983 0.0
C84 C 0.68124 0.97866 0.11696 0.0
C85 C 0.701 0.99798 0.15779 0.0
C86 C 0.71394 0.99477 0.22214 0.0
C87 C 0.70751 0.9713 0.24065 0.0
C88 C 0.68751 0.95202 0.20027 0.0
C89 C 0.62754 0.86634 0.23242 0.0
C90 C 0.67122 0.86363 0.11254 0.0
C91 C 0.6007 0.7916 0.03911 0.0
C92 C 0.58057 0.76937 0.00501 0.0
C93 C 0.56183 0.75535 0.05424 0.0
C94 C 0.54277 0.73411 0.02293 0.0
C95 C 0.54222 0.72654 0.94197 0.0
C96 C 0.56113 0.74027 0.89263 0.0
C97 C 0.58027 0.76163 0.92402 0.0
C98 C 0.62244 0.86263 0.93138 0.0
C99 C 0.56798 0.85737 0.07242 0.0
O100 O 0.65433 0.92239 0.04529 0.0
O101 O 0.63364 0.92435 0.1531 0.0
O102 O 0.64385 0.88794 0.2257 0.0
O103 O 0.61156 0.85907 0.17525 0.0
O104 O 0.67001 0.88454 0.10995 0.0
O105 O 0.65053 0.84388 0.10278 0.0
O106 O 0.59553 0.8018 0.1045 0.0
O107 O 0.61361 0.80671 -0.01059 0.0
O108 O 0.60074 0.845 0.94074 0.0
O109 O 0.63604 0.86749 -0.00684 0.0
O110 O 0.57211 0.83808 0.07603 0.0
O111 O 0.58764 0.87867 0.07216 0.0
H112 H 0.67105 0.98178 0.06967 0.0
H113 H 0.70497 0.01554 0.14123 0.0
H114 H 0.71741 0.96777 0.2877 0.0
H115 H 0.68229 0.93432 0.21786 0.0
H116 H 0.56194 0.76069 0.11709 0.0
H117 H 0.5287 0.72339 0.06243 0.0
H118 H 0.561 0.73456 0.83006 0.0
H119 H 0.59478 0.77198 0.88496 0.0
Nd120 Nd 0.88012 0.70389 0.66367 0.0
Nd121 Nd 0.89265 0.6615 0.7056 0.0
C122 C 0.86246 0.73322 0.60911 0.0
C123 C 0.85251 0.74974 0.57831 0.0
C124 C 0.85559 0.75466 0.4987 0.0
C125 C 0.8454 0.76942 0.46894 0.0
C126 C 0.83171 0.77978 0.51766 0.0
C127 C 0.82926 0.77528 0.59803 0.0
C128 C 0.83948 0.76053 0.62776 0.0
C129 C 0.90181 0.71063 0.81258 0.0
C130 C 0.9381 0.70555 0.61904 0.0
C131 C 0.90566 0.63061 0.76912 0.0
C132 C 0.89364 0.6054 0.78814 0.0
C133 C 0.8889 0.59977 0.86698 0.0
C134 C 0.88037 0.57603 0.88476 0.0
C135 C 0.87678 0.5576 0.82408 0.0
C136 C 0.88033 0.56315 0.74533 0.0
C137 C 0.88859 0.58665 0.72759 0.0
C138 C 0.86924 0.65651 0.56215 0.0
C139 C 0.83387 0.65309 0.72555 0.0
O140 O 0.87336 0.72178 0.56402 0.0
O141 O 0.86094 0.72891 0.68335 0.0
O142 O 0.90642 0.72738 0.76657 0.0
O143 O 0.88577 0.69117 0.77887 0.0
O144 O 0.92102 0.71456 0.60798 0.0
O145 O 0.93243 0.68723 0.66191 0.0
O146 O 0.8998 0.64647 0.81195 0.0
O147 O 0.90812 0.63413 0.69404 0.0
O148 O 0.8653 0.63812 0.60002 0.0
O149 O 0.88638 0.67476 0.59558 0.0
O150 O 0.85199 0.6471 0.74739 0.0
O151 O 0.83945 0.67243 0.68666 0.0
H152 H 0.86557 0.7468 0.45873 0.0
H153 H 0.84761 0.77203 0.40673 0.0
H154 H 0.81937 0.78311 0.63841 0.0
H155 H 0.83689 0.75735 0.68955 0.0
H156 H 0.89257 0.61377 0.9151 0.0
H157 H 0.87779 0.57225 0.94602 0.0
H158 H 0.87736 0.54928 0.69721 0.0
H159 H 0.89181 0.59012 0.6662 0.0
Nd160 Nd 0.24649 0.82156 0.16391 0.0
Nd161 Nd 0.23489 0.76702 0.1191 0.0
C162 C 0.25659 0.86603 0.22416 0.0
C163 C 0.25131 0.88777 0.23783 0.0
C164 C 0.2408 0.89234 0.30972 0.0
C165 C 0.24104 0.91483 0.33238 0.0
C166 C 0.25205 0.93358 0.28435 0.0
C167 C 0.26084 0.92854 0.20955 0.0
C168 C 0.26057 0.90592 0.1867 0.0
C169 C 0.22481 0.80241 0.01676 0.0
C170 C 0.19071 0.78027 0.21934 0.0
C171 C 0.22428 0.72455 0.04109 0.0
C172 C 0.23187 0.70427 0.02755 0.0
C173 C 0.23704 0.69678 0.95062 0.0
C174 C 0.23986 0.67526 0.93503 0.0
C175 C 0.23718 0.66071 -0.004 0.0
C176 C 0.23325 0.66881 0.07341 0.0
C177 C 0.2307 0.69031 0.08907 0.0
C178 C 0.25861 0.78481 0.26303 0.0
C179 C 0.29431 0.80771 0.09418 0.0
O180 O 0.24328 0.84732 0.26079 0.0
O181 O 0.26441 0.86062 0.15502 0.0
O182 O 0.23976 0.82463 0.03349 0.0
O183 O 0.21946 0.79186 0.07813 0.0
O184 O 0.20807 0.80276 0.23052 0.0
O185 O 0.19568 0.76402 0.1725 0.0
O186 O 0.23776 0.74447 0.01056 0.0
O187 O 0.21548 0.72796 0.11087 0.0
O188 O 0.24466 0.76226 0.24458 0.0
O189 O 0.26126 0.79621 0.20415 0.0
O190 O 0.27695 0.78554 0.0753 0.0
O191 O 0.28768 0.82393 0.13474 0.0
H192 H 0.23362 0.87892 0.3508 0.0
H193 H 0.23354 0.91781 0.38954 0.0
H194 H 0.26944 0.94247 0.17083 0.0
H195 H 0.26894 0.90311 0.13098 0.0
H196 H 0.23784 0.70706 0.90192 0.0
H197 H 0.24286 0.66945 0.87477 0.0
H198 H 0.23152 0.65818 0.12185 0.0
H199 H 0.22679 0.69547 0.14909 0.0
Nd200 Nd 0.42699 0.295 0.76579 0.0
Nd201 Nd 0.47121 0.35279 0.78885 0.0
C202 C 0.40153 0.2491 0.71463 0.0
C203 C 0.37968 0.22591 0.69049 0.0
C204 C 0.3711 0.22006 0.61098 0.0
C205 C 0.35435 0.19682 0.58301 0.0
C206 C 0.34536 0.17855 0.6337 0.0
C207 C 0.35284 0.18484 0.71457 0.0
C208 C 0.36995 0.20808 0.74229 0.0
C209 C 0.41794 0.32228 0.89313 0.0
C210 C 0.41634 0.33713 0.69219 0.0
C211 C 0.50544 0.39706 0.8368 0.0
C212 C 0.53199 0.41625 0.82843 0.0
C213 C 0.54969 0.42412 0.89243 0.0
C214 C 0.57347 0.44379 0.88931 0.0
C215 C 0.58073 0.45652 0.82173 0.0
C216 C 0.56307 0.44817 0.7571 0.0
C217 C 0.53923 0.42863 0.76057 0.0
C218 C 0.47743 0.32425 0.65967 0.0
C219 C 0.47728 0.311 0.87801 0.0
O220 O 0.40724 0.26644 0.66999 0.0
O221 O 0.40887 0.25647 0.78893 0.0
O222 O 0.40392 0.2997 0.87456 0.0
O223 O 0.43433 0.32917 0.84049 0.0
O224 O 0.41221 0.3144 0.68892 0.0
O225 O 0.43555 0.35481 0.73329 0.0
O226 O 0.50259 0.37822 0.87172 0.0
O227 O 0.48837 0.39203 0.78011 0.0
O228 O 0.48903 0.3473 0.66881 0.0
O229 O 0.46591 0.3177 0.72252 0.0
O230 O 0.48067 0.33358 0.88289 0.0
O231 O 0.46098 0.29411 0.82776 0.0
H232 H 0.37839 0.23317 0.56886 0.0
H233 H 0.34966 0.19308 0.52035 0.0
H234 H 0.34603 0.17172 0.75667 0.0
H235 H 0.37624 0.21185 0.80378 0.0
H236 H 0.54485 0.4154 0.94631 0.0
H237 H 0.58578 0.44932 0.94138 0.0
H238 H 0.56751 0.45664 0.70282 0.0
H239 H 0.52629 0.42344 0.70999 0.0
C240 C 0.40368 0.36305 0.61237 0.0
C241 C 0.39768 0.34165 0.64572 0.0
C242 C 0.38698 0.36461 0.55633 0.0
C243 C 0.3214 0.33082 0.4626 0.0
H244 H 0.35311 0.36615 0.2857 0.0
C245 C 0.26311 0.34102 0.20683 0.0
C246 C 0.27438 0.34589 0.13269 0.0
C247 C 0.27656 0.33821 0.26964 0.0
C248 C 0.34389 0.35574 0.33373 0.0
H249 H 0.36847 0.30585 0.6519 0.0
H250 H 0.34064 0.30812 0.55357 0.0
H251 H 0.3791 0.36793 0.3983 0.0
H252 H 0.30773 0.34932 0.06457 0.0
H253 H 0.33084 0.34366 0.173 0.0
H254 H 0.28646 0.31744 0.39606 0.0
C255 C 0.35771 0.32395 0.57011 0.0
C256 C 0.35882 0.35727 0.39966 0.0
C257 C 0.37402 0.32255 0.62633 0.0
C258 C 0.29855 0.34584 0.12108 0.0
C259 C 0.31198 0.34295 0.18388 0.0
C260 C 0.30656 0.32888 0.39595 0.0
C261 C 0.36414 0.34474 0.53244 0.0
C262 C 0.34786 0.34476 0.46505 0.0
C263 C 0.30167 0.34023 0.26016 0.0
C264 C 0.31757 0.34128 0.33026 0.0
H265 H 0.42168 0.37809 0.62651 0.0
H266 H 0.39231 0.38118 0.53026 0.0
H267 H 0.312 0.32123 0.5121 0.0
H268 H 0.24451 0.34093 0.21821 0.0
H269 H 0.26769 0.33592 0.32676 0.0
C270 C 0.12366 0.27161 0.27745 0.0
C271 C 0.11479 0.27372 0.20344 0.0
C272 C 0.10667 0.25843 0.33186 0.0
C273 C 0.03628 0.22522 0.36399 0.0
H274 H 0.05621 0.26039 0.57137 0.0
C275 C 0.96081 0.22445 0.5892 0.0
C276 C 0.96539 0.24692 0.62864 0.0
C277 C 0.98039 0.22062 0.54932 0.0
C278 C 0.05023 0.2505 0.51362 0.0
H279 H 0.08191 0.26046 0.12389 0.0
H280 H 0.05205 0.23994 0.22051 0.0
H281 H 0.08782 0.26565 0.4725 0.0
H282 H 0.99374 0.28283 0.6592 0.0
H283 H 1.02738 0.27667 0.58789 0.0
H284 H 0.99803 0.21284 0.40254 0.0
C285 C 0.072 0.24782 0.23737 0.0
C286 C 0.0686 0.25303 0.45676 0.0
C287 C 0.08916 0.2601 0.1818 0.0
C288 C 0.9899 0.26517 0.63064 0.0
C289 C 1.00926 0.26153 0.58973 0.0
C290 C 1.01771 0.22354 0.41989 0.0
C291 C 0.08036 0.24802 0.31491 0.0
C292 C 0.0618 0.24111 0.37993 0.0
C293 C 1.00466 0.23936 0.54712 0.0
C294 C 1.02442 0.23695 0.4943 0.0
H295 H 0.14333 0.2816 0.29633 0.0
H296 H 0.11414 0.25793 0.3892 0.0
H297 H 0.03027 0.21496 0.3069 0.0
H298 H 0.94193 0.21015 0.5871 0.0
H299 H 0.97627 0.20322 0.51826 0.0
C300 C 0.77816 0.17022 0.69785 0.0
C301 C 0.8029 0.18816 0.69773 0.0
C302 C 0.77129 0.14916 0.64675 0.0
C303 C 0.79241 0.12307 0.46415 0.0
H304 H 0.74177 0.06444 0.53051 0.0
C305 C 0.74499 0.03809 0.24465 0.0
C306 C 0.73185 0.0159 0.27422 0.0
C307 C 0.75724 0.05884 0.29605 0.0
C308 C 0.7564 0.08039 0.51086 0.0
H309 H 0.83992 0.19785 0.6437 0.0
H310 H 0.82828 0.16115 0.55777 0.0
H311 H 0.75563 0.10028 0.62053 0.0
H312 H 0.7243 0.99822 0.38221 0.0
H313 H 0.74768 0.0335 0.46946 0.0
H314 H 0.79434 0.1029 0.35617 0.0
C315 C 0.81389 0.16333 0.59572 0.0
C316 C 0.76392 0.10128 0.56248 0.0
C317 C 0.82068 0.18436 0.64624 0.0
C318 C 0.73386 0.01477 0.35606 0.0
C319 C 0.74687 0.03537 0.40707 0.0
C320 C 0.78533 0.102 0.41304 0.0
C321 C 0.78904 0.14544 0.59463 0.0
C322 C 0.78174 0.12303 0.53969 0.0
C323 C 0.7575 0.05795 0.37864 0.0
C324 C 0.76691 0.08029 0.43508 0.0
H325 H 0.76386 0.17273 0.73544 0.0
H326 H 0.75181 0.13607 0.64684 0.0
H327 H 0.80601 0.13945 0.44362 0.0
H328 H 0.74502 0.03973 0.18182 0.0
H329 H 0.76533 0.07562 0.27057 0.0
C330 C 0.7954 0.79297 0.51165 0.0
C331 C 0.819 0.79401 0.48364 0.0
C332 C 0.78231 0.80425 0.47533 0.0
C333 C 0.78788 0.84798 0.32789 0.0
H334 H 0.71503 0.81122 0.30692 0.0
C335 C 0.71494 0.87898 0.18238 0.0
C336 C 0.69449 0.86074 0.13869 0.0
C337 C 0.73266 0.87358 0.2238 0.0
C338 C 0.73537 0.82179 0.31172 0.0
H339 H 0.84787 0.80964 0.39739 0.0
H340 H 0.82485 0.82865 0.33315 0.0
H341 H 0.7405 0.79729 0.38199 0.0
H342 H 0.67874 0.82292 0.09791 0.0
H343 H 0.70913 0.81393 0.16776 0.0
H344 H 0.78239 0.87221 0.25526 0.0
C345 C 0.81639 0.81906 0.38356 0.0
C346 C 0.75007 0.8139 0.3561 0.0
C347 C 0.82953 0.80778 0.42004 0.0
C348 C 0.69377 0.83754 0.13193 0.0
C349 C 0.71118 0.83222 0.17299 0.0
C350 C 0.77303 0.85599 0.28354 0.0
C351 C 0.79221 0.81701 0.40923 0.0
C352 C 0.77664 0.82665 0.36466 0.0
C353 C 0.73034 0.84987 0.22218 0.0
C354 C 0.74654 0.84278 0.27368 0.0
H355 H 0.78638 0.78264 0.56005 0.0
H356 H 0.7641 0.8026 0.49864 0.0
H357 H 0.80819 0.85855 0.3333 0.0
H358 H 0.71614 0.897 0.18942 0.0
H359 H 0.74728 0.88775 0.2605 0.0
C360 C 0.14471 0.75026 0.2427 0.0
C361 C 0.16467 0.77313 0.25936 0.0
C362 C 0.12067 0.74358 0.27974 0.0
C363 C 0.08545 0.7638 0.44971 0.0
H364 H 1.02656 0.71133 0.35188 0.0
C365 C 0.98392 0.73653 0.59943 0.0
C366 C 0.96356 0.71446 0.57629 0.0
C367 C 1.00787 0.74394 0.56121 0.0
C368 C 0.04249 0.72589 0.38213 0.0
H369 H 0.17363 0.80683 0.33019 0.0
H370 H 0.13244 0.79563 0.3931 0.0
H371 H 0.06709 0.72308 0.28841 0.0
H372 H 0.95328 0.68303 0.49281 0.0
H373 H 0.9939 0.69537 0.42706 0.0
H374 H 0.06097 0.76666 0.54345 0.0
C375 C 0.13517 0.78235 0.3521 0.0
C376 C 0.06645 0.73281 0.34449 0.0
C377 C 0.1592 0.78901 0.31493 0.0
C378 C 0.96823 0.7002 0.51292 0.0
C379 C 0.99202 0.70759 0.47431 0.0
C380 C 0.06149 0.75684 0.48755 0.0
C381 C 0.11506 0.75936 0.33596 0.0
C382 C 0.08881 0.75196 0.37699 0.0
C383 C 1.01283 0.72971 0.49714 0.0
C384 C 0.03909 0.73757 0.45532 0.0
H385 H 0.1476 0.73727 0.20055 0.0
H386 H 0.10662 0.72563 0.26451 0.0
H387 H 0.10153 0.77841 0.47934 0.0
H388 H 0.98148 0.74808 0.64827 0.0
H389 H 1.02238 0.76112 0.58256 0.0
C390 C 0.25464 0.97514 0.26962 0.0
C391 C 0.25696 0.95861 0.31672 0.0
C392 C 0.26093 0.99893 0.30103 0.0
C393 C 0.30241 0.04283 0.45722 0.0
H394 H 0.26298 0.07969 0.43437 0.0
C395 C 0.33205 0.13409 0.63619 0.0
C396 C 0.33017 0.15295 0.60087 0.0
C397 C 0.32033 0.11054 0.60132 0.0
C398 C 0.27439 0.06977 0.44077 0.0
H399 H 0.26776 0.95451 0.43403 0.0
H400 H 0.27826 0.99525 0.48799 0.0
H401 H 0.24798 0.03872 0.3701 0.0
H402 H 0.31232 0.16069 0.50237 0.0
H403 H 0.29328 0.11998 0.43965 0.0
H404 H 0.3291 0.07344 0.52556 0.0
C405 C 0.27165 0.99001 0.42688 0.0
C406 C 0.26574 0.04624 0.40381 0.0
C407 C 0.2653 0.96644 0.39597 0.0
C408 C 0.31508 0.14705 0.53087 0.0
C409 C 0.30368 0.12345 0.49515 0.0
C410 C 0.3111 0.06618 0.49326 0.0
C411 C 0.27005 1.00674 0.37977 0.0
C412 C 0.27948 0.03234 0.41293 0.0
C413 C 0.3067 0.10487 0.52875 0.0
C414 C 0.2971 0.07999 0.48717 0.0
H415 H 0.24813 0.96974 0.20848 0.0
H416 H 0.25945 1.01135 0.26304 0.0
H417 H 0.31384 0.03292 0.46396 0.0
H418 H 0.34345 0.13742 0.68946 0.0
H419 H 0.32249 0.09678 0.63093 0.0
C420 C 0.21773 0.61717 0.01179 0.0
C421 C 0.2368 0.63648 0.97931 0.0
C422 C 0.21767 0.5945 0.00067 0.0
C423 C 0.24518 0.55692 0.88228 0.0
H424 H 0.22598 0.52091 0.06473 0.0
C425 C 0.26051 0.4706 0.90654 0.0
C426 C 0.24201 0.45243 0.94569 0.0
C427 C 0.25895 0.49249 0.90363 0.0
C428 C 0.23104 0.53051 0.01272 0.0
H429 H 0.27029 0.64697 0.90696 0.0
H430 H 0.27064 0.60728 0.88889 0.0
H431 H 0.22552 0.56004 0.0724 0.0
H432 H 0.20686 0.4429 0.01018 0.0
H433 H 0.204 0.48086 0.00433 0.0
H434 H 0.2511 0.52727 0.8233 0.0
C435 C 0.25551 0.60965 0.92237 0.0
C436 C 0.23077 0.55305 0.01707 0.0
C437 C 0.25539 0.63241 0.9329 0.0
C438 C 0.22148 0.45644 0.97957 0.0
C439 C 0.21995 0.47833 0.97681 0.0
C440 C 0.24553 0.5343 0.87803 0.0
C441 C 0.23686 0.59048 0.95742 0.0
C442 C 0.23766 0.56655 0.95185 0.0
C443 C 0.23889 0.4968 0.94003 0.0
C444 C 0.23833 0.52076 0.94316 0.0
H445 H 0.20275 0.61959 0.04611 0.0
H446 H 0.20253 0.5801 0.02645 0.0
H447 H 0.25039 0.56666 0.83062 0.0
H448 H 0.27661 0.46817 0.87973 0.0
H449 H 0.27398 0.50633 0.87533 0.0
C450 C 0.49715 0.28336 0.89856 0.0
C451 C 0.49612 0.30555 0.91792 0.0
C452 C 0.51909 0.28054 0.91501 0.0
C453 C 0.58093 0.30668 0.01671 0.0
H454 H 0.60162 0.28215 0.82064 0.0
C455 C 0.67792 0.30082 0.97296 0.0
C456 C 0.67503 0.27825 0.93899 0.0
C457 C 0.65705 0.30668 0.97533 0.0
C458 C 0.59603 0.28908 0.87558 0.0
H459 H 0.51554 0.34101 0.97982 0.0
H460 H 0.55408 0.336 0.00768 0.0
H461 H 0.56105 0.28536 0.82485 0.0
H462 H 0.64901 0.24376 0.88416 0.0
H463 H 0.61246 0.25375 0.88966 0.0
H464 H 0.61595 0.30991 0.0675 0.0
C465 C 0.53801 0.32099 0.97926 0.0
C466 C 0.57285 0.2907 0.87823 0.0
C467 C 0.51601 0.32383 0.96298 0.0
C468 C 0.65138 0.26137 0.9096 0.0
C469 C 0.63068 0.26712 0.91233 0.0
C470 C 0.6042 0.30495 0.01414 0.0
C471 C 0.54008 0.29981 0.95122 0.0
C472 C 0.5649 0.29889 0.94936 0.0
C473 C 0.63349 0.28989 0.94397 0.0
C474 C 0.61142 0.29553 0.94409 0.0
H475 H 0.48198 0.2688 0.86483 0.0
H476 H 0.52032 0.26386 0.89447 0.0
H477 H 0.57509 0.31333 0.07167 0.0
H478 H 0.69627 0.31389 -0.0043 0.0
H479 H 0.65933 0.32432 4e-05 0.0
C480 C 0.49722 0.69792 0.93511 0.0
C481 C 0.52228 0.7038 0.91085 0.0
C482 C 0.47906 0.67487 0.91882 0.0
C483 C 0.46174 0.6186 0.80098 0.0
H484 H 0.43521 0.59186 -0.00231 0.0
C485 C 0.40879 0.51852 0.82263 0.0
C486 C 0.38884 0.51136 0.87593 0.0
C487 C 0.42365 0.54258 0.81917 0.0
C488 C 0.44204 0.59918 0.94218 0.0
H489 H 0.5479 0.69117 0.84568 0.0
H490 H 0.51562 0.65053 0.8157 0.0
H491 H 0.46356 0.63376 0.00078 0.0
H492 H 0.36745 0.52299 0.96409 0.0
H493 H 0.39304 0.56523 0.95667 0.0
H494 H 0.44 0.58406 0.74214 0.0
C495 C 0.51026 0.66385 0.84745 0.0
C496 C 0.45827 0.62302 0.94408 0.0
C497 C 0.52857 0.68694 0.86443 0.0
C498 C 0.38312 0.52833 0.92349 0.0
C499 C 0.39774 0.55237 0.91935 0.0
C500 C 0.44515 0.59474 0.79887 0.0
C501 C 0.48576 0.65764 0.87721 0.0
C502 C 0.46812 0.63277 0.87353 0.0
C503 C 0.41842 0.55963 0.86833 0.0
C504 C 0.43525 0.5849 0.86953 0.0
H505 H 0.49199 0.71087 0.96989 0.0
H506 H 0.46009 0.67022 0.94159 0.0
H507 H 0.46939 0.62604 0.74625 0.0
H508 H 0.41341 0.50551 0.78582 0.0
H509 H 0.4397 0.54777 0.78009 0.0
C510 C 0.85146 0.51998 0.88916 0.0
C511 C 0.87163 0.53296 0.84138 0.0
C512 C 0.84576 0.49593 0.89758 0.0
C513 C 0.85605 0.44519 0.79038 0.0
H514 H 0.83285 0.41385 0.98116 0.0
C515 C 0.85131 0.35187 0.80967 0.0
C516 C 0.8293 0.33486 0.84047 0.0
C517 C 0.8559 0.37598 0.81778 0.0
C518 C 0.83913 0.42235 0.9273 0.0
H519 H 0.90282 0.5316 0.77078 0.0
H520 H 0.8935 0.49042 0.78684 0.0
H521 H 0.84199 0.45632 0.98217 0.0
H522 H 0.79532 0.33028 0.90698 0.0
H523 H 0.80333 0.37263 0.92062 0.0
H524 H 0.85349 0.41165 0.73545 0.0
C525 C 0.88131 0.49819 0.81526 0.0
C526 C 0.84433 0.44667 0.92783 0.0
C527 C 0.88677 0.5219 0.80626 0.0
C528 C 0.81236 0.34282 0.88189 0.0
C529 C 0.81703 0.36711 0.89024 0.0
C530 C 0.85105 0.42114 0.79002 0.0
C531 C 0.86028 0.48457 0.85884 0.0
C532 C 0.85326 0.45848 0.85949 0.0
C533 C 0.83864 0.38391 0.8569 0.0
C534 C 0.84284 0.40942 0.85855 0.0
H535 H 0.83956 0.52812 0.91734 0.0
H536 H 0.82947 0.48604 0.93184 0.0
H537 H 0.86209 0.45336 0.73583 0.0
H538 H 0.86501 0.3466 0.77817 0.0
H539 H 0.873 0.38846 0.79272 0.0
C540 C 0.34017 0.836 0.06636 0.0
C541 C 0.32229 0.8132 0.08184 0.0
C542 C 0.36645 0.84115 0.05919 0.0
C543 C 0.41541 0.819 0.11601 0.0
H544 H 0.4595 0.8631 0.97531 0.0
C545 C 0.52104 0.83216 0.08689 0.0
C546 C 0.54035 0.85403 0.06918 0.0
C547 C 0.49512 0.82782 0.08432 0.0
C548 C 0.44772 0.85094 0.01594 0.0
H549 H 0.31881 0.77807 0.10241 0.0
H550 H 0.36403 0.78697 0.09172 0.0
H551 H 0.4141 0.8544 0.97773 0.0
H552 H 0.54645 0.88838 0.0324 0.0
H553 H 0.50115 0.88103 0.02873 0.0
H554 H 0.44862 0.81579 0.15594 0.0
C555 C 0.35797 0.80105 0.08437 0.0
C556 C 0.42135 0.84586 0.01721 0.0
C557 C 0.33172 0.79578 0.08974 0.0
C558 C 0.53242 0.87141 0.04755 0.0
C559 C 0.50618 0.86702 0.04477 0.0
C560 C 0.44163 0.82418 0.11521 0.0
C561 C 0.37604 0.8239 0.06946 0.0
C562 C 0.40454 0.82965 0.06713 0.0
C563 C 0.48689 0.84514 0.06413 0.0
C564 C 0.45853 0.84016 0.0649 0.0
H565 H 0.33383 0.84994 0.05968 0.0
H566 H 0.37935 0.85898 0.04782 0.0
H567 H 0.40371 0.80686 0.15687 0.0
H568 H 0.5259 0.81806 0.10338 0.0
H569 H 0.48151 0.81047 0.09753 0.0
C570 C 0.78476 0.63722 0.71417 0.0
C571 C 0.80685 0.63605 0.74332 0.0
C572 C 0.76011 0.61969 0.72835 0.0
C573 C 0.72594 0.56414 0.84228 0.0
H574 H 0.66971 0.55566 0.70568 0.0
C575 C 0.6276 0.48175 0.86561 0.0
C576 C 0.60619 0.47828 0.81861 0.0
C577 C 0.65115 0.50165 0.86121 0.0
C578 C 0.68472 0.55722 0.74553 0.0
H579 H 0.81932 0.61497 0.81259 0.0
H580 H 0.77804 0.58499 0.83376 0.0
H581 H 0.71012 0.58748 0.69061 0.0
H582 H 0.59382 0.49504 0.73214 0.0
H583 H 0.63348 0.52846 0.7235 0.0
H584 H 0.70095 0.53382 0.89658 0.0
C585 C 0.77884 0.59941 0.80147 0.0
C586 C 0.70863 0.57623 0.73673 0.0
C587 C 0.80317 0.61691 0.78822 0.0
C588 C 0.60952 0.49606 0.76819 0.0
C589 C 0.633 0.5159 0.76362 0.0
C590 C 0.70209 0.54502 0.85075 0.0
C591 C 0.75648 0.60006 0.77166 0.0
C592 C 0.73009 0.58014 0.78411 0.0
C593 C 0.65475 0.51933 0.80937 0.0
C594 C 0.68066 0.54071 0.8021 0.0
H595 H 0.78646 0.65149 0.67945 0.0
H596 H 0.74399 0.62177 0.70483 0.0
H597 H 0.74101 0.56619 0.88292 0.0
H598 H 0.62657 0.4688 0.90525 0.0
H599 H 0.66644 0.50255 0.89863 0.0
C600 C 0.2655 0.35944 0.76277 0.0
C601 C 0.24141 0.35014 0.79628 0.0
C602 C 0.26777 0.36047 0.68114 0.0
C603 C 0.23178 0.37385 0.54163 0.0
H604 H 0.28623 0.37784 0.39823 0.0
C605 C 0.24247 0.41181 0.24025 0.0
C606 C 0.26668 0.4211 0.20746 0.0
C607 C 0.23907 0.40287 0.31371 0.0
C608 C 0.27109 0.37712 0.43813 0.0
H609 H 0.20101 0.33105 0.77167 0.0
H610 H 0.20486 0.33271 0.62828 0.0
H611 H 0.27939 0.35492 0.51197 0.0
H612 H 0.3068 0.4313 0.22921 0.0
H613 H 0.30122 0.41718 0.36046 0.0
H614 H 0.22406 0.39677 0.4708 0.0
C615 C 0.22201 0.33963 0.66496 0.0
C616 C 0.26698 0.36369 0.50258 0.0
C617 C 0.21979 0.33853 0.74678 0.0
C618 C 0.28794 0.42443 0.25377 0.0
C619 C 0.28461 0.4157 0.3279 0.0
C620 C 0.23598 0.38737 0.47777 0.0
C621 C 0.24586 0.35232 0.63241 0.0
C622 C 0.24747 0.3622 0.55561 0.0
C623 C 0.25999 0.40342 0.35632 0.0
C624 C 0.25587 0.38943 0.42559 0.0
H625 H 0.28241 0.36772 0.80021 0.0
H626 H 0.28644 0.37008 0.65782 0.0
H627 H 0.21701 0.3736 0.5826 0.0
H628 H 0.22585 0.4091 0.20527 0.0
H629 H 0.21982 0.3937 0.33341 0.0
C630 C 0.82704 0.29213 0.59917 0.0
C631 C 0.80896 0.26893 0.60452 0.0
C632 C 0.84363 0.29665 0.53665 0.0
C633 C 0.81889 0.2822 0.3668 0.0
H634 H 0.87792 0.29288 0.2377 0.0
C635 C 0.81819 0.24728 0.05376 0.0
C636 C 0.83771 0.26041 0.00552 0.0
C637 C 0.81666 0.25707 0.1298 0.0
C638 C 0.86161 0.29079 0.27411 0.0
H639 H 0.79636 0.23168 0.55948 0.0
H640 H 0.824 0.23995 0.44566 0.0
H641 H 0.881 0.28988 0.37904 0.0
H642 H 0.8687 0.29458 -0.00851 0.0
H643 H 0.86614 0.31174 0.12541 0.0
H644 H 0.79872 0.2808 0.26152 0.0
C645 C 0.82574 0.25446 0.49021 0.0
C646 C 0.86341 0.28878 0.35385 0.0
C647 C 0.80898 0.24998 0.55178 0.0
C648 C 0.85472 0.28374 0.03104 0.0
C649 C 0.85267 0.2938 0.10562 0.0
C650 C 0.81699 0.2839 0.28725 0.0
C651 C 0.84122 0.27809 0.47868 0.0
C652 C 0.84176 0.28363 0.39886 0.0
C653 C 0.83437 0.28017 0.15621 0.0
C654 C 0.83805 0.28706 0.24022 0.0
H655 H 0.82859 0.30655 0.6436 0.0
H656 H 0.85609 0.3149 0.52828 0.0
H657 H 0.8021 0.27826 0.40264 0.0
H658 H 0.80399 0.22984 0.03215 0.0
H659 H 0.80248 0.24626 0.16887 0.0
C660 C 0.65929 0.86691 0.84506 0.0
C661 C 0.63385 0.86412 0.85273 0.0
C662 C 0.66771 0.86019 0.7726 0.0
C663 C 0.64135 0.81794 0.59882 0.0
H664 H 0.6927 0.86233 0.47625 0.0
C665 C 0.61708 0.83068 0.3085 0.0
C666 C 0.63484 0.85096 0.27762 0.0
C667 C 0.62519 0.81995 0.3646 0.0
C668 C 0.67861 0.849 0.5086 0.0
H669 H 0.59851 0.8555 0.78932 0.0
H670 H 0.61353 0.84458 0.66208 0.0
H671 H 0.69109 0.87251 0.61541 0.0
H672 H 0.67493 0.87378 0.27317 0.0
H673 H 0.6892 0.85108 0.35003 0.0
H674 H 0.62793 0.79488 0.49178 0.0
C675 C 0.62644 0.85075 0.71299 0.0
C676 C 0.67783 0.85515 0.58949 0.0
C677 C 0.61801 0.85735 0.78515 0.0
C678 C 0.66077 0.85779 0.29365 0.0
C679 C 0.66893 0.84516 0.34054 0.0
C680 C 0.64225 0.81164 0.51784 0.0
C681 C 0.65077 0.85074 0.70752 0.0
C682 C 0.65774 0.84065 0.63319 0.0
C683 C 0.6513 0.82881 0.38683 0.0
C684 C 0.6589 0.82841 0.47016 0.0
H685 H 0.672 0.87231 0.89631 0.0
H686 H 0.68682 0.86099 0.76874 0.0
H687 H 0.6263 0.80604 0.63299 0.0
H688 H 0.59695 0.82474 0.29584 0.0
H689 H 0.61066 0.80665 0.39598 0.0
C690 C 0.87259 0.65367 0.41843 0.0
C691 C 0.85912 0.65702 0.48465 0.0
C692 C 0.87427 0.66607 0.35299 0.0
C693 C 0.85042 0.69647 0.23455 0.0
H694 H 0.9222 0.73219 0.1972 0.0
C695 C 0.88437 0.72669 0.92839 0.0
C696 C 0.90077 0.71625 0.89877 0.0
C697 C 0.87999 0.72878 0.00971 0.0
C698 C 0.90207 0.72268 0.20729 0.0
H699 H 0.83449 0.67364 0.53159 0.0
H700 H 0.83665 0.69471 0.41512 0.0
H701 H 0.90889 0.71485 0.3223 0.0
H702 H 0.92644 0.70096 0.93028 0.0
H703 H 0.91933 0.705 0.07267 0.0
H704 H 0.84365 0.70284 0.11748 0.0
C705 C 0.8462 0.68284 0.41452 0.0
C706 C 0.89448 0.71277 0.27871 0.0
C707 C 0.84467 0.67049 0.48044 0.0
C708 C 0.91385 0.70917 0.9519 0.0
C709 C 0.90986 0.71168 0.03336 0.0
C710 C 0.85802 0.70644 0.16289 0.0
C711 C 0.86231 0.68179 0.3526 0.0
C712 C 0.8688 0.69818 0.2903 0.0
C713 C 0.89225 0.72076 0.06297 0.0
C714 C 0.88406 0.71811 0.14643 0.0
H715 H 0.88432 0.64384 0.42103 0.0
H716 H 0.88642 0.6647 0.3049 0.0
H717 H 0.83048 0.68558 0.243 0.0
H718 H 0.87393 0.73211 0.88814 0.0
H719 H 0.86631 0.73579 0.03059 0.0
C720 C 0.26611 0.78055 0.40038 0.0
C721 C 0.2654 0.79528 0.34435 0.0
C722 C 0.25824 0.78393 0.4766 0.0
C723 C 0.23157 0.81773 0.61172 0.0
H724 H 0.18652 0.75306 0.64985 0.0
C725 C 0.19699 0.80463 0.9122 0.0
C726 C 0.21093 0.79309 0.94125 0.0
C727 C 0.19002 0.80076 0.83215 0.0
C728 C 0.19837 0.77124 0.63879 0.0
H729 H 0.26454 0.82885 0.3273 0.0
H730 H 0.24768 0.83362 0.45854 0.0
H731 H 0.21027 0.76022 0.52785 0.0
H732 H 0.22639 0.76687 0.91316 0.0
H733 H 0.21486 0.76036 0.7734 0.0
H734 H 0.22034 0.8287 0.72367 0.0
C735 C 0.25364 0.81924 0.44426 0.0
C736 C 0.21241 0.77533 0.5701 0.0
C737 C 0.26289 0.81644 0.36912 0.0
C738 C 0.21533 0.77565 0.89204 0.0
C739 C 0.20853 0.77187 0.81195 0.0
C740 C 0.21721 0.81367 0.67998 0.0
C741 C 0.24882 0.80145 0.49513 0.0
C742 C 0.23059 0.79836 0.5594 0.0
C743 C 0.19757 0.78577 0.78048 0.0
C744 C 0.20211 0.79022 0.69686 0.0
H745 H 0.2694 0.76472 0.38282 0.0
H746 H 0.25637 0.77098 0.51737 0.0
H747 H 0.24488 0.83571 0.60345 0.0
H748 H 0.19327 0.81803 0.94997 0.0
H749 H 0.18138 0.81148 0.80918 0.0
C750 C 0.4902 0.31795 0.52238 0.0
C751 C 0.47135 0.31147 0.57974 0.0
C752 C 0.48331 0.3152 0.44238 0.0
C753 C 0.43047 0.29583 0.29576 0.0
H754 H 0.46057 0.36252 0.25741 0.0
C755 C 0.39907 0.32268 0.02444 0.0
C756 C 0.41989 0.33297 0.97554 0.0
C757 C 0.40292 0.32313 0.10548 0.0
C758 C 0.45205 0.34385 0.2671 0.0
H759 H 0.43129 0.29558 0.59663 0.0
H760 H 0.4189 0.28885 0.45933 0.0
H761 H 0.47446 0.34999 0.37233 0.0
H762 H 0.45997 0.3561 0.97433 0.0
H763 H 0.46698 0.35655 0.11548 0.0
H764 H 0.40819 0.2896 0.19011 0.0
C765 C 0.43895 0.29592 0.47516 0.0
C766 C 0.46023 0.33661 0.33215 0.0
C767 C 0.44596 0.29914 0.55482 0.0
C768 C 0.44376 0.34742 0.01049 0.0
C769 C 0.44771 0.3477 0.09162 0.0
C770 C 0.4224 0.30304 0.23014 0.0
C771 C 0.45749 0.30592 0.4194 0.0
C772 C 0.44988 0.31251 0.34627 0.0
C773 C 0.42767 0.33389 0.13836 0.0
C774 C 0.43338 0.32711 0.2145 0.0
H775 H 0.51005 0.32764 0.53998 0.0
H776 H 0.498 0.32273 0.39988 0.0
H777 H 0.42183 0.27723 0.30648 0.0
H778 H 0.38029 0.31191 -0.00118 0.0
H779 H 0.38695 0.31313 0.14073 0.0
loop_
_geom_bond_atom_site_label_1
_geom_bond_atom_site_label_2
_geom_bond_distance
_geom_bond_site_symmetry_2
_ccdc_geom_bond_type
Nd0 C2 2.840 . S
Nd0 O20 2.508 . S
Nd0 O21 2.490 1_554 S
Nd0 O22 2.476 1_554 S
Nd0 O23 2.675 1_554 S
Nd0 O24 2.410 1_554 S
Nd0 O29 2.422 . S
Nd0 O31 2.421 1_554 S
Nd1 C11 2.836 1_554 S
Nd1 O23 2.414 1_554 S
Nd1 O25 2.424 . S
Nd1 O26 2.500 1_554 S
Nd1 O27 2.492 . S
Nd1 O28 2.487 . S
Nd1 O29 2.682 . S
Nd1 O30 2.410 . S
C2 Nd0 2.840 . S
C2 C3 1.498 . S
C2 O20 1.258 . S
C2 O21 1.239 1_554 S
C3 C2 1.498 . S
C3 C4 1.366 . S
C3 C8 1.407 . S
C4 C3 1.366 . S
C4 C5 1.392 . S
C4 H32 0.930 . S
C5 C4 1.392 . S
C5 C6 1.398 . S
C5 H33 0.929 . S
C6 C5 1.398 . S
C6 C7 1.352 . S
C7 C6 1.352 . S
C7 C8 1.384 . S
C7 H34 0.930 1_554 S
C8 C3 1.407 . S
C8 C7 1.384 . S
C8 H35 0.929 1_554 S
C9 O22 1.241 . S
C9 O23 1.273 . S
C10 O24 1.251 1_554 S
C10 O25 1.268 . S
C11 Nd1 2.836 1_556 S
C11 C12 1.498 . S
C11 O26 1.258 . S
C11 O27 1.239 1_556 S
C12 C11 1.498 . S
C12 C13 1.366 . S
C12 C17 1.407 1_556 S
C13 C12 1.366 . S
C13 C14 1.392 . S
C13 H36 0.930 . S
C14 C13 1.392 . S
C14 C15 1.398 . S
C14 H37 0.929 . S
C15 C14 1.398 . S
C15 C16 1.352 . S
C16 C15 1.352 . S
C16 C17 1.384 1_556 S
C16 H38 0.930 1_556 S
C17 C12 1.407 1_554 S
C17 C16 1.384 1_554 S
C17 H39 0.929 . S
C18 O28 1.241 . S
C18 O29 1.273 . S
C19 O30 1.251 1_556 S
C19 O31 1.268 . S
O20 Nd0 2.508 . S
O20 C2 1.258 . S
O21 Nd0 2.490 1_556 S
O21 C2 1.239 1_556 S
O22 Nd0 2.476 1_556 S
O22 C9 1.241 . S
O23 Nd0 2.675 1_556 S
O23 Nd1 2.414 1_556 S
O23 C9 1.273 . S
O24 Nd0 2.410 1_556 S
O24 C10 1.251 1_556 S
O25 Nd1 2.424 . S
O25 C10 1.268 . S
O26 Nd1 2.500 1_556 S
O26 C11 1.258 . S
O27 Nd1 2.492 . S
O27 C11 1.239 1_554 S
O28 Nd1 2.487 . S
O28 C18 1.241 . S
O29 Nd0 2.422 . S
O29 Nd1 2.682 . S
O29 C18 1.273 . S
O30 Nd1 2.410 . S
O30 C19 1.251 1_554 S
O31 Nd0 2.421 1_556 S
O31 C19 1.268 . S
H32 C4 0.930 . S
H33 C5 0.929 . S
H34 C7 0.930 1_556 S
H35 C8 0.929 1_556 S
H36 C13 0.930 . S
H37 C14 0.929 . S
H38 C16 0.930 1_554 S
H39 C17 0.929 . S
Nd40 C42 2.836 . S
Nd40 O60 2.500 . S
Nd40 O61 2.492 . S
Nd40 O62 2.487 1_556 S
Nd40 O63 2.682 . S
Nd40 O64 2.410 . S
Nd40 O69 2.414 . S
Nd40 O71 2.424 . S
Nd41 C51 2.836 . S
Nd41 O63 2.414 . S
Nd41 O65 2.424 . S
Nd41 O66 2.500 . S
Nd41 O67 2.492 . S
Nd41 O68 2.487 . S
Nd41 O69 2.682 . S
Nd41 O70 2.410 . S
C42 Nd40 2.836 . S
C42 C43 1.498 . S
C42 O60 1.258 . S
C42 O61 1.239 . S
C43 C42 1.498 . S
C43 C44 1.366 . S
C43 C48 1.407 . S
C44 C43 1.366 . S
C44 C45 1.392 . S
C44 H72 0.930 . S
C45 C44 1.392 . S
C45 C46 1.398 . S
C45 H73 0.929 . S
C46 C45 1.398 . S
C46 C47 1.352 . S
C47 C46 1.352 . S
C47 C48 1.384 . S
C47 H74 0.930 . S
C48 C43 1.407 . S
C48 C47 1.384 . S
C48 H75 0.929 . S
C49 O62 1.241 . S
C49 O63 1.273 1_554 S
C50 O64 1.251 . S
C50 O65 1.268 . S
C51 Nd41 2.836 . S
C51 C52 1.498 . S
C51 O66 1.258 . S
C51 O67 1.239 . S
C52 C51 1.498 . S
C52 C53 1.366 1_556 S
C52 C57 1.407 . S
C53 C52 1.366 1_554 S
C53 C54 1.392 . S
C53 H76 0.930 . S
C54 C53 1.392 . S
C54 C55 1.398 1_554 S
C54 H77 0.929 . S
C55 C54 1.398 1_556 S
C55 C56 1.352 . S
C56 C55 1.352 . S
C56 C57 1.384 . S
C56 H78 0.930 . S
C57 C52 1.407 . S
C57 C56 1.384 . S
C57 H79 0.929 . S
C58 O68 1.241 . S
C58 O69 1.273 . S
C59 O70 1.251 . S
C59 O71 1.268 . S
O60 Nd40 2.500 . S
O60 C42 1.258 . S
O61 Nd40 2.492 . S
O61 C42 1.239 . S
O62 Nd40 2.487 1_554 S
O62 C49 1.241 . S
O63 Nd40 2.682 . S
O63 Nd41 2.414 . S
O63 C49 1.273 1_556 S
O64 Nd40 2.410 . S
O64 C50 1.251 . S
O65 Nd41 2.424 . S
O65 C50 1.268 . S
O66 Nd41 2.500 . S
O66 C51 1.258 . S
O67 Nd41 2.492 . S
O67 C51 1.239 . S
O68 Nd41 2.487 . S
O68 C58 1.241 . S
O69 Nd40 2.414 . S
O69 Nd41 2.682 . S
O69 C58 1.273 . S
O70 Nd41 2.410 . S
O70 C59 1.251 . S
O71 Nd40 2.424 . S
O71 C59 1.268 . S
H72 C44 0.930 . S
H73 C45 0.929 . S
H74 C47 0.930 . S
H75 C48 0.929 . S
H76 C53 0.930 . S
H77 C54 0.929 . S
H78 C56 0.930 . S
H79 C57 0.929 . S
Nd80 C82 2.836 . S
Nd80 O100 2.500 1_554 S
Nd80 O101 2.492 . S
Nd80 O102 2.487 . S
Nd80 O103 2.682 . S
Nd80 O104 2.410 . S
Nd80 O109 2.414 1_554 S
Nd80 O111 2.424 . S
Nd81 C91 2.836 . S
Nd81 O103 2.414 1_556 S
Nd81 O105 2.424 . S
Nd81 O106 2.500 1_556 S
Nd81 O107 2.492 . S
Nd81 O108 2.487 . S
Nd81 O109 2.682 . S
Nd81 O110 2.410 . S
C82 Nd80 2.836 . S
C82 C83 1.498 . S
C82 O100 1.258 1_554 S
C82 O101 1.239 . S
C83 C82 1.498 . S
C83 C84 1.366 . S
C83 C88 1.407 . S
C84 C83 1.366 . S
C84 C85 1.392 . S
C84 H112 0.930 1_554 S
C85 C84 1.392 . S
C85 C86 1.398 . S
C85 H113 0.929 1_554 S
C86 C85 1.398 . S
C86 C87 1.352 . S
C87 C86 1.352 . S
C87 C88 1.384 . S
C87 H114 0.930 . S
C88 C83 1.407 . S
C88 C87 1.384 . S
C88 H115 0.929 . S
C89 O102 1.241 . S
C89 O103 1.273 . S
C90 O104 1.251 . S
C90 O105 1.268 1_554 S
C91 Nd81 2.836 . S
C91 C92 1.498 . S
C91 O106 1.258 1_556 S
C91 O107 1.239 . S
C92 C91 1.498 . S
C92 C93 1.366 . S
C92 C97 1.407 . S
C93 C92 1.366 . S
C93 C94 1.392 . S
C93 H116 0.930 1_556 S
C94 C93 1.392 . S
C94 C95 1.398 . S
C94 H117 0.929 1_556 S
C95 C94 1.398 . S
C95 C96 1.352 . S
C96 C95 1.352 . S
C96 C97 1.384 . S
C96 H118 0.930 . S
C97 C92 1.407 . S
C97 C96 1.384 . S
C97 H119 0.929 . S
C98 O108 1.241 . S
C98 O109 1.273 . S
C99 O110 1.251 . S
C99 O111 1.268 1_556 S
O100 Nd80 2.500 1_556 S
O100 C82 1.258 1_556 S
O101 Nd80 2.492 . S
O101 C82 1.239 . S
O102 Nd80 2.487 . S
O102 C89 1.241 . S
O103 Nd80 2.682 . S
O103 Nd81 2.414 1_554 S
O103 C89 1.273 . S
O104 Nd80 2.410 . S
O104 C90 1.251 . S
O105 Nd81 2.424 . S
O105 C90 1.268 1_556 S
O106 Nd81 2.500 1_554 S
O106 C91 1.258 1_554 S
O107 Nd81 2.492 . S
O107 C91 1.239 . S
O108 Nd81 2.487 . S
O108 C98 1.241 . S
O109 Nd80 2.414 1_556 S
O109 Nd81 2.682 . S
O109 C98 1.273 . S
O110 Nd81 2.410 . S
O110 C99 1.251 . S
O111 Nd80 2.424 . S
O111 C99 1.268 1_554 S
H112 C84 0.930 1_556 S
H113 C85 0.929 1_556 S
H114 C87 0.930 . S
H115 C88 0.929 . S
H116 C93 0.930 1_554 S
H117 C94 0.929 1_554 S
H118 C96 0.930 . S
H119 C97 0.929 . S
Nd120 C122 2.836 . S
Nd120 O140 2.500 . S
Nd120 O141 2.492 . S
Nd120 O142 2.487 . S
Nd120 O143 2.682 . S
Nd120 O144 2.410 . S
Nd120 O149 2.414 . S
Nd120 O151 2.424 . S
Nd121 C131 2.836 . S
Nd121 O143 2.414 . S
Nd121 O145 2.424 . S
Nd121 O146 2.500 . S
Nd121 O147 2.492 . S
Nd121 O148 2.487 . S
Nd121 O149 2.682 . S
Nd121 O150 2.410 . S
C122 Nd120 2.836 . S
C122 C123 1.498 . S
C122 O140 1.258 . S
C122 O141 1.239 . S
C123 C122 1.498 . S
C123 C124 1.366 . S
C123 C128 1.407 . S
C124 C123 1.366 . S
C124 C125 1.392 . S
C124 H152 0.930 . S
C125 C124 1.392 . S
C125 C126 1.398 . S
C125 H153 0.929 . S
C126 C125 1.398 . S
C126 C127 1.352 . S
C127 C126 1.352 . S
C127 C128 1.384 . S
C127 H154 0.930 . S
C128 C123 1.407 . S
C128 C127 1.384 . S
C128 H155 0.929 . S
C129 O142 1.241 . S
C129 O143 1.273 . S
C130 O144 1.251 . S
C130 O145 1.268 . S
C131 Nd121 2.836 . S
C131 C132 1.498 . S
C131 O146 1.258 . S
C131 O147 1.239 . S
C132 C131 1.498 . S
C132 C133 1.366 . S
C132 C137 1.407 . S
C133 C132 1.366 . S
C133 C134 1.392 . S
C133 H156 0.930 . S
C134 C133 1.392 . S
C134 C135 1.398 . S
C134 H157 0.929 1_556 S
C135 C134 1.398 . S
C135 C136 1.352 . S
C136 C135 1.352 . S
C136 C137 1.384 . S
C136 H158 0.930 . S
C137 C132 1.407 . S
C137 C136 1.384 . S
C137 H159 0.929 . S
C138 O148 1.241 . S
C138 O149 1.273 . S
C139 O150 1.251 . S
C139 O151 1.268 . S
O140 Nd120 2.500 . S
O140 C122 1.258 . S
O141 Nd120 2.492 . S
O141 C122 1.239 . S
O142 Nd120 2.487 . S
O142 C129 1.241 . S
O143 Nd120 2.682 . S
O143 Nd121 2.414 . S
O143 C129 1.273 . S
O144 Nd120 2.410 . S
O144 C130 1.251 . S
O145 Nd121 2.424 . S
O145 C130 1.268 . S
O146 Nd121 2.500 . S
O146 C131 1.258 . S
O147 Nd121 2.492 . S
O147 C131 1.239 . S
O148 Nd121 2.487 . S
O148 C138 1.241 . S
O149 Nd120 2.414 . S
O149 Nd121 2.682 . S
O149 C138 1.273 . S
O150 Nd121 2.410 . S
O150 C139 1.251 . S
O151 Nd120 2.424 . S
O151 C139 1.268 . S
H152 C124 0.930 . S
H153 C125 0.929 . S
H154 C127 0.930 . S
H155 C128 0.929 . S
H156 C133 0.930 . S
H157 C134 0.929 1_554 S
H158 C136 0.930 . S
H159 C137 0.929 . S
Nd160 C162 2.836 . S
Nd160 O180 2.500 . S
Nd160 O181 2.492 . S
Nd160 O182 2.487 1_554 S
Nd160 O183 2.682 1_554 S
Nd160 O184 2.410 . S
Nd160 O189 2.414 . S
Nd160 O191 2.424 . S
Nd161 C171 2.836 1_554 S
Nd161 O183 2.414 1_554 S
Nd161 O185 2.424 . S
Nd161 O186 2.500 1_554 S
Nd161 O187 2.492 . S
Nd161 O188 2.487 . S
Nd161 O189 2.682 . S
Nd161 O190 2.410 . S
C162 Nd160 2.836 . S
C162 C163 1.498 . S
C162 O180 1.258 . S
C162 O181 1.239 . S
C163 C162 1.498 . S
C163 C164 1.366 . S
C163 C168 1.407 . S
C164 C163 1.366 . S
C164 C165 1.392 . S
C164 H192 0.930 . S
C165 C164 1.392 . S
C165 C166 1.398 . S
C165 H193 0.929 . S
C166 C165 1.398 . S
C166 C167 1.352 . S
C167 C166 1.352 . S
C167 C168 1.384 . S
C167 H194 0.930 . S
C168 C163 1.407 . S
C168 C167 1.384 . S
C168 H195 0.929 . S
C169 O182 1.241 . S
C169 O183 1.273 . S
C170 O184 1.251 . S
C170 O185 1.268 . S
C171 Nd161 2.836 1_556 S
C171 C172 1.498 . S
C171 O186 1.258 . S
C171 O187 1.239 1_556 S
C172 C171 1.498 . S
C172 C173 1.366 . S
C172 C177 1.407 1_556 S
C173 C172 1.366 . S
C173 C174 1.392 . S
C173 H196 0.930 . S
C174 C173 1.392 . S
C174 C175 1.398 . S
C174 H197 0.929 . S
C175 C174 1.398 . S
C175 C176 1.352 . S
C176 C175 1.352 . S
C176 C177 1.384 1_556 S
C176 H198 0.930 1_556 S
C177 C172 1.407 1_554 S
C177 C176 1.384 1_554 S
C177 H199 0.929 . S
C178 O188 1.241 . S
C178 O189 1.273 . S
C179 O190 1.251 . S
C179 O191 1.268 . S
O180 Nd160 2.500 . S
O180 C162 1.258 . S
O181 Nd160 2.492 . S
O181 C162 1.239 . S
O182 Nd160 2.487 1_556 S
O182 C169 1.241 . S
O183 Nd160 2.682 1_556 S
O183 Nd161 2.414 1_556 S
O183 C169 1.273 . S
O184 Nd160 2.410 . S
O184 C170 1.251 . S
O185 Nd161 2.424 . S
O185 C170 1.268 . S
O186 Nd161 2.500 1_556 S
O186 C171 1.258 . S
O187 Nd161 2.492 . S
O187 C171 1.239 1_554 S
O188 Nd161 2.487 . S
O188 C178 1.241 . S
O189 Nd160 2.414 . S
O189 Nd161 2.682 . S
O189 C178 1.273 . S
O190 Nd161 2.410 . S
O190 C179 1.251 . S
O191 Nd160 2.424 . S
O191 C179 1.268 . S
H192 C164 0.930 . S
H193 C165 0.929 . S
H194 C167 0.930 . S
H195 C168 0.929 . S
H196 C173 0.930 . S
H197 C174 0.929 . S
H198 C176 0.930 1_554 S
H199 C177 0.929 . S
Nd200 C202 2.836 . S
Nd200 O220 2.500 . S
Nd200 O221 2.492 . S
Nd200 O222 2.487 . S
Nd200 O223 2.682 . S
Nd200 O224 2.410 . S
Nd200 O229 2.414 . S
Nd200 O231 2.424 . S
Nd201 C211 2.836 . S
Nd201 O223 2.414 . S
Nd201 O225 2.424 . S
Nd201 O226 2.500 . S
Nd201 O227 2.492 . S
Nd201 O228 2.487 . S
Nd201 O229 2.682 . S
Nd201 O230 2.410 . S
C202 Nd200 2.836 . S
C202 C203 1.498 . S
C202 O220 1.258 . S
C202 O221 1.239 . S
C203 C202 1.498 . S
C203 C204 1.366 . S
C203 C208 1.407 . S
C204 C203 1.366 . S
C204 C205 1.392 . S
C204 H232 0.930 . S
C205 C204 1.392 . S
C205 C206 1.398 . S
C205 H233 0.929 . S
C206 C205 1.398 . S
C206 C207 1.352 . S
C207 C206 1.352 . S
C207 C208 1.384 . S
C207 H234 0.930 . S
C208 C203 1.407 . S
C208 C207 1.384 . S
C208 H235 0.929 . S
C209 O222 1.241 . S
C209 O223 1.273 . S
C210 O224 1.251 . S
C210 O225 1.268 . S
C211 Nd201 2.836 . S
C211 C212 1.498 . S
C211 O226 1.258 . S
C211 O227 1.239 . S
C212 C211 1.498 . S
C212 C213 1.366 . S
C212 C217 1.407 . S
C213 C212 1.366 . S
C213 C214 1.392 1_556 S
C213 H236 0.930 1_556 S
C214 C213 1.392 1_554 S
C214 C215 1.398 1_554 S
C214 H237 0.929 . S
C215 C214 1.398 1_556 S
C215 C216 1.352 . S
C216 C215 1.352 . S
C216 C217 1.384 . S
C216 H238 0.930 . S
C217 C212 1.407 . S
C217 C216 1.384 . S
C217 H239 0.929 . S
C218 O228 1.241 . S
C218 O229 1.273 . S
C219 O230 1.251 . S
C219 O231 1.268 . S
O220 Nd200 2.500 . S
O220 C202 1.258 . S
O221 Nd200 2.492 . S
O221 C202 1.239 . S
O222 Nd200 2.487 . S
O222 C209 1.241 . S
O223 Nd200 2.682 . S
O223 Nd201 2.414 . S
O223 C209 1.273 . S
O224 Nd200 2.410 . S
O224 C210 1.251 . S
O225 Nd201 2.424 . S
O225 C210 1.268 . S
O226 Nd201 2.500 . S
O226 C211 1.258 . S
O227 Nd201 2.492 . S
O227 C211 1.239 . S
O228 Nd201 2.487 . S
O228 C218 1.241 . S
O229 Nd200 2.414 . S
O229 Nd201 2.682 . S
O229 C218 1.273 . S
O230 Nd201 2.410 . S
O230 C219 1.251 . S
O231 Nd200 2.424 . S
O231 C219 1.268 . S
H232 C204 0.930 . S
H233 C205 0.929 . S
H234 C207 0.930 . S
H235 C208 0.929 . S
H236 C213 0.930 1_554 S
H237 C214 0.929 . S
H238 C216 0.930 . S
H239 C217 0.929 . S
C240 C241 1.349 . S
C240 C242 1.327 . S
C240 H265 0.950 . S
C241 C240 1.349 . S
C241 C257 1.349 . S
C242 C240 1.327 . S
C242 C261 1.429 . S
C242 H266 0.950 . S
C243 C260 1.574 . S
C243 C262 1.368 . S
C243 H267 0.949 . S
H244 C248 0.949 . S
C245 C246 1.349 . S
C245 C247 1.327 . S
C245 H268 0.950 . S
C246 C245 1.349 . S
C246 C258 1.349 . S
C247 C245 1.327 . S
C247 C263 1.429 . S
C247 H269 0.950 . S
C248 H244 0.949 . S
C248 C256 1.574 . S
C248 C264 1.368 . S
H249 C257 0.950 . S
H250 C255 0.950 . S
H251 C256 0.949 . S
H252 C258 0.950 . S
H253 C259 0.950 . S
H254 C260 0.949 . S
C255 H250 0.950 . S
C255 C257 1.327 . S
C255 C261 1.429 . S
C256 C248 1.574 . S
C256 H251 0.949 . S
C256 C262 1.368 . S
C257 C241 1.349 . S
C257 H249 0.950 . S
C257 C255 1.327 . S
C258 C246 1.349 . S
C258 H252 0.950 . S
C258 C259 1.327 . S
C259 H253 0.950 . S
C259 C258 1.327 . S
C259 C263 1.429 . S
C260 C243 1.574 . S
C260 H254 0.949 . S
C260 C264 1.368 . S
C261 C242 1.429 . S
C261 C255 1.429 . S
C261 C262 1.523 . S
C262 C243 1.368 . S
C262 C256 1.368 . S
C262 C261 1.523 . S
C263 C247 1.429 . S
C263 C259 1.429 . S
C263 C264 1.523 . S
C264 C248 1.368 . S
C264 C260 1.368 . S
C264 C263 1.523 . S
H265 C240 0.950 . S
H266 C242 0.950 . S
H267 C243 0.949 . S
H268 C245 0.950 . S
H269 C247 0.950 . S
C270 C271 1.349 . S
C270 C272 1.327 . S
C270 H295 0.950 . S
C271 C270 1.349 . S
C271 C287 1.349 . S
C272 C270 1.327 . S
C272 C291 1.429 . S
C272 H296 0.950 . S
C273 C290 1.574 1_455 S
C273 C292 1.368 . S
C273 H297 0.949 1_455 S
H274 C278 0.949 . S
C275 C276 1.349 . S
C275 C277 1.327 . S
C275 H298 0.950 . S
C276 C275 1.349 . S
C276 C288 1.349 . S
C277 C275 1.327 . S
C277 C293 1.429 . S
C277 H299 0.950 . S
C278 H274 0.949 . S
C278 C286 1.574 . S
C278 C294 1.368 1_455 S
H279 C287 0.950 . S
H280 C285 0.950 . S
H281 C286 0.949 . S
H282 C288 0.950 . S
H283 C289 0.950 . S
H284 C290 0.949 . S
C285 H280 0.950 . S
C285 C287 1.327 . S
C285 C291 1.429 . S
C286 C278 1.574 . S
C286 H281 0.949 . S
C286 C292 1.368 . S
C287 C271 1.349 . S
C287 H279 0.950 . S
C287 C285 1.327 . S
C288 C276 1.349 . S
C288 H282 0.950 . S
C288 C289 1.327 . S
C289 H283 0.950 . S
C289 C288 1.327 . S
C289 C293 1.429 . S
C290 C273 1.574 1_655 S
C290 H284 0.949 . S
C290 C294 1.368 . S
C291 C272 1.429 . S
C291 C285 1.429 . S
C291 C292 1.523 . S
C292 C273 1.368 . S
C292 C286 1.368 . S
C292 C291 1.523 . S
C293 C277 1.429 . S
C293 C289 1.429 . S
C293 C294 1.523 . S
C294 C278 1.368 1_655 S
C294 C290 1.368 . S
C294 C293 1.523 . S
H295 C270 0.950 . S
H296 C272 0.950 . S
H297 C273 0.949 1_655 S
H298 C275 0.950 . S
H299 C277 0.950 . S
C300 C301 1.349 . S
C300 C302 1.327 . S
C300 H325 0.950 . S
C301 C300 1.349 . S
C301 C317 1.349 . S
C302 C300 1.327 . S
C302 C321 1.429 . S
C302 H326 0.950 . S
C303 C320 1.574 . S
C303 C322 1.368 . S
C303 H327 0.949 . S
H304 C308 0.949 . S
C305 C306 1.349 . S
C305 C307 1.327 . S
C305 H328 0.950 . S
C306 C305 1.349 . S
C306 C318 1.349 . S
C307 C305 1.327 . S
C307 C323 1.429 . S
C307 H329 0.950 . S
C308 H304 0.949 . S
C308 C316 1.574 . S
C308 C324 1.368 . S
H309 C317 0.950 . S
H310 C315 0.950 . S
H311 C316 0.949 . S
H312 C318 0.950 1_565 S
H313 C319 0.950 . S
H314 C320 0.949 . S
C315 H310 0.950 . S
C315 C317 1.327 . S
C315 C321 1.429 . S
C316 C308 1.574 . S
C316 H311 0.949 . S
C316 C322 1.368 . S
C317 C301 1.349 . S
C317 H309 0.950 . S
C317 C315 1.327 . S
C318 C306 1.349 . S
C318 H312 0.950 1_545 S
C318 C319 1.327 . S
C319 H313 0.950 . S
C319 C318 1.327 . S
C319 C323 1.429 . S
C320 C303 1.574 . S
C320 H314 0.949 . S
C320 C324 1.368 . S
C321 C302 1.429 . S
C321 C315 1.429 . S
C321 C322 1.523 . S
C322 C303 1.368 . S
C322 C316 1.368 . S
C322 C321 1.523 . S
C323 C307 1.429 . S
C323 C319 1.429 . S
C323 C324 1.523 . S
C324 C308 1.368 . S
C324 C320 1.368 . S
C324 C323 1.523 . S
H325 C300 0.950 . S
H326 C302 0.950 . S
H327 C303 0.949 . S
H328 C305 0.950 . S
H329 C307 0.950 . S
C330 C331 1.349 . S
C330 C332 1.327 . S
C330 H355 0.950 . S
C331 C330 1.349 . S
C331 C347 1.349 . S
C332 C330 1.327 . S
C332 C351 1.429 . S
C332 H356 0.950 . S
C333 C350 1.574 . S
C333 C352 1.368 . S
C333 H357 0.949 . S
H334 C338 0.949 . S
C335 C336 1.349 . S
C335 C337 1.327 . S
C335 H358 0.950 . S
C336 C335 1.349 . S
C336 C348 1.349 . S
C337 C335 1.327 . S
C337 C353 1.429 . S
C337 H359 0.950 . S
C338 H334 0.949 . S
C338 C346 1.574 . S
C338 C354 1.368 . S
H339 C347 0.950 . S
H340 C345 0.950 . S
H341 C346 0.949 . S
H342 C348 0.950 . S
H343 C349 0.950 . S
H344 C350 0.949 . S
C345 H340 0.950 . S
C345 C347 1.327 . S
C345 C351 1.429 . S
C346 C338 1.574 . S
C346 H341 0.949 . S
C346 C352 1.368 . S
C347 C331 1.349 . S
C347 H339 0.950 . S
C347 C345 1.327 . S
C348 C336 1.349 . S
C348 H342 0.950 . S
C348 C349 1.327 . S
C349 H343 0.950 . S
C349 C348 1.327 . S
C349 C353 1.429 . S
C350 C333 1.574 . S
C350 H344 0.949 . S
C350 C354 1.368 . S
C351 C332 1.429 . S
C351 C345 1.429 . S
C351 C352 1.523 . S
C352 C333 1.368 . S
C352 C346 1.368 . S
C352 C351 1.523 . S
C353 C337 1.429 . S
C353 C349 1.429 . S
C353 C354 1.523 . S
C354 C338 1.368 . S
C354 C350 1.368 . S
C354 C353 1.523 . S
H355 C330 0.950 . S
H356 C332 0.950 . S
H357 C333 0.949 . S
H358 C335 0.950 . S
H359 C337 0.950 . S
C360 C361 1.349 . S
C360 C362 1.327 . S
C360 H385 0.950 . S
C361 C360 1.349 . S
C361 C377 1.349 . S
C362 C360 1.327 . S
C362 C381 1.429 . S
C362 H386 0.950 . S
C363 C380 1.574 . S
C363 C382 1.368 . S
C363 H387 0.949 . S
H364 C368 0.949 . S
C365 C366 1.349 . S
C365 C367 1.327 . S
C365 H388 0.950 . S
C366 C365 1.349 . S
C366 C378 1.349 . S
C367 C365 1.327 . S
C367 C383 1.429 . S
C367 H389 0.922 1_655 S
C368 H364 0.949 . S
C368 C376 1.574 1_655 S
C368 C384 1.368 1_655 S
H369 C377 0.950 . S
H370 C375 0.950 . S
H371 C376 0.949 . S
H372 C378 0.950 . S
H373 C379 0.950 . S
H374 C380 0.949 . S
C375 H370 0.950 . S
C375 C377 1.327 . S
C375 C381 1.429 . S
C376 C368 1.574 1_455 S
C376 H371 0.949 . S
C376 C382 1.368 . S
C377 C361 1.349 . S
C377 H369 0.950 . S
C377 C375 1.327 . S
C378 C366 1.349 . S
C378 H372 0.950 . S
C378 C379 1.327 . S
C379 H373 0.950 . S
C379 C378 1.327 . S
C379 C383 1.429 . S
C380 C363 1.574 . S
C380 H374 0.949 . S
C380 C384 1.368 . S
C381 C362 1.429 . S
C381 C375 1.429 . S
C381 C382 1.523 . S
C382 C363 1.368 . S
C382 C376 1.368 . S
C382 C381 1.523 . S
C383 C367 1.429 . S
C383 C379 1.429 . S
C383 C384 1.523 1_655 S
C384 C368 1.368 1_455 S
C384 C380 1.368 . S
C384 C383 1.523 1_455 S
H385 C360 0.950 . S
H386 C362 0.950 . S
H387 C363 0.949 . S
H388 C365 0.950 . S
H389 C367 0.922 1_455 S
C390 C391 1.349 . S
C390 C392 1.327 . S
C390 H415 0.950 . S
C391 C390 1.349 . S
C391 C407 1.349 . S
C392 C390 1.327 . S
C392 C411 1.429 . S
C392 H416 0.950 . S
C393 C410 1.574 . S
C393 C412 1.368 . S
C393 H417 0.949 . S
H394 C398 0.949 . S
C395 C396 1.349 . S
C395 C397 1.327 . S
C395 H418 0.950 . S
C396 C395 1.349 . S
C396 C408 1.349 . S
C397 C395 1.327 . S
C397 C413 1.429 . S
C397 H419 0.950 . S
C398 H394 0.949 . S
C398 C406 1.574 . S
C398 C414 1.368 . S
H399 C407 0.950 . S
H400 C405 0.950 . S
H401 C406 0.949 . S
H402 C408 0.950 . S
H403 C409 0.950 . S
H404 C410 0.949 . S
C405 H400 0.950 . S
C405 C407 1.327 . S
C405 C411 1.429 . S
C406 C398 1.574 . S
C406 H401 0.949 . S
C406 C412 1.368 . S
C407 C391 1.349 . S
C407 H399 0.950 . S
C407 C405 1.327 . S
C408 C396 1.349 . S
C408 H402 0.950 . S
C408 C409 1.327 . S
C409 H403 0.950 . S
C409 C408 1.327 . S
C409 C413 1.429 . S
C410 C393 1.574 . S
C410 H404 0.949 . S
C410 C414 1.368 . S
C411 C392 1.429 . S
C411 C405 1.429 . S
C411 C412 1.523 1_565 S
C412 C393 1.368 . S
C412 C406 1.368 . S
C412 C411 1.523 1_545 S
C413 C397 1.429 . S
C413 C409 1.429 . S
C413 C414 1.523 . S
C414 C398 1.368 . S
C414 C410 1.368 . S
C414 C413 1.523 . S
H415 C390 0.950 . S
H416 C392 0.950 . S
H417 C393 0.949 . S
H418 C395 0.950 . S
H419 C397 0.950 . S
C420 C421 1.349 . S
C420 C422 1.327 . S
C420 H445 0.950 . S
C421 C420 1.349 . S
C421 C437 1.349 . S
C422 C420 1.327 . S
C422 C441 1.429 . S
C422 H446 0.959 . S
C423 C440 1.574 . S
C423 C442 1.368 . S
C423 H447 0.949 . S
H424 C428 0.949 1_554 S
C425 C426 1.349 . S
C425 C427 1.327 . S
C425 H448 0.950 . S
C426 C425 1.349 . S
C426 C438 1.349 1_556 S
C427 C425 1.327 . S
C427 C443 1.429 . S
C427 H449 0.950 . S
C428 H424 0.949 1_556 S
C428 C436 1.574 . S
C428 C444 1.368 . S
H429 C437 0.950 . S
H430 C435 0.950 . S
H431 C436 0.949 1_554 S
H432 C438 0.950 . S
H433 C439 0.950 1_554 S
H434 C440 0.949 . S
C435 H430 0.950 . S
C435 C437 1.327 . S
C435 C441 1.429 . S
C436 C428 1.574 . S
C436 H431 0.949 1_556 S
C436 C442 1.368 . S
C437 C421 1.349 . S
C437 H429 0.950 . S
C437 C435 1.327 . S
C438 C426 1.349 1_554 S
C438 H432 0.950 . S
C438 C439 1.327 1_554 S
C439 H433 0.950 1_556 S
C439 C438 1.327 1_556 S
C439 C443 1.429 . S
C440 C423 1.574 . S
C440 H434 0.949 . S
C440 C444 1.368 . S
C441 C422 1.429 . S
C441 C435 1.429 . S
C441 C442 1.523 . S
C442 C423 1.368 . S
C442 C436 1.368 . S
C442 C441 1.523 . S
C443 C427 1.429 . S
C443 C439 1.429 . S
C443 C444 1.523 . S
C444 C428 1.368 . S
C444 C440 1.368 . S
C444 C443 1.523 . S
H445 C420 0.950 . S
H446 C422 0.959 . S
H447 C423 0.949 . S
H448 C425 0.950 . S
H449 C427 0.950 . S
C450 C451 1.349 . S
C450 C452 1.327 . S
C450 H475 0.950 . S
C451 C450 1.349 . S
C451 C467 1.349 . S
C452 C450 1.327 . S
C452 C471 1.429 . S
C452 H476 0.950 . S
C453 C470 1.574 . S
C453 C472 1.368 . S
C453 H477 0.949 1_556 S
H454 C458 0.949 . S
C455 C456 1.349 1_554 S
C455 C457 1.327 . S
C455 H478 0.950 . S
C456 C455 1.349 1_556 S
C456 C468 1.349 . S
C457 C455 1.327 . S
C457 C473 1.429 1_554 S
C457 H479 0.950 . S
C458 H454 0.949 . S
C458 C466 1.574 . S
C458 C474 1.368 . S
H459 C467 0.950 . S
H460 C465 0.950 . S
H461 C466 0.949 . S
H462 C468 0.950 . S
H463 C469 0.950 . S
H464 C470 0.949 1_554 S
C465 H460 0.950 . S
C465 C467 1.327 . S
C465 C471 1.429 . S
C466 C458 1.574 . S
C466 H461 0.949 . S
C466 C472 1.368 . S
C467 C451 1.349 . S
C467 H459 0.950 . S
C467 C465 1.327 . S
C468 C456 1.349 . S
C468 H462 0.950 . S
C468 C469 1.327 . S
C469 H463 0.950 . S
C469 C468 1.327 . S
C469 C473 1.429 . S
C470 C453 1.574 . S
C470 H464 0.949 1_556 S
C470 C474 1.368 . S
C471 C452 1.429 . S
C471 C465 1.429 . S
C471 C472 1.523 . S
C472 C453 1.368 . S
C472 C466 1.368 . S
C472 C471 1.523 . S
C473 C457 1.429 1_556 S
C473 C469 1.429 . S
C473 C474 1.523 . S
C474 C458 1.368 . S
C474 C470 1.368 . S
C474 C473 1.523 . S
H475 C450 0.950 . S
H476 C452 0.950 . S
H477 C453 0.949 1_554 S
H478 C455 0.950 . S
H479 C457 0.950 . S
C480 C481 1.349 . S
C480 C482 1.327 . S
C480 H505 0.950 1_556 S
C481 C480 1.349 . S
C481 C497 1.349 . S
C482 C480 1.327 . S
C482 C501 1.429 . S
C482 H506 0.950 1_556 S
C483 C500 1.574 . S
C483 C502 1.368 . S
C483 H507 0.949 . S
H484 C488 0.949 1_554 S
C485 C486 1.349 . S
C485 C487 1.327 . S
C485 H508 0.950 . S
C486 C485 1.349 . S
C486 C498 1.349 . S
C487 C485 1.327 . S
C487 C503 1.429 . S
C487 H509 0.950 . S
C488 H484 0.949 1_556 S
C488 C496 1.574 . S
C488 C504 1.368 . S
H489 C497 0.950 . S
H490 C495 0.950 . S
H491 C496 0.949 1_554 S
H492 C498 0.950 . S
H493 C499 0.946 1_554 S
H494 C500 0.949 . S
C495 H490 0.950 . S
C495 C497 1.327 . S
C495 C501 1.429 . S
C496 C488 1.574 . S
C496 H491 0.949 1_556 S
C496 C502 1.368 . S
C497 C481 1.349 . S
C497 H489 0.950 . S
C497 C495 1.327 . S
C498 C486 1.349 . S
C498 H492 0.950 . S
C498 C499 1.327 . S
C499 H493 0.946 1_556 S
C499 C498 1.327 . S
C499 C503 1.429 . S
C500 C483 1.574 . S
C500 H494 0.949 . S
C500 C504 1.368 . S
C501 C482 1.429 . S
C501 C495 1.429 . S
C501 C502 1.523 . S
C502 C483 1.368 . S
C502 C496 1.368 . S
C502 C501 1.523 . S
C503 C487 1.429 . S
C503 C499 1.429 . S
C503 C504 1.523 . S
C504 C488 1.368 . S
C504 C500 1.368 . S
C504 C503 1.523 . S
H505 C480 0.950 1_554 S
H506 C482 0.950 1_554 S
H507 C483 0.949 . S
H508 C485 0.950 . S
H509 C487 0.950 . S
C510 C511 1.349 . S
C510 C512 1.327 . S
C510 H535 0.950 1_556 S
C511 C510 1.349 . S
C511 C527 1.349 . S
C512 C510 1.327 . S
C512 C531 1.429 . S
C512 H536 0.950 1_556 S
C513 C530 1.574 . S
C513 C532 1.368 . S
C513 H537 0.949 . S
H514 C518 0.949 1_554 S
C515 C516 1.349 . S
C515 C517 1.327 . S
C515 H538 0.950 . S
C516 C515 1.349 . S
C516 C528 1.349 . S
C517 C515 1.327 . S
C517 C533 1.429 . S
C517 H539 0.950 . S
C518 H514 0.949 1_556 S
C518 C526 1.574 . S
C518 C534 1.368 . S
H519 C527 0.950 . S
H520 C525 0.950 . S
H521 C526 0.949 1_554 S
H522 C528 0.950 1_554 S
H523 C529 0.950 1_554 S
H524 C530 0.949 . S
C525 H520 0.950 . S
C525 C527 1.327 . S
C525 C531 1.429 . S
C526 C518 1.574 . S
C526 H521 0.949 1_556 S
C526 C532 1.368 . S
C527 C511 1.349 . S
C527 H519 0.950 . S
C527 C525 1.327 . S
C528 C516 1.349 . S
C528 H522 0.950 1_556 S
C528 C529 1.327 . S
C529 H523 0.950 1_556 S
C529 C528 1.327 . S
C529 C533 1.429 . S
C530 C513 1.574 . S
C530 H524 0.949 . S
C530 C534 1.368 . S
C531 C512 1.429 . S
C531 C525 1.429 . S
C531 C532 1.523 . S
C532 C513 1.368 . S
C532 C526 1.368 . S
C532 C531 1.523 . S
C533 C517 1.429 . S
C533 C529 1.429 . S
C533 C534 1.523 . S
C534 C518 1.368 . S
C534 C530 1.368 . S
C534 C533 1.523 . S
H535 C510 0.950 1_554 S
H536 C512 0.950 1_554 S
H537 C513 0.949 . S
H538 C515 0.950 . S
H539 C517 0.950 . S
C540 C541 1.349 . S
C540 C542 1.327 . S
C540 H565 0.950 . S
C541 C540 1.349 . S
C541 C557 1.349 1_556 S
C542 C540 1.327 . S
C542 C561 1.429 . S
C542 H566 0.950 . S
C543 C560 1.574 . S
C543 C562 1.368 1_554 S
C543 H567 0.949 . S
H544 C548 0.949 . S
C545 C546 1.349 1_554 S
C545 C547 1.327 . S
C545 H568 0.950 . S
C546 C545 1.349 1_556 S
C546 C558 1.349 . S
C547 C545 1.327 . S
C547 C563 1.429 1_554 S
C547 H569 0.950 . S
C548 H544 0.949 . S
C548 C556 1.574 . S
C548 C564 1.368 . S
H549 C557 0.950 . S
H550 C555 0.950 . S
H551 C556 0.949 . S
H552 C558 0.950 . S
H553 C559 0.950 . S
H554 C560 0.949 . S
C555 H550 0.950 . S
C555 C557 1.327 . S
C555 C561 1.429 1_554 S
C556 C548 1.574 . S
C556 H551 0.949 . S
C556 C562 1.368 . S
C557 C541 1.349 1_554 S
C557 H549 0.950 . S
C557 C555 1.327 . S
C558 C546 1.349 . S
C558 H552 0.950 . S
C558 C559 1.327 . S
C559 H553 0.950 . S
C559 C558 1.327 . S
C559 C563 1.429 . S
C560 C543 1.574 . S
C560 H554 0.949 . S
C560 C564 1.368 1_554 S
C561 C542 1.429 . S
C561 C555 1.429 1_556 S
C561 C562 1.523 . S
C562 C543 1.368 1_556 S
C562 C556 1.368 . S
C562 C561 1.523 . S
C563 C547 1.429 1_556 S
C563 C559 1.429 . S
C563 C564 1.523 . S
C564 C548 1.368 . S
C564 C560 1.368 1_556 S
C564 C563 1.523 . S
H565 C540 0.950 . S
H566 C542 0.950 . S
H567 C543 0.949 . S
H568 C545 0.950 . S
H569 C547 0.950 . S
C570 C571 1.349 . S
C570 C572 1.327 . S
C570 H595 0.950 . S
C571 C570 1.349 . S
C571 C587 1.349 . S
C572 C570 1.327 . S
C572 C591 1.429 . S
C572 H596 0.950 . S
C573 C590 1.574 . S
C573 C592 1.368 . S
C573 H597 0.949 . S
H574 C578 0.949 . S
C575 C576 1.349 1_554 S
C575 C577 1.327 1_554 S
C575 H598 0.950 . S
C576 C575 1.349 1_556 S
C576 C588 1.349 . S
C577 C575 1.327 1_556 S
C577 C593 1.429 . S
C577 H599 0.950 1_556 S
C578 H574 0.949 . S
C578 C586 1.574 . S
C578 C594 1.368 . S
H579 C587 0.950 . S
H580 C585 0.950 . S
H581 C586 0.949 . S
H582 C588 0.950 . S
H583 C589 0.950 . S
H584 C590 0.949 1_554 S
C585 H580 0.950 . S
C585 C587 1.327 . S
C585 C591 1.429 . S
C586 C578 1.574 . S
C586 H581 0.949 . S
C586 C592 1.368 . S
C587 C571 1.349 . S
C587 H579 0.950 . S
C587 C585 1.327 . S
C588 C576 1.349 . S
C588 H582 0.950 . S
C588 C589 1.327 . S
C589 H583 0.950 . S
C589 C588 1.327 . S
C589 C593 1.429 . S
C590 C573 1.574 . S
C590 H584 0.949 1_556 S
C590 C594 1.368 . S
C591 C572 1.429 . S
C591 C585 1.429 . S
C591 C592 1.523 . S
C592 C573 1.368 . S
C592 C586 1.368 . S
C592 C591 1.523 . S
C593 C577 1.429 . S
C593 C589 1.429 . S
C593 C594 1.523 . S
C594 C578 1.368 . S
C594 C590 1.368 . S
C594 C593 1.523 . S
H595 C570 0.950 . S
H596 C572 0.950 . S
H597 C573 0.949 . S
H598 C575 0.950 . S
H599 C577 0.950 1_554 S
C600 C601 1.349 . S
C600 C602 1.327 . S
C600 H625 0.950 . S
C601 C600 1.349 . S
C601 C617 1.349 . S
C602 C600 1.327 . S
C602 C621 1.429 . S
C602 H626 0.950 . S
C603 C620 1.574 . S
C603 C622 1.368 . S
C603 H627 0.949 . S
H604 C608 0.949 . S
C605 C606 1.349 . S
C605 C607 1.327 . S
C605 H628 0.950 . S
C606 C605 1.349 . S
C606 C618 1.349 . S
C607 C605 1.327 . S
C607 C623 1.429 . S
C607 H629 0.950 . S
C608 H604 0.949 . S
C608 C616 1.574 . S
C608 C624 1.368 . S
H609 C617 0.950 . S
H610 C615 0.950 . S
H611 C616 0.949 . S
H612 C618 0.950 . S
H613 C619 0.950 . S
H614 C620 0.949 . S
C615 H610 0.950 . S
C615 C617 1.327 . S
C615 C621 1.429 . S
C616 C608 1.574 . S
C616 H611 0.949 . S
C616 C622 1.368 . S
C617 C601 1.349 . S
C617 H609 0.950 . S
C617 C615 1.327 . S
C618 C606 1.349 . S
C618 H612 0.950 . S
C618 C619 1.327 . S
C619 H613 0.950 . S
C619 C618 1.327 . S
C619 C623 1.429 . S
C620 C603 1.574 . S
C620 H614 0.949 . S
C620 C624 1.368 . S
C621 C602 1.429 . S
C621 C615 1.429 . S
C621 C622 1.523 . S
C622 C603 1.368 . S
C622 C616 1.368 . S
C622 C621 1.523 . S
C623 C607 1.429 . S
C623 C619 1.429 . S
C623 C624 1.523 . S
C624 C608 1.368 . S
C624 C620 1.368 . S
C624 C623 1.523 . S
H625 C600 0.950 . S
H626 C602 0.950 . S
H627 C603 0.949 . S
H628 C605 0.950 . S
H629 C607 0.950 . S
C630 C631 1.349 . S
C630 C632 1.327 . S
C630 H655 0.950 . S
C631 C630 1.349 . S
C631 C647 1.349 . S
C632 C630 1.327 . S
C632 C651 1.429 . S
C632 H656 0.950 . S
C633 C650 1.574 . S
C633 C652 1.368 . S
C633 H657 0.949 . S
H634 C638 0.949 . S
C635 C636 1.349 . S
C635 C637 1.327 . S
C635 H658 0.950 . S
C636 C635 1.349 . S
C636 C648 1.349 . S
C637 C635 1.327 . S
C637 C653 1.429 . S
C637 H659 0.950 . S
C638 H634 0.949 . S
C638 C646 1.574 . S
C638 C654 1.368 . S
H639 C647 0.950 . S
H640 C645 0.950 . S
H641 C646 0.949 . S
H642 C648 0.950 . S
H643 C649 0.950 . S
H644 C650 0.949 . S
C645 H640 0.950 . S
C645 C647 1.327 . S
C645 C651 1.429 . S
C646 C638 1.574 . S
C646 H641 0.949 . S
C646 C652 1.368 . S
C647 C631 1.349 . S
C647 H639 0.950 . S
C647 C645 1.327 . S
C648 C636 1.349 . S
C648 H642 0.950 . S
C648 C649 1.327 . S
C649 H643 0.950 . S
C649 C648 1.327 . S
C649 C653 1.429 . S
C650 C633 1.574 . S
C650 H644 0.949 . S
C650 C654 1.368 . S
C651 C632 1.429 . S
C651 C645 1.429 . S
C651 C652 1.523 . S
C652 C633 1.368 . S
C652 C646 1.368 . S
C652 C651 1.523 . S
C653 C637 1.429 . S
C653 C649 1.429 . S
C653 C654 1.523 . S
C654 C638 1.368 . S
C654 C650 1.368 . S
C654 C653 1.523 . S
H655 C630 0.950 . S
H656 C632 0.950 . S
H657 C633 0.949 . S
H658 C635 0.950 . S
H659 C637 0.950 . S
C660 C661 1.349 . S
C660 C662 1.327 . S
C660 H685 0.950 . S
C661 C660 1.349 . S
C661 C677 1.349 . S
C662 C660 1.327 . S
C662 C681 1.429 . S
C662 H686 0.950 . S
C663 C680 1.574 . S
C663 C682 1.368 . S
C663 H687 0.949 . S
H664 C668 0.949 . S
C665 C666 1.349 . S
C665 C667 1.327 . S
C665 H688 0.950 . S
C666 C665 1.349 . S
C666 C678 1.349 . S
C667 C665 1.327 . S
C667 C683 1.429 . S
C667 H689 0.950 . S
C668 H664 0.949 . S
C668 C676 1.574 . S
C668 C684 1.368 . S
H669 C677 0.950 . S
H670 C675 0.950 . S
H671 C676 0.949 . S
H672 C678 0.950 . S
H673 C679 0.950 . S
H674 C680 0.949 . S
C675 H670 0.950 . S
C675 C677 1.327 . S
C675 C681 1.429 . S
C676 C668 1.574 . S
C676 H671 0.949 . S
C676 C682 1.368 . S
C677 C661 1.349 . S
C677 H669 0.950 . S
C677 C675 1.327 . S
C678 C666 1.349 . S
C678 H672 0.950 . S
C678 C679 1.327 . S
C679 H673 0.950 . S
C679 C678 1.327 . S
C679 C683 1.429 . S
C680 C663 1.574 . S
C680 H674 0.949 . S
C680 C684 1.368 . S
C681 C662 1.429 . S
C681 C675 1.429 . S
C681 C682 1.523 . S
C682 C663 1.368 . S
C682 C676 1.368 . S
C682 C681 1.523 . S
C683 C667 1.429 . S
C683 C679 1.429 . S
C683 C684 1.523 . S
C684 C668 1.368 . S
C684 C680 1.368 . S
C684 C683 1.523 . S
H685 C660 0.950 . S
H686 C662 0.950 . S
H687 C663 0.949 . S
H688 C665 0.950 . S
H689 C667 0.950 . S
C690 C691 1.349 . S
C690 C692 1.327 . S
C690 H715 0.950 . S
C691 C690 1.349 . S
C691 C707 1.349 . S
C692 C690 1.327 . S
C692 C711 1.429 . S
C692 H716 0.950 . S
C693 C710 1.574 . S
C693 C712 1.368 . S
C693 H717 0.949 . S
H694 C698 0.949 . S
C695 C696 1.349 1_554 S
C695 C697 1.327 . S
C695 H718 0.950 1_554 S
C696 C695 1.349 1_556 S
C696 C708 1.349 1_556 S
C697 C695 1.327 . S
C697 C713 1.429 . S
C697 H719 0.950 . S
C698 H694 0.949 . S
C698 C706 1.574 . S
C698 C714 1.368 . S
H699 C707 0.950 . S
H700 C705 0.950 . S
H701 C706 0.949 . S
H702 C708 0.950 1_556 S
H703 C709 0.950 . S
H704 C710 0.949 . S
C705 H700 0.950 . S
C705 C707 1.327 . S
C705 C711 1.429 . S
C706 C698 1.574 . S
C706 H701 0.949 . S
C706 C712 1.368 . S
C707 C691 1.349 . S
C707 H699 0.950 . S
C707 C705 1.327 . S
C708 C696 1.349 1_554 S
C708 H702 0.950 1_554 S
C708 C709 1.327 . S
C709 H703 0.950 . S
C709 C708 1.327 . S
C709 C713 1.429 . S
C710 C693 1.574 . S
C710 H704 0.949 . S
C710 C714 1.368 . S
C711 C692 1.429 . S
C711 C705 1.429 . S
C711 C712 1.523 . S
C712 C693 1.368 . S
C712 C706 1.368 . S
C712 C711 1.523 . S
C713 C697 1.429 . S
C713 C709 1.429 . S
C713 C714 1.523 . S
C714 C698 1.368 . S
C714 C710 1.368 . S
C714 C713 1.523 . S
H715 C690 0.950 . S
H716 C692 0.950 . S
H717 C693 0.949 . S
H718 C695 0.950 1_556 S
H719 C697 0.950 . S
C720 C721 1.349 . S
C720 C722 1.327 . S
C720 H745 0.950 . S
C721 C720 1.349 . S
C721 C737 1.349 . S
C722 C720 1.327 . S
C722 C741 1.429 . S
C722 H746 0.950 . S
C723 C740 1.574 . S
C723 C742 1.368 . S
C723 H747 0.949 . S
H724 C728 0.949 . S
C725 C726 1.349 . S
C725 C727 1.327 . S
C725 H748 0.950 . S
C726 C725 1.349 . S
C726 C738 1.349 . S
C727 C725 1.327 . S
C727 C743 1.429 . S
C727 H749 0.950 . S
C728 H724 0.949 . S
C728 C736 1.574 . S
C728 C744 1.368 . S
H729 C737 0.950 . S
H730 C735 0.950 . S
H731 C736 0.949 . S
H732 C738 0.950 . S
H733 C739 0.950 . S
H734 C740 0.949 . S
C735 H730 0.950 . S
C735 C737 1.327 . S
C735 C741 1.429 . S
C736 C728 1.574 . S
C736 H731 0.949 . S
C736 C742 1.368 . S
C737 C721 1.349 . S
C737 H729 0.950 . S
C737 C735 1.327 . S
C738 C726 1.349 . S
C738 H732 0.950 . S
C738 C739 1.327 . S
C739 H733 0.950 . S
C739 C738 1.327 . S
C739 C743 1.429 . S
C740 C723 1.574 . S
C740 H734 0.949 . S
C740 C744 1.368 . S
C741 C722 1.429 . S
C741 C735 1.429 . S
C741 C742 1.523 . S
C742 C723 1.368 . S
C742 C736 1.368 . S
C742 C741 1.523 . S
C743 C727 1.429 . S
C743 C739 1.429 . S
C743 C744 1.523 . S
C744 C728 1.368 . S
C744 C740 1.368 . S
C744 C743 1.523 . S
H745 C720 0.950 . S
H746 C722 0.950 . S
H747 C723 0.949 . S
H748 C725 0.950 . S
H749 C727 0.950 . S
C750 C751 1.349 . S
C750 C752 1.327 . S
C750 H775 0.950 . S
C751 C750 1.349 . S
C751 C767 1.349 . S
C752 C750 1.327 . S
C752 C771 1.429 . S
C752 H776 0.950 . S
C753 C770 1.574 . S
C753 C772 1.368 . S
C753 H777 0.949 . S
H754 C758 0.949 . S
C755 C756 1.349 1_554 S
C755 C757 1.327 . S
C755 H778 0.950 . S
C756 C755 1.349 1_556 S
C756 C768 1.349 1_556 S
C757 C755 1.327 . S
C757 C773 1.429 . S
C757 H779 0.950 . S
C758 H754 0.949 . S
C758 C766 1.574 . S
C758 C774 1.368 . S
H759 C767 0.950 . S
H760 C765 0.950 . S
H761 C766 0.949 . S
H762 C768 0.950 . S
H763 C769 0.950 . S
H764 C770 0.949 . S
C765 H760 0.950 . S
C765 C767 1.327 . S
C765 C771 1.429 . S
C766 C758 1.574 . S
C766 H761 0.949 . S
C766 C772 1.368 . S
C767 C751 1.349 . S
C767 H759 0.950 . S
C767 C765 1.327 . S
C768 C756 1.349 1_554 S
C768 H762 0.950 . S
C768 C769 1.327 . S
C769 H763 0.950 . S
C769 C768 1.327 . S
C769 C773 1.429 . S
C770 C753 1.574 . S
C770 H764 0.949 . S
C770 C774 1.368 . S
C771 C752 1.429 . S
C771 C765 1.429 . S
C771 C772 1.523 . S
C772 C753 1.368 . S
C772 C766 1.368 . S
C772 C771 1.523 . S
C773 C757 1.429 . S
C773 C769 1.429 . S
C773 C774 1.523 . S
C774 C758 1.368 . S
C774 C770 1.368 . S
C774 C773 1.523 . S
H775 C750 0.950 . S
H776 C752 0.950 . S
H777 C753 0.949 . S
H778 C755 0.950 . S
H779 C757 0.950 . S
C241 C210 2.389 . S
C246 C10 2.291 . S
C271 C6 2.000 . S
C276 C46 2.140 . S
C301 C50 3.509 . S
C306 C86 3.266 1_545 S
C331 C126 2.432 . S
C336 C90 2.536 . S
C361 C170 4.235 . S
C366 C130 4.136 . S
C391 C166 2.643 . S
C396 C206 2.582 . S
C421 C175 2.312 . S
C426 C19 2.334 . S
C451 C219 1.376 . S
C456 C55 1.367 . S
C481 C95 0.990 . S
C486 C15 0.993 . S
C511 C135 2.250 . S
C516 C59 2.186 . S
C541 C179 3.907 1_556 S
C546 C99 3.983 . S
C571 C139 3.206 . S
C576 C215 3.175 . S
C601 C9 0.331 . S
C606 C18 0.331 . S
C631 C58 0.287 . S
C636 C49 0.287 . S
C661 C98 0.501 . S
C666 C89 0.501 . S
C691 C138 0.311 . S
C696 C129 0.311 . S
C721 C178 0.342 . S
C726 C169 0.342 . S
C751 C218 0.355 . S
C756 C209 0.355 . S
