# Generated by pormake.
# Topology bcs, (6)-cn, num edge types: 1
# Building blocks:
#     Node 0, Type 0, BuildingBlock: CIFDUS_clean_sbu_1, # of connection points: 6
#     Node 1, Type 0, BuildingBlock: CIFDUS_clean_sbu_1, # of connection points: 6
#     Node 2, Type 0, BuildingBlock: CIFDUS_clean_sbu_1, # of connection points: 6
#     Node 3, Type 0, BuildingBlock: CIFDUS_clean_sbu_1, # of connection points: 6
#     Node 4, Type 0, BuildingBlock: CIFDUS_clean_sbu_1, # of connection points: 6
#     Node 5, Type 0, BuildingBlock: CIFDUS_clean_sbu_1, # of connection points: 6
#     Node 6, Type 0, BuildingBlock: CIFDUS_clean_sbu_1, # of connection points: 6
#     Node 7, Type 0, BuildingBlock: CIFDUS_clean_sbu_1, # of connection points: 6
#     Node 8, Type 0, BuildingBlock: CIFDUS_clean_sbu_1, # of connection points: 6
#     Node 9, Type 0, BuildingBlock: CIFDUS_clean_sbu_1, # of connection points: 6
#     Node 10, Type 0, BuildingBlock: CIFDUS_clean_sbu_1, # of connection points: 6
#     Node 11, Type 0, BuildingBlock: CIFDUS_clean_sbu_1, # of connection points: 6
#     Node 12, Type 0, BuildingBlock: CIFDUS_clean_sbu_1, # of connection points: 6
#     Node 13, Type 0, BuildingBlock: CIFDUS_clean_sbu_1, # of connection points: 6
#     Node 14, Type 0, BuildingBlock: CIFDUS_clean_sbu_1, # of connection points: 6
#     Node 15, Type 0, BuildingBlock: CIFDUS_clean_sbu_1, # of connection points: 6
#     Edge 16, Type (0, 0), BuildingBlock: ZUJKAS_clean_linker_0, # of connection points: 2
#     Edge 17, Type (0, 0), BuildingBlock: ZUJKAS_clean_linker_0, # of connection points: 2
#     Edge 18, Type (0, 0), BuildingBlock: ZUJKAS_clean_linker_0, # of connection points: 2
#     Edge 19, Type (0, 0), BuildingBlock: ZUJKAS_clean_linker_0, # of connection points: 2
#     Edge 20, Type (0, 0), BuildingBlock: ZUJKAS_clean_linker_0, # of connection points: 2
#     Edge 21, Type (0, 0), BuildingBlock: ZUJKAS_clean_linker_0, # of connection points: 2
#     Edge 22, Type (0, 0), BuildingBlock: ZUJKAS_clean_linker_0, # of connection points: 2
#     Edge 23, Type (0, 0), BuildingBlock: ZUJKAS_clean_linker_0, # of connection points: 2
#     Edge 24, Type (0, 0), BuildingBlock: ZUJKAS_clean_linker_0, # of connection points: 2
#     Edge 25, Type (0, 0), BuildingBlock: ZUJKAS_clean_linker_0, # of connection points: 2
#     Edge 26, Type (0, 0), BuildingBlock: ZUJKAS_clean_linker_0, # of connection points: 2
#     Edge 27, Type (0, 0), BuildingBlock: ZUJKAS_clean_linker_0, # of connection points: 2
#     Edge 28, Type (0, 0), BuildingBlock: ZUJKAS_clean_linker_0, # of connection points: 2
#     Edge 29, Type (0, 0), BuildingBlock: ZUJKAS_clean_linker_0, # of connection points: 2
#     Edge 30, Type (0, 0), BuildingBlock: ZUJKAS_clean_linker_0, # of connection points: 2
#     Edge 31, Type (0, 0), BuildingBlock: ZUJKAS_clean_linker_0, # of connection points: 2
#     Edge 32, Type (0, 0), BuildingBlock: ZUJKAS_clean_linker_0, # of connection points: 2
#     Edge 33, Type (0, 0), BuildingBlock: ZUJKAS_clean_linker_0, # of connection points: 2
#     Edge 34, Type (0, 0), BuildingBlock: ZUJKAS_clean_linker_0, # of connection points: 2
#     Edge 35, Type (0, 0), BuildingBlock: ZUJKAS_clean_linker_0, # of connection points: 2
#     Edge 36, Type (0, 0), BuildingBlock: ZUJKAS_clean_linker_0, # of connection points: 2
#     Edge 37, Type (0, 0), BuildingBlock: ZUJKAS_clean_linker_0, # of connection points: 2
#     Edge 38, Type (0, 0), BuildingBlock: ZUJKAS_clean_linker_0, # of connection points: 2
#     Edge 39, Type (0, 0), BuildingBlock: ZUJKAS_clean_linker_0, # of connection points: 2
#     Edge 40, Type (0, 0), BuildingBlock: ZUJKAS_clean_linker_0, # of connection points: 2
#     Edge 41, Type (0, 0), BuildingBlock: ZUJKAS_clean_linker_0, # of connection points: 2
#     Edge 42, Type (0, 0), BuildingBlock: ZUJKAS_clean_linker_0, # of connection points: 2
#     Edge 43, Type (0, 0), BuildingBlock: ZUJKAS_clean_linker_0, # of connection points: 2
#     Edge 44, Type (0, 0), BuildingBlock: ZUJKAS_clean_linker_0, # of connection points: 2
#     Edge 45, Type (0, 0), BuildingBlock: ZUJKAS_clean_linker_0, # of connection points: 2
#     Edge 46, Type (0, 0), BuildingBlock: ZUJKAS_clean_linker_0, # of connection points: 2
#     Edge 47, Type (0, 0), BuildingBlock: ZUJKAS_clean_linker_0, # of connection points: 2
#     Edge 48, Type (0, 0), BuildingBlock: ZUJKAS_clean_linker_0, # of connection points: 2
#     Edge 49, Type (0, 0), BuildingBlock: ZUJKAS_clean_linker_0, # of connection points: 2
#     Edge 50, Type (0, 0), BuildingBlock: ZUJKAS_clean_linker_0, # of connection points: 2
#     Edge 51, Type (0, 0), BuildingBlock: ZUJKAS_clean_linker_0, # of connection points: 2
#     Edge 52, Type (0, 0), BuildingBlock: ZUJKAS_clean_linker_0, # of connection points: 2
#     Edge 53, Type (0, 0), BuildingBlock: ZUJKAS_clean_linker_0, # of connection points: 2
#     Edge 54, Type (0, 0), BuildingBlock: ZUJKAS_clean_linker_0, # of connection points: 2
#     Edge 55, Type (0, 0), BuildingBlock: ZUJKAS_clean_linker_0, # of connection points: 2
#     Edge 56, Type (0, 0), BuildingBlock: ZUJKAS_clean_linker_0, # of connection points: 2
#     Edge 57, Type (0, 0), BuildingBlock: ZUJKAS_clean_linker_0, # of connection points: 2
#     Edge 58, Type (0, 0), BuildingBlock: ZUJKAS_clean_linker_0, # of connection points: 2
#     Edge 59, Type (0, 0), BuildingBlock: ZUJKAS_clean_linker_0, # of connection points: 2
#     Edge 60, Type (0, 0), BuildingBlock: ZUJKAS_clean_linker_0, # of connection points: 2
#     Edge 61, Type (0, 0), BuildingBlock: ZUJKAS_clean_linker_0, # of connection points: 2
#     Edge 62, Type (0, 0), BuildingBlock: ZUJKAS_clean_linker_0, # of connection points: 2
#     Edge 63, Type (0, 0), BuildingBlock: ZUJKAS_clean_linker_0, # of connection points: 2
# Relax obj value: 0.279
# Max RMSD: 0.276
# Mean RMSD: 0.250
data_MOF--net-bcs--node1-CIFDUS_clean_sbu_1--edge1-ZUJKAS_clean_linker_0
_symmetry_space_group_name_H-M    P1
_symmetry_Int_Tables_number       1
_symmetry_cell_setting            triclinic
loop_
_symmetry_equiv_pos_as_xyz
'x, y, z'
_cell_length_a     43.02839
_cell_length_b     43.210545
_cell_length_c     46.794193
_cell_angle_alpha  88.556348
_cell_angle_beta   90.836661
_cell_angle_gamma 95.213167
loop_
_atom_site_label
_atom_site_type_symbol
_atom_site_fract_x
_atom_site_fract_y
_atom_site_fract_z
_atom_type_partial_charge
O0 O 0.98002 0.02585 0.97136 0.0
Mn1 Mn 0.0097 0.00803 0.00241 0.0
O2 O 0.99055 0.07792 0.97168 0.0
Mn3 Mn 0.01972 0.07933 0.00141 0.0
O4 O 0.03914 0.98959 0.03327 0.0
O5 O 0.97984 0.96965 0.00588 0.0
Mn6 Mn 0.99944 0.93622 0.0007 0.0
O7 O 0.03549 0.98777 0.97067 0.0
O8 O 0.03026 0.93748 0.02924 0.0
O9 O 0.98363 0.02834 0.03471 0.0
O10 O 1.00313 0.07805 0.03733 0.0
O11 O 0.95849 0.92232 0.00856 0.0
O12 O 0.0149 0.93903 0.96404 0.0
C13 C 0.06456 0.06568 0.99205 0.0
C14 C 0.97543 0.05343 0.96211 0.0
C15 C 0.0449 0.96157 0.04023 0.0
C16 C 0.95502 0.95152 0.0113 0.0
C17 C 0.03379 0.96216 0.95694 0.0
C18 C 0.98454 0.05542 0.0461 0.0
O19 O 0.04034 0.0464 -0.00218 0.0
O20 O 0.06009 0.09469 -0.00522 0.0
O21 O 0.29499 0.78255 0.27931 0.0
Mn22 Mn 0.25505 0.76333 0.25914 0.0
O23 O 0.33363 0.75411 0.26545 0.0
Mn24 Mn 0.31117 0.72795 0.23953 0.0
O25 O 0.21548 0.74376 0.23884 0.0
O26 O 0.22866 0.7773 0.29016 0.0
Mn27 Mn 0.19784 0.79791 0.27725 0.0
O28 O 0.24958 0.80498 0.23553 0.0
O29 O 0.17548 0.77043 0.25226 0.0
O30 O 0.26079 0.72148 0.28272 0.0
O31 O 0.29008 0.69324 0.25602 0.0
O32 O 0.19275 0.79257 0.31647 0.0
O33 O 0.21773 0.83284 0.25988 0.0
C34 C 0.29389 0.75337 0.20339 0.0
C35 C 0.32345 0.7756 0.28019 0.0
C36 C 0.1867 0.74944 0.23765 0.0
C37 C 0.21637 0.77622 0.31502 0.0
C38 C 0.23647 0.83022 0.23947 0.0
C39 C 0.2734 0.69608 0.27789 0.0
O40 O 0.28087 0.74958 0.22784 0.0
O41 O 0.31668 0.73618 0.20065 0.0
O42 O 0.5374 0.98101 0.52375 0.0
Mn43 Mn 0.51506 0.01216 0.49812 0.0
O44 O 0.58893 0.99276 0.51665 0.0
Mn45 Mn 0.5864 0.02626 0.49096 0.0
O46 O 0.49263 0.04337 0.47269 0.0
O47 O 0.47782 0.98116 0.49535 0.0
Mn48 Mn 0.44335 0.99693 0.50447 0.0
O49 O 0.49687 0.0321 0.53444 0.0
O50 O 0.44101 0.03021 0.47853 0.0
O51 O 0.53277 0.99227 0.4616 0.0
O52 O 0.5804 0.01604 0.45334 0.0
O53 O 0.43193 0.95648 0.49374 0.0
O54 O 0.44917 0.00787 0.54203 0.0
C55 C 0.57024 0.06769 0.50716 0.0
C56 C 0.56611 0.97617 0.52825 0.0
C57 C 0.46383 0.04751 0.4677 0.0
C58 C 0.46131 0.95608 0.48845 0.0
C59 C 0.47214 0.02656 0.54968 0.0
C60 C 0.55704 0.99786 0.44583 0.0
O61 O 0.55259 0.04306 0.50082 0.0
O62 O 0.59937 0.06628 0.50132 0.0
O63 O 0.24158 0.2276 0.77443 0.0
Mn64 Mn 0.26171 0.26228 0.74709 0.0
O65 O 0.18956 0.22969 0.76801 0.0
Mn66 Mn 0.18999 0.25937 0.73815 0.0
O67 O 0.28091 0.29742 0.71947 0.0
O68 O 0.29828 0.2694 0.77401 0.0
Mn69 Mn 0.33354 0.27056 0.75532 0.0
O70 O 0.28392 0.22869 0.7247 0.0
O71 O 0.33237 0.30412 0.72974 0.0
O72 O 0.23992 0.2959 0.76966 0.0
O73 O 0.193 0.30013 0.74929 0.0
O74 O 0.34446 0.27716 0.79305 0.0
O75 O 0.33406 0.23202 0.7396 0.0
C76 C 0.20893 0.24587 0.69851 0.0
C77 C 0.21303 0.21855 0.78041 0.0
C78 C 0.30819 0.31172 0.71602 0.0
C79 C 0.31462 0.27581 0.79678 0.0
C80 C 0.3113 0.21877 0.72554 0.0
C81 C 0.215 0.30999 0.76601 0.0
O82 O 0.22506 0.25508 0.72057 0.0
O83 O 0.17927 0.24753 0.70125 0.0
O84 O 0.05503 0.02672 0.51819 0.0
Mn85 Mn 0.01689 0.00182 0.49944 0.0
O86 O 0.09736 0.00761 0.4996 0.0
Mn87 Mn 0.0772 0.98078 0.47292 0.0
O88 O 0.97882 0.9765 0.48109 0.0
O89 O 0.99104 0.00602 0.53424 0.0
Mn90 Mn 0.95658 0.02326 0.5254 0.0
O91 O 1.00249 0.04286 0.48069 0.0
O92 O 0.93632 0.99573 0.49933 0.0
O93 O 0.03145 0.96069 0.51792 0.0
O94 O 0.06417 0.94165 0.48742 0.0
O95 O 0.95426 0.01165 0.5638 0.0
O96 O 0.96945 0.06226 0.51058 0.0
C97 C 0.05391 0.00605 0.43986 0.0
C98 C 0.08476 0.02575 0.51635 0.0
C99 C 0.94909 0.97702 0.48327 0.0
C100 C 0.97939 0.99843 0.55898 0.0
C101 C 0.98623 0.06473 0.48832 0.0
C102 C 0.04772 0.93895 0.50991 0.0
O103 O 0.04262 0.99789 0.46459 0.0
O104 O 0.07924 0.99334 0.43467 0.0
O105 O 0.29647 0.73887 0.78148 0.0
Mn106 Mn 0.26486 0.75784 0.7537 0.0
O107 O 0.34262 0.74857 0.75889 0.0
Mn108 Mn 0.33031 0.77444 0.72894 0.0
O109 O 0.23327 0.77657 0.72599 0.0
O110 O 0.2306 0.72433 0.76389 0.0
Mn111 Mn 0.19977 0.74192 0.77915 0.0
O112 O 0.25173 0.78817 0.7857 0.0
O113 O 0.18751 0.76847 0.74954 0.0
O114 O 0.27796 0.72766 0.72148 0.0
O115 O 0.31561 0.75441 0.69654 0.0
O116 O 0.18664 0.70024 0.77699 0.0
O117 O 0.21533 0.76114 0.8117 0.0
C118 C 0.317 0.81723 0.7447 0.0
C119 C 0.32606 0.73672 0.7797 0.0
C120 C 0.2039 0.77945 0.72827 0.0
C121 C 0.21201 0.69898 0.76271 0.0
C122 C 0.23447 0.78495 0.80806 0.0
C123 C 0.29609 0.73075 0.69967 0.0
O124 O 0.29891 0.79155 0.74354 0.0
O125 O 0.34269 0.81633 0.73082 0.0
O126 O 0.49424 0.9784 0.0339 0.0
Mn127 Mn 0.51264 0.01245 0.00545 0.0
O128 O 0.44297 0.9858 0.03505 0.0
Mn129 Mn 0.44283 0.017 0.00712 0.0
O130 O 0.53088 0.04716 0.97746 0.0
O131 O 0.55381 0.01545 0.02831 0.0
Mn132 Mn 0.58262 0.00918 0.00291 0.0
O133 O 0.52603 0.97697 0.97844 0.0
O134 O 0.58242 0.04158 0.97624 0.0
O135 O 0.49913 0.0478 0.03256 0.0
O136 O 0.45062 0.05684 0.01963 0.0
O137 O 0.60434 0.01487 0.03622 0.0
O138 O 0.57574 0.96994 0.98892 0.0
C139 C 0.44825 0.00494 0.96422 0.0
C140 C 0.46656 0.97189 0.04334 0.0
C141 C 0.55851 0.05523 0.96847 0.0
C142 C 0.57723 0.019 0.04638 0.0
C143 C 0.55019 0.96158 0.97647 0.0
C144 C 0.47563 0.06426 0.0333 0.0
O145 O 0.47156 0.00909 0.98237 0.0
O146 O 0.4212 0.01009 0.97391 0.0
O147 O 0.22646 0.27958 0.22436 0.0
Mn148 Mn 0.258 0.26197 0.25296 0.0
O149 O 0.22973 0.33095 0.2329 0.0
Mn150 Mn 0.26224 0.3323 0.25978 0.0
O151 O 0.28955 0.24414 0.28158 0.0
O152 O 0.23041 0.22156 0.25563 0.0
Mn153 Mn 0.2527 0.19109 0.24672 0.0
O154 O 0.28453 0.24674 0.21885 0.0
O155 O 0.28468 0.1925 0.27402 0.0
O156 O 0.23127 0.27664 0.28718 0.0
O157 O 0.24978 0.32512 0.29703 0.0
O158 O 0.21365 0.17256 0.25531 0.0
O159 O 0.26595 0.19797 0.20967 0.0
C160 C 0.30752 0.32489 0.24499 0.0
C161 C 0.21754 0.30691 0.22004 0.0
C162 C 0.29759 0.21652 0.28644 0.0
C163 C 0.20766 0.20053 0.26104 0.0
C164 C 0.28355 0.22232 0.20344 0.0
C165 C 0.23234 0.30065 0.30306 0.0
O166 O 0.28555 0.30276 0.25004 0.0
O167 O 0.3005 0.35237 0.25135 0.0
O168 O 0.55414 0.52972 0.02146 0.0
Mn169 Mn 0.51577 0.50445 0.00304 0.0
O170 O 0.59594 0.50937 0.0031 0.0
Mn171 Mn 0.57501 0.48234 0.97719 0.0
O172 O 0.47754 0.47928 0.98457 0.0
O173 O 0.49022 0.50804 0.03824 0.0
Mn174 Mn 0.45578 0.52548 0.03005 0.0
O175 O 0.50018 0.5451 0.98477 0.0
O176 O 0.43545 0.49846 0.00364 0.0
O177 O 0.53044 0.46356 0.02187 0.0
O178 O 0.56204 0.44324 0.99158 0.0
O179 O 0.45369 0.51326 0.06825 0.0
O180 O 0.46832 0.56468 0.01556 0.0
C181 C 0.55476 0.50729 0.94278 0.0
C182 C 0.58385 0.52846 0.01926 0.0
C183 C 0.44782 0.48014 0.98687 0.0
C184 C 0.47863 0.49992 0.06293 0.0
C185 C 0.48403 0.56692 0.99267 0.0
C186 C 0.54608 0.44126 0.01425 0.0
O187 O 0.54183 0.50147 0.96752 0.0
O188 O 0.57904 0.49231 0.93891 0.0
O189 O 0.79679 0.23881 0.28389 0.0
Mn190 Mn 0.76406 0.25662 0.25651 0.0
O191 O 0.84011 0.24357 0.25672 0.0
Mn192 Mn 0.8258 0.26907 0.22737 0.0
O193 O 0.73147 0.2743 0.22893 0.0
O194 O 0.7305 0.22372 0.26913 0.0
Mn195 Mn 0.69922 0.24101 0.28363 0.0
O196 O 0.75158 0.28826 0.2876 0.0
O197 O 0.68607 0.26551 0.25295 0.0
O198 O 0.77515 0.22389 0.22589 0.0
O199 O 0.80811 0.24918 0.19605 0.0
O200 O 0.68729 0.19886 0.28284 0.0
O201 O 0.71512 0.26266 0.3148 0.0
C202 C 0.81884 0.31437 0.24044 0.0
C203 C 0.82558 0.23439 0.27958 0.0
C204 C 0.70192 0.27639 0.23132 0.0
C205 C 0.71264 0.19793 0.26846 0.0
C206 C 0.73422 0.28632 0.30996 0.0
C207 C 0.78988 0.22546 0.20215 0.0
O208 O 0.79857 0.29027 0.24459 0.0
O209 O 0.8421 0.3093 0.22445 0.0
O210 O 0.97852 0.4747 0.52996 0.0
Mn211 Mn 1.00743 0.50695 0.50663 0.0
O212 O 0.93039 0.48943 0.52251 0.0
Mn213 Mn 0.94272 0.52224 0.498 0.0
O214 O 0.03745 0.53784 0.48366 0.0
O215 O 0.0425 0.50385 0.53658 0.0
Mn216 Mn 0.07181 0.4873 0.51766 0.0
O217 O 0.0205 0.46988 0.48107 0.0
O218 O 0.08344 0.51669 0.48899 0.0
O219 O 0.99519 0.54429 0.53231 0.0
O220 O 0.95209 0.5605 0.51305 0.0
O221 O 0.08806 0.49214 0.55347 0.0
O222 O 0.0573 0.44844 0.50609 0.0
C223 C 0.95033 0.51242 0.45587 0.0
C224 C 0.94887 0.47081 0.5333 0.0
C225 C 0.06659 0.53713 0.47832 0.0
C226 C 0.06254 0.50494 0.5579 0.0
C227 C 0.03779 0.44737 0.48566 0.0
C228 C 0.97478 0.56427 0.53027 0.0
O229 O 0.97236 0.51036 0.4756 0.0
O230 O 0.92433 0.52242 0.46372 0.0
O231 O 0.74997 0.72211 0.27985 0.0
Mn232 Mn 0.7611 0.75866 0.25025 0.0
O233 O 0.7022 0.70016 0.26834 0.0
Mn234 Mn 0.69186 0.73329 0.24536 0.0
O235 O 0.77316 0.79562 0.22085 0.0
O236 O 0.79679 0.77267 0.27596 0.0
Mn237 Mn 0.83123 0.78162 0.25671 0.0
O238 O 0.78905 0.72985 0.2284 0.0
O239 O 0.8224 0.81392 0.23225 0.0
O240 O 0.733 0.78744 0.27215 0.0
O241 O 0.68318 0.76813 0.26462 0.0
O242 O 0.84164 0.78839 0.29457 0.0
O243 O 0.83919 0.74582 0.23877 0.0
C244 C 0.70841 0.73539 0.20252 0.0
C245 C 0.72748 0.70061 0.28289 0.0
C246 C 0.79734 0.81536 0.21755 0.0
C247 C 0.81233 0.78036 0.29879 0.0
C248 C 0.81856 0.72751 0.22655 0.0
C249 C 0.70338 0.78798 0.27551 0.0
O250 O 0.7251 0.74406 0.22456 0.0
O251 O 0.67946 0.72684 0.20806 0.0
O252 O 0.78447 0.2917 0.79333 0.0
Mn253 Mn 0.75748 0.26622 0.76314 0.0
O254 O 0.83436 0.28242 0.78688 0.0
Mn255 Mn 0.82486 0.24823 0.76452 0.0
O256 O 0.72978 0.24079 0.73349 0.0
O257 O 0.71993 0.27439 0.78584 0.0
Mn258 Mn 0.68973 0.28579 0.76349 0.0
O259 O 0.75315 0.30725 0.73814 0.0
O260 O 0.68025 0.25222 0.74008 0.0
O261 O 0.7613 0.22519 0.78812 0.0
O262 O 0.81048 0.2123 0.78364 0.0
O263 O 0.67465 0.28593 0.80004 0.0
O264 O 0.70511 0.32219 0.74552 0.0
C265 C 0.81579 0.25429 0.72042 0.0
C266 C 0.81372 0.29663 0.79898 0.0
C267 C 0.70031 0.2369 0.72822 0.0
C268 C 0.70153 0.27661 0.80707 0.0
C269 C 0.73204 0.32647 0.73451 0.0
C270 C 0.78297 0.20696 0.7931 0.0
O271 O 0.79546 0.25788 0.7401 0.0
O272 O 0.84239 0.24592 0.72963 0.0
O273 O 0.73317 0.78442 0.72783 0.0
Mn274 Mn 0.7646 0.76472 0.75548 0.0
O275 O 0.73896 0.83548 0.7378 0.0
Mn276 Mn 0.77144 0.83475 0.76443 0.0
O277 O 0.79579 0.74525 0.78306 0.0
O278 O 0.73659 0.72467 0.7573 0.0
Mn279 Mn 0.75779 0.69402 0.74665 0.0
O280 O 0.79023 0.74976 0.7207 0.0
O281 O 0.79131 0.69427 0.77264 0.0
O282 O 0.73884 0.77892 0.79053 0.0
O283 O 0.75909 0.82651 0.80154 0.0
O284 O 0.71902 0.67615 0.75734 0.0
O285 O 0.76919 0.70246 0.70929 0.0
C286 C 0.81592 0.8263 0.74851 0.0
C287 C 0.72558 0.81242 0.72433 0.0
C288 C 0.80415 0.71758 0.78621 0.0
C289 C 0.71415 0.70404 0.76443 0.0
C290 C 0.78793 0.72628 0.70406 0.0
C291 C 0.74084 0.80244 0.80707 0.0
O292 O 0.79333 0.80477 0.75336 0.0
O293 O 0.81015 0.85381 0.75606 0.0
O294 O 0.48615 0.53516 0.47132 0.0
Mn295 Mn 0.5169 0.51627 0.50072 0.0
O296 O 0.49407 0.58712 0.47468 0.0
Mn297 Mn 0.5213 0.58669 0.50584 0.0
O298 O 0.54695 0.49612 0.52991 0.0
O299 O 0.48922 0.47678 0.50063 0.0
Mn300 Mn 0.50917 0.44435 0.49332 0.0
O301 O 0.54356 0.50059 0.46689 0.0
O302 O 0.53984 0.44448 0.52205 0.0
O303 O 0.48922 0.5307 0.53448 0.0
O304 O 0.50258 0.58132 0.54093 0.0
O305 O 0.46806 0.42976 0.5011 0.0
O306 O 0.5247 0.45178 0.45698 0.0
C307 C 0.56851 0.57891 0.49872 0.0
C308 C 0.48034 0.56283 0.46359 0.0
C309 C 0.55348 0.4679 0.53495 0.0
C310 C 0.46464 0.45856 0.50597 0.0
C311 C 0.54273 0.47612 0.45146 0.0
C312 C 0.4871 0.55599 0.54812 0.0
O313 O 0.5459 0.55663 0.50056 0.0
O314 O 0.5603 0.6065 0.50314 0.0
O315 O 0.03437 0.48035 0.02814 0.0
Mn316 Mn 0.01895 0.51561 0.00223 0.0
O317 O 0.08701 0.48941 0.02987 0.0
Mn318 Mn 0.09183 0.5239 0.00499 0.0
O319 O 1.00438 0.55137 0.97579 0.0
O320 O 0.97955 0.48875 -0.00526 0.0
Mn321 Mn 0.94678 0.51015 -0.00443 0.0
O322 O 0.99846 0.5345 0.03748 0.0
O323 O 0.95312 0.53991 0.96663 0.0
O324 O 0.0394 0.49633 0.96674 0.0
O325 O 0.09003 0.51503 0.9666 0.0
O326 O 0.93156 0.46989 0.98832 0.0
O327 O 0.94631 0.52459 0.03225 0.0
C328 C 0.07468 0.56542 0.02107 0.0
C329 C 0.06146 0.47369 0.03687 0.0
C330 C 0.97885 0.55643 0.96266 0.0
C331 C 0.96067 0.46461 0.98987 0.0
C332 C 0.97035 0.53496 0.04641 0.0
C333 C 0.06647 0.50009 0.95494 0.0
O334 O 0.05798 0.54233 0.01044 0.0
O335 O 0.1043 0.56295 0.01932 0.0
H336 H 0.24715 0.16962 0.79543 0.0
H337 H 0.23232 0.1269 0.82982 0.0
H338 H 0.15004 0.17122 0.85103 0.0
H339 H 0.16389 0.21273 0.81619 0.0
H340 H 0.2221 0.12111 0.88604 0.0
H341 H 0.11164 0.08716 0.83031 0.0
H342 H 0.14143 0.11392 0.81433 0.0
H343 H 0.1129 0.12769 0.83771 0.0
C344 C 0.22594 0.17013 0.80754 0.0
C345 C 0.20634 0.19416 0.80278 0.0
C346 C 0.21749 0.14574 0.82711 0.0
C347 C 0.18951 0.14529 0.84232 0.0
C348 C 0.17107 0.17033 0.83874 0.0
H349 H 0.12313 0.09178 -0.00042 0.0
H350 H 0.1611 0.10021 0.96195 0.0
C351 C 0.17911 0.1942 0.81893 0.0
C352 C 0.17888 0.119 0.862 0.0
H353 H 0.11189 0.07669 0.88172 0.0
C354 C 0.19821 0.11073 0.88486 0.0
C355 C 0.14834 0.10405 0.8598 0.0
C356 C 0.12761 0.10842 0.83396 0.0
C357 C 0.18663 0.09048 0.90708 0.0
C358 C 0.15452 0.07949 0.90708 0.0
C359 C 0.13634 0.08529 0.8826 0.0
C360 C 0.13787 0.06655 0.93324 0.0
C361 C 0.20897 0.08156 0.93033 0.0
C362 C 0.11226 0.044 0.93074 0.0
C363 C 0.08929 0.04078 0.95174 0.0
C364 C 0.09252 0.05829 0.97659 0.0
C365 C 0.1203 0.07738 0.98091 0.0
C366 C 0.1424 0.082 0.95928 0.0
H367 H 0.23185 0.07759 0.92105 0.0
H368 H 0.21326 0.101 0.94536 0.0
H369 H 0.19996 0.06021 0.94235 0.0
H370 H 0.10806 0.03149 0.91108 0.0
H371 H 0.06749 0.02777 0.94656 0.0
H372 H 0.0756 0.00242 0.07815 0.0
H373 H 0.1187 0.9919 0.11125 0.0
H374 H 0.11629 0.89845 0.08077 0.0
H375 H 0.07347 0.9083 0.04832 0.0
H376 H 0.11435 0.93406 0.15399 0.0
H377 H 0.21165 0.93994 0.07679 0.0
H378 H 0.17773 0.96136 0.07144 0.0
H379 H 0.17509 0.92041 0.06511 0.0
C380 C 0.0843 0.97967 0.07851 0.0
C381 C 0.07083 0.95618 0.06066 0.0
C382 C 0.10895 0.97374 0.09734 0.0
C383 C 0.12091 0.94451 0.09811 0.0
C384 C 0.10767 0.92126 0.08023 0.0
H385 H 0.23436 0.8214 0.18195 0.0
H386 H 0.21188 0.85605 0.14675 0.0
C387 C 0.08294 0.92694 0.06184 0.0
C388 C 0.14585 0.93694 0.11867 0.0
H389 H 0.21993 0.91426 0.1216 0.0
C390 C 0.13772 0.93043 0.14719 0.0
C391 C 0.17607 0.93181 0.1095 0.0
C392 C 0.18591 0.93891 0.07907 0.0
C393 C 0.15839 0.91717 0.16647 0.0
C394 C 0.1885 0.91119 0.15715 0.0
C395 C 0.19704 0.91898 0.12883 0.0
C396 C 0.20988 0.89405 0.17578 0.0
C397 C 0.14685 0.90775 0.19605 0.0
C398 C 0.21876 0.9048 0.20303 0.0
C399 C 0.23133 0.8849 0.22325 0.0
C400 C 0.23595 0.85417 0.21634 0.0
C401 C 0.23121 0.84497 0.18789 0.0
C402 C 0.21809 0.86473 0.16779 0.0
H403 H 0.12107 0.90742 0.1975 0.0
H404 H 0.15363 0.88433 0.20238 0.0
H405 H 0.15736 0.92466 0.21169 0.0
H406 H 0.21367 0.92771 0.2094 0.0
H407 H 0.23496 0.89267 0.24498 0.0
H408 H 0.48581 0.96637 0.43607 0.0
H409 H 0.47933 0.92959 0.39745 0.0
H410 H 0.44576 0.85739 0.45753 0.0
H411 H 0.45429 0.89384 0.49659 0.0
H412 H 0.47165 0.83505 0.40474 0.0
H413 H 0.38247 0.9197 0.38944 0.0
H414 H 0.4222 0.93634 0.38763 0.0
H415 H 0.40738 0.91915 0.42067 0.0
C416 C 0.47981 0.94209 0.44145 0.0
C417 C 0.47132 0.93271 0.46938 0.0
C418 C 0.4755 0.92114 0.41922 0.0
C419 C 0.46141 0.89104 0.42462 0.0
C420 C 0.4567 0.88054 0.45296 0.0
H421 H 0.30922 0.80111 0.33027 0.0
H422 H 0.34519 0.8267 0.3649 0.0
C423 C 0.46161 0.90135 0.47527 0.0
C424 C 0.44411 0.87414 0.40145 0.0
H425 H 0.38043 0.87853 0.35783 0.0
C426 C 0.45186 0.84452 0.39421 0.0
C427 C 0.41772 0.88632 0.38851 0.0
C428 C 0.40666 0.91696 0.39707 0.0
C429 C 0.43379 0.82669 0.37421 0.0
C430 C 0.40781 0.83926 0.36084 0.0
C431 C 0.40042 0.86901 0.36798 0.0
C432 C 0.38673 0.82174 0.34041 0.0
C433 C 0.44196 0.79422 0.36848 0.0
C434 C 0.39808 0.81049 0.31507 0.0
C435 C 0.37753 0.79544 0.29538 0.0
C436 C 0.34525 0.79214 0.30042 0.0
C437 C 0.33394 0.8037 0.32564 0.0
C438 C 0.35449 0.81816 0.34551 0.0
H439 H 0.45671 0.78516 0.38589 0.0
H440 H 0.42061 0.77798 0.36603 0.0
H441 H 0.45529 0.79453 0.34834 0.0
H442 H 0.42272 0.81378 0.31028 0.0
H443 H 0.38683 0.78685 0.27602 0.0
H444 H 0.29834 0.20958 0.6687 0.0
H445 H 0.32522 0.17571 0.63766 0.0
H446 H 0.37025 0.13727 0.71165 0.0
H447 H 0.34373 0.17098 0.74246 0.0
H448 H 0.41175 0.16479 0.66959 0.0
H449 H 0.32026 0.08076 0.62293 0.0
H450 H 0.31329 0.12121 0.62123 0.0
H451 H 0.31415 0.10125 0.65526 0.0
C452 C 0.31287 0.19288 0.67834 0.0
C453 C 0.31881 0.19265 0.70796 0.0
C454 C 0.32846 0.17375 0.6606 0.0
C455 C 0.34994 0.15413 0.67237 0.0
C456 C 0.35395 0.15234 0.70212 0.0
H457 H 0.44391 0.00917 0.59962 0.0
H458 H 0.41707 0.04281 0.63033 0.0
C459 C 0.33858 0.17141 0.71972 0.0
C460 C 0.37074 0.13775 0.65404 0.0
H461 H 0.37196 0.07812 0.60778 0.0
C462 C 0.40309 0.14588 0.65597 0.0
C463 C 0.35934 0.11322 0.63629 0.0
C464 C 0.3249 0.10331 0.63379 0.0
C465 C 0.42442 0.12966 0.64114 0.0
C466 C 0.41308 0.10478 0.62371 0.0
C467 C 0.38066 0.09711 0.62129 0.0
C468 C 0.43424 0.08555 0.60849 0.0
C469 C 0.45891 0.13868 0.64496 0.0
C470 C 0.45424 0.09852 0.58697 0.0
C471 C 0.47017 0.07927 0.56971 0.0
C472 C 0.46597 0.04679 0.57352 0.0
C473 C 0.44784 0.03414 0.59643 0.0
C474 C 0.43218 0.05332 0.61375 0.0
H475 H 0.46394 0.15312 0.66408 0.0
H476 H 0.47205 0.11775 0.64703 0.0
H477 H 0.46766 0.15243 0.62592 0.0
H478 H 0.4559 0.12327 0.58223 0.0
H479 H 0.48328 0.0896 0.55173 0.0
H480 H 0.07343 0.88494 0.49878 0.0
H481 H 0.09573 0.85019 0.53405 0.0
H482 H 0.05836 0.90025 0.60219 0.0
H483 H 0.03739 0.9359 0.5674 0.0
H484 H 0.139 0.8857 0.57981 0.0
H485 H 0.04506 0.80036 0.6222 0.0
H486 H 0.04499 0.81476 0.58556 0.0
H487 H 0.03594 0.8395 0.6138 0.0
C488 C 0.06911 0.888 0.52124 0.0
C489 C 0.05332 0.91314 0.53022 0.0
C490 C 0.08184 0.86808 0.54131 0.0
C491 C 0.07848 0.87266 0.57059 0.0
C492 C 0.06071 0.89611 0.57961 0.0
H493 H 0.15068 0.8089 0.73101 0.0
H494 H 0.12166 0.83095 0.69135 0.0
C495 C 0.04837 0.9163 0.55961 0.0
C496 C 0.09767 0.85672 0.59166 0.0
H497 H 0.09379 0.80306 0.64638 0.0
C498 C 0.12933 0.86736 0.59422 0.0
C499 C 0.08468 0.83321 0.61045 0.0
C500 C 0.05082 0.82102 0.608 0.0
C501 C 0.14828 0.85576 0.61586 0.0
C502 C 0.13532 0.83222 0.63489 0.0
C503 C 0.1037 0.82113 0.63183 0.0
C504 C 0.15374 0.81961 0.6588 0.0
C505 C 0.18156 0.86986 0.61882 0.0
C506 C 0.18155 0.80606 0.65373 0.0
C507 C 0.19854 0.79403 0.67646 0.0
C508 C 0.18758 0.79465 0.70457 0.0
C509 C 0.15969 0.8081 0.70957 0.0
C510 C 0.14303 0.82058 0.68692 0.0
H511 H 0.18497 0.89314 0.60809 0.0
H512 H 0.18859 0.87225 0.64163 0.0
H513 H 0.19733 0.8546 0.6086 0.0
H514 H 0.18986 0.80431 0.63216 0.0
H515 H 0.21967 0.7833 0.67191 0.0
H516 H 0.33007 0.87932 0.73907 0.0
H517 H 0.35336 0.91305 0.77639 0.0
H518 H 0.33224 0.84014 0.83948 0.0
H519 H 0.30939 0.8061 0.80205 0.0
H520 H 0.32638 0.90691 0.85719 0.0
H521 H 0.43992 0.88615 0.80934 0.0
H522 H 0.41088 0.8993 0.78499 0.0
H523 H 0.40439 0.86179 0.80233 0.0
C524 C 0.3289 0.87103 0.76111 0.0
C525 C 0.31714 0.84026 0.76763 0.0
C526 C 0.34271 0.89017 0.78237 0.0
C527 C 0.34513 0.87893 0.81064 0.0
C528 C 0.3307 0.8493 0.81779 0.0
H529 H 0.46654 0.94768 0.95217 0.0
H530 H 0.44418 0.91567 0.91283 0.0
C531 C 0.31696 0.83003 0.79642 0.0
C532 C 0.36531 0.89688 0.83182 0.0
H533 H 0.4415 0.92237 0.84666 0.0
C534 C 0.35152 0.9102 0.85494 0.0
C535 C 0.39824 0.90087 0.82911 0.0
C536 C 0.41442 0.88612 0.80526 0.0
C537 C 0.36967 0.92811 0.8749 0.0
C538 C 0.40249 0.93293 0.87168 0.0
C539 C 0.41638 0.91889 0.84902 0.0
C540 C 0.42227 0.95316 0.89145 0.0
C541 C 0.35359 0.94186 0.89939 0.0
C542 C 0.41932 0.98522 0.89136 0.0
C543 C 0.43245 0.0035 0.91347 0.0
C544 C 0.44894 0.9902 0.93611 0.0
C545 C 0.45472 0.95877 0.93464 0.0
C546 C 0.44147 0.94035 0.9124 0.0
H547 H 0.32939 0.93097 0.90223 0.0
H548 H 0.36689 0.93906 0.91966 0.0
H549 H 0.35245 0.96711 0.8951 0.0
H550 H 0.40493 0.99569 0.87529 0.0
H551 H 0.42707 0.02748 0.91435 0.0
H552 H 0.48193 0.12706 0.02474 0.0
H553 H 0.45957 0.16487 0.05484 0.0
H554 H 0.43576 0.09218 0.11777 0.0
H555 H 0.45973 0.05518 0.08848 0.0
H556 H 0.40221 0.16493 0.06508 0.0
H557 H 0.45836 0.15915 0.17125 0.0
H558 H 0.47449 0.14242 0.14046 0.0
H559 H 0.44423 0.12077 0.16095 0.0
C560 C 0.4736 0.11973 0.0458 0.0
C561 C 0.47353 0.08847 0.05473 0.0
C562 C 0.46031 0.14121 0.06285 0.0
C563 C 0.44602 0.13173 0.08893 0.0
C564 C 0.44741 0.10069 0.0984 0.0
H565 H 0.27718 0.1877 0.15564 0.0
H566 H 0.31876 0.17108 0.12644 0.0
C567 C 0.46127 0.07942 0.08163 0.0
C568 C 0.42608 0.15276 0.10407 0.0
H569 H 0.40548 0.17495 0.17037 0.0
C570 C 0.40347 0.16754 0.08806 0.0
C571 C 0.42761 0.15688 0.13406 0.0
C572 C 0.45275 0.14421 0.15255 0.0
C573 C 0.38163 0.18479 0.10118 0.0
C574 C 0.38149 0.18661 0.13136 0.0
C575 C 0.40509 0.17329 0.14727 0.0
C576 C 0.35587 0.20007 0.14692 0.0
C577 C 0.35887 0.20079 0.08241 0.0
C578 C 0.3625 0.22204 0.16839 0.0
C579 C 0.33856 0.23142 0.18542 0.0
C580 C 0.30745 0.21908 0.1813 0.0
C581 C 0.30077 0.19813 0.15904 0.0
C582 C 0.32462 0.18865 0.1422 0.0
H583 H 0.36905 0.20725 0.06116 0.0
H584 H 0.33771 0.18463 0.07879 0.0
H585 H 0.35181 0.2221 0.09234 0.0
H586 H 0.38637 0.23103 0.17275 0.0
H587 H 0.34475 0.24653 0.20309 0.0
H588 H 0.06305 0.06491 0.4588 0.0
H589 H 0.07555 0.11117 0.42843 0.0
H590 H 0.04822 0.05819 0.35386 0.0
H591 H 0.03659 0.01177 0.38424 0.0
H592 H 0.10831 0.08016 0.35297 0.0
H593 H 0.03884 0.17764 0.37846 0.0
H594 H 0.05488 0.15889 0.40928 0.0
H595 H 0.02617 0.13759 0.38736 0.0
C596 C 0.05798 0.06363 0.43609 0.0
C597 C 0.04813 0.0349 0.42391 0.0
C598 C 0.06527 0.09015 0.41865 0.0
C599 C 0.06277 0.08839 0.38873 0.0
C600 C 0.0502 0.0603 0.37685 0.0
H601 H 0.14762 0.18735 0.24491 0.0
H602 H 0.10666 0.16707 0.27777 0.0
C603 C 0.04324 0.03378 0.39424 0.0
C604 C 0.07907 0.11302 0.36989 0.0
H605 H 0.08564 0.19075 0.35173 0.0
C606 C 0.103 0.10423 0.35256 0.0
C607 C 0.07258 0.14463 0.36953 0.0
C608 C 0.04655 0.15531 0.38696 0.0
C609 C 0.12069 0.1259 0.3352 0.0
C610 C 0.11437 0.15747 0.33482 0.0
C611 C 0.09048 0.16655 0.35208 0.0
C612 C 0.13272 0.18045 0.316 0.0
C613 C 0.14635 0.11487 0.3174 0.0
C614 C 0.16001 0.19695 0.32649 0.0
C615 C 0.18337 0.2091 0.30756 0.0
C616 C 0.17974 0.20463 0.278 0.0
C617 C 0.15079 0.19168 0.26752 0.0
C618 C 0.12741 0.17984 0.28635 0.0
H619 H 0.1509 0.0905 0.32284 0.0
H620 H 0.13965 0.11621 0.29444 0.0
H621 H 0.16835 0.13004 0.32039 0.0
H622 H 0.16474 0.19748 0.34928 0.0
H623 H 0.20569 0.21827 0.31628 0.0
H624 H 0.80233 0.22089 0.14557 0.0
H625 H 0.82629 0.17841 0.12328 0.0
H626 H 0.81546 0.1237 0.20131 0.0
H627 H 0.79065 0.16591 0.2236 0.0
H628 H 0.88282 0.14644 0.17419 0.0
H629 H 0.79686 0.07849 0.10506 0.0
H630 H 0.79456 0.11992 0.10637 0.0
H631 H 0.78592 0.09612 0.13767 0.0
C632 C 0.80378 0.19931 0.1576 0.0
C633 C 0.79452 0.19682 0.18635 0.0
C634 C 0.81759 0.17505 0.14485 0.0
C635 C 0.82273 0.14789 0.16062 0.0
C636 C 0.8115 0.14436 0.18867 0.0
H637 H 0.9456 0.01707 0.08223 0.0
H638 H 0.90437 0.03324 0.11342 0.0
C639 C 0.79712 0.16846 0.20132 0.0
C640 C 0.8442 0.12612 0.14924 0.0
H641 H 0.8507 0.07296 0.09715 0.0
C642 C 0.87566 0.12982 0.15784 0.0
C643 C 0.83487 0.10442 0.12796 0.0
C644 C 0.80118 0.09917 0.11868 0.0
C645 C 0.89831 0.11382 0.14456 0.0
C646 C 0.88941 0.09361 0.1219 0.0
C647 C 0.85759 0.08836 0.11452 0.0
C648 C 0.91334 0.08231 0.10292 0.0
C649 C 0.93196 0.11987 0.15396 0.0
C650 C 0.93169 0.10422 0.08649 0.0
C651 C 0.95479 0.09507 0.06884 0.0
C652 C 0.96037 0.06352 0.0667 0.0
C653 C 0.94176 0.04135 0.08301 0.0
C654 C 0.91831 0.05064 0.10092 0.0
H655 H 0.93391 0.12804 0.17629 0.0
H656 H 0.94452 0.09864 0.15235 0.0
H657 H 0.9437 0.13829 0.1399 0.0
H658 H 0.92804 0.12868 0.08723 0.0
H659 H 0.96797 0.11307 0.05638 0.0
H660 H 0.11164 0.53269 0.43924 0.0
H661 H 0.14382 0.57554 0.41629 0.0
H662 H 0.09138 0.6415 0.45823 0.0
H663 H 0.05804 0.59853 0.48001 0.0
H664 H 0.10285 0.65978 0.406 0.0
H665 H 0.21349 0.6268 0.45406 0.0
H666 H 0.19475 0.59544 0.43403 0.0
H667 H 0.17599 0.60869 0.46509 0.0
C668 C 0.1068 0.55638 0.44318 0.0
C669 C 0.08257 0.56251 0.46133 0.0
C670 C 0.12545 0.58079 0.43048 0.0
C671 C 0.1208 0.61165 0.43652 0.0
C672 C 0.09565 0.61781 0.45366 0.0
H673 H 0.2269 0.78042 0.37205 0.0
H674 H 0.20964 0.73953 0.40727 0.0
C675 C 0.0765 0.59335 0.46586 0.0
C676 C 0.14162 0.63744 0.42414 0.0
H677 H 0.21834 0.66183 0.41271 0.0
C678 C 0.12806 0.66053 0.40797 0.0
C679 C 0.17456 0.63871 0.42712 0.0
C680 C 0.19049 0.61625 0.44631 0.0
C681 C 0.14658 0.6838 0.39331 0.0
C682 C 0.17937 0.6835 0.39447 0.0
C683 C 0.19311 0.66153 0.41173 0.0
C684 C 0.19896 0.70442 0.37561 0.0
C685 C 0.13101 0.70794 0.37573 0.0
C686 C 0.1999 0.69744 0.34661 0.0
C687 C 0.20945 0.72061 0.32667 0.0
C688 C 0.21899 0.75074 0.33562 0.0
C689 C 0.22069 0.75698 0.3649 0.0
C690 C 0.21078 0.73378 0.38493 0.0
H691 H 0.10573 0.70758 0.38035 0.0
H692 H 0.14236 0.73153 0.37991 0.0
H693 H 0.13362 0.7035 0.35266 0.0
H694 H 0.19032 0.67496 0.33917 0.0
H695 H 0.2062 0.71574 0.30417 0.0
H696 H 0.62361 0.95843 0.54279 0.0
H697 H 0.63601 0.91539 0.57393 0.0
H698 H 0.53802 0.89041 0.58807 0.0
H699 H 0.52514 0.93405 0.5569 0.0
H700 H 0.5717 0.89261 0.63762 0.0
H701 H 0.62972 0.8227 0.56144 0.0
H702 H 0.64547 0.86245 0.5582 0.0
H703 H 0.6048 0.85225 0.54992 0.0
C704 C 0.60455 0.94377 0.55226 0.0
C705 C 0.57334 0.94977 0.54726 0.0
C706 C 0.61171 0.91887 0.56984 0.0
C707 C 0.58792 0.89916 0.58265 0.0
C708 C 0.5567 0.90507 0.57797 0.0
H709 H 0.68867 0.77116 0.69135 0.0
H710 H 0.64618 0.78336 0.65841 0.0
C711 C 0.54943 0.93009 0.56027 0.0
C712 C 0.5965 0.87446 0.60298 0.0
H713 H 0.65036 0.82164 0.61094 0.0
C714 C 0.58811 0.87633 0.63169 0.0
C715 C 0.61706 0.85243 0.59521 0.0
C716 C 0.62444 0.8471 0.56442 0.0
C717 C 0.60286 0.8596 0.65318 0.0
C718 C 0.62699 0.84127 0.64568 0.0
C719 C 0.63239 0.83629 0.61675 0.0
C720 C 0.65059 0.83256 0.66699 0.0
C721 C 0.59388 0.86331 0.68385 0.0
C722 C 0.66747 0.85622 0.68215 0.0
C723 C 0.69163 0.84947 0.70064 0.0
C724 C 0.69982 0.81883 0.70431 0.0
C725 C 0.68297 0.795 0.68902 0.0
C726 C 0.65861 0.80187 0.67033 0.0
H727 H 0.56866 0.8666 0.68538 0.0
H728 H 0.59902 0.84285 0.69737 0.0
H729 H 0.60716 0.88433 0.69247 0.0
H730 H 0.66245 0.88022 0.67917 0.0
H731 H 0.70406 0.86853 0.71185 0.0
H732 H 0.38393 0.47663 0.98376 0.0
H733 H 0.34896 0.44068 0.95626 0.0
H734 H 0.42805 0.3982 0.92444 0.0
H735 H 0.4634 0.43433 0.95158 0.0
H736 H 0.38609 0.41313 0.88226 0.0
H737 H 0.32479 0.34782 0.97185 0.0
H738 H 0.32459 0.38936 0.97273 0.0
H739 H 0.36084 0.37204 0.9768 0.0
C740 C 0.394 0.4596 0.97101 0.0
C741 C 0.42659 0.45843 0.96992 0.0
C742 C 0.37387 0.43889 0.95548 0.0
C743 C 0.38586 0.41644 0.93871 0.0
C744 C 0.41832 0.41526 0.93743 0.0
H745 H 0.32702 0.25657 0.8505 0.0
H746 H 0.33455 0.29236 0.88997 0.0
C747 C 0.4385 0.43599 0.95291 0.0
C748 C 0.36479 0.39519 0.92127 0.0
H749 H 0.30681 0.33566 0.92503 0.0
C750 C 0.36858 0.39636 0.89157 0.0
C751 C 0.34209 0.37325 0.93357 0.0
C752 C 0.33789 0.37023 0.9655 0.0
C753 C 0.35083 0.37578 0.8738 0.0
C754 C 0.32795 0.35387 0.88601 0.0
C755 C 0.32379 0.35295 0.91571 0.0
C756 C 0.31181 0.32916 0.86839 0.0
C757 C 0.35792 0.37665 0.84223 0.0
C758 C 0.29372 0.33684 0.84446 0.0
C759 C 0.28953 0.31636 0.82175 0.0
C760 C 0.30289 0.2879 0.82316 0.0
C761 C 0.31626 0.2783 0.84906 0.0
C762 C 0.32074 0.29885 0.8716 0.0
H763 H 0.37996 0.39109 0.83726 0.0
H764 H 0.35986 0.35285 0.83445 0.0
H765 H 0.33869 0.38669 0.83017 0.0
H766 H 0.28628 0.36004 0.84179 0.0
H767 H 0.28009 0.32484 0.80181 0.0
H768 H 0.82489 0.74975 0.34773 0.0
H769 H 0.83382 0.77799 0.39194 0.0
H770 H 0.78302 0.85192 0.35699 0.0
H771 H 0.77385 0.82348 0.31277 0.0
H772 H 0.86626 0.84039 0.36476 0.0
H773 H 0.78262 0.85253 0.45266 0.0
H774 H 0.7837 0.81633 0.43424 0.0
H775 H 0.7686 0.8489 0.41621 0.0
C776 C 0.81344 0.7708 0.35037 0.0
C777 C 0.79909 0.78472 0.32686 0.0
C778 C 0.81872 0.78706 0.37564 0.0
C779 C 0.80953 0.81725 0.3775 0.0
C780 C 0.79014 0.82856 0.35601 0.0
H781 H 0.88909 0.98139 0.46458 0.0
H782 H 0.85481 0.94176 0.44014 0.0
C783 C 0.78469 0.81215 0.33075 0.0
C784 C 0.82893 0.83975 0.39494 0.0
H785 H 0.83084 0.88371 0.45454 0.0
C786 C 0.85865 0.84976 0.38453 0.0
C787 C 0.81855 0.85218 0.42025 0.0
C788 C 0.78664 0.84205 0.43175 0.0
C789 C 0.87833 0.87217 0.39861 0.0
C790 C 0.86843 0.88425 0.42445 0.0
C791 C 0.83852 0.87427 0.43487 0.0
C792 C 0.8887 0.90767 0.44046 0.0
C793 C 0.9091 0.88334 0.38501 0.0
C794 C 0.91902 0.90158 0.44903 0.0
C795 C 0.93888 0.92444 0.46225 0.0
C796 C 0.9285 0.95354 0.46793 0.0
C797 C 0.89779 0.95925 0.46026 0.0
C798 C 0.87813 0.93657 0.44648 0.0
H799 H 0.90874 0.87907 0.36168 0.0
H800 H 0.91507 0.90856 0.38821 0.0
H801 H 0.92786 0.87043 0.39481 0.0
H802 H 0.9274 0.87915 0.4454 0.0
H803 H 0.96216 0.91908 0.46856 0.0
H804 H 0.49198 0.58997 0.59618 0.0
H805 H 0.44941 0.60667 0.624 0.0
H806 H 0.38351 0.54623 0.57632 0.0
H807 H 0.42628 0.53057 0.54738 0.0
H808 H 0.36507 0.60244 0.57618 0.0
H809 H 0.39504 0.5742 0.68789 0.0
H810 H 0.42792 0.59536 0.67124 0.0
H811 H 0.41365 0.55764 0.65829 0.0
C812 C 0.46856 0.57933 0.59231 0.0
C813 C 0.4627 0.55831 0.56998 0.0
C814 C 0.44411 0.58886 0.60837 0.0
C815 C 0.41302 0.57749 0.60274 0.0
C816 C 0.40722 0.5552 0.58138 0.0
H817 H 0.28319 0.66803 0.71166 0.0
H818 H 0.30442 0.6253 0.68681 0.0
C819 C 0.4318 0.54574 0.56515 0.0
C820 C 0.38688 0.592 0.61662 0.0
H821 H 0.36446 0.61873 0.68066 0.0
C822 C 0.36458 0.60537 0.59912 0.0
C823 C 0.38545 0.5955 0.64661 0.0
C824 C 0.40662 0.57957 0.66706 0.0
C825 C 0.3426 0.62383 0.61047 0.0
C826 C 0.3433 0.62993 0.64012 0.0
C827 C 0.36404 0.61468 0.65787 0.0
C828 C 0.32538 0.65443 0.65262 0.0
C829 C 0.31916 0.63699 0.59036 0.0
C830 C 0.32903 0.68496 0.64136 0.0
C831 C 0.31666 0.70924 0.65531 0.0
C832 C 0.3006 0.70388 0.68122 0.0
C833 C 0.29513 0.67302 0.69162 0.0
C834 C 0.30758 0.64858 0.67755 0.0
H835 H 0.31322 0.62111 0.57239 0.0
H836 H 0.29733 0.64106 0.60149 0.0
H837 H 0.32946 0.6594 0.58103 0.0
H838 H 0.34316 0.6905 0.62265 0.0
H839 H 0.32148 0.73266 0.64669 0.0
H840 H 0.59253 0.06311 0.9205 0.0
H841 H 0.61601 0.11282 0.90122 0.0
H842 H 0.56388 0.16174 0.96074 0.0
H843 H 0.53962 0.11181 0.97974 0.0
H844 H 0.58202 0.17995 0.88692 0.0
H845 H 0.67087 0.16896 0.97364 0.0
H846 H 0.65134 0.13418 0.95874 0.0
H847 H 0.62971 0.15892 0.97947 0.0
C848 C 0.58515 0.08451 0.9286 0.0
C849 C 0.56437 0.0839 0.95142 0.0
C850 C 0.59862 0.11277 0.91775 0.0
C851 C 0.59186 0.14062 0.92994 0.0
C852 C 0.56922 0.1403 0.9512 0.0
H853 H 0.6909 0.30531 0.85585 0.0
H854 H 0.66833 0.27664 0.89733 0.0
C855 C 0.55527 0.11191 0.96179 0.0
C856 C 0.61156 0.16909 0.92248 0.0
H857 H 0.68527 0.20288 0.93451 0.0
C858 C 0.60415 0.18581 0.89776 0.0
C859 C 0.6404 0.1762 0.93678 0.0
C860 C 0.64876 0.15879 0.96373 0.0
C861 C 0.62591 0.20831 0.8858 0.0
C862 C 0.65569 0.21385 0.89896 0.0
C863 C 0.66238 0.1985 0.92467 0.0
C864 C 0.68094 0.23215 0.88361 0.0
C865 C 0.6178 0.22447 0.85803 0.0
C866 C 0.69801 0.21685 0.8639 0.0
C867 C 0.71066 0.23313 0.84006 0.0
C868 C 0.70653 0.26476 0.83616 0.0
C869 C 0.69448 0.2809 0.85858 0.0
C870 C 0.68148 0.26457 0.88225 0.0
H871 H 0.59353 0.21752 0.85072 0.0
H872 H 0.62042 0.25003 0.86066 0.0
H873 H 0.63406 0.21892 0.84107 0.0
H874 H 0.6976 0.19172 0.86467 0.0
H875 H 0.71868 0.21989 0.82282 0.0
H876 H 0.09988 0.46912 0.08246 0.0
H877 H 0.10967 0.42215 0.10996 0.0
H878 H 0.03938 0.36891 0.06049 0.0
H879 H 0.02887 0.41645 0.03301 0.0
H880 H 0.05186 0.36527 0.13514 0.0
H881 H 0.14336 0.34321 0.05736 0.0
H882 H 0.13752 0.38328 0.06333 0.0
H883 H 0.10708 0.35856 0.0467 0.0
C884 C 0.08615 0.44752 0.07775 0.0
C885 C 0.06382 0.44621 0.05561 0.0
C886 C 0.09168 0.42081 0.09346 0.0
C887 C 0.07535 0.39225 0.08702 0.0
C888 C 0.05205 0.3909 0.06571 0.0
H889 H 0.19326 0.26727 0.17853 0.0
H890 H 0.15044 0.27593 0.14471 0.0
C891 C 0.04609 0.41794 0.05017 0.0
C892 C 0.08531 0.36413 0.10151 0.0
H893 H 0.1511 0.32597 0.1057 0.0
C894 C 0.07282 0.35552 0.12831 0.0
C895 C 0.11233 0.3512 0.09232 0.0
C896 C 0.12588 0.35927 0.06325 0.0
C897 C 0.0889 0.33714 0.14755 0.0
C898 C 0.11835 0.32805 0.13984 0.0
C899 C 0.12867 0.33325 0.1117 0.0
C900 C 0.14157 0.32029 0.16184 0.0
C901 C 0.07553 0.32977 0.17679 0.0
C902 C 0.151 0.34258 0.1822 0.0
C903 C 0.17551 0.33801 0.20107 0.0
C904 C 0.19126 0.31098 0.20001 0.0
C905 C 0.18153 0.28831 0.17988 0.0
C906 C 0.15703 0.29312 0.16067 0.0
H907 H 0.04962 0.32706 0.17578 0.0
H908 H 0.08403 0.30819 0.1862 0.0
H909 H 0.08262 0.34929 0.19115 0.0
H910 H 0.14002 0.36414 0.18292 0.0
H911 H 0.18222 0.35586 0.21638 0.0
H912 H 0.56152 0.51198 0.8857 0.0
H913 H 0.57666 0.55914 0.85821 0.0
H914 H 0.55517 0.61409 0.92994 0.0
H915 H 0.54606 0.56665 0.95896 0.0
H916 H 0.56037 0.60581 0.83662 0.0
H917 H 0.63849 0.65149 0.92429 0.0
H918 H 0.61685 0.61411 0.92726 0.0
H919 H 0.59812 0.64913 0.93335 0.0
C920 C 0.55935 0.53416 0.89545 0.0
C921 C 0.55144 0.53532 0.9244 0.0
C922 C 0.56811 0.56138 0.87964 0.0
C923 C 0.56838 0.59079 0.89204 0.0
C924 C 0.55689 0.59202 0.92 0.0
H925 H 0.65397 0.72075 0.75966 0.0
H926 H 0.61243 0.70367 0.79358 0.0
C927 C 0.54998 0.56463 0.93639 0.0
C928 C 0.58323 0.61907 0.87624 0.0
H929 H 0.63908 0.68043 0.88181 0.0
C930 C 0.57779 0.62192 0.84659 0.0
C931 C 0.60579 0.6408 0.88899 0.0
C932 C 0.61538 0.63862 0.92012 0.0
C933 C 0.59609 0.64324 0.8291 0.0
C934 C 0.61894 0.66468 0.84182 0.0
C935 C 0.62199 0.66399 0.87181 0.0
C936 C 0.64338 0.68397 0.82476 0.0
C937 C 0.59221 0.64045 0.7971 0.0
C938 C 0.67502 0.68297 0.83253 0.0
C939 C 0.69869 0.69488 0.81417 0.0
C940 C 0.69148 0.70736 0.7872 0.0
C941 C 0.6602 0.71149 0.78048 0.0
C942 C 0.63637 0.70076 0.79956 0.0
H943 H 0.57908 0.61815 0.79116 0.0
H944 H 0.57888 0.65952 0.78857 0.0
H945 H 0.6152 0.64182 0.78648 0.0
H946 H 0.68165 0.67063 0.85178 0.0
H947 H 0.72261 0.69096 0.81969 0.0
H948 H 0.72497 0.30137 0.18038 0.0
H949 H 0.69566 0.32484 0.14142 0.0
H950 H 0.61097 0.30796 0.18962 0.0
H951 H 0.6397 0.2846 0.22853 0.0
H952 H 0.60793 0.28997 0.12835 0.0
H953 H 0.65748 0.41129 0.14825 0.0
H954 H 0.68453 0.38206 0.14581 0.0
H955 H 0.65807 0.38065 0.17517 0.0
C956 C 0.70014 0.30272 0.18275 0.0
C957 C 0.68479 0.29122 0.20772 0.0
C958 C 0.68346 0.31608 0.16046 0.0
C959 C 0.65123 0.3181 0.16278 0.0
C960 C 0.63582 0.30646 0.18745 0.0
H961 H 0.53726 0.44079 0.07186 0.0
H962 H 0.55814 0.40617 0.10751 0.0
C963 C 0.6524 0.29325 0.20973 0.0
C964 C 0.63345 0.33312 0.13992 0.0
H965 H 0.6218 0.40391 0.11001 0.0
C966 C 0.61095 0.31486 0.12417 0.0
C967 C 0.63732 0.36557 0.13491 0.0
C968 C 0.66048 0.38623 0.15196 0.0
C969 C 0.59213 0.32836 0.1034 0.0
C970 C 0.59612 0.36084 0.0983 0.0
C971 C 0.61872 0.379 0.11405 0.0
C972 C 0.57742 0.3769 0.07672 0.0
C973 C 0.56776 0.30791 0.08752 0.0
C974 C 0.58001 0.37106 0.04753 0.0
C975 C 0.56725 0.39045 0.02697 0.0
C976 C 0.55201 0.41622 0.03529 0.0
C977 C 0.54784 0.42072 0.06459 0.0
C978 C 0.56028 0.40118 0.08508 0.0
H979 H 0.56237 0.28514 0.09877 0.0
H980 H 0.54585 0.31946 0.08471 0.0
H981 H 0.57658 0.3034 0.06599 0.0
H982 H 0.59357 0.35277 0.04059 0.0
H983 H 0.57107 0.38644 0.00459 0.0
H984 H 0.92051 0.53296 0.40957 0.0
H985 H 0.89886 0.50137 0.37129 0.0
H986 H 0.95865 0.4298 0.39585 0.0
H987 H 0.97679 0.46011 0.4376 0.0
H988 H 0.90662 0.47859 0.32814 0.0
H989 H 0.88394 0.37464 0.39896 0.0
H990 H 0.90067 0.41104 0.41248 0.0
H991 H 0.92487 0.38514 0.39523 0.0
C992 C 0.92957 0.51067 0.40662 0.0
C993 C 0.95005 0.49891 0.42701 0.0
C994 C 0.91704 0.49236 0.38446 0.0
C995 C 0.92569 0.4621 0.38095 0.0
C996 C 0.94985 0.45213 0.39883 0.0
H997 H 0.85242 0.36843 0.22791 0.0
H998 H 0.87718 0.40445 0.26161 0.0
C999 C 0.9613 0.47001 0.42218 0.0
C1000 C 0.90785 0.44137 0.3597 0.0
H1001 H 0.87153 0.36846 0.35013 0.0
C1002 C 0.89864 0.45464 0.33343 0.0
C1003 C 0.8965 0.41004 0.3661 0.0
C1004 C 0.9017 0.39451 0.39483 0.0
C1005 C 0.87809 0.43833 0.31424 0.0
C1006 C 0.86879 0.40637 0.31962 0.0
C1007 C 0.87844 0.39282 0.34557 0.0
C1008 C 0.85053 0.38623 0.29827 0.0
C1009 C 0.86544 0.45644 0.28933 0.0
C1010 C 0.82726 0.3629 0.30703 0.0
C1011 C 0.81422 0.34073 0.28772 0.0
C1012 C 0.8232 0.34203 0.25893 0.0
C1013 C 0.84442 0.36691 0.2498 0.0
C1014 C 0.85854 0.38798 0.26923 0.0
H1015 H 0.86295 0.48084 0.29524 0.0
H1016 H 0.88214 0.45739 0.27141 0.0
H1017 H 0.84229 0.44602 0.28191 0.0
H1018 H 0.82037 0.36068 0.32921 0.0
H1019 H 0.79931 0.3213 0.29601 0.0
H1020 H 0.61676 0.62371 0.49658 0.0
H1021 H 0.65974 0.62691 0.4634 0.0
H1022 H 0.63604 0.53152 0.44093 0.0
H1023 H 0.5928 0.52821 0.47504 0.0
H1024 H 0.71228 0.59548 0.44664 0.0
H1025 H 0.61238 0.58221 0.36911 0.0
H1026 H 0.6062 0.58748 0.40661 0.0
H1027 H 0.61727 0.551 0.39443 0.0
C1028 C 0.62103 0.60298 0.48525 0.0
C1029 C 0.60001 0.57606 0.48701 0.0
C1030 C 0.64587 0.60487 0.46632 0.0
C1031 C 0.65035 0.57983 0.44888 0.0
C1032 C 0.6323 0.55144 0.4536 0.0
H1033 H 0.71333 0.63837 0.2792 0.0
H1034 H 0.70371 0.60103 0.31895 0.0
C1035 C 0.60739 0.54956 0.4728 0.0
C1036 C 0.66941 0.58604 0.42284 0.0
H1037 H 0.65981 0.60418 0.35217 0.0
C1038 C 0.70112 0.59663 0.42575 0.0
C1039 C 0.65487 0.58741 0.39556 0.0
C1040 C 0.6208 0.57658 0.39102 0.0
C1041 C 0.71818 0.61011 0.40245 0.0
C1042 C 0.70282 0.61409 0.37579 0.0
C1043 C 0.67175 0.60138 0.37251 0.0
C1044 C 0.71669 0.6342 0.35198 0.0
C1045 C 0.75229 0.62041 0.40692 0.0
C1046 C 0.72874 0.66502 0.35702 0.0
C1047 C 0.73529 0.68608 0.3342 0.0
C1048 C 0.72889 0.67697 0.306 0.0
C1049 C 0.71852 0.64586 0.30081 0.0
C1050 C 0.71292 0.62458 0.32355 0.0
H1051 H 0.76311 0.60465 0.4225 0.0
H1052 H 0.76541 0.621 0.38663 0.0
H1053 H 0.75463 0.644 0.41601 0.0
H1054 H 0.73098 0.67354 0.37857 0.0
H1055 H 0.74278 0.71011 0.33871 0.0
H1056 H 0.86362 0.33916 0.8012 0.0
H1057 H 0.89083 0.35723 0.84471 0.0
H1058 H 0.81642 0.31221 0.8958 0.0
H1059 H 0.78857 0.29468 0.85202 0.0
H1060 H 0.84466 0.37142 0.91629 0.0
H1061 H 0.93189 0.28935 0.8931 0.0
H1062 H 0.92452 0.31438 0.86303 0.0
H1063 H 0.89362 0.28726 0.87644 0.0
C1064 C 0.85259 0.33409 0.82167 0.0
C1065 C 0.82424 0.31547 0.82345 0.0
C1066 C 0.86826 0.34404 0.84645 0.0
C1067 C 0.8561 0.33495 0.87331 0.0
C1068 C 0.82631 0.31894 0.87517 0.0
H1069 H 0.94936 0.41264 0.02247 0.0
H1070 H 0.92712 0.36555 -0.00068 0.0
C1071 C 0.81033 0.30929 0.85022 0.0
C1072 C 0.87579 0.34076 0.89899 0.0
H1073 H 0.94925 0.33155 0.9243 0.0
C1074 C 0.86716 0.3621 0.9187 0.0
C1075 C 0.90484 0.32801 0.90216 0.0
C1076 C 0.91415 0.3032 0.88272 0.0
C1077 C 0.88825 0.3735 0.93985 0.0
C1078 C 0.91853 0.36288 0.94131 0.0
C1079 C 0.9261 0.33959 0.9231 0.0
C1080 C 0.94381 0.38034 0.95738 0.0
C1081 C 0.87891 0.39879 0.95884 0.0
C1082 C 0.96398 0.40192 0.94211 0.0
C1083 C 0.97705 0.42863 0.95544 0.0
C1084 C 0.96959 0.43374 0.98385 0.0
C1085 C 0.95526 0.40907 0.00043 0.0
C1086 C 0.94219 0.3823 0.98715 0.0
H1087 H 0.85538 0.40599 0.9533 0.0
H1088 H 0.87868 0.39039 0.98144 0.0
H1089 H 0.89605 0.41955 0.95711 0.0
H1090 H 0.96576 0.40055 0.91911 0.0
H1091 H 0.98783 0.44748 0.94223 0.0
H1092 H 0.84108 0.86426 0.21085 0.0
H1093 H 0.84815 0.90029 0.1708 0.0
H1094 H 0.76306 0.85991 0.13174 0.0
H1095 H 0.75601 0.82237 0.1722 0.0
H1096 H 0.81258 0.86324 0.09581 0.0
H1097 H 0.81111 0.97784 0.14394 0.0
H1098 H 0.83499 0.95419 0.16526 0.0
H1099 H 0.79384 0.94262 0.16121 0.0
C1100 C 0.82334 0.86315 0.19415 0.0
C1101 C 0.79796 0.84014 0.19484 0.0
C1102 C 0.82728 0.88425 0.17129 0.0
C1103 C 0.80579 0.88347 0.1485 0.0
C1104 C 0.77973 0.86126 0.14933 0.0
H1105 H 0.89595 0.95412 0.99031 0.0
H1106 H 0.84879 0.94646 0.01957 0.0
C1107 C 0.77571 0.83985 0.17246 0.0
C1108 C 0.81375 0.90305 0.12256 0.0
H1109 H 0.84801 0.97514 0.10443 0.0
C1110 C 0.8193 0.88797 0.09719 0.0
C1111 C 0.82225 0.93539 0.12427 0.0
C1112 C 0.81488 0.95344 0.15009 0.0
C1113 C 0.83664 0.90339 0.07499 0.0
C1114 C 0.84815 0.935 0.07808 0.0
C1115 C 0.83952 0.9509 0.10211 0.0
C1116 C 0.87392 0.94956 0.05998 0.0
C1117 C 0.84503 0.88474 0.0498 0.0
C1118 C 0.90327 0.957 0.07284 0.0
C1119 C 0.92994 0.96226 0.05614 0.0
C1120 C 0.92772 0.96049 0.02635 0.0
C1121 C 0.8981 0.95629 0.01328 0.0
C1122 C 0.87125 0.95138 0.03001 0.0
H1123 H 0.83761 0.85956 0.05267 0.0
H1124 H 0.83333 0.89322 0.03022 0.0
H1125 H 0.87062 0.88747 0.04635 0.0
H1126 H 0.90604 0.95583 0.09589 0.0
H1127 H 0.95262 0.96438 0.06667 0.0
H1128 H 0.77535 0.14645 0.77907 0.0
H1129 H 0.79453 0.10454 0.80859 0.0
H1130 H 0.80589 0.16617 0.87986 0.0
H1131 H 0.78543 0.20742 0.85065 0.0
H1132 H 0.85242 0.11144 0.82368 0.0
H1133 H 0.78659 0.08639 0.92285 0.0
H1134 H 0.77037 0.10641 0.89256 0.0
H1135 H 0.79517 0.12753 0.91823 0.0
C1136 C 0.77983 0.15025 0.80162 0.0
C1137 C 0.77838 0.17993 0.81276 0.0
C1138 C 0.79128 0.12644 0.81841 0.0
C1139 C 0.80188 0.13203 0.84654 0.0
C1140 C 0.79731 0.16079 0.85853 0.0
H1141 H 0.97164 0.10265 0.92537 0.0
H1142 H 0.92751 0.11469 0.89529 0.0
C1143 C 0.78541 0.18446 0.84182 0.0
C1144 C 0.82329 0.11099 0.8609 0.0
H1145 H 0.84266 0.08 0.926 0.0
C1146 C 0.84972 0.1039 0.84586 0.0
C1147 C 0.82 0.10071 0.88977 0.0
C1148 C 0.79128 0.1054 0.90663 0.0
C1149 C 0.87376 0.08891 0.85934 0.0
C1150 C 0.87177 0.08128 0.88884 0.0
C1151 C 0.84441 0.08622 0.90344 0.0
C1152 C 0.89926 0.07194 0.90548 0.0
C1153 C 0.90162 0.08232 0.84202 0.0
C1154 C 0.89819 0.04377 0.92129 0.0
C1155 C 0.92368 0.03668 0.93859 0.0
C1156 C 0.95035 0.05797 0.94071 0.0
C1157 C 0.95149 0.08573 0.92426 0.0
C1158 C 0.92629 0.09261 0.9069 0.0
H1159 H 0.89524 0.07952 0.81907 0.0
H1160 H 0.91976 0.1022 0.84353 0.0
H1161 H 0.91182 0.061 0.85003 0.0
H1162 H 0.87747 0.02756 0.92063 0.0
H1163 H 0.92195 0.01526 0.95124 0.0
H1164 H 0.6516 0.19328 0.73266 0.0
H1165 H 0.62468 0.16501 0.69342 0.0
H1166 H 0.69405 0.20541 0.63455 0.0
H1167 H 0.72164 0.23329 0.67407 0.0
H1168 H 0.6167 0.2128 0.62981 0.0
H1169 H 0.66124 0.09556 0.63436 0.0
H1170 H 0.6554 0.11483 0.66737 0.0
H1171 H 0.68557 0.13027 0.64366 0.0
C1172 C 0.66152 0.19541 0.71147 0.0
C1173 C 0.68856 0.21525 0.70619 0.0
C1174 C 0.64614 0.17942 0.68917 0.0
C1175 C 0.65736 0.18349 0.66129 0.0
C1176 C 0.68523 0.2021 0.65608 0.0
H1177 H 0.58281 0.12946 0.49983 0.0
H1178 H 0.59681 0.16348 0.53959 0.0
C1179 C 0.70101 0.21773 0.67857 0.0
C1180 C 0.63823 0.17026 0.63756 0.0
H1181 H 0.61901 0.10272 0.60317 0.0
C1182 C 0.61715 0.18878 0.62377 0.0
C1183 C 0.63892 0.13895 0.63023 0.0
C1184 C 0.66152 0.11857 0.6445 0.0
C1185 C 0.59622 0.17648 0.6028 0.0
C1186 C 0.59677 0.14503 0.59548 0.0
C1187 C 0.61816 0.12669 0.60924 0.0
C1188 C 0.57757 0.13086 0.57198 0.0
C1189 C 0.57349 0.19705 0.58901 0.0
C1190 C 0.56011 0.1022 0.57681 0.0
C1191 C 0.55246 0.08258 0.55405 0.0
C1192 C 0.56179 0.09171 0.52629 0.0
C1193 C 0.57492 0.12221 0.52105 0.0
C1194 C 0.58299 0.14168 0.54383 0.0
H1195 H 0.56933 0.21676 0.60283 0.0
H1196 H 0.58331 0.20689 0.56859 0.0
H1197 H 0.5508 0.18372 0.58425 0.0
H1198 H 0.55581 0.09344 0.59843 0.0
H1199 H 0.54367 0.05882 0.55892 0.0
H1200 H 0.54415 0.93527 0.44221 0.0
H1201 H 0.56698 0.90178 0.40825 0.0
H1202 H 0.6078 0.98273 0.36222 0.0
H1203 H 0.58435 0.01633 0.39566 0.0
H1204 H 0.5703 0.9059 0.33808 0.0
H1205 H 0.67959 0.92817 0.40276 0.0
H1206 H 0.64154 0.93057 0.41795 0.0
H1207 H 0.65707 0.9602 0.3933 0.0
C1208 C 0.55641 0.9459 0.4239 0.0
C1209 C 0.56192 0.97838 0.42119 0.0
C1210 C 0.5699 0.92676 0.40481 0.0
C1211 C 0.58927 0.93991 0.383 0.0
C1212 C 0.59294 0.97225 0.37899 0.0
H1213 H 0.72533 0.84949 0.28217 0.0
H1214 H 0.69884 0.88892 0.30744 0.0
C1215 C 0.57938 0.99136 0.39796 0.0
C1216 C 0.60833 0.9201 0.3665 0.0
H1217 H 0.68107 0.89451 0.3642 0.0
C1218 C 0.59454 0.90347 0.34363 0.0
C1219 C 0.64001 0.91736 0.37374 0.0
C1220 C 0.65563 0.93487 0.39832 0.0
C1221 C 0.61162 0.88376 0.32787 0.0
C1222 C 0.64304 0.88004 0.33576 0.0
C1223 C 0.65703 0.89737 0.35821 0.0
C1224 C 0.66078 0.85652 0.3223 0.0
C1225 C 0.59581 0.86715 0.30286 0.0
C1226 C 0.64898 0.82525 0.32351 0.0
C1227 C 0.66376 0.80307 0.3091 0.0
C1228 C 0.69105 0.81151 0.29353 0.0
C1229 C 0.70424 0.84246 0.2939 0.0
C1230 C 0.68908 0.86492 0.30818 0.0
H1231 H 0.57632 0.87982 0.29405 0.0
H1232 H 0.61256 0.86437 0.28548 0.0
H1233 H 0.58586 0.84372 0.3101 0.0
H1234 H 0.62787 0.81805 0.33515 0.0
H1235 H 0.65344 0.77924 0.30973 0.0
H1236 H 0.81264 0.22741 0.33678 0.0
H1237 H 0.84486 0.20489 0.37414 0.0
H1238 H 0.91062 0.18331 0.31049 0.0
H1239 H 0.87918 0.20638 0.27334 0.0
H1240 H 0.86177 0.14701 0.38139 0.0
H1241 H 0.96843 0.22748 0.36751 0.0
H1242 H 0.93145 0.23496 0.35127 0.0
H1243 H 0.95606 0.20908 0.33484 0.0
C1244 C 0.83395 0.21783 0.33078 0.0
C1245 C 0.8435 0.21893 0.30214 0.0
C1246 C 0.85241 0.20512 0.35214 0.0
C1247 C 0.88062 0.19323 0.3452 0.0
C1248 C 0.88957 0.19336 0.31651 0.0
H1249 H 0.99188 0.06502 0.43035 0.0
H1250 H 0.97043 0.10109 0.39606 0.0
C1251 C 0.87137 0.20631 0.29524 0.0
C1252 C 0.90003 0.17931 0.36767 0.0
H1253 H 0.97444 0.18042 0.3947 0.0
C1254 C 0.88628 0.15462 0.38454 0.0
C1255 C 0.93206 0.1893 0.37182 0.0
C1256 C 0.94779 0.21687 0.35559 0.0
C1257 C 0.90389 0.13902 0.40476 0.0
C1258 C 0.93602 0.14834 0.40816 0.0
C1259 C 0.94978 0.17335 0.39182 0.0
C1260 C 0.95548 0.13138 0.42821 0.0
C1261 C 0.88829 0.11216 0.42205 0.0
C1262 C 0.95542 0.13745 0.45748 0.0
C1263 C 0.96813 0.11711 0.47716 0.0
C1264 C 0.98099 0.09038 0.46781 0.0
C1265 C 0.98304 0.08578 0.43827 0.0
C1266 C 0.97044 0.10619 0.41862 0.0
H1267 H 0.86327 0.10712 0.41613 0.0
H1268 H 0.90048 0.09095 0.41889 0.0
H1269 H 0.88999 0.11749 0.44513 0.0
H1270 H 0.94381 0.1568 0.46517 0.0
H1271 H 0.96611 0.12124 0.49977 0.0
H1272 H 0.71721 0.20997 0.21116 0.0
H1273 H 0.69386 0.17604 0.17405 0.0
H1274 H 0.67691 0.10188 0.2367 0.0
H1275 H 0.70097 0.13558 0.27377 0.0
H1276 H 0.7005 0.10995 0.15506 0.0
H1277 H 0.58849 0.12798 0.20737 0.0
H1278 H 0.62393 0.15279 0.21355 0.0
H1279 H 0.61888 0.11484 0.23022 0.0
C1280 C 0.71058 0.18583 0.21669 0.0
C1281 C 0.71187 0.17519 0.24531 0.0
C1282 C 0.69652 0.1666 0.19552 0.0
C1283 C 0.6831 0.13662 0.20272 0.0
C1284 C 0.68684 0.12504 0.23072 0.0
H1285 H 0.59763 0.99291 0.09501 0.0
H1286 H 0.62028 0.02204 0.13554 0.0
C1287 C 0.70106 0.14416 0.25181 0.0
C1288 C 0.66237 0.11882 0.18194 0.0
H1289 H 0.58577 0.09394 0.1684 0.0
C1290 C 0.67545 0.10644 0.15797 0.0
C1291 C 0.62957 0.11462 0.18555 0.0
C1292 C 0.61419 0.1284 0.21041 0.0
C1293 C 0.6567 0.08939 0.13787 0.0
C1294 C 0.62398 0.08454 0.14184 0.0
C1295 C 0.61081 0.09748 0.16548 0.0
C1296 C 0.60355 0.06567 0.12158 0.0
C1297 C 0.67198 0.07671 0.11238 0.0
C1298 C 0.58451 0.07996 0.10145 0.0
C1299 C 0.57097 0.06307 0.0784 0.0
C1300 C 0.57637 0.03174 0.07529 0.0
C1301 C 0.59257 0.01685 0.09718 0.0
C1302 C 0.60597 0.03361 0.12012 0.0
H1303 H 0.69628 0.0873 0.10953 0.0
H1304 H 0.67266 0.05122 0.1154 0.0
H1305 H 0.65835 0.08087 0.09254 0.0
H1306 H 0.58225 0.10469 0.10225 0.0
H1307 H 0.55934 0.07535 0.06148 0.0
H1308 H 0.68159 0.77248 0.81193 0.0
H1309 H 0.63953 0.788 0.84194 0.0
H1310 H 0.70438 0.85629 0.88179 0.0
H1311 H 0.7463 0.84039 0.85272 0.0
H1312 H 0.66407 0.83067 0.91998 0.0
H1313 H 0.59906 0.86719 0.82324 0.0
H1314 H 0.60561 0.82673 0.82538 0.0
H1315 H 0.63819 0.8556 0.82163 0.0
C1316 C 0.68706 0.7901 0.82773 0.0
C1317 C 0.71734 0.80535 0.82971 0.0
C1318 C 0.66284 0.79935 0.84456 0.0
C1319 C 0.66846 0.82406 0.86359 0.0
C1320 C 0.69921 0.83744 0.86713 0.0
H1321 H 0.56751 0.96933 0.9216 0.0
H1322 H 0.59111 0.93093 0.89347 0.0
C1323 C 0.72327 0.82824 0.85046 0.0
C1324 C 0.64267 0.83759 0.8788 0.0
H1325 H 0.57839 0.87784 0.86769 0.0
C1326 C 0.64507 0.84061 0.90859 0.0
C1327 C 0.6181 0.85109 0.86393 0.0
C1328 C 0.61508 0.85032 0.83177 0.0
C1329 C 0.62456 0.85761 0.92374 0.0
C1330 C 0.59995 0.87117 0.90889 0.0
C1331 C 0.59689 0.86721 0.87921 0.0
C1332 C 0.57967 0.89247 0.92317 0.0
C1333 C 0.63087 0.86249 0.95521 0.0
C1334 C 0.56342 0.88348 0.94839 0.0
C1335 C 0.55008 0.90564 0.96464 0.0
C1336 C 0.55176 0.93692 0.95543 0.0
C1337 C 0.56513 0.94521 0.92881 0.0
C1338 C 0.57895 0.92325 0.91285 0.0
H1339 H 0.6548 0.85713 0.96162 0.0
H1340 H 0.62806 0.88685 0.96094 0.0
H1341 H 0.61412 0.84683 0.96785 0.0
H1342 H 0.5627 0.85973 0.95645 0.0
H1343 H 0.54052 0.89878 0.98538 0.0
H1344 H 0.99393 0.99143 0.61516 0.0
H1345 H 0.97901 0.94492 0.6445 0.0
H1346 H 0.95466 0.89365 0.56832 0.0
H1347 H 0.96987 0.94015 0.53897 0.0
H1348 H 0.90494 0.89999 0.60474 0.0
H1349 H 1.0036 0.85647 0.66528 0.0
H1350 H 1.00235 0.89761 0.66881 0.0
H1351 H 0.00904 0.88219 0.63432 0.0
C1352 C 0.98725 0.96972 0.60466 0.0
C1353 C 0.98385 0.9692 0.57479 0.0
C1354 C 0.97855 0.94311 0.62145 0.0
C1355 C 0.96578 0.91564 0.60867 0.0
C1356 C 0.96473 0.91442 0.57868 0.0
H1357 H 0.81942 0.79646 0.69762 0.0
H1358 H 0.8602 0.80743 0.66196 0.0
C1359 C 0.97374 0.94096 0.56188 0.0
C1360 C 0.94776 0.89127 0.6264 0.0
H1361 H 0.9522 0.84489 0.68631 0.0
C1362 C 0.91531 0.88731 0.62218 0.0
C1363 C 0.96127 0.87504 0.64932 0.0
C1364 C 0.99604 0.87781 0.65455 0.0
C1365 C 0.89573 0.86949 0.64136 0.0
C1366 C 0.90906 0.85393 0.665 0.0
C1367 C 0.9418 0.85652 0.66824 0.0
C1368 C 0.8893 0.83895 0.68852 0.0
C1369 C 0.86086 0.86977 0.6372 0.0
C1370 C 0.89366 0.84992 0.71642 0.0
C1371 C 0.87118 0.84214 0.7373 0.0
C1372 C 0.84371 0.82334 0.73082 0.0
C1373 C 0.84073 0.80992 0.70377 0.0
C1374 C 0.86372 0.81709 0.683 0.0
H1375 H 0.85476 0.88845 0.62194 0.0
H1376 H 0.85117 0.84725 0.62842 0.0
H1377 H 0.84928 0.87317 0.65779 0.0
H1378 H 0.91317 0.8666 0.7215 0.0
H1379 H 0.87396 0.85317 0.75784 0.0
H1380 H 0.22502 0.78605 0.86543 0.0
H1381 H 0.1983 0.82483 0.89044 0.0
H1382 H 0.20036 0.8827 0.81397 0.0
H1383 H 0.22856 0.84456 0.7893 0.0
H1384 H 0.20223 0.9183 0.86159 0.0
H1385 H 0.10685 0.82375 0.87148 0.0
H1386 H 0.14199 0.81415 0.88928 0.0
H1387 H 0.14133 0.81982 0.85101 0.0
C1388 C 0.22095 0.80765 0.85433 0.0
C1389 C 0.22885 0.81219 0.82538 0.0
C1390 C 0.20522 0.82964 0.86851 0.0
C1391 C 0.19611 0.8562 0.85381 0.0
C1392 C 0.20673 0.86227 0.82575 0.0
H1393 H 0.02644 0.93349 0.90577 0.0
H1394 H 0.06705 0.91257 0.87784 0.0
C1395 C 0.22312 0.84053 0.8117 0.0
C1396 C 0.17286 0.87549 0.86657 0.0
H1397 H 0.10004 0.87002 0.89556 0.0
C1398 C 0.17983 0.90779 0.86894 0.0
C1399 C 0.14317 0.86208 0.87552 0.0
C1400 C 0.1327 0.82813 0.87144 0.0
C1401 C 0.15833 0.92675 0.88059 0.0
C1402 C 0.12924 0.91299 0.89079 0.0
C1403 C 0.12224 0.88079 0.88795 0.0
C1404 C 0.10552 0.93097 0.90465 0.0
C1405 C 0.1668 0.96137 0.8812 0.0
C1406 C 0.11336 0.94941 0.92853 0.0
C1407 C 0.09008 0.96209 0.94407 0.0
C1408 C 0.05841 0.95623 0.93638 0.0
C1409 C 0.05067 0.93884 0.91192 0.0
C1410 C 0.07393 0.92665 0.89609 0.0
H1411 H 0.18395 0.96911 0.86438 0.0
H1412 H 0.14591 0.97446 0.87816 0.0
H1413 H 0.17773 0.96742 0.9022 0.0
H1414 H 0.13723 0.95247 0.93628 0.0
H1415 H 0.09669 0.97444 0.96341 0.0
H1416 H 0.97676 0.43213 0.57137 0.0
H1417 H 0.95196 0.3852 0.59548 0.0
H1418 H 0.86525 0.3985 0.55145 0.0
H1419 H 0.88942 0.44499 0.52763 0.0
H1420 H 0.89962 0.38687 0.6307 0.0
H1421 H 0.87452 0.30477 0.54267 0.0
H1422 H 0.90369 0.33755 0.5403 0.0
H1423 H 0.86314 0.34296 0.53424 0.0
C1424 C 0.95249 0.42485 0.56676 0.0
C1425 C 0.93491 0.44245 0.54798 0.0
C1426 C 0.93847 0.39802 0.58033 0.0
C1427 C 0.907 0.38821 0.57473 0.0
C1428 C 0.88973 0.40536 0.55553 0.0
H1429 H 0.78269 0.29952 0.6963 0.0
H1430 H 0.79884 0.3289 0.65311 0.0
C1431 C 0.9035 0.43222 0.54232 0.0
C1432 C 0.89067 0.36255 0.59146 0.0
H1433 H 0.84371 0.29496 0.58506 0.0
C1434 C 0.88768 0.36659 0.62082 0.0
C1435 C 0.87539 0.33609 0.57841 0.0
C1436 C 0.87957 0.32986 0.54721 0.0
C1437 C 0.86879 0.34541 0.63744 0.0
C1438 C 0.85176 0.31999 0.62408 0.0
C1439 C 0.85587 0.31512 0.59492 0.0
C1440 C 0.83207 0.29697 0.64113 0.0
C1441 C 0.86753 0.35035 0.66925 0.0
C1442 C 0.84248 0.26759 0.64641 0.0
C1443 C 0.83252 0.25048 0.67071 0.0
C1444 C 0.81252 0.2629 0.69005 0.0
C1445 C 0.79802 0.28952 0.68195 0.0
C1446 C 0.80761 0.30648 0.65735 0.0
H1447 H 0.88723 0.36666 0.67679 0.0
H1448 H 0.84547 0.36039 0.6743 0.0
H1449 H 0.86816 0.32801 0.68142 0.0
H1450 H 0.86103 0.25964 0.63385 0.0
H1451 H 0.84365 0.22958 0.67626 0.0
H1452 H 0.40888 0.05564 0.44042 0.0
H1453 H 0.39469 0.10146 0.41381 0.0
H1454 H 0.48687 0.14686 0.42821 0.0
H1455 H 0.50162 0.10052 0.45472 0.0
H1456 H 0.39625 0.1631 0.43544 0.0
H1457 H 0.47225 0.15593 0.34065 0.0
H1458 H 0.46406 0.12283 0.36454 0.0
H1459 H 0.48922 0.15564 0.37606 0.0
C1460 C 0.42627 0.07523 0.43784 0.0
C1461 C 0.45636 0.07444 0.44967 0.0
C1462 C 0.41808 0.10146 0.42272 0.0
C1463 C 0.43969 0.12754 0.41919 0.0
C1464 C 0.46996 0.12685 0.43056 0.0
H1465 H 0.32811 0.25858 0.32314 0.0
H1466 H 0.37051 0.24879 0.35713 0.0
C1467 C 0.47832 0.10036 0.4456 0.0
C1468 C 0.42962 0.15494 0.4033 0.0
H1469 H 0.42969 0.18581 0.33562 0.0
C1470 C 0.40415 0.16902 0.41391 0.0
C1471 C 0.44039 0.16278 0.37545 0.0
C1472 C 0.46794 0.14859 0.36328 0.0
C1473 C 0.38672 0.18774 0.39618 0.0
C1474 C 0.39539 0.19266 0.36731 0.0
C1475 C 0.42315 0.18182 0.3578 0.0
C1476 C 0.37218 0.20082 0.3455 0.0
C1477 C 0.35724 0.19914 0.40747 0.0
C1478 C 0.35954 0.17725 0.32765 0.0
C1479 C 0.33553 0.18261 0.30855 0.0
C1480 C 0.32352 0.21179 0.30674 0.0
C1481 C 0.33672 0.23579 0.32417 0.0
C1482 C 0.36092 0.23029 0.34353 0.0
H1483 H 0.35361 0.19281 0.43041 0.0
H1484 H 0.35829 0.22481 0.40494 0.0
H1485 H 0.33674 0.18914 0.39501 0.0
H1486 H 0.36779 0.15428 0.32901 0.0
H1487 H 0.32628 0.16363 0.29532 0.0
H1488 H 0.64763 0.53636 0.01639 0.0
H1489 H 0.68323 0.57429 0.04116 0.0
H1490 H 0.60534 0.60955 0.08251 0.0
H1491 H 0.56925 0.5718 0.05771 0.0
H1492 H 0.67797 0.64613 0.04155 0.0
H1493 H 0.67244 0.58225 0.14634 0.0
H1494 H 0.66426 0.56314 0.11279 0.0
H1495 H 0.63587 0.58574 0.12786 0.0
C1496 C 0.63792 0.55208 0.03079 0.0
C1497 C 0.60545 0.55087 0.03513 0.0
C1498 C 0.65838 0.57384 0.04479 0.0
C1499 C 0.64685 0.59461 0.06357 0.0
C1500 C 0.61459 0.59357 0.06806 0.0
H1501 H 0.68674 0.75415 0.15143 0.0
H1502 H 0.68347 0.72087 0.11025 0.0
C1503 C 0.59403 0.57194 0.05393 0.0
C1504 C 0.66852 0.61705 0.07904 0.0
H1505 H 0.69556 0.63401 0.14604 0.0
C1506 C 0.68229 0.64339 0.06433 0.0
C1507 C 0.67458 0.61298 0.10852 0.0
C1508 C 0.66126 0.58442 0.12491 0.0
C1509 C 0.70051 0.66683 0.07888 0.0
C1510 C 0.70478 0.6638 0.10883 0.0
C1511 C 0.69255 0.63641 0.12306 0.0
C1512 C 0.71692 0.69019 0.12679 0.0
C1513 C 0.71433 0.69489 0.06214 0.0
C1514 C 0.73861 0.68559 0.14895 0.0
C1515 C 0.74043 0.7048 0.17268 0.0
C1516 C 0.72053 0.72865 0.17443 0.0
C1517 C 0.70261 0.73612 0.15036 0.0
C1518 C 0.70069 0.71695 0.12673 0.0
H1519 H 0.72006 0.68856 0.04008 0.0
H1520 H 0.69692 0.71231 0.06038 0.0
H1521 H 0.73576 0.70577 0.07265 0.0
H1522 H 0.75137 0.66509 0.14947 0.0
H1523 H 0.75382 0.69802 0.19118 0.0
H1524 H 0.23706 0.19263 0.70496 0.0
H1525 H 0.23352 0.15114 0.67025 0.0
H1526 H 0.19666 0.21317 0.60732 0.0
H1527 H 0.20103 0.25477 0.6418 0.0
H1528 H 0.17396 0.1335 0.65481 0.0
H1529 H 0.24286 0.15797 0.55686 0.0
H1530 H 0.25317 0.17646 0.59035 0.0
H1531 H 0.22386 0.19118 0.56716 0.0
C1532 C 0.23052 0.19806 0.6831 0.0
C1533 C 0.22002 0.22707 0.67577 0.0
C1534 C 0.228 0.17416 0.66336 0.0
C1535 C 0.21483 0.179 0.63614 0.0
C1536 C 0.2075 0.20898 0.62792 0.0
H1537 H 0.0688 0.0732 0.54938 0.0
H1538 H 0.10334 0.10788 0.57859 0.0
C1539 C 0.21002 0.23282 0.64765 0.0
C1540 C 0.20174 0.15213 0.61932 0.0
H1541 H 0.19416 0.12531 0.55134 0.0
C1542 C 0.17895 0.13128 0.63234 0.0
C1543 C 0.2082 0.14914 0.59004 0.0
C1544 C 0.23361 0.16971 0.57536 0.0
C1545 C 0.16124 0.10871 0.61654 0.0
C1546 C 0.16602 0.1073 0.5868 0.0
C1547 C 0.19012 0.12681 0.57407 0.0
C1548 C 0.14535 0.08658 0.5685 0.0
C1549 C 0.13712 0.08701 0.63182 0.0
C1550 C 0.15764 0.06368 0.55249 0.0
C1551 C 0.13797 0.04392 0.53557 0.0
C1552 C 0.10561 0.04676 0.53428 0.0
C1553 C 0.09349 0.07007 0.55009 0.0
C1554 C 0.1132 0.08987 0.56689 0.0
H1555 H 0.1428 0.08465 0.65496 0.0
H1556 H 0.11406 0.09652 0.62983 0.0
H1557 H 0.13513 0.06355 0.62242 0.0
H1558 H 0.1824 0.06087 0.55334 0.0
H1559 H 0.14817 0.02629 0.52366 0.0
H1560 H 0.71817 0.28908 0.36585 0.0
H1561 H 0.69281 0.3308 0.38774 0.0
H1562 H 0.70994 0.38845 0.31212 0.0
H1563 H 0.73615 0.34688 0.29029 0.0
H1564 H 0.71173 0.42306 0.36387 0.0
H1565 H 0.60501 0.34157 0.35582 0.0
H1566 H 0.6358 0.3258 0.37615 0.0
H1567 H 0.64094 0.33475 0.33865 0.0
C1568 C 0.7176 0.31105 0.35427 0.0
C1569 C 0.72903 0.31452 0.32624 0.0
C1570 C 0.70278 0.33482 0.3667 0.0
C1571 C 0.69854 0.36245 0.35127 0.0
C1572 C 0.71263 0.36725 0.32438 0.0
H1573 H 0.53734 0.46011 0.39545 0.0
H1574 H 0.57715 0.43802 0.36723 0.0
C1575 C 0.72787 0.34351 0.31199 0.0
C1576 C 0.67659 0.38439 0.36192 0.0
H1577 H 0.60091 0.38705 0.38224 0.0
C1578 C 0.68745 0.41529 0.36773 0.0
C1579 C 0.64463 0.37461 0.36631 0.0
C1580 C 0.63076 0.34248 0.35865 0.0
C1581 C 0.66752 0.4362 0.37885 0.0
C1582 C 0.63597 0.42582 0.38472 0.0
C1583 C 0.62501 0.39521 0.37795 0.0
C1584 C 0.614 0.4454 0.39903 0.0
C1585 C 0.68046 0.46925 0.38389 0.0
C1586 C 0.62144 0.45802 0.42594 0.0
C1587 C 0.59879 0.47118 0.44181 0.0
C1588 C 0.56813 0.47205 0.4312 0.0
C1589 C 0.561 0.46068 0.40379 0.0
C1590 C 0.58372 0.44775 0.38779 0.0
H1591 H 0.70033 0.47632 0.36953 0.0
H1592 H 0.66233 0.48574 0.38053 0.0
H1593 H 0.68927 0.47113 0.40624 0.0
H1594 H 0.64409 0.45566 0.4357 0.0
H1595 H 0.60458 0.47804 0.46347 0.0
H1596 H 0.46098 0.97677 0.10017 0.0
H1597 H 0.43084 0.93868 0.13088 0.0
H1598 H 0.42486 0.87319 0.06249 0.0
H1599 H 0.45522 0.91126 0.03185 0.0
H1600 H 0.36641 0.89774 0.08205 0.0
H1601 H 0.43798 0.85033 0.17018 0.0
H1602 H 0.44477 0.89123 0.16162 0.0
H1603 H 0.45446 0.86341 0.13618 0.0
C1604 C 0.45467 0.9536 0.09238 0.0
C1605 C 0.46044 0.9465 0.06402 0.0
C1606 C 0.4374 0.93198 0.10979 0.0
C1607 C 0.42567 0.90334 0.09876 0.0
C1608 C 0.43397 0.8952 0.07127 0.0
H1609 H 0.28878 0.75943 0.14597 0.0
H1610 H 0.31494 0.80277 0.11849 0.0
C1611 C 0.45144 0.91674 0.05394 0.0
C1612 C 0.40022 0.88485 0.1136 0.0
H1613 H 0.38339 0.83941 0.17263 0.0
C1614 C 0.37 0.88484 0.10184 0.0
C1615 C 0.40517 0.86876 0.13954 0.0
C1616 C 0.43734 0.86814 0.15269 0.0
C1617 C 0.34435 0.86891 0.11547 0.0
C1618 C 0.34934 0.85223 0.14116 0.0
C1619 C 0.37961 0.85256 0.15303 0.0
C1620 C 0.32435 0.83197 0.15513 0.0
C1621 C 0.3122 0.8703 0.10249 0.0
C1622 C 0.31952 0.8348 0.18444 0.0
C1623 C 0.30514 0.80988 0.20012 0.0
C1624 C 0.29449 0.78227 0.18652 0.0
C1625 C 0.29594 0.7809 0.15669 0.0
C1626 C 0.3109 0.80567 0.14102 0.0
H1627 H 0.31094 0.89137 0.08855 0.0
H1628 H 0.30658 0.84966 0.0891 0.0
H1629 H 0.2942 0.87021 0.11927 0.0
H1630 H 0.33004 0.85481 0.1957 0.0
H1631 H 0.30615 0.81089 0.22321 0.0
H1632 H 0.99804 0.6168 0.97382 0.0
H1633 H 0.98312 0.66255 0.94613 0.0
H1634 H 0.94176 0.60226 0.88112 0.0
H1635 H 0.95585 0.55685 0.90888 0.0
H1636 H 0.97764 0.66558 0.86276 0.0
H1637 H 0.88286 0.66709 0.94283 0.0
H1638 H 0.92297 0.6662 0.95432 0.0
H1639 H 0.90281 0.63255 0.93862 0.0
C1640 C 0.98678 0.61358 0.95312 0.0
C1641 C 0.97795 0.58354 0.94332 0.0
C1642 C 0.9782 0.63959 0.93745 0.0
C1643 C 0.96128 0.6356 0.91174 0.0
C1644 C 0.95493 0.60572 0.90089 0.0
H1645 H 0.83989 0.66881 0.78673 0.0
H1646 H 0.88342 0.65952 0.81861 0.0
C1647 C 0.96292 0.57985 0.9167 0.0
C1648 C 0.94572 0.66117 0.89792 0.0
H1649 H 0.87469 0.69033 0.89784 0.0
C1650 C 0.95565 0.672 0.87079 0.0
C1651 C 0.91713 0.66955 0.90858 0.0
C1652 C 0.90558 0.65836 0.93768 0.0
C1653 C 0.93634 0.68873 0.85298 0.0
C1654 C 0.90627 0.69403 0.86244 0.0
C1655 C 0.89773 0.68605 0.89065 0.0
C1656 C 0.8815 0.70184 0.84204 0.0
C1657 C 0.94739 0.69885 0.82349 0.0
C1658 C 0.86555 0.72844 0.84509 0.0
C1659 C 0.84048 0.73387 0.82679 0.0
C1660 C 0.83065 0.71237 0.80565 0.0
C1661 C 0.8467 0.68574 0.80286 0.0
C1662 C 0.87186 0.68058 0.82084 0.0
H1663 H 0.97325 0.70291 0.82298 0.0
H1664 H 0.94009 0.68023 0.80824 0.0
H1665 H 0.93716 0.72042 0.81617 0.0
H1666 H 0.87239 0.74483 0.86169 0.0
H1667 H 0.8285 0.75457 0.8295 0.0
H1668 H 0.49247 0.49105 0.11902 0.0
H1669 H 0.47611 0.44404 0.14713 0.0
H1670 H 0.45207 0.39531 0.06952 0.0
H1671 H 0.46877 0.4423 0.04139 0.0
H1672 H 0.4017 0.40308 0.106 0.0
H1673 H 0.49762 0.35404 0.16717 0.0
H1674 H 0.49911 0.39575 0.16721 0.0
H1675 H 0.50386 0.3764 0.13422 0.0
C1676 C 0.48559 0.46975 0.10794 0.0
C1677 C 0.48265 0.47015 0.07802 0.0
C1678 C 0.47606 0.44285 0.12404 0.0
C1679 C 0.46293 0.41599 0.1105 0.0
C1680 C 0.46243 0.41558 0.08046 0.0
H1681 H 0.31267 0.29614 0.19395 0.0
H1682 H 0.35446 0.3084 0.15931 0.0
C1683 C 0.4723 0.4424 0.06436 0.0
C1684 C 0.44383 0.39169 0.12743 0.0
H1685 H 0.44588 0.34267 0.18581 0.0
C1686 C 0.41138 0.38925 0.12303 0.0
C1687 C 0.45646 0.37394 0.14979 0.0
C1688 C 0.49121 0.37486 0.15481 0.0
C1689 C 0.39104 0.37132 0.14149 0.0
C1690 C 0.40351 0.35426 0.16461 0.0
C1691 C 0.43618 0.35548 0.16811 0.0
C1692 C 0.38294 0.33882 0.18733 0.0
C1693 C 0.35634 0.37288 0.13718 0.0
C1694 C 0.38642 0.34905 0.21553 0.0
C1695 C 0.36319 0.3409 0.23566 0.0
C1696 C 0.33596 0.32227 0.22814 0.0
C1697 C 0.33378 0.30961 0.20076 0.0
C1698 C 0.35738 0.31735 0.18067 0.0
H1699 H 0.35101 0.39229 0.12241 0.0
H1700 H 0.34601 0.35092 0.12777 0.0
H1701 H 0.34476 0.37596 0.15784 0.0
H1702 H 0.40586 0.36547 0.22141 0.0
H1703 H 0.36526 0.35144 0.25646 0.0
H1704 H 0.48545 0.56402 0.93475 0.0
H1705 H 0.46224 0.59833 0.90013 0.0
H1706 H 0.43896 0.65735 0.9681 0.0
H1707 H 0.46339 0.62361 0.00299 0.0
H1708 H 0.39801 0.60632 0.90464 0.0
H1709 H 0.47098 0.71943 0.90369 0.0
H1710 H 0.48568 0.68359 0.91625 0.0
H1711 H 0.46024 0.70314 0.93829 0.0
C1712 C 0.47696 0.58515 0.94227 0.0
C1713 C 0.47685 0.5914 0.97161 0.0
C1714 C 0.46321 0.60449 0.92246 0.0
C1715 C 0.44894 0.63035 0.93157 0.0
C1716 C 0.45024 0.63772 0.96061 0.0
H1717 H 0.30246 0.71356 0.83107 0.0
H1718 H 0.33076 0.68864 0.86985 0.0
C1719 C 0.46415 0.6184 0.9805 0.0
C1720 C 0.42961 0.64719 0.91114 0.0
H1721 H 0.42363 0.71719 0.87716 0.0
C1722 C 0.40354 0.63059 0.89864 0.0
C1723 C 0.43693 0.6788 0.90351 0.0
C1724 C 0.46509 0.69736 0.91592 0.0
C1725 C 0.3848 0.64465 0.87827 0.0
C1726 C 0.39213 0.67626 0.87055 0.0
C1727 C 0.41798 0.693 0.88334 0.0
C1728 C 0.37473 0.6917 0.84762 0.0
C1729 C 0.35794 0.6253 0.86451 0.0
C1730 C 0.39019 0.70192 0.82252 0.0
C1731 C 0.37422 0.71615 0.80045 0.0
C1732 C 0.34237 0.72057 0.80301 0.0
C1733 C 0.32688 0.71031 0.82828 0.0
C1734 C 0.34299 0.69606 0.85045 0.0
H1735 H 0.35921 0.60003 0.86873 0.0
H1736 H 0.33565 0.63181 0.87321 0.0
H1737 H 0.35748 0.62967 0.84102 0.0
H1738 H 0.41466 0.69868 0.81992 0.0
H1739 H 0.38698 0.72371 0.78136 0.0
H1740 H 0.05605 0.56736 0.55701 0.0
H1741 H 0.0819 0.60346 0.59166 0.0
H1742 H 0.10006 0.52603 0.64726 0.0
H1743 H 0.07435 0.49013 0.61293 0.0
H1744 H 0.07919 0.60564 0.66323 0.0
H1745 H 0.18727 0.57497 0.6108 0.0
H1746 H 0.14998 0.57312 0.59233 0.0
H1747 H 0.15747 0.54406 0.61893 0.0
C1748 C 0.06382 0.55821 0.5774 0.0
C1749 C 0.06274 0.52589 0.58243 0.0
C1750 C 0.07912 0.57883 0.59699 0.0
C1751 C 0.09339 0.56736 0.62183 0.0
C1752 C 0.08937 0.53539 0.62821 0.0
H1753 H 0.19805 0.63697 0.76749 0.0
H1754 H 0.1719 0.60486 0.73039 0.0
C1755 C 0.0742 0.5149 0.60873 0.0
C1756 C 0.11563 0.58776 0.63936 0.0
H1757 H 0.19383 0.60524 0.65223 0.0
C1758 C 0.10421 0.60581 0.66065 0.0
C1759 C 0.14834 0.58797 0.63599 0.0
C1760 C 0.16174 0.56917 0.61322 0.0
C1761 C 0.12468 0.62345 0.67907 0.0
C1762 C 0.15739 0.62296 0.67623 0.0
C1763 C 0.16881 0.60556 0.65445 0.0
C1764 C 0.17965 0.63958 0.6966 0.0
C1765 C 0.11127 0.64226 0.70183 0.0
C1766 C 0.1946 0.66901 0.68952 0.0
C1767 C 0.21002 0.68734 0.71075 0.0
C1768 C 0.21077 0.67643 0.73933 0.0
C1769 C 0.19851 0.64575 0.74558 0.0
C1770 C 0.18311 0.62753 0.72446 0.0
H1771 H 0.08581 0.64384 0.69871 0.0
H1772 H 0.11517 0.63124 0.72311 0.0
H1773 H 0.12327 0.66613 0.70195 0.0
H1774 H 0.19221 0.67878 0.66814 0.0
H1775 H 0.21815 0.7112 0.70536 0.0
H1776 H 0.35609 0.35741 0.71351 0.0
H1777 H 0.36663 0.39685 0.676 0.0
H1778 H 0.28092 0.36488 0.63278 0.0
H1779 H 0.27007 0.32501 0.67053 0.0
H1780 H 0.33379 0.36496 0.59969 0.0
H1781 H 0.33277 0.47877 0.65049 0.0
H1782 H 0.35471 0.45263 0.67122 0.0
H1783 H 0.31342 0.44341 0.66579 0.0
C1784 C 0.33915 0.35902 0.69631 0.0
C1785 C 0.31238 0.33783 0.69487 0.0
C1786 C 0.34502 0.38192 0.67505 0.0
C1787 C 0.32432 0.3842 0.65182 0.0
C1788 C 0.29698 0.36381 0.65075 0.0
H1789 H 0.40349 0.45827 0.49074 0.0
H1790 H 0.36008 0.44928 0.52426 0.0
C1791 C 0.29087 0.34099 0.67227 0.0
C1792 C 0.33414 0.40436 0.62685 0.0
H1793 H 0.36626 0.47742 0.60913 0.0
C1794 C 0.34003 0.38975 0.60134 0.0
C1795 C 0.34235 0.43665 0.62919 0.0
C1796 C 0.33519 0.45384 0.65559 0.0
C1797 C 0.35653 0.40584 0.5791 0.0
C1798 C 0.36653 0.43783 0.58209 0.0
C1799 C 0.35856 0.45299 0.60679 0.0
C1800 C 0.38947 0.45402 0.56212 0.0
C1801 C 0.36545 0.38763 0.55378 0.0
C1802 C 0.41976 0.46292 0.57229 0.0
C1803 C 0.4443 0.46902 0.55317 0.0
C1804 C 0.43883 0.46636 0.52369 0.0
C1805 C 0.40808 0.46093 0.51341 0.0
C1806 C 0.3834 0.45539 0.53255 0.0
H1807 H 0.36059 0.36214 0.55735 0.0
H1808 H 0.35183 0.39438 0.53467 0.0
H1809 H 0.39065 0.39265 0.54908 0.0
H1810 H 0.42501 0.46219 0.595 0.0
H1811 H 0.46794 0.47252 0.56155 0.0
H1812 H 0.12341 0.73417 0.24047 0.0
H1813 H 0.09047 0.70355 0.20604 0.0
H1814 H 0.17074 0.69669 0.15318 0.0
H1815 H 0.20369 0.72603 0.18769 0.0
H1816 H 0.07744 0.71202 0.14784 0.0
H1817 H 0.13972 0.60655 0.16644 0.0
H1818 H 0.14482 0.63936 0.1897 0.0
H1819 H 0.16581 0.63968 0.15664 0.0
C1820 C 0.13392 0.72598 0.22152 0.0
C1821 C 0.16618 0.73186 0.21703 0.0
C1822 C 0.11512 0.70863 0.20188 0.0
C1823 C 0.12833 0.69726 0.17742 0.0
C1824 C 0.16025 0.70441 0.17235 0.0
H1825 H 0.08259 0.62815 0.01734 0.0
H1826 H 0.08408 0.66228 0.05837 0.0
C1827 C 0.17905 0.72118 0.1921 0.0
C1828 C 0.10929 0.67728 0.1573 0.0
H1829 H 0.10878 0.60829 0.12355 0.0
C1830 C 0.08389 0.68911 0.14282 0.0
C1831 C 0.11739 0.64717 0.15115 0.0
C1832 C 0.14322 0.63232 0.16703 0.0
C1833 C 0.06763 0.67225 0.12107 0.0
C1834 C 0.07724 0.64315 0.11368 0.0
C1835 C 0.10145 0.63068 0.12926 0.0
C1836 C 0.06533 0.62637 0.08805 0.0
C1837 C 0.0407 0.68572 0.10578 0.0
C1838 C 0.05294 0.59529 0.09087 0.0
C1839 C 0.05202 0.57587 0.06742 0.0
C1840 C 0.06329 0.58736 0.04088 0.0
C1841 C 0.07291 0.61909 0.03744 0.0
C1842 C 0.07374 0.63857 0.06088 0.0
H1843 H 0.03151 0.70441 0.11819 0.0
H1844 H 0.04865 0.69577 0.08479 0.0
H1845 H 0.0215 0.66731 0.10176 0.0
H1846 H 0.04681 0.58535 0.11175 0.0
H1847 H 0.04582 0.55121 0.0709 0.0
H1848 H 0.73681 0.32205 0.67726 0.0
H1849 H 0.71836 0.35925 0.64244 0.0
H1850 H 0.71227 0.42551 0.70911 0.0
H1851 H 0.73012 0.38778 0.74411 0.0
H1852 H 0.65782 0.41303 0.68513 0.0
H1853 H 0.74155 0.4374 0.59765 0.0
H1854 H 0.73472 0.39633 0.60415 0.0
H1855 H 0.75276 0.42069 0.63161 0.0
C1856 C 0.73366 0.34529 0.68415 0.0
C1857 C 0.73568 0.35229 0.7133 0.0
C1858 C 0.72274 0.36659 0.66419 0.0
C1859 C 0.71392 0.39541 0.67299 0.0
C1860 C 0.71895 0.40353 0.7017 0.0
H1861 H 0.58499 0.5081 0.57289 0.0
H1862 H 0.62643 0.49623 0.60722 0.0
C1863 C 0.72957 0.38212 0.72167 0.0
C1864 C 0.69423 0.41397 0.65383 0.0
H1865 H 0.68666 0.44103 0.58499 0.0
C1866 C 0.66457 0.41994 0.6635 0.0
C1867 C 0.70275 0.42299 0.6255 0.0
C1868 C 0.73484 0.41929 0.61426 0.0
C1869 C 0.64271 0.43282 0.64521 0.0
C1870 C 0.65058 0.43995 0.61647 0.0
C1871 C 0.68066 0.43546 0.60707 0.0
C1872 C 0.62659 0.44823 0.59522 0.0
C1873 C 0.61059 0.43703 0.65616 0.0
C1874 C 0.61306 0.42522 0.57724 0.0
C1875 C 0.58934 0.43174 0.55796 0.0
C1876 C 0.57862 0.46161 0.55598 0.0
C1877 C 0.59255 0.48486 0.57385 0.0
C1878 C 0.61626 0.47816 0.59342 0.0
H1879 H 0.60796 0.43 0.67906 0.0
H1880 H 0.60585 0.46177 0.65354 0.0
H1881 H 0.59274 0.42301 0.64341 0.0
H1882 H 0.6206 0.40196 0.57839 0.0
H1883 H 0.57948 0.41321 0.54451 0.0
H1884 H 0.86535 0.7382 0.18946 0.0
H1885 H 0.8909 0.70041 0.16264 0.0
H1886 H 0.82532 0.62697 0.19539 0.0
H1887 H 0.79876 0.66541 0.22178 0.0
H1888 H 0.92025 0.65355 0.18658 0.0
H1889 H 0.82724 0.6075 0.11109 0.0
H1890 H 0.82427 0.64238 0.1309 0.0
H1891 H 0.81692 0.60489 0.14819 0.0
C1892 C 0.85605 0.71404 0.19058 0.0
C1893 C 0.83029 0.70456 0.20776 0.0
C1894 C 0.87072 0.69248 0.17533 0.0
C1895 C 0.86017 0.66088 0.17712 0.0
C1896 C 0.83363 0.65133 0.19345 0.0
H1897 H 0.93547 0.50991 0.08988 0.0
H1898 H 0.91171 0.53855 0.127 0.0
C1899 C 0.8185 0.67318 0.2085 0.0
C1900 C 0.87844 0.63832 0.16298 0.0
H1901 H 0.87527 0.58537 0.11 0.0
C1902 C 0.91037 0.63847 0.16994 0.0
C1903 C 0.8655 0.61872 0.14132 0.0
C1904 C 0.83168 0.61842 0.13218 0.0
C1905 C 0.92987 0.62003 0.15543 0.0
C1906 C 0.91706 0.60093 0.13341 0.0
C1907 C 0.88496 0.6 0.12704 0.0
C1908 C 0.93655 0.5828 0.11557 0.0
C1909 C 0.96401 0.6213 0.16362 0.0
C1910 C 0.95938 0.59802 0.09768 0.0
C1911 C 0.9732 0.58159 0.07663 0.0
C1912 C 0.96425 0.54985 0.07329 0.0
C1913 C 0.94303 0.53431 0.09244 0.0
C1914 C 0.92932 0.55065 0.11347 0.0
H1915 H 0.96829 0.62995 0.18561 0.0
H1916 H 0.9729 0.59805 0.16226 0.0
H1917 H 0.97759 0.63746 0.14865 0.0
H1918 H 0.96483 0.62295 0.09857 0.0
H1919 H 0.98865 0.59421 0.06144 0.0
H1920 H 0.9847 0.56321 0.58866 0.0
H1921 H 0.96319 0.59847 0.62221 0.0
H1922 H 0.93657 0.65649 0.55131 0.0
H1923 H 0.95857 0.62208 0.51816 0.0
H1924 H 0.95134 0.69143 0.59737 0.0
H1925 H 0.86914 0.58962 0.62811 0.0
H1926 H 0.90953 0.58529 0.63582 0.0
H1927 H 0.89629 0.58839 0.59931 0.0
C1928 C 0.97553 0.58424 0.58041 0.0
C1929 C 0.97316 0.58976 0.55075 0.0
C1930 C 0.96271 0.60413 0.59955 0.0
C1931 C 0.94724 0.62969 0.58928 0.0
C1932 C 0.94801 0.63689 0.55989 0.0
H1933 H 0.78084 0.69715 0.65319 0.0
H1934 H 0.82198 0.67745 0.62516 0.0
C1935 C 0.96077 0.61719 0.5409 0.0
C1936 C 0.9271 0.64692 0.608 0.0
H1937 H 0.86034 0.63744 0.64731 0.0
C1938 C 0.93163 0.67959 0.60857 0.0
C1939 C 0.90091 0.63165 0.62219 0.0
C1940 C 0.89338 0.59686 0.62122 0.0
C1941 C 0.91056 0.69729 0.62241 0.0
C1942 C 0.88439 0.68194 0.63649 0.0
C1943 C 0.88031 0.64929 0.63648 0.0
C1944 C 0.86012 0.69889 0.65055 0.0
C1945 C 0.91582 0.73228 0.6208 0.0
C1946 C 0.86768 0.71872 0.67351 0.0
C1947 C 0.84404 0.7305 0.68932 0.0
C1948 C 0.81238 0.72245 0.68264 0.0
C1949 C 0.80498 0.70411 0.65867 0.0
C1950 C 0.82853 0.69258 0.64278 0.0
H1951 H 0.93193 0.74046 0.60329 0.0
H1952 H 0.89345 0.74287 0.61745 0.0
H1953 H 0.9264 0.74079 0.64124 0.0
H1954 H 0.89173 0.72352 0.68039 0.0
H1955 H 0.85054 0.7437 0.70819 0.0
H1956 H 0.48111 0.60376 0.41859 0.0
H1957 H 0.43644 0.61822 0.38999 0.0
H1958 H 0.37634 0.549 0.43562 0.0
H1959 H 0.42164 0.53304 0.46294 0.0
H1960 H 0.35545 0.55298 0.38381 0.0
H1961 H 0.37723 0.67285 0.42112 0.0
H1962 H 0.41069 0.66285 0.40232 0.0
H1963 H 0.39905 0.64198 0.43492 0.0
C1964 C 0.45846 0.59118 0.42202 0.0
C1965 C 0.45474 0.5674 0.44297 0.0
C1966 C 0.43283 0.59974 0.40598 0.0
C1967 C 0.40266 0.58567 0.41145 0.0
C1968 C 0.39923 0.56055 0.43122 0.0
H1969 H 0.26828 0.70267 0.33591 0.0
H1970 H 0.28933 0.66989 0.37312 0.0
C1971 C 0.42513 0.55133 0.44673 0.0
C1972 C 0.37491 0.59809 0.39724 0.0
H1973 H 0.34467 0.66622 0.3791 0.0
C1974 C 0.3528 0.57771 0.38311 0.0
C1975 C 0.37035 0.63016 0.3973 0.0
C1976 C 0.3904 0.65309 0.41506 0.0
C1977 C 0.32759 0.58878 0.36759 0.0
C1978 C 0.32522 0.62128 0.36491 0.0
C1979 C 0.34631 0.64134 0.38053 0.0
C1980 C 0.30349 0.63553 0.34413 0.0
C1981 C 0.30378 0.56529 0.35458 0.0
C1982 C 0.3019 0.62618 0.31556 0.0
C1983 C 0.2879 0.64393 0.2945 0.0
C1984 C 0.27641 0.67236 0.30112 0.0
C1985 C 0.27583 0.68055 0.32998 0.0
C1986 C 0.28871 0.66204 0.3513 0.0
H1987 H 0.30028 0.54414 0.36858 0.0
H1988 H 0.28088 0.5748 0.35105 0.0
H1989 H 0.3125 0.55792 0.33384 0.0
H1990 H 0.31372 0.60658 0.30889 0.0
H1991 H 0.28892 0.63688 0.2725 0.0
H1992 H 0.2096 0.3042 0.8234 0.0
H1993 H 0.18173 0.33746 0.85385 0.0
H1994 H 0.17581 0.4034 0.78357 0.0
H1995 H 0.20161 0.3689 0.75261 0.0
H1996 H 0.18739 0.39235 0.87387 0.0
H1997 H 0.08593 0.38755 0.79947 0.0
H1998 H 0.11835 0.36469 0.79453 0.0
H1999 H 0.12062 0.40487 0.7827 0.0
C2000 C 0.20302 0.32621 0.81476 0.0
C2001 C 0.20774 0.33416 0.78579 0.0
C2002 C 0.18684 0.3451 0.83206 0.0
C2003 C 0.17551 0.37245 0.82075 0.0
C2004 C 0.18301 0.38179 0.79249 0.0
H2005 H 0.10507 0.52 0.91174 0.0
H2006 H 0.12807 0.48747 0.87721 0.0
C2007 C 0.19834 0.36245 0.77496 0.0
C2008 C 0.15506 0.39046 0.83821 0.0
H2009 H 0.08548 0.42333 0.83752 0.0
C2010 C 0.16505 0.39888 0.8659 0.0
C2011 C 0.12545 0.39857 0.82818 0.0
C2012 C 0.1118 0.38815 0.79973 0.0
C2013 C 0.14684 0.41586 0.88333 0.0
C2014 C 0.11817 0.42522 0.87269 0.0
C2015 C 0.10768 0.41632 0.84541 0.0
C2016 C 0.09977 0.4455 0.88948 0.0
C2017 C 0.15832 0.42391 0.91308 0.0
C2018 C 0.07519 0.43286 0.90681 0.0
C2019 C 0.06179 0.45152 0.9265 0.0
C2020 C 0.07294 0.48295 0.92907 0.0
C2021 C 0.09592 0.4959 0.91012 0.0
C2022 C 0.10917 0.47735 0.89048 0.0
H2023 H 0.17931 0.41202 0.91934 0.0
H2024 H 0.16423 0.4494 0.91421 0.0
H2025 H 0.13963 0.41735 0.92881 0.0
H2026 H 0.06775 0.40825 0.90636 0.0
H2027 H 0.04473 0.44074 0.9413 0.0
H2028 H 0.23958 0.33149 0.35297 0.0
H2029 H 0.19836 0.3487 0.38244 0.0
H2030 H 0.12904 0.2971 0.33058 0.0
H2031 H 0.1705 0.27883 0.30172 0.0
H2032 H 0.15741 0.3854 0.36387 0.0
H2033 H 0.09194 0.27867 0.40751 0.0
H2034 H 0.1296 0.27815 0.39118 0.0
H2035 H 0.09497 0.27934 0.3693 0.0
C2036 C 0.21561 0.32283 0.34854 0.0
C2037 C 0.20838 0.30352 0.32519 0.0
C2038 C 0.19196 0.33295 0.36524 0.0
C2039 C 0.16035 0.32439 0.35887 0.0
C2040 C 0.15311 0.30367 0.33646 0.0
H2041 H 0.0318 0.45264 0.42692 0.0
H2042 H 0.05513 0.42029 0.39215 0.0
C2043 C 0.17691 0.29309 0.31997 0.0
C2044 C 0.13554 0.33971 0.37395 0.0
H2045 H 0.06958 0.32617 0.4141 0.0
C2046 C 0.1382 0.37236 0.37483 0.0
C2047 C 0.1103 0.3229 0.38826 0.0
C2048 C 0.1066 0.28783 0.3893 0.0
C2049 C 0.11723 0.38856 0.3902 0.0
C2050 C 0.09184 0.37182 0.40442 0.0
C2051 C 0.08867 0.33916 0.40295 0.0
C2052 C 0.07091 0.38747 0.42374 0.0
C2053 C 0.12363 0.4234 0.39222 0.0
C2054 C 0.0692 0.37829 0.45271 0.0
C2055 C 0.05498 0.39614 0.47239 0.0
C2056 C 0.04218 0.42379 0.46374 0.0
C2057 C 0.04109 0.43137 0.43434 0.0
C2058 C 0.0551 0.41319 0.41449 0.0
H2059 H 0.14786 0.43156 0.38592 0.0
H2060 H 0.10747 0.43491 0.37761 0.0
H2061 H 0.12001 0.43107 0.4143 0.0
H2062 H 0.0808 0.35847 0.46053 0.0
H2063 H 0.05616 0.38953 0.49485 0.0
loop_
_geom_bond_atom_site_label_1
_geom_bond_atom_site_label_2
_geom_bond_distance
_geom_bond_site_symmetry_2
_ccdc_geom_bond_type
O0 Mn1 2.163 1_656 S
O0 C14 1.244 . S
Mn1 O0 2.163 1_454 S
Mn1 O4 2.160 . S
Mn1 O5 2.221 1_445 S
Mn1 O7 2.163 1_544 S
Mn1 O9 2.160 1_455 S
Mn1 O19 2.214 1_554 S
O2 Mn3 2.087 1_655 S
O2 C14 1.256 . S
Mn3 O2 2.087 1_455 S
Mn3 O10 2.089 1_456 S
Mn3 O19 2.292 . S
Mn3 O20 2.251 . S
O4 Mn1 2.160 . S
O4 C15 1.239 1_545 S
O5 Mn1 2.221 1_665 S
O5 Mn6 2.290 1_655 S
O5 C16 1.278 . S
Mn6 O5 2.290 1_455 S
Mn6 O8 2.089 . S
Mn6 O11 2.251 1_455 S
Mn6 O12 2.087 1_554 S
O7 Mn1 2.163 1_566 S
O7 C17 1.244 . S
O8 Mn6 2.089 . S
O8 C15 1.256 . S
O9 Mn1 2.160 1_655 S
O9 C18 1.239 . S
O10 Mn3 2.089 1_654 S
O10 C18 1.256 . S
O11 Mn6 2.251 1_655 S
O11 C16 1.241 . S
O12 Mn6 2.087 1_556 S
O12 C17 1.256 . S
C13 O19 1.296 . S
C13 O20 1.241 . S
C14 O0 1.244 . S
C14 O2 1.256 . S
C15 O4 1.239 1_565 S
C15 O8 1.256 . S
C16 O5 1.278 . S
C16 O11 1.241 . S
C17 O7 1.244 . S
C17 O12 1.256 . S
C18 O9 1.239 . S
C18 O10 1.256 . S
O19 Mn1 2.214 1_556 S
O19 Mn3 2.292 . S
O19 C13 1.296 . S
O20 Mn3 2.251 . S
O20 C13 1.241 . S
O21 Mn22 2.163 . S
O21 C35 1.244 . S
Mn22 O21 2.163 . S
Mn22 O25 2.160 . S
Mn22 O26 2.221 . S
Mn22 O28 2.163 . S
Mn22 O30 2.160 . S
Mn22 O40 2.221 . S
O23 Mn24 2.087 . S
O23 C35 1.256 . S
Mn24 O23 2.087 . S
Mn24 O31 2.089 . S
Mn24 O40 2.290 . S
Mn24 O41 2.251 . S
O25 Mn22 2.160 . S
O25 C36 1.239 . S
O26 Mn22 2.221 . S
O26 Mn27 2.290 . S
O26 C37 1.278 . S
Mn27 O26 2.290 . S
Mn27 O29 2.089 . S
Mn27 O32 2.251 . S
Mn27 O33 2.087 . S
O28 Mn22 2.163 . S
O28 C38 1.244 . S
O29 Mn27 2.089 . S
O29 C36 1.256 . S
O30 Mn22 2.160 . S
O30 C39 1.239 . S
O31 Mn24 2.089 . S
O31 C39 1.256 . S
O32 Mn27 2.251 . S
O32 C37 1.241 . S
O33 Mn27 2.087 . S
O33 C38 1.256 . S
C34 O40 1.278 . S
C34 O41 1.241 . S
C35 O21 1.244 . S
C35 O23 1.256 . S
C36 O25 1.239 . S
C36 O29 1.256 . S
C37 O26 1.278 . S
C37 O32 1.241 . S
C38 O28 1.244 . S
C38 O33 1.256 . S
C39 O30 1.239 . S
C39 O31 1.256 . S
O40 Mn22 2.221 . S
O40 Mn24 2.290 . S
O40 C34 1.278 . S
O41 Mn24 2.251 . S
O41 C34 1.241 . S
O42 Mn43 2.163 1_565 S
O42 C56 1.244 . S
Mn43 O42 2.163 1_545 S
Mn43 O46 2.160 . S
Mn43 O47 2.221 1_545 S
Mn43 O49 2.163 . S
Mn43 O51 2.160 1_545 S
Mn43 O61 2.221 . S
O44 Mn45 2.087 1_565 S
O44 C56 1.256 . S
Mn45 O44 2.087 1_545 S
Mn45 O52 2.089 1_545 S
Mn45 O61 2.290 . S
Mn45 O62 2.251 . S
O46 Mn43 2.160 . S
O46 C57 1.239 . S
O47 Mn43 2.221 1_565 S
O47 Mn48 2.290 1_565 S
O47 C58 1.278 . S
Mn48 O47 2.290 1_545 S
Mn48 O50 2.089 . S
Mn48 O53 2.251 1_545 S
Mn48 O54 2.087 . S
O49 Mn43 2.163 . S
O49 C59 1.244 . S
O50 Mn48 2.089 . S
O50 C57 1.256 . S
O51 Mn43 2.160 1_565 S
O51 C60 1.239 . S
O52 Mn45 2.089 1_565 S
O52 C60 1.256 . S
O53 Mn48 2.251 1_565 S
O53 C58 1.241 . S
O54 Mn48 2.087 . S
O54 C59 1.256 . S
C55 O61 1.278 . S
C55 O62 1.241 . S
C56 O42 1.244 . S
C56 O44 1.256 . S
C57 O46 1.239 . S
C57 O50 1.256 . S
C58 O47 1.278 . S
C58 O53 1.241 . S
C59 O49 1.244 . S
C59 O54 1.256 . S
C60 O51 1.239 . S
C60 O52 1.256 . S
O61 Mn43 2.221 . S
O61 Mn45 2.290 . S
O61 C55 1.278 . S
O62 Mn45 2.251 . S
O62 C55 1.241 . S
O63 Mn64 2.163 . S
O63 C77 1.244 . S
Mn64 O63 2.163 . S
Mn64 O67 2.160 . S
Mn64 O68 2.221 . S
Mn64 O70 2.163 . S
Mn64 O72 2.160 . S
Mn64 O82 2.221 . S
O65 Mn66 2.087 . S
O65 C77 1.256 . S
Mn66 O65 2.087 . S
Mn66 O73 2.089 . S
Mn66 O82 2.290 . S
Mn66 O83 2.251 . S
O67 Mn64 2.160 . S
O67 C78 1.239 . S
O68 Mn64 2.221 . S
O68 Mn69 2.290 . S
O68 C79 1.278 . S
Mn69 O68 2.290 . S
Mn69 O71 2.089 . S
Mn69 O74 2.251 . S
Mn69 O75 2.087 . S
O70 Mn64 2.163 . S
O70 C80 1.244 . S
O71 Mn69 2.089 . S
O71 C78 1.256 . S
O72 Mn64 2.160 . S
O72 C81 1.239 . S
O73 Mn66 2.089 . S
O73 C81 1.256 . S
O74 Mn69 2.251 . S
O74 C79 1.241 . S
O75 Mn69 2.087 . S
O75 C80 1.256 . S
C76 O82 1.278 . S
C76 O83 1.241 . S
C77 O63 1.244 . S
C77 O65 1.256 . S
C78 O67 1.239 . S
C78 O71 1.256 . S
C79 O68 1.278 . S
C79 O74 1.241 . S
C80 O70 1.244 . S
C80 O75 1.256 . S
C81 O72 1.239 . S
C81 O73 1.256 . S
O82 Mn64 2.221 . S
O82 Mn66 2.290 . S
O82 C76 1.278 . S
O83 Mn66 2.251 . S
O83 C76 1.241 . S
O84 Mn85 2.163 1_545 S
O84 C98 1.244 . S
Mn85 O84 2.163 1_565 S
Mn85 O88 2.160 1_455 S
Mn85 O89 2.221 1_455 S
Mn85 O91 2.163 1_465 S
Mn85 O93 2.160 . S
Mn85 O103 2.221 1_565 S
O86 Mn87 2.087 . S
O86 C98 1.256 . S
Mn87 O86 2.087 . S
Mn87 O94 2.089 1_545 S
Mn87 O103 2.290 . S
Mn87 O104 2.251 . S
O88 Mn85 2.160 1_655 S
O88 C99 1.239 . S
O89 Mn85 2.221 1_655 S
O89 Mn90 2.290 . S
O89 C100 1.278 . S
Mn90 O89 2.290 . S
Mn90 O92 2.089 . S
Mn90 O95 2.251 . S
Mn90 O96 2.087 1_565 S
O91 Mn85 2.163 1_645 S
O91 C101 1.244 . S
O92 Mn90 2.089 . S
O92 C99 1.256 . S
O93 Mn85 2.160 . S
O93 C102 1.239 . S
O94 Mn87 2.089 1_565 S
O94 C102 1.256 . S
O95 Mn90 2.251 . S
O95 C100 1.241 . S
O96 Mn90 2.087 1_545 S
O96 C101 1.256 . S
C97 O103 1.278 . S
C97 O104 1.241 . S
C98 O84 1.244 . S
C98 O86 1.256 . S
C99 O88 1.239 . S
C99 O92 1.256 . S
C100 O89 1.278 . S
C100 O95 1.241 . S
C101 O91 1.244 . S
C101 O96 1.256 . S
C102 O93 1.239 . S
C102 O94 1.256 . S
O103 Mn85 2.221 1_545 S
O103 Mn87 2.290 . S
O103 C97 1.278 . S
O104 Mn87 2.251 . S
O104 C97 1.241 . S
O105 Mn106 2.163 . S
O105 C119 1.244 . S
Mn106 O105 2.163 . S
Mn106 O109 2.160 . S
Mn106 O110 2.221 . S
Mn106 O112 2.163 . S
Mn106 O114 2.160 . S
Mn106 O124 2.221 . S
O107 Mn108 2.087 . S
O107 C119 1.256 . S
Mn108 O107 2.087 . S
Mn108 O115 2.089 . S
Mn108 O124 2.290 . S
Mn108 O125 2.251 . S
O109 Mn106 2.160 . S
O109 C120 1.239 . S
O110 Mn106 2.221 . S
O110 Mn111 2.290 . S
O110 C121 1.278 . S
Mn111 O110 2.290 . S
Mn111 O113 2.089 . S
Mn111 O116 2.251 . S
Mn111 O117 2.087 . S
O112 Mn106 2.163 . S
O112 C122 1.244 . S
O113 Mn111 2.089 . S
O113 C120 1.256 . S
O114 Mn106 2.160 . S
O114 C123 1.239 . S
O115 Mn108 2.089 . S
O115 C123 1.256 . S
O116 Mn111 2.251 . S
O116 C121 1.241 . S
O117 Mn111 2.087 . S
O117 C122 1.256 . S
C118 O124 1.278 . S
C118 O125 1.241 . S
C119 O105 1.244 . S
C119 O107 1.256 . S
C120 O109 1.239 . S
C120 O113 1.256 . S
C121 O110 1.278 . S
C121 O116 1.241 . S
C122 O112 1.244 . S
C122 O117 1.256 . S
C123 O114 1.239 . S
C123 O115 1.256 . S
O124 Mn106 2.221 . S
O124 Mn108 2.290 . S
O124 C118 1.278 . S
O125 Mn108 2.251 . S
O125 C118 1.241 . S
O126 Mn127 2.163 1_565 S
O126 C140 1.244 . S
Mn127 O126 2.163 1_545 S
Mn127 O130 2.160 1_554 S
Mn127 O131 2.221 . S
Mn127 O133 2.163 1_544 S
Mn127 O135 2.160 . S
Mn127 O145 2.221 1_554 S
O128 Mn129 2.087 . S
O128 C140 1.256 . S
Mn129 O128 2.087 . S
Mn129 O136 2.089 1_565 S
Mn129 O145 2.290 1_564 S
Mn129 O146 2.251 1_554 S
O130 Mn127 2.160 1_556 S
O130 C141 1.239 . S
O131 Mn127 2.221 . S
O131 Mn132 2.290 . S
O131 C142 1.278 . S
Mn132 O131 2.290 . S
Mn132 O134 2.089 1_554 S
Mn132 O137 2.251 . S
Mn132 O138 2.087 1_545 S
O133 Mn127 2.163 1_566 S
O133 C143 1.244 . S
O134 Mn132 2.089 1_556 S
O134 C141 1.256 . S
O135 Mn127 2.160 . S
O135 C144 1.239 . S
O136 Mn129 2.089 1_545 S
O136 C144 1.256 . S
O137 Mn132 2.251 . S
O137 C142 1.241 . S
O138 Mn132 2.087 1_565 S
O138 C143 1.256 1_554 S
C139 O145 1.278 1_565 S
C139 O146 1.241 . S
C140 O126 1.244 . S
C140 O128 1.256 . S
C141 O130 1.239 . S
C141 O134 1.256 . S
C142 O131 1.278 . S
C142 O137 1.241 . S
C143 O133 1.244 . S
C143 O138 1.256 1_556 S
C144 O135 1.239 . S
C144 O136 1.256 . S
O145 Mn127 2.221 1_556 S
O145 Mn129 2.290 1_546 S
O145 C139 1.278 1_545 S
O146 Mn129 2.251 1_556 S
O146 C139 1.241 . S
O147 Mn148 2.163 . S
O147 C161 1.244 . S
Mn148 O147 2.163 . S
Mn148 O151 2.160 . S
Mn148 O152 2.221 . S
Mn148 O154 2.163 . S
Mn148 O156 2.160 . S
Mn148 O166 2.221 . S
O149 Mn150 2.087 . S
O149 C161 1.256 . S
Mn150 O149 2.087 . S
Mn150 O157 2.089 . S
Mn150 O166 2.290 . S
Mn150 O167 2.251 . S
O151 Mn148 2.160 . S
O151 C162 1.239 . S
O152 Mn148 2.221 . S
O152 Mn153 2.290 . S
O152 C163 1.278 . S
Mn153 O152 2.290 . S
Mn153 O155 2.089 . S
Mn153 O158 2.251 . S
Mn153 O159 2.087 . S
O154 Mn148 2.163 . S
O154 C164 1.244 . S
O155 Mn153 2.089 . S
O155 C162 1.256 . S
O156 Mn148 2.160 . S
O156 C165 1.239 . S
O157 Mn150 2.089 . S
O157 C165 1.256 . S
O158 Mn153 2.251 . S
O158 C163 1.241 . S
O159 Mn153 2.087 . S
O159 C164 1.256 . S
C160 O166 1.278 . S
C160 O167 1.241 . S
C161 O147 1.244 . S
C161 O149 1.256 . S
C162 O151 1.239 . S
C162 O155 1.256 . S
C163 O152 1.278 . S
C163 O158 1.241 . S
C164 O154 1.244 . S
C164 O159 1.256 . S
C165 O156 1.239 . S
C165 O157 1.256 . S
O166 Mn148 2.221 . S
O166 Mn150 2.290 . S
O166 C160 1.278 . S
O167 Mn150 2.251 . S
O167 C160 1.241 . S
O168 Mn169 2.163 1_554 S
O168 C182 1.244 . S
Mn169 O168 2.163 1_556 S
Mn169 O172 2.160 . S
Mn169 O173 2.221 1_556 S
Mn169 O175 2.163 . S
Mn169 O177 2.160 1_556 S
Mn169 O187 2.221 . S
O170 Mn171 2.087 . S
O170 C182 1.256 . S
Mn171 O170 2.087 . S
Mn171 O178 2.089 . S
Mn171 O187 2.290 1_554 S
Mn171 O188 2.251 1_554 S
O172 Mn169 2.160 . S
O172 C183 1.239 . S
O173 Mn169 2.221 1_554 S
O173 Mn174 2.290 1_554 S
O173 C184 1.278 . S
Mn174 O173 2.290 1_556 S
Mn174 O176 2.089 . S
Mn174 O179 2.251 1_556 S
Mn174 O180 2.087 . S
O175 Mn169 2.163 . S
O175 C185 1.244 . S
O176 Mn174 2.089 . S
O176 C183 1.256 . S
O177 Mn169 2.160 1_554 S
O177 C186 1.239 . S
O178 Mn171 2.089 . S
O178 C186 1.256 . S
O179 Mn174 2.251 1_554 S
O179 C184 1.241 . S
O180 Mn174 2.087 . S
O180 C185 1.256 . S
C181 O187 1.278 . S
C181 O188 1.241 . S
C182 O168 1.244 . S
C182 O170 1.256 . S
C183 O172 1.239 . S
C183 O176 1.256 . S
C184 O173 1.278 . S
C184 O179 1.241 . S
C185 O175 1.244 . S
C185 O180 1.256 . S
C186 O177 1.239 . S
C186 O178 1.256 . S
O187 Mn169 2.221 . S
O187 Mn171 2.290 1_556 S
O187 C181 1.278 . S
O188 Mn171 2.251 1_556 S
O188 C181 1.241 . S
O189 Mn190 2.163 . S
O189 C203 1.244 . S
Mn190 O189 2.163 . S
Mn190 O193 2.160 . S
Mn190 O194 2.221 . S
Mn190 O196 2.163 . S
Mn190 O198 2.160 . S
Mn190 O208 2.221 . S
O191 Mn192 2.087 . S
O191 C203 1.256 . S
Mn192 O191 2.087 . S
Mn192 O199 2.089 . S
Mn192 O208 2.290 . S
Mn192 O209 2.251 . S
O193 Mn190 2.160 . S
O193 C204 1.239 . S
O194 Mn190 2.221 . S
O194 Mn195 2.290 . S
O194 C205 1.278 . S
Mn195 O194 2.290 . S
Mn195 O197 2.089 . S
Mn195 O200 2.251 . S
Mn195 O201 2.087 . S
O196 Mn190 2.163 . S
O196 C206 1.244 . S
O197 Mn195 2.089 . S
O197 C204 1.256 . S
O198 Mn190 2.160 . S
O198 C207 1.239 . S
O199 Mn192 2.089 . S
O199 C207 1.256 . S
O200 Mn195 2.251 . S
O200 C205 1.241 . S
O201 Mn195 2.087 . S
O201 C206 1.256 . S
C202 O208 1.278 . S
C202 O209 1.241 . S
C203 O189 1.244 . S
C203 O191 1.256 . S
C204 O193 1.239 . S
C204 O197 1.256 . S
C205 O194 1.278 . S
C205 O200 1.241 . S
C206 O196 1.244 . S
C206 O201 1.256 . S
C207 O198 1.239 . S
C207 O199 1.256 . S
O208 Mn190 2.221 . S
O208 Mn192 2.290 . S
O208 C202 1.278 . S
O209 Mn192 2.251 . S
O209 C202 1.241 . S
O210 Mn211 2.163 1_655 S
O210 C224 1.244 . S
Mn211 O210 2.163 1_455 S
Mn211 O214 2.160 . S
Mn211 O215 2.221 . S
Mn211 O217 2.163 . S
Mn211 O219 2.160 1_455 S
Mn211 O229 2.221 1_455 S
O212 Mn213 2.087 . S
O212 C224 1.256 . S
Mn213 O212 2.087 . S
Mn213 O220 2.089 . S
Mn213 O229 2.290 . S
Mn213 O230 2.251 . S
O214 Mn211 2.160 . S
O214 C225 1.239 . S
O215 Mn211 2.221 . S
O215 Mn216 2.290 . S
O215 C226 1.278 . S
Mn216 O215 2.290 . S
Mn216 O218 2.089 . S
Mn216 O221 2.251 . S
Mn216 O222 2.087 . S
O217 Mn211 2.163 . S
O217 C227 1.244 . S
O218 Mn216 2.089 . S
O218 C225 1.256 . S
O219 Mn211 2.160 1_655 S
O219 C228 1.239 . S
O220 Mn213 2.089 . S
O220 C228 1.256 . S
O221 Mn216 2.251 . S
O221 C226 1.241 . S
O222 Mn216 2.087 . S
O222 C227 1.256 . S
C223 O229 1.278 . S
C223 O230 1.241 . S
C224 O210 1.244 . S
C224 O212 1.256 . S
C225 O214 1.239 . S
C225 O218 1.256 . S
C226 O215 1.278 . S
C226 O221 1.241 . S
C227 O217 1.244 . S
C227 O222 1.256 . S
C228 O219 1.239 . S
C228 O220 1.256 . S
O229 Mn211 2.221 1_655 S
O229 Mn213 2.290 . S
O229 C223 1.278 . S
O230 Mn213 2.251 . S
O230 C223 1.241 . S
O231 Mn232 2.163 . S
O231 C245 1.244 . S
Mn232 O231 2.163 . S
Mn232 O235 2.160 . S
Mn232 O236 2.221 . S
Mn232 O238 2.163 . S
Mn232 O240 2.160 . S
Mn232 O250 2.221 . S
O233 Mn234 2.087 . S
O233 C245 1.256 . S
Mn234 O233 2.087 . S
Mn234 O241 2.089 . S
Mn234 O250 2.290 . S
Mn234 O251 2.251 . S
O235 Mn232 2.160 . S
O235 C246 1.239 . S
O236 Mn232 2.221 . S
O236 Mn237 2.290 . S
O236 C247 1.278 . S
Mn237 O236 2.290 . S
Mn237 O239 2.089 . S
Mn237 O242 2.251 . S
Mn237 O243 2.087 . S
O238 Mn232 2.163 . S
O238 C248 1.244 . S
O239 Mn237 2.089 . S
O239 C246 1.256 . S
O240 Mn232 2.160 . S
O240 C249 1.239 . S
O241 Mn234 2.089 . S
O241 C249 1.256 . S
O242 Mn237 2.251 . S
O242 C247 1.241 . S
O243 Mn237 2.087 . S
O243 C248 1.256 . S
C244 O250 1.278 . S
C244 O251 1.241 . S
C245 O231 1.244 . S
C245 O233 1.256 . S
C246 O235 1.239 . S
C246 O239 1.256 . S
C247 O236 1.278 . S
C247 O242 1.241 . S
C248 O238 1.244 . S
C248 O243 1.256 . S
C249 O240 1.239 . S
C249 O241 1.256 . S
O250 Mn232 2.221 . S
O250 Mn234 2.290 . S
O250 C244 1.278 . S
O251 Mn234 2.251 . S
O251 C244 1.241 . S
O252 Mn253 2.163 . S
O252 C266 1.244 . S
Mn253 O252 2.163 . S
Mn253 O256 2.160 . S
Mn253 O257 2.221 . S
Mn253 O259 2.163 . S
Mn253 O261 2.160 . S
Mn253 O271 2.221 . S
O254 Mn255 2.087 . S
O254 C266 1.256 . S
Mn255 O254 2.087 . S
Mn255 O262 2.089 . S
Mn255 O271 2.290 . S
Mn255 O272 2.251 . S
O256 Mn253 2.160 . S
O256 C267 1.239 . S
O257 Mn253 2.221 . S
O257 Mn258 2.290 . S
O257 C268 1.278 . S
Mn258 O257 2.290 . S
Mn258 O260 2.089 . S
Mn258 O263 2.251 . S
Mn258 O264 2.087 . S
O259 Mn253 2.163 . S
O259 C269 1.244 . S
O260 Mn258 2.089 . S
O260 C267 1.256 . S
O261 Mn253 2.160 . S
O261 C270 1.239 . S
O262 Mn255 2.089 . S
O262 C270 1.256 . S
O263 Mn258 2.251 . S
O263 C268 1.241 . S
O264 Mn258 2.087 . S
O264 C269 1.256 . S
C265 O271 1.278 . S
C265 O272 1.241 . S
C266 O252 1.244 . S
C266 O254 1.256 . S
C267 O256 1.239 . S
C267 O260 1.256 . S
C268 O257 1.278 . S
C268 O263 1.241 . S
C269 O259 1.244 . S
C269 O264 1.256 . S
C270 O261 1.239 . S
C270 O262 1.256 . S
O271 Mn253 2.221 . S
O271 Mn255 2.290 . S
O271 C265 1.278 . S
O272 Mn255 2.251 . S
O272 C265 1.241 . S
O273 Mn274 2.163 . S
O273 C287 1.244 . S
Mn274 O273 2.163 . S
Mn274 O277 2.160 . S
Mn274 O278 2.221 . S
Mn274 O280 2.163 . S
Mn274 O282 2.160 . S
Mn274 O292 2.221 . S
O275 Mn276 2.087 . S
O275 C287 1.256 . S
Mn276 O275 2.087 . S
Mn276 O283 2.089 . S
Mn276 O292 2.290 . S
Mn276 O293 2.251 . S
O277 Mn274 2.160 . S
O277 C288 1.239 . S
O278 Mn274 2.221 . S
O278 Mn279 2.290 . S
O278 C289 1.278 . S
Mn279 O278 2.290 . S
Mn279 O281 2.089 . S
Mn279 O284 2.251 . S
Mn279 O285 2.087 . S
O280 Mn274 2.163 . S
O280 C290 1.244 . S
O281 Mn279 2.089 . S
O281 C288 1.256 . S
O282 Mn274 2.160 . S
O282 C291 1.239 . S
O283 Mn276 2.089 . S
O283 C291 1.256 . S
O284 Mn279 2.251 . S
O284 C289 1.241 . S
O285 Mn279 2.087 . S
O285 C290 1.256 . S
C286 O292 1.278 . S
C286 O293 1.241 . S
C287 O273 1.244 . S
C287 O275 1.256 . S
C288 O277 1.239 . S
C288 O281 1.256 . S
C289 O278 1.278 . S
C289 O284 1.241 . S
C290 O280 1.244 . S
C290 O285 1.256 . S
C291 O282 1.239 . S
C291 O283 1.256 . S
O292 Mn274 2.221 . S
O292 Mn276 2.290 . S
O292 C286 1.278 . S
O293 Mn276 2.251 . S
O293 C286 1.241 . S
O294 Mn295 2.163 . S
O294 C308 1.244 . S
Mn295 O294 2.163 . S
Mn295 O298 2.160 . S
Mn295 O299 2.221 . S
Mn295 O301 2.163 . S
Mn295 O303 2.160 . S
Mn295 O313 2.221 . S
O296 Mn297 2.087 . S
O296 C308 1.256 . S
Mn297 O296 2.087 . S
Mn297 O304 2.089 . S
Mn297 O313 2.290 . S
Mn297 O314 2.251 . S
O298 Mn295 2.160 . S
O298 C309 1.239 . S
O299 Mn295 2.221 . S
O299 Mn300 2.290 . S
O299 C310 1.278 . S
Mn300 O299 2.290 . S
Mn300 O302 2.089 . S
Mn300 O305 2.251 . S
Mn300 O306 2.087 . S
O301 Mn295 2.163 . S
O301 C311 1.244 . S
O302 Mn300 2.089 . S
O302 C309 1.256 . S
O303 Mn295 2.160 . S
O303 C312 1.239 . S
O304 Mn297 2.089 . S
O304 C312 1.256 . S
O305 Mn300 2.251 . S
O305 C310 1.241 . S
O306 Mn300 2.087 . S
O306 C311 1.256 . S
C307 O313 1.278 . S
C307 O314 1.241 . S
C308 O294 1.244 . S
C308 O296 1.256 . S
C309 O298 1.239 . S
C309 O302 1.256 . S
C310 O299 1.278 . S
C310 O305 1.241 . S
C311 O301 1.244 . S
C311 O306 1.256 . S
C312 O303 1.239 . S
C312 O304 1.256 . S
O313 Mn295 2.221 . S
O313 Mn297 2.290 . S
O313 C307 1.278 . S
O314 Mn297 2.251 . S
O314 C307 1.241 . S
O315 Mn316 2.163 . S
O315 C329 1.244 . S
Mn316 O315 2.163 . S
Mn316 O319 2.160 1_454 S
Mn316 O320 2.221 1_454 S
Mn316 O322 2.163 1_455 S
Mn316 O324 2.160 1_554 S
Mn316 O334 2.221 . S
O317 Mn318 2.087 . S
O317 C329 1.256 . S
Mn318 O317 2.087 . S
Mn318 O325 2.089 1_554 S
Mn318 O334 2.290 . S
Mn318 O335 2.251 . S
O319 Mn316 2.160 1_656 S
O319 C330 1.239 . S
O320 Mn316 2.221 1_656 S
O320 Mn321 2.290 . S
O320 C331 1.278 . S
Mn321 O320 2.290 . S
Mn321 O323 2.089 . S
Mn321 O326 2.251 . S
Mn321 O327 2.087 1_556 S
O322 Mn316 2.163 1_655 S
O322 C332 1.244 . S
O323 Mn321 2.089 . S
O323 C330 1.256 . S
O324 Mn316 2.160 1_556 S
O324 C333 1.239 . S
O325 Mn318 2.089 1_556 S
O325 C333 1.256 . S
O326 Mn321 2.251 . S
O326 C331 1.241 . S
O327 Mn321 2.087 1_554 S
O327 C332 1.256 . S
C328 O334 1.278 . S
C328 O335 1.241 . S
C329 O315 1.244 . S
C329 O317 1.256 . S
C330 O319 1.239 . S
C330 O323 1.256 . S
C331 O320 1.278 . S
C331 O326 1.241 . S
C332 O322 1.244 . S
C332 O327 1.256 . S
C333 O324 1.239 . S
C333 O325 1.256 . S
O334 Mn316 2.221 . S
O334 Mn318 2.290 . S
O334 C328 1.278 . S
O335 Mn318 2.251 . S
O335 C328 1.241 . S
H336 C344 0.929 . S
H337 C346 0.930 . S
H338 C348 0.930 . S
H339 C351 0.929 . S
H340 C354 0.930 . S
H341 C356 0.960 . S
H342 C356 0.960 . S
H343 C356 0.960 . S
C344 H336 0.929 . S
C344 C345 1.377 . S
C344 C346 1.384 . S
C345 C344 1.377 . S
C345 C351 1.390 . S
C346 H337 0.930 . S
C346 C344 1.384 . S
C346 C347 1.372 . S
C347 C346 1.372 . S
C347 C348 1.400 . S
C347 C352 1.490 . S
C348 H338 0.930 . S
C348 C347 1.400 . S
C348 C351 1.386 . S
H349 C365 0.930 . S
H350 C366 0.931 . S
C351 H339 0.929 . S
C351 C345 1.390 . S
C351 C348 1.386 . S
C352 C347 1.490 . S
C352 C354 1.395 . S
C352 C355 1.403 . S
H353 C359 0.930 . S
C354 H340 0.930 . S
C354 C352 1.395 . S
C354 C357 1.403 . S
C355 C352 1.403 . S
C355 C356 1.524 . S
C355 C359 1.400 . S
C356 H341 0.960 . S
C356 H342 0.960 . S
C356 H343 0.960 . S
C356 C355 1.524 . S
C357 C354 1.403 . S
C357 C358 1.392 . S
C357 C361 1.495 . S
C358 C357 1.392 . S
C358 C359 1.385 . S
C358 C360 1.478 . S
C359 H353 0.930 . S
C359 C355 1.400 . S
C359 C358 1.385 . S
C360 C358 1.478 . S
C360 C362 1.381 . S
C360 C366 1.383 . S
C361 C357 1.495 . S
C361 H367 0.959 . S
C361 H368 0.961 . S
C361 H369 0.960 . S
C362 C360 1.381 . S
C362 C363 1.394 . S
C362 H370 0.930 . S
C363 C362 1.394 . S
C363 C364 1.383 . S
C363 H371 0.929 . S
C364 C363 1.383 . S
C364 C365 1.377 . S
C365 H349 0.930 . S
C365 C364 1.377 . S
C365 C366 1.379 . S
C366 H350 0.931 . S
C366 C360 1.383 . S
C366 C365 1.379 . S
H367 C361 0.959 . S
H368 C361 0.961 . S
H369 C361 0.960 . S
H370 C362 0.930 . S
H371 C363 0.929 . S
H372 C380 0.929 1_545 S
H373 C382 0.930 . S
H374 C384 0.930 . S
H375 C387 0.929 . S
H376 C390 0.930 . S
H377 C392 0.960 . S
H378 C392 0.960 . S
H379 C392 0.960 . S
C380 H372 0.929 1_565 S
C380 C381 1.377 . S
C380 C382 1.384 . S
C381 C380 1.377 . S
C381 C387 1.390 . S
C382 H373 0.930 . S
C382 C380 1.384 . S
C382 C383 1.372 . S
C383 C382 1.372 . S
C383 C384 1.400 . S
C383 C388 1.490 . S
C384 H374 0.930 . S
C384 C383 1.400 . S
C384 C387 1.386 . S
H385 C401 0.930 . S
H386 C402 0.931 . S
C387 H375 0.929 . S
C387 C381 1.390 . S
C387 C384 1.386 . S
C388 C383 1.490 . S
C388 C390 1.395 . S
C388 C391 1.403 . S
H389 C395 0.930 . S
C390 H376 0.930 . S
C390 C388 1.395 . S
C390 C393 1.403 . S
C391 C388 1.403 . S
C391 C392 1.524 . S
C391 C395 1.400 . S
C392 H377 0.960 . S
C392 H378 0.960 . S
C392 H379 0.960 . S
C392 C391 1.524 . S
C393 C390 1.403 . S
C393 C394 1.392 . S
C393 C397 1.495 . S
C394 C393 1.392 . S
C394 C395 1.385 . S
C394 C396 1.478 . S
C395 H389 0.930 . S
C395 C391 1.400 . S
C395 C394 1.385 . S
C396 C394 1.478 . S
C396 C398 1.381 . S
C396 C402 1.383 . S
C397 C393 1.495 . S
C397 H403 0.959 . S
C397 H404 0.961 . S
C397 H405 0.960 . S
C398 C396 1.381 . S
C398 C399 1.394 . S
C398 H406 0.930 . S
C399 C398 1.394 . S
C399 C400 1.383 . S
C399 H407 0.929 . S
C400 C399 1.383 . S
C400 C401 1.377 . S
C401 H385 0.930 . S
C401 C400 1.377 . S
C401 C402 1.379 . S
C402 H386 0.931 . S
C402 C396 1.383 . S
C402 C401 1.379 . S
H403 C397 0.959 . S
H404 C397 0.961 . S
H405 C397 0.960 . S
H406 C398 0.930 . S
H407 C399 0.929 . S
H408 C416 0.929 . S
H409 C418 0.930 . S
H410 C420 0.930 . S
H411 C423 0.929 . S
H412 C426 0.930 . S
H413 C428 0.960 . S
H414 C428 0.960 . S
H415 C428 0.960 . S
C416 H408 0.929 . S
C416 C417 1.377 . S
C416 C418 1.384 . S
C417 C416 1.377 . S
C417 C423 1.390 . S
C418 H409 0.930 . S
C418 C416 1.384 . S
C418 C419 1.372 . S
C419 C418 1.372 . S
C419 C420 1.400 . S
C419 C424 1.490 . S
C420 H410 0.930 . S
C420 C419 1.400 . S
C420 C423 1.386 . S
H421 C437 0.930 . S
H422 C438 0.931 . S
C423 H411 0.929 . S
C423 C417 1.390 . S
C423 C420 1.386 . S
C424 C419 1.490 . S
C424 C426 1.395 . S
C424 C427 1.403 . S
H425 C431 0.930 . S
C426 H412 0.930 . S
C426 C424 1.395 . S
C426 C429 1.403 . S
C427 C424 1.403 . S
C427 C428 1.524 . S
C427 C431 1.400 . S
C428 H413 0.960 . S
C428 H414 0.960 . S
C428 H415 0.960 . S
C428 C427 1.524 . S
C429 C426 1.403 . S
C429 C430 1.392 . S
C429 C433 1.495 . S
C430 C429 1.392 . S
C430 C431 1.385 . S
C430 C432 1.478 . S
C431 H425 0.930 . S
C431 C427 1.400 . S
C431 C430 1.385 . S
C432 C430 1.478 . S
C432 C434 1.381 . S
C432 C438 1.383 . S
C433 C429 1.495 . S
C433 H439 0.959 . S
C433 H440 0.961 . S
C433 H441 0.960 . S
C434 C432 1.381 . S
C434 C435 1.394 . S
C434 H442 0.930 . S
C435 C434 1.394 . S
C435 C436 1.383 . S
C435 H443 0.929 . S
C436 C435 1.383 . S
C436 C437 1.377 . S
C437 H421 0.930 . S
C437 C436 1.377 . S
C437 C438 1.379 . S
C438 H422 0.931 . S
C438 C432 1.383 . S
C438 C437 1.379 . S
H439 C433 0.959 . S
H440 C433 0.961 . S
H441 C433 0.960 . S
H442 C434 0.930 . S
H443 C435 0.929 . S
H444 C452 0.929 . S
H445 C454 0.930 . S
H446 C456 0.930 . S
H447 C459 0.929 . S
H448 C462 0.930 . S
H449 C464 0.960 . S
H450 C464 0.960 . S
H451 C464 0.960 . S
C452 H444 0.929 . S
C452 C453 1.377 . S
C452 C454 1.384 . S
C453 C452 1.377 . S
C453 C459 1.390 . S
C454 H445 0.930 . S
C454 C452 1.384 . S
C454 C455 1.372 . S
C455 C454 1.372 . S
C455 C456 1.400 . S
C455 C460 1.490 . S
C456 H446 0.930 . S
C456 C455 1.400 . S
C456 C459 1.386 . S
H457 C473 0.930 . S
H458 C474 0.931 . S
C459 H447 0.929 . S
C459 C453 1.390 . S
C459 C456 1.386 . S
C460 C455 1.490 . S
C460 C462 1.395 . S
C460 C463 1.403 . S
H461 C467 0.930 . S
C462 H448 0.930 . S
C462 C460 1.395 . S
C462 C465 1.403 . S
C463 C460 1.403 . S
C463 C464 1.524 . S
C463 C467 1.400 . S
C464 H449 0.960 . S
C464 H450 0.960 . S
C464 H451 0.960 . S
C464 C463 1.524 . S
C465 C462 1.403 . S
C465 C466 1.392 . S
C465 C469 1.495 . S
C466 C465 1.392 . S
C466 C467 1.385 . S
C466 C468 1.478 . S
C467 H461 0.930 . S
C467 C463 1.400 . S
C467 C466 1.385 . S
C468 C466 1.478 . S
C468 C470 1.381 . S
C468 C474 1.383 . S
C469 C465 1.495 . S
C469 H475 0.959 . S
C469 H476 0.961 . S
C469 H477 0.960 . S
C470 C468 1.381 . S
C470 C471 1.394 . S
C470 H478 0.930 . S
C471 C470 1.394 . S
C471 C472 1.383 . S
C471 H479 0.929 . S
C472 C471 1.383 . S
C472 C473 1.377 . S
C473 H457 0.930 . S
C473 C472 1.377 . S
C473 C474 1.379 . S
C474 H458 0.931 . S
C474 C468 1.383 . S
C474 C473 1.379 . S
H475 C469 0.959 . S
H476 C469 0.961 . S
H477 C469 0.960 . S
H478 C470 0.930 . S
H479 C471 0.929 . S
H480 C488 0.929 . S
H481 C490 0.930 . S
H482 C492 0.930 . S
H483 C495 0.929 . S
H484 C498 0.930 . S
H485 C500 0.960 . S
H486 C500 0.960 . S
H487 C500 0.960 . S
C488 H480 0.929 . S
C488 C489 1.377 . S
C488 C490 1.384 . S
C489 C488 1.377 . S
C489 C495 1.390 . S
C490 H481 0.930 . S
C490 C488 1.384 . S
C490 C491 1.372 . S
C491 C490 1.372 . S
C491 C492 1.400 . S
C491 C496 1.490 . S
C492 H482 0.930 . S
C492 C491 1.400 . S
C492 C495 1.386 . S
H493 C509 0.930 . S
H494 C510 0.931 . S
C495 H483 0.929 . S
C495 C489 1.390 . S
C495 C492 1.386 . S
C496 C491 1.490 . S
C496 C498 1.395 . S
C496 C499 1.403 . S
H497 C503 0.930 . S
C498 H484 0.930 . S
C498 C496 1.395 . S
C498 C501 1.403 . S
C499 C496 1.403 . S
C499 C500 1.524 . S
C499 C503 1.400 . S
C500 H485 0.960 . S
C500 H486 0.960 . S
C500 H487 0.960 . S
C500 C499 1.524 . S
C501 C498 1.403 . S
C501 C502 1.392 . S
C501 C505 1.495 . S
C502 C501 1.392 . S
C502 C503 1.385 . S
C502 C504 1.478 . S
C503 H497 0.930 . S
C503 C499 1.400 . S
C503 C502 1.385 . S
C504 C502 1.478 . S
C504 C506 1.381 . S
C504 C510 1.383 . S
C505 C501 1.495 . S
C505 H511 0.959 . S
C505 H512 0.961 . S
C505 H513 0.960 . S
C506 C504 1.381 . S
C506 C507 1.394 . S
C506 H514 0.930 . S
C507 C506 1.394 . S
C507 C508 1.383 . S
C507 H515 0.929 . S
C508 C507 1.383 . S
C508 C509 1.377 . S
C509 H493 0.930 . S
C509 C508 1.377 . S
C509 C510 1.379 . S
C510 H494 0.931 . S
C510 C504 1.383 . S
C510 C509 1.379 . S
H511 C505 0.959 . S
H512 C505 0.961 . S
H513 C505 0.960 . S
H514 C506 0.930 . S
H515 C507 0.929 . S
H516 C524 0.929 . S
H517 C526 0.930 . S
H518 C528 0.930 . S
H519 C531 0.929 . S
H520 C534 0.930 . S
H521 C536 0.960 . S
H522 C536 0.960 . S
H523 C536 0.960 . S
C524 H516 0.929 . S
C524 C525 1.377 . S
C524 C526 1.384 . S
C525 C524 1.377 . S
C525 C531 1.390 . S
C526 H517 0.930 . S
C526 C524 1.384 . S
C526 C527 1.372 . S
C527 C526 1.372 . S
C527 C528 1.400 . S
C527 C532 1.490 . S
C528 H518 0.930 . S
C528 C527 1.400 . S
C528 C531 1.386 . S
H529 C545 0.930 . S
H530 C546 0.931 . S
C531 H519 0.929 . S
C531 C525 1.390 . S
C531 C528 1.386 . S
C532 C527 1.490 . S
C532 C534 1.395 . S
C532 C535 1.403 . S
H533 C539 0.930 . S
C534 H520 0.930 . S
C534 C532 1.395 . S
C534 C537 1.403 . S
C535 C532 1.403 . S
C535 C536 1.524 . S
C535 C539 1.400 . S
C536 H521 0.960 . S
C536 H522 0.960 . S
C536 H523 0.960 . S
C536 C535 1.524 . S
C537 C534 1.403 . S
C537 C538 1.392 . S
C537 C541 1.495 . S
C538 C537 1.392 . S
C538 C539 1.385 . S
C538 C540 1.478 . S
C539 H533 0.930 . S
C539 C535 1.400 . S
C539 C538 1.385 . S
C540 C538 1.478 . S
C540 C542 1.381 . S
C540 C546 1.383 . S
C541 C537 1.495 . S
C541 H547 0.959 . S
C541 H548 0.961 . S
C541 H549 0.960 . S
C542 C540 1.381 . S
C542 C543 1.394 . S
C542 H550 0.930 . S
C543 C542 1.394 . S
C543 C544 1.383 . S
C543 H551 0.929 1_565 S
C544 C543 1.383 . S
C544 C545 1.377 . S
C545 H529 0.930 . S
C545 C544 1.377 . S
C545 C546 1.379 . S
C546 H530 0.931 . S
C546 C540 1.383 . S
C546 C545 1.379 . S
H547 C541 0.959 . S
H548 C541 0.961 . S
H549 C541 0.960 . S
H550 C542 0.930 . S
H551 C543 0.929 1_545 S
H552 C560 0.929 . S
H553 C562 0.930 . S
H554 C564 0.930 . S
H555 C567 0.929 . S
H556 C570 0.930 . S
H557 C572 0.960 . S
H558 C572 0.960 . S
H559 C572 0.960 . S
C560 H552 0.929 . S
C560 C561 1.377 . S
C560 C562 1.384 . S
C561 C560 1.377 . S
C561 C567 1.390 . S
C562 H553 0.930 . S
C562 C560 1.384 . S
C562 C563 1.372 . S
C563 C562 1.372 . S
C563 C564 1.400 . S
C563 C568 1.490 . S
C564 H554 0.930 . S
C564 C563 1.400 . S
C564 C567 1.386 . S
H565 C581 0.930 . S
H566 C582 0.931 . S
C567 H555 0.929 . S
C567 C561 1.390 . S
C567 C564 1.386 . S
C568 C563 1.490 . S
C568 C570 1.395 . S
C568 C571 1.403 . S
H569 C575 0.930 . S
C570 H556 0.930 . S
C570 C568 1.395 . S
C570 C573 1.403 . S
C571 C568 1.403 . S
C571 C572 1.524 . S
C571 C575 1.400 . S
C572 H557 0.960 . S
C572 H558 0.960 . S
C572 H559 0.960 . S
C572 C571 1.524 . S
C573 C570 1.403 . S
C573 C574 1.392 . S
C573 C577 1.495 . S
C574 C573 1.392 . S
C574 C575 1.385 . S
C574 C576 1.478 . S
C575 H569 0.930 . S
C575 C571 1.400 . S
C575 C574 1.385 . S
C576 C574 1.478 . S
C576 C578 1.381 . S
C576 C582 1.383 . S
C577 C573 1.495 . S
C577 H583 0.959 . S
C577 H584 0.961 . S
C577 H585 0.960 . S
C578 C576 1.381 . S
C578 C579 1.394 . S
C578 H586 0.930 . S
C579 C578 1.394 . S
C579 C580 1.383 . S
C579 H587 0.929 . S
C580 C579 1.383 . S
C580 C581 1.377 . S
C581 H565 0.930 . S
C581 C580 1.377 . S
C581 C582 1.379 . S
C582 H566 0.931 . S
C582 C576 1.383 . S
C582 C581 1.379 . S
H583 C577 0.959 . S
H584 C577 0.961 . S
H585 C577 0.960 . S
H586 C578 0.930 . S
H587 C579 0.929 . S
H588 C596 0.929 . S
H589 C598 0.930 . S
H590 C600 0.930 . S
H591 C603 0.929 . S
H592 C606 0.930 . S
H593 C608 0.960 . S
H594 C608 0.960 . S
H595 C608 0.960 . S
C596 H588 0.929 . S
C596 C597 1.377 . S
C596 C598 1.384 . S
C597 C596 1.377 . S
C597 C603 1.390 . S
C598 H589 0.930 . S
C598 C596 1.384 . S
C598 C599 1.372 . S
C599 C598 1.372 . S
C599 C600 1.400 . S
C599 C604 1.490 . S
C600 H590 0.930 . S
C600 C599 1.400 . S
C600 C603 1.386 . S
H601 C617 0.930 . S
H602 C618 0.931 . S
C603 H591 0.929 . S
C603 C597 1.390 . S
C603 C600 1.386 . S
C604 C599 1.490 . S
C604 C606 1.395 . S
C604 C607 1.403 . S
H605 C611 0.930 . S
C606 H592 0.930 . S
C606 C604 1.395 . S
C606 C609 1.403 . S
C607 C604 1.403 . S
C607 C608 1.524 . S
C607 C611 1.400 . S
C608 H593 0.960 . S
C608 H594 0.960 . S
C608 H595 0.960 . S
C608 C607 1.524 . S
C609 C606 1.403 . S
C609 C610 1.392 . S
C609 C613 1.495 . S
C610 C609 1.392 . S
C610 C611 1.385 . S
C610 C612 1.478 . S
C611 H605 0.930 . S
C611 C607 1.400 . S
C611 C610 1.385 . S
C612 C610 1.478 . S
C612 C614 1.381 . S
C612 C618 1.383 . S
C613 C609 1.495 . S
C613 H619 0.959 . S
C613 H620 0.961 . S
C613 H621 0.960 . S
C614 C612 1.381 . S
C614 C615 1.394 . S
C614 H622 0.930 . S
C615 C614 1.394 . S
C615 C616 1.383 . S
C615 H623 0.929 . S
C616 C615 1.383 . S
C616 C617 1.377 . S
C617 H601 0.930 . S
C617 C616 1.377 . S
C617 C618 1.379 . S
C618 H602 0.931 . S
C618 C612 1.383 . S
C618 C617 1.379 . S
H619 C613 0.959 . S
H620 C613 0.961 . S
H621 C613 0.960 . S
H622 C614 0.930 . S
H623 C615 0.929 . S
H624 C632 0.929 . S
H625 C634 0.930 . S
H626 C636 0.930 . S
H627 C639 0.929 . S
H628 C642 0.930 . S
H629 C644 0.960 . S
H630 C644 0.960 . S
H631 C644 0.960 . S
C632 H624 0.929 . S
C632 C633 1.377 . S
C632 C634 1.384 . S
C633 C632 1.377 . S
C633 C639 1.390 . S
C634 H625 0.930 . S
C634 C632 1.384 . S
C634 C635 1.372 . S
C635 C634 1.372 . S
C635 C636 1.400 . S
C635 C640 1.490 . S
C636 H626 0.930 . S
C636 C635 1.400 . S
C636 C639 1.386 . S
H637 C653 0.930 . S
H638 C654 0.931 . S
C639 H627 0.929 . S
C639 C633 1.390 . S
C639 C636 1.386 . S
C640 C635 1.490 . S
C640 C642 1.395 . S
C640 C643 1.403 . S
H641 C647 0.930 . S
C642 H628 0.930 . S
C642 C640 1.395 . S
C642 C645 1.403 . S
C643 C640 1.403 . S
C643 C644 1.524 . S
C643 C647 1.400 . S
C644 H629 0.960 . S
C644 H630 0.960 . S
C644 H631 0.960 . S
C644 C643 1.524 . S
C645 C642 1.403 . S
C645 C646 1.392 . S
C645 C649 1.495 . S
C646 C645 1.392 . S
C646 C647 1.385 . S
C646 C648 1.478 . S
C647 H641 0.930 . S
C647 C643 1.400 . S
C647 C646 1.385 . S
C648 C646 1.478 . S
C648 C650 1.381 . S
C648 C654 1.383 . S
C649 C645 1.495 . S
C649 H655 0.959 . S
C649 H656 0.961 . S
C649 H657 0.960 . S
C650 C648 1.381 . S
C650 C651 1.394 . S
C650 H658 0.930 . S
C651 C650 1.394 . S
C651 C652 1.383 . S
C651 H659 0.929 . S
C652 C651 1.383 . S
C652 C653 1.377 . S
C653 H637 0.930 . S
C653 C652 1.377 . S
C653 C654 1.379 . S
C654 H638 0.931 . S
C654 C648 1.383 . S
C654 C653 1.379 . S
H655 C649 0.959 . S
H656 C649 0.961 . S
H657 C649 0.960 . S
H658 C650 0.930 . S
H659 C651 0.929 . S
H660 C668 0.929 . S
H661 C670 0.930 . S
H662 C672 0.930 . S
H663 C675 0.929 . S
H664 C678 0.930 . S
H665 C680 0.960 . S
H666 C680 0.960 . S
H667 C680 0.960 . S
C668 H660 0.929 . S
C668 C669 1.377 . S
C668 C670 1.384 . S
C669 C668 1.377 . S
C669 C675 1.390 . S
C670 H661 0.930 . S
C670 C668 1.384 . S
C670 C671 1.372 . S
C671 C670 1.372 . S
C671 C672 1.400 . S
C671 C676 1.490 . S
C672 H662 0.930 . S
C672 C671 1.400 . S
C672 C675 1.386 . S
H673 C689 0.930 . S
H674 C690 0.931 . S
C675 H663 0.929 . S
C675 C669 1.390 . S
C675 C672 1.386 . S
C676 C671 1.490 . S
C676 C678 1.395 . S
C676 C679 1.403 . S
H677 C683 0.930 . S
C678 H664 0.930 . S
C678 C676 1.395 . S
C678 C681 1.403 . S
C679 C676 1.403 . S
C679 C680 1.524 . S
C679 C683 1.400 . S
C680 H665 0.960 . S
C680 H666 0.960 . S
C680 H667 0.960 . S
C680 C679 1.524 . S
C681 C678 1.403 . S
C681 C682 1.392 . S
C681 C685 1.495 . S
C682 C681 1.392 . S
C682 C683 1.385 . S
C682 C684 1.478 . S
C683 H677 0.930 . S
C683 C679 1.400 . S
C683 C682 1.385 . S
C684 C682 1.478 . S
C684 C686 1.381 . S
C684 C690 1.383 . S
C685 C681 1.495 . S
C685 H691 0.959 . S
C685 H692 0.961 . S
C685 H693 0.960 . S
C686 C684 1.381 . S
C686 C687 1.394 . S
C686 H694 0.930 . S
C687 C686 1.394 . S
C687 C688 1.383 . S
C687 H695 0.929 . S
C688 C687 1.383 . S
C688 C689 1.377 . S
C689 H673 0.930 . S
C689 C688 1.377 . S
C689 C690 1.379 . S
C690 H674 0.931 . S
C690 C684 1.383 . S
C690 C689 1.379 . S
H691 C685 0.959 . S
H692 C685 0.961 . S
H693 C685 0.960 . S
H694 C686 0.930 . S
H695 C687 0.929 . S
H696 C704 0.929 . S
H697 C706 0.930 . S
H698 C708 0.930 . S
H699 C711 0.929 . S
H700 C714 0.930 . S
H701 C716 0.960 . S
H702 C716 0.960 . S
H703 C716 0.960 . S
C704 H696 0.929 . S
C704 C705 1.377 . S
C704 C706 1.384 . S
C705 C704 1.377 . S
C705 C711 1.390 . S
C706 H697 0.930 . S
C706 C704 1.384 . S
C706 C707 1.372 . S
C707 C706 1.372 . S
C707 C708 1.400 . S
C707 C712 1.490 . S
C708 H698 0.930 . S
C708 C707 1.400 . S
C708 C711 1.386 . S
H709 C725 0.930 . S
H710 C726 0.931 . S
C711 H699 0.929 . S
C711 C705 1.390 . S
C711 C708 1.386 . S
C712 C707 1.490 . S
C712 C714 1.395 . S
C712 C715 1.403 . S
H713 C719 0.930 . S
C714 H700 0.930 . S
C714 C712 1.395 . S
C714 C717 1.403 . S
C715 C712 1.403 . S
C715 C716 1.524 . S
C715 C719 1.400 . S
C716 H701 0.960 . S
C716 H702 0.960 . S
C716 H703 0.960 . S
C716 C715 1.524 . S
C717 C714 1.403 . S
C717 C718 1.392 . S
C717 C721 1.495 . S
C718 C717 1.392 . S
C718 C719 1.385 . S
C718 C720 1.478 . S
C719 H713 0.930 . S
C719 C715 1.400 . S
C719 C718 1.385 . S
C720 C718 1.478 . S
C720 C722 1.381 . S
C720 C726 1.383 . S
C721 C717 1.495 . S
C721 H727 0.959 . S
C721 H728 0.961 . S
C721 H729 0.960 . S
C722 C720 1.381 . S
C722 C723 1.394 . S
C722 H730 0.930 . S
C723 C722 1.394 . S
C723 C724 1.383 . S
C723 H731 0.929 . S
C724 C723 1.383 . S
C724 C725 1.377 . S
C725 H709 0.930 . S
C725 C724 1.377 . S
C725 C726 1.379 . S
C726 H710 0.931 . S
C726 C720 1.383 . S
C726 C725 1.379 . S
H727 C721 0.959 . S
H728 C721 0.961 . S
H729 C721 0.960 . S
H730 C722 0.930 . S
H731 C723 0.929 . S
H732 C740 0.929 . S
H733 C742 0.930 . S
H734 C744 0.930 . S
H735 C747 0.929 . S
H736 C750 0.930 . S
H737 C752 0.960 . S
H738 C752 0.960 . S
H739 C752 0.960 . S
C740 H732 0.929 . S
C740 C741 1.377 . S
C740 C742 1.384 . S
C741 C740 1.377 . S
C741 C747 1.390 . S
C742 H733 0.930 . S
C742 C740 1.384 . S
C742 C743 1.372 . S
C743 C742 1.372 . S
C743 C744 1.400 . S
C743 C748 1.490 . S
C744 H734 0.930 . S
C744 C743 1.400 . S
C744 C747 1.386 . S
H745 C761 0.930 . S
H746 C762 0.931 . S
C747 H735 0.929 . S
C747 C741 1.390 . S
C747 C744 1.386 . S
C748 C743 1.490 . S
C748 C750 1.395 . S
C748 C751 1.403 . S
H749 C755 0.930 . S
C750 H736 0.930 . S
C750 C748 1.395 . S
C750 C753 1.403 . S
C751 C748 1.403 . S
C751 C752 1.524 . S
C751 C755 1.400 . S
C752 H737 0.960 . S
C752 H738 0.960 . S
C752 H739 0.960 . S
C752 C751 1.524 . S
C753 C750 1.403 . S
C753 C754 1.392 . S
C753 C757 1.495 . S
C754 C753 1.392 . S
C754 C755 1.385 . S
C754 C756 1.478 . S
C755 H749 0.930 . S
C755 C751 1.400 . S
C755 C754 1.385 . S
C756 C754 1.478 . S
C756 C758 1.381 . S
C756 C762 1.383 . S
C757 C753 1.495 . S
C757 H763 0.959 . S
C757 H764 0.961 . S
C757 H765 0.960 . S
C758 C756 1.381 . S
C758 C759 1.394 . S
C758 H766 0.930 . S
C759 C758 1.394 . S
C759 C760 1.383 . S
C759 H767 0.929 . S
C760 C759 1.383 . S
C760 C761 1.377 . S
C761 H745 0.930 . S
C761 C760 1.377 . S
C761 C762 1.379 . S
C762 H746 0.931 . S
C762 C756 1.383 . S
C762 C761 1.379 . S
H763 C757 0.959 . S
H764 C757 0.961 . S
H765 C757 0.960 . S
H766 C758 0.930 . S
H767 C759 0.929 . S
H768 C776 0.929 . S
H769 C778 0.930 . S
H770 C780 0.930 . S
H771 C783 0.929 . S
H772 C786 0.930 . S
H773 C788 0.960 . S
H774 C788 0.960 . S
H775 C788 0.960 . S
C776 H768 0.929 . S
C776 C777 1.377 . S
C776 C778 1.384 . S
C777 C776 1.377 . S
C777 C783 1.390 . S
C778 H769 0.930 . S
C778 C776 1.384 . S
C778 C779 1.372 . S
C779 C778 1.372 . S
C779 C780 1.400 . S
C779 C784 1.490 . S
C780 H770 0.930 . S
C780 C779 1.400 . S
C780 C783 1.386 . S
H781 C797 0.930 . S
H782 C798 0.931 . S
C783 H771 0.929 . S
C783 C777 1.390 . S
C783 C780 1.386 . S
C784 C779 1.490 . S
C784 C786 1.395 . S
C784 C787 1.403 . S
H785 C791 0.930 . S
C786 H772 0.930 . S
C786 C784 1.395 . S
C786 C789 1.403 . S
C787 C784 1.403 . S
C787 C788 1.524 . S
C787 C791 1.400 . S
C788 H773 0.960 . S
C788 H774 0.960 . S
C788 H775 0.960 . S
C788 C787 1.524 . S
C789 C786 1.403 . S
C789 C790 1.392 . S
C789 C793 1.495 . S
C790 C789 1.392 . S
C790 C791 1.385 . S
C790 C792 1.478 . S
C791 H785 0.930 . S
C791 C787 1.400 . S
C791 C790 1.385 . S
C792 C790 1.478 . S
C792 C794 1.381 . S
C792 C798 1.383 . S
C793 C789 1.495 . S
C793 H799 0.959 . S
C793 H800 0.961 . S
C793 H801 0.960 . S
C794 C792 1.381 . S
C794 C795 1.394 . S
C794 H802 0.930 . S
C795 C794 1.394 . S
C795 C796 1.383 . S
C795 H803 0.929 . S
C796 C795 1.383 . S
C796 C797 1.377 . S
C797 H781 0.930 . S
C797 C796 1.377 . S
C797 C798 1.379 . S
C798 H782 0.931 . S
C798 C792 1.383 . S
C798 C797 1.379 . S
H799 C793 0.959 . S
H800 C793 0.961 . S
H801 C793 0.960 . S
H802 C794 0.930 . S
H803 C795 0.929 . S
H804 C812 0.929 . S
H805 C814 0.930 . S
H806 C816 0.930 . S
H807 C819 0.929 . S
H808 C822 0.930 . S
H809 C824 0.960 . S
H810 C824 0.960 . S
H811 C824 0.960 . S
C812 H804 0.929 . S
C812 C813 1.377 . S
C812 C814 1.384 . S
C813 C812 1.377 . S
C813 C819 1.390 . S
C814 H805 0.930 . S
C814 C812 1.384 . S
C814 C815 1.372 . S
C815 C814 1.372 . S
C815 C816 1.400 . S
C815 C820 1.490 . S
C816 H806 0.930 . S
C816 C815 1.400 . S
C816 C819 1.386 . S
H817 C833 0.930 . S
H818 C834 0.931 . S
C819 H807 0.929 . S
C819 C813 1.390 . S
C819 C816 1.386 . S
C820 C815 1.490 . S
C820 C822 1.395 . S
C820 C823 1.403 . S
H821 C827 0.930 . S
C822 H808 0.930 . S
C822 C820 1.395 . S
C822 C825 1.403 . S
C823 C820 1.403 . S
C823 C824 1.524 . S
C823 C827 1.400 . S
C824 H809 0.960 . S
C824 H810 0.960 . S
C824 H811 0.960 . S
C824 C823 1.524 . S
C825 C822 1.403 . S
C825 C826 1.392 . S
C825 C829 1.495 . S
C826 C825 1.392 . S
C826 C827 1.385 . S
C826 C828 1.478 . S
C827 H821 0.930 . S
C827 C823 1.400 . S
C827 C826 1.385 . S
C828 C826 1.478 . S
C828 C830 1.381 . S
C828 C834 1.383 . S
C829 C825 1.495 . S
C829 H835 0.959 . S
C829 H836 0.961 . S
C829 H837 0.960 . S
C830 C828 1.381 . S
C830 C831 1.394 . S
C830 H838 0.930 . S
C831 C830 1.394 . S
C831 C832 1.383 . S
C831 H839 0.929 . S
C832 C831 1.383 . S
C832 C833 1.377 . S
C833 H817 0.930 . S
C833 C832 1.377 . S
C833 C834 1.379 . S
C834 H818 0.931 . S
C834 C828 1.383 . S
C834 C833 1.379 . S
H835 C829 0.959 . S
H836 C829 0.961 . S
H837 C829 0.960 . S
H838 C830 0.930 . S
H839 C831 0.929 . S
H840 C848 0.929 . S
H841 C850 0.930 . S
H842 C852 0.930 . S
H843 C855 0.929 . S
H844 C858 0.930 . S
H845 C860 0.960 . S
H846 C860 0.960 . S
H847 C860 0.960 . S
C848 H840 0.929 . S
C848 C849 1.377 . S
C848 C850 1.384 . S
C849 C848 1.377 . S
C849 C855 1.390 . S
C850 H841 0.930 . S
C850 C848 1.384 . S
C850 C851 1.372 . S
C851 C850 1.372 . S
C851 C852 1.400 . S
C851 C856 1.490 . S
C852 H842 0.930 . S
C852 C851 1.400 . S
C852 C855 1.386 . S
H853 C869 0.930 . S
H854 C870 0.931 . S
C855 H843 0.929 . S
C855 C849 1.390 . S
C855 C852 1.386 . S
C856 C851 1.490 . S
C856 C858 1.395 . S
C856 C859 1.403 . S
H857 C863 0.930 . S
C858 H844 0.930 . S
C858 C856 1.395 . S
C858 C861 1.403 . S
C859 C856 1.403 . S
C859 C860 1.524 . S
C859 C863 1.400 . S
C860 H845 0.960 . S
C860 H846 0.960 . S
C860 H847 0.960 . S
C860 C859 1.524 . S
C861 C858 1.403 . S
C861 C862 1.392 . S
C861 C865 1.495 . S
C862 C861 1.392 . S
C862 C863 1.385 . S
C862 C864 1.478 . S
C863 H857 0.930 . S
C863 C859 1.400 . S
C863 C862 1.385 . S
C864 C862 1.478 . S
C864 C866 1.381 . S
C864 C870 1.383 . S
C865 C861 1.495 . S
C865 H871 0.959 . S
C865 H872 0.961 . S
C865 H873 0.960 . S
C866 C864 1.381 . S
C866 C867 1.394 . S
C866 H874 0.930 . S
C867 C866 1.394 . S
C867 C868 1.383 . S
C867 H875 0.929 . S
C868 C867 1.383 . S
C868 C869 1.377 . S
C869 H853 0.930 . S
C869 C868 1.377 . S
C869 C870 1.379 . S
C870 H854 0.931 . S
C870 C864 1.383 . S
C870 C869 1.379 . S
H871 C865 0.959 . S
H872 C865 0.961 . S
H873 C865 0.960 . S
H874 C866 0.930 . S
H875 C867 0.929 . S
H876 C884 0.929 . S
H877 C886 0.930 . S
H878 C888 0.930 . S
H879 C891 0.929 . S
H880 C894 0.930 . S
H881 C896 0.960 . S
H882 C896 0.960 . S
H883 C896 0.960 . S
C884 H876 0.929 . S
C884 C885 1.377 . S
C884 C886 1.384 . S
C885 C884 1.377 . S
C885 C891 1.390 . S
C886 H877 0.930 . S
C886 C884 1.384 . S
C886 C887 1.372 . S
C887 C886 1.372 . S
C887 C888 1.400 . S
C887 C892 1.490 . S
C888 H878 0.930 . S
C888 C887 1.400 . S
C888 C891 1.386 . S
H889 C905 0.930 . S
H890 C906 0.931 . S
C891 H879 0.929 . S
C891 C885 1.390 . S
C891 C888 1.386 . S
C892 C887 1.490 . S
C892 C894 1.395 . S
C892 C895 1.403 . S
H893 C899 0.930 . S
C894 H880 0.930 . S
C894 C892 1.395 . S
C894 C897 1.403 . S
C895 C892 1.403 . S
C895 C896 1.524 . S
C895 C899 1.400 . S
C896 H881 0.960 . S
C896 H882 0.960 . S
C896 H883 0.960 . S
C896 C895 1.524 . S
C897 C894 1.403 . S
C897 C898 1.392 . S
C897 C901 1.495 . S
C898 C897 1.392 . S
C898 C899 1.385 . S
C898 C900 1.478 . S
C899 H893 0.930 . S
C899 C895 1.400 . S
C899 C898 1.385 . S
C900 C898 1.478 . S
C900 C902 1.381 . S
C900 C906 1.383 . S
C901 C897 1.495 . S
C901 H907 0.959 . S
C901 H908 0.961 . S
C901 H909 0.960 . S
C902 C900 1.381 . S
C902 C903 1.394 . S
C902 H910 0.930 . S
C903 C902 1.394 . S
C903 C904 1.383 . S
C903 H911 0.929 . S
C904 C903 1.383 . S
C904 C905 1.377 . S
C905 H889 0.930 . S
C905 C904 1.377 . S
C905 C906 1.379 . S
C906 H890 0.931 . S
C906 C900 1.383 . S
C906 C905 1.379 . S
H907 C901 0.959 . S
H908 C901 0.961 . S
H909 C901 0.960 . S
H910 C902 0.930 . S
H911 C903 0.929 . S
H912 C920 0.929 . S
H913 C922 0.930 . S
H914 C924 0.930 . S
H915 C927 0.929 . S
H916 C930 0.930 . S
H917 C932 0.960 . S
H918 C932 0.960 . S
H919 C932 0.960 . S
C920 H912 0.929 . S
C920 C921 1.377 . S
C920 C922 1.384 . S
C921 C920 1.377 . S
C921 C927 1.390 . S
C922 H913 0.930 . S
C922 C920 1.384 . S
C922 C923 1.372 . S
C923 C922 1.372 . S
C923 C924 1.400 . S
C923 C928 1.490 . S
C924 H914 0.930 . S
C924 C923 1.400 . S
C924 C927 1.386 . S
H925 C941 0.930 . S
H926 C942 0.931 . S
C927 H915 0.929 . S
C927 C921 1.390 . S
C927 C924 1.386 . S
C928 C923 1.490 . S
C928 C930 1.395 . S
C928 C931 1.403 . S
H929 C935 0.930 . S
C930 H916 0.930 . S
C930 C928 1.395 . S
C930 C933 1.403 . S
C931 C928 1.403 . S
C931 C932 1.524 . S
C931 C935 1.400 . S
C932 H917 0.960 . S
C932 H918 0.960 . S
C932 H919 0.960 . S
C932 C931 1.524 . S
C933 C930 1.403 . S
C933 C934 1.392 . S
C933 C937 1.495 . S
C934 C933 1.392 . S
C934 C935 1.385 . S
C934 C936 1.478 . S
C935 H929 0.930 . S
C935 C931 1.400 . S
C935 C934 1.385 . S
C936 C934 1.478 . S
C936 C938 1.381 . S
C936 C942 1.383 . S
C937 C933 1.495 . S
C937 H943 0.959 . S
C937 H944 0.961 . S
C937 H945 0.960 . S
C938 C936 1.381 . S
C938 C939 1.394 . S
C938 H946 0.930 . S
C939 C938 1.394 . S
C939 C940 1.383 . S
C939 H947 0.929 . S
C940 C939 1.383 . S
C940 C941 1.377 . S
C941 H925 0.930 . S
C941 C940 1.377 . S
C941 C942 1.379 . S
C942 H926 0.931 . S
C942 C936 1.383 . S
C942 C941 1.379 . S
H943 C937 0.959 . S
H944 C937 0.961 . S
H945 C937 0.960 . S
H946 C938 0.930 . S
H947 C939 0.929 . S
H948 C956 0.929 . S
H949 C958 0.930 . S
H950 C960 0.930 . S
H951 C963 0.929 . S
H952 C966 0.930 . S
H953 C968 0.960 . S
H954 C968 0.960 . S
H955 C968 0.960 . S
C956 H948 0.929 . S
C956 C957 1.377 . S
C956 C958 1.384 . S
C957 C956 1.377 . S
C957 C963 1.390 . S
C958 H949 0.930 . S
C958 C956 1.384 . S
C958 C959 1.372 . S
C959 C958 1.372 . S
C959 C960 1.400 . S
C959 C964 1.490 . S
C960 H950 0.930 . S
C960 C959 1.400 . S
C960 C963 1.386 . S
H961 C977 0.930 . S
H962 C978 0.931 . S
C963 H951 0.929 . S
C963 C957 1.390 . S
C963 C960 1.386 . S
C964 C959 1.490 . S
C964 C966 1.395 . S
C964 C967 1.403 . S
H965 C971 0.930 . S
C966 H952 0.930 . S
C966 C964 1.395 . S
C966 C969 1.403 . S
C967 C964 1.403 . S
C967 C968 1.524 . S
C967 C971 1.400 . S
C968 H953 0.960 . S
C968 H954 0.960 . S
C968 H955 0.960 . S
C968 C967 1.524 . S
C969 C966 1.403 . S
C969 C970 1.392 . S
C969 C973 1.495 . S
C970 C969 1.392 . S
C970 C971 1.385 . S
C970 C972 1.478 . S
C971 H965 0.930 . S
C971 C967 1.400 . S
C971 C970 1.385 . S
C972 C970 1.478 . S
C972 C974 1.381 . S
C972 C978 1.383 . S
C973 C969 1.495 . S
C973 H979 0.959 . S
C973 H980 0.961 . S
C973 H981 0.960 . S
C974 C972 1.381 . S
C974 C975 1.394 . S
C974 H982 0.930 . S
C975 C974 1.394 . S
C975 C976 1.383 . S
C975 H983 0.929 . S
C976 C975 1.383 . S
C976 C977 1.377 . S
C977 H961 0.930 . S
C977 C976 1.377 . S
C977 C978 1.379 . S
C978 H962 0.931 . S
C978 C972 1.383 . S
C978 C977 1.379 . S
H979 C973 0.959 . S
H980 C973 0.961 . S
H981 C973 0.960 . S
H982 C974 0.930 . S
H983 C975 0.929 . S
H984 C992 0.929 . S
H985 C994 0.930 . S
H986 C996 0.930 . S
H987 C999 0.929 . S
H988 C1002 0.930 . S
H989 C1004 0.960 . S
H990 C1004 0.960 . S
H991 C1004 0.960 . S
C992 H984 0.929 . S
C992 C993 1.377 . S
C992 C994 1.384 . S
C993 C992 1.377 . S
C993 C999 1.390 . S
C994 H985 0.930 . S
C994 C992 1.384 . S
C994 C995 1.372 . S
C995 C994 1.372 . S
C995 C996 1.400 . S
C995 C1000 1.490 . S
C996 H986 0.930 . S
C996 C995 1.400 . S
C996 C999 1.386 . S
H997 C1013 0.930 . S
H998 C1014 0.931 . S
C999 H987 0.929 . S
C999 C993 1.390 . S
C999 C996 1.386 . S
C1000 C995 1.490 . S
C1000 C1002 1.395 . S
C1000 C1003 1.403 . S
H1001 C1007 0.930 . S
C1002 H988 0.930 . S
C1002 C1000 1.395 . S
C1002 C1005 1.403 . S
C1003 C1000 1.403 . S
C1003 C1004 1.524 . S
C1003 C1007 1.400 . S
C1004 H989 0.960 . S
C1004 H990 0.960 . S
C1004 H991 0.960 . S
C1004 C1003 1.524 . S
C1005 C1002 1.403 . S
C1005 C1006 1.392 . S
C1005 C1009 1.495 . S
C1006 C1005 1.392 . S
C1006 C1007 1.385 . S
C1006 C1008 1.478 . S
C1007 H1001 0.930 . S
C1007 C1003 1.400 . S
C1007 C1006 1.385 . S
C1008 C1006 1.478 . S
C1008 C1010 1.381 . S
C1008 C1014 1.383 . S
C1009 C1005 1.495 . S
C1009 H1015 0.959 . S
C1009 H1016 0.961 . S
C1009 H1017 0.960 . S
C1010 C1008 1.381 . S
C1010 C1011 1.394 . S
C1010 H1018 0.930 . S
C1011 C1010 1.394 . S
C1011 C1012 1.383 . S
C1011 H1019 0.929 . S
C1012 C1011 1.383 . S
C1012 C1013 1.377 . S
C1013 H997 0.930 . S
C1013 C1012 1.377 . S
C1013 C1014 1.379 . S
C1014 H998 0.931 . S
C1014 C1008 1.383 . S
C1014 C1013 1.379 . S
H1015 C1009 0.959 . S
H1016 C1009 0.961 . S
H1017 C1009 0.960 . S
H1018 C1010 0.930 . S
H1019 C1011 0.929 . S
H1020 C1028 0.929 . S
H1021 C1030 0.930 . S
H1022 C1032 0.930 . S
H1023 C1035 0.929 . S
H1024 C1038 0.930 . S
H1025 C1040 0.960 . S
H1026 C1040 0.960 . S
H1027 C1040 0.960 . S
C1028 H1020 0.929 . S
C1028 C1029 1.377 . S
C1028 C1030 1.384 . S
C1029 C1028 1.377 . S
C1029 C1035 1.390 . S
C1030 H1021 0.930 . S
C1030 C1028 1.384 . S
C1030 C1031 1.372 . S
C1031 C1030 1.372 . S
C1031 C1032 1.400 . S
C1031 C1036 1.490 . S
C1032 H1022 0.930 . S
C1032 C1031 1.400 . S
C1032 C1035 1.386 . S
H1033 C1049 0.930 . S
H1034 C1050 0.931 . S
C1035 H1023 0.929 . S
C1035 C1029 1.390 . S
C1035 C1032 1.386 . S
C1036 C1031 1.490 . S
C1036 C1038 1.395 . S
C1036 C1039 1.403 . S
H1037 C1043 0.930 . S
C1038 H1024 0.930 . S
C1038 C1036 1.395 . S
C1038 C1041 1.403 . S
C1039 C1036 1.403 . S
C1039 C1040 1.524 . S
C1039 C1043 1.400 . S
C1040 H1025 0.960 . S
C1040 H1026 0.960 . S
C1040 H1027 0.960 . S
C1040 C1039 1.524 . S
C1041 C1038 1.403 . S
C1041 C1042 1.392 . S
C1041 C1045 1.495 . S
C1042 C1041 1.392 . S
C1042 C1043 1.385 . S
C1042 C1044 1.478 . S
C1043 H1037 0.930 . S
C1043 C1039 1.400 . S
C1043 C1042 1.385 . S
C1044 C1042 1.478 . S
C1044 C1046 1.381 . S
C1044 C1050 1.383 . S
C1045 C1041 1.495 . S
C1045 H1051 0.959 . S
C1045 H1052 0.961 . S
C1045 H1053 0.960 . S
C1046 C1044 1.381 . S
C1046 C1047 1.394 . S
C1046 H1054 0.930 . S
C1047 C1046 1.394 . S
C1047 C1048 1.383 . S
C1047 H1055 0.929 . S
C1048 C1047 1.383 . S
C1048 C1049 1.377 . S
C1049 H1033 0.930 . S
C1049 C1048 1.377 . S
C1049 C1050 1.379 . S
C1050 H1034 0.931 . S
C1050 C1044 1.383 . S
C1050 C1049 1.379 . S
H1051 C1045 0.959 . S
H1052 C1045 0.961 . S
H1053 C1045 0.960 . S
H1054 C1046 0.930 . S
H1055 C1047 0.929 . S
H1056 C1064 0.929 . S
H1057 C1066 0.930 . S
H1058 C1068 0.930 . S
H1059 C1071 0.929 . S
H1060 C1074 0.930 . S
H1061 C1076 0.960 . S
H1062 C1076 0.960 . S
H1063 C1076 0.960 . S
C1064 H1056 0.929 . S
C1064 C1065 1.377 . S
C1064 C1066 1.384 . S
C1065 C1064 1.377 . S
C1065 C1071 1.390 . S
C1066 H1057 0.930 . S
C1066 C1064 1.384 . S
C1066 C1067 1.372 . S
C1067 C1066 1.372 . S
C1067 C1068 1.400 . S
C1067 C1072 1.490 . S
C1068 H1058 0.930 . S
C1068 C1067 1.400 . S
C1068 C1071 1.386 . S
H1069 C1085 0.930 . S
H1070 C1086 0.931 . S
C1071 H1059 0.929 . S
C1071 C1065 1.390 . S
C1071 C1068 1.386 . S
C1072 C1067 1.490 . S
C1072 C1074 1.395 . S
C1072 C1075 1.403 . S
H1073 C1079 0.930 . S
C1074 H1060 0.930 . S
C1074 C1072 1.395 . S
C1074 C1077 1.403 . S
C1075 C1072 1.403 . S
C1075 C1076 1.524 . S
C1075 C1079 1.400 . S
C1076 H1061 0.960 . S
C1076 H1062 0.960 . S
C1076 H1063 0.960 . S
C1076 C1075 1.524 . S
C1077 C1074 1.403 . S
C1077 C1078 1.392 . S
C1077 C1081 1.495 . S
C1078 C1077 1.392 . S
C1078 C1079 1.385 . S
C1078 C1080 1.478 . S
C1079 H1073 0.930 . S
C1079 C1075 1.400 . S
C1079 C1078 1.385 . S
C1080 C1078 1.478 . S
C1080 C1082 1.381 . S
C1080 C1086 1.383 . S
C1081 C1077 1.495 . S
C1081 H1087 0.959 . S
C1081 H1088 0.961 . S
C1081 H1089 0.960 . S
C1082 C1080 1.381 . S
C1082 C1083 1.394 . S
C1082 H1090 0.930 . S
C1083 C1082 1.394 . S
C1083 C1084 1.383 . S
C1083 H1091 0.929 . S
C1084 C1083 1.383 . S
C1084 C1085 1.377 . S
C1085 H1069 0.930 . S
C1085 C1084 1.377 . S
C1085 C1086 1.379 . S
C1086 H1070 0.931 . S
C1086 C1080 1.383 . S
C1086 C1085 1.379 . S
H1087 C1081 0.959 . S
H1088 C1081 0.961 . S
H1089 C1081 0.960 . S
H1090 C1082 0.930 . S
H1091 C1083 0.929 . S
H1092 C1100 0.929 . S
H1093 C1102 0.930 . S
H1094 C1104 0.930 . S
H1095 C1107 0.929 . S
H1096 C1110 0.930 . S
H1097 C1112 0.960 . S
H1098 C1112 0.960 . S
H1099 C1112 0.960 . S
C1100 H1092 0.929 . S
C1100 C1101 1.377 . S
C1100 C1102 1.384 . S
C1101 C1100 1.377 . S
C1101 C1107 1.390 . S
C1102 H1093 0.930 . S
C1102 C1100 1.384 . S
C1102 C1103 1.372 . S
C1103 C1102 1.372 . S
C1103 C1104 1.400 . S
C1103 C1108 1.490 . S
C1104 H1094 0.930 . S
C1104 C1103 1.400 . S
C1104 C1107 1.386 . S
H1105 C1121 0.930 . S
H1106 C1122 0.931 . S
C1107 H1095 0.929 . S
C1107 C1101 1.390 . S
C1107 C1104 1.386 . S
C1108 C1103 1.490 . S
C1108 C1110 1.395 . S
C1108 C1111 1.403 . S
H1109 C1115 0.930 . S
C1110 H1096 0.930 . S
C1110 C1108 1.395 . S
C1110 C1113 1.403 . S
C1111 C1108 1.403 . S
C1111 C1112 1.524 . S
C1111 C1115 1.400 . S
C1112 H1097 0.960 . S
C1112 H1098 0.960 . S
C1112 H1099 0.960 . S
C1112 C1111 1.524 . S
C1113 C1110 1.403 . S
C1113 C1114 1.392 . S
C1113 C1117 1.495 . S
C1114 C1113 1.392 . S
C1114 C1115 1.385 . S
C1114 C1116 1.478 . S
C1115 H1109 0.930 . S
C1115 C1111 1.400 . S
C1115 C1114 1.385 . S
C1116 C1114 1.478 . S
C1116 C1118 1.381 . S
C1116 C1122 1.383 . S
C1117 C1113 1.495 . S
C1117 H1123 0.959 . S
C1117 H1124 0.961 . S
C1117 H1125 0.960 . S
C1118 C1116 1.381 . S
C1118 C1119 1.394 . S
C1118 H1126 0.930 . S
C1119 C1118 1.394 . S
C1119 C1120 1.383 . S
C1119 H1127 0.929 . S
C1120 C1119 1.383 . S
C1120 C1121 1.377 . S
C1121 H1105 0.930 . S
C1121 C1120 1.377 . S
C1121 C1122 1.379 . S
C1122 H1106 0.931 . S
C1122 C1116 1.383 . S
C1122 C1121 1.379 . S
H1123 C1117 0.959 . S
H1124 C1117 0.961 . S
H1125 C1117 0.960 . S
H1126 C1118 0.930 . S
H1127 C1119 0.929 . S
H1128 C1136 0.929 . S
H1129 C1138 0.930 . S
H1130 C1140 0.930 . S
H1131 C1143 0.929 . S
H1132 C1146 0.930 . S
H1133 C1148 0.960 . S
H1134 C1148 0.960 . S
H1135 C1148 0.960 . S
C1136 H1128 0.929 . S
C1136 C1137 1.377 . S
C1136 C1138 1.384 . S
C1137 C1136 1.377 . S
C1137 C1143 1.390 . S
C1138 H1129 0.930 . S
C1138 C1136 1.384 . S
C1138 C1139 1.372 . S
C1139 C1138 1.372 . S
C1139 C1140 1.400 . S
C1139 C1144 1.490 . S
C1140 H1130 0.930 . S
C1140 C1139 1.400 . S
C1140 C1143 1.386 . S
H1141 C1157 0.930 . S
H1142 C1158 0.931 . S
C1143 H1131 0.929 . S
C1143 C1137 1.390 . S
C1143 C1140 1.386 . S
C1144 C1139 1.490 . S
C1144 C1146 1.395 . S
C1144 C1147 1.403 . S
H1145 C1151 0.930 . S
C1146 H1132 0.930 . S
C1146 C1144 1.395 . S
C1146 C1149 1.403 . S
C1147 C1144 1.403 . S
C1147 C1148 1.524 . S
C1147 C1151 1.400 . S
C1148 H1133 0.960 . S
C1148 H1134 0.960 . S
C1148 H1135 0.960 . S
C1148 C1147 1.524 . S
C1149 C1146 1.403 . S
C1149 C1150 1.392 . S
C1149 C1153 1.495 . S
C1150 C1149 1.392 . S
C1150 C1151 1.385 . S
C1150 C1152 1.478 . S
C1151 H1145 0.930 . S
C1151 C1147 1.400 . S
C1151 C1150 1.385 . S
C1152 C1150 1.478 . S
C1152 C1154 1.381 . S
C1152 C1158 1.383 . S
C1153 C1149 1.495 . S
C1153 H1159 0.959 . S
C1153 H1160 0.961 . S
C1153 H1161 0.960 . S
C1154 C1152 1.381 . S
C1154 C1155 1.394 . S
C1154 H1162 0.930 . S
C1155 C1154 1.394 . S
C1155 C1156 1.383 . S
C1155 H1163 0.929 . S
C1156 C1155 1.383 . S
C1156 C1157 1.377 . S
C1157 H1141 0.930 . S
C1157 C1156 1.377 . S
C1157 C1158 1.379 . S
C1158 H1142 0.931 . S
C1158 C1152 1.383 . S
C1158 C1157 1.379 . S
H1159 C1153 0.959 . S
H1160 C1153 0.961 . S
H1161 C1153 0.960 . S
H1162 C1154 0.930 . S
H1163 C1155 0.929 . S
H1164 C1172 0.929 . S
H1165 C1174 0.930 . S
H1166 C1176 0.930 . S
H1167 C1179 0.929 . S
H1168 C1182 0.930 . S
H1169 C1184 0.960 . S
H1170 C1184 0.960 . S
H1171 C1184 0.960 . S
C1172 H1164 0.929 . S
C1172 C1173 1.377 . S
C1172 C1174 1.384 . S
C1173 C1172 1.377 . S
C1173 C1179 1.390 . S
C1174 H1165 0.930 . S
C1174 C1172 1.384 . S
C1174 C1175 1.372 . S
C1175 C1174 1.372 . S
C1175 C1176 1.400 . S
C1175 C1180 1.490 . S
C1176 H1166 0.930 . S
C1176 C1175 1.400 . S
C1176 C1179 1.386 . S
H1177 C1193 0.930 . S
H1178 C1194 0.931 . S
C1179 H1167 0.929 . S
C1179 C1173 1.390 . S
C1179 C1176 1.386 . S
C1180 C1175 1.490 . S
C1180 C1182 1.395 . S
C1180 C1183 1.403 . S
H1181 C1187 0.930 . S
C1182 H1168 0.930 . S
C1182 C1180 1.395 . S
C1182 C1185 1.403 . S
C1183 C1180 1.403 . S
C1183 C1184 1.524 . S
C1183 C1187 1.400 . S
C1184 H1169 0.960 . S
C1184 H1170 0.960 . S
C1184 H1171 0.960 . S
C1184 C1183 1.524 . S
C1185 C1182 1.403 . S
C1185 C1186 1.392 . S
C1185 C1189 1.495 . S
C1186 C1185 1.392 . S
C1186 C1187 1.385 . S
C1186 C1188 1.478 . S
C1187 H1181 0.930 . S
C1187 C1183 1.400 . S
C1187 C1186 1.385 . S
C1188 C1186 1.478 . S
C1188 C1190 1.381 . S
C1188 C1194 1.383 . S
C1189 C1185 1.495 . S
C1189 H1195 0.959 . S
C1189 H1196 0.961 . S
C1189 H1197 0.960 . S
C1190 C1188 1.381 . S
C1190 C1191 1.394 . S
C1190 H1198 0.930 . S
C1191 C1190 1.394 . S
C1191 C1192 1.383 . S
C1191 H1199 0.929 . S
C1192 C1191 1.383 . S
C1192 C1193 1.377 . S
C1193 H1177 0.930 . S
C1193 C1192 1.377 . S
C1193 C1194 1.379 . S
C1194 H1178 0.931 . S
C1194 C1188 1.383 . S
C1194 C1193 1.379 . S
H1195 C1189 0.959 . S
H1196 C1189 0.961 . S
H1197 C1189 0.960 . S
H1198 C1190 0.930 . S
H1199 C1191 0.929 . S
H1200 C1208 0.929 . S
H1201 C1210 0.930 . S
H1202 C1212 0.930 . S
H1203 C1215 0.929 1_545 S
H1204 C1218 0.930 . S
H1205 C1220 0.960 . S
H1206 C1220 0.960 . S
H1207 C1220 0.960 . S
C1208 H1200 0.929 . S
C1208 C1209 1.377 . S
C1208 C1210 1.384 . S
C1209 C1208 1.377 . S
C1209 C1215 1.390 . S
C1210 H1201 0.930 . S
C1210 C1208 1.384 . S
C1210 C1211 1.372 . S
C1211 C1210 1.372 . S
C1211 C1212 1.400 . S
C1211 C1216 1.490 . S
C1212 H1202 0.930 . S
C1212 C1211 1.400 . S
C1212 C1215 1.386 . S
H1213 C1229 0.930 . S
H1214 C1230 0.931 . S
C1215 H1203 0.929 1_565 S
C1215 C1209 1.390 . S
C1215 C1212 1.386 . S
C1216 C1211 1.490 . S
C1216 C1218 1.395 . S
C1216 C1219 1.403 . S
H1217 C1223 0.930 . S
C1218 H1204 0.930 . S
C1218 C1216 1.395 . S
C1218 C1221 1.403 . S
C1219 C1216 1.403 . S
C1219 C1220 1.524 . S
C1219 C1223 1.400 . S
C1220 H1205 0.960 . S
C1220 H1206 0.960 . S
C1220 H1207 0.960 . S
C1220 C1219 1.524 . S
C1221 C1218 1.403 . S
C1221 C1222 1.392 . S
C1221 C1225 1.495 . S
C1222 C1221 1.392 . S
C1222 C1223 1.385 . S
C1222 C1224 1.478 . S
C1223 H1217 0.930 . S
C1223 C1219 1.400 . S
C1223 C1222 1.385 . S
C1224 C1222 1.478 . S
C1224 C1226 1.381 . S
C1224 C1230 1.383 . S
C1225 C1221 1.495 . S
C1225 H1231 0.959 . S
C1225 H1232 0.961 . S
C1225 H1233 0.960 . S
C1226 C1224 1.381 . S
C1226 C1227 1.394 . S
C1226 H1234 0.930 . S
C1227 C1226 1.394 . S
C1227 C1228 1.383 . S
C1227 H1235 0.929 . S
C1228 C1227 1.383 . S
C1228 C1229 1.377 . S
C1229 H1213 0.930 . S
C1229 C1228 1.377 . S
C1229 C1230 1.379 . S
C1230 H1214 0.931 . S
C1230 C1224 1.383 . S
C1230 C1229 1.379 . S
H1231 C1225 0.959 . S
H1232 C1225 0.961 . S
H1233 C1225 0.960 . S
H1234 C1226 0.930 . S
H1235 C1227 0.929 . S
H1236 C1244 0.929 . S
H1237 C1246 0.930 . S
H1238 C1248 0.930 . S
H1239 C1251 0.929 . S
H1240 C1254 0.930 . S
H1241 C1256 0.960 . S
H1242 C1256 0.960 . S
H1243 C1256 0.960 . S
C1244 H1236 0.929 . S
C1244 C1245 1.377 . S
C1244 C1246 1.384 . S
C1245 C1244 1.377 . S
C1245 C1251 1.390 . S
C1246 H1237 0.930 . S
C1246 C1244 1.384 . S
C1246 C1247 1.372 . S
C1247 C1246 1.372 . S
C1247 C1248 1.400 . S
C1247 C1252 1.490 . S
C1248 H1238 0.930 . S
C1248 C1247 1.400 . S
C1248 C1251 1.386 . S
H1249 C1265 0.930 . S
H1250 C1266 0.931 . S
C1251 H1239 0.929 . S
C1251 C1245 1.390 . S
C1251 C1248 1.386 . S
C1252 C1247 1.490 . S
C1252 C1254 1.395 . S
C1252 C1255 1.403 . S
H1253 C1259 0.930 . S
C1254 H1240 0.930 . S
C1254 C1252 1.395 . S
C1254 C1257 1.403 . S
C1255 C1252 1.403 . S
C1255 C1256 1.524 . S
C1255 C1259 1.400 . S
C1256 H1241 0.960 . S
C1256 H1242 0.960 . S
C1256 H1243 0.960 . S
C1256 C1255 1.524 . S
C1257 C1254 1.403 . S
C1257 C1258 1.392 . S
C1257 C1261 1.495 . S
C1258 C1257 1.392 . S
C1258 C1259 1.385 . S
C1258 C1260 1.478 . S
C1259 H1253 0.930 . S
C1259 C1255 1.400 . S
C1259 C1258 1.385 . S
C1260 C1258 1.478 . S
C1260 C1262 1.381 . S
C1260 C1266 1.383 . S
C1261 C1257 1.495 . S
C1261 H1267 0.959 . S
C1261 H1268 0.961 . S
C1261 H1269 0.960 . S
C1262 C1260 1.381 . S
C1262 C1263 1.394 . S
C1262 H1270 0.930 . S
C1263 C1262 1.394 . S
C1263 C1264 1.383 . S
C1263 H1271 0.929 . S
C1264 C1263 1.383 . S
C1264 C1265 1.377 . S
C1265 H1249 0.930 . S
C1265 C1264 1.377 . S
C1265 C1266 1.379 . S
C1266 H1250 0.931 . S
C1266 C1260 1.383 . S
C1266 C1265 1.379 . S
H1267 C1261 0.959 . S
H1268 C1261 0.961 . S
H1269 C1261 0.960 . S
H1270 C1262 0.930 . S
H1271 C1263 0.929 . S
H1272 C1280 0.929 . S
H1273 C1282 0.930 . S
H1274 C1284 0.930 . S
H1275 C1287 0.929 . S
H1276 C1290 0.930 . S
H1277 C1292 0.960 . S
H1278 C1292 0.960 . S
H1279 C1292 0.960 . S
C1280 H1272 0.929 . S
C1280 C1281 1.377 . S
C1280 C1282 1.384 . S
C1281 C1280 1.377 . S
C1281 C1287 1.390 . S
C1282 H1273 0.930 . S
C1282 C1280 1.384 . S
C1282 C1283 1.372 . S
C1283 C1282 1.372 . S
C1283 C1284 1.400 . S
C1283 C1288 1.490 . S
C1284 H1274 0.930 . S
C1284 C1283 1.400 . S
C1284 C1287 1.386 . S
H1285 C1301 0.930 . S
H1286 C1302 0.931 . S
C1287 H1275 0.929 . S
C1287 C1281 1.390 . S
C1287 C1284 1.386 . S
C1288 C1283 1.490 . S
C1288 C1290 1.395 . S
C1288 C1291 1.403 . S
H1289 C1295 0.930 . S
C1290 H1276 0.930 . S
C1290 C1288 1.395 . S
C1290 C1293 1.403 . S
C1291 C1288 1.403 . S
C1291 C1292 1.524 . S
C1291 C1295 1.400 . S
C1292 H1277 0.960 . S
C1292 H1278 0.960 . S
C1292 H1279 0.960 . S
C1292 C1291 1.524 . S
C1293 C1290 1.403 . S
C1293 C1294 1.392 . S
C1293 C1297 1.495 . S
C1294 C1293 1.392 . S
C1294 C1295 1.385 . S
C1294 C1296 1.478 . S
C1295 H1289 0.930 . S
C1295 C1291 1.400 . S
C1295 C1294 1.385 . S
C1296 C1294 1.478 . S
C1296 C1298 1.381 . S
C1296 C1302 1.383 . S
C1297 C1293 1.495 . S
C1297 H1303 0.959 . S
C1297 H1304 0.961 . S
C1297 H1305 0.960 . S
C1298 C1296 1.381 . S
C1298 C1299 1.394 . S
C1298 H1306 0.930 . S
C1299 C1298 1.394 . S
C1299 C1300 1.383 . S
C1299 H1307 0.929 . S
C1300 C1299 1.383 . S
C1300 C1301 1.377 . S
C1301 H1285 0.930 . S
C1301 C1300 1.377 . S
C1301 C1302 1.379 . S
C1302 H1286 0.931 . S
C1302 C1296 1.383 . S
C1302 C1301 1.379 . S
H1303 C1297 0.959 . S
H1304 C1297 0.961 . S
H1305 C1297 0.960 . S
H1306 C1298 0.930 . S
H1307 C1299 0.929 . S
H1308 C1316 0.929 . S
H1309 C1318 0.930 . S
H1310 C1320 0.930 . S
H1311 C1323 0.929 . S
H1312 C1326 0.930 . S
H1313 C1328 0.960 . S
H1314 C1328 0.960 . S
H1315 C1328 0.960 . S
C1316 H1308 0.929 . S
C1316 C1317 1.377 . S
C1316 C1318 1.384 . S
C1317 C1316 1.377 . S
C1317 C1323 1.390 . S
C1318 H1309 0.930 . S
C1318 C1316 1.384 . S
C1318 C1319 1.372 . S
C1319 C1318 1.372 . S
C1319 C1320 1.400 . S
C1319 C1324 1.490 . S
C1320 H1310 0.930 . S
C1320 C1319 1.400 . S
C1320 C1323 1.386 . S
H1321 C1337 0.930 . S
H1322 C1338 0.931 . S
C1323 H1311 0.929 . S
C1323 C1317 1.390 . S
C1323 C1320 1.386 . S
C1324 C1319 1.490 . S
C1324 C1326 1.395 . S
C1324 C1327 1.403 . S
H1325 C1331 0.930 . S
C1326 H1312 0.930 . S
C1326 C1324 1.395 . S
C1326 C1329 1.403 . S
C1327 C1324 1.403 . S
C1327 C1328 1.524 . S
C1327 C1331 1.400 . S
C1328 H1313 0.960 . S
C1328 H1314 0.960 . S
C1328 H1315 0.960 . S
C1328 C1327 1.524 . S
C1329 C1326 1.403 . S
C1329 C1330 1.392 . S
C1329 C1333 1.495 . S
C1330 C1329 1.392 . S
C1330 C1331 1.385 . S
C1330 C1332 1.478 . S
C1331 H1325 0.930 . S
C1331 C1327 1.400 . S
C1331 C1330 1.385 . S
C1332 C1330 1.478 . S
C1332 C1334 1.381 . S
C1332 C1338 1.383 . S
C1333 C1329 1.495 . S
C1333 H1339 0.959 . S
C1333 H1340 0.961 . S
C1333 H1341 0.960 . S
C1334 C1332 1.381 . S
C1334 C1335 1.394 . S
C1334 H1342 0.930 . S
C1335 C1334 1.394 . S
C1335 C1336 1.383 . S
C1335 H1343 0.929 . S
C1336 C1335 1.383 . S
C1336 C1337 1.377 . S
C1337 H1321 0.930 . S
C1337 C1336 1.377 . S
C1337 C1338 1.379 . S
C1338 H1322 0.931 . S
C1338 C1332 1.383 . S
C1338 C1337 1.379 . S
H1339 C1333 0.959 . S
H1340 C1333 0.961 . S
H1341 C1333 0.960 . S
H1342 C1334 0.930 . S
H1343 C1335 0.929 . S
H1344 C1352 0.929 1_545 S
H1345 C1354 0.930 . S
H1346 C1356 0.930 . S
H1347 C1359 0.929 . S
H1348 C1362 0.930 . S
H1349 C1364 0.960 . S
H1350 C1364 0.960 . S
H1351 C1364 0.960 . S
C1352 H1344 0.929 1_565 S
C1352 C1353 1.377 . S
C1352 C1354 1.384 . S
C1353 C1352 1.377 . S
C1353 C1359 1.390 . S
C1354 H1345 0.930 . S
C1354 C1352 1.384 . S
C1354 C1355 1.372 . S
C1355 C1354 1.372 . S
C1355 C1356 1.400 . S
C1355 C1360 1.490 . S
C1356 H1346 0.930 . S
C1356 C1355 1.400 . S
C1356 C1359 1.386 . S
H1357 C1373 0.930 . S
H1358 C1374 0.931 . S
C1359 H1347 0.929 . S
C1359 C1353 1.390 . S
C1359 C1356 1.386 . S
C1360 C1355 1.490 . S
C1360 C1362 1.395 . S
C1360 C1363 1.403 . S
H1361 C1367 0.930 . S
C1362 H1348 0.930 . S
C1362 C1360 1.395 . S
C1362 C1365 1.403 . S
C1363 C1360 1.403 . S
C1363 C1364 1.524 . S
C1363 C1367 1.400 . S
C1364 H1349 0.960 . S
C1364 H1350 0.960 . S
C1364 H1351 0.960 . S
C1364 C1363 1.524 . S
C1365 C1362 1.403 . S
C1365 C1366 1.392 . S
C1365 C1369 1.495 . S
C1366 C1365 1.392 . S
C1366 C1367 1.385 . S
C1366 C1368 1.478 . S
C1367 H1361 0.930 . S
C1367 C1363 1.400 . S
C1367 C1366 1.385 . S
C1368 C1366 1.478 . S
C1368 C1370 1.381 . S
C1368 C1374 1.383 . S
C1369 C1365 1.495 . S
C1369 H1375 0.959 . S
C1369 H1376 0.961 . S
C1369 H1377 0.960 . S
C1370 C1368 1.381 . S
C1370 C1371 1.394 . S
C1370 H1378 0.930 . S
C1371 C1370 1.394 . S
C1371 C1372 1.383 . S
C1371 H1379 0.929 . S
C1372 C1371 1.383 . S
C1372 C1373 1.377 . S
C1373 H1357 0.930 . S
C1373 C1372 1.377 . S
C1373 C1374 1.379 . S
C1374 H1358 0.931 . S
C1374 C1368 1.383 . S
C1374 C1373 1.379 . S
H1375 C1369 0.959 . S
H1376 C1369 0.961 . S
H1377 C1369 0.960 . S
H1378 C1370 0.930 . S
H1379 C1371 0.929 . S
H1380 C1388 0.929 . S
H1381 C1390 0.930 . S
H1382 C1392 0.930 . S
H1383 C1395 0.929 . S
H1384 C1398 0.930 . S
H1385 C1400 0.960 . S
H1386 C1400 0.960 . S
H1387 C1400 0.960 . S
C1388 H1380 0.929 . S
C1388 C1389 1.377 . S
C1388 C1390 1.384 . S
C1389 C1388 1.377 . S
C1389 C1395 1.390 . S
C1390 H1381 0.930 . S
C1390 C1388 1.384 . S
C1390 C1391 1.372 . S
C1391 C1390 1.372 . S
C1391 C1392 1.400 . S
C1391 C1396 1.490 . S
C1392 H1382 0.930 . S
C1392 C1391 1.400 . S
C1392 C1395 1.386 . S
H1393 C1409 0.930 . S
H1394 C1410 0.931 . S
C1395 H1383 0.929 . S
C1395 C1389 1.390 . S
C1395 C1392 1.386 . S
C1396 C1391 1.490 . S
C1396 C1398 1.395 . S
C1396 C1399 1.403 . S
H1397 C1403 0.930 . S
C1398 H1384 0.930 . S
C1398 C1396 1.395 . S
C1398 C1401 1.403 . S
C1399 C1396 1.403 . S
C1399 C1400 1.524 . S
C1399 C1403 1.400 . S
C1400 H1385 0.960 . S
C1400 H1386 0.960 . S
C1400 H1387 0.960 . S
C1400 C1399 1.524 . S
C1401 C1398 1.403 . S
C1401 C1402 1.392 . S
C1401 C1405 1.495 . S
C1402 C1401 1.392 . S
C1402 C1403 1.385 . S
C1402 C1404 1.478 . S
C1403 H1397 0.930 . S
C1403 C1399 1.400 . S
C1403 C1402 1.385 . S
C1404 C1402 1.478 . S
C1404 C1406 1.381 . S
C1404 C1410 1.383 . S
C1405 C1401 1.495 . S
C1405 H1411 0.959 . S
C1405 H1412 0.961 . S
C1405 H1413 0.960 . S
C1406 C1404 1.381 . S
C1406 C1407 1.394 . S
C1406 H1414 0.930 . S
C1407 C1406 1.394 . S
C1407 C1408 1.383 . S
C1407 H1415 0.929 . S
C1408 C1407 1.383 . S
C1408 C1409 1.377 . S
C1409 H1393 0.930 . S
C1409 C1408 1.377 . S
C1409 C1410 1.379 . S
C1410 H1394 0.931 . S
C1410 C1404 1.383 . S
C1410 C1409 1.379 . S
H1411 C1405 0.959 . S
H1412 C1405 0.961 . S
H1413 C1405 0.960 . S
H1414 C1406 0.930 . S
H1415 C1407 0.929 . S
H1416 C1424 0.929 . S
H1417 C1426 0.930 . S
H1418 C1428 0.930 . S
H1419 C1431 0.929 . S
H1420 C1434 0.930 . S
H1421 C1436 0.960 . S
H1422 C1436 0.960 . S
H1423 C1436 0.960 . S
C1424 H1416 0.929 . S
C1424 C1425 1.377 . S
C1424 C1426 1.384 . S
C1425 C1424 1.377 . S
C1425 C1431 1.390 . S
C1426 H1417 0.930 . S
C1426 C1424 1.384 . S
C1426 C1427 1.372 . S
C1427 C1426 1.372 . S
C1427 C1428 1.400 . S
C1427 C1432 1.490 . S
C1428 H1418 0.930 . S
C1428 C1427 1.400 . S
C1428 C1431 1.386 . S
H1429 C1445 0.930 . S
H1430 C1446 0.931 . S
C1431 H1419 0.929 . S
C1431 C1425 1.390 . S
C1431 C1428 1.386 . S
C1432 C1427 1.490 . S
C1432 C1434 1.395 . S
C1432 C1435 1.403 . S
H1433 C1439 0.930 . S
C1434 H1420 0.930 . S
C1434 C1432 1.395 . S
C1434 C1437 1.403 . S
C1435 C1432 1.403 . S
C1435 C1436 1.524 . S
C1435 C1439 1.400 . S
C1436 H1421 0.960 . S
C1436 H1422 0.960 . S
C1436 H1423 0.960 . S
C1436 C1435 1.524 . S
C1437 C1434 1.403 . S
C1437 C1438 1.392 . S
C1437 C1441 1.495 . S
C1438 C1437 1.392 . S
C1438 C1439 1.385 . S
C1438 C1440 1.478 . S
C1439 H1433 0.930 . S
C1439 C1435 1.400 . S
C1439 C1438 1.385 . S
C1440 C1438 1.478 . S
C1440 C1442 1.381 . S
C1440 C1446 1.383 . S
C1441 C1437 1.495 . S
C1441 H1447 0.959 . S
C1441 H1448 0.961 . S
C1441 H1449 0.960 . S
C1442 C1440 1.381 . S
C1442 C1443 1.394 . S
C1442 H1450 0.930 . S
C1443 C1442 1.394 . S
C1443 C1444 1.383 . S
C1443 H1451 0.929 . S
C1444 C1443 1.383 . S
C1444 C1445 1.377 . S
C1445 H1429 0.930 . S
C1445 C1444 1.377 . S
C1445 C1446 1.379 . S
C1446 H1430 0.931 . S
C1446 C1440 1.383 . S
C1446 C1445 1.379 . S
H1447 C1441 0.959 . S
H1448 C1441 0.961 . S
H1449 C1441 0.960 . S
H1450 C1442 0.930 . S
H1451 C1443 0.929 . S
H1452 C1460 0.929 . S
H1453 C1462 0.930 . S
H1454 C1464 0.930 . S
H1455 C1467 0.929 . S
H1456 C1470 0.930 . S
H1457 C1472 0.960 . S
H1458 C1472 0.960 . S
H1459 C1472 0.960 . S
C1460 H1452 0.929 . S
C1460 C1461 1.377 . S
C1460 C1462 1.384 . S
C1461 C1460 1.377 . S
C1461 C1467 1.390 . S
C1462 H1453 0.930 . S
C1462 C1460 1.384 . S
C1462 C1463 1.372 . S
C1463 C1462 1.372 . S
C1463 C1464 1.400 . S
C1463 C1468 1.490 . S
C1464 H1454 0.930 . S
C1464 C1463 1.400 . S
C1464 C1467 1.386 . S
H1465 C1481 0.930 . S
H1466 C1482 0.931 . S
C1467 H1455 0.929 . S
C1467 C1461 1.390 . S
C1467 C1464 1.386 . S
C1468 C1463 1.490 . S
C1468 C1470 1.395 . S
C1468 C1471 1.403 . S
H1469 C1475 0.930 . S
C1470 H1456 0.930 . S
C1470 C1468 1.395 . S
C1470 C1473 1.403 . S
C1471 C1468 1.403 . S
C1471 C1472 1.524 . S
C1471 C1475 1.400 . S
C1472 H1457 0.960 . S
C1472 H1458 0.960 . S
C1472 H1459 0.960 . S
C1472 C1471 1.524 . S
C1473 C1470 1.403 . S
C1473 C1474 1.392 . S
C1473 C1477 1.495 . S
C1474 C1473 1.392 . S
C1474 C1475 1.385 . S
C1474 C1476 1.478 . S
C1475 H1469 0.930 . S
C1475 C1471 1.400 . S
C1475 C1474 1.385 . S
C1476 C1474 1.478 . S
C1476 C1478 1.381 . S
C1476 C1482 1.383 . S
C1477 C1473 1.495 . S
C1477 H1483 0.959 . S
C1477 H1484 0.961 . S
C1477 H1485 0.960 . S
C1478 C1476 1.381 . S
C1478 C1479 1.394 . S
C1478 H1486 0.930 . S
C1479 C1478 1.394 . S
C1479 C1480 1.383 . S
C1479 H1487 0.929 . S
C1480 C1479 1.383 . S
C1480 C1481 1.377 . S
C1481 H1465 0.930 . S
C1481 C1480 1.377 . S
C1481 C1482 1.379 . S
C1482 H1466 0.931 . S
C1482 C1476 1.383 . S
C1482 C1481 1.379 . S
H1483 C1477 0.959 . S
H1484 C1477 0.961 . S
H1485 C1477 0.960 . S
H1486 C1478 0.930 . S
H1487 C1479 0.929 . S
H1488 C1496 0.929 . S
H1489 C1498 0.930 . S
H1490 C1500 0.930 . S
H1491 C1503 0.929 . S
H1492 C1506 0.930 . S
H1493 C1508 0.960 . S
H1494 C1508 0.960 . S
H1495 C1508 0.960 . S
C1496 H1488 0.929 . S
C1496 C1497 1.377 . S
C1496 C1498 1.384 . S
C1497 C1496 1.377 . S
C1497 C1503 1.390 . S
C1498 H1489 0.930 . S
C1498 C1496 1.384 . S
C1498 C1499 1.372 . S
C1499 C1498 1.372 . S
C1499 C1500 1.400 . S
C1499 C1504 1.490 . S
C1500 H1490 0.930 . S
C1500 C1499 1.400 . S
C1500 C1503 1.386 . S
H1501 C1517 0.930 . S
H1502 C1518 0.931 . S
C1503 H1491 0.929 . S
C1503 C1497 1.390 . S
C1503 C1500 1.386 . S
C1504 C1499 1.490 . S
C1504 C1506 1.395 . S
C1504 C1507 1.403 . S
H1505 C1511 0.930 . S
C1506 H1492 0.930 . S
C1506 C1504 1.395 . S
C1506 C1509 1.403 . S
C1507 C1504 1.403 . S
C1507 C1508 1.524 . S
C1507 C1511 1.400 . S
C1508 H1493 0.960 . S
C1508 H1494 0.960 . S
C1508 H1495 0.960 . S
C1508 C1507 1.524 . S
C1509 C1506 1.403 . S
C1509 C1510 1.392 . S
C1509 C1513 1.495 . S
C1510 C1509 1.392 . S
C1510 C1511 1.385 . S
C1510 C1512 1.478 . S
C1511 H1505 0.930 . S
C1511 C1507 1.400 . S
C1511 C1510 1.385 . S
C1512 C1510 1.478 . S
C1512 C1514 1.381 . S
C1512 C1518 1.383 . S
C1513 C1509 1.495 . S
C1513 H1519 0.959 . S
C1513 H1520 0.961 . S
C1513 H1521 0.960 . S
C1514 C1512 1.381 . S
C1514 C1515 1.394 . S
C1514 H1522 0.930 . S
C1515 C1514 1.394 . S
C1515 C1516 1.383 . S
C1515 H1523 0.929 . S
C1516 C1515 1.383 . S
C1516 C1517 1.377 . S
C1517 H1501 0.930 . S
C1517 C1516 1.377 . S
C1517 C1518 1.379 . S
C1518 H1502 0.931 . S
C1518 C1512 1.383 . S
C1518 C1517 1.379 . S
H1519 C1513 0.959 . S
H1520 C1513 0.961 . S
H1521 C1513 0.960 . S
H1522 C1514 0.930 . S
H1523 C1515 0.929 . S
H1524 C1532 0.929 . S
H1525 C1534 0.930 . S
H1526 C1536 0.930 . S
H1527 C1539 0.929 . S
H1528 C1542 0.930 . S
H1529 C1544 0.960 . S
H1530 C1544 0.960 . S
H1531 C1544 0.960 . S
C1532 H1524 0.929 . S
C1532 C1533 1.377 . S
C1532 C1534 1.384 . S
C1533 C1532 1.377 . S
C1533 C1539 1.390 . S
C1534 H1525 0.930 . S
C1534 C1532 1.384 . S
C1534 C1535 1.372 . S
C1535 C1534 1.372 . S
C1535 C1536 1.400 . S
C1535 C1540 1.490 . S
C1536 H1526 0.930 . S
C1536 C1535 1.400 . S
C1536 C1539 1.386 . S
H1537 C1553 0.930 . S
H1538 C1554 0.931 . S
C1539 H1527 0.929 . S
C1539 C1533 1.390 . S
C1539 C1536 1.386 . S
C1540 C1535 1.490 . S
C1540 C1542 1.395 . S
C1540 C1543 1.403 . S
H1541 C1547 0.930 . S
C1542 H1528 0.930 . S
C1542 C1540 1.395 . S
C1542 C1545 1.403 . S
C1543 C1540 1.403 . S
C1543 C1544 1.524 . S
C1543 C1547 1.400 . S
C1544 H1529 0.960 . S
C1544 H1530 0.960 . S
C1544 H1531 0.960 . S
C1544 C1543 1.524 . S
C1545 C1542 1.403 . S
C1545 C1546 1.392 . S
C1545 C1549 1.495 . S
C1546 C1545 1.392 . S
C1546 C1547 1.385 . S
C1546 C1548 1.478 . S
C1547 H1541 0.930 . S
C1547 C1543 1.400 . S
C1547 C1546 1.385 . S
C1548 C1546 1.478 . S
C1548 C1550 1.381 . S
C1548 C1554 1.383 . S
C1549 C1545 1.495 . S
C1549 H1555 0.959 . S
C1549 H1556 0.961 . S
C1549 H1557 0.960 . S
C1550 C1548 1.381 . S
C1550 C1551 1.394 . S
C1550 H1558 0.930 . S
C1551 C1550 1.394 . S
C1551 C1552 1.383 . S
C1551 H1559 0.929 . S
C1552 C1551 1.383 . S
C1552 C1553 1.377 . S
C1553 H1537 0.930 . S
C1553 C1552 1.377 . S
C1553 C1554 1.379 . S
C1554 H1538 0.931 . S
C1554 C1548 1.383 . S
C1554 C1553 1.379 . S
H1555 C1549 0.959 . S
H1556 C1549 0.961 . S
H1557 C1549 0.960 . S
H1558 C1550 0.930 . S
H1559 C1551 0.929 . S
H1560 C1568 0.929 . S
H1561 C1570 0.930 . S
H1562 C1572 0.930 . S
H1563 C1575 0.929 . S
H1564 C1578 0.930 . S
H1565 C1580 0.960 . S
H1566 C1580 0.960 . S
H1567 C1580 0.960 . S
C1568 H1560 0.929 . S
C1568 C1569 1.377 . S
C1568 C1570 1.384 . S
C1569 C1568 1.377 . S
C1569 C1575 1.390 . S
C1570 H1561 0.930 . S
C1570 C1568 1.384 . S
C1570 C1571 1.372 . S
C1571 C1570 1.372 . S
C1571 C1572 1.400 . S
C1571 C1576 1.490 . S
C1572 H1562 0.930 . S
C1572 C1571 1.400 . S
C1572 C1575 1.386 . S
H1573 C1589 0.930 . S
H1574 C1590 0.931 . S
C1575 H1563 0.929 . S
C1575 C1569 1.390 . S
C1575 C1572 1.386 . S
C1576 C1571 1.490 . S
C1576 C1578 1.395 . S
C1576 C1579 1.403 . S
H1577 C1583 0.930 . S
C1578 H1564 0.930 . S
C1578 C1576 1.395 . S
C1578 C1581 1.403 . S
C1579 C1576 1.403 . S
C1579 C1580 1.524 . S
C1579 C1583 1.400 . S
C1580 H1565 0.960 . S
C1580 H1566 0.960 . S
C1580 H1567 0.960 . S
C1580 C1579 1.524 . S
C1581 C1578 1.403 . S
C1581 C1582 1.392 . S
C1581 C1585 1.495 . S
C1582 C1581 1.392 . S
C1582 C1583 1.385 . S
C1582 C1584 1.478 . S
C1583 H1577 0.930 . S
C1583 C1579 1.400 . S
C1583 C1582 1.385 . S
C1584 C1582 1.478 . S
C1584 C1586 1.381 . S
C1584 C1590 1.383 . S
C1585 C1581 1.495 . S
C1585 H1591 0.959 . S
C1585 H1592 0.961 . S
C1585 H1593 0.960 . S
C1586 C1584 1.381 . S
C1586 C1587 1.394 . S
C1586 H1594 0.930 . S
C1587 C1586 1.394 . S
C1587 C1588 1.383 . S
C1587 H1595 0.929 . S
C1588 C1587 1.383 . S
C1588 C1589 1.377 . S
C1589 H1573 0.930 . S
C1589 C1588 1.377 . S
C1589 C1590 1.379 . S
C1590 H1574 0.931 . S
C1590 C1584 1.383 . S
C1590 C1589 1.379 . S
H1591 C1585 0.959 . S
H1592 C1585 0.961 . S
H1593 C1585 0.960 . S
H1594 C1586 0.930 . S
H1595 C1587 0.929 . S
H1596 C1604 0.929 . S
H1597 C1606 0.930 . S
H1598 C1608 0.930 . S
H1599 C1611 0.929 . S
H1600 C1614 0.930 . S
H1601 C1616 0.960 . S
H1602 C1616 0.960 . S
H1603 C1616 0.960 . S
C1604 H1596 0.929 . S
C1604 C1605 1.377 . S
C1604 C1606 1.384 . S
C1605 C1604 1.377 . S
C1605 C1611 1.390 . S
C1606 H1597 0.930 . S
C1606 C1604 1.384 . S
C1606 C1607 1.372 . S
C1607 C1606 1.372 . S
C1607 C1608 1.400 . S
C1607 C1612 1.490 . S
C1608 H1598 0.930 . S
C1608 C1607 1.400 . S
C1608 C1611 1.386 . S
H1609 C1625 0.930 . S
H1610 C1626 0.931 . S
C1611 H1599 0.929 . S
C1611 C1605 1.390 . S
C1611 C1608 1.386 . S
C1612 C1607 1.490 . S
C1612 C1614 1.395 . S
C1612 C1615 1.403 . S
H1613 C1619 0.930 . S
C1614 H1600 0.930 . S
C1614 C1612 1.395 . S
C1614 C1617 1.403 . S
C1615 C1612 1.403 . S
C1615 C1616 1.524 . S
C1615 C1619 1.400 . S
C1616 H1601 0.960 . S
C1616 H1602 0.960 . S
C1616 H1603 0.960 . S
C1616 C1615 1.524 . S
C1617 C1614 1.403 . S
C1617 C1618 1.392 . S
C1617 C1621 1.495 . S
C1618 C1617 1.392 . S
C1618 C1619 1.385 . S
C1618 C1620 1.478 . S
C1619 H1613 0.930 . S
C1619 C1615 1.400 . S
C1619 C1618 1.385 . S
C1620 C1618 1.478 . S
C1620 C1622 1.381 . S
C1620 C1626 1.383 . S
C1621 C1617 1.495 . S
C1621 H1627 0.959 . S
C1621 H1628 0.961 . S
C1621 H1629 0.960 . S
C1622 C1620 1.381 . S
C1622 C1623 1.394 . S
C1622 H1630 0.930 . S
C1623 C1622 1.394 . S
C1623 C1624 1.383 . S
C1623 H1631 0.929 . S
C1624 C1623 1.383 . S
C1624 C1625 1.377 . S
C1625 H1609 0.930 . S
C1625 C1624 1.377 . S
C1625 C1626 1.379 . S
C1626 H1610 0.931 . S
C1626 C1620 1.383 . S
C1626 C1625 1.379 . S
H1627 C1621 0.959 . S
H1628 C1621 0.961 . S
H1629 C1621 0.960 . S
H1630 C1622 0.930 . S
H1631 C1623 0.929 . S
H1632 C1640 0.929 . S
H1633 C1642 0.930 . S
H1634 C1644 0.930 . S
H1635 C1647 0.929 . S
H1636 C1650 0.930 . S
H1637 C1652 0.960 . S
H1638 C1652 0.960 . S
H1639 C1652 0.960 . S
C1640 H1632 0.929 . S
C1640 C1641 1.377 . S
C1640 C1642 1.384 . S
C1641 C1640 1.377 . S
C1641 C1647 1.390 . S
C1642 H1633 0.930 . S
C1642 C1640 1.384 . S
C1642 C1643 1.372 . S
C1643 C1642 1.372 . S
C1643 C1644 1.400 . S
C1643 C1648 1.490 . S
C1644 H1634 0.930 . S
C1644 C1643 1.400 . S
C1644 C1647 1.386 . S
H1645 C1661 0.930 . S
H1646 C1662 0.931 . S
C1647 H1635 0.929 . S
C1647 C1641 1.390 . S
C1647 C1644 1.386 . S
C1648 C1643 1.490 . S
C1648 C1650 1.395 . S
C1648 C1651 1.403 . S
H1649 C1655 0.930 . S
C1650 H1636 0.930 . S
C1650 C1648 1.395 . S
C1650 C1653 1.403 . S
C1651 C1648 1.403 . S
C1651 C1652 1.524 . S
C1651 C1655 1.400 . S
C1652 H1637 0.960 . S
C1652 H1638 0.960 . S
C1652 H1639 0.960 . S
C1652 C1651 1.524 . S
C1653 C1650 1.403 . S
C1653 C1654 1.392 . S
C1653 C1657 1.495 . S
C1654 C1653 1.392 . S
C1654 C1655 1.385 . S
C1654 C1656 1.478 . S
C1655 H1649 0.930 . S
C1655 C1651 1.400 . S
C1655 C1654 1.385 . S
C1656 C1654 1.478 . S
C1656 C1658 1.381 . S
C1656 C1662 1.383 . S
C1657 C1653 1.495 . S
C1657 H1663 0.959 . S
C1657 H1664 0.961 . S
C1657 H1665 0.960 . S
C1658 C1656 1.381 . S
C1658 C1659 1.394 . S
C1658 H1666 0.930 . S
C1659 C1658 1.394 . S
C1659 C1660 1.383 . S
C1659 H1667 0.929 . S
C1660 C1659 1.383 . S
C1660 C1661 1.377 . S
C1661 H1645 0.930 . S
C1661 C1660 1.377 . S
C1661 C1662 1.379 . S
C1662 H1646 0.931 . S
C1662 C1656 1.383 . S
C1662 C1661 1.379 . S
H1663 C1657 0.959 . S
H1664 C1657 0.961 . S
H1665 C1657 0.960 . S
H1666 C1658 0.930 . S
H1667 C1659 0.929 . S
H1668 C1676 0.929 . S
H1669 C1678 0.930 . S
H1670 C1680 0.930 . S
H1671 C1683 0.929 . S
H1672 C1686 0.930 . S
H1673 C1688 0.960 . S
H1674 C1688 0.960 . S
H1675 C1688 0.960 . S
C1676 H1668 0.929 . S
C1676 C1677 1.377 . S
C1676 C1678 1.384 . S
C1677 C1676 1.377 . S
C1677 C1683 1.390 . S
C1678 H1669 0.930 . S
C1678 C1676 1.384 . S
C1678 C1679 1.372 . S
C1679 C1678 1.372 . S
C1679 C1680 1.400 . S
C1679 C1684 1.490 . S
C1680 H1670 0.930 . S
C1680 C1679 1.400 . S
C1680 C1683 1.386 . S
H1681 C1697 0.930 . S
H1682 C1698 0.931 . S
C1683 H1671 0.929 . S
C1683 C1677 1.390 . S
C1683 C1680 1.386 . S
C1684 C1679 1.490 . S
C1684 C1686 1.395 . S
C1684 C1687 1.403 . S
H1685 C1691 0.930 . S
C1686 H1672 0.930 . S
C1686 C1684 1.395 . S
C1686 C1689 1.403 . S
C1687 C1684 1.403 . S
C1687 C1688 1.524 . S
C1687 C1691 1.400 . S
C1688 H1673 0.960 . S
C1688 H1674 0.960 . S
C1688 H1675 0.960 . S
C1688 C1687 1.524 . S
C1689 C1686 1.403 . S
C1689 C1690 1.392 . S
C1689 C1693 1.495 . S
C1690 C1689 1.392 . S
C1690 C1691 1.385 . S
C1690 C1692 1.478 . S
C1691 H1685 0.930 . S
C1691 C1687 1.400 . S
C1691 C1690 1.385 . S
C1692 C1690 1.478 . S
C1692 C1694 1.381 . S
C1692 C1698 1.383 . S
C1693 C1689 1.495 . S
C1693 H1699 0.959 . S
C1693 H1700 0.961 . S
C1693 H1701 0.960 . S
C1694 C1692 1.381 . S
C1694 C1695 1.394 . S
C1694 H1702 0.930 . S
C1695 C1694 1.394 . S
C1695 C1696 1.383 . S
C1695 H1703 0.929 . S
C1696 C1695 1.383 . S
C1696 C1697 1.377 . S
C1697 H1681 0.930 . S
C1697 C1696 1.377 . S
C1697 C1698 1.379 . S
C1698 H1682 0.931 . S
C1698 C1692 1.383 . S
C1698 C1697 1.379 . S
H1699 C1693 0.959 . S
H1700 C1693 0.961 . S
H1701 C1693 0.960 . S
H1702 C1694 0.930 . S
H1703 C1695 0.929 . S
H1704 C1712 0.929 . S
H1705 C1714 0.930 . S
H1706 C1716 0.930 . S
H1707 C1719 0.929 . S
H1708 C1722 0.930 . S
H1709 C1724 0.960 . S
H1710 C1724 0.960 . S
H1711 C1724 0.960 . S
C1712 H1704 0.929 . S
C1712 C1713 1.377 . S
C1712 C1714 1.384 . S
C1713 C1712 1.377 . S
C1713 C1719 1.390 . S
C1714 H1705 0.930 . S
C1714 C1712 1.384 . S
C1714 C1715 1.372 . S
C1715 C1714 1.372 . S
C1715 C1716 1.400 . S
C1715 C1720 1.490 . S
C1716 H1706 0.930 . S
C1716 C1715 1.400 . S
C1716 C1719 1.386 . S
H1717 C1733 0.930 . S
H1718 C1734 0.931 . S
C1719 H1707 0.929 . S
C1719 C1713 1.390 . S
C1719 C1716 1.386 . S
C1720 C1715 1.490 . S
C1720 C1722 1.395 . S
C1720 C1723 1.403 . S
H1721 C1727 0.930 . S
C1722 H1708 0.930 . S
C1722 C1720 1.395 . S
C1722 C1725 1.403 . S
C1723 C1720 1.403 . S
C1723 C1724 1.524 . S
C1723 C1727 1.400 . S
C1724 H1709 0.960 . S
C1724 H1710 0.960 . S
C1724 H1711 0.960 . S
C1724 C1723 1.524 . S
C1725 C1722 1.403 . S
C1725 C1726 1.392 . S
C1725 C1729 1.495 . S
C1726 C1725 1.392 . S
C1726 C1727 1.385 . S
C1726 C1728 1.478 . S
C1727 H1721 0.930 . S
C1727 C1723 1.400 . S
C1727 C1726 1.385 . S
C1728 C1726 1.478 . S
C1728 C1730 1.381 . S
C1728 C1734 1.383 . S
C1729 C1725 1.495 . S
C1729 H1735 0.959 . S
C1729 H1736 0.961 . S
C1729 H1737 0.960 . S
C1730 C1728 1.381 . S
C1730 C1731 1.394 . S
C1730 H1738 0.930 . S
C1731 C1730 1.394 . S
C1731 C1732 1.383 . S
C1731 H1739 0.929 . S
C1732 C1731 1.383 . S
C1732 C1733 1.377 . S
C1733 H1717 0.930 . S
C1733 C1732 1.377 . S
C1733 C1734 1.379 . S
C1734 H1718 0.931 . S
C1734 C1728 1.383 . S
C1734 C1733 1.379 . S
H1735 C1729 0.959 . S
H1736 C1729 0.961 . S
H1737 C1729 0.960 . S
H1738 C1730 0.930 . S
H1739 C1731 0.929 . S
H1740 C1748 0.929 . S
H1741 C1750 0.930 . S
H1742 C1752 0.930 . S
H1743 C1755 0.929 . S
H1744 C1758 0.930 . S
H1745 C1760 0.960 . S
H1746 C1760 0.960 . S
H1747 C1760 0.960 . S
C1748 H1740 0.929 . S
C1748 C1749 1.377 . S
C1748 C1750 1.384 . S
C1749 C1748 1.377 . S
C1749 C1755 1.390 . S
C1750 H1741 0.930 . S
C1750 C1748 1.384 . S
C1750 C1751 1.372 . S
C1751 C1750 1.372 . S
C1751 C1752 1.400 . S
C1751 C1756 1.490 . S
C1752 H1742 0.930 . S
C1752 C1751 1.400 . S
C1752 C1755 1.386 . S
H1753 C1769 0.930 . S
H1754 C1770 0.931 . S
C1755 H1743 0.929 . S
C1755 C1749 1.390 . S
C1755 C1752 1.386 . S
C1756 C1751 1.490 . S
C1756 C1758 1.395 . S
C1756 C1759 1.403 . S
H1757 C1763 0.930 . S
C1758 H1744 0.930 . S
C1758 C1756 1.395 . S
C1758 C1761 1.403 . S
C1759 C1756 1.403 . S
C1759 C1760 1.524 . S
C1759 C1763 1.400 . S
C1760 H1745 0.960 . S
C1760 H1746 0.960 . S
C1760 H1747 0.960 . S
C1760 C1759 1.524 . S
C1761 C1758 1.403 . S
C1761 C1762 1.392 . S
C1761 C1765 1.495 . S
C1762 C1761 1.392 . S
C1762 C1763 1.385 . S
C1762 C1764 1.478 . S
C1763 H1757 0.930 . S
C1763 C1759 1.400 . S
C1763 C1762 1.385 . S
C1764 C1762 1.478 . S
C1764 C1766 1.381 . S
C1764 C1770 1.383 . S
C1765 C1761 1.495 . S
C1765 H1771 0.959 . S
C1765 H1772 0.961 . S
C1765 H1773 0.960 . S
C1766 C1764 1.381 . S
C1766 C1767 1.394 . S
C1766 H1774 0.930 . S
C1767 C1766 1.394 . S
C1767 C1768 1.383 . S
C1767 H1775 0.929 . S
C1768 C1767 1.383 . S
C1768 C1769 1.377 . S
C1769 H1753 0.930 . S
C1769 C1768 1.377 . S
C1769 C1770 1.379 . S
C1770 H1754 0.931 . S
C1770 C1764 1.383 . S
C1770 C1769 1.379 . S
H1771 C1765 0.959 . S
H1772 C1765 0.961 . S
H1773 C1765 0.960 . S
H1774 C1766 0.930 . S
H1775 C1767 0.929 . S
H1776 C1784 0.929 . S
H1777 C1786 0.930 . S
H1778 C1788 0.930 . S
H1779 C1791 0.929 . S
H1780 C1794 0.930 . S
H1781 C1796 0.960 . S
H1782 C1796 0.960 . S
H1783 C1796 0.960 . S
C1784 H1776 0.929 . S
C1784 C1785 1.377 . S
C1784 C1786 1.384 . S
C1785 C1784 1.377 . S
C1785 C1791 1.390 . S
C1786 H1777 0.930 . S
C1786 C1784 1.384 . S
C1786 C1787 1.372 . S
C1787 C1786 1.372 . S
C1787 C1788 1.400 . S
C1787 C1792 1.490 . S
C1788 H1778 0.930 . S
C1788 C1787 1.400 . S
C1788 C1791 1.386 . S
H1789 C1805 0.930 . S
H1790 C1806 0.931 . S
C1791 H1779 0.929 . S
C1791 C1785 1.390 . S
C1791 C1788 1.386 . S
C1792 C1787 1.490 . S
C1792 C1794 1.395 . S
C1792 C1795 1.403 . S
H1793 C1799 0.930 . S
C1794 H1780 0.930 . S
C1794 C1792 1.395 . S
C1794 C1797 1.403 . S
C1795 C1792 1.403 . S
C1795 C1796 1.524 . S
C1795 C1799 1.400 . S
C1796 H1781 0.960 . S
C1796 H1782 0.960 . S
C1796 H1783 0.960 . S
C1796 C1795 1.524 . S
C1797 C1794 1.403 . S
C1797 C1798 1.392 . S
C1797 C1801 1.495 . S
C1798 C1797 1.392 . S
C1798 C1799 1.385 . S
C1798 C1800 1.478 . S
C1799 H1793 0.930 . S
C1799 C1795 1.400 . S
C1799 C1798 1.385 . S
C1800 C1798 1.478 . S
C1800 C1802 1.381 . S
C1800 C1806 1.383 . S
C1801 C1797 1.495 . S
C1801 H1807 0.959 . S
C1801 H1808 0.961 . S
C1801 H1809 0.960 . S
C1802 C1800 1.381 . S
C1802 C1803 1.394 . S
C1802 H1810 0.930 . S
C1803 C1802 1.394 . S
C1803 C1804 1.383 . S
C1803 H1811 0.929 . S
C1804 C1803 1.383 . S
C1804 C1805 1.377 . S
C1805 H1789 0.930 . S
C1805 C1804 1.377 . S
C1805 C1806 1.379 . S
C1806 H1790 0.931 . S
C1806 C1800 1.383 . S
C1806 C1805 1.379 . S
H1807 C1801 0.959 . S
H1808 C1801 0.961 . S
H1809 C1801 0.960 . S
H1810 C1802 0.930 . S
H1811 C1803 0.929 . S
H1812 C1820 0.929 . S
H1813 C1822 0.930 . S
H1814 C1824 0.930 . S
H1815 C1827 0.929 . S
H1816 C1830 0.930 . S
H1817 C1832 0.960 . S
H1818 C1832 0.960 . S
H1819 C1832 0.960 . S
C1820 H1812 0.929 . S
C1820 C1821 1.377 . S
C1820 C1822 1.384 . S
C1821 C1820 1.377 . S
C1821 C1827 1.390 . S
C1822 H1813 0.930 . S
C1822 C1820 1.384 . S
C1822 C1823 1.372 . S
C1823 C1822 1.372 . S
C1823 C1824 1.400 . S
C1823 C1828 1.490 . S
C1824 H1814 0.930 . S
C1824 C1823 1.400 . S
C1824 C1827 1.386 . S
H1825 C1841 0.930 . S
H1826 C1842 0.931 . S
C1827 H1815 0.929 . S
C1827 C1821 1.390 . S
C1827 C1824 1.386 . S
C1828 C1823 1.490 . S
C1828 C1830 1.395 . S
C1828 C1831 1.403 . S
H1829 C1835 0.930 . S
C1830 H1816 0.930 . S
C1830 C1828 1.395 . S
C1830 C1833 1.403 . S
C1831 C1828 1.403 . S
C1831 C1832 1.524 . S
C1831 C1835 1.400 . S
C1832 H1817 0.960 . S
C1832 H1818 0.960 . S
C1832 H1819 0.960 . S
C1832 C1831 1.524 . S
C1833 C1830 1.403 . S
C1833 C1834 1.392 . S
C1833 C1837 1.495 . S
C1834 C1833 1.392 . S
C1834 C1835 1.385 . S
C1834 C1836 1.478 . S
C1835 H1829 0.930 . S
C1835 C1831 1.400 . S
C1835 C1834 1.385 . S
C1836 C1834 1.478 . S
C1836 C1838 1.381 . S
C1836 C1842 1.383 . S
C1837 C1833 1.495 . S
C1837 H1843 0.959 . S
C1837 H1844 0.961 . S
C1837 H1845 0.960 . S
C1838 C1836 1.381 . S
C1838 C1839 1.394 . S
C1838 H1846 0.930 . S
C1839 C1838 1.394 . S
C1839 C1840 1.383 . S
C1839 H1847 0.929 . S
C1840 C1839 1.383 . S
C1840 C1841 1.377 . S
C1841 H1825 0.930 . S
C1841 C1840 1.377 . S
C1841 C1842 1.379 . S
C1842 H1826 0.931 . S
C1842 C1836 1.383 . S
C1842 C1841 1.379 . S
H1843 C1837 0.959 . S
H1844 C1837 0.961 . S
H1845 C1837 0.960 . S
H1846 C1838 0.930 . S
H1847 C1839 0.929 . S
H1848 C1856 0.929 . S
H1849 C1858 0.930 . S
H1850 C1860 0.930 . S
H1851 C1863 0.929 . S
H1852 C1866 0.930 . S
H1853 C1868 0.960 . S
H1854 C1868 0.960 . S
H1855 C1868 0.960 . S
C1856 H1848 0.929 . S
C1856 C1857 1.377 . S
C1856 C1858 1.384 . S
C1857 C1856 1.377 . S
C1857 C1863 1.390 . S
C1858 H1849 0.930 . S
C1858 C1856 1.384 . S
C1858 C1859 1.372 . S
C1859 C1858 1.372 . S
C1859 C1860 1.400 . S
C1859 C1864 1.490 . S
C1860 H1850 0.930 . S
C1860 C1859 1.400 . S
C1860 C1863 1.386 . S
H1861 C1877 0.930 . S
H1862 C1878 0.931 . S
C1863 H1851 0.929 . S
C1863 C1857 1.390 . S
C1863 C1860 1.386 . S
C1864 C1859 1.490 . S
C1864 C1866 1.395 . S
C1864 C1867 1.403 . S
H1865 C1871 0.930 . S
C1866 H1852 0.930 . S
C1866 C1864 1.395 . S
C1866 C1869 1.403 . S
C1867 C1864 1.403 . S
C1867 C1868 1.524 . S
C1867 C1871 1.400 . S
C1868 H1853 0.960 . S
C1868 H1854 0.960 . S
C1868 H1855 0.960 . S
C1868 C1867 1.524 . S
C1869 C1866 1.403 . S
C1869 C1870 1.392 . S
C1869 C1873 1.495 . S
C1870 C1869 1.392 . S
C1870 C1871 1.385 . S
C1870 C1872 1.478 . S
C1871 H1865 0.930 . S
C1871 C1867 1.400 . S
C1871 C1870 1.385 . S
C1872 C1870 1.478 . S
C1872 C1874 1.381 . S
C1872 C1878 1.383 . S
C1873 C1869 1.495 . S
C1873 H1879 0.959 . S
C1873 H1880 0.961 . S
C1873 H1881 0.960 . S
C1874 C1872 1.381 . S
C1874 C1875 1.394 . S
C1874 H1882 0.930 . S
C1875 C1874 1.394 . S
C1875 C1876 1.383 . S
C1875 H1883 0.929 . S
C1876 C1875 1.383 . S
C1876 C1877 1.377 . S
C1877 H1861 0.930 . S
C1877 C1876 1.377 . S
C1877 C1878 1.379 . S
C1878 H1862 0.931 . S
C1878 C1872 1.383 . S
C1878 C1877 1.379 . S
H1879 C1873 0.959 . S
H1880 C1873 0.961 . S
H1881 C1873 0.960 . S
H1882 C1874 0.930 . S
H1883 C1875 0.929 . S
H1884 C1892 0.929 . S
H1885 C1894 0.930 . S
H1886 C1896 0.930 . S
H1887 C1899 0.929 . S
H1888 C1902 0.930 . S
H1889 C1904 0.960 . S
H1890 C1904 0.960 . S
H1891 C1904 0.960 . S
C1892 H1884 0.929 . S
C1892 C1893 1.377 . S
C1892 C1894 1.384 . S
C1893 C1892 1.377 . S
C1893 C1899 1.390 . S
C1894 H1885 0.930 . S
C1894 C1892 1.384 . S
C1894 C1895 1.372 . S
C1895 C1894 1.372 . S
C1895 C1896 1.400 . S
C1895 C1900 1.490 . S
C1896 H1886 0.930 . S
C1896 C1895 1.400 . S
C1896 C1899 1.386 . S
H1897 C1913 0.930 . S
H1898 C1914 0.931 . S
C1899 H1887 0.929 . S
C1899 C1893 1.390 . S
C1899 C1896 1.386 . S
C1900 C1895 1.490 . S
C1900 C1902 1.395 . S
C1900 C1903 1.403 . S
H1901 C1907 0.930 . S
C1902 H1888 0.930 . S
C1902 C1900 1.395 . S
C1902 C1905 1.403 . S
C1903 C1900 1.403 . S
C1903 C1904 1.524 . S
C1903 C1907 1.400 . S
C1904 H1889 0.960 . S
C1904 H1890 0.960 . S
C1904 H1891 0.960 . S
C1904 C1903 1.524 . S
C1905 C1902 1.403 . S
C1905 C1906 1.392 . S
C1905 C1909 1.495 . S
C1906 C1905 1.392 . S
C1906 C1907 1.385 . S
C1906 C1908 1.478 . S
C1907 H1901 0.930 . S
C1907 C1903 1.400 . S
C1907 C1906 1.385 . S
C1908 C1906 1.478 . S
C1908 C1910 1.381 . S
C1908 C1914 1.383 . S
C1909 C1905 1.495 . S
C1909 H1915 0.959 . S
C1909 H1916 0.961 . S
C1909 H1917 0.960 . S
C1910 C1908 1.381 . S
C1910 C1911 1.394 . S
C1910 H1918 0.930 . S
C1911 C1910 1.394 . S
C1911 C1912 1.383 . S
C1911 H1919 0.929 . S
C1912 C1911 1.383 . S
C1912 C1913 1.377 . S
C1913 H1897 0.930 . S
C1913 C1912 1.377 . S
C1913 C1914 1.379 . S
C1914 H1898 0.931 . S
C1914 C1908 1.383 . S
C1914 C1913 1.379 . S
H1915 C1909 0.959 . S
H1916 C1909 0.961 . S
H1917 C1909 0.960 . S
H1918 C1910 0.930 . S
H1919 C1911 0.929 . S
H1920 C1928 0.929 . S
H1921 C1930 0.930 . S
H1922 C1932 0.930 . S
H1923 C1935 0.929 . S
H1924 C1938 0.930 . S
H1925 C1940 0.960 . S
H1926 C1940 0.960 . S
H1927 C1940 0.960 . S
C1928 H1920 0.929 . S
C1928 C1929 1.377 . S
C1928 C1930 1.384 . S
C1929 C1928 1.377 . S
C1929 C1935 1.390 . S
C1930 H1921 0.930 . S
C1930 C1928 1.384 . S
C1930 C1931 1.372 . S
C1931 C1930 1.372 . S
C1931 C1932 1.400 . S
C1931 C1936 1.490 . S
C1932 H1922 0.930 . S
C1932 C1931 1.400 . S
C1932 C1935 1.386 . S
H1933 C1949 0.930 . S
H1934 C1950 0.931 . S
C1935 H1923 0.929 . S
C1935 C1929 1.390 . S
C1935 C1932 1.386 . S
C1936 C1931 1.490 . S
C1936 C1938 1.395 . S
C1936 C1939 1.403 . S
H1937 C1943 0.930 . S
C1938 H1924 0.930 . S
C1938 C1936 1.395 . S
C1938 C1941 1.403 . S
C1939 C1936 1.403 . S
C1939 C1940 1.524 . S
C1939 C1943 1.400 . S
C1940 H1925 0.960 . S
C1940 H1926 0.960 . S
C1940 H1927 0.960 . S
C1940 C1939 1.524 . S
C1941 C1938 1.403 . S
C1941 C1942 1.392 . S
C1941 C1945 1.495 . S
C1942 C1941 1.392 . S
C1942 C1943 1.385 . S
C1942 C1944 1.478 . S
C1943 H1937 0.930 . S
C1943 C1939 1.400 . S
C1943 C1942 1.385 . S
C1944 C1942 1.478 . S
C1944 C1946 1.381 . S
C1944 C1950 1.383 . S
C1945 C1941 1.495 . S
C1945 H1951 0.959 . S
C1945 H1952 0.961 . S
C1945 H1953 0.960 . S
C1946 C1944 1.381 . S
C1946 C1947 1.394 . S
C1946 H1954 0.930 . S
C1947 C1946 1.394 . S
C1947 C1948 1.383 . S
C1947 H1955 0.929 . S
C1948 C1947 1.383 . S
C1948 C1949 1.377 . S
C1949 H1933 0.930 . S
C1949 C1948 1.377 . S
C1949 C1950 1.379 . S
C1950 H1934 0.931 . S
C1950 C1944 1.383 . S
C1950 C1949 1.379 . S
H1951 C1945 0.959 . S
H1952 C1945 0.961 . S
H1953 C1945 0.960 . S
H1954 C1946 0.930 . S
H1955 C1947 0.929 . S
H1956 C1964 0.929 . S
H1957 C1966 0.930 . S
H1958 C1968 0.930 . S
H1959 C1971 0.929 . S
H1960 C1974 0.930 . S
H1961 C1976 0.960 . S
H1962 C1976 0.960 . S
H1963 C1976 0.960 . S
C1964 H1956 0.929 . S
C1964 C1965 1.377 . S
C1964 C1966 1.384 . S
C1965 C1964 1.377 . S
C1965 C1971 1.390 . S
C1966 H1957 0.930 . S
C1966 C1964 1.384 . S
C1966 C1967 1.372 . S
C1967 C1966 1.372 . S
C1967 C1968 1.400 . S
C1967 C1972 1.490 . S
C1968 H1958 0.930 . S
C1968 C1967 1.400 . S
C1968 C1971 1.386 . S
H1969 C1985 0.930 . S
H1970 C1986 0.931 . S
C1971 H1959 0.929 . S
C1971 C1965 1.390 . S
C1971 C1968 1.386 . S
C1972 C1967 1.490 . S
C1972 C1974 1.395 . S
C1972 C1975 1.403 . S
H1973 C1979 0.930 . S
C1974 H1960 0.930 . S
C1974 C1972 1.395 . S
C1974 C1977 1.403 . S
C1975 C1972 1.403 . S
C1975 C1976 1.524 . S
C1975 C1979 1.400 . S
C1976 H1961 0.960 . S
C1976 H1962 0.960 . S
C1976 H1963 0.960 . S
C1976 C1975 1.524 . S
C1977 C1974 1.403 . S
C1977 C1978 1.392 . S
C1977 C1981 1.495 . S
C1978 C1977 1.392 . S
C1978 C1979 1.385 . S
C1978 C1980 1.478 . S
C1979 H1973 0.930 . S
C1979 C1975 1.400 . S
C1979 C1978 1.385 . S
C1980 C1978 1.478 . S
C1980 C1982 1.381 . S
C1980 C1986 1.383 . S
C1981 C1977 1.495 . S
C1981 H1987 0.959 . S
C1981 H1988 0.961 . S
C1981 H1989 0.960 . S
C1982 C1980 1.381 . S
C1982 C1983 1.394 . S
C1982 H1990 0.930 . S
C1983 C1982 1.394 . S
C1983 C1984 1.383 . S
C1983 H1991 0.929 . S
C1984 C1983 1.383 . S
C1984 C1985 1.377 . S
C1985 H1969 0.930 . S
C1985 C1984 1.377 . S
C1985 C1986 1.379 . S
C1986 H1970 0.931 . S
C1986 C1980 1.383 . S
C1986 C1985 1.379 . S
H1987 C1981 0.959 . S
H1988 C1981 0.961 . S
H1989 C1981 0.960 . S
H1990 C1982 0.930 . S
H1991 C1983 0.929 . S
H1992 C2000 0.929 . S
H1993 C2002 0.930 . S
H1994 C2004 0.930 . S
H1995 C2007 0.929 . S
H1996 C2010 0.930 . S
H1997 C2012 0.960 . S
H1998 C2012 0.960 . S
H1999 C2012 0.960 . S
C2000 H1992 0.929 . S
C2000 C2001 1.377 . S
C2000 C2002 1.384 . S
C2001 C2000 1.377 . S
C2001 C2007 1.390 . S
C2002 H1993 0.930 . S
C2002 C2000 1.384 . S
C2002 C2003 1.372 . S
C2003 C2002 1.372 . S
C2003 C2004 1.400 . S
C2003 C2008 1.490 . S
C2004 H1994 0.930 . S
C2004 C2003 1.400 . S
C2004 C2007 1.386 . S
H2005 C2021 0.930 . S
H2006 C2022 0.931 . S
C2007 H1995 0.929 . S
C2007 C2001 1.390 . S
C2007 C2004 1.386 . S
C2008 C2003 1.490 . S
C2008 C2010 1.395 . S
C2008 C2011 1.403 . S
H2009 C2015 0.930 . S
C2010 H1996 0.930 . S
C2010 C2008 1.395 . S
C2010 C2013 1.403 . S
C2011 C2008 1.403 . S
C2011 C2012 1.524 . S
C2011 C2015 1.400 . S
C2012 H1997 0.960 . S
C2012 H1998 0.960 . S
C2012 H1999 0.960 . S
C2012 C2011 1.524 . S
C2013 C2010 1.403 . S
C2013 C2014 1.392 . S
C2013 C2017 1.495 . S
C2014 C2013 1.392 . S
C2014 C2015 1.385 . S
C2014 C2016 1.478 . S
C2015 H2009 0.930 . S
C2015 C2011 1.400 . S
C2015 C2014 1.385 . S
C2016 C2014 1.478 . S
C2016 C2018 1.381 . S
C2016 C2022 1.383 . S
C2017 C2013 1.495 . S
C2017 H2023 0.959 . S
C2017 H2024 0.961 . S
C2017 H2025 0.960 . S
C2018 C2016 1.381 . S
C2018 C2019 1.394 . S
C2018 H2026 0.930 . S
C2019 C2018 1.394 . S
C2019 C2020 1.383 . S
C2019 H2027 0.929 . S
C2020 C2019 1.383 . S
C2020 C2021 1.377 . S
C2021 H2005 0.930 . S
C2021 C2020 1.377 . S
C2021 C2022 1.379 . S
C2022 H2006 0.931 . S
C2022 C2016 1.383 . S
C2022 C2021 1.379 . S
H2023 C2017 0.959 . S
H2024 C2017 0.961 . S
H2025 C2017 0.960 . S
H2026 C2018 0.930 . S
H2027 C2019 0.929 . S
H2028 C2036 0.929 . S
H2029 C2038 0.930 . S
H2030 C2040 0.930 . S
H2031 C2043 0.929 . S
H2032 C2046 0.930 . S
H2033 C2048 0.960 . S
H2034 C2048 0.960 . S
H2035 C2048 0.960 . S
C2036 H2028 0.929 . S
C2036 C2037 1.377 . S
C2036 C2038 1.384 . S
C2037 C2036 1.377 . S
C2037 C2043 1.390 . S
C2038 H2029 0.930 . S
C2038 C2036 1.384 . S
C2038 C2039 1.372 . S
C2039 C2038 1.372 . S
C2039 C2040 1.400 . S
C2039 C2044 1.490 . S
C2040 H2030 0.930 . S
C2040 C2039 1.400 . S
C2040 C2043 1.386 . S
H2041 C2057 0.930 . S
H2042 C2058 0.931 . S
C2043 H2031 0.929 . S
C2043 C2037 1.390 . S
C2043 C2040 1.386 . S
C2044 C2039 1.490 . S
C2044 C2046 1.395 . S
C2044 C2047 1.403 . S
H2045 C2051 0.930 . S
C2046 H2032 0.930 . S
C2046 C2044 1.395 . S
C2046 C2049 1.403 . S
C2047 C2044 1.403 . S
C2047 C2048 1.524 . S
C2047 C2051 1.400 . S
C2048 H2033 0.960 . S
C2048 H2034 0.960 . S
C2048 H2035 0.960 . S
C2048 C2047 1.524 . S
C2049 C2046 1.403 . S
C2049 C2050 1.392 . S
C2049 C2053 1.495 . S
C2050 C2049 1.392 . S
C2050 C2051 1.385 . S
C2050 C2052 1.478 . S
C2051 H2045 0.930 . S
C2051 C2047 1.400 . S
C2051 C2050 1.385 . S
C2052 C2050 1.478 . S
C2052 C2054 1.381 . S
C2052 C2058 1.383 . S
C2053 C2049 1.495 . S
C2053 H2059 0.959 . S
C2053 H2060 0.961 . S
C2053 H2061 0.960 . S
C2054 C2052 1.381 . S
C2054 C2055 1.394 . S
C2054 H2062 0.930 . S
C2055 C2054 1.394 . S
C2055 C2056 1.383 . S
C2055 H2063 0.929 . S
C2056 C2055 1.383 . S
C2056 C2057 1.377 . S
C2057 H2041 0.930 . S
C2057 C2056 1.377 . S
C2057 C2058 1.379 . S
C2058 H2042 0.931 . S
C2058 C2052 1.383 . S
C2058 C2057 1.379 . S
H2059 C2053 0.959 . S
H2060 C2053 0.961 . S
H2061 C2053 0.960 . S
H2062 C2054 0.930 . S
H2063 C2055 0.929 . S
C345 C77 0.792 . S
C364 C13 0.853 . S
C381 C15 1.044 . S
C400 C38 1.097 . S
C417 C58 0.723 . S
C436 C35 0.662 . S
C453 C80 1.499 . S
C472 C59 1.500 . S
C489 C102 1.081 . S
C508 C120 1.082 . S
C525 C118 0.889 . S
C544 C139 0.832 . S
C561 C144 1.447 . S
C580 C164 1.489 . S
C597 C97 0.832 . S
C616 C163 0.739 . S
C633 C207 1.405 . S
C652 C18 1.393 . S
C669 C225 0.717 . S
C688 C37 0.682 . S
C705 C56 1.065 . S
C724 C287 1.073 . S
C741 C183 0.704 . S
C760 C79 0.709 . S
C777 C247 0.752 . S
C796 C99 0.793 . S
C813 C312 1.407 . S
C832 C123 1.404 . S
C849 C141 0.698 . S
C868 C268 0.655 . S
C885 C329 1.065 . S
C904 C161 1.129 . S
C921 C181 0.832 . S
C940 C289 0.738 . S
C957 C204 1.038 . S
C976 C186 1.111 . S
C993 C223 0.881 . S
C1012 C202 0.945 . S
C1029 C307 0.766 . S
C1048 C245 0.841 . S
C1065 C266 0.727 . S
C1084 C331 0.713 . S
C1101 C246 0.724 . S
C1120 C16 0.685 . S
C1137 C270 1.071 . S
C1156 C14 0.963 . S
C1173 C267 0.826 . S
C1192 C55 0.875 . S
C1209 C60 1.595 . S
C1228 C249 1.581 . S
C1245 C203 1.006 . S
C1264 C101 1.040 . S
C1281 C205 0.736 . S
C1300 C142 0.666 . S
C1317 C291 1.614 . S
C1336 C143 1.605 . S
C1353 C100 0.822 . S
C1372 C286 0.744 . S
C1389 C122 1.643 . S
C1408 C17 1.642 . S
C1425 C224 0.836 . S
C1444 C265 0.768 . S
C1461 C57 1.029 . S
C1480 C162 0.968 . S
C1497 C182 0.824 . S
C1516 C244 0.873 . S
C1533 C76 0.789 . S
C1552 C98 0.873 . S
C1569 C206 1.641 . S
C1588 C311 1.635 . S
C1605 C140 0.833 . S
C1624 C34 0.881 . S
C1641 C330 1.016 . S
C1660 C288 1.070 . S
C1677 C184 0.829 . S
C1696 C160 0.709 . S
C1713 C185 1.079 . S
C1732 C119 1.071 . S
C1749 C226 0.738 . S
C1768 C121 0.666 . S
C1785 C78 0.724 . S
C1804 C310 0.687 . S
C1821 C36 0.833 . S
C1840 C328 0.850 . S
C1857 C269 1.111 . S
C1876 C309 0.987 . S
C1893 C248 1.495 . S
C1912 C332 1.512 . S
C1929 C228 1.440 . S
C1948 C290 1.485 . S
C1965 C308 0.986 . S
C1984 C39 1.072 . S
C2001 C81 1.588 . S
C2020 C333 1.582 . S
C2037 C165 1.620 . S
C2056 C227 1.577 . S
