# Generated by pormake.
# Topology fnh, (5)-cn, num edge types: 1
# Building blocks:
#     Node 0, Type 0, BuildingBlock: XOMCOT_clean_sbu_1, # of connection points: 5
#     Node 1, Type 0, BuildingBlock: XOMCOT_clean_sbu_1, # of connection points: 5
#     Node 2, Type 0, BuildingBlock: XOMCOT_clean_sbu_1, # of connection points: 5
#     Node 3, Type 0, BuildingBlock: XOMCOT_clean_sbu_1, # of connection points: 5
#     Node 4, Type 0, BuildingBlock: XOMCOT_clean_sbu_1, # of connection points: 5
#     Node 5, Type 0, BuildingBlock: XOMCOT_clean_sbu_1, # of connection points: 5
#     Node 6, Type 0, BuildingBlock: XOMCOT_clean_sbu_1, # of connection points: 5
#     Node 7, Type 0, BuildingBlock: XOMCOT_clean_sbu_1, # of connection points: 5
#     Node 8, Type 0, BuildingBlock: XOMCOT_clean_sbu_1, # of connection points: 5
#     Node 9, Type 0, BuildingBlock: XOMCOT_clean_sbu_1, # of connection points: 5
#     Node 10, Type 0, BuildingBlock: XOMCOT_clean_sbu_1, # of connection points: 5
#     Node 11, Type 0, BuildingBlock: XOMCOT_clean_sbu_1, # of connection points: 5
#     Node 12, Type 0, BuildingBlock: XOMCOT_clean_sbu_1, # of connection points: 5
#     Node 13, Type 0, BuildingBlock: XOMCOT_clean_sbu_1, # of connection points: 5
#     Node 14, Type 0, BuildingBlock: XOMCOT_clean_sbu_1, # of connection points: 5
#     Node 15, Type 0, BuildingBlock: XOMCOT_clean_sbu_1, # of connection points: 5
#     Node 16, Type 0, BuildingBlock: XOMCOT_clean_sbu_1, # of connection points: 5
#     Node 17, Type 0, BuildingBlock: XOMCOT_clean_sbu_1, # of connection points: 5
#     Edge 18, Type (0, 0), BuildingBlock: XIVTED_clean_linker_0, # of connection points: 2
#     Edge 19, Type (0, 0), BuildingBlock: XIVTED_clean_linker_0, # of connection points: 2
#     Edge 20, Type (0, 0), BuildingBlock: XIVTED_clean_linker_0, # of connection points: 2
#     Edge 21, Type (0, 0), BuildingBlock: XIVTED_clean_linker_0, # of connection points: 2
#     Edge 22, Type (0, 0), BuildingBlock: XIVTED_clean_linker_0, # of connection points: 2
#     Edge 23, Type (0, 0), BuildingBlock: XIVTED_clean_linker_0, # of connection points: 2
#     Edge 24, Type (0, 0), BuildingBlock: XIVTED_clean_linker_0, # of connection points: 2
#     Edge 25, Type (0, 0), BuildingBlock: XIVTED_clean_linker_0, # of connection points: 2
#     Edge 26, Type (0, 0), BuildingBlock: XIVTED_clean_linker_0, # of connection points: 2
#     Edge 27, Type (0, 0), BuildingBlock: XIVTED_clean_linker_0, # of connection points: 2
#     Edge 28, Type (0, 0), BuildingBlock: XIVTED_clean_linker_0, # of connection points: 2
#     Edge 29, Type (0, 0), BuildingBlock: XIVTED_clean_linker_0, # of connection points: 2
#     Edge 30, Type (0, 0), BuildingBlock: XIVTED_clean_linker_0, # of connection points: 2
#     Edge 31, Type (0, 0), BuildingBlock: XIVTED_clean_linker_0, # of connection points: 2
#     Edge 32, Type (0, 0), BuildingBlock: XIVTED_clean_linker_0, # of connection points: 2
#     Edge 33, Type (0, 0), BuildingBlock: XIVTED_clean_linker_0, # of connection points: 2
#     Edge 34, Type (0, 0), BuildingBlock: XIVTED_clean_linker_0, # of connection points: 2
#     Edge 35, Type (0, 0), BuildingBlock: XIVTED_clean_linker_0, # of connection points: 2
#     Edge 36, Type (0, 0), BuildingBlock: XIVTED_clean_linker_0, # of connection points: 2
#     Edge 37, Type (0, 0), BuildingBlock: XIVTED_clean_linker_0, # of connection points: 2
#     Edge 38, Type (0, 0), BuildingBlock: XIVTED_clean_linker_0, # of connection points: 2
#     Edge 39, Type (0, 0), BuildingBlock: XIVTED_clean_linker_0, # of connection points: 2
#     Edge 40, Type (0, 0), BuildingBlock: XIVTED_clean_linker_0, # of connection points: 2
#     Edge 41, Type (0, 0), BuildingBlock: XIVTED_clean_linker_0, # of connection points: 2
#     Edge 42, Type (0, 0), BuildingBlock: XIVTED_clean_linker_0, # of connection points: 2
#     Edge 43, Type (0, 0), BuildingBlock: XIVTED_clean_linker_0, # of connection points: 2
#     Edge 44, Type (0, 0), BuildingBlock: XIVTED_clean_linker_0, # of connection points: 2
#     Edge 45, Type (0, 0), BuildingBlock: XIVTED_clean_linker_0, # of connection points: 2
#     Edge 46, Type (0, 0), BuildingBlock: XIVTED_clean_linker_0, # of connection points: 2
#     Edge 47, Type (0, 0), BuildingBlock: XIVTED_clean_linker_0, # of connection points: 2
#     Edge 48, Type (0, 0), BuildingBlock: XIVTED_clean_linker_0, # of connection points: 2
#     Edge 49, Type (0, 0), BuildingBlock: XIVTED_clean_linker_0, # of connection points: 2
#     Edge 50, Type (0, 0), BuildingBlock: XIVTED_clean_linker_0, # of connection points: 2
#     Edge 51, Type (0, 0), BuildingBlock: XIVTED_clean_linker_0, # of connection points: 2
#     Edge 52, Type (0, 0), BuildingBlock: XIVTED_clean_linker_0, # of connection points: 2
#     Edge 53, Type (0, 0), BuildingBlock: XIVTED_clean_linker_0, # of connection points: 2
#     Edge 54, Type (0, 0), BuildingBlock: XIVTED_clean_linker_0, # of connection points: 2
#     Edge 55, Type (0, 0), BuildingBlock: XIVTED_clean_linker_0, # of connection points: 2
#     Edge 56, Type (0, 0), BuildingBlock: XIVTED_clean_linker_0, # of connection points: 2
#     Edge 57, Type (0, 0), BuildingBlock: XIVTED_clean_linker_0, # of connection points: 2
#     Edge 58, Type (0, 0), BuildingBlock: XIVTED_clean_linker_0, # of connection points: 2
#     Edge 59, Type (0, 0), BuildingBlock: XIVTED_clean_linker_0, # of connection points: 2
#     Edge 60, Type (0, 0), BuildingBlock: XIVTED_clean_linker_0, # of connection points: 2
#     Edge 61, Type (0, 0), BuildingBlock: XIVTED_clean_linker_0, # of connection points: 2
#     Edge 62, Type (0, 0), BuildingBlock: XIVTED_clean_linker_0, # of connection points: 2
# Relax obj value: 0.165
# Max RMSD: 0.171
# Mean RMSD: 0.171
data_MOF--net-fnh--node1-XOMCOT_clean_sbu_1--edge1-XIVTED_clean_linker_0
_symmetry_space_group_name_H-M    P1
_symmetry_Int_Tables_number       1
_symmetry_cell_setting            triclinic
loop_
_symmetry_equiv_pos_as_xyz
'x, y, z'
_cell_length_a     69.04163
_cell_length_b     69.245333
_cell_length_c     23.898811
_cell_angle_alpha  90.042519
_cell_angle_beta   89.954409
_cell_angle_gamma 119.76265
loop_
_atom_site_label
_atom_site_type_symbol
_atom_site_fract_x
_atom_site_fract_y
_atom_site_fract_z
_atom_type_partial_charge
C0 C 0.09197 0.21511 0.24822 0.0
C1 C 0.07491 0.21443 0.2794 0.0
N2 N 0.06902 0.19834 0.3179 0.0
N3 N 0.09695 0.19989 0.26833 0.0
C4 C 0.08252 0.18973 0.31033 0.0
H5 H 0.10058 0.22634 0.21397 0.0
Co6 Co 0.11974 0.19616 0.243 0.0
C7 C 0.13697 0.18025 0.34253 0.0
O8 O 0.15703 0.19524 0.32601 0.0
N9 N 0.14294 0.19255 0.21564 0.0
C10 C 0.17567 0.19733 0.18788 0.0
C11 C 0.16327 0.20756 0.19591 0.0
C12 C 0.14321 0.17323 0.21736 0.0
N13 N 0.16314 0.17576 0.20223 0.0
O14 O 0.09674 0.16864 0.20009 0.0
H15 H 0.1691 0.22487 0.1877 0.0
H16 H 0.12916 0.15773 0.23132 0.0
O17 O 0.11976 0.17858 0.31555 0.0
C18 C 0.0943 0.17255 0.14818 0.0
O19 O 0.10861 0.19227 0.12835 0.0
N20 N 0.14026 0.22474 0.2751 0.0
C21 C 0.16464 0.27048 0.30444 0.0
C22 C 0.15671 0.25362 0.34561 0.0
C23 C 0.14426 0.2309 0.3302 0.0
C24 C 0.14703 0.24092 0.23519 0.0
C25 C 0.15942 0.26357 0.24856 0.0
H26 H 0.1371 0.21853 0.3628 0.0
H27 H 0.14214 0.23618 0.19213 0.0
H28 H 0.08241 0.17688 0.33631 0.0
H29 H 0.06758 0.22501 0.27479 0.0
H30 H 0.19238 0.20508 0.17073 0.0
H31 H 0.15976 0.25787 0.38954 0.0
H32 H 0.16405 0.27559 0.21508 0.0
C33 C 0.83209 0.88241 0.26032 0.0
C34 C 0.83387 0.86542 0.28482 0.0
N35 N 0.8529 0.87449 0.31481 0.0
N36 N 0.84963 0.90199 0.27606 0.0
C37 C 0.86242 0.89665 0.3072 0.0
H38 H 0.81831 0.88073 0.23518 0.0
Co39 Co 0.85329 0.92929 0.2585 0.0
C40 C 0.87488 0.94405 0.38338 0.0
O41 O 0.86583 0.92437 0.40705 0.0
N42 N 0.85652 0.95663 0.24031 0.0
C43 C 0.85397 0.98728 0.24867 0.0
C44 C 0.85568 0.97106 0.27717 0.0
C45 C 0.85505 0.96424 0.18975 0.0
N46 N 0.85323 0.98268 0.19393 0.0
O47 O 0.88074 0.93506 0.21292 0.0
H48 H 0.8544 0.969 0.32206 0.0
H49 H 0.854 0.95573 0.15093 0.0
O50 O 0.87111 0.94534 0.33076 0.0
C51 C 0.87553 0.92612 0.16345 0.0
O52 O 0.8545 0.91707 0.14847 0.0
N53 N 0.82467 0.92095 0.29262 0.0
C54 C 0.77867 0.90043 0.31957 0.0
C55 C 0.79413 0.89973 0.35674 0.0
C56 C 0.81703 0.9102 0.3427 0.0
C57 C 0.80972 0.92163 0.2562 0.0
C58 C 0.78699 0.91205 0.26929 0.0
H59 H 0.82816 0.90813 0.37032 0.0
H60 H 0.81507 0.92854 0.2149 0.0
H61 H 0.87772 0.90887 0.32693 0.0
H62 H 0.82149 0.84793 0.28353 0.0
H63 H 0.85192 1.0005 0.26671 0.0
H64 H 0.7885 0.8907 0.39581 0.0
H65 H 0.77577 0.91263 0.23855 0.0
C66 C 0.15843 0.95994 0.24291 0.0
C67 C 0.17558 0.97744 0.27086 0.0
N68 N 0.16724 0.98036 0.31886 0.0
N69 N 0.13957 0.95212 0.27348 0.0
C70 C 0.14541 0.96507 0.31925 0.0
H71 H 0.15985 0.95265 0.20421 0.0
Co72 Co 0.113 0.92746 0.25547 0.0
C73 C 0.09263 0.92256 0.37767 0.0
O74 O 0.10351 0.91289 0.3962 0.0
N75 N 0.08605 0.90244 0.23708 0.0
C76 C 0.05643 0.86854 0.24392 0.0
C77 C 0.07222 0.88642 0.27318 0.0
C78 C 0.07829 0.89387 0.18611 0.0
N79 N 0.06056 0.87316 0.1893 0.0
O80 O 0.10618 0.9478 0.20727 0.0
H81 H 0.07447 0.8866 0.31776 0.0
H82 H 0.08623 0.90203 0.14743 0.0
O83 O 0.09589 0.92985 0.32635 0.0
C84 C 0.11454 0.95059 0.15718 0.0
O85 O 0.12334 0.93827 0.14298 0.0
N86 N 0.12327 0.90841 0.29025 0.0
C87 C 0.14502 0.88354 0.3139 0.0
C88 C 0.14754 0.90092 0.34912 0.0
C89 C 0.13718 0.91352 0.33567 0.0
C90 C 0.12124 0.89179 0.25526 0.0
C91 C 0.13149 0.8791 0.26661 0.0
H92 H 0.14121 0.92791 0.36104 0.0
H93 H 0.11272 0.88893 0.21579 0.0
H94 H 0.13434 0.96254 0.35396 0.0
H95 H 0.19301 0.98628 0.25893 0.0
H96 H 0.04392 0.85279 0.2613 0.0
H97 H 0.15843 0.90557 0.3852 0.0
H98 H 0.12925 0.8662 0.23735 0.0
C99 C 0.21601 0.0728 0.75381 0.0
C100 C 0.22063 0.06154 0.71356 0.0
N101 N 0.2125 0.06402 0.66462 0.0
N102 N 0.2048 0.08203 0.73031 0.0
C103 C 0.20291 0.07646 0.67588 0.0
H104 H 0.22107 0.07471 0.79718 0.0
Co105 Co 0.19793 0.10062 0.76857 0.0
C106 C 0.18223 0.1226 0.68074 0.0
O107 O 0.19497 0.14115 0.70801 0.0
N108 N 0.19104 0.11881 0.81041 0.0
C109 C 0.16693 0.12351 0.86197 0.0
C110 C 0.17111 0.11808 0.80992 0.0
C111 C 0.19865 0.12489 0.86298 0.0
N112 N 0.18407 0.12719 0.89548 0.0
O113 O 0.17075 0.07373 0.80393 0.0
H114 H 0.15872 0.1106 0.77734 0.0
H115 H 0.21235 0.12352 0.88016 0.0
O116 O 0.18108 0.1043 0.69895 0.0
C117 C 0.17546 0.06882 0.8528 0.0
O118 O 0.19608 0.08083 0.87046 0.0
N119 N 0.22634 0.12511 0.74453 0.0
C120 C 0.27251 0.15276 0.72049 0.0
C121 C 0.25616 0.14613 0.67819 0.0
C122 C 0.23328 0.13213 0.69085 0.0
C123 C 0.2421 0.13112 0.78551 0.0
C124 C 0.26489 0.14506 0.77484 0.0
H125 H 0.22152 0.12595 0.6567 0.0
H126 H 0.23733 0.12354 0.82619 0.0
H127 H 0.19482 0.08148 0.64505 0.0
H128 H 0.22964 0.05261 0.71954 0.0
H129 H 0.15133 0.12208 0.87574 0.0
H130 H 0.26098 0.15118 0.63523 0.0
H131 H 0.27657 0.14859 0.80875 0.0
C132 C 0.9728 0.1494 0.75407 0.0
C133 C 0.98728 0.16404 0.715 0.0
N134 N 0.98959 0.15206 0.67375 0.0
N135 N 0.96612 0.12847 0.737 0.0
C136 C 0.97718 0.13062 0.68917 0.0
H137 H 0.96596 0.15361 0.78971 0.0
Co138 Co 0.94216 0.10351 0.76518 0.0
C139 C 0.9304 0.07724 0.64912 0.0
O140 O 0.91777 0.08557 0.63473 0.0
N141 N 0.91768 0.07829 0.79385 0.0
C142 C 0.88295 0.05007 0.79976 0.0
C143 C 0.89978 0.06341 0.76414 0.0
C144 C 0.91131 0.07354 0.84766 0.0
N145 N 0.89012 0.05666 0.8522 0.0
O146 O 0.964 0.09802 0.81111 0.0
H147 H 0.89791 0.06333 0.71955 0.0
H148 H 0.9215 0.08311 0.88257 0.0
O149 O 0.941 0.08316 0.69678 0.0
C150 C 0.96945 0.10915 0.85783 0.0
O151 O 0.95907 0.12018 0.8701 0.0
N152 N 0.9223 0.11305 0.73208 0.0
C153 C 0.89815 0.13548 0.70877 0.0
C154 C 0.91274 0.13462 0.66908 0.0
C155 C 0.9252 0.12406 0.68226 0.0
C156 C 0.90839 0.11429 0.77113 0.0
C157 C 0.89615 0.12507 0.76027 0.0
H158 H 0.93777 0.12558 0.65288 0.0
H159 H 0.90765 0.10817 0.81297 0.0
H160 H 0.97479 0.11671 0.66373 0.0
H161 H 0.99384 0.18185 0.71441 0.0
H162 H 0.86625 0.03754 0.78778 0.0
H163 H 0.91545 0.14311 0.62936 0.0
H164 H 0.88559 0.12576 0.79286 0.0
C165 C 0.8935 0.82992 0.7631 0.0
C166 C 0.87864 0.83181 0.72836 0.0
N167 N 0.89043 0.84693 0.68861 0.0
N168 N 0.91437 0.84355 0.74444 0.0
C169 C 0.91202 0.85407 0.70013 0.0
H170 H 0.88935 0.81823 0.79713 0.0
Co171 Co 0.93959 0.84378 0.76864 0.0
C172 C 0.96358 0.85858 0.65004 0.0
O173 O 0.95366 0.83792 0.63288 0.0
N174 N 0.96517 0.844 0.79325 0.0
C175 C 0.99333 0.83709 0.79409 0.0
C176 C 0.97954 0.84099 0.76089 0.0
C177 C 0.9707 0.84205 0.84604 0.0
N178 N 0.98752 0.83743 0.84756 0.0
O179 O 0.94624 0.87093 0.81641 0.0
H180 H 0.97887 0.83951 0.71605 0.0
H181 H 0.96168 0.84265 0.88236 0.0
O182 O 0.95909 0.86299 0.69985 0.0
C183 C 0.93564 0.86539 0.8639 0.0
O184 O 0.92437 0.84408 0.87595 0.0
N185 N 0.92922 0.8146 0.73335 0.0
C186 C 0.90718 0.76842 0.70552 0.0
C187 C 0.90595 0.78416 0.67047 0.0
C188 C 0.91653 0.80687 0.68571 0.0
C189 C 0.92969 0.79923 0.76864 0.0
C190 C 0.91934 0.77654 0.75529 0.0
H191 H 0.91388 0.81805 0.65953 0.0
H192 H 0.93695 0.80406 0.8097 0.0
H193 H 0.92569 0.86509 0.67335 0.0
H194 H 0.86063 0.82186 0.73007 0.0
H195 H 1.0056 0.83281 0.77976 0.0
H196 H 0.89654 0.77903 0.63187 0.0
H197 H 0.91999 0.76532 0.78578 0.0
C198 C 0.75224 0.5434 0.57781 0.0
C199 C 0.73525 0.54281 0.60911 0.0
N200 N 0.73028 0.52767 0.64974 0.0
N201 N 0.7581 0.5291 0.59995 0.0
C202 C 0.74424 0.51954 0.64333 0.0
H203 H 0.76028 0.55403 0.54221 0.0
Co204 Co 0.78155 0.52619 0.57584 0.0
C205 C 0.79875 0.51132 0.67805 0.0
O206 O 0.81887 0.52671 0.66302 0.0
N207 N 0.80551 0.52354 0.54963 0.0
C208 C 0.8388 0.53034 0.52037 0.0
C209 C 0.8251 0.53917 0.52766 0.0
C210 C 0.80748 0.50515 0.55334 0.0
N211 N 0.82783 0.50898 0.53729 0.0
O212 O 0.75933 0.49838 0.53278 0.0
H213 H 0.82949 0.55596 0.51701 0.0
H214 H 0.79433 0.4894 0.56896 0.0
O215 O 0.78171 0.50902 0.64906 0.0
C216 C 0.75675 0.50236 0.48102 0.0
O217 O 0.7707 0.52227 0.46159 0.0
N218 N 0.80123 0.55505 0.6078 0.0
C219 C 0.82429 0.60092 0.63545 0.0
C220 C 0.81778 0.58441 0.67711 0.0
C221 C 0.80572 0.56158 0.66262 0.0
C222 C 0.80694 0.57094 0.56745 0.0
C223 C 0.81861 0.59368 0.58001 0.0
H224 H 0.79923 0.54942 0.69578 0.0
H225 H 0.80181 0.56585 0.52468 0.0
H226 H 0.7449 0.50758 0.6712 0.0
H227 H 0.72739 0.55285 0.60322 0.0
H228 H 0.85526 0.53883 0.50177 0.0
H229 H 0.82106 0.58906 0.72079 0.0
H230 H 0.82296 0.60552 0.54618 0.0
C231 C 0.49361 0.21368 0.59689 0.0
C232 C 0.49566 0.19686 0.6214 0.0
N233 N 0.51512 0.20609 0.64952 0.0
N234 N 0.51145 0.23335 0.6107 0.0
C235 C 0.52462 0.2282 0.64088 0.0
H236 H 0.47962 0.21176 0.57235 0.0
Co237 Co 0.5153 0.26047 0.59054 0.0
C238 C 0.53703 0.27588 0.71474 0.0
O239 O 0.52805 0.25617 0.73833 0.0
N240 N 0.51841 0.28748 0.56989 0.0
C241 C 0.51503 0.3177 0.57572 0.0
C242 C 0.51752 0.30222 0.60552 0.0
C243 C 0.51617 0.29415 0.51876 0.0
N244 N 0.5139 0.31239 0.52133 0.0
O245 O 0.54279 0.26566 0.54556 0.0
H246 H 0.51669 0.30082 0.65058 0.0
H247 H 0.51508 0.28517 0.48078 0.0
O248 O 0.53318 0.27715 0.66218 0.0
C249 C 0.53772 0.25647 0.4963 0.0
O250 O 0.51674 0.24741 0.48083 0.0
N251 N 0.48676 0.2527 0.62322 0.0
C252 C 0.44059 0.23331 0.64777 0.0
C253 C 0.45646 0.23782 0.69037 0.0
C254 C 0.47942 0.24737 0.67722 0.0
C255 C 0.47165 0.249 0.58188 0.0
C256 C 0.44882 0.23963 0.59311 0.0
H257 H 0.4909 0.24948 0.71014 0.0
H258 H 0.47724 0.25247 0.53891 0.0
H259 H 0.54032 0.24052 0.65879 0.0
H260 H 0.48329 0.17935 0.62096 0.0
H261 H 0.51282 0.33094 0.59288 0.0
H262 H 0.45115 0.23314 0.73325 0.0
H263 H 0.43765 0.23704 0.55856 0.0
C264 C 0.82274 0.28715 0.58187 0.0
C265 C 0.83952 0.30716 0.60144 0.0
N266 N 0.83025 0.31576 0.63566 0.0
N267 N 0.80324 0.28312 0.60485 0.0
C268 C 0.80824 0.30091 0.6369 0.0
H269 H 0.8246 0.27599 0.55353 0.0
Co270 Co 0.77649 0.25847 0.58963 0.0
C271 C 0.75746 0.2551 0.71307 0.0
O272 O 0.76939 0.2467 0.73255 0.0
N273 N 0.74942 0.23345 0.57339 0.0
C274 C 0.71958 0.19981 0.5817 0.0
C275 C 0.73559 0.21782 0.61023 0.0
C276 C 0.74149 0.22458 0.52279 0.0
N277 N 0.7236 0.20402 0.52687 0.0
O278 O 0.76928 0.27842 0.54097 0.0
H279 H 0.73795 0.21837 0.65486 0.0
H280 H 0.74944 0.23248 0.48384 0.0
O281 O 0.76002 0.26154 0.66105 0.0
C282 C 0.77826 0.2817 0.49153 0.0
O283 O 0.78803 0.27017 0.47835 0.0
N284 N 0.78696 0.23982 0.62535 0.0
C285 C 0.80988 0.21599 0.65018 0.0
C286 C 0.81276 0.2342 0.68302 0.0
C287 C 0.8018 0.24618 0.66898 0.0
C288 C 0.78446 0.2225 0.59251 0.0
C289 C 0.79534 0.21043 0.60429 0.0
H290 H 0.80623 0.26129 0.69186 0.0
H291 H 0.77524 0.21871 0.55389 0.0
H292 H 0.79613 0.30262 0.66207 0.0
H293 H 0.85713 0.31464 0.59207 0.0
H294 H 0.70694 0.18428 0.59973 0.0
H295 H 0.82391 0.23974 0.71858 0.0
H296 H 0.79316 0.19758 0.57506 0.0
C297 C 0.87071 0.39836 0.0725 0.0
C298 C 0.87369 0.3888 0.0252 0.0
N299 N 0.86825 0.39698 0.98051 0.0
N300 N 0.8633 0.4123 0.05736 0.0
C301 C 0.86205 0.41116 1.00123 0.0
H302 H 0.87426 0.39576 0.11497 0.0
Co303 Co 0.85964 0.43133 0.10346 0.0
C304 C 0.84519 0.4573 0.02362 0.0
O305 O 0.8593 0.47505 0.0519 0.0
N306 N 0.85585 0.44997 0.15193 0.0
C307 C 0.835 0.45756 0.20844 0.0
C308 C 0.83721 0.45167 0.15514 0.0
C309 C 0.86466 0.45495 0.20382 0.0
N310 N 0.85204 0.45914 0.23909 0.0
O311 O 0.83196 0.40518 0.13906 0.0
H312 H 0.82422 0.44572 0.12387 0.0
H313 H 0.87773 0.45192 0.21811 0.0
O314 O 0.84268 0.43819 0.03928 0.0
C315 C 0.83717 0.39867 0.18493 0.0
O316 O 0.85836 0.40873 0.19878 0.0
N317 N 0.8887 0.45479 0.0795 0.0
C318 C 0.93512 0.48096 0.05676 0.0
C319 C 0.91898 0.47849 0.01687 0.0
C320 C 0.89591 0.46498 0.02852 0.0
C321 C 0.90423 0.45702 0.11816 0.0
C322 C 0.92719 0.47007 0.10817 0.0
H323 H 0.88418 0.4619 0.99526 0.0
H324 H 0.89888 0.44739 0.15617 0.0
H325 H 0.85758 0.42121 0.97569 0.0
H326 H 0.87932 0.37674 0.02389 0.0
H327 H 0.8206 0.45797 0.22499 0.0
H328 H 0.9241 0.48597 0.97586 0.0
H329 H 0.93867 0.47114 0.14048 0.0
C330 C 0.63601 0.48064 0.08828 0.0
C331 C 0.65088 0.49541 0.04998 0.0
N332 N 0.65375 0.48356 1.00937 0.0
N333 N 0.62959 0.45977 0.07118 0.0
C334 C 0.64137 0.46209 0.02457 0.0
H335 H 0.62863 0.48472 0.12301 0.0
Co336 Co 0.60527 0.43449 0.0971 0.0
C337 C 0.59538 0.41026 0.97872 0.0
O338 O 0.58493 0.42066 0.96228 0.0
N339 N 0.58062 0.40884 0.12323 0.0
C340 C 0.54603 0.38023 0.12521 0.0
C341 C 0.56321 0.39436 0.09147 0.0
C342 C 0.57365 0.40303 0.17631 0.0
N343 N 0.5525 0.38589 0.17851 0.0
O344 O 0.62678 0.42862 0.14337 0.0
H345 H 0.56192 0.39519 0.0468 0.0
H346 H 0.58337 0.41204 0.21239 0.0
O347 O 0.60464 0.41473 0.02808 0.0
C348 C 0.63187 0.4393 0.19072 0.0
O349 O 0.62118 0.44997 0.2036 0.0
N350 N 0.58549 0.4443 0.06334 0.0
C351 C 0.56128 0.46684 0.03937 0.0
C352 C 0.57814 0.46836 1.00337 0.0
C353 C 0.59016 0.45735 0.0164 0.0
C354 C 0.56949 0.44331 0.09922 0.0
C355 C 0.55703 0.45382 0.08758 0.0
H356 H 0.6038 0.46016 0.98926 0.0
H357 H 0.56705 0.43557 0.13964 0.0
H358 H 0.63934 0.44828 0.99928 0.0
H359 H 0.65719 0.51317 0.04905 0.0
H360 H 0.52953 0.36785 0.11147 0.0
H361 H 0.58243 0.4784 0.96583 0.0
H362 H 0.545 0.45277 0.11829 0.0
C363 C 0.55673 0.1602 0.09617 0.0
C364 C 0.54199 0.16174 0.06022 0.0
N365 N 0.55391 0.17609 0.01916 0.0
N366 N 0.57765 0.17333 0.07711 0.0
C367 C 0.57544 0.18314 0.0311 0.0
H368 H 0.55246 0.1491 0.13157 0.0
Co369 Co 0.60264 0.17356 0.10299 0.0
C370 C 0.62777 0.1882 0.9852 0.0
O371 O 0.61845 0.16747 0.96877 0.0
N372 N 0.62799 0.17367 0.12918 0.0
C373 C 0.65581 0.16628 0.13179 0.0
C374 C 0.64222 0.17013 0.09773 0.0
C375 C 0.63339 0.17205 0.18237 0.0
N376 N 0.65003 0.16718 0.18497 0.0
O377 O 0.60905 0.20086 0.15017 0.0
H378 H 0.64159 0.16825 0.05302 0.0
H379 H 0.62442 0.17309 0.21824 0.0
O380 O 0.62266 0.19265 0.03428 0.0
C381 C 0.5984 0.19548 0.19766 0.0
O382 O 0.58724 0.17422 0.21027 0.0
N383 N 0.5923 0.14424 0.06885 0.0
C384 C 0.56952 0.09787 0.0444 0.0
C385 C 0.56979 0.11343 1.00606 0.0
C386 C 0.58056 0.13633 0.01986 0.0
C387 C 0.59155 0.129 0.10672 0.0
C388 C 0.58069 0.10614 0.0952 0.0
H389 H 0.57861 0.14746 0.99176 0.0
H390 H 0.59823 0.13419 0.14821 0.0
H391 H 0.58916 0.19357 1.00376 0.0
H392 H 0.52397 0.1521 0.06231 0.0
H393 H 0.66793 0.16167 0.11829 0.0
H394 H 0.56074 0.10784 0.967 0.0
H395 H 0.58059 0.09489 0.12684 0.0
C396 C 0.41582 0.86798 0.9353 0.0
C397 C 0.40167 0.86774 0.97618 0.0
N398 N 0.40004 0.85328 0.01613 0.0
N399 N 0.42302 0.85383 0.95001 0.0
C400 C 0.41244 0.84447 0.99798 0.0
H401 H 0.42233 0.87942 0.90046 0.0
Co402 Co 0.44761 0.85403 0.92101 0.0
C403 C 0.4601 0.83964 0.03635 0.0
O404 O 0.47184 0.86047 0.0518 0.0
N405 N 0.47274 0.85447 0.89177 0.0
C406 C 0.50822 0.86307 0.8856 0.0
C407 C 0.49102 0.85838 0.92134 0.0
C408 C 0.47922 0.85665 0.83794 0.0
N409 N 0.50089 0.8623 0.83316 0.0
O410 O 0.42665 0.82671 0.87437 0.0
H411 H 0.49275 0.86001 0.966 0.0
H412 H 0.46866 0.85551 0.8033 0.0
O413 O 0.44975 0.83501 0.98837 0.0
C414 C 0.4207 0.83214 0.82799 0.0
O415 O 0.43003 0.85345 0.8164 0.0
N416 N 0.46655 0.88343 0.95489 0.0
C417 C 0.48991 0.92999 0.97947 0.0
C418 C 0.47532 0.91414 0.01858 0.0
C419 C 0.4634 0.89122 1.00496 0.0
C420 C 0.48 0.89879 0.91599 0.0
C421 C 0.49184 0.92166 0.92741 0.0
H422 H 0.45111 0.87997 0.03438 0.0
H423 H 0.48065 0.89366 0.87378 0.0
H424 H 0.41534 0.83293 0.02186 0.0
H425 H 0.39508 0.879 0.97908 0.0
H426 H 0.52519 0.86816 0.89767 0.0
H427 H 0.47261 0.91928 0.05921 0.0
H428 H 0.50157 0.93273 0.89388 0.0
C429 C 0.16177 0.5536 0.9161 0.0
C430 C 0.16549 0.5374 0.93815 0.0
N431 N 0.1832 0.54739 0.97259 0.0
N432 N 0.1768 0.57346 0.93773 0.0
C433 C 0.18979 0.56925 0.97136 0.0
H434 H 0.14873 0.55112 0.88704 0.0
Co435 Co 0.17869 0.59993 0.92019 0.0
C436 C 0.19464 0.62066 0.0416 0.0
O437 O 0.17403 0.61046 0.05972 0.0
N438 N 0.18057 0.62677 0.9012 0.0
C439 C 0.17661 0.65671 0.90563 0.0
C440 C 0.1794 0.64154 0.93617 0.0
C441 C 0.17857 0.63337 0.8497 0.0
N442 N 0.17572 0.65126 0.85142 0.0
O443 O 0.20568 0.60629 0.87134 0.0
H444 H 0.17856 0.64045 0.9811 0.0
H445 H 0.17788 0.62443 0.81196 0.0
O446 O 0.19858 0.61697 0.99051 0.0
C447 C 0.20025 0.59676 0.82252 0.0
O448 O 0.17905 0.58687 0.80877 0.0
N449 N 0.14972 0.59016 0.95712 0.0
C450 C 0.10342 0.56827 0.98595 0.0
C451 C 0.11892 0.56503 0.01714 0.0
C452 C 0.14168 0.57568 1.00152 0.0
C453 C 0.13463 0.59295 0.92587 0.0
C454 C 0.1119 0.58268 0.93988 0.0
H455 H 0.15264 0.57151 0.02426 0.0
H456 H 0.13958 0.602 0.88703 0.0
H457 H 0.20327 0.58183 0.99612 0.0
H458 H 0.15574 0.51969 0.93043 0.0
H459 H 0.17398 0.66979 0.92214 0.0
H460 H 0.11353 0.55396 0.05281 0.0
H461 H 0.10088 0.58514 0.91236 0.0
C462 C 0.48925 0.64182 0.94389 0.0
C463 C 0.50205 0.6537 0.98898 0.0
N464 N 0.49136 0.64291 0.03598 0.0
N465 N 0.47072 0.62383 0.96299 0.0
C466 C 0.47245 0.62498 0.01896 0.0
H467 H 0.49362 0.64545 0.90019 0.0
Co468 Co 0.45032 0.59992 0.92328 0.0
C469 C 0.41001 0.57487 1.0069 0.0
O470 O 0.40723 0.55598 0.98688 0.0
N471 N 0.43007 0.57561 0.88213 0.0
C472 C 0.41426 0.54362 0.83609 0.0
C473 C 0.434 0.56069 0.85554 0.0
C474 C 0.40806 0.5679 0.87556 0.0
N475 N 0.3979 0.54797 0.84973 0.0
O476 O 0.44366 0.62063 0.87617 0.0
H477 H 0.45007 0.56186 0.85064 0.0
H478 H 0.39952 0.57622 0.89204 0.0
O479 O 0.42588 0.59337 0.98592 0.0
C480 C 0.45288 0.62446 0.82693 0.0
O481 O 0.46256 0.61296 0.81266 0.0
N482 N 0.46119 0.58205 0.95889 0.0
C483 C 0.4839 0.55852 0.98525 0.0
C484 C 0.46643 0.55693 0.01928 0.0
C485 C 0.45557 0.56913 1.00604 0.0
C486 C 0.47894 0.58473 0.92768 0.0
C487 C 0.49017 0.57305 0.93936 0.0
H488 H 0.44311 0.56833 0.03448 0.0
H489 H 0.48395 0.5956 0.89161 0.0
H490 H 0.46078 0.61209 0.04665 0.0
H491 H 0.51811 0.66878 0.9873 0.0
H492 H 0.41221 0.52929 0.81292 0.0
H493 H 0.4614 0.54663 0.05644 0.0
H494 H 0.50338 0.57507 0.91137 0.0
C495 C 0.55893 0.74624 0.43455 0.0
C496 C 0.55731 0.72665 0.4166 0.0
N497 N 0.53776 0.71503 0.38957 0.0
N498 N 0.54079 0.74712 0.41733 0.0
C499 C 0.52793 0.72767 0.39132 0.0
H500 H 0.57272 0.75932 0.45744 0.0
Co501 Co 0.53599 0.77028 0.43242 0.0
C502 C 0.51373 0.76132 0.30783 0.0
O503 O 0.52174 0.74941 0.28539 0.0
N504 N 0.53171 0.794 0.44821 0.0
C505 C 0.53376 0.82684 0.43696 0.0
C506 C 0.53242 0.80879 0.41004 0.0
C507 C 0.53288 0.80352 0.49799 0.0
N508 N 0.53441 0.8236 0.49209 0.0
O509 O 0.5086 0.74856 0.47779 0.0
H510 H 0.53407 0.80768 0.36537 0.0
H511 H 0.53409 0.79657 0.53748 0.0
O512 O 0.51847 0.76749 0.35949 0.0
C513 C 0.51361 0.74536 0.52805 0.0
O514 O 0.53439 0.75796 0.54421 0.0
N515 N 0.56434 0.79059 0.39826 0.0
C516 C 0.61014 0.81642 0.37067 0.0
C517 C 0.59484 0.80016 0.33365 0.0
C518 C 0.57198 0.78757 0.34798 0.0
C519 C 0.5791 0.80634 0.43445 0.0
C520 C 0.60174 0.81965 0.42105 0.0
H521 H 0.56086 0.77442 0.32035 0.0
H522 H 0.57365 0.8079 0.47571 0.0
H523 H 0.51207 0.72323 0.37209 0.0
H524 H 0.56982 0.72169 0.4212 0.0
H525 H 0.53583 0.84188 0.41759 0.0
H526 H 0.60056 0.7969 0.29445 0.0
H527 H 0.61286 0.83159 0.45154 0.0
C528 C 0.29838 0.81401 0.43458 0.0
C529 C 0.31695 0.83098 0.40995 0.0
N530 N 0.32644 0.82187 0.37836 0.0
N531 N 0.29586 0.79434 0.41717 0.0
C532 C 0.31366 0.79967 0.38455 0.0
H533 H 0.28711 0.81592 0.46244 0.0
Co534 Co 0.27233 0.76755 0.43861 0.0
C535 C 0.27669 0.75153 0.31373 0.0
O536 O 0.28666 0.77125 0.29007 0.0
N537 N 0.24816 0.74115 0.46131 0.0
C538 C 0.21365 0.71248 0.45752 0.0
C539 C 0.23239 0.72584 0.42714 0.0
C540 C 0.23856 0.73686 0.5121 0.0
N541 N 0.21744 0.71964 0.51078 0.0
O542 O 0.29441 0.76183 0.48266 0.0
H543 H 0.23324 0.72579 0.38207 0.0
H544 H 0.24638 0.74714 0.54836 0.0
O545 O 0.27254 0.75021 0.36696 0.0
C546 C 0.29896 0.77126 0.53165 0.0
O547 O 0.28758 0.78091 0.54736 0.0
N548 N 0.25189 0.77588 0.40694 0.0
C549 C 0.2255 0.79582 0.38317 0.0
C550 C 0.23329 0.78739 0.34012 0.0
C551 C 0.24646 0.77752 0.35281 0.0
C552 C 0.24383 0.78323 0.44907 0.0
C553 C 0.23091 0.79327 0.43833 0.0
H554 H 0.25241 0.77168 0.31891 0.0
H555 H 0.24843 0.7823 0.49182 0.0
H556 H 0.31673 0.78756 0.36378 0.0
H557 H 0.32255 0.84858 0.41309 0.0
H558 H 0.19792 0.69965 0.44077 0.0
H559 H 0.22939 0.78847 0.29679 0.0
H560 H 0.226 0.79973 0.47347 0.0
C561 C 0.22492 0.49711 0.41001 0.0
C562 C 0.2123 0.49724 0.36572 0.0
N563 N 0.22631 0.51101 0.32633 0.0
N564 N 0.24666 0.5107 0.39821 0.0
C565 C 0.24698 0.51916 0.34748 0.0
H566 H 0.21878 0.48684 0.44704 0.0
Co567 Co 0.26974 0.51253 0.43964 0.0
C568 C 0.30464 0.52477 0.34196 0.0
O569 O 0.30409 0.50577 0.35031 0.0
N570 N 0.29237 0.51404 0.48413 0.0
C571 C 0.32228 0.51586 0.5241 0.0
C572 C 0.31378 0.51926 0.47544 0.0
C573 C 0.28865 0.5085 0.53862 0.0
N574 N 0.30627 0.50898 0.56333 0.0
O575 O 0.27275 0.54024 0.47951 0.0
H576 H 0.32309 0.52557 0.4373 0.0
H577 H 0.27295 0.50334 0.55951 0.0
O578 O 0.29282 0.5301 0.37446 0.0
C579 C 0.25906 0.5356 0.52142 0.0
O580 O 0.24494 0.51454 0.53132 0.0
N581 N 0.26299 0.48347 0.4105 0.0
C582 C 0.24349 0.43756 0.38262 0.0
C583 C 0.24881 0.45391 0.34106 0.0
C584 C 0.25813 0.4766 0.35587 0.0
C585 C 0.25768 0.46765 0.45099 0.0
C586 C 0.24848 0.44503 0.4381 0.0
H587 H 0.26076 0.4885 0.32336 0.0
H588 H 0.25923 0.47211 0.4945 0.0
H589 H 0.26208 0.52976 0.32457 0.0
H590 H 0.19434 0.48738 0.36208 0.0
H591 H 0.33906 0.51885 0.53069 0.0
H592 H 0.24491 0.44916 0.29759 0.0
H593 H 0.24484 0.43341 0.47213 0.0
H594 H 0.21917 0.14728 0.96559 0.0
H595 H 0.13457 0.1312 0.18972 0.0
H596 H 0.14823 0.10215 0.96095 0.0
H597 H 0.20455 0.18025 0.19528 0.0
H598 H 0.14345 0.10719 0.13499 0.0
H599 H 0.21762 0.14688 0.06793 0.0
C600 C 0.20331 0.1372 0.98633 0.0
C601 C 0.18361 0.12582 0.95526 0.0
C602 C 0.15701 0.12297 0.14943 0.0
C603 C 0.18164 0.12502 0.07146 0.0
C604 C 0.15192 0.13677 0.18091 0.0
C605 C 0.1687 0.1586 0.19264 0.0
C606 C 0.17872 0.13161 0.12812 0.0
C607 C 0.19091 0.16423 0.18276 0.0
C608 C 0.20244 0.13671 0.04456 0.0
C609 C 0.16358 0.11229 0.98357 0.0
N610 N 0.19529 0.15118 0.14888 0.0
N611 N 0.16304 0.1126 0.04014 0.0
H612 H 0.89504 0.0788 0.94965 0.0
H613 H 0.82801 0.96449 0.10212 0.0
H614 H 0.85504 0.01547 0.86799 0.0
H615 H 0.8695 0.02686 0.1858 0.0
H616 H 0.8274 0.98474 0.01935 0.0
H617 H 0.87625 0.06224 0.03766 0.0
C618 C 0.88223 0.06145 0.95021 0.0
C619 C 0.87719 0.04821 0.90214 0.0
C620 C 0.83633 0.99406 0.0561 0.0
C621 C 0.85551 0.02931 1.00195 0.0
C622 C 0.83683 0.9825 0.10294 0.0
C623 C 0.84959 0.99418 0.14938 0.0
C624 C 0.84921 0.01738 0.05555 0.0
C625 C 0.85994 0.0174 0.14992 0.0
C626 C 0.87129 0.05209 1.00021 0.0
C627 C 0.85972 0.02615 0.90435 0.0
N628 N 0.86003 0.02834 0.10292 0.0
N629 N 0.8498 0.01725 0.95381 0.0
H630 H 1.01709 0.84168 0.18362 0.0
H631 H 0.02864 0.84206 0.85802 0.0
H632 H 0.07919 0.87028 0.09263 0.0
H633 H 0.96673 0.82057 0.94663 0.0
H634 H 0.04553 0.83894 0.94417 0.0
H635 H 0.99752 0.82094 0.09987 0.0
C636 C 0.02661 0.84324 0.14621 0.0
C637 C 0.04954 0.85834 0.14385 0.0
C638 C 0.02813 0.83453 0.94458 0.0
C639 C 0.0275 0.83499 0.04855 0.0
C640 C 1.01847 0.83633 0.89538 0.0
C641 C 0.99654 0.83249 0.89581 0.0
C642 C 1.01586 0.8293 0.99453 0.0
C643 C 0.98404 0.82478 0.94517 0.0
C644 C 1.0155 0.83141 0.09856 0.0
C645 C 0.06129 0.85955 0.09504 0.0
N646 N 0.99404 0.8239 0.99302 0.0
N647 N 0.05005 0.84835 0.0488 0.0
H648 H 0.87821 0.93375 0.05083 0.0
H649 H 0.94176 0.86602 0.97696 0.0
H650 H 0.90681 0.91159 0.17787 0.0
H651 H 0.92381 0.89863 0.85099 0.0
H652 H 0.93106 0.88391 0.04996 0.0
H653 H 0.8962 0.92288 0.97854 0.0
C654 C 0.88879 0.92713 0.06387 0.0
C655 C 0.89123 0.92423 0.1215 0.0
C656 C 0.92982 0.8876 1.00653 0.0
C657 C 0.9116 0.91057 0.03684 0.0
C658 C 0.93617 0.87748 0.96439 0.0
C659 C 0.93441 0.88109 0.90684 0.0
C660 C 0.92088 0.90131 0.99215 0.0
C661 C 0.92624 0.89569 0.89421 0.0
C662 C 0.89898 0.9207 0.02209 0.0
C663 C 0.90478 0.91487 0.13463 0.0
N664 N 0.91964 0.90494 0.93607 0.0
N665 N 0.91412 0.90823 0.09304 0.0
H666 H 0.14506 0.02317 0.83638 0.0
H667 H 0.12595 0.9955 0.17035 0.0
H668 H 0.17093 0.07342 0.96458 0.0
H669 H 0.10999 0.94567 0.04358 0.0
H670 H 0.13711 0.02384 0.09566 0.0
H671 H 0.12693 0.99454 0.91005 0.0
C672 C 0.14635 0.02836 0.87961 0.0
C673 C 0.15933 0.05109 0.89341 0.0
C674 C 0.13079 1.00663 0.08404 0.0
C675 C 0.13886 0.01793 0.97948 0.0
C676 C 0.12408 0.9903 0.12703 0.0
C677 C 0.11655 0.96779 0.11405 0.0
C678 C 0.12997 1.00067 0.02694 0.0
C679 C 0.1154 0.9626 0.05633 0.0
C680 C 0.13621 1.01189 0.9221 0.0
C681 C 0.16088 0.0563 0.95118 0.0
N682 N 0.12197 0.97865 0.01566 0.0
N683 N 0.15098 0.04012 0.99137 0.0
H684 H 1.01379 0.1191 0.84002 0.0
H685 H 0.04875 0.14266 0.16968 0.0
H686 H 0.96673 0.10696 0.9721 0.0
H687 H 0.09622 0.16809 0.03463 0.0
H688 H 1.01847 0.12404 0.09993 0.0
H689 H 0.04368 0.13132 0.91112 0.0
C690 C 1.00949 0.11824 0.88388 0.0
C691 C 0.98729 0.11142 0.89938 0.0
C692 C 0.03556 0.13342 0.08551 0.0
C693 C 1.02201 0.12611 0.98232 0.0
C694 C 0.05299 0.14389 0.1257 0.0
C695 C 0.07545 0.15696 0.10887 0.0
C696 C 0.04034 0.13566 0.02739 0.0
C697 C 0.07938 0.1582 0.0504 0.0
C698 C 0.02673 0.12558 0.92477 0.0
C699 C 0.98335 0.11167 0.95752 0.0
N700 N 0.06229 0.14788 1.01248 0.0
N701 N 1.00025 0.11879 0.99618 0.0
H702 H 0.80207 0.46378 0.53043 0.0
H703 H 0.88779 0.48029 0.30701 0.0
H704 H 0.87051 0.51694 0.52862 0.0
H705 H 0.81731 0.43339 0.30605 0.0
H706 H 0.88662 0.48185 0.40961 0.0
H707 H 0.81314 0.44043 0.48001 0.0
C708 C 0.81956 0.47045 0.52086 0.0
C709 C 0.83511 0.49299 0.52938 0.0
C710 C 0.87152 0.47076 0.38704 0.0
C711 C 0.84759 0.46666 0.46973 0.0
C712 C 0.87219 0.4701 0.32873 0.0
C713 C 0.85238 0.45773 0.29871 0.0
C714 C 0.85086 0.45904 0.4147 0.0
C715 C 0.83268 0.44413 0.32803 0.0
C716 C 0.8259 0.45704 0.49191 0.0
C717 C 0.85767 0.50018 0.51859 0.0
N718 N 0.83232 0.44544 0.38443 0.0
N719 N 0.86318 0.48734 0.48711 0.0
H720 H 0.51688 0.34456 0.18913 0.0
H721 H 0.52635 0.35597 0.5148 0.0
H722 H 0.55632 0.40627 0.27818 0.0
H723 H 0.49229 0.29388 0.42463 0.0
H724 H 0.52587 0.37557 0.43063 0.0
H725 H 0.49677 0.32757 0.27497 0.0
C726 C 0.5211 0.35465 0.22655 0.0
C727 C 0.53887 0.37661 0.22712 0.0
C728 C 0.5181 0.3576 0.42955 0.0
C729 C 0.51622 0.35718 0.32551 0.0
C730 C 0.51837 0.34643 0.47753 0.0
C731 C 0.51019 0.32345 0.47565 0.0
C732 C 0.50985 0.34563 0.37957 0.0
C733 C 0.49972 0.31178 0.42681 0.0
C734 C 0.50959 0.34495 0.27557 0.0
C735 C 0.54344 0.38898 0.27658 0.0
N736 N 0.50025 0.32308 0.38017 0.0
N737 N 0.53246 0.37894 0.32424 0.0
H738 H 0.67988 0.17324 0.52206 0.0
H739 H 0.69082 0.17109 0.19641 0.0
H740 H 0.74176 0.20004 0.43062 0.0
H741 H 0.62927 0.1517 0.28483 0.0
H742 H 0.70753 0.16827 0.28316 0.0
H743 H 0.65988 0.15234 0.43883 0.0
C744 C 0.68925 0.17435 0.48468 0.0
C745 C 0.71228 0.189 0.48199 0.0
C746 C 0.69024 0.16426 0.28343 0.0
C747 C 0.68975 0.16548 0.38733 0.0
C748 C 0.68068 0.16589 0.23387 0.0
C749 C 0.65892 0.16252 0.23395 0.0
C750 C 0.67806 0.15969 0.33339 0.0
C751 C 0.64647 0.15552 0.28353 0.0
C752 C 0.67789 0.16244 0.43734 0.0
C753 C 0.72382 0.18966 0.43326 0.0
N754 N 0.65639 0.15479 0.3317 0.0
N755 N 0.71236 0.17838 0.38733 0.0
H756 H 0.58753 0.22924 0.18164 0.0
H757 H 0.56955 0.24291 0.51398 0.0
H758 H 0.60282 0.19597 0.31159 0.0
H759 H 0.54021 0.26243 0.38272 0.0
H760 H 0.58761 0.23143 0.44183 0.0
H761 H 0.57617 0.24714 0.25438 0.0
C762 C 0.58929 0.22624 0.2253 0.0
C763 C 0.59676 0.21127 0.23972 0.0
C764 C 0.57755 0.23862 0.4287 0.0
C765 C 0.58305 0.23156 0.32466 0.0
C766 C 0.56744 0.24552 0.47026 0.0
C767 C 0.5535 0.2542 0.45525 0.0
C768 C 0.57402 0.24045 0.37097 0.0
C769 C 0.55096 0.2562 0.39705 0.0
C770 C 0.58244 0.23626 0.26717 0.0
C771 C 0.59762 0.20758 0.29778 0.0
N772 N 0.56095 0.2495 0.35776 0.0
N773 N 0.59096 0.21749 0.33741 0.0
H774 H 0.83436 0.405 0.29629 0.0
H775 H 0.77127 0.27524 0.37894 0.0
H776 H 0.80586 0.35302 0.173 0.0
H777 H 0.79079 0.32703 0.50185 0.0
H778 H 0.78149 0.30292 0.30428 0.0
H779 H 0.81662 0.37725 0.37059 0.0
C780 C 0.82367 0.38779 0.28447 0.0
C781 C 0.82113 0.3818 0.22726 0.0
C782 C 0.78321 0.30834 0.3474 0.0
C783 C 0.80132 0.34898 0.31434 0.0
C784 C 0.77715 0.29239 0.39054 0.0
C785 C 0.77953 0.29838 0.44775 0.0
C786 C 0.79241 0.33106 0.36033 0.0
C787 C 0.78794 0.32121 0.45899 0.0
C788 C 0.81372 0.37178 0.32742 0.0
C789 C 0.80784 0.35884 0.21578 0.0
N790 N 0.79422 0.33654 0.41612 0.0
N791 N 0.79873 0.34346 0.25851 0.0
H792 H 0.67625 0.44933 0.17266 0.0
H793 H 0.71125 0.47233 0.50238 0.0
H794 H 0.62925 0.43706 0.30503 0.0
H795 H 0.75875 0.498 0.36744 0.0
H796 H 0.68099 0.45383 0.43257 0.0
H797 H 0.70616 0.46142 0.24366 0.0
C798 C 0.67197 0.44842 0.21654 0.0
C799 C 0.64978 0.4416 0.23216 0.0
C800 C 0.69809 0.46322 0.41817 0.0
C801 C 0.68453 0.45613 0.31499 0.0
C802 C 0.71551 0.47362 0.45841 0.0
C803 C 0.73797 0.48671 0.44163 0.0
C804 C 0.70287 0.46557 0.36005 0.0
C805 C 0.74191 0.48806 0.38315 0.0
C806 C 0.68922 0.45569 0.25738 0.0
C807 C 0.64586 0.44178 0.29034 0.0
N808 N 0.72483 0.47781 0.34518 0.0
N809 N 0.66278 0.44882 0.32894 0.0
H810 H 0.51942 0.85288 0.4957 0.0
H811 H 0.53948 0.86163 0.81831 0.0
H812 H 0.55903 0.83076 0.58534 0.0
H813 H 0.49284 0.87607 0.7337 0.0
H814 H 0.55806 0.86489 0.72991 0.0
H815 H 0.52105 0.87516 0.57684 0.0
C816 C 0.5288 0.85309 0.5322 0.0
C817 C 0.53828 0.83934 0.53528 0.0
C818 C 0.54398 0.86772 0.73082 0.0
C819 C 0.54018 0.86447 0.62747 0.0
C820 C 0.53332 0.86585 0.78139 0.0
C821 C 0.51393 0.86758 0.78302 0.0
C822 C 0.53485 0.87079 0.68151 0.0
C823 C 0.50701 0.87342 0.73388 0.0
C824 C 0.52979 0.86581 0.5783 0.0
C825 C 0.55063 0.8404 0.58267 0.0
N826 N 0.51716 0.87429 0.6847 0.0
N827 N 0.55088 0.85244 0.6275 0.0
H828 H 0.18699 0.69449 0.84194 0.0
H829 H 0.18103 0.67863 0.51987 0.0
H830 H 0.15354 0.63134 0.7564 0.0
H831 H 0.2172 0.74195 0.60422 0.0
H832 H 0.15876 0.66285 0.60355 0.0
H833 H 0.18571 0.71287 0.75616 0.0
C834 C 0.17898 0.68446 0.80534 0.0
C835 C 0.17131 0.66157 0.80513 0.0
C836 C 0.1713 0.68032 0.60349 0.0
C837 C 0.17002 0.68234 0.70722 0.0
C838 C 0.18406 0.68936 0.55562 0.0
C839 C 0.20174 0.71136 0.55601 0.0
C840 C 0.17667 0.69326 0.65228 0.0
C841 C 0.20457 0.72456 0.60317 0.0
C842 C 0.17821 0.69493 0.75643 0.0
C843 C 0.16067 0.64922 0.75721 0.0
N844 N 0.19253 0.71514 0.65004 0.0
N845 N 0.16077 0.65984 0.70965 0.0
H846 H 0.29176 0.52235 0.65183 0.0
H847 H 0.37497 0.50332 0.8338 0.0
H848 H 0.32467 0.48576 0.60507 0.0
H849 H 0.36732 0.56149 0.83734 0.0
H850 H 0.33953 0.48318 0.78421 0.0
H851 H 0.30252 0.52213 0.7495 0.0
C852 C 0.30062 0.51365 0.66266 0.0
C853 C 0.30813 0.50473 0.6209 0.0
C854 C 0.34529 0.50013 0.79764 0.0
C855 C 0.32006 0.50412 0.7312 0.0
C856 C 0.36564 0.51173 0.82512 0.0
C857 C 0.37469 0.53449 0.83641 0.0
C858 C 0.33421 0.51151 0.78116 0.0
C859 C 0.36134 0.5442 0.82744 0.0
C860 C 0.30662 0.51342 0.71814 0.0
C861 C 0.31934 0.49344 0.63636 0.0
N862 N 0.34197 0.53281 0.79873 0.0
N863 N 0.32533 0.49376 0.69041 0.0
H864 H 0.23363 0.58512 0.83827 0.0
H865 H 0.24589 0.56742 0.50529 0.0
H866 H 0.2009 0.60139 0.70872 0.0
H867 H 0.26741 0.53902 0.63408 0.0
H868 H 0.23504 0.58551 0.57843 0.0
H869 H 0.25153 0.57386 0.76514 0.0
C870 C 0.23072 0.58708 0.79466 0.0
C871 C 0.21589 0.59478 0.78043 0.0
C872 C 0.24264 0.57575 0.59087 0.0
C873 C 0.23619 0.58123 0.69512 0.0
C874 C 0.24923 0.56567 0.54869 0.0
C875 C 0.25847 0.55214 0.56266 0.0
C876 C 0.24508 0.57241 0.64833 0.0
C877 C 0.26109 0.54976 0.62059 0.0
C878 C 0.24075 0.58029 0.75258 0.0
C879 C 0.21235 0.59594 0.72243 0.0
N880 N 0.25454 0.55963 0.66063 0.0
N881 N 0.22225 0.58935 0.68266 0.0
H882 H 0.48188 0.7002 0.5107 0.0
H883 H 0.46469 0.66927 0.8432 0.0
H884 H 0.5114 0.74896 0.64167 0.0
H885 H 0.44812 0.62057 0.7131 0.0
H886 H 0.47611 0.69837 0.77043 0.0
H887 H 0.4639 0.67097 0.58306 0.0
C888 C 0.48408 0.70496 0.5544 0.0
C889 C 0.49807 0.72745 0.56929 0.0
C890 C 0.46958 0.68124 0.75765 0.0
C891 C 0.47762 0.69356 0.65375 0.0
C892 C 0.4627 0.66447 0.79954 0.0
C893 C 0.45489 0.64205 0.78505 0.0
C894 C 0.46862 0.67582 0.70013 0.0
C895 C 0.45367 0.63741 0.72698 0.0
C896 C 0.474 0.68813 0.59607 0.0
C897 C 0.50067 0.73207 0.62745 0.0
N898 N 0.46036 0.65387 0.68735 0.0
N899 N 0.49072 0.71555 0.66684 0.0
H900 H 0.37652 0.7978 0.84434 0.0
H901 H 0.34424 0.78508 0.51278 0.0
H902 H 0.42448 0.83212 0.71398 0.0
H903 H 0.29566 0.76457 0.64494 0.0
H904 H 0.37388 0.7965 0.5843 0.0
H905 H 0.34725 0.77981 0.77197 0.0
C906 C 0.38116 0.80101 0.80062 0.0
C907 C 0.40342 0.81629 0.78596 0.0
C908 C 0.35668 0.78908 0.59775 0.0
C909 C 0.36941 0.7959 0.70153 0.0
C910 C 0.33961 0.78221 0.55655 0.0
C911 C 0.31703 0.77326 0.57204 0.0
C912 C 0.35143 0.78697 0.65558 0.0
C913 C 0.3126 0.77097 0.63029 0.0
C914 C 0.36427 0.79093 0.759 0.0
C915 C 0.40781 0.82024 0.72792 0.0
N916 N 0.32936 0.77766 0.66924 0.0
N917 N 0.39123 0.81027 0.68852 0.0
H918 H 0.24875 0.41593 0.29062 0.0
H919 H 0.15971 0.29234 0.39631 0.0
H920 H 0.21143 0.40236 0.44439 0.0
H921 H 0.19838 0.30534 0.245 0.0
H922 H 0.17881 0.33241 0.41497 0.0
H923 H 0.23031 0.37575 0.27249 0.0
C924 C 0.23667 0.40463 0.32056 0.0
C925 C 0.23197 0.41291 0.36949 0.0
C926 C 0.18316 0.32651 0.37768 0.0
C927 C 0.21069 0.3664 0.34896 0.0
C928 C 0.17233 0.30347 0.36715 0.0
C929 C 0.17718 0.29506 0.3187 0.0
C930 C 0.19912 0.34157 0.33968 0.0
C931 C 0.19361 0.31076 0.2824 0.0
C932 C 0.2262 0.38157 0.31029 0.0
C933 C 0.21614 0.39707 0.40666 0.0
N934 N 0.20384 0.33304 0.2935 0.0
N935 N 0.20619 0.37481 0.39567 0.0
H936 H 0.75185 0.85678 0.35233 0.0
H937 H 0.63864 0.86158 0.37678 0.0
H938 H 0.74877 0.91568 0.31018 0.0
H939 H 0.63823 0.80042 0.34076 0.0
H940 H 0.6794 0.882 0.36532 0.0
H941 H 0.71094 0.83624 0.36241 0.0
C942 C 0.74264 0.86549 0.34591 0.0
C943 C 0.75391 0.88809 0.33054 0.0
C944 C 0.67041 0.86413 0.35962 0.0
C945 C 0.70688 0.86457 0.3422 0.0
C946 C 0.64711 0.85244 0.36615 0.0
C947 C 0.63484 0.82921 0.3593 0.0
C948 C 0.68185 0.85255 0.34755 0.0
C949 C 0.64687 0.81832 0.34576 0.0
C950 C 0.71924 0.85368 0.35116 0.0
C951 C 0.74089 0.89832 0.32198 0.0
N952 N 0.66963 0.82999 0.34095 0.0
N953 N 0.71823 0.8866 0.3283 0.0
H954 H 0.19327 0.79784 0.4487 0.0
H955 H 0.16755 0.87214 0.23747 0.0
H956 H 0.22763 0.82144 0.29097 0.0
H957 H 0.15076 0.86608 0.41276 0.0
H958 H 0.18653 0.85066 0.25306 0.0
H959 H 0.17469 0.81949 0.43293 0.0
C960 C 0.19714 0.80761 0.4108 0.0
C961 C 0.21253 0.80778 0.37157 0.0
C962 C 0.17872 0.85402 0.28818 0.0
C963 C 0.19042 0.8325 0.35262 0.0
C964 C 0.16774 0.86623 0.2793 0.0
C965 C 0.15733 0.87094 0.3238 0.0
C966 C 0.17918 0.84603 0.34193 0.0
C967 C 0.15856 0.86302 0.37716 0.0
C968 C 0.18631 0.81995 0.40177 0.0
C969 C 0.2159 0.8204 0.32249 0.0
N970 N 0.16906 0.85086 0.38459 0.0
N971 N 0.205 0.83214 0.31452 0.0
H972 H 0.40633 0.2029 0.58076 0.0
H973 H 0.30628 0.18451 0.78672 0.0
H974 H 0.41734 0.23595 0.74027 0.0
H975 H 0.29601 0.15168 0.62712 0.0
H976 H 0.34657 0.20379 0.77018 0.0
H977 H 0.36618 0.18464 0.59685 0.0
C978 C 0.40043 0.20656 0.6191 0.0
C979 C 0.41567 0.2214 0.65883 0.0
C980 C 0.33553 0.19243 0.73865 0.0
C981 C 0.36891 0.19987 0.67802 0.0
C982 C 0.31237 0.18127 0.74811 0.0
C983 C 0.29732 0.16616 0.70848 0.0
C984 C 0.3441 0.18864 0.68904 0.0
C985 C 0.30663 0.16322 0.65887 0.0
C986 C 0.37731 0.19591 0.6284 0.0
C987 C 0.40653 0.22468 0.70833 0.0
N988 N 0.32924 0.1742 0.65081 0.0
N989 N 0.38391 0.21412 0.71634 0.0
H990 H 0.89919 0.16886 0.77287 0.0
H991 H 0.7988 0.17273 0.62048 0.0
H992 H 0.86947 0.13116 0.6229 0.0
H993 H 0.85074 0.23061 0.70458 0.0
H994 H 0.82086 0.15436 0.63153 0.0
H995 H 0.87823 0.18864 0.75921 0.0
C996 C 0.88827 0.16476 0.73698 0.0
C997 C 0.88616 0.14831 0.6989 0.0
C998 C 0.8274 0.17111 0.64747 0.0
C999 C 0.86164 0.17066 0.68368 0.0
C1000 C 0.81483 0.18185 0.6409 0.0
C1001 C 0.82273 0.20374 0.66071 0.0
C1002 C 0.84794 0.18186 0.6755 0.0
C1003 C 0.84347 0.2138 0.68886 0.0
C1004 C 0.87634 0.17611 0.72917 0.0
C1005 C 0.87174 0.14378 0.65311 0.0
N1006 N 0.85518 0.2028 0.69557 0.0
N1007 N 0.85987 0.15465 0.64716 0.0
H1008 H 0.86736 0.74303 0.64776 0.0
H1009 H 0.85891 0.62477 0.70986 0.0
H1010 H 0.91869 0.73655 0.73446 0.0
H1011 H 0.81676 0.63342 0.59143 0.0
H1012 H 0.87907 0.66517 0.7263 0.0
H1013 H 0.84734 0.70284 0.63175 0.0
C1014 C 0.87465 0.73337 0.66311 0.0
C1015 C 0.89497 0.74368 0.69282 0.0
C1016 C 0.8654 0.65822 0.69671 0.0
C1017 C 0.87146 0.69693 0.67551 0.0
C1018 C 0.85375 0.63507 0.68759 0.0
C1019 C 0.83612 0.62547 0.64882 0.0
C1020 C 0.85926 0.67205 0.66751 0.0
C1021 C 0.83041 0.63992 0.62105 0.0
C1022 C 0.86301 0.71023 0.65427 0.0
C1023 C 0.90299 0.72968 0.71234 0.0
N1024 N 0.84184 0.66229 0.63097 0.0
N1025 N 0.89125 0.70722 0.70362 0.0
H1026 H 0.07218 0.58191 0.96889 0.0
H1027 H 0.96713 0.47001 0.08623 0.0
H1028 H 0.07707 0.52604 0.03161 0.0
H1029 H 0.96025 0.52087 0.99959 0.0
H1030 H 1.0074 0.49113 0.07062 0.0
H1031 H 0.03185 0.56089 0.9837 0.0
C1032 C 0.06494 0.56522 0.98557 0.0
C1033 C 0.07855 0.55593 0.99851 0.0
C1034 C 0.99716 0.49774 0.05495 0.0
C1035 C 0.03165 0.53161 0.01664 0.0
C1036 C 0.97402 0.4857 0.06415 0.0
C1037 C 0.95995 0.49362 0.04478 0.0
C1038 C 1.00675 0.51814 0.02627 0.0
C1039 C 0.97018 0.51392 0.01526 0.0
C1040 C 0.04173 0.55322 0.99427 0.0
C1041 C 0.06771 0.53428 0.02142 0.0
N1042 N 0.99283 0.52546 1.00729 0.0
N1043 N 0.04511 0.52299 0.02959 0.0
H1044 H 0.52839 0.57125 0.96968 0.0
H1045 H 0.51723 0.45438 0.06189 0.0
H1046 H 0.46653 0.51551 0.02649 0.0
H1047 H 0.57756 0.50911 0.99485 0.0
H1048 H 0.49862 0.47643 0.05113 0.0
H1049 H 0.54659 0.54898 0.98094 0.0
C1050 C 0.51849 0.55429 0.98433 0.0
C1051 C 0.49563 0.54535 0.99648 0.0
C1052 C 0.51591 0.48362 0.03862 0.0
C1053 C 0.51683 0.51951 1.01027 0.0
C1054 C 0.52666 0.47102 0.04492 0.0
C1055 C 0.54919 0.47974 0.02942 0.0
C1056 C 0.52765 0.50532 0.01679 0.0
C1057 C 0.56019 0.5014 1.00686 0.0
C1058 C 0.52903 0.54156 0.991 0.0
C1059 C 0.48414 0.52334 0.01681 0.0
N1060 N 0.5494 0.51336 1.00152 0.0
N1061 N 0.49479 0.51124 0.0228 0.0
H1062 H 0.53968 0.06481 0.1139 0.0
H1063 H 0.52965 0.9632 0.93331 0.0
H1064 H 0.5702 0.07428 0.95147 0.0
H1065 H 0.47867 0.9548 0.05164 0.0
H1066 H 0.5476 1.00332 0.9465 0.0
H1067 H 0.52027 0.0244 0.09894 0.0
C1068 C 0.54233 0.05841 0.075 0.0
C1069 C 0.55671 0.07314 0.03392 0.0
C1070 C 0.53245 0.99268 0.96949 0.0
C1071 C 0.53462 0.0265 0.01684 0.0
C1072 C 0.52194 0.96954 0.9618 0.0
C1073 C 0.50209 0.95494 0.99062 0.0
C1074 C 0.52358 1.00175 1.00738 0.0
C1075 C 0.4939 0.96486 0.02855 0.0
C1076 C 0.53115 0.03528 0.06645 0.0
C1077 C 0.55925 0.06369 0.98422 0.0
N1078 N 0.50466 0.98745 0.03586 0.0
N1079 N 0.54857 0.04108 0.97738 0.0
H1080 H 0.12024 0.1761 0.45111 0.0
H1081 H 0.17793 0.10633 0.57066 0.0
H1082 H 0.15443 0.15235 0.34544 0.0
H1083 H 0.15912 0.14512 0.67452 0.0
H1084 H 0.1636 0.11701 0.48815 0.0
H1085 H 0.12813 0.15904 0.53245 0.0
C1086 C 0.12867 0.16663 0.44446 0.0
C1087 C 0.13602 0.16526 0.39033 0.0
C1088 C 0.16225 0.12289 0.52915 0.0
C1089 C 0.14589 0.14594 0.48483 0.0
C1090 C 0.17022 0.11651 0.57663 0.0
C1091 C 0.16954 0.12443 0.63058 0.0
C1092 C 0.15318 0.13721 0.53501 0.0
C1093 C 0.1599 0.13829 0.63436 0.0
C1094 C 0.13352 0.15711 0.49131 0.0
C1095 C 0.14787 0.15349 0.38573 0.0
N1096 N 0.15221 0.1441 0.58801 0.0
N1097 N 0.15234 0.1444 0.43166 0.0
H1098 H 0.9314 0.07759 0.53516 0.0
H1099 H 0.88345 0.94569 0.49674 0.0
H1100 H 0.9237 0.0345 0.67321 0.0
H1101 H 0.89378 0.98979 0.35867 0.0
H1102 H 0.89979 0.97768 0.56014 0.0
H1103 H 0.92019 0.04637 0.47045 0.0
C1104 C 0.92793 0.06166 0.552 0.0
C1105 C 0.92909 0.05915 0.61037 0.0
C1106 C 0.89862 0.98049 0.51602 0.0
C1107 C 0.91515 0.02231 0.53496 0.0
C1108 C 0.88923 0.96207 0.47922 0.0
C1109 C 0.88687 0.96456 0.42123 0.0
C1110 C 0.90596 1.00211 0.49575 0.0
C1111 C 0.89491 0.9866 0.4025 0.0
C1112 C 0.92126 0.04366 0.51467 0.0
C1113 C 0.92374 0.03769 0.62887 0.0
N1114 N 0.90387 1.00426 0.43931 0.0
N1115 N 0.91689 0.02026 0.59166 0.0
H1116 H 0.09448 0.92913 0.49071 0.0
H1117 H 0.96158 0.86301 0.53707 0.0
H1118 H 0.04793 0.90949 0.35411 0.0
H1119 H 1.00813 0.89014 0.67349 0.0
H1120 H 0.99242 0.88217 0.47053 0.0
H1121 H 0.0636 0.91773 0.55708 0.0
C1122 C 0.0778 0.92299 0.47436 0.0
C1123 C 0.0742 0.92084 0.41595 0.0
C1124 C 0.996 0.88439 0.51491 0.0
C1125 C 0.0379 0.90666 0.49343 0.0
C1126 C 0.97825 0.87355 0.55331 0.0
C1127 C 0.98188 0.87519 0.61172 0.0
C1128 C 1.01812 0.89688 0.53411 0.0
C1129 C 1.00416 0.88872 0.62935 0.0
C1130 C 0.06003 0.91625 0.51269 0.0
C1131 C 0.05189 0.91213 0.39825 0.0
N1132 N 1.02127 0.89872 0.59103 0.0
N1133 N 0.03476 0.9052 0.43652 0.0
H1134 H 0.90977 0.88405 0.62584 0.0
H1135 H 0.82395 0.83955 0.37872 0.0
H1136 H 0.85365 0.81727 0.631 0.0
H1137 H 0.89384 0.8869 0.35567 0.0
H1138 H 0.83235 0.83076 0.47133 0.0
H1139 H 0.90107 0.88708 0.52859 0.0
C1140 C 0.89548 0.87012 0.60655 0.0
C1141 C 0.88257 0.85032 0.63614 0.0
C1142 C 0.84587 0.84272 0.4454 0.0
C1143 C 0.8726 0.85357 0.5252 0.0
C1144 C 0.84116 0.84758 0.3923 0.0
C1145 C 0.85822 0.86437 0.36006 0.0
C1146 C 0.86765 0.85497 0.46613 0.0
C1147 C 0.88017 0.87429 0.37994 0.0
C1148 C 0.89066 0.87176 0.55106 0.0
C1149 C 0.86394 0.83287 0.6097 0.0
N1150 N 0.88422 0.86981 0.43234 0.0
N1151 N 0.8595 0.83487 0.55534 0.0
H1152 H 0.16728 0.96492 0.4212 0.0
H1153 H 0.21451 0.08126 0.56176 0.0
H1154 H 0.19518 0.02466 0.32214 0.0
H1155 H 0.21136 0.02496 0.64742 0.0
H1156 H 0.20968 0.06203 0.47253 0.0
H1157 H 0.18526 0.98719 0.50429 0.0
C1158 C 0.17745 0.98282 0.41731 0.0
C1159 C 0.17966 0.99322 0.36576 0.0
C1160 C 0.2105 0.0541 0.51079 0.0
C1161 C 0.19999 0.01876 0.45977 0.0
C1162 C 0.21302 0.06494 0.5616 0.0
C1163 C 0.21285 0.05442 0.61184 0.0
C1164 C 0.20742 0.03249 0.51068 0.0
C1165 C 0.21146 0.03356 0.60957 0.0
C1166 C 0.18781 0.9955 0.46435 0.0
C1167 C 0.19313 0.0163 0.36177 0.0
N1168 N 0.20838 0.02307 0.5598 0.0
N1169 N 0.20252 0.02848 0.40868 0.0
H1170 H 0.97502 0.12937 0.57625 0.0
H1171 H 0.06535 0.22709 0.38704 0.0
H1172 H 1.02378 0.19274 0.64556 0.0
H1173 H 0.03827 0.15747 0.35051 0.0
H1174 H 0.04273 0.21706 0.47301 0.0
H1175 H 0.99112 0.1421 0.48416 0.0
C1176 C 0.98929 0.1459 0.57232 0.0
C1177 C 0.99859 0.15981 0.619 0.0
C1178 C 0.04153 0.20405 0.44558 0.0
C1179 C 1.01652 0.17464 0.51321 0.0
C1180 C 0.05419 0.20973 0.3967 0.0
C1181 C 0.05352 0.19297 0.36258 0.0
C1182 C 0.028 0.18152 0.4592 0.0
C1183 C 0.03918 0.17072 0.37644 0.0
C1184 C 0.99826 0.15322 0.51955 0.0
C1185 C 1.01635 0.18146 0.61067 0.0
N1186 N 0.02697 0.16559 0.42397 0.0
N1187 N 1.02493 0.18822 0.55858 0.0
H1188 H 0.79527 0.46964 0.68783 0.0
H1189 H 0.83621 0.49119 1.01052 0.0
H1190 H 0.80306 0.52471 0.78755 0.0
H1191 H 0.8274 0.43316 0.92207 0.0
H1192 H 0.82169 0.50146 0.93007 0.0
H1193 H 0.80387 0.45404 0.77126 0.0
C1194 C 0.79788 0.47805 0.72766 0.0
C1195 C 0.79739 0.4982 0.73044 0.0
C1196 C 0.82267 0.48635 0.9278 0.0
C1197 C 0.80854 0.48079 0.82691 0.0
C1198 C 0.83104 0.48034 0.97434 0.0
C1199 C 0.83318 0.46108 0.97442 0.0
C1200 C 0.81628 0.47332 0.87887 0.0
C1201 C 0.82598 0.44801 0.92513 0.0
C1202 C 0.80319 0.46926 0.77538 0.0
C1203 C 0.80232 0.5088 0.78312 0.0
N1204 N 0.81809 0.45442 0.87963 0.0
N1205 N 0.80763 0.50011 0.82839 0.0
H1206 H 0.59563 0.40993 0.8646 0.0
H1207 H 0.54574 0.27761 0.82808 0.0
H1208 H 0.58714 0.36695 1.00362 0.0
H1209 H 0.55586 0.32156 0.68985 0.0
H1210 H 0.56241 0.3097 0.89121 0.0
H1211 H 0.58354 0.3784 0.80064 0.0
C1212 C 0.59171 0.39393 0.88187 0.0
C1213 C 0.5929 0.39155 0.94031 0.0
C1214 C 0.56112 0.31245 0.84711 0.0
C1215 C 0.57806 0.35437 0.86562 0.0
C1216 C 0.55154 0.29397 0.81048 0.0
C1217 C 0.54905 0.2964 0.75252 0.0
C1218 C 0.56853 0.33406 0.82668 0.0
C1219 C 0.55712 0.31843 0.73365 0.0
C1220 C 0.58457 0.37575 0.84492 0.0
C1221 C 0.5871 0.37002 0.95924 0.0
N1222 N 0.56628 0.33614 0.77028 0.0
N1223 N 0.57983 0.35242 0.92236 0.0
H1224 H 0.62584 0.19204 0.87191 0.0
H1225 H 0.75881 0.26156 0.82624 0.0
H1226 H 0.67206 0.22077 1.00848 0.0
H1227 H 0.71234 0.24039 0.6892 0.0
H1228 H 0.72771 0.24929 0.89229 0.0
H1229 H 0.65662 0.21163 0.80543 0.0
C1230 C 0.6424 0.203 0.8882 0.0
C1231 C 0.64593 0.20497 0.94667 0.0
C1232 C 0.72418 0.24763 0.84787 0.0
C1233 C 0.68218 0.2272 0.86907 0.0
C1234 C 0.74209 0.25487 0.80969 0.0
C1235 C 0.73861 0.25257 0.75121 0.0
C1236 C 0.70204 0.2374 0.82846 0.0
C1237 C 0.71622 0.24315 0.73335 0.0
C1238 C 0.66013 0.2141 0.84982 0.0
C1239 C 0.66812 0.21906 0.9643 0.0
N1240 N 0.69898 0.23577 0.77149 0.0
N1241 N 0.68523 0.22931 0.92601 0.0
H1242 H 0.51606 0.14673 0.96445 0.0
H1243 H 0.55677 0.21866 0.68544 0.0
H1244 H 0.57429 0.21201 0.95222 0.0
H1245 H 0.48737 0.17114 0.7149 0.0
H1246 H 0.56597 0.20911 0.77613 0.0
H1247 H 0.50677 0.15011 0.86734 0.0
C1248 C 0.52667 0.16189 0.94173 0.0
C1249 C 0.54607 0.1791 0.96619 0.0
C1250 C 0.54876 0.20056 0.76224 0.0
C1251 C 0.53606 0.18258 0.85532 0.0
C1252 C 0.54355 0.2059 0.71052 0.0
C1253 C 0.52126 0.1961 0.69342 0.0
C1254 C 0.53153 0.18525 0.79673 0.0
C1255 C 0.50477 0.17922 0.72668 0.0
C1256 C 0.52153 0.16365 0.88624 0.0
C1257 C 0.55941 0.19823 0.93459 0.0
N1258 N 0.5102 0.17455 0.77745 0.0
N1259 N 0.55427 0.19938 0.88058 0.0
H1260 H 0.89345 0.38163 0.93112 0.0
H1261 H 0.81644 0.34459 0.66377 0.0
H1262 H 0.84315 0.39984 0.89747 0.0
H1263 H 0.86958 0.32987 0.68844 0.0
H1264 H 0.83153 0.37175 0.73954 0.0
H1265 H 0.8901 0.36869 0.83459 0.0
C1266 C 0.88182 0.38303 0.90339 0.0
C1267 C 0.86825 0.39141 0.92268 0.0
C1268 C 0.84019 0.36292 0.72782 0.0
C1269 C 0.86449 0.37692 0.81242 0.0
C1270 C 0.83154 0.34745 0.68471 0.0
C1271 C 0.84158 0.3348 0.67104 0.0
C1272 C 0.85869 0.3653 0.75811 0.0
C1273 C 0.86133 0.33927 0.69827 0.0
C1274 C 0.88008 0.37587 0.84818 0.0
C1275 C 0.85393 0.39347 0.8846 0.0
N1276 N 0.86901 0.35385 0.74156 0.0
N1277 N 0.85221 0.38598 0.83153 0.0
H1278 H 0.63799 0.46102 0.91229 0.0
H1279 H 0.72787 0.55716 0.71875 0.0
H1280 H 0.68825 0.52394 0.9803 0.0
H1281 H 0.6994 0.48724 0.68417 0.0
H1282 H 0.70613 0.54791 0.80621 0.0
H1283 H 0.65343 0.47345 0.81956 0.0
C1284 C 0.65249 0.47738 0.90789 0.0
C1285 C 0.66243 0.49122 0.95436 0.0
C1286 C 0.70442 0.53467 0.77887 0.0
C1287 C 0.67961 0.50574 0.84787 0.0
C1288 C 0.71657 0.53991 0.72918 0.0
C1289 C 0.71522 0.52282 0.69515 0.0
C1290 C 0.6907 0.51225 0.79331 0.0
C1291 C 0.70076 0.50072 0.70996 0.0
C1292 C 0.66107 0.48454 0.85478 0.0
C1293 C 0.6804 0.51271 0.94553 0.0
N1294 N 0.68904 0.49602 0.7582 0.0
N1295 N 0.68863 0.51932 0.89306 0.0
H1296 H 0.49472 0.78803 0.33283 0.0
H1297 H 0.46573 0.80294 1.011 0.0
H1298 H 0.50617 0.75544 0.19347 0.0
H1299 H 0.46069 0.83956 0.15048 0.0
H1300 H 0.4768 0.78249 0.07678 0.0
H1301 H 0.47923 0.80435 0.26762 0.0
C1302 C 0.49404 0.7842 0.28874 0.0
C1303 C 0.50222 0.77032 0.26951 0.0
C1304 C 0.47294 0.79477 0.09315 0.0
C1305 C 0.4839 0.7891 0.19311 0.0
C1306 C 0.46627 0.80628 0.0554 0.0
C1307 C 0.46185 0.82297 0.07467 0.0
C1308 C 0.47524 0.79979 0.1511 0.0
C1309 C 0.46368 0.82682 0.13311 0.0
C1310 C 0.48506 0.79356 0.25116 0.0
C1311 C 0.50029 0.76599 0.21116 0.0
N1312 N 0.47018 0.81555 0.16858 0.0
N1313 N 0.49152 0.77527 0.1756 0.0
H1314 H 0.25033 0.70594 0.33922 0.0
H1315 H 0.23119 0.66283 0.01598 0.0
H1316 H 0.28104 0.74977 0.19891 0.0
H1317 H 0.19569 0.62115 0.15609 0.0
H1318 H 0.2525 0.69391 0.08189 0.0
H1319 H 0.23298 0.67431 0.27374 0.0
C1320 C 0.25359 0.70907 0.29491 0.0
C1321 C 0.26724 0.73103 0.2755 0.0
C1322 C 0.24026 0.67786 0.09835 0.0
C1323 C 0.24721 0.69417 0.19881 0.0
C1324 C 0.22823 0.65992 0.06048 0.0
C1325 C 0.21159 0.63892 0.07984 0.0
C1326 C 0.23585 0.67504 0.15659 0.0
C1327 C 0.20832 0.63678 0.13853 0.0
C1328 C 0.2436 0.69084 0.25717 0.0
C1329 C 0.27071 0.73343 0.2168 0.0
N1330 N 0.22011 0.65434 0.17415 0.0
N1331 N 0.26086 0.71552 0.18116 0.0
H1332 H 0.3455 0.56479 0.33785 0.0
H1333 H 0.36568 0.54501 0.01376 0.0
H1334 H 0.29672 0.51377 0.23149 0.0
H1335 H 0.41715 0.59886 0.10866 0.0
H1336 H 0.34007 0.53612 0.09232 0.0
H1337 H 0.37105 0.58 0.25646 0.0
C1338 C 0.33976 0.55723 0.29713 0.0
C1339 C 0.31834 0.53826 0.29185 0.0
C1340 C 0.35683 0.55008 0.09636 0.0
C1341 C 0.34824 0.55521 0.19771 0.0
C1342 C 0.37161 0.55532 0.05088 0.0
C1343 C 0.39385 0.57299 0.05324 0.0
C1344 C 0.36393 0.56222 0.14669 0.0
C1345 C 0.40019 0.58537 0.10369 0.0
C1346 C 0.35457 0.56577 0.25054 0.0
C1347 C 0.31263 0.52871 0.23796 0.0
N1348 N 0.3855 0.57966 0.14817 0.0
N1349 N 0.32726 0.53713 0.19391 0.0
H1350 H 0.2509 0.54628 0.25918 0.0
H1351 H 0.15883 0.50793 0.02532 0.0
H1352 H 0.18992 0.48291 0.26495 0.0
H1353 H 0.22549 0.56355 1.00783 0.0
H1354 H 0.17095 0.49555 0.10706 0.0
H1355 H 0.24277 0.55093 0.16315 0.0
C1356 C 0.23585 0.53324 0.24014 0.0
C1357 C 0.22103 0.51421 0.27029 0.0
C1358 C 0.18305 0.51021 0.08465 0.0
C1359 C 0.21143 0.51957 0.16022 0.0
C1360 C 0.17617 0.51716 0.0378 0.0
C1361 C 0.19113 0.53705 1.01095 0.0
C1362 C 0.20492 0.5234 0.10451 0.0
C1363 C 0.21337 0.54846 0.02861 0.0
C1364 C 0.23122 0.53589 0.18515 0.0
C1365 C 0.20159 0.49805 0.24364 0.0
N1366 N 0.21953 0.54168 0.07498 0.0
N1367 N 0.19724 0.50117 0.19009 0.0
H1368 H 0.49604 0.68157 0.3705 0.0
H1369 H 0.53407 0.66469 0.0734 0.0
H1370 H 0.56484 0.70664 0.32504 0.0
H1371 H 0.46547 0.63271 0.12811 0.0
H1372 H 0.54601 0.67487 0.17039 0.0
H1373 H 0.48459 0.65685 0.28949 0.0
C1374 C 0.50869 0.68137 0.34409 0.0
C1375 C 0.5313 0.69639 0.35333 0.0
C1376 C 0.52834 0.66533 0.16124 0.0
C1377 C 0.51856 0.66885 0.2602 0.0
C1378 C 0.52156 0.65981 0.10586 0.0
C1379 C 0.49878 0.64823 0.09275 0.0
C1380 C 0.5122 0.65945 0.20346 0.0
C1381 C 0.48321 0.6417 0.13642 0.0
C1382 C 0.50223 0.66735 0.29785 0.0
C1383 C 0.5472 0.69539 0.31884 0.0
N1384 N 0.49021 0.64766 0.18976 0.0
N1385 N 0.54051 0.68225 0.27276 0.0
H1386 H 0.33036 0.85492 0.31132 0.0
H1387 H 0.41641 0.84459 0.1102 0.0
H1388 H 0.35839 0.81272 0.34604 0.0
H1389 H 0.3669 0.86061 0.05127 0.0
H1390 H 0.40275 0.84213 0.20494 0.0
H1391 H 0.35226 0.86726 0.22503 0.0
C1392 C 0.34167 0.84879 0.30152 0.0
C1393 C 0.34258 0.83269 0.33519 0.0
C1394 C 0.39493 0.84622 0.17122 0.0
C1395 C 0.36721 0.84642 0.23708 0.0
C1396 C 0.40246 0.84732 0.1169 0.0
C1397 C 0.39226 0.85212 0.07235 0.0
C1398 C 0.37725 0.85018 0.18126 0.0
C1399 C 0.37502 0.85662 0.08435 0.0
C1400 C 0.35391 0.85563 0.25216 0.0
C1401 C 0.35717 0.82499 0.32055 0.0
N1402 N 0.36791 0.85539 0.13786 0.0
N1403 N 0.36884 0.8318 0.2721 0.0
loop_
_geom_bond_atom_site_label_1
_geom_bond_atom_site_label_2
_geom_bond_distance
_geom_bond_site_symmetry_2
_ccdc_geom_bond_type
C0 C1 1.351 . S
C0 N3 1.368 . S
C0 H5 0.931 . S
C1 C0 1.351 . S
C1 N2 1.373 . S
C1 H29 0.930 . S
N2 C1 1.373 . S
N2 C4 1.340 . S
N3 C0 1.368 . S
N3 C4 1.321 . S
N3 Co6 2.135 . S
C4 N2 1.340 . S
C4 N3 1.321 . S
C4 H28 0.930 . S
H5 C0 0.931 . S
Co6 N3 2.135 . S
Co6 N9 2.121 . S
Co6 O14 2.055 . S
Co6 O17 2.039 . S
Co6 N20 2.140 . S
C7 O8 1.227 . S
C7 O17 1.265 . S
O8 C7 1.227 . S
N9 Co6 2.121 . S
N9 C11 1.375 . S
N9 C12 1.313 . S
C10 C11 1.338 . S
C10 N13 1.377 . S
C10 H30 0.930 . S
C11 N9 1.375 . S
C11 C10 1.338 . S
C11 H15 0.931 . S
C12 N9 1.313 . S
C12 N13 1.344 . S
C12 H16 0.930 . S
N13 C10 1.377 . S
N13 C12 1.344 . S
O14 Co6 2.055 . S
O14 C18 1.253 . S
H15 C11 0.931 . S
H16 C12 0.930 . S
O17 Co6 2.039 . S
O17 C7 1.265 . S
C18 O14 1.253 . S
C18 O19 1.227 . S
O19 C18 1.227 . S
N20 Co6 2.140 . S
N20 C23 1.346 . S
N20 C24 1.345 . S
C21 C22 1.387 . S
C21 C25 1.391 . S
C22 C21 1.387 . S
C22 C23 1.369 . S
C22 H31 0.929 . S
C23 N20 1.346 . S
C23 C22 1.369 . S
C23 H26 0.928 . S
C24 N20 1.345 . S
C24 C25 1.371 . S
C24 H27 0.931 . S
C25 C21 1.391 . S
C25 C24 1.371 . S
C25 H32 0.930 . S
H26 C23 0.928 . S
H27 C24 0.931 . S
H28 C4 0.930 . S
H29 C1 0.930 . S
H30 C10 0.930 . S
H31 C22 0.929 . S
H32 C25 0.930 . S
C33 C34 1.351 . S
C33 N36 1.368 . S
C33 H38 0.931 . S
C34 C33 1.351 . S
C34 N35 1.373 . S
C34 H62 0.930 . S
N35 C34 1.373 . S
N35 C37 1.340 . S
N36 C33 1.368 . S
N36 C37 1.321 . S
N36 Co39 2.135 . S
C37 N35 1.340 . S
C37 N36 1.321 . S
C37 H61 0.930 . S
H38 C33 0.931 . S
Co39 N36 2.135 . S
Co39 N42 2.121 . S
Co39 O47 2.055 . S
Co39 O50 2.039 . S
Co39 N53 2.140 . S
C40 O41 1.227 . S
C40 O50 1.265 . S
O41 C40 1.227 . S
N42 Co39 2.121 . S
N42 C44 1.375 . S
N42 C45 1.313 . S
C43 C44 1.338 . S
C43 N46 1.377 . S
C43 H63 0.930 . S
C44 N42 1.375 . S
C44 C43 1.338 . S
C44 H48 0.931 . S
C45 N42 1.313 . S
C45 N46 1.344 . S
C45 H49 0.930 . S
N46 C43 1.377 . S
N46 C45 1.344 . S
O47 Co39 2.055 . S
O47 C51 1.253 . S
H48 C44 0.931 . S
H49 C45 0.930 . S
O50 Co39 2.039 . S
O50 C40 1.265 . S
C51 O47 1.253 . S
C51 O52 1.227 . S
O52 C51 1.227 . S
N53 Co39 2.140 . S
N53 C56 1.346 . S
N53 C57 1.345 . S
C54 C55 1.387 . S
C54 C58 1.391 . S
C55 C54 1.387 . S
C55 C56 1.369 . S
C55 H64 0.929 . S
C56 N53 1.346 . S
C56 C55 1.369 . S
C56 H59 0.928 . S
C57 N53 1.345 . S
C57 C58 1.371 . S
C57 H60 0.931 . S
C58 C54 1.391 . S
C58 C57 1.371 . S
C58 H65 0.930 . S
H59 C56 0.928 . S
H60 C57 0.931 . S
H61 C37 0.930 . S
H62 C34 0.930 . S
H63 C43 0.930 . S
H64 C55 0.929 . S
H65 C58 0.930 . S
C66 C67 1.351 . S
C66 N69 1.368 . S
C66 H71 0.931 . S
C67 C66 1.351 . S
C67 N68 1.373 . S
C67 H95 0.930 . S
N68 C67 1.373 . S
N68 C70 1.340 . S
N69 C66 1.368 . S
N69 C70 1.321 . S
N69 Co72 2.135 . S
C70 N68 1.340 . S
C70 N69 1.321 . S
C70 H94 0.930 . S
H71 C66 0.931 . S
Co72 N69 2.135 . S
Co72 N75 2.121 . S
Co72 O80 2.055 . S
Co72 O83 2.039 . S
Co72 N86 2.140 . S
C73 O74 1.227 . S
C73 O83 1.265 . S
O74 C73 1.227 . S
N75 Co72 2.121 . S
N75 C77 1.375 . S
N75 C78 1.313 . S
C76 C77 1.338 . S
C76 N79 1.377 . S
C76 H96 0.930 . S
C77 N75 1.375 . S
C77 C76 1.338 . S
C77 H81 0.931 . S
C78 N75 1.313 . S
C78 N79 1.344 . S
C78 H82 0.930 . S
N79 C76 1.377 . S
N79 C78 1.344 . S
O80 Co72 2.055 . S
O80 C84 1.253 . S
H81 C77 0.931 . S
H82 C78 0.930 . S
O83 Co72 2.039 . S
O83 C73 1.265 . S
C84 O80 1.253 . S
C84 O85 1.227 . S
O85 C84 1.227 . S
N86 Co72 2.140 . S
N86 C89 1.346 . S
N86 C90 1.345 . S
C87 C88 1.387 . S
C87 C91 1.391 . S
C88 C87 1.387 . S
C88 C89 1.369 . S
C88 H97 0.929 . S
C89 N86 1.346 . S
C89 C88 1.369 . S
C89 H92 0.928 . S
C90 N86 1.345 . S
C90 C91 1.371 . S
C90 H93 0.931 . S
C91 C87 1.391 . S
C91 C90 1.371 . S
C91 H98 0.930 . S
H92 C89 0.928 . S
H93 C90 0.931 . S
H94 C70 0.930 . S
H95 C67 0.930 . S
H96 C76 0.930 . S
H97 C88 0.929 . S
H98 C91 0.930 . S
C99 C100 1.351 . S
C99 N102 1.368 . S
C99 H104 0.931 . S
C100 C99 1.351 . S
C100 N101 1.373 . S
C100 H128 0.930 . S
N101 C100 1.373 . S
N101 C103 1.340 . S
N102 C99 1.368 . S
N102 C103 1.321 . S
N102 Co105 2.135 . S
C103 N101 1.340 . S
C103 N102 1.321 . S
C103 H127 0.930 . S
H104 C99 0.931 . S
Co105 N102 2.135 . S
Co105 N108 2.121 . S
Co105 O113 2.055 . S
Co105 O116 2.039 . S
Co105 N119 2.140 . S
C106 O107 1.227 . S
C106 O116 1.265 . S
O107 C106 1.227 . S
N108 Co105 2.121 . S
N108 C110 1.375 . S
N108 C111 1.313 . S
C109 C110 1.338 . S
C109 N112 1.377 . S
C109 H129 0.930 . S
C110 N108 1.375 . S
C110 C109 1.338 . S
C110 H114 0.931 . S
C111 N108 1.313 . S
C111 N112 1.344 . S
C111 H115 0.930 . S
N112 C109 1.377 . S
N112 C111 1.344 . S
O113 Co105 2.055 . S
O113 C117 1.253 . S
H114 C110 0.931 . S
H115 C111 0.930 . S
O116 Co105 2.039 . S
O116 C106 1.265 . S
C117 O113 1.253 . S
C117 O118 1.227 . S
O118 C117 1.227 . S
N119 Co105 2.140 . S
N119 C122 1.346 . S
N119 C123 1.345 . S
C120 C121 1.387 . S
C120 C124 1.391 . S
C121 C120 1.387 . S
C121 C122 1.369 . S
C121 H130 0.929 . S
C122 N119 1.346 . S
C122 C121 1.369 . S
C122 H125 0.928 . S
C123 N119 1.345 . S
C123 C124 1.371 . S
C123 H126 0.931 . S
C124 C120 1.391 . S
C124 C123 1.371 . S
C124 H131 0.930 . S
H125 C122 0.928 . S
H126 C123 0.931 . S
H127 C103 0.930 . S
H128 C100 0.930 . S
H129 C109 0.930 . S
H130 C121 0.929 . S
H131 C124 0.930 . S
C132 C133 1.351 . S
C132 N135 1.368 . S
C132 H137 0.931 . S
C133 C132 1.351 . S
C133 N134 1.373 . S
C133 H161 0.930 . S
N134 C133 1.373 . S
N134 C136 1.340 . S
N135 C132 1.368 . S
N135 C136 1.321 . S
N135 Co138 2.135 . S
C136 N134 1.340 . S
C136 N135 1.321 . S
C136 H160 0.930 . S
H137 C132 0.931 . S
Co138 N135 2.135 . S
Co138 N141 2.121 . S
Co138 O146 2.055 . S
Co138 O149 2.039 . S
Co138 N152 2.140 . S
C139 O140 1.227 . S
C139 O149 1.265 . S
O140 C139 1.227 . S
N141 Co138 2.121 . S
N141 C143 1.375 . S
N141 C144 1.313 . S
C142 C143 1.338 . S
C142 N145 1.377 . S
C142 H162 0.930 . S
C143 N141 1.375 . S
C143 C142 1.338 . S
C143 H147 0.931 . S
C144 N141 1.313 . S
C144 N145 1.344 . S
C144 H148 0.930 . S
N145 C142 1.377 . S
N145 C144 1.344 . S
O146 Co138 2.055 . S
O146 C150 1.253 . S
H147 C143 0.931 . S
H148 C144 0.930 . S
O149 Co138 2.039 . S
O149 C139 1.265 . S
C150 O146 1.253 . S
C150 O151 1.227 . S
O151 C150 1.227 . S
N152 Co138 2.140 . S
N152 C155 1.346 . S
N152 C156 1.345 . S
C153 C154 1.387 . S
C153 C157 1.391 . S
C154 C153 1.387 . S
C154 C155 1.369 . S
C154 H163 0.929 . S
C155 N152 1.346 . S
C155 C154 1.369 . S
C155 H158 0.928 . S
C156 N152 1.345 . S
C156 C157 1.371 . S
C156 H159 0.931 . S
C157 C153 1.391 . S
C157 C156 1.371 . S
C157 H164 0.930 . S
H158 C155 0.928 . S
H159 C156 0.931 . S
H160 C136 0.930 . S
H161 C133 0.930 . S
H162 C142 0.930 . S
H163 C154 0.929 . S
H164 C157 0.930 . S
C165 C166 1.351 . S
C165 N168 1.368 . S
C165 H170 0.931 . S
C166 C165 1.351 . S
C166 N167 1.373 . S
C166 H194 0.930 . S
N167 C166 1.373 . S
N167 C169 1.340 . S
N168 C165 1.368 . S
N168 C169 1.321 . S
N168 Co171 2.135 . S
C169 N167 1.340 . S
C169 N168 1.321 . S
C169 H193 0.930 . S
H170 C165 0.931 . S
Co171 N168 2.135 . S
Co171 N174 2.121 . S
Co171 O179 2.055 . S
Co171 O182 2.039 . S
Co171 N185 2.140 . S
C172 O173 1.227 . S
C172 O182 1.265 . S
O173 C172 1.227 . S
N174 Co171 2.121 . S
N174 C176 1.375 . S
N174 C177 1.313 . S
C175 C176 1.338 . S
C175 N178 1.377 . S
C175 H195 0.930 . S
C176 N174 1.375 . S
C176 C175 1.338 . S
C176 H180 0.931 . S
C177 N174 1.313 . S
C177 N178 1.344 . S
C177 H181 0.930 . S
N178 C175 1.377 . S
N178 C177 1.344 . S
O179 Co171 2.055 . S
O179 C183 1.253 . S
H180 C176 0.931 . S
H181 C177 0.930 . S
O182 Co171 2.039 . S
O182 C172 1.265 . S
C183 O179 1.253 . S
C183 O184 1.227 . S
O184 C183 1.227 . S
N185 Co171 2.140 . S
N185 C188 1.346 . S
N185 C189 1.345 . S
C186 C187 1.387 . S
C186 C190 1.391 . S
C187 C186 1.387 . S
C187 C188 1.369 . S
C187 H196 0.929 . S
C188 N185 1.346 . S
C188 C187 1.369 . S
C188 H191 0.928 . S
C189 N185 1.345 . S
C189 C190 1.371 . S
C189 H192 0.931 . S
C190 C186 1.391 . S
C190 C189 1.371 . S
C190 H197 0.930 . S
H191 C188 0.928 . S
H192 C189 0.931 . S
H193 C169 0.930 . S
H194 C166 0.930 . S
H195 C175 0.930 . S
H196 C187 0.929 . S
H197 C190 0.930 . S
C198 C199 1.351 . S
C198 N201 1.368 . S
C198 H203 0.931 . S
C199 C198 1.351 . S
C199 N200 1.373 . S
C199 H227 0.930 . S
N200 C199 1.373 . S
N200 C202 1.340 . S
N201 C198 1.368 . S
N201 C202 1.321 . S
N201 Co204 2.135 . S
C202 N200 1.340 . S
C202 N201 1.321 . S
C202 H226 0.930 . S
H203 C198 0.931 . S
Co204 N201 2.135 . S
Co204 N207 2.121 . S
Co204 O212 2.055 . S
Co204 O215 2.039 . S
Co204 N218 2.140 . S
C205 O206 1.227 . S
C205 O215 1.265 . S
O206 C205 1.227 . S
N207 Co204 2.121 . S
N207 C209 1.375 . S
N207 C210 1.313 . S
C208 C209 1.338 . S
C208 N211 1.377 . S
C208 H228 0.930 . S
C209 N207 1.375 . S
C209 C208 1.338 . S
C209 H213 0.931 . S
C210 N207 1.313 . S
C210 N211 1.344 . S
C210 H214 0.930 . S
N211 C208 1.377 . S
N211 C210 1.344 . S
O212 Co204 2.055 . S
O212 C216 1.253 . S
H213 C209 0.931 . S
H214 C210 0.930 . S
O215 Co204 2.039 . S
O215 C205 1.265 . S
C216 O212 1.253 . S
C216 O217 1.227 . S
O217 C216 1.227 . S
N218 Co204 2.140 . S
N218 C221 1.346 . S
N218 C222 1.345 . S
C219 C220 1.387 . S
C219 C223 1.391 . S
C220 C219 1.387 . S
C220 C221 1.369 . S
C220 H229 0.929 . S
C221 N218 1.346 . S
C221 C220 1.369 . S
C221 H224 0.928 . S
C222 N218 1.345 . S
C222 C223 1.371 . S
C222 H225 0.931 . S
C223 C219 1.391 . S
C223 C222 1.371 . S
C223 H230 0.930 . S
H224 C221 0.928 . S
H225 C222 0.931 . S
H226 C202 0.930 . S
H227 C199 0.930 . S
H228 C208 0.930 . S
H229 C220 0.929 . S
H230 C223 0.930 . S
C231 C232 1.351 . S
C231 N234 1.368 . S
C231 H236 0.931 . S
C232 C231 1.351 . S
C232 N233 1.373 . S
C232 H260 0.930 . S
N233 C232 1.373 . S
N233 C235 1.340 . S
N234 C231 1.368 . S
N234 C235 1.321 . S
N234 Co237 2.135 . S
C235 N233 1.340 . S
C235 N234 1.321 . S
C235 H259 0.930 . S
H236 C231 0.931 . S
Co237 N234 2.135 . S
Co237 N240 2.121 . S
Co237 O245 2.055 . S
Co237 O248 2.039 . S
Co237 N251 2.140 . S
C238 O239 1.227 . S
C238 O248 1.265 . S
O239 C238 1.227 . S
N240 Co237 2.121 . S
N240 C242 1.375 . S
N240 C243 1.313 . S
C241 C242 1.338 . S
C241 N244 1.377 . S
C241 H261 0.930 . S
C242 N240 1.375 . S
C242 C241 1.338 . S
C242 H246 0.931 . S
C243 N240 1.313 . S
C243 N244 1.344 . S
C243 H247 0.930 . S
N244 C241 1.377 . S
N244 C243 1.344 . S
O245 Co237 2.055 . S
O245 C249 1.253 . S
H246 C242 0.931 . S
H247 C243 0.930 . S
O248 Co237 2.039 . S
O248 C238 1.265 . S
C249 O245 1.253 . S
C249 O250 1.227 . S
O250 C249 1.227 . S
N251 Co237 2.140 . S
N251 C254 1.346 . S
N251 C255 1.345 . S
C252 C253 1.387 . S
C252 C256 1.391 . S
C253 C252 1.387 . S
C253 C254 1.369 . S
C253 H262 0.929 . S
C254 N251 1.346 . S
C254 C253 1.369 . S
C254 H257 0.928 . S
C255 N251 1.345 . S
C255 C256 1.371 . S
C255 H258 0.931 . S
C256 C252 1.391 . S
C256 C255 1.371 . S
C256 H263 0.930 . S
H257 C254 0.928 . S
H258 C255 0.931 . S
H259 C235 0.930 . S
H260 C232 0.930 . S
H261 C241 0.930 . S
H262 C253 0.929 . S
H263 C256 0.930 . S
C264 C265 1.351 . S
C264 N267 1.368 . S
C264 H269 0.931 . S
C265 C264 1.351 . S
C265 N266 1.373 . S
C265 H293 0.930 . S
N266 C265 1.373 . S
N266 C268 1.340 . S
N267 C264 1.368 . S
N267 C268 1.321 . S
N267 Co270 2.135 . S
C268 N266 1.340 . S
C268 N267 1.321 . S
C268 H292 0.930 . S
H269 C264 0.931 . S
Co270 N267 2.135 . S
Co270 N273 2.121 . S
Co270 O278 2.055 . S
Co270 O281 2.039 . S
Co270 N284 2.140 . S
C271 O272 1.227 . S
C271 O281 1.265 . S
O272 C271 1.227 . S
N273 Co270 2.121 . S
N273 C275 1.375 . S
N273 C276 1.313 . S
C274 C275 1.338 . S
C274 N277 1.377 . S
C274 H294 0.930 . S
C275 N273 1.375 . S
C275 C274 1.338 . S
C275 H279 0.931 . S
C276 N273 1.313 . S
C276 N277 1.344 . S
C276 H280 0.930 . S
N277 C274 1.377 . S
N277 C276 1.344 . S
O278 Co270 2.055 . S
O278 C282 1.253 . S
H279 C275 0.931 . S
H280 C276 0.930 . S
O281 Co270 2.039 . S
O281 C271 1.265 . S
C282 O278 1.253 . S
C282 O283 1.227 . S
O283 C282 1.227 . S
N284 Co270 2.140 . S
N284 C287 1.346 . S
N284 C288 1.345 . S
C285 C286 1.387 . S
C285 C289 1.391 . S
C286 C285 1.387 . S
C286 C287 1.369 . S
C286 H295 0.929 . S
C287 N284 1.346 . S
C287 C286 1.369 . S
C287 H290 0.928 . S
C288 N284 1.345 . S
C288 C289 1.371 . S
C288 H291 0.931 . S
C289 C285 1.391 . S
C289 C288 1.371 . S
C289 H296 0.930 . S
H290 C287 0.928 . S
H291 C288 0.931 . S
H292 C268 0.930 . S
H293 C265 0.930 . S
H294 C274 0.930 . S
H295 C286 0.929 . S
H296 C289 0.930 . S
C297 C298 1.351 1_554 S
C297 N300 1.368 . S
C297 H302 0.931 . S
C298 C297 1.351 1_556 S
C298 N299 1.373 . S
C298 H326 0.930 . S
N299 C298 1.373 . S
N299 C301 1.340 . S
N300 C297 1.368 . S
N300 C301 1.321 1_554 S
N300 Co303 2.135 . S
C301 N299 1.340 . S
C301 N300 1.321 1_556 S
C301 H325 0.930 . S
H302 C297 0.931 . S
Co303 N300 2.135 . S
Co303 N306 2.121 . S
Co303 O311 2.055 . S
Co303 O314 2.039 . S
Co303 N317 2.140 . S
C304 O305 1.227 . S
C304 O314 1.265 1_556 S
O305 C304 1.227 . S
N306 Co303 2.121 . S
N306 C308 1.375 . S
N306 C309 1.313 . S
C307 C308 1.338 . S
C307 N310 1.377 . S
C307 H327 0.930 . S
C308 N306 1.375 . S
C308 C307 1.338 . S
C308 H312 0.931 . S
C309 N306 1.313 . S
C309 N310 1.344 . S
C309 H313 0.930 . S
N310 C307 1.377 . S
N310 C309 1.344 . S
O311 Co303 2.055 . S
O311 C315 1.253 . S
H312 C308 0.931 . S
H313 C309 0.930 . S
O314 Co303 2.039 . S
O314 C304 1.265 1_554 S
C315 O311 1.253 . S
C315 O316 1.227 . S
O316 C315 1.227 . S
N317 Co303 2.140 . S
N317 C320 1.346 . S
N317 C321 1.345 . S
C318 C319 1.387 . S
C318 C322 1.391 . S
C319 C318 1.387 . S
C319 C320 1.369 . S
C319 H328 0.929 1_554 S
C320 N317 1.346 . S
C320 C319 1.369 . S
C320 H323 0.928 1_554 S
C321 N317 1.345 . S
C321 C322 1.371 . S
C321 H324 0.931 . S
C322 C318 1.391 . S
C322 C321 1.371 . S
C322 H329 0.930 . S
H323 C320 0.928 1_556 S
H324 C321 0.931 . S
H325 C301 0.930 . S
H326 C298 0.930 . S
H327 C307 0.930 . S
H328 C319 0.929 1_556 S
H329 C322 0.930 . S
C330 C331 1.351 1_554 S
C330 N333 1.368 . S
C330 H335 0.931 . S
C331 C330 1.351 1_556 S
C331 N332 1.373 . S
C331 H359 0.930 . S
N332 C331 1.373 . S
N332 C334 1.340 . S
N333 C330 1.368 . S
N333 C334 1.321 1_554 S
N333 Co336 2.135 . S
C334 N332 1.340 . S
C334 N333 1.321 1_556 S
C334 H358 0.930 . S
H335 C330 0.931 . S
Co336 N333 2.135 . S
Co336 N339 2.121 . S
Co336 O344 2.055 . S
Co336 O347 2.039 . S
Co336 N350 2.140 . S
C337 O338 1.227 . S
C337 O347 1.265 1_556 S
O338 C337 1.227 . S
N339 Co336 2.121 . S
N339 C341 1.375 . S
N339 C342 1.313 . S
C340 C341 1.338 . S
C340 N343 1.377 . S
C340 H360 0.930 . S
C341 N339 1.375 . S
C341 C340 1.338 . S
C341 H345 0.931 . S
C342 N339 1.313 . S
C342 N343 1.344 . S
C342 H346 0.930 . S
N343 C340 1.377 . S
N343 C342 1.344 . S
O344 Co336 2.055 . S
O344 C348 1.253 . S
H345 C341 0.931 . S
H346 C342 0.930 . S
O347 Co336 2.039 . S
O347 C337 1.265 1_554 S
C348 O344 1.253 . S
C348 O349 1.227 . S
O349 C348 1.227 . S
N350 Co336 2.140 . S
N350 C353 1.346 . S
N350 C354 1.345 . S
C351 C352 1.387 . S
C351 C355 1.391 . S
C352 C351 1.387 . S
C352 C353 1.369 . S
C352 H361 0.929 1_554 S
C353 N350 1.346 . S
C353 C352 1.369 . S
C353 H356 0.928 1_554 S
C354 N350 1.345 . S
C354 C355 1.371 . S
C354 H357 0.931 . S
C355 C351 1.391 . S
C355 C354 1.371 . S
C355 H362 0.930 . S
H356 C353 0.928 1_556 S
H357 C354 0.931 . S
H358 C334 0.930 . S
H359 C331 0.930 . S
H360 C340 0.930 . S
H361 C352 0.929 1_556 S
H362 C355 0.930 . S
C363 C364 1.351 1_554 S
C363 N366 1.368 . S
C363 H368 0.931 . S
C364 C363 1.351 1_556 S
C364 N365 1.373 . S
C364 H392 0.930 . S
N365 C364 1.373 . S
N365 C367 1.340 . S
N366 C363 1.368 . S
N366 C367 1.321 1_554 S
N366 Co369 2.135 . S
C367 N365 1.340 . S
C367 N366 1.321 1_556 S
C367 H391 0.930 . S
H368 C363 0.931 . S
Co369 N366 2.135 . S
Co369 N372 2.121 . S
Co369 O377 2.055 . S
Co369 O380 2.039 . S
Co369 N383 2.140 . S
C370 O371 1.227 . S
C370 O380 1.265 1_556 S
O371 C370 1.227 . S
N372 Co369 2.121 . S
N372 C374 1.375 . S
N372 C375 1.313 . S
C373 C374 1.338 . S
C373 N376 1.377 . S
C373 H393 0.930 . S
C374 N372 1.375 . S
C374 C373 1.338 . S
C374 H378 0.931 . S
C375 N372 1.313 . S
C375 N376 1.344 . S
C375 H379 0.930 . S
N376 C373 1.377 . S
N376 C375 1.344 . S
O377 Co369 2.055 . S
O377 C381 1.253 . S
H378 C374 0.931 . S
H379 C375 0.930 . S
O380 Co369 2.039 . S
O380 C370 1.265 1_554 S
C381 O377 1.253 . S
C381 O382 1.227 . S
O382 C381 1.227 . S
N383 Co369 2.140 . S
N383 C386 1.346 . S
N383 C387 1.345 . S
C384 C385 1.387 . S
C384 C388 1.391 . S
C385 C384 1.387 . S
C385 C386 1.369 . S
C385 H394 0.929 1_554 S
C386 N383 1.346 . S
C386 C385 1.369 . S
C386 H389 0.928 1_554 S
C387 N383 1.345 . S
C387 C388 1.371 . S
C387 H390 0.931 . S
C388 C384 1.391 . S
C388 C387 1.371 . S
C388 H395 0.930 . S
H389 C386 0.928 1_556 S
H390 C387 0.931 . S
H391 C367 0.930 . S
H392 C364 0.930 . S
H393 C373 0.930 . S
H394 C385 0.929 1_556 S
H395 C388 0.930 . S
C396 C397 1.351 1_556 S
C396 N399 1.368 . S
C396 H401 0.931 . S
C397 C396 1.351 1_554 S
C397 N398 1.373 . S
C397 H425 0.930 . S
N398 C397 1.373 . S
N398 C400 1.340 . S
N399 C396 1.368 . S
N399 C400 1.321 1_556 S
N399 Co402 2.135 . S
C400 N398 1.340 . S
C400 N399 1.321 1_554 S
C400 H424 0.930 . S
H401 C396 0.931 . S
Co402 N399 2.135 . S
Co402 N405 2.121 . S
Co402 O410 2.055 . S
Co402 O413 2.039 . S
Co402 N416 2.140 . S
C403 O404 1.227 . S
C403 O413 1.265 1_554 S
O404 C403 1.227 . S
N405 Co402 2.121 . S
N405 C407 1.375 . S
N405 C408 1.313 . S
C406 C407 1.338 . S
C406 N409 1.377 . S
C406 H426 0.930 . S
C407 N405 1.375 . S
C407 C406 1.338 . S
C407 H411 0.931 . S
C408 N405 1.313 . S
C408 N409 1.344 . S
C408 H412 0.930 . S
N409 C406 1.377 . S
N409 C408 1.344 . S
O410 Co402 2.055 . S
O410 C414 1.253 . S
H411 C407 0.931 . S
H412 C408 0.930 . S
O413 Co402 2.039 . S
O413 C403 1.265 1_556 S
C414 O410 1.253 . S
C414 O415 1.227 . S
O415 C414 1.227 . S
N416 Co402 2.140 . S
N416 C419 1.346 . S
N416 C420 1.345 . S
C417 C418 1.387 . S
C417 C421 1.391 . S
C418 C417 1.387 . S
C418 C419 1.369 . S
C418 H427 0.929 1_556 S
C419 N416 1.346 . S
C419 C418 1.369 . S
C419 H422 0.928 1_556 S
C420 N416 1.345 . S
C420 C421 1.371 . S
C420 H423 0.931 . S
C421 C417 1.391 . S
C421 C420 1.371 . S
C421 H428 0.930 . S
H422 C419 0.928 1_554 S
H423 C420 0.931 . S
H424 C400 0.930 . S
H425 C397 0.930 . S
H426 C406 0.930 . S
H427 C418 0.929 1_554 S
H428 C421 0.930 . S
C429 C430 1.351 1_556 S
C429 N432 1.368 . S
C429 H434 0.931 . S
C430 C429 1.351 1_554 S
C430 N431 1.373 . S
C430 H458 0.930 . S
N431 C430 1.373 . S
N431 C433 1.340 . S
N432 C429 1.368 . S
N432 C433 1.321 1_556 S
N432 Co435 2.135 . S
C433 N431 1.340 . S
C433 N432 1.321 1_554 S
C433 H457 0.930 . S
H434 C429 0.931 . S
Co435 N432 2.135 . S
Co435 N438 2.121 . S
Co435 O443 2.055 . S
Co435 O446 2.039 . S
Co435 N449 2.140 . S
C436 O437 1.227 . S
C436 O446 1.265 1_554 S
O437 C436 1.227 . S
N438 Co435 2.121 . S
N438 C440 1.375 . S
N438 C441 1.313 . S
C439 C440 1.338 . S
C439 N442 1.377 . S
C439 H459 0.930 . S
C440 N438 1.375 . S
C440 C439 1.338 . S
C440 H444 0.931 . S
C441 N438 1.313 . S
C441 N442 1.344 . S
C441 H445 0.930 . S
N442 C439 1.377 . S
N442 C441 1.344 . S
O443 Co435 2.055 . S
O443 C447 1.253 . S
H444 C440 0.931 . S
H445 C441 0.930 . S
O446 Co435 2.039 . S
O446 C436 1.265 1_556 S
C447 O443 1.253 . S
C447 O448 1.227 . S
O448 C447 1.227 . S
N449 Co435 2.140 . S
N449 C452 1.346 . S
N449 C453 1.345 . S
C450 C451 1.387 . S
C450 C454 1.391 . S
C451 C450 1.387 . S
C451 C452 1.369 . S
C451 H460 0.929 1_556 S
C452 N449 1.346 . S
C452 C451 1.369 . S
C452 H455 0.928 1_556 S
C453 N449 1.345 . S
C453 C454 1.371 . S
C453 H456 0.931 . S
C454 C450 1.391 . S
C454 C453 1.371 . S
C454 H461 0.930 . S
H455 C452 0.928 1_554 S
H456 C453 0.931 . S
H457 C433 0.930 . S
H458 C430 0.930 . S
H459 C439 0.930 . S
H460 C451 0.929 1_554 S
H461 C454 0.930 . S
C462 C463 1.351 1_556 S
C462 N465 1.368 . S
C462 H467 0.931 . S
C463 C462 1.351 1_554 S
C463 N464 1.373 . S
C463 H491 0.930 . S
N464 C463 1.373 . S
N464 C466 1.340 . S
N465 C462 1.368 . S
N465 C466 1.321 1_556 S
N465 Co468 2.135 . S
C466 N464 1.340 . S
C466 N465 1.321 1_554 S
C466 H490 0.930 . S
H467 C462 0.931 . S
Co468 N465 2.135 . S
Co468 N471 2.121 . S
Co468 O476 2.055 . S
Co468 O479 2.039 . S
Co468 N482 2.140 . S
C469 O470 1.227 . S
C469 O479 1.265 1_554 S
O470 C469 1.227 . S
N471 Co468 2.121 . S
N471 C473 1.375 . S
N471 C474 1.313 . S
C472 C473 1.338 . S
C472 N475 1.377 . S
C472 H492 0.930 . S
C473 N471 1.375 . S
C473 C472 1.338 . S
C473 H477 0.931 . S
C474 N471 1.313 . S
C474 N475 1.344 . S
C474 H478 0.930 . S
N475 C472 1.377 . S
N475 C474 1.344 . S
O476 Co468 2.055 . S
O476 C480 1.253 . S
H477 C473 0.931 . S
H478 C474 0.930 . S
O479 Co468 2.039 . S
O479 C469 1.265 1_556 S
C480 O476 1.253 . S
C480 O481 1.227 . S
O481 C480 1.227 . S
N482 Co468 2.140 . S
N482 C485 1.346 . S
N482 C486 1.345 . S
C483 C484 1.387 . S
C483 C487 1.391 . S
C484 C483 1.387 . S
C484 C485 1.369 . S
C484 H493 0.929 1_556 S
C485 N482 1.346 . S
C485 C484 1.369 . S
C485 H488 0.928 1_556 S
C486 N482 1.345 . S
C486 C487 1.371 . S
C486 H489 0.931 . S
C487 C483 1.391 . S
C487 C486 1.371 . S
C487 H494 0.930 . S
H488 C485 0.928 1_554 S
H489 C486 0.931 . S
H490 C466 0.930 . S
H491 C463 0.930 . S
H492 C472 0.930 . S
H493 C484 0.929 1_554 S
H494 C487 0.930 . S
C495 C496 1.351 . S
C495 N498 1.368 . S
C495 H500 0.931 . S
C496 C495 1.351 . S
C496 N497 1.373 . S
C496 H524 0.930 . S
N497 C496 1.373 . S
N497 C499 1.340 . S
N498 C495 1.368 . S
N498 C499 1.321 . S
N498 Co501 2.135 . S
C499 N497 1.340 . S
C499 N498 1.321 . S
C499 H523 0.930 . S
H500 C495 0.931 . S
Co501 N498 2.135 . S
Co501 N504 2.121 . S
Co501 O509 2.055 . S
Co501 O512 2.039 . S
Co501 N515 2.140 . S
C502 O503 1.227 . S
C502 O512 1.265 . S
O503 C502 1.227 . S
N504 Co501 2.121 . S
N504 C506 1.375 . S
N504 C507 1.313 . S
C505 C506 1.338 . S
C505 N508 1.377 . S
C505 H525 0.930 . S
C506 N504 1.375 . S
C506 C505 1.338 . S
C506 H510 0.931 . S
C507 N504 1.313 . S
C507 N508 1.344 . S
C507 H511 0.930 . S
N508 C505 1.377 . S
N508 C507 1.344 . S
O509 Co501 2.055 . S
O509 C513 1.253 . S
H510 C506 0.931 . S
H511 C507 0.930 . S
O512 Co501 2.039 . S
O512 C502 1.265 . S
C513 O509 1.253 . S
C513 O514 1.227 . S
O514 C513 1.227 . S
N515 Co501 2.140 . S
N515 C518 1.346 . S
N515 C519 1.345 . S
C516 C517 1.387 . S
C516 C520 1.391 . S
C517 C516 1.387 . S
C517 C518 1.369 . S
C517 H526 0.929 . S
C518 N515 1.346 . S
C518 C517 1.369 . S
C518 H521 0.928 . S
C519 N515 1.345 . S
C519 C520 1.371 . S
C519 H522 0.931 . S
C520 C516 1.391 . S
C520 C519 1.371 . S
C520 H527 0.930 . S
H521 C518 0.928 . S
H522 C519 0.931 . S
H523 C499 0.930 . S
H524 C496 0.930 . S
H525 C505 0.930 . S
H526 C517 0.929 . S
H527 C520 0.930 . S
C528 C529 1.351 . S
C528 N531 1.368 . S
C528 H533 0.931 . S
C529 C528 1.351 . S
C529 N530 1.373 . S
C529 H557 0.930 . S
N530 C529 1.373 . S
N530 C532 1.340 . S
N531 C528 1.368 . S
N531 C532 1.321 . S
N531 Co534 2.135 . S
C532 N530 1.340 . S
C532 N531 1.321 . S
C532 H556 0.930 . S
H533 C528 0.931 . S
Co534 N531 2.135 . S
Co534 N537 2.121 . S
Co534 O542 2.055 . S
Co534 O545 2.039 . S
Co534 N548 2.140 . S
C535 O536 1.227 . S
C535 O545 1.265 . S
O536 C535 1.227 . S
N537 Co534 2.121 . S
N537 C539 1.375 . S
N537 C540 1.313 . S
C538 C539 1.338 . S
C538 N541 1.377 . S
C538 H558 0.930 . S
C539 N537 1.375 . S
C539 C538 1.338 . S
C539 H543 0.931 . S
C540 N537 1.313 . S
C540 N541 1.344 . S
C540 H544 0.930 . S
N541 C538 1.377 . S
N541 C540 1.344 . S
O542 Co534 2.055 . S
O542 C546 1.253 . S
H543 C539 0.931 . S
H544 C540 0.930 . S
O545 Co534 2.039 . S
O545 C535 1.265 . S
C546 O542 1.253 . S
C546 O547 1.227 . S
O547 C546 1.227 . S
N548 Co534 2.140 . S
N548 C551 1.346 . S
N548 C552 1.345 . S
C549 C550 1.387 . S
C549 C553 1.391 . S
C550 C549 1.387 . S
C550 C551 1.369 . S
C550 H559 0.929 . S
C551 N548 1.346 . S
C551 C550 1.369 . S
C551 H554 0.928 . S
C552 N548 1.345 . S
C552 C553 1.371 . S
C552 H555 0.931 . S
C553 C549 1.391 . S
C553 C552 1.371 . S
C553 H560 0.930 . S
H554 C551 0.928 . S
H555 C552 0.931 . S
H556 C532 0.930 . S
H557 C529 0.930 . S
H558 C538 0.930 . S
H559 C550 0.929 . S
H560 C553 0.930 . S
C561 C562 1.351 . S
C561 N564 1.368 . S
C561 H566 0.931 . S
C562 C561 1.351 . S
C562 N563 1.373 . S
C562 H590 0.930 . S
N563 C562 1.373 . S
N563 C565 1.340 . S
N564 C561 1.368 . S
N564 C565 1.321 . S
N564 Co567 2.135 . S
C565 N563 1.340 . S
C565 N564 1.321 . S
C565 H589 0.930 . S
H566 C561 0.931 . S
Co567 N564 2.135 . S
Co567 N570 2.121 . S
Co567 O575 2.055 . S
Co567 O578 2.039 . S
Co567 N581 2.140 . S
C568 O569 1.227 . S
C568 O578 1.265 . S
O569 C568 1.227 . S
N570 Co567 2.121 . S
N570 C572 1.375 . S
N570 C573 1.313 . S
C571 C572 1.338 . S
C571 N574 1.377 . S
C571 H591 0.930 . S
C572 N570 1.375 . S
C572 C571 1.338 . S
C572 H576 0.931 . S
C573 N570 1.313 . S
C573 N574 1.344 . S
C573 H577 0.930 . S
N574 C571 1.377 . S
N574 C573 1.344 . S
O575 Co567 2.055 . S
O575 C579 1.253 . S
H576 C572 0.931 . S
H577 C573 0.930 . S
O578 Co567 2.039 . S
O578 C568 1.265 . S
C579 O575 1.253 . S
C579 O580 1.227 . S
O580 C579 1.227 . S
N581 Co567 2.140 . S
N581 C584 1.346 . S
N581 C585 1.345 . S
C582 C583 1.387 . S
C582 C586 1.391 . S
C583 C582 1.387 . S
C583 C584 1.369 . S
C583 H592 0.929 . S
C584 N581 1.346 . S
C584 C583 1.369 . S
C584 H587 0.928 . S
C585 N581 1.345 . S
C585 C586 1.371 . S
C585 H588 0.931 . S
C586 C582 1.391 . S
C586 C585 1.371 . S
C586 H593 0.930 . S
H587 C584 0.928 . S
H588 C585 0.931 . S
H589 C565 0.930 . S
H590 C562 0.930 . S
H591 C571 0.930 . S
H592 C583 0.929 . S
H593 C586 0.930 . S
H594 C600 0.930 . S
H595 C604 0.930 . S
H596 C609 0.929 . S
H597 C607 0.929 . S
H598 C602 0.929 . S
H599 C608 0.929 . S
C600 H594 0.930 . S
C600 C601 1.367 . S
C600 C608 1.378 . S
C601 C600 1.367 . S
C601 C609 1.433 . S
C602 H598 0.929 . S
C602 C604 1.378 . S
C602 C606 1.350 . S
C603 C606 1.463 1_556 S
C603 C608 1.350 . S
C603 N611 1.427 . S
C604 H595 0.930 . S
C604 C602 1.378 . S
C604 C605 1.367 . S
C605 C604 1.367 . S
C605 C607 1.433 . S
C606 C602 1.350 . S
C606 C603 1.463 1_554 S
C606 N610 1.427 . S
C607 H597 0.929 . S
C607 C605 1.433 . S
C607 N610 1.384 . S
C608 H599 0.929 . S
C608 C600 1.378 . S
C608 C603 1.350 . S
C609 H596 0.929 . S
C609 C601 1.433 . S
C609 N611 1.384 . S
N610 C606 1.427 . S
N610 C607 1.384 . S
N611 C603 1.427 . S
N611 C609 1.384 . S
H612 C618 0.930 . S
H613 C622 0.930 . S
H614 C627 0.929 . S
H615 C625 0.929 . S
H616 C620 0.930 1_556 S
H617 C626 0.930 1_554 S
C618 H612 0.930 . S
C618 C619 1.367 . S
C618 C626 1.377 . S
C619 C618 1.367 . S
C619 C627 1.433 . S
C620 H616 0.930 1_554 S
C620 C622 1.377 . S
C620 C624 1.349 . S
C621 C624 1.463 1_546 S
C621 C626 1.349 . S
C621 N629 1.427 . S
C622 H613 0.930 . S
C622 C620 1.377 . S
C622 C623 1.367 . S
C623 C622 1.367 . S
C623 C625 1.433 . S
C624 C620 1.349 . S
C624 C621 1.463 1_564 S
C624 N628 1.427 . S
C625 H615 0.929 . S
C625 C623 1.433 . S
C625 N628 1.384 . S
C626 H617 0.930 1_556 S
C626 C618 1.377 . S
C626 C621 1.349 . S
C627 H614 0.929 . S
C627 C619 1.433 . S
C627 N629 1.384 . S
N628 C624 1.427 . S
N628 C625 1.384 . S
N629 C621 1.427 . S
N629 C627 1.384 . S
H630 C636 0.930 . S
H631 C640 0.930 . S
H632 C645 0.929 . S
H633 C643 0.929 . S
H634 C638 0.929 1_455 S
H635 C644 0.929 1_655 S
C636 H630 0.930 . S
C636 C637 1.367 . S
C636 C644 1.378 . S
C637 C636 1.367 . S
C637 C645 1.433 . S
C638 H634 0.929 1_655 S
C638 C640 1.378 . S
C638 C642 1.350 . S
C639 C642 1.463 1_454 S
C639 C644 1.350 . S
C639 N647 1.427 . S
C640 H631 0.930 . S
C640 C638 1.378 . S
C640 C641 1.367 . S
C641 C640 1.367 . S
C641 C643 1.433 . S
C642 C638 1.350 . S
C642 C639 1.463 1_656 S
C642 N646 1.427 . S
C643 H633 0.929 . S
C643 C641 1.433 . S
C643 N646 1.384 . S
C644 H635 0.929 1_455 S
C644 C636 1.378 . S
C644 C639 1.350 . S
C645 H632 0.929 . S
C645 C637 1.433 . S
C645 N647 1.384 . S
N646 C642 1.427 . S
N646 C643 1.384 . S
N647 C639 1.427 . S
N647 C645 1.384 . S
H648 C654 0.930 . S
H649 C658 0.930 . S
H650 C663 0.929 . S
H651 C661 0.929 . S
H652 C656 0.929 1_554 S
H653 C662 0.929 1_556 S
C654 H648 0.930 . S
C654 C655 1.367 . S
C654 C662 1.378 . S
C655 C654 1.367 . S
C655 C663 1.433 . S
C656 H652 0.929 1_556 S
C656 C658 1.378 . S
C656 C660 1.350 . S
C657 C660 1.463 1_554 S
C657 C662 1.350 . S
C657 N665 1.427 . S
C658 H649 0.930 . S
C658 C656 1.378 . S
C658 C659 1.367 . S
C659 C658 1.367 . S
C659 C661 1.433 . S
C660 C656 1.350 . S
C660 C657 1.463 1_556 S
C660 N664 1.427 . S
C661 H651 0.929 . S
C661 C659 1.433 . S
C661 N664 1.384 . S
C662 H653 0.929 1_554 S
C662 C654 1.378 . S
C662 C657 1.350 . S
C663 H650 0.929 . S
C663 C655 1.433 . S
C663 N665 1.384 . S
N664 C660 1.427 . S
N664 C661 1.384 . S
N665 C657 1.427 . S
N665 C663 1.384 . S
H666 C672 0.930 . S
H667 C676 0.930 . S
H668 C681 0.929 . S
H669 C679 0.929 . S
H670 C674 0.929 1_545 S
H671 C680 0.929 1_565 S
C672 H666 0.930 . S
C672 C673 1.367 . S
C672 C680 1.378 . S
C673 C672 1.367 . S
C673 C681 1.433 . S
C674 H670 0.929 1_565 S
C674 C676 1.378 . S
C674 C678 1.350 . S
C675 C678 1.463 1_546 S
C675 C680 1.350 . S
C675 N683 1.427 . S
C676 H667 0.930 . S
C676 C674 1.378 . S
C676 C677 1.367 . S
C677 C676 1.367 . S
C677 C679 1.433 . S
C678 C674 1.350 . S
C678 C675 1.463 1_564 S
C678 N682 1.427 . S
C679 H669 0.929 . S
C679 C677 1.433 . S
C679 N682 1.384 . S
C680 H671 0.929 1_545 S
C680 C672 1.378 . S
C680 C675 1.350 . S
C681 H668 0.929 . S
C681 C673 1.433 . S
C681 N683 1.384 . S
N682 C678 1.427 . S
N682 C679 1.384 . S
N683 C675 1.427 . S
N683 C681 1.384 . S
H684 C690 0.930 . S
H685 C694 0.930 . S
H686 C699 0.929 . S
H687 C697 0.929 . S
H688 C692 0.929 . S
H689 C698 0.929 . S
C690 H684 0.930 . S
C690 C691 1.367 . S
C690 C698 1.378 . S
C691 C690 1.367 . S
C691 C699 1.433 . S
C692 H688 0.929 . S
C692 C694 1.378 . S
C692 C696 1.350 . S
C693 C696 1.463 1_656 S
C693 C698 1.350 . S
C693 N701 1.427 . S
C694 H685 0.930 . S
C694 C692 1.378 . S
C694 C695 1.367 . S
C695 C694 1.367 . S
C695 C697 1.433 . S
C696 C692 1.350 . S
C696 C693 1.463 1_454 S
C696 N700 1.427 . S
C697 H687 0.929 . S
C697 C695 1.433 . S
C697 N700 1.384 . S
C698 H689 0.929 . S
C698 C690 1.378 . S
C698 C693 1.350 . S
C699 H686 0.929 . S
C699 C691 1.433 . S
C699 N701 1.384 . S
N700 C696 1.427 . S
N700 C697 1.384 . S
N701 C693 1.427 . S
N701 C699 1.384 . S
H702 C708 0.930 . S
H703 C712 0.930 . S
H704 C717 0.929 . S
H705 C715 0.929 . S
H706 C710 0.929 . S
H707 C716 0.929 . S
C708 H702 0.930 . S
C708 C709 1.367 . S
C708 C716 1.378 . S
C709 C708 1.367 . S
C709 C717 1.433 . S
C710 H706 0.929 . S
C710 C712 1.378 . S
C710 C714 1.350 . S
C711 C714 1.463 . S
C711 C716 1.350 . S
C711 N719 1.427 . S
C712 H703 0.930 . S
C712 C710 1.378 . S
C712 C713 1.367 . S
C713 C712 1.367 . S
C713 C715 1.433 . S
C714 C710 1.350 . S
C714 C711 1.463 . S
C714 N718 1.427 . S
C715 H705 0.929 . S
C715 C713 1.433 . S
C715 N718 1.384 . S
C716 H707 0.929 . S
C716 C708 1.378 . S
C716 C711 1.350 . S
C717 H704 0.929 . S
C717 C709 1.433 . S
C717 N719 1.384 . S
N718 C714 1.427 . S
N718 C715 1.384 . S
N719 C711 1.427 . S
N719 C717 1.384 . S
H720 C726 0.930 . S
H721 C730 0.930 . S
H722 C735 0.929 . S
H723 C733 0.929 . S
H724 C728 0.929 . S
H725 C734 0.929 . S
C726 H720 0.930 . S
C726 C727 1.367 . S
C726 C734 1.378 . S
C727 C726 1.367 . S
C727 C735 1.433 . S
C728 H724 0.929 . S
C728 C730 1.378 . S
C728 C732 1.350 . S
C729 C732 1.463 . S
C729 C734 1.350 . S
C729 N737 1.427 . S
C730 H721 0.930 . S
C730 C728 1.378 . S
C730 C731 1.367 . S
C731 C730 1.367 . S
C731 C733 1.433 . S
C732 C728 1.350 . S
C732 C729 1.463 . S
C732 N736 1.427 . S
C733 H723 0.929 . S
C733 C731 1.433 . S
C733 N736 1.384 . S
C734 H725 0.929 . S
C734 C726 1.378 . S
C734 C729 1.350 . S
C735 H722 0.929 . S
C735 C727 1.433 . S
C735 N737 1.384 . S
N736 C732 1.427 . S
N736 C733 1.384 . S
N737 C729 1.427 . S
N737 C735 1.384 . S
H738 C744 0.930 . S
H739 C748 0.930 . S
H740 C753 0.929 . S
H741 C751 0.929 . S
H742 C746 0.929 . S
H743 C752 0.929 . S
C744 H738 0.930 . S
C744 C745 1.367 . S
C744 C752 1.378 . S
C745 C744 1.367 . S
C745 C753 1.433 . S
C746 H742 0.929 . S
C746 C748 1.378 . S
C746 C750 1.350 . S
C747 C750 1.463 . S
C747 C752 1.350 . S
C747 N755 1.427 . S
C748 H739 0.930 . S
C748 C746 1.378 . S
C748 C749 1.367 . S
C749 C748 1.367 . S
C749 C751 1.433 . S
C750 C746 1.350 . S
C750 C747 1.463 . S
C750 N754 1.427 . S
C751 H741 0.929 . S
C751 C749 1.433 . S
C751 N754 1.384 . S
C752 H743 0.929 . S
C752 C744 1.378 . S
C752 C747 1.350 . S
C753 H740 0.929 . S
C753 C745 1.433 . S
C753 N755 1.384 . S
N754 C750 1.427 . S
N754 C751 1.384 . S
N755 C747 1.427 . S
N755 C753 1.384 . S
H756 C762 0.930 . S
H757 C766 0.930 . S
H758 C771 0.929 . S
H759 C769 0.929 . S
H760 C764 0.929 . S
H761 C770 0.929 . S
C762 H756 0.930 . S
C762 C763 1.367 . S
C762 C770 1.378 . S
C763 C762 1.367 . S
C763 C771 1.433 . S
C764 H760 0.929 . S
C764 C766 1.378 . S
C764 C768 1.350 . S
C765 C768 1.463 . S
C765 C770 1.350 . S
C765 N773 1.427 . S
C766 H757 0.930 . S
C766 C764 1.378 . S
C766 C767 1.367 . S
C767 C766 1.367 . S
C767 C769 1.433 . S
C768 C764 1.350 . S
C768 C765 1.463 . S
C768 N772 1.427 . S
C769 H759 0.929 . S
C769 C767 1.433 . S
C769 N772 1.384 . S
C770 H761 0.929 . S
C770 C762 1.378 . S
C770 C765 1.350 . S
C771 H758 0.929 . S
C771 C763 1.433 . S
C771 N773 1.384 . S
N772 C768 1.427 . S
N772 C769 1.384 . S
N773 C765 1.427 . S
N773 C771 1.384 . S
H774 C780 0.930 . S
H775 C784 0.930 . S
H776 C789 0.929 . S
H777 C787 0.929 . S
H778 C782 0.929 . S
H779 C788 0.929 . S
C780 H774 0.930 . S
C780 C781 1.367 . S
C780 C788 1.378 . S
C781 C780 1.367 . S
C781 C789 1.433 . S
C782 H778 0.929 . S
C782 C784 1.378 . S
C782 C786 1.350 . S
C783 C786 1.463 . S
C783 C788 1.350 . S
C783 N791 1.427 . S
C784 H775 0.930 . S
C784 C782 1.378 . S
C784 C785 1.367 . S
C785 C784 1.367 . S
C785 C787 1.433 . S
C786 C782 1.350 . S
C786 C783 1.463 . S
C786 N790 1.427 . S
C787 H777 0.929 . S
C787 C785 1.433 . S
C787 N790 1.384 . S
C788 H779 0.929 . S
C788 C780 1.378 . S
C788 C783 1.350 . S
C789 H776 0.929 . S
C789 C781 1.433 . S
C789 N791 1.384 . S
N790 C786 1.427 . S
N790 C787 1.384 . S
N791 C783 1.427 . S
N791 C789 1.384 . S
H792 C798 0.930 . S
H793 C802 0.930 . S
H794 C807 0.929 . S
H795 C805 0.929 . S
H796 C800 0.929 . S
H797 C806 0.929 . S
C798 H792 0.930 . S
C798 C799 1.367 . S
C798 C806 1.378 . S
C799 C798 1.367 . S
C799 C807 1.433 . S
C800 H796 0.929 . S
C800 C802 1.378 . S
C800 C804 1.350 . S
C801 C804 1.463 . S
C801 C806 1.350 . S
C801 N809 1.427 . S
C802 H793 0.930 . S
C802 C800 1.378 . S
C802 C803 1.367 . S
C803 C802 1.367 . S
C803 C805 1.433 . S
C804 C800 1.350 . S
C804 C801 1.463 . S
C804 N808 1.427 . S
C805 H795 0.929 . S
C805 C803 1.433 . S
C805 N808 1.384 . S
C806 H797 0.929 . S
C806 C798 1.378 . S
C806 C801 1.350 . S
C807 H794 0.929 . S
C807 C799 1.433 . S
C807 N809 1.384 . S
N808 C804 1.427 . S
N808 C805 1.384 . S
N809 C801 1.427 . S
N809 C807 1.384 . S
H810 C816 0.930 . S
H811 C820 0.930 . S
H812 C825 0.929 . S
H813 C823 0.929 . S
H814 C818 0.929 . S
H815 C824 0.929 . S
C816 H810 0.930 . S
C816 C817 1.367 . S
C816 C824 1.378 . S
C817 C816 1.367 . S
C817 C825 1.433 . S
C818 H814 0.929 . S
C818 C820 1.378 . S
C818 C822 1.350 . S
C819 C822 1.463 . S
C819 C824 1.350 . S
C819 N827 1.427 . S
C820 H811 0.930 . S
C820 C818 1.378 . S
C820 C821 1.367 . S
C821 C820 1.367 . S
C821 C823 1.433 . S
C822 C818 1.350 . S
C822 C819 1.463 . S
C822 N826 1.427 . S
C823 H813 0.929 . S
C823 C821 1.433 . S
C823 N826 1.384 . S
C824 H815 0.929 . S
C824 C816 1.378 . S
C824 C819 1.350 . S
C825 H812 0.929 . S
C825 C817 1.433 . S
C825 N827 1.384 . S
N826 C822 1.427 . S
N826 C823 1.384 . S
N827 C819 1.427 . S
N827 C825 1.384 . S
H828 C834 0.930 . S
H829 C838 0.930 . S
H830 C843 0.929 . S
H831 C841 0.929 . S
H832 C836 0.929 . S
H833 C842 0.929 . S
C834 H828 0.930 . S
C834 C835 1.367 . S
C834 C842 1.378 . S
C835 C834 1.367 . S
C835 C843 1.433 . S
C836 H832 0.929 . S
C836 C838 1.378 . S
C836 C840 1.350 . S
C837 C840 1.463 . S
C837 C842 1.350 . S
C837 N845 1.427 . S
C838 H829 0.930 . S
C838 C836 1.378 . S
C838 C839 1.367 . S
C839 C838 1.367 . S
C839 C841 1.433 . S
C840 C836 1.350 . S
C840 C837 1.463 . S
C840 N844 1.427 . S
C841 H831 0.929 . S
C841 C839 1.433 . S
C841 N844 1.384 . S
C842 H833 0.929 . S
C842 C834 1.378 . S
C842 C837 1.350 . S
C843 H830 0.929 . S
C843 C835 1.433 . S
C843 N845 1.384 . S
N844 C840 1.427 . S
N844 C841 1.384 . S
N845 C837 1.427 . S
N845 C843 1.384 . S
H846 C852 0.930 . S
H847 C856 0.930 . S
H848 C861 0.929 . S
H849 C859 0.929 . S
H850 C854 0.929 . S
H851 C860 0.929 . S
C852 H846 0.930 . S
C852 C853 1.367 . S
C852 C860 1.378 . S
C853 C852 1.367 . S
C853 C861 1.433 . S
C854 H850 0.929 . S
C854 C856 1.378 . S
C854 C858 1.350 . S
C855 C858 1.463 . S
C855 C860 1.350 . S
C855 N863 1.427 . S
C856 H847 0.930 . S
C856 C854 1.378 . S
C856 C857 1.367 . S
C857 C856 1.367 . S
C857 C859 1.433 . S
C858 C854 1.350 . S
C858 C855 1.463 . S
C858 N862 1.427 . S
C859 H849 0.929 . S
C859 C857 1.433 . S
C859 N862 1.384 . S
C860 H851 0.929 . S
C860 C852 1.378 . S
C860 C855 1.350 . S
C861 H848 0.929 . S
C861 C853 1.433 . S
C861 N863 1.384 . S
N862 C858 1.427 . S
N862 C859 1.384 . S
N863 C855 1.427 . S
N863 C861 1.384 . S
H864 C870 0.930 . S
H865 C874 0.930 . S
H866 C879 0.929 . S
H867 C877 0.929 . S
H868 C872 0.929 . S
H869 C878 0.929 . S
C870 H864 0.930 . S
C870 C871 1.367 . S
C870 C878 1.378 . S
C871 C870 1.367 . S
C871 C879 1.433 . S
C872 H868 0.929 . S
C872 C874 1.378 . S
C872 C876 1.350 . S
C873 C876 1.463 . S
C873 C878 1.350 . S
C873 N881 1.427 . S
C874 H865 0.930 . S
C874 C872 1.378 . S
C874 C875 1.367 . S
C875 C874 1.367 . S
C875 C877 1.433 . S
C876 C872 1.350 . S
C876 C873 1.463 . S
C876 N880 1.427 . S
C877 H867 0.929 . S
C877 C875 1.433 . S
C877 N880 1.384 . S
C878 H869 0.929 . S
C878 C870 1.378 . S
C878 C873 1.350 . S
C879 H866 0.929 . S
C879 C871 1.433 . S
C879 N881 1.384 . S
N880 C876 1.427 . S
N880 C877 1.384 . S
N881 C873 1.427 . S
N881 C879 1.384 . S
H882 C888 0.930 . S
H883 C892 0.930 . S
H884 C897 0.929 . S
H885 C895 0.929 . S
H886 C890 0.929 . S
H887 C896 0.929 . S
C888 H882 0.930 . S
C888 C889 1.367 . S
C888 C896 1.378 . S
C889 C888 1.367 . S
C889 C897 1.433 . S
C890 H886 0.929 . S
C890 C892 1.378 . S
C890 C894 1.350 . S
C891 C894 1.463 . S
C891 C896 1.350 . S
C891 N899 1.427 . S
C892 H883 0.930 . S
C892 C890 1.378 . S
C892 C893 1.367 . S
C893 C892 1.367 . S
C893 C895 1.433 . S
C894 C890 1.350 . S
C894 C891 1.463 . S
C894 N898 1.427 . S
C895 H885 0.929 . S
C895 C893 1.433 . S
C895 N898 1.384 . S
C896 H887 0.929 . S
C896 C888 1.378 . S
C896 C891 1.350 . S
C897 H884 0.929 . S
C897 C889 1.433 . S
C897 N899 1.384 . S
N898 C894 1.427 . S
N898 C895 1.384 . S
N899 C891 1.427 . S
N899 C897 1.384 . S
H900 C906 0.930 . S
H901 C910 0.930 . S
H902 C915 0.929 . S
H903 C913 0.929 . S
H904 C908 0.929 . S
H905 C914 0.929 . S
C906 H900 0.930 . S
C906 C907 1.367 . S
C906 C914 1.378 . S
C907 C906 1.367 . S
C907 C915 1.433 . S
C908 H904 0.929 . S
C908 C910 1.378 . S
C908 C912 1.350 . S
C909 C912 1.463 . S
C909 C914 1.350 . S
C909 N917 1.427 . S
C910 H901 0.930 . S
C910 C908 1.378 . S
C910 C911 1.367 . S
C911 C910 1.367 . S
C911 C913 1.433 . S
C912 C908 1.350 . S
C912 C909 1.463 . S
C912 N916 1.427 . S
C913 H903 0.929 . S
C913 C911 1.433 . S
C913 N916 1.384 . S
C914 H905 0.929 . S
C914 C906 1.378 . S
C914 C909 1.350 . S
C915 H902 0.929 . S
C915 C907 1.433 . S
C915 N917 1.384 . S
N916 C912 1.427 . S
N916 C913 1.384 . S
N917 C909 1.427 . S
N917 C915 1.384 . S
H918 C924 0.930 . S
H919 C928 0.930 . S
H920 C933 0.929 . S
H921 C931 0.929 . S
H922 C926 0.929 . S
H923 C932 0.929 . S
C924 H918 0.930 . S
C924 C925 1.367 . S
C924 C932 1.378 . S
C925 C924 1.367 . S
C925 C933 1.433 . S
C926 H922 0.929 . S
C926 C928 1.378 . S
C926 C930 1.350 . S
C927 C930 1.463 . S
C927 C932 1.350 . S
C927 N935 1.427 . S
C928 H919 0.930 . S
C928 C926 1.378 . S
C928 C929 1.367 . S
C929 C928 1.367 . S
C929 C931 1.433 . S
C930 C926 1.350 . S
C930 C927 1.463 . S
C930 N934 1.427 . S
C931 H921 0.929 . S
C931 C929 1.433 . S
C931 N934 1.384 . S
C932 H923 0.929 . S
C932 C924 1.378 . S
C932 C927 1.350 . S
C933 H920 0.929 . S
C933 C925 1.433 . S
C933 N935 1.384 . S
N934 C930 1.427 . S
N934 C931 1.384 . S
N935 C927 1.427 . S
N935 C933 1.384 . S
H936 C942 0.930 . S
H937 C946 0.930 . S
H938 C951 0.929 . S
H939 C949 0.929 . S
H940 C944 0.929 . S
H941 C950 0.929 . S
C942 H936 0.930 . S
C942 C943 1.367 . S
C942 C950 1.378 . S
C943 C942 1.367 . S
C943 C951 1.433 . S
C944 H940 0.929 . S
C944 C946 1.378 . S
C944 C948 1.350 . S
C945 C948 1.463 . S
C945 C950 1.350 . S
C945 N953 1.427 . S
C946 H937 0.930 . S
C946 C944 1.378 . S
C946 C947 1.367 . S
C947 C946 1.367 . S
C947 C949 1.433 . S
C948 C944 1.350 . S
C948 C945 1.463 . S
C948 N952 1.427 . S
C949 H939 0.929 . S
C949 C947 1.433 . S
C949 N952 1.384 . S
C950 H941 0.929 . S
C950 C942 1.378 . S
C950 C945 1.350 . S
C951 H938 0.929 . S
C951 C943 1.433 . S
C951 N953 1.384 . S
N952 C948 1.427 . S
N952 C949 1.384 . S
N953 C945 1.427 . S
N953 C951 1.384 . S
H954 C960 0.930 . S
H955 C964 0.930 . S
H956 C969 0.929 . S
H957 C967 0.929 . S
H958 C962 0.929 . S
H959 C968 0.929 . S
C960 H954 0.930 . S
C960 C961 1.367 . S
C960 C968 1.378 . S
C961 C960 1.367 . S
C961 C969 1.433 . S
C962 H958 0.929 . S
C962 C964 1.378 . S
C962 C966 1.350 . S
C963 C966 1.463 . S
C963 C968 1.350 . S
C963 N971 1.427 . S
C964 H955 0.930 . S
C964 C962 1.378 . S
C964 C965 1.367 . S
C965 C964 1.367 . S
C965 C967 1.433 . S
C966 C962 1.350 . S
C966 C963 1.463 . S
C966 N970 1.427 . S
C967 H957 0.929 . S
C967 C965 1.433 . S
C967 N970 1.384 . S
C968 H959 0.929 . S
C968 C960 1.378 . S
C968 C963 1.350 . S
C969 H956 0.929 . S
C969 C961 1.433 . S
C969 N971 1.384 . S
N970 C966 1.427 . S
N970 C967 1.384 . S
N971 C963 1.427 . S
N971 C969 1.384 . S
H972 C978 0.930 . S
H973 C982 0.930 . S
H974 C987 0.929 . S
H975 C985 0.929 . S
H976 C980 0.929 . S
H977 C986 0.929 . S
C978 H972 0.930 . S
C978 C979 1.367 . S
C978 C986 1.378 . S
C979 C978 1.367 . S
C979 C987 1.433 . S
C980 H976 0.929 . S
C980 C982 1.378 . S
C980 C984 1.350 . S
C981 C984 1.463 . S
C981 C986 1.350 . S
C981 N989 1.427 . S
C982 H973 0.930 . S
C982 C980 1.378 . S
C982 C983 1.367 . S
C983 C982 1.367 . S
C983 C985 1.433 . S
C984 C980 1.350 . S
C984 C981 1.463 . S
C984 N988 1.427 . S
C985 H975 0.929 . S
C985 C983 1.433 . S
C985 N988 1.384 . S
C986 H977 0.929 . S
C986 C978 1.378 . S
C986 C981 1.350 . S
C987 H974 0.929 . S
C987 C979 1.433 . S
C987 N989 1.384 . S
N988 C984 1.427 . S
N988 C985 1.384 . S
N989 C981 1.427 . S
N989 C987 1.384 . S
H990 C996 0.930 . S
H991 C1000 0.930 . S
H992 C1005 0.929 . S
H993 C1003 0.929 . S
H994 C998 0.929 . S
H995 C1004 0.929 . S
C996 H990 0.930 . S
C996 C997 1.367 . S
C996 C1004 1.378 . S
C997 C996 1.367 . S
C997 C1005 1.433 . S
C998 H994 0.929 . S
C998 C1000 1.378 . S
C998 C1002 1.350 . S
C999 C1002 1.463 . S
C999 C1004 1.350 . S
C999 N1007 1.427 . S
C1000 H991 0.930 . S
C1000 C998 1.378 . S
C1000 C1001 1.367 . S
C1001 C1000 1.367 . S
C1001 C1003 1.433 . S
C1002 C998 1.350 . S
C1002 C999 1.463 . S
C1002 N1006 1.427 . S
C1003 H993 0.929 . S
C1003 C1001 1.433 . S
C1003 N1006 1.384 . S
C1004 H995 0.929 . S
C1004 C996 1.378 . S
C1004 C999 1.350 . S
C1005 H992 0.929 . S
C1005 C997 1.433 . S
C1005 N1007 1.384 . S
N1006 C1002 1.427 . S
N1006 C1003 1.384 . S
N1007 C999 1.427 . S
N1007 C1005 1.384 . S
H1008 C1014 0.930 . S
H1009 C1018 0.930 . S
H1010 C1023 0.929 . S
H1011 C1021 0.929 . S
H1012 C1016 0.929 . S
H1013 C1022 0.929 . S
C1014 H1008 0.930 . S
C1014 C1015 1.367 . S
C1014 C1022 1.378 . S
C1015 C1014 1.367 . S
C1015 C1023 1.433 . S
C1016 H1012 0.929 . S
C1016 C1018 1.378 . S
C1016 C1020 1.350 . S
C1017 C1020 1.463 . S
C1017 C1022 1.350 . S
C1017 N1025 1.427 . S
C1018 H1009 0.930 . S
C1018 C1016 1.378 . S
C1018 C1019 1.367 . S
C1019 C1018 1.367 . S
C1019 C1021 1.433 . S
C1020 C1016 1.350 . S
C1020 C1017 1.463 . S
C1020 N1024 1.427 . S
C1021 H1011 0.929 . S
C1021 C1019 1.433 . S
C1021 N1024 1.384 . S
C1022 H1013 0.929 . S
C1022 C1014 1.378 . S
C1022 C1017 1.350 . S
C1023 H1010 0.929 . S
C1023 C1015 1.433 . S
C1023 N1025 1.384 . S
N1024 C1020 1.427 . S
N1024 C1021 1.384 . S
N1025 C1017 1.427 . S
N1025 C1023 1.384 . S
H1026 C1032 0.930 . S
H1027 C1036 0.930 . S
H1028 C1041 0.929 . S
H1029 C1039 0.929 . S
H1030 C1034 0.929 . S
H1031 C1040 0.929 . S
C1032 H1026 0.930 . S
C1032 C1033 1.367 . S
C1032 C1040 1.378 . S
C1033 C1032 1.367 . S
C1033 C1041 1.433 . S
C1034 H1030 0.929 . S
C1034 C1036 1.378 . S
C1034 C1038 1.350 . S
C1035 C1038 1.463 1_456 S
C1035 C1040 1.350 . S
C1035 N1043 1.427 . S
C1036 H1027 0.930 . S
C1036 C1034 1.378 . S
C1036 C1037 1.367 . S
C1037 C1036 1.367 . S
C1037 C1039 1.433 . S
C1038 C1034 1.350 . S
C1038 C1035 1.463 1_654 S
C1038 N1042 1.427 . S
C1039 H1029 0.929 . S
C1039 C1037 1.433 . S
C1039 N1042 1.383 . S
C1040 H1031 0.929 . S
C1040 C1032 1.378 . S
C1040 C1035 1.350 . S
C1041 H1028 0.929 . S
C1041 C1033 1.433 . S
C1041 N1043 1.383 . S
N1042 C1038 1.427 . S
N1042 C1039 1.383 . S
N1043 C1035 1.427 . S
N1043 C1041 1.383 . S
H1044 C1050 0.930 . S
H1045 C1054 0.930 . S
H1046 C1059 0.929 . S
H1047 C1057 0.929 . S
H1048 C1052 0.929 . S
H1049 C1058 0.929 . S
C1050 H1044 0.930 . S
C1050 C1051 1.367 . S
C1050 C1058 1.378 . S
C1051 C1050 1.367 . S
C1051 C1059 1.433 . S
C1052 H1048 0.929 . S
C1052 C1054 1.378 . S
C1052 C1056 1.350 . S
C1053 C1056 1.463 1_556 S
C1053 C1058 1.350 . S
C1053 N1061 1.427 1_556 S
C1054 H1045 0.930 . S
C1054 C1052 1.378 . S
C1054 C1055 1.367 . S
C1055 C1054 1.367 . S
C1055 C1057 1.433 . S
C1056 C1052 1.350 . S
C1056 C1053 1.463 1_554 S
C1056 N1060 1.427 1_554 S
C1057 H1047 0.929 . S
C1057 C1055 1.433 . S
C1057 N1060 1.384 1_554 S
C1058 H1049 0.929 . S
C1058 C1050 1.378 . S
C1058 C1053 1.350 . S
C1059 H1046 0.929 . S
C1059 C1051 1.433 . S
C1059 N1061 1.384 1_556 S
N1060 C1056 1.427 1_556 S
N1060 C1057 1.384 1_556 S
N1061 C1053 1.427 1_554 S
N1061 C1059 1.384 1_554 S
H1062 C1068 0.930 . S
H1063 C1072 0.930 . S
H1064 C1077 0.929 1_556 S
H1065 C1075 0.929 1_554 S
H1066 C1070 0.929 . S
H1067 C1076 0.929 . S
C1068 H1062 0.930 . S
C1068 C1069 1.367 . S
C1068 C1076 1.378 . S
C1069 C1068 1.367 . S
C1069 C1077 1.433 . S
C1070 H1066 0.929 . S
C1070 C1072 1.378 . S
C1070 C1074 1.350 . S
C1071 C1074 1.463 1_544 S
C1071 C1076 1.350 . S
C1071 N1079 1.427 1_554 S
C1072 H1063 0.930 . S
C1072 C1070 1.378 . S
C1072 C1073 1.367 . S
C1073 C1072 1.367 . S
C1073 C1075 1.433 . S
C1074 C1070 1.350 . S
C1074 C1071 1.463 1_566 S
C1074 N1078 1.427 1_556 S
C1075 H1065 0.929 1_556 S
C1075 C1073 1.433 . S
C1075 N1078 1.384 1_556 S
C1076 H1067 0.929 . S
C1076 C1068 1.378 . S
C1076 C1071 1.350 . S
C1077 H1064 0.929 1_554 S
C1077 C1069 1.433 . S
C1077 N1079 1.384 1_554 S
N1078 C1074 1.427 1_554 S
N1078 C1075 1.384 1_554 S
N1079 C1071 1.427 1_556 S
N1079 C1077 1.384 1_556 S
H1080 C1086 0.930 . S
H1081 C1090 0.930 . S
H1082 C1095 0.929 . S
H1083 C1093 0.929 . S
H1084 C1088 0.929 . S
H1085 C1094 0.929 . S
C1086 H1080 0.930 . S
C1086 C1087 1.367 . S
C1086 C1094 1.378 . S
C1087 C1086 1.367 . S
C1087 C1095 1.433 . S
C1088 H1084 0.929 . S
C1088 C1090 1.378 . S
C1088 C1092 1.350 . S
C1089 C1092 1.463 . S
C1089 C1094 1.350 . S
C1089 N1097 1.427 . S
C1090 H1081 0.930 . S
C1090 C1088 1.378 . S
C1090 C1091 1.367 . S
C1091 C1090 1.367 . S
C1091 C1093 1.433 . S
C1092 C1088 1.350 . S
C1092 C1089 1.463 . S
C1092 N1096 1.427 . S
C1093 H1083 0.929 . S
C1093 C1091 1.433 . S
C1093 N1096 1.384 . S
C1094 H1085 0.929 . S
C1094 C1086 1.378 . S
C1094 C1089 1.350 . S
C1095 H1082 0.929 . S
C1095 C1087 1.433 . S
C1095 N1097 1.384 . S
N1096 C1092 1.427 . S
N1096 C1093 1.384 . S
N1097 C1089 1.427 . S
N1097 C1095 1.384 . S
H1098 C1104 0.930 . S
H1099 C1108 0.930 . S
H1100 C1113 0.929 . S
H1101 C1111 0.929 . S
H1102 C1106 0.929 . S
H1103 C1112 0.929 . S
C1104 H1098 0.930 . S
C1104 C1105 1.367 . S
C1104 C1112 1.378 . S
C1105 C1104 1.367 . S
C1105 C1113 1.433 . S
C1106 H1102 0.929 . S
C1106 C1108 1.378 . S
C1106 C1110 1.350 . S
C1107 C1110 1.463 1_545 S
C1107 C1112 1.350 . S
C1107 N1115 1.436 . S
C1108 H1099 0.930 . S
C1108 C1106 1.378 . S
C1108 C1109 1.367 . S
C1109 C1108 1.367 . S
C1109 C1111 1.433 . S
C1110 C1106 1.350 . S
C1110 C1107 1.463 1_565 S
C1110 N1114 1.436 . S
C1111 H1101 0.929 . S
C1111 C1109 1.433 . S
C1111 N1114 1.419 . S
C1112 H1103 0.929 . S
C1112 C1104 1.378 . S
C1112 C1107 1.350 . S
C1113 H1100 0.929 . S
C1113 C1105 1.433 . S
C1113 N1115 1.419 . S
N1114 C1110 1.436 . S
N1114 C1111 1.419 . S
N1115 C1107 1.436 . S
N1115 C1113 1.419 . S
H1116 C1122 0.930 . S
H1117 C1126 0.930 . S
H1118 C1131 0.929 . S
H1119 C1129 0.929 . S
H1120 C1124 0.929 . S
H1121 C1130 0.929 . S
C1122 H1116 0.930 . S
C1122 C1123 1.367 . S
C1122 C1130 1.378 . S
C1123 C1122 1.367 . S
C1123 C1131 1.433 . S
C1124 H1120 0.929 . S
C1124 C1126 1.378 . S
C1124 C1128 1.350 . S
C1125 C1128 1.463 1_455 S
C1125 C1130 1.350 . S
C1125 N1133 1.436 . S
C1126 H1117 0.930 . S
C1126 C1124 1.378 . S
C1126 C1127 1.367 . S
C1127 C1126 1.367 . S
C1127 C1129 1.433 . S
C1128 C1124 1.350 . S
C1128 C1125 1.463 1_655 S
C1128 N1132 1.436 . S
C1129 H1119 0.929 . S
C1129 C1127 1.433 . S
C1129 N1132 1.419 . S
C1130 H1121 0.929 . S
C1130 C1122 1.378 . S
C1130 C1125 1.350 . S
C1131 H1118 0.929 . S
C1131 C1123 1.433 . S
C1131 N1133 1.419 . S
N1132 C1128 1.436 . S
N1132 C1129 1.419 . S
N1133 C1125 1.436 . S
N1133 C1131 1.419 . S
H1134 C1140 0.930 . S
H1135 C1144 0.930 . S
H1136 C1149 0.929 . S
H1137 C1147 0.929 . S
H1138 C1142 0.929 . S
H1139 C1148 0.929 . S
C1140 H1134 0.930 . S
C1140 C1141 1.367 . S
C1140 C1148 1.378 . S
C1141 C1140 1.367 . S
C1141 C1149 1.433 . S
C1142 H1138 0.929 . S
C1142 C1144 1.378 . S
C1142 C1146 1.350 . S
C1143 C1146 1.463 . S
C1143 C1148 1.350 . S
C1143 N1151 1.427 . S
C1144 H1135 0.930 . S
C1144 C1142 1.378 . S
C1144 C1145 1.367 . S
C1145 C1144 1.367 . S
C1145 C1147 1.433 . S
C1146 C1142 1.350 . S
C1146 C1143 1.463 . S
C1146 N1150 1.427 . S
C1147 H1137 0.929 . S
C1147 C1145 1.433 . S
C1147 N1150 1.384 . S
C1148 H1139 0.929 . S
C1148 C1140 1.378 . S
C1148 C1143 1.350 . S
C1149 H1136 0.929 . S
C1149 C1141 1.433 . S
C1149 N1151 1.384 . S
N1150 C1146 1.427 . S
N1150 C1147 1.384 . S
N1151 C1143 1.427 . S
N1151 C1149 1.384 . S
H1152 C1158 0.930 . S
H1153 C1162 0.930 . S
H1154 C1167 0.929 . S
H1155 C1165 0.929 . S
H1156 C1160 0.929 . S
H1157 C1166 0.929 . S
C1158 H1152 0.930 . S
C1158 C1159 1.367 . S
C1158 C1166 1.378 . S
C1159 C1158 1.367 . S
C1159 C1167 1.433 . S
C1160 H1156 0.929 . S
C1160 C1162 1.378 . S
C1160 C1164 1.350 . S
C1161 C1164 1.463 1_565 S
C1161 C1166 1.350 . S
C1161 N1169 1.427 . S
C1162 H1153 0.930 . S
C1162 C1160 1.378 . S
C1162 C1163 1.367 . S
C1163 C1162 1.367 . S
C1163 C1165 1.433 . S
C1164 C1160 1.350 . S
C1164 C1161 1.463 1_545 S
C1164 N1168 1.427 . S
C1165 H1155 0.929 . S
C1165 C1163 1.433 . S
C1165 N1168 1.384 . S
C1166 H1157 0.929 . S
C1166 C1158 1.378 . S
C1166 C1161 1.350 . S
C1167 H1154 0.929 . S
C1167 C1159 1.433 . S
C1167 N1169 1.384 . S
N1168 C1164 1.427 . S
N1168 C1165 1.384 . S
N1169 C1161 1.427 . S
N1169 C1167 1.384 . S
H1170 C1176 0.930 . S
H1171 C1180 0.930 . S
H1172 C1185 0.929 . S
H1173 C1183 0.929 . S
H1174 C1178 0.929 . S
H1175 C1184 0.929 . S
C1176 H1170 0.930 . S
C1176 C1177 1.367 . S
C1176 C1184 1.378 . S
C1177 C1176 1.367 . S
C1177 C1185 1.433 . S
C1178 H1174 0.929 . S
C1178 C1180 1.378 . S
C1178 C1182 1.350 . S
C1179 C1182 1.463 1_655 S
C1179 C1184 1.350 . S
C1179 N1187 1.427 . S
C1180 H1171 0.930 . S
C1180 C1178 1.378 . S
C1180 C1181 1.367 . S
C1181 C1180 1.367 . S
C1181 C1183 1.433 . S
C1182 C1178 1.350 . S
C1182 C1179 1.463 1_455 S
C1182 N1186 1.427 . S
C1183 H1173 0.929 . S
C1183 C1181 1.433 . S
C1183 N1186 1.384 . S
C1184 H1175 0.929 . S
C1184 C1176 1.378 . S
C1184 C1179 1.350 . S
C1185 H1172 0.929 . S
C1185 C1177 1.433 . S
C1185 N1187 1.384 . S
N1186 C1182 1.427 . S
N1186 C1183 1.384 . S
N1187 C1179 1.427 . S
N1187 C1185 1.384 . S
H1188 C1194 0.930 . S
H1189 C1198 0.930 . S
H1190 C1203 0.929 . S
H1191 C1201 0.929 . S
H1192 C1196 0.929 . S
H1193 C1202 0.929 . S
C1194 H1188 0.930 . S
C1194 C1195 1.367 . S
C1194 C1202 1.378 . S
C1195 C1194 1.367 . S
C1195 C1203 1.433 . S
C1196 H1192 0.929 . S
C1196 C1198 1.378 . S
C1196 C1200 1.350 . S
C1197 C1200 1.463 . S
C1197 C1202 1.350 . S
C1197 N1205 1.427 . S
C1198 H1189 0.930 . S
C1198 C1196 1.378 . S
C1198 C1199 1.367 . S
C1199 C1198 1.367 . S
C1199 C1201 1.433 . S
C1200 C1196 1.350 . S
C1200 C1197 1.463 . S
C1200 N1204 1.427 . S
C1201 H1191 0.929 . S
C1201 C1199 1.433 . S
C1201 N1204 1.384 . S
C1202 H1193 0.929 . S
C1202 C1194 1.378 . S
C1202 C1197 1.350 . S
C1203 H1190 0.929 . S
C1203 C1195 1.433 . S
C1203 N1205 1.384 . S
N1204 C1200 1.427 . S
N1204 C1201 1.384 . S
N1205 C1197 1.427 . S
N1205 C1203 1.384 . S
H1206 C1212 0.930 . S
H1207 C1216 0.930 . S
H1208 C1221 0.929 . S
H1209 C1219 0.929 . S
H1210 C1214 0.929 . S
H1211 C1220 0.929 . S
C1212 H1206 0.930 . S
C1212 C1213 1.367 . S
C1212 C1220 1.378 . S
C1213 C1212 1.367 . S
C1213 C1221 1.433 . S
C1214 H1210 0.929 . S
C1214 C1216 1.378 . S
C1214 C1218 1.350 . S
C1215 C1218 1.463 . S
C1215 C1220 1.350 . S
C1215 N1223 1.427 . S
C1216 H1207 0.930 . S
C1216 C1214 1.378 . S
C1216 C1217 1.367 . S
C1217 C1216 1.367 . S
C1217 C1219 1.433 . S
C1218 C1214 1.350 . S
C1218 C1215 1.463 . S
C1218 N1222 1.427 . S
C1219 H1209 0.929 . S
C1219 C1217 1.433 . S
C1219 N1222 1.384 . S
C1220 H1211 0.929 . S
C1220 C1212 1.378 . S
C1220 C1215 1.350 . S
C1221 H1208 0.929 . S
C1221 C1213 1.433 . S
C1221 N1223 1.384 . S
N1222 C1218 1.427 . S
N1222 C1219 1.384 . S
N1223 C1215 1.427 . S
N1223 C1221 1.384 . S
H1224 C1230 0.930 . S
H1225 C1234 0.930 . S
H1226 C1239 0.929 . S
H1227 C1237 0.929 . S
H1228 C1232 0.929 . S
H1229 C1238 0.929 . S
C1230 H1224 0.930 . S
C1230 C1231 1.367 . S
C1230 C1238 1.378 . S
C1231 C1230 1.367 . S
C1231 C1239 1.433 . S
C1232 H1228 0.929 . S
C1232 C1234 1.378 . S
C1232 C1236 1.350 . S
C1233 C1236 1.463 . S
C1233 C1238 1.350 . S
C1233 N1241 1.427 . S
C1234 H1225 0.930 . S
C1234 C1232 1.378 . S
C1234 C1235 1.367 . S
C1235 C1234 1.367 . S
C1235 C1237 1.433 . S
C1236 C1232 1.350 . S
C1236 C1233 1.463 . S
C1236 N1240 1.427 . S
C1237 H1227 0.929 . S
C1237 C1235 1.433 . S
C1237 N1240 1.384 . S
C1238 H1229 0.929 . S
C1238 C1230 1.378 . S
C1238 C1233 1.350 . S
C1239 H1226 0.929 . S
C1239 C1231 1.433 . S
C1239 N1241 1.384 . S
N1240 C1236 1.427 . S
N1240 C1237 1.384 . S
N1241 C1233 1.427 . S
N1241 C1239 1.384 . S
H1242 C1248 0.930 . S
H1243 C1252 0.930 . S
H1244 C1257 0.929 . S
H1245 C1255 0.929 . S
H1246 C1250 0.929 . S
H1247 C1256 0.929 . S
C1248 H1242 0.930 . S
C1248 C1249 1.367 . S
C1248 C1256 1.378 . S
C1249 C1248 1.367 . S
C1249 C1257 1.433 . S
C1250 H1246 0.929 . S
C1250 C1252 1.378 . S
C1250 C1254 1.350 . S
C1251 C1254 1.463 . S
C1251 C1256 1.350 . S
C1251 N1259 1.427 . S
C1252 H1243 0.930 . S
C1252 C1250 1.378 . S
C1252 C1253 1.367 . S
C1253 C1252 1.367 . S
C1253 C1255 1.433 . S
C1254 C1250 1.350 . S
C1254 C1251 1.463 . S
C1254 N1258 1.427 . S
C1255 H1245 0.929 . S
C1255 C1253 1.433 . S
C1255 N1258 1.384 . S
C1256 H1247 0.929 . S
C1256 C1248 1.378 . S
C1256 C1251 1.350 . S
C1257 H1244 0.929 . S
C1257 C1249 1.433 . S
C1257 N1259 1.384 . S
N1258 C1254 1.427 . S
N1258 C1255 1.384 . S
N1259 C1251 1.427 . S
N1259 C1257 1.384 . S
H1260 C1266 0.930 . S
H1261 C1270 0.930 . S
H1262 C1275 0.929 . S
H1263 C1273 0.929 . S
H1264 C1268 0.929 . S
H1265 C1274 0.929 . S
C1266 H1260 0.930 . S
C1266 C1267 1.367 . S
C1266 C1274 1.378 . S
C1267 C1266 1.367 . S
C1267 C1275 1.433 . S
C1268 H1264 0.929 . S
C1268 C1270 1.378 . S
C1268 C1272 1.350 . S
C1269 C1272 1.463 . S
C1269 C1274 1.350 . S
C1269 N1277 1.427 . S
C1270 H1261 0.930 . S
C1270 C1268 1.378 . S
C1270 C1271 1.367 . S
C1271 C1270 1.367 . S
C1271 C1273 1.433 . S
C1272 C1268 1.350 . S
C1272 C1269 1.463 . S
C1272 N1276 1.427 . S
C1273 H1263 0.929 . S
C1273 C1271 1.433 . S
C1273 N1276 1.384 . S
C1274 H1265 0.929 . S
C1274 C1266 1.378 . S
C1274 C1269 1.350 . S
C1275 H1262 0.929 . S
C1275 C1267 1.433 . S
C1275 N1277 1.384 . S
N1276 C1272 1.427 . S
N1276 C1273 1.384 . S
N1277 C1269 1.427 . S
N1277 C1275 1.384 . S
H1278 C1284 0.930 . S
H1279 C1288 0.930 . S
H1280 C1293 0.929 . S
H1281 C1291 0.929 . S
H1282 C1286 0.929 . S
H1283 C1292 0.929 . S
C1284 H1278 0.930 . S
C1284 C1285 1.367 . S
C1284 C1292 1.378 . S
C1285 C1284 1.367 . S
C1285 C1293 1.433 . S
C1286 H1282 0.929 . S
C1286 C1288 1.378 . S
C1286 C1290 1.350 . S
C1287 C1290 1.463 . S
C1287 C1292 1.350 . S
C1287 N1295 1.427 . S
C1288 H1279 0.930 . S
C1288 C1286 1.378 . S
C1288 C1289 1.367 . S
C1289 C1288 1.367 . S
C1289 C1291 1.433 . S
C1290 C1286 1.350 . S
C1290 C1287 1.463 . S
C1290 N1294 1.427 . S
C1291 H1281 0.929 . S
C1291 C1289 1.433 . S
C1291 N1294 1.384 . S
C1292 H1283 0.929 . S
C1292 C1284 1.378 . S
C1292 C1287 1.350 . S
C1293 H1280 0.929 . S
C1293 C1285 1.433 . S
C1293 N1295 1.384 . S
N1294 C1290 1.427 . S
N1294 C1291 1.384 . S
N1295 C1287 1.427 . S
N1295 C1293 1.384 . S
H1296 C1302 0.930 . S
H1297 C1306 0.930 . S
H1298 C1311 0.929 . S
H1299 C1309 0.929 . S
H1300 C1304 0.929 . S
H1301 C1310 0.929 . S
C1302 H1296 0.930 . S
C1302 C1303 1.367 . S
C1302 C1310 1.378 . S
C1303 C1302 1.367 . S
C1303 C1311 1.433 . S
C1304 H1300 0.929 . S
C1304 C1306 1.378 . S
C1304 C1308 1.350 . S
C1305 C1308 1.463 . S
C1305 C1310 1.350 . S
C1305 N1313 1.427 . S
C1306 H1297 0.930 . S
C1306 C1304 1.378 . S
C1306 C1307 1.367 . S
C1307 C1306 1.367 . S
C1307 C1309 1.433 . S
C1308 C1304 1.350 . S
C1308 C1305 1.463 . S
C1308 N1312 1.427 . S
C1309 H1299 0.929 . S
C1309 C1307 1.433 . S
C1309 N1312 1.384 . S
C1310 H1301 0.929 . S
C1310 C1302 1.378 . S
C1310 C1305 1.350 . S
C1311 H1298 0.929 . S
C1311 C1303 1.433 . S
C1311 N1313 1.384 . S
N1312 C1308 1.427 . S
N1312 C1309 1.384 . S
N1313 C1305 1.427 . S
N1313 C1311 1.384 . S
H1314 C1320 0.930 . S
H1315 C1324 0.930 . S
H1316 C1329 0.929 . S
H1317 C1327 0.929 . S
H1318 C1322 0.929 . S
H1319 C1328 0.929 . S
C1320 H1314 0.930 . S
C1320 C1321 1.367 . S
C1320 C1328 1.378 . S
C1321 C1320 1.367 . S
C1321 C1329 1.433 . S
C1322 H1318 0.929 . S
C1322 C1324 1.378 . S
C1322 C1326 1.350 . S
C1323 C1326 1.463 . S
C1323 C1328 1.350 . S
C1323 N1331 1.427 . S
C1324 H1315 0.930 . S
C1324 C1322 1.378 . S
C1324 C1325 1.367 . S
C1325 C1324 1.367 . S
C1325 C1327 1.433 . S
C1326 C1322 1.350 . S
C1326 C1323 1.463 . S
C1326 N1330 1.427 . S
C1327 H1317 0.929 . S
C1327 C1325 1.433 . S
C1327 N1330 1.384 . S
C1328 H1319 0.929 . S
C1328 C1320 1.378 . S
C1328 C1323 1.350 . S
C1329 H1316 0.929 . S
C1329 C1321 1.433 . S
C1329 N1331 1.384 . S
N1330 C1326 1.427 . S
N1330 C1327 1.384 . S
N1331 C1323 1.427 . S
N1331 C1329 1.384 . S
H1332 C1338 0.930 . S
H1333 C1342 0.930 . S
H1334 C1347 0.929 . S
H1335 C1345 0.929 . S
H1336 C1340 0.929 . S
H1337 C1346 0.929 . S
C1338 H1332 0.930 . S
C1338 C1339 1.367 . S
C1338 C1346 1.378 . S
C1339 C1338 1.367 . S
C1339 C1347 1.433 . S
C1340 H1336 0.929 . S
C1340 C1342 1.378 . S
C1340 C1344 1.350 . S
C1341 C1344 1.463 . S
C1341 C1346 1.350 . S
C1341 N1349 1.427 . S
C1342 H1333 0.930 . S
C1342 C1340 1.378 . S
C1342 C1343 1.367 . S
C1343 C1342 1.367 . S
C1343 C1345 1.433 . S
C1344 C1340 1.350 . S
C1344 C1341 1.463 . S
C1344 N1348 1.427 . S
C1345 H1335 0.929 . S
C1345 C1343 1.433 . S
C1345 N1348 1.384 . S
C1346 H1337 0.929 . S
C1346 C1338 1.378 . S
C1346 C1341 1.350 . S
C1347 H1334 0.929 . S
C1347 C1339 1.433 . S
C1347 N1349 1.384 . S
N1348 C1344 1.427 . S
N1348 C1345 1.384 . S
N1349 C1341 1.427 . S
N1349 C1347 1.384 . S
H1350 C1356 0.930 . S
H1351 C1360 0.930 . S
H1352 C1365 0.929 . S
H1353 C1363 0.929 . S
H1354 C1358 0.929 . S
H1355 C1364 0.929 . S
C1356 H1350 0.930 . S
C1356 C1357 1.367 . S
C1356 C1364 1.378 . S
C1357 C1356 1.367 . S
C1357 C1365 1.433 . S
C1358 H1354 0.929 . S
C1358 C1360 1.378 . S
C1358 C1362 1.350 . S
C1359 C1362 1.463 . S
C1359 C1364 1.350 . S
C1359 N1367 1.427 . S
C1360 H1351 0.930 . S
C1360 C1358 1.378 . S
C1360 C1361 1.367 . S
C1361 C1360 1.367 . S
C1361 C1363 1.433 . S
C1362 C1358 1.350 . S
C1362 C1359 1.463 . S
C1362 N1366 1.427 . S
C1363 H1353 0.929 . S
C1363 C1361 1.433 . S
C1363 N1366 1.384 . S
C1364 H1355 0.929 . S
C1364 C1356 1.378 . S
C1364 C1359 1.350 . S
C1365 H1352 0.929 . S
C1365 C1357 1.433 . S
C1365 N1367 1.384 . S
N1366 C1362 1.427 . S
N1366 C1363 1.384 . S
N1367 C1359 1.427 . S
N1367 C1365 1.384 . S
H1368 C1374 0.930 . S
H1369 C1378 0.930 . S
H1370 C1383 0.929 . S
H1371 C1381 0.929 . S
H1372 C1376 0.929 . S
H1373 C1382 0.929 . S
C1374 H1368 0.930 . S
C1374 C1375 1.367 . S
C1374 C1382 1.378 . S
C1375 C1374 1.367 . S
C1375 C1383 1.433 . S
C1376 H1372 0.929 . S
C1376 C1378 1.378 . S
C1376 C1380 1.350 . S
C1377 C1380 1.463 . S
C1377 C1382 1.350 . S
C1377 N1385 1.427 . S
C1378 H1369 0.930 . S
C1378 C1376 1.378 . S
C1378 C1379 1.367 . S
C1379 C1378 1.367 . S
C1379 C1381 1.433 . S
C1380 C1376 1.350 . S
C1380 C1377 1.463 . S
C1380 N1384 1.427 . S
C1381 H1371 0.929 . S
C1381 C1379 1.433 . S
C1381 N1384 1.384 . S
C1382 H1373 0.929 . S
C1382 C1374 1.378 . S
C1382 C1377 1.350 . S
C1383 H1370 0.929 . S
C1383 C1375 1.433 . S
C1383 N1385 1.384 . S
N1384 C1380 1.427 . S
N1384 C1381 1.384 . S
N1385 C1377 1.427 . S
N1385 C1383 1.384 . S
H1386 C1392 0.930 . S
H1387 C1396 0.930 . S
H1388 C1401 0.929 . S
H1389 C1399 0.929 . S
H1390 C1394 0.929 . S
H1391 C1400 0.929 . S
C1392 H1386 0.930 . S
C1392 C1393 1.367 . S
C1392 C1400 1.378 . S
C1393 C1392 1.367 . S
C1393 C1401 1.433 . S
C1394 H1390 0.929 . S
C1394 C1396 1.378 . S
C1394 C1398 1.350 . S
C1395 C1398 1.463 . S
C1395 C1400 1.350 . S
C1395 N1403 1.427 . S
C1396 H1387 0.930 . S
C1396 C1394 1.378 . S
C1396 C1397 1.367 . S
C1397 C1396 1.367 . S
C1397 C1399 1.433 . S
C1398 C1394 1.350 . S
C1398 C1395 1.463 . S
C1398 N1402 1.427 . S
C1399 H1389 0.929 . S
C1399 C1397 1.433 . S
C1399 N1402 1.384 . S
C1400 H1391 0.929 . S
C1400 C1392 1.378 . S
C1400 C1395 1.350 . S
C1401 H1388 0.929 . S
C1401 C1393 1.433 . S
C1401 N1403 1.384 . S
N1402 C1398 1.427 . S
N1402 C1399 1.384 . S
N1403 C1395 1.427 . S
N1403 C1401 1.384 . S
C601 N112 1.115 . S
C605 N13 1.110 . S
C619 N145 1.130 . S
C623 N46 1.129 . S
C637 N79 1.108 . S
C641 N178 1.110 . S
C655 C51 2.241 . S
C659 C183 2.242 . S
C673 C117 2.242 . S
C677 C84 2.244 . S
C691 C150 2.241 . S
C695 C18 2.243 . S
C709 N211 1.111 . S
C713 N310 1.116 . S
C727 N343 1.108 . S
C731 N244 1.110 . S
C745 N277 1.108 . S
C749 N376 1.110 . S
C763 C381 2.241 . S
C767 C249 2.243 . S
C781 C315 2.242 . S
C785 C282 2.241 . S
C799 C348 2.241 . S
C803 C216 2.243 . S
C817 N508 1.110 . S
C821 N409 1.108 . S
C835 N442 1.108 . S
C839 N541 1.109 . S
C853 N574 1.122 . S
C857 N475 1.127 . S
C871 C447 2.243 . S
C875 C579 2.243 . S
C889 C513 2.242 . S
C893 C480 2.244 . S
C907 C414 2.244 . S
C911 C546 2.242 . S
C925 C582 1.410 . S
C929 C21 1.410 . S
C943 C54 1.412 . S
C947 C516 1.412 . S
C961 C549 1.415 . S
C965 C87 1.415 . S
C979 C252 1.413 . S
C983 C120 1.413 . S
C997 C153 1.416 . S
C1001 C285 1.416 . S
C1015 C186 1.412 . S
C1019 C219 1.412 . S
C1033 C450 1.414 . S
C1037 C318 1.414 . S
C1051 C483 1.413 . S
C1055 C351 1.414 . S
C1069 C384 1.415 . S
C1073 C417 1.415 . S
C1087 C7 1.941 . S
C1091 C106 1.939 . S
C1105 C139 1.940 . S
C1109 C40 1.939 . S
C1123 C73 1.940 . S
C1127 C172 1.939 . S
C1141 N167 0.743 . S
C1145 N35 0.749 . S
C1159 N68 0.773 . S
C1163 N101 0.772 . S
C1177 N134 0.762 . S
C1181 N2 0.769 . S
C1195 C205 1.945 . S
C1199 C304 1.946 . S
C1213 C337 1.940 . S
C1217 C238 1.939 . S
C1231 C370 1.939 . S
C1235 C271 1.941 . S
C1249 N365 0.769 . S
C1253 N233 0.763 . S
C1267 N299 0.766 . S
C1271 N266 0.758 . S
C1285 N332 0.764 . S
C1289 N200 0.770 . S
C1303 C502 1.943 . S
C1307 C403 1.940 . S
C1321 C535 1.944 . S
C1325 C436 1.946 . S
C1339 C568 1.946 . S
C1343 C469 1.943 . S
C1357 N563 0.756 . S
C1361 N431 0.764 . S
C1375 N497 0.741 . S
C1379 N464 0.748 . S
C1393 N530 0.771 . S
C1397 N398 0.765 . S
