# Generated by pormake.
# Topology umc, (4)-cn, num edge types: 1
# Building blocks:
#     Node 0, Type 0, BuildingBlock: QUQFOY_clean_sbu_1, # of connection points: 4
#     Node 1, Type 0, BuildingBlock: QUQFOY_clean_sbu_1, # of connection points: 4
#     Node 2, Type 0, BuildingBlock: QUQFOY_clean_sbu_1, # of connection points: 4
#     Node 3, Type 0, BuildingBlock: QUQFOY_clean_sbu_1, # of connection points: 4
#     Node 4, Type 0, BuildingBlock: QUQFOY_clean_sbu_1, # of connection points: 4
#     Node 5, Type 0, BuildingBlock: QUQFOY_clean_sbu_1, # of connection points: 4
#     Node 6, Type 0, BuildingBlock: QUQFOY_clean_sbu_1, # of connection points: 4
#     Node 7, Type 0, BuildingBlock: QUQFOY_clean_sbu_1, # of connection points: 4
#     Node 8, Type 0, BuildingBlock: QUQFOY_clean_sbu_1, # of connection points: 4
#     Node 9, Type 0, BuildingBlock: QUQFOY_clean_sbu_1, # of connection points: 4
#     Node 10, Type 0, BuildingBlock: QUQFOY_clean_sbu_1, # of connection points: 4
#     Node 11, Type 0, BuildingBlock: QUQFOY_clean_sbu_1, # of connection points: 4
#     Node 12, Type 0, BuildingBlock: QUQFOY_clean_sbu_1, # of connection points: 4
#     Node 13, Type 0, BuildingBlock: QUQFOY_clean_sbu_1, # of connection points: 4
#     Node 14, Type 0, BuildingBlock: QUQFOY_clean_sbu_1, # of connection points: 4
#     Node 15, Type 0, BuildingBlock: QUQFOY_clean_sbu_1, # of connection points: 4
#     Edge 16, Type (0, 0), BuildingBlock: MIFKUJ_clean_linker_0, # of connection points: 2
#     Edge 17, Type (0, 0), BuildingBlock: MIFKUJ_clean_linker_0, # of connection points: 2
#     Edge 18, Type (0, 0), BuildingBlock: MIFKUJ_clean_linker_0, # of connection points: 2
#     Edge 19, Type (0, 0), BuildingBlock: MIFKUJ_clean_linker_0, # of connection points: 2
#     Edge 20, Type (0, 0), BuildingBlock: MIFKUJ_clean_linker_0, # of connection points: 2
#     Edge 21, Type (0, 0), BuildingBlock: MIFKUJ_clean_linker_0, # of connection points: 2
#     Edge 22, Type (0, 0), BuildingBlock: MIFKUJ_clean_linker_0, # of connection points: 2
#     Edge 23, Type (0, 0), BuildingBlock: MIFKUJ_clean_linker_0, # of connection points: 2
#     Edge 24, Type (0, 0), BuildingBlock: MIFKUJ_clean_linker_0, # of connection points: 2
#     Edge 25, Type (0, 0), BuildingBlock: MIFKUJ_clean_linker_0, # of connection points: 2
#     Edge 26, Type (0, 0), BuildingBlock: MIFKUJ_clean_linker_0, # of connection points: 2
#     Edge 27, Type (0, 0), BuildingBlock: MIFKUJ_clean_linker_0, # of connection points: 2
#     Edge 28, Type (0, 0), BuildingBlock: MIFKUJ_clean_linker_0, # of connection points: 2
#     Edge 29, Type (0, 0), BuildingBlock: MIFKUJ_clean_linker_0, # of connection points: 2
#     Edge 30, Type (0, 0), BuildingBlock: MIFKUJ_clean_linker_0, # of connection points: 2
#     Edge 31, Type (0, 0), BuildingBlock: MIFKUJ_clean_linker_0, # of connection points: 2
#     Edge 32, Type (0, 0), BuildingBlock: MIFKUJ_clean_linker_0, # of connection points: 2
#     Edge 33, Type (0, 0), BuildingBlock: MIFKUJ_clean_linker_0, # of connection points: 2
#     Edge 34, Type (0, 0), BuildingBlock: MIFKUJ_clean_linker_0, # of connection points: 2
#     Edge 35, Type (0, 0), BuildingBlock: MIFKUJ_clean_linker_0, # of connection points: 2
#     Edge 36, Type (0, 0), BuildingBlock: MIFKUJ_clean_linker_0, # of connection points: 2
#     Edge 37, Type (0, 0), BuildingBlock: MIFKUJ_clean_linker_0, # of connection points: 2
#     Edge 38, Type (0, 0), BuildingBlock: MIFKUJ_clean_linker_0, # of connection points: 2
#     Edge 39, Type (0, 0), BuildingBlock: MIFKUJ_clean_linker_0, # of connection points: 2
#     Edge 40, Type (0, 0), BuildingBlock: MIFKUJ_clean_linker_0, # of connection points: 2
#     Edge 41, Type (0, 0), BuildingBlock: MIFKUJ_clean_linker_0, # of connection points: 2
#     Edge 42, Type (0, 0), BuildingBlock: MIFKUJ_clean_linker_0, # of connection points: 2
#     Edge 43, Type (0, 0), BuildingBlock: MIFKUJ_clean_linker_0, # of connection points: 2
#     Edge 44, Type (0, 0), BuildingBlock: MIFKUJ_clean_linker_0, # of connection points: 2
#     Edge 45, Type (0, 0), BuildingBlock: MIFKUJ_clean_linker_0, # of connection points: 2
#     Edge 46, Type (0, 0), BuildingBlock: MIFKUJ_clean_linker_0, # of connection points: 2
#     Edge 47, Type (0, 0), BuildingBlock: MIFKUJ_clean_linker_0, # of connection points: 2
# Relax obj value: 0.041
# Max RMSD: 0.117
# Mean RMSD: 0.117
data_MOF--net-umc--node1-QUQFOY_clean_sbu_1--edge1-MIFKUJ_clean_linker_0
_symmetry_space_group_name_H-M    P1
_symmetry_Int_Tables_number       1
_symmetry_cell_setting            triclinic
loop_
_symmetry_equiv_pos_as_xyz
'x, y, z'
_cell_length_a     52.789738
_cell_length_b     52.477915
_cell_length_c     74.312316
_cell_angle_alpha  89.941998
_cell_angle_beta   89.984185
_cell_angle_gamma 90.043063
loop_
_atom_site_label
_atom_site_type_symbol
_atom_site_fract_x
_atom_site_fract_y
_atom_site_fract_z
_atom_type_partial_charge
O0 O 0.32684 0.09754 0.40763 0.0
Cd1 Cd 0.33911 0.10646 0.38202 0.0
Cd2 Cd 0.32134 0.05935 0.3762 0.0
O3 O 0.30604 0.06201 0.40188 0.0
O4 O 0.34202 0.1445 0.38203 0.0
O5 O 0.31387 0.1237 0.36566 0.0
C6 C 0.32286 0.14518 0.37127 0.0
C7 C 0.29925 0.04852 0.35008 0.0
C8 C 0.31276 0.07932 0.41289 0.0
C9 C 0.3777 0.06694 0.37306 0.0
O10 O 0.35943 0.05132 0.37471 0.0
O11 O 0.37365 0.09084 0.37405 0.0
O12 O 0.30443 0.03168 0.36221 0.0
O13 O 0.305 0.07199 0.35345 0.0
O14 O 0.67848 0.92416 0.40846 0.0
Cd15 Cd 0.66481 0.91551 0.38313 0.0
Cd16 Cd 0.684 0.96191 0.37693 0.0
O17 O 0.7007 0.9586 0.4021 0.0
O18 O 0.66108 0.87751 0.38366 0.0
O19 O 0.68853 0.89739 0.36612 0.0
C20 C 0.67952 0.87623 0.3723 0.0
C21 C 0.70493 0.97008 0.34987 0.0
C22 C 0.69366 0.94168 0.41332 0.0
C23 C 0.62734 0.95641 0.375 0.0
O24 O 0.64617 0.97135 0.37657 0.0
O25 O 0.63062 0.93236 0.37559 0.0
O26 O 0.70149 0.98788 0.36161 0.0
O27 O 0.69803 0.94722 0.35412 0.0
O28 O 0.32968 0.92078 0.1109 0.0
Cd29 Cd 0.34003 0.9123 0.13703 0.0
Cd30 Cd 0.3215 0.9593 0.14197 0.0
O31 O 0.30735 0.95556 0.11601 0.0
O32 O 0.34181 0.87413 0.13859 0.0
O33 O 0.31267 0.89702 0.15253 0.0
C34 C 0.32155 0.87489 0.14831 0.0
C35 C 0.29854 0.96961 0.1678 0.0
C36 C 0.3153 0.9385 0.10521 0.0
C37 C 0.37765 0.95233 0.14681 0.0
O38 O 0.35943 0.96769 0.14417 0.0
O39 O 0.3738 0.92836 0.14623 0.0
O40 O 0.30371 0.98668 0.15581 0.0
O41 O 0.3047 0.94629 0.16436 0.0
O42 O 0.67655 0.09382 0.10924 0.0
Cd43 Cd 0.6649 0.10235 0.13511 0.0
Cd44 Cd 0.68379 0.05584 0.14068 0.0
O45 O 0.69893 0.05932 0.11502 0.0
O46 O 0.66148 0.14035 0.13539 0.0
O47 O 0.69039 0.11972 0.15119 0.0
C48 C 0.68092 0.14115 0.1459 0.0
C49 C 0.70631 0.04563 0.1667 0.0
C50 C 0.69134 0.07621 0.10397 0.0
C51 C 0.6275 0.06192 0.14471 0.0
O52 O 0.64594 0.0467 0.1424 0.0
O53 O 0.63113 0.0859 0.14392 0.0
O54 O 0.70156 0.02866 0.15459 0.0
O55 O 0.6999 0.06892 0.16334 0.0
O56 O 0.67881 0.92191 0.60894 0.0
Cd57 Cd 0.66683 0.91355 0.63477 0.0
Cd58 Cd 0.68552 0.96013 0.64051 0.0
O59 O 0.7014 0.9562 0.6151 0.0
O60 O 0.66443 0.87543 0.63628 0.0
O61 O 0.69318 0.89796 0.65094 0.0
C62 C 0.6842 0.87594 0.64649 0.0
C63 C 0.70709 0.97072 0.6669 0.0
C64 C 0.69394 0.93943 0.60392 0.0
C65 C 0.62916 0.95401 0.64359 0.0
O66 O 0.64764 0.96921 0.64137 0.0
O67 O 0.63285 0.93001 0.64322 0.0
O68 O 0.70287 0.98753 0.65457 0.0
O69 O 0.7007 0.94741 0.6636 0.0
O70 O 0.32924 0.09608 0.6103 0.0
Cd71 Cd 0.34129 0.10444 0.63605 0.0
Cd72 Cd 0.32252 0.0577 0.6415 0.0
O73 O 0.30743 0.06108 0.6158 0.0
O74 O 0.34398 0.14252 0.6365 0.0
O75 O 0.31585 0.12108 0.65251 0.0
C76 C 0.32469 0.14277 0.64717 0.0
C77 C 0.29995 0.04733 0.66752 0.0
C78 C 0.31473 0.07831 0.60489 0.0
C79 C 0.37904 0.06415 0.64496 0.0
O80 O 0.36047 0.04896 0.64307 0.0
O81 O 0.37548 0.08815 0.64417 0.0
O82 O 0.30484 0.03037 0.65543 0.0
O83 O 0.30632 0.07064 0.66417 0.0
O84 O 0.67667 0.09485 0.90789 0.0
Cd85 Cd 0.66419 0.10365 0.88229 0.0
Cd86 Cd 0.68253 0.05681 0.87641 0.0
O87 O 0.69842 0.06002 0.90187 0.0
O88 O 0.66144 0.14175 0.88212 0.0
O89 O 0.68931 0.12066 0.86572 0.0
C90 C 0.68051 0.14223 0.87126 0.0
C91 C 0.70422 0.04765 0.84982 0.0
C92 C 0.69135 0.07705 0.91299 0.0
C93 C 0.62607 0.06357 0.87352 0.0
O94 O 0.6445 0.04821 0.87533 0.0
O95 O 0.62989 0.08754 0.87425 0.0
O96 O 0.69982 0.03013 0.86164 0.0
O97 O 0.69788 0.07076 0.85375 0.0
O98 O 0.32702 0.92204 0.90703 0.0
Cd99 Cd 0.33797 0.91413 0.88094 0.0
Cd100 Cd 0.31936 0.9611 0.87625 0.0
O101 O 0.30488 0.95701 0.90207 0.0
O102 O 0.34067 0.87604 0.87922 0.0
O103 O 0.31125 0.8984 0.86512 0.0
C104 C 0.32062 0.87645 0.86928 0.0
C105 C 0.29671 0.97097 0.85022 0.0
C106 C 0.31262 0.93971 0.91277 0.0
C107 C 0.37559 0.95461 0.87193 0.0
O108 O 0.35725 0.96985 0.87449 0.0
O109 O 0.37181 0.93062 0.87224 0.0
O110 O 0.3015 0.98819 0.86216 0.0
O111 O 0.30312 0.94776 0.85379 0.0
O112 O 0.82071 0.59405 0.40832 0.0
Cd113 Cd 0.83421 0.60287 0.38294 0.0
Cd114 Cd 0.81537 0.55633 0.37695 0.0
O115 O 0.7986 0.55952 0.40206 0.0
O116 O 0.83786 0.64084 0.38358 0.0
O117 O 0.81044 0.62109 0.36599 0.0
C118 C 0.81944 0.64221 0.37222 0.0
C119 C 0.7948 0.54747 0.34993 0.0
C120 C 0.80562 0.57646 0.41324 0.0
C121 C 0.87192 0.56225 0.37486 0.0
O122 O 0.85323 0.54718 0.37665 0.0
O123 O 0.86846 0.58628 0.37529 0.0
O124 O 0.79834 0.52991 0.36186 0.0
O125 O 0.80127 0.57052 0.35401 0.0
O126 O 0.17302 0.42357 0.40672 0.0
Cd127 Cd 0.161 0.41456 0.3811 0.0
Cd128 Cd 0.17899 0.4616 0.3752 0.0
O129 O 0.1945 0.45865 0.40083 0.0
O130 O 0.1587 0.37644 0.38123 0.0
O131 O 0.18648 0.3977 0.36479 0.0
C132 C 0.17792 0.37609 0.3705 0.0
C133 C 0.20112 0.47055 0.34873 0.0
C134 C 0.18744 0.44153 0.41191 0.0
C135 C 0.12261 0.45411 0.37192 0.0
O136 O 0.14088 0.46972 0.3737 0.0
O137 O 0.12664 0.4302 0.37287 0.0
O138 O 0.19641 0.4882 0.36036 0.0
O139 O 0.1948 0.44746 0.35279 0.0
O140 O 0.828 0.42028 0.10919 0.0
Cd141 Cd 0.84057 0.41142 0.13476 0.0
Cd142 Cd 0.82284 0.45843 0.14083 0.0
O143 O 0.80703 0.45554 0.11533 0.0
O144 O 0.84281 0.37334 0.135 0.0
O145 O 0.81534 0.39486 0.15148 0.0
C146 C 0.82384 0.37315 0.14595 0.0
C147 C 0.80101 0.46992 0.16692 0.0
C148 C 0.81364 0.43839 0.10417 0.0
C149 C 0.87926 0.45082 0.14368 0.0
O150 O 0.86099 0.46641 0.1421 0.0
O151 O 0.87519 0.42692 0.14265 0.0
O152 O 0.80637 0.48651 0.15466 0.0
O153 O 0.80645 0.44634 0.16373 0.0
O154 O 0.17693 0.59537 0.10882 0.0
Cd155 Cd 0.1659 0.60259 0.135 0.0
Cd156 Cd 0.18557 0.55629 0.13931 0.0
O157 O 0.20062 0.56145 0.11375 0.0
O158 O 0.16256 0.64059 0.13708 0.0
O159 O 0.19257 0.6185 0.15077 0.0
C160 C 0.18281 0.64036 0.14682 0.0
C161 C 0.20754 0.54606 0.16558 0.0
C162 C 0.19221 0.57847 0.10308 0.0
C163 C 0.12929 0.56097 0.14342 0.0
O164 O 0.14796 0.54632 0.14039 0.0
O165 O 0.13255 0.58504 0.14376 0.0
O166 O 0.2038 0.52925 0.15317 0.0
O167 O 0.20056 0.56922 0.16235 0.0
O168 O 0.17544 0.4204 0.60811 0.0
Cd169 Cd 0.16342 0.41187 0.6339 0.0
Cd170 Cd 0.18279 0.45814 0.63972 0.0
O171 O 0.19813 0.45465 0.6141 0.0
O172 O 0.16034 0.37382 0.63442 0.0
O173 O 0.18888 0.39496 0.65023 0.0
C174 C 0.1797 0.37337 0.64502 0.0
C175 C 0.20513 0.46844 0.66585 0.0
C176 C 0.19046 0.43792 0.60296 0.0
C177 C 0.12624 0.45252 0.64311 0.0
O178 O 0.14498 0.46748 0.64111 0.0
O179 O 0.12952 0.42849 0.64233 0.0
O180 O 0.20059 0.48535 0.65364 0.0
O181 O 0.19858 0.44517 0.66257 0.0
O182 O 0.82545 0.59438 0.60822 0.0
Cd183 Cd 0.83828 0.60312 0.63375 0.0
Cd184 Cd 0.82035 0.55614 0.64001 0.0
O185 O 0.80378 0.55962 0.61481 0.0
O186 O 0.84101 0.64125 0.63472 0.0
O187 O 0.81257 0.61934 0.65018 0.0
C188 C 0.82161 0.64116 0.6453 0.0
C189 C 0.79952 0.54635 0.66683 0.0
C190 C 0.81053 0.57654 0.60348 0.0
C191 C 0.87666 0.56309 0.64236 0.0
O192 O 0.85833 0.54759 0.64058 0.0
O193 O 0.87265 0.58702 0.64173 0.0
O194 O 0.80349 0.52911 0.65476 0.0
O195 O 0.80571 0.56957 0.663 0.0
O196 O 0.17618 0.59676 0.90495 0.0
Cd197 Cd 0.16496 0.60448 0.87892 0.0
Cd198 Cd 0.18361 0.55747 0.87433 0.0
O199 O 0.19855 0.56196 0.90002 0.0
O200 O 0.16236 0.64258 0.87719 0.0
O201 O 0.19147 0.62013 0.86288 0.0
C202 C 0.1823 0.64212 0.86715 0.0
C203 C 0.20584 0.54765 0.84809 0.0
C204 C 0.19081 0.57929 0.91068 0.0
C205 C 0.12732 0.56384 0.87036 0.0
O206 O 0.14569 0.54862 0.87291 0.0
O207 O 0.13109 0.58784 0.8705 0.0
O208 O 0.20148 0.53046 0.86016 0.0
O209 O 0.19926 0.57082 0.85163 0.0
O210 O 0.82735 0.42135 0.90857 0.0
Cd211 Cd 0.83994 0.41268 0.88295 0.0
Cd212 Cd 0.821 0.45898 0.87692 0.0
O213 O 0.80487 0.45563 0.90228 0.0
O214 O 0.8431 0.37465 0.88273 0.0
O215 O 0.81483 0.39549 0.86648 0.0
C216 C 0.82395 0.37399 0.87195 0.0
C217 C 0.79975 0.46944 0.85038 0.0
C218 C 0.81224 0.43888 0.91352 0.0
C219 C 0.87752 0.45314 0.87419 0.0
O220 O 0.85886 0.46816 0.87614 0.0
O221 O 0.87406 0.42911 0.87477 0.0
O222 O 0.80406 0.48633 0.86263 0.0
O223 O 0.8058 0.44609 0.85386 0.0
H224 H 0.31693 0.11676 0.43802 0.0
H225 H 0.31174 0.11306 0.47046 0.0
H226 H 0.28857 0.03472 0.4645 0.0
H227 H 0.29349 0.03833 0.43169 0.0
H228 H 0.26143 0.06102 0.49183 0.0
H229 H 0.34734 0.04497 0.4752 0.0
H230 H 0.38775 0.05317 0.45958 0.0
H231 H 0.39562 0.12416 0.48771 0.0
H232 H 0.35504 0.11658 0.5033 0.0
H233 H 0.2933 0.03855 0.58602 0.0
H234 H 0.28753 0.03562 0.5533 0.0
H235 H 0.31523 0.11251 0.54736 0.0
H236 H 0.32126 0.1155 0.57975 0.0
H237 H 0.34005 0.0804 0.52575 0.0
H238 H 0.25254 0.09714 0.54114 0.0
H239 H 0.21201 0.08863 0.55654 0.0
H240 H 0.20751 0.01532 0.53112 0.0
H241 H 0.24821 0.02327 0.51574 0.0
C242 C 0.31041 0.09879 0.44351 0.0
C243 C 0.30596 0.07773 0.43225 0.0
C244 C 0.30745 0.09671 0.4621 0.0
C245 C 0.30023 0.07348 0.46993 0.0
C246 C 0.29426 0.0528 0.45872 0.0
C247 C 0.29712 0.05489 0.43999 0.0
C248 C 0.30098 0.07065 0.48982 0.0
C249 C 0.27868 0.06484 0.49928 0.0
C250 C 0.32348 0.07575 0.49953 0.0
C251 C 0.34805 0.08028 0.49032 0.0
C252 C 0.3576 0.06241 0.47797 0.0
C253 C 0.38055 0.06694 0.46913 0.0
C254 C 0.39422 0.08919 0.47263 0.0
C255 C 0.385 0.10694 0.48501 0.0
C256 C 0.36204 0.10252 0.49386 0.0
C257 C 0.29777 0.05495 0.57775 0.0
C258 C 0.30797 0.07717 0.58551 0.0
C259 C 0.29444 0.05326 0.55905 0.0
C260 C 0.30104 0.07383 0.54785 0.0
C261 C 0.31018 0.09633 0.5557 0.0
C262 C 0.31359 0.098 0.57427 0.0
C263 C 0.30028 0.07169 0.52789 0.0
C264 C 0.32277 0.07638 0.51837 0.0
C265 C 0.278 0.06543 0.51823 0.0
C266 C 0.25356 0.06067 0.52746 0.0
C267 C 0.24302 0.07911 0.53896 0.0
C268 C 0.22 0.07441 0.54765 0.0
C269 C 0.20724 0.05142 0.54485 0.0
C270 C 0.21744 0.0331 0.5333 0.0
C271 C 0.24047 0.0377 0.52458 0.0
H272 H 0.18941 0.04782 0.5516 0.0
H273 H 0.41199 0.09267 0.46577 0.0
H274 H 0.71807 0.97862 0.5862 0.0
H275 H 0.72677 0.98186 0.55384 0.0
H276 H 0.69541 0.90681 0.54587 0.0
H277 H 0.68685 0.90334 0.57801 0.0
H278 H 0.73776 0.91373 0.52575 0.0
H279 H 0.6601 0.95987 0.53844 0.0
H280 H 0.63453 0.993 0.55338 0.0
H281 H 0.68295 0.05112 0.53154 0.0
H282 H 0.709 0.01826 0.51665 0.0
H283 H 0.68773 0.9049 0.43887 0.0
H284 H 0.69686 0.90764 0.47089 0.0
H285 H 0.72678 0.98344 0.46357 0.0
H286 H 0.71741 0.98095 0.43124 0.0
H287 H 0.69352 0.98143 0.49133 0.0
H288 H 0.76652 0.9348 0.47403 0.0
H289 H 0.79094 0.90124 0.45865 0.0
H290 H 0.75133 0.8438 0.48875 0.0
H291 H 0.72639 0.87699 0.50413 0.0
C292 C 0.71332 0.96269 0.57758 0.0
C293 C 0.70158 0.9408 0.5847 0.0
C294 C 0.71822 0.96461 0.55908 0.0
C295 C 0.7115 0.94468 0.54739 0.0
C296 C 0.70076 0.92244 0.5546 0.0
C297 C 0.69577 0.92055 0.57301 0.0
C298 C 0.71431 0.94716 0.52755 0.0
C299 C 0.72808 0.92851 0.5182 0.0
C300 C 0.70233 0.96689 0.51771 0.0
C301 C 0.68668 0.98662 0.52664 0.0
C302 C 0.66541 0.97971 0.53696 0.0
C303 C 0.65081 0.99843 0.54539 0.0
C304 C 0.65716 0.02414 0.54347 0.0
C305 C 0.67809 0.03119 0.53306 0.0
C306 C 0.69277 0.01253 0.52462 0.0
C307 C 0.69653 0.9221 0.44396 0.0
C308 C 0.70179 0.94274 0.43244 0.0
C309 C 0.70189 0.92357 0.46231 0.0
C310 C 0.71275 0.94564 0.46966 0.0
C311 C 0.71849 0.96617 0.45819 0.0
C312 C 0.71322 0.96467 0.43971 0.0
C313 C 0.71639 0.94755 0.48947 0.0
C314 C 0.70377 0.967 0.49883 0.0
C315 C 0.72941 0.92851 0.49931 0.0
C316 C 0.74447 0.90842 0.49018 0.0
C317 C 0.76288 0.91501 0.47729 0.0
C318 C 0.77684 0.89605 0.46858 0.0
C319 C 0.77266 0.87041 0.4727 0.0
C320 C 0.75455 0.86368 0.48557 0.0
C321 C 0.74052 0.88256 0.49432 0.0
H322 H 0.78348 0.85575 0.46594 0.0
H323 H 0.64583 0.03862 0.55 0.0
H324 H 0.29186 0.97717 0.08638 0.0
H325 H 0.28656 0.98042 0.05364 0.0
H326 H 0.32011 0.90606 0.04727 0.0
H327 H 0.32564 0.90276 0.07969 0.0
H328 H 0.34236 0.9405 0.02576 0.0
H329 H 0.25642 0.91636 0.0412 0.0
H330 H 0.21542 0.92139 0.05671 0.0
H331 H 0.20517 0.99447 0.03171 0.0
H332 H 0.2463 0.99 0.01623 0.0
H333 H 0.32117 0.90289 0.93791 0.0
H334 H 0.31669 0.90614 0.97042 0.0
H335 H 0.28656 0.98207 0.9648 0.0
H336 H 0.29079 0.97892 0.93194 0.0
H337 H 0.26223 0.95354 0.9921 0.0
H338 H 0.34623 0.97701 0.97526 0.0
H339 H 0.3871 0.97261 0.95949 0.0
H340 H 0.40133 0.90238 0.9874 0.0
H341 H 0.36036 0.90616 1.00314 0.0
C342 C 0.29779 0.96139 0.07801 0.0
C343 C 0.30934 0.93978 0.08569 0.0
C344 C 0.29471 0.96326 0.05929 0.0
C345 C 0.30299 0.94349 0.04797 0.0
C346 C 0.31372 0.92162 0.0557 0.0
C347 C 0.31683 0.91976 0.0743 0.0
C348 C 0.30203 0.94584 0.02803 0.0
C349 C 0.32477 0.94314 0.01844 0.0
C350 C 0.27927 0.95031 0.01844 0.0
C351 C 0.25457 0.95298 0.02773 0.0
C352 C 0.24553 0.9336 0.03914 0.0
C353 C 0.22225 0.93633 0.0479 0.0
C354 C 0.20774 0.95827 0.04524 0.0
C355 C 0.21645 0.9775 0.03378 0.0
C356 C 0.23974 0.97488 0.025 0.0
C357 C 0.3133 0.92023 0.94349 0.0
C358 C 0.30664 0.94078 0.93228 0.0
C359 C 0.31078 0.92204 0.96212 0.0
C360 C 0.30173 0.94451 0.97006 0.0
C361 C 0.29369 0.96459 0.95894 0.0
C362 C 0.29615 0.96276 0.94018 0.0
C363 C 0.30242 0.94727 0.98996 0.0
C364 C 0.27978 0.95112 0.99949 0.0
C365 C 0.32532 0.94403 0.99959 0.0
C366 C 0.35012 0.94178 0.99028 0.0
C367 C 0.35799 0.96054 0.97794 0.0
C368 C 0.38119 0.95817 0.96902 0.0
C369 C 0.39678 0.9372 0.97242 0.0
C370 C 0.38923 0.9186 0.98477 0.0
C371 C 0.36603 0.92086 0.99372 0.0
H372 H 0.41473 0.9354 0.9655 0.0
H373 H 0.18971 0.96035 0.05203 0.0
H374 H 0.71648 0.03849 0.9308 0.0
H375 H 0.72512 0.03557 0.96319 0.0
H376 H 0.69132 0.10955 0.97103 0.0
H377 H 0.68304 0.11279 0.93891 0.0
H378 H 0.73274 0.10488 0.99124 0.0
H379 H 0.65816 0.05365 0.97842 0.0
H380 H 0.63489 0.01874 0.96356 0.0
H381 H 0.68668 0.96418 0.98594 0.0
H382 H 0.71044 0.99885 1.00075 0.0
H383 H 0.682 0.11174 0.07801 0.0
H384 H 0.69067 0.10893 0.04593 0.0
H385 H 0.7255 0.03542 0.05366 0.0
H386 H 0.71659 0.03795 0.08604 0.0
H387 H 0.69228 0.03489 0.02579 0.0
H388 H 0.762 0.08667 0.04321 0.0
H389 H 0.78375 0.12211 0.05854 0.0
H390 H 0.74056 0.17615 0.02788 0.0
H391 H 0.71826 0.14105 0.01254 0.0
C392 C 0.71118 0.05425 0.93941 0.0
C393 C 0.69888 0.07579 0.93224 0.0
C394 C 0.71602 0.05251 0.95793 0.0
C395 C 0.7086 0.07222 0.9696 0.0
C396 C 0.69724 0.09409 0.96234 0.0
C397 C 0.6924 0.09584 0.94392 0.0
C398 C 0.71141 0.06998 0.98947 0.0
C399 C 0.72387 0.08959 0.9988 0.0
C400 C 0.70053 0.04964 0.99936 0.0
C401 C 0.68625 0.02884 0.99049 0.0
C402 C 0.66469 0.03423 0.98004 0.0
C403 C 0.6514 0.01449 0.97165 0.0
C404 C 0.65936 0.98927 0.97375 0.0
C405 C 0.68058 0.98373 0.98429 0.0
C406 C 0.69396 1.00341 0.99269 0.0
C407 C 0.69172 0.09502 0.073 0.0
C408 C 0.69859 0.07505 0.08466 0.0
C409 C 0.69681 0.09352 0.0546 0.0
C410 C 0.70902 0.0721 0.04737 0.0
C411 C 0.71617 0.05219 0.05895 0.0
C412 C 0.71114 0.05371 0.07746 0.0
C413 C 0.7129 0.07024 0.02757 0.0
C414 C 0.70169 0.04988 0.01826 0.0
C415 C 0.72485 0.08996 0.01769 0.0
C416 C 0.73836 0.11118 0.02678 0.0
C417 C 0.75702 0.10611 0.03981 0.0
C418 C 0.76947 0.12614 0.04849 0.0
C419 C 0.76352 0.15137 0.0442 0.0
C420 C 0.74515 0.1566 0.03118 0.0
C421 C 0.73263 0.13664 0.02247 0.0
H422 H 0.77317 0.16685 0.05095 0.0
H423 H 0.64904 0.97401 0.96725 0.0
H424 H 0.81599 0.61283 0.57748 0.0
H425 H 0.80584 0.60952 0.54562 0.0
H426 H 0.77633 0.53379 0.55406 0.0
H427 H 0.78664 0.53688 0.5862 0.0
H428 H 0.80892 0.53567 0.52567 0.0
H429 H 0.736 0.58165 0.54415 0.0
H430 H 0.71187 0.61518 0.55979 0.0
H431 H 0.74961 0.67257 0.52846 0.0
H432 H 0.77425 0.63942 0.5128 0.0
H433 H 0.78218 0.53697 0.43116 0.0
H434 H 0.77385 0.53386 0.46359 0.0
H435 H 0.8035 0.60974 0.47101 0.0
H436 H 0.8116 0.61309 0.43884 0.0
H437 H 0.76227 0.60218 0.49171 0.0
H438 H 0.84028 0.55712 0.47796 0.0
H439 H 0.86585 0.52424 0.46275 0.0
H440 H 0.81898 0.46562 0.4856 0.0
H441 H 0.79293 0.49823 0.50076 0.0
C442 C 0.8071 0.59552 0.57267 0.0
C443 C 0.80217 0.57509 0.58443 0.0
C444 C 0.80116 0.59373 0.55441 0.0
C445 C 0.79008 0.57151 0.54745 0.0
C446 C 0.78477 0.55116 0.55916 0.0
C447 C 0.79059 0.553 0.57753 0.0
C448 C 0.78568 0.56926 0.52774 0.0
C449 C 0.79816 0.54984 0.51827 0.0
C450 C 0.77197 0.58795 0.51805 0.0
C451 C 0.75709 0.60801 0.52736 0.0
C452 C 0.73929 0.60143 0.54067 0.0
C453 C 0.72549 0.62037 0.54953 0.0
C454 C 0.72923 0.64599 0.54514 0.0
C455 C 0.74673 0.65272 0.53185 0.0
C456 C 0.76059 0.63385 0.52295 0.0
C457 C 0.78656 0.55312 0.43968 0.0
C458 C 0.79776 0.5752 0.43241 0.0
C459 C 0.7819 0.55127 0.45822 0.0
C460 C 0.78832 0.57147 0.46977 0.0
C461 C 0.79839 0.59391 0.46239 0.0
C462 C 0.80312 0.59573 0.44396 0.0
C463 C 0.78613 0.56906 0.48966 0.0
C464 C 0.77246 0.58765 0.49915 0.0
C465 C 0.79882 0.54967 0.49937 0.0
C466 C 0.81447 0.5301 0.49028 0.0
C467 C 0.83531 0.53723 0.47961 0.0
C468 C 0.84991 0.51865 0.47102 0.0
C469 C 0.84399 0.49286 0.47315 0.0
C470 C 0.8235 0.4856 0.48392 0.0
C471 C 0.80881 0.50412 0.49251 0.0
H472 H 0.85532 0.4785 0.4665 0.0
H473 H 0.71853 0.66063 0.55201 0.0
H474 H 0.2149 0.47681 0.58506 0.0
H475 H 0.22278 0.48013 0.55259 0.0
H476 H 0.18974 0.40577 0.54479 0.0
H477 H 0.18206 0.40219 0.57701 0.0
H478 H 0.23097 0.41161 0.52394 0.0
H479 H 0.15536 0.45988 0.53804 0.0
H480 H 0.131 0.49342 0.55353 0.0
H481 H 0.18024 0.55062 0.53142 0.0
H482 H 0.20509 0.51735 0.51598 0.0
H483 H 0.17922 0.40544 0.43762 0.0
H484 H 0.18806 0.40794 0.46965 0.0
H485 H 0.22117 0.4824 0.4624 0.0
H486 H 0.21197 0.48022 0.43001 0.0
H487 H 0.18816 0.48133 0.49062 0.0
H488 H 0.25899 0.43167 0.47196 0.0
H489 H 0.28047 0.39707 0.45553 0.0
H490 H 0.23845 0.34141 0.48563 0.0
H491 H 0.21646 0.37567 0.50209 0.0
C492 C 0.20962 0.46104 0.57645 0.0
C493 C 0.19767 0.43931 0.58365 0.0
C494 C 0.21404 0.46301 0.55788 0.0
C495 C 0.20661 0.4433 0.54621 0.0
C496 C 0.19566 0.42122 0.55349 0.0
C497 C 0.19117 0.41927 0.57196 0.0
C498 C 0.20885 0.4459 0.52632 0.0
C499 C 0.22162 0.42685 0.51665 0.0
C500 C 0.19719 0.46613 0.51679 0.0
C501 C 0.18228 0.48612 0.52606 0.0
C502 C 0.16112 0.4796 0.53661 0.0
C503 C 0.1472 0.49855 0.54536 0.0
C504 C 0.15412 0.52413 0.54352 0.0
C505 C 0.17494 0.5308 0.53288 0.0
C506 C 0.18894 0.5119 0.52412 0.0
C507 C 0.18858 0.42233 0.44272 0.0
C508 C 0.19488 0.44265 0.43118 0.0
C509 C 0.19377 0.42365 0.46109 0.0
C510 C 0.20559 0.44521 0.46844 0.0
C511 C 0.21216 0.46551 0.457 0.0
C512 C 0.20698 0.46419 0.43849 0.0
C513 C 0.20975 0.44669 0.48822 0.0
C514 C 0.19811 0.46645 0.49789 0.0
C515 C 0.22231 0.42701 0.49775 0.0
C516 C 0.23599 0.40629 0.48822 0.0
C517 C 0.25426 0.41206 0.47504 0.0
C518 C 0.26653 0.3925 0.46572 0.0
C519 C 0.2608 0.36706 0.46952 0.0
C520 C 0.24288 0.36113 0.48271 0.0
C521 C 0.23054 0.38061 0.49207 0.0
H522 H 0.27027 0.35195 0.46225 0.0
H523 H 0.14332 0.53878 0.55029 0.0
H524 H 0.81892 0.40258 0.93933 0.0
H525 H 0.81018 0.40575 0.9714 0.0
H526 H 0.77973 0.48122 0.96371 0.0
H527 H 0.78866 0.47827 0.93134 0.0
H528 H 0.81354 0.47965 0.99135 0.0
H529 H 0.74029 0.43279 0.97455 0.0
H530 H 0.71582 0.39896 0.95947 0.0
H531 H 0.75558 0.34203 0.98987 0.0
H532 H 0.78058 0.37548 1.00495 0.0
H533 H 0.7902 0.478 0.08642 0.0
H534 H 0.78123 0.48114 0.05409 0.0
H535 H 0.81101 0.40544 0.04627 0.0
H536 H 0.81972 0.40204 0.07835 0.0
H537 H 0.76914 0.41255 0.02633 0.0
H538 H 0.84714 0.45854 0.03845 0.0
H539 H 0.873 0.49175 0.05309 0.0
H540 H 0.82473 0.5498 0.03112 0.0
H541 H 0.79839 0.51687 0.01653 0.0
C542 C 0.8101 0.41979 0.94436 0.0
C543 C 0.80453 0.4402 0.93272 0.0
C544 C 0.80497 0.42151 0.96274 0.0
C545 C 0.79406 0.44362 0.96998 0.0
C546 C 0.78806 0.46393 0.9584 0.0
C547 C 0.79308 0.46217 0.9399 0.0
C548 C 0.79056 0.44579 0.98979 0.0
C549 C 0.80327 0.46534 0.99898 0.0
C550 C 0.7775 0.42691 0.99979 0.0
C551 C 0.76241 0.40668 0.99082 0.0
C552 C 0.74395 0.41305 0.97794 0.0
C553 C 0.72996 0.39394 0.9694 0.0
C554 C 0.73416 0.36836 0.97369 0.0
C555 C 0.75234 0.36185 0.98656 0.0
C556 C 0.7664 0.38089 0.99513 0.0
C557 C 0.79454 0.46192 0.07784 0.0
C558 C 0.80587 0.43984 0.08498 0.0
C559 C 0.7895 0.46378 0.05935 0.0
C560 C 0.7957 0.44363 0.04771 0.0
C561 C 0.80605 0.42125 0.05496 0.0
C562 C 0.81114 0.41939 0.07334 0.0
C563 C 0.79275 0.44594 0.02786 0.0
C564 C 0.77886 0.4272 0.01867 0.0
C565 C 0.80479 0.4655 0.01786 0.0
C566 C 0.82062 0.48526 0.0266 0.0
C567 C 0.84193 0.47838 0.03687 0.0
C568 C 0.85669 0.49714 0.04513 0.0
C569 C 0.85046 0.52286 0.04309 0.0
C570 C 0.8295 0.52987 0.03273 0.0
C571 C 0.81465 0.51117 0.02446 0.0
H572 H 0.86192 0.53736 0.04949 0.0
H573 H 0.72332 0.35359 0.96706 0.0
H574 H 0.18332 0.61558 0.07822 0.0
H575 H 0.18841 0.61303 0.04571 0.0
H576 H 0.21993 0.53761 0.05091 0.0
H577 H 0.21516 0.5401 0.08375 0.0
H578 H 0.24396 0.56638 0.02402 0.0
H579 H 0.15971 0.54252 0.04025 0.0
H580 H 0.11857 0.54677 0.05565 0.0
H581 H 0.10459 0.61701 0.02769 0.0
H582 H 0.14585 0.61338 0.01231 0.0
H583 H 0.21457 0.54112 0.92984 0.0
H584 H 0.2201 0.53866 0.96261 0.0
H585 H 0.18682 0.61326 0.96819 0.0
H586 H 0.18111 0.61582 0.93576 0.0
H587 H 0.1642 0.57893 0.98983 0.0
H588 H 0.24997 0.60339 0.97473 0.0
H589 H 0.29115 0.59858 0.95944 0.0
H590 H 0.30189 0.5259 0.9849 0.0
H591 H 0.26059 0.53012 1.00016 0.0
C592 C 0.19162 0.59851 0.07254 0.0
C593 C 0.19853 0.5779 0.08361 0.0
C594 C 0.1945 0.59709 0.05391 0.0
C595 C 0.20409 0.57494 0.04584 0.0
C596 C 0.21237 0.55484 0.05686 0.0
C597 C 0.2096 0.55629 0.07561 0.0
C598 C 0.2037 0.57246 0.02591 0.0
C599 C 0.22649 0.56872 0.01652 0.0
C600 C 0.18092 0.57561 0.01612 0.0
C601 C 0.15597 0.57777 0.02523 0.0
C602 C 0.14795 0.55897 0.03747 0.0
C603 C 0.12459 0.56125 0.04619 0.0
C604 C 0.109 0.58217 0.04268 0.0
C605 C 0.1167 0.60082 0.03041 0.0
C606 C 0.14006 0.59865 0.02167 0.0
C607 C 0.20879 0.55714 0.93804 0.0
C608 C 0.1972 0.57857 0.93015 0.0
C609 C 0.21199 0.55572 0.95677 0.0
C610 C 0.20379 0.57575 0.96788 0.0
C611 C 0.19313 0.5975 0.95993 0.0
C612 C 0.18992 0.59893 0.94132 0.0
C613 C 0.20457 0.57373 0.98784 0.0
C614 C 0.18171 0.57643 0.99728 0.0
C615 C 0.22724 0.56946 0.99757 0.0
C616 C 0.25206 0.56694 0.98842 0.0
C617 C 0.26101 0.58627 0.97694 0.0
C618 C 0.28439 0.58368 0.9683 0.0
C619 C 0.29909 0.56191 0.97115 0.0
C620 C 0.29046 0.54273 0.98268 0.0
C621 C 0.26708 0.54522 0.99133 0.0
H622 H 0.3172 0.55994 0.96445 0.0
H623 H 0.09092 0.58391 0.04944 0.0
H624 H 0.6144 1.00675 0.37525 0.0
H625 H 0.57229 0.02544 0.37332 0.0
H626 H 0.53947 0.9505 0.36846 0.0
H627 H 0.58185 0.93143 0.37033 0.0
H628 H 0.51827 0.98554 0.34464 0.0
H629 H 0.53637 0.98027 0.40774 0.0
H630 H 0.56159 0.98671 0.43528 0.0
H631 H 0.55865 0.06775 0.42753 0.0
H632 H 0.53371 0.06177 0.39978 0.0
H633 H 0.39158 0.01766 0.36679 0.0
H634 H 0.43418 1.00003 0.36514 0.0
H635 H 0.46577 0.07511 0.37252 0.0
H636 H 0.42293 0.09302 0.37436 0.0
H637 H 0.48794 0.04049 0.3945 0.0
H638 H 0.46884 0.04593 0.3318 0.0
H639 H 0.44361 0.03953 0.30426 0.0
H640 H 0.44831 0.95843 0.31114 0.0
H641 H 0.47327 0.96434 0.33888 0.0
C642 C 0.59831 0.99412 0.37371 0.0
C643 C 0.60157 0.9675 0.37305 0.0
C644 C 0.57419 1.0049 0.37266 0.0
C645 C 0.55269 0.98938 0.37097 0.0
C646 C 0.55582 0.96284 0.36982 0.0
C647 C 0.58004 0.95197 0.37094 0.0
C648 C 0.52702 1.00102 0.37072 0.0
C649 C 0.51147 0.99726 0.35564 0.0
C650 C 0.51844 0.01689 0.38487 0.0
C651 C 0.53339 0.02056 0.40158 0.0
C652 C 0.54129 0.99946 0.41182 0.0
C653 C 0.5555 1.00302 0.42749 0.0
C654 C 0.56178 0.02762 0.43313 0.0
C655 C 0.5538 0.0487 0.42313 0.0
C656 C 0.53961 0.04524 0.40744 0.0
C657 C 0.40753 0.03055 0.36792 0.0
C658 C 0.40377 0.05681 0.37073 0.0
C659 C 0.43193 0.0204 0.36688 0.0
C660 C 0.45322 0.03624 0.36855 0.0
C661 C 0.44962 0.06252 0.37115 0.0
C662 C 0.42512 0.07275 0.37213 0.0
C663 C 0.47912 0.02506 0.3684 0.0
C664 C 0.49473 0.02885 0.38345 0.0
C665 C 0.48773 0.00924 0.35422 0.0
C666 C 0.47274 1.0056 0.33752 0.0
C667 C 0.46431 0.02673 0.32753 0.0
C668 C 0.45009 0.02319 0.31186 0.0
C669 C 0.4443 0.99859 0.30598 0.0
C670 C 0.45278 0.97747 0.31573 0.0
C671 C 0.46699 0.98091 0.33141 0.0
H672 H 0.4333 0.99589 0.29384 0.0
H673 H 0.57278 0.03034 0.44527 0.0
H674 H 0.39075 1.00208 0.15192 0.0
H675 H 0.43307 0.0203 0.1541 0.0
H676 H 0.46572 0.94521 0.15026 0.0
H677 H 0.42312 0.92661 0.14825 0.0
H678 H 0.4905 0.97526 0.17521 0.0
H679 H 0.46355 0.98282 0.11365 0.0
H680 H 0.43453 0.99493 0.08909 0.0
H681 H 0.43962 0.07343 0.10493 0.0
H682 H 0.46841 0.06174 0.12974 0.0
H683 H 0.61418 0.01181 0.14799 0.0
H684 H 0.57188 0.9938 0.1511 0.0
H685 H 0.53992 0.06942 0.15155 0.0
H686 H 0.58239 0.08772 0.14811 0.0
H687 H 0.5145 0.03944 0.12916 0.0
H688 H 0.54287 0.03253 0.18993 0.0
H689 H 0.57144 0.02071 0.21481 0.0
H690 H 0.56371 0.94167 0.201 0.0
H691 H 0.53541 0.95303 0.17583 0.0
C692 C 0.40686 0.98931 0.15165 0.0
C693 C 0.40349 0.96284 0.14971 0.0
C694 C 0.4311 0.99983 0.15287 0.0
C695 C 0.4526 0.98419 0.15203 0.0
C696 C 0.44938 0.95765 0.15086 0.0
C697 C 0.42503 0.94705 0.14968 0.0
C698 C 0.47833 0.99578 0.15167 0.0
C699 C 0.49591 0.98904 0.16502 0.0
C700 C 0.48515 0.01428 0.13864 0.0
C701 C 0.46795 0.02137 0.12366 0.0
C702 C 0.45833 1.00264 0.11197 0.0
C703 C 0.44195 0.00943 0.098 0.0
C704 C 0.43518 0.03492 0.09548 0.0
C705 C 0.44485 0.05369 0.10691 0.0
C706 C 0.46122 0.04699 0.12092 0.0
C707 C 0.59823 0.02472 0.14887 0.0
C708 C 0.60175 0.05128 0.14775 0.0
C709 C 0.574 0.01433 0.15077 0.0
C710 C 0.55267 0.03022 0.15176 0.0
C711 C 0.5561 0.05677 0.15086 0.0
C712 C 0.5804 0.06721 0.14893 0.0
C713 C 0.52679 0.019 0.15274 0.0
C714 C 0.50915 0.02575 0.13943 0.0
C715 C 0.51996 1.00057 0.16584 0.0
C716 C 0.53715 0.99367 0.18089 0.0
C717 C 0.54743 0.01264 0.19208 0.0
C718 C 0.56354 1.00602 0.20626 0.0
C719 C 0.56936 0.98046 0.20949 0.0
C720 C 0.55916 0.96146 0.1985 0.0
C721 C 0.54307 0.96798 0.18428 0.0
H722 H 0.58174 0.97536 0.22053 0.0
H723 H 0.42249 0.04014 0.08465 0.0
H724 H 0.58408 0.92824 0.64798 0.0
H725 H 0.54152 0.94655 0.65038 0.0
H726 H 0.57315 0.02218 0.64657 0.0
H727 H 0.61556 1.00418 0.64456 0.0
H728 H 0.53699 0.02157 0.67109 0.0
H729 H 0.54542 0.99242 0.61003 0.0
H730 H 0.55378 0.96106 0.58606 0.0
H731 H 0.4925 0.91452 0.60524 0.0
H732 H 0.48399 0.94546 0.62948 0.0
H733 H 0.42481 0.08944 0.64534 0.0
H734 H 0.46722 0.0706 0.64714 0.0
H735 H 0.43405 0.99574 0.65176 0.0
H736 H 0.39186 0.01424 0.64974 0.0
H737 H 0.47076 0.99546 0.62751 0.0
H738 H 0.46147 0.02608 0.68809 0.0
H739 H 0.45325 0.0581 0.71164 0.0
H740 H 0.51619 0.10271 0.6929 0.0
H741 H 0.52459 0.07111 0.66908 0.0
C742 C 0.58198 0.94876 0.64777 0.0
C743 C 0.60329 0.96468 0.64596 0.0
C744 C 0.55762 0.95922 0.64906 0.0
C745 C 0.55405 0.98578 0.64841 0.0
C746 C 0.57535 1.00166 0.64709 0.0
C747 C 0.59964 0.99127 0.64587 0.0
C748 C 0.5282 0.99716 0.64865 0.0
C749 C 0.52258 0.01602 0.66145 0.0
C750 C 0.50921 0.9897 0.63627 0.0
C751 C 0.51425 0.97111 0.62168 0.0
C752 C 0.53386 0.9754 0.60922 0.0
C753 C 0.5386 0.95772 0.59557 0.0
C754 C 0.52373 0.93577 0.59416 0.0
C755 C 0.50403 0.9315 0.60637 0.0
C756 C 0.49923 0.94911 0.62005 0.0
C757 C 0.42655 0.069 0.64691 0.0
C758 C 0.40487 0.0534 0.64735 0.0
C759 C 0.45082 0.05824 0.64798 0.0
C760 C 0.45387 0.03171 0.64967 0.0
C761 C 0.43224 0.01621 0.65041 0.0
C762 C 0.40807 0.02689 0.64929 0.0
C763 C 0.4795 0.01985 0.64998 0.0
C764 C 0.4851 1.00093 0.63723 0.0
C765 C 0.49848 0.02735 0.66235 0.0
C766 C 0.4935 0.04635 0.67669 0.0
C767 C 0.47344 0.04282 0.6889 0.0
C768 C 0.46877 0.06088 0.70231 0.0
C769 C 0.48415 0.08246 0.70373 0.0
C770 C 0.50427 0.086 0.69177 0.0
C771 C 0.50901 0.06801 0.67832 0.0
H772 H 0.4805 0.09642 0.71413 0.0
H773 H 0.52743 0.92211 0.58358 0.0
H774 H 0.61239 0.01362 0.87014 0.0
H775 H 0.56992 0.99581 0.86785 0.0
H776 H 0.53817 0.07148 0.86919 0.0
H777 H 0.58086 0.0896 0.87176 0.0
H778 H 0.51342 0.03981 0.89176 0.0
H779 H 0.53962 0.03696 0.83008 0.0
H780 H 0.56798 0.02664 0.80474 0.0
H781 H 0.56136 0.9469 0.81689 0.0
H782 H 0.53323 0.95676 0.84246 0.0
H783 H 0.38895 1.00468 0.869 0.0
H784 H 0.43136 0.02281 0.8674 0.0
H785 H 0.46359 0.94734 0.86794 0.0
H786 H 0.42092 0.92884 0.86941 0.0
H787 H 0.48791 0.97908 0.84391 0.0
H788 H 0.46287 0.98167 0.90583 0.0
H789 H 0.43468 0.99152 0.93135 0.0
H790 H 0.43954 0.07133 0.91899 0.0
H791 H 0.46748 0.06191 0.89322 0.0
C792 C 0.59645 0.02659 0.86984 0.0
C793 C 0.60011 0.05311 0.87113 0.0
C794 C 0.57211 0.01632 0.86843 0.0
C795 C 0.55081 0.03228 0.86814 0.0
C796 C 0.55433 0.05879 0.86934 0.0
C797 C 0.57875 0.06912 0.87074 0.0
C798 C 0.5249 0.02113 0.8673 0.0
C799 C 0.50771 0.02689 0.88112 0.0
C800 C 0.51767 1.00363 0.85372 0.0
C801 C 0.53449 0.99763 0.83829 0.0
C802 C 0.54436 0.01724 0.82743 0.0
C803 C 0.56037 0.01147 0.81301 0.0
C804 C 0.56651 0.98614 0.80924 0.0
C805 C 0.5566 0.96652 0.81984 0.0
C806 C 0.5406 0.97218 0.83429 0.0
C807 C 0.40498 0.99182 0.86868 0.0
C808 C 0.40147 0.96524 0.8695 0.0
C809 C 0.42927 1.00228 0.86781 0.0
C810 C 0.45068 0.98648 0.86786 0.0
C811 C 0.44732 0.95991 0.86797 0.0
C812 C 0.42292 0.94936 0.86884 0.0
C813 C 0.47648 0.99787 0.86832 0.0
C814 C 0.49363 0.9921 0.85449 0.0
C815 C 0.48374 0.01532 0.88192 0.0
C816 C 0.46708 0.02106 0.89749 0.0
C817 C 0.45778 1.00131 0.90847 0.0
C818 C 0.44186 1.00681 0.923 0.0
C819 C 0.43527 0.03203 0.92676 0.0
C820 C 0.44464 0.0518 0.91604 0.0
C821 C 0.46053 0.04639 0.90148 0.0
H822 H 0.42295 0.03625 0.93802 0.0
H823 H 0.57891 0.98171 0.79807 0.0
H824 H 0.91718 0.58751 0.36982 0.0
H825 H 0.95957 0.56869 0.36735 0.0
H826 H 0.9273 0.49353 0.37264 0.0
H827 H 0.88516 0.51201 0.37519 0.0
H828 H 0.96772 0.49922 0.39428 0.0
H829 H 0.94763 0.51475 0.33236 0.0
H830 H 0.93444 0.54057 0.30627 0.0
H831 H 0.99908 0.58925 0.31338 0.0
H832 H 0.01244 0.56395 0.33972 0.0
H833 H 0.07752 0.42777 0.37213 0.0
H834 H 0.03465 0.44554 0.37053 0.0
H835 H 0.06588 0.52111 0.36504 0.0
H836 H 0.1086 0.5036 0.36643 0.0
H837 H 0.02574 0.51475 0.34289 0.0
H838 H 0.04479 0.50021 0.40541 0.0
H839 H 0.05771 0.47475 0.43176 0.0
H840 H 0.99464 0.42437 0.42352 0.0
H841 H 0.98154 0.44936 0.39696 0.0
C842 C 0.91911 0.56698 0.37038 0.0
C843 C 0.89771 0.55132 0.37272 0.0
C844 C 0.94334 0.55624 0.3689 0.0
C845 C 0.9466 0.52966 0.36973 0.0
C846 C 0.92527 0.51406 0.372 0.0
C847 C 0.90114 0.52472 0.3734 0.0
C848 C 0.97222 0.51798 0.36868 0.0
C849 C 0.98026 0.50235 0.38292 0.0
C850 C 0.98879 0.52243 0.35403 0.0
C851 C 0.98089 0.5376 0.33814 0.0
C852 C 0.95892 0.53108 0.32846 0.0
C853 C 0.95143 0.54561 0.31361 0.0
C854 C 0.96588 0.56658 0.3082 0.0
C855 C 0.98789 0.57302 0.3176 0.0
C856 C 0.99544 0.55859 0.33249 0.0
C857 C 0.07527 0.44813 0.3704 0.0
C858 C 0.09655 0.46424 0.36955 0.0
C859 C 0.05075 0.45829 0.36956 0.0
C860 C 0.04704 0.48472 0.36789 0.0
C861 C 0.06824 0.50069 0.36636 0.0
C862 C 0.09269 0.4906 0.36724 0.0
C863 C 0.02118 0.49596 0.36848 0.0
C864 C 0.01313 0.51155 0.35421 0.0
C865 C 0.00455 0.49149 0.3831 0.0
C866 C 0.01235 0.47648 0.39909 0.0
C867 C 0.03379 0.48358 0.40913 0.0
C868 C 0.04113 0.46926 0.42412 0.0
C869 C 0.02705 0.44791 0.42928 0.0
C870 C 0.00556 0.44088 0.41949 0.0
C871 C 0.99816 0.45513 0.40448 0.0
H872 H 0.03275 0.43685 0.44089 0.0
H873 H 0.96006 0.57779 0.29669 0.0
H874 H 0.08374 0.58544 0.14884 0.0
H875 H 0.04159 0.56596 0.15103 0.0
H876 H 0.0749 0.49136 0.14556 0.0
H877 H 0.11682 0.5105 0.14327 0.0
H878 H 0.03507 0.49668 0.12351 0.0
H879 H 0.05278 0.51165 0.18585 0.0
H880 H 0.06468 0.53712 0.2124 0.0
H881 H 1.00005 0.5854 0.20427 0.0
H882 H 0.98795 0.56043 0.17749 0.0
H883 H 0.9244 0.42455 0.14352 0.0
H884 H 0.96725 0.44236 0.14563 0.0
H885 H 0.93591 0.51782 0.15115 0.0
H886 H 0.89324 0.50027 0.14927 0.0
H887 H 0.97512 0.51122 0.17387 0.0
H888 H 0.95846 0.49739 0.11096 0.0
H889 H 0.9466 0.47221 0.08426 0.0
H890 H 0.00951 0.42203 0.09342 0.0
H891 H 0.02154 0.44673 0.12035 0.0
C892 C 0.0821 0.56488 0.14824 0.0
C893 C 0.10372 0.54959 0.14584 0.0
C894 C 0.058 0.55376 0.14954 0.0
C895 C 0.05508 0.52716 0.14852 0.0
C896 C 0.07665 0.5119 0.14633 0.0
C897 C 0.10066 0.52294 0.14508 0.0
C898 C 0.02955 0.51512 0.1491 0.0
C899 C 0.02212 0.49958 0.13466 0.0
C900 C 0.01241 0.51929 0.16345 0.0
C901 C 0.01961 0.53432 0.17956 0.0
C902 C 0.04122 0.52783 0.18963 0.0
C903 C 0.04798 0.54215 0.20474 0.0
C904 C 0.03317 0.56291 0.20999 0.0
C905 C 0.01152 0.56934 0.20017 0.0
C906 C 0.0047 0.5551 0.18503 0.0
C907 C 0.92663 0.4449 0.14534 0.0
C908 C 0.90533 0.46096 0.1461 0.0
C909 C 0.95114 0.45508 0.14647 0.0
C910 C 0.95482 0.48149 0.14834 0.0
C911 C 0.93358 0.49741 0.1497 0.0
C912 C 0.90915 0.4873 0.14853 0.0
C913 C 0.98069 0.49278 0.14829 0.0
C914 C 0.98815 0.50824 0.16278 0.0
C915 C 0.99788 0.48857 0.13398 0.0
C916 C 0.99073 0.47374 0.11778 0.0
C917 C 0.96964 0.48087 0.10736 0.0
C918 C 0.96291 0.4667 0.09218 0.0
C919 C 0.97725 0.44549 0.08718 0.0
C920 C 0.99839 0.43844 0.09733 0.0
C921 C 0.00518 0.45252 0.11255 0.0
H922 H 0.97201 0.43455 0.07541 0.0
H923 H 0.03842 0.57397 0.2217 0.0
H924 H 0.89055 0.5133 0.6462 0.0
H925 H 0.93309 0.49574 0.64848 0.0
H926 H 0.96461 0.57151 0.64607 0.0
H927 H 0.92181 0.58938 0.64353 0.0
H928 H 0.98934 0.53928 0.62381 0.0
H929 H 0.96365 0.53845 0.68537 0.0
H930 H 0.93512 0.52932 0.71085 0.0
H931 H 0.94147 0.44908 0.70058 0.0
H932 H 0.96969 0.45774 0.67482 0.0
H933 H 0.11379 0.50281 0.64612 0.0
H934 H 0.07175 0.52165 0.64811 0.0
H935 H 0.03812 0.44676 0.64766 0.0
H936 H 0.08042 0.42753 0.64576 0.0
H937 H 0.01492 0.47943 0.67226 0.0
H938 H 0.03896 0.48067 0.6099 0.0
H939 H 0.06708 0.48993 0.5842 0.0
H940 H 0.06364 0.56988 0.59621 0.0
H941 H 0.03579 0.56105 0.62215 0.0
C942 C 0.90645 0.52634 0.64625 0.0
C943 C 0.90269 0.55282 0.64468 0.0
C944 C 0.93082 0.51622 0.64765 0.0
C945 C 0.95208 0.53228 0.64765 0.0
C946 C 0.94847 0.55874 0.64615 0.0
C947 C 0.924 0.56894 0.64477 0.0
C948 C 0.97801 0.52123 0.64857 0.0
C949 C 0.99507 0.52656 0.63458 0.0
C950 C 0.9853 0.50409 0.66239 0.0
C951 C 0.96863 0.49877 0.67805 0.0
C952 C 0.95883 0.51886 0.68846 0.0
C953 C 0.94272 0.51377 0.70297 0.0
C954 C 0.93645 0.48864 0.70731 0.0
C955 C 0.94633 0.46854 0.69719 0.0
C956 C 0.9624 0.47353 0.68264 0.0
C957 C 0.09754 0.49022 0.64654 0.0
C958 C 0.10055 0.46358 0.64561 0.0
C959 C 0.07346 0.50109 0.64765 0.0
C960 C 0.05176 0.48566 0.64777 0.0
C961 C 0.05463 0.45904 0.64753 0.0
C962 C 0.07881 0.44808 0.64639 0.0
C963 C 0.02616 0.4975 0.64749 0.0
C964 C 0.00919 0.49227 0.66156 0.0
C965 C 0.01892 0.51478 0.63377 0.0
C966 C 0.03549 0.52017 0.61808 0.0
C967 C 0.04436 0.50021 0.60714 0.0
C968 C 0.06022 0.50538 0.59252 0.0
C969 C 0.0672 0.53047 0.5886 0.0
C970 C 0.05825 0.55045 0.59927 0.0
C971 C 0.04241 0.54537 0.61393 0.0
H972 H 0.07949 0.53443 0.57728 0.0
H973 H 0.92396 0.48474 0.71854 0.0
H974 H 0.08194 0.58958 0.86901 0.0
H975 H 0.03931 0.57114 0.86761 0.0
H976 H 0.07149 0.49568 0.86553 0.0
H977 H 0.11396 0.51384 0.86669 0.0
H978 H 0.03219 0.49958 0.84271 0.0
H979 H 0.04871 0.51953 0.90474 0.0
H980 H 0.06036 0.54719 0.93024 0.0
H981 H 0.99702 0.59589 0.91885 0.0
H982 H 0.98519 0.56869 0.89311 0.0
H983 H 0.92303 0.42795 0.87041 0.0
H984 H 0.96535 0.44693 0.86778 0.0
H985 H 0.93248 0.52208 0.86988 0.0
H986 H 0.89042 0.50344 0.87264 0.0
H987 H 0.97201 0.51862 0.89217 0.0
H988 H 0.9548 0.49766 0.8305 0.0
H989 H 0.94324 0.46959 0.80521 0.0
H990 H 0.00776 0.42227 0.81614 0.0
H991 H 0.01953 0.44989 0.84167 0.0
C992 C 0.07995 0.56908 0.86808 0.0
C993 C 0.10141 0.55322 0.8681 0.0
C994 C 0.05556 0.55855 0.86736 0.0
C995 C 0.05218 0.53198 0.8667 0.0
C996 C 0.07359 0.51621 0.86606 0.0
C997 C 0.0979 0.52667 0.8668 0.0
C998 C 0.02643 0.52044 0.86732 0.0
C999 C 0.01911 0.50355 0.85362 0.0
C1000 C 0.00919 0.52588 0.8814 0.0
C1001 C 0.01624 0.54224 0.89688 0.0
C1002 C 0.03739 0.53626 0.90758 0.0
C1003 C 0.044 0.55183 0.92209 0.0
C1004 C 0.02948 0.57333 0.92613 0.0
C1005 C 0.00828 0.57926 0.91569 0.0
C1006 C 1.0016 0.56377 0.90114 0.0
C1007 C 0.92481 0.4485 0.87021 0.0
C1008 C 0.90327 0.46412 0.87177 0.0
C1009 C 0.94901 0.45934 0.86864 0.0
C1010 C 0.9521 0.48597 0.86855 0.0
C1011 C 0.93061 0.50152 0.86996 0.0
C1012 C 0.90651 0.49076 0.87149 0.0
C1013 C 0.97768 0.49781 0.86752 0.0
C1014 C 0.98502 0.51471 0.88121 0.0
C1015 C 0.99492 0.49232 0.85345 0.0
C1016 C 0.98789 0.47569 0.83811 0.0
C1017 C 0.96641 0.48115 0.82761 0.0
C1018 C 0.95984 0.46534 0.81321 0.0
C1019 C 0.97472 0.44412 0.8091 0.0
C1020 C 0.99623 0.4387 0.81936 0.0
C1021 C 0.00287 0.45443 0.83379 0.0
H1022 H 0.9696 0.43191 0.79795 0.0
H1023 H 0.03463 0.58536 0.93737 0.0
H1024 H 0.16744 0.32865 0.38376 0.0
H1025 H 0.19287 0.29003 0.38062 0.0
H1026 H 0.24433 0.32978 0.34534 0.0
H1027 H 0.21897 0.36866 0.34842 0.0
H1028 H 0.23509 0.27967 0.33419 0.0
H1029 H 0.26036 0.32421 0.3875 0.0
H1030 H 0.25395 0.34586 0.4166 0.0
H1031 H 0.22308 0.2771 0.43904 0.0
H1032 H 0.22898 0.25514 0.41 0.0
H1033 H 0.33817 0.19312 0.38063 0.0
H1034 H 0.31493 0.233 0.37697 0.0
H1035 H 0.25523 0.19287 0.34927 0.0
H1036 H 0.27862 0.15289 0.35264 0.0
H1037 H 0.2711 0.24536 0.39092 0.0
H1038 H 0.22441 0.23381 0.32078 0.0
H1039 H 0.2339 0.21426 0.29136 0.0
H1040 H 0.31363 0.22062 0.30189 0.0
H1041 H 0.30463 0.2405 0.33125 0.0
C1042 C 0.18393 0.32914 0.37508 0.0
C1043 C 0.19124 0.35184 0.36642 0.0
C1044 C 0.1985 0.30703 0.37336 0.0
C1045 C 0.22068 0.3071 0.36294 0.0
C1046 C 0.22731 0.32931 0.35348 0.0
C1047 C 0.2128 0.35153 0.35528 0.0
C1048 C 0.2377 0.28451 0.36288 0.0
C1049 C 0.24294 0.2721 0.34657 0.0
C1050 C 0.24842 0.27497 0.379 0.0
C1051 C 0.24489 0.2881 0.39651 0.0
C1052 C 0.25201 0.31377 0.3986 0.0
C1053 C 0.2485 0.32609 0.41509 0.0
C1054 C 0.23805 0.31289 0.42965 0.0
C1055 C 0.23114 0.28732 0.42775 0.0
C1056 C 0.23458 0.27492 0.41128 0.0
C1057 C 0.32029 0.1928 0.37349 0.0
C1058 C 0.31027 0.16975 0.36694 0.0
C1059 C 0.30695 0.21564 0.37148 0.0
C1060 C 0.28329 0.21605 0.36284 0.0
C1061 C 0.27358 0.19319 0.35579 0.0
C1062 C 0.28697 0.17029 0.35775 0.0
C1063 C 0.26821 0.24006 0.36223 0.0
C1064 C 0.26327 0.2528 0.37848 0.0
C1065 C 0.25818 0.2501 0.34602 0.0
C1066 C 0.26382 0.23841 0.3283 0.0
C1067 C 0.24397 0.23112 0.31679 0.0
C1068 C 0.24926 0.21997 0.30013 0.0
C1069 C 0.27435 0.21613 0.29479 0.0
C1070 C 0.2942 0.22351 0.30607 0.0
C1071 C 0.28901 0.23468 0.32274 0.0
H1072 H 0.27841 0.20747 0.28189 0.0
H1073 H 0.23535 0.32245 0.4424 0.0
H1074 H 0.67199 0.83059 0.38905 0.0
H1075 H 0.69585 0.79128 0.38505 0.0
H1076 H 0.73779 0.8258 0.34151 0.0
H1077 H 0.71464 0.86572 0.34605 0.0
H1078 H 0.70262 0.75718 0.36152 0.0
H1079 H 0.79769 0.80311 0.34024 0.0
H1080 H 0.82084 0.84367 0.34388 0.0
H1081 H 0.78097 0.8582 0.39318 0.0
H1082 H 0.75783 0.81761 0.38995 0.0
H1083 H 0.78507 0.6532 0.34555 0.0
H1084 H 0.76204 0.6932 0.34102 0.0
H1085 H 0.80246 0.72678 0.38557 0.0
H1086 H 0.82627 0.68744 0.38954 0.0
H1087 H 0.79646 0.76141 0.36248 0.0
H1088 H 0.74006 0.70011 0.38895 0.0
H1089 H 0.71681 0.65943 0.39111 0.0
H1090 H 0.67907 0.67553 0.3412 0.0
H1091 H 0.70235 0.71619 0.33864 0.0
C1092 C 0.68609 0.82978 0.37848 0.0
C1093 C 0.69153 0.8514 0.36796 0.0
C1094 C 0.69975 0.8072 0.37618 0.0
C1095 C 0.71903 0.80555 0.36319 0.0
C1096 C 0.72348 0.82668 0.35194 0.0
C1097 C 0.71009 0.84947 0.35445 0.0
C1098 C 0.73505 0.78212 0.36212 0.0
C1099 C 0.72314 0.75817 0.3616 0.0
C1100 C 0.76188 0.78315 0.36257 0.0
C1101 C 0.77582 0.8075 0.36471 0.0
C1102 C 0.79392 0.81495 0.35187 0.0
C1103 C 0.80703 0.83794 0.35386 0.0
C1104 C 0.8023 0.85355 0.36871 0.0
C1105 C 0.78453 0.84615 0.38165 0.0
C1106 C 0.7714 0.82317 0.37973 0.0
C1107 C 0.78931 0.66927 0.35418 0.0
C1108 C 0.80744 0.66708 0.36796 0.0
C1109 C 0.77598 0.6921 0.35167 0.0
C1110 C 0.78002 0.71299 0.36319 0.0
C1111 C 0.79888 0.71107 0.37647 0.0
C1112 C 0.81251 0.68846 0.37876 0.0
C1113 C 0.76403 0.73645 0.36209 0.0
C1114 C 0.77594 0.76042 0.36214 0.0
C1115 C 0.73719 0.73542 0.36199 0.0
C1116 C 0.72316 0.71102 0.3635 0.0
C1117 C 0.72693 0.69488 0.37837 0.0
C1118 C 0.71374 0.67185 0.37968 0.0
C1119 C 0.69654 0.66486 0.36627 0.0
C1120 C 0.69244 0.68094 0.35155 0.0
C1121 C 0.70563 0.70398 0.35017 0.0
H1122 H 0.68633 0.64703 0.3673 0.0
H1123 H 0.81245 0.87135 0.37022 0.0
H1124 H 0.16246 0.68823 0.1485 0.0
H1125 H 0.18493 0.72848 0.15301 0.0
H1126 H 0.25518 0.68741 0.15937 0.0
H1127 H 0.23249 0.6471 0.15588 0.0
H1128 H 0.25705 0.72552 0.18033 0.0
H1129 H 0.23552 0.71694 0.11813 0.0
H1130 H 0.20765 0.71046 0.09189 0.0
H1131 H 0.16564 0.77768 0.10572 0.0
H1132 H 0.19307 0.78438 0.13219 0.0
H1133 H 0.33927 0.82586 0.14765 0.0
H1134 H 0.31479 0.78654 0.15173 0.0
H1135 H 0.24776 0.8308 0.16255 0.0
H1136 H 0.2722 0.8702 0.15891 0.0
H1137 H 0.24362 0.79243 0.13411 0.0
H1138 H 0.27047 0.80123 0.19581 0.0
H1139 H 0.30196 0.80667 0.22 0.0
H1140 H 0.33867 0.73726 0.2041 0.0
H1141 H 0.3076 0.73159 0.17963 0.0
C1142 C 0.18263 0.68779 0.15115 0.0
C1143 C 0.19572 0.66449 0.15173 0.0
C1144 C 0.19554 0.71084 0.15358 0.0
C1145 C 0.22198 0.71119 0.15603 0.0
C1146 C 0.23485 0.68782 0.15742 0.0
C1147 C 0.22184 0.66472 0.15542 0.0
C1148 C 0.23634 0.73576 0.15638 0.0
C1149 C 0.25421 0.73999 0.1701 0.0
C1150 C 0.23268 0.75495 0.14315 0.0
C1151 C 0.21616 0.751 0.12725 0.0
C1152 C 0.22022 0.73024 0.11564 0.0
C1153 C 0.20452 0.72654 0.10072 0.0
C1154 C 0.18484 0.74361 0.09717 0.0
C1155 C 0.18086 0.76445 0.10851 0.0
C1156 C 0.19648 0.76822 0.12347 0.0
C1157 C 0.31942 0.82723 0.15122 0.0
C1158 C 0.30769 0.85117 0.15298 0.0
C1159 C 0.30547 0.80475 0.15355 0.0
C1160 C 0.27946 0.80577 0.15743 0.0
C1161 C 0.26782 0.82961 0.15959 0.0
C1162 C 0.28185 0.85209 0.15759 0.0
C1163 C 0.26411 0.78203 0.15801 0.0
C1164 C 0.24619 0.77796 0.14439 0.0
C1165 C 0.26822 0.76279 0.17103 0.0
C1166 C 0.28684 0.76612 0.18578 0.0
C1167 C 0.28539 0.78724 0.19736 0.0
C1168 C 0.30314 0.79034 0.21115 0.0
C1169 C 0.32234 0.77236 0.21356 0.0
C1170 C 0.3238 0.75119 0.20221 0.0
C1171 C 0.30611 0.74801 0.18839 0.0
H1172 H 0.33606 0.77479 0.22424 0.0
H1173 H 0.17271 0.74072 0.08561 0.0
H1174 H 0.72419 0.14938 0.16557 0.0
H1175 H 0.74721 0.18959 0.16922 0.0
H1176 H 0.68884 0.2289 0.13959 0.0
H1177 H 0.66589 0.18886 0.13576 0.0
H1178 H 0.73413 0.24019 0.12641 0.0
H1179 H 0.69622 0.23788 0.18487 0.0
H1180 H 0.68522 0.21924 0.21432 0.0
H1181 H 0.76412 0.214 0.22785 0.0
H1182 H 0.77561 0.2323 0.19836 0.0
H1183 H 0.78174 0.36618 0.16714 0.0
H1184 H 0.7569 0.32699 0.17071 0.0
H1185 H 0.8112 0.28621 0.13837 0.0
H1186 H 0.83603 0.32515 0.1347 0.0
H1187 H 0.76566 0.27753 0.18351 0.0
H1188 H 0.77802 0.24904 0.10898 0.0
H1189 H 0.78652 0.26939 0.07964 0.0
H1190 H 0.75343 0.33913 0.09856 0.0
H1191 H 0.74439 0.31907 0.1279 0.0
C1192 C 0.71604 0.16666 0.16009 0.0
C1193 C 0.69322 0.16585 0.15032 0.0
C1194 C 0.72921 0.18967 0.16222 0.0
C1195 C 0.71978 0.21234 0.15468 0.0
C1196 C 0.69657 0.21168 0.14547 0.0
C1197 C 0.6834 0.18874 0.14335 0.0
C1198 C 0.73482 0.23637 0.15528 0.0
C1199 C 0.74098 0.2483 0.13892 0.0
C1200 C 0.74362 0.24721 0.17158 0.0
C1201 C 0.73678 0.23625 0.18933 0.0
C1202 C 0.71123 0.23256 0.19406 0.0
C1203 C 0.70491 0.22209 0.21078 0.0
C1204 C 0.72396 0.21538 0.22293 0.0
C1205 C 0.74938 0.21918 0.21842 0.0
C1206 C 0.75581 0.22963 0.20171 0.0
C1207 C 0.78864 0.34877 0.16106 0.0
C1208 C 0.81079 0.34888 0.1505 0.0
C1209 C 0.77443 0.32637 0.16314 0.0
C1210 C 0.782 0.30375 0.15461 0.0
C1211 C 0.80482 0.30351 0.1449 0.0
C1212 C 0.81905 0.32582 0.14285 0.0
C1213 C 0.76521 0.28094 0.15464 0.0
C1214 C 0.75879 0.2693 0.17104 0.0
C1215 C 0.75582 0.27048 0.13839 0.0
C1216 C 0.76079 0.28261 0.12069 0.0
C1217 C 0.77247 0.26868 0.10685 0.0
C1218 C 0.77739 0.28017 0.09022 0.0
C1219 C 0.7706 0.30556 0.08726 0.0
C1220 C 0.75877 0.31949 0.10089 0.0
C1221 C 0.75377 0.30808 0.11753 0.0
H1222 H 0.77445 0.31443 0.07439 0.0
H1223 H 0.71903 0.20728 0.23587 0.0
H1224 H 0.7332 0.87054 0.65767 0.0
H1225 H 0.75696 0.83078 0.66136 0.0
H1226 H 0.68939 0.78753 0.65006 0.0
H1227 H 0.66559 0.82724 0.64589 0.0
H1228 H 0.72327 0.76883 0.68052 0.0
H1229 H 0.72346 0.79345 0.61735 0.0
H1230 H 0.73056 0.82385 0.59253 0.0
H1231 H 0.8087 0.83102 0.60777 0.0
H1232 H 0.80193 0.80094 0.63288 0.0
H1233 H 0.77262 0.64774 0.65613 0.0
H1234 H 0.74996 0.68788 0.66007 0.0
H1235 H 0.81913 0.72947 0.64996 0.0
H1236 H 0.84148 0.68928 0.645 0.0
H1237 H 0.78513 0.75057 0.63195 0.0
H1238 H 0.78784 0.7249 0.69345 0.0
H1239 H 0.78247 0.69636 0.71956 0.0
H1240 H 0.70235 0.69306 0.70988 0.0
H1241 H 0.70727 0.72132 0.68356 0.0
C1242 C 0.72327 0.85258 0.6563 0.0
C1243 C 0.69752 0.85204 0.65143 0.0
C1244 C 0.73689 0.82989 0.65837 0.0
C1245 C 0.72494 0.80624 0.65593 0.0
C1246 C 0.69894 0.8056 0.65205 0.0
C1247 C 0.6854 0.82829 0.64963 0.0
C1248 C 0.74 0.78234 0.65592 0.0
C1249 C 0.73667 0.76462 0.66986 0.0
C1250 C 0.75799 0.77731 0.64229 0.0
C1251 C 0.76211 0.7952 0.62711 0.0
C1252 C 0.74209 0.8017 0.61552 0.0
C1253 C 0.74606 0.81883 0.60137 0.0
C1254 C 0.77004 0.82943 0.59861 0.0
C1255 C 0.79012 0.82284 0.60995 0.0
C1256 C 0.78623 0.80574 0.62413 0.0
C1257 C 0.78309 0.66544 0.65505 0.0
C1258 C 0.80886 0.66533 0.65028 0.0
C1259 C 0.77011 0.68847 0.65739 0.0
C1260 C 0.78278 0.71194 0.65555 0.0
C1261 C 0.80879 0.71174 0.65141 0.0
C1262 C 0.82163 0.68873 0.64867 0.0
C1263 C 0.76863 0.7366 0.65666 0.0
C1264 C 0.77201 0.7546 0.64282 0.0
C1265 C 0.75103 0.74202 0.67059 0.0
C1266 C 0.74797 0.72506 0.68644 0.0
C1267 C 0.7691 0.71794 0.69681 0.0
C1268 C 0.76613 0.70184 0.71166 0.0
C1269 C 0.74209 0.69285 0.71635 0.0
C1270 C 0.72096 0.70002 0.70622 0.0
C1271 C 0.72382 0.7161 0.69135 0.0
H1272 H 0.73983 0.68038 0.72785 0.0
H1273 H 0.77309 0.84268 0.58765 0.0
H1274 H 0.16547 0.32534 0.63502 0.0
H1275 H 0.18897 0.2857 0.63913 0.0
H1276 H 0.2465 0.32615 0.66882 0.0
H1277 H 0.22293 0.36595 0.66489 0.0
H1278 H 0.23451 0.27485 0.62627 0.0
H1279 H 0.27533 0.28423 0.69828 0.0
H1280 H 0.26345 0.30279 0.72758 0.0
H1281 H 0.1847 0.29628 0.71387 0.0
H1282 H 0.19609 0.27738 0.6846 0.0
H1283 H 0.33695 0.19073 0.6357 0.0
H1284 H 0.31196 0.2296 0.63898 0.0
H1285 H 0.25744 0.18894 0.67131 0.0
H1286 H 0.28242 0.14983 0.66813 0.0
H1287 H 0.2659 0.23861 0.68379 0.0
H1288 H 0.24541 0.19618 0.62838 0.0
H1289 H 0.25497 0.17584 0.59925 0.0
H1290 H 0.28785 0.24561 0.58002 0.0
H1291 H 0.27883 0.26625 0.60915 0.0
C1292 C 0.18291 0.32579 0.64268 0.0
C1293 C 0.19232 0.34889 0.6496 0.0
C1294 C 0.1964 0.30308 0.64496 0.0
C1295 C 0.21954 0.30285 0.65427 0.0
C1296 C 0.22857 0.32573 0.66174 0.0
C1297 C 0.21507 0.34851 0.65946 0.0
C1298 C 0.2349 0.27904 0.65511 0.0
C1299 C 0.24133 0.26699 0.63887 0.0
C1300 C 0.24368 0.26853 0.67153 0.0
C1301 C 0.2366 0.27963 0.68917 0.0
C1302 C 0.25548 0.28668 0.70154 0.0
C1303 C 0.24883 0.29727 0.71814 0.0
C1304 C 0.22334 0.30079 0.72256 0.0
C1305 C 0.20444 0.29365 0.7104 0.0
C1306 C 0.21099 0.28303 0.6938 0.0
C1307 C 0.31989 0.19008 0.64379 0.0
C1308 C 0.31161 0.16706 0.65154 0.0
C1309 C 0.30557 0.21235 0.6456 0.0
C1310 C 0.28264 0.21211 0.65518 0.0
C1311 C 0.27505 0.18956 0.66383 0.0
C1312 C 0.28934 0.1672 0.66197 0.0
C1313 C 0.26574 0.23482 0.65495 0.0
C1314 C 0.25908 0.24661 0.67123 0.0
C1315 C 0.25641 0.24498 0.63858 0.0
C1316 C 0.26166 0.23268 0.621 0.0
C1317 C 0.25485 0.20712 0.61798 0.0
C1318 C 0.26015 0.19555 0.60147 0.0
C1319 C 0.27207 0.20941 0.58781 0.0
C1320 C 0.27865 0.23489 0.59062 0.0
C1321 C 0.27344 0.24654 0.60713 0.0
H1322 H 0.27615 0.20042 0.57504 0.0
H1323 H 0.21824 0.30901 0.73541 0.0
H1324 H 0.72238 0.1497 0.84997 0.0
H1325 H 0.74701 0.18903 0.84656 0.0
H1326 H 0.69273 0.22916 0.87931 0.0
H1327 H 0.6681 0.19005 0.88284 0.0
H1328 H 0.73815 0.23844 0.83407 0.0
H1329 H 0.7259 0.26642 0.90868 0.0
H1330 H 0.71739 0.24589 0.93796 0.0
H1331 H 0.75048 0.17627 0.91882 0.0
H1332 H 0.75952 0.1965 0.88954 0.0
H1333 H 0.78072 0.36617 0.85216 0.0
H1334 H 0.75732 0.3262 0.84847 0.0
H1335 H 0.81521 0.28631 0.87819 0.0
H1336 H 0.83851 0.32613 0.88208 0.0
H1337 H 0.76993 0.27527 0.89126 0.0
H1338 H 0.80773 0.27766 0.83272 0.0
H1339 H 0.81873 0.29646 0.80331 0.0
H1340 H 0.73982 0.30237 0.78998 0.0
H1341 H 0.72833 0.28392 0.81942 0.0
C1342 C 0.71544 0.167 0.85619 0.0
C1343 C 0.69336 0.16665 0.86681 0.0
C1344 C 0.72953 0.18949 0.85419 0.0
C1345 C 0.72191 0.21196 0.86288 0.0
C1346 C 0.69915 0.21198 0.87266 0.0
C1347 C 0.68504 0.18957 0.87462 0.0
C1348 C 0.73863 0.23482 0.86293 0.0
C1349 C 0.74506 0.24656 0.84656 0.0
C1350 C 0.74808 0.24515 0.8792 0.0
C1351 C 0.74312 0.23292 0.89686 0.0
C1352 C 0.73144 0.24677 0.91075 0.0
C1353 C 0.72652 0.23518 0.92734 0.0
C1354 C 0.73331 0.20977 0.93023 0.0
C1355 C 0.74514 0.19592 0.91655 0.0
C1356 C 0.75014 0.20743 0.89995 0.0
C1357 C 0.78869 0.34882 0.85765 0.0
C1358 C 0.81148 0.34941 0.86746 0.0
C1359 C 0.77529 0.32594 0.8555 0.0
C1360 C 0.78448 0.30317 0.86305 0.0
C1361 C 0.80766 0.30361 0.87231 0.0
C1362 C 0.82104 0.32642 0.87445 0.0
C1363 C 0.76922 0.27927 0.8624 0.0
C1364 C 0.76302 0.26728 0.87873 0.0
C1365 C 0.76032 0.26859 0.84607 0.0
C1366 C 0.76717 0.27962 0.82835 0.0
C1367 C 0.79272 0.28316 0.82357 0.0
C1368 C 0.79904 0.29371 0.80689 0.0
C1369 C 0.77999 0.30066 0.7948 0.0
C1370 C 0.75456 0.29701 0.79936 0.0
C1371 C 0.74813 0.28647 0.81604 0.0
H1372 H 0.78492 0.30883 0.78189 0.0
H1373 H 0.72946 0.20082 0.94307 0.0
H1374 H 0.23105 0.64754 0.85537 0.0
H1375 H 0.25492 0.68726 0.85173 0.0
H1376 H 0.18789 0.73055 0.86432 0.0
H1377 H 0.16396 0.69089 0.86838 0.0
H1378 H 0.22022 0.75033 0.83419 0.0
H1379 H 0.22399 0.72268 0.89657 0.0
H1380 H 0.23241 0.6912 0.92049 0.0
H1381 H 0.30971 0.685 0.90302 0.0
H1382 H 0.30161 0.71617 0.8788 0.0
H1383 H 0.27103 0.87018 0.8599 0.0
H1384 H 0.24817 0.83018 0.85575 0.0
H1385 H 0.31791 0.78838 0.86272 0.0
H1386 H 0.34052 0.82839 0.86793 0.0
H1387 H 0.28498 0.76631 0.88122 0.0
H1388 H 0.28401 0.79499 0.82033 0.0
H1389 H 0.27709 0.82485 0.79517 0.0
H1390 H 0.19764 0.82749 0.80741 0.0
H1391 H 0.20414 0.7979 0.83281 0.0
C1392 C 0.22124 0.6655 0.85704 0.0
C1393 C 0.19562 0.66605 0.86223 0.0
C1394 C 0.23494 0.68818 0.855 0.0
C1395 C 0.22319 0.71182 0.85784 0.0
C1396 C 0.19728 0.7125 0.86203 0.0
C1397 C 0.18366 0.68981 0.86439 0.0
C1398 C 0.23838 0.73566 0.85792 0.0
C1399 C 0.23427 0.75403 0.84451 0.0
C1400 C 0.25718 0.74006 0.8711 0.0
C1401 C 0.26212 0.72152 0.88575 0.0
C1402 C 0.24272 0.71442 0.89773 0.0
C1403 C 0.24744 0.69667 0.91136 0.0
C1404 C 0.27156 0.68604 0.91324 0.0
C1405 C 0.29102 0.69321 0.90153 0.0
C1406 C 0.28638 0.71093 0.88785 0.0
C1407 C 0.28156 0.85248 0.86026 0.0
C1408 C 0.3076 0.85245 0.86422 0.0
C1409 C 0.26847 0.82953 0.85778 0.0
C1410 C 0.28125 0.80604 0.85867 0.0
C1411 C 0.30748 0.80613 0.86201 0.0
C1412 C 0.32046 0.82904 0.8649 0.0
C1413 C 0.26705 0.78142 0.85738 0.0
C1414 C 0.27122 0.76278 0.87067 0.0
C1415 C 0.24862 0.77665 0.84388 0.0
C1416 C 0.24461 0.79439 0.82857 0.0
C1417 C 0.26509 0.80207 0.81774 0.0
C1418 C 0.26124 0.81893 0.80342 0.0
C1419 C 0.23695 0.8281 0.79972 0.0
C1420 C 0.21645 0.82038 0.81031 0.0
C1421 C 0.2202 0.80354 0.82465 0.0
H1422 H 0.23401 0.84116 0.78863 0.0
H1423 H 0.27518 0.67231 0.9238 0.0
H1424 H 0.29059 0.07855 0.32047 0.0
H1425 H 0.28231 0.06429 0.28969 0.0
H1426 H 0.27898 0.98638 0.30807 0.0
H1427 H 0.28743 1.00042 0.33881 0.0
H1428 H 0.31167 0.99178 0.28072 0.0
H1429 H 0.226 0.01684 0.29261 0.0
H1430 H 0.19195 0.04593 0.30223 0.0
H1431 H 0.21264 0.09876 0.26058 0.0
H1432 H 0.24706 0.07014 0.25085 0.0
H1433 H 0.2869 0.9384 0.19618 0.0
H1434 H 0.27882 0.95113 0.2273 0.0
H1435 H 0.28141 0.03022 0.21159 0.0
H1436 H 0.28901 0.01766 0.18039 0.0
H1437 H 0.24663 0.02299 0.23787 0.0
H1438 H 0.33379 1.00122 0.22773 0.0
H1439 H 0.36919 0.97387 0.21799 0.0
H1440 H 0.34726 0.91696 0.25653 0.0
H1441 H 0.31148 0.94384 0.26632 0.0
C1442 C 0.28754 0.05843 0.31804 0.0
C1443 C 0.2898 0.04062 0.33212 0.0
C1444 C 0.28275 0.0503 0.30041 0.0
C1445 C 0.28002 0.02424 0.29653 0.0
C1446 C 0.28109 1.00657 0.31071 0.0
C1447 C 0.28584 0.01467 0.32831 0.0
C1448 C 0.27844 0.01517 0.27759 0.0
C1449 C 0.29711 0.99822 0.27147 0.0
C1450 C 0.25998 0.02421 0.26532 0.0
C1451 C 0.23925 0.04143 0.2711 0.0
C1452 C 0.22342 0.03475 0.28559 0.0
C1453 C 0.20403 0.05114 0.29105 0.0
C1454 C 0.20017 0.07421 0.28205 0.0
C1455 C 0.21566 0.0809 0.26755 0.0
C1456 C 0.2351 0.06459 0.26204 0.0
C1457 C 0.28519 0.95849 0.19926 0.0
C1458 C 0.28888 0.97701 0.18581 0.0
C1459 C 0.28068 0.96575 0.21708 0.0
C1460 C 0.28005 0.99165 0.22186 0.0
C1461 C 0.28193 0.01013 0.20826 0.0
C1462 C 0.28632 1.00289 0.1904 0.0
C1463 C 0.27972 0.99946 0.24112 0.0
C1464 C 0.26092 0.0163 0.24723 0.0
C1465 C 0.29823 0.99056 0.25341 0.0
C1466 C 0.31979 0.97441 0.24761 0.0
C1467 C 0.3364 0.98279 0.23403 0.0
C1468 C 0.35655 0.96739 0.22851 0.0
C1469 C 0.36043 0.94366 0.2366 0.0
C1470 C 0.3442 0.93532 0.25025 0.0
C1471 C 0.32399 0.95063 0.25579 0.0
H1472 H 0.37604 0.93177 0.23232 0.0
H1473 H 0.18514 0.08687 0.2863 0.0
H1474 H 0.71804 0.99768 0.17833 0.0
H1475 H 0.72556 0.98398 0.20928 0.0
H1476 H 0.72288 0.06213 0.22701 0.0
H1477 H 0.71535 0.07609 0.196 0.0
H1478 H 0.75954 0.03196 0.24565 0.0
H1479 H 0.67086 0.02952 0.22961 0.0
H1480 H 0.63498 0.0173 0.21016 0.0
H1481 H 0.65198 0.9382 0.21865 0.0
H1482 H 0.68816 0.94996 0.23798 0.0
H1483 H 0.71862 0.01669 0.33649 0.0
H1484 H 0.7265 0.02797 0.30511 0.0
H1485 H 0.71885 0.94902 0.28993 0.0
H1486 H 0.71058 0.93762 0.32131 0.0
H1487 H 0.68982 0.97808 0.26944 0.0
H1488 H 0.77638 0.98016 0.28769 0.0
H1489 H 0.81304 0.9921 0.30642 0.0
H1490 H 0.801 0.07103 0.29378 0.0
H1491 H 0.76403 0.05959 0.27516 0.0
C1492 C 0.7196 0.01205 0.18872 0.0
C1493 C 0.71581 0.03798 0.1847 0.0
C1494 C 0.72385 1.00416 0.20643 0.0
C1495 C 0.72439 0.022 0.22048 0.0
C1496 C 0.72248 0.04804 0.21637 0.0
C1497 C 0.71813 0.05598 0.19863 0.0
C1498 C 0.7243 0.01329 0.2395 0.0
C1499 C 0.74423 0.02036 0.25095 0.0
C1500 C 0.70455 0.99773 0.24627 0.0
C1501 C 0.68238 0.99062 0.23507 0.0
C1502 C 0.66702 0.00952 0.22725 0.0
C1503 C 0.64663 1.00268 0.21626 0.0
C1504 C 0.6413 0.97699 0.2131 0.0
C1505 C 0.65619 0.95809 0.22107 0.0
C1506 C 0.67662 0.96483 0.23206 0.0
C1507 C 0.7191 1.00163 0.32655 0.0
C1508 C 0.71387 0.97625 0.33143 0.0
C1509 C 0.7237 1.00812 0.30857 0.0
C1510 C 0.72335 0.98936 0.2951 0.0
C1511 C 0.71918 0.96385 0.30006 0.0
C1512 C 0.71456 0.95734 0.31804 0.0
C1513 C 0.72516 0.99664 0.27576 0.0
C1514 C 0.70536 0.98944 0.26421 0.0
C1515 C 0.74506 0.01204 0.26896 0.0
C1516 C 0.76728 0.01903 0.28015 0.0
C1517 C 0.78141 1.00009 0.28902 0.0
C1518 C 0.80228 1.00676 0.2996 0.0
C1519 C 0.80931 0.03231 0.30132 0.0
C1520 C 0.79551 0.05124 0.29244 0.0
C1521 C 0.77462 0.04467 0.28186 0.0
H1522 H 0.82547 0.03744 0.30951 0.0
H1523 H 0.62563 0.97172 0.20448 0.0
H1524 H 0.71508 1.00025 0.83663 0.0
H1525 H 0.72337 0.98857 0.8054 0.0
H1526 H 0.72237 0.06796 0.79028 0.0
H1527 H 0.71358 0.07977 0.8215 0.0
H1528 H 0.69205 0.04149 0.76927 0.0
H1529 H 0.77762 0.03167 0.78912 0.0
H1530 H 0.81216 0.01613 0.80856 0.0
H1531 H 0.79327 0.93883 0.79523 0.0
H1532 H 0.75837 0.95389 0.77589 0.0
H1533 H 0.71957 0.01863 0.67831 0.0
H1534 H 0.72684 0.03258 0.70924 0.0
H1535 H 0.72139 0.9548 0.7276 0.0
H1536 H 0.71429 0.94061 0.69664 0.0
H1537 H 0.75772 0.98212 0.74648 0.0
H1538 H 0.67042 0.99146 0.72917 0.0
H1539 H 0.63523 1.00622 0.71 0.0
H1540 H 0.65702 0.08398 0.71917 0.0
H1541 H 0.69259 0.06965 0.73819 0.0
C1542 C 0.71714 0.01529 0.82674 0.0
C1543 C 0.71357 0.04096 0.83158 0.0
C1544 C 0.72198 0.00857 0.80885 0.0
C1545 C 0.72361 0.02737 0.79543 0.0
C1546 C 0.72116 0.05309 0.80037 0.0
C1547 C 0.71624 0.05983 0.81826 0.0
C1548 C 0.72552 0.02008 0.7761 0.0
C1549 C 0.70677 0.02896 0.76425 0.0
C1550 C 0.74422 1.00306 0.76958 0.0
C1551 C 0.76524 0.99392 0.78117 0.0
C1552 C 0.7807 0.01135 0.79044 0.0
C1553 C 0.80037 1.00263 0.80142 0.0
C1554 C 0.80487 0.97651 0.80316 0.0
C1555 C 0.78975 0.95906 0.79388 0.0
C1556 C 0.77004 0.96768 0.78289 0.0
C1557 C 0.72043 1.00439 0.68885 0.0
C1558 C 0.71608 0.97851 0.685 0.0
C1559 C 0.72451 0.01243 0.70655 0.0
C1560 C 0.72422 0.99479 0.72078 0.0
C1561 C 0.72161 0.96876 0.71685 0.0
C1562 C 0.71751 0.96068 0.69913 0.0
C1563 C 0.72438 1.0037 0.73977 0.0
C1564 C 0.7433 0.99497 0.75153 0.0
C1565 C 0.70578 0.0208 0.74629 0.0
C1566 C 0.68434 0.02947 0.73493 0.0
C1567 C 0.66783 0.0117 0.72697 0.0
C1568 C 0.6478 0.01999 0.71616 0.0
C1569 C 0.64394 0.04602 0.71332 0.0
C1570 C 0.66006 0.06382 0.72135 0.0
C1571 C 0.68016 0.05563 0.73215 0.0
H1572 H 0.62841 0.0524 0.70495 0.0
H1573 H 0.82011 0.96979 0.81167 0.0
H1574 H 0.28424 0.9393 0.82231 0.0
H1575 H 0.27619 0.95142 0.79105 0.0
H1576 H 0.28076 0.03082 0.80564 0.0
H1577 H 0.28822 0.01888 0.83698 0.0
H1578 H 0.24599 0.02418 0.77967 0.0
H1579 H 0.3325 0.99935 0.78962 0.0
H1580 H 0.36689 0.97078 0.79949 0.0
H1581 H 0.34227 0.91403 0.76173 0.0
H1582 H 0.30749 0.94216 0.75182 0.0
H1583 H 0.29189 0.07759 0.69702 0.0
H1584 H 0.28287 0.06363 0.72778 0.0
H1585 H 0.27726 0.98585 0.70951 0.0
H1586 H 0.28652 0.99959 0.67879 0.0
H1587 H 0.30965 0.99 0.73693 0.0
H1588 H 0.22507 0.01829 0.72491 0.0
H1589 H 0.19214 0.04858 0.71514 0.0
H1590 H 0.2147 0.10086 0.75656 0.0
H1591 H 0.24802 0.07102 0.76644 0.0
C1592 C 0.28298 0.95935 0.81896 0.0
C1593 C 0.28716 0.97812 0.83213 0.0
C1594 C 0.27849 0.96626 0.80105 0.0
C1595 C 0.27844 0.99204 0.7959 0.0
C1596 C 0.28083 0.01082 0.80924 0.0
C1597 C 0.28514 1.00393 0.82718 0.0
C1598 C 0.27819 0.9994 0.77654 0.0
C1599 C 0.25998 0.01683 0.77033 0.0
C1600 C 0.29627 0.98962 0.76427 0.0
C1601 C 0.31723 0.97273 0.77013 0.0
C1602 C 0.33431 0.9807 0.78352 0.0
C1603 C 0.35388 0.9646 0.78911 0.0
C1604 C 0.35671 0.94057 0.78128 0.0
C1605 C 0.34002 0.93263 0.76781 0.0
C1606 C 0.32038 0.94864 0.7622 0.0
C1607 C 0.28819 0.05758 0.69947 0.0
C1608 C 0.29006 0.0397 0.68544 0.0
C1609 C 0.28296 0.04962 0.71708 0.0
C1610 C 0.27936 0.02366 0.72099 0.0
C1611 C 0.28003 1.00596 0.70684 0.0
C1612 C 0.28524 0.01388 0.68926 0.0
C1613 C 0.27735 0.01469 0.73995 0.0
C1614 C 0.29536 0.99709 0.74615 0.0
C1615 C 0.25927 0.02455 0.75218 0.0
C1616 C 0.23919 0.04249 0.74632 0.0
C1617 C 0.22314 0.03633 0.73185 0.0
C1618 C 0.20438 0.0534 0.72631 0.0
C1619 C 0.20136 0.07665 0.7352 0.0
C1620 C 0.21707 0.08285 0.74968 0.0
C1621 C 0.23588 0.06585 0.75527 0.0
H1622 H 0.18683 0.08984 0.73088 0.0
H1623 H 0.37188 0.92814 0.78562 0.0
H1624 H 0.78934 0.44015 0.19616 0.0
H1625 H 0.78083 0.45455 0.22691 0.0
H1626 H 0.78391 0.53273 0.20912 0.0
H1627 H 0.79239 0.51856 0.17842 0.0
H1628 H 0.81555 0.5235 0.23744 0.0
H1629 H 0.72852 0.50721 0.22254 0.0
H1630 H 0.69254 0.48156 0.2116 0.0
H1631 H 0.70541 0.42659 0.25345 0.0
H1632 H 0.74171 0.45174 0.26449 0.0
H1633 H 0.78905 0.57938 0.32104 0.0
H1634 H 0.78287 0.56719 0.28959 0.0
H1635 H 0.77667 0.48831 0.30533 0.0
H1636 H 0.78248 0.50035 0.33683 0.0
H1637 H 0.74472 0.49884 0.27777 0.0
H1638 H 0.83252 0.51132 0.29125 0.0
H1639 H 0.8701 0.53439 0.30236 0.0
H1640 H 0.8577 0.59345 0.26332 0.0
H1641 H 0.81982 0.57087 0.25213 0.0
C1642 C 0.78767 0.46039 0.19872 0.0
C1643 C 0.79166 0.47819 0.18482 0.0
C1644 C 0.78277 0.4686 0.21631 0.0
C1645 C 0.78176 0.49474 0.22033 0.0
C1646 C 0.78466 0.51248 0.20634 0.0
C1647 C 0.78941 0.50431 0.18876 0.0
C1648 C 0.77992 0.50363 0.23928 0.0
C1649 C 0.79979 0.51852 0.24615 0.0
C1650 C 0.75984 0.49638 0.25084 0.0
C1651 C 0.73799 0.48125 0.24424 0.0
C1652 C 0.72382 0.48954 0.22932 0.0
C1653 C 0.70334 0.47512 0.22312 0.0
C1654 C 0.69673 0.45243 0.2318 0.0
C1655 C 0.71057 0.44416 0.24673 0.0
C1656 C 0.73108 0.4585 0.25298 0.0
C1657 C 0.78583 0.55949 0.31787 0.0
C1658 C 0.78651 0.54082 0.33145 0.0
C1659 C 0.78242 0.55254 0.29986 0.0
C1660 C 0.7798 0.52678 0.29506 0.0
C1661 C 0.77876 0.50829 0.3087 0.0
C1662 C 0.78213 0.51522 0.32672 0.0
C1663 C 0.78021 0.51893 0.27582 0.0
C1664 C 0.76027 0.50408 0.26897 0.0
C1665 C 0.80042 0.52589 0.26428 0.0
C1666 C 0.82316 0.53956 0.27099 0.0
C1667 C 0.83768 0.52934 0.28514 0.0
C1668 C 0.85905 0.5423 0.29143 0.0
C1669 C 0.86623 0.56541 0.28359 0.0
C1670 C 0.85208 0.57557 0.2694 0.0
C1671 C 0.83066 0.56269 0.26307 0.0
H1672 H 0.88281 0.5754 0.28847 0.0
H1673 H 0.68087 0.44129 0.22697 0.0
H1674 H 0.21048 0.43816 0.32063 0.0
H1675 H 0.21988 0.44967 0.28943 0.0
H1676 H 0.22174 0.52913 0.30419 0.0
H1677 H 0.21277 0.51776 0.33541 0.0
H1678 H 0.19008 0.47666 0.26809 0.0
H1679 H 0.25813 0.56293 0.27481 0.0
H1680 H 0.29301 0.57745 0.29436 0.0
H1681 H 0.31012 0.4999 0.3082 0.0
H1682 H 0.27559 0.48488 0.28855 0.0
H1683 H 0.21494 0.57637 0.19514 0.0
H1684 H 0.22155 0.56237 0.22622 0.0
H1685 H 0.2263 0.48439 0.20832 0.0
H1686 H 0.21959 0.49816 0.17727 0.0
H1687 H 0.2574 0.53448 0.24551 0.0
H1688 H 0.19034 0.44837 0.23704 0.0
H1689 H 0.15464 0.43482 0.21784 0.0
H1690 H 0.13482 0.51305 0.2084 0.0
H1691 H 0.17015 0.52703 0.22773 0.0
C1692 C 0.21345 0.45805 0.31732 0.0
C1693 C 0.21081 0.47704 0.33053 0.0
C1694 C 0.21872 0.46461 0.29944 0.0
C1695 C 0.2216 0.49027 0.2944 0.0
C1696 C 0.22001 0.50918 0.30773 0.0
C1697 C 0.21478 0.50263 0.32561 0.0
C1698 C 0.22392 0.49741 0.27506 0.0
C1699 C 0.20515 0.48885 0.26312 0.0
C1700 C 0.24309 0.514 0.26861 0.0
C1701 C 0.2641 0.52281 0.28033 0.0
C1702 C 0.2694 0.54897 0.28197 0.0
C1703 C 0.2891 0.55729 0.29308 0.0
C1704 C 0.30372 0.53961 0.30256 0.0
C1705 C 0.29872 0.51357 0.30091 0.0
C1706 C 0.27906 0.50515 0.28981 0.0
C1707 C 0.21795 0.55629 0.19775 0.0
C1708 C 0.21648 0.53836 0.18372 0.0
C1709 C 0.22176 0.54833 0.21554 0.0
C1710 C 0.224 0.5223 0.21962 0.0
C1711 C 0.22428 0.50454 0.2055 0.0
C1712 C 0.22053 0.51248 0.18773 0.0
C1713 C 0.22369 0.51355 0.23866 0.0
C1714 C 0.24262 0.52197 0.25051 0.0
C1715 C 0.2046 0.49692 0.24512 0.0
C1716 C 0.18309 0.48872 0.23364 0.0
C1717 C 0.17832 0.46266 0.2309 0.0
C1718 C 0.15815 0.45491 0.22 0.0
C1719 C 0.14254 0.47307 0.21185 0.0
C1720 C 0.14699 0.49901 0.21465 0.0
C1721 C 0.16711 0.50685 0.22556 0.0
H1722 H 0.12695 0.46703 0.2034 0.0
H1723 H 0.31896 0.5461 0.31116 0.0
H1724 H 0.21667 0.49991 0.83544 0.0
H1725 H 0.22459 0.48752 0.80429 0.0
H1726 H 0.22371 0.56657 0.78832 0.0
H1727 H 0.21532 0.57909 0.81944 0.0
H1728 H 0.19273 0.53983 0.76798 0.0
H1729 H 0.27866 0.53006 0.78695 0.0
H1730 H 0.31362 0.51477 0.80611 0.0
H1731 H 0.29424 0.43729 0.79367 0.0
H1732 H 0.25893 0.4521 0.77461 0.0
H1733 H 0.21858 0.51617 0.67703 0.0
H1734 H 0.22668 0.53015 0.70783 0.0
H1735 H 0.22055 0.45254 0.72643 0.0
H1736 H 0.21259 0.4383 0.69556 0.0
H1737 H 0.2577 0.47986 0.74495 0.0
H1738 H 0.17011 0.48937 0.72839 0.0
H1739 H 0.1347 0.50406 0.7094 0.0
H1740 H 0.157 0.58183 0.71791 0.0
H1741 H 0.19281 0.56756 0.73674 0.0
C1742 C 0.21871 0.51473 0.82539 0.0
C1743 C 0.21525 0.54051 0.82995 0.0
C1744 C 0.22333 0.50759 0.80754 0.0
C1745 C 0.22483 0.52609 0.7939 0.0
C1746 C 0.22259 0.55193 0.79858 0.0
C1747 C 0.2179 0.55907 0.81642 0.0
C1748 C 0.22626 0.5184 0.77462 0.0
C1749 C 0.20729 0.52715 0.76291 0.0
C1750 C 0.24476 0.50119 0.76805 0.0
C1751 C 0.266 0.4922 0.77947 0.0
C1752 C 0.28172 0.50976 0.78841 0.0
C1753 C 0.30163 0.50117 0.79923 0.0
C1754 C 0.30611 0.47507 0.80114 0.0
C1755 C 0.29073 0.4575 0.79219 0.0
C1756 C 0.27078 0.46598 0.78136 0.0
C1757 C 0.21947 0.50195 0.68758 0.0
C1758 C 0.21467 0.47613 0.68384 0.0
C1759 C 0.22403 0.51001 0.70522 0.0
C1760 C 0.22378 0.49245 0.71948 0.0
C1761 C 0.22075 0.46643 0.71564 0.0
C1762 C 0.21617 0.45833 0.69798 0.0
C1763 C 0.22431 0.50149 0.73844 0.0
C1764 C 0.24342 0.49283 0.75007 0.0
C1765 C 0.20591 0.51874 0.74502 0.0
C1766 C 0.1843 0.52738 0.7338 0.0
C1767 C 0.16759 0.50959 0.72609 0.0
C1768 C 0.14743 0.51784 0.71538 0.0
C1769 C 0.14365 0.54385 0.71241 0.0
C1770 C 0.15998 0.56168 0.72019 0.0
C1771 C 0.18021 0.55352 0.73089 0.0
H1772 H 0.12803 0.55021 0.70411 0.0
H1773 H 0.32153 0.46846 0.80952 0.0
H1774 H 0.79336 0.57754 0.69599 0.0
H1775 H 0.78666 0.56468 0.72725 0.0
H1776 H 0.78066 0.48616 0.71073 0.0
H1777 H 0.78711 0.49888 0.67938 0.0
H1778 H 0.74783 0.4966 0.73814 0.0
H1779 H 0.83597 0.50732 0.72589 0.0
H1780 H 0.87444 0.52934 0.7152 0.0
H1781 H 0.86232 0.58909 0.75368 0.0
H1782 H 0.82361 0.56754 0.76448 0.0
H1783 H 0.78946 0.43888 0.82133 0.0
H1784 H 0.78229 0.45249 0.7902 0.0
H1785 H 0.78427 0.5311 0.80697 0.0
H1786 H 0.79131 0.51772 0.83805 0.0
H1787 H 0.81774 0.52055 0.77943 0.0
H1788 H 0.72978 0.50559 0.7929 0.0
H1789 H 0.69325 0.48032 0.80341 0.0
H1790 H 0.70737 0.42461 0.76234 0.0
H1791 H 0.74422 0.44938 0.75174 0.0
C1792 C 0.79011 0.55759 0.69893 0.0
C1793 C 0.79101 0.53922 0.68518 0.0
C1794 C 0.7864 0.55024 0.71684 0.0
C1795 C 0.78362 0.52439 0.72138 0.0
C1796 C 0.78285 0.50619 0.70756 0.0
C1797 C 0.78658 0.51352 0.68964 0.0
C1798 C 0.78352 0.51623 0.74055 0.0
C1799 C 0.76319 0.50167 0.74715 0.0
C1800 C 0.80353 0.52287 0.75234 0.0
C1801 C 0.82674 0.53597 0.74585 0.0
C1802 C 0.84139 0.52527 0.73197 0.0
C1803 C 0.86326 0.53763 0.72591 0.0
C1804 C 0.87076 0.56064 0.73371 0.0
C1805 C 0.85645 0.57129 0.74762 0.0
C1806 C 0.83456 0.559 0.75373 0.0
C1807 C 0.78781 0.45905 0.81846 0.0
C1808 C 0.79106 0.4772 0.83219 0.0
C1809 C 0.78369 0.4668 0.80065 0.0
C1810 C 0.7828 0.49283 0.79625 0.0
C1811 C 0.78494 0.51092 0.81005 0.0
C1812 C 0.78887 0.50321 0.82784 0.0
C1813 C 0.78186 0.50127 0.77716 0.0
C1814 C 0.8022 0.51572 0.77051 0.0
C1815 C 0.7621 0.4941 0.76532 0.0
C1816 C 0.7399 0.47923 0.77164 0.0
C1817 C 0.72523 0.48785 0.78621 0.0
C1818 C 0.70443 0.47364 0.79216 0.0
C1819 C 0.69803 0.45085 0.78358 0.0
C1820 C 0.71237 0.44226 0.76899 0.0
C1821 C 0.73319 0.45639 0.76299 0.0
H1822 H 0.68193 0.43987 0.78821 0.0
H1823 H 0.88771 0.57018 0.72901 0.0
loop_
_geom_bond_atom_site_label_1
_geom_bond_atom_site_label_2
_geom_bond_distance
_geom_bond_site_symmetry_2
_ccdc_geom_bond_type
O0 Cd1 2.223 . S
O0 C8 1.315 . S
Cd1 O0 2.223 . S
Cd1 O4 2.297 . S
Cd1 O5 2.439 . S
Cd1 O11 2.240 . S
Cd2 O3 2.240 . S
Cd2 O10 2.223 . S
Cd2 O12 2.297 . S
Cd2 O13 2.439 . S
O3 Cd2 2.240 . S
O3 C8 1.279 . S
O4 Cd1 2.297 . S
O4 C6 1.247 . S
O5 Cd1 2.439 . S
O5 C6 1.208 . S
C6 O4 1.247 . S
C6 O5 1.208 . S
C7 O12 1.247 . S
C7 O13 1.208 . S
C8 O0 1.315 . S
C8 O3 1.279 . S
C9 O10 1.315 . S
C9 O11 1.279 . S
O10 Cd2 2.223 . S
O10 C9 1.315 . S
O11 Cd1 2.240 . S
O11 C9 1.279 . S
O12 Cd2 2.297 . S
O12 C7 1.247 . S
O13 Cd2 2.439 . S
O13 C7 1.208 . S
O14 Cd15 2.223 . S
O14 C22 1.315 . S
Cd15 O14 2.223 . S
Cd15 O18 2.297 . S
Cd15 O19 2.439 . S
Cd15 O25 2.240 . S
Cd16 O17 2.240 . S
Cd16 O24 2.223 . S
Cd16 O26 2.297 . S
Cd16 O27 2.439 . S
O17 Cd16 2.240 . S
O17 C22 1.279 . S
O18 Cd15 2.297 . S
O18 C20 1.247 . S
O19 Cd15 2.439 . S
O19 C20 1.208 . S
C20 O18 1.247 . S
C20 O19 1.208 . S
C21 O26 1.247 . S
C21 O27 1.208 . S
C22 O14 1.315 . S
C22 O17 1.279 . S
C23 O24 1.315 . S
C23 O25 1.279 . S
O24 Cd16 2.223 . S
O24 C23 1.315 . S
O25 Cd15 2.240 . S
O25 C23 1.279 . S
O26 Cd16 2.297 . S
O26 C21 1.247 . S
O27 Cd16 2.439 . S
O27 C21 1.208 . S
O28 Cd29 2.223 . S
O28 C36 1.315 . S
Cd29 O28 2.223 . S
Cd29 O32 2.297 . S
Cd29 O33 2.439 . S
Cd29 O39 2.240 . S
Cd30 O31 2.240 . S
Cd30 O38 2.223 . S
Cd30 O40 2.297 . S
Cd30 O41 2.439 . S
O31 Cd30 2.240 . S
O31 C36 1.279 . S
O32 Cd29 2.297 . S
O32 C34 1.247 . S
O33 Cd29 2.439 . S
O33 C34 1.208 . S
C34 O32 1.247 . S
C34 O33 1.208 . S
C35 O40 1.247 . S
C35 O41 1.208 . S
C36 O28 1.315 . S
C36 O31 1.279 . S
C37 O38 1.315 . S
C37 O39 1.279 . S
O38 Cd30 2.223 . S
O38 C37 1.315 . S
O39 Cd29 2.240 . S
O39 C37 1.279 . S
O40 Cd30 2.297 . S
O40 C35 1.247 . S
O41 Cd30 2.439 . S
O41 C35 1.208 . S
O42 Cd43 2.223 . S
O42 C50 1.315 . S
Cd43 O42 2.223 . S
Cd43 O46 2.297 . S
Cd43 O47 2.439 . S
Cd43 O53 2.240 . S
Cd44 O45 2.240 . S
Cd44 O52 2.223 . S
Cd44 O54 2.297 . S
Cd44 O55 2.439 . S
O45 Cd44 2.240 . S
O45 C50 1.279 . S
O46 Cd43 2.297 . S
O46 C48 1.247 . S
O47 Cd43 2.439 . S
O47 C48 1.208 . S
C48 O46 1.247 . S
C48 O47 1.208 . S
C49 O54 1.247 . S
C49 O55 1.208 . S
C50 O42 1.315 . S
C50 O45 1.279 . S
C51 O52 1.315 . S
C51 O53 1.279 . S
O52 Cd44 2.223 . S
O52 C51 1.315 . S
O53 Cd43 2.240 . S
O53 C51 1.279 . S
O54 Cd44 2.297 . S
O54 C49 1.247 . S
O55 Cd44 2.439 . S
O55 C49 1.208 . S
O56 Cd57 2.223 . S
O56 C64 1.315 . S
Cd57 O56 2.223 . S
Cd57 O60 2.297 . S
Cd57 O61 2.439 . S
Cd57 O67 2.240 . S
Cd58 O59 2.240 . S
Cd58 O66 2.223 . S
Cd58 O68 2.297 . S
Cd58 O69 2.439 . S
O59 Cd58 2.240 . S
O59 C64 1.279 . S
O60 Cd57 2.297 . S
O60 C62 1.247 . S
O61 Cd57 2.439 . S
O61 C62 1.208 . S
C62 O60 1.247 . S
C62 O61 1.208 . S
C63 O68 1.247 . S
C63 O69 1.208 . S
C64 O56 1.315 . S
C64 O59 1.279 . S
C65 O66 1.315 . S
C65 O67 1.279 . S
O66 Cd58 2.223 . S
O66 C65 1.315 . S
O67 Cd57 2.240 . S
O67 C65 1.279 . S
O68 Cd58 2.297 . S
O68 C63 1.247 . S
O69 Cd58 2.439 . S
O69 C63 1.208 . S
O70 Cd71 2.223 . S
O70 C78 1.315 . S
Cd71 O70 2.223 . S
Cd71 O74 2.297 . S
Cd71 O75 2.439 . S
Cd71 O81 2.240 . S
Cd72 O73 2.240 . S
Cd72 O80 2.223 . S
Cd72 O82 2.297 . S
Cd72 O83 2.439 . S
O73 Cd72 2.240 . S
O73 C78 1.279 . S
O74 Cd71 2.297 . S
O74 C76 1.247 . S
O75 Cd71 2.439 . S
O75 C76 1.208 . S
C76 O74 1.247 . S
C76 O75 1.208 . S
C77 O82 1.247 . S
C77 O83 1.208 . S
C78 O70 1.315 . S
C78 O73 1.279 . S
C79 O80 1.315 . S
C79 O81 1.279 . S
O80 Cd72 2.223 . S
O80 C79 1.315 . S
O81 Cd71 2.240 . S
O81 C79 1.279 . S
O82 Cd72 2.297 . S
O82 C77 1.247 . S
O83 Cd72 2.439 . S
O83 C77 1.208 . S
O84 Cd85 2.223 . S
O84 C92 1.315 . S
Cd85 O84 2.223 . S
Cd85 O88 2.297 . S
Cd85 O89 2.439 . S
Cd85 O95 2.240 . S
Cd86 O87 2.240 . S
Cd86 O94 2.223 . S
Cd86 O96 2.297 . S
Cd86 O97 2.439 . S
O87 Cd86 2.240 . S
O87 C92 1.279 . S
O88 Cd85 2.297 . S
O88 C90 1.247 . S
O89 Cd85 2.439 . S
O89 C90 1.208 . S
C90 O88 1.247 . S
C90 O89 1.208 . S
C91 O96 1.247 . S
C91 O97 1.208 . S
C92 O84 1.315 . S
C92 O87 1.279 . S
C93 O94 1.315 . S
C93 O95 1.279 . S
O94 Cd86 2.223 . S
O94 C93 1.315 . S
O95 Cd85 2.240 . S
O95 C93 1.279 . S
O96 Cd86 2.297 . S
O96 C91 1.247 . S
O97 Cd86 2.439 . S
O97 C91 1.208 . S
O98 Cd99 2.223 . S
O98 C106 1.315 . S
Cd99 O98 2.223 . S
Cd99 O102 2.297 . S
Cd99 O103 2.439 . S
Cd99 O109 2.240 . S
Cd100 O101 2.240 . S
Cd100 O108 2.223 . S
Cd100 O110 2.297 . S
Cd100 O111 2.439 . S
O101 Cd100 2.240 . S
O101 C106 1.279 . S
O102 Cd99 2.297 . S
O102 C104 1.247 . S
O103 Cd99 2.439 . S
O103 C104 1.208 . S
C104 O102 1.247 . S
C104 O103 1.208 . S
C105 O110 1.247 . S
C105 O111 1.208 . S
C106 O98 1.315 . S
C106 O101 1.279 . S
C107 O108 1.315 . S
C107 O109 1.279 . S
O108 Cd100 2.223 . S
O108 C107 1.315 . S
O109 Cd99 2.240 . S
O109 C107 1.279 . S
O110 Cd100 2.297 . S
O110 C105 1.247 . S
O111 Cd100 2.439 . S
O111 C105 1.208 . S
O112 Cd113 2.223 . S
O112 C120 1.315 . S
Cd113 O112 2.223 . S
Cd113 O116 2.297 . S
Cd113 O117 2.439 . S
Cd113 O123 2.240 . S
Cd114 O115 2.240 . S
Cd114 O122 2.223 . S
Cd114 O124 2.297 . S
Cd114 O125 2.439 . S
O115 Cd114 2.240 . S
O115 C120 1.279 . S
O116 Cd113 2.297 . S
O116 C118 1.247 . S
O117 Cd113 2.439 . S
O117 C118 1.208 . S
C118 O116 1.247 . S
C118 O117 1.208 . S
C119 O124 1.247 . S
C119 O125 1.208 . S
C120 O112 1.315 . S
C120 O115 1.279 . S
C121 O122 1.315 . S
C121 O123 1.279 . S
O122 Cd114 2.223 . S
O122 C121 1.315 . S
O123 Cd113 2.240 . S
O123 C121 1.279 . S
O124 Cd114 2.297 . S
O124 C119 1.247 . S
O125 Cd114 2.439 . S
O125 C119 1.208 . S
O126 Cd127 2.223 . S
O126 C134 1.315 . S
Cd127 O126 2.223 . S
Cd127 O130 2.297 . S
Cd127 O131 2.439 . S
Cd127 O137 2.240 . S
Cd128 O129 2.240 . S
Cd128 O136 2.223 . S
Cd128 O138 2.297 . S
Cd128 O139 2.439 . S
O129 Cd128 2.240 . S
O129 C134 1.279 . S
O130 Cd127 2.297 . S
O130 C132 1.247 . S
O131 Cd127 2.439 . S
O131 C132 1.208 . S
C132 O130 1.247 . S
C132 O131 1.208 . S
C133 O138 1.247 . S
C133 O139 1.208 . S
C134 O126 1.315 . S
C134 O129 1.279 . S
C135 O136 1.315 . S
C135 O137 1.279 . S
O136 Cd128 2.223 . S
O136 C135 1.315 . S
O137 Cd127 2.240 . S
O137 C135 1.279 . S
O138 Cd128 2.297 . S
O138 C133 1.247 . S
O139 Cd128 2.439 . S
O139 C133 1.208 . S
O140 Cd141 2.223 . S
O140 C148 1.315 . S
Cd141 O140 2.223 . S
Cd141 O144 2.297 . S
Cd141 O145 2.439 . S
Cd141 O151 2.240 . S
Cd142 O143 2.240 . S
Cd142 O150 2.223 . S
Cd142 O152 2.297 . S
Cd142 O153 2.439 . S
O143 Cd142 2.240 . S
O143 C148 1.279 . S
O144 Cd141 2.297 . S
O144 C146 1.247 . S
O145 Cd141 2.439 . S
O145 C146 1.208 . S
C146 O144 1.247 . S
C146 O145 1.208 . S
C147 O152 1.247 . S
C147 O153 1.208 . S
C148 O140 1.315 . S
C148 O143 1.279 . S
C149 O150 1.315 . S
C149 O151 1.279 . S
O150 Cd142 2.223 . S
O150 C149 1.315 . S
O151 Cd141 2.240 . S
O151 C149 1.279 . S
O152 Cd142 2.297 . S
O152 C147 1.247 . S
O153 Cd142 2.439 . S
O153 C147 1.208 . S
O154 Cd155 2.223 . S
O154 C162 1.315 . S
Cd155 O154 2.223 . S
Cd155 O158 2.297 . S
Cd155 O159 2.439 . S
Cd155 O165 2.240 . S
Cd156 O157 2.240 . S
Cd156 O164 2.223 . S
Cd156 O166 2.297 . S
Cd156 O167 2.439 . S
O157 Cd156 2.240 . S
O157 C162 1.279 . S
O158 Cd155 2.297 . S
O158 C160 1.247 . S
O159 Cd155 2.439 . S
O159 C160 1.208 . S
C160 O158 1.247 . S
C160 O159 1.208 . S
C161 O166 1.247 . S
C161 O167 1.208 . S
C162 O154 1.315 . S
C162 O157 1.279 . S
C163 O164 1.315 . S
C163 O165 1.279 . S
O164 Cd156 2.223 . S
O164 C163 1.315 . S
O165 Cd155 2.240 . S
O165 C163 1.279 . S
O166 Cd156 2.297 . S
O166 C161 1.247 . S
O167 Cd156 2.439 . S
O167 C161 1.208 . S
O168 Cd169 2.223 . S
O168 C176 1.315 . S
Cd169 O168 2.223 . S
Cd169 O172 2.297 . S
Cd169 O173 2.439 . S
Cd169 O179 2.240 . S
Cd170 O171 2.240 . S
Cd170 O178 2.223 . S
Cd170 O180 2.297 . S
Cd170 O181 2.439 . S
O171 Cd170 2.240 . S
O171 C176 1.279 . S
O172 Cd169 2.297 . S
O172 C174 1.247 . S
O173 Cd169 2.439 . S
O173 C174 1.208 . S
C174 O172 1.247 . S
C174 O173 1.208 . S
C175 O180 1.247 . S
C175 O181 1.208 . S
C176 O168 1.315 . S
C176 O171 1.279 . S
C177 O178 1.315 . S
C177 O179 1.279 . S
O178 Cd170 2.223 . S
O178 C177 1.315 . S
O179 Cd169 2.240 . S
O179 C177 1.279 . S
O180 Cd170 2.297 . S
O180 C175 1.247 . S
O181 Cd170 2.439 . S
O181 C175 1.208 . S
O182 Cd183 2.223 . S
O182 C190 1.315 . S
Cd183 O182 2.223 . S
Cd183 O186 2.297 . S
Cd183 O187 2.439 . S
Cd183 O193 2.240 . S
Cd184 O185 2.240 . S
Cd184 O192 2.223 . S
Cd184 O194 2.297 . S
Cd184 O195 2.439 . S
O185 Cd184 2.240 . S
O185 C190 1.279 . S
O186 Cd183 2.297 . S
O186 C188 1.247 . S
O187 Cd183 2.439 . S
O187 C188 1.208 . S
C188 O186 1.247 . S
C188 O187 1.208 . S
C189 O194 1.247 . S
C189 O195 1.208 . S
C190 O182 1.315 . S
C190 O185 1.279 . S
C191 O192 1.315 . S
C191 O193 1.279 . S
O192 Cd184 2.223 . S
O192 C191 1.315 . S
O193 Cd183 2.240 . S
O193 C191 1.279 . S
O194 Cd184 2.297 . S
O194 C189 1.247 . S
O195 Cd184 2.439 . S
O195 C189 1.208 . S
O196 Cd197 2.223 . S
O196 C204 1.315 . S
Cd197 O196 2.223 . S
Cd197 O200 2.297 . S
Cd197 O201 2.439 . S
Cd197 O207 2.240 . S
Cd198 O199 2.240 . S
Cd198 O206 2.223 . S
Cd198 O208 2.297 . S
Cd198 O209 2.439 . S
O199 Cd198 2.240 . S
O199 C204 1.279 . S
O200 Cd197 2.297 . S
O200 C202 1.247 . S
O201 Cd197 2.439 . S
O201 C202 1.208 . S
C202 O200 1.247 . S
C202 O201 1.208 . S
C203 O208 1.247 . S
C203 O209 1.208 . S
C204 O196 1.315 . S
C204 O199 1.279 . S
C205 O206 1.315 . S
C205 O207 1.279 . S
O206 Cd198 2.223 . S
O206 C205 1.315 . S
O207 Cd197 2.240 . S
O207 C205 1.279 . S
O208 Cd198 2.297 . S
O208 C203 1.247 . S
O209 Cd198 2.439 . S
O209 C203 1.208 . S
O210 Cd211 2.223 . S
O210 C218 1.315 . S
Cd211 O210 2.223 . S
Cd211 O214 2.297 . S
Cd211 O215 2.439 . S
Cd211 O221 2.240 . S
Cd212 O213 2.240 . S
Cd212 O220 2.223 . S
Cd212 O222 2.297 . S
Cd212 O223 2.439 . S
O213 Cd212 2.240 . S
O213 C218 1.279 . S
O214 Cd211 2.297 . S
O214 C216 1.247 . S
O215 Cd211 2.439 . S
O215 C216 1.208 . S
C216 O214 1.247 . S
C216 O215 1.208 . S
C217 O222 1.247 . S
C217 O223 1.208 . S
C218 O210 1.315 . S
C218 O213 1.279 . S
C219 O220 1.315 . S
C219 O221 1.279 . S
O220 Cd212 2.223 . S
O220 C219 1.315 . S
O221 Cd211 2.240 . S
O221 C219 1.279 . S
O222 Cd212 2.297 . S
O222 C217 1.247 . S
O223 Cd212 2.439 . S
O223 C217 1.208 . S
H224 C242 0.951 . S
H225 C244 0.951 . S
H226 C246 0.950 . S
H227 C247 0.950 . S
H228 C249 0.950 . S
H229 C252 0.950 . S
H230 C253 0.950 . S
H231 C255 0.950 . S
H232 C256 0.950 . S
H233 C257 0.951 . S
H234 C259 0.951 . S
H235 C261 0.950 . S
H236 C262 0.950 . S
H237 C264 0.950 . S
H238 C267 0.950 . S
H239 C268 0.950 . S
H240 C270 0.950 1_565 S
H241 C271 0.950 . S
C242 H224 0.951 . S
C242 C243 1.366 . S
C242 C244 1.388 . S
C243 C242 1.366 . S
C243 C247 1.385 . S
C244 H225 0.951 . S
C244 C242 1.388 . S
C244 C245 1.366 . S
C245 C244 1.366 . S
C245 C246 1.414 . S
C245 C248 1.499 . S
C246 H226 0.950 . S
C246 C245 1.414 . S
C246 C247 1.374 . S
C247 H227 0.950 . S
C247 C243 1.385 . S
C247 C246 1.374 . S
C248 C245 1.499 . S
C248 C249 1.373 . S
C248 C250 1.389 . S
C249 H228 0.950 . S
C249 C248 1.373 . S
C249 C265 1.377 . S
C250 C248 1.389 . S
C250 C251 1.524 . S
C250 C264 1.377 . S
C251 C250 1.524 . S
C251 C252 1.397 . S
C251 C256 1.363 . S
C252 H229 0.950 . S
C252 C251 1.397 . S
C252 C253 1.334 . S
C253 H230 0.950 . S
C253 C252 1.334 . S
C253 C254 1.287 . S
C254 C253 1.287 . S
C254 C255 1.524 . S
C254 H273 0.913 . S
C255 H231 0.950 . S
C255 C254 1.524 . S
C255 C256 1.415 . S
C256 H232 0.950 . S
C256 C251 1.363 . S
C256 C255 1.415 . S
C257 H233 0.951 . S
C257 C258 1.366 . S
C257 C259 1.388 . S
C258 C257 1.366 . S
C258 C262 1.385 . S
C259 H234 0.951 . S
C259 C257 1.388 . S
C259 C260 1.366 . S
C260 C259 1.366 . S
C260 C261 1.414 . S
C260 C263 1.499 . S
C261 H235 0.950 . S
C261 C260 1.414 . S
C261 C262 1.374 . S
C262 H236 0.950 . S
C262 C258 1.385 . S
C262 C261 1.374 . S
C263 C260 1.499 . S
C263 C264 1.373 . S
C263 C265 1.389 . S
C264 H237 0.950 . S
C264 C250 1.377 . S
C264 C263 1.373 . S
C265 C249 1.377 . S
C265 C263 1.389 . S
C265 C266 1.524 . S
C266 C265 1.524 . S
C266 C267 1.397 . S
C266 C271 1.363 . S
C267 H238 0.950 . S
C267 C266 1.397 . S
C267 C268 1.334 . S
C268 H239 0.950 . S
C268 C267 1.334 . S
C268 C269 1.287 . S
C269 C268 1.287 . S
C269 C270 1.524 . S
C269 H272 0.999 . S
C270 H240 0.950 1_545 S
C270 C269 1.524 . S
C270 C271 1.415 . S
C271 H241 0.950 . S
C271 C266 1.363 . S
C271 C270 1.415 . S
H272 C269 0.999 . S
H273 C254 0.913 . S
H274 C292 0.951 . S
H275 C294 0.951 . S
H276 C296 0.950 . S
H277 C297 0.950 . S
H278 C299 0.950 . S
H279 C302 0.950 . S
H280 C303 0.950 . S
H281 C305 0.950 . S
H282 C306 0.950 1_545 S
H283 C307 0.951 . S
H284 C309 0.951 . S
H285 C311 0.950 . S
H286 C312 0.950 . S
H287 C314 0.950 . S
H288 C317 0.950 . S
H289 C318 0.950 . S
H290 C320 0.950 . S
H291 C321 0.950 . S
C292 H274 0.951 . S
C292 C293 1.366 . S
C292 C294 1.388 . S
C293 C292 1.366 . S
C293 C297 1.385 . S
C294 H275 0.951 . S
C294 C292 1.388 . S
C294 C295 1.366 . S
C295 C294 1.366 . S
C295 C296 1.414 . S
C295 C298 1.499 . S
C296 H276 0.950 . S
C296 C295 1.414 . S
C296 C297 1.374 . S
C297 H277 0.950 . S
C297 C293 1.385 . S
C297 C296 1.374 . S
C298 C295 1.499 . S
C298 C299 1.373 . S
C298 C300 1.389 . S
C299 H278 0.950 . S
C299 C298 1.373 . S
C299 C315 1.377 . S
C300 C298 1.389 . S
C300 C301 1.524 . S
C300 C314 1.377 . S
C301 C300 1.524 . S
C301 C302 1.397 . S
C301 C306 1.363 . S
C302 H279 0.950 . S
C302 C301 1.397 . S
C302 C303 1.334 . S
C303 H280 0.950 . S
C303 C302 1.334 . S
C303 C304 1.287 . S
C304 C303 1.287 . S
C304 C305 1.524 1_565 S
C304 H323 0.896 1_565 S
C305 H281 0.950 . S
C305 C304 1.524 1_545 S
C305 C306 1.415 1_545 S
C306 H282 0.950 1_565 S
C306 C301 1.363 . S
C306 C305 1.415 1_565 S
C307 H283 0.951 . S
C307 C308 1.366 . S
C307 C309 1.388 . S
C308 C307 1.366 . S
C308 C312 1.385 . S
C309 H284 0.951 . S
C309 C307 1.388 . S
C309 C310 1.366 . S
C310 C309 1.366 . S
C310 C311 1.414 . S
C310 C313 1.499 . S
C311 H285 0.950 . S
C311 C310 1.414 . S
C311 C312 1.374 . S
C312 H286 0.950 . S
C312 C308 1.385 . S
C312 C311 1.374 . S
C313 C310 1.499 . S
C313 C314 1.373 . S
C313 C315 1.389 . S
C314 H287 0.950 . S
C314 C300 1.377 . S
C314 C313 1.373 . S
C315 C299 1.377 . S
C315 C313 1.389 . S
C315 C316 1.524 . S
C316 C315 1.524 . S
C316 C317 1.397 . S
C316 C321 1.363 . S
C317 H288 0.950 . S
C317 C316 1.397 . S
C317 C318 1.334 . S
C318 H289 0.950 . S
C318 C317 1.334 . S
C318 C319 1.287 . S
C319 C318 1.287 . S
C319 C320 1.524 . S
C319 H322 0.999 . S
C320 H290 0.950 . S
C320 C319 1.524 . S
C320 C321 1.415 . S
C321 H291 0.950 . S
C321 C316 1.363 . S
C321 C320 1.415 . S
H322 C319 0.999 . S
H323 C304 0.896 1_545 S
H324 C342 0.951 . S
H325 C344 0.951 . S
H326 C346 0.950 . S
H327 C347 0.950 . S
H328 C349 0.950 . S
H329 C352 0.950 . S
H330 C353 0.950 . S
H331 C355 0.950 . S
H332 C356 0.950 . S
H333 C357 0.951 . S
H334 C359 0.951 . S
H335 C361 0.950 . S
H336 C362 0.950 . S
H337 C364 0.950 . S
H338 C367 0.950 . S
H339 C368 0.950 . S
H340 C370 0.950 . S
H341 C371 0.950 . S
C342 H324 0.951 . S
C342 C343 1.366 . S
C342 C344 1.388 . S
C343 C342 1.366 . S
C343 C347 1.385 . S
C344 H325 0.951 . S
C344 C342 1.388 . S
C344 C345 1.366 . S
C345 C344 1.366 . S
C345 C346 1.414 . S
C345 C348 1.499 . S
C346 H326 0.950 . S
C346 C345 1.414 . S
C346 C347 1.374 . S
C347 H327 0.950 . S
C347 C343 1.385 . S
C347 C346 1.374 . S
C348 C345 1.499 . S
C348 C349 1.373 . S
C348 C350 1.389 . S
C349 H328 0.950 . S
C349 C348 1.373 . S
C349 C365 1.377 1_554 S
C350 C348 1.389 . S
C350 C351 1.524 . S
C350 C364 1.377 1_554 S
C351 C350 1.524 . S
C351 C352 1.397 . S
C351 C356 1.363 1_565 S
C352 H329 0.950 . S
C352 C351 1.397 . S
C352 C353 1.334 . S
C353 H330 0.950 . S
C353 C352 1.334 . S
C353 C354 1.287 1_565 S
C354 C353 1.287 1_545 S
C354 C355 1.524 . S
C354 H373 0.913 . S
C355 H331 0.950 . S
C355 C354 1.524 . S
C355 C356 1.415 . S
C356 H332 0.950 . S
C356 C351 1.363 1_545 S
C356 C355 1.415 . S
C357 H333 0.951 . S
C357 C358 1.366 . S
C357 C359 1.388 . S
C358 C357 1.366 . S
C358 C362 1.385 . S
C359 H334 0.951 . S
C359 C357 1.388 . S
C359 C360 1.366 . S
C360 C359 1.366 . S
C360 C361 1.414 . S
C360 C363 1.499 . S
C361 H335 0.950 . S
C361 C360 1.414 . S
C361 C362 1.374 . S
C362 H336 0.950 . S
C362 C358 1.385 . S
C362 C361 1.374 . S
C363 C360 1.499 . S
C363 C364 1.373 . S
C363 C365 1.389 . S
C364 H337 0.950 . S
C364 C350 1.377 1_556 S
C364 C363 1.373 . S
C365 C349 1.377 1_556 S
C365 C363 1.389 . S
C365 C366 1.524 . S
C366 C365 1.524 . S
C366 C367 1.397 . S
C366 C371 1.363 . S
C367 H338 0.950 . S
C367 C366 1.397 . S
C367 C368 1.334 . S
C368 H339 0.950 . S
C368 C367 1.334 . S
C368 C369 1.287 . S
C369 C368 1.287 . S
C369 C370 1.524 . S
C369 H372 0.999 . S
C370 H340 0.950 . S
C370 C369 1.524 . S
C370 C371 1.415 . S
C371 H341 0.950 . S
C371 C366 1.363 . S
C371 C370 1.415 . S
H372 C369 0.999 . S
H373 C354 0.913 . S
H374 C392 0.951 . S
H375 C394 0.951 . S
H376 C396 0.950 . S
H377 C397 0.950 . S
H378 C399 0.950 . S
H379 C402 0.953 . S
H380 C403 0.950 . S
H381 C405 0.950 . S
H382 C406 0.950 . S
H383 C407 0.951 . S
H384 C409 0.951 . S
H385 C411 0.950 . S
H386 C412 0.950 . S
H387 C414 0.950 . S
H388 C417 0.950 . S
H389 C418 0.950 . S
H390 C420 0.950 . S
H391 C421 0.950 . S
C392 H374 0.951 . S
C392 C393 1.366 . S
C392 C394 1.388 . S
C393 C392 1.366 . S
C393 C397 1.385 . S
C394 H375 0.951 . S
C394 C392 1.388 . S
C394 C395 1.366 . S
C395 C394 1.366 . S
C395 C396 1.414 . S
C395 C398 1.499 . S
C396 H376 0.950 . S
C396 C395 1.414 . S
C396 C397 1.374 . S
C397 H377 0.950 . S
C397 C393 1.385 . S
C397 C396 1.374 . S
C398 C395 1.499 . S
C398 C399 1.373 . S
C398 C400 1.389 . S
C399 H378 0.950 . S
C399 C398 1.373 . S
C399 C415 1.377 1_556 S
C400 C398 1.389 . S
C400 C401 1.524 . S
C400 C414 1.377 1_556 S
C401 C400 1.524 . S
C401 C402 1.420 . S
C401 C406 1.363 . S
C402 H379 0.953 . S
C402 C401 1.420 . S
C402 C403 1.308 1_545 S
C403 H380 0.950 . S
C403 C402 1.308 1_565 S
C403 C404 1.287 . S
C404 C403 1.287 . S
C404 C405 1.524 . S
C404 H423 0.913 . S
C405 H381 0.950 . S
C405 C404 1.524 . S
C405 C406 1.415 1_565 S
C406 H382 0.950 . S
C406 C401 1.363 . S
C406 C405 1.415 1_545 S
C407 H383 0.951 . S
C407 C408 1.366 . S
C407 C409 1.388 . S
C408 C407 1.366 . S
C408 C412 1.385 . S
C409 H384 0.951 . S
C409 C407 1.388 . S
C409 C410 1.366 . S
C410 C409 1.366 . S
C410 C411 1.414 . S
C410 C413 1.499 . S
C411 H385 0.950 . S
C411 C410 1.414 . S
C411 C412 1.374 . S
C412 H386 0.950 . S
C412 C408 1.385 . S
C412 C411 1.374 . S
C413 C410 1.499 . S
C413 C414 1.373 . S
C413 C415 1.389 . S
C414 H387 0.950 . S
C414 C400 1.377 1_554 S
C414 C413 1.373 . S
C415 C399 1.377 1_554 S
C415 C413 1.389 . S
C415 C416 1.524 . S
C416 C415 1.524 . S
C416 C417 1.397 . S
C416 C421 1.363 . S
C417 H388 0.950 . S
C417 C416 1.397 . S
C417 C418 1.334 . S
C418 H389 0.950 . S
C418 C417 1.334 . S
C418 C419 1.287 . S
C419 C418 1.287 . S
C419 C420 1.524 . S
C419 H422 0.999 . S
C420 H390 0.950 . S
C420 C419 1.524 . S
C420 C421 1.415 . S
C421 H391 0.950 . S
C421 C416 1.363 . S
C421 C420 1.415 . S
H422 C419 0.999 . S
H423 C404 0.913 . S
H424 C442 0.951 . S
H425 C444 0.951 . S
H426 C446 0.950 . S
H427 C447 0.950 . S
H428 C449 0.950 . S
H429 C452 0.950 . S
H430 C453 0.950 . S
H431 C455 0.950 . S
H432 C456 0.950 . S
H433 C457 0.951 . S
H434 C459 0.951 . S
H435 C461 0.950 . S
H436 C462 0.950 . S
H437 C464 0.950 . S
H438 C467 0.950 . S
H439 C468 0.950 . S
H440 C470 0.950 . S
H441 C471 0.950 . S
C442 H424 0.951 . S
C442 C443 1.366 . S
C442 C444 1.388 . S
C443 C442 1.366 . S
C443 C447 1.385 . S
C444 H425 0.951 . S
C444 C442 1.388 . S
C444 C445 1.366 . S
C445 C444 1.366 . S
C445 C446 1.414 . S
C445 C448 1.499 . S
C446 H426 0.950 . S
C446 C445 1.414 . S
C446 C447 1.374 . S
C447 H427 0.950 . S
C447 C443 1.385 . S
C447 C446 1.374 . S
C448 C445 1.499 . S
C448 C449 1.373 . S
C448 C450 1.389 . S
C449 H428 0.950 . S
C449 C448 1.373 . S
C449 C465 1.377 . S
C450 C448 1.389 . S
C450 C451 1.524 . S
C450 C464 1.377 . S
C451 C450 1.524 . S
C451 C452 1.397 . S
C451 C456 1.363 . S
C452 H429 0.950 . S
C452 C451 1.397 . S
C452 C453 1.334 . S
C453 H430 0.950 . S
C453 C452 1.334 . S
C453 C454 1.287 . S
C454 C453 1.287 . S
C454 C455 1.524 . S
C454 H473 0.913 . S
C455 H431 0.950 . S
C455 C454 1.524 . S
C455 C456 1.415 . S
C456 H432 0.950 . S
C456 C451 1.363 . S
C456 C455 1.415 . S
C457 H433 0.951 . S
C457 C458 1.366 . S
C457 C459 1.388 . S
C458 C457 1.366 . S
C458 C462 1.385 . S
C459 H434 0.951 . S
C459 C457 1.388 . S
C459 C460 1.366 . S
C460 C459 1.366 . S
C460 C461 1.414 . S
C460 C463 1.499 . S
C461 H435 0.950 . S
C461 C460 1.414 . S
C461 C462 1.374 . S
C462 H436 0.950 . S
C462 C458 1.385 . S
C462 C461 1.374 . S
C463 C460 1.499 . S
C463 C464 1.373 . S
C463 C465 1.389 . S
C464 H437 0.950 . S
C464 C450 1.377 . S
C464 C463 1.373 . S
C465 C449 1.377 . S
C465 C463 1.389 . S
C465 C466 1.524 . S
C466 C465 1.524 . S
C466 C467 1.397 . S
C466 C471 1.363 . S
C467 H438 0.950 . S
C467 C466 1.397 . S
C467 C468 1.334 . S
C468 H439 0.950 . S
C468 C467 1.334 . S
C468 C469 1.287 . S
C469 C468 1.287 . S
C469 C470 1.524 . S
C469 H472 0.999 . S
C470 H440 0.950 . S
C470 C469 1.524 . S
C470 C471 1.415 . S
C471 H441 0.950 . S
C471 C466 1.363 . S
C471 C470 1.415 . S
H472 C469 0.999 . S
H473 C454 0.913 . S
H474 C492 0.951 . S
H475 C494 0.951 . S
H476 C496 0.950 . S
H477 C497 0.950 . S
H478 C499 0.950 . S
H479 C502 0.950 . S
H480 C503 0.950 . S
H481 C505 0.950 . S
H482 C506 0.950 . S
H483 C507 0.951 . S
H484 C509 0.951 . S
H485 C511 0.950 . S
H486 C512 0.950 . S
H487 C514 0.950 . S
H488 C517 0.950 . S
H489 C518 0.950 . S
H490 C520 0.950 . S
H491 C521 0.950 . S
C492 H474 0.951 . S
C492 C493 1.366 . S
C492 C494 1.388 . S
C493 C492 1.366 . S
C493 C497 1.385 . S
C494 H475 0.951 . S
C494 C492 1.388 . S
C494 C495 1.366 . S
C495 C494 1.366 . S
C495 C496 1.414 . S
C495 C498 1.499 . S
C496 H476 0.950 . S
C496 C495 1.414 . S
C496 C497 1.374 . S
C497 H477 0.950 . S
C497 C493 1.385 . S
C497 C496 1.374 . S
C498 C495 1.499 . S
C498 C499 1.373 . S
C498 C500 1.389 . S
C499 H478 0.950 . S
C499 C498 1.373 . S
C499 C515 1.377 . S
C500 C498 1.389 . S
C500 C501 1.524 . S
C500 C514 1.377 . S
C501 C500 1.524 . S
C501 C502 1.397 . S
C501 C506 1.363 . S
C502 H479 0.950 . S
C502 C501 1.397 . S
C502 C503 1.334 . S
C503 H480 0.950 . S
C503 C502 1.334 . S
C503 C504 1.287 . S
C504 C503 1.287 . S
C504 C505 1.524 . S
C504 H523 0.913 . S
C505 H481 0.950 . S
C505 C504 1.524 . S
C505 C506 1.415 . S
C506 H482 0.950 . S
C506 C501 1.363 . S
C506 C505 1.415 . S
C507 H483 0.951 . S
C507 C508 1.366 . S
C507 C509 1.388 . S
C508 C507 1.366 . S
C508 C512 1.385 . S
C509 H484 0.951 . S
C509 C507 1.388 . S
C509 C510 1.366 . S
C510 C509 1.366 . S
C510 C511 1.414 . S
C510 C513 1.499 . S
C511 H485 0.950 . S
C511 C510 1.414 . S
C511 C512 1.374 . S
C512 H486 0.950 . S
C512 C508 1.385 . S
C512 C511 1.374 . S
C513 C510 1.499 . S
C513 C514 1.373 . S
C513 C515 1.389 . S
C514 H487 0.950 . S
C514 C500 1.377 . S
C514 C513 1.373 . S
C515 C499 1.377 . S
C515 C513 1.389 . S
C515 C516 1.524 . S
C516 C515 1.524 . S
C516 C517 1.397 . S
C516 C521 1.363 . S
C517 H488 0.950 . S
C517 C516 1.397 . S
C517 C518 1.334 . S
C518 H489 0.950 . S
C518 C517 1.334 . S
C518 C519 1.287 . S
C519 C518 1.287 . S
C519 C520 1.524 . S
C519 H522 0.999 . S
C520 H490 0.950 . S
C520 C519 1.524 . S
C520 C521 1.415 . S
C521 H491 0.950 . S
C521 C516 1.363 . S
C521 C520 1.415 . S
H522 C519 0.999 . S
H523 C504 0.913 . S
H524 C542 0.951 . S
H525 C544 0.951 . S
H526 C546 0.950 . S
H527 C547 0.950 . S
H528 C549 0.950 . S
H529 C552 0.950 . S
H530 C553 0.950 . S
H531 C555 0.950 . S
H532 C556 0.950 . S
H533 C557 0.951 . S
H534 C559 0.951 . S
H535 C561 0.950 . S
H536 C562 0.950 . S
H537 C564 0.950 . S
H538 C567 0.950 . S
H539 C568 0.950 . S
H540 C570 0.950 . S
H541 C571 0.950 . S
C542 H524 0.951 . S
C542 C543 1.366 . S
C542 C544 1.388 . S
C543 C542 1.366 . S
C543 C547 1.385 . S
C544 H525 0.951 . S
C544 C542 1.388 . S
C544 C545 1.366 . S
C545 C544 1.366 . S
C545 C546 1.414 . S
C545 C548 1.499 . S
C546 H526 0.950 . S
C546 C545 1.414 . S
C546 C547 1.374 . S
C547 H527 0.950 . S
C547 C543 1.385 . S
C547 C546 1.374 . S
C548 C545 1.499 . S
C548 C549 1.373 . S
C548 C550 1.389 . S
C549 H528 0.950 . S
C549 C548 1.373 . S
C549 C565 1.377 1_556 S
C550 C548 1.389 . S
C550 C551 1.524 . S
C550 C564 1.377 1_556 S
C551 C550 1.524 . S
C551 C552 1.397 . S
C551 C556 1.363 . S
C552 H529 0.950 . S
C552 C551 1.397 . S
C552 C553 1.334 . S
C553 H530 0.950 . S
C553 C552 1.334 . S
C553 C554 1.287 . S
C554 C553 1.287 . S
C554 C555 1.524 . S
C554 H573 0.913 . S
C555 H531 0.950 . S
C555 C554 1.524 . S
C555 C556 1.415 . S
C556 H532 0.950 . S
C556 C551 1.363 . S
C556 C555 1.415 . S
C557 H533 0.951 . S
C557 C558 1.366 . S
C557 C559 1.388 . S
C558 C557 1.366 . S
C558 C562 1.385 . S
C559 H534 0.951 . S
C559 C557 1.388 . S
C559 C560 1.366 . S
C560 C559 1.366 . S
C560 C561 1.414 . S
C560 C563 1.499 . S
C561 H535 0.950 . S
C561 C560 1.414 . S
C561 C562 1.374 . S
C562 H536 0.950 . S
C562 C558 1.385 . S
C562 C561 1.374 . S
C563 C560 1.499 . S
C563 C564 1.373 . S
C563 C565 1.389 . S
C564 H537 0.950 . S
C564 C550 1.377 1_554 S
C564 C563 1.373 . S
C565 C549 1.377 1_554 S
C565 C563 1.389 . S
C565 C566 1.524 . S
C566 C565 1.524 . S
C566 C567 1.397 . S
C566 C571 1.363 . S
C567 H538 0.950 . S
C567 C566 1.397 . S
C567 C568 1.334 . S
C568 H539 0.950 . S
C568 C567 1.334 . S
C568 C569 1.287 . S
C569 C568 1.287 . S
C569 C570 1.524 . S
C569 H572 0.999 . S
C570 H540 0.950 . S
C570 C569 1.524 . S
C570 C571 1.415 . S
C571 H541 0.950 . S
C571 C566 1.363 . S
C571 C570 1.415 . S
H572 C569 0.999 . S
H573 C554 0.913 . S
H574 C592 0.951 . S
H575 C594 0.951 . S
H576 C596 0.950 . S
H577 C597 0.950 . S
H578 C599 0.950 . S
H579 C602 0.950 . S
H580 C603 0.950 . S
H581 C605 0.950 . S
H582 C606 0.950 . S
H583 C607 0.951 . S
H584 C609 0.951 . S
H585 C611 0.950 . S
H586 C612 0.950 . S
H587 C614 0.950 . S
H588 C617 0.950 . S
H589 C618 0.950 . S
H590 C620 0.950 . S
H591 C621 0.950 . S
C592 H574 0.951 . S
C592 C593 1.366 . S
C592 C594 1.388 . S
C593 C592 1.366 . S
C593 C597 1.385 . S
C594 H575 0.951 . S
C594 C592 1.388 . S
C594 C595 1.366 . S
C595 C594 1.366 . S
C595 C596 1.414 . S
C595 C598 1.499 . S
C596 H576 0.950 . S
C596 C595 1.414 . S
C596 C597 1.374 . S
C597 H577 0.950 . S
C597 C593 1.385 . S
C597 C596 1.374 . S
C598 C595 1.499 . S
C598 C599 1.373 . S
C598 C600 1.389 . S
C599 H578 0.950 . S
C599 C598 1.373 . S
C599 C615 1.377 1_554 S
C600 C598 1.389 . S
C600 C601 1.524 . S
C600 C614 1.377 1_554 S
C601 C600 1.524 . S
C601 C602 1.397 . S
C601 C606 1.363 . S
C602 H579 0.950 . S
C602 C601 1.397 . S
C602 C603 1.334 . S
C603 H580 0.950 . S
C603 C602 1.334 . S
C603 C604 1.287 . S
C604 C603 1.287 . S
C604 C605 1.524 . S
C604 H623 0.913 . S
C605 H581 0.950 . S
C605 C604 1.524 . S
C605 C606 1.415 . S
C606 H582 0.950 . S
C606 C601 1.363 . S
C606 C605 1.415 . S
C607 H583 0.951 . S
C607 C608 1.366 . S
C607 C609 1.388 . S
C608 C607 1.366 . S
C608 C612 1.385 . S
C609 H584 0.951 . S
C609 C607 1.388 . S
C609 C610 1.366 . S
C610 C609 1.366 . S
C610 C611 1.414 . S
C610 C613 1.499 . S
C611 H585 0.950 . S
C611 C610 1.414 . S
C611 C612 1.374 . S
C612 H586 0.950 . S
C612 C608 1.385 . S
C612 C611 1.374 . S
C613 C610 1.499 . S
C613 C614 1.373 . S
C613 C615 1.389 . S
C614 H587 0.950 . S
C614 C600 1.377 1_556 S
C614 C613 1.373 . S
C615 C599 1.377 1_556 S
C615 C613 1.389 . S
C615 C616 1.524 . S
C616 C615 1.524 . S
C616 C617 1.397 . S
C616 C621 1.363 . S
C617 H588 0.950 . S
C617 C616 1.397 . S
C617 C618 1.334 . S
C618 H589 0.950 . S
C618 C617 1.334 . S
C618 C619 1.287 . S
C619 C618 1.287 . S
C619 C620 1.524 . S
C619 H622 0.999 . S
C620 H590 0.950 . S
C620 C619 1.524 . S
C620 C621 1.415 . S
C621 H591 0.950 . S
C621 C616 1.363 . S
C621 C620 1.415 . S
H622 C619 0.999 . S
H623 C604 0.913 . S
H624 C642 0.951 . S
H625 C644 0.951 . S
H626 C646 0.950 . S
H627 C647 0.950 . S
H628 C649 0.950 . S
H629 C652 0.950 . S
H630 C653 0.950 . S
H631 C655 0.950 . S
H632 C656 0.950 . S
H633 C657 0.951 . S
H634 C659 0.951 . S
H635 C661 0.950 . S
H636 C662 0.950 . S
H637 C664 0.950 . S
H638 C667 0.950 . S
H639 C668 0.950 . S
H640 C670 0.950 . S
H641 C671 0.950 . S
C642 H624 0.951 . S
C642 C643 1.366 . S
C642 C644 1.388 . S
C643 C642 1.366 . S
C643 C647 1.385 . S
C644 H625 0.951 . S
C644 C642 1.388 . S
C644 C645 1.366 . S
C645 C644 1.366 . S
C645 C646 1.414 . S
C645 C648 1.499 . S
C646 H626 0.950 . S
C646 C645 1.414 . S
C646 C647 1.374 . S
C647 H627 0.950 . S
C647 C643 1.385 . S
C647 C646 1.374 . S
C648 C645 1.499 . S
C648 C649 1.373 1_565 S
C648 C650 1.389 . S
C649 H628 0.950 . S
C649 C648 1.373 1_545 S
C649 C665 1.377 . S
C650 C648 1.389 . S
C650 C651 1.524 . S
C650 C664 1.377 . S
C651 C650 1.524 . S
C651 C652 1.397 . S
C651 C656 1.363 . S
C652 H629 0.950 . S
C652 C651 1.397 . S
C652 C653 1.334 . S
C653 H630 0.950 . S
C653 C652 1.334 . S
C653 C654 1.287 . S
C654 C653 1.287 . S
C654 C655 1.524 . S
C654 H673 0.913 . S
C655 H631 0.950 . S
C655 C654 1.524 . S
C655 C656 1.415 . S
C656 H632 0.950 . S
C656 C651 1.363 . S
C656 C655 1.415 . S
C657 H633 0.951 . S
C657 C658 1.366 . S
C657 C659 1.388 . S
C658 C657 1.366 . S
C658 C662 1.385 . S
C659 H634 0.951 . S
C659 C657 1.388 . S
C659 C660 1.366 . S
C660 C659 1.366 . S
C660 C661 1.414 . S
C660 C663 1.499 . S
C661 H635 0.950 . S
C661 C660 1.414 . S
C661 C662 1.374 . S
C662 H636 0.950 . S
C662 C658 1.385 . S
C662 C661 1.374 . S
C663 C660 1.499 . S
C663 C664 1.373 1_545 S
C663 C665 1.389 . S
C664 H637 0.950 . S
C664 C650 1.377 . S
C664 C663 1.373 1_565 S
C665 C649 1.377 . S
C665 C663 1.389 . S
C665 C666 1.524 . S
C666 C665 1.524 . S
C666 C667 1.397 . S
C666 C671 1.363 . S
C667 H638 0.950 . S
C667 C666 1.397 . S
C667 C668 1.334 . S
C668 H639 0.950 . S
C668 C667 1.334 . S
C668 C669 1.287 . S
C669 C668 1.287 . S
C669 C670 1.524 . S
C669 H672 0.999 . S
C670 H640 0.950 . S
C670 C669 1.524 . S
C670 C671 1.415 . S
C671 H641 0.950 . S
C671 C666 1.363 . S
C671 C670 1.415 . S
H672 C669 0.999 . S
H673 C654 0.913 . S
H674 C692 0.951 . S
H675 C694 0.951 1_545 S
H676 C696 0.950 . S
H677 C697 0.950 . S
H678 C699 0.950 . S
H679 C702 0.950 1_565 S
H680 C703 0.950 . S
H681 C705 0.950 . S
H682 C706 0.950 . S
H683 C707 0.951 . S
H684 C709 0.951 1_565 S
H685 C711 0.950 . S
H686 C712 0.950 . S
H687 C714 0.950 . S
H688 C717 0.950 1_545 S
H689 C718 0.950 . S
H690 C720 0.950 . S
H691 C721 0.950 . S
C692 H674 0.951 . S
C692 C693 1.366 . S
C692 C694 1.388 . S
C693 C692 1.366 . S
C693 C697 1.385 . S
C694 H675 0.951 1_565 S
C694 C692 1.388 . S
C694 C695 1.366 . S
C695 C694 1.366 . S
C695 C696 1.414 . S
C695 C698 1.499 . S
C696 H676 0.950 . S
C696 C695 1.414 . S
C696 C697 1.374 . S
C697 H677 0.950 . S
C697 C693 1.385 . S
C697 C696 1.374 . S
C698 C695 1.499 . S
C698 C699 1.373 . S
C698 C700 1.389 1_565 S
C699 H678 0.950 . S
C699 C698 1.373 . S
C699 C715 1.377 . S
C700 C698 1.389 1_545 S
C700 C701 1.524 . S
C700 C714 1.377 . S
C701 C700 1.524 . S
C701 C702 1.397 . S
C701 C706 1.363 . S
C702 H679 0.950 1_545 S
C702 C701 1.397 . S
C702 C703 1.334 . S
C703 H680 0.950 . S
C703 C702 1.334 . S
C703 C704 1.287 . S
C704 C703 1.287 . S
C704 C705 1.524 . S
C704 H723 0.913 . S
C705 H681 0.950 . S
C705 C704 1.524 . S
C705 C706 1.415 . S
C706 H682 0.950 . S
C706 C701 1.363 . S
C706 C705 1.415 . S
C707 H683 0.951 . S
C707 C708 1.366 . S
C707 C709 1.388 . S
C708 C707 1.366 . S
C708 C712 1.385 . S
C709 H684 0.951 1_545 S
C709 C707 1.388 . S
C709 C710 1.366 . S
C710 C709 1.366 . S
C710 C711 1.414 . S
C710 C713 1.499 . S
C711 H685 0.950 . S
C711 C710 1.414 . S
C711 C712 1.374 . S
C712 H686 0.950 . S
C712 C708 1.385 . S
C712 C711 1.374 . S
C713 C710 1.499 . S
C713 C714 1.373 . S
C713 C715 1.389 1_545 S
C714 H687 0.950 . S
C714 C700 1.377 . S
C714 C713 1.373 . S
C715 C699 1.377 . S
C715 C713 1.389 1_565 S
C715 C716 1.524 . S
C716 C715 1.524 . S
C716 C717 1.397 . S
C716 C721 1.363 . S
C717 H688 0.950 1_565 S
C717 C716 1.397 . S
C717 C718 1.334 . S
C718 H689 0.950 . S
C718 C717 1.334 . S
C718 C719 1.287 . S
C719 C718 1.287 . S
C719 C720 1.524 . S
C719 H722 0.999 . S
C720 H690 0.950 . S
C720 C719 1.524 . S
C720 C721 1.415 . S
C721 H691 0.950 . S
C721 C716 1.363 . S
C721 C720 1.415 . S
H722 C719 0.999 . S
H723 C704 0.913 . S
H724 C742 0.951 . S
H725 C744 0.951 . S
H726 C746 0.950 . S
H727 C747 0.950 . S
H728 C749 0.950 . S
H729 C752 0.950 . S
H730 C753 0.950 . S
H731 C755 0.950 . S
H732 C756 0.950 . S
H733 C757 0.951 . S
H734 C759 0.951 . S
H735 C761 0.950 . S
H736 C762 0.950 . S
H737 C764 0.950 . S
H738 C767 0.950 . S
H739 C768 0.950 . S
H740 C770 0.950 . S
H741 C771 0.950 . S
C742 H724 0.951 . S
C742 C743 1.366 . S
C742 C744 1.388 . S
C743 C742 1.366 . S
C743 C747 1.385 . S
C744 H725 0.951 . S
C744 C742 1.388 . S
C744 C745 1.366 . S
C745 C744 1.366 . S
C745 C746 1.414 . S
C745 C748 1.499 . S
C746 H726 0.950 . S
C746 C745 1.414 . S
C746 C747 1.374 . S
C747 H727 0.950 . S
C747 C743 1.385 . S
C747 C746 1.374 . S
C748 C745 1.499 . S
C748 C749 1.373 1_565 S
C748 C750 1.389 . S
C749 H728 0.950 . S
C749 C748 1.373 1_545 S
C749 C765 1.377 . S
C750 C748 1.389 . S
C750 C751 1.524 . S
C750 C764 1.377 . S
C751 C750 1.524 . S
C751 C752 1.397 . S
C751 C756 1.363 . S
C752 H729 0.950 . S
C752 C751 1.397 . S
C752 C753 1.334 . S
C753 H730 0.950 . S
C753 C752 1.334 . S
C753 C754 1.287 . S
C754 C753 1.287 . S
C754 C755 1.524 . S
C754 H773 0.913 . S
C755 H731 0.950 . S
C755 C754 1.524 . S
C755 C756 1.415 . S
C756 H732 0.950 . S
C756 C751 1.363 . S
C756 C755 1.415 . S
C757 H733 0.951 . S
C757 C758 1.366 . S
C757 C759 1.388 . S
C758 C757 1.366 . S
C758 C762 1.385 . S
C759 H734 0.951 . S
C759 C757 1.388 . S
C759 C760 1.366 . S
C760 C759 1.366 . S
C760 C761 1.414 . S
C760 C763 1.499 . S
C761 H735 0.950 . S
C761 C760 1.414 . S
C761 C762 1.374 . S
C762 H736 0.950 . S
C762 C758 1.385 . S
C762 C761 1.374 . S
C763 C760 1.499 . S
C763 C764 1.373 1_545 S
C763 C765 1.389 . S
C764 H737 0.950 . S
C764 C750 1.377 . S
C764 C763 1.373 1_565 S
C765 C749 1.377 . S
C765 C763 1.389 . S
C765 C766 1.524 . S
C766 C765 1.524 . S
C766 C767 1.397 . S
C766 C771 1.363 . S
C767 H738 0.950 . S
C767 C766 1.397 . S
C767 C768 1.334 . S
C768 H739 0.950 . S
C768 C767 1.334 . S
C768 C769 1.287 . S
C769 C768 1.287 . S
C769 C770 1.524 . S
C769 H772 0.999 . S
C770 H740 0.950 . S
C770 C769 1.524 . S
C770 C771 1.415 . S
C771 H741 0.950 . S
C771 C766 1.363 . S
C771 C770 1.415 . S
H772 C769 0.999 . S
H773 C754 0.913 . S
H774 C792 0.951 . S
H775 C794 0.951 1_565 S
H776 C796 0.950 . S
H777 C797 0.950 . S
H778 C799 0.950 . S
H779 C802 0.950 1_545 S
H780 C803 0.950 . S
H781 C805 0.950 . S
H782 C806 0.950 . S
H783 C807 0.951 . S
H784 C809 0.951 1_545 S
H785 C811 0.950 . S
H786 C812 0.950 . S
H787 C814 0.950 . S
H788 C817 0.950 1_565 S
H789 C818 0.950 . S
H790 C820 0.950 . S
H791 C821 0.950 . S
C792 H774 0.951 . S
C792 C793 1.366 . S
C792 C794 1.388 . S
C793 C792 1.366 . S
C793 C797 1.385 . S
C794 H775 0.951 1_545 S
C794 C792 1.388 . S
C794 C795 1.366 . S
C795 C794 1.366 . S
C795 C796 1.414 . S
C795 C798 1.499 . S
C796 H776 0.950 . S
C796 C795 1.414 . S
C796 C797 1.374 . S
C797 H777 0.950 . S
C797 C793 1.385 . S
C797 C796 1.374 . S
C798 C795 1.499 . S
C798 C799 1.373 . S
C798 C800 1.389 1_545 S
C799 H778 0.950 . S
C799 C798 1.373 . S
C799 C815 1.377 . S
C800 C798 1.389 1_565 S
C800 C801 1.524 . S
C800 C814 1.377 . S
C801 C800 1.524 . S
C801 C802 1.397 . S
C801 C806 1.363 . S
C802 H779 0.950 1_565 S
C802 C801 1.397 . S
C802 C803 1.334 . S
C803 H780 0.950 . S
C803 C802 1.334 . S
C803 C804 1.287 . S
C804 C803 1.287 . S
C804 C805 1.524 . S
C804 H823 0.913 . S
C805 H781 0.950 . S
C805 C804 1.524 . S
C805 C806 1.415 . S
C806 H782 0.950 . S
C806 C801 1.363 . S
C806 C805 1.415 . S
C807 H783 0.951 . S
C807 C808 1.366 . S
C807 C809 1.388 . S
C808 C807 1.366 . S
C808 C812 1.385 . S
C809 H784 0.951 1_565 S
C809 C807 1.388 . S
C809 C810 1.366 . S
C810 C809 1.366 . S
C810 C811 1.414 . S
C810 C813 1.499 . S
C811 H785 0.950 . S
C811 C810 1.414 . S
C811 C812 1.374 . S
C812 H786 0.950 . S
C812 C808 1.385 . S
C812 C811 1.374 . S
C813 C810 1.499 . S
C813 C814 1.373 . S
C813 C815 1.389 1_565 S
C814 H787 0.950 . S
C814 C800 1.377 . S
C814 C813 1.373 . S
C815 C799 1.377 . S
C815 C813 1.389 1_545 S
C815 C816 1.524 . S
C816 C815 1.524 . S
C816 C817 1.397 . S
C816 C821 1.363 . S
C817 H788 0.950 1_545 S
C817 C816 1.397 . S
C817 C818 1.334 . S
C818 H789 0.950 . S
C818 C817 1.334 . S
C818 C819 1.287 . S
C819 C818 1.287 . S
C819 C820 1.524 . S
C819 H822 0.999 . S
C820 H790 0.950 . S
C820 C819 1.524 . S
C820 C821 1.415 . S
C821 H791 0.950 . S
C821 C816 1.363 . S
C821 C820 1.415 . S
H822 C819 0.999 . S
H823 C804 0.913 . S
H824 C842 0.951 . S
H825 C844 0.951 . S
H826 C846 0.950 . S
H827 C847 0.950 . S
H828 C849 0.950 . S
H829 C852 0.950 . S
H830 C853 0.950 . S
H831 C855 0.950 . S
H832 C856 0.950 1_455 S
H833 C857 0.951 . S
H834 C859 0.951 . S
H835 C861 0.950 . S
H836 C862 0.950 . S
H837 C864 0.950 . S
H838 C867 0.950 . S
H839 C868 0.950 . S
H840 C870 0.950 . S
H841 C871 0.950 1_655 S
C842 H824 0.951 . S
C842 C843 1.366 . S
C842 C844 1.388 . S
C843 C842 1.366 . S
C843 C847 1.385 . S
C844 H825 0.951 . S
C844 C842 1.388 . S
C844 C845 1.366 . S
C845 C844 1.366 . S
C845 C846 1.414 . S
C845 C848 1.499 . S
C846 H826 0.950 . S
C846 C845 1.414 . S
C846 C847 1.374 . S
C847 H827 0.950 . S
C847 C843 1.385 . S
C847 C846 1.374 . S
C848 C845 1.499 . S
C848 C849 1.373 . S
C848 C850 1.389 . S
C849 H828 0.950 . S
C849 C848 1.373 . S
C849 C865 1.377 1_655 S
C850 C848 1.389 . S
C850 C851 1.524 . S
C850 C864 1.377 1_655 S
C851 C850 1.524 . S
C851 C852 1.397 . S
C851 C856 1.363 . S
C852 H829 0.950 . S
C852 C851 1.397 . S
C852 C853 1.334 . S
C853 H830 0.950 . S
C853 C852 1.334 . S
C853 C854 1.287 . S
C854 C853 1.287 . S
C854 C855 1.524 . S
C854 H873 0.913 . S
C855 H831 0.950 . S
C855 C854 1.524 . S
C855 C856 1.415 . S
C856 H832 0.950 1_655 S
C856 C851 1.363 . S
C856 C855 1.415 . S
C857 H833 0.951 . S
C857 C858 1.366 . S
C857 C859 1.388 . S
C858 C857 1.366 . S
C858 C862 1.385 . S
C859 H834 0.951 . S
C859 C857 1.388 . S
C859 C860 1.366 . S
C860 C859 1.366 . S
C860 C861 1.414 . S
C860 C863 1.499 . S
C861 H835 0.950 . S
C861 C860 1.414 . S
C861 C862 1.374 . S
C862 H836 0.950 . S
C862 C858 1.385 . S
C862 C861 1.374 . S
C863 C860 1.499 . S
C863 C864 1.373 . S
C863 C865 1.389 . S
C864 H837 0.950 . S
C864 C850 1.377 1_455 S
C864 C863 1.373 . S
C865 C849 1.377 1_455 S
C865 C863 1.389 . S
C865 C866 1.524 . S
C866 C865 1.524 . S
C866 C867 1.397 . S
C866 C871 1.363 . S
C867 H838 0.950 . S
C867 C866 1.397 . S
C867 C868 1.334 . S
C868 H839 0.950 . S
C868 C867 1.334 . S
C868 C869 1.287 . S
C869 C868 1.287 . S
C869 C870 1.524 . S
C869 H872 0.999 . S
C870 H840 0.950 . S
C870 C869 1.524 . S
C870 C871 1.415 . S
C871 H841 0.950 1_455 S
C871 C866 1.363 . S
C871 C870 1.415 . S
H872 C869 0.999 . S
H873 C854 0.913 . S
H874 C892 0.951 . S
H875 C894 0.951 . S
H876 C896 0.950 . S
H877 C897 0.950 . S
H878 C899 0.950 . S
H879 C902 0.950 . S
H880 C903 0.950 . S
H881 C905 0.945 1_655 S
H882 C906 0.950 1_655 S
H883 C907 0.951 . S
H884 C909 0.951 . S
H885 C911 0.950 . S
H886 C912 0.950 . S
H887 C914 0.950 . S
H888 C917 0.950 . S
H889 C918 0.950 . S
H890 C920 0.945 1_455 S
H891 C921 0.950 1_455 S
C892 H874 0.951 . S
C892 C893 1.366 . S
C892 C894 1.388 . S
C893 C892 1.366 . S
C893 C897 1.385 . S
C894 H875 0.951 . S
C894 C892 1.388 . S
C894 C895 1.366 . S
C895 C894 1.366 . S
C895 C896 1.414 . S
C895 C898 1.499 . S
C896 H876 0.950 . S
C896 C895 1.414 . S
C896 C897 1.374 . S
C897 H877 0.950 . S
C897 C893 1.385 . S
C897 C896 1.374 . S
C898 C895 1.499 . S
C898 C899 1.373 . S
C898 C900 1.389 . S
C899 H878 0.950 . S
C899 C898 1.373 . S
C899 C915 1.377 1_455 S
C900 C898 1.389 . S
C900 C901 1.524 . S
C900 C914 1.377 1_455 S
C901 C900 1.524 . S
C901 C902 1.397 . S
C901 C906 1.363 . S
C902 H879 0.950 . S
C902 C901 1.397 . S
C902 C903 1.334 . S
C903 H880 0.950 . S
C903 C902 1.334 . S
C903 C904 1.287 . S
C904 C903 1.287 . S
C904 C905 1.524 . S
C904 H923 0.913 . S
C905 H881 0.945 1_455 S
C905 C904 1.524 . S
C905 C906 1.415 . S
C906 H882 0.950 1_455 S
C906 C901 1.363 . S
C906 C905 1.415 . S
C907 H883 0.951 . S
C907 C908 1.366 . S
C907 C909 1.388 . S
C908 C907 1.366 . S
C908 C912 1.385 . S
C909 H884 0.951 . S
C909 C907 1.388 . S
C909 C910 1.366 . S
C910 C909 1.366 . S
C910 C911 1.414 . S
C910 C913 1.499 . S
C911 H885 0.950 . S
C911 C910 1.414 . S
C911 C912 1.374 . S
C912 H886 0.950 . S
C912 C908 1.385 . S
C912 C911 1.374 . S
C913 C910 1.499 . S
C913 C914 1.373 . S
C913 C915 1.389 . S
C914 H887 0.950 . S
C914 C900 1.377 1_655 S
C914 C913 1.373 . S
C915 C899 1.377 1_655 S
C915 C913 1.389 . S
C915 C916 1.524 . S
C916 C915 1.524 . S
C916 C917 1.397 . S
C916 C921 1.363 . S
C917 H888 0.950 . S
C917 C916 1.397 . S
C917 C918 1.334 . S
C918 H889 0.950 . S
C918 C917 1.334 . S
C918 C919 1.287 . S
C919 C918 1.287 . S
C919 C920 1.524 . S
C919 H922 0.999 . S
C920 H890 0.945 1_655 S
C920 C919 1.524 . S
C920 C921 1.415 . S
C921 H891 0.950 1_655 S
C921 C916 1.363 . S
C921 C920 1.415 . S
H922 C919 0.999 . S
H923 C904 0.913 . S
H924 C942 0.951 . S
H925 C944 0.951 . S
H926 C946 0.950 . S
H927 C947 0.950 . S
H928 C949 0.950 . S
H929 C952 0.950 . S
H930 C953 0.950 . S
H931 C955 0.950 . S
H932 C956 0.950 . S
H933 C957 0.951 . S
H934 C959 0.951 . S
H935 C961 0.950 . S
H936 C962 0.950 . S
H937 C964 0.950 . S
H938 C967 0.950 . S
H939 C968 0.950 . S
H940 C970 0.950 . S
H941 C971 0.950 . S
C942 H924 0.951 . S
C942 C943 1.366 . S
C942 C944 1.388 . S
C943 C942 1.366 . S
C943 C947 1.385 . S
C944 H925 0.951 . S
C944 C942 1.388 . S
C944 C945 1.366 . S
C945 C944 1.366 . S
C945 C946 1.414 . S
C945 C948 1.499 . S
C946 H926 0.950 . S
C946 C945 1.414 . S
C946 C947 1.374 . S
C947 H927 0.950 . S
C947 C943 1.385 . S
C947 C946 1.374 . S
C948 C945 1.499 . S
C948 C949 1.373 . S
C948 C950 1.389 . S
C949 H928 0.950 . S
C949 C948 1.373 . S
C949 C965 1.377 1_655 S
C950 C948 1.389 . S
C950 C951 1.524 . S
C950 C964 1.377 1_655 S
C951 C950 1.524 . S
C951 C952 1.397 . S
C951 C956 1.363 . S
C952 H929 0.950 . S
C952 C951 1.397 . S
C952 C953 1.334 . S
C953 H930 0.950 . S
C953 C952 1.334 . S
C953 C954 1.287 . S
C954 C953 1.287 . S
C954 C955 1.524 . S
C954 H973 0.913 . S
C955 H931 0.950 . S
C955 C954 1.524 . S
C955 C956 1.415 . S
C956 H932 0.950 . S
C956 C951 1.363 . S
C956 C955 1.415 . S
C957 H933 0.951 . S
C957 C958 1.366 . S
C957 C959 1.388 . S
C958 C957 1.366 . S
C958 C962 1.385 . S
C959 H934 0.951 . S
C959 C957 1.388 . S
C959 C960 1.366 . S
C960 C959 1.366 . S
C960 C961 1.414 . S
C960 C963 1.499 . S
C961 H935 0.950 . S
C961 C960 1.414 . S
C961 C962 1.374 . S
C962 H936 0.950 . S
C962 C958 1.385 . S
C962 C961 1.374 . S
C963 C960 1.499 . S
C963 C964 1.373 . S
C963 C965 1.389 . S
C964 H937 0.950 . S
C964 C950 1.377 1_455 S
C964 C963 1.373 . S
C965 C949 1.377 1_455 S
C965 C963 1.389 . S
C965 C966 1.524 . S
C966 C965 1.524 . S
C966 C967 1.397 . S
C966 C971 1.363 . S
C967 H938 0.950 . S
C967 C966 1.397 . S
C967 C968 1.334 . S
C968 H939 0.950 . S
C968 C967 1.334 . S
C968 C969 1.287 . S
C969 C968 1.287 . S
C969 C970 1.524 . S
C969 H972 0.999 . S
C970 H940 0.950 . S
C970 C969 1.524 . S
C970 C971 1.415 . S
C971 H941 0.950 . S
C971 C966 1.363 . S
C971 C970 1.415 . S
H972 C969 0.999 . S
H973 C954 0.913 . S
H974 C992 0.951 . S
H975 C994 0.951 . S
H976 C996 0.950 . S
H977 C997 0.950 . S
H978 C999 0.950 . S
H979 C1002 0.950 . S
H980 C1003 0.950 . S
H981 C1005 0.950 . S
H982 C1006 0.950 1_655 S
H983 C1007 0.951 . S
H984 C1009 0.951 . S
H985 C1011 0.950 . S
H986 C1012 0.950 . S
H987 C1014 0.950 . S
H988 C1017 0.950 . S
H989 C1018 0.950 . S
H990 C1020 0.950 . S
H991 C1021 0.950 1_455 S
C992 H974 0.951 . S
C992 C993 1.366 . S
C992 C994 1.388 . S
C993 C992 1.366 . S
C993 C997 1.385 . S
C994 H975 0.951 . S
C994 C992 1.388 . S
C994 C995 1.366 . S
C995 C994 1.366 . S
C995 C996 1.414 . S
C995 C998 1.499 . S
C996 H976 0.950 . S
C996 C995 1.414 . S
C996 C997 1.374 . S
C997 H977 0.950 . S
C997 C993 1.385 . S
C997 C996 1.374 . S
C998 C995 1.499 . S
C998 C999 1.373 . S
C998 C1000 1.389 . S
C999 H978 0.950 . S
C999 C998 1.373 . S
C999 C1015 1.377 1_455 S
C1000 C998 1.389 . S
C1000 C1001 1.524 . S
C1000 C1014 1.377 1_455 S
C1001 C1000 1.524 . S
C1001 C1002 1.397 . S
C1001 C1006 1.363 . S
C1002 H979 0.950 . S
C1002 C1001 1.397 . S
C1002 C1003 1.334 . S
C1003 H980 0.950 . S
C1003 C1002 1.334 . S
C1003 C1004 1.287 . S
C1004 C1003 1.287 . S
C1004 C1005 1.524 . S
C1004 H1023 0.913 . S
C1005 H981 0.950 . S
C1005 C1004 1.524 . S
C1005 C1006 1.415 . S
C1006 H982 0.950 1_455 S
C1006 C1001 1.363 . S
C1006 C1005 1.415 . S
C1007 H983 0.951 . S
C1007 C1008 1.366 . S
C1007 C1009 1.388 . S
C1008 C1007 1.366 . S
C1008 C1012 1.385 . S
C1009 H984 0.951 . S
C1009 C1007 1.388 . S
C1009 C1010 1.366 . S
C1010 C1009 1.366 . S
C1010 C1011 1.414 . S
C1010 C1013 1.499 . S
C1011 H985 0.950 . S
C1011 C1010 1.414 . S
C1011 C1012 1.374 . S
C1012 H986 0.950 . S
C1012 C1008 1.385 . S
C1012 C1011 1.374 . S
C1013 C1010 1.499 . S
C1013 C1014 1.373 . S
C1013 C1015 1.389 . S
C1014 H987 0.950 . S
C1014 C1000 1.377 1_655 S
C1014 C1013 1.373 . S
C1015 C999 1.377 1_655 S
C1015 C1013 1.389 . S
C1015 C1016 1.524 . S
C1016 C1015 1.524 . S
C1016 C1017 1.397 . S
C1016 C1021 1.363 . S
C1017 H988 0.950 . S
C1017 C1016 1.397 . S
C1017 C1018 1.334 . S
C1018 H989 0.950 . S
C1018 C1017 1.334 . S
C1018 C1019 1.287 . S
C1019 C1018 1.287 . S
C1019 C1020 1.524 . S
C1019 H1022 0.999 . S
C1020 H990 0.950 . S
C1020 C1019 1.524 . S
C1020 C1021 1.415 . S
C1021 H991 0.950 1_655 S
C1021 C1016 1.363 . S
C1021 C1020 1.415 . S
H1022 C1019 0.999 . S
H1023 C1004 0.913 . S
H1024 C1042 0.951 . S
H1025 C1044 0.951 . S
H1026 C1046 0.950 . S
H1027 C1047 0.950 . S
H1028 C1049 0.950 . S
H1029 C1052 0.950 . S
H1030 C1053 0.950 . S
H1031 C1055 0.950 . S
H1032 C1056 0.950 . S
H1033 C1057 0.951 . S
H1034 C1059 0.951 . S
H1035 C1061 0.950 . S
H1036 C1062 0.950 . S
H1037 C1064 0.950 . S
H1038 C1067 0.950 . S
H1039 C1068 0.950 . S
H1040 C1070 0.950 . S
H1041 C1071 0.950 . S
C1042 H1024 0.951 . S
C1042 C1043 1.366 . S
C1042 C1044 1.388 . S
C1043 C1042 1.366 . S
C1043 C1047 1.385 . S
C1044 H1025 0.951 . S
C1044 C1042 1.388 . S
C1044 C1045 1.366 . S
C1045 C1044 1.366 . S
C1045 C1046 1.414 . S
C1045 C1048 1.499 . S
C1046 H1026 0.950 . S
C1046 C1045 1.414 . S
C1046 C1047 1.374 . S
C1047 H1027 0.950 . S
C1047 C1043 1.385 . S
C1047 C1046 1.374 . S
C1048 C1045 1.499 . S
C1048 C1049 1.373 . S
C1048 C1050 1.389 . S
C1049 H1028 0.950 . S
C1049 C1048 1.373 . S
C1049 C1065 1.377 . S
C1050 C1048 1.389 . S
C1050 C1051 1.524 . S
C1050 C1064 1.377 . S
C1051 C1050 1.524 . S
C1051 C1052 1.397 . S
C1051 C1056 1.363 . S
C1052 H1029 0.950 . S
C1052 C1051 1.397 . S
C1052 C1053 1.334 . S
C1053 H1030 0.950 . S
C1053 C1052 1.334 . S
C1053 C1054 1.287 . S
C1054 C1053 1.287 . S
C1054 C1055 1.524 . S
C1054 H1073 0.913 . S
C1055 H1031 0.950 . S
C1055 C1054 1.524 . S
C1055 C1056 1.415 . S
C1056 H1032 0.950 . S
C1056 C1051 1.363 . S
C1056 C1055 1.415 . S
C1057 H1033 0.951 . S
C1057 C1058 1.366 . S
C1057 C1059 1.388 . S
C1058 C1057 1.366 . S
C1058 C1062 1.385 . S
C1059 H1034 0.951 . S
C1059 C1057 1.388 . S
C1059 C1060 1.366 . S
C1060 C1059 1.366 . S
C1060 C1061 1.414 . S
C1060 C1063 1.499 . S
C1061 H1035 0.950 . S
C1061 C1060 1.414 . S
C1061 C1062 1.374 . S
C1062 H1036 0.950 . S
C1062 C1058 1.385 . S
C1062 C1061 1.374 . S
C1063 C1060 1.499 . S
C1063 C1064 1.373 . S
C1063 C1065 1.389 . S
C1064 H1037 0.950 . S
C1064 C1050 1.377 . S
C1064 C1063 1.373 . S
C1065 C1049 1.377 . S
C1065 C1063 1.389 . S
C1065 C1066 1.524 . S
C1066 C1065 1.524 . S
C1066 C1067 1.397 . S
C1066 C1071 1.363 . S
C1067 H1038 0.950 . S
C1067 C1066 1.397 . S
C1067 C1068 1.334 . S
C1068 H1039 0.950 . S
C1068 C1067 1.334 . S
C1068 C1069 1.287 . S
C1069 C1068 1.287 . S
C1069 C1070 1.524 . S
C1069 H1072 0.999 . S
C1070 H1040 0.950 . S
C1070 C1069 1.524 . S
C1070 C1071 1.415 . S
C1071 H1041 0.950 . S
C1071 C1066 1.363 . S
C1071 C1070 1.415 . S
H1072 C1069 0.999 . S
H1073 C1054 0.913 . S
H1074 C1092 0.951 . S
H1075 C1094 0.951 . S
H1076 C1096 0.950 . S
H1077 C1097 0.950 . S
H1078 C1099 0.950 . S
H1079 C1102 0.950 . S
H1080 C1103 0.950 . S
H1081 C1105 0.950 . S
H1082 C1106 0.950 . S
H1083 C1107 0.951 . S
H1084 C1109 0.951 . S
H1085 C1111 0.950 . S
H1086 C1112 0.950 . S
H1087 C1114 0.950 . S
H1088 C1117 0.950 . S
H1089 C1118 0.950 . S
H1090 C1120 0.950 . S
H1091 C1121 0.950 . S
C1092 H1074 0.951 . S
C1092 C1093 1.366 . S
C1092 C1094 1.388 . S
C1093 C1092 1.366 . S
C1093 C1097 1.385 . S
C1094 H1075 0.951 . S
C1094 C1092 1.388 . S
C1094 C1095 1.366 . S
C1095 C1094 1.366 . S
C1095 C1096 1.414 . S
C1095 C1098 1.499 . S
C1096 H1076 0.950 . S
C1096 C1095 1.414 . S
C1096 C1097 1.374 . S
C1097 H1077 0.950 . S
C1097 C1093 1.385 . S
C1097 C1096 1.374 . S
C1098 C1095 1.499 . S
C1098 C1099 1.373 . S
C1098 C1100 1.389 . S
C1099 H1078 0.950 . S
C1099 C1098 1.373 . S
C1099 C1115 1.377 . S
C1100 C1098 1.389 . S
C1100 C1101 1.524 . S
C1100 C1114 1.377 . S
C1101 C1100 1.524 . S
C1101 C1102 1.397 . S
C1101 C1106 1.363 . S
C1102 H1079 0.950 . S
C1102 C1101 1.397 . S
C1102 C1103 1.334 . S
C1103 H1080 0.950 . S
C1103 C1102 1.334 . S
C1103 C1104 1.287 . S
C1104 C1103 1.287 . S
C1104 C1105 1.524 . S
C1104 H1123 0.913 . S
C1105 H1081 0.950 . S
C1105 C1104 1.524 . S
C1105 C1106 1.415 . S
C1106 H1082 0.950 . S
C1106 C1101 1.363 . S
C1106 C1105 1.415 . S
C1107 H1083 0.951 . S
C1107 C1108 1.366 . S
C1107 C1109 1.388 . S
C1108 C1107 1.366 . S
C1108 C1112 1.385 . S
C1109 H1084 0.951 . S
C1109 C1107 1.388 . S
C1109 C1110 1.366 . S
C1110 C1109 1.366 . S
C1110 C1111 1.414 . S
C1110 C1113 1.499 . S
C1111 H1085 0.950 . S
C1111 C1110 1.414 . S
C1111 C1112 1.374 . S
C1112 H1086 0.950 . S
C1112 C1108 1.385 . S
C1112 C1111 1.374 . S
C1113 C1110 1.499 . S
C1113 C1114 1.373 . S
C1113 C1115 1.389 . S
C1114 H1087 0.950 . S
C1114 C1100 1.377 . S
C1114 C1113 1.373 . S
C1115 C1099 1.377 . S
C1115 C1113 1.389 . S
C1115 C1116 1.524 . S
C1116 C1115 1.524 . S
C1116 C1117 1.397 . S
C1116 C1121 1.363 . S
C1117 H1088 0.950 . S
C1117 C1116 1.397 . S
C1117 C1118 1.334 . S
C1118 H1089 0.950 . S
C1118 C1117 1.334 . S
C1118 C1119 1.287 . S
C1119 C1118 1.287 . S
C1119 C1120 1.524 . S
C1119 H1122 0.999 . S
C1120 H1090 0.950 . S
C1120 C1119 1.524 . S
C1120 C1121 1.415 . S
C1121 H1091 0.950 . S
C1121 C1116 1.363 . S
C1121 C1120 1.415 . S
H1122 C1119 0.999 . S
H1123 C1104 0.913 . S
H1124 C1142 0.951 . S
H1125 C1144 0.951 . S
H1126 C1146 0.950 . S
H1127 C1147 0.950 . S
H1128 C1149 0.950 . S
H1129 C1152 0.950 . S
H1130 C1153 0.950 . S
H1131 C1155 0.950 . S
H1132 C1156 0.950 . S
H1133 C1157 0.951 . S
H1134 C1159 0.951 . S
H1135 C1161 0.950 . S
H1136 C1162 0.950 . S
H1137 C1164 0.950 . S
H1138 C1167 0.950 . S
H1139 C1168 0.950 . S
H1140 C1170 0.950 . S
H1141 C1171 0.950 . S
C1142 H1124 0.951 . S
C1142 C1143 1.366 . S
C1142 C1144 1.388 . S
C1143 C1142 1.366 . S
C1143 C1147 1.385 . S
C1144 H1125 0.951 . S
C1144 C1142 1.388 . S
C1144 C1145 1.366 . S
C1145 C1144 1.366 . S
C1145 C1146 1.414 . S
C1145 C1148 1.499 . S
C1146 H1126 0.950 . S
C1146 C1145 1.414 . S
C1146 C1147 1.374 . S
C1147 H1127 0.950 . S
C1147 C1143 1.385 . S
C1147 C1146 1.374 . S
C1148 C1145 1.499 . S
C1148 C1149 1.373 . S
C1148 C1150 1.389 . S
C1149 H1128 0.950 . S
C1149 C1148 1.373 . S
C1149 C1165 1.377 . S
C1150 C1148 1.389 . S
C1150 C1151 1.524 . S
C1150 C1164 1.377 . S
C1151 C1150 1.524 . S
C1151 C1152 1.397 . S
C1151 C1156 1.363 . S
C1152 H1129 0.950 . S
C1152 C1151 1.397 . S
C1152 C1153 1.334 . S
C1153 H1130 0.950 . S
C1153 C1152 1.334 . S
C1153 C1154 1.287 . S
C1154 C1153 1.287 . S
C1154 C1155 1.524 . S
C1154 H1173 0.913 . S
C1155 H1131 0.950 . S
C1155 C1154 1.524 . S
C1155 C1156 1.415 . S
C1156 H1132 0.950 . S
C1156 C1151 1.363 . S
C1156 C1155 1.415 . S
C1157 H1133 0.951 . S
C1157 C1158 1.366 . S
C1157 C1159 1.388 . S
C1158 C1157 1.366 . S
C1158 C1162 1.385 . S
C1159 H1134 0.951 . S
C1159 C1157 1.388 . S
C1159 C1160 1.366 . S
C1160 C1159 1.366 . S
C1160 C1161 1.414 . S
C1160 C1163 1.499 . S
C1161 H1135 0.950 . S
C1161 C1160 1.414 . S
C1161 C1162 1.374 . S
C1162 H1136 0.950 . S
C1162 C1158 1.385 . S
C1162 C1161 1.374 . S
C1163 C1160 1.499 . S
C1163 C1164 1.373 . S
C1163 C1165 1.389 . S
C1164 H1137 0.950 . S
C1164 C1150 1.377 . S
C1164 C1163 1.373 . S
C1165 C1149 1.377 . S
C1165 C1163 1.389 . S
C1165 C1166 1.524 . S
C1166 C1165 1.524 . S
C1166 C1167 1.397 . S
C1166 C1171 1.363 . S
C1167 H1138 0.950 . S
C1167 C1166 1.397 . S
C1167 C1168 1.334 . S
C1168 H1139 0.950 . S
C1168 C1167 1.334 . S
C1168 C1169 1.287 . S
C1169 C1168 1.287 . S
C1169 C1170 1.524 . S
C1169 H1172 0.999 . S
C1170 H1140 0.950 . S
C1170 C1169 1.524 . S
C1170 C1171 1.415 . S
C1171 H1141 0.950 . S
C1171 C1166 1.363 . S
C1171 C1170 1.415 . S
H1172 C1169 0.999 . S
H1173 C1154 0.913 . S
H1174 C1192 0.951 . S
H1175 C1194 0.951 . S
H1176 C1196 0.950 . S
H1177 C1197 0.950 . S
H1178 C1199 0.950 . S
H1179 C1202 0.950 . S
H1180 C1203 0.950 . S
H1181 C1205 0.950 . S
H1182 C1206 0.950 . S
H1183 C1207 0.951 . S
H1184 C1209 0.951 . S
H1185 C1211 0.950 . S
H1186 C1212 0.950 . S
H1187 C1214 0.950 . S
H1188 C1217 0.950 . S
H1189 C1218 0.950 . S
H1190 C1220 0.950 . S
H1191 C1221 0.950 . S
C1192 H1174 0.951 . S
C1192 C1193 1.366 . S
C1192 C1194 1.388 . S
C1193 C1192 1.366 . S
C1193 C1197 1.385 . S
C1194 H1175 0.951 . S
C1194 C1192 1.388 . S
C1194 C1195 1.366 . S
C1195 C1194 1.366 . S
C1195 C1196 1.414 . S
C1195 C1198 1.499 . S
C1196 H1176 0.950 . S
C1196 C1195 1.414 . S
C1196 C1197 1.374 . S
C1197 H1177 0.950 . S
C1197 C1193 1.385 . S
C1197 C1196 1.374 . S
C1198 C1195 1.499 . S
C1198 C1199 1.373 . S
C1198 C1200 1.389 . S
C1199 H1178 0.950 . S
C1199 C1198 1.373 . S
C1199 C1215 1.377 . S
C1200 C1198 1.389 . S
C1200 C1201 1.524 . S
C1200 C1214 1.377 . S
C1201 C1200 1.524 . S
C1201 C1202 1.397 . S
C1201 C1206 1.363 . S
C1202 H1179 0.950 . S
C1202 C1201 1.397 . S
C1202 C1203 1.334 . S
C1203 H1180 0.950 . S
C1203 C1202 1.334 . S
C1203 C1204 1.287 . S
C1204 C1203 1.287 . S
C1204 C1205 1.524 . S
C1204 H1223 0.913 . S
C1205 H1181 0.950 . S
C1205 C1204 1.524 . S
C1205 C1206 1.415 . S
C1206 H1182 0.950 . S
C1206 C1201 1.363 . S
C1206 C1205 1.415 . S
C1207 H1183 0.951 . S
C1207 C1208 1.366 . S
C1207 C1209 1.388 . S
C1208 C1207 1.366 . S
C1208 C1212 1.385 . S
C1209 H1184 0.951 . S
C1209 C1207 1.388 . S
C1209 C1210 1.366 . S
C1210 C1209 1.366 . S
C1210 C1211 1.414 . S
C1210 C1213 1.499 . S
C1211 H1185 0.950 . S
C1211 C1210 1.414 . S
C1211 C1212 1.374 . S
C1212 H1186 0.950 . S
C1212 C1208 1.385 . S
C1212 C1211 1.374 . S
C1213 C1210 1.499 . S
C1213 C1214 1.373 . S
C1213 C1215 1.389 . S
C1214 H1187 0.950 . S
C1214 C1200 1.377 . S
C1214 C1213 1.373 . S
C1215 C1199 1.377 . S
C1215 C1213 1.389 . S
C1215 C1216 1.524 . S
C1216 C1215 1.524 . S
C1216 C1217 1.397 . S
C1216 C1221 1.363 . S
C1217 H1188 0.950 . S
C1217 C1216 1.397 . S
C1217 C1218 1.334 . S
C1218 H1189 0.950 . S
C1218 C1217 1.334 . S
C1218 C1219 1.287 . S
C1219 C1218 1.287 . S
C1219 C1220 1.524 . S
C1219 H1222 0.999 . S
C1220 H1190 0.950 . S
C1220 C1219 1.524 . S
C1220 C1221 1.415 . S
C1221 H1191 0.950 . S
C1221 C1216 1.363 . S
C1221 C1220 1.415 . S
H1222 C1219 0.999 . S
H1223 C1204 0.913 . S
H1224 C1242 0.951 . S
H1225 C1244 0.951 . S
H1226 C1246 0.950 . S
H1227 C1247 0.950 . S
H1228 C1249 0.950 . S
H1229 C1252 0.950 . S
H1230 C1253 0.950 . S
H1231 C1255 0.950 . S
H1232 C1256 0.950 . S
H1233 C1257 0.951 . S
H1234 C1259 0.951 . S
H1235 C1261 0.950 . S
H1236 C1262 0.950 . S
H1237 C1264 0.950 . S
H1238 C1267 0.950 . S
H1239 C1268 0.950 . S
H1240 C1270 0.950 . S
H1241 C1271 0.950 . S
C1242 H1224 0.951 . S
C1242 C1243 1.366 . S
C1242 C1244 1.388 . S
C1243 C1242 1.366 . S
C1243 C1247 1.385 . S
C1244 H1225 0.951 . S
C1244 C1242 1.388 . S
C1244 C1245 1.366 . S
C1245 C1244 1.366 . S
C1245 C1246 1.414 . S
C1245 C1248 1.499 . S
C1246 H1226 0.950 . S
C1246 C1245 1.414 . S
C1246 C1247 1.374 . S
C1247 H1227 0.950 . S
C1247 C1243 1.385 . S
C1247 C1246 1.374 . S
C1248 C1245 1.499 . S
C1248 C1249 1.373 . S
C1248 C1250 1.389 . S
C1249 H1228 0.950 . S
C1249 C1248 1.373 . S
C1249 C1265 1.377 . S
C1250 C1248 1.389 . S
C1250 C1251 1.524 . S
C1250 C1264 1.377 . S
C1251 C1250 1.524 . S
C1251 C1252 1.397 . S
C1251 C1256 1.363 . S
C1252 H1229 0.950 . S
C1252 C1251 1.397 . S
C1252 C1253 1.334 . S
C1253 H1230 0.950 . S
C1253 C1252 1.334 . S
C1253 C1254 1.287 . S
C1254 C1253 1.287 . S
C1254 C1255 1.524 . S
C1254 H1273 0.913 . S
C1255 H1231 0.950 . S
C1255 C1254 1.524 . S
C1255 C1256 1.415 . S
C1256 H1232 0.950 . S
C1256 C1251 1.363 . S
C1256 C1255 1.415 . S
C1257 H1233 0.951 . S
C1257 C1258 1.366 . S
C1257 C1259 1.388 . S
C1258 C1257 1.366 . S
C1258 C1262 1.385 . S
C1259 H1234 0.951 . S
C1259 C1257 1.388 . S
C1259 C1260 1.366 . S
C1260 C1259 1.366 . S
C1260 C1261 1.414 . S
C1260 C1263 1.499 . S
C1261 H1235 0.950 . S
C1261 C1260 1.414 . S
C1261 C1262 1.374 . S
C1262 H1236 0.950 . S
C1262 C1258 1.385 . S
C1262 C1261 1.374 . S
C1263 C1260 1.499 . S
C1263 C1264 1.373 . S
C1263 C1265 1.389 . S
C1264 H1237 0.950 . S
C1264 C1250 1.377 . S
C1264 C1263 1.373 . S
C1265 C1249 1.377 . S
C1265 C1263 1.389 . S
C1265 C1266 1.524 . S
C1266 C1265 1.524 . S
C1266 C1267 1.397 . S
C1266 C1271 1.363 . S
C1267 H1238 0.950 . S
C1267 C1266 1.397 . S
C1267 C1268 1.334 . S
C1268 H1239 0.950 . S
C1268 C1267 1.334 . S
C1268 C1269 1.287 . S
C1269 C1268 1.287 . S
C1269 C1270 1.524 . S
C1269 H1272 0.999 . S
C1270 H1240 0.950 . S
C1270 C1269 1.524 . S
C1270 C1271 1.415 . S
C1271 H1241 0.950 . S
C1271 C1266 1.363 . S
C1271 C1270 1.415 . S
H1272 C1269 0.999 . S
H1273 C1254 0.913 . S
H1274 C1292 0.951 . S
H1275 C1294 0.951 . S
H1276 C1296 0.950 . S
H1277 C1297 0.950 . S
H1278 C1299 0.950 . S
H1279 C1302 0.950 . S
H1280 C1303 0.950 . S
H1281 C1305 0.950 . S
H1282 C1306 0.950 . S
H1283 C1307 0.951 . S
H1284 C1309 0.951 . S
H1285 C1311 0.950 . S
H1286 C1312 0.950 . S
H1287 C1314 0.950 . S
H1288 C1317 0.950 . S
H1289 C1318 0.950 . S
H1290 C1320 0.950 . S
H1291 C1321 0.950 . S
C1292 H1274 0.951 . S
C1292 C1293 1.366 . S
C1292 C1294 1.388 . S
C1293 C1292 1.366 . S
C1293 C1297 1.385 . S
C1294 H1275 0.951 . S
C1294 C1292 1.388 . S
C1294 C1295 1.366 . S
C1295 C1294 1.366 . S
C1295 C1296 1.414 . S
C1295 C1298 1.499 . S
C1296 H1276 0.950 . S
C1296 C1295 1.414 . S
C1296 C1297 1.374 . S
C1297 H1277 0.950 . S
C1297 C1293 1.385 . S
C1297 C1296 1.374 . S
C1298 C1295 1.499 . S
C1298 C1299 1.373 . S
C1298 C1300 1.389 . S
C1299 H1278 0.950 . S
C1299 C1298 1.373 . S
C1299 C1315 1.377 . S
C1300 C1298 1.389 . S
C1300 C1301 1.524 . S
C1300 C1314 1.377 . S
C1301 C1300 1.524 . S
C1301 C1302 1.397 . S
C1301 C1306 1.363 . S
C1302 H1279 0.950 . S
C1302 C1301 1.397 . S
C1302 C1303 1.334 . S
C1303 H1280 0.950 . S
C1303 C1302 1.334 . S
C1303 C1304 1.287 . S
C1304 C1303 1.287 . S
C1304 C1305 1.524 . S
C1304 H1323 0.913 . S
C1305 H1281 0.950 . S
C1305 C1304 1.524 . S
C1305 C1306 1.415 . S
C1306 H1282 0.950 . S
C1306 C1301 1.363 . S
C1306 C1305 1.415 . S
C1307 H1283 0.951 . S
C1307 C1308 1.366 . S
C1307 C1309 1.388 . S
C1308 C1307 1.366 . S
C1308 C1312 1.385 . S
C1309 H1284 0.951 . S
C1309 C1307 1.388 . S
C1309 C1310 1.366 . S
C1310 C1309 1.366 . S
C1310 C1311 1.414 . S
C1310 C1313 1.499 . S
C1311 H1285 0.950 . S
C1311 C1310 1.414 . S
C1311 C1312 1.374 . S
C1312 H1286 0.950 . S
C1312 C1308 1.385 . S
C1312 C1311 1.374 . S
C1313 C1310 1.499 . S
C1313 C1314 1.373 . S
C1313 C1315 1.389 . S
C1314 H1287 0.950 . S
C1314 C1300 1.377 . S
C1314 C1313 1.373 . S
C1315 C1299 1.377 . S
C1315 C1313 1.389 . S
C1315 C1316 1.524 . S
C1316 C1315 1.524 . S
C1316 C1317 1.397 . S
C1316 C1321 1.363 . S
C1317 H1288 0.950 . S
C1317 C1316 1.397 . S
C1317 C1318 1.334 . S
C1318 H1289 0.950 . S
C1318 C1317 1.334 . S
C1318 C1319 1.287 . S
C1319 C1318 1.287 . S
C1319 C1320 1.524 . S
C1319 H1322 0.999 . S
C1320 H1290 0.950 . S
C1320 C1319 1.524 . S
C1320 C1321 1.415 . S
C1321 H1291 0.950 . S
C1321 C1316 1.363 . S
C1321 C1320 1.415 . S
H1322 C1319 0.999 . S
H1323 C1304 0.913 . S
H1324 C1342 0.951 . S
H1325 C1344 0.951 . S
H1326 C1346 0.950 . S
H1327 C1347 0.950 . S
H1328 C1349 0.950 . S
H1329 C1352 0.950 . S
H1330 C1353 0.950 . S
H1331 C1355 0.950 . S
H1332 C1356 0.950 . S
H1333 C1357 0.951 . S
H1334 C1359 0.951 . S
H1335 C1361 0.950 . S
H1336 C1362 0.950 . S
H1337 C1364 0.950 . S
H1338 C1367 0.950 . S
H1339 C1368 0.950 . S
H1340 C1370 0.950 . S
H1341 C1371 0.950 . S
C1342 H1324 0.951 . S
C1342 C1343 1.366 . S
C1342 C1344 1.388 . S
C1343 C1342 1.366 . S
C1343 C1347 1.385 . S
C1344 H1325 0.951 . S
C1344 C1342 1.388 . S
C1344 C1345 1.366 . S
C1345 C1344 1.366 . S
C1345 C1346 1.414 . S
C1345 C1348 1.499 . S
C1346 H1326 0.950 . S
C1346 C1345 1.414 . S
C1346 C1347 1.374 . S
C1347 H1327 0.950 . S
C1347 C1343 1.385 . S
C1347 C1346 1.374 . S
C1348 C1345 1.499 . S
C1348 C1349 1.373 . S
C1348 C1350 1.389 . S
C1349 H1328 0.950 . S
C1349 C1348 1.373 . S
C1349 C1365 1.377 . S
C1350 C1348 1.389 . S
C1350 C1351 1.524 . S
C1350 C1364 1.377 . S
C1351 C1350 1.524 . S
C1351 C1352 1.397 . S
C1351 C1356 1.363 . S
C1352 H1329 0.950 . S
C1352 C1351 1.397 . S
C1352 C1353 1.334 . S
C1353 H1330 0.950 . S
C1353 C1352 1.334 . S
C1353 C1354 1.287 . S
C1354 C1353 1.287 . S
C1354 C1355 1.524 . S
C1354 H1373 0.913 . S
C1355 H1331 0.950 . S
C1355 C1354 1.524 . S
C1355 C1356 1.415 . S
C1356 H1332 0.950 . S
C1356 C1351 1.363 . S
C1356 C1355 1.415 . S
C1357 H1333 0.951 . S
C1357 C1358 1.366 . S
C1357 C1359 1.388 . S
C1358 C1357 1.366 . S
C1358 C1362 1.385 . S
C1359 H1334 0.951 . S
C1359 C1357 1.388 . S
C1359 C1360 1.366 . S
C1360 C1359 1.366 . S
C1360 C1361 1.414 . S
C1360 C1363 1.499 . S
C1361 H1335 0.950 . S
C1361 C1360 1.414 . S
C1361 C1362 1.374 . S
C1362 H1336 0.950 . S
C1362 C1358 1.385 . S
C1362 C1361 1.374 . S
C1363 C1360 1.499 . S
C1363 C1364 1.373 . S
C1363 C1365 1.389 . S
C1364 H1337 0.950 . S
C1364 C1350 1.377 . S
C1364 C1363 1.373 . S
C1365 C1349 1.377 . S
C1365 C1363 1.389 . S
C1365 C1366 1.524 . S
C1366 C1365 1.524 . S
C1366 C1367 1.397 . S
C1366 C1371 1.363 . S
C1367 H1338 0.950 . S
C1367 C1366 1.397 . S
C1367 C1368 1.334 . S
C1368 H1339 0.950 . S
C1368 C1367 1.334 . S
C1368 C1369 1.287 . S
C1369 C1368 1.287 . S
C1369 C1370 1.524 . S
C1369 H1372 0.999 . S
C1370 H1340 0.950 . S
C1370 C1369 1.524 . S
C1370 C1371 1.415 . S
C1371 H1341 0.950 . S
C1371 C1366 1.363 . S
C1371 C1370 1.415 . S
H1372 C1369 0.999 . S
H1373 C1354 0.913 . S
H1374 C1392 0.951 . S
H1375 C1394 0.951 . S
H1376 C1396 0.950 . S
H1377 C1397 0.950 . S
H1378 C1399 0.950 . S
H1379 C1402 0.950 . S
H1380 C1403 0.950 . S
H1381 C1405 0.950 . S
H1382 C1406 0.950 . S
H1383 C1407 0.951 . S
H1384 C1409 0.951 . S
H1385 C1411 0.950 . S
H1386 C1412 0.950 . S
H1387 C1414 0.950 . S
H1388 C1417 0.950 . S
H1389 C1418 0.950 . S
H1390 C1420 0.950 . S
H1391 C1421 0.950 . S
C1392 H1374 0.951 . S
C1392 C1393 1.366 . S
C1392 C1394 1.388 . S
C1393 C1392 1.366 . S
C1393 C1397 1.385 . S
C1394 H1375 0.951 . S
C1394 C1392 1.388 . S
C1394 C1395 1.366 . S
C1395 C1394 1.366 . S
C1395 C1396 1.414 . S
C1395 C1398 1.499 . S
C1396 H1376 0.950 . S
C1396 C1395 1.414 . S
C1396 C1397 1.374 . S
C1397 H1377 0.950 . S
C1397 C1393 1.385 . S
C1397 C1396 1.374 . S
C1398 C1395 1.499 . S
C1398 C1399 1.373 . S
C1398 C1400 1.389 . S
C1399 H1378 0.950 . S
C1399 C1398 1.373 . S
C1399 C1415 1.377 . S
C1400 C1398 1.389 . S
C1400 C1401 1.524 . S
C1400 C1414 1.377 . S
C1401 C1400 1.524 . S
C1401 C1402 1.397 . S
C1401 C1406 1.363 . S
C1402 H1379 0.950 . S
C1402 C1401 1.397 . S
C1402 C1403 1.334 . S
C1403 H1380 0.950 . S
C1403 C1402 1.334 . S
C1403 C1404 1.287 . S
C1404 C1403 1.287 . S
C1404 C1405 1.524 . S
C1404 H1423 0.913 . S
C1405 H1381 0.950 . S
C1405 C1404 1.524 . S
C1405 C1406 1.415 . S
C1406 H1382 0.950 . S
C1406 C1401 1.363 . S
C1406 C1405 1.415 . S
C1407 H1383 0.951 . S
C1407 C1408 1.366 . S
C1407 C1409 1.388 . S
C1408 C1407 1.366 . S
C1408 C1412 1.385 . S
C1409 H1384 0.951 . S
C1409 C1407 1.388 . S
C1409 C1410 1.366 . S
C1410 C1409 1.366 . S
C1410 C1411 1.414 . S
C1410 C1413 1.499 . S
C1411 H1385 0.950 . S
C1411 C1410 1.414 . S
C1411 C1412 1.374 . S
C1412 H1386 0.950 . S
C1412 C1408 1.385 . S
C1412 C1411 1.374 . S
C1413 C1410 1.499 . S
C1413 C1414 1.373 . S
C1413 C1415 1.389 . S
C1414 H1387 0.950 . S
C1414 C1400 1.377 . S
C1414 C1413 1.373 . S
C1415 C1399 1.377 . S
C1415 C1413 1.389 . S
C1415 C1416 1.524 . S
C1416 C1415 1.524 . S
C1416 C1417 1.397 . S
C1416 C1421 1.363 . S
C1417 H1388 0.950 . S
C1417 C1416 1.397 . S
C1417 C1418 1.334 . S
C1418 H1389 0.950 . S
C1418 C1417 1.334 . S
C1418 C1419 1.287 . S
C1419 C1418 1.287 . S
C1419 C1420 1.524 . S
C1419 H1422 0.999 . S
C1420 H1390 0.950 . S
C1420 C1419 1.524 . S
C1420 C1421 1.415 . S
C1421 H1391 0.950 . S
C1421 C1416 1.363 . S
C1421 C1420 1.415 . S
H1422 C1419 0.999 . S
H1423 C1404 0.913 . S
H1424 C1442 0.951 . S
H1425 C1444 0.951 . S
H1426 C1446 0.950 1_565 S
H1427 C1447 0.950 . S
H1428 C1449 0.950 . S
H1429 C1452 0.950 . S
H1430 C1453 0.950 . S
H1431 C1455 0.950 . S
H1432 C1456 0.950 1_545 S
H1433 C1457 0.951 . S
H1434 C1459 0.951 . S
H1435 C1461 0.950 1_545 S
H1436 C1462 0.950 . S
H1437 C1464 0.950 . S
H1438 C1467 0.950 . S
H1439 C1468 0.950 . S
H1440 C1470 0.950 . S
H1441 C1471 0.950 1_565 S
C1442 H1424 0.951 . S
C1442 C1443 1.366 . S
C1442 C1444 1.388 . S
C1443 C1442 1.366 . S
C1443 C1447 1.385 . S
C1444 H1425 0.951 . S
C1444 C1442 1.388 . S
C1444 C1445 1.366 . S
C1445 C1444 1.366 . S
C1445 C1446 1.414 . S
C1445 C1448 1.499 . S
C1446 H1426 0.950 1_545 S
C1446 C1445 1.414 . S
C1446 C1447 1.374 . S
C1447 H1427 0.950 . S
C1447 C1443 1.385 . S
C1447 C1446 1.374 . S
C1448 C1445 1.499 . S
C1448 C1449 1.373 . S
C1448 C1450 1.389 1_545 S
C1449 H1428 0.950 . S
C1449 C1448 1.373 . S
C1449 C1465 1.377 . S
C1450 C1448 1.389 1_565 S
C1450 C1451 1.524 . S
C1450 C1464 1.377 . S
C1451 C1450 1.524 . S
C1451 C1452 1.397 . S
C1451 C1456 1.363 . S
C1452 H1429 0.950 . S
C1452 C1451 1.397 . S
C1452 C1453 1.334 . S
C1453 H1430 0.950 . S
C1453 C1452 1.334 . S
C1453 C1454 1.287 . S
C1454 C1453 1.287 . S
C1454 C1455 1.524 . S
C1454 H1473 0.913 . S
C1455 H1431 0.950 . S
C1455 C1454 1.524 . S
C1455 C1456 1.415 . S
C1456 H1432 0.950 1_565 S
C1456 C1451 1.363 . S
C1456 C1455 1.415 . S
C1457 H1433 0.951 . S
C1457 C1458 1.366 . S
C1457 C1459 1.388 . S
C1458 C1457 1.366 . S
C1458 C1462 1.385 . S
C1459 H1434 0.951 . S
C1459 C1457 1.388 . S
C1459 C1460 1.366 . S
C1460 C1459 1.366 . S
C1460 C1461 1.414 . S
C1460 C1463 1.499 . S
C1461 H1435 0.950 1_565 S
C1461 C1460 1.414 . S
C1461 C1462 1.374 . S
C1462 H1436 0.950 . S
C1462 C1458 1.385 . S
C1462 C1461 1.374 . S
C1463 C1460 1.499 . S
C1463 C1464 1.373 . S
C1463 C1465 1.389 1_565 S
C1464 H1437 0.950 . S
C1464 C1450 1.377 . S
C1464 C1463 1.373 . S
C1465 C1449 1.377 . S
C1465 C1463 1.389 1_545 S
C1465 C1466 1.524 . S
C1466 C1465 1.524 . S
C1466 C1467 1.397 . S
C1466 C1471 1.363 . S
C1467 H1438 0.950 . S
C1467 C1466 1.397 . S
C1467 C1468 1.334 . S
C1468 H1439 0.950 . S
C1468 C1467 1.334 . S
C1468 C1469 1.287 . S
C1469 C1468 1.287 . S
C1469 C1470 1.524 . S
C1469 H1472 0.999 . S
C1470 H1440 0.950 . S
C1470 C1469 1.524 . S
C1470 C1471 1.415 . S
C1471 H1441 0.950 1_545 S
C1471 C1466 1.363 . S
C1471 C1470 1.415 . S
H1472 C1469 0.999 . S
H1473 C1454 0.913 . S
H1474 C1492 0.951 1_565 S
H1475 C1494 0.971 . S
H1476 C1496 0.950 . S
H1477 C1497 0.950 . S
H1478 C1499 0.950 . S
H1479 C1502 0.950 . S
H1480 C1503 0.950 . S
H1481 C1505 0.950 . S
H1482 C1506 0.950 . S
H1483 C1507 0.951 1_545 S
H1484 C1509 0.971 . S
H1485 C1511 0.950 . S
H1486 C1512 0.950 . S
H1487 C1514 0.950 . S
H1488 C1517 0.950 . S
H1489 C1518 0.950 . S
H1490 C1520 0.950 . S
H1491 C1521 0.950 . S
C1492 H1474 0.951 1_545 S
C1492 C1493 1.366 . S
C1492 C1494 1.382 1_545 S
C1493 C1492 1.366 . S
C1493 C1497 1.385 . S
C1494 H1475 0.971 . S
C1494 C1492 1.382 1_565 S
C1494 C1495 1.352 1_565 S
C1495 C1494 1.352 1_545 S
C1495 C1496 1.414 . S
C1495 C1498 1.499 . S
C1496 H1476 0.950 . S
C1496 C1495 1.414 . S
C1496 C1497 1.374 . S
C1497 H1477 0.950 . S
C1497 C1493 1.385 . S
C1497 C1496 1.374 . S
C1498 C1495 1.499 . S
C1498 C1499 1.373 . S
C1498 C1500 1.389 . S
C1499 H1478 0.950 . S
C1499 C1498 1.373 . S
C1499 C1515 1.377 1_545 S
C1500 C1498 1.389 . S
C1500 C1501 1.524 . S
C1500 C1514 1.377 1_545 S
C1501 C1500 1.524 . S
C1501 C1502 1.397 . S
C1501 C1506 1.363 1_545 S
C1502 H1479 0.950 . S
C1502 C1501 1.397 . S
C1502 C1503 1.334 . S
C1503 H1480 0.950 . S
C1503 C1502 1.334 . S
C1503 C1504 1.287 . S
C1504 C1503 1.287 . S
C1504 C1505 1.524 1_545 S
C1504 H1523 0.913 . S
C1505 H1481 0.950 . S
C1505 C1504 1.524 1_565 S
C1505 C1506 1.415 . S
C1506 H1482 0.950 . S
C1506 C1501 1.363 1_565 S
C1506 C1505 1.415 . S
C1507 H1483 0.951 1_565 S
C1507 C1508 1.366 . S
C1507 C1509 1.382 1_565 S
C1508 C1507 1.366 . S
C1508 C1512 1.385 . S
C1509 H1484 0.971 . S
C1509 C1507 1.382 1_545 S
C1509 C1510 1.352 1_545 S
C1510 C1509 1.352 1_565 S
C1510 C1511 1.414 . S
C1510 C1513 1.499 . S
C1511 H1485 0.950 . S
C1511 C1510 1.414 . S
C1511 C1512 1.374 . S
C1512 H1486 0.950 . S
C1512 C1508 1.385 . S
C1512 C1511 1.374 . S
C1513 C1510 1.499 . S
C1513 C1514 1.373 . S
C1513 C1515 1.389 . S
C1514 H1487 0.950 . S
C1514 C1500 1.377 1_565 S
C1514 C1513 1.373 . S
C1515 C1499 1.377 1_565 S
C1515 C1513 1.389 . S
C1515 C1516 1.524 . S
C1516 C1515 1.524 . S
C1516 C1517 1.397 . S
C1516 C1521 1.363 1_565 S
C1517 H1488 0.950 . S
C1517 C1516 1.397 . S
C1517 C1518 1.334 . S
C1518 H1489 0.950 . S
C1518 C1517 1.334 . S
C1518 C1519 1.287 . S
C1519 C1518 1.287 . S
C1519 C1520 1.524 1_565 S
C1519 H1522 0.999 . S
C1520 H1490 0.950 . S
C1520 C1519 1.524 1_545 S
C1520 C1521 1.415 . S
C1521 H1491 0.950 . S
C1521 C1516 1.363 1_545 S
C1521 C1520 1.415 . S
H1522 C1519 0.999 . S
H1523 C1504 0.913 . S
H1524 C1542 0.951 1_565 S
H1525 C1544 0.951 . S
H1526 C1546 0.950 . S
H1527 C1547 0.950 . S
H1528 C1549 0.950 . S
H1529 C1552 0.950 . S
H1530 C1553 0.950 1_545 S
H1531 C1555 0.950 . S
H1532 C1556 0.950 . S
H1533 C1557 0.951 1_545 S
H1534 C1559 0.951 . S
H1535 C1561 0.950 . S
H1536 C1562 0.950 . S
H1537 C1564 0.950 . S
H1538 C1567 0.950 . S
H1539 C1568 0.950 1_565 S
H1540 C1570 0.950 . S
H1541 C1571 0.950 . S
C1542 H1524 0.951 1_545 S
C1542 C1543 1.366 . S
C1542 C1544 1.388 1_545 S
C1543 C1542 1.366 . S
C1543 C1547 1.385 . S
C1544 H1525 0.951 . S
C1544 C1542 1.388 1_565 S
C1544 C1545 1.366 1_565 S
C1545 C1544 1.366 1_545 S
C1545 C1546 1.414 . S
C1545 C1548 1.499 . S
C1546 H1526 0.950 . S
C1546 C1545 1.414 . S
C1546 C1547 1.374 . S
C1547 H1527 0.950 . S
C1547 C1543 1.385 . S
C1547 C1546 1.374 . S
C1548 C1545 1.499 . S
C1548 C1549 1.373 . S
C1548 C1550 1.389 1_545 S
C1549 H1528 0.950 . S
C1549 C1548 1.373 . S
C1549 C1565 1.377 . S
C1550 C1548 1.389 1_565 S
C1550 C1551 1.524 . S
C1550 C1564 1.377 . S
C1551 C1550 1.524 . S
C1551 C1552 1.397 1_565 S
C1551 C1556 1.363 . S
C1552 H1529 0.950 . S
C1552 C1551 1.397 1_545 S
C1552 C1553 1.334 1_545 S
C1553 H1530 0.950 1_565 S
C1553 C1552 1.334 1_565 S
C1553 C1554 1.287 . S
C1554 C1553 1.287 . S
C1554 C1555 1.524 . S
C1554 H1573 0.913 . S
C1555 H1531 0.950 . S
C1555 C1554 1.524 . S
C1555 C1556 1.415 . S
C1556 H1532 0.950 . S
C1556 C1551 1.363 . S
C1556 C1555 1.415 . S
C1557 H1533 0.951 1_565 S
C1557 C1558 1.366 . S
C1557 C1559 1.388 1_565 S
C1558 C1557 1.366 . S
C1558 C1562 1.385 . S
C1559 H1534 0.951 . S
C1559 C1557 1.388 1_545 S
C1559 C1560 1.366 1_545 S
C1560 C1559 1.366 1_565 S
C1560 C1561 1.414 . S
C1560 C1563 1.499 . S
C1561 H1535 0.950 . S
C1561 C1560 1.414 . S
C1561 C1562 1.374 . S
C1562 H1536 0.950 . S
C1562 C1558 1.385 . S
C1562 C1561 1.374 . S
C1563 C1560 1.499 . S
C1563 C1564 1.373 . S
C1563 C1565 1.389 1_565 S
C1564 H1537 0.950 . S
C1564 C1550 1.377 . S
C1564 C1563 1.373 . S
C1565 C1549 1.377 . S
C1565 C1563 1.389 1_545 S
C1565 C1566 1.524 . S
C1566 C1565 1.524 . S
C1566 C1567 1.397 1_545 S
C1566 C1571 1.363 . S
C1567 H1538 0.950 . S
C1567 C1566 1.397 1_565 S
C1567 C1568 1.334 1_565 S
C1568 H1539 0.950 1_545 S
C1568 C1567 1.334 1_545 S
C1568 C1569 1.287 . S
C1569 C1568 1.287 . S
C1569 C1570 1.524 . S
C1569 H1572 0.999 . S
C1570 H1540 0.950 . S
C1570 C1569 1.524 . S
C1570 C1571 1.415 . S
C1571 H1541 0.950 . S
C1571 C1566 1.363 . S
C1571 C1570 1.415 . S
H1572 C1569 0.999 . S
H1573 C1554 0.913 . S
H1574 C1592 0.951 . S
H1575 C1594 0.951 . S
H1576 C1596 0.950 . S
H1577 C1597 0.950 1_545 S
H1578 C1599 0.950 . S
H1579 C1602 0.950 . S
H1580 C1603 0.950 . S
H1581 C1605 0.950 . S
H1582 C1606 0.950 . S
H1583 C1607 0.951 . S
H1584 C1609 0.951 . S
H1585 C1611 0.950 . S
H1586 C1612 0.950 1_565 S
H1587 C1614 0.950 . S
H1588 C1617 0.950 . S
H1589 C1618 0.950 . S
H1590 C1620 0.950 . S
H1591 C1621 0.950 . S
C1592 H1574 0.951 . S
C1592 C1593 1.366 . S
C1592 C1594 1.388 . S
C1593 C1592 1.366 . S
C1593 C1597 1.385 . S
C1594 H1575 0.951 . S
C1594 C1592 1.388 . S
C1594 C1595 1.366 . S
C1595 C1594 1.366 . S
C1595 C1596 1.414 1_565 S
C1595 C1598 1.499 . S
C1596 H1576 0.950 . S
C1596 C1595 1.414 1_545 S
C1596 C1597 1.374 1_545 S
C1597 H1577 0.950 1_565 S
C1597 C1593 1.385 . S
C1597 C1596 1.374 1_565 S
C1598 C1595 1.499 . S
C1598 C1599 1.373 1_565 S
C1598 C1600 1.389 . S
C1599 H1578 0.950 . S
C1599 C1598 1.373 1_545 S
C1599 C1615 1.377 . S
C1600 C1598 1.389 . S
C1600 C1601 1.524 . S
C1600 C1614 1.377 . S
C1601 C1600 1.524 . S
C1601 C1602 1.397 . S
C1601 C1606 1.363 . S
C1602 H1579 0.950 . S
C1602 C1601 1.397 . S
C1602 C1603 1.334 . S
C1603 H1580 0.950 . S
C1603 C1602 1.334 . S
C1603 C1604 1.287 . S
C1604 C1603 1.287 . S
C1604 C1605 1.524 . S
C1604 H1623 0.913 . S
C1605 H1581 0.950 . S
C1605 C1604 1.524 . S
C1605 C1606 1.415 . S
C1606 H1582 0.950 . S
C1606 C1601 1.363 . S
C1606 C1605 1.415 . S
C1607 H1583 0.951 . S
C1607 C1608 1.366 . S
C1607 C1609 1.388 . S
C1608 C1607 1.366 . S
C1608 C1612 1.385 . S
C1609 H1584 0.951 . S
C1609 C1607 1.388 . S
C1609 C1610 1.366 . S
C1610 C1609 1.366 . S
C1610 C1611 1.414 1_545 S
C1610 C1613 1.499 . S
C1611 H1585 0.950 . S
C1611 C1610 1.414 1_565 S
C1611 C1612 1.374 1_565 S
C1612 H1586 0.950 1_545 S
C1612 C1608 1.385 . S
C1612 C1611 1.374 1_545 S
C1613 C1610 1.499 . S
C1613 C1614 1.373 1_545 S
C1613 C1615 1.389 . S
C1614 H1587 0.950 . S
C1614 C1600 1.377 . S
C1614 C1613 1.373 1_565 S
C1615 C1599 1.377 . S
C1615 C1613 1.389 . S
C1615 C1616 1.524 . S
C1616 C1615 1.524 . S
C1616 C1617 1.397 . S
C1616 C1621 1.363 . S
C1617 H1588 0.950 . S
C1617 C1616 1.397 . S
C1617 C1618 1.334 . S
C1618 H1589 0.950 . S
C1618 C1617 1.334 . S
C1618 C1619 1.287 . S
C1619 C1618 1.287 . S
C1619 C1620 1.524 . S
C1619 H1622 0.999 . S
C1620 H1590 0.950 . S
C1620 C1619 1.524 . S
C1620 C1621 1.415 . S
C1621 H1591 0.950 . S
C1621 C1616 1.363 . S
C1621 C1620 1.415 . S
H1622 C1619 0.999 . S
H1623 C1604 0.913 . S
H1624 C1642 0.951 . S
H1625 C1644 0.951 . S
H1626 C1646 0.950 . S
H1627 C1647 0.950 . S
H1628 C1649 0.950 . S
H1629 C1652 0.950 . S
H1630 C1653 0.950 . S
H1631 C1655 0.950 . S
H1632 C1656 0.950 . S
H1633 C1657 0.951 . S
H1634 C1659 0.951 . S
H1635 C1661 0.950 . S
H1636 C1662 0.950 . S
H1637 C1664 0.950 . S
H1638 C1667 0.950 . S
H1639 C1668 0.950 . S
H1640 C1670 0.950 . S
H1641 C1671 0.950 . S
C1642 H1624 0.951 . S
C1642 C1643 1.366 . S
C1642 C1644 1.388 . S
C1643 C1642 1.366 . S
C1643 C1647 1.385 . S
C1644 H1625 0.951 . S
C1644 C1642 1.388 . S
C1644 C1645 1.366 . S
C1645 C1644 1.366 . S
C1645 C1646 1.414 . S
C1645 C1648 1.499 . S
C1646 H1626 0.950 . S
C1646 C1645 1.414 . S
C1646 C1647 1.374 . S
C1647 H1627 0.950 . S
C1647 C1643 1.385 . S
C1647 C1646 1.374 . S
C1648 C1645 1.499 . S
C1648 C1649 1.373 . S
C1648 C1650 1.389 . S
C1649 H1628 0.950 . S
C1649 C1648 1.373 . S
C1649 C1665 1.377 . S
C1650 C1648 1.389 . S
C1650 C1651 1.524 . S
C1650 C1664 1.377 . S
C1651 C1650 1.524 . S
C1651 C1652 1.397 . S
C1651 C1656 1.363 . S
C1652 H1629 0.950 . S
C1652 C1651 1.397 . S
C1652 C1653 1.334 . S
C1653 H1630 0.950 . S
C1653 C1652 1.334 . S
C1653 C1654 1.287 . S
C1654 C1653 1.287 . S
C1654 C1655 1.524 . S
C1654 H1673 0.913 . S
C1655 H1631 0.950 . S
C1655 C1654 1.524 . S
C1655 C1656 1.415 . S
C1656 H1632 0.950 . S
C1656 C1651 1.363 . S
C1656 C1655 1.415 . S
C1657 H1633 0.951 . S
C1657 C1658 1.366 . S
C1657 C1659 1.388 . S
C1658 C1657 1.366 . S
C1658 C1662 1.385 . S
C1659 H1634 0.951 . S
C1659 C1657 1.388 . S
C1659 C1660 1.366 . S
C1660 C1659 1.366 . S
C1660 C1661 1.414 . S
C1660 C1663 1.499 . S
C1661 H1635 0.950 . S
C1661 C1660 1.414 . S
C1661 C1662 1.374 . S
C1662 H1636 0.950 . S
C1662 C1658 1.385 . S
C1662 C1661 1.374 . S
C1663 C1660 1.499 . S
C1663 C1664 1.373 . S
C1663 C1665 1.389 . S
C1664 H1637 0.950 . S
C1664 C1650 1.377 . S
C1664 C1663 1.373 . S
C1665 C1649 1.377 . S
C1665 C1663 1.389 . S
C1665 C1666 1.524 . S
C1666 C1665 1.524 . S
C1666 C1667 1.397 . S
C1666 C1671 1.363 . S
C1667 H1638 0.950 . S
C1667 C1666 1.397 . S
C1667 C1668 1.334 . S
C1668 H1639 0.950 . S
C1668 C1667 1.334 . S
C1668 C1669 1.287 . S
C1669 C1668 1.287 . S
C1669 C1670 1.524 . S
C1669 H1672 0.999 . S
C1670 H1640 0.950 . S
C1670 C1669 1.524 . S
C1670 C1671 1.415 . S
C1671 H1641 0.950 . S
C1671 C1666 1.363 . S
C1671 C1670 1.415 . S
H1672 C1669 0.999 . S
H1673 C1654 0.913 . S
H1674 C1692 0.951 . S
H1675 C1694 0.951 . S
H1676 C1696 0.950 . S
H1677 C1697 0.950 . S
H1678 C1699 0.950 . S
H1679 C1702 0.950 . S
H1680 C1703 0.950 . S
H1681 C1705 0.950 . S
H1682 C1706 0.950 . S
H1683 C1707 0.951 . S
H1684 C1709 0.951 . S
H1685 C1711 0.950 . S
H1686 C1712 0.950 . S
H1687 C1714 0.950 . S
H1688 C1717 0.950 . S
H1689 C1718 0.950 . S
H1690 C1720 0.950 . S
H1691 C1721 0.950 . S
C1692 H1674 0.951 . S
C1692 C1693 1.366 . S
C1692 C1694 1.388 . S
C1693 C1692 1.366 . S
C1693 C1697 1.385 . S
C1694 H1675 0.951 . S
C1694 C1692 1.388 . S
C1694 C1695 1.366 . S
C1695 C1694 1.366 . S
C1695 C1696 1.414 . S
C1695 C1698 1.499 . S
C1696 H1676 0.950 . S
C1696 C1695 1.414 . S
C1696 C1697 1.374 . S
C1697 H1677 0.950 . S
C1697 C1693 1.385 . S
C1697 C1696 1.374 . S
C1698 C1695 1.499 . S
C1698 C1699 1.373 . S
C1698 C1700 1.389 . S
C1699 H1678 0.950 . S
C1699 C1698 1.373 . S
C1699 C1715 1.377 . S
C1700 C1698 1.389 . S
C1700 C1701 1.524 . S
C1700 C1714 1.377 . S
C1701 C1700 1.524 . S
C1701 C1702 1.397 . S
C1701 C1706 1.363 . S
C1702 H1679 0.950 . S
C1702 C1701 1.397 . S
C1702 C1703 1.334 . S
C1703 H1680 0.950 . S
C1703 C1702 1.334 . S
C1703 C1704 1.287 . S
C1704 C1703 1.287 . S
C1704 C1705 1.524 . S
C1704 H1723 0.913 . S
C1705 H1681 0.950 . S
C1705 C1704 1.524 . S
C1705 C1706 1.415 . S
C1706 H1682 0.950 . S
C1706 C1701 1.363 . S
C1706 C1705 1.415 . S
C1707 H1683 0.951 . S
C1707 C1708 1.366 . S
C1707 C1709 1.388 . S
C1708 C1707 1.366 . S
C1708 C1712 1.385 . S
C1709 H1684 0.951 . S
C1709 C1707 1.388 . S
C1709 C1710 1.366 . S
C1710 C1709 1.366 . S
C1710 C1711 1.414 . S
C1710 C1713 1.499 . S
C1711 H1685 0.950 . S
C1711 C1710 1.414 . S
C1711 C1712 1.374 . S
C1712 H1686 0.950 . S
C1712 C1708 1.385 . S
C1712 C1711 1.374 . S
C1713 C1710 1.499 . S
C1713 C1714 1.373 . S
C1713 C1715 1.389 . S
C1714 H1687 0.950 . S
C1714 C1700 1.377 . S
C1714 C1713 1.373 . S
C1715 C1699 1.377 . S
C1715 C1713 1.389 . S
C1715 C1716 1.524 . S
C1716 C1715 1.524 . S
C1716 C1717 1.397 . S
C1716 C1721 1.363 . S
C1717 H1688 0.950 . S
C1717 C1716 1.397 . S
C1717 C1718 1.334 . S
C1718 H1689 0.950 . S
C1718 C1717 1.334 . S
C1718 C1719 1.287 . S
C1719 C1718 1.287 . S
C1719 C1720 1.524 . S
C1719 H1722 0.999 . S
C1720 H1690 0.950 . S
C1720 C1719 1.524 . S
C1720 C1721 1.415 . S
C1721 H1691 0.950 . S
C1721 C1716 1.363 . S
C1721 C1720 1.415 . S
H1722 C1719 0.999 . S
H1723 C1704 0.913 . S
H1724 C1742 0.951 . S
H1725 C1744 0.951 . S
H1726 C1746 0.950 . S
H1727 C1747 0.950 . S
H1728 C1749 0.950 . S
H1729 C1752 0.950 . S
H1730 C1753 0.950 . S
H1731 C1755 0.950 . S
H1732 C1756 0.950 . S
H1733 C1757 0.951 . S
H1734 C1759 0.951 . S
H1735 C1761 0.950 . S
H1736 C1762 0.950 . S
H1737 C1764 0.950 . S
H1738 C1767 0.950 . S
H1739 C1768 0.950 . S
H1740 C1770 0.950 . S
H1741 C1771 0.950 . S
C1742 H1724 0.951 . S
C1742 C1743 1.366 . S
C1742 C1744 1.388 . S
C1743 C1742 1.366 . S
C1743 C1747 1.385 . S
C1744 H1725 0.951 . S
C1744 C1742 1.388 . S
C1744 C1745 1.366 . S
C1745 C1744 1.366 . S
C1745 C1746 1.414 . S
C1745 C1748 1.499 . S
C1746 H1726 0.950 . S
C1746 C1745 1.414 . S
C1746 C1747 1.374 . S
C1747 H1727 0.950 . S
C1747 C1743 1.385 . S
C1747 C1746 1.374 . S
C1748 C1745 1.499 . S
C1748 C1749 1.373 . S
C1748 C1750 1.389 . S
C1749 H1728 0.950 . S
C1749 C1748 1.373 . S
C1749 C1765 1.377 . S
C1750 C1748 1.389 . S
C1750 C1751 1.524 . S
C1750 C1764 1.377 . S
C1751 C1750 1.524 . S
C1751 C1752 1.397 . S
C1751 C1756 1.363 . S
C1752 H1729 0.950 . S
C1752 C1751 1.397 . S
C1752 C1753 1.334 . S
C1753 H1730 0.950 . S
C1753 C1752 1.334 . S
C1753 C1754 1.287 . S
C1754 C1753 1.287 . S
C1754 C1755 1.524 . S
C1754 H1773 0.913 . S
C1755 H1731 0.950 . S
C1755 C1754 1.524 . S
C1755 C1756 1.415 . S
C1756 H1732 0.950 . S
C1756 C1751 1.363 . S
C1756 C1755 1.415 . S
C1757 H1733 0.951 . S
C1757 C1758 1.366 . S
C1757 C1759 1.388 . S
C1758 C1757 1.366 . S
C1758 C1762 1.385 . S
C1759 H1734 0.951 . S
C1759 C1757 1.388 . S
C1759 C1760 1.366 . S
C1760 C1759 1.366 . S
C1760 C1761 1.414 . S
C1760 C1763 1.499 . S
C1761 H1735 0.950 . S
C1761 C1760 1.414 . S
C1761 C1762 1.374 . S
C1762 H1736 0.950 . S
C1762 C1758 1.385 . S
C1762 C1761 1.374 . S
C1763 C1760 1.499 . S
C1763 C1764 1.373 . S
C1763 C1765 1.389 . S
C1764 H1737 0.950 . S
C1764 C1750 1.377 . S
C1764 C1763 1.373 . S
C1765 C1749 1.377 . S
C1765 C1763 1.389 . S
C1765 C1766 1.524 . S
C1766 C1765 1.524 . S
C1766 C1767 1.397 . S
C1766 C1771 1.363 . S
C1767 H1738 0.950 . S
C1767 C1766 1.397 . S
C1767 C1768 1.334 . S
C1768 H1739 0.950 . S
C1768 C1767 1.334 . S
C1768 C1769 1.287 . S
C1769 C1768 1.287 . S
C1769 C1770 1.524 . S
C1769 H1772 0.999 . S
C1770 H1740 0.950 . S
C1770 C1769 1.524 . S
C1770 C1771 1.415 . S
C1771 H1741 0.950 . S
C1771 C1766 1.363 . S
C1771 C1770 1.415 . S
H1772 C1769 0.999 . S
H1773 C1754 0.913 . S
H1774 C1792 0.951 . S
H1775 C1794 0.951 . S
H1776 C1796 0.950 . S
H1777 C1797 0.950 . S
H1778 C1799 0.950 . S
H1779 C1802 0.950 . S
H1780 C1803 0.950 . S
H1781 C1805 0.950 . S
H1782 C1806 0.950 . S
H1783 C1807 0.951 . S
H1784 C1809 0.951 . S
H1785 C1811 0.950 . S
H1786 C1812 0.950 . S
H1787 C1814 0.950 . S
H1788 C1817 0.950 . S
H1789 C1818 0.950 . S
H1790 C1820 0.950 . S
H1791 C1821 0.950 . S
C1792 H1774 0.951 . S
C1792 C1793 1.366 . S
C1792 C1794 1.388 . S
C1793 C1792 1.366 . S
C1793 C1797 1.385 . S
C1794 H1775 0.951 . S
C1794 C1792 1.388 . S
C1794 C1795 1.366 . S
C1795 C1794 1.366 . S
C1795 C1796 1.414 . S
C1795 C1798 1.499 . S
C1796 H1776 0.950 . S
C1796 C1795 1.414 . S
C1796 C1797 1.374 . S
C1797 H1777 0.950 . S
C1797 C1793 1.385 . S
C1797 C1796 1.374 . S
C1798 C1795 1.499 . S
C1798 C1799 1.373 . S
C1798 C1800 1.389 . S
C1799 H1778 0.950 . S
C1799 C1798 1.373 . S
C1799 C1815 1.377 . S
C1800 C1798 1.389 . S
C1800 C1801 1.524 . S
C1800 C1814 1.377 . S
C1801 C1800 1.524 . S
C1801 C1802 1.397 . S
C1801 C1806 1.363 . S
C1802 H1779 0.950 . S
C1802 C1801 1.397 . S
C1802 C1803 1.334 . S
C1803 H1780 0.950 . S
C1803 C1802 1.334 . S
C1803 C1804 1.287 . S
C1804 C1803 1.287 . S
C1804 C1805 1.524 . S
C1804 H1823 0.913 . S
C1805 H1781 0.950 . S
C1805 C1804 1.524 . S
C1805 C1806 1.415 . S
C1806 H1782 0.950 . S
C1806 C1801 1.363 . S
C1806 C1805 1.415 . S
C1807 H1783 0.951 . S
C1807 C1808 1.366 . S
C1807 C1809 1.388 . S
C1808 C1807 1.366 . S
C1808 C1812 1.385 . S
C1809 H1784 0.951 . S
C1809 C1807 1.388 . S
C1809 C1810 1.366 . S
C1810 C1809 1.366 . S
C1810 C1811 1.414 . S
C1810 C1813 1.499 . S
C1811 H1785 0.950 . S
C1811 C1810 1.414 . S
C1811 C1812 1.374 . S
C1812 H1786 0.950 . S
C1812 C1808 1.385 . S
C1812 C1811 1.374 . S
C1813 C1810 1.499 . S
C1813 C1814 1.373 . S
C1813 C1815 1.389 . S
C1814 H1787 0.950 . S
C1814 C1800 1.377 . S
C1814 C1813 1.373 . S
C1815 C1799 1.377 . S
C1815 C1813 1.389 . S
C1815 C1816 1.524 . S
C1816 C1815 1.524 . S
C1816 C1817 1.397 . S
C1816 C1821 1.363 . S
C1817 H1788 0.950 . S
C1817 C1816 1.397 . S
C1817 C1818 1.334 . S
C1818 H1789 0.950 . S
C1818 C1817 1.334 . S
C1818 C1819 1.287 . S
C1819 C1818 1.287 . S
C1819 C1820 1.524 . S
C1819 H1822 0.999 . S
C1820 H1790 0.950 . S
C1820 C1819 1.524 . S
C1820 C1821 1.415 . S
C1821 H1791 0.950 . S
C1821 C1816 1.363 . S
C1821 C1820 1.415 . S
H1822 C1819 0.999 . S
H1823 C1804 0.913 . S
C243 C8 1.132 . S
C258 C78 1.131 . S
C293 C64 1.132 . S
C308 C22 1.132 . S
C343 C36 1.131 . S
C358 C106 1.132 . S
C393 C92 1.131 . S
C408 C50 1.133 . S
C443 C190 1.132 . S
C458 C120 1.132 . S
C493 C176 1.132 . S
C508 C134 1.132 . S
C543 C218 1.132 . S
C558 C148 1.131 . S
C593 C162 1.132 . S
C608 C204 1.131 . S
C643 C23 1.512 . S
C658 C9 1.512 . S
C693 C37 1.512 . S
C708 C51 1.512 . S
C743 C65 1.512 . S
C758 C79 1.512 . S
C793 C93 1.512 . S
C808 C107 1.512 . S
C843 C121 1.512 . S
C858 C135 1.512 . S
C893 C163 1.512 . S
C908 C149 1.512 . S
C943 C191 1.512 . S
C958 C177 1.512 . S
C993 C205 1.512 . S
C1008 C219 1.513 . S
C1043 C132 1.558 . S
C1058 C6 1.557 . S
C1093 C20 1.557 . S
C1108 C118 1.557 . S
C1143 C160 1.558 . S
C1158 C34 1.558 . S
C1193 C48 1.558 . S
C1208 C146 1.558 . S
C1243 C62 1.558 . S
C1258 C188 1.557 . S
C1293 C174 1.557 . S
C1308 C76 1.558 . S
C1343 C90 1.558 . S
C1358 C216 1.557 . S
C1393 C202 1.557 . S
C1408 C104 1.557 . S
C1443 C7 1.314 . S
C1458 C35 1.314 . S
C1493 C49 1.314 . S
C1508 C21 1.314 . S
C1543 C91 1.314 . S
C1558 C63 1.314 . S
C1593 C105 1.314 . S
C1608 C77 1.314 . S
C1643 C147 1.314 . S
C1658 C119 1.314 . S
C1693 C133 1.314 . S
C1708 C161 1.314 . S
C1743 C203 1.313 . S
C1758 C175 1.314 . S
C1793 C189 1.314 . S
C1808 C217 1.314 . S
