# Generated by pormake.
# Topology umr, (4)-cn, num edge types: 1
# Building blocks:
#     Node 0, Type 0, BuildingBlock: CEKHIL_clean_sbu_0, # of connection points: 4
#     Node 1, Type 0, BuildingBlock: CEKHIL_clean_sbu_0, # of connection points: 4
#     Node 2, Type 0, BuildingBlock: CEKHIL_clean_sbu_0, # of connection points: 4
#     Node 3, Type 0, BuildingBlock: CEKHIL_clean_sbu_0, # of connection points: 4
#     Node 4, Type 0, BuildingBlock: CEKHIL_clean_sbu_0, # of connection points: 4
#     Node 5, Type 0, BuildingBlock: CEKHIL_clean_sbu_0, # of connection points: 4
#     Node 6, Type 0, BuildingBlock: CEKHIL_clean_sbu_0, # of connection points: 4
#     Node 7, Type 0, BuildingBlock: CEKHIL_clean_sbu_0, # of connection points: 4
#     Node 8, Type 0, BuildingBlock: CEKHIL_clean_sbu_0, # of connection points: 4
#     Node 9, Type 0, BuildingBlock: CEKHIL_clean_sbu_0, # of connection points: 4
#     Node 10, Type 0, BuildingBlock: CEKHIL_clean_sbu_0, # of connection points: 4
#     Node 11, Type 0, BuildingBlock: CEKHIL_clean_sbu_0, # of connection points: 4
#     Node 12, Type 0, BuildingBlock: CEKHIL_clean_sbu_0, # of connection points: 4
#     Node 13, Type 0, BuildingBlock: CEKHIL_clean_sbu_0, # of connection points: 4
#     Node 14, Type 0, BuildingBlock: CEKHIL_clean_sbu_0, # of connection points: 4
#     Node 15, Type 0, BuildingBlock: CEKHIL_clean_sbu_0, # of connection points: 4
#     Node 16, Type 0, BuildingBlock: CEKHIL_clean_sbu_0, # of connection points: 4
#     Node 17, Type 0, BuildingBlock: CEKHIL_clean_sbu_0, # of connection points: 4
#     Node 18, Type 0, BuildingBlock: CEKHIL_clean_sbu_0, # of connection points: 4
#     Node 19, Type 0, BuildingBlock: CEKHIL_clean_sbu_0, # of connection points: 4
#     Node 20, Type 0, BuildingBlock: CEKHIL_clean_sbu_0, # of connection points: 4
#     Node 21, Type 0, BuildingBlock: CEKHIL_clean_sbu_0, # of connection points: 4
#     Node 22, Type 0, BuildingBlock: CEKHIL_clean_sbu_0, # of connection points: 4
#     Node 23, Type 0, BuildingBlock: CEKHIL_clean_sbu_0, # of connection points: 4
#     Node 24, Type 0, BuildingBlock: CEKHIL_clean_sbu_0, # of connection points: 4
#     Node 25, Type 0, BuildingBlock: CEKHIL_clean_sbu_0, # of connection points: 4
#     Node 26, Type 0, BuildingBlock: CEKHIL_clean_sbu_0, # of connection points: 4
#     Node 27, Type 0, BuildingBlock: CEKHIL_clean_sbu_0, # of connection points: 4
#     Node 28, Type 0, BuildingBlock: CEKHIL_clean_sbu_0, # of connection points: 4
#     Node 29, Type 0, BuildingBlock: CEKHIL_clean_sbu_0, # of connection points: 4
#     Node 30, Type 0, BuildingBlock: CEKHIL_clean_sbu_0, # of connection points: 4
#     Node 31, Type 0, BuildingBlock: CEKHIL_clean_sbu_0, # of connection points: 4
#     Edge 32, Type (0, 0), BuildingBlock: CIFDUS_clean_linker_0, # of connection points: 2
#     Edge 33, Type (0, 0), BuildingBlock: CIFDUS_clean_linker_0, # of connection points: 2
#     Edge 34, Type (0, 0), BuildingBlock: CIFDUS_clean_linker_0, # of connection points: 2
#     Edge 35, Type (0, 0), BuildingBlock: CIFDUS_clean_linker_0, # of connection points: 2
#     Edge 36, Type (0, 0), BuildingBlock: CIFDUS_clean_linker_0, # of connection points: 2
#     Edge 37, Type (0, 0), BuildingBlock: CIFDUS_clean_linker_0, # of connection points: 2
#     Edge 38, Type (0, 0), BuildingBlock: CIFDUS_clean_linker_0, # of connection points: 2
#     Edge 39, Type (0, 0), BuildingBlock: CIFDUS_clean_linker_0, # of connection points: 2
#     Edge 40, Type (0, 0), BuildingBlock: CIFDUS_clean_linker_0, # of connection points: 2
#     Edge 41, Type (0, 0), BuildingBlock: CIFDUS_clean_linker_0, # of connection points: 2
#     Edge 42, Type (0, 0), BuildingBlock: CIFDUS_clean_linker_0, # of connection points: 2
#     Edge 43, Type (0, 0), BuildingBlock: CIFDUS_clean_linker_0, # of connection points: 2
#     Edge 44, Type (0, 0), BuildingBlock: CIFDUS_clean_linker_0, # of connection points: 2
#     Edge 45, Type (0, 0), BuildingBlock: CIFDUS_clean_linker_0, # of connection points: 2
#     Edge 46, Type (0, 0), BuildingBlock: CIFDUS_clean_linker_0, # of connection points: 2
#     Edge 47, Type (0, 0), BuildingBlock: CIFDUS_clean_linker_0, # of connection points: 2
#     Edge 48, Type (0, 0), BuildingBlock: CIFDUS_clean_linker_0, # of connection points: 2
#     Edge 49, Type (0, 0), BuildingBlock: CIFDUS_clean_linker_0, # of connection points: 2
#     Edge 50, Type (0, 0), BuildingBlock: CIFDUS_clean_linker_0, # of connection points: 2
#     Edge 51, Type (0, 0), BuildingBlock: CIFDUS_clean_linker_0, # of connection points: 2
#     Edge 52, Type (0, 0), BuildingBlock: CIFDUS_clean_linker_0, # of connection points: 2
#     Edge 53, Type (0, 0), BuildingBlock: CIFDUS_clean_linker_0, # of connection points: 2
#     Edge 54, Type (0, 0), BuildingBlock: CIFDUS_clean_linker_0, # of connection points: 2
#     Edge 55, Type (0, 0), BuildingBlock: CIFDUS_clean_linker_0, # of connection points: 2
#     Edge 56, Type (0, 0), BuildingBlock: CIFDUS_clean_linker_0, # of connection points: 2
#     Edge 57, Type (0, 0), BuildingBlock: CIFDUS_clean_linker_0, # of connection points: 2
#     Edge 58, Type (0, 0), BuildingBlock: CIFDUS_clean_linker_0, # of connection points: 2
#     Edge 59, Type (0, 0), BuildingBlock: CIFDUS_clean_linker_0, # of connection points: 2
#     Edge 60, Type (0, 0), BuildingBlock: CIFDUS_clean_linker_0, # of connection points: 2
#     Edge 61, Type (0, 0), BuildingBlock: CIFDUS_clean_linker_0, # of connection points: 2
#     Edge 62, Type (0, 0), BuildingBlock: CIFDUS_clean_linker_0, # of connection points: 2
#     Edge 63, Type (0, 0), BuildingBlock: CIFDUS_clean_linker_0, # of connection points: 2
#     Edge 64, Type (0, 0), BuildingBlock: CIFDUS_clean_linker_0, # of connection points: 2
#     Edge 65, Type (0, 0), BuildingBlock: CIFDUS_clean_linker_0, # of connection points: 2
#     Edge 66, Type (0, 0), BuildingBlock: CIFDUS_clean_linker_0, # of connection points: 2
#     Edge 67, Type (0, 0), BuildingBlock: CIFDUS_clean_linker_0, # of connection points: 2
#     Edge 68, Type (0, 0), BuildingBlock: CIFDUS_clean_linker_0, # of connection points: 2
#     Edge 69, Type (0, 0), BuildingBlock: CIFDUS_clean_linker_0, # of connection points: 2
#     Edge 70, Type (0, 0), BuildingBlock: CIFDUS_clean_linker_0, # of connection points: 2
#     Edge 71, Type (0, 0), BuildingBlock: CIFDUS_clean_linker_0, # of connection points: 2
#     Edge 72, Type (0, 0), BuildingBlock: CIFDUS_clean_linker_0, # of connection points: 2
#     Edge 73, Type (0, 0), BuildingBlock: CIFDUS_clean_linker_0, # of connection points: 2
#     Edge 74, Type (0, 0), BuildingBlock: CIFDUS_clean_linker_0, # of connection points: 2
#     Edge 75, Type (0, 0), BuildingBlock: CIFDUS_clean_linker_0, # of connection points: 2
#     Edge 76, Type (0, 0), BuildingBlock: CIFDUS_clean_linker_0, # of connection points: 2
#     Edge 77, Type (0, 0), BuildingBlock: CIFDUS_clean_linker_0, # of connection points: 2
#     Edge 78, Type (0, 0), BuildingBlock: CIFDUS_clean_linker_0, # of connection points: 2
#     Edge 79, Type (0, 0), BuildingBlock: CIFDUS_clean_linker_0, # of connection points: 2
#     Edge 80, Type (0, 0), BuildingBlock: CIFDUS_clean_linker_0, # of connection points: 2
#     Edge 81, Type (0, 0), BuildingBlock: CIFDUS_clean_linker_0, # of connection points: 2
#     Edge 82, Type (0, 0), BuildingBlock: CIFDUS_clean_linker_0, # of connection points: 2
#     Edge 83, Type (0, 0), BuildingBlock: CIFDUS_clean_linker_0, # of connection points: 2
#     Edge 84, Type (0, 0), BuildingBlock: CIFDUS_clean_linker_0, # of connection points: 2
#     Edge 85, Type (0, 0), BuildingBlock: CIFDUS_clean_linker_0, # of connection points: 2
#     Edge 86, Type (0, 0), BuildingBlock: CIFDUS_clean_linker_0, # of connection points: 2
#     Edge 87, Type (0, 0), BuildingBlock: CIFDUS_clean_linker_0, # of connection points: 2
#     Edge 88, Type (0, 0), BuildingBlock: CIFDUS_clean_linker_0, # of connection points: 2
#     Edge 89, Type (0, 0), BuildingBlock: CIFDUS_clean_linker_0, # of connection points: 2
#     Edge 90, Type (0, 0), BuildingBlock: CIFDUS_clean_linker_0, # of connection points: 2
#     Edge 91, Type (0, 0), BuildingBlock: CIFDUS_clean_linker_0, # of connection points: 2
#     Edge 92, Type (0, 0), BuildingBlock: CIFDUS_clean_linker_0, # of connection points: 2
#     Edge 93, Type (0, 0), BuildingBlock: CIFDUS_clean_linker_0, # of connection points: 2
#     Edge 94, Type (0, 0), BuildingBlock: CIFDUS_clean_linker_0, # of connection points: 2
#     Edge 95, Type (0, 0), BuildingBlock: CIFDUS_clean_linker_0, # of connection points: 2
# Relax obj value: 0.089
# Max RMSD: 0.107
# Mean RMSD: 0.107
data_MOF--net-umr--node1-CEKHIL_clean_sbu_0--edge1-CIFDUS_clean_linker_0
_symmetry_space_group_name_H-M    P1
_symmetry_Int_Tables_number       1
_symmetry_cell_setting            triclinic
loop_
_symmetry_equiv_pos_as_xyz
'x, y, z'
_cell_length_a     72.678529
_cell_length_b     72.664271
_cell_length_c     22.931457
_cell_angle_alpha  89.936567
_cell_angle_beta   89.916259
_cell_angle_gamma 90.000535
loop_
_atom_site_label
_atom_site_type_symbol
_atom_site_fract_x
_atom_site_fract_y
_atom_site_fract_z
_atom_type_partial_charge
Co0 Co 0.16088 0.29622 0.03133 0.0
O1 O 0.13497 0.30068 0.04223 0.0
O2 O 0.15702 0.31945 0.07166 0.0
C3 C 0.15931 0.28798 0.93628 0.0
O4 O 0.18904 0.2964 0.02587 0.0
Co5 Co 0.1744 0.25672 0.00087 0.0
O6 O 0.19845 0.26908 0.98985 0.0
C7 C 0.16319 0.26522 0.1216 0.0
C8 C 0.1395 0.31597 0.06754 0.0
C9 C 0.20164 0.28548 0.00653 0.0
O10 O 0.16178 0.2824 0.10816 0.0
O11 O 0.16659 0.25269 0.08387 0.0
O12 O 0.15962 0.30523 0.95108 0.0
O13 O 0.15802 0.2765 0.9791 0.0
Co14 Co 0.9626 0.90937 0.27636 0.0
O15 O 0.95601 0.88406 0.29167 0.0
O16 O 0.93819 0.90793 0.31076 0.0
C17 C 0.97345 0.90429 0.18577 0.0
O18 O 0.9642 0.93736 0.26441 0.0
Co19 Co 1.00293 0.92134 0.2482 0.0
O20 O 0.99068 0.94375 0.21759 0.0
C21 C 0.99192 0.91233 0.36966 0.0
C22 C 0.94033 0.89014 0.31066 0.0
C23 C 0.97478 0.9484 0.23572 0.0
O24 O 0.97479 0.91129 0.3552 0.0
O25 O 1.00494 0.91484 0.33278 0.0
O26 O 0.95587 0.90637 0.1942 0.0
O27 O 0.98344 0.90413 0.23198 0.0
Co28 Co 0.35182 0.71422 0.54096 0.0
O29 O 0.37777 0.70975 0.55016 0.0
O30 O 0.35594 0.69107 0.58189 0.0
C31 C 0.35324 0.7222 0.4455 0.0
O32 O 0.32363 0.71411 0.53812 0.0
Co33 Co 0.33729 0.75309 0.50827 0.0
O34 O 0.31438 0.73944 0.48974 0.0
C35 C 0.34879 0.74539 0.62984 0.0
C36 C 0.37343 0.69451 0.57627 0.0
C37 C 0.31114 0.72378 0.51255 0.0
O38 O 0.3513 0.7283 0.61703 0.0
O39 O 0.34439 0.75756 0.59181 0.0
O40 O 0.35272 0.705 0.4609 0.0
O41 O 0.35443 0.73382 0.48789 0.0
Co42 Co 0.54194 0.1023 0.79011 0.0
O43 O 0.55003 0.12748 0.80046 0.0
O44 O 0.56464 0.10302 0.83415 0.0
C45 C 0.53567 0.10555 0.69466 0.0
O46 O 0.53896 0.07432 0.78711 0.0
Co47 Co 0.50308 0.09099 0.74593 0.0
O48 O 0.51445 0.0665 0.73293 0.0
C49 C 0.50842 0.10373 0.86825 0.0
C50 C 0.56428 0.12078 0.82724 0.0
C51 C 0.52914 0.06233 0.75999 0.0
O52 O 0.52613 0.10368 0.86273 0.0
O53 O 0.49739 0.1005 0.82592 0.0
O54 O 0.55244 0.10221 0.71118 0.0
O55 O 0.52363 0.10741 0.73528 0.0
Co56 Co 0.1632 0.71292 0.45457 0.0
O57 O 0.13766 0.70606 0.44547 0.0
O58 O 0.16128 0.68952 0.41474 0.0
C59 C 0.1609 0.72102 0.54967 0.0
O60 O 0.19127 0.71465 0.45754 0.0
Co61 Co 0.17568 0.75231 0.48646 0.0
O62 O 0.1993 0.74011 0.50672 0.0
C63 C 0.16427 0.74404 0.36504 0.0
C64 C 0.14356 0.6911 0.42074 0.0
C65 C 0.20328 0.72467 0.4838 0.0
O66 O 0.16267 0.72684 0.37803 0.0
O67 O 0.16823 0.75639 0.4029 0.0
O68 O 0.16288 0.70389 0.53478 0.0
O69 O 0.15909 0.7325 0.50697 0.0
Co70 Co 0.54232 0.91354 0.71078 0.0
O71 O 0.54747 0.88779 0.69999 0.0
O72 O 0.56647 0.91028 0.67551 0.0
C73 C 0.53157 0.91058 0.80243 0.0
O74 O 0.54183 0.94171 0.71625 0.0
Co75 Co 0.5025 0.92753 0.73746 0.0
O76 O 0.51542 0.95053 0.75944 0.0
C77 C 0.51285 0.91549 0.61823 0.0
C78 C 0.56319 0.89269 0.67811 0.0
C79 C 0.53147 0.95403 0.74004 0.0
O80 O 0.52998 0.91446 0.63239 0.0
O81 O 0.49998 0.919 0.6548 0.0
O82 O 0.54921 0.9118 0.79333 0.0
O83 O 0.52147 0.91007 0.75654 0.0
Co84 Co 0.34684 0.29603 0.96842 0.0
O85 O 0.37114 0.30519 0.95163 0.0
O86 O 0.3455 0.32048 0.93374 0.0
C87 C 0.35338 0.28578 0.05898 0.0
O88 O 0.31931 0.29146 0.98272 0.0
Co89 Co 0.34014 0.25442 0.99574 0.0
O90 O 0.31663 0.264 0.02736 0.0
C91 C 0.34705 0.26659 0.87442 0.0
C92 C 0.3634 0.32012 0.93262 0.0
C93 C 0.30991 0.27942 0.01152 0.0
O94 O 0.34581 0.28368 0.88932 0.0
O95 O 0.34657 0.25331 0.91113 0.0
O96 O 0.34949 0.30306 0.05061 0.0
O97 O 0.3546 0.27593 0.01261 0.0
Co98 Co 0.96424 0.0955 0.20944 0.0
O99 O 0.95781 0.12084 0.19308 0.0
O100 O 0.94202 0.09674 0.16271 0.0
C101 C 0.96965 0.09993 0.30525 0.0
O102 O 0.96569 0.06743 0.2198 0.0
Co103 Co 1.00237 0.08365 0.25947 0.0
O104 O 0.98873 0.06111 0.28208 0.0
C105 C 0.99856 0.09323 0.13392 0.0
C106 C 0.94339 0.11455 0.16631 0.0
C107 C 0.97434 0.05639 0.25428 0.0
O108 O 0.98086 0.09454 0.13831 0.0
O109 O 0.00914 0.09026 0.17755 0.0
O110 O 0.9529 0.09762 0.2868 0.0
O111 O 0.98211 0.10063 0.26544 0.0
Co112 Co 0.84658 0.71613 0.93878 0.0
O113 O 0.87154 0.70952 0.91833 0.0
O114 O 0.84692 0.69319 0.89572 0.0
C115 C 0.85352 0.72335 0.03131 0.0
O116 O 0.8188 0.71749 0.95334 0.0
Co117 Co 0.83455 0.75437 0.98689 0.0
O118 O 0.81199 0.74121 0.01212 0.0
C119 C 0.8424 0.74921 0.86042 0.0
C120 C 0.86474 0.69471 0.89513 0.0
C121 C 0.80749 0.72643 0.98606 0.0
O122 O 0.84417 0.7316 0.86614 0.0
O123 O 0.83975 0.76021 0.90322 0.0
O124 O 0.85038 0.70627 0.01749 0.0
O125 O 0.85275 0.73509 0.98955 0.0
Co126 Co 0.04413 0.09805 0.7152 0.0
O127 O 0.05253 0.12264 0.69677 0.0
O128 O 0.06849 0.09729 0.68038 0.0
C129 C 0.03368 0.10468 0.80553 0.0
O130 O 0.04081 0.07042 0.73029 0.0
Co131 Co 1.00319 0.08896 0.74463 0.0
O132 O 0.01401 0.06613 0.77752 0.0
C133 C 0.01454 0.09595 0.62223 0.0
C134 C 0.06765 0.11516 0.67803 0.0
C135 C 0.02962 0.06033 0.76008 0.0
O136 O 0.03172 0.09611 0.63655 0.0
O137 O 1.00144 0.09461 0.65942 0.0
O138 O 0.0511 0.10147 0.79713 0.0
O139 O 0.02371 0.1051 0.75928 0.0
Co140 Co 0.66618 0.29439 0.44869 0.0
O141 O 0.64085 0.30165 0.43765 0.0
O142 O 0.66494 0.3187 0.41411 0.0
C143 C 0.66216 0.28365 0.54004 0.0
O144 O 0.69421 0.29215 0.45429 0.0
Co145 Co 0.67809 0.254 0.47588 0.0
O146 O 0.70203 0.26533 0.49661 0.0
C147 C 0.66682 0.26489 0.35614 0.0
C148 C 0.64714 0.31704 0.4168 0.0
C149 C 0.70614 0.28125 0.47733 0.0
O150 O 0.66643 0.28208 0.3701 0.0
O151 O 0.66972 0.25193 0.39294 0.0
O152 O 0.66467 0.30118 0.53141 0.0
O153 O 0.66127 0.27367 0.49392 0.0
Co154 Co 0.46376 0.91483 0.20597 0.0
O155 O 0.46034 0.88922 0.18753 0.0
O156 O 0.442 0.91164 0.15776 0.0
C157 C 0.46897 0.91016 0.30138 0.0
O158 O 0.46266 0.9428 0.21806 0.0
Co159 Co 0.50076 0.92923 0.25804 0.0
O160 O 0.48553 0.95086 0.27913 0.0
C161 C 0.49809 0.91995 0.13243 0.0
C162 C 0.4456 0.8941 0.15974 0.0
C163 C 0.47072 0.95448 0.25179 0.0
O164 O 0.48049 0.91784 0.13625 0.0
O165 O 0.50844 0.92314 0.17645 0.0
O166 O 0.45217 0.91106 0.28223 0.0
O167 O 0.48167 0.9109 0.26233 0.0
Co168 Co 0.85445 0.28643 0.54245 0.0
O169 O 0.88 0.29117 0.55964 0.0
O170 O 0.85693 0.30909 0.58668 0.0
C171 C 0.85968 0.27946 0.44867 0.0
O172 O 0.82644 0.28663 0.5322 0.0
Co173 Co 0.83995 0.24902 0.49422 0.0
O174 O 0.81761 0.26336 0.47418 0.0
C175 C 0.84993 0.25311 0.61944 0.0
C176 C 0.87459 0.3062 0.58492 0.0
C177 C 0.81422 0.27822 0.50147 0.0
O178 O 0.85209 0.27069 0.6144 0.0
O179 O 0.84648 0.24244 0.57638 0.0
O180 O 0.85771 0.2966 0.4638 0.0
O181 O 0.85885 0.26752 0.48983 0.0
Co182 Co 0.46412 0.10002 0.28883 0.0
O183 O 0.45761 0.125 0.31027 0.0
O184 O 0.43956 0.10084 0.32195 0.0
C185 C 0.47562 0.10731 0.20015 0.0
O186 O 0.46508 0.07242 0.27004 0.0
Co187 Co 0.50399 0.08728 0.25808 0.0
O188 O 0.49106 0.06645 0.22032 0.0
C189 C 0.49273 0.09206 0.38163 0.0
C190 C 0.4417 0.11855 0.3262 0.0
C191 C 0.47511 0.06182 0.23806 0.0
O192 O 0.47591 0.09568 0.36763 0.0
O193 O 0.50568 0.08929 0.34485 0.0
O194 O 0.45796 0.10543 0.20737 0.0
O195 O 0.48539 0.10586 0.24664 0.0
Co196 Co 0.65888 0.71738 0.04416 0.0
O197 O 0.63287 0.71271 0.05144 0.0
O198 O 0.65463 0.69416 0.08434 0.0
C199 C 0.65814 0.72529 0.94869 0.0
O200 O 0.68708 0.71744 0.04326 0.0
Co201 Co 0.67327 0.75639 0.01228 0.0
O202 O 0.69674 0.74322 -0.00203 0.0
C203 C 0.66111 0.74857 0.13324 0.0
C204 C 0.63717 0.69741 0.07714 0.0
C205 C 0.6998 0.72743 0.02007 0.0
O206 O 0.65875 0.73146 0.12033 0.0
O207 O 0.66562 0.76076 0.09539 0.0
O208 O 0.65868 0.7081 0.96421 0.0
O209 O 0.65652 0.73693 0.99088 0.0
Co210 Co 0.04195 0.91229 0.78269 0.0
O211 O 0.04583 0.88652 0.7988 0.0
O212 O 0.06387 0.90892 0.83011 0.0
C213 C 0.03642 0.90856 0.68681 0.0
O214 O 0.04272 0.94039 0.77336 0.0
Co215 Co 1.00466 0.92689 0.7328 0.0
O216 O 0.01924 0.94929 0.71576 0.0
C217 C 0.00772 0.9162 0.85737 0.0
C218 C 0.06053 0.89135 0.82688 0.0
C219 C 0.03423 0.95257 0.74249 0.0
O220 O 0.02536 0.91437 0.85322 0.0
O221 O 0.9973 0.91969 0.81374 0.0
O222 O 0.05328 0.90943 0.70554 0.0
O223 O 0.02387 0.90877 0.72638 0.0
Co224 Co 0.66386 0.80335 0.5441 0.0
O225 O 0.63858 0.81081 0.55439 0.0
O226 O 0.66265 0.82667 0.58508 0.0
C227 C 0.6612 0.79563 0.44887 0.0
O228 O 0.69186 0.80057 0.5402 0.0
Co229 Co 0.6745 0.7634 0.5108 0.0
O230 O 0.69866 0.77463 0.49134 0.0
C231 C 0.66409 0.772 0.63284 0.0
C232 C 0.64486 0.82544 0.58001 0.0
C233 C 0.70337 0.78988 0.51416 0.0
O234 O 0.66311 0.78925 0.62009 0.0
O235 O 0.66732 0.75951 0.59471 0.0
O236 O 0.66367 0.81266 0.46416 0.0
O237 O 0.65901 0.78413 0.4913 0.0
Co238 Co 0.46104 0.41186 0.78923 0.0
O239 O 0.45509 0.38652 0.80262 0.0
O240 O 0.43773 0.40973 0.83169 0.0
C241 C 0.46848 0.40855 0.694 0.0
O242 O 0.46331 0.43999 0.78047 0.0
Co243 Co 0.50162 0.42086 0.75563 0.0
O244 O 0.4906 0.44503 0.73652 0.0
C245 C 0.49259 0.41229 0.8779 0.0
C246 C 0.44033 0.392 0.82896 0.0
C247 C 0.47509 0.45076 0.75533 0.0
O248 O 0.47532 0.41238 0.86505 0.0
O249 O 0.5053 0.41399 0.83953 0.0
O250 O 0.45141 0.4105 0.70968 0.0
O251 O 0.48002 0.40676 0.73633 0.0
Co252 Co 0.85082 0.21386 0.04421 0.0
O253 O 0.87661 0.2109 0.06238 0.0
O254 O 0.85499 0.19075 0.08512 0.0
C255 C 0.85614 0.22277 0.95189 0.0
O256 O 0.8229 0.21165 0.03199 0.0
Co257 Co 0.83342 0.25056 -0.0004 0.0
O258 O 0.81292 0.23453 0.97421 0.0
C259 C 0.84254 0.24539 0.12533 0.0
C260 C 0.87237 0.19506 0.08481 0.0
C261 C 0.81037 0.21928 0.00032 0.0
O262 O 0.84683 0.22827 0.11823 0.0
O263 O 0.83804 0.25623 0.08362 0.0
O264 O 0.8555 0.20531 0.9644 0.0
O265 O 0.85392 0.23388 0.99474 0.0
Co266 Co 0.04292 0.60293 0.28525 0.0
O267 O 0.04736 0.62854 0.30151 0.0
O268 O 0.06469 0.60564 0.33362 0.0
C269 C 0.03795 0.60691 0.18936 0.0
O270 O 0.04287 0.57487 0.27618 0.0
Co271 Co 0.00542 0.58954 0.23379 0.0
O272 O 0.0194 0.56664 0.21781 0.0
C273 C 0.00833 0.5999 0.3584 0.0
C274 C 0.0618 0.62329 0.3302 0.0
C275 C 0.03408 0.56284 0.24563 0.0
O276 O 0.02602 0.60113 0.35483 0.0
O277 O 0.99789 0.59698 0.3144 0.0
O278 O 0.0547 0.60553 0.20871 0.0
O279 O 0.02523 0.60703 0.22837 0.0
Co280 Co 0.66195 0.21503 0.94383 0.0
O281 O 0.63581 0.2126 0.93174 0.0
O282 O 0.6567 0.19345 0.89656 0.0
C283 C 0.65964 0.22042 0.04012 0.0
O284 O 0.69008 0.21284 0.94836 0.0
Co285 Co 0.67939 0.25107 0.99327 0.0
O286 O 0.70092 0.23492 0.00785 0.0
C287 C 0.66686 0.24928 0.8701 0.0
C288 C 0.63941 0.1977 0.90287 0.0
C289 C 0.70311 0.22021 0.97854 0.0
O290 O 0.66397 0.23177 0.87375 0.0
O291 O 0.67158 0.25925 0.91363 0.0
O292 O 0.65954 0.20358 0.02097 0.0
O293 O 0.66014 0.23306 0.00093 0.0
Co294 Co 0.04769 0.41454 0.20206 0.0
O295 O 0.05557 0.38925 0.19356 0.0
O296 O 0.07106 0.41341 0.16148 0.0
C297 C 0.03977 0.4125 0.29756 0.0
O298 O 0.04477 0.44252 0.20369 0.0
Co299 Co 0.00767 0.42528 0.23427 0.0
O300 O 0.01831 0.45003 0.24867 0.0
C301 C 0.01645 0.41397 0.1131 0.0
C302 C 0.07015 0.39565 0.1677 0.0
C303 C 0.0338 0.45439 0.22669 0.0
O304 O 0.03371 0.41319 0.12585 0.0
O305 O 1.00394 0.41735 0.1511 0.0
O306 O 0.05681 0.41497 0.28222 0.0
O307 O 0.02839 0.40993 0.25515 0.0
Co308 Co 0.85121 0.78853 0.43846 0.0
O309 O 0.8769 0.79209 0.41984 0.0
O310 O 0.85468 0.81141 0.39582 0.0
C311 C 0.85661 0.78043 0.53147 0.0
O312 O 0.82333 0.7902 0.45075 0.0
Co313 Co 0.8347 0.75176 0.48586 0.0
O314 O 0.81366 0.76742 0.50957 0.0
C315 C 0.84353 0.75628 0.35957 0.0
C316 C 0.87217 0.80763 0.39629 0.0
C317 C 0.81092 0.78251 0.48272 0.0
O318 O 0.84752 0.77351 0.36547 0.0
O319 O 0.83937 0.74563 0.40217 0.0
O320 O 0.85557 0.79777 0.51768 0.0
O321 O 0.85481 0.76895 0.48943 0.0
Co322 Co 0.46793 0.59851 0.70981 0.0
O323 O 0.45907 0.62325 0.69809 0.0
O324 O 0.44363 0.59818 0.67427 0.0
C325 C 0.478 0.6031 0.80172 0.0
O326 O 0.47232 0.57066 0.71669 0.0
Co327 Co 0.50957 0.5912 0.73689 0.0
O328 O 0.50118 0.56556 0.74886 0.0
C329 C 0.49769 0.60038 0.61692 0.0
C330 C 0.44422 0.61607 0.67658 0.0
C331 C 0.4853 0.55983 0.73386 0.0
O332 O 0.48054 0.59903 0.63112 0.0
O333 O 0.51084 0.59945 0.65389 0.0
O334 O 0.46072 0.59945 0.79247 0.0
O335 O 0.48792 0.60512 0.75584 0.0
Co336 Co 0.34899 0.21591 0.46195 0.0
O337 O 0.37474 0.2132 0.44293 0.0
O338 O 0.35303 0.19378 0.41571 0.0
C339 C 0.35363 0.22225 0.55708 0.0
O340 O 0.32105 0.21367 0.47547 0.0
Co341 Co 0.33292 0.25255 0.51172 0.0
O342 O 0.31262 0.23621 0.53724 0.0
C343 C 0.34175 0.24932 0.38556 0.0
C344 C 0.37044 0.19796 0.41696 0.0
C345 C 0.30938 0.22117 0.51073 0.0
O346 O 0.34514 0.23192 0.39051 0.0
O347 O 0.33793 0.25971 0.42899 0.0
O348 O 0.35344 0.20527 0.53925 0.0
O349 O 0.35226 0.23454 0.51692 0.0
Co350 Co 0.54743 0.59645 0.20355 0.0
O351 O 0.55339 0.62188 0.18724 0.0
O352 O 0.56945 0.598 0.15606 0.0
C353 C 0.54217 0.60091 0.29935 0.0
O354 O 0.5465 0.56843 0.21245 0.0
Co355 Co 0.51 0.58335 0.25566 0.0
O356 O 0.52371 0.56044 0.27372 0.0
C357 C 0.51304 0.59318 0.12988 0.0
C358 C 0.5678 0.61578 0.15982 0.0
C359 C 0.53805 0.55651 0.24434 0.0
O360 O 0.53067 0.59522 0.1334 0.0
O361 O 0.50273 0.58975 0.17393 0.0
O362 O 0.55892 0.59874 0.28052 0.0
O363 O 0.52958 0.60116 0.26005 0.0
Co364 Co 0.15987 0.79944 0.95453 0.0
O365 O 0.13452 0.8071 0.94598 0.0
O366 O 0.15851 0.82282 0.91387 0.0
C367 C 0.15795 0.79164 0.05011 0.0
O368 O 0.18787 0.79664 0.95665 0.0
Co369 Co 0.17061 0.75938 0.98741 0.0
O370 O 0.19515 0.77032 0.00294 0.0
C371 C 0.16011 0.76813 0.86547 0.0
C372 C 0.14076 0.82179 0.92039 0.0
C373 C 0.19961 0.78573 0.98063 0.0
O374 O 0.1588 0.78537 0.87832 0.0
O375 O 0.16351 0.75567 0.90357 0.0
O376 O 0.1602 0.8087 0.03454 0.0
O377 O 0.15537 0.78019 0.00787 0.0
Co378 Co 0.96105 0.41127 0.70284 0.0
O379 O 0.95517 0.3855 0.69325 0.0
O380 O 0.93772 0.40848 0.6629 0.0
C381 C 0.96916 0.40919 0.79801 0.0
O382 O 0.9618 0.43942 0.7066 0.0
Co383 Co 1.00009 0.42488 0.73518 0.0
O384 O 0.98701 0.44794 0.75631 0.0
C385 C 0.99214 0.41382 0.61325 0.0
C386 C 0.93999 0.39081 0.6687 0.0
C387 C 0.97148 0.45161 0.73342 0.0
O388 O 0.97502 0.41147 0.62626 0.0
O389 O 1.00435 0.41805 0.65123 0.0
O390 O 0.95197 0.41048 0.78303 0.0
O391 O 0.98069 0.4078 0.75533 0.0
Co392 Co 0.34734 0.80049 0.04041 0.0
O393 O 0.37258 0.8083 0.04954 0.0
O394 O 0.34837 0.82393 0.08047 0.0
C395 C 0.34982 0.79262 0.94525 0.0
O396 O 0.31938 0.7976 0.03705 0.0
Co397 Co 0.33678 0.76048 0.00822 0.0
O398 O 0.31272 0.77172 0.98787 0.0
C399 C 0.34741 0.76927 0.12986 0.0
C400 C 0.36614 0.82303 0.07427 0.0
C401 C 0.30792 0.78697 0.01063 0.0
O402 O 0.34834 0.78653 0.11684 0.0
O403 O 0.34412 0.75675 0.09195 0.0
O404 O 0.34728 0.80966 0.96037 0.0
O405 O 0.35221 0.7812 0.98777 0.0
Co406 Co 0.96403 0.60069 0.78117 0.0
O407 O 0.96021 0.62684 0.78807 0.0
O408 O 0.93998 0.60575 0.81499 0.0
C409 C 0.97513 0.6019 0.68959 0.0
O410 O 0.96302 0.57245 0.77964 0.0
Co411 Co 1.00313 0.58424 0.7575 0.0
O412 O 0.9892 0.56148 0.74006 0.0
C413 C 0.99328 0.59881 0.87428 0.0
C414 C 0.94414 0.6231 0.80967 0.0
C415 C 0.97285 0.55922 0.75872 0.0
O416 O 0.97619 0.60026 0.85998 0.0
O417 O 0.00598 0.59421 0.83834 0.0
O418 O 0.95743 0.60175 0.69826 0.0
O419 O 0.98513 0.60238 0.73568 0.0
Co420 Co 0.16238 0.20984 0.53218 0.0
O421 O 0.13647 0.20646 0.54592 0.0
O422 O 0.1579 0.18667 0.57299 0.0
C423 C 0.15973 0.21824 0.43753 0.0
O424 O 0.19052 0.20862 0.52311 0.0
Co425 Co 0.17739 0.24852 0.49974 0.0
O426 O 0.1991 0.23408 0.47394 0.0
C427 C 0.16686 0.24064 0.62177 0.0
C428 C 0.14051 0.19094 0.57065 0.0
C429 C 0.20248 0.2181 0.49414 0.0
O430 O 0.16461 0.22354 0.60867 0.0
O431 O 0.17071 0.25298 0.58368 0.0
O432 O 0.15974 0.20097 0.45226 0.0
O433 O 0.1596 0.22973 0.48046 0.0
Co434 Co 0.54659 0.40755 0.28949 0.0
O435 O 0.55115 0.38155 0.29744 0.0
O436 O 0.56961 0.40339 0.3304 0.0
C437 C 0.53882 0.40668 0.19406 0.0
O438 O 0.54669 0.43571 0.2883 0.0
Co439 Co 0.50784 0.42235 0.25709 0.0
O440 O 0.52143 0.44551 0.24088 0.0
C441 C 0.51531 0.41009 0.37807 0.0
C442 C 0.56632 0.38591 0.32379 0.0
C443 C 0.53708 0.44847 0.26391 0.0
O444 O 0.5324 0.40761 0.36527 0.0
O445 O 0.5032 0.41475 0.34021 0.0
O446 O 0.55599 0.40714 0.20966 0.0
O447 O 0.5271 0.40524 0.23618 0.0
H448 H 0.28497 0.30126 0.95322 0.0
H449 H 0.29051 0.26476 0.10089 0.0
H450 H 0.25746 0.2656 0.1169 0.0
H451 H 0.22668 0.27333 0.08199 0.0
H452 H 0.22006 0.30894 0.93354 0.0
H453 H 0.25368 0.31208 0.92504 0.0
C454 C 0.27894 0.2938 0.9895 0.0
C455 C 0.2902 0.28271 0.02516 0.0
C456 C 0.25969 0.2941 -0.0019 0.0
C457 C 0.28217 0.27313 0.07208 0.0
C458 C 0.26324 0.27361 0.08142 0.0
C459 C 0.23266 0.28217 0.04882 0.0
C460 C 0.2211 0.29102 0.00877 0.0
C461 C 0.25184 0.28354 0.04367 0.0
C462 C 0.22882 0.30224 0.96532 0.0
C463 C 0.24801 0.30387 0.96021 0.0
H464 H 0.96557 0.97292 0.31963 0.0
H465 H 0.97346 0.96748 0.13432 0.0
H466 H 0.97078 1.00087 0.12222 0.0
H467 H 0.97051 0.03187 0.16616 0.0
H468 H 0.96682 0.03726 0.35279 0.0
H469 H 0.96328 1.0039 0.36293 0.0
C470 C 0.96616 0.97908 0.27655 0.0
C471 C 0.96948 0.96785 0.22781 0.0
C472 C 0.96557 0.99836 0.2704 0.0
C473 C 0.97076 0.97593 0.1723 0.0
C474 C 0.96933 0.995 0.16546 0.0
C475 C 0.96842 0.0257 0.20877 0.0
C476 C 0.96872 0.03691 0.25865 0.0
C477 C 0.96735 0.00642 0.21439 0.0
C478 C 0.9665 0.02883 0.31386 0.0
C479 C 0.96457 0.00976 0.31965 0.0
H480 H 0.22732 0.72099 0.57344 0.0
H481 H 0.22306 0.71745 0.38645 0.0
H482 H 0.25658 0.71489 0.37829 0.0
H483 H 0.28723 0.71771 0.4242 0.0
H484 H 0.29146 0.71886 0.61145 0.0
H485 H 0.25786 0.71795 0.62013 0.0
C486 C 0.23378 0.71924 0.53113 0.0
C487 C 0.22289 0.71956 0.48055 0.0
C488 C 0.25301 0.71742 0.52694 0.0
C489 C 0.23126 0.71718 0.42588 0.0
C490 C 0.2504 0.71582 0.42122 0.0
C491 C 0.28074 0.71718 0.4668 0.0
C492 C 0.29166 0.71834 0.51715 0.0
C493 C 0.26144 0.71647 0.47135 0.0
C494 C 0.28324 0.71776 0.57222 0.0
C495 C 0.26405 0.71744 0.57713 0.0
H496 H 0.53854 0.03763 0.6762 0.0
H497 H 0.52872 0.04313 0.86063 0.0
H498 H 0.53035 0.00966 0.87258 0.0
H499 H 0.53095 0.97875 0.82817 0.0
H500 H 0.5431 0.97312 0.64516 0.0
H501 H 0.54459 0.00667 0.63487 0.0
C502 C 0.53716 0.03144 0.71904 0.0
C503 C 0.53338 0.04265 0.76748 0.0
C504 C 0.53849 0.01221 0.72568 0.0
C505 C 0.53167 0.03465 0.82291 0.0
C506 C 0.53252 0.01555 0.82966 0.0
C507 C 0.53442 0.98492 0.78646 0.0
C508 C 0.53686 0.97359 0.73744 0.0
C509 C 0.53543 1.00417 0.78111 0.0
C510 C 0.54134 0.98163 0.68355 0.0
C511 C 0.54201 1.00079 0.67756 0.0
H512 H 0.72324 0.71482 0.93704 0.0
H513 H 0.71983 0.72982 0.11833 0.0
H514 H 0.75343 0.72936 0.12591 0.0
H515 H 0.78368 0.72874 0.07715 0.0
H516 H 0.78727 0.71223 0.89699 0.0
H517 H 0.75379 0.70886 0.8928 0.0
C518 C 0.72992 0.71738 0.97853 0.0
C519 C 0.71923 0.72223 0.0272 0.0
C520 C 0.74925 0.71705 0.98248 0.0
C521 C 0.72789 0.72579 0.08065 0.0
C522 C 0.74707 0.72571 0.08479 0.0
C523 C 0.77713 0.72407 0.03736 0.0
C524 C 0.78786 0.72099 0.98724 0.0
C525 C 0.7579 0.72198 0.03547 0.0
C526 C 0.77928 0.7147 0.93613 0.0
C527 C 0.76013 0.71288 0.9336 0.0
H528 H 0.02968 0.97671 0.82972 0.0
H529 H 0.05079 0.97164 0.65507 0.0
H530 H 0.05396 1.00519 0.64802 0.0
H531 H 0.04649 0.03605 0.68688 0.0
H532 H 0.02205 0.04068 0.85766 0.0
H533 H 0.02457 0.00743 0.87147 0.0
C534 C 0.03553 0.98301 0.79096 0.0
C535 C 0.04034 0.97187 0.74338 0.0
C536 C 0.03641 1.00228 0.78632 0.0
C537 C 0.04734 0.98004 0.69252 0.0
C538 C 0.04897 0.99921 0.68836 0.0
C539 C 0.04213 0.02978 0.72756 0.0
C540 C 0.03405 0.04076 0.77114 0.0
C541 C 0.04295 0.01051 0.73426 0.0
C542 C 0.0282 0.03246 0.82337 0.0
C543 C 0.02962 0.01346 0.83126 0.0
H544 H 0.73069 0.2873 0.56454 0.0
H545 H 0.7256 0.28409 0.37775 0.0
H546 H 0.75914 0.28443 0.36739 0.0
H547 H 0.78982 0.28169 0.41272 0.0
H548 H 0.79511 0.28727 0.59897 0.0
H549 H 0.76168 0.29031 0.60856 0.0
C550 C 0.737 0.28717 0.52165 0.0
C551 C 0.72585 0.28563 0.47193 0.0
C552 C 0.75629 0.28765 0.51606 0.0
C553 C 0.73402 0.28542 0.41647 0.0
C554 C 0.75317 0.28548 0.4106 0.0
C555 C 0.78363 0.28401 0.45516 0.0
C556 C 0.7948 0.28411 0.50512 0.0
C557 C 0.76444 0.28602 0.46019 0.0
C558 C 0.78673 0.28724 0.55991 0.0
C559 C 0.76762 0.28883 0.56545 0.0
H560 H 0.47065 0.97898 0.16367 0.0
H561 H 0.45823 0.97305 0.34629 0.0
H562 H 0.45512 0.0065 0.35597 0.0
H563 H 0.46084 0.03748 0.31568 0.0
H564 H 0.47741 0.04313 0.13608 0.0
H565 H 0.47379 0.00998 0.12139 0.0
C566 C 0.46664 0.98506 0.20498 0.0
C567 C 0.46435 0.9737 0.25401 0.0
C568 C 0.46593 1.00432 0.21078 0.0
C569 C 0.45977 0.98162 0.30789 0.0
C570 C 0.45816 1.00073 0.31347 0.0
C571 C 0.46313 0.03146 0.273 0.0
C572 C 0.4693 0.04266 0.22692 0.0
C573 C 0.4619 0.01225 0.26572 0.0
C574 C 0.47263 0.03472 0.1721 0.0
C575 C 0.47063 0.01577 0.16378 0.0
H576 H 0.72754 0.79436 0.42518 0.0
H577 H 0.7235 0.7931 0.61253 0.0
H578 H 0.75711 0.79235 0.62049 0.0
H579 H 0.78738 0.78792 0.57314 0.0
H580 H 0.79158 0.79158 0.38605 0.0
H581 H 0.75826 0.79586 0.37868 0.0
C582 C 0.73411 0.79442 0.46763 0.0
C583 C 0.72322 0.7937 0.51822 0.0
C584 C 0.75343 0.79427 0.47179 0.0
C585 C 0.73172 0.79378 0.57312 0.0
C586 C 0.7509 0.79321 0.57762 0.0
C587 C 0.781 0.79014 0.53098 0.0
C588 C 0.7918 0.78932 0.48018 0.0
C589 C 0.76187 0.79286 0.5272 0.0
C590 C 0.7835 0.79227 0.42572 0.0
C591 C 0.76444 0.79456 0.42147 0.0
H592 H 0.49568 0.4753 0.69584 0.0
H593 H 0.44708 0.47196 0.80366 0.0
H594 H 0.44466 0.50574 0.80268 0.0
H595 H 0.4583 0.53657 0.77727 0.0
H596 H 0.50824 0.53801 0.67536 0.0
H597 H 0.5082 0.50465 0.66824 0.0
C598 C 0.48442 0.4818 0.71916 0.0
C599 C 0.47171 0.47097 0.75039 0.0
C600 C 0.48346 0.50102 0.71975 0.0
C601 C 0.45713 0.47988 0.77939 0.0
C602 C 0.45581 0.49922 0.77905 0.0
C603 C 0.46897 0.52948 0.75302 0.0
C604 C 0.48332 0.5397 0.72701 0.0
C605 C 0.46916 0.51 0.75033 0.0
C606 C 0.49716 0.53042 0.69603 0.0
C607 C 0.49714 0.51135 0.69188 0.0
H608 H 0.72729 0.21123 0.06397 0.0
H609 H 0.7218 0.21555 0.87746 0.0
H610 H 0.75524 0.21336 0.86614 0.0
H611 H 0.78611 0.21537 0.91112 0.0
H612 H 0.79155 0.20902 0.09715 0.0
H613 H 0.75812 0.20644 0.10701 0.0
C614 C 0.73343 0.21107 0.02083 0.0
C615 C 0.72221 0.21363 0.9716 0.0
C616 C 0.75265 0.20963 0.01471 0.0
C617 C 0.73021 0.21344 0.91586 0.0
C618 C 0.74934 0.21237 0.90946 0.0
C619 C 0.77996 0.21283 0.95351 0.0
C620 C 0.7912 0.21252 0.0034 0.0
C621 C 0.76072 0.2112 0.95875 0.0
C622 C 0.78316 0.20918 0.05813 0.0
C623 C 0.76403 0.20789 0.06383 0.0
H624 H 0.04491 0.47923 0.30814 0.0
H625 H 0.03035 0.47351 0.12707 0.0
H626 H 0.03088 0.50698 0.11487 0.0
H627 H 0.03206 0.5378 0.15865 0.0
H628 H 0.04799 0.54392 0.33855 0.0
H629 H 0.05082 0.51045 0.34821 0.0
C630 C 0.04229 0.4854 0.26587 0.0
C631 C 0.03758 0.47411 0.21848 0.0
C632 C 0.04279 0.50467 0.25913 0.0
C633 C 0.03412 0.48207 0.16386 0.0
C634 C 0.03433 0.50116 0.15701 0.0
C635 C 0.03651 0.5318 0.19962 0.0
C636 C 0.03962 0.54325 0.24798 0.0
C637 C 0.03815 0.5126 0.2047 0.0
C638 C 0.04557 0.53537 0.30066 0.0
C639 C 0.04703 0.51622 0.30633 0.0
H640 H 0.28536 0.21248 0.42445 0.0
H641 H 0.29104 0.21442 0.61124 0.0
H642 H 0.25792 0.20969 0.62309 0.0
H643 H 0.22686 0.21054 0.58003 0.0
H644 H 0.22101 0.21252 0.39337 0.0
H645 H 0.25438 0.20983 0.38136 0.0
C646 C 0.27937 0.21121 0.46762 0.0
C647 C 0.29057 0.21365 0.51692 0.0
C648 C 0.26015 0.20943 0.47399 0.0
C649 C 0.28264 0.21247 0.57272 0.0
C650 C 0.26369 0.2099 0.57948 0.0
C651 C 0.23292 0.20969 0.53685 0.0
C652 C 0.22158 0.21148 0.48762 0.0
C653 C 0.2522 0.20913 0.53044 0.0
C654 C 0.22954 0.21095 0.43179 0.0
C655 C 0.24862 0.20957 0.42497 0.0
H656 H 0.54506 0.47306 0.17859 0.0
H657 H 0.54028 0.46717 0.36488 0.0
H658 H 0.5417 0.50065 0.37665 0.0
H659 H 0.54015 0.5316 0.33231 0.0
H660 H 0.54712 0.53753 0.14657 0.0
H661 H 0.54936 0.50409 0.13599 0.0
C662 C 0.54489 0.47916 0.22174 0.0
C663 C 0.54257 0.46783 0.27085 0.0
C664 C 0.54592 0.49839 0.22812 0.0
C665 C 0.54226 0.47573 0.32664 0.0
C666 C 0.5429 0.49484 0.33329 0.0
C667 C 0.54257 0.52553 0.28977 0.0
C668 C 0.54326 0.53691 0.2402 0.0
C669 C 0.54411 0.50632 0.28417 0.0
C670 C 0.54658 0.529 0.18532 0.0
C671 C 0.54773 0.50989 0.17922 0.0
H672 H 0.28373 0.7835 0.92184 0.0
H673 H 0.2878 0.8002 0.10159 0.0
H674 H 0.25422 0.80275 0.10775 0.0
H675 H 0.22352 0.79694 0.06427 0.0
H676 H 0.21975 0.7821 0.88292 0.0
H677 H 0.25335 0.78228 0.87458 0.0
C678 C 0.27723 0.78799 0.96201 0.0
C679 C 0.28811 0.79147 0.01137 0.0
C680 C 0.25799 0.78967 0.96488 0.0
C681 C 0.27964 0.79748 0.06304 0.0
C682 C 0.26046 0.79883 0.06665 0.0
C683 C 0.23014 0.7942 0.02275 0.0
C684 C 0.21937 0.78953 0.97419 0.0
C685 C 0.24947 0.79452 0.01825 0.0
C686 C 0.22791 0.78587 0.92058 0.0
C687 C 0.24708 0.78586 0.91595 0.0
H688 H 0.97126 0.47593 0.82282 0.0
H689 H 0.95957 0.47101 0.63939 0.0
H690 H 0.95661 0.50452 0.6314 0.0
H691 H 0.96189 0.53537 0.67448 0.0
H692 H 0.97174 0.54005 0.85898 0.0
H693 H 0.97059 0.50654 0.86922 0.0
C694 C 0.96764 0.48222 0.78147 0.0
C695 C 0.96583 0.47113 0.73162 0.0
C696 C 0.96572 0.50144 0.77746 0.0
C697 C 0.96099 0.47932 0.67832 0.0
C698 C 0.95942 0.49847 0.67369 0.0
C699 C 0.96311 0.529 0.7171 0.0
C700 C 0.96677 0.54003 0.76603 0.0
C701 C 0.96236 0.50971 0.7226 0.0
C702 C 0.96863 0.53176 0.82101 0.0
C703 C 0.96817 0.51261 0.82672 0.0
H704 H 0.15787 0.25296 0.89398 0.0
H705 H 0.16487 0.3095 0.84058 0.0
H706 H 0.1679 0.29984 0.73912 0.0
H707 H 0.16848 0.27548 0.66556 0.0
H708 H 0.16113 0.21884 0.71804 0.0
H709 H 0.15831 0.22844 0.8197 0.0
C710 C 0.16007 0.26316 0.86012 0.0
C711 C 0.16114 0.28194 0.87488 0.0
C712 C 0.16173 0.25751 0.80165 0.0
C713 C 0.16397 0.29497 0.83047 0.0
C714 C 0.16571 0.28946 0.77239 0.0
C715 C 0.16628 0.26517 0.69907 0.0
C716 C 0.16506 0.24643 0.68378 0.0
C717 C 0.1646 0.27077 0.75747 0.0
C718 C 0.16213 0.23336 0.7282 0.0
C719 C 0.16052 0.23884 0.78649 0.0
H720 H 0.02326 0.90605 0.96095 0.0
H721 H 0.97156 0.92225 0.88342 0.0
H722 H 0.95627 0.91932 0.97718 0.0
H723 H 0.95746 0.91267 0.08196 0.0
H724 H 0.00909 0.89684 0.15992 0.0
H725 H 0.02437 0.89902 0.06549 0.0
C726 C 0.00866 0.90895 0.96451 0.0
C727 C 0.99867 0.91437 0.91501 0.0
C728 C 0.99984 0.90726 0.01877 0.0
C729 C 0.9797 0.91801 0.92061 0.0
C730 C 0.97086 0.91635 0.97432 0.0
C731 C 0.97201 0.90957 0.07809 0.0
C732 C 0.98211 0.90462 0.12768 0.0
C733 C 0.98078 0.91101 0.02372 0.0
C734 C 1.001 0.90074 0.12224 0.0
C735 C 0.00978 0.902 0.06829 0.0
H736 H 0.35545 0.75711 0.40246 0.0
H737 H 0.34807 0.70058 0.34987 0.0
H738 H 0.34597 0.71014 0.24798 0.0
H739 H 0.34604 0.73443 0.174 0.0
H740 H 0.35351 0.79108 0.22578 0.0
H741 H 0.35586 0.78153 0.3277 0.0
C742 C 0.35337 0.74688 0.36868 0.0
C743 C 0.3519 0.72815 0.38381 0.0
C744 C 0.35225 0.75248 0.31001 0.0
C745 C 0.34926 0.71508 0.3395 0.0
C746 C 0.34806 0.72054 0.28117 0.0
C747 C 0.34824 0.74475 0.20737 0.0
C748 C 0.34958 0.76349 0.19182 0.0
C749 C 0.34953 0.73919 0.26593 0.0
C750 C 0.35243 0.77657 0.23612 0.0
C751 C 0.35375 0.77113 0.29456 0.0
H752 H 0.52933 0.07654 0.6243 0.0
H753 H 0.52728 0.13569 0.63233 0.0
H754 H 0.51179 0.13682 0.53755 0.0
H755 H 0.49858 0.12081 0.45271 0.0
H756 H 0.50057 0.06167 0.4445 0.0
H757 H 0.51579 0.06049 0.53979 0.0
C758 C 0.52579 0.08963 0.60444 0.0
C759 C 0.52981 0.10605 0.63374 0.0
C760 C 0.51639 0.09009 0.55097 0.0
C761 C 0.52471 0.12296 0.60917 0.0
C762 C 0.51565 0.12358 0.55557 0.0
C763 C 0.50197 0.10771 0.47275 0.0
C764 C 0.49809 0.09133 0.44308 0.0
C765 C 0.51123 0.10722 0.52641 0.0
C766 C 0.50306 0.07438 0.46785 0.0
C767 C 0.51196 0.07373 0.52174 0.0
H768 H 0.1636 0.73346 0.82169 0.0
H769 H 0.15357 0.78965 0.76886 0.0
H770 H 0.15298 0.78006 0.66671 0.0
H771 H 0.15592 0.75575 0.59207 0.0
H772 H 0.16608 0.69975 0.6461 0.0
H773 H 0.1661 0.70933 0.74806 0.0
C774 C 0.16118 0.74368 0.78806 0.0
C775 C 0.15863 0.7623 0.80338 0.0
C776 C 0.16099 0.73811 0.72943 0.0
C777 C 0.15555 0.77523 0.75871 0.0
C778 C 0.15526 0.76976 0.70014 0.0
C779 C 0.15815 0.74565 0.62618 0.0
C780 C 0.16104 0.72705 0.6114 0.0
C781 C 0.15809 0.75126 0.68495 0.0
C782 C 0.16385 0.71414 0.65616 0.0
C783 C 0.16384 0.71961 0.71454 0.0
H784 H 0.48223 0.91186 0.02795 0.0
H785 H 0.53448 0.92526 0.1069 0.0
H786 H 0.54958 0.92319 0.01243 0.0
H787 H 0.54804 0.9178 0.90668 0.0
H788 H 0.4957 0.90471 0.82826 0.0
H789 H 0.4807 0.90639 0.92298 0.0
C790 C 0.49691 0.91435 0.0246 0.0
C791 C 0.50712 0.91871 0.07463 0.0
C792 C 0.50558 0.91317 0.97007 0.0
C793 C 0.52619 0.92185 0.06924 0.0
C794 C 0.5349 0.92067 0.01515 0.0
C795 C 0.53339 0.91525 0.91051 0.0
C796 C 0.52303 0.91117 0.86066 0.0
C797 C 0.52475 0.91635 0.96522 0.0
C798 C 0.50401 0.90796 0.86606 0.0
C799 C 0.49538 0.90891 0.92022 0.0
H800 H 0.34017 0.29964 0.16083 0.0
H801 H 0.36645 0.25191 0.08636 0.0
H802 H 0.36493 0.23608 0.18016 0.0
H803 H 0.35581 0.23564 0.28354 0.0
H804 H 0.32899 0.28339 0.35687 0.0
H805 H 0.33094 0.29915 0.26367 0.0
C806 C 0.34571 0.28585 0.16539 0.0
C807 C 0.35348 0.277 0.11698 0.0
C808 C 0.34456 0.27671 0.21924 0.0
C809 C 0.36041 0.25903 0.12318 0.0
C810 C 0.35951 0.24993 0.17674 0.0
C811 C 0.35031 0.24944 0.27905 0.0
C812 C 0.34234 0.25825 0.32741 0.0
C813 C 0.3515 0.25858 0.22507 0.0
C814 C 0.33534 0.27623 0.32067 0.0
C815 C 0.33643 0.28533 0.26727 0.0
H816 H 0.98005 0.09416 0.57697 0.0
H817 H 0.03706 0.1007 0.52705 0.0
H818 H 0.02794 0.10285 0.42472 0.0
H819 H 1.0039 0.10273 0.35001 0.0
H820 H 0.94701 0.09582 0.39986 0.0
H821 H 0.95607 0.09409 0.50249 0.0
C822 C 0.99057 0.09608 0.54393 0.0
C823 C 0.00927 0.09726 0.55992 0.0
C824 C 0.98525 0.09728 0.48537 0.0
C825 C 0.0226 0.09971 0.51616 0.0
C826 C 0.01739 0.10097 0.45763 0.0
C827 C 0.99345 0.10085 0.38327 0.0
C828 C 0.97479 0.09938 0.36743 0.0
C829 C 0.99877 0.09974 0.44185 0.0
C830 C 0.96144 0.097 0.41101 0.0
C831 C 0.96662 0.09598 0.46959 0.0
H832 H 0.83803 0.70917 0.12941 0.0
H833 H 0.87269 0.753 0.06594 0.0
H834 H 0.87264 0.7674 0.16194 0.0
H835 H 0.86156 0.76834 0.26282 0.0
H836 H 0.82622 0.72486 0.32585 0.0
H837 H 0.82754 0.70972 0.23136 0.0
C838 C 0.84583 0.72166 0.13717 0.0
C839 C 0.8554 0.73 0.09126 0.0
C840 C 0.84536 0.73014 0.1921 0.0
C841 C 0.86522 0.74637 0.10109 0.0
C842 C 0.86512 0.75467 0.15576 0.0
C843 C 0.85408 0.75562 0.25572 0.0
C844 C 0.84382 0.7478 0.30119 0.0
C845 C 0.85496 0.74687 0.20133 0.0
C846 C 0.83433 0.73117 0.29155 0.0
C847 C 0.83507 0.72244 0.23755 0.0
H848 H 0.98341 0.10427 0.03014 0.0
H849 H 0.03442 0.08597 0.10758 0.0
H850 H 0.04992 0.08868 0.01425 0.0
H851 H 0.04917 0.09564 0.9097 0.0
H852 H 0.99835 0.1137 0.83136 0.0
H853 H 0.98281 0.11181 0.9255 0.0
C854 C 0.9979 0.10086 0.02659 0.0
C855 C 0.00762 0.09493 0.0761 0.0
C856 C 0.00689 0.10246 0.97245 0.0
C857 C 0.02647 0.09065 0.0705 0.0
C858 C 0.03544 0.09217 0.01698 0.0
C859 C 0.03475 0.09931 0.91341 0.0
C860 C 0.02496 0.10478 0.86372 0.0
C861 C 0.02581 0.09804 0.96763 0.0
C862 C 0.00622 0.10939 0.86906 0.0
C863 C 0.99728 0.10829 0.92287 0.0
H864 H 0.66646 0.30004 0.64618 0.0
H865 H 0.65675 0.24753 0.56385 0.0
H866 H 0.65671 0.23233 0.65831 0.0
H867 H 0.66022 0.23364 0.76418 0.0
H868 H 0.67006 0.28607 0.84717 0.0
H869 H 0.66914 0.30145 0.753 0.0
C870 C 0.66429 0.28529 0.64907 0.0
C871 C 0.66174 0.27496 0.59813 0.0
C872 C 0.6643 0.27654 0.70372 0.0
C873 C 0.65888 0.25584 0.60244 0.0
C874 C 0.65882 0.24709 0.65647 0.0
C875 C 0.66207 0.24843 0.7618 0.0
C876 C 0.66529 0.25858 0.81282 0.0
C877 C 0.66164 0.25727 0.7074 0.0
C878 C 0.66764 0.2778 0.80868 0.0
C879 C 0.66713 0.28668 0.75476 0.0
H880 H 0.50288 0.90695 0.34716 0.0
H881 H 0.44578 0.91354 0.39497 0.0
H882 H 0.45446 0.91515 0.49801 0.0
H883 H 0.4783 0.91575 0.57313 0.0
H884 H 0.53546 0.9095 0.52447 0.0
H885 H 0.52659 0.90666 0.42232 0.0
C886 C 0.49229 0.90871 0.38009 0.0
C887 C 0.47373 0.91024 0.36367 0.0
C888 C 0.49738 0.90972 0.43873 0.0
C889 C 0.46017 0.91235 0.40672 0.0
C890 C 0.46513 0.91331 0.46547 0.0
C891 C 0.48888 0.91372 0.54035 0.0
C892 C 0.50756 0.91296 0.55655 0.0
C893 C 0.48371 0.91218 0.4818 0.0
C894 C 0.521 0.91021 0.51333 0.0
C895 C 0.51595 0.90859 0.4549 0.0
H896 H 0.86363 0.2345 0.21653 0.0
H897 H 0.82364 0.27521 0.16447 0.0
H898 H 0.82676 0.29073 0.2581 0.0
H899 H 0.8405 0.29246 0.35603 0.0
H900 H 0.87985 0.2513 0.40848 0.0
H901 H 0.8777 0.23651 0.31323 0.0
C902 C 0.85549 0.24665 0.22598 0.0
C903 C 0.84342 0.25364 0.18388 0.0
C904 C 0.85749 0.25566 0.27959 0.0
C905 C 0.8331 0.26957 0.1963 0.0
C906 C 0.8349 0.27851 0.2497 0.0
C907 C 0.84887 0.28052 0.34581 0.0
C908 C 0.86045 0.27304 0.38833 0.0
C909 C 0.84714 0.27175 0.29159 0.0
C910 C 0.87093 0.2573 0.37571 0.0
C911 C 0.86961 0.24876 0.3216 0.0
H912 H 0.45903 0.10934 0.09402 0.0
H913 H 0.51232 0.10759 0.17656 0.0
H914 H 0.52736 0.10728 0.08158 0.0
H915 H 0.52541 0.10598 0.97463 0.0
H916 H 0.47195 0.10812 0.89262 0.0
H917 H 0.45716 0.10998 0.98734 0.0
C918 C 0.47392 0.109 0.09116 0.0
C919 C 0.48448 0.1083 0.14222 0.0
C920 C 0.48255 0.10888 0.03631 0.0
C921 C 0.5038 0.10799 0.13786 0.0
C922 C 0.51246 0.10782 0.08351 0.0
C923 C 0.51055 0.10704 0.97742 0.0
C924 C 0.4999 0.10671 0.92633 0.0
C925 C 0.50198 0.10805 0.03235 0.0
C926 C 0.4806 0.10815 0.93102 0.0
C927 C 0.47204 0.10921 0.98531 0.0
H928 H 0.65562 0.76007 0.90523 0.0
H929 H 0.66418 0.70361 0.85368 0.0
H930 H 0.6665 0.71306 0.7517 0.0
H931 H 0.66616 0.73723 0.67734 0.0
H932 H 0.65746 0.7938 0.72831 0.0
H933 H 0.65506 0.78436 0.83025 0.0
C934 C 0.65802 0.74984 0.87167 0.0
C935 C 0.65974 0.73116 0.88706 0.0
C936 C 0.65925 0.75536 0.81299 0.0
C937 C 0.6628 0.71807 0.84305 0.0
C938 C 0.66412 0.72346 0.78469 0.0
C939 C 0.66368 0.74755 0.71055 0.0
C940 C 0.662 0.76623 0.69478 0.0
C941 C 0.66234 0.74206 0.76916 0.0
C942 C 0.65881 0.77932 0.73885 0.0
C943 C 0.65745 0.77395 0.7973 0.0
H944 H 0.02646 0.91318 0.41482 0.0
H945 H 0.96929 0.90808 0.46468 0.0
H946 H 0.97829 0.90621 0.5671 0.0
H947 H 1.00222 0.90641 0.64192 0.0
H948 H 0.05931 0.91168 0.59238 0.0
H949 H 0.0504 0.91305 0.48952 0.0
C950 C 0.01589 0.91165 0.44788 0.0
C951 C 0.99718 0.91082 0.43187 0.0
C952 C 0.02114 0.91062 0.50651 0.0
C953 C 0.98377 0.90877 0.4756 0.0
C954 C 0.9889 0.90771 0.53418 0.0
C955 C 0.01275 0.90787 0.60867 0.0
C956 C 0.03141 0.909 0.62461 0.0
C957 C 0.00753 0.90869 0.55002 0.0
C958 C 0.04488 0.91078 0.58109 0.0
C959 C 0.03978 0.91159 0.52241 0.0
H960 H 0.65529 0.76116 0.40607 0.0
H961 H 0.66765 0.8168 0.35287 0.0
H962 H 0.66814 0.80722 0.25087 0.0
H963 H 0.66548 0.78314 0.17707 0.0
H964 H 0.65314 0.72734 0.22934 0.0
H965 H 0.65208 0.73697 0.33136 0.0
C966 C 0.65809 0.77119 0.37214 0.0
C967 C 0.66147 0.78967 0.38712 0.0
C968 C 0.6583 0.76558 0.31341 0.0
C969 C 0.66502 0.80249 0.34261 0.0
C970 C 0.66529 0.79703 0.28423 0.0
C971 C 0.66247 0.77302 0.21056 0.0
C972 C 0.65942 0.75449 0.19515 0.0
C973 C 0.66198 0.77862 0.26915 0.0
C974 C 0.65554 0.74169 0.23959 0.0
C975 C 0.65497 0.74718 0.29808 0.0
H976 H 0.5029 0.40307 0.65051 0.0
H977 H 0.44713 0.41517 0.59875 0.0
H978 H 0.45661 0.41625 0.49662 0.0
H979 H 0.4807 0.41416 0.4223 0.0
H980 H 0.53657 0.40193 0.47347 0.0
H981 H 0.52702 0.40037 0.57545 0.0
C982 C 0.49283 0.40593 0.61685 0.0
C983 C 0.47434 0.40907 0.63221 0.0
C984 C 0.49837 0.40646 0.55809 0.0
C985 C 0.46144 0.4127 0.58811 0.0
C986 C 0.46685 0.41332 0.52968 0.0
C987 C 0.49084 0.41108 0.45557 0.0
C988 C 0.50937 0.40821 0.43987 0.0
C989 C 0.48528 0.41026 0.51418 0.0
C990 C 0.52222 0.40421 0.48397 0.0
C991 C 0.51678 0.40335 0.54244 0.0
H992 H 0.86006 0.26917 0.72154 0.0
H993 H 0.8427 0.2173 0.64789 0.0
H994 H 0.8442 0.20288 0.74345 0.0
H995 H 0.84933 0.20518 0.84925 0.0
H996 H 0.86608 0.25725 0.92228 0.0
H997 H 0.86609 0.27123 0.82591 0.0
C998 C 0.85663 0.25471 0.7263 0.0
C999 C 0.85122 0.24443 0.67758 0.0
C1000 C 0.85745 0.24644 0.78142 0.0
C1001 C 0.84692 0.22564 0.68462 0.0
C1002 C 0.84776 0.21731 0.73933 0.0
C1003 C 0.85317 0.2195 0.84374 0.0
C1004 C 0.8576 0.23017 0.89251 0.0
C1005 C 0.8529 0.2276 0.78815 0.0
C1006 C 0.86247 0.24877 0.88517 0.0
C1007 C 0.86247 0.25682 0.83014 0.0
H1008 H 1.00416 0.61102 0.14354 0.0
H1009 H 0.06086 0.60151 0.09593 0.0
H1010 H 0.05192 0.59885 0.99331 0.0
H1011 H 0.0279 0.59804 0.9188 0.0
H1012 H 0.9711 0.60709 0.96736 0.0
H1013 H 0.98031 0.61116 0.06882 0.0
C1014 C 0.01461 0.6084 0.11075 0.0
C1015 C 0.03313 0.60632 0.12713 0.0
C1016 C 0.00935 0.60676 0.0524 0.0
C1017 C 0.04651 0.60312 0.08422 0.0
C1018 C 0.0414 0.60156 0.02572 0.0
C1019 C 0.01747 0.60094 0.95139 0.0
C1020 C 0.99878 0.60212 0.93541 0.0
C1021 C 0.02283 0.60316 0.00953 0.0
C1022 C 0.98555 0.60604 0.97836 0.0
C1023 C 0.9908 0.60835 0.03638 0.0
H1024 H 0.66646 0.23025 0.31158 0.0
H1025 H 0.66145 0.28745 0.26182 0.0
H1026 H 0.65844 0.27841 0.15982 0.0
H1027 H 0.65797 0.25451 0.08527 0.0
H1028 H 0.66314 0.19735 0.13414 0.0
H1029 H 0.66534 0.20625 0.23696 0.0
C1030 C 0.66467 0.2408 0.27861 0.0
C1031 C 0.66427 0.25955 0.29448 0.0
C1032 C 0.66303 0.23553 0.22017 0.0
C1033 C 0.66186 0.27295 0.25096 0.0
C1034 C 0.66015 0.2678 0.19263 0.0
C1035 C 0.65958 0.24395 0.11835 0.0
C1036 C 0.6605 0.2253 0.1023 0.0
C1037 C 0.66085 0.24916 0.17685 0.0
C1038 C 0.66243 0.21179 0.14559 0.0
C1039 C 0.6637 0.21688 0.20421 0.0
H1040 H 0.02674 0.41833 0.56916 0.0
H1041 H 0.97102 0.40587 0.51708 0.0
H1042 H 0.9808 0.40443 0.41517 0.0
H1043 H 0.00515 0.40707 0.34046 0.0
H1044 H 0.06073 0.41952 0.39348 0.0
H1045 H 0.05095 0.42065 0.49531 0.0
C1046 C 0.01667 0.41523 0.53573 0.0
C1047 C 0.99811 0.41222 0.55122 0.0
C1048 C 0.02236 0.41449 0.47717 0.0
C1049 C 0.98538 0.40824 0.50681 0.0
C1050 C 0.99096 0.40744 0.44837 0.0
C1051 C 0.01512 0.41004 0.37431 0.0
C1052 C 0.03366 0.41323 0.35927 0.0
C1053 C 0.0094 0.41062 0.433 0.0
C1054 C 0.04639 0.41702 0.40372 0.0
C1055 C 0.04081 0.41765 0.46204 0.0
H1056 H 0.8577 0.73449 0.76287 0.0
H1057 H 0.8304 0.78317 0.8274 0.0
H1058 H 0.83374 0.79796 0.73267 0.0
H1059 H 0.84376 0.79685 0.63011 0.0
H1060 H 0.87053 0.74793 0.56583 0.0
H1061 H 0.86834 0.73365 0.66173 0.0
C1062 C 0.8524 0.74828 0.75609 0.0
C1063 C 0.8438 0.75764 0.80203 0.0
C1064 C 0.85445 0.75681 0.70162 0.0
C1065 C 0.83715 0.77563 0.79273 0.0
C1066 C 0.83907 0.78416 0.73859 0.0
C1067 C 0.84937 0.78322 0.63764 0.0
C1068 C 0.85731 0.77346 0.59144 0.0
C1069 C 0.84772 0.7749 0.69268 0.0
C1070 C 0.86432 0.75568 0.60109 0.0
C1071 C 0.86301 0.74746 0.65575 0.0
H1072 H 0.52771 0.60473 0.0264 0.0
H1073 H 0.47744 0.58446 0.10412 0.0
H1074 H 0.46197 0.58625 0.01046 0.0
H1075 H 0.46265 0.59305 0.90553 0.0
H1076 H 0.51289 0.61321 0.82789 0.0
H1077 H 0.52824 0.61204 0.92207 0.0
C1078 C 0.51339 0.6007 0.02288 0.0
C1079 C 0.50385 0.59449 0.0724 0.0
C1080 C 0.50446 0.60175 0.96873 0.0
C1081 C 0.48521 0.58939 0.06691 0.0
C1082 C 0.47628 0.59037 0.01325 0.0
C1083 C 0.47691 0.59728 0.90943 0.0
C1084 C 0.4866 0.60313 0.85989 0.0
C1085 C 0.48576 0.5965 0.9638 0.0
C1086 C 0.50511 0.60854 0.86542 0.0
C1087 C 0.51395 0.60789 0.91927 0.0
H1088 H 0.35259 0.25673 0.6014 0.0
H1089 H 0.3537 0.19948 0.65199 0.0
H1090 H 0.35208 0.20838 0.75471 0.0
H1091 H 0.3498 0.23221 0.82906 0.0
H1092 H 0.34829 0.28956 0.77903 0.0
H1093 H 0.35061 0.28072 0.67639 0.0
C1094 C 0.35249 0.24617 0.63487 0.0
C1095 C 0.35321 0.22745 0.6192 0.0
C1096 C 0.35146 0.25139 0.69361 0.0
C1097 C 0.35315 0.21397 0.66301 0.0
C1098 C 0.3522 0.21905 0.72164 0.0
C1099 C 0.34999 0.24287 0.79595 0.0
C1100 C 0.34881 0.26157 0.81198 0.0
C1101 C 0.35126 0.23771 0.7373 0.0
C1102 C 0.34914 0.27509 0.76811 0.0
C1103 C 0.35047 0.27004 0.70941 0.0
H1104 H 0.53223 0.59998 0.5717 0.0
H1105 H 0.47504 0.60442 0.52196 0.0
H1106 H 0.48407 0.60542 0.41927 0.0
H1107 H 0.508 0.6041 0.34432 0.0
H1108 H 0.56506 0.59891 0.39391 0.0
H1109 H 0.55616 0.59916 0.49695 0.0
C1110 C 0.52166 0.60128 0.53864 0.0
C1111 C 0.50293 0.6021 0.55472 0.0
C1112 C 0.52691 0.60163 0.47991 0.0
C1113 C 0.48953 0.60374 0.51096 0.0
C1114 C 0.49468 0.60428 0.45225 0.0
C1115 C 0.51853 0.60303 0.3776 0.0
C1116 C 0.53718 0.6014 0.36163 0.0
C1117 C 0.5133 0.60306 0.43635 0.0
C1118 C 0.55063 0.60012 0.40521 0.0
C1119 C 0.54554 0.60027 0.46399 0.0
H1120 H 0.16719 0.77878 0.32076 0.0
H1121 H 0.1562 0.72266 0.26961 0.0
H1122 H 0.15325 0.73241 0.16804 0.0
H1123 H 0.15411 0.75687 0.09334 0.0
H1124 H 0.16514 0.81285 0.14534 0.0
H1125 H 0.16778 0.80309 0.24689 0.0
C1126 C 0.1641 0.76862 0.2876 0.0
C1127 C 0.16193 0.74996 0.30324 0.0
C1128 C 0.16247 0.77429 0.22923 0.0
C1129 C 0.15794 0.73709 0.25921 0.0
C1130 C 0.15627 0.74266 0.20096 0.0
C1131 C 0.15708 0.76693 0.12692 0.0
C1132 C 0.15943 0.78558 0.11169 0.0
C1133 C 0.15856 0.76122 0.18542 0.0
C1134 C 0.16326 0.79843 0.15576 0.0
C1135 C 0.16477 0.79285 0.21391 0.0
H1136 H 1.0041 0.40647 0.84046 0.0
H1137 H 0.94765 0.41379 0.89427 0.0
H1138 H 0.95727 0.41534 0.99607 0.0
H1139 H 0.98158 0.41508 0.06959 0.0
H1140 H 0.03819 0.40785 0.01681 0.0
H1141 H 0.02858 0.40568 0.91496 0.0
C1142 C 0.99391 0.4084 0.87449 0.0
C1143 C 0.97517 0.41006 0.85969 0.0
C1144 C 0.99954 0.40926 0.93315 0.0
C1145 C 0.96215 0.4125 0.90434 0.0
C1146 C 0.96764 0.41338 0.96263 0.0
C1147 C 0.99188 0.41296 0.03603 0.0
C1148 C 0.01063 0.41167 0.05126 0.0
C1149 C 0.98629 0.41182 0.97752 0.0
C1150 C 0.02368 0.40889 0.00671 0.0
C1151 C 0.01819 0.40769 0.94831 0.0
H1152 H 0.35544 0.75809 0.90242 0.0
H1153 H 0.3429 0.81371 0.84949 0.0
H1154 H 0.34187 0.80406 0.74764 0.0
H1155 H 0.34425 0.77993 0.6738 0.0
H1156 H 0.35683 0.72419 0.7258 0.0
H1157 H 0.35822 0.73385 0.8277 0.0
C1158 C 0.35248 0.76809 0.86857 0.0
C1159 C 0.34922 0.7866 0.8836 0.0
C1160 C 0.35196 0.76245 0.8099 0.0
C1161 C 0.34545 0.79939 0.8392 0.0
C1162 C 0.34486 0.79388 0.7809 0.0
C1163 C 0.34736 0.76984 0.70722 0.0
C1164 C 0.35041 0.75132 0.69175 0.0
C1165 C 0.34808 0.77546 0.76576 0.0
C1166 C 0.35442 0.73853 0.7361 0.0
C1167 C 0.35519 0.74404 0.79453 0.0
H1168 H 0.9583 0.60295 0.58354 0.0
H1169 H 0.01157 0.59919 0.66585 0.0
H1170 H 0.02655 0.59874 0.5711 0.0
H1171 H 0.02473 0.5994 0.46486 0.0
H1172 H 0.97158 0.60318 0.38161 0.0
H1173 H 0.9565 0.60378 0.47645 0.0
C1174 C 0.97317 0.60196 0.58058 0.0
C1175 C 0.98376 0.60105 0.63154 0.0
C1176 C 0.9818 0.60183 0.52577 0.0
C1177 C 1.00304 0.59987 0.62722 0.0
C1178 C 0.01168 0.59965 0.57303 0.0
C1179 C 0.00986 0.60047 0.46738 0.0
C1180 C 0.99936 0.60122 0.41614 0.0
C1181 C 1.00121 0.60068 0.52202 0.0
C1182 C 0.98006 0.60251 0.42035 0.0
C1183 C 0.97137 0.60284 0.4746 0.0
H1184 H 0.16444 0.23044 0.16573 0.0
H1185 H 0.15827 0.2872 0.21796 0.0
H1186 H 0.15678 0.27773 0.32018 0.0
H1187 H 0.15761 0.25326 0.39504 0.0
H1188 H 0.16358 0.19665 0.34145 0.0
H1189 H 0.16485 0.2062 0.23951 0.0
C1190 C 0.16272 0.24081 0.19927 0.0
C1191 C 0.1615 0.25955 0.18379 0.0
C1192 C 0.16191 0.23529 0.2579 0.0
C1193 C 0.15923 0.27269 0.22828 0.0
C1194 C 0.15842 0.26728 0.28688 0.0
C1195 C 0.1592 0.24303 0.36101 0.0
C1196 C 0.16052 0.22426 0.37587 0.0
C1197 C 0.15982 0.24862 0.30223 0.0
C1198 C 0.16252 0.21117 0.33128 0.0
C1199 C 0.16324 0.21662 0.27291 0.0
H1200 H 0.50397 0.40543 0.15089 0.0
H1201 H 0.56075 0.4112 0.09864 0.0
H1202 H 0.55144 0.41325 -0.00341 0.0
H1203 H 0.52732 0.41337 0.92237 0.0
H1204 H 0.47041 0.40757 0.97386 0.0
H1205 H 0.47968 0.40551 0.07601 0.0
C1206 C 0.5143 0.40716 0.11716 0.0
C1207 C 0.53304 0.40816 0.13238 0.0
C1208 C 0.50884 0.40828 0.05843 0.0
C1209 C 0.54625 0.41039 0.08816 0.0
C1210 C 0.54093 0.41155 0.02975 0.0
C1211 C 0.51688 0.41162 0.95574 0.0
C1212 C 0.49816 0.41063 0.94008 0.0
C1213 C 0.52228 0.41048 0.0144 0.0
C1214 C 0.48491 0.40838 0.98435 0.0
C1215 C 0.4902 0.40722 0.04289 0.0
H1216 H 0.14172 0.35325 0.0835 0.0
H1217 H 0.10485 0.30704 0.10077 0.0
H1218 H 0.08033 0.32745 0.13399 0.0
H1219 H 0.06906 0.35844 0.15664 0.0
H1220 H 0.10506 0.4051 0.13429 0.0
H1221 H 0.13008 0.38463 0.10431 0.0
C1222 C 0.12835 0.34768 0.09497 0.0
C1223 C 0.12515 0.32864 0.08994 0.0
C1224 C 0.11408 0.35961 0.11273 0.0
C1225 C 0.10767 0.32164 0.10417 0.0
C1226 C 0.09362 0.3333 0.12316 0.0
C1227 C 0.08237 0.36414 0.14521 0.0
C1228 C 0.08516 0.38328 0.14783 0.0
C1229 C 0.09662 0.35231 0.12727 0.0
C1230 C 0.10249 0.39043 0.13248 0.0
C1231 C 0.11684 0.37871 0.11549 0.0
H1232 H 0.86901 0.84491 0.38213 0.0
H1233 H 0.90736 0.79992 0.36473 0.0
H1234 H 0.93169 0.8214 0.33714 0.0
H1235 H 0.94237 0.85293 0.31994 0.0
H1236 H 0.90468 0.89832 0.34054 0.0
H1237 H 0.87992 0.87681 0.36539 0.0
C1238 C 0.88265 0.83982 0.37165 0.0
C1239 C 0.88632 0.8208 0.3751 0.0
C1240 C 0.89677 0.85235 0.35703 0.0
C1241 C 0.90414 0.81446 0.36231 0.0
C1242 C 0.91809 0.82675 0.34667 0.0
C1243 C 0.92876 0.85816 0.32997 0.0
C1244 C 0.92543 0.87725 0.32839 0.0
C1245 C 0.91462 0.84573 0.34438 0.0
C1246 C 0.90767 0.88372 0.34163 0.0
C1247 C 0.89348 0.87141 0.35563 0.0
H1248 H 0.37137 0.65726 0.59616 0.0
H1249 H 0.40839 0.70361 0.6041 0.0
H1250 H 0.43328 0.68354 0.63595 0.0
H1251 H 0.44484 0.65295 0.66028 0.0
H1252 H 0.40888 0.60591 0.64853 0.0
H1253 H 0.38339 0.626 0.6191 0.0
C1254 C 0.38486 0.66293 0.60529 0.0
C1255 C 0.38798 0.68194 0.59799 0.0
C1256 C 0.39936 0.65116 0.62249 0.0
C1257 C 0.4056 0.68905 0.60925 0.0
C1258 C 0.41988 0.67758 0.62747 0.0
C1259 C 0.43143 0.64704 0.65132 0.0
C1260 C 0.42878 0.62794 0.65679 0.0
C1261 C 0.41696 0.65863 0.63393 0.0
C1262 C 0.41132 0.62056 0.64454 0.0
C1263 C 0.39673 0.63206 0.62788 0.0
H1264 H 0.63905 0.16025 0.89541 0.0
H1265 H 0.60556 0.20836 0.86667 0.0
H1266 H 0.57936 0.18892 0.84092 0.0
H1267 H 0.56566 0.15823 0.82879 0.0
H1268 H 0.59844 0.10997 0.86348 0.0
H1269 H 0.62503 0.12937 0.88538 0.0
C1270 C 0.62607 0.16642 0.88272 0.0
C1271 C 0.62429 0.18571 0.88221 0.0
C1272 C 0.61083 0.15511 0.86988 0.0
C1273 C 0.60728 0.19355 0.86703 0.0
C1274 C 0.59227 0.18244 0.85254 0.0
C1275 C 0.5786 0.15195 0.84138 0.0
C1276 C 0.58001 0.13265 0.84453 0.0
C1277 C 0.59382 0.1632 0.85438 0.0
C1278 C 0.5969 0.12477 0.86105 0.0
C1279 C 0.61217 0.13587 0.87327 0.0
H1280 H 0.09899 0.62024 0.34306 0.0
H1281 H 0.05355 0.65751 0.36895 0.0
H1282 H 0.07475 0.68166 0.40001 0.0
H1283 H 0.10623 0.69262 0.41653 0.0
H1284 H 0.15202 0.65616 0.38525 0.0
H1285 H 0.13077 0.63141 0.35908 0.0
C1286 C 0.09377 0.63358 0.35631 0.0
C1287 C 0.07473 0.63705 0.35424 0.0
C1288 C 0.10613 0.64764 0.37237 0.0
C1289 C 0.06815 0.6545 0.37036 0.0
C1290 C 0.08026 0.66834 0.38793 0.0
C1291 C 0.11158 0.67926 0.40396 0.0
C1292 C 0.1307 0.67628 0.40281 0.0
C1293 C 0.09929 0.66515 0.38842 0.0
C1294 C 0.13737 0.65888 0.38623 0.0
C1295 C 0.12522 0.64468 0.37148 0.0
H1296 H 0.60781 0.82343 0.59137 0.0
H1297 H 0.65355 0.86047 0.61489 0.0
H1298 H 0.63239 0.88493 0.64509 0.0
H1299 H 0.60058 0.89581 0.66481 0.0
H1300 H 0.5554 0.85781 0.64515 0.0
H1301 H 0.57657 0.83384 0.61315 0.0
C1302 C 0.61318 0.83684 0.60315 0.0
C1303 C 0.63224 0.84011 0.60071 0.0
C1304 C 0.60097 0.85074 0.62097 0.0
C1305 C 0.63895 0.85756 0.61653 0.0
C1306 C 0.62683 0.87158 0.63362 0.0
C1307 C 0.59542 0.88231 0.65319 0.0
C1308 C 0.57642 0.87863 0.65715 0.0
C1309 C 0.60778 0.86835 0.63587 0.0
C1310 C 0.56994 0.861 0.64263 0.0
C1311 C 0.58204 0.84726 0.6243 0.0
H1312 H 0.40251 0.39321 0.84172 0.0
H1313 H 0.45025 0.35942 0.87414 0.0
H1314 H 0.43077 0.33457 0.90924 0.0
H1315 H 0.40046 0.32175 0.92729 0.0
H1316 H 0.35195 0.35417 0.89341 0.0
H1317 H 0.37132 0.38006 0.86202 0.0
C1318 C 0.40857 0.38048 0.85722 0.0
C1319 C 0.42782 0.37818 0.85534 0.0
C1320 C 0.39715 0.36588 0.8764 0.0
C1321 C 0.43549 0.36152 0.87487 0.0
C1322 C 0.42436 0.34726 0.8949 0.0
C1323 C 0.39404 0.33446 0.91307 0.0
C1324 C 0.37476 0.33595 0.91255 0.0
C1325 C 0.40521 0.34917 0.89509 0.0
C1326 C 0.36677 0.35259 0.89404 0.0
C1327 C 0.37785 0.36743 0.87623 0.0
H1328 H 0.87132 0.15745 0.08912 0.0
H1329 H 0.90646 0.20397 0.12394 0.0
H1330 H 0.93156 0.1833 0.15086 0.0
H1331 H 0.94376 0.15202 0.16365 0.0
H1332 H 0.9093 0.1053 0.12482 0.0
H1333 H 0.88391 0.12593 0.0996 0.0
C1334 C 0.88442 0.16303 0.10322 0.0
C1335 C 0.88695 0.18225 0.1051 0.0
C1336 C 0.89903 0.151 0.11718 0.0
C1337 C 0.90412 0.18925 0.12234 0.0
C1338 C 0.91852 0.17743 0.13757 0.0
C1339 C 0.93074 0.14633 0.14932 0.0
C1340 C 0.9285 0.12709 0.14612 0.0
C1341 C 0.91619 0.15828 0.13479 0.0
C1342 C 0.91149 0.12002 0.12742 0.0
C1343 C 0.8969 0.13183 0.1133 0.0
H1344 H 0.90181 0.69571 0.87988 0.0
H1345 H 0.85493 0.65967 0.86413 0.0
H1346 H 0.87524 0.63409 0.83814 0.0
H1347 H 0.90664 0.62172 0.82189 0.0
H1348 H 0.95312 0.65843 0.83448 0.0
H1349 H 0.93273 0.68382 0.86008 0.0
C1350 C 0.896 0.68229 0.87038 0.0
C1351 C 0.87686 0.67964 0.87405 0.0
C1352 C 0.90775 0.66766 0.85537 0.0
C1353 C 0.8696 0.66215 0.8614 0.0
C1354 C 0.88123 0.64747 0.84683 0.0
C1355 C 0.91227 0.63527 0.83053 0.0
C1356 C 0.9314 0.63813 0.82665 0.0
C1357 C 0.90037 0.65 0.84419 0.0
C1358 C 0.93846 0.65582 0.83717 0.0
C1359 C 0.92681 0.67039 0.85178 0.0
H1360 H 0.14141 0.15371 0.59233 0.0
H1361 H 0.10604 0.20133 0.60067 0.0
H1362 H 0.08062 0.18224 0.6344 0.0
H1363 H 0.06806 0.15209 0.66012 0.0
H1364 H 0.10254 0.10392 0.64904 0.0
H1365 H 0.12849 0.12303 0.61755 0.0
C1366 C 0.12817 0.15988 0.60199 0.0
C1367 C 0.12568 0.17895 0.5941 0.0
C1368 C 0.11335 0.14869 0.62046 0.0
C1369 C 0.10836 0.1867 0.60618 0.0
C1370 C 0.09377 0.17579 0.62548 0.0
C1371 C 0.08123 0.14573 0.65078 0.0
C1372 C 0.0833 0.12658 0.65699 0.0
C1373 C 0.09605 0.15677 0.6324 0.0
C1374 C 0.10051 0.11861 0.64448 0.0
C1375 C 0.1154 0.12956 0.62662 0.0
H1376 H 0.60328 0.3889 0.34399 0.0
H1377 H 0.55821 0.35028 0.34784 0.0
H1378 H 0.57912 0.32571 0.37731 0.0
H1379 H 0.61021 0.31498 0.40071 0.0
H1380 H 0.65579 0.3529 0.39229 0.0
H1381 H 0.63479 0.37786 0.36556 0.0
C1382 C 0.59806 0.37513 0.35171 0.0
C1383 C 0.5792 0.37145 0.34404 0.0
C1384 C 0.61028 0.36089 0.36742 0.0
C1385 C 0.57266 0.35348 0.3534 0.0
C1386 C 0.58462 0.33941 0.37023 0.0
C1387 C 0.61557 0.3287 0.39302 0.0
C1388 C 0.63455 0.33206 0.39862 0.0
C1389 C 0.60346 0.34292 0.37706 0.0
C1390 C 0.64125 0.34991 0.38811 0.0
C1391 C 0.62924 0.36421 0.373 0.0
H1392 H 0.4035 0.82322 0.07481 0.0
H1393 H 0.35643 0.85744 0.11195 0.0
H1394 H 0.37681 0.88307 0.13679 0.0
H1395 H 0.40821 0.89561 0.15013 0.0
H1396 H 0.45499 0.86055 0.11796 0.0
H1397 H 0.43459 0.83557 0.08814 0.0
C1398 C 0.39768 0.83628 0.0884 0.0
C1399 C 0.37846 0.83837 0.09161 0.0
C1400 C 0.40947 0.8509 0.10301 0.0
C1401 C 0.37117 0.8554 0.1094 0.0
C1402 C 0.38282 0.87011 0.12336 0.0
C1403 C 0.41389 0.88258 0.1357 0.0
C1404 C 0.43308 0.87996 0.13569 0.0
C1405 C 0.40201 0.86803 0.12037 0.0
C1406 C 0.44027 0.8629 0.11811 0.0
C1407 C 0.42861 0.84859 0.10129 0.0
H1408 H 0.94282 0.35352 0.66542 0.0
H1409 H 0.90472 0.39788 0.63325 0.0
H1410 H 0.88068 0.37566 0.60856 0.0
H1411 H 0.87053 0.34342 0.59479 0.0
H1412 H 0.90935 0.29938 0.62212 0.0
H1413 H 0.93291 0.32157 0.65071 0.0
C1414 C 0.92927 0.35835 0.65291 0.0
C1415 C 0.92562 0.37736 0.65115 0.0
C1416 C 0.91555 0.34549 0.63833 0.0
C1417 C 0.90797 0.38334 0.63469 0.0
C1418 C 0.89417 0.37062 0.6208 0.0
C1419 C 0.88409 0.33871 0.6077 0.0
C1420 C 0.88815 0.31976 0.60681 0.0
C1421 C 0.89778 0.35164 0.62251 0.0
C1422 C 0.90587 0.31388 0.62259 0.0
C1423 C 0.91937 0.32657 0.63878 0.0
H1424 H 0.36863 0.16073 0.39888 0.0
H1425 H 0.40532 0.20722 0.3861 0.0
H1426 H 0.43051 0.18691 0.35746 0.0
H1427 H 0.44249 0.15587 0.33843 0.0
H1428 H 0.4063 0.10907 0.35425 0.0
H1429 H 0.38075 0.12944 0.37977 0.0
C1430 C 0.38209 0.16641 0.3891 0.0
C1431 C 0.38503 0.18551 0.39428 0.0
C1432 C 0.39672 0.15454 0.37391 0.0
C1433 C 0.40264 0.1926 0.38237 0.0
C1434 C 0.4171 0.18098 0.36615 0.0
C1435 C 0.42903 0.15009 0.34765 0.0
C1436 C 0.4264 0.13091 0.34455 0.0
C1437 C 0.41437 0.1619 0.36238 0.0
C1438 C 0.40881 0.12374 0.35654 0.0
C1439 C 0.39413 0.13541 0.37093 0.0
H1440 H 0.6394 0.65994 0.08612 0.0
H1441 H 0.60209 0.70559 0.10761 0.0
H1442 H 0.57728 0.68445 0.13361 0.0
H1443 H 0.56605 0.65304 0.15036 0.0
H1444 H 0.60265 0.60706 0.12406 0.0
H1445 H 0.62769 0.62816 0.09907 0.0
C1446 C 0.62587 0.66522 0.09697 0.0
C1447 C 0.62264 0.68431 0.09553 0.0
C1448 C 0.61145 0.6529 0.11038 0.0
C1449 C 0.60494 0.69095 0.10859 0.0
C1450 C 0.59072 0.67887 0.12334 0.0
C1451 C 0.57947 0.64761 0.13877 0.0
C1452 C 0.58244 0.62848 0.13915 0.0
C1453 C 0.59378 0.65983 0.12418 0.0
C1454 C 0.59993 0.62171 0.12382 0.0
C1455 C 0.61431 0.63379 0.10987 0.0
H1456 H 0.09782 0.89354 0.84035 0.0
H1457 H 0.05156 0.85719 0.86502 0.0
H1458 H 0.07218 0.83262 0.8969 0.0
H1459 H 0.10339 0.82105 0.91488 0.0
H1460 H 0.15001 0.85656 0.88476 0.0
H1461 H 0.12934 0.88172 0.85748 0.0
C1462 C 0.09229 0.8803 0.85343 0.0
C1463 C 0.07317 0.87723 0.8508 0.0
C1464 C 0.10432 0.86599 0.87005 0.0
C1465 C 0.06621 0.8599 0.86679 0.0
C1466 C 0.078 0.84582 0.88487 0.0
C1467 C 0.10905 0.83428 0.90232 0.0
C1468 C 0.12825 0.83688 0.90187 0.0
C1469 C 0.09709 0.84863 0.88607 0.0
C1470 C 0.13531 0.85413 0.88524 0.0
C1471 C 0.12348 0.86856 0.86984 0.0
loop_
_geom_bond_atom_site_label_1
_geom_bond_atom_site_label_2
_geom_bond_distance
_geom_bond_site_symmetry_2
_ccdc_geom_bond_type
Co0 O1 2.216 . S
Co0 O2 2.091 . S
Co0 O4 2.004 . S
Co0 O10 2.021 . S
Co0 O12 2.137 1_554 S
Co0 O13 2.244 . S
O1 Co0 2.216 . S
O1 C8 1.247 . S
O2 Co0 2.091 . S
O2 C8 1.261 . S
C3 O12 1.247 . S
C3 O13 1.272 1_556 S
O4 Co0 2.004 . S
O4 C9 1.259 . S
Co5 O6 2.061 . S
Co5 O11 2.052 . S
Co5 O13 2.135 . S
O6 Co5 2.061 . S
O6 C9 1.235 . S
C7 O10 1.238 . S
C7 O11 1.241 . S
C8 O1 1.247 . S
C8 O2 1.261 . S
C9 O4 1.259 . S
C9 O6 1.235 . S
O10 Co0 2.021 . S
O10 C7 1.238 . S
O11 Co5 2.052 . S
O11 C7 1.241 . S
O12 Co0 2.137 1_556 S
O12 C3 1.247 . S
O13 Co0 2.244 . S
O13 C3 1.272 1_554 S
O13 Co5 2.135 . S
Co14 O15 2.216 . S
Co14 O16 2.091 . S
Co14 O18 2.004 . S
Co14 O24 2.021 . S
Co14 O26 2.137 . S
Co14 O27 2.244 . S
O15 Co14 2.216 . S
O15 C22 1.247 . S
O16 Co14 2.091 . S
O16 C22 1.261 . S
C17 O26 1.247 . S
C17 O27 1.272 . S
O18 Co14 2.004 . S
O18 C23 1.259 . S
Co19 O20 2.061 1_455 S
Co19 O25 2.052 1_455 S
Co19 O27 2.135 1_455 S
O20 Co19 2.061 1_655 S
O20 C23 1.235 . S
C21 O24 1.238 . S
C21 O25 1.241 . S
C22 O15 1.247 . S
C22 O16 1.261 . S
C23 O18 1.259 . S
C23 O20 1.235 . S
O24 Co14 2.021 . S
O24 C21 1.238 . S
O25 Co19 2.052 1_655 S
O25 C21 1.241 . S
O26 Co14 2.137 . S
O26 C17 1.247 . S
O27 Co14 2.244 . S
O27 C17 1.272 . S
O27 Co19 2.135 1_655 S
Co28 O29 2.216 . S
Co28 O30 2.091 . S
Co28 O32 2.004 . S
Co28 O38 2.021 . S
Co28 O40 2.137 . S
Co28 O41 2.244 . S
O29 Co28 2.216 . S
O29 C36 1.247 . S
O30 Co28 2.091 . S
O30 C36 1.261 . S
C31 O40 1.247 . S
C31 O41 1.272 . S
O32 Co28 2.004 . S
O32 C37 1.259 . S
Co33 O34 2.061 . S
Co33 O39 2.052 . S
Co33 O41 2.135 . S
O34 Co33 2.061 . S
O34 C37 1.235 . S
C35 O38 1.238 . S
C35 O39 1.241 . S
C36 O29 1.247 . S
C36 O30 1.261 . S
C37 O32 1.259 . S
C37 O34 1.235 . S
O38 Co28 2.021 . S
O38 C35 1.238 . S
O39 Co33 2.052 . S
O39 C35 1.241 . S
O40 Co28 2.137 . S
O40 C31 1.247 . S
O41 Co28 2.244 . S
O41 C31 1.272 . S
O41 Co33 2.135 . S
Co42 O43 2.216 . S
Co42 O44 2.091 . S
Co42 O46 2.004 . S
Co42 O52 2.021 . S
Co42 O54 2.137 . S
Co42 O55 2.244 . S
O43 Co42 2.216 . S
O43 C50 1.247 . S
O44 Co42 2.091 . S
O44 C50 1.261 . S
C45 O54 1.247 . S
C45 O55 1.272 . S
O46 Co42 2.004 . S
O46 C51 1.259 . S
Co47 O48 2.061 . S
Co47 O53 2.052 . S
Co47 O55 2.135 . S
O48 Co47 2.061 . S
O48 C51 1.235 . S
C49 O52 1.238 . S
C49 O53 1.241 . S
C50 O43 1.247 . S
C50 O44 1.261 . S
C51 O46 1.259 . S
C51 O48 1.235 . S
O52 Co42 2.021 . S
O52 C49 1.238 . S
O53 Co47 2.052 . S
O53 C49 1.241 . S
O54 Co42 2.137 . S
O54 C45 1.247 . S
O55 Co42 2.244 . S
O55 C45 1.272 . S
O55 Co47 2.135 . S
Co56 O57 2.216 . S
Co56 O58 2.091 . S
Co56 O60 2.004 . S
Co56 O66 2.021 . S
Co56 O68 2.137 . S
Co56 O69 2.244 . S
O57 Co56 2.216 . S
O57 C64 1.247 . S
O58 Co56 2.091 . S
O58 C64 1.261 . S
C59 O68 1.247 . S
C59 O69 1.272 . S
O60 Co56 2.004 . S
O60 C65 1.259 . S
Co61 O62 2.061 . S
Co61 O67 2.052 . S
Co61 O69 2.135 . S
O62 Co61 2.061 . S
O62 C65 1.235 . S
C63 O66 1.238 . S
C63 O67 1.241 . S
C64 O57 1.247 . S
C64 O58 1.261 . S
C65 O60 1.259 . S
C65 O62 1.235 . S
O66 Co56 2.021 . S
O66 C63 1.238 . S
O67 Co61 2.052 . S
O67 C63 1.241 . S
O68 Co56 2.137 . S
O68 C59 1.247 . S
O69 Co56 2.244 . S
O69 C59 1.272 . S
O69 Co61 2.135 . S
Co70 O71 2.216 . S
Co70 O72 2.091 . S
Co70 O74 2.004 . S
Co70 O80 2.021 . S
Co70 O82 2.137 . S
Co70 O83 2.244 . S
O71 Co70 2.216 . S
O71 C78 1.247 . S
O72 Co70 2.091 . S
O72 C78 1.261 . S
C73 O82 1.247 . S
C73 O83 1.272 . S
O74 Co70 2.004 . S
O74 C79 1.259 . S
Co75 O76 2.061 . S
Co75 O81 2.052 . S
Co75 O83 2.135 . S
O76 Co75 2.061 . S
O76 C79 1.235 . S
C77 O80 1.238 . S
C77 O81 1.241 . S
C78 O71 1.247 . S
C78 O72 1.261 . S
C79 O74 1.259 . S
C79 O76 1.235 . S
O80 Co70 2.021 . S
O80 C77 1.238 . S
O81 Co75 2.052 . S
O81 C77 1.241 . S
O82 Co70 2.137 . S
O82 C73 1.247 . S
O83 Co70 2.244 . S
O83 C73 1.272 . S
O83 Co75 2.135 . S
Co84 O85 2.216 . S
Co84 O86 2.091 . S
Co84 O88 2.004 . S
Co84 O94 2.021 . S
Co84 O96 2.137 1_556 S
Co84 O97 2.244 . S
O85 Co84 2.216 . S
O85 C92 1.247 . S
O86 Co84 2.091 . S
O86 C92 1.261 . S
C87 O96 1.247 . S
C87 O97 1.272 1_554 S
O88 Co84 2.004 . S
O88 C93 1.259 . S
Co89 O90 2.061 . S
Co89 O95 2.052 . S
Co89 O97 2.135 . S
O90 Co89 2.061 . S
O90 C93 1.235 . S
C91 O94 1.238 . S
C91 O95 1.241 . S
C92 O85 1.247 . S
C92 O86 1.261 . S
C93 O88 1.259 . S
C93 O90 1.235 . S
O94 Co84 2.021 . S
O94 C91 1.238 . S
O95 Co89 2.052 . S
O95 C91 1.241 . S
O96 Co84 2.137 1_554 S
O96 C87 1.247 . S
O97 Co84 2.244 . S
O97 C87 1.272 1_556 S
O97 Co89 2.135 . S
Co98 O99 2.216 . S
Co98 O100 2.091 . S
Co98 O102 2.004 . S
Co98 O108 2.021 . S
Co98 O110 2.137 . S
Co98 O111 2.244 . S
O99 Co98 2.216 . S
O99 C106 1.247 . S
O100 Co98 2.091 . S
O100 C106 1.261 . S
C101 O110 1.247 . S
C101 O111 1.272 . S
O102 Co98 2.004 . S
O102 C107 1.259 . S
Co103 O104 2.061 1_455 S
Co103 O109 2.052 1_455 S
Co103 O111 2.135 1_455 S
O104 Co103 2.061 1_655 S
O104 C107 1.235 . S
C105 O108 1.238 . S
C105 O109 1.241 . S
C106 O99 1.247 . S
C106 O100 1.261 . S
C107 O102 1.259 . S
C107 O104 1.235 . S
O108 Co98 2.021 . S
O108 C105 1.238 . S
O109 Co103 2.052 1_655 S
O109 C105 1.241 . S
O110 Co98 2.137 . S
O110 C101 1.247 . S
O111 Co98 2.244 . S
O111 C101 1.272 . S
O111 Co103 2.135 1_655 S
Co112 O113 2.216 . S
Co112 O114 2.091 . S
Co112 O116 2.004 . S
Co112 O122 2.021 . S
Co112 O124 2.137 1_556 S
Co112 O125 2.244 . S
O113 Co112 2.216 . S
O113 C120 1.247 . S
O114 Co112 2.091 . S
O114 C120 1.261 . S
C115 O124 1.247 . S
C115 O125 1.272 1_554 S
O116 Co112 2.004 . S
O116 C121 1.259 . S
Co117 O118 2.061 . S
Co117 O123 2.052 . S
Co117 O125 2.135 . S
O118 Co117 2.061 . S
O118 C121 1.235 . S
C119 O122 1.238 . S
C119 O123 1.241 . S
C120 O113 1.247 . S
C120 O114 1.261 . S
C121 O116 1.259 . S
C121 O118 1.235 . S
O122 Co112 2.021 . S
O122 C119 1.238 . S
O123 Co117 2.052 . S
O123 C119 1.241 . S
O124 Co112 2.137 1_554 S
O124 C115 1.247 . S
O125 Co112 2.244 . S
O125 C115 1.272 1_556 S
O125 Co117 2.135 . S
Co126 O127 2.216 . S
Co126 O128 2.091 . S
Co126 O130 2.004 . S
Co126 O136 2.021 . S
Co126 O138 2.137 . S
Co126 O139 2.244 . S
O127 Co126 2.216 . S
O127 C134 1.247 . S
O128 Co126 2.091 . S
O128 C134 1.261 . S
C129 O138 1.247 . S
C129 O139 1.272 . S
O130 Co126 2.004 . S
O130 C135 1.259 . S
Co131 O132 2.061 1_655 S
Co131 O137 2.052 1_655 S
Co131 O139 2.135 1_655 S
O132 Co131 2.061 1_455 S
O132 C135 1.235 . S
C133 O136 1.238 . S
C133 O137 1.241 . S
C134 O127 1.247 . S
C134 O128 1.261 . S
C135 O130 1.259 . S
C135 O132 1.235 . S
O136 Co126 2.021 . S
O136 C133 1.238 . S
O137 Co131 2.052 1_455 S
O137 C133 1.241 . S
O138 Co126 2.137 . S
O138 C129 1.247 . S
O139 Co126 2.244 . S
O139 C129 1.272 . S
O139 Co131 2.135 1_455 S
Co140 O141 2.216 . S
Co140 O142 2.091 . S
Co140 O144 2.004 . S
Co140 O150 2.021 . S
Co140 O152 2.137 . S
Co140 O153 2.244 . S
O141 Co140 2.216 . S
O141 C148 1.247 . S
O142 Co140 2.091 . S
O142 C148 1.261 . S
C143 O152 1.247 . S
C143 O153 1.272 . S
O144 Co140 2.004 . S
O144 C149 1.259 . S
Co145 O146 2.061 . S
Co145 O151 2.052 . S
Co145 O153 2.135 . S
O146 Co145 2.061 . S
O146 C149 1.235 . S
C147 O150 1.238 . S
C147 O151 1.241 . S
C148 O141 1.247 . S
C148 O142 1.261 . S
C149 O144 1.259 . S
C149 O146 1.235 . S
O150 Co140 2.021 . S
O150 C147 1.238 . S
O151 Co145 2.052 . S
O151 C147 1.241 . S
O152 Co140 2.137 . S
O152 C143 1.247 . S
O153 Co140 2.244 . S
O153 C143 1.272 . S
O153 Co145 2.135 . S
Co154 O155 2.216 . S
Co154 O156 2.091 . S
Co154 O158 2.004 . S
Co154 O164 2.021 . S
Co154 O166 2.137 . S
Co154 O167 2.244 . S
O155 Co154 2.216 . S
O155 C162 1.247 . S
O156 Co154 2.091 . S
O156 C162 1.261 . S
C157 O166 1.247 . S
C157 O167 1.272 . S
O158 Co154 2.004 . S
O158 C163 1.259 . S
Co159 O160 2.061 . S
Co159 O165 2.052 . S
Co159 O167 2.135 . S
O160 Co159 2.061 . S
O160 C163 1.235 . S
C161 O164 1.238 . S
C161 O165 1.241 . S
C162 O155 1.247 . S
C162 O156 1.261 . S
C163 O158 1.259 . S
C163 O160 1.235 . S
O164 Co154 2.021 . S
O164 C161 1.238 . S
O165 Co159 2.052 . S
O165 C161 1.241 . S
O166 Co154 2.137 . S
O166 C157 1.247 . S
O167 Co154 2.244 . S
O167 C157 1.272 . S
O167 Co159 2.135 . S
Co168 O169 2.216 . S
Co168 O170 2.091 . S
Co168 O172 2.004 . S
Co168 O178 2.021 . S
Co168 O180 2.137 . S
Co168 O181 2.244 . S
O169 Co168 2.216 . S
O169 C176 1.247 . S
O170 Co168 2.091 . S
O170 C176 1.261 . S
C171 O180 1.247 . S
C171 O181 1.272 . S
O172 Co168 2.004 . S
O172 C177 1.259 . S
Co173 O174 2.061 . S
Co173 O179 2.052 . S
Co173 O181 2.135 . S
O174 Co173 2.061 . S
O174 C177 1.235 . S
C175 O178 1.238 . S
C175 O179 1.241 . S
C176 O169 1.247 . S
C176 O170 1.261 . S
C177 O172 1.259 . S
C177 O174 1.235 . S
O178 Co168 2.021 . S
O178 C175 1.238 . S
O179 Co173 2.052 . S
O179 C175 1.241 . S
O180 Co168 2.137 . S
O180 C171 1.247 . S
O181 Co168 2.244 . S
O181 C171 1.272 . S
O181 Co173 2.135 . S
Co182 O183 2.216 . S
Co182 O184 2.091 . S
Co182 O186 2.004 . S
Co182 O192 2.021 . S
Co182 O194 2.137 . S
Co182 O195 2.244 . S
O183 Co182 2.216 . S
O183 C190 1.247 . S
O184 Co182 2.091 . S
O184 C190 1.261 . S
C185 O194 1.247 . S
C185 O195 1.272 . S
O186 Co182 2.004 . S
O186 C191 1.259 . S
Co187 O188 2.061 . S
Co187 O193 2.052 . S
Co187 O195 2.135 . S
O188 Co187 2.061 . S
O188 C191 1.235 . S
C189 O192 1.238 . S
C189 O193 1.241 . S
C190 O183 1.247 . S
C190 O184 1.261 . S
C191 O186 1.259 . S
C191 O188 1.235 . S
O192 Co182 2.021 . S
O192 C189 1.238 . S
O193 Co187 2.052 . S
O193 C189 1.241 . S
O194 Co182 2.137 . S
O194 C185 1.247 . S
O195 Co182 2.244 . S
O195 C185 1.272 . S
O195 Co187 2.135 . S
Co196 O197 2.216 . S
Co196 O198 2.091 . S
Co196 O200 2.004 . S
Co196 O206 2.021 . S
Co196 O208 2.137 1_554 S
Co196 O209 2.244 . S
O197 Co196 2.216 . S
O197 C204 1.247 . S
O198 Co196 2.091 . S
O198 C204 1.261 . S
C199 O208 1.247 . S
C199 O209 1.272 1_556 S
O200 Co196 2.004 . S
O200 C205 1.259 . S
Co201 O202 2.061 . S
Co201 O207 2.052 . S
Co201 O209 2.135 . S
O202 Co201 2.061 . S
O202 C205 1.235 . S
C203 O206 1.238 . S
C203 O207 1.241 . S
C204 O197 1.247 . S
C204 O198 1.261 . S
C205 O200 1.259 . S
C205 O202 1.235 . S
O206 Co196 2.021 . S
O206 C203 1.238 . S
O207 Co201 2.052 . S
O207 C203 1.241 . S
O208 Co196 2.137 1_556 S
O208 C199 1.247 . S
O209 Co196 2.244 . S
O209 C199 1.272 1_554 S
O209 Co201 2.135 . S
Co210 O211 2.216 . S
Co210 O212 2.091 . S
Co210 O214 2.004 . S
Co210 O220 2.021 . S
Co210 O222 2.137 . S
Co210 O223 2.244 . S
O211 Co210 2.216 . S
O211 C218 1.247 . S
O212 Co210 2.091 . S
O212 C218 1.261 . S
C213 O222 1.247 . S
C213 O223 1.272 . S
O214 Co210 2.004 . S
O214 C219 1.259 . S
Co215 O216 2.061 1_655 S
Co215 O221 2.052 1_655 S
Co215 O223 2.135 1_655 S
O216 Co215 2.061 1_455 S
O216 C219 1.235 . S
C217 O220 1.238 . S
C217 O221 1.241 . S
C218 O211 1.247 . S
C218 O212 1.261 . S
C219 O214 1.259 . S
C219 O216 1.235 . S
O220 Co210 2.021 . S
O220 C217 1.238 . S
O221 Co215 2.052 1_455 S
O221 C217 1.241 . S
O222 Co210 2.137 . S
O222 C213 1.247 . S
O223 Co210 2.244 . S
O223 C213 1.272 . S
O223 Co215 2.135 1_455 S
Co224 O225 2.216 . S
Co224 O226 2.091 . S
Co224 O228 2.004 . S
Co224 O234 2.021 . S
Co224 O236 2.137 . S
Co224 O237 2.244 . S
O225 Co224 2.216 . S
O225 C232 1.247 . S
O226 Co224 2.091 . S
O226 C232 1.261 . S
C227 O236 1.247 . S
C227 O237 1.272 . S
O228 Co224 2.004 . S
O228 C233 1.259 . S
Co229 O230 2.061 . S
Co229 O235 2.052 . S
Co229 O237 2.135 . S
O230 Co229 2.061 . S
O230 C233 1.235 . S
C231 O234 1.238 . S
C231 O235 1.241 . S
C232 O225 1.247 . S
C232 O226 1.261 . S
C233 O228 1.259 . S
C233 O230 1.235 . S
O234 Co224 2.021 . S
O234 C231 1.238 . S
O235 Co229 2.052 . S
O235 C231 1.241 . S
O236 Co224 2.137 . S
O236 C227 1.247 . S
O237 Co224 2.244 . S
O237 C227 1.272 . S
O237 Co229 2.135 . S
Co238 O239 2.216 . S
Co238 O240 2.091 . S
Co238 O242 2.004 . S
Co238 O248 2.021 . S
Co238 O250 2.137 . S
Co238 O251 2.244 . S
O239 Co238 2.216 . S
O239 C246 1.247 . S
O240 Co238 2.091 . S
O240 C246 1.261 . S
C241 O250 1.247 . S
C241 O251 1.272 . S
O242 Co238 2.004 . S
O242 C247 1.259 . S
Co243 O244 2.061 . S
Co243 O249 2.052 . S
Co243 O251 2.135 . S
O244 Co243 2.061 . S
O244 C247 1.235 . S
C245 O248 1.238 . S
C245 O249 1.241 . S
C246 O239 1.247 . S
C246 O240 1.261 . S
C247 O242 1.259 . S
C247 O244 1.235 . S
O248 Co238 2.021 . S
O248 C245 1.238 . S
O249 Co243 2.052 . S
O249 C245 1.241 . S
O250 Co238 2.137 . S
O250 C241 1.247 . S
O251 Co238 2.244 . S
O251 C241 1.272 . S
O251 Co243 2.135 . S
Co252 O253 2.216 . S
Co252 O254 2.091 . S
Co252 O256 2.004 . S
Co252 O262 2.021 . S
Co252 O264 2.137 1_554 S
Co252 O265 2.244 . S
O253 Co252 2.216 . S
O253 C260 1.247 . S
O254 Co252 2.091 . S
O254 C260 1.261 . S
C255 O264 1.247 . S
C255 O265 1.272 1_556 S
O256 Co252 2.004 . S
O256 C261 1.259 . S
Co257 O258 2.061 . S
Co257 O263 2.052 . S
Co257 O265 2.135 . S
O258 Co257 2.061 . S
O258 C261 1.235 . S
C259 O262 1.238 . S
C259 O263 1.241 . S
C260 O253 1.247 . S
C260 O254 1.261 . S
C261 O256 1.259 . S
C261 O258 1.235 . S
O262 Co252 2.021 . S
O262 C259 1.238 . S
O263 Co257 2.052 . S
O263 C259 1.241 . S
O264 Co252 2.137 1_556 S
O264 C255 1.247 . S
O265 Co252 2.244 . S
O265 C255 1.272 1_554 S
O265 Co257 2.135 . S
Co266 O267 2.216 . S
Co266 O268 2.091 . S
Co266 O270 2.004 . S
Co266 O276 2.021 . S
Co266 O278 2.137 . S
Co266 O279 2.244 . S
O267 Co266 2.216 . S
O267 C274 1.247 . S
O268 Co266 2.091 . S
O268 C274 1.261 . S
C269 O278 1.247 . S
C269 O279 1.272 . S
O270 Co266 2.004 . S
O270 C275 1.259 . S
Co271 O272 2.061 1_655 S
Co271 O277 2.052 1_655 S
Co271 O279 2.135 1_655 S
O272 Co271 2.061 1_455 S
O272 C275 1.235 . S
C273 O276 1.238 . S
C273 O277 1.241 . S
C274 O267 1.247 . S
C274 O268 1.261 . S
C275 O270 1.259 . S
C275 O272 1.235 . S
O276 Co266 2.021 . S
O276 C273 1.238 . S
O277 Co271 2.052 1_455 S
O277 C273 1.241 . S
O278 Co266 2.137 . S
O278 C269 1.247 . S
O279 Co266 2.244 . S
O279 C269 1.272 . S
O279 Co271 2.135 1_455 S
Co280 O281 2.216 . S
Co280 O282 2.091 . S
Co280 O284 2.004 . S
Co280 O290 2.021 . S
Co280 O292 2.137 1_556 S
Co280 O293 2.244 . S
O281 Co280 2.216 . S
O281 C288 1.247 . S
O282 Co280 2.091 . S
O282 C288 1.261 . S
C283 O292 1.247 . S
C283 O293 1.272 1_554 S
O284 Co280 2.004 . S
O284 C289 1.259 . S
Co285 O286 2.061 . S
Co285 O291 2.052 . S
Co285 O293 2.135 . S
O286 Co285 2.061 . S
O286 C289 1.235 . S
C287 O290 1.238 . S
C287 O291 1.241 . S
C288 O281 1.247 . S
C288 O282 1.261 . S
C289 O284 1.259 . S
C289 O286 1.235 . S
O290 Co280 2.021 . S
O290 C287 1.238 . S
O291 Co285 2.052 . S
O291 C287 1.241 . S
O292 Co280 2.137 1_554 S
O292 C283 1.247 . S
O293 Co280 2.244 . S
O293 C283 1.272 1_556 S
O293 Co285 2.135 . S
Co294 O295 2.216 . S
Co294 O296 2.091 . S
Co294 O298 2.004 . S
Co294 O304 2.021 . S
Co294 O306 2.137 . S
Co294 O307 2.244 . S
O295 Co294 2.216 . S
O295 C302 1.247 . S
O296 Co294 2.091 . S
O296 C302 1.261 . S
C297 O306 1.247 . S
C297 O307 1.272 . S
O298 Co294 2.004 . S
O298 C303 1.259 . S
Co299 O300 2.061 1_655 S
Co299 O305 2.052 1_655 S
Co299 O307 2.135 1_655 S
O300 Co299 2.061 1_455 S
O300 C303 1.235 . S
C301 O304 1.238 . S
C301 O305 1.241 . S
C302 O295 1.247 . S
C302 O296 1.261 . S
C303 O298 1.259 . S
C303 O300 1.235 . S
O304 Co294 2.021 . S
O304 C301 1.238 . S
O305 Co299 2.052 1_455 S
O305 C301 1.241 . S
O306 Co294 2.137 . S
O306 C297 1.247 . S
O307 Co294 2.244 . S
O307 C297 1.272 . S
O307 Co299 2.135 1_455 S
Co308 O309 2.216 . S
Co308 O310 2.091 . S
Co308 O312 2.004 . S
Co308 O318 2.021 . S
Co308 O320 2.137 . S
Co308 O321 2.244 . S
O309 Co308 2.216 . S
O309 C316 1.247 . S
O310 Co308 2.091 . S
O310 C316 1.261 . S
C311 O320 1.247 . S
C311 O321 1.272 . S
O312 Co308 2.004 . S
O312 C317 1.259 . S
Co313 O314 2.061 . S
Co313 O319 2.052 . S
Co313 O321 2.135 . S
O314 Co313 2.061 . S
O314 C317 1.235 . S
C315 O318 1.238 . S
C315 O319 1.241 . S
C316 O309 1.247 . S
C316 O310 1.261 . S
C317 O312 1.259 . S
C317 O314 1.235 . S
O318 Co308 2.021 . S
O318 C315 1.238 . S
O319 Co313 2.052 . S
O319 C315 1.241 . S
O320 Co308 2.137 . S
O320 C311 1.247 . S
O321 Co308 2.244 . S
O321 C311 1.272 . S
O321 Co313 2.135 . S
Co322 O323 2.216 . S
Co322 O324 2.091 . S
Co322 O326 2.004 . S
Co322 O332 2.021 . S
Co322 O334 2.137 . S
Co322 O335 2.244 . S
O323 Co322 2.216 . S
O323 C330 1.247 . S
O324 Co322 2.091 . S
O324 C330 1.261 . S
C325 O334 1.247 . S
C325 O335 1.272 . S
O326 Co322 2.004 . S
O326 C331 1.259 . S
Co327 O328 2.061 . S
Co327 O333 2.052 . S
Co327 O335 2.135 . S
O328 Co327 2.061 . S
O328 C331 1.235 . S
C329 O332 1.238 . S
C329 O333 1.241 . S
C330 O323 1.247 . S
C330 O324 1.261 . S
C331 O326 1.259 . S
C331 O328 1.235 . S
O332 Co322 2.021 . S
O332 C329 1.238 . S
O333 Co327 2.052 . S
O333 C329 1.241 . S
O334 Co322 2.137 . S
O334 C325 1.247 . S
O335 Co322 2.244 . S
O335 C325 1.272 . S
O335 Co327 2.135 . S
Co336 O337 2.216 . S
Co336 O338 2.091 . S
Co336 O340 2.004 . S
Co336 O346 2.021 . S
Co336 O348 2.137 . S
Co336 O349 2.244 . S
O337 Co336 2.216 . S
O337 C344 1.247 . S
O338 Co336 2.091 . S
O338 C344 1.261 . S
C339 O348 1.247 . S
C339 O349 1.272 . S
O340 Co336 2.004 . S
O340 C345 1.259 . S
Co341 O342 2.061 . S
Co341 O347 2.052 . S
Co341 O349 2.135 . S
O342 Co341 2.061 . S
O342 C345 1.235 . S
C343 O346 1.238 . S
C343 O347 1.241 . S
C344 O337 1.247 . S
C344 O338 1.261 . S
C345 O340 1.259 . S
C345 O342 1.235 . S
O346 Co336 2.021 . S
O346 C343 1.238 . S
O347 Co341 2.052 . S
O347 C343 1.241 . S
O348 Co336 2.137 . S
O348 C339 1.247 . S
O349 Co336 2.244 . S
O349 C339 1.272 . S
O349 Co341 2.135 . S
Co350 O351 2.216 . S
Co350 O352 2.091 . S
Co350 O354 2.004 . S
Co350 O360 2.021 . S
Co350 O362 2.137 . S
Co350 O363 2.244 . S
O351 Co350 2.216 . S
O351 C358 1.247 . S
O352 Co350 2.091 . S
O352 C358 1.261 . S
C353 O362 1.247 . S
C353 O363 1.272 . S
O354 Co350 2.004 . S
O354 C359 1.259 . S
Co355 O356 2.061 . S
Co355 O361 2.052 . S
Co355 O363 2.135 . S
O356 Co355 2.061 . S
O356 C359 1.235 . S
C357 O360 1.238 . S
C357 O361 1.241 . S
C358 O351 1.247 . S
C358 O352 1.261 . S
C359 O354 1.259 . S
C359 O356 1.235 . S
O360 Co350 2.021 . S
O360 C357 1.238 . S
O361 Co355 2.052 . S
O361 C357 1.241 . S
O362 Co350 2.137 . S
O362 C353 1.247 . S
O363 Co350 2.244 . S
O363 C353 1.272 . S
O363 Co355 2.135 . S
Co364 O365 2.216 . S
Co364 O366 2.091 . S
Co364 O368 2.004 . S
Co364 O374 2.021 . S
Co364 O376 2.137 1_556 S
Co364 O377 2.244 . S
O365 Co364 2.216 . S
O365 C372 1.247 . S
O366 Co364 2.091 . S
O366 C372 1.261 . S
C367 O376 1.247 . S
C367 O377 1.272 1_554 S
O368 Co364 2.004 . S
O368 C373 1.259 . S
Co369 O370 2.061 . S
Co369 O375 2.052 . S
Co369 O377 2.135 . S
O370 Co369 2.061 . S
O370 C373 1.235 . S
C371 O374 1.238 . S
C371 O375 1.241 . S
C372 O365 1.247 . S
C372 O366 1.261 . S
C373 O368 1.259 . S
C373 O370 1.235 . S
O374 Co364 2.021 . S
O374 C371 1.238 . S
O375 Co369 2.052 . S
O375 C371 1.241 . S
O376 Co364 2.137 1_554 S
O376 C367 1.247 . S
O377 Co364 2.244 . S
O377 C367 1.272 1_556 S
O377 Co369 2.135 . S
Co378 O379 2.216 . S
Co378 O380 2.091 . S
Co378 O382 2.004 . S
Co378 O388 2.021 . S
Co378 O390 2.137 . S
Co378 O391 2.244 . S
O379 Co378 2.216 . S
O379 C386 1.247 . S
O380 Co378 2.091 . S
O380 C386 1.261 . S
C381 O390 1.247 . S
C381 O391 1.272 . S
O382 Co378 2.004 . S
O382 C387 1.259 . S
Co383 O384 2.061 1_455 S
Co383 O389 2.052 1_455 S
Co383 O391 2.135 1_455 S
O384 Co383 2.061 1_655 S
O384 C387 1.235 . S
C385 O388 1.238 . S
C385 O389 1.241 . S
C386 O379 1.247 . S
C386 O380 1.261 . S
C387 O382 1.259 . S
C387 O384 1.235 . S
O388 Co378 2.021 . S
O388 C385 1.238 . S
O389 Co383 2.052 1_655 S
O389 C385 1.241 . S
O390 Co378 2.137 . S
O390 C381 1.247 . S
O391 Co378 2.244 . S
O391 C381 1.272 . S
O391 Co383 2.135 1_655 S
Co392 O393 2.216 . S
Co392 O394 2.091 . S
Co392 O396 2.004 . S
Co392 O402 2.021 . S
Co392 O404 2.137 1_554 S
Co392 O405 2.244 . S
O393 Co392 2.216 . S
O393 C400 1.247 . S
O394 Co392 2.091 . S
O394 C400 1.261 . S
C395 O404 1.247 . S
C395 O405 1.272 1_556 S
O396 Co392 2.004 . S
O396 C401 1.259 . S
Co397 O398 2.061 . S
Co397 O403 2.052 . S
Co397 O405 2.135 . S
O398 Co397 2.061 . S
O398 C401 1.235 . S
C399 O402 1.238 . S
C399 O403 1.241 . S
C400 O393 1.247 . S
C400 O394 1.261 . S
C401 O396 1.259 . S
C401 O398 1.235 . S
O402 Co392 2.021 . S
O402 C399 1.238 . S
O403 Co397 2.052 . S
O403 C399 1.241 . S
O404 Co392 2.137 1_556 S
O404 C395 1.247 . S
O405 Co392 2.244 . S
O405 C395 1.272 1_554 S
O405 Co397 2.135 . S
Co406 O407 2.216 . S
Co406 O408 2.091 . S
Co406 O410 2.004 . S
Co406 O416 2.021 . S
Co406 O418 2.137 . S
Co406 O419 2.244 . S
O407 Co406 2.216 . S
O407 C414 1.247 . S
O408 Co406 2.091 . S
O408 C414 1.261 . S
C409 O418 1.247 . S
C409 O419 1.272 . S
O410 Co406 2.004 . S
O410 C415 1.259 . S
Co411 O412 2.061 1_455 S
Co411 O417 2.052 1_455 S
Co411 O419 2.135 1_455 S
O412 Co411 2.061 1_655 S
O412 C415 1.235 . S
C413 O416 1.238 . S
C413 O417 1.241 . S
C414 O407 1.247 . S
C414 O408 1.261 . S
C415 O410 1.259 . S
C415 O412 1.235 . S
O416 Co406 2.021 . S
O416 C413 1.238 . S
O417 Co411 2.052 1_655 S
O417 C413 1.241 . S
O418 Co406 2.137 . S
O418 C409 1.247 . S
O419 Co406 2.244 . S
O419 C409 1.272 . S
O419 Co411 2.135 1_655 S
Co420 O421 2.216 . S
Co420 O422 2.091 . S
Co420 O424 2.004 . S
Co420 O430 2.021 . S
Co420 O432 2.137 . S
Co420 O433 2.244 . S
O421 Co420 2.216 . S
O421 C428 1.247 . S
O422 Co420 2.091 . S
O422 C428 1.261 . S
C423 O432 1.247 . S
C423 O433 1.272 . S
O424 Co420 2.004 . S
O424 C429 1.259 . S
Co425 O426 2.061 . S
Co425 O431 2.052 . S
Co425 O433 2.135 . S
O426 Co425 2.061 . S
O426 C429 1.235 . S
C427 O430 1.238 . S
C427 O431 1.241 . S
C428 O421 1.247 . S
C428 O422 1.261 . S
C429 O424 1.259 . S
C429 O426 1.235 . S
O430 Co420 2.021 . S
O430 C427 1.238 . S
O431 Co425 2.052 . S
O431 C427 1.241 . S
O432 Co420 2.137 . S
O432 C423 1.247 . S
O433 Co420 2.244 . S
O433 C423 1.272 . S
O433 Co425 2.135 . S
Co434 O435 2.216 . S
Co434 O436 2.091 . S
Co434 O438 2.004 . S
Co434 O444 2.021 . S
Co434 O446 2.137 . S
Co434 O447 2.244 . S
O435 Co434 2.216 . S
O435 C442 1.247 . S
O436 Co434 2.091 . S
O436 C442 1.261 . S
C437 O446 1.247 . S
C437 O447 1.272 . S
O438 Co434 2.004 . S
O438 C443 1.259 . S
Co439 O440 2.061 . S
Co439 O445 2.052 . S
Co439 O447 2.135 . S
O440 Co439 2.061 . S
O440 C443 1.235 . S
C441 O444 1.238 . S
C441 O445 1.241 . S
C442 O435 1.247 . S
C442 O436 1.261 . S
C443 O438 1.259 . S
C443 O440 1.235 . S
O444 Co434 2.021 . S
O444 C441 1.238 . S
O445 Co439 2.052 . S
O445 C441 1.241 . S
O446 Co434 2.137 . S
O446 C437 1.247 . S
O447 Co434 2.244 . S
O447 C437 1.272 . S
O447 Co439 2.135 . S
H448 C454 0.930 . S
H449 C457 0.930 . S
H450 C458 0.930 . S
H451 C459 0.930 . S
H452 C462 0.930 . S
H453 C463 0.930 . S
C454 H448 0.930 . S
C454 C455 1.355 . S
C454 C456 1.415 . S
C455 C454 1.355 . S
C455 C457 1.419 1_556 S
C456 C454 1.415 . S
C456 C461 1.425 1_556 S
C456 C463 1.409 . S
C457 H449 0.930 . S
C457 C455 1.419 1_554 S
C457 C458 1.362 . S
C458 H450 0.930 . S
C458 C457 1.362 . S
C458 C461 1.409 . S
C459 H451 0.930 . S
C459 C460 1.355 . S
C459 C461 1.415 . S
C460 C459 1.355 . S
C460 C462 1.419 1_554 S
C461 C456 1.425 1_554 S
C461 C458 1.409 . S
C461 C459 1.415 . S
C462 H452 0.930 . S
C462 C460 1.419 1_556 S
C462 C463 1.362 . S
C463 H453 0.930 . S
C463 C456 1.409 . S
C463 C462 1.362 . S
H464 C470 0.930 . S
H465 C473 0.930 . S
H466 C474 0.930 . S
H467 C475 0.930 . S
H468 C478 0.930 . S
H469 C479 0.930 . S
C470 H464 0.930 . S
C470 C471 1.355 . S
C470 C472 1.436 . S
C471 C470 1.355 . S
C471 C473 1.419 . S
C472 C470 1.436 . S
C472 C477 1.424 1_565 S
C472 C479 1.389 1_565 S
C473 H465 0.930 . S
C473 C471 1.419 . S
C473 C474 1.362 . S
C474 H466 0.930 . S
C474 C473 1.362 . S
C474 C477 1.389 1_565 S
C475 H467 0.930 . S
C475 C476 1.355 . S
C475 C477 1.436 . S
C476 C475 1.355 . S
C476 C478 1.419 . S
C477 C472 1.424 1_545 S
C477 C474 1.389 1_545 S
C477 C475 1.436 . S
C478 H468 0.930 . S
C478 C476 1.419 . S
C478 C479 1.362 . S
C479 H469 0.930 . S
C479 C472 1.389 1_545 S
C479 C478 1.362 . S
H480 C486 0.930 . S
H481 C489 0.930 . S
H482 C490 0.930 . S
H483 C491 0.930 . S
H484 C494 0.930 . S
H485 C495 0.930 . S
C486 H480 0.930 . S
C486 C487 1.355 . S
C486 C488 1.415 . S
C487 C486 1.355 . S
C487 C489 1.419 . S
C488 C486 1.415 . S
C488 C493 1.425 . S
C488 C495 1.409 . S
C489 H481 0.930 . S
C489 C487 1.419 . S
C489 C490 1.362 . S
C490 H482 0.930 . S
C490 C489 1.362 . S
C490 C493 1.409 . S
C491 H483 0.930 . S
C491 C492 1.355 . S
C491 C493 1.415 . S
C492 C491 1.355 . S
C492 C494 1.419 . S
C493 C488 1.425 . S
C493 C490 1.409 . S
C493 C491 1.415 . S
C494 H484 0.930 . S
C494 C492 1.419 . S
C494 C495 1.362 . S
C495 H485 0.930 . S
C495 C488 1.409 . S
C495 C494 1.362 . S
H496 C502 0.930 . S
H497 C505 0.930 . S
H498 C506 0.930 1_565 S
H499 C507 0.930 . S
H500 C510 0.930 . S
H501 C511 0.930 1_545 S
C502 H496 0.930 . S
C502 C503 1.355 . S
C502 C504 1.415 . S
C503 C502 1.355 . S
C503 C505 1.419 . S
C504 C502 1.415 . S
C504 C509 1.425 1_545 S
C504 C511 1.409 1_545 S
C505 H497 0.930 . S
C505 C503 1.419 . S
C505 C506 1.362 . S
C506 H498 0.930 1_545 S
C506 C505 1.362 . S
C506 C509 1.409 1_545 S
C507 H499 0.930 . S
C507 C508 1.355 . S
C507 C509 1.415 . S
C508 C507 1.355 . S
C508 C510 1.419 . S
C509 C504 1.425 1_565 S
C509 C506 1.409 1_565 S
C509 C507 1.415 . S
C510 H500 0.930 . S
C510 C508 1.419 . S
C510 C511 1.362 . S
C511 H501 0.930 1_565 S
C511 C504 1.409 1_565 S
C511 C510 1.362 . S
H512 C518 0.930 . S
H513 C521 0.930 . S
H514 C522 0.930 . S
H515 C523 0.930 . S
H516 C526 0.930 . S
H517 C527 0.930 . S
C518 H512 0.930 . S
C518 C519 1.355 . S
C518 C520 1.415 . S
C519 C518 1.355 . S
C519 C521 1.419 . S
C520 C518 1.415 . S
C520 C525 1.425 1_554 S
C520 C527 1.409 1_554 S
C521 H513 0.930 . S
C521 C519 1.419 . S
C521 C522 1.362 . S
C522 H514 0.930 . S
C522 C521 1.362 . S
C522 C525 1.409 1_554 S
C523 H515 0.930 . S
C523 C524 1.355 . S
C523 C525 1.415 . S
C524 C523 1.355 . S
C524 C526 1.419 . S
C525 C520 1.425 1_556 S
C525 C522 1.409 1_556 S
C525 C523 1.415 . S
C526 H516 0.930 . S
C526 C524 1.419 . S
C526 C527 1.362 . S
C527 H517 0.930 . S
C527 C520 1.409 1_556 S
C527 C526 1.362 . S
H528 C534 0.930 . S
H529 C537 0.930 . S
H530 C538 0.930 . S
H531 C539 0.930 . S
H532 C542 0.930 . S
H533 C543 0.930 . S
C534 H528 0.930 . S
C534 C535 1.355 . S
C534 C536 1.415 . S
C535 C534 1.355 . S
C535 C537 1.419 . S
C536 C534 1.415 . S
C536 C541 1.425 1_565 S
C536 C543 1.409 1_565 S
C537 H529 0.930 . S
C537 C535 1.419 . S
C537 C538 1.362 . S
C538 H530 0.930 . S
C538 C537 1.362 . S
C538 C541 1.409 1_565 S
C539 H531 0.930 . S
C539 C540 1.355 . S
C539 C541 1.415 . S
C540 C539 1.355 . S
C540 C542 1.419 . S
C541 C536 1.425 1_545 S
C541 C538 1.409 1_545 S
C541 C539 1.415 . S
C542 H532 0.930 . S
C542 C540 1.419 . S
C542 C543 1.362 . S
C543 H533 0.930 . S
C543 C536 1.409 1_545 S
C543 C542 1.362 . S
H544 C550 0.930 . S
H545 C553 0.930 . S
H546 C554 0.930 . S
H547 C555 0.930 . S
H548 C558 0.930 . S
H549 C559 0.930 . S
C550 H544 0.930 . S
C550 C551 1.355 . S
C550 C552 1.415 . S
C551 C550 1.355 . S
C551 C553 1.419 . S
C552 C550 1.415 . S
C552 C557 1.425 . S
C552 C559 1.409 . S
C553 H545 0.930 . S
C553 C551 1.419 . S
C553 C554 1.362 . S
C554 H546 0.930 . S
C554 C553 1.362 . S
C554 C557 1.409 . S
C555 H547 0.930 . S
C555 C556 1.355 . S
C555 C557 1.415 . S
C556 C555 1.355 . S
C556 C558 1.419 . S
C557 C552 1.425 . S
C557 C554 1.409 . S
C557 C555 1.415 . S
C558 H548 0.930 . S
C558 C556 1.419 . S
C558 C559 1.362 . S
C559 H549 0.930 . S
C559 C552 1.409 . S
C559 C558 1.362 . S
H560 C566 0.930 . S
H561 C569 0.930 . S
H562 C570 0.930 . S
H563 C571 0.930 . S
H564 C574 0.930 . S
H565 C575 0.930 . S
C566 H560 0.930 . S
C566 C567 1.355 . S
C566 C568 1.434 . S
C567 C566 1.355 . S
C567 C569 1.419 . S
C568 C566 1.434 . S
C568 C573 1.424 1_565 S
C568 C575 1.390 1_565 S
C569 H561 0.930 . S
C569 C567 1.419 . S
C569 C570 1.362 . S
C570 H562 0.930 . S
C570 C569 1.362 . S
C570 C573 1.390 1_565 S
C571 H563 0.930 . S
C571 C572 1.355 . S
C571 C573 1.434 . S
C572 C571 1.355 . S
C572 C574 1.419 . S
C573 C568 1.424 1_545 S
C573 C570 1.390 1_545 S
C573 C571 1.434 . S
C574 H564 0.930 . S
C574 C572 1.419 . S
C574 C575 1.362 . S
C575 H565 0.930 . S
C575 C568 1.390 1_545 S
C575 C574 1.362 . S
H576 C582 0.930 . S
H577 C585 0.930 . S
H578 C586 0.930 . S
H579 C587 0.930 . S
H580 C590 0.930 . S
H581 C591 0.930 . S
C582 H576 0.930 . S
C582 C583 1.355 . S
C582 C584 1.415 . S
C583 C582 1.355 . S
C583 C585 1.419 . S
C584 C582 1.415 . S
C584 C589 1.425 . S
C584 C591 1.409 . S
C585 H577 0.930 . S
C585 C583 1.419 . S
C585 C586 1.362 . S
C586 H578 0.930 . S
C586 C585 1.362 . S
C586 C589 1.409 . S
C587 H579 0.930 . S
C587 C588 1.355 . S
C587 C589 1.415 . S
C588 C587 1.355 . S
C588 C590 1.419 . S
C589 C584 1.425 . S
C589 C586 1.409 . S
C589 C587 1.415 . S
C590 H580 0.930 . S
C590 C588 1.419 . S
C590 C591 1.362 . S
C591 H581 0.930 . S
C591 C584 1.409 . S
C591 C590 1.362 . S
H592 C598 0.930 . S
H593 C601 0.930 . S
H594 C602 0.930 . S
H595 C603 0.930 . S
H596 C606 0.930 . S
H597 C607 0.930 . S
C598 H592 0.930 . S
C598 C599 1.355 . S
C598 C600 1.415 . S
C599 C598 1.355 . S
C599 C601 1.419 . S
C600 C598 1.415 . S
C600 C605 1.425 . S
C600 C607 1.409 . S
C601 H593 0.930 . S
C601 C599 1.419 . S
C601 C602 1.362 . S
C602 H594 0.930 . S
C602 C601 1.362 . S
C602 C605 1.409 . S
C603 H595 0.930 . S
C603 C604 1.355 . S
C603 C605 1.415 . S
C604 C603 1.355 . S
C604 C606 1.419 . S
C605 C600 1.425 . S
C605 C602 1.409 . S
C605 C603 1.415 . S
C606 H596 0.930 . S
C606 C604 1.419 . S
C606 C607 1.362 . S
C607 H597 0.930 . S
C607 C600 1.409 . S
C607 C606 1.362 . S
H608 C614 0.930 . S
H609 C617 0.930 . S
H610 C618 0.930 . S
H611 C619 0.930 . S
H612 C622 0.930 . S
H613 C623 0.930 . S
C614 H608 0.930 . S
C614 C615 1.355 1_554 S
C614 C616 1.415 . S
C615 C614 1.355 1_556 S
C615 C617 1.419 . S
C616 C614 1.415 . S
C616 C621 1.425 1_554 S
C616 C623 1.409 . S
C617 H609 0.930 . S
C617 C615 1.419 . S
C617 C618 1.362 . S
C618 H610 0.930 . S
C618 C617 1.362 . S
C618 C621 1.409 . S
C619 H611 0.930 . S
C619 C620 1.355 1_556 S
C619 C621 1.415 . S
C620 C619 1.355 1_554 S
C620 C622 1.419 . S
C621 C616 1.425 1_556 S
C621 C618 1.409 . S
C621 C619 1.415 . S
C622 H612 0.930 . S
C622 C620 1.419 . S
C622 C623 1.362 . S
C623 H613 0.930 . S
C623 C616 1.409 . S
C623 C622 1.362 . S
H624 C630 0.930 . S
H625 C633 0.930 . S
H626 C634 0.930 . S
H627 C635 0.930 . S
H628 C638 0.930 . S
H629 C639 0.930 . S
C630 H624 0.930 . S
C630 C631 1.355 . S
C630 C632 1.415 . S
C631 C630 1.355 . S
C631 C633 1.419 . S
C632 C630 1.415 . S
C632 C637 1.425 . S
C632 C639 1.409 . S
C633 H625 0.930 . S
C633 C631 1.419 . S
C633 C634 1.362 . S
C634 H626 0.930 . S
C634 C633 1.362 . S
C634 C637 1.409 . S
C635 H627 0.930 . S
C635 C636 1.355 . S
C635 C637 1.415 . S
C636 C635 1.355 . S
C636 C638 1.419 . S
C637 C632 1.425 . S
C637 C634 1.409 . S
C637 C635 1.415 . S
C638 H628 0.930 . S
C638 C636 1.419 . S
C638 C639 1.362 . S
C639 H629 0.930 . S
C639 C632 1.409 . S
C639 C638 1.362 . S
H640 C646 0.930 . S
H641 C649 0.930 . S
H642 C650 0.930 . S
H643 C651 0.930 . S
H644 C654 0.930 . S
H645 C655 0.930 . S
C646 H640 0.930 . S
C646 C647 1.355 . S
C646 C648 1.415 . S
C647 C646 1.355 . S
C647 C649 1.419 . S
C648 C646 1.415 . S
C648 C653 1.425 . S
C648 C655 1.409 . S
C649 H641 0.930 . S
C649 C647 1.419 . S
C649 C650 1.362 . S
C650 H642 0.930 . S
C650 C649 1.362 . S
C650 C653 1.409 . S
C651 H643 0.930 . S
C651 C652 1.355 . S
C651 C653 1.415 . S
C652 C651 1.355 . S
C652 C654 1.419 . S
C653 C648 1.425 . S
C653 C650 1.409 . S
C653 C651 1.415 . S
C654 H644 0.930 . S
C654 C652 1.419 . S
C654 C655 1.362 . S
C655 H645 0.930 . S
C655 C648 1.409 . S
C655 C654 1.362 . S
H656 C662 0.930 . S
H657 C665 0.930 . S
H658 C666 0.930 . S
H659 C667 0.930 . S
H660 C670 0.930 . S
H661 C671 0.930 . S
C662 H656 0.930 . S
C662 C663 1.355 . S
C662 C664 1.415 . S
C663 C662 1.355 . S
C663 C665 1.419 . S
C664 C662 1.415 . S
C664 C669 1.425 . S
C664 C671 1.409 . S
C665 H657 0.930 . S
C665 C663 1.419 . S
C665 C666 1.362 . S
C666 H658 0.930 . S
C666 C665 1.362 . S
C666 C669 1.409 . S
C667 H659 0.930 . S
C667 C668 1.355 . S
C667 C669 1.415 . S
C668 C667 1.355 . S
C668 C670 1.419 . S
C669 C664 1.425 . S
C669 C666 1.409 . S
C669 C667 1.415 . S
C670 H660 0.930 . S
C670 C668 1.419 . S
C670 C671 1.362 . S
C671 H661 0.930 . S
C671 C664 1.409 . S
C671 C670 1.362 . S
H672 C678 0.930 . S
H673 C681 0.930 . S
H674 C682 0.930 . S
H675 C683 0.930 . S
H676 C686 0.930 . S
H677 C687 0.930 . S
C678 H672 0.930 . S
C678 C679 1.355 1_556 S
C678 C680 1.415 . S
C679 C678 1.355 1_554 S
C679 C681 1.419 . S
C680 C678 1.415 . S
C680 C685 1.425 1_556 S
C680 C687 1.409 . S
C681 H673 0.930 . S
C681 C679 1.419 . S
C681 C682 1.362 . S
C682 H674 0.930 . S
C682 C681 1.362 . S
C682 C685 1.409 . S
C683 H675 0.930 . S
C683 C684 1.355 1_554 S
C683 C685 1.415 . S
C684 C683 1.355 1_556 S
C684 C686 1.419 . S
C685 C680 1.425 1_554 S
C685 C682 1.409 . S
C685 C683 1.415 . S
C686 H676 0.930 . S
C686 C684 1.419 . S
C686 C687 1.362 . S
C687 H677 0.930 . S
C687 C680 1.409 . S
C687 C686 1.362 . S
H688 C694 0.930 . S
H689 C697 0.930 . S
H690 C698 0.930 . S
H691 C699 0.930 . S
H692 C702 0.930 . S
H693 C703 0.930 . S
C694 H688 0.930 . S
C694 C695 1.355 . S
C694 C696 1.415 . S
C695 C694 1.355 . S
C695 C697 1.419 . S
C696 C694 1.415 . S
C696 C701 1.425 . S
C696 C703 1.409 . S
C697 H689 0.930 . S
C697 C695 1.419 . S
C697 C698 1.362 . S
C698 H690 0.930 . S
C698 C697 1.362 . S
C698 C701 1.409 . S
C699 H691 0.930 . S
C699 C700 1.355 . S
C699 C701 1.415 . S
C700 C699 1.355 . S
C700 C702 1.419 . S
C701 C696 1.425 . S
C701 C698 1.409 . S
C701 C699 1.415 . S
C702 H692 0.930 . S
C702 C700 1.419 . S
C702 C703 1.362 . S
C703 H693 0.930 . S
C703 C696 1.409 . S
C703 C702 1.362 . S
H704 C710 0.930 . S
H705 C713 0.930 . S
H706 C714 0.930 . S
H707 C715 0.930 . S
H708 C718 0.930 . S
H709 C719 0.930 . S
C710 H704 0.930 . S
C710 C711 1.355 . S
C710 C712 1.415 . S
C711 C710 1.355 . S
C711 C713 1.419 . S
C712 C710 1.415 . S
C712 C717 1.425 . S
C712 C719 1.409 . S
C713 H705 0.930 . S
C713 C711 1.419 . S
C713 C714 1.362 . S
C714 H706 0.930 . S
C714 C713 1.362 . S
C714 C717 1.409 . S
C715 H707 0.930 . S
C715 C716 1.355 . S
C715 C717 1.415 . S
C716 C715 1.355 . S
C716 C718 1.419 . S
C717 C712 1.425 . S
C717 C714 1.409 . S
C717 C715 1.415 . S
C718 H708 0.930 . S
C718 C716 1.419 . S
C718 C719 1.362 . S
C719 H709 0.930 . S
C719 C712 1.409 . S
C719 C718 1.362 . S
H720 C726 0.930 . S
H721 C729 0.930 . S
H722 C730 0.930 . S
H723 C731 0.930 . S
H724 C734 0.930 . S
H725 C735 0.930 . S
C726 H720 0.930 . S
C726 C727 1.355 1_554 S
C726 C728 1.415 . S
C727 C726 1.355 1_556 S
C727 C729 1.419 1_455 S
C728 C726 1.415 . S
C728 C733 1.425 1_455 S
C728 C735 1.409 . S
C729 H721 0.930 . S
C729 C727 1.419 1_655 S
C729 C730 1.362 1_556 S
C730 H722 0.930 . S
C730 C729 1.362 1_554 S
C730 C733 1.409 . S
C731 H723 0.930 . S
C731 C732 1.355 . S
C731 C733 1.415 . S
C732 C731 1.355 . S
C732 C734 1.419 1_655 S
C733 C728 1.425 1_655 S
C733 C730 1.409 . S
C733 C731 1.415 . S
C734 H724 0.930 . S
C734 C732 1.419 1_455 S
C734 C735 1.362 . S
C735 H725 0.930 . S
C735 C728 1.409 . S
C735 C734 1.362 . S
H736 C742 0.930 . S
H737 C745 0.930 . S
H738 C746 0.930 . S
H739 C747 0.930 . S
H740 C750 0.930 . S
H741 C751 0.930 . S
C742 H736 0.930 . S
C742 C743 1.355 . S
C742 C744 1.415 . S
C743 C742 1.355 . S
C743 C745 1.419 . S
C744 C742 1.415 . S
C744 C749 1.425 . S
C744 C751 1.409 . S
C745 H737 0.930 . S
C745 C743 1.419 . S
C745 C746 1.362 . S
C746 H738 0.930 . S
C746 C745 1.362 . S
C746 C749 1.409 . S
C747 H739 0.930 . S
C747 C748 1.355 . S
C747 C749 1.415 . S
C748 C747 1.355 . S
C748 C750 1.419 . S
C749 C744 1.425 . S
C749 C746 1.409 . S
C749 C747 1.415 . S
C750 H740 0.930 . S
C750 C748 1.419 . S
C750 C751 1.362 . S
C751 H741 0.930 . S
C751 C744 1.409 . S
C751 C750 1.362 . S
H752 C758 0.930 . S
H753 C761 0.930 . S
H754 C762 0.930 . S
H755 C763 0.930 . S
H756 C766 0.930 . S
H757 C767 0.930 . S
C758 H752 0.930 . S
C758 C759 1.355 . S
C758 C760 1.415 . S
C759 C758 1.355 . S
C759 C761 1.419 . S
C760 C758 1.415 . S
C760 C765 1.425 . S
C760 C767 1.409 . S
C761 H753 0.930 . S
C761 C759 1.419 . S
C761 C762 1.362 . S
C762 H754 0.930 . S
C762 C761 1.362 . S
C762 C765 1.409 . S
C763 H755 0.930 . S
C763 C764 1.355 . S
C763 C765 1.415 . S
C764 C763 1.355 . S
C764 C766 1.419 . S
C765 C760 1.425 . S
C765 C762 1.409 . S
C765 C763 1.415 . S
C766 H756 0.930 . S
C766 C764 1.419 . S
C766 C767 1.362 . S
C767 H757 0.930 . S
C767 C760 1.409 . S
C767 C766 1.362 . S
H768 C774 0.930 . S
H769 C777 0.930 . S
H770 C778 0.930 . S
H771 C779 0.930 . S
H772 C782 0.930 . S
H773 C783 0.930 . S
C774 H768 0.930 . S
C774 C775 1.355 . S
C774 C776 1.415 . S
C775 C774 1.355 . S
C775 C777 1.419 . S
C776 C774 1.415 . S
C776 C781 1.425 . S
C776 C783 1.409 . S
C777 H769 0.930 . S
C777 C775 1.419 . S
C777 C778 1.362 . S
C778 H770 0.930 . S
C778 C777 1.362 . S
C778 C781 1.409 . S
C779 H771 0.930 . S
C779 C780 1.355 . S
C779 C781 1.415 . S
C780 C779 1.355 . S
C780 C782 1.419 . S
C781 C776 1.425 . S
C781 C778 1.409 . S
C781 C779 1.415 . S
C782 H772 0.930 . S
C782 C780 1.419 . S
C782 C783 1.362 . S
C783 H773 0.930 . S
C783 C776 1.409 . S
C783 C782 1.362 . S
H784 C790 0.930 . S
H785 C793 0.930 . S
H786 C794 0.930 . S
H787 C795 0.930 . S
H788 C798 0.930 . S
H789 C799 0.930 . S
C790 H784 0.930 . S
C790 C791 1.355 . S
C790 C792 1.415 1_554 S
C791 C790 1.355 . S
C791 C793 1.419 . S
C792 C790 1.415 1_556 S
C792 C797 1.425 . S
C792 C799 1.409 . S
C793 H785 0.930 . S
C793 C791 1.419 . S
C793 C794 1.362 1_554 S
C794 H786 0.930 . S
C794 C793 1.362 1_556 S
C794 C797 1.409 . S
C795 H787 0.930 . S
C795 C796 1.355 . S
C795 C797 1.415 . S
C796 C795 1.355 . S
C796 C798 1.419 . S
C797 C792 1.425 . S
C797 C794 1.409 . S
C797 C795 1.415 . S
C798 H788 0.930 . S
C798 C796 1.419 . S
C798 C799 1.362 . S
C799 H789 0.930 . S
C799 C792 1.409 . S
C799 C798 1.362 . S
H800 C806 0.930 . S
H801 C809 0.930 . S
H802 C810 0.930 . S
H803 C811 0.930 . S
H804 C814 0.930 . S
H805 C815 0.930 . S
C806 H800 0.930 . S
C806 C807 1.355 . S
C806 C808 1.415 . S
C807 C806 1.355 . S
C807 C809 1.419 . S
C808 C806 1.415 . S
C808 C813 1.425 . S
C808 C815 1.409 . S
C809 H801 0.930 . S
C809 C807 1.419 . S
C809 C810 1.362 . S
C810 H802 0.930 . S
C810 C809 1.362 . S
C810 C813 1.409 . S
C811 H803 0.930 . S
C811 C812 1.355 . S
C811 C813 1.415 . S
C812 C811 1.355 . S
C812 C814 1.419 . S
C813 C808 1.425 . S
C813 C810 1.409 . S
C813 C811 1.415 . S
C814 H804 0.930 . S
C814 C812 1.419 . S
C814 C815 1.362 . S
C815 H805 0.930 . S
C815 C808 1.409 . S
C815 C814 1.362 . S
H816 C822 0.930 . S
H817 C825 0.930 . S
H818 C826 0.930 . S
H819 C827 0.960 . S
H820 C830 0.930 . S
H821 C831 0.930 . S
C822 H816 0.930 . S
C822 C823 1.355 1_655 S
C822 C824 1.415 . S
C823 C822 1.355 1_455 S
C823 C825 1.419 . S
C824 C822 1.415 . S
C824 C829 1.425 1_655 S
C824 C831 1.409 . S
C825 H817 0.930 . S
C825 C823 1.419 . S
C825 C826 1.362 . S
C826 H818 0.930 . S
C826 C825 1.362 . S
C826 C829 1.409 . S
C827 H819 0.960 . S
C827 C828 1.314 1_455 S
C827 C829 1.426 . S
C828 C827 1.314 1_655 S
C828 C830 1.419 . S
C829 C824 1.425 1_455 S
C829 C826 1.409 . S
C829 C827 1.426 . S
C830 H820 0.930 . S
C830 C828 1.419 . S
C830 C831 1.362 . S
C831 H821 0.930 . S
C831 C824 1.409 . S
C831 C830 1.362 . S
H832 C838 0.930 . S
H833 C841 0.930 . S
H834 C842 0.930 . S
H835 C843 0.930 . S
H836 C846 0.930 . S
H837 C847 0.930 . S
C838 H832 0.930 . S
C838 C839 1.355 . S
C838 C840 1.415 . S
C839 C838 1.355 . S
C839 C841 1.419 . S
C840 C838 1.415 . S
C840 C845 1.425 . S
C840 C847 1.409 . S
C841 H833 0.930 . S
C841 C839 1.419 . S
C841 C842 1.362 . S
C842 H834 0.930 . S
C842 C841 1.362 . S
C842 C845 1.409 . S
C843 H835 0.930 . S
C843 C844 1.355 . S
C843 C845 1.415 . S
C844 C843 1.355 . S
C844 C846 1.419 . S
C845 C840 1.425 . S
C845 C842 1.409 . S
C845 C843 1.415 . S
C846 H836 0.930 . S
C846 C844 1.419 . S
C846 C847 1.362 . S
C847 H837 0.930 . S
C847 C840 1.409 . S
C847 C846 1.362 . S
H848 C854 0.930 . S
H849 C857 0.930 . S
H850 C858 0.930 . S
H851 C859 0.930 . S
H852 C862 0.930 . S
H853 C863 0.930 . S
C854 H848 0.930 . S
C854 C855 1.355 1_556 S
C854 C856 1.415 . S
C855 C854 1.355 1_554 S
C855 C857 1.419 1_655 S
C856 C854 1.415 . S
C856 C861 1.425 1_655 S
C856 C863 1.409 . S
C857 H849 0.930 . S
C857 C855 1.419 1_455 S
C857 C858 1.362 1_554 S
C858 H850 0.930 . S
C858 C857 1.362 1_556 S
C858 C861 1.409 . S
C859 H851 0.930 . S
C859 C860 1.355 . S
C859 C861 1.415 . S
C860 C859 1.355 . S
C860 C862 1.419 1_455 S
C861 C856 1.425 1_455 S
C861 C858 1.409 . S
C861 C859 1.415 . S
C862 H852 0.930 . S
C862 C860 1.419 1_655 S
C862 C863 1.362 . S
C863 H853 0.930 . S
C863 C856 1.409 . S
C863 C862 1.362 . S
H864 C870 0.930 . S
H865 C873 0.930 . S
H866 C874 0.930 . S
H867 C875 0.930 . S
H868 C878 0.930 . S
H869 C879 0.930 . S
C870 H864 0.930 . S
C870 C871 1.355 . S
C870 C872 1.415 . S
C871 C870 1.355 . S
C871 C873 1.419 . S
C872 C870 1.415 . S
C872 C877 1.425 . S
C872 C879 1.409 . S
C873 H865 0.930 . S
C873 C871 1.419 . S
C873 C874 1.362 . S
C874 H866 0.930 . S
C874 C873 1.362 . S
C874 C877 1.409 . S
C875 H867 0.930 . S
C875 C876 1.355 . S
C875 C877 1.415 . S
C876 C875 1.355 . S
C876 C878 1.419 . S
C877 C872 1.425 . S
C877 C874 1.409 . S
C877 C875 1.415 . S
C878 H868 0.930 . S
C878 C876 1.419 . S
C878 C879 1.362 . S
C879 H869 0.930 . S
C879 C872 1.409 . S
C879 C878 1.362 . S
H880 C886 0.930 . S
H881 C889 0.930 . S
H882 C890 0.930 . S
H883 C891 0.930 . S
H884 C894 0.930 . S
H885 C895 0.930 . S
C886 H880 0.930 . S
C886 C887 1.355 . S
C886 C888 1.415 . S
C887 C886 1.355 . S
C887 C889 1.419 . S
C888 C886 1.415 . S
C888 C893 1.425 . S
C888 C895 1.409 . S
C889 H881 0.930 . S
C889 C887 1.419 . S
C889 C890 1.362 . S
C890 H882 0.930 . S
C890 C889 1.362 . S
C890 C893 1.409 . S
C891 H883 0.930 . S
C891 C892 1.355 . S
C891 C893 1.415 . S
C892 C891 1.355 . S
C892 C894 1.419 . S
C893 C888 1.425 . S
C893 C890 1.409 . S
C893 C891 1.415 . S
C894 H884 0.930 . S
C894 C892 1.419 . S
C894 C895 1.362 . S
C895 H885 0.930 . S
C895 C888 1.409 . S
C895 C894 1.362 . S
H896 C902 0.930 . S
H897 C905 0.930 . S
H898 C906 0.930 . S
H899 C907 0.930 . S
H900 C910 0.930 . S
H901 C911 0.930 . S
C902 H896 0.930 . S
C902 C903 1.355 . S
C902 C904 1.415 . S
C903 C902 1.355 . S
C903 C905 1.419 . S
C904 C902 1.415 . S
C904 C909 1.425 . S
C904 C911 1.409 . S
C905 H897 0.930 . S
C905 C903 1.419 . S
C905 C906 1.362 . S
C906 H898 0.930 . S
C906 C905 1.362 . S
C906 C909 1.409 . S
C907 H899 0.930 . S
C907 C908 1.355 . S
C907 C909 1.415 . S
C908 C907 1.355 . S
C908 C910 1.419 . S
C909 C904 1.425 . S
C909 C906 1.409 . S
C909 C907 1.415 . S
C910 H900 0.930 . S
C910 C908 1.419 . S
C910 C911 1.362 . S
C911 H901 0.930 . S
C911 C904 1.409 . S
C911 C910 1.362 . S
H912 C918 0.930 . S
H913 C921 0.930 . S
H914 C922 0.930 . S
H915 C923 0.930 . S
H916 C926 0.930 . S
H917 C927 0.929 1_556 S
C918 H912 0.930 . S
C918 C919 1.355 . S
C918 C920 1.415 . S
C919 C918 1.355 . S
C919 C921 1.419 . S
C920 C918 1.415 . S
C920 C925 1.425 . S
C920 C927 1.409 . S
C921 H913 0.930 . S
C921 C919 1.419 . S
C921 C922 1.362 . S
C922 H914 0.930 . S
C922 C921 1.362 . S
C922 C925 1.409 . S
C923 H915 0.930 . S
C923 C924 1.355 1_554 S
C923 C925 1.415 . S
C924 C923 1.355 1_556 S
C924 C926 1.419 . S
C925 C920 1.425 . S
C925 C922 1.409 . S
C925 C923 1.415 . S
C926 H916 0.930 . S
C926 C924 1.419 . S
C926 C927 1.362 1_556 S
C927 H917 0.929 1_554 S
C927 C920 1.409 . S
C927 C926 1.362 1_554 S
H928 C934 0.930 . S
H929 C937 0.930 . S
H930 C938 0.930 . S
H931 C939 0.930 . S
H932 C942 0.930 . S
H933 C943 0.930 . S
C934 H928 0.930 . S
C934 C935 1.355 . S
C934 C936 1.415 . S
C935 C934 1.355 . S
C935 C937 1.419 . S
C936 C934 1.415 . S
C936 C941 1.425 . S
C936 C943 1.409 . S
C937 H929 0.930 . S
C937 C935 1.419 . S
C937 C938 1.362 . S
C938 H930 0.930 . S
C938 C937 1.362 . S
C938 C941 1.409 . S
C939 H931 0.930 . S
C939 C940 1.355 . S
C939 C941 1.415 . S
C940 C939 1.355 . S
C940 C942 1.419 . S
C941 C936 1.425 . S
C941 C938 1.409 . S
C941 C939 1.415 . S
C942 H932 0.930 . S
C942 C940 1.419 . S
C942 C943 1.362 . S
C943 H933 0.930 . S
C943 C936 1.409 . S
C943 C942 1.362 . S
H944 C950 0.909 1_455 S
H945 C953 0.930 . S
H946 C954 0.930 . S
H947 C955 0.930 1_655 S
H948 C958 0.930 . S
H949 C959 0.930 . S
C950 H944 0.909 1_655 S
C950 C951 1.394 . S
C950 C952 1.398 1_655 S
C951 C950 1.394 . S
C951 C953 1.419 . S
C952 C950 1.398 1_455 S
C952 C957 1.425 1_455 S
C952 C959 1.409 . S
C953 H945 0.930 . S
C953 C951 1.419 . S
C953 C954 1.362 . S
C954 H946 0.930 . S
C954 C953 1.362 . S
C954 C957 1.409 . S
C955 H947 0.930 1_455 S
C955 C956 1.355 . S
C955 C957 1.415 1_455 S
C956 C955 1.355 . S
C956 C958 1.419 . S
C957 C952 1.425 1_655 S
C957 C954 1.409 . S
C957 C955 1.415 1_655 S
C958 H948 0.930 . S
C958 C956 1.419 . S
C958 C959 1.362 . S
C959 H949 0.930 . S
C959 C952 1.409 . S
C959 C958 1.362 . S
H960 C966 0.930 . S
H961 C969 0.930 . S
H962 C970 0.930 . S
H963 C971 0.930 . S
H964 C974 0.930 . S
H965 C975 0.930 . S
C966 H960 0.930 . S
C966 C967 1.355 . S
C966 C968 1.415 . S
C967 C966 1.355 . S
C967 C969 1.419 . S
C968 C966 1.415 . S
C968 C973 1.425 . S
C968 C975 1.409 . S
C969 H961 0.930 . S
C969 C967 1.419 . S
C969 C970 1.362 . S
C970 H962 0.930 . S
C970 C969 1.362 . S
C970 C973 1.409 . S
C971 H963 0.930 . S
C971 C972 1.355 . S
C971 C973 1.415 . S
C972 C971 1.355 . S
C972 C974 1.419 . S
C973 C968 1.425 . S
C973 C970 1.409 . S
C973 C971 1.415 . S
C974 H964 0.930 . S
C974 C972 1.419 . S
C974 C975 1.362 . S
C975 H965 0.930 . S
C975 C968 1.409 . S
C975 C974 1.362 . S
H976 C982 0.930 . S
H977 C985 0.930 . S
H978 C986 0.930 . S
H979 C987 0.930 . S
H980 C990 0.930 . S
H981 C991 0.930 . S
C982 H976 0.930 . S
C982 C983 1.355 . S
C982 C984 1.415 . S
C983 C982 1.355 . S
C983 C985 1.419 . S
C984 C982 1.415 . S
C984 C989 1.425 . S
C984 C991 1.409 . S
C985 H977 0.930 . S
C985 C983 1.419 . S
C985 C986 1.362 . S
C986 H978 0.930 . S
C986 C985 1.362 . S
C986 C989 1.409 . S
C987 H979 0.930 . S
C987 C988 1.355 . S
C987 C989 1.415 . S
C988 C987 1.355 . S
C988 C990 1.419 . S
C989 C984 1.425 . S
C989 C986 1.409 . S
C989 C987 1.415 . S
C990 H980 0.930 . S
C990 C988 1.419 . S
C990 C991 1.362 . S
C991 H981 0.930 . S
C991 C984 1.409 . S
C991 C990 1.362 . S
H992 C998 0.930 . S
H993 C1001 0.930 . S
H994 C1002 0.930 . S
H995 C1003 0.930 . S
H996 C1006 0.930 . S
H997 C1007 0.930 . S
C998 H992 0.930 . S
C998 C999 1.355 . S
C998 C1000 1.415 . S
C999 C998 1.355 . S
C999 C1001 1.419 . S
C1000 C998 1.415 . S
C1000 C1005 1.425 . S
C1000 C1007 1.409 . S
C1001 H993 0.930 . S
C1001 C999 1.419 . S
C1001 C1002 1.362 . S
C1002 H994 0.930 . S
C1002 C1001 1.362 . S
C1002 C1005 1.409 . S
C1003 H995 0.930 . S
C1003 C1004 1.355 . S
C1003 C1005 1.415 . S
C1004 C1003 1.355 . S
C1004 C1006 1.419 . S
C1005 C1000 1.425 . S
C1005 C1002 1.409 . S
C1005 C1003 1.415 . S
C1006 H996 0.930 . S
C1006 C1004 1.419 . S
C1006 C1007 1.362 . S
C1007 H997 0.930 . S
C1007 C1000 1.409 . S
C1007 C1006 1.362 . S
H1008 C1014 0.903 1_655 S
H1009 C1017 0.930 . S
H1010 C1018 0.930 . S
H1011 C1019 0.930 . S
H1012 C1022 0.930 1_556 S
H1013 C1023 0.930 . S
C1014 H1008 0.903 1_455 S
C1014 C1015 1.396 . S
C1014 C1016 1.402 1_455 S
C1015 C1014 1.396 . S
C1015 C1017 1.419 . S
C1016 C1014 1.402 1_655 S
C1016 C1021 1.425 1_655 S
C1016 C1023 1.409 . S
C1017 H1009 0.930 . S
C1017 C1015 1.419 . S
C1017 C1018 1.362 . S
C1018 H1010 0.930 . S
C1018 C1017 1.362 . S
C1018 C1021 1.409 . S
C1019 H1011 0.930 . S
C1019 C1020 1.355 1_455 S
C1019 C1021 1.415 1_556 S
C1020 C1019 1.355 1_655 S
C1020 C1022 1.419 1_556 S
C1021 C1016 1.425 1_455 S
C1021 C1018 1.409 . S
C1021 C1019 1.415 1_554 S
C1022 H1012 0.930 1_554 S
C1022 C1020 1.419 1_554 S
C1022 C1023 1.362 . S
C1023 H1013 0.930 . S
C1023 C1016 1.409 . S
C1023 C1022 1.362 . S
H1024 C1030 0.930 . S
H1025 C1033 0.930 . S
H1026 C1034 0.930 . S
H1027 C1035 0.930 . S
H1028 C1038 0.930 . S
H1029 C1039 0.930 . S
C1030 H1024 0.930 . S
C1030 C1031 1.355 . S
C1030 C1032 1.415 . S
C1031 C1030 1.355 . S
C1031 C1033 1.419 . S
C1032 C1030 1.415 . S
C1032 C1037 1.425 . S
C1032 C1039 1.409 . S
C1033 H1025 0.930 . S
C1033 C1031 1.419 . S
C1033 C1034 1.362 . S
C1034 H1026 0.930 . S
C1034 C1033 1.362 . S
C1034 C1037 1.409 . S
C1035 H1027 0.930 . S
C1035 C1036 1.355 . S
C1035 C1037 1.415 . S
C1036 C1035 1.355 . S
C1036 C1038 1.419 . S
C1037 C1032 1.425 . S
C1037 C1034 1.409 . S
C1037 C1035 1.415 . S
C1038 H1028 0.930 . S
C1038 C1036 1.419 . S
C1038 C1039 1.362 . S
C1039 H1029 0.930 . S
C1039 C1032 1.409 . S
C1039 C1038 1.362 . S
H1040 C1046 0.930 1_455 S
H1041 C1049 0.930 . S
H1042 C1050 0.930 . S
H1043 C1051 0.930 1_655 S
H1044 C1054 0.930 . S
H1045 C1055 0.930 . S
C1046 H1040 0.930 1_655 S
C1046 C1047 1.355 . S
C1046 C1048 1.415 1_655 S
C1047 C1046 1.355 . S
C1047 C1049 1.419 . S
C1048 C1046 1.415 1_455 S
C1048 C1053 1.425 1_455 S
C1048 C1055 1.409 . S
C1049 H1041 0.930 . S
C1049 C1047 1.419 . S
C1049 C1050 1.362 . S
C1050 H1042 0.930 . S
C1050 C1049 1.362 . S
C1050 C1053 1.409 . S
C1051 H1043 0.930 1_455 S
C1051 C1052 1.355 . S
C1051 C1053 1.415 1_455 S
C1052 C1051 1.355 . S
C1052 C1054 1.419 . S
C1053 C1048 1.425 1_655 S
C1053 C1050 1.409 . S
C1053 C1051 1.415 1_655 S
C1054 H1044 0.930 . S
C1054 C1052 1.419 . S
C1054 C1055 1.362 . S
C1055 H1045 0.930 . S
C1055 C1048 1.409 . S
C1055 C1054 1.362 . S
H1056 C1062 0.930 . S
H1057 C1065 0.930 . S
H1058 C1066 0.930 . S
H1059 C1067 0.930 . S
H1060 C1070 0.930 . S
H1061 C1071 0.930 . S
C1062 H1056 0.930 . S
C1062 C1063 1.355 . S
C1062 C1064 1.415 . S
C1063 C1062 1.355 . S
C1063 C1065 1.419 . S
C1064 C1062 1.415 . S
C1064 C1069 1.425 . S
C1064 C1071 1.409 . S
C1065 H1057 0.930 . S
C1065 C1063 1.419 . S
C1065 C1066 1.362 . S
C1066 H1058 0.930 . S
C1066 C1065 1.362 . S
C1066 C1069 1.409 . S
C1067 H1059 0.930 . S
C1067 C1068 1.355 . S
C1067 C1069 1.415 . S
C1068 C1067 1.355 . S
C1068 C1070 1.419 . S
C1069 C1064 1.425 . S
C1069 C1066 1.409 . S
C1069 C1067 1.415 . S
C1070 H1060 0.930 . S
C1070 C1068 1.419 . S
C1070 C1071 1.362 . S
C1071 H1061 0.930 . S
C1071 C1064 1.409 . S
C1071 C1070 1.362 . S
H1072 C1078 0.930 1_554 S
H1073 C1081 0.930 . S
H1074 C1082 0.930 . S
H1075 C1083 0.930 . S
H1076 C1086 0.930 . S
H1077 C1087 0.930 . S
C1078 H1072 0.930 1_556 S
C1078 C1079 1.355 1_556 S
C1078 C1080 1.415 . S
C1079 C1078 1.355 1_554 S
C1079 C1081 1.419 . S
C1080 C1078 1.415 . S
C1080 C1085 1.425 . S
C1080 C1087 1.409 . S
C1081 H1073 0.930 . S
C1081 C1079 1.419 . S
C1081 C1082 1.362 1_554 S
C1082 H1074 0.930 . S
C1082 C1081 1.362 1_556 S
C1082 C1085 1.409 . S
C1083 H1075 0.930 . S
C1083 C1084 1.355 . S
C1083 C1085 1.415 . S
C1084 C1083 1.355 . S
C1084 C1086 1.419 . S
C1085 C1080 1.425 . S
C1085 C1082 1.409 . S
C1085 C1083 1.415 . S
C1086 H1076 0.930 . S
C1086 C1084 1.419 . S
C1086 C1087 1.362 . S
C1087 H1077 0.930 . S
C1087 C1080 1.409 . S
C1087 C1086 1.362 . S
H1088 C1094 0.930 . S
H1089 C1097 0.930 . S
H1090 C1098 0.930 . S
H1091 C1099 0.930 . S
H1092 C1102 0.930 . S
H1093 C1103 0.930 . S
C1094 H1088 0.930 . S
C1094 C1095 1.355 . S
C1094 C1096 1.415 . S
C1095 C1094 1.355 . S
C1095 C1097 1.419 . S
C1096 C1094 1.415 . S
C1096 C1101 1.425 . S
C1096 C1103 1.409 . S
C1097 H1089 0.930 . S
C1097 C1095 1.419 . S
C1097 C1098 1.362 . S
C1098 H1090 0.930 . S
C1098 C1097 1.362 . S
C1098 C1101 1.409 . S
C1099 H1091 0.930 . S
C1099 C1100 1.355 . S
C1099 C1101 1.415 . S
C1100 C1099 1.355 . S
C1100 C1102 1.419 . S
C1101 C1096 1.425 . S
C1101 C1098 1.409 . S
C1101 C1099 1.415 . S
C1102 H1092 0.930 . S
C1102 C1100 1.419 . S
C1102 C1103 1.362 . S
C1103 H1093 0.930 . S
C1103 C1096 1.409 . S
C1103 C1102 1.362 . S
H1104 C1110 0.930 . S
H1105 C1113 0.930 . S
H1106 C1114 0.930 . S
H1107 C1115 0.930 . S
H1108 C1118 0.930 . S
H1109 C1119 0.930 . S
C1110 H1104 0.930 . S
C1110 C1111 1.355 . S
C1110 C1112 1.415 . S
C1111 C1110 1.355 . S
C1111 C1113 1.419 . S
C1112 C1110 1.415 . S
C1112 C1117 1.425 . S
C1112 C1119 1.409 . S
C1113 H1105 0.930 . S
C1113 C1111 1.419 . S
C1113 C1114 1.362 . S
C1114 H1106 0.930 . S
C1114 C1113 1.362 . S
C1114 C1117 1.409 . S
C1115 H1107 0.930 . S
C1115 C1116 1.355 . S
C1115 C1117 1.415 . S
C1116 C1115 1.355 . S
C1116 C1118 1.419 . S
C1117 C1112 1.425 . S
C1117 C1114 1.409 . S
C1117 C1115 1.415 . S
C1118 H1108 0.930 . S
C1118 C1116 1.419 . S
C1118 C1119 1.362 . S
C1119 H1109 0.930 . S
C1119 C1112 1.409 . S
C1119 C1118 1.362 . S
H1120 C1126 0.930 . S
H1121 C1129 0.930 . S
H1122 C1130 0.930 . S
H1123 C1131 0.930 . S
H1124 C1134 0.930 . S
H1125 C1135 0.930 . S
C1126 H1120 0.930 . S
C1126 C1127 1.355 . S
C1126 C1128 1.415 . S
C1127 C1126 1.355 . S
C1127 C1129 1.419 . S
C1128 C1126 1.415 . S
C1128 C1133 1.425 . S
C1128 C1135 1.409 . S
C1129 H1121 0.930 . S
C1129 C1127 1.419 . S
C1129 C1130 1.362 . S
C1130 H1122 0.930 . S
C1130 C1129 1.362 . S
C1130 C1133 1.409 . S
C1131 H1123 0.930 . S
C1131 C1132 1.355 . S
C1131 C1133 1.415 . S
C1132 C1131 1.355 . S
C1132 C1134 1.419 . S
C1133 C1128 1.425 . S
C1133 C1130 1.409 . S
C1133 C1131 1.415 . S
C1134 H1124 0.930 . S
C1134 C1132 1.419 . S
C1134 C1135 1.362 . S
C1135 H1125 0.930 . S
C1135 C1128 1.409 . S
C1135 C1134 1.362 . S
H1136 C1142 0.930 . S
H1137 C1145 0.930 . S
H1138 C1146 0.930 . S
H1139 C1147 0.930 . S
H1140 C1150 0.930 . S
H1141 C1151 0.930 . S
C1142 H1136 0.930 . S
C1142 C1143 1.355 . S
C1142 C1144 1.415 . S
C1143 C1142 1.355 . S
C1143 C1145 1.419 . S
C1144 C1142 1.415 . S
C1144 C1149 1.427 . S
C1144 C1151 1.409 1_655 S
C1145 H1137 0.930 . S
C1145 C1143 1.419 . S
C1145 C1146 1.362 . S
C1146 H1138 0.930 . S
C1146 C1145 1.362 . S
C1146 C1149 1.418 . S
C1147 H1139 0.930 . S
C1147 C1148 1.355 . S
C1147 C1149 1.404 1_454 S
C1148 C1147 1.355 . S
C1148 C1150 1.419 . S
C1149 C1144 1.427 . S
C1149 C1146 1.418 . S
C1149 C1147 1.404 1_656 S
C1150 H1140 0.930 . S
C1150 C1148 1.419 . S
C1150 C1151 1.362 1_554 S
C1151 H1141 0.930 . S
C1151 C1144 1.409 1_455 S
C1151 C1150 1.362 1_556 S
H1152 C1158 0.930 . S
H1153 C1161 0.930 . S
H1154 C1162 0.930 . S
H1155 C1163 0.930 . S
H1156 C1166 0.930 . S
H1157 C1167 0.930 . S
C1158 H1152 0.930 . S
C1158 C1159 1.355 . S
C1158 C1160 1.415 . S
C1159 C1158 1.355 . S
C1159 C1161 1.419 . S
C1160 C1158 1.415 . S
C1160 C1165 1.425 . S
C1160 C1167 1.409 . S
C1161 H1153 0.930 . S
C1161 C1159 1.419 . S
C1161 C1162 1.362 . S
C1162 H1154 0.930 . S
C1162 C1161 1.362 . S
C1162 C1165 1.409 . S
C1163 H1155 0.930 . S
C1163 C1164 1.355 . S
C1163 C1165 1.415 . S
C1164 C1163 1.355 . S
C1164 C1166 1.419 . S
C1165 C1160 1.425 . S
C1165 C1162 1.409 . S
C1165 C1163 1.415 . S
C1166 H1156 0.930 . S
C1166 C1164 1.419 . S
C1166 C1167 1.362 . S
C1167 H1157 0.930 . S
C1167 C1160 1.409 . S
C1167 C1166 1.362 . S
H1168 C1174 0.930 . S
H1169 C1177 0.930 . S
H1170 C1178 0.930 . S
H1171 C1179 0.930 . S
H1172 C1182 0.931 . S
H1173 C1183 0.930 . S
C1174 H1168 0.930 . S
C1174 C1175 1.355 . S
C1174 C1176 1.415 . S
C1175 C1174 1.355 . S
C1175 C1177 1.419 . S
C1176 C1174 1.415 . S
C1176 C1181 1.425 1_655 S
C1176 C1183 1.409 . S
C1177 H1169 0.930 . S
C1177 C1175 1.419 . S
C1177 C1178 1.362 1_655 S
C1178 H1170 0.930 . S
C1178 C1177 1.362 1_455 S
C1178 C1181 1.409 . S
C1179 H1171 0.930 . S
C1179 C1180 1.355 . S
C1179 C1181 1.415 . S
C1180 C1179 1.355 . S
C1180 C1182 1.419 . S
C1181 C1176 1.425 1_455 S
C1181 C1178 1.409 . S
C1181 C1179 1.415 . S
C1182 H1172 0.931 . S
C1182 C1180 1.419 . S
C1182 C1183 1.362 1_455 S
C1183 H1173 0.930 . S
C1183 C1176 1.409 . S
C1183 C1182 1.362 1_655 S
H1184 C1190 0.930 . S
H1185 C1193 0.930 . S
H1186 C1194 0.930 . S
H1187 C1195 0.930 . S
H1188 C1198 0.930 . S
H1189 C1199 0.930 . S
C1190 H1184 0.930 . S
C1190 C1191 1.355 . S
C1190 C1192 1.415 . S
C1191 C1190 1.355 . S
C1191 C1193 1.419 . S
C1192 C1190 1.415 . S
C1192 C1197 1.425 . S
C1192 C1199 1.409 . S
C1193 H1185 0.930 . S
C1193 C1191 1.419 . S
C1193 C1194 1.362 . S
C1194 H1186 0.930 . S
C1194 C1193 1.362 . S
C1194 C1197 1.409 . S
C1195 H1187 0.930 . S
C1195 C1196 1.355 . S
C1195 C1197 1.415 . S
C1196 C1195 1.355 . S
C1196 C1198 1.419 . S
C1197 C1192 1.425 . S
C1197 C1194 1.409 . S
C1197 C1195 1.415 . S
C1198 H1188 0.930 . S
C1198 C1196 1.419 . S
C1198 C1199 1.362 . S
C1199 H1189 0.930 . S
C1199 C1192 1.409 . S
C1199 C1198 1.362 . S
H1200 C1206 0.930 . S
H1201 C1209 0.930 . S
H1202 C1210 0.930 . S
H1203 C1211 0.930 . S
H1204 C1214 0.930 1_556 S
H1205 C1215 0.930 . S
C1206 H1200 0.930 . S
C1206 C1207 1.355 . S
C1206 C1208 1.415 . S
C1207 C1206 1.355 . S
C1207 C1209 1.419 . S
C1208 C1206 1.415 . S
C1208 C1213 1.425 . S
C1208 C1215 1.409 . S
C1209 H1201 0.930 . S
C1209 C1207 1.419 . S
C1209 C1210 1.362 . S
C1210 H1202 0.930 . S
C1210 C1209 1.362 . S
C1210 C1213 1.409 . S
C1211 H1203 0.930 . S
C1211 C1212 1.355 . S
C1211 C1213 1.415 1_556 S
C1212 C1211 1.355 . S
C1212 C1214 1.419 1_556 S
C1213 C1208 1.425 . S
C1213 C1210 1.409 . S
C1213 C1211 1.415 1_554 S
C1214 H1204 0.930 1_554 S
C1214 C1212 1.419 1_554 S
C1214 C1215 1.362 . S
C1215 H1205 0.930 . S
C1215 C1208 1.409 . S
C1215 C1214 1.362 . S
H1216 C1222 0.930 . S
H1217 C1225 0.930 . S
H1218 C1226 0.930 . S
H1219 C1227 0.930 . S
H1220 C1230 0.930 . S
H1221 C1231 0.930 . S
C1222 H1216 0.930 . S
C1222 C1223 1.355 . S
C1222 C1224 1.415 . S
C1223 C1222 1.355 . S
C1223 C1225 1.419 . S
C1224 C1222 1.415 . S
C1224 C1229 1.425 . S
C1224 C1231 1.409 . S
C1225 H1217 0.930 . S
C1225 C1223 1.419 . S
C1225 C1226 1.362 . S
C1226 H1218 0.930 . S
C1226 C1225 1.362 . S
C1226 C1229 1.409 . S
C1227 H1219 0.930 . S
C1227 C1228 1.355 . S
C1227 C1229 1.415 . S
C1228 C1227 1.355 . S
C1228 C1230 1.419 . S
C1229 C1224 1.425 . S
C1229 C1226 1.409 . S
C1229 C1227 1.415 . S
C1230 H1220 0.930 . S
C1230 C1228 1.419 . S
C1230 C1231 1.362 . S
C1231 H1221 0.930 . S
C1231 C1224 1.409 . S
C1231 C1230 1.362 . S
H1232 C1238 0.930 . S
H1233 C1241 0.930 . S
H1234 C1242 0.930 . S
H1235 C1243 0.930 . S
H1236 C1246 0.930 . S
H1237 C1247 0.930 . S
C1238 H1232 0.930 . S
C1238 C1239 1.355 . S
C1238 C1240 1.415 . S
C1239 C1238 1.355 . S
C1239 C1241 1.419 . S
C1240 C1238 1.415 . S
C1240 C1245 1.425 . S
C1240 C1247 1.409 . S
C1241 H1233 0.930 . S
C1241 C1239 1.419 . S
C1241 C1242 1.362 . S
C1242 H1234 0.930 . S
C1242 C1241 1.362 . S
C1242 C1245 1.409 . S
C1243 H1235 0.930 . S
C1243 C1244 1.355 . S
C1243 C1245 1.415 . S
C1244 C1243 1.355 . S
C1244 C1246 1.419 . S
C1245 C1240 1.425 . S
C1245 C1242 1.409 . S
C1245 C1243 1.415 . S
C1246 H1236 0.930 . S
C1246 C1244 1.419 . S
C1246 C1247 1.362 . S
C1247 H1237 0.930 . S
C1247 C1240 1.409 . S
C1247 C1246 1.362 . S
H1248 C1254 0.930 . S
H1249 C1257 0.930 . S
H1250 C1258 0.930 . S
H1251 C1259 0.930 . S
H1252 C1262 0.930 . S
H1253 C1263 0.930 . S
C1254 H1248 0.930 . S
C1254 C1255 1.355 . S
C1254 C1256 1.415 . S
C1255 C1254 1.355 . S
C1255 C1257 1.419 . S
C1256 C1254 1.415 . S
C1256 C1261 1.425 . S
C1256 C1263 1.409 . S
C1257 H1249 0.930 . S
C1257 C1255 1.419 . S
C1257 C1258 1.362 . S
C1258 H1250 0.930 . S
C1258 C1257 1.362 . S
C1258 C1261 1.409 . S
C1259 H1251 0.930 . S
C1259 C1260 1.355 . S
C1259 C1261 1.415 . S
C1260 C1259 1.355 . S
C1260 C1262 1.419 . S
C1261 C1256 1.425 . S
C1261 C1258 1.409 . S
C1261 C1259 1.415 . S
C1262 H1252 0.930 . S
C1262 C1260 1.419 . S
C1262 C1263 1.362 . S
C1263 H1253 0.930 . S
C1263 C1256 1.409 . S
C1263 C1262 1.362 . S
H1264 C1270 0.930 . S
H1265 C1273 0.930 . S
H1266 C1274 0.930 . S
H1267 C1275 0.930 . S
H1268 C1278 0.930 . S
H1269 C1279 0.930 . S
C1270 H1264 0.930 . S
C1270 C1271 1.355 . S
C1270 C1272 1.415 . S
C1271 C1270 1.355 . S
C1271 C1273 1.419 . S
C1272 C1270 1.415 . S
C1272 C1277 1.425 . S
C1272 C1279 1.409 . S
C1273 H1265 0.930 . S
C1273 C1271 1.419 . S
C1273 C1274 1.362 . S
C1274 H1266 0.930 . S
C1274 C1273 1.362 . S
C1274 C1277 1.409 . S
C1275 H1267 0.930 . S
C1275 C1276 1.355 . S
C1275 C1277 1.415 . S
C1276 C1275 1.355 . S
C1276 C1278 1.419 . S
C1277 C1272 1.425 . S
C1277 C1274 1.409 . S
C1277 C1275 1.415 . S
C1278 H1268 0.930 . S
C1278 C1276 1.419 . S
C1278 C1279 1.362 . S
C1279 H1269 0.930 . S
C1279 C1272 1.409 . S
C1279 C1278 1.362 . S
H1280 C1286 0.930 . S
H1281 C1289 0.930 . S
H1282 C1290 0.930 . S
H1283 C1291 0.930 . S
H1284 C1294 0.930 . S
H1285 C1295 0.930 . S
C1286 H1280 0.930 . S
C1286 C1287 1.355 . S
C1286 C1288 1.415 . S
C1287 C1286 1.355 . S
C1287 C1289 1.419 . S
C1288 C1286 1.415 . S
C1288 C1293 1.425 . S
C1288 C1295 1.409 . S
C1289 H1281 0.930 . S
C1289 C1287 1.419 . S
C1289 C1290 1.362 . S
C1290 H1282 0.930 . S
C1290 C1289 1.362 . S
C1290 C1293 1.409 . S
C1291 H1283 0.930 . S
C1291 C1292 1.355 . S
C1291 C1293 1.415 . S
C1292 C1291 1.355 . S
C1292 C1294 1.419 . S
C1293 C1288 1.425 . S
C1293 C1290 1.409 . S
C1293 C1291 1.415 . S
C1294 H1284 0.930 . S
C1294 C1292 1.419 . S
C1294 C1295 1.362 . S
C1295 H1285 0.930 . S
C1295 C1288 1.409 . S
C1295 C1294 1.362 . S
H1296 C1302 0.930 . S
H1297 C1305 0.930 . S
H1298 C1306 0.930 . S
H1299 C1307 0.930 . S
H1300 C1310 0.930 . S
H1301 C1311 0.930 . S
C1302 H1296 0.930 . S
C1302 C1303 1.355 . S
C1302 C1304 1.415 . S
C1303 C1302 1.355 . S
C1303 C1305 1.419 . S
C1304 C1302 1.415 . S
C1304 C1309 1.425 . S
C1304 C1311 1.409 . S
C1305 H1297 0.930 . S
C1305 C1303 1.419 . S
C1305 C1306 1.362 . S
C1306 H1298 0.930 . S
C1306 C1305 1.362 . S
C1306 C1309 1.409 . S
C1307 H1299 0.930 . S
C1307 C1308 1.355 . S
C1307 C1309 1.415 . S
C1308 C1307 1.355 . S
C1308 C1310 1.419 . S
C1309 C1304 1.425 . S
C1309 C1306 1.409 . S
C1309 C1307 1.415 . S
C1310 H1300 0.930 . S
C1310 C1308 1.419 . S
C1310 C1311 1.362 . S
C1311 H1301 0.930 . S
C1311 C1304 1.409 . S
C1311 C1310 1.362 . S
H1312 C1318 0.930 . S
H1313 C1321 0.930 . S
H1314 C1322 0.930 . S
H1315 C1323 0.930 . S
H1316 C1326 0.930 . S
H1317 C1327 0.930 . S
C1318 H1312 0.930 . S
C1318 C1319 1.355 . S
C1318 C1320 1.415 . S
C1319 C1318 1.355 . S
C1319 C1321 1.419 . S
C1320 C1318 1.415 . S
C1320 C1325 1.425 . S
C1320 C1327 1.409 . S
C1321 H1313 0.930 . S
C1321 C1319 1.419 . S
C1321 C1322 1.362 . S
C1322 H1314 0.930 . S
C1322 C1321 1.362 . S
C1322 C1325 1.409 . S
C1323 H1315 0.930 . S
C1323 C1324 1.355 . S
C1323 C1325 1.415 . S
C1324 C1323 1.355 . S
C1324 C1326 1.419 . S
C1325 C1320 1.425 . S
C1325 C1322 1.409 . S
C1325 C1323 1.415 . S
C1326 H1316 0.930 . S
C1326 C1324 1.419 . S
C1326 C1327 1.362 . S
C1327 H1317 0.930 . S
C1327 C1320 1.409 . S
C1327 C1326 1.362 . S
H1328 C1334 0.930 . S
H1329 C1337 0.930 . S
H1330 C1338 0.930 . S
H1331 C1339 0.930 . S
H1332 C1342 0.930 . S
H1333 C1343 0.930 . S
C1334 H1328 0.930 . S
C1334 C1335 1.355 . S
C1334 C1336 1.415 . S
C1335 C1334 1.355 . S
C1335 C1337 1.419 . S
C1336 C1334 1.415 . S
C1336 C1341 1.425 . S
C1336 C1343 1.409 . S
C1337 H1329 0.930 . S
C1337 C1335 1.419 . S
C1337 C1338 1.362 . S
C1338 H1330 0.930 . S
C1338 C1337 1.362 . S
C1338 C1341 1.409 . S
C1339 H1331 0.930 . S
C1339 C1340 1.355 . S
C1339 C1341 1.415 . S
C1340 C1339 1.355 . S
C1340 C1342 1.419 . S
C1341 C1336 1.425 . S
C1341 C1338 1.409 . S
C1341 C1339 1.415 . S
C1342 H1332 0.930 . S
C1342 C1340 1.419 . S
C1342 C1343 1.362 . S
C1343 H1333 0.930 . S
C1343 C1336 1.409 . S
C1343 C1342 1.362 . S
H1344 C1350 0.930 . S
H1345 C1353 0.930 . S
H1346 C1354 0.930 . S
H1347 C1355 0.930 . S
H1348 C1358 0.930 . S
H1349 C1359 0.930 . S
C1350 H1344 0.930 . S
C1350 C1351 1.355 . S
C1350 C1352 1.415 . S
C1351 C1350 1.355 . S
C1351 C1353 1.419 . S
C1352 C1350 1.415 . S
C1352 C1357 1.425 . S
C1352 C1359 1.409 . S
C1353 H1345 0.930 . S
C1353 C1351 1.419 . S
C1353 C1354 1.362 . S
C1354 H1346 0.930 . S
C1354 C1353 1.362 . S
C1354 C1357 1.409 . S
C1355 H1347 0.930 . S
C1355 C1356 1.355 . S
C1355 C1357 1.415 . S
C1356 C1355 1.355 . S
C1356 C1358 1.419 . S
C1357 C1352 1.425 . S
C1357 C1354 1.409 . S
C1357 C1355 1.415 . S
C1358 H1348 0.930 . S
C1358 C1356 1.419 . S
C1358 C1359 1.362 . S
C1359 H1349 0.930 . S
C1359 C1352 1.409 . S
C1359 C1358 1.362 . S
H1360 C1366 0.930 . S
H1361 C1369 0.930 . S
H1362 C1370 0.930 . S
H1363 C1371 0.930 . S
H1364 C1374 0.930 . S
H1365 C1375 0.930 . S
C1366 H1360 0.930 . S
C1366 C1367 1.355 . S
C1366 C1368 1.415 . S
C1367 C1366 1.355 . S
C1367 C1369 1.419 . S
C1368 C1366 1.415 . S
C1368 C1373 1.425 . S
C1368 C1375 1.409 . S
C1369 H1361 0.930 . S
C1369 C1367 1.419 . S
C1369 C1370 1.362 . S
C1370 H1362 0.930 . S
C1370 C1369 1.362 . S
C1370 C1373 1.409 . S
C1371 H1363 0.930 . S
C1371 C1372 1.355 . S
C1371 C1373 1.415 . S
C1372 C1371 1.355 . S
C1372 C1374 1.419 . S
C1373 C1368 1.425 . S
C1373 C1370 1.409 . S
C1373 C1371 1.415 . S
C1374 H1364 0.930 . S
C1374 C1372 1.419 . S
C1374 C1375 1.362 . S
C1375 H1365 0.930 . S
C1375 C1368 1.409 . S
C1375 C1374 1.362 . S
H1376 C1382 0.930 . S
H1377 C1385 0.930 . S
H1378 C1386 0.930 . S
H1379 C1387 0.930 . S
H1380 C1390 0.930 . S
H1381 C1391 0.930 . S
C1382 H1376 0.930 . S
C1382 C1383 1.355 . S
C1382 C1384 1.415 . S
C1383 C1382 1.355 . S
C1383 C1385 1.419 . S
C1384 C1382 1.415 . S
C1384 C1389 1.425 . S
C1384 C1391 1.409 . S
C1385 H1377 0.930 . S
C1385 C1383 1.419 . S
C1385 C1386 1.362 . S
C1386 H1378 0.930 . S
C1386 C1385 1.362 . S
C1386 C1389 1.409 . S
C1387 H1379 0.930 . S
C1387 C1388 1.355 . S
C1387 C1389 1.415 . S
C1388 C1387 1.355 . S
C1388 C1390 1.419 . S
C1389 C1384 1.425 . S
C1389 C1386 1.409 . S
C1389 C1387 1.415 . S
C1390 H1380 0.930 . S
C1390 C1388 1.419 . S
C1390 C1391 1.362 . S
C1391 H1381 0.930 . S
C1391 C1384 1.409 . S
C1391 C1390 1.362 . S
H1392 C1398 0.930 . S
H1393 C1401 0.930 . S
H1394 C1402 0.930 . S
H1395 C1403 0.930 . S
H1396 C1406 0.930 . S
H1397 C1407 0.930 . S
C1398 H1392 0.930 . S
C1398 C1399 1.355 . S
C1398 C1400 1.415 . S
C1399 C1398 1.355 . S
C1399 C1401 1.419 . S
C1400 C1398 1.415 . S
C1400 C1405 1.425 . S
C1400 C1407 1.409 . S
C1401 H1393 0.930 . S
C1401 C1399 1.419 . S
C1401 C1402 1.362 . S
C1402 H1394 0.930 . S
C1402 C1401 1.362 . S
C1402 C1405 1.409 . S
C1403 H1395 0.930 . S
C1403 C1404 1.355 . S
C1403 C1405 1.415 . S
C1404 C1403 1.355 . S
C1404 C1406 1.419 . S
C1405 C1400 1.425 . S
C1405 C1402 1.409 . S
C1405 C1403 1.415 . S
C1406 H1396 0.930 . S
C1406 C1404 1.419 . S
C1406 C1407 1.362 . S
C1407 H1397 0.930 . S
C1407 C1400 1.409 . S
C1407 C1406 1.362 . S
H1408 C1414 0.930 . S
H1409 C1417 0.930 . S
H1410 C1418 0.930 . S
H1411 C1419 0.930 . S
H1412 C1422 0.930 . S
H1413 C1423 0.930 . S
C1414 H1408 0.930 . S
C1414 C1415 1.355 . S
C1414 C1416 1.415 . S
C1415 C1414 1.355 . S
C1415 C1417 1.419 . S
C1416 C1414 1.415 . S
C1416 C1421 1.425 . S
C1416 C1423 1.409 . S
C1417 H1409 0.930 . S
C1417 C1415 1.419 . S
C1417 C1418 1.362 . S
C1418 H1410 0.930 . S
C1418 C1417 1.362 . S
C1418 C1421 1.409 . S
C1419 H1411 0.930 . S
C1419 C1420 1.355 . S
C1419 C1421 1.415 . S
C1420 C1419 1.355 . S
C1420 C1422 1.419 . S
C1421 C1416 1.425 . S
C1421 C1418 1.409 . S
C1421 C1419 1.415 . S
C1422 H1412 0.930 . S
C1422 C1420 1.419 . S
C1422 C1423 1.362 . S
C1423 H1413 0.930 . S
C1423 C1416 1.409 . S
C1423 C1422 1.362 . S
H1424 C1430 0.930 . S
H1425 C1433 0.930 . S
H1426 C1434 0.930 . S
H1427 C1435 0.930 . S
H1428 C1438 0.930 . S
H1429 C1439 0.930 . S
C1430 H1424 0.930 . S
C1430 C1431 1.355 . S
C1430 C1432 1.415 . S
C1431 C1430 1.355 . S
C1431 C1433 1.419 . S
C1432 C1430 1.415 . S
C1432 C1437 1.425 . S
C1432 C1439 1.409 . S
C1433 H1425 0.930 . S
C1433 C1431 1.419 . S
C1433 C1434 1.362 . S
C1434 H1426 0.930 . S
C1434 C1433 1.362 . S
C1434 C1437 1.409 . S
C1435 H1427 0.930 . S
C1435 C1436 1.355 . S
C1435 C1437 1.415 . S
C1436 C1435 1.355 . S
C1436 C1438 1.419 . S
C1437 C1432 1.425 . S
C1437 C1434 1.409 . S
C1437 C1435 1.415 . S
C1438 H1428 0.930 . S
C1438 C1436 1.419 . S
C1438 C1439 1.362 . S
C1439 H1429 0.930 . S
C1439 C1432 1.409 . S
C1439 C1438 1.362 . S
H1440 C1446 0.930 . S
H1441 C1449 0.930 . S
H1442 C1450 0.930 . S
H1443 C1451 0.930 . S
H1444 C1454 0.930 . S
H1445 C1455 0.930 . S
C1446 H1440 0.930 . S
C1446 C1447 1.355 . S
C1446 C1448 1.415 . S
C1447 C1446 1.355 . S
C1447 C1449 1.419 . S
C1448 C1446 1.415 . S
C1448 C1453 1.425 . S
C1448 C1455 1.409 . S
C1449 H1441 0.930 . S
C1449 C1447 1.419 . S
C1449 C1450 1.362 . S
C1450 H1442 0.930 . S
C1450 C1449 1.362 . S
C1450 C1453 1.409 . S
C1451 H1443 0.930 . S
C1451 C1452 1.355 . S
C1451 C1453 1.415 . S
C1452 C1451 1.355 . S
C1452 C1454 1.419 . S
C1453 C1448 1.425 . S
C1453 C1450 1.409 . S
C1453 C1451 1.415 . S
C1454 H1444 0.930 . S
C1454 C1452 1.419 . S
C1454 C1455 1.362 . S
C1455 H1445 0.930 . S
C1455 C1448 1.409 . S
C1455 C1454 1.362 . S
H1456 C1462 0.930 . S
H1457 C1465 0.930 . S
H1458 C1466 0.930 . S
H1459 C1467 0.930 . S
H1460 C1470 0.930 . S
H1461 C1471 0.930 . S
C1462 H1456 0.930 . S
C1462 C1463 1.355 . S
C1462 C1464 1.415 . S
C1463 C1462 1.355 . S
C1463 C1465 1.419 . S
C1464 C1462 1.415 . S
C1464 C1469 1.425 . S
C1464 C1471 1.409 . S
C1465 H1457 0.930 . S
C1465 C1463 1.419 . S
C1465 C1466 1.362 . S
C1466 H1458 0.930 . S
C1466 C1465 1.362 . S
C1466 C1469 1.409 . S
C1467 H1459 0.930 . S
C1467 C1468 1.355 . S
C1467 C1469 1.415 . S
C1468 C1467 1.355 . S
C1468 C1470 1.419 . S
C1469 C1464 1.425 . S
C1469 C1466 1.409 . S
C1469 C1467 1.415 . S
C1470 H1460 0.930 . S
C1470 C1468 1.419 . S
C1470 C1471 1.362 . S
C1471 H1461 0.930 . S
C1471 C1464 1.409 . S
C1471 C1470 1.362 . S
C455 C93 1.455 . S
C460 C9 1.452 . S
C471 C23 1.468 . S
C476 C107 1.444 . S
C487 C65 1.479 . S
C492 C37 1.489 . S
C503 C51 1.474 . S
C508 C79 1.492 . S
C519 C205 1.454 . S
C524 C121 1.497 . S
C535 C219 1.469 . S
C540 C135 1.443 . S
C551 C149 1.488 . S
C556 C177 1.482 . S
C567 C163 1.449 . S
C572 C191 1.459 . S
C583 C233 1.486 . S
C588 C317 1.483 . S
C599 C247 1.496 . S
C604 C331 1.453 . S
C615 C289 1.472 . S
C620 C261 1.494 . S
C631 C303 1.443 . S
C636 C275 1.489 . S
C647 C345 1.445 . S
C652 C429 1.464 . S
C663 C443 1.460 . S
C668 C359 1.497 . S
C679 C401 1.494 . S
C684 C373 1.472 . S
C695 C387 1.489 . S
C700 C415 1.443 . S
C711 C3 1.253 . S
C716 C427 1.296 . S
C727 C217 1.249 . S
C732 C17 1.284 . S
C743 C31 1.244 . S
C748 C399 1.294 . S
C759 C45 1.294 . S
C764 C189 1.260 . S
C775 C371 1.275 . S
C780 C59 1.284 . S
C791 C161 1.249 . S
C796 C73 1.294 . S
C807 C87 1.296 . S
C812 C343 1.252 . S
C823 C133 1.280 . S
C828 C101 1.279 . S
C839 C115 1.296 . S
C844 C315 1.252 . S
C855 C105 1.248 . S
C860 C129 1.291 . S
C871 C143 1.277 . S
C876 C287 1.252 . S
C887 C157 1.289 . S
C892 C77 1.269 . S
C903 C259 1.262 . S
C908 C171 1.294 . S
C919 C185 1.261 . S
C924 C49 1.264 . S
C935 C199 1.244 . S
C940 C231 1.294 . S
C951 C21 1.285 . S
C956 C213 1.273 . S
C967 C227 1.260 . S
C972 C203 1.294 . S
C983 C241 1.243 . S
C988 C441 1.293 . S
C999 C175 1.248 . S
C1004 C255 1.292 . S
C1015 C269 1.266 . S
C1020 C413 1.290 . S
C1031 C147 1.291 . S
C1036 C283 1.243 . S
C1047 C385 1.267 . S
C1052 C297 1.291 . S
C1063 C119 1.248 . S
C1068 C311 1.292 . S
C1079 C357 1.248 . S
C1084 C325 1.288 . S
C1095 C339 1.296 . S
C1100 C91 1.256 . S
C1111 C329 1.291 . S
C1116 C353 1.265 . S
C1127 C63 1.289 . S
C1132 C367 1.243 . S
C1143 C381 1.243 . S
C1148 C301 1.291 . S
C1159 C395 1.280 . S
C1164 C35 1.279 . S
C1175 C409 1.247 . S
C1180 C273 1.280 . S
C1191 C7 1.285 . S
C1196 C423 1.244 . S
C1207 C437 1.271 . S
C1212 C245 1.287 . S
C1223 C8 1.423 . S
C1228 C302 1.421 . S
C1239 C316 1.434 . S
C1244 C22 1.423 . S
C1255 C36 1.439 . S
C1260 C330 1.428 . S
C1271 C288 1.425 . S
C1276 C50 1.420 . S
C1287 C274 1.441 . S
C1292 C64 1.430 . S
C1303 C232 1.431 . S
C1308 C78 1.441 . S
C1319 C246 1.442 . S
C1324 C92 1.432 . S
C1335 C260 1.431 . S
C1340 C106 1.422 . S
C1351 C120 1.423 . S
C1356 C414 1.433 . S
C1367 C428 1.441 . S
C1372 C134 1.431 . S
C1383 C442 1.433 . S
C1388 C148 1.423 . S
C1399 C400 1.431 . S
C1404 C162 1.441 . S
C1415 C386 1.431 . S
C1420 C176 1.441 . S
C1431 C344 1.432 . S
C1436 C190 1.422 . S
C1447 C204 1.443 . S
C1452 C358 1.438 . S
C1463 C218 1.443 . S
C1468 C372 1.434 . S
