# Generated by pormake.
# Topology yfh, (5)-cn, num edge types: 1
# Building blocks:
#     Node 0, Type 0, BuildingBlock: XOMCOT_clean_sbu_1, # of connection points: 5
#     Node 1, Type 0, BuildingBlock: XOMCOT_clean_sbu_1, # of connection points: 5
#     Node 2, Type 0, BuildingBlock: XOMCOT_clean_sbu_1, # of connection points: 5
#     Node 3, Type 0, BuildingBlock: XOMCOT_clean_sbu_1, # of connection points: 5
#     Node 4, Type 0, BuildingBlock: XOMCOT_clean_sbu_1, # of connection points: 5
#     Node 5, Type 0, BuildingBlock: XOMCOT_clean_sbu_1, # of connection points: 5
#     Node 6, Type 0, BuildingBlock: XOMCOT_clean_sbu_1, # of connection points: 5
#     Node 7, Type 0, BuildingBlock: XOMCOT_clean_sbu_1, # of connection points: 5
#     Edge 8, Type (0, 0), BuildingBlock: XIVTED_clean_linker_0, # of connection points: 2
#     Edge 9, Type (0, 0), BuildingBlock: XIVTED_clean_linker_0, # of connection points: 2
#     Edge 10, Type (0, 0), BuildingBlock: XIVTED_clean_linker_0, # of connection points: 2
#     Edge 11, Type (0, 0), BuildingBlock: XIVTED_clean_linker_0, # of connection points: 2
#     Edge 12, Type (0, 0), BuildingBlock: XIVTED_clean_linker_0, # of connection points: 2
#     Edge 13, Type (0, 0), BuildingBlock: XIVTED_clean_linker_0, # of connection points: 2
#     Edge 14, Type (0, 0), BuildingBlock: XIVTED_clean_linker_0, # of connection points: 2
#     Edge 15, Type (0, 0), BuildingBlock: XIVTED_clean_linker_0, # of connection points: 2
#     Edge 16, Type (0, 0), BuildingBlock: XIVTED_clean_linker_0, # of connection points: 2
#     Edge 17, Type (0, 0), BuildingBlock: XIVTED_clean_linker_0, # of connection points: 2
#     Edge 18, Type (0, 0), BuildingBlock: XIVTED_clean_linker_0, # of connection points: 2
#     Edge 19, Type (0, 0), BuildingBlock: XIVTED_clean_linker_0, # of connection points: 2
#     Edge 20, Type (0, 0), BuildingBlock: XIVTED_clean_linker_0, # of connection points: 2
#     Edge 21, Type (0, 0), BuildingBlock: XIVTED_clean_linker_0, # of connection points: 2
#     Edge 22, Type (0, 0), BuildingBlock: XIVTED_clean_linker_0, # of connection points: 2
#     Edge 23, Type (0, 0), BuildingBlock: XIVTED_clean_linker_0, # of connection points: 2
#     Edge 24, Type (0, 0), BuildingBlock: XIVTED_clean_linker_0, # of connection points: 2
#     Edge 25, Type (0, 0), BuildingBlock: XIVTED_clean_linker_0, # of connection points: 2
#     Edge 26, Type (0, 0), BuildingBlock: XIVTED_clean_linker_0, # of connection points: 2
#     Edge 27, Type (0, 0), BuildingBlock: XIVTED_clean_linker_0, # of connection points: 2
# Relax obj value: 0.390
# Max RMSD: 0.272
# Mean RMSD: 0.272
data_MOF--net-yfh--node1-XOMCOT_clean_sbu_1--edge1-XIVTED_clean_linker_0
_symmetry_space_group_name_H-M    P1
_symmetry_Int_Tables_number       1
_symmetry_cell_setting            triclinic
loop_
_symmetry_equiv_pos_as_xyz
'x, y, z'
_cell_length_a     27.902725
_cell_length_b     27.774036
_cell_length_c     59.552963
_cell_angle_alpha  89.964944
_cell_angle_beta   90.021648
_cell_angle_gamma 90.060484
loop_
_atom_site_label
_atom_site_type_symbol
_atom_site_fract_x
_atom_site_fract_y
_atom_site_fract_z
_atom_type_partial_charge
C0 C 0.38917 0.12839 0.07175 0.0
C1 C 0.36884 0.13568 0.05093 0.0
N2 N 0.33007 0.16417 0.05347 0.0
N3 N 0.36356 0.15253 0.08724 0.0
C4 C 0.32738 0.17304 0.07572 0.0
H5 H 0.42161 0.10847 0.07526 0.0
Co6 Co 0.37781 0.15981 0.11745 0.0
C7 C 0.35223 0.26025 0.1284 0.0
O8 O 0.39221 0.26154 0.14001 0.0
N9 N 0.39116 0.16631 0.14873 0.0
C10 C 0.42233 0.17456 0.18304 0.0
C11 C 0.4319 0.17536 0.16041 0.0
C12 C 0.35744 0.1611 0.1649 0.0
N13 N 0.37546 0.1652 0.18582 0.0
O14 O 0.32355 0.11876 0.12408 0.0
H15 H 0.46674 0.18256 0.15341 0.0
H16 H 0.32004 0.15409 0.16147 0.0
O17 O 0.3399 0.22083 0.11866 0.0
C18 C 0.34031 0.0764 0.1273 0.0
O19 O 0.38712 0.07114 0.12785 0.0
N20 N 0.43374 0.19294 0.109 0.0
C21 C 0.51331 0.20783 0.08127 0.0
C22 C 0.47289 0.23795 0.07982 0.0
C23 C 0.43356 0.23006 0.0939 0.0
C24 C 0.47373 0.16539 0.11151 0.0
C25 C 0.51462 0.17387 0.09874 0.0
H26 H 0.40093 0.24942 0.09029 0.0
H27 H 0.47252 0.13364 0.12202 0.0
H28 H 0.29994 0.19474 0.08351 0.0
H29 H 0.38287 0.12274 0.03512 0.0
H30 H 0.44835 0.17863 0.19639 0.0
H31 H 0.4691 0.26406 0.06646 0.0
H32 H 0.54521 0.15058 0.10124 0.0
C33 C 0.42674 0.86333 0.31939 0.0
C34 C 0.41775 0.84198 0.29895 0.0
N35 N 0.37403 0.82128 0.29981 0.0
N36 N 0.38895 0.85608 0.33302 0.0
C37 C 0.35738 0.83065 0.32062 0.0
H38 H 0.45899 0.88242 0.32413 0.0
Co39 Co 0.385 0.87602 0.36258 0.0
C40 C 0.28971 0.84361 0.37916 0.0
O41 O 0.28831 0.88282 0.39145 0.0
N42 N 0.38248 0.89586 0.39288 0.0
C43 C 0.38092 0.93535 0.4254 0.0
C44 C 0.3789 0.93991 0.4024 0.0
C45 C 0.38666 0.8654 0.41049 0.0
N46 N 0.38606 0.8884 0.4304 0.0
O47 O 0.42933 0.82518 0.37047 0.0
H48 H 0.37577 0.97358 0.39352 0.0
H49 H 0.39028 0.82681 0.40872 0.0
O50 O 0.32726 0.83478 0.36736 0.0
C51 C 0.47113 0.84342 0.37306 0.0
O52 O 0.47534 0.89055 0.3726 0.0
N53 N 0.34785 0.92836 0.35298 0.0
C54 C 0.3164 1.00513 0.32648 0.0
C55 C 0.28643 0.96549 0.33064 0.0
C56 C 0.30324 0.9269 0.34348 0.0
C57 C 0.3765 0.9675 0.34988 0.0
C58 C 0.36136 1.00647 0.33701 0.0
H59 H 0.28186 0.89465 0.34375 0.0
H60 H 0.41292 0.96686 0.35611 0.0
H61 H 0.32252 0.81973 0.32661 0.0
H62 H 0.44199 0.84105 0.28479 0.0
H63 H 0.38071 0.96453 0.43744 0.0
H64 H 0.25164 0.96259 0.32268 0.0
H65 H 0.38658 0.0353 0.33377 0.0
C66 C 0.65888 0.91864 0.57334 0.0
C67 C 0.67907 0.91157 0.55252 0.0
N68 N 0.70426 0.87019 0.55312 0.0
N69 N 0.67121 0.88187 0.5869 0.0
C70 C 0.69877 0.85294 0.57414 0.0
H71 H 0.63664 0.94865 0.57834 0.0
Co72 Co 0.65241 0.87577 0.61646 0.0
C73 C 0.6826 0.77819 0.63136 0.0
O74 O 0.64317 0.77655 0.64337 0.0
N75 N 0.63357 0.87125 0.64674 0.0
C76 C 0.5953 0.87051 0.67952 0.0
C77 C 0.58993 0.86902 0.65654 0.0
C78 C 0.6646 0.87373 0.66412 0.0
N79 N 0.64239 0.87385 0.68419 0.0
O80 O 0.70426 0.9186 0.6247 0.0
H81 H 0.55606 0.86783 0.64784 0.0
H82 H 0.70303 0.87635 0.66205 0.0
O83 O 0.69229 0.8165 0.62009 0.0
C84 C 0.6872 0.96076 0.62807 0.0
O85 O 0.64041 0.96609 0.62792 0.0
N86 N 0.59927 0.84041 0.60652 0.0
C87 C 0.52547 0.81598 0.57691 0.0
C88 C 0.56284 0.78351 0.58141 0.0
C89 C 0.60017 0.79697 0.59574 0.0
C90 C 0.56136 0.87064 0.60371 0.0
C91 C 0.52399 0.8591 0.58917 0.0
H92 H 0.63155 0.7745 0.59594 0.0
H93 H 0.56256 0.90624 0.61105 0.0
H94 H 0.71374 0.81933 0.57994 0.0
H95 H 0.67593 0.93534 0.53819 0.0
H96 H 0.56664 0.87179 0.69175 0.0
H97 H 0.56556 0.7497 0.57247 0.0
H98 H 0.49693 0.88614 0.58599 0.0
C99 C 0.59776 0.17148 0.82162 0.0
C100 C 0.60626 0.19195 0.80094 0.0
N101 N 0.64886 0.21479 0.80179 0.0
N102 N 0.63488 0.18126 0.83534 0.0
C103 C 0.66541 0.2077 0.82282 0.0
H104 H 0.56674 0.1504 0.82634 0.0
Co105 Co 0.64008 0.15958 0.8646 0.0
C106 C 0.73723 0.18788 0.88027 0.0
O107 O 0.73839 0.14754 0.89178 0.0
N108 N 0.64385 0.1377 0.89457 0.0
C109 C 0.64557 0.09471 0.92607 0.0
C110 C 0.64544 0.09257 0.90304 0.0
C111 C 0.64283 0.16647 0.9129 0.0
N112 N 0.64385 0.14127 0.93228 0.0
O113 O 0.59803 0.21109 0.87372 0.0
H114 H 0.64571 0.05971 0.89344 0.0
H115 H 0.6413 0.20533 0.91199 0.0
O116 O 0.69931 0.19865 0.86908 0.0
C117 C 0.5561 0.19328 0.87648 0.0
O118 O 0.55121 0.14625 0.87554 0.0
N119 N 0.67473 0.10671 0.85381 0.0
C120 C 0.70197 0.02977 0.82646 0.0
C121 C 0.73375 0.06795 0.83072 0.0
C122 C 0.71899 0.10676 0.84396 0.0
C123 C 0.64415 0.06922 0.85038 0.0
C124 C 0.65715 0.0302 0.83711 0.0
H125 H 0.7417 0.13808 0.84438 0.0
H126 H 0.60795 0.07125 0.85681 0.0
H127 H 0.69986 0.22028 0.82868 0.0
H128 H 0.58287 0.19025 0.78646 0.0
H129 H 0.64503 0.06411 0.93733 0.0
H130 H 0.76847 0.06957 0.82265 0.0
H131 H 0.63051 1.00276 0.83376 0.0
C132 C 0.89491 0.40764 0.66132 0.0
C133 C 0.87481 0.40087 0.68221 0.0
N134 N 0.83583 0.37248 0.67991 0.0
N135 N 0.86895 0.38329 0.646 0.0
C136 C 0.83285 0.36306 0.65771 0.0
H137 H 0.92729 0.42755 0.65761 0.0
Co138 Co 0.88255 0.37628 0.61571 0.0
C139 C 0.85639 0.27616 0.6047 0.0
O140 O 0.89646 0.27475 0.59318 0.0
N141 N 0.89529 0.37006 0.58433 0.0
C142 C 0.92584 0.36098 0.54996 0.0
C143 C 0.93566 0.36011 0.57255 0.0
C144 C 0.86151 0.376 0.56823 0.0
N145 N 0.87917 0.37132 0.54728 0.0
O146 O 0.8284 0.41743 0.60942 0.0
H147 H 0.97037 0.35194 0.57946 0.0
H148 H 0.8243 0.38375 0.57172 0.0
O149 O 0.84426 0.31552 0.6145 0.0
C150 C 0.84526 0.45985 0.60643 0.0
O151 O 0.89207 0.46505 0.60573 0.0
N152 N 0.93847 0.34291 0.62384 0.0
C153 C 0.01873 0.3274 0.65105 0.0
C154 C 0.97807 0.29757 0.65275 0.0
C155 C 0.9384 0.30576 0.63892 0.0
C156 C 0.97863 0.37018 0.62108 0.0
C157 C 0.01986 0.36129 0.63354 0.0
H158 H 0.9057 0.28662 0.64272 0.0
H159 H 0.97741 0.40192 0.61057 0.0
H160 H 0.80515 0.34136 0.65008 0.0
H161 H 0.88903 0.4143 0.69791 0.0
H162 H 0.95155 0.35608 0.53655 0.0
H163 H 0.97439 0.2715 0.66613 0.0
H164 H 0.05061 0.38428 0.6308 0.0
C165 C 0.10022 0.37088 0.91102 0.0
C166 C 0.10848 0.34985 0.93159 0.0
N167 N 0.14984 0.32498 0.93036 0.0
N168 N 0.13627 0.35944 0.89699 0.0
C169 C 0.16591 0.33143 0.90921 0.0
H170 H 0.07008 0.39341 0.90657 0.0
Co171 Co 0.14108 0.38077 0.8677 0.0
C172 C 0.23722 0.35089 0.85145 0.0
O173 O 0.23856 0.39112 0.83986 0.0
N174 N 0.14428 0.4023 0.8377 0.0
C175 C 0.14595 0.44458 0.806 0.0
C176 C 0.14559 0.44726 0.82902 0.0
C177 C 0.14343 0.37311 0.81952 0.0
N178 N 0.1446 0.39785 0.80003 0.0
O179 O 0.09778 0.3299 0.85889 0.0
H180 H 0.14561 0.48033 0.83846 0.0
H181 H 0.14223 0.33425 0.82064 0.0
O182 O 0.19946 0.34064 0.86287 0.0
C183 C 0.05594 0.348 0.85642 0.0
O184 O 0.05148 0.39505 0.85749 0.0
N185 N 0.17741 0.43301 0.87819 0.0
C186 C 0.20903 0.50988 0.9046 0.0
C187 C 0.23887 0.47018 0.90052 0.0
C188 C 0.2219 0.43149 0.8878 0.0
C189 C 0.14853 0.47181 0.88156 0.0
C190 C 0.16377 0.51084 0.89435 0.0
H191 H 0.24316 0.39919 0.88761 0.0
H192 H 0.11202 0.47098 0.87546 0.0
H193 H 0.1994 0.31719 0.90303 0.0
H194 H 0.08574 0.35253 0.94626 0.0
H195 H 0.1455 0.47488 0.79457 0.0
H196 H 0.27377 0.46741 0.90836 0.0
H197 H 0.13853 0.53955 0.89766 0.0
C198 C 0.14168 0.61909 0.15692 0.0
C199 C 0.16194 0.62385 0.17791 0.0
N200 N 0.197 0.65721 0.17668 0.0
N201 N 0.16363 0.64963 0.14266 0.0
C202 C 0.19737 0.67192 0.15509 0.0
H203 H 0.11239 0.5955 0.15237 0.0
Co204 Co 0.14889 0.65876 0.11267 0.0
C205 C 0.17271 0.76009 0.10276 0.0
O206 O 0.13206 0.76134 0.09167 0.0
N207 N 0.13502 0.66705 0.08158 0.0
C208 C 0.1036 0.67585 0.04738 0.0
C209 C 0.09394 0.67485 0.07 0.0
C210 C 0.16899 0.66448 0.06541 0.0
N211 N 0.15087 0.66891 0.04453 0.0
O212 O 0.20355 0.61894 0.10537 0.0
H213 H 0.05875 0.67965 0.07706 0.0
H214 H 0.20662 0.65892 0.06884 0.0
O215 O 0.18603 0.72042 0.11199 0.0
C216 C 0.18743 0.5766 0.10138 0.0
O217 O 0.14074 0.57073 0.10025 0.0
N218 N 0.09271 0.69034 0.12173 0.0
C219 C 1.01304 0.70265 0.14962 0.0
C220 C 0.05301 0.73338 0.15133 0.0
C221 C 0.09245 0.72671 0.13719 0.0
C222 C 0.05324 0.66204 0.11907 0.0
C223 C 1.01227 0.66922 0.13194 0.0
H224 H 0.12477 0.74654 0.14091 0.0
H225 H 0.05496 0.63073 0.10832 0.0
H226 H 0.2209 0.69951 0.1486 0.0
H227 H 0.15149 0.60435 0.19287 0.0
H228 H 0.07743 0.6792 0.03405 0.0
H229 H 0.05636 0.75905 0.16489 0.0
H230 H 0.98209 0.64541 0.12932 0.0
C231 C 0.92991 0.66757 0.40813 0.0
C232 C 0.92169 0.68878 0.42864 0.0
N233 N 0.87793 0.70928 0.42813 0.0
N234 N 0.89154 0.67469 0.39482 0.0
C235 C 0.86047 0.70011 0.40744 0.0
H236 H 0.96174 0.64809 0.40319 0.0
Co237 Co 0.88588 0.65222 0.3658 0.0
C238 C 0.78958 0.6823 0.34964 0.0
O239 O 0.78777 0.64166 0.3384 0.0
N240 N 0.88187 0.62952 0.33604 0.0
C241 C 0.88054 0.58597 0.30474 0.0
C242 C 0.88048 0.58423 0.32779 0.0
C243 C 0.883 0.65796 0.3176 0.0
N244 N 0.88222 0.63245 0.29833 0.0
O245 O 0.9293 0.70259 0.35634 0.0
H246 H 0.8804 0.55159 0.33758 0.0
H247 H 0.88448 0.69684 0.31838 0.0
O248 O 0.82757 0.69264 0.36089 0.0
C249 C 0.97109 0.68461 0.3535 0.0
O250 O 0.97569 0.63756 0.35439 0.0
N251 N 0.84956 0.60056 0.37695 0.0
C252 C 0.81932 0.526 0.40512 0.0
C253 C 0.78903 0.56502 0.4004 0.0
C254 C 0.80523 0.60253 0.38671 0.0
C255 C 0.8787 0.56214 0.38081 0.0
C256 C 0.86413 0.52422 0.3945 0.0
H257 H 0.78361 0.63453 0.38594 0.0
H258 H 0.91502 0.56264 0.37447 0.0
H259 H 0.82519 0.71063 0.40183 0.0
H260 H 0.9462 0.68935 0.44272 0.0
H261 H 0.88132 0.55517 0.29363 0.0
H262 H 0.75443 0.56831 0.40848 0.0
H263 H 0.88961 0.49593 0.3982 0.0
H264 H 0.27442 0.24451 0.05637 0.0
H265 H 0.20929 0.24822 0.92608 0.0
H266 H 0.31889 0.13284 0.0104 0.0
H267 H 0.14419 0.34187 0.97512 0.0
H268 H 0.25144 0.20642 0.95635 0.0
H269 H 0.22761 0.28097 0.02659 0.0
C270 C 0.27402 0.22711 0.04014 0.0
C271 C 0.30077 0.18515 0.03605 0.0
C272 C 0.22771 0.23594 0.96049 0.0
C273 C 0.24757 0.22786 0.00151 0.0
C274 C 0.20389 0.26002 0.94321 0.0
C275 C 0.17329 0.29874 0.94807 0.0
C276 C 0.22121 0.25095 0.98278 0.0
C277 C 0.16705 0.31199 0.97061 0.0
C278 C 0.24735 0.24831 0.02303 0.0
C279 C 0.29937 0.16536 0.01435 0.0
N280 N 0.19103 0.28834 0.9871 0.0
N281 N 0.2734 0.18699 -0.00213 0.0
H282 H 0.28372 0.70138 0.17337 0.0
H283 H 0.30169 0.75612 0.30474 0.0
H284 H 0.17651 0.65683 0.22137 0.0
H285 H 0.39145 0.82421 0.25485 0.0
H286 H 0.26025 0.71286 0.27496 0.0
H287 H 0.3287 0.73931 0.20363 0.0
C288 C 0.26949 0.69957 0.19024 0.0
C289 C 0.22582 0.67626 0.19472 0.0
C290 C 0.28906 0.73725 0.27055 0.0
C291 C 0.27771 0.71923 0.22958 0.0
C292 C 0.31265 0.76231 0.28756 0.0
C293 C 0.35006 0.79438 0.28238 0.0
C294 C 0.30304 0.74398 0.24815 0.0
C295 C 0.3632 0.79972 0.25975 0.0
C296 C 0.29538 0.72112 0.20755 0.0
C297 C 0.21002 0.6741 0.21708 0.0
N298 N 0.33966 0.77487 0.24348 0.0
N299 N 0.23585 0.69552 0.23366 0.0
H300 H 0.80807 0.77684 0.42415 0.0
H301 H 0.77981 0.80916 0.55688 0.0
H302 H 0.8931 0.70001 0.47299 0.0
H303 H 0.69045 0.88148 0.50825 0.0
H304 H 0.8234 0.77085 0.52631 0.0
H305 H 0.76632 0.81752 0.45466 0.0
C306 C 0.81789 0.76833 0.44128 0.0
C307 C 0.85407 0.73469 0.44598 0.0
C308 C 0.7943 0.79515 0.52231 0.0
C309 C 0.80666 0.78165 0.48104 0.0
C310 C 0.76916 0.81686 0.53979 0.0
C311 C 0.73115 0.84845 0.53516 0.0
C312 C 0.78143 0.80503 0.5 0.0
C313 C 0.71972 0.85777 0.51262 0.0
C314 C 0.79417 0.79182 0.4587 0.0
C315 C 0.86583 0.72594 0.46854 0.0
N316 N 0.74466 0.83603 0.49588 0.0
N317 N 0.84209 0.74916 0.48522 0.0
H318 H 0.82552 0.40562 0.72273 0.0
H319 H 0.641 0.19759 0.75712 0.0
H320 H 0.77822 0.29327 0.67768 0.0
H321 H 0.71171 0.28903 0.80544 0.0
H322 H 0.68409 0.23873 0.727 0.0
H323 H 0.77779 0.36904 0.7526 0.0
C324 C 0.80523 0.37338 0.71904 0.0
C325 C 0.80616 0.35268 0.69752 0.0
C326 C 0.69013 0.24986 0.74419 0.0
C327 C 0.7509 0.31096 0.73165 0.0
C328 C 0.66528 0.2266 0.76138 0.0
C329 C 0.67287 0.23978 0.78383 0.0
C330 C 0.72261 0.28685 0.74946 0.0
C331 C 0.70527 0.27727 0.78839 0.0
C332 C 0.77783 0.35261 0.73612 0.0
C333 C 0.77835 0.31118 0.69377 0.0
N334 N 0.72894 0.29952 0.77135 0.0
N335 N 0.75198 0.29176 0.71065 0.0
H336 H 0.60282 0.22568 0.94553 0.0
H337 H 0.56442 0.12876 0.0668 0.0
H338 H 0.67337 0.09845 0.97079 0.0
H339 H 0.5423 0.2795 0.05144 0.0
H340 H 0.60945 0.12022 0.03271 0.0
H341 H 0.58469 0.24948 0.98412 0.0
C342 C 0.61535 0.20317 0.95914 0.0
C343 C 0.63882 0.15938 0.95484 0.0
C344 C 0.59549 0.15545 0.03693 0.0
C345 C 0.6176 0.1862 -0.00101 0.0
C346 C 0.56988 0.16074 0.05677 0.0
C347 C 0.54859 0.20509 0.06237 0.0
C348 C 0.59904 0.19422 0.02198 0.0
C349 C 0.55656 0.24419 0.04774 0.0
C350 C 0.6049 0.21681 0.98119 0.0
C351 C 0.65395 0.13171 0.97323 0.0
N352 N 0.58024 0.23759 0.02799 0.0
N353 N 0.64246 0.1452 -0.00556 0.0
H354 H 0.33724 0.10215 0.32453 0.0
H355 H 0.30031 0.10444 0.19197 0.0
H356 H 0.2719 0.98744 0.28626 0.0
H357 H 0.39649 0.1997 0.22731 0.0
H358 H 0.26926 0.07606 0.22787 0.0
H359 H 0.3384 0.15191 0.29063 0.0
C360 C 0.32227 0.08771 0.30917 0.0
C361 C 0.30548 0.04002 0.30822 0.0
C362 C 0.2966 0.10376 0.22777 0.0
C363 C 0.3064 0.09692 0.26947 0.0
C364 C 0.31419 0.12025 0.20725 0.0
C365 C 0.35167 0.15398 0.20664 0.0
C366 C 0.31665 0.12105 0.24783 0.0
C367 C 0.3684 0.17284 0.22705 0.0
C368 C 0.32289 0.11619 0.28984 0.0
C369 C 0.2853 0.02382 0.28795 0.0
N370 N 0.3512 0.15567 0.24685 0.0
N371 N 0.28706 0.05192 0.26932 0.0
H372 H 0.35341 0.9199 0.47069 0.0
H373 H 0.5484 0.7741 0.53653 0.0
H374 H 0.44067 0.81032 0.43979 0.0
H375 H 0.43175 0.84565 0.57064 0.0
H376 H 0.50486 0.78088 0.50153 0.0
H377 H 0.37761 0.88995 0.5077 0.0
C378 C 0.37727 0.88927 0.47172 0.0
C379 C 0.39543 0.86788 0.45216 0.0
C380 C 0.4883 0.79434 0.51673 0.0
C381 C 0.42328 0.83349 0.4943 0.0
C382 C 0.51303 0.79003 0.53694 0.0
C383 C 0.49426 0.80998 0.55677 0.0
C384 C 0.44487 0.81967 0.5161 0.0
C385 C 0.44843 0.83098 0.55574 0.0
C386 C 0.39077 0.87194 0.49281 0.0
C387 C 0.42566 0.8278 0.4544 0.0
N388 N 0.42577 0.83621 0.53567 0.0
N389 N 0.4392 0.81239 0.47508 0.0
H390 H 0.67554 0.93415 0.82412 0.0
H391 H 0.7224 0.92668 0.69218 0.0
H392 H 0.74803 0.04547 0.78642 0.0
H393 H 0.61085 0.84562 0.72525 0.0
H394 H 0.75166 0.95322 0.7287 0.0
H395 H 0.67183 0.88517 0.79002 0.0
C396 C 0.6915 0.94799 0.80885 0.0
C397 C 0.71108 0.99464 0.80811 0.0
C398 C 0.72126 0.92898 0.72798 0.0
C399 C 0.70753 0.93843 0.76923 0.0
C400 C 0.70466 0.91354 0.70713 0.0
C401 C 0.6637 0.88429 0.70566 0.0
C402 C 0.69684 0.91506 0.74751 0.0
C403 C 0.64194 0.8689 0.72565 0.0
C404 C 0.68941 0.91993 0.78943 0.0
C405 C 0.73251 1.00992 0.78797 0.0
N406 N 0.65849 0.88487 0.74579 0.0
N407 N 0.72951 0.98219 0.76928 0.0
H408 H 0.10457 0.3128 0.78695 0.0
H409 H 0.07133 0.40618 0.66491 0.0
H410 H 0.17572 0.43972 0.76159 0.0
H411 H 0.04726 0.2561 0.68118 0.0
H412 H 0.11592 0.41532 0.69906 0.0
H413 H 0.08854 0.28757 0.74835 0.0
C414 C 0.11766 0.33494 0.77331 0.0
C415 C 0.14065 0.37906 0.77756 0.0
C416 C 0.10164 0.38009 0.69504 0.0
C417 C 0.12191 0.35059 0.7334 0.0
C418 C 0.07626 0.37443 0.67514 0.0
C419 C 0.05437 0.33016 0.66981 0.0
C420 C 0.10432 0.34182 0.71029 0.0
C421 C 0.06185 0.29139 0.68468 0.0
C422 C 0.10844 0.32048 0.75126 0.0
C423 C 0.15661 0.40624 0.75916 0.0
N424 N 0.08522 0.29841 0.70449 0.0
N425 N 0.14631 0.39193 0.73792 0.0
H426 H 0.18791 0.60681 0.90598 0.0
H427 H 0.2286 0.61181 0.03814 0.0
H428 H 0.2553 0.49375 0.94454 0.0
H429 H 0.12821 0.70316 0.00316 0.0
H430 H 0.26004 0.58476 0.00215 0.0
H431 H 0.18757 0.65752 0.93956 0.0
C432 C 0.20352 0.59294 0.92133 0.0
C433 C 0.22054 0.54538 0.9225 0.0
C434 C 0.2317 0.61139 0.00235 0.0
C435 C 0.22068 0.6034 0.96081 0.0
C436 C 0.21388 0.62713 0.02292 0.0
C437 C 0.17505 0.65922 0.02367 0.0
C438 C 0.21054 0.62773 0.98237 0.0
C439 C 0.15734 0.6775 0.00332 0.0
C440 C 0.20339 0.62197 0.94045 0.0
C441 C 0.24163 0.52997 0.94269 0.0
N442 N 0.17477 0.66098 0.98347 0.0
N443 N 0.24035 0.5586 0.96112 0.0
H444 H 0.96374 0.62213 0.16381 0.0
H445 H 0.92148 0.7178 0.285 0.0
H446 H 0.98215 0.77322 0.17945 0.0
H447 H 0.85488 0.58829 0.25976 0.0
H448 H 0.93947 0.7419 0.24648 0.0
H449 H 0.91858 0.61208 0.19782 0.0
C450 C 0.95741 0.65383 0.1739 0.0
C451 C 0.97769 0.69879 0.16842 0.0
C452 C 0.92017 0.70863 0.24939 0.0
C453 C 0.92711 0.68623 0.20866 0.0
C454 C 0.90979 0.69479 0.27141 0.0
C455 C 0.88743 0.65035 0.27573 0.0
C456 C 0.90856 0.67759 0.23161 0.0
C457 C 0.87342 0.62209 0.25733 0.0
C458 C 0.93173 0.64769 0.19368 0.0
C459 C 0.96866 0.73754 0.18307 0.0
N460 N 0.88485 0.63584 0.23613 0.0
N461 N 0.94492 0.73014 0.20275 0.0
H462 H 0.83976 0.42919 0.40817 0.0
H463 H 0.80553 0.43362 0.5409 0.0
H464 H 0.77615 0.54632 0.44534 0.0
H465 H 0.89852 0.3347 0.50605 0.0
H466 H 0.77441 0.46122 0.50485 0.0
H467 H 0.84104 0.38117 0.44262 0.0
C468 C 0.8252 0.44451 0.42343 0.0
C469 C 0.80879 0.49231 0.4239 0.0
C470 C 0.80107 0.43291 0.5051 0.0
C471 C 0.80995 0.43748 0.46327 0.0
C472 C 0.81867 0.41689 0.5257 0.0
C473 C 0.8553 0.38232 0.52647 0.0
C474 C 0.82021 0.41426 0.48512 0.0
C475 C 0.87112 0.36222 0.50617 0.0
C476 C 0.8259 0.41704 0.44306 0.0
C477 C 0.7892 0.50976 0.44404 0.0
N478 N 0.85392 0.3789 0.48629 0.0
N479 N 0.79106 0.48264 0.46298 0.0
H480 H 0.15081 0.84808 0.08524 0.0
H481 H 0.36225 0.99066 0.14664 0.0
H482 H 0.25127 0.77918 0.13003 0.0
H483 H 0.25119 0.06066 0.10834 0.0
H484 H 0.32115 0.91373 0.14181 0.0
H485 H 0.18721 0.92558 0.09363 0.0
C486 C 0.18075 0.84906 0.09682 0.0
C487 C 0.19794 0.80661 0.10691 0.0
C488 C 0.30536 0.94587 0.13465 0.0
C489 C 0.23993 0.89638 0.11672 0.0
C490 C 0.3287 0.98997 0.13748 0.0
C491 C 0.31017 0.03229 0.12785 0.0
C492 C 0.26323 0.94362 0.12184 0.0
C493 C 0.2666 0.0291 0.11619 0.0
C494 C 0.20139 0.89365 0.10167 0.0
C495 C 0.23688 0.81071 0.12175 0.0
N496 N 0.24491 0.98544 0.1133 0.0
N497 N 0.25656 0.85475 0.12618 0.0
H498 H 0.77165 0.76148 0.3767 0.0
H499 H 0.48666 0.75259 0.3558 0.0
H500 H 0.70213 0.6625 0.33125 0.0
H501 H 0.55774 0.86914 0.39017 0.0
H502 H 0.56476 0.71318 0.35073 0.0
H503 H 0.69322 0.79759 0.38483 0.0
C504 C 0.74014 0.74757 0.36829 0.0
C505 C 0.74379 0.70882 0.35325 0.0
C506 C 0.56316 0.74718 0.35958 0.0
C507 C 0.65368 0.74941 0.36278 0.0
C508 C 0.51849 0.76934 0.3627 0.0
C509 C 0.51567 0.81422 0.37339 0.0
C510 C 0.60522 0.76991 0.36734 0.0
C511 C 0.55827 0.83464 0.38172 0.0
C512 C 0.69528 0.76802 0.37303 0.0
C513 C 0.70139 0.69225 0.34297 0.0
N514 N 0.60117 0.81252 0.37845 0.0
N515 N 0.65833 0.7124 0.34799 0.0
H516 H 0.66468 0.04634 0.64745 0.0
H517 H 0.87629 0.18858 0.58635 0.0
H518 H 0.77701 0.97631 0.61006 0.0
H519 H 0.77901 0.25721 0.63268 0.0
H520 H 0.8395 0.11127 0.59469 0.0
H521 H 0.70628 0.12322 0.64306 0.0
C522 C 0.69861 0.04702 0.63861 0.0
C523 C 0.71738 1.00474 0.62908 0.0
C524 C 0.82612 0.1431 0.60309 0.0
C525 C 0.7648 0.09323 0.62356 0.0
C526 C 0.84696 0.18758 0.59825 0.0
C527 C 0.83077 0.22988 0.60879 0.0
C528 C 0.78833 0.14036 0.61854 0.0
C529 C 0.79258 0.22578 0.62404 0.0
C530 C 0.72223 0.09105 0.63604 0.0
C531 C 0.76141 1.00785 0.61782 0.0
N532 N 0.77261 0.18185 0.62842 0.0
N533 N 0.7833 0.05143 0.61514 0.0
H534 H 0.54064 0.2836 0.85867 0.0
H535 H 0.25558 0.27215 0.87871 0.0
H536 H 0.47026 0.16877 0.89461 0.0
H537 H 0.32482 0.37199 0.83354 0.0
H538 H 0.33428 0.23762 0.88757 0.0
H539 H 0.46241 0.32255 0.85329 0.0
C540 C 0.50895 0.26723 0.8659 0.0
C541 C 0.51195 0.2229 0.87707 0.0
C542 C 0.33212 0.26705 0.87568 0.0
C543 C 0.42228 0.26653 0.87062 0.0
C544 C 0.28711 0.28662 0.87054 0.0
C545 C 0.28329 0.32516 0.85537 0.0
C546 C 0.37371 0.28628 0.86569 0.0
C547 C 0.3257 0.34235 0.84534 0.0
C548 C 0.46419 0.28909 0.86259 0.0
C549 C 0.46954 0.20287 0.88579 0.0
N550 N 0.36892 0.32301 0.85073 0.0
N551 N 0.42655 0.22461 0.88228 0.0
H552 H 0.75605 0.47422 0.62538 0.0
H553 H 0.76023 0.76047 0.60353 0.0
H554 H 0.86754 0.54678 0.58834 0.0
H555 H 0.6634 0.68999 0.64958 0.0
H556 H 0.79624 0.68191 0.59508 0.0
H557 H 0.71583 0.55214 0.63075 0.0
C558 C 0.7715 0.5063 0.61798 0.0
C559 C 0.81525 0.50398 0.60646 0.0
C560 C 0.76714 0.68376 0.60707 0.0
C561 C 0.77004 0.59333 0.61281 0.0
C562 C 0.74672 0.72871 0.61197 0.0
C563 C 0.70866 0.73215 0.62731 0.0
C564 C 0.74924 0.64184 0.61746 0.0
C565 C 0.69264 0.68942 0.63765 0.0
C566 C 0.74888 0.55088 0.62125 0.0
C567 C 0.83399 0.54691 0.59747 0.0
N568 N 0.7128 0.64627 0.63249 0.0
N569 N 0.8115 0.58968 0.60091 0.0
H570 H 0.75531 0.26776 0.8537 0.0
H571 H 0.04066 0.25649 0.873 0.0
H572 H 0.82518 0.16576 0.89754 0.0
H573 H 0.96945 0.37387 0.83936 0.0
H574 H 0.96256 0.21687 0.878 0.0
H575 H 0.83387 0.30325 0.8452 0.0
C576 C 0.78696 0.25301 0.86165 0.0
C577 C 0.78335 0.21366 0.87638 0.0
C578 C 0.96413 0.25108 0.8693 0.0
C579 C 0.87359 0.25362 0.86645 0.0
C580 C 1.0088 0.27336 0.86622 0.0
C581 C 1.01156 0.31856 0.85579 0.0
C582 C 0.92205 0.27405 0.86178 0.0
C583 C 0.96895 0.33913 0.84761 0.0
C584 C 0.83188 0.27313 0.85672 0.0
C585 C 0.82589 0.19605 0.8861 0.0
N586 N 0.92606 0.31692 0.85086 0.0
N587 N 0.86902 0.21595 0.88092 0.0
H588 H 0.16858 0.49177 0.08052 0.0
H589 H 0.37102 0.34754 0.14741 0.0
H590 H 0.27408 0.56063 0.12257 0.0
H591 H 0.27726 0.27992 0.09913 0.0
H592 H 0.33574 0.42524 0.13842 0.0
H593 H 0.20905 0.41474 0.08604 0.0
C594 C 0.20086 0.49083 0.09063 0.0
C595 C 0.21798 0.53283 0.10109 0.0
C596 C 0.32278 0.39354 0.12975 0.0
C597 C 0.26403 0.44406 0.10794 0.0
C598 C 0.34276 0.34884 0.13495 0.0
C599 C 0.32714 0.30671 0.12404 0.0
C600 C 0.28651 0.39668 0.11352 0.0
C601 C 0.29034 0.31119 0.10807 0.0
C602 C 0.22381 0.44667 0.09386 0.0
C603 C 0.25988 0.52934 0.11401 0.0
N604 N 0.27128 0.35532 0.10332 0.0
N605 N 0.28112 0.48563 0.11728 0.0
H606 H 0.27163 0.76631 0.35096 0.0
H607 H 0.98655 0.77497 0.37124 0.0
H608 H 0.2021 0.86273 0.3975 0.0
H609 H 0.05734 0.65998 0.33576 0.0
H610 H 0.0647 0.81417 0.37669 0.0
H611 H 0.19308 0.73126 0.34198 0.0
C612 C 0.24008 0.7799 0.35941 0.0
C613 C 0.24378 0.81761 0.37503 0.0
C614 C 0.06303 0.7806 0.36748 0.0
C615 C 0.15355 0.7782 0.36454 0.0
C616 C 0.01832 0.75859 0.36413 0.0
C617 C 0.01542 0.71416 0.35305 0.0
C618 C 0.10505 0.75815 0.35957 0.0
C619 C 0.05796 0.69415 0.34449 0.0
C620 C 0.19516 0.76004 0.3542 0.0
C621 C 0.20135 0.83374 0.38537 0.0
N622 N 0.10091 0.71609 0.34802 0.0
N623 N 0.15822 0.81419 0.37988 0.0
loop_
_geom_bond_atom_site_label_1
_geom_bond_atom_site_label_2
_geom_bond_distance
_geom_bond_site_symmetry_2
_ccdc_geom_bond_type
C0 C1 1.351 . S
C0 N3 1.368 . S
C0 H5 0.931 . S
C1 C0 1.351 . S
C1 N2 1.373 . S
C1 H29 0.930 . S
N2 C1 1.373 . S
N2 C4 1.340 . S
N3 C0 1.368 . S
N3 C4 1.321 . S
N3 Co6 2.135 . S
C4 N2 1.340 . S
C4 N3 1.321 . S
C4 H28 0.930 . S
H5 C0 0.931 . S
Co6 N3 2.135 . S
Co6 N9 2.121 . S
Co6 O14 2.055 . S
Co6 O17 2.039 . S
Co6 N20 2.140 . S
C7 O8 1.227 . S
C7 O17 1.265 . S
O8 C7 1.227 . S
N9 Co6 2.121 . S
N9 C11 1.375 . S
N9 C12 1.313 . S
C10 C11 1.338 . S
C10 N13 1.377 . S
C10 H30 0.930 . S
C11 N9 1.375 . S
C11 C10 1.338 . S
C11 H15 0.931 . S
C12 N9 1.313 . S
C12 N13 1.344 . S
C12 H16 0.930 . S
N13 C10 1.377 . S
N13 C12 1.344 . S
O14 Co6 2.055 . S
O14 C18 1.253 . S
H15 C11 0.931 . S
H16 C12 0.930 . S
O17 Co6 2.039 . S
O17 C7 1.265 . S
C18 O14 1.253 . S
C18 O19 1.227 . S
O19 C18 1.227 . S
N20 Co6 2.140 . S
N20 C23 1.346 . S
N20 C24 1.345 . S
C21 C22 1.387 . S
C21 C25 1.391 . S
C22 C21 1.387 . S
C22 C23 1.369 . S
C22 H31 0.929 . S
C23 N20 1.346 . S
C23 C22 1.369 . S
C23 H26 0.928 . S
C24 N20 1.345 . S
C24 C25 1.371 . S
C24 H27 0.931 . S
C25 C21 1.391 . S
C25 C24 1.371 . S
C25 H32 0.930 . S
H26 C23 0.928 . S
H27 C24 0.931 . S
H28 C4 0.930 . S
H29 C1 0.930 . S
H30 C10 0.930 . S
H31 C22 0.929 . S
H32 C25 0.930 . S
C33 C34 1.351 . S
C33 N36 1.368 . S
C33 H38 0.931 . S
C34 C33 1.351 . S
C34 N35 1.373 . S
C34 H62 0.930 . S
N35 C34 1.373 . S
N35 C37 1.340 . S
N36 C33 1.368 . S
N36 C37 1.321 . S
N36 Co39 2.135 . S
C37 N35 1.340 . S
C37 N36 1.321 . S
C37 H61 0.930 . S
H38 C33 0.931 . S
Co39 N36 2.135 . S
Co39 N42 2.121 . S
Co39 O47 2.055 . S
Co39 O50 2.039 . S
Co39 N53 2.140 . S
C40 O41 1.227 . S
C40 O50 1.265 . S
O41 C40 1.227 . S
N42 Co39 2.121 . S
N42 C44 1.375 . S
N42 C45 1.313 . S
C43 C44 1.338 . S
C43 N46 1.377 . S
C43 H63 0.930 . S
C44 N42 1.375 . S
C44 C43 1.338 . S
C44 H48 0.931 . S
C45 N42 1.313 . S
C45 N46 1.344 . S
C45 H49 0.930 . S
N46 C43 1.377 . S
N46 C45 1.344 . S
O47 Co39 2.055 . S
O47 C51 1.253 . S
H48 C44 0.931 . S
H49 C45 0.930 . S
O50 Co39 2.039 . S
O50 C40 1.265 . S
C51 O47 1.253 . S
C51 O52 1.227 . S
O52 C51 1.227 . S
N53 Co39 2.140 . S
N53 C56 1.346 . S
N53 C57 1.345 . S
C54 C55 1.387 1_545 S
C54 C58 1.391 1_545 S
C55 C54 1.387 1_565 S
C55 C56 1.369 . S
C55 H64 0.929 . S
C56 N53 1.346 . S
C56 C55 1.369 . S
C56 H59 0.928 . S
C57 N53 1.345 . S
C57 C58 1.371 . S
C57 H60 0.931 . S
C58 C54 1.391 1_565 S
C58 C57 1.371 . S
C58 H65 0.930 1_565 S
H59 C56 0.928 . S
H60 C57 0.931 . S
H61 C37 0.930 . S
H62 C34 0.930 . S
H63 C43 0.930 . S
H64 C55 0.929 . S
H65 C58 0.930 1_545 S
C66 C67 1.351 . S
C66 N69 1.368 . S
C66 H71 0.931 . S
C67 C66 1.351 . S
C67 N68 1.373 . S
C67 H95 0.930 . S
N68 C67 1.373 . S
N68 C70 1.340 . S
N69 C66 1.368 . S
N69 C70 1.321 . S
N69 Co72 2.135 . S
C70 N68 1.340 . S
C70 N69 1.321 . S
C70 H94 0.930 . S
H71 C66 0.931 . S
Co72 N69 2.135 . S
Co72 N75 2.121 . S
Co72 O80 2.055 . S
Co72 O83 2.039 . S
Co72 N86 2.140 . S
C73 O74 1.227 . S
C73 O83 1.265 . S
O74 C73 1.227 . S
N75 Co72 2.121 . S
N75 C77 1.375 . S
N75 C78 1.313 . S
C76 C77 1.338 . S
C76 N79 1.377 . S
C76 H96 0.930 . S
C77 N75 1.375 . S
C77 C76 1.338 . S
C77 H81 0.931 . S
C78 N75 1.313 . S
C78 N79 1.344 . S
C78 H82 0.930 . S
N79 C76 1.377 . S
N79 C78 1.344 . S
O80 Co72 2.055 . S
O80 C84 1.253 . S
H81 C77 0.931 . S
H82 C78 0.930 . S
O83 Co72 2.039 . S
O83 C73 1.265 . S
C84 O80 1.253 . S
C84 O85 1.227 . S
O85 C84 1.227 . S
N86 Co72 2.140 . S
N86 C89 1.346 . S
N86 C90 1.345 . S
C87 C88 1.387 . S
C87 C91 1.391 . S
C88 C87 1.387 . S
C88 C89 1.369 . S
C88 H97 0.929 . S
C89 N86 1.346 . S
C89 C88 1.369 . S
C89 H92 0.928 . S
C90 N86 1.345 . S
C90 C91 1.371 . S
C90 H93 0.931 . S
C91 C87 1.391 . S
C91 C90 1.371 . S
C91 H98 0.930 . S
H92 C89 0.928 . S
H93 C90 0.931 . S
H94 C70 0.930 . S
H95 C67 0.930 . S
H96 C76 0.930 . S
H97 C88 0.929 . S
H98 C91 0.930 . S
C99 C100 1.351 . S
C99 N102 1.368 . S
C99 H104 0.931 . S
C100 C99 1.351 . S
C100 N101 1.373 . S
C100 H128 0.930 . S
N101 C100 1.373 . S
N101 C103 1.340 . S
N102 C99 1.368 . S
N102 C103 1.321 . S
N102 Co105 2.135 . S
C103 N101 1.340 . S
C103 N102 1.321 . S
C103 H127 0.930 . S
H104 C99 0.931 . S
Co105 N102 2.135 . S
Co105 N108 2.121 . S
Co105 O113 2.055 . S
Co105 O116 2.039 . S
Co105 N119 2.140 . S
C106 O107 1.227 . S
C106 O116 1.265 . S
O107 C106 1.227 . S
N108 Co105 2.121 . S
N108 C110 1.375 . S
N108 C111 1.313 . S
C109 C110 1.338 . S
C109 N112 1.377 . S
C109 H129 0.930 . S
C110 N108 1.375 . S
C110 C109 1.338 . S
C110 H114 0.931 . S
C111 N108 1.313 . S
C111 N112 1.344 . S
C111 H115 0.930 . S
N112 C109 1.377 . S
N112 C111 1.344 . S
O113 Co105 2.055 . S
O113 C117 1.253 . S
H114 C110 0.931 . S
H115 C111 0.930 . S
O116 Co105 2.039 . S
O116 C106 1.265 . S
C117 O113 1.253 . S
C117 O118 1.227 . S
O118 C117 1.227 . S
N119 Co105 2.140 . S
N119 C122 1.346 . S
N119 C123 1.345 . S
C120 C121 1.387 1_565 S
C120 C124 1.391 1_565 S
C121 C120 1.387 1_545 S
C121 C122 1.369 . S
C121 H130 0.929 . S
C122 N119 1.346 . S
C122 C121 1.369 . S
C122 H125 0.928 . S
C123 N119 1.345 . S
C123 C124 1.371 . S
C123 H126 0.931 . S
C124 C120 1.391 1_545 S
C124 C123 1.371 . S
C124 H131 0.930 1_545 S
H125 C122 0.928 . S
H126 C123 0.931 . S
H127 C103 0.930 . S
H128 C100 0.930 . S
H129 C109 0.930 . S
H130 C121 0.929 . S
H131 C124 0.930 1_565 S
C132 C133 1.351 . S
C132 N135 1.368 . S
C132 H137 0.931 . S
C133 C132 1.351 . S
C133 N134 1.373 . S
C133 H161 0.930 . S
N134 C133 1.373 . S
N134 C136 1.340 . S
N135 C132 1.368 . S
N135 C136 1.321 . S
N135 Co138 2.135 . S
C136 N134 1.340 . S
C136 N135 1.321 . S
C136 H160 0.930 . S
H137 C132 0.931 . S
Co138 N135 2.135 . S
Co138 N141 2.121 . S
Co138 O146 2.055 . S
Co138 O149 2.039 . S
Co138 N152 2.140 . S
C139 O140 1.227 . S
C139 O149 1.265 . S
O140 C139 1.227 . S
N141 Co138 2.121 . S
N141 C143 1.375 . S
N141 C144 1.313 . S
C142 C143 1.338 . S
C142 N145 1.377 . S
C142 H162 0.930 . S
C143 N141 1.375 . S
C143 C142 1.338 . S
C143 H147 0.931 . S
C144 N141 1.313 . S
C144 N145 1.344 . S
C144 H148 0.930 . S
N145 C142 1.377 . S
N145 C144 1.344 . S
O146 Co138 2.055 . S
O146 C150 1.253 . S
H147 C143 0.931 . S
H148 C144 0.930 . S
O149 Co138 2.039 . S
O149 C139 1.265 . S
C150 O146 1.253 . S
C150 O151 1.227 . S
O151 C150 1.227 . S
N152 Co138 2.140 . S
N152 C155 1.346 . S
N152 C156 1.345 . S
C153 C154 1.387 1_455 S
C153 C157 1.391 1_455 S
C154 C153 1.387 1_655 S
C154 C155 1.369 . S
C154 H163 0.929 . S
C155 N152 1.346 . S
C155 C154 1.369 . S
C155 H158 0.928 . S
C156 N152 1.345 . S
C156 C157 1.371 . S
C156 H159 0.931 . S
C157 C153 1.391 1_655 S
C157 C156 1.371 . S
C157 H164 0.930 1_655 S
H158 C155 0.928 . S
H159 C156 0.931 . S
H160 C136 0.930 . S
H161 C133 0.930 . S
H162 C142 0.930 . S
H163 C154 0.929 . S
H164 C157 0.930 1_455 S
C165 C166 1.351 . S
C165 N168 1.368 . S
C165 H170 0.931 . S
C166 C165 1.351 . S
C166 N167 1.373 . S
C166 H194 0.930 . S
N167 C166 1.373 . S
N167 C169 1.340 . S
N168 C165 1.368 . S
N168 C169 1.321 . S
N168 Co171 2.135 . S
C169 N167 1.340 . S
C169 N168 1.321 . S
C169 H193 0.930 . S
H170 C165 0.931 . S
Co171 N168 2.135 . S
Co171 N174 2.121 . S
Co171 O179 2.055 . S
Co171 O182 2.039 . S
Co171 N185 2.140 . S
C172 O173 1.227 . S
C172 O182 1.265 . S
O173 C172 1.227 . S
N174 Co171 2.121 . S
N174 C176 1.375 . S
N174 C177 1.313 . S
C175 C176 1.338 . S
C175 N178 1.377 . S
C175 H195 0.930 . S
C176 N174 1.375 . S
C176 C175 1.338 . S
C176 H180 0.931 . S
C177 N174 1.313 . S
C177 N178 1.344 . S
C177 H181 0.930 . S
N178 C175 1.377 . S
N178 C177 1.344 . S
O179 Co171 2.055 . S
O179 C183 1.253 . S
H180 C176 0.931 . S
H181 C177 0.930 . S
O182 Co171 2.039 . S
O182 C172 1.265 . S
C183 O179 1.253 . S
C183 O184 1.227 . S
O184 C183 1.227 . S
N185 Co171 2.140 . S
N185 C188 1.346 . S
N185 C189 1.345 . S
C186 C187 1.387 . S
C186 C190 1.391 . S
C187 C186 1.387 . S
C187 C188 1.369 . S
C187 H196 0.929 . S
C188 N185 1.346 . S
C188 C187 1.369 . S
C188 H191 0.928 . S
C189 N185 1.345 . S
C189 C190 1.371 . S
C189 H192 0.931 . S
C190 C186 1.391 . S
C190 C189 1.371 . S
C190 H197 0.930 . S
H191 C188 0.928 . S
H192 C189 0.931 . S
H193 C169 0.930 . S
H194 C166 0.930 . S
H195 C175 0.930 . S
H196 C187 0.929 . S
H197 C190 0.930 . S
C198 C199 1.351 . S
C198 N201 1.368 . S
C198 H203 0.931 . S
C199 C198 1.351 . S
C199 N200 1.373 . S
C199 H227 0.930 . S
N200 C199 1.373 . S
N200 C202 1.340 . S
N201 C198 1.368 . S
N201 C202 1.321 . S
N201 Co204 2.135 . S
C202 N200 1.340 . S
C202 N201 1.321 . S
C202 H226 0.930 . S
H203 C198 0.931 . S
Co204 N201 2.135 . S
Co204 N207 2.121 . S
Co204 O212 2.055 . S
Co204 O215 2.039 . S
Co204 N218 2.140 . S
C205 O206 1.227 . S
C205 O215 1.265 . S
O206 C205 1.227 . S
N207 Co204 2.121 . S
N207 C209 1.375 . S
N207 C210 1.313 . S
C208 C209 1.338 . S
C208 N211 1.377 . S
C208 H228 0.930 . S
C209 N207 1.375 . S
C209 C208 1.338 . S
C209 H213 0.931 . S
C210 N207 1.313 . S
C210 N211 1.344 . S
C210 H214 0.930 . S
N211 C208 1.377 . S
N211 C210 1.344 . S
O212 Co204 2.055 . S
O212 C216 1.253 . S
H213 C209 0.931 . S
H214 C210 0.930 . S
O215 Co204 2.039 . S
O215 C205 1.265 . S
C216 O212 1.253 . S
C216 O217 1.227 . S
O217 C216 1.227 . S
N218 Co204 2.140 . S
N218 C221 1.346 . S
N218 C222 1.345 . S
C219 C220 1.387 1_655 S
C219 C223 1.391 1_655 S
C220 C219 1.387 1_455 S
C220 C221 1.369 . S
C220 H229 0.929 . S
C221 N218 1.346 . S
C221 C220 1.369 . S
C221 H224 0.928 . S
C222 N218 1.345 . S
C222 C223 1.371 . S
C222 H225 0.931 . S
C223 C219 1.391 1_455 S
C223 C222 1.371 . S
C223 H230 0.930 1_455 S
H224 C221 0.928 . S
H225 C222 0.931 . S
H226 C202 0.930 . S
H227 C199 0.930 . S
H228 C208 0.930 . S
H229 C220 0.929 . S
H230 C223 0.930 1_655 S
C231 C232 1.351 . S
C231 N234 1.368 . S
C231 H236 0.931 . S
C232 C231 1.351 . S
C232 N233 1.373 . S
C232 H260 0.930 . S
N233 C232 1.373 . S
N233 C235 1.340 . S
N234 C231 1.368 . S
N234 C235 1.321 . S
N234 Co237 2.135 . S
C235 N233 1.340 . S
C235 N234 1.321 . S
C235 H259 0.930 . S
H236 C231 0.931 . S
Co237 N234 2.135 . S
Co237 N240 2.121 . S
Co237 O245 2.055 . S
Co237 O248 2.039 . S
Co237 N251 2.140 . S
C238 O239 1.227 . S
C238 O248 1.265 . S
O239 C238 1.227 . S
N240 Co237 2.121 . S
N240 C242 1.375 . S
N240 C243 1.313 . S
C241 C242 1.338 . S
C241 N244 1.377 . S
C241 H261 0.930 . S
C242 N240 1.375 . S
C242 C241 1.338 . S
C242 H246 0.931 . S
C243 N240 1.313 . S
C243 N244 1.344 . S
C243 H247 0.930 . S
N244 C241 1.377 . S
N244 C243 1.344 . S
O245 Co237 2.055 . S
O245 C249 1.253 . S
H246 C242 0.931 . S
H247 C243 0.930 . S
O248 Co237 2.039 . S
O248 C238 1.265 . S
C249 O245 1.253 . S
C249 O250 1.227 . S
O250 C249 1.227 . S
N251 Co237 2.140 . S
N251 C254 1.346 . S
N251 C255 1.345 . S
C252 C253 1.387 . S
C252 C256 1.391 . S
C253 C252 1.387 . S
C253 C254 1.369 . S
C253 H262 0.929 . S
C254 N251 1.346 . S
C254 C253 1.369 . S
C254 H257 0.928 . S
C255 N251 1.345 . S
C255 C256 1.371 . S
C255 H258 0.931 . S
C256 C252 1.391 . S
C256 C255 1.371 . S
C256 H263 0.930 . S
H257 C254 0.928 . S
H258 C255 0.931 . S
H259 C235 0.930 . S
H260 C232 0.930 . S
H261 C241 0.930 . S
H262 C253 0.929 . S
H263 C256 0.930 . S
H264 C270 0.930 . S
H265 C274 0.930 . S
H266 C279 0.929 . S
H267 C277 0.929 . S
H268 C272 0.929 . S
H269 C278 0.929 . S
C270 H264 0.930 . S
C270 C271 1.367 . S
C270 C278 1.378 . S
C271 C270 1.367 . S
C271 C279 1.433 . S
C272 H268 0.929 . S
C272 C274 1.378 . S
C272 C276 1.350 . S
C273 C276 1.463 1_554 S
C273 C278 1.350 . S
C273 N281 1.427 . S
C274 H265 0.930 . S
C274 C272 1.378 . S
C274 C275 1.367 . S
C275 C274 1.367 . S
C275 C277 1.433 . S
C276 C272 1.350 . S
C276 C273 1.463 1_556 S
C276 N280 1.427 . S
C277 H267 0.929 . S
C277 C275 1.433 . S
C277 N280 1.384 . S
C278 H269 0.929 . S
C278 C270 1.378 . S
C278 C273 1.350 . S
C279 H266 0.929 . S
C279 C271 1.433 . S
C279 N281 1.384 . S
N280 C276 1.427 . S
N280 C277 1.384 . S
N281 C273 1.427 . S
N281 C279 1.384 . S
H282 C288 0.930 . S
H283 C292 0.930 . S
H284 C297 0.929 . S
H285 C295 0.929 . S
H286 C290 0.929 . S
H287 C296 0.929 . S
C288 H282 0.930 . S
C288 C289 1.367 . S
C288 C296 1.378 . S
C289 C288 1.367 . S
C289 C297 1.433 . S
C290 H286 0.929 . S
C290 C292 1.378 . S
C290 C294 1.350 . S
C291 C294 1.463 . S
C291 C296 1.350 . S
C291 N299 1.427 . S
C292 H283 0.930 . S
C292 C290 1.378 . S
C292 C293 1.367 . S
C293 C292 1.367 . S
C293 C295 1.433 . S
C294 C290 1.350 . S
C294 C291 1.463 . S
C294 N298 1.427 . S
C295 H285 0.929 . S
C295 C293 1.433 . S
C295 N298 1.384 . S
C296 H287 0.929 . S
C296 C288 1.378 . S
C296 C291 1.350 . S
C297 H284 0.929 . S
C297 C289 1.433 . S
C297 N299 1.384 . S
N298 C294 1.427 . S
N298 C295 1.384 . S
N299 C291 1.427 . S
N299 C297 1.384 . S
H300 C306 0.930 . S
H301 C310 0.930 . S
H302 C315 0.929 . S
H303 C313 0.929 . S
H304 C308 0.929 . S
H305 C314 0.929 . S
C306 H300 0.930 . S
C306 C307 1.367 . S
C306 C314 1.378 . S
C307 C306 1.367 . S
C307 C315 1.433 . S
C308 H304 0.929 . S
C308 C310 1.378 . S
C308 C312 1.350 . S
C309 C312 1.463 . S
C309 C314 1.350 . S
C309 N317 1.427 . S
C310 H301 0.930 . S
C310 C308 1.378 . S
C310 C311 1.367 . S
C311 C310 1.367 . S
C311 C313 1.433 . S
C312 C308 1.350 . S
C312 C309 1.463 . S
C312 N316 1.427 . S
C313 H303 0.929 . S
C313 C311 1.433 . S
C313 N316 1.384 . S
C314 H305 0.929 . S
C314 C306 1.378 . S
C314 C309 1.350 . S
C315 H302 0.929 . S
C315 C307 1.433 . S
C315 N317 1.384 . S
N316 C312 1.427 . S
N316 C313 1.384 . S
N317 C309 1.427 . S
N317 C315 1.384 . S
H318 C324 0.930 . S
H319 C328 0.930 . S
H320 C333 0.929 . S
H321 C331 0.929 . S
H322 C326 0.929 . S
H323 C332 0.929 . S
C324 H318 0.930 . S
C324 C325 1.367 . S
C324 C332 1.378 . S
C325 C324 1.367 . S
C325 C333 1.433 . S
C326 H322 0.929 . S
C326 C328 1.378 . S
C326 C330 1.350 . S
C327 C330 1.463 . S
C327 C332 1.350 . S
C327 N335 1.427 . S
C328 H319 0.930 . S
C328 C326 1.378 . S
C328 C329 1.367 . S
C329 C328 1.367 . S
C329 C331 1.433 . S
C330 C326 1.350 . S
C330 C327 1.463 . S
C330 N334 1.427 . S
C331 H321 0.929 . S
C331 C329 1.433 . S
C331 N334 1.384 . S
C332 H323 0.929 . S
C332 C324 1.378 . S
C332 C327 1.350 . S
C333 H320 0.929 . S
C333 C325 1.433 . S
C333 N335 1.384 . S
N334 C330 1.427 . S
N334 C331 1.384 . S
N335 C327 1.427 . S
N335 C333 1.384 . S
H336 C342 0.930 . S
H337 C346 0.930 . S
H338 C351 0.929 . S
H339 C349 0.929 . S
H340 C344 0.929 . S
H341 C350 0.929 . S
C342 H336 0.930 . S
C342 C343 1.367 . S
C342 C350 1.378 . S
C343 C342 1.367 . S
C343 C351 1.433 . S
C344 H340 0.929 . S
C344 C346 1.378 . S
C344 C348 1.350 . S
C345 C348 1.463 1_556 S
C345 C350 1.350 . S
C345 N353 1.427 . S
C346 H337 0.930 . S
C346 C344 1.378 . S
C346 C347 1.367 . S
C347 C346 1.367 . S
C347 C349 1.433 . S
C348 C344 1.350 . S
C348 C345 1.463 1_554 S
C348 N352 1.427 . S
C349 H339 0.929 . S
C349 C347 1.433 . S
C349 N352 1.384 . S
C350 H341 0.929 . S
C350 C342 1.378 . S
C350 C345 1.350 . S
C351 H338 0.929 . S
C351 C343 1.433 . S
C351 N353 1.384 . S
N352 C348 1.427 . S
N352 C349 1.384 . S
N353 C345 1.427 . S
N353 C351 1.384 . S
H354 C360 0.930 . S
H355 C364 0.930 . S
H356 C369 0.929 1_565 S
H357 C367 0.929 . S
H358 C362 0.929 . S
H359 C368 0.929 . S
C360 H354 0.930 . S
C360 C361 1.367 . S
C360 C368 1.378 . S
C361 C360 1.367 . S
C361 C369 1.433 . S
C362 H358 0.929 . S
C362 C364 1.378 . S
C362 C366 1.350 . S
C363 C366 1.463 . S
C363 C368 1.350 . S
C363 N371 1.427 . S
C364 H355 0.930 . S
C364 C362 1.378 . S
C364 C365 1.367 . S
C365 C364 1.367 . S
C365 C367 1.433 . S
C366 C362 1.350 . S
C366 C363 1.463 . S
C366 N370 1.427 . S
C367 H357 0.929 . S
C367 C365 1.433 . S
C367 N370 1.384 . S
C368 H359 0.929 . S
C368 C360 1.378 . S
C368 C363 1.350 . S
C369 H356 0.929 1_545 S
C369 C361 1.433 . S
C369 N371 1.384 . S
N370 C366 1.427 . S
N370 C367 1.384 . S
N371 C363 1.427 . S
N371 C369 1.384 . S
H372 C378 0.930 . S
H373 C382 0.930 . S
H374 C387 0.929 . S
H375 C385 0.929 . S
H376 C380 0.929 . S
H377 C386 0.929 . S
C378 H372 0.930 . S
C378 C379 1.367 . S
C378 C386 1.378 . S
C379 C378 1.367 . S
C379 C387 1.433 . S
C380 H376 0.929 . S
C380 C382 1.378 . S
C380 C384 1.350 . S
C381 C384 1.463 . S
C381 C386 1.350 . S
C381 N389 1.427 . S
C382 H373 0.930 . S
C382 C380 1.378 . S
C382 C383 1.367 . S
C383 C382 1.367 . S
C383 C385 1.433 . S
C384 C380 1.350 . S
C384 C381 1.463 . S
C384 N388 1.427 . S
C385 H375 0.929 . S
C385 C383 1.433 . S
C385 N388 1.384 . S
C386 H377 0.929 . S
C386 C378 1.378 . S
C386 C381 1.350 . S
C387 H374 0.929 . S
C387 C379 1.433 . S
C387 N389 1.384 . S
N388 C384 1.427 . S
N388 C385 1.384 . S
N389 C381 1.427 . S
N389 C387 1.384 . S
H390 C396 0.930 . S
H391 C400 0.930 . S
H392 C405 0.929 . S
H393 C403 0.929 . S
H394 C398 0.929 1_545 S
H395 C404 0.929 . S
C396 H390 0.930 . S
C396 C397 1.367 . S
C396 C404 1.378 . S
C397 C396 1.367 . S
C397 C405 1.433 1_565 S
C398 H394 0.929 1_565 S
C398 C400 1.378 . S
C398 C402 1.350 . S
C399 C402 1.463 . S
C399 C404 1.350 . S
C399 N407 1.427 . S
C400 H391 0.930 . S
C400 C398 1.378 . S
C400 C401 1.367 . S
C401 C400 1.367 . S
C401 C403 1.433 . S
C402 C398 1.350 . S
C402 C399 1.463 . S
C402 N406 1.427 . S
C403 H393 0.929 . S
C403 C401 1.433 . S
C403 N406 1.384 . S
C404 H395 0.929 . S
C404 C396 1.378 . S
C404 C399 1.350 . S
C405 H392 0.929 . S
C405 C397 1.433 1_545 S
C405 N407 1.384 1_545 S
N406 C402 1.427 . S
N406 C403 1.384 . S
N407 C399 1.427 . S
N407 C405 1.384 1_565 S
H408 C414 0.930 . S
H409 C418 0.930 . S
H410 C423 0.929 . S
H411 C421 0.929 . S
H412 C416 0.929 . S
H413 C422 0.929 . S
C414 H408 0.930 . S
C414 C415 1.367 . S
C414 C422 1.378 . S
C415 C414 1.367 . S
C415 C423 1.433 . S
C416 H412 0.929 . S
C416 C418 1.378 . S
C416 C420 1.350 . S
C417 C420 1.463 . S
C417 C422 1.350 . S
C417 N425 1.427 . S
C418 H409 0.930 . S
C418 C416 1.378 . S
C418 C419 1.367 . S
C419 C418 1.367 . S
C419 C421 1.433 . S
C420 C416 1.350 . S
C420 C417 1.463 . S
C420 N424 1.427 . S
C421 H411 0.929 . S
C421 C419 1.433 . S
C421 N424 1.384 . S
C422 H413 0.929 . S
C422 C414 1.378 . S
C422 C417 1.350 . S
C423 H410 0.929 . S
C423 C415 1.433 . S
C423 N425 1.384 . S
N424 C420 1.427 . S
N424 C421 1.384 . S
N425 C417 1.427 . S
N425 C423 1.384 . S
H426 C432 0.930 . S
H427 C436 0.930 . S
H428 C441 0.929 . S
H429 C439 0.929 . S
H430 C434 0.929 . S
H431 C440 0.929 . S
C432 H426 0.930 . S
C432 C433 1.367 . S
C432 C440 1.378 . S
C433 C432 1.367 . S
C433 C441 1.433 . S
C434 H430 0.929 . S
C434 C436 1.378 . S
C434 C438 1.350 . S
C435 C438 1.463 1_556 S
C435 C440 1.350 . S
C435 N443 1.427 . S
C436 H427 0.930 . S
C436 C434 1.378 . S
C436 C437 1.367 . S
C437 C436 1.367 . S
C437 C439 1.433 . S
C438 C434 1.350 . S
C438 C435 1.463 1_554 S
C438 N442 1.427 . S
C439 H429 0.929 . S
C439 C437 1.433 . S
C439 N442 1.384 . S
C440 H431 0.929 . S
C440 C432 1.378 . S
C440 C435 1.350 . S
C441 H428 0.929 . S
C441 C433 1.433 . S
C441 N443 1.384 . S
N442 C438 1.427 . S
N442 C439 1.384 . S
N443 C435 1.427 . S
N443 C441 1.384 . S
H444 C450 0.930 . S
H445 C454 0.930 . S
H446 C459 0.929 . S
H447 C457 0.929 . S
H448 C452 0.929 . S
H449 C458 0.929 . S
C450 H444 0.930 . S
C450 C451 1.367 . S
C450 C458 1.378 . S
C451 C450 1.367 . S
C451 C459 1.433 . S
C452 H448 0.929 . S
C452 C454 1.378 . S
C452 C456 1.350 . S
C453 C456 1.463 . S
C453 C458 1.350 . S
C453 N461 1.427 . S
C454 H445 0.930 . S
C454 C452 1.378 . S
C454 C455 1.367 . S
C455 C454 1.367 . S
C455 C457 1.433 . S
C456 C452 1.350 . S
C456 C453 1.463 . S
C456 N460 1.427 . S
C457 H447 0.929 . S
C457 C455 1.433 . S
C457 N460 1.384 . S
C458 H449 0.929 . S
C458 C450 1.378 . S
C458 C453 1.350 . S
C459 H446 0.929 . S
C459 C451 1.433 . S
C459 N461 1.384 . S
N460 C456 1.427 . S
N460 C457 1.384 . S
N461 C453 1.427 . S
N461 C459 1.384 . S
H462 C468 0.930 . S
H463 C472 0.930 . S
H464 C477 0.929 . S
H465 C475 0.929 . S
H466 C470 0.929 . S
H467 C476 0.929 . S
C468 H462 0.930 . S
C468 C469 1.367 . S
C468 C476 1.378 . S
C469 C468 1.367 . S
C469 C477 1.433 . S
C470 H466 0.929 . S
C470 C472 1.378 . S
C470 C474 1.350 . S
C471 C474 1.463 . S
C471 C476 1.350 . S
C471 N479 1.427 . S
C472 H463 0.930 . S
C472 C470 1.378 . S
C472 C473 1.367 . S
C473 C472 1.367 . S
C473 C475 1.433 . S
C474 C470 1.350 . S
C474 C471 1.463 . S
C474 N478 1.427 . S
C475 H465 0.929 . S
C475 C473 1.433 . S
C475 N478 1.384 . S
C476 H467 0.929 . S
C476 C468 1.378 . S
C476 C471 1.350 . S
C477 H464 0.929 . S
C477 C469 1.433 . S
C477 N479 1.384 . S
N478 C474 1.427 . S
N478 C475 1.384 . S
N479 C471 1.427 . S
N479 C477 1.384 . S
H480 C486 0.930 . S
H481 C490 0.930 . S
H482 C495 0.929 . S
H483 C493 0.929 . S
H484 C488 0.929 . S
H485 C494 0.929 . S
C486 H480 0.930 . S
C486 C487 1.367 . S
C486 C494 1.378 . S
C487 C486 1.367 . S
C487 C495 1.433 . S
C488 H484 0.929 . S
C488 C490 1.378 . S
C488 C492 1.350 . S
C489 C492 1.463 . S
C489 C494 1.350 . S
C489 N497 1.427 . S
C490 H481 0.930 . S
C490 C488 1.378 . S
C490 C491 1.367 1_565 S
C491 C490 1.367 1_545 S
C491 C493 1.433 . S
C492 C488 1.350 . S
C492 C489 1.463 . S
C492 N496 1.427 . S
C493 H483 0.929 . S
C493 C491 1.433 . S
C493 N496 1.384 1_545 S
C494 H485 0.929 . S
C494 C486 1.378 . S
C494 C489 1.350 . S
C495 H482 0.929 . S
C495 C487 1.433 . S
C495 N497 1.384 . S
N496 C492 1.427 . S
N496 C493 1.384 1_565 S
N497 C489 1.427 . S
N497 C495 1.384 . S
H498 C504 0.930 . S
H499 C508 0.930 . S
H500 C513 0.929 . S
H501 C511 0.929 . S
H502 C506 0.929 . S
H503 C512 0.929 . S
C504 H498 0.930 . S
C504 C505 1.367 . S
C504 C512 1.378 . S
C505 C504 1.367 . S
C505 C513 1.433 . S
C506 H502 0.929 . S
C506 C508 1.378 . S
C506 C510 1.350 . S
C507 C510 1.463 . S
C507 C512 1.350 . S
C507 N515 1.427 . S
C508 H499 0.930 . S
C508 C506 1.378 . S
C508 C509 1.367 . S
C509 C508 1.367 . S
C509 C511 1.433 . S
C510 C506 1.350 . S
C510 C507 1.463 . S
C510 N514 1.427 . S
C511 H501 0.929 . S
C511 C509 1.433 . S
C511 N514 1.384 . S
C512 H503 0.929 . S
C512 C504 1.378 . S
C512 C507 1.350 . S
C513 H500 0.929 . S
C513 C505 1.433 . S
C513 N515 1.384 . S
N514 C510 1.427 . S
N514 C511 1.384 . S
N515 C507 1.427 . S
N515 C513 1.384 . S
H516 C522 0.938 . S
H517 C526 0.930 . S
H518 C531 0.929 . S
H519 C529 0.929 . S
H520 C524 0.929 . S
H521 C530 0.929 . S
C522 H516 0.938 . S
C522 C523 1.367 1_545 S
C522 C530 1.378 . S
C523 C522 1.367 1_565 S
C523 C531 1.433 1_565 S
C524 H520 0.929 . S
C524 C526 1.378 . S
C524 C528 1.350 . S
C525 C528 1.463 . S
C525 C530 1.350 . S
C525 N533 1.427 . S
C526 H517 0.930 . S
C526 C524 1.378 . S
C526 C527 1.367 . S
C527 C526 1.367 . S
C527 C529 1.433 . S
C528 C524 1.350 . S
C528 C525 1.463 . S
C528 N532 1.427 . S
C529 H519 0.929 . S
C529 C527 1.433 . S
C529 N532 1.384 . S
C530 H521 0.929 . S
C530 C522 1.378 . S
C530 C525 1.350 . S
C531 H518 0.929 . S
C531 C523 1.433 1_545 S
C531 N533 1.384 . S
N532 C528 1.427 . S
N532 C529 1.384 . S
N533 C525 1.427 . S
N533 C531 1.384 . S
H534 C540 0.930 . S
H535 C544 0.930 . S
H536 C549 0.929 . S
H537 C547 0.929 . S
H538 C542 0.929 . S
H539 C548 0.929 . S
C540 H534 0.930 . S
C540 C541 1.367 . S
C540 C548 1.378 . S
C541 C540 1.367 . S
C541 C549 1.433 . S
C542 H538 0.929 . S
C542 C544 1.378 . S
C542 C546 1.350 . S
C543 C546 1.463 . S
C543 C548 1.350 . S
C543 N551 1.427 . S
C544 H535 0.930 . S
C544 C542 1.378 . S
C544 C545 1.367 . S
C545 C544 1.367 . S
C545 C547 1.433 . S
C546 C542 1.350 . S
C546 C543 1.463 . S
C546 N550 1.427 . S
C547 H537 0.929 . S
C547 C545 1.433 . S
C547 N550 1.384 . S
C548 H539 0.929 . S
C548 C540 1.378 . S
C548 C543 1.350 . S
C549 H536 0.929 . S
C549 C541 1.433 . S
C549 N551 1.384 . S
N550 C546 1.427 . S
N550 C547 1.384 . S
N551 C543 1.427 . S
N551 C549 1.384 . S
H552 C558 0.930 . S
H553 C562 0.930 . S
H554 C567 0.929 . S
H555 C565 0.929 . S
H556 C560 0.929 . S
H557 C566 0.929 . S
C558 H552 0.930 . S
C558 C559 1.367 . S
C558 C566 1.378 . S
C559 C558 1.367 . S
C559 C567 1.433 . S
C560 H556 0.929 . S
C560 C562 1.378 . S
C560 C564 1.350 . S
C561 C564 1.463 . S
C561 C566 1.350 . S
C561 N569 1.427 . S
C562 H553 0.930 . S
C562 C560 1.378 . S
C562 C563 1.367 . S
C563 C562 1.367 . S
C563 C565 1.433 . S
C564 C560 1.350 . S
C564 C561 1.463 . S
C564 N568 1.427 . S
C565 H555 0.929 . S
C565 C563 1.433 . S
C565 N568 1.384 . S
C566 H557 0.929 . S
C566 C558 1.378 . S
C566 C561 1.350 . S
C567 H554 0.929 . S
C567 C559 1.433 . S
C567 N569 1.384 . S
N568 C564 1.427 . S
N568 C565 1.384 . S
N569 C561 1.427 . S
N569 C567 1.384 . S
H570 C576 0.930 . S
H571 C580 0.930 1_455 S
H572 C585 0.929 . S
H573 C583 0.929 . S
H574 C578 0.929 . S
H575 C584 0.929 . S
C576 H570 0.930 . S
C576 C577 1.367 . S
C576 C584 1.378 . S
C577 C576 1.367 . S
C577 C585 1.433 . S
C578 H574 0.929 . S
C578 C580 1.378 . S
C578 C582 1.350 . S
C579 C582 1.463 . S
C579 C584 1.350 . S
C579 N587 1.427 . S
C580 H571 0.930 1_655 S
C580 C578 1.378 . S
C580 C581 1.367 1_655 S
C581 C580 1.367 1_455 S
C581 C583 1.433 1_455 S
C582 C578 1.350 . S
C582 C579 1.463 . S
C582 N586 1.427 . S
C583 H573 0.929 . S
C583 C581 1.433 1_655 S
C583 N586 1.384 . S
C584 H575 0.929 . S
C584 C576 1.378 . S
C584 C579 1.350 . S
C585 H572 0.929 . S
C585 C577 1.433 . S
C585 N587 1.384 . S
N586 C582 1.427 . S
N586 C583 1.384 . S
N587 C579 1.427 . S
N587 C585 1.384 . S
H588 C594 0.930 . S
H589 C598 0.930 . S
H590 C603 0.929 . S
H591 C601 0.929 . S
H592 C596 0.929 . S
H593 C602 0.929 . S
C594 H588 0.930 . S
C594 C595 1.367 . S
C594 C602 1.378 . S
C595 C594 1.367 . S
C595 C603 1.433 . S
C596 H592 0.929 . S
C596 C598 1.378 . S
C596 C600 1.350 . S
C597 C600 1.463 . S
C597 C602 1.350 . S
C597 N605 1.427 . S
C598 H589 0.930 . S
C598 C596 1.378 . S
C598 C599 1.367 . S
C599 C598 1.367 . S
C599 C601 1.433 . S
C600 C596 1.350 . S
C600 C597 1.463 . S
C600 N604 1.427 . S
C601 H591 0.929 . S
C601 C599 1.433 . S
C601 N604 1.384 . S
C602 H593 0.929 . S
C602 C594 1.378 . S
C602 C597 1.350 . S
C603 H590 0.929 . S
C603 C595 1.433 . S
C603 N605 1.384 . S
N604 C600 1.427 . S
N604 C601 1.384 . S
N605 C597 1.427 . S
N605 C603 1.384 . S
H606 C612 0.930 . S
H607 C616 0.930 . S
H608 C621 0.929 . S
H609 C619 0.929 . S
H610 C614 0.929 . S
H611 C620 0.929 . S
C612 H606 0.930 . S
C612 C613 1.367 . S
C612 C620 1.378 . S
C613 C612 1.367 . S
C613 C621 1.433 . S
C614 H610 0.929 . S
C614 C616 1.378 1_455 S
C614 C618 1.350 . S
C615 C618 1.463 . S
C615 C620 1.350 . S
C615 N623 1.427 . S
C616 H607 0.930 . S
C616 C614 1.378 1_655 S
C616 C617 1.367 . S
C617 C616 1.367 . S
C617 C619 1.433 1_655 S
C618 C614 1.350 . S
C618 C615 1.463 . S
C618 N622 1.427 . S
C619 H609 0.929 . S
C619 C617 1.433 1_455 S
C619 N622 1.384 . S
C620 H611 0.929 . S
C620 C612 1.378 . S
C620 C615 1.350 . S
C621 H608 0.929 . S
C621 C613 1.433 . S
C621 N623 1.384 . S
N622 C618 1.427 . S
N622 C619 1.384 . S
N623 C615 1.427 . S
N623 C621 1.384 . S
C271 N2 0.368 . S
C275 N167 0.341 . S
C289 N200 0.350 . S
C293 N35 0.364 . S
C307 N233 0.352 . S
C311 N68 0.362 . S
C325 N134 0.325 . S
C329 N101 0.363 . S
C343 N112 1.248 . S
C347 C21 1.229 . S
C361 C54 1.249 . S
C365 N13 1.263 . S
C379 N46 1.248 . S
C383 C87 1.227 . S
C397 C120 1.252 . S
C401 N79 1.267 . S
C415 N178 1.255 . S
C419 C153 1.241 . S
C433 C186 1.246 . S
C437 N211 1.260 . S
C451 C219 1.233 . S
C455 N244 1.249 . S
C469 C252 1.249 . S
C473 N145 1.263 . S
C487 C205 1.788 . S
C491 C18 1.848 . S
C505 C238 1.781 . S
C509 C51 1.850 . S
C523 C84 1.851 . S
C527 C139 1.793 . S
C541 C117 1.851 . S
C545 C172 1.784 . S
C559 C150 1.851 . S
C563 C73 1.790 . S
C577 C106 1.791 . S
C581 C183 1.851 . S
C595 C216 1.848 . S
C599 C7 1.789 . S
C613 C40 1.787 . S
C617 C249 1.851 . S
