# Generated by pormake.
# Topology utj, (3)-cn, num edge types: 1
# Building blocks:
#     Node 0, Type 0, BuildingBlock: WUSLED_clean_sbu_0, # of connection points: 3
#     Node 1, Type 0, BuildingBlock: WUSLED_clean_sbu_0, # of connection points: 3
#     Node 2, Type 0, BuildingBlock: WUSLED_clean_sbu_0, # of connection points: 3
#     Node 3, Type 0, BuildingBlock: WUSLED_clean_sbu_0, # of connection points: 3
#     Node 4, Type 0, BuildingBlock: WUSLED_clean_sbu_0, # of connection points: 3
#     Node 5, Type 0, BuildingBlock: WUSLED_clean_sbu_0, # of connection points: 3
#     Node 6, Type 0, BuildingBlock: WUSLED_clean_sbu_0, # of connection points: 3
#     Node 7, Type 0, BuildingBlock: WUSLED_clean_sbu_0, # of connection points: 3
#     Node 8, Type 0, BuildingBlock: WUSLED_clean_sbu_0, # of connection points: 3
#     Node 9, Type 0, BuildingBlock: WUSLED_clean_sbu_0, # of connection points: 3
#     Node 10, Type 0, BuildingBlock: WUSLED_clean_sbu_0, # of connection points: 3
#     Node 11, Type 0, BuildingBlock: WUSLED_clean_sbu_0, # of connection points: 3
#     Node 12, Type 0, BuildingBlock: WUSLED_clean_sbu_0, # of connection points: 3
#     Node 13, Type 0, BuildingBlock: WUSLED_clean_sbu_0, # of connection points: 3
#     Node 14, Type 0, BuildingBlock: WUSLED_clean_sbu_0, # of connection points: 3
#     Node 15, Type 0, BuildingBlock: WUSLED_clean_sbu_0, # of connection points: 3
#     Edge 16, Type (0, 0), BuildingBlock: MIFKUJ_clean_linker_0, # of connection points: 2
#     Edge 17, Type (0, 0), BuildingBlock: MIFKUJ_clean_linker_0, # of connection points: 2
#     Edge 18, Type (0, 0), BuildingBlock: MIFKUJ_clean_linker_0, # of connection points: 2
#     Edge 19, Type (0, 0), BuildingBlock: MIFKUJ_clean_linker_0, # of connection points: 2
#     Edge 20, Type (0, 0), BuildingBlock: MIFKUJ_clean_linker_0, # of connection points: 2
#     Edge 21, Type (0, 0), BuildingBlock: MIFKUJ_clean_linker_0, # of connection points: 2
#     Edge 22, Type (0, 0), BuildingBlock: MIFKUJ_clean_linker_0, # of connection points: 2
#     Edge 23, Type (0, 0), BuildingBlock: MIFKUJ_clean_linker_0, # of connection points: 2
#     Edge 24, Type (0, 0), BuildingBlock: MIFKUJ_clean_linker_0, # of connection points: 2
#     Edge 25, Type (0, 0), BuildingBlock: MIFKUJ_clean_linker_0, # of connection points: 2
#     Edge 26, Type (0, 0), BuildingBlock: MIFKUJ_clean_linker_0, # of connection points: 2
#     Edge 27, Type (0, 0), BuildingBlock: MIFKUJ_clean_linker_0, # of connection points: 2
#     Edge 28, Type (0, 0), BuildingBlock: MIFKUJ_clean_linker_0, # of connection points: 2
#     Edge 29, Type (0, 0), BuildingBlock: MIFKUJ_clean_linker_0, # of connection points: 2
#     Edge 30, Type (0, 0), BuildingBlock: MIFKUJ_clean_linker_0, # of connection points: 2
#     Edge 31, Type (0, 0), BuildingBlock: MIFKUJ_clean_linker_0, # of connection points: 2
#     Edge 32, Type (0, 0), BuildingBlock: MIFKUJ_clean_linker_0, # of connection points: 2
#     Edge 33, Type (0, 0), BuildingBlock: MIFKUJ_clean_linker_0, # of connection points: 2
#     Edge 34, Type (0, 0), BuildingBlock: MIFKUJ_clean_linker_0, # of connection points: 2
#     Edge 35, Type (0, 0), BuildingBlock: MIFKUJ_clean_linker_0, # of connection points: 2
#     Edge 36, Type (0, 0), BuildingBlock: MIFKUJ_clean_linker_0, # of connection points: 2
#     Edge 37, Type (0, 0), BuildingBlock: MIFKUJ_clean_linker_0, # of connection points: 2
#     Edge 38, Type (0, 0), BuildingBlock: MIFKUJ_clean_linker_0, # of connection points: 2
#     Edge 39, Type (0, 0), BuildingBlock: MIFKUJ_clean_linker_0, # of connection points: 2
# Relax obj value: 0.003
# Max RMSD: 0.009
# Mean RMSD: 0.009
data_MOF--net-utj--node1-WUSLED_clean_sbu_0--edge1-MIFKUJ_clean_linker_0
_symmetry_space_group_name_H-M    P1
_symmetry_Int_Tables_number       1
_symmetry_cell_setting            triclinic
loop_
_symmetry_equiv_pos_as_xyz
'x, y, z'
_cell_length_a     90.318416
_cell_length_b     90.624584
_cell_length_c     77.051188
_cell_angle_alpha  89.893296
_cell_angle_beta   90.034688
_cell_angle_gamma 90.125592
loop_
_atom_site_label
_atom_site_type_symbol
_atom_site_fract_x
_atom_site_fract_y
_atom_site_fract_z
_atom_type_partial_charge
C0 C 0.06453 0.42497 0.06302 0.0
C1 C 0.06208 0.43659 0.07468 0.0
C2 C 0.05154 0.45152 0.05142 0.0
C3 C 0.05562 0.44974 0.06893 0.0
C4 C 0.05412 0.43984 0.03979 0.0
C5 C 0.06055 0.42668 0.04556 0.0
U6 U 0.08278 0.4021 0.09839 0.0
O7 O 0.07939 0.37898 0.1061 0.0
O8 O 0.10124 0.3863 0.09706 0.0
C9 C 0.09285 0.37507 0.10157 0.0
C10 C 0.07117 0.41106 0.06897 0.0
C11 C 0.09381 0.362 0.09033 0.0
C12 C 0.08624 0.34833 0.06469 0.0
C13 C 0.08553 0.36104 0.07495 0.0
C14 C 0.10376 0.33757 0.08488 0.0
C15 C 0.09532 0.33641 0.06958 0.0
C16 C 0.10298 0.35025 0.09516 0.0
C17 C 0.08908 0.42021 0.14277 0.0
C18 C 0.09821 0.40703 0.16809 0.0
C19 C 0.0932 0.43324 0.16983 0.0
C20 C 0.08884 0.43327 0.15244 0.0
C21 C 0.09789 0.42011 0.17791 0.0
C22 C 0.09386 0.40708 0.15063 0.0
C23 C 0.084 0.4205 0.12465 0.0
O24 O 0.08543 0.41163 0.07228 0.0
O25 O 0.06361 0.40393 0.08092 0.0
O26 O 0.07238 0.41225 0.12121 0.0
O27 O 0.09442 0.41958 0.1128 0.0
H28 H 0.06516 0.43547 0.08821 0.0
H29 H 0.05396 0.45858 0.07817 0.0
H30 H 0.05096 0.44077 0.02627 0.0
H31 H 0.06235 0.4178 0.03641 0.0
H32 H 0.07975 0.34786 0.05288 0.0
H33 H 0.07845 0.37007 0.07097 0.0
H34 H 0.11072 0.32854 0.08912 0.0
H35 H 0.10944 0.35081 0.107 0.0
H36 H 0.1019 0.39677 0.17386 0.0
H37 H 0.09259 0.44346 0.17706 0.0
H38 H 0.08512 0.44349 0.14657 0.0
H39 H 0.09413 0.39689 0.14331 0.0
C40 C 0.11459 0.06334 0.5634 0.0
C41 C 0.10176 0.06371 0.57364 0.0
C42 C 0.08811 0.0503 0.55136 0.0
C43 C 0.08862 0.05728 0.56766 0.0
C44 C 0.10104 0.04999 0.54117 0.0
C45 C 0.11415 0.05646 0.54715 0.0
U46 U 0.1369 0.08178 0.59913 0.0
O47 O 0.15987 0.07833 0.60758 0.0
O48 O 0.15297 0.10007 0.59798 0.0
C49 C 0.16405 0.09167 0.60291 0.0
C50 C 0.12849 0.06992 0.56966 0.0
C51 C 0.17735 0.09241 0.59194 0.0
C52 C 0.19129 0.08463 0.5666 0.0
C53 C 0.17843 0.08403 0.5767 0.0
C54 C 0.20201 0.10218 0.58672 0.0
C55 C 0.20328 0.09367 0.57152 0.0
C56 C 0.18917 0.10153 0.59682 0.0
C57 C 0.11749 0.08852 0.64282 0.0
C58 C 0.12991 0.09532 0.66966 0.0
C59 C 0.10311 0.09429 0.6685 0.0
C60 C 0.10379 0.09023 0.65105 0.0
C61 C 0.11616 0.09668 0.67811 0.0
C62 C 0.13057 0.09125 0.65213 0.0
C63 C 0.1178 0.08339 0.62473 0.0
O64 O 0.12803 0.08418 0.57268 0.0
O65 O 0.13523 0.06247 0.58197 0.0
O66 O 0.12603 0.07173 0.62175 0.0
O67 O 0.11916 0.09368 0.6128 0.0
H68 H 0.10193 0.06892 0.58629 0.0
H69 H 0.07893 0.05755 0.57592 0.0
H70 H 0.10098 0.04487 0.52847 0.0
H71 H 0.12397 0.05608 0.53908 0.0
H72 H 0.19194 0.07781 0.55511 0.0
H73 H 0.16938 0.07693 0.57271 0.0
H74 H 0.2109 0.10945 0.59075 0.0
H75 H 0.18848 0.10814 0.6085 0.0
H76 H 0.14015 0.09699 0.6767 0.0
H77 H 0.09234 0.09552 0.6745 0.0
H78 H 0.09358 0.08824 0.64402 0.0
H79 H 0.14126 0.09 0.64594 0.0
C80 C 0.47458 0.11187 0.06219 0.0
C81 C 0.47776 0.1004 0.07385 0.0
C82 C 0.48736 0.08538 0.05018 0.0
C83 C 0.48411 0.08728 0.06791 0.0
C84 C 0.48403 0.09692 0.03856 0.0
C85 C 0.4777 0.11004 0.04453 0.0
U86 U 0.45743 0.13458 0.09828 0.0
O87 O 0.46122 0.1576 0.10605 0.0
O88 O 0.43906 0.15053 0.09777 0.0
C89 C 0.44767 0.16166 0.10206 0.0
C90 C 0.46813 0.12578 0.06838 0.0
C91 C 0.44652 0.17484 0.09098 0.0
C92 C 0.45348 0.18868 0.06519 0.0
C93 C 0.4543 0.17584 0.07527 0.0
C94 C 0.43688 0.19952 0.08628 0.0
C95 C 0.44483 0.20073 0.07063 0.0
C96 C 0.43774 0.1867 0.09635 0.0
C97 C 0.45261 0.11611 0.14281 0.0
C98 C 0.44314 0.12875 0.16827 0.0
C99 C 0.45134 0.10337 0.17049 0.0
C100 C 0.45481 0.1034 0.15283 0.0
C101 C 0.44559 0.11608 0.17847 0.0
C102 C 0.44666 0.12877 0.15056 0.0
C103 C 0.45698 0.11598 0.12445 0.0
O104 O 0.45396 0.12521 0.07224 0.0
O105 O 0.47604 0.13286 0.08002 0.0
O106 O 0.46852 0.12417 0.12053 0.0
O107 O 0.44615 0.11709 0.11312 0.0
H108 H 0.47542 0.10164 0.08756 0.0
H109 H 0.48669 0.07872 0.07726 0.0
H110 H 0.48617 0.09576 0.0248 0.0
H111 H 0.47525 0.11877 0.03535 0.0
H112 H 0.45988 0.18928 0.05333 0.0
H113 H 0.46113 0.16676 0.07091 0.0
H114 H 0.42992 0.20846 0.09073 0.0
H115 H 0.4316 0.18607 0.10841 0.0
H116 H 0.43884 0.13874 0.17406 0.0
H117 H 0.45313 0.09336 0.17789 0.0
H118 H 0.45936 0.09352 0.14702 0.0
H119 H 0.44493 0.1387 0.14298 0.0
C120 C 0.42622 0.47239 0.56349 0.0
C121 C 0.43756 0.47613 0.57516 0.0
C122 C 0.45273 0.48528 0.55129 0.0
C123 C 0.45068 0.48255 0.56912 0.0
C124 C 0.44137 0.48136 0.53965 0.0
C125 C 0.42822 0.475 0.54572 0.0
U126 U 0.40355 0.45452 0.5994 0.0
O127 O 0.38053 0.45818 0.60748 0.0
O128 O 0.3874 0.43629 0.59843 0.0
C129 C 0.37632 0.44482 0.60301 0.0
C130 C 0.41229 0.46585 0.56974 0.0
C131 C 0.36311 0.44403 0.59185 0.0
C132 C 0.34898 0.4524 0.56686 0.0
C133 C 0.36178 0.453 0.57707 0.0
C134 C 0.33883 0.43364 0.58589 0.0
C135 C 0.33729 0.44276 0.57119 0.0
C136 C 0.35161 0.43429 0.59613 0.0
C137 C 0.42244 0.44851 0.64359 0.0
C138 C 0.40968 0.44266 0.67052 0.0
C139 C 0.4365 0.44308 0.66967 0.0
C140 C 0.43604 0.44671 0.65206 0.0
C141 C 0.42333 0.44124 0.6792 0.0
C142 C 0.40924 0.44628 0.65284 0.0
C143 C 0.42237 0.4533 0.62535 0.0
O144 O 0.41279 0.45165 0.57318 0.0
O145 O 0.40534 0.47349 0.5817 0.0
O146 O 0.41424 0.46495 0.62186 0.0
O147 O 0.42108 0.44279 0.61371 0.0
H148 H 0.43623 0.4741 0.58894 0.0
H149 H 0.45929 0.48525 0.57839 0.0
H150 H 0.44253 0.48345 0.52587 0.0
H151 H 0.41958 0.47218 0.53655 0.0
H152 H 0.34813 0.45971 0.55577 0.0
H153 H 0.37059 0.46057 0.57353 0.0
H154 H 0.33019 0.4259 0.58946 0.0
H155 H 0.35249 0.42722 0.60743 0.0
H156 H 0.39935 0.44141 0.6775 0.0
H157 H 0.44719 0.44181 0.67586 0.0
H158 H 0.44634 0.44831 0.64508 0.0
H159 H 0.39863 0.44761 0.64647 0.0
C160 C 0.06587 0.11221 0.97708 0.0
C161 C 0.06078 0.10175 0.96506 0.0
C162 C 0.05289 0.0856 0.98865 0.0
C163 C 0.05429 0.08858 0.97079 0.0
C164 C 0.05818 0.09607 1.00063 0.0
C165 C 0.06459 0.10927 0.99488 0.0
U166 U 0.08395 0.13542 0.94182 0.0
O167 O 0.08038 0.15849 0.93414 0.0
O168 O 0.1023 0.15145 0.94325 0.0
C169 C 0.09378 0.16259 0.93883 0.0
C170 C 0.07251 0.1262 0.97121 0.0
C171 C 0.09456 0.17559 0.95022 0.0
C172 C 0.08536 0.18991 0.97458 0.0
C173 C 0.08481 0.17722 0.96427 0.0
C174 C 0.10567 0.19929 0.95721 0.0
C175 C 0.09574 0.20113 0.97111 0.0
C176 C 0.10504 0.18665 0.94685 0.0
C177 C 0.08985 0.11715 0.89728 0.0
C178 C 0.09643 0.13014 0.87073 0.0
C179 C 0.09438 0.10347 0.87078 0.0
C180 C 0.09082 0.10373 0.88841 0.0
C181 C 0.09701 0.11668 0.86165 0.0
C182 C 0.09286 0.13037 0.88843 0.0
C183 C 0.0851 0.11706 0.91552 0.0
O184 O 0.08676 0.12571 0.96785 0.0
O185 O 0.0649 0.13343 0.9594 0.0
O186 O 0.07346 0.12518 0.9191 0.0
O187 O 0.09567 0.11816 0.92718 0.0
H188 H 0.06179 0.10378 0.95125 0.0
H189 H 0.0505 0.08066 0.96125 0.0
H190 H 0.05714 0.09416 1.01445 0.0
H191 H 0.06848 0.11722 1.00433 0.0
H192 H 0.07769 0.19091 0.98532 0.0
H193 H 0.07671 0.16874 0.96718 0.0
H194 H 0.1137 0.20779 0.95411 0.0
H195 H 0.11266 0.18557 0.93606 0.0
H196 H 0.0983 0.1405 0.86406 0.0
H197 H 0.09499 0.09291 0.86427 0.0
H198 H 0.0886 0.09341 0.89508 0.0
H199 H 0.09216 0.14086 0.89511 0.0
C200 C 0.42572 0.06347 0.47656 0.0
C201 C 0.43824 0.06305 0.4658 0.0
C202 C 0.45224 0.05051 0.4885 0.0
C203 C 0.45139 0.05663 0.47172 0.0
C204 C 0.43963 0.05102 0.49922 0.0
C205 C 0.42649 0.05744 0.49328 0.0
U206 U 0.40326 0.08192 0.44095 0.0
O207 O 0.38023 0.07837 0.43266 0.0
O208 O 0.38718 0.10011 0.44219 0.0
C209 C 0.37608 0.09167 0.43733 0.0
C210 C 0.4118 0.07 0.47037 0.0
C211 C 0.36284 0.09232 0.4484 0.0
C212 C 0.34956 0.08536 0.4746 0.0
C213 C 0.36233 0.08481 0.46433 0.0
C214 C 0.33779 0.10107 0.4532 0.0
C215 C 0.3371 0.09345 0.46913 0.0
C216 C 0.35054 0.10048 0.44294 0.0
C217 C 0.42247 0.08909 0.39714 0.0
C218 C 0.41057 0.09309 0.3692 0.0
C219 C 0.43677 0.09807 0.37261 0.0
C220 C 0.43592 0.09387 0.39003 0.0
C221 C 0.42416 0.09751 0.36188 0.0
C222 C 0.40972 0.08893 0.38669 0.0
C223 C 0.42221 0.08381 0.41521 0.0
O224 O 0.41225 0.08427 0.46735 0.0
O225 O 0.40502 0.06256 0.45808 0.0
O226 O 0.41406 0.07205 0.41825 0.0
O227 O 0.42094 0.09401 0.42722 0.0
H228 H 0.43783 0.06768 0.45284 0.0
H229 H 0.46093 0.05659 0.46321 0.0
H230 H 0.43983 0.04625 0.51211 0.0
H231 H 0.4169 0.05762 0.50172 0.0
H232 H 0.34937 0.07923 0.48668 0.0
H233 H 0.37175 0.07845 0.46875 0.0
H234 H 0.32851 0.1076 0.44871 0.0
H235 H 0.35079 0.10641 0.43072 0.0
H236 H 0.40067 0.09243 0.36129 0.0
H237 H 0.44735 0.10169 0.36752 0.0
H238 H 0.44585 0.09415 0.39793 0.0
H239 H 0.3992 0.08532 0.39196 0.0
C240 C 0.47556 0.42364 0.97816 0.0
C241 C 0.47655 0.43596 0.96716 0.0
C242 C 0.48846 0.45013 0.99014 0.0
C243 C 0.48294 0.44909 0.9731 0.0
C244 C 0.48739 0.43773 1.00111 0.0
C245 C 0.48098 0.4246 0.99515 0.0
U246 U 0.45756 0.40131 0.94225 0.0
O247 O 0.46112 0.37839 0.93399 0.0
O248 O 0.43918 0.38532 0.94304 0.0
C249 C 0.44766 0.37426 0.93835 0.0
C250 C 0.46902 0.40976 0.97194 0.0
C251 C 0.44674 0.36102 0.94937 0.0
C252 C 0.4539 0.34729 0.97515 0.0
C253 C 0.45464 0.3601 0.96502 0.0
C254 C 0.43718 0.33628 0.95422 0.0
C255 C 0.44521 0.33518 0.96984 0.0
C256 C 0.43796 0.34908 0.94409 0.0
C257 C 0.45156 0.42068 0.89833 0.0
C258 C 0.44412 0.40835 0.8717 0.0
C259 C 0.4471 0.43493 0.87217 0.0
C260 C 0.45095 0.43427 0.88971 0.0
C261 C 0.44382 0.42197 0.86288 0.0
C262 C 0.44798 0.40771 0.88931 0.0
C263 C 0.45641 0.42033 0.91653 0.0
O264 O 0.45476 0.41023 0.96858 0.0
O265 O 0.47666 0.40294 0.95987 0.0
O266 O 0.46803 0.41208 0.91982 0.0
O267 O 0.44589 0.419 0.9282 0.0
H268 H 0.47245 0.43538 0.95396 0.0
H269 H 0.48376 0.45835 0.96424 0.0
H270 H 0.49135 0.4382 1.01436 0.0
H271 H 0.48027 0.4152 1.00382 0.0
H272 H 0.46036 0.34677 0.98698 0.0
H273 H 0.46146 0.36924 0.9693 0.0
H274 H 0.43019 0.3273 0.94988 0.0
H275 H 0.43173 0.34964 0.93209 0.0
H276 H 0.44174 0.39817 0.86491 0.0
H277 H 0.4467 0.44562 0.86588 0.0
H278 H 0.4536 0.44439 0.89651 0.0
H279 H 0.4484 0.3971 0.89581 0.0
C280 C 0.11365 0.47254 0.47634 0.0
C281 C 0.1017 0.47452 0.46495 0.0
C282 C 0.08707 0.48533 0.48827 0.0
C283 C 0.08852 0.48087 0.47086 0.0
C284 C 0.09909 0.48318 0.49964 0.0
C285 C 0.11226 0.47685 0.49371 0.0
U286 U 0.13676 0.45479 0.44079 0.0
O287 O 0.15985 0.45876 0.43306 0.0
O288 O 0.15307 0.43681 0.44213 0.0
C289 C 0.16411 0.44543 0.43752 0.0
C290 C 0.12765 0.46616 0.47021 0.0
C291 C 0.17732 0.44472 0.44864 0.0
C292 C 0.19038 0.45097 0.47523 0.0
C293 C 0.17758 0.4515 0.46499 0.0
C294 C 0.2027 0.43672 0.45294 0.0
C295 C 0.20314 0.44363 0.46928 0.0
C296 C 0.18991 0.43728 0.44273 0.0
C297 C 0.119 0.44783 0.39632 0.0
C298 C 0.13195 0.44501 0.36886 0.0
C299 C 0.1063 0.43741 0.37137 0.0
C300 C 0.10625 0.44176 0.38877 0.0
C301 C 0.11909 0.43914 0.36116 0.0
C302 C 0.13192 0.44925 0.38632 0.0
C303 C 0.11841 0.45295 0.41445 0.0
O304 O 0.12732 0.45194 0.46692 0.0
O305 O 0.13454 0.47385 0.45819 0.0
O306 O 0.12617 0.46486 0.41802 0.0
O307 O 0.11951 0.44265 0.4264 0.0
H308 H 0.10261 0.47127 0.45147 0.0
H309 H 0.07957 0.48252 0.4617 0.0
H310 H 0.09829 0.48628 0.51317 0.0
H311 H 0.12137 0.47534 0.50268 0.0
H312 H 0.19038 0.45654 0.48765 0.0
H313 H 0.16793 0.45731 0.46975 0.0
H314 H 0.21222 0.43078 0.44806 0.0
H315 H 0.18987 0.43192 0.43016 0.0
H316 H 0.14202 0.44632 0.36138 0.0
H317 H 0.09618 0.43308 0.36577 0.0
H318 H 0.09618 0.44058 0.39627 0.0
H319 H 0.14194 0.45379 0.39194 0.0
C320 C 0.97068 0.61251 0.97866 0.0
C321 C 0.9729 0.60074 0.96715 0.0
C322 C 0.98301 0.58577 0.99063 0.0
C323 C 0.97903 0.58749 0.97308 0.0
C324 C 0.98058 0.59757 1.00213 0.0
C325 C 0.97448 0.61083 0.99617 0.0
U326 U 0.95445 0.63569 0.94233 0.0
O327 O 0.93676 0.65231 0.94231 0.0
O328 O 0.95927 0.65855 0.93441 0.0
C329 C 0.94584 0.66311 0.93813 0.0
C330 C 0.9647 0.62662 0.97239 0.0
C331 C 0.94504 0.67647 0.94895 0.0
C332 C 0.94246 0.68847 0.97699 0.0
C333 C 0.94317 0.67559 0.96701 0.0
C334 C 0.9457 0.70321 0.951 0.0
C335 C 0.94375 0.70243 0.96909 0.0
C336 C 0.9463 0.69035 0.94104 0.0
C337 C 0.94914 0.61702 0.898 0.0
C338 C 0.94287 0.63 0.87136 0.0
C339 C 0.94522 0.60336 0.87133 0.0
C340 C 0.94849 0.60361 0.88904 0.0
C341 C 0.94256 0.61656 0.86221 0.0
C342 C 0.94615 0.63022 0.88914 0.0
C343 C 0.95342 0.61694 0.9164 0.0
O344 O 0.9729 0.63339 0.96075 0.0
O345 O 0.95054 0.62655 0.96844 0.0
O346 O 0.94258 0.61853 0.92761 0.0
O347 O 0.96524 0.62474 0.92031 0.0
H348 H 0.96998 0.60184 0.95357 0.0
H349 H 0.98057 0.57857 0.96393 0.0
H350 H 0.98367 0.59667 1.01568 0.0
H351 H 0.97287 0.61983 1.00522 0.0
H352 H 0.94112 0.6875 0.99091 0.0
H353 H 0.94231 0.66496 0.9734 0.0
H354 H 0.94657 0.71379 0.9445 0.0
H355 H 0.94776 0.69124 0.92711 0.0
H356 H 0.94097 0.64036 0.8647 0.0
H357 H 0.94481 0.59282 0.86476 0.0
H358 H 0.9507 0.59331 0.89572 0.0
H359 H 0.94661 0.64069 0.8959 0.0
C360 C 0.92618 0.97047 0.47796 0.0
C361 C 0.93904 0.96996 0.46776 0.0
C362 C 0.95281 0.98308 0.49018 0.0
C363 C 0.95225 0.97618 0.47383 0.0
C364 C 0.93987 0.98349 0.50035 0.0
C365 C 0.92668 0.97723 0.49428 0.0
U366 U 0.90356 0.95297 0.44183 0.0
O367 O 0.88698 0.93519 0.44243 0.0
O368 O 0.88067 0.95728 0.43338 0.0
C369 C 0.87614 0.94398 0.43767 0.0
C370 C 0.91216 0.96428 0.47153 0.0
C371 C 0.8627 0.94338 0.44844 0.0
C372 C 0.85061 0.94288 0.47662 0.0
C373 C 0.86354 0.9435 0.46664 0.0
C374 C 0.83588 0.94224 0.45034 0.0
C375 C 0.83662 0.94227 0.46858 0.0
C376 C 0.8488 0.94277 0.44038 0.0
C377 C 0.9228 0.94599 0.39814 0.0
C378 C 0.91049 0.94156 0.37055 0.0
C379 C 0.93695 0.93783 0.37318 0.0
C380 C 0.9363 0.94191 0.39063 0.0
C381 C 0.9241 0.93781 0.36283 0.0
C382 C 0.90984 0.94561 0.38807 0.0
C383 C 0.92266 0.95104 0.41627 0.0
O384 O 0.90567 0.97204 0.45929 0.0
O385 O 0.91226 0.95004 0.4683 0.0
O386 O 0.92102 0.9407 0.42811 0.0
O387 O 0.91481 0.96293 0.41942 0.0
H388 H 0.93881 0.96484 0.45506 0.0
H389 H 0.96195 0.97583 0.46559 0.0
H390 H 0.93997 0.98855 0.51307 0.0
H391 H 0.91685 0.97771 0.50231 0.0
H392 H 0.85154 0.94309 0.49064 0.0
H393 H 0.87418 0.94409 0.4731 0.0
H394 H 0.8253 0.94162 0.44376 0.0
H395 H 0.84795 0.94268 0.42635 0.0
H396 H 0.9004 0.94176 0.36295 0.0
H397 H 0.94756 0.93472 0.36777 0.0
H398 H 0.94639 0.94205 0.39824 0.0
H399 H 0.8993 0.94868 0.39368 0.0
C400 C 0.56774 0.92435 0.97758 0.0
C401 C 0.56462 0.93585 0.96593 0.0
C402 C 0.55524 0.95095 0.98964 0.0
C403 C 0.5584 0.94902 0.97189 0.0
C404 C 0.55853 0.9394 1.00126 0.0
C405 C 0.56472 0.92622 0.99526 0.0
U406 U 0.58448 0.90143 0.94142 0.0
O407 O 0.60272 0.88538 0.94168 0.0
O408 O 0.58042 0.87836 0.93386 0.0
C409 C 0.594 0.87427 0.93764 0.0
C410 C 0.57403 0.91038 0.97137 0.0
C411 C 0.59519 0.86111 0.94876 0.0
C412 C 0.59574 0.84955 0.97725 0.0
C413 C 0.59484 0.86224 0.96691 0.0
C414 C 0.59725 0.83448 0.95137 0.0
C415 C 0.59691 0.83549 0.9696 0.0
C416 C 0.59641 0.84718 0.94107 0.0
C417 C 0.58936 0.91983 0.8968 0.0
C418 C 0.60384 0.90998 0.8729 0.0
C419 C 0.58749 0.93075 0.86811 0.0
C420 C 0.5833 0.93034 0.88554 0.0
C421 C 0.59791 0.92066 0.86157 0.0
C422 C 0.59959 0.90956 0.89038 0.0
C423 C 0.58491 0.91992 0.91516 0.0
O424 O 0.56599 0.90336 0.9598 0.0
O425 O 0.58818 0.9108 0.96741 0.0
O426 O 0.5957 0.9189 0.92657 0.0
O427 O 0.57335 0.91175 0.91907 0.0
H428 H 0.56689 0.93457 0.9522 0.0
H429 H 0.55585 0.95759 0.96255 0.0
H430 H 0.55645 0.94059 1.01502 0.0
H431 H 0.56713 0.91748 1.00444 0.0
H432 H 0.59562 0.85077 0.99122 0.0
H433 H 0.59385 0.87293 0.97308 0.0
H434 H 0.59788 0.82386 0.94501 0.0
H435 H 0.59659 0.84609 0.92707 0.0
H436 H 0.61196 0.90212 0.86834 0.0
H437 H 0.58246 0.93893 0.85971 0.0
H438 H 0.57531 0.93829 0.89026 0.0
H439 H 0.60435 0.90131 0.89889 0.0
C440 C 0.61362 0.56653 0.47691 0.0
C441 C 0.60238 0.56289 0.46507 0.0
C442 C 0.58687 0.55388 0.48873 0.0
C443 C 0.58914 0.55658 0.47093 0.0
C444 C 0.59815 0.5577 0.50053 0.0
C445 C 0.61141 0.56395 0.49465 0.0
U446 U 0.63704 0.58424 0.44148 0.0
O447 O 0.65325 0.60241 0.44287 0.0
O448 O 0.6602 0.58048 0.43403 0.0
C449 C 0.66437 0.59386 0.43851 0.0
C450 C 0.62767 0.57296 0.4709 0.0
C451 C 0.67751 0.59474 0.44976 0.0
C452 C 0.69195 0.58613 0.4744 0.0
C453 C 0.67914 0.58542 0.4642 0.0
C454 C 0.70146 0.60572 0.45608 0.0
C455 C 0.70333 0.59623 0.4704 0.0
C456 C 0.68869 0.60495 0.44586 0.0
C457 C 0.61961 0.59081 0.39674 0.0
C458 C 0.633 0.59427 0.36966 0.0
C459 C 0.60692 0.60032 0.37128 0.0
C460 C 0.60673 0.59607 0.38872 0.0
C461 C 0.62002 0.59933 0.36149 0.0
C462 C 0.63282 0.59011 0.38717 0.0
C463 C 0.6189 0.58578 0.4149 0.0
O464 O 0.63474 0.56527 0.45909 0.0
O465 O 0.62734 0.58716 0.46745 0.0
O466 O 0.61987 0.59615 0.42675 0.0
O467 O 0.62671 0.57397 0.41868 0.0
H468 H 0.60388 0.5649 0.45132 0.0
H469 H 0.58061 0.55394 0.46154 0.0
H470 H 0.59683 0.55562 0.51429 0.0
H471 H 0.61997 0.5667 0.50395 0.0
H472 H 0.69306 0.57855 0.4852 0.0
H473 H 0.67058 0.57748 0.46746 0.0
H474 H 0.70984 0.61382 0.45279 0.0
H475 H 0.68756 0.6123 0.43483 0.0
H476 H 0.6433 0.59353 0.36251 0.0
H477 H 0.59671 0.604 0.36532 0.0
H478 H 0.59643 0.59668 0.3959 0.0
H479 H 0.64293 0.5862 0.39316 0.0
C480 C 0.97104 0.92529 0.06245 0.0
C481 C 0.97617 0.93587 0.0743 0.0
C482 C 0.98379 0.95187 0.05046 0.0
C483 C 0.98254 0.94902 0.06836 0.0
C484 C 0.97842 0.9413 0.03865 0.0
C485 C 0.97213 0.92811 0.04461 0.0
U486 U 0.95448 0.902 0.09858 0.0
O487 O 0.9362 0.88591 0.09839 0.0
O488 O 0.95854 0.87891 0.10595 0.0
C489 C 0.94493 0.87479 0.10231 0.0
C490 C 0.96465 0.91127 0.06857 0.0
C491 C 0.94364 0.86176 0.09109 0.0
C492 C 0.94553 0.85009 0.06281 0.0
C493 C 0.94647 0.8627 0.07322 0.0
C494 C 0.93889 0.83551 0.08803 0.0
C495 C 0.94177 0.83631 0.0701 0.0
C496 C 0.93981 0.84812 0.0984 0.0
C497 C 0.95034 0.92002 0.14341 0.0
C498 C 0.9417 0.90703 0.16913 0.0
C499 C 0.94893 0.93274 0.17102 0.0
C500 C 0.95217 0.93282 0.15331 0.0
C501 C 0.94379 0.91982 0.1792 0.0
C502 C 0.94498 0.90712 0.15135 0.0
C503 C 0.95442 0.92032 0.12496 0.0
O504 O 0.97274 0.90402 0.07991 0.0
O505 O 0.95055 0.91172 0.07275 0.0
O506 O 0.9434 0.91925 0.11387 0.0
O507 O 0.96591 0.91223 0.12071 0.0
H508 H 0.97531 0.93392 0.08814 0.0
H509 H 0.98638 0.95702 0.07779 0.0
H510 H 0.97934 0.94311 0.0248 0.0
H511 H 0.96821 0.92006 0.03528 0.0
H512 H 0.94765 0.85115 0.04903 0.0
H513 H 0.94946 0.87317 0.06736 0.0
H514 H 0.93619 0.82507 0.09414 0.0
H515 H 0.93767 0.84719 0.1122 0.0
H516 H 0.93786 0.89687 0.17505 0.0
H517 H 0.95042 0.94284 0.17832 0.0
H518 H 0.95624 0.94288 0.14735 0.0
H519 H 0.94352 0.89712 0.14386 0.0
C520 C 0.61315 0.96915 0.56194 0.0
C521 C 0.60067 0.96963 0.57274 0.0
C522 C 0.58648 0.98169 0.54985 0.0
C523 C 0.58744 0.97583 0.56675 0.0
C524 C 0.59904 0.98109 0.53907 0.0
C525 C 0.61226 0.97488 0.54508 0.0
U526 U 0.63645 0.95314 0.59843 0.0
O527 O 0.65269 0.93509 0.59851 0.0
O528 O 0.65962 0.95749 0.60569 0.0
C529 C 0.6638 0.94392 0.60227 0.0
C530 C 0.62721 0.96302 0.56827 0.0
C531 C 0.67693 0.94263 0.59111 0.0
C532 C 0.68846 0.94268 0.56261 0.0
C533 C 0.67578 0.94367 0.57299 0.0
C534 C 0.70354 0.93964 0.58839 0.0
C535 C 0.70252 0.94068 0.5702 0.0
C536 C 0.69086 0.94059 0.59872 0.0
C537 C 0.61874 0.94911 0.64343 0.0
C538 C 0.62951 0.93557 0.6676 0.0
C539 C 0.60895 0.95218 0.67253 0.0
C540 C 0.60862 0.95561 0.65485 0.0
C541 C 0.6194 0.94214 0.67913 0.0
C542 C 0.62923 0.93909 0.64989 0.0
C543 C 0.6182 0.95311 0.62494 0.0
O544 O 0.63427 0.97127 0.57958 0.0
O545 O 0.62686 0.94899 0.57263 0.0
O546 O 0.61918 0.94213 0.61386 0.0
O547 O 0.62619 0.96464 0.62048 0.0
H548 H 0.60119 0.96525 0.58583 0.0
H549 H 0.57795 0.97593 0.57532 0.0
H550 H 0.59876 0.98567 0.52608 0.0
H551 H 0.62183 0.97466 0.5366 0.0
H552 H 0.68724 0.94335 0.54865 0.0
H553 H 0.6651 0.94529 0.56688 0.0
H554 H 0.71417 0.93836 0.59471 0.0
H555 H 0.69195 0.93986 0.6127 0.0
H556 H 0.63777 0.9279 0.67233 0.0
H557 H 0.60088 0.95727 0.68101 0.0
H558 H 0.60045 0.96336 0.65008 0.0
H559 H 0.63721 0.93404 0.64127 0.0
C560 C 0.56845 0.61188 0.06229 0.0
C561 C 0.5676 0.59957 0.07331 0.0
C562 C 0.55594 0.58521 0.0503 0.0
C563 C 0.56141 0.58634 0.06737 0.0
C564 C 0.55694 0.5976 0.0393 0.0
C565 C 0.56314 0.61081 0.04526 0.0
U566 U 0.58563 0.63482 0.09828 0.0
O567 O 0.60346 0.65138 0.09766 0.0
O568 O 0.58122 0.65768 0.10633 0.0
C569 C 0.5946 0.6622 0.10221 0.0
C570 C 0.57461 0.62592 0.06855 0.0
C571 C 0.59526 0.67554 0.09135 0.0
C572 C 0.59461 0.6876 0.06315 0.0
C573 C 0.59407 0.67473 0.07322 0.0
C574 C 0.59741 0.7022 0.08927 0.0
C575 C 0.59623 0.7015 0.07108 0.0
C576 C 0.59694 0.68934 0.09929 0.0
C577 C 0.59218 0.61654 0.14246 0.0
C578 C 0.60029 0.63008 0.16796 0.0
C579 C 0.59683 0.60358 0.1695 0.0
C580 C 0.59264 0.60341 0.15204 0.0
C581 C 0.60064 0.61693 0.17771 0.0
C582 C 0.59612 0.62988 0.15045 0.0
C583 C 0.58727 0.61612 0.12428 0.0
O584 O 0.5667 0.63256 0.08053 0.0
O585 O 0.58885 0.62583 0.07204 0.0
O586 O 0.59775 0.6176 0.11258 0.0
O587 O 0.57537 0.62388 0.12074 0.0
H588 H 0.57161 0.60024 0.08654 0.0
H589 H 0.56066 0.57709 0.07625 0.0
H590 H 0.55302 0.59705 0.02603 0.0
H591 H 0.56374 0.62022 0.03658 0.0
H592 H 0.5935 0.6867 0.0492 0.0
H593 H 0.59266 0.66416 0.06687 0.0
H594 H 0.59884 0.7127 0.09575 0.0
H595 H 0.59788 0.69016 0.11328 0.0
H596 H 0.6033 0.64051 0.17384 0.0
H597 H 0.59676 0.59329 0.17667 0.0
H598 H 0.58959 0.59303 0.14607 0.0
H599 H 0.59586 0.64013 0.14319 0.0
C600 C 0.92637 0.56615 0.56268 0.0
C601 C 0.93847 0.56408 0.57384 0.0
C602 C 0.95276 0.55336 0.55019 0.0
C603 C 0.95155 0.55774 0.56765 0.0
C604 C 0.94059 0.55557 0.53906 0.0
C605 C 0.92752 0.56191 0.54527 0.0
U606 U 0.90416 0.58375 0.59898 0.0
O607 O 0.88809 0.60196 0.59845 0.0
O608 O 0.8812 0.57999 0.60735 0.0
C609 C 0.87702 0.59342 0.60317 0.0
C610 C 0.91251 0.57259 0.56913 0.0
C611 C 0.86369 0.59434 0.59227 0.0
C612 C 0.85058 0.589 0.56546 0.0
C613 C 0.86346 0.58828 0.57554 0.0
C614 C 0.83811 0.60195 0.58871 0.0
C615 C 0.83772 0.59579 0.57195 0.0
C616 C 0.85098 0.60122 0.59876 0.0
C617 C 0.92353 0.58967 0.64284 0.0
C618 C 0.91097 0.5961 0.66968 0.0
C619 C 0.93777 0.59511 0.66877 0.0
C620 C 0.93718 0.59126 0.65124 0.0
C621 C 0.92468 0.59739 0.67828 0.0
C622 C 0.9104 0.59226 0.65209 0.0
C623 C 0.92328 0.58487 0.62463 0.0
O624 O 0.90573 0.56486 0.58121 0.0
O625 O 0.91304 0.58678 0.57261 0.0
O626 O 0.92194 0.5954 0.61299 0.0
O627 O 0.91506 0.57324 0.62128 0.0
H628 H 0.93776 0.56729 0.58735 0.0
H629 H 0.96062 0.55603 0.57663 0.0
H630 H 0.9412 0.55253 0.52549 0.0
H631 H 0.91829 0.56348 0.53647 0.0
H632 H 0.85062 0.58399 0.5527 0.0
H633 H 0.8732 0.58291 0.57034 0.0
H634 H 0.82849 0.60745 0.59402 0.0
H635 H 0.851 0.606 0.61164 0.0
H636 H 0.90069 0.59769 0.67665 0.0
H637 H 0.94851 0.59628 0.67488 0.0
H638 H 0.94742 0.58938 0.64426 0.0
H639 H 0.89974 0.59109 0.64577 0.0
H640 H 0.11413 0.4408 0.19552 0.0
H641 H 0.11929 0.44177 0.22661 0.0
H642 H 0.0965 0.40032 0.23376 0.0
H643 H 0.09086 0.39952 0.2027 0.0
H644 H 0.08761 0.42012 0.25708 0.0
H645 H 0.13437 0.40261 0.23676 0.0
H646 H 0.15683 0.40254 0.21858 0.0
H647 H 0.16911 0.4451 0.2384 0.0
H648 H 0.14661 0.44552 0.25653 0.0
H649 H 0.10724 0.41454 0.34588 0.0
H650 H 0.10535 0.40913 0.31485 0.0
H651 H 0.12816 0.4498 0.30304 0.0
H652 H 0.13024 0.45516 0.33404 0.0
H653 H 0.13752 0.42839 0.28222 0.0
H654 H 0.09001 0.4468 0.30058 0.0
H655 H 0.06745 0.44727 0.31857 0.0
H656 H 0.05652 0.40333 0.30211 0.0
H657 H 0.07914 0.40253 0.28419 0.0
C658 C 0.11021 0.43188 0.2037 0.0
C659 C 0.10203 0.42011 0.19662 0.0
C660 C 0.11331 0.43237 0.22146 0.0
C661 C 0.10841 0.42104 0.23252 0.0
C662 C 0.10044 0.40916 0.22547 0.0
C663 C 0.09733 0.40866 0.20769 0.0
C664 C 0.11092 0.42203 0.25156 0.0
C665 C 0.09856 0.42165 0.2626 0.0
C666 C 0.12516 0.42438 0.25874 0.0
C667 C 0.13873 0.42415 0.2479 0.0
C668 C 0.1418 0.41201 0.23714 0.0
C669 C 0.15455 0.41189 0.22687 0.0
C670 C 0.16438 0.42382 0.22731 0.0
C671 C 0.16149 0.43587 0.23806 0.0
C672 C 0.14874 0.43604 0.24836 0.0
C673 C 0.11187 0.42231 0.33666 0.0
C674 C 0.1188 0.43533 0.3424 0.0
C675 C 0.11078 0.41921 0.31893 0.0
C676 C 0.1164 0.42917 0.30658 0.0
C677 C 0.12374 0.44194 0.31231 0.0
C678 C 0.12494 0.44499 0.33004 0.0
C679 C 0.11421 0.42658 0.2877 0.0
C680 C 0.1266 0.42671 0.2767 0.0
C681 C 0.09999 0.42404 0.28051 0.0
C682 C 0.08634 0.42455 0.29119 0.0
C683 C 0.08285 0.4372 0.30089 0.0
C684 C 0.07004 0.43753 0.31106 0.0
C685 C 0.06058 0.42532 0.31152 0.0
C686 C 0.06388 0.41277 0.30176 0.0
C687 C 0.07668 0.41237 0.29159 0.0
H688 H 0.05067 0.4256 0.3194 0.0
H689 H 0.17424 0.42371 0.21935 0.0
H690 H 0.09782 0.08432 0.70227 0.0
H691 H 0.09575 0.09033 0.73299 0.0
H692 H 0.13061 0.12262 0.72768 0.0
H693 H 0.13269 0.11671 0.6967 0.0
H694 H 0.13392 0.10605 0.75707 0.0
H695 H 0.09538 0.13404 0.73075 0.0
H696 H 0.07378 0.13849 0.7119 0.0
H697 H 0.04819 0.10741 0.74152 0.0
H698 H 0.06971 0.1026 0.7604 0.0
H699 H 0.11724 0.1328 0.84278 0.0
H700 H 0.12159 0.13191 0.81138 0.0
H701 H 0.08755 0.09874 0.80625 0.0
H702 H 0.08288 0.09987 0.83738 0.0
H703 H 0.08498 0.11946 0.78155 0.0
H704 H 0.12447 0.08983 0.80591 0.0
H705 H 0.1462 0.08529 0.82455 0.0
H706 H 0.17003 0.1199 0.79854 0.0
H707 H 0.14836 0.12477 0.77988 0.0
C708 C 0.10495 0.09282 0.70755 0.0
C709 C 0.1153 0.10017 0.69696 0.0
C710 C 0.10378 0.09622 0.72515 0.0
C711 C 0.11285 0.10711 0.73258 0.0
C712 C 0.12346 0.11423 0.72219 0.0
C713 C 0.12466 0.11081 0.70451 0.0
C714 C 0.11113 0.11092 0.75121 0.0
C715 C 0.12329 0.10926 0.7624 0.0
C716 C 0.09722 0.11496 0.75819 0.0
C717 C 0.0842 0.11789 0.74692 0.0
C718 C 0.08518 0.12808 0.73317 0.0
C719 C 0.07294 0.13068 0.72249 0.0
C720 C 0.05963 0.12322 0.72549 0.0
C721 C 0.05851 0.11317 0.7392 0.0
C722 C 0.07072 0.11052 0.74992 0.0
C723 C 0.11062 0.12541 0.83493 0.0
C724 C 0.09978 0.11633 0.84261 0.0
C725 C 0.1132 0.12482 0.81701 0.0
C726 C 0.10499 0.11515 0.80648 0.0
C727 C 0.09405 0.10626 0.81411 0.0
C728 C 0.09148 0.10682 0.83195 0.0
C729 C 0.10766 0.11418 0.78749 0.0
C730 C 0.09566 0.11643 0.77622 0.0
C731 C 0.12171 0.11072 0.78046 0.0
C732 C 0.13474 0.10778 0.79165 0.0
C733 C 0.1343 0.09655 0.80427 0.0
C734 C 0.14661 0.0939 0.81481 0.0
C735 C 0.15947 0.10233 0.81277 0.0
C736 C 0.16006 0.1134 0.80013 0.0
C737 C 0.14776 0.1161 0.78956 0.0
H738 H 0.169 0.10026 0.82094 0.0
H739 H 0.05017 0.12525 0.7172 0.0
H740 H 0.40461 0.11291 0.34132 0.0
H741 H 0.40681 0.11833 0.31025 0.0
H742 H 0.44865 0.09552 0.30884 0.0
H743 H 0.44647 0.08992 0.33969 0.0
H744 H 0.45013 0.12156 0.29177 0.0
H745 H 0.41708 0.07947 0.29373 0.0
H746 H 0.39458 0.066 0.3027 0.0
H747 H 0.36744 0.09931 0.27908 0.0
H748 H 0.38979 0.11308 0.27017 0.0
H749 H 0.46268 0.10448 0.20433 0.0
H750 H 0.45753 0.10383 0.23538 0.0
H751 H 0.41669 0.12736 0.22688 0.0
H752 H 0.42161 0.12771 0.19556 0.0
H753 H 0.41286 0.10426 0.24902 0.0
H754 H 0.44584 0.14508 0.24442 0.0
H755 H 0.46827 0.15855 0.23525 0.0
H756 H 0.49539 0.12814 0.26381 0.0
H757 H 0.47314 0.11435 0.27295 0.0
C758 C 0.41423 0.10896 0.33436 0.0
C759 C 0.42539 0.10101 0.34304 0.0
C760 C 0.41548 0.1121 0.31662 0.0
C761 C 0.42788 0.10728 0.30721 0.0
C762 C 0.43904 0.09943 0.31586 0.0
C763 C 0.4378 0.09629 0.33354 0.0
C764 C 0.42933 0.11028 0.28832 0.0
C765 C 0.44203 0.11769 0.28241 0.0
C766 C 0.41852 0.10567 0.27615 0.0
C767 C 0.4051 0.09739 0.28147 0.0
C768 C 0.40631 0.08398 0.29058 0.0
C769 C 0.39359 0.07629 0.29562 0.0
C770 C 0.37959 0.08182 0.29151 0.0
C771 C 0.37829 0.09505 0.28229 0.0
C772 C 0.39098 0.1028 0.27723 0.0
C773 C 0.45255 0.10945 0.20902 0.0
C774 C 0.44253 0.11611 0.19745 0.0
C775 C 0.44969 0.1092 0.22681 0.0
C776 C 0.43681 0.1157 0.2335 0.0
C777 C 0.42674 0.12233 0.22201 0.0
C778 C 0.42961 0.12262 0.20415 0.0
C779 C 0.43385 0.11521 0.25245 0.0
C780 C 0.42087 0.10831 0.25838 0.0
C781 C 0.44438 0.12033 0.26467 0.0
C782 C 0.45781 0.12862 0.25927 0.0
C783 C 0.45659 0.1412 0.24865 0.0
C784 C 0.46927 0.1489 0.24347 0.0
C785 C 0.48324 0.14419 0.24892 0.0
C786 C 0.48456 0.13178 0.25959 0.0
C787 C 0.47191 0.12402 0.26479 0.0
H788 H 0.49305 0.15017 0.2449 0.0
H789 H 0.36975 0.07585 0.29543 0.0
H790 H 0.45772 0.4388 0.83837 0.0
H791 H 0.45183 0.44096 0.80759 0.0
H792 H 0.41675 0.40899 0.81352 0.0
H793 H 0.42254 0.40681 0.84454 0.0
H794 H 0.43291 0.40414 0.78407 0.0
H795 H 0.40818 0.44487 0.81009 0.0
H796 H 0.40563 0.46682 0.8287 0.0
H797 H 0.43855 0.48951 0.79852 0.0
H798 H 0.44145 0.46761 0.77988 0.0
H799 H 0.40622 0.42223 0.6986 0.0
H800 H 0.4074 0.41794 0.73001 0.0
H801 H 0.44313 0.4494 0.73407 0.0
H802 H 0.44172 0.45407 0.70294 0.0
H803 H 0.42309 0.45366 0.75907 0.0
H804 H 0.44929 0.41195 0.73484 0.0
H805 H 0.45191 0.38986 0.71645 0.0
H806 H 0.41584 0.36901 0.74334 0.0
H807 H 0.41289 0.39107 0.76175 0.0
C808 C 0.44865 0.43231 0.8332 0.0
C809 C 0.44047 0.42277 0.84398 0.0
C810 C 0.44533 0.43353 0.81558 0.0
C811 C 0.43369 0.42533 0.8083 0.0
C812 C 0.42574 0.41547 0.81888 0.0
C813 C 0.42909 0.41422 0.83658 0.0
C814 C 0.42989 0.42721 0.78967 0.0
C815 C 0.43049 0.41492 0.77864 0.0
C816 C 0.42688 0.4413 0.78255 0.0
C817 C 0.4251 0.45455 0.79366 0.0
C818 C 0.41495 0.4545 0.80749 0.0
C819 C 0.41343 0.46694 0.81804 0.0
C820 C 0.42194 0.47954 0.81481 0.0
C821 C 0.43197 0.47974 0.80101 0.0
C822 C 0.43354 0.46732 0.79043 0.0
C823 C 0.41426 0.4283 0.70622 0.0
C824 C 0.42395 0.43842 0.69823 0.0
C825 C 0.415 0.42574 0.72414 0.0
C826 C 0.42546 0.43325 0.73438 0.0
C827 C 0.435 0.44346 0.72644 0.0
C828 C 0.43428 0.446 0.70859 0.0
C829 C 0.42652 0.43066 0.75339 0.0
C830 C 0.42535 0.44284 0.76452 0.0
C831 C 0.42896 0.41647 0.76056 0.0
C832 C 0.43075 0.40322 0.74952 0.0
C833 C 0.44184 0.4027 0.73673 0.0
C834 C 0.4434 0.39018 0.72632 0.0
C835 C 0.43402 0.37806 0.72868 0.0
C836 C 0.42308 0.37842 0.7415 0.0
C837 C 0.42146 0.39092 0.75193 0.0
H838 H 0.43525 0.36838 0.72062 0.0
H839 H 0.42075 0.48916 0.82299 0.0
H840 H 0.92236 0.63249 0.84315 0.0
H841 H 0.91826 0.63164 0.8117 0.0
H842 H 0.9526 0.5989 0.80686 0.0
H843 H 0.95703 0.6 0.83805 0.0
H844 H 0.9552 0.61966 0.78225 0.0
H845 H 0.91573 0.58956 0.80602 0.0
H846 H 0.8939 0.58471 0.82441 0.0
H847 H 0.87002 0.61917 0.79834 0.0
H848 H 0.89178 0.62435 0.77994 0.0
H849 H 0.9429 0.58493 0.70248 0.0
H850 H 0.9448 0.59071 0.73328 0.0
H851 H 0.90993 0.62285 0.728 0.0
H852 H 0.90804 0.61719 0.69695 0.0
H853 H 0.90647 0.60595 0.75718 0.0
H854 H 0.94506 0.63446 0.7315 0.0
H855 H 0.96676 0.63923 0.7129 0.0
H856 H 0.99228 0.60815 0.74247 0.0
H857 H 0.97066 0.60303 0.76109 0.0
C858 C 0.92911 0.6252 0.83535 0.0
C859 C 0.93996 0.61624 0.84314 0.0
C860 C 0.92667 0.62464 0.81741 0.0
C861 C 0.93503 0.6151 0.80694 0.0
C862 C 0.94599 0.60632 0.81467 0.0
C863 C 0.94842 0.60686 0.83254 0.0
C864 C 0.93251 0.61415 0.78791 0.0
C865 C 0.94457 0.61656 0.77678 0.0
C866 C 0.91851 0.61059 0.78072 0.0
C867 C 0.90543 0.60746 0.79176 0.0
C868 C 0.90586 0.59619 0.80431 0.0
C869 C 0.89349 0.59336 0.81471 0.0
C870 C 0.8806 0.60166 0.81258 0.0
C871 C 0.88002 0.61277 0.8 0.0
C872 C 0.89237 0.61565 0.78958 0.0
C873 C 0.93573 0.59335 0.70779 0.0
C874 C 0.92544 0.60072 0.69718 0.0
C875 C 0.9368 0.59661 0.72543 0.0
C876 C 0.92768 0.60739 0.7329 0.0
C877 C 0.91712 0.61454 0.72249 0.0
C878 C 0.91603 0.61126 0.70477 0.0
C879 C 0.92928 0.61106 0.75159 0.0
C880 C 0.91705 0.60922 0.76263 0.0
C881 C 0.94312 0.61518 0.75873 0.0
C882 C 0.9562 0.61829 0.74762 0.0
C883 C 0.95526 0.62856 0.73396 0.0
C884 C 0.96756 0.63134 0.72342 0.0
C885 C 0.98088 0.62397 0.72648 0.0
C886 C 0.98195 0.61384 0.74011 0.0
C887 C 0.96968 0.61101 0.75067 0.0
H888 H 0.99039 0.62614 0.71831 0.0
H889 H 0.87103 0.59945 0.82064 0.0
H890 H 0.92056 0.90709 0.19681 0.0
H891 H 0.91592 0.90752 0.22817 0.0
H892 H 0.95583 0.93294 0.23578 0.0
H893 H 0.96074 0.9322 0.20466 0.0
H894 H 0.95351 0.91137 0.25957 0.0
H895 H 0.92158 0.94916 0.23565 0.0
H896 H 0.90177 0.95864 0.21663 0.0
H897 H 0.87068 0.92876 0.24009 0.0
H898 H 0.89037 0.91897 0.2591 0.0
H899 H 0.9455 0.94651 0.33993 0.0
H900 H 0.94745 0.94068 0.30916 0.0
H901 H 0.90675 0.91582 0.3119 0.0
H902 H 0.90479 0.92148 0.34293 0.0
H903 H 0.90766 0.93364 0.28326 0.0
H904 H 0.93897 0.8977 0.30936 0.0
H905 H 0.95868 0.88839 0.32859 0.0
H906 H 0.99085 0.91445 0.30119 0.0
H907 H 0.97129 0.9241 0.28194 0.0
C908 C 0.92841 0.91265 0.2052 0.0
C909 C 0.94097 0.91971 0.19822 0.0
C910 C 0.92568 0.91298 0.22309 0.0
C911 C 0.93545 0.9204 0.23431 0.0
C912 C 0.94812 0.92718 0.22739 0.0
C913 C 0.95084 0.92687 0.20956 0.0
C914 C 0.93255 0.9213 0.25325 0.0
C915 C 0.94353 0.91633 0.26474 0.0
C916 C 0.91931 0.92732 0.26004 0.0
C917 C 0.90748 0.93321 0.24864 0.0
C918 C 0.91054 0.94453 0.23664 0.0
C919 C 0.89934 0.94997 0.22589 0.0
C920 C 0.88499 0.94427 0.22711 0.0
C921 C 0.88181 0.93314 0.23913 0.0
C922 C 0.89298 0.92765 0.2499 0.0
C923 C 0.93705 0.93963 0.33409 0.0
C924 C 0.92507 0.93433 0.34398 0.0
C925 C 0.93816 0.93635 0.31646 0.0
C926 C 0.92737 0.92763 0.30828 0.0
C927 C 0.91523 0.92253 0.31797 0.0
C928 C 0.91411 0.92581 0.33569 0.0
C929 C 0.92881 0.92408 0.28954 0.0
C930 C 0.91755 0.92851 0.2781 0.0
C931 C 0.9418 0.91753 0.28278 0.0
C932 C 0.95363 0.91171 0.29428 0.0
C933 C 0.95022 0.90153 0.30751 0.0
C934 C 0.96138 0.89618 0.3184 0.0
C935 C 0.976 0.90084 0.31613 0.0
C936 C 0.97951 0.91085 0.30294 0.0
C937 C 0.9684 0.91625 0.29202 0.0
H938 H 0.98462 0.89669 0.32458 0.0
H939 H 0.87632 0.9485 0.21878 0.0
H940 H 0.62228 0.91501 0.69461 0.0
H941 H 0.62145 0.90929 0.72572 0.0
H942 H 0.61603 0.95553 0.73722 0.0
H943 H 0.61713 0.96134 0.70626 0.0
H944 H 0.63563 0.94221 0.75936 0.0
H945 H 0.5865 0.93264 0.73648 0.0
H946 H 0.56853 0.9206 0.71695 0.0
H947 H 0.58181 0.87806 0.73596 0.0
H948 H 0.6 0.88985 0.75545 0.0
H949 H 0.60326 0.94535 0.84204 0.0
H950 H 0.60946 0.94675 0.81132 0.0
H951 H 0.6099 0.89922 0.80837 0.0
H952 H 0.60301 0.89772 0.83906 0.0
H953 H 0.59527 0.91023 0.78177 0.0
H954 H 0.64236 0.91957 0.80704 0.0
H955 H 0.6605 0.93124 0.82663 0.0
H956 H 0.65191 0.97342 0.80329 0.0
H957 H 0.63355 0.96205 0.78372 0.0
C958 C 0.6211 0.92397 0.7038 0.0
C959 C 0.61966 0.93862 0.69798 0.0
C960 C 0.62053 0.92067 0.72154 0.0
C961 C 0.61853 0.93197 0.73377 0.0
C962 C 0.61755 0.94663 0.72801 0.0
C963 C 0.61805 0.94992 0.71031 0.0
C964 C 0.61696 0.92861 0.75255 0.0
C965 C 0.62676 0.93529 0.7643 0.0
C966 C 0.60569 0.91919 0.75893 0.0
C967 C 0.59472 0.91211 0.74726 0.0
C968 C 0.58567 0.92071 0.73639 0.0
C969 C 0.57543 0.91394 0.72535 0.0
C970 C 0.57406 0.89857 0.72517 0.0
C971 C 0.5829 0.88996 0.73608 0.0
C972 C 0.59317 0.89668 0.74713 0.0
C973 C 0.60458 0.93517 0.83487 0.0
C974 C 0.60255 0.92142 0.84304 0.0
C975 C 0.60834 0.93599 0.81732 0.0
C976 C 0.61036 0.92309 0.80755 0.0
C977 C 0.60848 0.90933 0.81567 0.0
C978 C 0.60465 0.90849 0.83325 0.0
C979 C 0.61376 0.9241 0.78869 0.0
C980 C 0.6043 0.91698 0.7769 0.0
C981 C 0.62542 0.93305 0.78227 0.0
C982 C 0.63649 0.93995 0.79399 0.0
C983 C 0.64425 0.93135 0.80617 0.0
C984 C 0.65459 0.93791 0.81725 0.0
C985 C 0.65734 0.95307 0.81623 0.0
C986 C 0.64977 0.96169 0.80408 0.0
C987 C 0.63941 0.95518 0.79297 0.0
H988 H 0.66535 0.95813 0.82482 0.0
H989 H 0.56613 0.89335 0.71661 0.0
H990 H 0.60706 0.62306 0.3456 0.0
H991 H 0.60543 0.62817 0.31446 0.0
H992 H 0.63096 0.58905 0.30377 0.0
H993 H 0.63275 0.58397 0.33489 0.0
H994 H 0.63927 0.61106 0.28281 0.0
H995 H 0.59294 0.58924 0.30037 0.0
H996 H 0.57021 0.5871 0.31791 0.0
H997 H 0.55639 0.63004 0.30081 0.0
H998 H 0.57916 0.63252 0.28335 0.0
H999 H 0.61793 0.59726 0.19556 0.0
H1000 H 0.62274 0.59648 0.22675 0.0
H1001 H 0.59724 0.63624 0.23356 0.0
H1002 H 0.59198 0.63683 0.20241 0.0
H1003 H 0.5893 0.61565 0.25659 0.0
H1004 H 0.63505 0.63659 0.23721 0.0
H1005 H 0.65773 0.63833 0.21952 0.0
H1006 H 0.67258 0.59672 0.2397 0.0
H1007 H 0.64989 0.59462 0.25734 0.0
C1008 C 0.61234 0.61556 0.3366 0.0
C1009 C 0.61994 0.60305 0.34269 0.0
C1010 C 0.61141 0.6185 0.31882 0.0
C1011 C 0.61787 0.60886 0.30675 0.0
C1012 C 0.62589 0.59664 0.31282 0.0
C1013 C 0.62692 0.59376 0.33062 0.0
C1014 C 0.61581 0.61117 0.28779 0.0
C1015 C 0.62834 0.61193 0.27705 0.0
C1016 C 0.60156 0.61264 0.28029 0.0
C1017 C 0.58782 0.61113 0.2907 0.0
C1018 C 0.58511 0.59827 0.30045 0.0
C1019 C 0.57221 0.59699 0.31036 0.0
C1020 C 0.56188 0.60844 0.31051 0.0
C1021 C 0.56441 0.62119 0.30071 0.0
C1022 C 0.57731 0.62253 0.29079 0.0
C1023 C 0.61334 0.60584 0.20369 0.0
C1024 C 0.60452 0.61708 0.19648 0.0
C1025 C 0.61623 0.60547 0.22151 0.0
C1026 C 0.61046 0.61638 0.2325 0.0
C1027 C 0.60185 0.62774 0.22532 0.0
C1028 C 0.59895 0.62812 0.20749 0.0
C1029 C 0.61276 0.61547 0.25157 0.0
C1030 C 0.60024 0.61492 0.26234 0.0
C1031 C 0.62702 0.61415 0.25906 0.0
C1032 C 0.6407 0.61539 0.24849 0.0
C1033 C 0.64309 0.62775 0.23778 0.0
C1034 C 0.65596 0.62881 0.22777 0.0
C1035 C 0.66657 0.61763 0.22845 0.0
C1036 C 0.66435 0.60537 0.23917 0.0
C1037 C 0.65149 0.60424 0.24919 0.0
H1038 H 0.67653 0.61847 0.2207 0.0
H1039 H 0.5519 0.60743 0.31819 0.0
H1040 H 0.07208 0.32183 0.0545 0.0
H1041 H 0.07275 0.29891 0.03782 0.0
H1042 H 0.12013 0.29683 0.04434 0.0
H1043 H 0.11959 0.31995 0.06073 0.0
H1044 H 0.11177 0.29019 1.01114 0.0
H1045 H 0.09816 0.27535 0.06873 0.0
H1046 H 0.08346 0.27594 0.09568 0.0
H1047 H 0.04433 0.26434 0.06706 0.0
H1048 H 0.05876 0.26388 0.03989 0.0
H1049 H 0.11995 0.21568 0.98409 0.0
H1050 H 0.12036 0.23854 1.00094 0.0
H1051 H 0.07267 0.24052 0.9987 0.0
H1052 H 0.07219 0.21758 0.98205 0.0
H1053 H 0.08182 0.24715 0.03019 0.0
H1054 H 0.0952 0.26245 0.9725 0.0
H1055 H 0.10978 0.26203 0.94546 0.0
H1056 H 0.14914 0.27293 0.97401 0.0
H1057 H 0.13483 0.27322 1.00127 0.0
C1058 C 0.08267 0.31659 0.05223 0.0
C1059 C 0.09578 0.3227 0.059 0.0
C1060 C 0.08301 0.30342 0.04282 0.0
C1061 C 0.09647 0.29606 0.04001 0.0
C1062 C 0.10962 0.30228 0.04642 0.0
C1063 C 0.10928 0.31543 0.05589 0.0
C1064 C 0.09678 0.2818 0.03052 0.0
C1065 C 0.10538 0.28071 1.01542 0.0
C1066 C 0.08821 0.26953 0.03592 0.0
C1067 C 0.07952 0.26972 0.05225 0.0
C1068 C 0.0864 0.27304 0.06816 0.0
C1069 C 0.07811 0.27333 0.08348 0.0
C1070 C 0.06296 0.27021 0.08308 0.0
C1071 C 0.05606 0.26676 0.06735 0.0
C1072 C 0.06429 0.26648 0.05199 0.0
C1073 C 0.10956 0.22103 0.98713 0.0
C1074 C 0.09604 0.21484 0.98169 0.0
C1075 C 0.1098 0.23411 0.99674 0.0
C1076 C 0.09655 0.24139 1.00089 0.0
C1077 C 0.08304 0.23511 0.99568 0.0
C1078 C 0.08278 0.22198 0.98619 0.0
C1079 C 0.09672 0.25553 1.01069 0.0
C1080 C 0.08822 0.25661 0.02588 0.0
C1081 C 0.10536 0.2678 1.00534 0.0
C1082 C 0.11397 0.26771 0.98895 0.0
C1083 C 0.10699 0.26465 0.97303 0.0
C1084 C 0.1152 0.26445 0.95766 0.0
C1085 C 0.13039 0.26741 0.95802 0.0
C1086 C 0.13738 0.27062 0.97375 0.0
C1087 C 0.12922 0.27081 0.98917 0.0
H1088 H 0.13673 0.26725 0.94611 0.0
H1089 H 0.05657 0.27044 0.09495 0.0
H1090 H 0.30828 0.09214 0.45807 0.0
H1091 H 0.28581 0.0929 0.47567 0.0
H1092 H 0.31228 0.09617 0.52211 0.0
H1093 H 0.33485 0.0956 0.50457 0.0
H1094 H 0.29022 0.07615 0.52582 0.0
H1095 H 0.29457 0.12619 0.5062 0.0
H1096 H 0.29744 0.14613 0.48465 0.0
H1097 H 0.25697 0.13283 0.45988 0.0
H1098 H 0.25396 0.11266 0.48115 0.0
H1099 H 0.23197 0.09477 0.58315 0.0
H1100 H 0.25463 0.09541 0.56593 0.0
H1101 H 0.22878 0.0936 0.51889 0.0
H1102 H 0.206 0.09359 0.53603 0.0
H1103 H 0.25074 0.11317 0.51572 0.0
H1104 H 0.24657 0.0629 0.53491 0.0
H1105 H 0.24369 0.04287 0.55635 0.0
H1106 H 0.28378 0.05648 0.58173 0.0
H1107 H 0.2868 0.07673 0.56056 0.0
C1108 C 0.30935 0.0932 0.47201 0.0
C1109 C 0.3234 0.09387 0.47988 0.0
C1110 C 0.29648 0.0936 0.48206 0.0
C1111 C 0.29735 0.09474 0.5002 0.0
C1112 C 0.31134 0.09527 0.50813 0.0
C1113 C 0.32423 0.09489 0.49808 0.0
C1114 C 0.28367 0.09516 0.51089 0.0
C1115 C 0.28168 0.08438 0.52378 0.0
C1116 C 0.27237 0.10568 0.50796 0.0
C1117 C 0.27412 0.11782 0.49518 0.0
C1118 C 0.28635 0.12744 0.49608 0.0
C1119 C 0.28798 0.1388 0.48392 0.0
C1120 C 0.27741 0.14072 0.47087 0.0
C1121 C 0.26516 0.13131 0.46998 0.0
C1122 C 0.26348 0.11993 0.48209 0.0
C1123 C 0.23106 0.09469 0.56914 0.0
C1124 C 0.21712 0.09409 0.561 0.0
C1125 C 0.24406 0.09489 0.5593 0.0
C1126 C 0.24344 0.09434 0.54111 0.0
C1127 C 0.22955 0.09396 0.53291 0.0
C1128 C 0.21653 0.09381 0.54274 0.0
C1129 C 0.25726 0.09413 0.53062 0.0
C1130 C 0.25928 0.10496 0.51777 0.0
C1131 C 0.26858 0.08363 0.53356 0.0
C1132 C 0.26683 0.07142 0.54625 0.0
C1133 C 0.25471 0.06169 0.54514 0.0
C1134 C 0.25306 0.05029 0.55723 0.0
C1135 C 0.26352 0.04843 0.57042 0.0
C1136 C 0.27568 0.05795 0.57152 0.0
C1137 C 0.27737 0.06938 0.55947 0.0
H1138 H 0.26222 0.03959 0.57977 0.0
H1139 H 0.2787 0.14952 0.46148 0.0
H1140 H 0.44516 0.30657 0.95832 0.0
H1141 H 0.44429 0.28398 0.97562 0.0
H1142 H 0.44346 0.30981 0.02255 0.0
H1143 H 0.44412 0.33251 1.00533 0.0
H1144 H 0.46311 0.28729 0.0248 0.0
H1145 H 0.41233 0.29313 1.00809 0.0
H1146 H 0.39158 0.29674 0.98771 0.0
H1147 H 0.40272 0.25641 0.9617 0.0
H1148 H 0.42368 0.25265 0.98178 0.0
H1149 H 0.44489 0.22923 0.08251 0.0
H1150 H 0.44422 0.25196 0.06552 0.0
H1151 H 0.44354 0.22658 1.01823 0.0
H1152 H 0.4436 0.20372 0.03518 0.0
H1153 H 0.42442 0.24902 1.01631 0.0
H1154 H 0.47538 0.24334 0.03259 0.0
H1155 H 0.49623 0.23968 0.05282 0.0
H1156 H 0.48489 0.27969 0.07941 0.0
H1157 H 0.46384 0.28348 0.05947 0.0
C1158 C 0.4446 0.30748 0.97231 0.0
C1159 C 0.44465 0.3214 0.98041 0.0
C1160 C 0.44414 0.29454 0.98219 0.0
C1161 C 0.44367 0.2952 1.00038 0.0
C1162 C 0.44384 0.30904 1.00853 0.0
C1163 C 0.44427 0.322 0.99866 0.0
C1164 C 0.44326 0.28144 1.0109 0.0
C1165 C 0.45452 0.27902 0.02313 0.0
C1166 C 0.43227 0.27048 1.00841 0.0
C1167 C 0.41966 0.27269 0.99634 0.0
C1168 C 0.41043 0.28509 0.99793 0.0
C1169 C 0.39862 0.28715 0.98645 0.0
C1170 C 0.39586 0.27683 0.97339 0.0
C1171 C 0.40489 0.2644 0.97181 0.0
C1172 C 0.41672 0.26229 0.98325 0.0
C1173 C 0.44441 0.22844 0.0685 0.0
C1174 C 0.44433 0.21461 0.06023 0.0
C1175 C 0.44419 0.24148 0.05879 0.0
C1176 C 0.44404 0.241 0.04057 0.0
C1177 C 0.44373 0.22723 0.03226 0.0
C1178 C 0.4439 0.21417 0.04198 0.0
C1179 C 0.44428 0.25486 0.03021 0.0
C1180 C 0.43299 0.2573 1.018 0.0
C1181 C 0.45526 0.26583 0.03269 0.0
C1182 C 0.46795 0.26362 0.04464 0.0
C1183 C 0.47727 0.2513 0.04283 0.0
C1184 C 0.48913 0.24921 0.05423 0.0
C1185 C 0.49186 0.25943 0.06742 0.0
C1186 C 0.48275 0.27178 0.0692 0.0
C1187 C 0.47086 0.27391 0.05785 0.0
H1188 H 0.50105 0.25779 0.07623 0.0
H1189 H 0.38671 0.27845 0.96452 0.0
H1190 H 0.30863 0.44011 0.58257 0.0
H1191 H 0.28601 0.43961 0.56519 0.0
H1192 H 0.31188 0.44437 0.51848 0.0
H1193 H 0.33461 0.4446 0.53574 0.0
H1194 H 0.28825 0.46303 0.51888 0.0
H1195 H 0.2969 0.4115 0.52873 0.0
H1196 H 0.30164 0.3892 0.54623 0.0
H1197 H 0.2606 0.39547 0.57329 0.0
H1198 H 0.2557 0.41794 0.55611 0.0
H1199 H 0.23178 0.44673 0.45815 0.0
H1200 H 0.25438 0.44609 0.47552 0.0
H1201 H 0.22842 0.4397 0.5219 0.0
H1202 H 0.20573 0.43979 0.5045 0.0
H1203 H 0.25209 0.4218 0.52179 0.0
H1204 H 0.24342 0.47332 0.51223 0.0
H1205 H 0.2386 0.49571 0.4949 0.0
H1206 H 0.27957 0.48961 0.46761 0.0
H1207 H 0.28454 0.46706 0.48462 0.0
C1208 C 0.30956 0.44084 0.56859 0.0
C1209 C 0.32349 0.44235 0.56057 0.0
C1210 C 0.29659 0.4406 0.55867 0.0
C1211 C 0.29726 0.44183 0.54052 0.0
C1212 C 0.3111 0.44343 0.53247 0.0
C1213 C 0.32409 0.44362 0.54238 0.0
C1214 C 0.28348 0.44172 0.52998 0.0
C1215 C 0.28044 0.45392 0.51932 0.0
C1216 C 0.27311 0.43001 0.53091 0.0
C1217 C 0.27601 0.41649 0.54125 0.0
C1218 C 0.28895 0.4082 0.53851 0.0
C1219 C 0.29165 0.39552 0.54836 0.0
C1220 C 0.28145 0.39095 0.5609 0.0
C1221 C 0.2685 0.39904 0.56359 0.0
C1222 C 0.26575 0.41174 0.55379 0.0
C1223 C 0.23086 0.44503 0.47202 0.0
C1224 C 0.21691 0.44333 0.47992 0.0
C1225 C 0.2438 0.44482 0.48197 0.0
C1226 C 0.2431 0.44303 0.50005 0.0
C1227 C 0.22922 0.44115 0.50797 0.0
C1228 C 0.21626 0.44134 0.49803 0.0
C1229 C 0.25685 0.44311 0.51066 0.0
C1230 C 0.25989 0.43091 0.52134 0.0
C1231 C 0.26721 0.45484 0.5098 0.0
C1232 C 0.26428 0.46843 0.49959 0.0
C1233 C 0.25135 0.47669 0.50244 0.0
C1234 C 0.2486 0.48942 0.49269 0.0
C1235 C 0.25876 0.49406 0.48013 0.0
C1236 C 0.2717 0.48599 0.47733 0.0
C1237 C 0.2745 0.47325 0.48703 0.0
H1238 H 0.25661 0.50391 0.4726 0.0
H1239 H 0.28356 0.38112 0.56851 0.0
H1240 H 0.9605 0.82821 0.0438 0.0
H1241 H 0.95974 0.80572 0.02639 0.0
H1242 H 0.92104 0.79109 0.05436 0.0
H1243 H 0.9216 0.81366 0.0717 0.0
H1244 H 0.94124 0.76925 0.05146 0.0
H1245 H 0.91795 0.80388 1.01323 0.0
H1246 H 0.91559 0.82706 0.99667 0.0
H1247 H 0.95494 0.81664 0.968 0.0
H1248 H 0.95765 0.79347 0.98456 0.0
H1249 H 0.92446 0.70916 0.9953 0.0
H1250 H 0.92331 0.7319 1.01232 0.0
H1251 H 0.96054 0.74937 0.98379 0.0
H1252 H 0.9616 0.72675 0.96661 0.0
H1253 H 0.94008 0.76983 0.98709 0.0
H1254 H 0.96387 0.73565 0.02592 0.0
H1255 H 0.96638 0.71252 0.04257 0.0
H1256 H 0.92629 0.72217 0.07019 0.0
H1257 H 0.92343 0.74527 0.05354 0.0
C1258 C 0.95169 0.82033 0.0461 0.0
C1259 C 0.9411 0.82278 0.05916 0.0
C1260 C 0.9513 0.80744 0.03615 0.0
C1261 C 0.94026 0.79676 0.03898 0.0
C1262 C 0.92967 0.79916 0.05198 0.0
C1263 C 0.93005 0.81205 0.06192 0.0
C1264 C 0.93999 0.78294 0.02863 0.0
C1265 C 0.94076 0.76936 0.03739 0.0
C1266 C 0.93969 0.78309 1.01026 0.0
C1267 C 0.93808 0.797 1.00025 0.0
C1268 C 0.92617 0.80658 1.00349 0.0
C1269 C 0.92476 0.81971 0.99409 0.0
C1270 C 0.93513 0.82334 0.98132 0.0
C1271 C 0.94692 0.81382 0.97791 0.0
C1272 C 0.94839 0.80068 0.98728 0.0
C1273 C 0.93247 0.71781 0.99276 0.0
C1274 C 0.94314 0.71614 0.97963 0.0
C1275 C 0.93181 0.73081 1.0025 0.0
C1276 C 0.94195 0.74232 0.99949 0.0
C1277 C 0.95257 0.74068 0.98633 0.0
C1278 C 0.95316 0.72775 0.97651 0.0
C1279 C 0.94145 0.75612 1.00991 0.0
C1280 C 0.94052 0.7697 1.00116 0.0
C1281 C 0.94163 0.75597 0.02829 0.0
C1282 C 0.94336 0.74212 0.03836 0.0
C1283 C 0.95553 0.73279 0.03546 0.0
C1284 C 0.95703 0.71969 0.04491 0.0
C1285 C 0.94648 0.71586 0.0574 0.0
C1286 C 0.93443 0.72514 0.0605 0.0
C1287 C 0.93288 0.73824 0.05106 0.0
H1288 H 0.94765 0.70572 0.0647 0.0
H1289 H 0.93402 0.83351 0.97405 0.0
H1290 H 0.70924 0.957 0.54121 0.0
H1291 H 0.7318 0.95614 0.52375 0.0
H1292 H 0.7493 0.92209 0.55708 0.0
H1293 H 0.72667 0.92269 0.57445 0.0
H1294 H 0.76958 0.94368 0.55096 0.0
H1295 H 0.73692 0.91353 0.51715 0.0
H1296 H 0.71396 0.9074 0.50138 0.0
H1297 H 0.72133 0.94376 0.4666 0.0
H1298 H 0.74424 0.95024 0.48233 0.0
H1299 H 0.83111 0.92557 0.49753 0.0
H1300 H 0.80834 0.92452 0.51468 0.0
H1301 H 0.78826 0.95665 0.48068 0.0
H1302 H 0.81094 0.95761 0.46339 0.0
H1303 H 0.76928 0.93517 0.48737 0.0
H1304 H 0.80147 0.96583 0.52163 0.0
H1305 H 0.82435 0.97214 0.53747 0.0
H1306 H 0.81778 0.93509 0.57144 0.0
H1307 H 0.79496 0.92844 0.55565 0.0
C1308 C 0.71777 0.94916 0.54469 0.0
C1309 C 0.7161 0.93991 0.55925 0.0
C1310 C 0.7307 0.94872 0.53472 0.0
C1311 C 0.7422 0.93898 0.53904 0.0
C1312 C 0.74058 0.92972 0.55354 0.0
C1313 C 0.72765 0.93013 0.56349 0.0
C1314 C 0.75607 0.93871 0.52868 0.0
C1315 C 0.76955 0.9416 0.53709 0.0
C1316 C 0.75598 0.93633 0.51053 0.0
C1317 C 0.74222 0.93245 0.50103 0.0
C1318 C 0.73358 0.92029 0.50623 0.0
C1319 C 0.72059 0.91674 0.49728 0.0
C1320 C 0.71617 0.92521 0.48303 0.0
C1321 C 0.72475 0.93722 0.47766 0.0
C1322 C 0.73775 0.94083 0.48658 0.0
C1323 C 0.82188 0.93249 0.4938 0.0
C1324 C 0.82285 0.9417 0.47913 0.0
C1325 C 0.80887 0.93189 0.50361 0.0
C1326 C 0.79662 0.94064 0.4991 0.0
C1327 C 0.79754 0.94977 0.4844 0.0
C1328 C 0.81051 0.9503 0.47452 0.0
C1329 C 0.78282 0.94024 0.50962 0.0
C1330 C 0.76933 0.93722 0.50124 0.0
C1331 C 0.78289 0.94254 0.5278 0.0
C1332 C 0.79659 0.94655 0.53735 0.0
C1333 C 0.80496 0.95896 0.5324 0.0
C1334 C 0.81791 0.96262 0.54138 0.0
C1335 C 0.82254 0.954 0.55542 0.0
C1336 C 0.8142 0.94174 0.56055 0.0
C1337 C 0.80125 0.93803 0.55159 0.0
H1338 H 0.83256 0.95685 0.56236 0.0
H1339 H 0.70611 0.92244 0.47611 0.0
H1340 H 0.58217 0.7276 0.07764 0.0
H1341 H 0.58286 0.75026 0.06039 0.0
H1342 H 0.61148 0.72916 0.0232 0.0
H1343 H 0.61107 0.70649 0.0406 0.0
H1344 H 0.62094 0.75719 0.03145 0.0
H1345 H 0.57568 0.73376 1.0138 0.0
H1346 H 0.55138 0.72187 1.01824 0.0
H1347 H 0.53507 0.76117 0.04262 0.0
H1348 H 0.55934 0.77323 0.03855 0.0
H1349 H 0.61369 0.81065 0.96442 0.0
H1350 H 0.61388 0.78801 0.98161 0.0
H1351 H 0.58229 0.807 1.01706 0.0
H1352 H 0.5815 0.82943 0.99947 0.0
H1353 H 0.57454 0.77976 1.00953 0.0
H1354 H 0.61959 0.80329 0.0275 0.0
H1355 H 0.6439 0.81527 0.0236 0.0
H1356 H 0.66068 0.77613 0.99928 0.0
H1357 H 0.6364 0.76398 1.00282 0.0
C1358 C 0.5887 0.72781 0.06586 0.0
C1359 C 0.59656 0.71523 0.06048 0.0
C1360 C 0.58899 0.74073 0.05594 0.0
C1361 C 0.59712 0.74136 0.04043 0.0
C1362 C 0.60511 0.7289 0.03511 0.0
C1363 C 0.60477 0.71592 0.04498 0.0
C1364 C 0.59724 0.75504 0.02979 0.0
C1365 C 0.61082 0.76203 0.02644 0.0
C1366 C 0.584 0.76154 0.02362 0.0
C1367 C 0.56937 0.75434 0.02602 0.0
C1368 C 0.56695 0.73982 0.02024 0.0
C1369 C 0.55317 0.73306 0.02266 0.0
C1370 C 0.5417 0.74075 0.03075 0.0
C1371 C 0.54397 0.75523 0.03638 0.0
C1372 C 0.55773 0.76203 0.034 0.0
C1373 C 0.60669 0.81 0.9758 0.0
C1374 C 0.59756 0.82191 0.98052 0.0
C1375 C 0.60695 0.79708 0.98575 0.0
C1376 C 0.59823 0.79583 1.00077 0.0
C1377 C 0.58915 0.80771 1.00556 0.0
C1378 C 0.58883 0.8206 0.99556 0.0
C1379 C 0.59825 0.78201 1.01123 0.0
C1380 C 0.58468 0.77496 1.01453 0.0
C1381 C 0.6115 0.7755 1.01741 0.0
C1382 C 0.62613 0.78278 1.01527 0.0
C1383 C 0.62843 0.79728 0.02119 0.0
C1384 C 0.64221 0.80409 1.01907 0.0
C1385 C 0.65382 0.79648 1.01115 0.0
C1386 C 0.65168 0.78202 1.00539 0.0
C1387 C 0.63791 0.77516 1.00746 0.0
H1388 H 0.66448 0.80177 1.00953 0.0
H1389 H 0.53104 0.7355 0.03261 0.0
H1390 H 0.70631 0.59345 0.50575 0.0
H1391 H 0.72913 0.59376 0.52278 0.0
H1392 H 0.75449 0.60099 0.47609 0.0
H1393 H 0.7318 0.60002 0.45889 0.0
H1394 H 0.76752 0.58097 0.4955 0.0
H1395 H 0.74753 0.62912 0.50543 0.0
H1396 H 0.72857 0.64731 0.51377 0.0
H1397 H 0.72699 0.62897 0.56516 0.0
H1398 H 0.7458 0.61053 0.55706 0.0
H1399 H 0.83491 0.60126 0.53707 0.0
H1400 H 0.81219 0.60175 0.5198 0.0
H1401 H 0.78652 0.59213 0.56565 0.0
H1402 H 0.80919 0.5915 0.58298 0.0
H1403 H 0.77383 0.61374 0.54649 0.0
H1404 H 0.79384 0.56537 0.53602 0.0
H1405 H 0.81308 0.54757 0.52742 0.0
H1406 H 0.81491 0.56695 0.47657 0.0
H1407 H 0.79581 0.58501 0.48495 0.0
C1408 C 0.71674 0.59498 0.49907 0.0
C1409 C 0.71718 0.59674 0.48092 0.0
C1410 C 0.72979 0.59533 0.50886 0.0
C1411 C 0.74354 0.5976 0.50076 0.0
C1412 C 0.74402 0.59929 0.48266 0.0
C1413 C 0.731 0.59887 0.47285 0.0
C1414 C 0.75746 0.59793 0.51109 0.0
C1415 C 0.76897 0.5883 0.5065 0.0
C1416 C 0.75927 0.60726 0.52567 0.0
C1417 C 0.74797 0.61835 0.53058 0.0
C1418 C 0.74305 0.62889 0.51847 0.0
C1419 C 0.73235 0.63926 0.52316 0.0
C1420 C 0.72655 0.63927 0.53997 0.0
C1421 C 0.73147 0.62893 0.55214 0.0
C1422 C 0.74217 0.61853 0.54751 0.0
C1423 C 0.82445 0.59912 0.54346 0.0
C1424 C 0.8239 0.59629 0.56141 0.0
C1425 C 0.81146 0.59944 0.53358 0.0
C1426 C 0.79765 0.59683 0.5414 0.0
C1427 C 0.79704 0.5942 0.55934 0.0
C1428 C 0.81002 0.59389 0.56923 0.0
C1429 C 0.78384 0.59678 0.5309 0.0
C1430 C 0.77237 0.60645 0.53547 0.0
C1431 C 0.78208 0.58754 0.51625 0.0
C1432 C 0.7935 0.57663 0.51117 0.0
C1433 C 0.79842 0.56591 0.52304 0.0
C1434 C 0.80929 0.55576 0.51821 0.0
C1435 C 0.81524 0.55615 0.50148 0.0
C1436 C 0.81031 0.56667 0.48953 0.0
C1437 C 0.79945 0.57686 0.49431 0.0
H1438 H 0.82366 0.54828 0.49775 0.0
H1439 H 0.71827 0.64731 0.54358 0.0
H1440 H 0.97725 0.57072 0.02078 0.0
H1441 H 0.98884 0.54799 0.03116 0.0
H1442 H 1.01581 0.54647 0.98501 0.0
H1443 H 1.00426 0.56919 0.97455 0.0
H1444 H 1.00491 0.51978 0.99235 0.0
H1445 H 0.03009 0.55788 0.02406 0.0
H1446 H 0.03196 0.57971 0.04299 0.0
H1447 H 1.01041 0.55597 0.08415 0.0
H1448 H 1.00823 0.53405 0.06537 0.0
H1449 H 0.05712 0.46676 0.02137 0.0
H1450 H 0.04533 0.48943 1.01117 0.0
H1451 H 1.01841 0.49053 0.05737 0.0
H1452 H 0.03016 0.46785 0.06767 0.0
H1453 H 0.02915 0.51738 0.05009 0.0
H1454 H 1.00411 0.47921 1.01837 0.0
H1455 H 1.00231 0.45739 0.99941 0.0
H1456 H 0.02369 0.48127 0.95825 0.0
H1457 H 0.0258 0.50319 0.97705 0.0
C1458 C 0.98573 0.56561 1.0129 0.0
C1459 C 0.98986 0.57181 0.99686 0.0
C1460 C 0.99234 0.5526 1.01884 0.0
C1461 C 1.00334 0.5456 1.00896 0.0
C1462 C 1.00735 0.55166 0.99285 0.0
C1463 C 1.0007 0.56463 0.98687 0.0
C1464 C 1.01064 0.53195 1.01539 0.0
C1465 C 1.01038 0.51931 1.00488 0.0
C1466 C 1.0175 0.53123 0.03191 0.0
C1467 C 1.01887 0.54437 0.04325 0.0
C1468 C 0.02565 0.55735 0.0371 0.0
C1469 C 0.02678 0.56974 0.04781 0.0
C1470 C 0.02128 0.56924 0.06475 0.0
C1471 C 1.01466 0.55634 0.07102 0.0
C1472 C 1.01348 0.54393 0.06036 0.0
C1473 C 0.04861 0.47176 0.0293 0.0
C1474 C 0.04454 0.46545 0.0453 0.0
C1475 C 0.04188 0.48473 0.02346 0.0
C1476 C 0.03084 0.4916 0.0334 0.0
C1477 C 0.02691 0.48544 0.04949 0.0
C1478 C 0.03366 0.47249 0.05537 0.0
C1479 C 0.02343 0.50521 0.02705 0.0
C1480 C 0.02367 0.51784 0.03757 0.0
C1481 C 1.01657 0.50593 1.01054 0.0
C1482 C 1.01523 0.4928 0.99917 0.0
C1483 C 1.00852 0.47978 1.00532 0.0
C1484 C 1.00744 0.4674 0.99459 0.0
C1485 C 1.01292 0.46793 0.97765 0.0
C1486 C 1.01947 0.48087 0.97138 0.0
C1487 C 0.0206 0.49328 0.98206 0.0
H1488 H 1.01207 0.45833 0.96937 0.0
H1489 H 0.02216 0.57884 0.07302 0.0
H1490 H 0.05983 0.06101 0.55373 0.0
H1491 H 0.03696 0.04945 0.54348 0.0
H1492 H 0.06193 1.01236 0.52439 0.0
H1493 H 0.08485 0.02385 0.53461 0.0
H1494 H 0.04178 0.02091 0.50106 0.0
H1495 H 0.04179 1.01003 0.56205 0.0
H1496 H 0.04315 1.01579 0.59327 0.0
H1497 H 1.0046 0.04319 0.58877 0.0
H1498 H 1.00314 0.03776 0.55745 0.0
H1499 H 0.98103 0.97221 0.48777 0.0
H1500 H 1.00397 0.98362 0.49804 0.0
H1501 H 0.9792 0.02081 0.51725 0.0
H1502 H 0.95622 1.00947 0.50701 0.0
H1503 H 0.99929 1.01212 0.54055 0.0
H1504 H 0.99932 0.02307 0.47956 0.0
H1505 H 0.99797 1.01734 0.44833 0.0
H1506 H 0.03643 0.98983 0.45282 0.0
H1507 H 0.0379 0.99524 0.48415 0.0
C1508 C 0.06044 0.05033 0.54749 0.0
C1509 C 0.07417 0.04333 0.54505 0.0
C1510 C 0.04736 0.04374 0.54162 0.0
C1511 C 0.04769 0.02995 0.53334 0.0
C1512 C 0.06139 0.02301 0.53072 0.0
C1513 C 0.07449 0.02961 0.53654 0.0
C1514 C 0.03379 0.0228 0.52729 0.0
C1515 C 0.03257 0.0188 0.50975 0.0
C1516 C 0.02162 0.02036 0.53852 0.0
C1517 C 0.02244 0.0236 0.55737 0.0
C1518 C 0.03367 1.01738 0.56769 0.0
C1519 C 0.03445 0.02057 0.58541 0.0
C1520 C 0.02399 0.02988 0.59299 0.0
C1521 C 1.01271 0.036 0.58288 0.0
C1522 C 1.01189 0.03285 0.56514 0.0
C1523 C 0.98048 0.98288 0.49405 0.0
C1524 C 0.96679 0.98994 0.49652 0.0
C1525 C 0.99361 0.98939 0.49993 0.0
C1526 C 0.99334 1.00316 0.50825 0.0
C1527 C 0.97968 1.01017 0.51089 0.0
C1528 C 0.96655 1.00365 0.50507 0.0
C1529 C 1.00728 1.01023 0.51432 0.0
C1530 C 1.00851 1.01422 0.53186 0.0
C1531 C 1.01945 1.01267 0.50308 0.0
C1532 C 1.01863 1.00944 0.48424 0.0
C1533 C 1.00742 1.0157 0.47392 0.0
C1534 C 1.00665 1.01253 0.45619 0.0
C1535 C 1.01708 1.0032 0.4486 0.0
C1536 C 0.02834 0.99704 0.45872 0.0
C1537 C 0.02916 1.00017 0.47646 0.0
H1538 H 1.01647 1.00075 0.43488 0.0
H1539 H 0.02461 0.03234 0.60672 0.0
H1540 H 0.50919 0.0823 0.02575 0.0
H1541 H 0.52052 0.0595 1.01539 0.0
H1542 H 0.49285 0.03422 0.05009 0.0
H1543 H 0.48132 0.05697 0.06039 0.0
H1544 H 0.52131 0.02489 0.05114 0.0
H1545 H 0.48527 0.03543 1.00713 0.0
H1546 H 0.47257 0.05065 0.98516 0.0
H1547 H 0.51304 0.05466 0.95631 0.0
H1548 H 0.52604 0.03963 0.97825 0.0
H1549 H 0.53351 0.95419 1.01416 0.0
H1550 H 0.52233 0.97705 0.02452 0.0
H1551 H 0.55004 1.00215 0.98969 0.0
H1552 H 0.56142 0.97932 0.97938 0.0
H1553 H 0.52165 1.01162 0.98869 0.0
H1554 H 0.55768 1.00104 0.03264 0.0
H1555 H 0.5704 0.98583 0.0546 0.0
H1556 H 0.52998 0.98192 0.08357 0.0
H1557 H 0.51696 0.99694 0.06164 0.0
C1558 C 0.50538 0.07189 0.03105 0.0
C1559 C 0.49429 0.07149 0.04387 0.0
C1560 C 0.5119 0.05886 0.02514 0.0
C1561 C 0.50744 0.04513 0.03185 0.0
C1562 C 0.49649 0.04469 0.04475 0.0
C1563 C 0.48994 0.05772 0.05066 0.0
C1564 C 0.51428 0.03126 0.02549 0.0
C1565 C 0.5212 0.02188 0.03752 0.0
C1566 C 0.51446 0.02751 1.00766 0.0
C1567 C 0.50666 0.03652 0.99443 0.0
C1568 C 0.49149 0.03966 0.99617 0.0
C1569 C 0.48423 0.04823 0.98372 0.0
C1570 C 0.492 0.05365 0.96937 0.0
C1571 C 0.50704 0.05047 0.96744 0.0
C1572 C 0.51436 0.04191 0.97988 0.0
C1573 C 0.53737 0.96457 1.00884 0.0
C1574 C 0.54842 0.9649 0.99597 0.0
C1575 C 0.53093 0.97764 1.01475 0.0
C1576 C 0.53544 0.99133 1.008 0.0
C1577 C 0.54636 0.99171 0.99506 0.0
C1578 C 0.55283 0.97864 0.98914 0.0
C1579 C 0.52867 1.00524 1.01434 0.0
C1580 C 0.52176 1.01463 1.00232 0.0
C1581 C 0.5285 1.009 0.03217 0.0
C1582 C 0.53631 0.99999 0.04541 0.0
C1583 C 0.55147 0.99683 0.04362 0.0
C1584 C 0.55874 0.98826 0.05608 0.0
C1585 C 0.551 0.98288 0.07045 0.0
C1586 C 0.53596 0.98608 0.07242 0.0
C1587 C 0.52863 0.99463 0.05999 0.0
H1588 H 0.55665 0.97625 0.08008 0.0
H1589 H 0.48636 0.06029 0.95974 0.0
H1590 H 0.57169 0.5307 0.47446 0.0
H1591 H 0.54885 0.51924 0.48494 0.0
H1592 H 0.54755 0.54998 0.52759 0.0
H1593 H 0.57043 0.56145 0.51721 0.0
H1594 H 0.54174 0.52276 0.53866 0.0
H1595 H 0.52444 0.55357 0.49216 0.0
H1596 H 0.52374 0.56329 0.46225 0.0
H1597 H 0.51299 0.52014 0.44297 0.0
H1598 H 0.51382 0.51012 0.47275 0.0
H1599 H 0.46781 0.50861 0.56535 0.0
H1600 H 0.49055 0.52016 0.5547 0.0
H1601 H 0.49178 0.4894 0.51206 0.0
H1602 H 0.46899 0.47783 0.52261 0.0
H1603 H 0.49762 0.51661 0.50096 0.0
H1604 H 0.51494 0.4858 0.54745 0.0
H1605 H 0.51563 0.47608 0.57736 0.0
H1606 H 0.52636 0.51922 0.59665 0.0
H1607 H 0.52553 0.52925 0.56687 0.0
C1608 C 0.56646 0.53512 0.48597 0.0
C1609 C 0.57287 0.54702 0.49497 0.0
C1610 C 0.5534 0.52855 0.49196 0.0
C1611 C 0.54637 0.53384 0.50695 0.0
C1612 C 0.55277 0.54568 0.51601 0.0
C1613 C 0.56587 0.55221 0.51007 0.0
C1614 C 0.53246 0.52691 0.51336 0.0
C1615 C 0.53202 0.5216 0.53049 0.0
C1616 C 0.51989 0.52506 0.50258 0.0
C1617 C 0.51933 0.53107 0.48467 0.0
C1618 C 0.52204 0.54613 0.48153 0.0
C1619 C 0.5216 0.5517 0.4646 0.0
C1620 C 0.51836 0.54233 0.45072 0.0
C1621 C 0.51552 0.52738 0.45374 0.0
C1622 C 0.51595 0.52176 0.47064 0.0
C1623 C 0.473 0.50421 0.5538 0.0
C1624 C 0.46661 0.49226 0.54487 0.0
C1625 C 0.486 0.51083 0.54771 0.0
C1626 C 0.49299 0.50554 0.53269 0.0
C1627 C 0.48658 0.49369 0.52367 0.0
C1628 C 0.47354 0.4871 0.5297 0.0
C1629 C 0.50689 0.51247 0.52626 0.0
C1630 C 0.50734 0.51777 0.50913 0.0
C1631 C 0.51947 0.51431 0.53703 0.0
C1632 C 0.52003 0.5083 0.55494 0.0
C1633 C 0.51734 0.49324 0.55808 0.0
C1634 C 0.51777 0.48767 0.57501 0.0
C1635 C 0.521 0.49704 0.5889 0.0
C1636 C 0.52384 0.51198 0.58588 0.0
C1637 C 0.5234 0.51761 0.56898 0.0
H1638 H 0.52134 0.4927 0.60199 0.0
H1639 H 0.51803 0.54666 0.43762 0.0
H1640 H 0.06207 0.06735 1.01488 0.0
H1641 H 0.05026 0.04461 0.0251 0.0
H1642 H 1.0161 0.04954 0.98639 0.0
H1643 H 0.02771 0.07243 0.9763 0.0
H1644 H 1.00465 0.04239 1.01805 0.0
H1645 H 0.04302 0.02462 0.98068 0.0
H1646 H 0.0685 0.02228 0.96961 0.0
H1647 H 0.08274 1.00518 1.01886 0.0
H1648 H 0.05736 1.00762 0.03032 0.0
H1649 H 0.97447 0.96993 0.0241 0.0
H1650 H 0.98622 0.99261 1.01358 0.0
H1651 H 0.02058 0.98795 0.05209 0.0
H1652 H 1.00904 0.96512 0.06247 0.0
H1653 H 0.03188 0.99493 0.02036 0.0
H1654 H 0.99356 1.01281 0.05777 0.0
H1655 H 0.96808 1.01517 0.06888 0.0
H1656 H 0.95377 0.03207 1.01956 0.0
H1657 H 0.97914 0.02961 1.00807 0.0
C1658 C 0.052 0.06363 1.0086 0.0
C1659 C 0.04584 0.07168 0.99475 0.0
C1660 C 0.04532 0.05058 1.01437 0.0
C1661 C 0.03237 0.0453 1.00641 0.0
C1662 C 0.02612 0.05338 0.99269 0.0
C1663 C 0.03283 0.06639 0.98685 0.0
C1664 C 0.02525 0.03145 1.01252 0.0
C1665 C 1.01053 0.03197 1.01833 0.0
C1666 C 0.03304 1.01792 1.01325 0.0
C1667 C 0.04832 1.01645 1.00641 0.0
C1668 C 0.05161 0.02049 0.9892 0.0
C1669 C 0.06603 0.01912 0.98284 0.0
C1670 C 0.07725 1.01362 0.99354 0.0
C1671 C 0.07405 1.00946 1.0106 0.0
C1672 C 0.05964 1.01082 1.01703 0.0
C1673 C 0.98457 0.97369 0.03027 0.0
C1674 C 0.9908 0.96574 0.04415 0.0
C1675 C 0.99121 0.98671 0.02433 0.0
C1676 C 1.00421 0.99205 0.03215 0.0
C1677 C 1.01053 0.98406 0.0459 0.0
C1678 C 1.00386 0.97108 0.0519 0.0
C1679 C 1.01128 1.00588 0.02591 0.0
C1680 C 0.02599 1.00535 1.02007 0.0
C1681 C 1.00349 0.0194 0.02515 0.0
C1682 C 0.98822 0.02088 0.03201 0.0
C1683 C 0.98495 1.01691 0.04925 0.0
C1684 C 0.97053 1.01829 0.05562 0.0
C1685 C 0.9593 0.02373 0.04491 0.0
C1686 C 0.96247 0.02783 0.02782 0.0
C1687 C 0.97687 0.02646 0.02138 0.0
H1688 H 0.94814 0.02479 0.04987 0.0
H1689 H 0.0884 1.01256 0.98859 0.0
H1690 H 0.47118 0.03262 0.47042 0.0
H1691 H 0.49397 0.02109 0.4808 0.0
H1692 H 0.48746 0.04065 0.5312 0.0
H1693 H 0.4649 0.05263 0.52076 0.0
H1694 H 0.51583 0.04309 0.52113 0.0
H1695 H 0.47963 1.00429 0.52406 0.0
H1696 H 0.46005 0.98791 0.51276 0.0
H1697 H 0.49015 0.9708 0.47471 0.0
H1698 H 0.50987 0.98723 0.48562 0.0
H1699 H 0.56751 0.99965 0.5678 0.0
H1700 H 0.5447 1.01108 0.55736 0.0
H1701 H 0.55117 0.99119 0.50713 0.0
H1702 H 0.57373 0.97928 0.51765 0.0
H1703 H 0.52284 0.98892 0.51703 0.0
H1704 H 0.55903 0.02767 0.51406 0.0
H1705 H 0.57864 0.04406 0.52528 0.0
H1706 H 0.54858 0.0613 0.5633 0.0
H1707 H 0.52884 0.04485 0.55246 0.0
C1708 C 0.47466 0.0346 0.48367 0.0
C1709 C 0.46617 0.04353 0.49477 0.0
C1710 C 0.48763 0.02787 0.48963 0.0
C1711 C 0.49233 0.02984 0.50685 0.0
C1712 C 0.48401 0.03891 0.51789 0.0
C1713 C 0.47104 0.04565 0.51194 0.0
C1714 C 0.50595 0.02249 0.51334 0.0
C1715 C 0.51728 0.03122 0.52045 0.0
C1716 C 0.508 1.00704 0.51209 0.0
C1717 C 0.49618 0.9971 0.50555 0.0
C1718 C 0.48204 0.99712 0.51319 0.0
C1719 C 0.47092 0.98781 0.50688 0.0
C1720 C 0.47384 0.97835 0.493 0.0
C1721 C 0.4879 0.97815 0.48544 0.0
C1722 C 0.49905 0.98745 0.4917 0.0
C1723 C 0.56401 0.99756 0.55458 0.0
C1724 C 0.5725 0.98856 0.54355 0.0
C1725 C 0.55104 1.00424 0.54858 0.0
C1726 C 0.54632 1.00216 0.53138 0.0
C1727 C 0.55462 0.99301 0.52042 0.0
C1728 C 0.5676 0.98631 0.52642 0.0
C1729 C 0.53271 1.00952 0.52483 0.0
C1730 C 0.52139 1.00079 0.51771 0.0
C1731 C 0.53067 0.02498 0.52607 0.0
C1732 C 0.5425 0.03492 0.53256 0.0
C1733 C 0.55664 0.03487 0.5249 0.0
C1734 C 0.56777 0.04418 0.53117 0.0
C1735 C 0.56487 0.05368 0.54502 0.0
C1736 C 0.55082 0.05392 0.55259 0.0
C1737 C 0.53965 0.04461 0.54638 0.0
H1738 H 0.5735 0.06089 0.54986 0.0
H1739 H 0.46522 0.97115 0.48813 0.0
H1740 H 0.53114 0.58189 0.03018 0.0
H1741 H 0.51989 0.55894 1.01998 0.0
H1742 H 0.55366 0.53392 0.04644 0.0
H1743 H 0.56526 0.55686 0.05625 0.0
H1744 H 0.54873 0.52319 1.01441 0.0
H1745 H 0.51891 0.53682 0.06329 0.0
H1746 H 0.50337 0.55332 0.08096 0.0
H1747 H 0.47181 0.55637 0.03941 0.0
H1748 H 0.48727 0.54003 0.02139 0.0
H1749 H 0.51333 0.45328 1.01023 0.0
H1750 H 0.52467 0.47616 0.02053 0.0
H1751 H 0.49097 0.50139 0.99422 0.0
H1752 H 0.47928 0.47853 0.98432 0.0
H1753 H 0.4959 0.51197 0.02627 0.0
H1754 H 0.52574 0.49841 0.97737 0.0
H1755 H 0.54129 0.48192 0.95967 0.0
H1756 H 0.5728 0.47877 1.00124 0.0
H1757 H 0.55734 0.49508 1.01929 0.0
C1758 C 0.53627 0.57151 0.0337 0.0
C1759 C 0.5491 0.57123 0.04407 0.0
C1760 C 0.52973 0.55839 0.02799 0.0
C1761 C 0.53582 0.54469 0.03262 0.0
C1762 C 0.54873 0.54436 0.04277 0.0
C1763 C 0.55527 0.55748 0.04849 0.0
C1764 C 0.52876 0.53072 0.02679 0.0
C1765 C 0.53724 0.52064 1.01721 0.0
C1766 C 0.51367 0.52754 0.0301 0.0
C1767 C 0.50432 0.53732 0.04093 0.0
C1768 C 0.50871 0.5411 0.05787 0.0
C1769 C 0.49991 0.55041 0.06795 0.0
C1770 C 0.48663 0.55592 0.06129 0.0
C1771 C 0.48211 0.5521 0.04454 0.0
C1772 C 0.49088 0.54281 0.03439 0.0
C1773 C 0.50824 0.46369 1.00676 0.0
C1774 C 0.4954 0.46406 0.99641 0.0
C1775 C 0.51482 0.47677 1.01252 0.0
C1776 C 0.50878 0.49051 1.00797 0.0
C1777 C 0.49587 0.49092 0.99783 0.0
C1778 C 0.48927 0.47784 0.99206 0.0
C1779 C 0.51586 0.50445 1.01387 0.0
C1780 C 0.5074 0.51451 0.02347 0.0
C1781 C 0.53097 0.50762 1.01058 0.0
C1782 C 0.54031 0.49785 0.99974 0.0
C1783 C 0.53593 0.4941 0.98279 0.0
C1784 C 0.54474 0.48481 0.97268 0.0
C1785 C 0.558 0.47927 0.97934 0.0
C1786 C 0.56251 0.48305 0.99611 0.0
C1787 C 0.55374 0.49233 1.00628 0.0
H1788 H 0.56481 0.47208 0.9715 0.0
H1789 H 0.47982 0.56312 0.06913 0.0
H1790 H 0.95544 0.53005 0.52778 0.0
H1791 H 0.97816 0.5187 0.51705 0.0
H1792 H 1.00415 0.5492 0.54739 0.0
H1793 H 0.98146 0.56097 0.5577 0.0
H1794 H 1.01548 0.54625 0.51547 0.0
H1795 H 0.99914 0.51343 0.56054 0.0
H1796 H 0.98141 0.49734 0.57592 0.0
H1797 H 0.97812 0.46946 0.53107 0.0
H1798 H 0.99569 0.48551 0.51534 0.0
H1799 H 0.08415 0.50876 0.51044 0.0
H1800 H 0.06132 0.52012 0.52082 0.0
H1801 H 0.03565 0.48949 0.4903 0.0
H1802 H 0.05845 0.47771 0.48033 0.0
H1803 H 0.02409 0.49248 0.52214 0.0
H1804 H 0.04056 0.52525 0.47712 0.0
H1805 H 0.05832 0.54135 0.46179 0.0
H1806 H 0.06139 0.56932 0.50657 0.0
H1807 H 0.0438 0.55327 0.52227 0.0
C1808 C 0.96598 0.53445 0.53204 0.0
C1809 C 0.96661 0.54642 0.54364 0.0
C1810 C 0.97897 0.52784 0.52603 0.0
C1811 C 0.99287 0.53297 0.53159 0.0
C1812 C 0.99355 0.54502 0.54299 0.0
C1813 C 0.98056 0.55165 0.54899 0.0
C1814 C 1.00671 0.52581 0.52545 0.0
C1815 C 1.01745 0.53453 0.51714 0.0
C1816 C 1.00914 0.51045 0.52725 0.0
C1817 C 0.99862 0.50075 0.53671 0.0
C1818 C 0.99455 0.50393 0.55391 0.0
C1819 C 0.98454 0.49481 0.5627 0.0
C1820 C 0.97861 0.48241 0.55446 0.0
C1821 C 0.9827 0.47908 0.53743 0.0
C1822 C 0.9927 0.48818 0.52857 0.0
C1823 C 0.07365 0.50433 0.50606 0.0
C1824 C 0.07315 0.49232 0.49452 0.0
C1825 C 0.0606 0.51095 0.51187 0.0
C1826 C 0.04676 0.50579 0.50617 0.0
C1827 C 0.0462 0.4937 0.49481 0.0
C1828 C 0.05925 0.48706 0.489 0.0
C1829 C 0.03287 0.51292 0.51217 0.0
C1830 C 0.02212 0.5042 0.52046 0.0
C1831 C 0.03043 0.52828 0.51036 0.0
C1832 C 0.04097 0.53798 0.50092 0.0
C1833 C 0.04511 0.53477 0.48375 0.0
C1834 C 0.05513 0.5439 0.47498 0.0
C1835 C 0.06101 0.55633 0.48322 0.0
C1836 C 0.05684 0.55968 0.50022 0.0
C1837 C 0.04684 0.55058 0.50905 0.0
H1838 H 0.06877 0.56338 0.47641 0.0
H1839 H 0.97086 0.47536 0.56129 0.0
loop_
_geom_bond_atom_site_label_1
_geom_bond_atom_site_label_2
_geom_bond_distance
_geom_bond_site_symmetry_2
_ccdc_geom_bond_type
C0 C1 1.264 . S
C0 C5 1.479 . S
C0 C10 1.465 . S
C1 C0 1.264 . S
C1 C3 1.339 . S
C1 H28 0.931 . S
C2 C3 1.395 . S
C2 C4 1.320 . S
C3 C1 1.339 . S
C3 C2 1.395 . S
C3 H29 0.929 . S
C4 C2 1.320 . S
C4 C5 1.405 . S
C4 H30 0.930 . S
C5 C0 1.479 . S
C5 C4 1.405 . S
C5 H31 0.931 . S
U6 O7 2.454 . S
U6 O8 2.458 . S
U6 C9 2.984 . S
U6 C10 2.847 . S
U6 C23 2.882 . S
U6 O24 2.441 . S
U6 O25 2.420 . S
U6 O26 2.455 . S
U6 O27 2.449 . S
O7 U6 2.454 . S
O7 C9 1.353 . S
O8 U6 2.458 . S
O8 C9 1.286 . S
C9 U6 2.984 . S
C9 O7 1.353 . S
C9 O8 1.286 . S
C9 C11 1.363 . S
C10 C0 1.465 . S
C10 U6 2.847 . S
C10 O24 1.249 . S
C10 O25 1.202 . S
C11 C9 1.363 . S
C11 C13 1.408 . S
C11 C16 1.342 . S
C12 C13 1.310 . S
C12 C15 1.461 . S
C12 H32 0.932 . S
C13 C11 1.408 . S
C13 C12 1.310 . S
C13 H33 0.930 . S
C14 C15 1.474 . S
C14 C16 1.285 . S
C14 H34 0.929 . S
C15 C12 1.461 . S
C15 C14 1.474 . S
C16 C11 1.342 . S
C16 C14 1.285 . S
C16 H35 0.930 . S
C17 C20 1.424 . S
C17 C22 1.245 . S
C17 C23 1.428 . S
C18 C21 1.260 . S
C18 C22 1.477 . S
C18 H36 0.932 . S
C19 C20 1.384 . S
C19 C21 1.479 . S
C19 H37 0.929 . S
C20 C17 1.424 . S
C20 C19 1.384 . S
C20 H38 0.928 . S
C21 C18 1.260 . S
C21 C19 1.479 . S
C22 C17 1.245 . S
C22 C18 1.477 . S
C22 H39 0.932 . S
C23 U6 2.882 . S
C23 C17 1.428 . S
C23 O26 1.301 . S
C23 O27 1.282 . S
O24 U6 2.441 . S
O24 C10 1.249 . S
O25 U6 2.420 . S
O25 C10 1.202 . S
O26 U6 2.455 . S
O26 C23 1.301 . S
O27 U6 2.449 . S
O27 C23 1.282 . S
H28 C1 0.931 . S
H29 C3 0.929 . S
H30 C4 0.930 . S
H31 C5 0.931 . S
H32 C12 0.932 . S
H33 C13 0.930 . S
H34 C14 0.929 . S
H35 C16 0.930 . S
H36 C18 0.932 . S
H37 C19 0.929 . S
H38 C20 0.928 . S
H39 C22 0.932 . S
C40 C41 1.264 . S
C40 C45 1.479 . S
C40 C50 1.465 . S
C41 C40 1.264 . S
C41 C43 1.339 . S
C41 H68 0.931 . S
C42 C43 1.395 . S
C42 C44 1.320 . S
C43 C41 1.339 . S
C43 C42 1.395 . S
C43 H69 0.929 . S
C44 C42 1.320 . S
C44 C45 1.405 . S
C44 H70 0.930 . S
C45 C40 1.479 . S
C45 C44 1.405 . S
C45 H71 0.931 . S
U46 O47 2.454 . S
U46 O48 2.458 . S
U46 C49 2.984 . S
U46 C50 2.847 . S
U46 C63 2.882 . S
U46 O64 2.441 . S
U46 O65 2.420 . S
U46 O66 2.455 . S
U46 O67 2.449 . S
O47 U46 2.454 . S
O47 C49 1.353 . S
O48 U46 2.458 . S
O48 C49 1.286 . S
C49 U46 2.984 . S
C49 O47 1.353 . S
C49 O48 1.286 . S
C49 C51 1.363 . S
C50 C40 1.465 . S
C50 U46 2.847 . S
C50 O64 1.249 . S
C50 O65 1.202 . S
C51 C49 1.363 . S
C51 C53 1.408 . S
C51 C56 1.342 . S
C52 C53 1.310 . S
C52 C55 1.461 . S
C52 H72 0.932 . S
C53 C51 1.408 . S
C53 C52 1.310 . S
C53 H73 0.930 . S
C54 C55 1.474 . S
C54 C56 1.285 . S
C54 H74 0.929 . S
C55 C52 1.461 . S
C55 C54 1.474 . S
C56 C51 1.342 . S
C56 C54 1.285 . S
C56 H75 0.930 . S
C57 C60 1.424 . S
C57 C62 1.245 . S
C57 C63 1.428 . S
C58 C61 1.260 . S
C58 C62 1.477 . S
C58 H76 0.932 . S
C59 C60 1.384 . S
C59 C61 1.479 . S
C59 H77 0.929 . S
C60 C57 1.424 . S
C60 C59 1.384 . S
C60 H78 0.928 . S
C61 C58 1.260 . S
C61 C59 1.479 . S
C62 C57 1.245 . S
C62 C58 1.477 . S
C62 H79 0.932 . S
C63 U46 2.882 . S
C63 C57 1.428 . S
C63 O66 1.301 . S
C63 O67 1.282 . S
O64 U46 2.441 . S
O64 C50 1.249 . S
O65 U46 2.420 . S
O65 C50 1.202 . S
O66 U46 2.455 . S
O66 C63 1.301 . S
O67 U46 2.449 . S
O67 C63 1.282 . S
H68 C41 0.931 . S
H69 C43 0.929 . S
H70 C44 0.930 . S
H71 C45 0.931 . S
H72 C52 0.932 . S
H73 C53 0.930 . S
H74 C54 0.929 . S
H75 C56 0.930 . S
H76 C58 0.932 . S
H77 C59 0.929 . S
H78 C60 0.928 . S
H79 C62 0.932 . S
C80 C81 1.264 . S
C80 C85 1.479 . S
C80 C90 1.465 . S
C81 C80 1.264 . S
C81 C83 1.339 . S
C81 H108 0.931 . S
C82 C83 1.395 . S
C82 C84 1.320 . S
C83 C81 1.339 . S
C83 C82 1.395 . S
C83 H109 0.929 . S
C84 C82 1.320 . S
C84 C85 1.405 . S
C84 H110 0.930 . S
C85 C80 1.479 . S
C85 C84 1.405 . S
C85 H111 0.931 . S
U86 O87 2.454 . S
U86 O88 2.458 . S
U86 C89 2.984 . S
U86 C90 2.847 . S
U86 C103 2.882 . S
U86 O104 2.441 . S
U86 O105 2.420 . S
U86 O106 2.455 . S
U86 O107 2.449 . S
O87 U86 2.454 . S
O87 C89 1.353 . S
O88 U86 2.458 . S
O88 C89 1.286 . S
C89 U86 2.984 . S
C89 O87 1.353 . S
C89 O88 1.286 . S
C89 C91 1.363 . S
C90 C80 1.465 . S
C90 U86 2.847 . S
C90 O104 1.249 . S
C90 O105 1.202 . S
C91 C89 1.363 . S
C91 C93 1.408 . S
C91 C96 1.342 . S
C92 C93 1.310 . S
C92 C95 1.461 . S
C92 H112 0.932 . S
C93 C91 1.408 . S
C93 C92 1.310 . S
C93 H113 0.930 . S
C94 C95 1.474 . S
C94 C96 1.285 . S
C94 H114 0.929 . S
C95 C92 1.461 . S
C95 C94 1.474 . S
C96 C91 1.342 . S
C96 C94 1.285 . S
C96 H115 0.930 . S
C97 C100 1.424 . S
C97 C102 1.245 . S
C97 C103 1.428 . S
C98 C101 1.260 . S
C98 C102 1.477 . S
C98 H116 0.932 . S
C99 C100 1.384 . S
C99 C101 1.479 . S
C99 H117 0.929 . S
C100 C97 1.424 . S
C100 C99 1.384 . S
C100 H118 0.928 . S
C101 C98 1.260 . S
C101 C99 1.479 . S
C102 C97 1.245 . S
C102 C98 1.477 . S
C102 H119 0.932 . S
C103 U86 2.882 . S
C103 C97 1.428 . S
C103 O106 1.301 . S
C103 O107 1.282 . S
O104 U86 2.441 . S
O104 C90 1.249 . S
O105 U86 2.420 . S
O105 C90 1.202 . S
O106 U86 2.455 . S
O106 C103 1.301 . S
O107 U86 2.449 . S
O107 C103 1.282 . S
H108 C81 0.931 . S
H109 C83 0.929 . S
H110 C84 0.930 . S
H111 C85 0.931 . S
H112 C92 0.932 . S
H113 C93 0.930 . S
H114 C94 0.929 . S
H115 C96 0.930 . S
H116 C98 0.932 . S
H117 C99 0.929 . S
H118 C100 0.928 . S
H119 C102 0.932 . S
C120 C121 1.264 . S
C120 C125 1.479 . S
C120 C130 1.465 . S
C121 C120 1.264 . S
C121 C123 1.339 . S
C121 H148 0.931 . S
C122 C123 1.395 . S
C122 C124 1.320 . S
C123 C121 1.339 . S
C123 C122 1.395 . S
C123 H149 0.929 . S
C124 C122 1.320 . S
C124 C125 1.405 . S
C124 H150 0.930 . S
C125 C120 1.479 . S
C125 C124 1.405 . S
C125 H151 0.931 . S
U126 O127 2.454 . S
U126 O128 2.458 . S
U126 C129 2.984 . S
U126 C130 2.847 . S
U126 C143 2.882 . S
U126 O144 2.441 . S
U126 O145 2.420 . S
U126 O146 2.455 . S
U126 O147 2.449 . S
O127 U126 2.454 . S
O127 C129 1.353 . S
O128 U126 2.458 . S
O128 C129 1.286 . S
C129 U126 2.984 . S
C129 O127 1.353 . S
C129 O128 1.286 . S
C129 C131 1.363 . S
C130 C120 1.465 . S
C130 U126 2.847 . S
C130 O144 1.249 . S
C130 O145 1.202 . S
C131 C129 1.363 . S
C131 C133 1.408 . S
C131 C136 1.342 . S
C132 C133 1.310 . S
C132 C135 1.461 . S
C132 H152 0.932 . S
C133 C131 1.408 . S
C133 C132 1.310 . S
C133 H153 0.930 . S
C134 C135 1.474 . S
C134 C136 1.285 . S
C134 H154 0.929 . S
C135 C132 1.461 . S
C135 C134 1.474 . S
C136 C131 1.342 . S
C136 C134 1.285 . S
C136 H155 0.930 . S
C137 C140 1.424 . S
C137 C142 1.245 . S
C137 C143 1.428 . S
C138 C141 1.260 . S
C138 C142 1.477 . S
C138 H156 0.932 . S
C139 C140 1.384 . S
C139 C141 1.479 . S
C139 H157 0.929 . S
C140 C137 1.424 . S
C140 C139 1.384 . S
C140 H158 0.928 . S
C141 C138 1.260 . S
C141 C139 1.479 . S
C142 C137 1.245 . S
C142 C138 1.477 . S
C142 H159 0.932 . S
C143 U126 2.882 . S
C143 C137 1.428 . S
C143 O146 1.301 . S
C143 O147 1.282 . S
O144 U126 2.441 . S
O144 C130 1.249 . S
O145 U126 2.420 . S
O145 C130 1.202 . S
O146 U126 2.455 . S
O146 C143 1.301 . S
O147 U126 2.449 . S
O147 C143 1.282 . S
H148 C121 0.931 . S
H149 C123 0.929 . S
H150 C124 0.930 . S
H151 C125 0.931 . S
H152 C132 0.932 . S
H153 C133 0.930 . S
H154 C134 0.929 . S
H155 C136 0.930 . S
H156 C138 0.932 . S
H157 C139 0.929 . S
H158 C140 0.928 . S
H159 C142 0.932 . S
C160 C161 1.264 . S
C160 C165 1.479 . S
C160 C170 1.465 . S
C161 C160 1.264 . S
C161 C163 1.339 . S
C161 H188 0.931 . S
C162 C163 1.395 . S
C162 C164 1.320 . S
C163 C161 1.339 . S
C163 C162 1.395 . S
C163 H189 0.929 . S
C164 C162 1.320 . S
C164 C165 1.405 . S
C164 H190 0.930 . S
C165 C160 1.479 . S
C165 C164 1.405 . S
C165 H191 0.931 . S
U166 O167 2.454 . S
U166 O168 2.458 . S
U166 C169 2.984 . S
U166 C170 2.847 . S
U166 C183 2.882 . S
U166 O184 2.441 . S
U166 O185 2.420 . S
U166 O186 2.455 . S
U166 O187 2.449 . S
O167 U166 2.454 . S
O167 C169 1.353 . S
O168 U166 2.458 . S
O168 C169 1.286 . S
C169 U166 2.984 . S
C169 O167 1.353 . S
C169 O168 1.286 . S
C169 C171 1.363 . S
C170 C160 1.465 . S
C170 U166 2.847 . S
C170 O184 1.249 . S
C170 O185 1.202 . S
C171 C169 1.363 . S
C171 C173 1.408 . S
C171 C176 1.342 . S
C172 C173 1.310 . S
C172 C175 1.461 . S
C172 H192 0.932 . S
C173 C171 1.408 . S
C173 C172 1.310 . S
C173 H193 0.930 . S
C174 C175 1.474 . S
C174 C176 1.285 . S
C174 H194 0.929 . S
C175 C172 1.461 . S
C175 C174 1.474 . S
C176 C171 1.342 . S
C176 C174 1.285 . S
C176 H195 0.930 . S
C177 C180 1.424 . S
C177 C182 1.245 . S
C177 C183 1.428 . S
C178 C181 1.260 . S
C178 C182 1.477 . S
C178 H196 0.932 . S
C179 C180 1.384 . S
C179 C181 1.479 . S
C179 H197 0.929 . S
C180 C177 1.424 . S
C180 C179 1.384 . S
C180 H198 0.928 . S
C181 C178 1.260 . S
C181 C179 1.479 . S
C182 C177 1.245 . S
C182 C178 1.477 . S
C182 H199 0.932 . S
C183 U166 2.882 . S
C183 C177 1.428 . S
C183 O186 1.301 . S
C183 O187 1.282 . S
O184 U166 2.441 . S
O184 C170 1.249 . S
O185 U166 2.420 . S
O185 C170 1.202 . S
O186 U166 2.455 . S
O186 C183 1.301 . S
O187 U166 2.449 . S
O187 C183 1.282 . S
H188 C161 0.931 . S
H189 C163 0.929 . S
H190 C164 0.930 . S
H191 C165 0.931 . S
H192 C172 0.932 . S
H193 C173 0.930 . S
H194 C174 0.929 . S
H195 C176 0.930 . S
H196 C178 0.932 . S
H197 C179 0.929 . S
H198 C180 0.928 . S
H199 C182 0.932 . S
C200 C201 1.264 . S
C200 C205 1.479 . S
C200 C210 1.465 . S
C201 C200 1.264 . S
C201 C203 1.339 . S
C201 H228 0.931 . S
C202 C203 1.395 . S
C202 C204 1.320 . S
C203 C201 1.339 . S
C203 C202 1.395 . S
C203 H229 0.929 . S
C204 C202 1.320 . S
C204 C205 1.405 . S
C204 H230 0.930 . S
C205 C200 1.479 . S
C205 C204 1.405 . S
C205 H231 0.931 . S
U206 O207 2.454 . S
U206 O208 2.458 . S
U206 C209 2.984 . S
U206 C210 2.847 . S
U206 C223 2.882 . S
U206 O224 2.441 . S
U206 O225 2.420 . S
U206 O226 2.455 . S
U206 O227 2.449 . S
O207 U206 2.454 . S
O207 C209 1.353 . S
O208 U206 2.458 . S
O208 C209 1.286 . S
C209 U206 2.984 . S
C209 O207 1.353 . S
C209 O208 1.286 . S
C209 C211 1.363 . S
C210 C200 1.465 . S
C210 U206 2.847 . S
C210 O224 1.249 . S
C210 O225 1.202 . S
C211 C209 1.363 . S
C211 C213 1.408 . S
C211 C216 1.342 . S
C212 C213 1.310 . S
C212 C215 1.461 . S
C212 H232 0.932 . S
C213 C211 1.408 . S
C213 C212 1.310 . S
C213 H233 0.930 . S
C214 C215 1.474 . S
C214 C216 1.285 . S
C214 H234 0.929 . S
C215 C212 1.461 . S
C215 C214 1.474 . S
C216 C211 1.342 . S
C216 C214 1.285 . S
C216 H235 0.930 . S
C217 C220 1.424 . S
C217 C222 1.245 . S
C217 C223 1.428 . S
C218 C221 1.260 . S
C218 C222 1.477 . S
C218 H236 0.932 . S
C219 C220 1.384 . S
C219 C221 1.479 . S
C219 H237 0.929 . S
C220 C217 1.424 . S
C220 C219 1.384 . S
C220 H238 0.928 . S
C221 C218 1.260 . S
C221 C219 1.479 . S
C222 C217 1.245 . S
C222 C218 1.477 . S
C222 H239 0.932 . S
C223 U206 2.882 . S
C223 C217 1.428 . S
C223 O226 1.301 . S
C223 O227 1.282 . S
O224 U206 2.441 . S
O224 C210 1.249 . S
O225 U206 2.420 . S
O225 C210 1.202 . S
O226 U206 2.455 . S
O226 C223 1.301 . S
O227 U206 2.449 . S
O227 C223 1.282 . S
H228 C201 0.931 . S
H229 C203 0.929 . S
H230 C204 0.930 . S
H231 C205 0.931 . S
H232 C212 0.932 . S
H233 C213 0.930 . S
H234 C214 0.929 . S
H235 C216 0.930 . S
H236 C218 0.932 . S
H237 C219 0.929 . S
H238 C220 0.928 . S
H239 C222 0.932 . S
C240 C241 1.264 . S
C240 C245 1.479 . S
C240 C250 1.465 . S
C241 C240 1.264 . S
C241 C243 1.339 . S
C241 H268 0.931 . S
C242 C243 1.395 . S
C242 C244 1.320 . S
C243 C241 1.339 . S
C243 C242 1.395 . S
C243 H269 0.929 . S
C244 C242 1.320 . S
C244 C245 1.405 . S
C244 H270 0.930 . S
C245 C240 1.479 . S
C245 C244 1.405 . S
C245 H271 0.931 . S
U246 O247 2.454 . S
U246 O248 2.458 . S
U246 C249 2.984 . S
U246 C250 2.847 . S
U246 C263 2.882 . S
U246 O264 2.441 . S
U246 O265 2.420 . S
U246 O266 2.455 . S
U246 O267 2.449 . S
O247 U246 2.454 . S
O247 C249 1.353 . S
O248 U246 2.458 . S
O248 C249 1.286 . S
C249 U246 2.984 . S
C249 O247 1.353 . S
C249 O248 1.286 . S
C249 C251 1.363 . S
C250 C240 1.465 . S
C250 U246 2.847 . S
C250 O264 1.249 . S
C250 O265 1.202 . S
C251 C249 1.363 . S
C251 C253 1.408 . S
C251 C256 1.342 . S
C252 C253 1.310 . S
C252 C255 1.461 . S
C252 H272 0.932 . S
C253 C251 1.408 . S
C253 C252 1.310 . S
C253 H273 0.930 . S
C254 C255 1.474 . S
C254 C256 1.285 . S
C254 H274 0.929 . S
C255 C252 1.461 . S
C255 C254 1.474 . S
C256 C251 1.342 . S
C256 C254 1.285 . S
C256 H275 0.930 . S
C257 C260 1.424 . S
C257 C262 1.245 . S
C257 C263 1.428 . S
C258 C261 1.260 . S
C258 C262 1.477 . S
C258 H276 0.932 . S
C259 C260 1.384 . S
C259 C261 1.479 . S
C259 H277 0.929 . S
C260 C257 1.424 . S
C260 C259 1.384 . S
C260 H278 0.928 . S
C261 C258 1.260 . S
C261 C259 1.479 . S
C262 C257 1.245 . S
C262 C258 1.477 . S
C262 H279 0.932 . S
C263 U246 2.882 . S
C263 C257 1.428 . S
C263 O266 1.301 . S
C263 O267 1.282 . S
O264 U246 2.441 . S
O264 C250 1.249 . S
O265 U246 2.420 . S
O265 C250 1.202 . S
O266 U246 2.455 . S
O266 C263 1.301 . S
O267 U246 2.449 . S
O267 C263 1.282 . S
H268 C241 0.931 . S
H269 C243 0.929 . S
H270 C244 0.930 . S
H271 C245 0.931 . S
H272 C252 0.932 . S
H273 C253 0.930 . S
H274 C254 0.929 . S
H275 C256 0.930 . S
H276 C258 0.932 . S
H277 C259 0.929 . S
H278 C260 0.928 . S
H279 C262 0.932 . S
C280 C281 1.264 . S
C280 C285 1.479 . S
C280 C290 1.465 . S
C281 C280 1.264 . S
C281 C283 1.339 . S
C281 H308 0.931 . S
C282 C283 1.395 . S
C282 C284 1.320 . S
C283 C281 1.339 . S
C283 C282 1.395 . S
C283 H309 0.929 . S
C284 C282 1.320 . S
C284 C285 1.405 . S
C284 H310 0.930 . S
C285 C280 1.479 . S
C285 C284 1.405 . S
C285 H311 0.931 . S
U286 O287 2.454 . S
U286 O288 2.458 . S
U286 C289 2.984 . S
U286 C290 2.847 . S
U286 C303 2.882 . S
U286 O304 2.441 . S
U286 O305 2.420 . S
U286 O306 2.455 . S
U286 O307 2.449 . S
O287 U286 2.454 . S
O287 C289 1.353 . S
O288 U286 2.458 . S
O288 C289 1.286 . S
C289 U286 2.984 . S
C289 O287 1.353 . S
C289 O288 1.286 . S
C289 C291 1.363 . S
C290 C280 1.465 . S
C290 U286 2.847 . S
C290 O304 1.249 . S
C290 O305 1.202 . S
C291 C289 1.363 . S
C291 C293 1.408 . S
C291 C296 1.342 . S
C292 C293 1.310 . S
C292 C295 1.461 . S
C292 H312 0.932 . S
C293 C291 1.408 . S
C293 C292 1.310 . S
C293 H313 0.930 . S
C294 C295 1.474 . S
C294 C296 1.285 . S
C294 H314 0.929 . S
C295 C292 1.461 . S
C295 C294 1.474 . S
C296 C291 1.342 . S
C296 C294 1.285 . S
C296 H315 0.930 . S
C297 C300 1.424 . S
C297 C302 1.245 . S
C297 C303 1.428 . S
C298 C301 1.260 . S
C298 C302 1.477 . S
C298 H316 0.932 . S
C299 C300 1.384 . S
C299 C301 1.479 . S
C299 H317 0.929 . S
C300 C297 1.424 . S
C300 C299 1.384 . S
C300 H318 0.928 . S
C301 C298 1.260 . S
C301 C299 1.479 . S
C302 C297 1.245 . S
C302 C298 1.477 . S
C302 H319 0.932 . S
C303 U286 2.882 . S
C303 C297 1.428 . S
C303 O306 1.301 . S
C303 O307 1.282 . S
O304 U286 2.441 . S
O304 C290 1.249 . S
O305 U286 2.420 . S
O305 C290 1.202 . S
O306 U286 2.455 . S
O306 C303 1.301 . S
O307 U286 2.449 . S
O307 C303 1.282 . S
H308 C281 0.931 . S
H309 C283 0.929 . S
H310 C284 0.930 . S
H311 C285 0.931 . S
H312 C292 0.932 . S
H313 C293 0.930 . S
H314 C294 0.929 . S
H315 C296 0.930 . S
H316 C298 0.932 . S
H317 C299 0.929 . S
H318 C300 0.928 . S
H319 C302 0.932 . S
C320 C321 1.264 . S
C320 C325 1.479 . S
C320 C330 1.465 . S
C321 C320 1.264 . S
C321 C323 1.339 . S
C321 H348 0.931 . S
C322 C323 1.395 . S
C322 C324 1.320 . S
C323 C321 1.339 . S
C323 C322 1.395 . S
C323 H349 0.929 . S
C324 C322 1.320 . S
C324 C325 1.405 . S
C324 H350 0.930 . S
C325 C320 1.479 . S
C325 C324 1.405 . S
C325 H351 0.931 . S
U326 O327 2.454 . S
U326 O328 2.458 . S
U326 C329 2.984 . S
U326 C330 2.847 . S
U326 C343 2.882 . S
U326 O344 2.441 . S
U326 O345 2.420 . S
U326 O346 2.455 . S
U326 O347 2.449 . S
O327 U326 2.454 . S
O327 C329 1.353 . S
O328 U326 2.458 . S
O328 C329 1.286 . S
C329 U326 2.984 . S
C329 O327 1.353 . S
C329 O328 1.286 . S
C329 C331 1.363 . S
C330 C320 1.465 . S
C330 U326 2.847 . S
C330 O344 1.249 . S
C330 O345 1.202 . S
C331 C329 1.363 . S
C331 C333 1.408 . S
C331 C336 1.342 . S
C332 C333 1.310 . S
C332 C335 1.461 . S
C332 H352 0.932 . S
C333 C331 1.408 . S
C333 C332 1.310 . S
C333 H353 0.930 . S
C334 C335 1.474 . S
C334 C336 1.285 . S
C334 H354 0.929 . S
C335 C332 1.461 . S
C335 C334 1.474 . S
C336 C331 1.342 . S
C336 C334 1.285 . S
C336 H355 0.930 . S
C337 C340 1.424 . S
C337 C342 1.245 . S
C337 C343 1.428 . S
C338 C341 1.260 . S
C338 C342 1.477 . S
C338 H356 0.932 . S
C339 C340 1.384 . S
C339 C341 1.479 . S
C339 H357 0.929 . S
C340 C337 1.424 . S
C340 C339 1.384 . S
C340 H358 0.928 . S
C341 C338 1.260 . S
C341 C339 1.479 . S
C342 C337 1.245 . S
C342 C338 1.477 . S
C342 H359 0.932 . S
C343 U326 2.882 . S
C343 C337 1.428 . S
C343 O346 1.301 . S
C343 O347 1.282 . S
O344 U326 2.441 . S
O344 C330 1.249 . S
O345 U326 2.420 . S
O345 C330 1.202 . S
O346 U326 2.455 . S
O346 C343 1.301 . S
O347 U326 2.449 . S
O347 C343 1.282 . S
H348 C321 0.931 . S
H349 C323 0.929 . S
H350 C324 0.930 . S
H351 C325 0.931 . S
H352 C332 0.932 . S
H353 C333 0.930 . S
H354 C334 0.929 . S
H355 C336 0.930 . S
H356 C338 0.932 . S
H357 C339 0.929 . S
H358 C340 0.928 . S
H359 C342 0.932 . S
C360 C361 1.264 . S
C360 C365 1.479 . S
C360 C370 1.465 . S
C361 C360 1.264 . S
C361 C363 1.339 . S
C361 H388 0.931 . S
C362 C363 1.395 . S
C362 C364 1.320 . S
C363 C361 1.339 . S
C363 C362 1.395 . S
C363 H389 0.929 . S
C364 C362 1.320 . S
C364 C365 1.405 . S
C364 H390 0.930 . S
C365 C360 1.479 . S
C365 C364 1.405 . S
C365 H391 0.931 . S
U366 O367 2.454 . S
U366 O368 2.458 . S
U366 C369 2.984 . S
U366 C370 2.847 . S
U366 C383 2.882 . S
U366 O384 2.441 . S
U366 O385 2.420 . S
U366 O386 2.455 . S
U366 O387 2.449 . S
O367 U366 2.454 . S
O367 C369 1.353 . S
O368 U366 2.458 . S
O368 C369 1.286 . S
C369 U366 2.984 . S
C369 O367 1.353 . S
C369 O368 1.286 . S
C369 C371 1.363 . S
C370 C360 1.465 . S
C370 U366 2.847 . S
C370 O384 1.249 . S
C370 O385 1.202 . S
C371 C369 1.363 . S
C371 C373 1.408 . S
C371 C376 1.342 . S
C372 C373 1.310 . S
C372 C375 1.461 . S
C372 H392 0.932 . S
C373 C371 1.408 . S
C373 C372 1.310 . S
C373 H393 0.930 . S
C374 C375 1.474 . S
C374 C376 1.285 . S
C374 H394 0.929 . S
C375 C372 1.461 . S
C375 C374 1.474 . S
C376 C371 1.342 . S
C376 C374 1.285 . S
C376 H395 0.930 . S
C377 C380 1.424 . S
C377 C382 1.245 . S
C377 C383 1.428 . S
C378 C381 1.260 . S
C378 C382 1.477 . S
C378 H396 0.932 . S
C379 C380 1.384 . S
C379 C381 1.479 . S
C379 H397 0.929 . S
C380 C377 1.424 . S
C380 C379 1.384 . S
C380 H398 0.928 . S
C381 C378 1.260 . S
C381 C379 1.479 . S
C382 C377 1.245 . S
C382 C378 1.477 . S
C382 H399 0.932 . S
C383 U366 2.882 . S
C383 C377 1.428 . S
C383 O386 1.301 . S
C383 O387 1.282 . S
O384 U366 2.441 . S
O384 C370 1.249 . S
O385 U366 2.420 . S
O385 C370 1.202 . S
O386 U366 2.455 . S
O386 C383 1.301 . S
O387 U366 2.449 . S
O387 C383 1.282 . S
H388 C361 0.931 . S
H389 C363 0.929 . S
H390 C364 0.930 . S
H391 C365 0.931 . S
H392 C372 0.932 . S
H393 C373 0.930 . S
H394 C374 0.929 . S
H395 C376 0.930 . S
H396 C378 0.932 . S
H397 C379 0.929 . S
H398 C380 0.928 . S
H399 C382 0.932 . S
C400 C401 1.264 . S
C400 C405 1.479 . S
C400 C410 1.465 . S
C401 C400 1.264 . S
C401 C403 1.339 . S
C401 H428 0.931 . S
C402 C403 1.395 . S
C402 C404 1.320 . S
C403 C401 1.339 . S
C403 C402 1.395 . S
C403 H429 0.929 . S
C404 C402 1.320 . S
C404 C405 1.405 . S
C404 H430 0.930 . S
C405 C400 1.479 . S
C405 C404 1.405 . S
C405 H431 0.931 . S
U406 O407 2.454 . S
U406 O408 2.458 . S
U406 C409 2.984 . S
U406 C410 2.847 . S
U406 C423 2.882 . S
U406 O424 2.441 . S
U406 O425 2.420 . S
U406 O426 2.455 . S
U406 O427 2.449 . S
O407 U406 2.454 . S
O407 C409 1.353 . S
O408 U406 2.458 . S
O408 C409 1.286 . S
C409 U406 2.984 . S
C409 O407 1.353 . S
C409 O408 1.286 . S
C409 C411 1.363 . S
C410 C400 1.465 . S
C410 U406 2.847 . S
C410 O424 1.249 . S
C410 O425 1.202 . S
C411 C409 1.363 . S
C411 C413 1.408 . S
C411 C416 1.342 . S
C412 C413 1.310 . S
C412 C415 1.461 . S
C412 H432 0.932 . S
C413 C411 1.408 . S
C413 C412 1.310 . S
C413 H433 0.930 . S
C414 C415 1.474 . S
C414 C416 1.285 . S
C414 H434 0.929 . S
C415 C412 1.461 . S
C415 C414 1.474 . S
C416 C411 1.342 . S
C416 C414 1.285 . S
C416 H435 0.930 . S
C417 C420 1.424 . S
C417 C422 1.245 . S
C417 C423 1.428 . S
C418 C421 1.260 . S
C418 C422 1.477 . S
C418 H436 0.932 . S
C419 C420 1.384 . S
C419 C421 1.479 . S
C419 H437 0.929 . S
C420 C417 1.424 . S
C420 C419 1.384 . S
C420 H438 0.928 . S
C421 C418 1.260 . S
C421 C419 1.479 . S
C422 C417 1.245 . S
C422 C418 1.477 . S
C422 H439 0.932 . S
C423 U406 2.882 . S
C423 C417 1.428 . S
C423 O426 1.301 . S
C423 O427 1.282 . S
O424 U406 2.441 . S
O424 C410 1.249 . S
O425 U406 2.420 . S
O425 C410 1.202 . S
O426 U406 2.455 . S
O426 C423 1.301 . S
O427 U406 2.449 . S
O427 C423 1.282 . S
H428 C401 0.931 . S
H429 C403 0.929 . S
H430 C404 0.930 . S
H431 C405 0.931 . S
H432 C412 0.932 . S
H433 C413 0.930 . S
H434 C414 0.929 . S
H435 C416 0.930 . S
H436 C418 0.932 . S
H437 C419 0.929 . S
H438 C420 0.928 . S
H439 C422 0.932 . S
C440 C441 1.264 . S
C440 C445 1.479 . S
C440 C450 1.465 . S
C441 C440 1.264 . S
C441 C443 1.339 . S
C441 H468 0.931 . S
C442 C443 1.395 . S
C442 C444 1.320 . S
C443 C441 1.339 . S
C443 C442 1.395 . S
C443 H469 0.929 . S
C444 C442 1.320 . S
C444 C445 1.405 . S
C444 H470 0.930 . S
C445 C440 1.479 . S
C445 C444 1.405 . S
C445 H471 0.931 . S
U446 O447 2.454 . S
U446 O448 2.458 . S
U446 C449 2.984 . S
U446 C450 2.847 . S
U446 C463 2.882 . S
U446 O464 2.441 . S
U446 O465 2.420 . S
U446 O466 2.455 . S
U446 O467 2.449 . S
O447 U446 2.454 . S
O447 C449 1.353 . S
O448 U446 2.458 . S
O448 C449 1.286 . S
C449 U446 2.984 . S
C449 O447 1.353 . S
C449 O448 1.286 . S
C449 C451 1.363 . S
C450 C440 1.465 . S
C450 U446 2.847 . S
C450 O464 1.249 . S
C450 O465 1.202 . S
C451 C449 1.363 . S
C451 C453 1.408 . S
C451 C456 1.342 . S
C452 C453 1.310 . S
C452 C455 1.461 . S
C452 H472 0.932 . S
C453 C451 1.408 . S
C453 C452 1.310 . S
C453 H473 0.930 . S
C454 C455 1.474 . S
C454 C456 1.285 . S
C454 H474 0.929 . S
C455 C452 1.461 . S
C455 C454 1.474 . S
C456 C451 1.342 . S
C456 C454 1.285 . S
C456 H475 0.930 . S
C457 C460 1.424 . S
C457 C462 1.245 . S
C457 C463 1.428 . S
C458 C461 1.260 . S
C458 C462 1.477 . S
C458 H476 0.932 . S
C459 C460 1.384 . S
C459 C461 1.479 . S
C459 H477 0.929 . S
C460 C457 1.424 . S
C460 C459 1.384 . S
C460 H478 0.928 . S
C461 C458 1.260 . S
C461 C459 1.479 . S
C462 C457 1.245 . S
C462 C458 1.477 . S
C462 H479 0.932 . S
C463 U446 2.882 . S
C463 C457 1.428 . S
C463 O466 1.301 . S
C463 O467 1.282 . S
O464 U446 2.441 . S
O464 C450 1.249 . S
O465 U446 2.420 . S
O465 C450 1.202 . S
O466 U446 2.455 . S
O466 C463 1.301 . S
O467 U446 2.449 . S
O467 C463 1.282 . S
H468 C441 0.931 . S
H469 C443 0.929 . S
H470 C444 0.930 . S
H471 C445 0.931 . S
H472 C452 0.932 . S
H473 C453 0.930 . S
H474 C454 0.929 . S
H475 C456 0.930 . S
H476 C458 0.932 . S
H477 C459 0.929 . S
H478 C460 0.928 . S
H479 C462 0.932 . S
C480 C481 1.264 . S
C480 C485 1.479 . S
C480 C490 1.465 . S
C481 C480 1.264 . S
C481 C483 1.339 . S
C481 H508 0.931 . S
C482 C483 1.395 . S
C482 C484 1.320 . S
C483 C481 1.339 . S
C483 C482 1.395 . S
C483 H509 0.929 . S
C484 C482 1.320 . S
C484 C485 1.405 . S
C484 H510 0.930 . S
C485 C480 1.479 . S
C485 C484 1.405 . S
C485 H511 0.931 . S
U486 O487 2.454 . S
U486 O488 2.458 . S
U486 C489 2.984 . S
U486 C490 2.847 . S
U486 C503 2.882 . S
U486 O504 2.441 . S
U486 O505 2.420 . S
U486 O506 2.455 . S
U486 O507 2.449 . S
O487 U486 2.454 . S
O487 C489 1.353 . S
O488 U486 2.458 . S
O488 C489 1.286 . S
C489 U486 2.984 . S
C489 O487 1.353 . S
C489 O488 1.286 . S
C489 C491 1.363 . S
C490 C480 1.465 . S
C490 U486 2.847 . S
C490 O504 1.249 . S
C490 O505 1.202 . S
C491 C489 1.363 . S
C491 C493 1.408 . S
C491 C496 1.342 . S
C492 C493 1.310 . S
C492 C495 1.461 . S
C492 H512 0.932 . S
C493 C491 1.408 . S
C493 C492 1.310 . S
C493 H513 0.930 . S
C494 C495 1.474 . S
C494 C496 1.285 . S
C494 H514 0.929 . S
C495 C492 1.461 . S
C495 C494 1.474 . S
C496 C491 1.342 . S
C496 C494 1.285 . S
C496 H515 0.930 . S
C497 C500 1.424 . S
C497 C502 1.245 . S
C497 C503 1.428 . S
C498 C501 1.260 . S
C498 C502 1.477 . S
C498 H516 0.932 . S
C499 C500 1.384 . S
C499 C501 1.479 . S
C499 H517 0.929 . S
C500 C497 1.424 . S
C500 C499 1.384 . S
C500 H518 0.928 . S
C501 C498 1.260 . S
C501 C499 1.479 . S
C502 C497 1.245 . S
C502 C498 1.477 . S
C502 H519 0.932 . S
C503 U486 2.882 . S
C503 C497 1.428 . S
C503 O506 1.301 . S
C503 O507 1.282 . S
O504 U486 2.441 . S
O504 C490 1.249 . S
O505 U486 2.420 . S
O505 C490 1.202 . S
O506 U486 2.455 . S
O506 C503 1.301 . S
O507 U486 2.449 . S
O507 C503 1.282 . S
H508 C481 0.931 . S
H509 C483 0.929 . S
H510 C484 0.930 . S
H511 C485 0.931 . S
H512 C492 0.932 . S
H513 C493 0.930 . S
H514 C494 0.929 . S
H515 C496 0.930 . S
H516 C498 0.932 . S
H517 C499 0.929 . S
H518 C500 0.928 . S
H519 C502 0.932 . S
C520 C521 1.264 . S
C520 C525 1.479 . S
C520 C530 1.465 . S
C521 C520 1.264 . S
C521 C523 1.339 . S
C521 H548 0.931 . S
C522 C523 1.395 . S
C522 C524 1.320 . S
C523 C521 1.339 . S
C523 C522 1.395 . S
C523 H549 0.929 . S
C524 C522 1.320 . S
C524 C525 1.405 . S
C524 H550 0.930 . S
C525 C520 1.479 . S
C525 C524 1.405 . S
C525 H551 0.931 . S
U526 O527 2.454 . S
U526 O528 2.458 . S
U526 C529 2.984 . S
U526 C530 2.847 . S
U526 C543 2.882 . S
U526 O544 2.441 . S
U526 O545 2.420 . S
U526 O546 2.455 . S
U526 O547 2.449 . S
O527 U526 2.454 . S
O527 C529 1.353 . S
O528 U526 2.458 . S
O528 C529 1.286 . S
C529 U526 2.984 . S
C529 O527 1.353 . S
C529 O528 1.286 . S
C529 C531 1.363 . S
C530 C520 1.465 . S
C530 U526 2.847 . S
C530 O544 1.249 . S
C530 O545 1.202 . S
C531 C529 1.363 . S
C531 C533 1.408 . S
C531 C536 1.342 . S
C532 C533 1.310 . S
C532 C535 1.461 . S
C532 H552 0.932 . S
C533 C531 1.408 . S
C533 C532 1.310 . S
C533 H553 0.930 . S
C534 C535 1.474 . S
C534 C536 1.285 . S
C534 H554 0.929 . S
C535 C532 1.461 . S
C535 C534 1.474 . S
C536 C531 1.342 . S
C536 C534 1.285 . S
C536 H555 0.930 . S
C537 C540 1.424 . S
C537 C542 1.245 . S
C537 C543 1.428 . S
C538 C541 1.260 . S
C538 C542 1.477 . S
C538 H556 0.932 . S
C539 C540 1.384 . S
C539 C541 1.479 . S
C539 H557 0.929 . S
C540 C537 1.424 . S
C540 C539 1.384 . S
C540 H558 0.928 . S
C541 C538 1.260 . S
C541 C539 1.479 . S
C542 C537 1.245 . S
C542 C538 1.477 . S
C542 H559 0.932 . S
C543 U526 2.882 . S
C543 C537 1.428 . S
C543 O546 1.301 . S
C543 O547 1.282 . S
O544 U526 2.441 . S
O544 C530 1.249 . S
O545 U526 2.420 . S
O545 C530 1.202 . S
O546 U526 2.455 . S
O546 C543 1.301 . S
O547 U526 2.449 . S
O547 C543 1.282 . S
H548 C521 0.931 . S
H549 C523 0.929 . S
H550 C524 0.930 . S
H551 C525 0.931 . S
H552 C532 0.932 . S
H553 C533 0.930 . S
H554 C534 0.929 . S
H555 C536 0.930 . S
H556 C538 0.932 . S
H557 C539 0.929 . S
H558 C540 0.928 . S
H559 C542 0.932 . S
C560 C561 1.264 . S
C560 C565 1.479 . S
C560 C570 1.465 . S
C561 C560 1.264 . S
C561 C563 1.339 . S
C561 H588 0.931 . S
C562 C563 1.395 . S
C562 C564 1.320 . S
C563 C561 1.339 . S
C563 C562 1.395 . S
C563 H589 0.929 . S
C564 C562 1.320 . S
C564 C565 1.405 . S
C564 H590 0.930 . S
C565 C560 1.479 . S
C565 C564 1.405 . S
C565 H591 0.931 . S
U566 O567 2.454 . S
U566 O568 2.458 . S
U566 C569 2.984 . S
U566 C570 2.847 . S
U566 C583 2.882 . S
U566 O584 2.441 . S
U566 O585 2.420 . S
U566 O586 2.455 . S
U566 O587 2.449 . S
O567 U566 2.454 . S
O567 C569 1.353 . S
O568 U566 2.458 . S
O568 C569 1.286 . S
C569 U566 2.984 . S
C569 O567 1.353 . S
C569 O568 1.286 . S
C569 C571 1.363 . S
C570 C560 1.465 . S
C570 U566 2.847 . S
C570 O584 1.249 . S
C570 O585 1.202 . S
C571 C569 1.363 . S
C571 C573 1.408 . S
C571 C576 1.342 . S
C572 C573 1.310 . S
C572 C575 1.461 . S
C572 H592 0.932 . S
C573 C571 1.408 . S
C573 C572 1.310 . S
C573 H593 0.930 . S
C574 C575 1.474 . S
C574 C576 1.285 . S
C574 H594 0.929 . S
C575 C572 1.461 . S
C575 C574 1.474 . S
C576 C571 1.342 . S
C576 C574 1.285 . S
C576 H595 0.930 . S
C577 C580 1.424 . S
C577 C582 1.245 . S
C577 C583 1.428 . S
C578 C581 1.260 . S
C578 C582 1.477 . S
C578 H596 0.932 . S
C579 C580 1.384 . S
C579 C581 1.479 . S
C579 H597 0.929 . S
C580 C577 1.424 . S
C580 C579 1.384 . S
C580 H598 0.928 . S
C581 C578 1.260 . S
C581 C579 1.479 . S
C582 C577 1.245 . S
C582 C578 1.477 . S
C582 H599 0.932 . S
C583 U566 2.882 . S
C583 C577 1.428 . S
C583 O586 1.301 . S
C583 O587 1.282 . S
O584 U566 2.441 . S
O584 C570 1.249 . S
O585 U566 2.420 . S
O585 C570 1.202 . S
O586 U566 2.455 . S
O586 C583 1.301 . S
O587 U566 2.449 . S
O587 C583 1.282 . S
H588 C561 0.931 . S
H589 C563 0.929 . S
H590 C564 0.930 . S
H591 C565 0.931 . S
H592 C572 0.932 . S
H593 C573 0.930 . S
H594 C574 0.929 . S
H595 C576 0.930 . S
H596 C578 0.932 . S
H597 C579 0.929 . S
H598 C580 0.928 . S
H599 C582 0.932 . S
C600 C601 1.264 . S
C600 C605 1.479 . S
C600 C610 1.465 . S
C601 C600 1.264 . S
C601 C603 1.339 . S
C601 H628 0.931 . S
C602 C603 1.395 . S
C602 C604 1.320 . S
C603 C601 1.339 . S
C603 C602 1.395 . S
C603 H629 0.929 . S
C604 C602 1.320 . S
C604 C605 1.405 . S
C604 H630 0.930 . S
C605 C600 1.479 . S
C605 C604 1.405 . S
C605 H631 0.931 . S
U606 O607 2.454 . S
U606 O608 2.458 . S
U606 C609 2.984 . S
U606 C610 2.847 . S
U606 C623 2.882 . S
U606 O624 2.441 . S
U606 O625 2.420 . S
U606 O626 2.455 . S
U606 O627 2.449 . S
O607 U606 2.454 . S
O607 C609 1.353 . S
O608 U606 2.458 . S
O608 C609 1.286 . S
C609 U606 2.984 . S
C609 O607 1.353 . S
C609 O608 1.286 . S
C609 C611 1.363 . S
C610 C600 1.465 . S
C610 U606 2.847 . S
C610 O624 1.249 . S
C610 O625 1.202 . S
C611 C609 1.363 . S
C611 C613 1.408 . S
C611 C616 1.342 . S
C612 C613 1.310 . S
C612 C615 1.461 . S
C612 H632 0.932 . S
C613 C611 1.408 . S
C613 C612 1.310 . S
C613 H633 0.930 . S
C614 C615 1.474 . S
C614 C616 1.285 . S
C614 H634 0.929 . S
C615 C612 1.461 . S
C615 C614 1.474 . S
C616 C611 1.342 . S
C616 C614 1.285 . S
C616 H635 0.930 . S
C617 C620 1.424 . S
C617 C622 1.245 . S
C617 C623 1.428 . S
C618 C621 1.260 . S
C618 C622 1.477 . S
C618 H636 0.932 . S
C619 C620 1.384 . S
C619 C621 1.479 . S
C619 H637 0.929 . S
C620 C617 1.424 . S
C620 C619 1.384 . S
C620 H638 0.928 . S
C621 C618 1.260 . S
C621 C619 1.479 . S
C622 C617 1.245 . S
C622 C618 1.477 . S
C622 H639 0.932 . S
C623 U606 2.882 . S
C623 C617 1.428 . S
C623 O626 1.301 . S
C623 O627 1.282 . S
O624 U606 2.441 . S
O624 C610 1.249 . S
O625 U606 2.420 . S
O625 C610 1.202 . S
O626 U606 2.455 . S
O626 C623 1.301 . S
O627 U606 2.449 . S
O627 C623 1.282 . S
H628 C601 0.931 . S
H629 C603 0.929 . S
H630 C604 0.930 . S
H631 C605 0.931 . S
H632 C612 0.932 . S
H633 C613 0.930 . S
H634 C614 0.929 . S
H635 C616 0.930 . S
H636 C618 0.932 . S
H637 C619 0.929 . S
H638 C620 0.928 . S
H639 C622 0.932 . S
H640 C658 0.951 . S
H641 C660 0.951 . S
H642 C662 0.950 . S
H643 C663 0.950 . S
H644 C665 0.950 . S
H645 C668 0.950 . S
H646 C669 0.950 . S
H647 C671 0.950 . S
H648 C672 0.950 . S
H649 C673 0.951 . S
H650 C675 0.951 . S
H651 C677 0.950 . S
H652 C678 0.950 . S
H653 C680 0.950 . S
H654 C683 0.950 . S
H655 C684 0.950 . S
H656 C686 0.950 . S
H657 C687 0.950 . S
C658 H640 0.951 . S
C658 C659 1.366 . S
C658 C660 1.388 . S
C659 C658 1.366 . S
C659 C663 1.385 . S
C660 H641 0.951 . S
C660 C658 1.388 . S
C660 C661 1.366 . S
C661 C660 1.366 . S
C661 C662 1.414 . S
C661 C664 1.499 . S
C662 H642 0.950 . S
C662 C661 1.414 . S
C662 C663 1.374 . S
C663 H643 0.950 . S
C663 C659 1.385 . S
C663 C662 1.374 . S
C664 C661 1.499 . S
C664 C665 1.373 . S
C664 C666 1.389 . S
C665 H644 0.950 . S
C665 C664 1.373 . S
C665 C681 1.377 . S
C666 C664 1.389 . S
C666 C667 1.524 . S
C666 C680 1.377 . S
C667 C666 1.524 . S
C667 C668 1.397 . S
C667 C672 1.363 . S
C668 H645 0.950 . S
C668 C667 1.397 . S
C668 C669 1.334 . S
C669 H646 0.950 . S
C669 C668 1.334 . S
C669 C670 1.287 . S
C670 C669 1.287 . S
C670 C671 1.524 . S
C670 H689 0.913 . S
C671 H647 0.950 . S
C671 C670 1.524 . S
C671 C672 1.415 . S
C672 H648 0.950 . S
C672 C667 1.363 . S
C672 C671 1.415 . S
C673 H649 0.951 . S
C673 C674 1.366 . S
C673 C675 1.388 . S
C674 C673 1.366 . S
C674 C678 1.385 . S
C675 H650 0.951 . S
C675 C673 1.388 . S
C675 C676 1.366 . S
C676 C675 1.366 . S
C676 C677 1.414 . S
C676 C679 1.499 . S
C677 H651 0.950 . S
C677 C676 1.414 . S
C677 C678 1.374 . S
C678 H652 0.950 . S
C678 C674 1.385 . S
C678 C677 1.374 . S
C679 C676 1.499 . S
C679 C680 1.373 . S
C679 C681 1.389 . S
C680 H653 0.950 . S
C680 C666 1.377 . S
C680 C679 1.373 . S
C681 C665 1.377 . S
C681 C679 1.389 . S
C681 C682 1.524 . S
C682 C681 1.524 . S
C682 C683 1.397 . S
C682 C687 1.363 . S
C683 H654 0.950 . S
C683 C682 1.397 . S
C683 C684 1.334 . S
C684 H655 0.950 . S
C684 C683 1.334 . S
C684 C685 1.287 . S
C685 C684 1.287 . S
C685 C686 1.524 . S
C685 H688 0.999 . S
C686 H656 0.950 . S
C686 C685 1.524 . S
C686 C687 1.415 . S
C687 H657 0.950 . S
C687 C682 1.363 . S
C687 C686 1.415 . S
H688 C685 0.999 . S
H689 C670 0.913 . S
H690 C708 0.951 . S
H691 C710 0.951 . S
H692 C712 0.950 . S
H693 C713 0.950 . S
H694 C715 0.950 . S
H695 C718 0.950 . S
H696 C719 0.950 . S
H697 C721 0.950 . S
H698 C722 0.950 . S
H699 C723 0.951 . S
H700 C725 0.951 . S
H701 C727 0.950 . S
H702 C728 0.950 . S
H703 C730 0.950 . S
H704 C733 0.950 . S
H705 C734 0.950 . S
H706 C736 0.950 . S
H707 C737 0.950 . S
C708 H690 0.951 . S
C708 C709 1.366 . S
C708 C710 1.388 . S
C709 C708 1.366 . S
C709 C713 1.385 . S
C710 H691 0.951 . S
C710 C708 1.388 . S
C710 C711 1.366 . S
C711 C710 1.366 . S
C711 C712 1.414 . S
C711 C714 1.499 . S
C712 H692 0.950 . S
C712 C711 1.414 . S
C712 C713 1.374 . S
C713 H693 0.950 . S
C713 C709 1.385 . S
C713 C712 1.374 . S
C714 C711 1.499 . S
C714 C715 1.373 . S
C714 C716 1.389 . S
C715 H694 0.950 . S
C715 C714 1.373 . S
C715 C731 1.377 . S
C716 C714 1.389 . S
C716 C717 1.524 . S
C716 C730 1.377 . S
C717 C716 1.524 . S
C717 C718 1.397 . S
C717 C722 1.363 . S
C718 H695 0.950 . S
C718 C717 1.397 . S
C718 C719 1.334 . S
C719 H696 0.950 . S
C719 C718 1.334 . S
C719 C720 1.287 . S
C720 C719 1.287 . S
C720 C721 1.524 . S
C720 H739 0.913 . S
C721 H697 0.950 . S
C721 C720 1.524 . S
C721 C722 1.415 . S
C722 H698 0.950 . S
C722 C717 1.363 . S
C722 C721 1.415 . S
C723 H699 0.951 . S
C723 C724 1.366 . S
C723 C725 1.388 . S
C724 C723 1.366 . S
C724 C728 1.385 . S
C725 H700 0.951 . S
C725 C723 1.388 . S
C725 C726 1.366 . S
C726 C725 1.366 . S
C726 C727 1.414 . S
C726 C729 1.499 . S
C727 H701 0.950 . S
C727 C726 1.414 . S
C727 C728 1.374 . S
C728 H702 0.950 . S
C728 C724 1.385 . S
C728 C727 1.374 . S
C729 C726 1.499 . S
C729 C730 1.373 . S
C729 C731 1.389 . S
C730 H703 0.950 . S
C730 C716 1.377 . S
C730 C729 1.373 . S
C731 C715 1.377 . S
C731 C729 1.389 . S
C731 C732 1.524 . S
C732 C731 1.524 . S
C732 C733 1.397 . S
C732 C737 1.363 . S
C733 H704 0.950 . S
C733 C732 1.397 . S
C733 C734 1.334 . S
C734 H705 0.950 . S
C734 C733 1.334 . S
C734 C735 1.287 . S
C735 C734 1.287 . S
C735 C736 1.524 . S
C735 H738 0.999 . S
C736 H706 0.950 . S
C736 C735 1.524 . S
C736 C737 1.415 . S
C737 H707 0.950 . S
C737 C732 1.363 . S
C737 C736 1.415 . S
H738 C735 0.999 . S
H739 C720 0.913 . S
H740 C758 0.951 . S
H741 C760 0.951 . S
H742 C762 0.950 . S
H743 C763 0.950 . S
H744 C765 0.950 . S
H745 C768 0.950 . S
H746 C769 0.950 . S
H747 C771 0.950 . S
H748 C772 0.950 . S
H749 C773 0.951 . S
H750 C775 0.951 . S
H751 C777 0.950 . S
H752 C778 0.950 . S
H753 C780 0.950 . S
H754 C783 0.950 . S
H755 C784 0.950 . S
H756 C786 0.950 . S
H757 C787 0.950 . S
C758 H740 0.951 . S
C758 C759 1.366 . S
C758 C760 1.388 . S
C759 C758 1.366 . S
C759 C763 1.385 . S
C760 H741 0.951 . S
C760 C758 1.388 . S
C760 C761 1.366 . S
C761 C760 1.366 . S
C761 C762 1.414 . S
C761 C764 1.499 . S
C762 H742 0.950 . S
C762 C761 1.414 . S
C762 C763 1.374 . S
C763 H743 0.950 . S
C763 C759 1.385 . S
C763 C762 1.374 . S
C764 C761 1.499 . S
C764 C765 1.373 . S
C764 C766 1.389 . S
C765 H744 0.950 . S
C765 C764 1.373 . S
C765 C781 1.377 . S
C766 C764 1.389 . S
C766 C767 1.524 . S
C766 C780 1.377 . S
C767 C766 1.524 . S
C767 C768 1.397 . S
C767 C772 1.363 . S
C768 H745 0.950 . S
C768 C767 1.397 . S
C768 C769 1.334 . S
C769 H746 0.950 . S
C769 C768 1.334 . S
C769 C770 1.287 . S
C770 C769 1.287 . S
C770 C771 1.524 . S
C770 H789 0.913 . S
C771 H747 0.950 . S
C771 C770 1.524 . S
C771 C772 1.415 . S
C772 H748 0.950 . S
C772 C767 1.363 . S
C772 C771 1.415 . S
C773 H749 0.951 . S
C773 C774 1.366 . S
C773 C775 1.388 . S
C774 C773 1.366 . S
C774 C778 1.385 . S
C775 H750 0.951 . S
C775 C773 1.388 . S
C775 C776 1.366 . S
C776 C775 1.366 . S
C776 C777 1.414 . S
C776 C779 1.499 . S
C777 H751 0.950 . S
C777 C776 1.414 . S
C777 C778 1.374 . S
C778 H752 0.950 . S
C778 C774 1.385 . S
C778 C777 1.374 . S
C779 C776 1.499 . S
C779 C780 1.373 . S
C779 C781 1.389 . S
C780 H753 0.950 . S
C780 C766 1.377 . S
C780 C779 1.373 . S
C781 C765 1.377 . S
C781 C779 1.389 . S
C781 C782 1.524 . S
C782 C781 1.524 . S
C782 C783 1.397 . S
C782 C787 1.363 . S
C783 H754 0.950 . S
C783 C782 1.397 . S
C783 C784 1.334 . S
C784 H755 0.950 . S
C784 C783 1.334 . S
C784 C785 1.287 . S
C785 C784 1.287 . S
C785 C786 1.524 . S
C785 H788 0.999 . S
C786 H756 0.950 . S
C786 C785 1.524 . S
C786 C787 1.415 . S
C787 H757 0.950 . S
C787 C782 1.363 . S
C787 C786 1.415 . S
H788 C785 0.999 . S
H789 C770 0.913 . S
H790 C808 0.951 . S
H791 C810 0.951 . S
H792 C812 0.950 . S
H793 C813 0.950 . S
H794 C815 0.950 . S
H795 C818 0.950 . S
H796 C819 0.950 . S
H797 C821 0.950 . S
H798 C822 0.950 . S
H799 C823 0.951 . S
H800 C825 0.951 . S
H801 C827 0.950 . S
H802 C828 0.950 . S
H803 C830 0.950 . S
H804 C833 0.950 . S
H805 C834 0.950 . S
H806 C836 0.950 . S
H807 C837 0.950 . S
C808 H790 0.951 . S
C808 C809 1.366 . S
C808 C810 1.388 . S
C809 C808 1.366 . S
C809 C813 1.385 . S
C810 H791 0.951 . S
C810 C808 1.388 . S
C810 C811 1.366 . S
C811 C810 1.366 . S
C811 C812 1.414 . S
C811 C814 1.499 . S
C812 H792 0.950 . S
C812 C811 1.414 . S
C812 C813 1.374 . S
C813 H793 0.950 . S
C813 C809 1.385 . S
C813 C812 1.374 . S
C814 C811 1.499 . S
C814 C815 1.373 . S
C814 C816 1.389 . S
C815 H794 0.950 . S
C815 C814 1.373 . S
C815 C831 1.377 . S
C816 C814 1.389 . S
C816 C817 1.524 . S
C816 C830 1.377 . S
C817 C816 1.524 . S
C817 C818 1.397 . S
C817 C822 1.363 . S
C818 H795 0.950 . S
C818 C817 1.397 . S
C818 C819 1.334 . S
C819 H796 0.950 . S
C819 C818 1.334 . S
C819 C820 1.287 . S
C820 C819 1.287 . S
C820 C821 1.524 . S
C820 H839 0.913 . S
C821 H797 0.950 . S
C821 C820 1.524 . S
C821 C822 1.415 . S
C822 H798 0.950 . S
C822 C817 1.363 . S
C822 C821 1.415 . S
C823 H799 0.951 . S
C823 C824 1.366 . S
C823 C825 1.388 . S
C824 C823 1.366 . S
C824 C828 1.385 . S
C825 H800 0.951 . S
C825 C823 1.388 . S
C825 C826 1.366 . S
C826 C825 1.366 . S
C826 C827 1.414 . S
C826 C829 1.499 . S
C827 H801 0.950 . S
C827 C826 1.414 . S
C827 C828 1.374 . S
C828 H802 0.950 . S
C828 C824 1.385 . S
C828 C827 1.374 . S
C829 C826 1.499 . S
C829 C830 1.373 . S
C829 C831 1.389 . S
C830 H803 0.950 . S
C830 C816 1.377 . S
C830 C829 1.373 . S
C831 C815 1.377 . S
C831 C829 1.389 . S
C831 C832 1.524 . S
C832 C831 1.524 . S
C832 C833 1.397 . S
C832 C837 1.363 . S
C833 H804 0.950 . S
C833 C832 1.397 . S
C833 C834 1.334 . S
C834 H805 0.950 . S
C834 C833 1.334 . S
C834 C835 1.287 . S
C835 C834 1.287 . S
C835 C836 1.524 . S
C835 H838 0.999 . S
C836 H806 0.950 . S
C836 C835 1.524 . S
C836 C837 1.415 . S
C837 H807 0.950 . S
C837 C832 1.363 . S
C837 C836 1.415 . S
H838 C835 0.999 . S
H839 C820 0.913 . S
H840 C858 0.951 . S
H841 C860 0.951 . S
H842 C862 0.950 . S
H843 C863 0.950 . S
H844 C865 0.950 . S
H845 C868 0.950 . S
H846 C869 0.950 . S
H847 C871 0.950 . S
H848 C872 0.950 . S
H849 C873 0.951 . S
H850 C875 0.951 . S
H851 C877 0.950 . S
H852 C878 0.950 . S
H853 C880 0.950 . S
H854 C883 0.950 . S
H855 C884 0.950 . S
H856 C886 0.950 . S
H857 C887 0.950 . S
C858 H840 0.951 . S
C858 C859 1.366 . S
C858 C860 1.388 . S
C859 C858 1.366 . S
C859 C863 1.385 . S
C860 H841 0.951 . S
C860 C858 1.388 . S
C860 C861 1.366 . S
C861 C860 1.366 . S
C861 C862 1.414 . S
C861 C864 1.499 . S
C862 H842 0.950 . S
C862 C861 1.414 . S
C862 C863 1.374 . S
C863 H843 0.950 . S
C863 C859 1.385 . S
C863 C862 1.374 . S
C864 C861 1.499 . S
C864 C865 1.373 . S
C864 C866 1.389 . S
C865 H844 0.950 . S
C865 C864 1.373 . S
C865 C881 1.377 . S
C866 C864 1.389 . S
C866 C867 1.524 . S
C866 C880 1.377 . S
C867 C866 1.524 . S
C867 C868 1.397 . S
C867 C872 1.363 . S
C868 H845 0.950 . S
C868 C867 1.397 . S
C868 C869 1.334 . S
C869 H846 0.950 . S
C869 C868 1.334 . S
C869 C870 1.287 . S
C870 C869 1.287 . S
C870 C871 1.524 . S
C870 H889 0.913 . S
C871 H847 0.950 . S
C871 C870 1.524 . S
C871 C872 1.415 . S
C872 H848 0.950 . S
C872 C867 1.363 . S
C872 C871 1.415 . S
C873 H849 0.951 . S
C873 C874 1.366 . S
C873 C875 1.388 . S
C874 C873 1.366 . S
C874 C878 1.385 . S
C875 H850 0.951 . S
C875 C873 1.388 . S
C875 C876 1.366 . S
C876 C875 1.366 . S
C876 C877 1.414 . S
C876 C879 1.499 . S
C877 H851 0.950 . S
C877 C876 1.414 . S
C877 C878 1.374 . S
C878 H852 0.950 . S
C878 C874 1.385 . S
C878 C877 1.374 . S
C879 C876 1.499 . S
C879 C880 1.373 . S
C879 C881 1.389 . S
C880 H853 0.950 . S
C880 C866 1.377 . S
C880 C879 1.373 . S
C881 C865 1.377 . S
C881 C879 1.389 . S
C881 C882 1.524 . S
C882 C881 1.524 . S
C882 C883 1.397 . S
C882 C887 1.363 . S
C883 H854 0.950 . S
C883 C882 1.397 . S
C883 C884 1.334 . S
C884 H855 0.950 . S
C884 C883 1.334 . S
C884 C885 1.287 . S
C885 C884 1.287 . S
C885 C886 1.524 . S
C885 H888 0.999 . S
C886 H856 0.950 . S
C886 C885 1.524 . S
C886 C887 1.415 . S
C887 H857 0.950 . S
C887 C882 1.363 . S
C887 C886 1.415 . S
H888 C885 0.999 . S
H889 C870 0.913 . S
H890 C908 0.951 . S
H891 C910 0.951 . S
H892 C912 0.950 . S
H893 C913 0.950 . S
H894 C915 0.950 . S
H895 C918 0.950 . S
H896 C919 0.950 . S
H897 C921 0.950 . S
H898 C922 0.950 . S
H899 C923 0.951 . S
H900 C925 0.951 . S
H901 C927 0.950 . S
H902 C928 0.950 . S
H903 C930 0.950 . S
H904 C933 0.950 . S
H905 C934 0.950 . S
H906 C936 0.950 . S
H907 C937 0.950 . S
C908 H890 0.951 . S
C908 C909 1.366 . S
C908 C910 1.388 . S
C909 C908 1.366 . S
C909 C913 1.385 . S
C910 H891 0.951 . S
C910 C908 1.388 . S
C910 C911 1.366 . S
C911 C910 1.366 . S
C911 C912 1.414 . S
C911 C914 1.499 . S
C912 H892 0.950 . S
C912 C911 1.414 . S
C912 C913 1.374 . S
C913 H893 0.950 . S
C913 C909 1.385 . S
C913 C912 1.374 . S
C914 C911 1.499 . S
C914 C915 1.373 . S
C914 C916 1.389 . S
C915 H894 0.950 . S
C915 C914 1.373 . S
C915 C931 1.377 . S
C916 C914 1.389 . S
C916 C917 1.524 . S
C916 C930 1.377 . S
C917 C916 1.524 . S
C917 C918 1.397 . S
C917 C922 1.363 . S
C918 H895 0.950 . S
C918 C917 1.397 . S
C918 C919 1.334 . S
C919 H896 0.950 . S
C919 C918 1.334 . S
C919 C920 1.287 . S
C920 C919 1.287 . S
C920 C921 1.524 . S
C920 H939 0.913 . S
C921 H897 0.950 . S
C921 C920 1.524 . S
C921 C922 1.415 . S
C922 H898 0.950 . S
C922 C917 1.363 . S
C922 C921 1.415 . S
C923 H899 0.951 . S
C923 C924 1.366 . S
C923 C925 1.388 . S
C924 C923 1.366 . S
C924 C928 1.385 . S
C925 H900 0.951 . S
C925 C923 1.388 . S
C925 C926 1.366 . S
C926 C925 1.366 . S
C926 C927 1.414 . S
C926 C929 1.499 . S
C927 H901 0.950 . S
C927 C926 1.414 . S
C927 C928 1.374 . S
C928 H902 0.950 . S
C928 C924 1.385 . S
C928 C927 1.374 . S
C929 C926 1.499 . S
C929 C930 1.373 . S
C929 C931 1.389 . S
C930 H903 0.950 . S
C930 C916 1.377 . S
C930 C929 1.373 . S
C931 C915 1.377 . S
C931 C929 1.389 . S
C931 C932 1.524 . S
C932 C931 1.524 . S
C932 C933 1.397 . S
C932 C937 1.363 . S
C933 H904 0.950 . S
C933 C932 1.397 . S
C933 C934 1.334 . S
C934 H905 0.950 . S
C934 C933 1.334 . S
C934 C935 1.287 . S
C935 C934 1.287 . S
C935 C936 1.524 . S
C935 H938 0.999 . S
C936 H906 0.950 . S
C936 C935 1.524 . S
C936 C937 1.415 . S
C937 H907 0.950 . S
C937 C932 1.363 . S
C937 C936 1.415 . S
H938 C935 0.999 . S
H939 C920 0.913 . S
H940 C958 0.951 . S
H941 C960 0.951 . S
H942 C962 0.950 . S
H943 C963 0.950 . S
H944 C965 0.950 . S
H945 C968 0.950 . S
H946 C969 0.950 . S
H947 C971 0.950 . S
H948 C972 0.950 . S
H949 C973 0.951 . S
H950 C975 0.951 . S
H951 C977 0.950 . S
H952 C978 0.950 . S
H953 C980 0.950 . S
H954 C983 0.950 . S
H955 C984 0.950 . S
H956 C986 0.950 . S
H957 C987 0.950 . S
C958 H940 0.951 . S
C958 C959 1.366 . S
C958 C960 1.388 . S
C959 C958 1.366 . S
C959 C963 1.385 . S
C960 H941 0.951 . S
C960 C958 1.388 . S
C960 C961 1.366 . S
C961 C960 1.366 . S
C961 C962 1.414 . S
C961 C964 1.499 . S
C962 H942 0.950 . S
C962 C961 1.414 . S
C962 C963 1.374 . S
C963 H943 0.950 . S
C963 C959 1.385 . S
C963 C962 1.374 . S
C964 C961 1.499 . S
C964 C965 1.373 . S
C964 C966 1.389 . S
C965 H944 0.950 . S
C965 C964 1.373 . S
C965 C981 1.377 . S
C966 C964 1.389 . S
C966 C967 1.524 . S
C966 C980 1.377 . S
C967 C966 1.524 . S
C967 C968 1.397 . S
C967 C972 1.363 . S
C968 H945 0.950 . S
C968 C967 1.397 . S
C968 C969 1.334 . S
C969 H946 0.950 . S
C969 C968 1.334 . S
C969 C970 1.287 . S
C970 C969 1.287 . S
C970 C971 1.524 . S
C970 H989 0.913 . S
C971 H947 0.950 . S
C971 C970 1.524 . S
C971 C972 1.415 . S
C972 H948 0.950 . S
C972 C967 1.363 . S
C972 C971 1.415 . S
C973 H949 0.951 . S
C973 C974 1.366 . S
C973 C975 1.388 . S
C974 C973 1.366 . S
C974 C978 1.385 . S
C975 H950 0.951 . S
C975 C973 1.388 . S
C975 C976 1.366 . S
C976 C975 1.366 . S
C976 C977 1.414 . S
C976 C979 1.499 . S
C977 H951 0.950 . S
C977 C976 1.414 . S
C977 C978 1.374 . S
C978 H952 0.950 . S
C978 C974 1.385 . S
C978 C977 1.374 . S
C979 C976 1.499 . S
C979 C980 1.373 . S
C979 C981 1.389 . S
C980 H953 0.950 . S
C980 C966 1.377 . S
C980 C979 1.373 . S
C981 C965 1.377 . S
C981 C979 1.389 . S
C981 C982 1.524 . S
C982 C981 1.524 . S
C982 C983 1.397 . S
C982 C987 1.363 . S
C983 H954 0.950 . S
C983 C982 1.397 . S
C983 C984 1.334 . S
C984 H955 0.950 . S
C984 C983 1.334 . S
C984 C985 1.287 . S
C985 C984 1.287 . S
C985 C986 1.524 . S
C985 H988 0.999 . S
C986 H956 0.950 . S
C986 C985 1.524 . S
C986 C987 1.415 . S
C987 H957 0.950 . S
C987 C982 1.363 . S
C987 C986 1.415 . S
H988 C985 0.999 . S
H989 C970 0.913 . S
H990 C1008 0.951 . S
H991 C1010 0.951 . S
H992 C1012 0.950 . S
H993 C1013 0.950 . S
H994 C1015 0.950 . S
H995 C1018 0.950 . S
H996 C1019 0.950 . S
H997 C1021 0.950 . S
H998 C1022 0.950 . S
H999 C1023 0.951 . S
H1000 C1025 0.951 . S
H1001 C1027 0.950 . S
H1002 C1028 0.950 . S
H1003 C1030 0.950 . S
H1004 C1033 0.950 . S
H1005 C1034 0.950 . S
H1006 C1036 0.950 . S
H1007 C1037 0.950 . S
C1008 H990 0.951 . S
C1008 C1009 1.366 . S
C1008 C1010 1.388 . S
C1009 C1008 1.366 . S
C1009 C1013 1.385 . S
C1010 H991 0.951 . S
C1010 C1008 1.388 . S
C1010 C1011 1.366 . S
C1011 C1010 1.366 . S
C1011 C1012 1.414 . S
C1011 C1014 1.499 . S
C1012 H992 0.950 . S
C1012 C1011 1.414 . S
C1012 C1013 1.374 . S
C1013 H993 0.950 . S
C1013 C1009 1.385 . S
C1013 C1012 1.374 . S
C1014 C1011 1.499 . S
C1014 C1015 1.373 . S
C1014 C1016 1.389 . S
C1015 H994 0.950 . S
C1015 C1014 1.373 . S
C1015 C1031 1.377 . S
C1016 C1014 1.389 . S
C1016 C1017 1.524 . S
C1016 C1030 1.377 . S
C1017 C1016 1.524 . S
C1017 C1018 1.397 . S
C1017 C1022 1.363 . S
C1018 H995 0.950 . S
C1018 C1017 1.397 . S
C1018 C1019 1.334 . S
C1019 H996 0.950 . S
C1019 C1018 1.334 . S
C1019 C1020 1.287 . S
C1020 C1019 1.287 . S
C1020 C1021 1.524 . S
C1020 H1039 0.913 . S
C1021 H997 0.950 . S
C1021 C1020 1.524 . S
C1021 C1022 1.415 . S
C1022 H998 0.950 . S
C1022 C1017 1.363 . S
C1022 C1021 1.415 . S
C1023 H999 0.951 . S
C1023 C1024 1.366 . S
C1023 C1025 1.388 . S
C1024 C1023 1.366 . S
C1024 C1028 1.385 . S
C1025 H1000 0.951 . S
C1025 C1023 1.388 . S
C1025 C1026 1.366 . S
C1026 C1025 1.366 . S
C1026 C1027 1.414 . S
C1026 C1029 1.499 . S
C1027 H1001 0.950 . S
C1027 C1026 1.414 . S
C1027 C1028 1.374 . S
C1028 H1002 0.950 . S
C1028 C1024 1.385 . S
C1028 C1027 1.374 . S
C1029 C1026 1.499 . S
C1029 C1030 1.373 . S
C1029 C1031 1.389 . S
C1030 H1003 0.950 . S
C1030 C1016 1.377 . S
C1030 C1029 1.373 . S
C1031 C1015 1.377 . S
C1031 C1029 1.389 . S
C1031 C1032 1.524 . S
C1032 C1031 1.524 . S
C1032 C1033 1.397 . S
C1032 C1037 1.363 . S
C1033 H1004 0.950 . S
C1033 C1032 1.397 . S
C1033 C1034 1.334 . S
C1034 H1005 0.950 . S
C1034 C1033 1.334 . S
C1034 C1035 1.287 . S
C1035 C1034 1.287 . S
C1035 C1036 1.524 . S
C1035 H1038 0.999 . S
C1036 H1006 0.950 . S
C1036 C1035 1.524 . S
C1036 C1037 1.415 . S
C1037 H1007 0.950 . S
C1037 C1032 1.363 . S
C1037 C1036 1.415 . S
H1038 C1035 0.999 . S
H1039 C1020 0.913 . S
H1040 C1058 0.951 . S
H1041 C1060 0.951 . S
H1042 C1062 0.950 . S
H1043 C1063 0.950 . S
H1044 C1065 0.950 . S
H1045 C1068 0.950 . S
H1046 C1069 0.950 . S
H1047 C1071 0.950 . S
H1048 C1072 0.950 . S
H1049 C1073 0.951 . S
H1050 C1075 0.951 . S
H1051 C1077 0.950 . S
H1052 C1078 0.950 . S
H1053 C1080 0.950 . S
H1054 C1083 0.950 . S
H1055 C1084 0.950 . S
H1056 C1086 0.950 . S
H1057 C1087 0.950 . S
C1058 H1040 0.951 . S
C1058 C1059 1.366 . S
C1058 C1060 1.388 . S
C1059 C1058 1.366 . S
C1059 C1063 1.385 . S
C1060 H1041 0.951 . S
C1060 C1058 1.388 . S
C1060 C1061 1.366 . S
C1061 C1060 1.366 . S
C1061 C1062 1.414 . S
C1061 C1064 1.499 . S
C1062 H1042 0.950 . S
C1062 C1061 1.414 . S
C1062 C1063 1.374 . S
C1063 H1043 0.950 . S
C1063 C1059 1.385 . S
C1063 C1062 1.374 . S
C1064 C1061 1.499 . S
C1064 C1065 1.373 1_554 S
C1064 C1066 1.389 . S
C1065 H1044 0.950 . S
C1065 C1064 1.373 1_556 S
C1065 C1081 1.377 . S
C1066 C1064 1.389 . S
C1066 C1067 1.524 . S
C1066 C1080 1.377 . S
C1067 C1066 1.524 . S
C1067 C1068 1.397 . S
C1067 C1072 1.363 . S
C1068 H1045 0.950 . S
C1068 C1067 1.397 . S
C1068 C1069 1.334 . S
C1069 H1046 0.950 . S
C1069 C1068 1.334 . S
C1069 C1070 1.287 . S
C1070 C1069 1.287 . S
C1070 C1071 1.524 . S
C1070 H1089 0.913 . S
C1071 H1047 0.950 . S
C1071 C1070 1.524 . S
C1071 C1072 1.415 . S
C1072 H1048 0.950 . S
C1072 C1067 1.363 . S
C1072 C1071 1.415 . S
C1073 H1049 0.951 . S
C1073 C1074 1.366 . S
C1073 C1075 1.388 . S
C1074 C1073 1.366 . S
C1074 C1078 1.385 . S
C1075 H1050 0.951 . S
C1075 C1073 1.388 . S
C1075 C1076 1.366 . S
C1076 C1075 1.366 . S
C1076 C1077 1.414 . S
C1076 C1079 1.499 . S
C1077 H1051 0.950 . S
C1077 C1076 1.414 . S
C1077 C1078 1.374 . S
C1078 H1052 0.950 . S
C1078 C1074 1.385 . S
C1078 C1077 1.374 . S
C1079 C1076 1.499 . S
C1079 C1080 1.373 1_556 S
C1079 C1081 1.389 . S
C1080 H1053 0.950 . S
C1080 C1066 1.377 . S
C1080 C1079 1.373 1_554 S
C1081 C1065 1.377 . S
C1081 C1079 1.389 . S
C1081 C1082 1.524 . S
C1082 C1081 1.524 . S
C1082 C1083 1.397 . S
C1082 C1087 1.363 . S
C1083 H1054 0.950 . S
C1083 C1082 1.397 . S
C1083 C1084 1.334 . S
C1084 H1055 0.950 . S
C1084 C1083 1.334 . S
C1084 C1085 1.287 . S
C1085 C1084 1.287 . S
C1085 C1086 1.524 . S
C1085 H1088 0.999 . S
C1086 H1056 0.950 . S
C1086 C1085 1.524 . S
C1086 C1087 1.415 . S
C1087 H1057 0.950 . S
C1087 C1082 1.363 . S
C1087 C1086 1.415 . S
H1088 C1085 0.999 . S
H1089 C1070 0.913 . S
H1090 C1108 0.951 . S
H1091 C1110 0.951 . S
H1092 C1112 0.950 . S
H1093 C1113 0.950 . S
H1094 C1115 0.950 . S
H1095 C1118 0.950 . S
H1096 C1119 0.950 . S
H1097 C1121 0.950 . S
H1098 C1122 0.950 . S
H1099 C1123 0.951 . S
H1100 C1125 0.951 . S
H1101 C1127 0.950 . S
H1102 C1128 0.950 . S
H1103 C1130 0.950 . S
H1104 C1133 0.950 . S
H1105 C1134 0.950 . S
H1106 C1136 0.950 . S
H1107 C1137 0.950 . S
C1108 H1090 0.951 . S
C1108 C1109 1.366 . S
C1108 C1110 1.388 . S
C1109 C1108 1.366 . S
C1109 C1113 1.385 . S
C1110 H1091 0.951 . S
C1110 C1108 1.388 . S
C1110 C1111 1.366 . S
C1111 C1110 1.366 . S
C1111 C1112 1.414 . S
C1111 C1114 1.499 . S
C1112 H1092 0.950 . S
C1112 C1111 1.414 . S
C1112 C1113 1.374 . S
C1113 H1093 0.950 . S
C1113 C1109 1.385 . S
C1113 C1112 1.374 . S
C1114 C1111 1.499 . S
C1114 C1115 1.373 . S
C1114 C1116 1.389 . S
C1115 H1094 0.950 . S
C1115 C1114 1.373 . S
C1115 C1131 1.377 . S
C1116 C1114 1.389 . S
C1116 C1117 1.524 . S
C1116 C1130 1.377 . S
C1117 C1116 1.524 . S
C1117 C1118 1.397 . S
C1117 C1122 1.363 . S
C1118 H1095 0.950 . S
C1118 C1117 1.397 . S
C1118 C1119 1.334 . S
C1119 H1096 0.950 . S
C1119 C1118 1.334 . S
C1119 C1120 1.287 . S
C1120 C1119 1.287 . S
C1120 C1121 1.524 . S
C1120 H1139 0.913 . S
C1121 H1097 0.950 . S
C1121 C1120 1.524 . S
C1121 C1122 1.415 . S
C1122 H1098 0.950 . S
C1122 C1117 1.363 . S
C1122 C1121 1.415 . S
C1123 H1099 0.951 . S
C1123 C1124 1.366 . S
C1123 C1125 1.388 . S
C1124 C1123 1.366 . S
C1124 C1128 1.385 . S
C1125 H1100 0.951 . S
C1125 C1123 1.388 . S
C1125 C1126 1.366 . S
C1126 C1125 1.366 . S
C1126 C1127 1.414 . S
C1126 C1129 1.499 . S
C1127 H1101 0.950 . S
C1127 C1126 1.414 . S
C1127 C1128 1.374 . S
C1128 H1102 0.950 . S
C1128 C1124 1.385 . S
C1128 C1127 1.374 . S
C1129 C1126 1.499 . S
C1129 C1130 1.373 . S
C1129 C1131 1.389 . S
C1130 H1103 0.950 . S
C1130 C1116 1.377 . S
C1130 C1129 1.373 . S
C1131 C1115 1.377 . S
C1131 C1129 1.389 . S
C1131 C1132 1.524 . S
C1132 C1131 1.524 . S
C1132 C1133 1.397 . S
C1132 C1137 1.363 . S
C1133 H1104 0.950 . S
C1133 C1132 1.397 . S
C1133 C1134 1.334 . S
C1134 H1105 0.950 . S
C1134 C1133 1.334 . S
C1134 C1135 1.287 . S
C1135 C1134 1.287 . S
C1135 C1136 1.524 . S
C1135 H1138 0.999 . S
C1136 H1106 0.950 . S
C1136 C1135 1.524 . S
C1136 C1137 1.415 . S
C1137 H1107 0.950 . S
C1137 C1132 1.363 . S
C1137 C1136 1.415 . S
H1138 C1135 0.999 . S
H1139 C1120 0.913 . S
H1140 C1158 0.951 . S
H1141 C1160 0.951 . S
H1142 C1162 0.950 1_554 S
H1143 C1163 0.950 . S
H1144 C1165 0.950 . S
H1145 C1168 0.950 . S
H1146 C1169 0.950 . S
H1147 C1171 0.950 . S
H1148 C1172 0.950 . S
H1149 C1173 0.951 . S
H1150 C1175 0.951 . S
H1151 C1177 0.950 1_556 S
H1152 C1178 0.950 . S
H1153 C1180 0.950 . S
H1154 C1183 0.950 . S
H1155 C1184 0.950 . S
H1156 C1186 0.950 . S
H1157 C1187 0.950 . S
C1158 H1140 0.951 . S
C1158 C1159 1.366 . S
C1158 C1160 1.388 . S
C1159 C1158 1.366 . S
C1159 C1163 1.385 . S
C1160 H1141 0.951 . S
C1160 C1158 1.388 . S
C1160 C1161 1.366 . S
C1161 C1160 1.366 . S
C1161 C1162 1.414 . S
C1161 C1164 1.499 . S
C1162 H1142 0.950 1_556 S
C1162 C1161 1.414 . S
C1162 C1163 1.374 . S
C1163 H1143 0.950 . S
C1163 C1159 1.385 . S
C1163 C1162 1.374 . S
C1164 C1161 1.499 . S
C1164 C1165 1.373 1_556 S
C1164 C1166 1.389 . S
C1165 H1144 0.950 . S
C1165 C1164 1.373 1_554 S
C1165 C1181 1.377 . S
C1166 C1164 1.389 . S
C1166 C1167 1.524 . S
C1166 C1180 1.377 . S
C1167 C1166 1.524 . S
C1167 C1168 1.397 . S
C1167 C1172 1.363 . S
C1168 H1145 0.950 . S
C1168 C1167 1.397 . S
C1168 C1169 1.334 . S
C1169 H1146 0.950 . S
C1169 C1168 1.334 . S
C1169 C1170 1.287 . S
C1170 C1169 1.287 . S
C1170 C1171 1.524 . S
C1170 H1189 0.913 . S
C1171 H1147 0.950 . S
C1171 C1170 1.524 . S
C1171 C1172 1.415 . S
C1172 H1148 0.950 . S
C1172 C1167 1.363 . S
C1172 C1171 1.415 . S
C1173 H1149 0.951 . S
C1173 C1174 1.366 . S
C1173 C1175 1.388 . S
C1174 C1173 1.366 . S
C1174 C1178 1.385 . S
C1175 H1150 0.951 . S
C1175 C1173 1.388 . S
C1175 C1176 1.366 . S
C1176 C1175 1.366 . S
C1176 C1177 1.414 . S
C1176 C1179 1.499 . S
C1177 H1151 0.950 1_554 S
C1177 C1176 1.414 . S
C1177 C1178 1.374 . S
C1178 H1152 0.950 . S
C1178 C1174 1.385 . S
C1178 C1177 1.374 . S
C1179 C1176 1.499 . S
C1179 C1180 1.373 1_554 S
C1179 C1181 1.389 . S
C1180 H1153 0.950 . S
C1180 C1166 1.377 . S
C1180 C1179 1.373 1_556 S
C1181 C1165 1.377 . S
C1181 C1179 1.389 . S
C1181 C1182 1.524 . S
C1182 C1181 1.524 . S
C1182 C1183 1.397 . S
C1182 C1187 1.363 . S
C1183 H1154 0.950 . S
C1183 C1182 1.397 . S
C1183 C1184 1.334 . S
C1184 H1155 0.950 . S
C1184 C1183 1.334 . S
C1184 C1185 1.287 . S
C1185 C1184 1.287 . S
C1185 C1186 1.524 . S
C1185 H1188 0.999 . S
C1186 H1156 0.950 . S
C1186 C1185 1.524 . S
C1186 C1187 1.415 . S
C1187 H1157 0.950 . S
C1187 C1182 1.363 . S
C1187 C1186 1.415 . S
H1188 C1185 0.999 . S
H1189 C1170 0.913 . S
H1190 C1208 0.951 . S
H1191 C1210 0.951 . S
H1192 C1212 0.950 . S
H1193 C1213 0.950 . S
H1194 C1215 0.950 . S
H1195 C1218 0.950 . S
H1196 C1219 0.950 . S
H1197 C1221 0.950 . S
H1198 C1222 0.950 . S
H1199 C1223 0.951 . S
H1200 C1225 0.951 . S
H1201 C1227 0.950 . S
H1202 C1228 0.950 . S
H1203 C1230 0.950 . S
H1204 C1233 0.950 . S
H1205 C1234 0.950 . S
H1206 C1236 0.950 . S
H1207 C1237 0.950 . S
C1208 H1190 0.951 . S
C1208 C1209 1.366 . S
C1208 C1210 1.388 . S
C1209 C1208 1.366 . S
C1209 C1213 1.385 . S
C1210 H1191 0.951 . S
C1210 C1208 1.388 . S
C1210 C1211 1.366 . S
C1211 C1210 1.366 . S
C1211 C1212 1.414 . S
C1211 C1214 1.499 . S
C1212 H1192 0.950 . S
C1212 C1211 1.414 . S
C1212 C1213 1.374 . S
C1213 H1193 0.950 . S
C1213 C1209 1.385 . S
C1213 C1212 1.374 . S
C1214 C1211 1.499 . S
C1214 C1215 1.373 . S
C1214 C1216 1.389 . S
C1215 H1194 0.950 . S
C1215 C1214 1.373 . S
C1215 C1231 1.377 . S
C1216 C1214 1.389 . S
C1216 C1217 1.524 . S
C1216 C1230 1.377 . S
C1217 C1216 1.524 . S
C1217 C1218 1.397 . S
C1217 C1222 1.363 . S
C1218 H1195 0.950 . S
C1218 C1217 1.397 . S
C1218 C1219 1.334 . S
C1219 H1196 0.950 . S
C1219 C1218 1.334 . S
C1219 C1220 1.287 . S
C1220 C1219 1.287 . S
C1220 C1221 1.524 . S
C1220 H1239 0.913 . S
C1221 H1197 0.950 . S
C1221 C1220 1.524 . S
C1221 C1222 1.415 . S
C1222 H1198 0.950 . S
C1222 C1217 1.363 . S
C1222 C1221 1.415 . S
C1223 H1199 0.951 . S
C1223 C1224 1.366 . S
C1223 C1225 1.388 . S
C1224 C1223 1.366 . S
C1224 C1228 1.385 . S
C1225 H1200 0.951 . S
C1225 C1223 1.388 . S
C1225 C1226 1.366 . S
C1226 C1225 1.366 . S
C1226 C1227 1.414 . S
C1226 C1229 1.499 . S
C1227 H1201 0.950 . S
C1227 C1226 1.414 . S
C1227 C1228 1.374 . S
C1228 H1202 0.950 . S
C1228 C1224 1.385 . S
C1228 C1227 1.374 . S
C1229 C1226 1.499 . S
C1229 C1230 1.373 . S
C1229 C1231 1.389 . S
C1230 H1203 0.950 . S
C1230 C1216 1.377 . S
C1230 C1229 1.373 . S
C1231 C1215 1.377 . S
C1231 C1229 1.389 . S
C1231 C1232 1.524 . S
C1232 C1231 1.524 . S
C1232 C1233 1.397 . S
C1232 C1237 1.363 . S
C1233 H1204 0.950 . S
C1233 C1232 1.397 . S
C1233 C1234 1.334 . S
C1234 H1205 0.950 . S
C1234 C1233 1.334 . S
C1234 C1235 1.287 . S
C1235 C1234 1.287 . S
C1235 C1236 1.524 . S
C1235 H1238 0.999 . S
C1236 H1206 0.950 . S
C1236 C1235 1.524 . S
C1236 C1237 1.415 . S
C1237 H1207 0.950 . S
C1237 C1232 1.363 . S
C1237 C1236 1.415 . S
H1238 C1235 0.999 . S
H1239 C1220 0.913 . S
H1240 C1258 0.951 . S
H1241 C1260 0.951 1_556 S
H1242 C1262 0.950 . S
H1243 C1263 0.950 . S
H1244 C1265 0.950 . S
H1245 C1268 0.950 . S
H1246 C1269 0.950 . S
H1247 C1271 0.950 . S
H1248 C1272 0.950 . S
H1249 C1273 0.951 . S
H1250 C1275 0.951 1_554 S
H1251 C1277 0.950 . S
H1252 C1278 0.950 . S
H1253 C1280 0.950 . S
H1254 C1283 0.950 . S
H1255 C1284 0.950 . S
H1256 C1286 0.950 . S
H1257 C1287 0.950 . S
C1258 H1240 0.951 . S
C1258 C1259 1.366 . S
C1258 C1260 1.388 . S
C1259 C1258 1.366 . S
C1259 C1263 1.385 . S
C1260 H1241 0.951 1_554 S
C1260 C1258 1.388 . S
C1260 C1261 1.366 . S
C1261 C1260 1.366 . S
C1261 C1262 1.414 . S
C1261 C1264 1.499 . S
C1262 H1242 0.950 . S
C1262 C1261 1.414 . S
C1262 C1263 1.374 . S
C1263 H1243 0.950 . S
C1263 C1259 1.385 . S
C1263 C1262 1.374 . S
C1264 C1261 1.499 . S
C1264 C1265 1.373 . S
C1264 C1266 1.389 1_554 S
C1265 H1244 0.950 . S
C1265 C1264 1.373 . S
C1265 C1281 1.377 . S
C1266 C1264 1.389 1_556 S
C1266 C1267 1.524 . S
C1266 C1280 1.377 . S
C1267 C1266 1.524 . S
C1267 C1268 1.397 . S
C1267 C1272 1.363 . S
C1268 H1245 0.950 . S
C1268 C1267 1.397 . S
C1268 C1269 1.334 . S
C1269 H1246 0.950 . S
C1269 C1268 1.334 . S
C1269 C1270 1.287 . S
C1270 C1269 1.287 . S
C1270 C1271 1.524 . S
C1270 H1289 0.913 . S
C1271 H1247 0.950 . S
C1271 C1270 1.524 . S
C1271 C1272 1.415 . S
C1272 H1248 0.950 . S
C1272 C1267 1.363 . S
C1272 C1271 1.415 . S
C1273 H1249 0.951 . S
C1273 C1274 1.366 . S
C1273 C1275 1.388 . S
C1274 C1273 1.366 . S
C1274 C1278 1.385 . S
C1275 H1250 0.951 1_556 S
C1275 C1273 1.388 . S
C1275 C1276 1.366 . S
C1276 C1275 1.366 . S
C1276 C1277 1.414 . S
C1276 C1279 1.499 . S
C1277 H1251 0.950 . S
C1277 C1276 1.414 . S
C1277 C1278 1.374 . S
C1278 H1252 0.950 . S
C1278 C1274 1.385 . S
C1278 C1277 1.374 . S
C1279 C1276 1.499 . S
C1279 C1280 1.373 . S
C1279 C1281 1.389 1_556 S
C1280 H1253 0.950 . S
C1280 C1266 1.377 . S
C1280 C1279 1.373 . S
C1281 C1265 1.377 . S
C1281 C1279 1.389 1_554 S
C1281 C1282 1.524 . S
C1282 C1281 1.524 . S
C1282 C1283 1.397 . S
C1282 C1287 1.363 . S
C1283 H1254 0.950 . S
C1283 C1282 1.397 . S
C1283 C1284 1.334 . S
C1284 H1255 0.950 . S
C1284 C1283 1.334 . S
C1284 C1285 1.287 . S
C1285 C1284 1.287 . S
C1285 C1286 1.524 . S
C1285 H1288 0.999 . S
C1286 H1256 0.950 . S
C1286 C1285 1.524 . S
C1286 C1287 1.415 . S
C1287 H1257 0.950 . S
C1287 C1282 1.363 . S
C1287 C1286 1.415 . S
H1288 C1285 0.999 . S
H1289 C1270 0.913 . S
H1290 C1308 0.951 . S
H1291 C1310 0.951 . S
H1292 C1312 0.950 . S
H1293 C1313 0.950 . S
H1294 C1315 0.950 . S
H1295 C1318 0.950 . S
H1296 C1319 0.950 . S
H1297 C1321 0.950 . S
H1298 C1322 0.950 . S
H1299 C1323 0.951 . S
H1300 C1325 0.951 . S
H1301 C1327 0.950 . S
H1302 C1328 0.950 . S
H1303 C1330 0.950 . S
H1304 C1333 0.950 . S
H1305 C1334 0.950 . S
H1306 C1336 0.950 . S
H1307 C1337 0.950 . S
C1308 H1290 0.951 . S
C1308 C1309 1.366 . S
C1308 C1310 1.388 . S
C1309 C1308 1.366 . S
C1309 C1313 1.385 . S
C1310 H1291 0.951 . S
C1310 C1308 1.388 . S
C1310 C1311 1.366 . S
C1311 C1310 1.366 . S
C1311 C1312 1.414 . S
C1311 C1314 1.499 . S
C1312 H1292 0.950 . S
C1312 C1311 1.414 . S
C1312 C1313 1.374 . S
C1313 H1293 0.950 . S
C1313 C1309 1.385 . S
C1313 C1312 1.374 . S
C1314 C1311 1.499 . S
C1314 C1315 1.373 . S
C1314 C1316 1.389 . S
C1315 H1294 0.950 . S
C1315 C1314 1.373 . S
C1315 C1331 1.377 . S
C1316 C1314 1.389 . S
C1316 C1317 1.524 . S
C1316 C1330 1.377 . S
C1317 C1316 1.524 . S
C1317 C1318 1.397 . S
C1317 C1322 1.363 . S
C1318 H1295 0.950 . S
C1318 C1317 1.397 . S
C1318 C1319 1.334 . S
C1319 H1296 0.950 . S
C1319 C1318 1.334 . S
C1319 C1320 1.287 . S
C1320 C1319 1.287 . S
C1320 C1321 1.524 . S
C1320 H1339 0.913 . S
C1321 H1297 0.950 . S
C1321 C1320 1.524 . S
C1321 C1322 1.415 . S
C1322 H1298 0.950 . S
C1322 C1317 1.363 . S
C1322 C1321 1.415 . S
C1323 H1299 0.951 . S
C1323 C1324 1.366 . S
C1323 C1325 1.388 . S
C1324 C1323 1.366 . S
C1324 C1328 1.385 . S
C1325 H1300 0.951 . S
C1325 C1323 1.388 . S
C1325 C1326 1.366 . S
C1326 C1325 1.366 . S
C1326 C1327 1.414 . S
C1326 C1329 1.499 . S
C1327 H1301 0.950 . S
C1327 C1326 1.414 . S
C1327 C1328 1.374 . S
C1328 H1302 0.950 . S
C1328 C1324 1.385 . S
C1328 C1327 1.374 . S
C1329 C1326 1.499 . S
C1329 C1330 1.373 . S
C1329 C1331 1.389 . S
C1330 H1303 0.950 . S
C1330 C1316 1.377 . S
C1330 C1329 1.373 . S
C1331 C1315 1.377 . S
C1331 C1329 1.389 . S
C1331 C1332 1.524 . S
C1332 C1331 1.524 . S
C1332 C1333 1.397 . S
C1332 C1337 1.363 . S
C1333 H1304 0.950 . S
C1333 C1332 1.397 . S
C1333 C1334 1.334 . S
C1334 H1305 0.950 . S
C1334 C1333 1.334 . S
C1334 C1335 1.287 . S
C1335 C1334 1.287 . S
C1335 C1336 1.524 . S
C1335 H1338 0.999 . S
C1336 H1306 0.950 . S
C1336 C1335 1.524 . S
C1336 C1337 1.415 . S
C1337 H1307 0.950 . S
C1337 C1332 1.363 . S
C1337 C1336 1.415 . S
H1338 C1335 0.999 . S
H1339 C1320 0.913 . S
H1340 C1358 0.951 . S
H1341 C1360 0.951 . S
H1342 C1362 0.950 1_556 S
H1343 C1363 0.950 . S
H1344 C1365 0.950 . S
H1345 C1368 0.950 . S
H1346 C1369 0.950 . S
H1347 C1371 0.950 . S
H1348 C1372 0.950 . S
H1349 C1373 0.951 . S
H1350 C1375 0.951 . S
H1351 C1377 0.950 1_554 S
H1352 C1378 0.950 . S
H1353 C1380 0.950 . S
H1354 C1383 0.950 . S
H1355 C1384 0.950 . S
H1356 C1386 0.950 . S
H1357 C1387 0.950 . S
C1358 H1340 0.951 . S
C1358 C1359 1.366 . S
C1358 C1360 1.388 . S
C1359 C1358 1.366 . S
C1359 C1363 1.385 . S
C1360 H1341 0.951 . S
C1360 C1358 1.388 . S
C1360 C1361 1.366 . S
C1361 C1360 1.366 . S
C1361 C1362 1.414 . S
C1361 C1364 1.499 . S
C1362 H1342 0.950 1_554 S
C1362 C1361 1.414 . S
C1362 C1363 1.374 . S
C1363 H1343 0.950 . S
C1363 C1359 1.385 . S
C1363 C1362 1.374 . S
C1364 C1361 1.499 . S
C1364 C1365 1.373 . S
C1364 C1366 1.389 . S
C1365 H1344 0.950 . S
C1365 C1364 1.373 . S
C1365 C1381 1.377 1_554 S
C1366 C1364 1.389 . S
C1366 C1367 1.524 . S
C1366 C1380 1.377 1_554 S
C1367 C1366 1.524 . S
C1367 C1368 1.397 1_554 S
C1367 C1372 1.363 . S
C1368 H1345 0.950 . S
C1368 C1367 1.397 1_556 S
C1368 C1369 1.334 . S
C1369 H1346 0.950 . S
C1369 C1368 1.334 . S
C1369 C1370 1.287 1_556 S
C1370 C1369 1.287 1_554 S
C1370 C1371 1.524 . S
C1370 H1389 0.913 . S
C1371 H1347 0.950 . S
C1371 C1370 1.524 . S
C1371 C1372 1.415 . S
C1372 H1348 0.950 . S
C1372 C1367 1.363 . S
C1372 C1371 1.415 . S
C1373 H1349 0.951 . S
C1373 C1374 1.366 . S
C1373 C1375 1.388 . S
C1374 C1373 1.366 . S
C1374 C1378 1.385 . S
C1375 H1350 0.951 . S
C1375 C1373 1.388 . S
C1375 C1376 1.366 . S
C1376 C1375 1.366 . S
C1376 C1377 1.414 . S
C1376 C1379 1.499 . S
C1377 H1351 0.950 1_556 S
C1377 C1376 1.414 . S
C1377 C1378 1.374 . S
C1378 H1352 0.950 . S
C1378 C1374 1.385 . S
C1378 C1377 1.374 . S
C1379 C1376 1.499 . S
C1379 C1380 1.373 . S
C1379 C1381 1.389 . S
C1380 H1353 0.950 . S
C1380 C1366 1.377 1_556 S
C1380 C1379 1.373 . S
C1381 C1365 1.377 1_556 S
C1381 C1379 1.389 . S
C1381 C1382 1.524 . S
C1382 C1381 1.524 . S
C1382 C1383 1.397 1_556 S
C1382 C1387 1.363 . S
C1383 H1354 0.950 . S
C1383 C1382 1.397 1_554 S
C1383 C1384 1.334 . S
C1384 H1355 0.950 . S
C1384 C1383 1.334 . S
C1384 C1385 1.287 1_554 S
C1385 C1384 1.287 1_556 S
C1385 C1386 1.524 . S
C1385 H1388 0.999 . S
C1386 H1356 0.950 . S
C1386 C1385 1.524 . S
C1386 C1387 1.415 . S
C1387 H1357 0.950 . S
C1387 C1382 1.363 . S
C1387 C1386 1.415 . S
H1388 C1385 0.999 . S
H1389 C1370 0.913 . S
H1390 C1408 0.951 . S
H1391 C1410 0.951 . S
H1392 C1412 0.950 . S
H1393 C1413 0.950 . S
H1394 C1415 0.950 . S
H1395 C1418 0.950 . S
H1396 C1419 0.950 . S
H1397 C1421 0.950 . S
H1398 C1422 0.950 . S
H1399 C1423 0.951 . S
H1400 C1425 0.951 . S
H1401 C1427 0.950 . S
H1402 C1428 0.950 . S
H1403 C1430 0.950 . S
H1404 C1433 0.950 . S
H1405 C1434 0.950 . S
H1406 C1436 0.950 . S
H1407 C1437 0.950 . S
C1408 H1390 0.951 . S
C1408 C1409 1.366 . S
C1408 C1410 1.388 . S
C1409 C1408 1.366 . S
C1409 C1413 1.385 . S
C1410 H1391 0.951 . S
C1410 C1408 1.388 . S
C1410 C1411 1.366 . S
C1411 C1410 1.366 . S
C1411 C1412 1.414 . S
C1411 C1414 1.499 . S
C1412 H1392 0.950 . S
C1412 C1411 1.414 . S
C1412 C1413 1.374 . S
C1413 H1393 0.950 . S
C1413 C1409 1.385 . S
C1413 C1412 1.374 . S
C1414 C1411 1.499 . S
C1414 C1415 1.373 . S
C1414 C1416 1.389 . S
C1415 H1394 0.950 . S
C1415 C1414 1.373 . S
C1415 C1431 1.377 . S
C1416 C1414 1.389 . S
C1416 C1417 1.524 . S
C1416 C1430 1.377 . S
C1417 C1416 1.524 . S
C1417 C1418 1.397 . S
C1417 C1422 1.363 . S
C1418 H1395 0.950 . S
C1418 C1417 1.397 . S
C1418 C1419 1.334 . S
C1419 H1396 0.950 . S
C1419 C1418 1.334 . S
C1419 C1420 1.287 . S
C1420 C1419 1.287 . S
C1420 C1421 1.524 . S
C1420 H1439 0.913 . S
C1421 H1397 0.950 . S
C1421 C1420 1.524 . S
C1421 C1422 1.415 . S
C1422 H1398 0.950 . S
C1422 C1417 1.363 . S
C1422 C1421 1.415 . S
C1423 H1399 0.951 . S
C1423 C1424 1.366 . S
C1423 C1425 1.388 . S
C1424 C1423 1.366 . S
C1424 C1428 1.385 . S
C1425 H1400 0.951 . S
C1425 C1423 1.388 . S
C1425 C1426 1.366 . S
C1426 C1425 1.366 . S
C1426 C1427 1.414 . S
C1426 C1429 1.499 . S
C1427 H1401 0.950 . S
C1427 C1426 1.414 . S
C1427 C1428 1.374 . S
C1428 H1402 0.950 . S
C1428 C1424 1.385 . S
C1428 C1427 1.374 . S
C1429 C1426 1.499 . S
C1429 C1430 1.373 . S
C1429 C1431 1.389 . S
C1430 H1403 0.950 . S
C1430 C1416 1.377 . S
C1430 C1429 1.373 . S
C1431 C1415 1.377 . S
C1431 C1429 1.389 . S
C1431 C1432 1.524 . S
C1432 C1431 1.524 . S
C1432 C1433 1.397 . S
C1432 C1437 1.363 . S
C1433 H1404 0.950 . S
C1433 C1432 1.397 . S
C1433 C1434 1.334 . S
C1434 H1405 0.950 . S
C1434 C1433 1.334 . S
C1434 C1435 1.287 . S
C1435 C1434 1.287 . S
C1435 C1436 1.524 . S
C1435 H1438 0.999 . S
C1436 H1406 0.950 . S
C1436 C1435 1.524 . S
C1436 C1437 1.415 . S
C1437 H1407 0.950 . S
C1437 C1432 1.363 . S
C1437 C1436 1.415 . S
H1438 C1435 0.999 . S
H1439 C1420 0.913 . S
H1440 C1458 0.987 . S
H1441 C1460 0.951 1_554 S
H1442 C1462 0.950 . S
H1443 C1463 0.950 . S
H1444 C1465 0.950 . S
H1445 C1468 0.929 1_455 S
H1446 C1469 0.950 . S
H1447 C1471 0.950 . S
H1448 C1472 0.950 . S
H1449 C1473 0.987 . S
H1450 C1475 0.951 1_556 S
H1451 C1477 0.950 . S
H1452 C1478 0.950 . S
H1453 C1480 0.950 . S
H1454 C1483 0.929 1_655 S
H1455 C1484 0.950 . S
H1456 C1486 0.950 . S
H1457 C1487 0.950 . S
C1458 H1440 0.987 . S
C1458 C1459 1.366 . S
C1458 C1460 1.388 . S
C1459 C1458 1.366 . S
C1459 C1463 1.385 . S
C1460 H1441 0.951 1_556 S
C1460 C1458 1.388 . S
C1460 C1461 1.366 . S
C1461 C1460 1.366 . S
C1461 C1462 1.414 . S
C1461 C1464 1.499 . S
C1462 H1442 0.950 . S
C1462 C1461 1.414 . S
C1462 C1463 1.374 . S
C1463 H1443 0.950 . S
C1463 C1459 1.385 . S
C1463 C1462 1.374 . S
C1464 C1461 1.499 . S
C1464 C1465 1.373 . S
C1464 C1466 1.389 1_556 S
C1465 H1444 0.950 . S
C1465 C1464 1.373 . S
C1465 C1481 1.377 1_655 S
C1466 C1464 1.389 1_554 S
C1466 C1467 1.524 . S
C1466 C1480 1.377 1_655 S
C1467 C1466 1.524 . S
C1467 C1468 1.397 . S
C1467 C1472 1.363 . S
C1468 H1445 0.929 1_655 S
C1468 C1467 1.397 . S
C1468 C1469 1.334 . S
C1469 H1446 0.950 . S
C1469 C1468 1.334 . S
C1469 C1470 1.287 . S
C1470 C1469 1.287 . S
C1470 C1471 1.524 . S
C1470 H1489 0.913 . S
C1471 H1447 0.950 . S
C1471 C1470 1.524 . S
C1471 C1472 1.415 . S
C1472 H1448 0.950 . S
C1472 C1467 1.363 . S
C1472 C1471 1.415 . S
C1473 H1449 0.987 . S
C1473 C1474 1.366 . S
C1473 C1475 1.388 . S
C1474 C1473 1.366 . S
C1474 C1478 1.385 . S
C1475 H1450 0.951 1_554 S
C1475 C1473 1.388 . S
C1475 C1476 1.366 . S
C1476 C1475 1.366 . S
C1476 C1477 1.414 . S
C1476 C1479 1.499 . S
C1477 H1451 0.950 . S
C1477 C1476 1.414 . S
C1477 C1478 1.374 . S
C1478 H1452 0.950 . S
C1478 C1474 1.385 . S
C1478 C1477 1.374 . S
C1479 C1476 1.499 . S
C1479 C1480 1.373 . S
C1479 C1481 1.389 1_554 S
C1480 H1453 0.950 . S
C1480 C1466 1.377 1_455 S
C1480 C1479 1.373 . S
C1481 C1465 1.377 1_455 S
C1481 C1479 1.389 1_556 S
C1481 C1482 1.524 . S
C1482 C1481 1.524 . S
C1482 C1483 1.397 . S
C1482 C1487 1.363 . S
C1483 H1454 0.929 1_455 S
C1483 C1482 1.397 . S
C1483 C1484 1.334 . S
C1484 H1455 0.950 . S
C1484 C1483 1.334 . S
C1484 C1485 1.287 . S
C1485 C1484 1.287 . S
C1485 C1486 1.524 . S
C1485 H1488 0.999 . S
C1486 H1456 0.950 . S
C1486 C1485 1.524 . S
C1486 C1487 1.415 . S
C1487 H1457 0.950 . S
C1487 C1482 1.363 . S
C1487 C1486 1.415 . S
H1488 C1485 0.999 . S
H1489 C1470 0.913 . S
H1490 C1508 0.951 . S
H1491 C1510 0.951 . S
H1492 C1512 0.950 . S
H1493 C1513 0.950 . S
H1494 C1515 0.950 . S
H1495 C1518 0.950 . S
H1496 C1519 0.950 . S
H1497 C1521 0.950 . S
H1498 C1522 0.950 . S
H1499 C1523 0.951 . S
H1500 C1525 0.951 . S
H1501 C1527 0.950 . S
H1502 C1528 0.950 . S
H1503 C1530 0.950 . S
H1504 C1533 0.950 . S
H1505 C1534 0.950 . S
H1506 C1536 0.950 . S
H1507 C1537 0.950 . S
C1508 H1490 0.951 . S
C1508 C1509 1.366 . S
C1508 C1510 1.388 . S
C1509 C1508 1.366 . S
C1509 C1513 1.385 . S
C1510 H1491 0.951 . S
C1510 C1508 1.388 . S
C1510 C1511 1.366 . S
C1511 C1510 1.366 . S
C1511 C1512 1.414 . S
C1511 C1514 1.499 . S
C1512 H1492 0.950 . S
C1512 C1511 1.414 . S
C1512 C1513 1.374 . S
C1513 H1493 0.950 . S
C1513 C1509 1.385 . S
C1513 C1512 1.374 . S
C1514 C1511 1.499 . S
C1514 C1515 1.373 . S
C1514 C1516 1.389 1_455 S
C1515 H1494 0.950 . S
C1515 C1514 1.373 . S
C1515 C1531 1.377 1_545 S
C1516 C1514 1.389 1_655 S
C1516 C1517 1.524 . S
C1516 C1530 1.377 1_545 S
C1517 C1516 1.524 . S
C1517 C1518 1.397 1_655 S
C1517 C1522 1.363 . S
C1518 H1495 0.950 . S
C1518 C1517 1.397 1_455 S
C1518 C1519 1.334 . S
C1519 H1496 0.950 . S
C1519 C1518 1.334 . S
C1519 C1520 1.287 1_455 S
C1520 C1519 1.287 1_655 S
C1520 C1521 1.524 . S
C1520 H1539 0.913 . S
C1521 H1497 0.950 . S
C1521 C1520 1.524 . S
C1521 C1522 1.415 . S
C1522 H1498 0.950 . S
C1522 C1517 1.363 . S
C1522 C1521 1.415 . S
C1523 H1499 0.951 . S
C1523 C1524 1.366 . S
C1523 C1525 1.388 . S
C1524 C1523 1.366 . S
C1524 C1528 1.385 . S
C1525 H1500 0.951 . S
C1525 C1523 1.388 . S
C1525 C1526 1.366 . S
C1526 C1525 1.366 . S
C1526 C1527 1.414 . S
C1526 C1529 1.499 . S
C1527 H1501 0.950 . S
C1527 C1526 1.414 . S
C1527 C1528 1.374 . S
C1528 H1502 0.950 . S
C1528 C1524 1.385 . S
C1528 C1527 1.374 . S
C1529 C1526 1.499 . S
C1529 C1530 1.373 . S
C1529 C1531 1.389 1_655 S
C1530 H1503 0.950 . S
C1530 C1516 1.377 1_565 S
C1530 C1529 1.373 . S
C1531 C1515 1.377 1_565 S
C1531 C1529 1.389 1_455 S
C1531 C1532 1.524 . S
C1532 C1531 1.524 . S
C1532 C1533 1.397 1_455 S
C1532 C1537 1.363 . S
C1533 H1504 0.950 . S
C1533 C1532 1.397 1_655 S
C1533 C1534 1.334 . S
C1534 H1505 0.950 . S
C1534 C1533 1.334 . S
C1534 C1535 1.287 1_655 S
C1535 C1534 1.287 1_455 S
C1535 C1536 1.524 . S
C1535 H1538 0.999 . S
C1536 H1506 0.950 . S
C1536 C1535 1.524 . S
C1536 C1537 1.415 . S
C1537 H1507 0.950 . S
C1537 C1532 1.363 . S
C1537 C1536 1.415 . S
H1538 C1535 0.999 . S
H1539 C1520 0.913 . S
H1540 C1558 0.951 . S
H1541 C1560 0.918 1_556 S
H1542 C1562 0.950 . S
H1543 C1563 0.950 . S
H1544 C1565 0.956 . S
H1545 C1568 0.950 . S
H1546 C1569 0.950 . S
H1547 C1571 0.950 . S
H1548 C1572 0.950 . S
H1549 C1573 0.951 . S
H1550 C1575 0.918 1_554 S
H1551 C1577 0.950 . S
H1552 C1578 0.950 . S
H1553 C1580 0.956 . S
H1554 C1583 0.950 . S
H1555 C1584 0.950 . S
H1556 C1586 0.950 . S
H1557 C1587 0.950 . S
C1558 H1540 0.951 . S
C1558 C1559 1.366 . S
C1558 C1560 1.388 . S
C1559 C1558 1.366 . S
C1559 C1563 1.385 . S
C1560 H1541 0.918 1_554 S
C1560 C1558 1.388 . S
C1560 C1561 1.366 . S
C1561 C1560 1.366 . S
C1561 C1562 1.414 . S
C1561 C1564 1.499 . S
C1562 H1542 0.950 . S
C1562 C1561 1.414 . S
C1562 C1563 1.374 . S
C1563 H1543 0.950 . S
C1563 C1559 1.385 . S
C1563 C1562 1.374 . S
C1564 C1561 1.499 . S
C1564 C1565 1.413 . S
C1564 C1566 1.389 1_554 S
C1565 H1544 0.956 . S
C1565 C1564 1.413 . S
C1565 C1581 1.337 1_545 S
C1566 C1564 1.389 1_556 S
C1566 C1567 1.524 . S
C1566 C1580 1.337 1_545 S
C1567 C1566 1.524 . S
C1567 C1568 1.397 . S
C1567 C1572 1.363 . S
C1568 H1545 0.950 . S
C1568 C1567 1.397 . S
C1568 C1569 1.334 . S
C1569 H1546 0.950 . S
C1569 C1568 1.334 . S
C1569 C1570 1.287 . S
C1570 C1569 1.287 . S
C1570 C1571 1.524 . S
C1570 H1589 0.913 . S
C1571 H1547 0.950 . S
C1571 C1570 1.524 . S
C1571 C1572 1.415 . S
C1572 H1548 0.950 . S
C1572 C1567 1.363 . S
C1572 C1571 1.415 . S
C1573 H1549 0.951 . S
C1573 C1574 1.366 . S
C1573 C1575 1.388 . S
C1574 C1573 1.366 . S
C1574 C1578 1.385 . S
C1575 H1550 0.918 1_556 S
C1575 C1573 1.388 . S
C1575 C1576 1.366 . S
C1576 C1575 1.366 . S
C1576 C1577 1.414 . S
C1576 C1579 1.499 . S
C1577 H1551 0.950 . S
C1577 C1576 1.414 . S
C1577 C1578 1.374 . S
C1578 H1552 0.950 . S
C1578 C1574 1.385 . S
C1578 C1577 1.374 . S
C1579 C1576 1.499 . S
C1579 C1580 1.413 . S
C1579 C1581 1.389 1_556 S
C1580 H1553 0.956 . S
C1580 C1566 1.337 1_565 S
C1580 C1579 1.413 . S
C1581 C1565 1.337 1_565 S
C1581 C1579 1.389 1_554 S
C1581 C1582 1.524 . S
C1582 C1581 1.524 . S
C1582 C1583 1.397 . S
C1582 C1587 1.363 . S
C1583 H1554 0.950 . S
C1583 C1582 1.397 . S
C1583 C1584 1.334 . S
C1584 H1555 0.950 . S
C1584 C1583 1.334 . S
C1584 C1585 1.287 . S
C1585 C1584 1.287 . S
C1585 C1586 1.524 . S
C1585 H1588 0.999 . S
C1586 H1556 0.950 . S
C1586 C1585 1.524 . S
C1586 C1587 1.415 . S
C1587 H1557 0.950 . S
C1587 C1582 1.363 . S
C1587 C1586 1.415 . S
H1588 C1585 0.999 . S
H1589 C1570 0.913 . S
H1590 C1608 0.951 . S
H1591 C1610 0.951 . S
H1592 C1612 0.950 . S
H1593 C1613 0.950 . S
H1594 C1615 0.950 . S
H1595 C1618 0.950 . S
H1596 C1619 0.950 . S
H1597 C1621 0.950 . S
H1598 C1622 0.950 . S
H1599 C1623 0.951 . S
H1600 C1625 0.951 . S
H1601 C1627 0.950 . S
H1602 C1628 0.950 . S
H1603 C1630 0.950 . S
H1604 C1633 0.950 . S
H1605 C1634 0.950 . S
H1606 C1636 0.950 . S
H1607 C1637 0.950 . S
C1608 H1590 0.951 . S
C1608 C1609 1.366 . S
C1608 C1610 1.388 . S
C1609 C1608 1.366 . S
C1609 C1613 1.385 . S
C1610 H1591 0.951 . S
C1610 C1608 1.388 . S
C1610 C1611 1.366 . S
C1611 C1610 1.366 . S
C1611 C1612 1.414 . S
C1611 C1614 1.499 . S
C1612 H1592 0.950 . S
C1612 C1611 1.414 . S
C1612 C1613 1.374 . S
C1613 H1593 0.950 . S
C1613 C1609 1.385 . S
C1613 C1612 1.374 . S
C1614 C1611 1.499 . S
C1614 C1615 1.373 . S
C1614 C1616 1.389 . S
C1615 H1594 0.950 . S
C1615 C1614 1.373 . S
C1615 C1631 1.377 . S
C1616 C1614 1.389 . S
C1616 C1617 1.524 . S
C1616 C1630 1.377 . S
C1617 C1616 1.524 . S
C1617 C1618 1.397 . S
C1617 C1622 1.363 . S
C1618 H1595 0.950 . S
C1618 C1617 1.397 . S
C1618 C1619 1.334 . S
C1619 H1596 0.950 . S
C1619 C1618 1.334 . S
C1619 C1620 1.287 . S
C1620 C1619 1.287 . S
C1620 C1621 1.524 . S
C1620 H1639 0.913 . S
C1621 H1597 0.950 . S
C1621 C1620 1.524 . S
C1621 C1622 1.415 . S
C1622 H1598 0.950 . S
C1622 C1617 1.363 . S
C1622 C1621 1.415 . S
C1623 H1599 0.951 . S
C1623 C1624 1.366 . S
C1623 C1625 1.388 . S
C1624 C1623 1.366 . S
C1624 C1628 1.385 . S
C1625 H1600 0.951 . S
C1625 C1623 1.388 . S
C1625 C1626 1.366 . S
C1626 C1625 1.366 . S
C1626 C1627 1.414 . S
C1626 C1629 1.499 . S
C1627 H1601 0.950 . S
C1627 C1626 1.414 . S
C1627 C1628 1.374 . S
C1628 H1602 0.950 . S
C1628 C1624 1.385 . S
C1628 C1627 1.374 . S
C1629 C1626 1.499 . S
C1629 C1630 1.373 . S
C1629 C1631 1.389 . S
C1630 H1603 0.950 . S
C1630 C1616 1.377 . S
C1630 C1629 1.373 . S
C1631 C1615 1.377 . S
C1631 C1629 1.389 . S
C1631 C1632 1.524 . S
C1632 C1631 1.524 . S
C1632 C1633 1.397 . S
C1632 C1637 1.363 . S
C1633 H1604 0.950 . S
C1633 C1632 1.397 . S
C1633 C1634 1.334 . S
C1634 H1605 0.950 . S
C1634 C1633 1.334 . S
C1634 C1635 1.287 . S
C1635 C1634 1.287 . S
C1635 C1636 1.524 . S
C1635 H1638 0.999 . S
C1636 H1606 0.950 . S
C1636 C1635 1.524 . S
C1636 C1637 1.415 . S
C1637 H1607 0.950 . S
C1637 C1632 1.363 . S
C1637 C1636 1.415 . S
H1638 C1635 0.999 . S
H1639 C1620 0.913 . S
H1640 C1658 0.951 . S
H1641 C1660 0.951 . S
H1642 C1662 0.950 . S
H1643 C1663 0.950 . S
H1644 C1665 0.950 . S
H1645 C1668 0.944 1_545 S
H1646 C1669 0.950 . S
H1647 C1671 0.950 . S
H1648 C1672 0.950 . S
H1649 C1673 0.951 . S
H1650 C1675 0.951 . S
H1651 C1677 0.950 . S
H1652 C1678 0.950 . S
H1653 C1680 0.950 . S
H1654 C1683 0.944 1_565 S
H1655 C1684 0.950 . S
H1656 C1686 0.950 . S
H1657 C1687 0.950 . S
C1658 H1640 0.951 . S
C1658 C1659 1.366 . S
C1658 C1660 1.388 . S
C1659 C1658 1.366 . S
C1659 C1663 1.385 . S
C1660 H1641 0.951 . S
C1660 C1658 1.388 . S
C1660 C1661 1.366 . S
C1661 C1660 1.366 . S
C1661 C1662 1.414 . S
C1661 C1664 1.499 . S
C1662 H1642 0.950 . S
C1662 C1661 1.414 . S
C1662 C1663 1.374 . S
C1663 H1643 0.950 . S
C1663 C1659 1.385 . S
C1663 C1662 1.374 . S
C1664 C1661 1.499 . S
C1664 C1665 1.373 1_456 S
C1664 C1666 1.389 1_545 S
C1665 H1644 0.950 . S
C1665 C1664 1.373 1_654 S
C1665 C1681 1.377 . S
C1666 C1664 1.389 1_565 S
C1666 C1667 1.524 . S
C1666 C1680 1.377 . S
C1667 C1666 1.524 . S
C1667 C1668 1.397 . S
C1667 C1672 1.363 . S
C1668 H1645 0.944 1_565 S
C1668 C1667 1.397 . S
C1668 C1669 1.334 . S
C1669 H1646 0.950 . S
C1669 C1668 1.334 . S
C1669 C1670 1.287 . S
C1670 C1669 1.287 . S
C1670 C1671 1.524 . S
C1670 H1689 0.913 . S
C1671 H1647 0.950 . S
C1671 C1670 1.524 . S
C1671 C1672 1.415 . S
C1672 H1648 0.950 . S
C1672 C1667 1.363 . S
C1672 C1671 1.415 . S
C1673 H1649 0.951 . S
C1673 C1674 1.366 . S
C1673 C1675 1.388 . S
C1674 C1673 1.366 . S
C1674 C1678 1.385 . S
C1675 H1650 0.951 . S
C1675 C1673 1.388 . S
C1675 C1676 1.366 . S
C1676 C1675 1.366 . S
C1676 C1677 1.414 . S
C1676 C1679 1.499 . S
C1677 H1651 0.950 . S
C1677 C1676 1.414 . S
C1677 C1678 1.374 . S
C1678 H1652 0.950 . S
C1678 C1674 1.385 . S
C1678 C1677 1.374 . S
C1679 C1676 1.499 . S
C1679 C1680 1.373 1_654 S
C1679 C1681 1.389 1_565 S
C1680 H1653 0.950 . S
C1680 C1666 1.377 . S
C1680 C1679 1.373 1_456 S
C1681 C1665 1.377 . S
C1681 C1679 1.389 1_545 S
C1681 C1682 1.524 . S
C1682 C1681 1.524 . S
C1682 C1683 1.397 . S
C1682 C1687 1.363 . S
C1683 H1654 0.944 1_545 S
C1683 C1682 1.397 . S
C1683 C1684 1.334 . S
C1684 H1655 0.950 . S
C1684 C1683 1.334 . S
C1684 C1685 1.287 . S
C1685 C1684 1.287 . S
C1685 C1686 1.524 . S
C1685 H1688 0.999 . S
C1686 H1656 0.950 . S
C1686 C1685 1.524 . S
C1686 C1687 1.415 . S
C1687 H1657 0.950 . S
C1687 C1682 1.363 . S
C1687 C1686 1.415 . S
H1688 C1685 0.999 . S
H1689 C1670 0.913 . S
H1690 C1708 0.951 . S
H1691 C1710 0.951 . S
H1692 C1712 0.950 . S
H1693 C1713 0.950 . S
H1694 C1715 0.950 . S
H1695 C1718 0.950 . S
H1696 C1719 0.950 . S
H1697 C1721 0.950 . S
H1698 C1722 0.950 . S
H1699 C1723 0.951 . S
H1700 C1725 0.951 . S
H1701 C1727 0.950 . S
H1702 C1728 0.950 . S
H1703 C1730 0.950 . S
H1704 C1733 0.950 . S
H1705 C1734 0.950 . S
H1706 C1736 0.950 . S
H1707 C1737 0.950 . S
C1708 H1690 0.951 . S
C1708 C1709 1.366 . S
C1708 C1710 1.388 . S
C1709 C1708 1.366 . S
C1709 C1713 1.385 . S
C1710 H1691 0.951 . S
C1710 C1708 1.388 . S
C1710 C1711 1.366 . S
C1711 C1710 1.366 . S
C1711 C1712 1.414 . S
C1711 C1714 1.499 . S
C1712 H1692 0.950 . S
C1712 C1711 1.414 . S
C1712 C1713 1.374 . S
C1713 H1693 0.950 . S
C1713 C1709 1.385 . S
C1713 C1712 1.374 . S
C1714 C1711 1.499 . S
C1714 C1715 1.373 . S
C1714 C1716 1.389 1_545 S
C1715 H1694 0.950 . S
C1715 C1714 1.373 . S
C1715 C1731 1.377 . S
C1716 C1714 1.389 1_565 S
C1716 C1717 1.524 . S
C1716 C1730 1.377 . S
C1717 C1716 1.524 . S
C1717 C1718 1.397 . S
C1717 C1722 1.363 . S
C1718 H1695 0.950 . S
C1718 C1717 1.397 . S
C1718 C1719 1.334 . S
C1719 H1696 0.950 . S
C1719 C1718 1.334 . S
C1719 C1720 1.287 . S
C1720 C1719 1.287 . S
C1720 C1721 1.524 . S
C1720 H1739 0.913 . S
C1721 H1697 0.950 . S
C1721 C1720 1.524 . S
C1721 C1722 1.415 . S
C1722 H1698 0.950 . S
C1722 C1717 1.363 . S
C1722 C1721 1.415 . S
C1723 H1699 0.951 . S
C1723 C1724 1.366 . S
C1723 C1725 1.388 . S
C1724 C1723 1.366 . S
C1724 C1728 1.385 . S
C1725 H1700 0.951 . S
C1725 C1723 1.388 . S
C1725 C1726 1.366 . S
C1726 C1725 1.366 . S
C1726 C1727 1.414 . S
C1726 C1729 1.499 . S
C1727 H1701 0.950 . S
C1727 C1726 1.414 . S
C1727 C1728 1.374 . S
C1728 H1702 0.950 . S
C1728 C1724 1.385 . S
C1728 C1727 1.374 . S
C1729 C1726 1.499 . S
C1729 C1730 1.373 . S
C1729 C1731 1.389 1_565 S
C1730 H1703 0.950 . S
C1730 C1716 1.377 . S
C1730 C1729 1.373 . S
C1731 C1715 1.377 . S
C1731 C1729 1.389 1_545 S
C1731 C1732 1.524 . S
C1732 C1731 1.524 . S
C1732 C1733 1.397 . S
C1732 C1737 1.363 . S
C1733 H1704 0.950 . S
C1733 C1732 1.397 . S
C1733 C1734 1.334 . S
C1734 H1705 0.950 . S
C1734 C1733 1.334 . S
C1734 C1735 1.287 . S
C1735 C1734 1.287 . S
C1735 C1736 1.524 . S
C1735 H1738 0.999 . S
C1736 H1706 0.950 . S
C1736 C1735 1.524 . S
C1736 C1737 1.415 . S
C1737 H1707 0.950 . S
C1737 C1732 1.363 . S
C1737 C1736 1.415 . S
H1738 C1735 0.999 . S
H1739 C1720 0.913 . S
H1740 C1758 0.951 . S
H1741 C1760 0.951 . S
H1742 C1762 0.950 . S
H1743 C1763 0.950 . S
H1744 C1765 0.950 . S
H1745 C1768 0.950 . S
H1746 C1769 0.950 . S
H1747 C1771 0.950 . S
H1748 C1772 0.950 . S
H1749 C1773 0.951 . S
H1750 C1775 0.951 . S
H1751 C1777 0.950 . S
H1752 C1778 0.950 . S
H1753 C1780 0.950 . S
H1754 C1783 0.950 . S
H1755 C1784 0.950 . S
H1756 C1786 0.950 . S
H1757 C1787 0.950 . S
C1758 H1740 0.951 . S
C1758 C1759 1.366 . S
C1758 C1760 1.388 . S
C1759 C1758 1.366 . S
C1759 C1763 1.385 . S
C1760 H1741 0.951 . S
C1760 C1758 1.388 . S
C1760 C1761 1.366 . S
C1761 C1760 1.366 . S
C1761 C1762 1.414 . S
C1761 C1764 1.499 . S
C1762 H1742 0.950 . S
C1762 C1761 1.414 . S
C1762 C1763 1.374 . S
C1763 H1743 0.950 . S
C1763 C1759 1.385 . S
C1763 C1762 1.374 . S
C1764 C1761 1.499 . S
C1764 C1765 1.373 1_554 S
C1764 C1766 1.389 . S
C1765 H1744 0.950 . S
C1765 C1764 1.373 1_556 S
C1765 C1781 1.377 . S
C1766 C1764 1.389 . S
C1766 C1767 1.524 . S
C1766 C1780 1.377 . S
C1767 C1766 1.524 . S
C1767 C1768 1.397 . S
C1767 C1772 1.363 . S
C1768 H1745 0.950 . S
C1768 C1767 1.397 . S
C1768 C1769 1.334 . S
C1769 H1746 0.950 . S
C1769 C1768 1.334 . S
C1769 C1770 1.287 . S
C1770 C1769 1.287 . S
C1770 C1771 1.524 . S
C1770 H1789 0.913 . S
C1771 H1747 0.950 . S
C1771 C1770 1.524 . S
C1771 C1772 1.415 . S
C1772 H1748 0.950 . S
C1772 C1767 1.363 . S
C1772 C1771 1.415 . S
C1773 H1749 0.951 . S
C1773 C1774 1.366 . S
C1773 C1775 1.388 . S
C1774 C1773 1.366 . S
C1774 C1778 1.385 . S
C1775 H1750 0.951 . S
C1775 C1773 1.388 . S
C1775 C1776 1.366 . S
C1776 C1775 1.366 . S
C1776 C1777 1.414 . S
C1776 C1779 1.499 . S
C1777 H1751 0.950 . S
C1777 C1776 1.414 . S
C1777 C1778 1.374 . S
C1778 H1752 0.950 . S
C1778 C1774 1.385 . S
C1778 C1777 1.374 . S
C1779 C1776 1.499 . S
C1779 C1780 1.373 1_556 S
C1779 C1781 1.389 . S
C1780 H1753 0.950 . S
C1780 C1766 1.377 . S
C1780 C1779 1.373 1_554 S
C1781 C1765 1.377 . S
C1781 C1779 1.389 . S
C1781 C1782 1.524 . S
C1782 C1781 1.524 . S
C1782 C1783 1.397 . S
C1782 C1787 1.363 . S
C1783 H1754 0.950 . S
C1783 C1782 1.397 . S
C1783 C1784 1.334 . S
C1784 H1755 0.950 . S
C1784 C1783 1.334 . S
C1784 C1785 1.287 . S
C1785 C1784 1.287 . S
C1785 C1786 1.524 . S
C1785 H1788 0.999 . S
C1786 H1756 0.950 . S
C1786 C1785 1.524 . S
C1786 C1787 1.415 . S
C1787 H1757 0.950 . S
C1787 C1782 1.363 . S
C1787 C1786 1.415 . S
H1788 C1785 0.999 . S
H1789 C1770 0.913 . S
H1790 C1808 0.951 . S
H1791 C1810 0.951 . S
H1792 C1812 0.950 . S
H1793 C1813 0.950 . S
H1794 C1815 0.950 . S
H1795 C1818 0.950 . S
H1796 C1819 0.950 . S
H1797 C1821 0.950 . S
H1798 C1822 0.950 . S
H1799 C1823 0.951 . S
H1800 C1825 0.951 . S
H1801 C1827 0.950 . S
H1802 C1828 0.950 . S
H1803 C1830 0.950 . S
H1804 C1833 0.950 . S
H1805 C1834 0.950 . S
H1806 C1836 0.950 . S
H1807 C1837 0.950 . S
C1808 H1790 0.951 . S
C1808 C1809 1.366 . S
C1808 C1810 1.388 . S
C1809 C1808 1.366 . S
C1809 C1813 1.385 . S
C1810 H1791 0.951 . S
C1810 C1808 1.388 . S
C1810 C1811 1.366 . S
C1811 C1810 1.366 . S
C1811 C1812 1.414 . S
C1811 C1814 1.499 . S
C1812 H1792 0.950 . S
C1812 C1811 1.414 . S
C1812 C1813 1.374 . S
C1813 H1793 0.950 . S
C1813 C1809 1.385 . S
C1813 C1812 1.374 . S
C1814 C1811 1.499 . S
C1814 C1815 1.373 1_655 S
C1814 C1816 1.389 . S
C1815 H1794 0.950 . S
C1815 C1814 1.373 1_455 S
C1815 C1831 1.377 . S
C1816 C1814 1.389 . S
C1816 C1817 1.524 . S
C1816 C1830 1.377 . S
C1817 C1816 1.524 . S
C1817 C1818 1.397 . S
C1817 C1822 1.363 . S
C1818 H1795 0.950 . S
C1818 C1817 1.397 . S
C1818 C1819 1.334 . S
C1819 H1796 0.950 . S
C1819 C1818 1.334 . S
C1819 C1820 1.287 . S
C1820 C1819 1.287 . S
C1820 C1821 1.524 . S
C1820 H1839 0.913 . S
C1821 H1797 0.950 . S
C1821 C1820 1.524 . S
C1821 C1822 1.415 . S
C1822 H1798 0.950 . S
C1822 C1817 1.363 . S
C1822 C1821 1.415 . S
C1823 H1799 0.951 . S
C1823 C1824 1.366 . S
C1823 C1825 1.388 . S
C1824 C1823 1.366 . S
C1824 C1828 1.385 . S
C1825 H1800 0.951 . S
C1825 C1823 1.388 . S
C1825 C1826 1.366 . S
C1826 C1825 1.366 . S
C1826 C1827 1.414 . S
C1826 C1829 1.499 . S
C1827 H1801 0.950 . S
C1827 C1826 1.414 . S
C1827 C1828 1.374 . S
C1828 H1802 0.950 . S
C1828 C1824 1.385 . S
C1828 C1827 1.374 . S
C1829 C1826 1.499 . S
C1829 C1830 1.373 1_455 S
C1829 C1831 1.389 . S
C1830 H1803 0.950 . S
C1830 C1816 1.377 . S
C1830 C1829 1.373 1_655 S
C1831 C1815 1.377 . S
C1831 C1829 1.389 . S
C1831 C1832 1.524 . S
C1832 C1831 1.524 . S
C1832 C1833 1.397 . S
C1832 C1837 1.363 . S
C1833 H1804 0.950 . S
C1833 C1832 1.397 . S
C1833 C1834 1.334 . S
C1834 H1805 0.950 . S
C1834 C1833 1.334 . S
C1834 C1835 1.287 . S
C1835 C1834 1.287 . S
C1835 C1836 1.524 . S
C1835 H1838 0.999 . S
C1836 H1806 0.950 . S
C1836 C1835 1.524 . S
C1836 C1837 1.415 . S
C1837 H1807 0.950 . S
C1837 C1832 1.363 . S
C1837 C1836 1.415 . S
H1838 C1835 0.999 . S
H1839 C1820 0.913 . S
C659 C21 1.713 . S
C674 C301 1.714 . S
C709 C61 1.714 . S
C724 C181 1.713 . S
C759 C221 1.714 . S
C774 C101 1.714 . S
C809 C261 1.714 . S
C824 C141 1.713 . S
C859 C341 1.778 . S
C874 C621 1.778 . S
C909 C501 1.778 . S
C924 C381 1.778 . S
C959 C541 1.778 . S
C974 C421 1.778 . S
C1009 C461 1.778 . S
C1024 C581 1.778 . S
C1059 C15 1.714 . S
C1074 C175 1.714 . S
C1109 C215 1.714 . S
C1124 C55 1.714 . S
C1159 C255 1.714 . S
C1174 C95 1.714 . S
C1209 C135 1.714 . S
C1224 C295 1.714 . S
C1259 C495 1.717 . S
C1274 C335 1.717 . S
C1309 C535 1.717 . S
C1324 C375 1.717 . S
C1359 C575 1.717 . S
C1374 C415 1.717 . S
C1409 C455 1.717 . S
C1424 C615 1.717 . S
C1459 C322 1.819 . S
C1474 C2 1.750 . S
C1509 C42 1.749 . S
C1524 C362 1.819 . S
C1559 C82 1.749 . S
C1574 C402 1.819 . S
C1609 C442 1.819 . S
C1624 C122 1.749 . S
C1659 C162 1.749 . S
C1674 C482 1.819 . S
C1709 C202 1.750 . S
C1724 C522 1.819 . S
C1759 C562 1.819 . S
C1774 C242 1.750 . S
C1809 C602 1.819 . S
C1824 C282 1.750 . S
