# Generated by pormake.
# Topology fnw, (5)-cn, num edge types: 1
# Building blocks:
#     Node 0, Type 0, BuildingBlock: XOMCOT_clean_sbu_1, # of connection points: 5
#     Node 1, Type 0, BuildingBlock: XOMCOT_clean_sbu_1, # of connection points: 5
#     Node 2, Type 0, BuildingBlock: XOMCOT_clean_sbu_1, # of connection points: 5
#     Node 3, Type 0, BuildingBlock: XOMCOT_clean_sbu_1, # of connection points: 5
#     Node 4, Type 0, BuildingBlock: XOMCOT_clean_sbu_1, # of connection points: 5
#     Node 5, Type 0, BuildingBlock: XOMCOT_clean_sbu_1, # of connection points: 5
#     Node 6, Type 0, BuildingBlock: XOMCOT_clean_sbu_1, # of connection points: 5
#     Node 7, Type 0, BuildingBlock: XOMCOT_clean_sbu_1, # of connection points: 5
#     Node 8, Type 0, BuildingBlock: XOMCOT_clean_sbu_1, # of connection points: 5
#     Node 9, Type 0, BuildingBlock: XOMCOT_clean_sbu_1, # of connection points: 5
#     Node 10, Type 0, BuildingBlock: XOMCOT_clean_sbu_1, # of connection points: 5
#     Node 11, Type 0, BuildingBlock: XOMCOT_clean_sbu_1, # of connection points: 5
#     Edge 12, Type (0, 0), BuildingBlock: AJUNOK_clean_linker_0, # of connection points: 2
#     Edge 13, Type (0, 0), BuildingBlock: AJUNOK_clean_linker_0, # of connection points: 2
#     Edge 14, Type (0, 0), BuildingBlock: AJUNOK_clean_linker_0, # of connection points: 2
#     Edge 15, Type (0, 0), BuildingBlock: AJUNOK_clean_linker_0, # of connection points: 2
#     Edge 16, Type (0, 0), BuildingBlock: AJUNOK_clean_linker_0, # of connection points: 2
#     Edge 17, Type (0, 0), BuildingBlock: AJUNOK_clean_linker_0, # of connection points: 2
#     Edge 18, Type (0, 0), BuildingBlock: AJUNOK_clean_linker_0, # of connection points: 2
#     Edge 19, Type (0, 0), BuildingBlock: AJUNOK_clean_linker_0, # of connection points: 2
#     Edge 20, Type (0, 0), BuildingBlock: AJUNOK_clean_linker_0, # of connection points: 2
#     Edge 21, Type (0, 0), BuildingBlock: AJUNOK_clean_linker_0, # of connection points: 2
#     Edge 22, Type (0, 0), BuildingBlock: AJUNOK_clean_linker_0, # of connection points: 2
#     Edge 23, Type (0, 0), BuildingBlock: AJUNOK_clean_linker_0, # of connection points: 2
#     Edge 24, Type (0, 0), BuildingBlock: AJUNOK_clean_linker_0, # of connection points: 2
#     Edge 25, Type (0, 0), BuildingBlock: AJUNOK_clean_linker_0, # of connection points: 2
#     Edge 26, Type (0, 0), BuildingBlock: AJUNOK_clean_linker_0, # of connection points: 2
#     Edge 27, Type (0, 0), BuildingBlock: AJUNOK_clean_linker_0, # of connection points: 2
#     Edge 28, Type (0, 0), BuildingBlock: AJUNOK_clean_linker_0, # of connection points: 2
#     Edge 29, Type (0, 0), BuildingBlock: AJUNOK_clean_linker_0, # of connection points: 2
#     Edge 30, Type (0, 0), BuildingBlock: AJUNOK_clean_linker_0, # of connection points: 2
#     Edge 31, Type (0, 0), BuildingBlock: AJUNOK_clean_linker_0, # of connection points: 2
#     Edge 32, Type (0, 0), BuildingBlock: AJUNOK_clean_linker_0, # of connection points: 2
#     Edge 33, Type (0, 0), BuildingBlock: AJUNOK_clean_linker_0, # of connection points: 2
#     Edge 34, Type (0, 0), BuildingBlock: AJUNOK_clean_linker_0, # of connection points: 2
#     Edge 35, Type (0, 0), BuildingBlock: AJUNOK_clean_linker_0, # of connection points: 2
#     Edge 36, Type (0, 0), BuildingBlock: AJUNOK_clean_linker_0, # of connection points: 2
#     Edge 37, Type (0, 0), BuildingBlock: AJUNOK_clean_linker_0, # of connection points: 2
#     Edge 38, Type (0, 0), BuildingBlock: AJUNOK_clean_linker_0, # of connection points: 2
#     Edge 39, Type (0, 0), BuildingBlock: AJUNOK_clean_linker_0, # of connection points: 2
#     Edge 40, Type (0, 0), BuildingBlock: AJUNOK_clean_linker_0, # of connection points: 2
#     Edge 41, Type (0, 0), BuildingBlock: AJUNOK_clean_linker_0, # of connection points: 2
# Relax obj value: 0.362
# Max RMSD: 0.158
# Mean RMSD: 0.158
data_MOF--net-fnw--node1-XOMCOT_clean_sbu_1--edge1-AJUNOK_clean_linker_0
_symmetry_space_group_name_H-M    P1
_symmetry_Int_Tables_number       1
_symmetry_cell_setting            triclinic
loop_
_symmetry_equiv_pos_as_xyz
'x, y, z'
_cell_length_a     41.649069
_cell_length_b     41.73249
_cell_length_c     19.724118
_cell_angle_alpha  89.551226
_cell_angle_beta   90.079694
_cell_angle_gamma 119.97378
loop_
_atom_site_label
_atom_site_type_symbol
_atom_site_fract_x
_atom_site_fract_y
_atom_site_fract_z
_atom_type_partial_charge
C0 C 0.31594 0.522 0.26735 0.0
C1 C 0.30076 0.54455 0.26751 0.0
N2 N 0.27337 0.53143 0.31408 0.0
N3 N 0.29828 0.49484 0.31365 0.0
C4 C 0.27225 0.50106 0.34113 0.0
H5 H 0.33865 0.52527 0.2359 0.0
Co6 Co 0.31146 0.4595 0.33097 0.0
C7 C 0.28977 0.4367 0.47431 0.0
O8 O 0.32156 0.43783 0.48173 0.0
N9 N 0.32561 0.42307 0.3463 0.0
C10 C 0.35755 0.39457 0.37007 0.0
C11 C 0.35706 0.42702 0.37468 0.0
C12 C 0.30762 0.38754 0.32483 0.0
N13 N 0.32663 0.36994 0.3381 0.0
O14 O 0.27047 0.42587 0.27494 0.0
H15 H 0.37881 0.45182 0.39749 0.0
H16 H 0.28158 0.37475 0.29796 0.0
O17 O 0.28106 0.44377 0.41576 0.0
C18 C 0.28266 0.42813 0.21444 0.0
O19 O 0.31867 0.44764 0.20473 0.0
N20 N 0.35329 0.49594 0.37566 0.0
C21 C 0.41314 0.56699 0.39384 0.0
C22 C 0.38288 0.55243 0.43873 0.0
C23 C 0.35279 0.51699 0.42801 0.0
C24 C 0.38343 0.50895 0.33421 0.0
C25 C 0.41372 0.54415 0.3427 0.0
H26 H 0.32783 0.50862 0.45691 0.0
H27 H 0.38237 0.4932 0.29011 0.0
H28 H 0.25251 0.48341 0.3792 0.0
H29 H 0.30934 0.56889 0.23608 0.0
H30 H 0.37998 0.39006 0.38536 0.0
H31 H 0.381 0.56948 0.47788 0.0
H32 H 0.43552 0.55457 0.30487 0.0
C33 C 0.79484 0.32543 0.74804 0.0
C34 C 0.76083 0.31436 0.71999 0.0
N35 N 0.73784 0.27866 0.73727 0.0
N36 N 0.79366 0.29705 0.78311 0.0
C37 C 0.75923 0.26844 0.77239 0.0
H38 H 0.81918 0.35249 0.74264 0.0
Co39 Co 0.83562 0.30141 0.82496 0.0
C40 C 0.77777 0.24366 0.93 0.0
O41 O 0.74583 0.23795 0.9069 0.0
N42 N 0.879 0.30694 0.86345 0.0
C43 C 0.92093 0.30657 0.93279 0.0
C44 C 0.88492 0.29879 0.92703 0.0
C45 C 0.91196 0.31997 0.83177 0.0
N46 N 0.9379 0.31998 0.87288 0.0
O47 O 0.83215 0.26329 0.76572 0.0
H48 H 0.86459 0.28764 0.96698 0.0
H49 H 0.91671 0.32871 0.77925 0.0
O50 O 0.80802 0.26581 0.89928 0.0
C51 C 0.84411 0.27598 0.70609 0.0
O52 O 0.86211 0.31207 0.69747 0.0
N53 N 0.83886 0.34038 0.87747 0.0
C54 C 0.82945 0.40113 0.89784 0.0
C55 C 0.80359 0.36628 0.92359 0.0
C56 C 0.80884 0.33626 0.91303 0.0
C57 C 0.86667 0.3748 0.85995 0.0
C58 C 0.86261 0.40574 0.87011 0.0
H59 H 0.78596 0.30935 0.92481 0.0
H60 H 0.8899 0.37781 0.83045 0.0
H61 H 0.75025 0.24046 0.78839 0.0
H62 H 0.75415 0.3315 0.68848 0.0
H63 H 0.93378 0.30295 0.97773 0.0
H64 H 0.77728 0.36104 0.94404 0.0
H65 H 0.88353 0.43232 0.85014 0.0
C66 C 0.52408 0.7571 0.22463 0.0
C67 C 0.51172 0.72077 0.24177 0.0
N68 N 0.50212 0.71619 0.30765 0.0
N69 N 0.52262 0.77525 0.27982 0.0
C70 C 0.50849 0.7493 0.32937 0.0
H71 H 0.53292 0.76922 0.17477 0.0
Co72 Co 0.53772 0.82514 0.28502 0.0
C73 C 0.56308 0.84679 0.4292 0.0
O74 O 0.5533 0.87215 0.42447 0.0
N75 N 0.55352 0.87589 0.28913 0.0
C76 C 0.55735 0.93087 0.28265 0.0
C77 C 0.53385 0.89334 0.27998 0.0
C78 C 0.58894 0.90351 0.29665 0.0
N79 N 0.59191 0.93715 0.29336 0.0
O80 O 0.58269 0.83619 0.23541 0.0
H81 H 0.50445 0.88012 0.27086 0.0
H82 H 0.61216 0.89897 0.30323 0.0
O83 O 0.55925 0.82663 0.37732 0.0
C84 C 0.57953 0.84539 0.17441 0.0
O85 O 0.5522 0.85172 0.16162 0.0
N86 N 0.4912 0.81258 0.32068 0.0
C87 C 0.41617 0.78783 0.33822 0.0
C88 C 0.43831 0.79111 0.39426 0.0
C89 C 0.47614 0.80359 0.3844 0.0
C90 C 0.46941 0.80822 0.26603 0.0
C91 C 0.43205 0.79655 0.27369 0.0
H92 H 0.49235 0.80421 0.42745 0.0
H93 H 0.48141 0.81396 0.21573 0.0
H94 H 0.50251 0.7543 0.38021 0.0
H95 H 0.50856 0.69905 0.208 0.0
H96 H 0.54964 0.95198 0.27711 0.0
H97 H 0.42635 0.78346 0.44459 0.0
H98 H 0.41543 0.79346 0.22924 0.0
C99 C 0.77318 0.54769 0.78637 0.0
C100 C 0.79546 0.53295 0.79909 0.0
N101 N 0.77502 0.50027 0.83074 0.0
N102 N 0.73847 0.52419 0.80865 0.0
C103 C 0.7405 0.49549 0.83635 0.0
H104 H 0.78222 0.5746 0.76426 0.0
Co105 Co 0.70035 0.53525 0.80464 0.0
C106 C 0.71688 0.56778 0.9207 0.0
O107 O 0.68357 0.53883 0.92784 0.0
N108 N 0.66295 0.54856 0.80065 0.0
C109 C 0.6114 0.55223 0.79974 0.0
C110 C 0.62566 0.52904 0.80813 0.0
C111 C 0.67049 0.58371 0.78948 0.0
N112 N 0.63966 0.58653 0.78724 0.0
O113 O 0.72131 0.56264 0.71842 0.0
H114 H 0.60919 0.49997 0.81963 0.0
H115 H 0.6982 0.60678 0.7814 0.0
O116 O 0.73005 0.5771 0.86063 0.0
C117 C 0.70543 0.56453 0.66391 0.0
O118 O 0.66905 0.54716 0.66115 0.0
N119 N 0.67057 0.49072 0.75959 0.0
C120 C 0.62425 0.41758 0.71999 0.0
C121 C 0.62059 0.42976 0.78394 0.0
C122 C 0.64512 0.46574 0.80362 0.0
C123 C 0.67571 0.47949 0.69766 0.0
C124 C 0.65235 0.44298 0.67643 0.0
H125 H 0.64374 0.47404 0.85484 0.0
H126 H 0.69858 0.49797 0.6655 0.0
H127 H 0.71724 0.47159 0.85958 0.0
H128 H 0.82467 0.54552 0.78711 0.0
H129 H 0.58251 0.54451 0.80399 0.0
H130 H 0.59914 0.41165 0.81917 0.0
H131 H 0.65695 0.43445 0.6274 0.0
C132 C 0.21268 0.69809 0.22888 0.0
C133 C 0.25035 0.71216 0.23063 0.0
N134 N 0.26305 0.7303 0.28935 0.0
N135 N 0.20186 0.70712 0.28655 0.0
C136 C 0.23335 0.7272 0.32228 0.0
H137 H 0.19398 0.68032 0.19019 0.0
Co138 Co 0.15257 0.6859 0.31102 0.0
C139 C 0.15288 0.70663 0.45573 0.0
O140 O 0.12591 0.67277 0.46728 0.0
N141 N 0.10138 0.66338 0.33413 0.0
C142 C 0.04398 0.62327 0.36863 0.0
C143 C 0.07929 0.62949 0.36206 0.0
C144 C 0.07819 0.677 0.32418 0.0
N145 N 0.0432 0.65302 0.34451 0.0
O146 O 0.15017 0.7237 0.25747 0.0
H147 H 0.08783 0.61021 0.37862 0.0
H148 H 0.08662 0.70397 0.30265 0.0
O149 O 0.16605 0.71603 0.39532 0.0
C150 C 0.13903 0.71199 0.19729 0.0
O151 O 0.12354 0.67622 0.18695 0.0
N152 N 0.15703 0.64786 0.35268 0.0
C153 C 0.18338 0.59843 0.36155 0.0
C154 C 0.19498 0.62733 0.4082 0.0
C155 C 0.18144 0.65193 0.4029 0.0
C156 C 0.14394 0.61858 0.30978 0.0
C157 C 0.15591 0.59298 0.31456 0.0
H158 H 0.19417 0.67639 0.43377 0.0
H159 H 0.12633 0.61683 0.26793 0.0
H160 H 0.23428 0.73681 0.3734 0.0
H161 H 0.26691 0.7079 0.19341 0.0
H162 H 0.02037 0.59834 0.3883 0.0
H163 H 0.21703 0.63318 0.4438 0.0
H164 H 0.1463 0.57106 0.27755 0.0
C165 C 0.50003 0.21285 0.58993 0.0
C166 C 0.52373 0.25045 0.58414 0.0
N167 N 0.52283 0.2662 0.6429 0.0
N168 N 0.4841 0.20507 0.65185 0.0
C169 C 0.49802 0.2382 0.68233 0.0
H170 H 0.49667 0.19231 0.55319 0.0
Co171 Co 0.45769 0.15817 0.69084 0.0
C172 C 0.41933 0.16557 0.81405 0.0
O173 O 0.38845 0.13531 0.79855 0.0
N174 N 0.43173 0.11073 0.73092 0.0
C175 C 0.41305 0.0671 0.81105 0.0
C176 C 0.43955 0.10228 0.79296 0.0
C177 C 0.40048 0.07967 0.71189 0.0
N178 N 0.38864 0.05301 0.76007 0.0
O179 O 0.41435 0.15151 0.64256 0.0
H180 H 0.46195 0.12118 0.82515 0.0
H181 H 0.38551 0.07706 0.66558 0.0
O182 O 0.44681 0.17849 0.77278 0.0
C183 C 0.41435 0.13881 0.5835 0.0
O184 O 0.43538 0.12394 0.57446 0.0
N185 N 0.50208 0.16551 0.72792 0.0
C186 C 0.57785 0.19337 0.73912 0.0
C187 C 0.55906 0.20304 0.78639 0.0
C188 C 0.52102 0.18899 0.77968 0.0
C189 C 0.51921 0.1528 0.68612 0.0
C190 C 0.5573 0.16641 0.69085 0.0
H191 H 0.50783 0.19948 0.8127 0.0
H192 H 0.50385 0.13476 0.64471 0.0
H193 H 0.49164 0.24158 0.73389 0.0
H194 H 0.5422 0.26469 0.54202 0.0
H195 H 0.41124 0.05316 0.85863 0.0
H196 H 0.57413 0.22342 0.82506 0.0
H197 H 0.57094 0.15832 0.65358 0.0
C198 C 0.50133 0.74918 0.91018 0.0
C199 C 0.47291 0.7565 0.91711 0.0
N200 N 0.47306 0.77647 0.86285 0.0
N201 N 0.51905 0.76368 0.85124 0.0
C202 C 0.50126 0.78016 0.82323 0.0
H203 H 0.50765 0.73269 0.94435 0.0
Co204 Co 0.55523 0.75387 0.82089 0.0
C205 C 0.57923 0.81334 0.71243 0.0
O206 O 0.59844 0.84039 0.75485 0.0
N207 N 0.59193 0.74355 0.79119 0.0
C208 C 0.64615 0.7498 0.75922 0.0
C209 C 0.62717 0.76827 0.77315 0.0
C210 C 0.59018 0.71044 0.78722 0.0
N211 N 0.62244 0.71342 0.76745 0.0
O212 O 0.59162 0.79693 0.86943 0.0
H213 H 0.63865 0.79793 0.77187 0.0
H214 H 0.56636 0.68435 0.80089 0.0
O215 O 0.56129 0.78012 0.73464 0.0
C216 C 0.59855 0.78697 0.92672 0.0
O217 O 0.58803 0.75181 0.93511 0.0
N218 N 0.51752 0.71005 0.78408 0.0
C219 C 0.44683 0.64882 0.77664 0.0
C220 C 0.45925 0.67646 0.72649 0.0
C221 C 0.49512 0.7071 0.73088 0.0
C222 C 0.50609 0.68239 0.83115 0.0
C223 C 0.47119 0.65114 0.82751 0.0
H224 H 0.50295 0.72981 0.69584 0.0
H225 H 0.52301 0.68624 0.87538 0.0
H226 H 0.50812 0.79366 0.77411 0.0
H227 H 0.45254 0.74596 0.95742 0.0
H228 H 0.67503 0.76204 0.74492 0.0
H229 H 0.44048 0.67587 0.6878 0.0
H230 H 0.46195 0.6308 0.86816 0.0
C231 C 0.73091 0.48887 0.37736 0.0
C232 C 0.69491 0.46102 0.36798 0.0
N233 N 0.6833 0.46607 0.30707 0.0
N234 N 0.74191 0.51145 0.32278 0.0
C235 C 0.71222 0.49709 0.28106 0.0
H236 H 0.74833 0.49206 0.42045 0.0
Co237 Co 0.78958 0.55106 0.31041 0.0
C238 C 0.79394 0.57193 0.16599 0.0
O239 O 0.82608 0.57323 0.16279 0.0
N240 N 0.8381 0.59227 0.29883 0.0
C241 C 0.88355 0.65046 0.28016 0.0
C242 C 0.84579 0.62654 0.27886 0.0
C243 C 0.87173 0.59649 0.3133 0.0
N244 N 0.89949 0.63127 0.30234 0.0
O245 O 0.77491 0.58162 0.35782 0.0
H246 H 0.82509 0.63386 0.26522 0.0
H247 H 0.87659 0.57511 0.33259 0.0
O248 O 0.77582 0.56271 0.22199 0.0
C249 C 0.78753 0.58667 0.41828 0.0
O250 O 0.81252 0.57723 0.43272 0.0
N251 N 0.80262 0.51763 0.27372 0.0
C252 C 0.79773 0.44819 0.27397 0.0
C253 C 0.78098 0.45815 0.22223 0.0
C254 C 0.78421 0.49336 0.22241 0.0
C255 C 0.81994 0.50856 0.32244 0.0
C256 C 0.81984 0.47527 0.32107 0.0
H257 H 0.76762 0.4987 0.18698 0.0
H258 H 0.8296 0.5248 0.368 0.0
H259 H 0.71181 0.50896 0.23241 0.0
H260 H 0.67886 0.43822 0.40252 0.0
H261 H 0.89799 0.67972 0.26813 0.0
H262 H 0.76251 0.43793 0.18614 0.0
H263 H 0.83336 0.46915 0.36199 0.0
C264 C 0.26354 0.75071 0.90924 0.0
C265 C 0.25763 0.71531 0.90453 0.0
N266 N 0.23198 0.69768 0.85631 0.0
N267 N 0.24209 0.75527 0.86336 0.0
C268 C 0.2226 0.72219 0.83267 0.0
H269 H 0.28361 0.77239 0.94133 0.0
Co270 Co 0.24589 0.80026 0.84221 0.0
C271 C 0.22729 0.7952 0.69589 0.0
O272 O 0.25675 0.82801 0.68866 0.0
N273 N 0.24929 0.8467 0.82163 0.0
C274 C 0.2347 0.8914 0.81319 0.0
C275 C 0.22192 0.85491 0.8301 0.0
C276 C 0.27805 0.87871 0.79749 0.0
N277 N 0.26986 0.90597 0.79192 0.0
O278 O 0.20099 0.78454 0.89437 0.0
H279 H 0.1943 0.83587 0.84827 0.0
H280 H 0.30486 0.88265 0.78402 0.0
O281 O 0.21879 0.78032 0.7553 0.0
C282 C 0.21056 0.79659 0.95491 0.0
O283 O 0.24571 0.82056 0.96559 0.0
N284 N 0.2923 0.81444 0.80248 0.0
C285 C 0.35926 0.81418 0.80403 0.0
C286 C 0.33104 0.79179 0.75851 0.0
C287 C 0.29775 0.79253 0.75806 0.0
C288 C 0.32055 0.83818 0.84329 0.0
C289 C 0.35477 0.83987 0.84221 0.0
H290 H 0.27491 0.77173 0.72914 0.0
H291 H 0.3155 0.85359 0.88154 0.0
H292 H 0.20361 0.71666 0.79111 0.0
H293 H 0.27183 0.70371 0.93264 0.0
H294 H 0.21958 0.90618 0.81688 0.0
H295 H 0.33312 0.77133 0.72833 0.0
H296 H 0.37628 0.85878 0.87609 0.0
C297 C 0.50223 0.26422 0.30383 0.0
C298 C 0.5279 0.25366 0.31687 0.0
N299 N 0.52023 0.22447 0.27748 0.0
N300 N 0.47868 0.24201 0.25603 0.0
C301 C 0.49003 0.21775 0.24113 0.0
H302 H 0.50063 0.28664 0.32768 0.0
Co303 Co 0.43875 0.24616 0.22828 0.0
C304 C 0.43586 0.23398 0.07965 0.0
O305 O 0.4373 0.26606 0.07391 0.0
N306 N 0.39675 0.24969 0.20498 0.0
C307 C 0.34186 0.24049 0.16899 0.0
C308 C 0.36935 0.23169 0.15906 0.0
C309 C 0.38391 0.26706 0.24442 0.0
N310 N 0.35126 0.2626 0.22322 0.0
O311 O 0.40703 0.20049 0.27736 0.0
H312 H 0.36812 0.21197 0.12257 0.0
H313 H 0.39776 0.28224 0.28948 0.0
O314 O 0.43531 0.22068 0.13928 0.0
C315 C 0.40557 0.20967 0.33881 0.0
O316 O 0.42096 0.24509 0.35212 0.0
N317 N 0.47302 0.29379 0.19031 0.0
C318 C 0.54004 0.36092 0.19712 0.0
C319 C 0.53755 0.33132 0.15977 0.0
C320 C 0.50371 0.29813 0.15633 0.0
C321 C 0.47424 0.3239 0.2197 0.0
C322 C 0.50723 0.35773 0.2228 0.0
H323 H 0.5039 0.27447 0.13496 0.0
H324 H 0.45136 0.32133 0.24864 0.0
H325 H 0.47589 0.19517 0.20598 0.0
H326 H 0.55063 0.26657 0.35242 0.0
H327 H 0.31653 0.23052 0.14021 0.0
H328 H 0.56216 0.33211 0.1399 0.0
H329 H 0.50778 0.38007 0.25137 0.0
C330 C 0.25497 0.50725 0.93414 0.0
C331 C 0.28947 0.53816 0.92812 0.0
N332 N 0.30117 0.5404 0.86368 0.0
N333 N 0.24515 0.48993 0.87402 0.0
C334 C 0.274 0.51059 0.83213 0.0
H335 H 0.2378 0.49826 0.97917 0.0
Co336 Co 0.19923 0.44918 0.85687 0.0
C337 C 0.20298 0.42736 0.71491 0.0
O338 O 0.16871 0.42001 0.70578 0.0
N339 N 0.15261 0.4076 0.84116 0.0
C340 C 0.10841 0.34918 0.82542 0.0
C341 C 0.14599 0.37284 0.83089 0.0
C342 C 0.11865 0.40426 0.84226 0.0
N343 N 0.09141 0.36918 0.83205 0.0
O344 O 0.21316 0.41967 0.91199 0.0
H345 H 0.16719 0.36513 0.82841 0.0
H346 H 0.1135 0.42656 0.85328 0.0
O347 O 0.2184 0.43895 0.77289 0.0
C348 C 0.19941 0.41524 0.97166 0.0
O349 O 0.17382 0.4244 0.98146 0.0
N350 N 0.18623 0.48095 0.81258 0.0
C351 C 0.188 0.54802 0.7935 0.0
C352 C 0.20106 0.53401 0.74275 0.0
C353 C 0.20065 0.50066 0.75383 0.0
C354 C 0.17084 0.49295 0.85967 0.0
C355 C 0.17095 0.52607 0.85083 0.0
H356 H 0.21574 0.49357 0.71855 0.0
H357 H 0.16195 0.47864 0.90792 0.0
H358 H 0.27466 0.50475 0.77897 0.0
H359 H 0.30481 0.55733 0.96821 0.0
H360 H 0.09462 0.31955 0.81816 0.0
H361 H 0.21444 0.5502 0.69769 0.0
H362 H 0.16124 0.53614 0.89194 0.0
C363 C 0.72028 0.2432 0.40394 0.0
C364 C 0.72558 0.27822 0.3974 0.0
N365 N 0.74893 0.2953 0.34508 0.0
N366 N 0.74004 0.23787 0.35598 0.0
C367 C 0.75744 0.27018 0.32082 0.0
H368 H 0.70262 0.22254 0.44075 0.0
Co369 Co 0.73673 0.19206 0.3472 0.0
C370 C 0.75697 0.18662 0.20561 0.0
O371 O 0.73178 0.1515 0.21023 0.0
N372 N 0.73306 0.14479 0.34152 0.0
C373 C 0.74801 0.10024 0.33757 0.0
C374 C 0.76145 0.13772 0.34454 0.0
C375 C 0.70283 0.11104 0.33288 0.0
N376 N 0.71114 0.08386 0.32978 0.0
O377 O 0.78109 0.20983 0.40123 0.0
H378 H 0.79032 0.15856 0.34978 0.0
H379 H 0.67501 0.10582 0.32604 0.0
O380 O 0.76401 0.20722 0.2582 0.0
C381 C 0.7704 0.19823 0.46195 0.0
O382 O 0.73484 0.17552 0.47215 0.0
N383 N 0.69105 0.17581 0.304 0.0
C384 C 0.62281 0.17088 0.27867 0.0
C385 C 0.65246 0.18952 0.23312 0.0
C386 C 0.68645 0.19184 0.24683 0.0
C387 C 0.66216 0.1569 0.3477 0.0
C388 C 0.62747 0.15269 0.33454 0.0
H389 H 0.70982 0.21044 0.21588 0.0
H390 H 0.66678 0.14711 0.39566 0.0
H391 H 0.77616 0.2753 0.27904 0.0
H392 H 0.71291 0.29015 0.42856 0.0
H393 H 0.76409 0.08638 0.33582 0.0
H394 H 0.65087 0.20561 0.19128 0.0
H395 H 0.60549 0.13831 0.37143 0.0
C396 C 0.33358 0.2851 0.3226 0.0
C397 C 0.33319 0.28097 0.25187 0.0
C398 C 0.32772 0.31222 0.35143 0.0
C399 C 0.32087 0.33579 0.31054 0.0
H400 H 0.34141 0.26921 0.35538 0.0
H401 H 0.33129 0.31671 0.40559 0.0
S402 S 0.31163 0.33264 0.12348 0.0
N403 N 0.32125 0.2997 0.14221 0.0
N404 N 0.30974 0.35061 0.19665 0.0
C405 C 0.31648 0.32937 0.24039 0.0
C406 C 0.3227 0.30183 0.21092 0.0
C407 C 0.99177 0.311 0.88307 0.0
C408 C 0.97579 0.33129 0.85709 0.0
C409 C 0.02929 0.32279 0.8725 0.0
C410 C 0.05224 0.35555 0.83631 0.0
H411 H 0.97515 0.28599 0.91237 0.0
H412 H 0.04074 0.30691 0.89488 0.0
S413 S 0.02359 0.41774 0.75515 0.0
N414 N 0.98546 0.38504 0.79179 0.0
N415 N 0.05606 0.40706 0.77132 0.0
C416 C 0.03642 0.37556 0.80844 0.0
C417 C -0.00187 0.36342 0.81884 0.0
C418 C 0.6584 0.03774 0.26443 0.0
C419 C 0.68508 0.04592 0.31511 0.0
C420 C 0.62884 0.00183 0.25605 0.0
C421 C 0.62487 0.97274 0.29804 0.0
H422 H 0.65988 0.05962 0.23231 0.0
H423 H 0.60843 -0.00311 0.21737 0.0
S424 S 0.68796 0.97954 0.43705 0.0
N425 N 0.70657 0.02212 0.40641 0.0
N426 N 0.65064 0.95416 0.39094 0.0
C427 C 0.65223 0.98017 0.34708 0.0
C428 C 0.68248 0.01692 0.35553 0.0
C429 C 0.66393 0.65342 0.80348 0.0
C430 C 0.63743 0.61944 0.77536 0.0
C431 C 0.66014 0.68493 0.79759 0.0
C432 C 0.62976 0.68332 0.76341 0.0
H433 H 0.68679 0.65522 0.83267 0.0
H434 H 0.67996 0.71013 0.8227 0.0
S435 S 0.55651 0.60304 0.67109 0.0
N436 N 0.58258 0.58757 0.70477 0.0
N437 N 0.57532 0.64664 0.6946 0.0
C438 C 0.60442 0.65022 0.73174 0.0
C439 C 0.60827 0.61829 0.73752 0.0
C440 C 0.98325 0.64083 0.38927 0.0
C441 C 0.0103 0.65578 0.33791 0.0
C442 C 0.94763 0.63513 0.37867 0.0
C443 C 0.93784 0.64445 0.31654 0.0
H444 H 0.98921 0.63173 0.4368 0.0
H445 H 0.92698 0.62176 0.41816 0.0
S446 S -0.00095 0.68714 0.16769 0.0
N447 N 0.02557 0.68201 0.22408 0.0
N448 N 0.95829 0.67165 0.20467 0.0
C449 C 0.96519 0.66185 0.26644 0.0
C450 C 0.0016 0.66749 0.27704 0.0
C451 C 0.30111 0.97151 0.82347 0.0
C452 C 0.29578 0.94403 0.77684 0.0
C453 C 0.33077 0.00771 0.81603 0.0
C454 C 0.3554 0.01766 0.76094 0.0
H455 H 0.28356 0.9644 0.86794 0.0
H456 H 0.3353 0.02786 0.85461 0.0
S457 S 0.35128 0.95668 0.62206 0.0
N458 N 0.316 0.92952 0.6719 0.0
N459 N 0.37133 -0.00194 0.65708 0.0
C460 C 0.34908 0.99103 0.71197 0.0
C461 C 0.31934 0.95401 0.72021 0.0
C462 C 0.2024 0.40803 0.09757 0.0
C463 C 0.21717 0.40914 1.03251 0.0
C464 C 0.22236 0.41108 0.15704 0.0
C465 C 0.25796 0.41533 0.15399 0.0
H466 H 0.176 0.40697 0.10282 0.0
H467 H 0.21082 0.41265 0.20526 0.0
S468 S 0.30627 0.41243 0.99771 0.0
N469 N 0.26748 0.40942 0.96978 0.0
N470 N 0.30482 0.41476 0.08108 0.0
C471 C 0.27157 0.41294 0.08976 0.0
C472 C 0.25124 0.40989 1.02918 0.0
C473 C 0.82586 0.24973 0.51993 0.0
C474 C 0.79475 0.21402 0.52237 0.0
C475 C 0.84348 0.26841 0.57978 0.0
C476 C 0.83074 0.2522 0.64456 0.0
H477 H 0.83516 0.26436 0.47196 0.0
H478 H 0.86601 0.29668 0.57514 0.0
S479 S 0.75434 0.15657 0.67771 0.0
N480 N 0.75518 0.16111 0.59441 0.0
N481 N 0.78796 0.19635 0.70628 0.0
C482 C 0.80174 0.2153 0.6472 0.0
C483 C 0.78383 0.19625 0.58631 0.0
C484 C 0.59504 0.85394 1.05088 0.0
C485 C 0.59776 0.8395 0.11436 0.0
C486 C 0.59927 0.83955 0.98945 0.0
C487 C 0.60653 0.8101 0.98883 0.0
H488 H 0.5865 0.87456 1.04837 0.0
H489 H 0.59361 0.84947 0.94255 0.0
S490 S 0.62503 0.76832 0.14056 0.0
N491 N 0.61464 0.79853 0.17224 0.0
N492 N 0.62311 0.7717 0.05734 0.0
C493 C 0.61388 0.79858 1.05179 0.0
C494 C 0.60949 0.81328 0.11442 0.0
C495 C 0.72872 0.57348 0.47592 0.0
C496 C 0.76763 0.5915 0.47594 0.0
C497 C 0.70879 0.56723 0.53671 0.0
C498 C 0.72704 0.57872 0.59973 0.0
H499 H 0.71346 0.56136 0.42973 0.0
H500 H 0.67884 0.55101 0.53451 0.0
S501 S 0.82877 0.63428 0.62437 0.0
N502 N 0.82374 0.62577 0.54226 0.0
N503 N 0.7864 0.61468 0.65602 0.0
C504 C 0.76594 0.60006 0.59917 0.0
C505 C 0.78618 0.60629 0.5374 0.0
C506 C 0.15637 0.74228 1.01194 0.0
C507 C 0.18605 0.77881 1.01516 0.0
C508 C 0.13927 0.72195 0.07135 0.0
C509 C 0.15108 0.73718 0.13663 0.0
H510 H 0.14796 0.72836 0.96361 0.0
H511 H 0.11802 0.69323 0.06591 0.0
S512 S 0.22314 0.83404 0.17226 0.0
N513 N 0.22291 0.83116 0.0888 0.0
N514 N 0.19112 0.79284 0.19979 0.0
C515 C 0.17842 0.77472 0.14019 0.0
C516 C 0.1958 0.79548 0.07971 0.0
C517 C 0.40577 0.13779 0.45713 0.0
C518 C 0.40098 0.14961 0.52156 0.0
C519 C 0.4034 0.15464 0.39661 0.0
C520 C 0.39591 0.1839 0.39795 0.0
H521 H 0.41405 0.11705 0.45332 0.0
H522 H 0.4105 0.14672 0.34921 0.0
S523 S 0.37343 0.22021 0.55134 0.0
N524 N 0.38285 0.18877 0.58133 0.0
N525 N 0.3778 0.21996 0.46818 0.0
C526 C 0.38716 0.19326 0.4613 0.0
C527 C 0.38977 0.17624 0.5229 0.0
C528 C 0.74135 0.57264 0.10538 0.0
C529 C 0.77757 0.57827 0.10361 0.0
C530 C 0.72329 0.57331 1.04585 0.0
C531 C 0.74063 0.57978 0.98196 0.0
H532 H 0.72602 0.56584 0.15262 0.0
H533 H 0.69456 0.56638 1.04953 0.0
S534 S 0.83728 0.60181 0.95017 0.0
N535 N 0.83178 0.59496 1.03292 0.0
N536 N 0.79759 0.59622 0.92138 0.0
C537 C 0.77789 0.58865 0.97994 0.0
C538 C 0.79635 0.58775 1.04063 0.0
C539 C 0.17685 0.73812 0.63947 0.0
C540 C 0.20713 0.77427 0.63384 0.0
C541 C 0.15912 0.71714 0.58171 0.0
C542 C 0.17087 0.73117 0.51534 0.0
H543 H 0.16698 0.72556 0.68893 0.0
H544 H 0.13634 0.68926 0.58957 0.0
S545 S 0.24771 0.82509 0.47185 0.0
N546 N 0.24717 0.82385 0.55552 0.0
N547 N 0.21394 0.78427 0.44777 0.0
C548 C 0.20054 0.76759 0.50883 0.0
C549 C 0.21858 0.78911 0.5677 0.0
C550 C 0.44931 0.21956 0.89378 0.0
C551 C 0.4241 0.18183 0.88328 0.0
C552 C 0.45376 0.23556 0.95813 0.0
C553 C 0.43406 0.21444 1.01546 0.0
H554 H 0.46507 0.23717 0.85161 0.0
H555 H 0.47259 0.26504 0.96285 0.0
S556 S 0.36705 0.11378 1.01715 0.0
N557 N 0.38053 0.12321 0.93717 0.0
N558 N 0.38974 0.15336 0.058 0.0
C559 C 0.40998 0.17641 1.0065 0.0
C560 C 0.40477 0.16014 0.94054 0.0
C561 C 0.23118 0.42683 0.53084 0.0
C562 C 0.26742 0.43281 0.53623 0.0
C563 C 0.21037 0.42423 0.58885 0.0
C564 C 0.22503 0.42794 0.65485 0.0
H565 H 0.21877 0.42425 0.48143 0.0
H566 H 0.18272 0.41992 0.58156 0.0
S567 S 0.31889 0.44451 0.69737 0.0
N568 N 0.31718 0.44256 0.61384 0.0
N569 N 0.27817 0.43793 0.72182 0.0
C570 C 0.26118 0.43384 0.66101 0.0
C571 C 0.2823 0.4362 0.6021 0.0
C572 C 0.75723 0.1921 1.0132 0.0
C573 C 0.77862 0.23 0.99911 0.0
C574 C 0.7528 0.1785 0.07972 0.0
C575 C 0.76882 0.2023 0.13568 0.0
H576 H 0.74292 0.17282 0.97256 0.0
H577 H 0.73509 0.14898 0.08718 0.0
S578 S 0.82961 0.30416 0.12482 0.0
N579 N 0.81741 0.29138 1.04555 0.0
N580 N 0.80951 0.26578 0.1708 0.0
C581 C 0.79174 0.24027 0.12178 0.0
C582 C 0.79641 0.25414 0.05355 0.0
C583 C 0.58544 0.857 0.61803 0.0
C584 C 0.57775 0.82152 0.63873 0.0
C585 C 0.58227 0.86507 0.54983 0.0
C586 C 0.57176 0.83825 0.49857 0.0
H587 H 0.59291 0.87859 0.65513 0.0
H588 H 0.58737 0.89257 0.53747 0.0
S589 S 0.55252 0.742 0.52442 0.0
N590 N 0.56181 0.75989 0.6012 0.0
N591 N 0.55644 0.77528 0.47322 0.0
C592 C 0.56584 0.80314 0.51794 0.0
C593 C 0.56857 0.79471 0.58781 0.0
C594 C 0.23893 0.56149 0.27474 0.0
C595 C 0.24944 0.54623 0.32805 0.0
C596 C 0.21711 0.57757 0.28647 0.0
C597 C 0.20465 0.57898 0.35208 0.0
H598 H 0.24775 0.56107 0.22331 0.0
H599 H 0.21064 0.58979 0.24369 0.0
S600 S 0.22467 0.54312 0.50959 0.0
N601 N 0.24624 0.53381 0.44932 0.0
N602 N 0.2043 0.5636 0.47134 0.0
C603 C 0.21474 0.56367 0.4061 0.0
C604 C 0.23717 0.54721 0.39405 0.0
C605 C 0.67908 0.2185 0.73336 0.0
C606 C 0.69793 0.25753 0.7304 0.0
C607 C 0.64019 0.19762 0.73527 0.0
C608 C 0.61878 0.21505 0.73443 0.0
H609 H 0.69442 0.20389 0.73505 0.0
H610 H 0.62682 0.16776 0.73889 0.0
S611 S 0.65345 0.31568 0.71898 0.0
N612 N 0.69114 0.31225 0.72311 0.0
N613 N 0.61854 0.27282 0.72282 0.0
C614 C 0.63698 0.2537 0.72796 0.0
C615 C 0.6764 0.27499 0.7268 0.0
C616 C 0.44713 0.66862 0.3674 0.0
C617 C 0.48327 0.68166 0.34341 0.0
C618 C 0.42543 0.63198 0.38981 0.0
C619 C 0.43947 0.60743 0.3897 0.0
H620 H 0.43475 0.68606 0.36405 0.0
H621 H 0.39664 0.62218 0.40213 0.0
S622 S 0.53553 0.63153 0.34514 0.0
N623 N 0.53406 0.6697 0.32923 0.0
N624 N 0.49401 0.60106 0.37424 0.0
C625 C 0.47695 0.62158 0.37218 0.0
C626 C 0.49867 0.65865 0.34813 0.0
C627 C 0.8238 0.44569 0.82081 0.0
C628 C 0.81807 0.42932 0.88566 0.0
C629 C 0.80936 0.4685 0.80352 0.0
C630 C 0.78811 0.47552 0.84982 0.0
H631 H 0.83852 0.43988 0.782 0.0
H632 H 0.81424 0.48028 0.75289 0.0
S633 S 0.76708 0.44217 1.02749 0.0
N634 N 0.79138 0.42382 0.99795 0.0
N635 N 0.7635 0.46632 0.96411 0.0
C636 C 0.78244 0.45998 0.91504 0.0
C637 C 0.7976 0.437 0.93325 0.0
C638 C 0.32375 0.78259 0.31979 0.0
C639 C 0.29964 0.74432 0.31559 0.0
C640 C 0.36155 0.79681 0.33316 0.0
C641 C 0.37594 0.77303 0.34393 0.0
H642 H 0.31369 0.80147 0.30844 0.0
H643 H 0.38001 0.82649 0.3312 0.0
S644 S 0.32293 0.67058 0.34475 0.0
N645 N 0.2917 0.68291 0.3279 0.0
N646 N 0.36273 0.70953 0.35408 0.0
C647 C 0.35151 0.7347 0.34426 0.0
C648 C 0.31325 0.72032 0.32979 0.0
C649 C 0.58391 0.36972 0.63472 0.0
C650 C 0.59928 0.37836 0.70022 0.0
C651 C 0.55887 0.33306 0.61641 0.0
C652 C 0.54793 0.30375 0.6631 0.0
H653 H 0.59071 0.39149 0.59766 0.0
H654 H 0.54751 0.3276 0.56566 0.0
S655 S 0.58284 0.31093 0.83893 0.0
N656 N 0.60409 0.35386 0.80995 0.0
N657 N 0.55615 0.28555 0.77638 0.0
C658 C 0.56351 0.3119 0.72839 0.0
C659 C 0.58942 0.34903 0.74667 0.0
C660 C 0.40864 0.79967 0.76687 0.0
C661 C 0.39026 0.80696 0.81921 0.0
C662 C 0.43626 0.7906 0.78119 0.0
C663 C 0.44663 0.78851 0.84843 0.0
H664 H 0.40141 0.80066 0.71443 0.0
H665 H 0.44884 0.78422 0.73933 0.0
S666 S 0.40755 0.80565 1.00408 0.0
N667 N 0.38399 0.81041 0.94141 0.0
N668 N 0.43765 0.79655 0.96756 0.0
C669 C 0.42914 0.79668 0.90104 0.0
C670 C 0.40057 0.80509 0.88667 0.0
C671 C 0.5812 0.3997 0.29089 0.0
C672 C 0.57663 0.39112 0.2213 0.0
C673 C 0.61586 0.42473 0.31786 0.0
C674 C 0.64761 0.44238 0.27662 0.0
H675 H 0.55801 0.38593 0.32562 0.0
H676 H 0.61791 0.43001 0.37179 0.0
S677 S 0.6509 0.43054 0.09077 0.0
N678 N 0.60684 0.40338 0.11114 0.0
N679 N 0.67233 0.44988 0.16221 0.0
C680 C 0.64351 0.43477 0.20664 0.0
C681 C 0.60802 0.4092 0.179 0.0
C682 C 0.17199 0.59743 0.81573 0.0
C683 C 0.19817 0.58753 0.79462 0.0
C684 C 0.18293 0.63405 0.83276 0.0
C685 C 0.22036 0.66165 0.83008 0.0
H686 H 0.14315 0.57641 0.82206 0.0
H687 H 0.1624 0.64051 0.85148 0.0
S688 S 0.29897 0.65182 0.76949 0.0
N689 N 0.26286 0.60958 0.76597 0.0
N690 N 0.2829 0.67827 0.7978 0.0
C691 C 0.24639 0.65281 0.80503 0.0
C692 C 0.23539 0.61575 0.78713 0.0
C693 C 0.55599 0.20116 0.3375 0.0
C694 C 0.54059 0.20505 0.27685 0.0
C695 C 0.58081 0.18797 0.3377 0.0
C696 C 0.59106 0.1777 0.27716 0.0
H697 H 0.54986 0.20976 0.38511 0.0
H698 H 0.59364 0.18794 0.38549 0.0
S699 S 0.55497 0.17847 0.10543 0.0
N700 N 0.53498 0.19514 0.15509 0.0
N701 N 0.58087 0.16881 0.15558 0.0
C702 C 0.57395 0.17913 0.21651 0.0
C703 C 0.54876 0.19299 0.21633 0.0
C704 C 0.39112 0.5857 0.76683 0.0
C705 C 0.40708 0.6227 0.78714 0.0
C706 C 0.35561 0.55911 0.7896 0.0
C707 C 0.33557 0.56865 0.83469 0.0
H708 H 0.40677 0.57706 0.73559 0.0
H709 H 0.34457 0.53058 0.77475 0.0
S710 S 0.36514 0.66261 0.89951 0.0
N711 N 0.39999 0.66809 0.85147 0.0
N712 N 0.33359 0.61828 0.89498 0.0
C713 C 0.35089 0.60594 0.85311 0.0
C714 C 0.38662 0.63294 0.82915 0.0
C715 C 0.7685 0.35959 0.37385 0.0
C716 C 0.76292 0.3333 0.32443 0.0
C717 C 0.77968 0.39613 0.35643 0.0
C718 C 0.78675 0.40874 0.28858 0.0
H719 H 0.7639 0.35181 0.42694 0.0
H720 H 0.78199 0.41445 0.39709 0.0
S721 S 0.77537 0.35067 0.13881 0.0
N722 N 0.76393 0.3218 0.20395 0.0
N723 N 0.78692 0.39144 0.17109 0.0
C724 C 0.78147 0.38279 0.23818 0.0
C725 C 0.76942 0.34501 0.2561 0.0
loop_
_geom_bond_atom_site_label_1
_geom_bond_atom_site_label_2
_geom_bond_distance
_geom_bond_site_symmetry_2
_ccdc_geom_bond_type
C0 C1 1.351 . S
C0 N3 1.368 . S
C0 H5 0.931 . S
C1 C0 1.351 . S
C1 N2 1.373 . S
C1 H29 0.930 . S
N2 C1 1.373 . S
N2 C4 1.340 . S
N3 C0 1.368 . S
N3 C4 1.321 . S
N3 Co6 2.135 . S
C4 N2 1.340 . S
C4 N3 1.321 . S
C4 H28 0.930 . S
H5 C0 0.931 . S
Co6 N3 2.135 . S
Co6 N9 2.121 . S
Co6 O14 2.055 . S
Co6 O17 2.039 . S
Co6 N20 2.140 . S
C7 O8 1.227 . S
C7 O17 1.265 . S
O8 C7 1.227 . S
N9 Co6 2.121 . S
N9 C11 1.375 . S
N9 C12 1.313 . S
C10 C11 1.338 . S
C10 N13 1.377 . S
C10 H30 0.930 . S
C11 N9 1.375 . S
C11 C10 1.338 . S
C11 H15 0.931 . S
C12 N9 1.313 . S
C12 N13 1.344 . S
C12 H16 0.930 . S
N13 C10 1.377 . S
N13 C12 1.344 . S
O14 Co6 2.055 . S
O14 C18 1.253 . S
H15 C11 0.931 . S
H16 C12 0.930 . S
O17 Co6 2.039 . S
O17 C7 1.265 . S
C18 O14 1.253 . S
C18 O19 1.227 . S
O19 C18 1.227 . S
N20 Co6 2.140 . S
N20 C23 1.346 . S
N20 C24 1.345 . S
C21 C22 1.387 . S
C21 C25 1.391 . S
C22 C21 1.387 . S
C22 C23 1.369 . S
C22 H31 0.929 . S
C23 N20 1.346 . S
C23 C22 1.369 . S
C23 H26 0.928 . S
C24 N20 1.345 . S
C24 C25 1.371 . S
C24 H27 0.931 . S
C25 C21 1.391 . S
C25 C24 1.371 . S
C25 H32 0.930 . S
H26 C23 0.928 . S
H27 C24 0.931 . S
H28 C4 0.930 . S
H29 C1 0.930 . S
H30 C10 0.930 . S
H31 C22 0.929 . S
H32 C25 0.930 . S
C33 C34 1.351 . S
C33 N36 1.368 . S
C33 H38 0.931 . S
C34 C33 1.351 . S
C34 N35 1.373 . S
C34 H62 0.930 . S
N35 C34 1.373 . S
N35 C37 1.340 . S
N36 C33 1.368 . S
N36 C37 1.321 . S
N36 Co39 2.135 . S
C37 N35 1.340 . S
C37 N36 1.321 . S
C37 H61 0.930 . S
H38 C33 0.931 . S
Co39 N36 2.135 . S
Co39 N42 2.121 . S
Co39 O47 2.055 . S
Co39 O50 2.039 . S
Co39 N53 2.140 . S
C40 O41 1.227 . S
C40 O50 1.265 . S
O41 C40 1.227 . S
N42 Co39 2.121 . S
N42 C44 1.375 . S
N42 C45 1.313 . S
C43 C44 1.338 . S
C43 N46 1.377 . S
C43 H63 0.930 . S
C44 N42 1.375 . S
C44 C43 1.338 . S
C44 H48 0.931 . S
C45 N42 1.313 . S
C45 N46 1.344 . S
C45 H49 0.930 . S
N46 C43 1.377 . S
N46 C45 1.344 . S
O47 Co39 2.055 . S
O47 C51 1.253 . S
H48 C44 0.931 . S
H49 C45 0.930 . S
O50 Co39 2.039 . S
O50 C40 1.265 . S
C51 O47 1.253 . S
C51 O52 1.227 . S
O52 C51 1.227 . S
N53 Co39 2.140 . S
N53 C56 1.346 . S
N53 C57 1.345 . S
C54 C55 1.387 . S
C54 C58 1.391 . S
C55 C54 1.387 . S
C55 C56 1.369 . S
C55 H64 0.929 . S
C56 N53 1.346 . S
C56 C55 1.369 . S
C56 H59 0.928 . S
C57 N53 1.345 . S
C57 C58 1.371 . S
C57 H60 0.931 . S
C58 C54 1.391 . S
C58 C57 1.371 . S
C58 H65 0.930 . S
H59 C56 0.928 . S
H60 C57 0.931 . S
H61 C37 0.930 . S
H62 C34 0.930 . S
H63 C43 0.930 . S
H64 C55 0.929 . S
H65 C58 0.930 . S
C66 C67 1.351 . S
C66 N69 1.368 . S
C66 H71 0.931 . S
C67 C66 1.351 . S
C67 N68 1.373 . S
C67 H95 0.930 . S
N68 C67 1.373 . S
N68 C70 1.340 . S
N69 C66 1.368 . S
N69 C70 1.321 . S
N69 Co72 2.135 . S
C70 N68 1.340 . S
C70 N69 1.321 . S
C70 H94 0.930 . S
H71 C66 0.931 . S
Co72 N69 2.135 . S
Co72 N75 2.121 . S
Co72 O80 2.055 . S
Co72 O83 2.039 . S
Co72 N86 2.140 . S
C73 O74 1.227 . S
C73 O83 1.265 . S
O74 C73 1.227 . S
N75 Co72 2.121 . S
N75 C77 1.375 . S
N75 C78 1.313 . S
C76 C77 1.338 . S
C76 N79 1.377 . S
C76 H96 0.930 . S
C77 N75 1.375 . S
C77 C76 1.338 . S
C77 H81 0.931 . S
C78 N75 1.313 . S
C78 N79 1.344 . S
C78 H82 0.930 . S
N79 C76 1.377 . S
N79 C78 1.344 . S
O80 Co72 2.055 . S
O80 C84 1.253 . S
H81 C77 0.931 . S
H82 C78 0.930 . S
O83 Co72 2.039 . S
O83 C73 1.265 . S
C84 O80 1.253 . S
C84 O85 1.227 . S
O85 C84 1.227 . S
N86 Co72 2.140 . S
N86 C89 1.346 . S
N86 C90 1.345 . S
C87 C88 1.387 . S
C87 C91 1.391 . S
C88 C87 1.387 . S
C88 C89 1.369 . S
C88 H97 0.929 . S
C89 N86 1.346 . S
C89 C88 1.369 . S
C89 H92 0.928 . S
C90 N86 1.345 . S
C90 C91 1.371 . S
C90 H93 0.931 . S
C91 C87 1.391 . S
C91 C90 1.371 . S
C91 H98 0.930 . S
H92 C89 0.928 . S
H93 C90 0.931 . S
H94 C70 0.930 . S
H95 C67 0.930 . S
H96 C76 0.930 . S
H97 C88 0.929 . S
H98 C91 0.930 . S
C99 C100 1.351 . S
C99 N102 1.368 . S
C99 H104 0.931 . S
C100 C99 1.351 . S
C100 N101 1.373 . S
C100 H128 0.930 . S
N101 C100 1.373 . S
N101 C103 1.340 . S
N102 C99 1.368 . S
N102 C103 1.321 . S
N102 Co105 2.135 . S
C103 N101 1.340 . S
C103 N102 1.321 . S
C103 H127 0.930 . S
H104 C99 0.931 . S
Co105 N102 2.135 . S
Co105 N108 2.121 . S
Co105 O113 2.055 . S
Co105 O116 2.039 . S
Co105 N119 2.140 . S
C106 O107 1.227 . S
C106 O116 1.265 . S
O107 C106 1.227 . S
N108 Co105 2.121 . S
N108 C110 1.375 . S
N108 C111 1.313 . S
C109 C110 1.338 . S
C109 N112 1.377 . S
C109 H129 0.930 . S
C110 N108 1.375 . S
C110 C109 1.338 . S
C110 H114 0.931 . S
C111 N108 1.313 . S
C111 N112 1.344 . S
C111 H115 0.930 . S
N112 C109 1.377 . S
N112 C111 1.344 . S
O113 Co105 2.055 . S
O113 C117 1.253 . S
H114 C110 0.931 . S
H115 C111 0.930 . S
O116 Co105 2.039 . S
O116 C106 1.265 . S
C117 O113 1.253 . S
C117 O118 1.227 . S
O118 C117 1.227 . S
N119 Co105 2.140 . S
N119 C122 1.346 . S
N119 C123 1.345 . S
C120 C121 1.387 . S
C120 C124 1.391 . S
C121 C120 1.387 . S
C121 C122 1.369 . S
C121 H130 0.929 . S
C122 N119 1.346 . S
C122 C121 1.369 . S
C122 H125 0.928 . S
C123 N119 1.345 . S
C123 C124 1.371 . S
C123 H126 0.931 . S
C124 C120 1.391 . S
C124 C123 1.371 . S
C124 H131 0.930 . S
H125 C122 0.928 . S
H126 C123 0.931 . S
H127 C103 0.930 . S
H128 C100 0.930 . S
H129 C109 0.930 . S
H130 C121 0.929 . S
H131 C124 0.930 . S
C132 C133 1.351 . S
C132 N135 1.368 . S
C132 H137 0.931 . S
C133 C132 1.351 . S
C133 N134 1.373 . S
C133 H161 0.930 . S
N134 C133 1.373 . S
N134 C136 1.340 . S
N135 C132 1.368 . S
N135 C136 1.321 . S
N135 Co138 2.135 . S
C136 N134 1.340 . S
C136 N135 1.321 . S
C136 H160 0.930 . S
H137 C132 0.931 . S
Co138 N135 2.135 . S
Co138 N141 2.121 . S
Co138 O146 2.055 . S
Co138 O149 2.039 . S
Co138 N152 2.140 . S
C139 O140 1.227 . S
C139 O149 1.265 . S
O140 C139 1.227 . S
N141 Co138 2.121 . S
N141 C143 1.375 . S
N141 C144 1.313 . S
C142 C143 1.338 . S
C142 N145 1.377 . S
C142 H162 0.930 . S
C143 N141 1.375 . S
C143 C142 1.338 . S
C143 H147 0.931 . S
C144 N141 1.313 . S
C144 N145 1.344 . S
C144 H148 0.930 . S
N145 C142 1.377 . S
N145 C144 1.344 . S
O146 Co138 2.055 . S
O146 C150 1.253 . S
H147 C143 0.931 . S
H148 C144 0.930 . S
O149 Co138 2.039 . S
O149 C139 1.265 . S
C150 O146 1.253 . S
C150 O151 1.227 . S
O151 C150 1.227 . S
N152 Co138 2.140 . S
N152 C155 1.346 . S
N152 C156 1.345 . S
C153 C154 1.387 . S
C153 C157 1.391 . S
C154 C153 1.387 . S
C154 C155 1.369 . S
C154 H163 0.929 . S
C155 N152 1.346 . S
C155 C154 1.369 . S
C155 H158 0.928 . S
C156 N152 1.345 . S
C156 C157 1.371 . S
C156 H159 0.931 . S
C157 C153 1.391 . S
C157 C156 1.371 . S
C157 H164 0.930 . S
H158 C155 0.928 . S
H159 C156 0.931 . S
H160 C136 0.930 . S
H161 C133 0.930 . S
H162 C142 0.930 . S
H163 C154 0.929 . S
H164 C157 0.930 . S
C165 C166 1.351 . S
C165 N168 1.368 . S
C165 H170 0.931 . S
C166 C165 1.351 . S
C166 N167 1.373 . S
C166 H194 0.930 . S
N167 C166 1.373 . S
N167 C169 1.340 . S
N168 C165 1.368 . S
N168 C169 1.321 . S
N168 Co171 2.135 . S
C169 N167 1.340 . S
C169 N168 1.321 . S
C169 H193 0.930 . S
H170 C165 0.931 . S
Co171 N168 2.135 . S
Co171 N174 2.121 . S
Co171 O179 2.055 . S
Co171 O182 2.039 . S
Co171 N185 2.140 . S
C172 O173 1.227 . S
C172 O182 1.265 . S
O173 C172 1.227 . S
N174 Co171 2.121 . S
N174 C176 1.375 . S
N174 C177 1.313 . S
C175 C176 1.338 . S
C175 N178 1.377 . S
C175 H195 0.930 . S
C176 N174 1.375 . S
C176 C175 1.338 . S
C176 H180 0.931 . S
C177 N174 1.313 . S
C177 N178 1.344 . S
C177 H181 0.930 . S
N178 C175 1.377 . S
N178 C177 1.344 . S
O179 Co171 2.055 . S
O179 C183 1.253 . S
H180 C176 0.931 . S
H181 C177 0.930 . S
O182 Co171 2.039 . S
O182 C172 1.265 . S
C183 O179 1.253 . S
C183 O184 1.227 . S
O184 C183 1.227 . S
N185 Co171 2.140 . S
N185 C188 1.346 . S
N185 C189 1.345 . S
C186 C187 1.387 . S
C186 C190 1.391 . S
C187 C186 1.387 . S
C187 C188 1.369 . S
C187 H196 0.929 . S
C188 N185 1.346 . S
C188 C187 1.369 . S
C188 H191 0.928 . S
C189 N185 1.345 . S
C189 C190 1.371 . S
C189 H192 0.931 . S
C190 C186 1.391 . S
C190 C189 1.371 . S
C190 H197 0.930 . S
H191 C188 0.928 . S
H192 C189 0.931 . S
H193 C169 0.930 . S
H194 C166 0.930 . S
H195 C175 0.930 . S
H196 C187 0.929 . S
H197 C190 0.930 . S
C198 C199 1.351 . S
C198 N201 1.368 . S
C198 H203 0.931 . S
C199 C198 1.351 . S
C199 N200 1.373 . S
C199 H227 0.930 . S
N200 C199 1.373 . S
N200 C202 1.340 . S
N201 C198 1.368 . S
N201 C202 1.321 . S
N201 Co204 2.135 . S
C202 N200 1.340 . S
C202 N201 1.321 . S
C202 H226 0.930 . S
H203 C198 0.931 . S
Co204 N201 2.135 . S
Co204 N207 2.121 . S
Co204 O212 2.055 . S
Co204 O215 2.039 . S
Co204 N218 2.140 . S
C205 O206 1.227 . S
C205 O215 1.265 . S
O206 C205 1.227 . S
N207 Co204 2.121 . S
N207 C209 1.375 . S
N207 C210 1.313 . S
C208 C209 1.338 . S
C208 N211 1.377 . S
C208 H228 0.930 . S
C209 N207 1.375 . S
C209 C208 1.338 . S
C209 H213 0.931 . S
C210 N207 1.313 . S
C210 N211 1.344 . S
C210 H214 0.930 . S
N211 C208 1.377 . S
N211 C210 1.344 . S
O212 Co204 2.055 . S
O212 C216 1.253 . S
H213 C209 0.931 . S
H214 C210 0.930 . S
O215 Co204 2.039 . S
O215 C205 1.265 . S
C216 O212 1.253 . S
C216 O217 1.227 . S
O217 C216 1.227 . S
N218 Co204 2.140 . S
N218 C221 1.346 . S
N218 C222 1.345 . S
C219 C220 1.387 . S
C219 C223 1.391 . S
C220 C219 1.387 . S
C220 C221 1.369 . S
C220 H229 0.929 . S
C221 N218 1.346 . S
C221 C220 1.369 . S
C221 H224 0.928 . S
C222 N218 1.345 . S
C222 C223 1.371 . S
C222 H225 0.931 . S
C223 C219 1.391 . S
C223 C222 1.371 . S
C223 H230 0.930 . S
H224 C221 0.928 . S
H225 C222 0.931 . S
H226 C202 0.930 . S
H227 C199 0.930 . S
H228 C208 0.930 . S
H229 C220 0.929 . S
H230 C223 0.930 . S
C231 C232 1.351 . S
C231 N234 1.368 . S
C231 H236 0.931 . S
C232 C231 1.351 . S
C232 N233 1.373 . S
C232 H260 0.930 . S
N233 C232 1.373 . S
N233 C235 1.340 . S
N234 C231 1.368 . S
N234 C235 1.321 . S
N234 Co237 2.135 . S
C235 N233 1.340 . S
C235 N234 1.321 . S
C235 H259 0.930 . S
H236 C231 0.931 . S
Co237 N234 2.135 . S
Co237 N240 2.121 . S
Co237 O245 2.055 . S
Co237 O248 2.039 . S
Co237 N251 2.140 . S
C238 O239 1.227 . S
C238 O248 1.265 . S
O239 C238 1.227 . S
N240 Co237 2.121 . S
N240 C242 1.375 . S
N240 C243 1.313 . S
C241 C242 1.338 . S
C241 N244 1.377 . S
C241 H261 0.930 . S
C242 N240 1.375 . S
C242 C241 1.338 . S
C242 H246 0.931 . S
C243 N240 1.313 . S
C243 N244 1.344 . S
C243 H247 0.930 . S
N244 C241 1.377 . S
N244 C243 1.344 . S
O245 Co237 2.055 . S
O245 C249 1.253 . S
H246 C242 0.931 . S
H247 C243 0.930 . S
O248 Co237 2.039 . S
O248 C238 1.265 . S
C249 O245 1.253 . S
C249 O250 1.227 . S
O250 C249 1.227 . S
N251 Co237 2.140 . S
N251 C254 1.346 . S
N251 C255 1.345 . S
C252 C253 1.387 . S
C252 C256 1.391 . S
C253 C252 1.387 . S
C253 C254 1.369 . S
C253 H262 0.929 . S
C254 N251 1.346 . S
C254 C253 1.369 . S
C254 H257 0.928 . S
C255 N251 1.345 . S
C255 C256 1.371 . S
C255 H258 0.931 . S
C256 C252 1.391 . S
C256 C255 1.371 . S
C256 H263 0.930 . S
H257 C254 0.928 . S
H258 C255 0.931 . S
H259 C235 0.930 . S
H260 C232 0.930 . S
H261 C241 0.930 . S
H262 C253 0.929 . S
H263 C256 0.930 . S
C264 C265 1.351 . S
C264 N267 1.368 . S
C264 H269 0.931 . S
C265 C264 1.351 . S
C265 N266 1.373 . S
C265 H293 0.930 . S
N266 C265 1.373 . S
N266 C268 1.340 . S
N267 C264 1.368 . S
N267 C268 1.321 . S
N267 Co270 2.135 . S
C268 N266 1.340 . S
C268 N267 1.321 . S
C268 H292 0.930 . S
H269 C264 0.931 . S
Co270 N267 2.135 . S
Co270 N273 2.121 . S
Co270 O278 2.055 . S
Co270 O281 2.039 . S
Co270 N284 2.140 . S
C271 O272 1.227 . S
C271 O281 1.265 . S
O272 C271 1.227 . S
N273 Co270 2.121 . S
N273 C275 1.375 . S
N273 C276 1.313 . S
C274 C275 1.338 . S
C274 N277 1.377 . S
C274 H294 0.930 . S
C275 N273 1.375 . S
C275 C274 1.338 . S
C275 H279 0.931 . S
C276 N273 1.313 . S
C276 N277 1.344 . S
C276 H280 0.930 . S
N277 C274 1.377 . S
N277 C276 1.344 . S
O278 Co270 2.055 . S
O278 C282 1.253 . S
H279 C275 0.931 . S
H280 C276 0.930 . S
O281 Co270 2.039 . S
O281 C271 1.265 . S
C282 O278 1.253 . S
C282 O283 1.227 . S
O283 C282 1.227 . S
N284 Co270 2.140 . S
N284 C287 1.346 . S
N284 C288 1.345 . S
C285 C286 1.387 . S
C285 C289 1.391 . S
C286 C285 1.387 . S
C286 C287 1.369 . S
C286 H295 0.929 . S
C287 N284 1.346 . S
C287 C286 1.369 . S
C287 H290 0.928 . S
C288 N284 1.345 . S
C288 C289 1.371 . S
C288 H291 0.931 . S
C289 C285 1.391 . S
C289 C288 1.371 . S
C289 H296 0.930 . S
H290 C287 0.928 . S
H291 C288 0.931 . S
H292 C268 0.930 . S
H293 C265 0.930 . S
H294 C274 0.930 . S
H295 C286 0.929 . S
H296 C289 0.930 . S
C297 C298 1.351 . S
C297 N300 1.368 . S
C297 H302 0.931 . S
C298 C297 1.351 . S
C298 N299 1.373 . S
C298 H326 0.930 . S
N299 C298 1.373 . S
N299 C301 1.340 . S
N300 C297 1.368 . S
N300 C301 1.321 . S
N300 Co303 2.135 . S
C301 N299 1.340 . S
C301 N300 1.321 . S
C301 H325 0.930 . S
H302 C297 0.931 . S
Co303 N300 2.135 . S
Co303 N306 2.121 . S
Co303 O311 2.055 . S
Co303 O314 2.039 . S
Co303 N317 2.140 . S
C304 O305 1.227 . S
C304 O314 1.265 . S
O305 C304 1.227 . S
N306 Co303 2.121 . S
N306 C308 1.375 . S
N306 C309 1.313 . S
C307 C308 1.338 . S
C307 N310 1.377 . S
C307 H327 0.930 . S
C308 N306 1.375 . S
C308 C307 1.338 . S
C308 H312 0.931 . S
C309 N306 1.313 . S
C309 N310 1.344 . S
C309 H313 0.930 . S
N310 C307 1.377 . S
N310 C309 1.344 . S
O311 Co303 2.055 . S
O311 C315 1.253 . S
H312 C308 0.931 . S
H313 C309 0.930 . S
O314 Co303 2.039 . S
O314 C304 1.265 . S
C315 O311 1.253 . S
C315 O316 1.227 . S
O316 C315 1.227 . S
N317 Co303 2.140 . S
N317 C320 1.346 . S
N317 C321 1.345 . S
C318 C319 1.387 . S
C318 C322 1.391 . S
C319 C318 1.387 . S
C319 C320 1.369 . S
C319 H328 0.929 . S
C320 N317 1.346 . S
C320 C319 1.369 . S
C320 H323 0.928 . S
C321 N317 1.345 . S
C321 C322 1.371 . S
C321 H324 0.931 . S
C322 C318 1.391 . S
C322 C321 1.371 . S
C322 H329 0.930 . S
H323 C320 0.928 . S
H324 C321 0.931 . S
H325 C301 0.930 . S
H326 C298 0.930 . S
H327 C307 0.930 . S
H328 C319 0.929 . S
H329 C322 0.930 . S
C330 C331 1.351 . S
C330 N333 1.368 . S
C330 H335 0.931 . S
C331 C330 1.351 . S
C331 N332 1.373 . S
C331 H359 0.930 . S
N332 C331 1.373 . S
N332 C334 1.340 . S
N333 C330 1.368 . S
N333 C334 1.321 . S
N333 Co336 2.135 . S
C334 N332 1.340 . S
C334 N333 1.321 . S
C334 H358 0.930 . S
H335 C330 0.931 . S
Co336 N333 2.135 . S
Co336 N339 2.121 . S
Co336 O344 2.055 . S
Co336 O347 2.039 . S
Co336 N350 2.140 . S
C337 O338 1.227 . S
C337 O347 1.265 . S
O338 C337 1.227 . S
N339 Co336 2.121 . S
N339 C341 1.375 . S
N339 C342 1.313 . S
C340 C341 1.338 . S
C340 N343 1.377 . S
C340 H360 0.930 . S
C341 N339 1.375 . S
C341 C340 1.338 . S
C341 H345 0.931 . S
C342 N339 1.313 . S
C342 N343 1.344 . S
C342 H346 0.930 . S
N343 C340 1.377 . S
N343 C342 1.344 . S
O344 Co336 2.055 . S
O344 C348 1.253 . S
H345 C341 0.931 . S
H346 C342 0.930 . S
O347 Co336 2.039 . S
O347 C337 1.265 . S
C348 O344 1.253 . S
C348 O349 1.227 . S
O349 C348 1.227 . S
N350 Co336 2.140 . S
N350 C353 1.346 . S
N350 C354 1.345 . S
C351 C352 1.387 . S
C351 C355 1.391 . S
C352 C351 1.387 . S
C352 C353 1.369 . S
C352 H361 0.929 . S
C353 N350 1.346 . S
C353 C352 1.369 . S
C353 H356 0.928 . S
C354 N350 1.345 . S
C354 C355 1.371 . S
C354 H357 0.931 . S
C355 C351 1.391 . S
C355 C354 1.371 . S
C355 H362 0.930 . S
H356 C353 0.928 . S
H357 C354 0.931 . S
H358 C334 0.930 . S
H359 C331 0.930 . S
H360 C340 0.930 . S
H361 C352 0.929 . S
H362 C355 0.930 . S
C363 C364 1.351 . S
C363 N366 1.368 . S
C363 H368 0.931 . S
C364 C363 1.351 . S
C364 N365 1.373 . S
C364 H392 0.930 . S
N365 C364 1.373 . S
N365 C367 1.340 . S
N366 C363 1.368 . S
N366 C367 1.321 . S
N366 Co369 2.135 . S
C367 N365 1.340 . S
C367 N366 1.321 . S
C367 H391 0.930 . S
H368 C363 0.931 . S
Co369 N366 2.135 . S
Co369 N372 2.121 . S
Co369 O377 2.055 . S
Co369 O380 2.039 . S
Co369 N383 2.140 . S
C370 O371 1.227 . S
C370 O380 1.265 . S
O371 C370 1.227 . S
N372 Co369 2.121 . S
N372 C374 1.375 . S
N372 C375 1.313 . S
C373 C374 1.338 . S
C373 N376 1.377 . S
C373 H393 0.930 . S
C374 N372 1.375 . S
C374 C373 1.338 . S
C374 H378 0.931 . S
C375 N372 1.313 . S
C375 N376 1.344 . S
C375 H379 0.930 . S
N376 C373 1.377 . S
N376 C375 1.344 . S
O377 Co369 2.055 . S
O377 C381 1.253 . S
H378 C374 0.931 . S
H379 C375 0.930 . S
O380 Co369 2.039 . S
O380 C370 1.265 . S
C381 O377 1.253 . S
C381 O382 1.227 . S
O382 C381 1.227 . S
N383 Co369 2.140 . S
N383 C386 1.346 . S
N383 C387 1.345 . S
C384 C385 1.387 . S
C384 C388 1.391 . S
C385 C384 1.387 . S
C385 C386 1.369 . S
C385 H394 0.929 . S
C386 N383 1.346 . S
C386 C385 1.369 . S
C386 H389 0.928 . S
C387 N383 1.345 . S
C387 C388 1.371 . S
C387 H390 0.931 . S
C388 C384 1.391 . S
C388 C387 1.371 . S
C388 H395 0.930 . S
H389 C386 0.928 . S
H390 C387 0.931 . S
H391 C367 0.930 . S
H392 C364 0.930 . S
H393 C373 0.930 . S
H394 C385 0.929 . S
H395 C388 0.930 . S
C396 C397 1.369 . S
C396 C398 1.419 . S
C396 H400 0.930 . S
C397 C396 1.369 . S
C397 C406 1.429 . S
C398 C396 1.419 . S
C398 C399 1.363 . S
C398 H401 0.929 . S
C399 C398 1.363 . S
C399 C405 1.428 . S
H400 C396 0.930 . S
H401 C398 0.929 . S
S402 N403 1.613 . S
S402 N404 1.610 . S
N403 S402 1.613 . S
N403 C406 1.350 . S
N404 S402 1.610 . S
N404 C405 1.351 . S
C405 C399 1.428 . S
C405 N404 1.351 . S
C405 C406 1.434 . S
C406 C397 1.429 . S
C406 N403 1.350 . S
C406 C405 1.434 . S
C407 C408 1.369 . S
C407 C409 1.419 1_655 S
C407 H411 0.930 . S
C408 C407 1.369 . S
C408 C417 1.429 . S
C409 C407 1.419 1_455 S
C409 C410 1.363 . S
C409 H412 0.929 . S
C410 C409 1.363 . S
C410 C416 1.428 . S
H411 C407 0.930 . S
H412 C409 0.929 . S
S413 N414 1.613 . S
S413 N415 1.610 1_655 S
N414 S413 1.613 . S
N414 C417 1.350 . S
N415 S413 1.610 1_455 S
N415 C416 1.351 . S
C416 C410 1.428 . S
C416 N415 1.351 . S
C416 C417 1.434 1_455 S
C417 C408 1.429 . S
C417 N414 1.350 . S
C417 C416 1.434 1_655 S
C418 C419 1.369 . S
C418 C420 1.419 1_545 S
C418 H422 0.930 . S
C419 C418 1.369 . S
C419 C428 1.429 . S
C420 C418 1.419 1_565 S
C420 C421 1.363 . S
C420 H423 0.929 . S
C421 C420 1.363 . S
C421 C427 1.428 . S
H422 C418 0.930 . S
H423 C420 0.929 . S
S424 N425 1.613 . S
S424 N426 1.610 1_545 S
N425 S424 1.613 . S
N425 C428 1.350 . S
N426 S424 1.610 1_565 S
N426 C427 1.351 . S
C427 C421 1.428 . S
C427 N426 1.351 . S
C427 C428 1.434 1_565 S
C428 C419 1.429 . S
C428 N425 1.350 . S
C428 C427 1.434 1_545 S
C429 C430 1.369 . S
C429 C431 1.419 . S
C429 H433 0.930 . S
C430 C429 1.369 . S
C430 C439 1.429 . S
C431 C429 1.419 . S
C431 C432 1.363 . S
C431 H434 0.929 . S
C432 C431 1.363 . S
C432 C438 1.428 . S
H433 C429 0.930 . S
H434 C431 0.929 . S
S435 N436 1.613 . S
S435 N437 1.610 . S
N436 S435 1.613 . S
N436 C439 1.350 . S
N437 S435 1.610 . S
N437 C438 1.351 . S
C438 C432 1.428 . S
C438 N437 1.351 . S
C438 C439 1.434 . S
C439 C430 1.429 . S
C439 N436 1.350 . S
C439 C438 1.434 . S
C440 C441 1.369 . S
C440 C442 1.419 1_455 S
C440 H444 0.930 . S
C441 C440 1.369 . S
C441 C450 1.429 . S
C442 C440 1.419 1_655 S
C442 C443 1.363 . S
C442 H445 0.929 . S
C443 C442 1.363 . S
C443 C449 1.428 . S
H444 C440 0.930 . S
H445 C442 0.929 . S
S446 N447 1.613 1_655 S
S446 N448 1.610 . S
N447 S446 1.613 1_455 S
N447 C450 1.350 . S
N448 S446 1.610 . S
N448 C449 1.351 . S
C449 C443 1.428 . S
C449 N448 1.351 . S
C449 C450 1.434 1_655 S
C450 C441 1.429 . S
C450 N447 1.350 . S
C450 C449 1.434 1_455 S
C451 C452 1.369 . S
C451 C453 1.419 1_565 S
C451 H455 0.930 . S
C452 C451 1.369 . S
C452 C461 1.429 . S
C453 C451 1.419 1_545 S
C453 C454 1.363 . S
C453 H456 0.929 . S
C454 C453 1.363 . S
C454 C460 1.428 . S
H455 C451 0.930 . S
H456 C453 0.929 . S
S457 N458 1.613 . S
S457 N459 1.610 1_565 S
N458 S457 1.613 . S
N458 C461 1.350 . S
N459 S457 1.610 1_545 S
N459 C460 1.351 . S
C460 C454 1.428 . S
C460 N459 1.351 . S
C460 C461 1.434 1_545 S
C461 C452 1.429 . S
C461 N458 1.350 . S
C461 C460 1.434 1_565 S
C462 C463 1.369 . S
C462 C464 1.419 1_556 S
C462 H466 0.930 . S
C463 C462 1.369 . S
C463 C472 1.429 . S
C464 C462 1.419 1_554 S
C464 C465 1.363 . S
C464 H467 0.929 . S
C465 C464 1.363 . S
C465 C471 1.428 . S
H466 C462 0.930 . S
H467 C464 0.929 . S
S468 N469 1.613 . S
S468 N470 1.610 1_556 S
N469 S468 1.613 . S
N469 C472 1.350 . S
N470 S468 1.610 1_554 S
N470 C471 1.351 . S
C471 C465 1.428 . S
C471 N470 1.351 . S
C471 C472 1.434 1_554 S
C472 C463 1.429 . S
C472 N469 1.350 . S
C472 C471 1.434 1_556 S
C473 C474 1.369 . S
C473 C475 1.419 . S
C473 H477 0.930 . S
C474 C473 1.369 . S
C474 C483 1.429 . S
C475 C473 1.419 . S
C475 C476 1.363 . S
C475 H478 0.929 . S
C476 C475 1.363 . S
C476 C482 1.428 . S
H477 C473 0.930 . S
H478 C475 0.929 . S
S479 N480 1.613 . S
S479 N481 1.610 . S
N480 S479 1.613 . S
N480 C483 1.350 . S
N481 S479 1.610 . S
N481 C482 1.351 . S
C482 C476 1.428 . S
C482 N481 1.351 . S
C482 C483 1.434 . S
C483 C474 1.429 . S
C483 N480 1.350 . S
C483 C482 1.434 . S
C484 C485 1.369 . S
C484 C486 1.419 1_554 S
C484 H488 0.930 . S
C485 C484 1.369 . S
C485 C494 1.429 . S
C486 C484 1.419 1_556 S
C486 C487 1.363 . S
C486 H489 0.929 . S
C487 C486 1.363 . S
C487 C493 1.428 . S
H488 C484 0.930 . S
H489 C486 0.929 . S
S490 N491 1.625 . S
S490 N492 1.599 1_554 S
N491 S490 1.625 . S
N491 C494 1.350 . S
N492 S490 1.599 1_556 S
N492 C493 1.351 . S
C493 C487 1.428 . S
C493 N492 1.351 . S
C493 C494 1.434 1_556 S
C494 C485 1.429 . S
C494 N491 1.350 . S
C494 C493 1.434 1_554 S
C495 C496 1.369 . S
C495 C497 1.419 . S
C495 H499 0.930 . S
C496 C495 1.369 . S
C496 C505 1.429 . S
C497 C495 1.419 . S
C497 C498 1.363 . S
C497 H500 0.929 . S
C498 C497 1.363 . S
C498 C504 1.428 . S
H499 C495 0.930 . S
H500 C497 0.929 . S
S501 N502 1.613 . S
S501 N503 1.610 . S
N502 S501 1.613 . S
N502 C505 1.350 . S
N503 S501 1.610 . S
N503 C504 1.351 . S
C504 C498 1.428 . S
C504 N503 1.351 . S
C504 C505 1.434 . S
C505 C496 1.429 . S
C505 N502 1.350 . S
C505 C504 1.434 . S
C506 C507 1.369 . S
C506 C508 1.419 1_556 S
C506 H510 0.930 . S
C507 C506 1.369 . S
C507 C516 1.429 . S
C508 C506 1.419 1_554 S
C508 C509 1.363 . S
C508 H511 0.929 . S
C509 C508 1.363 . S
C509 C515 1.428 . S
H510 C506 0.930 . S
H511 C508 0.929 . S
S512 N513 1.613 1_554 S
S512 N514 1.610 . S
N513 S512 1.613 1_556 S
N513 C516 1.350 . S
N514 S512 1.610 . S
N514 C515 1.351 . S
C515 C509 1.428 . S
C515 N514 1.351 . S
C515 C516 1.434 1_554 S
C516 C507 1.429 . S
C516 N513 1.350 . S
C516 C515 1.434 1_556 S
C517 C518 1.369 . S
C517 C519 1.419 . S
C517 H521 0.930 . S
C518 C517 1.369 . S
C518 C527 1.429 . S
C519 C517 1.419 . S
C519 C520 1.363 . S
C519 H522 0.929 . S
C520 C519 1.363 . S
C520 C526 1.428 . S
H521 C517 0.930 . S
H522 C519 0.929 . S
S523 N524 1.613 . S
S523 N525 1.610 . S
N524 S523 1.613 . S
N524 C527 1.350 . S
N525 S523 1.610 . S
N525 C526 1.351 . S
C526 C520 1.428 . S
C526 N525 1.351 . S
C526 C527 1.434 . S
C527 C518 1.429 . S
C527 N524 1.350 . S
C527 C526 1.434 . S
C528 C529 1.369 . S
C528 C530 1.419 1_554 S
C528 H532 0.930 . S
C529 C528 1.369 . S
C529 C538 1.429 . S
C530 C528 1.419 1_556 S
C530 C531 1.363 . S
C530 H533 0.929 . S
C531 C530 1.363 . S
C531 C537 1.428 . S
H532 C528 0.930 . S
H533 C530 0.929 . S
S534 N535 1.613 . S
S534 N536 1.610 1_554 S
N535 S534 1.613 . S
N535 C538 1.350 . S
N536 S534 1.610 1_556 S
N536 C537 1.351 . S
C537 C531 1.428 . S
C537 N536 1.351 . S
C537 C538 1.434 1_556 S
C538 C529 1.429 . S
C538 N535 1.350 . S
C538 C537 1.434 1_554 S
C539 C540 1.369 . S
C539 C541 1.419 . S
C539 H543 0.930 . S
C540 C539 1.369 . S
C540 C549 1.429 . S
C541 C539 1.419 . S
C541 C542 1.363 . S
C541 H544 0.929 . S
C542 C541 1.363 . S
C542 C548 1.428 . S
H543 C539 0.930 . S
H544 C541 0.929 . S
S545 N546 1.613 . S
S545 N547 1.610 . S
N546 S545 1.613 . S
N546 C549 1.350 . S
N547 S545 1.610 . S
N547 C548 1.351 . S
C548 C542 1.428 . S
C548 N547 1.351 . S
C548 C549 1.434 . S
C549 C540 1.429 . S
C549 N546 1.350 . S
C549 C548 1.434 . S
C550 C551 1.369 . S
C550 C552 1.419 1_556 S
C550 H554 0.930 . S
C551 C550 1.369 . S
C551 C560 1.429 . S
C552 C550 1.419 1_554 S
C552 C553 1.363 . S
C552 H555 0.929 . S
C553 C552 1.363 . S
C553 C559 1.428 . S
H554 C550 0.930 . S
H555 C552 0.929 . S
S556 N557 1.613 . S
S556 N558 1.610 1_556 S
N557 S556 1.613 . S
N557 C560 1.350 . S
N558 S556 1.610 1_554 S
N558 C559 1.351 . S
C559 C553 1.428 . S
C559 N558 1.351 . S
C559 C560 1.434 1_554 S
C560 C551 1.429 . S
C560 N557 1.350 . S
C560 C559 1.434 1_556 S
C561 C562 1.369 . S
C561 C563 1.419 . S
C561 H565 0.930 . S
C562 C561 1.369 . S
C562 C571 1.429 . S
C563 C561 1.419 . S
C563 C564 1.363 . S
C563 H566 0.929 . S
C564 C563 1.363 . S
C564 C570 1.428 . S
H565 C561 0.930 . S
H566 C563 0.929 . S
S567 N568 1.613 . S
S567 N569 1.610 . S
N568 S567 1.613 . S
N568 C571 1.350 . S
N569 S567 1.610 . S
N569 C570 1.351 . S
C570 C564 1.428 . S
C570 N569 1.351 . S
C570 C571 1.434 . S
C571 C562 1.429 . S
C571 N568 1.350 . S
C571 C570 1.434 . S
C572 C573 1.369 . S
C572 C574 1.419 1_556 S
C572 H576 0.930 . S
C573 C572 1.369 . S
C573 C582 1.429 . S
C574 C572 1.419 1_554 S
C574 C575 1.363 . S
C574 H577 0.929 . S
C575 C574 1.363 . S
C575 C581 1.428 . S
H576 C572 0.930 . S
H577 C574 0.929 . S
S578 N579 1.613 . S
S578 N580 1.610 1_556 S
N579 S578 1.613 . S
N579 C582 1.350 . S
N580 S578 1.610 1_554 S
N580 C581 1.351 . S
C581 C575 1.428 . S
C581 N580 1.351 . S
C581 C582 1.434 1_554 S
C582 C573 1.429 . S
C582 N579 1.350 . S
C582 C581 1.434 1_556 S
C583 C584 1.369 . S
C583 C585 1.419 . S
C583 H587 0.930 . S
C584 C583 1.369 . S
C584 C593 1.429 . S
C585 C583 1.419 . S
C585 C586 1.363 . S
C585 H588 0.929 . S
C586 C585 1.363 . S
C586 C592 1.428 . S
H587 C583 0.930 . S
H588 C585 0.929 . S
S589 N590 1.613 . S
S589 N591 1.610 . S
N590 S589 1.613 . S
N590 C593 1.350 . S
N591 S589 1.610 . S
N591 C592 1.351 . S
C592 C586 1.428 . S
C592 N591 1.351 . S
C592 C593 1.434 . S
C593 C584 1.429 . S
C593 N590 1.350 . S
C593 C592 1.434 . S
C594 C595 1.369 . S
C594 C596 1.419 . S
C594 H598 0.930 . S
C595 C594 1.369 . S
C595 C604 1.429 . S
C596 C594 1.419 . S
C596 C597 1.363 . S
C596 H599 0.929 . S
C597 C596 1.363 . S
C597 C603 1.428 . S
H598 C594 0.930 . S
H599 C596 0.929 . S
S600 N601 1.613 . S
S600 N602 1.610 . S
N601 S600 1.613 . S
N601 C604 1.350 . S
N602 S600 1.610 . S
N602 C603 1.351 . S
C603 C597 1.428 . S
C603 N602 1.351 . S
C603 C604 1.434 . S
C604 C595 1.429 . S
C604 N601 1.350 . S
C604 C603 1.434 . S
C605 C606 1.369 . S
C605 C607 1.419 . S
C605 H609 0.930 . S
C606 C605 1.369 . S
C606 C615 1.429 . S
C607 C605 1.419 . S
C607 C608 1.363 . S
C607 H610 0.929 . S
C608 C607 1.363 . S
C608 C614 1.428 . S
H609 C605 0.930 . S
H610 C607 0.929 . S
S611 N612 1.613 . S
S611 N613 1.610 . S
N612 S611 1.613 . S
N612 C615 1.350 . S
N613 S611 1.610 . S
N613 C614 1.351 . S
C614 C608 1.428 . S
C614 N613 1.351 . S
C614 C615 1.434 . S
C615 C606 1.429 . S
C615 N612 1.350 . S
C615 C614 1.434 . S
C616 C617 1.369 . S
C616 C618 1.419 . S
C616 H620 0.930 . S
C617 C616 1.369 . S
C617 C626 1.429 . S
C618 C616 1.419 . S
C618 C619 1.363 . S
C618 H621 0.929 . S
C619 C618 1.363 . S
C619 C625 1.428 . S
H620 C616 0.930 . S
H621 C618 0.929 . S
S622 N623 1.613 . S
S622 N624 1.610 . S
N623 S622 1.613 . S
N623 C626 1.350 . S
N624 S622 1.610 . S
N624 C625 1.351 . S
C625 C619 1.428 . S
C625 N624 1.351 . S
C625 C626 1.434 . S
C626 C617 1.429 . S
C626 N623 1.350 . S
C626 C625 1.434 . S
C627 C628 1.369 . S
C627 C629 1.419 . S
C627 H631 0.930 . S
C628 C627 1.369 . S
C628 C637 1.429 . S
C629 C627 1.419 . S
C629 C630 1.363 . S
C629 H632 0.929 . S
C630 C629 1.363 . S
C630 C636 1.428 . S
H631 C627 0.930 . S
H632 C629 0.929 . S
S633 N634 1.613 . S
S633 N635 1.610 . S
N634 S633 1.613 . S
N634 C637 1.350 . S
N635 S633 1.610 . S
N635 C636 1.351 . S
C636 C630 1.428 . S
C636 N635 1.351 . S
C636 C637 1.434 . S
C637 C628 1.429 . S
C637 N634 1.350 . S
C637 C636 1.434 . S
C638 C639 1.369 . S
C638 C640 1.419 . S
C638 H642 0.930 . S
C639 C638 1.369 . S
C639 C648 1.429 . S
C640 C638 1.419 . S
C640 C641 1.363 . S
C640 H643 0.929 . S
C641 C640 1.363 . S
C641 C647 1.428 . S
H642 C638 0.930 . S
H643 C640 0.929 . S
S644 N645 1.613 . S
S644 N646 1.610 . S
N645 S644 1.613 . S
N645 C648 1.350 . S
N646 S644 1.610 . S
N646 C647 1.351 . S
C647 C641 1.428 . S
C647 N646 1.351 . S
C647 C648 1.434 . S
C648 C639 1.429 . S
C648 N645 1.350 . S
C648 C647 1.434 . S
C649 C650 1.369 . S
C649 C651 1.419 . S
C649 H653 0.930 . S
C650 C649 1.369 . S
C650 C659 1.429 . S
C651 C649 1.419 . S
C651 C652 1.363 . S
C651 H654 0.929 . S
C652 C651 1.363 . S
C652 C658 1.428 . S
H653 C649 0.930 . S
H654 C651 0.929 . S
S655 N656 1.613 . S
S655 N657 1.610 . S
N656 S655 1.613 . S
N656 C659 1.350 . S
N657 S655 1.610 . S
N657 C658 1.351 . S
C658 C652 1.428 . S
C658 N657 1.351 . S
C658 C659 1.434 . S
C659 C650 1.429 . S
C659 N656 1.350 . S
C659 C658 1.434 . S
C660 C661 1.369 . S
C660 C662 1.419 . S
C660 H664 0.930 . S
C661 C660 1.369 . S
C661 C670 1.429 . S
C662 C660 1.419 . S
C662 C663 1.363 . S
C662 H665 0.929 . S
C663 C662 1.363 . S
C663 C669 1.428 . S
H664 C660 0.930 . S
H665 C662 0.929 . S
S666 N667 1.613 . S
S666 N668 1.610 . S
N667 S666 1.613 . S
N667 C670 1.350 . S
N668 S666 1.610 . S
N668 C669 1.351 . S
C669 C663 1.428 . S
C669 N668 1.351 . S
C669 C670 1.434 . S
C670 C661 1.429 . S
C670 N667 1.350 . S
C670 C669 1.434 . S
C671 C672 1.369 . S
C671 C673 1.419 . S
C671 H675 0.930 . S
C672 C671 1.369 . S
C672 C681 1.429 . S
C673 C671 1.419 . S
C673 C674 1.363 . S
C673 H676 0.929 . S
C674 C673 1.363 . S
C674 C680 1.428 . S
H675 C671 0.930 . S
H676 C673 0.929 . S
S677 N678 1.613 . S
S677 N679 1.610 . S
N678 S677 1.613 . S
N678 C681 1.350 . S
N679 S677 1.610 . S
N679 C680 1.351 . S
C680 C674 1.428 . S
C680 N679 1.351 . S
C680 C681 1.434 . S
C681 C672 1.429 . S
C681 N678 1.350 . S
C681 C680 1.434 . S
C682 C683 1.369 . S
C682 C684 1.419 . S
C682 H686 0.930 . S
C683 C682 1.369 . S
C683 C692 1.429 . S
C684 C682 1.419 . S
C684 C685 1.363 . S
C684 H687 0.929 . S
C685 C684 1.363 . S
C685 C691 1.428 . S
H686 C682 0.930 . S
H687 C684 0.929 . S
S688 N689 1.613 . S
S688 N690 1.610 . S
N689 S688 1.613 . S
N689 C692 1.350 . S
N690 S688 1.610 . S
N690 C691 1.351 . S
C691 C685 1.428 . S
C691 N690 1.351 . S
C691 C692 1.434 . S
C692 C683 1.429 . S
C692 N689 1.350 . S
C692 C691 1.434 . S
C693 C694 1.369 . S
C693 C695 1.419 . S
C693 H697 0.930 . S
C694 C693 1.369 . S
C694 C703 1.429 . S
C695 C693 1.419 . S
C695 C696 1.363 . S
C695 H698 0.929 . S
C696 C695 1.363 . S
C696 C702 1.428 . S
H697 C693 0.930 . S
H698 C695 0.929 . S
S699 N700 1.613 . S
S699 N701 1.610 . S
N700 S699 1.613 . S
N700 C703 1.350 . S
N701 S699 1.610 . S
N701 C702 1.351 . S
C702 C696 1.428 . S
C702 N701 1.351 . S
C702 C703 1.434 . S
C703 C694 1.429 . S
C703 N700 1.350 . S
C703 C702 1.434 . S
C704 C705 1.369 . S
C704 C706 1.419 . S
C704 H708 0.930 . S
C705 C704 1.369 . S
C705 C714 1.429 . S
C706 C704 1.419 . S
C706 C707 1.363 . S
C706 H709 0.929 . S
C707 C706 1.363 . S
C707 C713 1.428 . S
H708 C704 0.930 . S
H709 C706 0.929 . S
S710 N711 1.613 . S
S710 N712 1.610 . S
N711 S710 1.613 . S
N711 C714 1.350 . S
N712 S710 1.610 . S
N712 C713 1.351 . S
C713 C707 1.428 . S
C713 N712 1.351 . S
C713 C714 1.434 . S
C714 C705 1.429 . S
C714 N711 1.350 . S
C714 C713 1.434 . S
C715 C716 1.369 . S
C715 C717 1.419 . S
C715 H719 0.930 . S
C716 C715 1.369 . S
C716 C725 1.429 . S
C717 C715 1.419 . S
C717 C718 1.363 . S
C717 H720 0.929 . S
C718 C717 1.363 . S
C718 C724 1.428 . S
H719 C715 0.930 . S
H720 C717 0.929 . S
S721 N722 1.613 . S
S721 N723 1.610 . S
N722 S721 1.613 . S
N722 C725 1.350 . S
N723 S721 1.610 . S
N723 C724 1.351 . S
C724 C718 1.428 . S
C724 N723 1.351 . S
C724 C725 1.434 . S
C725 C716 1.429 . S
C725 N722 1.350 . S
C725 C724 1.434 . S
C397 N310 1.682 . S
C399 N13 1.682 . S
C408 N46 1.682 . S
C410 N343 1.682 . S
C419 N376 1.679 . S
C421 N79 1.686 . S
C430 N112 1.681 . S
C432 N211 1.682 . S
C441 N145 1.687 . S
C443 N244 1.680 . S
C452 N277 1.680 . S
C454 N178 1.683 . S
C463 C348 1.782 . S
C465 C18 1.780 . S
C474 C381 1.776 . S
C476 C51 1.777 . S
C485 C84 1.781 . S
C487 C216 1.781 . S
C496 C249 1.776 . S
C498 C117 1.777 . S
C507 C282 1.778 . S
C509 C150 1.781 . S
C518 C183 1.782 . S
C520 C315 1.781 . S
C529 C238 1.064 . S
C531 C106 1.062 . S
C540 C271 1.050 . S
C542 C139 1.057 . S
C551 C172 1.057 . S
C553 C304 1.063 . S
C562 C7 1.051 . S
C564 C337 1.053 . S
C573 C40 1.050 . S
C575 C370 1.057 . S
C584 C205 1.051 . S
C586 C73 1.059 . S
C595 N2 1.368 . S
C597 C153 1.448 . S
C606 N35 1.360 . S
C608 C186 1.448 . S
C617 N68 1.362 . S
C619 C21 1.447 . S
C628 C54 1.448 . S
C630 N101 1.366 . S
C639 N134 1.360 . S
C641 C87 1.448 . S
C650 C120 1.448 . S
C652 N167 1.359 . S
C661 C285 1.447 . S
C663 N200 1.360 . S
C672 C318 1.448 . S
C674 N233 1.361 . S
C683 C351 1.448 . S
C685 N266 1.359 . S
C694 N299 1.367 . S
C696 C384 1.448 . S
C705 C219 1.448 . S
C707 N332 1.357 . S
C716 N365 1.367 . S
C718 C252 1.448 . S
