# Generated by pormake.
# Topology mdf, (4)-cn, num edge types: 1
# Building blocks:
#     Node 0, Type 0, BuildingBlock: QUQFOY_clean_sbu_1, # of connection points: 4
#     Node 1, Type 0, BuildingBlock: QUQFOY_clean_sbu_1, # of connection points: 4
#     Node 2, Type 0, BuildingBlock: QUQFOY_clean_sbu_1, # of connection points: 4
#     Node 3, Type 0, BuildingBlock: QUQFOY_clean_sbu_1, # of connection points: 4
#     Node 4, Type 0, BuildingBlock: QUQFOY_clean_sbu_1, # of connection points: 4
#     Node 5, Type 0, BuildingBlock: QUQFOY_clean_sbu_1, # of connection points: 4
#     Node 6, Type 0, BuildingBlock: QUQFOY_clean_sbu_1, # of connection points: 4
#     Node 7, Type 0, BuildingBlock: QUQFOY_clean_sbu_1, # of connection points: 4
#     Edge 8, Type (0, 0), BuildingBlock: AJUNOK_clean_linker_0, # of connection points: 2
#     Edge 9, Type (0, 0), BuildingBlock: AJUNOK_clean_linker_0, # of connection points: 2
#     Edge 10, Type (0, 0), BuildingBlock: AJUNOK_clean_linker_0, # of connection points: 2
#     Edge 11, Type (0, 0), BuildingBlock: AJUNOK_clean_linker_0, # of connection points: 2
#     Edge 12, Type (0, 0), BuildingBlock: AJUNOK_clean_linker_0, # of connection points: 2
#     Edge 13, Type (0, 0), BuildingBlock: AJUNOK_clean_linker_0, # of connection points: 2
#     Edge 14, Type (0, 0), BuildingBlock: AJUNOK_clean_linker_0, # of connection points: 2
#     Edge 15, Type (0, 0), BuildingBlock: AJUNOK_clean_linker_0, # of connection points: 2
#     Edge 16, Type (0, 0), BuildingBlock: AJUNOK_clean_linker_0, # of connection points: 2
#     Edge 17, Type (0, 0), BuildingBlock: AJUNOK_clean_linker_0, # of connection points: 2
#     Edge 18, Type (0, 0), BuildingBlock: AJUNOK_clean_linker_0, # of connection points: 2
#     Edge 19, Type (0, 0), BuildingBlock: AJUNOK_clean_linker_0, # of connection points: 2
#     Edge 20, Type (0, 0), BuildingBlock: AJUNOK_clean_linker_0, # of connection points: 2
#     Edge 21, Type (0, 0), BuildingBlock: AJUNOK_clean_linker_0, # of connection points: 2
#     Edge 22, Type (0, 0), BuildingBlock: AJUNOK_clean_linker_0, # of connection points: 2
#     Edge 23, Type (0, 0), BuildingBlock: AJUNOK_clean_linker_0, # of connection points: 2
# Relax obj value: 0.010
# Max RMSD: 0.060
# Mean RMSD: 0.060
data_MOF--net-mdf--node1-QUQFOY_clean_sbu_1--edge1-AJUNOK_clean_linker_0
_symmetry_space_group_name_H-M    P1
_symmetry_Int_Tables_number       1
_symmetry_cell_setting            triclinic
loop_
_symmetry_equiv_pos_as_xyz
'x, y, z'
_cell_length_a     28.890537
_cell_length_b     28.765997
_cell_length_c     9.4009156
_cell_angle_alpha  89.988082
_cell_angle_beta   90.033486
_cell_angle_gamma 89.997595
loop_
_atom_site_label
_atom_site_type_symbol
_atom_site_fract_x
_atom_site_fract_y
_atom_site_fract_z
_atom_type_partial_charge
O0 O 0.33555 0.49477 0.31364 0.0
Cd1 Cd 0.28522 0.53939 0.23923 0.0
Cd2 Cd 0.26117 0.53987 0.51083 0.0
O3 O 0.32667 0.51207 0.54016 0.0
O4 O 0.30883 0.56759 0.05819 0.0
O5 O 0.30035 0.60682 0.25915 0.0
C6 C 0.31447 0.60564 0.129 0.0
C7 C 0.23195 0.60649 0.61905 0.0
C8 C 0.34906 0.49147 0.44204 0.0
C9 C 0.19724 0.49135 0.30975 0.0
O10 O 0.21077 0.49506 0.43799 0.0
O11 O 0.21966 0.51158 0.21093 0.0
O12 O 0.23757 0.56865 0.69098 0.0
O13 O 0.24609 0.60726 0.48888 0.0
O14 O 0.55303 0.71063 0.67781 0.0
Cd15 Cd 0.50891 0.76193 0.74898 0.0
Cd16 Cd 0.51126 0.7862 0.47975 0.0
O17 O 0.5383 0.72022 0.45006 0.0
O18 O 0.48399 0.73883 0.93446 0.0
O19 O 0.44101 0.74663 0.74147 0.0
C20 C 0.44458 0.73326 0.87211 0.0
C21 C 0.44455 0.81592 0.37623 0.0
C22 C 0.55742 0.69719 0.54974 0.0
C23 C 0.55869 0.84995 0.68106 0.0
O24 O 0.55609 0.83632 0.55273 0.0
O25 O 0.53748 0.82757 0.77815 0.0
O26 O 0.48185 0.81062 0.30229 0.0
O27 O 0.44443 0.8013 0.50614 0.0
O28 O 0.33331 0.05372 0.94103 0.0
Cd29 Cd 0.2831 1.00859 0.01063 0.0
Cd30 Cd 0.26075 1.00903 0.7428 0.0
O31 O 0.32645 0.03685 0.71387 0.0
O32 O 0.30721 0.983 0.19324 0.0
O33 O 0.29961 0.9409 0.99763 0.0
C34 C 0.31347 0.94403 0.12799 0.0
C35 C 0.23048 0.94503 0.62246 0.0
C36 C 0.34808 0.05715 0.81428 0.0
C37 C 0.19573 0.05685 0.94091 0.0
O38 O 0.21046 0.05381 0.81404 0.0
O39 O 0.21742 0.03631 0.04075 0.0
O40 O 0.23675 0.98431 0.55896 0.0
O41 O 0.24428 0.94129 0.75272 0.0
O42 O 0.99277 0.7111 0.06453 0.0
Cd43 Cd 0.03669 0.76267 0.994 0.0
Cd44 Cd 0.03457 0.78637 0.2635 0.0
O45 O 1.00813 0.72008 0.29209 0.0
O46 O 0.06209 0.73988 0.80882 0.0
O47 O 0.10462 0.74767 1.0028 0.0
C48 C 0.10137 0.73437 0.87202 0.0
C49 C 0.10079 0.81657 0.36856 0.0
C50 C 0.98883 0.69726 0.19237 0.0
C51 C 0.98661 0.85026 0.06368 0.0
O52 O 0.9893 0.83627 0.19164 0.0
O53 O 1.00793 0.82829 0.966 0.0
O54 O 0.06346 0.81063 0.4419 0.0
O55 O 0.10126 0.8023 0.23833 0.0
O56 O 0.83328 0.99496 0.81011 0.0
Cd57 Cd 0.78327 0.04047 0.74161 0.0
Cd58 Cd 0.76123 0.04 0.00858 0.0
O59 O 0.82715 1.0124 0.03704 0.0
O60 O 0.80728 0.06672 0.55966 0.0
O61 O 0.80022 0.10804 0.75694 0.0
C62 C 0.8139 0.10538 0.62639 0.0
C63 C 0.73031 0.10435 0.12591 0.0
C64 C 0.84835 0.99166 0.93661 0.0
C65 C 0.69637 0.99149 0.8122 0.0
O66 O 0.71142 0.99448 0.93876 0.0
O67 O 0.71748 1.01263 0.71231 0.0
O68 O 0.73712 0.0655 0.1914 0.0
O69 O 0.74397 0.10753 0.99544 0.0
O70 O 0.0546 0.21163 0.19723 0.0
Cd71 Cd 1.01089 0.26295 0.2704 0.0
Cd72 Cd 1.00782 0.28469 0.99527 0.0
O73 O 0.03525 0.21857 0.97152 0.0
O74 O 0.98178 0.24037 0.45149 0.0
O75 O 0.94376 0.24868 0.24851 0.0
C76 C 0.94414 0.23488 0.37912 0.0
C77 C 0.9416 0.31338 0.88419 0.0
C78 C 0.05662 0.1969 0.06983 0.0
C79 C 0.05764 0.35077 0.18827 0.0
O80 O 0.05268 0.33599 0.06176 0.0
O81 O 0.03883 0.329 0.29118 0.0
O82 O 0.97919 0.30683 0.81274 0.0
O83 O 0.94081 0.30028 0.01542 0.0
O84 O 0.83432 0.55326 0.43835 0.0
Cd85 Cd 0.78396 0.50817 0.50668 0.0
Cd86 Cd 0.76285 0.50776 0.23874 0.0
O87 O 0.8288 0.5355 0.21149 0.0
O88 O 0.80749 0.48308 0.69077 0.0
O89 O 0.80095 0.44048 0.49598 0.0
C90 C 0.8143 0.44399 0.62672 0.0
C91 C 0.73249 0.44297 0.12206 0.0
C92 C 0.84981 0.55625 0.31235 0.0
C93 C 0.69703 0.55653 0.43121 0.0
O94 O 0.71256 0.55319 0.30536 0.0
O95 O 0.71797 0.53598 0.53266 0.0
O96 O 0.73921 0.48175 0.05607 0.0
O97 O 0.74591 0.44013 0.2529 0.0
O98 O 0.49019 0.21143 0.55992 0.0
Cd99 Cd 0.5343 0.26238 0.48658 0.0
Cd100 Cd 0.53713 0.28438 0.76161 0.0
O101 O 0.50913 0.21853 0.78592 0.0
O102 O 0.56297 0.23959 0.30509 0.0
O103 O 0.60134 0.24749 0.5076 0.0
C104 C 0.60066 0.23378 0.37695 0.0
C105 C 0.60387 0.31252 0.87104 0.0
C106 C 0.48781 0.19689 0.68749 0.0
C107 C 0.48802 0.35064 0.56749 0.0
O108 O 0.49274 0.33599 0.69428 0.0
O109 O 0.50681 0.32861 0.46511 0.0
O110 O 0.56632 0.30656 0.94325 0.0
O111 O 0.60426 0.29915 0.74008 0.0
C112 C 0.37299 0.68433 0.85978 0.0
C113 C 0.40653 0.70739 0.9428 0.0
C114 C 0.34171 0.65282 0.92131 0.0
C115 C 0.3419 0.64433 0.06859 0.0
H116 H 0.37255 0.68853 0.74526 0.0
H117 H 0.31819 0.63395 0.85255 0.0
S118 S 0.42048 0.69783 0.33436 0.0
N119 N 0.43662 0.72065 0.18105 0.0
N120 N 0.37672 0.66307 0.29686 0.0
C121 C 0.37333 0.66919 0.15381 0.0
C122 C 0.40594 0.7003 0.0909 0.0
C123 C 0.39652 0.84295 0.17058 0.0
C124 C 0.40498 0.84241 0.3179 0.0
C125 C 0.36416 0.87372 0.11091 0.0
C126 C 0.34006 0.90593 0.19608 0.0
H127 H 0.41611 0.8205 0.10034 0.0
H128 H 0.36011 0.87409 0.99634 0.0
S129 S 0.34814 0.91667 0.58889 0.0
N130 N 0.38456 0.87451 0.54859 0.0
N131 N 0.32517 0.93341 0.4364 0.0
C132 C 0.34683 0.90427 0.34424 0.0
C133 C 0.37892 0.87221 0.40518 0.0
C134 C 0.14866 0.84312 0.5751 0.0
C135 C 0.13992 0.84342 0.42794 0.0
C136 C 0.18066 0.87399 0.63605 0.0
C137 C 0.20407 0.90716 0.55247 0.0
H138 H 0.12959 0.81987 0.64427 0.0
H139 H 0.18501 0.87358 0.75052 0.0
S140 S 0.19464 0.92067 0.16068 0.0
N141 N 0.15911 0.87756 0.19902 0.0
N142 N 0.21776 0.93669 0.31366 0.0
C143 C 0.1969 0.90648 0.40438 0.0
C144 C 0.16521 0.87431 0.34209 0.0
C145 C 0.17307 0.68566 0.88603 0.0
C146 C 0.13963 0.70855 0.80219 0.0
C147 C 0.20448 0.65409 0.82544 0.0
C148 C 0.20452 0.64536 0.6783 0.0
H149 H 0.17332 0.69001 1.0005 0.0
H150 H 0.22789 0.63533 0.89486 0.0
S151 S 0.12638 0.6985 0.41052 0.0
N152 N 0.10994 0.72148 0.56328 0.0
N153 N 0.1701 0.66382 0.44919 0.0
C154 C 0.17323 0.67011 0.59222 0.0
C155 C 0.14049 0.70128 0.65419 0.0
C156 C 0.86528 0.1752 0.64541 0.0
C157 C 0.84054 0.14367 0.55947 0.0
C158 C 0.89741 0.2063 0.58607 0.0
C159 C 0.90493 0.20796 0.43835 0.0
H160 H 0.86187 0.17406 0.76012 0.0
H161 H 0.91756 0.2281 0.65677 0.0
S162 S 0.84646 0.13538 0.16582 0.0
N163 N 0.82433 0.11771 0.3184 0.0
N164 N 0.88312 0.17726 0.20683 0.0
C165 C 0.87832 0.17869 0.35064 0.0
C166 C 0.84653 0.14626 0.4112 0.0
C167 C 0.89463 0.34075 0.67603 0.0
C168 C 0.90313 0.34095 0.82333 0.0
C169 C 0.86328 0.37219 0.61435 0.0
C170 C 0.8404 0.40594 0.69724 0.0
H171 H 0.91337 0.31709 0.60735 0.0
H172 H 0.85899 0.37168 0.49987 0.0
S173 S 0.85027 0.4202 0.08871 0.0
N174 N 0.8847 0.37614 0.05135 0.0
N175 N 0.8275 0.43635 0.93537 0.0
C176 C 0.84758 0.40541 0.84532 0.0
C177 C 0.87851 0.37264 0.90836 0.0
C178 C 0.68265 0.37188 0.13837 0.0
C179 C 0.70624 0.40463 0.05367 0.0
C180 C 0.65096 0.34048 0.07817 0.0
C181 C 0.64278 0.33976 0.93069 0.0
H182 H 0.68661 0.37221 0.25297 0.0
H183 H 0.63167 0.31767 0.14808 0.0
S184 S 0.69788 0.41593 0.66101 0.0
N185 N 0.72045 0.43289 0.81378 0.0
N186 N 0.66254 0.3728 0.70062 0.0
C187 C 0.66822 0.37033 0.84402 0.0
C188 C 0.69953 0.40304 0.90549 0.0
C189 C 0.67942 0.17463 0.10933 0.0
C190 C 0.70365 0.14238 0.1942 0.0
C191 C 0.64744 0.20571 0.16952 0.0
C192 C 0.63959 0.20663 0.31711 0.0
H193 H 0.68315 0.17415 0.99468 0.0
H194 H 0.62773 0.22817 0.09954 0.0
S195 S 0.69642 0.13178 0.58719 0.0
N196 N 0.71882 0.11479 0.4343 0.0
N197 N 0.66036 0.17431 0.54747 0.0
C198 C 0.66561 0.17654 0.4039 0.0
C199 C 0.69722 0.14413 0.34244 0.0
C200 C 0.41054 0.43504 0.36747 0.0
C201 C 0.38866 0.46032 0.4769 0.0
C202 C 0.44404 0.40119 0.39736 0.0
C203 C 0.45719 0.39099 0.53812 0.0
H204 H 0.40073 0.44026 0.25738 0.0
H205 H 0.45846 0.38174 0.30925 0.0
S206 S 0.41494 0.45133 0.86293 0.0
N207 N 0.3859 0.47573 0.7314 0.0
N208 N 0.44884 0.41225 0.78769 0.0
C209 C 0.43754 0.4178 0.64827 0.0
C210 C 0.40336 0.45238 0.61775 0.0
C211 C 0.6474 0.94675 0.63952 0.0
C212 C 0.65681 0.96 0.78061 0.0
C213 C 0.6144 0.91247 0.60844 0.0
C214 C 0.58924 0.88997 0.71704 0.0
H215 H 0.66686 0.96167 0.55226 0.0
H216 H 0.6097 0.90263 0.49816 0.0
S217 S 0.59642 0.91624 0.10336 0.0
N218 N 0.63494 0.95105 0.02946 0.0
N219 N 0.57313 0.88671 0.97097 0.0
C220 C 0.59643 0.90475 0.8581 0.0
C221 C 0.63011 0.93967 0.88985 0.0
C222 C 0.11348 0.13562 0.14413 0.0
C223 C 0.0872 0.15678 0.03546 0.0
C224 C 0.14695 0.10176 0.11348 0.0
C225 C 0.1557 0.08766 0.97279 0.0
H226 H 0.1094 0.14632 0.25387 0.0
H227 H 0.16733 0.08795 0.20053 0.0
S228 S 0.09207 0.12734 0.65089 0.0
N229 N 0.06913 0.1575 0.78246 0.0
N230 N 0.13185 0.09399 0.7249 0.0
C231 C 0.12779 0.10646 0.86386 0.0
C232 C 0.09362 0.14092 0.89513 0.0
C233 C 0.93273 0.63576 0.11433 0.0
C234 C 0.95831 0.65689 0.22462 0.0
C235 C 0.89929 0.60165 0.14278 0.0
C236 C 0.8899 0.58725 0.28279 0.0
H237 H 0.9373 0.6467 0.00498 0.0
H238 H 0.87942 0.58791 0.05456 0.0
S239 S 0.95181 0.6266 0.60825 0.0
N240 N 0.9752 0.65718 0.4783 0.0
N241 N 0.91254 0.59321 0.53187 0.0
C242 C 0.91717 0.60601 0.39335 0.0
C243 C 0.95129 0.64073 0.36432 0.0
C244 C 0.39739 0.10189 0.64269 0.0
C245 C 0.38814 0.08804 0.78334 0.0
C246 C 0.431 0.13565 0.61256 0.0
C247 C 0.45694 0.15697 0.72168 0.0
H248 H 0.37734 0.08792 0.55519 0.0
H249 H 0.43552 0.14611 0.50274 0.0
S250 S 0.45053 0.1284 0.10669 0.0
N251 N 0.41103 0.09491 0.03195 0.0
N252 N 0.47401 0.15825 0.97531 0.0
C253 C 0.44995 0.14143 0.86213 0.0
C254 C 0.41564 0.10707 0.89286 0.0
C255 C 0.8973 0.94638 0.108 0.0
C256 C 0.88804 0.96023 0.96735 0.0
C257 C 0.93043 0.91213 0.13808 0.0
C258 C 0.95586 0.89026 0.0289 0.0
H259 H 0.87764 0.96078 0.19561 0.0
H260 H 0.93502 0.90179 0.248 0.0
S261 S 0.94916 0.91835 0.64367 0.0
N262 N 0.91034 0.95259 0.71849 0.0
N263 N 0.9724 0.88829 0.77511 0.0
C264 C 0.94882 0.90566 0.88837 0.0
C265 C 0.915 0.94056 0.85767 0.0
C266 C 0.10216 0.40131 0.35709 0.0
C267 C 0.08873 0.391 0.21671 0.0
C268 C 0.13581 0.4351 0.38602 0.0
C269 C 0.15756 0.46019 0.27589 0.0
H270 H 0.08783 0.38201 0.44569 0.0
H271 H 0.14583 0.44043 0.49588 0.0
S272 S 0.13059 0.45081 0.89043 0.0
N273 N 0.09671 0.41192 0.96673 0.0
N274 N 0.15994 0.47528 0.02116 0.0
C275 C 0.14261 0.45211 0.13543 0.0
C276 C 0.10828 0.41761 0.10586 0.0
C277 C 0.6133 0.63552 0.62804 0.0
C278 C 0.5882 0.65704 0.51735 0.0
C279 C 0.64689 0.60154 0.59994 0.0
C280 C 0.65692 0.58762 0.45991 0.0
H281 H 0.60821 0.64604 0.73755 0.0
H282 H 0.66632 0.58745 0.6886 0.0
S283 S 0.59662 0.6283 0.13301 0.0
N284 N 0.57259 0.65835 0.26295 0.0
N285 N 0.6355 0.59459 0.21 0.0
C286 C 0.63019 0.60683 0.34875 0.0
C287 C 0.59593 0.64144 0.37746 0.0
loop_
_geom_bond_atom_site_label_1
_geom_bond_atom_site_label_2
_geom_bond_distance
_geom_bond_site_symmetry_2
_ccdc_geom_bond_type
O0 Cd1 2.223 . S
O0 C8 1.315 . S
Cd1 O0 2.223 . S
Cd1 O4 2.297 . S
Cd1 O5 2.439 . S
Cd1 O11 2.240 . S
Cd2 O3 2.240 . S
Cd2 O10 2.223 . S
Cd2 O12 2.297 . S
Cd2 O13 2.439 . S
O3 Cd2 2.240 . S
O3 C8 1.279 . S
O4 Cd1 2.297 . S
O4 C6 1.247 . S
O5 Cd1 2.439 . S
O5 C6 1.208 . S
C6 O4 1.247 . S
C6 O5 1.208 . S
C7 O12 1.247 . S
C7 O13 1.208 . S
C8 O0 1.315 . S
C8 O3 1.279 . S
C9 O10 1.315 . S
C9 O11 1.279 . S
O10 Cd2 2.223 . S
O10 C9 1.315 . S
O11 Cd1 2.240 . S
O11 C9 1.279 . S
O12 Cd2 2.297 . S
O12 C7 1.247 . S
O13 Cd2 2.439 . S
O13 C7 1.208 . S
O14 Cd15 2.223 . S
O14 C22 1.315 . S
Cd15 O14 2.223 . S
Cd15 O18 2.297 . S
Cd15 O19 2.439 . S
Cd15 O25 2.240 . S
Cd16 O17 2.240 . S
Cd16 O24 2.223 . S
Cd16 O26 2.297 . S
Cd16 O27 2.439 . S
O17 Cd16 2.240 . S
O17 C22 1.279 . S
O18 Cd15 2.297 . S
O18 C20 1.247 . S
O19 Cd15 2.439 . S
O19 C20 1.208 . S
C20 O18 1.247 . S
C20 O19 1.208 . S
C21 O26 1.247 . S
C21 O27 1.208 . S
C22 O14 1.315 . S
C22 O17 1.279 . S
C23 O24 1.315 . S
C23 O25 1.279 . S
O24 Cd16 2.223 . S
O24 C23 1.315 . S
O25 Cd15 2.240 . S
O25 C23 1.279 . S
O26 Cd16 2.297 . S
O26 C21 1.247 . S
O27 Cd16 2.439 . S
O27 C21 1.208 . S
O28 Cd29 2.223 1_556 S
O28 C36 1.315 . S
Cd29 O28 2.223 1_554 S
Cd29 O32 2.297 1_545 S
Cd29 O33 2.439 1_545 S
Cd29 O39 2.240 1_554 S
Cd30 O31 2.240 . S
Cd30 O38 2.223 . S
Cd30 O40 2.297 1_545 S
Cd30 O41 2.439 1_545 S
O31 Cd30 2.240 . S
O31 C36 1.279 . S
O32 Cd29 2.297 1_565 S
O32 C34 1.247 . S
O33 Cd29 2.439 1_565 S
O33 C34 1.208 . S
C34 O32 1.247 . S
C34 O33 1.208 . S
C35 O40 1.247 . S
C35 O41 1.208 . S
C36 O28 1.315 . S
C36 O31 1.279 . S
C37 O38 1.315 . S
C37 O39 1.279 . S
O38 Cd30 2.223 . S
O38 C37 1.315 . S
O39 Cd29 2.240 1_556 S
O39 C37 1.279 . S
O40 Cd30 2.297 1_565 S
O40 C35 1.247 . S
O41 Cd30 2.439 1_565 S
O41 C35 1.208 . S
O42 Cd43 2.223 1_554 S
O42 C50 1.315 . S
Cd43 O42 2.223 1_556 S
Cd43 O46 2.297 1_655 S
Cd43 O47 2.439 1_655 S
Cd43 O53 2.240 1_556 S
Cd44 O45 2.240 . S
Cd44 O52 2.223 . S
Cd44 O54 2.297 1_655 S
Cd44 O55 2.439 1_655 S
O45 Cd44 2.240 . S
O45 C50 1.279 . S
O46 Cd43 2.297 1_455 S
O46 C48 1.247 . S
O47 Cd43 2.439 1_455 S
O47 C48 1.208 . S
C48 O46 1.247 . S
C48 O47 1.208 . S
C49 O54 1.247 . S
C49 O55 1.208 . S
C50 O42 1.315 . S
C50 O45 1.279 . S
C51 O52 1.315 . S
C51 O53 1.279 . S
O52 Cd44 2.223 . S
O52 C51 1.315 . S
O53 Cd43 2.240 1_554 S
O53 C51 1.279 . S
O54 Cd44 2.297 1_455 S
O54 C49 1.247 . S
O55 Cd44 2.439 1_455 S
O55 C49 1.208 . S
O56 Cd57 2.223 . S
O56 C64 1.315 . S
Cd57 O56 2.223 . S
Cd57 O60 2.297 1_565 S
Cd57 O61 2.439 1_565 S
Cd57 O67 2.240 . S
Cd58 O59 2.240 1_554 S
Cd58 O66 2.223 1_554 S
Cd58 O68 2.297 1_565 S
Cd58 O69 2.439 1_565 S
O59 Cd58 2.240 1_556 S
O59 C64 1.279 . S
O60 Cd57 2.297 1_545 S
O60 C62 1.247 . S
O61 Cd57 2.439 1_545 S
O61 C62 1.208 . S
C62 O60 1.247 . S
C62 O61 1.208 . S
C63 O68 1.247 . S
C63 O69 1.208 . S
C64 O56 1.315 . S
C64 O59 1.279 . S
C65 O66 1.315 . S
C65 O67 1.279 . S
O66 Cd58 2.223 1_556 S
O66 C65 1.315 . S
O67 Cd57 2.240 . S
O67 C65 1.279 . S
O68 Cd58 2.297 1_545 S
O68 C63 1.247 . S
O69 Cd58 2.439 1_545 S
O69 C63 1.208 . S
O70 Cd71 2.223 . S
O70 C78 1.315 . S
Cd71 O70 2.223 . S
Cd71 O74 2.297 1_455 S
Cd71 O75 2.439 1_455 S
Cd71 O81 2.240 . S
Cd72 O73 2.240 1_556 S
Cd72 O80 2.223 1_556 S
Cd72 O82 2.297 1_455 S
Cd72 O83 2.439 1_455 S
O73 Cd72 2.240 1_554 S
O73 C78 1.279 . S
O74 Cd71 2.297 1_655 S
O74 C76 1.247 . S
O75 Cd71 2.439 1_655 S
O75 C76 1.208 . S
C76 O74 1.247 . S
C76 O75 1.208 . S
C77 O82 1.247 . S
C77 O83 1.208 . S
C78 O70 1.315 . S
C78 O73 1.279 . S
C79 O80 1.315 . S
C79 O81 1.279 . S
O80 Cd72 2.223 1_554 S
O80 C79 1.315 . S
O81 Cd71 2.240 . S
O81 C79 1.279 . S
O82 Cd72 2.297 1_655 S
O82 C77 1.247 . S
O83 Cd72 2.439 1_655 S
O83 C77 1.208 . S
O84 Cd85 2.223 . S
O84 C92 1.315 . S
Cd85 O84 2.223 . S
Cd85 O88 2.297 . S
Cd85 O89 2.439 . S
Cd85 O95 2.240 . S
Cd86 O87 2.240 . S
Cd86 O94 2.223 . S
Cd86 O96 2.297 . S
Cd86 O97 2.439 . S
O87 Cd86 2.240 . S
O87 C92 1.279 . S
O88 Cd85 2.297 . S
O88 C90 1.247 . S
O89 Cd85 2.439 . S
O89 C90 1.208 . S
C90 O88 1.247 . S
C90 O89 1.208 . S
C91 O96 1.247 . S
C91 O97 1.208 . S
C92 O84 1.315 . S
C92 O87 1.279 . S
C93 O94 1.315 . S
C93 O95 1.279 . S
O94 Cd86 2.223 . S
O94 C93 1.315 . S
O95 Cd85 2.240 . S
O95 C93 1.279 . S
O96 Cd86 2.297 . S
O96 C91 1.247 . S
O97 Cd86 2.439 . S
O97 C91 1.208 . S
O98 Cd99 2.223 . S
O98 C106 1.315 . S
Cd99 O98 2.223 . S
Cd99 O102 2.297 . S
Cd99 O103 2.439 . S
Cd99 O109 2.240 . S
Cd100 O101 2.240 . S
Cd100 O108 2.223 . S
Cd100 O110 2.297 . S
Cd100 O111 2.439 . S
O101 Cd100 2.240 . S
O101 C106 1.279 . S
O102 Cd99 2.297 . S
O102 C104 1.247 . S
O103 Cd99 2.439 . S
O103 C104 1.208 . S
C104 O102 1.247 . S
C104 O103 1.208 . S
C105 O110 1.247 . S
C105 O111 1.208 . S
C106 O98 1.315 . S
C106 O101 1.279 . S
C107 O108 1.315 . S
C107 O109 1.279 . S
O108 Cd100 2.223 . S
O108 C107 1.315 . S
O109 Cd99 2.240 . S
O109 C107 1.279 . S
O110 Cd100 2.297 . S
O110 C105 1.247 . S
O111 Cd100 2.439 . S
O111 C105 1.208 . S
C112 C113 1.369 . S
C112 C114 1.419 . S
C112 H116 0.930 . S
C113 C112 1.369 . S
C113 C122 1.429 1_556 S
C114 C112 1.419 . S
C114 C115 1.363 1_556 S
C114 H117 0.929 . S
C115 C114 1.363 1_554 S
C115 C121 1.428 . S
H116 C112 0.930 . S
H117 C114 0.929 . S
S118 N119 1.613 . S
S118 N120 1.610 . S
N119 S118 1.613 . S
N119 C122 1.350 . S
N120 S118 1.610 . S
N120 C121 1.351 . S
C121 C115 1.428 . S
C121 N120 1.351 . S
C121 C122 1.434 . S
C122 C113 1.429 1_554 S
C122 N119 1.350 . S
C122 C121 1.434 . S
C123 C124 1.369 . S
C123 C125 1.419 . S
C123 H127 0.930 . S
C124 C123 1.369 . S
C124 C133 1.429 . S
C125 C123 1.419 . S
C125 C126 1.363 . S
C125 H128 0.929 . S
C126 C125 1.363 . S
C126 C132 1.428 . S
H127 C123 0.930 . S
H128 C125 0.929 . S
S129 N130 1.613 . S
S129 N131 1.610 . S
N130 S129 1.613 . S
N130 C133 1.350 . S
N131 S129 1.610 . S
N131 C132 1.351 . S
C132 C126 1.428 . S
C132 N131 1.351 . S
C132 C133 1.434 . S
C133 C124 1.429 . S
C133 N130 1.350 . S
C133 C132 1.434 . S
C134 C135 1.369 . S
C134 C136 1.419 . S
C134 H138 0.930 . S
C135 C134 1.369 . S
C135 C144 1.429 . S
C136 C134 1.419 . S
C136 C137 1.363 . S
C136 H139 0.929 . S
C137 C136 1.363 . S
C137 C143 1.428 . S
H138 C134 0.930 . S
H139 C136 0.929 . S
S140 N141 1.613 . S
S140 N142 1.610 . S
N141 S140 1.613 . S
N141 C144 1.350 . S
N142 S140 1.610 . S
N142 C143 1.351 . S
C143 C137 1.428 . S
C143 N142 1.351 . S
C143 C144 1.434 . S
C144 C135 1.429 . S
C144 N141 1.350 . S
C144 C143 1.434 . S
C145 C146 1.369 . S
C145 C147 1.419 . S
C145 H149 0.930 . S
C146 C145 1.369 . S
C146 C155 1.429 . S
C147 C145 1.419 . S
C147 C148 1.363 . S
C147 H150 0.929 . S
C148 C147 1.363 . S
C148 C154 1.428 . S
H149 C145 0.930 . S
H150 C147 0.929 . S
S151 N152 1.613 . S
S151 N153 1.610 . S
N152 S151 1.613 . S
N152 C155 1.350 . S
N153 S151 1.610 . S
N153 C154 1.351 . S
C154 C148 1.428 . S
C154 N153 1.351 . S
C154 C155 1.434 . S
C155 C146 1.429 . S
C155 N152 1.350 . S
C155 C154 1.434 . S
C156 C157 1.369 . S
C156 C158 1.419 . S
C156 H160 0.930 . S
C157 C156 1.369 . S
C157 C166 1.429 . S
C158 C156 1.419 . S
C158 C159 1.363 . S
C158 H161 0.929 . S
C159 C158 1.363 . S
C159 C165 1.428 . S
H160 C156 0.930 . S
H161 C158 0.929 . S
S162 N163 1.613 . S
S162 N164 1.610 . S
N163 S162 1.613 . S
N163 C166 1.350 . S
N164 S162 1.610 . S
N164 C165 1.351 . S
C165 C159 1.428 . S
C165 N164 1.351 . S
C165 C166 1.434 . S
C166 C157 1.429 . S
C166 N163 1.350 . S
C166 C165 1.434 . S
C167 C168 1.369 . S
C167 C169 1.419 . S
C167 H171 0.930 . S
C168 C167 1.369 . S
C168 C177 1.429 . S
C169 C167 1.419 . S
C169 C170 1.363 . S
C169 H172 0.929 . S
C170 C169 1.363 . S
C170 C176 1.428 . S
H171 C167 0.930 . S
H172 C169 0.929 . S
S173 N174 1.613 . S
S173 N175 1.610 . S
N174 S173 1.613 . S
N174 C177 1.350 . S
N175 S173 1.610 . S
N175 C176 1.351 . S
C176 C170 1.428 . S
C176 N175 1.351 . S
C176 C177 1.434 . S
C177 C168 1.429 . S
C177 N174 1.350 . S
C177 C176 1.434 . S
C178 C179 1.369 . S
C178 C180 1.419 . S
C178 H182 0.930 . S
C179 C178 1.369 . S
C179 C188 1.429 1_554 S
C180 C178 1.419 . S
C180 C181 1.363 1_554 S
C180 H183 0.929 . S
C181 C180 1.363 1_556 S
C181 C187 1.428 . S
H182 C178 0.930 . S
H183 C180 0.929 . S
S184 N185 1.613 . S
S184 N186 1.610 . S
N185 S184 1.613 . S
N185 C188 1.350 . S
N186 S184 1.610 . S
N186 C187 1.351 . S
C187 C181 1.428 . S
C187 N186 1.351 . S
C187 C188 1.434 . S
C188 C179 1.429 1_556 S
C188 N185 1.350 . S
C188 C187 1.434 . S
C189 C190 1.369 . S
C189 C191 1.419 . S
C189 H193 0.930 . S
C190 C189 1.369 . S
C190 C199 1.429 . S
C191 C189 1.419 . S
C191 C192 1.363 . S
C191 H194 0.929 . S
C192 C191 1.363 . S
C192 C198 1.428 . S
H193 C189 0.930 . S
H194 C191 0.929 . S
S195 N196 1.613 . S
S195 N197 1.610 . S
N196 S195 1.613 . S
N196 C199 1.350 . S
N197 S195 1.610 . S
N197 C198 1.351 . S
C198 C192 1.428 . S
C198 N197 1.351 . S
C198 C199 1.434 . S
C199 C190 1.429 . S
C199 N196 1.350 . S
C199 C198 1.434 . S
C200 C201 1.369 . S
C200 C202 1.419 . S
C200 H204 0.930 . S
C201 C200 1.369 . S
C201 C210 1.429 . S
C202 C200 1.419 . S
C202 C203 1.363 . S
C202 H205 0.929 . S
C203 C202 1.363 . S
C203 C209 1.428 . S
H204 C200 0.930 . S
H205 C202 0.929 . S
S206 N207 1.613 . S
S206 N208 1.610 . S
N207 S206 1.613 . S
N207 C210 1.350 . S
N208 S206 1.610 . S
N208 C209 1.351 . S
C209 C203 1.428 . S
C209 N208 1.351 . S
C209 C210 1.434 . S
C210 C201 1.429 . S
C210 N207 1.350 . S
C210 C209 1.434 . S
C211 C212 1.369 . S
C211 C213 1.419 . S
C211 H215 0.930 . S
C212 C211 1.369 . S
C212 C221 1.429 . S
C213 C211 1.419 . S
C213 C214 1.363 . S
C213 H216 0.929 . S
C214 C213 1.363 . S
C214 C220 1.428 . S
H215 C211 0.930 . S
H216 C213 0.929 . S
S217 N218 1.613 . S
S217 N219 1.610 . S
N218 S217 1.613 . S
N218 C221 1.350 . S
N219 S217 1.610 . S
N219 C220 1.351 . S
C220 C214 1.428 . S
C220 N219 1.351 . S
C220 C221 1.434 . S
C221 C212 1.429 . S
C221 N218 1.350 . S
C221 C220 1.434 . S
C222 C223 1.369 . S
C222 C224 1.419 . S
C222 H226 0.930 . S
C223 C222 1.369 . S
C223 C232 1.429 1_554 S
C224 C222 1.419 . S
C224 C225 1.363 1_554 S
C224 H227 0.929 . S
C225 C224 1.363 1_556 S
C225 C231 1.428 . S
H226 C222 0.930 . S
H227 C224 0.929 . S
S228 N229 1.613 . S
S228 N230 1.610 . S
N229 S228 1.613 . S
N229 C232 1.350 . S
N230 S228 1.610 . S
N230 C231 1.351 . S
C231 C225 1.428 . S
C231 N230 1.351 . S
C231 C232 1.434 . S
C232 C223 1.429 1_556 S
C232 N229 1.350 . S
C232 C231 1.434 . S
C233 C234 1.369 . S
C233 C235 1.419 . S
C233 H237 0.930 . S
C234 C233 1.369 . S
C234 C243 1.429 . S
C235 C233 1.419 . S
C235 C236 1.363 . S
C235 H238 0.929 . S
C236 C235 1.363 . S
C236 C242 1.428 . S
H237 C233 0.930 . S
H238 C235 0.929 . S
S239 N240 1.613 . S
S239 N241 1.610 . S
N240 S239 1.613 . S
N240 C243 1.350 . S
N241 S239 1.610 . S
N241 C242 1.351 . S
C242 C236 1.428 . S
C242 N241 1.351 . S
C242 C243 1.434 . S
C243 C234 1.429 . S
C243 N240 1.350 . S
C243 C242 1.434 . S
C244 C245 1.369 . S
C244 C246 1.419 . S
C244 H248 0.930 . S
C245 C244 1.369 . S
C245 C254 1.429 . S
C246 C244 1.419 . S
C246 C247 1.363 . S
C246 H249 0.929 . S
C247 C246 1.363 . S
C247 C253 1.428 . S
H248 C244 0.930 . S
H249 C246 0.929 . S
S250 N251 1.613 . S
S250 N252 1.610 . S
N251 S250 1.613 . S
N251 C254 1.350 . S
N252 S250 1.610 . S
N252 C253 1.351 . S
C253 C247 1.428 . S
C253 N252 1.351 . S
C253 C254 1.434 . S
C254 C245 1.429 . S
C254 N251 1.350 . S
C254 C253 1.434 . S
C255 C256 1.369 1_554 S
C255 C257 1.419 . S
C255 H259 0.930 . S
C256 C255 1.369 1_556 S
C256 C265 1.429 . S
C257 C255 1.419 . S
C257 C258 1.363 . S
C257 H260 0.929 . S
C258 C257 1.363 . S
C258 C264 1.428 1_554 S
H259 C255 0.930 . S
H260 C257 0.929 . S
S261 N262 1.613 . S
S261 N263 1.610 . S
N262 S261 1.613 . S
N262 C265 1.350 . S
N263 S261 1.610 . S
N263 C264 1.351 . S
C264 C258 1.428 1_556 S
C264 N263 1.351 . S
C264 C265 1.434 . S
C265 C256 1.429 . S
C265 N262 1.350 . S
C265 C264 1.434 . S
C266 C267 1.369 . S
C266 C268 1.419 . S
C266 H270 0.930 . S
C267 C266 1.369 . S
C267 C276 1.429 . S
C268 C266 1.419 . S
C268 C269 1.363 . S
C268 H271 0.929 . S
C269 C268 1.363 . S
C269 C275 1.428 . S
H270 C266 0.930 . S
H271 C268 0.929 . S
S272 N273 1.613 1_556 S
S272 N274 1.610 1_556 S
N273 S272 1.613 1_554 S
N273 C276 1.350 . S
N274 S272 1.610 1_554 S
N274 C275 1.351 . S
C275 C269 1.428 . S
C275 N274 1.351 . S
C275 C276 1.434 . S
C276 C267 1.429 . S
C276 N273 1.350 . S
C276 C275 1.434 . S
C277 C278 1.369 . S
C277 C279 1.419 . S
C277 H281 0.930 . S
C278 C277 1.369 . S
C278 C287 1.429 . S
C279 C277 1.419 . S
C279 C280 1.363 . S
C279 H282 0.929 . S
C280 C279 1.363 . S
C280 C286 1.428 . S
H281 C277 0.930 . S
H282 C279 0.929 . S
S283 N284 1.613 . S
S283 N285 1.610 . S
N284 S283 1.613 . S
N284 C287 1.350 . S
N285 S283 1.610 . S
N285 C286 1.351 . S
C286 C280 1.428 . S
C286 N285 1.351 . S
C286 C287 1.434 . S
C287 C278 1.429 . S
C287 N284 1.350 . S
C287 C286 1.434 . S
C113 C20 1.513 . S
C115 C6 1.515 . S
C124 C21 1.508 . S
C126 C34 1.507 . S
C135 C49 1.503 . S
C137 C35 1.494 . S
C146 C48 1.504 . S
C148 C7 1.508 . S
C157 C62 1.497 . S
C159 C76 1.498 . S
C168 C77 1.508 . S
C170 C90 1.504 . S
C179 C91 1.512 . S
C181 C105 1.517 . S
C190 C63 1.507 . S
C192 C104 1.505 . S
C201 C8 1.545 . S
C203 C107 1.542 . S
C212 C65 1.554 . S
C214 C23 1.554 . S
C223 C78 1.561 . S
C225 C37 1.563 . S
C234 C50 1.553 . S
C236 C92 1.552 . S
C245 C36 1.553 . S
C247 C106 1.555 . S
C256 C64 1.559 . S
C258 C51 1.566 . S
C267 C79 1.550 . S
C269 C9 1.555 . S
C278 C22 1.545 . S
C280 C93 1.542 . S
