# Generated by pormake.
# Topology hal, (4)-cn, num edge types: 1
# Building blocks:
#     Node 0, Type 0, BuildingBlock: NAHDIM_clean_sbu_0, # of connection points: 4
#     Node 1, Type 0, BuildingBlock: NAHDIM_clean_sbu_0, # of connection points: 4
#     Node 2, Type 0, BuildingBlock: NAHDIM_clean_sbu_0, # of connection points: 4
#     Node 3, Type 0, BuildingBlock: NAHDIM_clean_sbu_0, # of connection points: 4
#     Node 4, Type 0, BuildingBlock: NAHDIM_clean_sbu_0, # of connection points: 4
#     Node 5, Type 0, BuildingBlock: NAHDIM_clean_sbu_0, # of connection points: 4
#     Node 6, Type 0, BuildingBlock: NAHDIM_clean_sbu_0, # of connection points: 4
#     Node 7, Type 0, BuildingBlock: NAHDIM_clean_sbu_0, # of connection points: 4
#     Node 8, Type 0, BuildingBlock: NAHDIM_clean_sbu_0, # of connection points: 4
#     Node 9, Type 0, BuildingBlock: NAHDIM_clean_sbu_0, # of connection points: 4
#     Node 10, Type 0, BuildingBlock: NAHDIM_clean_sbu_0, # of connection points: 4
#     Node 11, Type 0, BuildingBlock: NAHDIM_clean_sbu_0, # of connection points: 4
#     Node 12, Type 0, BuildingBlock: NAHDIM_clean_sbu_0, # of connection points: 4
#     Node 13, Type 0, BuildingBlock: NAHDIM_clean_sbu_0, # of connection points: 4
#     Node 14, Type 0, BuildingBlock: NAHDIM_clean_sbu_0, # of connection points: 4
#     Node 15, Type 0, BuildingBlock: NAHDIM_clean_sbu_0, # of connection points: 4
#     Node 16, Type 0, BuildingBlock: NAHDIM_clean_sbu_0, # of connection points: 4
#     Node 17, Type 0, BuildingBlock: NAHDIM_clean_sbu_0, # of connection points: 4
#     Node 18, Type 0, BuildingBlock: NAHDIM_clean_sbu_0, # of connection points: 4
#     Node 19, Type 0, BuildingBlock: NAHDIM_clean_sbu_0, # of connection points: 4
#     Node 20, Type 0, BuildingBlock: NAHDIM_clean_sbu_0, # of connection points: 4
#     Node 21, Type 0, BuildingBlock: NAHDIM_clean_sbu_0, # of connection points: 4
#     Node 22, Type 0, BuildingBlock: NAHDIM_clean_sbu_0, # of connection points: 4
#     Node 23, Type 0, BuildingBlock: NAHDIM_clean_sbu_0, # of connection points: 4
#     Node 24, Type 0, BuildingBlock: NAHDIM_clean_sbu_0, # of connection points: 4
#     Node 25, Type 0, BuildingBlock: NAHDIM_clean_sbu_0, # of connection points: 4
#     Node 26, Type 0, BuildingBlock: NAHDIM_clean_sbu_0, # of connection points: 4
#     Node 27, Type 0, BuildingBlock: NAHDIM_clean_sbu_0, # of connection points: 4
#     Node 28, Type 0, BuildingBlock: NAHDIM_clean_sbu_0, # of connection points: 4
#     Node 29, Type 0, BuildingBlock: NAHDIM_clean_sbu_0, # of connection points: 4
#     Node 30, Type 0, BuildingBlock: NAHDIM_clean_sbu_0, # of connection points: 4
#     Node 31, Type 0, BuildingBlock: NAHDIM_clean_sbu_0, # of connection points: 4
#     Node 32, Type 0, BuildingBlock: NAHDIM_clean_sbu_0, # of connection points: 4
#     Node 33, Type 0, BuildingBlock: NAHDIM_clean_sbu_0, # of connection points: 4
#     Node 34, Type 0, BuildingBlock: NAHDIM_clean_sbu_0, # of connection points: 4
#     Node 35, Type 0, BuildingBlock: NAHDIM_clean_sbu_0, # of connection points: 4
#     Node 36, Type 0, BuildingBlock: NAHDIM_clean_sbu_0, # of connection points: 4
#     Node 37, Type 0, BuildingBlock: NAHDIM_clean_sbu_0, # of connection points: 4
#     Node 38, Type 0, BuildingBlock: NAHDIM_clean_sbu_0, # of connection points: 4
#     Node 39, Type 0, BuildingBlock: NAHDIM_clean_sbu_0, # of connection points: 4
#     Node 40, Type 0, BuildingBlock: NAHDIM_clean_sbu_0, # of connection points: 4
#     Node 41, Type 0, BuildingBlock: NAHDIM_clean_sbu_0, # of connection points: 4
#     Node 42, Type 0, BuildingBlock: NAHDIM_clean_sbu_0, # of connection points: 4
#     Node 43, Type 0, BuildingBlock: NAHDIM_clean_sbu_0, # of connection points: 4
#     Node 44, Type 0, BuildingBlock: NAHDIM_clean_sbu_0, # of connection points: 4
#     Node 45, Type 0, BuildingBlock: NAHDIM_clean_sbu_0, # of connection points: 4
#     Node 46, Type 0, BuildingBlock: NAHDIM_clean_sbu_0, # of connection points: 4
#     Node 47, Type 0, BuildingBlock: NAHDIM_clean_sbu_0, # of connection points: 4
#     Node 48, Type 0, BuildingBlock: NAHDIM_clean_sbu_0, # of connection points: 4
#     Node 49, Type 0, BuildingBlock: NAHDIM_clean_sbu_0, # of connection points: 4
#     Node 50, Type 0, BuildingBlock: NAHDIM_clean_sbu_0, # of connection points: 4
#     Node 51, Type 0, BuildingBlock: NAHDIM_clean_sbu_0, # of connection points: 4
#     Node 52, Type 0, BuildingBlock: NAHDIM_clean_sbu_0, # of connection points: 4
#     Node 53, Type 0, BuildingBlock: NAHDIM_clean_sbu_0, # of connection points: 4
#     Node 54, Type 0, BuildingBlock: NAHDIM_clean_sbu_0, # of connection points: 4
#     Node 55, Type 0, BuildingBlock: NAHDIM_clean_sbu_0, # of connection points: 4
#     Node 56, Type 0, BuildingBlock: NAHDIM_clean_sbu_0, # of connection points: 4
#     Node 57, Type 0, BuildingBlock: NAHDIM_clean_sbu_0, # of connection points: 4
#     Node 58, Type 0, BuildingBlock: NAHDIM_clean_sbu_0, # of connection points: 4
#     Node 59, Type 0, BuildingBlock: NAHDIM_clean_sbu_0, # of connection points: 4
#     Node 60, Type 0, BuildingBlock: NAHDIM_clean_sbu_0, # of connection points: 4
#     Node 61, Type 0, BuildingBlock: NAHDIM_clean_sbu_0, # of connection points: 4
#     Node 62, Type 0, BuildingBlock: NAHDIM_clean_sbu_0, # of connection points: 4
#     Node 63, Type 0, BuildingBlock: NAHDIM_clean_sbu_0, # of connection points: 4
#     Node 64, Type 0, BuildingBlock: NAHDIM_clean_sbu_0, # of connection points: 4
#     Node 65, Type 0, BuildingBlock: NAHDIM_clean_sbu_0, # of connection points: 4
#     Node 66, Type 0, BuildingBlock: NAHDIM_clean_sbu_0, # of connection points: 4
#     Node 67, Type 0, BuildingBlock: NAHDIM_clean_sbu_0, # of connection points: 4
#     Node 68, Type 0, BuildingBlock: NAHDIM_clean_sbu_0, # of connection points: 4
#     Node 69, Type 0, BuildingBlock: NAHDIM_clean_sbu_0, # of connection points: 4
#     Node 70, Type 0, BuildingBlock: NAHDIM_clean_sbu_0, # of connection points: 4
#     Node 71, Type 0, BuildingBlock: NAHDIM_clean_sbu_0, # of connection points: 4
#     Node 72, Type 0, BuildingBlock: NAHDIM_clean_sbu_0, # of connection points: 4
#     Node 73, Type 0, BuildingBlock: NAHDIM_clean_sbu_0, # of connection points: 4
#     Node 74, Type 0, BuildingBlock: NAHDIM_clean_sbu_0, # of connection points: 4
#     Node 75, Type 0, BuildingBlock: NAHDIM_clean_sbu_0, # of connection points: 4
#     Node 76, Type 0, BuildingBlock: NAHDIM_clean_sbu_0, # of connection points: 4
#     Node 77, Type 0, BuildingBlock: NAHDIM_clean_sbu_0, # of connection points: 4
#     Node 78, Type 0, BuildingBlock: NAHDIM_clean_sbu_0, # of connection points: 4
#     Node 79, Type 0, BuildingBlock: NAHDIM_clean_sbu_0, # of connection points: 4
#     Node 80, Type 0, BuildingBlock: NAHDIM_clean_sbu_0, # of connection points: 4
#     Node 81, Type 0, BuildingBlock: NAHDIM_clean_sbu_0, # of connection points: 4
#     Node 82, Type 0, BuildingBlock: NAHDIM_clean_sbu_0, # of connection points: 4
#     Node 83, Type 0, BuildingBlock: NAHDIM_clean_sbu_0, # of connection points: 4
#     Node 84, Type 0, BuildingBlock: NAHDIM_clean_sbu_0, # of connection points: 4
#     Node 85, Type 0, BuildingBlock: NAHDIM_clean_sbu_0, # of connection points: 4
#     Node 86, Type 0, BuildingBlock: NAHDIM_clean_sbu_0, # of connection points: 4
#     Node 87, Type 0, BuildingBlock: NAHDIM_clean_sbu_0, # of connection points: 4
#     Node 88, Type 0, BuildingBlock: NAHDIM_clean_sbu_0, # of connection points: 4
#     Node 89, Type 0, BuildingBlock: NAHDIM_clean_sbu_0, # of connection points: 4
#     Node 90, Type 0, BuildingBlock: NAHDIM_clean_sbu_0, # of connection points: 4
#     Node 91, Type 0, BuildingBlock: NAHDIM_clean_sbu_0, # of connection points: 4
#     Node 92, Type 0, BuildingBlock: NAHDIM_clean_sbu_0, # of connection points: 4
#     Node 93, Type 0, BuildingBlock: NAHDIM_clean_sbu_0, # of connection points: 4
#     Node 94, Type 0, BuildingBlock: NAHDIM_clean_sbu_0, # of connection points: 4
#     Node 95, Type 0, BuildingBlock: NAHDIM_clean_sbu_0, # of connection points: 4
#     Edge 96, Type (0, 0), None
#     Edge 97, Type (0, 0), None
#     Edge 98, Type (0, 0), None
#     Edge 99, Type (0, 0), None
#     Edge 100, Type (0, 0), None
#     Edge 101, Type (0, 0), None
#     Edge 102, Type (0, 0), None
#     Edge 103, Type (0, 0), None
#     Edge 104, Type (0, 0), None
#     Edge 105, Type (0, 0), None
#     Edge 106, Type (0, 0), None
#     Edge 107, Type (0, 0), None
#     Edge 108, Type (0, 0), None
#     Edge 109, Type (0, 0), None
#     Edge 110, Type (0, 0), None
#     Edge 111, Type (0, 0), None
#     Edge 112, Type (0, 0), None
#     Edge 113, Type (0, 0), None
#     Edge 114, Type (0, 0), None
#     Edge 115, Type (0, 0), None
#     Edge 116, Type (0, 0), None
#     Edge 117, Type (0, 0), None
#     Edge 118, Type (0, 0), None
#     Edge 119, Type (0, 0), None
#     Edge 120, Type (0, 0), None
#     Edge 121, Type (0, 0), None
#     Edge 122, Type (0, 0), None
#     Edge 123, Type (0, 0), None
#     Edge 124, Type (0, 0), None
#     Edge 125, Type (0, 0), None
#     Edge 126, Type (0, 0), None
#     Edge 127, Type (0, 0), None
#     Edge 128, Type (0, 0), None
#     Edge 129, Type (0, 0), None
#     Edge 130, Type (0, 0), None
#     Edge 131, Type (0, 0), None
#     Edge 132, Type (0, 0), None
#     Edge 133, Type (0, 0), None
#     Edge 134, Type (0, 0), None
#     Edge 135, Type (0, 0), None
#     Edge 136, Type (0, 0), None
#     Edge 137, Type (0, 0), None
#     Edge 138, Type (0, 0), None
#     Edge 139, Type (0, 0), None
#     Edge 140, Type (0, 0), None
#     Edge 141, Type (0, 0), None
#     Edge 142, Type (0, 0), None
#     Edge 143, Type (0, 0), None
#     Edge 144, Type (0, 0), None
#     Edge 145, Type (0, 0), None
#     Edge 146, Type (0, 0), None
#     Edge 147, Type (0, 0), None
#     Edge 148, Type (0, 0), None
#     Edge 149, Type (0, 0), None
#     Edge 150, Type (0, 0), None
#     Edge 151, Type (0, 0), None
#     Edge 152, Type (0, 0), None
#     Edge 153, Type (0, 0), None
#     Edge 154, Type (0, 0), None
#     Edge 155, Type (0, 0), None
#     Edge 156, Type (0, 0), None
#     Edge 157, Type (0, 0), None
#     Edge 158, Type (0, 0), None
#     Edge 159, Type (0, 0), None
#     Edge 160, Type (0, 0), None
#     Edge 161, Type (0, 0), None
#     Edge 162, Type (0, 0), None
#     Edge 163, Type (0, 0), None
#     Edge 164, Type (0, 0), None
#     Edge 165, Type (0, 0), None
#     Edge 166, Type (0, 0), None
#     Edge 167, Type (0, 0), None
#     Edge 168, Type (0, 0), None
#     Edge 169, Type (0, 0), None
#     Edge 170, Type (0, 0), None
#     Edge 171, Type (0, 0), None
#     Edge 172, Type (0, 0), None
#     Edge 173, Type (0, 0), None
#     Edge 174, Type (0, 0), None
#     Edge 175, Type (0, 0), None
#     Edge 176, Type (0, 0), None
#     Edge 177, Type (0, 0), None
#     Edge 178, Type (0, 0), None
#     Edge 179, Type (0, 0), None
#     Edge 180, Type (0, 0), None
#     Edge 181, Type (0, 0), None
#     Edge 182, Type (0, 0), None
#     Edge 183, Type (0, 0), None
#     Edge 184, Type (0, 0), None
#     Edge 185, Type (0, 0), None
#     Edge 186, Type (0, 0), None
#     Edge 187, Type (0, 0), None
#     Edge 188, Type (0, 0), None
#     Edge 189, Type (0, 0), None
#     Edge 190, Type (0, 0), None
#     Edge 191, Type (0, 0), None
#     Edge 192, Type (0, 0), None
#     Edge 193, Type (0, 0), None
#     Edge 194, Type (0, 0), None
#     Edge 195, Type (0, 0), None
#     Edge 196, Type (0, 0), None
#     Edge 197, Type (0, 0), None
#     Edge 198, Type (0, 0), None
#     Edge 199, Type (0, 0), None
#     Edge 200, Type (0, 0), None
#     Edge 201, Type (0, 0), None
#     Edge 202, Type (0, 0), None
#     Edge 203, Type (0, 0), None
#     Edge 204, Type (0, 0), None
#     Edge 205, Type (0, 0), None
#     Edge 206, Type (0, 0), None
#     Edge 207, Type (0, 0), None
#     Edge 208, Type (0, 0), None
#     Edge 209, Type (0, 0), None
#     Edge 210, Type (0, 0), None
#     Edge 211, Type (0, 0), None
#     Edge 212, Type (0, 0), None
#     Edge 213, Type (0, 0), None
#     Edge 214, Type (0, 0), None
#     Edge 215, Type (0, 0), None
#     Edge 216, Type (0, 0), None
#     Edge 217, Type (0, 0), None
#     Edge 218, Type (0, 0), None
#     Edge 219, Type (0, 0), None
#     Edge 220, Type (0, 0), None
#     Edge 221, Type (0, 0), None
#     Edge 222, Type (0, 0), None
#     Edge 223, Type (0, 0), None
#     Edge 224, Type (0, 0), None
#     Edge 225, Type (0, 0), None
#     Edge 226, Type (0, 0), None
#     Edge 227, Type (0, 0), None
#     Edge 228, Type (0, 0), None
#     Edge 229, Type (0, 0), None
#     Edge 230, Type (0, 0), None
#     Edge 231, Type (0, 0), None
#     Edge 232, Type (0, 0), None
#     Edge 233, Type (0, 0), None
#     Edge 234, Type (0, 0), None
#     Edge 235, Type (0, 0), None
#     Edge 236, Type (0, 0), None
#     Edge 237, Type (0, 0), None
#     Edge 238, Type (0, 0), None
#     Edge 239, Type (0, 0), None
#     Edge 240, Type (0, 0), None
#     Edge 241, Type (0, 0), None
#     Edge 242, Type (0, 0), None
#     Edge 243, Type (0, 0), None
#     Edge 244, Type (0, 0), None
#     Edge 245, Type (0, 0), None
#     Edge 246, Type (0, 0), None
#     Edge 247, Type (0, 0), None
#     Edge 248, Type (0, 0), None
#     Edge 249, Type (0, 0), None
#     Edge 250, Type (0, 0), None
#     Edge 251, Type (0, 0), None
#     Edge 252, Type (0, 0), None
#     Edge 253, Type (0, 0), None
#     Edge 254, Type (0, 0), None
#     Edge 255, Type (0, 0), None
#     Edge 256, Type (0, 0), None
#     Edge 257, Type (0, 0), None
#     Edge 258, Type (0, 0), None
#     Edge 259, Type (0, 0), None
#     Edge 260, Type (0, 0), None
#     Edge 261, Type (0, 0), None
#     Edge 262, Type (0, 0), None
#     Edge 263, Type (0, 0), None
#     Edge 264, Type (0, 0), None
#     Edge 265, Type (0, 0), None
#     Edge 266, Type (0, 0), None
#     Edge 267, Type (0, 0), None
#     Edge 268, Type (0, 0), None
#     Edge 269, Type (0, 0), None
#     Edge 270, Type (0, 0), None
#     Edge 271, Type (0, 0), None
#     Edge 272, Type (0, 0), None
#     Edge 273, Type (0, 0), None
#     Edge 274, Type (0, 0), None
#     Edge 275, Type (0, 0), None
#     Edge 276, Type (0, 0), None
#     Edge 277, Type (0, 0), None
#     Edge 278, Type (0, 0), None
#     Edge 279, Type (0, 0), None
#     Edge 280, Type (0, 0), None
#     Edge 281, Type (0, 0), None
#     Edge 282, Type (0, 0), None
#     Edge 283, Type (0, 0), None
#     Edge 284, Type (0, 0), None
#     Edge 285, Type (0, 0), None
#     Edge 286, Type (0, 0), None
#     Edge 287, Type (0, 0), None
# Relax obj value: 0.314
# Max RMSD: 0.275
# Mean RMSD: 0.275
data_MOF--net-hal--node1-NAHDIM_clean_sbu_0--edge1-none
_symmetry_space_group_name_H-M    P1
_symmetry_Int_Tables_number       1
_symmetry_cell_setting            triclinic
loop_
_symmetry_equiv_pos_as_xyz
'x, y, z'
_cell_length_a     41.847732
_cell_length_b     41.566846
_cell_length_c     41.566062
_cell_angle_alpha  90.0
_cell_angle_beta   90.0
_cell_angle_gamma 90.0
loop_
_atom_site_label
_atom_site_type_symbol
_atom_site_fract_x
_atom_site_fract_y
_atom_site_fract_z
_atom_type_partial_charge
C0 C -0.00179 0.16093 0.29046 0.0
O1 O 0.00971 0.13518 0.27629 0.0
O2 O 0.08055 0.14132 0.27543 0.0
Zn3 Zn 0.06208 0.18557 0.28131 0.0
O4 O 0.06411 0.21043 0.24014 0.0
C5 C 0.09185 0.19598 0.34231 0.0
O6 O 0.07162 0.1735 0.35115 0.0
O7 O 0.01642 0.1847 0.29606 0.0
C8 C 0.09025 0.21998 0.22791 0.0
O9 O 0.11746 0.21302 0.24201 0.0
C10 C 0.08923 0.12844 0.2491 0.0
O11 O 0.08357 0.14303 0.22168 0.0
O12 O 0.09053 0.20694 0.31382 0.0
C13 C 0.79336 -0.00168 0.29692 0.0
O14 O 0.82198 0.00864 0.28909 0.0
O15 O 0.81842 0.07849 0.27489 0.0
Zn16 Zn 0.77314 0.06376 0.28251 0.0
O17 O 0.74719 0.06842 0.24228 0.0
C18 C 0.76839 0.09493 0.34361 0.0
O19 O 0.79001 0.07337 0.35135 0.0
O20 O 0.76992 0.01769 0.29686 0.0
C21 C 0.7397 0.09542 0.23013 0.0
O22 O 0.74957 0.12217 0.24369 0.0
C23 C 0.8306 0.08594 0.24787 0.0
O24 O 0.81443 0.08096 0.22127 0.0
O25 O 0.75571 0.09396 0.31587 0.0
C26 C 0.9578 0.80154 0.29046 0.0
O27 O 0.9463 0.82729 0.27629 0.0
O28 O 0.87546 0.82116 0.27543 0.0
Zn29 Zn 0.89393 0.77691 0.28131 0.0
O30 O 0.8919 0.75205 0.24014 0.0
C31 C 0.86417 0.76649 0.34231 0.0
O32 O 0.8844 0.78898 0.35115 0.0
O33 O 0.93959 0.77777 0.29606 0.0
C34 C 0.86577 0.74249 0.22791 0.0
O35 O 0.83855 0.74945 0.24201 0.0
C36 C 0.86679 0.83404 0.2491 0.0
O37 O 0.87245 0.81944 0.22168 0.0
O38 O 0.86549 0.75553 0.31382 0.0
C39 C 0.16265 0.96415 0.29692 0.0
O40 O 0.13404 0.95383 0.28909 0.0
O41 O 0.13759 0.88399 0.27489 0.0
Zn42 Zn 0.18287 0.89871 0.28251 0.0
O43 O 0.20882 0.89405 0.24228 0.0
C44 C 0.18763 0.86755 0.34361 0.0
O45 O 0.166 0.8891 0.35135 0.0
O46 O 0.1861 0.94478 0.29686 0.0
C47 C 0.21632 0.86705 0.23013 0.0
O48 O 0.20644 0.84031 0.24369 0.0
C49 C 0.12541 0.87654 0.24787 0.0
O50 O 0.14158 0.88151 0.22127 0.0
O51 O 0.2003 0.86851 0.31587 0.0
C52 C -0.00179 0.80154 0.67203 0.0
O53 O 0.00971 0.82729 0.6862 0.0
O54 O 0.08055 0.82116 0.68706 0.0
Zn55 Zn 0.06208 0.77691 0.68118 0.0
O56 O 0.06411 0.75205 0.72235 0.0
C57 C 0.09185 0.76649 0.62019 0.0
O58 O 0.07162 0.78898 0.61134 0.0
O59 O 0.01642 0.77777 0.66643 0.0
C60 C 0.09025 0.74249 0.73458 0.0
O61 O 0.11746 0.74945 0.72049 0.0
C62 C 0.08923 0.83404 0.71339 0.0
O63 O 0.08357 0.81944 0.74081 0.0
O64 O 0.09053 0.75553 0.64867 0.0
C65 C 0.16265 -0.00168 0.66557 0.0
O66 O 0.13404 0.00864 0.6734 0.0
O67 O 0.13759 0.07849 0.6876 0.0
Zn68 Zn 0.18287 0.06376 0.67998 0.0
O69 O 0.20882 0.06842 0.72021 0.0
C70 C 0.18763 0.09493 0.61888 0.0
O71 O 0.166 0.07337 0.61114 0.0
O72 O 0.1861 0.01769 0.66564 0.0
C73 C 0.21632 0.09542 0.73236 0.0
O74 O 0.20644 0.12217 0.71881 0.0
C75 C 0.12541 0.08594 0.71462 0.0
O76 O 0.14158 0.08096 0.74122 0.0
O77 O 0.2003 0.09396 0.64662 0.0
C78 C 0.9578 0.16093 0.67203 0.0
O79 O 0.9463 0.13518 0.6862 0.0
O80 O 0.87546 0.14132 0.68706 0.0
Zn81 Zn 0.89393 0.18557 0.68118 0.0
O82 O 0.8919 0.21043 0.72235 0.0
C83 C 0.86417 0.19598 0.62019 0.0
O84 O 0.8844 0.1735 0.61134 0.0
O85 O 0.93959 0.1847 0.66643 0.0
C86 C 0.86577 0.21998 0.73458 0.0
O87 O 0.83855 0.21302 0.72049 0.0
C88 C 0.86679 0.12844 0.71339 0.0
O89 O 0.87245 0.14303 0.74081 0.0
O90 O 0.86549 0.20694 0.64867 0.0
C91 C 0.79336 0.96415 0.66557 0.0
O92 O 0.82198 0.95383 0.6734 0.0
O93 O 0.81842 0.88399 0.6876 0.0
Zn94 Zn 0.77314 0.89871 0.67998 0.0
O95 O 0.74719 0.89405 0.72021 0.0
C96 C 0.76839 0.86755 0.61888 0.0
O97 O 0.79001 0.8891 0.61114 0.0
O98 O 0.76992 0.94478 0.66564 0.0
C99 C 0.7397 0.86705 0.73236 0.0
O100 O 0.74957 0.84031 0.71881 0.0
C101 C 0.8306 0.87654 0.71462 0.0
O102 O 0.81443 0.88151 0.74122 0.0
O103 O 0.75571 0.86851 0.64662 0.0
C104 C 0.29311 -0.00378 0.16474 0.0
O105 O 0.28182 0.00764 0.13757 0.0
O106 O 0.27568 0.079 0.14387 0.0
Zn107 Zn 0.28302 0.06121 0.18838 0.0
O108 O 0.24312 0.06503 0.21463 0.0
C109 C 0.34358 0.09245 0.19508 0.0
O110 O 0.35111 0.07323 0.17117 0.0
O111 O 0.29667 0.01483 0.1887 0.0
C112 C 0.23123 0.09208 0.22228 0.0
O113 O 0.2448 0.11876 0.21231 0.0
C114 C 0.24885 0.0864 0.13153 0.0
O115 O 0.22227 0.07941 0.14677 0.0
O116 O 0.31628 0.08989 0.20814 0.0
C117 C 0.95778 0.29046 0.16094 0.0
O118 O 0.94628 0.2763 0.13519 0.0
O119 O 0.87544 0.27543 0.14134 0.0
Zn120 Zn 0.89392 0.28131 0.18559 0.0
O121 O 0.89188 0.24014 0.21044 0.0
C122 C 0.86415 0.34231 0.19599 0.0
O123 O 0.88438 0.35115 0.1735 0.0
O124 O 0.93957 0.29606 0.18472 0.0
C125 C 0.86574 0.22791 0.22 0.0
O126 O 0.83853 0.242 0.21303 0.0
C127 C 0.86678 0.2491 0.12845 0.0
O128 O 0.87244 0.22169 0.14304 0.0
O129 O 0.86547 0.31383 0.20696 0.0
C130 C 0.66291 0.96625 0.16474 0.0
O131 O 0.67419 0.95483 0.13757 0.0
O132 O 0.68034 0.88348 0.14387 0.0
Zn133 Zn 0.67299 0.90127 0.18838 0.0
O134 O 0.71289 0.89745 0.21463 0.0
C135 C 0.61243 0.87002 0.19508 0.0
O136 O 0.60491 0.88924 0.17117 0.0
O137 O 0.65934 0.94764 0.1887 0.0
C138 C 0.72478 0.8704 0.22228 0.0
O139 O 0.71121 0.84372 0.21231 0.0
C140 C 0.70716 0.87607 0.13153 0.0
O141 O 0.73375 0.88306 0.14677 0.0
O142 O 0.63974 0.87258 0.20814 0.0
C143 C -0.00177 0.67201 0.16094 0.0
O144 O 0.00974 0.68617 0.13519 0.0
O145 O 0.08057 0.68704 0.14134 0.0
Zn146 Zn 0.0621 0.68116 0.18559 0.0
O147 O 0.06414 0.72233 0.21044 0.0
C148 C 0.09186 0.62017 0.19599 0.0
O149 O 0.07163 0.61133 0.1735 0.0
O150 O 0.01644 0.66642 0.18472 0.0
C151 C 0.09027 0.73456 0.22 0.0
O152 O 0.11749 0.72047 0.21303 0.0
C153 C 0.08924 0.71337 0.12845 0.0
O154 O 0.08357 0.74079 0.14304 0.0
O155 O 0.09054 0.64864 0.20696 0.0
C156 C 0.29311 0.96625 0.79775 0.0
O157 O 0.28182 0.95483 0.82492 0.0
O158 O 0.27568 0.88348 0.81862 0.0
Zn159 Zn 0.28302 0.90127 0.77412 0.0
O160 O 0.24312 0.89745 0.74786 0.0
C161 C 0.34358 0.87002 0.76741 0.0
O162 O 0.35111 0.88924 0.79132 0.0
O163 O 0.29667 0.94764 0.7738 0.0
C164 C 0.23123 0.8704 0.74021 0.0
O165 O 0.2448 0.84372 0.75018 0.0
C166 C 0.24885 0.87607 0.83096 0.0
O167 O 0.22227 0.88306 0.81572 0.0
O168 O 0.31628 0.87258 0.75436 0.0
C169 C -0.00177 0.29046 0.80155 0.0
O170 O 0.00974 0.2763 0.8273 0.0
O171 O 0.08057 0.27543 0.82116 0.0
Zn172 Zn 0.0621 0.28131 0.7769 0.0
O173 O 0.06414 0.24014 0.75205 0.0
C174 C 0.09186 0.34231 0.7665 0.0
O175 O 0.07163 0.35115 0.78899 0.0
O176 O 0.01644 0.29606 0.77777 0.0
C177 C 0.09027 0.22791 0.7425 0.0
O178 O 0.11749 0.242 0.74946 0.0
C179 C 0.08924 0.2491 0.83404 0.0
O180 O 0.08357 0.22169 0.81945 0.0
O181 O 0.09054 0.31383 0.75553 0.0
C182 C 0.66291 -0.00378 0.79775 0.0
O183 O 0.67419 0.00764 0.82492 0.0
O184 O 0.68034 0.079 0.81862 0.0
Zn185 Zn 0.67299 0.06121 0.77412 0.0
O186 O 0.71289 0.06503 0.74786 0.0
C187 C 0.61243 0.09245 0.76741 0.0
O188 O 0.60491 0.07323 0.79132 0.0
O189 O 0.65934 0.01483 0.7738 0.0
C190 C 0.72478 0.09208 0.74021 0.0
O191 O 0.71121 0.11876 0.75018 0.0
C192 C 0.70716 0.0864 0.83096 0.0
O193 O 0.73375 0.07941 0.81572 0.0
O194 O 0.63974 0.08989 0.75436 0.0
C195 C 0.95778 0.67201 0.80155 0.0
O196 O 0.94628 0.68617 0.8273 0.0
O197 O 0.87544 0.68704 0.82116 0.0
Zn198 Zn 0.89392 0.68116 0.7769 0.0
O199 O 0.89188 0.72233 0.75205 0.0
C200 C 0.86415 0.62017 0.7665 0.0
O201 O 0.88438 0.61133 0.78899 0.0
O202 O 0.93957 0.66642 0.77777 0.0
C203 C 0.86574 0.73456 0.7425 0.0
O204 O 0.83853 0.72047 0.74946 0.0
C205 C 0.86678 0.71337 0.83404 0.0
O206 O 0.87244 0.74079 0.81945 0.0
O207 O 0.86547 0.64864 0.75553 0.0
C208 C 0.16265 0.2969 -0.00167 0.0
O209 O 0.13403 0.28907 0.00865 0.0
O210 O 0.13757 0.27487 0.07849 0.0
Zn211 Zn 0.18285 0.28248 0.06378 0.0
O212 O 0.2088 0.24225 0.06843 0.0
C213 C 0.18762 0.34358 0.09494 0.0
O214 O 0.166 0.35133 0.07338 0.0
O215 O 0.18609 0.29683 0.01771 0.0
C216 C 0.21629 0.23009 0.09544 0.0
O217 O 0.20641 0.24364 0.12218 0.0
C218 C 0.12538 0.24785 0.08594 0.0
O219 O 0.14155 0.22125 0.08097 0.0
O220 O 0.20028 0.31584 0.09398 0.0
C221 C 0.16265 0.66557 0.96416 0.0
O222 O 0.13403 0.67341 0.95384 0.0
O223 O 0.13757 0.6876 0.884 0.0
Zn224 Zn 0.18285 0.67999 0.89872 0.0
O225 O 0.2088 0.72023 0.89406 0.0
C226 C 0.18762 0.61889 0.86755 0.0
O227 O 0.166 0.61115 0.88912 0.0
O228 O 0.18609 0.66564 0.94478 0.0
C229 C 0.21629 0.73238 0.86706 0.0
O230 O 0.20641 0.71883 0.84031 0.0
C231 C 0.12538 0.71462 0.87655 0.0
O232 O 0.14155 0.74122 0.88153 0.0
O233 O 0.20028 0.64664 0.86851 0.0
C234 C 0.2931 0.16472 0.96626 0.0
O235 O 0.2818 0.13755 0.95484 0.0
O236 O 0.27568 0.14385 0.88348 0.0
Zn237 Zn 0.28302 0.18836 0.90127 0.0
O238 O 0.24312 0.21462 0.89745 0.0
C239 C 0.34359 0.19507 0.87003 0.0
O240 O 0.35111 0.17116 0.88926 0.0
O241 O 0.29667 0.18867 0.94765 0.0
C242 C 0.23124 0.22227 0.8704 0.0
O243 O 0.24481 0.2123 0.84372 0.0
C244 C 0.24885 0.13152 0.87606 0.0
O245 O 0.22227 0.14676 0.88304 0.0
O246 O 0.31628 0.20812 0.87259 0.0
C247 C 0.79337 0.2969 0.96416 0.0
O248 O 0.82198 0.28907 0.95384 0.0
O249 O 0.81844 0.27487 0.884 0.0
Zn250 Zn 0.77316 0.28248 0.89872 0.0
O251 O 0.74722 0.24225 0.89406 0.0
C252 C 0.76839 0.34358 0.86755 0.0
O253 O 0.79001 0.35133 0.88912 0.0
O254 O 0.76993 0.29683 0.94478 0.0
C255 C 0.73973 0.23009 0.86706 0.0
O256 O 0.74961 0.24364 0.84031 0.0
C257 C 0.83063 0.24785 0.87655 0.0
O258 O 0.81446 0.22125 0.88153 0.0
O259 O 0.75573 0.31584 0.86851 0.0
C260 C 0.66292 0.79775 0.96626 0.0
O261 O 0.67421 0.82492 0.95484 0.0
O262 O 0.68034 0.81862 0.88348 0.0
Zn263 Zn 0.67299 0.77412 0.90127 0.0
O264 O 0.71289 0.74785 0.89745 0.0
C265 C 0.61243 0.76741 0.87003 0.0
O266 O 0.6049 0.79131 0.88926 0.0
O267 O 0.65935 0.7738 0.94765 0.0
C268 C 0.72477 0.7402 0.8704 0.0
O269 O 0.71121 0.75017 0.84372 0.0
C270 C 0.70716 0.83095 0.87606 0.0
O271 O 0.73375 0.81571 0.88304 0.0
O272 O 0.63974 0.75435 0.87259 0.0
C273 C 0.79337 0.66557 -0.00167 0.0
O274 O 0.82198 0.67341 0.00865 0.0
O275 O 0.81844 0.6876 0.07849 0.0
Zn276 Zn 0.77316 0.67999 0.06378 0.0
O277 O 0.74722 0.72023 0.06843 0.0
C278 C 0.76839 0.61889 0.09494 0.0
O279 O 0.79001 0.61115 0.07338 0.0
O280 O 0.76993 0.66564 0.01771 0.0
C281 C 0.73973 0.73238 0.09544 0.0
O282 O 0.74961 0.71883 0.12218 0.0
C283 C 0.83063 0.71462 0.08594 0.0
O284 O 0.81446 0.74122 0.08097 0.0
O285 O 0.75573 0.64664 0.09398 0.0
C286 C 0.2931 0.79775 -0.00377 0.0
O287 O 0.2818 0.82492 0.00765 0.0
O288 O 0.27568 0.81862 0.07902 0.0
Zn289 Zn 0.28302 0.77412 0.06122 0.0
O290 O 0.24312 0.74785 0.06504 0.0
C291 C 0.34359 0.76741 0.09246 0.0
O292 O 0.35111 0.79131 0.07324 0.0
O293 O 0.29667 0.7738 0.01484 0.0
C294 C 0.23124 0.7402 0.09209 0.0
O295 O 0.24481 0.75017 0.11877 0.0
C296 C 0.24885 0.83095 0.08643 0.0
O297 O 0.22227 0.81571 0.07945 0.0
O298 O 0.31628 0.75435 0.0899 0.0
C299 C 0.66292 0.16472 -0.00377 0.0
O300 O 0.67421 0.13755 0.00765 0.0
O301 O 0.68034 0.14385 0.07902 0.0
Zn302 Zn 0.67299 0.18836 0.06122 0.0
O303 O 0.71289 0.21462 0.06504 0.0
C304 C 0.61243 0.19507 0.09246 0.0
O305 O 0.6049 0.17116 0.07324 0.0
O306 O 0.65935 0.18867 0.01484 0.0
C307 C 0.72477 0.22227 0.09209 0.0
O308 O 0.71121 0.2123 0.11877 0.0
C309 C 0.70716 0.13152 0.08643 0.0
O310 O 0.73375 0.14676 0.07945 0.0
O311 O 0.63974 0.20812 0.0899 0.0
C312 C 0.96372 0.798 0.66741 0.0
O313 O 0.95202 0.7703 0.65782 0.0
O314 O 0.88118 0.7907 0.6382 0.0
Zn315 Zn 0.89835 0.80835 0.67961 0.0
O316 O 0.89334 0.77467 0.71363 0.0
C317 C 0.85892 0.85575 0.71494 0.0
O318 O 0.8678 0.84137 0.7416 0.0
O319 O 0.9448 0.81992 0.67687 0.0
C320 C 0.86653 0.76269 0.72139 0.0
O321 O 0.84021 0.77345 0.70797 0.0
C322 C 0.87437 0.7617 0.63123 0.0
O323 O 0.88243 0.73827 0.65078 0.0
O324 O 0.87033 0.84666 0.68815 0.0
C325 C 0.16873 0.9638 0.66203 0.0
O326 O 0.19815 0.95339 0.65846 0.0
O327 O 0.17556 0.87642 0.6331 0.0
Zn328 Zn 0.15896 0.89749 0.67324 0.0
O329 O 0.19253 0.89545 0.7075 0.0
C330 C 0.1114 0.86128 0.71201 0.0
O331 O 0.12587 0.87148 0.73811 0.0
O332 O 0.14646 0.9437 0.6671 0.0
C333 C 0.20385 0.8693 0.7184 0.0
O334 O 0.19276 0.84165 0.70798 0.0
C335 C 0.20368 0.86645 0.62712 0.0
O336 O 0.22739 0.8737 0.64649 0.0
O337 O 0.12088 0.87055 0.68453 0.0
C338 C -0.0077 0.16447 0.66741 0.0
O339 O 0.004 0.19218 0.65782 0.0
O340 O 0.07484 0.17177 0.6382 0.0
Zn341 Zn 0.05766 0.15412 0.67961 0.0
O342 O 0.06267 0.1878 0.71363 0.0
C343 C 0.0971 0.10673 0.71494 0.0
O344 O 0.08821 0.1211 0.7416 0.0
O345 O 0.01122 0.14256 0.67687 0.0
C346 C 0.08948 0.19979 0.72139 0.0
O347 O 0.1158 0.18903 0.70797 0.0
C348 C 0.08164 0.20077 0.63123 0.0
O349 O 0.07358 0.22421 0.65078 0.0
O350 O 0.08568 0.11581 0.68815 0.0
C351 C 0.78729 -0.00132 0.66203 0.0
O352 O 0.75786 0.00909 0.65846 0.0
O353 O 0.78046 0.08605 0.6331 0.0
Zn354 Zn 0.79705 0.06499 0.67324 0.0
O355 O 0.76348 0.06703 0.7075 0.0
C356 C 0.84461 0.1012 0.71201 0.0
O357 O 0.83015 0.091 0.73811 0.0
O358 O 0.80955 0.01878 0.6671 0.0
C359 C 0.75217 0.09317 0.7184 0.0
O360 O 0.76326 0.12083 0.70798 0.0
C361 C 0.75233 0.09602 0.62712 0.0
O362 O 0.72863 0.08878 0.64649 0.0
O363 O 0.83513 0.09192 0.68453 0.0
C364 C 0.96372 0.16447 0.29509 0.0
O365 O 0.95202 0.19218 0.30467 0.0
O366 O 0.88118 0.17177 0.32429 0.0
Zn367 Zn 0.89835 0.15412 0.28288 0.0
O368 O 0.89334 0.1878 0.24886 0.0
C369 C 0.85892 0.10673 0.24755 0.0
O370 O 0.8678 0.1211 0.22089 0.0
O371 O 0.9448 0.14256 0.28563 0.0
C372 C 0.86653 0.19979 0.2411 0.0
O373 O 0.84021 0.18903 0.25452 0.0
C374 C 0.87437 0.20077 0.33126 0.0
O375 O 0.88243 0.22421 0.31172 0.0
O376 O 0.87033 0.11581 0.27435 0.0
C377 C 0.78729 0.9638 0.30047 0.0
O378 O 0.75786 0.95339 0.30403 0.0
O379 O 0.78046 0.87642 0.3294 0.0
Zn380 Zn 0.79705 0.89749 0.28925 0.0
O381 O 0.76348 0.89545 0.25499 0.0
C382 C 0.84461 0.86128 0.25049 0.0
O383 O 0.83015 0.87148 0.22438 0.0
O384 O 0.80955 0.9437 0.29539 0.0
C385 C 0.75217 0.8693 0.24409 0.0
O386 O 0.76326 0.84165 0.25451 0.0
C387 C 0.75233 0.86645 0.33537 0.0
O388 O 0.72863 0.8737 0.31601 0.0
O389 O 0.83513 0.87055 0.27796 0.0
C390 C -0.0077 0.798 0.29509 0.0
O391 O 0.004 0.7703 0.30467 0.0
O392 O 0.07484 0.7907 0.32429 0.0
Zn393 Zn 0.05766 0.80835 0.28288 0.0
O394 O 0.06267 0.77467 0.24886 0.0
C395 C 0.0971 0.85575 0.24755 0.0
O396 O 0.08821 0.84137 0.22089 0.0
O397 O 0.01122 0.81992 0.28563 0.0
C398 C 0.08948 0.76269 0.2411 0.0
O399 O 0.1158 0.77345 0.25452 0.0
C400 C 0.08164 0.7617 0.33126 0.0
O401 O 0.07358 0.73827 0.31172 0.0
O402 O 0.08568 0.84666 0.27435 0.0
C403 C 0.16873 -0.00132 0.30047 0.0
O404 O 0.19815 0.00909 0.30403 0.0
O405 O 0.17556 0.08605 0.3294 0.0
Zn406 Zn 0.15896 0.06499 0.28925 0.0
O407 O 0.19253 0.06703 0.25499 0.0
C408 C 0.1114 0.1012 0.25049 0.0
O409 O 0.12587 0.091 0.22438 0.0
O410 O 0.14646 0.01878 0.29539 0.0
C411 C 0.20385 0.09317 0.24409 0.0
O412 O 0.19276 0.12083 0.25451 0.0
C413 C 0.20368 0.09602 0.33537 0.0
O414 O 0.22739 0.08878 0.31601 0.0
O415 O 0.12088 0.09192 0.27796 0.0
C416 C 0.6594 0.96145 0.79324 0.0
O417 O 0.65275 0.94995 0.76457 0.0
O418 O 0.63251 0.87603 0.78569 0.0
Zn419 Zn 0.67241 0.89562 0.80398 0.0
O420 O 0.70737 0.89243 0.77122 0.0
C421 C 0.70757 0.85824 0.85371 0.0
O422 O 0.73442 0.86762 0.84034 0.0
O423 O 0.66721 0.94222 0.81562 0.0
C424 C 0.71788 0.86614 0.75984 0.0
O425 O 0.70676 0.83862 0.77059 0.0
C426 C 0.62713 0.86657 0.75709 0.0
O427 O 0.6474 0.87326 0.73395 0.0
O428 O 0.68105 0.86838 0.84291 0.0
C429 C -0.00772 0.66739 0.79801 0.0
O430 O 0.00398 0.65782 0.7703 0.0
O431 O 0.07482 0.63819 0.79072 0.0
Zn432 Zn 0.05764 0.6796 0.80837 0.0
O433 O 0.06264 0.71362 0.77469 0.0
C434 C 0.09707 0.71493 0.85576 0.0
O435 O 0.08818 0.7416 0.84139 0.0
O436 O 0.0112 0.67685 0.81993 0.0
C437 C 0.08946 0.72138 0.7627 0.0
O438 O 0.11577 0.70796 0.77346 0.0
C439 C 0.08162 0.63122 0.76172 0.0
O440 O 0.07356 0.65076 0.73828 0.0
O441 O 0.08565 0.68814 0.84668 0.0
C442 C 0.29661 0.00103 0.79324 0.0
O443 O 0.30326 0.01253 0.76457 0.0
O444 O 0.3235 0.08645 0.78569 0.0
Zn445 Zn 0.2836 0.06685 0.80398 0.0
O446 O 0.24864 0.07004 0.77122 0.0
C447 C 0.24844 0.10423 0.85371 0.0
O448 O 0.22159 0.09485 0.84034 0.0
O449 O 0.28881 0.02026 0.81562 0.0
C450 C 0.23814 0.09633 0.75984 0.0
O451 O 0.24925 0.12385 0.77059 0.0
C452 C 0.32888 0.09591 0.75709 0.0
O453 O 0.30861 0.08922 0.73395 0.0
O454 O 0.27496 0.0941 0.84291 0.0
C455 C 0.96374 0.29508 0.79801 0.0
O456 O 0.95203 0.30466 0.7703 0.0
O457 O 0.88119 0.32428 0.79072 0.0
Zn458 Zn 0.89837 0.28287 0.80837 0.0
O459 O 0.89337 0.24885 0.77469 0.0
C460 C 0.85895 0.24754 0.85576 0.0
O461 O 0.86784 0.22088 0.84139 0.0
O462 O 0.94482 0.28563 0.81993 0.0
C463 C 0.86656 0.24109 0.7627 0.0
O464 O 0.84024 0.25451 0.77346 0.0
C465 C 0.87439 0.33126 0.76172 0.0
O466 O 0.88245 0.31171 0.73828 0.0
O467 O 0.87036 0.27433 0.84668 0.0
C468 C 0.6594 0.00103 0.16926 0.0
O469 O 0.65275 0.01253 0.19792 0.0
O470 O 0.63251 0.08645 0.1768 0.0
Zn471 Zn 0.67241 0.06685 0.15852 0.0
O472 O 0.70737 0.07004 0.19127 0.0
C473 C 0.70757 0.10423 0.10878 0.0
O474 O 0.73442 0.09485 0.12216 0.0
O475 O 0.66721 0.02026 0.14687 0.0
C476 C 0.71788 0.09633 0.20265 0.0
O477 O 0.70676 0.12385 0.1919 0.0
C478 C 0.62713 0.09591 0.2054 0.0
O479 O 0.6474 0.08922 0.22854 0.0
O480 O 0.68105 0.0941 0.11958 0.0
C481 C 0.96374 0.66739 0.16448 0.0
O482 O 0.95203 0.65782 0.19219 0.0
O483 O 0.88119 0.63819 0.17177 0.0
Zn484 Zn 0.89837 0.6796 0.15412 0.0
O485 O 0.89337 0.71362 0.1878 0.0
C486 C 0.85895 0.71493 0.10673 0.0
O487 O 0.86784 0.7416 0.12111 0.0
O488 O 0.94482 0.67685 0.14256 0.0
C489 C 0.86656 0.72138 0.19979 0.0
O490 O 0.84024 0.70796 0.18903 0.0
C491 C 0.87439 0.63122 0.20077 0.0
O492 O 0.88245 0.65076 0.22421 0.0
O493 O 0.87036 0.68814 0.11582 0.0
C494 C 0.29661 0.96145 0.16926 0.0
O495 O 0.30326 0.94995 0.19792 0.0
O496 O 0.3235 0.87603 0.1768 0.0
Zn497 Zn 0.2836 0.89562 0.15852 0.0
O498 O 0.24864 0.89243 0.19127 0.0
C499 C 0.24844 0.85824 0.10878 0.0
O500 O 0.22159 0.86762 0.12216 0.0
O501 O 0.28881 0.94222 0.14687 0.0
C502 C 0.23814 0.86614 0.20265 0.0
O503 O 0.24925 0.83862 0.1919 0.0
C504 C 0.32888 0.86657 0.2054 0.0
O505 O 0.30861 0.87326 0.22854 0.0
O506 O 0.27496 0.86838 0.11958 0.0
C507 C -0.00772 0.29508 0.16448 0.0
O508 O 0.00398 0.30466 0.19219 0.0
O509 O 0.07482 0.32428 0.17177 0.0
Zn510 Zn 0.05764 0.28287 0.15412 0.0
O511 O 0.06264 0.24885 0.1878 0.0
C512 C 0.09707 0.24754 0.10673 0.0
O513 O 0.08818 0.22088 0.12111 0.0
O514 O 0.0112 0.28563 0.14256 0.0
C515 C 0.08946 0.24109 0.19979 0.0
O516 O 0.11577 0.25451 0.18903 0.0
C517 C 0.08162 0.33126 0.20077 0.0
O518 O 0.07356 0.31171 0.22421 0.0
O519 O 0.08565 0.27433 0.11582 0.0
C520 C 0.78729 0.66202 0.96381 0.0
O521 O 0.75786 0.65846 0.95341 0.0
O522 O 0.78044 0.63308 0.87644 0.0
Zn523 Zn 0.79704 0.67322 0.89749 0.0
O524 O 0.76347 0.70749 0.89546 0.0
C525 C 0.8446 0.71199 0.86128 0.0
O526 O 0.83015 0.7381 0.87149 0.0
O527 O 0.80954 0.66709 0.94371 0.0
C528 C 0.75216 0.71839 0.86931 0.0
O529 O 0.76325 0.70797 0.84165 0.0
C530 C 0.75232 0.6271 0.86647 0.0
O531 O 0.72862 0.64648 0.8737 0.0
O532 O 0.83512 0.68451 0.87056 0.0
C533 C 0.78729 0.30045 -0.00132 0.0
O534 O 0.75786 0.30401 0.00908 0.0
O535 O 0.78044 0.32939 0.08605 0.0
Zn536 Zn 0.79704 0.28925 0.065 0.0
O537 O 0.76347 0.25498 0.06704 0.0
C538 C 0.8446 0.25049 0.10121 0.0
O539 O 0.83015 0.22438 0.091 0.0
O540 O 0.80954 0.29538 0.01879 0.0
C541 C 0.75216 0.24409 0.09318 0.0
O542 O 0.76325 0.2545 0.12084 0.0
C543 C 0.75232 0.33537 0.09602 0.0
O544 O 0.72862 0.31599 0.08879 0.0
O545 O 0.83512 0.27796 0.09194 0.0
C546 C 0.65941 0.79324 0.00104 0.0
O547 O 0.65276 0.76458 0.01254 0.0
O548 O 0.63254 0.78569 0.08645 0.0
Zn549 Zn 0.67243 0.80398 0.06686 0.0
O550 O 0.7074 0.77123 0.07006 0.0
C551 C 0.70758 0.85372 0.10424 0.0
O552 O 0.73443 0.84036 0.09485 0.0
O553 O 0.66723 0.81562 0.02026 0.0
C554 C 0.71791 0.75986 0.09635 0.0
O555 O 0.7068 0.77062 0.12386 0.0
C556 C 0.62716 0.75709 0.09592 0.0
O557 O 0.64745 0.73395 0.08923 0.0
O558 O 0.68106 0.84291 0.09411 0.0
C559 C 0.16873 0.66202 -0.00132 0.0
O560 O 0.19815 0.65846 0.00908 0.0
O561 O 0.17557 0.63308 0.08605 0.0
Zn562 Zn 0.15898 0.67322 0.065 0.0
O563 O 0.19254 0.70749 0.06704 0.0
C564 C 0.11141 0.71199 0.10121 0.0
O565 O 0.12587 0.7381 0.091 0.0
O566 O 0.14647 0.66709 0.01879 0.0
C567 C 0.20386 0.71839 0.09318 0.0
O568 O 0.19276 0.70797 0.12084 0.0
C569 C 0.2037 0.6271 0.09602 0.0
O570 O 0.2274 0.64648 0.08879 0.0
O571 O 0.1209 0.68451 0.09194 0.0
C572 C 0.2966 0.16923 0.00104 0.0
O573 O 0.30326 0.19789 0.01254 0.0
O574 O 0.32348 0.17679 0.08645 0.0
Zn575 Zn 0.28358 0.15849 0.06686 0.0
O576 O 0.24861 0.19124 0.07006 0.0
C577 C 0.24844 0.10875 0.10424 0.0
O578 O 0.22158 0.12211 0.09485 0.0
O579 O 0.28879 0.14685 0.02026 0.0
C580 C 0.2381 0.20261 0.09635 0.0
O581 O 0.24921 0.19186 0.12386 0.0
C582 C 0.32885 0.20539 0.09592 0.0
O583 O 0.30857 0.22852 0.08923 0.0
O584 O 0.27496 0.11956 0.09411 0.0
C585 C 0.16873 0.30045 0.96381 0.0
O586 O 0.19815 0.30401 0.95341 0.0
O587 O 0.17557 0.32939 0.87644 0.0
Zn588 Zn 0.15898 0.28925 0.89749 0.0
O589 O 0.19254 0.25498 0.89546 0.0
C590 C 0.11141 0.25049 0.86128 0.0
O591 O 0.12587 0.22438 0.87149 0.0
O592 O 0.14647 0.29538 0.94371 0.0
C593 C 0.20386 0.24409 0.86931 0.0
O594 O 0.19276 0.2545 0.84165 0.0
C595 C 0.2037 0.33537 0.86647 0.0
O596 O 0.2274 0.31599 0.8737 0.0
O597 O 0.1209 0.27796 0.87056 0.0
C598 C 0.65941 0.16923 0.96146 0.0
O599 O 0.65276 0.19789 0.94995 0.0
O600 O 0.63254 0.17679 0.87604 0.0
Zn601 Zn 0.67243 0.15849 0.89563 0.0
O602 O 0.7074 0.19124 0.89244 0.0
C603 C 0.70758 0.10875 0.85825 0.0
O604 O 0.73443 0.12211 0.86764 0.0
O605 O 0.66723 0.14685 0.94223 0.0
C606 C 0.71791 0.20261 0.86615 0.0
O607 O 0.7068 0.19186 0.83863 0.0
C608 C 0.62716 0.20539 0.86657 0.0
O609 O 0.64745 0.22852 0.87326 0.0
O610 O 0.68106 0.11956 0.86838 0.0
C611 C 0.2966 0.79324 0.96146 0.0
O612 O 0.30326 0.76458 0.94995 0.0
O613 O 0.32348 0.78569 0.87604 0.0
Zn614 Zn 0.28358 0.80398 0.89563 0.0
O615 O 0.24861 0.77123 0.89244 0.0
C616 C 0.24844 0.85372 0.85825 0.0
O617 O 0.22158 0.84036 0.86764 0.0
O618 O 0.28879 0.81562 0.94223 0.0
C619 C 0.2381 0.75986 0.86615 0.0
O620 O 0.24921 0.77062 0.83863 0.0
C621 C 0.32885 0.75709 0.86657 0.0
O622 O 0.30857 0.73395 0.87326 0.0
O623 O 0.27496 0.84291 0.86838 0.0
C624 C 0.80049 0.49783 0.79197 0.0
O625 O 0.82326 0.50686 0.77218 0.0
O626 O 0.8293 0.57753 0.77945 0.0
Zn627 Zn 0.78394 0.56463 0.78988 0.0
O628 O 0.75391 0.57047 0.75222 0.0
C629 C 0.74864 0.60284 0.84115 0.0
O630 O 0.72048 0.59588 0.8291 0.0
O631 O 0.78132 0.51855 0.80327 0.0
C632 C 0.74011 0.59605 0.74289 0.0
O633 O 0.74468 0.62317 0.75842 0.0
C634 C 0.83507 0.60127 0.76111 0.0
O635 O 0.81178 0.61383 0.74412 0.0
O636 O 0.7739 0.59232 0.82797 0.0
C637 C 0.15552 0.46465 0.79197 0.0
O638 O 0.13276 0.45562 0.77218 0.0
O639 O 0.12671 0.38495 0.77945 0.0
Zn640 Zn 0.17207 0.39784 0.78988 0.0
O641 O 0.2021 0.392 0.75222 0.0
C642 C 0.20737 0.35963 0.84115 0.0
O643 O 0.23553 0.36659 0.8291 0.0
O644 O 0.17469 0.44392 0.80327 0.0
C645 C 0.2159 0.36642 0.74289 0.0
O646 O 0.21134 0.3393 0.75842 0.0
C647 C 0.12094 0.36121 0.76111 0.0
O648 O 0.14424 0.34865 0.74412 0.0
O649 O 0.18211 0.37015 0.82797 0.0
C650 C 0.15552 0.49783 0.17053 0.0
O651 O 0.13276 0.50686 0.19031 0.0
O652 O 0.12671 0.57753 0.18304 0.0
Zn653 Zn 0.17207 0.56463 0.17261 0.0
O654 O 0.2021 0.57047 0.21027 0.0
C655 C 0.20737 0.60284 0.12134 0.0
O656 O 0.23553 0.59588 0.13339 0.0
O657 O 0.17469 0.51855 0.15922 0.0
C658 C 0.2159 0.59605 0.2196 0.0
O659 O 0.21134 0.62317 0.20407 0.0
C660 C 0.12094 0.60127 0.20138 0.0
O661 O 0.14424 0.61383 0.21837 0.0
O662 O 0.18211 0.59232 0.13453 0.0
C663 C 0.80049 0.46465 0.17053 0.0
O664 O 0.82326 0.45562 0.19031 0.0
O665 O 0.8293 0.38495 0.18304 0.0
Zn666 Zn 0.78394 0.39784 0.17261 0.0
O667 O 0.75391 0.392 0.21027 0.0
C668 C 0.74864 0.35963 0.12134 0.0
O669 O 0.72048 0.36659 0.13339 0.0
O670 O 0.78132 0.44392 0.15922 0.0
C671 C 0.74011 0.36642 0.2196 0.0
O672 O 0.74468 0.3393 0.20407 0.0
C673 C 0.83507 0.36121 0.20138 0.0
O674 O 0.81178 0.34865 0.21837 0.0
O675 O 0.7739 0.37015 0.13453 0.0
C676 C 0.28247 0.50476 0.66524 0.0
O677 O 0.2602 0.51341 0.64473 0.0
O678 O 0.27012 0.58991 0.64 0.0
Zn679 Zn 0.28028 0.57203 0.68417 0.0
O680 O 0.24177 0.57452 0.71316 0.0
C681 C 0.33956 0.60549 0.68423 0.0
O682 O 0.3424 0.58958 0.65708 0.0
O683 O 0.29516 0.52578 0.68338 0.0
C684 C 0.22675 0.60032 0.71956 0.0
O685 O 0.23604 0.62766 0.70681 0.0
C686 C 0.24284 0.59741 0.62872 0.0
O687 O 0.21684 0.59055 0.645 0.0
O688 O 0.31508 0.60077 0.70173 0.0
C689 C 0.67355 0.45771 0.66524 0.0
O690 O 0.69581 0.44906 0.64473 0.0
O691 O 0.68589 0.37257 0.64 0.0
Zn692 Zn 0.67573 0.39045 0.68417 0.0
O693 O 0.71425 0.38795 0.71316 0.0
C694 C 0.61646 0.35698 0.68423 0.0
O695 O 0.61361 0.37289 0.65708 0.0
O696 O 0.66085 0.43669 0.68338 0.0
C697 C 0.72926 0.36216 0.71956 0.0
O698 O 0.71997 0.33481 0.70681 0.0
C699 C 0.71317 0.36506 0.62872 0.0
O700 O 0.73917 0.37193 0.645 0.0
O701 O 0.64093 0.3617 0.70173 0.0
C702 C 0.28247 0.45771 0.29725 0.0
O703 O 0.2602 0.44906 0.31776 0.0
O704 O 0.27012 0.37257 0.32249 0.0
Zn705 Zn 0.28028 0.39045 0.27832 0.0
O706 O 0.24177 0.38795 0.24934 0.0
C707 C 0.33956 0.35698 0.27826 0.0
O708 O 0.3424 0.37289 0.30542 0.0
O709 O 0.29516 0.43669 0.27911 0.0
C710 C 0.22675 0.36216 0.24293 0.0
O711 O 0.23604 0.33481 0.25568 0.0
C712 C 0.24284 0.36506 0.33377 0.0
O713 O 0.21684 0.37193 0.3175 0.0
O714 O 0.31508 0.3617 0.26077 0.0
C715 C 0.67355 0.50476 0.29725 0.0
O716 O 0.69581 0.51341 0.31776 0.0
O717 O 0.68589 0.58991 0.32249 0.0
Zn718 Zn 0.67573 0.57203 0.27832 0.0
O719 O 0.71425 0.57452 0.24934 0.0
C720 C 0.61646 0.60549 0.27826 0.0
O721 O 0.61361 0.58958 0.30542 0.0
O722 O 0.66085 0.52578 0.27911 0.0
C723 C 0.72926 0.60032 0.24293 0.0
O724 O 0.71997 0.62766 0.25568 0.0
C725 C 0.71317 0.59741 0.33377 0.0
O726 O 0.73917 0.59055 0.3175 0.0
O727 O 0.64093 0.60077 0.26077 0.0
C728 C 0.15552 0.79194 0.49785 0.0
O729 O 0.13276 0.77215 0.50687 0.0
O730 O 0.1267 0.77943 0.57754 0.0
Zn731 Zn 0.17206 0.78986 0.56465 0.0
O732 O 0.20209 0.7522 0.57049 0.0
C733 C 0.20736 0.84114 0.60286 0.0
O734 O 0.23552 0.82909 0.59589 0.0
O735 O 0.17468 0.80325 0.51858 0.0
C736 C 0.2159 0.74287 0.59607 0.0
O737 O 0.21134 0.7584 0.62319 0.0
C738 C 0.12093 0.7611 0.60129 0.0
O739 O 0.14423 0.74412 0.61386 0.0
O740 O 0.1821 0.82794 0.59234 0.0
C741 C 0.15552 0.17053 0.46465 0.0
O742 O 0.13276 0.19032 0.45562 0.0
O743 O 0.1267 0.18304 0.38495 0.0
Zn744 Zn 0.17206 0.17261 0.39784 0.0
O745 O 0.20209 0.21027 0.392 0.0
C746 C 0.20736 0.12134 0.35963 0.0
O747 O 0.23552 0.13338 0.36661 0.0
O748 O 0.17468 0.15922 0.44392 0.0
C749 C 0.2159 0.2196 0.36643 0.0
O750 O 0.21134 0.20408 0.3393 0.0
C751 C 0.12093 0.20138 0.3612 0.0
O752 O 0.14423 0.21835 0.34863 0.0
O753 O 0.1821 0.13453 0.37015 0.0
C754 C 0.28246 0.66523 0.45772 0.0
O755 O 0.26019 0.64473 0.44906 0.0
O756 O 0.27013 0.63999 0.37256 0.0
Zn757 Zn 0.28029 0.68416 0.39045 0.0
O758 O 0.24178 0.71315 0.38796 0.0
C759 C 0.33957 0.68422 0.35699 0.0
O760 O 0.3424 0.65706 0.37289 0.0
O761 O 0.29517 0.68336 0.4367 0.0
C762 C 0.22677 0.71956 0.36216 0.0
O763 O 0.23606 0.70682 0.33481 0.0
C764 C 0.24285 0.62871 0.36505 0.0
O765 O 0.21686 0.64499 0.37192 0.0
O766 O 0.3151 0.70172 0.36171 0.0
C767 C 0.80049 0.79194 0.46465 0.0
O768 O 0.82325 0.77215 0.45562 0.0
O769 O 0.82931 0.77943 0.38495 0.0
Zn770 Zn 0.78396 0.78986 0.39784 0.0
O771 O 0.75393 0.7522 0.392 0.0
C772 C 0.74865 0.84114 0.35963 0.0
O773 O 0.72049 0.82909 0.36661 0.0
O774 O 0.78133 0.80325 0.44392 0.0
C775 C 0.74012 0.74287 0.36643 0.0
O776 O 0.74468 0.7584 0.3393 0.0
C777 C 0.83508 0.7611 0.3612 0.0
O778 O 0.81179 0.74412 0.34863 0.0
O779 O 0.77391 0.82794 0.37015 0.0
C780 C 0.67355 0.29724 0.45772 0.0
O781 O 0.69582 0.31775 0.44906 0.0
O782 O 0.68588 0.32248 0.37256 0.0
Zn783 Zn 0.67572 0.27831 0.39045 0.0
O784 O 0.71423 0.24933 0.38796 0.0
C785 C 0.61645 0.27826 0.35699 0.0
O786 O 0.61361 0.30542 0.37289 0.0
O787 O 0.66084 0.27911 0.4367 0.0
C788 C 0.72924 0.24291 0.36216 0.0
O789 O 0.71995 0.25565 0.33481 0.0
C790 C 0.71316 0.33376 0.36505 0.0
O791 O 0.73916 0.31748 0.37192 0.0
O792 O 0.64091 0.26076 0.36171 0.0
C793 C 0.80049 0.17053 0.49785 0.0
O794 O 0.82325 0.19032 0.50687 0.0
O795 O 0.82931 0.18304 0.57754 0.0
Zn796 Zn 0.78396 0.17261 0.56465 0.0
O797 O 0.75393 0.21027 0.57049 0.0
C798 C 0.74865 0.12134 0.60286 0.0
O799 O 0.72049 0.13338 0.59589 0.0
O800 O 0.78133 0.15922 0.51858 0.0
C801 C 0.74012 0.2196 0.59607 0.0
O802 O 0.74468 0.20408 0.62319 0.0
C803 C 0.83508 0.20138 0.60129 0.0
O804 O 0.81179 0.21835 0.61386 0.0
O805 O 0.77391 0.13453 0.59234 0.0
C806 C 0.28246 0.29724 0.50478 0.0
O807 O 0.26019 0.31775 0.51343 0.0
O808 O 0.27013 0.32248 0.58993 0.0
Zn809 Zn 0.28029 0.27831 0.57204 0.0
O810 O 0.24178 0.24933 0.57454 0.0
C811 C 0.33957 0.27826 0.6055 0.0
O812 O 0.3424 0.30542 0.5896 0.0
O813 O 0.29517 0.27911 0.52579 0.0
C814 C 0.22677 0.24291 0.60033 0.0
O815 O 0.23606 0.25565 0.62768 0.0
C816 C 0.24285 0.33376 0.59744 0.0
O817 O 0.21686 0.31748 0.59058 0.0
O818 O 0.3151 0.26076 0.60078 0.0
C819 C 0.67355 0.66523 0.50478 0.0
O820 O 0.69582 0.64473 0.51343 0.0
O821 O 0.68588 0.63999 0.58993 0.0
Zn822 Zn 0.67572 0.68416 0.57204 0.0
O823 O 0.71423 0.71315 0.57454 0.0
C824 C 0.61645 0.68422 0.6055 0.0
O825 O 0.61361 0.65706 0.5896 0.0
O826 O 0.66084 0.68336 0.52579 0.0
C827 C 0.72924 0.71956 0.60033 0.0
O828 O 0.71995 0.70682 0.62768 0.0
C829 C 0.71316 0.62871 0.59744 0.0
O830 O 0.73916 0.64499 0.59058 0.0
O831 O 0.64091 0.70172 0.60078 0.0
C832 C 0.1612 0.46369 0.16446 0.0
O833 O 0.18644 0.45456 0.14805 0.0
O834 O 0.17031 0.38497 0.12963 0.0
Zn835 Zn 0.15693 0.39668 0.17481 0.0
O836 O 0.19243 0.38942 0.20692 0.0
C837 C 0.10487 0.357 0.20626 0.0
O838 O 0.1148 0.36414 0.23535 0.0
O839 O 0.14364 0.4427 0.17776 0.0
C840 C 0.19931 0.3632 0.22103 0.0
O841 O 0.18255 0.33714 0.21521 0.0
C842 C 0.19018 0.3624 0.12465 0.0
O843 O 0.20646 0.35059 0.1489 0.0
O844 O 0.11908 0.36827 0.18178 0.0
C845 C 0.79481 0.49879 0.16446 0.0
O846 O 0.76957 0.50791 0.14805 0.0
O847 O 0.7857 0.57751 0.12963 0.0
Zn848 Zn 0.79909 0.5658 0.17481 0.0
O849 O 0.76359 0.57305 0.20692 0.0
C850 C 0.85115 0.60547 0.20626 0.0
O851 O 0.84121 0.59833 0.23535 0.0
O852 O 0.81237 0.51977 0.17776 0.0
C853 C 0.7567 0.59927 0.22103 0.0
O854 O 0.77346 0.62533 0.21521 0.0
C855 C 0.76583 0.60007 0.12465 0.0
O856 O 0.74955 0.61189 0.1489 0.0
O857 O 0.83693 0.59421 0.18178 0.0
C858 C 0.79481 0.46369 0.79803 0.0
O859 O 0.76957 0.45456 0.81444 0.0
O860 O 0.7857 0.38497 0.83286 0.0
Zn861 Zn 0.79909 0.39668 0.78769 0.0
O862 O 0.76359 0.38942 0.75557 0.0
C863 C 0.85115 0.357 0.75624 0.0
O864 O 0.84121 0.36414 0.72714 0.0
O865 O 0.81237 0.4427 0.78474 0.0
C866 C 0.7567 0.3632 0.74146 0.0
O867 O 0.77346 0.33714 0.74728 0.0
C868 C 0.76583 0.3624 0.83784 0.0
O869 O 0.74955 0.35059 0.81359 0.0
O870 O 0.83693 0.36827 0.78071 0.0
C871 C 0.1612 0.49879 0.79803 0.0
O872 O 0.18644 0.50791 0.81444 0.0
O873 O 0.17031 0.57751 0.83286 0.0
Zn874 Zn 0.15693 0.5658 0.78769 0.0
O875 O 0.19243 0.57305 0.75557 0.0
C876 C 0.10487 0.60547 0.75624 0.0
O877 O 0.1148 0.59833 0.72714 0.0
O878 O 0.14364 0.51977 0.78474 0.0
C879 C 0.19931 0.59927 0.74146 0.0
O880 O 0.18255 0.62533 0.74728 0.0
C881 C 0.19018 0.60007 0.83784 0.0
O882 O 0.20646 0.61189 0.81359 0.0
O883 O 0.11908 0.59421 0.78071 0.0
C884 C 0.6666 0.47051 0.29204 0.0
O885 O 0.64806 0.46169 0.26812 0.0
O886 O 0.63535 0.38759 0.28262 0.0
Zn887 Zn 0.67951 0.40235 0.29532 0.0
O888 O 0.71111 0.39494 0.25928 0.0
C889 C 0.71462 0.36136 0.34303 0.0
O890 O 0.74168 0.3695 0.32927 0.0
O891 O 0.68149 0.44924 0.30807 0.0
C892 C 0.71851 0.36777 0.24736 0.0
O893 O 0.70565 0.34136 0.25891 0.0
C894 C 0.62875 0.37228 0.25701 0.0
O895 O 0.64824 0.37429 0.2324 0.0
O896 O 0.68851 0.37332 0.33309 0.0
C897 C 0.28942 0.49196 0.29204 0.0
O898 O 0.30795 0.50079 0.26812 0.0
O899 O 0.32067 0.57488 0.28262 0.0
Zn900 Zn 0.2765 0.56012 0.29532 0.0
O901 O 0.24491 0.56753 0.25928 0.0
C902 C 0.2414 0.60111 0.34303 0.0
O903 O 0.21434 0.59298 0.32927 0.0
O904 O 0.27453 0.51324 0.30807 0.0
C905 C 0.2375 0.5947 0.24736 0.0
O906 O 0.25036 0.62111 0.25891 0.0
C907 C 0.32727 0.5902 0.25701 0.0
O908 O 0.30777 0.58818 0.2324 0.0
O909 O 0.2675 0.58915 0.33309 0.0
C910 C 0.6666 0.49196 0.67045 0.0
O911 O 0.64806 0.50079 0.69437 0.0
O912 O 0.63535 0.57488 0.67987 0.0
Zn913 Zn 0.67951 0.56012 0.66717 0.0
O914 O 0.71111 0.56753 0.70321 0.0
C915 C 0.71462 0.60111 0.61946 0.0
O916 O 0.74168 0.59298 0.63322 0.0
O917 O 0.68149 0.51324 0.65442 0.0
C918 C 0.71851 0.5947 0.71513 0.0
O919 O 0.70565 0.62111 0.70358 0.0
C920 C 0.62875 0.5902 0.70548 0.0
O921 O 0.64824 0.58818 0.73009 0.0
O922 O 0.68851 0.58915 0.6294 0.0
C923 C 0.28942 0.47051 0.67045 0.0
O924 O 0.30795 0.46169 0.69437 0.0
O925 O 0.32067 0.38759 0.67987 0.0
Zn926 Zn 0.2765 0.40235 0.66717 0.0
O927 O 0.24491 0.39494 0.70321 0.0
C928 C 0.2414 0.36136 0.61946 0.0
O929 O 0.21434 0.3695 0.63322 0.0
O930 O 0.27453 0.44924 0.65442 0.0
C931 C 0.2375 0.36777 0.71513 0.0
O932 O 0.25036 0.34136 0.70358 0.0
C933 C 0.32727 0.37228 0.70548 0.0
O934 O 0.30777 0.37429 0.73009 0.0
O935 O 0.2675 0.37332 0.6294 0.0
C936 C 0.79481 0.16446 0.46371 0.0
O937 O 0.76957 0.14804 0.45458 0.0
O938 O 0.7857 0.12962 0.38499 0.0
Zn939 Zn 0.79908 0.1748 0.39669 0.0
O940 O 0.76357 0.20691 0.38943 0.0
C941 C 0.85113 0.20625 0.35701 0.0
O942 O 0.84119 0.23535 0.36415 0.0
O943 O 0.81236 0.17776 0.44272 0.0
C944 C 0.75668 0.22101 0.36321 0.0
O945 O 0.77344 0.21519 0.33715 0.0
C946 C 0.76582 0.12464 0.36243 0.0
O947 O 0.74953 0.14888 0.35062 0.0
O948 O 0.83692 0.18177 0.36828 0.0
C949 C 0.79481 0.79801 0.49879 0.0
O950 O 0.76957 0.81443 0.50791 0.0
O951 O 0.7857 0.83285 0.5775 0.0
Zn952 Zn 0.79908 0.78767 0.5658 0.0
O953 O 0.76357 0.75556 0.57306 0.0
C954 C 0.85113 0.75622 0.60548 0.0
O955 O 0.84119 0.72713 0.59834 0.0
O956 O 0.81236 0.78471 0.51977 0.0
C957 C 0.75668 0.74146 0.59928 0.0
O958 O 0.77344 0.74729 0.62534 0.0
C959 C 0.76582 0.83784 0.60006 0.0
O960 O 0.74953 0.81359 0.61187 0.0
O961 O 0.83692 0.7807 0.59421 0.0
C962 C 0.6666 0.29204 0.49197 0.0
O963 O 0.64806 0.26814 0.5008 0.0
O964 O 0.63536 0.28263 0.57489 0.0
Zn965 Zn 0.67953 0.29533 0.56013 0.0
O966 O 0.71112 0.25929 0.56754 0.0
C967 C 0.71463 0.34304 0.60111 0.0
O968 O 0.74169 0.32928 0.59298 0.0
O969 O 0.6815 0.30807 0.51324 0.0
C970 C 0.71852 0.24737 0.59472 0.0
O971 O 0.70566 0.25891 0.62112 0.0
C972 C 0.62876 0.25702 0.5902 0.0
O973 O 0.64825 0.23241 0.58818 0.0
O974 O 0.68853 0.3331 0.58915 0.0
C975 C 0.1612 0.16446 0.49879 0.0
O976 O 0.18644 0.14804 0.50791 0.0
O977 O 0.17032 0.12962 0.5775 0.0
Zn978 Zn 0.15694 0.1748 0.5658 0.0
O979 O 0.19244 0.20691 0.57306 0.0
C980 C 0.10488 0.20625 0.60548 0.0
O981 O 0.11482 0.23535 0.59834 0.0
O982 O 0.14365 0.17776 0.51977 0.0
C983 C 0.19933 0.22101 0.59928 0.0
O984 O 0.18257 0.21519 0.62534 0.0
C985 C 0.19019 0.12464 0.60006 0.0
O986 O 0.20649 0.14888 0.61187 0.0
O987 O 0.1191 0.18177 0.59421 0.0
C988 C 0.28941 0.67043 0.49197 0.0
O989 O 0.30796 0.69434 0.5008 0.0
O990 O 0.32065 0.67984 0.57489 0.0
Zn991 Zn 0.27649 0.66714 0.56013 0.0
O992 O 0.24489 0.70318 0.56754 0.0
C993 C 0.24138 0.61943 0.60111 0.0
O994 O 0.21432 0.63319 0.59298 0.0
O995 O 0.27451 0.65441 0.51324 0.0
C996 C 0.2375 0.71511 0.59472 0.0
O997 O 0.25036 0.70356 0.62112 0.0
C998 C 0.32725 0.70545 0.5902 0.0
O999 O 0.30777 0.73007 0.58818 0.0
O1000 O 0.26749 0.62937 0.58915 0.0
C1001 C 0.1612 0.79801 0.46371 0.0
O1002 O 0.18644 0.81443 0.45458 0.0
O1003 O 0.17032 0.83285 0.38499 0.0
Zn1004 Zn 0.15694 0.78767 0.39669 0.0
O1005 O 0.19244 0.75556 0.38943 0.0
C1006 C 0.10488 0.75622 0.35701 0.0
O1007 O 0.11482 0.72713 0.36415 0.0
O1008 O 0.14365 0.78471 0.44272 0.0
C1009 C 0.19933 0.74146 0.36321 0.0
O1010 O 0.18257 0.74729 0.33715 0.0
C1011 C 0.19019 0.83784 0.36243 0.0
O1012 O 0.20649 0.81359 0.35062 0.0
O1013 O 0.1191 0.7807 0.36828 0.0
C1014 C 0.6666 0.67043 0.47053 0.0
O1015 O 0.64806 0.69434 0.46169 0.0
O1016 O 0.63536 0.67984 0.3876 0.0
Zn1017 Zn 0.67953 0.66714 0.40236 0.0
O1018 O 0.71112 0.70318 0.39495 0.0
C1019 C 0.71463 0.61943 0.36138 0.0
O1020 O 0.74169 0.63319 0.36951 0.0
O1021 O 0.6815 0.65441 0.44925 0.0
C1022 C 0.71852 0.71511 0.36777 0.0
O1023 O 0.70566 0.70356 0.34137 0.0
C1024 C 0.62876 0.70545 0.37229 0.0
O1025 O 0.64825 0.73007 0.37431 0.0
O1026 O 0.68853 0.62937 0.37334 0.0
C1027 C 0.28941 0.29204 0.47053 0.0
O1028 O 0.30796 0.26814 0.46169 0.0
O1029 O 0.32065 0.28263 0.3876 0.0
Zn1030 Zn 0.27649 0.29533 0.40236 0.0
O1031 O 0.24489 0.25929 0.39495 0.0
C1032 C 0.24138 0.34304 0.36138 0.0
O1033 O 0.21432 0.32928 0.36951 0.0
O1034 O 0.27451 0.30807 0.44925 0.0
C1035 C 0.2375 0.24737 0.36777 0.0
O1036 O 0.25036 0.25891 0.34137 0.0
C1037 C 0.32725 0.25702 0.37229 0.0
O1038 O 0.30777 0.23241 0.37431 0.0
O1039 O 0.26749 0.3331 0.37334 0.0
C1040 C 0.49485 0.16408 0.79191 0.0
O1041 O 0.50299 0.14396 0.76896 0.0
O1042 O 0.57239 0.1294 0.78238 0.0
Zn1043 Zn 0.5616 0.17571 0.79228 0.0
O1044 O 0.56819 0.20505 0.75402 0.0
C1045 C 0.60231 0.21009 0.8422 0.0
O1046 O 0.59637 0.23864 0.83009 0.0
O1047 O 0.51625 0.18012 0.80633 0.0
C1048 C 0.59438 0.21718 0.74443 0.0
O1049 O 0.621 0.21109 0.76 0.0
C1050 C 0.59408 0.12206 0.76231 0.0
O1051 O 0.60567 0.14434 0.74325 0.0
O1052 O 0.59031 0.18508 0.82957 0.0
C1053 C 0.46116 0.7984 0.79191 0.0
O1054 O 0.45303 0.81851 0.76896 0.0
O1055 O 0.38363 0.83308 0.78238 0.0
Zn1056 Zn 0.39441 0.78677 0.79228 0.0
O1057 O 0.38782 0.75742 0.75402 0.0
C1058 C 0.35371 0.75239 0.8422 0.0
O1059 O 0.35964 0.72384 0.83009 0.0
O1060 O 0.43977 0.78235 0.80633 0.0
C1061 C 0.36163 0.74529 0.74443 0.0
O1062 O 0.33501 0.75138 0.76 0.0
C1063 C 0.36193 0.84042 0.76231 0.0
O1064 O 0.35034 0.81813 0.74325 0.0
O1065 O 0.3657 0.7774 0.82957 0.0
C1066 C 0.49485 0.7984 0.17059 0.0
O1067 O 0.50299 0.81851 0.19353 0.0
O1068 O 0.57239 0.83308 0.18011 0.0
Zn1069 Zn 0.5616 0.78677 0.17021 0.0
O1070 O 0.56819 0.75742 0.20847 0.0
C1071 C 0.60231 0.75239 0.12029 0.0
O1072 O 0.59637 0.72384 0.1324 0.0
O1073 O 0.51625 0.78235 0.15616 0.0
C1074 C 0.59438 0.74529 0.21806 0.0
O1075 O 0.621 0.75138 0.20249 0.0
C1076 C 0.59408 0.84042 0.20018 0.0
O1077 O 0.60567 0.81813 0.21925 0.0
O1078 O 0.59031 0.7774 0.13292 0.0
C1079 C 0.46116 0.16408 0.17059 0.0
O1080 O 0.45303 0.14396 0.19353 0.0
O1081 O 0.38363 0.1294 0.18011 0.0
Zn1082 Zn 0.39441 0.17571 0.17021 0.0
O1083 O 0.38782 0.20505 0.20847 0.0
C1084 C 0.35371 0.21009 0.12029 0.0
O1085 O 0.35964 0.23864 0.1324 0.0
O1086 O 0.43977 0.18012 0.15616 0.0
C1087 C 0.36163 0.21718 0.21806 0.0
O1088 O 0.33501 0.21109 0.20249 0.0
C1089 C 0.36193 0.12206 0.20018 0.0
O1090 O 0.35034 0.14434 0.21925 0.0
O1091 O 0.3657 0.18508 0.13292 0.0
C1092 C 0.46058 0.29015 0.66979 0.0
O1093 O 0.44767 0.26854 0.65076 0.0
O1094 O 0.37744 0.29503 0.64398 0.0
Zn1095 Zn 0.39526 0.29956 0.68928 0.0
O1096 O 0.38771 0.2599 0.71688 0.0
C1097 C 0.34447 0.3421 0.70081 0.0
O1098 O 0.33045 0.31941 0.68405 0.0
O1099 O 0.44281 0.30699 0.68794 0.0
C1100 C 0.36137 0.24703 0.72514 0.0
O1101 O 0.33417 0.25954 0.71567 0.0
C1102 C 0.36028 0.27213 0.63334 0.0
O1103 O 0.35589 0.24629 0.65091 0.0
O1104 O 0.37381 0.33921 0.70802 0.0
C1105 C 0.49543 0.67233 0.66979 0.0
O1106 O 0.50834 0.69394 0.65076 0.0
O1107 O 0.57857 0.66744 0.64398 0.0
Zn1108 Zn 0.56076 0.66292 0.68928 0.0
O1109 O 0.5683 0.70257 0.71688 0.0
C1110 C 0.61155 0.62037 0.70081 0.0
O1111 O 0.62557 0.64307 0.68405 0.0
O1112 O 0.51321 0.65548 0.68794 0.0
C1113 C 0.59464 0.71545 0.72514 0.0
O1114 O 0.62184 0.70293 0.71567 0.0
C1115 C 0.59573 0.69034 0.63334 0.0
O1116 O 0.60013 0.71618 0.65091 0.0
O1117 O 0.58221 0.62326 0.70802 0.0
C1118 C 0.49543 0.29015 0.2927 0.0
O1119 O 0.50834 0.26854 0.31173 0.0
O1120 O 0.57857 0.29503 0.31851 0.0
Zn1121 Zn 0.56076 0.29956 0.27321 0.0
O1122 O 0.5683 0.2599 0.24561 0.0
C1123 C 0.61155 0.3421 0.26168 0.0
O1124 O 0.62557 0.31941 0.27844 0.0
O1125 O 0.51321 0.30699 0.27455 0.0
C1126 C 0.59464 0.24703 0.23735 0.0
O1127 O 0.62184 0.25954 0.24682 0.0
C1128 C 0.59573 0.27213 0.32916 0.0
O1129 O 0.60013 0.24629 0.31158 0.0
O1130 O 0.58221 0.33921 0.25448 0.0
C1131 C 0.46058 0.67233 0.2927 0.0
O1132 O 0.44767 0.69394 0.31173 0.0
O1133 O 0.37744 0.66744 0.31851 0.0
Zn1134 Zn 0.39526 0.66292 0.27321 0.0
O1135 O 0.38771 0.70257 0.24561 0.0
C1136 C 0.34447 0.62037 0.26168 0.0
O1137 O 0.33045 0.64307 0.27844 0.0
O1138 O 0.44281 0.65548 0.27455 0.0
C1139 C 0.36137 0.71545 0.23735 0.0
O1140 O 0.33417 0.70293 0.24682 0.0
C1141 C 0.36028 0.69034 0.32916 0.0
O1142 O 0.35589 0.71618 0.31158 0.0
O1143 O 0.37381 0.62326 0.25448 0.0
C1144 C 0.46118 0.79189 0.16408 0.0
O1145 O 0.45305 0.76894 0.14396 0.0
O1146 O 0.38364 0.78237 0.1294 0.0
Zn1147 Zn 0.39443 0.79227 0.17571 0.0
O1148 O 0.38784 0.75401 0.20505 0.0
C1149 C 0.35374 0.84219 0.21009 0.0
O1150 O 0.35969 0.83009 0.23865 0.0
O1151 O 0.43979 0.80632 0.18012 0.0
C1152 C 0.36166 0.74442 0.21719 0.0
O1153 O 0.33504 0.76001 0.21111 0.0
C1154 C 0.36194 0.7623 0.12206 0.0
O1155 O 0.35035 0.74325 0.14435 0.0
O1156 O 0.36573 0.82955 0.18508 0.0
C1157 C 0.49483 0.17059 0.16408 0.0
O1158 O 0.50297 0.19354 0.14396 0.0
O1159 O 0.57237 0.18011 0.1294 0.0
Zn1160 Zn 0.56158 0.17021 0.17571 0.0
O1161 O 0.56817 0.20847 0.20505 0.0
C1162 C 0.60227 0.12028 0.21009 0.0
O1163 O 0.59632 0.13238 0.23865 0.0
O1164 O 0.51623 0.15616 0.18012 0.0
C1165 C 0.59436 0.21805 0.21719 0.0
O1166 O 0.62098 0.20247 0.21111 0.0
C1167 C 0.59407 0.20017 0.12206 0.0
O1168 O 0.60567 0.21923 0.14435 0.0
O1169 O 0.59029 0.13292 0.18508 0.0
C1170 C 0.46118 0.17059 0.79842 0.0
O1171 O 0.45305 0.19354 0.81853 0.0
O1172 O 0.38364 0.18011 0.8331 0.0
Zn1173 Zn 0.39443 0.17021 0.78678 0.0
O1174 O 0.38784 0.20847 0.75744 0.0
C1175 C 0.35374 0.12028 0.7524 0.0
O1176 O 0.35969 0.13238 0.72385 0.0
O1177 O 0.43979 0.15616 0.78238 0.0
C1178 C 0.36166 0.21805 0.7453 0.0
O1179 O 0.33504 0.20247 0.75138 0.0
C1180 C 0.36194 0.20017 0.84043 0.0
O1181 O 0.35035 0.21923 0.81814 0.0
O1182 O 0.36573 0.13292 0.77741 0.0
C1183 C 0.49483 0.79189 0.79842 0.0
O1184 O 0.50297 0.76894 0.81853 0.0
O1185 O 0.57237 0.78237 0.8331 0.0
Zn1186 Zn 0.56158 0.79227 0.78678 0.0
O1187 O 0.56817 0.75401 0.75744 0.0
C1188 C 0.60227 0.84219 0.7524 0.0
O1189 O 0.59632 0.83009 0.72385 0.0
O1190 O 0.51623 0.80632 0.78238 0.0
C1191 C 0.59436 0.74442 0.7453 0.0
O1192 O 0.62098 0.76001 0.75138 0.0
C1193 C 0.59407 0.7623 0.84043 0.0
O1194 O 0.60567 0.74325 0.81814 0.0
O1195 O 0.59029 0.82955 0.77741 0.0
C1196 C 0.49544 0.66978 0.29015 0.0
O1197 O 0.50835 0.65074 0.26855 0.0
O1198 O 0.57857 0.64396 0.29503 0.0
Zn1199 Zn 0.56077 0.68927 0.29956 0.0
O1200 O 0.56832 0.71686 0.25991 0.0
C1201 C 0.61156 0.70078 0.34211 0.0
O1202 O 0.62557 0.68401 0.31942 0.0
O1203 O 0.51322 0.68793 0.307 0.0
C1204 C 0.59466 0.72514 0.24704 0.0
O1205 O 0.62186 0.71568 0.25957 0.0
C1206 C 0.59574 0.63333 0.27214 0.0
O1207 O 0.60015 0.65091 0.24631 0.0
O1208 O 0.58222 0.708 0.33922 0.0
C1209 C 0.46057 0.29269 0.29015 0.0
O1210 O 0.44766 0.31173 0.26855 0.0
O1211 O 0.37744 0.31851 0.29503 0.0
Zn1212 Zn 0.39524 0.27321 0.29956 0.0
O1213 O 0.3877 0.24561 0.25991 0.0
C1214 C 0.34445 0.26169 0.34211 0.0
O1215 O 0.33044 0.27846 0.31942 0.0
O1216 O 0.44279 0.27454 0.307 0.0
C1217 C 0.36136 0.23734 0.24704 0.0
O1218 O 0.33415 0.24679 0.25957 0.0
C1219 C 0.36027 0.32915 0.27214 0.0
O1220 O 0.35586 0.31156 0.24631 0.0
O1221 O 0.37379 0.25448 0.33922 0.0
C1222 C 0.46057 0.66978 0.67234 0.0
O1223 O 0.44766 0.65074 0.69394 0.0
O1224 O 0.37744 0.64396 0.66746 0.0
Zn1225 Zn 0.39524 0.68927 0.66293 0.0
O1226 O 0.3877 0.71686 0.70258 0.0
C1227 C 0.34445 0.70078 0.62038 0.0
O1228 O 0.33044 0.68401 0.64307 0.0
O1229 O 0.44279 0.68793 0.65549 0.0
C1230 C 0.36136 0.72514 0.71545 0.0
O1231 O 0.33415 0.71568 0.70292 0.0
C1232 C 0.36027 0.63333 0.69035 0.0
O1233 O 0.35586 0.65091 0.71618 0.0
O1234 O 0.37379 0.708 0.62327 0.0
C1235 C 0.49544 0.29269 0.67234 0.0
O1236 O 0.50835 0.31173 0.69394 0.0
O1237 O 0.57857 0.31851 0.66746 0.0
Zn1238 Zn 0.56077 0.27321 0.66293 0.0
O1239 O 0.56832 0.24561 0.70258 0.0
C1240 C 0.61156 0.26169 0.62038 0.0
O1241 O 0.62557 0.27846 0.64307 0.0
O1242 O 0.51322 0.27454 0.65549 0.0
C1243 C 0.59466 0.23734 0.71545 0.0
O1244 O 0.62186 0.24679 0.70292 0.0
C1245 C 0.59574 0.32915 0.69035 0.0
O1246 O 0.60015 0.31156 0.71618 0.0
O1247 O 0.58222 0.25448 0.62327 0.0
loop_
_geom_bond_atom_site_label_1
_geom_bond_atom_site_label_2
_geom_bond_distance
_geom_bond_site_symmetry_2
_ccdc_geom_bond_type
C0 O1 1.160 . S
C0 O7 1.185 . S
O1 C0 1.160 . S
O2 Zn3 1.899 . S
O2 C10 1.284 . S
Zn3 O2 1.899 . S
Zn3 O4 2.032 . S
Zn3 O7 2.086 . S
Zn3 O12 1.977 . S
O4 Zn3 2.032 . S
O4 C8 1.278 . S
C5 O6 1.203 . S
C5 O12 1.267 . S
O6 C5 1.203 . S
O7 C0 1.185 . S
O7 Zn3 2.086 . S
C8 O4 1.278 . S
C8 O9 1.211 . S
O9 C8 1.211 . S
C10 O2 1.284 . S
C10 O11 1.273 . S
O11 C10 1.273 . S
O12 Zn3 1.977 . S
O12 C5 1.267 . S
C13 O14 1.160 . S
C13 O20 1.185 . S
O14 C13 1.160 . S
O15 Zn16 1.899 . S
O15 C23 1.284 . S
Zn16 O15 1.899 . S
Zn16 O17 2.032 . S
Zn16 O20 2.086 . S
Zn16 O25 1.977 . S
O17 Zn16 2.032 . S
O17 C21 1.278 . S
C18 O19 1.203 . S
C18 O25 1.267 . S
O19 C18 1.203 . S
O20 C13 1.185 . S
O20 Zn16 2.086 . S
C21 O17 1.278 . S
C21 O22 1.211 . S
O22 C21 1.211 . S
C23 O15 1.284 . S
C23 O24 1.273 . S
O24 C23 1.273 . S
O25 Zn16 1.977 . S
O25 C18 1.267 . S
C26 O27 1.160 . S
C26 O33 1.185 . S
O27 C26 1.160 . S
O28 Zn29 1.899 . S
O28 C36 1.284 . S
Zn29 O28 1.899 . S
Zn29 O30 2.032 . S
Zn29 O33 2.086 . S
Zn29 O38 1.977 . S
O30 Zn29 2.032 . S
O30 C34 1.278 . S
C31 O32 1.203 . S
C31 O38 1.267 . S
O32 C31 1.203 . S
O33 C26 1.185 . S
O33 Zn29 2.086 . S
C34 O30 1.278 . S
C34 O35 1.211 . S
O35 C34 1.211 . S
C36 O28 1.284 . S
C36 O37 1.273 . S
O37 C36 1.273 . S
O38 Zn29 1.977 . S
O38 C31 1.267 . S
C39 O40 1.160 . S
C39 O46 1.185 . S
O40 C39 1.160 . S
O41 Zn42 1.899 . S
O41 C49 1.284 . S
Zn42 O41 1.899 . S
Zn42 O43 2.032 . S
Zn42 O46 2.086 . S
Zn42 O51 1.977 . S
O43 Zn42 2.032 . S
O43 C47 1.278 . S
C44 O45 1.203 . S
C44 O51 1.267 . S
O45 C44 1.203 . S
O46 C39 1.185 . S
O46 Zn42 2.086 . S
C47 O43 1.278 . S
C47 O48 1.211 . S
O48 C47 1.211 . S
C49 O41 1.284 . S
C49 O50 1.273 . S
O50 C49 1.273 . S
O51 Zn42 1.977 . S
O51 C44 1.267 . S
C52 O53 1.160 . S
C52 O59 1.185 . S
O53 C52 1.160 . S
O54 Zn55 1.899 . S
O54 C62 1.284 . S
Zn55 O54 1.899 . S
Zn55 O56 2.032 . S
Zn55 O59 2.086 . S
Zn55 O64 1.977 . S
O56 Zn55 2.032 . S
O56 C60 1.278 . S
C57 O58 1.203 . S
C57 O64 1.267 . S
O58 C57 1.203 . S
O59 C52 1.185 . S
O59 Zn55 2.086 . S
C60 O56 1.278 . S
C60 O61 1.211 . S
O61 C60 1.211 . S
C62 O54 1.284 . S
C62 O63 1.273 . S
O63 C62 1.273 . S
O64 Zn55 1.977 . S
O64 C57 1.267 . S
C65 O66 1.160 . S
C65 O72 1.185 . S
O66 C65 1.160 . S
O67 Zn68 1.899 . S
O67 C75 1.284 . S
Zn68 O67 1.899 . S
Zn68 O69 2.032 . S
Zn68 O72 2.086 . S
Zn68 O77 1.977 . S
O69 Zn68 2.032 . S
O69 C73 1.278 . S
C70 O71 1.203 . S
C70 O77 1.267 . S
O71 C70 1.203 . S
O72 C65 1.185 . S
O72 Zn68 2.086 . S
C73 O69 1.278 . S
C73 O74 1.211 . S
O74 C73 1.211 . S
C75 O67 1.284 . S
C75 O76 1.273 . S
O76 C75 1.273 . S
O77 Zn68 1.977 . S
O77 C70 1.267 . S
C78 O79 1.160 . S
C78 O85 1.185 . S
O79 C78 1.160 . S
O80 Zn81 1.899 . S
O80 C88 1.284 . S
Zn81 O80 1.899 . S
Zn81 O82 2.032 . S
Zn81 O85 2.086 . S
Zn81 O90 1.977 . S
O82 Zn81 2.032 . S
O82 C86 1.278 . S
C83 O84 1.203 . S
C83 O90 1.267 . S
O84 C83 1.203 . S
O85 C78 1.185 . S
O85 Zn81 2.086 . S
C86 O82 1.278 . S
C86 O87 1.211 . S
O87 C86 1.211 . S
C88 O80 1.284 . S
C88 O89 1.273 . S
O89 C88 1.273 . S
O90 Zn81 1.977 . S
O90 C83 1.267 . S
C91 O92 1.160 . S
C91 O98 1.185 . S
O92 C91 1.160 . S
O93 Zn94 1.899 . S
O93 C101 1.284 . S
Zn94 O93 1.899 . S
Zn94 O95 2.032 . S
Zn94 O98 2.086 . S
Zn94 O103 1.977 . S
O95 Zn94 2.032 . S
O95 C99 1.278 . S
C96 O97 1.203 . S
C96 O103 1.267 . S
O97 C96 1.203 . S
O98 C91 1.185 . S
O98 Zn94 2.086 . S
C99 O95 1.278 . S
C99 O100 1.211 . S
O100 C99 1.211 . S
C101 O93 1.284 . S
C101 O102 1.273 . S
O102 C101 1.273 . S
O103 Zn94 1.977 . S
O103 C96 1.267 . S
C104 O105 1.160 . S
C104 O111 1.185 . S
O105 C104 1.160 . S
O106 Zn107 1.899 . S
O106 C114 1.284 . S
Zn107 O106 1.899 . S
Zn107 O108 2.032 . S
Zn107 O111 2.086 . S
Zn107 O116 1.977 . S
O108 Zn107 2.032 . S
O108 C112 1.278 . S
C109 O110 1.203 . S
C109 O116 1.267 . S
O110 C109 1.203 . S
O111 C104 1.185 . S
O111 Zn107 2.086 . S
C112 O108 1.278 . S
C112 O113 1.211 . S
O113 C112 1.211 . S
C114 O106 1.284 . S
C114 O115 1.273 . S
O115 C114 1.273 . S
O116 Zn107 1.977 . S
O116 C109 1.267 . S
C117 O118 1.160 . S
C117 O124 1.185 . S
O118 C117 1.160 . S
O119 Zn120 1.899 . S
O119 C127 1.284 . S
Zn120 O119 1.899 . S
Zn120 O121 2.032 . S
Zn120 O124 2.086 . S
Zn120 O129 1.977 . S
O121 Zn120 2.032 . S
O121 C125 1.278 . S
C122 O123 1.203 . S
C122 O129 1.267 . S
O123 C122 1.203 . S
O124 C117 1.185 . S
O124 Zn120 2.086 . S
C125 O121 1.278 . S
C125 O126 1.211 . S
O126 C125 1.211 . S
C127 O119 1.284 . S
C127 O128 1.273 . S
O128 C127 1.273 . S
O129 Zn120 1.977 . S
O129 C122 1.267 . S
C130 O131 1.160 . S
C130 O137 1.185 . S
O131 C130 1.160 . S
O132 Zn133 1.899 . S
O132 C140 1.284 . S
Zn133 O132 1.899 . S
Zn133 O134 2.032 . S
Zn133 O137 2.086 . S
Zn133 O142 1.977 . S
O134 Zn133 2.032 . S
O134 C138 1.278 . S
C135 O136 1.203 . S
C135 O142 1.267 . S
O136 C135 1.203 . S
O137 C130 1.185 . S
O137 Zn133 2.086 . S
C138 O134 1.278 . S
C138 O139 1.211 . S
O139 C138 1.211 . S
C140 O132 1.284 . S
C140 O141 1.273 . S
O141 C140 1.273 . S
O142 Zn133 1.977 . S
O142 C135 1.267 . S
C143 O144 1.160 . S
C143 O150 1.185 . S
O144 C143 1.160 . S
O145 Zn146 1.899 . S
O145 C153 1.284 . S
Zn146 O145 1.899 . S
Zn146 O147 2.032 . S
Zn146 O150 2.086 . S
Zn146 O155 1.977 . S
O147 Zn146 2.032 . S
O147 C151 1.278 . S
C148 O149 1.203 . S
C148 O155 1.267 . S
O149 C148 1.203 . S
O150 C143 1.185 . S
O150 Zn146 2.086 . S
C151 O147 1.278 . S
C151 O152 1.211 . S
O152 C151 1.211 . S
C153 O145 1.284 . S
C153 O154 1.273 . S
O154 C153 1.273 . S
O155 Zn146 1.977 . S
O155 C148 1.267 . S
C156 O157 1.160 . S
C156 O163 1.185 . S
O157 C156 1.160 . S
O158 Zn159 1.899 . S
O158 C166 1.284 . S
Zn159 O158 1.899 . S
Zn159 O160 2.032 . S
Zn159 O163 2.086 . S
Zn159 O168 1.977 . S
O160 Zn159 2.032 . S
O160 C164 1.278 . S
C161 O162 1.203 . S
C161 O168 1.267 . S
O162 C161 1.203 . S
O163 C156 1.185 . S
O163 Zn159 2.086 . S
C164 O160 1.278 . S
C164 O165 1.211 . S
O165 C164 1.211 . S
C166 O158 1.284 . S
C166 O167 1.273 . S
O167 C166 1.273 . S
O168 Zn159 1.977 . S
O168 C161 1.267 . S
C169 O170 1.160 . S
C169 O176 1.185 . S
O170 C169 1.160 . S
O171 Zn172 1.899 . S
O171 C179 1.284 . S
Zn172 O171 1.899 . S
Zn172 O173 2.032 . S
Zn172 O176 2.086 . S
Zn172 O181 1.977 . S
O173 Zn172 2.032 . S
O173 C177 1.278 . S
C174 O175 1.203 . S
C174 O181 1.267 . S
O175 C174 1.203 . S
O176 C169 1.185 . S
O176 Zn172 2.086 . S
C177 O173 1.278 . S
C177 O178 1.211 . S
O178 C177 1.211 . S
C179 O171 1.284 . S
C179 O180 1.273 . S
O180 C179 1.273 . S
O181 Zn172 1.977 . S
O181 C174 1.267 . S
C182 O183 1.160 . S
C182 O189 1.185 . S
O183 C182 1.160 . S
O184 Zn185 1.899 . S
O184 C192 1.284 . S
Zn185 O184 1.899 . S
Zn185 O186 2.032 . S
Zn185 O189 2.086 . S
Zn185 O194 1.977 . S
O186 Zn185 2.032 . S
O186 C190 1.278 . S
C187 O188 1.203 . S
C187 O194 1.267 . S
O188 C187 1.203 . S
O189 C182 1.185 . S
O189 Zn185 2.086 . S
C190 O186 1.278 . S
C190 O191 1.211 . S
O191 C190 1.211 . S
C192 O184 1.284 . S
C192 O193 1.273 . S
O193 C192 1.273 . S
O194 Zn185 1.977 . S
O194 C187 1.267 . S
C195 O196 1.160 . S
C195 O202 1.185 . S
O196 C195 1.160 . S
O197 Zn198 1.899 . S
O197 C205 1.284 . S
Zn198 O197 1.899 . S
Zn198 O199 2.032 . S
Zn198 O202 2.086 . S
Zn198 O207 1.977 . S
O199 Zn198 2.032 . S
O199 C203 1.278 . S
C200 O201 1.203 . S
C200 O207 1.267 . S
O201 C200 1.203 . S
O202 C195 1.185 . S
O202 Zn198 2.086 . S
C203 O199 1.278 . S
C203 O204 1.211 . S
O204 C203 1.211 . S
C205 O197 1.284 . S
C205 O206 1.273 . S
O206 C205 1.273 . S
O207 Zn198 1.977 . S
O207 C200 1.267 . S
C208 O209 1.160 . S
C208 O215 1.185 . S
O209 C208 1.160 . S
O210 Zn211 1.899 . S
O210 C218 1.284 . S
Zn211 O210 1.899 . S
Zn211 O212 2.032 . S
Zn211 O215 2.086 . S
Zn211 O220 1.977 . S
O212 Zn211 2.032 . S
O212 C216 1.278 . S
C213 O214 1.203 . S
C213 O220 1.267 . S
O214 C213 1.203 . S
O215 C208 1.185 . S
O215 Zn211 2.086 . S
C216 O212 1.278 . S
C216 O217 1.211 . S
O217 C216 1.211 . S
C218 O210 1.284 . S
C218 O219 1.273 . S
O219 C218 1.273 . S
O220 Zn211 1.977 . S
O220 C213 1.267 . S
C221 O222 1.160 . S
C221 O228 1.185 . S
O222 C221 1.160 . S
O223 Zn224 1.899 . S
O223 C231 1.284 . S
Zn224 O223 1.899 . S
Zn224 O225 2.032 . S
Zn224 O228 2.086 . S
Zn224 O233 1.977 . S
O225 Zn224 2.032 . S
O225 C229 1.278 . S
C226 O227 1.203 . S
C226 O233 1.267 . S
O227 C226 1.203 . S
O228 C221 1.185 . S
O228 Zn224 2.086 . S
C229 O225 1.278 . S
C229 O230 1.211 . S
O230 C229 1.211 . S
C231 O223 1.284 . S
C231 O232 1.273 . S
O232 C231 1.273 . S
O233 Zn224 1.977 . S
O233 C226 1.267 . S
C234 O235 1.160 . S
C234 O241 1.185 . S
O235 C234 1.160 . S
O236 Zn237 1.899 . S
O236 C244 1.284 . S
Zn237 O236 1.899 . S
Zn237 O238 2.032 . S
Zn237 O241 2.086 . S
Zn237 O246 1.977 . S
O238 Zn237 2.032 . S
O238 C242 1.278 . S
C239 O240 1.203 . S
C239 O246 1.267 . S
O240 C239 1.203 . S
O241 C234 1.185 . S
O241 Zn237 2.086 . S
C242 O238 1.278 . S
C242 O243 1.211 . S
O243 C242 1.211 . S
C244 O236 1.284 . S
C244 O245 1.273 . S
O245 C244 1.273 . S
O246 Zn237 1.977 . S
O246 C239 1.267 . S
C247 O248 1.160 . S
C247 O254 1.185 . S
O248 C247 1.160 . S
O249 Zn250 1.899 . S
O249 C257 1.284 . S
Zn250 O249 1.899 . S
Zn250 O251 2.032 . S
Zn250 O254 2.086 . S
Zn250 O259 1.977 . S
O251 Zn250 2.032 . S
O251 C255 1.278 . S
C252 O253 1.203 . S
C252 O259 1.267 . S
O253 C252 1.203 . S
O254 C247 1.185 . S
O254 Zn250 2.086 . S
C255 O251 1.278 . S
C255 O256 1.211 . S
O256 C255 1.211 . S
C257 O249 1.284 . S
C257 O258 1.273 . S
O258 C257 1.273 . S
O259 Zn250 1.977 . S
O259 C252 1.267 . S
C260 O261 1.160 . S
C260 O267 1.185 . S
O261 C260 1.160 . S
O262 Zn263 1.899 . S
O262 C270 1.284 . S
Zn263 O262 1.899 . S
Zn263 O264 2.032 . S
Zn263 O267 2.086 . S
Zn263 O272 1.977 . S
O264 Zn263 2.032 . S
O264 C268 1.278 . S
C265 O266 1.203 . S
C265 O272 1.267 . S
O266 C265 1.203 . S
O267 C260 1.185 . S
O267 Zn263 2.086 . S
C268 O264 1.278 . S
C268 O269 1.211 . S
O269 C268 1.211 . S
C270 O262 1.284 . S
C270 O271 1.273 . S
O271 C270 1.273 . S
O272 Zn263 1.977 . S
O272 C265 1.267 . S
C273 O274 1.160 . S
C273 O280 1.185 . S
O274 C273 1.160 . S
O275 Zn276 1.899 . S
O275 C283 1.284 . S
Zn276 O275 1.899 . S
Zn276 O277 2.032 . S
Zn276 O280 2.086 . S
Zn276 O285 1.977 . S
O277 Zn276 2.032 . S
O277 C281 1.278 . S
C278 O279 1.203 . S
C278 O285 1.267 . S
O279 C278 1.203 . S
O280 C273 1.185 . S
O280 Zn276 2.086 . S
C281 O277 1.278 . S
C281 O282 1.211 . S
O282 C281 1.211 . S
C283 O275 1.284 . S
C283 O284 1.273 . S
O284 C283 1.273 . S
O285 Zn276 1.977 . S
O285 C278 1.267 . S
C286 O287 1.160 . S
C286 O293 1.185 . S
O287 C286 1.160 . S
O288 Zn289 1.899 . S
O288 C296 1.284 . S
Zn289 O288 1.899 . S
Zn289 O290 2.032 . S
Zn289 O293 2.086 . S
Zn289 O298 1.977 . S
O290 Zn289 2.032 . S
O290 C294 1.278 . S
C291 O292 1.203 . S
C291 O298 1.267 . S
O292 C291 1.203 . S
O293 C286 1.185 . S
O293 Zn289 2.086 . S
C294 O290 1.278 . S
C294 O295 1.211 . S
O295 C294 1.211 . S
C296 O288 1.284 . S
C296 O297 1.273 . S
O297 C296 1.273 . S
O298 Zn289 1.977 . S
O298 C291 1.267 . S
C299 O300 1.160 . S
C299 O306 1.185 . S
O300 C299 1.160 . S
O301 Zn302 1.899 . S
O301 C309 1.284 . S
Zn302 O301 1.899 . S
Zn302 O303 2.032 . S
Zn302 O306 2.086 . S
Zn302 O311 1.977 . S
O303 Zn302 2.032 . S
O303 C307 1.278 . S
C304 O305 1.203 . S
C304 O311 1.267 . S
O305 C304 1.203 . S
O306 C299 1.185 . S
O306 Zn302 2.086 . S
C307 O303 1.278 . S
C307 O308 1.211 . S
O308 C307 1.211 . S
C309 O301 1.284 . S
C309 O310 1.273 . S
O310 C309 1.273 . S
O311 Zn302 1.977 . S
O311 C304 1.267 . S
C312 O313 1.160 . S
C312 O319 1.185 . S
O313 C312 1.160 . S
O314 Zn315 1.899 . S
O314 C322 1.284 . S
Zn315 O314 1.899 . S
Zn315 O316 2.032 . S
Zn315 O319 2.086 . S
Zn315 O324 1.977 . S
O316 Zn315 2.032 . S
O316 C320 1.278 . S
C317 O318 1.203 . S
C317 O324 1.267 . S
O318 C317 1.203 . S
O319 C312 1.185 . S
O319 Zn315 2.086 . S
C320 O316 1.278 . S
C320 O321 1.211 . S
O321 C320 1.211 . S
C322 O314 1.284 . S
C322 O323 1.273 . S
O323 C322 1.273 . S
O324 Zn315 1.977 . S
O324 C317 1.267 . S
C325 O326 1.160 . S
C325 O332 1.185 . S
O326 C325 1.160 . S
O327 Zn328 1.899 . S
O327 C335 1.284 . S
Zn328 O327 1.899 . S
Zn328 O329 2.032 . S
Zn328 O332 2.086 . S
Zn328 O337 1.977 . S
O329 Zn328 2.032 . S
O329 C333 1.278 . S
C330 O331 1.203 . S
C330 O337 1.267 . S
O331 C330 1.203 . S
O332 C325 1.185 . S
O332 Zn328 2.086 . S
C333 O329 1.278 . S
C333 O334 1.211 . S
O334 C333 1.211 . S
C335 O327 1.284 . S
C335 O336 1.273 . S
O336 C335 1.273 . S
O337 Zn328 1.977 . S
O337 C330 1.267 . S
C338 O339 1.160 . S
C338 O345 1.185 . S
O339 C338 1.160 . S
O340 Zn341 1.899 . S
O340 C348 1.284 . S
Zn341 O340 1.899 . S
Zn341 O342 2.032 . S
Zn341 O345 2.086 . S
Zn341 O350 1.977 . S
O342 Zn341 2.032 . S
O342 C346 1.278 . S
C343 O344 1.203 . S
C343 O350 1.267 . S
O344 C343 1.203 . S
O345 C338 1.185 . S
O345 Zn341 2.086 . S
C346 O342 1.278 . S
C346 O347 1.211 . S
O347 C346 1.211 . S
C348 O340 1.284 . S
C348 O349 1.273 . S
O349 C348 1.273 . S
O350 Zn341 1.977 . S
O350 C343 1.267 . S
C351 O352 1.160 . S
C351 O358 1.185 . S
O352 C351 1.160 . S
O353 Zn354 1.899 . S
O353 C361 1.284 . S
Zn354 O353 1.899 . S
Zn354 O355 2.032 . S
Zn354 O358 2.086 . S
Zn354 O363 1.977 . S
O355 Zn354 2.032 . S
O355 C359 1.278 . S
C356 O357 1.203 . S
C356 O363 1.267 . S
O357 C356 1.203 . S
O358 C351 1.185 . S
O358 Zn354 2.086 . S
C359 O355 1.278 . S
C359 O360 1.211 . S
O360 C359 1.211 . S
C361 O353 1.284 . S
C361 O362 1.273 . S
O362 C361 1.273 . S
O363 Zn354 1.977 . S
O363 C356 1.267 . S
C364 O365 1.160 . S
C364 O371 1.185 . S
O365 C364 1.160 . S
O366 Zn367 1.899 . S
O366 C374 1.284 . S
Zn367 O366 1.899 . S
Zn367 O368 2.032 . S
Zn367 O371 2.086 . S
Zn367 O376 1.977 . S
O368 Zn367 2.032 . S
O368 C372 1.278 . S
C369 O370 1.203 . S
C369 O376 1.267 . S
O370 C369 1.203 . S
O371 C364 1.185 . S
O371 Zn367 2.086 . S
C372 O368 1.278 . S
C372 O373 1.211 . S
O373 C372 1.211 . S
C374 O366 1.284 . S
C374 O375 1.273 . S
O375 C374 1.273 . S
O376 Zn367 1.977 . S
O376 C369 1.267 . S
C377 O378 1.160 . S
C377 O384 1.185 . S
O378 C377 1.160 . S
O379 Zn380 1.899 . S
O379 C387 1.284 . S
Zn380 O379 1.899 . S
Zn380 O381 2.032 . S
Zn380 O384 2.086 . S
Zn380 O389 1.977 . S
O381 Zn380 2.032 . S
O381 C385 1.278 . S
C382 O383 1.203 . S
C382 O389 1.267 . S
O383 C382 1.203 . S
O384 C377 1.185 . S
O384 Zn380 2.086 . S
C385 O381 1.278 . S
C385 O386 1.211 . S
O386 C385 1.211 . S
C387 O379 1.284 . S
C387 O388 1.273 . S
O388 C387 1.273 . S
O389 Zn380 1.977 . S
O389 C382 1.267 . S
C390 O391 1.160 . S
C390 O397 1.185 . S
O391 C390 1.160 . S
O392 Zn393 1.899 . S
O392 C400 1.284 . S
Zn393 O392 1.899 . S
Zn393 O394 2.032 . S
Zn393 O397 2.086 . S
Zn393 O402 1.977 . S
O394 Zn393 2.032 . S
O394 C398 1.278 . S
C395 O396 1.203 . S
C395 O402 1.267 . S
O396 C395 1.203 . S
O397 C390 1.185 . S
O397 Zn393 2.086 . S
C398 O394 1.278 . S
C398 O399 1.211 . S
O399 C398 1.211 . S
C400 O392 1.284 . S
C400 O401 1.273 . S
O401 C400 1.273 . S
O402 Zn393 1.977 . S
O402 C395 1.267 . S
C403 O404 1.160 . S
C403 O410 1.185 . S
O404 C403 1.160 . S
O405 Zn406 1.899 . S
O405 C413 1.284 . S
Zn406 O405 1.899 . S
Zn406 O407 2.032 . S
Zn406 O410 2.086 . S
Zn406 O415 1.977 . S
O407 Zn406 2.032 . S
O407 C411 1.278 . S
C408 O409 1.203 . S
C408 O415 1.267 . S
O409 C408 1.203 . S
O410 C403 1.185 . S
O410 Zn406 2.086 . S
C411 O407 1.278 . S
C411 O412 1.211 . S
O412 C411 1.211 . S
C413 O405 1.284 . S
C413 O414 1.273 . S
O414 C413 1.273 . S
O415 Zn406 1.977 . S
O415 C408 1.267 . S
C416 O417 1.160 . S
C416 O423 1.185 . S
O417 C416 1.160 . S
O418 Zn419 1.899 . S
O418 C426 1.284 . S
Zn419 O418 1.899 . S
Zn419 O420 2.032 . S
Zn419 O423 2.086 . S
Zn419 O428 1.977 . S
O420 Zn419 2.032 . S
O420 C424 1.278 . S
C421 O422 1.203 . S
C421 O428 1.267 . S
O422 C421 1.203 . S
O423 C416 1.185 . S
O423 Zn419 2.086 . S
C424 O420 1.278 . S
C424 O425 1.211 . S
O425 C424 1.211 . S
C426 O418 1.284 . S
C426 O427 1.273 . S
O427 C426 1.273 . S
O428 Zn419 1.977 . S
O428 C421 1.267 . S
C429 O430 1.160 . S
C429 O436 1.185 . S
O430 C429 1.160 . S
O431 Zn432 1.899 . S
O431 C439 1.284 . S
Zn432 O431 1.899 . S
Zn432 O433 2.032 . S
Zn432 O436 2.086 . S
Zn432 O441 1.977 . S
O433 Zn432 2.032 . S
O433 C437 1.278 . S
C434 O435 1.203 . S
C434 O441 1.267 . S
O435 C434 1.203 . S
O436 C429 1.185 . S
O436 Zn432 2.086 . S
C437 O433 1.278 . S
C437 O438 1.211 . S
O438 C437 1.211 . S
C439 O431 1.284 . S
C439 O440 1.273 . S
O440 C439 1.273 . S
O441 Zn432 1.977 . S
O441 C434 1.267 . S
C442 O443 1.160 . S
C442 O449 1.185 . S
O443 C442 1.160 . S
O444 Zn445 1.899 . S
O444 C452 1.284 . S
Zn445 O444 1.899 . S
Zn445 O446 2.032 . S
Zn445 O449 2.086 . S
Zn445 O454 1.977 . S
O446 Zn445 2.032 . S
O446 C450 1.278 . S
C447 O448 1.203 . S
C447 O454 1.267 . S
O448 C447 1.203 . S
O449 C442 1.185 . S
O449 Zn445 2.086 . S
C450 O446 1.278 . S
C450 O451 1.211 . S
O451 C450 1.211 . S
C452 O444 1.284 . S
C452 O453 1.273 . S
O453 C452 1.273 . S
O454 Zn445 1.977 . S
O454 C447 1.267 . S
C455 O456 1.160 . S
C455 O462 1.185 . S
O456 C455 1.160 . S
O457 Zn458 1.899 . S
O457 C465 1.284 . S
Zn458 O457 1.899 . S
Zn458 O459 2.032 . S
Zn458 O462 2.086 . S
Zn458 O467 1.977 . S
O459 Zn458 2.032 . S
O459 C463 1.278 . S
C460 O461 1.203 . S
C460 O467 1.267 . S
O461 C460 1.203 . S
O462 C455 1.185 . S
O462 Zn458 2.086 . S
C463 O459 1.278 . S
C463 O464 1.211 . S
O464 C463 1.211 . S
C465 O457 1.284 . S
C465 O466 1.273 . S
O466 C465 1.273 . S
O467 Zn458 1.977 . S
O467 C460 1.267 . S
C468 O469 1.160 . S
C468 O475 1.185 . S
O469 C468 1.160 . S
O470 Zn471 1.899 . S
O470 C478 1.284 . S
Zn471 O470 1.899 . S
Zn471 O472 2.032 . S
Zn471 O475 2.086 . S
Zn471 O480 1.977 . S
O472 Zn471 2.032 . S
O472 C476 1.278 . S
C473 O474 1.203 . S
C473 O480 1.267 . S
O474 C473 1.203 . S
O475 C468 1.185 . S
O475 Zn471 2.086 . S
C476 O472 1.278 . S
C476 O477 1.211 . S
O477 C476 1.211 . S
C478 O470 1.284 . S
C478 O479 1.273 . S
O479 C478 1.273 . S
O480 Zn471 1.977 . S
O480 C473 1.267 . S
C481 O482 1.160 . S
C481 O488 1.185 . S
O482 C481 1.160 . S
O483 Zn484 1.899 . S
O483 C491 1.284 . S
Zn484 O483 1.899 . S
Zn484 O485 2.032 . S
Zn484 O488 2.086 . S
Zn484 O493 1.977 . S
O485 Zn484 2.032 . S
O485 C489 1.278 . S
C486 O487 1.203 . S
C486 O493 1.267 . S
O487 C486 1.203 . S
O488 C481 1.185 . S
O488 Zn484 2.086 . S
C489 O485 1.278 . S
C489 O490 1.211 . S
O490 C489 1.211 . S
C491 O483 1.284 . S
C491 O492 1.273 . S
O492 C491 1.273 . S
O493 Zn484 1.977 . S
O493 C486 1.267 . S
C494 O495 1.160 . S
C494 O501 1.185 . S
O495 C494 1.160 . S
O496 Zn497 1.899 . S
O496 C504 1.284 . S
Zn497 O496 1.899 . S
Zn497 O498 2.032 . S
Zn497 O501 2.086 . S
Zn497 O506 1.977 . S
O498 Zn497 2.032 . S
O498 C502 1.278 . S
C499 O500 1.203 . S
C499 O506 1.267 . S
O500 C499 1.203 . S
O501 C494 1.185 . S
O501 Zn497 2.086 . S
C502 O498 1.278 . S
C502 O503 1.211 . S
O503 C502 1.211 . S
C504 O496 1.284 . S
C504 O505 1.273 . S
O505 C504 1.273 . S
O506 Zn497 1.977 . S
O506 C499 1.267 . S
C507 O508 1.160 . S
C507 O514 1.185 . S
O508 C507 1.160 . S
O509 Zn510 1.899 . S
O509 C517 1.284 . S
Zn510 O509 1.899 . S
Zn510 O511 2.032 . S
Zn510 O514 2.086 . S
Zn510 O519 1.977 . S
O511 Zn510 2.032 . S
O511 C515 1.278 . S
C512 O513 1.203 . S
C512 O519 1.267 . S
O513 C512 1.203 . S
O514 C507 1.185 . S
O514 Zn510 2.086 . S
C515 O511 1.278 . S
C515 O516 1.211 . S
O516 C515 1.211 . S
C517 O509 1.284 . S
C517 O518 1.273 . S
O518 C517 1.273 . S
O519 Zn510 1.977 . S
O519 C512 1.267 . S
C520 O521 1.160 . S
C520 O527 1.185 . S
O521 C520 1.160 . S
O522 Zn523 1.899 . S
O522 C530 1.284 . S
Zn523 O522 1.899 . S
Zn523 O524 2.032 . S
Zn523 O527 2.086 . S
Zn523 O532 1.977 . S
O524 Zn523 2.032 . S
O524 C528 1.278 . S
C525 O526 1.203 . S
C525 O532 1.267 . S
O526 C525 1.203 . S
O527 C520 1.185 . S
O527 Zn523 2.086 . S
C528 O524 1.278 . S
C528 O529 1.211 . S
O529 C528 1.211 . S
C530 O522 1.284 . S
C530 O531 1.273 . S
O531 C530 1.273 . S
O532 Zn523 1.977 . S
O532 C525 1.267 . S
C533 O534 1.160 . S
C533 O540 1.185 . S
O534 C533 1.160 . S
O535 Zn536 1.899 . S
O535 C543 1.284 . S
Zn536 O535 1.899 . S
Zn536 O537 2.032 . S
Zn536 O540 2.086 . S
Zn536 O545 1.977 . S
O537 Zn536 2.032 . S
O537 C541 1.278 . S
C538 O539 1.203 . S
C538 O545 1.267 . S
O539 C538 1.203 . S
O540 C533 1.185 . S
O540 Zn536 2.086 . S
C541 O537 1.278 . S
C541 O542 1.211 . S
O542 C541 1.211 . S
C543 O535 1.284 . S
C543 O544 1.273 . S
O544 C543 1.273 . S
O545 Zn536 1.977 . S
O545 C538 1.267 . S
C546 O547 1.160 . S
C546 O553 1.185 . S
O547 C546 1.160 . S
O548 Zn549 1.899 . S
O548 C556 1.284 . S
Zn549 O548 1.899 . S
Zn549 O550 2.032 . S
Zn549 O553 2.086 . S
Zn549 O558 1.977 . S
O550 Zn549 2.032 . S
O550 C554 1.278 . S
C551 O552 1.203 . S
C551 O558 1.267 . S
O552 C551 1.203 . S
O553 C546 1.185 . S
O553 Zn549 2.086 . S
C554 O550 1.278 . S
C554 O555 1.211 . S
O555 C554 1.211 . S
C556 O548 1.284 . S
C556 O557 1.273 . S
O557 C556 1.273 . S
O558 Zn549 1.977 . S
O558 C551 1.267 . S
C559 O560 1.160 . S
C559 O566 1.185 . S
O560 C559 1.160 . S
O561 Zn562 1.899 . S
O561 C569 1.284 . S
Zn562 O561 1.899 . S
Zn562 O563 2.032 . S
Zn562 O566 2.086 . S
Zn562 O571 1.977 . S
O563 Zn562 2.032 . S
O563 C567 1.278 . S
C564 O565 1.203 . S
C564 O571 1.267 . S
O565 C564 1.203 . S
O566 C559 1.185 . S
O566 Zn562 2.086 . S
C567 O563 1.278 . S
C567 O568 1.211 . S
O568 C567 1.211 . S
C569 O561 1.284 . S
C569 O570 1.273 . S
O570 C569 1.273 . S
O571 Zn562 1.977 . S
O571 C564 1.267 . S
C572 O573 1.160 . S
C572 O579 1.185 . S
O573 C572 1.160 . S
O574 Zn575 1.899 . S
O574 C582 1.284 . S
Zn575 O574 1.899 . S
Zn575 O576 2.032 . S
Zn575 O579 2.086 . S
Zn575 O584 1.977 . S
O576 Zn575 2.032 . S
O576 C580 1.278 . S
C577 O578 1.203 . S
C577 O584 1.267 . S
O578 C577 1.203 . S
O579 C572 1.185 . S
O579 Zn575 2.086 . S
C580 O576 1.278 . S
C580 O581 1.211 . S
O581 C580 1.211 . S
C582 O574 1.284 . S
C582 O583 1.273 . S
O583 C582 1.273 . S
O584 Zn575 1.977 . S
O584 C577 1.267 . S
C585 O586 1.160 . S
C585 O592 1.185 . S
O586 C585 1.160 . S
O587 Zn588 1.899 . S
O587 C595 1.284 . S
Zn588 O587 1.899 . S
Zn588 O589 2.032 . S
Zn588 O592 2.086 . S
Zn588 O597 1.977 . S
O589 Zn588 2.032 . S
O589 C593 1.278 . S
C590 O591 1.203 . S
C590 O597 1.267 . S
O591 C590 1.203 . S
O592 C585 1.185 . S
O592 Zn588 2.086 . S
C593 O589 1.278 . S
C593 O594 1.211 . S
O594 C593 1.211 . S
C595 O587 1.284 . S
C595 O596 1.273 . S
O596 C595 1.273 . S
O597 Zn588 1.977 . S
O597 C590 1.267 . S
C598 O599 1.160 . S
C598 O605 1.185 . S
O599 C598 1.160 . S
O600 Zn601 1.899 . S
O600 C608 1.284 . S
Zn601 O600 1.899 . S
Zn601 O602 2.032 . S
Zn601 O605 2.086 . S
Zn601 O610 1.977 . S
O602 Zn601 2.032 . S
O602 C606 1.278 . S
C603 O604 1.203 . S
C603 O610 1.267 . S
O604 C603 1.203 . S
O605 C598 1.185 . S
O605 Zn601 2.086 . S
C606 O602 1.278 . S
C606 O607 1.211 . S
O607 C606 1.211 . S
C608 O600 1.284 . S
C608 O609 1.273 . S
O609 C608 1.273 . S
O610 Zn601 1.977 . S
O610 C603 1.267 . S
C611 O612 1.160 . S
C611 O618 1.185 . S
O612 C611 1.160 . S
O613 Zn614 1.899 . S
O613 C621 1.284 . S
Zn614 O613 1.899 . S
Zn614 O615 2.032 . S
Zn614 O618 2.086 . S
Zn614 O623 1.977 . S
O615 Zn614 2.032 . S
O615 C619 1.278 . S
C616 O617 1.203 . S
C616 O623 1.267 . S
O617 C616 1.203 . S
O618 C611 1.185 . S
O618 Zn614 2.086 . S
C619 O615 1.278 . S
C619 O620 1.211 . S
O620 C619 1.211 . S
C621 O613 1.284 . S
C621 O622 1.273 . S
O622 C621 1.273 . S
O623 Zn614 1.977 . S
O623 C616 1.267 . S
C624 O625 1.160 . S
C624 O631 1.185 . S
O625 C624 1.160 . S
O626 Zn627 1.899 . S
O626 C634 1.284 . S
Zn627 O626 1.899 . S
Zn627 O628 2.032 . S
Zn627 O631 2.086 . S
Zn627 O636 1.977 . S
O628 Zn627 2.032 . S
O628 C632 1.278 . S
C629 O630 1.203 . S
C629 O636 1.267 . S
O630 C629 1.203 . S
O631 C624 1.185 . S
O631 Zn627 2.086 . S
C632 O628 1.278 . S
C632 O633 1.211 . S
O633 C632 1.211 . S
C634 O626 1.284 . S
C634 O635 1.273 . S
O635 C634 1.273 . S
O636 Zn627 1.977 . S
O636 C629 1.267 . S
C637 O638 1.160 . S
C637 O644 1.185 . S
O638 C637 1.160 . S
O639 Zn640 1.899 . S
O639 C647 1.284 . S
Zn640 O639 1.899 . S
Zn640 O641 2.032 . S
Zn640 O644 2.086 . S
Zn640 O649 1.977 . S
O641 Zn640 2.032 . S
O641 C645 1.278 . S
C642 O643 1.203 . S
C642 O649 1.267 . S
O643 C642 1.203 . S
O644 C637 1.185 . S
O644 Zn640 2.086 . S
C645 O641 1.278 . S
C645 O646 1.211 . S
O646 C645 1.211 . S
C647 O639 1.284 . S
C647 O648 1.273 . S
O648 C647 1.273 . S
O649 Zn640 1.977 . S
O649 C642 1.267 . S
C650 O651 1.160 . S
C650 O657 1.185 . S
O651 C650 1.160 . S
O652 Zn653 1.899 . S
O652 C660 1.284 . S
Zn653 O652 1.899 . S
Zn653 O654 2.032 . S
Zn653 O657 2.086 . S
Zn653 O662 1.977 . S
O654 Zn653 2.032 . S
O654 C658 1.278 . S
C655 O656 1.203 . S
C655 O662 1.267 . S
O656 C655 1.203 . S
O657 C650 1.185 . S
O657 Zn653 2.086 . S
C658 O654 1.278 . S
C658 O659 1.211 . S
O659 C658 1.211 . S
C660 O652 1.284 . S
C660 O661 1.273 . S
O661 C660 1.273 . S
O662 Zn653 1.977 . S
O662 C655 1.267 . S
C663 O664 1.160 . S
C663 O670 1.185 . S
O664 C663 1.160 . S
O665 Zn666 1.899 . S
O665 C673 1.284 . S
Zn666 O665 1.899 . S
Zn666 O667 2.032 . S
Zn666 O670 2.086 . S
Zn666 O675 1.977 . S
O667 Zn666 2.032 . S
O667 C671 1.278 . S
C668 O669 1.203 . S
C668 O675 1.267 . S
O669 C668 1.203 . S
O670 C663 1.185 . S
O670 Zn666 2.086 . S
C671 O667 1.278 . S
C671 O672 1.211 . S
O672 C671 1.211 . S
C673 O665 1.284 . S
C673 O674 1.273 . S
O674 C673 1.273 . S
O675 Zn666 1.977 . S
O675 C668 1.267 . S
C676 O677 1.160 . S
C676 O683 1.185 . S
O677 C676 1.160 . S
O678 Zn679 1.899 . S
O678 C686 1.284 . S
Zn679 O678 1.899 . S
Zn679 O680 2.032 . S
Zn679 O683 2.086 . S
Zn679 O688 1.977 . S
O680 Zn679 2.032 . S
O680 C684 1.278 . S
C681 O682 1.203 . S
C681 O688 1.267 . S
O682 C681 1.203 . S
O683 C676 1.185 . S
O683 Zn679 2.086 . S
C684 O680 1.278 . S
C684 O685 1.211 . S
O685 C684 1.211 . S
C686 O678 1.284 . S
C686 O687 1.273 . S
O687 C686 1.273 . S
O688 Zn679 1.977 . S
O688 C681 1.267 . S
C689 O690 1.160 . S
C689 O696 1.185 . S
O690 C689 1.160 . S
O691 Zn692 1.899 . S
O691 C699 1.284 . S
Zn692 O691 1.899 . S
Zn692 O693 2.032 . S
Zn692 O696 2.086 . S
Zn692 O701 1.977 . S
O693 Zn692 2.032 . S
O693 C697 1.278 . S
C694 O695 1.203 . S
C694 O701 1.267 . S
O695 C694 1.203 . S
O696 C689 1.185 . S
O696 Zn692 2.086 . S
C697 O693 1.278 . S
C697 O698 1.211 . S
O698 C697 1.211 . S
C699 O691 1.284 . S
C699 O700 1.273 . S
O700 C699 1.273 . S
O701 Zn692 1.977 . S
O701 C694 1.267 . S
C702 O703 1.160 . S
C702 O709 1.185 . S
O703 C702 1.160 . S
O704 Zn705 1.899 . S
O704 C712 1.284 . S
Zn705 O704 1.899 . S
Zn705 O706 2.032 . S
Zn705 O709 2.086 . S
Zn705 O714 1.977 . S
O706 Zn705 2.032 . S
O706 C710 1.278 . S
C707 O708 1.203 . S
C707 O714 1.267 . S
O708 C707 1.203 . S
O709 C702 1.185 . S
O709 Zn705 2.086 . S
C710 O706 1.278 . S
C710 O711 1.211 . S
O711 C710 1.211 . S
C712 O704 1.284 . S
C712 O713 1.273 . S
O713 C712 1.273 . S
O714 Zn705 1.977 . S
O714 C707 1.267 . S
C715 O716 1.160 . S
C715 O722 1.185 . S
O716 C715 1.160 . S
O717 Zn718 1.899 . S
O717 C725 1.284 . S
Zn718 O717 1.899 . S
Zn718 O719 2.032 . S
Zn718 O722 2.086 . S
Zn718 O727 1.977 . S
O719 Zn718 2.032 . S
O719 C723 1.278 . S
C720 O721 1.203 . S
C720 O727 1.267 . S
O721 C720 1.203 . S
O722 C715 1.185 . S
O722 Zn718 2.086 . S
C723 O719 1.278 . S
C723 O724 1.211 . S
O724 C723 1.211 . S
C725 O717 1.284 . S
C725 O726 1.273 . S
O726 C725 1.273 . S
O727 Zn718 1.977 . S
O727 C720 1.267 . S
C728 O729 1.160 . S
C728 O735 1.185 . S
O729 C728 1.160 . S
O730 Zn731 1.899 . S
O730 C738 1.284 . S
Zn731 O730 1.899 . S
Zn731 O732 2.032 . S
Zn731 O735 2.086 . S
Zn731 O740 1.977 . S
O732 Zn731 2.032 . S
O732 C736 1.278 . S
C733 O734 1.203 . S
C733 O740 1.267 . S
O734 C733 1.203 . S
O735 C728 1.185 . S
O735 Zn731 2.086 . S
C736 O732 1.278 . S
C736 O737 1.211 . S
O737 C736 1.211 . S
C738 O730 1.284 . S
C738 O739 1.273 . S
O739 C738 1.273 . S
O740 Zn731 1.977 . S
O740 C733 1.267 . S
C741 O742 1.160 . S
C741 O748 1.185 . S
O742 C741 1.160 . S
O743 Zn744 1.899 . S
O743 C751 1.284 . S
Zn744 O743 1.899 . S
Zn744 O745 2.032 . S
Zn744 O748 2.086 . S
Zn744 O753 1.977 . S
O745 Zn744 2.032 . S
O745 C749 1.278 . S
C746 O747 1.203 . S
C746 O753 1.267 . S
O747 C746 1.203 . S
O748 C741 1.185 . S
O748 Zn744 2.086 . S
C749 O745 1.278 . S
C749 O750 1.211 . S
O750 C749 1.211 . S
C751 O743 1.284 . S
C751 O752 1.273 . S
O752 C751 1.273 . S
O753 Zn744 1.977 . S
O753 C746 1.267 . S
C754 O755 1.160 . S
C754 O761 1.185 . S
O755 C754 1.160 . S
O756 Zn757 1.899 . S
O756 C764 1.284 . S
Zn757 O756 1.899 . S
Zn757 O758 2.032 . S
Zn757 O761 2.086 . S
Zn757 O766 1.977 . S
O758 Zn757 2.032 . S
O758 C762 1.278 . S
C759 O760 1.203 . S
C759 O766 1.267 . S
O760 C759 1.203 . S
O761 C754 1.185 . S
O761 Zn757 2.086 . S
C762 O758 1.278 . S
C762 O763 1.211 . S
O763 C762 1.211 . S
C764 O756 1.284 . S
C764 O765 1.273 . S
O765 C764 1.273 . S
O766 Zn757 1.977 . S
O766 C759 1.267 . S
C767 O768 1.160 . S
C767 O774 1.185 . S
O768 C767 1.160 . S
O769 Zn770 1.899 . S
O769 C777 1.284 . S
Zn770 O769 1.899 . S
Zn770 O771 2.032 . S
Zn770 O774 2.086 . S
Zn770 O779 1.977 . S
O771 Zn770 2.032 . S
O771 C775 1.278 . S
C772 O773 1.203 . S
C772 O779 1.267 . S
O773 C772 1.203 . S
O774 C767 1.185 . S
O774 Zn770 2.086 . S
C775 O771 1.278 . S
C775 O776 1.211 . S
O776 C775 1.211 . S
C777 O769 1.284 . S
C777 O778 1.273 . S
O778 C777 1.273 . S
O779 Zn770 1.977 . S
O779 C772 1.267 . S
C780 O781 1.160 . S
C780 O787 1.185 . S
O781 C780 1.160 . S
O782 Zn783 1.899 . S
O782 C790 1.284 . S
Zn783 O782 1.899 . S
Zn783 O784 2.032 . S
Zn783 O787 2.086 . S
Zn783 O792 1.977 . S
O784 Zn783 2.032 . S
O784 C788 1.278 . S
C785 O786 1.203 . S
C785 O792 1.267 . S
O786 C785 1.203 . S
O787 C780 1.185 . S
O787 Zn783 2.086 . S
C788 O784 1.278 . S
C788 O789 1.211 . S
O789 C788 1.211 . S
C790 O782 1.284 . S
C790 O791 1.273 . S
O791 C790 1.273 . S
O792 Zn783 1.977 . S
O792 C785 1.267 . S
C793 O794 1.160 . S
C793 O800 1.185 . S
O794 C793 1.160 . S
O795 Zn796 1.899 . S
O795 C803 1.284 . S
Zn796 O795 1.899 . S
Zn796 O797 2.032 . S
Zn796 O800 2.086 . S
Zn796 O805 1.977 . S
O797 Zn796 2.032 . S
O797 C801 1.278 . S
C798 O799 1.203 . S
C798 O805 1.267 . S
O799 C798 1.203 . S
O800 C793 1.185 . S
O800 Zn796 2.086 . S
C801 O797 1.278 . S
C801 O802 1.211 . S
O802 C801 1.211 . S
C803 O795 1.284 . S
C803 O804 1.273 . S
O804 C803 1.273 . S
O805 Zn796 1.977 . S
O805 C798 1.267 . S
C806 O807 1.160 . S
C806 O813 1.185 . S
O807 C806 1.160 . S
O808 Zn809 1.899 . S
O808 C816 1.284 . S
Zn809 O808 1.899 . S
Zn809 O810 2.032 . S
Zn809 O813 2.086 . S
Zn809 O818 1.977 . S
O810 Zn809 2.032 . S
O810 C814 1.278 . S
C811 O812 1.203 . S
C811 O818 1.267 . S
O812 C811 1.203 . S
O813 C806 1.185 . S
O813 Zn809 2.086 . S
C814 O810 1.278 . S
C814 O815 1.211 . S
O815 C814 1.211 . S
C816 O808 1.284 . S
C816 O817 1.273 . S
O817 C816 1.273 . S
O818 Zn809 1.977 . S
O818 C811 1.267 . S
C819 O820 1.160 . S
C819 O826 1.185 . S
O820 C819 1.160 . S
O821 Zn822 1.899 . S
O821 C829 1.284 . S
Zn822 O821 1.899 . S
Zn822 O823 2.032 . S
Zn822 O826 2.086 . S
Zn822 O831 1.977 . S
O823 Zn822 2.032 . S
O823 C827 1.278 . S
C824 O825 1.203 . S
C824 O831 1.267 . S
O825 C824 1.203 . S
O826 C819 1.185 . S
O826 Zn822 2.086 . S
C827 O823 1.278 . S
C827 O828 1.211 . S
O828 C827 1.211 . S
C829 O821 1.284 . S
C829 O830 1.273 . S
O830 C829 1.273 . S
O831 Zn822 1.977 . S
O831 C824 1.267 . S
C832 O833 1.160 . S
C832 O839 1.185 . S
O833 C832 1.160 . S
O834 Zn835 1.899 . S
O834 C842 1.284 . S
Zn835 O834 1.899 . S
Zn835 O836 2.032 . S
Zn835 O839 2.086 . S
Zn835 O844 1.977 . S
O836 Zn835 2.032 . S
O836 C840 1.278 . S
C837 O838 1.203 . S
C837 O844 1.267 . S
O838 C837 1.203 . S
O839 C832 1.185 . S
O839 Zn835 2.086 . S
C840 O836 1.278 . S
C840 O841 1.211 . S
O841 C840 1.211 . S
C842 O834 1.284 . S
C842 O843 1.273 . S
O843 C842 1.273 . S
O844 Zn835 1.977 . S
O844 C837 1.267 . S
C845 O846 1.160 . S
C845 O852 1.185 . S
O846 C845 1.160 . S
O847 Zn848 1.899 . S
O847 C855 1.284 . S
Zn848 O847 1.899 . S
Zn848 O849 2.032 . S
Zn848 O852 2.086 . S
Zn848 O857 1.977 . S
O849 Zn848 2.032 . S
O849 C853 1.278 . S
C850 O851 1.203 . S
C850 O857 1.267 . S
O851 C850 1.203 . S
O852 C845 1.185 . S
O852 Zn848 2.086 . S
C853 O849 1.278 . S
C853 O854 1.211 . S
O854 C853 1.211 . S
C855 O847 1.284 . S
C855 O856 1.273 . S
O856 C855 1.273 . S
O857 Zn848 1.977 . S
O857 C850 1.267 . S
C858 O859 1.160 . S
C858 O865 1.185 . S
O859 C858 1.160 . S
O860 Zn861 1.899 . S
O860 C868 1.284 . S
Zn861 O860 1.899 . S
Zn861 O862 2.032 . S
Zn861 O865 2.086 . S
Zn861 O870 1.977 . S
O862 Zn861 2.032 . S
O862 C866 1.278 . S
C863 O864 1.203 . S
C863 O870 1.267 . S
O864 C863 1.203 . S
O865 C858 1.185 . S
O865 Zn861 2.086 . S
C866 O862 1.278 . S
C866 O867 1.211 . S
O867 C866 1.211 . S
C868 O860 1.284 . S
C868 O869 1.273 . S
O869 C868 1.273 . S
O870 Zn861 1.977 . S
O870 C863 1.267 . S
C871 O872 1.160 . S
C871 O878 1.185 . S
O872 C871 1.160 . S
O873 Zn874 1.899 . S
O873 C881 1.284 . S
Zn874 O873 1.899 . S
Zn874 O875 2.032 . S
Zn874 O878 2.086 . S
Zn874 O883 1.977 . S
O875 Zn874 2.032 . S
O875 C879 1.278 . S
C876 O877 1.203 . S
C876 O883 1.267 . S
O877 C876 1.203 . S
O878 C871 1.185 . S
O878 Zn874 2.086 . S
C879 O875 1.278 . S
C879 O880 1.211 . S
O880 C879 1.211 . S
C881 O873 1.284 . S
C881 O882 1.273 . S
O882 C881 1.273 . S
O883 Zn874 1.977 . S
O883 C876 1.267 . S
C884 O885 1.160 . S
C884 O891 1.185 . S
O885 C884 1.160 . S
O886 Zn887 1.899 . S
O886 C894 1.284 . S
Zn887 O886 1.899 . S
Zn887 O888 2.032 . S
Zn887 O891 2.086 . S
Zn887 O896 1.977 . S
O888 Zn887 2.032 . S
O888 C892 1.278 . S
C889 O890 1.203 . S
C889 O896 1.267 . S
O890 C889 1.203 . S
O891 C884 1.185 . S
O891 Zn887 2.086 . S
C892 O888 1.278 . S
C892 O893 1.211 . S
O893 C892 1.211 . S
C894 O886 1.284 . S
C894 O895 1.273 . S
O895 C894 1.273 . S
O896 Zn887 1.977 . S
O896 C889 1.267 . S
C897 O898 1.160 . S
C897 O904 1.185 . S
O898 C897 1.160 . S
O899 Zn900 1.899 . S
O899 C907 1.284 . S
Zn900 O899 1.899 . S
Zn900 O901 2.032 . S
Zn900 O904 2.086 . S
Zn900 O909 1.977 . S
O901 Zn900 2.032 . S
O901 C905 1.278 . S
C902 O903 1.203 . S
C902 O909 1.267 . S
O903 C902 1.203 . S
O904 C897 1.185 . S
O904 Zn900 2.086 . S
C905 O901 1.278 . S
C905 O906 1.211 . S
O906 C905 1.211 . S
C907 O899 1.284 . S
C907 O908 1.273 . S
O908 C907 1.273 . S
O909 Zn900 1.977 . S
O909 C902 1.267 . S
C910 O911 1.160 . S
C910 O917 1.185 . S
O911 C910 1.160 . S
O912 Zn913 1.899 . S
O912 C920 1.284 . S
Zn913 O912 1.899 . S
Zn913 O914 2.032 . S
Zn913 O917 2.086 . S
Zn913 O922 1.977 . S
O914 Zn913 2.032 . S
O914 C918 1.278 . S
C915 O916 1.203 . S
C915 O922 1.267 . S
O916 C915 1.203 . S
O917 C910 1.185 . S
O917 Zn913 2.086 . S
C918 O914 1.278 . S
C918 O919 1.211 . S
O919 C918 1.211 . S
C920 O912 1.284 . S
C920 O921 1.273 . S
O921 C920 1.273 . S
O922 Zn913 1.977 . S
O922 C915 1.267 . S
C923 O924 1.160 . S
C923 O930 1.185 . S
O924 C923 1.160 . S
O925 Zn926 1.899 . S
O925 C933 1.284 . S
Zn926 O925 1.899 . S
Zn926 O927 2.032 . S
Zn926 O930 2.086 . S
Zn926 O935 1.977 . S
O927 Zn926 2.032 . S
O927 C931 1.278 . S
C928 O929 1.203 . S
C928 O935 1.267 . S
O929 C928 1.203 . S
O930 C923 1.185 . S
O930 Zn926 2.086 . S
C931 O927 1.278 . S
C931 O932 1.211 . S
O932 C931 1.211 . S
C933 O925 1.284 . S
C933 O934 1.273 . S
O934 C933 1.273 . S
O935 Zn926 1.977 . S
O935 C928 1.267 . S
C936 O937 1.160 . S
C936 O943 1.185 . S
O937 C936 1.160 . S
O938 Zn939 1.899 . S
O938 C946 1.284 . S
Zn939 O938 1.899 . S
Zn939 O940 2.032 . S
Zn939 O943 2.086 . S
Zn939 O948 1.977 . S
O940 Zn939 2.032 . S
O940 C944 1.278 . S
C941 O942 1.203 . S
C941 O948 1.267 . S
O942 C941 1.203 . S
O943 C936 1.185 . S
O943 Zn939 2.086 . S
C944 O940 1.278 . S
C944 O945 1.211 . S
O945 C944 1.211 . S
C946 O938 1.284 . S
C946 O947 1.273 . S
O947 C946 1.273 . S
O948 Zn939 1.977 . S
O948 C941 1.267 . S
C949 O950 1.160 . S
C949 O956 1.185 . S
O950 C949 1.160 . S
O951 Zn952 1.899 . S
O951 C959 1.284 . S
Zn952 O951 1.899 . S
Zn952 O953 2.032 . S
Zn952 O956 2.086 . S
Zn952 O961 1.977 . S
O953 Zn952 2.032 . S
O953 C957 1.278 . S
C954 O955 1.203 . S
C954 O961 1.267 . S
O955 C954 1.203 . S
O956 C949 1.185 . S
O956 Zn952 2.086 . S
C957 O953 1.278 . S
C957 O958 1.211 . S
O958 C957 1.211 . S
C959 O951 1.284 . S
C959 O960 1.273 . S
O960 C959 1.273 . S
O961 Zn952 1.977 . S
O961 C954 1.267 . S
C962 O963 1.160 . S
C962 O969 1.185 . S
O963 C962 1.160 . S
O964 Zn965 1.899 . S
O964 C972 1.284 . S
Zn965 O964 1.899 . S
Zn965 O966 2.032 . S
Zn965 O969 2.086 . S
Zn965 O974 1.977 . S
O966 Zn965 2.032 . S
O966 C970 1.278 . S
C967 O968 1.203 . S
C967 O974 1.267 . S
O968 C967 1.203 . S
O969 C962 1.185 . S
O969 Zn965 2.086 . S
C970 O966 1.278 . S
C970 O971 1.211 . S
O971 C970 1.211 . S
C972 O964 1.284 . S
C972 O973 1.273 . S
O973 C972 1.273 . S
O974 Zn965 1.977 . S
O974 C967 1.267 . S
C975 O976 1.160 . S
C975 O982 1.185 . S
O976 C975 1.160 . S
O977 Zn978 1.899 . S
O977 C985 1.284 . S
Zn978 O977 1.899 . S
Zn978 O979 2.032 . S
Zn978 O982 2.086 . S
Zn978 O987 1.977 . S
O979 Zn978 2.032 . S
O979 C983 1.278 . S
C980 O981 1.203 . S
C980 O987 1.267 . S
O981 C980 1.203 . S
O982 C975 1.185 . S
O982 Zn978 2.086 . S
C983 O979 1.278 . S
C983 O984 1.211 . S
O984 C983 1.211 . S
C985 O977 1.284 . S
C985 O986 1.273 . S
O986 C985 1.273 . S
O987 Zn978 1.977 . S
O987 C980 1.267 . S
C988 O989 1.160 . S
C988 O995 1.185 . S
O989 C988 1.160 . S
O990 Zn991 1.899 . S
O990 C998 1.284 . S
Zn991 O990 1.899 . S
Zn991 O992 2.032 . S
Zn991 O995 2.086 . S
Zn991 O1000 1.977 . S
O992 Zn991 2.032 . S
O992 C996 1.278 . S
C993 O994 1.203 . S
C993 O1000 1.267 . S
O994 C993 1.203 . S
O995 C988 1.185 . S
O995 Zn991 2.086 . S
C996 O992 1.278 . S
C996 O997 1.211 . S
O997 C996 1.211 . S
C998 O990 1.284 . S
C998 O999 1.273 . S
O999 C998 1.273 . S
O1000 Zn991 1.977 . S
O1000 C993 1.267 . S
C1001 O1002 1.160 . S
C1001 O1008 1.185 . S
O1002 C1001 1.160 . S
O1003 Zn1004 1.899 . S
O1003 C1011 1.284 . S
Zn1004 O1003 1.899 . S
Zn1004 O1005 2.032 . S
Zn1004 O1008 2.086 . S
Zn1004 O1013 1.977 . S
O1005 Zn1004 2.032 . S
O1005 C1009 1.278 . S
C1006 O1007 1.203 . S
C1006 O1013 1.267 . S
O1007 C1006 1.203 . S
O1008 C1001 1.185 . S
O1008 Zn1004 2.086 . S
C1009 O1005 1.278 . S
C1009 O1010 1.211 . S
O1010 C1009 1.211 . S
C1011 O1003 1.284 . S
C1011 O1012 1.273 . S
O1012 C1011 1.273 . S
O1013 Zn1004 1.977 . S
O1013 C1006 1.267 . S
C1014 O1015 1.160 . S
C1014 O1021 1.185 . S
O1015 C1014 1.160 . S
O1016 Zn1017 1.899 . S
O1016 C1024 1.284 . S
Zn1017 O1016 1.899 . S
Zn1017 O1018 2.032 . S
Zn1017 O1021 2.086 . S
Zn1017 O1026 1.977 . S
O1018 Zn1017 2.032 . S
O1018 C1022 1.278 . S
C1019 O1020 1.203 . S
C1019 O1026 1.267 . S
O1020 C1019 1.203 . S
O1021 C1014 1.185 . S
O1021 Zn1017 2.086 . S
C1022 O1018 1.278 . S
C1022 O1023 1.211 . S
O1023 C1022 1.211 . S
C1024 O1016 1.284 . S
C1024 O1025 1.273 . S
O1025 C1024 1.273 . S
O1026 Zn1017 1.977 . S
O1026 C1019 1.267 . S
C1027 O1028 1.160 . S
C1027 O1034 1.185 . S
O1028 C1027 1.160 . S
O1029 Zn1030 1.899 . S
O1029 C1037 1.284 . S
Zn1030 O1029 1.899 . S
Zn1030 O1031 2.032 . S
Zn1030 O1034 2.086 . S
Zn1030 O1039 1.977 . S
O1031 Zn1030 2.032 . S
O1031 C1035 1.278 . S
C1032 O1033 1.203 . S
C1032 O1039 1.267 . S
O1033 C1032 1.203 . S
O1034 C1027 1.185 . S
O1034 Zn1030 2.086 . S
C1035 O1031 1.278 . S
C1035 O1036 1.211 . S
O1036 C1035 1.211 . S
C1037 O1029 1.284 . S
C1037 O1038 1.273 . S
O1038 C1037 1.273 . S
O1039 Zn1030 1.977 . S
O1039 C1032 1.267 . S
C1040 O1041 1.160 . S
C1040 O1047 1.185 . S
O1041 C1040 1.160 . S
O1042 Zn1043 1.899 . S
O1042 C1050 1.284 . S
Zn1043 O1042 1.899 . S
Zn1043 O1044 2.032 . S
Zn1043 O1047 2.086 . S
Zn1043 O1052 1.977 . S
O1044 Zn1043 2.032 . S
O1044 C1048 1.278 . S
C1045 O1046 1.203 . S
C1045 O1052 1.267 . S
O1046 C1045 1.203 . S
O1047 C1040 1.185 . S
O1047 Zn1043 2.086 . S
C1048 O1044 1.278 . S
C1048 O1049 1.211 . S
O1049 C1048 1.211 . S
C1050 O1042 1.284 . S
C1050 O1051 1.273 . S
O1051 C1050 1.273 . S
O1052 Zn1043 1.977 . S
O1052 C1045 1.267 . S
C1053 O1054 1.160 . S
C1053 O1060 1.185 . S
O1054 C1053 1.160 . S
O1055 Zn1056 1.899 . S
O1055 C1063 1.284 . S
Zn1056 O1055 1.899 . S
Zn1056 O1057 2.032 . S
Zn1056 O1060 2.086 . S
Zn1056 O1065 1.977 . S
O1057 Zn1056 2.032 . S
O1057 C1061 1.278 . S
C1058 O1059 1.203 . S
C1058 O1065 1.267 . S
O1059 C1058 1.203 . S
O1060 C1053 1.185 . S
O1060 Zn1056 2.086 . S
C1061 O1057 1.278 . S
C1061 O1062 1.211 . S
O1062 C1061 1.211 . S
C1063 O1055 1.284 . S
C1063 O1064 1.273 . S
O1064 C1063 1.273 . S
O1065 Zn1056 1.977 . S
O1065 C1058 1.267 . S
C1066 O1067 1.160 . S
C1066 O1073 1.185 . S
O1067 C1066 1.160 . S
O1068 Zn1069 1.899 . S
O1068 C1076 1.284 . S
Zn1069 O1068 1.899 . S
Zn1069 O1070 2.032 . S
Zn1069 O1073 2.086 . S
Zn1069 O1078 1.977 . S
O1070 Zn1069 2.032 . S
O1070 C1074 1.278 . S
C1071 O1072 1.203 . S
C1071 O1078 1.267 . S
O1072 C1071 1.203 . S
O1073 C1066 1.185 . S
O1073 Zn1069 2.086 . S
C1074 O1070 1.278 . S
C1074 O1075 1.211 . S
O1075 C1074 1.211 . S
C1076 O1068 1.284 . S
C1076 O1077 1.273 . S
O1077 C1076 1.273 . S
O1078 Zn1069 1.977 . S
O1078 C1071 1.267 . S
C1079 O1080 1.160 . S
C1079 O1086 1.185 . S
O1080 C1079 1.160 . S
O1081 Zn1082 1.899 . S
O1081 C1089 1.284 . S
Zn1082 O1081 1.899 . S
Zn1082 O1083 2.032 . S
Zn1082 O1086 2.086 . S
Zn1082 O1091 1.977 . S
O1083 Zn1082 2.032 . S
O1083 C1087 1.278 . S
C1084 O1085 1.203 . S
C1084 O1091 1.267 . S
O1085 C1084 1.203 . S
O1086 C1079 1.185 . S
O1086 Zn1082 2.086 . S
C1087 O1083 1.278 . S
C1087 O1088 1.211 . S
O1088 C1087 1.211 . S
C1089 O1081 1.284 . S
C1089 O1090 1.273 . S
O1090 C1089 1.273 . S
O1091 Zn1082 1.977 . S
O1091 C1084 1.267 . S
C1092 O1093 1.160 . S
C1092 O1099 1.185 . S
O1093 C1092 1.160 . S
O1094 Zn1095 1.899 . S
O1094 C1102 1.284 . S
Zn1095 O1094 1.899 . S
Zn1095 O1096 2.032 . S
Zn1095 O1099 2.086 . S
Zn1095 O1104 1.977 . S
O1096 Zn1095 2.032 . S
O1096 C1100 1.278 . S
C1097 O1098 1.203 . S
C1097 O1104 1.267 . S
O1098 C1097 1.203 . S
O1099 C1092 1.185 . S
O1099 Zn1095 2.086 . S
C1100 O1096 1.278 . S
C1100 O1101 1.211 . S
O1101 C1100 1.211 . S
C1102 O1094 1.284 . S
C1102 O1103 1.273 . S
O1103 C1102 1.273 . S
O1104 Zn1095 1.977 . S
O1104 C1097 1.267 . S
C1105 O1106 1.160 . S
C1105 O1112 1.185 . S
O1106 C1105 1.160 . S
O1107 Zn1108 1.899 . S
O1107 C1115 1.284 . S
Zn1108 O1107 1.899 . S
Zn1108 O1109 2.032 . S
Zn1108 O1112 2.086 . S
Zn1108 O1117 1.977 . S
O1109 Zn1108 2.032 . S
O1109 C1113 1.278 . S
C1110 O1111 1.203 . S
C1110 O1117 1.267 . S
O1111 C1110 1.203 . S
O1112 C1105 1.185 . S
O1112 Zn1108 2.086 . S
C1113 O1109 1.278 . S
C1113 O1114 1.211 . S
O1114 C1113 1.211 . S
C1115 O1107 1.284 . S
C1115 O1116 1.273 . S
O1116 C1115 1.273 . S
O1117 Zn1108 1.977 . S
O1117 C1110 1.267 . S
C1118 O1119 1.160 . S
C1118 O1125 1.185 . S
O1119 C1118 1.160 . S
O1120 Zn1121 1.899 . S
O1120 C1128 1.284 . S
Zn1121 O1120 1.899 . S
Zn1121 O1122 2.032 . S
Zn1121 O1125 2.086 . S
Zn1121 O1130 1.977 . S
O1122 Zn1121 2.032 . S
O1122 C1126 1.278 . S
C1123 O1124 1.203 . S
C1123 O1130 1.267 . S
O1124 C1123 1.203 . S
O1125 C1118 1.185 . S
O1125 Zn1121 2.086 . S
C1126 O1122 1.278 . S
C1126 O1127 1.211 . S
O1127 C1126 1.211 . S
C1128 O1120 1.284 . S
C1128 O1129 1.273 . S
O1129 C1128 1.273 . S
O1130 Zn1121 1.977 . S
O1130 C1123 1.267 . S
C1131 O1132 1.160 . S
C1131 O1138 1.185 . S
O1132 C1131 1.160 . S
O1133 Zn1134 1.899 . S
O1133 C1141 1.284 . S
Zn1134 O1133 1.899 . S
Zn1134 O1135 2.032 . S
Zn1134 O1138 2.086 . S
Zn1134 O1143 1.977 . S
O1135 Zn1134 2.032 . S
O1135 C1139 1.278 . S
C1136 O1137 1.203 . S
C1136 O1143 1.267 . S
O1137 C1136 1.203 . S
O1138 C1131 1.185 . S
O1138 Zn1134 2.086 . S
C1139 O1135 1.278 . S
C1139 O1140 1.211 . S
O1140 C1139 1.211 . S
C1141 O1133 1.284 . S
C1141 O1142 1.273 . S
O1142 C1141 1.273 . S
O1143 Zn1134 1.977 . S
O1143 C1136 1.267 . S
C1144 O1145 1.160 . S
C1144 O1151 1.185 . S
O1145 C1144 1.160 . S
O1146 Zn1147 1.899 . S
O1146 C1154 1.284 . S
Zn1147 O1146 1.899 . S
Zn1147 O1148 2.032 . S
Zn1147 O1151 2.086 . S
Zn1147 O1156 1.977 . S
O1148 Zn1147 2.032 . S
O1148 C1152 1.278 . S
C1149 O1150 1.203 . S
C1149 O1156 1.267 . S
O1150 C1149 1.203 . S
O1151 C1144 1.185 . S
O1151 Zn1147 2.086 . S
C1152 O1148 1.278 . S
C1152 O1153 1.211 . S
O1153 C1152 1.211 . S
C1154 O1146 1.284 . S
C1154 O1155 1.273 . S
O1155 C1154 1.273 . S
O1156 Zn1147 1.977 . S
O1156 C1149 1.267 . S
C1157 O1158 1.160 . S
C1157 O1164 1.185 . S
O1158 C1157 1.160 . S
O1159 Zn1160 1.899 . S
O1159 C1167 1.284 . S
Zn1160 O1159 1.899 . S
Zn1160 O1161 2.032 . S
Zn1160 O1164 2.086 . S
Zn1160 O1169 1.977 . S
O1161 Zn1160 2.032 . S
O1161 C1165 1.278 . S
C1162 O1163 1.203 . S
C1162 O1169 1.267 . S
O1163 C1162 1.203 . S
O1164 C1157 1.185 . S
O1164 Zn1160 2.086 . S
C1165 O1161 1.278 . S
C1165 O1166 1.211 . S
O1166 C1165 1.211 . S
C1167 O1159 1.284 . S
C1167 O1168 1.273 . S
O1168 C1167 1.273 . S
O1169 Zn1160 1.977 . S
O1169 C1162 1.267 . S
C1170 O1171 1.160 . S
C1170 O1177 1.185 . S
O1171 C1170 1.160 . S
O1172 Zn1173 1.899 . S
O1172 C1180 1.284 . S
Zn1173 O1172 1.899 . S
Zn1173 O1174 2.032 . S
Zn1173 O1177 2.086 . S
Zn1173 O1182 1.977 . S
O1174 Zn1173 2.032 . S
O1174 C1178 1.278 . S
C1175 O1176 1.203 . S
C1175 O1182 1.267 . S
O1176 C1175 1.203 . S
O1177 C1170 1.185 . S
O1177 Zn1173 2.086 . S
C1178 O1174 1.278 . S
C1178 O1179 1.211 . S
O1179 C1178 1.211 . S
C1180 O1172 1.284 . S
C1180 O1181 1.273 . S
O1181 C1180 1.273 . S
O1182 Zn1173 1.977 . S
O1182 C1175 1.267 . S
C1183 O1184 1.160 . S
C1183 O1190 1.185 . S
O1184 C1183 1.160 . S
O1185 Zn1186 1.899 . S
O1185 C1193 1.284 . S
Zn1186 O1185 1.899 . S
Zn1186 O1187 2.032 . S
Zn1186 O1190 2.086 . S
Zn1186 O1195 1.977 . S
O1187 Zn1186 2.032 . S
O1187 C1191 1.278 . S
C1188 O1189 1.203 . S
C1188 O1195 1.267 . S
O1189 C1188 1.203 . S
O1190 C1183 1.185 . S
O1190 Zn1186 2.086 . S
C1191 O1187 1.278 . S
C1191 O1192 1.211 . S
O1192 C1191 1.211 . S
C1193 O1185 1.284 . S
C1193 O1194 1.273 . S
O1194 C1193 1.273 . S
O1195 Zn1186 1.977 . S
O1195 C1188 1.267 . S
C1196 O1197 1.160 . S
C1196 O1203 1.185 . S
O1197 C1196 1.160 . S
O1198 Zn1199 1.899 . S
O1198 C1206 1.284 . S
Zn1199 O1198 1.899 . S
Zn1199 O1200 2.032 . S
Zn1199 O1203 2.086 . S
Zn1199 O1208 1.977 . S
O1200 Zn1199 2.032 . S
O1200 C1204 1.278 . S
C1201 O1202 1.203 . S
C1201 O1208 1.267 . S
O1202 C1201 1.203 . S
O1203 C1196 1.185 . S
O1203 Zn1199 2.086 . S
C1204 O1200 1.278 . S
C1204 O1205 1.211 . S
O1205 C1204 1.211 . S
C1206 O1198 1.284 . S
C1206 O1207 1.273 . S
O1207 C1206 1.273 . S
O1208 Zn1199 1.977 . S
O1208 C1201 1.267 . S
C1209 O1210 1.160 . S
C1209 O1216 1.185 . S
O1210 C1209 1.160 . S
O1211 Zn1212 1.899 . S
O1211 C1219 1.284 . S
Zn1212 O1211 1.899 . S
Zn1212 O1213 2.032 . S
Zn1212 O1216 2.086 . S
Zn1212 O1221 1.977 . S
O1213 Zn1212 2.032 . S
O1213 C1217 1.278 . S
C1214 O1215 1.203 . S
C1214 O1221 1.267 . S
O1215 C1214 1.203 . S
O1216 C1209 1.185 . S
O1216 Zn1212 2.086 . S
C1217 O1213 1.278 . S
C1217 O1218 1.211 . S
O1218 C1217 1.211 . S
C1219 O1211 1.284 . S
C1219 O1220 1.273 . S
O1220 C1219 1.273 . S
O1221 Zn1212 1.977 . S
O1221 C1214 1.267 . S
C1222 O1223 1.160 . S
C1222 O1229 1.185 . S
O1223 C1222 1.160 . S
O1224 Zn1225 1.899 . S
O1224 C1232 1.284 . S
Zn1225 O1224 1.899 . S
Zn1225 O1226 2.032 . S
Zn1225 O1229 2.086 . S
Zn1225 O1234 1.977 . S
O1226 Zn1225 2.032 . S
O1226 C1230 1.278 . S
C1227 O1228 1.203 . S
C1227 O1234 1.267 . S
O1228 C1227 1.203 . S
O1229 C1222 1.185 . S
O1229 Zn1225 2.086 . S
C1230 O1226 1.278 . S
C1230 O1231 1.211 . S
O1231 C1230 1.211 . S
C1232 O1224 1.284 . S
C1232 O1233 1.273 . S
O1233 C1232 1.273 . S
O1234 Zn1225 1.977 . S
O1234 C1227 1.267 . S
C1235 O1236 1.160 . S
C1235 O1242 1.185 . S
O1236 C1235 1.160 . S
O1237 Zn1238 1.899 . S
O1237 C1245 1.284 . S
Zn1238 O1237 1.899 . S
Zn1238 O1239 2.032 . S
Zn1238 O1242 2.086 . S
Zn1238 O1247 1.977 . S
O1239 Zn1238 2.032 . S
O1239 C1243 1.278 . S
C1240 O1241 1.203 . S
C1240 O1247 1.267 . S
O1241 C1240 1.203 . S
O1242 C1235 1.185 . S
O1242 Zn1238 2.086 . S
C1243 O1239 1.278 . S
C1243 O1244 1.211 . S
O1244 C1243 1.211 . S
C1245 O1237 1.284 . S
C1245 O1246 1.273 . S
O1246 C1245 1.273 . S
O1247 Zn1238 1.977 . S
O1247 C1240 1.267 . S
C515 C8 1.535 . S
C476 C21 1.535 . S
C489 C34 1.535 . S
C502 C47 1.535 . S
C437 C60 1.535 . S
C450 C73 1.535 . S
C86 C463 1.535 . S
C424 C99 1.535 . S
C112 C411 1.535 . S
C125 C372 1.535 . S
C138 C385 1.535 . S
C151 C398 1.535 . S
C333 C164 1.535 . S
C346 C177 1.535 . S
C359 C190 1.535 . S
C320 C203 1.535 . S
C216 C580 1.535 . S
C229 C619 1.535 . S
C593 C242 1.535 . S
C606 C255 1.535 . S
C528 C268 1.535 . S
C554 C281 1.535 . S
C294 C567 1.535 . S
C541 C307 1.535 . S
C918 C632 1.535 . S
C645 C931 1.535 . S
C658 C905 1.535 . S
C671 C892 1.535 . S
C684 C879 1.535 . S
C697 C866 1.535 . S
C840 C710 1.535 . S
C853 C723 1.535 . S
C736 C996 1.535 . S
C749 C1035 1.535 . S
C1009 C762 1.535 . S
C775 C1022 1.535 . S
C788 C944 1.535 . S
C801 C970 1.535 . S
C983 C814 1.535 . S
C957 C827 1.535 . S
C1048 C1243 1.535 . S
C1230 C1061 1.535 . S
C1204 C1074 1.535 . S
C1217 C1087 1.535 . S
C1178 C1100 1.535 . S
C1113 C1191 1.535 . S
C1165 C1126 1.535 . S
C1152 C1139 1.535 . S
C10 C408 0.822 . S
C23 C369 0.822 . S
C36 C382 0.822 . S
C49 C395 0.822 . S
C62 C330 0.822 . S
C75 C343 0.822 . S
C356 C88 0.822 . S
C101 C317 0.822 . S
C114 C577 0.822 . S
C538 C127 0.822 . S
C140 C551 0.822 . S
C153 C564 0.822 . S
C616 C166 0.822 . S
C590 C179 0.822 . S
C603 C192 0.822 . S
C205 C525 0.822 . S
C218 C512 0.822 . S
C231 C434 0.822 . S
C244 C447 0.822 . S
C257 C460 0.822 . S
C270 C421 0.822 . S
C283 C486 0.822 . S
C499 C296 0.822 . S
C309 C473 0.822 . S
C439 C876 0.822 . S
C200 C634 0.822 . S
C465 C863 0.822 . S
C647 C174 0.822 . S
C517 C837 0.822 . S
C660 C148 0.822 . S
C850 C491 0.822 . S
C673 C122 0.822 . S
C993 C686 0.822 . S
C322 C954 0.822 . S
C967 C699 0.822 . S
C980 C348 0.822 . S
C1032 C712 0.822 . S
C400 C1006 0.822 . S
C725 C1019 0.822 . S
C374 C941 0.822 . S
C738 C57 0.822 . S
C751 C5 0.822 . S
C902 C764 0.822 . S
C777 C31 0.822 . S
C790 C889 0.822 . S
C83 C803 0.822 . S
C816 C928 0.822 . S
C915 C829 0.822 . S
C187 C1050 0.822 . S
C1175 C452 0.822 . S
C1063 C161 0.822 . S
C426 C1188 0.822 . S
C135 C1076 0.822 . S
C1162 C478 0.822 . S
C109 C1089 0.822 . S
C1149 C504 0.822 . S
C798 C361 0.822 . S
C1102 C811 0.822 . S
C733 C335 0.822 . S
C1115 C824 0.822 . S
C772 C387 0.822 . S
C1128 C785 0.822 . S
C413 C746 0.822 . S
C759 C1141 0.822 . S
C1240 C972 0.822 . S
C1201 C1024 0.822 . S
C946 C18 0.822 . S
C1214 C1037 0.822 . S
C44 C1011 0.822 . S
C998 C1227 0.822 . S
C959 C96 0.822 . S
C985 C70 0.822 . S
C1206 C720 0.822 . S
C1136 C907 0.822 . S
C1219 C707 0.822 . S
C894 C1123 0.822 . S
C1245 C694 0.822 . S
C920 C1110 0.822 . S
C1232 C681 0.822 . S
C933 C1097 0.822 . S
C855 C278 0.822 . S
C291 C1154 0.822 . S
C842 C213 0.822 . S
C1167 C304 0.822 . S
C868 C252 0.822 . S
C265 C1193 0.822 . S
C226 C881 0.822 . S
C239 C1180 0.822 . S
C1071 C556 0.822 . S
C608 C1045 0.822 . S
C629 C530 0.822 . S
C621 C1058 0.822 . S
C642 C595 0.822 . S
C1084 C582 0.822 . S
C668 C543 0.822 . S
C655 C569 0.822 . S
C364 C0 1.243 1_655 S
C13 C377 1.243 1_545 S
C390 C26 1.243 1_455 S
C39 C403 1.243 1_565 S
C312 C52 1.243 1_655 S
C325 C65 1.243 1_565 S
C78 C338 1.243 1_655 S
C91 C351 1.243 1_565 S
C494 C104 1.243 1_565 S
C117 C507 1.243 1_655 S
C130 C468 1.243 1_565 S
C481 C143 1.243 1_655 S
C156 C442 1.243 1_565 S
C455 C169 1.243 1_655 S
C416 C182 1.243 1_565 S
C429 C195 1.243 1_455 S
C208 C585 1.243 1_554 S
C559 C221 1.243 1_554 S
C572 C234 1.243 1_554 S
C533 C247 1.243 1_554 S
C260 C546 1.243 1_556 S
C273 C520 1.243 1_554 S
C611 C286 1.243 1_556 S
C299 C598 1.243 1_554 S
C624 C858 1.243 . S
C871 C637 1.243 . S
C832 C650 1.243 . S
C845 C663 1.243 . S
C676 C923 1.243 . S
C910 C689 1.243 . S
C702 C897 1.243 . S
C715 C884 1.243 . S
C1001 C728 1.243 . S
C741 C975 1.243 . S
C988 C754 1.243 . S
C949 C767 1.243 . S
C962 C780 1.243 . S
C936 C793 1.243 . S
C1027 C806 1.243 . S
C1014 C819 1.243 . S
C1040 C1170 1.243 . S
C1183 C1053 1.243 . S
C1066 C1144 1.243 . S
C1157 C1079 1.243 . S
C1092 C1235 1.243 . S
C1105 C1222 1.243 . S
C1209 C1118 1.243 . S
C1131 C1196 1.243 . S
