# Generated by pormake.
# Topology uon, (4)-cn, num edge types: 1
# Building blocks:
#     Node 0, Type 0, BuildingBlock: ICAMEG_clean_sbu_1, # of connection points: 4
#     Node 1, Type 0, BuildingBlock: ICAMEG_clean_sbu_1, # of connection points: 4
#     Node 2, Type 0, BuildingBlock: ICAMEG_clean_sbu_1, # of connection points: 4
#     Node 3, Type 0, BuildingBlock: ICAMEG_clean_sbu_1, # of connection points: 4
#     Node 4, Type 0, BuildingBlock: ICAMEG_clean_sbu_1, # of connection points: 4
#     Node 5, Type 0, BuildingBlock: ICAMEG_clean_sbu_1, # of connection points: 4
#     Edge 6, Type (0, 0), BuildingBlock: FUNLAD_clean_linker_0, # of connection points: 2
#     Edge 7, Type (0, 0), BuildingBlock: FUNLAD_clean_linker_0, # of connection points: 2
#     Edge 8, Type (0, 0), BuildingBlock: FUNLAD_clean_linker_0, # of connection points: 2
#     Edge 9, Type (0, 0), BuildingBlock: FUNLAD_clean_linker_0, # of connection points: 2
#     Edge 10, Type (0, 0), BuildingBlock: FUNLAD_clean_linker_0, # of connection points: 2
#     Edge 11, Type (0, 0), BuildingBlock: FUNLAD_clean_linker_0, # of connection points: 2
#     Edge 12, Type (0, 0), BuildingBlock: FUNLAD_clean_linker_0, # of connection points: 2
#     Edge 13, Type (0, 0), BuildingBlock: FUNLAD_clean_linker_0, # of connection points: 2
#     Edge 14, Type (0, 0), BuildingBlock: FUNLAD_clean_linker_0, # of connection points: 2
#     Edge 15, Type (0, 0), BuildingBlock: FUNLAD_clean_linker_0, # of connection points: 2
#     Edge 16, Type (0, 0), BuildingBlock: FUNLAD_clean_linker_0, # of connection points: 2
#     Edge 17, Type (0, 0), BuildingBlock: FUNLAD_clean_linker_0, # of connection points: 2
# Relax obj value: 0.158
# Max RMSD: 0.297
# Mean RMSD: 0.272
data_MOF--net-uon--node1-ICAMEG_clean_sbu_1--edge1-FUNLAD_clean_linker_0
_symmetry_space_group_name_H-M    P1
_symmetry_Int_Tables_number       1
_symmetry_cell_setting            triclinic
loop_
_symmetry_equiv_pos_as_xyz
'x, y, z'
_cell_length_a     42.384373
_cell_length_b     42.395227
_cell_length_c     19.740713
_cell_angle_alpha  89.638429
_cell_angle_beta   90.407217
_cell_angle_gamma 120.02387
loop_
_atom_site_label
_atom_site_type_symbol
_atom_site_fract_x
_atom_site_fract_y
_atom_site_fract_z
_atom_type_partial_charge
Co0 Co 0.16625 0.40843 0.98902 0.0
Co1 Co 0.22727 0.42449 0.12032 0.0
O2 O 0.20911 0.4094 0.02825 0.0
C3 C 0.22794 0.44474 0.88936 0.0
O4 O 0.24612 0.43189 0.92184 0.0
C5 C 0.2146 0.34989 0.1052 0.0
O6 O 0.18173 0.34076 0.08384 0.0
O7 O 0.17752 0.39372 0.15756 0.0
O8 O 0.13765 0.38481 0.07335 0.0
H9 H 0.2261 0.468 0.35589 0.0
H10 H 0.20226 0.37072 0.91897 0.0
O11 O 0.19514 0.43509 0.9055 0.0
H12 H 0.07307 0.2778 0.94255 0.0
H13 H 0.07937 0.39333 0.80025 0.0
H14 H 0.10974 0.42366 0.04146 0.0
H15 H 0.09548 0.33997 0.98439 0.0
H16 H 0.13286 0.39363 0.85139 0.0
O17 O 0.23601 0.38217 0.12622 0.0
H18 H 0.20395 0.45038 0.2386 0.0
H19 H 0.28899 0.42771 0.19925 0.0
H20 H 0.05584 0.42338 0.99269 0.0
H21 H 0.18108 0.30939 0.87629 0.0
H22 H 0.04032 0.40806 0.87123 0.0
H23 H 0.11593 0.26208 0.88771 0.0
O24 O 0.1812 0.45694 0.02656 0.0
H25 H 0.33641 0.45017 0.98012 0.0
H26 H 0.28519 0.50208 0.13851 0.0
H27 H 0.34666 0.54129 0.09222 0.0
H28 H 0.37272 0.51538 0.01244 0.0
H29 H 0.27476 0.4121 0.02645 0.0
H30 H 0.31194 0.44485 0.31624 0.0
H31 H 0.28048 0.46529 0.39535 0.0
O32 O 0.21893 0.46717 0.11464 0.0
C33 C 0.14516 0.38106 0.13474 0.0
C34 C 0.24012 0.45927 0.32182 0.0
C35 C 0.28827 0.44623 0.29959 0.0
N36 N 0.24538 0.43838 0.21203 0.0
C37 C 0.22777 0.44937 0.25532 0.0
C38 C 0.27513 0.43651 0.23346 0.0
C39 C 0.27061 0.4577 0.34395 0.0
C40 C 0.1739 0.35122 0.9229 0.0
N41 N 0.15017 0.35999 0.95213 0.0
C42 C 0.162 0.31603 0.89914 0.0
C43 C 0.12549 0.28947 0.90578 0.0
C44 C 0.10147 0.29828 0.93649 0.0
C45 C 0.11438 0.3337 0.95986 0.0
C46 C 0.08578 0.39994 0.85328 0.0
C47 C 0.10297 0.41668 0.98875 0.0
C48 C 0.11606 0.40024 0.88243 0.0
N49 N 0.12409 0.40821 0.94951 0.0
C50 C 0.07252 0.41672 0.96132 0.0
C51 C 0.06387 0.40819 0.89314 0.0
C52 C 0.20092 0.47649 0.0753 0.0
C53 C 0.32533 0.46182 0.01471 0.0
C54 C 0.29603 0.49068 0.10305 0.0
C55 C 0.33102 0.51298 0.0774 0.0
C56 C 0.34566 0.49841 0.03278 0.0
N57 N 0.27606 0.45489 0.08455 0.0
C58 C 0.29044 0.44033 0.04141 0.0
Co59 Co 0.80463 0.24732 0.59953 0.0
Co60 Co 0.87876 0.26395 0.69904 0.0
O61 O 0.85629 0.27344 0.62106 0.0
C62 C 0.82298 0.32315 0.6185 0.0
O63 O 0.84204 0.32316 0.67111 0.0
C64 C 0.91263 0.25139 0.58021 0.0
O65 O 0.87947 0.22776 0.56044 0.0
O66 O 0.84989 0.21029 0.68439 0.0
O67 O 0.80155 0.1997 0.61992 0.0
H68 H 0.88218 0.20146 0.9139 0.0
H69 H 0.85686 0.30075 0.50142 0.0
O70 O 0.80655 0.2949 0.58126 0.0
H71 H 0.79649 0.18334 0.38071 0.0
H72 H 0.69387 0.22364 0.46417 0.0
H73 H 0.73906 0.18524 0.6608 0.0
H74 H 0.77949 0.18759 0.4982 0.0
H75 H 0.7595 0.25536 0.49196 0.0
O76 O 0.91796 0.26798 0.63655 0.0
H77 H 0.85265 0.21354 0.81691 0.0
H78 H 0.95584 0.29478 0.74361 0.0
H79 H 0.67327 0.15256 0.63456 0.0
H80 H 0.87461 0.29779 0.38385 0.0
H81 H 0.6503 0.17174 0.5356 0.0
H82 H 0.84436 0.23873 0.32278 0.0
O83 O 0.79193 0.25005 0.6944 0.0
H84 H 0.95654 0.39517 0.63 0.0
H85 H 0.89434 0.31112 0.82022 0.0
H86 H 0.92824 0.37737 0.84069 0.0
H87 H 0.95968 0.41988 0.74516 0.0
H88 H 0.92211 0.32877 0.61169 0.0
H89 H 0.98652 0.2835 0.83965 0.0
H90 H 0.94959 0.23661 0.92573 0.0
O91 O 0.83946 0.25996 0.76128 0.0
C92 C 0.81998 0.18881 0.65426 0.0
C93 C 0.89856 0.22205 0.87686 0.0
C94 C 0.95713 0.26805 0.83512 0.0
N95 N 0.90249 0.25505 0.77506 0.0
C96 C 0.88198 0.22907 0.82195 0.0
C97 C 0.93962 0.27428 0.78081 0.0
C98 C 0.93638 0.24175 0.88342 0.0
C99 C 0.84338 0.27504 0.4749 0.0
N100 N 0.81702 0.24445 0.50635 0.0
C101 C 0.85363 0.2735 0.40847 0.0
C102 C 0.83668 0.24034 0.37427 0.0
C103 C 0.80982 0.20924 0.40675 0.0
C104 C 0.80034 0.2118 0.47327 0.0
C105 C 0.70356 0.21495 0.50728 0.0
C106 C 0.72929 0.19354 0.61733 0.0
C107 C 0.74067 0.23282 0.52329 0.0
N108 N 0.7531 0.22186 0.57746 0.0
C109 C 0.692 0.17502 0.60287 0.0
C110 C 0.67913 0.18583 0.54738 0.0
C111 C 0.80722 0.25451 0.752 0.0
C112 C 0.94308 0.37692 0.67209 0.0
C113 C 0.90794 0.32945 0.77839 0.0
C114 C 0.92713 0.36693 0.7903 0.0
C115 C 0.94478 0.39077 0.73669 0.0
N116 N 0.9065 0.31606 0.71494 0.0
C117 C 0.9237 0.33927 0.6621 0.0
Co118 Co 0.57352 0.76069 0.65835 0.0
Co119 Co 0.55664 0.79955 0.79754 0.0
O120 O 0.57183 0.8005 0.7041 0.0
C121 C 0.53756 0.78976 0.5645 0.0
O122 O 0.54845 0.8184 0.60297 0.0
C123 C 0.63074 0.86248 0.78623 0.0
O124 O 0.64001 0.83988 0.76022 0.0
O125 O 0.58821 0.78022 0.82919 0.0
O126 O 0.59728 0.75272 0.73998 0.0
H127 H 0.51362 0.74489 0.02845 0.0
H128 H 0.61031 0.83694 0.59747 0.0
O129 O 0.54731 0.76619 0.57673 0.0
H130 H 0.7049 0.80234 0.60999 0.0
H131 H 0.58984 0.69735 0.45818 0.0
H132 H 0.5591 0.68739 0.70077 0.0
H133 H 0.64271 0.75991 0.64903 0.0
H134 H 0.58912 0.74812 0.51737 0.0
O135 O 0.59848 0.8505 0.80829 0.0
H136 H 0.53134 0.74556 0.9094 0.0
H137 H 0.55261 0.8541 0.88596 0.0
H138 H 0.55981 0.6361 0.64386 0.0
H139 H 0.67168 0.87978 0.55768 0.0
H140 H 0.57529 0.64093 0.52167 0.0
H141 H 0.71981 0.8628 0.56362 0.0
O142 O 0.52493 0.7252 0.6935 0.0
H143 H 0.52932 0.88743 0.67393 0.0
H144 H 0.47874 0.77787 0.81869 0.0
H145 H 0.43885 0.80114 0.77967 0.0
H146 H 0.4641 0.85637 0.7068 0.0
H147 H 0.56807 0.86282 0.71285 0.0
H148 H 0.53537 0.85474 0.00488 0.0
H149 H 0.51558 0.79979 0.07688 0.0
O150 O 0.51447 0.74856 0.78687 0.0
C151 C 0.60134 0.76202 0.80232 0.0
C152 C 0.52206 0.76895 0.99751 0.0
C153 C 0.53432 0.83063 0.9843 0.0
N154 N 0.54263 0.7997 0.8907 0.0
C155 C 0.53201 0.76944 0.93004 0.0
C156 C 0.54409 0.83013 0.91706 0.0
C157 C 0.5232 0.79978 0.02467 0.0
C158 C 0.63024 0.82852 0.59893 0.0
N159 N 0.62194 0.79506 0.62361 0.0
C160 C 0.66541 0.8533 0.57684 0.0
C161 C 0.69243 0.84383 0.58042 0.0
C162 C 0.68408 0.80994 0.60638 0.0
C163 C 0.64865 0.78593 0.6282 0.0
C164 C 0.58314 0.69496 0.51147 0.0
C165 C 0.56615 0.68978 0.64775 0.0
C166 C 0.5826 0.72356 0.54516 0.0
N167 N 0.57444 0.72081 0.61257 0.0
C168 C 0.56636 0.66061 0.61572 0.0
C169 C 0.575 0.66331 0.54714 0.0
C170 C 0.50527 0.72307 0.74366 0.0
C171 C 0.51796 0.86328 0.7055 0.0
C172 C 0.48984 0.80153 0.78609 0.0
C173 C 0.46716 0.81478 0.7646 0.0
C174 C 0.48136 0.84582 0.72387 0.0
N175 N 0.52564 0.81857 0.76727 0.0
C176 C 0.53982 0.84927 0.72799 0.0
Co177 Co 0.76801 0.5577 0.21968 0.0
Co178 Co 0.7374 0.60019 0.32781 0.0
O179 O 0.73306 0.57182 0.24769 0.0
C180 C 0.70031 0.48879 0.24633 0.0
O181 O 0.69767 0.50455 0.30123 0.0
C182 C 0.73777 0.64382 0.21121 0.0
O183 O 0.76427 0.63965 0.18753 0.0
O184 O 0.79048 0.63419 0.3119 0.0
O185 O 0.80933 0.60807 0.23537 0.0
H186 H 0.79354 0.66622 0.54522 0.0
H187 H 0.70489 0.54154 0.13129 0.0
O188 O 0.72687 0.50642 0.20573 0.0
H189 H 0.81367 0.62054 0.99506 0.0
H190 H 0.81141 0.49014 0.07394 0.0
H191 H 0.8408 0.57303 0.26814 0.0
H192 H 0.81998 0.60213 0.11091 0.0
H193 H 0.76847 0.50999 0.11016 0.0
O194 O 0.72441 0.63117 0.26948 0.0
H195 H 0.78819 0.6294 0.4449 0.0
H196 H 0.69441 0.63298 0.37915 0.0
H197 H 0.88462 0.55409 0.23338 0.0
H198 H 0.6973 0.55914 0.01555 0.0
H199 H 0.87001 0.51233 0.13563 0.0
H200 H 0.75197 0.59901 0.9467 0.0
O201 O 0.77383 0.54494 0.3138 0.0
H202 H 0.60508 0.5257 0.26301 0.0
H203 H 0.69448 0.55961 0.44897 0.0
H204 H 0.62961 0.51602 0.47087 0.0
H205 H 0.5844 0.49884 0.37749 0.0
H206 H 0.67022 0.56891 0.24316 0.0
H207 H 0.69885 0.67003 0.47854 0.0
H208 H 0.74864 0.68678 0.56251 0.0
O209 O 0.75019 0.56894 0.38535 0.0
C210 C 0.81515 0.63406 0.27526 0.0
C211 C 0.77166 0.659 0.5091 0.0
C212 C 0.71855 0.66119 0.47162 0.0
N213 N 0.74089 0.62887 0.40654 0.0
C214 C 0.76844 0.63808 0.45232 0.0
C215 C 0.71622 0.64029 0.41538 0.0
C216 C 0.74648 0.67057 0.51873 0.0
C217 C 0.72878 0.5586 0.10136 0.0
N218 N 0.76282 0.5706 0.12757 0.0
C219 C 0.72433 0.5686 0.03598 0.0
C220 C 0.75501 0.59102 0.99741 0.0
C221 C 0.78965 0.60312 0.02452 0.0
C222 C 0.79305 0.59263 0.09014 0.0
C223 C 0.81811 0.5084 0.11652 0.0
C224 C 0.83436 0.55504 0.22529 0.0
C225 C 0.79389 0.51967 0.13733 0.0
N226 N 0.80226 0.54284 0.19088 0.0
C227 C 0.85923 0.54433 0.20596 0.0
C228 C 0.851 0.52087 0.15115 0.0
C229 C 0.76573 0.55039 0.37299 0.0
C230 C 0.62449 0.53307 0.30416 0.0
C231 C 0.67497 0.55225 0.40807 0.0
C232 C 0.63827 0.52759 0.42079 0.0
C233 C 0.61292 0.51797 0.36839 0.0
N234 N 0.6861 0.56701 0.34498 0.0
C235 C 0.66141 0.55767 0.29331 0.0
Co236 Co 0.23669 0.82236 0.32219 0.0
Co237 Co 0.18626 0.76901 0.45825 0.0
O238 O 0.19148 0.78471 0.36351 0.0
C239 C 0.20449 0.75703 0.2305 0.0
O240 O 0.17386 0.74238 0.26415 0.0
C241 C 0.13177 0.7918 0.43453 0.0
O242 O 0.15771 0.82091 0.40462 0.0
O243 O 0.21205 0.82032 0.48941 0.0
O244 O 0.24633 0.85494 0.40249 0.0
H245 H 0.22942 0.77091 0.6966 0.0
H246 H 0.16572 0.79328 0.24497 0.0
O247 O 0.22981 0.78961 0.24259 0.0
H248 H 0.21602 0.92574 0.25943 0.0
H249 H 0.31597 0.89837 0.12952 0.0
H250 H 0.31139 0.87159 0.37389 0.0
H251 H 0.24919 0.89741 0.30965 0.0
H252 H 0.25874 0.85165 0.18236 0.0
O253 O 0.13883 0.76871 0.462 0.0
H254 H 0.23598 0.78983 0.57665 0.0
H255 H 0.12368 0.7155 0.54163 0.0
H256 H 0.36912 0.91875 0.32338 0.0
H257 H 0.13197 0.82038 0.19381 0.0
H258 H 0.37161 0.93241 0.20032 0.0
H259 H 0.15696 0.88718 0.20077 0.0
O260 O 0.26436 0.80141 0.36462 0.0
H261 H 0.0905 0.66147 0.32825 0.0
H262 H 0.19433 0.70412 0.48647 0.0
H263 H 0.16293 0.64037 0.44792 0.0
H264 H 0.11056 0.61861 0.3683 0.0
H265 H 0.1231 0.7252 0.36692 0.0
H266 H 0.11582 0.69594 0.66129 0.0
H267 H 0.16898 0.72363 0.73959 0.0
O268 O 0.23349 0.76877 0.45551 0.0
C269 C 0.235 0.85092 0.46354 0.0
C270 C 0.20608 0.75856 0.66293 0.0
C271 C 0.14231 0.71651 0.64312 0.0
N272 N 0.18032 0.75354 0.55214 0.0
C273 C 0.20965 0.76908 0.59495 0.0
C274 C 0.14691 0.72773 0.57547 0.0
C275 C 0.17215 0.73205 0.68703 0.0
C276 C 0.17735 0.82224 0.24748 0.0
N277 N 0.20995 0.84356 0.27934 0.0
C278 C 0.15785 0.83753 0.21868 0.0
C279 C 0.17181 0.87498 0.22276 0.0
C280 C 0.20492 0.89661 0.25567 0.0
C281 C 0.22359 0.88034 0.28401 0.0
C282 C 0.31519 0.89276 0.18323 0.0
C283 C 0.31223 0.87765 0.32045 0.0
C284 C 0.2829 0.86633 0.21337 0.0
N285 N 0.28167 0.85933 0.28127 0.0
C286 C 0.34501 0.90425 0.29206 0.0
C287 C 0.3464 0.91186 0.223 0.0
C288 C 0.26063 0.78128 0.41539 0.0
C289 C 0.1133 0.67063 0.3629 0.0
C290 C 0.17188 0.69508 0.45113 0.0
C291 C 0.15404 0.65883 0.42984 0.0
C292 C 0.12461 0.64662 0.3853 0.0
N293 N 0.16084 0.71859 0.4285 0.0
C294 C 0.13178 0.70668 0.38532 0.0
Co295 Co 0.45661 0.20495 0.90643 0.0
Co296 Co 0.3963 0.13163 0.00398 0.0
O297 O 0.4292 0.15326 0.92745 0.0
C298 C 0.51222 0.18393 0.92845 0.0
O299 O 0.492 0.16417 0.9791 0.0
C300 C 0.35071 0.09877 0.88269 0.0
O301 O 0.36148 0.13213 0.86226 0.0
O302 O 0.37334 0.1621 0.987 0.0
O303 O 0.41302 0.21003 0.9244 0.0
H304 H 0.32996 0.13103 0.21444 0.0
H305 H 0.45619 0.15187 0.80923 0.0
O306 O 0.50148 0.20132 0.8907 0.0
H307 H 0.40356 0.216 0.68466 0.0
H308 H 0.54739 0.31463 0.77419 0.0
H309 H 0.46233 0.27152 0.9669 0.0
H310 H 0.42447 0.2323 0.8029 0.0
H311 H 0.51123 0.24904 0.80104 0.0
O312 O 0.36077 0.09309 0.94038 0.0
H313 H 0.37286 0.15934 0.11959 0.0
H314 H 0.34724 0.05494 0.04761 0.0
H315 H 0.49769 0.3373 0.94154 0.0
H316 H 0.43577 0.13477 0.69093 0.0
H317 H 0.5406 0.35923 0.84457 0.0
H318 H 0.40917 0.16691 0.62793 0.0
O319 O 0.47173 0.21696 0.00189 0.0
H320 H 0.44567 0.0499 0.94072 0.0
H321 H 0.42559 0.11441 0.12763 0.0
H322 H 0.45562 0.07846 0.15118 0.0
H323 H 0.46579 0.04585 0.05733 0.0
H324 H 0.41608 0.08643 0.9193 0.0
H325 H 0.30391 0.02547 0.14147 0.0
H326 H 0.29515 0.06363 0.22581 0.0
O327 O 0.43202 0.17017 0.06742 0.0
C328 C 0.38325 0.19244 0.95721 0.0
C329 C 0.33364 0.11412 0.17815 0.0
C330 C 0.31898 0.05487 0.13714 0.0
N331 N 0.36275 0.10881 0.07851 0.0
C332 C 0.35797 0.13 0.12448 0.0
C333 C 0.34349 0.07169 0.08405 0.0
C334 C 0.31409 0.0763 0.18446 0.0
C335 C 0.44493 0.16617 0.78186 0.0
N336 N 0.44173 0.19319 0.81265 0.0
C337 C 0.4333 0.15629 0.71502 0.0
C338 C 0.41833 0.1743 0.67973 0.0
C339 C 0.41516 0.20184 0.71154 0.0
C340 C 0.427 0.21093 0.77849 0.0
C341 C 0.5287 0.3054 0.81645 0.0
C342 C 0.48072 0.28084 0.92428 0.0
C343 C 0.5082 0.26832 0.83192 0.0
N344 N 0.48443 0.25647 0.88501 0.0
C345 C 0.50077 0.31812 0.91032 0.0
C346 C 0.52487 0.33041 0.85595 0.0
C347 C 0.45995 0.20174 0.05912 0.0
C348 C 0.44126 0.06387 0.98209 0.0
C349 C 0.42995 0.10033 0.08651 0.0
C350 C 0.44692 0.07997 0.10017 0.0
C351 C 0.4526 0.06166 0.0475 0.0
N352 N 0.41882 0.10229 0.02225 0.0
C353 C 0.42433 0.08444 0.97033 0.0
C354 C 0.26586 0.33656 0.10556 0.0
C355 C 0.22869 0.32458 0.09536 0.0
C356 C 0.28009 0.31417 0.08901 0.0
C357 C 0.25744 0.27925 0.06193 0.0
C358 C 0.22003 0.2666 0.05478 0.0
C359 C 0.20581 0.28914 0.07074 0.0
C360 C 0.2722 0.25552 0.04127 0.0
C361 C 0.30589 0.26921 0.01524 0.0
C362 C 0.32236 0.24685 0.99523 0.0
C363 C 0.35261 0.26242 0.95195 0.0
C364 C 0.37128 0.24399 0.93685 0.0
C365 C 0.36032 0.20954 0.96525 0.0
H366 H 0.28782 0.19907 0.05643 0.0
C367 C 0.32924 0.19335 0.00678 0.0
C368 C 0.31051 0.2118 0.02177 0.0
H369 H 0.32011 0.16695 0.02992 0.0
H370 H 0.28424 0.36362 0.12477 0.0
H371 H 0.30886 0.32432 0.09741 0.0
H372 H 0.20194 0.23963 0.03487 0.0
H373 H 0.17703 0.27903 0.06241 0.0
H374 H 0.25413 0.22626 0.04421 0.0
H375 H 0.32217 0.2984 0.00661 0.0
H376 H 0.3624 0.28939 0.93084 0.0
H377 H 0.39506 0.2574 0.90468 0.0
C378 C 0.9721 0.29757 0.52995 0.0
C379 C 0.9431 0.2615 0.53313 0.0
C380 C 0.99867 0.30804 0.4798 0.0
C381 C 0.99715 0.28237 0.43323 0.0
C382 C 0.96917 0.246 0.43844 0.0
C383 C 0.94195 0.23576 0.48719 0.0
C384 C 0.02453 0.29319 0.37888 0.0
C385 C 0.03339 0.32236 0.33929 0.0
C386 C 0.06067 0.33397 0.28438 0.0
C387 C 0.05577 0.34956 0.22518 0.0
C388 C 0.0824 0.36316 0.17471 0.0
C389 C 0.11496 0.36244 0.18355 0.0
H390 H 0.09744 0.32068 0.33778 0.0
C391 C 0.1196 0.34634 0.24247 0.0
C392 C 0.09261 0.33197 0.29215 0.0
H393 H 0.14443 0.34542 0.25074 0.0
H394 H 0.97351 0.31797 0.56456 0.0
H395 H 0.02038 0.33618 0.47731 0.0
H396 H 0.96769 0.22576 0.4033 0.0
H397 H 0.91986 0.20777 0.4887 0.0
H398 H 0.03567 0.27556 0.36844 0.0
H399 H 0.01914 0.3375 0.34569 0.0
H400 H 0.03143 0.35153 0.21828 0.0
H401 H 0.0781 0.37558 0.13015 0.0
C402 C 0.7693 0.12454 0.63944 0.0
C403 C 0.80468 0.14905 0.66279 0.0
C404 C 0.75293 0.08749 0.65476 0.0
C405 C 0.77161 0.07407 0.69364 0.0
C406 C 0.80768 0.09806 0.71355 0.0
C407 C 0.824 0.13527 0.69881 0.0
C408 C 0.75377 0.03525 0.71443 0.0
C409 C 0.71816 0.01634 0.73049 0.0
C410 C 0.69855 0.97736 0.75076 0.0
C411 C 0.66548 0.96378 0.78562 0.0
C412 C 0.64427 0.92667 0.80015 0.0
C413 C 0.65555 0.9022 0.77953 0.0
H414 H 0.73537 0.96227 0.70381 0.0
C415 C 0.6892 0.91588 0.74646 0.0
C416 C 0.71048 0.95307 0.73207 0.0
H417 H 0.69853 0.89772 0.72934 0.0
H418 H 0.7537 0.13402 0.61091 0.0
H419 H 0.72551 0.06945 0.63657 0.0
H420 H 0.82279 0.08823 0.74269 0.0
H421 H 0.8514 0.1533 0.71717 0.0
H422 H 0.77077 0.02298 0.72057 0.0
H423 H 0.70256 0.03034 0.7305 0.0
H424 H 0.65558 0.98184 0.80042 0.0
H425 H 0.61845 0.91705 0.82551 0.0
C426 C 0.73951 0.67979 0.10937 0.0
C427 C 0.72058 0.65887 0.16614 0.0
C428 C 0.72229 0.69112 0.06263 0.0
C429 C 0.68562 0.68132 0.07132 0.0
C430 C 0.66674 0.66058 0.12819 0.0
C431 C 0.68418 0.64984 0.17573 0.0
C432 C 0.66609 0.69094 0.0201 0.0
C433 C 0.68231 0.72275 0.98616 0.0
C434 C 0.66217 0.73258 0.93697 0.0
C435 C 0.66663 0.76761 0.93887 0.0
C436 C 0.64687 0.77713 0.89471 0.0
C437 C 0.62329 0.75217 0.84628 0.0
H438 H 0.63554 0.68064 0.88495 0.0
C439 C 0.61994 0.71758 0.84238 0.0
C440 C 0.6389 0.70765 0.88806 0.0
H441 H 0.60191 0.69791 0.80543 0.0
H442 H 0.7675 0.68692 0.1004 0.0
H443 H 0.73736 0.70645 0.01856 0.0
H444 H 0.63839 0.65255 0.13569 0.0
H445 H 0.66878 0.63335 0.21857 0.0
H446 H 0.63712 0.67222 0.01272 0.0
H447 H 0.71016 0.74327 0.99854 0.0
H448 H 0.68468 0.7873 0.97579 0.0
H449 H 0.65008 0.80409 0.89827 0.0
C450 C 0.8634 0.68761 0.33928 0.0
C451 C 0.8531 0.6645 0.28262 0.0
C452 C 0.90012 0.71254 0.35206 0.0
C453 C 0.92725 0.71505 0.30812 0.0
C454 C 0.9168 0.69383 0.24913 0.0
C455 C 0.88015 0.66855 0.23677 0.0
C456 C 0.96663 0.73796 0.32405 0.0
C457 C 0.97963 0.74216 0.38785 0.0
C458 C 0.01903 0.7583 0.40317 0.0
C459 C 0.02964 0.74395 0.45722 0.0
C460 C 0.06642 0.75574 0.46894 0.0
C461 C 0.09341 0.78276 0.42771 0.0
H462 H 0.03878 0.79874 0.32269 0.0
C463 C 0.08295 0.79873 0.37611 0.0
C464 C 0.04607 0.78648 0.36369 0.0
H465 H 0.10313 0.81966 0.34355 0.0
H466 H 0.8433 0.68541 0.37546 0.0
H467 H 0.90725 0.72928 0.39701 0.0
H468 H 0.93718 0.69555 0.21411 0.0
H469 H 0.87318 0.65142 0.19235 0.0
H470 H 0.98554 0.74745 0.28184 0.0
H471 H 0.96072 0.72924 0.42945 0.0
H472 H 0.00933 0.72244 0.48872 0.0
H473 H 0.07367 0.74308 0.50933 0.0
C474 C 0.33495 0.03768 0.83714 0.0
C475 C 0.33036 0.06828 0.83528 0.0
C476 C 0.31855 0.01052 0.78794 0.0
C477 C 0.29658 0.0131 0.73704 0.0
C478 C 0.29081 0.0429 0.73681 0.0
C479 C 0.30809 0.07062 0.78477 0.0
C480 C 0.27896 0.98455 0.68467 0.0
C481 C 0.29722 0.97085 0.65214 0.0
C482 C 0.27986 0.94159 0.60081 0.0
C483 C 0.30033 0.94127 0.54548 0.0
C484 C 0.28524 0.91262 0.49887 0.0
C485 C 0.24976 0.88319 0.50806 0.0
H486 H 0.22772 0.91187 0.65162 0.0
C487 C 0.22918 0.88372 0.56316 0.0
C488 C 0.24396 0.91275 0.60877 0.0
H489 H 0.20175 0.86142 0.57155 0.0
H490 H 0.35209 0.03525 0.87535 0.0
H491 H 0.32286 0.98741 0.7899 0.0
H492 H 0.2737 0.04522 0.69836 0.0
H493 H 0.30408 0.09391 0.78227 0.0
H494 H 0.25106 0.9761 0.67017 0.0
H495 H 0.32619 0.98223 0.66196 0.0
H496 H 0.32814 0.96311 0.53858 0.0
H497 H 0.30183 0.91285 0.45718 0.0
C498 C 0.18313 0.70254 0.15752 0.0
C499 C 0.21203 0.73267 0.18948 0.0
C500 C 0.18782 0.67448 0.13249 0.0
C501 C 0.22133 0.67539 0.14094 0.0
C502 C 0.25102 0.70697 0.16805 0.0
C503 C 0.24647 0.73546 0.19196 0.0
C504 C 0.22576 0.64345 0.12517 0.0
C505 C 0.1973 0.60922 0.12091 0.0
C506 C 0.20073 0.57675 0.10742 0.0
C507 C 0.17273 0.54809 0.07093 0.0
C508 C 0.17331 0.51598 0.06011 0.0
C509 C 0.20152 0.51128 0.08696 0.0
H510 H 0.25091 0.59394 0.16361 0.0
C511 C 0.22957 0.53989 0.12414 0.0
C512 C 0.22935 0.57255 0.13386 0.0
H513 H 0.25164 0.5371 0.14554 0.0
H514 H 0.15642 0.7 0.15428 0.0
H515 H 0.16468 0.65182 0.10839 0.0
H516 H 0.27732 0.7088 0.17406 0.0
H517 H 0.2692 0.75837 0.21674 0.0
H518 H 0.25325 0.64803 0.11982 0.0
H519 H 0.16972 0.60411 0.12655 0.0
H520 H 0.15022 0.55053 0.05063 0.0
H521 H 0.15113 0.49455 0.0315 0.0
C522 C 0.57603 0.21908 0.88502 0.0
C523 C 0.54889 0.18862 0.91965 0.0
C524 C 0.61142 0.22482 0.8809 0.0
C525 C 0.62027 0.19999 0.9108 0.0
C526 C 0.5929 0.16905 0.94374 0.0
C527 C 0.55764 0.16364 0.94896 0.0
C528 C 0.65709 0.20447 0.90365 0.0
C529 C 0.68759 0.23744 0.90308 0.0
C530 C 0.72365 0.24357 0.8805 0.0
C531 C 0.74849 0.27787 0.85354 0.0
C532 C 0.77893 0.28283 0.81776 0.0
C533 C 0.78542 0.25376 0.80965 0.0
H534 H 0.71469 0.18909 0.9005 0.0
C535 C 0.76294 0.22059 0.84249 0.0
C536 C 0.73232 0.21552 0.87816 0.0
H537 H 0.76729 0.1977 0.83582 0.0
H538 H 0.5701 0.23882 0.86202 0.0
H539 H 0.63161 0.24833 0.85313 0.0
H540 H 0.59891 0.14923 0.96611 0.0
H541 H 0.53721 0.13982 0.97576 0.0
H542 H 0.65844 0.17989 0.89574 0.0
H543 H 0.68525 0.26145 0.91231 0.0
H544 H 0.7428 0.30009 0.8552 0.0
H545 H 0.79566 0.30844 0.79165 0.0
C546 C 0.442 0.68646 0.79214 0.0
C547 C 0.47017 0.68862 0.75155 0.0
C548 C 0.40889 0.65358 0.79787 0.0
C549 C 0.40369 0.62224 0.76378 0.0
C550 C 0.43192 0.62444 0.72392 0.0
C551 C 0.46456 0.65722 0.71725 0.0
C552 C 0.37064 0.58608 0.77274 0.0
C553 C 0.33694 0.58094 0.78269 0.0
C554 C 0.3048 0.54436 0.79686 0.0
C555 C 0.27494 0.54213 0.83172 0.0
C556 C 0.24721 0.50858 0.85605 0.0
C557 C 0.24912 0.47682 0.84606 0.0
H558 H 0.32548 0.51174 0.75051 0.0
C559 C 0.27704 0.47848 0.80594 0.0
C560 C 0.30428 0.51177 0.78055 0.0
H561 H 0.27888 0.45423 0.79724 0.0
H562 H 0.44547 0.71008 0.81935 0.0
H563 H 0.38794 0.6525 0.83047 0.0
H564 H 0.42875 0.6006 0.6978 0.0
H565 H 0.48564 0.65771 0.68581 0.0
H566 H 0.37491 0.56294 0.77111 0.0
H567 H 0.33316 0.60445 0.78457 0.0
H568 H 0.2742 0.56663 0.84397 0.0
H569 H 0.2261 0.50803 0.88754 0.0
C570 C 0.8047 0.52951 0.42769 0.0
C571 C 0.7726 0.53137 0.42849 0.0
C572 C 0.80851 0.50515 0.46976 0.0
C573 C 0.78006 0.48186 0.51328 0.0
C574 C 0.74873 0.48519 0.51674 0.0
C575 C 0.74516 0.51012 0.47511 0.0
C576 C 0.78035 0.45066 0.54715 0.0
C577 C 0.81135 0.45074 0.56276 0.0
C578 C 0.81228 0.4172 0.58034 0.0
C579 C 0.84071 0.41986 0.62119 0.0
C580 C 0.84404 0.38921 0.6339 0.0
C581 C 0.81947 0.35548 0.6046 0.0
H582 H 0.76592 0.38062 0.51794 0.0
C583 C 0.79115 0.35283 0.56326 0.0
C584 C 0.78748 0.38336 0.55144 0.0
H585 H 0.77177 0.32716 0.54014 0.0
H586 H 0.82611 0.54556 0.39177 0.0
H587 H 0.83269 0.5029 0.46419 0.0
H588 H 0.72632 0.46734 0.54938 0.0
H589 H 0.71995 0.5108 0.4758 0.0
H590 H 0.75424 0.4262 0.55578 0.0
H591 H 0.83726 0.47605 0.56069 0.0
H592 H 0.86048 0.44575 0.64308 0.0
H593 H 0.86623 0.39209 0.66583 0.0
C594 C 0.31361 0.77661 0.37375 0.0
C595 C 0.28932 0.77157 0.42646 0.0
C596 C 0.34167 0.76892 0.38353 0.0
C597 C 0.34663 0.7566 0.44681 0.0
C598 C 0.32144 0.75 0.49863 0.0
C599 C 0.29299 0.75737 0.48861 0.0
C600 C 0.37854 0.75189 0.46124 0.0
C601 C 0.41048 0.77084 0.42825 0.0
C602 C 0.44451 0.77265 0.45243 0.0
C603 C 0.4771 0.80611 0.44809 0.0
C604 C 0.50856 0.81089 0.48033 0.0
C605 C 0.50825 0.78195 0.51569 0.0
H606 H 0.42026 0.71649 0.48628 0.0
C607 C 0.47665 0.74746 0.51471 0.0
C608 C 0.44482 0.74287 0.48366 0.0
H609 H 0.47572 0.72484 0.54231 0.0
H610 H 0.31105 0.78663 0.32458 0.0
H611 H 0.35942 0.77288 0.3413 0.0
H612 H 0.32437 0.74012 0.54768 0.0
H613 H 0.2745 0.75279 0.52996 0.0
H614 H 0.37702 0.73569 0.5053 0.0
H615 H 0.41332 0.78991 0.38857 0.0
H616 H 0.47763 0.82934 0.42369 0.0
H617 H 0.53262 0.83775 0.48074 0.0
C618 C 0.51693 0.22939 0.12516 0.0
C619 C 0.48121 0.22273 0.11769 0.0
C620 C 0.54228 0.25892 0.1634 0.0
C621 C 0.53239 0.28273 0.19344 0.0
C622 C 0.49566 0.27373 0.19164 0.0
C623 C 0.4702 0.24398 0.15352 0.0
C624 C 0.56023 0.31879 0.22036 0.0
C625 C 0.59351 0.338 0.19195 0.0
C626 C 0.62058 0.37653 0.20832 0.0
C627 C 0.64918 0.39626 0.16256 0.0
C628 C 0.67498 0.43273 0.17455 0.0
C629 C 0.67285 0.45031 0.23289 0.0
H630 H 0.59778 0.37975 0.30476 0.0
C631 C 0.64449 0.43054 0.27917 0.0
C632 C 0.61871 0.39402 0.26724 0.0
H633 H 0.64224 0.44319 0.325 0.0
H634 H 0.52594 0.2134 0.09728 0.0
H635 H 0.57003 0.26421 0.16605 0.0
H636 H 0.48726 0.29138 0.21507 0.0
H637 H 0.44287 0.23958 0.14724 0.0
H638 H 0.55142 0.33129 0.25787 0.0
H639 H 0.6004 0.32599 0.15022 0.0
H640 H 0.65145 0.38351 0.11687 0.0
H641 H 0.69656 0.4471 0.13804 0.0
loop_
_geom_bond_atom_site_label_1
_geom_bond_atom_site_label_2
_geom_bond_distance
_geom_bond_site_symmetry_2
_ccdc_geom_bond_type
Co0 O2 2.143 . S
Co0 O8 2.074 1_556 S
Co0 O11 2.093 . S
Co0 O24 2.097 1_556 S
Co0 N41 2.151 . S
Co0 N49 2.214 . S
Co1 O2 2.160 1_554 S
Co1 O7 2.058 . S
Co1 O17 2.057 . S
Co1 O32 2.037 . S
Co1 N36 2.145 . S
Co1 N57 2.257 . S
O2 Co0 2.143 . S
O2 Co1 2.160 1_556 S
C3 O4 1.278 . S
C3 O11 1.224 . S
O4 C3 1.278 . S
C5 O6 1.245 1_554 S
C5 O17 1.232 . S
O6 C5 1.245 1_556 S
O7 Co1 2.058 . S
O7 C33 1.269 . S
O8 Co0 2.074 1_554 S
O8 C33 1.257 . S
H9 C34 0.930 . S
H10 C40 0.930 . S
O11 Co0 2.093 . S
O11 C3 1.224 . S
H12 C44 0.929 . S
H13 C46 0.930 . S
H14 C47 0.930 . S
H15 C45 0.929 . S
H16 C48 0.928 . S
O17 Co1 2.057 . S
O17 C5 1.232 . S
H18 C37 0.929 . S
H19 C38 0.929 . S
H20 C50 0.931 . S
H21 C42 0.929 . S
H22 C51 0.930 . S
H23 C43 0.931 . S
O24 Co0 2.097 1_554 S
O24 C52 1.214 . S
H25 C53 0.929 . S
H26 C54 0.929 . S
H27 C55 0.930 . S
H28 C56 0.929 . S
H29 C58 0.930 . S
H30 C35 0.930 . S
H31 C39 0.930 . S
O32 Co1 2.037 . S
O32 C52 1.234 . S
C33 O7 1.269 . S
C33 O8 1.257 . S
C34 H9 0.930 . S
C34 C37 1.388 . S
C34 C39 1.418 . S
C35 H30 0.930 . S
C35 C38 1.404 . S
C35 C39 1.353 . S
N36 Co1 2.145 . S
N36 C37 1.397 . S
N36 C38 1.334 . S
C37 H18 0.929 . S
C37 C34 1.388 . S
C37 N36 1.397 . S
C38 H19 0.929 . S
C38 C35 1.404 . S
C38 N36 1.334 . S
C39 H31 0.930 . S
C39 C34 1.418 . S
C39 C35 1.353 . S
C40 H10 0.930 . S
C40 N41 1.330 . S
C40 C42 1.446 . S
N41 Co0 2.151 . S
N41 C40 1.330 . S
N41 C45 1.418 . S
C42 H21 0.929 . S
C42 C40 1.446 . S
C42 C43 1.332 . S
C43 H23 0.931 . S
C43 C42 1.332 . S
C43 C44 1.267 . S
C44 H12 0.929 . S
C44 C43 1.267 . S
C44 C45 1.251 . S
C45 H15 0.929 . S
C45 N41 1.418 . S
C45 C44 1.251 . S
C46 H13 0.930 . S
C46 C48 1.406 . S
C46 C51 1.261 . S
C47 H14 0.930 . S
C47 N49 1.325 . S
C47 C50 1.357 . S
C48 H16 0.928 . S
C48 C46 1.406 . S
C48 N49 1.261 . S
N49 Co0 2.214 . S
N49 C47 1.325 . S
N49 C48 1.261 . S
C50 H20 0.931 . S
C50 C47 1.357 . S
C50 C51 1.312 . S
C51 H22 0.930 . S
C51 C46 1.261 . S
C51 C50 1.312 . S
C52 O24 1.214 . S
C52 O32 1.234 . S
C53 H25 0.929 . S
C53 C56 1.391 . S
C53 C58 1.391 . S
C54 H26 0.929 . S
C54 C55 1.390 . S
C54 N57 1.391 . S
C55 H27 0.930 . S
C55 C54 1.390 . S
C55 C56 1.392 . S
C56 H28 0.929 . S
C56 C53 1.391 . S
C56 C55 1.392 . S
N57 Co1 2.257 . S
N57 C54 1.391 . S
N57 C58 1.388 . S
C58 H29 0.930 . S
C58 C53 1.391 . S
C58 N57 1.388 . S
Co59 O61 2.143 . S
Co59 O67 2.074 . S
Co59 O70 2.093 . S
Co59 O83 2.097 . S
Co59 N100 2.151 . S
Co59 N108 2.214 . S
Co60 O61 2.160 . S
Co60 O66 2.058 . S
Co60 O76 2.057 . S
Co60 O91 2.037 . S
Co60 N95 2.145 . S
Co60 N116 2.257 . S
O61 Co59 2.143 . S
O61 Co60 2.160 . S
C62 O63 1.278 . S
C62 O70 1.224 . S
O63 C62 1.278 . S
C64 O65 1.245 . S
C64 O76 1.232 . S
O65 C64 1.245 . S
O66 Co60 2.058 . S
O66 C92 1.269 . S
O67 Co59 2.074 . S
O67 C92 1.257 . S
H68 C93 0.930 . S
H69 C99 0.930 . S
O70 Co59 2.093 . S
O70 C62 1.224 . S
H71 C103 0.929 . S
H72 C105 0.930 . S
H73 C106 0.930 . S
H74 C104 0.929 . S
H75 C107 0.928 . S
O76 Co60 2.057 . S
O76 C64 1.232 . S
H77 C96 0.929 . S
H78 C97 0.929 . S
H79 C109 0.931 . S
H80 C101 0.929 . S
H81 C110 0.930 . S
H82 C102 0.931 . S
O83 Co59 2.097 . S
O83 C111 1.214 . S
H84 C112 0.929 . S
H85 C113 0.929 . S
H86 C114 0.930 . S
H87 C115 0.929 . S
H88 C117 0.930 . S
H89 C94 0.930 . S
H90 C98 0.930 . S
O91 Co60 2.037 . S
O91 C111 1.234 . S
C92 O66 1.269 . S
C92 O67 1.257 . S
C93 H68 0.930 . S
C93 C96 1.388 . S
C93 C98 1.418 . S
C94 H89 0.930 . S
C94 C97 1.404 . S
C94 C98 1.353 . S
N95 Co60 2.145 . S
N95 C96 1.397 . S
N95 C97 1.334 . S
C96 H77 0.929 . S
C96 C93 1.388 . S
C96 N95 1.397 . S
C97 H78 0.929 . S
C97 C94 1.404 . S
C97 N95 1.334 . S
C98 H90 0.930 . S
C98 C93 1.418 . S
C98 C94 1.353 . S
C99 H69 0.930 . S
C99 N100 1.330 . S
C99 C101 1.446 . S
N100 Co59 2.151 . S
N100 C99 1.330 . S
N100 C104 1.418 . S
C101 H80 0.929 . S
C101 C99 1.446 . S
C101 C102 1.332 . S
C102 H82 0.931 . S
C102 C101 1.332 . S
C102 C103 1.267 . S
C103 H71 0.929 . S
C103 C102 1.267 . S
C103 C104 1.251 . S
C104 H74 0.929 . S
C104 N100 1.418 . S
C104 C103 1.251 . S
C105 H72 0.930 . S
C105 C107 1.406 . S
C105 C110 1.261 . S
C106 H73 0.930 . S
C106 N108 1.325 . S
C106 C109 1.357 . S
C107 H75 0.928 . S
C107 C105 1.406 . S
C107 N108 1.261 . S
N108 Co59 2.214 . S
N108 C106 1.325 . S
N108 C107 1.261 . S
C109 H79 0.931 . S
C109 C106 1.357 . S
C109 C110 1.312 . S
C110 H81 0.930 . S
C110 C105 1.261 . S
C110 C109 1.312 . S
C111 O83 1.214 . S
C111 O91 1.234 . S
C112 H84 0.929 . S
C112 C115 1.391 . S
C112 C117 1.391 . S
C113 H85 0.929 . S
C113 C114 1.390 . S
C113 N116 1.391 . S
C114 H86 0.930 . S
C114 C113 1.390 . S
C114 C115 1.392 . S
C115 H87 0.929 . S
C115 C112 1.391 . S
C115 C114 1.392 . S
N116 Co60 2.257 . S
N116 C113 1.391 . S
N116 C117 1.388 . S
C117 H88 0.930 . S
C117 C112 1.391 . S
C117 N116 1.388 . S
Co118 O120 2.143 . S
Co118 O126 2.074 . S
Co118 O129 2.093 . S
Co118 O142 2.097 . S
Co118 N159 2.151 . S
Co118 N167 2.214 . S
Co119 O120 2.160 . S
Co119 O125 2.058 . S
Co119 O135 2.057 . S
Co119 O150 2.037 . S
Co119 N154 2.145 . S
Co119 N175 2.257 . S
O120 Co118 2.143 . S
O120 Co119 2.160 . S
C121 O122 1.278 . S
C121 O129 1.224 . S
O122 C121 1.278 . S
C123 O124 1.245 . S
C123 O135 1.232 . S
O124 C123 1.245 . S
O125 Co119 2.058 . S
O125 C151 1.269 . S
O126 Co118 2.074 . S
O126 C151 1.257 . S
H127 C152 0.930 . S
H128 C158 0.930 . S
O129 Co118 2.093 . S
O129 C121 1.224 . S
H130 C162 0.929 . S
H131 C164 0.930 . S
H132 C165 0.930 . S
H133 C163 0.929 . S
H134 C166 0.928 . S
O135 Co119 2.057 . S
O135 C123 1.232 . S
H136 C155 0.929 . S
H137 C156 0.929 . S
H138 C168 0.931 . S
H139 C160 0.929 . S
H140 C169 0.930 . S
H141 C161 0.931 . S
O142 Co118 2.097 . S
O142 C170 1.214 . S
H143 C171 0.929 . S
H144 C172 0.929 . S
H145 C173 0.930 . S
H146 C174 0.929 . S
H147 C176 0.930 . S
H148 C153 0.930 . S
H149 C157 0.930 1_554 S
O150 Co119 2.037 . S
O150 C170 1.234 . S
C151 O125 1.269 . S
C151 O126 1.257 . S
C152 H127 0.930 . S
C152 C155 1.388 . S
C152 C157 1.418 . S
C153 H148 0.930 . S
C153 C156 1.404 . S
C153 C157 1.353 . S
N154 Co119 2.145 . S
N154 C155 1.397 . S
N154 C156 1.334 . S
C155 H136 0.929 . S
C155 C152 1.388 . S
C155 N154 1.397 . S
C156 H137 0.929 . S
C156 C153 1.404 . S
C156 N154 1.334 . S
C157 H149 0.930 1_556 S
C157 C152 1.418 . S
C157 C153 1.353 . S
C158 H128 0.930 . S
C158 N159 1.330 . S
C158 C160 1.446 . S
N159 Co118 2.151 . S
N159 C158 1.330 . S
N159 C163 1.418 . S
C160 H139 0.929 . S
C160 C158 1.446 . S
C160 C161 1.332 . S
C161 H141 0.931 . S
C161 C160 1.332 . S
C161 C162 1.267 . S
C162 H130 0.929 . S
C162 C161 1.267 . S
C162 C163 1.251 . S
C163 H133 0.929 . S
C163 N159 1.418 . S
C163 C162 1.251 . S
C164 H131 0.930 . S
C164 C166 1.406 . S
C164 C169 1.261 . S
C165 H132 0.930 . S
C165 N167 1.325 . S
C165 C168 1.357 . S
C166 H134 0.928 . S
C166 C164 1.406 . S
C166 N167 1.261 . S
N167 Co118 2.214 . S
N167 C165 1.325 . S
N167 C166 1.261 . S
C168 H138 0.931 . S
C168 C165 1.357 . S
C168 C169 1.312 . S
C169 H140 0.930 . S
C169 C164 1.261 . S
C169 C168 1.312 . S
C170 O142 1.214 . S
C170 O150 1.234 . S
C171 H143 0.929 . S
C171 C174 1.391 . S
C171 C176 1.391 . S
C172 H144 0.929 . S
C172 C173 1.390 . S
C172 N175 1.391 . S
C173 H145 0.930 . S
C173 C172 1.390 . S
C173 C174 1.392 . S
C174 H146 0.929 . S
C174 C171 1.391 . S
C174 C173 1.392 . S
N175 Co119 2.257 . S
N175 C172 1.391 . S
N175 C176 1.388 . S
C176 H147 0.930 . S
C176 C171 1.391 . S
C176 N175 1.388 . S
Co177 O179 2.143 . S
Co177 O185 2.074 . S
Co177 O188 2.093 . S
Co177 O201 2.097 . S
Co177 N218 2.151 . S
Co177 N226 2.214 . S
Co178 O179 2.160 . S
Co178 O184 2.058 . S
Co178 O194 2.057 . S
Co178 O209 2.037 . S
Co178 N213 2.145 . S
Co178 N234 2.257 . S
O179 Co177 2.143 . S
O179 Co178 2.160 . S
C180 O181 1.278 . S
C180 O188 1.224 . S
O181 C180 1.278 . S
C182 O183 1.245 . S
C182 O194 1.232 . S
O183 C182 1.245 . S
O184 Co178 2.058 . S
O184 C210 1.269 . S
O185 Co177 2.074 . S
O185 C210 1.257 . S
H186 C211 0.930 . S
H187 C217 0.930 . S
O188 Co177 2.093 . S
O188 C180 1.224 . S
H189 C221 0.929 . S
H190 C223 0.930 . S
H191 C224 0.930 . S
H192 C222 0.929 . S
H193 C225 0.928 . S
O194 Co178 2.057 . S
O194 C182 1.232 . S
H195 C214 0.929 . S
H196 C215 0.929 . S
H197 C227 0.931 . S
H198 C219 0.929 . S
H199 C228 0.930 . S
H200 C220 0.931 . S
O201 Co177 2.097 . S
O201 C229 1.214 . S
H202 C230 0.929 . S
H203 C231 0.929 . S
H204 C232 0.930 . S
H205 C233 0.929 . S
H206 C235 0.930 . S
H207 C212 0.930 . S
H208 C216 0.930 . S
O209 Co178 2.037 . S
O209 C229 1.234 . S
C210 O184 1.269 . S
C210 O185 1.257 . S
C211 H186 0.930 . S
C211 C214 1.388 . S
C211 C216 1.418 . S
C212 H207 0.930 . S
C212 C215 1.404 . S
C212 C216 1.353 . S
N213 Co178 2.145 . S
N213 C214 1.397 . S
N213 C215 1.334 . S
C214 H195 0.929 . S
C214 C211 1.388 . S
C214 N213 1.397 . S
C215 H196 0.929 . S
C215 C212 1.404 . S
C215 N213 1.334 . S
C216 H208 0.930 . S
C216 C211 1.418 . S
C216 C212 1.353 . S
C217 H187 0.930 . S
C217 N218 1.330 . S
C217 C219 1.446 . S
N218 Co177 2.151 . S
N218 C217 1.330 . S
N218 C222 1.418 . S
C219 H198 0.929 . S
C219 C217 1.446 . S
C219 C220 1.332 . S
C220 H200 0.931 . S
C220 C219 1.332 . S
C220 C221 1.267 . S
C221 H189 0.929 . S
C221 C220 1.267 . S
C221 C222 1.251 . S
C222 H192 0.929 . S
C222 N218 1.418 . S
C222 C221 1.251 . S
C223 H190 0.930 . S
C223 C225 1.406 . S
C223 C228 1.261 . S
C224 H191 0.930 . S
C224 N226 1.325 . S
C224 C227 1.357 . S
C225 H193 0.928 . S
C225 C223 1.406 . S
C225 N226 1.261 . S
N226 Co177 2.214 . S
N226 C224 1.325 . S
N226 C225 1.261 . S
C227 H197 0.931 . S
C227 C224 1.357 . S
C227 C228 1.312 . S
C228 H199 0.930 . S
C228 C223 1.261 . S
C228 C227 1.312 . S
C229 O201 1.214 . S
C229 O209 1.234 . S
C230 H202 0.929 . S
C230 C233 1.391 . S
C230 C235 1.391 . S
C231 H203 0.929 . S
C231 C232 1.390 . S
C231 N234 1.391 . S
C232 H204 0.930 . S
C232 C231 1.390 . S
C232 C233 1.392 . S
C233 H205 0.929 . S
C233 C230 1.391 . S
C233 C232 1.392 . S
N234 Co178 2.257 . S
N234 C231 1.391 . S
N234 C235 1.388 . S
C235 H206 0.930 . S
C235 C230 1.391 . S
C235 N234 1.388 . S
Co236 O238 2.143 . S
Co236 O244 2.074 . S
Co236 O247 2.093 . S
Co236 O260 2.097 . S
Co236 N277 2.151 . S
Co236 N285 2.214 . S
Co237 O238 2.160 . S
Co237 O243 2.058 . S
Co237 O253 2.057 . S
Co237 O268 2.037 . S
Co237 N272 2.145 . S
Co237 N293 2.257 . S
O238 Co236 2.143 . S
O238 Co237 2.160 . S
C239 O240 1.278 . S
C239 O247 1.224 . S
O240 C239 1.278 . S
C241 O242 1.245 . S
C241 O253 1.232 . S
O242 C241 1.245 . S
O243 Co237 2.058 . S
O243 C269 1.269 . S
O244 Co236 2.074 . S
O244 C269 1.257 . S
H245 C270 0.930 . S
H246 C276 0.930 . S
O247 Co236 2.093 . S
O247 C239 1.224 . S
H248 C280 0.929 . S
H249 C282 0.930 . S
H250 C283 0.930 . S
H251 C281 0.929 . S
H252 C284 0.928 . S
O253 Co237 2.057 . S
O253 C241 1.232 . S
H254 C273 0.929 . S
H255 C274 0.929 . S
H256 C286 0.931 . S
H257 C278 0.929 . S
H258 C287 0.930 . S
H259 C279 0.931 . S
O260 Co236 2.097 . S
O260 C288 1.214 . S
H261 C289 0.929 . S
H262 C290 0.929 . S
H263 C291 0.930 . S
H264 C292 0.929 . S
H265 C294 0.930 . S
H266 C271 0.930 . S
H267 C275 0.930 . S
O268 Co237 2.037 . S
O268 C288 1.234 . S
C269 O243 1.269 . S
C269 O244 1.257 . S
C270 H245 0.930 . S
C270 C273 1.388 . S
C270 C275 1.418 . S
C271 H266 0.930 . S
C271 C274 1.404 . S
C271 C275 1.353 . S
N272 Co237 2.145 . S
N272 C273 1.397 . S
N272 C274 1.334 . S
C273 H254 0.929 . S
C273 C270 1.388 . S
C273 N272 1.397 . S
C274 H255 0.929 . S
C274 C271 1.404 . S
C274 N272 1.334 . S
C275 H267 0.930 . S
C275 C270 1.418 . S
C275 C271 1.353 . S
C276 H246 0.930 . S
C276 N277 1.330 . S
C276 C278 1.446 . S
N277 Co236 2.151 . S
N277 C276 1.330 . S
N277 C281 1.418 . S
C278 H257 0.929 . S
C278 C276 1.446 . S
C278 C279 1.332 . S
C279 H259 0.931 . S
C279 C278 1.332 . S
C279 C280 1.267 . S
C280 H248 0.929 . S
C280 C279 1.267 . S
C280 C281 1.251 . S
C281 H251 0.929 . S
C281 N277 1.418 . S
C281 C280 1.251 . S
C282 H249 0.930 . S
C282 C284 1.406 . S
C282 C287 1.261 . S
C283 H250 0.930 . S
C283 N285 1.325 . S
C283 C286 1.357 . S
C284 H252 0.928 . S
C284 C282 1.406 . S
C284 N285 1.261 . S
N285 Co236 2.214 . S
N285 C283 1.325 . S
N285 C284 1.261 . S
C286 H256 0.931 . S
C286 C283 1.357 . S
C286 C287 1.312 . S
C287 H258 0.930 . S
C287 C282 1.261 . S
C287 C286 1.312 . S
C288 O260 1.214 . S
C288 O268 1.234 . S
C289 H261 0.929 . S
C289 C292 1.391 . S
C289 C294 1.391 . S
C290 H262 0.929 . S
C290 C291 1.390 . S
C290 N293 1.391 . S
C291 H263 0.930 . S
C291 C290 1.390 . S
C291 C292 1.392 . S
C292 H264 0.929 . S
C292 C289 1.391 . S
C292 C291 1.392 . S
N293 Co237 2.257 . S
N293 C290 1.391 . S
N293 C294 1.388 . S
C294 H265 0.930 . S
C294 C289 1.391 . S
C294 N293 1.388 . S
Co295 O297 2.143 . S
Co295 O303 2.074 . S
Co295 O306 2.093 . S
Co295 O319 2.097 1_556 S
Co295 N336 2.151 . S
Co295 N344 2.214 . S
Co296 O297 2.160 1_554 S
Co296 O302 2.058 . S
Co296 O312 2.057 . S
Co296 O327 2.037 . S
Co296 N331 2.145 . S
Co296 N352 2.257 . S
O297 Co295 2.143 . S
O297 Co296 2.160 1_556 S
C298 O299 1.278 . S
C298 O306 1.224 . S
O299 C298 1.278 . S
C300 O301 1.245 . S
C300 O312 1.232 1_556 S
O301 C300 1.245 . S
O302 Co296 2.058 . S
O302 C328 1.265 1_554 S
O303 Co295 2.074 . S
O303 C328 1.260 . S
H304 C329 0.930 . S
H305 C335 0.930 . S
O306 Co295 2.093 . S
O306 C298 1.224 . S
H307 C339 0.929 . S
H308 C341 0.930 . S
H309 C342 0.930 . S
H310 C340 0.929 . S
H311 C343 0.928 . S
O312 Co296 2.057 . S
O312 C300 1.232 1_554 S
H313 C332 0.929 . S
H314 C333 0.929 . S
H315 C345 0.931 . S
H316 C337 0.929 . S
H317 C346 0.930 . S
H318 C338 0.931 . S
O319 Co295 2.097 1_554 S
O319 C347 1.214 . S
H320 C348 0.929 . S
H321 C349 0.929 . S
H322 C350 0.930 . S
H323 C351 0.929 . S
H324 C353 0.930 . S
H325 C330 0.930 . S
H326 C334 0.930 . S
O327 Co296 2.037 . S
O327 C347 1.234 . S
C328 O302 1.265 1_556 S
C328 O303 1.260 . S
C329 H304 0.930 . S
C329 C332 1.388 . S
C329 C334 1.418 . S
C330 H325 0.930 . S
C330 C333 1.404 . S
C330 C334 1.353 . S
N331 Co296 2.145 . S
N331 C332 1.397 . S
N331 C333 1.334 . S
C332 H313 0.929 . S
C332 C329 1.388 . S
C332 N331 1.397 . S
C333 H314 0.929 . S
C333 C330 1.404 . S
C333 N331 1.334 . S
C334 H326 0.930 . S
C334 C329 1.418 . S
C334 C330 1.353 . S
C335 H305 0.930 . S
C335 N336 1.330 . S
C335 C337 1.446 . S
N336 Co295 2.151 . S
N336 C335 1.330 . S
N336 C340 1.418 . S
C337 H316 0.929 . S
C337 C335 1.446 . S
C337 C338 1.332 . S
C338 H318 0.931 . S
C338 C337 1.332 . S
C338 C339 1.267 . S
C339 H307 0.929 . S
C339 C338 1.267 . S
C339 C340 1.251 . S
C340 H310 0.929 . S
C340 N336 1.418 . S
C340 C339 1.251 . S
C341 H308 0.930 . S
C341 C343 1.406 . S
C341 C346 1.261 . S
C342 H309 0.930 . S
C342 N344 1.325 1_554 S
C342 C345 1.357 . S
C343 H311 0.928 . S
C343 C341 1.406 . S
C343 N344 1.261 . S
N344 Co295 2.214 . S
N344 C342 1.325 1_556 S
N344 C343 1.261 . S
C345 H315 0.931 . S
C345 C342 1.357 . S
C345 C346 1.312 1_554 S
C346 H317 0.930 . S
C346 C341 1.261 . S
C346 C345 1.312 1_556 S
C347 O319 1.214 . S
C347 O327 1.234 . S
C348 H320 0.929 . S
C348 C351 1.391 . S
C348 C353 1.391 . S
C349 H321 0.929 . S
C349 C350 1.390 . S
C349 N352 1.391 . S
C350 H322 0.930 . S
C350 C349 1.390 . S
C350 C351 1.392 . S
C351 H323 0.929 . S
C351 C348 1.391 . S
C351 C350 1.392 . S
N352 Co296 2.257 . S
N352 C349 1.391 . S
N352 C353 1.388 . S
C353 H324 0.930 . S
C353 C348 1.391 . S
C353 N352 1.388 . S
C354 C355 1.386 . S
C354 C356 1.383 . S
C354 H370 0.951 . S
C355 C354 1.386 . S
C355 C359 1.383 1_554 S
C356 C354 1.383 . S
C356 C357 1.402 . S
C356 H371 0.951 . S
C357 C356 1.402 . S
C357 C358 1.375 1_554 S
C357 C360 1.481 . S
C358 C357 1.375 1_556 S
C358 C359 1.367 . S
C358 H372 0.951 . S
C359 C355 1.383 1_556 S
C359 C358 1.367 . S
C359 H373 0.950 . S
C360 C357 1.481 . S
C360 C361 1.297 . S
C360 H374 0.950 1_554 S
C361 C360 1.297 . S
C361 C362 1.479 . S
C361 H375 0.950 . S
C362 C361 1.479 . S
C362 C363 1.375 . S
C362 C368 1.404 1_554 S
C363 C362 1.375 . S
C363 C364 1.369 . S
C363 H376 0.950 . S
C364 C363 1.369 . S
C364 C365 1.392 . S
C364 H377 0.951 . S
C365 C364 1.392 . S
C365 C367 1.384 1_554 S
H366 C368 0.949 . S
C367 C365 1.384 1_556 S
C367 C368 1.385 . S
C367 H369 0.950 . S
C368 C362 1.404 1_556 S
C368 H366 0.949 . S
C368 C367 1.385 . S
H369 C367 0.950 . S
H370 C354 0.951 . S
H371 C356 0.951 . S
H372 C358 0.951 . S
H373 C359 0.950 . S
H374 C360 0.950 1_556 S
H375 C361 0.950 . S
H376 C363 0.950 . S
H377 C364 0.951 . S
C378 C379 1.386 1_455 S
C378 C380 1.383 . S
C378 H394 0.951 . S
C379 C378 1.386 1_655 S
C379 C383 1.383 . S
C380 C378 1.383 . S
C380 C381 1.402 . S
C380 H395 0.951 . S
C381 C380 1.402 . S
C381 C382 1.375 1_455 S
C381 C384 1.481 . S
C382 C381 1.375 1_655 S
C382 C383 1.367 . S
C382 H396 0.951 . S
C383 C379 1.383 . S
C383 C382 1.367 . S
C383 H397 0.950 . S
C384 C381 1.481 . S
C384 C385 1.297 . S
C384 H398 0.950 . S
C385 C384 1.297 . S
C385 C386 1.479 . S
C385 H399 0.950 . S
C386 C385 1.479 . S
C386 C387 1.375 . S
C386 C392 1.404 . S
C387 C386 1.375 . S
C387 C388 1.369 . S
C387 H400 0.950 . S
C388 C387 1.369 . S
C388 C389 1.392 . S
C388 H401 0.951 . S
C389 C388 1.392 . S
C389 C391 1.384 . S
H390 C392 0.949 . S
C391 C389 1.384 . S
C391 C392 1.385 . S
C391 H393 0.950 . S
C392 C386 1.404 . S
C392 H390 0.949 . S
C392 C391 1.385 . S
H393 C391 0.950 . S
H394 C378 0.951 . S
H395 C380 0.951 . S
H396 C382 0.951 . S
H397 C383 0.950 . S
H398 C384 0.950 . S
H399 C385 0.950 . S
H400 C387 0.950 . S
H401 C388 0.951 . S
C402 C403 1.386 . S
C402 C404 1.383 . S
C402 H418 0.951 . S
C403 C402 1.386 . S
C403 C407 1.383 . S
C404 C402 1.383 . S
C404 C405 1.402 . S
C404 H419 0.951 . S
C405 C404 1.402 . S
C405 C406 1.375 . S
C405 C408 1.481 . S
C406 C405 1.375 . S
C406 C407 1.367 . S
C406 H420 0.951 . S
C407 C403 1.383 . S
C407 C406 1.367 . S
C407 H421 0.950 . S
C408 C405 1.481 . S
C408 C409 1.297 . S
C408 H422 0.950 . S
C409 C408 1.297 . S
C409 C410 1.479 1_545 S
C409 H423 0.950 . S
C410 C409 1.479 1_565 S
C410 C411 1.375 . S
C410 C416 1.404 . S
C411 C410 1.375 . S
C411 C412 1.369 . S
C411 H424 0.950 . S
C412 C411 1.369 . S
C412 C413 1.392 . S
C412 H425 0.951 . S
C413 C412 1.392 . S
C413 C415 1.384 . S
H414 C416 0.949 . S
C415 C413 1.384 . S
C415 C416 1.385 . S
C415 H417 0.950 . S
C416 C410 1.404 . S
C416 H414 0.949 . S
C416 C415 1.385 . S
H417 C415 0.950 . S
H418 C402 0.951 . S
H419 C404 0.951 . S
H420 C406 0.951 . S
H421 C407 0.950 . S
H422 C408 0.950 . S
H423 C409 0.950 . S
H424 C411 0.950 . S
H425 C412 0.951 . S
C426 C427 1.386 . S
C426 C428 1.383 . S
C426 H442 0.951 . S
C427 C426 1.386 . S
C427 C431 1.383 . S
C428 C426 1.383 . S
C428 C429 1.402 . S
C428 H443 0.951 . S
C429 C428 1.402 . S
C429 C430 1.375 . S
C429 C432 1.481 . S
C430 C429 1.375 . S
C430 C431 1.367 . S
C430 H444 0.951 . S
C431 C427 1.383 . S
C431 C430 1.367 . S
C431 H445 0.950 . S
C432 C429 1.481 . S
C432 C433 1.297 1_554 S
C432 H446 0.950 . S
C433 C432 1.297 1_556 S
C433 C434 1.479 . S
C433 H447 0.950 . S
C434 C433 1.479 . S
C434 C435 1.375 . S
C434 C440 1.404 . S
C435 C434 1.375 . S
C435 C436 1.369 . S
C435 H448 0.950 . S
C436 C435 1.369 . S
C436 C437 1.392 . S
C436 H449 0.951 . S
C437 C436 1.392 . S
C437 C439 1.384 . S
H438 C440 0.949 . S
C439 C437 1.384 . S
C439 C440 1.385 . S
C439 H441 0.950 . S
C440 C434 1.404 . S
C440 H438 0.949 . S
C440 C439 1.385 . S
H441 C439 0.950 . S
H442 C426 0.951 . S
H443 C428 0.951 . S
H444 C430 0.951 . S
H445 C431 0.950 . S
H446 C432 0.950 . S
H447 C433 0.950 . S
H448 C435 0.950 . S
H449 C436 0.951 . S
C450 C451 1.386 . S
C450 C452 1.383 . S
C450 H466 0.951 . S
C451 C450 1.386 . S
C451 C455 1.383 . S
C452 C450 1.383 . S
C452 C453 1.402 . S
C452 H467 0.951 . S
C453 C452 1.402 . S
C453 C454 1.375 . S
C453 C456 1.481 . S
C454 C453 1.375 . S
C454 C455 1.367 . S
C454 H468 0.951 . S
C455 C451 1.383 . S
C455 C454 1.367 . S
C455 H469 0.950 . S
C456 C453 1.481 . S
C456 C457 1.297 . S
C456 H470 0.950 . S
C457 C456 1.297 . S
C457 C458 1.479 1_655 S
C457 H471 0.950 . S
C458 C457 1.479 1_455 S
C458 C459 1.375 . S
C458 C464 1.404 . S
C459 C458 1.375 . S
C459 C460 1.369 . S
C459 H472 0.950 . S
C460 C459 1.369 . S
C460 C461 1.392 . S
C460 H473 0.951 . S
C461 C460 1.392 . S
C461 C463 1.384 . S
H462 C464 0.949 . S
C463 C461 1.384 . S
C463 C464 1.385 . S
C463 H465 0.950 . S
C464 C458 1.404 . S
C464 H462 0.949 . S
C464 C463 1.385 . S
H465 C463 0.950 . S
H466 C450 0.951 . S
H467 C452 0.951 . S
H468 C454 0.951 . S
H469 C455 0.950 . S
H470 C456 0.950 . S
H471 C457 0.950 . S
H472 C459 0.950 . S
H473 C460 0.951 . S
C474 C475 1.386 . S
C474 C476 1.383 1_545 S
C474 H490 0.931 1_545 S
C475 C474 1.386 . S
C475 C479 1.383 . S
C476 C474 1.383 1_565 S
C476 C477 1.402 . S
C476 H491 0.951 . S
C477 C476 1.402 . S
C477 C478 1.375 1_565 S
C477 C480 1.481 . S
C478 C477 1.375 1_545 S
C478 C479 1.367 . S
C478 H492 0.951 . S
C479 C475 1.383 . S
C479 C478 1.367 . S
C479 H493 0.950 . S
C480 C477 1.481 . S
C480 C481 1.297 . S
C480 H494 0.950 . S
C481 C480 1.297 . S
C481 C482 1.479 . S
C481 H495 0.950 . S
C482 C481 1.479 . S
C482 C483 1.375 . S
C482 C488 1.404 . S
C483 C482 1.375 . S
C483 C484 1.369 . S
C483 H496 0.950 . S
C484 C483 1.369 . S
C484 C485 1.392 . S
C484 H497 0.951 . S
C485 C484 1.392 . S
C485 C487 1.384 . S
H486 C488 0.949 . S
C487 C485 1.384 . S
C487 C488 1.385 . S
C487 H489 0.950 . S
C488 C482 1.404 . S
C488 H486 0.949 . S
C488 C487 1.385 . S
H489 C487 0.950 . S
H490 C474 0.931 1_565 S
H491 C476 0.951 . S
H492 C478 0.951 . S
H493 C479 0.950 . S
H494 C480 0.950 . S
H495 C481 0.950 . S
H496 C483 0.950 . S
H497 C484 0.951 . S
C498 C499 1.386 . S
C498 C500 1.383 . S
C498 H514 0.951 . S
C499 C498 1.386 . S
C499 C503 1.383 . S
C500 C498 1.383 . S
C500 C501 1.402 . S
C500 H515 0.951 . S
C501 C500 1.402 . S
C501 C502 1.375 . S
C501 C504 1.481 . S
C502 C501 1.375 . S
C502 C503 1.367 . S
C502 H516 0.951 . S
C503 C499 1.383 . S
C503 C502 1.367 . S
C503 H517 0.950 . S
C504 C501 1.481 . S
C504 C505 1.297 . S
C504 H518 0.950 . S
C505 C504 1.297 . S
C505 C506 1.479 . S
C505 H519 0.950 . S
C506 C505 1.479 . S
C506 C507 1.375 . S
C506 C512 1.404 . S
C507 C506 1.375 . S
C507 C508 1.369 . S
C507 H520 0.950 . S
C508 C507 1.369 . S
C508 C509 1.392 . S
C508 H521 0.951 . S
C509 C508 1.392 . S
C509 C511 1.384 . S
H510 C512 0.949 . S
C511 C509 1.384 . S
C511 C512 1.385 . S
C511 H513 0.950 . S
C512 C506 1.404 . S
C512 H510 0.949 . S
C512 C511 1.385 . S
H513 C511 0.950 . S
H514 C498 0.951 . S
H515 C500 0.951 . S
H516 C502 0.951 . S
H517 C503 0.950 . S
H518 C504 0.950 . S
H519 C505 0.950 . S
H520 C507 0.950 . S
H521 C508 0.951 . S
C522 C523 1.386 . S
C522 C524 1.383 . S
C522 H538 0.951 . S
C523 C522 1.386 . S
C523 C527 1.383 . S
C524 C522 1.383 . S
C524 C525 1.402 . S
C524 H539 0.951 . S
C525 C524 1.402 . S
C525 C526 1.375 . S
C525 C528 1.481 . S
C526 C525 1.375 . S
C526 C527 1.367 . S
C526 H540 0.951 1_556 S
C527 C523 1.383 . S
C527 C526 1.367 . S
C527 H541 0.950 1_556 S
C528 C525 1.481 . S
C528 C529 1.297 . S
C528 H542 0.950 . S
C529 C528 1.297 . S
C529 C530 1.479 . S
C529 H543 0.950 . S
C530 C529 1.479 . S
C530 C531 1.375 . S
C530 C536 1.404 . S
C531 C530 1.375 . S
C531 C532 1.369 . S
C531 H544 0.950 . S
C532 C531 1.369 . S
C532 C533 1.392 . S
C532 H545 0.951 . S
C533 C532 1.392 . S
C533 C535 1.384 . S
H534 C536 0.949 . S
C535 C533 1.384 . S
C535 C536 1.385 . S
C535 H537 0.950 . S
C536 C530 1.404 . S
C536 H534 0.949 . S
C536 C535 1.385 . S
H537 C535 0.950 . S
H538 C522 0.951 . S
H539 C524 0.951 . S
H540 C526 0.951 1_554 S
H541 C527 0.950 1_554 S
H542 C528 0.950 . S
H543 C529 0.950 . S
H544 C531 0.950 . S
H545 C532 0.951 . S
C546 C547 1.386 . S
C546 C548 1.383 . S
C546 H562 0.951 . S
C547 C546 1.386 . S
C547 C551 1.383 . S
C548 C546 1.383 . S
C548 C549 1.402 . S
C548 H563 0.951 . S
C549 C548 1.402 . S
C549 C550 1.375 . S
C549 C552 1.481 . S
C550 C549 1.375 . S
C550 C551 1.367 . S
C550 H564 0.951 . S
C551 C547 1.383 . S
C551 C550 1.367 . S
C551 H565 0.950 . S
C552 C549 1.481 . S
C552 C553 1.297 . S
C552 H566 0.950 . S
C553 C552 1.297 . S
C553 C554 1.479 . S
C553 H567 0.950 . S
C554 C553 1.479 . S
C554 C555 1.375 . S
C554 C560 1.404 . S
C555 C554 1.375 . S
C555 C556 1.369 . S
C555 H568 0.950 . S
C556 C555 1.369 . S
C556 C557 1.392 . S
C556 H569 0.951 . S
C557 C556 1.392 . S
C557 C559 1.384 . S
H558 C560 0.949 . S
C559 C557 1.384 . S
C559 C560 1.385 . S
C559 H561 0.950 . S
C560 C554 1.404 . S
C560 H558 0.949 . S
C560 C559 1.385 . S
H561 C559 0.950 . S
H562 C546 0.951 . S
H563 C548 0.951 . S
H564 C550 0.951 . S
H565 C551 0.950 . S
H566 C552 0.950 . S
H567 C553 0.950 . S
H568 C555 0.950 . S
H569 C556 0.951 . S
C570 C571 1.386 . S
C570 C572 1.383 . S
C570 H586 0.951 . S
C571 C570 1.386 . S
C571 C575 1.383 . S
C572 C570 1.383 . S
C572 C573 1.402 . S
C572 H587 0.951 . S
C573 C572 1.402 . S
C573 C574 1.375 . S
C573 C576 1.481 . S
C574 C573 1.375 . S
C574 C575 1.367 . S
C574 H588 0.951 . S
C575 C571 1.383 . S
C575 C574 1.367 . S
C575 H589 0.950 . S
C576 C573 1.481 . S
C576 C577 1.297 . S
C576 H590 0.950 . S
C577 C576 1.297 . S
C577 C578 1.479 . S
C577 H591 0.950 . S
C578 C577 1.479 . S
C578 C579 1.375 . S
C578 C584 1.404 . S
C579 C578 1.375 . S
C579 C580 1.369 . S
C579 H592 0.950 . S
C580 C579 1.369 . S
C580 C581 1.392 . S
C580 H593 0.951 . S
C581 C580 1.392 . S
C581 C583 1.384 . S
H582 C584 0.949 . S
C583 C581 1.384 . S
C583 C584 1.385 . S
C583 H585 0.950 . S
C584 C578 1.404 . S
C584 H582 0.949 . S
C584 C583 1.385 . S
H585 C583 0.950 . S
H586 C570 0.951 . S
H587 C572 0.951 . S
H588 C574 0.951 . S
H589 C575 0.950 . S
H590 C576 0.950 . S
H591 C577 0.950 . S
H592 C579 0.950 . S
H593 C580 0.951 . S
C594 C595 1.386 . S
C594 C596 1.383 . S
C594 H610 0.951 . S
C595 C594 1.386 . S
C595 C599 1.383 . S
C596 C594 1.383 . S
C596 C597 1.402 . S
C596 H611 0.951 . S
C597 C596 1.402 . S
C597 C598 1.375 . S
C597 C600 1.481 . S
C598 C597 1.375 . S
C598 C599 1.367 . S
C598 H612 0.951 . S
C599 C595 1.383 . S
C599 C598 1.367 . S
C599 H613 0.950 . S
C600 C597 1.481 . S
C600 C601 1.297 . S
C600 H614 0.950 . S
C601 C600 1.297 . S
C601 C602 1.479 . S
C601 H615 0.950 . S
C602 C601 1.479 . S
C602 C603 1.375 . S
C602 C608 1.404 . S
C603 C602 1.375 . S
C603 C604 1.369 . S
C603 H616 0.950 . S
C604 C603 1.369 . S
C604 C605 1.392 . S
C604 H617 0.951 . S
C605 C604 1.392 . S
C605 C607 1.384 . S
H606 C608 0.949 . S
C607 C605 1.384 . S
C607 C608 1.385 . S
C607 H609 0.950 . S
C608 C602 1.404 . S
C608 H606 0.949 . S
C608 C607 1.385 . S
H609 C607 0.950 . S
H610 C594 0.951 . S
H611 C596 0.951 . S
H612 C598 0.951 . S
H613 C599 0.950 . S
H614 C600 0.950 . S
H615 C601 0.950 . S
H616 C603 0.950 . S
H617 C604 0.951 . S
C618 C619 1.386 . S
C618 C620 1.383 . S
C618 H634 0.951 . S
C619 C618 1.386 . S
C619 C623 1.383 . S
C620 C618 1.383 . S
C620 C621 1.402 . S
C620 H635 0.951 . S
C621 C620 1.402 . S
C621 C622 1.375 . S
C621 C624 1.481 . S
C622 C621 1.375 . S
C622 C623 1.367 . S
C622 H636 0.951 . S
C623 C619 1.383 . S
C623 C622 1.367 . S
C623 H637 0.950 . S
C624 C621 1.481 . S
C624 C625 1.297 . S
C624 H638 0.950 . S
C625 C624 1.297 . S
C625 C626 1.479 . S
C625 H639 0.950 . S
C626 C625 1.479 . S
C626 C627 1.375 . S
C626 C632 1.404 . S
C627 C626 1.375 . S
C627 C628 1.369 . S
C627 H640 0.950 . S
C628 C627 1.369 . S
C628 C629 1.392 . S
C628 H641 0.951 . S
C629 C628 1.392 . S
C629 C631 1.384 . S
H630 C632 0.949 . S
C631 C629 1.384 . S
C631 C632 1.385 . S
C631 H633 0.950 . S
C632 C626 1.404 . S
C632 H630 0.949 . S
C632 C631 1.385 . S
H633 C631 0.950 . S
H634 C618 0.951 . S
H635 C620 0.951 . S
H636 C622 0.951 . S
H637 C623 0.950 . S
H638 C624 0.950 . S
H639 C625 0.950 . S
H640 C627 0.950 . S
H641 C628 0.951 . S
C355 C5 1.348 . S
C365 C328 1.326 1_554 S
C379 C64 2.161 . S
C389 C33 2.096 . S
C403 C92 1.398 . S
C413 C123 1.376 . S
C427 C182 2.155 . S
C437 C151 2.172 . S
C451 C210 1.396 . S
C461 C241 1.386 . S
C475 C300 2.176 . S
C485 C269 2.082 . S
C499 C239 1.404 . S
C509 C52 1.494 . S
C523 C298 1.508 . S
C533 C111 1.428 . S
C547 C170 1.546 . S
C557 C3 1.416 . S
C571 C229 1.459 . S
C581 C62 1.520 . S
C595 C288 1.576 . S
C605 C121 1.395 . S
C619 C347 1.533 . S
C629 C180 1.594 . S
