# Generated by pormake.
# Topology dia, (4)-cn, num edge types: 1
# Building blocks:
#     Node 0, Type 0, BuildingBlock: UXUYUI_clean_sbu_0, # of connection points: 4
#     Node 1, Type 0, BuildingBlock: UXUYUI_clean_sbu_0, # of connection points: 4
#     Node 2, Type 0, BuildingBlock: UXUYUI_clean_sbu_0, # of connection points: 4
#     Node 3, Type 0, BuildingBlock: UXUYUI_clean_sbu_0, # of connection points: 4
#     Node 4, Type 0, BuildingBlock: UXUYUI_clean_sbu_0, # of connection points: 4
#     Node 5, Type 0, BuildingBlock: UXUYUI_clean_sbu_0, # of connection points: 4
#     Node 6, Type 0, BuildingBlock: UXUYUI_clean_sbu_0, # of connection points: 4
#     Node 7, Type 0, BuildingBlock: UXUYUI_clean_sbu_0, # of connection points: 4
#     Edge 8, Type (0, 0), BuildingBlock: TEMPAE_clean_linker_10, # of connection points: 2
#     Edge 9, Type (0, 0), BuildingBlock: TEMPAE_clean_linker_10, # of connection points: 2
#     Edge 10, Type (0, 0), BuildingBlock: TEMPAE_clean_linker_10, # of connection points: 2
#     Edge 11, Type (0, 0), BuildingBlock: TEMPAE_clean_linker_10, # of connection points: 2
#     Edge 12, Type (0, 0), BuildingBlock: TEMPAE_clean_linker_10, # of connection points: 2
#     Edge 13, Type (0, 0), BuildingBlock: TEMPAE_clean_linker_10, # of connection points: 2
#     Edge 14, Type (0, 0), BuildingBlock: TEMPAE_clean_linker_10, # of connection points: 2
#     Edge 15, Type (0, 0), BuildingBlock: TEMPAE_clean_linker_10, # of connection points: 2
#     Edge 16, Type (0, 0), BuildingBlock: TEMPAE_clean_linker_10, # of connection points: 2
#     Edge 17, Type (0, 0), BuildingBlock: TEMPAE_clean_linker_10, # of connection points: 2
#     Edge 18, Type (0, 0), BuildingBlock: TEMPAE_clean_linker_10, # of connection points: 2
#     Edge 19, Type (0, 0), BuildingBlock: TEMPAE_clean_linker_10, # of connection points: 2
#     Edge 20, Type (0, 0), BuildingBlock: TEMPAE_clean_linker_10, # of connection points: 2
#     Edge 21, Type (0, 0), BuildingBlock: TEMPAE_clean_linker_10, # of connection points: 2
#     Edge 22, Type (0, 0), BuildingBlock: TEMPAE_clean_linker_10, # of connection points: 2
#     Edge 23, Type (0, 0), BuildingBlock: TEMPAE_clean_linker_10, # of connection points: 2
# Relax obj value: 0.000
# Max RMSD: 0.003
# Mean RMSD: 0.003
data_MOF--net-dia--node1-UXUYUI_clean_sbu_0--edge1-TEMPAE_clean_linker_10
_symmetry_space_group_name_H-M    P1
_symmetry_Int_Tables_number       1
_symmetry_cell_setting            triclinic
loop_
_symmetry_equiv_pos_as_xyz
'x, y, z'
_cell_length_a     52.084091
_cell_length_b     52.001112
_cell_length_c     51.996518
_cell_angle_alpha  89.995231
_cell_angle_beta   89.996551
_cell_angle_gamma 90.024632
loop_
_atom_site_label
_atom_site_type_symbol
_atom_site_fract_x
_atom_site_fract_y
_atom_site_fract_z
_atom_type_partial_charge
Li0 Li 0.11753 0.14833 0.6491 0.0
Li1 Li 0.15145 0.11336 0.65046 0.0
Li2 Li 0.15079 0.14813 0.61542 0.0
Li3 Li 0.11892 0.1146 0.61726 0.0
C4 C 0.16322 0.16755 0.67256 0.0
N5 N 0.17865 0.19962 0.71202 0.0
C6 C 0.1682 0.15749 0.69699 0.0
C7 C 0.16653 0.19385 0.66809 0.0
C8 C 0.17586 0.17404 0.71672 0.0
C9 C 0.17421 0.20976 0.68832 0.0
C10 C 0.09305 0.09483 0.65524 0.0
C11 C 0.0749 0.05216 0.65438 0.0
N12 N 0.05098 0.06254 0.65286 0.0
C13 C 0.0683 0.10508 0.65374 0.0
C14 C 0.09642 0.06816 0.65562 0.0
C15 C 0.04727 0.08843 0.65253 0.0
C16 C 0.07557 0.18175 0.65945 0.0
N17 N 0.09605 0.16962 0.67022 0.0
C18 C 0.08598 0.18764 0.71135 0.0
C19 C 0.1011 0.17182 0.69578 0.0
C20 C 0.06519 0.20106 0.70057 0.0
C21 C 0.05994 0.19776 0.67427 0.0
H22 H 0.07121 0.1789 0.63934 0.0
H23 H 0.11679 0.16121 0.70418 0.0
C24 C 0.19876 0.0947 0.66926 0.0
N25 N 0.17286 0.09297 0.67184 0.0
C26 C 0.21491 0.07988 0.6848 0.0
C27 C 0.17737 0.06167 0.70519 0.0
C28 C 0.16199 0.07707 0.68949 0.0
C29 C 0.20427 0.06293 0.70304 0.0
H30 H 0.20685 0.10771 0.65518 0.0
H31 H 0.14134 0.07634 0.69138 0.0
C32 C 0.10794 0.17444 0.59943 0.0
N33 N 0.09883 0.22072 0.57496 0.0
C34 C 0.09678 0.17483 0.57498 0.0
C35 C 0.11448 0.19759 0.6114 0.0
C36 C 0.09233 0.19842 0.56293 0.0
C37 C 0.1097 0.22078 0.59875 0.0
C38 C 0.16089 0.09554 0.59173 0.0
C39 C 0.15211 0.10355 0.56763 0.0
C40 C 0.17373 0.07208 0.59412 0.0
C41 C 0.15623 0.08781 0.54626 0.0
C42 C 0.17751 0.05691 0.57227 0.0
N43 N 0.16874 0.06502 0.549 0.0
C44 C 0.19461 0.17834 0.60463 0.0
C45 C 0.16557 0.1746 0.56978 0.0
C46 C 0.21079 0.19403 0.58999 0.0
N47 N 0.17241 0.16913 0.59442 0.0
C48 C 0.18106 0.19031 0.55453 0.0
C49 C 0.20406 0.2003 0.56456 0.0
H50 H 0.19979 0.17342 0.62416 0.0
H51 H 0.14803 0.16685 0.56192 0.0
C52 C 0.07612 0.10281 0.58606 0.0
N53 N 0.0977 0.0926 0.5966 0.0
C54 C 0.05998 0.08766 0.57089 0.0
C55 C 0.08829 0.05158 0.57809 0.0
C56 C 0.10385 0.06742 0.59316 0.0
C57 C 0.06605 0.06168 0.5666 0.0
H58 H 0.07129 0.12269 0.5897 0.0
H59 H 0.12075 0.05955 0.60226 0.0
O60 O 0.15591 0.15157 0.65298 0.0
O61 O 0.11388 0.11084 0.65566 0.0
O62 O 0.11292 0.15148 0.61128 0.0
O63 O 0.15677 0.11047 0.61295 0.0
H64 H 0.16587 0.13717 0.70078 0.0
H65 H 0.16342 0.20189 0.64918 0.0
H66 H 0.17957 0.16655 0.73577 0.0
H67 H 0.17676 0.23016 0.68516 0.0
H68 H 0.07723 0.03149 0.65446 0.0
H69 H 0.06538 0.12566 0.65321 0.0
H70 H 0.11546 0.05989 0.65633 0.0
H71 H 0.02801 0.09609 0.65123 0.0
H72 H 0.09071 0.18955 0.73154 0.0
H73 H 0.04372 0.2072 0.6653 0.0
H74 H 0.23548 0.08193 0.68271 0.0
H75 H 0.16819 0.04872 0.71865 0.0
H76 H 0.09193 0.15709 0.56525 0.0
H77 H 0.12302 0.19761 0.63032 0.0
H78 H 0.0838 0.19901 0.54397 0.0
H79 H 0.11464 0.23883 0.60783 0.0
H80 H 0.14177 0.12145 0.56558 0.0
H81 H 0.18059 0.06564 0.61269 0.0
H82 H 0.14938 0.09367 0.52751 0.0
H83 H 0.18737 0.03867 0.57382 0.0
H84 H 0.22853 0.2009 0.59842 0.0
H85 H 0.17489 0.19483 0.53516 0.0
H86 H 0.04275 0.09612 0.56287 0.0
H87 H 0.0938 0.0317 0.57523 0.0
Li88 Li 0.86689 0.39946 0.86262 0.0
Li89 Li 0.90116 0.39817 0.89716 0.0
Li90 Li 0.89987 0.36622 0.86322 0.0
Li91 Li 0.86909 0.36463 0.8971 0.0
C92 C 0.92405 0.40566 0.84266 0.0
N93 N 0.96431 0.40607 0.80813 0.0
C94 C 0.9493 0.40351 0.85147 0.0
C95 C 0.91924 0.40817 0.81635 0.0
C96 C 0.9694 0.40371 0.83368 0.0
C97 C 0.93987 0.40832 0.79918 0.0
C98 C 0.8604 0.42279 0.91718 0.0
C99 C 0.86378 0.44163 0.95945 0.0
N100 N 0.85613 0.46464 0.94966 0.0
C101 C 0.85239 0.44659 0.90758 0.0
C102 C 0.86595 0.42023 0.94336 0.0
C103 C 0.8504 0.46752 0.92431 0.0
C104 C 0.82015 0.41501 0.83979 0.0
N105 N 0.84544 0.42091 0.84233 0.0
C106 C 0.84053 0.45771 0.81524 0.0
C107 C 0.85578 0.44186 0.83064 0.0
C108 C 0.81437 0.45193 0.81187 0.0
C109 C 0.80419 0.43028 0.8245 0.0
H110 H 0.81247 0.39823 0.84939 0.0
H111 H 0.87589 0.44629 0.83333 0.0
C112 C 0.94103 0.40853 0.93285 0.0
N113 N 0.92289 0.41961 0.91765 0.0
C114 C 0.95694 0.42375 0.94823 0.0
C115 C 0.93549 0.46153 0.93177 0.0
C116 C 0.92027 0.4456 0.91641 0.0
C117 C 0.95407 0.4506 0.948 0.0
H118 H 0.9432 0.38787 0.93301 0.0
H119 H 0.9063 0.45397 0.90354 0.0
C120 C 0.85876 0.34424 0.84016 0.0
N121 N 0.85224 0.30906 0.80085 0.0
C122 C 0.86679 0.31878 0.84331 0.0
C123 C 0.84736 0.35178 0.81702 0.0
C124 C 0.86336 0.3013 0.8232 0.0
C125 C 0.84423 0.33371 0.79738 0.0
C126 C 0.90812 0.34204 0.91842 0.0
C127 C 0.91184 0.31637 0.91134 0.0
C128 C 0.905 0.34832 0.94437 0.0
C129 C 0.91222 0.29739 0.93035 0.0
C130 C 0.90544 0.32878 0.9628 0.0
N131 N 0.90901 0.30393 0.95547 0.0
C132 C 0.94303 0.3355 0.85114 0.0
C133 C 0.91665 0.34444 0.81514 0.0
C134 C 0.95938 0.32057 0.83597 0.0
N135 N 0.92181 0.34659 0.84071 0.0
C136 C 0.93234 0.32951 0.7993 0.0
C137 C 0.9539 0.31713 0.80975 0.0
H138 H 0.94725 0.33821 0.87131 0.0
H139 H 0.90036 0.35432 0.80696 0.0
C140 C 0.83295 0.35498 0.93681 0.0
N141 N 0.8478 0.34347 0.91864 0.0
C142 C 0.81732 0.34023 0.95294 0.0
C143 C 0.83236 0.30202 0.93129 0.0
C144 C 0.84757 0.31751 0.91552 0.0
C145 C 0.8169 0.31333 0.95033 0.0
H146 H 0.83307 0.37566 0.93868 0.0
H147 H 0.85934 0.30871 0.90094 0.0
O148 O 0.9041 0.40472 0.85971 0.0
O149 O 0.86273 0.40214 0.90104 0.0
O150 O 0.86187 0.36168 0.85962 0.0
O151 O 0.90732 0.3609 0.90006 0.0
H152 H 0.95329 0.40141 0.87179 0.0
H153 H 0.89976 0.40959 0.80923 0.0
H154 H 0.98905 0.40191 0.84018 0.0
H155 H 0.93645 0.41007 0.77873 0.0
H156 H 0.8682 0.43995 0.97971 0.0
H157 H 0.84791 0.44893 0.88742 0.0
H158 H 0.87205 0.40196 0.95116 0.0
H159 H 0.84435 0.48607 0.91711 0.0
H160 H 0.8491 0.47443 0.80627 0.0
H161 H 0.78423 0.42493 0.82226 0.0
H162 H 0.97109 0.41461 0.96046 0.0
H163 H 0.93301 0.48218 0.93072 0.0
H164 H 0.87618 0.31274 0.86079 0.0
H165 H 0.84117 0.37141 0.81415 0.0
H166 H 0.8697 0.28161 0.8253 0.0
H167 H 0.83549 0.33931 0.77936 0.0
H168 H 0.91401 0.31105 0.89136 0.0
H169 H 0.90213 0.36805 0.95021 0.0
H170 H 0.91492 0.27744 0.92512 0.0
H171 H 0.90293 0.33337 0.98293 0.0
H172 H 0.97587 0.31143 0.84477 0.0
H173 H 0.92778 0.32784 0.77905 0.0
H174 H 0.80541 0.34985 0.96703 0.0
H175 H 0.83294 0.28136 0.92876 0.0
Li176 Li 0.62146 0.1502 0.15193 0.0
Li177 Li 0.65378 0.11536 0.15107 0.0
Li178 Li 0.65354 0.1497 0.11648 0.0
Li179 Li 0.62113 0.11561 0.11806 0.0
C180 C 0.67076 0.17229 0.16795 0.0
N181 N 0.69355 0.21128 0.19597 0.0
C182 C 0.68168 0.16709 0.19195 0.0
C183 C 0.67169 0.19729 0.15809 0.0
C184 C 0.69304 0.18707 0.20585 0.0
C185 C 0.68323 0.21674 0.17257 0.0
C186 C 0.61242 0.09629 0.17608 0.0
C187 C 0.61418 0.05381 0.19461 0.0
N188 N 0.60627 0.06362 0.21753 0.0
C189 C 0.60417 0.10594 0.19977 0.0
C190 C 0.61732 0.07 0.1734 0.0
C191 C 0.60121 0.08911 0.22051 0.0
C192 C 0.57474 0.1718 0.16792 0.0
N193 N 0.60029 0.17146 0.17323 0.0
C194 C 0.59421 0.20092 0.20802 0.0
C195 C 0.61016 0.18546 0.19297 0.0
C196 C 0.56768 0.2017 0.20306 0.0
C197 C 0.55801 0.18676 0.18268 0.0
H198 H 0.56736 0.16031 0.15222 0.0
H199 H 0.63038 0.18472 0.1972 0.0
C200 C 0.69388 0.07994 0.1607 0.0
N201 N 0.67539 0.09438 0.17216 0.0
C202 C 0.70984 0.06416 0.17546 0.0
C203 C 0.6874 0.07835 0.21355 0.0
C204 C 0.67216 0.09412 0.1981 0.0
C205 C 0.70663 0.06304 0.20231 0.0
H206 H 0.69634 0.08078 0.14007 0.0
H207 H 0.65766 0.1061 0.20685 0.0
C208 C 0.60702 0.1754 0.10294 0.0
N209 N 0.58975 0.22031 0.08042 0.0
C210 C 0.59424 0.17461 0.07932 0.0
C211 C 0.61067 0.19899 0.11528 0.0
C212 C 0.58576 0.19754 0.06818 0.0
C213 C 0.60189 0.22149 0.10354 0.0
C214 C 0.66036 0.09428 0.09401 0.0
C215 C 0.6655 0.10219 0.06885 0.0
C216 C 0.65617 0.06825 0.09921 0.0
C217 C 0.666 0.08389 0.04918 0.0
C218 C 0.65678 0.05055 0.079 0.0
N219 N 0.66162 0.05868 0.05461 0.0
C220 C 0.69863 0.17648 0.10271 0.0
C221 C 0.66544 0.17882 0.07165 0.0
C222 C 0.71446 0.19202 0.08758 0.0
N223 N 0.67449 0.17053 0.09472 0.0
C224 C 0.68061 0.19439 0.05589 0.0
C225 C 0.70545 0.20132 0.06386 0.0
H226 H 0.70552 0.16929 0.12096 0.0
H227 H 0.64653 0.17314 0.06532 0.0
C228 C 0.58493 0.07604 0.10762 0.0
N229 N 0.59973 0.09467 0.09681 0.0
C230 C 0.56976 0.06014 0.09219 0.0
C231 C 0.58513 0.08304 0.05478 0.0
C232 C 0.5999 0.09858 0.07095 0.0
C233 C 0.56982 0.06346 0.06536 0.0
H234 H 0.58496 0.07346 0.12823 0.0
H235 H 0.61167 0.11368 0.06287 0.0
O236 O 0.65951 0.15291 0.15414 0.0
O237 O 0.61553 0.1125 0.1556 0.0
O238 O 0.61548 0.1531 0.11403 0.0
O239 O 0.65928 0.11196 0.11344 0.0
H240 H 0.6813 0.14787 0.19983 0.0
H241 H 0.66382 0.20165 0.13938 0.0
H242 H 0.70145 0.18333 0.2245 0.0
H243 H 0.68405 0.23617 0.16518 0.0
H244 H 0.61806 0.03345 0.19286 0.0
H245 H 0.60023 0.12622 0.20217 0.0
H246 H 0.6237 0.06221 0.15521 0.0
H247 H 0.59495 0.09632 0.23898 0.0
H248 H 0.6027 0.21231 0.22323 0.0
H249 H 0.53768 0.18633 0.17835 0.0
H250 H 0.72471 0.0532 0.1659 0.0
H251 H 0.68388 0.07798 0.23406 0.0
H252 H 0.59102 0.1565 0.06961 0.0
H253 H 0.61998 0.19993 0.1338 0.0
H254 H 0.57599 0.19723 0.04982 0.0
H255 H 0.60465 0.23988 0.11287 0.0
H256 H 0.66885 0.12226 0.06452 0.0
H257 H 0.65229 0.06182 0.1186 0.0
H258 H 0.6698 0.08975 0.02958 0.0
H259 H 0.65338 0.03037 0.0827 0.0
H260 H 0.73342 0.19698 0.09455 0.0
H261 H 0.67309 0.20064 0.03751 0.0
H262 H 0.55838 0.04517 0.10113 0.0
H263 H 0.58548 0.08651 0.03425 0.0
Li264 Li 0.90209 0.89807 0.40102 0.0
Li265 Li 0.86976 0.89747 0.3665 0.0
Li266 Li 0.86982 0.86295 0.40092 0.0
Li267 Li 0.90212 0.86402 0.36639 0.0
C268 C 0.85559 0.91541 0.42419 0.0
N269 N 0.83817 0.94512 0.46467 0.0
C270 C 0.84604 0.94012 0.41969 0.0
C271 C 0.8558 0.90564 0.44923 0.0
C272 C 0.83746 0.9549 0.44042 0.0
C273 C 0.84703 0.921 0.46945 0.0
C274 C 0.911 0.92111 0.34592 0.0
C275 C 0.90848 0.93724 0.3025 0.0
N276 N 0.91674 0.96062 0.31084 0.0
C277 C 0.91968 0.94522 0.35403 0.0
C278 C 0.90556 0.917 0.31992 0.0
C279 C 0.92239 0.96497 0.336 0.0
C280 C 0.9459 0.91006 0.43081 0.0
N281 N 0.92305 0.91945 0.42233 0.0
C282 C 0.9305 0.95928 0.44409 0.0
C283 C 0.91534 0.94369 0.42835 0.0
C284 C 0.95398 0.94994 0.45355 0.0
C285 C 0.96167 0.92499 0.4466 0.0
H286 H 0.95186 0.89091 0.42534 0.0
H287 H 0.8976 0.95111 0.42062 0.0
C288 C 0.8298 0.90745 0.33098 0.0
N289 N 0.84833 0.91872 0.34555 0.0
C290 C 0.81407 0.9224 0.31515 0.0
C291 C 0.8368 0.96027 0.32958 0.0
C292 C 0.85182 0.94465 0.3454 0.0
C293 C 0.81764 0.94915 0.31419 0.0
H294 H 0.82724 0.88683 0.33164 0.0
H295 H 0.86631 0.95322 0.35754 0.0
C296 C 0.91603 0.84669 0.42499 0.0
N297 N 0.93255 0.81926 0.4674 0.0
C298 C 0.9277 0.82269 0.42185 0.0
C299 C 0.91314 0.8569 0.44967 0.0
C300 C 0.93581 0.80907 0.44354 0.0
C301 C 0.92152 0.84271 0.47088 0.0
C302 C 0.86159 0.84013 0.3459 0.0
C303 C 0.85539 0.8154 0.35441 0.0
C304 C 0.86537 0.84461 0.31967 0.0
C305 C 0.85348 0.79544 0.33653 0.0
C306 C 0.86334 0.82413 0.3024 0.0
N307 N 0.85751 0.80017 0.31112 0.0
C308 C 0.82507 0.85043 0.42878 0.0
C309 C 0.85702 0.81803 0.42983 0.0
C310 C 0.80897 0.83563 0.44438 0.0
N311 N 0.8487 0.84157 0.42207 0.0
C312 C 0.84162 0.80266 0.44556 0.0
C313 C 0.81726 0.81144 0.45309 0.0
H314 H 0.81877 0.86907 0.42207 0.0
H315 H 0.87548 0.81099 0.42357 0.0
C316 C 0.93994 0.85424 0.32844 0.0
N317 N 0.9234 0.84288 0.34518 0.0
C318 C 0.95544 0.83926 0.31244 0.0
C319 C 0.93679 0.80113 0.33135 0.0
C320 C 0.92176 0.81685 0.34708 0.0
C321 C 0.95391 0.81231 0.3137 0.0
H322 H 0.94113 0.87496 0.32749 0.0
H323 H 0.90877 0.80828 0.36083 0.0
O324 O 0.86402 0.90068 0.40407 0.0
O325 O 0.90797 0.90163 0.36334 0.0
O326 O 0.90788 0.86021 0.40393 0.0
O327 O 0.8639 0.85984 0.36316 0.0
H328 H 0.84541 0.94789 0.40042 0.0
H329 H 0.86234 0.88631 0.45303 0.0
H330 H 0.83022 0.97413 0.43722 0.0
H331 H 0.84717 0.91369 0.48893 0.0
H332 H 0.90416 0.93438 0.28235 0.0
H333 H 0.92417 0.94869 0.37402 0.0
H334 H 0.89901 0.89843 0.31329 0.0
H335 H 0.92896 0.98376 0.34203 0.0
H336 H 0.92408 0.9786 0.44845 0.0
H337 H 0.97956 0.91695 0.45353 0.0
H338 H 0.79952 0.91312 0.30351 0.0
H339 H 0.83989 0.98087 0.32963 0.0
H340 H 0.93036 0.8146 0.40288 0.0
H341 H 0.90485 0.87571 0.45243 0.0
H342 H 0.94472 0.7904 0.44139 0.0
H343 H 0.91936 0.85038 0.49009 0.0
H344 H 0.85227 0.81162 0.37462 0.0
H345 H 0.86992 0.86367 0.31273 0.0
H346 H 0.84886 0.77617 0.34287 0.0
H347 H 0.86639 0.82729 0.28206 0.0
H348 H 0.79037 0.84317 0.44982 0.0
H349 H 0.84854 0.78391 0.45141 0.0
H350 H 0.96826 0.84867 0.299 0.0
H351 H 0.93528 0.78044 0.33323 0.0
Li352 Li 0.11796 0.64964 0.14734 0.0
Li353 Li 0.15035 0.61536 0.1463 0.0
Li354 Li 0.15059 0.65027 0.1126 0.0
Li355 Li 0.11833 0.61554 0.11237 0.0
C356 C 0.16314 0.67432 0.16407 0.0
N357 N 0.17756 0.71753 0.19146 0.0
C358 C 0.17469 0.6718 0.1882 0.0
C359 C 0.1593 0.69881 0.15371 0.0
C360 C 0.18173 0.69387 0.2018 0.0
C361 C 0.16663 0.72042 0.16788 0.0
C362 C 0.10987 0.59382 0.16899 0.0
C363 C 0.11131 0.5497 0.1832 0.0
N364 N 0.10597 0.5575 0.20759 0.0
C365 C 0.10413 0.60139 0.19413 0.0
C366 C 0.11324 0.56775 0.1634 0.0
C367 C 0.10233 0.58274 0.2134 0.0
C368 C 0.07372 0.67861 0.15975 0.0
N369 N 0.09673 0.67039 0.16896 0.0
C370 C 0.08916 0.69162 0.20904 0.0
C371 C 0.1045 0.67633 0.1932 0.0
C372 C 0.06542 0.70071 0.19997 0.0
C373 C 0.05773 0.69392 0.17495 0.0
H374 H 0.06775 0.67319 0.14058 0.0
H375 H 0.12252 0.66901 0.20037 0.0
C376 C 0.18753 0.5768 0.15679 0.0
N377 N 0.17138 0.59419 0.16771 0.0
C378 C 0.2029 0.56107 0.17218 0.0
C379 C 0.18496 0.58158 0.2098 0.0
C380 C 0.16997 0.59693 0.19368 0.0
C381 C 0.20173 0.56331 0.1991 0.0
H382 H 0.18855 0.57518 0.13611 0.0
H383 H 0.15721 0.61111 0.20189 0.0
C384 C 0.10432 0.67268 0.09391 0.0
N385 N 0.08743 0.71188 0.06223 0.0
C386 C 0.09599 0.66726 0.06893 0.0
C387 C 0.10357 0.698 0.10292 0.0
C388 C 0.08767 0.68735 0.05316 0.0
C389 C 0.0951 0.71755 0.08657 0.0
C390 C 0.16049 0.59548 0.08916 0.0
C391 C 0.17003 0.60394 0.0655 0.0
C392 C 0.15514 0.56938 0.09276 0.0
C393 C 0.17368 0.58618 0.04568 0.0
C394 C 0.15901 0.55223 0.07246 0.0
N395 N 0.1681 0.56091 0.04952 0.0
C396 C 0.19418 0.68092 0.10182 0.0
C397 C 0.16477 0.67778 0.06723 0.0
C398 C 0.21011 0.697 0.08736 0.0
N399 N 0.17181 0.67196 0.09173 0.0
C400 C 0.18013 0.69376 0.05207 0.0
C401 C 0.20311 0.70372 0.06214 0.0
H402 H 0.19965 0.67561 0.12116 0.0
H403 H 0.14745 0.66967 0.05924 0.0
C404 C 0.07744 0.58135 0.10184 0.0
N405 N 0.09701 0.59466 0.09081 0.0
C406 C 0.06148 0.56576 0.08685 0.0
C407 C 0.08613 0.57783 0.0494 0.0
C408 C 0.10137 0.59342 0.06505 0.0
C409 C 0.06578 0.5637 0.06021 0.0
H410 H 0.0741 0.58295 0.1223 0.0
H411 H 0.11674 0.60452 0.05661 0.0
O412 O 0.15594 0.65288 0.15059 0.0
O413 O 0.11214 0.61183 0.14996 0.0
O414 O 0.11248 0.65319 0.10961 0.0
O415 O 0.15662 0.61265 0.10872 0.0
H416 H 0.17809 0.65301 0.19642 0.0
H417 H 0.15108 0.70111 0.13481 0.0
H418 H 0.19053 0.6922 0.22057 0.0
H419 H 0.16372 0.73949 0.16009 0.0
H420 H 0.11404 0.52947 0.17918 0.0
H421 H 0.10133 0.62145 0.19877 0.0
H422 H 0.11735 0.56154 0.14401 0.0
H423 H 0.09808 0.58835 0.23298 0.0
H424 H 0.09597 0.69645 0.22812 0.0
H425 H 0.03939 0.70007 0.16731 0.0
H426 H 0.21538 0.54711 0.16309 0.0
H427 H 0.18371 0.58426 0.23042 0.0
H428 H 0.09613 0.64778 0.06171 0.0
H429 H 0.10913 0.70251 0.12241 0.0
H430 H 0.08138 0.68343 0.03373 0.0
H431 H 0.0945 0.73723 0.0933 0.0
H432 H 0.1745 0.62401 0.06244 0.0
H433 H 0.14794 0.56247 0.11098 0.0
H434 H 0.18093 0.59248 0.02723 0.0
H435 H 0.15478 0.53201 0.07493 0.0
H436 H 0.22759 0.70431 0.09597 0.0
H437 H 0.17426 0.69791 0.03253 0.0
H438 H 0.04575 0.55572 0.09605 0.0
H439 H 0.09049 0.5767 0.02907 0.0
Li440 Li 0.36603 0.40017 0.36464 0.0
Li441 Li 0.39887 0.3988 0.39834 0.0
Li442 Li 0.39789 0.36453 0.36406 0.0
Li443 Li 0.3661 0.36604 0.39926 0.0
C444 C 0.4127 0.41369 0.33859 0.0
N445 N 0.43056 0.43667 0.2941 0.0
C446 C 0.42478 0.43769 0.33966 0.0
C447 C 0.41014 0.4012 0.31494 0.0
C448 C 0.43354 0.44905 0.31695 0.0
C449 C 0.41918 0.41317 0.29266 0.0
C450 C 0.36014 0.42358 0.41965 0.0
C451 C 0.36524 0.43981 0.4628 0.0
N452 N 0.35969 0.4639 0.45424 0.0
C453 C 0.35429 0.44844 0.41131 0.0
C454 C 0.36546 0.41915 0.44563 0.0
C455 C 0.35422 0.46859 0.42909 0.0
C456 C 0.32067 0.4138 0.33828 0.0
N457 N 0.34486 0.42185 0.34391 0.0
C458 C 0.3384 0.46058 0.31997 0.0
C459 C 0.35379 0.4449 0.33539 0.0
C460 C 0.31351 0.45252 0.31335 0.0
C461 C 0.30465 0.42881 0.32282 0.0
H462 H 0.31383 0.39564 0.34575 0.0
H463 H 0.3728 0.45124 0.3407 0.0
C464 C 0.43588 0.40931 0.43712 0.0
N465 N 0.42073 0.42011 0.41878 0.0
C466 C 0.4514 0.42476 0.45268 0.0
C467 C 0.43561 0.46213 0.43004 0.0
C468 C 0.42047 0.44596 0.41489 0.0
C469 C 0.45133 0.45159 0.44931 0.0
H470 H 0.43585 0.3887 0.43975 0.0
H471 H 0.40831 0.45404 0.40011 0.0
C472 C 0.34855 0.34966 0.34174 0.0
N473 N 0.32579 0.32371 0.30131 0.0
C474 C 0.33629 0.32611 0.34596 0.0
C475 C 0.34893 0.36014 0.31698 0.0
C476 C 0.32499 0.31325 0.32527 0.0
C477 C 0.33739 0.34671 0.29679 0.0
C478 C 0.40662 0.34065 0.41796 0.0
C479 C 0.41345 0.31654 0.40826 0.0
C480 C 0.40216 0.34362 0.44431 0.0
C481 C 0.41541 0.29568 0.42508 0.0
C482 C 0.40426 0.32227 0.46049 0.0
N483 N 0.41078 0.29895 0.45062 0.0
C484 C 0.44433 0.34785 0.34249 0.0
C485 C 0.4086 0.32319 0.32893 0.0
C486 C 0.46087 0.33284 0.32758 0.0
N487 N 0.41872 0.34286 0.34285 0.0
C488 C 0.42436 0.3079 0.31351 0.0
C489 C 0.45095 0.31254 0.31269 0.0
H490 H 0.45191 0.36349 0.35393 0.0
H491 H 0.38832 0.3192 0.32972 0.0
C492 C 0.32851 0.35645 0.43758 0.0
N493 N 0.34488 0.34505 0.42071 0.0
C494 C 0.31318 0.34148 0.4538 0.0
C495 C 0.33177 0.30332 0.43491 0.0
C496 C 0.34656 0.31901 0.41894 0.0
C497 C 0.31482 0.31453 0.45268 0.0
H498 H 0.32736 0.37718 0.43848 0.0
H499 H 0.35945 0.3104 0.40513 0.0
O500 O 0.40407 0.40231 0.36071 0.0
O501 O 0.36079 0.4037 0.40245 0.0
O502 O 0.35979 0.36243 0.36183 0.0
O503 O 0.40434 0.36124 0.40174 0.0
H504 H 0.42725 0.44751 0.35781 0.0
H505 H 0.40153 0.38236 0.31377 0.0
H506 H 0.44274 0.46769 0.31748 0.0
H507 H 0.41725 0.40372 0.27422 0.0
H508 H 0.36952 0.43671 0.48291 0.0
H509 H 0.35006 0.45218 0.3913 0.0
H510 H 0.36996 0.40002 0.4524 0.0
H511 H 0.34988 0.48796 0.42288 0.0
H512 H 0.34603 0.47868 0.31305 0.0
H513 H 0.28544 0.42206 0.31858 0.0
H514 H 0.46304 0.41582 0.46744 0.0
H515 H 0.4352 0.48266 0.42652 0.0
H516 H 0.33557 0.31779 0.36498 0.0
H517 H 0.35775 0.37859 0.31338 0.0
H518 H 0.31556 0.29495 0.32826 0.0
H519 H 0.33758 0.35461 0.27755 0.0
H520 H 0.41702 0.3139 0.38794 0.0
H521 H 0.39687 0.36213 0.45213 0.0
H522 H 0.42055 0.27688 0.41782 0.0
H523 H 0.40067 0.32425 0.48088 0.0
H524 H 0.48125 0.33693 0.328 0.0
H525 H 0.41568 0.29276 0.30217 0.0
H526 H 0.30045 0.35088 0.46732 0.0
H527 H 0.33334 0.28263 0.43316 0.0
Li528 Li 0.37107 0.89919 0.86682 0.0
Li529 Li 0.40558 0.89887 0.90168 0.0
Li530 Li 0.40286 0.86378 0.86684 0.0
Li531 Li 0.37149 0.86735 0.90053 0.0
C532 C 0.41964 0.91837 0.84626 0.0
N533 N 0.44028 0.9532 0.81182 0.0
C534 C 0.42913 0.94197 0.85495 0.0
C535 C 0.42088 0.91239 0.82007 0.0
C536 C 0.43943 0.95934 0.83723 0.0
C537 C 0.43132 0.93028 0.80297 0.0
C538 C 0.35067 0.90683 0.92373 0.0
C539 C 0.34026 0.90958 0.96883 0.0
N540 N 0.31489 0.90758 0.96293 0.0
C541 C 0.32451 0.90495 0.91809 0.0
C542 C 0.35866 0.90925 0.94928 0.0
C543 C 0.30672 0.9053 0.93819 0.0
C544 C 0.32529 0.91366 0.84178 0.0
N545 N 0.34996 0.92112 0.84596 0.0
C546 C 0.34366 0.95877 0.82029 0.0
C547 C 0.35919 0.94338 0.83583 0.0
C548 C 0.31802 0.95165 0.81559 0.0
C549 C 0.30889 0.92875 0.82677 0.0
H550 H 0.31832 0.89596 0.8502 0.0
H551 H 0.3786 0.94933 0.83973 0.0
C552 C 0.45197 0.91146 0.92721 0.0
N553 N 0.4278 0.91966 0.92178 0.0
C554 C 0.46831 0.92662 0.94223 0.0
C555 C 0.43461 0.9584 0.94553 0.0
C556 C 0.41894 0.94264 0.93048 0.0
C557 C 0.45967 0.95045 0.95164 0.0
H558 H 0.45851 0.89313 0.91988 0.0
H559 H 0.39963 0.94868 0.92577 0.0
C560 C 0.35876 0.8509 0.8404 0.0
N561 N 0.34719 0.82884 0.79345 0.0
C562 C 0.34857 0.82605 0.83929 0.0
C563 C 0.36302 0.86452 0.81764 0.0
C564 C 0.34287 0.81522 0.81537 0.0
C565 C 0.35704 0.85305 0.7941 0.0
C566 C 0.41118 0.84076 0.92106 0.0
C567 C 0.40199 0.81655 0.91391 0.0
C568 C 0.4223 0.84419 0.94527 0.0
C569 C 0.40388 0.79613 0.93127 0.0
C570 C 0.42388 0.82326 0.96207 0.0
N571 N 0.41469 0.79988 0.95478 0.0
C572 C 0.44531 0.85132 0.83533 0.0
C573 C 0.41601 0.81704 0.84141 0.0
C574 C 0.46056 0.83603 0.81938 0.0
N575 N 0.42332 0.84178 0.84567 0.0
C576 C 0.43085 0.80095 0.82586 0.0
C577 C 0.45343 0.81041 0.81441 0.0
H578 H 0.45103 0.87087 0.83942 0.0
H579 H 0.39872 0.80969 0.85019 0.0
C580 C 0.32838 0.83628 0.91171 0.0
N581 N 0.34927 0.84759 0.92255 0.0
C582 C 0.31182 0.82126 0.92659 0.0
C583 C 0.3382 0.83029 0.96372 0.0
C584 C 0.35419 0.84518 0.94813 0.0
C585 C 0.31675 0.81791 0.95296 0.0
H586 H 0.32449 0.83903 0.89149 0.0
H587 H 0.37059 0.85478 0.95647 0.0
O588 O 0.40951 0.90115 0.8634 0.0
O589 O 0.36841 0.90587 0.90438 0.0
O590 O 0.36475 0.86161 0.8637 0.0
O591 O 0.40929 0.86105 0.90446 0.0
H592 H 0.42839 0.94692 0.87513 0.0
H593 H 0.41407 0.89407 0.813 0.0
H594 H 0.44673 0.97772 0.84368 0.0
H595 H 0.43236 0.92591 0.78265 0.0
H596 H 0.34616 0.91128 0.98871 0.0
H597 H 0.31805 0.90293 0.89843 0.0
H598 H 0.37886 0.91046 0.95399 0.0
H599 H 0.28641 0.90368 0.93413 0.0
H600 H 0.35185 0.97596 0.81189 0.0
H601 H 0.28919 0.92259 0.82425 0.0
H602 H 0.48758 0.91987 0.94619 0.0
H603 H 0.42702 0.97645 0.95262 0.0
H604 H 0.3454 0.8151 0.8567 0.0
H605 H 0.37083 0.88374 0.81809 0.0
H606 H 0.33508 0.79597 0.81423 0.0
H607 H 0.36025 0.8634 0.77634 0.0
H608 H 0.39303 0.81369 0.89538 0.0
H609 H 0.42945 0.86284 0.95111 0.0
H610 H 0.39665 0.77733 0.92608 0.0
H611 H 0.43235 0.82563 0.98091 0.0
H612 H 0.47761 0.84435 0.81084 0.0
H613 H 0.4248 0.78122 0.82314 0.0
H614 H 0.29522 0.81256 0.91757 0.0
H615 H 0.34285 0.82817 0.98391 0.0
Li616 Li 0.61634 0.64745 0.64751 0.0
Li617 Li 0.64867 0.61411 0.6466 0.0
Li618 Li 0.64922 0.64851 0.61496 0.0
Li619 Li 0.61645 0.6158 0.61315 0.0
C620 C 0.66034 0.6761 0.65904 0.0
N621 N 0.67337 0.72605 0.67163 0.0
C622 C 0.68149 0.68096 0.67485 0.0
C623 C 0.64579 0.69665 0.64968 0.0
C624 C 0.68777 0.70635 0.68099 0.0
C625 C 0.65269 0.72176 0.65625 0.0
C626 C 0.60383 0.60368 0.67502 0.0
C627 C 0.57479 0.5832 0.70479 0.0
N628 N 0.58948 0.59158 0.72473 0.0
C629 C 0.61865 0.61205 0.6958 0.0
C630 C 0.58173 0.58911 0.67952 0.0
C631 C 0.61108 0.60575 0.72079 0.0
C632 C 0.57205 0.67621 0.65991 0.0
N633 N 0.59491 0.66781 0.66932 0.0
C634 C 0.58712 0.68885 0.70946 0.0
C635 C 0.60272 0.67393 0.69352 0.0
C636 C 0.56348 0.69791 0.70021 0.0
C637 C 0.55601 0.69154 0.67506 0.0
H638 H 0.56633 0.67104 0.64061 0.0
H639 H 0.62117 0.6674 0.70043 0.0
C640 C 0.69416 0.60031 0.67228 0.0
N641 N 0.66999 0.5921 0.66687 0.0
C642 C 0.71043 0.58535 0.68755 0.0
C643 C 0.67668 0.55364 0.69117 0.0
C644 C 0.6611 0.56918 0.67581 0.0
C645 C 0.70171 0.5617 0.69734 0.0
H646 H 0.70077 0.61854 0.66476 0.0
H647 H 0.6418 0.56306 0.67126 0.0
C648 C 0.60626 0.65956 0.58502 0.0
N649 N 0.59531 0.67154 0.53441 0.0
C650 C 0.62116 0.64932 0.56514 0.0
C651 C 0.58583 0.67595 0.57914 0.0
C652 C 0.61531 0.65559 0.53969 0.0
C653 C 0.58059 0.68177 0.55344 0.0
C654 C 0.66007 0.58616 0.60303 0.0
C655 C 0.68098 0.58064 0.58713 0.0
C656 C 0.64521 0.56605 0.6129 0.0
C657 C 0.68672 0.55503 0.5814 0.0
C658 C 0.65158 0.54071 0.60672 0.0
N659 N 0.67203 0.53576 0.59123 0.0
C660 C 0.69478 0.66136 0.5886 0.0
C661 C 0.66298 0.69393 0.58745 0.0
C662 C 0.71127 0.67637 0.57361 0.0
N663 N 0.67114 0.67029 0.5951 0.0
C664 C 0.67889 0.70964 0.57259 0.0
C665 C 0.70337 0.70087 0.56539 0.0
H666 H 0.70079 0.64252 0.59503 0.0
H667 H 0.64402 0.70055 0.59268 0.0
C668 C 0.57061 0.59074 0.59904 0.0
N669 N 0.59492 0.59582 0.59104 0.0
C670 C 0.55424 0.57572 0.58393 0.0
C671 C 0.58816 0.57171 0.55247 0.0
C672 C 0.60385 0.58679 0.56818 0.0
C673 C 0.56299 0.56589 0.56032 0.0
H674 H 0.56396 0.59835 0.61722 0.0
H675 H 0.62326 0.59108 0.56219 0.0
O676 O 0.65404 0.65129 0.65293 0.0
O677 O 0.61076 0.60961 0.65033 0.0
O678 O 0.61154 0.65377 0.61015 0.0
O679 O 0.65432 0.61119 0.60878 0.0
H680 H 0.69291 0.66525 0.68231 0.0
H681 H 0.62931 0.6933 0.63749 0.0
H682 H 0.7041 0.71039 0.6932 0.0
H683 H 0.6416 0.73783 0.64912 0.0
H684 H 0.55773 0.57194 0.70856 0.0
H685 H 0.63585 0.62328 0.69272 0.0
H686 H 0.57007 0.58242 0.66364 0.0
H687 H 0.62237 0.61213 0.73704 0.0
H688 H 0.59365 0.69363 0.72865 0.0
H689 H 0.53784 0.69808 0.66733 0.0
H690 H 0.72968 0.59216 0.69147 0.0
H691 H 0.66902 0.53573 0.69852 0.0
H692 H 0.63715 0.63674 0.56925 0.0
H693 H 0.57416 0.68413 0.59429 0.0
H694 H 0.62669 0.64778 0.52413 0.0
H695 H 0.56483 0.69442 0.54862 0.0
H696 H 0.69263 0.59598 0.57929 0.0
H697 H 0.62887 0.56991 0.62511 0.0
H698 H 0.70286 0.55047 0.56912 0.0
H699 H 0.64024 0.52497 0.61422 0.0
H700 H 0.73008 0.66899 0.5687 0.0
H701 H 0.67192 0.72826 0.56641 0.0
H702 H 0.53488 0.57203 0.59058 0.0
H703 H 0.59582 0.56431 0.53458 0.0
C704 C 0.30968 0.2769 0.48237 0.0
C705 C 0.29885 0.29816 0.46979 0.0
C706 C 0.29475 0.26104 0.49831 0.0
C707 C 0.26832 0.26645 0.50161 0.0
C708 C 0.2573 0.28795 0.48905 0.0
C709 C 0.27273 0.3036 0.47337 0.0
C710 C 0.30726 0.23845 0.51157 0.0
C711 C 0.22914 0.29421 0.4919 0.0
C712 C 0.22438 0.21187 0.52228 0.0
C713 C 0.22086 0.21709 0.54854 0.0
C714 C 0.23972 0.22779 0.50681 0.0
C715 C 0.25208 0.24937 0.51786 0.0
C716 C 0.24884 0.25465 0.54438 0.0
C717 C 0.2332 0.23852 0.55936 0.0
C718 C 0.24265 0.22154 0.47859 0.0
C719 C 0.26179 0.27743 0.55688 0.0
H720 H 0.32994 0.27282 0.47992 0.0
H721 H 0.26421 0.31983 0.46346 0.0
H722 H 0.3046 0.24001 0.53269 0.0
H723 H 0.29795 0.2203 0.50535 0.0
H724 H 0.32813 0.23716 0.50739 0.0
H725 H 0.22362 0.31181 0.48113 0.0
H726 H 0.21737 0.2779 0.4848 0.0
H727 H 0.22432 0.29701 0.51249 0.0
H728 H 0.21531 0.19514 0.51381 0.0
H729 H 0.23033 0.24295 0.57952 0.0
H730 H 0.26318 0.21825 0.47398 0.0
H731 H 0.23609 0.23804 0.46677 0.0
H732 H 0.23153 0.20421 0.47291 0.0
H733 H 0.28287 0.27627 0.55403 0.0
H734 H 0.25778 0.27856 0.57783 0.0
H735 H 0.25517 0.2955 0.54768 0.0
C736 C 0.71896 0.51879 0.71125 0.0
C737 C 0.71849 0.54564 0.71405 0.0
C738 C 0.73446 0.50339 0.7271 0.0
C739 C 0.74996 0.5151 0.74616 0.0
C740 C 0.74967 0.54217 0.74903 0.0
C741 C 0.73392 0.5571 0.73299 0.0
C742 C 0.73426 0.47459 0.72342 0.0
C743 C 0.76593 0.55536 0.76914 0.0
C744 C 0.77263 0.47426 0.80243 0.0
C745 C 0.79787 0.46825 0.79511 0.0
C746 C 0.75684 0.48947 0.78669 0.0
C747 C 0.76651 0.499 0.76309 0.0
C748 C 0.79197 0.4931 0.75562 0.0
C749 C 0.80731 0.47777 0.77168 0.0
C750 C 0.72979 0.49536 0.79533 0.0
C751 C 0.80298 0.50289 0.7306 0.0
H752 H 0.70739 0.5098 0.69645 0.0
H753 H 0.7334 0.57777 0.73555 0.0
H754 H 0.75387 0.46773 0.71872 0.0
H755 H 0.72838 0.46498 0.74154 0.0
H756 H 0.72101 0.46847 0.70784 0.0
H757 H 0.76369 0.57661 0.76875 0.0
H758 H 0.76062 0.54831 0.78856 0.0
H759 H 0.78647 0.55063 0.7661 0.0
H760 H 0.76529 0.4673 0.82065 0.0
H761 H 0.82664 0.47292 0.76568 0.0
H762 H 0.71586 0.48833 0.7808 0.0
H763 H 0.72712 0.51647 0.79697 0.0
H764 H 0.72514 0.4864 0.81416 0.0
H765 H 0.79135 0.49572 0.71423 0.0
H766 H 0.82322 0.49682 0.72772 0.0
H767 H 0.80213 0.52421 0.73011 0.0
C768 C 0.5641 0.03681 0.02554 0.0
C769 C 0.55397 0.04665 0.04853 0.0
C770 C 0.54933 0.02094 0.00944 0.0
C771 C 0.52378 0.01482 0.01646 0.0
C772 C 0.51344 0.02468 0.03964 0.0
C773 C 0.52867 0.04043 0.0554 0.0
C774 C 0.56108 0.01069 0.98496 0.0
C775 C 0.48623 0.01871 0.04771 0.0
C776 C 0.4771 0.99363 0.96439 0.0
C777 C 0.47656 0.96687 0.96789 0.0
C778 C 0.49248 0.00943 0.97996 0.0
C779 C 0.50777 0.99823 0.99948 0.0
C780 C 0.50751 0.97123 1.00297 0.0
C781 C 0.49191 0.95588 0.98716 0.0
C782 C 0.49228 0.03814 0.97558 0.0
C783 C 0.52353 0.95857 0.0236 0.0
H784 H 0.58374 0.04127 0.02028 0.0
H785 H 0.52062 0.04823 0.07297 0.0
H786 H 0.56076 0.98936 0.98513 0.0
H787 H 0.54961 0.01704 0.96814 0.0
H788 H 0.58122 0.0172 0.9823 0.0
H789 H 0.48115 0.02771 0.0664 0.0
H790 H 0.47261 0.02567 0.03285 0.0
H791 H 0.48357 0.99761 0.04936 0.0
H792 H 0.46561 1.00225 0.9493 0.0
H793 H 0.49136 0.93527 0.99022 0.0
H794 H 0.51198 0.045 0.97124 0.0
H795 H 0.48587 0.04814 0.9933 0.0
H796 H 0.47942 0.04382 0.95951 0.0
H797 H 0.54406 0.96362 0.02099 0.0
H798 H 0.52163 0.93729 0.02344 0.0
H799 H 0.51765 0.96578 0.0428 0.0
C800 C 0.95969 0.77437 0.28448 0.0
C801 C 0.97015 0.79596 0.29681 0.0
C802 C 0.97481 0.75875 0.26849 0.0
C803 C 1.00107 0.7648 0.26482 0.0
C804 C 0.01175 0.78656 0.27721 0.0
C805 C 0.99615 0.8019 0.29301 0.0
C806 C 0.96268 0.73582 0.25546 0.0
C807 C 0.0397 0.79354 0.27393 0.0
C808 C 0.04611 0.71165 0.24287 0.0
C809 C 0.04875 0.71704 0.21655 0.0
C810 C 0.03068 0.72702 0.25878 0.0
C811 C 0.01742 0.74827 0.24813 0.0
C812 C 0.01987 0.75376 0.22157 0.0
C813 C 0.03554 0.73813 0.20612 0.0
C814 C 0.02855 0.72054 0.28701 0.0
C815 C 1.00604 0.77624 0.20951 0.0
H816 H 0.93953 0.76987 0.28708 0.0
H817 H 1.00443 0.81837 0.30274 0.0
H818 H 0.96467 0.73759 0.23429 0.0
H819 H 0.97275 0.71795 0.26129 0.0
H820 H 0.94198 0.73381 0.26022 0.0
H821 H 0.045 0.81117 0.28476 0.0
H822 H 0.05199 0.77746 0.28064 0.0
H823 H 0.04407 0.79666 0.25328 0.0
H824 H 0.05592 0.69518 0.25102 0.0
H825 H 0.03773 0.74267 0.1859 0.0
H826 H 1.00822 0.71666 0.29207 0.0
H827 H 0.03494 0.73713 0.29879 0.0
H828 H 0.04023 0.70348 0.29234 0.0
H829 H 0.98506 0.77443 0.21272 0.0
H830 H 0.00963 0.77768 0.18849 0.0
H831 H 0.0123 0.79443 0.21874 0.0
C832 C 0.28224 0.95683 0.78333 0.0
C833 C 0.30102 0.96802 0.7992 0.0
C834 C 0.26615 0.97203 0.76787 0.0
C835 C 0.26925 0.99907 0.76773 0.0
C836 C 0.28824 0.01052 0.78347 0.0
C837 C 0.30363 0.99493 0.79923 0.0
C838 C 0.24582 0.95913 0.75167 0.0
C839 C 0.2924 0.03927 0.78359 0.0
C840 C 0.2439 0.03609 0.70998 0.0
C841 C 0.22105 0.04665 0.71968 0.0
C842 C 0.25985 0.02075 0.72545 0.0
C843 C 0.2526 0.01542 0.75114 0.0
C844 C 0.22952 0.02582 0.76103 0.0
C845 C 0.21418 0.04148 0.7453 0.0
C846 C 0.28449 0.01028 0.71429 0.0
C847 C 0.22099 0.02035 0.78825 0.0
H848 H 0.28025 0.93611 0.7827 0.0
H849 H 0.3176 1.00395 0.81174 0.0
H850 H 0.22664 0.96714 0.75639 0.0
H851 H 0.2494 0.96304 0.73101 0.0
H852 H 0.2453 0.93797 0.7546 0.0
H853 H 0.30851 0.0451 0.79632 0.0
H854 H 0.29652 0.0461 0.7638 0.0
H855 H 0.2747 0.04915 0.79013 0.0
H856 H 0.24925 0.03953 0.69014 0.0
H857 H 0.19687 0.04987 0.75322 0.0
H858 H 0.28415 0.98896 0.71463 0.0
H859 H 0.30105 0.01654 0.72619 0.0
H860 H 0.2877 0.01673 0.69418 0.0
H861 H 0.21949 0.99929 0.79132 0.0
H862 H 0.20214 0.02927 0.79279 0.0
H863 H 0.23545 0.02774 0.80205 0.0
C864 C 0.99707 0.46357 0.96523 0.0
C865 C 0.9704 0.46713 0.96454 0.0
C866 C 0.01276 0.47921 0.98066 0.0
C867 C 1.00144 0.4986 0.99607 0.0
C868 C 0.97448 0.5021 0.99562 0.0
C869 C 0.9593 0.48645 0.9797 0.0
C870 C 0.04146 0.47514 0.98029 0.0
C871 C 0.96165 0.52228 0.01207 0.0
C872 C 0.03977 0.52348 0.05316 0.0
C873 C 0.04914 0.54703 0.04381 0.0
C874 C 0.02404 0.50767 0.03794 0.0
C875 C 0.01784 0.51532 0.01256 0.0
C876 C 0.02733 0.53893 1.00291 0.0
C877 C 0.04265 0.55458 0.01869 0.0
C878 C 0.01408 0.48273 0.04901 0.0
C879 C 0.02133 0.54766 0.97587 0.0
H880 H 1.00571 0.4488 0.95333 0.0
H881 H 0.93865 0.48904 0.97939 0.0
H882 H 0.05123 0.4931 0.97419 0.0
H883 H 0.04841 0.47051 0.99992 0.0
H884 H 0.04724 0.45938 0.9671 0.0
H885 H 0.94044 0.52227 0.00981 0.0
H886 H 0.96632 0.51894 0.03262 0.0
H887 H 0.96902 0.54163 1.00696 0.0
H888 H 0.04496 0.51719 0.07233 0.0
H889 H 0.04932 0.5729 0.01137 0.0
H890 H 0.02121 0.46629 0.03746 0.0
H891 H 0.9928 0.48234 0.04807 0.0
H892 H 0.02006 0.4799 0.06933 0.0
H893 H 0.02779 0.53292 0.96186 0.0
H894 H 0.0307 0.56624 0.97105 0.0
H895 H 1.00028 0.54985 0.97345 0.0
C896 C 0.48926 0.30709 0.28368 0.0
C897 C 0.46814 0.29625 0.29652 0.0
C898 C 0.50563 0.29193 0.26848 0.0
C899 C 0.50056 0.26533 0.26567 0.0
C900 C 0.47921 0.25428 0.27837 0.0
C901 C 0.46343 0.26979 0.2938 0.0
C902 C 0.52838 0.30438 0.25547 0.0
C903 C 0.47302 0.22603 0.27566 0.0
C904 C 0.52936 0.23078 0.20802 0.0
C905 C 0.55031 0.2179 0.21912 0.0
C906 C 0.51291 0.2461 0.22295 0.0
C907 C 0.51771 0.24901 0.24959 0.0
C908 C 0.53886 0.23623 0.26093 0.0
C909 C 0.55473 0.22067 0.24564 0.0
C910 C 0.49038 0.25921 0.21022 0.0
C911 C 0.54475 0.23901 0.28923 0.0
H912 H 0.4929 0.32755 0.28525 0.0
H913 H 0.4475 0.26105 0.30397 0.0
H914 H 0.54637 0.29471 0.26156 0.0
H915 H 0.52683 0.3021 0.23432 0.0
H916 H 0.52995 0.3252 0.25999 0.0
H917 H 0.45529 0.22055 0.28619 0.0
H918 H 0.47055 0.22106 0.25505 0.0
H919 H 0.48919 0.2143 0.28309 0.0
H920 H 0.52595 0.22915 0.18753 0.0
H921 H 0.57051 0.21047 0.25458 0.0
H922 H 0.49211 0.28036 0.21234 0.0
H923 H 0.47225 0.25335 0.21979 0.0
H924 H 0.48895 0.25453 0.18942 0.0
H925 H 0.54742 0.25961 0.29411 0.0
H926 H 0.56231 0.22832 0.29496 0.0
H927 H 0.52838 0.23183 0.30083 0.0
C928 C 0.77435 0.79257 0.46427 0.0
C929 C 0.80056 0.79537 0.46982 0.0
C930 C 0.75843 0.77724 0.47977 0.0
C931 C 0.76892 0.76454 0.50144 0.0
C932 C 0.79533 0.76742 0.50723 0.0
C933 C 0.81085 0.78273 0.49131 0.0
C934 C 0.73041 0.77448 0.47284 0.0
C935 C 0.80719 0.75437 0.5303 0.0
C936 C 0.72317 0.74345 0.5544 0.0
C937 C 0.72042 0.71712 0.54921 0.0
C938 C 0.739 0.75908 0.53911 0.0
C939 C 0.75228 0.74815 0.51801 0.0
C940 C 0.7496 0.72158 0.51268 0.0
C941 C 0.73377 0.70637 0.5284 0.0
C942 C 0.74154 0.78728 0.54554 0.0
C943 C 0.76328 0.70926 0.49025 0.0
H944 H 0.76637 0.80205 0.44751 0.0
H945 H 0.83102 0.78508 0.49586 0.0
H946 H 0.72575 0.75394 0.46946 0.0
H947 H 0.71824 0.78114 0.48904 0.0
H948 H 0.72523 0.78563 0.45537 0.0
H949 H 0.82798 0.75874 0.53227 0.0
H950 H 0.79722 0.76057 0.54811 0.0
H951 H 0.80478 0.73323 0.52874 0.0
H952 H 0.71313 0.7518 0.57064 0.0
H953 H 0.73146 0.6861 0.52411 0.0
H954 H 0.73509 0.79912 0.52901 0.0
H955 H 0.76198 0.79211 0.54915 0.0
H956 H 0.73012 0.79275 0.56274 0.0
H957 H 0.75738 0.7187 0.47205 0.0
H958 H 0.75919 0.68834 0.48873 0.0
H959 H 0.78432 0.71196 0.49221 0.0
C960 C 0.20799 0.53615 0.23853 0.0
C961 C 0.21803 0.54686 0.21589 0.0
C962 C 0.22321 0.52072 0.25462 0.0
C963 C 0.24909 0.51582 0.2479 0.0
C964 C 0.25933 0.52651 0.22505 0.0
C965 C 0.2437 0.54191 0.20935 0.0
C966 C 0.21157 0.50961 0.27879 0.0
C967 C 0.28686 0.52178 0.21726 0.0
C968 C 0.29565 0.49543 0.3004 0.0
C969 C 0.29688 0.46873 0.29668 0.0
C970 C 0.28012 0.51097 0.28472 0.0
C971 C 0.26549 0.49956 0.2648 0.0
C972 C 0.26662 0.47262 0.26096 0.0
C973 C 0.28227 0.45754 0.27696 0.0
C974 C 0.27932 0.5396 0.28951 0.0
C975 C 0.25143 0.45976 0.23984 0.0
H976 H 0.18809 0.53959 0.24355 0.0
H977 H 0.25172 0.5504 0.19209 0.0
H978 H 0.21262 0.48831 0.27824 0.0
H979 H 0.22264 0.51605 0.29584 0.0
H980 H 0.19119 0.51536 0.28136 0.0
H981 H 0.29181 0.53125 0.19876 0.0
H982 H 0.30001 0.52906 0.23238 0.0
H983 H 0.29038 0.50083 0.21534 0.0
H984 H 0.30661 0.50416 0.31581 0.0
H985 H 0.28339 0.43697 0.27376 0.0
H986 H 0.25935 0.54569 0.29376 0.0
H987 H 0.28554 0.55008 0.272 0.0
H988 H 0.29183 0.54547 0.30579 0.0
H989 H 0.23066 0.46381 0.24233 0.0
H990 H 0.25425 0.43859 0.23952 0.0
H991 H 0.25718 0.46769 0.22088 0.0
C992 C 0.78717 0.2759 0.95706 0.0
C993 C 0.80037 0.29715 0.9672 0.0
C994 C 0.77172 0.2603 0.97275 0.0
C995 C 0.76925 0.26614 0.99923 0.0
C996 C 0.78238 0.28762 0.00958 0.0
C997 C 0.79782 0.30282 0.99347 0.0
C998 C 0.75801 0.23757 0.96098 0.0
C999 C 0.78021 0.29447 0.03772 0.0
C1000 C 0.71133 0.23944 0.03484 0.0
C1001 C 0.72187 0.21806 0.04746 0.0
C1002 C 0.72655 0.25533 0.0192 0.0
C1003 C 0.75296 0.24971 0.01608 0.0
C1004 C 0.76375 0.22822 0.02883 0.0
C1005 C 0.74808 0.21266 0.04436 0.0
C1006 C 0.71436 0.27813 1.006 0.0
C1007 C 0.79181 0.22153 0.02589 0.0
H1008 H 0.78867 0.2716 0.93673 0.0
H1009 H 0.80821 0.31897 1.00155 0.0
H1010 H 0.76388 0.2196 0.97088 0.0
H1011 H 0.73698 0.23964 0.96362 0.0
H1012 H 0.76211 0.23552 0.94012 0.0
H1013 H 0.79133 0.31201 0.04269 0.0
H1014 H 0.75979 0.29769 0.04287 0.0
H1015 H 0.78726 0.27829 0.04969 0.0
H1016 H 0.69118 0.24395 0.03743 0.0
H1017 H 0.7563 0.19599 0.05378 0.0
H1018 H 0.71661 0.27637 0.98486 0.0
H1019 H 0.72421 0.2961 0.01193 0.0
H1020 H 0.69359 0.27994 0.01051 0.0
H1021 H 0.79622 0.21768 1.00537 0.0
H1022 H 0.79731 0.2044 0.0374 0.0
H1023 H 0.80389 0.23801 0.03198 0.0
C1024 C 0.81274 0.98381 0.28118 0.0
C1025 C 0.80143 0.96543 0.29732 0.0
C1026 C 0.79765 0.99947 0.2652 0.0
C1027 C 0.77058 0.99694 0.26571 0.0
C1028 C 0.75906 0.97843 0.28204 0.0
C1029 C 0.77466 0.96274 0.2975 0.0
C1030 C 0.81067 0.01867 0.24775 0.0
C1031 C 0.73026 0.97544 0.28343 0.0
C1032 C 0.73095 0.054 0.24315 0.0
C1033 C 0.72321 0.04612 0.21849 0.0
C1034 C 0.74614 0.0381 0.25878 0.0
C1035 C 0.75429 0.0139 0.24939 0.0
C1036 C 0.74687 1.00591 0.22445 0.0
C1037 C 0.73125 0.02199 0.20942 0.0
C1038 C 0.75344 0.0472 0.28537 0.0
C1039 C 0.75542 0.98035 0.21366 0.0
H1040 H 0.83347 0.98572 0.28083 0.0
H1041 H 0.76588 0.9487 0.31016 0.0
H1042 H 0.80503 0.01509 0.22748 0.0
H1043 H 0.80437 0.03844 0.25267 0.0
H1044 H 0.83194 0.01779 0.24917 0.0
H1045 H 0.72434 0.96016 0.29713 0.0
H1046 H 0.72139 0.99387 0.28951 0.0
H1047 H 0.72247 0.97072 0.26415 0.0
H1048 H 0.72533 0.07276 0.25024 0.0
H1049 H 0.72509 0.01544 0.19062 0.0
H1050 H 0.77463 0.04864 0.28699 0.0
H1051 H 0.74694 0.03304 0.29996 0.0
H1052 H 0.74497 0.06623 0.29007 0.0
H1053 H 0.77669 0.97912 0.21389 0.0
H1054 H 0.74863 0.9773 0.19363 0.0
H1055 H 0.74804 0.96447 0.22584 0.0
C1056 C 0.99711 0.96687 0.4669 0.0
C1057 C 0.9704 0.96621 0.47039 0.0
C1058 C 0.01281 0.98224 0.48258 0.0
C1059 C 1.00154 0.99734 0.50223 0.0
C1060 C 0.97462 0.99672 0.50589 0.0
C1061 C 0.95938 0.98117 0.48994 0.0
C1062 C 0.04144 0.98243 0.47803 0.0
C1063 C 0.9619 0.0125 0.52668 0.0
C1064 C 0.04388 0.01978 0.5574 0.0
C1065 C 0.04932 0.04523 0.55024 0.0
C1066 C 0.02835 1.00399 0.54198 0.0
C1067 C 0.01793 0.01389 0.51886 0.0
C1068 C 0.02324 0.03958 0.51157 0.0
C1069 C 0.03889 0.05492 0.52732 0.0
C1070 C 0.02308 0.97671 0.55042 0.0
C1071 C 0.01251 0.05082 0.48704 0.0
H1072 H 1.00574 0.95564 0.45162 0.0
H1073 H 0.9388 0.9805 0.49299 0.0
H1074 H 0.04791 1.00221 0.47334 0.0
H1075 H 0.05165 0.97647 0.49578 0.0
H1076 H 0.04722 0.9694 0.46212 0.0
H1077 H 0.94073 0.00986 0.52704 0.0
H1078 H 0.96975 0.0071 0.54577 0.0
H1079 H 0.96614 0.0332 0.52372 0.0
H1080 H 0.05156 0.01227 0.57525 0.0
H1081 H 0.04327 0.07444 0.52147 0.0
H1082 H 0.02985 0.96305 0.53551 0.0
H1083 H 1.00211 0.97371 0.55266 0.0
H1084 H 0.03265 0.97194 0.56891 0.0
H1085 H 0.01927 0.03949 0.47028 0.0
H1086 H 0.01823 0.07121 0.48426 0.0
H1087 H 0.99124 0.04969 0.48724 0.0
C1088 C 0.99724 0.30222 0.79493 0.0
C1089 C 0.97041 0.30049 0.79346 0.0
C1090 C 0.01301 0.28637 0.77982 0.0
C1091 C 1.00167 0.26821 0.763 0.0
C1092 C 0.97459 0.26637 0.76145 0.0
C1093 C 0.95929 0.2826 0.77663 0.0
C1094 C 0.0418 0.28906 0.78184 0.0
C1095 C 0.96177 0.24711 0.7439 0.0
C1096 C 0.04095 0.24223 0.70713 0.0
C1097 C 0.04899 0.2183 0.71664 0.0
C1098 C 0.02562 0.2587 0.72203 0.0
C1099 C 0.01812 0.25106 0.74706 0.0
C1100 C 0.0262 0.22695 0.7568 0.0
C1101 C 0.04154 0.21088 0.74149 0.0
C1102 C 0.0175 0.2843 0.71101 0.0
C1103 C 0.01849 0.21807 0.78336 0.0
H1104 H 1.0059 0.31622 0.80772 0.0
H1105 H 0.93856 0.28097 0.77567 0.0
H1106 H 0.05039 0.27056 0.78808 0.0
H1107 H 0.05002 0.29373 0.76272 0.0
H1108 H 0.04758 0.30428 0.79567 0.0
H1109 H 0.94049 0.24814 0.74492 0.0
H1110 H 0.96779 0.2505 0.72371 0.0
H1111 H 0.96788 0.22735 0.7491 0.0
H1112 H 0.04691 0.24825 0.68808 0.0
H1113 H 0.04739 0.19228 0.74885 0.0
H1114 H 0.02435 0.30013 0.72355 0.0
H1115 H 0.99624 0.2855 0.71038 0.0
H1116 H 0.02507 0.28743 0.69128 0.0
H1117 H 0.02517 0.2321 0.79797 0.0
H1118 H 0.0265 0.19887 0.78816 0.0
H1119 H 0.99725 0.21711 0.78479 0.0
C1120 C 0.53697 0.73738 0.70741 0.0
C1121 C 0.54682 0.71409 0.71671 0.0
C1122 C 0.52173 0.75322 0.72307 0.0
C1123 C 0.51586 0.74533 0.74848 0.0
C1124 C 0.52547 0.72163 0.75782 0.0
C1125 C 0.54104 0.7064 0.74189 0.0
C1126 C 0.51221 0.77855 0.71256 0.0
C1127 C 0.51927 0.71234 0.78463 0.0
C1128 C 0.49635 0.79566 0.79776 0.0
C1129 C 0.46946 0.79366 0.79751 0.0
C1130 C 0.51164 0.78024 0.78175 0.0
C1131 C 0.49984 0.76199 0.76537 0.0
C1132 C 0.47277 0.75964 0.76516 0.0
C1133 C 0.45791 0.77564 0.78103 0.0
C1134 C 0.54046 0.78349 0.78235 0.0
C1135 C 0.45949 0.74021 0.74816 0.0
H1136 H 0.54164 0.74345 0.68802 0.0
H1137 H 0.54847 0.68828 0.74901 0.0
H1138 H 0.49093 0.77914 0.71315 0.0
H1139 H 0.51932 0.79457 0.72474 0.0
H1140 H 0.51857 0.78191 0.69245 0.0
H1141 H 0.52773 0.69316 0.78874 0.0
H1142 H 0.5266 0.72625 0.79904 0.0
H1143 H 0.49815 0.71114 0.78719 0.0
H1144 H 0.50557 0.80913 0.8107 0.0
H1145 H 0.43718 0.77417 0.78028 0.0
H1146 H 0.54768 0.78797 0.76278 0.0
H1147 H 0.54967 0.76527 0.78849 0.0
H1148 H 0.5466 0.79905 0.79563 0.0
H1149 H 0.46384 0.74428 0.72768 0.0
H1150 H 0.43832 0.7403 0.75076 0.0
H1151 H 0.46678 0.72062 0.7524 0.0
C1152 C 0.24655 0.71801 0.04675 0.0
C1153 C 0.21976 0.72082 0.04633 0.0
C1154 C 0.26246 0.73391 0.03181 0.0
C1155 C 0.25132 0.75307 0.01601 0.0
C1156 C 0.22431 0.75607 0.01554 0.0
C1157 C 0.20887 0.73994 0.03071 0.0
C1158 C 0.29118 0.73009 0.03282 0.0
C1159 C 0.21171 0.7763 0.99896 0.0
C1160 C 0.29315 0.80892 0.99415 0.0
C1161 C 0.29975 0.80146 0.96907 0.0
C1162 C 0.27741 0.79338 0.00964 0.0
C1163 C 0.26793 0.76984 0.99979 0.0
C1164 C 0.2744 0.76223 0.97447 0.0
C1165 C 0.29026 0.77809 0.95945 0.0
C1166 C 0.27092 0.80215 0.03655 0.0
C1167 C 0.26468 0.73726 0.96328 0.0
H1168 H 0.25511 0.70307 0.05848 0.0
H1169 H 0.18821 0.74248 0.03054 0.0
H1170 H 0.29851 0.72518 0.0134 0.0
H1171 H 0.30072 0.74821 0.03879 0.0
H1172 H 0.29683 0.71459 0.04638 0.0
H1173 H 0.19046 0.77619 1.00081 0.0
H1174 H 0.21892 0.79565 1.00433 0.0
H1175 H 0.21678 0.77312 0.97848 0.0
H1176 H 0.30009 0.8271 1.00163 0.0
H1177 H 0.29555 0.77197 0.94024 0.0
H1178 H 0.27751 0.78763 0.05072 0.0
H1179 H 0.24981 0.80394 0.03871 0.0
H1180 H 0.27988 0.82094 0.04136 0.0
H1181 H 0.27144 0.72087 0.97514 0.0
H1182 H 0.27121 0.73428 0.94316 0.0
H1183 H 0.24339 0.73694 0.96363 0.0
C1184 C 0.49282 0.46141 0.47184 0.0
C1185 C 0.46754 0.46847 0.46575 0.0
C1186 C 0.50836 0.4772 0.48726 0.0
C1187 C 0.49839 0.50065 0.49686 0.0
C1188 C 0.47289 0.50788 0.49083 0.0
C1189 C 0.45778 0.49171 0.47536 0.0
C1190 C 0.53549 0.46886 0.49319 0.0
C1191 C 0.46154 0.53267 0.50078 0.0
C1192 C 0.5306 0.53046 0.55534 0.0
C1193 C 0.54611 0.54945 0.54408 0.0
C1194 C 0.5149 0.51453 0.54022 0.0
C1195 C 0.51469 0.51763 0.51317 0.0
C1196 C 0.53019 0.53683 0.50168 0.0
C1197 C 0.54569 0.5525 0.51726 0.0
C1198 C 0.49868 0.49423 0.55319 0.0
C1199 C 0.53044 0.54078 0.47291 0.0
H1200 H 0.50062 0.44365 0.46422 0.0
H1201 H 0.43815 0.49714 0.47105 0.0
H1202 H 0.54927 0.48343 0.48595 0.0
H1203 H 0.53824 0.46747 0.5143 0.0
H1204 H 0.54027 0.44998 0.48442 0.0
H1205 H 0.44143 0.53556 0.49426 0.0
H1206 H 0.46188 0.53277 0.52211 0.0
H1207 H 0.47326 0.54923 0.49419 0.0
H1208 H 0.53107 0.52772 0.576 0.0
H1209 H 0.55733 0.56736 0.50844 0.0
H1210 H 0.50425 0.47489 0.54612 0.0
H1211 H 0.47816 0.49708 0.54825 0.0
H1212 H 0.5007 0.49457 0.57445 0.0
H1213 H 0.53655 0.52282 0.46316 0.0
H1214 H 0.54354 0.55657 0.46699 0.0
H1215 H 0.5108 0.54532 0.46603 0.0
loop_
_geom_bond_atom_site_label_1
_geom_bond_atom_site_label_2
_geom_bond_distance
_geom_bond_site_symmetry_2
_ccdc_geom_bond_type
Li0 N17 1.990 . S
Li0 O60 1.956 . S
Li0 O61 1.970 . S
Li0 O62 1.961 . S
Li1 N25 1.990 . S
Li1 O60 1.970 . S
Li1 O61 1.956 . S
Li1 O63 1.961 . S
Li2 N47 1.990 . S
Li2 O60 1.961 . S
Li2 O62 1.956 . S
Li2 O63 1.970 . S
Li3 N53 1.990 . S
Li3 O61 1.961 . S
Li3 O62 1.970 . S
Li3 O63 1.956 . S
C4 C6 1.348 . S
C4 C7 1.356 . S
C4 O60 1.325 . S
N5 C8 1.314 . S
N5 C9 1.279 . S
C6 C4 1.348 . S
C6 C8 1.353 . S
C6 H64 0.929 . S
C7 C4 1.356 . S
C7 C9 1.358 . S
C7 H65 0.930 . S
C8 N5 1.314 . S
C8 C6 1.353 . S
C8 H66 0.930 . S
C9 N5 1.279 . S
C9 C7 1.358 . S
C9 H67 0.930 . S
C10 C13 1.348 . S
C10 C14 1.356 . S
C10 O61 1.325 . S
C11 N12 1.279 . S
C11 C14 1.358 . S
C11 H68 0.930 . S
N12 C11 1.279 . S
N12 C15 1.314 . S
C13 C10 1.348 . S
C13 C15 1.353 . S
C13 H69 0.929 . S
C14 C10 1.356 . S
C14 C11 1.358 . S
C14 H70 0.930 . S
C15 N12 1.314 . S
C15 C13 1.353 . S
C15 H71 0.930 . S
C16 N17 1.314 . S
C16 C21 1.353 . S
C16 H22 0.930 . S
N17 Li0 1.990 . S
N17 C16 1.314 . S
N17 C19 1.279 . S
C18 C19 1.358 . S
C18 C20 1.356 . S
C18 H72 0.930 . S
C19 N17 1.279 . S
C19 C18 1.358 . S
C19 H23 0.930 . S
C20 C18 1.356 . S
C20 C21 1.348 . S
C21 C16 1.353 . S
C21 C20 1.348 . S
C21 H73 0.929 . S
H22 C16 0.930 . S
H23 C19 0.930 . S
C24 N25 1.314 . S
C24 C26 1.353 . S
C24 H30 0.930 . S
N25 Li1 1.990 . S
N25 C24 1.314 . S
N25 C28 1.279 . S
C26 C24 1.353 . S
C26 C29 1.348 . S
C26 H74 0.929 . S
C27 C28 1.358 . S
C27 C29 1.356 . S
C27 H75 0.930 . S
C28 N25 1.279 . S
C28 C27 1.358 . S
C28 H31 0.930 . S
C29 C26 1.348 . S
C29 C27 1.356 . S
H30 C24 0.930 . S
H31 C28 0.930 . S
C32 C34 1.348 . S
C32 C35 1.356 . S
C32 O62 1.325 . S
N33 C36 1.314 . S
N33 C37 1.279 . S
C34 C32 1.348 . S
C34 C36 1.353 . S
C34 H76 0.929 . S
C35 C32 1.356 . S
C35 C37 1.358 . S
C35 H77 0.930 . S
C36 N33 1.314 . S
C36 C34 1.353 . S
C36 H78 0.930 . S
C37 N33 1.279 . S
C37 C35 1.358 . S
C37 H79 0.930 . S
C38 C39 1.348 . S
C38 C40 1.356 . S
C38 O63 1.325 . S
C39 C38 1.348 . S
C39 C41 1.353 . S
C39 H80 0.929 . S
C40 C38 1.356 . S
C40 C42 1.358 . S
C40 H81 0.930 . S
C41 C39 1.353 . S
C41 N43 1.314 . S
C41 H82 0.930 . S
C42 C40 1.358 . S
C42 N43 1.279 . S
C42 H83 0.930 . S
N43 C41 1.314 . S
N43 C42 1.279 . S
C44 C46 1.353 . S
C44 N47 1.314 . S
C44 H50 0.930 . S
C45 N47 1.279 . S
C45 C48 1.358 . S
C45 H51 0.930 . S
C46 C44 1.353 . S
C46 C49 1.348 . S
C46 H84 0.929 . S
N47 Li2 1.990 . S
N47 C44 1.314 . S
N47 C45 1.279 . S
C48 C45 1.358 . S
C48 C49 1.356 . S
C48 H85 0.930 . S
C49 C46 1.348 . S
C49 C48 1.356 . S
H50 C44 0.930 . S
H51 C45 0.930 . S
C52 N53 1.314 . S
C52 C54 1.353 . S
C52 H58 0.930 . S
N53 Li3 1.990 . S
N53 C52 1.314 . S
N53 C56 1.279 . S
C54 C52 1.353 . S
C54 C57 1.348 . S
C54 H86 0.929 . S
C55 C56 1.358 . S
C55 C57 1.356 . S
C55 H87 0.930 . S
C56 N53 1.279 . S
C56 C55 1.358 . S
C56 H59 0.930 . S
C57 C54 1.348 . S
C57 C55 1.356 . S
H58 C52 0.930 . S
H59 C56 0.930 . S
O60 Li0 1.956 . S
O60 Li1 1.970 . S
O60 Li2 1.961 . S
O60 C4 1.325 . S
O61 Li0 1.970 . S
O61 Li1 1.956 . S
O61 Li3 1.961 . S
O61 C10 1.325 . S
O62 Li0 1.961 . S
O62 Li2 1.956 . S
O62 Li3 1.970 . S
O62 C32 1.325 . S
O63 Li1 1.961 . S
O63 Li2 1.970 . S
O63 Li3 1.956 . S
O63 C38 1.325 . S
H64 C6 0.929 . S
H65 C7 0.930 . S
H66 C8 0.930 . S
H67 C9 0.930 . S
H68 C11 0.930 . S
H69 C13 0.929 . S
H70 C14 0.930 . S
H71 C15 0.930 . S
H72 C18 0.930 . S
H73 C21 0.929 . S
H74 C26 0.929 . S
H75 C27 0.930 . S
H76 C34 0.929 . S
H77 C35 0.930 . S
H78 C36 0.930 . S
H79 C37 0.930 . S
H80 C39 0.929 . S
H81 C40 0.930 . S
H82 C41 0.930 . S
H83 C42 0.930 . S
H84 C46 0.929 . S
H85 C48 0.930 . S
H86 C54 0.929 . S
H87 C55 0.930 . S
Li88 N105 1.990 . S
Li88 O148 1.956 . S
Li88 O149 1.970 . S
Li88 O150 1.961 . S
Li89 N113 1.990 . S
Li89 O148 1.970 . S
Li89 O149 1.956 . S
Li89 O151 1.961 . S
Li90 N135 1.990 . S
Li90 O148 1.961 . S
Li90 O150 1.956 . S
Li90 O151 1.970 . S
Li91 N141 1.990 . S
Li91 O149 1.961 . S
Li91 O150 1.970 . S
Li91 O151 1.956 . S
C92 C94 1.348 . S
C92 C95 1.356 . S
C92 O148 1.325 . S
N93 C96 1.314 . S
N93 C97 1.279 . S
C94 C92 1.348 . S
C94 C96 1.353 . S
C94 H152 0.929 . S
C95 C92 1.356 . S
C95 C97 1.358 . S
C95 H153 0.930 . S
C96 N93 1.314 . S
C96 C94 1.353 . S
C96 H154 0.930 . S
C97 N93 1.279 . S
C97 C95 1.358 . S
C97 H155 0.930 . S
C98 C101 1.348 . S
C98 C102 1.356 . S
C98 O149 1.325 . S
C99 N100 1.279 . S
C99 C102 1.358 . S
C99 H156 0.930 . S
N100 C99 1.279 . S
N100 C103 1.314 . S
C101 C98 1.348 . S
C101 C103 1.353 . S
C101 H157 0.929 . S
C102 C98 1.356 . S
C102 C99 1.358 . S
C102 H158 0.930 . S
C103 N100 1.314 . S
C103 C101 1.353 . S
C103 H159 0.930 . S
C104 N105 1.314 . S
C104 C109 1.353 . S
C104 H110 0.930 . S
N105 Li88 1.990 . S
N105 C104 1.314 . S
N105 C107 1.279 . S
C106 C107 1.358 . S
C106 C108 1.356 . S
C106 H160 0.930 . S
C107 N105 1.279 . S
C107 C106 1.358 . S
C107 H111 0.930 . S
C108 C106 1.356 . S
C108 C109 1.348 . S
C109 C104 1.353 . S
C109 C108 1.348 . S
C109 H161 0.929 . S
H110 C104 0.930 . S
H111 C107 0.930 . S
C112 N113 1.314 . S
C112 C114 1.353 . S
C112 H118 0.930 . S
N113 Li89 1.990 . S
N113 C112 1.314 . S
N113 C116 1.279 . S
C114 C112 1.353 . S
C114 C117 1.348 . S
C114 H162 0.929 . S
C115 C116 1.358 . S
C115 C117 1.356 . S
C115 H163 0.930 . S
C116 N113 1.279 . S
C116 C115 1.358 . S
C116 H119 0.930 . S
C117 C114 1.348 . S
C117 C115 1.356 . S
H118 C112 0.930 . S
H119 C116 0.930 . S
C120 C122 1.348 . S
C120 C123 1.356 . S
C120 O150 1.325 . S
N121 C124 1.314 . S
N121 C125 1.279 . S
C122 C120 1.348 . S
C122 C124 1.353 . S
C122 H164 0.929 . S
C123 C120 1.356 . S
C123 C125 1.358 . S
C123 H165 0.930 . S
C124 N121 1.314 . S
C124 C122 1.353 . S
C124 H166 0.930 . S
C125 N121 1.279 . S
C125 C123 1.358 . S
C125 H167 0.930 . S
C126 C127 1.348 . S
C126 C128 1.356 . S
C126 O151 1.325 . S
C127 C126 1.348 . S
C127 C129 1.353 . S
C127 H168 0.929 . S
C128 C126 1.356 . S
C128 C130 1.358 . S
C128 H169 0.930 . S
C129 C127 1.353 . S
C129 N131 1.314 . S
C129 H170 0.930 . S
C130 C128 1.358 . S
C130 N131 1.279 . S
C130 H171 0.930 . S
N131 C129 1.314 . S
N131 C130 1.279 . S
C132 C134 1.353 . S
C132 N135 1.314 . S
C132 H138 0.930 . S
C133 N135 1.279 . S
C133 C136 1.358 . S
C133 H139 0.930 . S
C134 C132 1.353 . S
C134 C137 1.348 . S
C134 H172 0.929 . S
N135 Li90 1.990 . S
N135 C132 1.314 . S
N135 C133 1.279 . S
C136 C133 1.358 . S
C136 C137 1.356 . S
C136 H173 0.930 . S
C137 C134 1.348 . S
C137 C136 1.356 . S
H138 C132 0.930 . S
H139 C133 0.930 . S
C140 N141 1.314 . S
C140 C142 1.353 . S
C140 H146 0.930 . S
N141 Li91 1.990 . S
N141 C140 1.314 . S
N141 C144 1.279 . S
C142 C140 1.353 . S
C142 C145 1.348 . S
C142 H174 0.929 . S
C143 C144 1.358 . S
C143 C145 1.356 . S
C143 H175 0.930 . S
C144 N141 1.279 . S
C144 C143 1.358 . S
C144 H147 0.930 . S
C145 C142 1.348 . S
C145 C143 1.356 . S
H146 C140 0.930 . S
H147 C144 0.930 . S
O148 Li88 1.956 . S
O148 Li89 1.970 . S
O148 Li90 1.961 . S
O148 C92 1.325 . S
O149 Li88 1.970 . S
O149 Li89 1.956 . S
O149 Li91 1.961 . S
O149 C98 1.325 . S
O150 Li88 1.961 . S
O150 Li90 1.956 . S
O150 Li91 1.970 . S
O150 C120 1.325 . S
O151 Li89 1.961 . S
O151 Li90 1.970 . S
O151 Li91 1.956 . S
O151 C126 1.325 . S
H152 C94 0.929 . S
H153 C95 0.930 . S
H154 C96 0.930 . S
H155 C97 0.930 . S
H156 C99 0.930 . S
H157 C101 0.929 . S
H158 C102 0.930 . S
H159 C103 0.930 . S
H160 C106 0.930 . S
H161 C109 0.929 . S
H162 C114 0.929 . S
H163 C115 0.930 . S
H164 C122 0.929 . S
H165 C123 0.930 . S
H166 C124 0.930 . S
H167 C125 0.930 . S
H168 C127 0.929 . S
H169 C128 0.930 . S
H170 C129 0.930 . S
H171 C130 0.930 . S
H172 C134 0.929 . S
H173 C136 0.930 . S
H174 C142 0.929 . S
H175 C143 0.930 . S
Li176 N193 1.990 . S
Li176 O236 1.956 . S
Li176 O237 1.970 . S
Li176 O238 1.961 . S
Li177 N201 1.990 . S
Li177 O236 1.970 . S
Li177 O237 1.956 . S
Li177 O239 1.961 . S
Li178 N223 1.990 . S
Li178 O236 1.961 . S
Li178 O238 1.956 . S
Li178 O239 1.970 . S
Li179 N229 1.990 . S
Li179 O237 1.961 . S
Li179 O238 1.970 . S
Li179 O239 1.956 . S
C180 C182 1.348 . S
C180 C183 1.356 . S
C180 O236 1.325 . S
N181 C184 1.314 . S
N181 C185 1.279 . S
C182 C180 1.348 . S
C182 C184 1.353 . S
C182 H240 0.929 . S
C183 C180 1.356 . S
C183 C185 1.358 . S
C183 H241 0.930 . S
C184 N181 1.314 . S
C184 C182 1.353 . S
C184 H242 0.930 . S
C185 N181 1.279 . S
C185 C183 1.358 . S
C185 H243 0.930 . S
C186 C189 1.348 . S
C186 C190 1.356 . S
C186 O237 1.325 . S
C187 N188 1.279 . S
C187 C190 1.358 . S
C187 H244 0.930 . S
N188 C187 1.279 . S
N188 C191 1.314 . S
C189 C186 1.348 . S
C189 C191 1.353 . S
C189 H245 0.929 . S
C190 C186 1.356 . S
C190 C187 1.358 . S
C190 H246 0.930 . S
C191 N188 1.314 . S
C191 C189 1.353 . S
C191 H247 0.930 . S
C192 N193 1.314 . S
C192 C197 1.353 . S
C192 H198 0.930 . S
N193 Li176 1.990 . S
N193 C192 1.314 . S
N193 C195 1.279 . S
C194 C195 1.358 . S
C194 C196 1.356 . S
C194 H248 0.930 . S
C195 N193 1.279 . S
C195 C194 1.358 . S
C195 H199 0.930 . S
C196 C194 1.356 . S
C196 C197 1.348 . S
C197 C192 1.353 . S
C197 C196 1.348 . S
C197 H249 0.929 . S
H198 C192 0.930 . S
H199 C195 0.930 . S
C200 N201 1.314 . S
C200 C202 1.353 . S
C200 H206 0.930 . S
N201 Li177 1.990 . S
N201 C200 1.314 . S
N201 C204 1.279 . S
C202 C200 1.353 . S
C202 C205 1.348 . S
C202 H250 0.929 . S
C203 C204 1.358 . S
C203 C205 1.356 . S
C203 H251 0.930 . S
C204 N201 1.279 . S
C204 C203 1.358 . S
C204 H207 0.930 . S
C205 C202 1.348 . S
C205 C203 1.356 . S
H206 C200 0.930 . S
H207 C204 0.930 . S
C208 C210 1.348 . S
C208 C211 1.356 . S
C208 O238 1.325 . S
N209 C212 1.314 . S
N209 C213 1.279 . S
C210 C208 1.348 . S
C210 C212 1.353 . S
C210 H252 0.929 . S
C211 C208 1.356 . S
C211 C213 1.358 . S
C211 H253 0.930 . S
C212 N209 1.314 . S
C212 C210 1.353 . S
C212 H254 0.930 . S
C213 N209 1.279 . S
C213 C211 1.358 . S
C213 H255 0.930 . S
C214 C215 1.348 . S
C214 C216 1.356 . S
C214 O239 1.325 . S
C215 C214 1.348 . S
C215 C217 1.353 . S
C215 H256 0.929 . S
C216 C214 1.356 . S
C216 C218 1.358 . S
C216 H257 0.930 . S
C217 C215 1.353 . S
C217 N219 1.314 . S
C217 H258 0.930 . S
C218 C216 1.358 . S
C218 N219 1.279 . S
C218 H259 0.930 . S
N219 C217 1.314 . S
N219 C218 1.279 . S
C220 C222 1.353 . S
C220 N223 1.314 . S
C220 H226 0.930 . S
C221 N223 1.279 . S
C221 C224 1.358 . S
C221 H227 0.930 . S
C222 C220 1.353 . S
C222 C225 1.348 . S
C222 H260 0.929 . S
N223 Li178 1.990 . S
N223 C220 1.314 . S
N223 C221 1.279 . S
C224 C221 1.358 . S
C224 C225 1.356 . S
C224 H261 0.930 . S
C225 C222 1.348 . S
C225 C224 1.356 . S
H226 C220 0.930 . S
H227 C221 0.930 . S
C228 N229 1.314 . S
C228 C230 1.353 . S
C228 H234 0.930 . S
N229 Li179 1.990 . S
N229 C228 1.314 . S
N229 C232 1.279 . S
C230 C228 1.353 . S
C230 C233 1.348 . S
C230 H262 0.929 . S
C231 C232 1.358 . S
C231 C233 1.356 . S
C231 H263 0.930 . S
C232 N229 1.279 . S
C232 C231 1.358 . S
C232 H235 0.930 . S
C233 C230 1.348 . S
C233 C231 1.356 . S
H234 C228 0.930 . S
H235 C232 0.930 . S
O236 Li176 1.956 . S
O236 Li177 1.970 . S
O236 Li178 1.961 . S
O236 C180 1.325 . S
O237 Li176 1.970 . S
O237 Li177 1.956 . S
O237 Li179 1.961 . S
O237 C186 1.325 . S
O238 Li176 1.961 . S
O238 Li178 1.956 . S
O238 Li179 1.970 . S
O238 C208 1.325 . S
O239 Li177 1.961 . S
O239 Li178 1.970 . S
O239 Li179 1.956 . S
O239 C214 1.325 . S
H240 C182 0.929 . S
H241 C183 0.930 . S
H242 C184 0.930 . S
H243 C185 0.930 . S
H244 C187 0.930 . S
H245 C189 0.929 . S
H246 C190 0.930 . S
H247 C191 0.930 . S
H248 C194 0.930 . S
H249 C197 0.929 . S
H250 C202 0.929 . S
H251 C203 0.930 . S
H252 C210 0.929 . S
H253 C211 0.930 . S
H254 C212 0.930 . S
H255 C213 0.930 . S
H256 C215 0.929 . S
H257 C216 0.930 . S
H258 C217 0.930 . S
H259 C218 0.930 . S
H260 C222 0.929 . S
H261 C224 0.930 . S
H262 C230 0.929 . S
H263 C231 0.930 . S
Li264 N281 1.990 . S
Li264 O324 1.956 . S
Li264 O325 1.970 . S
Li264 O326 1.961 . S
Li265 N289 1.990 . S
Li265 O324 1.970 . S
Li265 O325 1.956 . S
Li265 O327 1.961 . S
Li266 N311 1.990 . S
Li266 O324 1.961 . S
Li266 O326 1.956 . S
Li266 O327 1.970 . S
Li267 N317 1.990 . S
Li267 O325 1.961 . S
Li267 O326 1.970 . S
Li267 O327 1.956 . S
C268 C270 1.348 . S
C268 C271 1.356 . S
C268 O324 1.325 . S
N269 C272 1.314 . S
N269 C273 1.279 . S
C270 C268 1.348 . S
C270 C272 1.353 . S
C270 H328 0.929 . S
C271 C268 1.356 . S
C271 C273 1.358 . S
C271 H329 0.930 . S
C272 N269 1.314 . S
C272 C270 1.353 . S
C272 H330 0.930 . S
C273 N269 1.279 . S
C273 C271 1.358 . S
C273 H331 0.930 . S
C274 C277 1.348 . S
C274 C278 1.356 . S
C274 O325 1.325 . S
C275 N276 1.279 . S
C275 C278 1.358 . S
C275 H332 0.930 . S
N276 C275 1.279 . S
N276 C279 1.314 . S
C277 C274 1.348 . S
C277 C279 1.353 . S
C277 H333 0.929 . S
C278 C274 1.356 . S
C278 C275 1.358 . S
C278 H334 0.930 . S
C279 N276 1.314 . S
C279 C277 1.353 . S
C279 H335 0.930 . S
C280 N281 1.314 . S
C280 C285 1.353 . S
C280 H286 0.930 . S
N281 Li264 1.990 . S
N281 C280 1.314 . S
N281 C283 1.279 . S
C282 C283 1.358 . S
C282 C284 1.356 . S
C282 H336 0.930 . S
C283 N281 1.279 . S
C283 C282 1.358 . S
C283 H287 0.930 . S
C284 C282 1.356 . S
C284 C285 1.348 . S
C285 C280 1.353 . S
C285 C284 1.348 . S
C285 H337 0.929 . S
H286 C280 0.930 . S
H287 C283 0.930 . S
C288 N289 1.314 . S
C288 C290 1.353 . S
C288 H294 0.930 . S
N289 Li265 1.990 . S
N289 C288 1.314 . S
N289 C292 1.279 . S
C290 C288 1.353 . S
C290 C293 1.348 . S
C290 H338 0.929 . S
C291 C292 1.358 . S
C291 C293 1.356 . S
C291 H339 0.930 . S
C292 N289 1.279 . S
C292 C291 1.358 . S
C292 H295 0.930 . S
C293 C290 1.348 . S
C293 C291 1.356 . S
H294 C288 0.930 . S
H295 C292 0.930 . S
C296 C298 1.348 . S
C296 C299 1.356 . S
C296 O326 1.325 . S
N297 C300 1.314 . S
N297 C301 1.279 . S
C298 C296 1.348 . S
C298 C300 1.353 . S
C298 H340 0.929 . S
C299 C296 1.356 . S
C299 C301 1.358 . S
C299 H341 0.930 . S
C300 N297 1.314 . S
C300 C298 1.353 . S
C300 H342 0.930 . S
C301 N297 1.279 . S
C301 C299 1.358 . S
C301 H343 0.930 . S
C302 C303 1.348 . S
C302 C304 1.356 . S
C302 O327 1.325 . S
C303 C302 1.348 . S
C303 C305 1.353 . S
C303 H344 0.929 . S
C304 C302 1.356 . S
C304 C306 1.358 . S
C304 H345 0.930 . S
C305 C303 1.353 . S
C305 N307 1.314 . S
C305 H346 0.930 . S
C306 C304 1.358 . S
C306 N307 1.279 . S
C306 H347 0.930 . S
N307 C305 1.314 . S
N307 C306 1.279 . S
C308 C310 1.353 . S
C308 N311 1.314 . S
C308 H314 0.930 . S
C309 N311 1.279 . S
C309 C312 1.358 . S
C309 H315 0.930 . S
C310 C308 1.353 . S
C310 C313 1.348 . S
C310 H348 0.929 . S
N311 Li266 1.990 . S
N311 C308 1.314 . S
N311 C309 1.279 . S
C312 C309 1.358 . S
C312 C313 1.356 . S
C312 H349 0.930 . S
C313 C310 1.348 . S
C313 C312 1.356 . S
H314 C308 0.930 . S
H315 C309 0.930 . S
C316 N317 1.314 . S
C316 C318 1.353 . S
C316 H322 0.930 . S
N317 Li267 1.990 . S
N317 C316 1.314 . S
N317 C320 1.279 . S
C318 C316 1.353 . S
C318 C321 1.348 . S
C318 H350 0.929 . S
C319 C320 1.358 . S
C319 C321 1.356 . S
C319 H351 0.930 . S
C320 N317 1.279 . S
C320 C319 1.358 . S
C320 H323 0.930 . S
C321 C318 1.348 . S
C321 C319 1.356 . S
H322 C316 0.930 . S
H323 C320 0.930 . S
O324 Li264 1.956 . S
O324 Li265 1.970 . S
O324 Li266 1.961 . S
O324 C268 1.325 . S
O325 Li264 1.970 . S
O325 Li265 1.956 . S
O325 Li267 1.961 . S
O325 C274 1.325 . S
O326 Li264 1.961 . S
O326 Li266 1.956 . S
O326 Li267 1.970 . S
O326 C296 1.325 . S
O327 Li265 1.961 . S
O327 Li266 1.970 . S
O327 Li267 1.956 . S
O327 C302 1.325 . S
H328 C270 0.929 . S
H329 C271 0.930 . S
H330 C272 0.930 . S
H331 C273 0.930 . S
H332 C275 0.930 . S
H333 C277 0.929 . S
H334 C278 0.930 . S
H335 C279 0.930 . S
H336 C282 0.930 . S
H337 C285 0.929 . S
H338 C290 0.929 . S
H339 C291 0.930 . S
H340 C298 0.929 . S
H341 C299 0.930 . S
H342 C300 0.930 . S
H343 C301 0.930 . S
H344 C303 0.929 . S
H345 C304 0.930 . S
H346 C305 0.930 . S
H347 C306 0.930 . S
H348 C310 0.929 . S
H349 C312 0.930 . S
H350 C318 0.929 . S
H351 C319 0.930 . S
Li352 N369 1.990 . S
Li352 O412 1.956 . S
Li352 O413 1.970 . S
Li352 O414 1.961 . S
Li353 N377 1.990 . S
Li353 O412 1.970 . S
Li353 O413 1.956 . S
Li353 O415 1.961 . S
Li354 N399 1.990 . S
Li354 O412 1.961 . S
Li354 O414 1.956 . S
Li354 O415 1.970 . S
Li355 N405 1.990 . S
Li355 O413 1.961 . S
Li355 O414 1.970 . S
Li355 O415 1.956 . S
C356 C358 1.348 . S
C356 C359 1.356 . S
C356 O412 1.325 . S
N357 C360 1.314 . S
N357 C361 1.279 . S
C358 C356 1.348 . S
C358 C360 1.353 . S
C358 H416 0.929 . S
C359 C356 1.356 . S
C359 C361 1.358 . S
C359 H417 0.930 . S
C360 N357 1.314 . S
C360 C358 1.353 . S
C360 H418 0.930 . S
C361 N357 1.279 . S
C361 C359 1.358 . S
C361 H419 0.930 . S
C362 C365 1.348 . S
C362 C366 1.356 . S
C362 O413 1.325 . S
C363 N364 1.279 . S
C363 C366 1.358 . S
C363 H420 0.930 . S
N364 C363 1.279 . S
N364 C367 1.314 . S
C365 C362 1.348 . S
C365 C367 1.353 . S
C365 H421 0.929 . S
C366 C362 1.356 . S
C366 C363 1.358 . S
C366 H422 0.930 . S
C367 N364 1.314 . S
C367 C365 1.353 . S
C367 H423 0.930 . S
C368 N369 1.314 . S
C368 C373 1.353 . S
C368 H374 0.930 . S
N369 Li352 1.990 . S
N369 C368 1.314 . S
N369 C371 1.279 . S
C370 C371 1.358 . S
C370 C372 1.356 . S
C370 H424 0.930 . S
C371 N369 1.279 . S
C371 C370 1.358 . S
C371 H375 0.930 . S
C372 C370 1.356 . S
C372 C373 1.348 . S
C373 C368 1.353 . S
C373 C372 1.348 . S
C373 H425 0.929 . S
H374 C368 0.930 . S
H375 C371 0.930 . S
C376 N377 1.314 . S
C376 C378 1.353 . S
C376 H382 0.930 . S
N377 Li353 1.990 . S
N377 C376 1.314 . S
N377 C380 1.279 . S
C378 C376 1.353 . S
C378 C381 1.348 . S
C378 H426 0.929 . S
C379 C380 1.358 . S
C379 C381 1.356 . S
C379 H427 0.930 . S
C380 N377 1.279 . S
C380 C379 1.358 . S
C380 H383 0.930 . S
C381 C378 1.348 . S
C381 C379 1.356 . S
H382 C376 0.930 . S
H383 C380 0.930 . S
C384 C386 1.348 . S
C384 C387 1.356 . S
C384 O414 1.325 . S
N385 C388 1.314 . S
N385 C389 1.279 . S
C386 C384 1.348 . S
C386 C388 1.353 . S
C386 H428 0.929 . S
C387 C384 1.356 . S
C387 C389 1.358 . S
C387 H429 0.930 . S
C388 N385 1.314 . S
C388 C386 1.353 . S
C388 H430 0.930 . S
C389 N385 1.279 . S
C389 C387 1.358 . S
C389 H431 0.930 . S
C390 C391 1.348 . S
C390 C392 1.356 . S
C390 O415 1.325 . S
C391 C390 1.348 . S
C391 C393 1.353 . S
C391 H432 0.929 . S
C392 C390 1.356 . S
C392 C394 1.358 . S
C392 H433 0.930 . S
C393 C391 1.353 . S
C393 N395 1.314 . S
C393 H434 0.930 . S
C394 C392 1.358 . S
C394 N395 1.279 . S
C394 H435 0.930 . S
N395 C393 1.314 . S
N395 C394 1.279 . S
C396 C398 1.353 . S
C396 N399 1.314 . S
C396 H402 0.930 . S
C397 N399 1.279 . S
C397 C400 1.358 . S
C397 H403 0.930 . S
C398 C396 1.353 . S
C398 C401 1.348 . S
C398 H436 0.929 . S
N399 Li354 1.990 . S
N399 C396 1.314 . S
N399 C397 1.279 . S
C400 C397 1.358 . S
C400 C401 1.356 . S
C400 H437 0.930 . S
C401 C398 1.348 . S
C401 C400 1.356 . S
H402 C396 0.930 . S
H403 C397 0.930 . S
C404 N405 1.314 . S
C404 C406 1.353 . S
C404 H410 0.930 . S
N405 Li355 1.990 . S
N405 C404 1.314 . S
N405 C408 1.279 . S
C406 C404 1.353 . S
C406 C409 1.348 . S
C406 H438 0.929 . S
C407 C408 1.358 . S
C407 C409 1.356 . S
C407 H439 0.930 . S
C408 N405 1.279 . S
C408 C407 1.358 . S
C408 H411 0.930 . S
C409 C406 1.348 . S
C409 C407 1.356 . S
H410 C404 0.930 . S
H411 C408 0.930 . S
O412 Li352 1.956 . S
O412 Li353 1.970 . S
O412 Li354 1.961 . S
O412 C356 1.325 . S
O413 Li352 1.970 . S
O413 Li353 1.956 . S
O413 Li355 1.961 . S
O413 C362 1.325 . S
O414 Li352 1.961 . S
O414 Li354 1.956 . S
O414 Li355 1.970 . S
O414 C384 1.325 . S
O415 Li353 1.961 . S
O415 Li354 1.970 . S
O415 Li355 1.956 . S
O415 C390 1.325 . S
H416 C358 0.929 . S
H417 C359 0.930 . S
H418 C360 0.930 . S
H419 C361 0.930 . S
H420 C363 0.930 . S
H421 C365 0.929 . S
H422 C366 0.930 . S
H423 C367 0.930 . S
H424 C370 0.930 . S
H425 C373 0.929 . S
H426 C378 0.929 . S
H427 C379 0.930 . S
H428 C386 0.929 . S
H429 C387 0.930 . S
H430 C388 0.930 . S
H431 C389 0.930 . S
H432 C391 0.929 . S
H433 C392 0.930 . S
H434 C393 0.930 . S
H435 C394 0.930 . S
H436 C398 0.929 . S
H437 C400 0.930 . S
H438 C406 0.929 . S
H439 C407 0.930 . S
Li440 N457 1.990 . S
Li440 O500 1.956 . S
Li440 O501 1.970 . S
Li440 O502 1.961 . S
Li441 N465 1.990 . S
Li441 O500 1.970 . S
Li441 O501 1.956 . S
Li441 O503 1.961 . S
Li442 N487 1.990 . S
Li442 O500 1.961 . S
Li442 O502 1.956 . S
Li442 O503 1.970 . S
Li443 N493 1.990 . S
Li443 O501 1.961 . S
Li443 O502 1.970 . S
Li443 O503 1.956 . S
C444 C446 1.348 . S
C444 C447 1.356 . S
C444 O500 1.325 . S
N445 C448 1.314 . S
N445 C449 1.279 . S
C446 C444 1.348 . S
C446 C448 1.353 . S
C446 H504 0.929 . S
C447 C444 1.356 . S
C447 C449 1.358 . S
C447 H505 0.930 . S
C448 N445 1.314 . S
C448 C446 1.353 . S
C448 H506 0.930 . S
C449 N445 1.279 . S
C449 C447 1.358 . S
C449 H507 0.930 . S
C450 C453 1.348 . S
C450 C454 1.356 . S
C450 O501 1.325 . S
C451 N452 1.279 . S
C451 C454 1.358 . S
C451 H508 0.930 . S
N452 C451 1.279 . S
N452 C455 1.314 . S
C453 C450 1.348 . S
C453 C455 1.353 . S
C453 H509 0.929 . S
C454 C450 1.356 . S
C454 C451 1.358 . S
C454 H510 0.930 . S
C455 N452 1.314 . S
C455 C453 1.353 . S
C455 H511 0.930 . S
C456 N457 1.314 . S
C456 C461 1.353 . S
C456 H462 0.930 . S
N457 Li440 1.990 . S
N457 C456 1.314 . S
N457 C459 1.279 . S
C458 C459 1.358 . S
C458 C460 1.356 . S
C458 H512 0.930 . S
C459 N457 1.279 . S
C459 C458 1.358 . S
C459 H463 0.930 . S
C460 C458 1.356 . S
C460 C461 1.348 . S
C461 C456 1.353 . S
C461 C460 1.348 . S
C461 H513 0.929 . S
H462 C456 0.930 . S
H463 C459 0.930 . S
C464 N465 1.314 . S
C464 C466 1.353 . S
C464 H470 0.930 . S
N465 Li441 1.990 . S
N465 C464 1.314 . S
N465 C468 1.279 . S
C466 C464 1.353 . S
C466 C469 1.348 . S
C466 H514 0.929 . S
C467 C468 1.358 . S
C467 C469 1.356 . S
C467 H515 0.930 . S
C468 N465 1.279 . S
C468 C467 1.358 . S
C468 H471 0.930 . S
C469 C466 1.348 . S
C469 C467 1.356 . S
H470 C464 0.930 . S
H471 C468 0.930 . S
C472 C474 1.348 . S
C472 C475 1.356 . S
C472 O502 1.325 . S
N473 C476 1.314 . S
N473 C477 1.279 . S
C474 C472 1.348 . S
C474 C476 1.353 . S
C474 H516 0.929 . S
C475 C472 1.356 . S
C475 C477 1.358 . S
C475 H517 0.930 . S
C476 N473 1.314 . S
C476 C474 1.353 . S
C476 H518 0.930 . S
C477 N473 1.279 . S
C477 C475 1.358 . S
C477 H519 0.930 . S
C478 C479 1.348 . S
C478 C480 1.356 . S
C478 O503 1.325 . S
C479 C478 1.348 . S
C479 C481 1.353 . S
C479 H520 0.929 . S
C480 C478 1.356 . S
C480 C482 1.358 . S
C480 H521 0.930 . S
C481 C479 1.353 . S
C481 N483 1.314 . S
C481 H522 0.930 . S
C482 C480 1.358 . S
C482 N483 1.279 . S
C482 H523 0.930 . S
N483 C481 1.314 . S
N483 C482 1.279 . S
C484 C486 1.353 . S
C484 N487 1.314 . S
C484 H490 0.930 . S
C485 N487 1.279 . S
C485 C488 1.358 . S
C485 H491 0.930 . S
C486 C484 1.353 . S
C486 C489 1.348 . S
C486 H524 0.929 . S
N487 Li442 1.990 . S
N487 C484 1.314 . S
N487 C485 1.279 . S
C488 C485 1.358 . S
C488 C489 1.356 . S
C488 H525 0.930 . S
C489 C486 1.348 . S
C489 C488 1.356 . S
H490 C484 0.930 . S
H491 C485 0.930 . S
C492 N493 1.314 . S
C492 C494 1.353 . S
C492 H498 0.930 . S
N493 Li443 1.990 . S
N493 C492 1.314 . S
N493 C496 1.279 . S
C494 C492 1.353 . S
C494 C497 1.348 . S
C494 H526 0.929 . S
C495 C496 1.358 . S
C495 C497 1.356 . S
C495 H527 0.930 . S
C496 N493 1.279 . S
C496 C495 1.358 . S
C496 H499 0.930 . S
C497 C494 1.348 . S
C497 C495 1.356 . S
H498 C492 0.930 . S
H499 C496 0.930 . S
O500 Li440 1.956 . S
O500 Li441 1.970 . S
O500 Li442 1.961 . S
O500 C444 1.325 . S
O501 Li440 1.970 . S
O501 Li441 1.956 . S
O501 Li443 1.961 . S
O501 C450 1.325 . S
O502 Li440 1.961 . S
O502 Li442 1.956 . S
O502 Li443 1.970 . S
O502 C472 1.325 . S
O503 Li441 1.961 . S
O503 Li442 1.970 . S
O503 Li443 1.956 . S
O503 C478 1.325 . S
H504 C446 0.929 . S
H505 C447 0.930 . S
H506 C448 0.930 . S
H507 C449 0.930 . S
H508 C451 0.930 . S
H509 C453 0.929 . S
H510 C454 0.930 . S
H511 C455 0.930 . S
H512 C458 0.930 . S
H513 C461 0.929 . S
H514 C466 0.929 . S
H515 C467 0.930 . S
H516 C474 0.929 . S
H517 C475 0.930 . S
H518 C476 0.930 . S
H519 C477 0.930 . S
H520 C479 0.929 . S
H521 C480 0.930 . S
H522 C481 0.930 . S
H523 C482 0.930 . S
H524 C486 0.929 . S
H525 C488 0.930 . S
H526 C494 0.929 . S
H527 C495 0.930 . S
Li528 N545 1.990 . S
Li528 O588 1.956 . S
Li528 O589 1.970 . S
Li528 O590 1.961 . S
Li529 N553 1.990 . S
Li529 O588 1.970 . S
Li529 O589 1.956 . S
Li529 O591 1.961 . S
Li530 N575 1.990 . S
Li530 O588 1.961 . S
Li530 O590 1.956 . S
Li530 O591 1.970 . S
Li531 N581 1.990 . S
Li531 O589 1.961 . S
Li531 O590 1.970 . S
Li531 O591 1.956 . S
C532 C534 1.348 . S
C532 C535 1.356 . S
C532 O588 1.325 . S
N533 C536 1.314 . S
N533 C537 1.279 . S
C534 C532 1.348 . S
C534 C536 1.353 . S
C534 H592 0.929 . S
C535 C532 1.356 . S
C535 C537 1.358 . S
C535 H593 0.930 . S
C536 N533 1.314 . S
C536 C534 1.353 . S
C536 H594 0.930 . S
C537 N533 1.279 . S
C537 C535 1.358 . S
C537 H595 0.930 . S
C538 C541 1.348 . S
C538 C542 1.356 . S
C538 O589 1.325 . S
C539 N540 1.279 . S
C539 C542 1.358 . S
C539 H596 0.930 . S
N540 C539 1.279 . S
N540 C543 1.314 . S
C541 C538 1.348 . S
C541 C543 1.353 . S
C541 H597 0.929 . S
C542 C538 1.356 . S
C542 C539 1.358 . S
C542 H598 0.930 . S
C543 N540 1.314 . S
C543 C541 1.353 . S
C543 H599 0.930 . S
C544 N545 1.314 . S
C544 C549 1.353 . S
C544 H550 0.930 . S
N545 Li528 1.990 . S
N545 C544 1.314 . S
N545 C547 1.279 . S
C546 C547 1.358 . S
C546 C548 1.356 . S
C546 H600 0.930 . S
C547 N545 1.279 . S
C547 C546 1.358 . S
C547 H551 0.930 . S
C548 C546 1.356 . S
C548 C549 1.348 . S
C549 C544 1.353 . S
C549 C548 1.348 . S
C549 H601 0.929 . S
H550 C544 0.930 . S
H551 C547 0.930 . S
C552 N553 1.314 . S
C552 C554 1.353 . S
C552 H558 0.930 . S
N553 Li529 1.990 . S
N553 C552 1.314 . S
N553 C556 1.279 . S
C554 C552 1.353 . S
C554 C557 1.348 . S
C554 H602 0.929 . S
C555 C556 1.358 . S
C555 C557 1.356 . S
C555 H603 0.930 . S
C556 N553 1.279 . S
C556 C555 1.358 . S
C556 H559 0.930 . S
C557 C554 1.348 . S
C557 C555 1.356 . S
H558 C552 0.930 . S
H559 C556 0.930 . S
C560 C562 1.348 . S
C560 C563 1.356 . S
C560 O590 1.325 . S
N561 C564 1.314 . S
N561 C565 1.279 . S
C562 C560 1.348 . S
C562 C564 1.353 . S
C562 H604 0.929 . S
C563 C560 1.356 . S
C563 C565 1.358 . S
C563 H605 0.930 . S
C564 N561 1.314 . S
C564 C562 1.353 . S
C564 H606 0.930 . S
C565 N561 1.279 . S
C565 C563 1.358 . S
C565 H607 0.930 . S
C566 C567 1.348 . S
C566 C568 1.356 . S
C566 O591 1.325 . S
C567 C566 1.348 . S
C567 C569 1.353 . S
C567 H608 0.929 . S
C568 C566 1.356 . S
C568 C570 1.358 . S
C568 H609 0.930 . S
C569 C567 1.353 . S
C569 N571 1.314 . S
C569 H610 0.930 . S
C570 C568 1.358 . S
C570 N571 1.279 . S
C570 H611 0.930 . S
N571 C569 1.314 . S
N571 C570 1.279 . S
C572 C574 1.353 . S
C572 N575 1.314 . S
C572 H578 0.930 . S
C573 N575 1.279 . S
C573 C576 1.358 . S
C573 H579 0.930 . S
C574 C572 1.353 . S
C574 C577 1.348 . S
C574 H612 0.929 . S
N575 Li530 1.990 . S
N575 C572 1.314 . S
N575 C573 1.279 . S
C576 C573 1.358 . S
C576 C577 1.356 . S
C576 H613 0.930 . S
C577 C574 1.348 . S
C577 C576 1.356 . S
H578 C572 0.930 . S
H579 C573 0.930 . S
C580 N581 1.314 . S
C580 C582 1.353 . S
C580 H586 0.930 . S
N581 Li531 1.990 . S
N581 C580 1.314 . S
N581 C584 1.279 . S
C582 C580 1.353 . S
C582 C585 1.348 . S
C582 H614 0.929 . S
C583 C584 1.358 . S
C583 C585 1.356 . S
C583 H615 0.930 . S
C584 N581 1.279 . S
C584 C583 1.358 . S
C584 H587 0.930 . S
C585 C582 1.348 . S
C585 C583 1.356 . S
H586 C580 0.930 . S
H587 C584 0.930 . S
O588 Li528 1.956 . S
O588 Li529 1.970 . S
O588 Li530 1.961 . S
O588 C532 1.325 . S
O589 Li528 1.970 . S
O589 Li529 1.956 . S
O589 Li531 1.961 . S
O589 C538 1.325 . S
O590 Li528 1.961 . S
O590 Li530 1.956 . S
O590 Li531 1.970 . S
O590 C560 1.325 . S
O591 Li529 1.961 . S
O591 Li530 1.970 . S
O591 Li531 1.956 . S
O591 C566 1.325 . S
H592 C534 0.929 . S
H593 C535 0.930 . S
H594 C536 0.930 . S
H595 C537 0.930 . S
H596 C539 0.930 . S
H597 C541 0.929 . S
H598 C542 0.930 . S
H599 C543 0.930 . S
H600 C546 0.930 . S
H601 C549 0.929 . S
H602 C554 0.929 . S
H603 C555 0.930 . S
H604 C562 0.929 . S
H605 C563 0.930 . S
H606 C564 0.930 . S
H607 C565 0.930 . S
H608 C567 0.929 . S
H609 C568 0.930 . S
H610 C569 0.930 . S
H611 C570 0.930 . S
H612 C574 0.929 . S
H613 C576 0.930 . S
H614 C582 0.929 . S
H615 C583 0.930 . S
Li616 N633 1.990 . S
Li616 O676 1.956 . S
Li616 O677 1.970 . S
Li616 O678 1.961 . S
Li617 N641 1.990 . S
Li617 O676 1.970 . S
Li617 O677 1.956 . S
Li617 O679 1.961 . S
Li618 N663 1.990 . S
Li618 O676 1.961 . S
Li618 O678 1.956 . S
Li618 O679 1.970 . S
Li619 N669 1.990 . S
Li619 O677 1.961 . S
Li619 O678 1.970 . S
Li619 O679 1.956 . S
C620 C622 1.348 . S
C620 C623 1.356 . S
C620 O676 1.325 . S
N621 C624 1.314 . S
N621 C625 1.279 . S
C622 C620 1.348 . S
C622 C624 1.353 . S
C622 H680 0.929 . S
C623 C620 1.356 . S
C623 C625 1.358 . S
C623 H681 0.930 . S
C624 N621 1.314 . S
C624 C622 1.353 . S
C624 H682 0.930 . S
C625 N621 1.279 . S
C625 C623 1.358 . S
C625 H683 0.930 . S
C626 C629 1.348 . S
C626 C630 1.356 . S
C626 O677 1.325 . S
C627 N628 1.279 . S
C627 C630 1.358 . S
C627 H684 0.930 . S
N628 C627 1.279 . S
N628 C631 1.314 . S
C629 C626 1.348 . S
C629 C631 1.353 . S
C629 H685 0.929 . S
C630 C626 1.356 . S
C630 C627 1.358 . S
C630 H686 0.930 . S
C631 N628 1.314 . S
C631 C629 1.353 . S
C631 H687 0.930 . S
C632 N633 1.314 . S
C632 C637 1.353 . S
C632 H638 0.930 . S
N633 Li616 1.990 . S
N633 C632 1.314 . S
N633 C635 1.279 . S
C634 C635 1.358 . S
C634 C636 1.356 . S
C634 H688 0.930 . S
C635 N633 1.279 . S
C635 C634 1.358 . S
C635 H639 0.930 . S
C636 C634 1.356 . S
C636 C637 1.348 . S
C637 C632 1.353 . S
C637 C636 1.348 . S
C637 H689 0.929 . S
H638 C632 0.930 . S
H639 C635 0.930 . S
C640 N641 1.314 . S
C640 C642 1.353 . S
C640 H646 0.930 . S
N641 Li617 1.990 . S
N641 C640 1.314 . S
N641 C644 1.279 . S
C642 C640 1.353 . S
C642 C645 1.348 . S
C642 H690 0.929 . S
C643 C644 1.358 . S
C643 C645 1.356 . S
C643 H691 0.930 . S
C644 N641 1.279 . S
C644 C643 1.358 . S
C644 H647 0.930 . S
C645 C642 1.348 . S
C645 C643 1.356 . S
H646 C640 0.930 . S
H647 C644 0.930 . S
C648 C650 1.348 . S
C648 C651 1.356 . S
C648 O678 1.325 . S
N649 C652 1.314 . S
N649 C653 1.279 . S
C650 C648 1.348 . S
C650 C652 1.353 . S
C650 H692 0.929 . S
C651 C648 1.356 . S
C651 C653 1.358 . S
C651 H693 0.930 . S
C652 N649 1.314 . S
C652 C650 1.353 . S
C652 H694 0.930 . S
C653 N649 1.279 . S
C653 C651 1.358 . S
C653 H695 0.930 . S
C654 C655 1.348 . S
C654 C656 1.356 . S
C654 O679 1.325 . S
C655 C654 1.348 . S
C655 C657 1.353 . S
C655 H696 0.929 . S
C656 C654 1.356 . S
C656 C658 1.358 . S
C656 H697 0.930 . S
C657 C655 1.353 . S
C657 N659 1.314 . S
C657 H698 0.930 . S
C658 C656 1.358 . S
C658 N659 1.279 . S
C658 H699 0.930 . S
N659 C657 1.314 . S
N659 C658 1.279 . S
C660 C662 1.353 . S
C660 N663 1.314 . S
C660 H666 0.930 . S
C661 N663 1.279 . S
C661 C664 1.358 . S
C661 H667 0.930 . S
C662 C660 1.353 . S
C662 C665 1.348 . S
C662 H700 0.929 . S
N663 Li618 1.990 . S
N663 C660 1.314 . S
N663 C661 1.279 . S
C664 C661 1.358 . S
C664 C665 1.356 . S
C664 H701 0.930 . S
C665 C662 1.348 . S
C665 C664 1.356 . S
H666 C660 0.930 . S
H667 C661 0.930 . S
C668 N669 1.314 . S
C668 C670 1.353 . S
C668 H674 0.930 . S
N669 Li619 1.990 . S
N669 C668 1.314 . S
N669 C672 1.279 . S
C670 C668 1.353 . S
C670 C673 1.348 . S
C670 H702 0.929 . S
C671 C672 1.358 . S
C671 C673 1.356 . S
C671 H703 0.930 . S
C672 N669 1.279 . S
C672 C671 1.358 . S
C672 H675 0.930 . S
C673 C670 1.348 . S
C673 C671 1.356 . S
H674 C668 0.930 . S
H675 C672 0.930 . S
O676 Li616 1.956 . S
O676 Li617 1.970 . S
O676 Li618 1.961 . S
O676 C620 1.325 . S
O677 Li616 1.970 . S
O677 Li617 1.956 . S
O677 Li619 1.961 . S
O677 C626 1.325 . S
O678 Li616 1.961 . S
O678 Li618 1.956 . S
O678 Li619 1.970 . S
O678 C648 1.325 . S
O679 Li617 1.961 . S
O679 Li618 1.970 . S
O679 Li619 1.956 . S
O679 C654 1.325 . S
H680 C622 0.929 . S
H681 C623 0.930 . S
H682 C624 0.930 . S
H683 C625 0.930 . S
H684 C627 0.930 . S
H685 C629 0.929 . S
H686 C630 0.930 . S
H687 C631 0.930 . S
H688 C634 0.930 . S
H689 C637 0.929 . S
H690 C642 0.929 . S
H691 C643 0.930 . S
H692 C650 0.929 . S
H693 C651 0.930 . S
H694 C652 0.930 . S
H695 C653 0.930 . S
H696 C655 0.929 . S
H697 C656 0.930 . S
H698 C657 0.930 . S
H699 C658 0.930 . S
H700 C662 0.929 . S
H701 C664 0.930 . S
H702 C670 0.929 . S
H703 C671 0.930 . S
C704 C705 1.391 . S
C704 C706 1.394 . S
C704 H720 0.931 . S
C705 C704 1.391 . S
C705 C709 1.376 . S
C706 C704 1.394 . S
C706 C707 1.369 . S
C706 C710 1.531 . S
C707 C706 1.369 . S
C707 C708 1.410 . S
C707 C715 1.503 . S
C708 C707 1.410 . S
C708 C709 1.392 . S
C708 C711 1.511 . S
C709 C705 1.376 . S
C709 C708 1.392 . S
C709 H721 0.929 . S
C710 C706 1.531 . S
C710 H722 0.960 . S
C710 H723 0.962 . S
C710 H724 0.960 . S
C711 C708 1.511 . S
C711 H725 0.961 . S
C711 H726 0.961 . S
C711 H727 0.961 . S
C712 C713 1.370 . S
C712 C714 1.363 . S
C712 H728 0.931 . S
C713 C712 1.370 . S
C713 C717 1.408 . S
C714 C712 1.363 . S
C714 C715 1.370 . S
C714 C718 1.524 . S
C715 C707 1.503 . S
C715 C714 1.370 . S
C715 C716 1.403 . S
C716 C715 1.403 . S
C716 C717 1.404 . S
C716 C719 1.539 . S
C717 C713 1.408 . S
C717 C716 1.404 . S
C717 H729 0.930 . S
C718 C714 1.524 . S
C718 H730 0.956 . S
C718 H731 0.961 . S
C718 H732 0.961 . S
C719 C716 1.539 . S
C719 H733 0.958 . S
C719 H734 0.961 . S
C719 H735 0.960 . S
H720 C704 0.931 . S
H721 C709 0.929 . S
H722 C710 0.960 . S
H723 C710 0.962 . S
H724 C710 0.960 . S
H725 C711 0.961 . S
H726 C711 0.961 . S
H727 C711 0.961 . S
H728 C712 0.931 . S
H729 C717 0.930 . S
H730 C718 0.956 . S
H731 C718 0.961 . S
H732 C718 0.961 . S
H733 C719 0.958 . S
H734 C719 0.961 . S
H735 C719 0.960 . S
C736 C737 1.391 . S
C736 C738 1.394 . S
C736 H752 0.931 . S
C737 C736 1.391 . S
C737 C741 1.376 . S
C738 C736 1.394 . S
C738 C739 1.369 . S
C738 C742 1.531 . S
C739 C738 1.369 . S
C739 C740 1.410 . S
C739 C747 1.503 . S
C740 C739 1.410 . S
C740 C741 1.392 . S
C740 C743 1.511 . S
C741 C737 1.376 . S
C741 C740 1.392 . S
C741 H753 0.929 . S
C742 C738 1.531 . S
C742 H754 0.960 . S
C742 H755 0.962 . S
C742 H756 0.960 . S
C743 C740 1.511 . S
C743 H757 0.961 . S
C743 H758 0.961 . S
C743 H759 0.961 . S
C744 C745 1.370 . S
C744 C746 1.363 . S
C744 H760 0.931 . S
C745 C744 1.370 . S
C745 C749 1.408 . S
C746 C744 1.363 . S
C746 C747 1.370 . S
C746 C750 1.524 . S
C747 C739 1.503 . S
C747 C746 1.370 . S
C747 C748 1.403 . S
C748 C747 1.403 . S
C748 C749 1.404 . S
C748 C751 1.539 . S
C749 C745 1.408 . S
C749 C748 1.404 . S
C749 H761 0.930 . S
C750 C746 1.524 . S
C750 H762 0.956 . S
C750 H763 0.961 . S
C750 H764 0.961 . S
C751 C748 1.539 . S
C751 H765 0.958 . S
C751 H766 0.961 . S
C751 H767 0.960 . S
H752 C736 0.931 . S
H753 C741 0.929 . S
H754 C742 0.960 . S
H755 C742 0.962 . S
H756 C742 0.960 . S
H757 C743 0.961 . S
H758 C743 0.961 . S
H759 C743 0.961 . S
H760 C744 0.931 . S
H761 C749 0.930 . S
H762 C750 0.956 . S
H763 C750 0.961 . S
H764 C750 0.961 . S
H765 C751 0.958 . S
H766 C751 0.961 . S
H767 C751 0.960 . S
C768 C769 1.391 . S
C768 C770 1.394 . S
C768 H784 0.931 . S
C769 C768 1.391 . S
C769 C773 1.376 . S
C770 C768 1.394 . S
C770 C771 1.369 . S
C770 C774 1.531 1_544 S
C771 C770 1.369 . S
C771 C772 1.410 . S
C771 C779 1.503 1_544 S
C772 C771 1.410 . S
C772 C773 1.392 . S
C772 C775 1.511 . S
C773 C769 1.376 . S
C773 C772 1.392 . S
C773 H785 0.929 . S
C774 C770 1.531 1_566 S
C774 H786 0.960 . S
C774 H787 0.962 1_565 S
C774 H788 0.960 . S
C775 C772 1.511 . S
C775 H789 0.961 . S
C775 H790 0.961 . S
C775 H791 0.957 . S
C776 C777 1.370 . S
C776 C778 1.361 1_565 S
C776 H792 0.931 . S
C777 C776 1.370 . S
C777 C781 1.408 . S
C778 C776 1.361 1_545 S
C778 C779 1.369 1_545 S
C778 C782 1.527 . S
C779 C771 1.503 1_566 S
C779 C778 1.369 1_565 S
C779 C780 1.403 . S
C780 C779 1.403 . S
C780 C781 1.404 . S
C780 C783 1.539 1_556 S
C781 C777 1.408 . S
C781 C780 1.404 . S
C781 H793 0.930 . S
C782 C778 1.527 . S
C782 H794 0.956 . S
C782 H795 0.961 . S
C782 H796 0.961 . S
C783 C780 1.539 1_554 S
C783 H797 0.958 . S
C783 H798 0.961 . S
C783 H799 0.960 . S
H784 C768 0.931 . S
H785 C773 0.929 . S
H786 C774 0.960 . S
H787 C774 0.962 1_545 S
H788 C774 0.960 . S
H789 C775 0.961 . S
H790 C775 0.961 . S
H791 C775 0.957 . S
H792 C776 0.931 . S
H793 C781 0.930 . S
H794 C782 0.956 . S
H795 C782 0.961 . S
H796 C782 0.961 . S
H797 C783 0.958 . S
H798 C783 0.961 . S
H799 C783 0.960 . S
C800 C801 1.391 . S
C800 C802 1.394 . S
C800 H816 0.931 . S
C801 C800 1.391 . S
C801 C805 1.376 . S
C802 C800 1.394 . S
C802 C803 1.369 . S
C802 C806 1.531 . S
C803 C802 1.369 . S
C803 C804 1.410 1_655 S
C803 C811 1.503 1_655 S
C804 C803 1.410 1_455 S
C804 C805 1.392 1_455 S
C804 C807 1.511 . S
C805 C801 1.376 . S
C805 C804 1.392 1_655 S
C805 H817 0.929 . S
C806 C802 1.531 . S
C806 H818 0.960 . S
C806 H819 0.962 . S
C806 H820 0.960 . S
C807 C804 1.511 . S
C807 H821 0.961 . S
C807 H822 0.961 . S
C807 H823 0.961 . S
C808 C809 1.370 . S
C808 C810 1.363 . S
C808 H824 0.931 . S
C809 C808 1.370 . S
C809 C813 1.408 . S
C810 C808 1.363 . S
C810 C811 1.370 . S
C810 C814 1.524 1_455 S
C811 C803 1.503 1_455 S
C811 C810 1.370 . S
C811 C812 1.403 . S
C812 C811 1.403 . S
C812 C813 1.404 . S
C812 C815 1.539 . S
C813 C809 1.408 . S
C813 C812 1.404 . S
C813 H825 0.930 . S
C814 C810 1.524 1_655 S
C814 H826 0.956 . S
C814 H827 0.961 . S
C814 H828 0.961 . S
C815 C812 1.539 . S
C815 H829 0.958 . S
C815 H830 0.961 . S
C815 H831 0.960 . S
H816 C800 0.931 . S
H817 C805 0.929 . S
H818 C806 0.960 . S
H819 C806 0.962 . S
H820 C806 0.960 . S
H821 C807 0.961 . S
H822 C807 0.961 . S
H823 C807 0.961 . S
H824 C808 0.931 . S
H825 C813 0.930 . S
H826 C814 0.956 . S
H827 C814 0.961 . S
H828 C814 0.961 . S
H829 C815 0.958 . S
H830 C815 0.961 . S
H831 C815 0.960 . S
C832 C833 1.391 . S
C832 C834 1.394 . S
C832 H848 0.931 . S
C833 C832 1.391 . S
C833 C837 1.376 . S
C834 C832 1.394 . S
C834 C835 1.369 . S
C834 C838 1.531 . S
C835 C834 1.369 . S
C835 C836 1.410 1_565 S
C835 C843 1.503 1_565 S
C836 C835 1.410 1_545 S
C836 C837 1.392 1_545 S
C836 C839 1.511 . S
C837 C833 1.376 . S
C837 C836 1.392 1_565 S
C837 H849 0.929 . S
C838 C834 1.531 . S
C838 H850 0.960 . S
C838 H851 0.962 . S
C838 H852 0.960 . S
C839 C836 1.511 . S
C839 H853 0.961 . S
C839 H854 0.961 . S
C839 H855 0.961 . S
C840 C841 1.370 . S
C840 C842 1.363 . S
C840 H856 0.931 . S
C841 C840 1.370 . S
C841 C845 1.408 . S
C842 C840 1.363 . S
C842 C843 1.370 . S
C842 C846 1.524 1_545 S
C843 C835 1.503 1_545 S
C843 C842 1.370 . S
C843 C844 1.403 . S
C844 C843 1.403 . S
C844 C845 1.404 . S
C844 C847 1.539 . S
C845 C841 1.408 . S
C845 C844 1.404 . S
C845 H857 0.930 . S
C846 C842 1.524 1_565 S
C846 H858 0.956 . S
C846 H859 0.961 . S
C846 H860 0.961 . S
C847 C844 1.539 . S
C847 H861 0.958 . S
C847 H862 0.961 . S
C847 H863 0.960 . S
H848 C832 0.931 . S
H849 C837 0.929 . S
H850 C838 0.960 . S
H851 C838 0.962 . S
H852 C838 0.960 . S
H853 C839 0.961 . S
H854 C839 0.961 . S
H855 C839 0.961 . S
H856 C840 0.931 . S
H857 C845 0.930 . S
H858 C846 0.956 . S
H859 C846 0.961 . S
H860 C846 0.961 . S
H861 C847 0.958 . S
H862 C847 0.961 . S
H863 C847 0.960 . S
C864 C865 1.391 . S
C864 C866 1.394 1_655 S
C864 H880 0.931 . S
C865 C864 1.391 . S
C865 C869 1.376 . S
C866 C864 1.394 1_455 S
C866 C867 1.369 1_455 S
C866 C870 1.531 . S
C867 C866 1.369 1_655 S
C867 C868 1.410 . S
C867 C875 1.503 1_656 S
C868 C867 1.410 . S
C868 C869 1.392 . S
C868 C871 1.511 1_556 S
C869 C865 1.376 . S
C869 C868 1.392 . S
C869 H881 0.929 . S
C870 C866 1.531 . S
C870 H882 0.960 . S
C870 H883 0.962 . S
C870 H884 0.960 . S
C871 C868 1.511 1_554 S
C871 H885 0.961 . S
C871 H886 0.961 . S
C871 H887 0.961 . S
C872 C873 1.370 . S
C872 C874 1.363 . S
C872 H888 0.931 . S
C873 C872 1.370 . S
C873 C877 1.408 . S
C874 C872 1.363 . S
C874 C875 1.370 . S
C874 C878 1.524 . S
C875 C867 1.503 1_454 S
C875 C874 1.370 . S
C875 C876 1.404 . S
C876 C875 1.404 . S
C876 C877 1.409 . S
C876 C879 1.533 1_454 S
C877 C873 1.408 . S
C877 C876 1.409 . S
C877 H889 0.930 . S
C878 C874 1.524 . S
C878 H890 0.956 . S
C878 H891 0.961 1_455 S
C878 H892 0.961 . S
C879 C876 1.533 1_656 S
C879 H893 0.958 1_655 S
C879 H894 0.961 . S
C879 H895 0.960 . S
H880 C864 0.931 . S
H881 C869 0.929 . S
H882 C870 0.960 . S
H883 C870 0.962 . S
H884 C870 0.960 . S
H885 C871 0.961 . S
H886 C871 0.961 . S
H887 C871 0.961 . S
H888 C872 0.931 . S
H889 C877 0.930 . S
H890 C878 0.956 . S
H891 C878 0.961 1_655 S
H892 C878 0.961 . S
H893 C879 0.958 1_455 S
H894 C879 0.961 . S
H895 C879 0.960 . S
C896 C897 1.391 . S
C896 C898 1.394 . S
C896 H912 0.931 . S
C897 C896 1.391 . S
C897 C901 1.376 . S
C898 C896 1.394 . S
C898 C899 1.369 . S
C898 C902 1.531 . S
C899 C898 1.369 . S
C899 C900 1.410 . S
C899 C907 1.503 . S
C900 C899 1.410 . S
C900 C901 1.392 . S
C900 C903 1.511 . S
C901 C897 1.376 . S
C901 C900 1.392 . S
C901 H913 0.929 . S
C902 C898 1.531 . S
C902 H914 0.960 . S
C902 H915 0.962 . S
C902 H916 0.960 . S
C903 C900 1.511 . S
C903 H917 0.961 . S
C903 H918 0.961 . S
C903 H919 0.961 . S
C904 C905 1.370 . S
C904 C906 1.363 . S
C904 H920 0.931 . S
C905 C904 1.370 . S
C905 C909 1.408 . S
C906 C904 1.363 . S
C906 C907 1.370 . S
C906 C910 1.524 . S
C907 C899 1.503 . S
C907 C906 1.370 . S
C907 C908 1.403 . S
C908 C907 1.403 . S
C908 C909 1.404 . S
C908 C911 1.539 . S
C909 C905 1.408 . S
C909 C908 1.404 . S
C909 H921 0.930 . S
C910 C906 1.524 . S
C910 H922 0.956 . S
C910 H923 0.961 . S
C910 H924 0.961 . S
C911 C908 1.539 . S
C911 H925 0.958 . S
C911 H926 0.961 . S
C911 H927 0.960 . S
H912 C896 0.931 . S
H913 C901 0.929 . S
H914 C902 0.960 . S
H915 C902 0.962 . S
H916 C902 0.960 . S
H917 C903 0.961 . S
H918 C903 0.961 . S
H919 C903 0.961 . S
H920 C904 0.931 . S
H921 C909 0.930 . S
H922 C910 0.956 . S
H923 C910 0.961 . S
H924 C910 0.961 . S
H925 C911 0.958 . S
H926 C911 0.961 . S
H927 C911 0.960 . S
C928 C929 1.391 . S
C928 C930 1.394 . S
C928 H944 0.931 . S
C929 C928 1.391 . S
C929 C933 1.376 . S
C930 C928 1.394 . S
C930 C931 1.369 . S
C930 C934 1.531 . S
C931 C930 1.369 . S
C931 C932 1.410 . S
C931 C939 1.503 . S
C932 C931 1.410 . S
C932 C933 1.392 . S
C932 C935 1.511 . S
C933 C929 1.376 . S
C933 C932 1.392 . S
C933 H945 0.929 . S
C934 C930 1.531 . S
C934 H946 0.960 . S
C934 H947 0.962 . S
C934 H948 0.960 . S
C935 C932 1.511 . S
C935 H949 0.961 . S
C935 H950 0.961 . S
C935 H951 0.961 . S
C936 C937 1.370 . S
C936 C938 1.363 . S
C936 H952 0.931 . S
C937 C936 1.370 . S
C937 C941 1.408 . S
C938 C936 1.363 . S
C938 C939 1.370 . S
C938 C942 1.524 . S
C939 C931 1.503 . S
C939 C938 1.370 . S
C939 C940 1.403 . S
C940 C939 1.403 . S
C940 C941 1.404 . S
C940 C943 1.539 . S
C941 C937 1.408 . S
C941 C940 1.404 . S
C941 H953 0.930 . S
C942 C938 1.524 . S
C942 H954 0.956 . S
C942 H955 0.961 . S
C942 H956 0.961 . S
C943 C940 1.539 . S
C943 H957 0.958 . S
C943 H958 0.961 . S
C943 H959 0.960 . S
H944 C928 0.931 . S
H945 C933 0.929 . S
H946 C934 0.960 . S
H947 C934 0.962 . S
H948 C934 0.960 . S
H949 C935 0.961 . S
H950 C935 0.961 . S
H951 C935 0.961 . S
H952 C936 0.931 . S
H953 C941 0.930 . S
H954 C942 0.956 . S
H955 C942 0.961 . S
H956 C942 0.961 . S
H957 C943 0.958 . S
H958 C943 0.961 . S
H959 C943 0.960 . S
C960 C961 1.391 . S
C960 C962 1.394 . S
C960 H976 0.931 . S
C961 C960 1.391 . S
C961 C965 1.376 . S
C962 C960 1.394 . S
C962 C963 1.369 . S
C962 C966 1.531 . S
C963 C962 1.369 . S
C963 C964 1.410 . S
C963 C971 1.503 . S
C964 C963 1.410 . S
C964 C965 1.392 . S
C964 C967 1.511 . S
C965 C961 1.376 . S
C965 C964 1.392 . S
C965 H977 0.929 . S
C966 C962 1.531 . S
C966 H978 0.960 . S
C966 H979 0.962 . S
C966 H980 0.960 . S
C967 C964 1.511 . S
C967 H981 0.961 . S
C967 H982 0.961 . S
C967 H983 0.961 . S
C968 C969 1.370 . S
C968 C970 1.363 . S
C968 H984 0.931 . S
C969 C968 1.370 . S
C969 C973 1.408 . S
C970 C968 1.363 . S
C970 C971 1.370 . S
C970 C974 1.524 . S
C971 C963 1.503 . S
C971 C970 1.370 . S
C971 C972 1.403 . S
C972 C971 1.403 . S
C972 C973 1.404 . S
C972 C975 1.539 . S
C973 C969 1.408 . S
C973 C972 1.404 . S
C973 H985 0.930 . S
C974 C970 1.524 . S
C974 H986 0.956 . S
C974 H987 0.961 . S
C974 H988 0.961 . S
C975 C972 1.539 . S
C975 H989 0.958 . S
C975 H990 0.961 . S
C975 H991 0.960 . S
H976 C960 0.931 . S
H977 C965 0.929 . S
H978 C966 0.960 . S
H979 C966 0.962 . S
H980 C966 0.960 . S
H981 C967 0.961 . S
H982 C967 0.961 . S
H983 C967 0.961 . S
H984 C968 0.931 . S
H985 C973 0.930 . S
H986 C974 0.956 . S
H987 C974 0.961 . S
H988 C974 0.961 . S
H989 C975 0.958 . S
H990 C975 0.961 . S
H991 C975 0.960 . S
C992 C993 1.391 . S
C992 C994 1.394 . S
C992 H1008 0.931 . S
C993 C992 1.391 . S
C993 C997 1.376 . S
C994 C992 1.394 . S
C994 C995 1.369 . S
C994 C998 1.531 . S
C995 C994 1.369 . S
C995 C996 1.410 1_556 S
C995 C1003 1.503 1_556 S
C996 C995 1.410 1_554 S
C996 C997 1.392 1_554 S
C996 C999 1.511 . S
C997 C993 1.376 . S
C997 C996 1.392 1_556 S
C997 H1009 0.929 . S
C998 C994 1.531 . S
C998 H1010 0.960 . S
C998 H1011 0.962 . S
C998 H1012 0.960 . S
C999 C996 1.511 . S
C999 H1013 0.961 . S
C999 H1014 0.961 . S
C999 H1015 0.961 . S
C1000 C1001 1.370 . S
C1000 C1002 1.363 . S
C1000 H1016 0.931 . S
C1001 C1000 1.370 . S
C1001 C1005 1.408 . S
C1002 C1000 1.363 . S
C1002 C1003 1.370 . S
C1002 C1006 1.524 1_554 S
C1003 C995 1.503 1_554 S
C1003 C1002 1.370 . S
C1003 C1004 1.403 . S
C1004 C1003 1.403 . S
C1004 C1005 1.404 . S
C1004 C1007 1.539 . S
C1005 C1001 1.408 . S
C1005 C1004 1.404 . S
C1005 H1017 0.930 . S
C1006 C1002 1.524 1_556 S
C1006 H1018 0.956 . S
C1006 H1019 0.961 . S
C1006 H1020 0.961 . S
C1007 C1004 1.539 . S
C1007 H1021 0.958 . S
C1007 H1022 0.961 . S
C1007 H1023 0.960 . S
H1008 C992 0.931 . S
H1009 C997 0.929 . S
H1010 C998 0.960 . S
H1011 C998 0.962 . S
H1012 C998 0.960 . S
H1013 C999 0.961 . S
H1014 C999 0.961 . S
H1015 C999 0.961 . S
H1016 C1000 0.931 . S
H1017 C1005 0.930 . S
H1018 C1006 0.956 . S
H1019 C1006 0.961 . S
H1020 C1006 0.961 . S
H1021 C1007 0.958 . S
H1022 C1007 0.961 . S
H1023 C1007 0.960 . S
C1024 C1025 1.391 . S
C1024 C1026 1.394 . S
C1024 H1040 0.931 . S
C1025 C1024 1.391 . S
C1025 C1029 1.376 . S
C1026 C1024 1.394 . S
C1026 C1027 1.369 . S
C1026 C1030 1.531 1_565 S
C1027 C1026 1.369 . S
C1027 C1028 1.410 . S
C1027 C1035 1.503 1_565 S
C1028 C1027 1.410 . S
C1028 C1029 1.392 . S
C1028 C1031 1.511 . S
C1029 C1025 1.376 . S
C1029 C1028 1.392 . S
C1029 H1041 0.929 . S
C1030 C1026 1.531 1_545 S
C1030 H1042 0.960 . S
C1030 H1043 0.962 . S
C1030 H1044 0.960 . S
C1031 C1028 1.511 . S
C1031 H1045 0.961 . S
C1031 H1046 0.961 . S
C1031 H1047 0.961 . S
C1032 C1033 1.370 . S
C1032 C1034 1.363 . S
C1032 H1048 0.931 . S
C1033 C1032 1.370 . S
C1033 C1037 1.408 . S
C1034 C1032 1.363 . S
C1034 C1035 1.370 . S
C1034 C1038 1.524 . S
C1035 C1027 1.503 1_545 S
C1035 C1034 1.370 . S
C1035 C1036 1.412 . S
C1036 C1035 1.412 . S
C1036 C1037 1.431 . S
C1036 C1039 1.503 1_545 S
C1037 C1033 1.408 . S
C1037 C1036 1.431 . S
C1037 H1049 0.930 . S
C1038 C1034 1.524 . S
C1038 H1050 0.956 . S
C1038 H1051 0.961 . S
C1038 H1052 0.961 . S
C1039 C1036 1.503 1_565 S
C1039 H1053 0.958 . S
C1039 H1054 0.961 . S
C1039 H1055 0.960 . S
H1040 C1024 0.931 . S
H1041 C1029 0.929 . S
H1042 C1030 0.960 . S
H1043 C1030 0.962 . S
H1044 C1030 0.960 . S
H1045 C1031 0.961 . S
H1046 C1031 0.961 . S
H1047 C1031 0.961 . S
H1048 C1032 0.931 . S
H1049 C1037 0.930 . S
H1050 C1038 0.956 . S
H1051 C1038 0.961 . S
H1052 C1038 0.961 . S
H1053 C1039 0.958 . S
H1054 C1039 0.961 . S
H1055 C1039 0.960 . S
C1056 C1057 1.391 . S
C1056 C1058 1.394 . S
C1056 H1072 0.931 . S
C1057 C1056 1.391 . S
C1057 C1061 1.376 . S
C1058 C1056 1.394 . S
C1058 C1059 1.369 . S
C1058 C1062 1.531 1_655 S
C1059 C1058 1.369 . S
C1059 C1060 1.410 . S
C1059 C1067 1.503 1_665 S
C1060 C1059 1.410 . S
C1060 C1061 1.392 . S
C1060 C1063 1.516 . S
C1061 C1057 1.376 . S
C1061 C1060 1.392 . S
C1061 H1073 0.929 . S
C1062 C1058 1.531 1_455 S
C1062 H1074 0.960 1_565 S
C1062 H1075 0.962 . S
C1062 H1076 0.960 . S
C1063 C1060 1.516 . S
C1063 H1077 0.970 . S
C1063 H1078 0.959 1_565 S
C1063 H1079 0.949 1_565 S
C1064 C1065 1.370 . S
C1064 C1066 1.360 1_545 S
C1064 H1080 0.931 . S
C1065 C1064 1.370 . S
C1065 C1069 1.408 . S
C1066 C1064 1.360 1_565 S
C1066 C1067 1.367 1_565 S
C1066 C1070 1.531 . S
C1067 C1059 1.503 1_445 S
C1067 C1066 1.367 1_545 S
C1067 C1068 1.403 . S
C1068 C1067 1.403 . S
C1068 C1069 1.404 . S
C1068 C1071 1.539 1_455 S
C1069 C1065 1.408 . S
C1069 C1068 1.404 . S
C1069 H1081 0.930 . S
C1070 C1066 1.531 . S
C1070 H1082 0.956 . S
C1070 H1083 0.961 . S
C1070 H1084 0.961 . S
C1071 C1068 1.539 1_655 S
C1071 H1085 0.958 . S
C1071 H1086 0.961 . S
C1071 H1087 0.960 . S
H1072 C1056 0.931 . S
H1073 C1061 0.929 . S
H1074 C1062 0.960 1_545 S
H1075 C1062 0.962 . S
H1076 C1062 0.960 . S
H1077 C1063 0.970 . S
H1078 C1063 0.959 1_545 S
H1079 C1063 0.949 1_545 S
H1080 C1064 0.931 . S
H1081 C1069 0.930 . S
H1082 C1070 0.956 . S
H1083 C1070 0.961 . S
H1084 C1070 0.961 . S
H1085 C1071 0.958 . S
H1086 C1071 0.961 . S
H1087 C1071 0.960 . S
C1088 C1089 1.391 . S
C1088 C1090 1.394 1_655 S
C1088 H1104 0.931 . S
C1089 C1088 1.391 . S
C1089 C1093 1.376 . S
C1090 C1088 1.394 1_455 S
C1090 C1091 1.369 1_455 S
C1090 C1094 1.531 . S
C1091 C1090 1.369 1_655 S
C1091 C1092 1.410 . S
C1091 C1099 1.503 1_655 S
C1092 C1091 1.410 . S
C1092 C1093 1.392 . S
C1092 C1095 1.511 . S
C1093 C1089 1.376 . S
C1093 C1092 1.392 . S
C1093 H1105 0.929 . S
C1094 C1090 1.531 . S
C1094 H1106 0.960 . S
C1094 H1107 0.962 . S
C1094 H1108 0.960 . S
C1095 C1092 1.511 . S
C1095 H1109 0.961 . S
C1095 H1110 0.961 . S
C1095 H1111 0.961 . S
C1096 C1097 1.370 . S
C1096 C1098 1.363 . S
C1096 H1112 0.931 . S
C1097 C1096 1.370 . S
C1097 C1101 1.408 . S
C1098 C1096 1.363 . S
C1098 C1099 1.370 . S
C1098 C1102 1.524 1_455 S
C1099 C1091 1.503 1_455 S
C1099 C1098 1.370 . S
C1099 C1100 1.403 . S
C1100 C1099 1.403 . S
C1100 C1101 1.404 . S
C1100 C1103 1.539 . S
C1101 C1097 1.408 . S
C1101 C1100 1.404 . S
C1101 H1113 0.930 . S
C1102 C1098 1.524 1_655 S
C1102 H1114 0.956 . S
C1102 H1115 0.961 . S
C1102 H1116 0.961 . S
C1103 C1100 1.539 . S
C1103 H1117 0.958 . S
C1103 H1118 0.961 . S
C1103 H1119 0.960 . S
H1104 C1088 0.931 . S
H1105 C1093 0.929 . S
H1106 C1094 0.960 . S
H1107 C1094 0.962 . S
H1108 C1094 0.960 . S
H1109 C1095 0.961 . S
H1110 C1095 0.961 . S
H1111 C1095 0.961 . S
H1112 C1096 0.931 . S
H1113 C1101 0.930 . S
H1114 C1102 0.956 . S
H1115 C1102 0.961 . S
H1116 C1102 0.961 . S
H1117 C1103 0.958 . S
H1118 C1103 0.961 . S
H1119 C1103 0.960 . S
C1120 C1121 1.391 . S
C1120 C1122 1.394 . S
C1120 H1136 0.931 . S
C1121 C1120 1.391 . S
C1121 C1125 1.376 . S
C1122 C1120 1.394 . S
C1122 C1123 1.369 . S
C1122 C1126 1.531 . S
C1123 C1122 1.369 . S
C1123 C1124 1.410 . S
C1123 C1131 1.503 . S
C1124 C1123 1.410 . S
C1124 C1125 1.392 . S
C1124 C1127 1.511 . S
C1125 C1121 1.376 . S
C1125 C1124 1.392 . S
C1125 H1137 0.929 . S
C1126 C1122 1.531 . S
C1126 H1138 0.960 . S
C1126 H1139 0.962 . S
C1126 H1140 0.960 . S
C1127 C1124 1.511 . S
C1127 H1141 0.961 . S
C1127 H1142 0.961 . S
C1127 H1143 0.961 . S
C1128 C1129 1.370 . S
C1128 C1130 1.363 . S
C1128 H1144 0.931 . S
C1129 C1128 1.370 . S
C1129 C1133 1.408 . S
C1130 C1128 1.363 . S
C1130 C1131 1.370 . S
C1130 C1134 1.524 . S
C1131 C1123 1.503 . S
C1131 C1130 1.370 . S
C1131 C1132 1.403 . S
C1132 C1131 1.403 . S
C1132 C1133 1.404 . S
C1132 C1135 1.539 . S
C1133 C1129 1.408 . S
C1133 C1132 1.404 . S
C1133 H1145 0.930 . S
C1134 C1130 1.524 . S
C1134 H1146 0.956 . S
C1134 H1147 0.961 . S
C1134 H1148 0.961 . S
C1135 C1132 1.539 . S
C1135 H1149 0.958 . S
C1135 H1150 0.961 . S
C1135 H1151 0.960 . S
H1136 C1120 0.931 . S
H1137 C1125 0.929 . S
H1138 C1126 0.960 . S
H1139 C1126 0.962 . S
H1140 C1126 0.960 . S
H1141 C1127 0.961 . S
H1142 C1127 0.961 . S
H1143 C1127 0.961 . S
H1144 C1128 0.931 . S
H1145 C1133 0.930 . S
H1146 C1134 0.956 . S
H1147 C1134 0.961 . S
H1148 C1134 0.961 . S
H1149 C1135 0.958 . S
H1150 C1135 0.961 . S
H1151 C1135 0.960 . S
C1152 C1153 1.391 . S
C1152 C1154 1.394 . S
C1152 H1168 0.931 . S
C1153 C1152 1.391 . S
C1153 C1157 1.376 . S
C1154 C1152 1.394 . S
C1154 C1155 1.369 . S
C1154 C1158 1.531 . S
C1155 C1154 1.369 . S
C1155 C1156 1.410 . S
C1155 C1163 1.503 1_554 S
C1156 C1155 1.410 . S
C1156 C1157 1.392 . S
C1156 C1159 1.505 1_554 S
C1157 C1153 1.376 . S
C1157 C1156 1.392 . S
C1157 H1169 0.929 . S
C1158 C1154 1.531 . S
C1158 H1170 0.960 1_554 S
C1158 H1171 0.962 . S
C1158 H1172 0.960 . S
C1159 C1156 1.505 1_556 S
C1159 H1173 0.948 1_556 S
C1159 H1174 0.964 . S
C1159 H1175 0.977 . S
C1160 C1161 1.370 . S
C1160 C1162 1.360 1_556 S
C1160 H1176 0.931 . S
C1161 C1160 1.370 . S
C1161 C1165 1.408 . S
C1162 C1160 1.360 1_554 S
C1162 C1163 1.368 1_554 S
C1162 C1166 1.530 . S
C1163 C1155 1.503 1_556 S
C1163 C1162 1.368 1_556 S
C1163 C1164 1.403 . S
C1164 C1163 1.403 . S
C1164 C1165 1.404 . S
C1164 C1167 1.539 . S
C1165 C1161 1.408 . S
C1165 C1164 1.404 . S
C1165 H1177 0.930 . S
C1166 C1162 1.530 . S
C1166 H1178 0.956 . S
C1166 H1179 0.961 . S
C1166 H1180 0.961 . S
C1167 C1164 1.539 . S
C1167 H1181 0.958 . S
C1167 H1182 0.961 . S
C1167 H1183 0.960 . S
H1168 C1152 0.931 . S
H1169 C1157 0.929 . S
H1170 C1158 0.960 1_556 S
H1171 C1158 0.962 . S
H1172 C1158 0.960 . S
H1173 C1159 0.948 1_554 S
H1174 C1159 0.964 . S
H1175 C1159 0.977 . S
H1176 C1160 0.931 . S
H1177 C1165 0.930 . S
H1178 C1166 0.956 . S
H1179 C1166 0.961 . S
H1180 C1166 0.961 . S
H1181 C1167 0.958 . S
H1182 C1167 0.961 . S
H1183 C1167 0.960 . S
C1184 C1185 1.391 . S
C1184 C1186 1.394 . S
C1184 H1200 0.931 . S
C1185 C1184 1.391 . S
C1185 C1189 1.376 . S
C1186 C1184 1.394 . S
C1186 C1187 1.369 . S
C1186 C1190 1.531 . S
C1187 C1186 1.369 . S
C1187 C1188 1.410 . S
C1187 C1195 1.503 . S
C1188 C1187 1.410 . S
C1188 C1189 1.392 . S
C1188 C1191 1.511 . S
C1189 C1185 1.376 . S
C1189 C1188 1.392 . S
C1189 H1201 0.929 . S
C1190 C1186 1.531 . S
C1190 H1202 0.960 . S
C1190 H1203 0.962 . S
C1190 H1204 0.960 . S
C1191 C1188 1.511 . S
C1191 H1205 0.961 . S
C1191 H1206 0.961 . S
C1191 H1207 0.961 . S
C1192 C1193 1.370 . S
C1192 C1194 1.363 . S
C1192 H1208 0.931 . S
C1193 C1192 1.370 . S
C1193 C1197 1.408 . S
C1194 C1192 1.363 . S
C1194 C1195 1.370 . S
C1194 C1198 1.524 . S
C1195 C1187 1.503 . S
C1195 C1194 1.370 . S
C1195 C1196 1.403 . S
C1196 C1195 1.403 . S
C1196 C1197 1.404 . S
C1196 C1199 1.539 . S
C1197 C1193 1.408 . S
C1197 C1196 1.404 . S
C1197 H1209 0.930 . S
C1198 C1194 1.524 . S
C1198 H1210 0.956 . S
C1198 H1211 0.961 . S
C1198 H1212 0.961 . S
C1199 C1196 1.539 . S
C1199 H1213 0.958 . S
C1199 H1214 0.961 . S
C1199 H1215 0.960 . S
H1200 C1184 0.931 . S
H1201 C1189 0.929 . S
H1202 C1190 0.960 . S
H1203 C1190 0.962 . S
H1204 C1190 0.960 . S
H1205 C1191 0.961 . S
H1206 C1191 0.961 . S
H1207 C1191 0.961 . S
H1208 C1192 0.931 . S
H1209 C1197 0.930 . S
H1210 C1198 0.956 . S
H1211 C1198 0.961 . S
H1212 C1198 0.961 . S
H1213 C1199 0.958 . S
H1214 C1199 0.961 . S
H1215 C1199 0.960 . S
C705 C497 1.493 . S
C713 C49 1.498 . S
C737 C645 1.495 . S
C745 C108 1.498 . S
C769 C233 1.493 . S
C777 C557 1.498 . S
C801 C321 1.494 . S
C809 C372 1.498 . S
C833 C548 1.497 . S
C841 C29 1.499 . S
C865 C117 1.496 . S
C873 C409 1.500 . S
C897 C489 1.497 . S
C905 C196 1.499 . S
C929 C313 1.495 . S
C937 C665 1.500 . S
C961 C381 1.494 . S
C969 C460 1.498 . S
C993 C145 1.493 . S
C1001 C225 1.499 . S
C1025 C293 1.493 . S
C1033 C205 1.498 . S
C1057 C284 1.496 . S
C1065 C57 1.500 . S
C1089 C137 1.497 . S
C1097 C20 1.499 . S
C1121 C636 1.496 . S
C1129 C577 1.498 . S
C1153 C401 1.496 . S
C1161 C585 1.500 . S
C1185 C469 1.497 . S
C1193 C673 1.499 . S
