# Generated by pormake.
# Topology tfs, (6)-cn, num edge types: 1
# Building blocks:
#     Node 0, Type 0, BuildingBlock: PAMTOO_clean_sbu_0, # of connection points: 6
#     Node 1, Type 0, BuildingBlock: PAMTOO_clean_sbu_0, # of connection points: 6
#     Node 2, Type 0, BuildingBlock: PAMTOO_clean_sbu_0, # of connection points: 6
#     Node 3, Type 0, BuildingBlock: PAMTOO_clean_sbu_0, # of connection points: 6
#     Node 4, Type 0, BuildingBlock: PAMTOO_clean_sbu_0, # of connection points: 6
#     Node 5, Type 0, BuildingBlock: PAMTOO_clean_sbu_0, # of connection points: 6
#     Edge 6, Type (0, 0), BuildingBlock: AJUNOK_clean_linker_0, # of connection points: 2
#     Edge 7, Type (0, 0), BuildingBlock: AJUNOK_clean_linker_0, # of connection points: 2
#     Edge 8, Type (0, 0), BuildingBlock: AJUNOK_clean_linker_0, # of connection points: 2
#     Edge 9, Type (0, 0), BuildingBlock: AJUNOK_clean_linker_0, # of connection points: 2
#     Edge 10, Type (0, 0), BuildingBlock: AJUNOK_clean_linker_0, # of connection points: 2
#     Edge 11, Type (0, 0), BuildingBlock: AJUNOK_clean_linker_0, # of connection points: 2
#     Edge 12, Type (0, 0), BuildingBlock: AJUNOK_clean_linker_0, # of connection points: 2
#     Edge 13, Type (0, 0), BuildingBlock: AJUNOK_clean_linker_0, # of connection points: 2
#     Edge 14, Type (0, 0), BuildingBlock: AJUNOK_clean_linker_0, # of connection points: 2
#     Edge 15, Type (0, 0), BuildingBlock: AJUNOK_clean_linker_0, # of connection points: 2
#     Edge 16, Type (0, 0), BuildingBlock: AJUNOK_clean_linker_0, # of connection points: 2
#     Edge 17, Type (0, 0), BuildingBlock: AJUNOK_clean_linker_0, # of connection points: 2
#     Edge 18, Type (0, 0), BuildingBlock: AJUNOK_clean_linker_0, # of connection points: 2
#     Edge 19, Type (0, 0), BuildingBlock: AJUNOK_clean_linker_0, # of connection points: 2
#     Edge 20, Type (0, 0), BuildingBlock: AJUNOK_clean_linker_0, # of connection points: 2
#     Edge 21, Type (0, 0), BuildingBlock: AJUNOK_clean_linker_0, # of connection points: 2
#     Edge 22, Type (0, 0), BuildingBlock: AJUNOK_clean_linker_0, # of connection points: 2
#     Edge 23, Type (0, 0), BuildingBlock: AJUNOK_clean_linker_0, # of connection points: 2
# Relax obj value: 0.687
# Max RMSD: 0.452
# Mean RMSD: 0.338
data_MOF--net-tfs--node1-PAMTOO_clean_sbu_0--edge1-AJUNOK_clean_linker_0
_symmetry_space_group_name_H-M    P1
_symmetry_Int_Tables_number       1
_symmetry_cell_setting            triclinic
loop_
_symmetry_equiv_pos_as_xyz
'x, y, z'
_cell_length_a     43.211491
_cell_length_b     36.624509
_cell_length_c     10.496299
_cell_angle_alpha  99.422917
_cell_angle_beta   96.137666
_cell_angle_gamma 123.23413
loop_
_atom_site_label
_atom_site_type_symbol
_atom_site_fract_x
_atom_site_fract_y
_atom_site_fract_z
_atom_type_partial_charge
Dy0 Dy 0.34903 0.5554 0.38069 0.0
Dy1 Dy 0.35178 0.46721 0.29434 0.0
C2 C 0.34073 0.51151 0.09068 0.0
O3 O 0.28574 0.49407 0.33635 0.0
O4 O 0.29502 0.43901 0.35311 0.0
O5 O 0.37665 0.62238 0.50803 0.0
O6 O 0.32347 0.59199 0.36275 0.0
O7 O 0.38236 0.49755 0.50549 0.0
O8 O 0.35141 0.53068 0.55564 0.0
O9 O 0.41242 0.52509 0.29143 0.0
O10 O 0.41239 0.58659 0.3837 0.0
O11 O 0.3642 0.42809 0.15926 0.0
O12 O 0.33185 0.40003 0.30434 0.0
C13 C 0.27205 0.4523 0.34665 0.0
O14 O 0.35733 0.55021 0.17818 0.0
O15 O 0.32188 0.47441 0.1276 0.0
C16 C 0.33956 0.64862 0.55929 0.0
C17 C 0.32499 0.69364 0.76223 0.0
C18 C 0.35844 0.71755 0.71749 0.0
C19 C 0.3656 0.69527 0.61714 0.0
C20 C 0.30572 0.62439 0.60209 0.0
C21 C 0.29831 0.64696 0.70248 0.0
C22 C 0.35018 0.62686 0.46014 0.0
C23 C 0.3724 0.51689 0.59087 0.0
C24 C 0.43079 0.56968 0.33724 0.0
C25 C 0.3706 0.37697 0.24923 0.0
C26 C 0.40773 0.33727 0.31721 0.0
C27 C 0.41032 0.3709 0.41362 0.0
C28 C 0.39198 0.39083 0.37964 0.0
C29 C 0.3683 0.34383 0.15279 0.0
C30 C 0.3868 0.32414 0.1864 0.0
C31 C 0.34857 0.39457 0.21433 0.0
H32 H 0.37904 0.75372 0.75977 0.0
H33 H 0.39185 0.71452 0.58542 0.0
H34 H 0.28536 0.58825 0.55909 0.0
H35 H 0.27216 0.628 0.73482 0.0
H36 H 0.42598 0.38123 0.51532 0.0
H37 H 0.39389 0.41639 0.45551 0.0
H38 H 0.35183 0.3328 0.0519 0.0
H39 H 0.38484 0.29869 0.10996 0.0
Dy40 Dy 0.81289 0.11713 0.20781 0.0
Dy41 Dy 0.91161 0.16782 0.31507 0.0
C42 C 0.86539 0.134 0.02333 0.0
O43 O 0.81296 0.06072 0.26028 0.0
O44 O 0.87745 0.08823 0.29689 0.0
O45 O 0.76834 0.10243 0.04759 0.0
O46 O 0.75457 0.08025 0.22554 0.0
O47 O 0.88586 0.15484 0.48619 0.0
O48 O 0.83124 0.1524 0.4209 0.0
O49 O 0.90234 0.22511 0.34063 0.0
O50 O 0.84227 0.1892 0.20256 0.0
O51 O 0.96851 0.21757 0.44943 0.0
O52 O 0.96298 0.17742 0.26239 0.0
C53 C 0.84009 0.05456 0.28406 0.0
O54 O 0.83843 0.1003 0.05914 0.0
O55 O 0.89482 0.16858 0.11255 0.0
C56 C 0.71583 0.09803 0.11411 0.0
C57 C 0.6631 0.121 0.12166 0.0
C58 C 0.65524 0.0846 0.02071 0.0
C59 C 0.68142 0.07337 0.01681 0.0
C60 C 0.72419 0.13498 0.21349 0.0
C61 C 0.69812 0.14643 0.21696 0.0
C62 C 0.74188 0.08377 0.11278 0.0
C63 C 0.8571 0.15599 0.50996 0.0
C64 C 0.87453 0.22619 0.2762 0.0
C65 C 1.02728 0.24892 0.36447 0.0
C66 C 0.10647 0.31733 0.35843 0.0
C67 C 0.0968 0.3002 0.47049 0.0
C68 C 1.05849 0.26717 0.47335 0.0
C69 C 1.03655 0.26633 0.25251 0.0
C70 C 0.07508 0.3 0.25019 0.0
C71 C 0.98685 0.21007 0.36945 0.0
H72 H 0.62891 0.06492 0.94439 0.0
H73 H 0.67448 1.04483 0.93894 0.0
H74 H 0.75065 0.15464 0.28922 0.0
H75 H 0.70504 0.17469 0.29582 0.0
H76 H 0.11908 0.31249 0.55787 0.0
H77 H 1.05334 0.25517 0.56171 0.0
H78 H 1.01401 0.25356 0.16551 0.0
H79 H 0.08037 0.31158 0.16129 0.0
Dy80 Dy 0.65669 0.81692 0.36873 0.0
Dy81 Dy 0.68731 0.7496 0.29738 0.0
C82 C 0.68129 0.78207 0.57351 0.0
O83 O 0.70405 0.85813 0.27585 0.0
O84 O 0.73698 0.82792 0.32662 0.0
O85 O 0.67492 0.88177 0.49069 0.0
O86 O 0.6161 0.83355 0.37934 0.0
O87 O 0.66701 0.75494 0.10429 0.0
O88 O 0.63857 0.79294 0.15005 0.0
O89 O 0.6215 0.69987 0.28877 0.0
O90 O 0.60712 0.74936 0.37954 0.0
O91 O 0.68691 0.6931 0.18414 0.0
O92 O 0.73234 0.74096 0.35829 0.0
C93 C 0.73631 0.86216 0.29689 0.0
O94 O 0.69403 0.81857 0.53384 0.0
O95 O 0.67398 0.7463 0.49172 0.0
C96 C 0.62802 0.87498 0.59567 0.0
C97 C 0.6055 0.88284 0.83371 0.0
C98 C 0.60366 0.84398 0.7778 0.0
C99 C 0.61488 0.8401 0.65951 0.0
C100 C 0.63084 0.91426 0.65255 0.0
C101 C 0.61948 0.91812 0.7706 0.0
C102 C 0.64029 0.87098 0.47298 0.0
C103 C 0.64718 0.77046 0.06861 0.0
C104 C 0.59673 0.70752 0.33274 0.0
C105 C 0.72655 0.66969 0.27938 0.0
C106 C 0.75086 0.60975 0.2894 0.0
C107 C 0.71967 0.59794 0.18989 0.0
C108 C 0.70802 0.62735 0.18437 0.0
C109 C 0.75695 0.68086 0.38108 0.0
C110 C 0.76867 0.65159 0.38634 0.0
C111 C 0.71837 0.70457 0.26182 0.0
H112 H 0.59279 0.81627 0.82405 0.0
H113 H 0.61292 0.80967 0.617 0.0
H114 H 0.64123 0.94155 0.60465 0.0
H115 H 0.62017 0.94791 0.80944 0.0
H116 H 0.7049 0.56639 0.11282 0.0
H117 H 0.685 0.61732 0.10276 0.0
H118 H 0.77256 0.71306 0.45575 0.0
H119 H 0.79202 0.66209 0.46717 0.0
Dy120 Dy 0.78628 0.38683 0.22982 0.0
Dy121 Dy 0.87233 0.47322 0.36706 0.0
C122 C 0.81258 0.42588 0.52876 0.0
O123 O 0.77797 0.44374 0.27487 0.0
O124 O 0.84064 0.50464 0.31364 0.0
O125 O 0.75743 0.3203 0.0952 0.0
O126 O 0.72524 0.34719 0.14781 0.0
O127 O 0.87078 0.4472 0.15962 0.0
O128 O 0.81231 0.43115 0.10169 0.0
O129 O 0.87338 0.41358 0.39689 0.0
O130 O 0.82523 0.36398 0.21459 0.0
O131 O 0.92514 0.52901 0.3444 0.0
O132 O 0.91872 0.51808 0.54068 0.0
C133 C 0.80375 0.48789 0.29388 0.0
O134 O 0.79403 0.38686 0.43997 0.0
O135 O 0.83288 0.46363 0.4956 0.0
C136 C 0.72224 0.32285 0.92039 0.0
C137 C 0.7171 0.33302 0.6595 0.0
C138 C 0.71086 0.29271 0.68328 0.0
C139 C 0.71273 0.28746 0.81269 0.0
C140 C 0.73498 0.36516 0.89871 0.0
C141 C 0.73451 0.37084 0.77118 0.0
C142 C 0.72755 0.31988 0.05801 0.0
C143 C 0.84319 0.43931 0.07074 0.0
C144 C 0.85427 0.37441 0.30555 0.0
C145 C 0.95716 0.59349 0.52281 0.0
C146 C 0.99229 0.68704 0.6148 0.0
C147 C 0.9551 0.65623 0.62699 0.0
C148 C 0.93747 0.60955 0.58027 0.0
C149 C 0.99356 0.62418 0.5063 0.0
C150 C 1.01095 0.67052 0.55158 0.0
C151 C 0.93989 0.54509 0.47219 0.0
H152 H 0.70022 0.26348 0.6013 0.0
H153 H 0.7058 0.25552 0.82822 0.0
H154 H 0.74473 0.39406 -0.01952 0.0
H155 H 0.74334 0.40393 0.76137 0.0
H156 H 0.94025 0.66825 0.67569 0.0
H157 H 0.90885 0.58611 0.59073 0.0
H158 H 1.00882 0.61227 0.46012 0.0
H159 H 1.03989 0.69348 0.54307 0.0
Dy160 Dy 0.38446 0.93222 0.19114 0.0
Dy161 Dy 0.29409 0.89438 0.12489 0.0
C162 C 0.33526 0.89446 0.89119 0.0
O163 O 0.38664 0.98638 0.11638 0.0
O164 O 0.32297 0.95791 0.0548 0.0
O165 O 0.44258 0.96888 0.17351 0.0
O166 O 0.42633 0.93331 0.32673 0.0
O167 O 0.3186 0.90107 0.32687 0.0
O168 O 0.37531 0.96646 0.35929 0.0
O169 O 0.29111 0.83167 0.0554 0.0
O170 O 0.34857 0.85894 0.19003 0.0
O171 O 0.25823 0.91547 0.17964 0.0
O172 O 0.23357 0.84518 0.07633 0.0
C173 C 0.35902 0.98715 0.05479 0.0
O174 O 0.36446 0.90132 -0.02745 0.0
O175 O 0.30564 0.89013 0.92863 0.0
C176 C 0.47359 0.93566 0.23109 0.0
C177 C 0.51707 0.90409 0.15793 0.0
C178 C 0.48517 0.89321 0.06583 0.0
C179 C 0.46344 0.90858 0.10238 0.0
C180 C 0.50398 0.94457 0.32568 0.0
C181 C 0.5255 0.92857 0.28961 0.0
C182 C 0.45307 0.9554 0.26613 0.0
C183 C 0.34676 0.93976 0.40506 0.0
C184 C 0.31692 0.82575 0.10305 0.0
C185 C 0.19632 0.87304 0.03759 0.0
C186 C 0.12579 0.84737 0.89293 0.0
C187 C 0.14036 0.874 0.02536 0.0
C188 C 0.17527 0.88625 0.09779 0.0
C189 C 0.18442 0.85219 0.90073 0.0
C190 C 0.14937 0.83932 0.82905 0.0
C191 C 0.22709 0.87527 0.12149 0.0
H192 H 0.47804 0.8747 -0.03667 0.0
H193 H 0.43957 0.90069 0.02872 0.0
H194 H 0.5116 0.96477 0.4263 0.0
H195 H 0.54931 0.93646 0.36339 0.0
H196 H 0.12338 0.88194 0.07603 0.0
H197 H 0.18445 0.90317 0.20303 0.0
H198 H 0.20063 0.84251 0.85144 0.0
H199 H 0.13922 0.81903 0.72702 0.0
Dy200 Dy 0.55419 0.26273 0.24084 0.0
Dy201 Dy 0.48004 0.15863 0.21995 0.0
C202 C 0.497 0.19607 -0.01919 0.0
O203 O 0.52311 0.27761 0.36711 0.0
O204 O 0.46619 0.20994 0.26373 0.0
O205 O 0.56723 0.3193 0.16276 0.0
O206 O 0.61301 0.31647 0.25503 0.0
O207 O 0.51833 0.18464 0.41754 0.0
O208 O 0.55616 0.26242 0.45403 0.0
O209 O 0.5222 0.14466 0.16952 0.0
O210 O 0.57433 0.21814 0.19742 0.0
O211 O 0.45128 0.09346 0.26219 0.0
O212 O 0.41847 0.117 0.18855 0.0
C213 C 0.48591 0.25203 0.33854 0.0
O214 O 0.50407 0.2295 0.07325 0.0
O215 O 0.48579 0.15841 0.012 0.0
C216 C 0.61515 0.33619 0.04875 0.0
C217 C 0.62806 0.32998 0.78902 0.0
C218 C 0.63149 0.30431 0.86871 0.0
C219 C 0.62499 0.3072 -0.00397 0.0
C220 C 0.61162 0.36196 -0.02986 0.0
C221 C 0.61802 0.35893 0.84154 0.0
C222 C 0.60287 0.33417 0.17546 0.0
C223 C 0.5406 0.22558 0.4965 0.0
C224 C 0.55839 0.17421 0.17262 0.0
C225 C 0.40406 0.08509 0.37093 0.0
C226 C 0.38427 0.06924 0.61312 0.0
C227 C 0.4181 0.10975 0.61189 0.0
C228 C 0.42795 0.11754 0.49196 0.0
C229 C 0.36805 1.04754 0.37091 0.0
C230 C 0.35814 1.03968 0.4915 0.0
C231 C 0.41892 0.08897 0.24981 0.0
H232 H 0.63967 0.28205 0.83351 0.0
H233 H 0.62705 0.28596 0.0521 0.0
H234 H 0.60297 0.3836 0.00705 0.0
H235 H 0.61443 0.37861 0.78292 0.0
H236 H 0.43812 0.13388 0.70419 0.0
H237 H 0.45527 0.1477 0.49451 0.0
H238 H 0.3484 1.02301 0.27895 0.0
H239 H 0.33137 1.00877 0.48952 0.0
C240 C 0.42603 0.24777 0.31567 0.0
C241 C 0.46579 0.2736 0.36427 0.0
C242 C 0.40708 0.26859 0.30834 0.0
C243 C 0.42712 0.31593 0.35009 0.0
H244 H 0.40956 0.21136 0.27566 0.0
H245 H 0.37673 0.24762 0.26412 0.0
S246 S 0.53027 0.39849 0.50653 0.0
N247 N 0.52375 0.34879 0.47273 0.0
N248 N 0.48792 0.38783 0.4559 0.0
C249 C 0.46622 0.34193 0.4099 0.0
C250 C 0.48562 0.32074 0.41797 0.0
C251 C 0.2003 0.42332 0.3077 0.0
C252 C 0.22982 0.41844 0.35155 0.0
C253 C 0.16115 0.39094 0.30791 0.0
C254 C 0.14876 0.35184 0.35479 0.0
H255 H 0.20733 0.45227 0.27087 0.0
H256 H 0.14039 0.3971 0.27247 0.0
S257 S 0.21354 0.32156 0.47953 0.0
N258 N 0.2423 0.36952 0.44202 0.0
N259 N 0.17067 0.31065 0.44392 0.0
C260 C 0.17804 0.34677 0.39918 0.0
C261 C 0.21762 0.37919 0.39714 0.0
C262 C 0.79768 0.96919 0.17118 0.0
C263 C 0.8242 1.005 0.28575 0.0
C264 C 0.77243 0.92304 0.17414 0.0
C265 C 0.77155 0.90853 0.29189 0.0
H266 H 0.79459 0.9774 0.07818 0.0
H267 H 0.75164 0.89866 0.08325 0.0
S268 S 0.83294 0.98769 0.62392 0.0
N269 N 0.84633 1.02134 0.52365 0.0
N270 N 0.79992 0.93592 0.52907 0.0
C271 C 0.79843 0.94369 0.40726 0.0
C272 C 0.82418 0.99103 0.4043 0.0
C273 C 0.75179 0.50265 0.26499 0.0
C274 C 0.7909 0.51958 0.29275 0.0
C275 C 0.73926 0.53143 0.26331 0.0
C276 C 0.76496 0.57916 0.2908 0.0
H277 H 0.73037 0.46656 0.24399 0.0
H278 H 0.70891 0.51597 0.24191 0.0
S279 S 0.87056 0.64161 0.36428 0.0
N280 N 0.85522 0.58823 0.34522 0.0
N281 N 0.83203 0.64136 0.34173 0.0
C282 C 0.80414 0.59649 0.31787 0.0
C283 C 0.8169 0.56719 0.31881 0.0
C284 C 0.07181 0.80918 0.69259 0.0
C285 C 0.08425 0.81866 0.83096 0.0
C286 C 1.03776 0.76804 0.62119 0.0
C287 C 1.01503 0.7356 0.68649 0.0
H288 H 0.09065 0.83099 0.63752 0.0
H289 H 1.03157 0.75934 0.51351 0.0
S290 S 1.029 0.74994 0.05005 0.0
N291 N 1.06667 0.79667 0.03274 0.0
N292 N 1.0025 0.7199 0.89803 0.0
C293 C 1.02367 0.74817 0.82589 0.0
C294 C 1.05846 0.78981 0.89869 0.0
C295 C 0.33993 1.01824 0.88904 0.0
C296 C 0.36818 1.01588 -0.04026 0.0
C297 C 0.34554 1.03702 0.7797 0.0
C298 C 0.37967 0.05437 0.73757 0.0
H299 H 0.31264 1.00373 0.91458 0.0
H300 H 0.32266 1.03687 0.72559 0.0
S301 S 0.46211 0.05503 0.88334 0.0
N302 N 0.43182 1.03289 -0.02297 0.0
N303 N 0.44154 0.06685 0.77172 0.0
C304 C 0.40839 0.05315 0.80874 0.0
C305 C 0.4029 1.0344 0.91983 0.0
C306 C 0.28439 0.75264 0.92597 0.0
C307 C 0.31396 0.7842 0.03942 0.0
C308 C 0.28646 0.72047 0.84158 0.0
C309 C 0.31816 0.7188 0.86766 0.0
H310 H 0.26075 0.75476 0.8965 0.0
H311 H 0.26455 0.69912 0.75038 0.0
S312 S 0.39944 0.7872 0.16368 0.0
N313 N 0.37311 0.80655 0.18308 0.0
N314 N 0.37683 0.74639 0.02352 0.0
C315 C 0.346 0.74699 -0.01319 0.0
C316 C 0.3439 0.77954 0.07316 0.0
C317 C 0.62208 0.19047 0.15397 0.0
C318 C 0.58343 0.1585 0.15124 0.0
C319 C 0.64732 0.17796 0.14315 0.0
C320 C 0.63514 0.13283 0.12783 0.0
H321 H 0.63336 0.22586 0.16642 0.0
H322 H 0.67672 0.20397 0.14678 0.0
S323 S 0.53726 1.03549 0.1135 0.0
N324 N 0.53441 0.07913 0.13113 0.0
N325 N 0.5819 0.05583 0.11006 0.0
C326 C 0.59656 0.10024 0.12247 0.0
C327 C 0.57076 0.11299 0.13437 0.0
C328 C 0.53223 0.68195 0.3896 0.0
C329 C 0.55497 0.66964 0.33381 0.0
C330 C 0.4934 0.65006 0.39048 0.0
C331 C 0.47359 0.60276 0.33608 0.0
H332 H 0.54444 0.7173 0.43367 0.0
H333 H 0.47869 0.66313 0.43473 0.0
S334 S 0.51838 0.55007 0.17859 0.0
N335 N 0.55324 0.60473 0.22317 0.0
N336 N 0.48126 0.54542 0.22501 0.0
C337 C 0.49586 0.58948 0.28099 0.0
C338 C 0.53579 0.62232 0.2799 0.0
C339 C 0.88282 0.33711 0.41157 0.0
C340 C 0.86536 0.34129 0.29789 0.0
C341 C 0.88856 0.30202 0.40447 0.0
C342 C 0.87737 0.2697 0.28316 0.0
H343 H 0.89048 0.35977 0.50786 0.0
H344 H 0.89991 0.29876 0.49568 0.0
S345 S 0.83562 0.26913 0.9536 0.0
N346 N 0.84075 0.31204 0.05809 0.0
N347 N 0.8515 0.24757 0.04531 0.0
C348 C 0.86204 0.27536 0.16847 0.0
C349 C 0.85608 0.31057 0.17559 0.0
C350 C 0.52821 0.85279 0.01646 0.0
C351 C 0.54336 0.89434 0.10916 0.0
C352 C 0.54995 0.84778 0.93532 0.0
C353 C 0.58766 0.88404 0.94532 0.0
H354 H 0.49842 0.82521 -0.00111 0.0
H355 H 0.53602 0.8167 0.85674 0.0
S356 S 0.64375 0.99518 0.19707 0.0
N357 N 0.60045 0.96944 0.2231 0.0
N358 N 0.64175 0.9591 0.07345 0.0
C359 C 0.60465 0.92352 0.04939 0.0
C360 C 0.5824 0.92886 0.13122 0.0
C361 C 0.65638 0.2896 0.50289 0.0
C362 C 0.69293 0.33047 0.53746 0.0
C363 C 0.63177 0.28769 0.58307 0.0
C364 C 0.63844 0.32836 0.65781 0.0
H365 H 0.65235 0.2582 0.45593 0.0
H366 H 0.61151 0.25538 0.59946 0.0
S367 S 0.70626 0.44063 0.60116 0.0
N368 N 0.71776 0.40754 0.52811 0.0
N369 N 0.66979 0.40861 0.66394 0.0
C370 C 0.66469 0.36819 0.62267 0.0
C371 C 0.69055 0.36767 0.54898 0.0
C372 C 0.38004 0.55273 0.94316 0.0
C373 C 0.35305 0.51108 -0.03354 0.0
C374 C 0.3915 0.55423 0.82455 0.0
C375 C 0.37631 0.51423 0.72611 0.0
H376 H 0.39132 0.58467 0.01419 0.0
H377 H 0.4095 0.58689 0.80465 0.0
S378 S 0.30995 0.39663 0.74465 0.0
N379 N 0.31534 0.42863 0.88754 0.0
N380 N 0.33701 0.43206 0.66196 0.0
C381 C 0.35233 0.47236 0.75202 0.0
C382 C 0.34038 0.47062 0.87292 0.0
C383 C 0.88324 0.18305 0.87162 0.0
C384 C 0.85821 0.14023 0.89284 0.0
C385 C 0.87976 0.18982 0.7466 0.0
C386 C 0.85098 0.15423 0.64053 0.0
H387 H 0.90682 0.21124 0.95028 0.0
H388 H 0.90131 0.22196 0.7307 0.0
S389 S 0.77509 1.03801 0.64513 0.0
N390 N 0.80114 0.06318 0.79964 0.0
N391 N 0.79477 0.07662 0.56202 0.0
C392 C 0.82373 0.11256 0.66117 0.0
C393 C 0.82736 0.10531 0.78861 0.0
C394 C 0.66506 0.81375 0.90546 0.0
C395 C 0.64279 0.77146 0.93159 0.0
C396 C 0.67672 0.81688 0.78676 0.0
C397 C 0.66587 0.7777 0.69151 0.0
H398 H 0.67671 0.84471 -0.01788 0.0
H399 H 0.69584 0.85022 0.77277 0.0
S400 S 0.5997 0.65859 0.70418 0.0
N401 N 0.60509 0.68979 0.84868 0.0
N402 N 0.62565 0.69486 0.62165 0.0
C403 C 0.63992 0.73492 0.71125 0.0
C404 C 0.62846 0.73199 0.83253 0.0
C405 C 0.83851 0.40516 0.84573 0.0
C406 C 0.84609 0.44281 0.93868 0.0
C407 C 0.82545 0.39827 0.7111 0.0
C408 C 0.81973 0.42895 0.66844 0.0
H409 H 0.84035 0.37961 0.87792 0.0
H410 H 0.82013 0.36919 0.64041 0.0
S411 S 0.83487 0.5319 0.87666 0.0
N412 N 0.84704 0.51061 -0.01757 0.0
N413 N 0.82226 0.49777 0.72805 0.0
C414 C 0.82781 0.46702 0.76099 0.0
C415 C 0.84133 0.47411 0.89699 0.0
C416 C 0.31759 0.92711 0.58843 0.0
C417 C 0.35086 0.9423 0.54434 0.0
C418 C 0.31182 0.90812 0.69408 0.0
C419 C 0.34005 0.90573 0.76439 0.0
H420 H 0.29439 0.92633 0.53349 0.0
H421 H 0.28487 0.89573 0.72083 0.0
S422 S 0.43425 0.94546 0.69251 0.0
N423 N 0.41343 0.95651 0.57869 0.0
N424 N 0.40375 0.92274 0.78573 0.0
C425 C 0.37461 0.92325 0.72523 0.0
C426 C 0.38005 0.94187 0.61449 0.0
C427 C 0.51475 0.2414 0.81665 0.0
C428 C 0.51248 0.20634 0.86378 0.0
C429 C 0.52883 0.25193 0.70439 0.0
C430 C 0.54116 0.22779 0.6368 0.0
H431 H 0.50416 0.25963 0.86372 0.0
H432 H 0.52723 0.27651 0.66455 0.0
S433 S 0.54881 0.13998 0.73639 0.0
N434 N 0.52971 0.15301 0.8475 0.0
N435 N 0.55529 0.17197 0.63388 0.0
C436 C 0.54209 0.19544 0.68947 0.0
C437 C 0.52781 0.18476 0.80354 0.0
loop_
_geom_bond_atom_site_label_1
_geom_bond_atom_site_label_2
_geom_bond_distance
_geom_bond_site_symmetry_2
_ccdc_geom_bond_type
Dy0 O3 2.307 . S
Dy0 O5 2.395 . S
Dy0 O6 2.379 1_556 S
Dy0 O8 2.339 1_556 S
Dy0 O10 2.298 . S
Dy0 O14 2.275 . S
Dy0 C22 2.738 . S
Dy1 O4 2.298 . S
Dy1 O7 2.275 1_556 S
Dy1 O9 2.307 . S
Dy1 O11 2.395 . S
Dy1 O12 2.379 . S
Dy1 O15 2.339 . S
Dy1 C31 2.738 . S
C2 O14 1.254 . S
C2 O15 1.257 . S
O3 Dy0 2.307 . S
O3 C13 1.266 . S
O4 Dy1 2.298 . S
O4 C13 1.236 . S
O5 Dy0 2.395 . S
O5 C22 1.255 . S
O6 Dy0 2.379 1_554 S
O6 C22 1.249 1_554 S
O7 Dy1 2.275 1_554 S
O7 C23 1.254 . S
O8 Dy0 2.339 1_554 S
O8 C23 1.257 . S
O9 Dy1 2.307 . S
O9 C24 1.266 . S
O10 Dy0 2.298 . S
O10 C24 1.236 . S
O11 Dy1 2.395 . S
O11 C31 1.255 . S
O12 Dy1 2.379 . S
O12 C31 1.249 . S
C13 O3 1.266 . S
C13 O4 1.236 . S
O14 Dy0 2.275 . S
O14 C2 1.254 . S
O15 Dy1 2.339 . S
O15 C2 1.257 . S
C16 C19 1.344 1_554 S
C16 C20 1.328 . S
C16 C22 1.516 1_554 S
C17 C18 1.304 1_554 S
C17 C21 1.323 . S
C18 C17 1.304 1_556 S
C18 C19 1.371 . S
C18 H32 0.930 . S
C19 C16 1.344 1_556 S
C19 C18 1.371 . S
C19 H33 0.931 . S
C20 C16 1.328 . S
C20 C21 1.433 . S
C20 H34 0.931 . S
C21 C17 1.323 . S
C21 C20 1.433 . S
C21 H35 0.933 . S
C22 Dy0 2.738 . S
C22 O5 1.255 . S
C22 O6 1.249 1_556 S
C22 C16 1.516 1_556 S
C23 O7 1.254 . S
C23 O8 1.257 . S
C24 O9 1.266 . S
C24 O10 1.236 . S
C25 C28 1.344 . S
C25 C29 1.328 . S
C25 C31 1.516 . S
C26 C27 1.304 . S
C26 C30 1.323 . S
C27 C26 1.304 . S
C27 C28 1.371 . S
C27 H36 0.930 . S
C28 C25 1.344 . S
C28 C27 1.371 . S
C28 H37 0.931 . S
C29 C25 1.328 . S
C29 C30 1.433 . S
C29 H38 0.931 . S
C30 C26 1.323 . S
C30 C29 1.433 . S
C30 H39 0.933 . S
C31 Dy1 2.738 . S
C31 O11 1.255 . S
C31 O12 1.249 . S
C31 C25 1.516 . S
H32 C18 0.930 . S
H33 C19 0.931 . S
H34 C20 0.931 . S
H35 C21 0.933 . S
H36 C27 0.930 . S
H37 C28 0.931 . S
H38 C29 0.931 . S
H39 C30 0.933 . S
Dy40 O43 2.307 . S
Dy40 O45 2.395 1_554 S
Dy40 O46 2.379 . S
Dy40 O48 2.339 . S
Dy40 O50 2.298 . S
Dy40 O54 2.275 1_554 S
Dy40 C62 2.738 1_554 S
Dy41 O44 2.298 . S
Dy41 O47 2.275 . S
Dy41 O49 2.307 . S
Dy41 O51 2.395 . S
Dy41 O52 2.379 . S
Dy41 O55 2.339 1_554 S
Dy41 C71 2.738 . S
C42 O54 1.254 . S
C42 O55 1.257 . S
O43 Dy40 2.307 . S
O43 C53 1.266 . S
O44 Dy41 2.298 . S
O44 C53 1.236 . S
O45 Dy40 2.395 1_556 S
O45 C62 1.255 . S
O46 Dy40 2.379 . S
O46 C62 1.249 1_554 S
O47 Dy41 2.275 . S
O47 C63 1.254 . S
O48 Dy40 2.339 . S
O48 C63 1.257 . S
O49 Dy41 2.307 . S
O49 C64 1.266 . S
O50 Dy40 2.298 . S
O50 C64 1.236 . S
O51 Dy41 2.395 . S
O51 C71 1.255 . S
O52 Dy41 2.379 . S
O52 C71 1.249 . S
C53 O43 1.266 . S
C53 O44 1.236 . S
O54 Dy40 2.275 1_556 S
O54 C42 1.254 . S
O55 Dy41 2.339 1_556 S
O55 C42 1.257 . S
C56 C59 1.344 . S
C56 C60 1.328 1_556 S
C56 C62 1.516 . S
C57 C58 1.304 . S
C57 C61 1.323 . S
C58 C57 1.304 . S
C58 C59 1.371 . S
C58 H72 0.930 . S
C59 C56 1.344 . S
C59 C58 1.371 . S
C59 H73 0.931 . S
C60 C56 1.328 1_554 S
C60 C61 1.433 1_554 S
C60 H74 0.931 . S
C61 C57 1.323 . S
C61 C60 1.433 1_556 S
C61 H75 0.933 1_556 S
C62 Dy40 2.738 1_556 S
C62 O45 1.255 . S
C62 O46 1.249 1_556 S
C62 C56 1.516 . S
C63 O47 1.254 . S
C63 O48 1.257 . S
C64 O49 1.266 . S
C64 O50 1.236 . S
C65 C68 1.344 . S
C65 C69 1.328 . S
C65 C71 1.516 . S
C66 C67 1.304 . S
C66 C70 1.323 . S
C67 C66 1.304 . S
C67 C68 1.371 . S
C67 H76 0.930 . S
C68 C65 1.344 . S
C68 C67 1.371 . S
C68 H77 0.931 . S
C69 C65 1.328 . S
C69 C70 1.433 . S
C69 H78 0.931 . S
C70 C66 1.323 . S
C70 C69 1.433 . S
C70 H79 0.933 . S
C71 Dy41 2.738 . S
C71 O51 1.255 . S
C71 O52 1.249 . S
C71 C65 1.516 . S
H72 C58 0.930 . S
H73 C59 0.931 . S
H74 C60 0.931 . S
H75 C61 0.933 1_554 S
H76 C67 0.930 . S
H77 C68 0.931 . S
H78 C69 0.931 . S
H79 C70 0.933 . S
Dy80 O83 2.307 . S
Dy80 O85 2.395 1_556 S
Dy80 O86 2.379 . S
Dy80 O88 2.339 . S
Dy80 O90 2.298 . S
Dy80 O94 2.275 1_556 S
Dy80 C102 2.738 . S
Dy81 O84 2.298 . S
Dy81 O87 2.275 . S
Dy81 O89 2.307 . S
Dy81 O91 2.395 . S
Dy81 O92 2.379 . S
Dy81 O95 2.339 1_556 S
Dy81 C111 2.738 . S
C82 O94 1.254 . S
C82 O95 1.257 . S
O83 Dy80 2.307 . S
O83 C93 1.266 . S
O84 Dy81 2.298 . S
O84 C93 1.236 . S
O85 Dy80 2.395 1_554 S
O85 C102 1.255 1_554 S
O86 Dy80 2.379 . S
O86 C102 1.249 . S
O87 Dy81 2.275 . S
O87 C103 1.254 . S
O88 Dy80 2.339 . S
O88 C103 1.257 . S
O89 Dy81 2.307 . S
O89 C104 1.266 . S
O90 Dy80 2.298 . S
O90 C104 1.236 . S
O91 Dy81 2.395 . S
O91 C111 1.255 . S
O92 Dy81 2.379 . S
O92 C111 1.249 . S
C93 O83 1.266 . S
C93 O84 1.236 . S
O94 Dy80 2.275 1_554 S
O94 C82 1.254 . S
O95 Dy81 2.339 1_554 S
O95 C82 1.257 . S
C96 C99 1.344 . S
C96 C100 1.328 1_554 S
C96 C102 1.516 1_554 S
C97 C98 1.304 . S
C97 C101 1.323 1_554 S
C98 C97 1.304 . S
C98 C99 1.371 . S
C98 H112 0.930 . S
C99 C96 1.344 . S
C99 C98 1.371 . S
C99 H113 0.931 . S
C100 C96 1.328 1_556 S
C100 C101 1.433 . S
C100 H114 0.931 . S
C101 C97 1.323 1_556 S
C101 C100 1.433 . S
C101 H115 0.933 . S
C102 Dy80 2.738 . S
C102 O85 1.255 1_556 S
C102 O86 1.249 . S
C102 C96 1.516 1_556 S
C103 O87 1.254 . S
C103 O88 1.257 . S
C104 O89 1.266 . S
C104 O90 1.236 . S
C105 C108 1.344 . S
C105 C109 1.328 . S
C105 C111 1.516 . S
C106 C107 1.304 . S
C106 C110 1.323 . S
C107 C106 1.304 . S
C107 C108 1.371 . S
C107 H116 0.930 . S
C108 C105 1.344 . S
C108 C107 1.371 . S
C108 H117 0.931 . S
C109 C105 1.328 . S
C109 C110 1.433 . S
C109 H118 0.931 . S
C110 C106 1.323 . S
C110 C109 1.433 . S
C110 H119 0.933 . S
C111 Dy81 2.738 . S
C111 O91 1.255 . S
C111 O92 1.249 . S
C111 C105 1.516 . S
H112 C98 0.930 . S
H113 C99 0.931 . S
H114 C100 0.931 . S
H115 C101 0.933 . S
H116 C107 0.930 . S
H117 C108 0.931 . S
H118 C109 0.931 . S
H119 C110 0.933 . S
Dy120 O123 2.307 . S
Dy120 O125 2.395 . S
Dy120 O126 2.379 . S
Dy120 O128 2.339 . S
Dy120 O130 2.298 . S
Dy120 O134 2.275 1_556 S
Dy120 C142 2.738 . S
Dy121 O124 2.298 . S
Dy121 O127 2.275 1_554 S
Dy121 O129 2.307 . S
Dy121 O131 2.395 . S
Dy121 O132 2.379 . S
Dy121 O135 2.339 . S
Dy121 C151 2.738 . S
C122 O134 1.254 . S
C122 O135 1.257 . S
O123 Dy120 2.307 . S
O123 C133 1.266 1_556 S
O124 Dy121 2.298 . S
O124 C133 1.236 . S
O125 Dy120 2.395 . S
O125 C142 1.255 . S
O126 Dy120 2.379 . S
O126 C142 1.249 . S
O127 Dy121 2.275 1_556 S
O127 C143 1.254 . S
O128 Dy120 2.339 . S
O128 C143 1.257 . S
O129 Dy121 2.307 . S
O129 C144 1.266 1_554 S
O130 Dy120 2.298 . S
O130 C144 1.236 . S
O131 Dy121 2.395 . S
O131 C151 1.255 . S
O132 Dy121 2.379 . S
O132 C151 1.249 . S
C133 O123 1.266 1_554 S
C133 O124 1.236 . S
O134 Dy120 2.275 1_554 S
O134 C122 1.254 . S
O135 Dy121 2.339 . S
O135 C122 1.257 . S
C136 C139 1.344 . S
C136 C140 1.328 . S
C136 C142 1.516 . S
C137 C138 1.304 . S
C137 C141 1.323 . S
C138 C137 1.304 . S
C138 C139 1.371 . S
C138 H152 0.930 . S
C139 C136 1.344 . S
C139 C138 1.371 . S
C139 H153 0.931 1_556 S
C140 C136 1.328 . S
C140 C141 1.433 . S
C140 H154 0.931 . S
C141 C137 1.323 . S
C141 C140 1.433 . S
C141 H155 0.933 . S
C142 Dy120 2.738 . S
C142 O125 1.255 . S
C142 O126 1.249 . S
C142 C136 1.516 . S
C143 O127 1.254 . S
C143 O128 1.257 . S
C144 O129 1.266 1_556 S
C144 O130 1.236 . S
C145 C148 1.344 . S
C145 C149 1.328 . S
C145 C151 1.516 . S
C146 C147 1.304 . S
C146 C150 1.323 . S
C147 C146 1.304 . S
C147 C148 1.371 . S
C147 H156 0.930 . S
C148 C145 1.344 . S
C148 C147 1.371 . S
C148 H157 0.931 1_554 S
C149 C145 1.328 . S
C149 C150 1.433 . S
C149 H158 0.931 . S
C150 C146 1.323 . S
C150 C149 1.433 . S
C150 H159 0.933 . S
C151 Dy121 2.738 . S
C151 O131 1.255 . S
C151 O132 1.249 . S
C151 C145 1.516 . S
H152 C138 0.930 . S
H153 C139 0.931 1_554 S
H154 C140 0.931 . S
H155 C141 0.933 . S
H156 C147 0.930 . S
H157 C148 0.931 1_556 S
H158 C149 0.931 . S
H159 C150 0.933 . S
Dy160 O163 2.307 . S
Dy160 O165 2.395 1_554 S
Dy160 O166 2.379 . S
Dy160 O168 2.339 . S
Dy160 O170 2.298 . S
Dy160 O174 2.275 1_554 S
Dy160 C182 2.738 . S
Dy161 O164 2.298 . S
Dy161 O167 2.275 1_556 S
Dy161 O169 2.307 . S
Dy161 O171 2.395 1_556 S
Dy161 O172 2.379 . S
Dy161 O175 2.339 . S
Dy161 C191 2.738 . S
C162 O174 1.254 . S
C162 O175 1.257 . S
O163 Dy160 2.307 . S
O163 C173 1.266 1_554 S
O164 Dy161 2.298 . S
O164 C173 1.236 . S
O165 Dy160 2.395 1_556 S
O165 C182 1.255 1_556 S
O166 Dy160 2.379 . S
O166 C182 1.249 . S
O167 Dy161 2.275 1_554 S
O167 C183 1.254 . S
O168 Dy160 2.339 . S
O168 C183 1.257 . S
O169 Dy161 2.307 . S
O169 C184 1.266 1_556 S
O170 Dy160 2.298 . S
O170 C184 1.236 . S
O171 Dy161 2.395 1_554 S
O171 C191 1.255 1_554 S
O172 Dy161 2.379 . S
O172 C191 1.249 . S
C173 O163 1.266 1_556 S
C173 O164 1.236 . S
O174 Dy160 2.275 1_556 S
O174 C162 1.254 . S
O175 Dy161 2.339 . S
O175 C162 1.257 . S
C176 C179 1.344 . S
C176 C180 1.328 . S
C176 C182 1.516 . S
C177 C178 1.304 . S
C177 C181 1.323 . S
C178 C177 1.304 . S
C178 C179 1.371 . S
C178 H192 0.930 1_554 S
C179 C176 1.344 . S
C179 C178 1.371 . S
C179 H193 0.931 1_554 S
C180 C176 1.328 . S
C180 C181 1.433 . S
C180 H194 0.931 . S
C181 C177 1.323 . S
C181 C180 1.433 . S
C181 H195 0.933 . S
C182 Dy160 2.738 . S
C182 O165 1.255 1_554 S
C182 O166 1.249 . S
C182 C176 1.516 . S
C183 O167 1.254 . S
C183 O168 1.257 . S
C184 O169 1.266 1_554 S
C184 O170 1.236 . S
C185 C188 1.344 . S
C185 C189 1.328 . S
C185 C191 1.516 . S
C186 C187 1.304 . S
C186 C190 1.323 . S
C187 C186 1.304 . S
C187 C188 1.371 . S
C187 H196 0.930 1_556 S
C188 C185 1.344 . S
C188 C187 1.371 . S
C188 H197 0.931 1_556 S
C189 C185 1.328 . S
C189 C190 1.433 . S
C189 H198 0.931 . S
C190 C186 1.323 . S
C190 C189 1.433 . S
C190 H199 0.933 . S
C191 Dy161 2.738 . S
C191 O171 1.255 1_556 S
C191 O172 1.249 . S
C191 C185 1.516 . S
H192 C178 0.930 1_556 S
H193 C179 0.931 1_556 S
H194 C180 0.931 . S
H195 C181 0.933 . S
H196 C187 0.930 1_554 S
H197 C188 0.931 1_554 S
H198 C189 0.931 . S
H199 C190 0.933 . S
Dy200 O203 2.307 . S
Dy200 O205 2.395 1_554 S
Dy200 O206 2.379 . S
Dy200 O208 2.339 . S
Dy200 O210 2.298 . S
Dy200 O214 2.275 1_554 S
Dy200 C222 2.738 1_554 S
Dy201 O204 2.298 1_565 S
Dy201 O207 2.275 1_566 S
Dy201 O209 2.307 . S
Dy201 O211 2.395 1_556 S
Dy201 O212 2.379 . S
Dy201 O215 2.339 . S
Dy201 C231 2.738 1_556 S
C202 O214 1.263 . S
C202 O215 1.239 1_545 S
O203 Dy200 2.307 . S
O203 C213 1.266 . S
O204 Dy201 2.298 1_545 S
O204 C213 1.236 1_556 S
O205 Dy200 2.395 1_556 S
O205 C222 1.255 . S
O206 Dy200 2.379 . S
O206 C222 1.249 1_554 S
O207 Dy201 2.275 1_544 S
O207 C223 1.254 . S
O208 Dy200 2.339 . S
O208 C223 1.257 . S
O209 Dy201 2.307 . S
O209 C224 1.266 1_565 S
O210 Dy200 2.298 . S
O210 C224 1.236 1_554 S
O211 Dy201 2.395 1_554 S
O211 C231 1.255 . S
O212 Dy201 2.379 . S
O212 C231 1.249 1_556 S
C213 O203 1.266 . S
C213 O204 1.236 1_554 S
O214 Dy200 2.275 1_556 S
O214 C202 1.263 . S
O215 Dy201 2.339 . S
O215 C202 1.239 1_565 S
C216 C219 1.344 . S
C216 C220 1.328 1_556 S
C216 C222 1.516 . S
C217 C218 1.304 . S
C217 C221 1.323 1_556 S
C218 C217 1.304 . S
C218 C219 1.371 . S
C218 H232 0.930 . S
C219 C216 1.344 . S
C219 C218 1.371 . S
C219 H233 0.931 . S
C220 C216 1.328 1_554 S
C220 C221 1.433 . S
C220 H234 0.931 . S
C221 C217 1.323 1_554 S
C221 C220 1.433 . S
C221 H235 0.933 . S
C222 Dy200 2.738 1_556 S
C222 O205 1.255 . S
C222 O206 1.249 1_556 S
C222 C216 1.516 . S
C223 O207 1.254 . S
C223 O208 1.257 . S
C224 O209 1.266 1_545 S
C224 O210 1.236 1_556 S
C225 C228 1.344 . S
C225 C229 1.328 1_554 S
C225 C231 1.516 . S
C226 C227 1.304 . S
C226 C230 1.323 1_554 S
C227 C226 1.304 . S
C227 C228 1.371 . S
C227 H236 0.930 . S
C228 C225 1.344 . S
C228 C227 1.371 . S
C228 H237 0.931 . S
C229 C225 1.328 1_556 S
C229 C230 1.433 . S
C229 H238 0.931 . S
C230 C226 1.323 1_556 S
C230 C229 1.433 . S
C230 H239 0.933 . S
C231 Dy201 2.738 1_554 S
C231 O211 1.255 . S
C231 O212 1.249 1_554 S
C231 C225 1.516 . S
H232 C218 0.930 . S
H233 C219 0.931 . S
H234 C220 0.931 . S
H235 C221 0.933 . S
H236 C227 0.930 . S
H237 C228 0.931 . S
H238 C229 0.931 . S
H239 C230 0.933 . S
C240 C241 1.369 . S
C240 C242 1.419 . S
C240 H244 0.930 . S
C241 C240 1.369 . S
C241 C250 1.429 . S
C242 C240 1.419 . S
C242 C243 1.363 . S
C242 H245 0.929 . S
C243 C242 1.363 . S
C243 C249 1.428 . S
H244 C240 0.930 . S
H245 C242 0.929 . S
S246 N247 1.613 . S
S246 N248 1.610 . S
N247 S246 1.613 . S
N247 C250 1.350 . S
N248 S246 1.610 . S
N248 C249 1.351 . S
C249 C243 1.428 . S
C249 N248 1.351 . S
C249 C250 1.434 . S
C250 C241 1.429 . S
C250 N247 1.350 . S
C250 C249 1.434 . S
C251 C252 1.369 . S
C251 C253 1.419 . S
C251 H255 0.930 . S
C252 C251 1.369 . S
C252 C261 1.429 . S
C253 C251 1.419 . S
C253 C254 1.363 . S
C253 H256 0.929 . S
C254 C253 1.363 . S
C254 C260 1.428 . S
H255 C251 0.930 . S
H256 C253 0.929 . S
S257 N258 1.613 . S
S257 N259 1.610 . S
N258 S257 1.613 . S
N258 C261 1.350 . S
N259 S257 1.610 . S
N259 C260 1.351 . S
C260 C254 1.428 . S
C260 N259 1.351 . S
C260 C261 1.434 . S
C261 C252 1.429 . S
C261 N258 1.350 . S
C261 C260 1.434 . S
C262 C263 1.369 . S
C262 C264 1.419 . S
C262 H266 0.930 . S
C263 C262 1.369 . S
C263 C272 1.429 1_565 S
C264 C262 1.419 . S
C264 C265 1.363 . S
C264 H267 0.929 . S
C265 C264 1.363 . S
C265 C271 1.428 . S
H266 C262 0.930 . S
H267 C264 0.929 . S
S268 N269 1.613 . S
S268 N270 1.610 . S
N269 S268 1.613 . S
N269 C272 1.348 . S
N270 S268 1.610 . S
N270 C271 1.351 1_545 S
C271 C265 1.428 . S
C271 N270 1.351 1_565 S
C271 C272 1.435 1_565 S
C272 C263 1.429 1_545 S
C272 N269 1.348 . S
C272 C271 1.435 1_545 S
C273 C274 1.369 . S
C273 C275 1.419 . S
C273 H277 0.930 . S
C274 C273 1.369 . S
C274 C283 1.429 . S
C275 C273 1.419 . S
C275 C276 1.363 . S
C275 H278 0.929 . S
C276 C275 1.363 . S
C276 C282 1.428 . S
H277 C273 0.930 . S
H278 C275 0.929 . S
S279 N280 1.613 . S
S279 N281 1.610 . S
N280 S279 1.613 . S
N280 C283 1.350 . S
N281 S279 1.610 . S
N281 C282 1.351 . S
C282 C276 1.428 . S
C282 N281 1.351 . S
C282 C283 1.434 . S
C283 C274 1.429 . S
C283 N280 1.350 . S
C283 C282 1.434 . S
C284 C285 1.369 . S
C284 C286 1.419 . S
C284 H288 0.930 . S
C285 C284 1.369 . S
C285 C294 1.429 . S
C286 C284 1.419 . S
C286 C287 1.363 . S
C286 H289 0.929 . S
C287 C286 1.363 . S
C287 C293 1.428 . S
H288 C284 0.930 . S
H289 C286 0.929 . S
S290 N291 1.613 . S
S290 N292 1.611 1_455 S
N291 S290 1.613 . S
N291 C294 1.350 . S
N292 S290 1.611 1_655 S
N292 C293 1.351 1_655 S
C293 C287 1.428 . S
C293 N292 1.351 1_455 S
C293 C294 1.434 . S
C294 C285 1.429 . S
C294 N291 1.350 . S
C294 C293 1.434 . S
C295 C296 1.369 . S
C295 C297 1.419 . S
C295 H299 0.930 . S
C296 C295 1.369 . S
C296 C305 1.429 . S
C297 C295 1.419 . S
C297 C298 1.363 . S
C297 H300 0.929 . S
C298 C297 1.363 . S
C298 C304 1.428 . S
H299 C295 0.930 . S
H300 C297 0.929 . S
S301 N302 1.613 . S
S301 N303 1.610 . S
N302 S301 1.613 . S
N302 C305 1.350 . S
N303 S301 1.610 . S
N303 C304 1.351 . S
C304 C298 1.428 . S
C304 N303 1.351 . S
C304 C305 1.434 . S
C305 C296 1.429 . S
C305 N302 1.350 . S
C305 C304 1.434 . S
C306 C307 1.369 1_556 S
C306 C308 1.419 . S
C306 H310 0.930 . S
C307 C306 1.369 1_554 S
C307 C316 1.429 . S
C308 C306 1.419 . S
C308 C309 1.363 1_556 S
C308 H311 0.929 . S
C309 C308 1.363 1_554 S
C309 C315 1.428 . S
H310 C306 0.930 . S
H311 C308 0.929 . S
S312 N313 1.613 . S
S312 N314 1.610 . S
N313 S312 1.613 . S
N313 C316 1.350 . S
N314 S312 1.610 . S
N314 C315 1.351 . S
C315 C309 1.428 . S
C315 N314 1.351 . S
C315 C316 1.434 . S
C316 C307 1.429 . S
C316 N313 1.350 . S
C316 C315 1.434 . S
C317 C318 1.369 . S
C317 C319 1.419 . S
C317 H321 0.930 1_556 S
C318 C317 1.369 . S
C318 C327 1.429 1_545 S
C319 C317 1.419 . S
C319 C320 1.363 . S
C319 H322 0.929 1_556 S
C320 C319 1.363 . S
C320 C326 1.428 1_545 S
H321 C317 0.930 1_554 S
H322 C319 0.929 1_554 S
S323 N324 1.613 . S
S323 N325 1.610 . S
N324 S323 1.613 . S
N324 C327 1.350 . S
N325 S323 1.610 . S
N325 C326 1.351 . S
C326 C320 1.428 1_565 S
C326 N325 1.351 . S
C326 C327 1.434 . S
C327 C318 1.429 1_565 S
C327 N324 1.350 . S
C327 C326 1.434 . S
C328 C329 1.369 . S
C328 C330 1.419 . S
C328 H332 0.930 . S
C329 C328 1.369 . S
C329 C338 1.429 . S
C330 C328 1.419 . S
C330 C331 1.363 . S
C330 H333 0.929 . S
C331 C330 1.363 . S
C331 C337 1.428 . S
H332 C328 0.930 . S
H333 C330 0.929 . S
S334 N335 1.613 . S
S334 N336 1.610 . S
N335 S334 1.613 . S
N335 C338 1.350 . S
N336 S334 1.610 . S
N336 C337 1.351 . S
C337 C331 1.428 . S
C337 N336 1.351 . S
C337 C338 1.434 . S
C338 C329 1.429 . S
C338 N335 1.350 . S
C338 C337 1.434 . S
C339 C340 1.369 1_554 S
C339 C341 1.419 . S
C339 H343 0.930 . S
C340 C339 1.369 1_556 S
C340 C349 1.429 . S
C341 C339 1.419 . S
C341 C342 1.363 . S
C341 H344 0.929 . S
C342 C341 1.363 . S
C342 C348 1.428 1_554 S
H343 C339 0.930 . S
H344 C341 0.929 . S
S345 N346 1.613 . S
S345 N347 1.610 . S
N346 S345 1.613 . S
N346 C349 1.350 . S
N347 S345 1.610 . S
N347 C348 1.351 . S
C348 C342 1.428 1_556 S
C348 N347 1.351 . S
C348 C349 1.434 . S
C349 C340 1.429 . S
C349 N346 1.350 . S
C349 C348 1.434 . S
C350 C351 1.369 . S
C350 C352 1.419 . S
C350 H354 0.930 . S
C351 C350 1.369 . S
C351 C360 1.429 . S
C352 C350 1.419 . S
C352 C353 1.363 . S
C352 H355 0.929 . S
C353 C352 1.363 . S
C353 C359 1.428 . S
H354 C350 0.930 . S
H355 C352 0.929 . S
S356 N357 1.607 . S
S356 N358 1.626 . S
N357 S356 1.607 . S
N357 C360 1.350 . S
N358 S356 1.626 . S
N358 C359 1.351 . S
C359 C353 1.428 . S
C359 N358 1.351 . S
C359 C360 1.434 . S
C360 C351 1.429 . S
C360 N357 1.350 . S
C360 C359 1.434 . S
C361 C362 1.369 . S
C361 C363 1.419 . S
C361 H365 0.930 . S
C362 C361 1.369 . S
C362 C371 1.429 . S
C363 C361 1.419 . S
C363 C364 1.363 . S
C363 H366 0.929 1_556 S
C364 C363 1.363 . S
C364 C370 1.428 . S
H365 C361 0.930 . S
H366 C363 0.929 1_554 S
S367 N368 1.613 . S
S367 N369 1.610 . S
N368 S367 1.613 . S
N368 C371 1.350 . S
N369 S367 1.610 . S
N369 C370 1.351 . S
C370 C364 1.428 . S
C370 N369 1.351 . S
C370 C371 1.434 . S
C371 C362 1.429 . S
C371 N368 1.350 . S
C371 C370 1.434 . S
C372 C373 1.369 . S
C372 C374 1.419 . S
C372 H376 0.930 . S
C373 C372 1.369 . S
C373 C382 1.429 . S
C374 C372 1.419 . S
C374 C375 1.363 . S
C374 H377 0.929 . S
C375 C374 1.363 . S
C375 C381 1.428 . S
H376 C372 0.930 . S
H377 C374 0.929 . S
S378 N379 1.613 . S
S378 N380 1.610 . S
N379 S378 1.613 . S
N379 C382 1.350 . S
N380 S378 1.610 . S
N380 C381 1.351 . S
C381 C375 1.428 . S
C381 N380 1.351 . S
C381 C382 1.434 . S
C382 C373 1.429 . S
C382 N379 1.350 . S
C382 C381 1.434 . S
C383 C384 1.369 . S
C383 C385 1.419 . S
C383 H387 0.930 . S
C384 C383 1.369 . S
C384 C393 1.429 . S
C385 C383 1.419 . S
C385 C386 1.363 . S
C385 H388 0.929 . S
C386 C385 1.363 . S
C386 C392 1.428 . S
H387 C383 0.930 . S
H388 C385 0.929 . S
S389 N390 1.613 . S
S389 N391 1.610 . S
N390 S389 1.613 . S
N390 C393 1.350 . S
N391 S389 1.610 . S
N391 C392 1.351 . S
C392 C386 1.428 . S
C392 N391 1.351 . S
C392 C393 1.434 . S
C393 C384 1.429 . S
C393 N390 1.350 . S
C393 C392 1.434 . S
C394 C395 1.369 . S
C394 C396 1.419 . S
C394 H398 0.930 . S
C395 C394 1.369 . S
C395 C404 1.429 . S
C396 C394 1.419 . S
C396 C397 1.363 . S
C396 H399 0.929 . S
C397 C396 1.363 . S
C397 C403 1.428 . S
H398 C394 0.930 . S
H399 C396 0.929 . S
S400 N401 1.613 . S
S400 N402 1.610 . S
N401 S400 1.613 . S
N401 C404 1.350 . S
N402 S400 1.610 . S
N402 C403 1.351 . S
C403 C397 1.428 . S
C403 N402 1.351 . S
C403 C404 1.434 . S
C404 C395 1.429 . S
C404 N401 1.350 . S
C404 C403 1.434 . S
C405 C406 1.369 . S
C405 C407 1.419 . S
C405 H409 0.930 . S
C406 C405 1.369 . S
C406 C415 1.429 . S
C407 C405 1.419 . S
C407 C408 1.363 . S
C407 H410 0.929 . S
C408 C407 1.363 . S
C408 C414 1.428 . S
H409 C405 0.930 . S
H410 C407 0.929 . S
S411 N412 1.613 . S
S411 N413 1.610 . S
N412 S411 1.613 . S
N412 C415 1.350 . S
N413 S411 1.610 . S
N413 C414 1.351 . S
C414 C408 1.428 . S
C414 N413 1.351 . S
C414 C415 1.434 . S
C415 C406 1.429 . S
C415 N412 1.350 . S
C415 C414 1.434 . S
C416 C417 1.369 . S
C416 C418 1.419 . S
C416 H420 0.930 . S
C417 C416 1.369 . S
C417 C426 1.429 . S
C418 C416 1.419 . S
C418 C419 1.363 . S
C418 H421 0.929 . S
C419 C418 1.363 . S
C419 C425 1.428 . S
H420 C416 0.930 . S
H421 C418 0.929 . S
S422 N423 1.613 . S
S422 N424 1.610 . S
N423 S422 1.613 . S
N423 C426 1.350 . S
N424 S422 1.610 . S
N424 C425 1.351 . S
C425 C419 1.428 . S
C425 N424 1.351 . S
C425 C426 1.434 . S
C426 C417 1.429 . S
C426 N423 1.350 . S
C426 C425 1.434 . S
C427 C428 1.369 . S
C427 C429 1.419 . S
C427 H431 0.930 . S
C428 C427 1.369 . S
C428 C437 1.429 . S
C429 C427 1.419 . S
C429 C430 1.363 . S
C429 H432 0.929 . S
C430 C429 1.363 . S
C430 C436 1.428 . S
H431 C427 0.930 . S
H432 C429 0.929 . S
S433 N434 1.613 . S
S433 N435 1.610 1_565 S
N434 S433 1.613 . S
N434 C437 1.350 1_565 S
N435 S433 1.610 1_545 S
N435 C436 1.351 . S
C436 C430 1.428 . S
C436 N435 1.351 . S
C436 C437 1.434 . S
C437 C428 1.429 . S
C437 N434 1.350 1_545 S
C437 C436 1.434 . S
C241 C213 2.856 . S
C243 C26 2.848 . S
C252 C13 3.889 . S
C254 C66 3.760 1_455 S
C263 C53 3.505 1_565 S
C265 C93 3.369 . S
C274 C133 3.095 . S
C276 C106 2.832 . S
C285 C186 1.998 . S
C287 C146 2.140 1_455 S
C296 C173 3.305 . S
C298 C226 2.964 . S
C307 C184 1.513 . S
C309 C17 1.476 . S
C318 C224 3.280 . S
C320 C57 3.280 . S
C329 C104 4.602 . S
C331 C24 4.600 . S
C340 C144 3.424 . S
C342 C64 3.439 . S
C351 C177 0.805 . S
C353 C97 0.809 . S
C362 C137 0.874 . S
C364 C217 0.767 . S
C373 C2 0.917 . S
C375 C23 0.925 . S
C384 C42 1.015 . S
C386 C63 0.999 . S
C395 C103 1.108 . S
C397 C82 1.109 . S
C406 C143 0.916 . S
C408 C122 0.930 . S
C417 C183 1.132 . S
C419 C162 1.149 . S
C428 C202 1.188 . S
C430 C223 1.185 . S
