# Generated by pormake.
# Topology ukh, (4)-cn, num edge types: 1
# Building blocks:
#     Node 0, Type 0, BuildingBlock: TATPOV_clean_sbu_0, # of connection points: 4
#     Node 1, Type 0, BuildingBlock: TATPOV_clean_sbu_0, # of connection points: 4
#     Node 2, Type 0, BuildingBlock: TATPOV_clean_sbu_0, # of connection points: 4
#     Node 3, Type 0, BuildingBlock: TATPOV_clean_sbu_0, # of connection points: 4
#     Node 4, Type 0, BuildingBlock: TATPOV_clean_sbu_0, # of connection points: 4
#     Node 5, Type 0, BuildingBlock: TATPOV_clean_sbu_0, # of connection points: 4
#     Node 6, Type 0, BuildingBlock: TATPOV_clean_sbu_0, # of connection points: 4
#     Node 7, Type 0, BuildingBlock: TATPOV_clean_sbu_0, # of connection points: 4
#     Node 8, Type 0, BuildingBlock: TATPOV_clean_sbu_0, # of connection points: 4
#     Node 9, Type 0, BuildingBlock: TATPOV_clean_sbu_0, # of connection points: 4
#     Node 10, Type 0, BuildingBlock: TATPOV_clean_sbu_0, # of connection points: 4
#     Node 11, Type 0, BuildingBlock: TATPOV_clean_sbu_0, # of connection points: 4
#     Edge 12, Type (0, 0), BuildingBlock: TEMPAE_clean_linker_10, # of connection points: 2
#     Edge 13, Type (0, 0), BuildingBlock: TEMPAE_clean_linker_10, # of connection points: 2
#     Edge 14, Type (0, 0), BuildingBlock: TEMPAE_clean_linker_10, # of connection points: 2
#     Edge 15, Type (0, 0), BuildingBlock: TEMPAE_clean_linker_10, # of connection points: 2
#     Edge 16, Type (0, 0), BuildingBlock: TEMPAE_clean_linker_10, # of connection points: 2
#     Edge 17, Type (0, 0), BuildingBlock: TEMPAE_clean_linker_10, # of connection points: 2
#     Edge 18, Type (0, 0), BuildingBlock: TEMPAE_clean_linker_10, # of connection points: 2
#     Edge 19, Type (0, 0), BuildingBlock: TEMPAE_clean_linker_10, # of connection points: 2
#     Edge 20, Type (0, 0), BuildingBlock: TEMPAE_clean_linker_10, # of connection points: 2
#     Edge 21, Type (0, 0), BuildingBlock: TEMPAE_clean_linker_10, # of connection points: 2
#     Edge 22, Type (0, 0), BuildingBlock: TEMPAE_clean_linker_10, # of connection points: 2
#     Edge 23, Type (0, 0), BuildingBlock: TEMPAE_clean_linker_10, # of connection points: 2
#     Edge 24, Type (0, 0), BuildingBlock: TEMPAE_clean_linker_10, # of connection points: 2
#     Edge 25, Type (0, 0), BuildingBlock: TEMPAE_clean_linker_10, # of connection points: 2
#     Edge 26, Type (0, 0), BuildingBlock: TEMPAE_clean_linker_10, # of connection points: 2
#     Edge 27, Type (0, 0), BuildingBlock: TEMPAE_clean_linker_10, # of connection points: 2
#     Edge 28, Type (0, 0), BuildingBlock: TEMPAE_clean_linker_10, # of connection points: 2
#     Edge 29, Type (0, 0), BuildingBlock: TEMPAE_clean_linker_10, # of connection points: 2
#     Edge 30, Type (0, 0), BuildingBlock: TEMPAE_clean_linker_10, # of connection points: 2
#     Edge 31, Type (0, 0), BuildingBlock: TEMPAE_clean_linker_10, # of connection points: 2
#     Edge 32, Type (0, 0), BuildingBlock: TEMPAE_clean_linker_10, # of connection points: 2
#     Edge 33, Type (0, 0), BuildingBlock: TEMPAE_clean_linker_10, # of connection points: 2
#     Edge 34, Type (0, 0), BuildingBlock: TEMPAE_clean_linker_10, # of connection points: 2
#     Edge 35, Type (0, 0), BuildingBlock: TEMPAE_clean_linker_10, # of connection points: 2
# Relax obj value: 0.152
# Max RMSD: 0.200
# Mean RMSD: 0.200
data_MOF--net-ukh--node1-TATPOV_clean_sbu_0--edge1-TEMPAE_clean_linker_10
_symmetry_space_group_name_H-M    P1
_symmetry_Int_Tables_number       1
_symmetry_cell_setting            triclinic
loop_
_symmetry_equiv_pos_as_xyz
'x, y, z'
_cell_length_a     31.735072
_cell_length_b     31.717353
_cell_length_c     65.72246
_cell_angle_alpha  90.093977
_cell_angle_beta   89.967928
_cell_angle_gamma 120.13931
loop_
_atom_site_label
_atom_site_type_symbol
_atom_site_fract_x
_atom_site_fract_y
_atom_site_fract_z
_atom_type_partial_charge
Zn0 Zn 0.34533 0.23856 0.01863 0.0
Zn1 Zn 0.30432 0.20516 0.05549 0.0
O2 O 0.31893 0.15327 0.0443 0.0
O3 O 0.35481 0.18088 0.0147 0.0
O4 O 0.28102 0.18365 0.08418 0.0
O5 O 0.39806 0.30063 0.03102 0.0
O6 O 0.36022 0.27517 0.06034 0.0
C7 C 0.33853 0.14815 0.02825 0.0
C8 C 0.24425 0.21693 0.02277 0.0
O9 O 0.24723 0.20347 0.0407 0.0
O10 O 0.28061 0.23359 0.01086 0.0
C11 C 0.25639 0.13971 0.09017 0.0
O12 O 0.24294 0.10419 0.0769 0.0
C13 C 0.39436 0.3081 0.04968 0.0
Zn14 Zn 0.09308 0.3579 0.34956 0.0
Zn15 Zn 0.0915 0.32091 0.38653 0.0
O16 O 0.15604 0.33616 0.37308 0.0
O17 O 0.16018 0.3694 0.34326 0.0
O18 O 0.09969 0.30271 0.41498 0.0
O19 O 0.08418 0.41075 0.36199 0.0
O20 O 0.07532 0.37525 0.39166 0.0
C21 C 0.17868 0.35464 0.3565 0.0
C22 C 0.0153 0.256 0.35634 0.0
O23 O 0.03427 0.26082 0.37389 0.0
O24 O 0.03299 0.29134 0.34389 0.0
C25 C 0.06628 0.28727 0.42835 0.0
O26 O 0.02306 0.27993 0.42326 0.0
C27 C 0.07466 0.40812 0.3808 0.0
Zn28 Zn 0.73191 0.10462 0.68821 0.0
Zn29 Zn 0.76111 0.09177 0.72508 0.0
O30 O 0.81518 0.15906 0.71539 0.0
O31 O 0.79078 0.17191 0.68589 0.0
O32 O 0.77962 0.0869 0.75394 0.0
O33 O 0.66887 0.0946 0.69971 0.0
O34 O 0.69098 0.07784 0.7289 0.0
C35 C 0.82237 0.18599 0.69989 0.0
C36 C 0.75081 0.02302 0.69124 0.0
O37 O 0.76283 0.03724 0.70954 0.0
O38 O 0.73619 0.04489 0.67955 0.0
C39 C 0.82294 0.10368 0.76034 0.0
O40 O 0.85934 0.12458 0.74743 0.0
C41 C 0.65934 0.08075 0.71803 0.0
Zn42 Zn 0.61076 0.73198 0.02078 0.0
Zn43 Zn 0.65234 0.76399 0.05761 0.0
O44 O 0.63754 0.81624 0.04717 0.0
O45 O 0.60099 0.78965 0.0176 0.0
O46 O 0.6757 0.78478 0.08632 0.0
O47 O 0.55828 0.66938 0.03283 0.0
O48 O 0.59669 0.6937 0.0621 0.0
C49 C 0.61756 0.8219 0.03139 0.0
C50 C 0.71202 0.75363 0.02433 0.0
O51 O 0.70937 0.76644 0.04244 0.0
O52 O 0.67544 0.73738 0.01255 0.0
C53 C 0.70411 0.82837 0.09211 0.0
O54 O 0.72161 0.86359 0.07858 0.0
C55 C 0.56238 0.66116 0.05135 0.0
Zn56 Zn 0.86747 0.62044 0.34808 0.0
Zn57 Zn 0.86964 0.65851 0.38499 0.0
O58 O 0.80488 0.64277 0.3717 0.0
O59 O 0.80013 0.60869 0.34198 0.0
O60 O 0.86186 0.67733 0.41341 0.0
O61 O 0.87685 0.5681 0.36073 0.0
O62 O 0.88588 0.60436 0.39027 0.0
C63 C 0.78189 0.6238 0.35523 0.0
C64 C 0.9452 0.72266 0.35449 0.0
O65 O 0.92657 0.71826 0.37209 0.0
O66 O 0.92735 0.68698 0.34215 0.0
C67 C 0.89532 0.69254 0.42676 0.0
O68 O 0.93836 0.69945 0.42162 0.0
C69 C 0.88655 0.57126 0.37953 0.0
Zn70 Zn 0.23219 0.86983 0.68668 0.0
Zn71 Zn 0.20241 0.88149 0.72365 0.0
O72 O 0.14834 0.81466 0.71352 0.0
O73 O 0.17324 0.80262 0.68395 0.0
O74 O 0.18357 0.88518 0.75257 0.0
O75 O 0.29511 0.87949 0.6982 0.0
O76 O 0.27235 0.89503 0.72752 0.0
C77 C 0.14138 0.78819 0.69785 0.0
C78 C 0.21325 0.95138 0.69035 0.0
O79 O 0.20101 0.93663 0.70856 0.0
O80 O 0.22798 0.92983 0.67849 0.0
C81 C 0.14079 0.87221 0.75873 0.0
O82 O 0.10503 0.85625 0.74547 0.0
C83 C 0.30423 0.89256 0.71663 0.0
Zn84 Zn 0.72416 0.6171 0.64881 0.0
Zn85 Zn 0.76057 0.65785 0.61246 0.0
O86 O 0.811 0.64385 0.62567 0.0
O87 O 0.78102 0.60752 0.65493 0.0
O88 O 0.78819 0.68074 0.58437 0.0
O89 O 0.6634 0.56426 0.63559 0.0
O90 O 0.69059 0.60252 0.60646 0.0
C91 C 0.81513 0.62457 0.64199 0.0
C92 C 0.74561 0.71827 0.6438 0.0
O93 O 0.76077 0.7154 0.62619 0.0
O94 O 0.72822 0.68195 0.65575 0.0
C95 C 0.79353 0.65047 0.57356 0.0
O96 O 0.78116 0.60763 0.58133 0.0
C97 C 0.65697 0.56827 0.61685 0.0
Zn98 Zn 0.09494 0.73381 0.98247 0.0
Zn99 Zn 0.08639 0.76453 0.9454 0.0
O100 O 0.15298 0.81757 0.95619 0.0
O101 O 0.16233 0.79162 0.98597 0.0
O102 O 0.08572 0.78326 0.91622 0.0
O103 O 0.08507 0.67055 0.97135 0.0
O104 O 0.07111 0.6939 0.94187 0.0
C105 C 0.17825 0.82372 0.97216 0.0
C106 C 0.01498 0.75495 0.97763 0.0
O107 O 0.031 0.76749 0.95958 0.0
O108 O 0.03517 0.73927 0.98973 0.0
C109 C 0.08928 0.82263 0.90972 0.0
O110 O 0.0931 0.85573 0.92281 0.0
C111 C 0.07251 0.66163 0.95287 0.0
Zn112 Zn 0.34869 0.11101 0.31579 0.0
Zn113 Zn 0.31019 0.09911 0.27818 0.0
O114 O 0.3239 0.16654 0.28765 0.0
O115 O 0.359 0.17903 0.31766 0.0
O116 O 0.29198 0.09672 0.24871 0.0
O117 O 0.40189 0.09956 0.30569 0.0
O118 O 0.36557 0.08379 0.2759 0.0
C119 C 0.3431 0.19352 0.30322 0.0
C120 C 0.24716 0.03056 0.31102 0.0
O121 O 0.25127 0.0448 0.29264 0.0
O122 O 0.28272 0.05202 0.32327 0.0
C123 C 0.25236 0.09114 0.24148 0.0
O124 O 0.21749 0.08543 0.25395 0.0
C125 C 0.39877 0.08578 0.28741 0.0
Zn126 Zn 0.23933 0.35775 0.65005 0.0
Zn127 Zn 0.20206 0.31731 0.61369 0.0
O128 O 0.15195 0.33116 0.62737 0.0
O129 O 0.18263 0.36729 0.65664 0.0
O130 O 0.17389 0.29496 0.58562 0.0
O131 O 0.29983 0.41072 0.63676 0.0
O132 O 0.27189 0.37271 0.60759 0.0
C133 C 0.1482 0.3503 0.64385 0.0
C134 C 0.21771 0.25658 0.64452 0.0
O135 O 0.20217 0.25958 0.62703 0.0
O136 O 0.23535 0.2928 0.65657 0.0
C137 C 0.16866 0.32562 0.5751 0.0
O138 O 0.18137 0.36833 0.58315 0.0
C139 C 0.30579 0.40686 0.61795 0.0
Zn140 Zn 0.85984 0.23712 0.98501 0.0
Zn141 Zn 0.86571 0.20475 0.94779 0.0
O142 O 0.80011 0.15203 0.95942 0.0
O143 O 0.79279 0.1792 0.9893 0.0
O144 O 0.86436 0.18501 0.91859 0.0
O145 O 0.86875 0.29986 0.9737 0.0
O146 O 0.88025 0.27501 0.94407 0.0
C147 C 0.77601 0.14648 0.9757 0.0
C148 C 0.93962 0.21602 0.97909 0.0
O149 O 0.92229 0.20273 0.96124 0.0
O150 O 0.92023 0.23209 0.99146 0.0
C151 C 0.86825 0.14962 0.91174 0.0
O152 O 0.87397 0.12104 0.92451 0.0
C153 C 0.8797 0.30782 0.95505 0.0
Zn154 Zn 0.612 0.86774 0.31637 0.0
Zn155 Zn 0.65186 0.88073 0.27893 0.0
O156 O 0.63727 0.81285 0.28792 0.0
O157 O 0.60138 0.7995 0.31778 0.0
O158 O 0.67163 0.88421 0.24964 0.0
O159 O 0.5595 0.87995 0.30597 0.0
O160 O 0.5968 0.89638 0.27639 0.0
C161 C 0.61751 0.78536 0.30327 0.0
C162 C 0.71382 0.94795 0.31244 0.0
O163 O 0.71024 0.93426 0.29397 0.0
O164 O 0.67784 0.92628 0.32445 0.0
C165 C 0.70861 0.88311 0.2429 0.0
O166 O 0.73899 0.88077 0.2558 0.0
C167 C 0.56329 0.89423 0.28775 0.0
C168 C 0.54938 0.59388 0.07489 0.0
C169 C 0.53193 0.61123 0.05928 0.0
C170 C 0.52719 0.54372 0.0789 0.0
C171 C 0.48662 0.51063 0.06711 0.0
C172 C 0.46586 0.52853 0.0529 0.0
C173 C 0.48894 0.57865 0.0491 0.0
C174 C 0.54991 0.52613 0.09441 0.0
C175 C 0.42188 0.49451 0.04032 0.0
C176 C 0.46776 0.3907 0.04777 0.0
C177 C 0.42508 0.35768 0.05799 0.0
C178 C 0.49099 0.44064 0.05205 0.0
C179 C 0.4707 0.45791 0.0668 0.0
C180 C 0.43049 0.4243 0.07861 0.0
C181 C 0.40814 0.37433 0.07409 0.0
C182 C 0.53458 0.47521 0.03943 0.0
C183 C 0.40829 0.44121 0.09468 0.0
H184 H 0.58252 0.61897 0.0829 0.0
H185 H 0.47487 0.59203 0.03726 0.0
H186 H 0.52165 0.49425 0.10292 0.0
H187 H 0.57327 0.51451 0.08647 0.0
H188 H 0.57297 0.55536 0.10541 0.0
H189 H 0.40673 0.51427 0.03189 0.0
H190 H 0.4323 0.47513 0.02911 0.0
H191 H 0.39285 0.4666 0.05012 0.0
H192 H 0.48145 0.37785 0.03555 0.0
H193 H 0.37525 0.3489 0.08215 0.0
H194 H 0.56392 0.50269 0.04928 0.0
H195 H 0.52382 0.49507 0.02866 0.0
H196 H 0.54945 0.45583 0.03051 0.0
H197 H 0.43684 0.47267 0.10332 0.0
H198 H 0.38554 0.41149 0.10551 0.0
H199 H 0.38474 0.45324 0.08724 0.0
C200 C 0.06519 0.48112 0.37894 0.0
C201 C 0.05535 0.43834 0.38907 0.0
C202 C 0.0378 0.50365 0.38292 0.0
C203 C -0.00072 0.48247 0.39724 0.0
C204 C -0.0075 0.44221 0.40901 0.0
C205 C 0.02088 0.42062 0.40483 0.0
C206 C 0.0471 0.54735 0.37036 0.0
C207 C 0.95238 0.41906 0.42463 0.0
C208 C 0.93947 0.55894 0.4041 0.0
C209 C 0.9059 0.54128 0.38799 0.0
C210 C 0.96772 0.53744 0.40868 0.0
C211 C 0.96176 0.49735 0.39695 0.0
C212 C 0.92417 0.47628 0.38221 0.0
C213 C 0.89686 0.49869 0.37784 0.0
C214 C 0.00684 0.56049 0.42473 0.0
C215 C 0.91576 0.43277 0.36967 0.0
H216 H 0.09238 0.49535 0.36697 0.0
H217 H 0.01326 0.3876 0.41279 0.0
H218 H 0.01716 0.53634 0.35917 0.0
H219 H 0.04775 0.57614 0.38018 0.0
H220 H 0.08209 0.56306 0.36191 0.0
H221 H 0.95921 0.39658 0.43563 0.0
H222 H 0.94829 0.44704 0.43313 0.0
H223 H 0.91734 0.395 0.4168 0.0
H224 H 0.94647 0.59179 0.41208 0.0
H225 H 0.87036 0.48448 0.36561 0.0
H226 H 0.04235 0.5847 0.41727 0.0
H227 H 0.01047 0.53246 0.43337 0.0
H228 H -0.00072 0.5828 0.43557 0.0
H229 H 0.94647 0.44393 0.35887 0.0
H230 H 0.88137 0.41716 0.36078 0.0
H231 H 0.91443 0.40384 0.37957 0.0
C232 C 0.38715 0.90301 0.71365 0.0
C233 C 0.35446 0.91238 0.72429 0.0
C234 C 0.43726 0.93017 0.71751 0.0
C235 C 0.45509 0.9679 0.73224 0.0
C236 C 0.42195 0.97451 0.74433 0.0
C237 C 0.37182 0.94644 0.74026 0.0
C238 C 0.47136 0.92116 0.70459 0.0
C239 C 0.43947 0.01396 0.76032 0.0
C240 C 0.59084 0.025 0.74084 0.0
C241 C 0.6089 0.0605 0.72547 0.0
C242 C 0.54054 -0.00339 0.74446 0.0
C243 C 0.50795 0.00439 0.73255 0.0
C244 C 0.52643 0.04349 0.71851 0.0
C245 C 0.57671 0.07093 0.71507 0.0
C246 C 0.52231 0.95567 0.75973 0.0
C247 C 0.49292 0.05376 0.70582 0.0
H248 H 0.37382 0.87622 0.7015 0.0
H249 H 0.34672 0.95376 0.74861 0.0
H250 H 0.49105 0.95192 0.69382 0.0
H251 H 0.49901 0.91924 0.71423 0.0
H252 H 0.45166 0.88687 0.69564 0.0
H253 H 0.40996 0.0077 0.77113 0.0
H254 H 0.47057 0.01637 0.769 0.0
H255 H 0.45231 0.04967 0.75279 0.0
H256 H 0.61557 0.01684 0.74899 0.0
H257 H 0.59057 0.09882 0.7034 0.0
H258 H 0.50985 0.92071 0.75156 0.0
H259 H 0.49081 0.95242 0.76839 0.0
H260 H 0.55133 0.9609 0.77061 0.0
H261 H 0.47374 0.02409 0.6945 0.0
H262 H 0.51302 0.08889 0.69751 0.0
H263 H 0.46483 0.05474 0.71553 0.0
C264 C 0.5913 0.55639 0.59253 0.0
C265 C 0.60755 0.53822 0.60828 0.0
C266 C 0.54133 0.53514 0.58821 0.0
C267 C 0.50729 0.49485 0.59987 0.0
C268 C 0.5241 0.47319 0.61415 0.0
C269 C 0.57403 0.49527 0.61822 0.0
C270 C 0.52499 0.55868 0.57257 0.0
C271 C 0.48911 0.42947 0.6266 0.0
C272 C 0.38889 0.47967 0.61922 0.0
C273 C 0.35498 0.43698 0.60919 0.0
C274 C 0.43867 0.5018 0.61482 0.0
C275 C 0.45491 0.48045 0.6001 0.0
C276 C 0.42043 0.44044 0.5884 0.0
C277 C 0.37063 0.41914 0.59306 0.0
C278 C 0.47413 0.54522 0.62735 0.0
C279 C 0.43616 0.41723 0.57231 0.0
H280 H 0.61708 0.58948 0.58469 0.0
H281 H 0.58654 0.48064 0.63017 0.0
H282 H 0.49266 0.53097 0.56408 0.0
H283 H 0.51458 0.58316 0.58038 0.0
H284 H 0.55454 0.58083 0.56157 0.0
H285 H 0.50799 0.41348 0.6351 0.0
H286 H 0.47015 0.44054 0.63774 0.0
H287 H 0.46096 0.40087 0.6167 0.0
H288 H 0.37684 0.49407 0.63147 0.0
H289 H 0.34454 0.38625 0.58515 0.0
H290 H 0.50192 0.57405 0.61744 0.0
H291 H 0.49351 0.53387 0.63812 0.0
H292 H 0.4556 0.56101 0.63626 0.0
H293 H 0.4682 0.44512 0.56375 0.0
H294 H 0.40622 0.39535 0.56141 0.0
H295 H 0.44683 0.39256 0.57972 0.0
C296 C 0.89149 0.39131 0.9577 0.0
C297 C 0.89965 0.35775 0.94709 0.0
C298 C 0.91924 0.44125 0.95357 0.0
C299 C 0.95641 0.45794 0.93865 0.0
C300 C 0.96168 0.42392 0.92658 0.0
C301 C 0.93295 0.374 0.93088 0.0
C302 C 0.91161 0.47635 0.96645 0.0
C303 C 0.00053 0.44024 0.9104 0.0
C304 C 0.01618 0.59381 0.92992 0.0
C305 C 0.0517 0.61122 0.9453 0.0
C306 C -0.01309 0.54358 0.9263 0.0
C307 C -0.00611 0.51046 0.93819 0.0
C308 C 0.03312 0.52824 0.95217 0.0
C309 C 0.06138 0.57847 0.95565 0.0
C310 C 0.94582 0.52608 0.91112 0.0
C311 C 0.0426 0.49411 0.96481 0.0
H312 H 0.86525 0.37879 0.97003 0.0
H313 H 0.93932 0.34817 0.92256 0.0
H314 H 0.94265 0.49562 0.97713 0.0
H315 H 0.91033 0.50429 0.95676 0.0
H316 H 0.87744 0.4575 0.97547 0.0
H317 H -0.00698 0.41032 0.89958 0.0
H318 H 0.00375 0.47173 0.90176 0.0
H319 H 0.03624 0.45209 0.91776 0.0
H320 H 0.00862 0.61902 0.92182 0.0
H321 H 0.0893 0.59189 0.96732 0.0
H322 H 0.91123 0.51484 0.91935 0.0
H323 H 0.94135 0.49392 0.90255 0.0
H324 H 0.95178 0.55517 0.90014 0.0
H325 H 0.01315 0.47568 0.97624 0.0
H326 H 0.078 0.51361 0.97297 0.0
H327 H 0.04247 0.46543 0.95508 0.0
C328 C 0.4704 0.07442 0.29153 0.0
C329 C 0.42867 0.06478 0.28057 0.0
C330 C 0.49308 0.04685 0.28828 0.0
C331 C 0.47306 0.00832 0.27391 0.0
C332 C 0.43338 0.00105 0.26162 0.0
C333 C 0.41176 0.02967 0.26502 0.0
C334 C 0.53616 0.05653 0.30137 0.0
C335 C 0.41116 0.9605 0.2461 0.0
C336 C 0.55102 0.95066 0.26535 0.0
C337 C 0.53371 0.91549 0.28084 0.0
C338 C 0.52954 0.97936 0.26185 0.0
C339 C 0.48962 0.97212 0.27397 0.0
C340 C 0.46927 0.93359 0.28829 0.0
C341 C 0.49178 0.90593 0.29164 0.0
C342 C 0.55214 0.01992 0.24639 0.0
C343 C 0.42593 0.92396 0.3012 0.0
H344 H 0.48397 0.10198 0.30338 0.0
H345 H 0.37949 0.02207 0.25646 0.0
H346 H 0.52492 0.0264 0.31246 0.0
H347 H 0.56573 0.05786 0.2919 0.0
H348 H 0.55089 0.09133 0.30995 0.0
H349 H 0.38717 0.96551 0.23526 0.0
H350 H 0.4398 0.95806 0.23738 0.0
H351 H 0.38897 0.92522 0.25405 0.0
H352 H 0.58343 0.9582 0.25691 0.0
H353 H 0.47791 0.87834 0.30344 0.0
H354 H 0.57415 0.05519 0.25442 0.0
H355 H 0.5237 0.02237 0.23754 0.0
H356 H 0.57636 0.0149 0.23568 0.0
H357 H 0.43694 0.95413 0.31229 0.0
H358 H 0.41103 0.8892 0.30977 0.0
H359 H 0.39655 0.9226 0.29159 0.0
C360 C 0.20436 0.0888 0.21065 0.0
C361 C 0.24701 0.09333 0.21914 0.0
C362 C 0.20029 0.09314 0.18954 0.0
C363 C 0.23985 0.10237 0.17668 0.0
C364 C 0.28253 0.10594 0.18514 0.0
C365 C 0.28554 0.10131 0.20621 0.0
C366 C 0.15413 0.08889 0.18104 0.0
C367 C 0.32558 0.11582 0.17197 0.0
C368 C 0.22686 0.0813 0.11952 0.0
C369 C 0.24692 0.12911 0.11221 0.0
C370 C 0.22229 0.07166 0.14052 0.0
C371 C 0.23807 0.11076 0.1545 0.0
C372 C 0.25627 0.15878 0.14718 0.0
C373 C 0.2605 0.16737 0.12615 0.0
C374 C 0.20259 0.01995 0.14775 0.0
C375 C 0.27334 0.20147 0.16158 0.0
H376 H 0.17435 0.08247 0.2205 0.0
H377 H 0.31861 0.10471 0.21258 0.0
H378 H 0.16223 0.12416 0.17422 0.0
H379 H 0.13938 0.06117 0.16873 0.0
H380 H 0.12563 0.07873 0.19287 0.0
H381 H 0.35535 0.11573 0.18083 0.0
H382 H 0.314 0.08798 0.15977 0.0
H383 H 0.3403 0.15184 0.16448 0.0
H384 H 0.2161 0.05148 0.10888 0.0
H385 H 0.27566 0.2044 0.12066 0.0
H386 H 0.1737 0.01037 0.15931 0.0
H387 H 0.2322 0.01656 0.15512 0.0
H388 H 0.1874 -0.00682 0.13507 0.0
H389 H 0.24473 0.19413 0.17301 0.0
H390 H 0.28283 0.23587 0.15351 0.0
H391 H 0.30599 0.20681 0.16998 0.0
C392 C 0.12595 0.29816 0.45562 0.0
C393 C 0.07788 0.28334 0.44988 0.0
C394 C 0.13881 0.30018 0.47616 0.0
C395 C 0.10269 0.28671 0.49137 0.0
C396 C 0.05365 0.26929 0.48565 0.0
C397 C 0.04184 0.26797 0.46496 0.0
C398 C 0.19154 0.31906 0.48162 0.0
C399 C 0.01402 0.25409 0.50141 0.0
C400 C 0.13583 0.26891 0.54509 0.0
C401 C 0.14987 0.31439 0.55396 0.0
C402 C 0.11939 0.25886 0.52484 0.0
C403 C 0.11717 0.29522 0.51319 0.0
C404 C 0.1306 0.34087 0.52217 0.0
C405 C 0.14667 0.34984 0.54241 0.0
C406 C 0.10508 0.20966 0.51582 0.0
C407 C 0.12888 0.38068 0.51026 0.0
H408 H 0.15405 0.30991 0.44409 0.0
H409 H 0.00454 0.25613 0.46068 0.0
H410 H 0.20633 0.35454 0.48963 0.0
H411 H 0.19474 0.29352 0.49216 0.0
H412 H 0.21444 0.32431 0.46801 0.0
H413 H 0.97712 0.23648 0.49447 0.0
H414 H 0.01547 0.22842 0.51245 0.0
H415 H 0.01972 0.28657 0.5101 0.0
H416 H 0.13803 0.24125 0.55393 0.0
H417 H 0.15731 0.38504 0.54911 0.0
H418 H 0.12986 0.21413 0.50305 0.0
H419 H 0.06765 0.19258 0.50949 0.0
H420 H 0.10652 0.18451 0.52718 0.0
H421 H 0.15385 0.3912 0.49702 0.0
H422 H 0.13944 0.41372 0.51961 0.0
H423 H 0.09162 0.36724 0.50422 0.0
C424 C 0.7929 0.08064 0.79607 0.0
C425 C 0.83213 0.10373 0.78247 0.0
C426 C 0.80044 0.08456 0.81718 0.0
C427 C 0.84838 0.11231 0.82492 0.0
C428 C 0.88833 0.1338 0.81131 0.0
C429 C 0.87974 0.12921 0.79022 0.0
C430 C 0.75686 0.0609 0.83118 0.0
C431 C 0.93999 0.16358 0.81899 0.0
C432 C 0.85952 0.17197 0.8762 0.0
C433 C 0.8652 0.14059 0.88949 0.0
C434 C 0.85494 0.16356 0.85516 0.0
C435 C 0.85608 0.12273 0.84712 0.0
C436 C 0.86266 0.0913 0.86036 0.0
C437 C 0.86713 0.1006 0.88142 0.0
C438 C 0.84801 0.198 0.84157 0.0
C439 C 0.86415 0.04748 0.85231 0.0
H440 H 0.75599 0.06051 0.79024 0.0
H441 H 0.91029 0.14701 0.77985 0.0
H442 H 0.7621 0.03888 0.84293 0.0
H443 H 0.7529 0.08952 0.83922 0.0
H444 H 0.72249 0.037 0.82283 0.0
H445 H 0.96719 0.17353 0.8066 0.0
H446 H 0.94521 0.19761 0.82612 0.0
H447 H 0.94728 0.1432 0.83085 0.0
H448 H 0.85816 0.2031 0.88223 0.0
H449 H 0.87162 0.07623 0.89156 0.0
H450 H 0.81225 0.17797 0.83376 0.0
H451 H 0.87655 0.21292 0.82963 0.0
H452 H 0.84948 0.22891 0.85016 0.0
H453 H 0.82871 0.02169 0.84515 0.0
H454 H 0.87183 0.02796 0.86447 0.0
H455 H 0.89249 0.0588 0.84036 0.0
C456 C 0.69416 0.80131 0.12838 0.0
C457 C 0.71363 0.83935 0.11412 0.0
C458 C 0.69865 0.81092 0.14934 0.0
C459 C 0.7233 0.85979 0.15627 0.0
C460 C 0.74494 0.89836 0.14202 0.0
C461 C 0.73983 0.88769 0.12109 0.0
C462 C 0.67508 0.76871 0.16403 0.0
C463 C 0.77174 0.95093 0.14885 0.0
C464 C 0.67998 0.87981 0.20721 0.0
C465 C 0.71498 0.88104 0.22063 0.0
C466 C 0.68315 0.87432 0.1862 0.0
C467 C 0.72244 0.87022 0.17831 0.0
C468 C 0.75885 0.87311 0.19164 0.0
C469 C 0.75462 0.87835 0.21268 0.0
C470 C 0.64347 0.87129 0.17251 0.0
C471 C 0.80148 0.86928 0.18375 0.0
H472 H 0.67417 0.76381 0.12317 0.0
H473 H 0.7552 0.91732 0.1102 0.0
H474 H 0.70174 0.77191 0.17572 0.0
H475 H 0.64473 0.76946 0.17209 0.0
H476 H 0.6604 0.7329 0.15627 0.0
H477 H 0.79075 0.97637 0.13606 0.0
H478 H 0.74556 0.96037 0.15568 0.0
H479 H 0.79889 0.9566 0.16074 0.0
H480 H 0.6493 0.88204 0.21315 0.0
H481 H 0.78195 0.8795 0.22291 0.0
H482 H 0.62379 0.8348 0.16524 0.0
H483 H 0.65955 0.89866 0.16016 0.0
H484 H 0.61664 0.87744 0.18092 0.0
H485 H 0.7883 0.83226 0.17744 0.0
H486 H 0.8287 0.87621 0.19583 0.0
H487 H 0.81979 0.89563 0.1712 0.0
C488 C 0.82594 0.70803 0.5439 0.0
C489 C 0.81215 0.66235 0.55242 0.0
C490 C 0.84231 0.71874 0.52366 0.0
C491 C 0.8447 0.68284 0.51169 0.0
C492 C 0.8315 0.63698 0.52032 0.0
C493 C 0.8155 0.62735 0.54056 0.0
C494 C 0.85637 0.76814 0.515 0.0
C495 C 0.83341 0.59764 0.50805 0.0
C496 C 0.83578 0.68132 0.45414 0.0
C497 C 0.88384 0.69631 0.44833 0.0
C498 C 0.82296 0.67884 0.47472 0.0
C499 C 0.85914 0.69204 0.48988 0.0
C500 C 0.90819 0.70975 0.4841 0.0
C501 C 0.91995 0.71151 0.46338 0.0
C502 C 0.77021 0.65965 0.48024 0.0
C503 C 0.94789 0.72473 0.49982 0.0
H504 H 0.82362 0.73535 0.55298 0.0
H505 H 0.80505 0.592 0.547 0.0
H506 H 0.8938 0.78556 0.50866 0.0
H507 H 0.83153 0.76393 0.5023 0.0
H508 H 0.85481 0.79287 0.52658 0.0
H509 H 0.82297 0.56434 0.51716 0.0
H510 H 0.80843 0.58744 0.49482 0.0
H511 H 0.87069 0.6114 0.50199 0.0
H512 H 0.80762 0.6697 0.44264 0.0
H513 H 0.95724 0.7235 0.45904 0.0
H514 H 0.76693 0.68479 0.49102 0.0
H515 H 0.75553 0.62392 0.48798 0.0
H516 H 0.74729 0.65477 0.46668 0.0
H517 H 0.94625 0.74995 0.51109 0.0
H518 H -0.01523 0.74277 0.49286 0.0
H519 H 0.94244 0.69207 0.50823 0.0
C520 C 0.08954 0.79653 0.87384 0.0
C521 C 0.0918 0.83169 0.88749 0.0
C522 C 0.09486 0.80528 0.85284 0.0
C523 C 0.10246 0.85027 0.84521 0.0
C524 C 0.10329 0.88539 0.85879 0.0
C525 C 0.09803 0.87573 0.8798 0.0
C526 C 0.09381 0.76686 0.83888 0.0
C527 C 0.111 0.93364 0.85118 0.0
C528 C 0.16957 0.88708 0.79483 0.0
C529 C 0.13111 0.87125 0.78085 0.0
C530 C 0.16085 0.8823 0.81585 0.0
C531 C 0.11248 0.86127 0.82314 0.0
C532 C 0.07366 0.84716 0.80918 0.0
C533 C 0.08343 0.85227 0.78818 0.0
C534 C 0.20329 0.89783 0.83022 0.0
C535 C 0.02163 0.82486 0.81638 0.0
H536 H 0.08452 0.76229 0.87958 0.0
H537 H 0.09962 0.90302 0.89021 0.0
H538 H 0.06622 0.75755 0.82675 0.0
H539 H 0.12972 0.78125 0.83133 0.0
H540 H 0.08531 0.73294 0.84713 0.0
H541 H 0.107 0.95545 0.86347 0.0
H542 H 0.14806 0.95516 0.84458 0.0
H543 H 0.08461 0.9277 0.83889 0.0
H544 H 0.2066 0.90211 0.78935 0.0
H545 H 0.0535 0.84016 0.77751 0.0
H546 H 0.2 0.86534 0.83805 0.0
H547 H 0.20296 0.9225 0.84212 0.0
H548 H 0.23894 0.91674 0.82223 0.0
H549 H 0.00969 0.78851 0.8231 0.0
H550 H -0.0037 0.82041 0.80382 0.0
H551 H 0.01872 0.84775 0.82846 0.0
C552 C 0.22246 0.91374 0.96874 0.0
C553 C 0.22087 0.87197 0.97662 0.0
C554 C 0.2533 0.95968 0.97726 0.0
C555 C 0.28443 0.96401 0.99358 0.0
C556 C 0.28742 0.9229 0.99977 0.0
C557 C 0.25483 0.87702 0.99148 0.0
C558 C 0.24865 0.00251 0.97023 0.0
C559 C 0.32215 0.92653 0.01626 0.0
C560 C 0.36278 0.09637 0.00841 0.0
C561 C 0.33356 0.10038 0.02344 0.0
C562 C 0.35024 0.05087 0.99994 0.0
C563 C 0.30657 0.00906 0.00614 0.0
C564 C 0.27944 0.01241 0.02257 0.0
C565 C 0.29381 0.05801 0.03126 0.0
C566 C 0.38168 0.04835 0.9833 0.0
C567 C 0.2324 0.96881 0.02963 0.0
H568 H 0.19636 0.91005 0.95722 0.0
H569 H 0.25422 0.84482 0.99739 0.0
H570 H 0.23258 0.01382 0.9826 0.0
H571 H 0.28499 0.03408 0.96668 0.0
H572 H 0.22522 -0.00627 0.95652 0.0
H573 H 0.32978 0.89601 0.0153 0.0
H574 H 0.35709 0.96159 0.01534 0.0
H575 H 0.30578 0.92483 0.03137 0.0
H576 H 0.39404 0.12904 0.00253 0.0
H577 H 0.27117 0.06088 0.04291 0.0
H578 H 0.36683 0.05019 0.96827 0.0
H579 H 0.38216 0.01364 0.98398 0.0
H580 H 0.4197 0.07931 0.98433 0.0
H581 H 0.20487 0.95687 0.01728 0.0
H582 H 0.21732 0.97698 0.04336 0.0
H583 H 0.23806 0.93785 0.03313 0.0
C584 C 0.22556 0.31165 0.35929 0.0
C585 C 0.2213 0.35002 0.35104 0.0
C586 C 0.25691 0.29761 0.35059 0.0
C587 C 0.28609 0.32386 0.33371 0.0
C588 C 0.28625 0.36625 0.32692 0.0
C589 C 0.25297 0.37828 0.33539 0.0
C590 C 0.25507 0.25179 0.35824 0.0
C591 C 0.31888 0.39696 0.30981 0.0
C592 C 0.36716 0.2726 0.32062 0.0
C593 C 0.33775 0.23664 0.30644 0.0
C594 C 0.354 0.30604 0.32791 0.0
C595 C 0.30948 0.30177 0.32149 0.0
C596 C 0.28233 0.26869 0.30571 0.0
C597 C 0.29737 0.23708 0.29811 0.0
C598 C 0.38562 0.34307 0.34369 0.0
C599 C 0.23446 0.26269 0.29844 0.0
H600 H 0.20125 0.28974 0.37141 0.0
H601 H 0.25031 0.4085 0.32916 0.0
H602 H 0.24029 0.22348 0.34615 0.0
H603 H 0.29219 0.2591 0.36198 0.0
H604 H 0.23187 0.23679 0.372 0.0
H605 H 0.32663 0.43516 0.31095 0.0
H606 H 0.35391 0.39706 0.30976 0.0
H607 H 0.30046 0.38197 0.29504 0.0
H608 H 0.39898 0.27294 0.32682 0.0
H609 H 0.27466 0.20951 0.28708 0.0
H610 H 0.37159 0.32865 0.3591 0.0
H611 H 0.38516 0.37762 0.34184 0.0
H612 H 0.42388 0.35099 0.34278 0.0
H613 H 0.20734 0.24771 0.31096 0.0
H614 H 0.21957 0.23774 0.28516 0.0
H615 H 0.23888 0.29845 0.29413 0.0
C616 C 0.87742 0.2643 0.68201 0.0
C617 C 0.87116 0.22849 0.69613 0.0
C618 C 0.92379 0.29723 0.67428 0.0
C619 C 0.96418 0.29273 0.68025 0.0
C620 C 0.95864 0.25958 0.69587 0.0
C621 C 0.91223 0.22841 0.70388 0.0
C622 C 0.92873 0.33404 0.65855 0.0
C623 C 0.00064 0.25325 0.70262 0.0
C624 C 0.05788 0.30498 0.64175 0.0
C625 C 0.10049 0.34406 0.64982 0.0
C626 C 0.01254 0.28978 0.6508 0.0
C627 C 0.00956 0.31541 0.66791 0.0
C628 C 0.05164 0.35825 0.67465 0.0
C629 C 0.09693 0.37159 0.66577 0.0
C630 C 0.9687 0.24356 0.64319 0.0
C631 C 0.04959 0.38811 0.69211 0.0
H632 H 0.84578 0.26497 0.67621 0.0
H633 H 0.90763 0.20088 0.71483 0.0
H634 H 0.96373 0.36876 0.66037 0.0
H635 H 0.92828 0.31962 0.64312 0.0
H636 H 0.89824 0.34166 0.65954 0.0
H637 H -0.00891 0.22857 0.71594 0.0
H638 H 0.01167 0.23776 0.68991 0.0
H639 H 0.03262 0.28895 0.70666 0.0
H640 H 0.06035 0.2836 0.6294 0.0
H641 H 0.12974 0.40229 0.67189 0.0
H642 H 0.93814 0.25002 0.63994 0.0
H643 H 0.95623 0.21504 0.65512 0.0
H644 H 0.97675 0.2293 0.62916 0.0
H645 H 0.01504 0.38893 0.69194 0.0
H646 H 0.0807 0.42613 0.69162 0.0
H647 H 0.05147 0.37166 0.70671 0.0
C648 C 0.59266 0.87429 0.01252 0.0
C649 C 0.62246 0.86983 0.0271 0.0
C650 C 0.60505 0.92 0.0044 0.0
C651 C 0.64914 0.96155 0.01047 0.0
C652 C 0.67686 0.95775 0.02652 0.0
C653 C 0.66265 0.91195 0.03489 0.0
C654 C 0.57299 0.92303 0.98822 0.0
C655 C 0.72436 0.00107 0.03342 0.0
C656 C 0.73157 0.05636 0.97261 0.0
C657 C 0.73381 0.09834 0.98066 0.0
C658 C 0.70116 0.0106 0.98131 0.0
C659 C 0.67108 0.00665 0.998 0.0
C660 C 0.66876 0.04799 0.00448 0.0
C661 C 0.70095 0.09369 0.99598 0.0
C662 C 0.70512 0.96753 0.97397 0.0
C663 C 0.63516 0.04479 0.02141 0.0
H664 H 0.56105 0.8418 0.00669 0.0
H665 H 0.68572 0.90872 0.0462 0.0
H666 H 0.57252 0.9577 0.98939 0.0
H667 H 0.58732 0.92177 0.97297 0.0
H668 H 0.53502 0.89202 0.9893 0.0
H669 H 0.73981 -0.00738 0.04693 0.0
H670 H 0.75137 0.01288 0.02087 0.0
H671 H 0.71916 0.03221 0.03721 0.0
H672 H 0.75682 0.05973 0.96074 0.0
H673 H 0.70207 0.12606 0.00205 0.0
H674 H 0.66851 0.93615 0.97059 0.0
H675 H 0.72148 0.956 0.98612 0.0
H676 H 0.72797 0.9761 0.96009 0.0
H677 H 0.60017 0.0097 0.02085 0.0
H678 H 0.62746 0.07527 0.02063 0.0
H679 H 0.65258 0.04697 0.0363 0.0
C680 C 0.5931 0.70586 0.32027 0.0
C681 C 0.62251 0.74195 0.30619 0.0
C682 C 0.60608 0.67213 0.3273 0.0
C683 C 0.65045 0.67625 0.32073 0.0
C684 C 0.67747 0.70939 0.30498 0.0
C685 C 0.66261 0.74128 0.29764 0.0
C686 C 0.57451 0.63499 0.34301 0.0
C687 C 0.72513 0.71517 0.29751 0.0
C688 C 0.73481 0.66656 0.35825 0.0
C689 C 0.73913 0.62828 0.34987 0.0
C690 C 0.70329 0.68048 0.34969 0.0
C691 C 0.67397 0.65419 0.33282 0.0
C692 C 0.67387 0.61186 0.32591 0.0
C693 C 0.70734 0.59996 0.33424 0.0
C694 C 0.70509 0.72625 0.35747 0.0
C695 C 0.64108 0.58105 0.30883 0.0
H696 H 0.56145 0.70564 0.32663 0.0
H697 H 0.68528 0.76889 0.28664 0.0
H698 H 0.57486 0.60041 0.341 0.0
H699 H 0.58866 0.64923 0.35845 0.0
H700 H 0.53628 0.62717 0.34219 0.0
H701 H 0.73994 0.74022 0.28428 0.0
H702 H 0.75244 0.72992 0.30997 0.0
H703 H 0.72043 0.67937 0.29303 0.0
H704 H 0.75919 0.68849 0.37037 0.0
H705 H 0.71003 0.56979 0.32792 0.0
H706 H 0.668 0.7188 0.36136 0.0
H707 H 0.71954 0.75452 0.3454 0.0
H708 H 0.72855 0.74136 0.37116 0.0
H709 H 0.60626 0.58135 0.30869 0.0
H710 H 0.63293 0.54275 0.31007 0.0
H711 H 0.65963 0.59559 0.29405 0.0
C712 C 0.08647 0.71052 0.67942 0.0
C713 C 0.09261 0.74587 0.69383 0.0
C714 C 0.04013 0.67776 0.67158 0.0
C715 C -0.00034 0.68195 0.67773 0.0
C716 C 0.00511 0.71465 0.69359 0.0
C717 C 0.05148 0.74565 0.7017 0.0
C718 C 0.03531 0.64143 0.65558 0.0
C719 C 0.96303 0.72067 0.70054 0.0
C720 C 0.90541 0.67007 0.63965 0.0
C721 C 0.86296 0.63077 0.64768 0.0
C722 C 0.9509 0.68523 0.64854 0.0
C723 C 0.95419 0.65933 0.66544 0.0
C724 C 0.91228 0.61627 0.67209 0.0
C725 C 0.86685 0.60297 0.66338 0.0
C726 C -0.00546 0.73168 0.64104 0.0
C727 C 0.91469 0.58613 0.6893 0.0
H728 H 0.11816 0.71007 0.67352 0.0
H729 H 0.05599 0.77282 0.71286 0.0
H730 H 0.00034 0.60662 0.65722 0.0
H731 H 0.03579 0.65628 0.64026 0.0
H732 H 0.06585 0.63385 0.65641 0.0
H733 H 0.97255 0.7451 0.71397 0.0
H734 H 0.95184 0.7363 0.68797 0.0
H735 H 0.93116 0.68484 0.70447 0.0
H736 H 0.90269 0.69166 0.62749 0.0
H737 H 0.83416 0.57209 0.66947 0.0
H738 H 0.02521 0.72548 0.63763 0.0
H739 H 0.00697 0.75999 0.6531 0.0
H740 H -0.01371 0.74608 0.62713 0.0
H741 H 0.94923 0.5853 0.68887 0.0
H742 H 0.88356 0.54812 0.68876 0.0
H743 H 0.91316 0.60238 0.70404 0.0
C744 C -0.00388 0.18297 0.97531 0.0
C745 C -0.0169 0.21373 0.98541 0.0
C746 C 0.03749 0.1808 0.98123 0.0
C747 C 0.067 0.21091 0.9973 0.0
C748 C 0.05409 0.24215 0.00749 0.0
C749 C 0.01202 0.24281 0.00155 0.0
C750 C 0.04966 0.14637 0.97029 0.0
C751 C 0.08516 0.27549 0.02444 0.0
C752 C 0.15424 0.18258 0.02548 0.0
C753 C 0.19857 0.21405 0.01587 0.0
C754 C 0.1108 0.18013 0.0192 0.0
C755 C 0.11202 0.21068 0.00325 0.0
C756 C 0.15666 0.24241 0.99346 0.0
C757 C 0.19933 0.24334 0.99975 0.0
C758 C 0.06368 0.14517 0.02973 0.0
C759 C 0.15956 0.27622 0.97666 0.0
H760 H 0.97366 0.16018 0.96292 0.0
H761 H 0.0023 0.26691 0.00932 0.0
H762 H 0.08558 0.16729 0.96268 0.0
H763 H 0.05251 0.12157 0.98138 0.0
H764 H 0.02192 0.12401 0.95865 0.0
H765 H 0.07017 0.2978 0.03072 0.0
H766 H 0.08818 0.25378 0.03698 0.0
H767 H 0.12258 0.30038 0.01877 0.0
H768 H 0.15343 0.15958 0.03783 0.0
H769 H 0.23356 0.26793 0.99235 0.0
H770 H 0.03616 0.12121 0.01836 0.0
H771 H 0.04879 0.16579 0.03764 0.0
H772 H 0.06851 0.12197 0.04105 0.0
H773 H 0.13468 0.25496 0.96405 0.0
H774 H 0.19703 0.29829 0.97047 0.0
H775 H 0.14754 0.30135 0.98249 0.0
C776 C 0.75862 0.01685 0.33677 0.0
C777 C 0.75944 -0.00957 0.31979 0.0
C778 C 0.8009 0.05894 0.34329 0.0
C779 C 0.84527 0.07436 0.33283 0.0
C780 C 0.8467 0.04692 0.3161 0.0
C781 C 0.80358 0.00555 0.30962 0.0
C782 C 0.79771 0.08778 0.36093 0.0
C783 C 0.89358 0.0617 0.30485 0.0
C784 C 0.94115 0.20848 0.33498 0.0
C785 C 0.97213 0.20932 0.35038 0.0
C786 C 0.89968 0.16479 0.3292 0.0
C787 C 0.88953 0.12069 0.33873 0.0
C788 C 0.92104 0.12114 0.35409 0.0
C789 C 0.96173 0.16562 0.35991 0.0
C790 C 0.86639 0.16595 0.31306 0.0
C791 C 0.91185 0.07466 0.36429 0.0
H792 H 0.72452 0.00547 0.34463 0.0
H793 H 0.80445 0.98498 0.29659 0.0
H794 H 0.82425 0.09231 0.37292 0.0
H795 H 0.80731 0.12481 0.35572 0.0
H796 H 0.76071 0.07012 0.36778 0.0
H797 H 0.88927 0.03443 0.29318 0.0
H798 H 0.90636 0.09725 0.29721 0.0
H799 H 0.92244 0.06651 0.31571 0.0
H800 H 0.94884 0.24222 0.32767 0.0
H801 H -0.0142 0.16608 0.37171 0.0
H802 H 0.82909 0.15108 0.3193 0.0
H803 H 0.86383 0.14253 0.30002 0.0
H804 H 0.87916 0.20339 0.30734 0.0
H805 H 0.87633 0.05753 0.37233 0.0
H806 H 0.94079 0.08103 0.37543 0.0
H807 H 0.90974 0.04822 0.35268 0.0
C808 C 0.7175 0.76304 0.6661 0.0
C809 C 0.74793 0.76393 0.65043 0.0
C810 C 0.7188 0.80586 0.67249 0.0
C811 C 0.75205 0.85078 0.66327 0.0
C812 C 0.78331 0.85204 0.64761 0.0
C813 C 0.78051 0.80845 0.64121 0.0
C814 C 0.68422 0.80294 0.68896 0.0
C815 C 0.81984 0.89943 0.6377 0.0
C816 C 0.72444 0.95385 0.66685 0.0
C817 C 0.75267 0.98009 0.68367 0.0
C818 C 0.72413 0.91183 0.65997 0.0
C819 C 0.75354 0.8963 0.6699 0.0
C820 C 0.78306 0.92332 0.68657 0.0
C821 C 0.78186 0.96465 0.6934 0.0
C822 C 0.69146 0.88342 0.64239 0.0
C823 C 0.81558 0.90835 0.69728 0.0
H824 H 0.69202 0.72866 0.67317 0.0
H825 H 0.80434 0.80934 0.62919 0.0
H826 H 0.70506 0.82579 0.70214 0.0
H827 H 0.66115 0.81748 0.68321 0.0
H828 H 0.66008 0.76503 0.69435 0.0
H829 H 0.84246 0.89433 0.62614 0.0
H830 H 0.80069 0.9164 0.63022 0.0
H831 H 0.84428 0.92543 0.64942 0.0
H832 H 0.70157 0.96547 0.65934 0.0
H833 H 0.80403 0.98505 0.70631 0.0
H834 H 0.66472 0.8459 0.6474 0.0
H835 H 0.71331 0.88013 0.62996 0.0
H836 H 0.67123 0.90071 0.63619 0.0
H837 H 0.7931 0.87208 0.70442 0.0
H838 H 0.83828 0.9348 0.70926 0.0
H839 H 0.84 0.90497 0.68613 0.0
C840 C 0.80216 0.78831 0.02645 0.0
C841 C 0.75754 0.75674 0.01704 0.0
C842 C 0.84546 0.79096 0.01979 0.0
C843 C 0.8438 0.7605 0.00367 0.0
C844 C 0.79886 0.72866 0.99409 0.0
C845 C 0.75634 0.72756 0.00075 0.0
C846 C 0.8929 0.82606 0.0301 0.0
C847 C 0.79548 0.69491 0.97712 0.0
C848 C 0.95852 0.78824 0.97472 0.0
C849 C 0.97197 0.7575 0.98449 0.0
C850 C 0.91746 0.79048 0.98111 0.0
C851 C 0.88869 0.76044 0.99731 0.0
C852 C 0.90207 0.72927 0.00719 0.0
C853 C 0.94385 0.72857 0.00079 0.0
C854 C 0.90481 0.82487 0.9705 0.0
C855 C 0.87175 0.69597 0.02426 0.0
H856 H 0.8033 0.81123 0.03894 0.0
H857 H 0.72188 0.70289 0.9935 0.0
H858 H 0.90819 0.80556 0.03776 0.0
H859 H 0.91997 0.85007 0.01862 0.0
H860 H 0.88838 0.84921 0.04159 0.0
H861 H 0.7578 0.6727 0.97114 0.0
H862 H 0.81983 0.71623 0.9644 0.0
H863 H 0.80789 0.66992 0.98268 0.0
H864 H -0.01962 0.81092 0.96221 0.0
H865 H 0.9539 0.70448 0.00831 0.0
H866 H 0.90218 0.84953 0.98178 0.0
H867 H 0.86868 0.80389 0.96305 0.0
H868 H 0.93216 0.84737 0.95879 0.0
H869 H 0.86911 0.71769 0.03692 0.0
H870 H 0.88712 0.67382 0.03029 0.0
H871 H 0.83414 0.67093 0.0188 0.0
C872 C -0.00125 0.81312 0.35779 0.0
C873 C -0.01178 0.76923 0.34834 0.0
C874 C 0.03941 0.85747 0.35188 0.0
C875 C 0.07079 0.8576 0.33652 0.0
C876 C 0.06045 0.81332 0.32703 0.0
C877 C 0.01899 0.76976 0.3329 0.0
C878 C 0.04879 0.90413 0.36203 0.0
C879 C 0.0936 0.81182 0.3109 0.0
C880 C 0.1575 0.97278 0.3077 0.0
C881 C 0.20142 -0.01223 0.31805 0.0
C882 C 0.11424 0.93135 0.31398 0.0
C883 C 0.11529 0.90373 0.33068 0.0
C884 C 0.15947 0.91894 0.34126 0.0
C885 C 0.20189 0.96108 0.33495 0.0
C886 C 0.06756 0.91679 0.30261 0.0
C887 C 0.16227 0.88991 0.35888 0.0
H888 H 0.97483 0.8129 0.36963 0.0
H889 H 0.01119 0.73587 0.32565 0.0
H890 H 0.08416 0.92104 0.37019 0.0
H891 H 0.05135 0.93062 0.35039 0.0
H892 H 0.01974 0.89806 0.37307 0.0
H893 H 0.08052 0.77432 0.30512 0.0
H894 H 0.09648 0.83536 0.2979 0.0
H895 H 0.13083 0.82634 0.31718 0.0
H896 H 0.15691 -0.00646 0.29473 0.0
H897 H 0.23581 0.97235 0.34293 0.0
H898 H 0.03868 0.91233 0.31339 0.0
H899 H 0.05459 0.8811 0.29501 0.0
H900 H 0.07222 0.94401 0.29089 0.0
H901 H 0.13586 0.88575 0.37087 0.0
H902 H 0.19926 0.90721 0.36573 0.0
H903 H 0.15224 0.85274 0.35364 0.0
C904 C 0.18222 0.00973 0.69296 0.0
C905 C 0.21141 -0.00553 0.68305 0.0
C906 C 0.18093 0.05112 0.68635 0.0
C907 C 0.21034 0.07839 0.66972 0.0
C908 C 0.23976 0.06306 0.65962 0.0
C909 C 0.23956 0.02098 0.66628 0.0
C910 C 0.14842 0.06589 0.69725 0.0
C911 C 0.27229 0.09172 0.64208 0.0
C912 C 0.18297 0.16643 0.64157 0.0
C913 C 0.21555 0.21087 0.6509 0.0
C914 C 0.18029 0.1228 0.64776 0.0
C915 C 0.21169 0.12394 0.66332 0.0
C916 C 0.24495 0.16877 0.67265 0.0
C917 C 0.24613 0.21163 0.66646 0.0
C918 C 0.14376 0.0755 0.63773 0.0
C919 C 0.27967 0.17157 0.68902 0.0
H920 H 0.16011 -0.01087 0.70583 0.0
H921 H 0.26241 0.00951 0.65864 0.0
H922 H 0.17089 0.10211 0.70448 0.0
H923 H 0.12387 0.0693 0.6862 0.0
H924 H 0.12585 0.0393 0.70918 0.0
H925 H 0.29256 0.07456 0.63573 0.0
H926 H 0.25034 0.09507 0.62974 0.0
H927 H 0.299 0.1292 0.64719 0.0
H928 H 0.15902 0.16563 0.62963 0.0
H929 H 0.27163 0.24594 0.67363 0.0
H930 H 0.11942 0.04935 0.6494 0.0
H931 H 0.16292 0.05867 0.63011 0.0
H932 H 0.12104 0.08069 0.62627 0.0
H933 H 0.25893 0.14854 0.70215 0.0
H934 H 0.30378 0.20943 0.69452 0.0
H935 H 0.30276 0.15717 0.68311 0.0
loop_
_geom_bond_atom_site_label_1
_geom_bond_atom_site_label_2
_geom_bond_distance
_geom_bond_site_symmetry_2
_ccdc_geom_bond_type
Zn0 O3 2.031 . S
Zn0 O5 2.049 . S
Zn0 O10 2.067 . S
Zn1 O2 1.962 . S
Zn1 O4 1.986 . S
Zn1 O6 1.996 . S
Zn1 O9 1.943 . S
O2 Zn1 1.962 . S
O2 C7 1.254 . S
O3 Zn0 2.031 . S
O3 C7 1.269 . S
O4 Zn1 1.986 . S
O4 C11 1.262 . S
O5 Zn0 2.049 . S
O5 C13 1.260 . S
O6 Zn1 1.996 . S
O6 C13 1.257 . S
C7 O2 1.254 . S
C7 O3 1.269 . S
C8 O9 1.249 . S
C8 O10 1.270 . S
O9 Zn1 1.943 . S
O9 C8 1.249 . S
O10 Zn0 2.067 . S
O10 C8 1.270 . S
C11 O4 1.262 . S
C11 O12 1.232 . S
O12 C11 1.232 . S
C13 O5 1.260 . S
C13 O6 1.257 . S
Zn14 O17 2.031 . S
Zn14 O19 2.049 . S
Zn14 O24 2.067 . S
Zn15 O16 1.962 . S
Zn15 O18 1.986 . S
Zn15 O20 1.996 . S
Zn15 O23 1.943 . S
O16 Zn15 1.962 . S
O16 C21 1.254 . S
O17 Zn14 2.031 . S
O17 C21 1.269 . S
O18 Zn15 1.986 . S
O18 C25 1.262 . S
O19 Zn14 2.049 . S
O19 C27 1.260 . S
O20 Zn15 1.996 . S
O20 C27 1.257 . S
C21 O16 1.254 . S
C21 O17 1.269 . S
C22 O23 1.249 . S
C22 O24 1.270 . S
O23 Zn15 1.943 . S
O23 C22 1.249 . S
O24 Zn14 2.067 . S
O24 C22 1.270 . S
C25 O18 1.262 . S
C25 O26 1.232 . S
O26 C25 1.232 . S
C27 O19 1.260 . S
C27 O20 1.257 . S
Zn28 O31 2.031 . S
Zn28 O33 2.049 . S
Zn28 O38 2.067 . S
Zn29 O30 1.962 . S
Zn29 O32 1.986 . S
Zn29 O34 1.996 . S
Zn29 O37 1.943 . S
O30 Zn29 1.962 . S
O30 C35 1.254 . S
O31 Zn28 2.031 . S
O31 C35 1.269 . S
O32 Zn29 1.986 . S
O32 C39 1.262 . S
O33 Zn28 2.049 . S
O33 C41 1.260 . S
O34 Zn29 1.996 . S
O34 C41 1.257 . S
C35 O30 1.254 . S
C35 O31 1.269 . S
C36 O37 1.249 . S
C36 O38 1.270 . S
O37 Zn29 1.943 . S
O37 C36 1.249 . S
O38 Zn28 2.067 . S
O38 C36 1.270 . S
C39 O32 1.262 . S
C39 O40 1.232 . S
O40 C39 1.232 . S
C41 O33 1.260 . S
C41 O34 1.257 . S
Zn42 O45 2.031 . S
Zn42 O47 2.049 . S
Zn42 O52 2.067 . S
Zn43 O44 1.962 . S
Zn43 O46 1.986 . S
Zn43 O48 1.996 . S
Zn43 O51 1.943 . S
O44 Zn43 1.962 . S
O44 C49 1.254 . S
O45 Zn42 2.031 . S
O45 C49 1.269 . S
O46 Zn43 1.986 . S
O46 C53 1.262 . S
O47 Zn42 2.049 . S
O47 C55 1.260 . S
O48 Zn43 1.996 . S
O48 C55 1.257 . S
C49 O44 1.254 . S
C49 O45 1.269 . S
C50 O51 1.249 . S
C50 O52 1.270 . S
O51 Zn43 1.943 . S
O51 C50 1.249 . S
O52 Zn42 2.067 . S
O52 C50 1.270 . S
C53 O46 1.262 . S
C53 O54 1.232 . S
O54 C53 1.232 . S
C55 O47 1.260 . S
C55 O48 1.257 . S
Zn56 O59 2.031 . S
Zn56 O61 2.049 . S
Zn56 O66 2.067 . S
Zn57 O58 1.962 . S
Zn57 O60 1.986 . S
Zn57 O62 1.996 . S
Zn57 O65 1.943 . S
O58 Zn57 1.962 . S
O58 C63 1.254 . S
O59 Zn56 2.031 . S
O59 C63 1.269 . S
O60 Zn57 1.986 . S
O60 C67 1.262 . S
O61 Zn56 2.049 . S
O61 C69 1.260 . S
O62 Zn57 1.996 . S
O62 C69 1.257 . S
C63 O58 1.254 . S
C63 O59 1.269 . S
C64 O65 1.249 . S
C64 O66 1.270 . S
O65 Zn57 1.943 . S
O65 C64 1.249 . S
O66 Zn56 2.067 . S
O66 C64 1.270 . S
C67 O60 1.262 . S
C67 O68 1.232 . S
O68 C67 1.232 . S
C69 O61 1.260 . S
C69 O62 1.257 . S
Zn70 O73 2.031 . S
Zn70 O75 2.049 . S
Zn70 O80 2.067 . S
Zn71 O72 1.962 . S
Zn71 O74 1.986 . S
Zn71 O76 1.996 . S
Zn71 O79 1.943 . S
O72 Zn71 1.962 . S
O72 C77 1.254 . S
O73 Zn70 2.031 . S
O73 C77 1.269 . S
O74 Zn71 1.986 . S
O74 C81 1.262 . S
O75 Zn70 2.049 . S
O75 C83 1.260 . S
O76 Zn71 1.996 . S
O76 C83 1.257 . S
C77 O72 1.254 . S
C77 O73 1.269 . S
C78 O79 1.249 . S
C78 O80 1.270 . S
O79 Zn71 1.943 . S
O79 C78 1.249 . S
O80 Zn70 2.067 . S
O80 C78 1.270 . S
C81 O74 1.262 . S
C81 O82 1.232 . S
O82 C81 1.232 . S
C83 O75 1.260 . S
C83 O76 1.257 . S
Zn84 O87 2.031 . S
Zn84 O89 2.049 . S
Zn84 O94 2.067 . S
Zn85 O86 1.962 . S
Zn85 O88 1.986 . S
Zn85 O90 1.996 . S
Zn85 O93 1.943 . S
O86 Zn85 1.962 . S
O86 C91 1.254 . S
O87 Zn84 2.031 . S
O87 C91 1.269 . S
O88 Zn85 1.986 . S
O88 C95 1.262 . S
O89 Zn84 2.049 . S
O89 C97 1.260 . S
O90 Zn85 1.996 . S
O90 C97 1.257 . S
C91 O86 1.254 . S
C91 O87 1.269 . S
C92 O93 1.249 . S
C92 O94 1.270 . S
O93 Zn85 1.943 . S
O93 C92 1.249 . S
O94 Zn84 2.067 . S
O94 C92 1.270 . S
C95 O88 1.262 . S
C95 O96 1.232 . S
O96 C95 1.232 . S
C97 O89 1.260 . S
C97 O90 1.257 . S
Zn98 O101 2.031 . S
Zn98 O103 2.049 . S
Zn98 O108 2.067 . S
Zn99 O100 1.962 . S
Zn99 O102 1.986 . S
Zn99 O104 1.996 . S
Zn99 O107 1.943 . S
O100 Zn99 1.962 . S
O100 C105 1.254 . S
O101 Zn98 2.031 . S
O101 C105 1.269 . S
O102 Zn99 1.986 . S
O102 C109 1.262 . S
O103 Zn98 2.049 . S
O103 C111 1.260 . S
O104 Zn99 1.996 . S
O104 C111 1.257 . S
C105 O100 1.254 . S
C105 O101 1.269 . S
C106 O107 1.249 . S
C106 O108 1.270 . S
O107 Zn99 1.943 . S
O107 C106 1.249 . S
O108 Zn98 2.067 . S
O108 C106 1.270 . S
C109 O102 1.262 . S
C109 O110 1.232 . S
O110 C109 1.232 . S
C111 O103 1.260 . S
C111 O104 1.257 . S
Zn112 O115 2.031 . S
Zn112 O117 2.049 . S
Zn112 O122 2.067 . S
Zn113 O114 1.962 . S
Zn113 O116 1.986 . S
Zn113 O118 1.996 . S
Zn113 O121 1.943 . S
O114 Zn113 1.962 . S
O114 C119 1.254 . S
O115 Zn112 2.031 . S
O115 C119 1.269 . S
O116 Zn113 1.986 . S
O116 C123 1.262 . S
O117 Zn112 2.049 . S
O117 C125 1.260 . S
O118 Zn113 1.996 . S
O118 C125 1.257 . S
C119 O114 1.254 . S
C119 O115 1.269 . S
C120 O121 1.249 . S
C120 O122 1.270 . S
O121 Zn113 1.943 . S
O121 C120 1.249 . S
O122 Zn112 2.067 . S
O122 C120 1.270 . S
C123 O116 1.262 . S
C123 O124 1.232 . S
O124 C123 1.232 . S
C125 O117 1.260 . S
C125 O118 1.257 . S
Zn126 O129 2.031 . S
Zn126 O131 2.049 . S
Zn126 O136 2.067 . S
Zn127 O128 1.962 . S
Zn127 O130 1.986 . S
Zn127 O132 1.996 . S
Zn127 O135 1.943 . S
O128 Zn127 1.962 . S
O128 C133 1.254 . S
O129 Zn126 2.031 . S
O129 C133 1.269 . S
O130 Zn127 1.986 . S
O130 C137 1.262 . S
O131 Zn126 2.049 . S
O131 C139 1.260 . S
O132 Zn127 1.996 . S
O132 C139 1.257 . S
C133 O128 1.254 . S
C133 O129 1.269 . S
C134 O135 1.249 . S
C134 O136 1.270 . S
O135 Zn127 1.943 . S
O135 C134 1.249 . S
O136 Zn126 2.067 . S
O136 C134 1.270 . S
C137 O130 1.262 . S
C137 O138 1.232 . S
O138 C137 1.232 . S
C139 O131 1.260 . S
C139 O132 1.257 . S
Zn140 O143 2.031 . S
Zn140 O145 2.049 . S
Zn140 O150 2.067 . S
Zn141 O142 1.962 . S
Zn141 O144 1.986 . S
Zn141 O146 1.996 . S
Zn141 O149 1.943 . S
O142 Zn141 1.962 . S
O142 C147 1.254 . S
O143 Zn140 2.031 . S
O143 C147 1.269 . S
O144 Zn141 1.986 . S
O144 C151 1.262 . S
O145 Zn140 2.049 . S
O145 C153 1.260 . S
O146 Zn141 1.996 . S
O146 C153 1.257 . S
C147 O142 1.254 . S
C147 O143 1.269 . S
C148 O149 1.249 . S
C148 O150 1.270 . S
O149 Zn141 1.943 . S
O149 C148 1.249 . S
O150 Zn140 2.067 . S
O150 C148 1.270 . S
C151 O144 1.262 . S
C151 O152 1.232 . S
O152 C151 1.232 . S
C153 O145 1.260 . S
C153 O146 1.257 . S
Zn154 O157 2.031 . S
Zn154 O159 2.049 . S
Zn154 O164 2.067 . S
Zn155 O156 1.962 . S
Zn155 O158 1.986 . S
Zn155 O160 1.996 . S
Zn155 O163 1.943 . S
O156 Zn155 1.962 . S
O156 C161 1.254 . S
O157 Zn154 2.031 . S
O157 C161 1.269 . S
O158 Zn155 1.986 . S
O158 C165 1.262 . S
O159 Zn154 2.049 . S
O159 C167 1.260 . S
O160 Zn155 1.996 . S
O160 C167 1.257 . S
C161 O156 1.254 . S
C161 O157 1.269 . S
C162 O163 1.249 . S
C162 O164 1.270 . S
O163 Zn155 1.943 . S
O163 C162 1.249 . S
O164 Zn154 2.067 . S
O164 C162 1.270 . S
C165 O158 1.262 . S
C165 O166 1.232 . S
O166 C165 1.232 . S
C167 O159 1.260 . S
C167 O160 1.257 . S
C168 C169 1.391 . S
C168 C170 1.394 . S
C168 H184 0.931 . S
C169 C168 1.391 . S
C169 C173 1.376 . S
C170 C168 1.394 . S
C170 C171 1.369 . S
C170 C174 1.531 . S
C171 C170 1.369 . S
C171 C172 1.410 . S
C171 C179 1.503 . S
C172 C171 1.410 . S
C172 C173 1.392 . S
C172 C175 1.511 . S
C173 C169 1.376 . S
C173 C172 1.392 . S
C173 H185 0.929 . S
C174 C170 1.531 . S
C174 H186 0.960 . S
C174 H187 0.962 . S
C174 H188 0.960 . S
C175 C172 1.511 . S
C175 H189 0.961 . S
C175 H190 0.961 . S
C175 H191 0.961 . S
C176 C177 1.370 . S
C176 C178 1.363 . S
C176 H192 0.931 . S
C177 C176 1.370 . S
C177 C181 1.408 . S
C178 C176 1.363 . S
C178 C179 1.370 . S
C178 C182 1.524 . S
C179 C171 1.503 . S
C179 C178 1.370 . S
C179 C180 1.403 . S
C180 C179 1.403 . S
C180 C181 1.404 . S
C180 C183 1.539 . S
C181 C177 1.408 . S
C181 C180 1.404 . S
C181 H193 0.930 . S
C182 C178 1.524 . S
C182 H194 0.956 . S
C182 H195 0.961 . S
C182 H196 0.925 1_554 S
C183 C180 1.539 . S
C183 H197 0.958 . S
C183 H198 0.961 . S
C183 H199 0.960 . S
H184 C168 0.931 . S
H185 C173 0.929 . S
H186 C174 0.960 . S
H187 C174 0.962 . S
H188 C174 0.960 . S
H189 C175 0.961 . S
H190 C175 0.961 . S
H191 C175 0.961 . S
H192 C176 0.931 . S
H193 C181 0.930 . S
H194 C182 0.956 . S
H195 C182 0.961 . S
H196 C182 0.925 1_556 S
H197 C183 0.958 . S
H198 C183 0.961 . S
H199 C183 0.960 . S
C200 C201 1.391 . S
C200 C202 1.394 . S
C200 H216 0.931 . S
C201 C200 1.391 . S
C201 C205 1.376 . S
C202 C200 1.394 . S
C202 C203 1.369 . S
C202 C206 1.531 . S
C203 C202 1.369 . S
C203 C204 1.410 1_455 S
C203 C211 1.503 1_455 S
C204 C203 1.410 1_655 S
C204 C205 1.392 1_655 S
C204 C207 1.511 . S
C205 C201 1.376 . S
C205 C204 1.392 1_455 S
C205 H217 0.929 . S
C206 C202 1.531 . S
C206 H218 0.960 . S
C206 H219 0.962 . S
C206 H220 0.960 . S
C207 C204 1.511 . S
C207 H221 0.961 . S
C207 H222 0.961 . S
C207 H223 0.961 . S
C208 C209 1.370 . S
C208 C210 1.363 . S
C208 H224 0.931 . S
C209 C208 1.370 . S
C209 C213 1.408 . S
C210 C208 1.363 . S
C210 C211 1.370 . S
C210 C214 1.524 . S
C211 C203 1.503 1_655 S
C211 C210 1.370 . S
C211 C212 1.403 . S
C212 C211 1.403 . S
C212 C213 1.404 . S
C212 C215 1.536 1_655 S
C213 C209 1.408 . S
C213 C212 1.404 . S
C213 H225 0.930 . S
C214 C210 1.524 . S
C214 H226 0.956 1_655 S
C214 H227 0.961 . S
C214 H228 0.961 . S
C215 C212 1.536 1_455 S
C215 H229 0.963 . S
C215 H230 0.955 1_455 S
C215 H231 0.964 . S
H216 C200 0.931 . S
H217 C205 0.929 . S
H218 C206 0.960 . S
H219 C206 0.962 . S
H220 C206 0.960 . S
H221 C207 0.961 . S
H222 C207 0.961 . S
H223 C207 0.961 . S
H224 C208 0.931 . S
H225 C213 0.930 . S
H226 C214 0.956 1_455 S
H227 C214 0.961 . S
H228 C214 0.961 . S
H229 C215 0.963 . S
H230 C215 0.955 1_655 S
H231 C215 0.964 . S
C232 C233 1.391 . S
C232 C234 1.394 . S
C232 H248 0.931 . S
C233 C232 1.391 . S
C233 C237 1.376 . S
C234 C232 1.394 . S
C234 C235 1.369 . S
C234 C238 1.531 . S
C235 C234 1.369 . S
C235 C236 1.410 1_565 S
C235 C243 1.503 1_565 S
C236 C235 1.410 1_545 S
C236 C237 1.392 1_545 S
C236 C239 1.511 . S
C237 C233 1.376 . S
C237 C236 1.392 1_565 S
C237 H249 0.929 . S
C238 C234 1.531 . S
C238 H250 0.960 . S
C238 H251 0.962 . S
C238 H252 0.960 . S
C239 C236 1.511 . S
C239 H253 0.961 . S
C239 H254 0.961 . S
C239 H255 0.961 . S
C240 C241 1.370 . S
C240 C242 1.363 . S
C240 H256 0.931 . S
C241 C240 1.370 . S
C241 C245 1.408 . S
C242 C240 1.363 . S
C242 C243 1.370 . S
C242 C246 1.524 1_545 S
C243 C235 1.503 1_545 S
C243 C242 1.370 . S
C243 C244 1.403 . S
C244 C243 1.403 . S
C244 C245 1.404 . S
C244 C247 1.539 . S
C245 C241 1.408 . S
C245 C244 1.404 . S
C245 H257 0.930 . S
C246 C242 1.524 1_565 S
C246 H258 0.956 . S
C246 H259 0.961 . S
C246 H260 0.961 . S
C247 C244 1.539 . S
C247 H261 0.958 . S
C247 H262 0.961 . S
C247 H263 0.960 . S
H248 C232 0.931 . S
H249 C237 0.929 . S
H250 C238 0.960 . S
H251 C238 0.962 . S
H252 C238 0.960 . S
H253 C239 0.961 . S
H254 C239 0.961 . S
H255 C239 0.961 . S
H256 C240 0.931 . S
H257 C245 0.930 . S
H258 C246 0.956 . S
H259 C246 0.961 . S
H260 C246 0.961 . S
H261 C247 0.958 . S
H262 C247 0.961 . S
H263 C247 0.960 . S
C264 C265 1.391 . S
C264 C266 1.394 . S
C264 H280 0.931 . S
C265 C264 1.391 . S
C265 C269 1.376 . S
C266 C264 1.394 . S
C266 C267 1.369 . S
C266 C270 1.531 . S
C267 C266 1.369 . S
C267 C268 1.410 . S
C267 C275 1.503 . S
C268 C267 1.410 . S
C268 C269 1.392 . S
C268 C271 1.511 . S
C269 C265 1.376 . S
C269 C268 1.392 . S
C269 H281 0.929 . S
C270 C266 1.531 . S
C270 H282 0.960 . S
C270 H283 0.962 . S
C270 H284 0.960 . S
C271 C268 1.511 . S
C271 H285 0.961 . S
C271 H286 0.961 . S
C271 H287 0.961 . S
C272 C273 1.370 . S
C272 C274 1.363 . S
C272 H288 0.931 . S
C273 C272 1.370 . S
C273 C277 1.408 . S
C274 C272 1.363 . S
C274 C275 1.370 . S
C274 C278 1.524 . S
C275 C267 1.503 . S
C275 C274 1.370 . S
C275 C276 1.403 . S
C276 C275 1.403 . S
C276 C277 1.404 . S
C276 C279 1.539 . S
C277 C273 1.408 . S
C277 C276 1.404 . S
C277 H289 0.930 . S
C278 C274 1.524 . S
C278 H290 0.956 . S
C278 H291 0.961 . S
C278 H292 0.961 . S
C279 C276 1.539 . S
C279 H293 0.958 . S
C279 H294 0.961 . S
C279 H295 0.960 . S
H280 C264 0.931 . S
H281 C269 0.929 . S
H282 C270 0.960 . S
H283 C270 0.962 . S
H284 C270 0.960 . S
H285 C271 0.961 . S
H286 C271 0.961 . S
H287 C271 0.961 . S
H288 C272 0.931 . S
H289 C277 0.930 . S
H290 C278 0.956 . S
H291 C278 0.961 . S
H292 C278 0.961 . S
H293 C279 0.958 . S
H294 C279 0.961 . S
H295 C279 0.960 . S
C296 C297 1.391 . S
C296 C298 1.394 . S
C296 H312 0.931 . S
C297 C296 1.391 . S
C297 C301 1.376 . S
C298 C296 1.394 . S
C298 C299 1.369 . S
C298 C302 1.531 . S
C299 C298 1.369 . S
C299 C300 1.410 1_655 S
C299 C307 1.503 1_655 S
C300 C299 1.410 1_455 S
C300 C301 1.392 1_455 S
C300 C303 1.511 . S
C301 C297 1.376 . S
C301 C300 1.392 1_655 S
C301 H313 0.929 . S
C302 C298 1.531 . S
C302 H314 0.960 . S
C302 H315 0.962 . S
C302 H316 0.960 . S
C303 C300 1.511 . S
C303 H317 0.961 . S
C303 H318 0.961 . S
C303 H319 0.961 . S
C304 C305 1.370 . S
C304 C306 1.363 . S
C304 H320 0.931 . S
C305 C304 1.370 . S
C305 C309 1.408 . S
C306 C304 1.363 . S
C306 C307 1.370 . S
C306 C310 1.524 1_455 S
C307 C299 1.503 1_455 S
C307 C306 1.370 . S
C307 C308 1.403 . S
C308 C307 1.403 . S
C308 C309 1.404 . S
C308 C311 1.539 . S
C309 C305 1.408 . S
C309 C308 1.404 . S
C309 H321 0.930 . S
C310 C306 1.524 1_655 S
C310 H322 0.956 . S
C310 H323 0.961 . S
C310 H324 0.961 . S
C311 C308 1.539 . S
C311 H325 0.958 1_556 S
C311 H326 0.961 1_556 S
C311 H327 0.960 . S
H312 C296 0.931 . S
H313 C301 0.929 . S
H314 C302 0.960 . S
H315 C302 0.962 . S
H316 C302 0.960 . S
H317 C303 0.961 . S
H318 C303 0.961 . S
H319 C303 0.961 . S
H320 C304 0.931 . S
H321 C309 0.930 . S
H322 C310 0.956 . S
H323 C310 0.961 . S
H324 C310 0.961 . S
H325 C311 0.958 1_554 S
H326 C311 0.961 1_554 S
H327 C311 0.960 . S
C328 C329 1.391 . S
C328 C330 1.394 . S
C328 H344 0.931 . S
C329 C328 1.391 . S
C329 C333 1.376 . S
C330 C328 1.394 . S
C330 C331 1.369 . S
C330 C334 1.531 1_545 S
C331 C330 1.369 . S
C331 C332 1.410 . S
C331 C339 1.503 1_545 S
C332 C331 1.410 . S
C332 C333 1.392 . S
C332 C335 1.511 . S
C333 C329 1.376 . S
C333 C332 1.392 . S
C333 H345 0.929 . S
C334 C330 1.531 1_565 S
C334 H346 0.960 . S
C334 H347 0.962 1_565 S
C334 H348 0.960 . S
C335 C332 1.511 . S
C335 H349 0.961 . S
C335 H350 0.961 . S
C335 H351 0.961 1_545 S
C336 C337 1.370 . S
C336 C338 1.363 1_565 S
C336 H352 0.931 . S
C337 C336 1.370 . S
C337 C341 1.408 . S
C338 C336 1.363 1_545 S
C338 C339 1.370 1_545 S
C338 C342 1.524 . S
C339 C331 1.503 1_565 S
C339 C338 1.370 1_565 S
C339 C340 1.403 . S
C340 C339 1.403 . S
C340 C341 1.404 . S
C340 C343 1.539 . S
C341 C337 1.408 . S
C341 C340 1.404 . S
C341 H353 0.930 . S
C342 C338 1.524 . S
C342 H354 0.956 . S
C342 H355 0.961 . S
C342 H356 0.961 . S
C343 C340 1.539 . S
C343 H357 0.958 . S
C343 H358 0.961 . S
C343 H359 0.960 . S
H344 C328 0.931 . S
H345 C333 0.929 . S
H346 C334 0.960 . S
H347 C334 0.962 1_545 S
H348 C334 0.960 . S
H349 C335 0.961 . S
H350 C335 0.961 . S
H351 C335 0.961 1_565 S
H352 C336 0.931 . S
H353 C341 0.930 . S
H354 C342 0.956 . S
H355 C342 0.961 . S
H356 C342 0.961 . S
H357 C343 0.958 . S
H358 C343 0.961 . S
H359 C343 0.960 . S
C360 C361 1.391 . S
C360 C362 1.394 . S
C360 H376 0.931 . S
C361 C360 1.391 . S
C361 C365 1.376 . S
C362 C360 1.394 . S
C362 C363 1.369 . S
C362 C366 1.531 . S
C363 C362 1.369 . S
C363 C364 1.410 . S
C363 C371 1.503 . S
C364 C363 1.410 . S
C364 C365 1.392 . S
C364 C367 1.511 . S
C365 C361 1.376 . S
C365 C364 1.392 . S
C365 H377 0.929 . S
C366 C362 1.531 . S
C366 H378 0.960 . S
C366 H379 0.962 . S
C366 H380 0.960 . S
C367 C364 1.511 . S
C367 H381 0.961 . S
C367 H382 0.961 . S
C367 H383 0.961 . S
C368 C369 1.370 . S
C368 C370 1.363 . S
C368 H384 0.931 . S
C369 C368 1.370 . S
C369 C373 1.408 . S
C370 C368 1.363 . S
C370 C371 1.370 . S
C370 C374 1.524 . S
C371 C363 1.503 . S
C371 C370 1.370 . S
C371 C372 1.403 . S
C372 C371 1.403 . S
C372 C373 1.404 . S
C372 C375 1.539 . S
C373 C369 1.408 . S
C373 C372 1.404 . S
C373 H385 0.930 . S
C374 C370 1.524 . S
C374 H386 0.956 . S
C374 H387 0.961 . S
C374 H388 0.961 . S
C375 C372 1.539 . S
C375 H389 0.958 . S
C375 H390 0.961 . S
C375 H391 0.960 . S
H376 C360 0.931 . S
H377 C365 0.929 . S
H378 C366 0.960 . S
H379 C366 0.962 . S
H380 C366 0.960 . S
H381 C367 0.961 . S
H382 C367 0.961 . S
H383 C367 0.961 . S
H384 C368 0.931 . S
H385 C373 0.930 . S
H386 C374 0.956 . S
H387 C374 0.961 . S
H388 C374 0.961 . S
H389 C375 0.958 . S
H390 C375 0.961 . S
H391 C375 0.960 . S
C392 C393 1.391 . S
C392 C394 1.394 . S
C392 H408 0.931 . S
C393 C392 1.391 . S
C393 C397 1.376 . S
C394 C392 1.394 . S
C394 C395 1.369 . S
C394 C398 1.531 . S
C395 C394 1.369 . S
C395 C396 1.410 . S
C395 C403 1.503 . S
C396 C395 1.410 . S
C396 C397 1.392 . S
C396 C399 1.511 . S
C397 C393 1.376 . S
C397 C396 1.392 . S
C397 H409 0.929 . S
C398 C394 1.531 . S
C398 H410 0.960 . S
C398 H411 0.962 . S
C398 H412 0.960 . S
C399 C396 1.511 . S
C399 H413 0.961 . S
C399 H414 0.961 . S
C399 H415 0.961 . S
C400 C401 1.370 . S
C400 C402 1.363 . S
C400 H416 0.931 . S
C401 C400 1.370 . S
C401 C405 1.408 . S
C402 C400 1.363 . S
C402 C403 1.370 . S
C402 C406 1.524 . S
C403 C395 1.503 . S
C403 C402 1.370 . S
C403 C404 1.403 . S
C404 C403 1.403 . S
C404 C405 1.404 . S
C404 C407 1.539 . S
C405 C401 1.408 . S
C405 C404 1.404 . S
C405 H417 0.930 . S
C406 C402 1.524 . S
C406 H418 0.956 . S
C406 H419 0.961 . S
C406 H420 0.961 . S
C407 C404 1.539 . S
C407 H421 0.958 . S
C407 H422 0.961 . S
C407 H423 0.960 . S
H408 C392 0.931 . S
H409 C397 0.929 . S
H410 C398 0.960 . S
H411 C398 0.962 . S
H412 C398 0.960 . S
H413 C399 0.961 . S
H414 C399 0.961 . S
H415 C399 0.961 . S
H416 C400 0.931 . S
H417 C405 0.930 . S
H418 C406 0.956 . S
H419 C406 0.961 . S
H420 C406 0.961 . S
H421 C407 0.958 . S
H422 C407 0.961 . S
H423 C407 0.960 . S
C424 C425 1.391 . S
C424 C426 1.394 . S
C424 H440 0.931 . S
C425 C424 1.391 . S
C425 C429 1.376 . S
C426 C424 1.394 . S
C426 C427 1.369 . S
C426 C430 1.531 . S
C427 C426 1.369 . S
C427 C428 1.410 . S
C427 C435 1.503 . S
C428 C427 1.410 . S
C428 C429 1.392 . S
C428 C431 1.511 . S
C429 C425 1.376 . S
C429 C428 1.392 . S
C429 H441 0.929 . S
C430 C426 1.531 . S
C430 H442 0.960 . S
C430 H443 0.962 . S
C430 H444 0.960 . S
C431 C428 1.511 . S
C431 H445 0.961 . S
C431 H446 0.961 . S
C431 H447 0.961 . S
C432 C433 1.370 . S
C432 C434 1.363 . S
C432 H448 0.931 . S
C433 C432 1.370 . S
C433 C437 1.408 . S
C434 C432 1.363 . S
C434 C435 1.370 . S
C434 C438 1.524 . S
C435 C427 1.503 . S
C435 C434 1.370 . S
C435 C436 1.403 . S
C436 C435 1.403 . S
C436 C437 1.404 . S
C436 C439 1.539 . S
C437 C433 1.408 . S
C437 C436 1.404 . S
C437 H449 0.930 . S
C438 C434 1.524 . S
C438 H450 0.956 . S
C438 H451 0.961 . S
C438 H452 0.961 . S
C439 C436 1.539 . S
C439 H453 0.958 . S
C439 H454 0.961 . S
C439 H455 0.960 . S
H440 C424 0.931 . S
H441 C429 0.929 . S
H442 C430 0.960 . S
H443 C430 0.962 . S
H444 C430 0.960 . S
H445 C431 0.961 . S
H446 C431 0.961 . S
H447 C431 0.961 . S
H448 C432 0.931 . S
H449 C437 0.930 . S
H450 C438 0.956 . S
H451 C438 0.961 . S
H452 C438 0.961 . S
H453 C439 0.958 . S
H454 C439 0.961 . S
H455 C439 0.960 . S
C456 C457 1.391 . S
C456 C458 1.394 . S
C456 H472 0.931 . S
C457 C456 1.391 . S
C457 C461 1.376 . S
C458 C456 1.394 . S
C458 C459 1.369 . S
C458 C462 1.531 . S
C459 C458 1.369 . S
C459 C460 1.410 . S
C459 C467 1.503 . S
C460 C459 1.410 . S
C460 C461 1.392 . S
C460 C463 1.511 . S
C461 C457 1.376 . S
C461 C460 1.392 . S
C461 H473 0.929 . S
C462 C458 1.531 . S
C462 H474 0.960 . S
C462 H475 0.962 . S
C462 H476 0.960 . S
C463 C460 1.511 . S
C463 H477 0.961 . S
C463 H478 0.961 . S
C463 H479 0.961 . S
C464 C465 1.370 . S
C464 C466 1.363 . S
C464 H480 0.931 . S
C465 C464 1.370 . S
C465 C469 1.408 . S
C466 C464 1.363 . S
C466 C467 1.370 . S
C466 C470 1.524 . S
C467 C459 1.503 . S
C467 C466 1.370 . S
C467 C468 1.403 . S
C468 C467 1.403 . S
C468 C469 1.404 . S
C468 C471 1.539 . S
C469 C465 1.408 . S
C469 C468 1.404 . S
C469 H481 0.930 . S
C470 C466 1.524 . S
C470 H482 0.956 . S
C470 H483 0.961 . S
C470 H484 0.961 . S
C471 C468 1.539 . S
C471 H485 0.958 . S
C471 H486 0.961 . S
C471 H487 0.960 . S
H472 C456 0.931 . S
H473 C461 0.929 . S
H474 C462 0.960 . S
H475 C462 0.962 . S
H476 C462 0.960 . S
H477 C463 0.961 . S
H478 C463 0.961 . S
H479 C463 0.961 . S
H480 C464 0.931 . S
H481 C469 0.930 . S
H482 C470 0.956 . S
H483 C470 0.961 . S
H484 C470 0.961 . S
H485 C471 0.958 . S
H486 C471 0.961 . S
H487 C471 0.960 . S
C488 C489 1.391 . S
C488 C490 1.394 . S
C488 H504 0.931 . S
C489 C488 1.391 . S
C489 C493 1.376 . S
C490 C488 1.394 . S
C490 C491 1.369 . S
C490 C494 1.531 . S
C491 C490 1.369 . S
C491 C492 1.410 . S
C491 C499 1.503 . S
C492 C491 1.410 . S
C492 C493 1.392 . S
C492 C495 1.511 . S
C493 C489 1.376 . S
C493 C492 1.392 . S
C493 H505 0.929 . S
C494 C490 1.531 . S
C494 H506 0.960 . S
C494 H507 0.962 . S
C494 H508 0.960 . S
C495 C492 1.511 . S
C495 H509 0.961 . S
C495 H510 0.961 . S
C495 H511 0.961 . S
C496 C497 1.370 . S
C496 C498 1.363 . S
C496 H512 0.931 . S
C497 C496 1.370 . S
C497 C501 1.408 . S
C498 C496 1.363 . S
C498 C499 1.370 . S
C498 C502 1.524 . S
C499 C491 1.503 . S
C499 C498 1.370 . S
C499 C500 1.403 . S
C500 C499 1.403 . S
C500 C501 1.404 . S
C500 C503 1.539 . S
C501 C497 1.408 . S
C501 C500 1.404 . S
C501 H513 0.930 . S
C502 C498 1.524 . S
C502 H514 0.956 . S
C502 H515 0.961 . S
C502 H516 0.961 . S
C503 C500 1.539 . S
C503 H517 0.958 . S
C503 H518 0.961 . S
C503 H519 0.960 . S
H504 C488 0.931 . S
H505 C493 0.929 . S
H506 C494 0.960 . S
H507 C494 0.962 . S
H508 C494 0.960 . S
H509 C495 0.961 . S
H510 C495 0.961 . S
H511 C495 0.961 . S
H512 C496 0.931 . S
H513 C501 0.930 . S
H514 C502 0.956 . S
H515 C502 0.961 . S
H516 C502 0.961 . S
H517 C503 0.958 . S
H518 C503 0.961 . S
H519 C503 0.960 . S
C520 C521 1.391 . S
C520 C522 1.394 . S
C520 H536 0.931 . S
C521 C520 1.391 . S
C521 C525 1.376 . S
C522 C520 1.394 . S
C522 C523 1.369 . S
C522 C526 1.531 . S
C523 C522 1.369 . S
C523 C524 1.410 . S
C523 C531 1.503 . S
C524 C523 1.410 . S
C524 C525 1.392 . S
C524 C527 1.511 . S
C525 C521 1.376 . S
C525 C524 1.392 . S
C525 H537 0.929 . S
C526 C522 1.531 . S
C526 H538 0.960 . S
C526 H539 0.962 . S
C526 H540 0.960 . S
C527 C524 1.511 . S
C527 H541 0.961 . S
C527 H542 0.961 . S
C527 H543 0.961 . S
C528 C529 1.370 . S
C528 C530 1.363 . S
C528 H544 0.931 . S
C529 C528 1.370 . S
C529 C533 1.408 . S
C530 C528 1.363 . S
C530 C531 1.370 . S
C530 C534 1.524 . S
C531 C523 1.503 . S
C531 C530 1.370 . S
C531 C532 1.403 . S
C532 C531 1.403 . S
C532 C533 1.404 . S
C532 C535 1.539 . S
C533 C529 1.408 . S
C533 C532 1.404 . S
C533 H545 0.930 . S
C534 C530 1.524 . S
C534 H546 0.956 . S
C534 H547 0.961 . S
C534 H548 0.961 . S
C535 C532 1.539 . S
C535 H549 0.958 . S
C535 H550 0.961 . S
C535 H551 0.960 . S
H536 C520 0.931 . S
H537 C525 0.929 . S
H538 C526 0.960 . S
H539 C526 0.962 . S
H540 C526 0.960 . S
H541 C527 0.961 . S
H542 C527 0.961 . S
H543 C527 0.961 . S
H544 C528 0.931 . S
H545 C533 0.930 . S
H546 C534 0.956 . S
H547 C534 0.961 . S
H548 C534 0.961 . S
H549 C535 0.958 . S
H550 C535 0.961 . S
H551 C535 0.960 . S
C552 C553 1.391 . S
C552 C554 1.394 1_556 S
C552 H568 0.939 . S
C553 C552 1.391 . S
C553 C557 1.376 . S
C554 C552 1.394 1_554 S
C554 C555 1.371 . S
C554 C558 1.531 . S
C555 C554 1.371 . S
C555 C556 1.404 1_554 S
C555 C563 1.506 1_565 S
C556 C555 1.404 1_556 S
C556 C557 1.392 . S
C556 C559 1.511 . S
C557 C553 1.376 . S
C557 C556 1.392 . S
C557 H569 0.929 . S
C558 C554 1.531 . S
C558 H570 0.960 . S
C558 H571 0.962 . S
C558 H572 0.960 . S
C559 C556 1.511 . S
C559 H573 0.961 . S
C559 H574 0.961 1_565 S
C559 H575 0.961 . S
C560 C561 1.402 . S
C560 C562 1.353 1_554 S
C560 H576 0.910 1_554 S
C561 C560 1.402 . S
C561 C565 1.408 . S
C562 C560 1.353 1_556 S
C562 C563 1.370 1_556 S
C562 C566 1.524 . S
C563 C555 1.506 1_545 S
C563 C562 1.370 1_554 S
C563 C564 1.403 . S
C564 C563 1.403 . S
C564 C565 1.404 . S
C564 C567 1.540 . S
C565 C561 1.408 . S
C565 C564 1.404 . S
C565 H577 0.930 . S
C566 C562 1.524 . S
C566 H578 0.956 . S
C566 H579 0.961 . S
C566 H580 0.961 . S
C567 C564 1.540 . S
C567 H581 0.958 1_545 S
C567 H582 0.961 . S
C567 H583 0.959 1_545 S
H568 C552 0.939 . S
H569 C557 0.929 . S
H570 C558 0.960 . S
H571 C558 0.962 . S
H572 C558 0.960 . S
H573 C559 0.961 . S
H574 C559 0.961 1_545 S
H575 C559 0.961 . S
H576 C560 0.910 1_556 S
H577 C565 0.930 . S
H578 C566 0.956 . S
H579 C566 0.961 . S
H580 C566 0.961 . S
H581 C567 0.958 1_565 S
H582 C567 0.961 . S
H583 C567 0.959 1_565 S
C584 C585 1.391 . S
C584 C586 1.394 . S
C584 H600 0.931 . S
C585 C584 1.391 . S
C585 C589 1.376 . S
C586 C584 1.394 . S
C586 C587 1.369 . S
C586 C590 1.531 . S
C587 C586 1.369 . S
C587 C588 1.410 . S
C587 C595 1.503 . S
C588 C587 1.410 . S
C588 C589 1.392 . S
C588 C591 1.511 . S
C589 C585 1.376 . S
C589 C588 1.392 . S
C589 H601 0.929 . S
C590 C586 1.531 . S
C590 H602 0.960 . S
C590 H603 0.962 . S
C590 H604 0.960 . S
C591 C588 1.511 . S
C591 H605 0.961 . S
C591 H606 0.961 . S
C591 H607 0.961 . S
C592 C593 1.370 . S
C592 C594 1.363 . S
C592 H608 0.931 . S
C593 C592 1.370 . S
C593 C597 1.408 . S
C594 C592 1.363 . S
C594 C595 1.370 . S
C594 C598 1.524 . S
C595 C587 1.503 . S
C595 C594 1.370 . S
C595 C596 1.403 . S
C596 C595 1.403 . S
C596 C597 1.404 . S
C596 C599 1.539 . S
C597 C593 1.408 . S
C597 C596 1.404 . S
C597 H609 0.930 . S
C598 C594 1.524 . S
C598 H610 0.956 . S
C598 H611 0.961 . S
C598 H612 0.961 . S
C599 C596 1.539 . S
C599 H613 0.958 . S
C599 H614 0.961 . S
C599 H615 0.960 . S
H600 C584 0.931 . S
H601 C589 0.929 . S
H602 C590 0.960 . S
H603 C590 0.962 . S
H604 C590 0.960 . S
H605 C591 0.961 . S
H606 C591 0.961 . S
H607 C591 0.961 . S
H608 C592 0.931 . S
H609 C597 0.930 . S
H610 C598 0.956 . S
H611 C598 0.961 . S
H612 C598 0.961 . S
H613 C599 0.958 . S
H614 C599 0.961 . S
H615 C599 0.960 . S
C616 C617 1.391 . S
C616 C618 1.394 . S
C616 H632 0.931 . S
C617 C616 1.391 . S
C617 C621 1.376 . S
C618 C616 1.394 . S
C618 C619 1.369 . S
C618 C622 1.531 . S
C619 C618 1.369 . S
C619 C620 1.410 . S
C619 C627 1.503 1_655 S
C620 C619 1.410 . S
C620 C621 1.392 . S
C620 C623 1.511 . S
C621 C617 1.376 . S
C621 C620 1.392 . S
C621 H633 0.929 . S
C622 C618 1.531 . S
C622 H634 0.960 1_655 S
C622 H635 0.962 . S
C622 H636 0.960 . S
C623 C620 1.511 . S
C623 H637 0.961 . S
C623 H638 0.961 . S
C623 H639 0.961 . S
C624 C625 1.370 . S
C624 C626 1.363 . S
C624 H640 0.931 . S
C625 C624 1.370 . S
C625 C629 1.408 . S
C626 C624 1.363 . S
C626 C627 1.370 . S
C626 C630 1.524 1_455 S
C627 C619 1.503 1_455 S
C627 C626 1.370 . S
C627 C628 1.403 . S
C628 C627 1.403 . S
C628 C629 1.404 . S
C628 C631 1.539 . S
C629 C625 1.408 . S
C629 C628 1.404 . S
C629 H641 0.930 . S
C630 C626 1.524 1_655 S
C630 H642 0.956 . S
C630 H643 0.961 . S
C630 H644 0.961 1_655 S
C631 C628 1.539 . S
C631 H645 0.958 . S
C631 H646 0.961 . S
C631 H647 0.960 . S
H632 C616 0.931 . S
H633 C621 0.929 . S
H634 C622 0.960 1_455 S
H635 C622 0.962 . S
H636 C622 0.960 . S
H637 C623 0.961 . S
H638 C623 0.961 . S
H639 C623 0.961 . S
H640 C624 0.931 . S
H641 C629 0.930 . S
H642 C630 0.956 . S
H643 C630 0.961 . S
H644 C630 0.961 1_455 S
H645 C631 0.958 . S
H646 C631 0.961 . S
H647 C631 0.960 . S
C648 C649 1.391 . S
C648 C650 1.394 . S
C648 H664 0.931 . S
C649 C648 1.391 . S
C649 C653 1.376 . S
C650 C648 1.394 . S
C650 C651 1.369 . S
C650 C654 1.531 . S
C651 C650 1.369 . S
C651 C652 1.410 . S
C651 C659 1.485 1_564 S
C652 C651 1.410 . S
C652 C653 1.392 . S
C652 C655 1.511 1_554 S
C653 C649 1.376 . S
C653 C652 1.392 . S
C653 H665 0.929 . S
C654 C650 1.531 . S
C654 H666 0.960 1_565 S
C654 H667 0.962 . S
C654 H668 0.960 . S
C655 C652 1.511 1_556 S
C655 H669 0.961 . S
C655 H670 0.961 . S
C655 H671 0.961 1_556 S
C656 C657 1.370 . S
C656 C658 1.363 . S
C656 H672 0.931 . S
C657 C656 1.370 . S
C657 C661 1.408 1_556 S
C658 C656 1.363 . S
C658 C659 1.414 . S
C658 C662 1.524 1_545 S
C659 C651 1.485 1_546 S
C659 C658 1.414 . S
C659 C660 1.378 1_556 S
C660 C659 1.378 1_554 S
C660 C661 1.404 . S
C660 C663 1.539 . S
C661 C657 1.408 1_554 S
C661 C660 1.404 . S
C661 H673 0.930 . S
C662 C658 1.524 1_565 S
C662 H674 0.956 . S
C662 H675 0.961 . S
C662 H676 0.961 1_565 S
C663 C660 1.539 . S
C663 H677 0.958 . S
C663 H678 0.961 . S
C663 H679 0.960 . S
H664 C648 0.931 . S
H665 C653 0.929 . S
H666 C654 0.960 1_545 S
H667 C654 0.962 . S
H668 C654 0.960 . S
H669 C655 0.961 . S
H670 C655 0.961 . S
H671 C655 0.961 1_554 S
H672 C656 0.931 . S
H673 C661 0.930 . S
H674 C662 0.956 . S
H675 C662 0.961 . S
H676 C662 0.961 1_545 S
H677 C663 0.958 . S
H678 C663 0.961 . S
H679 C663 0.960 . S
C680 C681 1.391 . S
C680 C682 1.394 . S
C680 H696 0.931 . S
C681 C680 1.391 . S
C681 C685 1.376 . S
C682 C680 1.394 . S
C682 C683 1.369 . S
C682 C686 1.531 . S
C683 C682 1.369 . S
C683 C684 1.410 . S
C683 C691 1.503 . S
C684 C683 1.410 . S
C684 C685 1.392 . S
C684 C687 1.511 . S
C685 C681 1.376 . S
C685 C684 1.392 . S
C685 H697 0.929 . S
C686 C682 1.531 . S
C686 H698 0.960 . S
C686 H699 0.962 . S
C686 H700 0.960 . S
C687 C684 1.511 . S
C687 H701 0.961 . S
C687 H702 0.961 . S
C687 H703 0.961 . S
C688 C689 1.370 . S
C688 C690 1.363 . S
C688 H704 0.931 . S
C689 C688 1.370 . S
C689 C693 1.408 . S
C690 C688 1.363 . S
C690 C691 1.370 . S
C690 C694 1.524 . S
C691 C683 1.503 . S
C691 C690 1.370 . S
C691 C692 1.403 . S
C692 C691 1.403 . S
C692 C693 1.404 . S
C692 C695 1.539 . S
C693 C689 1.408 . S
C693 C692 1.404 . S
C693 H705 0.930 . S
C694 C690 1.524 . S
C694 H706 0.956 . S
C694 H707 0.961 . S
C694 H708 0.961 . S
C695 C692 1.539 . S
C695 H709 0.958 . S
C695 H710 0.961 . S
C695 H711 0.960 . S
H696 C680 0.931 . S
H697 C685 0.929 . S
H698 C686 0.960 . S
H699 C686 0.962 . S
H700 C686 0.960 . S
H701 C687 0.961 . S
H702 C687 0.961 . S
H703 C687 0.961 . S
H704 C688 0.931 . S
H705 C693 0.930 . S
H706 C694 0.956 . S
H707 C694 0.961 . S
H708 C694 0.961 . S
H709 C695 0.958 . S
H710 C695 0.961 . S
H711 C695 0.960 . S
C712 C713 1.391 . S
C712 C714 1.394 . S
C712 H728 0.931 . S
C713 C712 1.391 . S
C713 C717 1.376 . S
C714 C712 1.394 . S
C714 C715 1.369 . S
C714 C718 1.531 . S
C715 C714 1.369 . S
C715 C716 1.410 . S
C715 C723 1.503 1_455 S
C716 C715 1.410 . S
C716 C717 1.392 . S
C716 C719 1.511 . S
C717 C713 1.376 . S
C717 C716 1.392 . S
C717 H729 0.929 . S
C718 C714 1.531 . S
C718 H730 0.960 . S
C718 H731 0.962 . S
C718 H732 0.960 . S
C719 C716 1.511 . S
C719 H733 0.961 . S
C719 H734 0.961 1_455 S
C719 H735 0.961 . S
C720 C721 1.370 . S
C720 C722 1.363 . S
C720 H736 0.931 . S
C721 C720 1.370 . S
C721 C725 1.408 . S
C722 C720 1.363 . S
C722 C723 1.370 . S
C722 C726 1.524 . S
C723 C715 1.503 1_655 S
C723 C722 1.370 . S
C723 C724 1.403 . S
C724 C723 1.403 . S
C724 C725 1.404 . S
C724 C727 1.539 . S
C725 C721 1.408 . S
C725 C724 1.404 . S
C725 H737 0.930 . S
C726 C722 1.524 . S
C726 H738 0.956 . S
C726 H739 0.961 . S
C726 H740 0.961 . S
C727 C724 1.539 . S
C727 H741 0.958 1_655 S
C727 H742 0.961 . S
C727 H743 0.960 1_655 S
H728 C712 0.931 . S
H729 C717 0.929 . S
H730 C718 0.960 . S
H731 C718 0.962 . S
H732 C718 0.960 . S
H733 C719 0.961 . S
H734 C719 0.961 1_655 S
H735 C719 0.961 . S
H736 C720 0.931 . S
H737 C725 0.930 . S
H738 C726 0.956 . S
H739 C726 0.961 . S
H740 C726 0.961 . S
H741 C727 0.958 1_455 S
H742 C727 0.961 . S
H743 C727 0.960 1_455 S
C744 C745 1.391 . S
C744 C746 1.394 . S
C744 H760 0.931 . S
C745 C744 1.391 . S
C745 C749 1.376 . S
C746 C744 1.394 . S
C746 C747 1.369 . S
C746 C750 1.531 . S
C747 C746 1.369 . S
C747 C748 1.410 1_556 S
C747 C755 1.503 1_556 S
C748 C747 1.410 1_554 S
C748 C749 1.392 1_554 S
C748 C751 1.511 . S
C749 C745 1.376 . S
C749 C748 1.392 1_556 S
C749 H761 0.929 . S
C750 C746 1.531 . S
C750 H762 0.960 . S
C750 H763 0.962 . S
C750 H764 0.960 . S
C751 C748 1.511 . S
C751 H765 0.961 . S
C751 H766 0.961 . S
C751 H767 0.961 . S
C752 C753 1.370 . S
C752 C754 1.363 . S
C752 H768 0.931 . S
C753 C752 1.370 . S
C753 C757 1.408 . S
C754 C752 1.363 . S
C754 C755 1.370 . S
C754 C758 1.524 . S
C755 C747 1.503 1_554 S
C755 C754 1.370 . S
C755 C756 1.403 . S
C756 C755 1.403 . S
C756 C757 1.404 . S
C756 C759 1.539 1_554 S
C757 C753 1.408 . S
C757 C756 1.404 . S
C757 H769 0.930 . S
C758 C754 1.524 . S
C758 H770 0.956 1_554 S
C758 H771 0.961 . S
C758 H772 0.961 . S
C759 C756 1.539 1_556 S
C759 H773 0.958 . S
C759 H774 0.962 1_556 S
C759 H775 0.959 . S
H760 C744 0.931 . S
H761 C749 0.929 . S
H762 C750 0.960 . S
H763 C750 0.962 . S
H764 C750 0.960 . S
H765 C751 0.961 . S
H766 C751 0.961 . S
H767 C751 0.961 . S
H768 C752 0.931 . S
H769 C757 0.930 . S
H770 C758 0.956 1_556 S
H771 C758 0.961 . S
H772 C758 0.961 . S
H773 C759 0.958 . S
H774 C759 0.962 1_554 S
H775 C759 0.959 . S
C776 C777 1.391 . S
C776 C778 1.394 . S
C776 H792 0.931 . S
C777 C776 1.391 . S
C777 C781 1.376 . S
C778 C776 1.394 . S
C778 C779 1.369 . S
C778 C782 1.531 . S
C779 C778 1.369 . S
C779 C780 1.410 . S
C779 C787 1.503 . S
C780 C779 1.410 . S
C780 C781 1.392 . S
C780 C783 1.511 . S
C781 C777 1.376 . S
C781 C780 1.392 . S
C781 H793 0.940 . S
C782 C778 1.531 . S
C782 H794 0.960 . S
C782 H795 0.962 . S
C782 H796 0.960 . S
C783 C780 1.511 . S
C783 H797 0.961 . S
C783 H798 0.961 . S
C783 H799 0.961 . S
C784 C785 1.370 . S
C784 C786 1.363 . S
C784 H800 0.931 . S
C785 C784 1.370 . S
C785 C789 1.408 . S
C786 C784 1.363 . S
C786 C787 1.370 . S
C786 C790 1.524 . S
C787 C779 1.503 . S
C787 C786 1.370 . S
C787 C788 1.403 . S
C788 C787 1.403 . S
C788 C789 1.404 . S
C788 C791 1.539 . S
C789 C785 1.408 . S
C789 C788 1.404 . S
C789 H801 0.930 . S
C790 C786 1.524 . S
C790 H802 0.956 . S
C790 H803 0.961 . S
C790 H804 0.961 . S
C791 C788 1.539 . S
C791 H805 0.958 . S
C791 H806 0.961 . S
C791 H807 0.960 . S
H792 C776 0.931 . S
H793 C781 0.940 . S
H794 C782 0.960 . S
H795 C782 0.962 . S
H796 C782 0.960 . S
H797 C783 0.961 . S
H798 C783 0.961 . S
H799 C783 0.961 . S
H800 C784 0.931 . S
H801 C789 0.930 . S
H802 C790 0.956 . S
H803 C790 0.961 . S
H804 C790 0.961 . S
H805 C791 0.958 . S
H806 C791 0.961 . S
H807 C791 0.960 . S
C808 C809 1.391 . S
C808 C810 1.394 . S
C808 H824 0.931 . S
C809 C808 1.391 . S
C809 C813 1.376 . S
C810 C808 1.394 . S
C810 C811 1.369 . S
C810 C814 1.531 . S
C811 C810 1.369 . S
C811 C812 1.410 . S
C811 C819 1.503 . S
C812 C811 1.410 . S
C812 C813 1.392 . S
C812 C815 1.511 . S
C813 C809 1.376 . S
C813 C812 1.392 . S
C813 H825 0.929 . S
C814 C810 1.531 . S
C814 H826 0.960 . S
C814 H827 0.962 . S
C814 H828 0.960 . S
C815 C812 1.511 . S
C815 H829 0.961 . S
C815 H830 0.961 . S
C815 H831 0.961 . S
C816 C817 1.370 . S
C816 C818 1.363 . S
C816 H832 0.931 . S
C817 C816 1.370 . S
C817 C821 1.408 . S
C818 C816 1.363 . S
C818 C819 1.370 . S
C818 C822 1.524 . S
C819 C811 1.503 . S
C819 C818 1.370 . S
C819 C820 1.403 . S
C820 C819 1.403 . S
C820 C821 1.404 . S
C820 C823 1.539 . S
C821 C817 1.408 . S
C821 C820 1.404 . S
C821 H833 0.930 . S
C822 C818 1.524 . S
C822 H834 0.956 . S
C822 H835 0.961 . S
C822 H836 0.961 . S
C823 C820 1.539 . S
C823 H837 0.958 . S
C823 H838 0.961 . S
C823 H839 0.960 . S
H824 C808 0.931 . S
H825 C813 0.929 . S
H826 C814 0.960 . S
H827 C814 0.962 . S
H828 C814 0.960 . S
H829 C815 0.961 . S
H830 C815 0.961 . S
H831 C815 0.961 . S
H832 C816 0.931 . S
H833 C821 0.930 . S
H834 C822 0.956 . S
H835 C822 0.961 . S
H836 C822 0.961 . S
H837 C823 0.958 . S
H838 C823 0.961 . S
H839 C823 0.960 . S
C840 C841 1.391 . S
C840 C842 1.394 . S
C840 H856 0.931 . S
C841 C840 1.391 . S
C841 C845 1.376 . S
C842 C840 1.394 . S
C842 C843 1.369 . S
C842 C846 1.531 1_554 S
C843 C842 1.369 . S
C843 C844 1.410 . S
C843 C851 1.503 1_554 S
C844 C843 1.410 . S
C844 C845 1.392 . S
C844 C847 1.511 . S
C845 C841 1.376 . S
C845 C844 1.392 . S
C845 H857 0.929 . S
C846 C842 1.531 1_556 S
C846 H858 0.960 . S
C846 H859 0.962 . S
C846 H860 0.960 . S
C847 C844 1.511 . S
C847 H861 0.961 . S
C847 H862 0.961 . S
C847 H863 0.961 . S
C848 C849 1.370 . S
C848 C850 1.363 . S
C848 H864 0.931 . S
C849 C848 1.370 . S
C849 C853 1.408 . S
C850 C848 1.363 . S
C850 C851 1.370 . S
C850 C854 1.524 . S
C851 C843 1.503 1_556 S
C851 C850 1.370 . S
C851 C852 1.403 1_556 S
C852 C851 1.403 1_554 S
C852 C853 1.404 1_554 S
C852 C855 1.539 . S
C853 C849 1.408 . S
C853 C852 1.404 1_556 S
C853 H865 0.930 1_655 S
C854 C850 1.524 . S
C854 H866 0.956 . S
C854 H867 0.961 . S
C854 H868 0.961 . S
C855 C852 1.539 . S
C855 H869 0.958 . S
C855 H870 0.949 1_655 S
C855 H871 0.960 . S
H856 C840 0.931 . S
H857 C845 0.929 . S
H858 C846 0.960 . S
H859 C846 0.962 . S
H860 C846 0.960 . S
H861 C847 0.961 . S
H862 C847 0.961 . S
H863 C847 0.961 . S
H864 C848 0.931 . S
H865 C853 0.930 1_455 S
H866 C854 0.956 . S
H867 C854 0.961 . S
H868 C854 0.961 . S
H869 C855 0.958 . S
H870 C855 0.949 1_455 S
H871 C855 0.960 . S
C872 C873 1.391 . S
C872 C874 1.394 . S
C872 H888 0.931 1_455 S
C873 C872 1.391 . S
C873 C877 1.376 . S
C874 C872 1.394 . S
C874 C875 1.369 . S
C874 C878 1.531 . S
C875 C874 1.369 . S
C875 C876 1.410 . S
C875 C883 1.503 . S
C876 C875 1.410 . S
C876 C877 1.392 . S
C876 C879 1.511 . S
C877 C873 1.376 . S
C877 C876 1.392 . S
C877 H889 0.929 . S
C878 C874 1.531 . S
C878 H890 0.960 . S
C878 H891 0.962 . S
C878 H892 0.960 . S
C879 C876 1.511 . S
C879 H893 0.961 . S
C879 H894 0.961 . S
C879 H895 0.961 . S
C880 C881 1.370 . S
C880 C882 1.363 . S
C880 H896 0.931 . S
C881 C880 1.370 . S
C881 C885 1.408 . S
C882 C880 1.363 . S
C882 C883 1.370 . S
C882 C886 1.524 . S
C883 C875 1.503 . S
C883 C882 1.370 . S
C883 C884 1.403 . S
C884 C883 1.403 . S
C884 C885 1.404 . S
C884 C887 1.539 . S
C885 C881 1.408 . S
C885 C884 1.404 . S
C885 H897 0.930 1_565 S
C886 C882 1.524 . S
C886 H898 0.956 . S
C886 H899 0.961 . S
C886 H900 0.961 . S
C887 C884 1.539 . S
C887 H901 0.958 . S
C887 H902 0.961 . S
C887 H903 0.960 . S
H888 C872 0.931 1_655 S
H889 C877 0.929 . S
H890 C878 0.960 . S
H891 C878 0.962 . S
H892 C878 0.960 . S
H893 C879 0.961 . S
H894 C879 0.961 . S
H895 C879 0.961 . S
H896 C880 0.931 . S
H897 C885 0.930 1_545 S
H898 C886 0.956 . S
H899 C886 0.961 . S
H900 C886 0.961 . S
H901 C887 0.958 . S
H902 C887 0.961 . S
H903 C887 0.960 . S
C904 C905 1.391 . S
C904 C906 1.394 . S
C904 H920 0.931 1_545 S
C905 C904 1.391 . S
C905 C909 1.376 . S
C906 C904 1.394 . S
C906 C907 1.369 . S
C906 C910 1.531 . S
C907 C906 1.369 . S
C907 C908 1.410 . S
C907 C915 1.503 . S
C908 C907 1.410 . S
C908 C909 1.392 . S
C908 C911 1.511 . S
C909 C905 1.376 . S
C909 C908 1.392 . S
C909 H921 0.929 . S
C910 C906 1.531 . S
C910 H922 0.960 . S
C910 H923 0.962 . S
C910 H924 0.960 . S
C911 C908 1.511 . S
C911 H925 0.961 . S
C911 H926 0.961 . S
C911 H927 0.961 . S
C912 C913 1.370 . S
C912 C914 1.363 . S
C912 H928 0.931 . S
C913 C912 1.370 . S
C913 C917 1.408 . S
C914 C912 1.363 . S
C914 C915 1.370 . S
C914 C918 1.524 . S
C915 C907 1.503 . S
C915 C914 1.370 . S
C915 C916 1.403 . S
C916 C915 1.403 . S
C916 C917 1.404 . S
C916 C919 1.539 . S
C917 C913 1.408 . S
C917 C916 1.404 . S
C917 H929 0.930 . S
C918 C914 1.524 . S
C918 H930 0.956 . S
C918 H931 0.961 . S
C918 H932 0.961 . S
C919 C916 1.539 . S
C919 H933 0.958 . S
C919 H934 0.961 . S
C919 H935 0.960 . S
H920 C904 0.931 1_565 S
H921 C909 0.929 . S
H922 C910 0.960 . S
H923 C910 0.962 . S
H924 C910 0.960 . S
H925 C911 0.961 . S
H926 C911 0.961 . S
H927 C911 0.961 . S
H928 C912 0.931 . S
H929 C917 0.930 . S
H930 C918 0.956 . S
H931 C918 0.961 . S
H932 C918 0.961 . S
H933 C919 0.958 . S
H934 C919 0.961 . S
H935 C919 0.960 . S
C169 C55 1.387 . S
C177 C13 1.354 . S
C201 C27 1.316 . S
C209 C69 1.334 . S
C233 C83 1.305 . S
C241 C41 1.342 . S
C265 C97 1.385 . S
C273 C139 1.359 . S
C297 C153 1.304 . S
C305 C111 1.343 . S
C329 C125 1.332 . S
C337 C167 1.364 . S
C361 C123 1.516 . S
C369 C11 1.539 . S
C393 C25 1.543 . S
C401 C137 1.528 . S
C425 C39 1.532 . S
C433 C151 1.533 . S
C457 C53 1.534 . S
C465 C165 1.532 . S
C489 C95 1.523 . S
C497 C67 1.537 . S
C521 C109 1.541 . S
C529 C81 1.529 . S
C553 C105 0.975 . S
C561 C7 0.961 . S
C585 C21 0.975 . S
C593 C119 0.961 . S
C617 C35 0.940 . S
C625 C133 0.954 . S
C649 C49 0.936 . S
C657 C147 0.952 . S
C681 C161 0.978 . S
C689 C63 0.963 . S
C713 C77 0.981 . S
C721 C91 0.965 . S
C745 C148 1.282 1_455 S
C753 C8 1.289 . S
C777 C162 1.277 1_545 S
C785 C22 1.313 1_655 S
C809 C92 1.281 . S
C817 C36 1.313 1_565 S
C841 C50 1.330 . S
C849 C106 1.289 1_655 S
C873 C64 1.326 1_455 S
C881 C120 1.285 1_565 S
C905 C78 1.330 1_545 S
C913 C134 1.288 . S
