# Generated by pormake.
# Topology wiv, (6)-cn, num edge types: 1
# Building blocks:
#     Node 0, Type 0, BuildingBlock: NUHQIS_clean_sbu_0, # of connection points: 6
#     Node 1, Type 0, BuildingBlock: NUHQIS_clean_sbu_0, # of connection points: 6
#     Node 2, Type 0, BuildingBlock: NUHQIS_clean_sbu_0, # of connection points: 6
#     Node 3, Type 0, BuildingBlock: NUHQIS_clean_sbu_0, # of connection points: 6
#     Node 4, Type 0, BuildingBlock: NUHQIS_clean_sbu_0, # of connection points: 6
#     Node 5, Type 0, BuildingBlock: NUHQIS_clean_sbu_0, # of connection points: 6
#     Node 6, Type 0, BuildingBlock: NUHQIS_clean_sbu_0, # of connection points: 6
#     Node 7, Type 0, BuildingBlock: NUHQIS_clean_sbu_0, # of connection points: 6
#     Node 8, Type 0, BuildingBlock: NUHQIS_clean_sbu_0, # of connection points: 6
#     Node 9, Type 0, BuildingBlock: NUHQIS_clean_sbu_0, # of connection points: 6
#     Node 10, Type 0, BuildingBlock: NUHQIS_clean_sbu_0, # of connection points: 6
#     Node 11, Type 0, BuildingBlock: NUHQIS_clean_sbu_0, # of connection points: 6
#     Node 12, Type 0, BuildingBlock: NUHQIS_clean_sbu_0, # of connection points: 6
#     Node 13, Type 0, BuildingBlock: NUHQIS_clean_sbu_0, # of connection points: 6
#     Node 14, Type 0, BuildingBlock: NUHQIS_clean_sbu_0, # of connection points: 6
#     Node 15, Type 0, BuildingBlock: NUHQIS_clean_sbu_0, # of connection points: 6
#     Edge 16, Type (0, 0), BuildingBlock: CIFDUS_clean_linker_0, # of connection points: 2
#     Edge 17, Type (0, 0), BuildingBlock: CIFDUS_clean_linker_0, # of connection points: 2
#     Edge 18, Type (0, 0), BuildingBlock: CIFDUS_clean_linker_0, # of connection points: 2
#     Edge 19, Type (0, 0), BuildingBlock: CIFDUS_clean_linker_0, # of connection points: 2
#     Edge 20, Type (0, 0), BuildingBlock: CIFDUS_clean_linker_0, # of connection points: 2
#     Edge 21, Type (0, 0), BuildingBlock: CIFDUS_clean_linker_0, # of connection points: 2
#     Edge 22, Type (0, 0), BuildingBlock: CIFDUS_clean_linker_0, # of connection points: 2
#     Edge 23, Type (0, 0), BuildingBlock: CIFDUS_clean_linker_0, # of connection points: 2
#     Edge 24, Type (0, 0), BuildingBlock: CIFDUS_clean_linker_0, # of connection points: 2
#     Edge 25, Type (0, 0), BuildingBlock: CIFDUS_clean_linker_0, # of connection points: 2
#     Edge 26, Type (0, 0), BuildingBlock: CIFDUS_clean_linker_0, # of connection points: 2
#     Edge 27, Type (0, 0), BuildingBlock: CIFDUS_clean_linker_0, # of connection points: 2
#     Edge 28, Type (0, 0), BuildingBlock: CIFDUS_clean_linker_0, # of connection points: 2
#     Edge 29, Type (0, 0), BuildingBlock: CIFDUS_clean_linker_0, # of connection points: 2
#     Edge 30, Type (0, 0), BuildingBlock: CIFDUS_clean_linker_0, # of connection points: 2
#     Edge 31, Type (0, 0), BuildingBlock: CIFDUS_clean_linker_0, # of connection points: 2
#     Edge 32, Type (0, 0), BuildingBlock: CIFDUS_clean_linker_0, # of connection points: 2
#     Edge 33, Type (0, 0), BuildingBlock: CIFDUS_clean_linker_0, # of connection points: 2
#     Edge 34, Type (0, 0), BuildingBlock: CIFDUS_clean_linker_0, # of connection points: 2
#     Edge 35, Type (0, 0), BuildingBlock: CIFDUS_clean_linker_0, # of connection points: 2
#     Edge 36, Type (0, 0), BuildingBlock: CIFDUS_clean_linker_0, # of connection points: 2
#     Edge 37, Type (0, 0), BuildingBlock: CIFDUS_clean_linker_0, # of connection points: 2
#     Edge 38, Type (0, 0), BuildingBlock: CIFDUS_clean_linker_0, # of connection points: 2
#     Edge 39, Type (0, 0), BuildingBlock: CIFDUS_clean_linker_0, # of connection points: 2
#     Edge 40, Type (0, 0), BuildingBlock: CIFDUS_clean_linker_0, # of connection points: 2
#     Edge 41, Type (0, 0), BuildingBlock: CIFDUS_clean_linker_0, # of connection points: 2
#     Edge 42, Type (0, 0), BuildingBlock: CIFDUS_clean_linker_0, # of connection points: 2
#     Edge 43, Type (0, 0), BuildingBlock: CIFDUS_clean_linker_0, # of connection points: 2
#     Edge 44, Type (0, 0), BuildingBlock: CIFDUS_clean_linker_0, # of connection points: 2
#     Edge 45, Type (0, 0), BuildingBlock: CIFDUS_clean_linker_0, # of connection points: 2
#     Edge 46, Type (0, 0), BuildingBlock: CIFDUS_clean_linker_0, # of connection points: 2
#     Edge 47, Type (0, 0), BuildingBlock: CIFDUS_clean_linker_0, # of connection points: 2
#     Edge 48, Type (0, 0), BuildingBlock: CIFDUS_clean_linker_0, # of connection points: 2
#     Edge 49, Type (0, 0), BuildingBlock: CIFDUS_clean_linker_0, # of connection points: 2
#     Edge 50, Type (0, 0), BuildingBlock: CIFDUS_clean_linker_0, # of connection points: 2
#     Edge 51, Type (0, 0), BuildingBlock: CIFDUS_clean_linker_0, # of connection points: 2
#     Edge 52, Type (0, 0), BuildingBlock: CIFDUS_clean_linker_0, # of connection points: 2
#     Edge 53, Type (0, 0), BuildingBlock: CIFDUS_clean_linker_0, # of connection points: 2
#     Edge 54, Type (0, 0), BuildingBlock: CIFDUS_clean_linker_0, # of connection points: 2
#     Edge 55, Type (0, 0), BuildingBlock: CIFDUS_clean_linker_0, # of connection points: 2
#     Edge 56, Type (0, 0), BuildingBlock: CIFDUS_clean_linker_0, # of connection points: 2
#     Edge 57, Type (0, 0), BuildingBlock: CIFDUS_clean_linker_0, # of connection points: 2
#     Edge 58, Type (0, 0), BuildingBlock: CIFDUS_clean_linker_0, # of connection points: 2
#     Edge 59, Type (0, 0), BuildingBlock: CIFDUS_clean_linker_0, # of connection points: 2
#     Edge 60, Type (0, 0), BuildingBlock: CIFDUS_clean_linker_0, # of connection points: 2
#     Edge 61, Type (0, 0), BuildingBlock: CIFDUS_clean_linker_0, # of connection points: 2
#     Edge 62, Type (0, 0), BuildingBlock: CIFDUS_clean_linker_0, # of connection points: 2
#     Edge 63, Type (0, 0), BuildingBlock: CIFDUS_clean_linker_0, # of connection points: 2
# Relax obj value: 0.140
# Max RMSD: 0.197
# Mean RMSD: 0.197
data_MOF--net-wiv--node1-NUHQIS_clean_sbu_0--edge1-CIFDUS_clean_linker_0
_symmetry_space_group_name_H-M    P1
_symmetry_Int_Tables_number       1
_symmetry_cell_setting            triclinic
loop_
_symmetry_equiv_pos_as_xyz
'x, y, z'
_cell_length_a     44.038796
_cell_length_b     44.075061
_cell_length_c     22.647976
_cell_angle_alpha  89.924571
_cell_angle_beta   89.89447
_cell_angle_gamma 89.913534
loop_
_atom_site_label
_atom_site_type_symbol
_atom_site_fract_x
_atom_site_fract_y
_atom_site_fract_z
_atom_type_partial_charge
Tb0 Tb 0.33367 0.10122 0.1852 0.0
Eu1 Eu 0.38118 0.10064 0.07204 0.0
C2 C 0.35689 0.16182 0.12969 0.0
C3 C 0.30893 0.09826 0.05329 0.0
C4 C 0.30932 0.10173 0.34093 0.0
C5 C 0.30117 0.12292 0.43891 0.0
C6 C 0.29368 0.12146 0.37888 0.0
C7 C 0.33303 0.08384 0.36392 0.0
C8 C 0.34052 0.08531 0.42386 0.0
C9 C 0.32453 0.10472 0.46217 0.0
C10 C 0.30131 0.10052 0.27748 0.0
O11 O 0.33951 0.05476 0.15517 0.0
O12 O 0.38846 0.05738 0.12395 0.0
O13 O 0.40967 0.11414 0.15045 0.0
O14 O 0.37866 0.09572 0.22473 0.0
C15 C 0.36633 0.04218 0.14902 0.0
O16 O 0.40265 0.07499 1.00095 0.0
O17 O 0.41134 0.12315 1.00906 0.0
O18 O 0.36072 0.14762 0.07919 0.0
O19 O 0.35285 0.14654 0.17876 0.0
O20 O 0.30432 0.10832 0.10758 0.0
O21 O 0.33549 0.08802 1.03631 0.0
C22 C 0.4049 0.10636 0.2059 0.0
O23 O 0.30654 0.12495 0.24676 0.0
O24 O 0.30969 0.07629 0.24898 0.0
C25 C 0.4072 0.10261 0.91264 0.0
C26 C 0.39212 0.10558 0.79128 0.0
C27 C 0.41783 0.08928 0.81057 0.0
C28 C 0.42527 0.08786 0.87056 0.0
C29 C 0.38152 0.1189 0.8939 0.0
C30 C 0.37411 0.12047 0.83384 0.0
C31 C 0.41413 0.09905 0.97597 0.0
H32 H 0.28897 0.1386 0.46708 0.0
H33 H 0.27582 0.13594 0.36197 0.0
H34 H 0.34582 0.06866 0.33565 0.0
H35 H 0.35857 0.07093 0.4404 0.0
H36 H 0.43192 0.07701 0.77947 0.0
H37 H 0.4449 0.07479 0.8842 0.0
H38 H 0.36703 0.13018 0.92578 0.0
H39 H 0.35436 0.13349 0.82081 0.0
Tb40 Tb 0.10268 0.62804 1.00662 0.0
Eu41 Eu 0.11156 0.67511 0.89356 0.0
C42 C 0.05042 0.63853 0.91242 0.0
C43 C 0.11618 0.60061 0.88002 0.0
C44 C 0.09659 0.60722 0.16465 0.0
C45 C 0.07692 0.60415 0.26485 0.0
C46 C 0.07679 0.59432 0.20611 0.0
C47 C 0.1171 0.62964 0.18309 0.0
C48 C 0.11729 0.63948 0.24188 0.0
C49 C 0.09682 0.62724 0.28338 0.0
C50 C 0.09372 0.59903 0.10173 0.0
O51 O 0.15116 0.62688 0.98473 0.0
O52 O 0.15587 0.67369 0.94105 0.0
O53 O 0.09343 0.70281 0.9713 0.0
O54 O 0.11322 0.6723 0.04288 0.0
C55 C 0.16792 0.64912 0.96359 0.0
O56 O 0.14099 0.69577 0.8272 0.0
O57 O 0.09347 0.70845 0.83128 0.0
O58 O 0.07019 0.64839 0.874 0.0
O59 O 0.05716 0.63626 0.9689 0.0
O60 O 0.10557 0.59599 0.9338 0.0
O61 O 0.1223 0.62785 0.85867 0.0
C62 C 0.10148 0.69829 1.02669 0.0
O63 O 0.07267 0.6136 0.07317 0.0
O64 O 0.11867 0.59738 0.07094 0.0
C65 C 0.11627 0.70355 0.7367 0.0
C66 C 0.11633 0.68815 0.61542 0.0
C67 C 0.13534 0.7113 0.63693 0.0
C68 C 0.13533 0.71886 0.697 0.0
C69 C 0.09697 0.68072 0.71539 0.0
C70 C 0.09691 0.67319 0.65537 0.0
C71 C 0.11863 0.70956 0.80062 0.0
H72 H 0.06126 0.59373 0.29568 0.0
H73 H 0.06072 0.57705 0.19276 0.0
H74 H 0.1325 0.64006 0.15174 0.0
H75 H 0.13288 0.6573 0.25431 0.0
H76 H 0.15031 0.72354 0.60736 0.0
H77 H 0.15054 0.73639 0.71261 0.0
H78 H 0.08247 0.66816 0.74538 0.0
H79 H 0.08236 0.65493 0.64064 0.0
Tb80 Tb 0.66556 0.9094 0.18145 0.0
Eu81 Eu 0.61968 0.90616 0.06677 0.0
C82 C 0.64842 0.84738 0.12574 0.0
C83 C 0.69193 0.91239 0.04987 0.0
C84 C 0.69058 0.90914 0.33692 0.0
C85 C 0.70694 0.89677 0.43662 0.0
C86 C 0.71338 0.90002 0.37629 0.0
C87 C 0.66118 0.91461 0.35859 0.0
C88 C 0.6548 0.91159 0.41873 0.0
C89 C 0.67759 0.90271 0.45872 0.0
C90 C 0.69754 0.9136 0.27372 0.0
O91 O 0.65877 0.95449 0.14543 0.0
O92 O 0.6098 0.94939 0.11743 0.0
O93 O 0.59154 0.88986 0.14341 0.0
O94 O 0.61959 0.90986 0.22003 0.0
C95 C 0.63152 0.96604 0.13994 0.0
O96 O 0.59796 0.92953 0.99311 0.0
O97 O 0.59036 0.88143 1.00593 0.0
O98 O 0.64431 0.86116 0.07485 0.0
O99 O 0.65008 0.86283 0.17497 0.0
O100 O 0.69643 0.90375 0.10519 0.0
O101 O 0.66497 0.92033 1.0308 0.0
C102 C 0.59471 0.89693 0.19952 0.0
O103 O 0.69689 0.8895 0.24046 0.0
O104 O 0.6838 0.93638 0.24862 0.0
C105 C 0.59468 0.89945 0.90802 0.0
C106 C 0.61087 0.89366 0.78785 0.0
C107 C 0.58229 0.90536 0.80421 0.0
C108 C 0.57433 0.9083 0.86378 0.0
C109 C 0.62303 0.88735 0.89205 0.0
C110 C 0.63109 0.88452 0.83252 0.0
C111 C 0.58709 0.90461 0.97052 0.0
H112 H 0.72492 0.88951 0.46592 0.0
H113 H 0.73619 0.89557 0.36045 0.0
H114 H 0.64317 0.92173 0.32915 0.0
H115 H 0.63209 0.91691 0.43395 0.0
H116 H 0.56633 0.91294 0.77095 0.0
H117 H 0.55246 0.91795 0.87531 0.0
H118 H 0.63903 0.88036 0.92572 0.0
H119 H 0.65309 0.87508 0.82144 0.0
Tb120 Tb 0.9026 0.37272 0.98616 0.0
Eu121 Eu 0.89867 0.3225 0.87617 0.0
C122 C 0.96035 0.35953 0.90272 0.0
C123 C 0.89557 0.3968 0.85539 0.0
C124 C 0.90233 0.39543 0.14446 0.0
C125 C 0.91994 0.4032 0.24528 0.0
C126 C 0.92035 0.4111 0.18529 0.0
C127 C 0.88386 0.37159 0.16483 0.0
C128 C 0.88341 0.36368 0.22491 0.0
C129 C 0.90147 0.37937 0.26608 0.0
C130 C 0.9041 0.40342 0.08083 0.0
O131 O 0.85601 0.37201 0.9518 0.0
O132 O 0.85595 0.32181 0.92959 0.0
O133 O 0.91505 0.29501 0.9548 0.0
O134 O 0.8976 0.32786 1.02584 0.0
C135 C 0.84113 0.3469 0.94032 0.0
O136 O 0.86906 0.30347 0.8085 0.0
O137 O 0.91595 0.28878 0.81368 0.0
O138 O 0.94386 0.34398 0.86551 0.0
O139 O 0.94973 0.36943 0.95378 0.0
O140 O 0.90307 0.40325 0.91038 0.0
O141 O 0.88996 0.36897 0.8372 0.0
C142 C 0.90833 0.30121 1.01027 0.0
O143 O 0.92814 0.39385 0.05304 0.0
O144 O 0.87974 0.39949 0.04923 0.0
C145 C 0.89441 0.29569 0.71817 0.0
C146 C 0.89703 0.31081 0.59634 0.0
C147 C 0.87737 0.28795 0.61704 0.0
C148 C 0.87603 0.28057 0.67724 0.0
C149 C 0.91401 0.31863 0.69791 0.0
C150 C 0.91534 0.32608 0.63768 0.0
C151 C 0.89113 0.28911 0.78204 0.0
H152 H 0.9345 0.41556 0.27528 0.0
H153 H 0.93501 0.42935 0.17065 0.0
H154 H 0.86978 0.35902 0.13429 0.0
H155 H 0.86857 0.34554 0.23921 0.0
H156 H 0.86248 0.27617 0.58679 0.0
H157 H 0.86023 0.26333 0.69202 0.0
H158 H 0.92805 0.33104 0.72877 0.0
H159 H 0.93084 0.34369 0.62347 0.0
Tb160 Tb 0.33476 0.39832 0.13531 0.0
Eu161 Eu 0.38091 0.4046 0.24914 0.0
C162 C 0.36105 0.34066 0.19491 0.0
C163 C 0.30901 0.40205 0.26691 0.0
C164 C 0.31119 0.3933 0.98027 0.0
C165 C 0.30197 0.37274 0.88231 0.0
C166 C 0.29435 0.37473 0.94231 0.0
C167 C 0.33631 0.40922 0.95761 0.0
C168 C 0.34384 0.40733 0.89778 0.0
C169 C 0.32658 0.38932 0.85921 0.0
C170 C 0.30267 0.39603 0.04321 0.0
O171 O 0.3358 0.44469 0.16674 0.0
O172 O 0.38503 0.44735 0.19333 0.0
O173 O 0.41159 0.39412 0.17315 0.0
O174 O 0.37987 0.40482 0.09454 0.0
C175 C 0.36128 0.45987 0.16823 0.0
O176 O 0.39827 0.43211 0.3216 0.0
O177 O 0.41378 0.38574 0.31123 0.0
O178 O 0.36397 0.35588 0.24457 0.0
O179 O 0.35722 0.35496 0.14483 0.0
O180 O 0.30552 0.39025 0.21355 0.0
O181 O 0.3344 0.41507 0.28263 0.0
C182 C 0.40709 0.39915 0.11656 0.0
O183 O 0.30803 0.3725 0.07658 0.0
O184 O 0.31073 0.42113 0.06899 0.0
C185 C 0.40676 0.40413 0.40836 0.0
C186 C 0.39265 0.39672 0.52934 0.0
C187 C 0.41727 0.41495 0.51144 0.0
C188 C 0.42421 0.41861 0.45153 0.0
C189 C 0.38227 0.3858 0.42579 0.0
C190 C 0.37528 0.38211 0.48569 0.0
C191 C 0.41314 0.40959 0.34538 0.0
H192 H 0.28859 0.35822 0.85395 0.0
H193 H 0.27521 0.3619 0.95898 0.0
H194 H 0.34999 0.42348 0.98597 0.0
H195 H 0.36281 0.42056 0.88152 0.0
H196 H 0.43083 0.42694 0.54367 0.0
H197 H 0.44298 0.43312 0.43888 0.0
H198 H 0.36841 0.37452 0.39301 0.0
H199 H 0.3564 0.36766 0.49779 0.0
Tb200 Tb 0.40785 0.63177 0.84169 0.0
Eu201 Eu 0.4036 0.67894 0.95426 0.0
C202 C 0.46439 0.6491 0.91738 0.0
C203 C 0.40219 0.60579 0.97211 0.0
C204 C 0.4068 0.60825 0.68557 0.0
C205 C 0.41369 0.59611 0.58177 0.0
C206 C 0.41686 0.58839 0.64144 0.0
C207 C 0.39344 0.63597 0.66931 0.0
C208 C 0.39037 0.64381 0.60964 0.0
C209 C 0.40049 0.62397 0.56504 0.0
C210 C 0.41173 0.60069 0.74827 0.0
O211 O 0.36118 0.64923 0.84685 0.0
O212 O 0.3591 0.65505 0.94679 0.0
O213 O 0.39332 0.70725 0.8724 0.0
O214 O 0.41842 0.67666 0.80674 0.0
C215 C 0.3455 0.6506 0.89635 0.0
O216 O 0.37811 0.70642 1.01797 0.0
O217 O 0.42712 0.70467 1.02232 0.0
O218 O 0.45132 0.67568 0.92065 0.0
O219 O 0.44922 0.62633 0.89458 0.0
O220 O 0.39603 0.60181 0.91557 0.0
O221 O 0.41041 0.63223 0.9938 0.0
C222 C 0.40481 0.70239 0.81934 0.0
O223 O 0.43469 0.61429 0.77293 0.0
O224 O 0.38778 0.60118 0.78223 0.0
C225 C 0.40056 0.70473 0.11275 0.0
C226 C 0.39887 0.69056 0.23468 0.0
C227 C 0.38801 0.71867 0.21377 0.0
C228 C 0.38881 0.72561 0.15334 0.0
C229 C 0.41082 0.67642 0.13319 0.0
C230 C 0.41012 0.66946 0.19344 0.0
C231 C 0.40215 0.71247 0.04936 0.0
H232 H 0.42215 0.58048 0.54874 0.0
H233 H 0.4275 0.56703 0.65312 0.0
H234 H 0.38555 0.65164 0.70282 0.0
H235 H 0.37984 0.66528 0.59848 0.0
H236 H 0.37864 0.73518 0.24411 0.0
H237 H 0.38027 0.74726 0.13808 0.0
H238 H 0.41962 0.65971 0.10265 0.0
H239 H 0.41895 0.64773 0.20775 0.0
Tb240 Tb 0.68429 0.6142 0.13502 0.0
Eu241 Eu 0.63595 0.60406 0.24562 0.0
C242 C 0.65566 0.67028 0.19909 0.0
C243 C 0.70679 0.6074 0.2659 0.0
C244 C 0.70914 0.61582 0.98251 0.0
C245 C 0.70847 0.63326 0.88039 0.0
C246 C 0.71943 0.63569 0.93835 0.0
C247 C 0.68806 0.5932 0.96754 0.0
C248 C 0.67699 0.59088 0.90993 0.0
C249 C 0.68669 0.61115 0.86578 0.0
C250 C 0.71729 0.62098 0.04505 0.0
O251 O 0.66108 0.57267 0.11406 0.0
O252 O 0.64539 0.55741 0.20578 0.0
O253 O 0.60458 0.6053 0.16743 0.0
O254 O 0.6392 0.62177 0.09677 0.0
C255 C 0.65046 0.55182 0.14955 0.0
O256 O 0.62426 0.57425 0.31915 0.0
O257 O 0.60197 0.61776 0.31121 0.0
O258 O 0.63361 0.65376 0.22155 0.0
O259 O 0.68058 0.6581 0.17767 0.0
O260 O 0.71105 0.59797 0.21126 0.0
O261 O 0.68074 0.61897 0.28136 0.0
C262 C 0.6113 0.61493 0.1138 0.0
O263 O 0.70263 0.64315 0.07031 0.0
O264 O 0.71845 0.59704 0.07906 0.0
C265 C 0.61572 0.60072 0.40719 0.0
C266 C 0.63808 0.60687 0.52381 0.0
C267 C 0.61509 0.58573 0.51075 0.0
C268 C 0.60412 0.58264 0.45296 0.0
C269 C 0.638 0.62243 0.42028 0.0
C270 C 0.64898 0.62555 0.47792 0.0
C271 C 0.6073 0.59443 0.34528 0.0
H272 H 0.71626 0.64936 0.84755 0.0
H273 H 0.73537 0.65355 0.94901 0.0
H274 H 0.67942 0.57778 1.00076 0.0
H275 H 0.66051 0.57338 0.90013 0.0
H276 H 0.60639 0.57074 0.54468 0.0
H277 H 0.58725 0.56543 0.44367 0.0
H278 H 0.6475 0.63648 0.3856 0.0
H279 H 0.66628 0.6424 0.4864 0.0
Tb280 Tb 0.60138 0.38418 0.81013 0.0
Eu281 Eu 0.61014 0.33795 0.92198 0.0
C282 C 0.54812 0.37321 0.90257 0.0
C283 C 0.61283 0.41228 0.93535 0.0
C284 C 0.60073 0.40462 0.65296 0.0
C285 C 0.58616 0.40586 0.54953 0.0
C286 C 0.58317 0.41688 0.6072 0.0
C287 C 0.62191 0.38172 0.64009 0.0
C288 C 0.62489 0.37066 0.58255 0.0
C289 C 0.60667 0.38222 0.53676 0.0
C290 C 0.59425 0.41303 0.7146 0.0
O291 O 0.64956 0.38589 0.83623 0.0
O292 O 0.6528 0.33724 0.86914 0.0
O293 O 0.59241 0.30969 0.84487 0.0
O294 O 0.61296 0.34015 0.77418 0.0
C295 C 0.66602 0.3624 0.85285 0.0
O296 O 0.63971 0.31925 0.99009 0.0
O297 O 0.59316 0.30359 0.98315 0.0
O298 O 0.56778 0.36325 0.94096 0.0
O299 O 0.55528 0.37624 0.84629 0.0
O300 O 0.60005 0.41561 0.88322 0.0
O301 O 0.62173 0.38552 0.95542 0.0
C302 C 0.60136 0.31409 0.78995 0.0
O303 O 0.57319 0.39681 0.73965 0.0
O304 O 0.61751 0.41663 0.74937 0.0
C305 C 0.61283 0.31302 0.0784 0.0
C306 C 0.60947 0.33512 0.19516 0.0
C307 C 0.62989 0.31171 0.18038 0.0
C308 C 0.63168 0.30091 0.12231 0.0
C309 C 0.59187 0.33581 0.09339 0.0
C310 C 0.59016 0.34668 0.15115 0.0
C311 C 0.61752 0.30482 1.01604 0.0
H312 H 0.57159 0.41505 0.51543 0.0
H313 H 0.5664 0.43426 0.61644 0.0
H314 H 0.63558 0.3718 0.67485 0.0
H315 H 0.64123 0.35282 0.57402 0.0
H316 H 0.64528 0.30256 0.21315 0.0
H317 H 0.64845 0.28382 0.11126 0.0
H318 H 0.57741 0.34589 0.06005 0.0
H319 H 0.57396 0.36447 0.1612 0.0
Tb320 Tb 0.83526 0.60436 0.68908 0.0
Eu321 Eu 0.88054 0.60026 0.57369 0.0
C322 C 0.85924 0.6633 0.63218 0.0
C323 C 0.80981 0.59915 0.55843 0.0
C324 C 0.80705 0.60892 0.84192 0.0
C325 C 0.79193 0.60287 0.94445 0.0
C326 C 0.78518 0.60097 0.88418 0.0
C327 C 0.8357 0.61899 0.8605 0.0
C328 C 0.84254 0.62063 0.92064 0.0
C329 C 0.82079 0.6124 0.96324 0.0
C330 C 0.80099 0.60411 0.77883 0.0
O331 O 0.8402 0.55776 0.65998 0.0
O332 O 0.88923 0.55906 0.63125 0.0
O333 O 0.9117 0.612 0.64775 0.0
O334 O 0.88102 0.60272 0.72903 0.0
C335 C 0.86693 0.54484 0.65774 0.0
O336 O 0.90116 0.57359 0.50326 0.0
O337 O 0.90872 0.62208 0.50636 0.0
O338 O 0.86208 0.64849 0.58187 0.0
O339 O 0.8558 0.64861 0.68197 0.0
O340 O 0.80714 0.6131 0.60984 0.0
O341 O 0.83468 0.58442 0.54554 0.0
C342 C 0.90786 0.60838 0.70497 0.0
O343 O 0.80443 0.62751 0.74421 0.0
O344 O 0.81366 0.57999 0.7567 0.0
C345 C 0.90338 0.59952 0.41267 0.0
C346 C 0.88732 0.60133 0.2919 0.0
C347 C 0.91798 0.60319 0.30951 0.0
C348 C 0.92591 0.60212 0.36931 0.0
C349 C 0.8728 0.59851 0.39568 0.0
C350 C 0.86482 0.59917 0.33598 0.0
C351 C 0.91168 0.5973 0.47542 0.0
H352 H 0.77494 0.59596 0.97635 0.0
H353 H 0.76317 0.59261 0.87053 0.0
H354 H 0.85297 0.625 0.82847 0.0
H355 H 0.86491 0.62821 0.93385 0.0
H356 H 0.93595 0.60556 0.27715 0.0
H357 H 0.94964 0.60319 0.38167 0.0
H358 H 0.85513 0.59683 0.42872 0.0
H359 H 0.84105 0.59734 0.32454 0.0
Tb360 Tb 0.60212 0.13514 0.4829 0.0
Eu361 Eu 0.60671 0.1816 0.37106 0.0
C362 C 0.54619 0.15269 0.40777 0.0
C363 C 0.61142 0.10852 0.35466 0.0
C364 C 0.60282 0.11577 0.63836 0.0
C365 C 0.59376 0.11112 0.74373 0.0
C366 C 0.59098 0.09961 0.68639 0.0
C367 C 0.61777 0.14341 0.64827 0.0
C368 C 0.62056 0.15492 0.70539 0.0
C369 C 0.60834 0.13908 0.75384 0.0
C370 C 0.59766 0.10537 0.57755 0.0
O371 O 0.64918 0.1519 0.4792 0.0
O372 O 0.65218 0.15997 0.37979 0.0
O373 O 0.61734 0.21008 0.45202 0.0
O374 O 0.5909 0.18007 0.51634 0.0
C375 C 0.66535 0.15449 0.43032 0.0
O376 O 0.63089 0.2095 0.30613 0.0
O377 O 0.58184 0.20713 0.30445 0.0
O378 O 0.55962 0.17903 0.40729 0.0
O379 O 0.56124 0.12929 0.4286 0.0
O380 O 0.61619 0.10527 0.41171 0.0
O381 O 0.60213 0.13436 0.33137 0.0
C382 C 0.60491 0.20557 0.50431 0.0
O383 O 0.57465 0.11808 0.55117 0.0
O384 O 0.62158 0.10471 0.54356 0.0
C385 C 0.60733 0.20433 0.21344 0.0
C386 C 0.61199 0.18246 0.09674 0.0
C387 C 0.62523 0.21037 0.11253 0.0
C388 C 0.62306 0.2211 0.17064 0.0
C389 C 0.59385 0.17667 0.19753 0.0
C390 C 0.5961 0.1659 0.13987 0.0
C391 C 0.60635 0.21445 0.27538 0.0
H392 H 0.58369 0.09856 0.77991 0.0
H393 H 0.57903 0.07844 0.67944 0.0
H394 H 0.62688 0.15637 0.61163 0.0
H395 H 0.63221 0.17631 0.7115 0.0
H396 H 0.63783 0.22353 0.08037 0.0
H397 H 0.63405 0.24216 0.18251 0.0
H398 H 0.58174 0.16314 0.22983 0.0
H399 H 0.58525 0.14459 0.12903 0.0
Tb400 Tb 0.17629 0.40397 0.68586 0.0
Eu401 Eu 0.12976 0.40526 0.57237 0.0
C402 C 0.15594 0.34324 0.62618 0.0
C403 C 0.2014 0.40727 0.55429 0.0
C404 C 0.2002 0.40967 0.84007 0.0
C405 C 0.209 0.39853 0.9438 0.0
C406 C 0.21784 0.39634 0.8845 0.0
C407 C 0.17342 0.42509 0.85561 0.0
C408 C 0.16465 0.42746 0.91472 0.0
C409 C 0.18228 0.41415 0.95952 0.0
C410 C 0.20887 0.40623 0.77753 0.0
O411 O 0.16743 0.45077 0.66133 0.0
O412 O 0.11901 0.44655 0.62845 0.0
O413 O 0.10191 0.38744 0.64739 0.0
O414 O 0.13067 0.40411 0.72614 0.0
C415 C 0.14007 0.46206 0.656 0.0
O416 O 0.10996 0.43112 0.49968 0.0
O417 O 0.09904 0.38351 0.50991 0.0
O418 O 0.15057 0.35805 0.57667 0.0
O419 O 0.16078 0.35773 0.67572 0.0
O420 O 0.20561 0.39624 0.60799 0.0
O421 O 0.17547 0.41947 0.53921 0.0
C422 C 0.10564 0.39211 0.70424 0.0
O423 O 0.20054 0.38105 0.75258 0.0
O424 O 0.2034 0.42945 0.74365 0.0
C425 C 0.107 0.40205 0.41329 0.0
C426 C 0.12778 0.39691 0.29564 0.0
C427 C 0.10177 0.41423 0.30917 0.0
C428 C 0.09152 0.41681 0.36751 0.0
C429 C 0.13262 0.38432 0.39995 0.0
C430 C 0.14284 0.38168 0.34174 0.0
C431 C 0.09808 0.40716 0.47517 0.0
H432 H 0.22309 0.38814 0.97735 0.0
H433 H 0.23822 0.38395 0.87315 0.0
H434 H 0.15901 0.43498 0.822 0.0
H435 H 0.14368 0.43917 0.92522 0.0
H436 H 0.08935 0.42588 0.27467 0.0
H437 H 0.07182 0.43074 0.37701 0.0
H438 H 0.14518 0.37306 0.43479 0.0
H439 H 0.16307 0.3684 0.33316 0.0
Tb440 Tb 0.4023 0.88223 0.50983 0.0
Eu441 Eu 0.40402 0.83526 0.39766 0.0
C442 C 0.46115 0.87066 0.43531 0.0
C443 C 0.39186 0.90731 0.38064 0.0
C444 C 0.40105 0.90679 0.66435 0.0
C445 C 0.41798 0.9115 0.76606 0.0
C446 C 0.41837 0.92163 0.70742 0.0
C447 C 0.3826 0.88228 0.68094 0.0
C448 C 0.38217 0.87219 0.73939 0.0
C449 C 0.40037 0.88623 0.78235 0.0
C450 C 0.40498 0.91455 0.60158 0.0
O451 O 0.35648 0.86267 0.50546 0.0
O452 O 0.35591 0.85075 0.40706 0.0
O453 O 0.39743 0.80425 0.47674 0.0
O454 O 0.41261 0.83799 0.5485 0.0
C455 C 0.34156 0.85657 0.45642 0.0
O456 O 0.38256 0.80804 0.32851 0.0
O457 O 0.43148 0.81116 0.33276 0.0
O458 O 0.45101 0.84297 0.43141 0.0
O459 O 0.44325 0.89172 0.45708 0.0
O460 O 0.38541 0.9098 0.43724 0.0
O461 O 0.40478 0.88281 0.35862 0.0
C462 C 0.40482 0.8105 0.53182 0.0
O463 O 0.42857 0.9021 0.5766 0.0
O464 O 0.38091 0.91257 0.56827 0.0
C465 C 0.40875 0.81581 0.23881 0.0
C466 C 0.40654 0.84083 0.12414 0.0
C467 C 0.38699 0.81702 0.14028 0.0
C468 C 0.38786 0.8049 0.19738 0.0
C469 C 0.42843 0.83956 0.2225 0.0
C470 C 0.42725 0.85198 0.16581 0.0
C471 C 0.4081 0.80441 0.30016 0.0
H472 H 0.43239 0.92266 0.79805 0.0
H473 H 0.43301 0.94038 0.69528 0.0
H474 H 0.36919 0.87034 0.64836 0.0
H475 H 0.3679 0.85308 0.75082 0.0
H476 H 0.3705 0.80831 0.10918 0.0
H477 H 0.37173 0.78749 0.20965 0.0
H478 H 0.4444 0.84899 0.25378 0.0
H479 H 0.44262 0.87026 0.15447 0.0
Tb480 Tb 0.83355 0.9033 0.64325 0.0
Eu481 Eu 0.87987 0.90219 0.75629 0.0
C482 C 0.85328 0.84176 0.70002 0.0
C483 C 0.80775 0.90789 0.77386 0.0
C484 C 0.81159 0.90553 0.48884 0.0
C485 C 0.80889 0.88327 0.39084 0.0
C486 C 0.79752 0.88606 0.44836 0.0
C487 C 0.83698 0.92248 0.47068 0.0
C488 C 0.84828 0.91975 0.4134 0.0
C489 C 0.83467 0.8998 0.37299 0.0
C490 C 0.80167 0.9061 0.55107 0.0
O491 O 0.84219 0.94949 0.6719 0.0
O492 O 0.89081 0.9442 0.70282 0.0
O493 O 0.90796 0.88569 0.67989 0.0
O494 O 0.87904 0.90423 0.60288 0.0
C495 C 0.86968 0.96048 0.67715 0.0
O496 O 0.90038 0.92637 0.83014 0.0
O497 O 0.91027 0.87867 0.81707 0.0
O498 O 0.85748 0.85606 0.75028 0.0
O499 O 0.84968 0.85692 0.65075 0.0
O500 O 0.80345 0.89715 0.7201 0.0
O501 O 0.8345 0.91748 0.79077 0.0
C502 C 0.90426 0.892 0.62356 0.0
O503 O 0.80603 0.88113 0.58063 0.0
O504 O 0.80983 0.92974 0.58149 0.0
C505 C 0.9025 0.89581 0.91468 0.0
C506 C 0.88024 0.89023 1.03121 0.0
C507 C 0.90556 0.90869 1.01868 0.0
C508 C 0.91658 0.91141 0.96095 0.0
C509 C 0.8776 0.87695 0.92699 0.0
C510 C 0.86673 0.87401 0.98469 0.0
C511 C 0.91167 0.90168 0.85322 0.0
H512 H 0.79805 0.86749 0.36096 0.0
H513 H 0.77829 0.87239 0.46173 0.0
H514 H 0.84858 0.93746 0.50105 0.0
H515 H 0.86782 0.9332 0.40089 0.0
H516 H 0.91622 0.92196 0.05306 0.0
H517 H 0.9355 0.92644 0.95213 0.0
H518 H 0.86608 0.86501 0.89176 0.0
H519 H 0.84748 0.85929 0.99262 0.0
Tb520 Tb 0.9058 0.12328 0.32052 0.0
Eu521 Eu 0.90596 0.16969 0.43253 0.0
C522 C 0.96407 0.13544 0.39358 0.0
C523 C 0.8963 0.09726 0.44976 0.0
C524 C 0.90165 0.10267 0.16518 0.0
C525 C 0.91565 0.10056 0.06157 0.0
C526 C 0.91788 0.0891 0.11901 0.0
C527 C 0.88278 0.12762 0.15309 0.0
C528 C 0.88028 0.13891 0.09564 0.0
C529 C 0.89698 0.12579 0.04915 0.0
C530 C 0.90688 0.09288 0.22647 0.0
O531 O 0.86036 0.14384 0.32551 0.0
O532 O 0.85877 0.15183 0.42498 0.0
O533 O 0.89705 0.19919 0.35201 0.0
O534 O 0.9197 0.16724 0.28578 0.0
C535 C 0.84483 0.14761 0.3748 0.0
O536 O 0.88387 0.19828 0.49905 0.0
O537 O 0.93282 0.19461 0.49685 0.0
O538 O 0.95303 0.16286 0.39779 0.0
O539 O 0.94688 0.11385 0.37201 0.0
O540 O 0.89058 0.09457 0.3929 0.0
O541 O 0.90764 0.12232 0.47256 0.0
C542 C 0.90814 0.19384 0.29892 0.0
O543 O 0.93103 0.10432 0.25094 0.0
O544 O 0.88348 0.09397 0.26181 0.0
C545 C 0.90906 0.19317 0.59046 0.0
C546 C 0.90495 0.17094 0.70713 0.0
C547 C 0.8852 0.1939 0.68742 0.0
C548 C 0.88709 0.2047 0.62936 0.0
C549 C 0.92926 0.1707 0.61069 0.0
C550 C 0.92719 0.15972 0.66834 0.0
C551 C 0.90913 0.20256 0.52781 0.0
H552 H 0.92935 0.09022 1.02732 0.0
H553 H 0.93299 0.07019 0.1277 0.0
H554 H 0.8704 0.1388 0.18831 0.0
H555 H 0.86541 0.15808 0.08786 0.0
H556 H 0.86764 0.20275 0.71622 0.0
H557 H 0.87081 0.22138 0.61425 0.0
H558 H 0.94627 0.161 0.58167 0.0
H559 H 0.94292 0.14225 0.68248 0.0
Tb560 Tb 0.17114 0.10281 0.64164 0.0
Eu561 Eu 0.12452 0.10494 0.75511 0.0
C562 C 0.15208 0.16488 0.69659 0.0
C563 C 0.19646 0.09906 0.77314 0.0
C564 C 0.19452 0.10243 0.48645 0.0
C565 C 0.20558 0.12097 0.38759 0.0
C566 C 0.21384 0.11747 0.44691 0.0
C567 C 0.1666 0.09121 0.46594 0.0
C568 C 0.15837 0.09464 0.40678 0.0
C569 C 0.1778 0.10946 0.36676 0.0
C570 C 0.20303 0.09925 0.54918 0.0
O571 O 0.16347 0.05705 0.67375 0.0
O572 O 0.11451 0.06255 0.70223 0.0
O573 O 0.09669 0.12166 0.67887 0.0
O574 O 0.12546 0.10222 0.6024 0.0
C575 C 0.13604 0.04589 0.67873 0.0
O576 O 0.10063 0.08013 0.82435 0.0
O577 O 0.09656 0.12903 0.81962 0.0
O578 O 0.1471 0.151 0.74721 0.0
O579 O 0.15549 0.14939 0.64769 0.0
O580 O 0.20117 0.10882 0.71863 0.0
O581 O 0.1696 0.08989 0.7905 0.0
C582 C 0.10034 0.11484 0.62279 0.0
O583 O 0.20109 0.12371 0.5812 0.0
O584 O 0.19167 0.0759 0.57656 0.0
C585 C 0.09906 0.10632 0.91418 0.0
C586 C 0.11639 0.10328 1.03399 0.0
C587 C 0.08834 0.09139 1.0153 0.0
C588 C 0.0798 0.09287 0.95592 0.0
C589 C 0.12673 0.11887 0.9327 0.0
C590 C 0.13527 0.11748 0.9921 0.0
C591 C 0.09147 0.10469 0.85102 0.0
H592 H 0.22104 0.13245 0.35788 0.0
H593 H 0.23521 0.12664 0.46207 0.0
H594 H 0.15098 0.07989 0.49567 0.0
H595 H 0.13654 0.08605 0.39262 0.0
H596 H 0.07307 0.08071 0.04654 0.0
H597 H 0.05845 0.08291 0.94236 0.0
H598 H 0.14207 0.12909 0.90097 0.0
H599 H 0.15709 0.12665 1.00483 0.0
Tb600 Tb 0.10306 0.87884 0.33071 0.0
Eu601 Eu 0.10012 0.83316 0.4452 0.0
C602 C 0.04339 0.86769 0.40134 0.0
C603 C 0.11199 0.90571 0.45935 0.0
C604 C 0.10634 0.90187 0.17413 0.0
C605 C 0.10506 0.91631 0.07069 0.0
C606 C 0.10509 0.92434 0.13049 0.0
C607 C 0.10836 0.87134 0.15735 0.0
C608 C 0.10774 0.8632 0.09771 0.0
C609 C 0.10571 0.88556 0.05335 0.0
C610 C 0.104 0.91012 0.23691 0.0
O611 O 0.14804 0.85763 0.34055 0.0
O612 O 0.14778 0.85026 0.44046 0.0
O613 O 0.10825 0.80309 0.36503 0.0
O614 O 0.08808 0.83526 0.29601 0.0
C615 C 0.16264 0.85426 0.39101 0.0
O616 O 0.11879 0.79902 0.50535 0.0
O617 O 0.07276 0.81512 0.51725 0.0
O618 O 0.05386 0.84009 0.40686 0.0
O619 O 0.06144 0.8889 0.38064 0.0
O620 O 0.11802 0.90792 0.40249 0.0
O621 O 0.10032 0.88098 0.48309 0.0
C622 C 0.09809 0.8083 0.31118 0.0
O623 O 0.07924 0.9012 0.26323 0.0
O624 O 0.12787 0.90468 0.26912 0.0
C625 C 0.10088 0.80563 0.60283 0.0
C626 C 0.10759 0.81901 0.7238 0.0
C627 C 0.09902 0.78976 0.70558 0.0
C628 C 0.09548 0.78318 0.64545 0.0
C629 C 0.11008 0.83464 0.62083 0.0
C630 C 0.11328 0.84131 0.68077 0.0
C631 C 0.09507 0.79959 0.54002 0.0
H632 H 0.10437 0.93431 0.03816 0.0
H633 H 0.10378 0.94807 0.14263 0.0
H634 H 0.10986 0.85376 0.19055 0.0
H635 H 0.10806 0.83932 0.08673 0.0
H636 H 0.09421 0.77227 0.73789 0.0
H637 H 0.08801 0.76078 0.63231 0.0
H638 H 0.11427 0.8523 0.58853 0.0
H639 H 0.12015 0.86396 0.69353 0.0
H640 H 0.41579 0.92252 0.27221 0.0
H641 H 0.34776 0.94907 0.3997 0.0
H642 H 0.33238 0.99117 0.33687 0.0
H643 H 0.33903 0.02162 0.24797 0.0
H644 H 0.40946 0.99901 0.12315 0.0
H645 H 0.42281 0.95406 0.18195 0.0
C646 C 0.39755 0.93749 0.28602 0.0
C647 C 0.38305 0.93265 0.34084 0.0
C648 C 0.38911 0.96229 0.24997 0.0
C649 C 0.35955 0.95238 0.35817 0.0
C650 C 0.3506 0.97643 0.3221 0.0
C651 C 0.35702 0.00666 0.23303 0.0
C652 C 0.37293 0.01343 0.18078 0.0
C653 C 0.3653 0.98172 0.26817 0.0
C654 C 0.39671 0.99416 0.16299 0.0
C655 C 0.40441 0.96854 0.19676 0.0
H656 H 0.91469 0.62146 0.82432 0.0
H657 H 0.96443 0.5957 0.66737 0.0
H658 H 0.01194 0.60018 0.71982 0.0
H659 H 0.04008 0.61486 0.80624 0.0
H660 H 0.99351 0.64182 0.9652 0.0
H661 H 0.94423 0.63286 0.91665 0.0
C662 C 0.93594 0.61659 0.802 0.0
C663 C 0.93586 0.60886 0.74147 0.0
C664 C 0.96381 0.61947 0.83265 0.0
C665 C 0.96365 0.60238 0.71337 0.0
C666 C 0.99098 0.60478 0.74339 0.0
C667 C 0.01916 0.61868 0.8306 0.0
C668 C 0.0204 0.62943 0.88885 0.0
C669 C 0.99138 0.61395 0.80238 0.0
C670 C 0.99312 0.63358 0.92017 0.0
C671 C 0.96499 0.62865 0.89223 0.0
H672 H 0.6637 0.99331 0.22615 0.0
H673 H 0.58343 0.00477 0.11974 0.0
H674 H 0.57087 0.05144 0.17384 0.0
H675 H 0.58172 0.08775 0.25579 0.0
H676 H 0.65961 0.07157 0.3668 0.0
H677 H 0.67402 0.02804 0.30677 0.0
C678 C 0.64358 0.00608 0.21419 0.0
C679 C 0.62468 0.99562 0.16858 0.0
C680 C 0.63594 0.03201 0.2469 0.0
C681 C 0.59845 0.01237 0.15451 0.0
C682 C 0.59123 0.03901 0.18558 0.0
C683 C 0.60188 0.07469 0.2664 0.0
C684 C 0.61954 0.08277 0.31577 0.0
C685 C 0.60961 0.04888 0.23251 0.0
C686 C 0.64549 0.06561 0.32942 0.0
C687 C 0.65383 0.04077 0.295 0.0
H688 H 0.99317 0.32952 0.82154 0.0
H689 H 0.99775 0.40669 0.93793 0.0
H690 H 0.04541 0.42271 0.89036 0.0
H691 H 0.08299 0.4172 0.80745 0.0
H692 H 0.0742 0.34078 0.68967 0.0
H693 H 0.03105 0.32219 0.7458 0.0
C694 C 0.00462 0.34977 0.8371 0.0
C695 C 0.99166 0.36706 0.88282 0.0
C696 C 0.03121 0.35918 0.8086 0.0
C697 C 0.00722 0.39291 0.90287 0.0
C698 C 0.03434 0.4022 0.87528 0.0
C699 C 0.07174 0.39635 0.79477 0.0
C700 C 0.08147 0.38063 0.74389 0.0
C701 C 0.04615 0.38594 0.82687 0.0
C702 C 0.06679 0.35359 0.72792 0.0
C703 C 0.04216 0.34284 0.76012 0.0
H704 H 0.40795 0.50147 0.16492 0.0
H705 H 0.32068 0.48122 0.08786 0.0
H706 H 0.32642 0.52302 1.01893 0.0
H707 H 0.35645 0.56502 0.97801 0.0
H708 H 0.44115 0.58932 0.05989 0.0
H709 H 0.43631 0.54658 0.12886 0.0
C710 C 0.39009 0.5064 0.13343 0.0
C711 C 0.36405 0.48787 0.13162 0.0
C712 C 0.39318 0.53117 0.09416 0.0
C713 C 0.34106 0.49484 0.09057 0.0
C714 C 0.34432 0.51879 0.05071 0.0
C715 C 0.37389 0.56077 1.01078 0.0
C716 C 0.39935 0.57984 1.0133 0.0
C717 C 0.37038 0.53691 0.05159 0.0
C718 C 0.42144 0.5747 0.05691 0.0
C719 C 0.41865 0.55032 0.09638 0.0
H720 H 0.55266 0.631 0.13352 0.0
H721 H 0.61508 0.60644 0.99473 0.0
H722 H 0.57506 0.61323 0.92096 0.0
H723 H 0.52194 0.62762 0.89548 0.0
H724 H 0.46175 0.65622 1.0348 0.0
H725 H 0.50074 0.64631 0.10835 0.0
C726 C 0.5574 0.62693 0.08717 0.0
C727 C 0.5867 0.61817 0.06967 0.0
C728 C 0.53454 0.63173 0.04488 0.0
C729 C 0.59268 0.61338 1.00931 0.0
C730 C 0.56978 0.6172 0.96707 0.0
C731 C 0.51754 0.63159 0.94196 0.0
C732 C 0.48903 0.64267 0.95983 0.0
C733 C 0.54061 0.62663 0.98421 0.0
C734 C 0.48355 0.64788 1.02007 0.0
C735 C 0.50586 0.64216 0.06222 0.0
H736 H 0.63517 0.54315 1.03649 0.0
H737 H 0.64631 0.49449 0.20029 0.0
H738 H 0.63557 0.4464 0.14895 0.0
H739 H 0.6247 0.41824 0.05505 0.0
H740 H 0.61333 0.46982 0.89403 0.0
H741 H 0.62286 0.51653 0.94682 0.0
C742 C 0.63547 0.52206 0.06128 0.0
C743 C 0.64206 0.52239 0.12202 0.0
C744 C 0.62934 0.4949 1.03171 0.0
C745 C 0.64143 0.49487 0.15345 0.0
C746 C 0.63542 0.46739 0.12397 0.0
C747 C 0.62433 0.43972 1.03169 0.0
C748 C 0.61833 0.44029 0.97037 0.0
C749 C 0.62966 0.46707 0.06274 0.0
C750 C 0.61768 0.46844 0.94102 0.0
C751 C 0.62321 0.49533 0.97116 0.0
H752 H 0.41289 0.38685 0.99671 0.0
H753 H 0.46343 0.41427 0.15106 0.0
H754 H 0.51048 0.41176 0.09584 0.0
H755 H 0.53811 0.39787 1.00798 0.0
H756 H 0.49076 0.36856 0.85194 0.0
H757 H 0.44174 0.37638 0.90275 0.0
C758 C 0.43421 0.39257 1.01782 0.0
C759 C 0.43458 0.4002 0.07844 0.0
C760 C 0.46178 0.3907 0.98559 0.0
C761 C 0.4624 0.40772 0.10502 0.0
C762 C 0.48943 0.40642 0.0734 0.0
C763 C 0.51707 0.39336 0.98469 0.0
C764 C 0.51805 0.38224 0.92661 0.0
C765 C 0.48946 0.39726 1.01435 0.0
C766 C 0.49059 0.37713 0.89673 0.0
C767 C 0.46261 0.38137 0.92602 0.0
H768 H 0.88493 0.45702 0.87531 0.0
H769 H 0.90015 0.39229 0.73559 0.0
H770 H 0.89434 0.43229 0.66179 0.0
H771 H 0.88327 0.48595 0.63618 0.0
H772 H 0.86522 0.54955 0.7762 0.0
H773 H 0.87389 0.51017 0.85002 0.0
C774 C 0.88717 0.45171 0.82875 0.0
C775 C 0.89294 0.42166 0.81122 0.0
C776 C 0.8832 0.47477 0.78628 0.0
C777 C 0.8955 0.41518 0.75051 0.0
C778 C 0.89224 0.43808 0.70811 0.0
C779 C 0.88144 0.49105 0.68288 0.0
C780 C 0.87359 0.52052 0.70081 0.0
C781 C 0.88584 0.46797 0.72535 0.0
C782 C 0.87106 0.52695 0.76137 0.0
C783 C 0.87606 0.50443 0.80368 0.0
H784 H 0.50761 0.10361 0.40149 0.0
H785 H 0.5226 0.1933 0.33012 0.0
H786 H 0.48158 0.18624 0.26037 0.0
H787 H 0.4421 0.15442 0.2167 0.0
H788 H 0.42249 0.06698 0.29255 0.0
H789 H 0.46432 0.07324 0.36311 0.0
C790 C 0.50166 0.12167 0.37107 0.0
C791 C 0.51854 0.1488 0.37098 0.0
C792 C 0.47727 0.1178 0.33136 0.0
C793 C 0.51027 0.17209 0.33143 0.0
C794 C 0.48677 0.16809 0.29111 0.0
C795 C 0.44712 0.13673 0.24861 0.0
C796 C 0.42975 0.11011 0.24896 0.0
C797 C 0.47036 0.14097 0.29015 0.0
C798 C 0.43583 0.08761 0.29136 0.0
C799 C 0.4597 0.0912 0.33166 0.0
H800 H 0.09484 0.58611 0.77007 0.0
H801 H 0.15374 0.55476 0.90921 0.0
H802 H 0.16761 0.51025 0.85054 0.0
H803 H 0.16304 0.48025 0.76021 0.0
H804 H 0.09965 0.50715 0.62525 0.0
H805 H 0.08753 0.55347 0.6811 0.0
C806 C 0.11073 0.56947 0.78721 0.0
C807 C 0.12352 0.57371 0.84361 0.0
C808 C 0.11781 0.54328 0.75387 0.0
C809 C 0.14369 0.55189 0.86594 0.0
C810 C 0.15166 0.52652 0.83236 0.0
C811 C 0.14662 0.49627 0.74285 0.0
C812 C 0.13256 0.49047 0.68825 0.0
C813 C 0.13891 0.522 0.77632 0.0
C814 C 0.11091 0.5112 0.66697 0.0
C815 C 0.10399 0.53765 0.69896 0.0
H816 H 0.57637 0.92516 0.3023 0.0
H817 H 0.55746 0.84862 0.18957 0.0
H818 H 0.51643 0.83281 0.25483 0.0
H819 H 0.48508 0.84095 0.34188 0.0
H820 H 0.49916 0.91965 0.45111 0.0
H821 H 0.54303 0.9342 0.39 0.0
C822 C 0.56328 0.905 0.29231 0.0
C823 C 0.56999 0.88814 0.24093 0.0
C824 C 0.53894 0.89634 0.32957 0.0
C825 C 0.55266 0.86219 0.22836 0.0
C826 C 0.52924 0.85301 0.26585 0.0
C827 C 0.49784 0.86116 0.3529 0.0
C828 C 0.48901 0.87896 0.40159 0.0
C829 C 0.52208 0.86994 0.31632 0.0
C830 C 0.50558 0.90541 0.41418 0.0
C831 C 0.5306 0.91377 0.37909 0.0
H832 H 0.84223 0.98305 0.58031 0.0
H833 H 0.91547 1.00116 0.7011 0.0
H834 H 0.92955 0.04631 0.64341 0.0
H835 H 0.92181 0.07971 0.55556 0.0
H836 H 0.85088 0.05726 0.43183 0.0
H837 H 0.83531 0.01476 0.49339 0.0
C838 C 0.86108 0.99702 0.59457 0.0
C839 C 0.8775 0.98896 0.64544 0.0
C840 C 0.86966 0.02208 0.5601 0.0
C841 C 0.90232 0.00699 0.66232 0.0
C842 C 0.91041 0.03275 0.62923 0.0
C843 C 0.90291 0.06552 0.54236 0.0
C844 C 0.88759 0.07166 0.48899 0.0
C845 C 0.8944 0.0404 0.57757 0.0
C846 C 0.86328 0.05293 0.47226 0.0
C847 C 0.85422 0.02865 0.5076 0.0
H848 H 0.08166 0.08479 0.52293 0.0
H849 H 0.06352 0.16356 0.63043 0.0
H850 H 0.02165 0.17791 0.56607 0.0
H851 H 0.98904 0.16746 0.48235 0.0
H852 H 1.00251 0.08662 0.37854 0.0
H853 H 0.04748 0.07378 0.43781 0.0
C854 C 0.06858 0.10515 0.53184 0.0
C855 C 0.07563 0.12307 0.58147 0.0
C856 C 0.04377 0.1129 0.49531 0.0
C857 C 0.05838 0.14925 0.59289 0.0
C858 C 0.03449 0.15755 0.55598 0.0
C859 C 1.00193 0.14717 0.472 0.0
C860 C 0.99259 0.1282 0.42557 0.0
C861 C 0.02683 0.13945 0.50747 0.0
C862 C 0.00933 0.1017 0.41382 0.0
C863 C 0.03497 0.09434 0.44782 0.0
H864 H 0.0844 0.92572 0.56125 0.0
H865 H 0.15937 0.94369 0.44338 0.0
H866 H 0.17463 0.98679 0.50354 0.0
H867 H 0.16606 0.02045 0.58712 0.0
H868 H 0.0888 0.00673 0.7011 0.0
H869 H 0.0752 0.96087 0.64562 0.0
C870 C 0.10412 0.93905 0.54907 0.0
C871 C 0.12068 0.93152 0.49777 0.0
C872 C 0.11241 0.96453 0.58326 0.0
C873 C 0.14605 0.94914 0.48223 0.0
C874 C 0.1549 0.97375 0.51677 0.0
C875 C 0.14643 0.00731 0.60042 0.0
C876 C 0.12869 0.01686 0.64868 0.0
C877 C 0.13817 0.98179 0.56706 0.0
C878 C 0.10295 0.99978 0.66434 0.0
C879 C 0.09514 0.97361 0.6325 0.0
H880 H 0.01425 0.83506 0.48502 0.0
H881 H 0.00771 0.91861 0.38658 0.0
H882 H 0.9623 0.93285 0.44347 0.0
H883 H 0.92605 0.9225 0.52613 0.0
H884 H 0.93744 0.84083 0.62898 0.0
H885 H 0.97929 0.82495 0.56563 0.0
C886 C 1.0028 0.85628 0.47532 0.0
C887 C 0.01432 0.87563 0.4312 0.0
C888 C 0.97762 0.86477 0.50962 0.0
C889 C 0.99928 0.90322 0.42013 0.0
C890 C 0.97337 0.9114 0.45282 0.0
C891 C 0.93765 0.90118 0.53418 0.0
C892 C 0.92876 0.88289 0.58231 0.0
C893 C 0.96256 0.89254 0.49841 0.0
C894 C 0.94407 0.85542 0.59264 0.0
C895 C 0.96795 0.84626 0.55631 0.0
H896 H 0.35845 0.1978 0.22787 0.0
H897 H 0.35848 0.20185 0.03731 0.0
H898 H 0.36035 0.25717 0.04129 0.0
H899 H 0.36136 0.30423 0.09826 0.0
H900 H 0.36186 0.30089 0.28879 0.0
H901 H 0.36059 0.24532 0.28527 0.0
C902 C 0.35881 0.21074 0.18712 0.0
C903 C 0.35816 0.19553 0.13226 0.0
C904 C 0.36006 0.24265 0.18972 0.0
C905 C 0.35891 0.2128 0.08008 0.0
C906 C 0.35998 0.24449 0.08233 0.0
C907 C 0.36124 0.29147 0.13923 0.0
C908 C 0.3616 0.30688 0.19383 0.0
C909 C 0.36049 0.25963 0.13684 0.0
C910 C 0.36162 0.28974 0.2462 0.0
C911 C 0.36081 0.25794 0.24417 0.0
H912 H 0.30943 0.62869 0.98305 0.0
H913 H 0.30654 0.66976 0.81019 0.0
H914 H 0.25106 0.67313 0.81644 0.0
H915 H 0.2038 0.66671 0.87336 0.0
H916 H 0.20624 0.62252 0.04323 0.0
H917 H 0.26169 0.61806 1.03613 0.0
C918 C 0.29659 0.63819 0.94658 0.0
C919 C 0.31198 0.64927 0.89643 0.0
C920 C 0.26479 0.63972 0.95031 0.0
C921 C 0.29515 0.66105 0.8491 0.0
C922 C 0.2635 0.66315 0.85288 0.0
C923 C 0.21654 0.65619 0.9089 0.0
C924 C 0.20118 0.64549 0.95936 0.0
C925 C 0.24816 0.65302 0.90368 0.0
C926 C 0.2177 0.63113 1.00432 0.0
C927 C 0.24933 0.6286 1.0002 0.0
H928 H 0.6303 0.81112 0.2156 0.0
H929 H 0.67171 0.80874 0.04295 0.0
H930 H 0.67864 0.75371 0.05169 0.0
H931 H 0.67369 0.70649 0.10939 0.0
H932 H 0.62842 0.70829 0.2783 0.0
H933 H 0.62229 0.76346 0.27037 0.0
C934 C 0.64083 0.79851 0.17987 0.0
C935 C 0.65078 0.81394 0.1289 0.0
C936 C 0.64415 0.76689 0.18479 0.0
C937 C 0.66386 0.79733 0.08252 0.0
C938 C 0.66793 0.76593 0.08766 0.0
C939 C 0.66265 0.71905 0.14459 0.0
C940 C 0.65196 0.70354 0.19486 0.0
C941 C 0.65838 0.75053 0.13878 0.0
C942 C 0.63699 0.71985 0.23946 0.0
C943 C 0.63349 0.75133 0.23487 0.0
H944 H 0.80457 0.39338 0.90204 0.0
H945 H 0.80327 0.29962 0.95726 0.0
H946 H 0.74963 0.29607 0.93239 0.0
H947 H 0.70374 0.31862 0.89306 0.0
H948 H 0.70313 0.41223 0.83691 0.0
H949 H 0.75705 0.41663 0.86286 0.0
C950 C 0.79233 0.37238 0.90945 0.0
C951 C 0.80783 0.34682 0.93183 0.0
C952 C 0.76138 0.37027 0.89382 0.0
C953 C 0.79187 0.31959 0.9402 0.0
C954 C 0.76122 0.31748 0.92572 0.0
C955 C 0.71526 0.34006 0.88603 0.0
C956 C 0.69929 0.36503 0.86269 0.0
C957 C 0.7459 0.34251 0.90185 0.0
C958 C 0.71485 0.39255 0.8543 0.0
C959 C 0.74564 0.39512 0.86957 0.0
H960 H 0.8583 0.6992 0.7297 0.0
H961 H 0.85961 0.70351 0.53921 0.0
H962 H 0.85758 0.75899 0.54374 0.0
H963 H 0.85494 0.8061 0.60179 0.0
H964 H 0.85426 0.80146 0.79228 0.0
H965 H 0.85644 0.74609 0.78754 0.0
C966 C 0.85816 0.71216 0.68897 0.0
C967 C 0.85902 0.69705 0.63406 0.0
C968 C 0.85699 0.74399 0.69194 0.0
C969 C 0.85899 0.71443 0.58201 0.0
C970 C 0.85776 0.74618 0.58461 0.0
C971 C 0.85514 0.79304 0.6424 0.0
C972 C 0.85424 0.80805 0.69744 0.0
C973 C 0.85662 0.76118 0.63933 0.0
C974 C 0.85485 0.79062 0.7494 0.0
C975 C 0.85612 0.75893 0.74669 0.0
H976 H 0.80728 0.1483 0.47032 0.0
H977 H 0.80639 0.14704 0.27963 0.0
H978 H 0.75086 0.1485 0.28069 0.0
H979 H 0.70292 0.1511 0.33543 0.0
H980 H 0.70355 0.15203 0.5261 0.0
H981 H 0.75913 0.1496 0.52524 0.0
C982 C 0.79502 0.14838 0.42884 0.0
C983 C 0.8111 0.14778 0.37484 0.0
C984 C 0.76312 0.14916 0.42981 0.0
C985 C 0.79469 0.14756 0.32174 0.0
C986 C 0.76293 0.14843 0.32235 0.0
C987 C 0.71511 0.15081 0.37699 0.0
C988 C 0.69899 0.15199 0.43088 0.0
C989 C 0.74696 0.1494 0.3761 0.0
C990 C 0.7153 0.15122 0.48407 0.0
C991 C 0.74709 0.14988 0.48355 0.0
H992 H 0.15554 0.30752 0.72396 0.0
H993 H 0.1544 0.30289 0.53355 0.0
H994 H 0.15334 0.24736 0.53885 0.0
H995 H 0.15282 0.20028 0.59767 0.0
H996 H 0.15291 0.20546 0.7881 0.0
H997 H 0.15432 0.26082 0.78246 0.0
C998 C 0.1552 0.29448 0.6834 0.0
C999 C 0.15526 0.3095 0.62829 0.0
C1000 C 0.15437 0.26266 0.68683 0.0
C1001 C 0.15442 0.29203 0.57648 0.0
C1002 C 0.15384 0.26026 0.57954 0.0
C1003 C 0.15324 0.21346 0.63807 0.0
C1004 C 0.1529 0.19858 0.69336 0.0
C1005 C 0.15384 0.24534 0.63449 0.0
C1006 C 0.15317 0.21617 0.74503 0.0
C1007 C 0.154 0.24787 0.74181 0.0
H1008 H 0.30531 0.85457 0.35952 0.0
H1009 H 0.30161 0.85904 0.54985 0.0
H1010 H 0.24602 0.85859 0.54603 0.0
H1011 H 0.19866 0.85664 0.48862 0.0
H1012 H 0.2027 0.85319 0.2982 0.0
H1013 H 0.25819 0.85355 0.30226 0.0
C1014 C 0.29246 0.85535 0.40038 0.0
C1015 C 0.30777 0.85663 0.45506 0.0
C1016 C 0.26058 0.85528 0.39778 0.0
C1017 C 0.29054 0.85799 0.50725 0.0
C1018 C 0.25873 0.85771 0.50504 0.0
C1019 C 0.21161 0.85586 0.44788 0.0
C1020 C 0.1964 0.85467 0.39306 0.0
C1021 C 0.24353 0.85628 0.45055 0.0
C1022 C 0.21369 0.85405 0.34091 0.0
C1023 C 0.24545 0.85423 0.34324 0.0
H1024 H 0.19084 0.0975 0.89305 0.0
H1025 H 0.25828 0.10144 0.75475 0.0
H1026 H 0.29864 0.10119 0.82919 0.0
H1027 H 0.31476 0.09952 0.93344 0.0
H1028 H 0.24718 0.09869 0.07166 0.0
H1029 H 0.20687 0.09806 0.99723 0.0
C1030 C 0.21435 0.09826 0.87892 0.0
C1031 C 0.22139 0.09922 0.81795 0.0
C1032 C 0.23742 0.09871 0.92205 0.0
C1033 C 0.25208 0.10061 0.80102 0.0
C1034 C 0.27519 0.10045 0.84368 0.0
C1035 C 0.29121 0.09918 0.94745 0.0
C1036 C 0.28409 0.09887 1.00841 0.0
C1037 C 0.26813 0.09944 0.9043 0.0
C1038 C 0.25339 0.09892 1.02536 0.0
C1039 C 0.23032 0.09853 0.98269 0.0
H1040 H 0.11851 0.69543 0.14233 0.0
H1041 H 0.07672 0.75571 1.01591 0.0
H1042 H 0.0706 0.7942 0.09315 0.0
H1043 H 0.07735 0.81074 0.19671 0.0
H1044 H 0.12064 0.75047 0.3214 0.0
H1045 H 0.1253 0.71184 0.24485 0.0
C1046 C 0.10803 0.71693 0.13126 0.0
C1047 C 0.09809 0.72245 0.07282 0.0
C1048 C 0.10467 0.73897 0.17588 0.0
C1049 C 0.08465 0.75067 0.06009 0.0
C1050 C 0.08111 0.77272 0.10442 0.0
C1051 C 0.08798 0.78925 0.2073 0.0
C1052 C 0.09889 0.78386 0.26521 0.0
C1053 C 0.09107 0.76713 0.16251 0.0
C1054 C 0.11203 0.75548 0.27769 0.0
C1055 C 0.11481 0.73332 0.23369 0.0
H1056 H 0.6878 0.90721 0.93024 0.0
H1057 H 0.75339 0.91749 0.07002 0.0
H1058 H 0.79442 0.91871 0.99653 0.0
H1059 H 0.81191 0.91485 0.89351 0.0
H1060 H 0.74639 0.90202 0.75422 0.0
H1061 H 0.70522 0.90294 0.82703 0.0
C1062 C 0.71107 0.90953 0.94492 0.0
C1063 C 0.71736 0.91231 1.00594 0.0
C1064 C 0.73465 0.9092 0.90262 0.0
C1065 C 0.74778 0.91513 1.02371 0.0
C1066 C 0.77128 0.91569 0.98169 0.0
C1067 C 0.78862 0.9124 0.8788 0.0
C1068 C 0.78239 0.90856 0.81798 0.0
C1069 C 0.76503 0.9125 0.92112 0.0
C1070 C 0.752 0.905 0.80039 0.0
C1071 C 0.7284 0.90553 0.84213 0.0
H1072 H 0.89141 0.30584 0.12595 0.0
H1073 H 0.93152 0.24307 1.00203 0.0
H1074 H 0.93601 0.20506 0.08068 0.0
H1075 H 0.9273 0.18919 0.18396 0.0
H1076 H 0.88666 0.25222 0.30685 0.0
H1077 H 0.88339 0.29039 0.22878 0.0
C1078 C 0.90115 0.28388 0.1157 0.0
C1079 C 0.91108 0.27753 0.05754 0.0
C1080 C 0.90344 0.26206 0.16103 0.0
C1081 C 0.9236 0.24877 0.04594 0.0
C1082 C 0.92617 0.22698 0.09104 0.0
C1083 C 0.91793 0.21135 0.19404 0.0
C1084 C 0.90741 0.21772 0.25186 0.0
C1085 C 0.916 0.2333 0.14868 0.0
C1086 C 0.89513 0.24658 0.26331 0.0
C1087 C 0.8932 0.26847 0.21851 0.0
H1088 H 0.31636 0.39903 0.38556 0.0
H1089 H 0.24681 0.40221 0.25188 0.0
H1090 H 0.20772 0.40482 0.32919 0.0
H1091 H 0.19357 0.40753 0.43488 0.0
H1092 H 0.26319 0.40105 0.56816 0.0
H1093 H 0.30209 0.39829 0.49071 0.0
C1094 C 0.29262 0.40008 0.37317 0.0
C1095 C 0.28459 0.40066 0.31271 0.0
C1096 C 0.27034 0.40103 0.4179 0.0
C1097 C 0.25367 0.40164 0.29777 0.0
C1098 C 0.23134 0.40323 0.3421 0.0
C1099 C 0.21725 0.40548 0.44718 0.0
C1100 C 0.22539 0.40485 0.50767 0.0
C1101 C 0.23943 0.4032 0.40231 0.0
C1102 C 0.25621 0.40172 0.52235 0.0
C1103 C 0.27846 0.40014 0.47798 0.0
H1104 H 0.42126 0.69737 0.70278 0.0
H1105 H 0.38205 0.76042 0.82733 0.0
H1106 H 0.37716 0.79824 0.74877 0.0
H1107 H 0.38724 0.81502 0.64657 0.0
H1108 H 0.42278 0.75109 0.5203 0.0
H1109 H 0.42668 0.71244 0.59815 0.0
C1110 C 0.41186 0.71947 0.7132 0.0
C1111 C 0.40247 0.72597 0.77172 0.0
C1112 C 0.40908 0.74128 0.6677 0.0
C1113 C 0.38992 0.75471 0.78339 0.0
C1114 C 0.3873 0.77651 0.73847 0.0
C1115 C 0.39575 0.79259 0.63602 0.0
C1116 C 0.40502 0.7861 0.57765 0.0
C1117 C 0.39728 0.77029 0.68077 0.0
C1118 C 0.41547 0.75672 0.56463 0.0
C1119 C 0.41782 0.73465 0.60927 0.0
H1120 H 0.7077 0.63455 0.37372 0.0
H1121 H 0.75839 0.57188 0.26518 0.0
H1122 H 0.79338 0.56254 0.34739 0.0
H1123 H 0.80859 0.57117 0.45073 0.0
H1124 H 0.75923 0.63582 0.55724 0.0
H1125 H 0.72441 0.64505 0.47503 0.0
C1126 C 0.72646 0.61889 0.36767 0.0
C1127 C 0.73021 0.60379 0.31304 0.0
C1128 C 0.74649 0.61372 0.41506 0.0
C1129 C 0.75492 0.58388 0.30635 0.0
C1130 C 0.77482 0.5784 0.35359 0.0
C1131 C 0.79026 0.58734 0.45625 0.0
C1132 C 0.78668 0.60277 0.51065 0.0
C1133 C 0.77063 0.59297 0.40832 0.0
C1134 C 0.76252 0.62339 0.51649 0.0
C1135 C 0.74266 0.6288 0.46925 0.0
H1136 H 0.57767 0.20481 0.6132 0.0
H1137 H 0.63687 0.25897 0.5034 0.0
H1138 H 0.64196 0.29593 0.58308 0.0
H1139 H 0.62887 0.3136 0.68237 0.0
H1140 H 0.56965 0.26006 0.79302 0.0
H1141 H 0.56482 0.22246 0.7137 0.0
C1142 C 0.5915 0.22483 0.60626 0.0
C1143 C 0.60671 0.22906 0.55172 0.0
C1144 C 0.59413 0.24625 0.65225 0.0
C1145 C 0.62468 0.25511 0.54431 0.0
C1146 C 0.62762 0.2763 0.58999 0.0
C1147 C 0.61488 0.29371 0.68955 0.0
C1148 C 0.59952 0.28985 0.74395 0.0
C1149 C 0.61234 0.2722 0.64394 0.0
C1150 C 0.58179 0.26369 0.75199 0.0
C1151 C 0.57897 0.24222 0.70648 0.0
H1152 H 0.38061 0.10768 0.51229 0.0
H1153 H 0.2853 0.10418 0.55588 0.0
H1154 H 0.29759 0.10456 0.66118 0.0
H1155 H 0.33554 0.10431 0.74084 0.0
H1156 H 0.43083 0.1097 0.69669 0.0
H1157 H 0.4184 0.10951 0.59192 0.0
C1158 C 0.36255 0.10687 0.54487 0.0
C1159 C 0.3321 0.10578 0.5262 0.0
C1160 C 0.36977 0.10721 0.60533 0.0
C1161 C 0.30892 0.10525 0.56901 0.0
C1162 C 0.31594 0.10532 0.62926 0.0
C1163 C 0.35362 0.10587 0.70847 0.0
C1164 C 0.38415 0.10676 0.72715 0.0
C1165 C 0.34631 0.1062 0.64796 0.0
C1166 C 0.40718 0.10834 0.68403 0.0
C1167 C 0.40009 0.10846 0.62391 0.0
H1168 H 0.06906 0.6735 0.5429 0.0
H1169 H 0.1667 0.68132 0.54566 0.0
H1170 H 0.16933 0.66389 0.44351 0.0
H1171 H 0.14411 0.64448 0.35439 0.0
H1172 H 0.04637 0.63711 0.35159 0.0
H1173 H 0.04375 0.65548 0.45292 0.0
C1174 C 0.09094 0.67127 0.52127 0.0
C1175 C 0.11763 0.67873 0.55219 0.0
C1176 C 0.09234 0.66096 0.46254 0.0
C1177 C 0.14573 0.67614 0.52293 0.0
C1178 C 0.14729 0.66594 0.46453 0.0
C1179 C 0.12219 0.64716 0.37563 0.0
C1180 C 0.09552 0.63905 0.34518 0.0
C1181 C 0.12076 0.65809 0.43398 0.0
C1182 C 0.06737 0.64247 0.37404 0.0
C1183 C 0.06579 0.65324 0.43199 0.0
H1184 H 0.62573 0.88188 0.51122 0.0
H1185 H 0.71411 0.91857 0.55191 0.0
H1186 H 0.70196 0.91734 0.65706 0.0
H1187 H 0.66511 0.90872 0.73729 0.0
H1188 H 0.57618 0.87381 0.69584 0.0
H1189 H 0.58941 0.87235 0.59114 0.0
C1190 C 0.6423 0.88987 0.54291 0.0
C1191 C 0.67076 0.90046 0.52321 0.0
C1192 C 0.63494 0.88976 0.6033 0.0
C1193 C 0.69215 0.90998 0.56544 0.0
C1194 C 0.68513 0.90954 0.62571 0.0
C1195 C 0.64876 0.90044 0.70542 0.0
C1196 C 0.61963 0.8915 0.72446 0.0
C1197 C 0.65647 0.8998 0.64512 0.0
C1198 C 0.59859 0.88121 0.68239 0.0
C1199 C 0.60619 0.88023 0.6225 0.0
H1200 H 0.89915 0.3227 0.3167 0.0
H1201 H 0.90244 0.41784 0.36104 0.0
H1202 H 0.9022 0.4052 0.46592 0.0
H1203 H 0.90018 0.36725 0.54575 0.0
H1204 H 0.89633 0.27212 0.5017 0.0
H1205 H 0.89709 0.28469 0.39667 0.0
C1206 C 0.89952 0.34072 0.3492 0.0
C1207 C 0.9009 0.37125 0.33043 0.0
C1208 C 0.89916 0.3333 0.40985 0.0
C1209 C 0.90185 0.39415 0.3737 0.0
C1210 C 0.90152 0.38695 0.43392 0.0
C1211 C 0.89979 0.34922 0.51323 0.0
C1212 C 0.89815 0.31874 0.53202 0.0
C1213 C 0.90021 0.35661 0.45259 0.0
C1214 C 0.8972 0.29578 0.48886 0.0
C1215 C 0.89777 0.30295 0.4286 0.0
H1216 H 0.33639 0.39567 0.58069 0.0
H1217 H 0.43189 0.39003 0.62204 0.0
H1218 H 0.41988 0.38659 0.72703 0.0
H1219 H 0.38242 0.38594 0.80741 0.0
H1220 H 0.28691 0.39147 0.76641 0.0
H1221 H 0.29877 0.39322 0.66101 0.0
C1222 C 0.35458 0.39327 0.61251 0.0
C1223 C 0.38504 0.3933 0.59322 0.0
C1224 C 0.34752 0.39112 0.67299 0.0
C1225 C 0.40828 0.3906 0.63547 0.0
C1226 C 0.40143 0.38844 0.6956 0.0
C1227 C 0.36419 0.38764 0.77543 0.0
C1228 C 0.33382 0.38866 0.79493 0.0
C1229 C 0.37117 0.38893 0.7149 0.0
C1230 C 0.31047 0.39032 0.75273 0.0
C1231 C 0.31724 0.39154 0.69241 0.0
H1232 H 0.38547 0.63655 0.28803 0.0
H1233 H 0.41254 0.72847 0.32682 0.0
H1234 H 0.41433 0.7164 0.43198 0.0
H1235 H 0.41028 0.67918 0.51286 0.0
H1236 H 0.38373 0.58718 0.47355 0.0
H1237 H 0.38043 0.59972 0.3688 0.0
C1238 C 0.39198 0.65393 0.31936 0.0
C1239 C 0.39894 0.68337 0.29916 0.0
C1240 C 0.39333 0.64676 0.37985 0.0
C1241 C 0.40672 0.7057 0.34085 0.0
C1242 C 0.40797 0.69877 0.40112 0.0
C1243 C 0.40344 0.66194 0.48153 0.0
C1244 C 0.39745 0.6322 0.50133 0.0
C1245 C 0.40151 0.66932 0.42113 0.0
C1246 C 0.38898 0.61012 0.4597 0.0
C1247 C 0.3869 0.61731 0.39971 0.0
H1248 H 0.71562 0.61556 0.75914 0.0
H1249 H 0.62691 0.60407 0.83714 0.0
H1250 H 0.60406 0.60173 0.73913 0.0
H1251 H 0.60904 0.60341 0.63087 0.0
H1252 H 0.69782 0.61343 0.55295 0.0
H1253 H 0.72066 0.61657 0.65073 0.0
C1254 C 0.69126 0.61275 0.75466 0.0
C1255 C 0.67308 0.6099 0.80555 0.0
C1256 C 0.67819 0.61139 0.69798 0.0
C1257 C 0.64156 0.60591 0.79882 0.0
C1258 C 0.62841 0.60473 0.74271 0.0
C1259 C 0.6334 0.60609 0.63523 0.0
C1260 C 0.65161 0.6086 0.58423 0.0
C1261 C 0.64648 0.6074 0.69192 0.0
C1262 C 0.68314 0.61227 0.59112 0.0
C1263 C 0.69628 0.61377 0.64719 0.0
H1264 H 0.6064 0.41184 0.4309 0.0
H1265 H 0.60957 0.32228 0.50737 0.0
H1266 H 0.61168 0.2997 0.40911 0.0
H1267 H 0.61133 0.30538 0.30089 0.0
H1268 H 0.6071 0.39506 0.2246 0.0
H1269 H 0.606 0.41752 0.32299 0.0
C1270 C 0.6074 0.38738 0.42604 0.0
C1271 C 0.60816 0.36879 0.47655 0.0
C1272 C 0.60814 0.37454 0.36927 0.0
C1273 C 0.6097 0.33713 0.46935 0.0
C1274 C 0.61061 0.32419 0.4131 0.0
C1275 C 0.61039 0.32984 0.30586 0.0
C1276 C 0.60912 0.34847 0.25543 0.0
C1277 C 0.6098 0.34267 0.36268 0.0
C1278 C 0.6076 0.38014 0.26265 0.0
C1279 C 0.60715 0.39304 0.31892 0.0
H1280 H 0.87089 0.5887 1.01518 0.0
H1281 H 0.78791 0.63674 0.05407 0.0
H1282 H 0.80119 0.63792 0.15905 0.0
H1283 H 0.83703 0.62625 0.2391 0.0
H1284 H 0.91847 0.57518 0.20012 0.0
H1285 H 0.90551 0.57501 0.09575 0.0
C1286 C 0.85584 0.5996 0.04666 0.0
C1287 C 0.82861 0.61284 1.02695 0.0
C1288 C 0.86347 0.5999 0.10683 0.0
C1289 C 0.80897 0.62634 0.06829 0.0
C1290 C 0.81662 0.62711 0.1282 0.0
C1291 C 0.85183 0.61473 0.20808 0.0
C1292 C 0.87894 0.60104 0.22798 0.0
C1293 C 0.84387 0.61401 0.14797 0.0
C1294 C 0.89789 0.58662 0.18642 0.0
C1295 C 0.89035 0.58623 0.12656 0.0
H1296 H 0.61966 0.10946 0.85739 0.0
H1297 H 0.6008 0.19831 0.78637 0.0
H1298 H 0.60176 0.21994 0.88532 0.0
H1299 H 0.60566 0.2132 0.99292 0.0
H1300 H 0.62432 0.12419 0.06386 0.0
H1301 H 0.62528 0.10302 0.96441 0.0
C1302 C 0.61556 0.13351 0.86356 0.0
C1303 C 0.60996 0.15217 0.81433 0.0
C1304 C 0.61597 0.14578 0.92078 0.0
C1305 C 0.60534 0.18343 0.82324 0.0
C1306 C 0.60575 0.19582 0.87996 0.0
C1307 C 0.61033 0.18926 0.98653 0.0
C1308 C 0.61465 0.17029 1.0358 0.0
C1309 C 0.61082 0.17717 0.92914 0.0
C1310 C 0.6204 0.13923 1.02676 0.0
C1311 C 0.62108 0.1271 0.96988 0.0
H1312 H 0.13139 0.4426 0.21467 0.0
H1313 H 0.15102 0.34737 0.23806 0.0
H1314 H 0.17092 0.34466 0.13753 0.0
H1315 H 0.18137 0.36895 0.04171 0.0
H1316 H 0.16064 0.46387 1.01782 0.0
H1317 H 0.14206 0.46692 0.11934 0.0
C1318 C 0.13969 0.42115 0.19763 0.0
C1319 C 0.13956 0.39522 0.23401 0.0
C1320 C 0.15085 0.41966 0.13953 0.0
C1321 C 0.15108 0.36778 0.2114 0.0
C1322 C 0.16235 0.36616 0.15374 0.0
C1323 C 0.1731 0.39037 0.05897 0.0
C1324 C 0.17235 0.41613 1.02219 0.0
C1325 C 0.16227 0.39193 0.11734 0.0
C1326 C 0.16116 0.44363 0.04498 0.0
C1327 C 0.15062 0.44542 0.10309 0.0
H1328 H 0.40675 0.81098 1.0197 0.0
H1329 H 0.40354 0.9008 0.09463 0.0
H1330 H 0.40133 0.92303 0.99561 0.0
H1331 H 0.39973 0.91675 0.88739 0.0
H1332 H 0.40615 0.82695 0.81338 0.0
H1333 H 0.4071 0.80482 0.91201 0.0
C1334 C 0.40538 0.8354 1.01421 0.0
C1335 C 0.40517 0.85423 0.06417 0.0
C1336 C 0.40446 0.84799 0.95729 0.0
C1337 C 0.40389 0.88588 0.05665 0.0
C1338 C 0.40253 0.89858 1.00012 0.0
C1339 C 0.4015 0.89237 0.89296 0.0
C1340 C 0.40203 0.87343 0.84301 0.0
C1341 C 0.40281 0.87985 0.95006 0.0
C1342 C 0.40446 0.84189 0.851 0.0
C1343 C 0.40541 0.82925 0.90744 0.0
H1344 H 0.80444 0.89455 0.26849 0.0
H1345 H 0.89467 0.8963 0.34261 0.0
H1346 H 0.91666 0.89269 0.24399 0.0
H1347 H 0.9104 0.89007 0.13658 0.0
H1348 H 0.82017 0.8876 0.06269 0.0
H1349 H 0.7982 0.88955 0.16121 0.0
C1350 C 0.82891 0.89376 0.26316 0.0
C1351 C 0.84782 0.89603 0.31292 0.0
C1352 C 0.84148 0.89146 0.20628 0.0
C1353 C 0.87953 0.89523 0.30504 0.0
C1354 C 0.89216 0.89296 0.24865 0.0
C1355 C 0.88592 0.89016 0.1419 0.0
C1356 C 0.86705 0.88919 0.09185 0.0
C1357 C 0.87336 0.89138 0.1989 0.0
C1358 C 0.83536 0.88843 0.10004 0.0
C1359 C 0.8227 0.88964 0.15654 0.0
H1360 H 0.89839 0.09567 0.94385 0.0
H1361 H 0.89272 0.18579 1.01751 0.0
H1362 H 0.8935 0.20763 0.91873 0.0
H1363 H 0.89802 0.20132 0.81098 0.0
H1364 H 0.90502 0.11122 0.7379 0.0
H1365 H 0.90204 0.0893 0.83677 0.0
C1366 C 0.89761 0.1201 0.9385 0.0
C1367 C 0.89587 0.13897 0.98849 0.0
C1368 C 0.89845 0.13258 0.88146 0.0
C1369 C 0.894 0.17059 0.98018 0.0
C1370 C 0.89458 0.18318 0.92354 0.0
C1371 C 0.89862 0.17689 0.81678 0.0
C1372 C 0.90196 0.15793 0.76729 0.0
C1373 C 0.89707 0.16441 0.87385 0.0
C1374 C 0.90293 0.12631 0.77542 0.0
C1375 C 0.90109 0.11375 0.83189 0.0
H1376 H 0.14506 0.14503 0.1034 0.0
H1377 H 0.11047 0.05345 0.10481 0.0
H1378 H 0.12653 0.0473 0.20712 0.0
H1379 H 0.1506 0.06766 0.29608 0.0
H1380 H 0.18507 0.15926 0.29551 0.0
H1381 H 0.16964 0.16531 0.19259 0.0
C1382 C 0.14123 0.12366 0.12595 0.0
C1383 C 0.12635 0.09984 0.09644 0.0
C1384 C 0.1507 0.12017 0.18486 0.0
C1385 C 0.12134 0.07238 0.12665 0.0
C1386 C 0.13072 0.06874 0.1851 0.0
C1387 C 0.15451 0.08906 0.27366 0.0
C1388 C 0.16892 0.11298 0.30369 0.0
C1389 C 0.14532 0.0925 0.21469 0.0
C1390 C 0.17434 0.14034 0.27341 0.0
C1391 C 0.16534 0.1439 0.21461 0.0
H1392 H 0.0826 0.8673 0.77956 0.0
H1393 H 0.13722 0.78765 0.81066 0.0
H1394 H 0.14202 0.80136 0.91509 0.0
H1395 H 0.13179 0.83683 0.99653 0.0
H1396 H 0.07362 0.91437 0.96584 0.0
H1397 H 0.06998 0.90108 0.86203 0.0
C1398 C 0.09567 0.85304 0.80922 0.0
C1399 C 0.1098 0.8267 0.78744 0.0
C1400 C 0.09801 0.86087 0.86912 0.0
C1401 C 0.12614 0.80805 0.8265 0.0
C1402 C 0.12897 0.81595 0.88608 0.0
C1403 C 0.11795 0.85069 0.96758 0.0
C1404 C 0.10337 0.8769 0.98963 0.0
C1405 C 0.11509 0.8424 0.90785 0.0
C1406 C 0.08591 0.8946 0.95047 0.0
C1407 C 0.08348 0.88684 0.89093 0.0
loop_
_geom_bond_atom_site_label_1
_geom_bond_atom_site_label_2
_geom_bond_distance
_geom_bond_site_symmetry_2
_ccdc_geom_bond_type
Tb0 C10 2.825 . S
Tb0 O11 2.347 . S
Tb0 O14 2.366 . S
Tb0 O19 2.418 . S
Tb0 O20 2.384 . S
Tb0 O23 2.479 . S
Tb0 O24 2.471 . S
Eu1 O12 2.418 . S
Eu1 O13 2.384 . S
Eu1 O16 2.479 1_554 S
Eu1 O17 2.471 1_554 S
Eu1 O18 2.347 . S
Eu1 O21 2.366 . S
Eu1 C31 2.825 1_554 S
C2 O18 1.259 . S
C2 O19 1.265 . S
C3 O20 1.255 . S
C3 O21 1.265 . S
C4 C6 1.380 . S
C4 C7 1.374 . S
C4 C10 1.507 . S
C5 C6 1.384 . S
C5 C9 1.387 . S
C5 H32 0.930 . S
C6 C4 1.380 . S
C6 C5 1.384 . S
C6 H33 0.931 . S
C7 C4 1.374 . S
C7 C8 1.390 . S
C7 H34 0.930 . S
C8 C7 1.390 . S
C8 C9 1.391 . S
C8 H35 0.930 . S
C9 C5 1.387 . S
C9 C8 1.391 . S
C10 Tb0 2.825 . S
C10 C4 1.507 . S
C10 O23 1.238 . S
C10 O24 1.247 . S
O11 Tb0 2.347 . S
O11 C15 1.259 . S
O12 Eu1 2.418 . S
O12 C15 1.265 . S
O13 Eu1 2.384 . S
O13 C22 1.255 . S
O14 Tb0 2.366 . S
O14 C22 1.265 . S
C15 O11 1.259 . S
C15 O12 1.265 . S
O16 Eu1 2.479 1_556 S
O16 C31 1.238 . S
O17 Eu1 2.471 1_556 S
O17 C31 1.247 . S
O18 Eu1 2.347 . S
O18 C2 1.259 . S
O19 Tb0 2.418 . S
O19 C2 1.265 . S
O20 Tb0 2.384 . S
O20 C3 1.255 . S
O21 Eu1 2.366 . S
O21 C3 1.265 . S
C22 O13 1.255 . S
C22 O14 1.265 . S
O23 Tb0 2.479 . S
O23 C10 1.238 . S
O24 Tb0 2.471 . S
O24 C10 1.247 . S
C25 C28 1.380 . S
C25 C29 1.374 . S
C25 C31 1.507 . S
C26 C27 1.387 . S
C26 C30 1.391 . S
C27 C26 1.387 . S
C27 C28 1.384 . S
C27 H36 0.930 . S
C28 C25 1.380 . S
C28 C27 1.384 . S
C28 H37 0.931 . S
C29 C25 1.374 . S
C29 C30 1.390 . S
C29 H38 0.930 . S
C30 C26 1.391 . S
C30 C29 1.390 . S
C30 H39 0.930 . S
C31 Eu1 2.825 1_556 S
C31 O16 1.238 . S
C31 O17 1.247 . S
C31 C25 1.507 . S
H32 C5 0.930 . S
H33 C6 0.931 . S
H34 C7 0.930 . S
H35 C8 0.930 . S
H36 C27 0.930 . S
H37 C28 0.931 . S
H38 C29 0.930 . S
H39 C30 0.930 . S
Tb40 C50 2.825 1_556 S
Tb40 O51 2.347 . S
Tb40 O54 2.366 . S
Tb40 O59 2.418 . S
Tb40 O60 2.384 . S
Tb40 O63 2.479 1_556 S
Tb40 O64 2.471 1_556 S
Eu41 O52 2.418 . S
Eu41 O53 2.384 . S
Eu41 O56 2.479 . S
Eu41 O57 2.471 . S
Eu41 O58 2.347 . S
Eu41 O61 2.366 . S
Eu41 C71 2.825 . S
C42 O58 1.259 . S
C42 O59 1.265 . S
C43 O60 1.255 . S
C43 O61 1.265 . S
C44 C46 1.380 . S
C44 C47 1.374 . S
C44 C50 1.507 . S
C45 C46 1.384 . S
C45 C49 1.387 . S
C45 H72 0.930 . S
C46 C44 1.380 . S
C46 C45 1.384 . S
C46 H73 0.931 . S
C47 C44 1.374 . S
C47 C48 1.390 . S
C47 H74 0.930 . S
C48 C47 1.390 . S
C48 C49 1.391 . S
C48 H75 0.930 . S
C49 C45 1.387 . S
C49 C48 1.391 . S
C50 Tb40 2.825 1_554 S
C50 C44 1.507 . S
C50 O63 1.238 . S
C50 O64 1.247 . S
O51 Tb40 2.347 . S
O51 C55 1.259 . S
O52 Eu41 2.418 . S
O52 C55 1.265 . S
O53 Eu41 2.384 . S
O53 C62 1.255 . S
O54 Tb40 2.366 . S
O54 C62 1.265 . S
C55 O51 1.259 . S
C55 O52 1.265 . S
O56 Eu41 2.479 . S
O56 C71 1.238 . S
O57 Eu41 2.471 . S
O57 C71 1.247 . S
O58 Eu41 2.347 . S
O58 C42 1.259 . S
O59 Tb40 2.418 . S
O59 C42 1.265 . S
O60 Tb40 2.384 . S
O60 C43 1.255 . S
O61 Eu41 2.366 . S
O61 C43 1.265 . S
C62 O53 1.255 . S
C62 O54 1.265 . S
O63 Tb40 2.479 1_554 S
O63 C50 1.238 . S
O64 Tb40 2.471 1_554 S
O64 C50 1.247 . S
C65 C68 1.380 . S
C65 C69 1.374 . S
C65 C71 1.507 . S
C66 C67 1.387 . S
C66 C70 1.391 . S
C67 C66 1.387 . S
C67 C68 1.384 . S
C67 H76 0.930 . S
C68 C65 1.380 . S
C68 C67 1.384 . S
C68 H77 0.931 . S
C69 C65 1.374 . S
C69 C70 1.390 . S
C69 H78 0.930 . S
C70 C66 1.391 . S
C70 C69 1.390 . S
C70 H79 0.930 . S
C71 Eu41 2.825 . S
C71 O56 1.238 . S
C71 O57 1.247 . S
C71 C65 1.507 . S
H72 C45 0.930 . S
H73 C46 0.931 . S
H74 C47 0.930 . S
H75 C48 0.930 . S
H76 C67 0.930 . S
H77 C68 0.931 . S
H78 C69 0.930 . S
H79 C70 0.930 . S
Tb80 C90 2.825 . S
Tb80 O91 2.347 . S
Tb80 O94 2.366 . S
Tb80 O99 2.418 . S
Tb80 O100 2.384 . S
Tb80 O103 2.479 . S
Tb80 O104 2.471 . S
Eu81 O92 2.418 . S
Eu81 O93 2.384 . S
Eu81 O96 2.479 1_554 S
Eu81 O97 2.471 1_554 S
Eu81 O98 2.347 . S
Eu81 O101 2.366 . S
Eu81 C111 2.825 1_554 S
C82 O98 1.259 . S
C82 O99 1.265 . S
C83 O100 1.255 . S
C83 O101 1.265 . S
C84 C86 1.380 . S
C84 C87 1.374 . S
C84 C90 1.507 . S
C85 C86 1.384 . S
C85 C89 1.387 . S
C85 H112 0.930 . S
C86 C84 1.380 . S
C86 C85 1.384 . S
C86 H113 0.931 . S
C87 C84 1.374 . S
C87 C88 1.390 . S
C87 H114 0.930 . S
C88 C87 1.390 . S
C88 C89 1.391 . S
C88 H115 0.930 . S
C89 C85 1.387 . S
C89 C88 1.391 . S
C90 Tb80 2.825 . S
C90 C84 1.507 . S
C90 O103 1.238 . S
C90 O104 1.247 . S
O91 Tb80 2.347 . S
O91 C95 1.259 . S
O92 Eu81 2.418 . S
O92 C95 1.265 . S
O93 Eu81 2.384 . S
O93 C102 1.255 . S
O94 Tb80 2.366 . S
O94 C102 1.265 . S
C95 O91 1.259 . S
C95 O92 1.265 . S
O96 Eu81 2.479 1_556 S
O96 C111 1.238 . S
O97 Eu81 2.471 1_556 S
O97 C111 1.247 . S
O98 Eu81 2.347 . S
O98 C82 1.259 . S
O99 Tb80 2.418 . S
O99 C82 1.265 . S
O100 Tb80 2.384 . S
O100 C83 1.255 . S
O101 Eu81 2.366 . S
O101 C83 1.265 . S
C102 O93 1.255 . S
C102 O94 1.265 . S
O103 Tb80 2.479 . S
O103 C90 1.238 . S
O104 Tb80 2.471 . S
O104 C90 1.247 . S
C105 C108 1.380 . S
C105 C109 1.374 . S
C105 C111 1.507 . S
C106 C107 1.387 . S
C106 C110 1.391 . S
C107 C106 1.387 . S
C107 C108 1.384 . S
C107 H116 0.930 . S
C108 C105 1.380 . S
C108 C107 1.384 . S
C108 H117 0.931 . S
C109 C105 1.374 . S
C109 C110 1.390 . S
C109 H118 0.930 . S
C110 C106 1.391 . S
C110 C109 1.390 . S
C110 H119 0.930 . S
C111 Eu81 2.825 1_556 S
C111 O96 1.238 . S
C111 O97 1.247 . S
C111 C105 1.507 . S
H112 C85 0.930 . S
H113 C86 0.931 . S
H114 C87 0.930 . S
H115 C88 0.930 . S
H116 C107 0.930 . S
H117 C108 0.931 . S
H118 C109 0.930 . S
H119 C110 0.930 . S
Tb120 C130 2.825 1_556 S
Tb120 O131 2.347 . S
Tb120 O134 2.366 . S
Tb120 O139 2.418 . S
Tb120 O140 2.384 . S
Tb120 O143 2.479 1_556 S
Tb120 O144 2.471 1_556 S
Eu121 O132 2.418 . S
Eu121 O133 2.384 . S
Eu121 O136 2.479 . S
Eu121 O137 2.471 . S
Eu121 O138 2.347 . S
Eu121 O141 2.366 . S
Eu121 C151 2.825 . S
C122 O138 1.259 . S
C122 O139 1.265 . S
C123 O140 1.255 . S
C123 O141 1.265 . S
C124 C126 1.380 . S
C124 C127 1.374 . S
C124 C130 1.507 . S
C125 C126 1.384 . S
C125 C129 1.387 . S
C125 H152 0.930 . S
C126 C124 1.380 . S
C126 C125 1.384 . S
C126 H153 0.931 . S
C127 C124 1.374 . S
C127 C128 1.390 . S
C127 H154 0.930 . S
C128 C127 1.390 . S
C128 C129 1.391 . S
C128 H155 0.930 . S
C129 C125 1.387 . S
C129 C128 1.391 . S
C130 Tb120 2.825 1_554 S
C130 C124 1.507 . S
C130 O143 1.238 . S
C130 O144 1.247 . S
O131 Tb120 2.347 . S
O131 C135 1.259 . S
O132 Eu121 2.418 . S
O132 C135 1.265 . S
O133 Eu121 2.384 . S
O133 C142 1.255 . S
O134 Tb120 2.366 . S
O134 C142 1.265 . S
C135 O131 1.259 . S
C135 O132 1.265 . S
O136 Eu121 2.479 . S
O136 C151 1.238 . S
O137 Eu121 2.471 . S
O137 C151 1.247 . S
O138 Eu121 2.347 . S
O138 C122 1.259 . S
O139 Tb120 2.418 . S
O139 C122 1.265 . S
O140 Tb120 2.384 . S
O140 C123 1.255 . S
O141 Eu121 2.366 . S
O141 C123 1.265 . S
C142 O133 1.255 . S
C142 O134 1.265 . S
O143 Tb120 2.479 1_554 S
O143 C130 1.238 . S
O144 Tb120 2.471 1_554 S
O144 C130 1.247 . S
C145 C148 1.380 . S
C145 C149 1.374 . S
C145 C151 1.507 . S
C146 C147 1.387 . S
C146 C150 1.391 . S
C147 C146 1.387 . S
C147 C148 1.384 . S
C147 H156 0.930 . S
C148 C145 1.380 . S
C148 C147 1.384 . S
C148 H157 0.931 . S
C149 C145 1.374 . S
C149 C150 1.390 . S
C149 H158 0.930 . S
C150 C146 1.391 . S
C150 C149 1.390 . S
C150 H159 0.930 . S
C151 Eu121 2.825 . S
C151 O136 1.238 . S
C151 O137 1.247 . S
C151 C145 1.507 . S
H152 C125 0.930 . S
H153 C126 0.931 . S
H154 C127 0.930 . S
H155 C128 0.930 . S
H156 C147 0.930 . S
H157 C148 0.931 . S
H158 C149 0.930 . S
H159 C150 0.930 . S
Tb160 C170 2.825 1_554 S
Tb160 O171 2.347 . S
Tb160 O174 2.366 . S
Tb160 O179 2.418 . S
Tb160 O180 2.384 . S
Tb160 O183 2.479 1_554 S
Tb160 O184 2.471 1_554 S
Eu161 O172 2.418 . S
Eu161 O173 2.384 . S
Eu161 O176 2.479 . S
Eu161 O177 2.471 . S
Eu161 O178 2.347 . S
Eu161 O181 2.366 . S
Eu161 C191 2.825 . S
C162 O178 1.259 . S
C162 O179 1.265 . S
C163 O180 1.255 . S
C163 O181 1.265 . S
C164 C166 1.380 . S
C164 C167 1.374 . S
C164 C170 1.507 . S
C165 C166 1.384 . S
C165 C169 1.387 . S
C165 H192 0.930 . S
C166 C164 1.380 . S
C166 C165 1.384 . S
C166 H193 0.931 . S
C167 C164 1.374 . S
C167 C168 1.390 . S
C167 H194 0.930 . S
C168 C167 1.390 . S
C168 C169 1.391 . S
C168 H195 0.930 . S
C169 C165 1.387 . S
C169 C168 1.391 . S
C170 Tb160 2.825 1_556 S
C170 C164 1.507 . S
C170 O183 1.238 . S
C170 O184 1.247 . S
O171 Tb160 2.347 . S
O171 C175 1.259 . S
O172 Eu161 2.418 . S
O172 C175 1.265 . S
O173 Eu161 2.384 . S
O173 C182 1.255 . S
O174 Tb160 2.366 . S
O174 C182 1.265 . S
C175 O171 1.259 . S
C175 O172 1.265 . S
O176 Eu161 2.479 . S
O176 C191 1.238 . S
O177 Eu161 2.471 . S
O177 C191 1.247 . S
O178 Eu161 2.347 . S
O178 C162 1.259 . S
O179 Tb160 2.418 . S
O179 C162 1.265 . S
O180 Tb160 2.384 . S
O180 C163 1.255 . S
O181 Eu161 2.366 . S
O181 C163 1.265 . S
C182 O173 1.255 . S
C182 O174 1.265 . S
O183 Tb160 2.479 1_556 S
O183 C170 1.238 . S
O184 Tb160 2.471 1_556 S
O184 C170 1.247 . S
C185 C188 1.380 . S
C185 C189 1.374 . S
C185 C191 1.507 . S
C186 C187 1.387 . S
C186 C190 1.391 . S
C187 C186 1.387 . S
C187 C188 1.384 . S
C187 H196 0.930 . S
C188 C185 1.380 . S
C188 C187 1.384 . S
C188 H197 0.931 . S
C189 C185 1.374 . S
C189 C190 1.390 . S
C189 H198 0.930 . S
C190 C186 1.391 . S
C190 C189 1.390 . S
C190 H199 0.930 . S
C191 Eu161 2.825 . S
C191 O176 1.238 . S
C191 O177 1.247 . S
C191 C185 1.507 . S
H192 C165 0.930 . S
H193 C166 0.931 . S
H194 C167 0.930 . S
H195 C168 0.930 . S
H196 C187 0.930 . S
H197 C188 0.931 . S
H198 C189 0.930 . S
H199 C190 0.930 . S
Tb200 C210 2.825 . S
Tb200 O211 2.347 . S
Tb200 O214 2.366 . S
Tb200 O219 2.418 . S
Tb200 O220 2.384 . S
Tb200 O223 2.479 . S
Tb200 O224 2.471 . S
Eu201 O212 2.418 . S
Eu201 O213 2.384 . S
Eu201 O216 2.479 1_556 S
Eu201 O217 2.471 1_556 S
Eu201 O218 2.347 . S
Eu201 O221 2.366 . S
Eu201 C231 2.825 1_556 S
C202 O218 1.259 . S
C202 O219 1.265 . S
C203 O220 1.255 . S
C203 O221 1.265 . S
C204 C206 1.380 . S
C204 C207 1.374 . S
C204 C210 1.507 . S
C205 C206 1.384 . S
C205 C209 1.387 . S
C205 H232 0.930 . S
C206 C204 1.380 . S
C206 C205 1.384 . S
C206 H233 0.931 . S
C207 C204 1.374 . S
C207 C208 1.390 . S
C207 H234 0.930 . S
C208 C207 1.390 . S
C208 C209 1.391 . S
C208 H235 0.930 . S
C209 C205 1.387 . S
C209 C208 1.391 . S
C210 Tb200 2.825 . S
C210 C204 1.507 . S
C210 O223 1.238 . S
C210 O224 1.247 . S
O211 Tb200 2.347 . S
O211 C215 1.259 . S
O212 Eu201 2.418 . S
O212 C215 1.265 . S
O213 Eu201 2.384 . S
O213 C222 1.255 . S
O214 Tb200 2.366 . S
O214 C222 1.265 . S
C215 O211 1.259 . S
C215 O212 1.265 . S
O216 Eu201 2.479 1_554 S
O216 C231 1.238 . S
O217 Eu201 2.471 1_554 S
O217 C231 1.247 . S
O218 Eu201 2.347 . S
O218 C202 1.259 . S
O219 Tb200 2.418 . S
O219 C202 1.265 . S
O220 Tb200 2.384 . S
O220 C203 1.255 . S
O221 Eu201 2.366 . S
O221 C203 1.265 . S
C222 O213 1.255 . S
C222 O214 1.265 . S
O223 Tb200 2.479 . S
O223 C210 1.238 . S
O224 Tb200 2.471 . S
O224 C210 1.247 . S
C225 C228 1.380 . S
C225 C229 1.374 . S
C225 C231 1.507 . S
C226 C227 1.387 . S
C226 C230 1.391 . S
C227 C226 1.387 . S
C227 C228 1.384 . S
C227 H236 0.930 . S
C228 C225 1.380 . S
C228 C227 1.384 . S
C228 H237 0.931 . S
C229 C225 1.374 . S
C229 C230 1.390 . S
C229 H238 0.930 . S
C230 C226 1.391 . S
C230 C229 1.390 . S
C230 H239 0.930 . S
C231 Eu201 2.825 1_554 S
C231 O216 1.238 . S
C231 O217 1.247 . S
C231 C225 1.507 . S
H232 C205 0.930 . S
H233 C206 0.931 . S
H234 C207 0.930 . S
H235 C208 0.930 . S
H236 C227 0.930 . S
H237 C228 0.931 . S
H238 C229 0.930 . S
H239 C230 0.930 . S
Tb240 C250 2.825 1_554 S
Tb240 O251 2.347 . S
Tb240 O254 2.366 . S
Tb240 O259 2.418 . S
Tb240 O260 2.384 . S
Tb240 O263 2.479 1_554 S
Tb240 O264 2.471 1_554 S
Eu241 O252 2.418 . S
Eu241 O253 2.384 . S
Eu241 O256 2.479 . S
Eu241 O257 2.471 . S
Eu241 O258 2.347 . S
Eu241 O261 2.366 . S
Eu241 C271 2.825 . S
C242 O258 1.259 . S
C242 O259 1.265 . S
C243 O260 1.255 . S
C243 O261 1.265 . S
C244 C246 1.380 . S
C244 C247 1.374 . S
C244 C250 1.507 . S
C245 C246 1.384 . S
C245 C249 1.387 . S
C245 H272 0.930 . S
C246 C244 1.380 . S
C246 C245 1.384 . S
C246 H273 0.931 . S
C247 C244 1.374 . S
C247 C248 1.390 . S
C247 H274 0.930 . S
C248 C247 1.390 . S
C248 C249 1.391 . S
C248 H275 0.930 . S
C249 C245 1.387 . S
C249 C248 1.391 . S
C250 Tb240 2.825 1_556 S
C250 C244 1.507 . S
C250 O263 1.238 . S
C250 O264 1.247 . S
O251 Tb240 2.347 . S
O251 C255 1.259 . S
O252 Eu241 2.418 . S
O252 C255 1.265 . S
O253 Eu241 2.384 . S
O253 C262 1.255 . S
O254 Tb240 2.366 . S
O254 C262 1.265 . S
C255 O251 1.259 . S
C255 O252 1.265 . S
O256 Eu241 2.479 . S
O256 C271 1.238 . S
O257 Eu241 2.471 . S
O257 C271 1.247 . S
O258 Eu241 2.347 . S
O258 C242 1.259 . S
O259 Tb240 2.418 . S
O259 C242 1.265 . S
O260 Tb240 2.384 . S
O260 C243 1.255 . S
O261 Eu241 2.366 . S
O261 C243 1.265 . S
C262 O253 1.255 . S
C262 O254 1.265 . S
O263 Tb240 2.479 1_556 S
O263 C250 1.238 . S
O264 Tb240 2.471 1_556 S
O264 C250 1.247 . S
C265 C268 1.380 . S
C265 C269 1.374 . S
C265 C271 1.507 . S
C266 C267 1.387 . S
C266 C270 1.391 . S
C267 C266 1.387 . S
C267 C268 1.384 . S
C267 H276 0.930 . S
C268 C265 1.380 . S
C268 C267 1.384 . S
C268 H277 0.931 . S
C269 C265 1.374 . S
C269 C270 1.390 . S
C269 H278 0.930 . S
C270 C266 1.391 . S
C270 C269 1.390 . S
C270 H279 0.930 . S
C271 Eu241 2.825 . S
C271 O256 1.238 . S
C271 O257 1.247 . S
C271 C265 1.507 . S
H272 C245 0.930 . S
H273 C246 0.931 . S
H274 C247 0.930 . S
H275 C248 0.930 . S
H276 C267 0.930 . S
H277 C268 0.931 . S
H278 C269 0.930 . S
H279 C270 0.930 . S
Tb280 C290 2.825 . S
Tb280 O291 2.347 . S
Tb280 O294 2.366 . S
Tb280 O299 2.418 . S
Tb280 O300 2.384 . S
Tb280 O303 2.479 . S
Tb280 O304 2.471 . S
Eu281 O292 2.418 . S
Eu281 O293 2.384 . S
Eu281 O296 2.479 1_556 S
Eu281 O297 2.471 1_556 S
Eu281 O298 2.347 . S
Eu281 O301 2.366 . S
Eu281 C311 2.825 1_556 S
C282 O298 1.259 . S
C282 O299 1.265 . S
C283 O300 1.255 . S
C283 O301 1.265 . S
C284 C286 1.380 . S
C284 C287 1.374 . S
C284 C290 1.507 . S
C285 C286 1.384 . S
C285 C289 1.387 . S
C285 H312 0.930 . S
C286 C284 1.380 . S
C286 C285 1.384 . S
C286 H313 0.931 . S
C287 C284 1.374 . S
C287 C288 1.390 . S
C287 H314 0.930 . S
C288 C287 1.390 . S
C288 C289 1.391 . S
C288 H315 0.930 . S
C289 C285 1.387 . S
C289 C288 1.391 . S
C290 Tb280 2.825 . S
C290 C284 1.507 . S
C290 O303 1.238 . S
C290 O304 1.247 . S
O291 Tb280 2.347 . S
O291 C295 1.259 . S
O292 Eu281 2.418 . S
O292 C295 1.265 . S
O293 Eu281 2.384 . S
O293 C302 1.255 . S
O294 Tb280 2.366 . S
O294 C302 1.265 . S
C295 O291 1.259 . S
C295 O292 1.265 . S
O296 Eu281 2.479 1_554 S
O296 C311 1.238 . S
O297 Eu281 2.471 1_554 S
O297 C311 1.247 . S
O298 Eu281 2.347 . S
O298 C282 1.259 . S
O299 Tb280 2.418 . S
O299 C282 1.265 . S
O300 Tb280 2.384 . S
O300 C283 1.255 . S
O301 Eu281 2.366 . S
O301 C283 1.265 . S
C302 O293 1.255 . S
C302 O294 1.265 . S
O303 Tb280 2.479 . S
O303 C290 1.238 . S
O304 Tb280 2.471 . S
O304 C290 1.247 . S
C305 C308 1.380 . S
C305 C309 1.374 . S
C305 C311 1.507 . S
C306 C307 1.387 . S
C306 C310 1.391 . S
C307 C306 1.387 . S
C307 C308 1.384 . S
C307 H316 0.930 . S
C308 C305 1.380 . S
C308 C307 1.384 . S
C308 H317 0.931 . S
C309 C305 1.374 . S
C309 C310 1.390 . S
C309 H318 0.930 . S
C310 C306 1.391 . S
C310 C309 1.390 . S
C310 H319 0.930 . S
C311 Eu281 2.825 1_554 S
C311 O296 1.238 . S
C311 O297 1.247 . S
C311 C305 1.507 . S
H312 C285 0.930 . S
H313 C286 0.931 . S
H314 C287 0.930 . S
H315 C288 0.930 . S
H316 C307 0.930 . S
H317 C308 0.931 . S
H318 C309 0.930 . S
H319 C310 0.930 . S
Tb320 C330 2.825 . S
Tb320 O331 2.347 . S
Tb320 O334 2.366 . S
Tb320 O339 2.418 . S
Tb320 O340 2.384 . S
Tb320 O343 2.479 . S
Tb320 O344 2.471 . S
Eu321 O332 2.418 . S
Eu321 O333 2.384 . S
Eu321 O336 2.479 . S
Eu321 O337 2.471 . S
Eu321 O338 2.347 . S
Eu321 O341 2.366 . S
Eu321 C351 2.825 . S
C322 O338 1.259 . S
C322 O339 1.265 . S
C323 O340 1.255 . S
C323 O341 1.265 . S
C324 C326 1.380 . S
C324 C327 1.374 . S
C324 C330 1.507 . S
C325 C326 1.384 . S
C325 C329 1.387 . S
C325 H352 0.930 . S
C326 C324 1.380 . S
C326 C325 1.384 . S
C326 H353 0.931 . S
C327 C324 1.374 . S
C327 C328 1.390 . S
C327 H354 0.930 . S
C328 C327 1.390 . S
C328 C329 1.391 . S
C328 H355 0.930 . S
C329 C325 1.387 . S
C329 C328 1.391 . S
C330 Tb320 2.825 . S
C330 C324 1.507 . S
C330 O343 1.238 . S
C330 O344 1.247 . S
O331 Tb320 2.347 . S
O331 C335 1.259 . S
O332 Eu321 2.418 . S
O332 C335 1.265 . S
O333 Eu321 2.384 . S
O333 C342 1.255 . S
O334 Tb320 2.366 . S
O334 C342 1.265 . S
C335 O331 1.259 . S
C335 O332 1.265 . S
O336 Eu321 2.479 . S
O336 C351 1.238 . S
O337 Eu321 2.471 . S
O337 C351 1.247 . S
O338 Eu321 2.347 . S
O338 C322 1.259 . S
O339 Tb320 2.418 . S
O339 C322 1.265 . S
O340 Tb320 2.384 . S
O340 C323 1.255 . S
O341 Eu321 2.366 . S
O341 C323 1.265 . S
C342 O333 1.255 . S
C342 O334 1.265 . S
O343 Tb320 2.479 . S
O343 C330 1.238 . S
O344 Tb320 2.471 . S
O344 C330 1.247 . S
C345 C348 1.380 . S
C345 C349 1.374 . S
C345 C351 1.507 . S
C346 C347 1.387 . S
C346 C350 1.391 . S
C347 C346 1.387 . S
C347 C348 1.384 . S
C347 H356 0.930 . S
C348 C345 1.380 . S
C348 C347 1.384 . S
C348 H357 0.931 . S
C349 C345 1.374 . S
C349 C350 1.390 . S
C349 H358 0.930 . S
C350 C346 1.391 . S
C350 C349 1.390 . S
C350 H359 0.930 . S
C351 Eu321 2.825 . S
C351 O336 1.238 . S
C351 O337 1.247 . S
C351 C345 1.507 . S
H352 C325 0.930 . S
H353 C326 0.931 . S
H354 C327 0.930 . S
H355 C328 0.930 . S
H356 C347 0.930 . S
H357 C348 0.931 . S
H358 C349 0.930 . S
H359 C350 0.930 . S
Tb360 C370 2.825 . S
Tb360 O371 2.347 . S
Tb360 O374 2.366 . S
Tb360 O379 2.418 . S
Tb360 O380 2.384 . S
Tb360 O383 2.479 . S
Tb360 O384 2.471 . S
Eu361 O372 2.418 . S
Eu361 O373 2.384 . S
Eu361 O376 2.479 . S
Eu361 O377 2.471 . S
Eu361 O378 2.347 . S
Eu361 O381 2.366 . S
Eu361 C391 2.825 . S
C362 O378 1.259 . S
C362 O379 1.265 . S
C363 O380 1.255 . S
C363 O381 1.265 . S
C364 C366 1.380 . S
C364 C367 1.374 . S
C364 C370 1.507 . S
C365 C366 1.384 . S
C365 C369 1.387 . S
C365 H392 0.930 . S
C366 C364 1.380 . S
C366 C365 1.384 . S
C366 H393 0.931 . S
C367 C364 1.374 . S
C367 C368 1.390 . S
C367 H394 0.930 . S
C368 C367 1.390 . S
C368 C369 1.391 . S
C368 H395 0.930 . S
C369 C365 1.387 . S
C369 C368 1.391 . S
C370 Tb360 2.825 . S
C370 C364 1.507 . S
C370 O383 1.238 . S
C370 O384 1.247 . S
O371 Tb360 2.347 . S
O371 C375 1.259 . S
O372 Eu361 2.418 . S
O372 C375 1.265 . S
O373 Eu361 2.384 . S
O373 C382 1.255 . S
O374 Tb360 2.366 . S
O374 C382 1.265 . S
C375 O371 1.259 . S
C375 O372 1.265 . S
O376 Eu361 2.479 . S
O376 C391 1.238 . S
O377 Eu361 2.471 . S
O377 C391 1.247 . S
O378 Eu361 2.347 . S
O378 C362 1.259 . S
O379 Tb360 2.418 . S
O379 C362 1.265 . S
O380 Tb360 2.384 . S
O380 C363 1.255 . S
O381 Eu361 2.366 . S
O381 C363 1.265 . S
C382 O373 1.255 . S
C382 O374 1.265 . S
O383 Tb360 2.479 . S
O383 C370 1.238 . S
O384 Tb360 2.471 . S
O384 C370 1.247 . S
C385 C388 1.380 . S
C385 C389 1.374 . S
C385 C391 1.507 . S
C386 C387 1.387 . S
C386 C390 1.391 . S
C387 C386 1.387 . S
C387 C388 1.384 . S
C387 H396 0.930 . S
C388 C385 1.380 . S
C388 C387 1.384 . S
C388 H397 0.931 . S
C389 C385 1.374 . S
C389 C390 1.390 . S
C389 H398 0.930 . S
C390 C386 1.391 . S
C390 C389 1.390 . S
C390 H399 0.930 . S
C391 Eu361 2.825 . S
C391 O376 1.238 . S
C391 O377 1.247 . S
C391 C385 1.507 . S
H392 C365 0.930 . S
H393 C366 0.931 . S
H394 C367 0.930 . S
H395 C368 0.930 . S
H396 C387 0.930 . S
H397 C388 0.931 . S
H398 C389 0.930 . S
H399 C390 0.930 . S
Tb400 C410 2.825 . S
Tb400 O411 2.347 . S
Tb400 O414 2.366 . S
Tb400 O419 2.418 . S
Tb400 O420 2.384 . S
Tb400 O423 2.479 . S
Tb400 O424 2.471 . S
Eu401 O412 2.418 . S
Eu401 O413 2.384 . S
Eu401 O416 2.479 . S
Eu401 O417 2.471 . S
Eu401 O418 2.347 . S
Eu401 O421 2.366 . S
Eu401 C431 2.825 . S
C402 O418 1.259 . S
C402 O419 1.265 . S
C403 O420 1.255 . S
C403 O421 1.265 . S
C404 C406 1.380 . S
C404 C407 1.374 . S
C404 C410 1.507 . S
C405 C406 1.384 . S
C405 C409 1.387 . S
C405 H432 0.930 . S
C406 C404 1.380 . S
C406 C405 1.384 . S
C406 H433 0.931 . S
C407 C404 1.374 . S
C407 C408 1.390 . S
C407 H434 0.930 . S
C408 C407 1.390 . S
C408 C409 1.391 . S
C408 H435 0.930 . S
C409 C405 1.387 . S
C409 C408 1.391 . S
C410 Tb400 2.825 . S
C410 C404 1.507 . S
C410 O423 1.238 . S
C410 O424 1.247 . S
O411 Tb400 2.347 . S
O411 C415 1.259 . S
O412 Eu401 2.418 . S
O412 C415 1.265 . S
O413 Eu401 2.384 . S
O413 C422 1.255 . S
O414 Tb400 2.366 . S
O414 C422 1.265 . S
C415 O411 1.259 . S
C415 O412 1.265 . S
O416 Eu401 2.479 . S
O416 C431 1.238 . S
O417 Eu401 2.471 . S
O417 C431 1.247 . S
O418 Eu401 2.347 . S
O418 C402 1.259 . S
O419 Tb400 2.418 . S
O419 C402 1.265 . S
O420 Tb400 2.384 . S
O420 C403 1.255 . S
O421 Eu401 2.366 . S
O421 C403 1.265 . S
C422 O413 1.255 . S
C422 O414 1.265 . S
O423 Tb400 2.479 . S
O423 C410 1.238 . S
O424 Tb400 2.471 . S
O424 C410 1.247 . S
C425 C428 1.380 . S
C425 C429 1.374 . S
C425 C431 1.507 . S
C426 C427 1.387 . S
C426 C430 1.391 . S
C427 C426 1.387 . S
C427 C428 1.384 . S
C427 H436 0.930 . S
C428 C425 1.380 . S
C428 C427 1.384 . S
C428 H437 0.931 . S
C429 C425 1.374 . S
C429 C430 1.390 . S
C429 H438 0.930 . S
C430 C426 1.391 . S
C430 C429 1.390 . S
C430 H439 0.930 . S
C431 Eu401 2.825 . S
C431 O416 1.238 . S
C431 O417 1.247 . S
C431 C425 1.507 . S
H432 C405 0.930 . S
H433 C406 0.931 . S
H434 C407 0.930 . S
H435 C408 0.930 . S
H436 C427 0.930 . S
H437 C428 0.931 . S
H438 C429 0.930 . S
H439 C430 0.930 . S
Tb440 C450 2.825 . S
Tb440 O451 2.347 . S
Tb440 O454 2.366 . S
Tb440 O459 2.418 . S
Tb440 O460 2.384 . S
Tb440 O463 2.479 . S
Tb440 O464 2.471 . S
Eu441 O452 2.418 . S
Eu441 O453 2.384 . S
Eu441 O456 2.479 . S
Eu441 O457 2.471 . S
Eu441 O458 2.347 . S
Eu441 O461 2.366 . S
Eu441 C471 2.825 . S
C442 O458 1.259 . S
C442 O459 1.265 . S
C443 O460 1.255 . S
C443 O461 1.265 . S
C444 C446 1.380 . S
C444 C447 1.374 . S
C444 C450 1.507 . S
C445 C446 1.384 . S
C445 C449 1.387 . S
C445 H472 0.930 . S
C446 C444 1.380 . S
C446 C445 1.384 . S
C446 H473 0.931 . S
C447 C444 1.374 . S
C447 C448 1.390 . S
C447 H474 0.930 . S
C448 C447 1.390 . S
C448 C449 1.391 . S
C448 H475 0.930 . S
C449 C445 1.387 . S
C449 C448 1.391 . S
C450 Tb440 2.825 . S
C450 C444 1.507 . S
C450 O463 1.238 . S
C450 O464 1.247 . S
O451 Tb440 2.347 . S
O451 C455 1.259 . S
O452 Eu441 2.418 . S
O452 C455 1.265 . S
O453 Eu441 2.384 . S
O453 C462 1.255 . S
O454 Tb440 2.366 . S
O454 C462 1.265 . S
C455 O451 1.259 . S
C455 O452 1.265 . S
O456 Eu441 2.479 . S
O456 C471 1.238 . S
O457 Eu441 2.471 . S
O457 C471 1.247 . S
O458 Eu441 2.347 . S
O458 C442 1.259 . S
O459 Tb440 2.418 . S
O459 C442 1.265 . S
O460 Tb440 2.384 . S
O460 C443 1.255 . S
O461 Eu441 2.366 . S
O461 C443 1.265 . S
C462 O453 1.255 . S
C462 O454 1.265 . S
O463 Tb440 2.479 . S
O463 C450 1.238 . S
O464 Tb440 2.471 . S
O464 C450 1.247 . S
C465 C468 1.380 . S
C465 C469 1.374 . S
C465 C471 1.507 . S
C466 C467 1.387 . S
C466 C470 1.391 . S
C467 C466 1.387 . S
C467 C468 1.384 . S
C467 H476 0.930 . S
C468 C465 1.380 . S
C468 C467 1.384 . S
C468 H477 0.931 . S
C469 C465 1.374 . S
C469 C470 1.390 . S
C469 H478 0.930 . S
C470 C466 1.391 . S
C470 C469 1.390 . S
C470 H479 0.930 . S
C471 Eu441 2.825 . S
C471 O456 1.238 . S
C471 O457 1.247 . S
C471 C465 1.507 . S
H472 C445 0.930 . S
H473 C446 0.931 . S
H474 C447 0.930 . S
H475 C448 0.930 . S
H476 C467 0.930 . S
H477 C468 0.931 . S
H478 C469 0.930 . S
H479 C470 0.930 . S
Tb480 C490 2.825 . S
Tb480 O491 2.347 . S
Tb480 O494 2.366 . S
Tb480 O499 2.418 . S
Tb480 O500 2.384 . S
Tb480 O503 2.479 . S
Tb480 O504 2.471 . S
Eu481 O492 2.418 . S
Eu481 O493 2.384 . S
Eu481 O496 2.479 . S
Eu481 O497 2.471 . S
Eu481 O498 2.347 . S
Eu481 O501 2.366 . S
Eu481 C511 2.825 . S
C482 O498 1.259 . S
C482 O499 1.265 . S
C483 O500 1.255 . S
C483 O501 1.265 . S
C484 C486 1.380 . S
C484 C487 1.374 . S
C484 C490 1.507 . S
C485 C486 1.384 . S
C485 C489 1.387 . S
C485 H512 0.930 . S
C486 C484 1.380 . S
C486 C485 1.384 . S
C486 H513 0.931 . S
C487 C484 1.374 . S
C487 C488 1.390 . S
C487 H514 0.930 . S
C488 C487 1.390 . S
C488 C489 1.391 . S
C488 H515 0.930 . S
C489 C485 1.387 . S
C489 C488 1.391 . S
C490 Tb480 2.825 . S
C490 C484 1.507 . S
C490 O503 1.238 . S
C490 O504 1.247 . S
O491 Tb480 2.347 . S
O491 C495 1.259 . S
O492 Eu481 2.418 . S
O492 C495 1.265 . S
O493 Eu481 2.384 . S
O493 C502 1.255 . S
O494 Tb480 2.366 . S
O494 C502 1.265 . S
C495 O491 1.259 . S
C495 O492 1.265 . S
O496 Eu481 2.479 . S
O496 C511 1.238 . S
O497 Eu481 2.471 . S
O497 C511 1.247 . S
O498 Eu481 2.347 . S
O498 C482 1.259 . S
O499 Tb480 2.418 . S
O499 C482 1.265 . S
O500 Tb480 2.384 . S
O500 C483 1.255 . S
O501 Eu481 2.366 . S
O501 C483 1.265 . S
C502 O493 1.255 . S
C502 O494 1.265 . S
O503 Tb480 2.479 . S
O503 C490 1.238 . S
O504 Tb480 2.471 . S
O504 C490 1.247 . S
C505 C508 1.380 . S
C505 C509 1.374 . S
C505 C511 1.507 . S
C506 C507 1.387 . S
C506 C510 1.391 . S
C507 C506 1.387 . S
C507 C508 1.384 . S
C507 H516 0.930 . S
C508 C505 1.380 . S
C508 C507 1.384 . S
C508 H517 0.931 . S
C509 C505 1.374 . S
C509 C510 1.390 . S
C509 H518 0.930 . S
C510 C506 1.391 . S
C510 C509 1.390 . S
C510 H519 0.930 . S
C511 Eu481 2.825 . S
C511 O496 1.238 . S
C511 O497 1.247 . S
C511 C505 1.507 . S
H512 C485 0.930 . S
H513 C486 0.931 . S
H514 C487 0.930 . S
H515 C488 0.930 . S
H516 C507 0.930 . S
H517 C508 0.931 . S
H518 C509 0.930 . S
H519 C510 0.930 . S
Tb520 C530 2.825 . S
Tb520 O531 2.347 . S
Tb520 O534 2.366 . S
Tb520 O539 2.418 . S
Tb520 O540 2.384 . S
Tb520 O543 2.479 . S
Tb520 O544 2.471 . S
Eu521 O532 2.418 . S
Eu521 O533 2.384 . S
Eu521 O536 2.479 . S
Eu521 O537 2.471 . S
Eu521 O538 2.347 . S
Eu521 O541 2.366 . S
Eu521 C551 2.825 . S
C522 O538 1.259 . S
C522 O539 1.265 . S
C523 O540 1.255 . S
C523 O541 1.265 . S
C524 C526 1.380 . S
C524 C527 1.374 . S
C524 C530 1.507 . S
C525 C526 1.384 . S
C525 C529 1.387 . S
C525 H552 0.930 . S
C526 C524 1.380 . S
C526 C525 1.384 . S
C526 H553 0.931 . S
C527 C524 1.374 . S
C527 C528 1.390 . S
C527 H554 0.930 . S
C528 C527 1.390 . S
C528 C529 1.391 . S
C528 H555 0.930 . S
C529 C525 1.387 . S
C529 C528 1.391 . S
C530 Tb520 2.825 . S
C530 C524 1.507 . S
C530 O543 1.238 . S
C530 O544 1.247 . S
O531 Tb520 2.347 . S
O531 C535 1.259 . S
O532 Eu521 2.418 . S
O532 C535 1.265 . S
O533 Eu521 2.384 . S
O533 C542 1.255 . S
O534 Tb520 2.366 . S
O534 C542 1.265 . S
C535 O531 1.259 . S
C535 O532 1.265 . S
O536 Eu521 2.479 . S
O536 C551 1.238 . S
O537 Eu521 2.471 . S
O537 C551 1.247 . S
O538 Eu521 2.347 . S
O538 C522 1.259 . S
O539 Tb520 2.418 . S
O539 C522 1.265 . S
O540 Tb520 2.384 . S
O540 C523 1.255 . S
O541 Eu521 2.366 . S
O541 C523 1.265 . S
C542 O533 1.255 . S
C542 O534 1.265 . S
O543 Tb520 2.479 . S
O543 C530 1.238 . S
O544 Tb520 2.471 . S
O544 C530 1.247 . S
C545 C548 1.380 . S
C545 C549 1.374 . S
C545 C551 1.507 . S
C546 C547 1.387 . S
C546 C550 1.391 . S
C547 C546 1.387 . S
C547 C548 1.384 . S
C547 H556 0.930 . S
C548 C545 1.380 . S
C548 C547 1.384 . S
C548 H557 0.931 . S
C549 C545 1.374 . S
C549 C550 1.390 . S
C549 H558 0.930 . S
C550 C546 1.391 . S
C550 C549 1.390 . S
C550 H559 0.930 . S
C551 Eu521 2.825 . S
C551 O536 1.238 . S
C551 O537 1.247 . S
C551 C545 1.507 . S
H552 C525 0.930 . S
H553 C526 0.931 . S
H554 C527 0.930 . S
H555 C528 0.930 . S
H556 C547 0.930 . S
H557 C548 0.931 . S
H558 C549 0.930 . S
H559 C550 0.930 . S
Tb560 C570 2.825 . S
Tb560 O571 2.347 . S
Tb560 O574 2.366 . S
Tb560 O579 2.418 . S
Tb560 O580 2.384 . S
Tb560 O583 2.479 . S
Tb560 O584 2.471 . S
Eu561 O572 2.418 . S
Eu561 O573 2.384 . S
Eu561 O576 2.479 . S
Eu561 O577 2.471 . S
Eu561 O578 2.347 . S
Eu561 O581 2.366 . S
Eu561 C591 2.825 . S
C562 O578 1.259 . S
C562 O579 1.265 . S
C563 O580 1.255 . S
C563 O581 1.265 . S
C564 C566 1.380 . S
C564 C567 1.374 . S
C564 C570 1.507 . S
C565 C566 1.384 . S
C565 C569 1.387 . S
C565 H592 0.930 . S
C566 C564 1.380 . S
C566 C565 1.384 . S
C566 H593 0.931 . S
C567 C564 1.374 . S
C567 C568 1.390 . S
C567 H594 0.930 . S
C568 C567 1.390 . S
C568 C569 1.391 . S
C568 H595 0.930 . S
C569 C565 1.387 . S
C569 C568 1.391 . S
C570 Tb560 2.825 . S
C570 C564 1.507 . S
C570 O583 1.238 . S
C570 O584 1.247 . S
O571 Tb560 2.347 . S
O571 C575 1.259 . S
O572 Eu561 2.418 . S
O572 C575 1.265 . S
O573 Eu561 2.384 . S
O573 C582 1.255 . S
O574 Tb560 2.366 . S
O574 C582 1.265 . S
C575 O571 1.259 . S
C575 O572 1.265 . S
O576 Eu561 2.479 . S
O576 C591 1.238 . S
O577 Eu561 2.471 . S
O577 C591 1.247 . S
O578 Eu561 2.347 . S
O578 C562 1.259 . S
O579 Tb560 2.418 . S
O579 C562 1.265 . S
O580 Tb560 2.384 . S
O580 C563 1.255 . S
O581 Eu561 2.366 . S
O581 C563 1.265 . S
C582 O573 1.255 . S
C582 O574 1.265 . S
O583 Tb560 2.479 . S
O583 C570 1.238 . S
O584 Tb560 2.471 . S
O584 C570 1.247 . S
C585 C588 1.380 . S
C585 C589 1.374 . S
C585 C591 1.507 . S
C586 C587 1.387 . S
C586 C590 1.391 . S
C587 C586 1.387 . S
C587 C588 1.384 . S
C587 H596 0.930 . S
C588 C585 1.380 . S
C588 C587 1.384 . S
C588 H597 0.931 . S
C589 C585 1.374 . S
C589 C590 1.390 . S
C589 H598 0.930 . S
C590 C586 1.391 . S
C590 C589 1.390 . S
C590 H599 0.930 . S
C591 Eu561 2.825 . S
C591 O576 1.238 . S
C591 O577 1.247 . S
C591 C585 1.507 . S
H592 C565 0.930 . S
H593 C566 0.931 . S
H594 C567 0.930 . S
H595 C568 0.930 . S
H596 C587 0.930 . S
H597 C588 0.931 . S
H598 C589 0.930 . S
H599 C590 0.930 . S
Tb600 C610 2.825 . S
Tb600 O611 2.347 . S
Tb600 O614 2.366 . S
Tb600 O619 2.418 . S
Tb600 O620 2.384 . S
Tb600 O623 2.479 . S
Tb600 O624 2.471 . S
Eu601 O612 2.418 . S
Eu601 O613 2.384 . S
Eu601 O616 2.479 . S
Eu601 O617 2.471 . S
Eu601 O618 2.347 . S
Eu601 O621 2.366 . S
Eu601 C631 2.825 . S
C602 O618 1.259 . S
C602 O619 1.265 . S
C603 O620 1.255 . S
C603 O621 1.265 . S
C604 C606 1.380 . S
C604 C607 1.374 . S
C604 C610 1.507 . S
C605 C606 1.384 . S
C605 C609 1.387 . S
C605 H632 0.930 . S
C606 C604 1.380 . S
C606 C605 1.384 . S
C606 H633 0.931 . S
C607 C604 1.374 . S
C607 C608 1.390 . S
C607 H634 0.930 . S
C608 C607 1.390 . S
C608 C609 1.391 . S
C608 H635 0.930 . S
C609 C605 1.387 . S
C609 C608 1.391 . S
C610 Tb600 2.825 . S
C610 C604 1.507 . S
C610 O623 1.238 . S
C610 O624 1.247 . S
O611 Tb600 2.347 . S
O611 C615 1.259 . S
O612 Eu601 2.418 . S
O612 C615 1.265 . S
O613 Eu601 2.384 . S
O613 C622 1.255 . S
O614 Tb600 2.366 . S
O614 C622 1.265 . S
C615 O611 1.259 . S
C615 O612 1.265 . S
O616 Eu601 2.479 . S
O616 C631 1.238 . S
O617 Eu601 2.471 . S
O617 C631 1.247 . S
O618 Eu601 2.347 . S
O618 C602 1.259 . S
O619 Tb600 2.418 . S
O619 C602 1.265 . S
O620 Tb600 2.384 . S
O620 C603 1.255 . S
O621 Eu601 2.366 . S
O621 C603 1.265 . S
C622 O613 1.255 . S
C622 O614 1.265 . S
O623 Tb600 2.479 . S
O623 C610 1.238 . S
O624 Tb600 2.471 . S
O624 C610 1.247 . S
C625 C628 1.380 . S
C625 C629 1.374 . S
C625 C631 1.507 . S
C626 C627 1.387 . S
C626 C630 1.391 . S
C627 C626 1.387 . S
C627 C628 1.384 . S
C627 H636 0.930 . S
C628 C625 1.380 . S
C628 C627 1.384 . S
C628 H637 0.931 . S
C629 C625 1.374 . S
C629 C630 1.390 . S
C629 H638 0.930 . S
C630 C626 1.391 . S
C630 C629 1.390 . S
C630 H639 0.930 . S
C631 Eu601 2.825 . S
C631 O616 1.238 . S
C631 O617 1.247 . S
C631 C625 1.507 . S
H632 C605 0.930 . S
H633 C606 0.931 . S
H634 C607 0.930 . S
H635 C608 0.930 . S
H636 C627 0.930 . S
H637 C628 0.931 . S
H638 C629 0.930 . S
H639 C630 0.930 . S
H640 C646 0.930 . S
H641 C649 0.930 . S
H642 C650 0.930 . S
H643 C651 0.930 . S
H644 C654 0.930 . S
H645 C655 0.930 . S
C646 H640 0.930 . S
C646 C647 1.355 . S
C646 C648 1.415 . S
C647 C646 1.355 . S
C647 C649 1.419 . S
C648 C646 1.415 . S
C648 C653 1.425 . S
C648 C655 1.409 . S
C649 H641 0.930 . S
C649 C647 1.419 . S
C649 C650 1.362 . S
C650 H642 0.930 . S
C650 C649 1.362 . S
C650 C653 1.409 . S
C651 H643 0.930 . S
C651 C652 1.355 . S
C651 C653 1.415 1_545 S
C652 C651 1.355 . S
C652 C654 1.419 1_545 S
C653 C648 1.425 . S
C653 C650 1.409 . S
C653 C651 1.415 1_565 S
C654 H644 0.930 . S
C654 C652 1.419 1_565 S
C654 C655 1.362 . S
C655 H645 0.930 . S
C655 C648 1.409 . S
C655 C654 1.362 . S
H656 C662 0.930 . S
H657 C665 0.930 . S
H658 C666 0.930 . S
H659 C667 0.930 . S
H660 C670 0.930 1_455 S
H661 C671 0.930 . S
C662 H656 0.930 . S
C662 C663 1.355 . S
C662 C664 1.415 . S
C663 C662 1.355 . S
C663 C665 1.419 . S
C664 C662 1.415 . S
C664 C669 1.425 . S
C664 C671 1.409 . S
C665 H657 0.930 . S
C665 C663 1.419 . S
C665 C666 1.362 . S
C666 H658 0.930 . S
C666 C665 1.362 . S
C666 C669 1.409 . S
C667 H659 0.930 . S
C667 C668 1.355 . S
C667 C669 1.415 1_455 S
C668 C667 1.355 . S
C668 C670 1.419 1_455 S
C669 C664 1.425 . S
C669 C666 1.409 . S
C669 C667 1.415 1_655 S
C670 H660 0.930 1_655 S
C670 C668 1.419 1_655 S
C670 C671 1.362 . S
C671 H661 0.930 . S
C671 C664 1.409 . S
C671 C670 1.362 . S
H672 C678 0.930 . S
H673 C681 0.930 . S
H674 C682 0.930 . S
H675 C683 0.930 . S
H676 C686 0.930 . S
H677 C687 0.930 . S
C678 H672 0.930 . S
C678 C679 1.355 . S
C678 C680 1.415 1_565 S
C679 C678 1.355 . S
C679 C681 1.419 . S
C680 C678 1.415 1_545 S
C680 C685 1.425 . S
C680 C687 1.409 . S
C681 H673 0.930 . S
C681 C679 1.419 . S
C681 C682 1.362 1_565 S
C682 H674 0.930 . S
C682 C681 1.362 1_545 S
C682 C685 1.409 . S
C683 H675 0.930 . S
C683 C684 1.355 . S
C683 C685 1.415 . S
C684 C683 1.355 . S
C684 C686 1.419 . S
C685 C680 1.425 . S
C685 C682 1.409 . S
C685 C683 1.415 . S
C686 H676 0.930 . S
C686 C684 1.419 . S
C686 C687 1.362 . S
C687 H677 0.930 . S
C687 C680 1.409 . S
C687 C686 1.362 . S
H688 C694 0.930 . S
H689 C697 0.930 . S
H690 C698 0.930 . S
H691 C699 0.930 . S
H692 C702 0.930 . S
H693 C703 0.930 . S
C694 H688 0.930 . S
C694 C695 1.355 . S
C694 C696 1.415 1_655 S
C695 C694 1.355 . S
C695 C697 1.419 1_655 S
C696 C694 1.415 1_455 S
C696 C701 1.425 . S
C696 C703 1.409 . S
C697 H689 0.930 . S
C697 C695 1.419 1_455 S
C697 C698 1.362 . S
C698 H690 0.930 . S
C698 C697 1.362 . S
C698 C701 1.409 . S
C699 H691 0.930 . S
C699 C700 1.355 . S
C699 C701 1.415 . S
C700 C699 1.355 . S
C700 C702 1.419 . S
C701 C696 1.425 . S
C701 C698 1.409 . S
C701 C699 1.415 . S
C702 H692 0.930 . S
C702 C700 1.419 . S
C702 C703 1.362 . S
C703 H693 0.930 . S
C703 C696 1.409 . S
C703 C702 1.362 . S
H704 C710 0.930 . S
H705 C713 0.930 . S
H706 C714 0.930 . S
H707 C715 0.930 . S
H708 C718 0.930 . S
H709 C719 0.930 . S
C710 H704 0.930 . S
C710 C711 1.355 . S
C710 C712 1.415 . S
C711 C710 1.355 . S
C711 C713 1.419 . S
C712 C710 1.415 . S
C712 C717 1.425 . S
C712 C719 1.409 . S
C713 H705 0.930 . S
C713 C711 1.419 . S
C713 C714 1.362 . S
C714 H706 0.930 . S
C714 C713 1.362 . S
C714 C717 1.409 . S
C715 H707 0.930 . S
C715 C716 1.355 . S
C715 C717 1.415 1_556 S
C716 C715 1.355 . S
C716 C718 1.419 . S
C717 C712 1.425 . S
C717 C714 1.409 . S
C717 C715 1.415 1_554 S
C718 H708 0.930 . S
C718 C716 1.419 . S
C718 C719 1.362 1_556 S
C719 H709 0.930 . S
C719 C712 1.409 . S
C719 C718 1.362 1_554 S
H720 C726 0.930 . S
H721 C729 0.930 . S
H722 C730 0.930 . S
H723 C731 0.930 . S
H724 C734 0.930 . S
H725 C735 0.930 . S
C726 H720 0.930 . S
C726 C727 1.355 . S
C726 C728 1.415 1_554 S
C727 C726 1.355 . S
C727 C729 1.419 1_554 S
C728 C726 1.415 1_556 S
C728 C733 1.425 . S
C728 C735 1.409 1_556 S
C729 H721 0.930 . S
C729 C727 1.419 1_556 S
C729 C730 1.362 . S
C730 H722 0.930 . S
C730 C729 1.362 . S
C730 C733 1.409 . S
C731 H723 0.930 . S
C731 C732 1.355 . S
C731 C733 1.415 . S
C732 C731 1.355 . S
C732 C734 1.419 . S
C733 C728 1.425 . S
C733 C730 1.409 . S
C733 C731 1.415 . S
C734 H724 0.930 . S
C734 C732 1.419 . S
C734 C735 1.362 1_556 S
C735 H725 0.930 . S
C735 C728 1.409 1_554 S
C735 C734 1.362 1_554 S
H736 C742 0.930 . S
H737 C745 0.930 . S
H738 C746 0.930 . S
H739 C747 0.930 . S
H740 C750 0.930 1_556 S
H741 C751 0.930 . S
C742 H736 0.930 . S
C742 C743 1.355 . S
C742 C744 1.415 . S
C743 C742 1.355 . S
C743 C745 1.419 . S
C744 C742 1.415 . S
C744 C749 1.425 . S
C744 C751 1.409 . S
C745 H737 0.930 . S
C745 C743 1.419 . S
C745 C746 1.362 . S
C746 H738 0.930 . S
C746 C745 1.362 . S
C746 C749 1.409 . S
C747 H739 0.930 . S
C747 C748 1.355 . S
C747 C749 1.415 1_556 S
C748 C747 1.355 . S
C748 C750 1.419 1_556 S
C749 C744 1.425 . S
C749 C746 1.409 . S
C749 C747 1.415 1_554 S
C750 H740 0.930 1_554 S
C750 C748 1.419 1_554 S
C750 C751 1.362 . S
C751 H741 0.930 . S
C751 C744 1.409 . S
C751 C750 1.362 . S
H752 C758 0.930 . S
H753 C761 0.928 1_554 S
H754 C762 0.930 . S
H755 C763 0.930 . S
H756 C766 0.930 . S
H757 C767 0.930 . S
C758 H752 0.930 . S
C758 C759 1.355 . S
C758 C760 1.415 1_554 S
C759 C758 1.355 . S
C759 C761 1.417 1_554 S
C760 C758 1.415 1_556 S
C760 C765 1.425 . S
C760 C767 1.409 . S
C761 H753 0.928 1_556 S
C761 C759 1.417 1_556 S
C761 C762 1.366 . S
C762 H754 0.930 . S
C762 C761 1.366 . S
C762 C765 1.409 . S
C763 H755 0.930 . S
C763 C764 1.355 . S
C763 C765 1.415 . S
C764 C763 1.355 . S
C764 C766 1.419 . S
C765 C760 1.425 . S
C765 C762 1.409 . S
C765 C763 1.415 . S
C766 H756 0.930 . S
C766 C764 1.419 . S
C766 C767 1.362 . S
C767 H757 0.930 . S
C767 C760 1.409 . S
C767 C766 1.362 . S
H768 C774 0.930 . S
H769 C777 0.930 . S
H770 C778 0.930 . S
H771 C779 0.930 . S
H772 C782 0.930 . S
H773 C783 0.930 . S
C774 H768 0.930 . S
C774 C775 1.355 . S
C774 C776 1.415 . S
C775 C774 1.355 . S
C775 C777 1.419 . S
C776 C774 1.415 . S
C776 C781 1.425 . S
C776 C783 1.409 . S
C777 H769 0.930 . S
C777 C775 1.419 . S
C777 C778 1.362 . S
C778 H770 0.930 . S
C778 C777 1.362 . S
C778 C781 1.409 . S
C779 H771 0.930 . S
C779 C780 1.355 . S
C779 C781 1.415 . S
C780 C779 1.355 . S
C780 C782 1.419 . S
C781 C776 1.425 . S
C781 C778 1.409 . S
C781 C779 1.415 . S
C782 H772 0.930 . S
C782 C780 1.419 . S
C782 C783 1.362 . S
C783 H773 0.930 . S
C783 C776 1.409 . S
C783 C782 1.362 . S
H784 C790 0.930 . S
H785 C793 0.930 . S
H786 C794 0.930 . S
H787 C795 0.930 . S
H788 C798 0.930 . S
H789 C799 0.930 . S
C790 H784 0.930 . S
C790 C791 1.355 . S
C790 C792 1.415 . S
C791 C790 1.355 . S
C791 C793 1.419 . S
C792 C790 1.415 . S
C792 C797 1.425 . S
C792 C799 1.409 . S
C793 H785 0.930 . S
C793 C791 1.419 . S
C793 C794 1.362 . S
C794 H786 0.930 . S
C794 C793 1.362 . S
C794 C797 1.409 . S
C795 H787 0.930 . S
C795 C796 1.355 . S
C795 C797 1.415 . S
C796 C795 1.355 . S
C796 C798 1.419 . S
C797 C792 1.425 . S
C797 C794 1.409 . S
C797 C795 1.415 . S
C798 H788 0.930 . S
C798 C796 1.419 . S
C798 C799 1.362 . S
C799 H789 0.930 . S
C799 C792 1.409 . S
C799 C798 1.362 . S
H800 C806 0.930 . S
H801 C809 0.930 . S
H802 C810 0.930 . S
H803 C811 0.930 . S
H804 C814 0.930 . S
H805 C815 0.930 . S
C806 H800 0.930 . S
C806 C807 1.355 . S
C806 C808 1.415 . S
C807 C806 1.355 . S
C807 C809 1.419 . S
C808 C806 1.415 . S
C808 C813 1.425 . S
C808 C815 1.409 . S
C809 H801 0.930 . S
C809 C807 1.419 . S
C809 C810 1.362 . S
C810 H802 0.930 . S
C810 C809 1.362 . S
C810 C813 1.409 . S
C811 H803 0.930 . S
C811 C812 1.355 . S
C811 C813 1.415 . S
C812 C811 1.355 . S
C812 C814 1.419 . S
C813 C808 1.425 . S
C813 C810 1.409 . S
C813 C811 1.415 . S
C814 H804 0.930 . S
C814 C812 1.419 . S
C814 C815 1.362 . S
C815 H805 0.930 . S
C815 C808 1.409 . S
C815 C814 1.362 . S
H816 C822 0.930 . S
H817 C825 0.930 . S
H818 C826 0.930 . S
H819 C827 0.930 . S
H820 C830 0.930 . S
H821 C831 0.930 . S
C822 H816 0.930 . S
C822 C823 1.355 . S
C822 C824 1.415 . S
C823 C822 1.355 . S
C823 C825 1.419 . S
C824 C822 1.415 . S
C824 C829 1.425 . S
C824 C831 1.409 . S
C825 H817 0.930 . S
C825 C823 1.419 . S
C825 C826 1.362 . S
C826 H818 0.930 . S
C826 C825 1.362 . S
C826 C829 1.409 . S
C827 H819 0.930 . S
C827 C828 1.355 . S
C827 C829 1.415 . S
C828 C827 1.355 . S
C828 C830 1.419 . S
C829 C824 1.425 . S
C829 C826 1.409 . S
C829 C827 1.415 . S
C830 H820 0.930 . S
C830 C828 1.419 . S
C830 C831 1.362 . S
C831 H821 0.930 . S
C831 C824 1.409 . S
C831 C830 1.362 . S
H832 C838 0.930 . S
H833 C841 0.930 1_565 S
H834 C842 0.930 . S
H835 C843 0.930 . S
H836 C846 0.930 . S
H837 C847 0.930 . S
C838 H832 0.930 . S
C838 C839 1.355 . S
C838 C840 1.415 1_565 S
C839 C838 1.355 . S
C839 C841 1.419 1_565 S
C840 C838 1.415 1_545 S
C840 C845 1.425 . S
C840 C847 1.409 . S
C841 H833 0.930 1_545 S
C841 C839 1.419 1_545 S
C841 C842 1.362 . S
C842 H834 0.930 . S
C842 C841 1.362 . S
C842 C845 1.409 . S
C843 H835 0.930 . S
C843 C844 1.355 . S
C843 C845 1.415 . S
C844 C843 1.355 . S
C844 C846 1.419 . S
C845 C840 1.425 . S
C845 C842 1.409 . S
C845 C843 1.415 . S
C846 H836 0.930 . S
C846 C844 1.419 . S
C846 C847 1.362 . S
C847 H837 0.930 . S
C847 C840 1.409 . S
C847 C846 1.362 . S
H848 C854 0.930 . S
H849 C857 0.930 . S
H850 C858 0.930 . S
H851 C859 0.930 . S
H852 C862 0.930 . S
H853 C863 0.930 . S
C854 H848 0.930 . S
C854 C855 1.355 . S
C854 C856 1.415 . S
C855 C854 1.355 . S
C855 C857 1.419 . S
C856 C854 1.415 . S
C856 C861 1.425 . S
C856 C863 1.409 . S
C857 H849 0.930 . S
C857 C855 1.419 . S
C857 C858 1.362 . S
C858 H850 0.930 . S
C858 C857 1.362 . S
C858 C861 1.409 . S
C859 H851 0.930 . S
C859 C860 1.355 1_455 S
C859 C861 1.415 . S
C860 C859 1.355 1_655 S
C860 C862 1.419 . S
C861 C856 1.425 . S
C861 C858 1.409 . S
C861 C859 1.415 . S
C862 H852 0.930 . S
C862 C860 1.419 . S
C862 C863 1.362 1_655 S
C863 H853 0.930 . S
C863 C856 1.409 . S
C863 C862 1.362 1_455 S
H864 C870 0.930 . S
H865 C873 0.930 . S
H866 C874 0.930 . S
H867 C875 0.930 . S
H868 C878 0.930 . S
H869 C879 0.930 . S
C870 H864 0.930 . S
C870 C871 1.355 . S
C870 C872 1.415 . S
C871 C870 1.355 . S
C871 C873 1.419 . S
C872 C870 1.415 . S
C872 C877 1.425 . S
C872 C879 1.409 . S
C873 H865 0.930 . S
C873 C871 1.419 . S
C873 C874 1.362 . S
C874 H866 0.930 . S
C874 C873 1.362 . S
C874 C877 1.409 . S
C875 H867 0.930 . S
C875 C876 1.355 . S
C875 C877 1.415 1_545 S
C876 C875 1.355 . S
C876 C878 1.419 . S
C877 C872 1.425 . S
C877 C874 1.409 . S
C877 C875 1.415 1_565 S
C878 H868 0.930 . S
C878 C876 1.419 . S
C878 C879 1.362 1_545 S
C879 H869 0.930 . S
C879 C872 1.409 . S
C879 C878 1.362 1_565 S
H880 C886 0.930 . S
H881 C889 0.930 . S
H882 C890 0.930 . S
H883 C891 0.930 . S
H884 C894 0.930 . S
H885 C895 0.930 . S
C886 H880 0.930 . S
C886 C887 1.355 1_655 S
C886 C888 1.415 . S
C887 C886 1.355 1_455 S
C887 C889 1.419 . S
C888 C886 1.415 . S
C888 C893 1.425 . S
C888 C895 1.409 . S
C889 H881 0.930 . S
C889 C887 1.419 . S
C889 C890 1.362 . S
C890 H882 0.930 . S
C890 C889 1.362 . S
C890 C893 1.409 1_455 S
C891 H883 0.930 . S
C891 C892 1.355 . S
C891 C893 1.415 . S
C892 C891 1.355 . S
C892 C894 1.419 . S
C893 C888 1.425 . S
C893 C890 1.409 1_655 S
C893 C891 1.415 . S
C894 H884 0.930 . S
C894 C892 1.419 . S
C894 C895 1.362 . S
C895 H885 0.930 . S
C895 C888 1.409 . S
C895 C894 1.362 . S
H896 C902 0.930 . S
H897 C905 0.930 . S
H898 C906 0.930 . S
H899 C907 0.930 . S
H900 C910 0.930 . S
H901 C911 0.930 . S
C902 H896 0.930 . S
C902 C903 1.355 . S
C902 C904 1.415 . S
C903 C902 1.355 . S
C903 C905 1.419 . S
C904 C902 1.415 . S
C904 C909 1.425 . S
C904 C911 1.409 . S
C905 H897 0.930 . S
C905 C903 1.419 . S
C905 C906 1.362 . S
C906 H898 0.930 . S
C906 C905 1.362 . S
C906 C909 1.409 . S
C907 H899 0.930 . S
C907 C908 1.355 . S
C907 C909 1.415 . S
C908 C907 1.355 . S
C908 C910 1.419 . S
C909 C904 1.425 . S
C909 C906 1.409 . S
C909 C907 1.415 . S
C910 H900 0.930 . S
C910 C908 1.419 . S
C910 C911 1.362 . S
C911 H901 0.930 . S
C911 C904 1.409 . S
C911 C910 1.362 . S
H912 C918 0.930 . S
H913 C921 0.930 . S
H914 C922 0.930 . S
H915 C923 0.930 . S
H916 C926 0.930 . S
H917 C927 0.930 . S
C918 H912 0.930 . S
C918 C919 1.355 . S
C918 C920 1.415 . S
C919 C918 1.355 . S
C919 C921 1.419 . S
C920 C918 1.415 . S
C920 C925 1.425 . S
C920 C927 1.409 . S
C921 H913 0.930 . S
C921 C919 1.419 . S
C921 C922 1.362 . S
C922 H914 0.930 . S
C922 C921 1.362 . S
C922 C925 1.409 . S
C923 H915 0.930 . S
C923 C924 1.355 . S
C923 C925 1.415 . S
C924 C923 1.355 . S
C924 C926 1.419 . S
C925 C920 1.425 . S
C925 C922 1.409 . S
C925 C923 1.415 . S
C926 H916 0.930 . S
C926 C924 1.419 . S
C926 C927 1.362 . S
C927 H917 0.930 . S
C927 C920 1.409 . S
C927 C926 1.362 . S
H928 C934 0.930 . S
H929 C937 0.930 . S
H930 C938 0.930 . S
H931 C939 0.930 . S
H932 C942 0.930 . S
H933 C943 0.930 . S
C934 H928 0.930 . S
C934 C935 1.355 . S
C934 C936 1.415 . S
C935 C934 1.355 . S
C935 C937 1.419 . S
C936 C934 1.415 . S
C936 C941 1.425 . S
C936 C943 1.409 . S
C937 H929 0.930 . S
C937 C935 1.419 . S
C937 C938 1.362 . S
C938 H930 0.930 . S
C938 C937 1.362 . S
C938 C941 1.409 . S
C939 H931 0.930 . S
C939 C940 1.355 . S
C939 C941 1.415 . S
C940 C939 1.355 . S
C940 C942 1.419 . S
C941 C936 1.425 . S
C941 C938 1.409 . S
C941 C939 1.415 . S
C942 H932 0.930 . S
C942 C940 1.419 . S
C942 C943 1.362 . S
C943 H933 0.930 . S
C943 C936 1.409 . S
C943 C942 1.362 . S
H944 C950 0.930 . S
H945 C953 0.930 . S
H946 C954 0.930 . S
H947 C955 0.930 . S
H948 C958 0.930 . S
H949 C959 0.930 . S
C950 H944 0.930 . S
C950 C951 1.355 . S
C950 C952 1.415 . S
C951 C950 1.355 . S
C951 C953 1.419 . S
C952 C950 1.415 . S
C952 C957 1.425 . S
C952 C959 1.409 . S
C953 H945 0.930 . S
C953 C951 1.419 . S
C953 C954 1.362 . S
C954 H946 0.930 . S
C954 C953 1.362 . S
C954 C957 1.409 . S
C955 H947 0.930 . S
C955 C956 1.355 . S
C955 C957 1.415 . S
C956 C955 1.355 . S
C956 C958 1.419 . S
C957 C952 1.425 . S
C957 C954 1.409 . S
C957 C955 1.415 . S
C958 H948 0.930 . S
C958 C956 1.419 . S
C958 C959 1.362 . S
C959 H949 0.930 . S
C959 C952 1.409 . S
C959 C958 1.362 . S
H960 C966 0.930 . S
H961 C969 0.930 . S
H962 C970 0.930 . S
H963 C971 0.930 . S
H964 C974 0.930 . S
H965 C975 0.930 . S
C966 H960 0.930 . S
C966 C967 1.355 . S
C966 C968 1.415 . S
C967 C966 1.355 . S
C967 C969 1.419 . S
C968 C966 1.415 . S
C968 C973 1.425 . S
C968 C975 1.409 . S
C969 H961 0.930 . S
C969 C967 1.419 . S
C969 C970 1.362 . S
C970 H962 0.930 . S
C970 C969 1.362 . S
C970 C973 1.409 . S
C971 H963 0.930 . S
C971 C972 1.355 . S
C971 C973 1.415 . S
C972 C971 1.355 . S
C972 C974 1.419 . S
C973 C968 1.425 . S
C973 C970 1.409 . S
C973 C971 1.415 . S
C974 H964 0.930 . S
C974 C972 1.419 . S
C974 C975 1.362 . S
C975 H965 0.930 . S
C975 C968 1.409 . S
C975 C974 1.362 . S
H976 C982 0.930 . S
H977 C985 0.930 . S
H978 C986 0.930 . S
H979 C987 0.930 . S
H980 C990 0.930 . S
H981 C991 0.930 . S
C982 H976 0.930 . S
C982 C983 1.355 . S
C982 C984 1.415 . S
C983 C982 1.355 . S
C983 C985 1.419 . S
C984 C982 1.415 . S
C984 C989 1.425 . S
C984 C991 1.409 . S
C985 H977 0.930 . S
C985 C983 1.419 . S
C985 C986 1.362 . S
C986 H978 0.930 . S
C986 C985 1.362 . S
C986 C989 1.409 . S
C987 H979 0.930 . S
C987 C988 1.355 . S
C987 C989 1.415 . S
C988 C987 1.355 . S
C988 C990 1.419 . S
C989 C984 1.425 . S
C989 C986 1.409 . S
C989 C987 1.415 . S
C990 H980 0.930 . S
C990 C988 1.419 . S
C990 C991 1.362 . S
C991 H981 0.930 . S
C991 C984 1.409 . S
C991 C990 1.362 . S
H992 C998 0.930 . S
H993 C1001 0.930 . S
H994 C1002 0.930 . S
H995 C1003 0.930 . S
H996 C1006 0.930 . S
H997 C1007 0.930 . S
C998 H992 0.930 . S
C998 C999 1.355 . S
C998 C1000 1.415 . S
C999 C998 1.355 . S
C999 C1001 1.419 . S
C1000 C998 1.415 . S
C1000 C1005 1.425 . S
C1000 C1007 1.409 . S
C1001 H993 0.930 . S
C1001 C999 1.419 . S
C1001 C1002 1.362 . S
C1002 H994 0.930 . S
C1002 C1001 1.362 . S
C1002 C1005 1.409 . S
C1003 H995 0.930 . S
C1003 C1004 1.355 . S
C1003 C1005 1.415 . S
C1004 C1003 1.355 . S
C1004 C1006 1.419 . S
C1005 C1000 1.425 . S
C1005 C1002 1.409 . S
C1005 C1003 1.415 . S
C1006 H996 0.930 . S
C1006 C1004 1.419 . S
C1006 C1007 1.362 . S
C1007 H997 0.930 . S
C1007 C1000 1.409 . S
C1007 C1006 1.362 . S
H1008 C1014 0.930 . S
H1009 C1017 0.930 . S
H1010 C1018 0.930 . S
H1011 C1019 0.930 . S
H1012 C1022 0.930 . S
H1013 C1023 0.930 . S
C1014 H1008 0.930 . S
C1014 C1015 1.355 . S
C1014 C1016 1.415 . S
C1015 C1014 1.355 . S
C1015 C1017 1.419 . S
C1016 C1014 1.415 . S
C1016 C1021 1.425 . S
C1016 C1023 1.409 . S
C1017 H1009 0.930 . S
C1017 C1015 1.419 . S
C1017 C1018 1.362 . S
C1018 H1010 0.930 . S
C1018 C1017 1.362 . S
C1018 C1021 1.409 . S
C1019 H1011 0.930 . S
C1019 C1020 1.355 . S
C1019 C1021 1.415 . S
C1020 C1019 1.355 . S
C1020 C1022 1.419 . S
C1021 C1016 1.425 . S
C1021 C1018 1.409 . S
C1021 C1019 1.415 . S
C1022 H1012 0.930 . S
C1022 C1020 1.419 . S
C1022 C1023 1.362 . S
C1023 H1013 0.930 . S
C1023 C1016 1.409 . S
C1023 C1022 1.362 . S
H1024 C1030 0.930 . S
H1025 C1033 0.930 . S
H1026 C1034 0.930 . S
H1027 C1035 0.930 . S
H1028 C1038 0.930 . S
H1029 C1039 0.930 . S
C1030 H1024 0.930 . S
C1030 C1031 1.355 . S
C1030 C1032 1.415 . S
C1031 C1030 1.355 . S
C1031 C1033 1.419 . S
C1032 C1030 1.415 . S
C1032 C1037 1.425 . S
C1032 C1039 1.409 . S
C1033 H1025 0.930 . S
C1033 C1031 1.419 . S
C1033 C1034 1.362 . S
C1034 H1026 0.930 . S
C1034 C1033 1.362 . S
C1034 C1037 1.409 . S
C1035 H1027 0.930 . S
C1035 C1036 1.355 . S
C1035 C1037 1.415 . S
C1036 C1035 1.355 . S
C1036 C1038 1.419 . S
C1037 C1032 1.425 . S
C1037 C1034 1.409 . S
C1037 C1035 1.415 . S
C1038 H1028 0.930 . S
C1038 C1036 1.419 . S
C1038 C1039 1.362 . S
C1039 H1029 0.930 . S
C1039 C1032 1.409 . S
C1039 C1038 1.362 . S
H1040 C1046 0.930 . S
H1041 C1049 0.930 . S
H1042 C1050 0.930 . S
H1043 C1051 0.930 . S
H1044 C1054 0.930 . S
H1045 C1055 0.930 . S
C1046 H1040 0.930 . S
C1046 C1047 1.355 . S
C1046 C1048 1.415 . S
C1047 C1046 1.355 . S
C1047 C1049 1.419 . S
C1048 C1046 1.415 . S
C1048 C1053 1.425 . S
C1048 C1055 1.409 . S
C1049 H1041 0.930 . S
C1049 C1047 1.419 . S
C1049 C1050 1.362 . S
C1050 H1042 0.930 . S
C1050 C1049 1.362 . S
C1050 C1053 1.409 . S
C1051 H1043 0.930 . S
C1051 C1052 1.355 . S
C1051 C1053 1.415 . S
C1052 C1051 1.355 . S
C1052 C1054 1.419 . S
C1053 C1048 1.425 . S
C1053 C1050 1.409 . S
C1053 C1051 1.415 . S
C1054 H1044 0.930 . S
C1054 C1052 1.419 . S
C1054 C1055 1.362 . S
C1055 H1045 0.930 . S
C1055 C1048 1.409 . S
C1055 C1054 1.362 . S
H1056 C1062 0.930 . S
H1057 C1065 0.930 . S
H1058 C1066 0.930 . S
H1059 C1067 0.930 . S
H1060 C1070 0.930 . S
H1061 C1071 0.930 . S
C1062 H1056 0.930 . S
C1062 C1063 1.355 . S
C1062 C1064 1.415 . S
C1063 C1062 1.355 . S
C1063 C1065 1.419 . S
C1064 C1062 1.415 . S
C1064 C1069 1.425 . S
C1064 C1071 1.409 . S
C1065 H1057 0.930 . S
C1065 C1063 1.419 . S
C1065 C1066 1.362 . S
C1066 H1058 0.930 . S
C1066 C1065 1.362 . S
C1066 C1069 1.409 . S
C1067 H1059 0.930 . S
C1067 C1068 1.355 . S
C1067 C1069 1.415 . S
C1068 C1067 1.355 . S
C1068 C1070 1.419 . S
C1069 C1064 1.425 . S
C1069 C1066 1.409 . S
C1069 C1067 1.415 . S
C1070 H1060 0.930 . S
C1070 C1068 1.419 . S
C1070 C1071 1.362 . S
C1071 H1061 0.930 . S
C1071 C1064 1.409 . S
C1071 C1070 1.362 . S
H1072 C1078 0.930 . S
H1073 C1081 0.930 . S
H1074 C1082 0.930 . S
H1075 C1083 0.930 . S
H1076 C1086 0.930 . S
H1077 C1087 0.930 . S
C1078 H1072 0.930 . S
C1078 C1079 1.355 . S
C1078 C1080 1.415 . S
C1079 C1078 1.355 . S
C1079 C1081 1.419 . S
C1080 C1078 1.415 . S
C1080 C1085 1.425 . S
C1080 C1087 1.409 . S
C1081 H1073 0.930 . S
C1081 C1079 1.419 . S
C1081 C1082 1.362 . S
C1082 H1074 0.930 . S
C1082 C1081 1.362 . S
C1082 C1085 1.409 . S
C1083 H1075 0.930 . S
C1083 C1084 1.355 . S
C1083 C1085 1.415 . S
C1084 C1083 1.355 . S
C1084 C1086 1.419 . S
C1085 C1080 1.425 . S
C1085 C1082 1.409 . S
C1085 C1083 1.415 . S
C1086 H1076 0.930 . S
C1086 C1084 1.419 . S
C1086 C1087 1.362 . S
C1087 H1077 0.930 . S
C1087 C1080 1.409 . S
C1087 C1086 1.362 . S
H1088 C1094 0.930 . S
H1089 C1097 0.930 . S
H1090 C1098 0.930 . S
H1091 C1099 0.930 . S
H1092 C1102 0.930 . S
H1093 C1103 0.930 . S
C1094 H1088 0.930 . S
C1094 C1095 1.355 . S
C1094 C1096 1.415 . S
C1095 C1094 1.355 . S
C1095 C1097 1.419 . S
C1096 C1094 1.415 . S
C1096 C1101 1.425 . S
C1096 C1103 1.409 . S
C1097 H1089 0.930 . S
C1097 C1095 1.419 . S
C1097 C1098 1.362 . S
C1098 H1090 0.930 . S
C1098 C1097 1.362 . S
C1098 C1101 1.409 . S
C1099 H1091 0.930 . S
C1099 C1100 1.355 . S
C1099 C1101 1.415 . S
C1100 C1099 1.355 . S
C1100 C1102 1.419 . S
C1101 C1096 1.425 . S
C1101 C1098 1.409 . S
C1101 C1099 1.415 . S
C1102 H1092 0.930 . S
C1102 C1100 1.419 . S
C1102 C1103 1.362 . S
C1103 H1093 0.930 . S
C1103 C1096 1.409 . S
C1103 C1102 1.362 . S
H1104 C1110 0.930 . S
H1105 C1113 0.930 . S
H1106 C1114 0.930 . S
H1107 C1115 0.930 . S
H1108 C1118 0.930 . S
H1109 C1119 0.930 . S
C1110 H1104 0.930 . S
C1110 C1111 1.355 . S
C1110 C1112 1.415 . S
C1111 C1110 1.355 . S
C1111 C1113 1.419 . S
C1112 C1110 1.415 . S
C1112 C1117 1.425 . S
C1112 C1119 1.409 . S
C1113 H1105 0.930 . S
C1113 C1111 1.419 . S
C1113 C1114 1.362 . S
C1114 H1106 0.930 . S
C1114 C1113 1.362 . S
C1114 C1117 1.409 . S
C1115 H1107 0.930 . S
C1115 C1116 1.355 . S
C1115 C1117 1.415 . S
C1116 C1115 1.355 . S
C1116 C1118 1.419 . S
C1117 C1112 1.425 . S
C1117 C1114 1.409 . S
C1117 C1115 1.415 . S
C1118 H1108 0.930 . S
C1118 C1116 1.419 . S
C1118 C1119 1.362 . S
C1119 H1109 0.930 . S
C1119 C1112 1.409 . S
C1119 C1118 1.362 . S
H1120 C1126 0.930 . S
H1121 C1129 0.930 . S
H1122 C1130 0.930 . S
H1123 C1131 0.930 . S
H1124 C1134 0.930 . S
H1125 C1135 0.930 . S
C1126 H1120 0.930 . S
C1126 C1127 1.355 . S
C1126 C1128 1.415 . S
C1127 C1126 1.355 . S
C1127 C1129 1.419 . S
C1128 C1126 1.415 . S
C1128 C1133 1.425 . S
C1128 C1135 1.409 . S
C1129 H1121 0.930 . S
C1129 C1127 1.419 . S
C1129 C1130 1.362 . S
C1130 H1122 0.930 . S
C1130 C1129 1.362 . S
C1130 C1133 1.409 . S
C1131 H1123 0.930 . S
C1131 C1132 1.355 . S
C1131 C1133 1.415 . S
C1132 C1131 1.355 . S
C1132 C1134 1.419 . S
C1133 C1128 1.425 . S
C1133 C1130 1.409 . S
C1133 C1131 1.415 . S
C1134 H1124 0.930 . S
C1134 C1132 1.419 . S
C1134 C1135 1.362 . S
C1135 H1125 0.930 . S
C1135 C1128 1.409 . S
C1135 C1134 1.362 . S
H1136 C1142 0.930 . S
H1137 C1145 0.930 . S
H1138 C1146 0.930 . S
H1139 C1147 0.930 . S
H1140 C1150 0.930 . S
H1141 C1151 0.930 . S
C1142 H1136 0.930 . S
C1142 C1143 1.355 . S
C1142 C1144 1.415 . S
C1143 C1142 1.355 . S
C1143 C1145 1.419 . S
C1144 C1142 1.415 . S
C1144 C1149 1.425 . S
C1144 C1151 1.409 . S
C1145 H1137 0.930 . S
C1145 C1143 1.419 . S
C1145 C1146 1.362 . S
C1146 H1138 0.930 . S
C1146 C1145 1.362 . S
C1146 C1149 1.409 . S
C1147 H1139 0.930 . S
C1147 C1148 1.355 . S
C1147 C1149 1.415 . S
C1148 C1147 1.355 . S
C1148 C1150 1.419 . S
C1149 C1144 1.425 . S
C1149 C1146 1.409 . S
C1149 C1147 1.415 . S
C1150 H1140 0.930 . S
C1150 C1148 1.419 . S
C1150 C1151 1.362 . S
C1151 H1141 0.930 . S
C1151 C1144 1.409 . S
C1151 C1150 1.362 . S
H1152 C1158 0.930 . S
H1153 C1161 0.930 . S
H1154 C1162 0.930 . S
H1155 C1163 0.930 . S
H1156 C1166 0.930 . S
H1157 C1167 0.930 . S
C1158 H1152 0.930 . S
C1158 C1159 1.355 . S
C1158 C1160 1.415 . S
C1159 C1158 1.355 . S
C1159 C1161 1.419 . S
C1160 C1158 1.415 . S
C1160 C1165 1.425 . S
C1160 C1167 1.409 . S
C1161 H1153 0.930 . S
C1161 C1159 1.419 . S
C1161 C1162 1.362 . S
C1162 H1154 0.930 . S
C1162 C1161 1.362 . S
C1162 C1165 1.409 . S
C1163 H1155 0.930 . S
C1163 C1164 1.355 . S
C1163 C1165 1.415 . S
C1164 C1163 1.355 . S
C1164 C1166 1.419 . S
C1165 C1160 1.425 . S
C1165 C1162 1.409 . S
C1165 C1163 1.415 . S
C1166 H1156 0.930 . S
C1166 C1164 1.419 . S
C1166 C1167 1.362 . S
C1167 H1157 0.930 . S
C1167 C1160 1.409 . S
C1167 C1166 1.362 . S
H1168 C1174 0.930 . S
H1169 C1177 0.930 . S
H1170 C1178 0.930 . S
H1171 C1179 0.930 . S
H1172 C1182 0.930 . S
H1173 C1183 0.930 . S
C1174 H1168 0.930 . S
C1174 C1175 1.355 . S
C1174 C1176 1.415 . S
C1175 C1174 1.355 . S
C1175 C1177 1.419 . S
C1176 C1174 1.415 . S
C1176 C1181 1.425 . S
C1176 C1183 1.409 . S
C1177 H1169 0.930 . S
C1177 C1175 1.419 . S
C1177 C1178 1.362 . S
C1178 H1170 0.930 . S
C1178 C1177 1.362 . S
C1178 C1181 1.409 . S
C1179 H1171 0.930 . S
C1179 C1180 1.355 . S
C1179 C1181 1.415 . S
C1180 C1179 1.355 . S
C1180 C1182 1.419 . S
C1181 C1176 1.425 . S
C1181 C1178 1.409 . S
C1181 C1179 1.415 . S
C1182 H1172 0.930 . S
C1182 C1180 1.419 . S
C1182 C1183 1.362 . S
C1183 H1173 0.930 . S
C1183 C1176 1.409 . S
C1183 C1182 1.362 . S
H1184 C1190 0.930 . S
H1185 C1193 0.930 . S
H1186 C1194 0.930 . S
H1187 C1195 0.930 . S
H1188 C1198 0.930 . S
H1189 C1199 0.930 . S
C1190 H1184 0.930 . S
C1190 C1191 1.355 . S
C1190 C1192 1.415 . S
C1191 C1190 1.355 . S
C1191 C1193 1.419 . S
C1192 C1190 1.415 . S
C1192 C1197 1.425 . S
C1192 C1199 1.409 . S
C1193 H1185 0.930 . S
C1193 C1191 1.419 . S
C1193 C1194 1.362 . S
C1194 H1186 0.930 . S
C1194 C1193 1.362 . S
C1194 C1197 1.409 . S
C1195 H1187 0.930 . S
C1195 C1196 1.355 . S
C1195 C1197 1.415 . S
C1196 C1195 1.355 . S
C1196 C1198 1.419 . S
C1197 C1192 1.425 . S
C1197 C1194 1.409 . S
C1197 C1195 1.415 . S
C1198 H1188 0.930 . S
C1198 C1196 1.419 . S
C1198 C1199 1.362 . S
C1199 H1189 0.930 . S
C1199 C1192 1.409 . S
C1199 C1198 1.362 . S
H1200 C1206 0.930 . S
H1201 C1209 0.930 . S
H1202 C1210 0.930 . S
H1203 C1211 0.930 . S
H1204 C1214 0.930 . S
H1205 C1215 0.930 . S
C1206 H1200 0.930 . S
C1206 C1207 1.355 . S
C1206 C1208 1.415 . S
C1207 C1206 1.355 . S
C1207 C1209 1.419 . S
C1208 C1206 1.415 . S
C1208 C1213 1.425 . S
C1208 C1215 1.409 . S
C1209 H1201 0.930 . S
C1209 C1207 1.419 . S
C1209 C1210 1.362 . S
C1210 H1202 0.930 . S
C1210 C1209 1.362 . S
C1210 C1213 1.409 . S
C1211 H1203 0.930 . S
C1211 C1212 1.355 . S
C1211 C1213 1.415 . S
C1212 C1211 1.355 . S
C1212 C1214 1.419 . S
C1213 C1208 1.425 . S
C1213 C1210 1.409 . S
C1213 C1211 1.415 . S
C1214 H1204 0.930 . S
C1214 C1212 1.419 . S
C1214 C1215 1.362 . S
C1215 H1205 0.930 . S
C1215 C1208 1.409 . S
C1215 C1214 1.362 . S
H1216 C1222 0.930 . S
H1217 C1225 0.930 . S
H1218 C1226 0.930 . S
H1219 C1227 0.930 . S
H1220 C1230 0.930 . S
H1221 C1231 0.930 . S
C1222 H1216 0.930 . S
C1222 C1223 1.355 . S
C1222 C1224 1.415 . S
C1223 C1222 1.355 . S
C1223 C1225 1.419 . S
C1224 C1222 1.415 . S
C1224 C1229 1.425 . S
C1224 C1231 1.409 . S
C1225 H1217 0.930 . S
C1225 C1223 1.419 . S
C1225 C1226 1.362 . S
C1226 H1218 0.930 . S
C1226 C1225 1.362 . S
C1226 C1229 1.409 . S
C1227 H1219 0.930 . S
C1227 C1228 1.355 . S
C1227 C1229 1.415 . S
C1228 C1227 1.355 . S
C1228 C1230 1.419 . S
C1229 C1224 1.425 . S
C1229 C1226 1.409 . S
C1229 C1227 1.415 . S
C1230 H1220 0.930 . S
C1230 C1228 1.419 . S
C1230 C1231 1.362 . S
C1231 H1221 0.930 . S
C1231 C1224 1.409 . S
C1231 C1230 1.362 . S
H1232 C1238 0.930 . S
H1233 C1241 0.930 . S
H1234 C1242 0.930 . S
H1235 C1243 0.930 . S
H1236 C1246 0.930 . S
H1237 C1247 0.930 . S
C1238 H1232 0.930 . S
C1238 C1239 1.355 . S
C1238 C1240 1.415 . S
C1239 C1238 1.355 . S
C1239 C1241 1.419 . S
C1240 C1238 1.415 . S
C1240 C1245 1.425 . S
C1240 C1247 1.409 . S
C1241 H1233 0.930 . S
C1241 C1239 1.419 . S
C1241 C1242 1.362 . S
C1242 H1234 0.930 . S
C1242 C1241 1.362 . S
C1242 C1245 1.409 . S
C1243 H1235 0.930 . S
C1243 C1244 1.355 . S
C1243 C1245 1.415 . S
C1244 C1243 1.355 . S
C1244 C1246 1.419 . S
C1245 C1240 1.425 . S
C1245 C1242 1.409 . S
C1245 C1243 1.415 . S
C1246 H1236 0.930 . S
C1246 C1244 1.419 . S
C1246 C1247 1.362 . S
C1247 H1237 0.930 . S
C1247 C1240 1.409 . S
C1247 C1246 1.362 . S
H1248 C1254 0.930 . S
H1249 C1257 0.930 . S
H1250 C1258 0.930 . S
H1251 C1259 0.930 . S
H1252 C1262 0.930 . S
H1253 C1263 0.930 . S
C1254 H1248 0.930 . S
C1254 C1255 1.355 . S
C1254 C1256 1.415 . S
C1255 C1254 1.355 . S
C1255 C1257 1.419 . S
C1256 C1254 1.415 . S
C1256 C1261 1.425 . S
C1256 C1263 1.409 . S
C1257 H1249 0.930 . S
C1257 C1255 1.419 . S
C1257 C1258 1.362 . S
C1258 H1250 0.930 . S
C1258 C1257 1.362 . S
C1258 C1261 1.409 . S
C1259 H1251 0.930 . S
C1259 C1260 1.355 . S
C1259 C1261 1.415 . S
C1260 C1259 1.355 . S
C1260 C1262 1.419 . S
C1261 C1256 1.425 . S
C1261 C1258 1.409 . S
C1261 C1259 1.415 . S
C1262 H1252 0.930 . S
C1262 C1260 1.419 . S
C1262 C1263 1.362 . S
C1263 H1253 0.930 . S
C1263 C1256 1.409 . S
C1263 C1262 1.362 . S
H1264 C1270 0.930 . S
H1265 C1273 0.930 . S
H1266 C1274 0.930 . S
H1267 C1275 0.930 . S
H1268 C1278 0.930 . S
H1269 C1279 0.930 . S
C1270 H1264 0.930 . S
C1270 C1271 1.355 . S
C1270 C1272 1.415 . S
C1271 C1270 1.355 . S
C1271 C1273 1.419 . S
C1272 C1270 1.415 . S
C1272 C1277 1.425 . S
C1272 C1279 1.409 . S
C1273 H1265 0.930 . S
C1273 C1271 1.419 . S
C1273 C1274 1.362 . S
C1274 H1266 0.930 . S
C1274 C1273 1.362 . S
C1274 C1277 1.409 . S
C1275 H1267 0.930 . S
C1275 C1276 1.355 . S
C1275 C1277 1.415 . S
C1276 C1275 1.355 . S
C1276 C1278 1.419 . S
C1277 C1272 1.425 . S
C1277 C1274 1.409 . S
C1277 C1275 1.415 . S
C1278 H1268 0.930 . S
C1278 C1276 1.419 . S
C1278 C1279 1.362 . S
C1279 H1269 0.930 . S
C1279 C1272 1.409 . S
C1279 C1278 1.362 . S
H1280 C1286 0.930 . S
H1281 C1289 0.930 . S
H1282 C1290 0.930 . S
H1283 C1291 0.930 . S
H1284 C1294 0.930 . S
H1285 C1295 0.930 . S
C1286 H1280 0.930 . S
C1286 C1287 1.355 . S
C1286 C1288 1.415 . S
C1287 C1286 1.355 . S
C1287 C1289 1.419 . S
C1288 C1286 1.415 . S
C1288 C1293 1.425 . S
C1288 C1295 1.409 . S
C1289 H1281 0.930 . S
C1289 C1287 1.419 . S
C1289 C1290 1.362 . S
C1290 H1282 0.930 . S
C1290 C1289 1.362 . S
C1290 C1293 1.409 . S
C1291 H1283 0.930 . S
C1291 C1292 1.355 . S
C1291 C1293 1.415 . S
C1292 C1291 1.355 . S
C1292 C1294 1.419 . S
C1293 C1288 1.425 . S
C1293 C1290 1.409 . S
C1293 C1291 1.415 . S
C1294 H1284 0.930 . S
C1294 C1292 1.419 . S
C1294 C1295 1.362 . S
C1295 H1285 0.930 . S
C1295 C1288 1.409 . S
C1295 C1294 1.362 . S
H1296 C1302 0.930 . S
H1297 C1305 0.930 . S
H1298 C1306 0.930 . S
H1299 C1307 0.930 . S
H1300 C1310 0.930 . S
H1301 C1311 0.930 . S
C1302 H1296 0.930 . S
C1302 C1303 1.355 . S
C1302 C1304 1.415 . S
C1303 C1302 1.355 . S
C1303 C1305 1.419 . S
C1304 C1302 1.415 . S
C1304 C1309 1.425 . S
C1304 C1311 1.409 . S
C1305 H1297 0.930 . S
C1305 C1303 1.419 . S
C1305 C1306 1.362 . S
C1306 H1298 0.930 . S
C1306 C1305 1.362 . S
C1306 C1309 1.409 . S
C1307 H1299 0.930 . S
C1307 C1308 1.355 . S
C1307 C1309 1.415 . S
C1308 C1307 1.355 . S
C1308 C1310 1.419 . S
C1309 C1304 1.425 . S
C1309 C1306 1.409 . S
C1309 C1307 1.415 . S
C1310 H1300 0.930 . S
C1310 C1308 1.419 . S
C1310 C1311 1.362 . S
C1311 H1301 0.930 . S
C1311 C1304 1.409 . S
C1311 C1310 1.362 . S
H1312 C1318 0.930 . S
H1313 C1321 0.930 . S
H1314 C1322 0.930 . S
H1315 C1323 0.930 . S
H1316 C1326 0.930 . S
H1317 C1327 0.930 . S
C1318 H1312 0.930 . S
C1318 C1319 1.355 . S
C1318 C1320 1.415 . S
C1319 C1318 1.355 . S
C1319 C1321 1.419 . S
C1320 C1318 1.415 . S
C1320 C1325 1.425 . S
C1320 C1327 1.409 . S
C1321 H1313 0.930 . S
C1321 C1319 1.419 . S
C1321 C1322 1.362 . S
C1322 H1314 0.930 . S
C1322 C1321 1.362 . S
C1322 C1325 1.409 . S
C1323 H1315 0.930 . S
C1323 C1324 1.355 . S
C1323 C1325 1.415 . S
C1324 C1323 1.355 . S
C1324 C1326 1.419 . S
C1325 C1320 1.425 . S
C1325 C1322 1.409 . S
C1325 C1323 1.415 . S
C1326 H1316 0.930 . S
C1326 C1324 1.419 . S
C1326 C1327 1.362 . S
C1327 H1317 0.930 . S
C1327 C1320 1.409 . S
C1327 C1326 1.362 . S
H1328 C1334 0.930 . S
H1329 C1337 0.930 . S
H1330 C1338 0.930 . S
H1331 C1339 0.930 . S
H1332 C1342 0.930 . S
H1333 C1343 0.930 . S
C1334 H1328 0.930 . S
C1334 C1335 1.355 . S
C1334 C1336 1.415 . S
C1335 C1334 1.355 . S
C1335 C1337 1.419 . S
C1336 C1334 1.415 . S
C1336 C1341 1.425 . S
C1336 C1343 1.409 . S
C1337 H1329 0.930 . S
C1337 C1335 1.419 . S
C1337 C1338 1.362 . S
C1338 H1330 0.930 . S
C1338 C1337 1.362 . S
C1338 C1341 1.409 . S
C1339 H1331 0.930 . S
C1339 C1340 1.355 . S
C1339 C1341 1.415 . S
C1340 C1339 1.355 . S
C1340 C1342 1.419 . S
C1341 C1336 1.425 . S
C1341 C1338 1.409 . S
C1341 C1339 1.415 . S
C1342 H1332 0.930 . S
C1342 C1340 1.419 . S
C1342 C1343 1.362 . S
C1343 H1333 0.930 . S
C1343 C1336 1.409 . S
C1343 C1342 1.362 . S
H1344 C1350 0.930 . S
H1345 C1353 0.930 . S
H1346 C1354 0.930 . S
H1347 C1355 0.930 . S
H1348 C1358 0.930 . S
H1349 C1359 0.930 . S
C1350 H1344 0.930 . S
C1350 C1351 1.355 . S
C1350 C1352 1.415 . S
C1351 C1350 1.355 . S
C1351 C1353 1.419 . S
C1352 C1350 1.415 . S
C1352 C1357 1.425 . S
C1352 C1359 1.409 . S
C1353 H1345 0.930 . S
C1353 C1351 1.419 . S
C1353 C1354 1.362 . S
C1354 H1346 0.930 . S
C1354 C1353 1.362 . S
C1354 C1357 1.409 . S
C1355 H1347 0.930 . S
C1355 C1356 1.355 . S
C1355 C1357 1.415 . S
C1356 C1355 1.355 . S
C1356 C1358 1.419 . S
C1357 C1352 1.425 . S
C1357 C1354 1.409 . S
C1357 C1355 1.415 . S
C1358 H1348 0.930 . S
C1358 C1356 1.419 . S
C1358 C1359 1.362 . S
C1359 H1349 0.930 . S
C1359 C1352 1.409 . S
C1359 C1358 1.362 . S
H1360 C1366 0.930 . S
H1361 C1369 0.930 . S
H1362 C1370 0.930 . S
H1363 C1371 0.930 . S
H1364 C1374 0.930 . S
H1365 C1375 0.930 . S
C1366 H1360 0.930 . S
C1366 C1367 1.355 . S
C1366 C1368 1.415 . S
C1367 C1366 1.355 . S
C1367 C1369 1.419 . S
C1368 C1366 1.415 . S
C1368 C1373 1.425 . S
C1368 C1375 1.409 . S
C1369 H1361 0.930 . S
C1369 C1367 1.419 . S
C1369 C1370 1.362 . S
C1370 H1362 0.930 . S
C1370 C1369 1.362 . S
C1370 C1373 1.409 . S
C1371 H1363 0.930 . S
C1371 C1372 1.355 . S
C1371 C1373 1.415 . S
C1372 C1371 1.355 . S
C1372 C1374 1.419 . S
C1373 C1368 1.425 . S
C1373 C1370 1.409 . S
C1373 C1371 1.415 . S
C1374 H1364 0.930 . S
C1374 C1372 1.419 . S
C1374 C1375 1.362 . S
C1375 H1365 0.930 . S
C1375 C1368 1.409 . S
C1375 C1374 1.362 . S
H1376 C1382 0.930 . S
H1377 C1385 0.930 . S
H1378 C1386 0.930 . S
H1379 C1387 0.930 . S
H1380 C1390 0.930 . S
H1381 C1391 0.930 . S
C1382 H1376 0.930 . S
C1382 C1383 1.355 . S
C1382 C1384 1.415 . S
C1383 C1382 1.355 . S
C1383 C1385 1.419 . S
C1384 C1382 1.415 . S
C1384 C1389 1.425 . S
C1384 C1391 1.409 . S
C1385 H1377 0.930 . S
C1385 C1383 1.419 . S
C1385 C1386 1.362 . S
C1386 H1378 0.930 . S
C1386 C1385 1.362 . S
C1386 C1389 1.409 . S
C1387 H1379 0.930 . S
C1387 C1388 1.355 . S
C1387 C1389 1.415 . S
C1388 C1387 1.355 . S
C1388 C1390 1.419 . S
C1389 C1384 1.425 . S
C1389 C1386 1.409 . S
C1389 C1387 1.415 . S
C1390 H1380 0.930 . S
C1390 C1388 1.419 . S
C1390 C1391 1.362 . S
C1391 H1381 0.930 . S
C1391 C1384 1.409 . S
C1391 C1390 1.362 . S
H1392 C1398 0.930 . S
H1393 C1401 0.930 . S
H1394 C1402 0.930 . S
H1395 C1403 0.930 . S
H1396 C1406 0.930 . S
H1397 C1407 0.930 . S
C1398 H1392 0.930 . S
C1398 C1399 1.355 . S
C1398 C1400 1.415 . S
C1399 C1398 1.355 . S
C1399 C1401 1.419 . S
C1400 C1398 1.415 . S
C1400 C1405 1.425 . S
C1400 C1407 1.409 . S
C1401 H1393 0.930 . S
C1401 C1399 1.419 . S
C1401 C1402 1.362 . S
C1402 H1394 0.930 . S
C1402 C1401 1.362 . S
C1402 C1405 1.409 . S
C1403 H1395 0.930 . S
C1403 C1404 1.355 . S
C1403 C1405 1.415 . S
C1404 C1403 1.355 . S
C1404 C1406 1.419 . S
C1405 C1400 1.425 . S
C1405 C1402 1.409 . S
C1405 C1403 1.415 . S
C1406 H1396 0.930 . S
C1406 C1404 1.419 . S
C1406 C1407 1.362 . S
C1407 H1397 0.930 . S
C1407 C1400 1.409 . S
C1407 C1406 1.362 . S
C647 C443 1.747 . S
C652 C15 1.735 . S
C663 C342 1.748 . S
C668 C42 1.714 . S
C679 C95 1.711 . S
C684 C363 1.750 . S
C695 C122 1.743 . S
C700 C422 1.749 . S
C711 C175 1.755 . S
C716 C203 1.758 . S
C727 C262 1.771 . S
C732 C202 1.743 . S
C743 C255 1.715 . S
C748 C283 1.762 . S
C759 C182 1.759 . S
C764 C282 1.755 . S
C775 C123 1.770 . S
C780 C335 1.750 . S
C791 C362 1.755 . S
C796 C22 1.768 . S
C807 C43 1.755 . S
C812 C415 1.710 . S
C823 C102 1.755 . S
C828 C442 1.710 . S
C839 C495 1.717 . S
C844 C523 1.746 . S
C855 C582 1.758 . S
C860 C522 1.711 . S
C871 C603 1.746 . S
C876 C575 1.722 . S
C887 C602 1.716 . S
C892 C502 1.763 . S
C903 C2 1.257 . S
C908 C162 1.275 . S
C919 C215 1.278 . S
C924 C55 1.278 . S
C935 C82 1.189 . S
C940 C242 1.213 . S
C951 C135 1.180 . S
C956 C295 1.197 . S
C967 C322 1.279 . S
C972 C482 1.276 . S
C983 C535 1.205 . S
C988 C375 1.234 . S
C999 C402 1.224 . S
C1004 C562 1.197 . S
C1015 C455 1.180 . S
C1020 C615 1.197 . S
C1031 C563 2.326 . S
C1036 C3 2.336 1_556 S
C1047 C62 2.352 1_554 S
C1052 C622 2.339 . S
C1063 C83 2.366 1_556 S
C1068 C483 2.356 . S
C1079 C142 2.346 1_554 S
C1084 C542 2.359 . S
C1095 C163 2.366 . S
C1100 C403 2.356 . S
C1111 C222 2.348 . S
C1116 C462 2.360 . S
C1127 C243 2.370 . S
C1132 C323 2.367 . S
C1143 C382 2.369 . S
C1148 C302 2.369 . S
C1159 C9 1.058 . S
C1164 C26 1.058 . S
C1175 C66 1.056 . S
C1180 C49 1.056 . S
C1191 C89 1.058 . S
C1196 C106 1.058 . S
C1207 C129 1.059 . S
C1212 C146 1.059 . S
C1223 C186 1.058 . S
C1228 C169 1.058 . S
C1239 C226 1.058 . S
C1244 C209 1.058 . S
C1255 C249 1.054 . S
C1260 C266 1.054 . S
C1271 C289 1.053 . S
C1276 C306 1.053 . S
C1287 C329 1.059 1_554 S
C1292 C346 1.059 . S
C1303 C369 1.055 . S
C1308 C386 1.055 1_556 S
C1319 C426 1.055 . S
C1324 C409 1.055 1_554 S
C1335 C466 1.054 1_556 S
C1340 C449 1.054 . S
C1351 C489 1.056 . S
C1356 C506 1.056 1_554 S
C1367 C529 1.057 1_556 S
C1372 C546 1.057 . S
C1383 C586 1.059 1_554 S
C1388 C569 1.059 . S
C1399 C626 1.055 . S
C1404 C609 1.055 1_556 S
