# Generated by pormake.
# Topology can, (4)-cn, num edge types: 1
# Building blocks:
#     Node 0, Type 0, BuildingBlock: QUQFOY_clean_sbu_3, # of connection points: 4
#     Node 1, Type 0, BuildingBlock: QUQFOY_clean_sbu_3, # of connection points: 4
#     Node 2, Type 0, BuildingBlock: QUQFOY_clean_sbu_3, # of connection points: 4
#     Node 3, Type 0, BuildingBlock: QUQFOY_clean_sbu_3, # of connection points: 4
#     Node 4, Type 0, BuildingBlock: QUQFOY_clean_sbu_3, # of connection points: 4
#     Node 5, Type 0, BuildingBlock: QUQFOY_clean_sbu_3, # of connection points: 4
#     Node 6, Type 0, BuildingBlock: QUQFOY_clean_sbu_3, # of connection points: 4
#     Node 7, Type 0, BuildingBlock: QUQFOY_clean_sbu_3, # of connection points: 4
#     Node 8, Type 0, BuildingBlock: QUQFOY_clean_sbu_3, # of connection points: 4
#     Node 9, Type 0, BuildingBlock: QUQFOY_clean_sbu_3, # of connection points: 4
#     Node 10, Type 0, BuildingBlock: QUQFOY_clean_sbu_3, # of connection points: 4
#     Node 11, Type 0, BuildingBlock: QUQFOY_clean_sbu_3, # of connection points: 4
#     Edge 12, Type (0, 0), BuildingBlock: EZIPEK_clean_linker_0, # of connection points: 2
#     Edge 13, Type (0, 0), BuildingBlock: EZIPEK_clean_linker_0, # of connection points: 2
#     Edge 14, Type (0, 0), BuildingBlock: EZIPEK_clean_linker_0, # of connection points: 2
#     Edge 15, Type (0, 0), BuildingBlock: EZIPEK_clean_linker_0, # of connection points: 2
#     Edge 16, Type (0, 0), BuildingBlock: EZIPEK_clean_linker_0, # of connection points: 2
#     Edge 17, Type (0, 0), BuildingBlock: EZIPEK_clean_linker_0, # of connection points: 2
#     Edge 18, Type (0, 0), BuildingBlock: EZIPEK_clean_linker_0, # of connection points: 2
#     Edge 19, Type (0, 0), BuildingBlock: EZIPEK_clean_linker_0, # of connection points: 2
#     Edge 20, Type (0, 0), BuildingBlock: EZIPEK_clean_linker_0, # of connection points: 2
#     Edge 21, Type (0, 0), BuildingBlock: EZIPEK_clean_linker_0, # of connection points: 2
#     Edge 22, Type (0, 0), BuildingBlock: EZIPEK_clean_linker_0, # of connection points: 2
#     Edge 23, Type (0, 0), BuildingBlock: EZIPEK_clean_linker_0, # of connection points: 2
#     Edge 24, Type (0, 0), BuildingBlock: EZIPEK_clean_linker_0, # of connection points: 2
#     Edge 25, Type (0, 0), BuildingBlock: EZIPEK_clean_linker_0, # of connection points: 2
#     Edge 26, Type (0, 0), BuildingBlock: EZIPEK_clean_linker_0, # of connection points: 2
#     Edge 27, Type (0, 0), BuildingBlock: EZIPEK_clean_linker_0, # of connection points: 2
#     Edge 28, Type (0, 0), BuildingBlock: EZIPEK_clean_linker_0, # of connection points: 2
#     Edge 29, Type (0, 0), BuildingBlock: EZIPEK_clean_linker_0, # of connection points: 2
#     Edge 30, Type (0, 0), BuildingBlock: EZIPEK_clean_linker_0, # of connection points: 2
#     Edge 31, Type (0, 0), BuildingBlock: EZIPEK_clean_linker_0, # of connection points: 2
#     Edge 32, Type (0, 0), BuildingBlock: EZIPEK_clean_linker_0, # of connection points: 2
#     Edge 33, Type (0, 0), BuildingBlock: EZIPEK_clean_linker_0, # of connection points: 2
#     Edge 34, Type (0, 0), BuildingBlock: EZIPEK_clean_linker_0, # of connection points: 2
#     Edge 35, Type (0, 0), BuildingBlock: EZIPEK_clean_linker_0, # of connection points: 2
# Relax obj value: 0.050
# Max RMSD: 0.037
# Mean RMSD: 0.037
data_MOF--net-can--node1-QUQFOY_clean_sbu_3--edge1-EZIPEK_clean_linker_0
_symmetry_space_group_name_H-M    P1
_symmetry_Int_Tables_number       1
_symmetry_cell_setting            triclinic
loop_
_symmetry_equiv_pos_as_xyz
'x, y, z'
_cell_length_a     42.474805
_cell_length_b     42.242248
_cell_length_c     21.185265
_cell_angle_alpha  89.289244
_cell_angle_beta   90.78366
_cell_angle_gamma 120.46683
loop_
_atom_site_label
_atom_site_type_symbol
_atom_site_fract_x
_atom_site_fract_y
_atom_site_fract_z
_atom_type_partial_charge
C0 C -0.00691 0.34785 0.29497 0.0
O1 O 0.96622 0.33609 0.25679 0.0
Cd2 Cd 0.97333 0.35586 0.1485 0.0
O3 O 0.0258 0.368 0.27634 0.0
Cd4 Cd 0.06078 0.39433 0.17913 0.0
C5 C 0.024 0.44902 0.178 0.0
O6 O 0.02018 0.34709 0.10646 0.0
O7 O 0.06383 0.39668 0.06496 0.0
O8 O 0.10153 0.37345 0.21311 0.0
C9 C 0.03631 0.36489 0.05714 0.0
O10 O -0.00604 0.42123 0.16043 0.0
C11 C 0.13038 0.40427 0.2045 0.0
O12 O 0.05232 0.44682 0.18948 0.0
O13 O 0.12694 0.4311 0.1861 0.0
C14 C 0.63165 0.98218 0.83187 0.0
O15 O 0.61189 0.9547 0.79703 0.0
Cd16 Cd 0.59876 0.95921 0.68806 0.0
O17 O 0.64865 0.01465 0.80938 0.0
Cd18 Cd 0.65802 0.04545 0.70621 0.0
C19 C 0.56885 0.02041 0.7092 0.0
O20 O 0.65553 -0.00137 0.63745 0.0
O21 O 0.6513 0.04256 0.59254 0.0
O22 O 0.72322 0.08394 0.72416 0.0
C23 C 0.65335 0.01383 0.58694 0.0
O24 O 0.56135 0.98816 0.6945 0.0
C25 C 0.72341 0.11374 0.71412 0.0
O26 O 0.60155 0.0461 0.71897 0.0
O27 O 0.69302 0.11178 0.70299 0.0
C28 C 0.62972 0.64717 0.37169 0.0
O29 O 0.64529 0.63122 0.3482 0.0
Cd30 Cd 0.63775 0.61471 0.23907 0.0
O31 O 0.61053 0.65609 0.33773 0.0
Cd32 Cd 0.59153 0.65196 0.22742 0.0
C33 C 0.54541 0.55977 0.23844 0.0
O34 O 0.64964 0.66835 0.17818 0.0
O35 O 0.60194 0.64743 0.11734 0.0
O36 O 0.59929 0.71166 0.24457 0.0
C37 C 0.63629 0.66228 0.1228 0.0
O38 O 0.5759 0.56123 0.23285 0.0
C39 C 0.56888 0.70415 0.22016 0.0
O40 O 0.54351 0.58877 0.24093 0.0
O41 O 0.54822 0.67188 0.19951 0.0
C42 C 0.96674 0.63355 0.82905 0.0
O43 O -0.00453 0.64441 0.79682 0.0
Cd44 Cd -0.00488 0.63207 0.68587 0.0
O45 O 0.9352 0.61622 0.80363 0.0
Cd46 Cd 0.90602 0.59311 0.70074 0.0
C47 C 0.94261 0.538 0.69717 0.0
O48 O 0.9505 0.64226 0.63474 0.0
O49 O 0.90721 0.59517 0.58666 0.0
O50 O 0.86412 0.61299 0.72839 0.0
C51 C 0.93621 0.62621 0.58308 0.0
O52 O 0.97349 0.56643 0.68608 0.0
C53 C 0.83564 0.58224 0.7175 0.0
O54 O 0.91422 0.54003 0.70756 0.0
O55 O 0.83968 0.55594 0.69955 0.0
C56 C 0.33621 -0.00211 0.3452 0.0
O57 O 0.35658 0.02694 0.31403 0.0
Cd58 Cd 0.37195 0.02588 0.20591 0.0
O59 O 0.32053 0.96651 0.31915 0.0
Cd60 Cd 0.31255 0.93961 0.21367 0.0
C61 C 0.40092 0.96282 0.21992 0.0
O62 O 0.31634 0.98939 0.14836 0.0
O63 O 0.32089 0.94689 0.10099 0.0
O64 O 0.24715 0.90139 0.2277 0.0
C65 C 0.31915 0.97591 0.09706 0.0
O66 O 0.40855 -0.0042 0.21028 0.0
C67 C 0.24666 0.87159 0.21753 0.0
O68 O 0.36807 0.93673 0.22563 0.0
O69 O 0.27679 0.87332 0.20661 0.0
C70 C 0.34075 0.33244 0.90552 0.0
O71 O 0.32557 0.34897 0.88114 0.0
Cd72 Cd 0.33835 0.37349 0.77552 0.0
O73 O 0.36195 0.32599 0.87341 0.0
Cd74 Cd 0.38433 0.33484 0.76458 0.0
C75 C 0.43204 0.42656 0.78358 0.0
O76 O 0.33117 0.32674 0.70365 0.0
O77 O 0.38335 0.35116 0.65647 0.0
O78 O 0.37061 0.27216 0.76138 0.0
C79 C 0.34917 0.33803 0.65282 0.0
O80 O 0.40143 0.42515 0.77842 0.0
C81 C 0.40277 0.28008 0.74765 0.0
O82 O 0.43393 0.39744 0.78362 0.0
O83 O 0.42706 0.31379 0.74297 0.0
C84 C 0.62297 0.96836 0.10293 0.0
O85 O 0.63487 -0.00253 0.13511 0.0
Cd86 Cd 0.62305 -0.00142 0.2458 0.0
O87 O 0.60447 0.93676 0.12823 0.0
Cd88 Cd 0.57982 0.90855 0.2309 0.0
C89 C 0.52958 0.95058 0.23158 0.0
O90 O 0.62948 0.95166 0.29783 0.0
O91 O 0.58094 0.91027 0.34499 0.0
O92 O 0.59529 0.86245 0.20788 0.0
C93 C 0.61272 0.93816 0.34916 0.0
O94 O 0.55871 0.98076 0.24364 0.0
C95 C 0.56344 0.83551 0.21798 0.0
O96 O 0.52985 0.92104 0.2217 0.0
O97 O 0.53861 0.84243 0.23236 0.0
C98 C 0.63616 0.65624 0.64152 0.0
O99 O 0.62245 0.67027 0.67647 0.0
Cd100 Cd 0.61758 0.66103 0.78922 0.0
O101 O 0.64851 0.63673 0.66442 0.0
Cd102 Cd 0.65673 0.61487 0.76662 0.0
C103 C 0.56534 0.5675 0.78829 0.0
O104 O 0.67515 0.67021 0.8277 0.0
O105 O 0.66318 0.62109 0.87911 0.0
O106 O 0.71425 0.62455 0.72883 0.0
C107 C 0.67451 0.6552 0.88015 0.0
O108 O 0.56731 0.5976 0.80299 0.0
C109 C 0.70818 0.59296 0.74529 0.0
O110 O 0.59323 0.56655 0.76997 0.0
O111 O 0.67762 0.57093 0.77019 0.0
C112 C 0.97981 0.64352 0.10022 0.0
O113 O 0.95201 0.62483 0.13462 0.0
Cd114 Cd 0.95602 0.61109 0.2434 0.0
O115 O 0.01198 0.65933 0.12337 0.0
Cd116 Cd 0.04251 0.66878 0.22676 0.0
C117 C 0.01488 0.57853 0.22045 0.0
O118 O -0.00342 0.66764 0.29496 0.0
O119 O 0.0395 0.66215 0.34033 0.0
O120 O 0.08076 0.73396 0.20664 0.0
C121 C 0.01138 0.66503 0.3456 0.0
O122 O 0.98293 0.57193 0.2337 0.0
C123 C 0.11047 0.73427 0.21667 0.0
O124 O 0.04147 0.6112 0.21363 0.0
O125 O 0.10859 0.70391 0.22943 0.0
C126 C 0.34304 0.00956 0.61564 0.0
O127 O 0.33039 0.98226 0.65322 0.0
Cd128 Cd 0.34929 0.98688 0.76162 0.0
O129 O 0.36405 0.04217 0.63501 0.0
Cd130 Cd 0.39072 0.07491 0.73432 0.0
C131 C 0.44234 0.035 0.73693 0.0
O132 O 0.34306 0.03464 0.80689 0.0
O133 O 0.39426 0.0753 0.84855 0.0
O134 O 0.37357 0.12039 0.71252 0.0
C135 C 0.36177 0.04922 0.85631 0.0
O136 O 0.41392 0.00529 0.75368 0.0
C137 C 0.40565 0.1476 0.72002 0.0
O138 O 0.44136 0.064 0.72423 0.0
O139 O 0.43134 0.14099 0.72978 0.0
C140 C 0.33018 0.32522 0.17419 0.0
O141 O 0.3422 0.312 0.21589 0.0
Cd142 Cd 0.35688 0.33481 0.32284 0.0
O143 O 0.3209 0.34853 0.18809 0.0
Cd144 Cd 0.31464 0.38141 0.27645 0.0
C145 C 0.40796 0.42674 0.28055 0.0
O146 O 0.30626 0.33862 0.35885 0.0
O147 O 0.30933 0.38876 0.38835 0.0
O148 O 0.25421 0.36461 0.24104 0.0
C149 C 0.30811 0.35911 0.40374 0.0
O150 O 0.40642 0.39775 0.30252 0.0
C151 C 0.26038 0.39736 0.24052 0.0
O152 O 0.37921 0.42783 0.26645 0.0
O153 O 0.29244 0.42312 0.25412 0.0
C154 C 0.98172 0.34058 0.56529 0.0
O155 O 0.0111 0.3609 0.59549 0.0
Cd156 Cd 0.01227 0.37626 0.70434 0.0
O157 O 0.95094 0.32485 0.59265 0.0
Cd158 Cd 0.92681 0.31749 0.70018 0.0
C159 C 0.95021 0.40626 0.69657 0.0
O160 O 0.97697 0.32096 0.76373 0.0
O161 O 0.93614 0.32748 0.81209 0.0
O162 O 0.88876 0.25153 0.68915 0.0
C163 C 0.96438 0.32461 0.81535 0.0
O164 O 0.98298 0.41353 0.70455 0.0
C165 C 0.85931 0.25102 0.70112 0.0
O166 O 0.92394 0.37341 0.69033 0.0
O167 O 0.86108 0.28143 0.71121 0.0
C168 C 0.01014 0.37801 0.96161 0.0
C169 C 0.01855 0.35385 -0.00534 0.0
C170 C -0.00835 0.30937 0.90862 0.0
C171 C -0.01359 0.33524 0.87383 0.0
N172 N 0.00077 0.39786 0.85973 0.0
N173 N 0.02253 0.29886 -0.00336 0.0
C174 C -0.00117 0.37073 0.89805 0.0
C175 C 0.0108 0.32008 0.96737 0.0
N176 N 0.01082 0.40676 -0.00819 0.0
N177 N 0.97737 0.27442 0.8866 0.0
H178 H 0.03654 0.30593 0.03972 0.0
H179 H 0.0209 0.27582 0.97601 0.0
H180 H 0.96393 0.26606 0.8431 0.0
H181 H 0.97677 0.25319 0.91306 0.0
H182 H 0.00148 0.423 0.97092 0.0
H183 H 0.01649 0.41167 0.03987 0.0
H184 H 0.01288 0.42519 0.87369 0.0
H185 H -0.00593 0.39373 0.81193 0.0
C186 C 0.65798 0.96671 0.4383 0.0
C187 C 0.62475 0.95906 0.4085 0.0
C188 C 0.60889 0.98302 0.49928 0.0
C189 C 0.64351 -0.00602 0.52658 0.0
N190 N 0.70328 0.00086 0.51948 0.0
N191 N 0.57322 0.96857 0.4034 0.0
C192 C 0.66877 0.98709 0.49543 0.0
C193 C 0.60153 0.96973 0.43688 0.0
N194 N 0.67847 0.95345 0.41326 0.0
N195 N 0.58235 0.98378 0.53387 0.0
H196 H 0.56765 0.9603 0.3565 0.0
H197 H 0.55781 0.97959 0.41985 0.0
H198 H 0.58618 0.99202 0.58083 0.0
H199 H 0.55541 0.97249 0.51826 0.0
H200 H 0.70088 0.95471 0.43633 0.0
H201 H 0.67148 0.93868 0.37125 0.0
H202 H 0.72414 0.00014 0.4955 0.0
H203 H 0.71186 0.01551 0.56161 0.0
C204 C 0.65461 0.69545 0.02035 0.0
C205 C 0.65923 0.6733 0.06599 0.0
C206 C 0.69487 0.66138 -0.00905 0.0
C207 C 0.68073 0.67369 0.9419 0.0
N208 N 0.65488 0.71095 0.90984 0.0
N209 N 0.68705 0.63779 0.09762 0.0
C210 C 0.66374 0.69421 0.95654 0.0
C211 C 0.68135 0.65796 0.0529 0.0
N212 N 0.64181 0.71775 0.0387 0.0
N213 N 0.7205 0.65213 0.97716 0.0
H214 H 0.67817 0.63508 0.14394 0.0
H215 H 0.69909 0.62219 0.088 0.0
H216 H 0.73069 0.65498 0.93154 0.0
H217 H 0.73409 0.64545 0.01131 0.0
H218 H 0.64021 0.73674 0.00909 0.0
H219 H 0.63598 0.71963 0.08577 0.0
H220 H 0.63721 0.72093 0.91604 0.0
H221 H 0.66579 0.71557 0.86475 0.0
C222 C 0.97908 0.62036 0.43229 0.0
C223 C -0.00839 0.65565 0.40579 0.0
C224 C 0.96624 0.67173 0.49474 0.0
C225 C 0.95691 0.63765 0.52371 0.0
N226 N 0.9628 0.58366 0.52729 0.0
N227 N 0.00161 0.71695 0.41418 0.0
C228 C 0.96573 0.61313 0.49457 0.0
C229 C -0.01358 0.68199 0.43761 0.0
N230 N 0.9785 0.59317 0.39705 0.0
N231 N 0.95475 0.69361 0.52057 0.0
H232 H 0.01611 0.72515 0.372 0.0
H233 H 0.00216 0.73845 0.43863 0.0
H234 H 0.9402 0.68704 0.56264 0.0
H235 H 0.95728 0.71685 0.49815 0.0
H236 H 0.96605 0.56587 0.41196 0.0
H237 H -0.01304 0.597 0.35025 0.0
H238 H 0.97247 0.56712 0.51039 0.0
H239 H 0.95437 0.57805 0.57405 0.0
C240 C 0.37289 0.02049 0.95068 0.0
C241 C 0.35009 0.03087 0.91828 0.0
C242 C 0.30564 0.00483 0.00402 0.0
C243 C 0.33035 -0.00221 0.03834 0.0
N244 N 0.3917 0.00932 0.0521 0.0
N245 N 0.29734 0.03827 0.91761 0.0
C246 C 0.36529 0.00884 0.01403 0.0
C247 C 0.31708 0.02455 0.94587 0.0
N248 N 0.4006 0.01966 0.92011 0.0
N249 N 0.27108 0.99178 0.02595 0.0
H250 H 0.30502 0.05291 0.87514 0.0
H251 H 0.27506 0.03771 0.93867 0.0
H252 H 0.2622 0.97791 0.06898 0.0
H253 H 0.25056 0.99254 -0.00031 0.0
H254 H 0.41577 0.00901 0.94059 0.0
H255 H 0.40554 0.02536 0.8721 0.0
H256 H 0.41876 0.02052 0.03809 0.0
H257 H 0.38744 0.00246 0.09984 0.0
C258 C 0.3447 0.38283 0.50328 0.0
C259 C 0.3162 0.35304 0.46938 0.0
C260 C 0.30661 0.31215 0.55939 0.0
C261 C 0.3331 0.34282 0.59409 0.0
N262 N 0.36761 0.40846 0.60629 0.0
N263 N 0.26452 0.29106 0.47043 0.0
C264 C 0.34887 0.37855 0.56833 0.0
C265 C 0.29542 0.31809 0.49894 0.0
N266 N 0.36955 0.41435 0.47303 0.0
N267 N 0.29326 0.27743 0.58286 0.0
H268 H 0.25493 0.29473 0.42699 0.0
H269 H 0.24658 0.26629 0.49259 0.0
H270 H 0.30042 0.2722 0.62742 0.0
H271 H 0.27706 0.25388 0.55644 0.0
H272 H 0.39252 0.4353 0.49566 0.0
H273 H 0.37009 0.41775 0.4242 0.0
H274 H 0.37712 0.43526 0.59049 0.0
H275 H 0.36967 0.406 0.65503 0.0
C276 C 0.98391 0.67133 0.92772 0.0
C277 C 0.96953 0.63657 0.89848 0.0
C278 C 0.96368 0.60715 0.00138 0.0
C279 C 0.9753 0.64132 0.03102 0.0
N280 N -0.00728 0.70509 0.02479 0.0
N281 N 0.94117 0.5705 0.90697 0.0
C282 C 0.98453 0.67328 -0.00517 0.0
C283 C 0.95786 0.6042 0.93521 0.0
N284 N -0.00294 0.70235 0.8913 0.0
N285 N 0.96025 0.57797 0.03598 0.0
H286 H 0.93838 0.56685 0.85827 0.0
H287 H 0.92779 0.54582 0.932 0.0
H288 H 0.96442 0.57874 0.08468 0.0
H289 H 0.95653 0.55391 0.01591 0.0
H290 H 0.01154 0.72885 0.90931 0.0
H291 H -0.00471 0.70171 0.84213 0.0
H292 H -0.0038 0.72848 0.00154 0.0
H293 H -0.00656 0.70729 0.07385 0.0
C294 C 0.31378 0.01039 0.4454 0.0
C295 C 0.33626 -0.00032 0.41452 0.0
C296 C 0.35775 0.98934 0.51608 0.0
C297 C 0.33791 0.00328 0.54706 0.0
N298 N 0.29921 0.0297 0.54289 0.0
N299 N 0.38419 0.98494 0.4185 0.0
C300 C 0.31649 0.01457 0.51217 0.0
C301 C 0.35933 0.99055 0.44931 0.0
N302 N 0.28941 0.01575 0.41095 0.0
N303 N 0.37528 0.97508 0.55035 0.0
H304 H 0.38656 0.98604 0.36949 0.0
H305 H 0.40472 0.98246 0.44131 0.0
H306 H 0.37665 0.97531 0.59948 0.0
H307 H 0.38633 0.96052 0.5303 0.0
H308 H 0.26961 0.02 0.43092 0.0
H309 H 0.28734 0.01346 0.36188 0.0
H310 H 0.28658 0.0423 0.51994 0.0
H311 H 0.29905 0.0313 0.59198 0.0
C312 C 0.30439 0.30079 0.00225 0.0
C313 C 0.33837 0.32577 0.97432 0.0
C314 C 0.36807 0.34028 0.0783 0.0
C315 C 0.3333 0.31942 0.10667 0.0
N316 N 0.26807 0.28052 0.09768 0.0
N317 N 0.40162 0.37344 -0.01437 0.0
C318 C 0.30134 0.29959 0.06917 0.0
C319 C 0.37013 0.34622 0.01219 0.0
N320 N 0.27538 0.27791 0.96476 0.0
N321 N 0.39914 0.35526 0.11463 0.0
H322 H 0.40412 0.37956 0.93757 0.0
H323 H 0.42422 0.39235 0.01173 0.0
H324 H 0.399 0.35314 0.16367 0.0
H325 H 0.42528 0.3672 0.09585 0.0
H326 H 0.25077 0.25673 -0.01783 0.0
H327 H 0.27695 0.27824 0.91561 0.0
H328 H 0.24329 0.26905 0.07329 0.0
H329 H 0.2653 0.27755 0.14662 0.0
C330 C 0.97616 0.3657 0.46176 0.0
C331 C 0.9826 0.3404 0.49588 0.0
C332 C -0.00542 0.31855 0.39763 0.0
C333 C -0.01354 0.34266 0.3634 0.0
N334 N 0.9645 0.38542 0.36077 0.0
N335 N -0.00715 0.28934 0.49816 0.0
C336 C 0.97546 0.3649 0.39486 0.0
C337 C -0.00969 0.31575 0.46433 0.0
N338 N 0.97243 0.39164 0.49346 0.0
N339 N 0.007 0.29894 0.36636 0.0
H340 H -0.00954 0.28711 0.54719 0.0
H341 H -0.00518 0.26815 0.47769 0.0
H342 H 0.00871 0.29904 0.31726 0.0
H343 H 0.01736 0.28407 0.38886 0.0
H344 H 0.972 0.41361 0.47154 0.0
H345 H 0.97261 0.39305 0.54258 0.0
H346 H 0.95213 0.39876 0.3807 0.0
H347 H 0.96534 0.38724 0.31165 0.0
C348 C 0.59607 0.96641 0.93123 0.0
C349 C 0.62967 0.97722 0.90099 0.0
C350 C 0.65984 0.98449 0.00371 0.0
C351 C 0.62561 0.97103 0.0335 0.0
N352 N 0.56008 0.94477 0.02612 0.0
N353 N 0.69251 0.99254 0.90596 0.0
C354 C 0.59339 0.96046 -0.00265 0.0
C355 C 0.66138 0.9853 0.93656 0.0
N356 N 0.56724 0.96396 0.8973 0.0
N357 N 0.69079 -0.00339 0.03966 0.0
H358 H 0.69438 0.9933 0.85685 0.0
H359 H 0.71557 -0.00487 0.92866 0.0
H360 H 0.69036 -0.00537 0.0888 0.0
H361 H 0.71707 0.01048 0.02135 0.0
H362 H 0.54377 0.96102 0.91788 0.0
H363 H 0.56776 0.96812 0.84864 0.0
H364 H 0.53535 0.93197 0.00147 0.0
H365 H 0.55669 0.94226 0.07486 0.0
C366 C 0.59876 0.62885 0.47575 0.0
C367 C 0.63063 0.65203 0.44044 0.0
C368 C 0.66358 0.68323 0.53703 0.0
C369 C 0.633 0.65759 0.57252 0.0
N370 N 0.57278 0.60396 0.57816 0.0
N371 N 0.69373 0.70025 0.43534 0.0
C372 C 0.60076 0.63008 0.54255 0.0
C373 C 0.66318 0.67906 0.47047 0.0
N374 N 0.56664 0.60549 0.44542 0.0
N375 N 0.69262 0.71172 0.56719 0.0
H376 H 0.69383 0.69909 0.38619 0.0
H377 H 0.71945 0.71769 0.45466 0.0
H378 H 0.69352 0.7152 0.616 0.0
H379 H 0.71454 0.73336 0.544 0.0
H380 H 0.54155 0.59126 0.46802 0.0
H381 H 0.56433 0.60186 0.39667 0.0
H382 H 0.55053 0.58041 0.55961 0.0
H383 H 0.57285 0.6045 0.62732 0.0
C384 C 0.02524 0.53858 0.14771 0.0
C385 C 0.02064 0.54732 0.21016 0.0
C386 C 0.02353 0.49441 0.25192 0.0
C387 C 0.02512 0.48402 0.18907 0.0
N388 N 0.02616 0.4943 0.07687 0.0
N389 N 0.01429 0.53412 0.32176 0.0
C390 C 0.02578 0.5057 0.13686 0.0
C391 C 0.01961 0.52544 0.26236 0.0
N392 N 0.02925 0.56185 0.09891 0.0
N393 N 0.02601 0.47466 0.3015 0.0
H394 H 0.01397 0.55807 0.33165 0.0
H395 H 0.00873 0.51717 0.36107 0.0
H396 H 0.02747 0.45096 0.29577 0.0
H397 H 0.02872 0.48259 0.34847 0.0
H398 H 0.03649 0.55933 0.05335 0.0
H399 H 0.02741 0.58534 0.10441 0.0
H400 H 0.02208 0.50595 0.03633 0.0
H401 H 0.02905 0.47176 0.06741 0.0
C402 C 0.49878 0.03911 0.78272 0.0
C403 C 0.4768 0.03508 0.72906 0.0
C404 C 0.51926 0.02838 0.66123 0.0
C405 C 0.53869 0.02788 0.71583 0.0
N406 N 0.5462 0.03013 0.8291 0.0
N407 N 0.46408 0.02398 0.61769 0.0
C408 C 0.52845 0.03283 0.7768 0.0
C409 C 0.48658 0.02938 0.66829 0.0
N410 N 0.4917 0.04976 0.8389 0.0
N411 N 0.5328 0.02912 0.60269 0.0
H412 H 0.44083 0.02629 0.62053 0.0
H413 H 0.46716 0.01514 0.57377 0.0
H414 H 0.55708 0.02912 0.59604 0.0
H415 H 0.52195 0.03304 0.56099 0.0
H416 H 0.50874 0.0567 0.87837 0.0
H417 H 0.47028 0.05481 0.84448 0.0
H418 H 0.53726 0.02895 0.87504 0.0
H419 H 0.56878 0.02667 0.82663 0.0
C420 C 0.48643 0.50802 0.19693 0.0
C421 C 0.51178 0.52397 0.24741 0.0
C422 C 0.4689 0.47663 0.32014 0.0
C423 C 0.44414 0.45963 0.26904 0.0
N424 N 0.43243 0.45405 0.1567 0.0
N425 N 0.53056 0.52061 0.3541 0.0
C426 C 0.45373 0.47391 0.20674 0.0
C427 C 0.50412 0.50725 0.30806 0.0
N428 N 0.49341 0.52571 0.13989 0.0
N429 N 0.45813 0.4647 0.3806 0.0
H430 H 0.55638 0.54367 0.34772 0.0
H431 H 0.52805 0.50724 0.39696 0.0
H432 H 0.43263 0.44231 0.39157 0.0
H433 H 0.47321 0.47867 0.42041 0.0
H434 H 0.47415 0.51776 0.10359 0.0
H435 H 0.5179 0.54983 0.1301 0.0
H436 H 0.43995 0.46111 0.10977 0.0
H437 H 0.40869 0.42854 0.16183 0.0
C438 C 0.9528 0.49173 0.75354 0.0
C439 C 0.94017 0.50197 0.69917 0.0
C440 C 0.93072 0.44725 0.64363 0.0
C441 C 0.94267 0.43672 0.69863 0.0
N442 N 0.95456 0.44264 0.81061 0.0
N443 N 0.91064 0.48691 0.59698 0.0
C444 C 0.95057 0.45712 0.75508 0.0
C445 C 0.92686 0.47876 0.64568 0.0
N446 N 0.96768 0.5154 0.80312 0.0
N447 N 0.92472 0.42818 0.58882 0.0
H448 H 0.90819 0.51026 0.59632 0.0
H449 H 0.89713 0.46923 0.55954 0.0
H450 H 0.92618 0.40435 0.58607 0.0
H451 H 0.92039 0.43705 0.54523 0.0
H452 H 0.9811 0.51117 0.8409 0.0
H453 H 0.96901 0.54071 0.8044 0.0
H454 H 0.95718 0.45468 0.85443 0.0
H455 H 0.9511 0.4164 0.81358 0.0
C456 C 0.43948 0.94191 0.27743 0.0
C457 C 0.43099 0.95481 0.22123 0.0
C458 C 0.48681 0.9642 0.17177 0.0
C459 C 0.49483 0.95032 0.22708 0.0
N460 N 0.47642 0.91988 0.32823 0.0
N461 N 0.44033 0.96758 0.1098 0.0
C462 C 0.47028 0.93706 0.27851 0.0
C463 C 0.45287 0.96286 0.16683 0.0
N464 N 0.41915 0.93587 0.33045 0.0
N465 N 0.51186 0.97925 0.12441 0.0
H466 H 0.41448 0.96441 0.10417 0.0
H467 H 0.45351 0.97032 0.06725 0.0
H468 H 0.53676 0.97997 0.12555 0.0
H469 H 0.50918 0.9935 0.08622 0.0
H470 H 0.42659 0.93094 0.3749 0.0
H471 H 0.39573 0.93792 0.33095 0.0
H472 H 0.45764 0.90621 0.36402 0.0
H473 H 0.49931 0.91688 0.33144 0.0
C474 C 0.50326 0.52521 0.74363 0.0
C475 C 0.52995 0.53278 0.7911 0.0
C476 C 0.49082 0.47188 0.8379 0.0
C477 C 0.46606 0.4629 0.7863 0.0
N478 N 0.45311 0.47828 0.68276 0.0
N479 N 0.55127 0.51293 0.88076 0.0
C480 C 0.47334 0.4889 0.7373 0.0
C481 C 0.52438 0.50593 0.83743 0.0
N482 N 0.50647 0.5526 0.70439 0.0
N483 N 0.48165 0.44856 0.8885 0.0
H484 H 0.57519 0.53842 0.88462 0.0
H485 H 0.55083 0.49293 0.91059 0.0
H486 H 0.45742 0.42338 0.89052 0.0
H487 H 0.49654 0.45534 0.93057 0.0
H488 H 0.48588 0.54942 0.67324 0.0
H489 H 0.5282 0.57954 0.70698 0.0
H490 H 0.45952 0.49501 0.64285 0.0
H491 H 0.43236 0.45136 0.6747 0.0
C492 C 0.17634 0.40289 0.27651 0.0
C493 C 0.16651 0.40822 0.21486 0.0
C494 C 0.22302 0.41489 0.17285 0.0
C495 C 0.23009 0.40444 0.23268 0.0
N496 N 0.21391 0.38731 0.34169 0.0
N497 N 0.17837 0.41683 0.10294 0.0
C498 C 0.20699 0.39834 0.28477 0.0
C499 C 0.18952 0.41412 0.16263 0.0
N500 N 0.15683 0.40314 0.32716 0.0
N501 N 0.2483 0.42543 0.12601 0.0
H502 H 0.15407 0.41652 0.09342 0.0
H503 H 0.19187 0.41686 0.06228 0.0
H504 H 0.27273 0.42541 0.13184 0.0
H505 H 0.24653 0.43692 0.08331 0.0
H506 H 0.16463 0.40302 0.37391 0.0
H507 H 0.13439 0.40682 0.32257 0.0
H508 H 0.19571 0.37798 0.37916 0.0
H509 H 0.23719 0.38554 0.35062 0.0
C510 C 0.81591 0.19432 0.76028 0.0
C511 C 0.82437 0.21622 0.70483 0.0
C512 C 0.76785 0.16977 0.65426 0.0
C513 C 0.75793 0.14919 0.71145 0.0
N514 N 0.76915 0.14416 0.82199 0.0
N515 N 0.80687 0.22818 0.60255 0.0
C516 C 0.7811 0.162 0.76536 0.0
C517 C 0.79978 0.20504 0.65295 0.0
N518 N 0.84126 0.20432 0.80781 0.0
N519 N 0.74788 0.15478 0.60032 0.0
H520 H 0.83077 0.25367 0.59871 0.0
H521 H 0.78793 0.22336 0.56676 0.0
H522 H 0.72477 0.1286 0.59868 0.0
H523 H 0.75603 0.16681 0.55585 0.0
H524 H 0.8384 0.1874 0.8461 0.0
H525 H 0.86648 0.22868 0.80704 0.0
H526 H 0.78313 0.15429 0.86449 0.0
H527 H 0.74357 0.12063 0.82766 0.0
C528 C 0.54908 0.74338 0.27204 0.0
C529 C 0.55858 0.73247 0.21599 0.0
C530 C 0.55977 0.78346 0.15804 0.0
C531 C 0.55645 0.79769 0.21616 0.0
N532 N 0.54923 0.79266 0.32941 0.0
N533 N 0.57301 0.74095 0.10519 0.0
C534 C 0.55073 0.77774 0.27339 0.0
C535 C 0.56334 0.75181 0.15847 0.0
N536 N 0.53844 0.72071 0.32374 0.0
N537 N 0.55914 0.80011 0.10267 0.0
H538 H 0.57446 0.71706 0.10335 0.0
H539 H 0.58134 0.75642 0.06373 0.0
H540 H 0.55633 0.82327 0.10122 0.0
H541 H 0.55817 0.78933 0.0583 0.0
H542 H 0.52784 0.72535 0.36429 0.0
H543 H 0.53704 0.69531 0.32377 0.0
H544 H 0.5496 0.78151 0.37333 0.0
H545 H 0.54999 0.81765 0.33254 0.0
C546 C 0.77897 0.57702 0.67058 0.0
C547 C 0.79928 0.57783 0.72485 0.0
C548 C 0.75701 0.58407 0.7935 0.0
C549 C 0.73677 0.58342 0.73922 0.0
N550 N 0.72282 0.57121 0.62858 0.0
N551 N 0.80382 0.57333 0.83763 0.0
C552 C 0.74595 0.57723 0.67843 0.0
C553 C 0.78699 0.57848 0.78633 0.0
N554 N 0.79221 0.57795 0.61167 0.0
N555 N 0.74877 0.59194 0.8513 0.0
H556 H 0.8259 0.56913 0.83364 0.0
H557 H 0.79404 0.56994 0.88348 0.0
H558 H 0.72658 0.59557 0.85875 0.0
H559 H 0.7652 0.59723 0.89125 0.0
H560 H 0.781 0.58184 0.57038 0.0
H561 H 0.81595 0.57703 0.60405 0.0
H562 H 0.72607 0.56305 0.58416 0.0
H563 H 0.69843 0.5713 0.63314 0.0
C564 C 0.18931 0.82603 0.16264 0.0
C565 C 0.21217 0.83623 0.21696 0.0
C566 C 0.1674 0.78059 0.27223 0.0
C567 C 0.14579 0.76898 0.21627 0.0
N568 N 0.13859 0.77705 0.10515 0.0
N569 N 0.22637 0.82163 0.31998 0.0
C570 C 0.15732 0.79076 0.16058 0.0
C571 C 0.20231 0.81292 0.27065 0.0
N572 N 0.19806 0.85017 0.11328 0.0
N573 N 0.15375 0.76187 0.32769 0.0
H574 H 0.25163 0.8459 0.32168 0.0
H575 H 0.22248 0.80364 0.35709 0.0
H576 H 0.12792 0.73848 0.33137 0.0
H577 H 0.16656 0.7713 0.3713 0.0
H578 H 0.18042 0.84608 0.07562 0.0
H579 H 0.22212 0.87565 0.11185 0.0
H580 H 0.14777 0.78996 0.06157 0.0
H581 H 0.11533 0.75105 0.10161 0.0
C582 C 0.42695 0.2401 0.78357 0.0
C583 C 0.41078 0.25072 0.73532 0.0
C584 C 0.4014 0.1991 0.67032 0.0
C585 C 0.4119 0.18522 0.72263 0.0
N586 N 0.43139 0.19035 0.83183 0.0
N587 N 0.38236 0.24132 0.63262 0.0
C588 C 0.4245 0.20542 0.77972 0.0
C589 C 0.39819 0.23066 0.67831 0.0
N590 N 0.44408 0.26291 0.83348 0.0
N591 N 0.39522 0.18243 0.6129 0.0
H592 H 0.38146 0.2655 0.6354 0.0
H593 H 0.36858 0.22544 0.59344 0.0
H594 H 0.39796 0.15955 0.60561 0.0
H595 H 0.39068 0.19304 0.57143 0.0
H596 H 0.4597 0.25845 0.8668 0.0
H597 H 0.44542 0.2881 0.83854 0.0
H598 H 0.43631 0.20191 0.8766 0.0
H599 H 0.42929 0.16469 0.83206 0.0
loop_
_geom_bond_atom_site_label_1
_geom_bond_atom_site_label_2
_geom_bond_distance
_geom_bond_site_symmetry_2
_ccdc_geom_bond_type
C0 O1 1.306 1_455 S
C0 O3 1.160 . S
O1 C0 1.306 1_655 S
O1 Cd2 2.228 . S
Cd2 O1 2.228 . S
Cd2 O6 2.273 1_655 S
Cd2 O10 2.277 1_655 S
O3 C0 1.160 . S
O3 Cd4 2.203 . S
Cd4 O3 2.203 . S
Cd4 O6 2.411 . S
Cd4 O7 2.333 . S
Cd4 O8 2.352 . S
Cd4 O12 2.277 . S
Cd4 O13 2.356 . S
C5 O10 1.209 . S
C5 O12 1.226 . S
O6 Cd2 2.273 1_455 S
O6 Cd4 2.411 . S
O6 C9 1.320 . S
O7 Cd4 2.333 . S
O7 C9 1.214 . S
O8 Cd4 2.352 . S
O8 C11 1.258 . S
C9 O6 1.320 . S
C9 O7 1.214 . S
O10 Cd2 2.277 1_455 S
O10 C5 1.209 . S
C11 O8 1.258 . S
C11 O13 1.282 . S
O12 Cd4 2.277 . S
O12 C5 1.226 . S
O13 Cd4 2.356 . S
O13 C11 1.282 . S
C14 O15 1.306 1_545 S
C14 O17 1.160 . S
O15 C14 1.306 1_565 S
O15 Cd16 2.228 . S
Cd16 O15 2.228 . S
Cd16 O20 2.273 1_565 S
Cd16 O24 2.277 1_565 S
O17 C14 1.160 . S
O17 Cd18 2.203 . S
Cd18 O17 2.203 . S
Cd18 O20 2.411 . S
Cd18 O21 2.333 . S
Cd18 O22 2.352 . S
Cd18 O26 2.277 . S
Cd18 O27 2.356 . S
C19 O24 1.209 . S
C19 O26 1.226 . S
O20 Cd16 2.273 1_545 S
O20 Cd18 2.411 . S
O20 C23 1.320 . S
O21 Cd18 2.333 . S
O21 C23 1.214 . S
O22 Cd18 2.352 . S
O22 C25 1.258 . S
C23 O20 1.320 . S
C23 O21 1.214 . S
O24 Cd16 2.277 1_545 S
O24 C19 1.209 . S
C25 O22 1.258 . S
C25 O27 1.282 . S
O26 Cd18 2.277 . S
O26 C19 1.226 . S
O27 Cd18 2.356 . S
O27 C25 1.282 . S
C28 O29 1.306 . S
C28 O31 1.160 . S
O29 C28 1.306 . S
O29 Cd30 2.228 . S
Cd30 O29 2.228 . S
Cd30 O34 2.273 . S
Cd30 O38 2.277 . S
O31 C28 1.160 . S
O31 Cd32 2.203 . S
Cd32 O31 2.203 . S
Cd32 O34 2.411 . S
Cd32 O35 2.333 . S
Cd32 O36 2.352 . S
Cd32 O40 2.277 . S
Cd32 O41 2.356 . S
C33 O38 1.209 . S
C33 O40 1.226 . S
O34 Cd30 2.273 . S
O34 Cd32 2.411 . S
O34 C37 1.320 . S
O35 Cd32 2.333 . S
O35 C37 1.214 . S
O36 Cd32 2.352 . S
O36 C39 1.258 . S
C37 O34 1.320 . S
C37 O35 1.214 . S
O38 Cd30 2.277 . S
O38 C33 1.209 . S
C39 O36 1.258 . S
C39 O41 1.282 . S
O40 Cd32 2.277 . S
O40 C33 1.226 . S
O41 Cd32 2.356 . S
O41 C39 1.282 . S
C42 O43 1.306 1_655 S
C42 O45 1.160 . S
O43 C42 1.306 1_455 S
O43 Cd44 2.228 . S
Cd44 O43 2.228 . S
Cd44 O48 2.273 1_455 S
Cd44 O52 2.277 1_455 S
O45 C42 1.160 . S
O45 Cd46 2.203 . S
Cd46 O45 2.203 . S
Cd46 O48 2.411 . S
Cd46 O49 2.333 . S
Cd46 O50 2.352 . S
Cd46 O54 2.277 . S
Cd46 O55 2.356 . S
C47 O52 1.209 . S
C47 O54 1.226 . S
O48 Cd44 2.273 1_655 S
O48 Cd46 2.411 . S
O48 C51 1.320 . S
O49 Cd46 2.333 . S
O49 C51 1.214 . S
O50 Cd46 2.352 . S
O50 C53 1.258 . S
C51 O48 1.320 . S
C51 O49 1.214 . S
O52 Cd44 2.277 1_655 S
O52 C47 1.209 . S
C53 O50 1.258 . S
C53 O55 1.282 . S
O54 Cd46 2.277 . S
O54 C47 1.226 . S
O55 Cd46 2.356 . S
O55 C53 1.282 . S
C56 O57 1.306 1_565 S
C56 O59 1.160 . S
O57 C56 1.306 1_545 S
O57 Cd58 2.228 . S
Cd58 O57 2.228 . S
Cd58 O62 2.273 1_545 S
Cd58 O66 2.277 1_545 S
O59 C56 1.160 . S
O59 Cd60 2.203 . S
Cd60 O59 2.203 . S
Cd60 O62 2.411 . S
Cd60 O63 2.333 . S
Cd60 O64 2.352 . S
Cd60 O68 2.277 . S
Cd60 O69 2.356 . S
C61 O66 1.209 . S
C61 O68 1.226 . S
O62 Cd58 2.273 1_565 S
O62 Cd60 2.411 . S
O62 C65 1.320 . S
O63 Cd60 2.333 . S
O63 C65 1.214 . S
O64 Cd60 2.352 . S
O64 C67 1.258 . S
C65 O62 1.320 . S
C65 O63 1.214 . S
O66 Cd58 2.277 1_565 S
O66 C61 1.209 . S
C67 O64 1.258 . S
C67 O69 1.282 . S
O68 Cd60 2.277 . S
O68 C61 1.226 . S
O69 Cd60 2.356 . S
O69 C67 1.282 . S
C70 O71 1.306 . S
C70 O73 1.160 . S
O71 C70 1.306 . S
O71 Cd72 2.228 . S
Cd72 O71 2.228 . S
Cd72 O76 2.273 . S
Cd72 O80 2.277 . S
O73 C70 1.160 . S
O73 Cd74 2.203 . S
Cd74 O73 2.203 . S
Cd74 O76 2.411 . S
Cd74 O77 2.333 . S
Cd74 O78 2.352 . S
Cd74 O82 2.277 . S
Cd74 O83 2.356 . S
C75 O80 1.209 . S
C75 O82 1.226 . S
O76 Cd72 2.273 . S
O76 Cd74 2.411 . S
O76 C79 1.320 . S
O77 Cd74 2.333 . S
O77 C79 1.214 . S
O78 Cd74 2.352 . S
O78 C81 1.258 . S
C79 O76 1.320 . S
C79 O77 1.214 . S
O80 Cd72 2.277 . S
O80 C75 1.209 . S
C81 O78 1.258 . S
C81 O83 1.282 . S
O82 Cd74 2.277 . S
O82 C75 1.226 . S
O83 Cd74 2.356 . S
O83 C81 1.282 . S
C84 O85 1.306 1_565 S
C84 O87 1.160 . S
O85 C84 1.306 1_545 S
O85 Cd86 2.228 . S
Cd86 O85 2.228 . S
Cd86 O90 2.273 1_545 S
Cd86 O94 2.277 1_545 S
O87 C84 1.160 . S
O87 Cd88 2.203 . S
Cd88 O87 2.203 . S
Cd88 O90 2.411 . S
Cd88 O91 2.333 . S
Cd88 O92 2.352 . S
Cd88 O96 2.277 . S
Cd88 O97 2.356 . S
C89 O94 1.209 . S
C89 O96 1.226 . S
O90 Cd86 2.273 1_565 S
O90 Cd88 2.411 . S
O90 C93 1.320 . S
O91 Cd88 2.333 . S
O91 C93 1.214 . S
O92 Cd88 2.352 . S
O92 C95 1.258 . S
C93 O90 1.320 . S
C93 O91 1.214 . S
O94 Cd86 2.277 1_565 S
O94 C89 1.209 . S
C95 O92 1.258 . S
C95 O97 1.282 . S
O96 Cd88 2.277 . S
O96 C89 1.226 . S
O97 Cd88 2.356 . S
O97 C95 1.282 . S
C98 O99 1.306 . S
C98 O101 1.160 . S
O99 C98 1.306 . S
O99 Cd100 2.228 . S
Cd100 O99 2.228 . S
Cd100 O104 2.273 . S
Cd100 O108 2.277 . S
O101 C98 1.160 . S
O101 Cd102 2.203 . S
Cd102 O101 2.203 . S
Cd102 O104 2.411 . S
Cd102 O105 2.333 . S
Cd102 O106 2.352 . S
Cd102 O110 2.277 . S
Cd102 O111 2.356 . S
C103 O108 1.209 . S
C103 O110 1.226 . S
O104 Cd100 2.273 . S
O104 Cd102 2.411 . S
O104 C107 1.320 . S
O105 Cd102 2.333 . S
O105 C107 1.214 . S
O106 Cd102 2.352 . S
O106 C109 1.258 . S
C107 O104 1.320 . S
C107 O105 1.214 . S
O108 Cd100 2.277 . S
O108 C103 1.209 . S
C109 O106 1.258 . S
C109 O111 1.282 . S
O110 Cd102 2.277 . S
O110 C103 1.226 . S
O111 Cd102 2.356 . S
O111 C109 1.282 . S
C112 O113 1.306 1_455 S
C112 O115 1.160 . S
O113 C112 1.306 1_655 S
O113 Cd114 2.228 . S
Cd114 O113 2.228 . S
Cd114 O118 2.273 1_655 S
Cd114 O122 2.277 1_655 S
O115 C112 1.160 . S
O115 Cd116 2.203 . S
Cd116 O115 2.203 . S
Cd116 O118 2.411 . S
Cd116 O119 2.333 . S
Cd116 O120 2.352 . S
Cd116 O124 2.277 . S
Cd116 O125 2.356 . S
C117 O122 1.209 . S
C117 O124 1.226 . S
O118 Cd114 2.273 1_455 S
O118 Cd116 2.411 . S
O118 C121 1.320 . S
O119 Cd116 2.333 . S
O119 C121 1.214 . S
O120 Cd116 2.352 . S
O120 C123 1.258 . S
C121 O118 1.320 . S
C121 O119 1.214 . S
O122 Cd114 2.277 1_455 S
O122 C117 1.209 . S
C123 O120 1.258 . S
C123 O125 1.282 . S
O124 Cd116 2.277 . S
O124 C117 1.226 . S
O125 Cd116 2.356 . S
O125 C123 1.282 . S
C126 O127 1.306 1_545 S
C126 O129 1.160 . S
O127 C126 1.306 1_565 S
O127 Cd128 2.228 . S
Cd128 O127 2.228 . S
Cd128 O132 2.273 1_565 S
Cd128 O136 2.277 1_565 S
O129 C126 1.160 . S
O129 Cd130 2.203 . S
Cd130 O129 2.203 . S
Cd130 O132 2.411 . S
Cd130 O133 2.333 . S
Cd130 O134 2.352 . S
Cd130 O138 2.277 . S
Cd130 O139 2.356 . S
C131 O136 1.209 . S
C131 O138 1.226 . S
O132 Cd128 2.273 1_545 S
O132 Cd130 2.411 . S
O132 C135 1.320 . S
O133 Cd130 2.333 . S
O133 C135 1.214 . S
O134 Cd130 2.352 . S
O134 C137 1.258 . S
C135 O132 1.320 . S
C135 O133 1.214 . S
O136 Cd128 2.277 1_545 S
O136 C131 1.209 . S
C137 O134 1.258 . S
C137 O139 1.282 . S
O138 Cd130 2.277 . S
O138 C131 1.226 . S
O139 Cd130 2.356 . S
O139 C137 1.282 . S
C140 O141 1.306 . S
C140 O143 1.160 . S
O141 C140 1.306 . S
O141 Cd142 2.228 . S
Cd142 O141 2.228 . S
Cd142 O146 2.273 . S
Cd142 O150 2.277 . S
O143 C140 1.160 . S
O143 Cd144 2.203 . S
Cd144 O143 2.203 . S
Cd144 O146 2.411 . S
Cd144 O147 2.333 . S
Cd144 O148 2.352 . S
Cd144 O152 2.277 . S
Cd144 O153 2.356 . S
C145 O150 1.209 . S
C145 O152 1.226 . S
O146 Cd142 2.273 . S
O146 Cd144 2.411 . S
O146 C149 1.320 . S
O147 Cd144 2.333 . S
O147 C149 1.214 . S
O148 Cd144 2.352 . S
O148 C151 1.258 . S
C149 O146 1.320 . S
C149 O147 1.214 . S
O150 Cd142 2.277 . S
O150 C145 1.209 . S
C151 O148 1.258 . S
C151 O153 1.282 . S
O152 Cd144 2.277 . S
O152 C145 1.226 . S
O153 Cd144 2.356 . S
O153 C151 1.282 . S
C154 O155 1.306 1_655 S
C154 O157 1.160 . S
O155 C154 1.306 1_455 S
O155 Cd156 2.228 . S
Cd156 O155 2.228 . S
Cd156 O160 2.273 1_455 S
Cd156 O164 2.277 1_455 S
O157 C154 1.160 . S
O157 Cd158 2.203 . S
Cd158 O157 2.203 . S
Cd158 O160 2.411 . S
Cd158 O161 2.333 . S
Cd158 O162 2.352 . S
Cd158 O166 2.277 . S
Cd158 O167 2.356 . S
C159 O164 1.209 . S
C159 O166 1.226 . S
O160 Cd156 2.273 1_655 S
O160 Cd158 2.411 . S
O160 C163 1.320 . S
O161 Cd158 2.333 . S
O161 C163 1.214 . S
O162 Cd158 2.352 . S
O162 C165 1.258 . S
C163 O160 1.320 . S
C163 O161 1.214 . S
O164 Cd156 2.277 1_655 S
O164 C159 1.209 . S
C165 O162 1.258 . S
C165 O167 1.282 . S
O166 Cd158 2.277 . S
O166 C159 1.226 . S
O167 Cd158 2.356 . S
O167 C165 1.282 . S
C168 C169 1.363 . S
C168 C174 1.378 1_454 S
C168 N176 1.356 . S
C169 C168 1.363 . S
C169 C175 1.362 . S
C170 C171 1.363 . S
C170 C175 1.378 1_656 S
C170 N177 1.356 . S
C171 C170 1.363 . S
C171 C174 1.362 . S
N172 C174 1.358 . S
N172 H184 0.984 1_655 S
N172 H185 0.985 . S
N173 C175 1.358 . S
N173 H178 0.984 . S
N173 H179 0.985 1_455 S
C174 C168 1.378 1_656 S
C174 C171 1.362 . S
C174 N172 1.358 . S
C175 C169 1.362 . S
C175 C170 1.378 1_454 S
C175 N173 1.358 . S
N176 C168 1.356 . S
N176 H182 0.984 . S
N176 H183 0.984 . S
N177 C170 1.356 . S
N177 H180 0.984 . S
N177 H181 0.985 . S
H178 N173 0.984 . S
H179 N173 0.985 1_655 S
H180 N177 0.984 . S
H181 N177 0.985 . S
H182 N176 0.984 . S
H183 N176 0.984 . S
H184 N172 0.984 1_455 S
H185 N172 0.985 . S
C186 C187 1.363 1_545 S
C186 C192 1.379 . S
C186 N194 1.356 . S
C187 C186 1.363 1_565 S
C187 C193 1.363 . S
C188 C189 1.363 1_565 S
C188 C193 1.379 . S
C188 N195 1.356 . S
C189 C188 1.363 1_545 S
C189 C192 1.363 . S
N190 C192 1.356 . S
N190 H202 0.984 . S
N190 H203 0.985 . S
N191 C193 1.356 . S
N191 H196 0.984 . S
N191 H197 0.985 . S
C192 C186 1.379 . S
C192 C189 1.363 . S
C192 N190 1.356 . S
C193 C187 1.363 . S
C193 C188 1.379 . S
C193 N191 1.356 . S
N194 C186 1.356 . S
N194 H200 0.984 . S
N194 H201 0.984 . S
N195 C188 1.356 . S
N195 H198 0.984 . S
N195 H199 0.985 . S
H196 N191 0.984 . S
H197 N191 0.985 . S
H198 N195 0.984 . S
H199 N195 0.985 . S
H200 N194 0.984 . S
H201 N194 0.984 . S
H202 N190 0.984 . S
H203 N190 0.985 . S
C204 C205 1.363 . S
C204 C210 1.379 1_554 S
C204 N212 1.356 . S
C205 C204 1.363 . S
C205 C211 1.363 . S
C206 C207 1.363 . S
C206 C211 1.379 1_556 S
C206 N213 1.356 . S
C207 C206 1.363 . S
C207 C210 1.363 . S
N208 C210 1.356 . S
N208 H220 0.984 . S
N208 H221 0.985 . S
N209 C211 1.356 . S
N209 H214 0.984 . S
N209 H215 0.985 . S
C210 C204 1.379 1_556 S
C210 C207 1.363 . S
C210 N208 1.356 . S
C211 C205 1.363 . S
C211 C206 1.379 1_554 S
C211 N209 1.356 . S
N212 C204 1.356 . S
N212 H218 0.984 . S
N212 H219 0.984 . S
N213 C206 1.356 . S
N213 H216 0.984 . S
N213 H217 0.985 . S
H214 N209 0.984 . S
H215 N209 0.985 . S
H216 N213 0.984 . S
H217 N213 0.985 . S
H218 N212 0.984 . S
H219 N212 0.984 . S
H220 N208 0.984 . S
H221 N208 0.985 . S
C222 C223 1.363 1_655 S
C222 C228 1.379 . S
C222 N230 1.356 . S
C223 C222 1.363 1_455 S
C223 C229 1.363 . S
C224 C225 1.363 1_455 S
C224 C229 1.379 . S
C224 N231 1.356 . S
C225 C224 1.363 1_655 S
C225 C228 1.363 . S
N226 C228 1.356 . S
N226 H238 0.984 . S
N226 H239 0.985 . S
N227 C229 1.356 . S
N227 H232 0.984 . S
N227 H233 0.985 . S
C228 C222 1.379 . S
C228 C225 1.363 . S
C228 N226 1.356 . S
C229 C223 1.363 . S
C229 C224 1.379 . S
C229 N227 1.356 . S
N230 C222 1.356 . S
N230 H236 0.984 . S
N230 H237 0.984 . S
N231 C224 1.356 . S
N231 H234 0.984 . S
N231 H235 0.985 . S
H232 N227 0.984 . S
H233 N227 0.985 . S
H234 N231 0.984 . S
H235 N231 0.985 . S
H236 N230 0.984 . S
H237 N230 0.984 . S
H238 N226 0.984 . S
H239 N226 0.985 . S
C240 C241 1.363 . S
C240 C246 1.379 1_556 S
C240 N248 1.356 . S
C241 C240 1.363 . S
C241 C247 1.363 1_545 S
C242 C243 1.363 . S
C242 C247 1.379 1_554 S
C242 N249 1.356 . S
C243 C242 1.363 . S
C243 C246 1.363 1_565 S
N244 C246 1.356 . S
N244 H256 0.984 . S
N244 H257 0.985 . S
N245 C247 1.356 . S
N245 H250 0.984 . S
N245 H251 0.985 . S
C246 C240 1.379 1_554 S
C246 C243 1.363 1_545 S
C246 N244 1.356 . S
C247 C241 1.363 1_565 S
C247 C242 1.379 1_556 S
C247 N245 1.356 . S
N248 C240 1.356 . S
N248 H254 0.984 . S
N248 H255 0.984 . S
N249 C242 1.356 . S
N249 H252 0.984 . S
N249 H253 0.985 . S
H250 N245 0.984 . S
H251 N245 0.985 . S
H252 N249 0.984 . S
H253 N249 0.985 . S
H254 N248 0.984 . S
H255 N248 0.984 . S
H256 N244 0.984 . S
H257 N244 0.985 . S
C258 C259 1.363 . S
C258 C264 1.379 . S
C258 N266 1.356 . S
C259 C258 1.363 . S
C259 C265 1.363 . S
C260 C261 1.363 . S
C260 C265 1.379 . S
C260 N267 1.356 . S
C261 C260 1.363 . S
C261 C264 1.363 . S
N262 C264 1.356 . S
N262 H274 0.984 . S
N262 H275 0.985 . S
N263 C265 1.356 . S
N263 H268 0.984 . S
N263 H269 0.985 . S
C264 C258 1.379 . S
C264 C261 1.363 . S
C264 N262 1.356 . S
C265 C259 1.363 . S
C265 C260 1.379 . S
C265 N263 1.356 . S
N266 C258 1.356 . S
N266 H272 0.984 . S
N266 H273 0.984 . S
N267 C260 1.356 . S
N267 H270 0.984 . S
N267 H271 0.985 . S
H268 N263 0.984 . S
H269 N263 0.985 . S
H270 N267 0.984 . S
H271 N267 0.985 . S
H272 N266 0.984 . S
H273 N266 0.984 . S
H274 N262 0.984 . S
H275 N262 0.985 . S
C276 C277 1.363 1_455 S
C276 C282 1.379 1_556 S
C276 N284 1.356 . S
C277 C276 1.363 1_655 S
C277 C283 1.363 . S
C278 C279 1.363 1_655 S
C278 C283 1.379 1_554 S
C278 N285 1.356 . S
C279 C278 1.363 1_455 S
C279 C282 1.363 . S
N280 C282 1.356 . S
N280 H292 0.984 . S
N280 H293 0.985 . S
N281 C283 1.356 . S
N281 H286 0.984 . S
N281 H287 0.985 . S
C282 C276 1.379 1_554 S
C282 C279 1.363 . S
C282 N280 1.356 . S
C283 C277 1.363 . S
C283 C278 1.379 1_556 S
C283 N281 1.356 . S
N284 C276 1.356 . S
N284 H290 0.984 . S
N284 H291 0.984 . S
N285 C278 1.356 . S
N285 H288 0.984 . S
N285 H289 0.985 . S
H286 N281 0.984 . S
H287 N281 0.985 . S
H288 N285 0.984 . S
H289 N285 0.985 . S
H290 N284 0.984 . S
H291 N284 0.984 . S
H292 N280 0.984 . S
H293 N280 0.985 . S
C294 C295 1.363 . S
C294 C300 1.379 . S
C294 N302 1.356 . S
C295 C294 1.363 . S
C295 C301 1.363 1_565 S
C296 C297 1.363 . S
C296 C301 1.379 . S
C296 N303 1.356 . S
C297 C296 1.363 . S
C297 C300 1.363 1_545 S
N298 C300 1.356 . S
N298 H310 0.984 . S
N298 H311 0.985 . S
N299 C301 1.356 . S
N299 H304 0.984 . S
N299 H305 0.985 . S
C300 C294 1.379 . S
C300 C297 1.363 1_565 S
C300 N298 1.356 . S
C301 C295 1.363 1_545 S
C301 C296 1.379 . S
C301 N299 1.356 . S
N302 C294 1.356 . S
N302 H308 0.984 . S
N302 H309 0.984 . S
N303 C296 1.356 . S
N303 H306 0.984 . S
N303 H307 0.985 . S
H304 N299 0.984 . S
H305 N299 0.985 . S
H306 N303 0.984 . S
H307 N303 0.985 . S
H308 N302 0.984 . S
H309 N302 0.984 . S
H310 N298 0.984 . S
H311 N298 0.985 . S
C312 C313 1.363 . S
C312 C318 1.379 1_556 S
C312 N320 1.356 . S
C313 C312 1.363 . S
C313 C319 1.363 . S
C314 C315 1.363 . S
C314 C319 1.379 1_554 S
C314 N321 1.356 . S
C315 C314 1.363 . S
C315 C318 1.363 . S
N316 C318 1.356 . S
N316 H328 0.984 . S
N316 H329 0.985 . S
N317 C319 1.356 . S
N317 H322 0.984 . S
N317 H323 0.985 . S
C318 C312 1.379 1_554 S
C318 C315 1.363 . S
C318 N316 1.356 . S
C319 C313 1.363 . S
C319 C314 1.379 1_556 S
C319 N317 1.356 . S
N320 C312 1.356 . S
N320 H326 0.984 . S
N320 H327 0.984 . S
N321 C314 1.356 . S
N321 H324 0.984 . S
N321 H325 0.985 . S
H322 N317 0.984 . S
H323 N317 0.985 . S
H324 N321 0.984 . S
H325 N321 0.985 . S
H326 N320 0.984 . S
H327 N320 0.984 . S
H328 N316 0.984 . S
H329 N316 0.985 . S
C330 C331 1.363 . S
C330 C336 1.379 1_655 S
C330 N338 1.356 . S
C331 C330 1.363 . S
C331 C337 1.363 . S
C332 C333 1.363 . S
C332 C337 1.379 1_455 S
C332 N339 1.356 . S
C333 C332 1.363 . S
C333 C336 1.363 . S
N334 C336 1.356 . S
N334 H346 0.984 . S
N334 H347 0.985 . S
N335 C337 1.356 . S
N335 H340 0.984 . S
N335 H341 0.985 . S
C336 C330 1.379 1_455 S
C336 C333 1.363 . S
C336 N334 1.356 . S
C337 C331 1.363 . S
C337 C332 1.379 1_655 S
C337 N335 1.356 . S
N338 C330 1.356 . S
N338 H344 0.984 . S
N338 H345 0.984 . S
N339 C332 1.356 . S
N339 H342 0.984 . S
N339 H343 0.985 . S
H340 N335 0.984 . S
H341 N335 0.985 . S
H342 N339 0.984 . S
H343 N339 0.985 . S
H344 N338 0.984 . S
H345 N338 0.984 . S
H346 N334 0.984 . S
H347 N334 0.985 . S
C348 C349 1.363 1_565 S
C348 C354 1.379 1_556 S
C348 N356 1.356 . S
C349 C348 1.363 1_545 S
C349 C355 1.363 . S
C350 C351 1.363 1_545 S
C350 C355 1.379 1_554 S
C350 N357 1.356 . S
C351 C350 1.363 1_565 S
C351 C354 1.363 . S
N352 C354 1.356 . S
N352 H364 0.984 . S
N352 H365 0.985 . S
N353 C355 1.356 . S
N353 H358 0.984 . S
N353 H359 0.985 . S
C354 C348 1.379 1_554 S
C354 C351 1.363 . S
C354 N352 1.356 . S
C355 C349 1.363 . S
C355 C350 1.379 1_556 S
C355 N353 1.356 . S
N356 C348 1.356 . S
N356 H362 0.984 . S
N356 H363 0.984 . S
N357 C350 1.356 . S
N357 H360 0.984 . S
N357 H361 0.985 . S
H358 N353 0.984 . S
H359 N353 0.985 . S
H360 N357 0.984 . S
H361 N357 0.985 . S
H362 N356 0.984 . S
H363 N356 0.984 . S
H364 N352 0.984 . S
H365 N352 0.985 . S
C366 C367 1.363 . S
C366 C372 1.379 . S
C366 N374 1.356 . S
C367 C366 1.363 . S
C367 C373 1.363 . S
C368 C369 1.363 . S
C368 C373 1.379 . S
C368 N375 1.356 . S
C369 C368 1.363 . S
C369 C372 1.363 . S
N370 C372 1.356 . S
N370 H382 0.984 . S
N370 H383 0.985 . S
N371 C373 1.356 . S
N371 H376 0.984 . S
N371 H377 0.985 . S
C372 C366 1.379 . S
C372 C369 1.363 . S
C372 N370 1.356 . S
C373 C367 1.363 . S
C373 C368 1.379 . S
C373 N371 1.356 . S
N374 C366 1.356 . S
N374 H380 0.984 . S
N374 H381 0.984 . S
N375 C368 1.356 . S
N375 H378 0.984 . S
N375 H379 0.985 . S
H376 N371 0.984 . S
H377 N371 0.985 . S
H378 N375 0.984 . S
H379 N375 0.985 . S
H380 N374 0.984 . S
H381 N374 0.984 . S
H382 N370 0.984 . S
H383 N370 0.985 . S
C384 C385 1.363 . S
C384 C390 1.379 . S
C384 N392 1.356 . S
C385 C384 1.363 . S
C385 C391 1.363 . S
C386 C387 1.363 . S
C386 C391 1.379 . S
C386 N393 1.356 . S
C387 C386 1.363 . S
C387 C390 1.363 . S
N388 C390 1.356 . S
N388 H400 0.984 1_455 S
N388 H401 0.985 . S
N389 C391 1.356 . S
N389 H394 0.984 . S
N389 H395 0.985 . S
C390 C384 1.379 . S
C390 C387 1.363 . S
C390 N388 1.356 . S
C391 C385 1.363 . S
C391 C386 1.379 . S
C391 N389 1.356 . S
N392 C384 1.356 . S
N392 H398 0.984 1_455 S
N392 H399 0.984 . S
N393 C386 1.356 . S
N393 H396 0.984 . S
N393 H397 0.985 . S
H394 N389 0.984 . S
H395 N389 0.985 . S
H396 N393 0.984 . S
H397 N393 0.985 . S
H398 N392 0.984 1_655 S
H399 N392 0.984 . S
H400 N388 0.984 1_655 S
H401 N388 0.985 . S
C402 C403 1.363 . S
C402 C408 1.379 . S
C402 N410 1.356 1_545 S
C403 C402 1.363 . S
C403 C409 1.363 . S
C404 C405 1.363 . S
C404 C409 1.379 . S
C404 N411 1.356 . S
C405 C404 1.363 . S
C405 C408 1.363 . S
N406 C408 1.356 1_565 S
N406 H418 0.984 . S
N406 H419 0.985 1_565 S
N407 C409 1.356 . S
N407 H412 0.984 . S
N407 H413 0.985 . S
C408 C402 1.379 . S
C408 C405 1.363 . S
C408 N406 1.356 1_545 S
C409 C403 1.363 . S
C409 C404 1.379 . S
C409 N407 1.356 . S
N410 C402 1.356 1_565 S
N410 H416 0.984 . S
N410 H417 0.984 1_565 S
N411 C404 1.356 . S
N411 H414 0.984 . S
N411 H415 0.985 . S
H412 N407 0.984 . S
H413 N407 0.985 . S
H414 N411 0.984 . S
H415 N411 0.985 . S
H416 N410 0.984 . S
H417 N410 0.984 1_545 S
H418 N406 0.984 . S
H419 N406 0.985 1_545 S
C420 C421 1.363 . S
C420 C426 1.379 . S
C420 N428 1.356 . S
C421 C420 1.363 . S
C421 C427 1.363 . S
C422 C423 1.363 . S
C422 C427 1.379 . S
C422 N429 1.356 . S
C423 C422 1.363 . S
C423 C426 1.363 . S
N424 C426 1.356 . S
N424 H436 0.984 . S
N424 H437 0.985 . S
N425 C427 1.356 . S
N425 H430 0.984 . S
N425 H431 0.985 . S
C426 C420 1.379 . S
C426 C423 1.363 . S
C426 N424 1.356 . S
C427 C421 1.363 . S
C427 C422 1.379 . S
C427 N425 1.356 . S
N428 C420 1.356 . S
N428 H434 0.984 . S
N428 H435 0.984 . S
N429 C422 1.356 . S
N429 H432 0.984 . S
N429 H433 0.985 . S
H430 N425 0.984 . S
H431 N425 0.985 . S
H432 N429 0.984 . S
H433 N429 0.985 . S
H434 N428 0.984 . S
H435 N428 0.984 . S
H436 N424 0.984 . S
H437 N424 0.985 . S
C438 C439 1.363 . S
C438 C444 1.379 . S
C438 N446 1.356 . S
C439 C438 1.363 . S
C439 C445 1.363 . S
C440 C441 1.363 . S
C440 C445 1.379 . S
C440 N447 1.356 . S
C441 C440 1.363 . S
C441 C444 1.363 . S
N442 C444 1.356 . S
N442 H454 0.984 1_655 S
N442 H455 0.985 . S
N443 C445 1.356 . S
N443 H448 0.984 . S
N443 H449 0.985 . S
C444 C438 1.379 . S
C444 C441 1.363 . S
C444 N442 1.356 . S
C445 C439 1.363 . S
C445 C440 1.379 . S
C445 N443 1.356 . S
N446 C438 1.356 . S
N446 H452 0.984 1_655 S
N446 H453 0.984 . S
N447 C440 1.356 . S
N447 H450 0.984 . S
N447 H451 0.985 . S
H448 N443 0.984 . S
H449 N443 0.985 . S
H450 N447 0.984 . S
H451 N447 0.985 . S
H452 N446 0.984 1_455 S
H453 N446 0.984 . S
H454 N442 0.984 1_455 S
H455 N442 0.985 . S
C456 C457 1.363 . S
C456 C462 1.379 . S
C456 N464 1.356 . S
C457 C456 1.363 . S
C457 C463 1.363 . S
C458 C459 1.363 . S
C458 C463 1.379 . S
C458 N465 1.356 1_565 S
C459 C458 1.363 . S
C459 C462 1.363 . S
N460 C462 1.356 . S
N460 H472 0.984 . S
N460 H473 0.985 . S
N461 C463 1.356 1_545 S
N461 H466 0.984 1_545 S
N461 H467 0.985 . S
C462 C456 1.379 . S
C462 C459 1.363 . S
C462 N460 1.356 . S
C463 C457 1.363 . S
C463 C458 1.379 . S
C463 N461 1.356 1_565 S
N464 C456 1.356 . S
N464 H470 0.984 . S
N464 H471 0.984 . S
N465 C458 1.356 1_545 S
N465 H468 0.984 1_545 S
N465 H469 0.985 . S
H466 N461 0.984 1_565 S
H467 N461 0.985 . S
H468 N465 0.984 1_565 S
H469 N465 0.985 . S
H470 N464 0.984 . S
H471 N464 0.984 . S
H472 N460 0.984 . S
H473 N460 0.985 . S
C474 C475 1.363 . S
C474 C480 1.379 . S
C474 N482 1.356 . S
C475 C474 1.363 . S
C475 C481 1.363 . S
C476 C477 1.363 . S
C476 C481 1.379 . S
C476 N483 1.356 . S
C477 C476 1.363 . S
C477 C480 1.363 . S
N478 C480 1.356 . S
N478 H490 0.984 . S
N478 H491 0.985 . S
N479 C481 1.356 . S
N479 H484 0.984 . S
N479 H485 0.985 . S
C480 C474 1.379 . S
C480 C477 1.363 . S
C480 N478 1.356 . S
C481 C475 1.363 . S
C481 C476 1.379 . S
C481 N479 1.356 . S
N482 C474 1.356 . S
N482 H488 0.984 . S
N482 H489 0.984 . S
N483 C476 1.356 . S
N483 H486 0.984 . S
N483 H487 0.985 . S
H484 N479 0.984 . S
H485 N479 0.985 . S
H486 N483 0.984 . S
H487 N483 0.985 . S
H488 N482 0.984 . S
H489 N482 0.984 . S
H490 N478 0.984 . S
H491 N478 0.985 . S
C492 C493 1.363 . S
C492 C498 1.379 . S
C492 N500 1.356 . S
C493 C492 1.363 . S
C493 C499 1.363 . S
C494 C495 1.363 . S
C494 C499 1.379 . S
C494 N501 1.356 . S
C495 C494 1.363 . S
C495 C498 1.363 . S
N496 C498 1.356 . S
N496 H508 0.984 . S
N496 H509 0.985 . S
N497 C499 1.356 . S
N497 H502 0.984 . S
N497 H503 0.985 . S
C498 C492 1.379 . S
C498 C495 1.363 . S
C498 N496 1.356 . S
C499 C493 1.363 . S
C499 C494 1.379 . S
C499 N497 1.356 . S
N500 C492 1.356 . S
N500 H506 0.984 . S
N500 H507 0.984 . S
N501 C494 1.356 . S
N501 H504 0.984 . S
N501 H505 0.985 . S
H502 N497 0.984 . S
H503 N497 0.985 . S
H504 N501 0.984 . S
H505 N501 0.985 . S
H506 N500 0.984 . S
H507 N500 0.984 . S
H508 N496 0.984 . S
H509 N496 0.985 . S
C510 C511 1.363 . S
C510 C516 1.379 . S
C510 N518 1.356 . S
C511 C510 1.363 . S
C511 C517 1.363 . S
C512 C513 1.363 . S
C512 C517 1.379 . S
C512 N519 1.356 . S
C513 C512 1.363 . S
C513 C516 1.363 . S
N514 C516 1.356 . S
N514 H526 0.984 . S
N514 H527 0.985 . S
N515 C517 1.356 . S
N515 H520 0.984 . S
N515 H521 0.985 . S
C516 C510 1.379 . S
C516 C513 1.363 . S
C516 N514 1.356 . S
C517 C511 1.363 . S
C517 C512 1.379 . S
C517 N515 1.356 . S
N518 C510 1.356 . S
N518 H524 0.984 . S
N518 H525 0.984 . S
N519 C512 1.356 . S
N519 H522 0.984 . S
N519 H523 0.985 . S
H520 N515 0.984 . S
H521 N515 0.985 . S
H522 N519 0.984 . S
H523 N519 0.985 . S
H524 N518 0.984 . S
H525 N518 0.984 . S
H526 N514 0.984 . S
H527 N514 0.985 . S
C528 C529 1.363 . S
C528 C534 1.379 . S
C528 N536 1.356 . S
C529 C528 1.363 . S
C529 C535 1.363 . S
C530 C531 1.363 . S
C530 C535 1.379 . S
C530 N537 1.356 . S
C531 C530 1.363 . S
C531 C534 1.363 . S
N532 C534 1.356 . S
N532 H544 0.984 . S
N532 H545 0.985 . S
N533 C535 1.356 . S
N533 H538 0.984 . S
N533 H539 0.985 . S
C534 C528 1.379 . S
C534 C531 1.363 . S
C534 N532 1.356 . S
C535 C529 1.363 . S
C535 C530 1.379 . S
C535 N533 1.356 . S
N536 C528 1.356 . S
N536 H542 0.984 . S
N536 H543 0.984 . S
N537 C530 1.356 . S
N537 H540 0.984 . S
N537 H541 0.985 . S
H538 N533 0.984 . S
H539 N533 0.985 . S
H540 N537 0.984 . S
H541 N537 0.985 . S
H542 N536 0.984 . S
H543 N536 0.984 . S
H544 N532 0.984 . S
H545 N532 0.985 . S
C546 C547 1.363 . S
C546 C552 1.379 . S
C546 N554 1.356 . S
C547 C546 1.363 . S
C547 C553 1.363 . S
C548 C549 1.363 . S
C548 C553 1.379 . S
C548 N555 1.356 . S
C549 C548 1.363 . S
C549 C552 1.363 . S
N550 C552 1.356 . S
N550 H562 0.984 . S
N550 H563 0.985 . S
N551 C553 1.356 . S
N551 H556 0.984 . S
N551 H557 0.985 . S
C552 C546 1.379 . S
C552 C549 1.363 . S
C552 N550 1.356 . S
C553 C547 1.363 . S
C553 C548 1.379 . S
C553 N551 1.356 . S
N554 C546 1.356 . S
N554 H560 0.984 . S
N554 H561 0.984 . S
N555 C548 1.356 . S
N555 H558 0.984 . S
N555 H559 0.985 . S
H556 N551 0.984 . S
H557 N551 0.985 . S
H558 N555 0.984 . S
H559 N555 0.985 . S
H560 N554 0.984 . S
H561 N554 0.984 . S
H562 N550 0.984 . S
H563 N550 0.985 . S
C564 C565 1.363 . S
C564 C570 1.379 . S
C564 N572 1.356 . S
C565 C564 1.363 . S
C565 C571 1.363 . S
C566 C567 1.363 . S
C566 C571 1.379 . S
C566 N573 1.356 . S
C567 C566 1.363 . S
C567 C570 1.363 . S
N568 C570 1.356 . S
N568 H580 0.984 . S
N568 H581 0.985 . S
N569 C571 1.356 . S
N569 H574 0.984 . S
N569 H575 0.985 . S
C570 C564 1.379 . S
C570 C567 1.363 . S
C570 N568 1.356 . S
C571 C565 1.363 . S
C571 C566 1.379 . S
C571 N569 1.356 . S
N572 C564 1.356 . S
N572 H578 0.984 . S
N572 H579 0.984 . S
N573 C566 1.356 . S
N573 H576 0.984 . S
N573 H577 0.985 . S
H574 N569 0.984 . S
H575 N569 0.985 . S
H576 N573 0.984 . S
H577 N573 0.985 . S
H578 N572 0.984 . S
H579 N572 0.984 . S
H580 N568 0.984 . S
H581 N568 0.985 . S
C582 C583 1.363 . S
C582 C588 1.379 . S
C582 N590 1.356 . S
C583 C582 1.363 . S
C583 C589 1.363 . S
C584 C585 1.363 . S
C584 C589 1.379 . S
C584 N591 1.356 . S
C585 C584 1.363 . S
C585 C588 1.363 . S
N586 C588 1.356 . S
N586 H598 0.984 . S
N586 H599 0.985 . S
N587 C589 1.356 . S
N587 H592 0.984 . S
N587 H593 0.985 . S
C588 C582 1.379 . S
C588 C585 1.363 . S
C588 N586 1.356 . S
C589 C583 1.363 . S
C589 C584 1.379 . S
C589 N587 1.356 . S
N590 C582 1.356 . S
N590 H596 0.984 . S
N590 H597 0.984 . S
N591 C584 1.356 . S
N591 H594 0.984 . S
N591 H595 0.985 . S
H592 N587 0.984 . S
H593 N587 0.985 . S
H594 N591 0.984 . S
H595 N591 0.985 . S
H596 N590 0.984 . S
H597 N590 0.984 . S
H598 N586 0.984 . S
H599 N586 0.985 . S
C169 C9 1.423 . S
C171 C163 1.423 . S
C187 C93 1.423 . S
C189 C23 1.423 . S
C205 C37 1.423 . S
C207 C107 1.423 . S
C223 C121 1.423 . S
C225 C51 1.423 . S
C241 C135 1.423 . S
C243 C65 1.423 . S
C259 C149 1.423 . S
C261 C79 1.423 . S
C277 C42 1.374 . S
C279 C112 1.374 . S
C295 C56 1.374 . S
C297 C126 1.374 . S
C313 C70 1.374 . S
C315 C140 1.374 . S
C331 C154 1.374 . S
C333 C0 1.374 . S
C349 C14 1.374 . S
C351 C84 1.374 . S
C367 C28 1.374 . S
C369 C98 1.374 . S
C385 C117 1.623 . S
C387 C5 1.623 . S
C403 C131 1.623 . S
C405 C19 1.623 . S
C421 C33 1.623 . S
C423 C145 1.623 . S
C439 C47 1.623 . S
C441 C159 1.623 . S
C457 C61 1.623 . S
C459 C89 1.623 . S
C475 C103 1.623 . S
C477 C75 1.623 . S
C493 C11 1.584 . S
C495 C151 1.584 . S
C511 C165 1.584 . S
C513 C25 1.584 . S
C529 C39 1.584 . S
C531 C95 1.584 . S
C547 C53 1.584 . S
C549 C109 1.584 . S
C565 C67 1.584 . S
C567 C123 1.584 . S
C583 C81 1.584 . S
C585 C137 1.584 . S
