# Generated by pormake.
# Topology uob, (4)-cn, num edge types: 1
# Building blocks:
#     Node 0, Type 0, BuildingBlock: QUQFOY_clean_sbu_3, # of connection points: 4
#     Node 1, Type 0, BuildingBlock: QUQFOY_clean_sbu_3, # of connection points: 4
#     Node 2, Type 0, BuildingBlock: QUQFOY_clean_sbu_3, # of connection points: 4
#     Node 3, Type 0, BuildingBlock: QUQFOY_clean_sbu_3, # of connection points: 4
#     Node 4, Type 0, BuildingBlock: QUQFOY_clean_sbu_3, # of connection points: 4
#     Node 5, Type 0, BuildingBlock: QUQFOY_clean_sbu_3, # of connection points: 4
#     Node 6, Type 0, BuildingBlock: QUQFOY_clean_sbu_3, # of connection points: 4
#     Node 7, Type 0, BuildingBlock: QUQFOY_clean_sbu_3, # of connection points: 4
#     Node 8, Type 0, BuildingBlock: QUQFOY_clean_sbu_3, # of connection points: 4
#     Node 9, Type 0, BuildingBlock: QUQFOY_clean_sbu_3, # of connection points: 4
#     Node 10, Type 0, BuildingBlock: QUQFOY_clean_sbu_3, # of connection points: 4
#     Node 11, Type 0, BuildingBlock: QUQFOY_clean_sbu_3, # of connection points: 4
#     Node 12, Type 0, BuildingBlock: QUQFOY_clean_sbu_3, # of connection points: 4
#     Node 13, Type 0, BuildingBlock: QUQFOY_clean_sbu_3, # of connection points: 4
#     Node 14, Type 0, BuildingBlock: QUQFOY_clean_sbu_3, # of connection points: 4
#     Node 15, Type 0, BuildingBlock: QUQFOY_clean_sbu_3, # of connection points: 4
#     Edge 16, Type (0, 0), BuildingBlock: ZUJKAS_clean_linker_0, # of connection points: 2
#     Edge 17, Type (0, 0), BuildingBlock: ZUJKAS_clean_linker_0, # of connection points: 2
#     Edge 18, Type (0, 0), BuildingBlock: ZUJKAS_clean_linker_0, # of connection points: 2
#     Edge 19, Type (0, 0), BuildingBlock: ZUJKAS_clean_linker_0, # of connection points: 2
#     Edge 20, Type (0, 0), BuildingBlock: ZUJKAS_clean_linker_0, # of connection points: 2
#     Edge 21, Type (0, 0), BuildingBlock: ZUJKAS_clean_linker_0, # of connection points: 2
#     Edge 22, Type (0, 0), BuildingBlock: ZUJKAS_clean_linker_0, # of connection points: 2
#     Edge 23, Type (0, 0), BuildingBlock: ZUJKAS_clean_linker_0, # of connection points: 2
#     Edge 24, Type (0, 0), BuildingBlock: ZUJKAS_clean_linker_0, # of connection points: 2
#     Edge 25, Type (0, 0), BuildingBlock: ZUJKAS_clean_linker_0, # of connection points: 2
#     Edge 26, Type (0, 0), BuildingBlock: ZUJKAS_clean_linker_0, # of connection points: 2
#     Edge 27, Type (0, 0), BuildingBlock: ZUJKAS_clean_linker_0, # of connection points: 2
#     Edge 28, Type (0, 0), BuildingBlock: ZUJKAS_clean_linker_0, # of connection points: 2
#     Edge 29, Type (0, 0), BuildingBlock: ZUJKAS_clean_linker_0, # of connection points: 2
#     Edge 30, Type (0, 0), BuildingBlock: ZUJKAS_clean_linker_0, # of connection points: 2
#     Edge 31, Type (0, 0), BuildingBlock: ZUJKAS_clean_linker_0, # of connection points: 2
#     Edge 32, Type (0, 0), BuildingBlock: ZUJKAS_clean_linker_0, # of connection points: 2
#     Edge 33, Type (0, 0), BuildingBlock: ZUJKAS_clean_linker_0, # of connection points: 2
#     Edge 34, Type (0, 0), BuildingBlock: ZUJKAS_clean_linker_0, # of connection points: 2
#     Edge 35, Type (0, 0), BuildingBlock: ZUJKAS_clean_linker_0, # of connection points: 2
#     Edge 36, Type (0, 0), BuildingBlock: ZUJKAS_clean_linker_0, # of connection points: 2
#     Edge 37, Type (0, 0), BuildingBlock: ZUJKAS_clean_linker_0, # of connection points: 2
#     Edge 38, Type (0, 0), BuildingBlock: ZUJKAS_clean_linker_0, # of connection points: 2
#     Edge 39, Type (0, 0), BuildingBlock: ZUJKAS_clean_linker_0, # of connection points: 2
#     Edge 40, Type (0, 0), BuildingBlock: ZUJKAS_clean_linker_0, # of connection points: 2
#     Edge 41, Type (0, 0), BuildingBlock: ZUJKAS_clean_linker_0, # of connection points: 2
#     Edge 42, Type (0, 0), BuildingBlock: ZUJKAS_clean_linker_0, # of connection points: 2
#     Edge 43, Type (0, 0), BuildingBlock: ZUJKAS_clean_linker_0, # of connection points: 2
#     Edge 44, Type (0, 0), BuildingBlock: ZUJKAS_clean_linker_0, # of connection points: 2
#     Edge 45, Type (0, 0), BuildingBlock: ZUJKAS_clean_linker_0, # of connection points: 2
#     Edge 46, Type (0, 0), BuildingBlock: ZUJKAS_clean_linker_0, # of connection points: 2
#     Edge 47, Type (0, 0), BuildingBlock: ZUJKAS_clean_linker_0, # of connection points: 2
# Relax obj value: 0.172
# Max RMSD: 0.203
# Mean RMSD: 0.203
data_MOF--net-uob--node1-QUQFOY_clean_sbu_3--edge1-ZUJKAS_clean_linker_0
_symmetry_space_group_name_H-M    P1
_symmetry_Int_Tables_number       1
_symmetry_cell_setting            triclinic
loop_
_symmetry_equiv_pos_as_xyz
'x, y, z'
_cell_length_a     70.732037
_cell_length_b     70.747819
_cell_length_c     35.480083
_cell_angle_alpha  90.071266
_cell_angle_beta   90.030459
_cell_angle_gamma 89.901983
loop_
_atom_site_label
_atom_site_type_symbol
_atom_site_fract_x
_atom_site_fract_y
_atom_site_fract_z
_atom_type_partial_charge
C0 C 0.12337 0.08388 0.20931 0.0
O1 O 0.11559 0.09433 0.23399 0.0
Cd2 Cd 0.1138 0.09002 0.30026 0.0
O3 O 0.13197 0.06869 0.21876 0.0
Cd4 Cd 0.13807 0.05266 0.28083 0.0
C5 C 0.09108 0.04723 0.29831 0.0
O6 O 0.14483 0.08124 0.31698 0.0
O7 O 0.14033 0.05598 0.34921 0.0
O8 O 0.17043 0.04352 0.26448 0.0
C9 C 0.14525 0.07316 0.34871 0.0
O10 O 0.09124 0.06441 0.30908 0.0
C11 C 0.16939 0.02725 0.27951 0.0
O12 O 0.10572 0.03962 0.28371 0.0
O13 O 0.15311 0.02195 0.29025 0.0
C14 C 0.91611 0.62348 0.46424 0.0
O15 O 0.90645 0.61513 0.48934 0.0
Cd16 Cd 0.91238 0.61303 0.55497 0.0
O17 O 0.93103 0.63268 0.473 0.0
Cd18 Cd 0.94782 0.63952 0.53408 0.0
C19 C 0.95665 0.59299 0.54918 0.0
O20 O 0.91987 0.64419 0.57265 0.0
O21 O 0.9457 0.63992 0.60316 0.0
O22 O 0.95283 0.67278 0.5197 0.0
C23 C 0.92829 0.64409 0.60405 0.0
O24 O 0.93962 0.59214 0.56068 0.0
C25 C 0.96976 0.67331 0.53163 0.0
O26 O 0.96325 0.60813 0.53478 0.0
O27 O 0.97733 0.65755 0.53991 0.0
C28 C 0.37088 0.41514 0.70547 0.0
O29 O 0.3779 0.40285 0.72744 0.0
Cd30 Cd 0.38434 0.40722 0.79223 0.0
O31 O 0.36484 0.43098 0.71804 0.0
Cd32 Cd 0.36049 0.44525 0.78261 0.0
C33 C 0.40783 0.45027 0.788 0.0
O34 O 0.35493 0.41635 0.81797 0.0
O35 O 0.36334 0.44055 0.85065 0.0
O36 O 0.32719 0.45193 0.77193 0.0
C37 C 0.35714 0.42376 0.85011 0.0
O38 O 0.4079 0.4325 0.79392 0.0
C39 C 0.32739 0.46844 0.78596 0.0
O40 O 0.39238 0.459 0.78138 0.0
O41 O 0.34351 0.47514 0.79449 0.0
C42 C 0.58155 0.86916 0.94893 0.0
O43 O 0.59382 0.87748 0.96912 0.0
Cd44 Cd 0.59184 0.88533 0.03387 0.0
O45 O 0.5663 0.86275 0.9634 0.0
Cd46 Cd 0.55283 0.86039 0.02891 0.0
C47 C 0.54834 0.90824 0.03222 0.0
O48 O 0.58254 0.85683 0.06232 0.0
O49 O 0.55848 0.86348 0.09671 0.0
O50 O 0.54608 0.82689 0.02214 0.0
C51 C 0.57587 0.8593 0.09498 0.0
O52 O 0.56623 0.90839 0.03646 0.0
C53 C 0.52957 0.8276 0.03613 0.0
O54 O 0.53948 0.89272 0.02714 0.0
O55 O 0.52295 0.84397 0.04298 0.0
C56 C 0.12152 0.41324 0.07621 0.0
O57 O 0.11403 0.4014 0.05384 0.0
Cd58 Cd 0.10969 0.4049 -0.01178 0.0
O59 O 0.12861 0.42865 0.06386 0.0
Cd60 Cd 0.13318 0.44297 -0.00041 0.0
C61 C 0.08571 0.44751 -0.0101 0.0
O62 O 0.14002 0.41372 0.96624 0.0
O63 O 0.13255 0.43746 0.93149 0.0
O64 O 0.16605 0.45083 0.01232 0.0
C65 C 0.13897 0.42077 0.9336 0.0
O66 O 0.0859 0.4298 -0.01655 0.0
C67 C 0.16549 0.46719 -0.00231 0.0
O68 O 0.10093 0.45622 -0.00167 0.0
O69 O 0.14929 0.47326 -0.01204 0.0
C70 C 0.58251 0.62093 0.3231 0.0
O71 O 0.59335 0.61329 0.29898 0.0
Cd72 Cd 0.58746 0.60936 0.23401 0.0
O73 O 0.56686 0.6285 0.31306 0.0
Cd74 Cd 0.55044 0.63388 0.25083 0.0
C75 C 0.54424 0.58674 0.24103 0.0
O76 O 0.57859 0.63994 0.21375 0.0
O77 O 0.55366 0.63291 0.18207 0.0
O78 O 0.5441 0.66697 0.2648 0.0
C79 C 0.57052 0.63894 0.18204 0.0
O80 O 0.56171 0.58649 0.23239 0.0
C81 C 0.52735 0.66708 0.25191 0.0
O82 O 0.53617 0.60213 0.25082 0.0
O83 O 0.52044 0.65114 0.24281 0.0
C84 C 0.37579 0.08349 0.57089 0.0
O85 O 0.3836 0.09362 0.54585 0.0
Cd86 Cd 0.38477 0.08887 0.47978 0.0
O87 O 0.36687 0.06842 0.56191 0.0
Cd88 Cd 0.36066 0.05183 0.50048 0.0
C89 C 0.4077 0.04619 0.48331 0.0
O90 O 0.35363 0.08002 0.46392 0.0
O91 O 0.35865 0.05485 0.43178 0.0
O92 O 0.32828 0.04305 0.51696 0.0
C93 C 0.35346 0.07198 0.43213 0.0
O94 O 0.40743 0.06325 0.47191 0.0
C95 C 0.32923 0.02668 0.50229 0.0
O96 O 0.39306 0.03869 0.49804 0.0
O97 O 0.3455 0.02113 0.49183 0.0
C98 C 0.91152 0.88116 0.81578 0.0
O99 O 0.90083 0.88878 0.79133 0.0
Cd100 Cd 0.90568 0.89065 0.72535 0.0
O101 O 0.92674 0.8727 0.80598 0.0
Cd102 Cd 0.94297 0.86604 0.74441 0.0
C103 C 0.94866 0.9133 0.72865 0.0
O104 O 0.91429 0.85938 0.70898 0.0
O105 O 0.93978 0.86191 0.67625 0.0
O106 O 0.95059 0.8336 0.76178 0.0
C107 C 0.92245 0.85756 0.67753 0.0
O108 O 0.93118 0.91346 0.72015 0.0
C109 C 0.96727 0.83389 0.7485 0.0
O110 O 0.95665 0.89812 0.73988 0.0
O111 O 0.97354 0.8499 0.73825 0.0
C112 C 0.6241 0.58249 0.70954 0.0
O113 O 0.61609 0.59401 0.73188 0.0
Cd114 Cd 0.61024 0.58969 0.79679 0.0
O115 O 0.63104 0.56693 0.72165 0.0
Cd116 Cd 0.63455 0.55179 0.78556 0.0
C117 C 0.58702 0.54673 0.79109 0.0
O118 O 0.64001 0.58063 0.82114 0.0
O119 O 0.6321 0.55632 0.85377 0.0
O120 O 0.66782 0.54428 0.7756 0.0
C121 C 0.63811 0.57318 0.85326 0.0
O122 O 0.58684 0.56438 0.79823 0.0
C123 C 0.66703 0.52772 0.78927 0.0
O124 O 0.60249 0.53824 0.78354 0.0
O125 O 0.65067 0.5215 0.79718 0.0
C126 C 0.41705 0.12303 0.95816 0.0
O127 O 0.40618 0.11497 0.98161 0.0
Cd128 Cd 0.4103 0.11128 0.04735 0.0
O129 O 0.43227 0.1311 0.9691 0.0
Cd130 Cd 0.44818 0.13613 0.03177 0.0
C131 C 0.45346 0.0885 0.04276 0.0
O132 O 0.41946 0.14171 0.06738 0.0
O133 O 0.44449 0.13721 0.10044 0.0
O134 O 0.45552 0.16901 0.01782 0.0
C135 C 0.42715 0.14163 0.09951 0.0
O136 O 0.43591 0.08839 0.05078 0.0
C137 C 0.47222 0.16853 0.03101 0.0
O138 O 0.46168 0.1038 0.03306 0.0
O139 O 0.47858 0.15236 0.04023 0.0
C140 C 0.88097 0.92128 0.20666 0.0
O141 O 0.8907 0.91075 0.22822 0.0
Cd142 Cd 0.89176 0.90979 0.29491 0.0
O143 O 0.87012 0.93408 0.22017 0.0
Cd144 Cd 0.86414 0.94523 0.28637 0.0
C145 C 0.91086 0.95345 0.30498 0.0
O146 O 0.85969 0.9137 0.31166 0.0
O147 O 0.86201 0.93567 0.35303 0.0
O148 O 0.831 0.95326 0.27508 0.0
C149 C 0.85835 0.91853 0.34577 0.0
O150 O 0.91224 0.9359 0.31227 0.0
C151 C 0.83151 0.96888 0.29277 0.0
O152 O 0.89555 0.9604 0.29194 0.0
O153 O 0.8477 0.97455 0.30334 0.0
C154 C 0.08559 0.37787 0.46676 0.0
O155 O 0.09665 0.38579 0.4901 0.0
Cd156 Cd 0.09249 0.3886 0.55614 0.0
O157 O 0.07042 0.36984 0.47794 0.0
Cd158 Cd 0.05535 0.36494 0.54118 0.0
C159 C 0.05011 0.41216 0.55362 0.0
O160 O 0.08418 0.3577 0.5756 0.0
O161 O 0.06018 0.36521 0.60959 0.0
O162 O 0.04679 0.33225 0.52757 0.0
C163 C 0.07677 0.35849 0.60795 0.0
O164 O 0.06739 0.41204 0.56371 0.0
C165 C 0.03036 0.33323 0.54191 0.0
O166 O 0.04222 0.39721 0.54116 0.0
O167 O 0.0247 0.34955 0.55177 0.0
C168 C 0.61926 0.91426 0.5651 0.0
O169 O 0.61163 0.90504 0.53841 0.0
Cd170 Cd 0.61117 0.91261 0.47315 0.0
O171 O 0.62848 0.92943 0.55853 0.0
Cd172 Cd 0.63665 0.94783 0.50035 0.0
C173 C 0.59032 0.9564 0.4818 0.0
O174 O 0.64268 0.92089 0.45934 0.0
O175 O 0.63964 0.94781 0.4318 0.0
O176 O 0.66932 0.95249 0.51963 0.0
C177 C 0.64401 0.93049 0.42941 0.0
O178 O 0.58996 0.93965 0.46866 0.0
C179 C 0.67021 0.96965 0.50926 0.0
O180 O 0.60509 0.96289 0.49794 0.0
O181 O 0.6547 0.97744 0.49984 0.0
C182 C 0.08174 0.12732 0.82424 0.0
O183 O 0.09308 0.11961 0.80112 0.0
Cd184 Cd 0.08867 0.11484 0.73573 0.0
O185 O 0.0662 0.13466 0.81294 0.0
Cd186 Cd 0.05053 0.13971 0.74988 0.0
C187 C 0.04527 0.0922 0.74009 0.0
O188 O 0.07915 0.14482 0.71381 0.0
O189 O 0.05418 0.13948 0.68113 0.0
O190 O 0.04386 0.17282 0.76309 0.0
C191 C 0.07151 0.14393 0.68166 0.0
O192 O 0.06294 0.09203 0.73314 0.0
C193 C 0.02712 0.17266 0.75015 0.0
O194 O 0.03683 0.10758 0.74871 0.0
O195 O 0.02041 0.15661 0.74123 0.0
C196 C 0.87056 0.58085 0.08087 0.0
O197 O 0.87853 0.59205 0.05793 0.0
Cd198 Cd 0.88386 0.58745 -0.0073 0.0
O199 O 0.86324 0.56534 0.06947 0.0
Cd200 Cd 0.85867 0.5496 0.00636 0.0
C201 C 0.90624 0.54391 -0.00221 0.0
O202 O 0.85405 0.57818 0.96956 0.0
O203 O 0.85913 0.55283 0.93771 0.0
O204 O 0.82539 0.54311 0.01814 0.0
C205 C 0.85492 0.57023 0.93769 0.0
O206 O 0.90657 0.56156 -0.00924 0.0
C207 C 0.82571 0.5263 0.00555 0.0
O208 O 0.89075 0.53564 0.0061 0.0
O209 O 0.84188 0.5195 -0.00238 0.0
C210 C 0.41462 0.36967 0.32271 0.0
O211 O 0.40218 0.3762 0.30047 0.0
Cd212 Cd 0.40649 0.38236 0.23554 0.0
O213 O 0.43063 0.36396 0.31041 0.0
Cd214 Cd 0.44519 0.35963 0.24617 0.0
C215 C 0.44878 0.4071 0.24023 0.0
O216 O 0.41661 0.35315 0.21016 0.0
O217 O 0.44079 0.36209 0.17809 0.0
O218 O 0.45326 0.3266 0.25701 0.0
C219 C 0.42415 0.35549 0.1782 0.0
O220 O 0.43104 0.4067 0.23394 0.0
C221 C 0.46984 0.32759 0.24346 0.0
O222 O 0.45787 0.39192 0.2472 0.0
O223 O 0.4758 0.34401 0.23515 0.0
H224 H 0.32668 0.99817 0.45054 0.0
H225 H 0.29889 0.99086 0.41241 0.0
H226 H 0.26463 0.02608 0.48443 0.0
H227 H 0.29252 0.03403 0.52199 0.0
H228 H 0.26182 0.97781 0.41742 0.0
H229 H 0.2643 0.05439 0.38441 0.0
H230 H 0.28269 0.04265 0.4107 0.0
H231 H 0.26106 0.0496 0.43362 0.0
C232 C 0.31312 0.00387 0.45913 0.0
C233 C 0.31189 0.01703 0.48884 0.0
C234 C 0.29723 -0.00031 0.43716 0.0
C235 C 0.27983 0.00844 0.44481 0.0
C236 C 0.27806 0.0196 0.4774 0.0
H237 H 0.17201 6e-05 0.33366 0.0
H238 H 0.20021 0.99219 0.36974 0.0
C239 C 0.29399 0.02401 0.49907 0.0
C240 C 0.26452 0.00811 0.4161 0.0
H241 H 0.23863 0.03724 0.35944 0.0
C242 C 0.25674 0.99077 0.40463 0.0
C243 C 0.25832 0.02497 0.3985 0.0
C244 C 0.26714 0.04394 0.40708 0.0
C245 C 0.2425 0.98993 0.37686 0.0
C246 C 0.23566 0.00693 0.36069 0.0
C247 C 0.2438 0.02417 0.37168 0.0
C248 C 0.21947 0.00765 0.3338 0.0
C249 C 0.23521 0.97085 0.36478 0.0
C250 C 0.22081 0.01852 0.30072 0.0
C251 C 0.20457 0.02341 0.28041 0.0
C252 C 0.18667 0.01736 0.29256 0.0
C253 C 0.18559 0.00487 0.32333 0.0
C254 C 0.20179 0.00026 0.34404 0.0
H255 H 0.24608 0.95969 0.3689 0.0
H256 H 0.2228 0.96709 0.38234 0.0
H257 H 0.23081 0.97086 0.33474 0.0
H258 H 0.23429 0.02433 0.29208 0.0
H259 H 0.20589 0.03303 0.25683 0.0
H260 H 0.0019 0.82969 0.71449 0.0
H261 H 0.01259 0.80205 0.67869 0.0
H262 H 0.96406 0.77077 0.71741 0.0
H263 H 0.95377 0.79793 0.75429 0.0
H264 H 0.99365 0.74786 0.70883 0.0
H265 H 0.98576 0.79242 0.58068 0.0
H266 H 0.0033 0.80028 0.6137 0.0
H267 H 0.97873 0.80055 0.62672 0.0
C268 C 0.99386 0.81672 0.71638 0.0
C269 C 0.97679 0.81614 0.73676 0.0
C270 C -0.00014 0.80099 0.69548 0.0
C271 C 0.98874 0.78456 0.69415 0.0
C272 C 0.97278 0.78336 0.71754 0.0
H273 H 0.95403 0.70848 0.52831 0.0
H274 H 0.96343 0.73594 0.56512 0.0
C275 C 0.96691 0.79894 0.73877 0.0
C276 C 0.99236 0.76932 0.66605 0.0
H277 H 0.99179 0.76027 0.57134 0.0
C278 C 0.99354 0.75057 0.67875 0.0
C279 C 0.99199 0.77287 0.62672 0.0
C280 C 0.98972 0.79257 0.61099 0.0
C281 C 0.99337 0.73526 0.65345 0.0
C282 C 0.99266 0.7388 0.61413 0.0
C283 C 0.99249 0.75758 0.6014 0.0
C284 C 0.98928 0.72339 0.58629 0.0
C285 C 0.99262 0.71547 0.6693 0.0
C286 C 0.00126 0.70756 0.58387 0.0
C287 C 0.99578 0.69165 0.56299 0.0
C288 C 0.97837 0.69144 0.54374 0.0
C289 C 0.96747 0.70808 0.54294 0.0
C290 C 0.97283 0.72384 0.56413 0.0
H291 H 0.98932 0.71541 0.69992 0.0
H292 H 0.98178 0.70689 0.65449 0.0
H293 H 0.00656 0.70853 0.66542 0.0
H294 H 0.01434 0.70712 0.59968 0.0
H295 H 0.00459 0.67912 0.56396 0.0
H296 H 0.32286 0.50286 0.82104 0.0
H297 H 0.29486 0.51354 0.85584 0.0
H298 H 0.26431 0.46443 0.81742 0.0
H299 H 0.29171 0.45424 0.78139 0.0
H300 H 0.24115 0.49332 0.82307 0.0
H301 H 0.28378 0.48894 0.95463 0.0
H302 H 0.2916 0.50616 0.92103 0.0
H303 H 0.29292 0.4814 0.90969 0.0
C304 C 0.30998 0.49465 0.81914 0.0
C305 C 0.30962 0.47754 0.79886 0.0
C306 C 0.29405 0.50065 0.83947 0.0
C307 C 0.27766 0.48944 0.84044 0.0
C308 C 0.27681 0.47326 0.81754 0.0
H309 H 0.20152 0.45388 0.00333 0.0
H310 H 0.2288 0.46451 0.96756 0.0
C311 C 0.29256 0.46743 0.79683 0.0
C312 C 0.26193 0.49329 0.86732 0.0
H313 H 0.25132 0.49379 0.96133 0.0
C314 C 0.24336 0.49371 0.85331 0.0
C315 C 0.26482 0.49369 0.90687 0.0
C316 C 0.28431 0.49238 0.9241 0.0
C317 C 0.22764 0.49324 0.87752 0.0
C318 C 0.23054 0.49311 0.91708 0.0
C319 C 0.2491 0.49398 0.93108 0.0
C320 C 0.21488 0.48911 0.944 0.0
C321 C 0.2082 0.49142 0.86029 0.0
C322 C 0.19822 0.49997 0.94464 0.0
C323 C 0.18238 0.49371 0.9648 0.0
C324 C 0.18309 0.47669 -0.01474 0.0
C325 C 0.20041 0.46699 -0.01226 0.0
C326 C 0.21608 0.47307 0.96718 0.0
H327 H 0.20882 0.4878 0.82984 0.0
H328 H 0.19985 0.48035 0.8749 0.0
H329 H 0.20058 0.50507 0.86307 0.0
H330 H 0.19714 0.51276 0.92808 0.0
H331 H 0.1693 0.50161 0.96257 0.0
H332 H 0.49529 0.82434 0.07211 0.0
H333 H 0.48417 0.79707 0.10844 0.0
H334 H 0.53257 0.7649 0.07123 0.0
H335 H 0.54322 0.79161 0.03382 0.0
H336 H 0.50283 0.74265 0.07742 0.0
H337 H 0.50889 0.78615 0.20764 0.0
H338 H 0.49185 0.79425 0.1738 0.0
H339 H 0.51662 0.79463 0.16237 0.0
C340 C 0.50326 0.81127 0.07086 0.0
C341 C 0.52029 0.81024 0.05045 0.0
C342 C 0.49701 0.79576 0.09205 0.0
C343 C 0.50787 0.77912 0.09368 0.0
C344 C 0.52401 0.77762 0.07081 0.0
H345 H 0.54191 0.70261 0.25721 0.0
H346 H 0.53189 0.73018 0.22153 0.0
C347 C 0.5301 0.79295 0.04932 0.0
C348 C 0.50366 0.76374 0.12106 0.0
H349 H 0.50318 0.75389 0.21538 0.0
C350 C 0.50261 0.7451 0.1076 0.0
C351 C 0.50349 0.76696 0.16052 0.0
C352 C 0.50542 0.78653 0.1771 0.0
C353 C 0.50265 0.72957 0.13227 0.0
C354 C 0.503 0.73277 0.17174 0.0
C355 C 0.50281 0.75145 0.1852 0.0
C356 C 0.50659 0.71717 0.19903 0.0
C357 C 0.50375 0.70994 0.11562 0.0
C358 C 0.49511 0.70098 0.20032 0.0
C359 C 0.50099 0.68497 0.22046 0.0
C360 C 0.51826 0.68505 0.24018 0.0
C361 C 0.5286 0.70198 0.24217 0.0
C362 C 0.52287 0.71782 0.22165 0.0
H363 H 0.50721 0.71019 0.08508 0.0
H364 H 0.51463 0.70134 0.13029 0.0
H365 H 0.48988 0.70283 0.11891 0.0
H366 H 0.48214 0.70035 0.18418 0.0
H367 H 0.4926 0.67221 0.21863 0.0
H368 H 0.70339 0.54008 0.78363 0.0
H369 H 0.73039 0.52895 0.81971 0.0
H370 H 0.69733 0.48235 0.86186 0.0
H371 H 0.66988 0.49388 0.8266 0.0
H372 H 0.71236 0.50039 0.91808 0.0
H373 H 0.76939 0.48875 0.81552 0.0
H374 H 0.75956 0.51176 0.80792 0.0
H375 H 0.74502 0.49108 0.80109 0.0
C376 C 0.70197 0.52711 0.79957 0.0
C377 C 0.68441 0.51795 0.80236 0.0
C378 C 0.71754 0.52066 0.82013 0.0
C379 C 0.71605 0.50467 0.8434 0.0
C380 C 0.69888 0.49469 0.8441 0.0
H381 H 0.82186 0.49212 0.96972 0.0
H382 H 0.79404 0.48108 0.93507 0.0
C383 C 0.68321 0.50125 0.82372 0.0
C384 C 0.73146 0.50024 0.87067 0.0
H385 H 0.77952 0.49914 0.87838 0.0
C386 C 0.72702 0.49963 0.90928 0.0
C387 C 0.75061 0.49875 0.85955 0.0
C388 C 0.75636 0.4974 0.8187 0.0
C389 C 0.74124 0.4992 0.93694 0.0
C390 C 0.76043 0.49998 0.92578 0.0
C391 C 0.76484 0.49892 0.8872 0.0
C392 C 0.77597 0.50414 0.95293 0.0
C393 C 0.73547 0.49836 0.97782 0.0
C394 C 0.77494 0.52036 0.97574 0.0
C395 C 0.79072 0.52653 -0.00403 0.0
C396 C 0.80804 0.51684 -0.00671 0.0
C397 C 0.80873 0.49989 0.97251 0.0
C398 C 0.79285 0.49362 0.95247 0.0
H399 H 0.7222 0.49015 0.98121 0.0
H400 H 0.74663 0.49184 -0.0044 0.0
H401 H 0.73267 0.5129 -0.0118 0.0
H402 H 0.76232 0.52904 0.97598 0.0
H403 H 0.78968 0.53969 0.01146 0.0
H404 H 0.45802 0.29111 0.24977 0.0
H405 H 0.46969 0.26409 0.21446 0.0
H406 H 0.51603 0.29755 0.17239 0.0
H407 H 0.50393 0.32504 0.20681 0.0
H408 H 0.49867 0.28205 0.11624 0.0
H409 H 0.51014 0.22555 0.21975 0.0
H410 H 0.48697 0.23511 0.22686 0.0
H411 H 0.50744 0.24992 0.23388 0.0
C412 C 0.47105 0.29262 0.23403 0.0
C413 C 0.47996 0.3103 0.23097 0.0
C414 C 0.47781 0.27704 0.21392 0.0
C415 C 0.49388 0.27862 0.19087 0.0
C416 C 0.50363 0.29592 0.18998 0.0
H417 H 0.50639 0.17218 0.06694 0.0
H418 H 0.51769 0.2001 0.10093 0.0
C419 C 0.49675 0.31161 0.20988 0.0
C420 C 0.49861 0.26314 0.16393 0.0
H421 H 0.49979 0.21507 0.15695 0.0
C422 C 0.49941 0.26742 0.12527 0.0
C423 C 0.50011 0.24404 0.17535 0.0
C424 C 0.50134 0.23846 0.2163 0.0
C425 C 0.49998 0.2531 0.09783 0.0
C426 C 0.49912 0.23396 0.10924 0.0
C427 C 0.50005 0.2297 0.14791 0.0
C428 C 0.49493 0.21834 0.0823 0.0
C429 C 0.50104 0.25871 0.05689 0.0
C430 C 0.47882 0.21942 0.05921 0.0
C431 C 0.47251 0.20358 0.03932 0.0
C432 C 0.48194 0.18616 0.04266 0.0
C433 C 0.49881 0.18539 0.06366 0.0
C434 C 0.50523 0.20133 0.08333 0.0
H435 H 0.50941 0.27188 0.05347 0.0
H436 H 0.50752 0.24743 0.03933 0.0
H437 H 0.48657 0.26164 0.04627 0.0
H438 H 0.47029 0.23213 0.05854 0.0
H439 H 0.45941 0.20468 0.02364 0.0
H440 H 0.82791 0.00218 0.33195 0.0
H441 H 0.80062 0.01211 0.36961 0.0
H442 H 0.76875 0.96475 0.32702 0.0
H443 H 0.79555 0.95524 0.2883 0.0
H444 H 0.74627 0.99431 0.33726 0.0
H445 H 0.79023 0.98417 0.46567 0.0
H446 H 0.79842 0.00215 0.43405 0.0
H447 H 0.7985 0.97781 0.41935 0.0
C448 C 0.81489 0.99421 0.32978 0.0
C449 C 0.81399 0.97777 0.30746 0.0
C450 C 0.79938 -0.00023 0.35173 0.0
C451 C 0.78284 0.98879 0.35225 0.0
C452 C 0.7814 0.97335 0.32748 0.0
H453 H 0.70516 0.95356 0.51451 0.0
H454 H 0.73319 0.96298 0.4796 0.0
C455 C 0.79677 0.96795 0.3052 0.0
C456 C 0.76755 0.99219 0.38033 0.0
H457 H 0.75815 0.99085 0.47484 0.0
C458 C 0.74887 0.99383 0.36737 0.0
C459 C 0.77096 0.99136 0.4197 0.0
C460 C 0.79057 0.98862 0.43565 0.0
C461 C 0.73346 0.99367 0.39238 0.0
C462 C 0.73685 0.99254 0.43172 0.0
C463 C 0.75558 0.99189 0.44477 0.0
C464 C 0.72125 0.98924 0.45911 0.0
C465 C 0.71373 0.99339 0.37612 0.0
C466 C 0.7056 0.00145 0.46149 0.0
C467 C 0.68936 0.99596 0.48124 0.0
C468 C 0.68864 0.9783 0.49941 0.0
C469 C 0.70514 0.96719 0.50064 0.0
C470 C 0.72123 0.97256 0.48053 0.0
H471 H 0.71374 0.99033 0.34539 0.0
H472 H 0.7049 0.98258 0.39037 0.0
H473 H 0.70701 0.00741 0.38035 0.0
H474 H 0.70552 0.01471 0.4463 0.0
H475 H 0.67696 0.00494 0.48002 0.0
H476 H 0.04203 0.2967 0.53405 0.0
H477 H 0.03039 0.2695 0.56865 0.0
H478 H 0.9843 0.30297 0.61241 0.0
H479 H 0.99637 0.33061 0.57873 0.0
H480 H 0.00186 0.28702 0.66784 0.0
H481 H 0.98976 0.23127 0.56275 0.0
H482 H 0.01294 0.24072 0.55569 0.0
H483 H 0.9925 0.25572 0.54935 0.0
C484 C 0.02905 0.29818 0.55 0.0
C485 C 0.02021 0.31589 0.55376 0.0
C486 C 0.02231 0.2825 0.56971 0.0
C487 C 0.00633 0.28403 0.59304 0.0
C488 C 0.99663 0.30138 0.5946 0.0
H489 H 0.99301 0.17702 0.71422 0.0
H490 H 0.98204 0.20528 0.6809 0.0
C491 C 0.00349 0.31716 0.57512 0.0
C492 C 0.00163 0.26842 0.61958 0.0
H493 H 7e-05 0.22032 0.62515 0.0
C494 C 0.00097 0.27247 0.65838 0.0
C495 C -4e-05 0.24941 0.60761 0.0
C496 C 0.99861 0.2441 0.56651 0.0
C497 C 0.00034 0.25798 0.68539 0.0
C498 C 0.00099 0.2389 0.6734 0.0
C499 C -3e-05 0.2349 0.63462 0.0
C500 C 0.00505 0.22306 0.69986 0.0
C501 C -0.00057 0.26335 0.72651 0.0
C502 C 0.02121 0.22376 0.72286 0.0
C503 C 0.02734 0.20774 0.74236 0.0
C504 C 0.01766 0.19049 0.73869 0.0
C505 C 0.00077 0.19009 0.71774 0.0
C506 C 0.99454 0.20622 0.69846 0.0
H507 H 0.99123 0.27662 0.7304 0.0
H508 H 0.99286 0.25206 0.74378 0.0
H509 H 0.01396 0.26599 0.73709 0.0
H510 H 0.0299 0.23634 0.7238 0.0
H511 H 0.04046 0.20856 0.75802 0.0
H512 H 0.07858 0.01849 0.25306 0.0
H513 H 0.04742 0.00341 0.25429 0.0
H514 H 0.03255 0.03617 0.35263 0.0
H515 H 0.06319 0.05196 0.35021 0.0
H516 H 0.02953 0.9821 0.30107 0.0
H517 H 0.9884 0.04825 0.28839 0.0
H518 H 0.01372 0.04765 0.28287 0.0
H519 H 0.0033 0.04877 0.32921 0.0
C520 C 0.06865 0.02241 0.27497 0.0
C521 C 0.0732 0.03654 0.30127 0.0
C522 C 0.05083 0.01383 0.27562 0.0
C523 C 0.03736 0.01905 0.30288 0.0
C524 C 0.04235 0.03243 0.33039 0.0
H525 H 0.93971 0.94932 0.35508 0.0
H526 H 0.96991 0.96604 0.35565 0.0
C527 C 0.05995 0.0413 0.32923 0.0
C528 C 0.0182 0.01036 0.30284 0.0
H529 H 0.97105 0.02079 0.30684 0.0
C530 C 0.01675 0.99058 0.30205 0.0
C531 C 0.00144 0.02139 0.30326 0.0
C532 C 0.00178 0.04268 0.30054 0.0
C533 C 0.9991 0.98153 0.30241 0.0
C534 C 0.98239 0.99253 0.30535 0.0
C535 C 0.98383 0.01232 0.30534 0.0
C536 C 0.9633 0.98379 0.30768 0.0
C537 C 0.99865 0.96027 0.29858 0.0
C538 C 0.94894 0.98915 0.28241 0.0
C539 C 0.93138 0.98004 0.28294 0.0
C540 C 0.928 0.96525 0.30843 0.0
C541 C 0.94204 0.96052 0.33482 0.0
C542 C 0.95939 0.96992 0.33486 0.0
H543 H 0.01154 0.95485 0.28427 0.0
H544 H 0.99814 0.95382 0.32704 0.0
H545 H 0.98609 0.95552 0.28236 0.0
H546 H 0.95152 -6e-05 0.26141 0.0
H547 H 0.92084 0.98392 0.26218 0.0
H548 H 0.98482 0.58172 0.50113 0.0
H549 H 0.00083 0.55091 0.5001 0.0
H550 H 0.97121 0.53481 0.60137 0.0
H551 H 0.95455 0.56504 0.60133 0.0
H552 H 0.02374 0.53251 0.54445 0.0
H553 H 0.95753 0.49147 0.53573 0.0
H554 H 0.95792 0.51683 0.53104 0.0
H555 H 0.95775 0.50603 0.57706 0.0
C556 C 0.98185 0.57161 0.52325 0.0
C557 C 0.96828 0.57564 0.55103 0.0
C558 C 0.99095 0.554 0.5226 0.0
C559 C 0.98678 0.54026 0.54998 0.0
C560 C 0.97411 0.54482 0.57907 0.0
H561 H 0.05641 0.44238 0.59952 0.0
H562 H 0.04082 0.47319 0.59793 0.0
C563 C 0.96474 0.56219 0.57925 0.0
C564 C 0.99557 0.52116 0.54824 0.0
H565 H 0.98536 0.47403 0.5522 0.0
C566 C 0.01533 0.51973 0.54582 0.0
C567 C 0.98462 0.5044 0.54904 0.0
C568 C 0.96328 0.50475 0.54791 0.0
C569 C 0.02445 0.50207 0.54531 0.0
C570 C 0.01356 0.48536 0.54888 0.0
C571 C 0.99377 0.48679 0.55017 0.0
C572 C 0.02235 0.46626 0.55121 0.0
C573 C 0.04563 0.5016 0.54013 0.0
C574 C 0.01639 0.45165 0.5271 0.0
C575 C 0.02488 0.43378 0.52882 0.0
C576 C 0.03966 0.43029 0.55437 0.0
C577 C 0.04523 0.44474 0.57919 0.0
C578 C 0.03647 0.46244 0.57801 0.0
H579 H 0.05072 0.51439 0.52512 0.0
H580 H 0.05256 0.50132 0.56818 0.0
H581 H 0.05017 0.48892 0.524 0.0
H582 H 0.00541 0.45416 0.5064 0.0
H583 H 0.02034 0.42293 0.50927 0.0
H584 H 0.44333 0.43521 0.7923 0.0
H585 H 0.4735 0.45189 0.79258 0.0
H586 H 0.44422 0.5052 0.78432 0.0
H587 H 0.41378 0.48862 0.78397 0.0
H588 H 0.48735 0.47823 0.73502 0.0
H589 H 0.4805 0.51014 0.87781 0.0
H590 H 0.4666 0.49007 0.86293 0.0
H591 H 0.46081 0.51331 0.84629 0.0
C592 C 0.44322 0.4505 0.79065 0.0
C593 C 0.42608 0.46058 0.78826 0.0
C594 C 0.46051 0.45998 0.79072 0.0
C595 C 0.46106 0.47974 0.7888 0.0
C596 C 0.44405 0.48992 0.78626 0.0
H597 H 0.5515 0.56154 0.79698 0.0
H598 H 0.52141 0.54488 0.79529 0.0
C599 C 0.42669 0.48043 0.78593 0.0
C600 C 0.47951 0.48959 0.7891 0.0
H601 H 0.50741 0.51848 0.84235 0.0
C602 C 0.49179 0.48703 0.75845 0.0
C603 C 0.48519 0.50102 0.81974 0.0
C604 C 0.4727 0.50377 0.85377 0.0
C605 C 0.50953 0.49591 0.7573 0.0
C606 C 0.51531 0.50725 0.78813 0.0
C607 C 0.50299 0.50976 0.8188 0.0
C608 C 0.53383 0.5171 0.78876 0.0
C609 C 0.52166 0.49347 0.72266 0.0
C610 C 0.55091 0.50702 0.78603 0.0
C611 C 0.56826 0.51655 0.78672 0.0
C612 C 0.56882 0.53633 0.79066 0.0
C613 C 0.55165 0.54631 0.79395 0.0
C614 C 0.53439 0.5368 0.79299 0.0
H615 H 0.5132 0.48881 0.69795 0.0
H616 H 0.52898 0.50684 0.71533 0.0
H617 H 0.53255 0.48251 0.72821 0.0
H618 H 0.55085 0.49176 0.78366 0.0
H619 H 0.5812 0.50843 0.78439 0.0
H620 H 0.56358 0.94362 0.03234 0.0
H621 H 0.54711 0.97389 0.03442 0.0
H622 H 0.49349 0.94505 0.03576 0.0
H623 H 0.50989 0.91444 0.03363 0.0
H624 H 0.51845 0.9876 0.98112 0.0
H625 H 0.49295 0.98203 0.12908 0.0
H626 H 0.51225 0.96786 0.11121 0.0
H627 H 0.48835 0.96221 0.09858 0.0
C628 C 0.54827 0.94361 0.03313 0.0
C629 C 0.53805 0.92654 0.03297 0.0
C630 C 0.5389 0.96097 0.03424 0.0
C631 C 0.51913 0.96169 0.03558 0.0
C632 C 0.5088 0.94475 0.03516 0.0
H633 H 0.439 0.0533 0.05463 0.0
H634 H 0.45543 0.02308 0.0523 0.0
C635 C 0.51818 0.92729 0.03378 0.0
C636 C 0.50948 0.98026 0.03715 0.0
H637 H 0.48366 0.00902 0.09481 0.0
C638 C 0.51082 0.99233 0.00593 0.0
C639 C 0.49962 0.98632 0.0696 0.0
C640 C 0.49824 0.97405 0.10422 0.0
C641 C 0.50224 0.01026 0.00602 0.0
C642 C 0.4925 0.01644 0.03865 0.0
C643 C 0.4912 0.00432 0.06989 0.0
C644 C 0.48289 0.0351 0.0405 0.0
C645 C 0.50327 0.02216 0.97081 0.0
C646 C 0.49291 0.05204 0.03523 0.0
C647 C 0.48349 0.06948 0.03625 0.0
C648 C 0.46392 0.07029 0.04307 0.0
C649 C 0.45408 0.05328 0.04927 0.0
C650 C 0.46345 0.03593 0.04798 0.0
H651 H 0.50671 0.01349 0.94558 0.0
H652 H 0.4897 0.02964 0.96567 0.0
H653 H 0.51456 0.0329 0.97419 0.0
H654 H 0.50802 0.05178 0.03033 0.0
H655 H 0.49152 0.08229 0.03163 0.0
H656 H 0.05051 0.43229 0.98155 0.0
H657 H 0.02011 0.44862 0.98201 0.0
H658 H 0.04851 0.50197 -0.00319 0.0
H659 H 0.0792 0.48573 -0.00346 0.0
H660 H 0.00614 0.47333 0.04324 0.0
H661 H 0.01177 0.50887 0.90386 0.0
H662 H 0.02582 0.48843 0.91612 0.0
H663 H 0.03166 0.51118 0.93518 0.0
C664 C 0.05039 0.44752 -0.01531 0.0
C665 C 0.06736 0.4577 -0.01107 0.0
C666 C 0.03296 0.4568 -0.01497 0.0
C667 C 0.0321 0.47647 -0.01081 0.0
C668 C 0.04893 0.48677 -0.00681 0.0
H669 H 0.94182 0.55836 -0.00778 0.0
H670 H 0.97174 0.54133 -0.009 0.0
C671 C 0.06644 0.47746 -0.00687 0.0
C672 C 0.01349 0.48606 -0.00979 0.0
H673 H 0.98501 0.51612 0.94085 0.0
C674 C 0.00145 0.48268 0.02088 0.0
C675 C 0.0075 0.49819 0.96095 0.0
C676 C 0.01975 0.50186 0.92695 0.0
C677 C 0.98367 0.49146 0.0235 0.0
C678 C 0.97759 0.50355 -0.00589 0.0
C679 C 0.98964 0.50681 0.96331 0.0
C680 C 0.95913 0.51358 -0.00467 0.0
C681 C 0.97185 0.48814 0.05825 0.0
C682 C 0.94198 0.50365 -0.00206 0.0
C683 C 0.92472 0.5134 -0.001 0.0
C684 C 0.92432 0.53325 -0.0031 0.0
C685 C 0.94154 0.54307 -0.00617 0.0
C686 C 0.95871 0.53336 -0.00691 0.0
H687 H 0.98051 0.48278 0.0821 0.0
H688 H 0.96462 0.50132 0.06733 0.0
H689 H 0.96089 0.47739 0.05187 0.0
H690 H 0.94193 0.48835 -0.00119 0.0
H691 H 0.91173 0.5054 0.00108 0.0
H692 H 0.43287 0.44226 0.23643 0.0
H693 H 0.44889 0.47281 0.2364 0.0
H694 H 0.50287 0.44471 0.24373 0.0
H695 H 0.48698 0.41392 0.24392 0.0
H696 H 0.47579 0.48678 0.29455 0.0
H697 H 0.50595 0.48157 0.15006 0.0
H698 H 0.48608 0.46748 0.16518 0.0
H699 H 0.50951 0.4616 0.18064 0.0
C700 C 0.44817 0.4425 0.23793 0.0
C701 C 0.45865 0.42559 0.24004 0.0
C702 C 0.45727 0.46 0.238 0.0
C703 C 0.47702 0.46097 0.23976 0.0
C704 C 0.48759 0.4442 0.24198 0.0
H705 H 0.55851 0.5512 0.23189 0.0
H706 H 0.54154 0.5213 0.23254 0.0
C707 C 0.47848 0.42664 0.24219 0.0
C708 C 0.4865 0.4796 0.23961 0.0
H709 H 0.51451 0.50821 0.18623 0.0
C710 C 0.48424 0.49154 0.2709 0.0
C711 C 0.49746 0.48568 0.20867 0.0
C712 C 0.49987 0.47353 0.17403 0.0
C713 C 0.49306 0.50931 0.27244 0.0
C714 C 0.50399 0.51546 0.24138 0.0
C715 C 0.5061 0.50351 0.20998 0.0
C716 C 0.514 0.5339 0.24134 0.0
C717 C 0.49105 0.52103 0.30778 0.0
C718 C 0.50415 0.55104 0.24571 0.0
C719 C 0.51387 0.56828 0.24568 0.0
C720 C 0.5336 0.56868 0.24071 0.0
C721 C 0.54332 0.55148 0.23573 0.0
C722 C 0.53364 0.53432 0.23608 0.0
H723 H 0.48663 0.5123 0.33225 0.0
H724 H 0.50453 0.52822 0.31492 0.0
H725 H 0.48007 0.53201 0.30323 0.0
H726 H 0.48892 0.5511 0.2489 0.0
H727 H 0.50594 0.58126 0.24931 0.0
H728 H 0.43673 0.05205 0.43449 0.0
H729 H 0.46755 0.0365 0.4336 0.0
H730 H 0.45082 0.00182 0.52781 0.0
H731 H 0.41957 0.0168 0.52768 0.0
H732 H 0.49415 0.03667 0.48441 0.0
H733 H 0.47266 0.96235 0.46067 0.0
H734 H 0.45632 0.98179 0.45596 0.0
H735 H 0.46188 0.97238 0.50181 0.0
C736 C 0.43951 0.0409 0.45467 0.0
C737 C 0.4257 0.03556 0.48103 0.0
C738 C 0.45717 0.03206 0.45421 0.0
C739 C 0.46152 0.01783 0.48037 0.0
C740 C 0.44769 0.0124 0.50668 0.0
H741 H 0.57836 0.98416 0.53024 0.0
H742 H 0.54741 -0.0002 0.53076 0.0
C743 C 0.42984 0.02101 0.50669 0.0
C744 C 0.48079 0.00936 0.48087 0.0
H745 H 0.50474 0.96748 0.4777 0.0
C746 C 0.49646 0.02153 0.48273 0.0
C747 C 0.48386 0.98963 0.47832 0.0
C748 C 0.4678 0.9758 0.47368 0.0
C749 C 0.51507 0.01456 0.48196 0.0
C750 C 0.51812 0.99479 0.48065 0.0
C751 C 0.50244 0.98263 0.47896 0.0
C752 C 0.53738 0.98631 0.47966 0.0
C753 C 0.53118 0.02851 0.48137 0.0
C754 C 0.54202 0.97333 0.45116 0.0
C755 C 0.55947 0.9641 0.45135 0.0
C756 C 0.5728 0.9678 0.47979 0.0
C757 C 0.56846 0.98124 0.50768 0.0
C758 C 0.55079 0.99023 0.5079 0.0
H759 H 0.52653 0.04256 0.47089 0.0
H760 H 0.53662 0.03044 0.51045 0.0
H761 H 0.54296 0.02342 0.46331 0.0
H762 H 0.53199 0.97008 0.429 0.0
H763 H 0.56244 0.95385 0.42941 0.0
H764 H 0.00679 0.08643 0.74213 0.0
H765 H 0.99009 0.05612 0.73933 0.0
H766 H 0.04346 0.02669 0.73332 0.0
H767 H 0.06015 0.05673 0.735 0.0
H768 H 0.01904 0.01303 0.68267 0.0
H769 H 0.98396 0.01769 0.82223 0.0
H770 H 0.97859 0.03719 0.79175 0.0
H771 H 0.00243 0.03374 0.80812 0.0
C772 C 0.01495 0.07349 0.74033 0.0
C773 C 0.03481 0.07404 0.73886 0.0
C774 C 0.00539 0.05616 0.73898 0.0
C775 C 0.01554 0.03909 0.73674 0.0
C776 C 0.03533 0.03965 0.73512 0.0
H777 H 0.9867 0.91915 0.74032 0.0
H778 H 0.00343 0.94954 0.74124 0.0
C779 C 0.04485 0.0569 0.73611 0.0
C780 C 0.0057 0.02056 0.7352 0.0
H781 H 0.97484 0.99212 0.78272 0.0
C782 C 0.00945 0.00844 0.70465 0.0
C783 C 0.99325 0.01451 0.76399 0.0
C784 C 0.98943 0.02637 0.79856 0.0
C785 C 0.00092 0.99059 0.70191 0.0
C786 C 0.98835 0.9847 0.73043 0.0
C787 C 0.98453 0.99675 0.76091 0.0
C788 C 0.97858 0.96624 0.7286 0.0
C789 C 0.00512 0.9782 0.66829 0.0
C790 C 0.95916 0.96567 0.72114 0.0
C791 C 0.94962 0.94842 0.72033 0.0
C792 C 0.95929 0.93136 0.72742 0.0
C793 C 0.97884 0.93199 0.73469 0.0
C794 C 0.98842 0.94931 0.73519 0.0
H795 H 0.01323 0.98581 0.64623 0.0
H796 H 0.01351 0.96577 0.67753 0.0
H797 H 0.99176 0.97287 0.65576 0.0
H798 H 0.95135 0.97861 0.71605 0.0
H799 H 0.93457 0.94854 0.71476 0.0
H800 H 0.05895 0.14387 0.60915 0.0
H801 H 0.07754 0.13684 0.55275 0.0
H802 H 0.12838 0.13487 0.61977 0.0
H803 H 0.10998 0.14226 0.67629 0.0
H804 H 0.13279 0.15056 0.54361 0.0
H805 H 0.09653 0.08104 0.54948 0.0
H806 H 0.08077 0.10095 0.54785 0.0
H807 H 0.09593 0.09768 0.58803 0.0
C808 C 0.07414 0.14234 0.61174 0.0
C809 C 0.08299 0.1432 0.64712 0.0
C810 C 0.08472 0.13838 0.57956 0.0
C811 C 0.10421 0.13502 0.58244 0.0
C812 C 0.11332 0.13738 0.61717 0.0
H813 H 0.1538 0.06 0.41851 0.0
H814 H 0.1493 0.07661 0.4783 0.0
C815 C 0.10277 0.14152 0.64938 0.0
C816 C 0.11445 0.12655 0.5505 0.0
H817 H 0.11495 0.0872 0.49534 0.0
C818 C 0.12906 0.13666 0.53306 0.0
C819 C 0.10981 0.10822 0.53767 0.0
C820 C 0.09504 0.09623 0.55691 0.0
C821 C 0.1387 0.12912 0.50185 0.0
C822 C 0.13331 0.11121 0.48776 0.0
C823 C 0.11911 0.10093 0.50617 0.0
C824 C 0.14101 0.1031 0.45256 0.0
C825 C 0.15453 0.14036 0.4844 0.0
C826 C 0.13866 0.11276 0.41834 0.0
C827 C 0.14151 0.10336 0.3842 0.0
C828 C 0.14629 0.08408 0.3839 0.0
C829 C 0.14992 0.07482 0.41809 0.0
C830 C 0.14742 0.08431 0.45217 0.0
H831 H 0.16116 0.14997 0.50535 0.0
H832 H 0.16561 0.13097 0.47246 0.0
H833 H 0.14873 0.14921 0.46132 0.0
H834 H 0.1333 0.1271 0.4179 0.0
H835 H 0.13858 0.11081 0.35817 0.0
H836 H 0.94238 0.64554 0.67544 0.0
H837 H 0.92534 0.63833 0.73365 0.0
H838 H 0.87331 0.63337 0.67099 0.0
H839 H 0.89011 0.64104 0.61282 0.0
H840 H 0.86879 0.64887 0.74509 0.0
H841 H 0.91034 0.58216 0.74197 0.0
H842 H 0.92452 0.60317 0.7428 0.0
H843 H 0.90969 0.59834 0.70276 0.0
C844 C 0.92724 0.64333 0.67422 0.0
C845 C 0.91762 0.64342 0.6396 0.0
C846 C 0.91755 0.63924 0.70742 0.0
C847 C 0.89821 0.63493 0.70627 0.0
C848 C 0.88827 0.63659 0.67227 0.0
H849 H 0.85038 0.55723 0.86624 0.0
H850 H 0.85666 0.57443 0.8079 0.0
C851 C 0.89791 0.64089 0.6391 0.0
C852 C 0.88899 0.62624 0.73917 0.0
H853 H 0.89105 0.58728 0.79519 0.0
C854 C 0.87356 0.63539 0.75613 0.0
C855 C 0.89499 0.60843 0.75267 0.0
C856 C 0.91066 0.59733 0.73394 0.0
C857 C 0.86425 0.62733 0.78714 0.0
C858 C 0.87082 0.60988 0.80158 0.0
C859 C 0.88602 0.60066 0.78405 0.0
C860 C 0.86284 0.60099 0.83566 0.0
C861 C 0.8474 0.6374 0.80378 0.0
C862 C 0.86357 0.61043 0.87043 0.0
C863 C 0.85975 0.60068 0.90373 0.0
C864 C 0.85555 0.58129 0.90268 0.0
C865 C 0.85377 0.57215 0.86776 0.0
C866 C 0.85729 0.58196 0.83449 0.0
H867 H 0.84061 0.64691 0.78284 0.0
H868 H 0.8367 0.62721 0.81422 0.0
H869 H 0.85214 0.64622 0.82787 0.0
H870 H 0.86824 0.62497 0.87208 0.0
H871 H 0.86127 0.60804 0.93036 0.0
H872 H 0.38733 0.34442 0.1707 0.0
H873 H 0.36785 0.34597 0.1137 0.0
H874 H 0.41606 0.36584 0.05072 0.0
H875 H 0.4356 0.3639 0.107 0.0
H876 H 0.35984 0.37771 0.07802 0.0
H877 H 0.39358 0.32983 0.97612 0.0
H878 H 0.39834 0.3284 0.02608 0.0
H879 H 0.41138 0.34457 -0.00335 0.0
C880 C 0.39385 0.34871 0.14446 0.0
C881 C 0.41294 0.35419 0.1433 0.0
C882 C 0.38272 0.34954 0.11196 0.0
C883 C 0.39057 0.35572 0.07785 0.0
C884 C 0.40981 0.36049 0.07643 0.0
H885 H 0.36573 0.43478 0.9216 0.0
H886 H 0.36766 0.41492 0.97741 0.0
C887 C 0.42094 0.35959 0.10878 0.0
C888 C 0.3784 0.35997 0.04506 0.0
H889 H 0.37941 0.35878 0.94919 0.0
C890 C 0.3637 0.37311 0.04987 0.0
C891 C 0.38299 0.3536 0.00842 0.0
C892 C 0.3973 0.33814 0.00165 0.0
C893 C 0.35503 0.38167 0.01876 0.0
C894 C 0.36159 0.37726 0.98218 0.0
C895 C 0.37468 0.36251 0.97732 0.0
C896 C 0.35753 0.38959 0.94958 0.0
C897 C 0.33962 0.39604 0.02551 0.0
C898 C 0.35138 0.38193 0.91524 0.0
C899 C 0.35056 0.39323 0.88303 0.0
C900 C 0.356 0.41233 0.88471 0.0
C901 C 0.36144 0.42012 0.91944 0.0
C902 C 0.36233 0.40882 0.9515 0.0
H903 H 0.33117 0.39226 0.05079 0.0
H904 H 0.34611 0.41005 0.03091 0.0
H905 H 0.32999 0.39723 0.00089 0.0
H906 H 0.34779 0.36709 0.91311 0.0
H907 H 0.34625 0.38687 0.85661 0.0
H908 H 0.6387 0.89338 0.41235 0.0
H909 H 0.63675 0.87952 0.34964 0.0
H910 H 0.65333 0.93279 0.30056 0.0
H911 H 0.6544 0.94699 0.36341 0.0
H912 H 0.62162 0.92221 0.27314 0.0
H913 H 0.66878 0.86032 0.26605 0.0
H914 H 0.65448 0.85879 0.30755 0.0
H915 H 0.67101 0.87801 0.30253 0.0
C916 C 0.6424 0.902 0.38825 0.0
C917 C 0.6464 0.92131 0.39254 0.0
C918 C 0.64152 0.89399 0.35238 0.0
C919 C 0.6451 0.90504 0.32034 0.0
C920 C 0.65056 0.92399 0.3249 0.0
H921 H 0.61441 0.86219 0.09556 0.0
H922 H 0.63421 0.87236 0.14856 0.0
C923 C 0.65107 0.9321 0.36073 0.0
C924 C 0.63953 0.89794 0.28271 0.0
H925 H 0.64016 0.85865 0.22673 0.0
C926 C 0.6261 0.90852 0.26258 0.0
C927 C 0.64542 0.88016 0.26862 0.0
C928 C 0.66088 0.86881 0.28721 0.0
C929 C 0.61747 0.90127 0.23028 0.0
C930 C 0.62203 0.88277 0.21836 0.0
C931 C 0.63641 0.87267 0.23666 0.0
C932 C 0.61106 0.87358 0.18827 0.0
C933 C 0.60306 0.91326 0.20986 0.0
C934 C 0.59173 0.87019 0.19378 0.0
C935 C 0.58041 0.86457 0.1637 0.0
C936 C 0.58831 0.8621 0.12775 0.0
C937 C 0.60795 0.8641 0.12297 0.0
C938 C 0.61927 0.86986 0.15313 0.0
H939 H 0.60504 0.92854 0.21592 0.0
H940 H 0.60387 0.91104 0.17891 0.0
H941 H 0.58867 0.90925 0.21937 0.0
H942 H 0.58526 0.87275 0.22099 0.0
H943 H 0.56536 0.86289 0.16827 0.0
H944 H 0.11314 0.34559 0.61234 0.0
H945 H 0.13311 0.34416 0.66865 0.0
H946 H 0.08617 0.36344 0.73632 0.0
H947 H 0.06613 0.3644 0.68068 0.0
H948 H 0.14281 0.37388 0.70758 0.0
H949 H 0.10838 0.3253 0.80612 0.0
H950 H 0.103 0.32512 0.75632 0.0
H951 H 0.09058 0.34083 0.78798 0.0
C952 C 0.10699 0.3491 0.63943 0.0
C953 C 0.08814 0.3553 0.64215 0.0
C954 C 0.1184 0.34819 0.67153 0.0
C955 C 0.11107 0.35338 0.70679 0.0
C956 C 0.09201 0.35878 0.70966 0.0
H957 H 0.13322 0.43097 0.86061 0.0
H958 H 0.13383 0.41054 0.80549 0.0
C959 C 0.0806 0.35959 0.67771 0.0
C960 C 0.1237 0.35631 0.73947 0.0
H961 H 0.12212 0.35435 0.83518 0.0
C962 C 0.13874 0.36908 0.73544 0.0
C963 C 0.11897 0.34958 0.77573 0.0
C964 C 0.10448 0.33426 0.78161 0.0
C965 C 0.14731 0.37726 0.76705 0.0
C966 C 0.14027 0.37289 0.80326 0.0
C967 C 0.12716 0.35815 0.80734 0.0
C968 C 0.1433 0.38564 0.83572 0.0
C969 C 0.16297 0.3914 0.76119 0.0
C970 C 0.14826 0.37844 0.87119 0.0
C971 C 0.14757 0.39008 0.90299 0.0
C972 C 0.1418 0.40905 0.89974 0.0
C973 C 0.1377 0.41642 0.86399 0.0
C974 C 0.1383 0.40479 0.83234 0.0
H975 H 0.17196 0.3872 0.73691 0.0
H976 H 0.15673 0.4054 0.75449 0.0
H977 H 0.17202 0.3928 0.78662 0.0
H978 H 0.15197 0.36367 0.87445 0.0
H979 H 0.15092 0.38405 0.93024 0.0
H980 H 0.60684 0.65123 0.17412 0.0
H981 H 0.62603 0.65064 0.11678 0.0
H982 H 0.57808 0.62983 0.05401 0.0
H983 H 0.55877 0.63089 0.11071 0.0
H984 H 0.63481 0.61944 0.08099 0.0
H985 H 0.59948 0.66618 0.97934 0.0
H986 H 0.59464 0.66744 0.02929 0.0
H987 H 0.58213 0.65087 -0.00032 0.0
C988 C 0.6003 0.64695 0.14786 0.0
C989 C 0.58137 0.64093 0.14687 0.0
C990 C 0.61126 0.64668 0.11516 0.0
C991 C 0.60343 0.64047 0.08102 0.0
C992 C 0.5843 0.63522 0.07976 0.0
H993 H 0.63008 0.56202 0.92484 0.0
H994 H 0.62781 0.58192 0.98064 0.0
C995 C 0.57331 0.63561 0.11232 0.0
C996 C 0.61563 0.63655 0.04813 0.0
H997 H 0.61444 0.63759 0.95227 0.0
C998 C 0.63075 0.62389 0.05287 0.0
C999 C 0.61078 0.64273 0.01152 0.0
C1000 C 0.596 0.65774 0.00479 0.0
C1001 C 0.63964 0.61558 0.02174 0.0
C1002 C 0.63288 0.61973 -0.0148 0.0
C1003 C 0.61933 0.63405 0.98038 0.0
C1004 C 0.63723 0.60744 0.95266 0.0
C1005 C 0.65551 0.60171 0.02841 0.0
C1006 C 0.64312 0.6152 0.91827 0.0
C1007 C 0.64414 0.60386 0.88609 0.0
C1008 C 0.63915 0.58464 0.88785 0.0
C1009 C 0.63401 0.57677 0.92263 0.0
C1010 C 0.63293 0.5881 0.95467 0.0
H1011 H 0.66388 0.60578 0.05365 0.0
H1012 H 0.64947 0.5875 0.03383 0.0
H1013 H 0.66513 0.60079 0.00375 0.0
H1014 H 0.64633 0.63012 0.91609 0.0
H1015 H 0.64823 0.61028 0.85963 0.0
H1016 H 0.34985 0.05857 0.36063 0.0
H1017 H 0.35613 0.076 0.3025 0.0
H1018 H 0.36267 0.12747 0.36638 0.0
H1019 H 0.35596 0.11027 0.42457 0.0
H1020 H 0.34666 0.13204 0.29027 0.0
H1021 H 0.41326 0.09035 0.29734 0.0
H1022 H 0.39211 0.07636 0.29659 0.0
H1023 H 0.39682 0.09159 0.33608 0.0
C1024 C 0.3521 0.07369 0.36215 0.0
C1025 C 0.35289 0.08301 0.39706 0.0
C1026 C 0.35562 0.08361 0.32899 0.0
C1027 C 0.36021 0.10287 0.33048 0.0
C1028 C 0.35919 0.11258 0.36485 0.0
H1029 H 0.4396 0.14795 0.17084 0.0
H1030 H 0.4218 0.14339 0.22914 0.0
C1031 C 0.35545 0.10271 0.39802 0.0
C1032 C 0.36923 0.11193 0.29781 0.0
H1033 H 0.40878 0.1093 0.24354 0.0
C1034 C 0.36026 0.12719 0.27996 0.0
C1035 C 0.38719 0.10581 0.28532 0.0
C1036 C 0.39803 0.09026 0.30498 0.0
C1037 C 0.36865 0.13616 0.24888 0.0
C1038 C 0.38625 0.12945 0.23542 0.0
C1039 C 0.3953 0.11447 0.25396 0.0
C1040 C 0.3954 0.13685 0.20111 0.0
C1041 C 0.35872 0.15277 0.23105 0.0
C1042 C 0.38624 0.1354 0.16615 0.0
C1043 C 0.39633 0.13824 0.13286 0.0
C1044 C 0.41579 0.14214 0.13416 0.0
C1045 C 0.42465 0.14475 0.16915 0.0
C1046 C 0.41449 0.14223 0.20239 0.0
H1047 H 0.34908 0.15987 0.25137 0.0
H1048 H 0.369 0.1633 0.22027 0.0
H1049 H 0.35005 0.1477 0.20702 0.0
H1050 H 0.37166 0.13084 0.16445 0.0
H1051 H 0.38918 0.13612 0.10618 0.0
H1052 H 0.93277 0.8356 0.61825 0.0
H1053 H 0.91658 0.8331 0.5573 0.0
H1054 H 0.87275 0.87052 0.5979 0.0
H1055 H 0.88805 0.87165 0.65956 0.0
H1056 H 0.85819 0.84682 0.54944 0.0
H1057 H 0.92463 0.87622 0.48883 0.0
H1058 H 0.927 0.85312 0.50891 0.0
H1059 H 0.92157 0.87305 0.53871 0.0
C1060 C 0.91946 0.84291 0.61416 0.0
C1061 C 0.91173 0.85408 0.64298 0.0
C1062 C 0.91029 0.84157 0.57942 0.0
C1063 C 0.89384 0.85218 0.57261 0.0
C1064 C 0.88549 0.86228 0.6024 0.0
H1065 H 0.84973 0.92426 0.41958 0.0
H1066 H 0.85409 0.90179 0.47123 0.0
C1067 C 0.89427 0.86304 0.63752 0.0
C1068 C 0.88653 0.85491 0.53391 0.0
H1069 H 0.89839 0.87492 0.44976 0.0
C1070 C 0.86705 0.85264 0.52739 0.0
C1071 C 0.89812 0.86257 0.50512 0.0
C1072 C 0.91893 0.86655 0.5107 0.0
C1073 C 0.85868 0.85903 0.49389 0.0
C1074 C 0.87016 0.86744 0.46622 0.0
C1075 C 0.88976 0.86828 0.47128 0.0
C1076 C 0.86224 0.87854 0.43502 0.0
C1077 C 0.83756 0.85774 0.48894 0.0
C1078 C 0.86493 0.87262 0.39774 0.0
C1079 C 0.86232 0.88538 0.36821 0.0
C1080 C 0.85748 0.90429 0.37585 0.0
C1081 C 0.85362 0.9098 0.41305 0.0
C1082 C 0.8559 0.89696 0.44245 0.0
H1083 H 0.83113 0.8476 0.50907 0.0
H1084 H 0.8312 0.87189 0.49384 0.0
H1085 H 0.83402 0.85338 0.4597 0.0
H1086 H 0.87014 0.85853 0.3917 0.0
H1087 H 0.86536 0.88076 0.33973 0.0
H1088 H 0.05834 0.13316 0.88505 0.0
H1089 H 0.06612 0.12816 0.9518 0.0
H1090 H 0.12349 0.11424 0.92131 0.0
H1091 H 0.116 0.11932 0.85515 0.0
H1092 H 0.07984 0.0934 0.98174 0.0
H1093 H 0.12998 0.15217 0.00813 0.0
H1094 H 0.11388 0.15198 0.9686 0.0
H1095 H 0.13539 0.13844 0.96691 0.0
C1096 C 0.07268 0.12939 0.89269 0.0
C1097 C 0.08653 0.1266 0.86481 0.0
C1098 C 0.07708 0.12646 0.93074 0.0
C1099 C 0.09542 0.12099 0.9414 0.0
C1100 C 0.10935 0.11875 0.91373 0.0
H1101 H 0.1312 0.06268 0.14606 0.0
H1102 H 0.12515 0.0715 0.08021 0.0
C1103 C 0.10497 0.12156 0.87587 0.0
C1104 C 0.09984 0.1163 0.98104 0.0
H1105 H 0.12928 0.12753 0.05391 0.0
C1106 C 0.09054 0.10093 -0.00232 0.0
C1107 C 0.11382 0.12617 0.00163 0.0
C1108 C 0.12374 0.14322 -0.01442 0.0
C1109 C 0.09505 0.09497 0.0343 0.0
C1110 C 0.10941 0.1045 0.05449 0.0
C1111 C 0.11849 0.12007 0.03807 0.0
C1112 C 0.11431 0.09934 0.09367 0.0
C1113 C 0.08424 0.07872 0.05134 0.0
C1114 C 0.11082 0.11229 0.1227 0.0
C1115 C 0.1143 0.10736 0.16005 0.0
C1116 C 0.12146 0.08936 0.16922 0.0
C1117 C 0.12564 0.07661 0.13994 0.0
C1118 C 0.12207 0.08158 0.10239 0.0
H1119 H 0.07114 0.07551 0.03526 0.0
H1120 H 0.09328 0.0659 0.05124 0.0
H1121 H 0.08035 0.08187 0.08102 0.0
H1122 H 0.10494 0.1261 0.1165 0.0
H1123 H 0.11105 0.11761 0.18182 0.0
H1124 H 0.88238 0.61029 0.43853 0.0
H1125 H 0.87314 0.60398 0.37363 0.0
H1126 H 0.92652 0.62582 0.33456 0.0
H1127 H 0.93609 0.63209 0.39995 0.0
H1128 H 0.87013 0.62833 0.31089 0.0
H1129 H 0.9236 0.57154 0.29013 0.0
H1130 H 0.91748 0.5806 0.33614 0.0
H1131 H 0.93275 0.59392 0.30575 0.0
C1132 C 0.89219 0.61386 0.41623 0.0
C1133 C 0.91008 0.62154 0.42447 0.0
C1134 C 0.88683 0.61027 0.37912 0.0
C1135 C 0.89925 0.61416 0.34944 0.0
C1136 C 0.91686 0.62244 0.35725 0.0
H1137 H 0.8775 0.61532 0.11173 0.0
H1138 H 0.8825 0.62294 0.17791 0.0
C1139 C 0.92225 0.62614 0.39454 0.0
C1140 C 0.89373 0.60907 0.31053 0.0
H1141 H 0.90491 0.57977 0.23733 0.0
C1142 C 0.87772 0.61773 0.29475 0.0
C1143 C 0.90345 0.59494 0.28997 0.0
C1144 C 0.92019 0.58455 0.30635 0.0
C1145 C 0.87139 0.61291 0.25852 0.0
C1146 C 0.88145 0.5992 0.23752 0.0
C1147 C 0.89724 0.59028 0.25357 0.0
C1148 C 0.87655 0.59473 0.19799 0.0
C1149 C 0.85391 0.62241 0.2431 0.0
C1150 C 0.87149 0.57629 0.18734 0.0
C1151 C 0.86859 0.57183 0.1493 0.0
C1152 C 0.87102 0.58571 0.12142 0.0
C1153 C 0.87557 0.60427 0.13247 0.0
C1154 C 0.87832 0.60871 0.17033 0.0
H1155 H 0.84503 0.62845 0.26597 0.0
H1156 H 0.85819 0.63415 0.22423 0.0
H1157 H 0.84525 0.61233 0.22645 0.0
H1158 H 0.87016 0.56529 0.20838 0.0
H1159 H 0.8652 0.5574 0.14165 0.0
H1160 H 0.36609 0.38121 0.67141 0.0
H1161 H 0.37257 0.37327 0.60567 0.0
H1162 H 0.3847 0.43185 0.58233 0.0
H1163 H 0.37736 0.44 0.648 0.0
H1164 H 0.3669 0.41603 0.5246 0.0
H1165 H 0.42568 0.36913 0.56769 0.0
H1166 H 0.40367 0.36182 0.58796 0.0
H1167 H 0.41361 0.3844 0.60055 0.0
C1168 C 0.36981 0.39244 0.65205 0.0
C1169 C 0.37139 0.41119 0.66472 0.0
C1170 C 0.37372 0.38786 0.61464 0.0
C1171 C 0.37982 0.40184 0.58947 0.0
C1172 C 0.38026 0.42079 0.60145 0.0
H1173 H 0.43957 0.37648 0.37999 0.0
H1174 H 0.43156 0.3843 0.44548 0.0
C1175 C 0.37596 0.42546 0.63884 0.0
C1176 C 0.38618 0.39656 0.55105 0.0
H1177 H 0.41588 0.36685 0.50339 0.0
C1178 C 0.37768 0.40536 0.51996 0.0
C1179 C 0.40063 0.38298 0.54499 0.0
C1180 C 0.41157 0.3742 0.57709 0.0
C1181 C 0.38282 0.40056 0.48297 0.0
C1182 C 0.39635 0.38607 0.47693 0.0
C1183 C 0.40526 0.37768 0.50802 0.0
C1184 C 0.40151 0.37954 0.43855 0.0
C1185 C 0.37394 0.41138 0.45085 0.0
C1186 C 0.38745 0.37336 0.41354 0.0
C1187 C 0.39195 0.36916 0.37621 0.0
C1188 C 0.4107 0.37053 0.36346 0.0
C1189 C 0.42503 0.37524 0.3892 0.0
C1190 C 0.42044 0.37981 0.42649 0.0
H1191 H 0.36893 0.42554 0.46012 0.0
H1192 H 0.38405 0.4133 0.42723 0.0
H1193 H 0.36149 0.40347 0.44023 0.0
H1194 H 0.37286 0.37233 0.42259 0.0
H1195 H 0.38067 0.36536 0.35699 0.0
H1196 H 0.60375 0.88084 0.58731 0.0
H1197 H 0.59672 0.87047 0.65122 0.0
H1198 H 0.6213 0.9216 0.6956 0.0
H1199 H 0.6283 0.9323 0.63138 0.0
H1200 H 0.62091 0.86457 0.71317 0.0
H1201 H 0.56734 0.9204 0.74086 0.0
H1202 H 0.57587 0.91502 0.69409 0.0
H1203 H 0.58998 0.92901 0.72565 0.0
C1204 C 0.60775 0.88992 0.61058 0.0
C1205 C 0.61647 0.90751 0.60419 0.0
C1206 C 0.60372 0.88392 0.64711 0.0
C1207 C 0.60821 0.89539 0.67799 0.0
C1208 C 0.61743 0.9127 0.67197 0.0
H1209 H 0.61515 0.87256 0.91265 0.0
H1210 H 0.62045 0.87612 0.84526 0.0
C1211 C 0.62153 0.91873 0.63532 0.0
C1212 C 0.60306 0.88921 0.71643 0.0
H1213 H 0.57622 0.90115 0.79273 0.0
C1214 C 0.61107 0.8725 0.73055 0.0
C1215 C 0.58991 0.89938 0.73861 0.0
C1216 C 0.58011 0.91686 0.72401 0.0
C1217 C 0.60679 0.86604 0.76692 0.0
C1218 C 0.59431 0.87668 0.78973 0.0
C1219 C 0.5858 0.89304 0.77513 0.0
C1220 C 0.59114 0.87207 0.82986 0.0
C1221 C 0.61569 0.84792 0.78067 0.0
C1222 C 0.57286 0.8685 0.84357 0.0
C1223 C 0.56975 0.86643 0.88233 0.0
C1224 C 0.58485 0.86825 0.90784 0.0
C1225 C 0.6032 0.87114 0.89375 0.0
C1226 C 0.6063 0.87305 0.85518 0.0
H1227 H 0.6201 0.83873 0.75681 0.0
H1228 H 0.62847 0.85133 0.79747 0.0
H1229 H 0.60579 0.8399 0.79891 0.0
H1230 H 0.56097 0.86782 0.82437 0.0
H1231 H 0.55545 0.86432 0.89238 0.0
H1232 H 0.06303 0.36903 0.40613 0.0
H1233 H 0.07052 0.3735 0.33917 0.0
H1234 H 0.1259 0.39402 0.36912 0.0
H1235 H 0.11873 0.38949 0.43557 0.0
H1236 H 0.08087 0.40865 0.30553 0.0
H1237 H 0.13668 0.35416 0.28719 0.0
H1238 H 0.12032 0.35397 0.32625 0.0
H1239 H 0.14032 0.3696 0.32675 0.0
C1240 C 0.07689 0.37423 0.39839 0.0
C1241 C 0.09027 0.37891 0.42618 0.0
C1242 C 0.08111 0.37683 0.3602 0.0
C1243 C 0.09882 0.38391 0.34932 0.0
C1244 C 0.11227 0.38825 0.37693 0.0
H1245 H 0.12828 0.43746 0.13543 0.0
H1246 H 0.12384 0.43079 0.20278 0.0
C1247 C 0.10808 0.38574 0.41495 0.0
C1248 C 0.103 0.38781 0.30929 0.0
H1249 H 0.1334 0.37672 0.23794 0.0
C1250 C 0.09229 0.40163 0.29062 0.0
C1251 C 0.1179 0.37858 0.29008 0.0
C1252 C 0.12938 0.36313 0.30843 0.0
C1253 C 0.09621 0.40662 0.25318 0.0
C1254 C 0.11139 0.39771 0.23426 0.0
C1255 C 0.12197 0.38373 0.25281 0.0
C1256 C 0.11559 0.40165 0.19424 0.0
C1257 C 0.08385 0.42109 0.23392 0.0
C1258 C 0.11308 0.38729 0.16755 0.0
C1259 C 0.11566 0.391 0.12937 0.0
C1260 C 0.1209 0.40916 0.11706 0.0
C1261 C 0.12421 0.42336 0.14402 0.0
C1262 C 0.12154 0.41962 0.1824 0.0
H1263 H 0.07059 0.4238 0.24983 0.0
H1264 H 0.09168 0.43462 0.23165 0.0
H1265 H 0.08013 0.4164 0.20498 0.0
H1266 H 0.1086 0.37331 0.17618 0.0
H1267 H 0.11315 0.37967 0.10942 0.0
H1268 H 0.63077 0.55872 0.64959 0.0
H1269 H 0.62661 0.56611 0.58245 0.0
H1270 H 0.6126 0.62371 0.61105 0.0
H1271 H 0.61691 0.61663 0.67754 0.0
H1272 H 0.59254 0.5791 0.55094 0.0
H1273 H 0.6505 0.63009 0.5252 0.0
H1274 H 0.65018 0.61452 0.56549 0.0
H1275 H 0.63638 0.6359 0.56562 0.0
C1276 C 0.6272 0.57304 0.64145 0.0
C1277 C 0.62411 0.58706 0.66888 0.0
C1278 C 0.62476 0.57722 0.60318 0.0
C1279 C 0.61947 0.5955 0.59186 0.0
C1280 C 0.61701 0.60962 0.61911 0.0
H1281 H 0.5608 0.62839 0.38579 0.0
H1282 H 0.56968 0.62313 0.45189 0.0
C1283 C 0.61936 0.60547 0.65718 0.0
C1284 C 0.61497 0.59963 0.55201 0.0
H1285 H 0.62579 0.62921 0.47927 0.0
C1286 C 0.59989 0.58994 0.5351 0.0
C1287 C 0.62462 0.61377 0.53152 0.0
C1288 C 0.64144 0.62406 0.54773 0.0
C1289 C 0.59398 0.59423 0.49835 0.0
C1290 C 0.60321 0.60882 0.47834 0.0
C1291 C 0.61852 0.61827 0.495 0.0
C1292 C 0.59805 0.61356 0.43908 0.0
C1293 C 0.57811 0.58293 0.48104 0.0
C1294 C 0.61129 0.61064 0.41036 0.0
C1295 C 0.60634 0.61373 0.37288 0.0
C1296 C 0.58802 0.61987 0.36328 0.0
C1297 C 0.57498 0.6236 0.39225 0.0
C1298 C 0.57998 0.62046 0.42994 0.0
H1299 H 0.57537 0.56967 0.49685 0.0
H1300 H 0.56497 0.59151 0.48135 0.0
H1301 H 0.58136 0.57927 0.45129 0.0
H1302 H 0.62534 0.60544 0.41686 0.0
H1303 H 0.61682 0.61087 0.35134 0.0
H1304 H 0.361 0.0665 0.63416 0.0
H1305 H 0.36686 0.07531 0.70017 0.0
H1306 H 0.40186 0.1216 0.66371 0.0
H1307 H 0.3961 0.11317 0.59819 0.0
H1308 H 0.41726 0.09204 0.72121 0.0
H1309 H 0.34912 0.12767 0.75593 0.0
H1310 H 0.34857 0.10583 0.72968 0.0
H1311 H 0.35816 0.12665 0.70833 0.0
C1312 C 0.36979 0.07864 0.64021 0.0
C1313 C 0.37809 0.08908 0.61086 0.0
C1314 C 0.37309 0.08366 0.67784 0.0
C1315 C 0.38475 0.0991 0.6865 0.0
C1316 C 0.39281 0.10966 0.65741 0.0
H1317 H 0.43588 0.13849 0.89762 0.0
H1318 H 0.42824 0.13442 0.83062 0.0
C1319 C 0.38945 0.10478 0.61997 0.0
C1320 C 0.38933 0.10386 0.7259 0.0
H1321 H 0.37158 0.12497 0.80471 0.0
C1322 C 0.40734 0.09925 0.7396 0.0
C1323 C 0.3763 0.11331 0.74938 0.0
C1324 C 0.35694 0.11879 0.7353 0.0
C1325 C 0.41256 0.10346 0.77681 0.0
C1326 C 0.39955 0.113 0.80045 0.0
C1327 C 0.38157 0.11778 0.78645 0.0
C1328 C 0.40372 0.11682 0.84063 0.0
C1329 C 0.43169 0.09706 0.79078 0.0
C1330 C 0.39206 0.10894 0.86832 0.0
C1331 C 0.39621 0.11145 0.90634 0.0
C1332 C 0.41218 0.12187 0.91763 0.0
C1333 C 0.42357 0.13027 0.88986 0.0
C1334 C 0.4193 0.12785 0.8516 0.0
H1335 H 0.43799 0.0861 0.77215 0.0
H1336 H 0.44144 0.10932 0.79138 0.0
H1337 H 0.43069 0.09126 0.81977 0.0
H1338 H 0.37995 0.10044 0.86049 0.0
H1339 H 0.38704 0.10481 0.92686 0.0
H1340 H 0.90762 0.90055 0.17023 0.0
H1341 H 0.91016 0.89413 0.10318 0.0
H1342 H 0.86052 0.92805 0.08232 0.0
H1343 H 0.85802 0.93494 0.15004 0.0
H1344 H 0.88428 0.87615 0.05804 0.0
H1345 H 0.89875 0.94901 0.00683 0.0
H1346 H 0.9003 0.94268 0.056 0.0
H1347 H 0.87761 0.94631 0.03437 0.0
C1348 C 0.89723 0.90677 0.15152 0.0
C1349 C 0.88257 0.91826 0.16553 0.0
C1350 C 0.89873 0.90304 0.11314 0.0
C1351 C 0.88562 0.91068 0.08779 0.0
C1352 C 0.87097 0.92226 0.10143 0.0
H1353 H 0.88005 0.898 0.84485 0.0
H1354 H 0.8727 0.90404 0.91082 0.0
C1355 C 0.86952 0.92613 0.14007 0.0
C1356 C 0.88733 0.90596 0.0473 0.0
H1357 H 0.89653 0.92496 0.96092 0.0
C1358 C 0.88689 0.88682 0.03675 0.0
C1359 C 0.89076 0.91993 0.0197 0.0
C1360 C 0.89205 0.94063 0.02967 0.0
C1361 C 0.88996 0.88125 -0.00068 0.0
C1362 C 0.89371 0.89518 0.97191 0.0
C1363 C 0.89371 0.91434 0.9822 0.0
C1364 C 0.89775 0.89022 0.93227 0.0
C1365 C 0.8891 0.86053 -0.01068 0.0
C1366 C 0.91426 0.88029 0.92259 0.0
C1367 C 0.91859 0.8768 0.88473 0.0
C1368 C 0.90648 0.88327 0.85606 0.0
C1369 C 0.88975 0.89284 0.86613 0.0
C1370 C 0.88549 0.89634 0.90383 0.0
H1371 H 0.88196 0.85213 0.01157 0.0
H1372 H 0.88152 0.8584 0.96223 0.0
H1373 H 0.90369 0.855 -0.01404 0.0
H1374 H 0.92402 0.87568 0.94426 0.0
H1375 H 0.9316 0.86946 0.87795 0.0
loop_
_geom_bond_atom_site_label_1
_geom_bond_atom_site_label_2
_geom_bond_distance
_geom_bond_site_symmetry_2
_ccdc_geom_bond_type
C0 O1 1.306 . S
C0 O3 1.160 . S
O1 C0 1.306 . S
O1 Cd2 2.228 . S
Cd2 O1 2.228 . S
Cd2 O6 2.273 . S
Cd2 O10 2.277 . S
O3 C0 1.160 . S
O3 Cd4 2.203 . S
Cd4 O3 2.203 . S
Cd4 O6 2.411 . S
Cd4 O7 2.333 . S
Cd4 O8 2.352 . S
Cd4 O12 2.277 . S
Cd4 O13 2.356 . S
C5 O10 1.209 . S
C5 O12 1.226 . S
O6 Cd2 2.273 . S
O6 Cd4 2.411 . S
O6 C9 1.320 . S
O7 Cd4 2.333 . S
O7 C9 1.214 . S
O8 Cd4 2.352 . S
O8 C11 1.258 . S
C9 O6 1.320 . S
C9 O7 1.214 . S
O10 Cd2 2.277 . S
O10 C5 1.209 . S
C11 O8 1.258 . S
C11 O13 1.282 . S
O12 Cd4 2.277 . S
O12 C5 1.226 . S
O13 Cd4 2.356 . S
O13 C11 1.282 . S
C14 O15 1.306 . S
C14 O17 1.160 . S
O15 C14 1.306 . S
O15 Cd16 2.228 . S
Cd16 O15 2.228 . S
Cd16 O20 2.273 . S
Cd16 O24 2.277 . S
O17 C14 1.160 . S
O17 Cd18 2.203 . S
Cd18 O17 2.203 . S
Cd18 O20 2.411 . S
Cd18 O21 2.333 . S
Cd18 O22 2.352 . S
Cd18 O26 2.277 . S
Cd18 O27 2.356 . S
C19 O24 1.209 . S
C19 O26 1.226 . S
O20 Cd16 2.273 . S
O20 Cd18 2.411 . S
O20 C23 1.320 . S
O21 Cd18 2.333 . S
O21 C23 1.214 . S
O22 Cd18 2.352 . S
O22 C25 1.258 . S
C23 O20 1.320 . S
C23 O21 1.214 . S
O24 Cd16 2.277 . S
O24 C19 1.209 . S
C25 O22 1.258 . S
C25 O27 1.282 . S
O26 Cd18 2.277 . S
O26 C19 1.226 . S
O27 Cd18 2.356 . S
O27 C25 1.282 . S
C28 O29 1.306 . S
C28 O31 1.160 . S
O29 C28 1.306 . S
O29 Cd30 2.228 . S
Cd30 O29 2.228 . S
Cd30 O34 2.273 . S
Cd30 O38 2.277 . S
O31 C28 1.160 . S
O31 Cd32 2.203 . S
Cd32 O31 2.203 . S
Cd32 O34 2.411 . S
Cd32 O35 2.333 . S
Cd32 O36 2.352 . S
Cd32 O40 2.277 . S
Cd32 O41 2.356 . S
C33 O38 1.209 . S
C33 O40 1.226 . S
O34 Cd30 2.273 . S
O34 Cd32 2.411 . S
O34 C37 1.320 . S
O35 Cd32 2.333 . S
O35 C37 1.214 . S
O36 Cd32 2.352 . S
O36 C39 1.258 . S
C37 O34 1.320 . S
C37 O35 1.214 . S
O38 Cd30 2.277 . S
O38 C33 1.209 . S
C39 O36 1.258 . S
C39 O41 1.282 . S
O40 Cd32 2.277 . S
O40 C33 1.226 . S
O41 Cd32 2.356 . S
O41 C39 1.282 . S
C42 O43 1.306 1_556 S
C42 O45 1.152 1_556 S
O43 C42 1.306 1_554 S
O43 Cd44 2.228 . S
Cd44 O43 2.228 . S
Cd44 O48 2.273 . S
Cd44 O52 2.277 . S
O45 C42 1.152 1_554 S
O45 Cd46 2.225 . S
Cd46 O45 2.225 . S
Cd46 O48 2.411 . S
Cd46 O49 2.333 . S
Cd46 O50 2.352 . S
Cd46 O54 2.277 . S
Cd46 O55 2.356 . S
C47 O52 1.209 . S
C47 O54 1.226 . S
O48 Cd44 2.273 . S
O48 Cd46 2.411 . S
O48 C51 1.320 . S
O49 Cd46 2.333 . S
O49 C51 1.214 . S
O50 Cd46 2.352 . S
O50 C53 1.258 . S
C51 O48 1.320 . S
C51 O49 1.214 . S
O52 Cd44 2.277 . S
O52 C47 1.209 . S
C53 O50 1.258 . S
C53 O55 1.282 . S
O54 Cd46 2.277 . S
O54 C47 1.226 . S
O55 Cd46 2.356 . S
O55 C53 1.282 . S
C56 O57 1.306 . S
C56 O59 1.160 . S
O57 C56 1.306 . S
O57 Cd58 2.228 . S
Cd58 O57 2.228 . S
Cd58 O62 2.273 1_554 S
Cd58 O66 2.277 . S
O59 C56 1.160 . S
O59 Cd60 2.203 . S
Cd60 O59 2.203 . S
Cd60 O62 2.411 1_554 S
Cd60 O63 2.333 1_554 S
Cd60 O64 2.352 . S
Cd60 O68 2.277 . S
Cd60 O69 2.356 1_554 S
C61 O66 1.209 . S
C61 O68 1.226 . S
O62 Cd58 2.273 1_556 S
O62 Cd60 2.411 1_556 S
O62 C65 1.320 . S
O63 Cd60 2.333 1_556 S
O63 C65 1.214 . S
O64 Cd60 2.352 . S
O64 C67 1.258 1_554 S
C65 O62 1.320 . S
C65 O63 1.214 . S
O66 Cd58 2.277 . S
O66 C61 1.209 . S
C67 O64 1.258 1_556 S
C67 O69 1.282 . S
O68 Cd60 2.277 . S
O68 C61 1.226 . S
O69 Cd60 2.356 1_556 S
O69 C67 1.282 . S
C70 O71 1.306 . S
C70 O73 1.160 . S
O71 C70 1.306 . S
O71 Cd72 2.228 . S
Cd72 O71 2.228 . S
Cd72 O76 2.273 . S
Cd72 O80 2.277 . S
O73 C70 1.160 . S
O73 Cd74 2.203 . S
Cd74 O73 2.203 . S
Cd74 O76 2.411 . S
Cd74 O77 2.333 . S
Cd74 O78 2.352 . S
Cd74 O82 2.277 . S
Cd74 O83 2.356 . S
C75 O80 1.209 . S
C75 O82 1.226 . S
O76 Cd72 2.273 . S
O76 Cd74 2.411 . S
O76 C79 1.320 . S
O77 Cd74 2.333 . S
O77 C79 1.214 . S
O78 Cd74 2.352 . S
O78 C81 1.258 . S
C79 O76 1.320 . S
C79 O77 1.214 . S
O80 Cd72 2.277 . S
O80 C75 1.209 . S
C81 O78 1.258 . S
C81 O83 1.282 . S
O82 Cd74 2.277 . S
O82 C75 1.226 . S
O83 Cd74 2.356 . S
O83 C81 1.282 . S
C84 O85 1.306 . S
C84 O87 1.160 . S
O85 C84 1.306 . S
O85 Cd86 2.228 . S
Cd86 O85 2.228 . S
Cd86 O90 2.273 . S
Cd86 O94 2.277 . S
O87 C84 1.160 . S
O87 Cd88 2.203 . S
Cd88 O87 2.203 . S
Cd88 O90 2.411 . S
Cd88 O91 2.333 . S
Cd88 O92 2.352 . S
Cd88 O96 2.277 . S
Cd88 O97 2.356 . S
C89 O94 1.209 . S
C89 O96 1.226 . S
O90 Cd86 2.273 . S
O90 Cd88 2.411 . S
O90 C93 1.320 . S
O91 Cd88 2.333 . S
O91 C93 1.214 . S
O92 Cd88 2.352 . S
O92 C95 1.258 . S
C93 O90 1.320 . S
C93 O91 1.214 . S
O94 Cd86 2.277 . S
O94 C89 1.209 . S
C95 O92 1.258 . S
C95 O97 1.282 . S
O96 Cd88 2.277 . S
O96 C89 1.226 . S
O97 Cd88 2.356 . S
O97 C95 1.282 . S
C98 O99 1.306 . S
C98 O101 1.160 . S
O99 C98 1.306 . S
O99 Cd100 2.228 . S
Cd100 O99 2.228 . S
Cd100 O104 2.273 . S
Cd100 O108 2.277 . S
O101 C98 1.160 . S
O101 Cd102 2.203 . S
Cd102 O101 2.203 . S
Cd102 O104 2.411 . S
Cd102 O105 2.333 . S
Cd102 O106 2.352 . S
Cd102 O110 2.277 . S
Cd102 O111 2.356 . S
C103 O108 1.209 . S
C103 O110 1.226 . S
O104 Cd100 2.273 . S
O104 Cd102 2.411 . S
O104 C107 1.320 . S
O105 Cd102 2.333 . S
O105 C107 1.214 . S
O106 Cd102 2.352 . S
O106 C109 1.258 . S
C107 O104 1.320 . S
C107 O105 1.214 . S
O108 Cd100 2.277 . S
O108 C103 1.209 . S
C109 O106 1.258 . S
C109 O111 1.282 . S
O110 Cd102 2.277 . S
O110 C103 1.226 . S
O111 Cd102 2.356 . S
O111 C109 1.282 . S
C112 O113 1.306 . S
C112 O115 1.160 . S
O113 C112 1.306 . S
O113 Cd114 2.228 . S
Cd114 O113 2.228 . S
Cd114 O118 2.273 . S
Cd114 O122 2.277 . S
O115 C112 1.160 . S
O115 Cd116 2.203 . S
Cd116 O115 2.203 . S
Cd116 O118 2.411 . S
Cd116 O119 2.333 . S
Cd116 O120 2.352 . S
Cd116 O124 2.277 . S
Cd116 O125 2.356 . S
C117 O122 1.209 . S
C117 O124 1.226 . S
O118 Cd114 2.273 . S
O118 Cd116 2.411 . S
O118 C121 1.320 . S
O119 Cd116 2.333 . S
O119 C121 1.214 . S
O120 Cd116 2.352 . S
O120 C123 1.258 . S
C121 O118 1.320 . S
C121 O119 1.214 . S
O122 Cd114 2.277 . S
O122 C117 1.209 . S
C123 O120 1.258 . S
C123 O125 1.282 . S
O124 Cd116 2.277 . S
O124 C117 1.226 . S
O125 Cd116 2.356 . S
O125 C123 1.282 . S
C126 O127 1.306 1_556 S
C126 O129 1.152 1_556 S
O127 C126 1.306 1_554 S
O127 Cd128 2.228 . S
Cd128 O127 2.228 . S
Cd128 O132 2.273 . S
Cd128 O136 2.277 . S
O129 C126 1.152 1_554 S
O129 Cd130 2.225 . S
Cd130 O129 2.225 . S
Cd130 O132 2.411 . S
Cd130 O133 2.333 . S
Cd130 O134 2.352 . S
Cd130 O138 2.277 . S
Cd130 O139 2.356 . S
C131 O136 1.209 . S
C131 O138 1.226 . S
O132 Cd128 2.273 . S
O132 Cd130 2.411 . S
O132 C135 1.320 . S
O133 Cd130 2.333 . S
O133 C135 1.214 . S
O134 Cd130 2.352 . S
O134 C137 1.258 . S
C135 O132 1.320 . S
C135 O133 1.214 . S
O136 Cd128 2.277 . S
O136 C131 1.209 . S
C137 O134 1.258 . S
C137 O139 1.282 . S
O138 Cd130 2.277 . S
O138 C131 1.226 . S
O139 Cd130 2.356 . S
O139 C137 1.282 . S
C140 O141 1.306 . S
C140 O143 1.160 . S
O141 C140 1.306 . S
O141 Cd142 2.228 . S
Cd142 O141 2.228 . S
Cd142 O146 2.273 . S
Cd142 O150 2.277 . S
O143 C140 1.160 . S
O143 Cd144 2.203 . S
Cd144 O143 2.203 . S
Cd144 O146 2.411 . S
Cd144 O147 2.333 . S
Cd144 O148 2.352 . S
Cd144 O152 2.277 . S
Cd144 O153 2.356 . S
C145 O150 1.209 . S
C145 O152 1.226 . S
O146 Cd142 2.273 . S
O146 Cd144 2.411 . S
O146 C149 1.320 . S
O147 Cd144 2.333 . S
O147 C149 1.214 . S
O148 Cd144 2.352 . S
O148 C151 1.258 . S
C149 O146 1.320 . S
C149 O147 1.214 . S
O150 Cd142 2.277 . S
O150 C145 1.209 . S
C151 O148 1.258 . S
C151 O153 1.282 . S
O152 Cd144 2.277 . S
O152 C145 1.226 . S
O153 Cd144 2.356 . S
O153 C151 1.282 . S
C154 O155 1.306 . S
C154 O157 1.160 . S
O155 C154 1.306 . S
O155 Cd156 2.228 . S
Cd156 O155 2.228 . S
Cd156 O160 2.273 . S
Cd156 O164 2.277 . S
O157 C154 1.160 . S
O157 Cd158 2.203 . S
Cd158 O157 2.203 . S
Cd158 O160 2.411 . S
Cd158 O161 2.333 . S
Cd158 O162 2.352 . S
Cd158 O166 2.277 . S
Cd158 O167 2.356 . S
C159 O164 1.209 . S
C159 O166 1.226 . S
O160 Cd156 2.273 . S
O160 Cd158 2.411 . S
O160 C163 1.320 . S
O161 Cd158 2.333 . S
O161 C163 1.214 . S
O162 Cd158 2.352 . S
O162 C165 1.258 . S
C163 O160 1.320 . S
C163 O161 1.214 . S
O164 Cd156 2.277 . S
O164 C159 1.209 . S
C165 O162 1.258 . S
C165 O167 1.282 . S
O166 Cd158 2.277 . S
O166 C159 1.226 . S
O167 Cd158 2.356 . S
O167 C165 1.282 . S
C168 O169 1.306 . S
C168 O171 1.160 . S
O169 C168 1.306 . S
O169 Cd170 2.228 . S
Cd170 O169 2.228 . S
Cd170 O174 2.273 . S
Cd170 O178 2.277 . S
O171 C168 1.160 . S
O171 Cd172 2.203 . S
Cd172 O171 2.203 . S
Cd172 O174 2.411 . S
Cd172 O175 2.333 . S
Cd172 O176 2.352 . S
Cd172 O180 2.277 . S
Cd172 O181 2.356 . S
C173 O178 1.209 . S
C173 O180 1.226 . S
O174 Cd170 2.273 . S
O174 Cd172 2.411 . S
O174 C177 1.320 . S
O175 Cd172 2.333 . S
O175 C177 1.214 . S
O176 Cd172 2.352 . S
O176 C179 1.258 . S
C177 O174 1.320 . S
C177 O175 1.214 . S
O178 Cd170 2.277 . S
O178 C173 1.209 . S
C179 O176 1.258 . S
C179 O181 1.282 . S
O180 Cd172 2.277 . S
O180 C173 1.226 . S
O181 Cd172 2.356 . S
O181 C179 1.282 . S
C182 O183 1.306 . S
C182 O185 1.160 . S
O183 C182 1.306 . S
O183 Cd184 2.228 . S
Cd184 O183 2.228 . S
Cd184 O188 2.273 . S
Cd184 O192 2.277 . S
O185 C182 1.160 . S
O185 Cd186 2.203 . S
Cd186 O185 2.203 . S
Cd186 O188 2.411 . S
Cd186 O189 2.333 . S
Cd186 O190 2.352 . S
Cd186 O194 2.277 . S
Cd186 O195 2.356 . S
C187 O192 1.209 . S
C187 O194 1.226 . S
O188 Cd184 2.273 . S
O188 Cd186 2.411 . S
O188 C191 1.320 . S
O189 Cd186 2.333 . S
O189 C191 1.214 . S
O190 Cd186 2.352 . S
O190 C193 1.258 . S
C191 O188 1.320 . S
C191 O189 1.214 . S
O192 Cd184 2.277 . S
O192 C187 1.209 . S
C193 O190 1.258 . S
C193 O195 1.282 . S
O194 Cd186 2.277 . S
O194 C187 1.226 . S
O195 Cd186 2.356 . S
O195 C193 1.282 . S
C196 O197 1.306 . S
C196 O199 1.160 . S
O197 C196 1.306 . S
O197 Cd198 2.228 . S
Cd198 O197 2.228 . S
Cd198 O202 2.273 1_554 S
Cd198 O206 2.277 . S
O199 C196 1.160 . S
O199 Cd200 2.203 . S
Cd200 O199 2.203 . S
Cd200 O202 2.411 1_554 S
Cd200 O203 2.333 1_554 S
Cd200 O204 2.352 . S
Cd200 O208 2.277 . S
Cd200 O209 2.356 1_554 S
C201 O206 1.209 . S
C201 O208 1.226 . S
O202 Cd198 2.273 1_556 S
O202 Cd200 2.411 1_556 S
O202 C205 1.320 . S
O203 Cd200 2.333 1_556 S
O203 C205 1.214 . S
O204 Cd200 2.352 . S
O204 C207 1.258 1_554 S
C205 O202 1.320 . S
C205 O203 1.214 . S
O206 Cd198 2.277 . S
O206 C201 1.209 . S
C207 O204 1.258 1_556 S
C207 O209 1.282 . S
O208 Cd200 2.277 . S
O208 C201 1.226 . S
O209 Cd200 2.356 1_556 S
O209 C207 1.282 . S
C210 O211 1.306 . S
C210 O213 1.160 . S
O211 C210 1.306 . S
O211 Cd212 2.228 . S
Cd212 O211 2.228 . S
Cd212 O216 2.273 . S
Cd212 O220 2.277 . S
O213 C210 1.160 . S
O213 Cd214 2.203 . S
Cd214 O213 2.203 . S
Cd214 O216 2.411 . S
Cd214 O217 2.333 . S
Cd214 O218 2.352 . S
Cd214 O222 2.277 . S
Cd214 O223 2.356 . S
C215 O220 1.209 . S
C215 O222 1.226 . S
O216 Cd212 2.273 . S
O216 Cd214 2.411 . S
O216 C219 1.320 . S
O217 Cd214 2.333 . S
O217 C219 1.214 . S
O218 Cd214 2.352 . S
O218 C221 1.258 . S
C219 O216 1.320 . S
C219 O217 1.214 . S
O220 Cd212 2.277 . S
O220 C215 1.209 . S
C221 O218 1.258 . S
C221 O223 1.282 . S
O222 Cd214 2.277 . S
O222 C215 1.226 . S
O223 Cd214 2.356 . S
O223 C221 1.282 . S
H224 C232 0.929 . S
H225 C234 0.930 . S
H226 C236 0.930 . S
H227 C239 0.929 . S
H228 C242 0.930 . S
H229 C244 0.960 . S
H230 C244 0.960 . S
H231 C244 0.960 . S
C232 H224 0.929 . S
C232 C233 1.377 . S
C232 C234 1.384 . S
C233 C232 1.377 . S
C233 C239 1.390 . S
C234 H225 0.930 . S
C234 C232 1.384 . S
C234 C235 1.372 . S
C235 C234 1.372 . S
C235 C236 1.400 . S
C235 C240 1.490 . S
C236 H226 0.930 . S
C236 C235 1.400 . S
C236 C239 1.386 . S
H237 C253 0.930 . S
H238 C254 0.931 . S
C239 H227 0.929 . S
C239 C233 1.390 . S
C239 C236 1.386 . S
C240 C235 1.490 . S
C240 C242 1.395 . S
C240 C243 1.403 . S
H241 C247 0.930 . S
C242 H228 0.930 . S
C242 C240 1.395 . S
C242 C245 1.403 . S
C243 C240 1.403 . S
C243 C244 1.524 . S
C243 C247 1.400 . S
C244 H229 0.960 . S
C244 H230 0.960 . S
C244 H231 0.960 . S
C244 C243 1.524 . S
C245 C242 1.403 . S
C245 C246 1.392 . S
C245 C249 1.495 . S
C246 C245 1.392 . S
C246 C247 1.385 . S
C246 C248 1.478 . S
C247 H241 0.930 . S
C247 C243 1.400 . S
C247 C246 1.385 . S
C248 C246 1.478 . S
C248 C250 1.381 . S
C248 C254 1.383 . S
C249 C245 1.495 . S
C249 H255 0.959 . S
C249 H256 0.961 . S
C249 H257 0.960 . S
C250 C248 1.381 . S
C250 C251 1.394 . S
C250 H258 0.930 . S
C251 C250 1.394 . S
C251 C252 1.383 . S
C251 H259 0.929 . S
C252 C251 1.383 . S
C252 C253 1.377 . S
C253 H237 0.930 . S
C253 C252 1.377 . S
C253 C254 1.379 . S
C254 H238 0.931 . S
C254 C248 1.383 . S
C254 C253 1.379 . S
H255 C249 0.959 . S
H256 C249 0.961 . S
H257 C249 0.960 . S
H258 C250 0.930 . S
H259 C251 0.929 . S
H260 C268 0.929 . S
H261 C270 0.930 . S
H262 C272 0.930 . S
H263 C275 0.929 . S
H264 C278 0.930 . S
H265 C280 0.960 . S
H266 C280 0.960 . S
H267 C280 0.960 . S
C268 H260 0.929 . S
C268 C269 1.377 . S
C268 C270 1.384 . S
C269 C268 1.377 . S
C269 C275 1.390 . S
C270 H261 0.930 . S
C270 C268 1.384 . S
C270 C271 1.372 . S
C271 C270 1.372 . S
C271 C272 1.400 . S
C271 C276 1.490 . S
C272 H262 0.930 . S
C272 C271 1.400 . S
C272 C275 1.386 . S
H273 C289 0.930 . S
H274 C290 0.931 . S
C275 H263 0.929 . S
C275 C269 1.390 . S
C275 C272 1.386 . S
C276 C271 1.490 . S
C276 C278 1.395 . S
C276 C279 1.403 . S
H277 C283 0.930 . S
C278 H264 0.930 . S
C278 C276 1.395 . S
C278 C281 1.403 . S
C279 C276 1.403 . S
C279 C280 1.524 . S
C279 C283 1.400 . S
C280 H265 0.960 . S
C280 H266 0.960 . S
C280 H267 0.960 . S
C280 C279 1.524 . S
C281 C278 1.403 . S
C281 C282 1.392 . S
C281 C285 1.495 . S
C282 C281 1.392 . S
C282 C283 1.385 . S
C282 C284 1.478 . S
C283 H277 0.930 . S
C283 C279 1.400 . S
C283 C282 1.385 . S
C284 C282 1.478 . S
C284 C286 1.381 . S
C284 C290 1.383 . S
C285 C281 1.495 . S
C285 H291 0.959 . S
C285 H292 0.961 . S
C285 H293 0.960 . S
C286 C284 1.381 . S
C286 C287 1.394 . S
C286 H294 0.930 . S
C287 C286 1.394 . S
C287 C288 1.383 . S
C287 H295 0.929 . S
C288 C287 1.383 . S
C288 C289 1.377 . S
C289 H273 0.930 . S
C289 C288 1.377 . S
C289 C290 1.379 . S
C290 H274 0.931 . S
C290 C284 1.383 . S
C290 C289 1.379 . S
H291 C285 0.959 . S
H292 C285 0.961 . S
H293 C285 0.960 . S
H294 C286 0.930 . S
H295 C287 0.929 . S
H296 C304 0.929 . S
H297 C306 0.930 . S
H298 C308 0.930 . S
H299 C311 0.929 . S
H300 C314 0.930 . S
H301 C316 0.960 . S
H302 C316 0.960 . S
H303 C316 0.960 . S
C304 H296 0.929 . S
C304 C305 1.377 . S
C304 C306 1.384 . S
C305 C304 1.377 . S
C305 C311 1.390 . S
C306 H297 0.930 . S
C306 C304 1.384 . S
C306 C307 1.372 . S
C307 C306 1.372 . S
C307 C308 1.400 . S
C307 C312 1.490 . S
C308 H298 0.930 . S
C308 C307 1.400 . S
C308 C311 1.386 . S
H309 C325 0.930 1_554 S
H310 C326 0.931 . S
C311 H299 0.929 . S
C311 C305 1.390 . S
C311 C308 1.386 . S
C312 C307 1.490 . S
C312 C314 1.395 . S
C312 C315 1.403 . S
H313 C319 0.930 . S
C314 H300 0.930 . S
C314 C312 1.395 . S
C314 C317 1.403 . S
C315 C312 1.403 . S
C315 C316 1.524 . S
C315 C319 1.400 . S
C316 H301 0.960 . S
C316 H302 0.960 . S
C316 H303 0.960 . S
C316 C315 1.524 . S
C317 C314 1.403 . S
C317 C318 1.392 . S
C317 C321 1.495 . S
C318 C317 1.392 . S
C318 C319 1.385 . S
C318 C320 1.478 . S
C319 H313 0.930 . S
C319 C315 1.400 . S
C319 C318 1.385 . S
C320 C318 1.478 . S
C320 C322 1.381 . S
C320 C326 1.383 . S
C321 C317 1.495 . S
C321 H327 0.959 . S
C321 H328 0.961 . S
C321 H329 0.960 . S
C322 C320 1.381 . S
C322 C323 1.394 . S
C322 H330 0.930 . S
C323 C322 1.394 . S
C323 C324 1.383 . S
C323 H331 0.929 . S
C324 C323 1.383 . S
C324 C325 1.377 . S
C325 H309 0.930 1_556 S
C325 C324 1.377 . S
C325 C326 1.379 . S
C326 H310 0.931 . S
C326 C320 1.383 . S
C326 C325 1.379 . S
H327 C321 0.959 . S
H328 C321 0.961 . S
H329 C321 0.960 . S
H330 C322 0.930 . S
H331 C323 0.929 . S
H332 C340 0.929 . S
H333 C342 0.930 . S
H334 C344 0.930 . S
H335 C347 0.929 . S
H336 C350 0.930 . S
H337 C352 0.960 . S
H338 C352 0.960 . S
H339 C352 0.960 . S
C340 H332 0.929 . S
C340 C341 1.377 . S
C340 C342 1.384 . S
C341 C340 1.377 . S
C341 C347 1.390 . S
C342 H333 0.930 . S
C342 C340 1.384 . S
C342 C343 1.372 . S
C343 C342 1.372 . S
C343 C344 1.400 . S
C343 C348 1.490 . S
C344 H334 0.930 . S
C344 C343 1.400 . S
C344 C347 1.386 . S
H345 C361 0.930 . S
H346 C362 0.931 . S
C347 H335 0.929 . S
C347 C341 1.390 . S
C347 C344 1.386 . S
C348 C343 1.490 . S
C348 C350 1.395 . S
C348 C351 1.403 . S
H349 C355 0.930 . S
C350 H336 0.930 . S
C350 C348 1.395 . S
C350 C353 1.403 . S
C351 C348 1.403 . S
C351 C352 1.524 . S
C351 C355 1.400 . S
C352 H337 0.960 . S
C352 H338 0.960 . S
C352 H339 0.960 . S
C352 C351 1.524 . S
C353 C350 1.403 . S
C353 C354 1.392 . S
C353 C357 1.495 . S
C354 C353 1.392 . S
C354 C355 1.385 . S
C354 C356 1.478 . S
C355 H349 0.930 . S
C355 C351 1.400 . S
C355 C354 1.385 . S
C356 C354 1.478 . S
C356 C358 1.381 . S
C356 C362 1.383 . S
C357 C353 1.495 . S
C357 H363 0.959 . S
C357 H364 0.961 . S
C357 H365 0.960 . S
C358 C356 1.381 . S
C358 C359 1.394 . S
C358 H366 0.930 . S
C359 C358 1.394 . S
C359 C360 1.383 . S
C359 H367 0.929 . S
C360 C359 1.383 . S
C360 C361 1.377 . S
C361 H345 0.930 . S
C361 C360 1.377 . S
C361 C362 1.379 . S
C362 H346 0.931 . S
C362 C356 1.383 . S
C362 C361 1.379 . S
H363 C357 0.959 . S
H364 C357 0.961 . S
H365 C357 0.960 . S
H366 C358 0.930 . S
H367 C359 0.929 . S
H368 C376 0.929 . S
H369 C378 0.930 . S
H370 C380 0.930 . S
H371 C383 0.929 . S
H372 C386 0.930 . S
H373 C388 0.960 . S
H374 C388 0.960 . S
H375 C388 0.960 . S
C376 H368 0.929 . S
C376 C377 1.377 . S
C376 C378 1.384 . S
C377 C376 1.377 . S
C377 C383 1.390 . S
C378 H369 0.930 . S
C378 C376 1.384 . S
C378 C379 1.372 . S
C379 C378 1.372 . S
C379 C380 1.400 . S
C379 C384 1.490 . S
C380 H370 0.930 . S
C380 C379 1.400 . S
C380 C383 1.386 . S
H381 C397 0.930 . S
H382 C398 0.931 . S
C383 H371 0.929 . S
C383 C377 1.390 . S
C383 C380 1.386 . S
C384 C379 1.490 . S
C384 C386 1.395 . S
C384 C387 1.403 . S
H385 C391 0.930 . S
C386 H372 0.930 . S
C386 C384 1.395 . S
C386 C389 1.403 . S
C387 C384 1.403 . S
C387 C388 1.524 . S
C387 C391 1.400 . S
C388 H373 0.960 . S
C388 H374 0.960 . S
C388 H375 0.960 . S
C388 C387 1.524 . S
C389 C386 1.403 . S
C389 C390 1.392 . S
C389 C393 1.495 . S
C390 C389 1.392 . S
C390 C391 1.385 . S
C390 C392 1.478 . S
C391 H385 0.930 . S
C391 C387 1.400 . S
C391 C390 1.385 . S
C392 C390 1.478 . S
C392 C394 1.381 . S
C392 C398 1.383 . S
C393 C389 1.495 . S
C393 H399 0.959 1_556 S
C393 H400 0.961 1_556 S
C393 H401 0.960 1_556 S
C394 C392 1.381 . S
C394 C395 1.394 . S
C394 H402 0.930 . S
C395 C394 1.394 . S
C395 C396 1.383 . S
C395 H403 0.924 1_556 S
C396 C395 1.383 . S
C396 C397 1.377 . S
C397 H381 0.930 . S
C397 C396 1.377 . S
C397 C398 1.379 . S
C398 H382 0.931 . S
C398 C392 1.383 . S
C398 C397 1.379 . S
H399 C393 0.959 1_554 S
H400 C393 0.961 1_554 S
H401 C393 0.960 1_554 S
H402 C394 0.930 . S
H403 C395 0.924 1_554 S
H404 C412 0.929 . S
H405 C414 0.930 . S
H406 C416 0.930 . S
H407 C419 0.929 . S
H408 C422 0.930 . S
H409 C424 0.960 . S
H410 C424 0.960 . S
H411 C424 0.960 . S
C412 H404 0.929 . S
C412 C413 1.377 . S
C412 C414 1.384 . S
C413 C412 1.377 . S
C413 C419 1.390 . S
C414 H405 0.930 . S
C414 C412 1.384 . S
C414 C415 1.372 . S
C415 C414 1.372 . S
C415 C416 1.400 . S
C415 C420 1.490 . S
C416 H406 0.930 . S
C416 C415 1.400 . S
C416 C419 1.386 . S
H417 C433 0.930 . S
H418 C434 0.931 . S
C419 H407 0.929 . S
C419 C413 1.390 . S
C419 C416 1.386 . S
C420 C415 1.490 . S
C420 C422 1.395 . S
C420 C423 1.403 . S
H421 C427 0.930 . S
C422 H408 0.930 . S
C422 C420 1.395 . S
C422 C425 1.403 . S
C423 C420 1.403 . S
C423 C424 1.524 . S
C423 C427 1.400 . S
C424 H409 0.960 . S
C424 H410 0.960 . S
C424 H411 0.960 . S
C424 C423 1.524 . S
C425 C422 1.403 . S
C425 C426 1.392 . S
C425 C429 1.495 . S
C426 C425 1.392 . S
C426 C427 1.385 . S
C426 C428 1.478 . S
C427 H421 0.930 . S
C427 C423 1.400 . S
C427 C426 1.385 . S
C428 C426 1.478 . S
C428 C430 1.381 . S
C428 C434 1.383 . S
C429 C425 1.495 . S
C429 H435 0.959 . S
C429 H436 0.961 . S
C429 H437 0.960 . S
C430 C428 1.381 . S
C430 C431 1.394 . S
C430 H438 0.930 . S
C431 C430 1.394 . S
C431 C432 1.383 . S
C431 H439 0.929 . S
C432 C431 1.383 . S
C432 C433 1.377 . S
C433 H417 0.930 . S
C433 C432 1.377 . S
C433 C434 1.379 . S
C434 H418 0.931 . S
C434 C428 1.383 . S
C434 C433 1.379 . S
H435 C429 0.959 . S
H436 C429 0.961 . S
H437 C429 0.960 . S
H438 C430 0.930 . S
H439 C431 0.929 . S
H440 C448 0.929 . S
H441 C450 0.930 . S
H442 C452 0.930 . S
H443 C455 0.929 . S
H444 C458 0.930 . S
H445 C460 0.960 . S
H446 C460 0.960 . S
H447 C460 0.960 . S
C448 H440 0.929 . S
C448 C449 1.377 . S
C448 C450 1.384 . S
C449 C448 1.377 . S
C449 C455 1.390 . S
C450 H441 0.930 . S
C450 C448 1.384 . S
C450 C451 1.372 . S
C451 C450 1.372 . S
C451 C452 1.400 . S
C451 C456 1.490 . S
C452 H442 0.930 . S
C452 C451 1.400 . S
C452 C455 1.386 . S
H453 C469 0.930 . S
H454 C470 0.931 . S
C455 H443 0.929 . S
C455 C449 1.390 . S
C455 C452 1.386 . S
C456 C451 1.490 . S
C456 C458 1.395 . S
C456 C459 1.403 . S
H457 C463 0.930 . S
C458 H444 0.930 . S
C458 C456 1.395 . S
C458 C461 1.403 . S
C459 C456 1.403 . S
C459 C460 1.524 . S
C459 C463 1.400 . S
C460 H445 0.960 . S
C460 H446 0.960 . S
C460 H447 0.960 . S
C460 C459 1.524 . S
C461 C458 1.403 . S
C461 C462 1.392 . S
C461 C465 1.495 . S
C462 C461 1.392 . S
C462 C463 1.385 . S
C462 C464 1.478 . S
C463 H457 0.930 . S
C463 C459 1.400 . S
C463 C462 1.385 . S
C464 C462 1.478 . S
C464 C466 1.381 . S
C464 C470 1.383 . S
C465 C461 1.495 . S
C465 H471 0.959 . S
C465 H472 0.961 . S
C465 H473 0.960 . S
C466 C464 1.381 . S
C466 C467 1.394 . S
C466 H474 0.930 . S
C467 C466 1.394 . S
C467 C468 1.383 . S
C467 H475 0.929 . S
C468 C467 1.383 . S
C468 C469 1.377 . S
C469 H453 0.930 . S
C469 C468 1.377 . S
C469 C470 1.379 . S
C470 H454 0.931 . S
C470 C464 1.383 . S
C470 C469 1.379 . S
H471 C465 0.959 . S
H472 C465 0.961 . S
H473 C465 0.960 . S
H474 C466 0.930 . S
H475 C467 0.929 . S
H476 C484 0.929 . S
H477 C486 0.930 . S
H478 C488 0.930 . S
H479 C491 0.929 . S
H480 C494 0.930 . S
H481 C496 0.960 . S
H482 C496 0.960 . S
H483 C496 0.960 . S
C484 H476 0.929 . S
C484 C485 1.377 . S
C484 C486 1.384 . S
C485 C484 1.377 . S
C485 C491 1.390 . S
C486 H477 0.930 . S
C486 C484 1.384 . S
C486 C487 1.372 . S
C487 C486 1.372 . S
C487 C488 1.400 . S
C487 C492 1.490 . S
C488 H478 0.930 . S
C488 C487 1.400 . S
C488 C491 1.386 . S
H489 C505 0.930 . S
H490 C506 0.931 . S
C491 H479 0.929 . S
C491 C485 1.390 . S
C491 C488 1.386 . S
C492 C487 1.490 . S
C492 C494 1.395 . S
C492 C495 1.403 . S
H493 C499 0.930 . S
C494 H480 0.930 . S
C494 C492 1.395 . S
C494 C497 1.403 . S
C495 C492 1.403 . S
C495 C496 1.524 . S
C495 C499 1.400 . S
C496 H481 0.960 . S
C496 H482 0.960 . S
C496 H483 0.960 . S
C496 C495 1.524 . S
C497 C494 1.403 . S
C497 C498 1.392 . S
C497 C501 1.495 . S
C498 C497 1.392 . S
C498 C499 1.385 . S
C498 C500 1.478 . S
C499 H493 0.930 . S
C499 C495 1.400 . S
C499 C498 1.385 . S
C500 C498 1.478 . S
C500 C502 1.381 . S
C500 C506 1.383 . S
C501 C497 1.495 . S
C501 H507 0.959 . S
C501 H508 0.961 . S
C501 H509 0.960 . S
C502 C500 1.381 . S
C502 C503 1.394 . S
C502 H510 0.930 . S
C503 C502 1.394 . S
C503 C504 1.383 . S
C503 H511 0.929 . S
C504 C503 1.383 . S
C504 C505 1.377 . S
C505 H489 0.930 . S
C505 C504 1.377 . S
C505 C506 1.379 . S
C506 H490 0.931 . S
C506 C500 1.383 . S
C506 C505 1.379 . S
H507 C501 0.959 . S
H508 C501 0.961 . S
H509 C501 0.960 . S
H510 C502 0.930 . S
H511 C503 0.929 . S
H512 C520 0.929 . S
H513 C522 0.930 . S
H514 C524 0.930 . S
H515 C527 0.929 . S
H516 C530 0.930 . S
H517 C532 0.962 1_655 S
H518 C532 0.959 . S
H519 C532 0.959 . S
C520 H512 0.929 . S
C520 C521 1.377 . S
C520 C522 1.384 . S
C521 C520 1.377 . S
C521 C527 1.390 . S
C522 H513 0.930 . S
C522 C520 1.384 . S
C522 C523 1.372 . S
C523 C522 1.372 . S
C523 C524 1.400 . S
C523 C528 1.490 . S
C524 H514 0.930 . S
C524 C523 1.400 . S
C524 C527 1.386 . S
H525 C541 0.930 . S
H526 C542 0.931 . S
C527 H515 0.929 . S
C527 C521 1.390 . S
C527 C524 1.386 . S
C528 C523 1.490 . S
C528 C530 1.395 1_545 S
C528 C531 1.457 . S
H529 C535 0.930 . S
C530 H516 0.930 . S
C530 C528 1.395 1_565 S
C530 C533 1.443 . S
C531 C528 1.457 . S
C531 C532 1.522 . S
C531 C535 1.347 1_455 S
C532 H517 0.962 1_455 S
C532 H518 0.959 . S
C532 H519 0.959 . S
C532 C531 1.522 . S
C533 C530 1.443 . S
C533 C534 1.353 1_455 S
C533 C537 1.497 . S
C534 C533 1.353 1_655 S
C534 C535 1.385 1_565 S
C534 C536 1.478 . S
C535 H529 0.930 . S
C535 C531 1.347 1_655 S
C535 C534 1.385 1_545 S
C536 C534 1.478 . S
C536 C538 1.381 . S
C536 C542 1.383 . S
C537 C533 1.497 . S
C537 H543 0.959 . S
C537 H544 0.961 1_455 S
C537 H545 0.960 1_455 S
C538 C536 1.381 . S
C538 C539 1.394 . S
C538 H546 0.930 . S
C539 C538 1.394 . S
C539 C540 1.383 . S
C539 H547 0.929 . S
C540 C539 1.383 . S
C540 C541 1.377 . S
C541 H525 0.930 . S
C541 C540 1.377 . S
C541 C542 1.379 . S
C542 H526 0.931 . S
C542 C536 1.383 . S
C542 C541 1.379 . S
H543 C537 0.959 . S
H544 C537 0.961 1_655 S
H545 C537 0.960 1_655 S
H546 C538 0.930 . S
H547 C539 0.929 . S
H548 C556 0.929 . S
H549 C558 0.930 . S
H550 C560 0.930 . S
H551 C563 0.929 . S
H552 C566 0.930 . S
H553 C568 0.960 . S
H554 C568 0.960 . S
H555 C568 0.960 . S
C556 H548 0.929 . S
C556 C557 1.377 . S
C556 C558 1.384 . S
C557 C556 1.377 . S
C557 C563 1.390 . S
C558 H549 0.930 . S
C558 C556 1.384 . S
C558 C559 1.372 . S
C559 C558 1.372 . S
C559 C560 1.400 . S
C559 C564 1.490 . S
C560 H550 0.930 . S
C560 C559 1.400 . S
C560 C563 1.386 . S
H561 C577 0.930 . S
H562 C578 0.931 . S
C563 H551 0.929 . S
C563 C557 1.390 . S
C563 C560 1.386 . S
C564 C559 1.490 . S
C564 C566 1.395 1_655 S
C564 C567 1.403 . S
H565 C571 0.930 . S
C566 H552 0.930 . S
C566 C564 1.395 1_455 S
C566 C569 1.403 . S
C567 C564 1.403 . S
C567 C568 1.524 . S
C567 C571 1.400 . S
C568 H553 0.960 . S
C568 H554 0.960 . S
C568 H555 0.960 . S
C568 C567 1.524 . S
C569 C566 1.403 . S
C569 C570 1.392 . S
C569 C573 1.495 . S
C570 C569 1.392 . S
C570 C571 1.385 1_455 S
C570 C572 1.478 . S
C571 H565 0.930 . S
C571 C567 1.400 . S
C571 C570 1.385 1_655 S
C572 C570 1.478 . S
C572 C574 1.381 . S
C572 C578 1.383 . S
C573 C569 1.495 . S
C573 H579 0.959 . S
C573 H580 0.961 . S
C573 H581 0.960 . S
C574 C572 1.381 . S
C574 C575 1.394 . S
C574 H582 0.930 . S
C575 C574 1.394 . S
C575 C576 1.383 . S
C575 H583 0.929 . S
C576 C575 1.383 . S
C576 C577 1.377 . S
C577 H561 0.930 . S
C577 C576 1.377 . S
C577 C578 1.379 . S
C578 H562 0.931 . S
C578 C572 1.383 . S
C578 C577 1.379 . S
H579 C573 0.959 . S
H580 C573 0.961 . S
H581 C573 0.960 . S
H582 C574 0.930 . S
H583 C575 0.929 . S
H584 C592 0.929 . S
H585 C594 0.930 . S
H586 C596 0.930 . S
H587 C599 0.929 . S
H588 C602 0.930 . S
H589 C604 0.960 . S
H590 C604 0.960 . S
H591 C604 0.960 . S
C592 H584 0.929 . S
C592 C593 1.377 . S
C592 C594 1.384 . S
C593 C592 1.377 . S
C593 C599 1.390 . S
C594 H585 0.930 . S
C594 C592 1.384 . S
C594 C595 1.372 . S
C595 C594 1.372 . S
C595 C596 1.400 . S
C595 C600 1.490 . S
C596 H586 0.930 . S
C596 C595 1.400 . S
C596 C599 1.386 . S
H597 C613 0.930 . S
H598 C614 0.931 . S
C599 H587 0.929 . S
C599 C593 1.390 . S
C599 C596 1.386 . S
C600 C595 1.490 . S
C600 C602 1.395 . S
C600 C603 1.403 . S
H601 C607 0.930 . S
C602 H588 0.930 . S
C602 C600 1.395 . S
C602 C605 1.403 . S
C603 C600 1.403 . S
C603 C604 1.524 . S
C603 C607 1.400 . S
C604 H589 0.960 . S
C604 H590 0.960 . S
C604 H591 0.960 . S
C604 C603 1.524 . S
C605 C602 1.403 . S
C605 C606 1.392 . S
C605 C609 1.495 . S
C606 C605 1.392 . S
C606 C607 1.385 . S
C606 C608 1.478 . S
C607 H601 0.930 . S
C607 C603 1.400 . S
C607 C606 1.385 . S
C608 C606 1.478 . S
C608 C610 1.381 . S
C608 C614 1.383 . S
C609 C605 1.495 . S
C609 H615 0.959 . S
C609 H616 0.961 . S
C609 H617 0.960 . S
C610 C608 1.381 . S
C610 C611 1.394 . S
C610 H618 0.930 . S
C611 C610 1.394 . S
C611 C612 1.383 . S
C611 H619 0.929 . S
C612 C611 1.383 . S
C612 C613 1.377 . S
C613 H597 0.930 . S
C613 C612 1.377 . S
C613 C614 1.379 . S
C614 H598 0.931 . S
C614 C608 1.383 . S
C614 C613 1.379 . S
H615 C609 0.959 . S
H616 C609 0.961 . S
H617 C609 0.960 . S
H618 C610 0.930 . S
H619 C611 0.929 . S
H620 C628 0.929 . S
H621 C630 0.930 . S
H622 C632 0.930 . S
H623 C635 0.929 . S
H624 C638 0.930 . S
H625 C640 0.960 . S
H626 C640 0.960 . S
H627 C640 0.960 . S
C628 H620 0.929 . S
C628 C629 1.377 . S
C628 C630 1.384 . S
C629 C628 1.377 . S
C629 C635 1.390 . S
C630 H621 0.930 . S
C630 C628 1.384 . S
C630 C631 1.372 . S
C631 C630 1.372 . S
C631 C632 1.400 . S
C631 C636 1.490 . S
C632 H622 0.930 . S
C632 C631 1.400 . S
C632 C635 1.386 . S
H633 C649 0.930 . S
H634 C650 0.931 . S
C635 H623 0.929 . S
C635 C629 1.390 . S
C635 C632 1.386 . S
C636 C631 1.490 . S
C636 C638 1.395 . S
C636 C639 1.403 . S
H637 C643 0.930 . S
C638 H624 0.930 . S
C638 C636 1.395 . S
C638 C641 1.403 1_565 S
C639 C636 1.403 . S
C639 C640 1.524 . S
C639 C643 1.400 1_565 S
C640 H625 0.960 . S
C640 H626 0.960 . S
C640 H627 0.960 . S
C640 C639 1.524 . S
C641 C638 1.403 1_545 S
C641 C642 1.392 . S
C641 C645 1.495 . S
C642 C641 1.392 . S
C642 C643 1.385 . S
C642 C644 1.478 . S
C643 H637 0.930 . S
C643 C639 1.400 1_545 S
C643 C642 1.385 . S
C644 C642 1.478 . S
C644 C646 1.381 . S
C644 C650 1.383 . S
C645 C641 1.495 . S
C645 H651 0.959 . S
C645 H652 0.961 . S
C645 H653 0.960 . S
C646 C644 1.381 . S
C646 C647 1.394 . S
C646 H654 0.930 . S
C647 C646 1.394 . S
C647 C648 1.383 . S
C647 H655 0.929 . S
C648 C647 1.383 . S
C648 C649 1.377 . S
C649 H633 0.930 . S
C649 C648 1.377 . S
C649 C650 1.379 . S
C650 H634 0.931 . S
C650 C644 1.383 . S
C650 C649 1.379 . S
H651 C645 0.959 . S
H652 C645 0.961 . S
H653 C645 0.960 . S
H654 C646 0.930 . S
H655 C647 0.929 . S
H656 C664 0.929 . S
H657 C666 0.930 . S
H658 C668 0.930 . S
H659 C671 0.929 . S
H660 C674 0.933 . S
H661 C676 0.960 . S
H662 C676 0.960 1_556 S
H663 C676 0.960 . S
C664 H656 0.929 . S
C664 C665 1.377 1_556 S
C664 C666 1.384 . S
C665 C664 1.377 1_554 S
C665 C671 1.390 . S
C666 H657 0.930 . S
C666 C664 1.384 . S
C666 C667 1.372 1_556 S
C667 C666 1.372 1_554 S
C667 C668 1.400 . S
C667 C672 1.490 . S
C668 H658 0.930 . S
C668 C667 1.400 . S
C668 C671 1.386 . S
H669 C685 0.930 . S
H670 C686 0.931 . S
C671 H659 0.929 . S
C671 C665 1.390 . S
C671 C668 1.386 . S
C672 C667 1.490 . S
C672 C674 1.395 . S
C672 C675 1.403 . S
H673 C679 0.930 . S
C674 H660 0.933 . S
C674 C672 1.395 . S
C674 C677 1.403 1_455 S
C675 C672 1.403 . S
C675 C676 1.524 . S
C675 C679 1.400 1_455 S
C676 H661 0.960 . S
C676 H662 0.960 1_554 S
C676 H663 0.960 . S
C676 C675 1.524 . S
C677 C674 1.403 1_655 S
C677 C678 1.392 . S
C677 C681 1.493 1_554 S
C678 C677 1.392 . S
C678 C679 1.385 . S
C678 C680 1.478 . S
C679 H673 0.930 . S
C679 C675 1.400 1_655 S
C679 C678 1.385 . S
C680 C678 1.478 . S
C680 C682 1.381 1_554 S
C680 C686 1.383 . S
C681 C677 1.493 1_556 S
C681 H687 0.962 . S
C681 H688 0.945 1_556 S
C681 H689 0.976 . S
C682 C680 1.381 1_556 S
C682 C683 1.394 . S
C682 H690 0.930 . S
C683 C682 1.394 . S
C683 C684 1.383 1_556 S
C683 H691 0.929 . S
C684 C683 1.383 1_554 S
C684 C685 1.377 . S
C685 H669 0.930 . S
C685 C684 1.377 . S
C685 C686 1.379 . S
C686 H670 0.931 . S
C686 C680 1.383 . S
C686 C685 1.379 . S
H687 C681 0.962 . S
H688 C681 0.945 1_554 S
H689 C681 0.976 . S
H690 C682 0.930 . S
H691 C683 0.929 . S
H692 C700 0.929 . S
H693 C702 0.930 . S
H694 C704 0.930 . S
H695 C707 0.929 . S
H696 C710 0.930 . S
H697 C712 0.960 . S
H698 C712 0.960 . S
H699 C712 0.960 . S
C700 H692 0.929 . S
C700 C701 1.377 . S
C700 C702 1.384 . S
C701 C700 1.377 . S
C701 C707 1.390 . S
C702 H693 0.930 . S
C702 C700 1.384 . S
C702 C703 1.372 . S
C703 C702 1.372 . S
C703 C704 1.400 . S
C703 C708 1.490 . S
C704 H694 0.930 . S
C704 C703 1.400 . S
C704 C707 1.386 . S
H705 C721 0.930 . S
H706 C722 0.931 . S
C707 H695 0.929 . S
C707 C701 1.390 . S
C707 C704 1.386 . S
C708 C703 1.490 . S
C708 C710 1.395 . S
C708 C711 1.403 . S
H709 C715 0.930 . S
C710 H696 0.930 . S
C710 C708 1.395 . S
C710 C713 1.403 . S
C711 C708 1.403 . S
C711 C712 1.524 . S
C711 C715 1.400 . S
C712 H697 0.960 . S
C712 H698 0.960 . S
C712 H699 0.960 . S
C712 C711 1.524 . S
C713 C710 1.403 . S
C713 C714 1.392 . S
C713 C717 1.495 . S
C714 C713 1.392 . S
C714 C715 1.385 . S
C714 C716 1.478 . S
C715 H709 0.930 . S
C715 C711 1.400 . S
C715 C714 1.385 . S
C716 C714 1.478 . S
C716 C718 1.381 . S
C716 C722 1.383 . S
C717 C713 1.495 . S
C717 H723 0.959 . S
C717 H724 0.961 . S
C717 H725 0.960 . S
C718 C716 1.381 . S
C718 C719 1.394 . S
C718 H726 0.930 . S
C719 C718 1.394 . S
C719 C720 1.383 . S
C719 H727 0.929 . S
C720 C719 1.383 . S
C720 C721 1.377 . S
C721 H705 0.930 . S
C721 C720 1.377 . S
C721 C722 1.379 . S
C722 H706 0.931 . S
C722 C716 1.383 . S
C722 C721 1.379 . S
H723 C717 0.959 . S
H724 C717 0.961 . S
H725 C717 0.960 . S
H726 C718 0.930 . S
H727 C719 0.929 . S
H728 C736 0.929 . S
H729 C738 0.930 . S
H730 C740 0.930 . S
H731 C743 0.929 . S
H732 C746 0.930 . S
H733 C748 0.960 . S
H734 C748 0.960 . S
H735 C748 0.960 . S
C736 H728 0.929 . S
C736 C737 1.377 . S
C736 C738 1.384 . S
C737 C736 1.377 . S
C737 C743 1.390 . S
C738 H729 0.930 . S
C738 C736 1.384 . S
C738 C739 1.372 . S
C739 C738 1.372 . S
C739 C740 1.400 . S
C739 C744 1.490 . S
C740 H730 0.930 . S
C740 C739 1.400 . S
C740 C743 1.386 . S
H741 C757 0.930 . S
H742 C758 0.931 . S
C743 H731 0.929 . S
C743 C737 1.390 . S
C743 C740 1.386 . S
C744 C739 1.490 . S
C744 C746 1.395 . S
C744 C747 1.403 1_545 S
H745 C751 0.930 . S
C746 H732 0.930 . S
C746 C744 1.395 . S
C746 C749 1.403 . S
C747 C744 1.403 1_565 S
C747 C748 1.524 . S
C747 C751 1.400 . S
C748 H733 0.960 . S
C748 H734 0.960 . S
C748 H735 0.960 . S
C748 C747 1.524 . S
C749 C746 1.403 . S
C749 C750 1.392 1_545 S
C749 C753 1.495 . S
C750 C749 1.392 1_565 S
C750 C751 1.385 . S
C750 C752 1.478 . S
C751 H745 0.930 . S
C751 C747 1.400 . S
C751 C750 1.385 . S
C752 C750 1.478 . S
C752 C754 1.381 . S
C752 C758 1.383 . S
C753 C749 1.495 . S
C753 H759 0.959 . S
C753 H760 0.961 . S
C753 H761 0.960 . S
C754 C752 1.381 . S
C754 C755 1.394 . S
C754 H762 0.930 . S
C755 C754 1.394 . S
C755 C756 1.383 . S
C755 H763 0.929 . S
C756 C755 1.383 . S
C756 C757 1.377 . S
C757 H741 0.930 . S
C757 C756 1.377 . S
C757 C758 1.379 . S
C758 H742 0.931 . S
C758 C752 1.383 . S
C758 C757 1.379 . S
H759 C753 0.959 . S
H760 C753 0.961 . S
H761 C753 0.960 . S
H762 C754 0.930 . S
H763 C755 0.929 . S
H764 C772 0.929 . S
H765 C774 0.930 . S
H766 C776 0.930 . S
H767 C779 0.929 . S
H768 C782 0.930 . S
H769 C784 0.960 . S
H770 C784 0.960 . S
H771 C784 0.960 . S
C772 H764 0.929 . S
C772 C773 1.377 . S
C772 C774 1.384 . S
C773 C772 1.377 . S
C773 C779 1.390 . S
C774 H765 0.930 . S
C774 C772 1.384 . S
C774 C775 1.372 . S
C775 C774 1.372 . S
C775 C776 1.400 . S
C775 C780 1.490 . S
C776 H766 0.930 . S
C776 C775 1.400 . S
C776 C779 1.386 . S
H777 C793 0.930 . S
H778 C794 0.931 . S
C779 H767 0.929 . S
C779 C773 1.390 . S
C779 C776 1.386 . S
C780 C775 1.490 . S
C780 C782 1.395 . S
C780 C783 1.403 1_455 S
H781 C787 0.930 . S
C782 H768 0.930 . S
C782 C780 1.395 . S
C782 C785 1.403 1_545 S
C783 C780 1.403 1_655 S
C783 C784 1.524 . S
C783 C787 1.400 1_545 S
C784 H769 0.960 . S
C784 H770 0.960 . S
C784 H771 0.960 . S
C784 C783 1.524 . S
C785 C782 1.403 1_565 S
C785 C786 1.392 1_455 S
C785 C789 1.495 . S
C786 C785 1.392 1_655 S
C786 C787 1.385 . S
C786 C788 1.478 . S
C787 H781 0.930 . S
C787 C783 1.400 1_565 S
C787 C786 1.385 . S
C788 C786 1.478 . S
C788 C790 1.381 . S
C788 C794 1.383 . S
C789 C785 1.495 . S
C789 H795 0.959 . S
C789 H796 0.961 . S
C789 H797 0.960 . S
C790 C788 1.381 . S
C790 C791 1.394 . S
C790 H798 0.930 . S
C791 C790 1.394 . S
C791 C792 1.383 . S
C791 H799 0.929 . S
C792 C791 1.383 . S
C792 C793 1.377 . S
C793 H777 0.930 . S
C793 C792 1.377 . S
C793 C794 1.379 . S
C794 H778 0.931 . S
C794 C788 1.383 . S
C794 C793 1.379 . S
H795 C789 0.959 . S
H796 C789 0.961 . S
H797 C789 0.960 . S
H798 C790 0.930 . S
H799 C791 0.929 . S
H800 C808 0.929 . S
H801 C810 0.930 . S
H802 C812 0.930 . S
H803 C815 0.929 . S
H804 C818 0.930 . S
H805 C820 0.960 . S
H806 C820 0.960 . S
H807 C820 0.960 . S
C808 H800 0.929 . S
C808 C809 1.377 . S
C808 C810 1.384 . S
C809 C808 1.377 . S
C809 C815 1.390 . S
C810 H801 0.930 . S
C810 C808 1.384 . S
C810 C811 1.372 . S
C811 C810 1.372 . S
C811 C812 1.400 . S
C811 C816 1.490 . S
C812 H802 0.930 . S
C812 C811 1.400 . S
C812 C815 1.386 . S
H813 C829 0.930 . S
H814 C830 0.931 . S
C815 H803 0.929 . S
C815 C809 1.390 . S
C815 C812 1.386 . S
C816 C811 1.490 . S
C816 C818 1.395 . S
C816 C819 1.403 . S
H817 C823 0.930 . S
C818 H804 0.930 . S
C818 C816 1.395 . S
C818 C821 1.403 . S
C819 C816 1.403 . S
C819 C820 1.524 . S
C819 C823 1.400 . S
C820 H805 0.960 . S
C820 H806 0.960 . S
C820 H807 0.960 . S
C820 C819 1.524 . S
C821 C818 1.403 . S
C821 C822 1.392 . S
C821 C825 1.495 . S
C822 C821 1.392 . S
C822 C823 1.385 . S
C822 C824 1.478 . S
C823 H817 0.930 . S
C823 C819 1.400 . S
C823 C822 1.385 . S
C824 C822 1.478 . S
C824 C826 1.381 . S
C824 C830 1.383 . S
C825 C821 1.495 . S
C825 H831 0.959 . S
C825 H832 0.961 . S
C825 H833 0.960 . S
C826 C824 1.381 . S
C826 C827 1.394 . S
C826 H834 0.930 . S
C827 C826 1.394 . S
C827 C828 1.383 . S
C827 H835 0.929 . S
C828 C827 1.383 . S
C828 C829 1.377 . S
C829 H813 0.930 . S
C829 C828 1.377 . S
C829 C830 1.379 . S
C830 H814 0.931 . S
C830 C824 1.383 . S
C830 C829 1.379 . S
H831 C825 0.959 . S
H832 C825 0.961 . S
H833 C825 0.960 . S
H834 C826 0.930 . S
H835 C827 0.929 . S
H836 C844 0.929 . S
H837 C846 0.930 . S
H838 C848 0.930 . S
H839 C851 0.929 . S
H840 C854 0.930 . S
H841 C856 0.960 . S
H842 C856 0.960 . S
H843 C856 0.960 . S
C844 H836 0.929 . S
C844 C845 1.377 . S
C844 C846 1.384 . S
C845 C844 1.377 . S
C845 C851 1.390 . S
C846 H837 0.930 . S
C846 C844 1.384 . S
C846 C847 1.372 . S
C847 C846 1.372 . S
C847 C848 1.400 . S
C847 C852 1.490 . S
C848 H838 0.930 . S
C848 C847 1.400 . S
C848 C851 1.386 . S
H849 C865 0.930 . S
H850 C866 0.931 . S
C851 H839 0.929 . S
C851 C845 1.390 . S
C851 C848 1.386 . S
C852 C847 1.490 . S
C852 C854 1.395 . S
C852 C855 1.403 . S
H853 C859 0.930 . S
C854 H840 0.930 . S
C854 C852 1.395 . S
C854 C857 1.403 . S
C855 C852 1.403 . S
C855 C856 1.524 . S
C855 C859 1.400 . S
C856 H841 0.960 . S
C856 H842 0.960 . S
C856 H843 0.960 . S
C856 C855 1.524 . S
C857 C854 1.403 . S
C857 C858 1.392 . S
C857 C861 1.495 . S
C858 C857 1.392 . S
C858 C859 1.385 . S
C858 C860 1.478 . S
C859 H853 0.930 . S
C859 C855 1.400 . S
C859 C858 1.385 . S
C860 C858 1.478 . S
C860 C862 1.381 . S
C860 C866 1.383 . S
C861 C857 1.495 . S
C861 H867 0.959 . S
C861 H868 0.961 . S
C861 H869 0.960 . S
C862 C860 1.381 . S
C862 C863 1.394 . S
C862 H870 0.930 . S
C863 C862 1.394 . S
C863 C864 1.383 . S
C863 H871 0.929 . S
C864 C863 1.383 . S
C864 C865 1.377 . S
C865 H849 0.930 . S
C865 C864 1.377 . S
C865 C866 1.379 . S
C866 H850 0.931 . S
C866 C860 1.383 . S
C866 C865 1.379 . S
H867 C861 0.959 . S
H868 C861 0.961 . S
H869 C861 0.960 . S
H870 C862 0.930 . S
H871 C863 0.929 . S
H872 C880 0.929 . S
H873 C882 0.930 . S
H874 C884 0.930 . S
H875 C887 0.929 . S
H876 C890 0.930 . S
H877 C892 0.960 . S
H878 C892 0.960 . S
H879 C892 0.960 . S
C880 H872 0.929 . S
C880 C881 1.377 . S
C880 C882 1.384 . S
C881 C880 1.377 . S
C881 C887 1.390 . S
C882 H873 0.930 . S
C882 C880 1.384 . S
C882 C883 1.372 . S
C883 C882 1.372 . S
C883 C884 1.400 . S
C883 C888 1.490 . S
C884 H874 0.930 . S
C884 C883 1.400 . S
C884 C887 1.386 . S
H885 C901 0.930 . S
H886 C902 0.931 . S
C887 H875 0.929 . S
C887 C881 1.390 . S
C887 C884 1.386 . S
C888 C883 1.490 . S
C888 C890 1.395 . S
C888 C891 1.403 . S
H889 C895 0.930 1_556 S
C890 H876 0.930 . S
C890 C888 1.395 . S
C890 C893 1.403 . S
C891 C888 1.403 . S
C891 C892 1.524 . S
C891 C895 1.400 . S
C892 H877 0.960 . S
C892 H878 0.960 . S
C892 H879 0.960 . S
C892 C891 1.524 . S
C893 C890 1.403 . S
C893 C894 1.392 1_554 S
C893 C897 1.495 . S
C894 C893 1.392 1_556 S
C894 C895 1.385 1_556 S
C894 C896 1.478 . S
C895 H889 0.930 1_554 S
C895 C891 1.400 . S
C895 C894 1.385 1_554 S
C896 C894 1.478 . S
C896 C898 1.381 . S
C896 C902 1.383 . S
C897 C893 1.495 . S
C897 H903 0.959 . S
C897 H904 0.961 1_554 S
C897 H905 0.960 1_554 S
C898 C896 1.381 . S
C898 C899 1.394 . S
C898 H906 0.930 . S
C899 C898 1.394 . S
C899 C900 1.383 . S
C899 H907 0.929 . S
C900 C899 1.383 . S
C900 C901 1.377 . S
C901 H885 0.930 . S
C901 C900 1.377 . S
C901 C902 1.379 . S
C902 H886 0.931 . S
C902 C896 1.383 . S
C902 C901 1.379 . S
H903 C897 0.959 . S
H904 C897 0.961 1_556 S
H905 C897 0.960 1_556 S
H906 C898 0.930 . S
H907 C899 0.929 . S
H908 C916 0.929 . S
H909 C918 0.930 . S
H910 C920 0.930 . S
H911 C923 0.929 . S
H912 C926 0.930 . S
H913 C928 0.960 . S
H914 C928 0.960 . S
H915 C928 0.960 . S
C916 H908 0.929 . S
C916 C917 1.377 . S
C916 C918 1.384 . S
C917 C916 1.377 . S
C917 C923 1.390 . S
C918 H909 0.930 . S
C918 C916 1.384 . S
C918 C919 1.372 . S
C919 C918 1.372 . S
C919 C920 1.400 . S
C919 C924 1.490 . S
C920 H910 0.930 . S
C920 C919 1.400 . S
C920 C923 1.386 . S
H921 C937 0.930 . S
H922 C938 0.931 . S
C923 H911 0.929 . S
C923 C917 1.390 . S
C923 C920 1.386 . S
C924 C919 1.490 . S
C924 C926 1.395 . S
C924 C927 1.403 . S
H925 C931 0.930 . S
C926 H912 0.930 . S
C926 C924 1.395 . S
C926 C929 1.403 . S
C927 C924 1.403 . S
C927 C928 1.524 . S
C927 C931 1.400 . S
C928 H913 0.960 . S
C928 H914 0.960 . S
C928 H915 0.960 . S
C928 C927 1.524 . S
C929 C926 1.403 . S
C929 C930 1.392 . S
C929 C933 1.495 . S
C930 C929 1.392 . S
C930 C931 1.385 . S
C930 C932 1.478 . S
C931 H925 0.930 . S
C931 C927 1.400 . S
C931 C930 1.385 . S
C932 C930 1.478 . S
C932 C934 1.381 . S
C932 C938 1.383 . S
C933 C929 1.495 . S
C933 H939 0.959 . S
C933 H940 0.961 . S
C933 H941 0.960 . S
C934 C932 1.381 . S
C934 C935 1.394 . S
C934 H942 0.930 . S
C935 C934 1.394 . S
C935 C936 1.383 . S
C935 H943 0.929 . S
C936 C935 1.383 . S
C936 C937 1.377 . S
C937 H921 0.930 . S
C937 C936 1.377 . S
C937 C938 1.379 . S
C938 H922 0.931 . S
C938 C932 1.383 . S
C938 C937 1.379 . S
H939 C933 0.959 . S
H940 C933 0.961 . S
H941 C933 0.960 . S
H942 C934 0.930 . S
H943 C935 0.929 . S
H944 C952 0.929 . S
H945 C954 0.930 . S
H946 C956 0.930 . S
H947 C959 0.929 . S
H948 C962 0.930 . S
H949 C964 0.960 . S
H950 C964 0.960 . S
H951 C964 0.960 . S
C952 H944 0.929 . S
C952 C953 1.377 . S
C952 C954 1.384 . S
C953 C952 1.377 . S
C953 C959 1.390 . S
C954 H945 0.930 . S
C954 C952 1.384 . S
C954 C955 1.372 . S
C955 C954 1.372 . S
C955 C956 1.400 . S
C955 C960 1.490 . S
C956 H946 0.930 . S
C956 C955 1.400 . S
C956 C959 1.386 . S
H957 C973 0.930 . S
H958 C974 0.931 . S
C959 H947 0.929 . S
C959 C953 1.390 . S
C959 C956 1.386 . S
C960 C955 1.490 . S
C960 C962 1.395 . S
C960 C963 1.403 . S
H961 C967 0.930 . S
C962 H948 0.930 . S
C962 C960 1.395 . S
C962 C965 1.403 . S
C963 C960 1.403 . S
C963 C964 1.524 . S
C963 C967 1.400 . S
C964 H949 0.960 . S
C964 H950 0.960 . S
C964 H951 0.960 . S
C964 C963 1.524 . S
C965 C962 1.403 . S
C965 C966 1.392 . S
C965 C969 1.495 . S
C966 C965 1.392 . S
C966 C967 1.385 . S
C966 C968 1.478 . S
C967 H961 0.930 . S
C967 C963 1.400 . S
C967 C966 1.385 . S
C968 C966 1.478 . S
C968 C970 1.381 . S
C968 C974 1.383 . S
C969 C965 1.495 . S
C969 H975 0.959 . S
C969 H976 0.961 . S
C969 H977 0.960 . S
C970 C968 1.381 . S
C970 C971 1.394 . S
C970 H978 0.930 . S
C971 C970 1.394 . S
C971 C972 1.383 . S
C971 H979 0.929 . S
C972 C971 1.383 . S
C972 C973 1.377 . S
C973 H957 0.930 . S
C973 C972 1.377 . S
C973 C974 1.379 . S
C974 H958 0.931 . S
C974 C968 1.383 . S
C974 C973 1.379 . S
H975 C969 0.959 . S
H976 C969 0.961 . S
H977 C969 0.960 . S
H978 C970 0.930 . S
H979 C971 0.929 . S
H980 C988 0.929 . S
H981 C990 0.930 . S
H982 C992 0.930 . S
H983 C995 0.929 . S
H984 C998 0.930 . S
H985 C1000 0.960 . S
H986 C1000 0.960 . S
H987 C1000 0.960 . S
C988 H980 0.929 . S
C988 C989 1.377 . S
C988 C990 1.384 . S
C989 C988 1.377 . S
C989 C995 1.390 . S
C990 H981 0.930 . S
C990 C988 1.384 . S
C990 C991 1.372 . S
C991 C990 1.372 . S
C991 C992 1.400 . S
C991 C996 1.490 . S
C992 H982 0.930 . S
C992 C991 1.400 . S
C992 C995 1.386 . S
H993 C1009 0.930 . S
H994 C1010 0.931 . S
C995 H983 0.929 . S
C995 C989 1.390 . S
C995 C992 1.386 . S
C996 C991 1.490 . S
C996 C998 1.395 . S
C996 C999 1.403 . S
H997 C1003 0.930 1_556 S
C998 H984 0.930 . S
C998 C996 1.395 . S
C998 C1001 1.403 . S
C999 C996 1.403 . S
C999 C1000 1.524 . S
C999 C1003 1.400 . S
C1000 H985 0.960 . S
C1000 H986 0.960 . S
C1000 H987 0.960 . S
C1000 C999 1.524 . S
C1001 C998 1.403 . S
C1001 C1002 1.392 1_554 S
C1001 C1005 1.495 . S
C1002 C1001 1.392 1_556 S
C1002 C1003 1.385 1_556 S
C1002 C1004 1.478 . S
C1003 H997 0.930 1_554 S
C1003 C999 1.400 . S
C1003 C1002 1.385 1_554 S
C1004 C1002 1.478 . S
C1004 C1006 1.381 . S
C1004 C1010 1.383 . S
C1005 C1001 1.495 . S
C1005 H1011 0.959 . S
C1005 H1012 0.961 1_554 S
C1005 H1013 0.960 1_554 S
C1006 C1004 1.381 . S
C1006 C1007 1.394 . S
C1006 H1014 0.930 . S
C1007 C1006 1.394 . S
C1007 C1008 1.383 . S
C1007 H1015 0.929 . S
C1008 C1007 1.383 . S
C1008 C1009 1.377 . S
C1009 H993 0.930 . S
C1009 C1008 1.377 . S
C1009 C1010 1.379 . S
C1010 H994 0.931 . S
C1010 C1004 1.383 . S
C1010 C1009 1.379 . S
H1011 C1005 0.959 . S
H1012 C1005 0.961 1_556 S
H1013 C1005 0.960 1_556 S
H1014 C1006 0.930 . S
H1015 C1007 0.929 . S
H1016 C1024 0.929 . S
H1017 C1026 0.930 . S
H1018 C1028 0.930 . S
H1019 C1031 0.929 . S
H1020 C1034 0.930 . S
H1021 C1036 0.960 . S
H1022 C1036 0.960 . S
H1023 C1036 0.960 . S
C1024 H1016 0.929 . S
C1024 C1025 1.377 . S
C1024 C1026 1.384 . S
C1025 C1024 1.377 . S
C1025 C1031 1.390 . S
C1026 H1017 0.930 . S
C1026 C1024 1.384 . S
C1026 C1027 1.372 . S
C1027 C1026 1.372 . S
C1027 C1028 1.400 . S
C1027 C1032 1.490 . S
C1028 H1018 0.930 . S
C1028 C1027 1.400 . S
C1028 C1031 1.386 . S
H1029 C1045 0.930 . S
H1030 C1046 0.931 . S
C1031 H1019 0.929 . S
C1031 C1025 1.390 . S
C1031 C1028 1.386 . S
C1032 C1027 1.490 . S
C1032 C1034 1.395 . S
C1032 C1035 1.403 . S
H1033 C1039 0.930 . S
C1034 H1020 0.930 . S
C1034 C1032 1.395 . S
C1034 C1037 1.403 . S
C1035 C1032 1.403 . S
C1035 C1036 1.524 . S
C1035 C1039 1.400 . S
C1036 H1021 0.960 . S
C1036 H1022 0.960 . S
C1036 H1023 0.960 . S
C1036 C1035 1.524 . S
C1037 C1034 1.403 . S
C1037 C1038 1.392 . S
C1037 C1041 1.495 . S
C1038 C1037 1.392 . S
C1038 C1039 1.385 . S
C1038 C1040 1.478 . S
C1039 H1033 0.930 . S
C1039 C1035 1.400 . S
C1039 C1038 1.385 . S
C1040 C1038 1.478 . S
C1040 C1042 1.381 . S
C1040 C1046 1.383 . S
C1041 C1037 1.495 . S
C1041 H1047 0.959 . S
C1041 H1048 0.961 . S
C1041 H1049 0.960 . S
C1042 C1040 1.381 . S
C1042 C1043 1.394 . S
C1042 H1050 0.930 . S
C1043 C1042 1.394 . S
C1043 C1044 1.383 . S
C1043 H1051 0.929 . S
C1044 C1043 1.383 . S
C1044 C1045 1.377 . S
C1045 H1029 0.930 . S
C1045 C1044 1.377 . S
C1045 C1046 1.379 . S
C1046 H1030 0.931 . S
C1046 C1040 1.383 . S
C1046 C1045 1.379 . S
H1047 C1041 0.959 . S
H1048 C1041 0.961 . S
H1049 C1041 0.960 . S
H1050 C1042 0.930 . S
H1051 C1043 0.929 . S
H1052 C1060 0.929 . S
H1053 C1062 0.930 . S
H1054 C1064 0.930 . S
H1055 C1067 0.929 . S
H1056 C1070 0.930 . S
H1057 C1072 0.960 . S
H1058 C1072 0.960 . S
H1059 C1072 0.960 . S
C1060 H1052 0.929 . S
C1060 C1061 1.377 . S
C1060 C1062 1.384 . S
C1061 C1060 1.377 . S
C1061 C1067 1.390 . S
C1062 H1053 0.930 . S
C1062 C1060 1.384 . S
C1062 C1063 1.372 . S
C1063 C1062 1.372 . S
C1063 C1064 1.400 . S
C1063 C1068 1.490 . S
C1064 H1054 0.930 . S
C1064 C1063 1.400 . S
C1064 C1067 1.386 . S
H1065 C1081 0.930 . S
H1066 C1082 0.931 . S
C1067 H1055 0.929 . S
C1067 C1061 1.390 . S
C1067 C1064 1.386 . S
C1068 C1063 1.490 . S
C1068 C1070 1.395 . S
C1068 C1071 1.403 . S
H1069 C1075 0.930 . S
C1070 H1056 0.930 . S
C1070 C1068 1.395 . S
C1070 C1073 1.403 . S
C1071 C1068 1.403 . S
C1071 C1072 1.524 . S
C1071 C1075 1.400 . S
C1072 H1057 0.960 . S
C1072 H1058 0.960 . S
C1072 H1059 0.960 . S
C1072 C1071 1.524 . S
C1073 C1070 1.403 . S
C1073 C1074 1.392 . S
C1073 C1077 1.495 . S
C1074 C1073 1.392 . S
C1074 C1075 1.385 . S
C1074 C1076 1.478 . S
C1075 H1069 0.930 . S
C1075 C1071 1.400 . S
C1075 C1074 1.385 . S
C1076 C1074 1.478 . S
C1076 C1078 1.381 . S
C1076 C1082 1.383 . S
C1077 C1073 1.495 . S
C1077 H1083 0.959 . S
C1077 H1084 0.961 . S
C1077 H1085 0.960 . S
C1078 C1076 1.381 . S
C1078 C1079 1.394 . S
C1078 H1086 0.930 . S
C1079 C1078 1.394 . S
C1079 C1080 1.383 . S
C1079 H1087 0.929 . S
C1080 C1079 1.383 . S
C1080 C1081 1.377 . S
C1081 H1065 0.930 . S
C1081 C1080 1.377 . S
C1081 C1082 1.379 . S
C1082 H1066 0.931 . S
C1082 C1076 1.383 . S
C1082 C1081 1.379 . S
H1083 C1077 0.959 . S
H1084 C1077 0.961 . S
H1085 C1077 0.960 . S
H1086 C1078 0.930 . S
H1087 C1079 0.929 . S
H1088 C1096 0.929 . S
H1089 C1098 0.930 . S
H1090 C1100 0.930 . S
H1091 C1103 0.929 . S
H1092 C1106 0.930 . S
H1093 C1108 0.960 1_554 S
H1094 C1108 0.960 . S
H1095 C1108 0.960 . S
C1096 H1088 0.929 . S
C1096 C1097 1.377 . S
C1096 C1098 1.384 . S
C1097 C1096 1.377 . S
C1097 C1103 1.390 . S
C1098 H1089 0.930 . S
C1098 C1096 1.384 . S
C1098 C1099 1.372 . S
C1099 C1098 1.372 . S
C1099 C1100 1.400 . S
C1099 C1104 1.490 . S
C1100 H1090 0.930 . S
C1100 C1099 1.400 . S
C1100 C1103 1.386 . S
H1101 C1117 0.930 . S
H1102 C1118 0.931 . S
C1103 H1091 0.929 . S
C1103 C1097 1.390 . S
C1103 C1100 1.386 . S
C1104 C1099 1.490 . S
C1104 C1106 1.395 1_556 S
C1104 C1107 1.403 1_556 S
H1105 C1111 0.930 . S
C1106 H1092 0.930 . S
C1106 C1104 1.395 1_554 S
C1106 C1109 1.403 . S
C1107 C1104 1.403 1_554 S
C1107 C1108 1.524 1_554 S
C1107 C1111 1.400 . S
C1108 H1093 0.960 1_556 S
C1108 H1094 0.960 . S
C1108 H1095 0.960 . S
C1108 C1107 1.524 1_556 S
C1109 C1106 1.403 . S
C1109 C1110 1.392 . S
C1109 C1113 1.495 . S
C1110 C1109 1.392 . S
C1110 C1111 1.385 . S
C1110 C1112 1.478 . S
C1111 H1105 0.930 . S
C1111 C1107 1.400 . S
C1111 C1110 1.385 . S
C1112 C1110 1.478 . S
C1112 C1114 1.381 . S
C1112 C1118 1.383 . S
C1113 C1109 1.495 . S
C1113 H1119 0.959 . S
C1113 H1120 0.961 . S
C1113 H1121 0.960 . S
C1114 C1112 1.381 . S
C1114 C1115 1.394 . S
C1114 H1122 0.930 . S
C1115 C1114 1.394 . S
C1115 C1116 1.383 . S
C1115 H1123 0.929 . S
C1116 C1115 1.383 . S
C1116 C1117 1.377 . S
C1117 H1101 0.930 . S
C1117 C1116 1.377 . S
C1117 C1118 1.379 . S
C1118 H1102 0.931 . S
C1118 C1112 1.383 . S
C1118 C1117 1.379 . S
H1119 C1113 0.959 . S
H1120 C1113 0.961 . S
H1121 C1113 0.960 . S
H1122 C1114 0.930 . S
H1123 C1115 0.929 . S
H1124 C1132 0.929 . S
H1125 C1134 0.930 . S
H1126 C1136 0.930 . S
H1127 C1139 0.929 . S
H1128 C1142 0.930 . S
H1129 C1144 0.960 . S
H1130 C1144 0.960 . S
H1131 C1144 0.960 . S
C1132 H1124 0.929 . S
C1132 C1133 1.377 . S
C1132 C1134 1.384 . S
C1133 C1132 1.377 . S
C1133 C1139 1.390 . S
C1134 H1125 0.930 . S
C1134 C1132 1.384 . S
C1134 C1135 1.372 . S
C1135 C1134 1.372 . S
C1135 C1136 1.400 . S
C1135 C1140 1.490 . S
C1136 H1126 0.930 . S
C1136 C1135 1.400 . S
C1136 C1139 1.386 . S
H1137 C1153 0.930 . S
H1138 C1154 0.931 . S
C1139 H1127 0.929 . S
C1139 C1133 1.390 . S
C1139 C1136 1.386 . S
C1140 C1135 1.490 . S
C1140 C1142 1.395 . S
C1140 C1143 1.403 . S
H1141 C1147 0.930 . S
C1142 H1128 0.930 . S
C1142 C1140 1.395 . S
C1142 C1145 1.403 . S
C1143 C1140 1.403 . S
C1143 C1144 1.524 . S
C1143 C1147 1.400 . S
C1144 H1129 0.960 . S
C1144 H1130 0.960 . S
C1144 H1131 0.960 . S
C1144 C1143 1.524 . S
C1145 C1142 1.403 . S
C1145 C1146 1.392 . S
C1145 C1149 1.495 . S
C1146 C1145 1.392 . S
C1146 C1147 1.385 . S
C1146 C1148 1.478 . S
C1147 H1141 0.930 . S
C1147 C1143 1.400 . S
C1147 C1146 1.385 . S
C1148 C1146 1.478 . S
C1148 C1150 1.381 . S
C1148 C1154 1.383 . S
C1149 C1145 1.495 . S
C1149 H1155 0.959 . S
C1149 H1156 0.961 . S
C1149 H1157 0.960 . S
C1150 C1148 1.381 . S
C1150 C1151 1.394 . S
C1150 H1158 0.930 . S
C1151 C1150 1.394 . S
C1151 C1152 1.383 . S
C1151 H1159 0.929 . S
C1152 C1151 1.383 . S
C1152 C1153 1.377 . S
C1153 H1137 0.930 . S
C1153 C1152 1.377 . S
C1153 C1154 1.379 . S
C1154 H1138 0.931 . S
C1154 C1148 1.383 . S
C1154 C1153 1.379 . S
H1155 C1149 0.959 . S
H1156 C1149 0.961 . S
H1157 C1149 0.960 . S
H1158 C1150 0.930 . S
H1159 C1151 0.929 . S
H1160 C1168 0.929 . S
H1161 C1170 0.930 . S
H1162 C1172 0.930 . S
H1163 C1175 0.929 . S
H1164 C1178 0.930 . S
H1165 C1180 0.960 . S
H1166 C1180 0.960 . S
H1167 C1180 0.960 . S
C1168 H1160 0.929 . S
C1168 C1169 1.377 . S
C1168 C1170 1.384 . S
C1169 C1168 1.377 . S
C1169 C1175 1.390 . S
C1170 H1161 0.930 . S
C1170 C1168 1.384 . S
C1170 C1171 1.372 . S
C1171 C1170 1.372 . S
C1171 C1172 1.400 . S
C1171 C1176 1.490 . S
C1172 H1162 0.930 . S
C1172 C1171 1.400 . S
C1172 C1175 1.386 . S
H1173 C1189 0.930 . S
H1174 C1190 0.931 . S
C1175 H1163 0.929 . S
C1175 C1169 1.390 . S
C1175 C1172 1.386 . S
C1176 C1171 1.490 . S
C1176 C1178 1.395 . S
C1176 C1179 1.403 . S
H1177 C1183 0.930 . S
C1178 H1164 0.930 . S
C1178 C1176 1.395 . S
C1178 C1181 1.403 . S
C1179 C1176 1.403 . S
C1179 C1180 1.524 . S
C1179 C1183 1.400 . S
C1180 H1165 0.960 . S
C1180 H1166 0.960 . S
C1180 H1167 0.960 . S
C1180 C1179 1.524 . S
C1181 C1178 1.403 . S
C1181 C1182 1.392 . S
C1181 C1185 1.495 . S
C1182 C1181 1.392 . S
C1182 C1183 1.385 . S
C1182 C1184 1.478 . S
C1183 H1177 0.930 . S
C1183 C1179 1.400 . S
C1183 C1182 1.385 . S
C1184 C1182 1.478 . S
C1184 C1186 1.381 . S
C1184 C1190 1.383 . S
C1185 C1181 1.495 . S
C1185 H1191 0.959 . S
C1185 H1192 0.961 . S
C1185 H1193 0.960 . S
C1186 C1184 1.381 . S
C1186 C1187 1.394 . S
C1186 H1194 0.930 . S
C1187 C1186 1.394 . S
C1187 C1188 1.383 . S
C1187 H1195 0.929 . S
C1188 C1187 1.383 . S
C1188 C1189 1.377 . S
C1189 H1173 0.930 . S
C1189 C1188 1.377 . S
C1189 C1190 1.379 . S
C1190 H1174 0.931 . S
C1190 C1184 1.383 . S
C1190 C1189 1.379 . S
H1191 C1185 0.959 . S
H1192 C1185 0.961 . S
H1193 C1185 0.960 . S
H1194 C1186 0.930 . S
H1195 C1187 0.929 . S
H1196 C1204 0.929 . S
H1197 C1206 0.930 . S
H1198 C1208 0.930 . S
H1199 C1211 0.929 . S
H1200 C1214 0.930 . S
H1201 C1216 0.960 . S
H1202 C1216 0.960 . S
H1203 C1216 0.960 . S
C1204 H1196 0.929 . S
C1204 C1205 1.377 . S
C1204 C1206 1.384 . S
C1205 C1204 1.377 . S
C1205 C1211 1.390 . S
C1206 H1197 0.930 . S
C1206 C1204 1.384 . S
C1206 C1207 1.372 . S
C1207 C1206 1.372 . S
C1207 C1208 1.400 . S
C1207 C1212 1.490 . S
C1208 H1198 0.930 . S
C1208 C1207 1.400 . S
C1208 C1211 1.386 . S
H1209 C1225 0.930 . S
H1210 C1226 0.931 . S
C1211 H1199 0.929 . S
C1211 C1205 1.390 . S
C1211 C1208 1.386 . S
C1212 C1207 1.490 . S
C1212 C1214 1.395 . S
C1212 C1215 1.403 . S
H1213 C1219 0.930 . S
C1214 H1200 0.930 . S
C1214 C1212 1.395 . S
C1214 C1217 1.403 . S
C1215 C1212 1.403 . S
C1215 C1216 1.524 . S
C1215 C1219 1.400 . S
C1216 H1201 0.960 . S
C1216 H1202 0.960 . S
C1216 H1203 0.960 . S
C1216 C1215 1.524 . S
C1217 C1214 1.403 . S
C1217 C1218 1.392 . S
C1217 C1221 1.495 . S
C1218 C1217 1.392 . S
C1218 C1219 1.385 . S
C1218 C1220 1.478 . S
C1219 H1213 0.930 . S
C1219 C1215 1.400 . S
C1219 C1218 1.385 . S
C1220 C1218 1.478 . S
C1220 C1222 1.381 . S
C1220 C1226 1.383 . S
C1221 C1217 1.495 . S
C1221 H1227 0.959 . S
C1221 H1228 0.961 . S
C1221 H1229 0.960 . S
C1222 C1220 1.381 . S
C1222 C1223 1.394 . S
C1222 H1230 0.930 . S
C1223 C1222 1.394 . S
C1223 C1224 1.383 . S
C1223 H1231 0.929 . S
C1224 C1223 1.383 . S
C1224 C1225 1.377 . S
C1225 H1209 0.930 . S
C1225 C1224 1.377 . S
C1225 C1226 1.379 . S
C1226 H1210 0.931 . S
C1226 C1220 1.383 . S
C1226 C1225 1.379 . S
H1227 C1221 0.959 . S
H1228 C1221 0.961 . S
H1229 C1221 0.960 . S
H1230 C1222 0.930 . S
H1231 C1223 0.929 . S
H1232 C1240 0.929 . S
H1233 C1242 0.930 . S
H1234 C1244 0.930 . S
H1235 C1247 0.929 . S
H1236 C1250 0.930 . S
H1237 C1252 0.960 . S
H1238 C1252 0.960 . S
H1239 C1252 0.960 . S
C1240 H1232 0.929 . S
C1240 C1241 1.377 . S
C1240 C1242 1.384 . S
C1241 C1240 1.377 . S
C1241 C1247 1.390 . S
C1242 H1233 0.930 . S
C1242 C1240 1.384 . S
C1242 C1243 1.372 . S
C1243 C1242 1.372 . S
C1243 C1244 1.400 . S
C1243 C1248 1.490 . S
C1244 H1234 0.930 . S
C1244 C1243 1.400 . S
C1244 C1247 1.386 . S
H1245 C1261 0.930 . S
H1246 C1262 0.931 . S
C1247 H1235 0.929 . S
C1247 C1241 1.390 . S
C1247 C1244 1.386 . S
C1248 C1243 1.490 . S
C1248 C1250 1.395 . S
C1248 C1251 1.403 . S
H1249 C1255 0.930 . S
C1250 H1236 0.930 . S
C1250 C1248 1.395 . S
C1250 C1253 1.403 . S
C1251 C1248 1.403 . S
C1251 C1252 1.524 . S
C1251 C1255 1.400 . S
C1252 H1237 0.960 . S
C1252 H1238 0.960 . S
C1252 H1239 0.960 . S
C1252 C1251 1.524 . S
C1253 C1250 1.403 . S
C1253 C1254 1.392 . S
C1253 C1257 1.495 . S
C1254 C1253 1.392 . S
C1254 C1255 1.385 . S
C1254 C1256 1.478 . S
C1255 H1249 0.930 . S
C1255 C1251 1.400 . S
C1255 C1254 1.385 . S
C1256 C1254 1.478 . S
C1256 C1258 1.381 . S
C1256 C1262 1.383 . S
C1257 C1253 1.495 . S
C1257 H1263 0.959 . S
C1257 H1264 0.961 . S
C1257 H1265 0.960 . S
C1258 C1256 1.381 . S
C1258 C1259 1.394 . S
C1258 H1266 0.930 . S
C1259 C1258 1.394 . S
C1259 C1260 1.383 . S
C1259 H1267 0.929 . S
C1260 C1259 1.383 . S
C1260 C1261 1.377 . S
C1261 H1245 0.930 . S
C1261 C1260 1.377 . S
C1261 C1262 1.379 . S
C1262 H1246 0.931 . S
C1262 C1256 1.383 . S
C1262 C1261 1.379 . S
H1263 C1257 0.959 . S
H1264 C1257 0.961 . S
H1265 C1257 0.960 . S
H1266 C1258 0.930 . S
H1267 C1259 0.929 . S
H1268 C1276 0.929 . S
H1269 C1278 0.930 . S
H1270 C1280 0.930 . S
H1271 C1283 0.929 . S
H1272 C1286 0.930 . S
H1273 C1288 0.960 . S
H1274 C1288 0.960 . S
H1275 C1288 0.960 . S
C1276 H1268 0.929 . S
C1276 C1277 1.377 . S
C1276 C1278 1.384 . S
C1277 C1276 1.377 . S
C1277 C1283 1.390 . S
C1278 H1269 0.930 . S
C1278 C1276 1.384 . S
C1278 C1279 1.372 . S
C1279 C1278 1.372 . S
C1279 C1280 1.400 . S
C1279 C1284 1.490 . S
C1280 H1270 0.930 . S
C1280 C1279 1.400 . S
C1280 C1283 1.386 . S
H1281 C1297 0.930 . S
H1282 C1298 0.931 . S
C1283 H1271 0.929 . S
C1283 C1277 1.390 . S
C1283 C1280 1.386 . S
C1284 C1279 1.490 . S
C1284 C1286 1.395 . S
C1284 C1287 1.403 . S
H1285 C1291 0.930 . S
C1286 H1272 0.930 . S
C1286 C1284 1.395 . S
C1286 C1289 1.403 . S
C1287 C1284 1.403 . S
C1287 C1288 1.524 . S
C1287 C1291 1.400 . S
C1288 H1273 0.960 . S
C1288 H1274 0.960 . S
C1288 H1275 0.960 . S
C1288 C1287 1.524 . S
C1289 C1286 1.403 . S
C1289 C1290 1.392 . S
C1289 C1293 1.495 . S
C1290 C1289 1.392 . S
C1290 C1291 1.385 . S
C1290 C1292 1.478 . S
C1291 H1285 0.930 . S
C1291 C1287 1.400 . S
C1291 C1290 1.385 . S
C1292 C1290 1.478 . S
C1292 C1294 1.381 . S
C1292 C1298 1.383 . S
C1293 C1289 1.495 . S
C1293 H1299 0.959 . S
C1293 H1300 0.961 . S
C1293 H1301 0.960 . S
C1294 C1292 1.381 . S
C1294 C1295 1.394 . S
C1294 H1302 0.930 . S
C1295 C1294 1.394 . S
C1295 C1296 1.383 . S
C1295 H1303 0.929 . S
C1296 C1295 1.383 . S
C1296 C1297 1.377 . S
C1297 H1281 0.930 . S
C1297 C1296 1.377 . S
C1297 C1298 1.379 . S
C1298 H1282 0.931 . S
C1298 C1292 1.383 . S
C1298 C1297 1.379 . S
H1299 C1293 0.959 . S
H1300 C1293 0.961 . S
H1301 C1293 0.960 . S
H1302 C1294 0.930 . S
H1303 C1295 0.929 . S
H1304 C1312 0.929 . S
H1305 C1314 0.930 . S
H1306 C1316 0.930 . S
H1307 C1319 0.929 . S
H1308 C1322 0.930 . S
H1309 C1324 0.960 . S
H1310 C1324 0.960 . S
H1311 C1324 0.960 . S
C1312 H1304 0.929 . S
C1312 C1313 1.377 . S
C1312 C1314 1.384 . S
C1313 C1312 1.377 . S
C1313 C1319 1.390 . S
C1314 H1305 0.930 . S
C1314 C1312 1.384 . S
C1314 C1315 1.372 . S
C1315 C1314 1.372 . S
C1315 C1316 1.400 . S
C1315 C1320 1.490 . S
C1316 H1306 0.930 . S
C1316 C1315 1.400 . S
C1316 C1319 1.386 . S
H1317 C1333 0.930 . S
H1318 C1334 0.931 . S
C1319 H1307 0.929 . S
C1319 C1313 1.390 . S
C1319 C1316 1.386 . S
C1320 C1315 1.490 . S
C1320 C1322 1.395 . S
C1320 C1323 1.403 . S
H1321 C1327 0.930 . S
C1322 H1308 0.930 . S
C1322 C1320 1.395 . S
C1322 C1325 1.403 . S
C1323 C1320 1.403 . S
C1323 C1324 1.524 . S
C1323 C1327 1.400 . S
C1324 H1309 0.960 . S
C1324 H1310 0.960 . S
C1324 H1311 0.960 . S
C1324 C1323 1.524 . S
C1325 C1322 1.403 . S
C1325 C1326 1.392 . S
C1325 C1329 1.495 . S
C1326 C1325 1.392 . S
C1326 C1327 1.385 . S
C1326 C1328 1.478 . S
C1327 H1321 0.930 . S
C1327 C1323 1.400 . S
C1327 C1326 1.385 . S
C1328 C1326 1.478 . S
C1328 C1330 1.381 . S
C1328 C1334 1.383 . S
C1329 C1325 1.495 . S
C1329 H1335 0.959 . S
C1329 H1336 0.961 . S
C1329 H1337 0.960 . S
C1330 C1328 1.381 . S
C1330 C1331 1.394 . S
C1330 H1338 0.930 . S
C1331 C1330 1.394 . S
C1331 C1332 1.383 . S
C1331 H1339 0.929 . S
C1332 C1331 1.383 . S
C1332 C1333 1.377 . S
C1333 H1317 0.930 . S
C1333 C1332 1.377 . S
C1333 C1334 1.379 . S
C1334 H1318 0.931 . S
C1334 C1328 1.383 . S
C1334 C1333 1.379 . S
H1335 C1329 0.959 . S
H1336 C1329 0.961 . S
H1337 C1329 0.960 . S
H1338 C1330 0.930 . S
H1339 C1331 0.929 . S
H1340 C1348 0.929 . S
H1341 C1350 0.930 . S
H1342 C1352 0.930 . S
H1343 C1355 0.929 . S
H1344 C1358 0.930 . S
H1345 C1360 0.960 . S
H1346 C1360 0.960 . S
H1347 C1360 0.960 . S
C1348 H1340 0.929 . S
C1348 C1349 1.377 . S
C1348 C1350 1.384 . S
C1349 C1348 1.377 . S
C1349 C1355 1.390 . S
C1350 H1341 0.930 . S
C1350 C1348 1.384 . S
C1350 C1351 1.372 . S
C1351 C1350 1.372 . S
C1351 C1352 1.400 . S
C1351 C1356 1.490 . S
C1352 H1342 0.930 . S
C1352 C1351 1.400 . S
C1352 C1355 1.386 . S
H1353 C1369 0.930 . S
H1354 C1370 0.931 . S
C1355 H1343 0.929 . S
C1355 C1349 1.390 . S
C1355 C1352 1.386 . S
C1356 C1351 1.490 . S
C1356 C1358 1.395 . S
C1356 C1359 1.403 . S
H1357 C1363 0.930 1_556 S
C1358 H1344 0.930 . S
C1358 C1356 1.395 . S
C1358 C1361 1.403 . S
C1359 C1356 1.403 . S
C1359 C1360 1.524 . S
C1359 C1363 1.400 . S
C1360 H1345 0.960 . S
C1360 H1346 0.960 . S
C1360 H1347 0.960 . S
C1360 C1359 1.524 . S
C1361 C1358 1.403 . S
C1361 C1362 1.392 1_554 S
C1361 C1365 1.495 . S
C1362 C1361 1.392 1_556 S
C1362 C1363 1.385 1_556 S
C1362 C1364 1.478 . S
C1363 H1357 0.930 1_554 S
C1363 C1359 1.400 . S
C1363 C1362 1.385 1_554 S
C1364 C1362 1.478 . S
C1364 C1366 1.381 . S
C1364 C1370 1.383 . S
C1365 C1361 1.495 . S
C1365 H1371 0.959 . S
C1365 H1372 0.961 1_554 S
C1365 H1373 0.960 1_554 S
C1366 C1364 1.381 . S
C1366 C1367 1.394 . S
C1366 H1374 0.930 . S
C1367 C1366 1.394 . S
C1367 C1368 1.383 . S
C1367 H1375 0.929 . S
C1368 C1367 1.383 . S
C1368 C1369 1.377 . S
C1369 H1353 0.930 . S
C1369 C1368 1.377 . S
C1369 C1370 1.379 . S
C1370 H1354 0.931 . S
C1370 C1364 1.383 . S
C1370 C1369 1.379 . S
H1371 C1365 0.959 . S
H1372 C1365 0.961 1_556 S
H1373 C1365 0.960 1_556 S
H1374 C1366 0.930 . S
H1375 C1367 0.929 . S
C233 C95 1.424 . S
C252 C11 1.431 . S
C269 C109 1.423 . S
C288 C25 1.407 . S
C305 C39 1.426 . S
C324 C67 1.403 . S
C341 C53 1.423 . S
C360 C81 1.408 . S
C377 C123 1.428 . S
C396 C207 1.444 . S
C413 C221 1.428 . S
C432 C137 1.444 . S
C449 C151 1.428 . S
C468 C179 1.405 . S
C485 C165 1.431 . S
C504 C193 1.425 . S
C521 C5 1.379 . S
C540 C145 1.359 . S
C557 C19 1.377 . S
C576 C159 1.363 . S
C593 C33 1.378 . S
C612 C117 1.390 . S
C629 C47 1.380 . S
C648 C131 1.393 . S
C665 C61 1.381 . S
C684 C201 1.393 . S
C701 C215 1.380 . S
C720 C75 1.393 . S
C737 C89 1.380 . S
C756 C173 1.393 . S
C773 C187 1.382 . S
C792 C103 1.389 . S
C809 C191 0.455 . S
C828 C9 0.549 . S
C845 C23 0.437 . S
C864 C205 0.467 . S
C881 C219 0.457 . S
C900 C37 0.375 . S
C917 C177 0.462 . S
C936 C51 0.381 . S
C953 C163 0.437 . S
C972 C65 0.464 . S
C989 C79 0.447 . S
C1008 C121 0.388 . S
C1025 C93 0.437 . S
C1044 C135 0.484 . S
C1061 C107 0.443 . S
C1080 C149 0.525 . S
C1097 C182 1.478 . S
C1116 C0 1.457 . S
C1133 C14 1.472 . S
C1152 C196 1.486 . S
C1169 C28 1.478 . S
C1188 C210 1.475 . S
C1205 C168 1.476 . S
C1224 C42 1.481 . S
C1241 C154 1.478 . S
C1260 C56 1.461 . S
C1277 C112 1.478 . S
C1296 C70 1.457 . S
C1313 C84 1.474 . S
C1332 C126 1.465 . S
C1349 C140 1.472 . S
C1368 C98 1.481 . S
