# Generated by pormake.
# Topology wlk, (5)-cn, num edge types: 1
# Building blocks:
#     Node 0, Type 0, BuildingBlock: XOMCOT_clean_sbu_0, # of connection points: 5
#     Node 1, Type 0, BuildingBlock: XOMCOT_clean_sbu_0, # of connection points: 5
#     Node 2, Type 0, BuildingBlock: XOMCOT_clean_sbu_0, # of connection points: 5
#     Node 3, Type 0, BuildingBlock: XOMCOT_clean_sbu_0, # of connection points: 5
#     Node 4, Type 0, BuildingBlock: XOMCOT_clean_sbu_0, # of connection points: 5
#     Node 5, Type 0, BuildingBlock: XOMCOT_clean_sbu_0, # of connection points: 5
#     Node 6, Type 0, BuildingBlock: XOMCOT_clean_sbu_0, # of connection points: 5
#     Node 7, Type 0, BuildingBlock: XOMCOT_clean_sbu_0, # of connection points: 5
#     Node 8, Type 0, BuildingBlock: XOMCOT_clean_sbu_0, # of connection points: 5
#     Node 9, Type 0, BuildingBlock: XOMCOT_clean_sbu_0, # of connection points: 5
#     Node 10, Type 0, BuildingBlock: XOMCOT_clean_sbu_0, # of connection points: 5
#     Node 11, Type 0, BuildingBlock: XOMCOT_clean_sbu_0, # of connection points: 5
#     Node 12, Type 0, BuildingBlock: XOMCOT_clean_sbu_0, # of connection points: 5
#     Node 13, Type 0, BuildingBlock: XOMCOT_clean_sbu_0, # of connection points: 5
#     Node 14, Type 0, BuildingBlock: XOMCOT_clean_sbu_0, # of connection points: 5
#     Node 15, Type 0, BuildingBlock: XOMCOT_clean_sbu_0, # of connection points: 5
#     Node 16, Type 0, BuildingBlock: XOMCOT_clean_sbu_0, # of connection points: 5
#     Node 17, Type 0, BuildingBlock: XOMCOT_clean_sbu_0, # of connection points: 5
#     Edge 18, Type (0, 0), BuildingBlock: EZIPEK_clean_linker_0, # of connection points: 2
#     Edge 19, Type (0, 0), BuildingBlock: EZIPEK_clean_linker_0, # of connection points: 2
#     Edge 20, Type (0, 0), BuildingBlock: EZIPEK_clean_linker_0, # of connection points: 2
#     Edge 21, Type (0, 0), BuildingBlock: EZIPEK_clean_linker_0, # of connection points: 2
#     Edge 22, Type (0, 0), BuildingBlock: EZIPEK_clean_linker_0, # of connection points: 2
#     Edge 23, Type (0, 0), BuildingBlock: EZIPEK_clean_linker_0, # of connection points: 2
#     Edge 24, Type (0, 0), BuildingBlock: EZIPEK_clean_linker_0, # of connection points: 2
#     Edge 25, Type (0, 0), BuildingBlock: EZIPEK_clean_linker_0, # of connection points: 2
#     Edge 26, Type (0, 0), BuildingBlock: EZIPEK_clean_linker_0, # of connection points: 2
#     Edge 27, Type (0, 0), BuildingBlock: EZIPEK_clean_linker_0, # of connection points: 2
#     Edge 28, Type (0, 0), BuildingBlock: EZIPEK_clean_linker_0, # of connection points: 2
#     Edge 29, Type (0, 0), BuildingBlock: EZIPEK_clean_linker_0, # of connection points: 2
#     Edge 30, Type (0, 0), BuildingBlock: EZIPEK_clean_linker_0, # of connection points: 2
#     Edge 31, Type (0, 0), BuildingBlock: EZIPEK_clean_linker_0, # of connection points: 2
#     Edge 32, Type (0, 0), BuildingBlock: EZIPEK_clean_linker_0, # of connection points: 2
#     Edge 33, Type (0, 0), BuildingBlock: EZIPEK_clean_linker_0, # of connection points: 2
#     Edge 34, Type (0, 0), BuildingBlock: EZIPEK_clean_linker_0, # of connection points: 2
#     Edge 35, Type (0, 0), BuildingBlock: EZIPEK_clean_linker_0, # of connection points: 2
#     Edge 36, Type (0, 0), BuildingBlock: EZIPEK_clean_linker_0, # of connection points: 2
#     Edge 37, Type (0, 0), BuildingBlock: EZIPEK_clean_linker_0, # of connection points: 2
#     Edge 38, Type (0, 0), BuildingBlock: EZIPEK_clean_linker_0, # of connection points: 2
#     Edge 39, Type (0, 0), BuildingBlock: EZIPEK_clean_linker_0, # of connection points: 2
#     Edge 40, Type (0, 0), BuildingBlock: EZIPEK_clean_linker_0, # of connection points: 2
#     Edge 41, Type (0, 0), BuildingBlock: EZIPEK_clean_linker_0, # of connection points: 2
#     Edge 42, Type (0, 0), BuildingBlock: EZIPEK_clean_linker_0, # of connection points: 2
#     Edge 43, Type (0, 0), BuildingBlock: EZIPEK_clean_linker_0, # of connection points: 2
#     Edge 44, Type (0, 0), BuildingBlock: EZIPEK_clean_linker_0, # of connection points: 2
#     Edge 45, Type (0, 0), BuildingBlock: EZIPEK_clean_linker_0, # of connection points: 2
#     Edge 46, Type (0, 0), BuildingBlock: EZIPEK_clean_linker_0, # of connection points: 2
#     Edge 47, Type (0, 0), BuildingBlock: EZIPEK_clean_linker_0, # of connection points: 2
#     Edge 48, Type (0, 0), BuildingBlock: EZIPEK_clean_linker_0, # of connection points: 2
#     Edge 49, Type (0, 0), BuildingBlock: EZIPEK_clean_linker_0, # of connection points: 2
#     Edge 50, Type (0, 0), BuildingBlock: EZIPEK_clean_linker_0, # of connection points: 2
#     Edge 51, Type (0, 0), BuildingBlock: EZIPEK_clean_linker_0, # of connection points: 2
#     Edge 52, Type (0, 0), BuildingBlock: EZIPEK_clean_linker_0, # of connection points: 2
#     Edge 53, Type (0, 0), BuildingBlock: EZIPEK_clean_linker_0, # of connection points: 2
#     Edge 54, Type (0, 0), BuildingBlock: EZIPEK_clean_linker_0, # of connection points: 2
#     Edge 55, Type (0, 0), BuildingBlock: EZIPEK_clean_linker_0, # of connection points: 2
#     Edge 56, Type (0, 0), BuildingBlock: EZIPEK_clean_linker_0, # of connection points: 2
#     Edge 57, Type (0, 0), BuildingBlock: EZIPEK_clean_linker_0, # of connection points: 2
#     Edge 58, Type (0, 0), BuildingBlock: EZIPEK_clean_linker_0, # of connection points: 2
#     Edge 59, Type (0, 0), BuildingBlock: EZIPEK_clean_linker_0, # of connection points: 2
#     Edge 60, Type (0, 0), BuildingBlock: EZIPEK_clean_linker_0, # of connection points: 2
#     Edge 61, Type (0, 0), BuildingBlock: EZIPEK_clean_linker_0, # of connection points: 2
#     Edge 62, Type (0, 0), BuildingBlock: EZIPEK_clean_linker_0, # of connection points: 2
# Relax obj value: 0.213
# Max RMSD: 0.256
# Mean RMSD: 0.256
data_MOF--net-wlk--node1-XOMCOT_clean_sbu_0--edge1-EZIPEK_clean_linker_0
_symmetry_space_group_name_H-M    P1
_symmetry_Int_Tables_number       1
_symmetry_cell_setting            triclinic
loop_
_symmetry_equiv_pos_as_xyz
'x, y, z'
_cell_length_a     49.476984
_cell_length_b     49.591745
_cell_length_c     21.830549
_cell_angle_alpha  90.014333
_cell_angle_beta   89.929045
_cell_angle_gamma 120.22884
loop_
_atom_site_label
_atom_site_type_symbol
_atom_site_fract_x
_atom_site_fract_y
_atom_site_fract_z
_atom_type_partial_charge
Co0 Co 0.22089 0.28026 0.08945 0.0
C1 C 0.22532 0.22695 0.03552 0.0
C2 C 0.21197 0.24884 0.96714 0.0
C3 C 0.21625 0.22636 0.93926 0.0
N4 N 0.21809 0.24978 0.02784 0.0
N5 N 0.22467 0.21268 0.98231 0.0
H6 H 0.2325 0.22162 0.07828 0.0
H7 H 0.20716 0.26484 0.94286 0.0
C8 C 0.15864 0.26546 0.03565 0.0
O9 O 0.1731 0.28037 0.98573 0.0
N10 N 0.22325 0.3094 0.15214 0.0
C11 C 0.24754 0.33837 0.16248 0.0
C12 C 0.24042 0.35137 0.21112 0.0
C13 C 0.20168 0.30505 0.19519 0.0
N14 N 0.21173 0.33039 0.23168 0.0
C15 C 0.25756 0.31818 0.99144 0.0
C16 C 0.24288 0.3647 0.00624 0.0
C17 C 0.26947 0.37085 0.97237 0.0
C18 C 0.27556 0.34661 0.96217 0.0
C19 C 0.22429 0.33507 0.03239 0.0
N20 N 0.2327 0.3127 0.02744 0.0
H21 H 0.26568 0.30164 0.98991 0.0
H22 H 0.20512 0.33127 0.06193 0.0
H23 H 0.26861 0.34966 0.13518 0.0
H24 H 0.17901 0.28411 0.1992 0.0
O25 O 0.26298 0.29083 0.10715 0.0
O26 O 0.22216 0.25431 0.15631 0.0
O27 O 0.17386 0.26332 0.0812 0.0
C28 C 0.25267 0.27049 0.15083 0.0
H29 H 0.21476 0.22143 0.89067 0.0
H30 H 0.25482 0.3747 0.22916 0.0
H31 H 0.23775 0.3831 0.01576 0.0
H32 H 0.29614 0.35068 0.93682 0.0
Co33 Co 0.7628 0.94829 0.11628 0.0
C34 C 0.80421 1.00746 0.04545 0.0
C35 C 0.8123 0.97042 0.02007 0.0
C36 C 0.83231 0.99654 0.98673 0.0
N37 N 0.79429 0.97691 0.05693 0.0
N38 N 0.82721 0.01972 0.00282 0.0
H39 H 0.79484 0.02057 0.06737 0.0
H40 H 0.81181 0.94851 0.01764 0.0
C41 C 0.76494 0.88665 0.10073 0.0
O42 O 0.73845 0.86866 0.12904 0.0
N43 N 0.73221 0.92054 0.17651 0.0
C44 C 0.70302 0.91574 0.18406 0.0
C45 C 0.68868 0.89508 0.23165 0.0
C46 C 0.7357 0.90381 0.22171 0.0
N47 N 0.70912 0.88737 0.25471 0.0
C48 C 0.72631 0.95545 0.02471 0.0
C49 C 0.68009 0.89354 0.01582 0.0
C50 C 0.67502 0.91644 0.99006 0.0
C51 C 0.69894 0.94757 0.99278 0.0
C52 C 0.70817 0.90242 0.04658 0.0
N53 N 0.73045 0.93321 0.05302 0.0
H54 H 0.74301 0.97985 0.03077 0.0
H55 H 0.71028 0.8846 0.06964 0.0
H56 H 0.69272 0.92632 0.15638 0.0
H57 H 0.75688 0.90297 0.22925 0.0
O58 O 0.75633 0.98111 0.1457 0.0
O59 O 0.79193 0.97096 0.18308 0.0
O60 O 0.77575 0.91613 0.09463 0.0
C61 C 0.7786 0.988 0.18453 0.0
H62 H 0.84953 0.99851 0.95365 0.0
H63 H 0.66482 0.88575 0.2472 0.0
H64 H 0.66194 0.86919 0.01462 0.0
H65 H 0.69574 0.96588 0.97334 0.0
Co66 Co 0.08538 0.8148 0.11099 0.0
C67 C 0.02701 0.79943 0.04116 0.0
C68 C 0.06731 0.83899 0.00275 0.0
C69 C 0.04114 0.83467 0.97169 0.0
N70 N 0.05854 0.81719 0.04728 0.0
N71 N 1.01591 0.80985 0.99609 0.0
H72 H 1.01218 0.77952 0.06942 0.0
H73 H 0.09093 0.85754 0.99414 0.0
C74 C 0.14801 0.87744 0.09409 0.0
O75 O 0.16526 0.86763 0.12028 0.0
N76 N 0.11106 0.81238 0.17634 0.0
C77 C 0.11256 0.78676 0.19161 0.0
C78 C 0.13228 0.79364 0.24102 0.0
C79 C 0.12858 0.83396 0.21905 0.0
N80 N 0.14242 0.82334 0.25781 0.0
C81 C 0.08172 0.77532 0.01106 0.0
C82 C 0.13906 0.7798 0.02934 0.0
C83 C 0.11759 0.75669 0.98995 0.0
C84 C 0.08931 0.75581 0.97853 0.0
C85 C 0.13135 0.80036 0.05795 0.0
N86 N 0.10222 0.79697 0.05166 0.0
H87 H 0.05819 0.77094 0.00664 0.0
H88 H 0.14783 0.81644 0.09028 0.0
H89 H 0.10049 0.76467 0.16773 0.0
H90 H 0.13141 0.85698 0.22148 0.0
O91 O 0.05109 0.77589 0.14066 0.0
O92 O 0.06165 0.82253 0.17339 0.0
O93 O 0.11825 0.85984 0.0891 0.0
C94 C 0.04407 0.79223 0.17694 0.0
H95 H 0.0405 0.84941 0.93584 0.0
H96 H 0.13928 0.77836 0.26213 0.0
H97 H 0.16094 0.78094 0.04049 0.0
H98 H 0.0719 0.73812 0.94874 0.0
Co99 Co 0.83017 0.75979 0.87826 0.0
C100 C 0.81429 0.79985 0.95902 0.0
C101 C 0.86304 0.82075 0.93869 0.0
C102 C 0.85873 0.84154 0.97302 0.0
N103 N 0.83549 0.79396 0.93171 0.0
N104 N 0.82802 0.82863 0.98478 0.0
H105 H 0.78928 0.7846 0.95734 0.0
H106 H 0.88482 0.82556 0.91774 0.0
C107 C 0.88592 0.77248 0.95525 0.0
O108 O 0.86849 0.76862 0.00364 0.0
N109 N 0.82582 0.72705 0.82332 0.0
C110 C 0.8001 0.69877 0.81545 0.0
C111 C 0.80628 0.68265 0.7714 0.0
C112 C 0.84719 0.72799 0.78333 0.0
N113 N 0.83577 0.70109 0.75123 0.0
C114 C 0.77982 0.72162 0.95701 0.0
C115 C 0.80039 0.68269 0.99982 0.0
C116 C 0.76973 0.67559 0.01349 0.0
C117 C 0.75962 0.69528 0.99024 0.0
C118 C 0.81939 0.70845 0.96189 0.0
N119 N 0.80939 0.72829 0.94254 0.0
H120 H 0.77038 0.73538 0.93962 0.0
H121 H 0.8416 0.71172 0.94684 0.0
H122 H 0.77826 0.69048 0.83973 0.0
H123 H 0.87046 0.7479 0.77755 0.0
O124 O 0.79276 0.75638 0.84477 0.0
O125 O 0.84005 0.78811 0.80798 0.0
O126 O 0.87408 0.76889 0.90143 0.0
C127 C 0.80993 0.77733 0.80518 0.0
H128 H 0.87648 0.86506 0.98528 0.0
H129 H 0.79028 0.65937 0.75474 0.0
H130 H 0.80923 0.66807 0.01672 0.0
H131 H 0.73599 0.69052 0.99836 0.0
Co132 Co 0.28113 0.07705 0.90084 0.0
C133 C 0.24095 0.02018 0.97678 0.0
C134 C 0.22009 0.04857 0.96695 0.0
C135 C 0.19893 0.02126 0.99566 0.0
N136 N 0.24709 0.04865 0.95626 0.0
N137 N 0.21211 1.00348 0.00152 0.0
H138 H 0.25631 1.01077 0.97059 0.0
H139 H 0.21471 0.06586 0.95123 0.0
C140 C 0.26406 0.12188 0.9547 0.0
O141 O 0.26808 0.11245 0.00839 0.0
N142 N 0.31338 0.10389 0.84253 0.0
C143 C 0.34141 0.10607 0.83358 0.0
C144 C 0.35712 0.12743 0.7876 0.0
C145 C 0.31227 0.12372 0.80137 0.0
N146 N 0.33877 0.13844 0.76767 0.0
C147 C 0.31555 0.07793 0.00639 0.0
C148 C 0.36243 0.13941 0.9925 0.0
C149 C 0.36821 0.11912 0.0272 0.0
C150 C 0.34388 0.0886 0.03674 0.0
C151 C 0.33339 0.12784 0.96354 0.0
N152 N 0.31104 0.09689 0.96757 0.0
H153 H 0.29882 0.05348 0.00924 0.0
H154 H 0.33032 0.14297 0.93225 0.0
H155 H 0.34991 0.09322 0.8591 0.0
H156 H 0.29251 0.12721 0.79583 0.0
O157 O 0.29062 0.04492 0.88676 0.0
O158 O 0.25689 0.05072 0.83155 0.0
O159 O 0.26723 0.10942 0.90566 0.0
C160 C 0.27135 0.0351 0.84133 0.0
H161 H 0.17507 1.01419 0.00808 0.0
H162 H 0.38018 0.13433 0.76999 0.0
H163 H 0.38084 0.16321 0.98425 0.0
H164 H 0.34764 0.07236 0.06343 0.0
Co165 Co 0.9547 0.20777 0.88707 0.0
C166 C 1.01487 0.2242 0.95199 0.0
C167 C 0.97651 0.18135 0.98519 0.0
C168 C 1.00325 0.1866 0.01497 0.0
N169 N 0.98353 0.20487 0.94534 0.0
N170 N 0.02727 0.21347 0.99392 0.0
H171 H 0.02857 0.24555 0.92649 0.0
H172 H 0.95386 0.16095 0.99128 0.0
C173 C 0.892 0.14518 0.90588 0.0
O174 O 0.87476 0.15538 0.88103 0.0
N175 N 0.92678 0.21042 0.82726 0.0
C176 C 0.92274 0.23508 0.81788 0.0
C177 C 0.90203 0.22835 0.77019 0.0
C178 C 0.9096 0.18963 0.783 0.0
N179 N 0.89365 0.19972 0.74879 0.0
C180 C 0.96295 0.2488 0.98637 0.0
C181 C 0.90296 0.23924 0.989 0.0
C182 C 0.9264 0.26409 0.02228 0.0
C183 C 0.95635 0.26782 0.02295 0.0
C184 C 0.9103 0.21986 0.9548 0.0
N185 N 0.94033 0.2254 0.95153 0.0
H186 H 0.98702 0.25485 0.98257 0.0
H187 H 0.89232 0.20288 0.92621 0.0
H188 H 0.934 0.25648 0.84412 0.0
H189 H 0.90833 0.16738 0.77665 0.0
O190 O 0.98807 0.24698 0.85609 0.0
O191 O 0.97664 0.2008 0.81943 0.0
O192 O 0.92193 0.16258 0.9096 0.0
C193 C 0.99425 0.23116 0.81691 0.0
H194 H 1.00517 0.17132 0.04786 0.0
H195 H 0.89339 0.24308 0.75306 0.0
H196 H 0.87963 0.23598 0.98645 0.0
H197 H 0.97522 0.28706 0.04756 0.0
Co198 Co 0.8903 0.60589 0.42985 0.0
C199 C 0.89993 0.56319 0.34561 0.0
C200 C 0.852 0.54502 0.3697 0.0
C201 C 0.85434 0.52231 0.33805 0.0
N202 N 0.88044 0.57124 0.37337 0.0
N203 N 0.88456 0.53362 0.32398 0.0
H204 H 0.92513 0.57702 0.3467 0.0
H205 H 0.83119 0.5414 0.393 0.0
C206 C 0.83216 0.59499 0.36815 0.0
O207 O 0.84692 0.5961 0.31725 0.0
N208 N 0.89904 0.63862 0.48885 0.0
C209 C 0.92669 0.66486 0.49878 0.0
C210 C 0.92296 0.68165 0.54517 0.0
C211 C 0.87896 0.63956 0.52969 0.0
N212 N 0.89302 0.66564 0.5644 0.0
C213 C 0.93071 0.64123 0.33064 0.0
C214 C 0.91618 0.68826 0.33309 0.0
C215 C 0.94264 0.69295 0.30061 0.0
C216 C 0.94892 0.66848 0.29732 0.0
C217 C 0.89786 0.66006 0.3644 0.0
N218 N 0.90592 0.63735 0.3649 0.0
H219 H 0.93871 0.62484 0.33335 0.0
H220 H 0.87897 0.65778 0.39298 0.0
H221 H 0.948 0.67137 0.47382 0.0
H222 H 0.85463 0.6216 0.53402 0.0
O223 O 0.92956 0.60881 0.44994 0.0
O224 O 0.88507 0.57796 0.49806 0.0
O225 O 0.84611 0.59856 0.41959 0.0
C226 C 0.91516 0.58874 0.49323 0.0
H227 H 0.83585 0.49843 0.33101 0.0
H228 H 0.94076 0.70386 0.56343 0.0
H229 H 0.91091 0.70689 0.33744 0.0
H230 H 0.96951 0.67153 0.2735 0.0
Co231 Co 0.42934 0.29177 0.44615 0.0
C232 C 0.4697 0.34888 0.36916 0.0
C233 C 0.48697 0.31699 0.37212 0.0
C234 C 0.50741 0.34248 0.33796 0.0
N235 N 0.46307 0.32067 0.39168 0.0
N236 N 0.49685 0.36268 0.33685 0.0
H237 H 0.45587 0.35974 0.37831 0.0
H238 H 0.49038 0.29774 0.38362 0.0
C239 C 0.426 0.22869 0.42255 0.0
O240 O 0.39661 0.21247 0.43955 0.0
N241 N 0.39618 0.26283 0.50104 0.0
C242 C 0.36602 0.25577 0.50109 0.0
C243 C 0.35002 0.23409 0.5464 0.0
C244 C 0.39824 0.24582 0.54756 0.0
N245 N 0.37025 0.22781 0.57526 0.0
C246 C 0.3889 0.30258 0.37102 0.0
C247 C 0.36063 0.24795 0.30433 0.0
C248 C 0.34922 0.26861 0.29922 0.0
C249 C 0.3639 0.29622 0.33306 0.0
C250 C 0.38525 0.25472 0.34517 0.0
N251 N 0.39878 0.28155 0.37942 0.0
H252 H 0.39968 0.32458 0.39456 0.0
H253 H 0.39294 0.23817 0.34794 0.0
H254 H 0.3561 0.26552 0.47031 0.0
H255 H 0.41953 0.24603 0.55989 0.0
O256 O 0.42585 0.32562 0.48112 0.0
O257 O 0.45757 0.31041 0.51704 0.0
O258 O 0.44027 0.25857 0.42221 0.0
C259 C 0.44671 0.3295 0.5209 0.0
H260 H 0.52922 0.34664 0.31798 0.0
H261 H 0.32538 0.22354 0.55714 0.0
H262 H 0.35057 0.2268 0.27721 0.0
H263 H 0.35639 0.31326 0.32934 0.0
Co264 Co 0.74325 0.1421 0.42855 0.0
C265 C 0.68894 0.13208 0.34704 0.0
C266 C 0.71949 0.17964 0.372 0.0
C267 C 0.6935 0.17747 0.34447 0.0
N268 N 0.71695 0.15116 0.37431 0.0
N269 N 0.67413 0.14752 0.32942 0.0
H270 H 0.6784 0.10723 0.34264 0.0
H271 H 0.73751 0.20044 0.39404 0.0
C272 C 0.80697 0.20548 0.42509 0.0
O273 O 0.82338 0.19469 0.45155 0.0
N274 N 0.76894 0.13433 0.48544 0.0
C275 C 0.77307 0.10944 0.48598 0.0
C276 C 0.7929 0.11268 0.53338 0.0
C277 C 0.78488 0.15147 0.53481 0.0
N278 N 0.8005 0.13928 0.56347 0.0
C279 C 0.73677 0.10165 0.3299 0.0
C280 C 0.79867 0.11723 0.32451 0.0
C281 C 0.77597 0.08914 0.29815 0.0
C282 C 0.74497 0.08248 0.29781 0.0
C283 C 0.78956 0.13658 0.35382 0.0
N284 N 0.75863 0.12774 0.35999 0.0
H285 H 0.71234 0.09312 0.33621 0.0
H286 H 0.80729 0.1565 0.37715 0.0
H287 H 0.76272 0.09045 0.45361 0.0
H288 H 0.78608 0.17309 0.54804 0.0
O289 O 0.70853 0.10161 0.44997 0.0
O290 O 0.71986 0.14489 0.49876 0.0
O291 O 0.77743 0.18791 0.41614 0.0
C292 C 0.70191 0.11457 0.49442 0.0
H293 H 0.68799 0.19595 0.3406 0.0
H294 H 0.80177 0.09724 0.54399 0.0
H295 H 0.82295 0.12322 0.32586 0.0
H296 H 0.72669 0.06093 0.27801 0.0
Co297 Co 0.488 0.09684 0.20981 0.0
C298 C 0.4725 0.13608 0.29216 0.0
C299 C 0.52169 0.15355 0.28777 0.0
C300 C 0.51673 0.17362 0.32311 0.0
N301 N 0.49394 0.129 0.27021 0.0
N302 N 0.48583 0.163 0.32471 0.0
H303 H 0.44789 0.12336 0.28093 0.0
H304 H 0.54438 0.15814 0.27266 0.0
C305 C 0.54414 0.10563 0.27941 0.0
O306 O 0.52788 0.10237 0.32935 0.0
N307 N 0.48243 0.0661 0.14843 0.0
C308 C 0.45525 0.04031 0.13348 0.0
C309 C 0.46115 0.0237 0.09009 0.0
C310 C 0.5045 0.06504 0.11357 0.0
N311 N 0.49202 0.0393 0.07778 0.0
C312 C 0.44121 0.05749 0.29611 0.0
C313 C 0.45985 1.01369 0.30778 0.0
C314 C 0.43156 1.00773 0.33422 0.0
C315 C 0.42248 0.03009 0.32871 0.0
C316 C 0.47792 0.04147 0.27504 0.0
N317 N 0.46864 0.06316 0.2698 0.0
H318 H 0.43259 0.07327 0.28934 0.0
H319 H 0.49863 0.04483 0.25154 0.0
H320 H 0.43279 0.03371 0.15374 0.0
H321 H 0.52916 0.08229 0.11507 0.0
O322 O 0.45032 0.095 0.182 0.0
O323 O 0.49762 0.1275 0.14492 0.0
O324 O 0.53157 0.10381 0.22718 0.0
C325 C 0.46756 0.1171 0.14397 0.0
H326 H 0.53455 0.19571 0.34183 0.0
H327 H 0.44424 1.00165 0.06979 0.0
H328 H 0.46757 0.99684 0.31157 0.0
H329 H 0.40078 0.02619 0.34891 0.0
Co330 Co 0.94424 0.40371 0.2259 0.0
C331 C 0.89966 0.34407 0.2919 0.0
C332 C 0.89555 0.38281 0.32312 0.0
C333 C 0.87451 0.35663 0.35521 0.0
N334 N 0.91143 0.37514 0.28293 0.0
N335 N 0.87711 0.33238 0.33545 0.0
H336 H 0.90766 0.33025 0.2681 0.0
H337 H 0.89883 0.40582 0.32956 0.0
C338 C 0.94274 0.46552 0.23534 0.0
O339 O 0.96982 0.48253 0.20828 0.0
N340 N 0.97652 0.43153 0.16842 0.0
C341 C 1.0062 0.43719 0.16602 0.0
C342 C 1.02154 0.45711 0.11787 0.0
C343 C 0.97386 0.44702 0.11981 0.0
N344 N 1.00128 0.46352 0.08944 0.0
C345 C 0.97803 0.39566 0.32201 0.0
C346 C 0.02255 0.45772 0.33886 0.0
C347 C 0.02709 0.4347 0.36569 0.0
C348 C 1.0039 0.40343 0.35895 0.0
C349 C 0.99596 0.44893 0.30291 0.0
N350 N 0.97469 0.41814 0.29265 0.0
H351 H 0.96185 0.3713 0.31343 0.0
H352 H 0.99429 0.46696 0.27965 0.0
H353 H 1.01608 0.42753 0.19722 0.0
H354 H 0.95261 0.44699 0.10798 0.0
O355 O 0.95074 0.37056 0.19758 0.0
O356 O 0.91674 0.38195 0.15659 0.0
O357 O 0.9312 0.43612 0.24436 0.0
C358 C 0.92965 0.36456 0.1563 0.0
H359 H 0.85858 0.35545 0.39055 0.0
H360 H 0.04592 0.46687 0.10561 0.0
H361 H 0.04022 0.48215 0.34284 0.0
H362 H 1.00679 0.38502 0.37887 0.0
Co363 Co 0.62833 0.55032 0.22456 0.0
C364 C 0.68741 0.56541 0.29075 0.0
C365 C 0.65412 0.51644 0.29227 0.0
C366 C 0.68176 0.52116 0.31697 0.0
N367 N 0.65743 0.5442 0.27556 0.0
N368 N 0.70269 0.55194 0.31592 0.0
H369 H 0.69868 0.59006 0.2804 0.0
H370 H 0.63373 0.49386 0.28435 0.0
C371 C 0.56602 0.48644 0.2316 0.0
O372 O 0.54921 0.49705 0.20629 0.0
N373 N 0.60043 0.55662 0.17154 0.0
C374 C 0.59423 0.58019 0.17392 0.0
C375 C 0.57423 0.5767 0.12668 0.0
C376 C 0.58541 0.54008 0.12107 0.0
N377 N 0.56851 0.55128 0.09417 0.0
C378 C 0.63647 0.59036 0.32344 0.0
C379 C 0.57424 0.57128 0.34271 0.0
C380 C 0.5973 0.59988 0.36638 0.0
C381 C 0.62863 0.60881 0.35853 0.0
C382 C 0.58315 0.55348 0.30732 0.0
N383 N 0.61404 0.56376 0.2956 0.0
H384 H 0.66085 0.59923 0.31461 0.0
H385 H 0.565 0.53298 0.28616 0.0
H386 H 0.60345 0.59856 0.20786 0.0
H387 H 0.5857 0.51944 0.10589 0.0
O388 O 0.66105 0.59095 0.20322 0.0
O389 O 0.65073 0.54902 0.15078 0.0
O390 O 0.59575 0.50406 0.23829 0.0
C391 C 0.66787 0.57936 0.15688 0.0
H392 H 0.68654 0.50324 0.33246 0.0
H393 H 0.56382 0.591 0.11803 0.0
H394 H 0.54968 0.56338 0.34968 0.0
H395 H 0.647 0.63045 0.37787 0.0
Co396 Co 0.55581 0.93488 0.791 0.0
C397 C 0.56999 0.89412 0.70933 0.0
C398 C 0.52103 0.87475 0.72526 0.0
C399 C 0.5251 0.85377 0.69106 0.0
N400 N 0.549 0.90085 0.73497 0.0
N401 N 0.55591 0.8657 0.68213 0.0
H402 H 0.59502 0.90818 0.7145 0.0
H403 H 0.49905 0.87025 0.74463 0.0
C404 C 0.49955 0.92321 0.71906 0.0
O405 O 0.5158 0.92414 0.67057 0.0
N406 N 0.56189 0.96737 0.84844 0.0
C407 C 0.5893 0.99305 0.86269 0.0
C408 C 0.58377 1.01045 0.90487 0.0
C409 C 0.54003 0.96937 0.88225 0.0
N410 N 0.55287 0.99551 0.91689 0.0
C411 C 0.60304 0.97257 0.70408 0.0
C412 C 0.58302 0.01459 0.68184 0.0
C413 C 0.61174 0.02045 0.65784 0.0
C414 C 0.62156 0.999 0.66885 0.0
C415 C 0.56519 0.98781 0.71752 0.0
N416 N 0.57505 0.96684 0.72762 0.0
H417 H 0.61239 0.95781 0.7153 0.0
H418 H 0.54422 0.98476 0.73932 0.0
H419 H 0.61172 0.99885 0.84332 0.0
H420 H 0.51532 0.95223 0.88149 0.0
O421 O 0.59356 0.93723 0.81985 0.0
O422 O 0.54662 0.90613 0.85964 0.0
O423 O 0.5122 0.92756 0.77206 0.0
C424 C 0.57668 0.91642 0.86026 0.0
H425 H 0.50707 0.83056 0.67773 0.0
H426 H 0.60097 0.03246 0.92484 0.0
H427 H 0.5748 0.03083 0.67402 0.0
H428 H 0.64369 1.00292 0.65094 0.0
Co429 Co 0.09706 0.62086 0.77639 0.0
C430 C 0.13757 0.6792 0.70221 0.0
C431 C 0.15985 0.65283 0.72333 0.0
C432 C 0.18158 0.68052 0.6967 0.0
N433 N 0.13213 0.65178 0.72719 0.0
N434 N 0.16776 0.69729 0.68378 0.0
H435 H 0.12077 0.68697 0.70121 0.0
H436 H 0.16464 0.63553 0.74229 0.0
C437 C 0.09632 0.55885 0.75528 0.0
O438 O 0.06736 0.54225 0.77461 0.0
N439 N 0.06286 0.59047 0.82742 0.0
C440 C 0.03249 0.58261 0.82461 0.0
C441 C 1.01604 0.56094 0.86961 0.0
C442 C 0.06458 0.57415 0.8756 0.0
N443 N 0.03619 0.55553 0.9012 0.0
C444 C 0.05896 0.63254 0.69541 0.0
C445 C 0.02543 0.57384 0.64455 0.0
C446 C 1.01511 0.59516 0.6354 0.0
C447 C 0.03289 0.62514 0.65943 0.0
C448 C 0.05233 0.58252 0.6796 0.0
N449 N 0.06803 0.61114 0.70736 0.0
H450 H 0.07041 0.6551 0.71683 0.0
H451 H 0.05923 0.56551 0.68567 0.0
H452 H 0.0228 0.592 0.79241 0.0
H453 H 0.08595 0.57522 0.8905 0.0
O454 O 0.09146 0.65321 0.81229 0.0
O455 O 0.12305 0.63795 0.84986 0.0
O456 O 0.10969 0.58874 0.7515 0.0
C457 C 0.11144 0.6564 0.85382 0.0
H458 H 0.20615 0.68846 0.68993 0.0
H459 H 0.99112 0.54965 0.87808 0.0
H460 H 1.01249 0.55051 0.62565 0.0
H461 H 0.02583 0.64237 0.65275 0.0
Co462 Co 0.41154 0.48212 0.78127 0.0
C463 C 0.35777 0.4648 0.69438 0.0
C464 C 0.3787 0.5115 0.72857 0.0
C465 C 0.35102 0.50421 0.70041 0.0
N466 N 0.38316 0.48683 0.72542 0.0
N467 N 0.33751 0.47465 0.67978 0.0
H468 H 0.35263 0.44128 0.68644 0.0
H469 H 0.39323 0.53249 0.75456 0.0
C470 C 0.45297 0.54074 0.71003 0.0
O471 O 0.4355 0.52727 0.66171 0.0
N472 N 0.439 0.47786 0.83865 0.0
C473 C 0.44157 0.45235 0.84807 0.0
C474 C 0.46437 0.45932 0.89153 0.0
C475 C 0.45987 0.49984 0.87703 0.0
N476 N 0.47567 0.48906 0.90965 0.0
C477 C 0.40245 0.43162 0.70384 0.0
C478 C 0.46454 0.45507 0.67359 0.0
C479 C 0.44266 0.42422 0.65743 0.0
C480 C 0.41122 0.41287 0.67183 0.0
C481 C 0.45459 0.47354 0.70402 0.0
N482 N 0.42378 0.46171 0.71928 0.0
H483 H 0.37879 0.42075 0.72045 0.0
H484 H 0.47215 0.49641 0.71952 0.0
H485 H 0.4279 0.43026 0.82487 0.0
H486 H 0.46344 0.52317 0.8811 0.0
O487 O 0.37616 0.44549 0.81531 0.0
O488 O 0.39344 0.49374 0.84848 0.0
O489 O 0.44737 0.52533 0.75992 0.0
C490 C 0.37303 0.46409 0.85268 0.0
H491 H 0.34051 0.51879 0.69882 0.0
H492 H 0.47184 0.44371 0.90918 0.0
H493 H 0.4892 0.46448 0.66436 0.0
H494 H 0.39372 0.38897 0.66133 0.0
Co495 Co 0.15075 0.41821 0.56006 0.0
C496 C 0.13798 0.45976 0.64124 0.0
C497 C 0.18658 0.47441 0.63945 0.0
C498 C 0.1829 0.49622 0.67162 0.0
N499 N 0.15835 0.45078 0.62121 0.0
N500 N 0.1524 0.48725 0.67177 0.0
H501 H 0.11334 0.44775 0.63016 0.0
H502 H 0.20895 0.47755 0.6264 0.0
C503 C 0.20878 0.42566 0.61995 0.0
O504 O 0.19347 0.41924 0.67212 0.0
N505 N 0.14401 0.38743 0.49706 0.0
C506 C 0.11651 0.36215 0.48152 0.0
C507 C 0.12154 0.34674 0.43408 0.0
C508 C 0.16539 0.38713 0.45854 0.0
N509 N 0.15222 0.36243 0.41987 0.0
C510 C 0.11059 0.38238 0.65922 0.0
C511 C 0.12072 0.33256 0.64992 0.0
C512 C 0.09573 0.32932 0.68588 0.0
C513 C 0.09171 0.35515 0.69226 0.0
C514 C 0.13983 0.36076 0.61882 0.0
N515 N 0.1339 0.38492 0.62182 0.0
H516 H 0.10451 0.40029 0.66022 0.0
H517 H 0.15789 0.36227 0.58868 0.0
H518 H 0.09433 0.35537 0.50326 0.0
H519 H 0.18998 0.40465 0.45832 0.0
O520 O 0.1116 0.41528 0.5383 0.0
O521 O 0.15712 0.44812 0.49528 0.0
O522 O 0.19517 0.42621 0.57048 0.0
C523 C 0.12695 0.43709 0.49836 0.0
H524 H 0.20142 0.51822 0.68925 0.0
H525 H 0.10407 0.32565 0.41165 0.0
H526 H 0.12439 0.31298 0.64334 0.0
H527 H 0.07244 0.35344 0.71902 0.0
Co528 Co 0.616 0.73864 0.57765 0.0
C529 C 0.57332 0.68728 0.66511 0.0
C530 C 0.55634 0.71764 0.63984 0.0
C531 C 0.53237 0.69172 0.66747 0.0
N532 N 0.58221 0.71493 0.63697 0.0
N533 N 0.54279 0.67226 0.68201 0.0
H534 H 0.58789 0.67702 0.66949 0.0
H535 H 0.55341 0.73525 0.61671 0.0
C536 C 0.61699 0.80274 0.57806 0.0
O537 O 0.64355 0.81929 0.54888 0.0
N538 N 0.64807 0.76197 0.51639 0.0
C539 C 0.67639 0.76432 0.51265 0.0
C540 C 0.69277 0.78367 0.46444 0.0
C541 C 0.64693 0.77851 0.46821 0.0
N542 N 0.67428 0.79276 0.43711 0.0
C543 C 0.65408 0.73404 0.66976 0.0
C544 C 0.69982 0.79629 0.67004 0.0
C545 C 0.7068 0.77435 0.69402 0.0
C546 C 0.68309 0.7431 0.69623 0.0
C547 C 0.67019 0.78625 0.64492 0.0
N548 N 0.64817 0.75519 0.6417 0.0
H549 H 0.63778 0.70948 0.66626 0.0
H550 H 0.66661 0.80337 0.62292 0.0
H551 H 0.68474 0.75318 0.54364 0.0
H552 H 0.627 0.78109 0.45746 0.0
O553 O 0.61955 0.70255 0.55827 0.0
O554 O 0.58703 0.71393 0.51174 0.0
O555 O 0.60586 0.77359 0.58886 0.0
C556 C 0.59853 0.69533 0.51646 0.0
H557 H 0.50816 0.68591 0.66976 0.0
H558 H 0.7167 0.79131 0.45156 0.0
H559 H 0.71761 0.82075 0.66791 0.0
H560 H 0.68763 0.72548 0.71472 0.0
Co561 Co 0.30081 0.88455 0.55986 0.0
C562 C 0.35461 0.8941 0.64264 0.0
C563 C 0.32781 0.84806 0.60611 0.0
C564 C 0.35353 0.85036 0.63504 0.0
N565 N 0.32793 0.8753 0.61097 0.0
N566 N 0.37056 0.87939 0.65742 0.0
H567 H 0.36383 0.9186 0.65082 0.0
H568 H 0.31158 0.82852 0.57855 0.0
C569 C 0.25582 0.82475 0.62321 0.0
O570 O 0.27079 0.83867 0.67371 0.0
N571 N 0.27421 0.89235 0.50668 0.0
C572 C 0.27326 0.91897 0.50135 0.0
C573 C 0.251 0.91451 0.4582 0.0
C574 C 0.25289 0.87221 0.46647 0.0
N575 N 0.23837 0.88517 0.43661 0.0
C576 C 0.30911 0.92725 0.65394 0.0
C577 C 0.24668 0.90573 0.67836 0.0
C578 C 0.26937 0.93444 0.70303 0.0
C579 C 0.30086 0.94494 0.69011 0.0
C580 C 0.25602 0.88944 0.63898 0.0
N581 N 0.28704 0.89985 0.62842 0.0
H582 H 0.33336 0.93735 0.64224 0.0
H583 H 0.23829 0.86959 0.6141 0.0
H584 H 0.28762 0.94005 0.52723 0.0
H585 H 0.24806 0.8486 0.45916 0.0
O586 O 0.33572 0.92441 0.53681 0.0
O587 O 0.32239 0.88087 0.48713 0.0
O588 O 0.26469 0.83961 0.57209 0.0
C589 C 0.34113 0.91109 0.49151 0.0
H590 H 0.36074 0.83306 0.63461 0.0
H591 H 0.24455 0.93139 0.44371 0.0
H592 H 0.22205 0.89676 0.68704 0.0
H593 H 0.31922 0.96725 0.70708 0.0
C594 C 0.26905 0.23961 0.22301 0.0
C595 C 0.27589 0.26743 0.19069 0.0
C596 C 0.33143 0.28822 0.21287 0.0
C597 C 0.32418 0.26404 0.25509 0.0
N598 N 0.28441 0.21813 0.30712 0.0
N599 N 0.31407 0.32273 0.17946 0.0
C600 C 0.29249 0.23995 0.26206 0.0
C601 C 0.30727 0.29301 0.1921 0.0
N602 N 0.24112 0.21268 0.21563 0.0
N603 N 0.36161 0.3076 0.1947 0.0
H604 H 0.29686 0.32874 0.17553 0.0
H605 H 0.33657 0.34197 0.1835 0.0
H606 H 0.37995 0.30434 0.20867 0.0
H607 H 0.36748 0.32453 0.16086 0.0
H608 H 0.23668 0.19144 0.23405 0.0
H609 H 0.2236 0.21052 0.18639 0.0
H610 H 0.26123 0.20216 0.31825 0.0
H611 H 0.30074 0.21763 0.33648 0.0
C612 C 0.76681 1.00893 0.27854 0.0
C613 C 0.78681 1.01392 0.22822 0.0
C614 C 0.8039 0.06964 0.22884 0.0
C615 C 0.78323 0.06459 0.27837 0.0
N616 N 0.75394 0.0317 0.36362 0.0
N617 N 0.83247 0.04988 0.17217 0.0
C618 C 0.76762 0.03492 0.30767 0.0
C619 C 0.80814 0.04467 0.2091 0.0
N620 N 0.74607 0.97922 0.2968 0.0
N621 N 0.81785 0.09737 0.19798 0.0
H622 H 0.83619 0.03172 0.15937 0.0
H623 H 0.85052 0.0722 0.16123 0.0
H624 H 0.81465 0.11595 0.2097 0.0
H625 H 0.8305 0.10096 0.15761 0.0
H626 H 0.72806 0.97372 0.32798 0.0
H627 H 0.74623 0.96001 0.27809 0.0
H628 H 0.74456 1.01127 0.38941 0.0
H629 H 0.75491 0.05047 0.38705 0.0
C630 C 0.98711 0.76669 0.203 0.0
C631 C 1.01795 0.77595 0.22154 0.0
C632 C 0.99678 0.73904 0.30699 0.0
C633 C 0.9669 0.72448 0.27865 0.0
N634 N 0.9331 0.72477 0.19932 0.0
N635 N 0.05261 0.77335 0.29495 0.0
C636 C 0.96168 0.7387 0.22712 0.0
C637 C 0.02287 0.76312 0.27533 0.0
N638 N 0.9823 0.7851 0.16348 0.0
N639 N 1.00001 0.72996 0.36432 0.0
H640 H 0.07166 0.79272 0.27538 0.0
H641 H 0.05833 0.76231 0.32886 0.0
H642 H 0.98107 0.7129 0.38918 0.0
H643 H 1.02064 0.74133 0.38951 0.0
H644 H 0.96018 0.78086 0.15095 0.0
H645 H 1.00079 0.80662 0.1493 0.0
H646 H 0.92902 0.73246 0.15781 0.0
H647 H 0.91398 0.70429 0.21575 0.0
C648 C 0.75614 0.77205 0.6792 0.0
C649 C 0.73918 0.78321 0.71324 0.0
C650 C 0.78154 0.8056 0.78825 0.0
C651 C 0.7943 0.78835 0.76243 0.0
N652 N 0.79581 0.75681 0.68096 0.0
N653 N 0.73556 0.81038 0.80186 0.0
C654 C 0.78258 0.77257 0.70635 0.0
C655 C 0.75214 0.80055 0.76766 0.0
N656 N 0.74696 0.76113 0.62106 0.0
N657 N 0.79769 0.82663 0.83312 0.0
H658 H 0.71381 0.80695 0.78866 0.0
H659 H 0.74228 0.8199 0.84553 0.0
H660 H 0.81974 0.83098 0.84677 0.0
H661 H 0.79094 0.84186 0.85059 0.0
H662 H 0.75965 0.75494 0.59201 0.0
H663 H 0.72804 0.76102 0.59993 0.0
H664 H 0.78625 0.74164 0.64399 0.0
H665 H 0.81615 0.75843 0.69883 0.0
C666 C 0.24267 0.9906 0.76188 0.0
C667 C 0.26729 1.00741 0.80502 0.0
C668 C 0.27984 0.96579 0.79734 0.0
C669 C 0.262 0.95426 0.74351 0.0
N670 N 0.22903 0.95994 0.66871 0.0
N671 N 0.31753 0.01461 0.83967 0.0
C672 C 0.24384 0.96763 0.72401 0.0
C673 C 0.28815 0.99597 0.8168 0.0
N674 N 0.21788 0.99534 0.7575 0.0
N675 N 0.29115 0.94924 0.82666 0.0
H676 H 0.3283 0.03882 0.84073 0.0
H677 H 0.33316 1.00656 0.84628 0.0
H678 H 0.2852 0.92672 0.813 0.0
H679 H 0.30357 0.95688 0.86768 0.0
H680 H 0.19879 0.98179 0.7292 0.0
H681 H 0.21418 1.00953 0.78724 0.0
H682 H 0.21811 0.9715 0.65071 0.0
H683 H 0.23003 0.94417 0.63866 0.0
C684 C 1.01428 0.26256 0.72013 0.0
C685 C 1.01969 0.24815 0.77099 0.0
C686 C 0.07635 0.28329 0.75943 0.0
C687 C 0.07078 0.29835 0.70974 0.0
N688 N 0.03564 0.29518 0.63001 0.0
N689 N 0.05547 0.23711 0.82405 0.0
C690 C 0.04006 0.28551 0.68583 0.0
C691 C 0.0507 0.25598 0.78562 0.0
N692 N 0.98449 0.25519 0.70606 0.0
N693 N 0.10566 0.29589 0.78373 0.0
H694 H 0.03687 0.21625 0.84059 0.0
H695 H 0.07749 0.24024 0.83366 0.0
H696 H 0.12491 0.31577 0.76573 0.0
H697 H 0.11042 0.28786 0.82407 0.0
H698 H 0.97912 0.26763 0.67473 0.0
H699 H 0.96519 0.2373 0.72824 0.0
H700 H 1.01413 0.2848 0.60769 0.0
H701 H 0.05418 0.31145 0.60317 0.0
C702 C 0.95473 0.57234 0.50815 0.0
C703 C 0.93376 0.58051 0.53515 0.0
C704 C 0.96073 0.58753 0.63319 0.0
C705 C 0.9855 0.58648 0.60214 0.0
N706 N 1.00718 0.5807 0.50707 0.0
N707 N 0.91711 0.59666 0.62499 0.0
C708 C 0.98268 0.57927 0.53889 0.0
C709 C 0.93644 0.58779 0.59852 0.0
N710 N 0.9474 0.55721 0.4534 0.0
N711 N 0.96035 0.588 0.69575 0.0
H712 H 0.89871 0.59658 0.60175 0.0
H713 H 0.92044 0.60573 0.66915 0.0
H714 H 0.97747 0.58722 0.72229 0.0
H715 H 0.94156 0.58596 0.72112 0.0
H716 H 0.96045 0.54842 0.43311 0.0
H717 H 0.92573 0.54973 0.43353 0.0
H718 H 1.00723 0.57883 0.45952 0.0
H719 H 0.02854 0.58656 0.52717 0.0
C720 C 0.44578 0.37488 0.65972 0.0
C721 C 0.45214 0.40276 0.62867 0.0
C722 C 0.47098 0.38619 0.54084 0.0
C723 C 0.4574 0.35574 0.56539 0.0
N724 N 0.43367 0.32102 0.65047 0.0
N725 N 0.46974 0.43424 0.53671 0.0
C726 C 0.44582 0.35018 0.62609 0.0
C727 C 0.46504 0.40856 0.56875 0.0
N728 N 0.43998 0.37225 0.72127 0.0
N729 N 0.48981 0.39355 0.49076 0.0
H730 H 0.4649 0.45086 0.55447 0.0
H731 H 0.47598 0.43766 0.49056 0.0
H732 H 0.49575 0.37766 0.47337 0.0
H733 H 0.50234 0.41596 0.4724 0.0
H734 H 0.43759 0.35366 0.74756 0.0
H735 H 0.44058 0.39026 0.7471 0.0
H736 H 0.42169 0.31438 0.69198 0.0
H737 H 0.43485 0.30315 0.62762 0.0
C738 C 0.62738 0.04364 0.55345 0.0
C739 C 0.63105 0.04765 0.61744 0.0
C740 C 0.67974 0.09785 0.60292 0.0
C741 C 0.67579 0.09436 0.53807 0.0
N742 N 0.64093 0.06697 0.45367 0.0
N743 N 0.65618 0.08099 0.70386 0.0
C744 C 0.64809 0.06817 0.51417 0.0
C745 C 0.65566 0.07571 0.64232 0.0
N746 N 0.60463 0.0158 0.52987 0.0
N747 N 0.70729 0.12058 0.62733 0.0
H748 H 0.63928 0.06488 0.73375 0.0
H749 H 0.67151 0.10229 0.7243 0.0
H750 H 0.72605 0.1368 0.60129 0.0
H751 H 0.71274 0.12179 0.67367 0.0
H752 H 0.60372 1.00962 0.48399 0.0
H753 H 0.58769 0.99785 0.5568 0.0
H754 H 0.61954 0.05064 0.43474 0.0
H755 H 0.65491 0.08459 0.42369 0.0
C756 C 0.4409 0.11307 0.04475 0.0
C757 C 0.45222 0.12847 0.1014 0.0
C758 C 0.41326 0.14514 0.10123 0.0
C759 C 0.40032 0.12769 0.04698 0.0
N760 N 0.40697 0.10332 0.95722 0.0
N761 N 0.45715 0.16765 0.17172 0.0
C762 C 0.41605 0.11453 0.01526 0.0
C763 C 0.441 0.14746 0.12553 0.0
N764 N 0.45282 0.0957 0.02114 0.0
N765 N 0.39816 0.15796 0.13116 0.0
H766 H 0.47821 0.17019 0.18738 0.0
H767 H 0.45168 0.18387 0.18912 0.0
H768 H 0.37818 0.15722 0.1137 0.0
H769 H 0.40443 0.1679 0.17458 0.0
H770 H 0.44307 0.08056 0.98418 0.0
H771 H 0.4722 0.09586 0.04033 0.0
H772 H 0.41887 0.0956 0.92961 0.0
H773 H 0.38898 0.10439 0.93463 0.0
C774 C 0.94326 0.34532 0.06131 0.0
C775 C 0.92233 0.33959 0.11052 0.0
C776 C 0.90052 0.28325 0.09778 0.0
C777 C 0.92154 0.28914 0.04848 0.0
N778 N 0.95411 0.32498 0.96967 0.0
N779 N 0.87421 0.30356 0.16035 0.0
C780 C 0.94001 0.31997 0.02571 0.0
C781 C 0.89861 0.30862 0.12364 0.0
N782 N 0.96711 0.37483 0.05 0.0
N783 N 0.88374 0.254 0.12219 0.0
H784 H 0.87186 0.32201 0.17689 0.0
H785 H 0.85487 0.2815 0.16789 0.0
H786 H 0.88494 0.23497 0.10531 0.0
H787 H 0.87057 0.24921 0.16219 0.0
H788 H 0.98535 0.3799 0.01967 0.0
H789 H 0.96949 0.39397 0.07394 0.0
H790 H 0.96565 0.34681 0.94865 0.0
H791 H 0.95127 0.30677 0.94135 0.0
C792 C 0.70195 0.6334 0.11779 0.0
C793 C 0.69374 0.60151 0.11511 0.0
C794 C 0.73712 0.61729 0.04186 0.0
C795 C 0.7477 0.64932 0.05441 0.0
N796 N 0.7454 0.68575 0.12463 0.0
N797 N 0.70947 0.56459 0.08234 0.0
C798 C 0.7321 0.65652 0.10004 0.0
C799 C 0.71304 0.59368 0.0795 0.0
N800 N 0.68045 0.64188 0.13282 0.0
N801 N 0.74863 0.60913 0.99294 0.0
H802 H 0.6932 0.54696 0.11049 0.0
H803 H 0.72498 0.5591 0.06112 0.0
H804 H 0.76534 0.62543 0.96321 0.0
H805 H 0.73939 0.58603 0.97895 0.0
H806 H 0.68574 0.66508 0.13205 0.0
H807 H 0.65663 0.62572 0.13655 0.0
H808 H 0.73485 0.69119 0.16022 0.0
H809 H 0.76819 0.70315 0.11386 0.0
C810 C 0.60113 0.91992 0.96254 0.0
C811 C 0.59243 0.90595 0.90399 0.0
C812 C 0.63446 0.89351 0.90659 0.0
C813 C 0.64415 0.90868 0.96405 0.0
N814 N 0.63164 0.92795 0.05484 0.0
N815 N 0.59303 0.87025 0.8312 0.0
C816 C 0.62568 0.91905 0.99484 0.0
C817 C 0.60659 0.8896 0.87984 0.0
N818 N 0.58706 0.93538 0.9856 0.0
N819 N 0.65272 0.8845 0.87592 0.0
H820 H 0.57166 0.86618 0.81404 0.0
H821 H 0.60079 0.85585 0.81344 0.0
H822 H 0.67336 0.88699 0.89394 0.0
H823 H 0.6486 0.87658 0.83083 0.0
H824 H 0.5949 0.94949 0.02437 0.0
H825 H 0.56801 0.93488 0.96402 0.0
H826 H 0.61749 0.93333 0.08136 0.0
H827 H 0.64924 0.92718 0.07973 0.0
C828 C 0.09421 0.67455 0.94478 0.0
C829 C 0.11852 0.67924 0.904 0.0
C830 C 0.14686 0.7351 0.929 0.0
C831 C 0.12166 0.73035 0.96775 0.0
N832 N 0.07928 0.69404 0.03228 0.0
N833 N 0.17218 0.71118 0.87324 0.0
C834 C 0.09799 0.69949 0.98228 0.0
C835 C 0.1465 0.70861 0.90213 0.0
N836 N 0.0668 0.64671 0.9457 0.0
N837 N 0.16998 0.76469 0.91491 0.0
H838 H 0.172 0.69212 0.85258 0.0
H839 H 0.1941 0.73131 0.87411 0.0
H840 H 0.17004 0.78456 0.93051 0.0
H841 H 0.18825 0.7697 0.88486 0.0
H842 H 0.04692 0.64327 0.96903 0.0
H843 H 0.06346 0.62763 0.91999 0.0
H844 H 0.0633 0.67168 0.04781 0.0
H845 H 0.08234 0.71181 0.06215 0.0
C846 C 0.32419 0.41463 0.98368 0.0
C847 C 0.2944 0.40306 0.95611 0.0
C848 C 0.31769 0.44572 0.8818 0.0
C849 C 0.34759 0.45105 0.89862 0.0
N850 N 0.38045 0.4441 0.96985 0.0
N851 N 0.26163 0.40949 0.8829 0.0
C852 C 0.35122 0.43704 0.95183 0.0
C853 C 0.2906 0.41963 0.90712 0.0
N854 N 0.32638 0.40371 0.03981 0.0
N855 N 0.31555 0.46555 0.84149 0.0
H856 H 0.24147 0.39041 0.90046 0.0
H857 H 0.25762 0.4192 0.84418 0.0
H858 H 0.33549 0.48523 0.82492 0.0
H859 H 0.2946 0.46431 0.82953 0.0
H860 H 0.34713 0.41269 0.06449 0.0
H861 H 0.30665 0.38758 0.06417 0.0
H862 H 0.38469 0.43184 0.00356 0.0
H863 H 0.40053 0.46191 0.94909 0.0
C864 C 0.06612 0.45694 0.45244 0.0
C865 C 0.0575 0.4425 0.39412 0.0
C866 C 0.1015 0.43292 0.39667 0.0
C867 C 0.10938 0.44622 0.4559 0.0
N868 N 0.10707 0.48106 0.52872 0.0
N869 N 0.07248 0.42585 0.30282 0.0
C870 C 0.09409 0.46148 0.48018 0.0
C871 C 0.07708 0.4335 0.36359 0.0
N872 N 0.047 0.46502 0.48249 0.0
N873 N 0.11633 0.41835 0.37329 0.0
H874 H 0.05504 0.42647 0.27711 0.0
H875 H 0.0877 0.42183 0.27658 0.0
H876 H 0.13568 0.41954 0.39475 0.0
H877 H 0.10857 0.40419 0.33457 0.0
H878 H 0.05049 0.47257 0.52784 0.0
H879 H 0.0264 0.46217 0.46344 0.0
H880 H 0.09848 0.49475 0.54666 0.0
H881 H 0.12894 0.48638 0.54514 0.0
C882 C 0.59096 0.67031 0.41093 0.0
C883 C 0.59003 0.66766 0.47601 0.0
C884 C 0.58873 0.61742 0.46725 0.0
C885 C 0.58946 0.62011 0.40303 0.0
N886 N 0.58392 0.64451 0.31255 0.0
N887 N 0.5797 0.63423 0.56395 0.0
C888 C 0.58789 0.64498 0.37454 0.0
C889 C 0.58633 0.63979 0.50328 0.0
N890 N 0.59735 0.69771 0.38371 0.0
N891 N 0.59161 0.59403 0.49413 0.0
H892 H 0.57659 0.64946 0.59077 0.0
H893 H 0.57328 0.61312 0.58557 0.0
H894 H 0.59141 0.57593 0.46941 0.0
H895 H 0.59612 0.59354 0.54057 0.0
H896 H 0.60215 0.70219 0.33717 0.0
H897 H 0.60032 0.7171 0.40779 0.0
H898 H 0.57947 0.66023 0.28944 0.0
H899 H 0.58221 0.62654 0.28492 0.0
C900 C 0.36267 0.92955 0.38351 0.0
C901 C 0.36734 0.93101 0.44813 0.0
C902 C 0.4168 0.98104 0.43578 0.0
C903 C 0.41212 0.97936 0.37183 0.0
N904 N 0.38508 0.94944 0.28282 0.0
N905 N 0.40292 0.95485 0.53315 0.0
C906 C 0.38658 0.9526 0.34509 0.0
C907 C 0.39575 0.95571 0.4732 0.0
N908 N 0.33461 0.9079 0.35898 0.0
N909 N 0.44073 1.00757 0.46126 0.0
H910 H 0.38835 0.93681 0.56201 0.0
H911 H 0.42459 0.96997 0.55263 0.0
H912 H 0.45779 0.02596 0.43534 0.0
H913 H 0.4427 1.01233 0.50801 0.0
H914 H 0.32853 0.90822 0.31346 0.0
H915 H 0.31624 0.89085 0.38467 0.0
H916 H 0.36891 0.92912 0.26036 0.0
H917 H 0.40191 0.96623 0.25378 0.0
C918 C 0.18047 0.33532 0.387 0.0
C919 C 0.16732 0.35417 0.37249 0.0
C920 C 0.17949 0.35295 0.26353 0.0
C921 C 0.19463 0.3361 0.27863 0.0
N922 N 0.21204 0.31295 0.35367 0.0
N923 N 0.15705 0.38378 0.29896 0.0
C924 C 0.19569 0.32762 0.3402 0.0
C925 C 0.1675 0.36365 0.31111 0.0
N926 N 0.17783 0.32446 0.44546 0.0
N927 N 0.17631 0.35827 0.20328 0.0
H928 H 0.14833 0.39173 0.33333 0.0
H929 H 0.15911 0.3943 0.25665 0.0
H930 H 0.18531 0.35099 0.16782 0.0
H931 H 0.16297 0.36777 0.188 0.0
H932 H 0.18424 0.30831 0.45868 0.0
H933 H 0.16744 0.33046 0.48047 0.0
H934 H 0.21647 0.30851 0.398 0.0
H935 H 0.22264 0.30653 0.3198 0.0
C936 C 0.67565 0.80789 0.32875 0.0
C937 C 0.6837 0.81658 0.39069 0.0
C938 C 0.712 0.872 0.3614 0.0
C939 C 0.70216 0.86344 0.30001 0.0
N940 N 0.67423 0.82397 0.22403 0.0
N941 N 0.70746 0.85613 0.46811 0.0
C942 C 0.68386 0.83149 0.28336 0.0
C943 C 0.70148 0.84849 0.40754 0.0
N944 N 0.66083 0.77696 0.31368 0.0
N945 N 0.73169 0.9027 0.37509 0.0
H946 H 0.70068 0.83938 0.50254 0.0
H947 H 0.7175 0.87877 0.48497 0.0
H948 H 0.73913 0.92022 0.34223 0.0
H949 H 0.74226 0.91075 0.41752 0.0
H950 H 0.65625 0.76852 0.26903 0.0
H951 H 0.65454 0.75949 0.3465 0.0
H952 H 0.65843 0.80151 0.2091 0.0
H953 H 0.68134 0.84068 0.18942 0.0
C954 C 0.1985 0.85444 0.28465 0.0
C955 C 0.16666 0.84098 0.30211 0.0
C956 C 0.18237 0.85629 0.40897 0.0
C957 C 0.21416 0.87063 0.39106 0.0
N958 N 0.25324 0.88749 0.31247 0.0
N959 N 0.12791 0.83222 0.3778 0.0
C960 C 0.22242 0.8709 0.32889 0.0
C961 C 0.15851 0.84292 0.36352 0.0
N962 N 0.20564 0.85068 0.22596 0.0
N963 N 0.17523 0.85485 0.46978 0.0
H964 H 0.11025 0.82227 0.3451 0.0
H965 H 0.12021 0.83505 0.42039 0.0
H966 H 0.19241 0.86488 0.50357 0.0
H967 H 0.15263 0.8423 0.48729 0.0
H968 H 0.22807 0.85708 0.21115 0.0
H969 H 0.18859 0.83944 0.19239 0.0
H970 H 0.26112 0.89124 0.26736 0.0
H971 H 0.27103 0.8994 0.34442 0.0
C972 C 0.87182 0.6825 0.72063 0.0
C973 C 0.85125 0.69334 0.70402 0.0
C974 C 0.85976 0.68746 0.59499 0.0
C975 C 0.87893 0.675 0.61163 0.0
N976 N 0.90182 0.65824 0.6886 0.0
N977 N 0.8229 0.70352 0.6271 0.0
C978 C 0.88473 0.67204 0.67415 0.0
C979 C 0.84447 0.69508 0.64152 0.0
N980 N 0.87875 0.68218 0.78107 0.0
N981 N 0.85711 0.69287 0.53454 0.0
H982 H 0.81213 0.71001 0.66031 0.0
H983 H 0.8143 0.70241 0.58314 0.0
H984 H 0.8681 0.68746 0.4998 0.0
H985 H 0.84594 0.70456 0.51884 0.0
H986 H 0.89567 0.67734 0.79694 0.0
H987 H 0.86829 0.6882 0.81583 0.0
H988 H 0.90504 0.65272 0.73292 0.0
H989 H 0.91159 0.65069 0.65519 0.0
C990 C 0.3409 0.15084 0.65746 0.0
C991 C 0.34608 0.16093 0.71922 0.0
C992 C 0.36593 0.21503 0.68582 0.0
C993 C 0.36262 0.20528 0.62392 0.0
N994 N 0.34792 0.1647 0.54934 0.0
N995 N 0.36581 0.20213 0.79349 0.0
C996 C 0.35034 0.17331 0.60938 0.0
C997 C 0.35922 0.19296 0.73375 0.0
N998 N 0.32619 0.11957 0.64538 0.0
N999 N 0.37449 0.24526 0.69832 0.0
H1000 H 0.36048 0.18625 0.82923 0.0
H1001 H 0.37806 0.22533 0.80748 0.0
H1002 H 0.37914 0.26154 0.66373 0.0
H1003 H 0.37488 0.25374 0.74211 0.0
H1004 H 0.31919 0.1099 0.60198 0.0
H1005 H 0.31932 0.10287 0.67999 0.0
H1006 H 0.34219 0.14252 0.53456 0.0
H1007 H 0.35288 0.18046 0.51366 0.0
C1008 C 0.85612 0.16894 0.59472 0.0
C1009 C 0.82396 0.15378 0.61066 0.0
C1010 C 0.83793 0.16836 0.71843 0.0
C1011 C 0.8701 0.18263 0.70278 0.0
N1012 N 0.91009 0.19297 0.62886 0.0
N1013 N 0.78371 0.135 0.68702 0.0
C1014 C 0.87924 0.18178 0.64163 0.0
C1015 C 0.81472 0.1524 0.67249 0.0
N1016 N 0.86441 0.17184 0.53433 0.0
N1017 N 0.82977 0.17047 0.77727 0.0
H1018 H 0.76655 0.12313 0.65389 0.0
H1019 H 0.77509 0.13054 0.73159 0.0
H1020 H 0.84623 0.18075 0.81218 0.0
H1021 H 0.80704 0.16343 0.79116 0.0
H1022 H 0.88725 0.18538 0.51851 0.0
H1023 H 0.848 0.1622 0.49919 0.0
H1024 H 0.91842 0.19061 0.5866 0.0
H1025 H 0.92733 0.20274 0.66237 0.0
C1026 C 0.50948 0.0352 0.97373 0.0
C1027 C 0.50822 0.02907 0.03738 0.0
C1028 C 0.53481 0.9991 0.02069 0.0
C1029 C 0.53704 1.00616 0.95734 0.0
N1030 N 0.52951 0.03273 0.87314 0.0
N1031 N 0.52069 1.00717 0.12326 0.0
C1032 C 0.52511 0.0247 0.93372 0.0
C1033 C 0.52125 1.01156 0.06138 0.0
N1034 N 0.49517 0.05069 0.95191 0.0
N1035 N 0.54525 0.97994 0.04119 0.0
H1036 H 0.51005 0.0153 0.1535 0.0
H1037 H 0.53175 0.99678 0.14531 0.0
H1038 H 0.55562 0.97108 0.01209 0.0
H1039 H 0.54249 0.97156 0.08577 0.0
H1040 H 0.4925 0.05376 0.90565 0.0
H1041 H 0.48456 0.05941 0.98076 0.0
H1042 H 0.52401 0.04838 0.85311 0.0
H1043 H 0.5403 0.02471 0.84298 0.0
C1044 C 0.03489 0.54186 0.01082 0.0
C1045 C 0.02809 0.53242 0.9488 0.0
C1046 C 1.00048 0.47738 0.98065 0.0
C1047 C 1.00899 0.48675 0.04226 0.0
N1048 N 0.03529 0.52735 0.11705 0.0
N1049 N 1.00795 0.49183 0.87301 0.0
C1050 C 0.02656 0.51891 0.05757 0.0
C1051 C 1.01175 0.50029 0.93332 0.0
N1052 N 0.04833 0.57279 0.02487 0.0
N1053 N 0.98121 0.44651 0.96777 0.0
H1054 H 1.01578 0.50812 0.83757 0.0
H1055 H 0.99917 0.46903 0.85784 0.0
H1056 H 0.97306 0.4294 0.00154 0.0
H1057 H 0.97146 0.43804 0.92489 0.0
H1058 H 0.0512 0.58148 0.06922 0.0
H1059 H 0.05508 0.58989 0.99132 0.0
H1060 H 0.05098 0.55003 0.13101 0.0
H1061 H 0.02773 0.51122 0.15278 0.0
C1062 C 0.49066 0.49944 0.01876 0.0
C1063 C 0.49908 0.5054 0.95609 0.0
C1064 C 0.55387 0.54104 0.98481 0.0
C1065 C 0.54507 0.53614 0.04735 0.0
N1066 N 0.50518 0.51416 0.12491 0.0
N1067 N 0.5375 0.53263 0.87791 0.0
C1068 C 0.51343 0.5163 0.06459 0.0
C1069 C 0.53043 0.52655 0.93868 0.0
N1070 N 0.46093 0.47705 0.03416 0.0
N1071 N 0.58479 0.55923 0.97016 0.0
H1072 H 0.52093 0.52132 0.84353 0.0
H1073 H 0.55919 0.5496 0.86129 0.0
H1074 H 0.60203 0.57061 0.0034 0.0
H1075 H 0.59368 0.56208 0.92595 0.0
H1076 H 0.45378 0.46892 0.07854 0.0
H1077 H 0.44366 0.46498 0.00151 0.0
H1078 H 0.48218 0.50272 0.14051 0.0
H1079 H 0.52142 0.52571 0.15961 0.0
C1080 C 0.21456 0.16093 0.94646 0.0
C1081 C 0.23523 0.19066 0.97169 0.0
C1082 C 0.27578 0.17631 0.98135 0.0
C1083 C 0.25565 0.14697 0.95301 0.0
N1084 N 0.20868 0.11523 0.89412 0.0
N1085 N 0.28795 0.22969 0.99703 0.0
C1086 C 0.22597 0.14053 0.93068 0.0
C1087 C 0.26658 0.19923 0.98455 0.0
N1088 N 0.18362 0.15163 0.94022 0.0
N1089 N 0.30372 0.18239 0.00569 0.0
H1090 H 0.28226 0.24727 0.997 0.0
H1091 H 0.31187 0.2381 0.00087 0.0
H1092 H 0.31258 0.16743 0.00093 0.0
H1093 H 0.3173 0.20154 0.0337 0.0
H1094 H 0.16663 0.12901 0.92819 0.0
H1095 H 0.17448 0.16573 0.9529 0.0
H1096 H 0.18822 0.11108 0.87233 0.0
H1097 H 0.21637 0.10021 0.8799 0.0
C1098 C 0.85413 0.08735 0.89326 0.0
C1099 C 0.87588 0.11262 0.93044 0.0
C1100 C 0.86792 0.07542 0.01214 0.0
C1101 C 0.84334 0.0511 0.9786 0.0
N1102 N 0.81 0.03427 0.8903 0.0
N1103 N 0.89614 0.1308 0.03216 0.0
C1104 C 0.83549 0.05722 0.92 0.0
C1105 C 0.88086 0.10673 0.99186 0.0
N1106 N 0.85218 0.09172 0.83198 0.0
N1107 N 0.87977 0.06848 0.06208 0.0
H1108 H 0.90408 0.15399 0.02034 0.0
H1109 H 0.89787 0.12729 0.07876 0.0
H1110 H 0.87147 0.04555 0.07631 0.0
H1111 H 0.89961 0.0852 0.08521 0.0
H1112 H 0.83883 0.07355 0.80177 0.0
H1113 H 0.86631 0.11299 0.81009 0.0
H1114 H 0.80109 0.03806 0.85008 0.0
H1115 H 0.79625 1.01201 0.90888 0.0
C1116 C 0.97025 0.81618 0.01588 0.0
C1117 C 0.98357 0.8006 0.98499 0.0
C1118 C 0.93298 0.76573 0.93577 0.0
C1119 C 0.91986 0.78251 0.964 0.0
N1120 N 0.92809 0.82725 0.02377 0.0
N1121 N 0.97987 0.76368 0.91003 0.0
C1122 C 0.93904 0.80861 0.00238 0.0
C1123 C 0.96553 0.7763 0.94322 0.0
N1124 N 0.9875 0.83804 0.0592 0.0
N1125 N 0.9141 0.73878 0.90455 0.0
H1126 H 1.00339 0.77053 0.91619 0.0
H1127 H 0.9693 0.74826 0.87376 0.0
H1128 H 0.89024 0.72992 0.89861 0.0
H1129 H 0.92147 0.72374 0.88862 0.0
H1130 H 0.97818 0.84738 0.08965 0.0
H1131 H 1.01088 0.8452 0.06799 0.0
H1132 H 0.94213 0.8487 0.04488 0.0
H1133 H 0.9055 0.82281 0.01642 0.0
C1134 C 0.79063 0.87789 0.0091 0.0
C1135 C 0.78164 0.87189 0.07156 0.0
C1136 C 0.80098 0.83482 0.07486 0.0
C1137 C 0.81294 0.84367 0.01462 0.0
N1138 N 0.82699 0.88089 0.93217 0.0
N1139 N 0.78361 0.84868 0.16752 0.0
C1140 C 0.81029 0.86751 0.98419 0.0
C1141 C 0.78815 0.85131 0.10554 0.0
N1142 N 0.77881 0.89167 0.97206 0.0
N1143 N 0.80236 0.81097 0.103 0.0
H1144 H 0.77558 0.86133 0.19202 0.0
H1145 H 0.79064 0.83633 0.19551 0.0
H1146 H 0.81336 0.79987 0.08316 0.0
H1147 H 0.791 0.80101 0.14412 0.0
H1148 H 0.7824 0.89373 0.92481 0.0
H1149 H 0.76273 0.89793 0.98724 0.0
H1150 H 0.82811 0.90052 0.91213 0.0
H1151 H 0.84169 0.87414 0.91191 0.0
C1152 C 0.18211 0.94649 0.98272 0.0
C1153 C 0.19691 0.97184 0.0241 0.0
C1154 C 0.17721 0.93559 0.11112 0.0
C1155 C 0.16383 0.90995 0.06976 0.0
N1156 N 0.15755 0.89055 0.96637 0.0
N1157 N 0.21264 0.99122 0.12606 0.0
C1158 C 0.16728 0.91527 0.00548 0.0
C1159 C 0.19561 0.96651 0.08791 0.0
N1160 N 0.18176 0.95246 0.92174 0.0
N1161 N 0.17138 0.93043 0.17248 0.0
H1162 H 0.22592 1.01406 0.10994 0.0
H1163 H 0.21558 0.98898 0.17261 0.0
H1164 H 0.15791 0.9082 0.19103 0.0
H1165 H 0.17772 0.94813 0.20457 0.0
H1166 H 0.16869 0.93538 0.88942 0.0
H1167 H 0.19311 0.97507 0.90394 0.0
H1168 H 0.16223 0.89291 0.91958 0.0
H1169 H 0.14665 0.86744 0.98135 0.0
C1170 C 0.10733 0.22179 0.99954 0.0
C1171 C 0.12389 0.24923 0.03532 0.0
C1172 C 0.07547 0.25107 0.0491 0.0
C1173 C 0.05995 0.22573 0.00789 0.0
N1174 N 0.06117 0.18865 0.93889 0.0
N1175 N 0.12476 0.29106 0.09289 0.0
C1176 C 0.07588 0.21141 0.98206 0.0
C1177 C 0.10816 0.26405 0.06028 0.0
N1178 N 0.12169 0.20544 0.98315 0.0
N1179 N 0.05863 0.26223 0.07809 0.0
H1180 H 0.1483 0.30024 0.10398 0.0
H1181 H 0.11575 0.30503 0.10686 0.0
H1182 H 0.03486 0.25331 0.06968 0.0
H1183 H 0.0675 0.27877 0.11296 0.0
H1184 H 0.11025 0.18375 0.96176 0.0
H1185 H 0.14455 0.21229 0.99616 0.0
H1186 H 0.07233 0.17941 0.91319 0.0
H1187 H 0.03817 0.18065 0.92519 0.0
C1188 C 0.90719 0.51823 0.23944 0.0
C1189 C 0.89825 0.51576 0.30165 0.0
C1190 C 0.91935 0.48116 0.3213 0.0
C1191 C 0.92602 0.48152 0.25792 0.0
N1192 N 0.92146 0.49619 0.15469 0.0
N1193 N 0.89007 0.49022 0.39944 0.0
C1194 C 0.91866 0.49898 0.21636 0.0
C1195 C 0.90243 0.49566 0.34177 0.0
N1196 N 0.90477 0.53916 0.20262 0.0
N1197 N 0.93091 0.46882 0.3626 0.0
H1198 H 0.87866 0.50136 0.41708 0.0
H1199 H 0.88925 0.47306 0.42821 0.0
H1200 H 0.94438 0.45897 0.34996 0.0
H1201 H 0.92974 0.47104 0.40984 0.0
H1202 H 0.91399 0.54476 0.15851 0.0
H1203 H 0.89523 0.55254 0.21794 0.0
H1204 H 0.91374 0.50597 0.12181 0.0
H1205 H 0.92895 0.48169 0.13604 0.0
C1206 C 0.52597 0.42893 0.22327 0.0
C1207 C 0.54922 0.45423 0.25834 0.0
C1208 C 0.53925 0.41801 0.34369 0.0
C1209 C 0.5136 0.39386 0.31151 0.0
N1210 N 0.48027 0.37673 0.22329 0.0
N1211 N 0.57247 0.47356 0.35802 0.0
C1212 C 0.50618 0.39958 0.25215 0.0
C1213 C 0.5545 0.44898 0.32019 0.0
N1214 N 0.52384 0.43246 0.16167 0.0
N1215 N 0.54953 0.41128 0.39632 0.0
H1216 H 0.58296 0.49679 0.34438 0.0
H1217 H 0.57423 0.47104 0.40499 0.0
H1218 H 0.53888 0.38897 0.41521 0.0
H1219 H 0.57023 0.42721 0.41812 0.0
H1220 H 0.50934 0.41417 0.13267 0.0
H1221 H 0.5389 0.45298 0.13826 0.0
H1222 H 0.47153 0.3803 0.18263 0.0
H1223 H 0.46616 0.35472 0.24264 0.0
C1224 C 0.58608 0.10197 0.33756 0.0
C1225 C 0.57764 0.11343 0.28558 0.0
C1226 C 0.63338 0.14161 0.25567 0.0
C1227 C 0.64156 0.13446 0.31296 0.0
N1228 N 0.62522 0.11602 0.41584 0.0
N1229 N 0.59613 0.15015 0.20025 0.0
C1230 C 0.61779 0.11683 0.35605 0.0
C1231 C 0.60199 0.13466 0.24531 0.0
N1232 N 0.56411 0.07635 0.36864 0.0
N1233 N 0.65577 0.15539 0.21147 0.0
H1234 H 0.57447 0.14813 0.19269 0.0
H1235 H 0.61381 0.16791 0.17427 0.0
H1236 H 0.67886 0.16091 0.21857 0.0
H1237 H 0.65073 0.15855 0.16659 0.0
H1238 H 0.56993 0.0663 0.40447 0.0
H1239 H 0.54106 0.06292 0.35353 0.0
H1240 H 0.60827 0.10549 0.44996 0.0
H1241 H 0.64812 0.12867 0.43204 0.0
C1242 C 0.45234 0.16839 0.40275 0.0
C1243 C 0.47085 0.17943 0.349 0.0
C1244 C 0.45805 0.22118 0.34054 0.0
C1245 C 0.44182 0.21198 0.3975 0.0
N1246 N 0.42898 0.18027 0.48877 0.0
N1247 N 0.49665 0.22036 0.27388 0.0
C1248 C 0.44028 0.18636 0.43014 0.0
C1249 C 0.47545 0.20713 0.32033 0.0
N1250 N 0.44668 0.14086 0.42811 0.0
N1251 N 0.45544 0.24194 0.30338 0.0
H1252 H 0.5087 0.21022 0.25493 0.0
H1253 H 0.50391 0.24263 0.25693 0.0
H1254 H 0.4423 0.25229 0.31444 0.0
H1255 H 0.46369 0.24651 0.25847 0.0
H1256 H 0.43048 0.12955 0.46303 0.0
H1257 H 0.45683 0.12828 0.41146 0.0
H1258 H 0.42998 0.16389 0.51701 0.0
H1259 H 0.42141 0.19372 0.51171 0.0
C1260 C 0.81923 0.24585 0.34163 0.0
C1261 C 0.8238 0.23851 0.40247 0.0
C1262 C 0.86611 0.29295 0.41589 0.0
C1263 C 0.85942 0.30063 0.35765 0.0
N1264 N 0.82446 0.28638 0.27217 0.0
N1265 N 0.84691 0.25741 0.50215 0.0
C1266 C 0.8344 0.27764 0.32262 0.0
C1267 C 0.84601 0.26275 0.44097 0.0
N1268 N 0.80196 0.22263 0.30064 0.0
N1269 N 0.89204 0.31448 0.44678 0.0
H1270 H 0.83142 0.23624 0.52309 0.0
H1271 H 0.86066 0.27494 0.53326 0.0
H1272 H 0.90706 0.33673 0.42932 0.0
H1273 H 0.90006 0.30936 0.48674 0.0
H1274 H 0.80054 0.22689 0.25435 0.0
H1275 H 0.79184 0.19899 0.31093 0.0
H1276 H 0.80434 0.27111 0.24794 0.0
H1277 H 0.83472 0.30963 0.25833 0.0
C1278 C 0.74341 0.56026 0.39196 0.0
C1279 C 0.73533 0.56645 0.33345 0.0
C1280 C 0.79105 0.60036 0.31151 0.0
C1281 C 0.79911 0.58847 0.36336 0.0
N1282 N 0.78066 0.55326 0.45086 0.0
N1283 N 0.75262 0.58817 0.23229 0.0
C1284 C 0.77476 0.56763 0.40368 0.0
C1285 C 0.75944 0.58559 0.29181 0.0
N1286 N 0.72118 0.54781 0.43677 0.0
N1287 N 0.81347 0.62616 0.28156 0.0
H1288 H 0.73011 0.57567 0.21437 0.0
H1289 H 0.76985 0.59985 0.19915 0.0
H1290 H 0.8365 0.63891 0.29709 0.0
H1291 H 0.80822 0.63697 0.24631 0.0
H1292 H 0.72629 0.54538 0.48203 0.0
H1293 H 0.6984 0.54331 0.43006 0.0
H1294 H 0.76291 0.53532 0.47642 0.0
H1295 H 0.8027 0.55695 0.4617 0.0
C1296 C 0.59027 0.81317 0.66615 0.0
C1297 C 0.60091 0.81886 0.60439 0.0
C1298 C 0.58409 0.85782 0.59631 0.0
C1299 C 0.57073 0.84961 0.65561 0.0
N1300 N 0.55406 0.81332 0.74015 0.0
N1301 N 0.60178 0.84215 0.50661 0.0
C1302 C 0.5715 0.82529 0.68828 0.0
C1303 C 0.59628 0.84012 0.56828 0.0
N1304 N 0.59967 0.79796 0.70528 0.0
N1305 N 0.58472 0.88231 0.56646 0.0
H1306 H 0.609 0.82841 0.4837 0.0
H1307 H 0.5961 0.85504 0.47711 0.0
H1308 H 0.57439 0.89448 0.58442 0.0
H1309 H 0.59715 0.89176 0.52606 0.0
H1310 H 0.59497 0.79602 0.75213 0.0
H1311 H 0.61529 0.79064 0.69291 0.0
H1312 H 0.55121 0.79329 0.7617 0.0
H1313 H 0.54034 0.82168 0.75883 0.0
C1314 C 0.22526 0.76708 0.59172 0.0
C1315 C 0.22803 0.79218 0.62824 0.0
C1316 C 0.18627 0.75418 0.69624 0.0
C1317 C 0.18405 0.72917 0.66074 0.0
N1318 N 0.19416 0.71204 0.56529 0.0
N1319 N 0.20347 0.80923 0.70218 0.0
C1320 C 0.20126 0.73584 0.60533 0.0
C1321 C 0.20599 0.78553 0.67621 0.0
N1322 N 0.2464 0.77258 0.54623 0.0
N1323 N 0.17108 0.74835 0.75109 0.0
H1324 H 0.21721 0.83235 0.68873 0.0
H1325 H 0.18556 0.80568 0.73211 0.0
H1326 H 0.15675 0.72608 0.76836 0.0
H1327 H 0.17439 0.76579 0.78177 0.0
H1328 H 0.24805 0.7549 0.52391 0.0
H1329 H 0.26354 0.79481 0.53269 0.0
H1330 H 0.20357 0.71537 0.52138 0.0
H1331 H 0.17626 0.68923 0.57394 0.0
C1332 C 0.25091 0.41621 0.65934 0.0
C1333 C 0.24251 0.43403 0.62118 0.0
C1334 C 0.29857 0.47089 0.60449 0.0
C1335 C 0.30621 0.45745 0.65393 0.0
N1336 N 0.28844 0.41683 0.73086 0.0
N1337 N 0.25972 0.4796 0.55621 0.0
C1338 C 0.28217 0.42962 0.68143 0.0
C1339 C 0.26668 0.46143 0.59234 0.0
N1340 N 0.22895 0.38619 0.67385 0.0
N1341 N 0.32211 0.49265 0.5687 0.0
H1342 H 0.23721 0.47367 0.54334 0.0
H1343 H 0.27652 0.50183 0.54155 0.0
H1344 H 0.34549 0.49924 0.57599 0.0
H1345 H 0.31823 0.5014 0.52837 0.0
H1346 H 0.2342 0.37095 0.69665 0.0
H1347 H 0.2062 0.37543 0.65664 0.0
H1348 H 0.27117 0.39818 0.75574 0.0
H1349 H 0.31041 0.42612 0.75062 0.0
C1350 C 0.1269 0.54758 0.67563 0.0
C1351 C 0.11266 0.54192 0.7345 0.0
C1352 C 0.12269 0.49839 0.74912 0.0
C1353 C 0.13888 0.50564 0.69263 0.0
N1354 N 0.16196 0.54102 0.60769 0.0
N1355 N 0.10322 0.51616 0.83265 0.0
C1356 C 0.14281 0.53154 0.65779 0.0
C1357 C 0.11219 0.51838 0.77271 0.0
N1358 N 0.12365 0.56673 0.63499 0.0
N1359 N 0.11747 0.47233 0.78032 0.0
H1360 H 0.09689 0.53129 0.85263 0.0
H1361 H 0.10509 0.50148 0.8643 0.0
H1362 H 0.12618 0.45817 0.76547 0.0
H1363 H 0.1028 0.46361 0.81831 0.0
H1364 H 0.13044 0.56883 0.58925 0.0
H1365 H 0.11143 0.57823 0.64481 0.0
H1366 H 0.16872 0.56189 0.58475 0.0
H1367 H 0.17292 0.52915 0.59155 0.0
C1368 C 0.48552 0.59566 0.75594 0.0
C1369 C 0.47866 0.57431 0.70626 0.0
C1370 C 0.51241 0.61862 0.64008 0.0
C1371 C 0.52263 0.63904 0.69102 0.0
N1372 N 0.52245 0.64629 0.79942 0.0
N1373 N 0.4949 0.56611 0.60658 0.0
C1374 C 0.51051 0.62717 0.74977 0.0
C1375 C 0.49492 0.58596 0.64996 0.0
N1376 N 0.46694 0.587 0.80689 0.0
N1377 N 0.51801 0.63029 0.58195 0.0
H1378 H 0.48491 0.54218 0.61403 0.0
H1379 H 0.50837 0.57405 0.56678 0.0
H1380 H 0.53026 0.65416 0.57264 0.0
H1381 H 0.50839 0.61616 0.54347 0.0
H1382 H 0.46955 0.60262 0.84144 0.0
H1383 H 0.44665 0.56545 0.81185 0.0
H1384 H 0.51673 0.63831 0.84437 0.0
H1385 H 0.54014 0.66958 0.79533 0.0
C1386 C 0.41008 0.88844 0.73681 0.0
C1387 C 0.40282 0.89334 0.67671 0.0
C1388 C 0.4586 0.92515 0.65445 0.0
C1389 C 0.46627 0.91573 0.71022 0.0
N1390 N 0.44677 0.88311 0.80141 0.0
N1391 N 0.42066 0.90832 0.5731 0.0
C1392 C 0.4414 0.89623 0.75129 0.0
C1393 C 0.4272 0.9095 0.63399 0.0
N1394 N 0.38683 0.87579 0.77961 0.0
N1395 N 0.48104 0.94961 0.62149 0.0
H1396 H 0.39795 0.89546 0.55601 0.0
H1397 H 0.43809 0.91762 0.53964 0.0
H1398 H 0.50385 0.96359 0.63746 0.0
H1399 H 0.47579 0.95831 0.58258 0.0
H1400 H 0.39099 0.87433 0.82594 0.0
H1401 H 0.36376 0.86934 0.76922 0.0
H1402 H 0.42882 0.86634 0.8285 0.0
H1403 H 0.4685 0.88625 0.81312 0.0
loop_
_geom_bond_atom_site_label_1
_geom_bond_atom_site_label_2
_geom_bond_distance
_geom_bond_site_symmetry_2
_ccdc_geom_bond_type
Co0 N4 2.148 . S
Co0 N10 2.128 . S
Co0 N20 2.194 . S
Co0 O25 2.351 . S
Co0 O26 2.155 . S
Co0 O27 2.096 . S
C1 N4 1.301 . S
C1 N5 1.328 . S
C1 H6 0.930 . S
C2 C3 1.333 . S
C2 N4 1.317 . S
C2 H7 0.930 . S
C3 C2 1.333 . S
C3 N5 1.350 . S
C3 H29 0.931 1_554 S
N4 Co0 2.148 . S
N4 C1 1.301 . S
N4 C2 1.317 . S
N5 C1 1.328 . S
N5 C3 1.350 . S
H6 C1 0.930 . S
H7 C2 0.930 . S
C8 O9 1.224 . S
C8 O27 1.247 . S
O9 C8 1.224 . S
N10 Co0 2.128 . S
N10 C11 1.355 . S
N10 C13 1.311 . S
C11 N10 1.355 . S
C11 C12 1.363 . S
C11 H23 0.929 . S
C12 C11 1.363 . S
C12 N14 1.375 . S
C12 H30 0.931 . S
C13 N10 1.311 . S
C13 N14 1.347 . S
C13 H24 0.929 . S
N14 C12 1.375 . S
N14 C13 1.347 . S
C15 C18 1.365 . S
C15 N20 1.328 . S
C15 H21 0.929 . S
C16 C17 1.362 . S
C16 C19 1.378 1_556 S
C16 H31 0.929 . S
C17 C16 1.362 . S
C17 C18 1.366 1_556 S
C18 C15 1.365 . S
C18 C17 1.366 1_554 S
C18 H32 0.930 . S
C19 C16 1.378 1_554 S
C19 N20 1.315 . S
C19 H22 0.930 . S
N20 Co0 2.194 . S
N20 C15 1.328 . S
N20 C19 1.315 . S
H21 C15 0.929 . S
H22 C19 0.930 . S
H23 C11 0.929 . S
H24 C13 0.929 . S
O25 Co0 2.351 . S
O25 C28 1.244 . S
O26 Co0 2.155 . S
O26 C28 1.240 . S
O27 Co0 2.096 . S
O27 C8 1.247 . S
C28 O25 1.244 . S
C28 O26 1.240 . S
H29 C3 0.931 1_556 S
H30 C12 0.931 . S
H31 C16 0.929 . S
H32 C18 0.930 . S
Co33 N37 2.148 . S
Co33 N43 2.128 . S
Co33 N53 2.194 . S
Co33 O58 2.351 . S
Co33 O59 2.155 . S
Co33 O60 2.096 . S
C34 N37 1.301 1_545 S
C34 N38 1.328 . S
C34 H39 0.930 . S
C35 C36 1.333 1_565 S
C35 N37 1.317 . S
C35 H40 0.930 . S
C36 C35 1.333 1_545 S
C36 N38 1.350 . S
C36 H62 0.931 1_554 S
N37 Co33 2.148 . S
N37 C34 1.301 1_565 S
N37 C35 1.317 . S
N38 C34 1.328 . S
N38 C36 1.350 . S
H39 C34 0.930 . S
H40 C35 0.930 . S
C41 O42 1.224 . S
C41 O60 1.247 . S
O42 C41 1.224 . S
N43 Co33 2.128 . S
N43 C44 1.355 . S
N43 C46 1.311 . S
C44 N43 1.355 . S
C44 C45 1.363 . S
C44 H56 0.929 . S
C45 C44 1.363 . S
C45 N47 1.375 . S
C45 H63 0.931 . S
C46 N43 1.311 . S
C46 N47 1.347 . S
C46 H57 0.929 . S
N47 C45 1.375 . S
N47 C46 1.347 . S
C48 C51 1.365 . S
C48 N53 1.328 . S
C48 H54 0.929 . S
C49 C50 1.362 . S
C49 C52 1.378 1_556 S
C49 H64 0.929 . S
C50 C49 1.362 . S
C50 C51 1.366 1_556 S
C51 C48 1.365 . S
C51 C50 1.366 1_554 S
C51 H65 0.930 . S
C52 C49 1.378 1_554 S
C52 N53 1.315 . S
C52 H55 0.930 . S
N53 Co33 2.194 . S
N53 C48 1.328 . S
N53 C52 1.315 . S
H54 C48 0.929 . S
H55 C52 0.930 . S
H56 C44 0.929 . S
H57 C46 0.929 . S
O58 Co33 2.351 . S
O58 C61 1.244 . S
O59 Co33 2.155 . S
O59 C61 1.240 . S
O60 Co33 2.096 . S
O60 C41 1.247 . S
C61 O58 1.244 . S
C61 O59 1.240 . S
H62 C36 0.931 1_556 S
H63 C45 0.931 . S
H64 C49 0.929 . S
H65 C51 0.930 . S
Co66 N70 2.148 . S
Co66 N76 2.128 . S
Co66 N86 2.194 . S
Co66 O91 2.351 . S
Co66 O92 2.155 . S
Co66 O93 2.096 . S
C67 N70 1.301 1_655 S
C67 N71 1.328 . S
C67 H72 0.930 . S
C68 C69 1.333 1_455 S
C68 N70 1.317 . S
C68 H73 0.930 . S
C69 C68 1.333 1_655 S
C69 N71 1.350 . S
C69 H95 0.931 1_554 S
N70 Co66 2.148 . S
N70 C67 1.301 1_455 S
N70 C68 1.317 . S
N71 C67 1.328 . S
N71 C69 1.350 . S
H72 C67 0.930 . S
H73 C68 0.930 . S
C74 O75 1.224 . S
C74 O93 1.247 . S
O75 C74 1.224 . S
N76 Co66 2.128 . S
N76 C77 1.355 . S
N76 C79 1.311 . S
C77 N76 1.355 . S
C77 C78 1.363 . S
C77 H89 0.929 . S
C78 C77 1.363 . S
C78 N80 1.375 . S
C78 H96 0.931 . S
C79 N76 1.311 . S
C79 N80 1.347 . S
C79 H90 0.929 . S
N80 C78 1.375 . S
N80 C79 1.347 . S
C81 C84 1.365 . S
C81 N86 1.328 . S
C81 H87 0.929 . S
C82 C83 1.362 . S
C82 C85 1.378 1_556 S
C82 H97 0.929 . S
C83 C82 1.362 . S
C83 C84 1.366 1_556 S
C84 C81 1.365 . S
C84 C83 1.366 1_554 S
C84 H98 0.930 . S
C85 C82 1.378 1_554 S
C85 N86 1.315 . S
C85 H88 0.930 . S
N86 Co66 2.194 . S
N86 C81 1.328 . S
N86 C85 1.315 . S
H87 C81 0.929 . S
H88 C85 0.930 . S
H89 C77 0.929 . S
H90 C79 0.929 . S
O91 Co66 2.351 . S
O91 C94 1.244 . S
O92 Co66 2.155 . S
O92 C94 1.240 . S
O93 Co66 2.096 . S
O93 C74 1.247 . S
C94 O91 1.244 . S
C94 O92 1.240 . S
H95 C69 0.931 1_556 S
H96 C78 0.931 . S
H97 C82 0.929 . S
H98 C84 0.930 . S
Co99 N103 2.148 . S
Co99 N109 2.128 . S
Co99 N119 2.194 . S
Co99 O124 2.351 . S
Co99 O125 2.155 . S
Co99 O126 2.096 . S
C100 N103 1.301 . S
C100 N104 1.328 . S
C100 H105 0.930 . S
C101 C102 1.333 . S
C101 N103 1.317 . S
C101 H106 0.930 . S
C102 C101 1.333 . S
C102 N104 1.350 . S
C102 H128 0.931 1_556 S
N103 Co99 2.148 . S
N103 C100 1.301 . S
N103 C101 1.317 . S
N104 C100 1.328 . S
N104 C102 1.350 . S
H105 C100 0.930 . S
H106 C101 0.930 . S
C107 O108 1.224 . S
C107 O126 1.247 . S
O108 C107 1.224 . S
N109 Co99 2.128 . S
N109 C110 1.355 . S
N109 C112 1.311 . S
C110 N109 1.355 . S
C110 C111 1.363 . S
C110 H122 0.929 . S
C111 C110 1.363 . S
C111 N113 1.375 . S
C111 H129 0.931 . S
C112 N109 1.311 . S
C112 N113 1.347 . S
C112 H123 0.929 . S
N113 C111 1.375 . S
N113 C112 1.347 . S
C114 C117 1.365 . S
C114 N119 1.328 . S
C114 H120 0.929 . S
C115 C116 1.362 . S
C115 C118 1.378 1_554 S
C115 H130 0.929 . S
C116 C115 1.362 . S
C116 C117 1.366 1_554 S
C117 C114 1.365 . S
C117 C116 1.366 1_556 S
C117 H131 0.930 . S
C118 C115 1.378 1_556 S
C118 N119 1.315 . S
C118 H121 0.930 . S
N119 Co99 2.194 . S
N119 C114 1.328 . S
N119 C118 1.315 . S
H120 C114 0.929 . S
H121 C118 0.930 . S
H122 C110 0.929 . S
H123 C112 0.929 . S
O124 Co99 2.351 . S
O124 C127 1.244 . S
O125 Co99 2.155 . S
O125 C127 1.240 . S
O126 Co99 2.096 . S
O126 C107 1.247 . S
C127 O124 1.244 . S
C127 O125 1.240 . S
H128 C102 0.931 1_554 S
H129 C111 0.931 . S
H130 C115 0.929 . S
H131 C117 0.930 . S
Co132 N136 2.148 . S
Co132 N142 2.128 . S
Co132 N152 2.194 . S
Co132 O157 2.351 . S
Co132 O158 2.155 . S
Co132 O159 2.096 . S
C133 N136 1.301 1_565 S
C133 N137 1.328 . S
C133 H138 0.930 . S
C134 C135 1.333 1_545 S
C134 N136 1.317 . S
C134 H139 0.930 . S
C135 C134 1.333 1_565 S
C135 N137 1.350 . S
C135 H161 0.931 1_556 S
N136 Co132 2.148 . S
N136 C133 1.301 1_545 S
N136 C134 1.317 . S
N137 C133 1.328 . S
N137 C135 1.350 . S
H138 C133 0.930 . S
H139 C134 0.930 . S
C140 O141 1.224 . S
C140 O159 1.247 . S
O141 C140 1.224 . S
N142 Co132 2.128 . S
N142 C143 1.355 . S
N142 C145 1.311 . S
C143 N142 1.355 . S
C143 C144 1.363 . S
C143 H155 0.929 . S
C144 C143 1.363 . S
C144 N146 1.375 . S
C144 H162 0.931 . S
C145 N142 1.311 . S
C145 N146 1.347 . S
C145 H156 0.929 . S
N146 C144 1.375 . S
N146 C145 1.347 . S
C147 C150 1.365 . S
C147 N152 1.328 . S
C147 H153 0.929 . S
C148 C149 1.362 . S
C148 C151 1.378 1_554 S
C148 H163 0.929 . S
C149 C148 1.362 . S
C149 C150 1.366 1_554 S
C150 C147 1.365 . S
C150 C149 1.366 1_556 S
C150 H164 0.930 . S
C151 C148 1.378 1_556 S
C151 N152 1.315 . S
C151 H154 0.930 . S
N152 Co132 2.194 . S
N152 C147 1.328 . S
N152 C151 1.315 . S
H153 C147 0.929 . S
H154 C151 0.930 . S
H155 C143 0.929 . S
H156 C145 0.929 . S
O157 Co132 2.351 . S
O157 C160 1.244 . S
O158 Co132 2.155 . S
O158 C160 1.240 . S
O159 Co132 2.096 . S
O159 C140 1.247 . S
C160 O157 1.244 . S
C160 O158 1.240 . S
H161 C135 0.931 1_554 S
H162 C144 0.931 . S
H163 C148 0.929 . S
H164 C150 0.930 . S
Co165 N169 2.148 . S
Co165 N175 2.128 . S
Co165 N185 2.194 . S
Co165 O190 2.351 . S
Co165 O191 2.155 . S
Co165 O192 2.096 . S
C166 N169 1.301 1_455 S
C166 N170 1.328 . S
C166 H171 0.930 . S
C167 C168 1.333 1_655 S
C167 N169 1.317 . S
C167 H172 0.930 . S
C168 C167 1.333 1_455 S
C168 N170 1.350 . S
C168 H194 0.931 1_556 S
N169 Co165 2.148 . S
N169 C166 1.301 1_655 S
N169 C167 1.317 . S
N170 C166 1.328 . S
N170 C168 1.350 . S
H171 C166 0.930 . S
H172 C167 0.930 . S
C173 O174 1.224 . S
C173 O192 1.247 . S
O174 C173 1.224 . S
N175 Co165 2.128 . S
N175 C176 1.355 . S
N175 C178 1.311 . S
C176 N175 1.355 . S
C176 C177 1.363 . S
C176 H188 0.929 . S
C177 C176 1.363 . S
C177 N179 1.375 . S
C177 H195 0.931 . S
C178 N175 1.311 . S
C178 N179 1.347 . S
C178 H189 0.929 . S
N179 C177 1.375 . S
N179 C178 1.347 . S
C180 C183 1.365 . S
C180 N185 1.328 . S
C180 H186 0.929 . S
C181 C182 1.362 . S
C181 C184 1.378 1_554 S
C181 H196 0.929 . S
C182 C181 1.362 . S
C182 C183 1.366 1_554 S
C183 C180 1.365 . S
C183 C182 1.366 1_556 S
C183 H197 0.930 . S
C184 C181 1.378 1_556 S
C184 N185 1.315 . S
C184 H187 0.930 . S
N185 Co165 2.194 . S
N185 C180 1.328 . S
N185 C184 1.315 . S
H186 C180 0.929 . S
H187 C184 0.930 . S
H188 C176 0.929 . S
H189 C178 0.929 . S
O190 Co165 2.351 . S
O190 C193 1.244 . S
O191 Co165 2.155 . S
O191 C193 1.240 . S
O192 Co165 2.096 . S
O192 C173 1.247 . S
C193 O190 1.244 . S
C193 O191 1.240 . S
H194 C168 0.931 1_554 S
H195 C177 0.931 . S
H196 C181 0.929 . S
H197 C183 0.930 . S
Co198 N202 2.148 . S
Co198 N208 2.128 . S
Co198 N218 2.194 . S
Co198 O223 2.351 . S
Co198 O224 2.155 . S
Co198 O225 2.096 . S
C199 N202 1.301 . S
C199 N203 1.328 . S
C199 H204 0.930 . S
C200 C201 1.333 . S
C200 N202 1.317 . S
C200 H205 0.930 . S
C201 C200 1.333 . S
C201 N203 1.350 . S
C201 H227 0.931 . S
N202 Co198 2.148 . S
N202 C199 1.301 . S
N202 C200 1.317 . S
N203 C199 1.328 . S
N203 C201 1.350 . S
H204 C199 0.930 . S
H205 C200 0.930 . S
C206 O207 1.224 . S
C206 O225 1.247 . S
O207 C206 1.224 . S
N208 Co198 2.128 . S
N208 C209 1.355 . S
N208 C211 1.311 . S
C209 N208 1.355 . S
C209 C210 1.363 . S
C209 H221 0.929 . S
C210 C209 1.363 . S
C210 N212 1.375 . S
C210 H228 0.931 . S
C211 N208 1.311 . S
C211 N212 1.347 . S
C211 H222 0.929 . S
N212 C210 1.375 . S
N212 C211 1.347 . S
C213 C216 1.365 . S
C213 N218 1.328 . S
C213 H219 0.929 . S
C214 C215 1.362 . S
C214 C217 1.378 . S
C214 H229 0.929 . S
C215 C214 1.362 . S
C215 C216 1.366 . S
C216 C213 1.365 . S
C216 C215 1.366 . S
C216 H230 0.930 . S
C217 C214 1.378 . S
C217 N218 1.315 . S
C217 H220 0.930 . S
N218 Co198 2.194 . S
N218 C213 1.328 . S
N218 C217 1.315 . S
H219 C213 0.929 . S
H220 C217 0.930 . S
H221 C209 0.929 . S
H222 C211 0.929 . S
O223 Co198 2.351 . S
O223 C226 1.244 . S
O224 Co198 2.155 . S
O224 C226 1.240 . S
O225 Co198 2.096 . S
O225 C206 1.247 . S
C226 O223 1.244 . S
C226 O224 1.240 . S
H227 C201 0.931 . S
H228 C210 0.931 . S
H229 C214 0.929 . S
H230 C216 0.930 . S
Co231 N235 2.148 . S
Co231 N241 2.128 . S
Co231 N251 2.194 . S
Co231 O256 2.351 . S
Co231 O257 2.155 . S
Co231 O258 2.096 . S
C232 N235 1.301 . S
C232 N236 1.328 . S
C232 H237 0.930 . S
C233 C234 1.333 . S
C233 N235 1.317 . S
C233 H238 0.930 . S
C234 C233 1.333 . S
C234 N236 1.350 . S
C234 H260 0.931 . S
N235 Co231 2.148 . S
N235 C232 1.301 . S
N235 C233 1.317 . S
N236 C232 1.328 . S
N236 C234 1.350 . S
H237 C232 0.930 . S
H238 C233 0.930 . S
C239 O240 1.224 . S
C239 O258 1.247 . S
O240 C239 1.224 . S
N241 Co231 2.128 . S
N241 C242 1.355 . S
N241 C244 1.311 . S
C242 N241 1.355 . S
C242 C243 1.363 . S
C242 H254 0.929 . S
C243 C242 1.363 . S
C243 N245 1.375 . S
C243 H261 0.931 . S
C244 N241 1.311 . S
C244 N245 1.347 . S
C244 H255 0.929 . S
N245 C243 1.375 . S
N245 C244 1.347 . S
C246 C249 1.365 . S
C246 N251 1.328 . S
C246 H252 0.929 . S
C247 C248 1.362 . S
C247 C250 1.378 . S
C247 H262 0.929 . S
C248 C247 1.362 . S
C248 C249 1.366 . S
C249 C246 1.365 . S
C249 C248 1.366 . S
C249 H263 0.930 . S
C250 C247 1.378 . S
C250 N251 1.315 . S
C250 H253 0.930 . S
N251 Co231 2.194 . S
N251 C246 1.328 . S
N251 C250 1.315 . S
H252 C246 0.929 . S
H253 C250 0.930 . S
H254 C242 0.929 . S
H255 C244 0.929 . S
O256 Co231 2.351 . S
O256 C259 1.244 . S
O257 Co231 2.155 . S
O257 C259 1.240 . S
O258 Co231 2.096 . S
O258 C239 1.247 . S
C259 O256 1.244 . S
C259 O257 1.240 . S
H260 C234 0.931 . S
H261 C243 0.931 . S
H262 C247 0.929 . S
H263 C249 0.930 . S
Co264 N268 2.148 . S
Co264 N274 2.128 . S
Co264 N284 2.194 . S
Co264 O289 2.351 . S
Co264 O290 2.155 . S
Co264 O291 2.096 . S
C265 N268 1.301 . S
C265 N269 1.328 . S
C265 H270 0.930 . S
C266 C267 1.333 . S
C266 N268 1.317 . S
C266 H271 0.930 . S
C267 C266 1.333 . S
C267 N269 1.350 . S
C267 H293 0.931 . S
N268 Co264 2.148 . S
N268 C265 1.301 . S
N268 C266 1.317 . S
N269 C265 1.328 . S
N269 C267 1.350 . S
H270 C265 0.930 . S
H271 C266 0.930 . S
C272 O273 1.224 . S
C272 O291 1.247 . S
O273 C272 1.224 . S
N274 Co264 2.128 . S
N274 C275 1.355 . S
N274 C277 1.311 . S
C275 N274 1.355 . S
C275 C276 1.363 . S
C275 H287 0.929 . S
C276 C275 1.363 . S
C276 N278 1.375 . S
C276 H294 0.931 . S
C277 N274 1.311 . S
C277 N278 1.347 . S
C277 H288 0.929 . S
N278 C276 1.375 . S
N278 C277 1.347 . S
C279 C282 1.365 . S
C279 N284 1.328 . S
C279 H285 0.929 . S
C280 C281 1.362 . S
C280 C283 1.378 . S
C280 H295 0.929 . S
C281 C280 1.362 . S
C281 C282 1.366 . S
C282 C279 1.365 . S
C282 C281 1.366 . S
C282 H296 0.930 . S
C283 C280 1.378 . S
C283 N284 1.315 . S
C283 H286 0.930 . S
N284 Co264 2.194 . S
N284 C279 1.328 . S
N284 C283 1.315 . S
H285 C279 0.929 . S
H286 C283 0.930 . S
H287 C275 0.929 . S
H288 C277 0.929 . S
O289 Co264 2.351 . S
O289 C292 1.244 . S
O290 Co264 2.155 . S
O290 C292 1.240 . S
O291 Co264 2.096 . S
O291 C272 1.247 . S
C292 O289 1.244 . S
C292 O290 1.240 . S
H293 C267 0.931 . S
H294 C276 0.931 . S
H295 C280 0.929 . S
H296 C282 0.930 . S
Co297 N301 2.148 . S
Co297 N307 2.128 . S
Co297 N317 2.194 . S
Co297 O322 2.351 . S
Co297 O323 2.155 . S
Co297 O324 2.096 . S
C298 N301 1.301 . S
C298 N302 1.328 . S
C298 H303 0.930 . S
C299 C300 1.333 . S
C299 N301 1.317 . S
C299 H304 0.930 . S
C300 C299 1.333 . S
C300 N302 1.350 . S
C300 H326 0.931 . S
N301 Co297 2.148 . S
N301 C298 1.301 . S
N301 C299 1.317 . S
N302 C298 1.328 . S
N302 C300 1.350 . S
H303 C298 0.930 . S
H304 C299 0.930 . S
C305 O306 1.224 . S
C305 O324 1.247 . S
O306 C305 1.224 . S
N307 Co297 2.128 . S
N307 C308 1.355 . S
N307 C310 1.311 . S
C308 N307 1.355 . S
C308 C309 1.331 1_545 S
C308 H320 0.929 . S
C309 C308 1.331 1_565 S
C309 N311 1.373 1_565 S
C309 H327 0.960 . S
C310 N307 1.311 . S
C310 N311 1.347 . S
C310 H321 0.929 . S
N311 C309 1.373 1_545 S
N311 C310 1.347 . S
C312 C315 1.365 . S
C312 N317 1.328 . S
C312 H318 0.929 . S
C313 C314 1.362 . S
C313 C316 1.378 . S
C313 H328 0.929 . S
C314 C313 1.362 . S
C314 C315 1.366 . S
C315 C312 1.365 . S
C315 C314 1.366 . S
C315 H329 0.930 . S
C316 C313 1.378 . S
C316 N317 1.315 . S
C316 H319 0.930 . S
N317 Co297 2.194 . S
N317 C312 1.328 . S
N317 C316 1.315 . S
H318 C312 0.929 . S
H319 C316 0.930 . S
H320 C308 0.929 . S
H321 C310 0.929 . S
O322 Co297 2.351 . S
O322 C325 1.244 . S
O323 Co297 2.155 . S
O323 C325 1.240 . S
O324 Co297 2.096 . S
O324 C305 1.247 . S
C325 O322 1.244 . S
C325 O323 1.240 . S
H326 C300 0.931 . S
H327 C309 0.960 . S
H328 C313 0.929 . S
H329 C315 0.930 . S
Co330 N334 2.148 . S
Co330 N340 2.128 . S
Co330 N350 2.194 . S
Co330 O355 2.351 . S
Co330 O356 2.155 . S
Co330 O357 2.096 . S
C331 N334 1.301 . S
C331 N335 1.328 . S
C331 H336 0.930 . S
C332 C333 1.333 . S
C332 N334 1.317 . S
C332 H337 0.930 . S
C333 C332 1.333 . S
C333 N335 1.350 . S
C333 H359 0.931 . S
N334 Co330 2.148 . S
N334 C331 1.301 . S
N334 C332 1.317 . S
N335 C331 1.328 . S
N335 C333 1.350 . S
H336 C331 0.930 . S
H337 C332 0.930 . S
C338 O339 1.224 . S
C338 O357 1.247 . S
O339 C338 1.224 . S
N340 Co330 2.128 . S
N340 C341 1.355 . S
N340 C343 1.311 . S
C341 N340 1.355 . S
C341 C342 1.356 1_655 S
C341 H353 0.929 . S
C342 C341 1.356 1_455 S
C342 N344 1.341 1_455 S
C342 H360 0.965 . S
C343 N340 1.311 . S
C343 N344 1.347 . S
C343 H354 0.929 . S
N344 C342 1.341 1_655 S
N344 C343 1.347 . S
C345 C348 1.365 . S
C345 N350 1.328 . S
C345 H351 0.929 . S
C346 C347 1.362 . S
C346 C349 1.378 . S
C346 H361 0.929 . S
C347 C346 1.362 . S
C347 C348 1.366 . S
C348 C345 1.365 . S
C348 C347 1.366 . S
C348 H362 0.930 . S
C349 C346 1.378 . S
C349 N350 1.315 . S
C349 H352 0.930 . S
N350 Co330 2.194 . S
N350 C345 1.328 . S
N350 C349 1.315 . S
H351 C345 0.929 . S
H352 C349 0.930 . S
H353 C341 0.929 . S
H354 C343 0.929 . S
O355 Co330 2.351 . S
O355 C358 1.244 . S
O356 Co330 2.155 . S
O356 C358 1.240 . S
O357 Co330 2.096 . S
O357 C338 1.247 . S
C358 O355 1.244 . S
C358 O356 1.240 . S
H359 C333 0.931 . S
H360 C342 0.965 . S
H361 C346 0.929 . S
H362 C348 0.930 . S
Co363 N367 2.148 . S
Co363 N373 2.128 . S
Co363 N383 2.194 . S
Co363 O388 2.351 . S
Co363 O389 2.155 . S
Co363 O390 2.096 . S
C364 N367 1.301 . S
C364 N368 1.328 . S
C364 H369 0.930 . S
C365 C366 1.333 . S
C365 N367 1.317 . S
C365 H370 0.930 . S
C366 C365 1.333 . S
C366 N368 1.350 . S
C366 H392 0.931 . S
N367 Co363 2.148 . S
N367 C364 1.301 . S
N367 C365 1.317 . S
N368 C364 1.328 . S
N368 C366 1.350 . S
H369 C364 0.930 . S
H370 C365 0.930 . S
C371 O372 1.224 . S
C371 O390 1.247 . S
O372 C371 1.224 . S
N373 Co363 2.128 . S
N373 C374 1.355 . S
N373 C376 1.311 . S
C374 N373 1.355 . S
C374 C375 1.363 . S
C374 H386 0.929 . S
C375 C374 1.363 . S
C375 N377 1.375 . S
C375 H393 0.931 . S
C376 N373 1.311 . S
C376 N377 1.347 . S
C376 H387 0.929 . S
N377 C375 1.375 . S
N377 C376 1.347 . S
C378 C381 1.365 . S
C378 N383 1.328 . S
C378 H384 0.929 . S
C379 C380 1.362 . S
C379 C382 1.378 . S
C379 H394 0.929 . S
C380 C379 1.362 . S
C380 C381 1.366 . S
C381 C378 1.365 . S
C381 C380 1.366 . S
C381 H395 0.930 . S
C382 C379 1.378 . S
C382 N383 1.315 . S
C382 H385 0.930 . S
N383 Co363 2.194 . S
N383 C378 1.328 . S
N383 C382 1.315 . S
H384 C378 0.929 . S
H385 C382 0.930 . S
H386 C374 0.929 . S
H387 C376 0.929 . S
O388 Co363 2.351 . S
O388 C391 1.244 . S
O389 Co363 2.155 . S
O389 C391 1.240 . S
O390 Co363 2.096 . S
O390 C371 1.247 . S
C391 O388 1.244 . S
C391 O389 1.240 . S
H392 C366 0.931 . S
H393 C375 0.931 . S
H394 C379 0.929 . S
H395 C381 0.930 . S
Co396 N400 2.148 . S
Co396 N406 2.128 . S
Co396 N416 2.194 . S
Co396 O421 2.351 . S
Co396 O422 2.155 . S
Co396 O423 2.096 . S
C397 N400 1.301 . S
C397 N401 1.328 . S
C397 H402 0.930 . S
C398 C399 1.333 . S
C398 N400 1.317 . S
C398 H403 0.930 . S
C399 C398 1.333 . S
C399 N401 1.350 . S
C399 H425 0.931 . S
N400 Co396 2.148 . S
N400 C397 1.301 . S
N400 C398 1.317 . S
N401 C397 1.328 . S
N401 C399 1.350 . S
H402 C397 0.930 . S
H403 C398 0.930 . S
C404 O405 1.224 . S
C404 O423 1.247 . S
O405 C404 1.224 . S
N406 Co396 2.128 . S
N406 C407 1.355 . S
N406 C409 1.311 . S
C407 N406 1.355 . S
C407 C408 1.331 1_565 S
C407 H419 0.929 . S
C408 C407 1.331 1_545 S
C408 N410 1.373 1_545 S
C408 H426 0.960 . S
C409 N406 1.311 . S
C409 N410 1.347 . S
C409 H420 0.929 . S
N410 C408 1.373 1_565 S
N410 C409 1.347 . S
C411 C414 1.365 . S
C411 N416 1.328 . S
C411 H417 0.929 . S
C412 C413 1.362 . S
C412 C415 1.378 . S
C412 H427 0.929 . S
C413 C412 1.362 . S
C413 C414 1.366 . S
C414 C411 1.365 . S
C414 C413 1.366 . S
C414 H428 0.930 . S
C415 C412 1.378 . S
C415 N416 1.315 . S
C415 H418 0.930 . S
N416 Co396 2.194 . S
N416 C411 1.328 . S
N416 C415 1.315 . S
H417 C411 0.929 . S
H418 C415 0.930 . S
H419 C407 0.929 . S
H420 C409 0.929 . S
O421 Co396 2.351 . S
O421 C424 1.244 . S
O422 Co396 2.155 . S
O422 C424 1.240 . S
O423 Co396 2.096 . S
O423 C404 1.247 . S
C424 O421 1.244 . S
C424 O422 1.240 . S
H425 C399 0.931 . S
H426 C408 0.960 . S
H427 C412 0.929 . S
H428 C414 0.930 . S
Co429 N433 2.148 . S
Co429 N439 2.128 . S
Co429 N449 2.194 . S
Co429 O454 2.351 . S
Co429 O455 2.155 . S
Co429 O456 2.096 . S
C430 N433 1.301 . S
C430 N434 1.328 . S
C430 H435 0.930 . S
C431 C432 1.333 . S
C431 N433 1.317 . S
C431 H436 0.930 . S
C432 C431 1.333 . S
C432 N434 1.350 . S
C432 H458 0.931 . S
N433 Co429 2.148 . S
N433 C430 1.301 . S
N433 C431 1.317 . S
N434 C430 1.328 . S
N434 C432 1.350 . S
H435 C430 0.930 . S
H436 C431 0.930 . S
C437 O438 1.224 . S
C437 O456 1.247 . S
O438 C437 1.224 . S
N439 Co429 2.128 . S
N439 C440 1.355 . S
N439 C442 1.311 . S
C440 N439 1.355 . S
C440 C441 1.356 1_455 S
C440 H452 0.929 . S
C441 C440 1.356 1_655 S
C441 N443 1.341 1_655 S
C441 H459 0.965 . S
C442 N439 1.311 . S
C442 N443 1.347 . S
C442 H453 0.929 . S
N443 C441 1.341 1_455 S
N443 C442 1.347 . S
C444 C447 1.365 . S
C444 N449 1.328 . S
C444 H450 0.929 . S
C445 C446 1.362 . S
C445 C448 1.378 . S
C445 H460 0.929 . S
C446 C445 1.362 . S
C446 C447 1.366 . S
C447 C444 1.365 . S
C447 C446 1.366 . S
C447 H461 0.930 . S
C448 C445 1.378 . S
C448 N449 1.315 . S
C448 H451 0.930 . S
N449 Co429 2.194 . S
N449 C444 1.328 . S
N449 C448 1.315 . S
H450 C444 0.929 . S
H451 C448 0.930 . S
H452 C440 0.929 . S
H453 C442 0.929 . S
O454 Co429 2.351 . S
O454 C457 1.244 . S
O455 Co429 2.155 . S
O455 C457 1.240 . S
O456 Co429 2.096 . S
O456 C437 1.247 . S
C457 O454 1.244 . S
C457 O455 1.240 . S
H458 C432 0.931 . S
H459 C441 0.965 . S
H460 C445 0.929 . S
H461 C447 0.930 . S
Co462 N466 2.148 . S
Co462 N472 2.128 . S
Co462 N482 2.194 . S
Co462 O487 2.351 . S
Co462 O488 2.155 . S
Co462 O489 2.096 . S
C463 N466 1.301 . S
C463 N467 1.328 . S
C463 H468 0.930 . S
C464 C465 1.333 . S
C464 N466 1.317 . S
C464 H469 0.930 . S
C465 C464 1.333 . S
C465 N467 1.350 . S
C465 H491 0.931 . S
N466 Co462 2.148 . S
N466 C463 1.301 . S
N466 C464 1.317 . S
N467 C463 1.328 . S
N467 C465 1.350 . S
H468 C463 0.930 . S
H469 C464 0.930 . S
C470 O471 1.224 . S
C470 O489 1.247 . S
O471 C470 1.224 . S
N472 Co462 2.128 . S
N472 C473 1.355 . S
N472 C475 1.311 . S
C473 N472 1.355 . S
C473 C474 1.363 . S
C473 H485 0.929 . S
C474 C473 1.363 . S
C474 N476 1.375 . S
C474 H492 0.931 . S
C475 N472 1.311 . S
C475 N476 1.347 . S
C475 H486 0.929 . S
N476 C474 1.375 . S
N476 C475 1.347 . S
C477 C480 1.365 . S
C477 N482 1.328 . S
C477 H483 0.929 . S
C478 C479 1.362 . S
C478 C481 1.378 . S
C478 H493 0.929 . S
C479 C478 1.362 . S
C479 C480 1.366 . S
C480 C477 1.365 . S
C480 C479 1.366 . S
C480 H494 0.930 . S
C481 C478 1.378 . S
C481 N482 1.315 . S
C481 H484 0.930 . S
N482 Co462 2.194 . S
N482 C477 1.328 . S
N482 C481 1.315 . S
H483 C477 0.929 . S
H484 C481 0.930 . S
H485 C473 0.929 . S
H486 C475 0.929 . S
O487 Co462 2.351 . S
O487 C490 1.244 . S
O488 Co462 2.155 . S
O488 C490 1.240 . S
O489 Co462 2.096 . S
O489 C470 1.247 . S
C490 O487 1.244 . S
C490 O488 1.240 . S
H491 C465 0.931 . S
H492 C474 0.931 . S
H493 C478 0.929 . S
H494 C480 0.930 . S
Co495 N499 2.148 . S
Co495 N505 2.128 . S
Co495 N515 2.194 . S
Co495 O520 2.351 . S
Co495 O521 2.155 . S
Co495 O522 2.096 . S
C496 N499 1.301 . S
C496 N500 1.328 . S
C496 H501 0.930 . S
C497 C498 1.333 . S
C497 N499 1.317 . S
C497 H502 0.930 . S
C498 C497 1.333 . S
C498 N500 1.350 . S
C498 H524 0.931 . S
N499 Co495 2.148 . S
N499 C496 1.301 . S
N499 C497 1.317 . S
N500 C496 1.328 . S
N500 C498 1.350 . S
H501 C496 0.930 . S
H502 C497 0.930 . S
C503 O504 1.224 . S
C503 O522 1.247 . S
O504 C503 1.224 . S
N505 Co495 2.128 . S
N505 C506 1.355 . S
N505 C508 1.311 . S
C506 N505 1.355 . S
C506 C507 1.363 . S
C506 H518 0.929 . S
C507 C506 1.363 . S
C507 N509 1.375 . S
C507 H525 0.931 . S
C508 N505 1.311 . S
C508 N509 1.347 . S
C508 H519 0.929 . S
N509 C507 1.375 . S
N509 C508 1.347 . S
C510 C513 1.365 . S
C510 N515 1.328 . S
C510 H516 0.929 . S
C511 C512 1.362 . S
C511 C514 1.378 . S
C511 H526 0.929 . S
C512 C511 1.362 . S
C512 C513 1.366 . S
C513 C510 1.365 . S
C513 C512 1.366 . S
C513 H527 0.930 . S
C514 C511 1.378 . S
C514 N515 1.315 . S
C514 H517 0.930 . S
N515 Co495 2.194 . S
N515 C510 1.328 . S
N515 C514 1.315 . S
H516 C510 0.929 . S
H517 C514 0.930 . S
H518 C506 0.929 . S
H519 C508 0.929 . S
O520 Co495 2.351 . S
O520 C523 1.244 . S
O521 Co495 2.155 . S
O521 C523 1.240 . S
O522 Co495 2.096 . S
O522 C503 1.247 . S
C523 O520 1.244 . S
C523 O521 1.240 . S
H524 C498 0.931 . S
H525 C507 0.931 . S
H526 C511 0.929 . S
H527 C513 0.930 . S
Co528 N532 2.148 . S
Co528 N538 2.128 . S
Co528 N548 2.194 . S
Co528 O553 2.351 . S
Co528 O554 2.155 . S
Co528 O555 2.096 . S
C529 N532 1.301 . S
C529 N533 1.328 . S
C529 H534 0.930 . S
C530 C531 1.333 . S
C530 N532 1.317 . S
C530 H535 0.930 . S
C531 C530 1.333 . S
C531 N533 1.350 . S
C531 H557 0.931 . S
N532 Co528 2.148 . S
N532 C529 1.301 . S
N532 C530 1.317 . S
N533 C529 1.328 . S
N533 C531 1.350 . S
H534 C529 0.930 . S
H535 C530 0.930 . S
C536 O537 1.224 . S
C536 O555 1.247 . S
O537 C536 1.224 . S
N538 Co528 2.128 . S
N538 C539 1.355 . S
N538 C541 1.311 . S
C539 N538 1.355 . S
C539 C540 1.363 . S
C539 H551 0.929 . S
C540 C539 1.363 . S
C540 N542 1.375 . S
C540 H558 0.931 . S
C541 N538 1.311 . S
C541 N542 1.347 . S
C541 H552 0.929 . S
N542 C540 1.375 . S
N542 C541 1.347 . S
C543 C546 1.365 . S
C543 N548 1.328 . S
C543 H549 0.929 . S
C544 C545 1.362 . S
C544 C547 1.378 . S
C544 H559 0.929 . S
C545 C544 1.362 . S
C545 C546 1.366 . S
C546 C543 1.365 . S
C546 C545 1.366 . S
C546 H560 0.930 . S
C547 C544 1.378 . S
C547 N548 1.315 . S
C547 H550 0.930 . S
N548 Co528 2.194 . S
N548 C543 1.328 . S
N548 C547 1.315 . S
H549 C543 0.929 . S
H550 C547 0.930 . S
H551 C539 0.929 . S
H552 C541 0.929 . S
O553 Co528 2.351 . S
O553 C556 1.244 . S
O554 Co528 2.155 . S
O554 C556 1.240 . S
O555 Co528 2.096 . S
O555 C536 1.247 . S
C556 O553 1.244 . S
C556 O554 1.240 . S
H557 C531 0.931 . S
H558 C540 0.931 . S
H559 C544 0.929 . S
H560 C546 0.930 . S
Co561 N565 2.148 . S
Co561 N571 2.128 . S
Co561 N581 2.194 . S
Co561 O586 2.351 . S
Co561 O587 2.155 . S
Co561 O588 2.096 . S
C562 N565 1.301 . S
C562 N566 1.328 . S
C562 H567 0.930 . S
C563 C564 1.333 . S
C563 N565 1.317 . S
C563 H568 0.930 . S
C564 C563 1.333 . S
C564 N566 1.350 . S
C564 H590 0.931 . S
N565 Co561 2.148 . S
N565 C562 1.301 . S
N565 C563 1.317 . S
N566 C562 1.328 . S
N566 C564 1.350 . S
H567 C562 0.930 . S
H568 C563 0.930 . S
C569 O570 1.224 . S
C569 O588 1.247 . S
O570 C569 1.224 . S
N571 Co561 2.128 . S
N571 C572 1.355 . S
N571 C574 1.311 . S
C572 N571 1.355 . S
C572 C573 1.363 . S
C572 H584 0.929 . S
C573 C572 1.363 . S
C573 N575 1.375 . S
C573 H591 0.931 . S
C574 N571 1.311 . S
C574 N575 1.347 . S
C574 H585 0.929 . S
N575 C573 1.375 . S
N575 C574 1.347 . S
C576 C579 1.365 . S
C576 N581 1.328 . S
C576 H582 0.929 . S
C577 C578 1.362 . S
C577 C580 1.378 . S
C577 H592 0.929 . S
C578 C577 1.362 . S
C578 C579 1.366 . S
C579 C576 1.365 . S
C579 C578 1.366 . S
C579 H593 0.930 . S
C580 C577 1.378 . S
C580 N581 1.315 . S
C580 H583 0.930 . S
N581 Co561 2.194 . S
N581 C576 1.328 . S
N581 C580 1.315 . S
H582 C576 0.929 . S
H583 C580 0.930 . S
H584 C572 0.929 . S
H585 C574 0.929 . S
O586 Co561 2.351 . S
O586 C589 1.244 . S
O587 Co561 2.155 . S
O587 C589 1.240 . S
O588 Co561 2.096 . S
O588 C569 1.247 . S
C589 O586 1.244 . S
C589 O587 1.240 . S
H590 C564 0.931 . S
H591 C573 0.931 . S
H592 C577 0.929 . S
H593 C579 0.930 . S
C594 C595 1.363 . S
C594 C600 1.379 . S
C594 N602 1.356 . S
C595 C594 1.363 . S
C595 C601 1.363 . S
C596 C597 1.363 . S
C596 C601 1.379 . S
C596 N603 1.356 . S
C597 C596 1.363 . S
C597 C600 1.363 . S
N598 C600 1.356 . S
N598 H610 0.984 . S
N598 H611 0.985 . S
N599 C601 1.356 . S
N599 H604 0.984 . S
N599 H605 0.985 . S
C600 C594 1.379 . S
C600 C597 1.363 . S
C600 N598 1.356 . S
C601 C595 1.363 . S
C601 C596 1.379 . S
C601 N599 1.356 . S
N602 C594 1.356 . S
N602 H608 0.984 . S
N602 H609 0.984 . S
N603 C596 1.356 . S
N603 H606 0.984 . S
N603 H607 0.985 . S
H604 N599 0.984 . S
H605 N599 0.985 . S
H606 N603 0.984 . S
H607 N603 0.985 . S
H608 N602 0.984 . S
H609 N602 0.984 . S
H610 N598 0.984 . S
H611 N598 0.985 . S
C612 C613 1.363 . S
C612 C618 1.379 . S
C612 N620 1.356 1_545 S
C613 C612 1.363 . S
C613 C619 1.363 . S
C614 C615 1.363 . S
C614 C619 1.379 . S
C614 N621 1.356 . S
C615 C614 1.363 . S
C615 C618 1.363 . S
N616 C618 1.356 . S
N616 H628 0.984 . S
N616 H629 0.985 . S
N617 C619 1.356 . S
N617 H622 0.984 . S
N617 H623 0.985 . S
C618 C612 1.379 . S
C618 C615 1.363 . S
C618 N616 1.356 . S
C619 C613 1.363 . S
C619 C614 1.379 . S
C619 N617 1.356 . S
N620 C612 1.356 1_565 S
N620 H626 0.984 . S
N620 H627 0.984 . S
N621 C614 1.356 . S
N621 H624 0.984 . S
N621 H625 0.985 . S
H622 N617 0.984 . S
H623 N617 0.985 . S
H624 N621 0.984 . S
H625 N621 0.985 . S
H626 N620 0.984 . S
H627 N620 0.984 . S
H628 N616 0.984 . S
H629 N616 0.985 . S
C630 C631 1.363 . S
C630 C636 1.379 . S
C630 N638 1.356 . S
C631 C630 1.363 . S
C631 C637 1.363 . S
C632 C633 1.363 . S
C632 C637 1.379 . S
C632 N639 1.356 . S
C633 C632 1.363 . S
C633 C636 1.363 . S
N634 C636 1.356 . S
N634 H646 0.984 . S
N634 H647 0.985 . S
N635 C637 1.356 1_455 S
N635 H640 0.984 . S
N635 H641 0.985 . S
C636 C630 1.379 . S
C636 C633 1.363 . S
C636 N634 1.356 . S
C637 C631 1.363 . S
C637 C632 1.379 . S
C637 N635 1.356 1_655 S
N638 C630 1.356 . S
N638 H644 0.984 . S
N638 H645 0.984 . S
N639 C632 1.356 . S
N639 H642 0.984 . S
N639 H643 0.985 . S
H640 N635 0.984 . S
H641 N635 0.985 . S
H642 N639 0.984 . S
H643 N639 0.985 . S
H644 N638 0.984 . S
H645 N638 0.984 . S
H646 N634 0.984 . S
H647 N634 0.985 . S
C648 C649 1.363 . S
C648 C654 1.379 . S
C648 N656 1.356 . S
C649 C648 1.363 . S
C649 C655 1.363 . S
C650 C651 1.363 . S
C650 C655 1.379 . S
C650 N657 1.356 . S
C651 C650 1.363 . S
C651 C654 1.363 . S
N652 C654 1.356 . S
N652 H664 0.984 . S
N652 H665 0.985 . S
N653 C655 1.356 . S
N653 H658 0.984 . S
N653 H659 0.985 . S
C654 C648 1.379 . S
C654 C651 1.363 . S
C654 N652 1.356 . S
C655 C649 1.363 . S
C655 C650 1.379 . S
C655 N653 1.356 . S
N656 C648 1.356 . S
N656 H662 0.984 . S
N656 H663 0.984 . S
N657 C650 1.356 . S
N657 H660 0.984 . S
N657 H661 0.985 . S
H658 N653 0.984 . S
H659 N653 0.985 . S
H660 N657 0.984 . S
H661 N657 0.985 . S
H662 N656 0.984 . S
H663 N656 0.984 . S
H664 N652 0.984 . S
H665 N652 0.985 . S
C666 C667 1.363 . S
C666 C672 1.379 . S
C666 N674 1.356 . S
C667 C666 1.363 . S
C667 C673 1.363 . S
C668 C669 1.363 . S
C668 C673 1.379 . S
C668 N675 1.356 . S
C669 C668 1.363 . S
C669 C672 1.363 . S
N670 C672 1.356 . S
N670 H682 0.984 . S
N670 H683 0.985 . S
N671 C673 1.356 1_545 S
N671 H676 0.984 . S
N671 H677 0.985 . S
C672 C666 1.379 . S
C672 C669 1.363 . S
C672 N670 1.356 . S
C673 C667 1.363 . S
C673 C668 1.379 . S
C673 N671 1.356 1_565 S
N674 C666 1.356 . S
N674 H680 0.984 . S
N674 H681 0.984 . S
N675 C668 1.356 . S
N675 H678 0.984 . S
N675 H679 0.985 . S
H676 N671 0.984 . S
H677 N671 0.985 . S
H678 N675 0.984 . S
H679 N675 0.985 . S
H680 N674 0.984 . S
H681 N674 0.984 . S
H682 N670 0.984 . S
H683 N670 0.985 . S
C684 C685 1.363 . S
C684 C690 1.379 . S
C684 N692 1.356 . S
C685 C684 1.363 . S
C685 C691 1.363 . S
C686 C687 1.363 . S
C686 C691 1.379 . S
C686 N693 1.356 . S
C687 C686 1.363 . S
C687 C690 1.363 . S
N688 C690 1.356 . S
N688 H700 0.984 . S
N688 H701 0.985 . S
N689 C691 1.348 1_655 S
N689 H694 0.986 . S
N689 H695 0.983 . S
C690 C684 1.379 . S
C690 C687 1.363 . S
C690 N688 1.356 . S
C691 C685 1.363 . S
C691 C686 1.379 . S
C691 N689 1.348 1_455 S
N692 C684 1.356 . S
N692 H698 0.984 . S
N692 H699 0.984 1_455 S
N693 C686 1.356 . S
N693 H696 0.984 . S
N693 H697 0.985 . S
H694 N689 0.986 . S
H695 N689 0.983 . S
H696 N693 0.984 . S
H697 N693 0.985 . S
H698 N692 0.984 . S
H699 N692 0.984 1_655 S
H700 N688 0.984 . S
H701 N688 0.985 . S
C702 C703 1.363 . S
C702 C708 1.379 . S
C702 N710 1.356 . S
C703 C702 1.363 . S
C703 C709 1.363 . S
C704 C705 1.363 . S
C704 C709 1.379 . S
C704 N711 1.356 . S
C705 C704 1.363 . S
C705 C708 1.363 . S
N706 C708 1.356 . S
N706 H718 0.990 . S
N706 H719 0.985 1_655 S
N707 C709 1.356 . S
N707 H712 0.984 . S
N707 H713 0.985 . S
C708 C702 1.379 . S
C708 C705 1.363 . S
C708 N706 1.356 . S
C709 C703 1.363 . S
C709 C704 1.379 . S
C709 N707 1.356 . S
N710 C702 1.356 . S
N710 H716 0.984 . S
N710 H717 0.984 . S
N711 C704 1.356 . S
N711 H714 0.984 . S
N711 H715 0.985 . S
H712 N707 0.984 . S
H713 N707 0.985 . S
H714 N711 0.984 . S
H715 N711 0.985 . S
H716 N710 0.984 . S
H717 N710 0.984 . S
H718 N706 0.990 . S
H719 N706 0.985 1_455 S
C720 C721 1.363 . S
C720 C726 1.379 . S
C720 N728 1.356 . S
C721 C720 1.363 . S
C721 C727 1.363 . S
C722 C723 1.363 . S
C722 C727 1.379 . S
C722 N729 1.356 . S
C723 C722 1.363 . S
C723 C726 1.363 . S
N724 C726 1.356 . S
N724 H736 0.984 . S
N724 H737 0.985 . S
N725 C727 1.356 . S
N725 H730 0.984 . S
N725 H731 0.985 . S
C726 C720 1.379 . S
C726 C723 1.363 . S
C726 N724 1.356 . S
C727 C721 1.363 . S
C727 C722 1.379 . S
C727 N725 1.356 . S
N728 C720 1.356 . S
N728 H734 0.984 . S
N728 H735 0.984 . S
N729 C722 1.356 . S
N729 H732 0.984 . S
N729 H733 0.985 . S
H730 N725 0.984 . S
H731 N725 0.985 . S
H732 N729 0.984 . S
H733 N729 0.985 . S
H734 N728 0.984 . S
H735 N728 0.984 . S
H736 N724 0.984 . S
H737 N724 0.985 . S
C738 C739 1.363 . S
C738 C744 1.379 . S
C738 N746 1.376 . S
C739 C738 1.363 . S
C739 C745 1.363 . S
C740 C741 1.363 . S
C740 C745 1.379 . S
C740 N747 1.356 . S
C741 C740 1.363 . S
C741 C744 1.363 . S
N742 C744 1.356 . S
N742 H754 0.984 . S
N742 H755 0.985 . S
N743 C745 1.356 . S
N743 H748 0.984 . S
N743 H749 0.985 . S
C744 C738 1.379 . S
C744 C741 1.363 . S
C744 N742 1.356 . S
C745 C739 1.363 . S
C745 C740 1.379 . S
C745 N743 1.356 . S
N746 C738 1.376 . S
N746 H752 0.979 1_545 S
N746 H753 0.971 1_545 S
N747 C740 1.356 . S
N747 H750 0.984 . S
N747 H751 0.985 . S
H748 N743 0.984 . S
H749 N743 0.985 . S
H750 N747 0.984 . S
H751 N747 0.985 . S
H752 N746 0.979 1_565 S
H753 N746 0.971 1_565 S
H754 N742 0.984 . S
H755 N742 0.985 . S
C756 C757 1.363 . S
C756 C762 1.379 . S
C756 N764 1.356 . S
C757 C756 1.363 . S
C757 C763 1.363 . S
C758 C759 1.363 . S
C758 C763 1.379 . S
C758 N765 1.356 . S
C759 C758 1.363 . S
C759 C762 1.363 . S
N760 C762 1.356 1_556 S
N760 H772 0.984 . S
N760 H773 0.985 . S
N761 C763 1.356 . S
N761 H766 0.984 . S
N761 H767 0.985 . S
C762 C756 1.379 . S
C762 C759 1.363 . S
C762 N760 1.356 1_554 S
C763 C757 1.363 . S
C763 C758 1.379 . S
C763 N761 1.356 . S
N764 C756 1.356 . S
N764 H770 0.984 . S
N764 H771 0.984 . S
N765 C758 1.356 . S
N765 H768 0.984 . S
N765 H769 0.985 . S
H766 N761 0.984 . S
H767 N761 0.985 . S
H768 N765 0.984 . S
H769 N765 0.985 . S
H770 N764 0.984 . S
H771 N764 0.984 . S
H772 N760 0.984 . S
H773 N760 0.985 . S
C774 C775 1.363 . S
C774 C780 1.379 . S
C774 N782 1.356 . S
C775 C774 1.363 . S
C775 C781 1.363 . S
C776 C777 1.363 . S
C776 C781 1.379 . S
C776 N783 1.356 . S
C777 C776 1.363 . S
C777 C780 1.363 . S
N778 C780 1.356 1_556 S
N778 H790 0.984 . S
N778 H791 0.985 . S
N779 C781 1.356 . S
N779 H784 0.984 . S
N779 H785 0.985 . S
C780 C774 1.379 . S
C780 C777 1.363 . S
C780 N778 1.356 1_554 S
C781 C775 1.363 . S
C781 C776 1.379 . S
C781 N779 1.356 . S
N782 C774 1.356 . S
N782 H788 0.984 1_554 S
N782 H789 0.984 . S
N783 C776 1.356 . S
N783 H786 0.984 . S
N783 H787 0.985 . S
H784 N779 0.984 . S
H785 N779 0.985 . S
H786 N783 0.984 . S
H787 N783 0.985 . S
H788 N782 0.984 1_556 S
H789 N782 0.984 . S
H790 N778 0.984 . S
H791 N778 0.985 . S
C792 C793 1.363 . S
C792 C798 1.379 . S
C792 N800 1.356 . S
C793 C792 1.363 . S
C793 C799 1.363 . S
C794 C795 1.363 . S
C794 C799 1.379 . S
C794 N801 1.356 . S
C795 C794 1.363 . S
C795 C798 1.363 . S
N796 C798 1.356 . S
N796 H808 0.984 . S
N796 H809 0.985 . S
N797 C799 1.356 . S
N797 H802 0.984 . S
N797 H803 0.985 . S
C798 C792 1.379 . S
C798 C795 1.363 . S
C798 N796 1.356 . S
C799 C793 1.363 . S
C799 C794 1.379 . S
C799 N797 1.356 . S
N800 C792 1.356 . S
N800 H806 0.984 . S
N800 H807 0.984 . S
N801 C794 1.356 . S
N801 H804 0.984 . S
N801 H805 0.985 . S
H802 N797 0.984 . S
H803 N797 0.985 . S
H804 N801 0.984 . S
H805 N801 0.985 . S
H806 N800 0.984 . S
H807 N800 0.984 . S
H808 N796 0.984 . S
H809 N796 0.985 . S
C810 C811 1.363 . S
C810 C816 1.379 . S
C810 N818 1.356 . S
C811 C810 1.363 . S
C811 C817 1.363 . S
C812 C813 1.363 . S
C812 C817 1.379 . S
C812 N819 1.356 . S
C813 C812 1.363 . S
C813 C816 1.363 . S
N814 C816 1.356 1_554 S
N814 H826 0.984 . S
N814 H827 0.985 . S
N815 C817 1.356 . S
N815 H820 0.984 . S
N815 H821 0.985 . S
C816 C810 1.379 . S
C816 C813 1.363 . S
C816 N814 1.356 1_556 S
C817 C811 1.363 . S
C817 C812 1.379 . S
C817 N815 1.356 . S
N818 C810 1.356 . S
N818 H824 0.984 1_556 S
N818 H825 0.984 . S
N819 C812 1.356 . S
N819 H822 0.984 . S
N819 H823 0.985 . S
H820 N815 0.984 . S
H821 N815 0.985 . S
H822 N819 0.984 . S
H823 N819 0.985 . S
H824 N818 0.984 1_554 S
H825 N818 0.984 . S
H826 N814 0.984 . S
H827 N814 0.985 . S
C828 C829 1.363 . S
C828 C834 1.379 . S
C828 N836 1.356 . S
C829 C828 1.363 . S
C829 C835 1.363 . S
C830 C831 1.363 . S
C830 C835 1.379 . S
C830 N837 1.356 . S
C831 C830 1.363 . S
C831 C834 1.363 . S
N832 C834 1.349 1_554 S
N832 H844 0.991 . S
N832 H845 0.986 . S
N833 C835 1.356 . S
N833 H838 0.984 . S
N833 H839 0.985 . S
C834 C828 1.379 . S
C834 C831 1.363 . S
C834 N832 1.349 1_556 S
C835 C829 1.363 . S
C835 C830 1.379 . S
C835 N833 1.356 . S
N836 C828 1.356 . S
N836 H842 0.984 . S
N836 H843 0.984 . S
N837 C830 1.356 . S
N837 H840 0.984 . S
N837 H841 0.985 . S
H838 N833 0.984 . S
H839 N833 0.985 . S
H840 N837 0.984 . S
H841 N837 0.985 . S
H842 N836 0.984 . S
H843 N836 0.984 . S
H844 N832 0.991 . S
H845 N832 0.986 . S
C846 C847 1.363 . S
C846 C852 1.379 . S
C846 N854 1.356 1_556 S
C847 C846 1.363 . S
C847 C853 1.363 . S
C848 C849 1.363 . S
C848 C853 1.379 . S
C848 N855 1.356 . S
C849 C848 1.363 . S
C849 C852 1.363 . S
N850 C852 1.356 . S
N850 H862 0.984 1_556 S
N850 H863 0.985 . S
N851 C853 1.356 . S
N851 H856 0.984 . S
N851 H857 0.985 . S
C852 C846 1.379 . S
C852 C849 1.363 . S
C852 N850 1.356 . S
C853 C847 1.363 . S
C853 C848 1.379 . S
C853 N851 1.356 . S
N854 C846 1.356 1_554 S
N854 H860 0.984 . S
N854 H861 0.984 . S
N855 C848 1.356 . S
N855 H858 0.984 . S
N855 H859 0.985 . S
H856 N851 0.984 . S
H857 N851 0.985 . S
H858 N855 0.984 . S
H859 N855 0.985 . S
H860 N854 0.984 . S
H861 N854 0.984 . S
H862 N850 0.984 1_554 S
H863 N850 0.985 . S
C864 C865 1.363 . S
C864 C870 1.379 . S
C864 N872 1.356 . S
C865 C864 1.363 . S
C865 C871 1.363 . S
C866 C867 1.363 . S
C866 C871 1.379 . S
C866 N873 1.356 . S
C867 C866 1.363 . S
C867 C870 1.363 . S
N868 C870 1.356 . S
N868 H880 0.984 . S
N868 H881 0.985 . S
N869 C871 1.356 . S
N869 H874 0.984 . S
N869 H875 0.985 . S
C870 C864 1.379 . S
C870 C867 1.363 . S
C870 N868 1.356 . S
C871 C865 1.363 . S
C871 C866 1.379 . S
C871 N869 1.356 . S
N872 C864 1.356 . S
N872 H878 0.984 . S
N872 H879 0.984 1_455 S
N873 C866 1.356 . S
N873 H876 0.984 . S
N873 H877 0.985 . S
H874 N869 0.984 . S
H875 N869 0.985 . S
H876 N873 0.984 . S
H877 N873 0.985 . S
H878 N872 0.984 . S
H879 N872 0.984 1_655 S
H880 N868 0.984 . S
H881 N868 0.985 . S
C882 C883 1.363 . S
C882 C888 1.379 . S
C882 N890 1.356 . S
C883 C882 1.363 . S
C883 C889 1.363 . S
C884 C885 1.363 . S
C884 C889 1.379 . S
C884 N891 1.356 . S
C885 C884 1.363 . S
C885 C888 1.363 . S
N886 C888 1.356 . S
N886 H898 0.984 . S
N886 H899 0.985 . S
N887 C889 1.356 . S
N887 H892 0.984 . S
N887 H893 0.985 . S
C888 C882 1.379 . S
C888 C885 1.363 . S
C888 N886 1.356 . S
C889 C883 1.363 . S
C889 C884 1.379 . S
C889 N887 1.356 . S
N890 C882 1.356 . S
N890 H896 0.984 . S
N890 H897 0.984 . S
N891 C884 1.356 . S
N891 H894 0.984 . S
N891 H895 0.985 . S
H892 N887 0.984 . S
H893 N887 0.985 . S
H894 N891 0.984 . S
H895 N891 0.985 . S
H896 N890 0.984 . S
H897 N890 0.984 . S
H898 N886 0.984 . S
H899 N886 0.985 . S
C900 C901 1.363 . S
C900 C906 1.379 . S
C900 N908 1.356 . S
C901 C900 1.363 . S
C901 C907 1.363 . S
C902 C903 1.363 . S
C902 C907 1.379 . S
C902 N909 1.338 1_565 S
C903 C902 1.363 . S
C903 C906 1.363 . S
N904 C906 1.356 . S
N904 H916 0.984 . S
N904 H917 0.985 . S
N905 C907 1.356 . S
N905 H910 0.984 . S
N905 H911 0.985 . S
C906 C900 1.379 . S
C906 C903 1.363 . S
C906 N904 1.356 . S
C907 C901 1.363 . S
C907 C902 1.379 . S
C907 N905 1.356 . S
N908 C900 1.356 . S
N908 H914 0.984 . S
N908 H915 0.984 . S
N909 C902 1.338 1_545 S
N909 H912 0.996 . S
N909 H913 0.992 . S
H910 N905 0.984 . S
H911 N905 0.985 . S
H912 N909 0.996 . S
H913 N909 0.992 . S
H914 N908 0.984 . S
H915 N908 0.984 . S
H916 N904 0.984 . S
H917 N904 0.985 . S
C918 C919 1.363 . S
C918 C924 1.379 . S
C918 N926 1.356 . S
C919 C918 1.363 . S
C919 C925 1.363 . S
C920 C921 1.363 . S
C920 C925 1.379 . S
C920 N927 1.356 . S
C921 C920 1.363 . S
C921 C924 1.363 . S
N922 C924 1.356 . S
N922 H934 0.984 . S
N922 H935 0.985 . S
N923 C925 1.356 . S
N923 H928 0.984 . S
N923 H929 0.985 . S
C924 C918 1.379 . S
C924 C921 1.363 . S
C924 N922 1.356 . S
C925 C919 1.363 . S
C925 C920 1.379 . S
C925 N923 1.356 . S
N926 C918 1.356 . S
N926 H932 0.984 . S
N926 H933 0.984 . S
N927 C920 1.356 . S
N927 H930 0.984 . S
N927 H931 0.985 . S
H928 N923 0.984 . S
H929 N923 0.985 . S
H930 N927 0.984 . S
H931 N927 0.985 . S
H932 N926 0.984 . S
H933 N926 0.984 . S
H934 N922 0.984 . S
H935 N922 0.985 . S
C936 C937 1.363 . S
C936 C942 1.379 . S
C936 N944 1.356 . S
C937 C936 1.363 . S
C937 C943 1.363 . S
C938 C939 1.363 . S
C938 C943 1.379 . S
C938 N945 1.356 . S
C939 C938 1.363 . S
C939 C942 1.363 . S
N940 C942 1.356 . S
N940 H952 0.984 . S
N940 H953 0.985 . S
N941 C943 1.356 . S
N941 H946 0.984 . S
N941 H947 0.985 . S
C942 C936 1.379 . S
C942 C939 1.363 . S
C942 N940 1.356 . S
C943 C937 1.363 . S
C943 C938 1.379 . S
C943 N941 1.356 . S
N944 C936 1.356 . S
N944 H950 0.984 . S
N944 H951 0.984 . S
N945 C938 1.356 . S
N945 H948 0.984 . S
N945 H949 0.985 . S
H946 N941 0.984 . S
H947 N941 0.985 . S
H948 N945 0.984 . S
H949 N945 0.985 . S
H950 N944 0.984 . S
H951 N944 0.984 . S
H952 N940 0.984 . S
H953 N940 0.985 . S
C954 C955 1.363 . S
C954 C960 1.379 . S
C954 N962 1.356 . S
C955 C954 1.363 . S
C955 C961 1.363 . S
C956 C957 1.363 . S
C956 C961 1.379 . S
C956 N963 1.356 . S
C957 C956 1.363 . S
C957 C960 1.363 . S
N958 C960 1.356 . S
N958 H970 0.984 . S
N958 H971 0.985 . S
N959 C961 1.356 . S
N959 H964 0.984 . S
N959 H965 0.985 . S
C960 C954 1.379 . S
C960 C957 1.363 . S
C960 N958 1.356 . S
C961 C955 1.363 . S
C961 C956 1.379 . S
C961 N959 1.356 . S
N962 C954 1.356 . S
N962 H968 0.984 . S
N962 H969 0.984 . S
N963 C956 1.356 . S
N963 H966 0.984 . S
N963 H967 0.985 . S
H964 N959 0.984 . S
H965 N959 0.985 . S
H966 N963 0.984 . S
H967 N963 0.985 . S
H968 N962 0.984 . S
H969 N962 0.984 . S
H970 N958 0.984 . S
H971 N958 0.985 . S
C972 C973 1.363 . S
C972 C978 1.379 . S
C972 N980 1.356 . S
C973 C972 1.363 . S
C973 C979 1.363 . S
C974 C975 1.363 . S
C974 C979 1.379 . S
C974 N981 1.356 . S
C975 C974 1.363 . S
C975 C978 1.363 . S
N976 C978 1.356 . S
N976 H988 0.984 . S
N976 H989 0.985 . S
N977 C979 1.356 . S
N977 H982 0.984 . S
N977 H983 0.985 . S
C978 C972 1.379 . S
C978 C975 1.363 . S
C978 N976 1.356 . S
C979 C973 1.363 . S
C979 C974 1.379 . S
C979 N977 1.356 . S
N980 C972 1.356 . S
N980 H986 0.984 . S
N980 H987 0.984 . S
N981 C974 1.356 . S
N981 H984 0.984 . S
N981 H985 0.985 . S
H982 N977 0.984 . S
H983 N977 0.985 . S
H984 N981 0.984 . S
H985 N981 0.985 . S
H986 N980 0.984 . S
H987 N980 0.984 . S
H988 N976 0.984 . S
H989 N976 0.985 . S
C990 C991 1.363 . S
C990 C996 1.379 . S
C990 N998 1.356 . S
C991 C990 1.363 . S
C991 C997 1.363 . S
C992 C993 1.363 . S
C992 C997 1.379 . S
C992 N999 1.356 . S
C993 C992 1.363 . S
C993 C996 1.363 . S
N994 C996 1.356 . S
N994 H1006 0.984 . S
N994 H1007 0.985 . S
N995 C997 1.356 . S
N995 H1000 0.984 . S
N995 H1001 0.985 . S
C996 C990 1.379 . S
C996 C993 1.363 . S
C996 N994 1.356 . S
C997 C991 1.363 . S
C997 C992 1.379 . S
C997 N995 1.356 . S
N998 C990 1.356 . S
N998 H1004 0.984 . S
N998 H1005 0.984 . S
N999 C992 1.356 . S
N999 H1002 0.984 . S
N999 H1003 0.985 . S
H1000 N995 0.984 . S
H1001 N995 0.985 . S
H1002 N999 0.984 . S
H1003 N999 0.985 . S
H1004 N998 0.984 . S
H1005 N998 0.984 . S
H1006 N994 0.984 . S
H1007 N994 0.985 . S
C1008 C1009 1.363 . S
C1008 C1014 1.379 . S
C1008 N1016 1.356 . S
C1009 C1008 1.363 . S
C1009 C1015 1.363 . S
C1010 C1011 1.363 . S
C1010 C1015 1.379 . S
C1010 N1017 1.356 . S
C1011 C1010 1.363 . S
C1011 C1014 1.363 . S
N1012 C1014 1.356 . S
N1012 H1024 0.984 . S
N1012 H1025 0.985 . S
N1013 C1015 1.356 . S
N1013 H1018 0.984 . S
N1013 H1019 0.985 . S
C1014 C1008 1.379 . S
C1014 C1011 1.363 . S
C1014 N1012 1.356 . S
C1015 C1009 1.363 . S
C1015 C1010 1.379 . S
C1015 N1013 1.356 . S
N1016 C1008 1.356 . S
N1016 H1022 0.984 . S
N1016 H1023 0.984 . S
N1017 C1010 1.356 . S
N1017 H1020 0.984 . S
N1017 H1021 0.985 . S
H1018 N1013 0.984 . S
H1019 N1013 0.985 . S
H1020 N1017 0.984 . S
H1021 N1017 0.985 . S
H1022 N1016 0.984 . S
H1023 N1016 0.984 . S
H1024 N1012 0.984 . S
H1025 N1012 0.985 . S
C1026 C1027 1.363 . S
C1026 C1032 1.379 1_554 S
C1026 N1034 1.356 . S
C1027 C1026 1.363 . S
C1027 C1033 1.363 1_545 S
C1028 C1029 1.363 . S
C1028 C1033 1.379 1_556 S
C1028 N1035 1.356 . S
C1029 C1028 1.363 . S
C1029 C1032 1.363 1_565 S
N1030 C1032 1.356 . S
N1030 H1042 0.984 . S
N1030 H1043 0.985 . S
N1031 C1033 1.356 . S
N1031 H1036 0.984 . S
N1031 H1037 0.985 . S
C1032 C1026 1.379 1_556 S
C1032 C1029 1.363 1_545 S
C1032 N1030 1.356 . S
C1033 C1027 1.363 1_565 S
C1033 C1028 1.379 1_554 S
C1033 N1031 1.356 . S
N1034 C1026 1.356 . S
N1034 H1040 0.984 . S
N1034 H1041 0.984 . S
N1035 C1028 1.356 . S
N1035 H1038 0.984 . S
N1035 H1039 0.985 . S
H1036 N1031 0.984 . S
H1037 N1031 0.985 . S
H1038 N1035 0.984 . S
H1039 N1035 0.985 . S
H1040 N1034 0.984 . S
H1041 N1034 0.984 . S
H1042 N1030 0.984 . S
H1043 N1030 0.985 . S
C1044 C1045 1.363 . S
C1044 C1050 1.379 1_556 S
C1044 N1052 1.356 . S
C1045 C1044 1.363 . S
C1045 C1051 1.363 1_455 S
C1046 C1047 1.363 . S
C1046 C1051 1.379 1_554 S
C1046 N1053 1.356 . S
C1047 C1046 1.363 . S
C1047 C1050 1.363 1_655 S
N1048 C1050 1.356 . S
N1048 H1060 0.984 . S
N1048 H1061 0.985 . S
N1049 C1051 1.356 . S
N1049 H1054 0.984 . S
N1049 H1055 0.985 . S
C1050 C1044 1.379 1_554 S
C1050 C1047 1.363 1_455 S
C1050 N1048 1.356 . S
C1051 C1045 1.363 1_655 S
C1051 C1046 1.379 1_556 S
C1051 N1049 1.356 . S
N1052 C1044 1.356 . S
N1052 H1058 0.984 . S
N1052 H1059 0.984 . S
N1053 C1046 1.356 . S
N1053 H1056 0.984 . S
N1053 H1057 0.985 . S
H1054 N1049 0.984 . S
H1055 N1049 0.985 . S
H1056 N1053 0.984 . S
H1057 N1053 0.985 . S
H1058 N1052 0.984 . S
H1059 N1052 0.984 . S
H1060 N1048 0.984 . S
H1061 N1048 0.985 . S
C1062 C1063 1.363 . S
C1062 C1068 1.379 1_556 S
C1062 N1070 1.356 . S
C1063 C1062 1.363 . S
C1063 C1069 1.363 . S
C1064 C1065 1.363 . S
C1064 C1069 1.379 1_554 S
C1064 N1071 1.356 . S
C1065 C1064 1.363 . S
C1065 C1068 1.363 . S
N1066 C1068 1.356 . S
N1066 H1078 0.984 . S
N1066 H1079 0.985 . S
N1067 C1069 1.356 . S
N1067 H1072 0.984 . S
N1067 H1073 0.985 . S
C1068 C1062 1.379 1_554 S
C1068 C1065 1.363 . S
C1068 N1066 1.356 . S
C1069 C1063 1.363 . S
C1069 C1064 1.379 1_556 S
C1069 N1067 1.356 . S
N1070 C1062 1.356 . S
N1070 H1076 0.984 . S
N1070 H1077 0.984 . S
N1071 C1064 1.356 . S
N1071 H1074 0.984 . S
N1071 H1075 0.985 . S
H1072 N1067 0.984 . S
H1073 N1067 0.985 . S
H1074 N1071 0.984 . S
H1075 N1071 0.985 . S
H1076 N1070 0.984 . S
H1077 N1070 0.984 . S
H1078 N1066 0.984 . S
H1079 N1066 0.985 . S
C1080 C1081 1.363 . S
C1080 C1086 1.379 . S
C1080 N1088 1.356 . S
C1081 C1080 1.363 . S
C1081 C1087 1.363 . S
C1082 C1083 1.363 . S
C1082 C1087 1.379 . S
C1082 N1089 1.356 . S
C1083 C1082 1.363 . S
C1083 C1086 1.363 . S
N1084 C1086 1.356 . S
N1084 H1096 0.984 . S
N1084 H1097 0.985 . S
N1085 C1087 1.356 . S
N1085 H1090 0.984 . S
N1085 H1091 0.985 . S
C1086 C1080 1.379 . S
C1086 C1083 1.363 . S
C1086 N1084 1.356 . S
C1087 C1081 1.363 . S
C1087 C1082 1.379 . S
C1087 N1085 1.356 . S
N1088 C1080 1.356 . S
N1088 H1094 0.984 . S
N1088 H1095 0.984 1_556 S
N1089 C1082 1.356 . S
N1089 H1092 0.984 . S
N1089 H1093 0.985 . S
H1090 N1085 0.984 . S
H1091 N1085 0.985 . S
H1092 N1089 0.984 . S
H1093 N1089 0.985 . S
H1094 N1088 0.984 . S
H1095 N1088 0.984 1_554 S
H1096 N1084 0.984 . S
H1097 N1084 0.985 . S
C1098 C1099 1.363 . S
C1098 C1104 1.379 . S
C1098 N1106 1.356 . S
C1099 C1098 1.363 . S
C1099 C1105 1.363 . S
C1100 C1101 1.363 1_554 S
C1100 C1105 1.379 1_554 S
C1100 N1107 1.356 . S
C1101 C1100 1.363 1_556 S
C1101 C1104 1.363 . S
N1102 C1104 1.356 . S
N1102 H1114 0.984 . S
N1102 H1115 0.985 . S
N1103 C1105 1.356 1_554 S
N1103 H1108 0.984 1_554 S
N1103 H1109 0.985 . S
C1104 C1098 1.379 . S
C1104 C1101 1.363 . S
C1104 N1102 1.356 . S
C1105 C1099 1.363 . S
C1105 C1100 1.379 1_556 S
C1105 N1103 1.356 1_556 S
N1106 C1098 1.356 . S
N1106 H1112 0.984 . S
N1106 H1113 0.984 . S
N1107 C1100 1.356 . S
N1107 H1110 0.984 . S
N1107 H1111 0.985 . S
H1108 N1103 0.984 1_556 S
H1109 N1103 0.985 . S
H1110 N1107 0.984 . S
H1111 N1107 0.985 . S
H1112 N1106 0.984 . S
H1113 N1106 0.984 . S
H1114 N1102 0.984 . S
H1115 N1102 0.985 . S
C1116 C1117 1.363 . S
C1116 C1122 1.379 . S
C1116 N1124 1.356 1_556 S
C1117 C1116 1.363 . S
C1117 C1123 1.363 . S
C1118 C1119 1.363 . S
C1118 C1123 1.379 . S
C1118 N1125 1.356 . S
C1119 C1118 1.363 . S
C1119 C1122 1.363 . S
N1120 C1122 1.356 . S
N1120 H1132 0.984 1_556 S
N1120 H1133 0.985 . S
N1121 C1123 1.356 . S
N1121 H1126 0.984 . S
N1121 H1127 0.985 . S
C1122 C1116 1.379 . S
C1122 C1119 1.363 . S
C1122 N1120 1.356 . S
C1123 C1117 1.363 . S
C1123 C1118 1.379 . S
C1123 N1121 1.356 . S
N1124 C1116 1.356 1_554 S
N1124 H1130 0.984 . S
N1124 H1131 0.984 . S
N1125 C1118 1.356 . S
N1125 H1128 0.984 . S
N1125 H1129 0.985 . S
H1126 N1121 0.984 . S
H1127 N1121 0.985 . S
H1128 N1125 0.984 . S
H1129 N1125 0.985 . S
H1130 N1124 0.984 . S
H1131 N1124 0.984 . S
H1132 N1120 0.984 1_554 S
H1133 N1120 0.985 . S
C1134 C1135 1.363 . S
C1134 C1140 1.379 1_554 S
C1134 N1142 1.354 1_554 S
C1135 C1134 1.363 . S
C1135 C1141 1.363 . S
C1136 C1137 1.363 . S
C1136 C1141 1.379 . S
C1136 N1143 1.356 . S
C1137 C1136 1.363 . S
C1137 C1140 1.363 1_554 S
N1138 C1140 1.356 . S
N1138 H1150 0.984 . S
N1138 H1151 0.985 . S
N1139 C1141 1.356 . S
N1139 H1144 0.984 . S
N1139 H1145 0.985 . S
C1140 C1134 1.379 1_556 S
C1140 C1137 1.363 1_556 S
C1140 N1138 1.356 . S
C1141 C1135 1.363 . S
C1141 C1136 1.379 . S
C1141 N1139 1.356 . S
N1142 C1134 1.354 1_556 S
N1142 H1148 0.991 . S
N1142 H1149 0.980 1_556 S
N1143 C1136 1.356 . S
N1143 H1146 0.984 . S
N1143 H1147 0.985 . S
H1144 N1139 0.984 . S
H1145 N1139 0.985 . S
H1146 N1143 0.984 . S
H1147 N1143 0.985 . S
H1148 N1142 0.991 . S
H1149 N1142 0.980 1_554 S
H1150 N1138 0.984 . S
H1151 N1138 0.985 . S
C1152 C1153 1.363 1_556 S
C1152 C1158 1.379 1_556 S
C1152 N1160 1.356 . S
C1153 C1152 1.363 1_554 S
C1153 C1159 1.363 . S
C1154 C1155 1.363 . S
C1154 C1159 1.379 . S
C1154 N1161 1.356 . S
C1155 C1154 1.363 . S
C1155 C1158 1.363 . S
N1156 C1158 1.356 1_556 S
N1156 H1168 0.984 . S
N1156 H1169 0.985 1_556 S
N1157 C1159 1.356 . S
N1157 H1162 0.984 . S
N1157 H1163 0.985 . S
C1158 C1152 1.379 1_554 S
C1158 C1155 1.363 . S
C1158 N1156 1.356 1_554 S
C1159 C1153 1.363 . S
C1159 C1154 1.379 . S
C1159 N1157 1.356 . S
N1160 C1152 1.356 . S
N1160 H1166 0.984 . S
N1160 H1167 0.984 . S
N1161 C1154 1.356 . S
N1161 H1164 0.984 . S
N1161 H1165 0.985 . S
H1162 N1157 0.984 . S
H1163 N1157 0.985 . S
H1164 N1161 0.984 . S
H1165 N1161 0.985 . S
H1166 N1160 0.984 . S
H1167 N1160 0.984 . S
H1168 N1156 0.984 . S
H1169 N1156 0.985 1_554 S
C1170 C1171 1.363 . S
C1170 C1176 1.379 . S
C1170 N1178 1.356 . S
C1171 C1170 1.363 . S
C1171 C1177 1.363 . S
C1172 C1173 1.363 . S
C1172 C1177 1.379 . S
C1172 N1179 1.356 . S
C1173 C1172 1.363 . S
C1173 C1176 1.363 . S
N1174 C1176 1.356 1_556 S
N1174 H1186 0.984 . S
N1174 H1187 0.985 . S
N1175 C1177 1.356 . S
N1175 H1180 0.984 . S
N1175 H1181 0.985 . S
C1176 C1170 1.379 . S
C1176 C1173 1.363 . S
C1176 N1174 1.356 1_554 S
C1177 C1171 1.363 . S
C1177 C1172 1.379 . S
C1177 N1175 1.356 . S
N1178 C1170 1.356 . S
N1178 H1184 0.984 1_554 S
N1178 H1185 0.984 . S
N1179 C1172 1.356 . S
N1179 H1182 0.984 . S
N1179 H1183 0.985 . S
H1180 N1175 0.984 . S
H1181 N1175 0.985 . S
H1182 N1179 0.984 . S
H1183 N1179 0.985 . S
H1184 N1178 0.984 1_556 S
H1185 N1178 0.984 . S
H1186 N1174 0.984 . S
H1187 N1174 0.985 . S
C1188 C1189 1.363 . S
C1188 C1194 1.379 . S
C1188 N1196 1.356 . S
C1189 C1188 1.363 . S
C1189 C1195 1.363 . S
C1190 C1191 1.363 . S
C1190 C1195 1.379 . S
C1190 N1197 1.356 . S
C1191 C1190 1.363 . S
C1191 C1194 1.363 . S
N1192 C1194 1.356 . S
N1192 H1204 0.984 . S
N1192 H1205 0.985 . S
N1193 C1195 1.356 . S
N1193 H1198 0.984 . S
N1193 H1199 0.985 . S
C1194 C1188 1.379 . S
C1194 C1191 1.363 . S
C1194 N1192 1.356 . S
C1195 C1189 1.363 . S
C1195 C1190 1.379 . S
C1195 N1193 1.356 . S
N1196 C1188 1.356 . S
N1196 H1202 0.984 . S
N1196 H1203 0.984 . S
N1197 C1190 1.356 . S
N1197 H1200 0.984 . S
N1197 H1201 0.985 . S
H1198 N1193 0.984 . S
H1199 N1193 0.985 . S
H1200 N1197 0.984 . S
H1201 N1197 0.985 . S
H1202 N1196 0.984 . S
H1203 N1196 0.984 . S
H1204 N1192 0.984 . S
H1205 N1192 0.985 . S
C1206 C1207 1.363 . S
C1206 C1212 1.379 . S
C1206 N1214 1.356 . S
C1207 C1206 1.363 . S
C1207 C1213 1.363 . S
C1208 C1209 1.363 . S
C1208 C1213 1.379 . S
C1208 N1215 1.356 . S
C1209 C1208 1.363 . S
C1209 C1212 1.363 . S
N1210 C1212 1.356 . S
N1210 H1222 0.984 . S
N1210 H1223 0.985 . S
N1211 C1213 1.356 . S
N1211 H1216 0.984 . S
N1211 H1217 0.985 . S
C1212 C1206 1.379 . S
C1212 C1209 1.363 . S
C1212 N1210 1.356 . S
C1213 C1207 1.363 . S
C1213 C1208 1.379 . S
C1213 N1211 1.356 . S
N1214 C1206 1.356 . S
N1214 H1220 0.984 . S
N1214 H1221 0.984 . S
N1215 C1208 1.356 . S
N1215 H1218 0.984 . S
N1215 H1219 0.985 . S
H1216 N1211 0.984 . S
H1217 N1211 0.985 . S
H1218 N1215 0.984 . S
H1219 N1215 0.985 . S
H1220 N1214 0.984 . S
H1221 N1214 0.984 . S
H1222 N1210 0.984 . S
H1223 N1210 0.985 . S
C1224 C1225 1.363 . S
C1224 C1230 1.379 . S
C1224 N1232 1.356 . S
C1225 C1224 1.363 . S
C1225 C1231 1.363 . S
C1226 C1227 1.363 . S
C1226 C1231 1.379 . S
C1226 N1233 1.356 . S
C1227 C1226 1.363 . S
C1227 C1230 1.363 . S
N1228 C1230 1.356 . S
N1228 H1240 0.984 . S
N1228 H1241 0.985 . S
N1229 C1231 1.356 . S
N1229 H1234 0.984 . S
N1229 H1235 0.985 . S
C1230 C1224 1.379 . S
C1230 C1227 1.363 . S
C1230 N1228 1.356 . S
C1231 C1225 1.363 . S
C1231 C1226 1.379 . S
C1231 N1229 1.356 . S
N1232 C1224 1.356 . S
N1232 H1238 0.984 . S
N1232 H1239 0.984 . S
N1233 C1226 1.356 . S
N1233 H1236 0.984 . S
N1233 H1237 0.985 . S
H1234 N1229 0.984 . S
H1235 N1229 0.985 . S
H1236 N1233 0.984 . S
H1237 N1233 0.985 . S
H1238 N1232 0.984 . S
H1239 N1232 0.984 . S
H1240 N1228 0.984 . S
H1241 N1228 0.985 . S
C1242 C1243 1.363 . S
C1242 C1248 1.379 . S
C1242 N1250 1.356 . S
C1243 C1242 1.363 . S
C1243 C1249 1.363 . S
C1244 C1245 1.363 . S
C1244 C1249 1.379 . S
C1244 N1251 1.356 . S
C1245 C1244 1.363 . S
C1245 C1248 1.363 . S
N1246 C1248 1.356 . S
N1246 H1258 0.984 . S
N1246 H1259 0.985 . S
N1247 C1249 1.356 . S
N1247 H1252 0.984 . S
N1247 H1253 0.985 . S
C1248 C1242 1.379 . S
C1248 C1245 1.363 . S
C1248 N1246 1.356 . S
C1249 C1243 1.363 . S
C1249 C1244 1.379 . S
C1249 N1247 1.356 . S
N1250 C1242 1.356 . S
N1250 H1256 0.984 . S
N1250 H1257 0.984 . S
N1251 C1244 1.356 . S
N1251 H1254 0.984 . S
N1251 H1255 0.985 . S
H1252 N1247 0.984 . S
H1253 N1247 0.985 . S
H1254 N1251 0.984 . S
H1255 N1251 0.985 . S
H1256 N1250 0.984 . S
H1257 N1250 0.984 . S
H1258 N1246 0.984 . S
H1259 N1246 0.985 . S
C1260 C1261 1.363 . S
C1260 C1266 1.379 . S
C1260 N1268 1.356 . S
C1261 C1260 1.363 . S
C1261 C1267 1.363 . S
C1262 C1263 1.363 . S
C1262 C1267 1.379 . S
C1262 N1269 1.356 . S
C1263 C1262 1.363 . S
C1263 C1266 1.363 . S
N1264 C1266 1.356 . S
N1264 H1276 0.984 . S
N1264 H1277 0.985 . S
N1265 C1267 1.356 . S
N1265 H1270 0.984 . S
N1265 H1271 0.985 . S
C1266 C1260 1.379 . S
C1266 C1263 1.363 . S
C1266 N1264 1.356 . S
C1267 C1261 1.363 . S
C1267 C1262 1.379 . S
C1267 N1265 1.356 . S
N1268 C1260 1.356 . S
N1268 H1274 0.984 . S
N1268 H1275 0.984 . S
N1269 C1262 1.356 . S
N1269 H1272 0.984 . S
N1269 H1273 0.985 . S
H1270 N1265 0.984 . S
H1271 N1265 0.985 . S
H1272 N1269 0.984 . S
H1273 N1269 0.985 . S
H1274 N1268 0.984 . S
H1275 N1268 0.984 . S
H1276 N1264 0.984 . S
H1277 N1264 0.985 . S
C1278 C1279 1.363 . S
C1278 C1284 1.379 . S
C1278 N1286 1.356 . S
C1279 C1278 1.363 . S
C1279 C1285 1.363 . S
C1280 C1281 1.363 . S
C1280 C1285 1.379 . S
C1280 N1287 1.356 . S
C1281 C1280 1.363 . S
C1281 C1284 1.363 . S
N1282 C1284 1.356 . S
N1282 H1294 0.984 . S
N1282 H1295 0.985 . S
N1283 C1285 1.356 . S
N1283 H1288 0.984 . S
N1283 H1289 0.985 . S
C1284 C1278 1.379 . S
C1284 C1281 1.363 . S
C1284 N1282 1.356 . S
C1285 C1279 1.363 . S
C1285 C1280 1.379 . S
C1285 N1283 1.356 . S
N1286 C1278 1.356 . S
N1286 H1292 0.984 . S
N1286 H1293 0.984 . S
N1287 C1280 1.356 . S
N1287 H1290 0.984 . S
N1287 H1291 0.985 . S
H1288 N1283 0.984 . S
H1289 N1283 0.985 . S
H1290 N1287 0.984 . S
H1291 N1287 0.985 . S
H1292 N1286 0.984 . S
H1293 N1286 0.984 . S
H1294 N1282 0.984 . S
H1295 N1282 0.985 . S
C1296 C1297 1.363 . S
C1296 C1302 1.379 . S
C1296 N1304 1.356 . S
C1297 C1296 1.363 . S
C1297 C1303 1.363 . S
C1298 C1299 1.363 . S
C1298 C1303 1.379 . S
C1298 N1305 1.356 . S
C1299 C1298 1.363 . S
C1299 C1302 1.363 . S
N1300 C1302 1.356 . S
N1300 H1312 0.984 . S
N1300 H1313 0.985 . S
N1301 C1303 1.356 . S
N1301 H1306 0.984 . S
N1301 H1307 0.985 . S
C1302 C1296 1.379 . S
C1302 C1299 1.363 . S
C1302 N1300 1.356 . S
C1303 C1297 1.363 . S
C1303 C1298 1.379 . S
C1303 N1301 1.356 . S
N1304 C1296 1.356 . S
N1304 H1310 0.984 . S
N1304 H1311 0.984 . S
N1305 C1298 1.356 . S
N1305 H1308 0.984 . S
N1305 H1309 0.985 . S
H1306 N1301 0.984 . S
H1307 N1301 0.985 . S
H1308 N1305 0.984 . S
H1309 N1305 0.985 . S
H1310 N1304 0.984 . S
H1311 N1304 0.984 . S
H1312 N1300 0.984 . S
H1313 N1300 0.985 . S
C1314 C1315 1.363 . S
C1314 C1320 1.379 . S
C1314 N1322 1.356 . S
C1315 C1314 1.363 . S
C1315 C1321 1.363 . S
C1316 C1317 1.363 . S
C1316 C1321 1.379 . S
C1316 N1323 1.356 . S
C1317 C1316 1.363 . S
C1317 C1320 1.363 . S
N1318 C1320 1.356 . S
N1318 H1330 0.984 . S
N1318 H1331 0.985 . S
N1319 C1321 1.356 . S
N1319 H1324 0.984 . S
N1319 H1325 0.985 . S
C1320 C1314 1.379 . S
C1320 C1317 1.363 . S
C1320 N1318 1.356 . S
C1321 C1315 1.363 . S
C1321 C1316 1.379 . S
C1321 N1319 1.356 . S
N1322 C1314 1.356 . S
N1322 H1328 0.984 . S
N1322 H1329 0.984 . S
N1323 C1316 1.356 . S
N1323 H1326 0.984 . S
N1323 H1327 0.985 . S
H1324 N1319 0.984 . S
H1325 N1319 0.985 . S
H1326 N1323 0.984 . S
H1327 N1323 0.985 . S
H1328 N1322 0.984 . S
H1329 N1322 0.984 . S
H1330 N1318 0.984 . S
H1331 N1318 0.985 . S
C1332 C1333 1.363 . S
C1332 C1338 1.379 . S
C1332 N1340 1.356 . S
C1333 C1332 1.363 . S
C1333 C1339 1.363 . S
C1334 C1335 1.363 . S
C1334 C1339 1.379 . S
C1334 N1341 1.356 . S
C1335 C1334 1.363 . S
C1335 C1338 1.363 . S
N1336 C1338 1.356 . S
N1336 H1348 0.984 . S
N1336 H1349 0.985 . S
N1337 C1339 1.356 . S
N1337 H1342 0.984 . S
N1337 H1343 0.985 . S
C1338 C1332 1.379 . S
C1338 C1335 1.363 . S
C1338 N1336 1.356 . S
C1339 C1333 1.363 . S
C1339 C1334 1.379 . S
C1339 N1337 1.356 . S
N1340 C1332 1.356 . S
N1340 H1346 0.984 . S
N1340 H1347 0.984 . S
N1341 C1334 1.356 . S
N1341 H1344 0.984 . S
N1341 H1345 0.985 . S
H1342 N1337 0.984 . S
H1343 N1337 0.985 . S
H1344 N1341 0.984 . S
H1345 N1341 0.985 . S
H1346 N1340 0.984 . S
H1347 N1340 0.984 . S
H1348 N1336 0.984 . S
H1349 N1336 0.985 . S
C1350 C1351 1.363 . S
C1350 C1356 1.379 . S
C1350 N1358 1.356 . S
C1351 C1350 1.363 . S
C1351 C1357 1.363 . S
C1352 C1353 1.363 . S
C1352 C1357 1.379 . S
C1352 N1359 1.356 . S
C1353 C1352 1.363 . S
C1353 C1356 1.363 . S
N1354 C1356 1.356 . S
N1354 H1366 0.984 . S
N1354 H1367 0.985 . S
N1355 C1357 1.356 . S
N1355 H1360 0.984 . S
N1355 H1361 0.985 . S
C1356 C1350 1.379 . S
C1356 C1353 1.363 . S
C1356 N1354 1.356 . S
C1357 C1351 1.363 . S
C1357 C1352 1.379 . S
C1357 N1355 1.356 . S
N1358 C1350 1.356 . S
N1358 H1364 0.984 . S
N1358 H1365 0.984 . S
N1359 C1352 1.356 . S
N1359 H1362 0.984 . S
N1359 H1363 0.985 . S
H1360 N1355 0.984 . S
H1361 N1355 0.985 . S
H1362 N1359 0.984 . S
H1363 N1359 0.985 . S
H1364 N1358 0.984 . S
H1365 N1358 0.984 . S
H1366 N1354 0.984 . S
H1367 N1354 0.985 . S
C1368 C1369 1.363 . S
C1368 C1374 1.379 . S
C1368 N1376 1.356 . S
C1369 C1368 1.363 . S
C1369 C1375 1.363 . S
C1370 C1371 1.363 . S
C1370 C1375 1.379 . S
C1370 N1377 1.356 . S
C1371 C1370 1.363 . S
C1371 C1374 1.363 . S
N1372 C1374 1.356 . S
N1372 H1384 0.984 . S
N1372 H1385 0.985 . S
N1373 C1375 1.356 . S
N1373 H1378 0.984 . S
N1373 H1379 0.985 . S
C1374 C1368 1.379 . S
C1374 C1371 1.363 . S
C1374 N1372 1.356 . S
C1375 C1369 1.363 . S
C1375 C1370 1.379 . S
C1375 N1373 1.356 . S
N1376 C1368 1.356 . S
N1376 H1382 0.984 . S
N1376 H1383 0.984 . S
N1377 C1370 1.356 . S
N1377 H1380 0.984 . S
N1377 H1381 0.985 . S
H1378 N1373 0.984 . S
H1379 N1373 0.985 . S
H1380 N1377 0.984 . S
H1381 N1377 0.985 . S
H1382 N1376 0.984 . S
H1383 N1376 0.984 . S
H1384 N1372 0.984 . S
H1385 N1372 0.985 . S
C1386 C1387 1.363 . S
C1386 C1392 1.379 . S
C1386 N1394 1.356 . S
C1387 C1386 1.363 . S
C1387 C1393 1.363 . S
C1388 C1389 1.363 . S
C1388 C1393 1.379 . S
C1388 N1395 1.356 . S
C1389 C1388 1.363 . S
C1389 C1392 1.363 . S
N1390 C1392 1.356 . S
N1390 H1402 0.984 . S
N1390 H1403 0.985 . S
N1391 C1393 1.356 . S
N1391 H1396 0.984 . S
N1391 H1397 0.985 . S
C1392 C1386 1.379 . S
C1392 C1389 1.363 . S
C1392 N1390 1.356 . S
C1393 C1387 1.363 . S
C1393 C1388 1.379 . S
C1393 N1391 1.356 . S
N1394 C1386 1.356 . S
N1394 H1400 0.984 . S
N1394 H1401 0.984 . S
N1395 C1388 1.356 . S
N1395 H1398 0.984 . S
N1395 H1399 0.985 . S
H1396 N1391 0.984 . S
H1397 N1391 0.985 . S
H1398 N1395 0.984 . S
H1399 N1395 0.985 . S
H1400 N1394 0.984 . S
H1401 N1394 0.984 . S
H1402 N1390 0.984 . S
H1403 N1390 0.985 . S
C595 C28 1.220 . S
C597 C248 1.280 . S
C613 C61 1.220 1_545 S
C615 C281 1.280 . S
C631 C94 1.220 1_655 S
C633 C215 1.280 . S
C649 C545 1.280 . S
C651 C127 1.220 . S
C667 C160 1.220 1_565 S
C669 C578 1.280 . S
C685 C193 1.220 1_455 S
C687 C512 1.280 . S
C703 C226 1.220 . S
C705 C446 1.280 1_655 S
C721 C479 1.280 . S
C723 C259 1.220 . S
C739 C413 1.280 1_545 S
C741 C292 1.220 . S
C757 C325 1.220 . S
C759 C149 1.280 . S
C775 C358 1.220 . S
C777 C182 1.280 . S
C793 C391 1.220 . S
C795 C116 1.280 . S
C811 C424 1.220 . S
C813 C50 1.280 . S
C829 C457 1.220 . S
C831 C83 1.280 . S
C847 C17 1.280 . S
C849 C490 1.220 . S
C865 C347 1.280 1_455 S
C867 C523 1.220 . S
C883 C556 1.220 . S
C885 C380 1.280 . S
C901 C589 1.220 . S
C903 C314 1.280 1_565 S
C919 N509 1.744 . S
C921 N14 1.744 . S
C937 N542 1.745 . S
C939 N47 1.745 . S
C955 N80 1.744 . S
C957 N575 1.744 . S
C973 N113 1.745 . S
C975 N212 1.745 . S
C991 N146 1.745 . S
C993 N245 1.745 . S
C1009 N278 1.744 . S
C1011 N179 1.744 . S
C1027 N311 1.745 . S
C1029 N410 1.745 . S
C1045 N443 1.745 . S
C1047 N344 1.745 . S
C1063 N476 1.745 . S
C1065 N377 1.745 . S
C1081 N5 1.553 1_556 S
C1083 C140 1.552 . S
C1099 C173 1.552 . S
C1101 N38 1.553 1_556 S
C1117 N71 1.553 1_556 S
C1119 C107 1.552 . S
C1135 C41 1.552 . S
C1137 N104 1.553 1_554 S
C1153 N137 1.553 1_554 S
C1155 C74 1.552 . S
C1171 C8 1.552 . S
C1173 N170 1.553 1_554 S
C1189 N203 1.553 . S
C1191 C338 1.552 . S
C1207 C371 1.552 . S
C1209 N236 1.553 . S
C1225 C305 1.552 . S
C1227 N269 1.553 . S
C1243 N302 1.553 . S
C1245 C239 1.552 . S
C1261 C272 1.552 . S
C1263 N335 1.553 . S
C1279 N368 1.553 . S
C1281 C206 1.552 . S
C1297 C536 1.552 . S
C1299 N401 1.553 . S
C1315 C569 1.552 . S
C1317 N434 1.553 . S
C1333 C503 1.552 . S
C1335 N467 1.553 . S
C1351 C437 1.552 . S
C1353 N500 1.553 . S
C1369 C470 1.552 . S
C1371 N533 1.553 . S
C1387 N566 1.553 . S
C1389 C404 1.552 . S
