# Generated by pormake.
# Topology mdf, (4)-cn, num edge types: 1
# Building blocks:
#     Node 0, Type 0, BuildingBlock: AZAVOO_clean_sbu_0, # of connection points: 4
#     Node 1, Type 0, BuildingBlock: AZAVOO_clean_sbu_0, # of connection points: 4
#     Node 2, Type 0, BuildingBlock: AZAVOO_clean_sbu_0, # of connection points: 4
#     Node 3, Type 0, BuildingBlock: AZAVOO_clean_sbu_0, # of connection points: 4
#     Node 4, Type 0, BuildingBlock: AZAVOO_clean_sbu_0, # of connection points: 4
#     Node 5, Type 0, BuildingBlock: AZAVOO_clean_sbu_0, # of connection points: 4
#     Node 6, Type 0, BuildingBlock: AZAVOO_clean_sbu_0, # of connection points: 4
#     Node 7, Type 0, BuildingBlock: AZAVOO_clean_sbu_0, # of connection points: 4
#     Edge 8, Type (0, 0), BuildingBlock: FUNLAD_clean_linker_0, # of connection points: 2
#     Edge 9, Type (0, 0), BuildingBlock: FUNLAD_clean_linker_0, # of connection points: 2
#     Edge 10, Type (0, 0), BuildingBlock: FUNLAD_clean_linker_0, # of connection points: 2
#     Edge 11, Type (0, 0), BuildingBlock: FUNLAD_clean_linker_0, # of connection points: 2
#     Edge 12, Type (0, 0), BuildingBlock: FUNLAD_clean_linker_0, # of connection points: 2
#     Edge 13, Type (0, 0), BuildingBlock: FUNLAD_clean_linker_0, # of connection points: 2
#     Edge 14, Type (0, 0), BuildingBlock: FUNLAD_clean_linker_0, # of connection points: 2
#     Edge 15, Type (0, 0), BuildingBlock: FUNLAD_clean_linker_0, # of connection points: 2
#     Edge 16, Type (0, 0), BuildingBlock: FUNLAD_clean_linker_0, # of connection points: 2
#     Edge 17, Type (0, 0), BuildingBlock: FUNLAD_clean_linker_0, # of connection points: 2
#     Edge 18, Type (0, 0), BuildingBlock: FUNLAD_clean_linker_0, # of connection points: 2
#     Edge 19, Type (0, 0), BuildingBlock: FUNLAD_clean_linker_0, # of connection points: 2
#     Edge 20, Type (0, 0), BuildingBlock: FUNLAD_clean_linker_0, # of connection points: 2
#     Edge 21, Type (0, 0), BuildingBlock: FUNLAD_clean_linker_0, # of connection points: 2
#     Edge 22, Type (0, 0), BuildingBlock: FUNLAD_clean_linker_0, # of connection points: 2
#     Edge 23, Type (0, 0), BuildingBlock: FUNLAD_clean_linker_0, # of connection points: 2
# Relax obj value: 0.039
# Max RMSD: 0.047
# Mean RMSD: 0.047
data_MOF--net-mdf--node1-AZAVOO_clean_sbu_0--edge1-FUNLAD_clean_linker_0
_symmetry_space_group_name_H-M    P1
_symmetry_Int_Tables_number       1
_symmetry_cell_setting            triclinic
loop_
_symmetry_equiv_pos_as_xyz
'x, y, z'
_cell_length_a     39.757175
_cell_length_b     39.679275
_cell_length_c     18.412958
_cell_angle_alpha  90.002045
_cell_angle_beta   90.026373
_cell_angle_gamma 95.141081
loop_
_atom_site_label
_atom_site_type_symbol
_atom_site_fract_x
_atom_site_fract_y
_atom_site_fract_z
_atom_type_partial_charge
Mg0 Mg 0.27346 0.54836 0.40792 0.0
O1 O 0.22948 0.51381 0.35936 0.0
O2 O 0.25167 0.48224 0.27426 0.0
Mg3 Mg 0.30856 0.49577 0.26955 0.0
C4 C 0.22638 0.4911 0.30994 0.0
C5 C 0.24623 0.5889 0.52829 0.0
O6 O 0.27449 0.57872 0.55378 0.0
O7 O 0.27535 0.58142 0.30717 0.0
O8 O 0.29834 0.54839 0.22608 0.0
O9 O 0.28193 0.50934 0.49009 0.0
O10 O 0.30718 0.51288 0.38305 0.0
C11 C 0.28634 0.57612 0.24349 0.0
C12 C 0.30188 0.49694 0.4436 0.0
O13 O 0.23722 0.58061 0.46405 0.0
Mg14 Mg 0.4418 0.73825 0.59183 0.0
O15 O 0.47639 0.78056 0.64681 0.0
O16 O 0.50772 0.75534 0.72794 0.0
Mg17 Mg 0.49451 0.69834 0.72353 0.0
C18 C 0.49893 0.78186 0.69654 0.0
C19 C 0.37838 0.76703 0.53051 0.0
O20 O 0.36612 0.73698 0.55298 0.0
O21 O 0.40886 0.73272 0.69287 0.0
O22 O 0.44212 0.70693 0.76903 0.0
O23 O 0.48092 0.73196 0.50775 0.0
O24 O 0.4771 0.70371 0.61123 0.0
C25 C 0.41438 0.71944 0.75434 0.0
C26 C 0.49309 0.71053 0.55141 0.0
O27 O 0.40931 0.77641 0.54224 0.0
Mg28 Mg 0.22268 0.92917 0.89512 0.0
O29 O 0.26927 0.96612 0.86641 0.0
O30 O 0.2517 0.00027 0.78008 0.0
Mg31 Mg 0.19654 0.98605 0.75382 0.0
C32 C 0.27473 0.99069 0.82161 0.0
C33 C 0.23515 0.87562 0.00256 0.0
O34 O 0.20228 0.87377 0.99298 0.0
O35 O 0.22978 0.8995 0.7908 0.0
O36 O 0.21323 0.93614 0.70848 0.0
O37 O 0.20738 0.96499 0.97797 0.0
O38 O 0.19047 0.96522 0.86363 0.0
C39 C 0.22456 0.908 0.72518 0.0
C40 C 0.19129 0.97918 0.92696 0.0
O41 O 0.25376 0.89589 0.96307 0.0
Mg42 Mg 0.04971 0.77677 0.09029 0.0
O43 O 0.02188 0.73632 0.16256 0.0
O44 O 0.99617 0.7637 0.24961 0.0
Mg45 Mg 0.00584 0.82086 0.23055 0.0
C46 C 0.00347 0.73629 0.21942 0.0
C47 C 0.07901 0.74028 0.96691 0.0
O48 O 0.06136 0.76313 0.93727 0.0
O49 O 0.09009 0.78788 0.177 0.0
O50 O 0.0626 0.81946 0.25377 0.0
O51 O 0.00412 0.77751 0.02018 0.0
O52 O 0.01425 0.81068 0.11529 0.0
C53 C 0.08937 0.80662 0.23316 0.0
C54 C 0.99429 0.80049 0.06307 0.0
O55 O 0.07993 0.73813 0.03571 0.0
Mg56 Mg 0.76533 0.05796 0.90231 0.0
O57 O 0.72274 0.02431 0.84601 0.0
O58 O 0.74743 0.99296 0.7641 0.0
Mg59 Mg 0.80441 0.00543 0.76899 0.0
C60 C 0.72112 0.00201 0.7957 0.0
C61 C 0.70665 0.07665 0.99861 0.0
O62 O 0.70528 0.04373 0.00787 0.0
O63 O 0.77146 0.09179 0.80253 0.0
O64 O 0.79659 0.05849 0.72531 0.0
O65 O 0.77079 0.0182 0.98522 0.0
O66 O 0.79918 0.02192 0.88203 0.0
C67 C 0.7846 0.08644 0.74087 0.0
C68 C 0.79184 0.00568 0.94139 0.0
O69 O 0.72769 0.09054 0.95341 0.0
Mg70 Mg 0.94389 0.22486 0.07374 0.0
O71 O 0.98037 0.26894 0.11642 0.0
O72 O 0.01242 0.24687 0.20087 0.0
Mg73 Mg -0.00214 0.19023 0.21043 0.0
C74 C 0.00379 0.27202 0.16423 0.0
C75 C 0.90006 0.24908 0.95625 0.0
O76 O 0.90754 0.21888 0.93598 0.0
O77 O 0.91278 0.2255 0.17744 0.0
O78 O 0.94665 0.20251 0.25686 0.0
O79 O 0.98108 0.21342 0.98928 0.0
O80 O 0.9786 0.19048 0.0987 0.0
C81 C 0.91906 0.21513 0.24122 0.0
C82 C 0.99351 0.19388 0.03665 0.0
O83 O 0.91152 0.26083 0.01645 0.0
Mg84 Mg 0.73111 0.45833 0.38788 0.0
O85 O 0.77666 0.4934 0.34737 0.0
O86 O 0.75653 0.52607 0.26138 0.0
Mg87 Mg 0.69972 0.51371 0.24982 0.0
C88 C 0.78091 0.51665 0.29928 0.0
C89 C 0.75202 0.41201 0.50435 0.0
O90 O 0.72183 0.42003 0.52281 0.0
O91 O 0.73158 0.42723 0.28412 0.0
O92 O 0.71035 0.46179 0.20355 0.0
O93 O 0.72047 0.49594 0.47205 0.0
O94 O 0.69845 0.49459 0.36178 0.0
C95 C 0.72192 0.43371 0.21991 0.0
C96 C 0.70197 0.50936 0.42403 0.0
O97 O 0.76512 0.42417 0.44598 0.0
Mg98 Mg 0.55569 0.26186 0.62057 0.0
O99 O 0.51975 0.21825 0.66613 0.0
O100 O 0.48647 0.24057 0.7476 0.0
Mg101 Mg 0.50056 0.29745 0.75347 0.0
C102 C 0.49598 0.2152 0.71304 0.0
C103 C 0.60255 0.23743 0.50972 0.0
O104 O 0.60077 0.26972 0.49588 0.0
O105 O 0.58678 0.2632 0.72457 0.0
O106 O 0.55192 0.28643 0.80147 0.0
O107 O 0.51862 0.27125 0.53484 0.0
O108 O 0.52038 0.2963 0.64217 0.0
C109 C 0.5799 0.27423 0.78748 0.0
C110 C 0.50568 0.29141 0.58012 0.0
O111 O 0.58733 0.22472 0.56531 0.0
C112 C 0.39561 0.71389 0.88301 0.0
C113 C 0.38727 0.71605 0.80922 0.0
C114 C 0.3707 0.7049 0.93443 0.0
C115 C 0.33684 0.69754 0.91297 0.0
C116 C 0.32824 0.70152 0.83967 0.0
C117 C 0.3532 0.71115 0.78825 0.0
C118 C 0.31186 0.67995 0.96309 0.0
C119 C 0.31456 0.68246 0.03579 0.0
C120 C 0.30004 0.6557 0.08586 0.0
C121 C 0.29574 0.62162 0.06374 0.0
C122 C 0.28962 0.59586 0.11484 0.0
C123 C 0.28741 0.60353 0.18902 0.0
H124 H 0.2996 0.68945 0.1781 0.0
C125 C 0.28939 0.63763 0.21069 0.0
C126 C 0.29605 0.66346 0.15957 0.0
H127 H 0.28784 0.64431 0.26755 0.0
H128 H 0.42168 0.71769 0.90067 0.0
H129 H 0.37858 0.70135 0.98995 0.0
H130 H 0.30243 0.69564 0.82163 0.0
H131 H 0.34611 0.71254 0.73158 0.0
H132 H 0.29303 0.66166 0.93936 0.0
H133 H 0.33099 0.70293 0.05946 0.0
H134 H 0.29941 0.61446 0.0078 0.0
H135 H 0.28799 0.56982 0.09648 0.0
C136 C 0.32492 0.77518 0.4634 0.0
C137 C 0.35817 0.78708 0.48208 0.0
C138 C 0.30765 0.7912 0.40911 0.0
C139 C 0.32346 0.81933 0.37204 0.0
C140 C 0.35567 0.83265 0.39455 0.0
C141 C 0.37292 0.81666 0.44883 0.0
C142 C 0.30813 0.83458 0.30773 0.0
C143 C 0.28531 0.81745 0.26422 0.0
C144 C 0.27342 0.83174 0.19544 0.0
C145 C 0.24054 0.82198 0.17126 0.0
C146 C 0.22846 0.83543 0.10724 0.0
C147 C 0.24925 0.85852 0.06548 0.0
H148 H 0.32058 0.86093 0.16801 0.0
C149 C 0.28268 0.86712 0.08801 0.0
C150 C 0.29465 0.85389 0.1524 0.0
H151 H 0.29937 0.88471 0.0569 0.0
H152 H 0.3126 0.75278 0.48896 0.0
H153 H 0.28224 0.78106 0.39572 0.0
H154 H 0.36822 0.85462 0.36777 0.0
H155 H 0.39837 0.82673 0.46249 0.0
H156 H 0.31783 0.86013 0.29296 0.0
H157 H 0.27501 0.79206 0.27836 0.0
H158 H 0.2239 0.80451 0.20285 0.0
H159 H 0.2026 0.82817 0.0912 0.0
C160 C 0.14393 0.79243 0.28992 0.0
C161 C 0.12084 0.81614 0.27328 0.0
C162 C 0.17227 0.80188 0.3333 0.0
C163 C 0.17818 0.83537 0.3584 0.0
C164 C 0.15608 0.85929 0.33783 0.0
C165 C 0.12745 0.84968 0.29676 0.0
C166 C 0.2053 0.84635 0.41051 0.0
C167 C 0.21148 0.8281 0.47003 0.0
C168 C 0.2242 0.84485 0.5384 0.0
C169 C 0.21243 0.8312 0.60516 0.0
C170 C 0.21531 0.85076 0.66855 0.0
C171 C 0.22977 0.8843 0.66562 0.0
H172 H 0.25399 0.88748 0.48882 0.0
C173 C 0.24492 0.89657 0.60094 0.0
C174 C 0.24285 0.87676 0.53819 0.0
H175 H 0.25692 0.92216 0.59802 0.0
H176 H 0.1394 0.76645 0.27177 0.0
H177 H 0.18926 0.78308 0.34773 0.0
H178 H 0.16013 0.88526 0.3564 0.0
H179 H 0.11028 0.86853 0.28369 0.0
H180 H 0.21415 0.87299 0.40831 0.0
H181 H 0.20013 0.8022 0.47393 0.0
H182 H 0.19844 0.80649 0.60728 0.0
H183 H 0.20363 0.84073 0.7181 0.0
C184 C 0.09253 0.71795 0.84502 0.0
C185 C 0.09818 0.71861 0.92029 0.0
C186 C 0.11146 0.69885 0.79962 0.0
C187 C 0.13693 0.68031 0.82844 0.0
C188 C 0.14188 0.68022 0.90402 0.0
C189 C 0.1227 0.69917 0.94961 0.0
C190 C 0.15858 0.66059 0.7819 0.0
C191 C 0.16256 0.66567 0.7099 0.0
C192 C 0.18443 0.64594 0.66441 0.0
C193 C 0.17625 0.64075 0.59087 0.0
C194 C 0.19625 0.62219 0.54638 0.0
C195 C 0.22515 0.60893 0.57452 0.0
H196 H 0.22144 0.6377 0.74801 0.0
C197 C 0.23378 0.61483 0.64773 0.0
C198 C 0.21367 0.63316 0.69226 0.0
H199 H 0.25608 0.60522 0.6709 0.0
H200 H 0.0734 0.73223 0.8209 0.0
H201 H 0.10563 0.69867 0.7423 0.0
H202 H 0.16104 0.66587 0.92784 0.0
H203 H 0.12753 0.6991 0.00751 0.0
H204 H 0.1721 0.64146 0.80859 0.0
H205 H 0.14908 0.68442 0.68208 0.0
H206 H 0.15406 0.65071 0.56797 0.0
H207 H 0.18908 0.61827 0.49005 0.0
C208 C 0.78948 0.10574 0.6124 0.0
C209 C 0.78809 0.11384 0.68645 0.0
C210 C 0.79791 0.13088 0.56102 0.0
C211 C 0.80549 0.16473 0.58271 0.0
C212 C 0.80257 0.17307 0.65644 0.0
C213 C 0.79349 0.14789 0.70787 0.0
C214 C 0.82195 0.19004 0.53168 0.0
C215 C 0.81779 0.18774 0.45923 0.0
C216 C 0.84317 0.20267 0.40655 0.0
C217 C 0.83382 0.20599 0.33351 0.0
C218 C 0.85842 0.21253 0.27976 0.0
C219 C 0.89287 0.2151 0.29813 0.0
H220 H 0.88601 0.20479 0.4806 0.0
C221 C 0.90211 0.21387 0.37162 0.0
C222 C 0.87758 0.20784 0.42531 0.0
H223 H 0.92847 0.216 0.38743 0.0
H224 H 0.78533 0.0797 0.59439 0.0
H225 H 0.80071 0.12319 0.50513 0.0
H226 H 0.80871 0.19886 0.67466 0.0
H227 H 0.79275 0.15478 0.76474 0.0
H228 H 0.8406 0.20888 0.55418 0.0
H229 H 0.79691 0.17126 0.43737 0.0
H230 H 0.80755 0.20182 0.31752 0.0
H231 H 0.85055 0.21332 0.2235 0.0
C232 C 0.86982 0.25668 0.83931 0.0
C233 C 0.87958 0.26906 0.90841 0.0
C234 C 0.85126 0.2757 0.79283 0.0
C235 C 0.84209 0.3076 0.81449 0.0
C236 C 0.85103 0.31957 0.88423 0.0
C237 C 0.86982 0.30062 0.93064 0.0
C238 C 0.82254 0.32853 0.76628 0.0
C239 C 0.82472 0.32754 0.69331 0.0
C240 C 0.80557 0.34893 0.64526 0.0
C241 C 0.81901 0.35871 0.57718 0.0
C242 C 0.80171 0.37922 0.53108 0.0
C243 C 0.77037 0.38989 0.55192 0.0
H244 H 0.76221 0.35105 0.71641 0.0
C245 C 0.75654 0.37934 0.61928 0.0
C246 C 0.7739 0.35906 0.66544 0.0
H247 H 0.73227 0.38683 0.63669 0.0
H248 H 0.87663 0.23228 0.82077 0.0
H249 H 0.8438 0.26513 0.74044 0.0
H250 H 0.84389 0.3439 0.90248 0.0
H251 H 0.87675 0.31073 0.98376 0.0
H252 H 0.80742 0.34664 0.79201 0.0
H253 H 0.84252 0.31201 0.66775 0.0
H254 H 0.84319 0.35088 0.56004 0.0
H255 H 0.8129 0.38672 0.47928 0.0
C256 C 0.72086 0.37291 0.18163 0.0
C257 C 0.72203 0.40737 0.16309 0.0
C258 C 0.71559 0.348 0.12796 0.0
C259 C 0.71173 0.35724 0.05484 0.0
C260 C 0.71584 0.3916 0.03591 0.0
C261 C 0.72059 0.41643 0.08947 0.0
C262 C 0.69972 0.33249 0.99805 0.0
C263 C 0.67673 0.30631 0.01248 0.0
C264 C 0.65388 0.29107 0.95533 0.0
C265 C 0.61974 0.2834 0.97294 0.0
C266 C 0.59584 0.2761 0.9184 0.0
C267 C 0.60575 0.27556 0.84525 0.0
H268 H 0.69055 0.2928 0.86777 0.0
C269 C 0.64032 0.27996 0.82812 0.0
C270 C 0.66424 0.28787 0.88275 0.0
H271 H 0.64868 0.27941 0.77219 0.0
H272 H 0.72225 0.36515 0.23787 0.0
H273 H 0.71346 0.32165 0.14407 0.0
H274 H 0.71328 0.39939 0.97991 0.0
H275 H 0.72199 0.44278 0.07333 0.0
H276 H 0.70446 0.33997 0.94195 0.0
H277 H 0.6696 0.30081 0.06849 0.0
H278 H 0.61115 0.28537 0.02851 0.0
H279 H 0.56941 0.27228 0.93327 0.0
C280 C 0.67074 0.08278 0.10838 0.0
C281 C 0.68844 0.0977 0.04879 0.0
C282 C 0.65769 0.10289 0.16181 0.0
C283 C 0.66208 0.13838 0.15665 0.0
C284 C 0.67782 0.1532 0.09481 0.0
C285 C 0.69109 0.1331 0.04158 0.0
C286 C 0.65095 0.16065 0.2149 0.0
C287 C 0.65004 0.15168 0.28556 0.0
C288 C 0.64004 0.17432 0.3444 0.0
C289 C 0.62644 0.15992 0.40883 0.0
C290 C 0.61529 0.1804 0.46402 0.0
C291 C 0.61785 0.21575 0.45596 0.0
H292 H 0.65585 0.22193 0.29062 0.0
C293 C 0.63304 0.23022 0.39306 0.0
C294 C 0.64412 0.20977 0.33795 0.0
H295 H 0.63583 0.25741 0.38559 0.0
H296 H 0.66789 0.05555 0.11513 0.0
H297 H 0.64445 0.09054 0.20723 0.0
H298 H 0.681 0.18048 0.08898 0.0
H299 H 0.70433 0.14537 0.99598 0.0
H300 H 0.64468 0.18566 0.19888 0.0
H301 H 0.65635 0.12665 0.30135 0.0
H302 H 0.62355 0.13269 0.41567 0.0
H303 H 0.60385 0.16849 0.51201 0.0
C304 C 0.34339 0.45508 0.41432 0.0
C305 C 0.31865 0.46616 0.46076 0.0
C306 C 0.36191 0.42828 0.43469 0.0
C307 C 0.35582 0.41184 0.50186 0.0
C308 C 0.33033 0.42231 0.54706 0.0
C309 C 0.31186 0.44909 0.52671 0.0
C310 C 0.37756 0.38615 0.52973 0.0
C311 C 0.39695 0.36835 0.48694 0.0
C312 C 0.42228 0.34643 0.51565 0.0
C313 C 0.43385 0.32158 0.47014 0.0
C314 C 0.46011 0.3028 0.49224 0.0
C315 C 0.47559 0.30871 0.56025 0.0
H316 H 0.42986 0.37134 0.62053 0.0
C317 C 0.46353 0.33299 0.60664 0.0
C318 C 0.43724 0.35175 0.58457 0.0
H319 H 0.47517 0.33841 0.65902 0.0
H320 H 0.34943 0.46792 0.36346 0.0
H321 H 0.38191 0.42174 0.399 0.0
H322 H 0.32522 0.41026 0.59921 0.0
H323 H 0.29293 0.45701 0.56375 0.0
H324 H 0.37768 0.38211 0.58804 0.0
H325 H 0.39448 0.36984 0.42834 0.0
H326 H 0.42299 0.31712 0.41662 0.0
H327 H 0.46887 0.2843 0.45512 0.0
C328 C 0.6599 0.98462 0.8209 0.0
C329 C 0.68791 0.9851 0.77422 0.0
C330 C 0.62964 0.96561 0.80306 0.0
C331 C 0.62684 0.947 0.7379 0.0
C332 C 0.65415 0.94922 0.68948 0.0
C333 C 0.68445 0.96778 0.70766 0.0
C334 C 0.59682 0.92346 0.72022 0.0
C335 C 0.57894 0.90557 0.77154 0.0
C336 C 0.55515 0.87571 0.75387 0.0
C337 C 0.55272 0.84831 0.80223 0.0
C338 C 0.53382 0.81816 0.78416 0.0
C339 C 0.51635 0.81493 0.71777 0.0
H340 H 0.53707 0.89416 0.65122 0.0
C341 C 0.5171 0.84303 0.67112 0.0
C342 C 0.53646 0.87315 0.68884 0.0
H343 H 0.50367 0.84142 0.61986 0.0
H344 H 0.66169 -0.00204 0.87228 0.0
H345 H 0.6087 0.96518 0.84072 0.0
H346 H 0.65256 0.93538 0.63867 0.0
H347 H 0.70539 0.96804 0.66997 0.0
H348 H 0.5926 0.91706 0.66337 0.0
H349 H 0.58547 0.90965 0.82836 0.0
H350 H 0.56662 0.84972 0.85295 0.0
H351 H 0.53337 0.79715 0.82184 0.0
C352 C 0.03396 0.15139 0.06793 0.0
C353 C 0.02316 0.17544 0.01931 0.0
C354 C 0.05968 0.13138 0.04853 0.0
C355 C 0.07543 0.13523 0.98012 0.0
C356 C 0.06516 0.1599 0.93234 0.0
C357 C 0.03938 0.17989 0.95174 0.0
C358 C 0.10025 0.11201 0.95444 0.0
C359 C 0.11817 0.09385 -0.00028 0.0
C360 C 0.13925 0.06683 0.97565 0.0
C361 C 0.16191 0.05467 0.02564 0.0
C362 C 0.17955 0.02684 0.00882 0.0
C363 C 0.17489 0.01044 0.94149 0.0
H364 H 0.11746 0.05878 0.86771 0.0
C365 C 0.15305 0.02312 0.89038 0.0
C366 C 0.13525 0.05093 0.90732 0.0
H367 H 0.14875 0.01084 0.83825 0.0
H368 H 0.02172 0.14704 0.12002 0.0
H369 H 0.06593 0.11201 0.08624 0.0
H370 H 0.07663 0.16325 0.87916 0.0
H371 H 0.03158 0.19819 0.91297 0.0
H372 H 0.10346 0.1098 0.89617 0.0
H373 H 0.11722 0.09857 0.05772 0.0
H374 H 0.16542 0.06624 0.07874 0.0
H375 H 0.1963 0.01776 0.04937 0.0
C376 C 0.98938 0.67355 0.20779 0.0
C377 C 0.98747 0.70364 0.24741 0.0
C378 C 0.97013 0.64386 0.22829 0.0
C379 C 0.94853 0.64366 0.28884 0.0
C380 C 0.94868 0.67293 0.33161 0.0
C381 C 0.96776 0.70268 0.31095 0.0
C382 C 0.92363 0.6145 0.30558 0.0
C383 C 0.90851 0.59507 0.25286 0.0
C384 C 0.87749 0.57211 0.26518 0.0
C385 C 0.85367 0.56819 0.20896 0.0
C386 C 0.82263 0.54962 0.2199 0.0
C387 C 0.81496 0.53389 0.28695 0.0
H388 H 0.88867 0.55721 0.37547 0.0
C389 C 0.83949 0.53619 0.34218 0.0
C390 C 0.87047 0.55535 0.3316 0.0
H391 H 0.83434 0.52414 0.39427 0.0
H392 H 0.00467 0.6732 0.15918 0.0
H393 H 0.97155 0.62138 0.19552 0.0
H394 H 0.93259 0.67335 0.37904 0.0
H395 H 0.96603 0.72522 0.34339 0.0
H396 H 0.91396 0.61233 0.36072 0.0
H397 H 0.91602 0.59963 0.19673 0.0
H398 H 0.85855 0.58058 0.1571 0.0
H399 H 0.80444 0.54794 0.17592 0.0
C400 C 0.31778 0.02768 0.7537 0.0
C401 C 0.30857 0.00935 0.81701 0.0
C402 C 0.34807 0.04816 0.75031 0.0
C403 C 0.37001 0.05092 0.81034 0.0
C404 C 0.36129 0.03193 0.87309 0.0
C405 C 0.33099 0.01099 0.87618 0.0
C406 C 0.39974 0.07642 0.81141 0.0
C407 C 0.41583 0.08768 0.75046 0.0
C408 C 0.43952 0.11879 0.7475 0.0
C409 C 0.462 0.12347 0.68879 0.0
C410 C 0.48132 0.15436 0.67881 0.0
C411 C 0.47808 0.18144 0.72678 0.0
H412 H 0.41955 0.14336 0.84174 0.0
C413 C 0.45626 0.17644 0.78664 0.0
C414 C 0.43721 0.14552 0.79695 0.0
H415 H 0.45322 0.19671 0.82482 0.0
H416 H 0.30112 0.02687 0.70702 0.0
H417 H 0.35327 0.06306 0.70172 0.0
H418 H 0.37757 0.03392 0.92039 0.0
H419 H 0.32449 0.99725 0.92579 0.0
H420 H 0.40747 0.08723 0.86365 0.0
H421 H 0.41034 0.0745 0.69951 0.0
H422 H 0.464 0.10343 0.64945 0.0
H423 H 0.49787 0.15736 0.63209 0.0
C424 C 0.8311 0.9615 0.91337 0.0
C425 C 0.80732 0.97429 0.95988 0.0
C426 C 0.84826 0.93387 0.93434 0.0
C427 C 0.84193 0.9184 0.0024 0.0
C428 C 0.81751 0.93063 0.04797 0.0
C429 C 0.80021 0.95814 0.02679 0.0
C430 C 0.86295 0.89221 0.03056 0.0
C431 C 0.87954 0.87201 0.98717 0.0
C432 C 0.90581 0.85075 0.01395 0.0
C433 C 0.91461 0.82372 0.9709 0.0
C434 C 0.94239 0.80619 0.98899 0.0
C435 C 0.96221 0.81565 0.05013 0.0
H436 H 0.9195 0.88049 0.1106 0.0
C437 C 0.95268 0.84184 0.09482 0.0
C438 C 0.92481 0.85925 0.07696 0.0
H439 H 0.96755 0.84993 0.14195 0.0
H440 H 0.83742 0.97355 0.86182 0.0
H441 H 0.86759 0.9259 0.89851 0.0
H442 H 0.81237 0.91939 0.10089 0.0
H443 H 0.78205 0.96741 0.06397 0.0
H444 H 0.86537 0.8902 0.08912 0.0
H445 H 0.87448 0.87161 0.92918 0.0
H446 H 0.90057 0.8168 0.92187 0.0
H447 H 0.94909 0.78613 0.95336 0.0
C448 C 0.04147 0.31125 0.2408 0.0
C449 C 0.02246 0.30548 0.17692 0.0
C450 C 0.06162 0.3415 0.25088 0.0
C451 C 0.06334 0.36677 0.19711 0.0
C452 C 0.0437 0.3614 0.13402 0.0
C453 C 0.02315 0.33119 0.12429 0.0
C454 C 0.08833 0.39684 0.20189 0.0
C455 C 0.10034 0.4097 0.26551 0.0
C456 C 0.13084 0.43407 0.27121 0.0
C457 C 0.13577 0.45405 0.33394 0.0
C458 C 0.16628 0.47379 0.34538 0.0
C459 C 0.19273 0.47337 0.29484 0.0
H460 H 0.15449 0.41903 0.17125 0.0
C461 C 0.18742 0.45412 0.23111 0.0
C462 C 0.15686 0.43473 0.21934 0.0
H463 H 0.20722 0.45331 0.19092 0.0
H464 H 0.04144 0.29201 0.28256 0.0
H465 H 0.07705 0.34418 0.29933 0.0
H466 H 0.04485 0.38031 0.09143 0.0
H467 H 0.00887 0.32746 0.07437 0.0
H468 H 0.09804 0.40777 0.15116 0.0
H469 H 0.08828 0.40108 0.31595 0.0
H470 H 0.11627 0.45373 0.37509 0.0
H471 H 0.1696 0.48829 0.39512 0.0
C472 C 0.53517 0.66896 0.57806 0.0
C473 C 0.52386 0.69406 0.5327 0.0
C474 C 0.56233 0.65113 0.55737 0.0
C475 C 0.57895 0.65815 0.49083 0.0
C476 C 0.56805 0.68372 0.44622 0.0
C477 C 0.54089 0.70161 0.46702 0.0
C478 C 0.60542 0.63721 0.46342 0.0
C479 C 0.62408 0.61904 0.50718 0.0
C480 C 0.64667 0.59383 0.48049 0.0
C481 C 0.67068 0.58243 0.52839 0.0
C482 C 0.68963 0.55586 0.50889 0.0
C483 C 0.68484 0.53995 0.44105 0.0
H484 H 0.62385 0.58584 0.37358 0.0
C485 C 0.66164 0.55201 0.39204 0.0
C486 C 0.64265 0.57858 0.41155 0.0
H487 H 0.65714 0.54009 0.33961 0.0
H488 H 0.52235 0.66219 0.62854 0.0
H489 H 0.5691 0.63091 0.59236 0.0
H490 H 0.58016 0.68944 0.39442 0.0
H491 H 0.53272 0.72075 0.43071 0.0
H492 H 0.60925 0.63666 0.40509 0.0
H493 H 0.6225 0.62224 0.56561 0.0
H494 H 0.67418 0.59352 0.58194 0.0
H495 H 0.70732 0.54716 0.54793 0.0
loop_
_geom_bond_atom_site_label_1
_geom_bond_atom_site_label_2
_geom_bond_distance
_geom_bond_site_symmetry_2
_ccdc_geom_bond_type
Mg0 O1 2.028 . S
Mg0 O7 1.986 . S
Mg0 O9 2.114 . S
Mg0 O10 2.251 . S
Mg0 O13 2.010 . S
O1 Mg0 2.028 . S
O1 C4 1.250 . S
O2 Mg3 2.028 . S
O2 C4 1.248 . S
Mg3 O2 2.028 . S
Mg3 O8 2.032 . S
Mg3 O10 2.079 . S
C4 O1 1.250 . S
C4 O2 1.248 . S
C5 O6 1.264 . S
C5 O13 1.249 . S
O6 C5 1.264 . S
O7 Mg0 1.986 . S
O7 C11 1.246 . S
O8 Mg3 2.032 . S
O8 C11 1.259 . S
O9 Mg0 2.114 . S
O9 C12 1.252 . S
O10 Mg0 2.251 . S
O10 Mg3 2.079 . S
O10 C12 1.273 . S
C11 O7 1.246 . S
C11 O8 1.259 . S
C12 O9 1.252 . S
C12 O10 1.273 . S
O13 Mg0 2.010 . S
O13 C5 1.249 . S
Mg14 O15 2.028 . S
Mg14 O21 1.986 . S
Mg14 O23 2.114 . S
Mg14 O24 2.251 . S
Mg14 O27 2.010 . S
O15 Mg14 2.028 . S
O15 C18 1.250 . S
O16 Mg17 2.028 . S
O16 C18 1.248 . S
Mg17 O16 2.028 . S
Mg17 O22 2.032 . S
Mg17 O24 2.079 . S
C18 O15 1.250 . S
C18 O16 1.248 . S
C19 O20 1.264 . S
C19 O27 1.249 . S
O20 C19 1.264 . S
O21 Mg14 1.986 . S
O21 C25 1.246 . S
O22 Mg17 2.032 . S
O22 C25 1.259 . S
O23 Mg14 2.114 . S
O23 C26 1.252 . S
O24 Mg14 2.251 . S
O24 Mg17 2.079 . S
O24 C26 1.273 . S
C25 O21 1.246 . S
C25 O22 1.259 . S
C26 O23 1.252 . S
C26 O24 1.273 . S
O27 Mg14 2.010 . S
O27 C19 1.249 . S
Mg28 O29 2.028 . S
Mg28 O35 1.986 . S
Mg28 O37 2.114 . S
Mg28 O38 2.251 . S
Mg28 O41 2.010 . S
O29 Mg28 2.028 . S
O29 C32 1.250 . S
O30 Mg31 2.027 1_545 S
O30 C32 1.248 1_545 S
Mg31 O30 2.027 1_565 S
Mg31 O36 2.046 . S
Mg31 O38 2.082 . S
C32 O29 1.250 . S
C32 O30 1.248 1_565 S
C33 O34 1.264 . S
C33 O41 1.249 1_554 S
O34 C33 1.264 . S
O35 Mg28 1.986 . S
O35 C39 1.246 . S
O36 Mg31 2.046 . S
O36 C39 1.259 . S
O37 Mg28 2.114 . S
O37 C40 1.252 . S
O38 Mg28 2.251 . S
O38 Mg31 2.082 . S
O38 C40 1.273 . S
C39 O35 1.246 . S
C39 O36 1.259 . S
C40 O37 1.252 . S
C40 O38 1.273 . S
O41 Mg28 2.010 . S
O41 C33 1.249 1_556 S
Mg42 O43 2.028 . S
Mg42 O49 1.986 . S
Mg42 O51 2.114 . S
Mg42 O52 2.251 . S
Mg42 O55 2.010 . S
O43 Mg42 2.028 . S
O43 C46 1.250 . S
O44 Mg45 2.027 1_655 S
O44 C46 1.248 1_655 S
Mg45 O44 2.027 1_455 S
Mg45 O50 2.046 . S
Mg45 O52 2.082 . S
C46 O43 1.250 . S
C46 O44 1.248 1_455 S
C47 O48 1.264 . S
C47 O55 1.249 1_556 S
O48 C47 1.264 . S
O49 Mg42 1.986 . S
O49 C53 1.246 . S
O50 Mg45 2.046 . S
O50 C53 1.259 . S
O51 Mg42 2.114 . S
O51 C54 1.252 . S
O52 Mg42 2.251 . S
O52 Mg45 2.082 . S
O52 C54 1.273 . S
C53 O49 1.246 . S
C53 O50 1.259 . S
C54 O51 1.252 . S
C54 O52 1.273 . S
O55 Mg42 2.010 . S
O55 C47 1.249 1_554 S
Mg56 O57 2.028 . S
Mg56 O63 1.986 . S
Mg56 O65 2.114 . S
Mg56 O66 2.251 . S
Mg56 O69 2.010 . S
O57 Mg56 2.028 . S
O57 C60 1.250 . S
O58 Mg59 2.027 1_565 S
O58 C60 1.248 1_565 S
Mg59 O58 2.027 1_545 S
Mg59 O64 2.046 . S
Mg59 O66 2.082 . S
C60 O57 1.250 . S
C60 O58 1.248 1_545 S
C61 O62 1.264 . S
C61 O69 1.249 1_554 S
O62 C61 1.264 . S
O63 Mg56 1.986 . S
O63 C67 1.246 . S
O64 Mg59 2.046 . S
O64 C67 1.259 . S
O65 Mg56 2.114 . S
O65 C68 1.252 . S
O66 Mg56 2.251 . S
O66 Mg59 2.082 . S
O66 C68 1.273 . S
C67 O63 1.246 . S
C67 O64 1.259 . S
C68 O65 1.252 . S
C68 O66 1.273 . S
O69 Mg56 2.010 . S
O69 C61 1.249 1_556 S
Mg70 O71 2.028 . S
Mg70 O77 1.986 . S
Mg70 O79 2.114 . S
Mg70 O80 2.251 . S
Mg70 O83 2.010 . S
O71 Mg70 2.028 . S
O71 C74 1.250 . S
O72 Mg73 2.027 1_455 S
O72 C74 1.248 1_455 S
Mg73 O72 2.027 1_655 S
Mg73 O78 2.046 . S
Mg73 O80 2.082 . S
C74 O71 1.250 . S
C74 O72 1.248 1_655 S
C75 O76 1.264 . S
C75 O83 1.249 1_556 S
O76 C75 1.264 . S
O77 Mg70 1.986 . S
O77 C81 1.246 . S
O78 Mg73 2.046 . S
O78 C81 1.259 . S
O79 Mg70 2.114 . S
O79 C82 1.252 . S
O80 Mg70 2.251 . S
O80 Mg73 2.082 . S
O80 C82 1.273 . S
C81 O77 1.246 . S
C81 O78 1.259 . S
C82 O79 1.252 . S
C82 O80 1.273 . S
O83 Mg70 2.010 . S
O83 C75 1.249 1_554 S
Mg84 O85 2.028 . S
Mg84 O91 1.986 . S
Mg84 O93 2.114 . S
Mg84 O94 2.251 . S
Mg84 O97 2.010 . S
O85 Mg84 2.028 . S
O85 C88 1.250 . S
O86 Mg87 2.028 . S
O86 C88 1.248 . S
Mg87 O86 2.028 . S
Mg87 O92 2.032 . S
Mg87 O94 2.079 . S
C88 O85 1.250 . S
C88 O86 1.248 . S
C89 O90 1.264 . S
C89 O97 1.249 . S
O90 C89 1.264 . S
O91 Mg84 1.986 . S
O91 C95 1.246 . S
O92 Mg87 2.032 . S
O92 C95 1.259 . S
O93 Mg84 2.114 . S
O93 C96 1.252 . S
O94 Mg84 2.251 . S
O94 Mg87 2.079 . S
O94 C96 1.273 . S
C95 O91 1.246 . S
C95 O92 1.259 . S
C96 O93 1.252 . S
C96 O94 1.273 . S
O97 Mg84 2.010 . S
O97 C89 1.249 . S
Mg98 O99 2.028 . S
Mg98 O105 1.986 . S
Mg98 O107 2.114 . S
Mg98 O108 2.251 . S
Mg98 O111 2.010 . S
O99 Mg98 2.028 . S
O99 C102 1.250 . S
O100 Mg101 2.028 . S
O100 C102 1.248 . S
Mg101 O100 2.028 . S
Mg101 O106 2.032 . S
Mg101 O108 2.079 . S
C102 O99 1.250 . S
C102 O100 1.248 . S
C103 O104 1.264 . S
C103 O111 1.249 . S
O104 C103 1.264 . S
O105 Mg98 1.986 . S
O105 C109 1.246 . S
O106 Mg101 2.032 . S
O106 C109 1.259 . S
O107 Mg98 2.114 . S
O107 C110 1.252 . S
O108 Mg98 2.251 . S
O108 Mg101 2.079 . S
O108 C110 1.273 . S
C109 O105 1.246 . S
C109 O106 1.259 . S
C110 O107 1.252 . S
C110 O108 1.273 . S
O111 Mg98 2.010 . S
O111 C103 1.249 . S
C112 C113 1.386 . S
C112 C114 1.383 . S
C112 H128 0.951 . S
C113 C112 1.386 . S
C113 C117 1.383 . S
C114 C112 1.383 . S
C114 C115 1.402 . S
C114 H129 0.951 . S
C115 C114 1.402 . S
C115 C116 1.375 . S
C115 C118 1.481 . S
C116 C115 1.375 . S
C116 C117 1.367 . S
C116 H130 0.951 . S
C117 C113 1.383 . S
C117 C116 1.367 . S
C117 H131 0.950 . S
C118 C115 1.481 . S
C118 C119 1.297 1_556 S
C118 H132 0.950 1_556 S
C119 C118 1.297 1_554 S
C119 C120 1.479 . S
C119 H133 0.950 . S
C120 C119 1.479 . S
C120 C121 1.375 . S
C120 C126 1.404 . S
C121 C120 1.375 . S
C121 C122 1.369 . S
C121 H134 0.950 . S
C122 C121 1.369 . S
C122 C123 1.392 . S
C122 H135 0.951 . S
C123 C122 1.392 . S
C123 C125 1.384 . S
H124 C126 0.949 . S
C125 C123 1.384 . S
C125 C126 1.385 . S
C125 H127 0.950 . S
C126 C120 1.404 . S
C126 H124 0.949 . S
C126 C125 1.385 . S
H127 C125 0.950 . S
H128 C112 0.951 . S
H129 C114 0.951 . S
H130 C116 0.951 . S
H131 C117 0.950 . S
H132 C118 0.950 1_554 S
H133 C119 0.950 . S
H134 C121 0.950 . S
H135 C122 0.951 . S
C136 C137 1.386 . S
C136 C138 1.383 . S
C136 H152 0.951 . S
C137 C136 1.386 . S
C137 C141 1.383 . S
C138 C136 1.383 . S
C138 C139 1.402 . S
C138 H153 0.951 . S
C139 C138 1.402 . S
C139 C140 1.375 . S
C139 C142 1.481 . S
C140 C139 1.375 . S
C140 C141 1.367 . S
C140 H154 0.951 . S
C141 C137 1.383 . S
C141 C140 1.367 . S
C141 H155 0.950 . S
C142 C139 1.481 . S
C142 C143 1.297 . S
C142 H156 0.950 . S
C143 C142 1.297 . S
C143 C144 1.479 . S
C143 H157 0.950 . S
C144 C143 1.479 . S
C144 C145 1.375 . S
C144 C150 1.404 . S
C145 C144 1.375 . S
C145 C146 1.369 . S
C145 H158 0.950 . S
C146 C145 1.369 . S
C146 C147 1.392 . S
C146 H159 0.951 . S
C147 C146 1.392 . S
C147 C149 1.384 . S
H148 C150 0.949 . S
C149 C147 1.384 . S
C149 C150 1.385 . S
C149 H151 0.950 . S
C150 C144 1.404 . S
C150 H148 0.949 . S
C150 C149 1.385 . S
H151 C149 0.950 . S
H152 C136 0.951 . S
H153 C138 0.951 . S
H154 C140 0.951 . S
H155 C141 0.950 . S
H156 C142 0.950 . S
H157 C143 0.950 . S
H158 C145 0.950 . S
H159 C146 0.951 . S
C160 C161 1.386 . S
C160 C162 1.383 . S
C160 H176 0.951 . S
C161 C160 1.386 . S
C161 C165 1.383 . S
C162 C160 1.383 . S
C162 C163 1.402 . S
C162 H177 0.951 . S
C163 C162 1.402 . S
C163 C164 1.375 . S
C163 C166 1.481 . S
C164 C163 1.375 . S
C164 C165 1.367 . S
C164 H178 0.951 . S
C165 C161 1.383 . S
C165 C164 1.367 . S
C165 H179 0.950 . S
C166 C163 1.481 . S
C166 C167 1.297 . S
C166 H180 0.950 . S
C167 C166 1.297 . S
C167 C168 1.479 . S
C167 H181 0.950 . S
C168 C167 1.479 . S
C168 C169 1.375 . S
C168 C174 1.404 . S
C169 C168 1.375 . S
C169 C170 1.369 . S
C169 H182 0.950 . S
C170 C169 1.369 . S
C170 C171 1.392 . S
C170 H183 0.951 . S
C171 C170 1.392 . S
C171 C173 1.384 . S
H172 C174 0.949 . S
C173 C171 1.384 . S
C173 C174 1.385 . S
C173 H175 0.950 . S
C174 C168 1.404 . S
C174 H172 0.949 . S
C174 C173 1.385 . S
H175 C173 0.950 . S
H176 C160 0.951 . S
H177 C162 0.951 . S
H178 C164 0.951 . S
H179 C165 0.950 . S
H180 C166 0.950 . S
H181 C167 0.950 . S
H182 C169 0.950 . S
H183 C170 0.951 . S
C184 C185 1.386 . S
C184 C186 1.383 . S
C184 H200 0.951 . S
C185 C184 1.386 . S
C185 C189 1.383 . S
C186 C184 1.383 . S
C186 C187 1.402 . S
C186 H201 0.951 . S
C187 C186 1.402 . S
C187 C188 1.375 . S
C187 C190 1.481 . S
C188 C187 1.375 . S
C188 C189 1.367 . S
C188 H202 0.951 . S
C189 C185 1.383 . S
C189 C188 1.367 . S
C189 H203 0.950 1_556 S
C190 C187 1.481 . S
C190 C191 1.297 . S
C190 H204 0.950 . S
C191 C190 1.297 . S
C191 C192 1.479 . S
C191 H205 0.950 . S
C192 C191 1.479 . S
C192 C193 1.375 . S
C192 C198 1.404 . S
C193 C192 1.375 . S
C193 C194 1.369 . S
C193 H206 0.950 . S
C194 C193 1.369 . S
C194 C195 1.392 . S
C194 H207 0.951 . S
C195 C194 1.392 . S
C195 C197 1.384 . S
H196 C198 0.949 . S
C197 C195 1.384 . S
C197 C198 1.385 . S
C197 H199 0.950 . S
C198 C192 1.404 . S
C198 H196 0.949 . S
C198 C197 1.385 . S
H199 C197 0.950 . S
H200 C184 0.951 . S
H201 C186 0.951 . S
H202 C188 0.951 . S
H203 C189 0.950 1_554 S
H204 C190 0.950 . S
H205 C191 0.950 . S
H206 C193 0.950 . S
H207 C194 0.951 . S
C208 C209 1.386 . S
C208 C210 1.383 . S
C208 H224 0.951 . S
C209 C208 1.386 . S
C209 C213 1.383 . S
C210 C208 1.383 . S
C210 C211 1.402 . S
C210 H225 0.951 . S
C211 C210 1.402 . S
C211 C212 1.375 . S
C211 C214 1.481 . S
C212 C211 1.375 . S
C212 C213 1.367 . S
C212 H226 0.951 . S
C213 C209 1.383 . S
C213 C212 1.367 . S
C213 H227 0.950 . S
C214 C211 1.481 . S
C214 C215 1.297 . S
C214 H228 0.950 . S
C215 C214 1.297 . S
C215 C216 1.479 . S
C215 H229 0.950 . S
C216 C215 1.479 . S
C216 C217 1.375 . S
C216 C222 1.404 . S
C217 C216 1.375 . S
C217 C218 1.369 . S
C217 H230 0.950 . S
C218 C217 1.369 . S
C218 C219 1.392 . S
C218 H231 0.951 . S
C219 C218 1.392 . S
C219 C221 1.384 . S
H220 C222 0.949 . S
C221 C219 1.384 . S
C221 C222 1.385 . S
C221 H223 0.950 . S
C222 C216 1.404 . S
C222 H220 0.949 . S
C222 C221 1.385 . S
H223 C221 0.950 . S
H224 C208 0.951 . S
H225 C210 0.951 . S
H226 C212 0.951 . S
H227 C213 0.950 . S
H228 C214 0.950 . S
H229 C215 0.950 . S
H230 C217 0.950 . S
H231 C218 0.951 . S
C232 C233 1.386 . S
C232 C234 1.383 . S
C232 H248 0.951 . S
C233 C232 1.386 . S
C233 C237 1.383 . S
C234 C232 1.383 . S
C234 C235 1.402 . S
C234 H249 0.951 . S
C235 C234 1.402 . S
C235 C236 1.375 . S
C235 C238 1.481 . S
C236 C235 1.375 . S
C236 C237 1.367 . S
C236 H250 0.951 . S
C237 C233 1.383 . S
C237 C236 1.367 . S
C237 H251 0.950 1_556 S
C238 C235 1.481 . S
C238 C239 1.297 . S
C238 H252 0.950 . S
C239 C238 1.297 . S
C239 C240 1.479 . S
C239 H253 0.950 . S
C240 C239 1.479 . S
C240 C241 1.375 . S
C240 C246 1.404 . S
C241 C240 1.375 . S
C241 C242 1.369 . S
C241 H254 0.950 . S
C242 C241 1.369 . S
C242 C243 1.392 . S
C242 H255 0.951 . S
C243 C242 1.392 . S
C243 C245 1.384 . S
H244 C246 0.949 . S
C245 C243 1.384 . S
C245 C246 1.385 . S
C245 H247 0.950 . S
C246 C240 1.404 . S
C246 H244 0.949 . S
C246 C245 1.385 . S
H247 C245 0.950 . S
H248 C232 0.951 . S
H249 C234 0.951 . S
H250 C236 0.951 . S
H251 C237 0.950 1_554 S
H252 C238 0.950 . S
H253 C239 0.950 . S
H254 C241 0.950 . S
H255 C242 0.951 . S
C256 C257 1.386 . S
C256 C258 1.383 . S
C256 H272 0.951 . S
C257 C256 1.386 . S
C257 C261 1.383 . S
C258 C256 1.383 . S
C258 C259 1.402 . S
C258 H273 0.951 . S
C259 C258 1.402 . S
C259 C260 1.375 . S
C259 C262 1.481 1_554 S
C260 C259 1.375 . S
C260 C261 1.367 . S
C260 H274 0.951 . S
C261 C257 1.383 . S
C261 C260 1.367 . S
C261 H275 0.950 . S
C262 C259 1.481 1_556 S
C262 C263 1.297 . S
C262 H276 0.950 . S
C263 C262 1.297 . S
C263 C264 1.479 . S
C263 H277 0.950 1_556 S
C264 C263 1.479 . S
C264 C265 1.375 . S
C264 C270 1.404 . S
C265 C264 1.375 . S
C265 C266 1.369 . S
C265 H278 0.950 . S
C266 C265 1.369 . S
C266 C267 1.392 . S
C266 H279 0.951 . S
C267 C266 1.392 . S
C267 C269 1.384 . S
H268 C270 0.949 . S
C269 C267 1.384 . S
C269 C270 1.385 . S
C269 H271 0.950 . S
C270 C264 1.404 . S
C270 H268 0.949 . S
C270 C269 1.385 . S
H271 C269 0.950 . S
H272 C256 0.951 . S
H273 C258 0.951 . S
H274 C260 0.951 . S
H275 C261 0.950 . S
H276 C262 0.950 . S
H277 C263 0.950 1_554 S
H278 C265 0.950 . S
H279 C266 0.951 . S
C280 C281 1.386 . S
C280 C282 1.383 . S
C280 H296 0.951 . S
C281 C280 1.386 . S
C281 C285 1.383 . S
C282 C280 1.383 . S
C282 C283 1.402 . S
C282 H297 0.951 . S
C283 C282 1.402 . S
C283 C284 1.375 . S
C283 C286 1.481 . S
C284 C283 1.375 . S
C284 C285 1.367 . S
C284 H298 0.951 . S
C285 C281 1.383 . S
C285 C284 1.367 . S
C285 H299 0.937 1_554 S
C286 C283 1.481 . S
C286 C287 1.297 . S
C286 H300 0.950 . S
C287 C286 1.297 . S
C287 C288 1.479 . S
C287 H301 0.950 . S
C288 C287 1.479 . S
C288 C289 1.375 . S
C288 C294 1.404 . S
C289 C288 1.375 . S
C289 C290 1.369 . S
C289 H302 0.950 . S
C290 C289 1.369 . S
C290 C291 1.392 . S
C290 H303 0.951 . S
C291 C290 1.392 . S
C291 C293 1.384 . S
H292 C294 0.949 . S
C293 C291 1.384 . S
C293 C294 1.385 . S
C293 H295 0.950 . S
C294 C288 1.404 . S
C294 H292 0.949 . S
C294 C293 1.385 . S
H295 C293 0.950 . S
H296 C280 0.951 . S
H297 C282 0.951 . S
H298 C284 0.951 . S
H299 C285 0.937 1_556 S
H300 C286 0.950 . S
H301 C287 0.950 . S
H302 C289 0.950 . S
H303 C290 0.951 . S
C304 C305 1.386 . S
C304 C306 1.383 . S
C304 H320 0.951 . S
C305 C304 1.386 . S
C305 C309 1.383 . S
C306 C304 1.383 . S
C306 C307 1.402 . S
C306 H321 0.951 . S
C307 C306 1.402 . S
C307 C308 1.375 . S
C307 C310 1.481 . S
C308 C307 1.375 . S
C308 C309 1.367 . S
C308 H322 0.951 . S
C309 C305 1.383 . S
C309 C308 1.367 . S
C309 H323 0.950 . S
C310 C307 1.481 . S
C310 C311 1.297 . S
C310 H324 0.950 . S
C311 C310 1.297 . S
C311 C312 1.479 . S
C311 H325 0.950 . S
C312 C311 1.479 . S
C312 C313 1.375 . S
C312 C318 1.404 . S
C313 C312 1.375 . S
C313 C314 1.369 . S
C313 H326 0.950 . S
C314 C313 1.369 . S
C314 C315 1.392 . S
C314 H327 0.951 . S
C315 C314 1.392 . S
C315 C317 1.384 . S
H316 C318 0.949 . S
C317 C315 1.384 . S
C317 C318 1.385 . S
C317 H319 0.950 . S
C318 C312 1.404 . S
C318 H316 0.949 . S
C318 C317 1.385 . S
H319 C317 0.950 . S
H320 C304 0.951 . S
H321 C306 0.951 . S
H322 C308 0.951 . S
H323 C309 0.950 . S
H324 C310 0.950 . S
H325 C311 0.950 . S
H326 C313 0.950 . S
H327 C314 0.951 . S
C328 C329 1.386 . S
C328 C330 1.383 . S
C328 H344 0.957 . S
C329 C328 1.386 . S
C329 C333 1.383 . S
C330 C328 1.383 . S
C330 C331 1.402 . S
C330 H345 0.951 . S
C331 C330 1.402 . S
C331 C332 1.375 . S
C331 C334 1.481 . S
C332 C331 1.375 . S
C332 C333 1.367 . S
C332 H346 0.951 . S
C333 C329 1.383 . S
C333 C332 1.367 . S
C333 H347 0.950 . S
C334 C331 1.481 . S
C334 C335 1.297 . S
C334 H348 0.950 . S
C335 C334 1.297 . S
C335 C336 1.479 . S
C335 H349 0.950 . S
C336 C335 1.479 . S
C336 C337 1.375 . S
C336 C342 1.404 . S
C337 C336 1.375 . S
C337 C338 1.369 . S
C337 H350 0.950 . S
C338 C337 1.369 . S
C338 C339 1.392 . S
C338 H351 0.951 . S
C339 C338 1.392 . S
C339 C341 1.384 . S
H340 C342 0.949 . S
C341 C339 1.384 . S
C341 C342 1.385 . S
C341 H343 0.950 . S
C342 C336 1.404 . S
C342 H340 0.949 . S
C342 C341 1.385 . S
H343 C341 0.950 . S
H344 C328 0.957 . S
H345 C330 0.951 . S
H346 C332 0.951 . S
H347 C333 0.950 . S
H348 C334 0.950 . S
H349 C335 0.950 . S
H350 C337 0.950 . S
H351 C338 0.951 . S
C352 C353 1.386 . S
C352 C354 1.383 . S
C352 H368 0.951 . S
C353 C352 1.386 . S
C353 C357 1.383 1_554 S
C354 C352 1.383 . S
C354 C355 1.402 1_554 S
C354 H369 0.951 . S
C355 C354 1.402 1_556 S
C355 C356 1.375 . S
C355 C358 1.481 . S
C356 C355 1.375 . S
C356 C357 1.367 . S
C356 H370 0.951 . S
C357 C353 1.383 1_556 S
C357 C356 1.367 . S
C357 H371 0.950 . S
C358 C355 1.481 . S
C358 C359 1.297 . S
C358 H372 0.950 . S
C359 C358 1.297 . S
C359 C360 1.479 . S
C359 H373 0.950 1_556 S
C360 C359 1.479 . S
C360 C361 1.375 1_556 S
C360 C366 1.404 . S
C361 C360 1.375 1_554 S
C361 C362 1.369 1_554 S
C361 H374 0.950 . S
C362 C361 1.369 1_556 S
C362 C363 1.392 . S
C362 H375 0.951 1_546 S
C363 C362 1.392 . S
C363 C365 1.384 . S
H364 C366 0.949 . S
C365 C363 1.384 . S
C365 C366 1.385 . S
C365 H367 0.950 . S
C366 C360 1.404 . S
C366 H364 0.949 . S
C366 C365 1.385 . S
H367 C365 0.950 . S
H368 C352 0.951 . S
H369 C354 0.951 . S
H370 C356 0.951 . S
H371 C357 0.950 . S
H372 C358 0.950 . S
H373 C359 0.950 1_554 S
H374 C361 0.950 . S
H375 C362 0.951 1_564 S
C376 C377 1.386 . S
C376 C378 1.383 . S
C376 H392 0.951 . S
C377 C376 1.386 . S
C377 C381 1.383 . S
C378 C376 1.383 . S
C378 C379 1.402 . S
C378 H393 0.951 . S
C379 C378 1.402 . S
C379 C380 1.375 . S
C379 C382 1.481 . S
C380 C379 1.375 . S
C380 C381 1.367 . S
C380 H394 0.951 . S
C381 C377 1.383 . S
C381 C380 1.367 . S
C381 H395 0.950 . S
C382 C379 1.481 . S
C382 C383 1.297 . S
C382 H396 0.950 . S
C383 C382 1.297 . S
C383 C384 1.479 . S
C383 H397 0.950 . S
C384 C383 1.479 . S
C384 C385 1.375 . S
C384 C390 1.404 . S
C385 C384 1.375 . S
C385 C386 1.369 . S
C385 H398 0.950 . S
C386 C385 1.369 . S
C386 C387 1.392 . S
C386 H399 0.951 . S
C387 C386 1.392 . S
C387 C389 1.384 . S
H388 C390 0.949 . S
C389 C387 1.384 . S
C389 C390 1.385 . S
C389 H391 0.950 . S
C390 C384 1.404 . S
C390 H388 0.949 . S
C390 C389 1.385 . S
H391 C389 0.950 . S
H392 C376 0.951 . S
H393 C378 0.951 . S
H394 C380 0.951 . S
H395 C381 0.950 . S
H396 C382 0.950 . S
H397 C383 0.950 . S
H398 C385 0.950 . S
H399 C386 0.951 . S
C400 C401 1.386 . S
C400 C402 1.383 . S
C400 H416 0.951 . S
C401 C400 1.386 . S
C401 C405 1.383 . S
C402 C400 1.383 . S
C402 C403 1.402 . S
C402 H417 0.951 . S
C403 C402 1.402 . S
C403 C404 1.375 . S
C403 C406 1.481 . S
C404 C403 1.375 . S
C404 C405 1.367 . S
C404 H418 0.951 . S
C405 C401 1.383 . S
C405 C404 1.367 . S
C405 H419 0.950 . S
C406 C403 1.481 . S
C406 C407 1.297 . S
C406 H420 0.950 . S
C407 C406 1.297 . S
C407 C408 1.479 . S
C407 H421 0.950 . S
C408 C407 1.479 . S
C408 C409 1.375 . S
C408 C414 1.404 . S
C409 C408 1.375 . S
C409 C410 1.369 . S
C409 H422 0.950 . S
C410 C409 1.369 . S
C410 C411 1.392 . S
C410 H423 0.951 . S
C411 C410 1.392 . S
C411 C413 1.384 . S
H412 C414 0.949 . S
C413 C411 1.384 . S
C413 C414 1.385 . S
C413 H415 0.950 . S
C414 C408 1.404 . S
C414 H412 0.949 . S
C414 C413 1.385 . S
H415 C413 0.950 . S
H416 C400 0.951 . S
H417 C402 0.951 . S
H418 C404 0.951 . S
H419 C405 0.950 . S
H420 C406 0.950 . S
H421 C407 0.950 . S
H422 C409 0.950 . S
H423 C410 0.951 . S
C424 C425 1.386 . S
C424 C426 1.383 . S
C424 H440 0.951 . S
C425 C424 1.386 . S
C425 C429 1.383 . S
C426 C424 1.383 . S
C426 C427 1.402 . S
C426 H441 0.951 . S
C427 C426 1.402 . S
C427 C428 1.375 . S
C427 C430 1.481 . S
C428 C427 1.375 . S
C428 C429 1.367 . S
C428 H442 0.951 1_556 S
C429 C425 1.383 . S
C429 C428 1.367 . S
C429 H443 0.950 1_565 S
C430 C427 1.481 . S
C430 C431 1.297 . S
C430 H444 0.950 1_556 S
C431 C430 1.297 . S
C431 C432 1.479 . S
C431 H445 0.950 . S
C432 C431 1.479 . S
C432 C433 1.375 . S
C432 C438 1.404 1_556 S
C433 C432 1.375 . S
C433 C434 1.369 1_556 S
C433 H446 0.950 . S
C434 C433 1.369 1_554 S
C434 C435 1.392 . S
C434 H447 0.951 1_554 S
C435 C434 1.392 . S
C435 C437 1.384 . S
H436 C438 0.949 . S
C437 C435 1.384 . S
C437 C438 1.385 . S
C437 H439 0.950 1_655 S
C438 C432 1.404 1_554 S
C438 H436 0.949 . S
C438 C437 1.385 . S
H439 C437 0.950 1_455 S
H440 C424 0.951 . S
H441 C426 0.951 . S
H442 C428 0.951 1_554 S
H443 C429 0.950 1_545 S
H444 C430 0.950 1_554 S
H445 C431 0.950 . S
H446 C433 0.950 . S
H447 C434 0.951 1_556 S
C448 C449 1.386 . S
C448 C450 1.383 . S
C448 H464 0.951 1_455 S
C449 C448 1.386 . S
C449 C453 1.383 . S
C450 C448 1.383 . S
C450 C451 1.402 . S
C450 H465 0.951 . S
C451 C450 1.402 . S
C451 C452 1.375 . S
C451 C454 1.481 . S
C452 C451 1.375 . S
C452 C453 1.367 . S
C452 H466 0.951 . S
C453 C449 1.383 . S
C453 C452 1.367 . S
C453 H467 0.950 . S
C454 C451 1.481 . S
C454 C455 1.297 . S
C454 H468 0.950 . S
C455 C454 1.297 . S
C455 C456 1.479 . S
C455 H469 0.950 . S
C456 C455 1.479 . S
C456 C457 1.375 . S
C456 C462 1.404 . S
C457 C456 1.375 . S
C457 C458 1.369 . S
C457 H470 0.950 . S
C458 C457 1.369 . S
C458 C459 1.392 . S
C458 H471 0.951 . S
C459 C458 1.392 . S
C459 C461 1.384 . S
H460 C462 0.949 . S
C461 C459 1.384 . S
C461 C462 1.385 . S
C461 H463 0.950 . S
C462 C456 1.404 . S
C462 H460 0.949 . S
C462 C461 1.385 . S
H463 C461 0.950 . S
H464 C448 0.951 1_655 S
H465 C450 0.951 . S
H466 C452 0.951 . S
H467 C453 0.950 . S
H468 C454 0.950 . S
H469 C455 0.950 . S
H470 C457 0.950 . S
H471 C458 0.951 . S
C472 C473 1.386 . S
C472 C474 1.383 . S
C472 H488 0.951 . S
C473 C472 1.386 . S
C473 C477 1.383 . S
C474 C472 1.383 . S
C474 C475 1.402 . S
C474 H489 0.951 . S
C475 C474 1.402 . S
C475 C476 1.375 . S
C475 C478 1.481 . S
C476 C475 1.375 . S
C476 C477 1.367 . S
C476 H490 0.951 . S
C477 C473 1.383 . S
C477 C476 1.367 . S
C477 H491 0.950 . S
C478 C475 1.481 . S
C478 C479 1.297 . S
C478 H492 0.950 . S
C479 C478 1.297 . S
C479 C480 1.479 . S
C479 H493 0.950 . S
C480 C479 1.479 . S
C480 C481 1.375 . S
C480 C486 1.404 . S
C481 C480 1.375 . S
C481 C482 1.369 . S
C481 H494 0.950 . S
C482 C481 1.369 . S
C482 C483 1.392 . S
C482 H495 0.951 . S
C483 C482 1.392 . S
C483 C485 1.384 . S
H484 C486 0.949 . S
C485 C483 1.384 . S
C485 C486 1.385 . S
C485 H487 0.950 . S
C486 C480 1.404 . S
C486 H484 0.949 . S
C486 C485 1.385 . S
H487 C485 0.950 . S
H488 C472 0.951 . S
H489 C474 0.951 . S
H490 C476 0.951 . S
H491 C477 0.950 . S
H492 C478 0.950 . S
H493 C479 0.950 . S
H494 C481 0.950 . S
H495 C482 0.951 . S
C113 C25 1.346 . S
C123 C11 1.351 . S
C137 C19 1.281 . S
C147 C33 1.191 . S
C161 C53 1.338 . S
C171 C39 1.323 . S
C185 C47 1.205 . S
C195 C5 1.132 . S
C209 C67 1.344 . S
C219 C81 1.349 . S
C233 C75 1.232 . S
C243 C89 1.114 . S
C257 C95 1.312 . S
C267 C109 1.289 . S
C281 C61 1.175 . S
C291 C103 1.180 . S
C305 C12 1.474 . S
C315 C110 1.464 . S
C329 C60 1.383 1_565 S
C339 C18 1.437 . S
C353 C82 1.474 1_455 S
C363 C40 1.460 1_545 S
C377 C46 1.405 1_655 S
C387 C88 1.435 . S
C401 C32 1.399 1_545 S
C411 C102 1.350 . S
C425 C68 1.470 1_565 S
C435 C54 1.471 1_655 S
C449 C74 1.381 1_455 S
C459 C4 1.373 . S
C473 C26 1.474 . S
C483 C96 1.466 . S
