# Generated by pormake.
# Topology mdf, (4)-cn, num edge types: 1
# Building blocks:
#     Node 0, Type 0, BuildingBlock: GALJAG_clean_sbu_0, # of connection points: 4
#     Node 1, Type 0, BuildingBlock: GALJAG_clean_sbu_0, # of connection points: 4
#     Node 2, Type 0, BuildingBlock: GALJAG_clean_sbu_0, # of connection points: 4
#     Node 3, Type 0, BuildingBlock: GALJAG_clean_sbu_0, # of connection points: 4
#     Node 4, Type 0, BuildingBlock: GALJAG_clean_sbu_0, # of connection points: 4
#     Node 5, Type 0, BuildingBlock: GALJAG_clean_sbu_0, # of connection points: 4
#     Node 6, Type 0, BuildingBlock: GALJAG_clean_sbu_0, # of connection points: 4
#     Node 7, Type 0, BuildingBlock: GALJAG_clean_sbu_0, # of connection points: 4
#     Edge 8, Type (0, 0), BuildingBlock: OJICUG_clean_linker_0, # of connection points: 2
#     Edge 9, Type (0, 0), BuildingBlock: OJICUG_clean_linker_0, # of connection points: 2
#     Edge 10, Type (0, 0), BuildingBlock: OJICUG_clean_linker_0, # of connection points: 2
#     Edge 11, Type (0, 0), BuildingBlock: OJICUG_clean_linker_0, # of connection points: 2
#     Edge 12, Type (0, 0), BuildingBlock: OJICUG_clean_linker_0, # of connection points: 2
#     Edge 13, Type (0, 0), BuildingBlock: OJICUG_clean_linker_0, # of connection points: 2
#     Edge 14, Type (0, 0), BuildingBlock: OJICUG_clean_linker_0, # of connection points: 2
#     Edge 15, Type (0, 0), BuildingBlock: OJICUG_clean_linker_0, # of connection points: 2
#     Edge 16, Type (0, 0), BuildingBlock: OJICUG_clean_linker_0, # of connection points: 2
#     Edge 17, Type (0, 0), BuildingBlock: OJICUG_clean_linker_0, # of connection points: 2
#     Edge 18, Type (0, 0), BuildingBlock: OJICUG_clean_linker_0, # of connection points: 2
#     Edge 19, Type (0, 0), BuildingBlock: OJICUG_clean_linker_0, # of connection points: 2
#     Edge 20, Type (0, 0), BuildingBlock: OJICUG_clean_linker_0, # of connection points: 2
#     Edge 21, Type (0, 0), BuildingBlock: OJICUG_clean_linker_0, # of connection points: 2
#     Edge 22, Type (0, 0), BuildingBlock: OJICUG_clean_linker_0, # of connection points: 2
#     Edge 23, Type (0, 0), BuildingBlock: OJICUG_clean_linker_0, # of connection points: 2
# Relax obj value: 0.054
# Max RMSD: 0.086
# Mean RMSD: 0.086
data_MOF--net-mdf--node1-GALJAG_clean_sbu_0--edge1-OJICUG_clean_linker_0
_symmetry_space_group_name_H-M    P1
_symmetry_Int_Tables_number       1
_symmetry_cell_setting            triclinic
loop_
_symmetry_equiv_pos_as_xyz
'x, y, z'
_cell_length_a     28.769975
_cell_length_b     28.696383
_cell_length_c     7.8819261
_cell_angle_alpha  90.237785
_cell_angle_beta   90.231033
_cell_angle_gamma 89.983056
loop_
_atom_site_label
_atom_site_type_symbol
_atom_site_fract_x
_atom_site_fract_y
_atom_site_fract_z
_atom_type_partial_charge
In0 In 0.24709 0.51636 0.36798 0.0
O1 O 0.26561 0.55105 0.11768 0.0
O2 O 0.29986 0.57394 0.3441 0.0
C3 C 0.17767 0.456 0.30476 0.0
C4 C 0.31659 0.45633 0.43288 0.0
C5 C 0.19911 0.57831 0.55155 0.0
O6 O 0.19627 0.47963 0.18794 0.0
O7 O 0.19424 0.46293 0.45105 0.0
O8 O 0.22893 0.55151 0.61844 0.0
O9 O 0.19377 0.57354 0.39335 0.0
C10 C 0.29495 0.5783 0.18574 0.0
O11 O 0.29772 0.48027 0.54899 0.0
O12 O 0.30028 0.46281 0.28609 0.0
In13 In 0.47628 0.74892 0.62808 0.0
O14 O 0.44078 0.73027 0.8764 0.0
O15 O 0.41986 0.69478 0.64986 0.0
C16 C 0.53644 0.81834 0.69389 0.0
C17 C 0.5373 0.68025 0.56386 0.0
C18 C 0.41467 0.79724 0.44454 0.0
O19 O 0.51311 0.79917 0.8103 0.0
O20 O 0.52911 0.80247 0.54676 0.0
O21 O 0.44137 0.76732 0.37754 0.0
O22 O 0.41927 0.80241 0.60288 0.0
C23 C 0.41462 0.70003 0.80774 0.0
O24 O 0.51341 0.69892 0.44722 0.0
O25 O 0.5301 0.69621 0.71077 0.0
In26 In 0.24797 0.98057 0.87435 0.0
O27 O 0.26621 0.94584 0.12517 0.0
O28 O 0.30119 0.92335 0.90071 0.0
C29 C 0.17833 0.04052 0.9382 0.0
C30 C 0.31718 0.04082 0.81054 0.0
C31 C 0.20029 0.91829 0.68981 0.0
O32 O 0.19759 0.01713 0.05479 0.0
O33 O 0.19435 0.03355 0.79157 0.0
O34 O 0.22975 0.94539 0.62331 0.0
O35 O 0.19514 0.92298 0.84794 0.0
C36 C 0.2959 0.91883 0.05871 0.0
O37 O 0.29822 0.01691 0.69404 0.0
O38 O 0.3011 0.0342 0.95708 0.0
In39 In 0.01876 0.74827 0.12133 0.0
O40 O 0.98249 0.69828 0.30311 0.0
O41 O 0.96497 0.69517 0.04031 0.0
C42 C 0.08083 0.7966 0.30419 0.0
C43 C 0.07992 0.6996 0.93713 0.0
C44 C 0.95843 0.81762 0.05796 0.0
O45 O 0.05422 0.76679 0.37123 0.0
O46 O 0.07587 0.80171 0.14612 0.0
O47 O 0.98165 0.79836 0.94095 0.0
O48 O 0.96589 0.80186 0.20468 0.0
C49 C 0.95836 0.67932 0.18724 0.0
O50 O 0.05322 0.72956 0.87053 0.0
O51 O 0.07547 0.69451 0.09525 0.0
In52 In 0.74785 0.01696 0.87691 0.0
O53 O 0.76602 0.05116 0.62559 0.0
O54 O 0.80074 0.07442 0.85059 0.0
C55 C 0.67808 0.95696 0.8142 0.0
C56 C 0.81736 0.95679 0.93984 0.0
C57 C 0.70024 0.0792 0.06056 0.0
O58 O 0.69665 0.98066 0.69753 0.0
O59 O 0.69487 0.96362 0.96034 0.0
O60 O 0.72976 0.05211 0.12769 0.0
O61 O 0.69507 0.07459 0.90225 0.0
C62 C 0.79556 0.07846 0.69219 0.0
O63 O 0.79889 0.98083 0.05657 0.0
O64 O 0.80063 0.96324 0.79369 0.0
In65 In 0.97579 0.2476 0.12393 0.0
O66 O 0.94093 0.22941 0.37383 0.0
O67 O 0.91937 0.19356 0.14881 0.0
C68 C 0.03628 0.31692 0.18721 0.0
C69 C 0.03645 0.17865 0.05923 0.0
C70 C 0.91383 0.29599 0.94216 0.0
O71 O 0.01305 0.29797 0.30434 0.0
O72 O 0.02872 0.30088 0.04048 0.0
O73 O 0.94036 0.26606 0.87435 0.0
O74 O 0.91877 0.30111 0.10039 0.0
C75 C 0.91458 0.19908 0.30679 0.0
O76 O 0.01238 0.19722 0.94283 0.0
O77 O 0.0296 0.19486 0.20599 0.0
In78 In 0.74784 0.48117 0.37746 0.0
O79 O 0.76608 0.44606 0.62764 0.0
O80 O 0.80052 0.42342 0.40226 0.0
C81 C 0.67888 0.5418 0.44242 0.0
C82 C 0.81744 0.54084 0.3121 0.0
C83 C 0.69937 0.41936 0.1936 0.0
O84 O 0.69806 0.51827 0.5588 0.0
O85 O 0.69465 0.53464 0.29556 0.0
O86 O 0.72921 0.44599 0.12687 0.0
O87 O 0.69422 0.42428 0.35164 0.0
C88 C 0.79539 0.41879 0.56028 0.0
O89 O 0.79788 0.5173 0.19592 0.0
O90 O 0.80179 0.53411 0.45922 0.0
In91 In 0.5183 0.24881 0.62464 0.0
O92 O 0.48159 0.19899 0.80589 0.0
O93 O 0.46507 0.19529 0.54232 0.0
C94 C 0.57976 0.29764 0.80851 0.0
C95 C 0.58019 0.2003 0.44316 0.0
C96 C 0.45777 0.31774 0.55779 0.0
O97 O 0.55316 0.26778 0.87539 0.0
O98 O 0.57507 0.30253 0.65026 0.0
O99 O 0.48134 0.29837 0.44192 0.0
O100 O 0.46501 0.3023 0.70511 0.0
C101 C 0.45798 0.1797 0.68931 0.0
O102 O 0.55364 0.23022 0.3755 0.0
O103 O 0.5752 0.19514 0.60104 0.0
C104 C 0.35151 0.64048 0.81913 0.0
C105 C 0.38157 0.67142 0.90438 0.0
H106 H 0.30012 0.58689 0.84165 0.0
C107 C 0.38097 0.67333 0.08222 0.0
H108 H 0.35105 0.63848 0.68181 0.0
C109 C 0.35202 0.64361 0.17344 0.0
C110 C 0.32293 0.61174 0.08832 0.0
H111 H 0.40363 0.69696 0.15105 0.0
H112 H 0.35297 0.64515 0.3108 0.0
C113 C 0.3223 0.611 0.91035 0.0
C114 C 0.35098 0.85613 0.42872 0.0
C115 C 0.38182 0.82573 0.34553 0.0
H116 H 0.29923 0.9093 0.40275 0.0
C117 C 0.38229 0.82435 0.16761 0.0
H118 H 0.34971 0.85772 0.56601 0.0
C119 C 0.3536 0.85407 0.07445 0.0
C120 C 0.32372 0.88542 0.15767 0.0
H121 H 0.40561 0.80116 0.10037 0.0
H122 H 0.35537 0.85296 0.93719 0.0
C123 C 0.32204 0.88562 0.33553 0.0
C124 C 0.14459 0.85542 0.31967 0.0
C125 C 0.11395 0.82504 0.40294 0.0
H126 H 0.19636 0.90861 0.34557 0.0
C127 C 0.11393 0.82363 0.58083 0.0
H128 H 0.14552 0.857 0.18239 0.0
C129 C 0.14281 0.85336 0.67396 0.0
C130 C 0.17244 0.88473 0.59072 0.0
H131 H 0.0908 0.80043 0.64814 0.0
H132 H 0.14136 0.85227 0.81124 0.0
C133 C 0.17373 0.88491 0.41282 0.0
C134 C 0.1122 0.67239 0.66022 0.0
C135 C 0.11275 0.67112 0.83812 0.0
H136 H 0.13922 0.64378 0.42981 0.0
C137 C 0.14377 0.64092 0.92139 0.0
H138 H 0.08874 0.69542 0.59293 0.0
C139 C 0.17285 0.61155 0.82828 0.0
C140 C 0.17113 0.61165 0.65039 0.0
H141 H 0.14512 0.63943 0.05867 0.0
H142 H 0.19582 0.58805 0.89559 0.0
C143 C 0.14103 0.64277 0.56709 0.0
C144 C 0.85263 0.14372 0.67619 0.0
C145 C 0.82343 0.11158 0.59297 0.0
H146 H 0.90416 0.19701 0.65046 0.0
C147 C 0.82258 0.11024 0.41505 0.0
H148 H 0.85376 0.1457 0.81347 0.0
C149 C 0.85162 0.13944 0.32198 0.0
C150 C 0.88175 0.17069 0.40532 0.0
H151 H 0.80035 0.08588 0.34781 0.0
H152 H 0.85097 0.13698 0.18477 0.0
C153 C 0.88143 0.17315 0.58311 0.0
C154 C 0.85037 0.35516 0.92835 0.0
C155 C 0.88091 0.32466 0.84416 0.0
H156 H 0.79895 0.40873 0.90413 0.0
C157 C 0.88113 0.32346 0.66622 0.0
H158 H 0.84928 0.3566 0.06568 0.0
C159 C 0.85253 0.3535 0.57403 0.0
C160 C 0.82301 0.38499 0.65825 0.0
H161 H 0.9042 0.3002 0.59821 0.0
H162 H 0.85413 0.35255 0.43673 0.0
C163 C 0.82152 0.38496 0.83613 0.0
C164 C 0.67281 0.38578 0.91699 0.0
C165 C 0.67126 0.38595 0.09486 0.0
H166 H 0.64484 0.35756 0.68671 0.0
C167 C 0.64125 0.35497 0.17829 0.0
H168 H 0.69573 0.40916 0.84959 0.0
C169 C 0.61233 0.32523 0.08531 0.0
C170 C 0.6127 0.32623 0.9074 0.0
H171 H 0.63957 0.35416 0.31556 0.0
H172 H 0.58895 0.3023 0.15271 0.0
C173 C 0.64364 0.35629 0.824 0.0
C174 C 0.67321 0.11206 0.33704 0.0
C175 C 0.67227 0.11262 0.15909 0.0
H176 H 0.64457 0.13948 0.5667 0.0
C177 C 0.64278 0.14418 0.07516 0.0
H178 H 0.6957 0.08819 0.40483 0.0
C179 C 0.61371 0.17372 0.16754 0.0
C180 C 0.6134 0.17194 0.34536 0.0
H181 H 0.64158 0.14557 0.93784 0.0
H182 H 0.59072 0.19709 0.09963 0.0
C183 C 0.64388 0.14136 0.42943 0.0
C184 C 0.36744 0.41138 0.63161 0.0
C185 C 0.35419 0.42247 0.4651 0.0
H186 H 0.41063 0.3694 0.79123 0.0
C187 C 0.37644 0.40004 0.32872 0.0
H188 H 0.35094 0.42815 0.73906 0.0
C189 C 0.41083 0.36662 0.35838 0.0
C190 C 0.42332 0.35477 0.52497 0.0
H191 H 0.36703 0.40803 0.19882 0.0
H192 H 0.42702 0.34952 0.251 0.0
C193 C 0.40157 0.37771 0.66128 0.0
C194 C 0.61845 0.90098 0.92044 0.0
C195 C 0.64028 0.92317 0.78331 0.0
H196 H 0.56809 0.85063 -0.00016 0.0
C197 C 0.62641 0.91192 0.6173 0.0
H198 H 0.62832 0.90912 0.05001 0.0
C199 C 0.59215 0.87827 0.58879 0.0
C200 C 0.57086 0.85551 0.72579 0.0
H201 H 0.64255 0.92851 0.5093 0.0
H202 H 0.58264 0.8698 0.45914 0.0
C203 C 0.58391 0.86758 0.89195 0.0
C204 C 0.08314 0.12906 0.86129 0.0
C205 C 0.07107 0.1417 0.02753 0.0
H206 H 0.12678 0.08716 0.7029 0.0
C207 C 0.09343 0.11967 0.16449 0.0
H208 H 0.06648 0.14545 0.75342 0.0
C209 C 0.12774 0.08612 0.13579 0.0
C210 C 0.14057 0.07426 0.96959 0.0
H211 H 0.08471 0.12861 0.2942 0.0
H212 H 0.14471 0.07007 0.24369 0.0
C213 C 0.11772 0.09577 0.83259 0.0
C214 C 0.91254 0.62974 0.38633 0.0
C215 C 0.92399 0.64229 0.21978 0.0
H216 H 0.86965 0.5878 0.54594 0.0
C217 C 0.90128 0.62003 0.08343 0.0
H218 H 0.9295 0.64629 0.49375 0.0
C219 C 0.86724 0.58636 0.11308 0.0
C220 C 0.85502 0.5746 0.27966 0.0
H221 H 0.90952 0.62889 0.95349 0.0
H222 H 0.84996 0.57015 0.00566 0.0
C223 C 0.87824 0.59633 0.41601 0.0
C224 C 0.37708 0.09706 0.91609 0.0
C225 C 0.35466 0.07478 0.77914 0.0
H226 H 0.42771 0.14751 0.99517 0.0
C227 C 0.36765 0.08609 0.61293 0.0
H228 H 0.36789 0.08889 0.04578 0.0
C229 C 0.40168 0.11983 0.58417 0.0
C230 C 0.42361 0.14261 0.72108 0.0
H231 H 0.35101 0.06944 0.50506 0.0
H232 H 0.41054 0.12832 0.45445 0.0
C233 C 0.41138 0.13054 0.88734 0.0
C234 C 0.87684 0.90051 0.83306 0.0
C235 C 0.85499 0.92284 0.97052 0.0
H236 H 0.92706 0.84993 0.75284 0.0
C237 C 0.86864 0.91155 0.13641 0.0
H238 H 0.86714 0.90867 0.70359 0.0
C239 C 0.90274 0.87772 0.1644 0.0
C240 C 0.92406 0.85485 0.027 0.0
H241 H 0.85246 0.92824 0.24464 0.0
H242 H 0.91211 0.86922 0.29391 0.0
C243 C 0.9112 0.86695 0.86103 0.0
C244 C 0.0837 0.36654 0.38392 0.0
C245 C 0.07076 0.3541 0.21802 0.0
H246 H 0.12789 0.40851 0.54117 0.0
C247 C 0.09211 0.37658 0.08052 0.0
H248 H 0.06783 0.34983 0.49219 0.0
C249 C 0.1263 0.41036 0.10835 0.0
C250 C 0.14002 0.42202 0.27418 0.0
H251 H 0.08269 0.3678 0.95106 0.0
H252 H 0.1425 0.42675 4e-05 0.0
C253 C 0.11815 0.40007 0.41173 0.0
C254 C 0.58414 0.63084 0.36597 0.0
C255 C 0.57202 0.6434 0.53222 0.0
H256 H 0.62768 0.58889 0.20745 0.0
C257 C 0.59433 0.62129 0.66914 0.0
H258 H 0.56753 0.64729 0.25813 0.0
C259 C 0.62857 0.58766 0.64033 0.0
C260 C 0.64137 0.57581 0.47409 0.0
H261 H 0.58559 0.63019 0.79886 0.0
H262 H 0.64547 0.5715 0.74817 0.0
C263 C 0.61863 0.59748 0.33717 0.0
loop_
_geom_bond_atom_site_label_1
_geom_bond_atom_site_label_2
_geom_bond_distance
_geom_bond_site_symmetry_2
_ccdc_geom_bond_type
In0 O1 2.294 . S
In0 O2 2.326 . S
In0 O6 2.266 . S
In0 O7 2.326 . S
In0 O8 2.266 . S
In0 O9 2.326 . S
In0 O11 2.294 . S
In0 O12 2.326 . S
O1 In0 2.294 . S
O1 C10 1.240 . S
O2 In0 2.326 . S
O2 C10 1.252 . S
C3 O6 1.252 . S
C3 O7 1.260 . S
C4 O11 1.240 . S
C4 O12 1.252 . S
C5 O8 1.252 . S
C5 O9 1.260 . S
O6 In0 2.266 . S
O6 C3 1.252 . S
O7 In0 2.326 . S
O7 C3 1.260 . S
O8 In0 2.266 . S
O8 C5 1.252 . S
O9 In0 2.326 . S
O9 C5 1.260 . S
C10 O1 1.240 . S
C10 O2 1.252 . S
O11 In0 2.294 . S
O11 C4 1.240 . S
O12 In0 2.326 . S
O12 C4 1.252 . S
In13 O14 2.294 . S
In13 O15 2.326 . S
In13 O19 2.266 . S
In13 O20 2.326 . S
In13 O21 2.266 . S
In13 O22 2.326 . S
In13 O24 2.294 . S
In13 O25 2.326 . S
O14 In13 2.294 . S
O14 C23 1.240 . S
O15 In13 2.326 . S
O15 C23 1.252 . S
C16 O19 1.252 . S
C16 O20 1.260 . S
C17 O24 1.240 . S
C17 O25 1.252 . S
C18 O21 1.252 . S
C18 O22 1.260 . S
O19 In13 2.266 . S
O19 C16 1.252 . S
O20 In13 2.326 . S
O20 C16 1.260 . S
O21 In13 2.266 . S
O21 C18 1.252 . S
O22 In13 2.326 . S
O22 C18 1.260 . S
C23 O14 1.240 . S
C23 O15 1.252 . S
O24 In13 2.294 . S
O24 C17 1.240 . S
O25 In13 2.326 . S
O25 C17 1.252 . S
In26 O27 2.294 1_556 S
In26 O28 2.326 . S
In26 O32 2.266 1_566 S
In26 O33 2.326 1_565 S
In26 O34 2.266 . S
In26 O35 2.326 . S
In26 O37 2.294 1_565 S
In26 O38 2.326 1_565 S
O27 In26 2.294 1_554 S
O27 C36 1.240 . S
O28 In26 2.326 . S
O28 C36 1.252 1_556 S
C29 O32 1.252 1_556 S
C29 O33 1.260 . S
C30 O37 1.240 . S
C30 O38 1.252 . S
C31 O34 1.252 . S
C31 O35 1.260 . S
O32 In26 2.266 1_544 S
O32 C29 1.252 1_554 S
O33 In26 2.326 1_545 S
O33 C29 1.260 . S
O34 In26 2.266 . S
O34 C31 1.252 . S
O35 In26 2.326 . S
O35 C31 1.260 . S
C36 O27 1.240 . S
C36 O28 1.252 1_554 S
O37 In26 2.294 1_545 S
O37 C30 1.240 . S
O38 In26 2.326 1_545 S
O38 C30 1.252 . S
In39 O40 2.294 1_455 S
In39 O41 2.326 1_455 S
In39 O45 2.266 . S
In39 O46 2.326 . S
In39 O47 2.266 1_454 S
In39 O48 2.326 1_455 S
In39 O50 2.294 1_554 S
In39 O51 2.326 . S
O40 In39 2.294 1_655 S
O40 C49 1.240 . S
O41 In39 2.326 1_655 S
O41 C49 1.252 . S
C42 O45 1.252 . S
C42 O46 1.260 . S
C43 O50 1.240 . S
C43 O51 1.252 1_556 S
C44 O47 1.252 1_554 S
C44 O48 1.260 . S
O45 In39 2.266 . S
O45 C42 1.252 . S
O46 In39 2.326 . S
O46 C42 1.260 . S
O47 In39 2.266 1_656 S
O47 C44 1.252 1_556 S
O48 In39 2.326 1_655 S
O48 C44 1.260 . S
C49 O40 1.240 . S
C49 O41 1.252 . S
O50 In39 2.294 1_556 S
O50 C43 1.240 . S
O51 In39 2.326 . S
O51 C43 1.252 1_554 S
In52 O53 2.294 . S
In52 O54 2.326 . S
In52 O58 2.266 1_545 S
In52 O59 2.326 1_545 S
In52 O60 2.266 1_556 S
In52 O61 2.326 . S
In52 O63 2.294 1_546 S
In52 O64 2.326 1_545 S
O53 In52 2.294 . S
O53 C62 1.240 . S
O54 In52 2.326 . S
O54 C62 1.252 . S
C55 O58 1.252 . S
C55 O59 1.260 . S
C56 O63 1.240 1_556 S
C56 O64 1.252 . S
C57 O60 1.252 . S
C57 O61 1.260 1_554 S
O58 In52 2.266 1_565 S
O58 C55 1.252 . S
O59 In52 2.326 1_565 S
O59 C55 1.260 . S
O60 In52 2.266 1_554 S
O60 C57 1.252 . S
O61 In52 2.326 . S
O61 C57 1.260 1_556 S
C62 O53 1.240 . S
C62 O54 1.252 . S
O63 In52 2.294 1_564 S
O63 C56 1.240 1_554 S
O64 In52 2.326 1_565 S
O64 C56 1.252 . S
In65 O66 2.294 . S
In65 O67 2.326 . S
In65 O71 2.266 1_655 S
In65 O72 2.326 1_655 S
In65 O73 2.266 1_554 S
In65 O74 2.326 . S
In65 O76 2.294 1_654 S
In65 O77 2.326 1_655 S
O66 In65 2.294 . S
O66 C75 1.240 . S
O67 In65 2.326 . S
O67 C75 1.252 . S
C68 O71 1.252 . S
C68 O72 1.260 . S
C69 O76 1.240 1_554 S
C69 O77 1.252 . S
C70 O73 1.252 . S
C70 O74 1.260 1_556 S
O71 In65 2.266 1_455 S
O71 C68 1.252 . S
O72 In65 2.326 1_455 S
O72 C68 1.260 . S
O73 In65 2.266 1_556 S
O73 C70 1.252 . S
O74 In65 2.326 . S
O74 C70 1.260 1_554 S
C75 O66 1.240 . S
C75 O67 1.252 . S
O76 In65 2.294 1_456 S
O76 C69 1.240 1_556 S
O77 In65 2.326 1_455 S
O77 C69 1.252 . S
In78 O79 2.294 . S
In78 O80 2.326 . S
In78 O84 2.266 . S
In78 O85 2.326 . S
In78 O86 2.266 . S
In78 O87 2.326 . S
In78 O89 2.294 . S
In78 O90 2.326 . S
O79 In78 2.294 . S
O79 C88 1.240 . S
O80 In78 2.326 . S
O80 C88 1.252 . S
C81 O84 1.252 . S
C81 O85 1.260 . S
C82 O89 1.240 . S
C82 O90 1.252 . S
C83 O86 1.252 . S
C83 O87 1.260 . S
O84 In78 2.266 . S
O84 C81 1.252 . S
O85 In78 2.326 . S
O85 C81 1.260 . S
O86 In78 2.266 . S
O86 C83 1.252 . S
O87 In78 2.326 . S
O87 C83 1.260 . S
C88 O79 1.240 . S
C88 O80 1.252 . S
O89 In78 2.294 . S
O89 C82 1.240 . S
O90 In78 2.326 . S
O90 C82 1.252 . S
In91 O92 2.294 . S
In91 O93 2.326 . S
In91 O97 2.266 . S
In91 O98 2.326 . S
In91 O99 2.266 . S
In91 O100 2.326 . S
In91 O102 2.294 . S
In91 O103 2.326 . S
O92 In91 2.294 . S
O92 C101 1.240 . S
O93 In91 2.326 . S
O93 C101 1.252 . S
C94 O97 1.252 . S
C94 O98 1.260 . S
C95 O102 1.240 . S
C95 O103 1.252 . S
C96 O99 1.252 . S
C96 O100 1.260 . S
O97 In91 2.266 . S
O97 C94 1.252 . S
O98 In91 2.326 . S
O98 C94 1.260 . S
O99 In91 2.266 . S
O99 C96 1.252 . S
O100 In91 2.326 . S
O100 C96 1.260 . S
C101 O92 1.240 . S
C101 O93 1.252 . S
O102 In91 2.294 . S
O102 C95 1.240 . S
O103 In91 2.326 . S
O103 C95 1.252 . S
C104 C105 1.387 . S
C104 H108 0.950 . S
C104 C113 1.390 1_556 S
C105 C104 1.387 . S
C105 C107 1.387 . S
H106 C113 0.950 . S
C107 C105 1.387 . S
C107 C109 1.390 1_556 S
C107 H111 0.950 . S
H108 C104 0.950 . S
C109 C107 1.390 1_554 S
C109 C110 1.387 . S
C109 H112 0.950 . S
C110 C109 1.387 . S
C110 C113 1.387 . S
H111 C107 0.950 . S
H112 C109 0.950 . S
C113 C104 1.390 1_554 S
C113 H106 0.950 . S
C113 C110 1.387 . S
C114 C115 1.387 . S
C114 H118 0.950 . S
C114 C123 1.390 . S
C115 C114 1.387 . S
C115 C117 1.387 . S
H116 C123 0.950 . S
C117 C115 1.387 . S
C117 C119 1.390 . S
C117 H121 0.950 . S
H118 C114 0.950 . S
C119 C117 1.390 . S
C119 C120 1.387 . S
C119 H122 0.950 . S
C120 C119 1.387 . S
C120 C123 1.387 . S
H121 C117 0.950 . S
H122 C119 0.950 . S
C123 C114 1.390 . S
C123 H116 0.950 . S
C123 C120 1.387 . S
C124 C125 1.387 . S
C124 H128 0.950 . S
C124 C133 1.390 . S
C125 C124 1.387 . S
C125 C127 1.387 . S
H126 C133 0.950 . S
C127 C125 1.387 . S
C127 C129 1.390 . S
C127 H131 0.950 . S
H128 C124 0.950 . S
C129 C127 1.390 . S
C129 C130 1.387 . S
C129 H132 0.950 . S
C130 C129 1.387 . S
C130 C133 1.387 . S
H131 C127 0.950 . S
H132 C129 0.950 . S
C133 C124 1.390 . S
C133 H126 0.950 . S
C133 C130 1.387 . S
C134 C135 1.387 . S
C134 H138 0.950 . S
C134 C143 1.390 . S
C135 C134 1.387 . S
C135 C137 1.387 . S
H136 C143 0.950 . S
C137 C135 1.387 . S
C137 C139 1.390 . S
C137 H141 0.950 . S
H138 C134 0.950 . S
C139 C137 1.390 . S
C139 C140 1.387 . S
C139 H142 0.950 . S
C140 C139 1.387 . S
C140 C143 1.387 . S
H141 C137 0.950 . S
H142 C139 0.950 . S
C143 C134 1.390 . S
C143 H136 0.950 . S
C143 C140 1.387 . S
C144 C145 1.387 . S
C144 H148 0.950 . S
C144 C153 1.390 . S
C145 C144 1.387 . S
C145 C147 1.387 . S
H146 C153 0.950 . S
C147 C145 1.387 . S
C147 C149 1.390 . S
C147 H151 0.950 . S
H148 C144 0.950 . S
C149 C147 1.390 . S
C149 C150 1.387 . S
C149 H152 0.950 . S
C150 C149 1.387 . S
C150 C153 1.387 . S
H151 C147 0.950 . S
H152 C149 0.950 . S
C153 C144 1.390 . S
C153 H146 0.950 . S
C153 C150 1.387 . S
C154 C155 1.387 . S
C154 H158 0.950 . S
C154 C163 1.390 . S
C155 C154 1.387 . S
C155 C157 1.387 . S
H156 C163 0.950 . S
C157 C155 1.387 . S
C157 C159 1.390 . S
C157 H161 0.950 . S
H158 C154 0.950 . S
C159 C157 1.390 . S
C159 C160 1.387 . S
C159 H162 0.950 . S
C160 C159 1.387 . S
C160 C163 1.387 . S
H161 C157 0.950 . S
H162 C159 0.950 . S
C163 C154 1.390 . S
C163 H156 0.950 . S
C163 C160 1.387 . S
C164 C165 1.387 1_556 S
C164 H168 0.950 . S
C164 C173 1.390 . S
C165 C164 1.387 1_554 S
C165 C167 1.387 . S
H166 C173 0.950 . S
C167 C165 1.387 . S
C167 C169 1.390 . S
C167 H171 0.950 . S
H168 C164 0.950 . S
C169 C167 1.390 . S
C169 C170 1.387 1_554 S
C169 H172 0.950 . S
C170 C169 1.387 1_556 S
C170 C173 1.387 . S
H171 C167 0.950 . S
H172 C169 0.950 . S
C173 C164 1.390 . S
C173 H166 0.950 . S
C173 C170 1.387 . S
C174 C175 1.387 . S
C174 H178 0.950 . S
C174 C183 1.390 . S
C175 C174 1.387 . S
C175 C177 1.387 . S
H176 C183 0.950 . S
C177 C175 1.387 . S
C177 C179 1.390 . S
C177 H181 0.950 . S
H178 C174 0.950 . S
C179 C177 1.390 . S
C179 C180 1.387 . S
C179 H182 0.950 . S
C180 C179 1.387 . S
C180 C183 1.387 . S
H181 C177 0.950 . S
H182 C179 0.950 . S
C183 C174 1.390 . S
C183 H176 0.950 . S
C183 C180 1.387 . S
C184 C185 1.387 . S
C184 H188 0.950 . S
C184 C193 1.390 . S
C185 C184 1.387 . S
C185 C187 1.387 . S
H186 C193 0.950 . S
C187 C185 1.387 . S
C187 C189 1.390 . S
C187 H191 0.950 . S
H188 C184 0.950 . S
C189 C187 1.390 . S
C189 C190 1.387 . S
C189 H192 0.950 . S
C190 C189 1.387 . S
C190 C193 1.387 . S
H191 C187 0.950 . S
H192 C189 0.950 . S
C193 C184 1.390 . S
C193 H186 0.950 . S
C193 C190 1.387 . S
C194 C195 1.387 . S
C194 H198 0.950 1_556 S
C194 C203 1.390 . S
C195 C194 1.387 . S
C195 C197 1.387 . S
H196 C203 0.950 . S
C197 C195 1.387 . S
C197 C199 1.390 . S
C197 H201 0.950 . S
H198 C194 0.950 1_554 S
C199 C197 1.390 . S
C199 C200 1.387 . S
C199 H202 0.950 . S
C200 C199 1.387 . S
C200 C203 1.387 . S
H201 C197 0.950 . S
H202 C199 0.950 . S
C203 C194 1.390 . S
C203 H196 0.950 . S
C203 C200 1.387 . S
C204 C205 1.387 1_556 S
C204 H208 0.950 . S
C204 C213 1.390 . S
C205 C204 1.387 1_554 S
C205 C207 1.387 . S
H206 C213 0.950 . S
C207 C205 1.387 . S
C207 C209 1.390 . S
C207 H211 0.950 . S
H208 C204 0.950 . S
C209 C207 1.390 . S
C209 C210 1.387 1_554 S
C209 H212 0.950 . S
C210 C209 1.387 1_556 S
C210 C213 1.387 . S
H211 C207 0.950 . S
H212 C209 0.950 . S
C213 C204 1.390 . S
C213 H206 0.950 . S
C213 C210 1.387 . S
C214 C215 1.387 . S
C214 H218 0.950 . S
C214 C223 1.390 . S
C215 C214 1.387 . S
C215 C217 1.387 . S
H216 C223 0.950 . S
C217 C215 1.387 . S
C217 C219 1.390 . S
C217 H221 0.950 . S
H218 C214 0.950 . S
C219 C217 1.390 . S
C219 C220 1.387 . S
C219 H222 0.950 . S
C220 C219 1.387 . S
C220 C223 1.387 . S
H221 C217 0.950 . S
H222 C219 0.950 . S
C223 C214 1.390 . S
C223 H216 0.950 . S
C223 C220 1.387 . S
C224 C225 1.387 . S
C224 H228 0.950 . S
C224 C233 1.390 . S
C225 C224 1.387 . S
C225 C227 1.387 . S
H226 C233 0.950 . S
C227 C225 1.387 . S
C227 C229 1.390 . S
C227 H231 0.950 . S
H228 C224 0.950 . S
C229 C227 1.390 . S
C229 C230 1.387 . S
C229 H232 0.950 . S
C230 C229 1.387 . S
C230 C233 1.387 . S
H231 C227 0.950 . S
H232 C229 0.950 . S
C233 C224 1.390 . S
C233 H226 0.950 . S
C233 C230 1.387 . S
C234 C235 1.387 . S
C234 H238 0.950 . S
C234 C243 1.390 . S
C235 C234 1.387 . S
C235 C237 1.387 1_556 S
H236 C243 0.950 . S
C237 C235 1.387 1_554 S
C237 C239 1.390 . S
C237 H241 0.950 . S
H238 C234 0.950 . S
C239 C237 1.390 . S
C239 C240 1.387 . S
C239 H242 0.950 . S
C240 C239 1.387 . S
C240 C243 1.387 1_554 S
H241 C237 0.950 . S
H242 C239 0.950 . S
C243 C234 1.390 . S
C243 H236 0.950 . S
C243 C240 1.387 1_556 S
C244 C245 1.387 . S
C244 H248 0.950 . S
C244 C253 1.390 . S
C245 C244 1.387 . S
C245 C247 1.387 . S
H246 C253 0.950 . S
C247 C245 1.387 . S
C247 C249 1.390 . S
C247 H251 0.950 1_554 S
H248 C244 0.950 . S
C249 C247 1.390 . S
C249 C250 1.387 . S
C249 H252 0.950 . S
C250 C249 1.387 . S
C250 C253 1.387 . S
H251 C247 0.950 1_556 S
H252 C249 0.950 . S
C253 C244 1.390 . S
C253 H246 0.950 . S
C253 C250 1.387 . S
C254 C255 1.387 . S
C254 H258 0.950 . S
C254 C263 1.390 . S
C255 C254 1.387 . S
C255 C257 1.387 . S
H256 C263 0.950 . S
C257 C255 1.387 . S
C257 C259 1.390 . S
C257 H261 0.950 . S
H258 C254 0.950 . S
C259 C257 1.390 . S
C259 C260 1.387 . S
C259 H262 0.950 . S
C260 C259 1.387 . S
C260 C263 1.387 . S
H261 C257 0.950 . S
H262 C259 0.950 . S
C263 C254 1.390 . S
C263 H256 0.950 . S
C263 C260 1.387 . S
C105 C23 1.481 . S
C110 C10 1.481 . S
C115 C18 1.481 . S
C120 C36 1.481 . S
C125 C42 1.480 . S
C130 C31 1.480 . S
C135 C43 1.481 . S
C140 C5 1.481 . S
C145 C62 1.481 . S
C150 C75 1.481 . S
C155 C70 1.481 . S
C160 C88 1.481 . S
C165 C83 1.480 . S
C170 C94 1.480 . S
C175 C57 1.481 . S
C180 C95 1.481 . S
C185 C4 1.520 . S
C190 C96 1.517 . S
C195 C55 1.524 . S
C200 C16 1.524 . S
C205 C69 1.520 . S
C210 C29 1.517 . S
C215 C49 1.513 . S
C220 C82 1.513 . S
C225 C30 1.513 . S
C230 C101 1.514 . S
C235 C56 1.520 . S
C240 C44 1.518 . S
C245 C68 1.524 . S
C250 C3 1.524 . S
C255 C17 1.520 . S
C260 C81 1.517 . S
