# Generated by pormake.
# Topology fcp, (5)-cn, num edge types: 1
# Building blocks:
#     Node 0, Type 0, BuildingBlock: XOMCOT_clean_sbu_0, # of connection points: 5
#     Node 1, Type 0, BuildingBlock: XOMCOT_clean_sbu_0, # of connection points: 5
#     Node 2, Type 0, BuildingBlock: XOMCOT_clean_sbu_0, # of connection points: 5
#     Node 3, Type 0, BuildingBlock: XOMCOT_clean_sbu_0, # of connection points: 5
#     Node 4, Type 0, BuildingBlock: XOMCOT_clean_sbu_0, # of connection points: 5
#     Node 5, Type 0, BuildingBlock: XOMCOT_clean_sbu_0, # of connection points: 5
#     Node 6, Type 0, BuildingBlock: XOMCOT_clean_sbu_0, # of connection points: 5
#     Node 7, Type 0, BuildingBlock: XOMCOT_clean_sbu_0, # of connection points: 5
#     Node 8, Type 0, BuildingBlock: XOMCOT_clean_sbu_0, # of connection points: 5
#     Node 9, Type 0, BuildingBlock: XOMCOT_clean_sbu_0, # of connection points: 5
#     Node 10, Type 0, BuildingBlock: XOMCOT_clean_sbu_0, # of connection points: 5
#     Node 11, Type 0, BuildingBlock: XOMCOT_clean_sbu_0, # of connection points: 5
#     Node 12, Type 0, BuildingBlock: XOMCOT_clean_sbu_0, # of connection points: 5
#     Node 13, Type 0, BuildingBlock: XOMCOT_clean_sbu_0, # of connection points: 5
#     Node 14, Type 0, BuildingBlock: XOMCOT_clean_sbu_0, # of connection points: 5
#     Node 15, Type 0, BuildingBlock: XOMCOT_clean_sbu_0, # of connection points: 5
#     Node 16, Type 0, BuildingBlock: XOMCOT_clean_sbu_0, # of connection points: 5
#     Node 17, Type 0, BuildingBlock: XOMCOT_clean_sbu_0, # of connection points: 5
#     Node 18, Type 0, BuildingBlock: XOMCOT_clean_sbu_0, # of connection points: 5
#     Node 19, Type 0, BuildingBlock: XOMCOT_clean_sbu_0, # of connection points: 5
#     Node 20, Type 0, BuildingBlock: XOMCOT_clean_sbu_0, # of connection points: 5
#     Node 21, Type 0, BuildingBlock: XOMCOT_clean_sbu_0, # of connection points: 5
#     Node 22, Type 0, BuildingBlock: XOMCOT_clean_sbu_0, # of connection points: 5
#     Node 23, Type 0, BuildingBlock: XOMCOT_clean_sbu_0, # of connection points: 5
#     Edge 24, Type (0, 0), BuildingBlock: TEMPAE_clean_linker_10, # of connection points: 2
#     Edge 25, Type (0, 0), BuildingBlock: TEMPAE_clean_linker_10, # of connection points: 2
#     Edge 26, Type (0, 0), BuildingBlock: TEMPAE_clean_linker_10, # of connection points: 2
#     Edge 27, Type (0, 0), BuildingBlock: TEMPAE_clean_linker_10, # of connection points: 2
#     Edge 28, Type (0, 0), BuildingBlock: TEMPAE_clean_linker_10, # of connection points: 2
#     Edge 29, Type (0, 0), BuildingBlock: TEMPAE_clean_linker_10, # of connection points: 2
#     Edge 30, Type (0, 0), BuildingBlock: TEMPAE_clean_linker_10, # of connection points: 2
#     Edge 31, Type (0, 0), BuildingBlock: TEMPAE_clean_linker_10, # of connection points: 2
#     Edge 32, Type (0, 0), BuildingBlock: TEMPAE_clean_linker_10, # of connection points: 2
#     Edge 33, Type (0, 0), BuildingBlock: TEMPAE_clean_linker_10, # of connection points: 2
#     Edge 34, Type (0, 0), BuildingBlock: TEMPAE_clean_linker_10, # of connection points: 2
#     Edge 35, Type (0, 0), BuildingBlock: TEMPAE_clean_linker_10, # of connection points: 2
#     Edge 36, Type (0, 0), BuildingBlock: TEMPAE_clean_linker_10, # of connection points: 2
#     Edge 37, Type (0, 0), BuildingBlock: TEMPAE_clean_linker_10, # of connection points: 2
#     Edge 38, Type (0, 0), BuildingBlock: TEMPAE_clean_linker_10, # of connection points: 2
#     Edge 39, Type (0, 0), BuildingBlock: TEMPAE_clean_linker_10, # of connection points: 2
#     Edge 40, Type (0, 0), BuildingBlock: TEMPAE_clean_linker_10, # of connection points: 2
#     Edge 41, Type (0, 0), BuildingBlock: TEMPAE_clean_linker_10, # of connection points: 2
#     Edge 42, Type (0, 0), BuildingBlock: TEMPAE_clean_linker_10, # of connection points: 2
#     Edge 43, Type (0, 0), BuildingBlock: TEMPAE_clean_linker_10, # of connection points: 2
#     Edge 44, Type (0, 0), BuildingBlock: TEMPAE_clean_linker_10, # of connection points: 2
#     Edge 45, Type (0, 0), BuildingBlock: TEMPAE_clean_linker_10, # of connection points: 2
#     Edge 46, Type (0, 0), BuildingBlock: TEMPAE_clean_linker_10, # of connection points: 2
#     Edge 47, Type (0, 0), BuildingBlock: TEMPAE_clean_linker_10, # of connection points: 2
#     Edge 48, Type (0, 0), BuildingBlock: TEMPAE_clean_linker_10, # of connection points: 2
#     Edge 49, Type (0, 0), BuildingBlock: TEMPAE_clean_linker_10, # of connection points: 2
#     Edge 50, Type (0, 0), BuildingBlock: TEMPAE_clean_linker_10, # of connection points: 2
#     Edge 51, Type (0, 0), BuildingBlock: TEMPAE_clean_linker_10, # of connection points: 2
#     Edge 52, Type (0, 0), BuildingBlock: TEMPAE_clean_linker_10, # of connection points: 2
#     Edge 53, Type (0, 0), BuildingBlock: TEMPAE_clean_linker_10, # of connection points: 2
#     Edge 54, Type (0, 0), BuildingBlock: TEMPAE_clean_linker_10, # of connection points: 2
#     Edge 55, Type (0, 0), BuildingBlock: TEMPAE_clean_linker_10, # of connection points: 2
#     Edge 56, Type (0, 0), BuildingBlock: TEMPAE_clean_linker_10, # of connection points: 2
#     Edge 57, Type (0, 0), BuildingBlock: TEMPAE_clean_linker_10, # of connection points: 2
#     Edge 58, Type (0, 0), BuildingBlock: TEMPAE_clean_linker_10, # of connection points: 2
#     Edge 59, Type (0, 0), BuildingBlock: TEMPAE_clean_linker_10, # of connection points: 2
#     Edge 60, Type (0, 0), BuildingBlock: TEMPAE_clean_linker_10, # of connection points: 2
#     Edge 61, Type (0, 0), BuildingBlock: TEMPAE_clean_linker_10, # of connection points: 2
#     Edge 62, Type (0, 0), BuildingBlock: TEMPAE_clean_linker_10, # of connection points: 2
#     Edge 63, Type (0, 0), BuildingBlock: TEMPAE_clean_linker_10, # of connection points: 2
#     Edge 64, Type (0, 0), BuildingBlock: TEMPAE_clean_linker_10, # of connection points: 2
#     Edge 65, Type (0, 0), BuildingBlock: TEMPAE_clean_linker_10, # of connection points: 2
#     Edge 66, Type (0, 0), BuildingBlock: TEMPAE_clean_linker_10, # of connection points: 2
#     Edge 67, Type (0, 0), BuildingBlock: TEMPAE_clean_linker_10, # of connection points: 2
#     Edge 68, Type (0, 0), BuildingBlock: TEMPAE_clean_linker_10, # of connection points: 2
#     Edge 69, Type (0, 0), BuildingBlock: TEMPAE_clean_linker_10, # of connection points: 2
#     Edge 70, Type (0, 0), BuildingBlock: TEMPAE_clean_linker_10, # of connection points: 2
#     Edge 71, Type (0, 0), BuildingBlock: TEMPAE_clean_linker_10, # of connection points: 2
#     Edge 72, Type (0, 0), BuildingBlock: TEMPAE_clean_linker_10, # of connection points: 2
#     Edge 73, Type (0, 0), BuildingBlock: TEMPAE_clean_linker_10, # of connection points: 2
#     Edge 74, Type (0, 0), BuildingBlock: TEMPAE_clean_linker_10, # of connection points: 2
#     Edge 75, Type (0, 0), BuildingBlock: TEMPAE_clean_linker_10, # of connection points: 2
#     Edge 76, Type (0, 0), BuildingBlock: TEMPAE_clean_linker_10, # of connection points: 2
#     Edge 77, Type (0, 0), BuildingBlock: TEMPAE_clean_linker_10, # of connection points: 2
#     Edge 78, Type (0, 0), BuildingBlock: TEMPAE_clean_linker_10, # of connection points: 2
#     Edge 79, Type (0, 0), BuildingBlock: TEMPAE_clean_linker_10, # of connection points: 2
#     Edge 80, Type (0, 0), BuildingBlock: TEMPAE_clean_linker_10, # of connection points: 2
#     Edge 81, Type (0, 0), BuildingBlock: TEMPAE_clean_linker_10, # of connection points: 2
#     Edge 82, Type (0, 0), BuildingBlock: TEMPAE_clean_linker_10, # of connection points: 2
#     Edge 83, Type (0, 0), BuildingBlock: TEMPAE_clean_linker_10, # of connection points: 2
# Relax obj value: 0.054
# Max RMSD: 0.111
# Mean RMSD: 0.111
data_MOF--net-fcp--node1-XOMCOT_clean_sbu_0--edge1-TEMPAE_clean_linker_10
_symmetry_space_group_name_H-M    P1
_symmetry_Int_Tables_number       1
_symmetry_cell_setting            triclinic
loop_
_symmetry_equiv_pos_as_xyz
'x, y, z'
_cell_length_a     52.244613
_cell_length_b     52.282885
_cell_length_c     52.258735
_cell_angle_alpha  89.998559
_cell_angle_beta   89.843165
_cell_angle_gamma 90.08618
loop_
_atom_site_label
_atom_site_type_symbol
_atom_site_fract_x
_atom_site_fract_y
_atom_site_fract_z
_atom_type_partial_charge
Co0 Co 0.08284 0.3292 0.17916 0.0
C1 C 0.13047 0.30888 0.15513 0.0
C2 C 0.13706 0.34561 0.17188 0.0
C3 C 0.1598 0.33686 0.16184 0.0
N4 N 0.11824 0.32857 0.16677 0.0
N5 N 0.15553 0.31377 0.15142 0.0
H6 H 0.12166 0.29079 0.15034 0.0
H7 H 0.13518 0.36249 0.18357 0.0
C8 C 0.09275 0.38627 0.17563 0.0
O9 O 0.09931 0.38427 0.15141 0.0
N10 N 0.04833 0.32956 0.19234 0.0
C11 C 0.02776 0.31726 0.18299 0.0
C12 C 1.00684 0.32348 0.19784 0.0
C13 C 0.03988 0.3427 0.21286 0.0
N14 N 0.01446 0.33952 0.21667 0.0
C15 C 0.07551 0.3198 0.12558 0.0
C16 C 0.04044 0.35834 0.11703 0.0
C17 C 0.04652 0.34166 0.09682 0.0
C18 C 0.06469 0.32249 0.10138 0.0
C19 C 0.05217 0.35528 0.14093 0.0
N20 N 0.06969 0.33629 0.14494 0.0
H21 H 0.08777 0.3037 0.12887 0.0
H22 H 0.04643 0.36762 0.15651 0.0
H23 H 0.02789 0.30507 0.16627 0.0
H24 H 0.05226 0.35421 0.22477 0.0
O25 O 0.08192 0.2922 0.17833 0.0
O26 O 0.09449 0.31583 0.21133 0.0
O27 O 0.08572 0.36652 0.18818 0.0
C28 C 0.0907 0.29323 0.20162 0.0
H29 H 0.17833 0.34601 0.16344 0.0
H30 H 0.98744 0.31709 0.19451 0.0
H31 H 0.02609 0.37307 0.11478 0.0
H32 H 0.0703 0.3092 0.08651 0.0
Co33 Co 0.83295 0.43478 0.33596 0.0
C34 C 0.81474 0.3882 0.3637 0.0
C35 C 0.8396 0.37958 0.33217 0.0
C36 C 0.82978 0.35703 0.34144 0.0
N37 N 0.83045 0.39919 0.34626 0.0
N38 N 0.81412 0.36251 0.36118 0.0
H39 H 0.80234 0.39857 0.37653 0.0
H40 H 0.85138 0.38166 0.31524 0.0
C41 C 0.88729 0.4161 0.33796 0.0
O42 O 0.88259 0.40504 0.36006 0.0
N43 N 0.83532 0.46977 0.32476 0.0
C44 C 0.82462 0.49042 0.33576 0.0
C45 C 0.83103 0.51165 0.32152 0.0
C46 C 0.84783 0.47853 0.30394 0.0
N47 N 0.84559 0.50419 0.30144 0.0
C48 C 0.81944 0.44687 0.38768 0.0
C49 C 0.86607 0.46666 0.40265 0.0
C50 C 0.84565 0.46705 0.42023 0.0
C51 C 0.82204 0.4571 0.41219 0.0
C52 C 0.86246 0.45668 0.37802 0.0
N53 N 0.83958 0.44607 0.37102 0.0
H54 H 0.80069 0.44065 0.38179 0.0
H55 H 0.87793 0.45842 0.36444 0.0
H56 H 0.81304 0.4901 0.35293 0.0
H57 H 0.85799 0.46621 0.29077 0.0
O58 O 0.79587 0.43702 0.33564 0.0
O59 O 0.82 0.425 0.30289 0.0
O60 O 0.87028 0.43008 0.32744 0.0
C61 C 0.79722 0.42881 0.31217 0.0
H62 H 0.83304 0.33814 0.33359 0.0
H63 H 0.82559 0.53111 0.32597 0.0
H64 H 0.88467 0.47429 0.40761 0.0
H65 H 0.80525 0.458 0.42433 0.0
Co66 Co 0.93558 0.68738 0.1796 0.0
C67 C 0.88861 0.70699 0.15349 0.0
C68 C 0.88032 0.68264 0.18547 0.0
C69 C 0.85776 0.69304 0.17703 0.0
N70 N 0.89972 0.69107 0.17059 0.0
N71 N 0.86302 0.70839 0.157 0.0
H72 H 0.8989 0.71889 0.14012 0.0
H73 H 0.88262 0.67088 0.20234 0.0
C74 C 0.9151 0.63359 0.17853 0.0
O75 O 0.90322 0.6385 0.15695 0.0
N76 N 0.97077 0.6837 0.18969 0.0
C77 C 0.99181 0.69292 0.17801 0.0
C78 C 0.01294 0.68545 0.19186 0.0
C79 C 0.97919 0.67105 0.21047 0.0
N80 N 1.00499 0.6717 0.21233 0.0
C81 C 0.94635 0.69975 0.12724 0.0
C82 C 0.96447 0.6524 0.11245 0.0
C83 C 0.96509 0.67249 0.09457 0.0
C84 C 0.95593 0.69646 0.10249 0.0
C85 C 0.95522 0.65669 0.13727 0.0
N86 N 0.94545 0.67994 0.14423 0.0
H87 H 0.94082 0.71873 0.13303 0.0
H88 H 0.95696 0.64144 0.15103 0.0
H89 H 0.99183 0.70413 0.16062 0.0
H90 H 0.96652 0.6619 0.22407 0.0
O91 O 0.93914 0.72433 0.17944 0.0
O92 O 0.92764 0.70099 0.21295 0.0
O93 O 0.92977 0.65036 0.18855 0.0
C94 C 0.93198 0.7235 0.2033 0.0
H95 H 0.83905 0.69033 0.18557 0.0
H96 H 0.03263 0.68957 0.1869 0.0
H97 H 0.97146 0.63354 0.10759 0.0
H98 H 0.95702 0.713 0.09008 0.0
Co99 Co 0.1849 0.57923 0.33319 0.0
C100 C 0.20366 0.62519 0.36157 0.0
C101 C 0.17796 0.63432 0.331 0.0
C102 C 0.18807 0.6567 0.34023 0.0
N103 N 0.18743 0.61448 0.34452 0.0
N104 N 0.20426 0.65092 0.35935 0.0
H105 H 0.21648 0.6146 0.37375 0.0
H106 H 0.16588 0.63252 0.31433 0.0
C107 C 0.13037 0.59773 0.33603 0.0
O108 O 0.13497 0.60864 0.35821 0.0
N109 N 0.1823 0.54468 0.32079 0.0
C110 C 0.19309 0.5235 0.33054 0.0
C111 C 0.1857 0.50287 0.31586 0.0
C112 C 0.16875 0.53687 0.30033 0.0
N113 N 0.17036 0.51131 0.29685 0.0
C114 C 0.19831 0.56574 0.38465 0.0
C115 C 0.15148 0.54592 0.39925 0.0
C116 C 0.17172 0.5452 0.41694 0.0
C117 C 0.19546 0.55514 0.40905 0.0
C118 C 0.15535 0.55617 0.37476 0.0
N119 N 0.1783 0.56684 0.36796 0.0
H120 H 0.21708 0.57214 0.3789 0.0
H121 H 0.13996 0.55471 0.36114 0.0
H122 H 0.20525 0.52303 0.34725 0.0
H123 H 0.15815 0.54977 0.28815 0.0
O124 O 0.22205 0.57694 0.33236 0.0
O125 O 0.19769 0.59014 0.30034 0.0
O126 O 0.14754 0.58415 0.32519 0.0
C127 C 0.22052 0.58604 0.30923 0.0
H128 H 0.18478 0.67568 0.33264 0.0
H129 H 0.19086 0.48315 0.31933 0.0
H130 H 0.13276 0.53841 0.40405 0.0
H131 H 0.21214 0.55406 0.42123 0.0
Co132 Co 0.0803 0.68275 0.83454 0.0
C133 C 0.12727 0.70166 0.86069 0.0
C134 C 0.13546 0.67612 0.82966 0.0
C135 C 0.15806 0.68681 0.83772 0.0
N136 N 0.11608 0.68517 0.84418 0.0
N137 N 0.15285 0.7029 0.85713 0.0
H138 H 0.11699 0.71432 0.87334 0.0
H139 H 0.13309 0.66405 0.81303 0.0
C140 C 0.09891 0.62825 0.83591 0.0
O141 O 0.11093 0.63274 0.85751 0.0
N142 N 0.04507 0.68063 0.82405 0.0
C143 C 0.02542 0.69462 0.83297 0.0
C144 C 1.00383 0.68832 0.81929 0.0
C145 C 0.03535 0.66612 0.8051 0.0
N146 N 0.01002 0.67032 0.80172 0.0
C147 C 0.06876 0.69637 0.88636 0.0
C148 C 0.04941 0.64968 0.90183 0.0
C149 C 0.04903 0.67012 0.91931 0.0
C150 C 0.05877 0.69376 0.91102 0.0
C151 C 0.05909 0.65329 0.87705 0.0
N152 N 0.06946 0.67621 0.86978 0.0
H153 H 0.07489 0.7151 0.88032 0.0
H154 H 0.05732 0.63777 0.8636 0.0
H155 H 0.02681 0.70876 0.848 0.0
H156 H 0.04677 0.65293 0.794 0.0
O157 O 0.07831 0.71983 0.83408 0.0
O158 O 0.08958 0.69554 0.80122 0.0
O159 O 0.08466 0.64542 0.82604 0.0
C160 C 0.08608 0.71835 0.81044 0.0
H161 H 0.17672 0.68404 0.82909 0.0
H162 H 0.98522 0.69699 0.8218 0.0
H163 H 0.04198 0.63104 0.90698 0.0
H164 H 0.05792 0.71056 0.92309 0.0
Co165 Co 0.18212 0.43142 0.6773 0.0
C166 C 0.20332 0.38398 0.65313 0.0
C167 C 0.17724 0.37635 0.68392 0.0
C168 C 0.18825 0.35368 0.67661 0.0
N169 N 0.18634 0.39542 0.66903 0.0
N170 N 0.2047 0.35852 0.65734 0.0
H171 H 0.21601 0.39401 0.64028 0.0
H172 H 0.16466 0.37899 0.70017 0.0
C173 C 0.12852 0.41055 0.67529 0.0
O174 O 0.13414 0.39927 0.65352 0.0
N175 N 0.17796 0.46677 0.68678 0.0
C176 C 0.18735 0.48758 0.67487 0.0
C177 C 0.18038 0.5089 0.68874 0.0
C178 C 0.16568 0.47552 0.70771 0.0
N179 N 0.1668 0.5013 0.70947 0.0
C180 C 0.19498 0.44076 0.62479 0.0
C181 C 0.14831 0.46008 0.60952 0.0
C182 C 0.16864 0.46012 0.59182 0.0
C183 C 0.19224 0.45029 0.6 0.0
C184 C 0.15204 0.45081 0.63443 0.0
N185 N 0.17498 0.44054 0.64166 0.0
H186 H 0.21379 0.43492 0.63076 0.0
H187 H 0.13668 0.45295 0.64808 0.0
H188 H 0.19855 0.4873 0.65744 0.0
H189 H 0.15666 0.4631 0.72164 0.0
O190 O 0.219 0.43554 0.67715 0.0
O191 O 0.19581 0.42434 0.71088 0.0
O192 O 0.14491 0.42521 0.68599 0.0
C193 C 0.21829 0.42885 0.70111 0.0
H194 H 0.18521 0.33521 0.68549 0.0
H195 H 0.18489 0.52847 0.68373 0.0
H196 H 0.1297 0.46759 0.60447 0.0
H197 H 0.20899 0.4509 0.58778 0.0
Co198 Co 0.93201 0.3305 0.83784 0.0
C199 C 0.88236 0.30795 0.85571 0.0
C200 C 0.88595 0.34765 0.8654 0.0
C201 C 0.86335 0.33854 0.8755 0.0
N202 N 0.89791 0.32852 0.85289 0.0
N203 N 0.86114 0.31357 0.86943 0.0
H204 H 0.88684 0.28894 0.84893 0.0
H205 H 0.89347 0.36677 0.86781 0.0
C206 C 0.9385 0.38684 0.82239 0.0
O207 O 0.96351 0.38543 0.82066 0.0
N208 N 0.96606 0.33196 0.82294 0.0
C209 C 0.98786 0.32424 0.83423 0.0
C210 C 0.00791 0.32804 0.81756 0.0
C211 C 0.97299 0.33914 0.79903 0.0
N212 N 0.99863 0.33768 0.7955 0.0
C213 C 0.94064 0.31868 0.8903 0.0
C214 C 0.97031 0.36074 0.90249 0.0
C215 C 0.96515 0.34253 0.92147 0.0
C216 C 0.94991 0.32139 0.91522 0.0
C217 C 0.9602 0.35756 0.87795 0.0
N218 N 0.94572 0.33663 0.87199 0.0
H219 H 0.92933 0.30201 0.88562 0.0
H220 H 0.96469 0.37167 0.86382 0.0
H221 H 0.98922 0.31662 0.85341 0.0
H222 H 0.95963 0.34618 0.7849 0.0
O223 O 0.93451 0.29347 0.83672 0.0
O224 O 0.91868 0.31806 0.80595 0.0
O225 O 0.92525 0.36805 0.83091 0.0
C226 C 0.92409 0.29523 0.81413 0.0
H227 H 0.84971 0.34945 0.88666 0.0
H228 H 0.02792 0.32486 0.8218 0.0
H229 H 0.98203 0.37734 0.90662 0.0
H230 H 0.94572 0.30676 0.9293 0.0
Co231 Co 0.82721 0.58012 0.68002 0.0
C232 C 0.80747 0.62735 0.65446 0.0
C233 C 0.83056 0.63519 0.68741 0.0
C234 C 0.82013 0.65778 0.67911 0.0
N235 N 0.82292 0.61607 0.67184 0.0
N236 N 0.80557 0.6528 0.65847 0.0
H237 H 0.79629 0.61723 0.64041 0.0
H238 H 0.8419 0.63264 0.7045 0.0
C239 C 0.88025 0.602 0.67863 0.0
O240 O 0.87434 0.61434 0.65756 0.0
N241 N 0.83136 0.54477 0.68926 0.0
C242 C 0.82046 0.52415 0.67837 0.0
C243 C 0.8287 0.50263 0.69116 0.0
C244 C 0.84579 0.53573 0.70854 0.0
N245 N 0.84461 0.50999 0.71014 0.0
C246 C 0.81487 0.57 0.62755 0.0
C247 C 0.86251 0.55277 0.61248 0.0
C248 C 0.84238 0.55188 0.59471 0.0
C249 C 0.81827 0.56064 0.60275 0.0
C250 C 0.85812 0.56177 0.63734 0.0
N251 N 0.83471 0.57109 0.64446 0.0
H252 H 0.79579 0.5752 0.63346 0.0
H253 H 0.87344 0.56014 0.651 0.0
H254 H 0.80742 0.52474 0.66234 0.0
H255 H 0.85715 0.5478 0.72094 0.0
O256 O 0.7903 0.57609 0.67994 0.0
O257 O 0.81353 0.58702 0.71363 0.0
O258 O 0.86428 0.58643 0.6887 0.0
C259 C 0.79105 0.58273 0.70393 0.0
H260 H 0.82235 0.67632 0.68807 0.0
H261 H 0.82312 0.48313 0.68701 0.0
H262 H 0.88149 0.54613 0.60752 0.0
H263 H 0.80172 0.55935 0.59041 0.0
Co264 Co 0.18041 0.07717 0.3279 0.0
C265 C 0.15575 0.1247 0.3083 0.0
C266 C 0.18606 0.13211 0.33485 0.0
C267 C 0.17864 0.15494 0.32429 0.0
N268 N 0.17153 0.11308 0.32515 0.0
N269 N 0.15969 0.15022 0.30755 0.0
H270 H 0.14337 0.1148 0.29513 0.0
H271 H 0.20227 0.12936 0.34738 0.0
C272 C 0.17849 0.09585 0.38226 0.0
O273 O 0.15662 0.10729 0.37751 0.0
N274 N 0.19048 0.04195 0.33062 0.0
C275 C 0.17892 0.02113 0.32089 0.0
C276 C 0.19316 0.99994 0.32744 0.0
C277 C 0.21154 0.03339 0.34262 0.0
N278 N 0.21373 0.0077 0.34109 0.0
C279 C 0.12797 0.06724 0.3151 0.0
C280 C 0.11333 0.04643 0.36153 0.0
C281 C 0.09573 0.04675 0.34139 0.0
C282 C 0.10331 0.05726 0.31795 0.0
C283 C 0.13808 0.05612 0.3577 0.0
N284 N 0.14498 0.06713 0.33492 0.0
H285 H 0.13371 0.07382 0.29642 0.0
H286 H 0.15189 0.05357 0.37276 0.0
H287 H 0.16142 0.0213 0.3099 0.0
H288 H 0.22515 0.04593 0.35187 0.0
O289 O 0.18053 0.07463 0.29084 0.0
O290 O 0.21387 0.08541 0.31467 0.0
O291 O 0.18902 0.08193 0.36516 0.0
C292 C 0.20441 0.08167 0.292 0.0
H293 H 0.18734 0.17343 0.32772 0.0
H294 H 0.18845 0.98035 0.32273 0.0
H295 H 0.1084 0.03768 0.37967 0.0
H296 H 0.0904 0.05732 0.30176 0.0
Co297 Co 0.57992 0.33874 0.18669 0.0
C298 C 0.62639 0.36159 0.21041 0.0
C299 C 0.62917 0.36067 0.16946 0.0
C300 C 0.65078 0.37229 0.17897 0.0
N301 N 0.61378 0.35397 0.18915 0.0
N302 N 0.64898 0.37275 0.20466 0.0
H303 H 0.61917 0.35957 0.22971 0.0
H304 H 0.62506 0.35768 0.14944 0.0
C305 C 0.57369 0.32752 0.13003 0.0
O306 O 0.55035 0.33681 0.12948 0.0
N307 N 0.54622 0.32327 0.18414 0.0
C308 C 0.52386 0.33182 0.19378 0.0
C309 C 0.50492 0.31452 0.18807 0.0
C310 C 0.5406 0.30046 0.17333 0.0
N311 N 0.5154 0.29477 0.17516 0.0
C312 C 0.55422 0.38586 0.19738 0.0
C313 C 0.56194 0.40927 0.15063 0.0
C314 C 0.54787 0.42222 0.16947 0.0
C315 C 0.54436 0.41028 0.19319 0.0
C316 C 0.57123 0.3846 0.15553 0.0
N317 N 0.56641 0.37267 0.17837 0.0
H318 H 0.55193 0.37759 0.21614 0.0
H319 H 0.58276 0.3756 0.14103 0.0
H320 H 0.52111 0.34915 0.20452 0.0
H321 H 0.55476 0.28825 0.16442 0.0
O322 O 0.57646 0.33936 0.22377 0.0
O323 O 0.59259 0.30738 0.20116 0.0
O324 O 0.58732 0.32897 0.1502 0.0
C325 C 0.58665 0.31664 0.22344 0.0
H326 H 0.66673 0.37958 0.16788 0.0
H327 H 0.48485 0.31665 0.19273 0.0
H328 H 0.56567 0.41808 0.13223 0.0
H329 H 0.53447 0.41996 0.20865 0.0
Co330 Co 0.83496 0.93754 0.32753 0.0
C331 C 0.86117 0.89022 0.30913 0.0
C332 C 0.82895 0.88245 0.33341 0.0
C333 C 0.83744 0.85971 0.3234 0.0
N334 N 0.84396 0.90164 0.32477 0.0
N335 N 0.85761 0.86465 0.30808 0.0
H336 H 0.87458 0.90027 0.29707 0.0
H337 H 0.81193 0.885 0.34496 0.0
C338 C 0.83519 0.91803 0.38167 0.0
O339 O 0.85704 0.90641 0.37722 0.0
N340 N 0.82501 0.97287 0.33009 0.0
C341 C 0.83446 0.99274 0.31675 0.0
C342 C 0.82085 0.01432 0.32333 0.0
C343 C 0.80586 0.98243 0.34448 0.0
N344 N 0.80282 0.00787 0.34083 0.0
C345 C 0.88737 0.94823 0.31538 0.0
C346 C 0.90139 0.96806 0.36232 0.0
C347 C 0.91911 0.96851 0.34218 0.0
C348 C 0.91185 0.95845 0.3185 0.0
C349 C 0.8768 0.95811 0.35823 0.0
N350 N 0.8702 0.94762 0.33515 0.0
H351 H 0.88192 0.94197 0.29653 0.0
H352 H 0.86285 0.96004 0.37334 0.0
H353 H 0.8498 0.99153 0.30288 0.0
H354 H 0.79437 0.97082 0.35719 0.0
O355 O 0.8358 0.94016 0.2905 0.0
O356 O 0.80179 0.92942 0.31351 0.0
O357 O 0.82539 0.9325 0.36462 0.0
C358 C 0.81189 0.93317 0.29106 0.0
H359 H 0.82879 0.8411 0.32629 0.0
H360 H 0.82374 0.03313 0.31521 0.0
H361 H 0.90611 0.97643 0.38068 0.0
H362 H 0.92487 0.95897 0.30233 0.0
Co363 Co 0.43439 0.68084 0.18019 0.0
C364 C 0.3898 0.65273 0.2024 0.0
C365 C 0.38003 0.67101 0.16713 0.0
C366 C 0.35842 0.65946 0.17682 0.0
N367 N 0.40011 0.66598 0.1826 0.0
N368 N 0.36465 0.64808 0.19899 0.0
H369 H 0.39989 0.64775 0.2197 0.0
H370 H 0.38034 0.68366 0.15083 0.0
C371 C 0.42153 0.6748 0.12384 0.0
O372 O 0.41576 0.65055 0.12723 0.0
N373 N 0.4679 0.69634 0.17798 0.0
C374 C 0.48828 0.69154 0.19294 0.0
C375 C 0.50828 0.70695 0.18512 0.0
C376 C 0.47567 0.71448 0.1613 0.0
N377 N 0.50029 0.72124 0.16518 0.0
C378 C 0.44791 0.62912 0.19207 0.0
C379 C 0.47723 0.61969 0.149 0.0
C380 C 0.47468 0.60042 0.1675 0.0
C381 C 0.4599 0.60547 0.1893 0.0
C382 C 0.46513 0.64333 0.15273 0.0
N383 N 0.44985 0.64749 0.17363 0.0
H384 H 0.43779 0.63286 0.2096 0.0
H385 H 0.46847 0.65844 0.13902 0.0
H386 H 0.4886 0.67771 0.20833 0.0
H387 H 0.46355 0.72282 0.1468 0.0
O388 O 0.43651 0.68117 0.21717 0.0
O389 O 0.42081 0.71254 0.19339 0.0
O390 O 0.42933 0.68833 0.14264 0.0
C391 C 0.42592 0.70365 0.21607 0.0
H392 H 0.33924 0.66078 0.16912 0.0
H393 H 0.52738 0.70722 0.19309 0.0
H394 H 0.48909 0.6168 0.13222 0.0
H395 H 0.45771 0.59126 0.20424 0.0
Co396 Co 0.17714 0.93438 0.68316 0.0
C397 C 0.15437 0.88794 0.7072 0.0
C398 C 0.15228 0.88664 0.66623 0.0
C399 C 0.1404 0.86521 0.67591 0.0
N400 N 0.16106 0.90096 0.68583 0.0
N401 N 0.14181 0.86609 0.70161 0.0
H402 H 0.15794 0.89443 0.7265 0.0
H403 H 0.15391 0.89145 0.64619 0.0
C404 C 0.18815 0.94045 0.62628 0.0
O405 O 0.18039 0.96432 0.62574 0.0
N406 N 0.19322 0.9678 0.68046 0.0
C407 C 0.18474 0.9901 0.69023 0.0
C408 C 0.20184 0.00912 0.68411 0.0
C409 C 0.21583 0.97353 0.66916 0.0
N410 N 0.22138 0.99876 0.67077 0.0
C411 C 0.13042 0.95954 0.69628 0.0
C412 C 0.10592 0.9549 0.64979 0.0
C413 C 0.09289 0.96665 0.67015 0.0
C414 C 0.10561 0.96891 0.69359 0.0
C415 C 0.13092 0.94579 0.65329 0.0
N416 N 0.14326 0.94882 0.67616 0.0
H417 H 0.13927 0.96103 0.71482 0.0
H418 H 0.13971 0.93556 0.63773 0.0
H419 H 0.16747 0.99274 0.70117 0.0
H420 H 0.22793 0.95952 0.65994 0.0
O421 O 0.17788 0.93751 0.72027 0.0
O422 O 0.20855 0.92059 0.69649 0.0
O423 O 0.18582 0.92685 0.6464 0.0
C424 C 0.20018 0.92649 0.71913 0.0
H425 H 0.13158 0.85005 0.6649 0.0
H426 H 0.19965 0.02919 0.68867 0.0
H427 H 0.09661 0.95202 0.63152 0.0
H428 H 0.09651 0.97791 0.70991 0.0
Co429 Co 0.43088 0.33509 0.82956 0.0
C430 C 0.38732 0.36448 0.80835 0.0
C431 C 0.37646 0.34095 0.84032 0.0
C432 C 0.35467 0.35106 0.82974 0.0
N433 N 0.39691 0.34929 0.82692 0.0
N434 N 0.36153 0.36576 0.8097 0.0
H435 H 0.39868 0.3727 0.79306 0.0
H436 H 0.3771 0.32695 0.85553 0.0
C437 C 0.43932 0.32759 0.88642 0.0
O438 O 0.46367 0.33359 0.88445 0.0
N439 N 0.46466 0.31974 0.83223 0.0
C440 C 0.48706 0.32783 0.82219 0.0
C441 C 0.50589 0.31057 0.82832 0.0
C442 C 0.47017 0.29717 0.84364 0.0
N443 N 0.49532 0.29131 0.84191 0.0
C444 C 0.45665 0.38139 0.81498 0.0
C445 C 0.45018 0.40767 0.86037 0.0
C446 C 0.46442 0.41919 0.84067 0.0
C447 C 0.46714 0.40583 0.81758 0.0
C448 C 0.44012 0.38301 0.857 0.0
N449 N 0.44453 0.36959 0.83495 0.0
H450 H 0.45857 0.37186 0.79677 0.0
H451 H 0.42844 0.37513 0.87208 0.0
H452 H 0.48994 0.34486 0.81098 0.0
H453 H 0.456 0.2854 0.85317 0.0
O454 O 0.43319 0.33305 0.79251 0.0
O455 O 0.41749 0.3028 0.81781 0.0
O456 O 0.4245 0.329 0.86709 0.0
C457 C 0.42252 0.31065 0.79475 0.0
H458 H 0.33517 0.34687 0.83544 0.0
H459 H 0.52598 0.31242 0.82354 0.0
H460 H 0.44699 0.41752 0.87832 0.0
H461 H 0.47704 0.41434 0.80144 0.0
Co462 Co 0.83349 0.0803 0.6867 0.0
C463 C 0.8607 0.12603 0.70688 0.0
C464 C 0.83971 0.13495 0.67295 0.0
C465 C 0.85054 0.15714 0.68207 0.0
N466 N 0.84688 0.11513 0.6879 0.0
N467 N 0.8636 0.15141 0.70342 0.0
H468 H 0.86716 0.11617 0.72382 0.0
H469 H 0.82605 0.13393 0.65752 0.0
C470 C 0.83709 0.09312 0.63019 0.0
O471 O 0.86081 0.10109 0.63278 0.0
N472 N 0.81958 0.04618 0.68581 0.0
C473 C 0.82889 0.02544 0.69778 0.0
C474 C 0.81393 1.00471 0.69145 0.0
C475 C 0.79899 0.03801 0.67264 0.0
N476 N 0.79506 0.01259 0.67563 0.0
C477 C 0.88607 0.06875 0.69769 0.0
C478 C 0.89607 0.04088 0.65387 0.0
C479 C 0.91585 0.04441 0.67167 0.0
C480 C 0.91039 0.05833 0.69397 0.0
C481 C 0.87191 0.05158 0.65843 0.0
N482 N 0.86742 0.06623 0.67965 0.0
H483 H 0.88207 0.07807 0.71559 0.0
H484 H 0.8567 0.04765 0.64504 0.0
H485 H 0.84566 0.02533 0.70987 0.0
H486 H 0.78716 0.05052 0.66121 0.0
O487 O 0.8334 0.079 0.72386 0.0
O488 O 0.80155 0.0931 0.69966 0.0
O489 O 0.82492 0.08397 0.64933 0.0
C490 C 0.81058 0.08893 0.72243 0.0
H491 H 0.84751 0.17625 0.67472 0.0
H492 H 0.81723 0.98525 0.69759 0.0
H493 H 0.89914 0.02992 0.63656 0.0
H494 H 0.92457 0.06057 0.70888 0.0
Co495 Co 0.5775 0.67973 0.83025 0.0
C496 C 0.62441 0.65333 0.81044 0.0
C497 C 0.63271 0.68331 0.83712 0.0
C498 C 0.6554 0.67469 0.82705 0.0
N499 N 0.61319 0.66972 0.82707 0.0
N500 N 0.65015 0.65591 0.81024 0.0
H501 H 0.61424 0.64127 0.7972 0.0
H502 H 0.63051 0.69952 0.8498 0.0
C503 C 0.59618 0.67636 0.88467 0.0
O504 O 0.60694 0.6542 0.87968 0.0
N505 N 0.54252 0.69081 0.8336 0.0
C506 C 0.52158 0.68104 0.82227 0.0
C507 C 0.50039 0.69391 0.83139 0.0
C508 C 0.53399 0.70952 0.84914 0.0
N509 N 0.50827 0.71179 0.84833 0.0
C510 C 0.56625 0.62782 0.81664 0.0
C511 C 0.54381 0.61339 0.86236 0.0
C512 C 0.54404 0.5959 0.84199 0.0
C513 C 0.55562 0.60342 0.81898 0.0
C514 C 0.55461 0.63777 0.85916 0.0
N515 N 0.56631 0.64457 0.8367 0.0
H516 H 0.57326 0.63359 0.79814 0.0
H517 H 0.55236 0.65148 0.87442 0.0
H518 H 0.52168 0.66545 0.80867 0.0
H519 H 0.54635 0.72081 0.86129 0.0
O520 O 0.57475 0.68039 0.79323 0.0
O521 O 0.58675 0.7131 0.81732 0.0
O522 O 0.58279 0.68756 0.86762 0.0
C523 C 0.58266 0.70397 0.79455 0.0
H524 H 0.67425 0.68232 0.83103 0.0
H525 H 0.48074 0.69039 0.82591 0.0
H526 H 0.53436 0.6087 0.88022 0.0
H527 H 0.55605 0.59071 0.80261 0.0
Co528 Co 0.3355 0.18003 0.08215 0.0
C529 C 0.3151 0.15235 0.12795 0.0
C530 C 0.34317 0.18073 0.13735 0.0
C531 C 0.33259 0.17176 0.1597 0.0
N532 N 0.33251 0.16838 0.11734 0.0
N533 N 0.31493 0.15399 0.15373 0.0
H534 H 0.30121 0.14143 0.11734 0.0
H535 H 0.35647 0.19652 0.13575 0.0
C536 C 0.39014 0.17425 0.09968 0.0
O537 O 0.38472 0.15186 0.1098 0.0
N538 N 0.33855 0.19256 0.04762 0.0
C539 C 0.32604 0.18406 0.0268 0.0
C540 C 0.33493 0.19729 1.00576 0.0
C541 C 0.35461 0.21091 0.03915 0.0
N542 N 0.35294 0.21412 0.01357 0.0
C543 C 0.32015 0.12908 0.06894 0.0
C544 C 0.36564 0.11391 0.04658 0.0
C545 C 0.34495 0.0968 0.04682 0.0
C546 C 0.32197 0.10474 0.05815 0.0
C547 C 0.36292 0.13826 0.05744 0.0
N548 N 0.34065 0.1453 0.06932 0.0
H549 H 0.30179 0.13517 0.07605 0.0
H550 H 0.37848 0.15167 0.05533 0.0
H551 H 0.31173 0.16909 0.02689 0.0
H552 H 0.36769 0.22127 0.05139 0.0
O553 O 0.29846 0.18213 0.0799 0.0
O554 O 0.32401 0.21318 0.09342 0.0
O555 O 0.37316 0.18643 0.08709 0.0
C556 C 0.30086 0.20509 0.08922 0.0
H557 H 0.33669 0.17862 0.17881 0.0
H558 H 0.32853 0.19477 0.98624 0.0
H559 H 0.38347 0.10888 0.03722 0.0
H560 H 0.30535 0.09232 0.05843 0.0
Co561 Co 0.3283 0.83638 0.93502 0.0
C562 C 0.30363 0.85903 0.88893 0.0
C563 C 0.34451 0.86264 0.88769 0.0
C564 C 0.33452 0.87429 0.86636 0.0
N565 N 0.32517 0.85299 0.90191 0.0
N566 N 0.30885 0.87197 0.86717 0.0
H567 H 0.28444 0.85468 0.89539 0.0
H568 H 0.36457 0.86174 0.89251 0.0
C569 C 0.38507 0.82541 0.94103 0.0
O570 O 0.38442 0.83011 0.96572 0.0
N571 N 0.33125 0.81965 0.96806 0.0
C572 C 0.32192 0.82772 0.99074 0.0
C573 C 0.32782 0.81 0.00919 0.0
C574 C 0.34196 0.79664 0.97297 0.0
N575 N 0.34056 0.79051 0.99807 0.0
C576 C 0.31501 0.88256 0.96134 0.0
C577 C 0.36196 0.90668 0.95803 0.0
C578 C 0.34188 0.91911 0.97077 0.0
C579 C 0.31811 0.90679 0.97212 0.0
C580 C 0.35811 0.88225 0.94768 0.0
N581 N 0.33505 0.87002 0.95013 0.0
H582 H 0.29633 0.87383 0.96228 0.0
H583 H 0.37368 0.87379 0.93723 0.0
H584 H 0.31146 0.84515 0.99401 0.0
H585 H 0.35093 0.78484 0.95849 0.0
O586 O 0.29123 0.83497 0.93838 0.0
O587 O 0.3154 0.80488 0.92091 0.0
O588 O 0.36535 0.82903 0.92712 0.0
C589 C 0.29271 0.81269 0.92734 0.0
H590 H 0.34533 0.88359 0.85129 0.0
H591 H 0.32365 0.81174 0.02941 0.0
H592 H 0.38054 0.9157 0.95612 0.0
H593 H 0.30182 0.91599 0.98107 0.0
Co594 Co 0.33589 0.18118 0.57923 0.0
C595 C 0.36169 0.20175 0.62559 0.0
C596 C 0.33905 0.1687 0.63429 0.0
C597 C 0.34911 0.17799 0.65675 0.0
N598 N 0.34769 0.183 0.61451 0.0
N599 N 0.36321 0.19877 0.65116 0.0
H600 H 0.36934 0.21817 0.61565 0.0
H601 H 0.32504 0.15356 0.63289 0.0
C602 C 0.34044 0.12524 0.59344 0.0
O603 O 0.3637 0.12915 0.60216 0.0
N604 N 0.32346 0.1796 0.54461 0.0
C605 C 0.33348 0.19118 0.52391 0.0
C606 C 0.31893 0.18473 0.50294 0.0
C607 C 0.3029 0.16653 0.53617 0.0
N608 N 0.29963 0.16924 0.51064 0.0
C609 C 0.38792 0.19461 0.56795 0.0
C610 C 0.40125 0.1502 0.54265 0.0
C611 C 0.41963 0.16977 0.54474 0.0
C612 C 0.41235 0.19234 0.55736 0.0
C613 C 0.3767 0.15356 0.553 0.0
N614 N 0.37059 0.17513 0.56648 0.0
H615 H 0.38264 0.21266 0.57629 0.0
H616 H 0.36249 0.13898 0.54954 0.0
H617 H 0.35032 0.20323 0.52401 0.0
H618 H 0.29052 0.15552 0.54862 0.0
O619 O 0.33534 0.21823 0.57779 0.0
O620 O 0.30301 0.19373 0.5904 0.0
O621 O 0.32802 0.14354 0.58309 0.0
C622 C 0.31204 0.21661 0.58654 0.0
H623 H 0.34495 0.17114 0.67587 0.0
H624 H 0.32271 0.19069 0.48347 0.0
H625 H 0.40554 0.13245 0.53291 0.0
H626 H 0.42507 0.20867 0.5584 0.0
Co627 Co 0.67723 0.17954 0.93354 0.0
C628 C 0.69883 0.14991 0.89006 0.0
C629 C 0.66346 0.1677 0.87982 0.0
C630 C 0.67339 0.15595 0.85844 0.0
N631 N 0.67892 0.16319 0.90002 0.0
N632 N 0.69566 0.14493 0.86496 0.0
H633 H 0.71621 0.14547 0.90026 0.0
H634 H 0.64719 0.18038 0.87983 0.0
C635 C 0.62041 0.17296 0.92168 0.0
O636 O 0.62339 0.14864 0.91606 0.0
N637 N 0.6759 0.1964 0.96646 0.0
C638 C 0.69344 0.1949 0.98526 0.0
C639 C 0.68603 0.21071 1.00505 0.0
C640 C 0.65796 0.21286 0.9751 0.0
N641 N 0.66371 0.22181 0.99857 0.0
C642 C 0.69092 0.12897 0.94977 0.0
C643 C 0.64776 0.11904 0.97883 0.0
C644 C 0.6669 0.10028 0.97728 0.0
C645 C 0.68875 0.10565 0.96262 0.0
C646 C 0.65085 0.14235 0.96583 0.0
N647 N 0.67182 0.14673 0.95071 0.0
H648 H 0.70842 0.13295 0.93965 0.0
H649 H 0.63656 0.15703 0.96839 0.0
H650 H 0.71049 0.1832 0.98462 0.0
H651 H 0.64126 0.2186 0.96441 0.0
O652 O 0.71439 0.18111 0.93429 0.0
O653 O 0.68912 0.21084 0.91794 0.0
O654 O 0.63944 0.18629 0.92926 0.0
C655 C 0.71225 0.20302 0.92263 0.0
H656 H 0.66594 0.1572 0.83916 0.0
H657 H 0.69601 0.21355 0.02296 0.0
H658 H 0.63089 0.11602 0.99053 0.0
H659 H 0.70417 0.0919 0.96106 0.0
Co660 Co 0.67859 0.8299 0.57898 0.0
C661 C 0.65298 0.80986 0.6264 0.0
C662 C 0.68451 0.83495 0.63415 0.0
C663 C 0.67642 0.82448 0.65687 0.0
N664 N 0.66969 0.8261 0.61496 0.0
N665 N 0.65667 0.80867 0.65196 0.0
H666 H 0.63979 0.7976 0.61635 0.0
H667 H 0.70113 0.84705 0.63159 0.0
C668 C 0.67641 0.88358 0.59927 0.0
O669 O 0.65462 0.87821 0.61071 0.0
N670 N 0.68858 0.83365 0.54366 0.0
C671 C 0.67714 0.82366 0.5229 0.0
C672 C 0.69085 0.83092 0.50153 0.0
C673 C 0.7091 0.8466 0.5348 0.0
N674 N 0.71101 0.84532 0.50901 0.0
C675 C 0.62634 0.8168 0.56885 0.0
C676 C 0.61111 0.86359 0.54977 0.0
C677 C 0.59345 0.84327 0.54956 0.0
C678 C 0.6016 0.81959 0.55922 0.0
C679 C 0.63594 0.8598 0.55909 0.0
N680 N 0.64312 0.83683 0.56931 0.0
H681 H 0.63232 0.79799 0.5747 0.0
H682 H 0.64956 0.87518 0.55705 0.0
H683 H 0.66006 0.81196 0.52326 0.0
H684 H 0.72255 0.85633 0.54714 0.0
O685 O 0.67877 0.79299 0.57546 0.0
O686 O 0.7121 0.81665 0.58673 0.0
O687 O 0.68704 0.86706 0.58474 0.0
C688 C 0.70262 0.79404 0.58253 0.0
H689 H 0.68503 0.82747 0.67545 0.0
H690 H 0.68606 0.82613 0.48198 0.0
H691 H 0.60607 0.88225 0.5424 0.0
H692 H 0.58941 0.80286 0.55845 0.0
Co693 Co 0.68573 0.83611 0.07788 0.0
C694 C 0.70695 0.86254 0.12325 0.0
C695 C 0.67834 0.83463 0.13314 0.0
C696 C 0.68905 0.84376 0.15532 0.0
N697 N 0.68957 0.84635 0.11308 0.0
N698 N 0.70703 0.86119 0.14906 0.0
H699 H 0.72033 0.87375 0.11203 0.0
H700 H 0.66436 0.81942 0.13173 0.0
C701 C 0.62829 0.82882 0.07238 0.0
O702 O 0.62757 0.84067 0.05024 0.0
N703 N 0.68163 0.82471 0.04275 0.0
C704 C 0.69064 0.83505 0.02086 0.0
C705 C 0.68374 0.81962 1.0007 0.0
C706 C 0.66996 0.80278 0.03553 0.0
N707 N 0.67071 0.79929 0.00992 0.0
C708 C 0.69757 0.88501 0.05628 0.0
C709 C 0.65225 0.90954 0.0679 0.0
C710 C 0.67057 0.92245 0.05299 0.0
C711 C 0.69373 0.91001 0.04785 0.0
C712 C 0.65684 0.88425 0.07582 0.0
N713 N 0.67869 0.87174 0.06861 0.0
H714 H 0.71581 0.87619 0.0524 0.0
H715 H 0.64284 0.87498 0.08786 0.0
H716 H 0.70183 0.85225 0.01918 0.0
H717 H 0.66144 0.78947 0.04893 0.0
O718 O 0.72273 0.83595 0.07405 0.0
O719 O 0.69925 0.80291 0.08646 0.0
O720 O 0.64895 0.82736 0.08522 0.0
C721 C 0.72181 0.8123 0.08179 0.0
H722 H 0.68462 0.83744 0.17456 0.0
H723 H 0.68789 0.82332 0.98075 0.0
H724 H 0.63439 0.91871 0.07306 0.0
H725 H 0.70893 0.9196 0.03745 0.0
Co726 Co 0.33399 0.82792 0.43491 0.0
C727 C 0.35935 0.8067 0.38783 0.0
C728 C 0.32855 0.83253 0.37985 0.0
C729 C 0.33618 0.82156 0.35726 0.0
N730 N 0.3432 0.82356 0.3991 0.0
N731 N 0.35544 0.80529 0.3623 0.0
H732 H 0.37215 0.79416 0.398 0.0
H733 H 0.31221 0.84497 0.3823 0.0
C734 C 0.33692 0.88137 0.41379 0.0
O735 O 0.35875 0.87592 0.40251 0.0
N736 N 0.32347 0.83237 0.47004 0.0
C737 C 0.32917 0.81754 0.49032 0.0
C738 C 0.3154 0.82616 0.51121 0.0
C739 C 0.30655 0.84979 0.47876 0.0
N740 N 0.30136 0.84647 0.5038 0.0
C741 C 0.38611 0.81494 0.4457 0.0
C742 C 0.401 0.86191 0.46476 0.0
C743 C 0.41873 0.84171 0.46521 0.0
C744 C 0.41075 0.81793 0.45557 0.0
C745 C 0.37627 0.85791 0.45525 0.0
N746 N 0.36929 0.83487 0.44502 0.0
H747 H 0.38025 0.79611 0.43973 0.0
H748 H 0.36259 0.87323 0.45703 0.0
H749 H 0.34195 0.80129 0.48981 0.0
H750 H 0.29738 0.86401 0.46692 0.0
O751 O 0.33356 0.79108 0.43897 0.0
O752 O 0.30047 0.81468 0.42701 0.0
O753 O 0.32609 0.86496 0.42832 0.0
C754 C 0.30978 0.79211 0.43169 0.0
H755 H 0.3275 0.82445 0.3387 0.0
H756 H 0.31561 0.81814 0.5303 0.0
H757 H 0.4059 0.88065 0.47205 0.0
H758 H 0.42302 0.8013 0.45647 0.0
Co759 Co 0.68235 0.18816 0.43705 0.0
C760 C 0.65754 0.21112 0.39083 0.0
C761 C 0.69011 0.18783 0.3819 0.0
C762 C 0.68235 0.19984 0.35991 0.0
N763 N 0.67446 0.19461 0.40133 0.0
N764 N 0.66196 0.21452 0.36558 0.0
H765 H 0.64355 0.22192 0.40147 0.0
H766 H 0.70694 0.17598 0.38391 0.0
C767 C 0.6802 0.13643 0.41243 0.0
O768 O 0.65953 0.14341 0.39998 0.0
N769 N 0.69139 0.18185 0.47213 0.0
C770 C 0.67979 0.19056 0.49342 0.0
C771 C 0.69331 0.18198 0.51435 0.0
C772 C 0.71176 0.16834 0.48021 0.0
N773 N 0.71346 0.16804 0.506 0.0
C774 C 0.63017 0.20139 0.44768 0.0
C775 C 0.61337 0.15322 0.46149 0.0
C776 C 0.59615 0.17378 0.46343 0.0
C777 C 0.6051 0.19815 0.45646 0.0
C778 C 0.63854 0.15742 0.45319 0.0
N779 N 0.64651 0.18115 0.44554 0.0
H780 H 0.6367 0.22055 0.44374 0.0
H781 H 0.65171 0.1416 0.45395 0.0
H782 H 0.66285 0.2024 0.49372 0.0
H783 H 0.72537 0.15949 0.46734 0.0
O784 O 0.68317 0.22477 0.44298 0.0
O785 O 0.7163 0.20126 0.43085 0.0
O786 O 0.69021 0.15133 0.42897 0.0
C787 C 0.70715 0.22372 0.43624 0.0
H788 H 0.6915 0.19856 0.34134 0.0
H789 H 0.68851 0.18564 0.53416 0.0
H790 H 0.60772 0.13399 0.46672 0.0
H791 H 0.59325 0.21497 0.45866 0.0
C792 C 0.13578 0.50508 0.26499 0.0
C793 C 0.15792 0.49615 0.27734 0.0
C794 C 0.12316 0.49015 0.24652 0.0
C795 C 0.13272 0.46558 0.24041 0.0
C796 C 0.15521 0.45661 0.2525 0.0
C797 C 0.16757 0.47202 0.27066 0.0
C798 C 0.09932 0.50045 0.23395 0.0
C799 C 0.16602 0.43047 0.24658 0.0
C800 C 0.09066 0.41193 0.21584 0.0
C801 C 0.09897 0.40971 0.19036 0.0
C802 C 0.10036 0.43104 0.23196 0.0
C803 C 0.11874 0.44851 0.22236 0.0
C804 C 0.12569 0.44765 0.19614 0.0
C805 C 0.11572 0.42822 0.18042 0.0
C806 C 0.09226 0.43133 0.25972 0.0
C807 C 0.14491 0.46621 0.18508 0.0
H808 H 0.12791 0.52352 0.27011 0.0
H809 H 0.18486 0.46508 0.27963 0.0
H810 H 0.10107 0.49919 0.21283 0.0
H811 H 0.08256 0.48869 0.23963 0.0
H812 H 0.09551 0.52066 0.23931 0.0
H813 H 0.18396 0.42655 0.25724 0.0
H814 H 0.15177 0.41551 0.25158 0.0
H815 H 0.17003 0.42876 0.2258 0.0
H816 H 0.07744 0.39793 0.22362 0.0
H817 H 0.12217 0.42674 0.16075 0.0
H818 H 0.08704 0.45097 0.26579 0.0
H819 H 0.10851 0.42507 0.27183 0.0
H820 H 0.07573 0.41844 0.26345 0.0
H821 H 0.14039 0.48606 0.19106 0.0
H822 H 0.14551 0.46539 0.16384 0.0
H823 H 0.16425 0.46161 0.19247 0.0
C824 C 1.00699 0.37338 0.24919 0.0
C825 C 0.99863 0.35139 0.23612 0.0
C826 C 0.99144 0.38544 0.26757 0.0
C827 C 0.96674 0.37558 0.27278 0.0
C828 C 0.95827 0.35329 0.25992 0.0
C829 C 0.97435 0.3414 0.24198 0.0
C830 C 1.00129 0.409 0.28107 0.0
C831 C 0.93196 0.34223 0.26478 0.0
C832 C 0.92814 0.39138 0.33249 0.0
C833 C 0.91033 0.40897 0.32287 0.0
C834 C 0.94761 0.38139 0.31678 0.0
C835 C 0.94913 0.38899 0.2908 0.0
C836 C 0.93213 0.40782 0.28142 0.0
C837 C 0.91307 0.41768 0.29758 0.0
C838 C 0.96571 0.36175 0.32765 0.0
C839 C 0.933 0.41643 0.25383 0.0
H840 H 0.02551 0.38158 0.24479 0.0
H841 H 0.96775 0.32422 0.23251 0.0
H842 H 0.98954 0.4258 0.27567 0.0
H843 H 0.99953 0.40663 0.3021 0.0
H844 H 0.02161 0.41315 0.27628 0.0
H845 H 0.92834 0.32466 0.25339 0.0
H846 H 0.92967 0.33754 0.28536 0.0
H847 H 0.91713 0.3566 0.25993 0.0
H848 H 0.92631 0.38464 0.35203 0.0
H849 H 0.89955 0.43138 0.28994 0.0
H850 H 0.98578 0.36652 0.32251 0.0
H851 H 0.96138 0.34272 0.3193 0.0
H852 H 0.96416 0.36031 0.34881 0.0
H853 H 0.95275 0.42196 0.24832 0.0
H854 H 0.92008 0.43288 0.25016 0.0
H855 H 0.92719 0.40035 0.24125 0.0
C856 C 0.84646 0.5448 0.27713 0.0
C857 C 0.85647 0.52031 0.28167 0.0
C858 C 0.85735 0.56113 0.2588 0.0
C859 C 0.87861 0.55273 0.24422 0.0
C860 C 0.88846 0.52784 0.24812 0.0
C861 C 0.8774 0.512 0.2669 0.0
C862 C 0.84634 0.58762 0.25535 0.0
C863 C 0.91093 0.5181 0.23276 0.0
C864 C 0.89048 0.59273 0.18463 0.0
C865 C 0.90878 0.61027 0.19348 0.0
C866 C 0.88156 0.57284 0.20043 0.0
C867 C 0.89098 0.57061 0.22573 0.0
C868 C 0.91053 0.58733 0.23421 0.0
C869 C 0.91927 0.60683 0.21795 0.0
C870 C 0.86106 0.55506 0.19052 0.0
C871 C 0.9211 0.5857 0.26103 0.0
H872 H 0.83002 0.55134 0.28791 0.0
H873 H 0.88555 0.49329 0.27028 0.0
H874 H 0.86121 0.60221 0.2595 0.0
H875 H 0.84026 0.59038 0.23522 0.0
H876 H 0.82963 0.59115 0.26805 0.0
H877 H 0.9151 0.49765 0.23675 0.0
H878 H 0.90719 0.52036 0.212 0.0
H879 H 0.92823 0.52954 0.23727 0.0
H880 H 0.88239 0.59508 0.1657 0.0
H881 H 0.93358 0.62012 0.22496 0.0
H882 H 0.84266 0.55929 0.20027 0.0
H883 H 0.86599 0.53488 0.19482 0.0
H884 H 0.85824 0.55709 0.16956 0.0
H885 H 0.90605 0.59138 0.27494 0.0
H886 H 0.93798 0.59835 0.26379 0.0
H887 H 0.92671 0.56578 0.26562 0.0
C888 C 0.10323 0.59364 0.29693 0.0
C889 C 0.10722 0.60458 0.32115 0.0
C890 C 0.08435 0.60306 0.28042 0.0
C891 C 0.06888 0.62382 0.28834 0.0
C892 C 0.07155 0.63374 0.31342 0.0
C893 C 0.09075 0.62405 0.32953 0.0
C894 C 0.08213 0.59185 0.25387 0.0
C895 C 0.05512 0.65558 0.32274 0.0
C896 C 0.04587 0.66848 0.23594 0.0
C897 C 0.02069 0.66004 0.2319 0.0
C898 C 0.06158 0.65699 0.25438 0.0
C899 C 0.05185 0.63671 0.26951 0.0
C900 C 0.02633 0.62835 0.26597 0.0
C901 C 0.01113 0.63998 0.24712 0.0
C902 C 0.08877 0.66638 0.25743 0.0
C903 C 0.01519 0.60692 0.28187 0.0
H904 H 0.11565 0.57841 0.29032 0.0
H905 H 0.09358 0.63255 0.34822 0.0
H906 H 0.06189 0.58734 0.24939 0.0
H907 H 0.08882 0.6061 0.23959 0.0
H908 H 0.0937 0.57417 0.2516 0.0
H909 H 0.05727 0.6589 0.34362 0.0
H910 H 0.06059 0.67337 0.3125 0.0
H911 H 0.03466 0.65181 0.31852 0.0
H912 H 0.05341 0.6842 0.22475 0.0
H913 H 0.99188 0.63297 0.24409 0.0
H914 H 0.10234 0.65051 0.25364 0.0
H915 H 0.09198 0.67285 0.27739 0.0
H916 H 0.09338 0.68244 0.24428 0.0
H917 H 0.02574 0.58893 0.278 0.0
H918 H 0.99457 0.60367 0.2778 0.0
H919 H 0.01741 0.61122 0.30253 0.0
C920 C 0.16572 0.54204 0.73358 0.0
C921 C 0.15611 0.51731 0.72941 0.0
C922 C 0.15521 0.55806 0.75241 0.0
C923 C 0.1347 0.54912 0.76777 0.0
C924 C 0.12518 0.52403 0.76409 0.0
C925 C 0.13588 0.5085 0.74488 0.0
C926 C 0.16587 0.58474 0.75563 0.0
C927 C 0.10344 0.51374 0.78018 0.0
C928 C 0.12403 0.58798 0.8284 0.0
C929 C 0.10507 0.6052 0.82047 0.0
C930 C 0.13292 0.56862 0.81193 0.0
C931 C 0.12273 0.56657 0.78691 0.0
C932 C 0.10255 0.58294 0.77938 0.0
C933 C 0.09391 0.60193 0.79626 0.0
C934 C 0.15416 0.55126 0.82083 0.0
C935 C 0.09112 0.58146 0.7529 0.0
H936 H 0.1816 0.54897 0.72219 0.0
H937 H 0.12803 0.48959 0.74175 0.0
H938 H 0.1506 0.59905 0.75213 0.0
H939 H 0.17263 0.5875 0.77555 0.0
H940 H 0.18204 0.5887 0.74235 0.0
H941 H 0.09929 0.49331 0.77601 0.0
H942 H 0.10803 0.51569 0.8008 0.0
H943 H 0.08586 0.52505 0.77661 0.0
H944 H 0.13271 0.59023 0.84708 0.0
H945 H 0.07911 0.61498 0.78995 0.0
H946 H 0.17207 0.55601 0.81039 0.0
H947 H 0.14948 0.53101 0.81652 0.0
H948 H 0.1578 0.55316 0.84168 0.0
H949 H 0.10563 0.58751 0.73857 0.0
H950 H 0.07401 0.59389 0.75085 0.0
H951 H 0.08559 0.5615 0.74829 0.0
C952 C 1.00517 0.3684 0.75992 0.0
C953 C 0.01366 0.34743 0.77438 0.0
C954 C 0.02108 0.37991 0.7414 0.0
C955 C 0.04611 0.37029 0.73734 0.0
C956 C 0.05436 0.34853 0.75116 0.0
C957 C 0.03803 0.33735 0.76937 0.0
C958 C 0.01146 0.40293 0.72692 0.0
C959 C 0.08086 0.33759 0.74745 0.0
C960 C 0.08761 0.38549 0.67932 0.0
C961 C 0.10492 0.40331 0.68953 0.0
C962 C 0.06734 0.37567 0.69417 0.0
C963 C 0.06444 0.38368 0.71991 0.0
C964 C 0.08097 0.40273 0.72983 0.0
C965 C 0.1009 0.41238 0.71452 0.0
C966 C 0.04988 0.35573 0.68272 0.0
C967 C 0.07862 0.41185 0.75716 0.0
H968 H 0.9865 0.37651 0.76379 0.0
H969 H 0.04457 0.3209 0.7801 0.0
H970 H 0.02242 0.42015 0.73278 0.0
H971 H 0.01453 0.40034 0.70607 0.0
H972 H 0.9908 0.40654 0.73047 0.0
H973 H 0.08398 0.32001 0.75895 0.0
H974 H 0.08413 0.33297 0.72699 0.0
H975 H 0.09541 0.35201 0.75305 0.0
H976 H 0.09039 0.37848 0.66 0.0
H977 H 0.11402 0.42625 0.7226 0.0
H978 H 0.02957 0.36034 0.68688 0.0
H979 H 0.05396 0.33684 0.69147 0.0
H980 H 0.05241 0.35407 0.66167 0.0
H981 H 0.05858 0.41737 0.76149 0.0
H982 H 0.0913 0.42844 0.76119 0.0
H983 H 0.08377 0.39605 0.77034 0.0
C984 C 0.89829 0.41076 0.81219 0.0
C985 C 0.92504 0.40882 0.8106 0.0
C986 C 0.8849 0.42891 0.79768 0.0
C987 C 0.89857 0.44548 0.78111 0.0
C988 C 0.92564 0.44456 0.78046 0.0
C989 C 0.93856 0.4263 0.79526 0.0
C990 C 0.85603 0.42944 0.79908 0.0
C991 C 0.94092 0.46191 0.76306 0.0
C992 C 0.86443 0.46867 0.72141 0.0
C993 C 0.8579 0.4938 0.72809 0.0
C994 C 0.87765 0.4528 0.73851 0.0
C995 C 0.88449 0.46225 0.76295 0.0
C996 C 0.87791 0.48757 0.76989 0.0
C997 C 0.86471 0.50304 0.75237 0.0
C998 C 0.88444 0.42594 0.73032 0.0
C999 C 0.88478 0.49828 0.79581 0.0
H1000 H 0.88767 0.39744 0.82407 0.0
H1001 H 0.95922 0.42498 0.79385 0.0
H1002 H 0.84915 0.44927 0.80214 0.0
H1003 H 0.84795 0.42268 0.78066 0.0
H1004 H 0.84846 0.41712 0.81469 0.0
H1005 H 0.96184 0.46039 0.76646 0.0
H1006 H 0.93706 0.45685 0.74281 0.0
H1007 H 0.93505 0.48212 0.76577 0.0
H1008 H 0.85959 0.46151 0.70259 0.0
H1009 H 0.85945 0.52231 0.75783 0.0
H1010 H 0.87586 0.4119 0.74377 0.0
H1011 H 0.9055 0.42331 0.73096 0.0
H1012 H 0.87769 0.42149 0.71068 0.0
H1013 H 0.87598 0.48642 0.8111 0.0
H1014 H 0.87832 0.51837 0.79824 0.0
H1015 H 0.90582 0.49756 0.79856 0.0
C1016 C 1.00321 0.64497 0.76202 0.0
C1017 C 0.99323 0.65867 0.78296 0.0
C1018 C 0.98704 0.63387 0.74362 0.0
C1019 C 0.96023 0.63687 0.74588 0.0
C1020 C 0.94999 0.65053 0.76691 0.0
C1021 C 0.96653 0.66101 0.78524 0.0
C1022 C 0.99867 0.61911 0.72165 0.0
C1023 C 0.92146 0.65427 0.76997 0.0
C1024 C 0.91594 0.63231 0.68856 0.0
C1025 C 0.90359 0.60892 0.69311 0.0
C1026 C 0.93528 0.64116 0.70496 0.0
C1027 C 0.94266 0.62609 0.72621 0.0
C1028 C 0.93142 0.6017 0.72991 0.0
C1029 C 0.91189 0.59349 0.71343 0.0
C1030 C 0.94664 0.66736 0.70046 0.0
C1031 C 0.93909 0.58482 0.75204 0.0
H1032 H 0.02368 0.64306 0.75967 0.0
H1033 H 0.95834 0.67099 0.80141 0.0
H1034 H 0.99016 0.59968 0.72065 0.0
H1035 H 0.99431 0.62884 0.70332 0.0
H1036 H 0.01977 0.61725 0.72342 0.0
H1037 H 0.91656 0.6657 0.78722 0.0
H1038 H 0.91364 0.66413 0.7529 0.0
H1039 H 0.91176 0.63544 0.77142 0.0
H1040 H 0.90958 0.64439 0.67297 0.0
H1041 H 0.90257 0.57527 0.71694 0.0
H1042 H 0.96784 0.66647 0.70084 0.0
H1043 H 0.94055 0.68044 0.71605 0.0
H1044 H 0.94056 0.67568 0.68189 0.0
H1045 H 0.96023 0.58323 0.75311 0.0
H1046 H 0.9308 0.5653 0.75049 0.0
H1047 H 0.93241 0.59348 0.77025 0.0
C1048 C 0.18377 0.12 0.42346 0.0
C1049 C 0.1933 0.10239 0.40557 0.0
C1050 C 0.19936 0.12942 0.44324 0.0
C1051 C 0.22513 0.12121 0.445 0.0
C1052 C 0.23435 0.1023 0.42794 0.0
C1053 C 0.2183 0.09303 0.40856 0.0
C1054 C 0.18866 0.14918 0.46139 0.0
C1055 C 0.2617 0.09305 0.42905 0.0
C1056 C 0.27465 0.16782 0.47049 0.0
C1057 C 0.28007 0.15773 0.49478 0.0
C1058 C 0.25662 0.15628 0.45434 0.0
C1059 C 0.24322 0.13426 0.46273 0.0
C1060 C 0.24795 0.12433 0.48746 0.0
C1061 C 0.26643 0.13605 0.5031 0.0
C1062 C 0.25226 0.16742 0.42803 0.0
C1063 C 0.23384 0.10105 0.49721 0.0
H1064 H 0.16445 0.12722 0.42145 0.0
H1065 H 0.22585 0.07928 0.39498 0.0
H1066 H 0.19351 0.14427 0.48146 0.0
H1067 H 0.19738 0.16808 0.45718 0.0
H1068 H 0.16754 0.15096 0.45974 0.0
H1069 H 0.26513 0.07648 0.41617 0.0
H1070 H 0.27476 0.10881 0.42332 0.0
H1071 H 0.26681 0.08744 0.44885 0.0
H1072 H 0.28453 0.18481 0.46395 0.0
H1073 H 0.27048 0.12783 0.52165 0.0
H1074 H 0.23181 0.17253 0.42565 0.0
H1075 H 0.25695 0.15296 0.4132 0.0
H1076 H 0.26406 0.18476 0.42448 0.0
H1077 H 0.21288 0.1038 0.49528 0.0
H1078 H 0.23828 0.09687 0.51757 0.0
H1079 H 0.23907 0.08412 0.48553 0.0
C1080 C 0.58067 0.3205 0.08297 0.0
C1081 C 0.58387 0.31257 0.10835 0.0
C1082 C 0.59222 0.30687 0.06274 0.0
C1083 C 0.60651 0.28446 0.06814 0.0
C1084 C 0.60872 0.27587 0.09372 0.0
C1085 C 0.59771 0.29023 0.11348 0.0
C1086 C 0.58993 0.31692 0.03578 0.0
C1087 C 0.62311 0.25172 0.10032 0.0
C1088 C 0.62248 0.23492 0.01728 0.0
C1089 C 0.64878 0.23902 0.01398 0.0
C1090 C 0.60813 0.25015 0.0342 0.0
C1091 C 0.62031 0.27042 0.04748 0.0
C1092 C 0.64661 0.27546 0.04302 0.0
C1093 C 0.66062 0.2594 0.02665 0.0
C1094 C 0.58037 0.24363 0.03897 0.0
C1095 C 0.66019 0.29725 0.05625 0.0
H1096 H 0.57 0.33783 0.07906 0.0
H1097 H 0.59985 0.28388 0.13312 0.0
H1098 H 0.60917 0.32238 0.02854 0.0
H1099 H 0.58245 0.30181 0.02291 0.0
H1100 H 0.57717 0.33385 0.03461 0.0
H1101 H 0.62123 0.2466 0.12087 0.0
H1102 H 0.61597 0.23549 0.08864 0.0
H1103 H 0.64372 0.2542 0.09582 0.0
H1104 H 0.61345 0.21901 0.00753 0.0
H1105 H 0.68092 0.26265 0.02378 0.0
H1106 H 0.56824 0.26091 0.0371 0.0
H1107 H 0.57805 0.23647 0.05884 0.0
H1108 H 0.57322 0.22876 0.02558 0.0
H1109 H 0.64894 0.31515 0.05443 0.0
H1110 H 0.67966 0.30057 0.04831 0.0
H1111 H 0.66198 0.29298 0.07696 0.0
C1112 C 0.74495 0.87777 0.50142 0.0
C1113 C 0.73046 0.85679 0.49285 0.0
C1114 C 0.7636 0.88926 0.48568 0.0
C1115 C 0.76773 0.87974 0.46065 0.0
C1116 C 0.75335 0.85848 0.45196 0.0
C1117 C 0.73506 0.84722 0.46816 0.0
C1118 C 0.77863 0.91179 0.49572 0.0
C1119 C 0.75709 0.84776 0.42537 0.0
C1120 C 0.79485 0.92125 0.40746 0.0
C1121 C 0.8196 0.91119 0.4045 0.0
C1122 C 0.77817 0.912 0.42643 0.0
C1123 C 0.78644 0.89233 0.44307 0.0
C1124 C 0.8119 0.88321 0.44125 0.0
C1125 C 0.82816 0.89268 0.42194 0.0
C1126 C 0.75119 0.92229 0.42766 0.0
C1127 C 0.82158 0.86251 0.45887 0.0
H1128 H 0.74146 0.88559 0.52028 0.0
H1129 H 0.72445 0.83078 0.46142 0.0
H1130 H 0.79946 0.90808 0.49388 0.0
H1131 H 0.77433 0.92904 0.48415 0.0
H1132 H 0.77417 0.91599 0.51609 0.0
H1133 H 0.74452 0.83103 0.42157 0.0
H1134 H 0.75298 0.86274 0.41091 0.0
H1135 H 0.77729 0.84182 0.42266 0.0
H1136 H 0.78802 0.93564 0.39422 0.0
H1137 H 0.84726 0.88486 0.41994 0.0
H1138 H 0.7462 0.92781 0.44755 0.0
H1139 H 0.73755 0.90713 0.42173 0.0
H1140 H 0.74848 0.93915 0.41502 0.0
H1141 H 0.81707 0.86726 0.47908 0.0
H1142 H 0.84256 0.85962 0.45699 0.0
H1143 H 0.81182 0.8442 0.45437 0.0
C1144 C 0.37508 0.75831 1.0021 0.0
C1145 C 0.35222 0.7692 0.01115 0.0
C1146 C 0.38827 0.7399 0.01661 0.0
C1147 C 0.37846 0.73242 0.0408 0.0
C1148 C 0.35473 0.74237 0.04932 0.0
C1149 C 0.34189 0.76048 0.03434 0.0
C1150 C 0.41333 0.72955 1.00663 0.0
C1151 C 0.34349 0.73495 0.07495 0.0
C1152 C 0.3999 0.67578 0.08089 0.0
C1153 C 0.4146 0.68806 0.0997 0.0
C1154 C 0.38954 0.68962 0.06027 0.0
C1155 C 0.39384 0.71633 0.05859 0.0
C1156 C 0.41025 0.72837 0.07643 0.0
C1157 C 0.42048 0.71409 0.09666 0.0
C1158 C 0.37269 0.67597 0.04124 0.0
C1159 C 0.41549 0.75677 0.07534 0.0
H1160 H 0.38328 0.765 0.98426 0.0
H1161 H 0.32397 0.76836 0.04116 0.0
H1162 H 0.42939 0.73905 0.01672 0.0
H1163 H 0.41485 0.7087 0.01028 0.0
H1164 H 0.41564 0.73308 0.98578 0.0
H1165 H 0.32419 0.7433 0.07809 0.0
H1166 H 0.34201 0.71385 0.07652 0.0
H1167 H 0.35629 0.74162 0.0905 0.0
H1168 H 0.39544 0.65563 0.08288 0.0
H1169 H 0.43212 0.72373 0.11082 0.0
H1170 H 0.3773 0.68213 0.02144 0.0
H1171 H 0.35238 0.68095 0.04496 0.0
H1172 H 0.37472 0.65486 0.04253 0.0
H1173 H 0.42131 0.76254 0.05576 0.0
H1174 H 0.43072 0.76268 0.08892 0.0
H1175 H 0.39773 0.76738 0.08016 0.0
C1176 C 0.284 0.888 0.5176 0.0
C1177 C 0.28386 0.86124 0.51907 0.0
C1178 C 0.26771 0.90275 0.53312 0.0
C1179 C 0.25033 0.89035 0.5499 0.0
C1180 C 0.24944 0.86326 0.55062 0.0
C1181 C 0.26653 0.84904 0.53549 0.0
C1182 C 0.26987 0.93154 0.53236 0.0
C1183 C 0.23079 0.84927 0.56776 0.0
C1184 C 0.22891 0.92146 0.61179 0.0
C1185 C 0.20437 0.9302 0.60562 0.0
C1186 C 0.24445 0.90959 0.59346 0.0
C1187 C 0.23485 0.9055 0.56849 0.0
C1188 C 0.21015 0.91469 0.56199 0.0
C1189 C 0.19527 0.92733 0.58064 0.0
C1190 C 0.2709 0.90082 0.60106 0.0
C1191 C 0.19905 0.91019 0.53576 0.0
H1192 H 0.29753 0.89735 0.50492 0.0
H1193 H 0.26623 0.82833 0.53627 0.0
H1194 H 0.25084 0.94027 0.52904 0.0
H1195 H 0.27682 0.93863 0.55112 0.0
H1196 H 0.28325 0.93823 0.5172 0.0
H1197 H 0.23063 0.82835 0.56407 0.0
H1198 H 0.23595 0.85247 0.58809 0.0
H1199 H 0.21115 0.85681 0.56499 0.0
H1200 H 0.23591 0.92371 0.63117 0.0
H1201 H 0.17617 0.93393 0.57604 0.0
H1202 H 0.28532 0.90784 0.5871 0.0
H1203 H 0.27171 0.87962 0.60093 0.0
H1204 H 0.27633 0.90762 0.62045 0.0
H1205 H 0.21241 0.91715 0.52076 0.0
H1206 H 0.18028 0.91981 0.53326 0.0
H1207 H 0.19643 0.88935 0.53266 0.0
C1208 C 0.44484 0.30011 0.92522 0.0
C1209 C 0.42916 0.31555 0.90995 0.0
C1210 C 0.43424 0.28458 0.94453 0.0
C1211 C 0.40742 0.28481 0.94876 0.0
C1212 C 0.39182 0.30165 0.93446 0.0
C1213 C 0.40286 0.31669 0.91515 0.0
C1214 C 0.45152 0.26679 0.95926 0.0
C1215 C 0.3632 0.30271 0.9385 0.0
C1216 C 0.37296 0.22525 0.97219 0.0
C1217 C 0.3677 0.23139 0.99778 0.0
C1218 C 0.38663 0.24211 0.95633 0.0
C1219 C 0.3952 0.26583 0.96624 0.0
C1220 C 0.39052 0.27193 0.99223 0.0
C1221 C 0.37686 0.25462 0.0077 0.0
C1222 C 0.3914 0.23476 0.92877 0.0
C1223 C 0.39926 0.29705 1.00347 0.0
H1224 H 0.46516 0.29899 0.92109 0.0
H1225 H 0.39071 0.32875 0.90348 0.0
H1226 H 0.44772 0.26835 0.98009 0.0
H1227 H 0.4475 0.24673 0.9536 0.0
H1228 H 0.4721 0.27082 0.95563 0.0
H1229 H 0.35417 0.31854 0.92759 0.0
H1230 H 0.35444 0.28441 0.93225 0.0
H1231 H 0.35866 0.30519 0.9591 0.0
H1232 H 0.36643 0.20714 0.96452 0.0
H1233 H 0.37274 0.2596 0.0274 0.0
H1234 H 0.41213 0.23609 0.92427 0.0
H1235 H 0.3813 0.24826 0.91592 0.0
H1236 H 0.38474 0.21504 0.92443 0.0
H1237 H 0.41995 0.30004 0.99965 0.0
H1238 H 0.39592 0.29804 0.02445 0.0
H1239 H 0.38882 0.31301 0.99421 0.0
C1240 C 0.83116 0.11763 0.58932 0.0
C1241 C 0.82223 0.09936 0.60687 0.0
C1242 C 0.81503 0.12729 0.57011 0.0
C1243 C 0.78942 0.11845 0.56849 0.0
C1244 C 0.78096 0.09867 0.58496 0.0
C1245 C 0.79747 0.08934 0.60387 0.0
C1246 C 0.82488 0.14811 0.55266 0.0
C1247 C 0.75389 0.08855 0.58383 0.0
C1248 C 0.73817 0.16469 0.54613 0.0
C1249 C 0.73296 0.15587 0.52133 0.0
C1250 C 0.75673 0.15287 0.56144 0.0
C1251 C 0.77065 0.13176 0.55172 0.0
C1252 C 0.76586 0.12297 0.52657 0.0
C1253 C 0.74701 0.13505 0.51172 0.0
C1254 C 0.76121 0.16282 0.5882 0.0
C1255 C 0.78035 0.10058 0.51549 0.0
H1256 H 0.85027 0.12544 0.59142 0.0
H1257 H 0.7905 0.07495 0.61712 0.0
H1258 H 0.81969 0.14401 0.5325 0.0
H1259 H 0.81584 0.16656 0.55794 0.0
H1260 H 0.84599 0.15035 0.55395 0.0
H1261 H 0.75121 0.07128 0.59593 0.0
H1262 H 0.74046 0.10356 0.59056 0.0
H1263 H 0.74859 0.08375 0.56386 0.0
H1264 H 0.72785 0.181 0.55361 0.0
H1265 H 0.74299 0.12784 0.49273 0.0
H1266 H 0.78157 0.16834 0.59056 0.0
H1267 H 0.75705 0.14754 0.60236 0.0
H1268 H 0.74906 0.17965 0.59275 0.0
H1269 H 0.80127 0.10396 0.51696 0.0
H1270 H 0.77546 0.09707 0.49511 0.0
H1271 H 0.77597 0.08304 0.52662 0.0
C1272 C 0.63876 0.7645 1.00481 0.0
C1273 C 0.65962 0.77861 0.99525 0.0
C1274 C 0.62696 0.74538 0.98998 0.0
C1275 C 0.63603 0.74044 0.9649 0.0
C1276 C 0.65747 0.75413 0.95544 0.0
C1277 C 0.66905 0.77286 0.97076 0.0
C1278 C 0.60434 0.73101 1.00086 0.0
C1279 C 0.66776 0.74953 0.92879 0.0
C1280 C 0.62105 0.68117 0.92552 0.0
C1281 C 0.60297 0.69077 0.9082 0.0
C1282 C 0.63077 0.69658 0.94533 0.0
C1283 C 0.62239 0.72224 0.94768 0.0
C1284 C 0.60292 0.73144 0.93132 0.0
C1285 C 0.59338 0.71558 0.91191 0.0
C1286 C 0.65111 0.68589 0.96274 0.0
C1287 C 0.59342 0.75866 0.93309 0.0
H1288 H 0.63115 0.76884 0.0236 0.0
H1289 H 0.68547 0.78314 0.96337 0.0
H1290 H 0.58673 0.73641 0.99036 0.0
H1291 H 0.60699 0.7101 0.99837 0.0
H1292 H 0.60136 0.73513 0.02152 0.0
H1293 H 0.685 0.76128 0.92457 0.0
H1294 H 0.67278 0.72907 0.92632 0.0
H1295 H 0.65282 0.75414 0.91446 0.0
H1296 H 0.62845 0.66198 0.92298 0.0
H1297 H 0.57922 0.72317 0.89884 0.0
H1298 H 0.64699 0.69088 0.98297 0.0
H1299 H 0.66991 0.69444 0.95773 0.0
H1300 H 0.65269 0.66476 0.96108 0.0
H1301 H 0.58834 0.76351 0.95312 0.0
H1302 H 0.57644 0.76204 0.92079 0.0
H1303 H 0.60888 0.77194 0.92702 0.0
C1304 C 0.47816 0.26572 0.17465 0.0
C1305 C 0.50191 0.27315 0.16446 0.0
C1306 C 0.46323 0.24687 0.16284 0.0
C1307 C 0.4724 0.23466 0.14044 0.0
C1308 C 0.49703 0.24088 0.13088 0.0
C1309 C 0.51143 0.26019 0.1429 0.0
C1310 C 0.43703 0.24092 0.17368 0.0
C1311 C 0.5077 0.22795 0.10734 0.0
C1312 C 0.4321 0.17675 0.12304 0.0
C1313 C 0.41427 0.18771 0.10628 0.0
C1314 C 0.45255 0.19126 0.13285 0.0
C1315 C 0.45495 0.21737 0.126 0.0
C1316 C 0.4381 0.22795 0.10769 0.0
C1317 C 0.41814 0.21295 0.09792 0.0
C1318 C 0.47059 0.17908 0.15176 0.0
C1319 C 0.43982 0.25573 0.09988 0.0
H1320 H 0.47092 0.27505 0.19167 0.0
H1321 H 0.5297 0.26577 0.13478 0.0
H1322 H 0.42211 0.24628 0.15959 0.0
H1323 H 0.4351 0.22011 0.17733 0.0
H1324 H 0.43319 0.25133 0.19182 0.0
H1325 H 0.52845 0.23193 0.10474 0.0
H1326 H 0.50479 0.20695 0.10844 0.0
H1327 H 0.49741 0.23489 0.09016 0.0
H1328 H 0.42947 0.15719 0.12941 0.0
H1329 H 0.4047 0.22159 0.08475 0.0
H1330 H 0.4659 0.18584 0.17134 0.0
H1331 H 0.49067 0.18472 0.14764 0.0
H1332 H 0.46918 0.15788 0.1515 0.0
H1333 H 0.43443 0.26801 0.11636 0.0
H1334 H 0.42697 0.26031 0.08361 0.0
H1335 H 0.45972 0.26076 0.0944 0.0
C1336 C 0.41091 0.81373 0.90263 0.0
C1337 C 0.4075 0.81273 0.92924 0.0
C1338 C 0.42933 0.79855 0.89037 0.0
C1339 C 0.44458 0.7817 0.90504 0.0
C1340 C 0.44207 0.78145 0.93206 0.0
C1341 C 0.42361 0.7971 0.94387 0.0
C1342 C 0.43154 0.79963 0.86156 0.0
C1343 C 0.45787 0.76367 0.94836 0.0
C1344 C 0.46732 0.72249 0.86953 0.0
C1345 C 0.49258 0.72907 0.86315 0.0
C1346 C 0.45177 0.73916 0.88376 0.0
C1347 C 0.46166 0.76309 0.89178 0.0
C1348 C 0.48726 0.7697 0.88579 0.0
C1349 C 0.5024 0.75262 0.87156 0.0
C1350 C 0.4246 0.73131 0.88989 0.0
C1351 C 0.49847 0.79506 0.89389 0.0
H1352 H 0.39859 0.82586 0.89122 0.0
H1353 H 0.4209 0.79606 0.96442 0.0
H1354 H 0.45179 0.80247 0.85576 0.0
H1355 H 0.42509 0.78119 0.85325 0.0
H1356 H 0.41984 0.81524 0.8532 0.0
H1357 H 0.45549 0.7676 0.96913 0.0
H1358 H 0.45204 0.7436 0.94464 0.0
H1359 H 0.47844 0.76535 0.94333 0.0
H1360 H 0.45972 0.70417 0.86356 0.0
H1361 H 0.5218 0.758 0.86653 0.0
H1362 H 0.41103 0.74469 0.88061 0.0
H1363 H 0.42119 0.73238 0.91082 0.0
H1364 H 0.42021 0.71159 0.8833 0.0
H1365 H 0.48813 0.81085 0.88423 0.0
H1366 H 0.51915 0.79664 0.88916 0.0
H1367 H 0.49599 0.7978 0.91481 0.0
C1368 C 0.25429 1.00362 0.63679 0.0
C1369 C 0.24248 0.01252 0.65927 0.0
C1370 C 0.27291 0.01842 0.62404 0.0
C1371 C 0.27968 0.04276 0.63388 0.0
C1372 C 0.26862 0.05128 0.65712 0.0
C1373 C 0.25036 0.03601 0.66956 0.0
C1374 C 0.28454 0.00846 0.59953 0.0
C1375 C 0.27525 0.07708 0.66837 0.0
C1376 C 0.33775 0.08245 0.61526 0.0
C1377 C 0.32654 0.10122 0.59972 0.0
C1378 C 0.32316 0.06199 0.625 0.0
C1379 C 0.29672 0.06042 0.61925 0.0
C1380 C 0.28581 0.07823 0.60205 0.0
C1381 C 0.30086 0.09829 0.59241 0.0
C1382 C 0.33567 0.04304 0.64279 0.0
C1383 C 0.25772 0.07732 0.59533 0.0
H1384 H 0.24829 0.98556 0.62859 0.0
H1385 H 0.24186 0.04276 0.68722 0.0
H1386 H 0.27701 0.01953 0.58309 0.0
H1387 H 0.30563 0.01099 0.59969 0.0
H1388 H 0.28008 0.98791 0.59639 0.0
H1389 H 0.26567 0.08045 0.68707 0.0
H1390 H 0.29623 0.07873 0.67109 0.0
H1391 H 0.26941 0.09244 0.65495 0.0
H1392 H 0.35764 0.08435 0.62083 0.0
H1393 H 0.29203 0.11246 0.58014 0.0
H1394 H 0.3296 0.02324 0.63813 0.0
H1395 H 0.32959 0.04702 0.66275 0.0
H1396 H 0.35689 0.04416 0.64186 0.0
H1397 H 0.252 0.05769 0.58969 0.0
H1398 H 0.25287 0.09063 0.5795 0.0
H1399 H 0.24619 0.08264 0.61238 0.0
C1400 C 0.53198 0.26164 0.84304 0.0
C1401 C 0.50875 0.27014 0.85351 0.0
C1402 C 0.54692 0.24321 0.85551 0.0
C1403 C 0.53836 0.23267 0.879 0.0
C1404 C 0.51424 0.24008 0.88901 0.0
C1405 C 0.49977 0.25881 0.8762 0.0
C1406 C 0.5725 0.23594 0.84409 0.0
C1407 C 0.50422 0.2292 0.91385 0.0
C1408 C 0.57764 0.17498 0.89956 0.0
C1409 C 0.59648 0.18666 0.91471 0.0
C1410 C 0.55736 0.18936 0.88919 0.0
C1411 C 0.55602 0.21601 0.89397 0.0
C1412 C 0.57392 0.22745 0.91074 0.0
C1413 C 0.59381 0.21266 0.92092 0.0
C1414 C 0.53829 0.17634 0.87191 0.0
C1415 C 0.57324 0.25575 0.9165 0.0
H1416 H 0.5388 0.2698 0.82525 0.0
H1417 H 0.48193 0.2653 0.88456 0.0
H1418 H 0.58811 0.24218 0.85705 0.0
H1419 H 0.57391 0.21487 0.8421 0.0
H1420 H 0.57571 0.24478 0.82502 0.0
H1421 H 0.48338 0.23274 0.91625 0.0
H1422 H 0.50778 0.20831 0.91493 0.0
H1423 H 0.51437 0.23831 0.93009 0.0
H1424 H 0.57937 0.15489 0.89475 0.0
H1425 H 0.60801 0.2219 0.93282 0.0
H1426 H 0.54205 0.18196 0.85177 0.0
H1427 H 0.51851 0.18245 0.8767 0.0
H1428 H 0.53943 0.15516 0.87329 0.0
H1429 H 0.57815 0.26666 0.89894 0.0
H1430 H 0.58692 0.2612 0.93181 0.0
H1431 H 0.55373 0.26163 0.92247 0.0
C1432 C 0.76263 1.00513 0.64173 0.0
C1433 C 0.77557 0.99685 0.66379 0.0
C1434 C 0.74445 0.98945 0.62956 0.0
C1435 C 0.73935 0.96474 0.63941 0.0
C1436 C 0.75197 0.95644 0.66185 0.0
C1437 C 0.76968 0.97264 0.67384 0.0
C1438 C 0.73112 0.99913 0.60588 0.0
C1439 C 0.74722 0.93015 0.67292 0.0
C1440 C 0.68066 0.92483 0.62354 0.0
C1441 C 0.69089 0.90701 0.60625 0.0
C1442 C 0.69577 0.94485 0.63329 0.0
C1443 C 0.72178 0.94687 0.62582 0.0
C1444 C 0.73174 0.92985 0.60724 0.0
C1445 C 0.71615 0.91026 0.59757 0.0
C1446 C 0.68429 0.96297 0.65263 0.0
C1447 C 0.75939 0.93122 0.5988 0.0
H1448 H 0.76704 0.02363 0.63355 0.0
H1449 H 0.77898 0.96615 0.69113 0.0
H1450 H 0.73708 0.98761 0.58907 0.0
H1451 H 0.71009 0.99692 0.60792 0.0
H1452 H 0.73554 0.01955 0.60193 0.0
H1453 H 0.7584 0.92669 0.69063 0.0
H1454 H 0.7266 0.92769 0.67739 0.0
H1455 H 0.75243 0.91532 0.65864 0.0
H1456 H 0.66112 0.92264 0.63019 0.0
H1457 H 0.72425 0.89673 0.58409 0.0
H1458 H 0.68926 0.98304 0.64784 0.0
H1459 H 0.69229 0.95887 0.67184 0.0
H1460 H 0.66312 0.96116 0.65371 0.0
H1461 H 0.76457 0.95103 0.59325 0.0
H1462 H 0.76346 0.91831 0.58239 0.0
H1463 H 0.77194 0.92569 0.61497 0.0
C1464 C 0.51227 0.74082 0.12382 0.0
C1465 C 0.51534 0.7391 0.15043 0.0
C1466 C 0.52825 0.75666 0.10899 0.0
C1467 C 0.54743 0.77147 0.12113 0.0
C1468 C 0.54976 0.77067 0.14814 0.0
C1469 C 0.53387 0.75429 0.1624 0.0
C1470 C 0.52544 0.75655 0.08025 0.0
C1471 C 0.56962 0.78647 0.16192 0.0
C1472 C 0.60978 0.78815 0.08787 0.0
C1473 C 0.60618 0.81394 0.08164 0.0
C1474 C 0.59025 0.77381 0.09943 0.0
C1475 C 0.56676 0.78578 0.10567 0.0
C1476 C 0.56275 0.81171 0.09873 0.0
C1477 C 0.5825 0.82546 0.08644 0.0
C1478 C 0.59519 0.74608 0.10583 0.0
C1479 C 0.53815 0.82525 0.10543 0.0
H1480 H 0.49807 0.72895 0.1145 0.0
H1481 H 0.536 0.75326 0.18299 0.0
H1482 H 0.5245 0.77638 0.07279 0.0
H1483 H 0.54248 0.74736 0.07148 0.0
H1484 H 0.50808 0.74601 0.07397 0.0
H1485 H 0.56723 0.78569 0.18304 0.0
H1486 H 0.58904 0.77938 0.15705 0.0
H1487 H 0.56857 0.80673 0.15568 0.0
H1488 H 0.62813 0.77927 0.08401 0.0
H1489 H 0.57989 0.84549 0.08179 0.0
H1490 H 0.57927 0.73392 0.09878 0.0
H1491 H 0.59612 0.74368 0.1269 0.0
H1492 H 0.6134 0.73903 0.09739 0.0
H1493 H 0.52142 0.81394 0.0989 0.0
H1494 H 0.53714 0.84465 0.09682 0.0
H1495 H 0.53659 0.82711 0.12653 0.0
C1496 C 0.24902 1.00114 0.37202 0.0
C1497 C 0.23372 0.99198 0.3519 0.0
C1498 C 0.26816 0.98586 0.383 0.0
C1499 C 0.27184 0.96063 0.37396 0.0
C1500 C 0.25676 0.95135 0.35348 0.0
C1501 C 0.23806 0.96717 0.34261 0.0
C1502 C 0.28401 0.99651 0.40465 0.0
C1503 C 0.25998 0.92446 0.34341 0.0
C1504 C 0.33123 0.92096 0.3872 0.0
C1505 C 0.32231 0.90453 0.40649 0.0
C1506 C 0.3155 0.94038 0.37733 0.0
C1507 C 0.29024 0.94321 0.38683 0.0
C1508 C 0.28172 0.92768 0.40733 0.0
C1509 C 0.29789 0.90867 0.41699 0.0
C1510 C 0.32543 0.95698 0.35585 0.0
C1511 C 0.25492 0.93 0.41801 0.0
H1512 H 0.24578 0.02009 0.37966 0.0
H1513 H 0.2268 0.95998 0.32681 0.0
H1514 H 0.27958 0.98602 0.42257 0.0
H1515 H 0.30469 0.99378 0.40063 0.0
H1516 H 0.28038 0.01719 0.40789 0.0
H1517 H 0.24717 0.92036 0.32698 0.0
H1518 H 0.28007 0.92133 0.33725 0.0
H1519 H 0.25579 0.91048 0.35885 0.0
H1520 H 0.35011 0.91804 0.37907 0.0
H1521 H 0.29083 0.89626 0.43204 0.0
H1522 H 0.3213 0.97742 0.35977 0.0
H1523 H 0.31555 0.95184 0.3378 0.0
H1524 H 0.34637 0.95467 0.35292 0.0
H1525 H 0.25065 0.95017 0.423 0.0
H1526 H 0.25201 0.918 0.43532 0.0
H1527 H 0.24089 0.924 0.40327 0.0
C1528 C 0.76257 0.0143 0.3655 0.0
C1529 C 0.78398 0.02448 0.35262 0.0
C1530 C 0.74417 0.03028 0.37688 0.0
C1531 C 0.7469 0.05713 0.37502 0.0
C1532 C 0.76836 0.06758 0.36213 0.0
C1533 C 0.78668 0.05119 0.35133 0.0
C1534 C 0.72172 0.01843 0.39078 0.0
C1535 C 0.77193 0.09616 0.35962 0.0
C1536 C 0.69012 0.10204 0.38067 0.0
C1537 C 0.69441 0.11319 0.40468 0.0
C1538 C 0.70644 0.08291 0.3712 0.0
C1539 C 0.72732 0.07452 0.38625 0.0
C1540 C 0.7307 0.08452 0.41119 0.0
C1541 C 0.71431 0.10385 0.42005 0.0
C1542 C 0.70227 0.07284 0.34445 0.0
C1543 C 0.75242 0.07576 0.42805 0.0
H1544 H 0.75987 0.99383 0.36654 0.0
H1545 H 0.8032 0.05949 0.34197 0.0
H1546 H 0.72054 0.02599 0.41058 0.0
H1547 H 0.70364 0.02364 0.38102 0.0
H1548 H 0.72304 0.99724 0.39167 0.0
H1549 H 0.78946 0.10124 0.34866 0.0
H1550 H 0.75515 0.10468 0.34984 0.0
H1551 H 0.77317 0.10501 0.37886 0.0
H1552 H 0.67485 0.1092 0.36865 0.0
H1553 H 0.71761 0.11224 0.43873 0.0
H1554 H 0.70235 0.05163 0.3444 0.0
H1555 H 0.71818 0.07927 0.33188 0.0
H1556 H 0.68393 0.07958 0.33613 0.0
H1557 H 0.75316 0.05457 0.42875 0.0
H1558 H 0.75065 0.0832 0.4479 0.0
H1559 H 0.77088 0.08251 0.41995 0.0
C1560 C 1.00266 0.3488 0.95044 0.0
C1561 C 0.97627 0.34508 0.94744 0.0
C1562 C 0.01375 0.34966 0.97489 0.0
C1563 C 0.99797 0.34727 0.99686 0.0
C1564 C 0.97116 0.34441 0.9939 0.0
C1565 C 0.96067 0.34303 0.9692 0.0
C1566 C 0.04244 0.35218 0.97717 0.0
C1567 C 0.95362 0.34234 0.01682 0.0
C1568 C 0.0278 0.32101 0.0576 0.0
C1569 C 0.03338 0.34336 0.07148 0.0
C1570 C 0.01643 0.32208 0.03335 0.0
C1571 C 0.0097 0.34607 0.02282 0.0
C1572 C 0.01454 0.3687 0.03691 0.0
C1573 C 0.02653 0.3671 0.06095 0.0
C1574 C 0.01186 0.29749 0.01887 0.0
C1575 C 0.00721 0.3946 0.02652 0.0
H1576 H 0.01476 0.35018 0.9336 0.0
H1577 H 0.94022 0.34039 0.96687 0.0
H1578 H 0.0474 0.36866 0.98957 0.0
H1579 H 0.05037 0.33478 0.98635 0.0
H1580 H 0.0519 0.3548 0.95829 0.0
H1581 H 0.9331 0.34232 0.0113 0.0
H1582 H 0.95772 0.32444 0.02742 0.0
H1583 H 0.95708 0.3585 0.03014 0.0
H1584 H 0.03223 0.30248 0.06572 0.0
H1585 H 0.03087 0.38453 0.07128 0.0
H1586 H 0.0218 0.29822 1.00008 0.0
H1587 H 0.99113 0.29508 0.015 0.0
H1588 H 0.01872 0.28043 0.0295 0.0
H1589 H 0.01808 0.39857 0.00869 0.0
H1590 H 0.01101 0.41023 0.04039 0.0
H1591 H 0.98658 0.39481 0.02152 0.0
C1592 C 0.8644 0.50001 0.45033 0.0
C1593 C 0.84829 0.47883 0.44625 0.0
C1594 C 0.86583 0.51201 0.47439 0.0
C1595 C 0.85024 0.50317 0.49476 0.0
C1596 C 0.83424 0.48164 0.49096 0.0
C1597 C 0.83381 0.46952 0.46698 0.0
C1598 C 0.88368 0.53447 0.47787 0.0
C1599 C 0.81699 0.47179 0.51203 0.0
C1600 C 0.86308 0.52027 0.56441 0.0
C1601 C 0.84592 0.54059 0.56855 0.0
C1602 C 0.86548 0.50865 0.54025 0.0
C1603 C 0.84982 0.51691 0.51981 0.0
C1604 C 0.83276 0.53758 0.52366 0.0
C1605 C 0.83135 0.5494 0.54777 0.0
C1606 C 0.8844 0.48711 0.53678 0.0
C1607 C 0.81539 0.54674 0.50251 0.0
H1608 H 0.87548 0.50775 0.43459 0.0
H1609 H 0.82182 0.45279 0.46448 0.0
H1610 H 0.87241 0.55215 0.48107 0.0
H1611 H 0.89583 0.53157 0.49501 0.0
H1612 H 0.8963 0.53745 0.46098 0.0
H1613 H 0.80556 0.45493 0.50595 0.0
H1614 H 0.82853 0.46637 0.52895 0.0
H1615 H 0.80366 0.48713 0.51818 0.0
H1616 H 0.87422 0.51286 0.58018 0.0
H1617 H 0.81852 0.56545 0.55033 0.0
H1618 H 0.8965 0.4906 0.51964 0.0
H1619 H 0.87399 0.46889 0.5336 0.0
H1620 H 0.89704 0.48477 0.55367 0.0
H1621 H 0.82688 0.5526 0.48562 0.0
H1622 H 0.8033 0.56314 0.50853 0.0
H1623 H 0.80268 0.53089 0.49633 0.0
C1624 C 0.01654 0.65105 0.9499 0.0
C1625 C 0.03748 0.66743 0.94549 0.0
C1626 C 1.00478 0.64949 0.97411 0.0
C1627 C 0.0136 0.66521 0.99432 0.0
C1628 C 0.03487 0.6815 0.99018 0.0
C1629 C 0.04678 0.68207 0.96605 0.0
C1630 C 0.98259 0.63133 0.97793 0.0
C1631 C 0.04466 0.69891 0.01105 0.0
C1632 C 0.9673 0.68349 0.04758 0.0
C1633 C 0.9764 0.66908 0.06837 0.0
C1634 C 0.97908 0.68225 0.02341 0.0
C1635 C 1.0 0.66552 0.0195 0.0
C1636 C 0.00858 0.65002 0.03996 0.0
C1637 C 0.99698 0.65226 0.06418 0.0
C1638 C 0.96957 0.69944 1.00225 0.0
C1639 C 0.03039 0.63143 0.03641 0.0
H1640 H 0.00879 0.63985 0.93431 0.0
H1641 H 0.06333 0.69428 0.96331 0.0
H1642 H 0.98579 0.6193 0.99511 0.0
H1643 H 0.96476 0.64235 0.98123 0.0
H1644 H 0.97968 0.61862 0.96115 0.0
H1645 H 0.06134 0.71053 1.00475 0.0
H1646 H 0.02919 0.71207 0.01728 0.0
H1647 H 0.05035 0.68751 0.02799 0.0
H1648 H 0.95103 0.69604 0.05017 0.0
H1649 H 1.00459 0.64123 0.07995 0.0
H1650 H 0.96371 0.68784 0.98549 0.0
H1651 H 0.98524 0.7123 0.99584 0.0
H1652 H 0.95306 0.71136 0.00836 0.0
H1653 H 0.02697 0.61922 0.01939 0.0
H1654 H 0.03305 0.61891 0.05337 0.0
H1655 H 0.04845 0.64209 0.03297 0.0
C1656 C 0.14987 0.49262 0.56119 0.0
C1657 C 0.16601 0.47156 0.56558 0.0
C1658 C 0.14856 0.50442 0.537 0.0
C1659 C 0.16431 0.49554 0.51678 0.0
C1660 C 0.18032 0.47413 0.52089 0.0
C1661 C 0.18064 0.46218 0.54498 0.0
C1662 C 0.13068 0.52676 0.53326 0.0
C1663 C 0.19776 0.46424 0.50002 0.0
C1664 C 0.15169 0.5127 0.44697 0.0
C1665 C 0.1686 0.53331 0.44296 0.0
C1666 C 0.14938 0.50087 0.47108 0.0
C1667 C 0.16491 0.5092 0.49163 0.0
C1668 C 0.18184 0.53005 0.48786 0.0
C1669 C 0.18314 0.54207 0.46383 0.0
C1670 C 0.13058 0.47917 0.47443 0.0
C1671 C 0.1991 0.5393 0.50909 0.0
H1672 H 0.13868 0.50044 0.57679 0.0
H1673 H 0.19266 0.44555 0.54768 0.0
H1674 H 0.14193 0.5445 0.53014 0.0
H1675 H 0.11873 0.52374 0.51599 0.0
H1676 H 0.11786 0.52972 0.55 0.0
H1677 H 0.20912 0.44743 0.50627 0.0
H1678 H 0.18639 0.45874 0.483 0.0
H1679 H 0.21117 0.47959 0.49396 0.0
H1680 H 0.14056 0.5053 0.43117 0.0
H1681 H 0.19576 0.55834 0.46144 0.0
H1682 H 0.11821 0.48268 0.49137 0.0
H1683 H 0.14106 0.46108 0.47793 0.0
H1684 H 0.11819 0.47656 0.45738 0.0
H1685 H 0.18749 0.54535 0.52581 0.0
H1686 H 0.21136 0.55561 0.50305 0.0
H1687 H 0.21164 0.52346 0.51553 0.0
C1688 C 0.96249 0.97132 0.36239 0.0
C1689 C 0.94448 0.98088 0.34506 0.0
C1690 C 0.9873 0.9818 0.36367 0.0
C1691 C 0.99395 1.0027 0.34766 0.0
C1692 C 0.9754 0.01298 0.33084 0.0
C1693 C 0.95101 1.00174 0.32951 0.0
C1694 C 1.00664 0.96993 0.38145 0.0
C1695 C 0.98145 0.03558 0.31386 0.0
C1696 C 0.05275 0.04337 0.36261 0.0
C1697 C 0.07015 0.03471 0.3441 0.0
C1698 C 0.02792 0.03297 0.36423 0.0
C1699 C 0.02063 0.01301 0.34737 0.0
C1700 C 0.03854 1.00366 0.32924 0.0
C1701 C 0.06295 0.01485 0.32762 0.0
C1702 C 0.00926 0.04387 0.38342 0.0
C1703 C 0.03181 0.98206 0.31129 0.0
H1704 H 0.95741 0.95509 0.37429 0.0
H1705 H 0.93697 0.0092 0.31623 0.0
H1706 H 0.02268 0.96182 0.37011 0.0
H1707 H 0.01487 0.98469 0.39427 0.0
H1708 H 0.99818 0.95447 0.39337 0.0
H1709 H 0.96434 0.04252 0.30337 0.0
H1710 H 0.98928 0.05155 0.32543 0.0
H1711 H 0.99631 0.03018 0.29966 0.0
H1712 H 0.05833 0.05882 0.37527 0.0
H1713 H 0.07653 0.00801 0.31347 0.0
H1714 H 1.00158 0.02846 0.39585 0.0
H1715 H 0.99276 0.05245 0.37321 0.0
H1716 H 0.01813 0.05877 0.3957 0.0
H1717 H 0.02449 0.96543 0.3223 0.0
H1718 H 0.04847 0.97578 0.29963 0.0
H1719 H 0.01636 0.9882 0.29815 0.0
C1720 C 0.55277 0.46772 0.15461 0.0
C1721 C 0.53741 0.44829 0.16503 0.0
C1722 C 0.54364 0.49295 0.15258 0.0
C1723 C 0.51849 0.4988 0.16092 0.0
C1724 C 0.50258 0.479 0.17047 0.0
C1725 C 0.51227 0.45406 0.17252 0.0
C1726 C 0.56127 0.51354 0.1425 0.0
C1727 C 0.47555 0.48429 0.17927 0.0
C1728 C 0.50151 0.56509 0.18534 0.0
C1729 C 0.48779 0.57534 0.16473 0.0
C1730 C 0.51239 0.5406 0.18394 0.0
C1731 C 0.50927 0.52581 0.16146 0.0
C1732 C 0.49604 0.53633 0.14028 0.0
C1733 C 0.4856 0.56107 0.14212 0.0
C1734 C 0.52663 0.5303 0.20683 0.0
C1735 C 0.49209 0.5211 0.11608 0.0
H1736 H 0.57227 0.46339 0.14896 0.0
H1737 H 0.50022 0.43902 0.18027 0.0
H1738 H 0.55176 0.52447 0.12703 0.0
H1739 H 0.56575 0.52726 0.15806 0.0
H1740 H 0.57951 0.50559 0.13499 0.0
H1741 H 0.46506 0.46651 0.18441 0.0
H1742 H 0.47591 0.49701 0.19626 0.0
H1743 H 0.46477 0.49437 0.16405 0.0
H1744 H 0.50355 0.57621 0.20273 0.0
H1745 H 0.47489 0.56889 0.1262 0.0
H1746 H 0.5459 0.52352 0.20099 0.0
H1747 H 0.51617 0.51363 0.21486 0.0
H1748 H 0.52888 0.54485 0.22216 0.0
H1749 H 0.51065 0.5137 0.10889 0.0
H1750 H 0.48297 0.53261 0.10075 0.0
H1751 H 0.47975 0.5043 0.12022 0.0
C1752 C 0.05829 0.98925 0.64535 0.0
C1753 C 0.0661 0.97616 0.66744 0.0
C1754 C 0.03358 0.9998 0.64353 0.0
C1755 C 0.01629 0.99729 0.66432 0.0
C1756 C 0.02381 0.98344 0.68632 0.0
C1757 C 0.04849 0.97297 0.68755 0.0
C1758 C 0.02622 0.01424 0.61965 0.0
C1759 C 1.006 0.98025 0.70892 0.0
C1760 C 0.96379 0.04639 0.67529 0.0
C1761 C 0.94176 0.03298 0.66773 0.0
C1762 C 0.98818 0.03527 0.67357 0.0
C1763 C 0.99079 0.01014 0.66381 0.0
C1764 C 0.9688 0.99683 0.65522 0.0
C1765 C 0.94456 0.00834 0.65737 0.0
C1766 C 0.0111 0.05015 0.68298 0.0
C1767 C 0.97077 0.97008 0.64453 0.0
H1768 H 0.07176 0.99195 0.62976 0.0
H1769 H 0.05409 0.96238 0.70445 0.0
H1770 H 0.00785 0.00683 0.61202 0.0
H1771 H 0.0233 0.03473 0.62433 0.0
H1772 H 0.04106 0.01282 0.60445 0.0
H1773 H 0.01444 0.9682 0.72424 0.0
H1774 H 1.00135 0.99927 0.71712 0.0
H1775 H 0.98774 0.97142 0.7027 0.0
H1776 H 0.96194 0.06562 0.68281 0.0
H1777 H 0.92772 0.99767 0.65168 0.0
H1778 H 0.02595 0.0512 0.66781 0.0
H1779 H 0.01972 0.04017 0.69959 0.0
H1780 H 1.00603 0.06992 0.68889 0.0
H1781 H 0.98555 0.96932 0.62926 0.0
H1782 H 0.95231 0.96323 0.63655 0.0
H1783 H 0.97681 0.95672 0.65985 0.0
C1784 C 0.51597 0.56138 0.82391 0.0
C1785 C 0.53121 0.57046 0.84405 0.0
C1786 C 0.50452 0.53708 0.8249 0.0
C1787 C 0.5084 0.52128 0.84655 0.0
C1788 C 0.52333 0.5305 0.86722 0.0
C1789 C 0.53447 0.55502 0.86577 0.0
C1790 C 0.48858 0.52815 0.80254 0.0
C1791 C 0.52803 0.51423 0.89058 0.0
C1792 C 0.46234 0.46517 0.85505 0.0
C1793 C 0.47611 0.44506 0.84376 0.0
C1794 C 0.47281 0.48996 0.85667 0.0
C1795 C 0.4977 0.49474 0.84691 0.0
C1796 C 0.51194 0.47434 0.83616 0.0
C1797 C 0.50097 0.44984 0.83468 0.0
C1798 C 0.45694 0.51118 0.86814 0.0
C1799 C 0.53859 0.47851 0.82571 0.0
H1800 H 0.51293 0.57338 0.80727 0.0
H1801 H 0.5463 0.56184 0.88136 0.0
H1802 H 0.49753 0.51106 0.79369 0.0
H1803 H 0.46923 0.52243 0.80921 0.0
H1804 H 0.48652 0.54314 0.78761 0.0
H1805 H 0.53904 0.52459 0.9055 0.0
H1806 H 0.50956 0.50784 0.89894 0.0
H1807 H 0.53881 0.49681 0.88506 0.0
H1808 H 0.44306 0.46172 0.86194 0.0
H1809 H 0.5119 0.43433 0.8263 0.0
H1810 H 0.45265 0.52567 0.85325 0.0
H1811 H 0.4678 0.52099 0.8835 0.0
H1812 H 0.43858 0.50407 0.87624 0.0
H1813 H 0.53788 0.49193 0.80928 0.0
H1814 H 0.54764 0.46042 0.81922 0.0
H1815 H 0.55094 0.48736 0.84052 0.0
C1816 C 0.32695 0.06236 0.01876 0.0
C1817 C 0.34679 0.0712 0.0345 0.0
C1818 C 0.32773 0.03784 0.00783 0.0
C1819 C 0.3488 0.02162 0.01287 0.0
C1820 C 0.36916 0.0306 0.02834 0.0
C1821 C 0.36797 0.05534 0.03887 0.0
C1822 C 0.30576 0.02915 0.99122 0.0
C1823 C 0.39187 0.01383 0.0343 0.0
C1824 C 0.33527 0.95045 1.00647 0.0
C1825 C 0.3453 0.945 0.98215 0.0
C1826 C 0.33698 0.9751 0.01698 0.0
C1827 C 0.34886 0.99492 1.00277 0.0
C1828 C 0.35955 0.98942 0.97844 0.0
C1829 C 0.35772 0.9645 0.96846 0.0
C1830 C 0.32557 0.98006 0.04309 0.0
C1831 C 0.3722 0.01005 0.96261 0.0
H1832 H 0.31073 0.07468 0.01495 0.0
H1833 H 0.38329 0.06203 0.05112 0.0
H1834 H 0.31302 0.02282 0.97229 0.0
H1835 H 0.29607 0.01251 1.0002 0.0
H1836 H 0.29138 0.04448 0.98822 0.0
H1837 H 0.40663 0.02402 0.04569 0.0
H1838 H 0.38544 0.99677 0.0452 0.0
H1839 H 0.40078 0.00686 0.01632 0.0
H1840 H 0.32597 0.93537 0.0173 0.0
H1841 H 0.36532 0.96047 0.94956 0.0
H1842 H 0.3095 0.9938 0.04141 0.0
H1843 H 0.34008 0.98886 0.05582 0.0
H1844 H 0.31829 0.96231 0.05227 0.0
H1845 H 0.35787 0.0248 0.95743 0.0
H1846 H 0.38083 1.00239 0.94474 0.0
H1847 H 0.38736 0.01971 0.97387 0.0
C1848 C 0.46682 0.18012 0.54394 0.0
C1849 C 0.44577 0.16739 0.53303 0.0
C1850 C 0.49103 0.17988 0.53219 0.0
C1851 C 0.49475 0.16573 0.5094 0.0
C1852 C 0.47403 0.15185 0.49885 0.0
C1853 C 0.44975 0.15318 0.5105 0.0
C1854 C 0.51247 0.19536 0.54386 0.0
C1855 C 0.47739 0.1359 0.475 0.0
C1856 C 0.54955 0.1863 0.46588 0.0
C1857 C 0.5696 0.1703 0.4739 0.0
C1858 C 0.52512 0.18486 0.4771 0.0
C1859 C 0.52014 0.16632 0.49622 0.0
C1860 C 0.53981 0.14926 0.50356 0.0
C1861 C 0.56434 0.15172 0.49268 0.0
C1862 C 0.50485 0.20377 0.46903 0.0
C1863 C 0.5351 0.12873 0.52335 0.0
H1864 H 0.46444 0.19054 0.56169 0.0
H1865 H 0.43381 0.1435 0.50151 0.0
H1866 H 0.52875 0.18271 0.54875 0.0
H1867 H 0.5196 0.20959 0.52978 0.0
H1868 H 0.50636 0.20565 0.56144 0.0
H1869 H 0.46013 0.12426 0.47065 0.0
H1870 H 0.48142 0.14851 0.4584 0.0
H1871 H 0.49401 0.12288 0.47715 0.0
H1872 H 0.55293 0.20026 0.45094 0.0
H1873 H 0.57951 0.13942 0.49949 0.0
H1874 H 0.49868 0.21527 0.4858 0.0
H1875 H 0.48773 0.19352 0.46183 0.0
H1876 H 0.51174 0.21701 0.45387 0.0
H1877 H 0.53193 0.13764 0.54235 0.0
H1878 H 0.55142 0.11523 0.52488 0.0
H1879 H 0.51757 0.11772 0.51857 0.0
C1880 C 0.64192 0.06099 0.98999 0.0
C1881 C 0.66458 0.07539 0.9911 0.0
C1882 C 0.6404 0.03649 1.00115 0.0
C1883 C 0.66196 0.02624 0.01396 0.0
C1884 C 0.68452 0.04117 0.016 0.0
C1885 C 0.68558 0.06544 1.0045 0.0
C1886 C 0.61605 0.02118 0.99836 0.0
C1887 C 0.70788 0.03117 0.02969 0.0
C1888 C 0.65641 0.9683 0.05829 0.0
C1889 C 0.66608 0.94869 0.04271 0.0
C1890 C 0.65429 0.99355 0.04905 0.0
C1891 C 0.66179 0.99927 0.02357 0.0
C1892 C 0.67062 0.9793 0.00752 0.0
C1893 C 0.67272 0.95436 0.01728 0.0
C1894 C 0.6449 0.01428 0.06682 0.0
C1895 C 0.67856 0.98437 0.98018 0.0
H1896 H 0.62567 0.06848 0.97956 0.0
H1897 H 0.70302 0.07662 1.00582 0.0
H1898 H 0.61971 1.00424 0.9861 0.0
H1899 H 0.60958 0.01401 0.01728 0.0
H1900 H 0.60038 0.03256 0.98967 0.0
H1901 H 0.72323 0.04581 0.0312 0.0
H1902 H 0.70266 0.02468 0.04924 0.0
H1903 H 0.71562 0.01438 0.01928 0.0
H1904 H 0.65137 0.9641 0.07798 0.0
H1905 H 0.67982 0.93923 1.005 0.0
H1906 H 0.62907 0.0251 0.05779 0.0
H1907 H 0.66062 0.02807 0.07056 0.0
H1908 H 0.63809 1.00649 0.08542 0.0
H1909 H 0.66293 0.99421 0.96976 0.0
H1910 H 0.68351 0.96653 0.96974 0.0
H1911 H 0.69546 0.99725 0.97985 0.0
C1912 C 0.44887 0.8615 0.49752 0.0
C1913 C 0.44481 0.84482 0.47678 0.0
C1914 C 0.47299 0.86359 0.50925 0.0
C1915 C 0.49347 0.84806 0.50067 0.0
C1916 C 0.48967 0.83143 0.47964 0.0
C1917 C 0.46562 0.83035 0.46772 0.0
C1918 C 0.47643 0.88209 0.53116 0.0
C1919 C 0.51084 0.8142 0.47014 0.0
C1920 C 0.56302 0.86246 0.51722 0.0
C1921 C 0.56729 0.84606 0.53812 0.0
C1922 C 0.53886 0.86407 0.5055 0.0
C1923 C 0.51858 0.84834 0.51427 0.0
C1924 C 0.52257 0.83204 0.53551 0.0
C1925 C 0.54664 0.83145 0.54741 0.0
C1926 C 0.53521 0.88225 0.48336 0.0
C1927 C 0.5016 0.81462 0.54524 0.0
H1928 H 0.43309 0.87255 0.50512 0.0
H1929 H 0.46315 0.81791 0.45135 0.0
H1930 H 0.47977 0.87138 0.54915 0.0
H1931 H 0.49347 0.89434 0.52778 0.0
H1932 H 0.45946 0.89459 0.53388 0.0
H1933 H 0.50478 0.80223 0.45366 0.0
H1934 H 0.52765 0.82578 0.46425 0.0
H1935 H 0.51717 0.80138 0.48582 0.0
H1936 H 0.57868 0.87363 0.50947 0.0
H1937 H 0.54927 0.81923 0.56392 0.0
H1938 H 0.51799 0.89426 0.48657 0.0
H1939 H 0.53203 0.87126 0.4655 0.0
H1940 H 0.55201 0.89499 0.48051 0.0
H1941 H 0.48464 0.82602 0.55095 0.0
H1942 H 0.50779 0.803 0.5619 0.0
H1943 H 0.49546 0.80148 0.52975 0.0
C1944 C 0.09947 0.27099 0.24274 0.0
C1945 C 0.09746 0.26997 0.21605 0.0
C1946 C 0.10783 0.24973 0.25673 0.0
C1947 C 0.1148 0.22707 0.24364 0.0
C1948 C 0.11223 0.22573 0.2167 0.0
C1949 C 0.10336 0.24719 0.2032 0.0
C1950 C 0.11001 0.25184 0.28547 0.0
C1951 C 0.11991 0.20207 0.20203 0.0
C1952 C 0.16388 0.18726 0.27887 0.0
C1953 C 0.14859 0.16826 0.29006 0.0
C1954 C 0.15325 0.20584 0.26278 0.0
C1955 C 0.12657 0.20564 0.25812 0.0
C1956 C 0.11112 0.18603 0.26878 0.0
C1957 C 0.1224 0.16739 0.28449 0.0
C1958 C 0.17049 0.22609 0.25136 0.0
C1959 C 0.0826 0.18532 0.26437 0.0
H1960 H 0.09475 0.28856 0.25271 0.0
H1961 H 0.10201 0.24646 0.18252 0.0
H1962 H 0.09996 0.23562 0.29483 0.0
H1963 H 0.13043 0.25081 0.29113 0.0
H1964 H 0.10188 0.27002 0.29289 0.0
H1965 H 0.11447 0.2032 0.18152 0.0
H1966 H 0.14095 0.19952 0.20321 0.0
H1967 H 0.11092 0.18482 0.21056 0.0
H1968 H 0.18424 0.18757 0.28275 0.0
H1969 H 0.11065 0.15265 0.29318 0.0
H1970 H 0.16546 0.24508 0.2594 0.0
H1971 H 0.1677 0.22715 0.23035 0.0
H1972 H 0.19104 0.22236 0.25525 0.0
H1973 H 0.0736 0.20236 0.27327 0.0
H1974 H 0.07358 0.16788 0.27257 0.0
H1975 H 0.07839 0.18607 0.24359 0.0
C1976 C 0.77636 0.40599 0.276 0.0
C1977 C 0.77415 0.42212 0.29731 0.0
C1978 C 0.75471 0.39831 0.2622 0.0
C1979 C 0.73026 0.40738 0.26957 0.0
C1980 C 0.7279 0.42388 0.29094 0.0
C1981 C 0.7499 0.43086 0.30476 0.0
C1982 C 0.75801 0.38034 0.23979 0.0
C1983 C 0.70221 0.4343 0.29907 0.0
C1984 C 0.68126 0.40499 0.21623 0.0
C1985 C 0.66772 0.38262 0.22219 0.0
C1986 C 0.70082 0.41398 0.23223 0.0
C1987 C 0.70737 0.39989 0.2544 0.0
C1988 C 0.6933 0.3776 0.26085 0.0
C1989 C 0.67342 0.36937 0.24476 0.0
C1990 C 0.71497 0.43813 0.22497 0.0
C1991 C 0.69999 0.36177 0.28405 0.0
H1992 H 0.79503 0.39893 0.27034 0.0
H1993 H 0.74814 0.44332 0.32124 0.0
H1994 H 0.74602 0.36302 0.24259 0.0
H1995 H 0.75147 0.38975 0.22195 0.0
H1996 H 0.77822 0.37429 0.23715 0.0
H1997 H 0.70364 0.44704 0.31601 0.0
H1998 H 0.69353 0.4452 0.28307 0.0
H1999 H 0.68898 0.41833 0.3037 0.0
H2000 H 0.67655 0.41538 0.19894 0.0
H2001 H 0.66303 0.35197 0.24923 0.0
H2002 H 0.73501 0.43342 0.21973 0.0
H2003 H 0.71569 0.45144 0.24149 0.0
H2004 H 0.70594 0.44811 0.20855 0.0
H2005 H 0.71932 0.35336 0.2815 0.0
H2006 H 0.68609 0.34599 0.28735 0.0
H2007 H 0.70065 0.37397 0.30139 0.0
C2008 C 0.85641 0.82716 0.27966 0.0
C2009 C 0.87038 0.84672 0.29152 0.0
C2010 C 0.86855 0.80892 0.2642 0.0
C2011 C 0.89543 0.81003 0.2608 0.0
C2012 C 0.90961 0.83007 0.2723 0.0
C2013 C 0.89684 0.84834 0.28738 0.0
C2014 C 0.85263 0.78816 0.2519 0.0
C2015 C 0.9383 0.83174 0.2693 0.0
C2016 C 0.92411 0.74545 0.24487 0.0
C2017 C 0.92643 0.74686 0.21819 0.0
C2018 C 0.91547 0.76646 0.25913 0.0
C2019 C 0.90857 0.7893 0.24635 0.0
C2020 C 0.91196 0.79121 0.21951 0.0
C2021 C 0.92104 0.76997 0.20574 0.0
C2022 C 0.91249 0.76375 0.28776 0.0
C2023 C 0.90455 0.81512 0.20515 0.0
H2024 H 0.83587 0.82621 0.28242 0.0
H2025 H 0.90761 0.86346 0.29661 0.0
H2026 H 0.85625 0.78762 0.23097 0.0
H2027 H 0.85816 0.76926 0.25976 0.0
H2028 H 0.83179 0.79094 0.25516 0.0
H2029 H 0.94631 0.84929 0.27822 0.0
H2030 H 0.94735 0.81481 0.27832 0.0
H2031 H 0.94362 0.8315 0.24874 0.0
H2032 H 0.92843 0.72765 0.25457 0.0
H2033 H 0.92267 0.77108 0.18508 0.0
H2034 H 0.89186 0.76366 0.29284 0.0
H2035 H 0.92142 0.78024 0.29769 0.0
H2036 H 0.92124 0.74583 0.29506 0.0
H2037 H 0.88343 0.81725 0.2055 0.0
H2038 H 0.91099 0.81461 0.18487 0.0
H2039 H 0.9128 0.8323 0.21448 0.0
C2040 C 0.34583 0.6448 0.2421 0.0
C2041 C 0.34706 0.63646 0.21667 0.0
C2042 C 0.32668 0.63564 0.25872 0.0
C2043 C 0.3089 0.61719 0.24979 0.0
C2044 C 0.31103 0.60779 0.22444 0.0
C2045 C 0.32982 0.61788 0.20807 0.0
C2046 C 0.32466 0.64674 0.28532 0.0
C2047 C 0.2929 0.5877 0.21432 0.0
C2048 C 0.26685 0.58117 0.29753 0.0
C2049 C 0.24339 0.59372 0.29444 0.0
C2050 C 0.28846 0.58854 0.28313 0.0
C2051 C 0.28665 0.60945 0.26595 0.0
C2052 C 0.26311 0.62259 0.26342 0.0
C2053 C 0.2417 0.61431 0.27738 0.0
C2054 C 0.31302 0.57365 0.28586 0.0
C2055 C 0.26048 0.64541 0.24588 0.0
H2056 H 0.35907 0.65941 0.24855 0.0
H2057 H 0.331 0.61146 0.18838 0.0
H2058 H 0.30662 0.6578 0.28705 0.0
H2059 H 0.32388 0.63124 0.29978 0.0
H2060 H 0.34096 0.65961 0.28989 0.0
H2061 H 0.29893 0.58035 0.19529 0.0
H2062 H 0.29162 0.57139 0.22786 0.0
H2063 H 0.27342 0.59591 0.21251 0.0
H2064 H 0.26814 0.56525 0.31075 0.0
H2065 H 0.22366 0.62432 0.27529 0.0
H2066 H 0.32883 0.5866 0.29157 0.0
H2067 H 0.31837 0.56515 0.26714 0.0
H2068 H 0.31138 0.55807 0.30022 0.0
H2069 H 0.27532 0.65991 0.25046 0.0
H2070 H 0.24135 0.65454 0.24742 0.0
H2071 H 0.26353 0.63943 0.22574 0.0
C2072 C 0.08486 0.76571 0.80323 0.0
C2073 C 0.09262 0.74131 0.79529 0.0
C2074 C 0.09183 0.7876 0.7892 0.0
C2075 C 0.10728 0.78496 0.76704 0.0
C2076 C 0.11528 0.76035 0.7591 0.0
C2077 C 0.10766 0.73883 0.77318 0.0
C2078 C 0.0826 0.81351 0.79799 0.0
C2079 C 0.13207 0.75674 0.7358 0.0
C2080 C 0.10902 0.83468 0.71425 0.0
C2081 C 0.13213 0.8473 0.71927 0.0
C2082 C 0.10008 0.81516 0.73038 0.0
C2083 C 0.1149 0.80776 0.75177 0.0
C2084 C 0.13797 0.8209 0.75731 0.0
C2085 C 0.14619 0.84071 0.74108 0.0
C2086 C 0.07514 0.80197 0.7241 0.0
C2087 C 0.15454 0.81331 0.77968 0.0
H2088 H 0.07324 0.76769 0.82033 0.0
H2089 H 0.11395 0.72003 0.76711 0.0
H2090 H 0.09919 0.8261 0.8021 0.0
H2091 H 0.0714 0.82277 0.78255 0.0
H2092 H 0.07046 0.81227 0.81543 0.0
H2093 H 0.13722 0.73637 0.73262 0.0
H2094 H 0.12212 0.76392 0.71851 0.0
H2095 H 0.14996 0.768 0.73789 0.0
H2096 H 0.09798 0.84007 0.69758 0.0
H2097 H 0.16415 0.85037 0.74484 0.0
H2098 H 0.0625 0.80152 0.7412 0.0
H2099 H 0.0789 0.78185 0.7185 0.0
H2100 H 0.0648 0.81154 0.70822 0.0
H2101 H 0.14308 0.81291 0.79757 0.0
H2102 H 0.17099 0.82653 0.78236 0.0
H2103 H 0.16206 0.79371 0.77659 0.0
C2104 C 0.32509 0.36105 0.78067 0.0
C2105 C 0.3443 0.37643 0.79123 0.0
C2106 C 0.30655 0.37138 0.76436 0.0
C2107 C 0.30686 0.39793 0.75898 0.0
C2108 C 0.32671 0.41346 0.76905 0.0
C2109 C 0.34544 0.4024 0.78488 0.0
C2110 C 0.28615 0.35398 0.75355 0.0
C2111 C 0.3275 0.44186 0.76402 0.0
C2112 C 0.26497 0.41877 0.70338 0.0
C2113 C 0.24188 0.42427 0.71595 0.0
C2114 C 0.28671 0.41111 0.71719 0.0
C2115 C 0.28538 0.40939 0.74421 0.0
C2116 C 0.26248 0.4163 0.75703 0.0
C2117 C 0.24093 0.42338 0.74272 0.0
C2118 C 0.31057 0.40346 0.70276 0.0
C2119 C 0.26039 0.41515 0.78583 0.0
H2120 H 0.32452 0.34088 0.78547 0.0
H2121 H 0.36032 0.41418 0.79323 0.0
H2122 H 0.26724 0.35916 0.76173 0.0
H2123 H 0.28489 0.35638 0.7325 0.0
H2124 H 0.28991 0.33351 0.75782 0.0
H2125 H 0.34516 0.4509 0.77165 0.0
H2126 H 0.32634 0.44572 0.74319 0.0
H2127 H 0.31067 0.45109 0.77313 0.0
H2128 H 0.26573 0.41926 0.68265 0.0
H2129 H 0.22314 0.42778 0.7525 0.0
H2130 H 0.31339 0.3825 0.70448 0.0
H2131 H 0.32767 0.41286 0.71109 0.0
H2132 H 0.30946 0.40843 0.68212 0.0
H2133 H 0.26112 0.39492 0.79221 0.0
H2134 H 0.24229 0.42375 0.79296 0.0
H2135 H 0.27675 0.42527 0.79478 0.0
C2136 C 0.89488 0.27381 0.78349 0.0
C2137 C 0.91644 0.27249 0.79931 0.0
C2138 C 0.88687 0.25258 0.76924 0.0
C2139 C 0.90123 0.22967 0.77022 0.0
C2140 C 0.92307 0.22821 0.7862 0.0
C2141 C 0.9302 0.24959 0.80091 0.0
C2142 C 0.86306 0.25474 0.75305 0.0
C2143 C 0.93918 0.2043 0.78727 0.0
C2144 C 0.86761 0.16964 0.7466 0.0
C2145 C 0.87484 0.16944 0.72079 0.0
C2146 C 0.87654 0.1888 0.7632 0.0
C2147 C 0.89366 0.20767 0.7538 0.0
C2148 C 0.90189 0.20674 0.72796 0.0
C2149 C 0.892 0.18786 0.71165 0.0
C2150 C 0.86669 0.18958 0.79038 0.0
C2151 C 0.92053 0.22613 0.71733 0.0
H2152 H 0.88399 0.29142 0.78256 0.0
H2153 H 0.94689 0.24861 0.81316 0.0
H2154 H 0.86811 0.2526 0.73253 0.0
H2155 H 0.84946 0.23915 0.75792 0.0
H2156 H 0.85319 0.27337 0.75566 0.0
H2157 H 0.9554 0.20615 0.80085 0.0
H2158 H 0.92725 0.18772 0.7931 0.0
H2159 H 0.94695 0.20002 0.76796 0.0
H2160 H 0.85406 0.15548 0.75345 0.0
H2161 H 0.89755 0.18746 0.69165 0.0
H2162 H 0.85518 0.20717 0.79329 0.0
H2163 H 0.88287 0.19036 0.80404 0.0
H2164 H 0.85456 0.17274 0.79507 0.0
H2165 H 0.91135 0.24524 0.71669 0.0
H2166 H 0.92705 0.22114 0.6977 0.0
H2167 H 0.93752 0.2277 0.72994 0.0
C2168 C 0.66538 0.61752 0.78733 0.0
C2169 C 0.66812 0.64348 0.79344 0.0
C2170 C 0.68362 0.60497 0.77201 0.0
C2171 C 0.70482 0.61887 0.76228 0.0
C2172 C 0.70715 0.64531 0.76772 0.0
C2173 C 0.68888 0.65722 0.78337 0.0
C2174 C 0.68063 0.57673 0.76683 0.0
C2175 C 0.72917 0.66097 0.75733 0.0
C2176 C 0.76844 0.58832 0.74558 0.0
C2177 C 0.7676 0.58807 0.71879 0.0
C2178 C 0.74745 0.59681 0.76003 0.0
C2179 C 0.7253 0.60582 0.74734 0.0
C2180 C 0.72396 0.60462 0.7203 0.0
C2181 C 0.74508 0.5955 0.70633 0.0
C2182 C 0.74948 0.59733 0.78884 0.0
C2183 C 0.70089 0.61445 0.70603 0.0
H2184 H 0.64935 0.60691 0.7952 0.0
H2185 H 0.69075 0.6774 0.78765 0.0
H2186 H 0.68113 0.57301 0.74594 0.0
H2187 H 0.69688 0.56616 0.77545 0.0
H2188 H 0.66247 0.56895 0.77477 0.0
H2189 H 0.72739 0.68159 0.76216 0.0
H2190 H 0.74748 0.65378 0.76526 0.0
H2191 H 0.73026 0.65902 0.73622 0.0
H2192 H 0.7858 0.58244 0.75525 0.0
H2193 H 0.74447 0.59555 0.68559 0.0
H2194 H 0.73221 0.58862 0.79768 0.0
H2195 H 0.75057 0.61745 0.79553 0.0
H2196 H 0.76667 0.587 0.79581 0.0
H2197 H 0.68303 0.60639 0.71426 0.0
H2198 H 0.70168 0.60971 0.68532 0.0
H2199 H 0.69983 0.63555 0.70806 0.0
C2200 C 0.20757 0.09495 0.24617 0.0
C2201 C 0.21963 0.08748 0.26889 0.0
C2202 C 0.22194 0.1041 0.2253 0.0
C2203 C 0.24897 0.10534 0.22714 0.0
C2204 C 0.26123 0.09642 0.24956 0.0
C2205 C 0.2464 0.08786 0.27026 0.0
C2206 C 0.20812 0.11381 0.20191 0.0
C2207 C 0.29001 0.09702 0.25215 0.0
C2208 C 0.29072 0.11615 0.16829 0.0
C2209 C 0.29722 0.142 0.17111 0.0
C2210 C 0.27458 0.10395 0.18609 0.0
C2211 C 0.26437 0.11815 0.20683 0.0
C2212 C 0.2701 0.14453 0.20909 0.0
C2213 C 0.28664 0.15606 0.19135 0.0
C2214 C 0.26916 0.07574 0.18323 0.0
C2215 C 0.25918 0.16051 0.23058 0.0
H2216 H 0.18684 0.09487 0.24516 0.0
H2217 H 0.25576 0.08194 0.28777 0.0
H2218 H 0.2102 0.13491 0.20075 0.0
H2219 H 0.21668 0.10567 0.18426 0.0
H2220 H 0.18739 0.10907 0.20235 0.0
H2221 H 0.29665 0.08696 0.26964 0.0
H2222 H 0.29918 0.08806 0.23521 0.0
H2223 H 0.29669 0.11716 0.25303 0.0
H2224 H 0.29897 0.10535 0.15262 0.0
H2225 H 0.29129 0.17617 0.19321 0.0
H2226 H 0.24823 0.07218 0.18343 0.0
H2227 H 0.27744 0.06521 0.19968 0.0
H2228 H 0.27733 0.06779 0.16526 0.0
H2229 H 0.23803 0.15855 0.23121 0.0
H2230 H 0.26406 0.18111 0.22856 0.0
H2231 H 0.26667 0.15362 0.24919 0.0
C2232 C 0.66358 0.24565 0.33034 0.0
C2233 C 0.64931 0.23196 0.34849 0.0
C2234 C 0.65154 0.26123 0.31218 0.0
C2235 C 0.62449 0.26284 0.31191 0.0
C2236 C 0.61 0.24981 0.33083 0.0
C2237 C 0.62265 0.23465 0.34907 0.0
C2238 C 0.66776 0.2752 0.29268 0.0
C2239 C 0.58114 0.25096 0.33109 0.0
C2240 C 0.59661 0.31559 0.27028 0.0
C2241 C 0.59315 0.30261 0.24707 0.0
C2242 C 0.60594 0.30273 0.29197 0.0
C2243 C 0.61157 0.27627 0.2904 0.0
C2244 C 0.60683 0.26289 0.26733 0.0
C2245 C 0.59788 0.27627 0.24591 0.0
C2246 C 0.61103 0.31772 0.31611 0.0
C2247 C 0.61228 0.23463 0.2649 0.0
H2248 H 0.68425 0.24398 0.33024 0.0
H2249 H 0.61166 0.22403 0.36313 0.0
H2250 H 0.66432 0.26704 0.27339 0.0
H2251 H 0.66239 0.2957 0.29196 0.0
H2252 H 0.68853 0.27379 0.29694 0.0
H2253 H 0.57284 0.24172 0.34837 0.0
H2254 H 0.57457 0.27111 0.33029 0.0
H2255 H 0.57354 0.24114 0.31388 0.0
H2256 H 0.59312 0.336 0.27118 0.0
H2257 H 0.59504 0.26613 0.22804 0.0
H2258 H 0.63199 0.31934 0.31909 0.0
H2259 H 0.60294 0.30767 0.33299 0.0
H2260 H 0.60285 0.3373 0.31525 0.0
H2261 H 0.63319 0.23128 0.2663 0.0
H2262 H 0.60544 0.22665 0.24643 0.0
H2263 H 0.60299 0.22395 0.28076 0.0
C2264 C 0.77069 0.92608 0.26819 0.0
C2265 C 0.79746 0.92746 0.26748 0.0
C2266 C 0.75676 0.91776 0.24683 0.0
C2267 C 0.76997 0.91014 0.2244 0.0
C2268 C 0.79697 0.91243 0.22324 0.0
C2269 C 0.8104 0.92129 0.24477 0.0
C2270 C 0.72797 0.916 0.24872 0.0
C2271 C 0.81179 0.90412 0.19985 0.0
C2272 C 0.73529 0.85907 0.18644 0.0
C2273 C 0.72453 0.87328 0.16647 0.0
C2274 C 0.75101 0.8707 0.20475 0.0
C2275 C 0.75568 0.89735 0.20335 0.0
C2276 C 0.74541 0.91171 0.18279 0.0
C2277 C 0.73013 0.89939 0.16438 0.0
C2278 C 0.76205 0.85454 0.22598 0.0
C2279 C 0.74973 0.94018 0.18083 0.0
H2280 H 0.76062 0.931 0.28568 0.0
H2281 H 0.83113 0.92218 0.24421 0.0
H2282 H 0.71894 0.92514 0.23185 0.0
H2283 H 0.72205 0.89561 0.24884 0.0
H2284 H 0.72046 0.92524 0.26635 0.0
H2285 H 0.8323 0.90969 0.20091 0.0
H2286 H 0.81063 0.88301 0.19793 0.0
H2287 H 0.80338 0.91252 0.1823 0.0
H2288 H 0.73126 0.83877 0.18773 0.0
H2289 H 0.7217 0.9103 0.14893 0.0
H2290 H 0.75366 0.86044 0.24459 0.0
H2291 H 0.78304 0.85747 0.22723 0.0
H2292 H 0.75822 0.83382 0.22317 0.0
H2293 H 0.74034 0.94989 0.19723 0.0
H2294 H 0.74194 0.94825 0.16279 0.0
H2295 H 0.77046 0.94463 0.18187 0.0
C2296 C 0.41503 0.70476 0.26267 0.0
C2297 C 0.41865 0.71779 0.23948 0.0
C2298 C 0.40611 0.71762 0.28455 0.0
C2299 C 0.40113 0.74421 0.28328 0.0
C2300 C 0.40566 0.75759 0.26012 0.0
C2301 C 0.41411 0.74416 0.23843 0.0
C2302 C 0.40099 0.70256 0.30868 0.0
C2303 C 0.4009 0.78599 0.25803 0.0
C2304 C 0.3516 0.77543 0.32621 0.0
C2305 C 0.36693 0.78794 0.34428 0.0
C2306 C 0.36247 0.76022 0.30697 0.0
C2307 C 0.38942 0.75783 0.30545 0.0
C2308 C 0.40498 0.76974 0.32419 0.0
C2309 C 0.39349 0.7845 0.34359 0.0
C2310 C 0.34511 0.74737 0.28778 0.0
C2311 C 0.43378 0.76779 0.32312 0.0
H2312 H 0.4183 0.6843 0.26348 0.0
H2313 H 0.41701 0.7543 0.22056 0.0
H2314 H 0.41041 0.7118 0.32529 0.0
H2315 H 0.38012 0.70227 0.31265 0.0
H2316 H 0.40783 0.6825 0.30721 0.0
H2317 H 0.40727 0.79388 0.23933 0.0
H2318 H 0.38016 0.78992 0.26035 0.0
H2319 H 0.41105 0.7963 0.27355 0.0
H2320 H 0.33101 0.77778 0.32706 0.0
H2321 H 0.40526 0.79426 0.35757 0.0
H2322 H 0.34968 0.7267 0.28637 0.0
H2323 H 0.34823 0.75585 0.26856 0.0
H2324 H 0.32455 0.74943 0.29287 0.0
H2325 H 0.43972 0.74746 0.32199 0.0
H2326 H 0.44305 0.77671 0.34002 0.0
H2327 H 0.44096 0.77742 0.30559 0.0
C2328 C 0.26879 0.86717 0.84266 0.0
C2329 C 0.29093 0.8812 0.84844 0.0
C2330 C 0.25228 0.87498 0.82298 0.0
C2331 C 0.25793 0.89753 0.809 0.0
C2332 C 0.27967 0.91233 0.81553 0.0
C2333 C 0.29598 0.90389 0.83505 0.0
C2334 C 0.22945 0.85851 0.81642 0.0
C2335 C 0.28617 0.93666 0.80135 0.0
C2336 C 0.23605 0.90326 0.74011 0.0
C2337 C 0.2147 0.91934 0.74231 0.0
C2338 C 0.2499 0.89565 0.76173 0.0
C2339 C 0.24244 0.90459 0.7862 0.0
C2340 C 0.22088 0.92082 0.78861 0.0
C2341 C 0.20714 0.9279 0.7666 0.0
C2342 C 0.27262 0.87812 0.75834 0.0
C2343 C 0.21253 0.93092 0.81436 0.0
H2344 H 0.26494 0.84954 0.85288 0.0
H2345 H 0.31283 0.91499 0.83978 0.0
H2346 H 0.2118 0.87025 0.81577 0.0
H2347 H 0.23214 0.85007 0.79712 0.0
H2348 H 0.22658 0.84273 0.83038 0.0
H2349 H 0.30248 0.94705 0.81017 0.0
H2350 H 0.29124 0.9321 0.78123 0.0
H2351 H 0.26934 0.94957 0.80089 0.0
H2352 H 0.24188 0.89638 0.72142 0.0
H2353 H 0.19061 0.94029 0.76841 0.0
H2354 H 0.27019 0.86076 0.77033 0.0
H2355 H 0.29031 0.8879 0.76481 0.0
H2356 H 0.2753 0.8721 0.73813 0.0
H2357 H 0.20859 0.9148 0.8276 0.0
H2358 H 0.19511 0.943 0.81305 0.0
H2359 H 0.22816 0.94245 0.82292 0.0
C2360 C 0.39323 0.27971 0.77372 0.0
C2361 C 0.41494 0.2954 0.77228 0.0
C2362 C 0.38527 0.26524 0.75259 0.0
C2363 C 0.39986 0.26583 0.72972 0.0
C2364 C 0.42191 0.28159 0.7282 0.0
C2365 C 0.42895 0.29657 0.74942 0.0
C2366 C 0.36123 0.24929 0.75479 0.0
C2367 C 0.43833 0.28219 0.70441 0.0
C2368 C 0.39072 0.20699 0.68819 0.0
C2369 C 0.37417 0.21615 0.66934 0.0
C2370 C 0.4003 0.22333 0.7072 0.0
C2371 C 0.39235 0.24923 0.70783 0.0
C2372 C 0.37579 0.25862 0.68854 0.0
C2373 C 0.3672 0.24199 0.66926 0.0
C2374 C 0.41842 0.21271 0.72699 0.0
C2375 C 0.36622 0.28584 0.68894 0.0
H2376 H 0.38217 0.27909 0.7913 0.0
H2377 H 0.44578 0.30869 0.74837 0.0
H2378 H 0.34789 0.25405 0.739 0.0
H2379 H 0.36603 0.22871 0.75299 0.0
H2380 H 0.35117 0.25227 0.77331 0.0
H2381 H 0.45479 0.29553 0.70626 0.0
H2382 H 0.44578 0.26273 0.70037 0.0
H2383 H 0.42672 0.28804 0.68767 0.0
H2384 H 0.39605 0.18697 0.68802 0.0
H2385 H 0.35411 0.24883 0.65473 0.0
H2386 H 0.4089 0.2124 0.74598 0.0
H2387 H 0.43557 0.22515 0.72864 0.0
H2388 H 0.42473 0.19298 0.72229 0.0
H2389 H 0.35454 0.28901 0.70643 0.0
H2390 H 0.35434 0.29043 0.67195 0.0
H2391 H 0.38254 0.2994 0.68969 0.0
C2392 C 0.79859 0.08336 0.76856 0.0
C2393 C 0.79585 0.09644 0.74533 0.0
C2394 C 0.78355 0.08992 0.78994 0.0
C2395 C 0.76599 0.11049 0.78814 0.0
C2396 C 0.76391 0.12428 0.76492 0.0
C2397 C 0.77859 0.11684 0.74372 0.0
C2398 C 0.78587 0.07443 0.81418 0.0
C2399 C 0.74597 0.14677 0.76236 0.0
C2400 C 0.70653 0.11607 0.82957 0.0
C2401 C 0.71412 0.13435 0.84755 0.0
C2402 C 0.72376 0.10699 0.81104 0.0
C2403 C 0.74891 0.11713 0.81 0.0
C2404 C 0.7568 0.1353 0.82852 0.0
C2405 C 0.73935 0.14344 0.84732 0.0
C2406 C 0.71475 0.08721 0.79202 0.0
C2407 C 0.78317 0.14714 0.82765 0.0
H2408 H 0.81192 0.06753 0.76976 0.0
H2409 H 0.77672 0.1272 0.72585 0.0
H2410 H 0.7904 0.0871 0.83058 0.0
H2411 H 0.7673 0.06501 0.81849 0.0
H2412 H 0.8009 0.05948 0.81272 0.0
H2413 H 0.74798 0.15656 0.74359 0.0
H2414 H 0.72587 0.14021 0.76446 0.0
H2415 H 0.74965 0.16087 0.77779 0.0
H2416 H 0.687 0.10907 0.82995 0.0
H2417 H 0.745 0.15785 0.86112 0.0
H2418 H 0.72871 0.07127 0.7908 0.0
H2419 H 0.71344 0.09594 0.77273 0.0
H2420 H 0.69569 0.07924 0.79717 0.0
H2421 H 0.79804 0.13204 0.82704 0.0
H2422 H 0.78686 0.15972 0.84438 0.0
H2423 H 0.78524 0.15868 0.80994 0.0
C2424 C 0.59401 0.70664 0.74806 0.0
C2425 C 0.58909 0.71899 0.77139 0.0
C2426 C 0.60329 0.72035 0.72681 0.0
C2427 C 0.60732 0.74708 0.72884 0.0
C2428 C 0.60116 0.75977 0.752 0.0
C2429 C 0.59235 0.74554 0.77305 0.0
C2430 C 0.60999 0.70602 0.70263 0.0
C2431 C 0.60482 0.78828 0.75488 0.0
C2432 C 0.65873 0.77987 0.68914 0.0
C2433 C 0.64431 0.79191 0.67005 0.0
C2434 C 0.64698 0.76453 0.70781 0.0
C2435 C 0.62004 0.76148 0.70769 0.0
C2436 C 0.6054 0.77316 0.6881 0.0
C2437 C 0.61778 0.78805 0.66933 0.0
C2438 C 0.6634 0.75199 0.72797 0.0
C2439 C 0.57664 0.7706 0.68748 0.0
H2440 H 0.5917 0.68608 0.74674 0.0
H2441 H 0.58845 0.75519 0.791 0.0
H2442 H 0.60117 0.71537 0.68577 0.0
H2443 H 0.63104 0.70645 0.69972 0.0
H2444 H 0.60365 0.68575 0.70332 0.0
H2445 H 0.59684 0.79559 0.77319 0.0
H2446 H 0.62554 0.79294 0.75419 0.0
H2447 H 0.59553 0.79855 0.73882 0.0
H2448 H 0.6793 0.78247 0.68942 0.0
H2449 H 0.60667 0.79744 0.65459 0.0
H2450 H 0.65945 0.73114 0.7287 0.0
H2451 H 0.65865 0.75997 0.74707 0.0
H2452 H 0.68417 0.75488 0.72437 0.0
H2453 H 0.57104 0.75013 0.68777 0.0
H2454 H 0.56818 0.77975 0.67028 0.0
H2455 H 0.56828 0.77962 0.7048 0.0
C2456 C 0.25484 0.21763 0.08471 0.0
C2457 C 0.27848 0.22046 0.09698 0.0
C2458 C 0.23351 0.23216 0.09238 0.0
C2459 C 0.23577 0.24921 0.11335 0.0
C2460 C 0.25952 0.25164 0.12612 0.0
C2461 C 0.28066 0.23753 0.11752 0.0
C2462 C 0.20871 0.22956 0.07787 0.0
C2463 C 0.26258 0.26904 0.14898 0.0
C2464 C 0.19172 0.3062 0.12239 0.0
C2465 C 0.17444 0.29699 0.1407 0.0
C2466 C 0.21102 0.29043 0.11241 0.0
C2467 C 0.21361 0.2651 0.12168 0.0
C2468 C 0.19599 0.25564 0.14009 0.0
C2469 C 0.17634 0.27163 0.1491 0.0
C2470 C 0.22894 0.30103 0.09232 0.0
C2471 C 0.19852 0.22905 0.15104 0.0
H2472 H 0.25317 0.2044 0.06882 0.0
H2473 H 0.29884 0.23943 0.12731 0.0
H2474 H 0.19319 0.22327 0.09096 0.0
H2475 H 0.20304 0.24843 0.06999 0.0
H2476 H 0.21017 0.21566 0.06186 0.0
H2477 H 0.28194 0.26768 0.15761 0.0
H2478 H 0.25922 0.28918 0.14324 0.0
H2479 H 0.24814 0.26418 0.16382 0.0
H2480 H 0.18998 0.3258 0.11586 0.0
H2481 H 0.16302 0.26471 0.16346 0.0
H2482 H 0.22996 0.28785 0.0757 0.0
H2483 H 0.24854 0.30267 0.10027 0.0
H2484 H 0.22288 0.3202 0.08546 0.0
H2485 H 0.19871 0.21466 0.13546 0.0
H2486 H 0.18274 0.22431 0.16454 0.0
H2487 H 0.21699 0.22737 0.16135 0.0
C2488 C 0.27214 0.77098 0.91734 0.0
C2489 C 0.26984 0.79743 0.92088 0.0
C2490 C 0.25132 0.75628 0.90898 0.0
C2491 C 0.22777 0.76844 0.90345 0.0
C2492 C 0.22514 0.79509 0.90762 0.0
C2493 C 0.24619 0.80926 0.91657 0.0
C2494 C 0.25482 0.72786 0.90519 0.0
C2495 C 0.20053 0.80883 0.90146 0.0
C2496 C 0.1885 0.73345 0.85359 0.0
C2497 C 0.17039 0.72064 0.86871 0.0
C2498 C 0.2065 0.75001 0.86458 0.0
C2499 C 0.20674 0.75342 0.89146 0.0
C2500 C 0.18807 0.74101 0.90679 0.0
C2501 C 0.16989 0.72494 0.89516 0.0
C2502 C 0.22567 0.76335 0.84747 0.0
C2503 C 0.1879 0.74393 0.93552 0.0
H2504 H 0.29038 0.76178 0.92085 0.0
H2505 H 0.24446 0.82977 0.91912 0.0
H2506 H 0.23932 0.71716 0.91505 0.0
H2507 H 0.25363 0.7232 0.88452 0.0
H2508 H 0.27355 0.72104 0.91252 0.0
H2509 H 0.20077 0.82903 0.90804 0.0
H2510 H 0.19744 0.80862 0.88046 0.0
H2511 H 0.184 0.7989 0.91041 0.0
H2512 H 0.18851 0.73049 0.83306 0.0
H2513 H 0.15583 0.715 0.90677 0.0
H2514 H 0.24519 0.75609 0.85152 0.0
H2515 H 0.22575 0.78421 0.85138 0.0
H2516 H 0.22155 0.76032 0.82684 0.0
H2517 H 0.20564 0.73555 0.94357 0.0
H2518 H 0.17115 0.73435 0.94453 0.0
H2519 H 0.18769 0.76447 0.94084 0.0
C2520 C 0.3095 0.26261 0.59933 0.0
C2521 C 0.29709 0.23954 0.59351 0.0
C2522 C 0.29566 0.28378 0.60846 0.0
C2523 C 0.26875 0.28191 0.61137 0.0
C2524 C 0.25607 0.25895 0.60451 0.0
C2525 C 0.27043 0.23797 0.59591 0.0
C2526 C 0.30995 0.30771 0.61604 0.0
C2527 C 0.22738 0.25627 0.60703 0.0
C2528 C 0.23358 0.32156 0.66099 0.0
C2529 C 0.22218 0.34055 0.64592 0.0
C2530 C 0.24956 0.30298 0.65009 0.0
C2531 C 0.25395 0.30313 0.62334 0.0
C2532 C 0.24303 0.32267 0.60808 0.0
C2533 C 0.22742 0.34132 0.61963 0.0
C2534 C 0.26126 0.28284 0.66714 0.0
C2535 C 0.24711 0.32335 0.5795 0.0
H2536 H 0.33016 0.26379 0.59773 0.0
H2537 H 0.26077 0.22019 0.5913 0.0
H2538 H 0.30119 0.32476 0.60699 0.0
H2539 H 0.30861 0.31036 0.63707 0.0
H2540 H 0.3305 0.30689 0.6106 0.0
H2541 H 0.22026 0.23794 0.59895 0.0
H2542 H 0.22184 0.25717 0.62752 0.0
H2543 H 0.21766 0.2723 0.59714 0.0
H2544 H 0.22995 0.32127 0.68141 0.0
H2545 H 0.21855 0.35599 0.60801 0.0
H2546 H 0.28228 0.28206 0.66417 0.0
H2547 H 0.25343 0.26376 0.66211 0.0
H2548 H 0.25739 0.28646 0.68774 0.0
H2549 H 0.26787 0.32302 0.57497 0.0
H2550 H 0.23849 0.34057 0.57056 0.0
H2551 H 0.23847 0.30608 0.57069 0.0
C2552 C 0.82775 0.30019 0.9002 0.0
C2553 C 0.84092 0.2963 0.8771 0.0
C2554 C 0.80763 0.28399 0.90772 0.0
C2555 C 0.80032 0.26343 0.89168 0.0
C2556 C 0.81378 0.25912 0.8685 0.0
C2557 C 0.83397 0.27556 0.86153 0.0
C2558 C 0.794 0.28909 0.93272 0.0
C2559 C 0.80648 0.23751 0.85078 0.0
C2560 C 0.7597 0.2105 0.92134 0.0
C2561 C 0.73492 0.21806 0.91443 0.0
C2562 C 0.78123 0.22484 0.91378 0.0
C2563 C 0.7779 0.24717 0.89878 0.0
C2564 C 0.75294 0.25461 0.8914 0.0
C2565 C 0.73178 0.24005 0.89939 0.0
C2566 C 0.80751 0.21634 0.92215 0.0
C2567 C 0.74855 0.27816 0.87527 0.0
H2568 H 0.83331 0.31585 0.91256 0.0
H2569 H 0.84393 0.27256 0.84358 0.0
H2570 H 0.77361 0.29366 0.92903 0.0
H2571 H 0.79441 0.27174 0.94494 0.0
H2572 H 0.80269 0.30521 0.9435 0.0
H2573 H 0.81965 0.23594 0.83412 0.0
H2574 H 0.80652 0.21907 0.86127 0.0
H2575 H 0.78676 0.24054 0.84358 0.0
H2576 H 0.76228 0.19348 0.9329 0.0
H2577 H 0.71271 0.24593 0.8938 0.0
H2578 H 0.81638 0.23135 0.93426 0.0
H2579 H 0.82009 0.21369 0.90523 0.0
H2580 H 0.80693 0.19817 0.93317 0.0
H2581 H 0.75517 0.2954 0.88573 0.0
H2582 H 0.72807 0.28075 0.87025 0.0
H2583 H 0.75988 0.27695 0.85732 0.0
C2584 C 0.70509 0.74742 0.5928 0.0
C2585 C 0.71754 0.77076 0.58824 0.0
C2586 C 0.71867 0.72616 0.60201 0.0
C2587 C 0.74532 0.72829 0.60641 0.0
C2588 C 0.75818 0.75138 0.60037 0.0
C2589 C 0.74409 0.7724 0.59153 0.0
C2590 C 0.70423 0.70197 0.60845 0.0
C2591 C 0.78663 0.75433 0.60447 0.0
C2592 C 0.77658 0.6898 0.65919 0.0
C2593 C 0.78925 0.67063 0.64538 0.0
C2594 C 0.76152 0.70811 0.64676 0.0
C2595 C 0.75937 0.70747 0.61976 0.0
C2596 C 0.77166 0.6878 0.60572 0.0
C2597 C 0.78632 0.66944 0.61877 0.0
C2598 C 0.74835 0.72847 0.66251 0.0
C2599 C 0.76996 0.68663 0.57693 0.0
H2600 H 0.68452 0.74612 0.5904 0.0
H2601 H 0.75381 0.79037 0.58786 0.0
H2602 H 0.71409 0.68504 0.60029 0.0
H2603 H 0.70368 0.69945 0.62953 0.0
H2604 H 0.68424 0.70237 0.60126 0.0
H2605 H 0.79414 0.77248 0.5963 0.0
H2606 H 0.79081 0.75409 0.62528 0.0
H2607 H 0.79711 0.73811 0.59567 0.0
H2608 H 0.77843 0.69041 0.67983 0.0
H2609 H 0.79619 0.65464 0.60813 0.0
H2610 H 0.72759 0.72888 0.65809 0.0
H2611 H 0.75629 0.74755 0.65759 0.0
H2612 H 0.75072 0.72535 0.6834 0.0
H2613 H 0.74965 0.68682 0.57079 0.0
H2614 H 0.77934 0.66928 0.56899 0.0
H2615 H 0.77928 0.70378 0.56852 0.0
C2616 C 0.84671 0.7287 0.11766 0.0
C2617 C 0.84526 0.72503 0.14418 0.0
C2618 C 0.82838 0.74361 0.10483 0.0
C2619 C 0.80849 0.75544 0.119 0.0
C2620 C 0.80762 0.75257 0.14594 0.0
C2621 C 0.82588 0.73724 0.15814 0.0
C2622 C 0.82979 0.746 0.07608 0.0
C2623 C 0.78706 0.76525 0.16186 0.0
C2624 C 0.76837 0.80998 0.09258 0.0
C2625 C 0.74515 0.79748 0.0876 0.0
C2626 C 0.78962 0.79639 0.10183 0.0
C2627 C 0.78764 0.76965 0.1058 0.0
C2628 C 0.76467 0.75678 0.09937 0.0
C2629 C 0.74365 0.77089 0.09055 0.0
C2630 C 0.81365 0.81086 0.10876 0.0
C2631 C 0.76187 0.72825 0.10297 0.0
H2632 H 0.86168 0.71918 0.1069 0.0
H2633 H 0.82507 0.73481 0.17871 0.0
H2634 H 0.81276 0.73678 0.06738 0.0
H2635 H 0.82951 0.76644 0.07038 0.0
H2636 H 0.84727 0.73694 0.06805 0.0
H2637 H 0.79009 0.76248 0.18271 0.0
H2638 H 0.7865 0.78607 0.1578 0.0
H2639 H 0.76806 0.75725 0.15675 0.0
H2640 H 0.76956 0.83058 0.09048 0.0
H2641 H 0.72577 0.76113 0.08657 0.0
H2642 H 0.83074 0.80135 0.10049 0.0
H2643 H 0.81597 0.8109 0.12986 0.0
H2644 H 0.81313 0.831 0.102 0.0
H2645 H 0.77824 0.71807 0.09406 0.0
H2646 H 0.74381 0.7208 0.09458 0.0
H2647 H 0.76198 0.72365 0.12369 0.0
C2648 C 0.23355 0.68764 0.35768 0.0
C2649 C 0.22134 0.66843 0.37188 0.0
C2650 C 0.24913 0.70586 0.36962 0.0
C2651 C 0.2522 0.70514 0.39652 0.0
C2652 C 0.24043 0.68536 0.41091 0.0
C2653 C 0.22529 0.66703 0.39833 0.0
C2654 C 0.26181 0.72627 0.35347 0.0
C2655 C 0.24306 0.68414 0.43963 0.0
C2656 C 0.30712 0.74548 0.42169 0.0
C2657 C 0.29475 0.76878 0.42646 0.0
C2658 C 0.29335 0.7241 0.41301 0.0
C2659 C 0.26656 0.72604 0.40943 0.0
C2660 C 0.25382 0.7491 0.41571 0.0
C2661 C 0.26811 0.77027 0.42393 0.0
C2662 C 0.30768 0.69998 0.40619 0.0
C2663 C 0.22524 0.75184 0.41251 0.0
H2664 H 0.23083 0.68837 0.33715 0.0
H2665 H 0.21576 0.65213 0.4092 0.0
H2666 H 0.2539 0.7453 0.35852 0.0
H2667 H 0.28267 0.72686 0.35735 0.0
H2668 H 0.25892 0.72305 0.33266 0.0
H2669 H 0.23411 0.66666 0.44781 0.0
H2670 H 0.26355 0.68458 0.44512 0.0
H2671 H 0.23384 0.70115 0.44837 0.0
H2672 H 0.32776 0.74431 0.42349 0.0
H2673 H 0.25847 0.78822 0.42777 0.0
H2674 H 0.30769 0.69749 0.3851 0.0
H2675 H 0.29808 0.68299 0.41458 0.0
H2676 H 0.32784 0.7005 0.41286 0.0
H2677 H 0.2204 0.75158 0.39185 0.0
H2678 H 0.21792 0.76994 0.42091 0.0
H2679 H 0.21512 0.73554 0.42164 0.0
C2680 C 0.74921 0.24527 0.43002 0.0
C2681 C 0.7225 0.24697 0.43158 0.0
C2682 C 0.76394 0.26603 0.42147 0.0
C2683 C 0.75158 0.28886 0.41383 0.0
C2684 C 0.7247 0.29113 0.41662 0.0
C2685 C 0.71047 0.27016 0.42568 0.0
C2686 C 0.79259 0.26298 0.41918 0.0
C2687 C 0.71077 0.31501 0.40837 0.0
C2688 C 0.79315 0.34732 0.40072 0.0
C2689 C 0.79755 0.34487 0.37437 0.0
C2690 C 0.77789 0.32945 0.4139 0.0
C2691 C 0.76646 0.30902 0.40025 0.0
C2692 C 0.77019 0.30705 0.37347 0.0
C2693 C 0.78585 0.32487 0.36092 0.0
C2694 C 0.77456 0.33201 0.44248 0.0
C2695 C 0.75794 0.28587 0.35808 0.0
H2696 H 0.75857 0.22738 0.43471 0.0
H2697 H 0.68978 0.27146 0.42668 0.0
H2698 H 0.79807 0.26204 0.39867 0.0
H2699 H 0.80255 0.27971 0.42763 0.0
H2700 H 0.79951 0.24534 0.42878 0.0
H2701 H 0.69046 0.31499 0.41473 0.0
H2702 H 0.72034 0.33231 0.41606 0.0
H2703 H 0.71122 0.31643 0.38719 0.0
H2704 H 0.80226 0.36279 0.41107 0.0
H2705 H 0.78885 0.3233 0.34046 0.0
H2706 H 0.78319 0.31524 0.45217 0.0
H2707 H 0.75393 0.33221 0.44754 0.0
H2708 H 0.78364 0.34967 0.45006 0.0
H2709 H 0.76549 0.26709 0.3644 0.0
H2710 H 0.76159 0.28791 0.33722 0.0
H2711 H 0.73694 0.28564 0.36135 0.0
loop_
_geom_bond_atom_site_label_1
_geom_bond_atom_site_label_2
_geom_bond_distance
_geom_bond_site_symmetry_2
_ccdc_geom_bond_type
Co0 N4 2.148 . S
Co0 N10 2.128 . S
Co0 N20 2.194 . S
Co0 O25 2.351 . S
Co0 O26 2.155 . S
Co0 O27 2.096 . S
C1 N4 1.301 . S
C1 N5 1.328 . S
C1 H6 0.930 . S
C2 C3 1.333 . S
C2 N4 1.317 . S
C2 H7 0.930 . S
C3 C2 1.333 . S
C3 N5 1.350 . S
C3 H29 0.931 . S
N4 Co0 2.148 . S
N4 C1 1.301 . S
N4 C2 1.317 . S
N5 C1 1.328 . S
N5 C3 1.350 . S
H6 C1 0.930 . S
H7 C2 0.930 . S
C8 O9 1.224 . S
C8 O27 1.247 . S
O9 C8 1.224 . S
N10 Co0 2.128 . S
N10 C11 1.355 . S
N10 C13 1.311 . S
C11 N10 1.355 . S
C11 C12 1.333 1_455 S
C11 H23 0.929 . S
C12 C11 1.333 1_655 S
C12 N14 1.362 1_655 S
C12 H30 0.967 . S
C13 N10 1.311 . S
C13 N14 1.347 . S
C13 H24 0.929 . S
N14 C12 1.362 1_455 S
N14 C13 1.347 . S
C15 C18 1.365 . S
C15 N20 1.328 . S
C15 H21 0.929 . S
C16 C17 1.362 . S
C16 C19 1.378 . S
C16 H31 0.929 . S
C17 C16 1.362 . S
C17 C18 1.366 . S
C18 C15 1.365 . S
C18 C17 1.366 . S
C18 H32 0.930 . S
C19 C16 1.378 . S
C19 N20 1.315 . S
C19 H22 0.930 . S
N20 Co0 2.194 . S
N20 C15 1.328 . S
N20 C19 1.315 . S
H21 C15 0.929 . S
H22 C19 0.930 . S
H23 C11 0.929 . S
H24 C13 0.929 . S
O25 Co0 2.351 . S
O25 C28 1.244 . S
O26 Co0 2.155 . S
O26 C28 1.240 . S
O27 Co0 2.096 . S
O27 C8 1.247 . S
C28 O25 1.244 . S
C28 O26 1.240 . S
H29 C3 0.931 . S
H30 C12 0.967 . S
H31 C16 0.929 . S
H32 C18 0.930 . S
Co33 N37 2.148 . S
Co33 N43 2.128 . S
Co33 N53 2.194 . S
Co33 O58 2.351 . S
Co33 O59 2.155 . S
Co33 O60 2.096 . S
C34 N37 1.301 . S
C34 N38 1.328 . S
C34 H39 0.930 . S
C35 C36 1.333 . S
C35 N37 1.317 . S
C35 H40 0.930 . S
C36 C35 1.333 . S
C36 N38 1.350 . S
C36 H62 0.931 . S
N37 Co33 2.148 . S
N37 C34 1.301 . S
N37 C35 1.317 . S
N38 C34 1.328 . S
N38 C36 1.350 . S
H39 C34 0.930 . S
H40 C35 0.930 . S
C41 O42 1.224 . S
C41 O60 1.247 . S
O42 C41 1.224 . S
N43 Co33 2.128 . S
N43 C44 1.355 . S
N43 C46 1.311 . S
C44 N43 1.355 . S
C44 C45 1.363 . S
C44 H56 0.929 . S
C45 C44 1.363 . S
C45 N47 1.375 . S
C45 H63 0.931 . S
C46 N43 1.311 . S
C46 N47 1.347 . S
C46 H57 0.929 . S
N47 C45 1.375 . S
N47 C46 1.347 . S
C48 C51 1.365 . S
C48 N53 1.328 . S
C48 H54 0.929 . S
C49 C50 1.362 . S
C49 C52 1.378 . S
C49 H64 0.929 . S
C50 C49 1.362 . S
C50 C51 1.366 . S
C51 C48 1.365 . S
C51 C50 1.366 . S
C51 H65 0.930 . S
C52 C49 1.378 . S
C52 N53 1.315 . S
C52 H55 0.930 . S
N53 Co33 2.194 . S
N53 C48 1.328 . S
N53 C52 1.315 . S
H54 C48 0.929 . S
H55 C52 0.930 . S
H56 C44 0.929 . S
H57 C46 0.929 . S
O58 Co33 2.351 . S
O58 C61 1.244 . S
O59 Co33 2.155 . S
O59 C61 1.240 . S
O60 Co33 2.096 . S
O60 C41 1.247 . S
C61 O58 1.244 . S
C61 O59 1.240 . S
H62 C36 0.931 . S
H63 C45 0.931 . S
H64 C49 0.929 . S
H65 C51 0.930 . S
Co66 N70 2.148 . S
Co66 N76 2.128 . S
Co66 N86 2.194 . S
Co66 O91 2.351 . S
Co66 O92 2.155 . S
Co66 O93 2.096 . S
C67 N70 1.301 . S
C67 N71 1.328 . S
C67 H72 0.930 . S
C68 C69 1.333 . S
C68 N70 1.317 . S
C68 H73 0.930 . S
C69 C68 1.333 . S
C69 N71 1.350 . S
C69 H95 0.931 . S
N70 Co66 2.148 . S
N70 C67 1.301 . S
N70 C68 1.317 . S
N71 C67 1.328 . S
N71 C69 1.350 . S
H72 C67 0.930 . S
H73 C68 0.930 . S
C74 O75 1.224 . S
C74 O93 1.247 . S
O75 C74 1.224 . S
N76 Co66 2.128 . S
N76 C77 1.355 . S
N76 C79 1.311 . S
C77 N76 1.355 . S
C77 C78 1.333 1_655 S
C77 H89 0.929 . S
C78 C77 1.333 1_455 S
C78 N80 1.362 1_455 S
C78 H96 0.967 . S
C79 N76 1.311 . S
C79 N80 1.347 . S
C79 H90 0.929 . S
N80 C78 1.362 1_655 S
N80 C79 1.347 . S
C81 C84 1.365 . S
C81 N86 1.328 . S
C81 H87 0.929 . S
C82 C83 1.362 . S
C82 C85 1.378 . S
C82 H97 0.929 . S
C83 C82 1.362 . S
C83 C84 1.366 . S
C84 C81 1.365 . S
C84 C83 1.366 . S
C84 H98 0.930 . S
C85 C82 1.378 . S
C85 N86 1.315 . S
C85 H88 0.930 . S
N86 Co66 2.194 . S
N86 C81 1.328 . S
N86 C85 1.315 . S
H87 C81 0.929 . S
H88 C85 0.930 . S
H89 C77 0.929 . S
H90 C79 0.929 . S
O91 Co66 2.351 . S
O91 C94 1.244 . S
O92 Co66 2.155 . S
O92 C94 1.240 . S
O93 Co66 2.096 . S
O93 C74 1.247 . S
C94 O91 1.244 . S
C94 O92 1.240 . S
H95 C69 0.931 . S
H96 C78 0.967 . S
H97 C82 0.929 . S
H98 C84 0.930 . S
Co99 N103 2.148 . S
Co99 N109 2.128 . S
Co99 N119 2.194 . S
Co99 O124 2.351 . S
Co99 O125 2.155 . S
Co99 O126 2.096 . S
C100 N103 1.301 . S
C100 N104 1.328 . S
C100 H105 0.930 . S
C101 C102 1.333 . S
C101 N103 1.317 . S
C101 H106 0.930 . S
C102 C101 1.333 . S
C102 N104 1.350 . S
C102 H128 0.931 . S
N103 Co99 2.148 . S
N103 C100 1.301 . S
N103 C101 1.317 . S
N104 C100 1.328 . S
N104 C102 1.350 . S
H105 C100 0.930 . S
H106 C101 0.930 . S
C107 O108 1.224 . S
C107 O126 1.247 . S
O108 C107 1.224 . S
N109 Co99 2.128 . S
N109 C110 1.355 . S
N109 C112 1.311 . S
C110 N109 1.355 . S
C110 C111 1.363 . S
C110 H122 0.929 . S
C111 C110 1.363 . S
C111 N113 1.375 . S
C111 H129 0.931 . S
C112 N109 1.311 . S
C112 N113 1.347 . S
C112 H123 0.929 . S
N113 C111 1.375 . S
N113 C112 1.347 . S
C114 C117 1.365 . S
C114 N119 1.328 . S
C114 H120 0.929 . S
C115 C116 1.362 . S
C115 C118 1.378 . S
C115 H130 0.929 . S
C116 C115 1.362 . S
C116 C117 1.366 . S
C117 C114 1.365 . S
C117 C116 1.366 . S
C117 H131 0.930 . S
C118 C115 1.378 . S
C118 N119 1.315 . S
C118 H121 0.930 . S
N119 Co99 2.194 . S
N119 C114 1.328 . S
N119 C118 1.315 . S
H120 C114 0.929 . S
H121 C118 0.930 . S
H122 C110 0.929 . S
H123 C112 0.929 . S
O124 Co99 2.351 . S
O124 C127 1.244 . S
O125 Co99 2.155 . S
O125 C127 1.240 . S
O126 Co99 2.096 . S
O126 C107 1.247 . S
C127 O124 1.244 . S
C127 O125 1.240 . S
H128 C102 0.931 . S
H129 C111 0.931 . S
H130 C115 0.929 . S
H131 C117 0.930 . S
Co132 N136 2.148 . S
Co132 N142 2.128 . S
Co132 N152 2.194 . S
Co132 O157 2.351 . S
Co132 O158 2.155 . S
Co132 O159 2.096 . S
C133 N136 1.301 . S
C133 N137 1.328 . S
C133 H138 0.930 . S
C134 C135 1.333 . S
C134 N136 1.317 . S
C134 H139 0.930 . S
C135 C134 1.333 . S
C135 N137 1.350 . S
C135 H161 0.931 . S
N136 Co132 2.148 . S
N136 C133 1.301 . S
N136 C134 1.317 . S
N137 C133 1.328 . S
N137 C135 1.350 . S
H138 C133 0.930 . S
H139 C134 0.930 . S
C140 O141 1.224 . S
C140 O159 1.247 . S
O141 C140 1.224 . S
N142 Co132 2.128 . S
N142 C143 1.355 . S
N142 C145 1.311 . S
C143 N142 1.355 . S
C143 C144 1.333 1_455 S
C143 H155 0.929 . S
C144 C143 1.333 1_655 S
C144 N146 1.362 1_655 S
C144 H162 0.967 . S
C145 N142 1.311 . S
C145 N146 1.347 . S
C145 H156 0.929 . S
N146 C144 1.362 1_455 S
N146 C145 1.347 . S
C147 C150 1.365 . S
C147 N152 1.328 . S
C147 H153 0.929 . S
C148 C149 1.362 . S
C148 C151 1.378 . S
C148 H163 0.929 . S
C149 C148 1.362 . S
C149 C150 1.366 . S
C150 C147 1.365 . S
C150 C149 1.366 . S
C150 H164 0.930 . S
C151 C148 1.378 . S
C151 N152 1.315 . S
C151 H154 0.930 . S
N152 Co132 2.194 . S
N152 C147 1.328 . S
N152 C151 1.315 . S
H153 C147 0.929 . S
H154 C151 0.930 . S
H155 C143 0.929 . S
H156 C145 0.929 . S
O157 Co132 2.351 . S
O157 C160 1.244 . S
O158 Co132 2.155 . S
O158 C160 1.240 . S
O159 Co132 2.096 . S
O159 C140 1.247 . S
C160 O157 1.244 . S
C160 O158 1.240 . S
H161 C135 0.931 . S
H162 C144 0.967 . S
H163 C148 0.929 . S
H164 C150 0.930 . S
Co165 N169 2.148 . S
Co165 N175 2.128 . S
Co165 N185 2.194 . S
Co165 O190 2.351 . S
Co165 O191 2.155 . S
Co165 O192 2.096 . S
C166 N169 1.301 . S
C166 N170 1.328 . S
C166 H171 0.930 . S
C167 C168 1.333 . S
C167 N169 1.317 . S
C167 H172 0.930 . S
C168 C167 1.333 . S
C168 N170 1.350 . S
C168 H194 0.931 . S
N169 Co165 2.148 . S
N169 C166 1.301 . S
N169 C167 1.317 . S
N170 C166 1.328 . S
N170 C168 1.350 . S
H171 C166 0.930 . S
H172 C167 0.930 . S
C173 O174 1.224 . S
C173 O192 1.247 . S
O174 C173 1.224 . S
N175 Co165 2.128 . S
N175 C176 1.355 . S
N175 C178 1.311 . S
C176 N175 1.355 . S
C176 C177 1.363 . S
C176 H188 0.929 . S
C177 C176 1.363 . S
C177 N179 1.375 . S
C177 H195 0.931 . S
C178 N175 1.311 . S
C178 N179 1.347 . S
C178 H189 0.929 . S
N179 C177 1.375 . S
N179 C178 1.347 . S
C180 C183 1.365 . S
C180 N185 1.328 . S
C180 H186 0.929 . S
C181 C182 1.362 . S
C181 C184 1.378 . S
C181 H196 0.929 . S
C182 C181 1.362 . S
C182 C183 1.366 . S
C183 C180 1.365 . S
C183 C182 1.366 . S
C183 H197 0.930 . S
C184 C181 1.378 . S
C184 N185 1.315 . S
C184 H187 0.930 . S
N185 Co165 2.194 . S
N185 C180 1.328 . S
N185 C184 1.315 . S
H186 C180 0.929 . S
H187 C184 0.930 . S
H188 C176 0.929 . S
H189 C178 0.929 . S
O190 Co165 2.351 . S
O190 C193 1.244 . S
O191 Co165 2.155 . S
O191 C193 1.240 . S
O192 Co165 2.096 . S
O192 C173 1.247 . S
C193 O190 1.244 . S
C193 O191 1.240 . S
H194 C168 0.931 . S
H195 C177 0.931 . S
H196 C181 0.929 . S
H197 C183 0.930 . S
Co198 N202 2.148 . S
Co198 N208 2.128 . S
Co198 N218 2.194 . S
Co198 O223 2.351 . S
Co198 O224 2.155 . S
Co198 O225 2.096 . S
C199 N202 1.301 . S
C199 N203 1.328 . S
C199 H204 0.930 . S
C200 C201 1.333 . S
C200 N202 1.317 . S
C200 H205 0.930 . S
C201 C200 1.333 . S
C201 N203 1.350 . S
C201 H227 0.931 . S
N202 Co198 2.148 . S
N202 C199 1.301 . S
N202 C200 1.317 . S
N203 C199 1.328 . S
N203 C201 1.350 . S
H204 C199 0.930 . S
H205 C200 0.930 . S
C206 O207 1.224 . S
C206 O225 1.247 . S
O207 C206 1.224 . S
N208 Co198 2.128 . S
N208 C209 1.355 . S
N208 C211 1.311 . S
C209 N208 1.355 . S
C209 C210 1.333 1_655 S
C209 H221 0.929 . S
C210 C209 1.333 1_455 S
C210 N212 1.362 1_455 S
C210 H228 0.967 . S
C211 N208 1.311 . S
C211 N212 1.347 . S
C211 H222 0.929 . S
N212 C210 1.362 1_655 S
N212 C211 1.347 . S
C213 C216 1.365 . S
C213 N218 1.328 . S
C213 H219 0.929 . S
C214 C215 1.362 . S
C214 C217 1.378 . S
C214 H229 0.929 . S
C215 C214 1.362 . S
C215 C216 1.366 . S
C216 C213 1.365 . S
C216 C215 1.366 . S
C216 H230 0.930 . S
C217 C214 1.378 . S
C217 N218 1.315 . S
C217 H220 0.930 . S
N218 Co198 2.194 . S
N218 C213 1.328 . S
N218 C217 1.315 . S
H219 C213 0.929 . S
H220 C217 0.930 . S
H221 C209 0.929 . S
H222 C211 0.929 . S
O223 Co198 2.351 . S
O223 C226 1.244 . S
O224 Co198 2.155 . S
O224 C226 1.240 . S
O225 Co198 2.096 . S
O225 C206 1.247 . S
C226 O223 1.244 . S
C226 O224 1.240 . S
H227 C201 0.931 . S
H228 C210 0.967 . S
H229 C214 0.929 . S
H230 C216 0.930 . S
Co231 N235 2.148 . S
Co231 N241 2.128 . S
Co231 N251 2.194 . S
Co231 O256 2.351 . S
Co231 O257 2.155 . S
Co231 O258 2.096 . S
C232 N235 1.301 . S
C232 N236 1.328 . S
C232 H237 0.930 . S
C233 C234 1.333 . S
C233 N235 1.317 . S
C233 H238 0.930 . S
C234 C233 1.333 . S
C234 N236 1.350 . S
C234 H260 0.931 . S
N235 Co231 2.148 . S
N235 C232 1.301 . S
N235 C233 1.317 . S
N236 C232 1.328 . S
N236 C234 1.350 . S
H237 C232 0.930 . S
H238 C233 0.930 . S
C239 O240 1.224 . S
C239 O258 1.247 . S
O240 C239 1.224 . S
N241 Co231 2.128 . S
N241 C242 1.355 . S
N241 C244 1.311 . S
C242 N241 1.355 . S
C242 C243 1.363 . S
C242 H254 0.929 . S
C243 C242 1.363 . S
C243 N245 1.375 . S
C243 H261 0.931 . S
C244 N241 1.311 . S
C244 N245 1.347 . S
C244 H255 0.929 . S
N245 C243 1.375 . S
N245 C244 1.347 . S
C246 C249 1.365 . S
C246 N251 1.328 . S
C246 H252 0.929 . S
C247 C248 1.362 . S
C247 C250 1.378 . S
C247 H262 0.929 . S
C248 C247 1.362 . S
C248 C249 1.366 . S
C249 C246 1.365 . S
C249 C248 1.366 . S
C249 H263 0.930 . S
C250 C247 1.378 . S
C250 N251 1.315 . S
C250 H253 0.930 . S
N251 Co231 2.194 . S
N251 C246 1.328 . S
N251 C250 1.315 . S
H252 C246 0.929 . S
H253 C250 0.930 . S
H254 C242 0.929 . S
H255 C244 0.929 . S
O256 Co231 2.351 . S
O256 C259 1.244 . S
O257 Co231 2.155 . S
O257 C259 1.240 . S
O258 Co231 2.096 . S
O258 C239 1.247 . S
C259 O256 1.244 . S
C259 O257 1.240 . S
H260 C234 0.931 . S
H261 C243 0.931 . S
H262 C247 0.929 . S
H263 C249 0.930 . S
Co264 N268 2.148 . S
Co264 N274 2.128 . S
Co264 N284 2.194 . S
Co264 O289 2.351 . S
Co264 O290 2.155 . S
Co264 O291 2.096 . S
C265 N268 1.301 . S
C265 N269 1.328 . S
C265 H270 0.930 . S
C266 C267 1.333 . S
C266 N268 1.317 . S
C266 H271 0.930 . S
C267 C266 1.333 . S
C267 N269 1.350 . S
C267 H293 0.931 . S
N268 Co264 2.148 . S
N268 C265 1.301 . S
N268 C266 1.317 . S
N269 C265 1.328 . S
N269 C267 1.350 . S
H270 C265 0.930 . S
H271 C266 0.930 . S
C272 O273 1.224 . S
C272 O291 1.247 . S
O273 C272 1.224 . S
N274 Co264 2.128 . S
N274 C275 1.355 . S
N274 C277 1.311 . S
C275 N274 1.355 . S
C275 C276 1.333 1_545 S
C275 H287 0.929 . S
C276 C275 1.333 1_565 S
C276 N278 1.362 1_565 S
C276 H294 0.967 . S
C277 N274 1.311 . S
C277 N278 1.347 . S
C277 H288 0.929 . S
N278 C276 1.362 1_545 S
N278 C277 1.347 . S
C279 C282 1.365 . S
C279 N284 1.328 . S
C279 H285 0.929 . S
C280 C281 1.362 . S
C280 C283 1.378 . S
C280 H295 0.929 . S
C281 C280 1.362 . S
C281 C282 1.366 . S
C282 C279 1.365 . S
C282 C281 1.366 . S
C282 H296 0.930 . S
C283 C280 1.378 . S
C283 N284 1.315 . S
C283 H286 0.930 . S
N284 Co264 2.194 . S
N284 C279 1.328 . S
N284 C283 1.315 . S
H285 C279 0.929 . S
H286 C283 0.930 . S
H287 C275 0.929 . S
H288 C277 0.929 . S
O289 Co264 2.351 . S
O289 C292 1.244 . S
O290 Co264 2.155 . S
O290 C292 1.240 . S
O291 Co264 2.096 . S
O291 C272 1.247 . S
C292 O289 1.244 . S
C292 O290 1.240 . S
H293 C267 0.931 . S
H294 C276 0.967 . S
H295 C280 0.929 . S
H296 C282 0.930 . S
Co297 N301 2.148 . S
Co297 N307 2.128 . S
Co297 N317 2.194 . S
Co297 O322 2.351 . S
Co297 O323 2.155 . S
Co297 O324 2.096 . S
C298 N301 1.301 . S
C298 N302 1.328 . S
C298 H303 0.930 . S
C299 C300 1.333 . S
C299 N301 1.317 . S
C299 H304 0.930 . S
C300 C299 1.333 . S
C300 N302 1.350 . S
C300 H326 0.931 . S
N301 Co297 2.148 . S
N301 C298 1.301 . S
N301 C299 1.317 . S
N302 C298 1.328 . S
N302 C300 1.350 . S
H303 C298 0.930 . S
H304 C299 0.930 . S
C305 O306 1.224 . S
C305 O324 1.247 . S
O306 C305 1.224 . S
N307 Co297 2.128 . S
N307 C308 1.355 . S
N307 C310 1.311 . S
C308 N307 1.355 . S
C308 C309 1.363 . S
C308 H320 0.929 . S
C309 C308 1.363 . S
C309 N311 1.375 . S
C309 H327 0.931 . S
C310 N307 1.311 . S
C310 N311 1.347 . S
C310 H321 0.929 . S
N311 C309 1.375 . S
N311 C310 1.347 . S
C312 C315 1.365 . S
C312 N317 1.328 . S
C312 H318 0.929 . S
C313 C314 1.362 . S
C313 C316 1.378 . S
C313 H328 0.929 . S
C314 C313 1.362 . S
C314 C315 1.366 . S
C315 C312 1.365 . S
C315 C314 1.366 . S
C315 H329 0.930 . S
C316 C313 1.378 . S
C316 N317 1.315 . S
C316 H319 0.930 . S
N317 Co297 2.194 . S
N317 C312 1.328 . S
N317 C316 1.315 . S
H318 C312 0.929 . S
H319 C316 0.930 . S
H320 C308 0.929 . S
H321 C310 0.929 . S
O322 Co297 2.351 . S
O322 C325 1.244 . S
O323 Co297 2.155 . S
O323 C325 1.240 . S
O324 Co297 2.096 . S
O324 C305 1.247 . S
C325 O322 1.244 . S
C325 O323 1.240 . S
H326 C300 0.931 . S
H327 C309 0.931 . S
H328 C313 0.929 . S
H329 C315 0.930 . S
Co330 N334 2.148 . S
Co330 N340 2.128 . S
Co330 N350 2.194 . S
Co330 O355 2.351 . S
Co330 O356 2.155 . S
Co330 O357 2.096 . S
C331 N334 1.301 . S
C331 N335 1.328 . S
C331 H336 0.930 . S
C332 C333 1.333 . S
C332 N334 1.317 . S
C332 H337 0.930 . S
C333 C332 1.333 . S
C333 N335 1.350 . S
C333 H359 0.931 . S
N334 Co330 2.148 . S
N334 C331 1.301 . S
N334 C332 1.317 . S
N335 C331 1.328 . S
N335 C333 1.350 . S
H336 C331 0.930 . S
H337 C332 0.930 . S
C338 O339 1.224 . S
C338 O357 1.247 . S
O339 C338 1.224 . S
N340 Co330 2.128 . S
N340 C341 1.355 . S
N340 C343 1.311 . S
C341 N340 1.355 . S
C341 C342 1.333 1_565 S
C341 H353 0.929 . S
C342 C341 1.333 1_545 S
C342 N344 1.362 1_545 S
C342 H360 0.967 . S
C343 N340 1.311 . S
C343 N344 1.347 . S
C343 H354 0.929 . S
N344 C342 1.362 1_565 S
N344 C343 1.347 . S
C345 C348 1.365 . S
C345 N350 1.328 . S
C345 H351 0.929 . S
C346 C347 1.362 . S
C346 C349 1.378 . S
C346 H361 0.929 . S
C347 C346 1.362 . S
C347 C348 1.366 . S
C348 C345 1.365 . S
C348 C347 1.366 . S
C348 H362 0.930 . S
C349 C346 1.378 . S
C349 N350 1.315 . S
C349 H352 0.930 . S
N350 Co330 2.194 . S
N350 C345 1.328 . S
N350 C349 1.315 . S
H351 C345 0.929 . S
H352 C349 0.930 . S
H353 C341 0.929 . S
H354 C343 0.929 . S
O355 Co330 2.351 . S
O355 C358 1.244 . S
O356 Co330 2.155 . S
O356 C358 1.240 . S
O357 Co330 2.096 . S
O357 C338 1.247 . S
C358 O355 1.244 . S
C358 O356 1.240 . S
H359 C333 0.931 . S
H360 C342 0.967 . S
H361 C346 0.929 . S
H362 C348 0.930 . S
Co363 N367 2.148 . S
Co363 N373 2.128 . S
Co363 N383 2.194 . S
Co363 O388 2.351 . S
Co363 O389 2.155 . S
Co363 O390 2.096 . S
C364 N367 1.301 . S
C364 N368 1.328 . S
C364 H369 0.930 . S
C365 C366 1.333 . S
C365 N367 1.317 . S
C365 H370 0.930 . S
C366 C365 1.333 . S
C366 N368 1.350 . S
C366 H392 0.931 . S
N367 Co363 2.148 . S
N367 C364 1.301 . S
N367 C365 1.317 . S
N368 C364 1.328 . S
N368 C366 1.350 . S
H369 C364 0.930 . S
H370 C365 0.930 . S
C371 O372 1.224 . S
C371 O390 1.247 . S
O372 C371 1.224 . S
N373 Co363 2.128 . S
N373 C374 1.355 . S
N373 C376 1.311 . S
C374 N373 1.355 . S
C374 C375 1.363 . S
C374 H386 0.929 . S
C375 C374 1.363 . S
C375 N377 1.375 . S
C375 H393 0.931 . S
C376 N373 1.311 . S
C376 N377 1.347 . S
C376 H387 0.929 . S
N377 C375 1.375 . S
N377 C376 1.347 . S
C378 C381 1.365 . S
C378 N383 1.328 . S
C378 H384 0.929 . S
C379 C380 1.362 . S
C379 C382 1.378 . S
C379 H394 0.929 . S
C380 C379 1.362 . S
C380 C381 1.366 . S
C381 C378 1.365 . S
C381 C380 1.366 . S
C381 H395 0.930 . S
C382 C379 1.378 . S
C382 N383 1.315 . S
C382 H385 0.930 . S
N383 Co363 2.194 . S
N383 C378 1.328 . S
N383 C382 1.315 . S
H384 C378 0.929 . S
H385 C382 0.930 . S
H386 C374 0.929 . S
H387 C376 0.929 . S
O388 Co363 2.351 . S
O388 C391 1.244 . S
O389 Co363 2.155 . S
O389 C391 1.240 . S
O390 Co363 2.096 . S
O390 C371 1.247 . S
C391 O388 1.244 . S
C391 O389 1.240 . S
H392 C366 0.931 . S
H393 C375 0.931 . S
H394 C379 0.929 . S
H395 C381 0.930 . S
Co396 N400 2.148 . S
Co396 N406 2.128 . S
Co396 N416 2.194 . S
Co396 O421 2.351 . S
Co396 O422 2.155 . S
Co396 O423 2.096 . S
C397 N400 1.301 . S
C397 N401 1.328 . S
C397 H402 0.930 . S
C398 C399 1.333 . S
C398 N400 1.317 . S
C398 H403 0.930 . S
C399 C398 1.333 . S
C399 N401 1.350 . S
C399 H425 0.931 . S
N400 Co396 2.148 . S
N400 C397 1.301 . S
N400 C398 1.317 . S
N401 C397 1.328 . S
N401 C399 1.350 . S
H402 C397 0.930 . S
H403 C398 0.930 . S
C404 O405 1.224 . S
C404 O423 1.247 . S
O405 C404 1.224 . S
N406 Co396 2.128 . S
N406 C407 1.355 . S
N406 C409 1.311 . S
C407 N406 1.355 . S
C407 C408 1.333 1_565 S
C407 H419 0.929 . S
C408 C407 1.333 1_545 S
C408 N410 1.362 1_545 S
C408 H426 0.967 . S
C409 N406 1.311 . S
C409 N410 1.347 . S
C409 H420 0.929 . S
N410 C408 1.362 1_565 S
N410 C409 1.347 . S
C411 C414 1.365 . S
C411 N416 1.328 . S
C411 H417 0.929 . S
C412 C413 1.362 . S
C412 C415 1.378 . S
C412 H427 0.929 . S
C413 C412 1.362 . S
C413 C414 1.366 . S
C414 C411 1.365 . S
C414 C413 1.366 . S
C414 H428 0.930 . S
C415 C412 1.378 . S
C415 N416 1.315 . S
C415 H418 0.930 . S
N416 Co396 2.194 . S
N416 C411 1.328 . S
N416 C415 1.315 . S
H417 C411 0.929 . S
H418 C415 0.930 . S
H419 C407 0.929 . S
H420 C409 0.929 . S
O421 Co396 2.351 . S
O421 C424 1.244 . S
O422 Co396 2.155 . S
O422 C424 1.240 . S
O423 Co396 2.096 . S
O423 C404 1.247 . S
C424 O421 1.244 . S
C424 O422 1.240 . S
H425 C399 0.931 . S
H426 C408 0.967 . S
H427 C412 0.929 . S
H428 C414 0.930 . S
Co429 N433 2.148 . S
Co429 N439 2.128 . S
Co429 N449 2.194 . S
Co429 O454 2.351 . S
Co429 O455 2.155 . S
Co429 O456 2.096 . S
C430 N433 1.301 . S
C430 N434 1.328 . S
C430 H435 0.930 . S
C431 C432 1.333 . S
C431 N433 1.317 . S
C431 H436 0.930 . S
C432 C431 1.333 . S
C432 N434 1.350 . S
C432 H458 0.931 . S
N433 Co429 2.148 . S
N433 C430 1.301 . S
N433 C431 1.317 . S
N434 C430 1.328 . S
N434 C432 1.350 . S
H435 C430 0.930 . S
H436 C431 0.930 . S
C437 O438 1.224 . S
C437 O456 1.247 . S
O438 C437 1.224 . S
N439 Co429 2.128 . S
N439 C440 1.355 . S
N439 C442 1.311 . S
C440 N439 1.355 . S
C440 C441 1.363 . S
C440 H452 0.929 . S
C441 C440 1.363 . S
C441 N443 1.375 . S
C441 H459 0.931 . S
C442 N439 1.311 . S
C442 N443 1.347 . S
C442 H453 0.929 . S
N443 C441 1.375 . S
N443 C442 1.347 . S
C444 C447 1.365 . S
C444 N449 1.328 . S
C444 H450 0.929 . S
C445 C446 1.362 . S
C445 C448 1.378 . S
C445 H460 0.929 . S
C446 C445 1.362 . S
C446 C447 1.366 . S
C447 C444 1.365 . S
C447 C446 1.366 . S
C447 H461 0.930 . S
C448 C445 1.378 . S
C448 N449 1.315 . S
C448 H451 0.930 . S
N449 Co429 2.194 . S
N449 C444 1.328 . S
N449 C448 1.315 . S
H450 C444 0.929 . S
H451 C448 0.930 . S
H452 C440 0.929 . S
H453 C442 0.929 . S
O454 Co429 2.351 . S
O454 C457 1.244 . S
O455 Co429 2.155 . S
O455 C457 1.240 . S
O456 Co429 2.096 . S
O456 C437 1.247 . S
C457 O454 1.244 . S
C457 O455 1.240 . S
H458 C432 0.931 . S
H459 C441 0.931 . S
H460 C445 0.929 . S
H461 C447 0.930 . S
Co462 N466 2.148 . S
Co462 N472 2.128 . S
Co462 N482 2.194 . S
Co462 O487 2.351 . S
Co462 O488 2.155 . S
Co462 O489 2.096 . S
C463 N466 1.301 . S
C463 N467 1.328 . S
C463 H468 0.930 . S
C464 C465 1.333 . S
C464 N466 1.317 . S
C464 H469 0.930 . S
C465 C464 1.333 . S
C465 N467 1.350 . S
C465 H491 0.931 . S
N466 Co462 2.148 . S
N466 C463 1.301 . S
N466 C464 1.317 . S
N467 C463 1.328 . S
N467 C465 1.350 . S
H468 C463 0.930 . S
H469 C464 0.930 . S
C470 O471 1.224 . S
C470 O489 1.247 . S
O471 C470 1.224 . S
N472 Co462 2.128 . S
N472 C473 1.355 . S
N472 C475 1.311 . S
C473 N472 1.355 . S
C473 C474 1.333 1_545 S
C473 H485 0.929 . S
C474 C473 1.333 1_565 S
C474 N476 1.362 1_565 S
C474 H492 0.967 . S
C475 N472 1.311 . S
C475 N476 1.347 . S
C475 H486 0.929 . S
N476 C474 1.362 1_545 S
N476 C475 1.347 . S
C477 C480 1.365 . S
C477 N482 1.328 . S
C477 H483 0.929 . S
C478 C479 1.362 . S
C478 C481 1.378 . S
C478 H493 0.929 . S
C479 C478 1.362 . S
C479 C480 1.366 . S
C480 C477 1.365 . S
C480 C479 1.366 . S
C480 H494 0.930 . S
C481 C478 1.378 . S
C481 N482 1.315 . S
C481 H484 0.930 . S
N482 Co462 2.194 . S
N482 C477 1.328 . S
N482 C481 1.315 . S
H483 C477 0.929 . S
H484 C481 0.930 . S
H485 C473 0.929 . S
H486 C475 0.929 . S
O487 Co462 2.351 . S
O487 C490 1.244 . S
O488 Co462 2.155 . S
O488 C490 1.240 . S
O489 Co462 2.096 . S
O489 C470 1.247 . S
C490 O487 1.244 . S
C490 O488 1.240 . S
H491 C465 0.931 . S
H492 C474 0.967 . S
H493 C478 0.929 . S
H494 C480 0.930 . S
Co495 N499 2.148 . S
Co495 N505 2.128 . S
Co495 N515 2.194 . S
Co495 O520 2.351 . S
Co495 O521 2.155 . S
Co495 O522 2.096 . S
C496 N499 1.301 . S
C496 N500 1.328 . S
C496 H501 0.930 . S
C497 C498 1.333 . S
C497 N499 1.317 . S
C497 H502 0.930 . S
C498 C497 1.333 . S
C498 N500 1.350 . S
C498 H524 0.931 . S
N499 Co495 2.148 . S
N499 C496 1.301 . S
N499 C497 1.317 . S
N500 C496 1.328 . S
N500 C498 1.350 . S
H501 C496 0.930 . S
H502 C497 0.930 . S
C503 O504 1.224 . S
C503 O522 1.247 . S
O504 C503 1.224 . S
N505 Co495 2.128 . S
N505 C506 1.355 . S
N505 C508 1.311 . S
C506 N505 1.355 . S
C506 C507 1.363 . S
C506 H518 0.929 . S
C507 C506 1.363 . S
C507 N509 1.375 . S
C507 H525 0.931 . S
C508 N505 1.311 . S
C508 N509 1.347 . S
C508 H519 0.929 . S
N509 C507 1.375 . S
N509 C508 1.347 . S
C510 C513 1.365 . S
C510 N515 1.328 . S
C510 H516 0.929 . S
C511 C512 1.362 . S
C511 C514 1.378 . S
C511 H526 0.929 . S
C512 C511 1.362 . S
C512 C513 1.366 . S
C513 C510 1.365 . S
C513 C512 1.366 . S
C513 H527 0.930 . S
C514 C511 1.378 . S
C514 N515 1.315 . S
C514 H517 0.930 . S
N515 Co495 2.194 . S
N515 C510 1.328 . S
N515 C514 1.315 . S
H516 C510 0.929 . S
H517 C514 0.930 . S
H518 C506 0.929 . S
H519 C508 0.929 . S
O520 Co495 2.351 . S
O520 C523 1.244 . S
O521 Co495 2.155 . S
O521 C523 1.240 . S
O522 Co495 2.096 . S
O522 C503 1.247 . S
C523 O520 1.244 . S
C523 O521 1.240 . S
H524 C498 0.931 . S
H525 C507 0.931 . S
H526 C511 0.929 . S
H527 C513 0.930 . S
Co528 N532 2.148 . S
Co528 N538 2.128 . S
Co528 N548 2.194 . S
Co528 O553 2.351 . S
Co528 O554 2.155 . S
Co528 O555 2.096 . S
C529 N532 1.301 . S
C529 N533 1.328 . S
C529 H534 0.930 . S
C530 C531 1.333 . S
C530 N532 1.317 . S
C530 H535 0.930 . S
C531 C530 1.333 . S
C531 N533 1.350 . S
C531 H557 0.931 . S
N532 Co528 2.148 . S
N532 C529 1.301 . S
N532 C530 1.317 . S
N533 C529 1.328 . S
N533 C531 1.350 . S
H534 C529 0.930 . S
H535 C530 0.930 . S
C536 O537 1.224 . S
C536 O555 1.247 . S
O537 C536 1.224 . S
N538 Co528 2.128 . S
N538 C539 1.355 . S
N538 C541 1.311 . S
C539 N538 1.355 . S
C539 C540 1.333 1_554 S
C539 H551 0.929 . S
C540 C539 1.333 1_556 S
C540 N542 1.362 1_556 S
C540 H558 0.967 . S
C541 N538 1.311 . S
C541 N542 1.347 . S
C541 H552 0.929 . S
N542 C540 1.362 1_554 S
N542 C541 1.347 . S
C543 C546 1.365 . S
C543 N548 1.328 . S
C543 H549 0.929 . S
C544 C545 1.362 . S
C544 C547 1.378 . S
C544 H559 0.929 . S
C545 C544 1.362 . S
C545 C546 1.366 . S
C546 C543 1.365 . S
C546 C545 1.366 . S
C546 H560 0.930 . S
C547 C544 1.378 . S
C547 N548 1.315 . S
C547 H550 0.930 . S
N548 Co528 2.194 . S
N548 C543 1.328 . S
N548 C547 1.315 . S
H549 C543 0.929 . S
H550 C547 0.930 . S
H551 C539 0.929 . S
H552 C541 0.929 . S
O553 Co528 2.351 . S
O553 C556 1.244 . S
O554 Co528 2.155 . S
O554 C556 1.240 . S
O555 Co528 2.096 . S
O555 C536 1.247 . S
C556 O553 1.244 . S
C556 O554 1.240 . S
H557 C531 0.931 . S
H558 C540 0.967 . S
H559 C544 0.929 . S
H560 C546 0.930 . S
Co561 N565 2.148 . S
Co561 N571 2.128 . S
Co561 N581 2.194 . S
Co561 O586 2.351 . S
Co561 O587 2.155 . S
Co561 O588 2.096 . S
C562 N565 1.301 . S
C562 N566 1.328 . S
C562 H567 0.930 . S
C563 C564 1.333 . S
C563 N565 1.317 . S
C563 H568 0.930 . S
C564 C563 1.333 . S
C564 N566 1.350 . S
C564 H590 0.931 . S
N565 Co561 2.148 . S
N565 C562 1.301 . S
N565 C563 1.317 . S
N566 C562 1.328 . S
N566 C564 1.350 . S
H567 C562 0.930 . S
H568 C563 0.930 . S
C569 O570 1.224 . S
C569 O588 1.247 . S
O570 C569 1.224 . S
N571 Co561 2.128 . S
N571 C572 1.355 . S
N571 C574 1.311 . S
C572 N571 1.355 . S
C572 C573 1.333 1_556 S
C572 H584 0.929 . S
C573 C572 1.333 1_554 S
C573 N575 1.362 1_554 S
C573 H591 0.967 . S
C574 N571 1.311 . S
C574 N575 1.347 . S
C574 H585 0.929 . S
N575 C573 1.362 1_556 S
N575 C574 1.347 . S
C576 C579 1.365 . S
C576 N581 1.328 . S
C576 H582 0.929 . S
C577 C578 1.362 . S
C577 C580 1.378 . S
C577 H592 0.929 . S
C578 C577 1.362 . S
C578 C579 1.366 . S
C579 C576 1.365 . S
C579 C578 1.366 . S
C579 H593 0.930 . S
C580 C577 1.378 . S
C580 N581 1.315 . S
C580 H583 0.930 . S
N581 Co561 2.194 . S
N581 C576 1.328 . S
N581 C580 1.315 . S
H582 C576 0.929 . S
H583 C580 0.930 . S
H584 C572 0.929 . S
H585 C574 0.929 . S
O586 Co561 2.351 . S
O586 C589 1.244 . S
O587 Co561 2.155 . S
O587 C589 1.240 . S
O588 Co561 2.096 . S
O588 C569 1.247 . S
C589 O586 1.244 . S
C589 O587 1.240 . S
H590 C564 0.931 . S
H591 C573 0.967 . S
H592 C577 0.929 . S
H593 C579 0.930 . S
Co594 N598 2.148 . S
Co594 N604 2.128 . S
Co594 N614 2.194 . S
Co594 O619 2.351 . S
Co594 O620 2.155 . S
Co594 O621 2.096 . S
C595 N598 1.301 . S
C595 N599 1.328 . S
C595 H600 0.930 . S
C596 C597 1.333 . S
C596 N598 1.317 . S
C596 H601 0.930 . S
C597 C596 1.333 . S
C597 N599 1.350 . S
C597 H623 0.931 . S
N598 Co594 2.148 . S
N598 C595 1.301 . S
N598 C596 1.317 . S
N599 C595 1.328 . S
N599 C597 1.350 . S
H600 C595 0.930 . S
H601 C596 0.930 . S
C602 O603 1.224 . S
C602 O621 1.247 . S
O603 C602 1.224 . S
N604 Co594 2.128 . S
N604 C605 1.355 . S
N604 C607 1.311 . S
C605 N604 1.355 . S
C605 C606 1.363 . S
C605 H617 0.929 . S
C606 C605 1.363 . S
C606 N608 1.375 . S
C606 H624 0.931 . S
C607 N604 1.311 . S
C607 N608 1.347 . S
C607 H618 0.929 . S
N608 C606 1.375 . S
N608 C607 1.347 . S
C609 C612 1.365 . S
C609 N614 1.328 . S
C609 H615 0.929 . S
C610 C611 1.362 . S
C610 C613 1.378 . S
C610 H625 0.929 . S
C611 C610 1.362 . S
C611 C612 1.366 . S
C612 C609 1.365 . S
C612 C611 1.366 . S
C612 H626 0.930 . S
C613 C610 1.378 . S
C613 N614 1.315 . S
C613 H616 0.930 . S
N614 Co594 2.194 . S
N614 C609 1.328 . S
N614 C613 1.315 . S
H615 C609 0.929 . S
H616 C613 0.930 . S
H617 C605 0.929 . S
H618 C607 0.929 . S
O619 Co594 2.351 . S
O619 C622 1.244 . S
O620 Co594 2.155 . S
O620 C622 1.240 . S
O621 Co594 2.096 . S
O621 C602 1.247 . S
C622 O619 1.244 . S
C622 O620 1.240 . S
H623 C597 0.931 . S
H624 C606 0.931 . S
H625 C610 0.929 . S
H626 C612 0.930 . S
Co627 N631 2.148 . S
Co627 N637 2.128 . S
Co627 N647 2.194 . S
Co627 O652 2.351 . S
Co627 O653 2.155 . S
Co627 O654 2.096 . S
C628 N631 1.301 . S
C628 N632 1.328 . S
C628 H633 0.930 . S
C629 C630 1.333 . S
C629 N631 1.317 . S
C629 H634 0.930 . S
C630 C629 1.333 . S
C630 N632 1.350 . S
C630 H656 0.931 . S
N631 Co627 2.148 . S
N631 C628 1.301 . S
N631 C629 1.317 . S
N632 C628 1.328 . S
N632 C630 1.350 . S
H633 C628 0.930 . S
H634 C629 0.930 . S
C635 O636 1.224 . S
C635 O654 1.247 . S
O636 C635 1.224 . S
N637 Co627 2.128 . S
N637 C638 1.355 . S
N637 C640 1.311 . S
C638 N637 1.355 . S
C638 C639 1.333 1_556 S
C638 H650 0.929 . S
C639 C638 1.333 1_554 S
C639 N641 1.362 1_554 S
C639 H657 0.967 . S
C640 N637 1.311 . S
C640 N641 1.347 . S
C640 H651 0.929 . S
N641 C639 1.362 1_556 S
N641 C640 1.347 . S
C642 C645 1.365 . S
C642 N647 1.328 . S
C642 H648 0.929 . S
C643 C644 1.362 . S
C643 C646 1.378 . S
C643 H658 0.929 . S
C644 C643 1.362 . S
C644 C645 1.366 . S
C645 C642 1.365 . S
C645 C644 1.366 . S
C645 H659 0.930 . S
C646 C643 1.378 . S
C646 N647 1.315 . S
C646 H649 0.930 . S
N647 Co627 2.194 . S
N647 C642 1.328 . S
N647 C646 1.315 . S
H648 C642 0.929 . S
H649 C646 0.930 . S
H650 C638 0.929 . S
H651 C640 0.929 . S
O652 Co627 2.351 . S
O652 C655 1.244 . S
O653 Co627 2.155 . S
O653 C655 1.240 . S
O654 Co627 2.096 . S
O654 C635 1.247 . S
C655 O652 1.244 . S
C655 O653 1.240 . S
H656 C630 0.931 . S
H657 C639 0.967 . S
H658 C643 0.929 . S
H659 C645 0.930 . S
Co660 N664 2.148 . S
Co660 N670 2.128 . S
Co660 N680 2.194 . S
Co660 O685 2.351 . S
Co660 O686 2.155 . S
Co660 O687 2.096 . S
C661 N664 1.301 . S
C661 N665 1.328 . S
C661 H666 0.930 . S
C662 C663 1.333 . S
C662 N664 1.317 . S
C662 H667 0.930 . S
C663 C662 1.333 . S
C663 N665 1.350 . S
C663 H689 0.931 . S
N664 Co660 2.148 . S
N664 C661 1.301 . S
N664 C662 1.317 . S
N665 C661 1.328 . S
N665 C663 1.350 . S
H666 C661 0.930 . S
H667 C662 0.930 . S
C668 O669 1.224 . S
C668 O687 1.247 . S
O669 C668 1.224 . S
N670 Co660 2.128 . S
N670 C671 1.355 . S
N670 C673 1.311 . S
C671 N670 1.355 . S
C671 C672 1.363 . S
C671 H683 0.929 . S
C672 C671 1.363 . S
C672 N674 1.375 . S
C672 H690 0.931 . S
C673 N670 1.311 . S
C673 N674 1.347 . S
C673 H684 0.929 . S
N674 C672 1.375 . S
N674 C673 1.347 . S
C675 C678 1.365 . S
C675 N680 1.328 . S
C675 H681 0.929 . S
C676 C677 1.362 . S
C676 C679 1.378 . S
C676 H691 0.929 . S
C677 C676 1.362 . S
C677 C678 1.366 . S
C678 C675 1.365 . S
C678 C677 1.366 . S
C678 H692 0.930 . S
C679 C676 1.378 . S
C679 N680 1.315 . S
C679 H682 0.930 . S
N680 Co660 2.194 . S
N680 C675 1.328 . S
N680 C679 1.315 . S
H681 C675 0.929 . S
H682 C679 0.930 . S
H683 C671 0.929 . S
H684 C673 0.929 . S
O685 Co660 2.351 . S
O685 C688 1.244 . S
O686 Co660 2.155 . S
O686 C688 1.240 . S
O687 Co660 2.096 . S
O687 C668 1.247 . S
C688 O685 1.244 . S
C688 O686 1.240 . S
H689 C663 0.931 . S
H690 C672 0.931 . S
H691 C676 0.929 . S
H692 C678 0.930 . S
Co693 N697 2.148 . S
Co693 N703 2.128 . S
Co693 N713 2.194 . S
Co693 O718 2.351 . S
Co693 O719 2.155 . S
Co693 O720 2.096 . S
C694 N697 1.301 . S
C694 N698 1.328 . S
C694 H699 0.930 . S
C695 C696 1.333 . S
C695 N697 1.317 . S
C695 H700 0.930 . S
C696 C695 1.333 . S
C696 N698 1.350 . S
C696 H722 0.931 . S
N697 Co693 2.148 . S
N697 C694 1.301 . S
N697 C695 1.317 . S
N698 C694 1.328 . S
N698 C696 1.350 . S
H699 C694 0.930 . S
H700 C695 0.930 . S
C701 O702 1.224 . S
C701 O720 1.247 . S
O702 C701 1.224 . S
N703 Co693 2.128 . S
N703 C704 1.355 . S
N703 C706 1.311 . S
C704 N703 1.355 . S
C704 C705 1.333 1_554 S
C704 H716 0.929 . S
C705 C704 1.333 1_556 S
C705 N707 1.362 1_556 S
C705 H723 0.967 . S
C706 N703 1.311 . S
C706 N707 1.347 . S
C706 H717 0.929 . S
N707 C705 1.362 1_554 S
N707 C706 1.347 . S
C708 C711 1.365 . S
C708 N713 1.328 . S
C708 H714 0.929 . S
C709 C710 1.362 . S
C709 C712 1.378 . S
C709 H724 0.929 . S
C710 C709 1.362 . S
C710 C711 1.366 . S
C711 C708 1.365 . S
C711 C710 1.366 . S
C711 H725 0.930 . S
C712 C709 1.378 . S
C712 N713 1.315 . S
C712 H715 0.930 . S
N713 Co693 2.194 . S
N713 C708 1.328 . S
N713 C712 1.315 . S
H714 C708 0.929 . S
H715 C712 0.930 . S
H716 C704 0.929 . S
H717 C706 0.929 . S
O718 Co693 2.351 . S
O718 C721 1.244 . S
O719 Co693 2.155 . S
O719 C721 1.240 . S
O720 Co693 2.096 . S
O720 C701 1.247 . S
C721 O718 1.244 . S
C721 O719 1.240 . S
H722 C696 0.931 . S
H723 C705 0.967 . S
H724 C709 0.929 . S
H725 C711 0.930 . S
Co726 N730 2.148 . S
Co726 N736 2.128 . S
Co726 N746 2.194 . S
Co726 O751 2.351 . S
Co726 O752 2.155 . S
Co726 O753 2.096 . S
C727 N730 1.301 . S
C727 N731 1.328 . S
C727 H732 0.930 . S
C728 C729 1.333 . S
C728 N730 1.317 . S
C728 H733 0.930 . S
C729 C728 1.333 . S
C729 N731 1.350 . S
C729 H755 0.931 . S
N730 Co726 2.148 . S
N730 C727 1.301 . S
N730 C728 1.317 . S
N731 C727 1.328 . S
N731 C729 1.350 . S
H732 C727 0.930 . S
H733 C728 0.930 . S
C734 O735 1.224 . S
C734 O753 1.247 . S
O735 C734 1.224 . S
N736 Co726 2.128 . S
N736 C737 1.355 . S
N736 C739 1.311 . S
C737 N736 1.355 . S
C737 C738 1.363 . S
C737 H749 0.929 . S
C738 C737 1.363 . S
C738 N740 1.375 . S
C738 H756 0.931 . S
C739 N736 1.311 . S
C739 N740 1.347 . S
C739 H750 0.929 . S
N740 C738 1.375 . S
N740 C739 1.347 . S
C741 C744 1.365 . S
C741 N746 1.328 . S
C741 H747 0.929 . S
C742 C743 1.362 . S
C742 C745 1.378 . S
C742 H757 0.929 . S
C743 C742 1.362 . S
C743 C744 1.366 . S
C744 C741 1.365 . S
C744 C743 1.366 . S
C744 H758 0.930 . S
C745 C742 1.378 . S
C745 N746 1.315 . S
C745 H748 0.930 . S
N746 Co726 2.194 . S
N746 C741 1.328 . S
N746 C745 1.315 . S
H747 C741 0.929 . S
H748 C745 0.930 . S
H749 C737 0.929 . S
H750 C739 0.929 . S
O751 Co726 2.351 . S
O751 C754 1.244 . S
O752 Co726 2.155 . S
O752 C754 1.240 . S
O753 Co726 2.096 . S
O753 C734 1.247 . S
C754 O751 1.244 . S
C754 O752 1.240 . S
H755 C729 0.931 . S
H756 C738 0.931 . S
H757 C742 0.929 . S
H758 C744 0.930 . S
Co759 N763 2.148 . S
Co759 N769 2.128 . S
Co759 N779 2.194 . S
Co759 O784 2.351 . S
Co759 O785 2.155 . S
Co759 O786 2.096 . S
C760 N763 1.301 . S
C760 N764 1.328 . S
C760 H765 0.930 . S
C761 C762 1.333 . S
C761 N763 1.317 . S
C761 H766 0.930 . S
C762 C761 1.333 . S
C762 N764 1.350 . S
C762 H788 0.931 . S
N763 Co759 2.148 . S
N763 C760 1.301 . S
N763 C761 1.317 . S
N764 C760 1.328 . S
N764 C762 1.350 . S
H765 C760 0.930 . S
H766 C761 0.930 . S
C767 O768 1.224 . S
C767 O786 1.247 . S
O768 C767 1.224 . S
N769 Co759 2.128 . S
N769 C770 1.355 . S
N769 C772 1.311 . S
C770 N769 1.355 . S
C770 C771 1.363 . S
C770 H782 0.929 . S
C771 C770 1.363 . S
C771 N773 1.375 . S
C771 H789 0.931 . S
C772 N769 1.311 . S
C772 N773 1.347 . S
C772 H783 0.929 . S
N773 C771 1.375 . S
N773 C772 1.347 . S
C774 C777 1.365 . S
C774 N779 1.328 . S
C774 H780 0.929 . S
C775 C776 1.362 . S
C775 C778 1.378 . S
C775 H790 0.929 . S
C776 C775 1.362 . S
C776 C777 1.366 . S
C777 C774 1.365 . S
C777 C776 1.366 . S
C777 H791 0.930 . S
C778 C775 1.378 . S
C778 N779 1.315 . S
C778 H781 0.930 . S
N779 Co759 2.194 . S
N779 C774 1.328 . S
N779 C778 1.315 . S
H780 C774 0.929 . S
H781 C778 0.930 . S
H782 C770 0.929 . S
H783 C772 0.929 . S
O784 Co759 2.351 . S
O784 C787 1.244 . S
O785 Co759 2.155 . S
O785 C787 1.240 . S
O786 Co759 2.096 . S
O786 C767 1.247 . S
C787 O784 1.244 . S
C787 O785 1.240 . S
H788 C762 0.931 . S
H789 C771 0.931 . S
H790 C775 0.929 . S
H791 C777 0.930 . S
C792 C793 1.391 . S
C792 C794 1.394 . S
C792 H808 0.931 . S
C793 C792 1.391 . S
C793 C797 1.376 . S
C794 C792 1.394 . S
C794 C795 1.369 . S
C794 C798 1.531 . S
C795 C794 1.369 . S
C795 C796 1.410 . S
C795 C803 1.503 . S
C796 C795 1.410 . S
C796 C797 1.392 . S
C796 C799 1.511 . S
C797 C793 1.376 . S
C797 C796 1.392 . S
C797 H809 0.929 . S
C798 C794 1.531 . S
C798 H810 0.960 . S
C798 H811 0.962 . S
C798 H812 0.960 . S
C799 C796 1.511 . S
C799 H813 0.961 . S
C799 H814 0.961 . S
C799 H815 0.961 . S
C800 C801 1.370 . S
C800 C802 1.363 . S
C800 H816 0.931 . S
C801 C800 1.370 . S
C801 C805 1.408 . S
C802 C800 1.363 . S
C802 C803 1.370 . S
C802 C806 1.524 . S
C803 C795 1.503 . S
C803 C802 1.370 . S
C803 C804 1.403 . S
C804 C803 1.403 . S
C804 C805 1.404 . S
C804 C807 1.539 . S
C805 C801 1.408 . S
C805 C804 1.404 . S
C805 H817 0.930 . S
C806 C802 1.524 . S
C806 H818 0.956 . S
C806 H819 0.961 . S
C806 H820 0.961 . S
C807 C804 1.539 . S
C807 H821 0.958 . S
C807 H822 0.961 . S
C807 H823 0.960 . S
H808 C792 0.931 . S
H809 C797 0.929 . S
H810 C798 0.960 . S
H811 C798 0.962 . S
H812 C798 0.960 . S
H813 C799 0.961 . S
H814 C799 0.961 . S
H815 C799 0.961 . S
H816 C800 0.931 . S
H817 C805 0.930 . S
H818 C806 0.956 . S
H819 C806 0.961 . S
H820 C806 0.961 . S
H821 C807 0.958 . S
H822 C807 0.961 . S
H823 C807 0.960 . S
C824 C825 1.391 . S
C824 C826 1.394 . S
C824 H840 0.931 1_655 S
C825 C824 1.391 . S
C825 C829 1.376 . S
C826 C824 1.394 . S
C826 C827 1.369 . S
C826 C830 1.531 . S
C827 C826 1.369 . S
C827 C828 1.410 . S
C827 C835 1.503 . S
C828 C827 1.410 . S
C828 C829 1.392 . S
C828 C831 1.511 . S
C829 C825 1.376 . S
C829 C828 1.392 . S
C829 H841 0.929 . S
C830 C826 1.531 . S
C830 H842 0.960 . S
C830 H843 0.962 . S
C830 H844 0.960 . S
C831 C828 1.511 . S
C831 H845 0.961 . S
C831 H846 0.961 . S
C831 H847 0.961 . S
C832 C833 1.370 . S
C832 C834 1.363 . S
C832 H848 0.931 . S
C833 C832 1.370 . S
C833 C837 1.408 . S
C834 C832 1.363 . S
C834 C835 1.370 . S
C834 C838 1.524 . S
C835 C827 1.503 . S
C835 C834 1.370 . S
C835 C836 1.403 . S
C836 C835 1.403 . S
C836 C837 1.404 . S
C836 C839 1.539 . S
C837 C833 1.408 . S
C837 C836 1.404 . S
C837 H849 0.930 . S
C838 C834 1.524 . S
C838 H850 0.956 . S
C838 H851 0.961 . S
C838 H852 0.961 . S
C839 C836 1.539 . S
C839 H853 0.958 . S
C839 H854 0.961 . S
C839 H855 0.960 . S
H840 C824 0.931 1_455 S
H841 C829 0.929 . S
H842 C830 0.960 . S
H843 C830 0.962 . S
H844 C830 0.960 . S
H845 C831 0.961 . S
H846 C831 0.961 . S
H847 C831 0.961 . S
H848 C832 0.931 . S
H849 C837 0.930 . S
H850 C838 0.956 . S
H851 C838 0.961 . S
H852 C838 0.961 . S
H853 C839 0.958 . S
H854 C839 0.961 . S
H855 C839 0.960 . S
C856 C857 1.391 . S
C856 C858 1.394 . S
C856 H872 0.931 . S
C857 C856 1.391 . S
C857 C861 1.376 . S
C858 C856 1.394 . S
C858 C859 1.369 . S
C858 C862 1.531 . S
C859 C858 1.369 . S
C859 C860 1.410 . S
C859 C867 1.503 . S
C860 C859 1.410 . S
C860 C861 1.392 . S
C860 C863 1.511 . S
C861 C857 1.376 . S
C861 C860 1.392 . S
C861 H873 0.929 . S
C862 C858 1.531 . S
C862 H874 0.960 . S
C862 H875 0.962 . S
C862 H876 0.960 . S
C863 C860 1.511 . S
C863 H877 0.961 . S
C863 H878 0.961 . S
C863 H879 0.961 . S
C864 C865 1.370 . S
C864 C866 1.363 . S
C864 H880 0.931 . S
C865 C864 1.370 . S
C865 C869 1.408 . S
C866 C864 1.363 . S
C866 C867 1.370 . S
C866 C870 1.524 . S
C867 C859 1.503 . S
C867 C866 1.370 . S
C867 C868 1.403 . S
C868 C867 1.403 . S
C868 C869 1.404 . S
C868 C871 1.539 . S
C869 C865 1.408 . S
C869 C868 1.404 . S
C869 H881 0.930 . S
C870 C866 1.524 . S
C870 H882 0.956 . S
C870 H883 0.961 . S
C870 H884 0.961 . S
C871 C868 1.539 . S
C871 H885 0.958 . S
C871 H886 0.961 . S
C871 H887 0.960 . S
H872 C856 0.931 . S
H873 C861 0.929 . S
H874 C862 0.960 . S
H875 C862 0.962 . S
H876 C862 0.960 . S
H877 C863 0.961 . S
H878 C863 0.961 . S
H879 C863 0.961 . S
H880 C864 0.931 . S
H881 C869 0.930 . S
H882 C870 0.956 . S
H883 C870 0.961 . S
H884 C870 0.961 . S
H885 C871 0.958 . S
H886 C871 0.961 . S
H887 C871 0.960 . S
C888 C889 1.391 . S
C888 C890 1.394 . S
C888 H904 0.931 . S
C889 C888 1.391 . S
C889 C893 1.376 . S
C890 C888 1.394 . S
C890 C891 1.369 . S
C890 C894 1.531 . S
C891 C890 1.369 . S
C891 C892 1.410 . S
C891 C899 1.503 . S
C892 C891 1.410 . S
C892 C893 1.392 . S
C892 C895 1.511 . S
C893 C889 1.376 . S
C893 C892 1.392 . S
C893 H905 0.929 . S
C894 C890 1.531 . S
C894 H906 0.960 . S
C894 H907 0.962 . S
C894 H908 0.960 . S
C895 C892 1.511 . S
C895 H909 0.961 . S
C895 H910 0.961 . S
C895 H911 0.961 . S
C896 C897 1.370 . S
C896 C898 1.363 . S
C896 H912 0.931 . S
C897 C896 1.370 . S
C897 C901 1.412 . S
C898 C896 1.363 . S
C898 C899 1.370 . S
C898 C902 1.524 . S
C899 C891 1.503 . S
C899 C898 1.370 . S
C899 C900 1.403 . S
C900 C899 1.403 . S
C900 C901 1.413 . S
C900 C903 1.539 . S
C901 C897 1.412 . S
C901 C900 1.413 . S
C901 H913 0.918 1_455 S
C902 C898 1.524 . S
C902 H914 0.956 . S
C902 H915 0.961 . S
C902 H916 0.961 . S
C903 C900 1.539 . S
C903 H917 0.958 . S
C903 H918 0.961 1_455 S
C903 H919 0.960 . S
H904 C888 0.931 . S
H905 C893 0.929 . S
H906 C894 0.960 . S
H907 C894 0.962 . S
H908 C894 0.960 . S
H909 C895 0.961 . S
H910 C895 0.961 . S
H911 C895 0.961 . S
H912 C896 0.931 . S
H913 C901 0.918 1_655 S
H914 C902 0.956 . S
H915 C902 0.961 . S
H916 C902 0.961 . S
H917 C903 0.958 . S
H918 C903 0.961 1_655 S
H919 C903 0.960 . S
C920 C921 1.391 . S
C920 C922 1.394 . S
C920 H936 0.931 . S
C921 C920 1.391 . S
C921 C925 1.376 . S
C922 C920 1.394 . S
C922 C923 1.369 . S
C922 C926 1.531 . S
C923 C922 1.369 . S
C923 C924 1.410 . S
C923 C931 1.503 . S
C924 C923 1.410 . S
C924 C925 1.392 . S
C924 C927 1.511 . S
C925 C921 1.376 . S
C925 C924 1.392 . S
C925 H937 0.929 . S
C926 C922 1.531 . S
C926 H938 0.960 . S
C926 H939 0.962 . S
C926 H940 0.960 . S
C927 C924 1.511 . S
C927 H941 0.961 . S
C927 H942 0.961 . S
C927 H943 0.961 . S
C928 C929 1.370 . S
C928 C930 1.363 . S
C928 H944 0.931 . S
C929 C928 1.370 . S
C929 C933 1.408 . S
C930 C928 1.363 . S
C930 C931 1.370 . S
C930 C934 1.524 . S
C931 C923 1.503 . S
C931 C930 1.370 . S
C931 C932 1.403 . S
C932 C931 1.403 . S
C932 C933 1.404 . S
C932 C935 1.539 . S
C933 C929 1.408 . S
C933 C932 1.404 . S
C933 H945 0.930 . S
C934 C930 1.524 . S
C934 H946 0.956 . S
C934 H947 0.961 . S
C934 H948 0.961 . S
C935 C932 1.539 . S
C935 H949 0.958 . S
C935 H950 0.961 . S
C935 H951 0.960 . S
H936 C920 0.931 . S
H937 C925 0.929 . S
H938 C926 0.960 . S
H939 C926 0.962 . S
H940 C926 0.960 . S
H941 C927 0.961 . S
H942 C927 0.961 . S
H943 C927 0.961 . S
H944 C928 0.931 . S
H945 C933 0.930 . S
H946 C934 0.956 . S
H947 C934 0.961 . S
H948 C934 0.961 . S
H949 C935 0.958 . S
H950 C935 0.961 . S
H951 C935 0.960 . S
C952 C953 1.391 . S
C952 C954 1.394 . S
C952 H968 0.931 . S
C953 C952 1.391 . S
C953 C957 1.376 . S
C954 C952 1.394 . S
C954 C955 1.369 . S
C954 C958 1.531 . S
C955 C954 1.369 . S
C955 C956 1.410 . S
C955 C963 1.503 . S
C956 C955 1.410 . S
C956 C957 1.392 . S
C956 C959 1.511 . S
C957 C953 1.376 . S
C957 C956 1.392 . S
C957 H969 0.929 . S
C958 C954 1.531 . S
C958 H970 0.960 . S
C958 H971 0.962 . S
C958 H972 0.960 . S
C959 C956 1.511 . S
C959 H973 0.961 . S
C959 H974 0.961 . S
C959 H975 0.961 . S
C960 C961 1.370 . S
C960 C962 1.363 . S
C960 H976 0.931 . S
C961 C960 1.370 . S
C961 C965 1.408 . S
C962 C960 1.363 . S
C962 C963 1.370 . S
C962 C966 1.524 . S
C963 C955 1.503 . S
C963 C962 1.370 . S
C963 C964 1.403 . S
C964 C963 1.403 . S
C964 C965 1.404 . S
C964 C967 1.539 . S
C965 C961 1.408 . S
C965 C964 1.404 . S
C965 H977 0.930 . S
C966 C962 1.524 . S
C966 H978 0.956 . S
C966 H979 0.961 . S
C966 H980 0.961 . S
C967 C964 1.539 . S
C967 H981 0.958 . S
C967 H982 0.961 . S
C967 H983 0.960 . S
H968 C952 0.931 . S
H969 C957 0.929 . S
H970 C958 0.960 . S
H971 C958 0.962 . S
H972 C958 0.960 . S
H973 C959 0.961 . S
H974 C959 0.961 . S
H975 C959 0.961 . S
H976 C960 0.931 . S
H977 C965 0.930 . S
H978 C966 0.956 . S
H979 C966 0.961 . S
H980 C966 0.961 . S
H981 C967 0.958 . S
H982 C967 0.961 . S
H983 C967 0.960 . S
C984 C985 1.391 . S
C984 C986 1.394 . S
C984 H1000 0.931 . S
C985 C984 1.391 . S
C985 C989 1.376 . S
C986 C984 1.394 . S
C986 C987 1.369 . S
C986 C990 1.531 . S
C987 C986 1.369 . S
C987 C988 1.410 . S
C987 C995 1.503 . S
C988 C987 1.410 . S
C988 C989 1.392 . S
C988 C991 1.511 . S
C989 C985 1.376 . S
C989 C988 1.392 . S
C989 H1001 0.929 . S
C990 C986 1.531 . S
C990 H1002 0.960 . S
C990 H1003 0.962 . S
C990 H1004 0.960 . S
C991 C988 1.511 . S
C991 H1005 0.961 . S
C991 H1006 0.961 . S
C991 H1007 0.961 . S
C992 C993 1.370 . S
C992 C994 1.363 . S
C992 H1008 0.931 . S
C993 C992 1.370 . S
C993 C997 1.408 . S
C994 C992 1.363 . S
C994 C995 1.370 . S
C994 C998 1.524 . S
C995 C987 1.503 . S
C995 C994 1.370 . S
C995 C996 1.403 . S
C996 C995 1.403 . S
C996 C997 1.404 . S
C996 C999 1.539 . S
C997 C993 1.408 . S
C997 C996 1.404 . S
C997 H1009 0.930 . S
C998 C994 1.524 . S
C998 H1010 0.956 . S
C998 H1011 0.961 . S
C998 H1012 0.961 . S
C999 C996 1.539 . S
C999 H1013 0.958 . S
C999 H1014 0.961 . S
C999 H1015 0.960 . S
H1000 C984 0.931 . S
H1001 C989 0.929 . S
H1002 C990 0.960 . S
H1003 C990 0.962 . S
H1004 C990 0.960 . S
H1005 C991 0.961 . S
H1006 C991 0.961 . S
H1007 C991 0.961 . S
H1008 C992 0.931 . S
H1009 C997 0.930 . S
H1010 C998 0.956 . S
H1011 C998 0.961 . S
H1012 C998 0.961 . S
H1013 C999 0.958 . S
H1014 C999 0.961 . S
H1015 C999 0.960 . S
C1016 C1017 1.391 . S
C1016 C1018 1.394 . S
C1016 H1032 0.931 1_655 S
C1017 C1016 1.391 . S
C1017 C1021 1.376 . S
C1018 C1016 1.394 . S
C1018 C1019 1.369 . S
C1018 C1022 1.531 . S
C1019 C1018 1.369 . S
C1019 C1020 1.410 . S
C1019 C1027 1.503 . S
C1020 C1019 1.410 . S
C1020 C1021 1.392 . S
C1020 C1023 1.511 . S
C1021 C1017 1.376 . S
C1021 C1020 1.392 . S
C1021 H1033 0.929 . S
C1022 C1018 1.531 . S
C1022 H1034 0.960 . S
C1022 H1035 0.962 . S
C1022 H1036 0.960 . S
C1023 C1020 1.511 . S
C1023 H1037 0.961 . S
C1023 H1038 0.961 . S
C1023 H1039 0.961 . S
C1024 C1025 1.370 . S
C1024 C1026 1.363 . S
C1024 H1040 0.931 . S
C1025 C1024 1.370 . S
C1025 C1029 1.408 . S
C1026 C1024 1.363 . S
C1026 C1027 1.370 . S
C1026 C1030 1.524 . S
C1027 C1019 1.503 . S
C1027 C1026 1.370 . S
C1027 C1028 1.403 . S
C1028 C1027 1.403 . S
C1028 C1029 1.404 . S
C1028 C1031 1.539 . S
C1029 C1025 1.408 . S
C1029 C1028 1.404 . S
C1029 H1041 0.930 . S
C1030 C1026 1.524 . S
C1030 H1042 0.956 . S
C1030 H1043 0.961 . S
C1030 H1044 0.961 . S
C1031 C1028 1.539 . S
C1031 H1045 0.958 . S
C1031 H1046 0.961 . S
C1031 H1047 0.960 . S
H1032 C1016 0.931 1_455 S
H1033 C1021 0.929 . S
H1034 C1022 0.960 . S
H1035 C1022 0.962 . S
H1036 C1022 0.960 . S
H1037 C1023 0.961 . S
H1038 C1023 0.961 . S
H1039 C1023 0.961 . S
H1040 C1024 0.931 . S
H1041 C1029 0.930 . S
H1042 C1030 0.956 . S
H1043 C1030 0.961 . S
H1044 C1030 0.961 . S
H1045 C1031 0.958 . S
H1046 C1031 0.961 . S
H1047 C1031 0.960 . S
C1048 C1049 1.391 . S
C1048 C1050 1.394 . S
C1048 H1064 0.931 . S
C1049 C1048 1.391 . S
C1049 C1053 1.376 . S
C1050 C1048 1.394 . S
C1050 C1051 1.369 . S
C1050 C1054 1.531 . S
C1051 C1050 1.369 . S
C1051 C1052 1.410 . S
C1051 C1059 1.503 . S
C1052 C1051 1.410 . S
C1052 C1053 1.392 . S
C1052 C1055 1.511 . S
C1053 C1049 1.376 . S
C1053 C1052 1.392 . S
C1053 H1065 0.929 . S
C1054 C1050 1.531 . S
C1054 H1066 0.960 . S
C1054 H1067 0.962 . S
C1054 H1068 0.960 . S
C1055 C1052 1.511 . S
C1055 H1069 0.961 . S
C1055 H1070 0.961 . S
C1055 H1071 0.961 . S
C1056 C1057 1.370 . S
C1056 C1058 1.363 . S
C1056 H1072 0.931 . S
C1057 C1056 1.370 . S
C1057 C1061 1.408 . S
C1058 C1056 1.363 . S
C1058 C1059 1.370 . S
C1058 C1062 1.524 . S
C1059 C1051 1.503 . S
C1059 C1058 1.370 . S
C1059 C1060 1.403 . S
C1060 C1059 1.403 . S
C1060 C1061 1.404 . S
C1060 C1063 1.539 . S
C1061 C1057 1.408 . S
C1061 C1060 1.404 . S
C1061 H1073 0.930 . S
C1062 C1058 1.524 . S
C1062 H1074 0.956 . S
C1062 H1075 0.961 . S
C1062 H1076 0.961 . S
C1063 C1060 1.539 . S
C1063 H1077 0.958 . S
C1063 H1078 0.961 . S
C1063 H1079 0.960 . S
H1064 C1048 0.931 . S
H1065 C1053 0.929 . S
H1066 C1054 0.960 . S
H1067 C1054 0.962 . S
H1068 C1054 0.960 . S
H1069 C1055 0.961 . S
H1070 C1055 0.961 . S
H1071 C1055 0.961 . S
H1072 C1056 0.931 . S
H1073 C1061 0.930 . S
H1074 C1062 0.956 . S
H1075 C1062 0.961 . S
H1076 C1062 0.961 . S
H1077 C1063 0.958 . S
H1078 C1063 0.961 . S
H1079 C1063 0.960 . S
C1080 C1081 1.391 . S
C1080 C1082 1.394 . S
C1080 H1096 0.931 . S
C1081 C1080 1.391 . S
C1081 C1085 1.376 . S
C1082 C1080 1.394 . S
C1082 C1083 1.369 . S
C1082 C1086 1.531 . S
C1083 C1082 1.369 . S
C1083 C1084 1.410 . S
C1083 C1091 1.503 . S
C1084 C1083 1.410 . S
C1084 C1085 1.392 . S
C1084 C1087 1.511 . S
C1085 C1081 1.376 . S
C1085 C1084 1.392 . S
C1085 H1097 0.929 . S
C1086 C1082 1.531 . S
C1086 H1098 0.960 . S
C1086 H1099 0.962 . S
C1086 H1100 0.960 . S
C1087 C1084 1.511 . S
C1087 H1101 0.961 . S
C1087 H1102 0.961 . S
C1087 H1103 0.961 . S
C1088 C1089 1.370 . S
C1088 C1090 1.363 . S
C1088 H1104 0.931 . S
C1089 C1088 1.370 . S
C1089 C1093 1.408 . S
C1090 C1088 1.363 . S
C1090 C1091 1.370 . S
C1090 C1094 1.524 . S
C1091 C1083 1.503 . S
C1091 C1090 1.370 . S
C1091 C1092 1.403 . S
C1092 C1091 1.403 . S
C1092 C1093 1.404 . S
C1092 C1095 1.539 . S
C1093 C1089 1.408 . S
C1093 C1092 1.404 . S
C1093 H1105 0.930 . S
C1094 C1090 1.524 . S
C1094 H1106 0.956 . S
C1094 H1107 0.961 . S
C1094 H1108 0.961 . S
C1095 C1092 1.539 . S
C1095 H1109 0.958 . S
C1095 H1110 0.961 . S
C1095 H1111 0.960 . S
H1096 C1080 0.931 . S
H1097 C1085 0.929 . S
H1098 C1086 0.960 . S
H1099 C1086 0.962 . S
H1100 C1086 0.960 . S
H1101 C1087 0.961 . S
H1102 C1087 0.961 . S
H1103 C1087 0.961 . S
H1104 C1088 0.931 . S
H1105 C1093 0.930 . S
H1106 C1094 0.956 . S
H1107 C1094 0.961 . S
H1108 C1094 0.961 . S
H1109 C1095 0.958 . S
H1110 C1095 0.961 . S
H1111 C1095 0.960 . S
C1112 C1113 1.391 . S
C1112 C1114 1.394 . S
C1112 H1128 0.931 . S
C1113 C1112 1.391 . S
C1113 C1117 1.376 . S
C1114 C1112 1.394 . S
C1114 C1115 1.369 . S
C1114 C1118 1.531 . S
C1115 C1114 1.369 . S
C1115 C1116 1.410 . S
C1115 C1123 1.503 . S
C1116 C1115 1.410 . S
C1116 C1117 1.392 . S
C1116 C1119 1.511 . S
C1117 C1113 1.376 . S
C1117 C1116 1.392 . S
C1117 H1129 0.929 . S
C1118 C1114 1.531 . S
C1118 H1130 0.960 . S
C1118 H1131 0.962 . S
C1118 H1132 0.960 . S
C1119 C1116 1.511 . S
C1119 H1133 0.961 . S
C1119 H1134 0.961 . S
C1119 H1135 0.961 . S
C1120 C1121 1.370 . S
C1120 C1122 1.363 . S
C1120 H1136 0.931 . S
C1121 C1120 1.370 . S
C1121 C1125 1.408 . S
C1122 C1120 1.363 . S
C1122 C1123 1.370 . S
C1122 C1126 1.524 . S
C1123 C1115 1.503 . S
C1123 C1122 1.370 . S
C1123 C1124 1.403 . S
C1124 C1123 1.403 . S
C1124 C1125 1.404 . S
C1124 C1127 1.539 . S
C1125 C1121 1.408 . S
C1125 C1124 1.404 . S
C1125 H1137 0.930 . S
C1126 C1122 1.524 . S
C1126 H1138 0.956 . S
C1126 H1139 0.961 . S
C1126 H1140 0.961 . S
C1127 C1124 1.539 . S
C1127 H1141 0.958 . S
C1127 H1142 0.961 . S
C1127 H1143 0.960 . S
H1128 C1112 0.931 . S
H1129 C1117 0.929 . S
H1130 C1118 0.960 . S
H1131 C1118 0.962 . S
H1132 C1118 0.960 . S
H1133 C1119 0.961 . S
H1134 C1119 0.961 . S
H1135 C1119 0.961 . S
H1136 C1120 0.931 . S
H1137 C1125 0.930 . S
H1138 C1126 0.956 . S
H1139 C1126 0.961 . S
H1140 C1126 0.961 . S
H1141 C1127 0.958 . S
H1142 C1127 0.961 . S
H1143 C1127 0.960 . S
C1144 C1145 1.391 . S
C1144 C1146 1.394 . S
C1144 H1160 0.931 1_554 S
C1145 C1144 1.391 . S
C1145 C1149 1.376 . S
C1146 C1144 1.394 . S
C1146 C1147 1.369 . S
C1146 C1150 1.531 . S
C1147 C1146 1.369 . S
C1147 C1148 1.410 . S
C1147 C1155 1.503 . S
C1148 C1147 1.410 . S
C1148 C1149 1.392 . S
C1148 C1151 1.511 . S
C1149 C1145 1.376 . S
C1149 C1148 1.392 . S
C1149 H1161 0.929 . S
C1150 C1146 1.531 . S
C1150 H1162 0.960 . S
C1150 H1163 0.962 . S
C1150 H1164 0.960 . S
C1151 C1148 1.511 . S
C1151 H1165 0.961 . S
C1151 H1166 0.961 . S
C1151 H1167 0.961 . S
C1152 C1153 1.370 . S
C1152 C1154 1.363 . S
C1152 H1168 0.931 . S
C1153 C1152 1.370 . S
C1153 C1157 1.408 . S
C1154 C1152 1.363 . S
C1154 C1155 1.370 . S
C1154 C1158 1.524 . S
C1155 C1147 1.503 . S
C1155 C1154 1.370 . S
C1155 C1156 1.403 . S
C1156 C1155 1.403 . S
C1156 C1157 1.404 . S
C1156 C1159 1.539 . S
C1157 C1153 1.408 . S
C1157 C1156 1.404 . S
C1157 H1169 0.930 . S
C1158 C1154 1.524 . S
C1158 H1170 0.956 . S
C1158 H1171 0.961 . S
C1158 H1172 0.961 . S
C1159 C1156 1.539 . S
C1159 H1173 0.958 . S
C1159 H1174 0.961 . S
C1159 H1175 0.960 . S
H1160 C1144 0.931 1_556 S
H1161 C1149 0.929 . S
H1162 C1150 0.960 . S
H1163 C1150 0.962 . S
H1164 C1150 0.960 . S
H1165 C1151 0.961 . S
H1166 C1151 0.961 . S
H1167 C1151 0.961 . S
H1168 C1152 0.931 . S
H1169 C1157 0.930 . S
H1170 C1158 0.956 . S
H1171 C1158 0.961 . S
H1172 C1158 0.961 . S
H1173 C1159 0.958 . S
H1174 C1159 0.961 . S
H1175 C1159 0.960 . S
C1176 C1177 1.391 . S
C1176 C1178 1.394 . S
C1176 H1192 0.931 . S
C1177 C1176 1.391 . S
C1177 C1181 1.376 . S
C1178 C1176 1.394 . S
C1178 C1179 1.369 . S
C1178 C1182 1.531 . S
C1179 C1178 1.369 . S
C1179 C1180 1.410 . S
C1179 C1187 1.503 . S
C1180 C1179 1.410 . S
C1180 C1181 1.392 . S
C1180 C1183 1.511 . S
C1181 C1177 1.376 . S
C1181 C1180 1.392 . S
C1181 H1193 0.929 . S
C1182 C1178 1.531 . S
C1182 H1194 0.960 . S
C1182 H1195 0.962 . S
C1182 H1196 0.960 . S
C1183 C1180 1.511 . S
C1183 H1197 0.961 . S
C1183 H1198 0.961 . S
C1183 H1199 0.961 . S
C1184 C1185 1.370 . S
C1184 C1186 1.363 . S
C1184 H1200 0.931 . S
C1185 C1184 1.370 . S
C1185 C1189 1.408 . S
C1186 C1184 1.363 . S
C1186 C1187 1.370 . S
C1186 C1190 1.524 . S
C1187 C1179 1.503 . S
C1187 C1186 1.370 . S
C1187 C1188 1.403 . S
C1188 C1187 1.403 . S
C1188 C1189 1.404 . S
C1188 C1191 1.539 . S
C1189 C1185 1.408 . S
C1189 C1188 1.404 . S
C1189 H1201 0.930 . S
C1190 C1186 1.524 . S
C1190 H1202 0.956 . S
C1190 H1203 0.961 . S
C1190 H1204 0.961 . S
C1191 C1188 1.539 . S
C1191 H1205 0.958 . S
C1191 H1206 0.961 . S
C1191 H1207 0.960 . S
H1192 C1176 0.931 . S
H1193 C1181 0.929 . S
H1194 C1182 0.960 . S
H1195 C1182 0.962 . S
H1196 C1182 0.960 . S
H1197 C1183 0.961 . S
H1198 C1183 0.961 . S
H1199 C1183 0.961 . S
H1200 C1184 0.931 . S
H1201 C1189 0.930 . S
H1202 C1190 0.956 . S
H1203 C1190 0.961 . S
H1204 C1190 0.961 . S
H1205 C1191 0.958 . S
H1206 C1191 0.961 . S
H1207 C1191 0.960 . S
C1208 C1209 1.391 . S
C1208 C1210 1.394 . S
C1208 H1224 0.931 . S
C1209 C1208 1.391 . S
C1209 C1213 1.376 . S
C1210 C1208 1.394 . S
C1210 C1211 1.369 . S
C1210 C1214 1.531 . S
C1211 C1210 1.369 . S
C1211 C1212 1.410 . S
C1211 C1219 1.503 . S
C1212 C1211 1.410 . S
C1212 C1213 1.392 . S
C1212 C1215 1.511 . S
C1213 C1209 1.376 . S
C1213 C1212 1.392 . S
C1213 H1225 0.929 . S
C1214 C1210 1.531 . S
C1214 H1226 0.960 . S
C1214 H1227 0.962 . S
C1214 H1228 0.960 . S
C1215 C1212 1.511 . S
C1215 H1229 0.961 . S
C1215 H1230 0.961 . S
C1215 H1231 0.961 . S
C1216 C1217 1.370 . S
C1216 C1218 1.363 . S
C1216 H1232 0.931 . S
C1217 C1216 1.370 . S
C1217 C1221 1.408 . S
C1218 C1216 1.363 . S
C1218 C1219 1.370 . S
C1218 C1222 1.524 . S
C1219 C1211 1.503 . S
C1219 C1218 1.370 . S
C1219 C1220 1.403 . S
C1220 C1219 1.403 . S
C1220 C1221 1.404 . S
C1220 C1223 1.539 . S
C1221 C1217 1.408 . S
C1221 C1220 1.404 . S
C1221 H1233 0.930 1_556 S
C1222 C1218 1.524 . S
C1222 H1234 0.956 . S
C1222 H1235 0.961 . S
C1222 H1236 0.961 . S
C1223 C1220 1.539 . S
C1223 H1237 0.958 . S
C1223 H1238 0.961 . S
C1223 H1239 0.960 . S
H1224 C1208 0.931 . S
H1225 C1213 0.929 . S
H1226 C1214 0.960 . S
H1227 C1214 0.962 . S
H1228 C1214 0.960 . S
H1229 C1215 0.961 . S
H1230 C1215 0.961 . S
H1231 C1215 0.961 . S
H1232 C1216 0.931 . S
H1233 C1221 0.930 1_554 S
H1234 C1222 0.956 . S
H1235 C1222 0.961 . S
H1236 C1222 0.961 . S
H1237 C1223 0.958 . S
H1238 C1223 0.961 . S
H1239 C1223 0.960 . S
C1240 C1241 1.391 . S
C1240 C1242 1.394 . S
C1240 H1256 0.931 . S
C1241 C1240 1.391 . S
C1241 C1245 1.376 . S
C1242 C1240 1.394 . S
C1242 C1243 1.369 . S
C1242 C1246 1.531 . S
C1243 C1242 1.369 . S
C1243 C1244 1.410 . S
C1243 C1251 1.503 . S
C1244 C1243 1.410 . S
C1244 C1245 1.392 . S
C1244 C1247 1.511 . S
C1245 C1241 1.376 . S
C1245 C1244 1.392 . S
C1245 H1257 0.929 . S
C1246 C1242 1.531 . S
C1246 H1258 0.960 . S
C1246 H1259 0.962 . S
C1246 H1260 0.960 . S
C1247 C1244 1.511 . S
C1247 H1261 0.961 . S
C1247 H1262 0.961 . S
C1247 H1263 0.961 . S
C1248 C1249 1.370 . S
C1248 C1250 1.363 . S
C1248 H1264 0.931 . S
C1249 C1248 1.370 . S
C1249 C1253 1.408 . S
C1250 C1248 1.363 . S
C1250 C1251 1.370 . S
C1250 C1254 1.524 . S
C1251 C1243 1.503 . S
C1251 C1250 1.370 . S
C1251 C1252 1.403 . S
C1252 C1251 1.403 . S
C1252 C1253 1.404 . S
C1252 C1255 1.539 . S
C1253 C1249 1.408 . S
C1253 C1252 1.404 . S
C1253 H1265 0.930 . S
C1254 C1250 1.524 . S
C1254 H1266 0.956 . S
C1254 H1267 0.961 . S
C1254 H1268 0.961 . S
C1255 C1252 1.539 . S
C1255 H1269 0.958 . S
C1255 H1270 0.961 . S
C1255 H1271 0.960 . S
H1256 C1240 0.931 . S
H1257 C1245 0.929 . S
H1258 C1246 0.960 . S
H1259 C1246 0.962 . S
H1260 C1246 0.960 . S
H1261 C1247 0.961 . S
H1262 C1247 0.961 . S
H1263 C1247 0.961 . S
H1264 C1248 0.931 . S
H1265 C1253 0.930 . S
H1266 C1254 0.956 . S
H1267 C1254 0.961 . S
H1268 C1254 0.961 . S
H1269 C1255 0.958 . S
H1270 C1255 0.961 . S
H1271 C1255 0.960 . S
C1272 C1273 1.391 . S
C1272 C1274 1.394 . S
C1272 H1288 0.931 . S
C1273 C1272 1.391 . S
C1273 C1277 1.376 . S
C1274 C1272 1.394 . S
C1274 C1275 1.369 . S
C1274 C1278 1.531 . S
C1275 C1274 1.369 . S
C1275 C1276 1.410 . S
C1275 C1283 1.503 . S
C1276 C1275 1.410 . S
C1276 C1277 1.392 . S
C1276 C1279 1.511 . S
C1277 C1273 1.376 . S
C1277 C1276 1.392 . S
C1277 H1289 0.929 . S
C1278 C1274 1.531 . S
C1278 H1290 0.960 . S
C1278 H1291 0.962 . S
C1278 H1292 0.960 . S
C1279 C1276 1.511 . S
C1279 H1293 0.961 . S
C1279 H1294 0.961 . S
C1279 H1295 0.961 . S
C1280 C1281 1.370 . S
C1280 C1282 1.363 . S
C1280 H1296 0.931 . S
C1281 C1280 1.370 . S
C1281 C1285 1.408 . S
C1282 C1280 1.363 . S
C1282 C1283 1.370 . S
C1282 C1286 1.524 . S
C1283 C1275 1.503 . S
C1283 C1282 1.370 . S
C1283 C1284 1.403 . S
C1284 C1283 1.403 . S
C1284 C1285 1.404 . S
C1284 C1287 1.539 . S
C1285 C1281 1.408 . S
C1285 C1284 1.404 . S
C1285 H1297 0.930 . S
C1286 C1282 1.524 . S
C1286 H1298 0.956 . S
C1286 H1299 0.961 . S
C1286 H1300 0.961 . S
C1287 C1284 1.539 . S
C1287 H1301 0.958 . S
C1287 H1302 0.961 . S
C1287 H1303 0.960 . S
H1288 C1272 0.931 . S
H1289 C1277 0.929 . S
H1290 C1278 0.960 . S
H1291 C1278 0.962 . S
H1292 C1278 0.960 . S
H1293 C1279 0.961 . S
H1294 C1279 0.961 . S
H1295 C1279 0.961 . S
H1296 C1280 0.931 . S
H1297 C1285 0.930 . S
H1298 C1286 0.956 . S
H1299 C1286 0.961 . S
H1300 C1286 0.961 . S
H1301 C1287 0.958 . S
H1302 C1287 0.961 . S
H1303 C1287 0.960 . S
C1304 C1305 1.391 . S
C1304 C1306 1.394 . S
C1304 H1320 0.931 . S
C1305 C1304 1.391 . S
C1305 C1309 1.376 . S
C1306 C1304 1.394 . S
C1306 C1307 1.369 . S
C1306 C1310 1.531 . S
C1307 C1306 1.369 . S
C1307 C1308 1.410 . S
C1307 C1315 1.503 . S
C1308 C1307 1.410 . S
C1308 C1309 1.392 . S
C1308 C1311 1.511 . S
C1309 C1305 1.376 . S
C1309 C1308 1.392 . S
C1309 H1321 0.929 . S
C1310 C1306 1.531 . S
C1310 H1322 0.960 . S
C1310 H1323 0.962 . S
C1310 H1324 0.960 . S
C1311 C1308 1.511 . S
C1311 H1325 0.961 . S
C1311 H1326 0.961 . S
C1311 H1327 0.961 . S
C1312 C1313 1.370 . S
C1312 C1314 1.363 . S
C1312 H1328 0.931 . S
C1313 C1312 1.370 . S
C1313 C1317 1.408 . S
C1314 C1312 1.363 . S
C1314 C1315 1.370 . S
C1314 C1318 1.524 . S
C1315 C1307 1.503 . S
C1315 C1314 1.370 . S
C1315 C1316 1.403 . S
C1316 C1315 1.403 . S
C1316 C1317 1.404 . S
C1316 C1319 1.539 . S
C1317 C1313 1.408 . S
C1317 C1316 1.404 . S
C1317 H1329 0.930 . S
C1318 C1314 1.524 . S
C1318 H1330 0.956 . S
C1318 H1331 0.961 . S
C1318 H1332 0.961 . S
C1319 C1316 1.539 . S
C1319 H1333 0.958 . S
C1319 H1334 0.961 . S
C1319 H1335 0.960 . S
H1320 C1304 0.931 . S
H1321 C1309 0.929 . S
H1322 C1310 0.960 . S
H1323 C1310 0.962 . S
H1324 C1310 0.960 . S
H1325 C1311 0.961 . S
H1326 C1311 0.961 . S
H1327 C1311 0.961 . S
H1328 C1312 0.931 . S
H1329 C1317 0.930 . S
H1330 C1318 0.956 . S
H1331 C1318 0.961 . S
H1332 C1318 0.961 . S
H1333 C1319 0.958 . S
H1334 C1319 0.961 . S
H1335 C1319 0.960 . S
C1336 C1337 1.391 . S
C1336 C1338 1.394 . S
C1336 H1352 0.931 . S
C1337 C1336 1.391 . S
C1337 C1341 1.376 . S
C1338 C1336 1.394 . S
C1338 C1339 1.369 . S
C1338 C1342 1.531 . S
C1339 C1338 1.369 . S
C1339 C1340 1.410 . S
C1339 C1347 1.503 . S
C1340 C1339 1.410 . S
C1340 C1341 1.392 . S
C1340 C1343 1.511 . S
C1341 C1337 1.376 . S
C1341 C1340 1.392 . S
C1341 H1353 0.929 . S
C1342 C1338 1.531 . S
C1342 H1354 0.960 . S
C1342 H1355 0.962 . S
C1342 H1356 0.960 . S
C1343 C1340 1.511 . S
C1343 H1357 0.961 . S
C1343 H1358 0.961 . S
C1343 H1359 0.961 . S
C1344 C1345 1.370 . S
C1344 C1346 1.363 . S
C1344 H1360 0.931 . S
C1345 C1344 1.370 . S
C1345 C1349 1.408 . S
C1346 C1344 1.363 . S
C1346 C1347 1.370 . S
C1346 C1350 1.524 . S
C1347 C1339 1.503 . S
C1347 C1346 1.370 . S
C1347 C1348 1.403 . S
C1348 C1347 1.403 . S
C1348 C1349 1.404 . S
C1348 C1351 1.539 . S
C1349 C1345 1.408 . S
C1349 C1348 1.404 . S
C1349 H1361 0.930 . S
C1350 C1346 1.524 . S
C1350 H1362 0.956 . S
C1350 H1363 0.961 . S
C1350 H1364 0.961 . S
C1351 C1348 1.539 . S
C1351 H1365 0.958 . S
C1351 H1366 0.961 . S
C1351 H1367 0.960 . S
H1352 C1336 0.931 . S
H1353 C1341 0.929 . S
H1354 C1342 0.960 . S
H1355 C1342 0.962 . S
H1356 C1342 0.960 . S
H1357 C1343 0.961 . S
H1358 C1343 0.961 . S
H1359 C1343 0.961 . S
H1360 C1344 0.931 . S
H1361 C1349 0.930 . S
H1362 C1350 0.956 . S
H1363 C1350 0.961 . S
H1364 C1350 0.961 . S
H1365 C1351 0.958 . S
H1366 C1351 0.961 . S
H1367 C1351 0.960 . S
C1368 C1369 1.391 . S
C1368 C1370 1.394 . S
C1368 H1384 0.931 1_545 S
C1369 C1368 1.391 . S
C1369 C1373 1.376 . S
C1370 C1368 1.394 . S
C1370 C1371 1.369 . S
C1370 C1374 1.531 . S
C1371 C1370 1.369 . S
C1371 C1372 1.410 . S
C1371 C1379 1.503 . S
C1372 C1371 1.410 . S
C1372 C1373 1.392 . S
C1372 C1375 1.511 . S
C1373 C1369 1.376 . S
C1373 C1372 1.392 . S
C1373 H1385 0.929 . S
C1374 C1370 1.531 . S
C1374 H1386 0.960 . S
C1374 H1387 0.962 . S
C1374 H1388 0.960 . S
C1375 C1372 1.511 . S
C1375 H1389 0.961 . S
C1375 H1390 0.961 . S
C1375 H1391 0.961 . S
C1376 C1377 1.370 . S
C1376 C1378 1.363 . S
C1376 H1392 0.931 . S
C1377 C1376 1.370 . S
C1377 C1381 1.408 . S
C1378 C1376 1.363 . S
C1378 C1379 1.370 . S
C1378 C1382 1.524 . S
C1379 C1371 1.503 . S
C1379 C1378 1.370 . S
C1379 C1380 1.403 . S
C1380 C1379 1.403 . S
C1380 C1381 1.404 . S
C1380 C1383 1.539 . S
C1381 C1377 1.408 . S
C1381 C1380 1.404 . S
C1381 H1393 0.930 . S
C1382 C1378 1.524 . S
C1382 H1394 0.956 . S
C1382 H1395 0.961 . S
C1382 H1396 0.961 . S
C1383 C1380 1.539 . S
C1383 H1397 0.958 . S
C1383 H1398 0.961 . S
C1383 H1399 0.960 . S
H1384 C1368 0.931 1_565 S
H1385 C1373 0.929 . S
H1386 C1374 0.960 . S
H1387 C1374 0.962 . S
H1388 C1374 0.960 . S
H1389 C1375 0.961 . S
H1390 C1375 0.961 . S
H1391 C1375 0.961 . S
H1392 C1376 0.931 . S
H1393 C1381 0.930 . S
H1394 C1382 0.956 . S
H1395 C1382 0.961 . S
H1396 C1382 0.961 . S
H1397 C1383 0.958 . S
H1398 C1383 0.961 . S
H1399 C1383 0.960 . S
C1400 C1401 1.391 . S
C1400 C1402 1.394 . S
C1400 H1416 0.931 . S
C1401 C1400 1.391 . S
C1401 C1405 1.376 . S
C1402 C1400 1.394 . S
C1402 C1403 1.369 . S
C1402 C1406 1.531 . S
C1403 C1402 1.369 . S
C1403 C1404 1.410 . S
C1403 C1411 1.503 . S
C1404 C1403 1.410 . S
C1404 C1405 1.392 . S
C1404 C1407 1.511 . S
C1405 C1401 1.376 . S
C1405 C1404 1.392 . S
C1405 H1417 0.929 . S
C1406 C1402 1.531 . S
C1406 H1418 0.960 . S
C1406 H1419 0.962 . S
C1406 H1420 0.960 . S
C1407 C1404 1.511 . S
C1407 H1421 0.961 . S
C1407 H1422 0.961 . S
C1407 H1423 0.961 . S
C1408 C1409 1.370 . S
C1408 C1410 1.363 . S
C1408 H1424 0.931 . S
C1409 C1408 1.370 . S
C1409 C1413 1.408 . S
C1410 C1408 1.363 . S
C1410 C1411 1.370 . S
C1410 C1414 1.524 . S
C1411 C1403 1.503 . S
C1411 C1410 1.370 . S
C1411 C1412 1.403 . S
C1412 C1411 1.403 . S
C1412 C1413 1.404 . S
C1412 C1415 1.539 . S
C1413 C1409 1.408 . S
C1413 C1412 1.404 . S
C1413 H1425 0.930 . S
C1414 C1410 1.524 . S
C1414 H1426 0.956 . S
C1414 H1427 0.961 . S
C1414 H1428 0.961 . S
C1415 C1412 1.539 . S
C1415 H1429 0.958 . S
C1415 H1430 0.961 . S
C1415 H1431 0.960 . S
H1416 C1400 0.931 . S
H1417 C1405 0.929 . S
H1418 C1406 0.960 . S
H1419 C1406 0.962 . S
H1420 C1406 0.960 . S
H1421 C1407 0.961 . S
H1422 C1407 0.961 . S
H1423 C1407 0.961 . S
H1424 C1408 0.931 . S
H1425 C1413 0.930 . S
H1426 C1414 0.956 . S
H1427 C1414 0.961 . S
H1428 C1414 0.961 . S
H1429 C1415 0.958 . S
H1430 C1415 0.961 . S
H1431 C1415 0.960 . S
C1432 C1433 1.391 . S
C1432 C1434 1.394 . S
C1432 H1448 0.931 1_565 S
C1433 C1432 1.391 . S
C1433 C1437 1.376 . S
C1434 C1432 1.394 . S
C1434 C1435 1.369 . S
C1434 C1438 1.531 . S
C1435 C1434 1.369 . S
C1435 C1436 1.410 . S
C1435 C1443 1.503 . S
C1436 C1435 1.410 . S
C1436 C1437 1.392 . S
C1436 C1439 1.511 . S
C1437 C1433 1.376 . S
C1437 C1436 1.392 . S
C1437 H1449 0.929 . S
C1438 C1434 1.531 . S
C1438 H1450 0.960 . S
C1438 H1451 0.962 . S
C1438 H1452 0.960 . S
C1439 C1436 1.511 . S
C1439 H1453 0.961 . S
C1439 H1454 0.961 . S
C1439 H1455 0.961 . S
C1440 C1441 1.370 . S
C1440 C1442 1.363 . S
C1440 H1456 0.931 . S
C1441 C1440 1.370 . S
C1441 C1445 1.408 . S
C1442 C1440 1.363 . S
C1442 C1443 1.370 . S
C1442 C1446 1.524 . S
C1443 C1435 1.503 . S
C1443 C1442 1.370 . S
C1443 C1444 1.403 . S
C1444 C1443 1.403 . S
C1444 C1445 1.404 . S
C1444 C1447 1.539 . S
C1445 C1441 1.408 . S
C1445 C1444 1.404 . S
C1445 H1457 0.930 . S
C1446 C1442 1.524 . S
C1446 H1458 0.956 . S
C1446 H1459 0.961 . S
C1446 H1460 0.961 . S
C1447 C1444 1.539 . S
C1447 H1461 0.958 . S
C1447 H1462 0.961 . S
C1447 H1463 0.960 . S
H1448 C1432 0.931 1_545 S
H1449 C1437 0.929 . S
H1450 C1438 0.960 . S
H1451 C1438 0.962 . S
H1452 C1438 0.960 . S
H1453 C1439 0.961 . S
H1454 C1439 0.961 . S
H1455 C1439 0.961 . S
H1456 C1440 0.931 . S
H1457 C1445 0.930 . S
H1458 C1446 0.956 . S
H1459 C1446 0.961 . S
H1460 C1446 0.961 . S
H1461 C1447 0.958 . S
H1462 C1447 0.961 . S
H1463 C1447 0.960 . S
C1464 C1465 1.391 . S
C1464 C1466 1.394 . S
C1464 H1480 0.931 . S
C1465 C1464 1.391 . S
C1465 C1469 1.376 . S
C1466 C1464 1.394 . S
C1466 C1467 1.369 . S
C1466 C1470 1.531 . S
C1467 C1466 1.369 . S
C1467 C1468 1.410 . S
C1467 C1475 1.503 . S
C1468 C1467 1.410 . S
C1468 C1469 1.392 . S
C1468 C1471 1.511 . S
C1469 C1465 1.376 . S
C1469 C1468 1.392 . S
C1469 H1481 0.929 . S
C1470 C1466 1.531 . S
C1470 H1482 0.960 . S
C1470 H1483 0.962 . S
C1470 H1484 0.960 . S
C1471 C1468 1.511 . S
C1471 H1485 0.961 . S
C1471 H1486 0.961 . S
C1471 H1487 0.961 . S
C1472 C1473 1.370 . S
C1472 C1474 1.363 . S
C1472 H1488 0.931 . S
C1473 C1472 1.370 . S
C1473 C1477 1.408 . S
C1474 C1472 1.363 . S
C1474 C1475 1.370 . S
C1474 C1478 1.524 . S
C1475 C1467 1.503 . S
C1475 C1474 1.370 . S
C1475 C1476 1.403 . S
C1476 C1475 1.403 . S
C1476 C1477 1.404 . S
C1476 C1479 1.539 . S
C1477 C1473 1.408 . S
C1477 C1476 1.404 . S
C1477 H1489 0.930 . S
C1478 C1474 1.524 . S
C1478 H1490 0.956 . S
C1478 H1491 0.961 . S
C1478 H1492 0.961 . S
C1479 C1476 1.539 . S
C1479 H1493 0.958 . S
C1479 H1494 0.961 . S
C1479 H1495 0.960 . S
H1480 C1464 0.931 . S
H1481 C1469 0.929 . S
H1482 C1470 0.960 . S
H1483 C1470 0.962 . S
H1484 C1470 0.960 . S
H1485 C1471 0.961 . S
H1486 C1471 0.961 . S
H1487 C1471 0.961 . S
H1488 C1472 0.931 . S
H1489 C1477 0.930 . S
H1490 C1478 0.956 . S
H1491 C1478 0.961 . S
H1492 C1478 0.961 . S
H1493 C1479 0.958 . S
H1494 C1479 0.961 . S
H1495 C1479 0.960 . S
C1496 C1497 1.391 . S
C1496 C1498 1.394 . S
C1496 H1512 0.931 . S
C1497 C1496 1.391 . S
C1497 C1501 1.376 . S
C1498 C1496 1.394 . S
C1498 C1499 1.369 . S
C1498 C1502 1.531 . S
C1499 C1498 1.369 . S
C1499 C1500 1.410 . S
C1499 C1507 1.503 . S
C1500 C1499 1.410 . S
C1500 C1501 1.392 . S
C1500 C1503 1.511 . S
C1501 C1497 1.376 . S
C1501 C1500 1.392 . S
C1501 H1513 0.929 . S
C1502 C1498 1.531 . S
C1502 H1514 0.960 . S
C1502 H1515 0.962 . S
C1502 H1516 0.960 . S
C1503 C1500 1.511 . S
C1503 H1517 0.961 . S
C1503 H1518 0.961 . S
C1503 H1519 0.961 . S
C1504 C1505 1.370 . S
C1504 C1506 1.363 . S
C1504 H1520 0.931 . S
C1505 C1504 1.370 . S
C1505 C1509 1.408 . S
C1506 C1504 1.363 . S
C1506 C1507 1.370 . S
C1506 C1510 1.524 . S
C1507 C1499 1.503 . S
C1507 C1506 1.370 . S
C1507 C1508 1.403 . S
C1508 C1507 1.403 . S
C1508 C1509 1.404 . S
C1508 C1511 1.539 . S
C1509 C1505 1.408 . S
C1509 C1508 1.404 . S
C1509 H1521 0.930 . S
C1510 C1506 1.524 . S
C1510 H1522 0.956 . S
C1510 H1523 0.961 . S
C1510 H1524 0.961 . S
C1511 C1508 1.539 . S
C1511 H1525 0.958 . S
C1511 H1526 0.961 . S
C1511 H1527 0.960 . S
H1512 C1496 0.931 . S
H1513 C1501 0.929 . S
H1514 C1502 0.960 . S
H1515 C1502 0.962 . S
H1516 C1502 0.960 . S
H1517 C1503 0.961 . S
H1518 C1503 0.961 . S
H1519 C1503 0.961 . S
H1520 C1504 0.931 . S
H1521 C1509 0.930 . S
H1522 C1510 0.956 . S
H1523 C1510 0.961 . S
H1524 C1510 0.961 . S
H1525 C1511 0.958 . S
H1526 C1511 0.961 . S
H1527 C1511 0.960 . S
C1528 C1529 1.391 . S
C1528 C1530 1.394 . S
C1528 H1544 0.931 1_545 S
C1529 C1528 1.391 . S
C1529 C1533 1.376 . S
C1530 C1528 1.394 . S
C1530 C1531 1.369 . S
C1530 C1534 1.531 . S
C1531 C1530 1.369 . S
C1531 C1532 1.410 . S
C1531 C1539 1.503 . S
C1532 C1531 1.410 . S
C1532 C1533 1.392 . S
C1532 C1535 1.511 . S
C1533 C1529 1.376 . S
C1533 C1532 1.392 . S
C1533 H1545 0.929 . S
C1534 C1530 1.531 . S
C1534 H1546 0.960 . S
C1534 H1547 0.962 . S
C1534 H1548 0.959 . S
C1535 C1532 1.511 . S
C1535 H1549 0.961 . S
C1535 H1550 0.961 . S
C1535 H1551 0.961 . S
C1536 C1537 1.370 . S
C1536 C1538 1.363 . S
C1536 H1552 0.931 . S
C1537 C1536 1.370 . S
C1537 C1541 1.408 . S
C1538 C1536 1.363 . S
C1538 C1539 1.370 . S
C1538 C1542 1.524 . S
C1539 C1531 1.503 . S
C1539 C1538 1.370 . S
C1539 C1540 1.403 . S
C1540 C1539 1.403 . S
C1540 C1541 1.404 . S
C1540 C1543 1.539 . S
C1541 C1537 1.408 . S
C1541 C1540 1.404 . S
C1541 H1553 0.930 . S
C1542 C1538 1.524 . S
C1542 H1554 0.956 . S
C1542 H1555 0.961 . S
C1542 H1556 0.961 . S
C1543 C1540 1.539 . S
C1543 H1557 0.958 . S
C1543 H1558 0.961 . S
C1543 H1559 0.960 . S
H1544 C1528 0.931 1_565 S
H1545 C1533 0.929 . S
H1546 C1534 0.960 . S
H1547 C1534 0.962 . S
H1548 C1534 0.959 . S
H1549 C1535 0.961 . S
H1550 C1535 0.961 . S
H1551 C1535 0.961 . S
H1552 C1536 0.931 . S
H1553 C1541 0.930 . S
H1554 C1542 0.956 . S
H1555 C1542 0.961 . S
H1556 C1542 0.961 . S
H1557 C1543 0.958 . S
H1558 C1543 0.961 . S
H1559 C1543 0.960 . S
C1560 C1561 1.370 1_455 S
C1560 C1562 1.401 . S
C1560 H1576 0.944 . S
C1561 C1560 1.370 1_655 S
C1561 C1565 1.376 . S
C1562 C1560 1.401 . S
C1562 C1563 1.369 1_455 S
C1562 C1566 1.531 . S
C1563 C1562 1.369 1_655 S
C1563 C1564 1.410 . S
C1563 C1571 1.503 1_656 S
C1564 C1563 1.410 . S
C1564 C1565 1.392 . S
C1564 C1567 1.511 1_556 S
C1565 C1561 1.376 . S
C1565 C1564 1.392 . S
C1565 H1577 0.929 . S
C1566 C1562 1.531 . S
C1566 H1578 0.960 . S
C1566 H1579 0.962 . S
C1566 H1580 0.960 . S
C1567 C1564 1.511 1_554 S
C1567 H1581 0.970 . S
C1567 H1582 0.961 . S
C1567 H1583 0.961 . S
C1568 C1569 1.370 . S
C1568 C1570 1.363 . S
C1568 H1584 0.931 . S
C1569 C1568 1.370 . S
C1569 C1573 1.408 . S
C1570 C1568 1.363 . S
C1570 C1571 1.370 . S
C1570 C1574 1.524 . S
C1571 C1563 1.503 1_454 S
C1571 C1570 1.370 . S
C1571 C1572 1.403 . S
C1572 C1571 1.403 . S
C1572 C1573 1.404 . S
C1572 C1575 1.539 1_455 S
C1573 C1569 1.408 . S
C1573 C1572 1.404 . S
C1573 H1585 0.930 . S
C1574 C1570 1.524 . S
C1574 H1586 0.956 1_554 S
C1574 H1587 0.961 1_455 S
C1574 H1588 0.961 . S
C1575 C1572 1.539 1_655 S
C1575 H1589 0.958 1_655 S
C1575 H1590 0.961 . S
C1575 H1591 0.960 . S
H1576 C1560 0.944 . S
H1577 C1565 0.929 . S
H1578 C1566 0.960 . S
H1579 C1566 0.962 . S
H1580 C1566 0.960 . S
H1581 C1567 0.970 . S
H1582 C1567 0.961 . S
H1583 C1567 0.961 . S
H1584 C1568 0.931 . S
H1585 C1573 0.930 . S
H1586 C1574 0.956 1_556 S
H1587 C1574 0.961 1_655 S
H1588 C1574 0.961 . S
H1589 C1575 0.958 1_455 S
H1590 C1575 0.961 . S
H1591 C1575 0.960 . S
C1592 C1593 1.391 . S
C1592 C1594 1.394 . S
C1592 H1608 0.931 . S
C1593 C1592 1.391 . S
C1593 C1597 1.376 . S
C1594 C1592 1.394 . S
C1594 C1595 1.369 . S
C1594 C1598 1.531 . S
C1595 C1594 1.369 . S
C1595 C1596 1.410 . S
C1595 C1603 1.503 . S
C1596 C1595 1.410 . S
C1596 C1597 1.392 . S
C1596 C1599 1.511 . S
C1597 C1593 1.376 . S
C1597 C1596 1.392 . S
C1597 H1609 0.929 . S
C1598 C1594 1.531 . S
C1598 H1610 0.960 . S
C1598 H1611 0.962 . S
C1598 H1612 0.960 . S
C1599 C1596 1.511 . S
C1599 H1613 0.961 . S
C1599 H1614 0.961 . S
C1599 H1615 0.961 . S
C1600 C1601 1.370 . S
C1600 C1602 1.363 . S
C1600 H1616 0.931 . S
C1601 C1600 1.370 . S
C1601 C1605 1.408 . S
C1602 C1600 1.363 . S
C1602 C1603 1.370 . S
C1602 C1606 1.524 . S
C1603 C1595 1.503 . S
C1603 C1602 1.370 . S
C1603 C1604 1.403 . S
C1604 C1603 1.403 . S
C1604 C1605 1.404 . S
C1604 C1607 1.539 . S
C1605 C1601 1.408 . S
C1605 C1604 1.404 . S
C1605 H1617 0.930 . S
C1606 C1602 1.524 . S
C1606 H1618 0.956 . S
C1606 H1619 0.961 . S
C1606 H1620 0.961 . S
C1607 C1604 1.539 . S
C1607 H1621 0.958 . S
C1607 H1622 0.961 . S
C1607 H1623 0.960 . S
H1608 C1592 0.931 . S
H1609 C1597 0.929 . S
H1610 C1598 0.960 . S
H1611 C1598 0.962 . S
H1612 C1598 0.960 . S
H1613 C1599 0.961 . S
H1614 C1599 0.961 . S
H1615 C1599 0.961 . S
H1616 C1600 0.931 . S
H1617 C1605 0.930 . S
H1618 C1606 0.956 . S
H1619 C1606 0.961 . S
H1620 C1606 0.961 . S
H1621 C1607 0.958 . S
H1622 C1607 0.961 . S
H1623 C1607 0.960 . S
C1624 C1625 1.391 . S
C1624 C1626 1.394 1_455 S
C1624 H1640 0.931 1_455 S
C1625 C1624 1.391 . S
C1625 C1629 1.376 . S
C1626 C1624 1.394 1_655 S
C1626 C1627 1.369 1_655 S
C1626 C1630 1.531 . S
C1627 C1626 1.369 1_455 S
C1627 C1628 1.410 . S
C1627 C1635 1.503 1_456 S
C1628 C1627 1.410 . S
C1628 C1629 1.392 . S
C1628 C1631 1.511 1_556 S
C1629 C1625 1.376 . S
C1629 C1628 1.392 . S
C1629 H1641 0.929 . S
C1630 C1626 1.531 . S
C1630 H1642 0.960 . S
C1630 H1643 0.962 . S
C1630 H1644 0.960 . S
C1631 C1628 1.511 1_554 S
C1631 H1645 0.961 1_554 S
C1631 H1646 0.961 . S
C1631 H1647 0.961 . S
C1632 C1633 1.370 . S
C1632 C1634 1.363 . S
C1632 H1648 0.931 . S
C1633 C1632 1.370 . S
C1633 C1637 1.408 . S
C1634 C1632 1.363 . S
C1634 C1635 1.370 . S
C1634 C1638 1.515 1_554 S
C1635 C1627 1.503 1_654 S
C1635 C1634 1.370 . S
C1635 C1636 1.403 1_655 S
C1636 C1635 1.403 1_455 S
C1636 C1637 1.404 1_455 S
C1636 C1639 1.539 . S
C1637 C1633 1.408 . S
C1637 C1636 1.404 1_655 S
C1637 H1649 0.930 . S
C1638 C1634 1.515 1_556 S
C1638 H1650 0.966 . S
C1638 H1651 0.966 . S
C1638 H1652 0.955 1_556 S
C1639 C1636 1.539 . S
C1639 H1653 0.958 . S
C1639 H1654 0.961 . S
C1639 H1655 0.960 . S
H1640 C1624 0.931 1_655 S
H1641 C1629 0.929 . S
H1642 C1630 0.960 . S
H1643 C1630 0.962 . S
H1644 C1630 0.960 . S
H1645 C1631 0.961 1_556 S
H1646 C1631 0.961 . S
H1647 C1631 0.961 . S
H1648 C1632 0.931 . S
H1649 C1637 0.930 . S
H1650 C1638 0.966 . S
H1651 C1638 0.966 . S
H1652 C1638 0.955 1_554 S
H1653 C1639 0.958 . S
H1654 C1639 0.961 . S
H1655 C1639 0.960 . S
C1656 C1657 1.391 . S
C1656 C1658 1.394 . S
C1656 H1672 0.931 . S
C1657 C1656 1.391 . S
C1657 C1661 1.376 . S
C1658 C1656 1.394 . S
C1658 C1659 1.369 . S
C1658 C1662 1.531 . S
C1659 C1658 1.369 . S
C1659 C1660 1.410 . S
C1659 C1667 1.503 . S
C1660 C1659 1.410 . S
C1660 C1661 1.392 . S
C1660 C1663 1.511 . S
C1661 C1657 1.376 . S
C1661 C1660 1.392 . S
C1661 H1673 0.929 . S
C1662 C1658 1.531 . S
C1662 H1674 0.960 . S
C1662 H1675 0.962 . S
C1662 H1676 0.960 . S
C1663 C1660 1.511 . S
C1663 H1677 0.961 . S
C1663 H1678 0.961 . S
C1663 H1679 0.961 . S
C1664 C1665 1.370 . S
C1664 C1666 1.363 . S
C1664 H1680 0.931 . S
C1665 C1664 1.370 . S
C1665 C1669 1.408 . S
C1666 C1664 1.363 . S
C1666 C1667 1.370 . S
C1666 C1670 1.524 . S
C1667 C1659 1.503 . S
C1667 C1666 1.370 . S
C1667 C1668 1.403 . S
C1668 C1667 1.403 . S
C1668 C1669 1.404 . S
C1668 C1671 1.539 . S
C1669 C1665 1.408 . S
C1669 C1668 1.404 . S
C1669 H1681 0.930 . S
C1670 C1666 1.524 . S
C1670 H1682 0.956 . S
C1670 H1683 0.961 . S
C1670 H1684 0.961 . S
C1671 C1668 1.539 . S
C1671 H1685 0.958 . S
C1671 H1686 0.961 . S
C1671 H1687 0.960 . S
H1672 C1656 0.931 . S
H1673 C1661 0.929 . S
H1674 C1662 0.960 . S
H1675 C1662 0.962 . S
H1676 C1662 0.960 . S
H1677 C1663 0.961 . S
H1678 C1663 0.961 . S
H1679 C1663 0.961 . S
H1680 C1664 0.931 . S
H1681 C1669 0.930 . S
H1682 C1670 0.956 . S
H1683 C1670 0.961 . S
H1684 C1670 0.961 . S
H1685 C1671 0.958 . S
H1686 C1671 0.961 . S
H1687 C1671 0.960 . S
C1688 C1689 1.391 . S
C1688 C1690 1.394 . S
C1688 H1704 0.931 . S
C1689 C1688 1.391 . S
C1689 C1693 1.376 . S
C1690 C1688 1.394 . S
C1690 C1691 1.369 . S
C1690 C1694 1.531 1_655 S
C1691 C1690 1.369 . S
C1691 C1692 1.421 . S
C1691 C1699 1.503 1_665 S
C1692 C1691 1.421 . S
C1692 C1693 1.403 . S
C1692 C1695 1.490 1_565 S
C1693 C1689 1.376 . S
C1693 C1692 1.403 . S
C1693 H1705 0.929 . S
C1694 C1690 1.531 1_455 S
C1694 H1706 0.960 . S
C1694 H1707 0.962 . S
C1694 H1708 0.960 1_455 S
C1695 C1692 1.490 1_545 S
C1695 H1709 0.961 . S
C1695 H1710 0.961 . S
C1695 H1711 0.961 . S
C1696 C1697 1.370 . S
C1696 C1698 1.363 . S
C1696 H1712 0.931 . S
C1697 C1696 1.370 . S
C1697 C1701 1.408 . S
C1698 C1696 1.363 . S
C1698 C1699 1.370 . S
C1698 C1702 1.524 1_455 S
C1699 C1691 1.503 1_445 S
C1699 C1698 1.370 . S
C1699 C1700 1.403 1_545 S
C1700 C1699 1.403 1_565 S
C1700 C1701 1.404 1_565 S
C1700 C1703 1.539 . S
C1701 C1697 1.408 . S
C1701 C1700 1.404 1_545 S
C1701 H1713 0.930 1_545 S
C1702 C1698 1.524 1_655 S
C1702 H1714 0.956 . S
C1702 H1715 0.961 . S
C1702 H1716 0.961 1_655 S
C1703 C1700 1.539 . S
C1703 H1717 0.958 . S
C1703 H1718 0.961 . S
C1703 H1719 0.960 . S
H1704 C1688 0.931 . S
H1705 C1693 0.929 . S
H1706 C1694 0.960 . S
H1707 C1694 0.962 . S
H1708 C1694 0.960 1_655 S
H1709 C1695 0.961 . S
H1710 C1695 0.961 . S
H1711 C1695 0.961 . S
H1712 C1696 0.931 . S
H1713 C1701 0.930 1_565 S
H1714 C1702 0.956 . S
H1715 C1702 0.961 . S
H1716 C1702 0.961 1_455 S
H1717 C1703 0.958 . S
H1718 C1703 0.961 . S
H1719 C1703 0.960 . S
C1720 C1721 1.391 . S
C1720 C1722 1.394 . S
C1720 H1736 0.931 . S
C1721 C1720 1.391 . S
C1721 C1725 1.376 . S
C1722 C1720 1.394 . S
C1722 C1723 1.369 . S
C1722 C1726 1.531 . S
C1723 C1722 1.369 . S
C1723 C1724 1.410 . S
C1723 C1731 1.503 . S
C1724 C1723 1.410 . S
C1724 C1725 1.392 . S
C1724 C1727 1.511 . S
C1725 C1721 1.376 . S
C1725 C1724 1.392 . S
C1725 H1737 0.929 . S
C1726 C1722 1.531 . S
C1726 H1738 0.960 . S
C1726 H1739 0.962 . S
C1726 H1740 0.960 . S
C1727 C1724 1.511 . S
C1727 H1741 0.961 . S
C1727 H1742 0.961 . S
C1727 H1743 0.961 . S
C1728 C1729 1.370 . S
C1728 C1730 1.363 . S
C1728 H1744 0.931 . S
C1729 C1728 1.370 . S
C1729 C1733 1.408 . S
C1730 C1728 1.363 . S
C1730 C1731 1.370 . S
C1730 C1734 1.524 . S
C1731 C1723 1.503 . S
C1731 C1730 1.370 . S
C1731 C1732 1.403 . S
C1732 C1731 1.403 . S
C1732 C1733 1.404 . S
C1732 C1735 1.539 . S
C1733 C1729 1.408 . S
C1733 C1732 1.404 . S
C1733 H1745 0.930 . S
C1734 C1730 1.524 . S
C1734 H1746 0.956 . S
C1734 H1747 0.961 . S
C1734 H1748 0.961 . S
C1735 C1732 1.539 . S
C1735 H1749 0.958 . S
C1735 H1750 0.961 . S
C1735 H1751 0.960 . S
H1736 C1720 0.931 . S
H1737 C1725 0.929 . S
H1738 C1726 0.960 . S
H1739 C1726 0.962 . S
H1740 C1726 0.960 . S
H1741 C1727 0.961 . S
H1742 C1727 0.961 . S
H1743 C1727 0.961 . S
H1744 C1728 0.931 . S
H1745 C1733 0.930 . S
H1746 C1734 0.956 . S
H1747 C1734 0.961 . S
H1748 C1734 0.961 . S
H1749 C1735 0.958 . S
H1750 C1735 0.961 . S
H1751 C1735 0.960 . S
C1752 C1753 1.391 . S
C1752 C1754 1.394 1_565 S
C1752 H1768 0.931 1_565 S
C1753 C1752 1.391 . S
C1753 C1757 1.376 . S
C1754 C1752 1.394 1_545 S
C1754 C1755 1.369 1_545 S
C1754 C1758 1.531 . S
C1755 C1754 1.369 1_565 S
C1755 C1756 1.410 . S
C1755 C1763 1.503 1_465 S
C1756 C1755 1.410 . S
C1756 C1757 1.392 . S
C1756 C1759 1.511 1_455 S
C1757 C1753 1.376 . S
C1757 C1756 1.392 . S
C1757 H1769 0.929 . S
C1758 C1754 1.531 . S
C1758 H1770 0.960 . S
C1758 H1771 0.962 . S
C1758 H1772 0.960 . S
C1759 C1756 1.511 1_655 S
C1759 H1773 0.961 1_655 S
C1759 H1774 0.961 . S
C1759 H1775 0.961 . S
C1760 C1761 1.370 . S
C1760 C1762 1.363 . S
C1760 H1776 0.931 . S
C1761 C1760 1.370 . S
C1761 C1765 1.408 . S
C1762 C1760 1.363 . S
C1762 C1763 1.370 . S
C1762 C1766 1.499 1_655 S
C1763 C1755 1.503 1_645 S
C1763 C1762 1.370 . S
C1763 C1764 1.403 1_545 S
C1764 C1763 1.403 1_565 S
C1764 C1765 1.404 1_565 S
C1764 C1767 1.539 . S
C1765 C1761 1.408 . S
C1765 C1764 1.404 1_545 S
C1765 H1777 0.940 . S
C1766 C1762 1.499 1_455 S
C1766 H1778 0.982 . S
C1766 H1779 0.974 . S
C1766 H1780 0.947 1_455 S
C1767 C1764 1.539 . S
C1767 H1781 0.958 . S
C1767 H1782 0.961 . S
C1767 H1783 0.960 . S
H1768 C1752 0.931 1_545 S
H1769 C1757 0.929 . S
H1770 C1758 0.960 . S
H1771 C1758 0.962 . S
H1772 C1758 0.960 . S
H1773 C1759 0.961 1_455 S
H1774 C1759 0.961 . S
H1775 C1759 0.961 . S
H1776 C1760 0.931 . S
H1777 C1765 0.940 . S
H1778 C1766 0.982 . S
H1779 C1766 0.974 . S
H1780 C1766 0.947 1_655 S
H1781 C1767 0.958 . S
H1782 C1767 0.961 . S
H1783 C1767 0.960 . S
C1784 C1785 1.391 . S
C1784 C1786 1.394 . S
C1784 H1800 0.931 . S
C1785 C1784 1.391 . S
C1785 C1789 1.376 . S
C1786 C1784 1.394 . S
C1786 C1787 1.369 . S
C1786 C1790 1.531 . S
C1787 C1786 1.369 . S
C1787 C1788 1.410 . S
C1787 C1795 1.503 . S
C1788 C1787 1.410 . S
C1788 C1789 1.392 . S
C1788 C1791 1.511 . S
C1789 C1785 1.376 . S
C1789 C1788 1.392 . S
C1789 H1801 0.929 . S
C1790 C1786 1.531 . S
C1790 H1802 0.960 . S
C1790 H1803 0.962 . S
C1790 H1804 0.960 . S
C1791 C1788 1.511 . S
C1791 H1805 0.961 . S
C1791 H1806 0.961 . S
C1791 H1807 0.961 . S
C1792 C1793 1.370 . S
C1792 C1794 1.363 . S
C1792 H1808 0.931 . S
C1793 C1792 1.370 . S
C1793 C1797 1.408 . S
C1794 C1792 1.363 . S
C1794 C1795 1.370 . S
C1794 C1798 1.524 . S
C1795 C1787 1.503 . S
C1795 C1794 1.370 . S
C1795 C1796 1.403 . S
C1796 C1795 1.403 . S
C1796 C1797 1.404 . S
C1796 C1799 1.539 . S
C1797 C1793 1.408 . S
C1797 C1796 1.404 . S
C1797 H1809 0.930 . S
C1798 C1794 1.524 . S
C1798 H1810 0.956 . S
C1798 H1811 0.961 . S
C1798 H1812 0.961 . S
C1799 C1796 1.539 . S
C1799 H1813 0.958 . S
C1799 H1814 0.961 . S
C1799 H1815 0.960 . S
H1800 C1784 0.931 . S
H1801 C1789 0.929 . S
H1802 C1790 0.960 . S
H1803 C1790 0.962 . S
H1804 C1790 0.960 . S
H1805 C1791 0.961 . S
H1806 C1791 0.961 . S
H1807 C1791 0.961 . S
H1808 C1792 0.931 . S
H1809 C1797 0.930 . S
H1810 C1798 0.956 . S
H1811 C1798 0.961 . S
H1812 C1798 0.961 . S
H1813 C1799 0.958 . S
H1814 C1799 0.961 . S
H1815 C1799 0.960 . S
C1816 C1817 1.391 . S
C1816 C1818 1.394 1_554 S
C1816 H1832 0.931 . S
C1817 C1816 1.391 . S
C1817 C1821 1.376 . S
C1818 C1816 1.394 1_556 S
C1818 C1819 1.369 . S
C1818 C1822 1.531 . S
C1819 C1818 1.369 . S
C1819 C1820 1.412 1_556 S
C1819 C1827 1.502 1_545 S
C1820 C1819 1.412 1_554 S
C1820 C1821 1.392 . S
C1820 C1823 1.511 . S
C1821 C1817 1.376 . S
C1821 C1820 1.392 . S
C1821 H1833 0.929 . S
C1822 C1818 1.531 . S
C1822 H1834 0.960 . S
C1822 H1835 0.962 . S
C1822 H1836 0.960 . S
C1823 C1820 1.511 . S
C1823 H1837 0.961 . S
C1823 H1838 0.961 1_545 S
C1823 H1839 0.940 1_554 S
C1824 C1825 1.370 . S
C1824 C1826 1.363 1_556 S
C1824 H1840 0.931 1_556 S
C1825 C1824 1.370 . S
C1825 C1829 1.408 . S
C1826 C1824 1.363 1_554 S
C1826 C1827 1.370 1_554 S
C1826 C1830 1.524 . S
C1827 C1819 1.502 1_565 S
C1827 C1826 1.370 1_556 S
C1827 C1828 1.403 . S
C1828 C1827 1.403 . S
C1828 C1829 1.404 . S
C1828 C1831 1.539 1_565 S
C1829 C1825 1.408 . S
C1829 C1828 1.404 . S
C1829 H1841 0.930 . S
C1830 C1826 1.524 . S
C1830 H1842 0.956 . S
C1830 H1843 0.961 . S
C1830 H1844 0.961 . S
C1831 C1828 1.539 1_545 S
C1831 H1845 0.958 . S
C1831 H1846 0.961 1_545 S
C1831 H1847 0.960 . S
H1832 C1816 0.931 . S
H1833 C1821 0.929 . S
H1834 C1822 0.960 . S
H1835 C1822 0.962 . S
H1836 C1822 0.960 . S
H1837 C1823 0.961 . S
H1838 C1823 0.961 1_565 S
H1839 C1823 0.940 1_556 S
H1840 C1824 0.931 1_554 S
H1841 C1829 0.930 . S
H1842 C1830 0.956 . S
H1843 C1830 0.961 . S
H1844 C1830 0.961 . S
H1845 C1831 0.958 . S
H1846 C1831 0.961 1_565 S
H1847 C1831 0.960 . S
C1848 C1849 1.391 . S
C1848 C1850 1.394 . S
C1848 H1864 0.931 . S
C1849 C1848 1.391 . S
C1849 C1853 1.376 . S
C1850 C1848 1.394 . S
C1850 C1851 1.369 . S
C1850 C1854 1.531 . S
C1851 C1850 1.369 . S
C1851 C1852 1.410 . S
C1851 C1859 1.503 . S
C1852 C1851 1.410 . S
C1852 C1853 1.392 . S
C1852 C1855 1.511 . S
C1853 C1849 1.376 . S
C1853 C1852 1.392 . S
C1853 H1865 0.929 . S
C1854 C1850 1.531 . S
C1854 H1866 0.960 . S
C1854 H1867 0.962 . S
C1854 H1868 0.960 . S
C1855 C1852 1.511 . S
C1855 H1869 0.961 . S
C1855 H1870 0.961 . S
C1855 H1871 0.961 . S
C1856 C1857 1.370 . S
C1856 C1858 1.363 . S
C1856 H1872 0.931 . S
C1857 C1856 1.370 . S
C1857 C1861 1.408 . S
C1858 C1856 1.363 . S
C1858 C1859 1.370 . S
C1858 C1862 1.524 . S
C1859 C1851 1.503 . S
C1859 C1858 1.370 . S
C1859 C1860 1.403 . S
C1860 C1859 1.403 . S
C1860 C1861 1.404 . S
C1860 C1863 1.539 . S
C1861 C1857 1.408 . S
C1861 C1860 1.404 . S
C1861 H1873 0.930 . S
C1862 C1858 1.524 . S
C1862 H1874 0.956 . S
C1862 H1875 0.961 . S
C1862 H1876 0.961 . S
C1863 C1860 1.539 . S
C1863 H1877 0.958 . S
C1863 H1878 0.961 . S
C1863 H1879 0.960 . S
H1864 C1848 0.931 . S
H1865 C1853 0.929 . S
H1866 C1854 0.960 . S
H1867 C1854 0.962 . S
H1868 C1854 0.960 . S
H1869 C1855 0.961 . S
H1870 C1855 0.961 . S
H1871 C1855 0.961 . S
H1872 C1856 0.931 . S
H1873 C1861 0.930 . S
H1874 C1862 0.956 . S
H1875 C1862 0.961 . S
H1876 C1862 0.961 . S
H1877 C1863 0.958 . S
H1878 C1863 0.961 . S
H1879 C1863 0.960 . S
C1880 C1881 1.391 . S
C1880 C1882 1.394 . S
C1880 H1896 0.931 . S
C1881 C1880 1.391 . S
C1881 C1885 1.376 . S
C1882 C1880 1.394 . S
C1882 C1883 1.369 . S
C1882 C1886 1.531 . S
C1883 C1882 1.369 . S
C1883 C1884 1.410 . S
C1883 C1891 1.503 1_546 S
C1884 C1883 1.410 . S
C1884 C1885 1.392 . S
C1884 C1887 1.515 . S
C1885 C1881 1.376 . S
C1885 C1884 1.392 . S
C1885 H1897 0.929 . S
C1886 C1882 1.531 . S
C1886 H1898 0.960 1_545 S
C1886 H1899 0.962 . S
C1886 H1900 0.960 . S
C1887 C1884 1.515 . S
C1887 H1901 0.957 1_556 S
C1887 H1902 0.953 1_556 S
C1887 H1903 0.969 . S
C1888 C1889 1.370 . S
C1888 C1890 1.363 . S
C1888 H1904 0.931 . S
C1889 C1888 1.370 . S
C1889 C1893 1.408 1_554 S
C1890 C1888 1.363 . S
C1890 C1891 1.370 . S
C1890 C1894 1.524 1_565 S
C1891 C1883 1.503 1_564 S
C1891 C1890 1.370 . S
C1891 C1892 1.403 1_554 S
C1892 C1891 1.403 1_556 S
C1892 C1893 1.404 . S
C1892 C1895 1.539 . S
C1893 C1889 1.408 1_556 S
C1893 C1892 1.404 . S
C1893 H1905 0.930 . S
C1894 C1890 1.524 1_545 S
C1894 H1906 0.956 . S
C1894 H1907 0.961 . S
C1894 H1908 0.961 . S
C1895 C1892 1.539 . S
C1895 H1909 0.958 . S
C1895 H1910 0.961 . S
C1895 H1911 0.960 . S
H1896 C1880 0.931 . S
H1897 C1885 0.929 . S
H1898 C1886 0.960 1_565 S
H1899 C1886 0.962 . S
H1900 C1886 0.960 . S
H1901 C1887 0.957 1_554 S
H1902 C1887 0.953 1_554 S
H1903 C1887 0.969 . S
H1904 C1888 0.931 . S
H1905 C1893 0.930 . S
H1906 C1894 0.956 . S
H1907 C1894 0.961 . S
H1908 C1894 0.961 . S
H1909 C1895 0.958 . S
H1910 C1895 0.961 . S
H1911 C1895 0.960 . S
C1912 C1913 1.391 . S
C1912 C1914 1.394 . S
C1912 H1928 0.931 . S
C1913 C1912 1.391 . S
C1913 C1917 1.376 . S
C1914 C1912 1.394 . S
C1914 C1915 1.369 . S
C1914 C1918 1.531 . S
C1915 C1914 1.369 . S
C1915 C1916 1.410 . S
C1915 C1923 1.503 . S
C1916 C1915 1.410 . S
C1916 C1917 1.392 . S
C1916 C1919 1.511 . S
C1917 C1913 1.376 . S
C1917 C1916 1.392 . S
C1917 H1929 0.929 . S
C1918 C1914 1.531 . S
C1918 H1930 0.960 . S
C1918 H1931 0.962 . S
C1918 H1932 0.960 . S
C1919 C1916 1.511 . S
C1919 H1933 0.961 . S
C1919 H1934 0.961 . S
C1919 H1935 0.961 . S
C1920 C1921 1.370 . S
C1920 C1922 1.363 . S
C1920 H1936 0.931 . S
C1921 C1920 1.370 . S
C1921 C1925 1.408 . S
C1922 C1920 1.363 . S
C1922 C1923 1.370 . S
C1922 C1926 1.524 . S
C1923 C1915 1.503 . S
C1923 C1922 1.370 . S
C1923 C1924 1.403 . S
C1924 C1923 1.403 . S
C1924 C1925 1.404 . S
C1924 C1927 1.539 . S
C1925 C1921 1.408 . S
C1925 C1924 1.404 . S
C1925 H1937 0.930 . S
C1926 C1922 1.524 . S
C1926 H1938 0.956 . S
C1926 H1939 0.961 . S
C1926 H1940 0.961 . S
C1927 C1924 1.539 . S
C1927 H1941 0.958 . S
C1927 H1942 0.961 . S
C1927 H1943 0.960 . S
H1928 C1912 0.931 . S
H1929 C1917 0.929 . S
H1930 C1918 0.960 . S
H1931 C1918 0.962 . S
H1932 C1918 0.960 . S
H1933 C1919 0.961 . S
H1934 C1919 0.961 . S
H1935 C1919 0.961 . S
H1936 C1920 0.931 . S
H1937 C1925 0.930 . S
H1938 C1926 0.956 . S
H1939 C1926 0.961 . S
H1940 C1926 0.961 . S
H1941 C1927 0.958 . S
H1942 C1927 0.961 . S
H1943 C1927 0.960 . S
C1944 C1945 1.391 . S
C1944 C1946 1.394 . S
C1944 H1960 0.931 . S
C1945 C1944 1.391 . S
C1945 C1949 1.376 . S
C1946 C1944 1.394 . S
C1946 C1947 1.369 . S
C1946 C1950 1.531 . S
C1947 C1946 1.369 . S
C1947 C1948 1.410 . S
C1947 C1955 1.503 . S
C1948 C1947 1.410 . S
C1948 C1949 1.392 . S
C1948 C1951 1.511 . S
C1949 C1945 1.376 . S
C1949 C1948 1.392 . S
C1949 H1961 0.929 . S
C1950 C1946 1.531 . S
C1950 H1962 0.960 . S
C1950 H1963 0.962 . S
C1950 H1964 0.960 . S
C1951 C1948 1.511 . S
C1951 H1965 0.961 . S
C1951 H1966 0.961 . S
C1951 H1967 0.961 . S
C1952 C1953 1.370 . S
C1952 C1954 1.363 . S
C1952 H1968 0.931 . S
C1953 C1952 1.370 . S
C1953 C1957 1.408 . S
C1954 C1952 1.363 . S
C1954 C1955 1.370 . S
C1954 C1958 1.524 . S
C1955 C1947 1.503 . S
C1955 C1954 1.370 . S
C1955 C1956 1.403 . S
C1956 C1955 1.403 . S
C1956 C1957 1.404 . S
C1956 C1959 1.539 . S
C1957 C1953 1.408 . S
C1957 C1956 1.404 . S
C1957 H1969 0.930 . S
C1958 C1954 1.524 . S
C1958 H1970 0.956 . S
C1958 H1971 0.961 . S
C1958 H1972 0.961 . S
C1959 C1956 1.539 . S
C1959 H1973 0.958 . S
C1959 H1974 0.961 . S
C1959 H1975 0.960 . S
H1960 C1944 0.931 . S
H1961 C1949 0.929 . S
H1962 C1950 0.960 . S
H1963 C1950 0.962 . S
H1964 C1950 0.960 . S
H1965 C1951 0.961 . S
H1966 C1951 0.961 . S
H1967 C1951 0.961 . S
H1968 C1952 0.931 . S
H1969 C1957 0.930 . S
H1970 C1958 0.956 . S
H1971 C1958 0.961 . S
H1972 C1958 0.961 . S
H1973 C1959 0.958 . S
H1974 C1959 0.961 . S
H1975 C1959 0.960 . S
C1976 C1977 1.391 . S
C1976 C1978 1.394 . S
C1976 H1992 0.931 . S
C1977 C1976 1.391 . S
C1977 C1981 1.376 . S
C1978 C1976 1.394 . S
C1978 C1979 1.369 . S
C1978 C1982 1.531 . S
C1979 C1978 1.369 . S
C1979 C1980 1.410 . S
C1979 C1987 1.503 . S
C1980 C1979 1.410 . S
C1980 C1981 1.392 . S
C1980 C1983 1.511 . S
C1981 C1977 1.376 . S
C1981 C1980 1.392 . S
C1981 H1993 0.929 . S
C1982 C1978 1.531 . S
C1982 H1994 0.960 . S
C1982 H1995 0.962 . S
C1982 H1996 0.960 . S
C1983 C1980 1.511 . S
C1983 H1997 0.961 . S
C1983 H1998 0.961 . S
C1983 H1999 0.961 . S
C1984 C1985 1.370 . S
C1984 C1986 1.363 . S
C1984 H2000 0.931 . S
C1985 C1984 1.370 . S
C1985 C1989 1.408 . S
C1986 C1984 1.363 . S
C1986 C1987 1.370 . S
C1986 C1990 1.524 . S
C1987 C1979 1.503 . S
C1987 C1986 1.370 . S
C1987 C1988 1.403 . S
C1988 C1987 1.403 . S
C1988 C1989 1.404 . S
C1988 C1991 1.539 . S
C1989 C1985 1.408 . S
C1989 C1988 1.404 . S
C1989 H2001 0.930 . S
C1990 C1986 1.524 . S
C1990 H2002 0.956 . S
C1990 H2003 0.961 . S
C1990 H2004 0.961 . S
C1991 C1988 1.539 . S
C1991 H2005 0.958 . S
C1991 H2006 0.961 . S
C1991 H2007 0.960 . S
H1992 C1976 0.931 . S
H1993 C1981 0.929 . S
H1994 C1982 0.960 . S
H1995 C1982 0.962 . S
H1996 C1982 0.960 . S
H1997 C1983 0.961 . S
H1998 C1983 0.961 . S
H1999 C1983 0.961 . S
H2000 C1984 0.931 . S
H2001 C1989 0.930 . S
H2002 C1990 0.956 . S
H2003 C1990 0.961 . S
H2004 C1990 0.961 . S
H2005 C1991 0.958 . S
H2006 C1991 0.961 . S
H2007 C1991 0.960 . S
C2008 C2009 1.391 . S
C2008 C2010 1.394 . S
C2008 H2024 0.931 . S
C2009 C2008 1.391 . S
C2009 C2013 1.376 . S
C2010 C2008 1.394 . S
C2010 C2011 1.369 . S
C2010 C2014 1.531 . S
C2011 C2010 1.369 . S
C2011 C2012 1.410 . S
C2011 C2019 1.503 . S
C2012 C2011 1.410 . S
C2012 C2013 1.392 . S
C2012 C2015 1.511 . S
C2013 C2009 1.376 . S
C2013 C2012 1.392 . S
C2013 H2025 0.929 . S
C2014 C2010 1.531 . S
C2014 H2026 0.960 . S
C2014 H2027 0.962 . S
C2014 H2028 0.960 . S
C2015 C2012 1.511 . S
C2015 H2029 0.961 . S
C2015 H2030 0.961 . S
C2015 H2031 0.961 . S
C2016 C2017 1.370 . S
C2016 C2018 1.363 . S
C2016 H2032 0.931 . S
C2017 C2016 1.370 . S
C2017 C2021 1.408 . S
C2018 C2016 1.363 . S
C2018 C2019 1.370 . S
C2018 C2022 1.524 . S
C2019 C2011 1.503 . S
C2019 C2018 1.370 . S
C2019 C2020 1.403 . S
C2020 C2019 1.403 . S
C2020 C2021 1.404 . S
C2020 C2023 1.539 . S
C2021 C2017 1.408 . S
C2021 C2020 1.404 . S
C2021 H2033 0.930 . S
C2022 C2018 1.524 . S
C2022 H2034 0.956 . S
C2022 H2035 0.961 . S
C2022 H2036 0.961 . S
C2023 C2020 1.539 . S
C2023 H2037 0.958 . S
C2023 H2038 0.961 . S
C2023 H2039 0.960 . S
H2024 C2008 0.931 . S
H2025 C2013 0.929 . S
H2026 C2014 0.960 . S
H2027 C2014 0.962 . S
H2028 C2014 0.960 . S
H2029 C2015 0.961 . S
H2030 C2015 0.961 . S
H2031 C2015 0.961 . S
H2032 C2016 0.931 . S
H2033 C2021 0.930 . S
H2034 C2022 0.956 . S
H2035 C2022 0.961 . S
H2036 C2022 0.961 . S
H2037 C2023 0.958 . S
H2038 C2023 0.961 . S
H2039 C2023 0.960 . S
C2040 C2041 1.391 . S
C2040 C2042 1.394 . S
C2040 H2056 0.931 . S
C2041 C2040 1.391 . S
C2041 C2045 1.376 . S
C2042 C2040 1.394 . S
C2042 C2043 1.369 . S
C2042 C2046 1.531 . S
C2043 C2042 1.369 . S
C2043 C2044 1.410 . S
C2043 C2051 1.503 . S
C2044 C2043 1.410 . S
C2044 C2045 1.392 . S
C2044 C2047 1.511 . S
C2045 C2041 1.376 . S
C2045 C2044 1.392 . S
C2045 H2057 0.929 . S
C2046 C2042 1.531 . S
C2046 H2058 0.960 . S
C2046 H2059 0.962 . S
C2046 H2060 0.960 . S
C2047 C2044 1.511 . S
C2047 H2061 0.961 . S
C2047 H2062 0.961 . S
C2047 H2063 0.961 . S
C2048 C2049 1.370 . S
C2048 C2050 1.363 . S
C2048 H2064 0.931 . S
C2049 C2048 1.370 . S
C2049 C2053 1.408 . S
C2050 C2048 1.363 . S
C2050 C2051 1.370 . S
C2050 C2054 1.524 . S
C2051 C2043 1.503 . S
C2051 C2050 1.370 . S
C2051 C2052 1.403 . S
C2052 C2051 1.403 . S
C2052 C2053 1.404 . S
C2052 C2055 1.539 . S
C2053 C2049 1.408 . S
C2053 C2052 1.404 . S
C2053 H2065 0.930 . S
C2054 C2050 1.524 . S
C2054 H2066 0.956 . S
C2054 H2067 0.961 . S
C2054 H2068 0.961 . S
C2055 C2052 1.539 . S
C2055 H2069 0.958 . S
C2055 H2070 0.961 . S
C2055 H2071 0.960 . S
H2056 C2040 0.931 . S
H2057 C2045 0.929 . S
H2058 C2046 0.960 . S
H2059 C2046 0.962 . S
H2060 C2046 0.960 . S
H2061 C2047 0.961 . S
H2062 C2047 0.961 . S
H2063 C2047 0.961 . S
H2064 C2048 0.931 . S
H2065 C2053 0.930 . S
H2066 C2054 0.956 . S
H2067 C2054 0.961 . S
H2068 C2054 0.961 . S
H2069 C2055 0.958 . S
H2070 C2055 0.961 . S
H2071 C2055 0.960 . S
C2072 C2073 1.391 . S
C2072 C2074 1.394 . S
C2072 H2088 0.931 . S
C2073 C2072 1.391 . S
C2073 C2077 1.376 . S
C2074 C2072 1.394 . S
C2074 C2075 1.369 . S
C2074 C2078 1.531 . S
C2075 C2074 1.369 . S
C2075 C2076 1.410 . S
C2075 C2083 1.503 . S
C2076 C2075 1.410 . S
C2076 C2077 1.392 . S
C2076 C2079 1.511 . S
C2077 C2073 1.376 . S
C2077 C2076 1.392 . S
C2077 H2089 0.929 . S
C2078 C2074 1.531 . S
C2078 H2090 0.960 . S
C2078 H2091 0.962 . S
C2078 H2092 0.960 . S
C2079 C2076 1.511 . S
C2079 H2093 0.961 . S
C2079 H2094 0.961 . S
C2079 H2095 0.961 . S
C2080 C2081 1.370 . S
C2080 C2082 1.363 . S
C2080 H2096 0.931 . S
C2081 C2080 1.370 . S
C2081 C2085 1.408 . S
C2082 C2080 1.363 . S
C2082 C2083 1.370 . S
C2082 C2086 1.524 . S
C2083 C2075 1.503 . S
C2083 C2082 1.370 . S
C2083 C2084 1.403 . S
C2084 C2083 1.403 . S
C2084 C2085 1.404 . S
C2084 C2087 1.539 . S
C2085 C2081 1.408 . S
C2085 C2084 1.404 . S
C2085 H2097 0.930 . S
C2086 C2082 1.524 . S
C2086 H2098 0.956 . S
C2086 H2099 0.961 . S
C2086 H2100 0.961 . S
C2087 C2084 1.539 . S
C2087 H2101 0.958 . S
C2087 H2102 0.961 . S
C2087 H2103 0.960 . S
H2088 C2072 0.931 . S
H2089 C2077 0.929 . S
H2090 C2078 0.960 . S
H2091 C2078 0.962 . S
H2092 C2078 0.960 . S
H2093 C2079 0.961 . S
H2094 C2079 0.961 . S
H2095 C2079 0.961 . S
H2096 C2080 0.931 . S
H2097 C2085 0.930 . S
H2098 C2086 0.956 . S
H2099 C2086 0.961 . S
H2100 C2086 0.961 . S
H2101 C2087 0.958 . S
H2102 C2087 0.961 . S
H2103 C2087 0.960 . S
C2104 C2105 1.391 . S
C2104 C2106 1.394 . S
C2104 H2120 0.931 . S
C2105 C2104 1.391 . S
C2105 C2109 1.376 . S
C2106 C2104 1.394 . S
C2106 C2107 1.369 . S
C2106 C2110 1.531 . S
C2107 C2106 1.369 . S
C2107 C2108 1.410 . S
C2107 C2115 1.503 . S
C2108 C2107 1.410 . S
C2108 C2109 1.392 . S
C2108 C2111 1.511 . S
C2109 C2105 1.376 . S
C2109 C2108 1.392 . S
C2109 H2121 0.929 . S
C2110 C2106 1.531 . S
C2110 H2122 0.960 . S
C2110 H2123 0.962 . S
C2110 H2124 0.960 . S
C2111 C2108 1.511 . S
C2111 H2125 0.961 . S
C2111 H2126 0.961 . S
C2111 H2127 0.961 . S
C2112 C2113 1.370 . S
C2112 C2114 1.363 . S
C2112 H2128 0.931 . S
C2113 C2112 1.370 . S
C2113 C2117 1.408 . S
C2114 C2112 1.363 . S
C2114 C2115 1.370 . S
C2114 C2118 1.524 . S
C2115 C2107 1.503 . S
C2115 C2114 1.370 . S
C2115 C2116 1.403 . S
C2116 C2115 1.403 . S
C2116 C2117 1.404 . S
C2116 C2119 1.539 . S
C2117 C2113 1.408 . S
C2117 C2116 1.404 . S
C2117 H2129 0.930 . S
C2118 C2114 1.524 . S
C2118 H2130 0.956 . S
C2118 H2131 0.961 . S
C2118 H2132 0.961 . S
C2119 C2116 1.539 . S
C2119 H2133 0.958 . S
C2119 H2134 0.961 . S
C2119 H2135 0.960 . S
H2120 C2104 0.931 . S
H2121 C2109 0.929 . S
H2122 C2110 0.960 . S
H2123 C2110 0.962 . S
H2124 C2110 0.960 . S
H2125 C2111 0.961 . S
H2126 C2111 0.961 . S
H2127 C2111 0.961 . S
H2128 C2112 0.931 . S
H2129 C2117 0.930 . S
H2130 C2118 0.956 . S
H2131 C2118 0.961 . S
H2132 C2118 0.961 . S
H2133 C2119 0.958 . S
H2134 C2119 0.961 . S
H2135 C2119 0.960 . S
C2136 C2137 1.391 . S
C2136 C2138 1.394 . S
C2136 H2152 0.931 . S
C2137 C2136 1.391 . S
C2137 C2141 1.376 . S
C2138 C2136 1.394 . S
C2138 C2139 1.369 . S
C2138 C2142 1.531 . S
C2139 C2138 1.369 . S
C2139 C2140 1.410 . S
C2139 C2147 1.503 . S
C2140 C2139 1.410 . S
C2140 C2141 1.392 . S
C2140 C2143 1.511 . S
C2141 C2137 1.376 . S
C2141 C2140 1.392 . S
C2141 H2153 0.929 . S
C2142 C2138 1.531 . S
C2142 H2154 0.960 . S
C2142 H2155 0.962 . S
C2142 H2156 0.960 . S
C2143 C2140 1.511 . S
C2143 H2157 0.961 . S
C2143 H2158 0.961 . S
C2143 H2159 0.961 . S
C2144 C2145 1.370 . S
C2144 C2146 1.363 . S
C2144 H2160 0.931 . S
C2145 C2144 1.370 . S
C2145 C2149 1.408 . S
C2146 C2144 1.363 . S
C2146 C2147 1.370 . S
C2146 C2150 1.524 . S
C2147 C2139 1.503 . S
C2147 C2146 1.370 . S
C2147 C2148 1.403 . S
C2148 C2147 1.403 . S
C2148 C2149 1.404 . S
C2148 C2151 1.539 . S
C2149 C2145 1.408 . S
C2149 C2148 1.404 . S
C2149 H2161 0.930 . S
C2150 C2146 1.524 . S
C2150 H2162 0.956 . S
C2150 H2163 0.961 . S
C2150 H2164 0.961 . S
C2151 C2148 1.539 . S
C2151 H2165 0.958 . S
C2151 H2166 0.961 . S
C2151 H2167 0.960 . S
H2152 C2136 0.931 . S
H2153 C2141 0.929 . S
H2154 C2142 0.960 . S
H2155 C2142 0.962 . S
H2156 C2142 0.960 . S
H2157 C2143 0.961 . S
H2158 C2143 0.961 . S
H2159 C2143 0.961 . S
H2160 C2144 0.931 . S
H2161 C2149 0.930 . S
H2162 C2150 0.956 . S
H2163 C2150 0.961 . S
H2164 C2150 0.961 . S
H2165 C2151 0.958 . S
H2166 C2151 0.961 . S
H2167 C2151 0.960 . S
C2168 C2169 1.391 . S
C2168 C2170 1.394 . S
C2168 H2184 0.931 . S
C2169 C2168 1.391 . S
C2169 C2173 1.376 . S
C2170 C2168 1.394 . S
C2170 C2171 1.369 . S
C2170 C2174 1.531 . S
C2171 C2170 1.369 . S
C2171 C2172 1.410 . S
C2171 C2179 1.503 . S
C2172 C2171 1.410 . S
C2172 C2173 1.392 . S
C2172 C2175 1.511 . S
C2173 C2169 1.376 . S
C2173 C2172 1.392 . S
C2173 H2185 0.929 . S
C2174 C2170 1.531 . S
C2174 H2186 0.960 . S
C2174 H2187 0.962 . S
C2174 H2188 0.960 . S
C2175 C2172 1.511 . S
C2175 H2189 0.961 . S
C2175 H2190 0.961 . S
C2175 H2191 0.961 . S
C2176 C2177 1.370 . S
C2176 C2178 1.363 . S
C2176 H2192 0.931 . S
C2177 C2176 1.370 . S
C2177 C2181 1.408 . S
C2178 C2176 1.363 . S
C2178 C2179 1.370 . S
C2178 C2182 1.524 . S
C2179 C2171 1.503 . S
C2179 C2178 1.370 . S
C2179 C2180 1.403 . S
C2180 C2179 1.403 . S
C2180 C2181 1.404 . S
C2180 C2183 1.539 . S
C2181 C2177 1.408 . S
C2181 C2180 1.404 . S
C2181 H2193 0.930 . S
C2182 C2178 1.524 . S
C2182 H2194 0.956 . S
C2182 H2195 0.961 . S
C2182 H2196 0.961 . S
C2183 C2180 1.539 . S
C2183 H2197 0.958 . S
C2183 H2198 0.961 . S
C2183 H2199 0.960 . S
H2184 C2168 0.931 . S
H2185 C2173 0.929 . S
H2186 C2174 0.960 . S
H2187 C2174 0.962 . S
H2188 C2174 0.960 . S
H2189 C2175 0.961 . S
H2190 C2175 0.961 . S
H2191 C2175 0.961 . S
H2192 C2176 0.931 . S
H2193 C2181 0.930 . S
H2194 C2182 0.956 . S
H2195 C2182 0.961 . S
H2196 C2182 0.961 . S
H2197 C2183 0.958 . S
H2198 C2183 0.961 . S
H2199 C2183 0.960 . S
C2200 C2201 1.391 . S
C2200 C2202 1.394 . S
C2200 H2216 0.931 . S
C2201 C2200 1.391 . S
C2201 C2205 1.376 . S
C2202 C2200 1.394 . S
C2202 C2203 1.369 . S
C2202 C2206 1.531 . S
C2203 C2202 1.369 . S
C2203 C2204 1.410 . S
C2203 C2211 1.503 . S
C2204 C2203 1.410 . S
C2204 C2205 1.392 . S
C2204 C2207 1.511 . S
C2205 C2201 1.376 . S
C2205 C2204 1.392 . S
C2205 H2217 0.929 . S
C2206 C2202 1.531 . S
C2206 H2218 0.960 . S
C2206 H2219 0.962 . S
C2206 H2220 0.960 . S
C2207 C2204 1.511 . S
C2207 H2221 0.961 . S
C2207 H2222 0.961 . S
C2207 H2223 0.961 . S
C2208 C2209 1.370 . S
C2208 C2210 1.363 . S
C2208 H2224 0.931 . S
C2209 C2208 1.370 . S
C2209 C2213 1.408 . S
C2210 C2208 1.363 . S
C2210 C2211 1.370 . S
C2210 C2214 1.524 . S
C2211 C2203 1.503 . S
C2211 C2210 1.370 . S
C2211 C2212 1.403 . S
C2212 C2211 1.403 . S
C2212 C2213 1.404 . S
C2212 C2215 1.539 . S
C2213 C2209 1.408 . S
C2213 C2212 1.404 . S
C2213 H2225 0.930 . S
C2214 C2210 1.524 . S
C2214 H2226 0.956 . S
C2214 H2227 0.961 . S
C2214 H2228 0.961 . S
C2215 C2212 1.539 . S
C2215 H2229 0.958 . S
C2215 H2230 0.961 . S
C2215 H2231 0.960 . S
H2216 C2200 0.931 . S
H2217 C2205 0.929 . S
H2218 C2206 0.960 . S
H2219 C2206 0.962 . S
H2220 C2206 0.960 . S
H2221 C2207 0.961 . S
H2222 C2207 0.961 . S
H2223 C2207 0.961 . S
H2224 C2208 0.931 . S
H2225 C2213 0.930 . S
H2226 C2214 0.956 . S
H2227 C2214 0.961 . S
H2228 C2214 0.961 . S
H2229 C2215 0.958 . S
H2230 C2215 0.961 . S
H2231 C2215 0.960 . S
C2232 C2233 1.391 . S
C2232 C2234 1.394 . S
C2232 H2248 0.931 . S
C2233 C2232 1.391 . S
C2233 C2237 1.376 . S
C2234 C2232 1.394 . S
C2234 C2235 1.369 . S
C2234 C2238 1.531 . S
C2235 C2234 1.369 . S
C2235 C2236 1.410 . S
C2235 C2243 1.503 . S
C2236 C2235 1.410 . S
C2236 C2237 1.392 . S
C2236 C2239 1.511 . S
C2237 C2233 1.376 . S
C2237 C2236 1.392 . S
C2237 H2249 0.929 . S
C2238 C2234 1.531 . S
C2238 H2250 0.960 . S
C2238 H2251 0.962 . S
C2238 H2252 0.960 . S
C2239 C2236 1.511 . S
C2239 H2253 0.961 . S
C2239 H2254 0.961 . S
C2239 H2255 0.961 . S
C2240 C2241 1.370 . S
C2240 C2242 1.363 . S
C2240 H2256 0.931 . S
C2241 C2240 1.370 . S
C2241 C2245 1.408 . S
C2242 C2240 1.363 . S
C2242 C2243 1.370 . S
C2242 C2246 1.524 . S
C2243 C2235 1.503 . S
C2243 C2242 1.370 . S
C2243 C2244 1.403 . S
C2244 C2243 1.403 . S
C2244 C2245 1.404 . S
C2244 C2247 1.539 . S
C2245 C2241 1.408 . S
C2245 C2244 1.404 . S
C2245 H2257 0.930 . S
C2246 C2242 1.524 . S
C2246 H2258 0.956 . S
C2246 H2259 0.961 . S
C2246 H2260 0.961 . S
C2247 C2244 1.539 . S
C2247 H2261 0.958 . S
C2247 H2262 0.961 . S
C2247 H2263 0.960 . S
H2248 C2232 0.931 . S
H2249 C2237 0.929 . S
H2250 C2238 0.960 . S
H2251 C2238 0.962 . S
H2252 C2238 0.960 . S
H2253 C2239 0.961 . S
H2254 C2239 0.961 . S
H2255 C2239 0.961 . S
H2256 C2240 0.931 . S
H2257 C2245 0.930 . S
H2258 C2246 0.956 . S
H2259 C2246 0.961 . S
H2260 C2246 0.961 . S
H2261 C2247 0.958 . S
H2262 C2247 0.961 . S
H2263 C2247 0.960 . S
C2264 C2265 1.391 . S
C2264 C2266 1.394 . S
C2264 H2280 0.931 . S
C2265 C2264 1.391 . S
C2265 C2269 1.376 . S
C2266 C2264 1.394 . S
C2266 C2267 1.369 . S
C2266 C2270 1.531 . S
C2267 C2266 1.369 . S
C2267 C2268 1.410 . S
C2267 C2275 1.503 . S
C2268 C2267 1.410 . S
C2268 C2269 1.392 . S
C2268 C2271 1.511 . S
C2269 C2265 1.376 . S
C2269 C2268 1.392 . S
C2269 H2281 0.929 . S
C2270 C2266 1.531 . S
C2270 H2282 0.960 . S
C2270 H2283 0.962 . S
C2270 H2284 0.960 . S
C2271 C2268 1.511 . S
C2271 H2285 0.961 . S
C2271 H2286 0.961 . S
C2271 H2287 0.961 . S
C2272 C2273 1.370 . S
C2272 C2274 1.363 . S
C2272 H2288 0.931 . S
C2273 C2272 1.370 . S
C2273 C2277 1.408 . S
C2274 C2272 1.363 . S
C2274 C2275 1.370 . S
C2274 C2278 1.524 . S
C2275 C2267 1.503 . S
C2275 C2274 1.370 . S
C2275 C2276 1.403 . S
C2276 C2275 1.403 . S
C2276 C2277 1.404 . S
C2276 C2279 1.539 . S
C2277 C2273 1.408 . S
C2277 C2276 1.404 . S
C2277 H2289 0.930 . S
C2278 C2274 1.524 . S
C2278 H2290 0.956 . S
C2278 H2291 0.961 . S
C2278 H2292 0.961 . S
C2279 C2276 1.539 . S
C2279 H2293 0.958 . S
C2279 H2294 0.961 . S
C2279 H2295 0.960 . S
H2280 C2264 0.931 . S
H2281 C2269 0.929 . S
H2282 C2270 0.960 . S
H2283 C2270 0.962 . S
H2284 C2270 0.960 . S
H2285 C2271 0.961 . S
H2286 C2271 0.961 . S
H2287 C2271 0.961 . S
H2288 C2272 0.931 . S
H2289 C2277 0.930 . S
H2290 C2278 0.956 . S
H2291 C2278 0.961 . S
H2292 C2278 0.961 . S
H2293 C2279 0.958 . S
H2294 C2279 0.961 . S
H2295 C2279 0.960 . S
C2296 C2297 1.391 . S
C2296 C2298 1.394 . S
C2296 H2312 0.931 . S
C2297 C2296 1.391 . S
C2297 C2301 1.376 . S
C2298 C2296 1.394 . S
C2298 C2299 1.369 . S
C2298 C2302 1.531 . S
C2299 C2298 1.369 . S
C2299 C2300 1.410 . S
C2299 C2307 1.503 . S
C2300 C2299 1.410 . S
C2300 C2301 1.392 . S
C2300 C2303 1.511 . S
C2301 C2297 1.376 . S
C2301 C2300 1.392 . S
C2301 H2313 0.929 . S
C2302 C2298 1.531 . S
C2302 H2314 0.960 . S
C2302 H2315 0.962 . S
C2302 H2316 0.960 . S
C2303 C2300 1.511 . S
C2303 H2317 0.961 . S
C2303 H2318 0.961 . S
C2303 H2319 0.961 . S
C2304 C2305 1.370 . S
C2304 C2306 1.363 . S
C2304 H2320 0.931 . S
C2305 C2304 1.370 . S
C2305 C2309 1.408 . S
C2306 C2304 1.363 . S
C2306 C2307 1.370 . S
C2306 C2310 1.524 . S
C2307 C2299 1.503 . S
C2307 C2306 1.370 . S
C2307 C2308 1.403 . S
C2308 C2307 1.403 . S
C2308 C2309 1.404 . S
C2308 C2311 1.539 . S
C2309 C2305 1.408 . S
C2309 C2308 1.404 . S
C2309 H2321 0.930 . S
C2310 C2306 1.524 . S
C2310 H2322 0.956 . S
C2310 H2323 0.961 . S
C2310 H2324 0.961 . S
C2311 C2308 1.539 . S
C2311 H2325 0.958 . S
C2311 H2326 0.961 . S
C2311 H2327 0.960 . S
H2312 C2296 0.931 . S
H2313 C2301 0.929 . S
H2314 C2302 0.960 . S
H2315 C2302 0.962 . S
H2316 C2302 0.960 . S
H2317 C2303 0.961 . S
H2318 C2303 0.961 . S
H2319 C2303 0.961 . S
H2320 C2304 0.931 . S
H2321 C2309 0.930 . S
H2322 C2310 0.956 . S
H2323 C2310 0.961 . S
H2324 C2310 0.961 . S
H2325 C2311 0.958 . S
H2326 C2311 0.961 . S
H2327 C2311 0.960 . S
C2328 C2329 1.391 . S
C2328 C2330 1.394 . S
C2328 H2344 0.931 . S
C2329 C2328 1.391 . S
C2329 C2333 1.376 . S
C2330 C2328 1.394 . S
C2330 C2331 1.369 . S
C2330 C2334 1.531 . S
C2331 C2330 1.369 . S
C2331 C2332 1.410 . S
C2331 C2339 1.503 . S
C2332 C2331 1.410 . S
C2332 C2333 1.392 . S
C2332 C2335 1.511 . S
C2333 C2329 1.376 . S
C2333 C2332 1.392 . S
C2333 H2345 0.929 . S
C2334 C2330 1.531 . S
C2334 H2346 0.960 . S
C2334 H2347 0.962 . S
C2334 H2348 0.960 . S
C2335 C2332 1.511 . S
C2335 H2349 0.961 . S
C2335 H2350 0.961 . S
C2335 H2351 0.961 . S
C2336 C2337 1.370 . S
C2336 C2338 1.363 . S
C2336 H2352 0.931 . S
C2337 C2336 1.370 . S
C2337 C2341 1.408 . S
C2338 C2336 1.363 . S
C2338 C2339 1.370 . S
C2338 C2342 1.524 . S
C2339 C2331 1.503 . S
C2339 C2338 1.370 . S
C2339 C2340 1.403 . S
C2340 C2339 1.403 . S
C2340 C2341 1.404 . S
C2340 C2343 1.539 . S
C2341 C2337 1.408 . S
C2341 C2340 1.404 . S
C2341 H2353 0.930 . S
C2342 C2338 1.524 . S
C2342 H2354 0.956 . S
C2342 H2355 0.961 . S
C2342 H2356 0.961 . S
C2343 C2340 1.539 . S
C2343 H2357 0.958 . S
C2343 H2358 0.961 . S
C2343 H2359 0.960 . S
H2344 C2328 0.931 . S
H2345 C2333 0.929 . S
H2346 C2334 0.960 . S
H2347 C2334 0.962 . S
H2348 C2334 0.960 . S
H2349 C2335 0.961 . S
H2350 C2335 0.961 . S
H2351 C2335 0.961 . S
H2352 C2336 0.931 . S
H2353 C2341 0.930 . S
H2354 C2342 0.956 . S
H2355 C2342 0.961 . S
H2356 C2342 0.961 . S
H2357 C2343 0.958 . S
H2358 C2343 0.961 . S
H2359 C2343 0.960 . S
C2360 C2361 1.391 . S
C2360 C2362 1.394 . S
C2360 H2376 0.931 . S
C2361 C2360 1.391 . S
C2361 C2365 1.376 . S
C2362 C2360 1.394 . S
C2362 C2363 1.369 . S
C2362 C2366 1.531 . S
C2363 C2362 1.369 . S
C2363 C2364 1.410 . S
C2363 C2371 1.503 . S
C2364 C2363 1.410 . S
C2364 C2365 1.392 . S
C2364 C2367 1.511 . S
C2365 C2361 1.376 . S
C2365 C2364 1.392 . S
C2365 H2377 0.929 . S
C2366 C2362 1.531 . S
C2366 H2378 0.960 . S
C2366 H2379 0.962 . S
C2366 H2380 0.960 . S
C2367 C2364 1.511 . S
C2367 H2381 0.961 . S
C2367 H2382 0.961 . S
C2367 H2383 0.961 . S
C2368 C2369 1.370 . S
C2368 C2370 1.363 . S
C2368 H2384 0.931 . S
C2369 C2368 1.370 . S
C2369 C2373 1.408 . S
C2370 C2368 1.363 . S
C2370 C2371 1.370 . S
C2370 C2374 1.524 . S
C2371 C2363 1.503 . S
C2371 C2370 1.370 . S
C2371 C2372 1.403 . S
C2372 C2371 1.403 . S
C2372 C2373 1.404 . S
C2372 C2375 1.539 . S
C2373 C2369 1.408 . S
C2373 C2372 1.404 . S
C2373 H2385 0.930 . S
C2374 C2370 1.524 . S
C2374 H2386 0.956 . S
C2374 H2387 0.961 . S
C2374 H2388 0.961 . S
C2375 C2372 1.539 . S
C2375 H2389 0.958 . S
C2375 H2390 0.961 . S
C2375 H2391 0.960 . S
H2376 C2360 0.931 . S
H2377 C2365 0.929 . S
H2378 C2366 0.960 . S
H2379 C2366 0.962 . S
H2380 C2366 0.960 . S
H2381 C2367 0.961 . S
H2382 C2367 0.961 . S
H2383 C2367 0.961 . S
H2384 C2368 0.931 . S
H2385 C2373 0.930 . S
H2386 C2374 0.956 . S
H2387 C2374 0.961 . S
H2388 C2374 0.961 . S
H2389 C2375 0.958 . S
H2390 C2375 0.961 . S
H2391 C2375 0.960 . S
C2392 C2393 1.391 . S
C2392 C2394 1.394 . S
C2392 H2408 0.931 . S
C2393 C2392 1.391 . S
C2393 C2397 1.376 . S
C2394 C2392 1.394 . S
C2394 C2395 1.369 . S
C2394 C2398 1.531 . S
C2395 C2394 1.369 . S
C2395 C2396 1.410 . S
C2395 C2403 1.503 . S
C2396 C2395 1.410 . S
C2396 C2397 1.392 . S
C2396 C2399 1.511 . S
C2397 C2393 1.376 . S
C2397 C2396 1.392 . S
C2397 H2409 0.929 . S
C2398 C2394 1.531 . S
C2398 H2410 0.960 . S
C2398 H2411 0.962 . S
C2398 H2412 0.960 . S
C2399 C2396 1.511 . S
C2399 H2413 0.961 . S
C2399 H2414 0.961 . S
C2399 H2415 0.961 . S
C2400 C2401 1.370 . S
C2400 C2402 1.363 . S
C2400 H2416 0.931 . S
C2401 C2400 1.370 . S
C2401 C2405 1.408 . S
C2402 C2400 1.363 . S
C2402 C2403 1.370 . S
C2402 C2406 1.524 . S
C2403 C2395 1.503 . S
C2403 C2402 1.370 . S
C2403 C2404 1.403 . S
C2404 C2403 1.403 . S
C2404 C2405 1.404 . S
C2404 C2407 1.539 . S
C2405 C2401 1.408 . S
C2405 C2404 1.404 . S
C2405 H2417 0.930 . S
C2406 C2402 1.524 . S
C2406 H2418 0.956 . S
C2406 H2419 0.961 . S
C2406 H2420 0.961 . S
C2407 C2404 1.539 . S
C2407 H2421 0.958 . S
C2407 H2422 0.961 . S
C2407 H2423 0.960 . S
H2408 C2392 0.931 . S
H2409 C2397 0.929 . S
H2410 C2398 0.960 . S
H2411 C2398 0.962 . S
H2412 C2398 0.960 . S
H2413 C2399 0.961 . S
H2414 C2399 0.961 . S
H2415 C2399 0.961 . S
H2416 C2400 0.931 . S
H2417 C2405 0.930 . S
H2418 C2406 0.956 . S
H2419 C2406 0.961 . S
H2420 C2406 0.961 . S
H2421 C2407 0.958 . S
H2422 C2407 0.961 . S
H2423 C2407 0.960 . S
C2424 C2425 1.391 . S
C2424 C2426 1.394 . S
C2424 H2440 0.931 . S
C2425 C2424 1.391 . S
C2425 C2429 1.376 . S
C2426 C2424 1.394 . S
C2426 C2427 1.369 . S
C2426 C2430 1.531 . S
C2427 C2426 1.369 . S
C2427 C2428 1.410 . S
C2427 C2435 1.503 . S
C2428 C2427 1.410 . S
C2428 C2429 1.392 . S
C2428 C2431 1.511 . S
C2429 C2425 1.376 . S
C2429 C2428 1.392 . S
C2429 H2441 0.929 . S
C2430 C2426 1.531 . S
C2430 H2442 0.960 . S
C2430 H2443 0.962 . S
C2430 H2444 0.960 . S
C2431 C2428 1.511 . S
C2431 H2445 0.961 . S
C2431 H2446 0.961 . S
C2431 H2447 0.961 . S
C2432 C2433 1.370 . S
C2432 C2434 1.363 . S
C2432 H2448 0.931 . S
C2433 C2432 1.370 . S
C2433 C2437 1.408 . S
C2434 C2432 1.363 . S
C2434 C2435 1.370 . S
C2434 C2438 1.524 . S
C2435 C2427 1.503 . S
C2435 C2434 1.370 . S
C2435 C2436 1.403 . S
C2436 C2435 1.403 . S
C2436 C2437 1.404 . S
C2436 C2439 1.539 . S
C2437 C2433 1.408 . S
C2437 C2436 1.404 . S
C2437 H2449 0.930 . S
C2438 C2434 1.524 . S
C2438 H2450 0.956 . S
C2438 H2451 0.961 . S
C2438 H2452 0.961 . S
C2439 C2436 1.539 . S
C2439 H2453 0.958 . S
C2439 H2454 0.961 . S
C2439 H2455 0.960 . S
H2440 C2424 0.931 . S
H2441 C2429 0.929 . S
H2442 C2430 0.960 . S
H2443 C2430 0.962 . S
H2444 C2430 0.960 . S
H2445 C2431 0.961 . S
H2446 C2431 0.961 . S
H2447 C2431 0.961 . S
H2448 C2432 0.931 . S
H2449 C2437 0.930 . S
H2450 C2438 0.956 . S
H2451 C2438 0.961 . S
H2452 C2438 0.961 . S
H2453 C2439 0.958 . S
H2454 C2439 0.961 . S
H2455 C2439 0.960 . S
C2456 C2457 1.391 . S
C2456 C2458 1.394 . S
C2456 H2472 0.931 . S
C2457 C2456 1.391 . S
C2457 C2461 1.376 . S
C2458 C2456 1.394 . S
C2458 C2459 1.369 . S
C2458 C2462 1.531 . S
C2459 C2458 1.369 . S
C2459 C2460 1.410 . S
C2459 C2467 1.503 . S
C2460 C2459 1.410 . S
C2460 C2461 1.392 . S
C2460 C2463 1.511 . S
C2461 C2457 1.376 . S
C2461 C2460 1.392 . S
C2461 H2473 0.929 . S
C2462 C2458 1.531 . S
C2462 H2474 0.960 . S
C2462 H2475 0.962 . S
C2462 H2476 0.960 . S
C2463 C2460 1.511 . S
C2463 H2477 0.961 . S
C2463 H2478 0.961 . S
C2463 H2479 0.961 . S
C2464 C2465 1.370 . S
C2464 C2466 1.363 . S
C2464 H2480 0.931 . S
C2465 C2464 1.370 . S
C2465 C2469 1.408 . S
C2466 C2464 1.363 . S
C2466 C2467 1.370 . S
C2466 C2470 1.524 . S
C2467 C2459 1.503 . S
C2467 C2466 1.370 . S
C2467 C2468 1.403 . S
C2468 C2467 1.403 . S
C2468 C2469 1.404 . S
C2468 C2471 1.539 . S
C2469 C2465 1.408 . S
C2469 C2468 1.404 . S
C2469 H2481 0.930 . S
C2470 C2466 1.524 . S
C2470 H2482 0.956 . S
C2470 H2483 0.961 . S
C2470 H2484 0.961 . S
C2471 C2468 1.539 . S
C2471 H2485 0.958 . S
C2471 H2486 0.961 . S
C2471 H2487 0.960 . S
H2472 C2456 0.931 . S
H2473 C2461 0.929 . S
H2474 C2462 0.960 . S
H2475 C2462 0.962 . S
H2476 C2462 0.960 . S
H2477 C2463 0.961 . S
H2478 C2463 0.961 . S
H2479 C2463 0.961 . S
H2480 C2464 0.931 . S
H2481 C2469 0.930 . S
H2482 C2470 0.956 . S
H2483 C2470 0.961 . S
H2484 C2470 0.961 . S
H2485 C2471 0.958 . S
H2486 C2471 0.961 . S
H2487 C2471 0.960 . S
C2488 C2489 1.391 . S
C2488 C2490 1.394 . S
C2488 H2504 0.931 . S
C2489 C2488 1.391 . S
C2489 C2493 1.376 . S
C2490 C2488 1.394 . S
C2490 C2491 1.369 . S
C2490 C2494 1.531 . S
C2491 C2490 1.369 . S
C2491 C2492 1.410 . S
C2491 C2499 1.503 . S
C2492 C2491 1.410 . S
C2492 C2493 1.392 . S
C2492 C2495 1.511 . S
C2493 C2489 1.376 . S
C2493 C2492 1.392 . S
C2493 H2505 0.929 . S
C2494 C2490 1.531 . S
C2494 H2506 0.960 . S
C2494 H2507 0.962 . S
C2494 H2508 0.960 . S
C2495 C2492 1.511 . S
C2495 H2509 0.961 . S
C2495 H2510 0.961 . S
C2495 H2511 0.961 . S
C2496 C2497 1.370 . S
C2496 C2498 1.363 . S
C2496 H2512 0.931 . S
C2497 C2496 1.370 . S
C2497 C2501 1.408 . S
C2498 C2496 1.363 . S
C2498 C2499 1.370 . S
C2498 C2502 1.524 . S
C2499 C2491 1.503 . S
C2499 C2498 1.370 . S
C2499 C2500 1.403 . S
C2500 C2499 1.403 . S
C2500 C2501 1.404 . S
C2500 C2503 1.539 . S
C2501 C2497 1.408 . S
C2501 C2500 1.404 . S
C2501 H2513 0.930 . S
C2502 C2498 1.524 . S
C2502 H2514 0.956 . S
C2502 H2515 0.961 . S
C2502 H2516 0.961 . S
C2503 C2500 1.539 . S
C2503 H2517 0.958 . S
C2503 H2518 0.961 . S
C2503 H2519 0.960 . S
H2504 C2488 0.931 . S
H2505 C2493 0.929 . S
H2506 C2494 0.960 . S
H2507 C2494 0.962 . S
H2508 C2494 0.960 . S
H2509 C2495 0.961 . S
H2510 C2495 0.961 . S
H2511 C2495 0.961 . S
H2512 C2496 0.931 . S
H2513 C2501 0.930 . S
H2514 C2502 0.956 . S
H2515 C2502 0.961 . S
H2516 C2502 0.961 . S
H2517 C2503 0.958 . S
H2518 C2503 0.961 . S
H2519 C2503 0.960 . S
C2520 C2521 1.391 . S
C2520 C2522 1.394 . S
C2520 H2536 0.931 . S
C2521 C2520 1.391 . S
C2521 C2525 1.376 . S
C2522 C2520 1.394 . S
C2522 C2523 1.369 . S
C2522 C2526 1.531 . S
C2523 C2522 1.369 . S
C2523 C2524 1.410 . S
C2523 C2531 1.503 . S
C2524 C2523 1.410 . S
C2524 C2525 1.392 . S
C2524 C2527 1.511 . S
C2525 C2521 1.376 . S
C2525 C2524 1.392 . S
C2525 H2537 0.929 . S
C2526 C2522 1.531 . S
C2526 H2538 0.960 . S
C2526 H2539 0.962 . S
C2526 H2540 0.960 . S
C2527 C2524 1.511 . S
C2527 H2541 0.961 . S
C2527 H2542 0.961 . S
C2527 H2543 0.961 . S
C2528 C2529 1.370 . S
C2528 C2530 1.363 . S
C2528 H2544 0.931 . S
C2529 C2528 1.370 . S
C2529 C2533 1.408 . S
C2530 C2528 1.363 . S
C2530 C2531 1.370 . S
C2530 C2534 1.524 . S
C2531 C2523 1.503 . S
C2531 C2530 1.370 . S
C2531 C2532 1.403 . S
C2532 C2531 1.403 . S
C2532 C2533 1.404 . S
C2532 C2535 1.539 . S
C2533 C2529 1.408 . S
C2533 C2532 1.404 . S
C2533 H2545 0.930 . S
C2534 C2530 1.524 . S
C2534 H2546 0.956 . S
C2534 H2547 0.961 . S
C2534 H2548 0.961 . S
C2535 C2532 1.539 . S
C2535 H2549 0.958 . S
C2535 H2550 0.961 . S
C2535 H2551 0.960 . S
H2536 C2520 0.931 . S
H2537 C2525 0.929 . S
H2538 C2526 0.960 . S
H2539 C2526 0.962 . S
H2540 C2526 0.960 . S
H2541 C2527 0.961 . S
H2542 C2527 0.961 . S
H2543 C2527 0.961 . S
H2544 C2528 0.931 . S
H2545 C2533 0.930 . S
H2546 C2534 0.956 . S
H2547 C2534 0.961 . S
H2548 C2534 0.961 . S
H2549 C2535 0.958 . S
H2550 C2535 0.961 . S
H2551 C2535 0.960 . S
C2552 C2553 1.391 . S
C2552 C2554 1.394 . S
C2552 H2568 0.931 . S
C2553 C2552 1.391 . S
C2553 C2557 1.376 . S
C2554 C2552 1.394 . S
C2554 C2555 1.369 . S
C2554 C2558 1.531 . S
C2555 C2554 1.369 . S
C2555 C2556 1.410 . S
C2555 C2563 1.503 . S
C2556 C2555 1.410 . S
C2556 C2557 1.392 . S
C2556 C2559 1.511 . S
C2557 C2553 1.376 . S
C2557 C2556 1.392 . S
C2557 H2569 0.929 . S
C2558 C2554 1.531 . S
C2558 H2570 0.960 . S
C2558 H2571 0.962 . S
C2558 H2572 0.960 . S
C2559 C2556 1.511 . S
C2559 H2573 0.961 . S
C2559 H2574 0.961 . S
C2559 H2575 0.961 . S
C2560 C2561 1.370 . S
C2560 C2562 1.363 . S
C2560 H2576 0.931 . S
C2561 C2560 1.370 . S
C2561 C2565 1.408 . S
C2562 C2560 1.363 . S
C2562 C2563 1.370 . S
C2562 C2566 1.524 . S
C2563 C2555 1.503 . S
C2563 C2562 1.370 . S
C2563 C2564 1.403 . S
C2564 C2563 1.403 . S
C2564 C2565 1.404 . S
C2564 C2567 1.539 . S
C2565 C2561 1.408 . S
C2565 C2564 1.404 . S
C2565 H2577 0.930 . S
C2566 C2562 1.524 . S
C2566 H2578 0.956 . S
C2566 H2579 0.961 . S
C2566 H2580 0.961 . S
C2567 C2564 1.539 . S
C2567 H2581 0.958 . S
C2567 H2582 0.961 . S
C2567 H2583 0.960 . S
H2568 C2552 0.931 . S
H2569 C2557 0.929 . S
H2570 C2558 0.960 . S
H2571 C2558 0.962 . S
H2572 C2558 0.960 . S
H2573 C2559 0.961 . S
H2574 C2559 0.961 . S
H2575 C2559 0.961 . S
H2576 C2560 0.931 . S
H2577 C2565 0.930 . S
H2578 C2566 0.956 . S
H2579 C2566 0.961 . S
H2580 C2566 0.961 . S
H2581 C2567 0.958 . S
H2582 C2567 0.961 . S
H2583 C2567 0.960 . S
C2584 C2585 1.391 . S
C2584 C2586 1.394 . S
C2584 H2600 0.931 . S
C2585 C2584 1.391 . S
C2585 C2589 1.376 . S
C2586 C2584 1.394 . S
C2586 C2587 1.369 . S
C2586 C2590 1.531 . S
C2587 C2586 1.369 . S
C2587 C2588 1.410 . S
C2587 C2595 1.503 . S
C2588 C2587 1.410 . S
C2588 C2589 1.392 . S
C2588 C2591 1.511 . S
C2589 C2585 1.376 . S
C2589 C2588 1.392 . S
C2589 H2601 0.929 . S
C2590 C2586 1.531 . S
C2590 H2602 0.960 . S
C2590 H2603 0.962 . S
C2590 H2604 0.960 . S
C2591 C2588 1.511 . S
C2591 H2605 0.961 . S
C2591 H2606 0.961 . S
C2591 H2607 0.961 . S
C2592 C2593 1.370 . S
C2592 C2594 1.363 . S
C2592 H2608 0.931 . S
C2593 C2592 1.370 . S
C2593 C2597 1.408 . S
C2594 C2592 1.363 . S
C2594 C2595 1.370 . S
C2594 C2598 1.524 . S
C2595 C2587 1.503 . S
C2595 C2594 1.370 . S
C2595 C2596 1.403 . S
C2596 C2595 1.403 . S
C2596 C2597 1.404 . S
C2596 C2599 1.539 . S
C2597 C2593 1.408 . S
C2597 C2596 1.404 . S
C2597 H2609 0.930 . S
C2598 C2594 1.524 . S
C2598 H2610 0.956 . S
C2598 H2611 0.961 . S
C2598 H2612 0.961 . S
C2599 C2596 1.539 . S
C2599 H2613 0.958 . S
C2599 H2614 0.961 . S
C2599 H2615 0.960 . S
H2600 C2584 0.931 . S
H2601 C2589 0.929 . S
H2602 C2590 0.960 . S
H2603 C2590 0.962 . S
H2604 C2590 0.960 . S
H2605 C2591 0.961 . S
H2606 C2591 0.961 . S
H2607 C2591 0.961 . S
H2608 C2592 0.931 . S
H2609 C2597 0.930 . S
H2610 C2598 0.956 . S
H2611 C2598 0.961 . S
H2612 C2598 0.961 . S
H2613 C2599 0.958 . S
H2614 C2599 0.961 . S
H2615 C2599 0.960 . S
C2616 C2617 1.391 . S
C2616 C2618 1.394 . S
C2616 H2632 0.931 . S
C2617 C2616 1.391 . S
C2617 C2621 1.376 . S
C2618 C2616 1.394 . S
C2618 C2619 1.369 . S
C2618 C2622 1.531 . S
C2619 C2618 1.369 . S
C2619 C2620 1.410 . S
C2619 C2627 1.503 . S
C2620 C2619 1.410 . S
C2620 C2621 1.392 . S
C2620 C2623 1.511 . S
C2621 C2617 1.376 . S
C2621 C2620 1.392 . S
C2621 H2633 0.929 . S
C2622 C2618 1.531 . S
C2622 H2634 0.960 . S
C2622 H2635 0.962 . S
C2622 H2636 0.960 . S
C2623 C2620 1.511 . S
C2623 H2637 0.961 . S
C2623 H2638 0.961 . S
C2623 H2639 0.961 . S
C2624 C2625 1.370 . S
C2624 C2626 1.363 . S
C2624 H2640 0.931 . S
C2625 C2624 1.370 . S
C2625 C2629 1.408 . S
C2626 C2624 1.363 . S
C2626 C2627 1.370 . S
C2626 C2630 1.524 . S
C2627 C2619 1.503 . S
C2627 C2626 1.370 . S
C2627 C2628 1.403 . S
C2628 C2627 1.403 . S
C2628 C2629 1.404 . S
C2628 C2631 1.539 . S
C2629 C2625 1.408 . S
C2629 C2628 1.404 . S
C2629 H2641 0.930 . S
C2630 C2626 1.524 . S
C2630 H2642 0.956 . S
C2630 H2643 0.961 . S
C2630 H2644 0.961 . S
C2631 C2628 1.539 . S
C2631 H2645 0.958 . S
C2631 H2646 0.961 . S
C2631 H2647 0.960 . S
H2632 C2616 0.931 . S
H2633 C2621 0.929 . S
H2634 C2622 0.960 . S
H2635 C2622 0.962 . S
H2636 C2622 0.960 . S
H2637 C2623 0.961 . S
H2638 C2623 0.961 . S
H2639 C2623 0.961 . S
H2640 C2624 0.931 . S
H2641 C2629 0.930 . S
H2642 C2630 0.956 . S
H2643 C2630 0.961 . S
H2644 C2630 0.961 . S
H2645 C2631 0.958 . S
H2646 C2631 0.961 . S
H2647 C2631 0.960 . S
C2648 C2649 1.391 . S
C2648 C2650 1.394 . S
C2648 H2664 0.931 . S
C2649 C2648 1.391 . S
C2649 C2653 1.376 . S
C2650 C2648 1.394 . S
C2650 C2651 1.369 . S
C2650 C2654 1.531 . S
C2651 C2650 1.369 . S
C2651 C2652 1.410 . S
C2651 C2659 1.503 . S
C2652 C2651 1.410 . S
C2652 C2653 1.392 . S
C2652 C2655 1.511 . S
C2653 C2649 1.376 . S
C2653 C2652 1.392 . S
C2653 H2665 0.929 . S
C2654 C2650 1.531 . S
C2654 H2666 0.960 . S
C2654 H2667 0.962 . S
C2654 H2668 0.960 . S
C2655 C2652 1.511 . S
C2655 H2669 0.961 . S
C2655 H2670 0.961 . S
C2655 H2671 0.961 . S
C2656 C2657 1.370 . S
C2656 C2658 1.363 . S
C2656 H2672 0.931 . S
C2657 C2656 1.370 . S
C2657 C2661 1.408 . S
C2658 C2656 1.363 . S
C2658 C2659 1.370 . S
C2658 C2662 1.524 . S
C2659 C2651 1.503 . S
C2659 C2658 1.370 . S
C2659 C2660 1.403 . S
C2660 C2659 1.403 . S
C2660 C2661 1.404 . S
C2660 C2663 1.539 . S
C2661 C2657 1.408 . S
C2661 C2660 1.404 . S
C2661 H2673 0.930 . S
C2662 C2658 1.524 . S
C2662 H2674 0.956 . S
C2662 H2675 0.961 . S
C2662 H2676 0.961 . S
C2663 C2660 1.539 . S
C2663 H2677 0.958 . S
C2663 H2678 0.961 . S
C2663 H2679 0.960 . S
H2664 C2648 0.931 . S
H2665 C2653 0.929 . S
H2666 C2654 0.960 . S
H2667 C2654 0.962 . S
H2668 C2654 0.960 . S
H2669 C2655 0.961 . S
H2670 C2655 0.961 . S
H2671 C2655 0.961 . S
H2672 C2656 0.931 . S
H2673 C2661 0.930 . S
H2674 C2662 0.956 . S
H2675 C2662 0.961 . S
H2676 C2662 0.961 . S
H2677 C2663 0.958 . S
H2678 C2663 0.961 . S
H2679 C2663 0.960 . S
C2680 C2681 1.391 . S
C2680 C2682 1.394 . S
C2680 H2696 0.931 . S
C2681 C2680 1.391 . S
C2681 C2685 1.376 . S
C2682 C2680 1.394 . S
C2682 C2683 1.369 . S
C2682 C2686 1.531 . S
C2683 C2682 1.369 . S
C2683 C2684 1.410 . S
C2683 C2691 1.503 . S
C2684 C2683 1.410 . S
C2684 C2685 1.392 . S
C2684 C2687 1.511 . S
C2685 C2681 1.376 . S
C2685 C2684 1.392 . S
C2685 H2697 0.929 . S
C2686 C2682 1.531 . S
C2686 H2698 0.960 . S
C2686 H2699 0.962 . S
C2686 H2700 0.960 . S
C2687 C2684 1.511 . S
C2687 H2701 0.961 . S
C2687 H2702 0.961 . S
C2687 H2703 0.961 . S
C2688 C2689 1.370 . S
C2688 C2690 1.363 . S
C2688 H2704 0.931 . S
C2689 C2688 1.370 . S
C2689 C2693 1.408 . S
C2690 C2688 1.363 . S
C2690 C2691 1.370 . S
C2690 C2694 1.524 . S
C2691 C2683 1.503 . S
C2691 C2690 1.370 . S
C2691 C2692 1.403 . S
C2692 C2691 1.403 . S
C2692 C2693 1.404 . S
C2692 C2695 1.539 . S
C2693 C2689 1.408 . S
C2693 C2692 1.404 . S
C2693 H2705 0.930 . S
C2694 C2690 1.524 . S
C2694 H2706 0.956 . S
C2694 H2707 0.961 . S
C2694 H2708 0.961 . S
C2695 C2692 1.539 . S
C2695 H2709 0.958 . S
C2695 H2710 0.961 . S
C2695 H2711 0.960 . S
H2696 C2680 0.931 . S
H2697 C2685 0.929 . S
H2698 C2686 0.960 . S
H2699 C2686 0.962 . S
H2700 C2686 0.960 . S
H2701 C2687 0.961 . S
H2702 C2687 0.961 . S
H2703 C2687 0.961 . S
H2704 C2688 0.931 . S
H2705 C2693 0.930 . S
H2706 C2694 0.956 . S
H2707 C2694 0.961 . S
H2708 C2694 0.961 . S
H2709 C2695 0.958 . S
H2710 C2695 0.961 . S
H2711 C2695 0.960 . S
C793 N113 1.380 . S
C801 C8 1.423 . S
C825 N14 1.405 1_655 S
C833 C41 1.414 . S
C857 N47 1.402 . S
C865 C74 1.415 . S
C889 C107 1.425 . S
C897 N80 1.401 1_455 S
C921 N179 1.406 . S
C929 C140 1.415 . S
C953 N212 1.373 1_455 S
C961 C173 1.418 . S
C985 C206 1.424 . S
C993 N245 1.391 . S
C1017 N146 1.416 1_655 S
C1025 C239 1.420 . S
C1049 C272 1.412 . S
C1057 N608 1.407 . S
C1081 C305 1.425 . S
C1089 N641 1.389 1_554 S
C1113 N674 1.388 . S
C1121 C338 1.424 . S
C1145 N575 1.394 1_554 S
C1153 C371 1.414 . S
C1177 N740 1.403 . S
C1185 C404 1.424 . S
C1209 C437 1.427 . S
C1217 N542 1.396 1_556 S
C1241 C470 1.412 . S
C1249 N773 1.407 . S
C1273 N707 1.389 1_556 S
C1281 C503 1.415 . S
C1305 N311 1.401 . S
C1313 C536 1.415 . S
C1337 C569 1.427 . S
C1345 N509 1.396 . S
C1369 N410 1.408 1_545 S
C1377 C602 1.415 . S
C1401 N443 1.417 . S
C1409 C635 1.418 . S
C1433 N476 1.407 1_565 S
C1441 C668 1.414 . S
C1465 N377 1.392 . S
C1473 C701 1.424 . S
C1497 N278 1.376 1_565 S
C1505 C734 1.417 . S
C1529 N344 1.415 1_545 S
C1537 C767 1.416 . S
C1561 C215 1.648 . S
C1569 C17 1.653 . S
C1593 C50 1.648 . S
C1601 C248 1.647 . S
C1625 C149 1.643 . S
C1633 C83 1.654 . S
C1657 C182 1.652 . S
C1665 C116 1.646 . S
C1689 C347 1.637 . S
C1697 C281 1.652 . S
C1721 C314 1.656 . S
C1729 C380 1.648 . S
C1753 C413 1.643 . S
C1761 C479 1.654 . S
C1785 C512 1.636 . S
C1793 C446 1.653 . S
C1817 C545 1.656 . S
C1825 C578 1.648 . S
C1849 C611 1.647 . S
C1857 C776 1.652 . S
C1881 C644 1.636 . S
C1889 C710 1.653 . S
C1913 C743 1.650 . S
C1921 C677 1.647 . S
C1945 C28 1.215 . S
C1953 N269 1.222 . S
C1977 C61 1.210 . S
C1985 N302 1.216 . S
C2009 N335 1.210 . S
C2017 C94 1.212 . S
C2041 N368 1.197 . S
C2049 C127 1.199 . S
C2073 C160 1.201 . S
C2081 N401 1.211 . S
C2105 N434 1.209 . S
C2113 C193 1.203 . S
C2137 C226 1.193 . S
C2145 N467 1.217 . S
C2169 N500 1.203 . S
C2177 C259 1.204 . S
C2201 C292 1.181 . S
C2209 N533 1.210 . S
C2233 N764 1.203 . S
C2241 C325 1.200 . S
C2265 C358 1.225 . S
C2273 N698 1.223 . S
C2297 C391 1.229 . S
C2305 N731 1.223 . S
C2329 N566 1.229 . S
C2337 C424 1.213 . S
C2361 C457 1.226 . S
C2369 N599 1.221 . S
C2393 C490 1.220 . S
C2401 N632 1.217 . S
C2425 C523 1.229 . S
C2433 N665 1.223 . S
C2457 C556 1.205 . S
C2465 N5 1.212 . S
C2489 C589 1.229 . S
C2497 N137 1.222 . S
C2521 C622 1.214 . S
C2529 N170 1.221 . S
C2553 N203 1.197 . S
C2561 C655 1.200 . S
C2585 C688 1.219 . S
C2593 N236 1.222 . S
C2617 N71 1.201 . S
C2625 C721 1.198 . S
C2649 N104 1.200 . S
C2657 C754 1.199 . S
C2681 C787 1.181 . S
C2689 N38 1.209 . S
