# Generated by pormake.
# Topology sod, (4)-cn, num edge types: 1
# Building blocks:
#     Node 0, Type 0, BuildingBlock: ICAMEG_clean_sbu_1, # of connection points: 4
#     Node 1, Type 0, BuildingBlock: ICAMEG_clean_sbu_1, # of connection points: 4
#     Node 2, Type 0, BuildingBlock: ICAMEG_clean_sbu_1, # of connection points: 4
#     Node 3, Type 0, BuildingBlock: ICAMEG_clean_sbu_1, # of connection points: 4
#     Node 4, Type 0, BuildingBlock: ICAMEG_clean_sbu_1, # of connection points: 4
#     Node 5, Type 0, BuildingBlock: ICAMEG_clean_sbu_1, # of connection points: 4
#     Node 6, Type 0, BuildingBlock: ICAMEG_clean_sbu_1, # of connection points: 4
#     Node 7, Type 0, BuildingBlock: ICAMEG_clean_sbu_1, # of connection points: 4
#     Node 8, Type 0, BuildingBlock: ICAMEG_clean_sbu_1, # of connection points: 4
#     Node 9, Type 0, BuildingBlock: ICAMEG_clean_sbu_1, # of connection points: 4
#     Node 10, Type 0, BuildingBlock: ICAMEG_clean_sbu_1, # of connection points: 4
#     Node 11, Type 0, BuildingBlock: ICAMEG_clean_sbu_1, # of connection points: 4
#     Edge 12, Type (0, 0), BuildingBlock: TEMPAE_clean_linker_10, # of connection points: 2
#     Edge 13, Type (0, 0), BuildingBlock: TEMPAE_clean_linker_10, # of connection points: 2
#     Edge 14, Type (0, 0), BuildingBlock: TEMPAE_clean_linker_10, # of connection points: 2
#     Edge 15, Type (0, 0), BuildingBlock: TEMPAE_clean_linker_10, # of connection points: 2
#     Edge 16, Type (0, 0), BuildingBlock: TEMPAE_clean_linker_10, # of connection points: 2
#     Edge 17, Type (0, 0), BuildingBlock: TEMPAE_clean_linker_10, # of connection points: 2
#     Edge 18, Type (0, 0), BuildingBlock: TEMPAE_clean_linker_10, # of connection points: 2
#     Edge 19, Type (0, 0), BuildingBlock: TEMPAE_clean_linker_10, # of connection points: 2
#     Edge 20, Type (0, 0), BuildingBlock: TEMPAE_clean_linker_10, # of connection points: 2
#     Edge 21, Type (0, 0), BuildingBlock: TEMPAE_clean_linker_10, # of connection points: 2
#     Edge 22, Type (0, 0), BuildingBlock: TEMPAE_clean_linker_10, # of connection points: 2
#     Edge 23, Type (0, 0), BuildingBlock: TEMPAE_clean_linker_10, # of connection points: 2
#     Edge 24, Type (0, 0), BuildingBlock: TEMPAE_clean_linker_10, # of connection points: 2
#     Edge 25, Type (0, 0), BuildingBlock: TEMPAE_clean_linker_10, # of connection points: 2
#     Edge 26, Type (0, 0), BuildingBlock: TEMPAE_clean_linker_10, # of connection points: 2
#     Edge 27, Type (0, 0), BuildingBlock: TEMPAE_clean_linker_10, # of connection points: 2
#     Edge 28, Type (0, 0), BuildingBlock: TEMPAE_clean_linker_10, # of connection points: 2
#     Edge 29, Type (0, 0), BuildingBlock: TEMPAE_clean_linker_10, # of connection points: 2
#     Edge 30, Type (0, 0), BuildingBlock: TEMPAE_clean_linker_10, # of connection points: 2
#     Edge 31, Type (0, 0), BuildingBlock: TEMPAE_clean_linker_10, # of connection points: 2
#     Edge 32, Type (0, 0), BuildingBlock: TEMPAE_clean_linker_10, # of connection points: 2
#     Edge 33, Type (0, 0), BuildingBlock: TEMPAE_clean_linker_10, # of connection points: 2
#     Edge 34, Type (0, 0), BuildingBlock: TEMPAE_clean_linker_10, # of connection points: 2
#     Edge 35, Type (0, 0), BuildingBlock: TEMPAE_clean_linker_10, # of connection points: 2
# Relax obj value: 0.209
# Max RMSD: 0.237
# Mean RMSD: 0.236
data_MOF--net-sod--node1-ICAMEG_clean_sbu_1--edge1-TEMPAE_clean_linker_10
_symmetry_space_group_name_H-M    P1
_symmetry_Int_Tables_number       1
_symmetry_cell_setting            triclinic
loop_
_symmetry_equiv_pos_as_xyz
'x, y, z'
_cell_length_a     43.003335
_cell_length_b     47.225141
_cell_length_c     45.129269
_cell_angle_alpha  90.118881
_cell_angle_beta   89.948181
_cell_angle_gamma 90.061556
loop_
_atom_site_label
_atom_site_type_symbol
_atom_site_fract_x
_atom_site_fract_y
_atom_site_fract_z
_atom_type_partial_charge
Co0 Co 0.00217 0.2447 0.54407 0.0
Co1 Co 0.00582 0.24496 0.46859 0.0
O2 O 0.00371 0.26562 0.50644 0.0
C3 C 0.97034 0.30087 0.55492 0.0
O4 O 0.96897 0.30584 0.52642 0.0
C5 C 0.03624 0.30188 0.45825 0.0
O6 O 0.03705 0.30699 0.48676 0.0
O7 O 0.04541 0.22699 0.48239 0.0
O8 O 0.02752 0.21304 0.52663 0.0
H9 H 0.02331 0.15778 0.40675 0.0
H10 H 0.02923 0.30312 0.54116 0.0
O11 O 0.97811 0.27637 0.56424 0.0
H12 H 0.10876 0.24545 0.59068 0.0
H13 H 0.00282 0.23274 0.65511 0.0
H14 H 0.99102 0.18439 0.55883 0.0
H15 H 0.05955 0.22401 0.57437 0.0
H16 H 0.00701 0.25955 0.60849 0.0
O17 O 0.02912 0.27722 0.44879 0.0
H18 H 0.01861 0.18502 0.45316 0.0
H19 H 1.00055 0.26007 0.40434 0.0
H20 H 0.98701 0.15676 0.60493 0.0
H21 H 0.07756 0.32572 0.55777 0.0
H22 H 0.99293 0.18093 0.65353 0.0
H23 H 0.11801 0.29681 0.5827 0.0
O24 O 0.96305 0.22581 0.53007 0.0
H25 H 0.92846 0.3243 0.45531 0.0
H26 H 0.94894 0.22301 0.43826 0.0
H27 H 0.89924 0.24338 0.42198 0.0
H28 H 0.88876 0.29452 0.43018 0.0
H29 H 0.97729 0.30276 0.47189 0.0
H30 H 0.0054 0.23366 0.35743 0.0
H31 H 0.01668 0.1821 0.35842 0.0
O32 O 0.98133 0.2126 0.48568 0.0
C33 C 0.04741 0.21156 0.50561 0.0
C34 C 0.01833 0.18023 0.40603 0.0
C35 C 0.00833 0.22282 0.37835 0.0
N36 N 0.00919 0.2241 0.43155 0.0
C37 C 0.01559 0.19577 0.43225 0.0
C38 C 0.00576 0.23769 0.40502 0.0
C39 C 0.01464 0.19389 0.37892 0.0
C40 C 0.04621 0.29045 0.55231 0.0
N41 N 0.04099 0.26231 0.55704 0.0
C42 C 0.0738 0.30335 0.56153 0.0
C43 C 0.09648 0.28713 0.57547 0.0
C44 C 0.09131 0.25834 0.57993 0.0
C45 C 0.06336 0.24625 0.57049 0.0
C46 C 1.0002 0.22196 0.63407 0.0
C47 C 0.99373 0.19508 0.57986 0.0
C48 C 0.00239 0.23706 0.60757 0.0
N49 N 0.99936 0.22355 0.58088 0.0
C50 C 0.99138 0.17931 0.60591 0.0
C51 C 0.99467 0.19289 0.63317 0.0
C52 C 0.96153 0.21042 0.50669 0.0
C53 C 0.93276 0.30201 0.45144 0.0
C54 C 0.94459 0.24517 0.44223 0.0
C55 C 0.91637 0.25664 0.43281 0.0
C56 C 0.9105 0.28531 0.4374 0.0
N57 N 0.96655 0.2617 0.45578 0.0
C58 C 0.96065 0.28973 0.46064 0.0
Co59 Co 0.73999 0.03847 0.50817 0.0
Co60 Co 0.73683 0.96739 0.50089 0.0
O61 O 0.76221 1.00209 0.50437 0.0
C62 C 0.8026 0.05341 0.48131 0.0
O63 O 0.81118 0.02676 0.48036 0.0
C64 C 0.79766 0.94795 0.52857 0.0
O65 O 0.80552 0.97338 0.53761 0.0
O66 O 0.72001 0.97567 0.54127 0.0
O67 O 0.70468 0.01944 0.52962 0.0
H68 H 0.63741 0.91239 0.5122 0.0
H69 H 0.80361 0.03002 0.53462 0.0
O70 O 0.77481 0.06003 0.48834 0.0
H71 H 0.73922 0.06829 0.61546 0.0
H72 H 0.72876 0.14366 0.52454 0.0
H73 H 0.67425 0.05498 0.49908 0.0
H74 H 0.71659 0.05998 0.5662 0.0
H75 H 0.75731 0.09849 0.52223 0.0
O76 O 0.77103 0.94326 0.51732 0.0
H77 H 0.67075 0.95478 0.51423 0.0
H78 H 0.74784 0.90679 0.4835 0.0
H79 H 0.64473 0.09964 0.50157 0.0
H80 H 0.82721 0.03849 0.58323 0.0
H81 H 0.67201 0.14442 0.51434 0.0
H82 H 0.79502 0.05777 0.62426 0.0
O83 O 0.7201 0.03072 0.46871 0.0
H84 H 0.82083 0.96406 0.42325 0.0
H85 H 0.70945 0.94837 0.44308 0.0
H86 H 0.72982 0.94067 0.39274 0.0
H87 H 0.78597 0.94836 0.38253 0.0
H88 H 0.79938 0.97183 0.47317 0.0
H89 H 0.71542 0.86384 0.48151 0.0
H90 H 0.65969 0.86648 0.49575 0.0
O91 O 0.70173 0.98883 0.48252 0.0
C92 C 0.70422 0.998 0.54685 0.0
C93 C 0.66165 0.91097 0.5059 0.0
C94 C 0.70543 0.88372 0.48873 0.0
N95 N 0.71127 0.93341 0.4989 0.0
C96 C 0.68067 0.93494 0.50696 0.0
C97 C 0.72375 0.90813 0.49005 0.0
C98 C 0.67417 0.88522 0.49669 0.0
C99 C 0.78947 0.03901 0.55183 0.0
N100 N 0.75892 0.04535 0.54687 0.0
C101 C 0.80296 0.04351 0.57959 0.0
C102 C 0.78489 0.05426 0.60261 0.0
C103 C 0.75362 0.06019 0.59768 0.0
C104 C 0.74096 0.05549 0.56962 0.0
C105 C 0.71661 0.12429 0.51895 0.0
C106 C 0.68628 0.07433 0.50479 0.0
C107 C 0.73268 0.09864 0.51746 0.0
N108 N 0.71745 0.07404 0.51059 0.0
C109 C 0.66944 0.09958 0.50611 0.0
C110 C 0.68477 0.1247 0.51325 0.0
C111 C 0.70244 0.00935 0.46431 0.0
C112 C 0.79633 0.96057 0.42741 0.0
C113 C 0.73387 0.95189 0.4389 0.0
C114 C 0.74529 0.94743 0.4103 0.0
C115 C 0.77677 0.95177 0.40458 0.0
N116 N 0.7532 0.96044 0.46127 0.0
C117 C 0.78404 0.96494 0.4557 0.0
Co118 Co 0.00657 0.76559 0.46279 0.0
Co119 Co 1.00117 0.76563 0.53799 0.0
O120 O 0.00388 0.74462 0.50029 0.0
C121 C 0.97714 0.70893 0.44708 0.0
O122 O 0.97078 0.70332 0.47487 0.0
C123 C 0.03239 0.70986 0.5516 0.0
O124 O 0.03544 0.70428 0.5233 0.0
O125 O 0.0413 0.78534 0.52803 0.0
O126 O 0.02659 0.79852 0.48281 0.0
H127 H 0.00733 0.85395 0.60003 0.0
H128 H 0.03466 0.70774 0.46652 0.0
O129 O 0.98761 0.73323 0.43979 0.0
H130 H 0.11986 0.77012 0.434 0.0
H131 H 0.027 0.7788 0.35354 0.0
H132 H 0.99208 0.82473 0.44581 0.0
H133 H 0.06755 0.78938 0.44279 0.0
H134 H 0.02567 0.75226 0.40044 0.0
O135 O 0.02391 0.73448 0.56009 0.0
H136 H 0.00864 0.82623 0.55372 0.0
H137 H 0.99068 0.75064 0.60173 0.0
H138 H 0.99343 0.85231 0.39957 0.0
H139 H 0.08634 0.68749 0.45736 0.0
H140 H 0.01095 0.82931 0.3529 0.0
H141 H 0.12956 0.71874 0.44108 0.0
O142 O 0.96495 0.78229 0.47188 0.0
H143 H 0.92599 0.6836 0.54359 0.0
H144 H 0.94079 0.78539 0.56321 0.0
H145 H 0.89084 0.76295 0.57571 0.0
H146 H 0.88319 0.71159 0.56618 0.0
H147 H 0.97519 0.70705 0.53102 0.0
H148 H 0.98953 0.77753 0.64856 0.0
H149 H 0.99772 0.8296 0.64791 0.0
O150 O 0.97668 0.79658 0.51818 0.0
C151 C 0.04441 0.80102 0.50514 0.0
C152 C 0.00368 0.83128 0.6006 0.0
C153 C 0.99375 0.78838 0.62784 0.0
N154 N 0.99967 0.78684 0.57492 0.0
C155 C 0.00433 0.81546 0.57442 0.0
C156 C 0.9946 0.77324 0.60123 0.0
C157 C 0.99832 0.8176 0.62745 0.0
C158 C 0.05304 0.72154 0.45921 0.0
N159 N 0.04776 0.7498 0.45524 0.0
C160 C 0.08242 0.70992 0.45415 0.0
C161 C 0.10666 0.72745 0.44506 0.0
C162 C 0.10125 0.75626 0.44112 0.0
C163 C 0.07154 0.76709 0.44633 0.0
C164 C 0.01907 0.78902 0.37366 0.0
C165 C 0.99945 0.81452 0.42563 0.0
C166 C 0.01795 0.77397 0.40025 0.0
N167 N 0.00818 0.78672 0.42584 0.0
C168 C 1.00029 0.83027 0.39949 0.0
C169 C 0.01013 0.81736 0.37333 0.0
C170 C 0.95946 0.79713 0.4951 0.0
C171 C 0.92912 0.70592 0.54822 0.0
C172 C 0.93788 0.76298 0.55917 0.0
C173 C 0.90942 0.75041 0.56624 0.0
C174 C 0.90512 0.72163 0.56083 0.0
N175 N 0.96162 0.74735 0.54728 0.0
C176 C 0.95721 0.71927 0.54138 0.0
Co177 Co 0.26687 0.96901 0.50436 0.0
Co178 Co 0.27033 0.04051 0.50232 0.0
O179 O 0.24517 0.00564 0.50352 0.0
C180 C 0.20344 0.9567 0.4786 0.0
O181 O 0.19562 0.98354 0.47907 0.0
C182 C 0.20863 0.05692 0.52977 0.0
O183 O 0.19964 0.03041 0.53076 0.0
O184 O 0.28859 0.02922 0.54136 0.0
O185 O 0.30304 0.98634 0.52585 0.0
H186 H 0.36986 0.09506 0.51476 0.0
H187 H 0.20407 0.97638 0.53311 0.0
O188 O 0.23129 0.94919 0.48407 0.0
H189 H 0.26985 0.93207 0.60907 0.0
H190 H 0.27697 0.86293 0.51289 0.0
H191 H 0.33208 0.95236 0.49223 0.0
H192 H 0.2912 0.94305 0.55991 0.0
H193 H 0.24906 0.90843 0.51457 0.0
O194 O 0.23653 0.06313 0.52263 0.0
H195 H 0.33691 0.05233 0.51393 0.0
H196 H 0.25811 0.10207 0.49153 0.0
H197 H 0.36098 0.90733 0.49075 0.0
H198 H 0.18166 0.96527 0.5816 0.0
H199 H 0.3334 0.86218 0.50111 0.0
H200 H 0.21457 0.94297 0.62022 0.0
O201 O 0.28559 0.97902 0.46524 0.0
H202 H 0.18488 0.05039 0.42633 0.0
H203 H 0.29672 0.06311 0.44594 0.0
H204 H 0.27582 0.0751 0.39685 0.0
H205 H 0.21944 0.06897 0.38676 0.0
H206 H 0.20675 0.03823 0.47481 0.0
H207 H 0.29015 0.14535 0.49251 0.0
H208 H 0.3465 0.14201 0.50401 0.0
O209 O 0.30477 0.02044 0.48055 0.0
C210 C 0.30403 0.00634 0.5449 0.0
C211 C 0.34535 0.09679 0.50966 0.0
C212 C 0.30061 0.12502 0.49722 0.0
N213 N 0.29563 0.07462 0.50258 0.0
C214 C 0.32658 0.07264 0.5091 0.0
C215 C 0.28255 0.10042 0.49684 0.0
C216 C 0.33222 0.12312 0.50366 0.0
C217 C 0.21857 0.9663 0.54925 0.0
N218 N 0.24886 0.95993 0.54301 0.0
C219 C 0.20572 0.9602 0.57696 0.0
C220 C 0.22419 0.94774 0.59863 0.0
C221 C 0.25517 0.94162 0.59238 0.0
C222 C 0.26715 0.94793 0.5644 0.0
C223 C 0.28926 0.88246 0.50834 0.0
C224 C 0.31993 0.93284 0.4969 0.0
C225 C 0.27353 0.90831 0.5091 0.0
N226 N 0.28894 0.93311 0.5036 0.0
C227 C 0.33641 0.90738 0.49597 0.0
C228 C 0.32092 0.88206 0.50175 0.0
C229 C 0.30346 1.00035 0.46161 0.0
C230 C 0.20943 0.05344 0.43053 0.0
C231 C 0.27211 0.06047 0.44193 0.0
C232 C 0.26043 0.06727 0.41398 0.0
C233 C 0.22883 0.0638 0.40833 0.0
N234 N 0.25291 0.05059 0.46382 0.0
C235 C 0.22197 0.04676 0.45818 0.0
Co236 Co 0.50045 0.96881 0.25937 0.0
Co237 Co 0.51022 0.03945 0.26598 0.0
O238 O 0.5061 0.00588 0.24031 0.0
C239 C 0.52917 0.95637 0.19945 0.0
O240 O 0.53091 0.98341 0.19311 0.0
C241 C 0.48346 0.06124 0.20798 0.0
O242 O 0.47062 0.03692 0.20107 0.0
O243 O 0.46701 0.032 0.28064 0.0
O244 O 0.47699 0.98697 0.29295 0.0
H245 H 0.49719 0.09227 0.36203 0.0
H246 H 0.47427 0.98215 0.19908 0.0
O247 O 0.52207 0.94835 0.2256 0.0
H248 H 0.38768 0.93992 0.25483 0.0
H249 H 0.48089 0.86357 0.26405 0.0
H250 H 0.50664 0.94936 0.32148 0.0
H251 H 0.43856 0.94692 0.2785 0.0
H252 H 0.48551 0.90982 0.23926 0.0
O253 O 0.49566 0.06511 0.23336 0.0
H254 H 0.49434 0.05086 0.3289 0.0
H255 H 0.53148 0.09946 0.25804 0.0
H256 H 0.50178 0.90358 0.3472 0.0
H257 H 0.4242 0.97493 0.17434 0.0
H258 H 0.48884 0.86025 0.31844 0.0
H259 H 0.38024 0.95361 0.20221 0.0
O260 O 0.5412 0.97479 0.28044 0.0
H261 H 0.59544 0.04226 0.18949 0.0
H262 H 0.57047 0.05438 0.29537 0.0
H263 H 0.6245 0.06046 0.2785 0.0
H264 H 0.63732 0.05453 0.22516 0.0
H265 H 0.54175 0.0362 0.20737 0.0
H266 H 0.53437 0.14146 0.29036 0.0
H267 H 0.51732 0.13801 0.34283 0.0
O268 O 0.52696 0.01633 0.29925 0.0
C269 C 0.46035 0.00936 0.29497 0.0
C270 C 0.50473 0.09404 0.33922 0.0
C271 C 0.52554 0.12164 0.29899 0.0
N272 N 0.51282 0.0726 0.29152 0.0
C273 C 0.50322 0.07062 0.32033 0.0
C274 C 0.5237 0.09778 0.28074 0.0
C275 C 0.516 0.11969 0.32843 0.0
C276 C 0.45593 0.97204 0.21117 0.0
N277 N 0.4603 0.96362 0.23978 0.0
C278 C 0.42727 0.96837 0.19712 0.0
C279 C 0.4026 0.9565 0.21278 0.0
C280 C 0.40678 0.94878 0.24226 0.0
C281 C 0.43582 0.95269 0.2555 0.0
C282 C 0.48655 0.8823 0.27682 0.0
C283 C 0.50088 0.93065 0.30881 0.0
C284 C 0.48938 0.90855 0.26288 0.0
N285 N 0.49628 0.93236 0.27891 0.0
C286 C 0.49822 0.90476 0.32349 0.0
C287 C 0.49098 0.88045 0.30734 0.0
C288 C 0.54499 0.99502 0.29896 0.0
C289 C 0.59015 0.04499 0.21278 0.0
C290 C 0.57574 0.05179 0.27211 0.0
C291 C 0.60645 0.05525 0.26269 0.0
C292 C 0.61363 0.05188 0.23279 0.0
N293 N 0.55273 0.04521 0.25232 0.0
C294 C 0.55973 0.04156 0.22304 0.0
Co295 Co 0.99758 0.53294 0.23982 0.0
Co296 Co 0.0082 0.4625 0.24717 0.0
O297 O 0.00233 0.4998 0.26581 0.0
C298 C 0.02515 0.5556 0.29714 0.0
O299 O 0.03824 0.53144 0.30399 0.0
C300 C 0.97996 0.45077 0.30745 0.0
O301 O 0.97807 0.4779 0.31344 0.0
O302 O 0.96717 0.46766 0.22651 0.0
O303 O 0.98049 0.50919 0.20704 0.0
H304 H 0.00645 0.39579 0.16028 0.0
H305 H 0.96705 0.53089 0.29899 0.0
O306 O 0.0125 0.55915 0.27193 0.0
H307 H 0.88294 0.55263 0.22856 0.0
H308 H 0.97235 0.63439 0.21455 0.0
H309 H 0.01228 0.5435 0.17651 0.0
H310 H 0.93673 0.54647 0.211 0.0
H311 H 0.976 0.59289 0.24731 0.0
O312 O 0.98722 0.44237 0.28145 0.0
H313 H 1.00142 0.44194 0.18541 0.0
H314 H 0.02414 0.40405 0.26791 0.0
H315 H 0.00867 0.58439 0.14294 0.0
H316 H 0.91366 0.53716 0.31755 0.0
H317 H 0.9886 0.63029 0.1619 0.0
H318 H 0.87109 0.54814 0.28224 0.0
O319 O 0.04058 0.52569 0.22468 0.0
H320 H 0.08526 0.47056 0.33136 0.0
H321 H 0.07016 0.44127 0.22754 0.0
H322 H 0.12143 0.43528 0.25073 0.0
H323 H 0.12925 0.44964 0.30317 0.0
H324 H 0.03479 0.47676 0.30709 0.0
H325 H 0.02897 0.35744 0.24371 0.0
H326 H 0.02029 0.3531 0.18948 0.0
O327 O 0.031 0.48036 0.21304 0.0
C328 C 0.96296 0.4875 0.20771 0.0
C329 C 0.01034 0.39741 0.18392 0.0
C330 C 0.02292 0.37588 0.23075 0.0
N331 N 0.01257 0.42578 0.22808 0.0
C332 C 0.00758 0.42352 0.19827 0.0
C333 C 0.01998 0.40234 0.24435 0.0
C334 C 0.01808 0.37347 0.20032 0.0
C335 C 0.94878 0.53575 0.28347 0.0
N336 N 0.95525 0.5386 0.254 0.0
C337 C 0.91852 0.53927 0.29412 0.0
C338 C 0.89466 0.54543 0.27431 0.0
C339 C 0.9013 0.54799 0.24421 0.0
C340 C 0.93186 0.54447 0.23441 0.0
C341 C 0.98116 0.61452 0.20603 0.0
C342 C 0.00344 0.56333 0.18498 0.0
C343 C 0.98343 0.59094 0.22454 0.0
N344 N 0.99432 0.56568 0.21391 0.0
C345 C 0.00149 0.58645 0.16584 0.0
C346 C 0.99025 0.61219 0.17649 0.0
C347 C 0.04721 0.50297 0.21043 0.0
C348 C 0.08204 0.46373 0.30866 0.0
C349 C 0.07309 0.44734 0.25047 0.0
C350 C 0.10233 0.444 0.26344 0.0
C351 C 0.10672 0.45209 0.29282 0.0
N352 N 0.04863 0.45809 0.26636 0.0
C353 C 0.05318 0.46683 0.29488 0.0
Co354 Co 0.49511 0.03331 0.74155 0.0
Co355 Co 0.50758 0.96306 0.74791 0.0
O356 O 0.50079 0.99998 0.76707 0.0
C357 C 0.5231 0.056 0.79869 0.0
O358 O 0.53763 0.03231 0.8047 0.0
C359 C 0.47985 0.95005 0.80813 0.0
O360 O 0.47741 0.97706 0.8145 0.0
O361 O 0.46638 0.96756 0.72743 0.0
O362 O 0.47856 0.00961 0.70848 0.0
H363 H 0.50744 0.89738 0.66013 0.0
H364 H 0.46501 0.03028 0.8008 0.0
O365 O 0.50941 0.05939 0.77397 0.0
H366 H 0.37989 0.05029 0.7309 0.0
H367 H 0.46694 0.13443 0.71776 0.0
H368 H 0.50933 0.04499 0.67836 0.0
H369 H 0.43375 0.04556 0.71305 0.0
H370 H 0.47195 0.09264 0.74995 0.0
O371 O 0.48728 0.9421 0.78201 0.0
H372 H 0.50127 0.94311 0.68586 0.0
H373 H 0.52502 0.90471 0.76784 0.0
H374 H 0.50438 0.08619 0.64535 0.0
H375 H 0.41153 0.03514 0.81965 0.0
H376 H 0.48305 0.13135 0.66499 0.0
H377 H 0.36846 0.04522 0.7846 0.0
O378 O 0.53829 0.02716 0.72629 0.0
H379 H 0.58488 0.97236 0.83172 0.0
H380 H 0.56997 0.94325 0.72783 0.0
H381 H 0.62151 0.93827 0.75073 0.0
H382 H 0.62924 0.95253 0.80321 0.0
H383 H 0.53411 0.97758 0.80771 0.0
H384 H 0.531 0.85851 0.74303 0.0
H385 H 0.52237 0.85465 0.68875 0.0
O386 O 0.52973 0.98181 0.71394 0.0
C387 C 0.46172 0.98747 0.70882 0.0
C388 C 0.5113 0.8988 0.68378 0.0
C389 C 0.52446 0.87698 0.73031 0.0
N390 N 0.51284 0.92668 0.72832 0.0
C391 C 0.50791 0.92467 0.69848 0.0
C392 C 0.52086 0.90319 0.74427 0.0
C393 C 0.51965 0.87483 0.69986 0.0
C394 C 0.4465 0.03477 0.78541 0.0
N395 N 0.45271 0.03788 0.75591 0.0
C396 C 0.41621 0.03748 0.79622 0.0
C397 C 0.39206 0.04314 0.77654 0.0
C398 C 0.39846 0.04601 0.74643 0.0
C399 C 0.42906 0.0433 0.73647 0.0
C400 C 0.47629 0.11487 0.70894 0.0
C401 C 0.49997 0.0645 0.68713 0.0
C402 C 0.47934 0.09114 0.72712 0.0
N403 N 0.49091 0.06628 0.71611 0.0
C404 C 0.49725 0.0878 0.6683 0.0
C405 C 0.48531 0.11313 0.67933 0.0
C406 C 0.54545 0.00474 0.71178 0.0
C407 C 0.58171 0.96555 0.80901 0.0
C408 C 0.57286 0.94923 0.75079 0.0
C409 C 0.60225 0.94647 0.76359 0.0
C410 C 0.6066 0.95452 0.79299 0.0
N411 N 0.5482 0.95933 0.76687 0.0
C412 C 0.55268 0.96807 0.7954 0.0
Co413 Co 0.99791 0.47275 0.76056 0.0
Co414 Co 1.00034 0.5444 0.75885 0.0
O415 O 0.99893 0.50806 0.73753 0.0
C416 C 0.02343 0.4571 0.70008 0.0
O417 O 0.02335 0.48366 0.69175 0.0
C418 C 0.97401 0.55736 0.6982 0.0
O419 O 0.97409 0.53048 0.6909 0.0
O420 O 0.95948 0.53419 0.77734 0.0
O421 O 0.97574 0.49224 0.79408 0.0
H422 H 0.98766 0.60496 0.84978 0.0
H423 H 0.96635 0.47815 0.70141 0.0
O424 O 0.01851 0.45066 0.72717 0.0
H425 H 0.88793 0.4363 0.76748 0.0
H426 H 0.98832 0.36748 0.77701 0.0
H427 H 0.01093 0.45976 0.82359 0.0
H428 H 0.93979 0.44865 0.78641 0.0
H429 H 0.9867 0.41133 0.74756 0.0
O430 O 0.97906 0.56488 0.72496 0.0
H431 H 0.98854 0.5603 0.82147 0.0
H432 H 0.01114 0.60518 0.7428 0.0
H433 H 0.0124 0.41645 0.85391 0.0
H434 H 0.9152 0.4656 0.68135 0.0
H435 H 1.00106 0.36987 0.83063 0.0
H436 H 0.87535 0.44443 0.71448 0.0
O437 O 0.03914 0.48382 0.77786 0.0
H438 H 0.08181 0.54775 0.67807 0.0
H439 H 0.05879 0.56994 0.78249 0.0
H440 H 0.11029 0.58145 0.76214 0.0
H441 H 0.12208 0.57068 0.70943 0.0
H442 H 0.03105 0.53609 0.69956 0.0
H443 H 0.01009 0.65033 0.77024 0.0
H444 H 0.99848 0.65041 0.82416 0.0
O445 O 0.02307 0.5265 0.79277 0.0
C446 C 0.95645 0.5128 0.79451 0.0
C447 C 0.9928 0.60519 0.8263 0.0
C448 C 0.00533 0.63066 0.78165 0.0
N449 N 0.99999 0.58003 0.78052 0.0
C450 C 0.99338 0.57995 0.81014 0.0
C451 C 0.00572 0.60501 0.7662 0.0
C452 C 0.99884 0.63069 0.81191 0.0
C453 C 0.94979 0.46828 0.71579 0.0
N454 N 0.957 0.46298 0.7447 0.0
C455 C 0.92052 0.4615 0.70439 0.0
C456 C 0.89816 0.4497 0.72298 0.0
C457 C 0.90523 0.4451 0.75268 0.0
C458 C 0.93479 0.45204 0.76323 0.0
C459 C 0.99331 0.38765 0.78741 0.0
C460 C 0.00584 0.43961 0.81329 0.0
C461 C 0.9926 0.41257 0.7708 0.0
N462 N 0.99863 0.43817 0.78384 0.0
C463 C 0.00677 0.41514 0.83057 0.0
C464 C 1.00043 0.38901 0.8175 0.0
C465 C 0.04252 0.5061 0.79377 0.0
C466 C 0.07683 0.55299 0.70094 0.0
C467 C 0.06343 0.56539 0.75943 0.0
C468 C 0.0928 0.57187 0.74808 0.0
C469 C 0.09943 0.56578 0.71855 0.0
N470 N 0.04098 0.55346 0.74185 0.0
C471 C 0.04778 0.54672 0.71315 0.0
Co472 Co 0.23848 0.54113 0.00597 0.0
Co473 Co 0.23284 0.47102 0.99288 0.0
O474 O 0.25871 0.50485 0.99763 0.0
C475 C 0.27616 0.58279 0.97146 0.0
O476 O 0.25049 0.59245 0.95938 0.0
C477 C 0.29494 0.45083 0.01584 0.0
O478 O 0.30454 0.47694 0.01969 0.0
O479 O 0.2166 0.47739 0.03388 0.0
O480 O 0.20231 0.52226 0.02612 0.0
H481 H 0.13262 0.4168 1.00141 0.0
H482 H 0.30352 0.53249 0.02587 0.0
O483 O 0.27523 0.5606 0.98747 0.0
H484 H 0.24497 0.55573 0.11664 0.0
H485 H 0.23323 0.64315 0.03955 0.0
H486 H 0.17451 0.56269 0.99786 0.0
H487 H 0.21858 0.55418 0.06827 0.0
H488 H 0.2591 0.59745 0.03026 0.0
O489 O 0.2669 0.44574 0.00835 0.0
H490 H 0.16643 0.45882 0.00523 0.0
H491 H 0.24326 0.41119 0.97323 0.0
H492 H 0.14775 0.60804 0.00685 0.0
H493 H 0.33095 0.53432 0.07374 0.0
H494 H 0.17715 0.64868 0.02782 0.0
H495 H 0.30161 0.5459 0.11962 0.0
O496 O 0.21688 0.53759 0.96673 0.0
H497 H 0.31455 0.47077 0.91251 0.0
H498 H 0.2036 0.45593 0.93505 0.0
H499 H 0.22212 0.45024 0.8838 0.0
H500 H 0.27805 0.45743 0.87223 0.0
H501 H 0.29502 0.4768 0.96326 0.0
H502 H 0.21036 0.36859 0.96947 0.0
H503 H 0.15456 0.37125 0.98345 0.0
O504 O 0.19818 0.4943 0.97599 0.0
C505 C 0.20109 0.49941 0.04117 0.0
C506 C 0.15689 0.41538 0.99521 0.0
C507 C 0.20052 0.38831 0.97732 0.0
N508 N 0.20678 0.43755 0.98938 0.0
C509 C 0.17615 0.43913 0.99727 0.0
C510 C 0.21908 0.4125 0.97965 0.0
C511 C 0.16921 0.38983 0.98515 0.0
C512 C 0.2906 0.53771 0.04565 0.0
N513 N 0.25946 0.54316 0.04414 0.0
C514 C 0.30626 0.53865 0.07274 0.0
C515 C 0.28979 0.54513 0.09847 0.0
C516 C 0.25802 0.55063 0.09682 0.0
C517 C 0.24317 0.54957 0.06933 0.0
C518 C 0.22017 0.62562 0.03035 0.0
C519 C 0.18752 0.58029 0.00687 0.0
C520 C 0.2347 0.59967 0.02502 0.0
N521 N 0.21839 0.57741 0.0133 0.0
C522 C 0.17221 0.60591 0.01198 0.0
C523 C 0.18871 0.6287 0.02376 0.0
C524 C 0.19872 0.5169 0.96053 0.0
C525 C 0.2902 0.46721 0.91734 0.0
C526 C 0.22803 0.4589 0.93037 0.0
C527 C 0.23836 0.45572 0.90121 0.0
C528 C 0.26971 0.45979 0.89473 0.0
N529 N 0.24833 0.46577 0.95261 0.0
C530 C 0.27901 0.47032 0.94623 0.0
Co531 Co 0.50432 0.26581 0.96511 0.0
Co532 Co 0.49848 0.26595 0.04005 0.0
O533 O 0.50283 0.24469 1.0027 0.0
C534 C 0.47642 0.2085 0.94984 0.0
O535 O 0.47058 0.20289 0.97773 0.0
C536 C 0.53267 0.21197 0.05625 0.0
O537 O 0.5378 0.20562 0.02836 0.0
O538 O 0.53819 0.28657 0.03065 0.0
O539 O 0.52381 0.29915 0.98507 0.0
H540 H 0.5029 0.35482 0.10142 0.0
H541 H 0.53415 0.20887 0.97 0.0
O542 O 0.48613 0.23299 0.94229 0.0
H543 H 0.61708 0.27252 0.93489 0.0
H544 H 0.5229 0.27979 0.85569 0.0
H545 H 0.48775 0.32467 0.94855 0.0
H546 H 0.56434 0.29072 0.9439 0.0
H547 H 0.52296 0.25308 0.90252 0.0
O548 O 0.52153 0.23612 0.06323 0.0
H549 H 0.50645 0.32657 0.0556 0.0
H550 H 0.48215 0.25221 0.10297 0.0
H551 H 0.48774 0.35232 0.90235 0.0
H552 H 0.5863 0.18967 0.96065 0.0
H553 H 0.50535 0.32989 0.85543 0.0
H554 H 0.62836 0.22156 0.94304 0.0
O555 O 0.46205 0.28161 0.97404 0.0
H556 H 0.42787 0.18065 0.04561 0.0
H557 H 0.43576 0.28345 0.06228 0.0
H558 H 0.38626 0.25922 0.07225 0.0
H559 H 0.38208 0.20732 0.0642 0.0
H560 H 0.47654 0.20583 0.03517 0.0
H561 H 0.47886 0.27952 0.14944 0.0
H562 H 0.4891 0.3313 0.14883 0.0
O563 O 0.474 0.29617 0.01977 0.0
C564 C 0.54149 0.30193 0.00752 0.0
C565 C 0.49852 0.33225 0.10201 0.0
C566 C 0.48511 0.29 0.12897 0.0
N567 N 0.49501 0.28761 0.07662 0.0
C568 C 0.50055 0.31611 0.07612 0.0
C569 C 0.48735 0.27455 0.10263 0.0
C570 C 0.49079 0.31904 0.1286 0.0
C571 C 0.55202 0.22291 0.96202 0.0
N572 N 0.54585 0.25093 0.95734 0.0
C573 C 0.58167 0.2119 0.9569 0.0
C574 C 0.60527 0.2298 0.94707 0.0
C575 C 0.59896 0.25838 0.94252 0.0
C576 C 0.56901 0.26861 0.94782 0.0
C577 C 0.51499 0.28976 0.87595 0.0
C578 C 0.49533 0.31466 0.92826 0.0
C579 C 0.51468 0.27462 0.9025 0.0
N580 N 0.50494 0.28708 0.92825 0.0
C581 C 0.49532 0.33047 0.90214 0.0
C582 C 0.5052 0.31788 0.87583 0.0
C583 C 0.45653 0.29682 0.99697 0.0
C584 C 0.42941 0.20325 0.04935 0.0
C585 C 0.43419 0.261 0.05832 0.0
C586 C 0.40605 0.24732 0.0642 0.0
C587 C 0.40373 0.21822 0.05972 0.0
N588 N 0.45947 0.24621 0.04835 0.0
C589 C 0.45714 0.21769 0.04365 0.0
Co590 Co 0.76541 0.46929 0.00564 0.0
Co591 Co 0.76764 0.54089 0.00414 0.0
O592 O 0.74312 0.50567 0.00546 0.0
C593 C 0.70176 0.45663 0.98055 0.0
O594 O 0.69394 0.48347 0.98095 0.0
C595 C 0.7063 0.5563 0.03306 0.0
O596 O 0.69759 0.5297 0.03379 0.0
O597 O 0.78695 0.52951 0.04269 0.0
O598 O 0.80176 0.48693 0.0266 0.0
H599 H 0.86652 0.59669 0.0151 0.0
H600 H 0.70298 0.47555 0.03528 0.0
O601 O 0.72966 0.44917 0.98586 0.0
H602 H 0.77083 0.43205 0.11013 0.0
H603 H 0.77722 0.36331 0.0134 0.0
H604 H 0.83062 0.45349 0.99227 0.0
H605 H 0.79117 0.4435 0.06068 0.0
H606 H 0.74867 0.40846 0.0158 0.0
O607 O 0.73397 0.56285 0.02545 0.0
H608 H 0.83425 0.55351 0.0145 0.0
H609 H 0.75415 0.60238 0.99431 0.0
H610 H 0.86013 0.40882 0.99004 0.0
H611 H 0.68159 0.46396 0.08409 0.0
H612 H 0.83342 0.36329 1.00063 0.0
H613 H 0.71555 0.44206 0.12214 0.0
O614 O 0.78337 0.47975 0.9663 0.0
H615 H 0.6802 0.55068 0.93019 0.0
H616 H 0.79232 0.56443 0.9475 0.0
H617 H 0.77006 0.57678 0.89906 0.0
H618 H 0.71353 0.57014 0.89014 0.0
H619 H 0.70343 0.53817 0.97799 0.0
H620 H 0.78549 0.64608 0.99509 0.0
H621 H 0.84215 0.64341 0.00536 0.0
O622 O 0.80187 0.5215 0.9814 0.0
C623 C 0.80281 0.5068 0.04578 0.0
C624 C 0.84187 0.59813 0.01054 0.0
C625 C 0.79639 0.62585 0.99935 0.0
N626 N 0.79237 0.57535 0.00426 0.0
C627 C 0.82348 0.57373 0.01011 0.0
C628 C 0.77873 0.60102 0.99909 0.0
C629 C 0.82817 0.62433 0.0051 0.0
C630 C 0.71793 0.46566 0.0512 0.0
N631 N 0.74824 0.45979 0.0445 0.0
C632 C 0.70567 0.45928 0.07908 0.0
C633 C 0.72472 0.44704 0.10042 0.0
C634 C 0.7557 0.44142 0.09369 0.0
C635 C 0.7671 0.44799 0.06556 0.0
C636 C 0.78912 0.38301 0.00874 0.0
C637 C 0.81884 0.4338 0.99704 0.0
C638 C 0.77304 0.40866 0.00992 0.0
N639 N 0.78798 0.43368 0.00428 0.0
C640 C 0.83567 0.40856 0.99568 0.0
C641 C 0.82066 0.38302 1.0016 0.0
C642 C 0.80079 0.50138 0.96247 0.0
C643 C 0.70482 0.55393 0.93388 0.0
C644 C 0.76767 0.56151 0.94398 0.0
C645 C 0.75521 0.56854 0.9164 0.0
C646 C 0.72353 0.56479 0.9114 0.0
N647 N 0.74915 0.55113 0.96615 0.0
C648 C 0.71813 0.54705 0.96115 0.0
Co649 Co 0.50133 0.74729 0.04265 0.0
Co650 Co 0.50631 0.74438 0.96754 0.0
O651 O 0.50449 0.76678 0.00433 0.0
C652 C 0.47206 0.80499 0.05087 0.0
O653 O 0.4721 0.80934 0.02223 0.0
C654 C 0.53945 0.7996 0.95572 0.0
O655 O 0.54242 0.80439 0.98415 0.0
O656 O 0.54526 0.72641 0.98264 0.0
O657 O 0.52579 0.71412 0.02684 0.0
H658 H 0.52244 0.6543 0.91009 0.0
H659 H 0.53121 0.80452 0.03831 0.0
O660 O 0.47829 0.78046 0.06111 0.0
H661 H 0.6067 0.74549 0.09168 0.0
H662 H 0.49897 0.73895 0.15404 0.0
H663 H 0.48709 0.68803 0.05922 0.0
H664 H 0.55698 0.72541 0.07491 0.0
H665 H 0.50536 0.76407 0.10662 0.0
O666 O 0.53032 0.77542 0.94653 0.0
H667 H 0.51798 0.68362 0.95511 0.0
H668 H 0.50186 0.75674 0.90262 0.0
H669 H 0.48089 0.66203 0.10618 0.0
H670 H 0.58007 0.82579 0.05537 0.0
H671 H 0.48684 0.68752 0.15404 0.0
H672 H 0.61849 0.79618 0.08224 0.0
O673 O 0.4615 0.72986 0.02847 0.0
H674 H 0.43111 0.82447 0.94978 0.0
H675 H 0.44904 0.72204 0.93813 0.0
H676 H 0.39986 0.74266 0.9207 0.0
H677 H 0.39068 0.79434 0.92619 0.0
H678 H 0.47943 0.80269 0.96759 0.0
H679 H 0.50647 0.72822 0.85705 0.0
H680 H 0.51665 0.67657 0.86059 0.0
O681 O 0.48099 0.71326 0.98596 0.0
C682 C 0.54628 0.71164 0.0064 0.0
C683 C 0.51793 0.67677 0.90825 0.0
C684 C 0.50903 0.71826 0.87849 0.0
N685 N 0.50954 0.72186 0.93158 0.0
C686 C 0.51534 0.69349 0.93369 0.0
C687 C 0.50659 0.73433 0.9044 0.0
C688 C 0.51472 0.68929 0.88049 0.0
C689 C 0.54728 0.79157 0.05031 0.0
N690 N 0.54065 0.7638 0.05584 0.0
C691 C 0.57519 0.8037 0.05978 0.0
C692 C 0.59674 0.78709 0.0748 0.0
C693 C 0.59014 0.75868 0.08008 0.0
C694 C 0.56191 0.74736 0.07037 0.0
C695 C 0.49633 0.72761 0.13333 0.0
C696 C 0.48984 0.69926 0.07994 0.0
C697 C 0.49976 0.74175 0.10637 0.0
N698 N 0.49671 0.72751 0.08011 0.0
C699 C 0.48624 0.68443 0.10647 0.0
C700 C 0.48955 0.69875 0.13331 0.0
C701 C 0.45964 0.71381 0.00565 0.0
C702 C 0.43485 0.80194 0.94709 0.0
C703 C 0.44526 0.74448 0.94085 0.0
C704 C 0.41732 0.75607 0.93082 0.0
C705 C 0.41218 0.78504 0.9339 0.0
N706 N 0.46757 0.76121 0.9536 0.0
C707 C 0.4624 0.78953 0.95699 0.0
C708 C 0.04305 0.32509 0.40862 0.0
C709 C 0.03162 0.32596 0.43768 0.0
C710 C 0.03512 0.34628 0.38802 0.0
C711 C 0.01362 0.36774 0.39614 0.0
C712 C 0.00183 0.36845 0.42544 0.0
C713 C 0.0118 0.34818 0.44606 0.0
C714 C 0.04956 0.34554 0.35754 0.0
C715 C 0.97755 0.38982 0.43467 0.0
C716 C 0.00793 0.43696 0.35337 0.0
C717 C 0.98523 0.43067 0.33206 0.0
C718 C 0.01799 0.41645 0.3737 0.0
C719 C 0.00349 0.38952 0.37415 0.0
C720 C 0.97926 0.38359 0.3537 0.0
C721 C 0.97117 0.40391 0.33221 0.0
C722 C 0.04503 0.42326 0.39384 0.0
C723 C 0.96199 0.35575 0.35437 0.0
H724 H 0.05817 0.30783 0.40203 0.0
H725 H 0.00247 0.34872 0.46838 0.0
H726 H 0.03174 0.33965 0.3409 0.0
H727 H 0.05857 0.3668 0.3515 0.0
H728 H 0.06891 0.33003 0.3561 0.0
H729 H 0.9695 0.38655 0.45782 0.0
H730 H 0.98693 0.4116 0.43275 0.0
H731 H 0.95715 0.38833 0.41968 0.0
H732 H 0.01913 0.45752 0.35315 0.0
H733 H 0.95381 0.39893 0.31559 0.0
H734 H 0.06349 0.40704 0.39114 0.0
H735 H 0.03748 0.42273 0.41732 0.0
H736 H 0.05521 0.44443 0.38921 0.0
H737 H 0.9775 0.33848 0.34672 0.0
H738 H 0.94107 0.35602 0.33995 0.0
H739 H 0.95468 0.35065 0.37735 0.0
C740 C 0.68327 0.02599 0.41428 0.0
C741 C 0.68064 0.0079 0.43875 0.0
C742 C 0.6634 0.02289 0.3896 0.0
C743 C 0.64051 1.0012 0.38945 0.0
C744 C 0.63804 0.9828 0.41398 0.0
C745 C 0.65784 0.98651 0.43826 0.0
C746 C 0.66652 0.04306 0.36389 0.0
C747 C 0.61389 0.95953 0.415 0.0
C748 C 0.56528 0.01166 0.34749 0.0
C749 C 0.56917 0.99426 0.32243 0.0
C750 C 0.5886 0.01457 0.36883 0.0
C751 C 0.61673 0.99949 0.36546 0.0
C752 C 0.62085 0.98149 0.34051 0.0
C753 C 0.59693 0.97905 0.31921 0.0
C754 C 0.58292 0.03373 0.39517 0.0
C755 C 0.65053 0.96496 0.33632 0.0
H756 H 0.70093 0.04238 0.41431 0.0
H757 H 0.65537 0.97236 0.45699 0.0
H758 H 0.66909 0.03105 0.34287 0.0
H759 H 0.64511 0.05601 0.36195 0.0
H760 H 0.68675 0.05751 0.36642 0.0
H761 H 0.61671 0.94559 0.43461 0.0
H762 H 0.59029 0.96898 0.41573 0.0
H763 H 0.61525 0.9463 0.3947 0.0
H764 H 0.54384 0.0234 0.35041 0.0
H765 H 0.60026 0.96585 0.29979 0.0
H766 H 0.60176 0.0497 0.39694 0.0
H767 H 0.58315 0.02111 0.41588 0.0
H768 H 0.56031 0.045 0.39374 0.0
H769 H 0.67067 0.97965 0.33582 0.0
H770 H 0.6504 0.9523 0.31555 0.0
H771 H 0.65406 0.95046 0.35533 0.0
C772 C 0.03844 0.58186 0.34427 0.0
C773 C 0.0182 0.57686 0.32051 0.0
C774 C 0.03118 0.60225 0.36611 0.0
C775 C 0.00246 0.61701 0.36475 0.0
C776 C 0.98149 0.61109 0.34144 0.0
C777 C 0.98991 0.59168 0.31936 0.0
C778 C 0.05462 0.60867 0.39006 0.0
C779 C 0.95021 0.62552 0.33952 0.0
C780 C 0.97313 0.65731 0.4328 0.0
C781 C 0.98023 0.68541 0.42518 0.0
C782 C 0.98 0.63475 0.41334 0.0
C783 C 0.99518 0.64033 0.38605 0.0
C784 C 0.00207 0.66862 0.37819 0.0
C785 C 0.99385 0.6907 0.39743 0.0
C786 C 0.97106 0.60498 0.42197 0.0
C787 C 0.01864 0.67563 0.34957 0.0
H788 H 0.06025 0.57042 0.34531 0.0
H789 H 0.97388 0.58778 0.30135 0.0
H790 H 0.06204 0.63114 0.38845 0.0
H791 H 0.04393 0.60581 0.41222 0.0
H792 H 0.07554 0.59497 0.38846 0.0
H793 H 0.93514 0.61601 0.32215 0.0
H794 H 0.93792 0.62422 0.36111 0.0
H795 H 0.95345 0.64827 0.33435 0.0
H796 H 0.96256 0.65288 0.4541 0.0
H797 H 0.99898 0.71218 0.39089 0.0
H798 H 0.99217 0.59165 0.42378 0.0
H799 H 0.95616 0.59545 0.40453 0.0
H800 H 0.95836 0.60427 0.4434 0.0
H801 H 0.04044 0.66318 0.34778 0.0
H802 H 0.0245 0.69849 0.34784 0.0
H803 H 0.00382 0.66978 0.33041 0.0
C804 C 0.35236 0.01779 0.43806 0.0
C805 C 0.32505 1.00159 0.436 0.0
C806 C 0.37279 0.02033 0.41397 0.0
C807 C 0.36553 0.00682 0.38682 0.0
C808 C 0.33765 0.99092 0.38435 0.0
C809 C 0.31789 0.98822 0.4091 0.0
C810 C 0.4026 0.03687 0.41788 0.0
C811 C 0.32884 0.9766 0.35563 0.0
C812 C 0.41265 0.03053 0.31935 0.0
C813 C 0.43527 0.00919 0.31774 0.0
C814 C 0.38913 0.02968 0.34117 0.0
C815 C 0.38859 0.00727 0.36208 0.0
C816 C 0.41131 0.98573 0.36042 0.0
C817 C 0.43408 0.98685 0.33828 0.0
C818 C 0.36497 0.05281 0.342 0.0
C819 C 0.41209 0.96173 0.38253 0.0
H820 H 0.35807 0.02822 0.45878 0.0
H821 H 0.29656 0.97609 0.40724 0.0
H822 H 0.42283 0.02254 0.41501 0.0
H823 H 0.40446 0.05356 0.40072 0.0
H824 H 0.40422 0.04701 0.44006 0.0
H825 H 0.30528 0.96698 0.35659 0.0
H826 H 0.32952 0.99209 0.33719 0.0
H827 H 0.34591 0.95972 0.35035 0.0
H828 H 0.41323 0.04775 0.30353 0.0
H829 H 0.45139 0.97021 0.33749 0.0
H830 H 0.36705 0.06496 0.36297 0.0
H831 H 0.34131 0.04343 0.34153 0.0
H832 H 0.36736 0.06773 0.32313 0.0
H833 H 0.41536 0.97032 0.40522 0.0
H834 H 0.43107 0.9464 0.37789 0.0
H835 H 0.38965 0.95014 0.38233 0.0
C836 C 0.0032 0.57347 0.65374 0.0
C837 C 0.97988 0.57865 0.6748 0.0
C838 C 0.0135 0.59485 0.63452 0.0
C839 C 0.99853 0.62154 0.63474 0.0
C840 C 0.97375 0.62642 0.65493 0.0
C841 C 0.96549 0.60524 0.67547 0.0
C842 C 0.04117 0.58915 0.61475 0.0
C843 C 0.95597 0.65395 0.65488 0.0
C844 C 0.03754 0.68706 0.60162 0.0
C845 C 0.02704 0.68601 0.57227 0.0
C846 C 0.02937 0.66569 0.62199 0.0
C847 C 0.00843 0.64394 0.61331 0.0
C848 C 0.99735 0.64322 0.58378 0.0
C849 C 0.00771 0.66359 0.56343 0.0
C850 C 0.04314 0.66645 0.65273 0.0
C851 C 0.97361 0.62157 0.57392 0.0
H852 H 0.01462 0.55304 0.65325 0.0
H853 H 0.94763 0.60935 0.69188 0.0
H854 H 0.03395 0.58938 0.59118 0.0
H855 H 0.05887 0.60605 0.61768 0.0
H856 H 0.05218 0.56838 0.6195 0.0
H857 H 0.93463 0.65279 0.66871 0.0
H858 H 0.97088 0.67119 0.66364 0.0
H859 H 0.94927 0.65976 0.63193 0.0
H860 H 0.0523 0.70447 0.60856 0.0
H861 H 0.99919 0.66281 0.54084 0.0
H862 H 0.05208 0.64523 0.65892 0.0
H863 H 0.02493 0.67225 0.66903 0.0
H864 H 0.0624 0.68206 0.65454 0.0
H865 H 0.98378 0.60004 0.57463 0.0
H866 H 0.96512 0.62559 0.55106 0.0
H867 H 0.95338 0.62176 0.58923 0.0
C868 C 0.4089 0.97294 0.68992 0.0
C869 C 0.43809 0.98529 0.68508 0.0
C870 C 0.38506 0.97554 0.66861 0.0
C871 C 0.39075 0.99075 0.64203 0.0
C872 C 0.42052 1.00246 0.63685 0.0
C873 C 0.4437 0.99951 0.65831 0.0
C874 C 0.35361 0.96265 0.67479 0.0
C875 C 0.42784 0.01854 0.60876 0.0
C876 C 0.34474 0.97864 0.57164 0.0
C877 C 0.32555 1.00273 0.57045 0.0
C878 C 0.36479 0.97383 0.59553 0.0
C879 C 0.36628 0.99378 0.61885 0.0
C880 C 0.34684 0.01803 0.61811 0.0
C881 C 0.32663 0.02222 0.59391 0.0
C882 C 0.38514 0.94776 0.59526 0.0
C883 C 0.34798 0.0399 0.64251 0.0
H884 H 0.40434 0.96231 0.71074 0.0
H885 H 0.4663 0.00901 0.65435 0.0
H886 H 0.33577 0.97958 0.67576 0.0
H887 H 0.34695 0.9481 0.65653 0.0
H888 H 0.35317 0.95076 0.696 0.0
H889 H 0.45211 0.02661 0.60833 0.0
H890 H 0.4243 0.00466 0.58919 0.0
H891 H 0.4118 0.03679 0.60646 0.0
H892 H 0.34436 0.96337 0.55369 0.0
H893 H 0.31184 0.04078 0.59334 0.0
H894 H 0.38305 0.93624 0.61656 0.0
H895 H 0.40985 0.95411 0.59275 0.0
H896 H 0.37912 0.93302 0.57692 0.0
H897 H 0.3451 0.02959 0.66441 0.0
H898 H 0.32973 0.05634 0.63995 0.0
H899 H 0.37105 0.05045 0.64251 0.0
C900 C 0.96366 0.3243 0.60462 0.0
C901 C 0.97471 0.32516 0.57542 0.0
C902 C 0.971 0.34605 0.62493 0.0
C903 C 0.99159 0.3681 0.61638 0.0
C904 C 0.00317 0.36868 0.587 0.0
C905 C 0.99373 0.34782 0.56668 0.0
C906 C 0.95673 0.34537 0.65548 0.0
C907 C 0.02651 0.39072 0.57727 0.0
C908 C 0.99436 0.43919 0.65624 0.0
C909 C 0.01774 0.43492 0.67742 0.0
C910 C 0.98484 0.4173 0.63719 0.0
C911 C 1.00056 0.39098 0.63777 0.0
C912 C 0.02522 0.38695 0.65825 0.0
C913 C 0.03279 0.40866 0.67854 0.0
C914 C 0.95733 0.42215 0.61704 0.0
C915 C 0.04373 0.35982 0.65862 0.0
H916 H 0.94915 0.30671 0.6115 0.0
H917 H 0.00278 0.3484 0.54426 0.0
H918 H 0.97488 0.34058 0.67215 0.0
H919 H 0.94678 0.36638 0.66115 0.0
H920 H 0.93812 0.32913 0.65731 0.0
H921 H 0.03525 0.3868 0.55446 0.0
H922 H 0.01586 0.41207 0.57797 0.0
H923 H 0.04661 0.39094 0.59269 0.0
H924 H 0.98242 0.45936 0.65542 0.0
H925 H 0.05073 0.40525 0.69501 0.0
H926 H 0.94008 0.40485 0.61983 0.0
H927 H 0.96495 0.42188 0.59357 0.0
H928 H 0.94564 0.44269 0.62153 0.0
H929 H 0.02897 0.34221 0.6667 0.0
H930 H 0.06451 0.3614 0.67315 0.0
H931 H 0.05145 0.35427 0.63585 0.0
C932 C 0.56752 0.98683 0.66438 0.0
C933 C 0.56988 0.00544 0.6886 0.0
C934 C 0.59054 0.98569 0.64247 0.0
C935 C 0.61702 1.0033 0.64489 0.0
C936 C 0.61973 0.02212 0.66932 0.0
C937 C 0.59591 0.02319 0.6908 0.0
C938 C 0.58625 0.96583 0.61649 0.0
C939 C 0.64784 0.04098 0.6728 0.0
C940 C 0.68565 0.98085 0.59667 0.0
C941 C 0.68228 0.99888 0.57225 0.0
C942 C 0.66533 0.98278 0.62111 0.0
C943 C 0.64083 1.00287 0.62084 0.0
C944 C 0.63744 0.02112 0.59626 0.0
C945 C 0.65825 0.01903 0.57246 0.0
C946 C 0.66988 0.96317 0.64711 0.0
C947 C 0.61128 0.04241 0.59468 0.0
H948 H 0.54733 0.97321 0.66231 0.0
H949 H 0.59796 0.0374 0.70959 0.0
H950 H 0.58578 0.97809 0.59554 0.0
H951 H 0.6061 0.95092 0.61505 0.0
H952 H 0.56441 0.95333 0.61809 0.0
H953 H 0.64705 0.0536 0.69358 0.0
H954 H 0.66932 0.02797 0.67278 0.0
H955 H 0.64949 0.05571 0.65375 0.0
H956 H 0.70435 0.96548 0.59684 0.0
H957 H 0.65534 0.03307 0.5537 0.0
H958 H 0.64968 0.94866 0.64901 0.0
H959 H 0.67111 0.97557 0.66799 0.0
H960 H 0.69135 0.95027 0.64496 0.0
H961 H 0.5886 0.03118 0.5946 0.0
H962 H 0.61267 0.05586 0.57455 0.0
H963 H 0.61161 0.05636 0.61447 0.0
C964 C 0.4248 0.33268 0.02401 0.0
C965 C 0.43095 0.31805 0.99744 0.0
C966 C 0.40142 0.3531 0.02599 0.0
C967 C 0.38415 0.36014 1.00047 0.0
C968 C 0.39021 0.34583 0.97337 0.0
C969 C 0.41338 0.32468 0.97222 0.0
C970 C 0.39555 0.36741 0.05548 0.0
C971 C 0.37271 0.35332 0.94553 0.0
C972 C 0.30843 0.39925 0.0153 0.0
C973 C 0.31792 0.42761 0.01319 0.0
C974 C 0.3295 0.377 0.01037 0.0
C975 C 0.36065 0.38324 1.00248 0.0
C976 C 0.37017 0.41184 0.99974 0.0
C977 C 0.34882 0.43365 0.00547 0.0
C978 C 0.31864 0.34683 0.01435 0.0
C979 C 0.40306 0.41942 0.991 0.0
H980 H 0.43848 0.32845 0.04361 0.0
H981 H 0.41813 0.31382 0.95153 0.0
H982 H 0.4013 0.39026 0.0539 0.0
H983 H 0.37059 0.36576 0.0615 0.0
H984 H 0.40958 0.35806 0.07366 0.0
H985 H 0.37973 0.33997 0.92637 0.0
H986 H 0.34734 0.35083 0.94916 0.0
H987 H 0.37692 0.37586 0.93989 0.0
H988 H 0.2845 0.39445 0.02101 0.0
H989 H 0.35618 0.4555 0.00313 0.0
H990 H 0.33138 0.33697 0.03304 0.0
H991 H 0.32387 0.3342 0.99421 0.0
H992 H 0.2933 0.34548 0.01895 0.0
H993 H 0.41936 0.41299 0.00879 0.0
H994 H 0.40596 0.44248 0.98703 0.0
H995 H 0.40985 0.40778 0.97062 0.0
C996 C 0.32996 0.59235 0.99037 0.0
C997 C 0.30431 0.60113 0.97343 0.0
C998 C 0.35485 0.61072 0.99643 0.0
C999 C 0.35456 0.63855 0.98489 0.0
C1000 C 0.32929 0.64733 0.96697 0.0
C1001 C 0.30442 0.62858 0.96157 0.0
C1002 C 0.38127 0.60044 0.01564 0.0
C1003 C 0.32837 0.67668 0.95382 0.0
C1004 C 0.40712 0.69432 0.0207 0.0
C1005 C 0.43288 0.69408 1.00159 0.0
C1006 C 0.38139 0.6764 0.01558 0.0
C1007 C 0.38133 0.65799 0.99067 0.0
C1008 C 0.40731 0.6576 0.97147 0.0
C1009 C 0.43273 0.67535 0.9773 0.0
C1010 C 0.35426 0.67714 0.03678 0.0
C1011 C 0.40828 0.63846 0.94461 0.0
H1012 H 0.33032 0.57123 0.99966 0.0
H1013 H 0.28474 0.6357 0.94859 0.0
H1014 H 0.40342 0.60121 1.00305 0.0
H1015 H 0.38397 0.61454 0.03516 0.0
H1016 H 0.37759 0.57843 0.02359 0.0
H1017 H 0.30738 0.68014 0.93996 0.0
H1018 H 0.32868 0.69274 0.97179 0.0
H1019 H 0.34934 0.68031 0.93998 0.0
H1020 H 0.40693 0.70862 0.03951 0.0
H1021 H 0.45249 0.67463 0.96242 0.0
H1022 H 0.35043 0.65578 0.04633 0.0
H1023 H 0.33274 0.68302 0.02475 0.0
H1024 H 0.35791 0.69244 0.05519 0.0
H1025 H 0.40672 0.616 0.9516 0.0
H1026 H 0.42987 0.64127 0.9314 0.0
H1027 H 0.38801 0.64275 0.93011 0.0
C1028 C 0.56685 0.34142 0.97992 0.0
C1029 C 0.56493 0.32517 0.00599 0.0
C1030 C 0.58922 0.36261 0.97635 0.0
C1031 C 0.60998 0.36861 0.99974 0.0
C1032 C 0.60787 0.35298 0.02653 0.0
C1033 C 0.58547 0.33123 0.02929 0.0
C1034 C 0.5908 0.37838 0.94725 0.0
C1035 C 0.62931 0.35922 0.05216 0.0
C1036 C 0.68477 0.40604 0.9774 0.0
C1037 C 0.67738 0.43452 0.98285 0.0
C1038 C 0.66331 0.38433 0.98337 0.0
C1039 C 0.63389 0.39117 0.99557 0.0
C1040 C 0.62633 0.41987 1.0012 0.0
C1041 C 0.64803 0.44121 0.99451 0.0
C1042 C 0.67201 0.35408 0.97634 0.0
C1043 C 0.59535 0.42804 0.01446 0.0
H1044 H 0.55097 0.33746 0.96177 0.0
H1045 H 0.5841 0.31904 0.04956 0.0
H1046 H 0.5869 0.40131 0.95101 0.0
H1047 H 0.61426 0.376 0.93731 0.0
H1048 H 0.5733 0.37068 0.931 0.0
H1049 H 0.62394 0.34602 0.07186 0.0
H1050 H 0.65376 0.35532 0.04547 0.0
H1051 H 0.62753 0.38188 0.05848 0.0
H1052 H 0.70751 0.4007 0.96866 0.0
H1053 H 0.64239 0.46308 0.99944 0.0
H1054 H 0.65579 0.34533 0.95953 0.0
H1055 H 0.66982 0.34079 0.99647 0.0
H1056 H 0.69614 0.35222 0.96773 0.0
H1057 H 0.57633 0.42229 0.99899 0.0
H1058 H 0.59383 0.45107 0.01929 0.0
H1059 H 0.59135 0.41615 0.0353 0.0
C1060 C 0.65182 0.57276 0.02395 0.0
C1061 C 0.6824 0.579 0.03268 0.0
C1062 C 0.63005 0.59441 0.01889 0.0
C1063 C 0.63876 0.62306 0.02334 0.0
C1064 C 0.66932 0.62944 0.03303 0.0
C1065 C 0.69085 0.60739 0.03723 0.0
C1066 C 0.59792 0.58666 0.00808 0.0
C1067 C 0.67933 0.6596 0.03878 0.0
C1068 C 0.59074 0.68171 0.98714 0.0
C1069 C 0.57044 0.68927 0.0102 0.0
C1070 C 0.61303 0.66011 0.99099 0.0
C1071 C 0.61556 0.6462 0.01873 0.0
C1072 C 0.59539 0.654 0.0421 0.0
C1073 C 0.57285 0.67495 0.0374 0.0
C1074 C 0.63359 0.65191 0.96526 0.0
C1075 C 0.59753 0.64016 0.07219 0.0
H1076 H 0.64521 0.55095 0.01979 0.0
H1077 H 0.71448 0.6124 0.04378 0.0
H1078 H 0.58015 0.59416 0.02408 0.0
H1079 H 0.59322 0.59732 0.98665 0.0
H1080 H 0.59502 0.56346 0.00501 0.0
H1081 H 0.70365 0.66098 0.04697 0.0
H1082 H 0.67743 0.67217 0.01814 0.0
H1083 H 0.66371 0.66951 0.05541 0.0
H1084 H 0.58893 0.69232 0.96594 0.0
H1085 H 0.55704 0.68003 0.05531 0.0
H1086 H 0.63046 0.6291 0.96008 0.0
H1087 H 0.65837 0.65504 0.97123 0.0
H1088 H 0.62847 0.66443 0.94503 0.0
H1089 H 0.59215 0.61726 0.07027 0.0
H1090 H 0.58127 0.64974 0.08852 0.0
H1091 H 0.62156 0.64202 0.08092 0.0
C1092 C 0.51603 0.84661 0.945 0.0
C1093 C 0.53478 0.82399 0.93562 0.0
C1094 C 0.50544 0.86709 0.9249 0.0
C1095 C 0.51571 0.86623 0.89509 0.0
C1096 C 0.53632 0.84442 0.88595 0.0
C1097 C 0.54472 0.82299 0.90608 0.0
C1098 C 0.48197 0.88874 0.93524 0.0
C1099 C 0.54926 0.84352 0.85486 0.0
C1100 C 0.47123 0.9032 0.83296 0.0
C1101 C 0.4857 0.92977 0.83243 0.0
C1102 C 0.4798 0.88271 0.8541 0.0
C1103 C 0.50496 0.88823 0.87364 0.0
C1104 C 0.51987 0.91497 0.87277 0.0
C1105 C 0.50927 0.9357 0.85297 0.0
C1106 C 0.46207 0.85514 0.85534 0.0
C1107 C 0.54791 0.9213 0.89182 0.0
H1108 H 0.50784 0.84723 0.96772 0.0
H1109 H 0.55901 0.80542 0.89874 0.0
H1110 H 0.49154 0.91042 0.93288 0.0
H1111 H 0.46081 0.8875 0.92121 0.0
H1112 H 0.47507 0.88557 0.95873 0.0
H1113 H 0.56857 0.82805 0.85269 0.0
H1114 H 0.53066 0.83742 0.8391 0.0
H1115 H 0.55788 0.86475 0.84823 0.0
H1116 H 0.45317 0.89852 0.81694 0.0
H1117 H 0.52068 0.95615 0.85254 0.0
H1118 H 0.45617 0.84973 0.87861 0.0
H1119 H 0.47669 0.83778 0.84643 0.0
H1120 H 0.44026 0.856 0.8422 0.0
H1121 H 0.54136 0.92101 0.91557 0.0
H1122 H 0.55838 0.94225 0.88669 0.0
H1123 H 0.56586 0.90471 0.88848 0.0
C1124 C 0.14939 0.50159 0.93663 0.0
C1125 C 0.17628 0.51848 0.93566 0.0
C1126 C 0.12929 0.49957 0.91233 0.0
C1127 C 0.13617 0.51468 0.88611 0.0
C1128 C 0.1631 0.53205 0.88498 0.0
C1129 C 0.1828 0.5339 0.90989 0.0
C1130 C 0.10057 0.48124 0.91481 0.0
C1131 C 0.17128 0.54835 0.85732 0.0
C1132 C 0.09243 0.489 0.81745 0.0
C1133 C 0.06749 0.5081 0.81653 0.0
C1134 C 0.1158 0.49154 0.83924 0.0
C1135 C 0.11393 0.51344 0.86076 0.0
C1136 C 0.08903 0.53291 0.85965 0.0
C1137 C 0.06634 0.53008 0.83761 0.0
C1138 C 0.14219 0.47052 0.83959 0.0
C1139 C 0.08572 0.55627 0.88238 0.0
H1140 H 0.14412 0.48962 0.95649 0.0
H1141 H 0.20378 0.54661 0.90886 0.0
H1142 H 0.07944 0.49433 0.91157 0.0
H1143 H 0.10068 0.46482 0.8972 0.0
H1144 H 0.09884 0.47053 0.93665 0.0
H1145 H 0.19328 0.56049 0.85977 0.0
H1146 H 0.17368 0.53354 0.83834 0.0
H1147 H 0.1523 0.56331 0.85179 0.0
H1148 H 0.09371 0.47212 0.80118 0.0
H1149 H 0.04727 0.54505 0.83732 0.0
H1150 H 0.1408 0.45741 0.85992 0.0
H1151 H 0.16483 0.48181 0.84015 0.0
H1152 H 0.14178 0.45624 0.82 0.0
H1153 H 0.08204 0.5469 0.90464 0.0
H1154 H 0.06592 0.5706 0.87746 0.0
H1155 H 0.10732 0.56907 0.88343 0.0
C1156 C 0.53718 0.08217 0.84566 0.0
C1157 C 0.51633 0.07689 0.82245 0.0
C1158 C 0.53019 0.1024 0.86773 0.0
C1159 C 0.5012 0.11677 0.86713 0.0
C1160 C 0.47964 0.11054 0.84441 0.0
C1161 C 0.48772 0.09122 0.82214 0.0
C1162 C 0.55418 0.1091 0.8911 0.0
C1163 C 0.44811 0.1246 0.84329 0.0
C1164 C 0.47297 0.15683 0.93573 0.0
C1165 C 0.47955 0.18499 0.92796 0.0
C1166 C 0.47973 0.13432 0.91619 0.0
C1167 C 0.4942 0.14003 0.88858 0.0
C1168 C 0.50058 0.16838 0.88056 0.0
C1169 C 0.49259 0.1904 0.89998 0.0
C1170 C 0.47143 0.10446 0.92505 0.0
C1171 C 0.5163 0.17552 0.85155 0.0
H1172 H 0.55925 0.07111 0.84606 0.0
H1173 H 0.47121 0.08708 0.80457 0.0
H1174 H 0.56138 0.13161 0.88918 0.0
H1175 H 0.54409 0.10629 0.91352 0.0
H1176 H 0.57516 0.09553 0.88909 0.0
H1177 H 0.43272 0.11496 0.82626 0.0
H1178 H 0.43642 0.12312 0.86516 0.0
H1179 H 0.45091 0.14741 0.83811 0.0
H1180 H 0.46287 0.15231 0.95722 0.0
H1181 H 0.49741 0.21192 0.89337 0.0
H1182 H 0.49276 0.09133 0.92623 0.0
H1183 H 0.45609 0.09478 0.90804 0.0
H1184 H 0.45944 0.10361 0.94684 0.0
H1185 H 0.53827 0.16339 0.84931 0.0
H1186 H 0.52172 0.19846 0.84961 0.0
H1187 H 0.50112 0.16939 0.83276 0.0
C1188 C 0.90589 0.52993 0.81686 0.0
C1189 C 0.93206 0.51226 0.81792 0.0
C1190 C 0.8826 0.52832 0.83885 0.0
C1191 C 0.88584 0.50891 0.86261 0.0
C1192 C 0.91226 0.49115 0.86376 0.0
C1193 C 0.93482 0.49294 0.84143 0.0
C1194 C 0.85457 0.54739 0.83672 0.0
C1195 C 0.91703 0.47051 0.88889 0.0
C1196 C 0.84655 0.52283 0.93662 0.0
C1197 C 0.82221 0.50294 0.93661 0.0
C1198 C 0.86683 0.52543 0.91242 0.0
C1199 C 0.86265 0.50793 0.88725 0.0
C1200 C 0.83784 0.48811 0.88681 0.0
C1201 C 0.81804 0.4857 0.91158 0.0
C1202 C 0.89325 0.54649 0.91414 0.0
C1203 C 0.83246 0.46925 0.86026 0.0
H1204 H 0.90343 0.54475 0.79871 0.0
H1205 H 0.95495 0.47921 0.84268 0.0
H1206 H 0.83297 0.53452 0.83705 0.0
H1207 H 0.85372 0.56175 0.85619 0.0
H1208 H 0.8548 0.56043 0.81626 0.0
H1209 H 0.93861 0.45783 0.88623 0.0
H1210 H 0.91834 0.48216 0.91023 0.0
H1211 H 0.89699 0.45578 0.89037 0.0
H1212 H 0.85008 0.5363 0.9558 0.0
H1213 H 0.79912 0.47051 0.91122 0.0
H1214 H 0.89257 0.56098 0.89484 0.0
H1215 H 0.9158 0.53512 0.91332 0.0
H1216 H 0.89249 0.55938 0.93475 0.0
H1217 H 0.83075 0.48222 0.83986 0.0
H1218 H 0.81095 0.45636 0.86248 0.0
H1219 H 0.85249 0.45472 0.85735 0.0
C1220 C 0.51969 0.09625 0.18544 0.0
C1221 C 0.49087 0.08224 0.18458 0.0
C1222 C 0.52863 0.11526 0.16324 0.0
C1223 C 0.50754 0.12189 0.14029 0.0
C1224 C 0.47816 0.10813 0.13935 0.0
C1225 C 0.47047 0.08787 0.16114 0.0
C1226 C 0.56066 0.1284 0.16457 0.0
C1227 C 0.45451 0.11547 0.11592 0.0
C1228 C 0.51895 0.19502 0.10715 0.0
C1229 C 0.53067 0.18897 0.07877 0.0
C1230 C 0.51044 0.17341 0.12681 0.0
C1231 C 0.51551 0.14481 0.11881 0.0
C1232 C 0.52938 0.13847 0.09106 0.0
C1233 C 0.53626 0.16057 0.07114 0.0
C1234 C 0.49522 0.18128 0.15589 0.0
C1235 C 0.53668 0.10834 0.08233 0.0
H1236 H 0.53574 0.09201 0.20333 0.0
H1237 H 0.4482 0.07713 0.16038 0.0
H1238 H 0.57228 0.12688 0.14266 0.0
H1239 H 0.55874 0.15119 0.17021 0.0
H1240 H 0.57569 0.11808 0.18139 0.0
H1241 H 0.43279 0.1029 0.11818 0.0
H1242 H 0.44861 0.13831 0.11746 0.0
H1243 H 0.46437 0.11177 0.09354 0.0
H1244 H 0.51535 0.21675 0.11379 0.0
H1245 H 0.54548 0.15554 0.0494 0.0
H1246 H 0.5104 0.17507 0.17462 0.0
H1247 H 0.47293 0.16966 0.15844 0.0
H1248 H 0.49048 0.20434 0.15763 0.0
H1249 H 0.55093 0.09809 0.09977 0.0
H1250 H 0.54942 0.10709 0.06094 0.0
H1251 H 0.51484 0.096 0.08031 0.0
C1252 C 0.91 0.47282 0.1891 0.0
C1253 C 0.93886 0.48581 0.18431 0.0
C1254 C 0.88585 0.47546 0.16811 0.0
C1255 C 0.89089 0.49138 0.14186 0.0
C1256 C 0.92029 0.50383 0.13673 0.0
C1257 C 0.9438 0.50081 0.15786 0.0
C1258 C 0.85481 0.46177 0.17421 0.0
C1259 C 0.92692 0.52072 0.109 0.0
C1260 C 0.8446 0.47959 0.07155 0.0
C1261 C 0.82476 0.50326 0.07101 0.0
C1262 C 0.86502 0.4748 0.09516 0.0
C1263 C 0.86616 0.49432 0.1189 0.0
C1264 C 0.84606 0.51814 0.11882 0.0
C1265 C 0.82554 0.52233 0.09486 0.0
C1266 C 0.8861 0.44924 0.09417 0.0
C1267 C 0.84679 0.53953 0.14369 0.0
H1268 H 0.90594 0.46154 0.20964 0.0
H1269 H 0.96613 0.51079 0.15386 0.0
H1270 H 0.83649 0.47826 0.17551 0.0
H1271 H 0.84848 0.44732 0.15576 0.0
H1272 H 0.8548 0.44957 0.19523 0.0
H1273 H 0.95093 0.52942 0.10864 0.0
H1274 H 0.92371 0.50716 0.08913 0.0
H1275 H 0.9103 0.53858 0.10721 0.0
H1276 H 0.84444 0.46465 0.05329 0.0
H1277 H 0.81023 0.54054 0.0948 0.0
H1278 H 0.88446 0.43721 0.1152 0.0
H1279 H 0.91061 0.45622 0.09169 0.0
H1280 H 0.88038 0.43476 0.07551 0.0
H1281 H 0.84434 0.52872 0.16537 0.0
H1282 H 0.82809 0.5556 0.1416 0.0
H1283 H 0.86957 0.55059 0.1438 0.0
C1284 C 0.46486 0.82954 0.09984 0.0
C1285 C 0.4768 0.82952 0.07094 0.0
C1286 C 0.47291 0.85109 0.1201 0.0
C1287 C 0.495 0.872 0.11185 0.0
C1288 C 0.50727 0.87184 0.08272 0.0
C1289 C 0.49722 0.85122 0.06239 0.0
C1290 C 0.45798 0.85129 0.15037 0.0
C1291 C 0.53216 0.8926 0.07339 0.0
C1292 C 0.50161 0.94205 0.15337 0.0
C1293 C 0.52385 0.93584 0.17512 0.0
C1294 C 0.49142 0.92127 0.13328 0.0
C1295 C 0.50531 0.8941 0.13354 0.0
C1296 C 0.52909 0.88821 0.15444 0.0
C1297 C 0.53731 0.90886 0.17565 0.0
C1298 C 0.46484 0.92808 0.11263 0.0
C1299 C 0.54571 0.86008 0.15456 0.0
H1300 H 0.44927 0.81268 0.10658 0.0
H1301 H 0.50695 0.85108 0.04022 0.0
H1302 H 0.47539 0.84544 0.16738 0.0
H1303 H 0.44941 0.87284 0.15587 0.0
H1304 H 0.43823 0.83617 0.15183 0.0
H1305 H 0.5404 0.88874 0.0504 0.0
H1306 H 0.52327 0.91457 0.07485 0.0
H1307 H 0.55233 0.89105 0.08863 0.0
H1308 H 0.49084 0.96277 0.15306 0.0
H1309 H 0.5543 0.90395 0.19261 0.0
H1310 H 0.44593 0.91229 0.11548 0.0
H1311 H 0.47269 0.9268 0.08927 0.0
H1312 H 0.45514 0.94955 0.11664 0.0
H1313 H 0.5297 0.84325 0.16232 0.0
H1314 H 0.56641 0.86031 0.16927 0.0
H1315 H 0.55325 0.85436 0.13179 0.0
C1316 C 0.1862 0.48313 0.0922 0.0
C1317 C 0.17943 0.49876 0.06666 0.0
C1318 C 0.16671 0.4846 0.11726 0.0
C1319 C 0.13949 0.50152 0.11639 0.0
C1320 C 0.13247 0.51706 0.09047 0.0
C1321 C 0.15267 0.51573 0.06611 0.0
C1322 C 0.17525 0.46814 0.14469 0.0
C1323 C 0.1033 0.53471 0.08821 0.0
C1324 C 0.07105 0.48176 0.16515 0.0
C1325 C 0.07153 0.50303 0.187 0.0
C1326 C 0.09323 0.48087 0.14246 0.0
C1327 C 0.11704 0.50151 0.14162 0.0
C1328 C 0.11814 0.52281 0.16383 0.0
C1329 C 0.09515 0.5235 0.18614 0.0
C1330 C 0.09068 0.45817 0.11892 0.0
C1331 C 0.14349 0.54493 0.16389 0.0
H1332 H 0.20713 0.47038 0.09285 0.0
H1333 H 0.14733 0.52786 0.04639 0.0
H1334 H 0.17612 0.48254 0.16414 0.0
H1335 H 0.1572 0.45194 0.14933 0.0
H1336 H 0.19809 0.45736 0.14246 0.0
H1337 H 0.1015 0.54587 0.06663 0.0
H1338 H 0.08253 0.52099 0.09093 0.0
H1339 H 0.1027 0.55069 0.10624 0.0
H1340 H 0.05284 0.46588 0.16537 0.0
H1341 H 0.09583 0.53987 0.20301 0.0
H1342 H 0.11251 0.44573 0.1178 0.0
H1343 H 0.08727 0.46811 0.0969 0.0
H1344 H 0.07105 0.44338 0.12308 0.0
H1345 H 0.16663 0.53456 0.16324 0.0
H1346 H 0.14232 0.55888 0.18371 0.0
H1347 H 0.1416 0.55826 0.14378 0.0
C1348 C 0.84552 0.92122 0.54465 0.0
C1349 C 0.82162 0.92579 0.52417 0.0
C1350 C 0.86782 0.8998 0.53979 0.0
C1351 C 0.86671 0.88342 0.51337 0.0
C1352 C 0.84303 0.88856 0.49239 0.0
C1353 C 0.82064 0.9093 0.49825 0.0
C1354 C 0.89233 0.89445 0.56301 0.0
C1355 C 0.8415 0.87237 0.4635 0.0
C1356 C 0.94054 0.84627 0.48778 0.0
C1357 C 0.93421 0.81809 0.49522 0.0
C1358 C 0.91858 0.8677 0.49309 0.0
C1359 C 0.89019 0.86089 0.50738 0.0
C1360 C 0.88378 0.83236 0.51496 0.0
C1361 C 0.90574 0.81124 0.5084 0.0
C1362 C 0.92598 0.89766 0.48384 0.0
C1363 C 0.85411 0.82424 0.53073 0.0
H1364 H 0.84639 0.93394 0.56465 0.0
H1365 H 0.80264 0.91305 0.48199 0.0
H1366 H 0.89136 0.87201 0.57022 0.0
H1367 H 0.91579 0.89811 0.55354 0.0
H1368 H 0.88941 0.90829 0.58275 0.0
H1369 H 0.82229 0.87977 0.44901 0.0
H1370 H 0.86377 0.87465 0.45129 0.0
H1371 H 0.83812 0.84948 0.46792 0.0
H1372 H 0.96304 0.85174 0.47862 0.0
H1373 H 0.90115 0.78948 0.51457 0.0
H1374 H 0.92753 0.91148 0.50368 0.0
H1375 H 0.90705 0.9061 0.46969 0.0
H1376 H 0.94825 0.89911 0.47143 0.0
H1377 H 0.85184 0.83662 0.55155 0.0
H1378 H 0.85328 0.80133 0.53621 0.0
H1379 H 0.83374 0.82943 0.51671 0.0
C1380 C 0.93488 0.17289 0.47673 0.0
C1381 C 0.93749 0.18776 0.50369 0.0
C1382 C 0.91262 0.15156 0.47262 0.0
C1383 C 0.89284 0.14394 0.49631 0.0
C1384 C 0.89552 0.1584 0.52382 0.0
C1385 C 0.9176 0.18034 0.52711 0.0
C1386 C 0.91033 0.13716 0.44276 0.0
C1387 C 0.8753 0.15045 0.54985 0.0
C1388 C 0.81788 0.10454 0.47763 0.0
C1389 C 0.82646 0.0762 0.48213 0.0
C1390 C 0.83917 0.12676 0.48218 0.0
C1391 C 0.86968 0.12062 0.4921 0.0
C1392 C 0.87852 0.09204 0.49656 0.0
C1393 C 0.85694 0.07019 0.49123 0.0
C1394 C 0.82899 0.15683 0.47641 0.0
C1395 C 0.91064 0.08455 0.5075 0.0
H1396 H 0.95033 0.17785 0.45852 0.0
H1397 H 0.91957 0.19137 0.54811 0.0
H1398 H 0.91569 0.1143 0.44501 0.0
H1399 H 0.88626 0.13883 0.43411 0.0
H1400 H 0.92651 0.14645 0.42619 0.0
H1401 H 0.88055 0.16333 0.56986 0.0
H1402 H 0.85044 0.1533 0.54407 0.0
H1403 H 0.87864 0.12775 0.55529 0.0
H1404 H 0.79431 0.10938 0.47079 0.0
H1405 H 0.86363 0.04843 0.49536 0.0
H1406 H 0.84431 0.16661 0.45947 0.0
H1407 H 0.83124 0.16963 0.49693 0.0
H1408 H 0.80454 0.15805 0.46858 0.0
H1409 H 0.9284 0.09182 0.49138 0.0
H1410 H 0.91355 0.06141 0.5109 0.0
H1411 H 0.91535 0.09559 0.52876 0.0
C1412 C 0.08823 0.83045 0.52708 0.0
C1413 C 0.06776 0.82433 0.50374 0.0
C1414 C 0.11037 0.85244 0.52446 0.0
C1415 C 0.11225 0.86827 0.49779 0.0
C1416 C 0.09154 0.86225 0.47438 0.0
C1417 C 0.06949 0.84077 0.47778 0.0
C1418 C 0.1318 0.85868 0.5501 0.0
C1419 C 0.09285 0.87826 0.44541 0.0
C1420 C 0.14983 0.94108 0.4927 0.0
C1421 C 0.17911 0.93455 0.4808 0.0
C1422 C 0.1283 0.91961 0.49945 0.0
C1423 C 0.136 0.89096 0.49367 0.0
C1424 C 0.16534 0.8843 0.48122 0.0
C1425 C 0.1866 0.90613 0.47516 0.0
C1426 C 0.09736 0.92757 0.51293 0.0
C1427 C 0.17418 0.85412 0.47403 0.0
H1428 H 0.08698 0.81813 0.54728 0.0
H1429 H 0.0537 0.83676 0.45958 0.0
H1430 H 0.15627 0.85498 0.54335 0.0
H1431 H 0.12985 0.8813 0.55655 0.0
H1432 H 0.12656 0.84534 0.56973 0.0
H1433 H 0.07527 0.87064 0.4292 0.0
H1434 H 0.08889 0.90115 0.44939 0.0
H1435 H 0.11625 0.87604 0.4353 0.0
H1436 H 0.14412 0.96291 0.49778 0.0
H1437 H 0.20931 0.90093 0.46623 0.0
H1438 H 0.09358 0.91559 0.53375 0.0
H1439 H 0.07827 0.92178 0.49756 0.0
H1440 H 0.09574 0.95058 0.51786 0.0
H1441 H 0.17212 0.84074 0.4941 0.0
H1442 H 0.19829 0.8524 0.46534 0.0
H1443 H 0.15795 0.84538 0.45722 0.0
C1444 C 0.07545 0.17483 0.53521 0.0
C1445 C 0.07219 0.18962 0.50836 0.0
C1446 C 0.0984 0.15413 0.53906 0.0
C1447 C 0.11817 0.14704 0.51516 0.0
C1448 C 0.11487 0.16146 0.48776 0.0
C1449 C 0.09215 0.18282 0.48478 0.0
C1450 C 0.10131 0.13972 0.5688 0.0
C1451 C 0.13502 0.15399 0.4615 0.0
C1452 C 0.19356 0.10816 0.53304 0.0
C1453 C 0.18496 0.07978 0.52868 0.0
C1454 C 0.17215 0.13027 0.52863 0.0
C1455 C 0.14159 0.12395 0.51891 0.0
C1456 C 0.13283 0.09534 0.51438 0.0
C1457 C 0.15447 0.07363 0.51965 0.0
C1458 C 0.18221 0.1604 0.53448 0.0
C1459 C 0.10069 0.08765 0.50355 0.0
H1460 H 0.05994 0.17928 0.55353 0.0
H1461 H 0.08967 0.19381 0.46385 0.0
H1462 H 0.09598 0.11684 0.56651 0.0
H1463 H 0.12553 0.14152 0.57707 0.0
H1464 H 0.08539 0.14891 0.58567 0.0
H1465 H 0.12953 0.16703 0.44173 0.0
H1466 H 0.15989 0.157 0.46718 0.0
H1467 H 0.13183 0.13132 0.45572 0.0
H1468 H 0.21715 0.1131 0.53978 0.0
H1469 H 0.14777 0.05183 0.51559 0.0
H1470 H 0.1671 0.16999 0.55173 0.0
H1471 H 0.17952 0.17326 0.51411 0.0
H1472 H 0.20677 0.1618 0.54194 0.0
H1473 H 0.08302 0.09445 0.52 0.0
H1474 H 0.09801 0.06453 0.49969 0.0
H1475 H 0.09562 0.09895 0.48257 0.0
loop_
_geom_bond_atom_site_label_1
_geom_bond_atom_site_label_2
_geom_bond_distance
_geom_bond_site_symmetry_2
_ccdc_geom_bond_type
Co0 O2 2.143 . S
Co0 O8 2.074 . S
Co0 O11 2.093 1_455 S
Co0 O24 2.097 1_455 S
Co0 N41 2.151 . S
Co0 N49 2.214 . S
Co1 O2 2.160 1_655 S
Co1 O7 2.058 1_655 S
Co1 O17 2.057 1_655 S
Co1 O32 2.037 . S
Co1 N36 2.145 . S
Co1 N57 2.257 . S
O2 Co0 2.143 . S
O2 Co1 2.160 1_455 S
C3 O4 1.278 . S
C3 O11 1.224 . S
O4 C3 1.278 . S
C5 O6 1.245 . S
C5 O17 1.232 . S
O6 C5 1.245 . S
O7 Co1 2.058 1_455 S
O7 C33 1.269 . S
O8 Co0 2.074 . S
O8 C33 1.257 . S
H9 C34 0.930 . S
H10 C40 0.930 . S
O11 Co0 2.093 1_655 S
O11 C3 1.224 . S
H12 C44 0.929 . S
H13 C46 0.930 . S
H14 C47 0.930 . S
H15 C45 0.929 . S
H16 C48 0.928 . S
O17 Co1 2.057 1_455 S
O17 C5 1.232 . S
H18 C37 0.929 . S
H19 C38 0.929 . S
H20 C50 0.931 . S
H21 C42 0.929 . S
H22 C51 0.930 . S
H23 C43 0.931 . S
O24 Co0 2.097 1_655 S
O24 C52 1.214 . S
H25 C53 0.929 . S
H26 C54 0.929 . S
H27 C55 0.930 . S
H28 C56 0.929 . S
H29 C58 0.930 . S
H30 C35 0.930 . S
H31 C39 0.930 . S
O32 Co1 2.037 . S
O32 C52 1.234 . S
C33 O7 1.269 . S
C33 O8 1.257 . S
C34 H9 0.930 . S
C34 C37 1.388 . S
C34 C39 1.418 . S
C35 H30 0.930 . S
C35 C38 1.404 . S
C35 C39 1.353 . S
N36 Co1 2.145 . S
N36 C37 1.397 . S
N36 C38 1.334 . S
C37 H18 0.929 . S
C37 C34 1.388 . S
C37 N36 1.397 . S
C38 H19 0.929 . S
C38 C35 1.404 . S
C38 N36 1.334 . S
C39 H31 0.930 . S
C39 C34 1.418 . S
C39 C35 1.353 . S
C40 H10 0.930 . S
C40 N41 1.330 . S
C40 C42 1.446 . S
N41 Co0 2.151 . S
N41 C40 1.330 . S
N41 C45 1.418 . S
C42 H21 0.929 . S
C42 C40 1.446 . S
C42 C43 1.332 . S
C43 H23 0.931 . S
C43 C42 1.332 . S
C43 C44 1.267 . S
C44 H12 0.929 . S
C44 C43 1.267 . S
C44 C45 1.251 . S
C45 H15 0.929 . S
C45 N41 1.418 . S
C45 C44 1.251 . S
C46 H13 0.930 . S
C46 C48 1.406 . S
C46 C51 1.261 . S
C47 H14 0.930 . S
C47 N49 1.325 . S
C47 C50 1.357 . S
C48 H16 0.928 . S
C48 C46 1.406 . S
C48 N49 1.261 . S
N49 Co0 2.214 . S
N49 C47 1.325 . S
N49 C48 1.261 . S
C50 H20 0.931 . S
C50 C47 1.357 . S
C50 C51 1.312 . S
C51 H22 0.930 . S
C51 C46 1.261 . S
C51 C50 1.312 . S
C52 O24 1.214 . S
C52 O32 1.234 . S
C53 H25 0.929 . S
C53 C56 1.391 . S
C53 C58 1.391 . S
C54 H26 0.929 . S
C54 C55 1.390 . S
C54 N57 1.391 . S
C55 H27 0.930 . S
C55 C54 1.390 . S
C55 C56 1.392 . S
C56 H28 0.929 . S
C56 C53 1.391 . S
C56 C55 1.392 . S
N57 Co1 2.257 . S
N57 C54 1.391 . S
N57 C58 1.388 . S
C58 H29 0.930 . S
C58 C53 1.391 . S
C58 N57 1.388 . S
Co59 O61 2.143 . S
Co59 O67 2.074 . S
Co59 O70 2.093 . S
Co59 O83 2.097 . S
Co59 N100 2.151 . S
Co59 N108 2.214 . S
Co60 O61 2.160 1_565 S
Co60 O66 2.058 . S
Co60 O76 2.057 . S
Co60 O91 2.037 . S
Co60 N95 2.145 . S
Co60 N116 2.257 . S
O61 Co59 2.143 . S
O61 Co60 2.160 1_545 S
C62 O63 1.278 . S
C62 O70 1.224 . S
O63 C62 1.278 . S
C64 O65 1.245 . S
C64 O76 1.232 . S
O65 C64 1.245 . S
O66 Co60 2.058 . S
O66 C92 1.269 . S
O67 Co59 2.074 . S
O67 C92 1.257 1_545 S
H68 C93 0.930 . S
H69 C99 0.930 . S
O70 Co59 2.093 . S
O70 C62 1.224 . S
H71 C103 0.929 . S
H72 C105 0.930 . S
H73 C106 0.930 . S
H74 C104 0.929 . S
H75 C107 0.928 . S
O76 Co60 2.057 . S
O76 C64 1.232 . S
H77 C96 0.929 . S
H78 C97 0.929 . S
H79 C109 0.931 . S
H80 C101 0.929 . S
H81 C110 0.930 . S
H82 C102 0.931 . S
O83 Co59 2.097 . S
O83 C111 1.214 . S
H84 C112 0.929 . S
H85 C113 0.929 . S
H86 C114 0.930 . S
H87 C115 0.929 . S
H88 C117 0.930 . S
H89 C94 0.930 . S
H90 C98 0.930 . S
O91 Co60 2.037 . S
O91 C111 1.234 1_565 S
C92 O66 1.269 . S
C92 O67 1.257 1_565 S
C93 H68 0.930 . S
C93 C96 1.388 . S
C93 C98 1.418 . S
C94 H89 0.930 . S
C94 C97 1.404 . S
C94 C98 1.353 . S
N95 Co60 2.145 . S
N95 C96 1.397 . S
N95 C97 1.334 . S
C96 H77 0.929 . S
C96 C93 1.388 . S
C96 N95 1.397 . S
C97 H78 0.929 . S
C97 C94 1.404 . S
C97 N95 1.334 . S
C98 H90 0.930 . S
C98 C93 1.418 . S
C98 C94 1.353 . S
C99 H69 0.930 . S
C99 N100 1.330 . S
C99 C101 1.446 . S
N100 Co59 2.151 . S
N100 C99 1.330 . S
N100 C104 1.418 . S
C101 H80 0.929 . S
C101 C99 1.446 . S
C101 C102 1.332 . S
C102 H82 0.931 . S
C102 C101 1.332 . S
C102 C103 1.267 . S
C103 H71 0.929 . S
C103 C102 1.267 . S
C103 C104 1.251 . S
C104 H74 0.929 . S
C104 N100 1.418 . S
C104 C103 1.251 . S
C105 H72 0.930 . S
C105 C107 1.406 . S
C105 C110 1.261 . S
C106 H73 0.930 . S
C106 N108 1.325 . S
C106 C109 1.357 . S
C107 H75 0.928 . S
C107 C105 1.406 . S
C107 N108 1.261 . S
N108 Co59 2.214 . S
N108 C106 1.325 . S
N108 C107 1.261 . S
C109 H79 0.931 . S
C109 C106 1.357 . S
C109 C110 1.312 . S
C110 H81 0.930 . S
C110 C105 1.261 . S
C110 C109 1.312 . S
C111 O83 1.214 . S
C111 O91 1.234 1_545 S
C112 H84 0.929 . S
C112 C115 1.391 . S
C112 C117 1.391 . S
C113 H85 0.929 . S
C113 C114 1.390 . S
C113 N116 1.391 . S
C114 H86 0.930 . S
C114 C113 1.390 . S
C114 C115 1.392 . S
C115 H87 0.929 . S
C115 C112 1.391 . S
C115 C114 1.392 . S
N116 Co60 2.257 . S
N116 C113 1.391 . S
N116 C117 1.388 . S
C117 H88 0.930 . S
C117 C112 1.391 . S
C117 N116 1.388 . S
Co118 O120 2.143 . S
Co118 O126 2.074 . S
Co118 O129 2.093 1_455 S
Co118 O142 2.097 1_455 S
Co118 N159 2.151 . S
Co118 N167 2.214 . S
Co119 O120 2.160 1_655 S
Co119 O125 2.058 1_655 S
Co119 O135 2.057 1_655 S
Co119 O150 2.037 . S
Co119 N154 2.145 . S
Co119 N175 2.257 . S
O120 Co118 2.143 . S
O120 Co119 2.160 1_455 S
C121 O122 1.278 . S
C121 O129 1.224 . S
O122 C121 1.278 . S
C123 O124 1.245 . S
C123 O135 1.232 . S
O124 C123 1.245 . S
O125 Co119 2.058 1_455 S
O125 C151 1.269 . S
O126 Co118 2.074 . S
O126 C151 1.257 . S
H127 C152 0.930 . S
H128 C158 0.930 . S
O129 Co118 2.093 1_655 S
O129 C121 1.224 . S
H130 C162 0.929 . S
H131 C164 0.930 . S
H132 C165 0.930 . S
H133 C163 0.929 . S
H134 C166 0.928 . S
O135 Co119 2.057 1_455 S
O135 C123 1.232 . S
H136 C155 0.929 . S
H137 C156 0.929 . S
H138 C168 0.931 . S
H139 C160 0.929 . S
H140 C169 0.930 . S
H141 C161 0.931 . S
O142 Co118 2.097 1_655 S
O142 C170 1.214 . S
H143 C171 0.929 . S
H144 C172 0.929 . S
H145 C173 0.930 . S
H146 C174 0.929 . S
H147 C176 0.930 . S
H148 C153 0.930 . S
H149 C157 0.930 . S
O150 Co119 2.037 . S
O150 C170 1.234 . S
C151 O125 1.269 . S
C151 O126 1.257 . S
C152 H127 0.930 . S
C152 C155 1.388 . S
C152 C157 1.418 . S
C153 H148 0.930 . S
C153 C156 1.404 . S
C153 C157 1.353 . S
N154 Co119 2.145 . S
N154 C155 1.397 . S
N154 C156 1.334 . S
C155 H136 0.929 . S
C155 C152 1.388 . S
C155 N154 1.397 . S
C156 H137 0.929 . S
C156 C153 1.404 . S
C156 N154 1.334 . S
C157 H149 0.930 . S
C157 C152 1.418 . S
C157 C153 1.353 . S
C158 H128 0.930 . S
C158 N159 1.330 . S
C158 C160 1.446 . S
N159 Co118 2.151 . S
N159 C158 1.330 . S
N159 C163 1.418 . S
C160 H139 0.929 . S
C160 C158 1.446 . S
C160 C161 1.332 . S
C161 H141 0.931 . S
C161 C160 1.332 . S
C161 C162 1.267 . S
C162 H130 0.929 . S
C162 C161 1.267 . S
C162 C163 1.251 . S
C163 H133 0.929 . S
C163 N159 1.418 . S
C163 C162 1.251 . S
C164 H131 0.930 . S
C164 C166 1.406 . S
C164 C169 1.261 . S
C165 H132 0.930 . S
C165 N167 1.325 . S
C165 C168 1.357 . S
C166 H134 0.928 . S
C166 C164 1.406 . S
C166 N167 1.261 . S
N167 Co118 2.214 . S
N167 C165 1.325 . S
N167 C166 1.261 . S
C168 H138 0.931 . S
C168 C165 1.357 . S
C168 C169 1.312 . S
C169 H140 0.930 . S
C169 C164 1.261 . S
C169 C168 1.312 . S
C170 O142 1.214 . S
C170 O150 1.234 . S
C171 H143 0.929 . S
C171 C174 1.391 . S
C171 C176 1.391 . S
C172 H144 0.929 . S
C172 C173 1.390 . S
C172 N175 1.391 . S
C173 H145 0.930 . S
C173 C172 1.390 . S
C173 C174 1.392 . S
C174 H146 0.929 . S
C174 C171 1.391 . S
C174 C173 1.392 . S
N175 Co119 2.257 . S
N175 C172 1.391 . S
N175 C176 1.388 . S
C176 H147 0.930 . S
C176 C171 1.391 . S
C176 N175 1.388 . S
Co177 O179 2.162 . S
Co177 O185 2.074 . S
Co177 O188 2.093 . S
Co177 O201 2.097 . S
Co177 N218 2.151 . S
Co177 N226 2.214 . S
Co178 O179 2.140 1_545 S
Co178 O184 2.058 . S
Co178 O194 2.057 . S
Co178 O209 2.037 . S
Co178 N213 2.145 . S
Co178 N234 2.257 . S
O179 Co177 2.162 . S
O179 Co178 2.140 1_565 S
C180 O181 1.278 . S
C180 O188 1.224 . S
O181 C180 1.278 . S
C182 O183 1.245 . S
C182 O194 1.232 . S
O183 C182 1.245 . S
O184 Co178 2.058 . S
O184 C210 1.269 . S
O185 Co177 2.074 . S
O185 C210 1.257 1_565 S
H186 C211 0.930 . S
H187 C217 0.930 . S
O188 Co177 2.093 . S
O188 C180 1.224 . S
H189 C221 0.929 . S
H190 C223 0.930 . S
H191 C224 0.930 . S
H192 C222 0.929 . S
H193 C225 0.928 . S
O194 Co178 2.057 . S
O194 C182 1.232 . S
H195 C214 0.929 . S
H196 C215 0.929 . S
H197 C227 0.931 . S
H198 C219 0.929 . S
H199 C228 0.930 . S
H200 C220 0.931 . S
O201 Co177 2.097 . S
O201 C229 1.214 . S
H202 C230 0.929 . S
H203 C231 0.929 . S
H204 C232 0.930 . S
H205 C233 0.929 . S
H206 C235 0.930 . S
H207 C212 0.930 . S
H208 C216 0.930 . S
O209 Co178 2.037 . S
O209 C229 1.234 1_545 S
C210 O184 1.269 . S
C210 O185 1.257 1_545 S
C211 H186 0.930 . S
C211 C214 1.388 . S
C211 C216 1.418 . S
C212 H207 0.930 . S
C212 C215 1.404 . S
C212 C216 1.353 . S
N213 Co178 2.145 . S
N213 C214 1.397 . S
N213 C215 1.334 . S
C214 H195 0.929 . S
C214 C211 1.388 . S
C214 N213 1.397 . S
C215 H196 0.929 . S
C215 C212 1.404 . S
C215 N213 1.334 . S
C216 H208 0.930 . S
C216 C211 1.418 . S
C216 C212 1.353 . S
C217 H187 0.930 . S
C217 N218 1.330 . S
C217 C219 1.446 . S
N218 Co177 2.151 . S
N218 C217 1.330 . S
N218 C222 1.418 . S
C219 H198 0.929 . S
C219 C217 1.446 . S
C219 C220 1.332 . S
C220 H200 0.931 . S
C220 C219 1.332 . S
C220 C221 1.267 . S
C221 H189 0.929 . S
C221 C220 1.267 . S
C221 C222 1.251 . S
C222 H192 0.929 . S
C222 N218 1.418 . S
C222 C221 1.251 . S
C223 H190 0.930 . S
C223 C225 1.406 . S
C223 C228 1.261 . S
C224 H191 0.930 . S
C224 N226 1.325 . S
C224 C227 1.357 . S
C225 H193 0.928 . S
C225 C223 1.406 . S
C225 N226 1.261 . S
N226 Co177 2.214 . S
N226 C224 1.325 . S
N226 C225 1.261 . S
C227 H197 0.931 . S
C227 C224 1.357 . S
C227 C228 1.312 . S
C228 H199 0.930 . S
C228 C223 1.261 . S
C228 C227 1.312 . S
C229 O201 1.214 . S
C229 O209 1.234 1_565 S
C230 H202 0.929 . S
C230 C233 1.391 . S
C230 C235 1.391 . S
C231 H203 0.929 . S
C231 C232 1.390 . S
C231 N234 1.391 . S
C232 H204 0.930 . S
C232 C231 1.390 . S
C232 C233 1.392 . S
C233 H205 0.929 . S
C233 C230 1.391 . S
C233 C232 1.392 . S
N234 Co178 2.257 . S
N234 C231 1.391 . S
N234 C235 1.388 . S
C235 H206 0.930 . S
C235 C230 1.391 . S
C235 N234 1.388 . S
Co236 O238 2.170 . S
Co236 O244 2.074 . S
Co236 O247 2.093 . S
Co236 O260 2.097 . S
Co236 N277 2.151 . S
Co236 N285 2.214 . S
Co237 O238 2.133 1_545 S
Co237 O243 2.058 . S
Co237 O253 2.057 . S
Co237 O268 2.037 . S
Co237 N272 2.145 . S
Co237 N293 2.257 . S
O238 Co236 2.170 . S
O238 Co237 2.133 1_565 S
C239 O240 1.278 . S
C239 O247 1.224 . S
O240 C239 1.278 . S
C241 O242 1.245 . S
C241 O253 1.232 . S
O242 C241 1.245 . S
O243 Co237 2.058 . S
O243 C269 1.269 . S
O244 Co236 2.074 . S
O244 C269 1.257 1_565 S
H245 C270 0.930 . S
H246 C276 0.930 . S
O247 Co236 2.093 . S
O247 C239 1.224 . S
H248 C280 0.929 . S
H249 C282 0.930 . S
H250 C283 0.930 . S
H251 C281 0.929 . S
H252 C284 0.928 . S
O253 Co237 2.057 . S
O253 C241 1.232 . S
H254 C273 0.929 . S
H255 C274 0.929 . S
H256 C286 0.931 . S
H257 C278 0.929 . S
H258 C287 0.930 . S
H259 C279 0.931 . S
O260 Co236 2.097 . S
O260 C288 1.214 . S
H261 C289 0.929 . S
H262 C290 0.929 . S
H263 C291 0.930 . S
H264 C292 0.929 . S
H265 C294 0.930 . S
H266 C271 0.930 . S
H267 C275 0.930 . S
O268 Co237 2.037 . S
O268 C288 1.234 1_545 S
C269 O243 1.269 . S
C269 O244 1.257 1_545 S
C270 H245 0.930 . S
C270 C273 1.388 . S
C270 C275 1.418 . S
C271 H266 0.930 . S
C271 C274 1.404 . S
C271 C275 1.353 . S
N272 Co237 2.145 . S
N272 C273 1.397 . S
N272 C274 1.334 . S
C273 H254 0.929 . S
C273 C270 1.388 . S
C273 N272 1.397 . S
C274 H255 0.929 . S
C274 C271 1.404 . S
C274 N272 1.334 . S
C275 H267 0.930 . S
C275 C270 1.418 . S
C275 C271 1.353 . S
C276 H246 0.930 . S
C276 N277 1.330 . S
C276 C278 1.446 . S
N277 Co236 2.151 . S
N277 C276 1.330 . S
N277 C281 1.418 . S
C278 H257 0.929 . S
C278 C276 1.446 . S
C278 C279 1.332 . S
C279 H259 0.931 . S
C279 C278 1.332 . S
C279 C280 1.267 . S
C280 H248 0.929 . S
C280 C279 1.267 . S
C280 C281 1.251 . S
C281 H251 0.929 . S
C281 N277 1.418 . S
C281 C280 1.251 . S
C282 H249 0.930 . S
C282 C284 1.406 . S
C282 C287 1.261 . S
C283 H250 0.930 . S
C283 N285 1.325 . S
C283 C286 1.357 . S
C284 H252 0.928 . S
C284 C282 1.406 . S
C284 N285 1.261 . S
N285 Co236 2.214 . S
N285 C283 1.325 . S
N285 C284 1.261 . S
C286 H256 0.931 . S
C286 C283 1.357 . S
C286 C287 1.312 . S
C287 H258 0.930 . S
C287 C282 1.261 . S
C287 C286 1.312 . S
C288 O260 1.214 . S
C288 O268 1.234 1_565 S
C289 H261 0.929 . S
C289 C292 1.391 . S
C289 C294 1.391 . S
C290 H262 0.929 . S
C290 C291 1.390 . S
C290 N293 1.391 . S
C291 H263 0.930 . S
C291 C290 1.390 . S
C291 C292 1.392 . S
C292 H264 0.929 . S
C292 C289 1.391 . S
C292 C291 1.392 . S
N293 Co237 2.257 . S
N293 C290 1.391 . S
N293 C294 1.388 . S
C294 H265 0.930 . S
C294 C289 1.391 . S
C294 N293 1.388 . S
Co295 O297 2.143 . S
Co295 O303 2.074 . S
Co295 O306 2.093 1_655 S
Co295 O319 2.097 1_655 S
Co295 N336 2.151 . S
Co295 N344 2.214 . S
Co296 O297 2.160 1_455 S
Co296 O302 2.058 1_455 S
Co296 O312 2.057 1_455 S
Co296 O327 2.037 . S
Co296 N331 2.145 . S
Co296 N352 2.257 . S
O297 Co295 2.143 . S
O297 Co296 2.160 1_655 S
C298 O299 1.278 . S
C298 O306 1.224 . S
O299 C298 1.278 . S
C300 O301 1.245 . S
C300 O312 1.232 . S
O301 C300 1.245 . S
O302 Co296 2.058 1_655 S
O302 C328 1.269 . S
O303 Co295 2.074 . S
O303 C328 1.257 . S
H304 C329 0.930 . S
H305 C335 0.930 . S
O306 Co295 2.093 1_455 S
O306 C298 1.224 . S
H307 C339 0.929 . S
H308 C341 0.930 . S
H309 C342 0.930 . S
H310 C340 0.929 . S
H311 C343 0.928 . S
O312 Co296 2.057 1_655 S
O312 C300 1.232 . S
H313 C332 0.929 . S
H314 C333 0.929 . S
H315 C345 0.931 . S
H316 C337 0.929 . S
H317 C346 0.930 . S
H318 C338 0.931 . S
O319 Co295 2.097 1_455 S
O319 C347 1.214 . S
H320 C348 0.929 . S
H321 C349 0.929 . S
H322 C350 0.930 . S
H323 C351 0.929 . S
H324 C353 0.930 . S
H325 C330 0.930 . S
H326 C334 0.930 . S
O327 Co296 2.037 . S
O327 C347 1.234 . S
C328 O302 1.269 . S
C328 O303 1.257 . S
C329 H304 0.930 . S
C329 C332 1.388 . S
C329 C334 1.418 . S
C330 H325 0.930 . S
C330 C333 1.404 . S
C330 C334 1.353 . S
N331 Co296 2.145 . S
N331 C332 1.397 . S
N331 C333 1.334 . S
C332 H313 0.929 . S
C332 C329 1.388 . S
C332 N331 1.397 . S
C333 H314 0.929 . S
C333 C330 1.404 . S
C333 N331 1.334 . S
C334 H326 0.930 . S
C334 C329 1.418 . S
C334 C330 1.353 . S
C335 H305 0.930 . S
C335 N336 1.330 . S
C335 C337 1.446 . S
N336 Co295 2.151 . S
N336 C335 1.330 . S
N336 C340 1.418 . S
C337 H316 0.929 . S
C337 C335 1.446 . S
C337 C338 1.332 . S
C338 H318 0.931 . S
C338 C337 1.332 . S
C338 C339 1.267 . S
C339 H307 0.929 . S
C339 C338 1.267 . S
C339 C340 1.251 . S
C340 H310 0.929 . S
C340 N336 1.418 . S
C340 C339 1.251 . S
C341 H308 0.930 . S
C341 C343 1.406 . S
C341 C346 1.261 . S
C342 H309 0.930 . S
C342 N344 1.325 . S
C342 C345 1.357 . S
C343 H311 0.928 . S
C343 C341 1.406 . S
C343 N344 1.261 . S
N344 Co295 2.214 . S
N344 C342 1.325 . S
N344 C343 1.261 . S
C345 H315 0.931 . S
C345 C342 1.357 . S
C345 C346 1.312 . S
C346 H317 0.930 . S
C346 C341 1.261 . S
C346 C345 1.312 . S
C347 O319 1.214 . S
C347 O327 1.234 . S
C348 H320 0.929 . S
C348 C351 1.391 . S
C348 C353 1.391 . S
C349 H321 0.929 . S
C349 C350 1.390 . S
C349 N352 1.391 . S
C350 H322 0.930 . S
C350 C349 1.390 . S
C350 C351 1.392 . S
C351 H323 0.929 . S
C351 C348 1.391 . S
C351 C350 1.392 . S
N352 Co296 2.257 . S
N352 C349 1.391 . S
N352 C353 1.388 . S
C353 H324 0.930 . S
C353 C348 1.391 . S
C353 N352 1.388 . S
Co354 O356 2.143 . S
Co354 O362 2.074 . S
Co354 O365 2.093 . S
Co354 O378 2.097 . S
Co354 N395 2.151 . S
Co354 N403 2.214 . S
Co355 O356 2.160 1_565 S
Co355 O361 2.058 . S
Co355 O371 2.057 . S
Co355 O386 2.037 . S
Co355 N390 2.145 . S
Co355 N411 2.257 . S
O356 Co354 2.143 . S
O356 Co355 2.160 1_545 S
C357 O358 1.278 . S
C357 O365 1.224 . S
O358 C357 1.278 . S
C359 O360 1.245 . S
C359 O371 1.232 . S
O360 C359 1.245 . S
O361 Co355 2.058 . S
O361 C387 1.269 . S
O362 Co354 2.074 . S
O362 C387 1.257 1_545 S
H363 C388 0.930 . S
H364 C394 0.930 . S
O365 Co354 2.093 . S
O365 C357 1.224 . S
H366 C398 0.929 . S
H367 C400 0.930 . S
H368 C401 0.930 . S
H369 C399 0.929 . S
H370 C402 0.928 . S
O371 Co355 2.057 . S
O371 C359 1.232 . S
H372 C391 0.929 . S
H373 C392 0.929 . S
H374 C404 0.931 . S
H375 C396 0.929 . S
H376 C405 0.930 . S
H377 C397 0.931 . S
O378 Co354 2.097 . S
O378 C406 1.214 . S
H379 C407 0.929 . S
H380 C408 0.929 . S
H381 C409 0.930 . S
H382 C410 0.929 . S
H383 C412 0.930 . S
H384 C389 0.930 . S
H385 C393 0.930 . S
O386 Co355 2.037 . S
O386 C406 1.234 1_565 S
C387 O361 1.269 . S
C387 O362 1.257 1_565 S
C388 H363 0.930 . S
C388 C391 1.388 . S
C388 C393 1.418 . S
C389 H384 0.930 . S
C389 C392 1.404 . S
C389 C393 1.353 . S
N390 Co355 2.145 . S
N390 C391 1.397 . S
N390 C392 1.334 . S
C391 H372 0.929 . S
C391 C388 1.388 . S
C391 N390 1.397 . S
C392 H373 0.929 . S
C392 C389 1.404 . S
C392 N390 1.334 . S
C393 H385 0.930 . S
C393 C388 1.418 . S
C393 C389 1.353 . S
C394 H364 0.930 . S
C394 N395 1.330 . S
C394 C396 1.446 . S
N395 Co354 2.151 . S
N395 C394 1.330 . S
N395 C399 1.418 . S
C396 H375 0.929 . S
C396 C394 1.446 . S
C396 C397 1.332 . S
C397 H377 0.931 . S
C397 C396 1.332 . S
C397 C398 1.267 . S
C398 H366 0.929 . S
C398 C397 1.267 . S
C398 C399 1.251 . S
C399 H369 0.929 . S
C399 N395 1.418 . S
C399 C398 1.251 . S
C400 H367 0.930 . S
C400 C402 1.406 . S
C400 C405 1.261 . S
C401 H368 0.930 . S
C401 N403 1.325 . S
C401 C404 1.357 . S
C402 H370 0.928 . S
C402 C400 1.406 . S
C402 N403 1.261 . S
N403 Co354 2.214 . S
N403 C401 1.325 . S
N403 C402 1.261 . S
C404 H374 0.931 . S
C404 C401 1.357 . S
C404 C405 1.312 . S
C405 H376 0.930 . S
C405 C400 1.261 . S
C405 C404 1.312 . S
C406 O378 1.214 . S
C406 O386 1.234 1_545 S
C407 H379 0.929 . S
C407 C410 1.391 . S
C407 C412 1.391 . S
C408 H380 0.929 . S
C408 C409 1.390 . S
C408 N411 1.391 . S
C409 H381 0.930 . S
C409 C408 1.390 . S
C409 C410 1.392 . S
C410 H382 0.929 . S
C410 C407 1.391 . S
C410 C409 1.392 . S
N411 Co355 2.257 . S
N411 C408 1.391 . S
N411 C412 1.388 . S
C412 H383 0.930 . S
C412 C407 1.391 . S
C412 N411 1.388 . S
Co413 O415 2.143 . S
Co413 O421 2.074 . S
Co413 O424 2.093 1_655 S
Co413 O437 2.097 1_655 S
Co413 N454 2.151 . S
Co413 N462 2.214 . S
Co414 O415 2.160 1_455 S
Co414 O420 2.058 1_455 S
Co414 O430 2.046 1_455 S
Co414 O445 2.037 . S
Co414 N449 2.145 . S
Co414 N470 2.257 . S
O415 Co413 2.143 . S
O415 Co414 2.160 1_655 S
C416 O417 1.278 . S
C416 O424 1.224 . S
O417 C416 1.278 . S
C418 O419 1.245 . S
C418 O430 1.254 . S
O419 C418 1.245 . S
O420 Co414 2.058 1_655 S
O420 C446 1.269 . S
O421 Co413 2.074 . S
O421 C446 1.257 . S
H422 C447 0.930 . S
H423 C453 0.930 . S
O424 Co413 2.093 1_455 S
O424 C416 1.224 . S
H425 C457 0.929 . S
H426 C459 0.930 . S
H427 C460 0.930 . S
H428 C458 0.929 . S
H429 C461 0.928 . S
O430 Co414 2.046 1_655 S
O430 C418 1.254 . S
H431 C450 0.929 . S
H432 C451 0.929 . S
H433 C463 0.931 . S
H434 C455 0.929 . S
H435 C464 0.930 . S
H436 C456 0.931 . S
O437 Co413 2.097 1_455 S
O437 C465 1.214 . S
H438 C466 0.929 . S
H439 C467 0.929 . S
H440 C468 0.930 . S
H441 C469 0.929 . S
H442 C471 0.930 . S
H443 C448 0.930 . S
H444 C452 0.930 . S
O445 Co414 2.037 . S
O445 C465 1.234 . S
C446 O420 1.269 . S
C446 O421 1.257 . S
C447 H422 0.930 . S
C447 C450 1.388 . S
C447 C452 1.418 . S
C448 H443 0.930 . S
C448 C451 1.404 . S
C448 C452 1.353 . S
N449 Co414 2.145 . S
N449 C450 1.397 . S
N449 C451 1.334 . S
C450 H431 0.929 . S
C450 C447 1.388 . S
C450 N449 1.397 . S
C451 H432 0.929 . S
C451 C448 1.404 . S
C451 N449 1.334 . S
C452 H444 0.930 . S
C452 C447 1.418 . S
C452 C448 1.353 . S
C453 H423 0.930 . S
C453 N454 1.330 . S
C453 C455 1.446 . S
N454 Co413 2.151 . S
N454 C453 1.330 . S
N454 C458 1.418 . S
C455 H434 0.929 . S
C455 C453 1.446 . S
C455 C456 1.332 . S
C456 H436 0.931 . S
C456 C455 1.332 . S
C456 C457 1.267 . S
C457 H425 0.929 . S
C457 C456 1.267 . S
C457 C458 1.251 . S
C458 H428 0.929 . S
C458 N454 1.418 . S
C458 C457 1.251 . S
C459 H426 0.930 . S
C459 C461 1.406 . S
C459 C464 1.261 . S
C460 H427 0.930 . S
C460 N462 1.325 . S
C460 C463 1.357 . S
C461 H429 0.928 . S
C461 C459 1.406 . S
C461 N462 1.261 . S
N462 Co413 2.214 . S
N462 C460 1.325 . S
N462 C461 1.261 . S
C463 H433 0.931 . S
C463 C460 1.357 . S
C463 C464 1.312 . S
C464 H435 0.930 . S
C464 C459 1.261 . S
C464 C463 1.312 . S
C465 O437 1.214 . S
C465 O445 1.234 . S
C466 H438 0.929 . S
C466 C469 1.391 . S
C466 C471 1.391 . S
C467 H439 0.929 . S
C467 C468 1.390 . S
C467 N470 1.391 . S
C468 H440 0.930 . S
C468 C467 1.390 . S
C468 C469 1.392 . S
C469 H441 0.929 . S
C469 C466 1.391 . S
C469 C468 1.392 . S
N470 Co414 2.257 . S
N470 C467 1.391 . S
N470 C471 1.388 . S
C471 H442 0.930 . S
C471 C466 1.391 . S
C471 N470 1.388 . S
Co472 O474 2.143 . S
Co472 O480 2.074 . S
Co472 O483 2.093 1_554 S
Co472 O496 2.097 1_554 S
Co472 N513 2.151 . S
Co472 N521 2.214 . S
Co473 O474 2.160 1_556 S
Co473 O479 2.058 1_556 S
Co473 O489 2.057 1_556 S
Co473 O504 2.037 . S
Co473 N508 2.145 . S
Co473 N529 2.257 . S
O474 Co472 2.143 . S
O474 Co473 2.160 1_554 S
C475 O476 1.278 . S
C475 O483 1.224 . S
O476 C475 1.278 . S
C477 O478 1.245 . S
C477 O489 1.232 . S
O478 C477 1.245 . S
O479 Co473 2.058 1_554 S
O479 C505 1.269 . S
O480 Co472 2.074 . S
O480 C505 1.257 . S
H481 C506 0.930 . S
H482 C512 0.930 . S
O483 Co472 2.093 1_556 S
O483 C475 1.224 . S
H484 C516 0.929 . S
H485 C518 0.930 . S
H486 C519 0.930 . S
H487 C517 0.929 . S
H488 C520 0.928 . S
O489 Co473 2.057 1_554 S
O489 C477 1.232 . S
H490 C509 0.929 . S
H491 C510 0.929 . S
H492 C522 0.931 . S
H493 C514 0.929 . S
H494 C523 0.930 . S
H495 C515 0.931 . S
O496 Co472 2.097 1_556 S
O496 C524 1.214 . S
H497 C525 0.929 . S
H498 C526 0.929 . S
H499 C527 0.930 . S
H500 C528 0.929 . S
H501 C530 0.930 . S
H502 C507 0.930 . S
H503 C511 0.930 . S
O504 Co473 2.037 . S
O504 C524 1.234 . S
C505 O479 1.269 . S
C505 O480 1.257 . S
C506 H481 0.930 . S
C506 C509 1.388 . S
C506 C511 1.418 . S
C507 H502 0.930 . S
C507 C510 1.404 . S
C507 C511 1.353 . S
N508 Co473 2.145 . S
N508 C509 1.397 . S
N508 C510 1.334 . S
C509 H490 0.929 . S
C509 C506 1.388 . S
C509 N508 1.397 . S
C510 H491 0.929 . S
C510 C507 1.404 . S
C510 N508 1.334 . S
C511 H503 0.930 . S
C511 C506 1.418 . S
C511 C507 1.353 . S
C512 H482 0.930 . S
C512 N513 1.330 . S
C512 C514 1.446 . S
N513 Co472 2.151 . S
N513 C512 1.330 . S
N513 C517 1.418 . S
C514 H493 0.929 . S
C514 C512 1.446 . S
C514 C515 1.332 . S
C515 H495 0.931 . S
C515 C514 1.332 . S
C515 C516 1.267 . S
C516 H484 0.929 . S
C516 C515 1.267 . S
C516 C517 1.251 . S
C517 H487 0.929 . S
C517 N513 1.418 . S
C517 C516 1.251 . S
C518 H485 0.930 . S
C518 C520 1.406 . S
C518 C523 1.261 . S
C519 H486 0.930 . S
C519 N521 1.325 . S
C519 C522 1.357 . S
C520 H488 0.928 . S
C520 C518 1.406 . S
C520 N521 1.261 . S
N521 Co472 2.214 . S
N521 C519 1.325 . S
N521 C520 1.261 . S
C522 H492 0.931 . S
C522 C519 1.357 . S
C522 C523 1.312 . S
C523 H494 0.930 . S
C523 C518 1.261 . S
C523 C522 1.312 . S
C524 O496 1.214 . S
C524 O504 1.234 . S
C525 H497 0.929 . S
C525 C528 1.391 . S
C525 C530 1.391 . S
C526 H498 0.929 . S
C526 C527 1.390 . S
C526 N529 1.391 . S
C527 H499 0.930 . S
C527 C526 1.390 . S
C527 C528 1.392 . S
C528 H500 0.929 . S
C528 C525 1.391 . S
C528 C527 1.392 . S
N529 Co473 2.257 . S
N529 C526 1.391 . S
N529 C530 1.388 . S
C530 H501 0.930 . S
C530 C525 1.391 . S
C530 N529 1.388 . S
Co531 O533 2.160 . S
Co531 O539 2.074 . S
Co531 O542 2.093 . S
Co531 O555 2.097 . S
Co531 N572 2.151 . S
Co531 N580 2.214 . S
Co532 O533 2.143 1_554 S
Co532 O538 2.058 . S
Co532 O548 2.057 . S
Co532 O563 2.037 . S
Co532 N567 2.145 . S
Co532 N588 2.257 . S
O533 Co531 2.160 . S
O533 Co532 2.143 1_556 S
C534 O535 1.278 . S
C534 O542 1.224 . S
O535 C534 1.278 . S
C536 O537 1.245 . S
C536 O548 1.232 . S
O537 C536 1.245 . S
O538 Co532 2.058 . S
O538 C564 1.269 . S
O539 Co531 2.074 . S
O539 C564 1.257 1_556 S
H540 C565 0.930 . S
H541 C571 0.930 . S
O542 Co531 2.093 . S
O542 C534 1.224 . S
H543 C575 0.929 . S
H544 C577 0.930 . S
H545 C578 0.930 . S
H546 C576 0.929 . S
H547 C579 0.928 . S
O548 Co532 2.057 . S
O548 C536 1.232 . S
H549 C568 0.929 . S
H550 C569 0.929 . S
H551 C581 0.931 . S
H552 C573 0.929 . S
H553 C582 0.930 . S
H554 C574 0.931 . S
O555 Co531 2.097 . S
O555 C583 1.214 . S
H556 C584 0.929 . S
H557 C585 0.929 . S
H558 C586 0.930 . S
H559 C587 0.929 . S
H560 C589 0.930 . S
H561 C566 0.930 . S
H562 C570 0.930 . S
O563 Co532 2.037 . S
O563 C583 1.234 1_554 S
C564 O538 1.269 . S
C564 O539 1.257 1_554 S
C565 H540 0.930 . S
C565 C568 1.388 . S
C565 C570 1.418 . S
C566 H561 0.930 . S
C566 C569 1.404 . S
C566 C570 1.353 . S
N567 Co532 2.145 . S
N567 C568 1.397 . S
N567 C569 1.334 . S
C568 H549 0.929 . S
C568 C565 1.388 . S
C568 N567 1.397 . S
C569 H550 0.929 . S
C569 C566 1.404 . S
C569 N567 1.334 . S
C570 H562 0.930 . S
C570 C565 1.418 . S
C570 C566 1.353 . S
C571 H541 0.930 . S
C571 N572 1.330 . S
C571 C573 1.446 . S
N572 Co531 2.151 . S
N572 C571 1.330 . S
N572 C576 1.418 . S
C573 H552 0.929 . S
C573 C571 1.446 . S
C573 C574 1.332 . S
C574 H554 0.931 . S
C574 C573 1.332 . S
C574 C575 1.267 . S
C575 H543 0.929 . S
C575 C574 1.267 . S
C575 C576 1.251 . S
C576 H546 0.929 . S
C576 N572 1.418 . S
C576 C575 1.251 . S
C577 H544 0.930 . S
C577 C579 1.406 . S
C577 C582 1.261 . S
C578 H545 0.930 . S
C578 N580 1.325 . S
C578 C581 1.357 . S
C579 H547 0.928 . S
C579 C577 1.406 . S
C579 N580 1.261 . S
N580 Co531 2.214 . S
N580 C578 1.325 . S
N580 C579 1.261 . S
C581 H551 0.931 . S
C581 C578 1.357 . S
C581 C582 1.312 . S
C582 H553 0.930 . S
C582 C577 1.261 . S
C582 C581 1.312 . S
C583 O555 1.214 . S
C583 O563 1.234 1_556 S
C584 H556 0.929 . S
C584 C587 1.391 . S
C584 C589 1.391 . S
C585 H557 0.929 . S
C585 C586 1.390 . S
C585 N588 1.391 . S
C586 H558 0.930 . S
C586 C585 1.390 . S
C586 C587 1.392 . S
C587 H559 0.929 . S
C587 C584 1.391 . S
C587 C586 1.392 . S
N588 Co532 2.257 . S
N588 C585 1.391 . S
N588 C589 1.388 . S
C589 H560 0.930 . S
C589 C584 1.391 . S
C589 N588 1.388 . S
Co590 O592 2.143 . S
Co590 O598 2.074 . S
Co590 O601 2.093 1_554 S
Co590 O614 2.097 1_554 S
Co590 N631 2.151 . S
Co590 N639 2.214 . S
Co591 O592 2.160 1_556 S
Co591 O597 2.058 1_556 S
Co591 O607 2.057 1_556 S
Co591 O622 2.037 . S
Co591 N626 2.145 . S
Co591 N647 2.257 . S
O592 Co590 2.143 . S
O592 Co591 2.160 1_554 S
C593 O594 1.278 . S
C593 O601 1.224 . S
O594 C593 1.278 . S
C595 O596 1.245 . S
C595 O607 1.232 . S
O596 C595 1.245 . S
O597 Co591 2.058 1_554 S
O597 C623 1.269 . S
O598 Co590 2.074 . S
O598 C623 1.257 . S
H599 C624 0.930 . S
H600 C630 0.930 . S
O601 Co590 2.093 1_556 S
O601 C593 1.224 . S
H602 C634 0.929 . S
H603 C636 0.930 . S
H604 C637 0.930 . S
H605 C635 0.929 . S
H606 C638 0.928 . S
O607 Co591 2.057 1_554 S
O607 C595 1.232 . S
H608 C627 0.929 . S
H609 C628 0.929 . S
H610 C640 0.931 . S
H611 C632 0.929 . S
H612 C641 0.930 . S
H613 C633 0.931 . S
O614 Co590 2.097 1_556 S
O614 C642 1.214 . S
H615 C643 0.929 . S
H616 C644 0.929 . S
H617 C645 0.930 . S
H618 C646 0.929 . S
H619 C648 0.930 . S
H620 C625 0.930 . S
H621 C629 0.930 . S
O622 Co591 2.037 . S
O622 C642 1.234 . S
C623 O597 1.269 . S
C623 O598 1.257 . S
C624 H599 0.930 . S
C624 C627 1.388 . S
C624 C629 1.418 . S
C625 H620 0.930 . S
C625 C628 1.404 . S
C625 C629 1.353 . S
N626 Co591 2.145 . S
N626 C627 1.397 . S
N626 C628 1.334 . S
C627 H608 0.929 . S
C627 C624 1.388 . S
C627 N626 1.397 . S
C628 H609 0.929 . S
C628 C625 1.404 . S
C628 N626 1.334 . S
C629 H621 0.930 . S
C629 C624 1.418 . S
C629 C625 1.353 . S
C630 H600 0.930 . S
C630 N631 1.330 . S
C630 C632 1.446 . S
N631 Co590 2.151 . S
N631 C630 1.330 . S
N631 C635 1.418 . S
C632 H611 0.929 . S
C632 C630 1.446 . S
C632 C633 1.332 . S
C633 H613 0.931 . S
C633 C632 1.332 . S
C633 C634 1.267 . S
C634 H602 0.929 . S
C634 C633 1.267 . S
C634 C635 1.251 . S
C635 H605 0.929 . S
C635 N631 1.418 . S
C635 C634 1.251 . S
C636 H603 0.930 . S
C636 C638 1.406 . S
C636 C641 1.261 . S
C637 H604 0.930 . S
C637 N639 1.325 . S
C637 C640 1.357 . S
C638 H606 0.928 . S
C638 C636 1.406 . S
C638 N639 1.261 . S
N639 Co590 2.214 . S
N639 C637 1.325 . S
N639 C638 1.261 . S
C640 H610 0.931 . S
C640 C637 1.357 . S
C640 C641 1.312 . S
C641 H612 0.930 . S
C641 C636 1.261 . S
C641 C640 1.312 . S
C642 O614 1.214 . S
C642 O622 1.234 . S
C643 H615 0.929 . S
C643 C646 1.391 . S
C643 C648 1.391 . S
C644 H616 0.929 . S
C644 C645 1.390 . S
C644 N647 1.391 . S
C645 H617 0.930 . S
C645 C644 1.390 . S
C645 C646 1.392 . S
C646 H618 0.929 . S
C646 C643 1.391 . S
C646 C645 1.392 . S
N647 Co591 2.257 . S
N647 C644 1.391 . S
N647 C648 1.388 . S
C648 H619 0.930 . S
C648 C643 1.391 . S
C648 N647 1.388 . S
Co649 O651 2.143 . S
Co649 O657 2.074 . S
Co649 O660 2.093 . S
Co649 O673 2.097 . S
Co649 N690 2.151 . S
Co649 N698 2.214 . S
Co650 O651 2.160 1_556 S
Co650 O656 2.058 . S
Co650 O666 2.057 . S
Co650 O681 2.037 . S
Co650 N685 2.145 . S
Co650 N706 2.257 . S
O651 Co649 2.143 . S
O651 Co650 2.160 1_554 S
C652 O653 1.278 . S
C652 O660 1.224 . S
O653 C652 1.278 . S
C654 O655 1.245 . S
C654 O666 1.232 . S
O655 C654 1.245 . S
O656 Co650 2.058 . S
O656 C682 1.269 . S
O657 Co649 2.074 . S
O657 C682 1.257 1_554 S
H658 C683 0.930 . S
H659 C689 0.930 . S
O660 Co649 2.093 . S
O660 C652 1.224 . S
H661 C693 0.929 . S
H662 C695 0.930 . S
H663 C696 0.930 . S
H664 C694 0.929 . S
H665 C697 0.928 . S
O666 Co650 2.057 . S
O666 C654 1.232 . S
H667 C686 0.929 . S
H668 C687 0.929 . S
H669 C699 0.931 . S
H670 C691 0.929 . S
H671 C700 0.930 . S
H672 C692 0.931 . S
O673 Co649 2.097 . S
O673 C701 1.214 . S
H674 C702 0.929 . S
H675 C703 0.929 . S
H676 C704 0.930 . S
H677 C705 0.929 . S
H678 C707 0.930 . S
H679 C684 0.930 . S
H680 C688 0.930 . S
O681 Co650 2.037 . S
O681 C701 1.234 1_556 S
C682 O656 1.269 . S
C682 O657 1.257 1_556 S
C683 H658 0.930 . S
C683 C686 1.388 . S
C683 C688 1.418 . S
C684 H679 0.930 . S
C684 C687 1.404 . S
C684 C688 1.353 . S
N685 Co650 2.145 . S
N685 C686 1.397 . S
N685 C687 1.334 . S
C686 H667 0.929 . S
C686 C683 1.388 . S
C686 N685 1.397 . S
C687 H668 0.929 . S
C687 C684 1.404 . S
C687 N685 1.334 . S
C688 H680 0.930 . S
C688 C683 1.418 . S
C688 C684 1.353 . S
C689 H659 0.930 . S
C689 N690 1.330 . S
C689 C691 1.446 . S
N690 Co649 2.151 . S
N690 C689 1.330 . S
N690 C694 1.418 . S
C691 H670 0.929 . S
C691 C689 1.446 . S
C691 C692 1.332 . S
C692 H672 0.931 . S
C692 C691 1.332 . S
C692 C693 1.267 . S
C693 H661 0.929 . S
C693 C692 1.267 . S
C693 C694 1.251 . S
C694 H664 0.929 . S
C694 N690 1.418 . S
C694 C693 1.251 . S
C695 H662 0.930 . S
C695 C697 1.406 . S
C695 C700 1.261 . S
C696 H663 0.930 . S
C696 N698 1.325 . S
C696 C699 1.357 . S
C697 H665 0.928 . S
C697 C695 1.406 . S
C697 N698 1.261 . S
N698 Co649 2.214 . S
N698 C696 1.325 . S
N698 C697 1.261 . S
C699 H669 0.931 . S
C699 C696 1.357 . S
C699 C700 1.312 . S
C700 H671 0.930 . S
C700 C695 1.261 . S
C700 C699 1.312 . S
C701 O673 1.214 . S
C701 O681 1.234 1_554 S
C702 H674 0.929 . S
C702 C705 1.391 . S
C702 C707 1.391 . S
C703 H675 0.929 . S
C703 C704 1.390 . S
C703 N706 1.391 . S
C704 H676 0.930 . S
C704 C703 1.390 . S
C704 C705 1.392 . S
C705 H677 0.929 . S
C705 C702 1.391 . S
C705 C704 1.392 . S
N706 Co650 2.257 . S
N706 C703 1.391 . S
N706 C707 1.388 . S
C707 H678 0.930 . S
C707 C702 1.391 . S
C707 N706 1.388 . S
C708 C709 1.391 . S
C708 C710 1.394 . S
C708 H724 0.931 . S
C709 C708 1.391 . S
C709 C713 1.376 1_455 S
C710 C708 1.394 . S
C710 C711 1.387 . S
C710 C714 1.531 . S
C711 C710 1.387 . S
C711 C712 1.396 1_455 S
C711 C719 1.499 1_455 S
C712 C711 1.396 1_655 S
C712 C713 1.392 . S
C712 C715 1.511 . S
C713 C709 1.376 1_655 S
C713 C712 1.392 . S
C713 H725 0.929 . S
C714 C710 1.531 . S
C714 H726 0.960 . S
C714 H727 0.962 . S
C714 H728 0.960 . S
C715 C712 1.511 . S
C715 H729 0.961 . S
C715 H730 0.961 . S
C715 H731 0.961 . S
C716 C717 1.372 . S
C716 C718 1.362 1_655 S
C716 H732 0.929 1_655 S
C717 C716 1.372 . S
C717 C721 1.408 . S
C718 C716 1.362 1_455 S
C718 C719 1.370 1_455 S
C718 C722 1.524 . S
C719 C711 1.499 1_655 S
C719 C718 1.370 1_655 S
C719 C720 1.403 . S
C720 C719 1.403 . S
C720 C721 1.404 . S
C720 C723 1.539 . S
C721 C717 1.408 . S
C721 C720 1.404 . S
C721 H733 0.930 . S
C722 C718 1.524 . S
C722 H734 0.956 . S
C722 H735 0.961 . S
C722 H736 0.961 . S
C723 C720 1.539 . S
C723 H737 0.958 . S
C723 H738 0.961 . S
C723 H739 0.960 . S
H724 C708 0.931 . S
H725 C713 0.929 . S
H726 C714 0.960 . S
H727 C714 0.962 . S
H728 C714 0.960 . S
H729 C715 0.961 . S
H730 C715 0.961 . S
H731 C715 0.961 . S
H732 C716 0.929 1_455 S
H733 C721 0.930 . S
H734 C722 0.956 . S
H735 C722 0.961 . S
H736 C722 0.961 . S
H737 C723 0.958 . S
H738 C723 0.961 . S
H739 C723 0.960 . S
C740 C741 1.391 . S
C740 C742 1.394 . S
C740 H756 0.931 . S
C741 C740 1.391 . S
C741 C745 1.376 1_545 S
C742 C740 1.394 . S
C742 C743 1.369 . S
C742 C746 1.531 . S
C743 C742 1.369 . S
C743 C744 1.410 1_545 S
C743 C751 1.497 1_545 S
C744 C743 1.410 1_565 S
C744 C745 1.392 . S
C744 C747 1.511 . S
C745 C741 1.376 1_565 S
C745 C744 1.392 . S
C745 H757 0.929 . S
C746 C742 1.531 . S
C746 H758 0.960 . S
C746 H759 0.962 . S
C746 H760 0.960 . S
C747 C744 1.511 . S
C747 H761 0.961 . S
C747 H762 0.961 . S
C747 H763 0.961 . S
C748 C749 1.370 . S
C748 C750 1.363 . S
C748 H764 0.931 . S
C749 C748 1.370 . S
C749 C753 1.408 . S
C750 C748 1.363 . S
C750 C751 1.381 . S
C750 C754 1.524 . S
C751 C743 1.497 1_565 S
C751 C750 1.381 . S
C751 C752 1.399 1_565 S
C752 C751 1.399 1_545 S
C752 C753 1.404 1_545 S
C752 C755 1.539 . S
C753 C749 1.408 . S
C753 C752 1.404 1_565 S
C753 H765 0.930 . S
C754 C750 1.524 . S
C754 H766 0.956 1_565 S
C754 H767 0.961 . S
C754 H768 0.961 . S
C755 C752 1.539 . S
C755 H769 0.958 . S
C755 H770 0.961 . S
C755 H771 0.960 . S
H756 C740 0.931 . S
H757 C745 0.929 . S
H758 C746 0.960 . S
H759 C746 0.962 . S
H760 C746 0.960 . S
H761 C747 0.961 . S
H762 C747 0.961 . S
H763 C747 0.961 . S
H764 C748 0.931 . S
H765 C753 0.930 . S
H766 C754 0.956 1_545 S
H767 C754 0.961 . S
H768 C754 0.961 . S
H769 C755 0.958 . S
H770 C755 0.961 . S
H771 C755 0.960 . S
C772 C773 1.391 . S
C772 C774 1.394 . S
C772 H788 0.931 . S
C773 C772 1.391 . S
C773 C777 1.376 1_455 S
C774 C772 1.394 . S
C774 C775 1.369 . S
C774 C778 1.531 . S
C775 C774 1.369 . S
C775 C776 1.410 1_455 S
C775 C783 1.503 1_455 S
C776 C775 1.410 1_655 S
C776 C777 1.392 . S
C776 C779 1.511 . S
C777 C773 1.376 1_655 S
C777 C776 1.392 . S
C777 H789 0.929 . S
C778 C774 1.531 . S
C778 H790 0.960 . S
C778 H791 0.962 . S
C778 H792 0.960 . S
C779 C776 1.511 . S
C779 H793 0.961 . S
C779 H794 0.961 . S
C779 H795 0.961 . S
C780 C781 1.370 . S
C780 C782 1.363 1_655 S
C780 H796 0.931 . S
C781 C780 1.370 . S
C781 C785 1.408 . S
C782 C780 1.363 1_455 S
C782 C783 1.370 1_455 S
C782 C786 1.525 . S
C783 C775 1.503 1_655 S
C783 C782 1.370 1_655 S
C783 C784 1.403 . S
C784 C783 1.403 . S
C784 C785 1.404 . S
C784 C787 1.539 . S
C785 C781 1.408 . S
C785 C784 1.404 . S
C785 H797 0.930 . S
C786 C782 1.525 . S
C786 H798 0.956 . S
C786 H799 0.961 1_455 S
C786 H800 0.961 . S
C787 C784 1.539 . S
C787 H801 0.958 . S
C787 H802 0.961 . S
C787 H803 0.960 . S
H788 C772 0.931 . S
H789 C777 0.929 . S
H790 C778 0.960 . S
H791 C778 0.962 . S
H792 C778 0.960 . S
H793 C779 0.961 . S
H794 C779 0.961 . S
H795 C779 0.961 . S
H796 C780 0.931 . S
H797 C785 0.930 . S
H798 C786 0.956 . S
H799 C786 0.961 1_655 S
H800 C786 0.961 . S
H801 C787 0.958 . S
H802 C787 0.961 . S
H803 C787 0.960 . S
C804 C805 1.391 . S
C804 C806 1.394 . S
C804 H820 0.931 . S
C805 C804 1.391 . S
C805 C809 1.370 1_565 S
C806 C804 1.394 . S
C806 C807 1.369 . S
C806 C810 1.531 . S
C807 C806 1.369 . S
C807 C808 1.410 1_565 S
C807 C815 1.508 . S
C808 C807 1.410 1_545 S
C808 C809 1.394 . S
C808 C811 1.511 . S
C809 C805 1.370 1_545 S
C809 C808 1.394 . S
C809 H821 0.933 . S
C810 C806 1.531 . S
C810 H822 0.960 . S
C810 H823 0.962 . S
C810 H824 0.960 . S
C811 C808 1.511 . S
C811 H825 0.961 . S
C811 H826 0.961 . S
C811 H827 0.961 . S
C812 C813 1.370 . S
C812 C814 1.363 . S
C812 H828 0.931 . S
C813 C812 1.370 . S
C813 C817 1.408 1_545 S
C814 C812 1.363 . S
C814 C815 1.355 1_545 S
C814 C818 1.524 . S
C815 C807 1.508 . S
C815 C814 1.355 1_565 S
C815 C816 1.414 . S
C816 C815 1.414 . S
C816 C817 1.404 . S
C816 C819 1.539 . S
C817 C813 1.408 1_565 S
C817 C816 1.404 . S
C817 H829 0.930 . S
C818 C814 1.524 . S
C818 H830 0.956 . S
C818 H831 0.961 . S
C818 H832 0.961 . S
C819 C816 1.539 . S
C819 H833 0.958 . S
C819 H834 0.961 . S
C819 H835 0.960 . S
H820 C804 0.931 . S
H821 C809 0.933 . S
H822 C810 0.960 . S
H823 C810 0.962 . S
H824 C810 0.960 . S
H825 C811 0.961 . S
H826 C811 0.961 . S
H827 C811 0.961 . S
H828 C812 0.931 . S
H829 C817 0.930 . S
H830 C818 0.956 . S
H831 C818 0.961 . S
H832 C818 0.961 . S
H833 C819 0.958 . S
H834 C819 0.961 . S
H835 C819 0.960 . S
C836 C837 1.391 1_455 S
C836 C838 1.394 . S
C836 H852 0.931 . S
C837 C836 1.391 1_655 S
C837 C841 1.376 . S
C838 C836 1.394 . S
C838 C839 1.369 1_455 S
C838 C842 1.531 . S
C839 C838 1.369 1_655 S
C839 C840 1.410 . S
C839 C847 1.503 1_655 S
C840 C839 1.410 . S
C840 C841 1.392 . S
C840 C843 1.511 . S
C841 C837 1.376 . S
C841 C840 1.392 . S
C841 H853 0.929 . S
C842 C838 1.531 . S
C842 H854 0.960 . S
C842 H855 0.962 . S
C842 H856 0.960 . S
C843 C840 1.511 . S
C843 H857 0.961 . S
C843 H858 0.961 . S
C843 H859 0.961 . S
C844 C845 1.370 . S
C844 C846 1.363 . S
C844 H860 0.931 . S
C845 C844 1.370 . S
C845 C849 1.408 . S
C846 C844 1.363 . S
C846 C847 1.370 . S
C846 C850 1.524 . S
C847 C839 1.503 1_455 S
C847 C846 1.370 . S
C847 C848 1.403 1_455 S
C848 C847 1.403 1_655 S
C848 C849 1.404 1_655 S
C848 C851 1.539 . S
C849 C845 1.408 . S
C849 C848 1.404 1_455 S
C849 H861 0.930 . S
C850 C846 1.524 . S
C850 H862 0.956 . S
C850 H863 0.961 . S
C850 H864 0.961 . S
C851 C848 1.539 . S
C851 H865 0.958 . S
C851 H866 0.961 . S
C851 H867 0.960 . S
H852 C836 0.931 . S
H853 C841 0.929 . S
H854 C842 0.960 . S
H855 C842 0.962 . S
H856 C842 0.960 . S
H857 C843 0.961 . S
H858 C843 0.961 . S
H859 C843 0.961 . S
H860 C844 0.931 . S
H861 C849 0.930 . S
H862 C850 0.956 . S
H863 C850 0.961 . S
H864 C850 0.961 . S
H865 C851 0.958 . S
H866 C851 0.961 . S
H867 C851 0.960 . S
C868 C869 1.391 1_545 S
C868 C870 1.394 . S
C868 H884 0.931 . S
C869 C868 1.391 1_565 S
C869 C873 1.376 . S
C870 C868 1.394 . S
C870 C871 1.369 . S
C870 C874 1.531 . S
C871 C870 1.369 . S
C871 C872 1.410 1_545 S
C871 C879 1.503 . S
C872 C871 1.410 1_565 S
C872 C873 1.392 . S
C872 C875 1.511 . S
C873 C869 1.376 . S
C873 C872 1.392 . S
C873 H885 0.929 . S
C874 C870 1.531 . S
C874 H886 0.960 . S
C874 H887 0.962 . S
C874 H888 0.960 . S
C875 C872 1.511 . S
C875 H889 0.961 . S
C875 H890 0.961 . S
C875 H891 0.961 . S
C876 C877 1.370 1_565 S
C876 C878 1.363 . S
C876 H892 0.931 . S
C877 C876 1.370 1_545 S
C877 C881 1.408 . S
C878 C876 1.363 . S
C878 C879 1.370 1_565 S
C878 C882 1.524 . S
C879 C871 1.503 . S
C879 C878 1.370 1_545 S
C879 C880 1.403 . S
C880 C879 1.403 . S
C880 C881 1.404 . S
C880 C883 1.539 . S
C881 C877 1.408 . S
C881 C880 1.404 . S
C881 H893 0.930 . S
C882 C878 1.524 . S
C882 H894 0.956 . S
C882 H895 0.961 . S
C882 H896 0.961 . S
C883 C880 1.539 . S
C883 H897 0.958 . S
C883 H898 0.961 . S
C883 H899 0.960 . S
H884 C868 0.931 . S
H885 C873 0.929 . S
H886 C874 0.960 . S
H887 C874 0.962 . S
H888 C874 0.960 . S
H889 C875 0.961 . S
H890 C875 0.961 . S
H891 C875 0.961 . S
H892 C876 0.931 . S
H893 C881 0.930 . S
H894 C882 0.956 . S
H895 C882 0.961 . S
H896 C882 0.961 . S
H897 C883 0.958 . S
H898 C883 0.961 . S
H899 C883 0.960 . S
C900 C901 1.391 . S
C900 C902 1.394 . S
C900 H916 0.931 . S
C901 C900 1.391 . S
C901 C905 1.376 1_655 S
C902 C900 1.394 . S
C902 C903 1.369 1_655 S
C902 C906 1.531 . S
C903 C902 1.369 1_455 S
C903 C904 1.410 . S
C903 C911 1.503 . S
C904 C903 1.410 . S
C904 C905 1.392 . S
C904 C907 1.511 . S
C905 C901 1.376 1_455 S
C905 C904 1.392 . S
C905 H917 0.929 . S
C906 C902 1.531 . S
C906 H918 0.960 . S
C906 H919 0.962 . S
C906 H920 0.960 . S
C907 C904 1.511 . S
C907 H921 0.961 . S
C907 H922 0.961 . S
C907 H923 0.961 . S
C908 C909 1.370 1_655 S
C908 C910 1.363 . S
C908 H924 0.931 . S
C909 C908 1.370 1_455 S
C909 C913 1.408 . S
C910 C908 1.363 . S
C910 C911 1.370 1_655 S
C910 C914 1.524 . S
C911 C903 1.503 . S
C911 C910 1.370 1_455 S
C911 C912 1.403 . S
C912 C911 1.403 . S
C912 C913 1.404 . S
C912 C915 1.539 . S
C913 C909 1.408 . S
C913 C912 1.404 . S
C913 H925 0.930 . S
C914 C910 1.524 . S
C914 H926 0.956 . S
C914 H927 0.961 . S
C914 H928 0.961 . S
C915 C912 1.539 . S
C915 H929 0.958 . S
C915 H930 0.961 . S
C915 H931 0.960 . S
H916 C900 0.931 . S
H917 C905 0.929 . S
H918 C906 0.960 . S
H919 C906 0.962 . S
H920 C906 0.960 . S
H921 C907 0.961 . S
H922 C907 0.961 . S
H923 C907 0.961 . S
H924 C908 0.931 . S
H925 C913 0.930 . S
H926 C914 0.956 . S
H927 C914 0.961 . S
H928 C914 0.961 . S
H929 C915 0.958 . S
H930 C915 0.961 . S
H931 C915 0.960 . S
C932 C933 1.391 . S
C932 C934 1.394 . S
C932 H948 0.931 . S
C933 C932 1.391 . S
C933 C937 1.376 . S
C934 C932 1.394 . S
C934 C935 1.369 . S
C934 C938 1.531 . S
C935 C934 1.369 . S
C935 C936 1.410 . S
C935 C943 1.503 . S
C936 C935 1.410 . S
C936 C937 1.392 . S
C936 C939 1.511 . S
C937 C933 1.376 . S
C937 C936 1.392 . S
C937 H949 0.929 . S
C938 C934 1.531 . S
C938 H950 0.960 . S
C938 H951 0.962 1_545 S
C938 H952 0.960 . S
C939 C936 1.511 . S
C939 H953 0.964 . S
C939 H954 0.961 1_545 S
C939 H955 0.961 . S
C940 C941 1.370 . S
C940 C942 1.363 . S
C940 H956 0.931 . S
C941 C940 1.370 . S
C941 C945 1.408 1_565 S
C942 C940 1.363 . S
C942 C943 1.370 1_565 S
C942 C946 1.524 . S
C943 C935 1.503 . S
C943 C942 1.370 1_545 S
C943 C944 1.403 . S
C944 C943 1.403 . S
C944 C945 1.404 . S
C944 C947 1.539 . S
C945 C941 1.408 1_545 S
C945 C944 1.404 . S
C945 H957 0.930 . S
C946 C942 1.524 . S
C946 H958 0.956 . S
C946 H959 0.961 . S
C946 H960 0.961 . S
C947 C944 1.539 . S
C947 H961 0.958 . S
C947 H962 0.961 . S
C947 H963 0.960 . S
H948 C932 0.931 . S
H949 C937 0.929 . S
H950 C938 0.960 . S
H951 C938 0.962 1_565 S
H952 C938 0.960 . S
H953 C939 0.964 . S
H954 C939 0.961 1_565 S
H955 C939 0.961 . S
H956 C940 0.931 . S
H957 C945 0.930 . S
H958 C946 0.956 . S
H959 C946 0.961 . S
H960 C946 0.961 . S
H961 C947 0.958 . S
H962 C947 0.961 . S
H963 C947 0.960 . S
C964 C965 1.391 1_554 S
C964 C966 1.394 . S
C964 H980 0.931 . S
C965 C964 1.391 1_556 S
C965 C969 1.376 . S
C966 C964 1.394 . S
C966 C967 1.370 . S
C966 C970 1.531 . S
C967 C966 1.370 . S
C967 C968 1.408 1_554 S
C967 C975 1.504 . S
C968 C967 1.408 1_556 S
C968 C969 1.392 . S
C968 C971 1.511 . S
C969 C965 1.376 . S
C969 C968 1.392 . S
C969 H981 0.929 . S
C970 C966 1.531 . S
C970 H982 0.960 . S
C970 H983 0.962 . S
C970 H984 0.960 . S
C971 C968 1.511 . S
C971 H985 0.961 . S
C971 H986 0.961 . S
C971 H987 0.961 . S
C972 C973 1.370 . S
C972 C974 1.363 . S
C972 H988 0.931 . S
C973 C972 1.370 . S
C973 C977 1.408 . S
C974 C972 1.363 . S
C974 C975 1.370 . S
C974 C978 1.524 1_554 S
C975 C967 1.504 . S
C975 C974 1.370 . S
C975 C976 1.403 . S
C976 C975 1.403 . S
C976 C977 1.404 . S
C976 C979 1.539 . S
C977 C973 1.408 . S
C977 C976 1.404 . S
C977 H989 0.930 . S
C978 C974 1.524 1_556 S
C978 H990 0.956 1_556 S
C978 H991 0.961 . S
C978 H992 0.961 . S
C979 C976 1.539 . S
C979 H993 0.958 . S
C979 H994 0.961 . S
C979 H995 0.936 1_554 S
H980 C964 0.931 . S
H981 C969 0.929 . S
H982 C970 0.960 . S
H983 C970 0.962 . S
H984 C970 0.960 . S
H985 C971 0.961 . S
H986 C971 0.961 . S
H987 C971 0.961 . S
H988 C972 0.931 . S
H989 C977 0.930 . S
H990 C978 0.956 1_554 S
H991 C978 0.961 . S
H992 C978 0.961 . S
H993 C979 0.958 . S
H994 C979 0.961 . S
H995 C979 0.936 1_556 S
C996 C997 1.391 1_554 S
C996 C998 1.394 . S
C996 H1012 0.931 . S
C997 C996 1.391 1_556 S
C997 C1001 1.376 . S
C998 C996 1.394 . S
C998 C999 1.369 1_554 S
C998 C1002 1.531 . S
C999 C998 1.369 1_556 S
C999 C1000 1.410 . S
C999 C1007 1.503 1_556 S
C1000 C999 1.410 . S
C1000 C1001 1.392 . S
C1000 C1003 1.511 . S
C1001 C997 1.376 . S
C1001 C1000 1.392 . S
C1001 H1013 0.929 . S
C1002 C998 1.531 . S
C1002 H1014 0.960 . S
C1002 H1015 0.962 . S
C1002 H1016 0.960 . S
C1003 C1000 1.511 . S
C1003 H1017 0.961 . S
C1003 H1018 0.961 . S
C1003 H1019 0.961 . S
C1004 C1005 1.370 . S
C1004 C1006 1.363 . S
C1004 H1020 0.931 . S
C1005 C1004 1.370 . S
C1005 C1009 1.408 . S
C1006 C1004 1.363 . S
C1006 C1007 1.370 . S
C1006 C1010 1.524 . S
C1007 C999 1.503 1_554 S
C1007 C1006 1.370 . S
C1007 C1008 1.403 1_554 S
C1008 C1007 1.403 1_556 S
C1008 C1009 1.404 1_556 S
C1008 C1011 1.539 . S
C1009 C1005 1.408 . S
C1009 C1008 1.404 1_554 S
C1009 H1021 0.930 . S
C1010 C1006 1.524 . S
C1010 H1022 0.956 . S
C1010 H1023 0.942 1_554 S
C1010 H1024 0.961 . S
C1011 C1008 1.539 . S
C1011 H1025 0.973 . S
C1011 H1026 0.961 . S
C1011 H1027 0.960 . S
H1012 C996 0.931 . S
H1013 C1001 0.929 . S
H1014 C1002 0.960 . S
H1015 C1002 0.962 . S
H1016 C1002 0.960 . S
H1017 C1003 0.961 . S
H1018 C1003 0.961 . S
H1019 C1003 0.961 . S
H1020 C1004 0.931 . S
H1021 C1009 0.930 . S
H1022 C1010 0.956 . S
H1023 C1010 0.942 1_556 S
H1024 C1010 0.961 . S
H1025 C1011 0.973 . S
H1026 C1011 0.961 . S
H1027 C1011 0.960 . S
C1028 C1029 1.391 1_556 S
C1028 C1030 1.394 . S
C1028 H1044 0.931 . S
C1029 C1028 1.391 1_554 S
C1029 C1033 1.376 . S
C1030 C1028 1.394 . S
C1030 C1031 1.369 1_556 S
C1030 C1034 1.531 . S
C1031 C1030 1.369 1_554 S
C1031 C1032 1.410 . S
C1031 C1039 1.503 1_554 S
C1032 C1031 1.410 . S
C1032 C1033 1.392 . S
C1032 C1035 1.511 . S
C1033 C1029 1.376 . S
C1033 C1032 1.392 . S
C1033 H1045 0.929 . S
C1034 C1030 1.531 . S
C1034 H1046 0.960 . S
C1034 H1047 0.962 . S
C1034 H1048 0.960 . S
C1035 C1032 1.511 . S
C1035 H1049 0.961 . S
C1035 H1050 0.961 . S
C1035 H1051 0.961 . S
C1036 C1037 1.370 . S
C1036 C1038 1.363 . S
C1036 H1052 0.931 . S
C1037 C1036 1.370 . S
C1037 C1041 1.408 . S
C1038 C1036 1.363 . S
C1038 C1039 1.370 . S
C1038 C1042 1.521 1_556 S
C1039 C1031 1.503 1_556 S
C1039 C1038 1.370 . S
C1039 C1040 1.403 . S
C1040 C1039 1.403 . S
C1040 C1041 1.404 . S
C1040 C1043 1.539 . S
C1041 C1037 1.408 . S
C1041 C1040 1.404 . S
C1041 H1053 0.930 . S
C1042 C1038 1.521 1_554 S
C1042 H1054 0.942 1_554 S
C1042 H1055 0.977 . S
C1042 H1056 0.961 . S
C1043 C1040 1.539 . S
C1043 H1057 0.958 . S
C1043 H1058 0.961 1_556 S
C1043 H1059 0.960 1_556 S
H1044 C1028 0.931 . S
H1045 C1033 0.929 . S
H1046 C1034 0.960 . S
H1047 C1034 0.962 . S
H1048 C1034 0.960 . S
H1049 C1035 0.961 . S
H1050 C1035 0.961 . S
H1051 C1035 0.961 . S
H1052 C1036 0.931 . S
H1053 C1041 0.930 . S
H1054 C1042 0.942 1_556 S
H1055 C1042 0.977 . S
H1056 C1042 0.961 . S
H1057 C1043 0.958 . S
H1058 C1043 0.961 1_554 S
H1059 C1043 0.960 1_554 S
C1060 C1061 1.393 1_556 S
C1060 C1062 1.393 . S
C1060 H1076 0.929 . S
C1061 C1060 1.393 1_554 S
C1061 C1065 1.376 . S
C1062 C1060 1.393 . S
C1062 C1063 1.369 1_556 S
C1062 C1066 1.531 . S
C1063 C1062 1.369 1_554 S
C1063 C1064 1.410 . S
C1063 C1071 1.503 . S
C1064 C1063 1.410 . S
C1064 C1065 1.392 . S
C1064 C1067 1.511 . S
C1065 C1061 1.376 . S
C1065 C1064 1.392 . S
C1065 H1077 0.929 . S
C1066 C1062 1.531 . S
C1066 H1078 0.960 . S
C1066 H1079 0.962 . S
C1066 H1080 0.960 . S
C1067 C1064 1.511 . S
C1067 H1081 0.961 . S
C1067 H1082 0.961 . S
C1067 H1083 0.961 . S
C1068 C1069 1.370 . S
C1068 C1070 1.363 . S
C1068 H1084 0.931 . S
C1069 C1068 1.370 . S
C1069 C1073 1.408 1_556 S
C1070 C1068 1.363 . S
C1070 C1071 1.370 1_556 S
C1070 C1074 1.524 . S
C1071 C1063 1.503 . S
C1071 C1070 1.370 1_554 S
C1071 C1072 1.403 . S
C1072 C1071 1.403 . S
C1072 C1073 1.404 . S
C1072 C1075 1.539 . S
C1073 C1069 1.408 1_554 S
C1073 C1072 1.404 . S
C1073 H1085 0.930 . S
C1074 C1070 1.524 . S
C1074 H1086 0.956 . S
C1074 H1087 0.961 . S
C1074 H1088 0.961 . S
C1075 C1072 1.539 . S
C1075 H1089 0.958 . S
C1075 H1090 0.961 . S
C1075 H1091 0.960 . S
H1076 C1060 0.929 . S
H1077 C1065 0.929 . S
H1078 C1066 0.960 . S
H1079 C1066 0.962 . S
H1080 C1066 0.960 . S
H1081 C1067 0.961 . S
H1082 C1067 0.961 . S
H1083 C1067 0.961 . S
H1084 C1068 0.931 . S
H1085 C1073 0.930 . S
H1086 C1074 0.956 . S
H1087 C1074 0.961 . S
H1088 C1074 0.961 . S
H1089 C1075 0.958 . S
H1090 C1075 0.961 . S
H1091 C1075 0.960 . S
C1092 C1093 1.391 . S
C1092 C1094 1.394 . S
C1092 H1108 0.931 . S
C1093 C1092 1.391 . S
C1093 C1097 1.376 . S
C1094 C1092 1.394 . S
C1094 C1095 1.369 . S
C1094 C1098 1.531 . S
C1095 C1094 1.369 . S
C1095 C1096 1.410 . S
C1095 C1103 1.503 . S
C1096 C1095 1.410 . S
C1096 C1097 1.392 . S
C1096 C1099 1.511 . S
C1097 C1093 1.376 . S
C1097 C1096 1.392 . S
C1097 H1109 0.929 . S
C1098 C1094 1.531 . S
C1098 H1110 0.960 . S
C1098 H1111 0.962 . S
C1098 H1112 0.960 . S
C1099 C1096 1.511 . S
C1099 H1113 0.961 . S
C1099 H1114 0.961 . S
C1099 H1115 0.961 . S
C1100 C1101 1.370 . S
C1100 C1102 1.363 . S
C1100 H1116 0.931 . S
C1101 C1100 1.370 . S
C1101 C1105 1.408 . S
C1102 C1100 1.363 . S
C1102 C1103 1.370 . S
C1102 C1106 1.524 . S
C1103 C1095 1.503 . S
C1103 C1102 1.370 . S
C1103 C1104 1.403 . S
C1104 C1103 1.403 . S
C1104 C1105 1.404 . S
C1104 C1107 1.539 . S
C1105 C1101 1.408 . S
C1105 C1104 1.404 . S
C1105 H1117 0.930 . S
C1106 C1102 1.524 . S
C1106 H1118 0.956 . S
C1106 H1119 0.961 . S
C1106 H1120 0.961 . S
C1107 C1104 1.539 . S
C1107 H1121 0.958 . S
C1107 H1122 0.961 . S
C1107 H1123 0.960 . S
H1108 C1092 0.931 . S
H1109 C1097 0.929 . S
H1110 C1098 0.960 . S
H1111 C1098 0.962 . S
H1112 C1098 0.960 . S
H1113 C1099 0.961 . S
H1114 C1099 0.961 . S
H1115 C1099 0.961 . S
H1116 C1100 0.931 . S
H1117 C1105 0.930 . S
H1118 C1106 0.956 . S
H1119 C1106 0.961 . S
H1120 C1106 0.961 . S
H1121 C1107 0.958 . S
H1122 C1107 0.961 . S
H1123 C1107 0.960 . S
C1124 C1125 1.391 . S
C1124 C1126 1.394 . S
C1124 H1140 0.931 . S
C1125 C1124 1.391 . S
C1125 C1129 1.376 . S
C1126 C1124 1.394 . S
C1126 C1127 1.369 . S
C1126 C1130 1.531 . S
C1127 C1126 1.369 . S
C1127 C1128 1.410 . S
C1127 C1135 1.503 . S
C1128 C1127 1.410 . S
C1128 C1129 1.392 . S
C1128 C1131 1.511 . S
C1129 C1125 1.376 . S
C1129 C1128 1.392 . S
C1129 H1141 0.929 . S
C1130 C1126 1.531 . S
C1130 H1142 0.960 . S
C1130 H1143 0.962 . S
C1130 H1144 0.960 . S
C1131 C1128 1.511 . S
C1131 H1145 0.961 . S
C1131 H1146 0.961 . S
C1131 H1147 0.961 . S
C1132 C1133 1.370 . S
C1132 C1134 1.363 . S
C1132 H1148 0.931 . S
C1133 C1132 1.370 . S
C1133 C1137 1.408 . S
C1134 C1132 1.363 . S
C1134 C1135 1.370 . S
C1134 C1138 1.524 . S
C1135 C1127 1.503 . S
C1135 C1134 1.370 . S
C1135 C1136 1.403 . S
C1136 C1135 1.403 . S
C1136 C1137 1.404 . S
C1136 C1139 1.539 . S
C1137 C1133 1.408 . S
C1137 C1136 1.404 . S
C1137 H1149 0.930 . S
C1138 C1134 1.524 . S
C1138 H1150 0.956 . S
C1138 H1151 0.961 . S
C1138 H1152 0.961 . S
C1139 C1136 1.539 . S
C1139 H1153 0.958 . S
C1139 H1154 0.961 . S
C1139 H1155 0.960 . S
H1140 C1124 0.931 . S
H1141 C1129 0.929 . S
H1142 C1130 0.960 . S
H1143 C1130 0.962 . S
H1144 C1130 0.960 . S
H1145 C1131 0.961 . S
H1146 C1131 0.961 . S
H1147 C1131 0.961 . S
H1148 C1132 0.931 . S
H1149 C1137 0.930 . S
H1150 C1138 0.956 . S
H1151 C1138 0.961 . S
H1152 C1138 0.961 . S
H1153 C1139 0.958 . S
H1154 C1139 0.961 . S
H1155 C1139 0.960 . S
C1156 C1157 1.391 . S
C1156 C1158 1.394 . S
C1156 H1172 0.931 . S
C1157 C1156 1.391 . S
C1157 C1161 1.376 . S
C1158 C1156 1.394 . S
C1158 C1159 1.369 . S
C1158 C1162 1.531 . S
C1159 C1158 1.369 . S
C1159 C1160 1.410 . S
C1159 C1167 1.503 . S
C1160 C1159 1.410 . S
C1160 C1161 1.392 . S
C1160 C1163 1.511 . S
C1161 C1157 1.376 . S
C1161 C1160 1.392 . S
C1161 H1173 0.929 . S
C1162 C1158 1.531 . S
C1162 H1174 0.960 . S
C1162 H1175 0.962 . S
C1162 H1176 0.960 . S
C1163 C1160 1.511 . S
C1163 H1177 0.961 . S
C1163 H1178 0.961 . S
C1163 H1179 0.961 . S
C1164 C1165 1.370 . S
C1164 C1166 1.363 . S
C1164 H1180 0.931 . S
C1165 C1164 1.370 . S
C1165 C1169 1.408 . S
C1166 C1164 1.363 . S
C1166 C1167 1.370 . S
C1166 C1170 1.524 . S
C1167 C1159 1.503 . S
C1167 C1166 1.370 . S
C1167 C1168 1.403 . S
C1168 C1167 1.403 . S
C1168 C1169 1.404 . S
C1168 C1171 1.539 . S
C1169 C1165 1.408 . S
C1169 C1168 1.404 . S
C1169 H1181 0.930 . S
C1170 C1166 1.524 . S
C1170 H1182 0.956 . S
C1170 H1183 0.961 . S
C1170 H1184 0.961 . S
C1171 C1168 1.539 . S
C1171 H1185 0.958 . S
C1171 H1186 0.961 . S
C1171 H1187 0.960 . S
H1172 C1156 0.931 . S
H1173 C1161 0.929 . S
H1174 C1162 0.960 . S
H1175 C1162 0.962 . S
H1176 C1162 0.960 . S
H1177 C1163 0.961 . S
H1178 C1163 0.961 . S
H1179 C1163 0.961 . S
H1180 C1164 0.931 . S
H1181 C1169 0.930 . S
H1182 C1170 0.956 . S
H1183 C1170 0.961 . S
H1184 C1170 0.961 . S
H1185 C1171 0.958 . S
H1186 C1171 0.961 . S
H1187 C1171 0.960 . S
C1188 C1189 1.391 . S
C1188 C1190 1.394 . S
C1188 H1204 0.931 . S
C1189 C1188 1.391 . S
C1189 C1193 1.376 . S
C1190 C1188 1.394 . S
C1190 C1191 1.369 . S
C1190 C1194 1.531 . S
C1191 C1190 1.369 . S
C1191 C1192 1.410 . S
C1191 C1199 1.503 . S
C1192 C1191 1.410 . S
C1192 C1193 1.392 . S
C1192 C1195 1.511 . S
C1193 C1189 1.376 . S
C1193 C1192 1.392 . S
C1193 H1205 0.929 . S
C1194 C1190 1.531 . S
C1194 H1206 0.960 . S
C1194 H1207 0.962 . S
C1194 H1208 0.960 . S
C1195 C1192 1.511 . S
C1195 H1209 0.961 . S
C1195 H1210 0.961 . S
C1195 H1211 0.961 . S
C1196 C1197 1.370 . S
C1196 C1198 1.363 . S
C1196 H1212 0.931 . S
C1197 C1196 1.370 . S
C1197 C1201 1.408 . S
C1198 C1196 1.363 . S
C1198 C1199 1.370 . S
C1198 C1202 1.524 . S
C1199 C1191 1.503 . S
C1199 C1198 1.370 . S
C1199 C1200 1.403 . S
C1200 C1199 1.403 . S
C1200 C1201 1.404 . S
C1200 C1203 1.539 . S
C1201 C1197 1.408 . S
C1201 C1200 1.404 . S
C1201 H1213 0.930 . S
C1202 C1198 1.524 . S
C1202 H1214 0.956 . S
C1202 H1215 0.961 . S
C1202 H1216 0.961 . S
C1203 C1200 1.539 . S
C1203 H1217 0.958 . S
C1203 H1218 0.961 . S
C1203 H1219 0.960 . S
H1204 C1188 0.931 . S
H1205 C1193 0.929 . S
H1206 C1194 0.960 . S
H1207 C1194 0.962 . S
H1208 C1194 0.960 . S
H1209 C1195 0.961 . S
H1210 C1195 0.961 . S
H1211 C1195 0.961 . S
H1212 C1196 0.931 . S
H1213 C1201 0.930 . S
H1214 C1202 0.956 . S
H1215 C1202 0.961 . S
H1216 C1202 0.961 . S
H1217 C1203 0.958 . S
H1218 C1203 0.961 . S
H1219 C1203 0.960 . S
C1220 C1221 1.391 . S
C1220 C1222 1.394 . S
C1220 H1236 0.931 . S
C1221 C1220 1.391 . S
C1221 C1225 1.376 . S
C1222 C1220 1.394 . S
C1222 C1223 1.369 . S
C1222 C1226 1.531 . S
C1223 C1222 1.369 . S
C1223 C1224 1.410 . S
C1223 C1231 1.503 . S
C1224 C1223 1.410 . S
C1224 C1225 1.392 . S
C1224 C1227 1.511 . S
C1225 C1221 1.376 . S
C1225 C1224 1.392 . S
C1225 H1237 0.929 . S
C1226 C1222 1.531 . S
C1226 H1238 0.960 . S
C1226 H1239 0.962 . S
C1226 H1240 0.960 . S
C1227 C1224 1.511 . S
C1227 H1241 0.961 . S
C1227 H1242 0.961 . S
C1227 H1243 0.961 . S
C1228 C1229 1.370 . S
C1228 C1230 1.363 . S
C1228 H1244 0.931 . S
C1229 C1228 1.370 . S
C1229 C1233 1.408 . S
C1230 C1228 1.363 . S
C1230 C1231 1.370 . S
C1230 C1234 1.524 . S
C1231 C1223 1.503 . S
C1231 C1230 1.370 . S
C1231 C1232 1.403 . S
C1232 C1231 1.403 . S
C1232 C1233 1.404 . S
C1232 C1235 1.539 . S
C1233 C1229 1.408 . S
C1233 C1232 1.404 . S
C1233 H1245 0.930 . S
C1234 C1230 1.524 . S
C1234 H1246 0.956 . S
C1234 H1247 0.961 . S
C1234 H1248 0.961 . S
C1235 C1232 1.539 . S
C1235 H1249 0.958 . S
C1235 H1250 0.961 . S
C1235 H1251 0.960 . S
H1236 C1220 0.931 . S
H1237 C1225 0.929 . S
H1238 C1226 0.960 . S
H1239 C1226 0.962 . S
H1240 C1226 0.960 . S
H1241 C1227 0.961 . S
H1242 C1227 0.961 . S
H1243 C1227 0.961 . S
H1244 C1228 0.931 . S
H1245 C1233 0.930 . S
H1246 C1234 0.956 . S
H1247 C1234 0.961 . S
H1248 C1234 0.961 . S
H1249 C1235 0.958 . S
H1250 C1235 0.961 . S
H1251 C1235 0.960 . S
C1252 C1253 1.391 . S
C1252 C1254 1.394 . S
C1252 H1268 0.931 . S
C1253 C1252 1.391 . S
C1253 C1257 1.376 . S
C1254 C1252 1.394 . S
C1254 C1255 1.369 . S
C1254 C1258 1.531 . S
C1255 C1254 1.369 . S
C1255 C1256 1.410 . S
C1255 C1263 1.503 . S
C1256 C1255 1.410 . S
C1256 C1257 1.392 . S
C1256 C1259 1.511 . S
C1257 C1253 1.376 . S
C1257 C1256 1.392 . S
C1257 H1269 0.929 . S
C1258 C1254 1.531 . S
C1258 H1270 0.960 . S
C1258 H1271 0.962 . S
C1258 H1272 0.960 . S
C1259 C1256 1.511 . S
C1259 H1273 0.961 . S
C1259 H1274 0.961 . S
C1259 H1275 0.961 . S
C1260 C1261 1.370 . S
C1260 C1262 1.363 . S
C1260 H1276 0.931 . S
C1261 C1260 1.370 . S
C1261 C1265 1.408 . S
C1262 C1260 1.363 . S
C1262 C1263 1.370 . S
C1262 C1266 1.524 . S
C1263 C1255 1.503 . S
C1263 C1262 1.370 . S
C1263 C1264 1.403 . S
C1264 C1263 1.403 . S
C1264 C1265 1.404 . S
C1264 C1267 1.539 . S
C1265 C1261 1.408 . S
C1265 C1264 1.404 . S
C1265 H1277 0.930 . S
C1266 C1262 1.524 . S
C1266 H1278 0.956 . S
C1266 H1279 0.961 . S
C1266 H1280 0.961 . S
C1267 C1264 1.539 . S
C1267 H1281 0.958 . S
C1267 H1282 0.961 . S
C1267 H1283 0.960 . S
H1268 C1252 0.931 . S
H1269 C1257 0.929 . S
H1270 C1258 0.960 . S
H1271 C1258 0.962 . S
H1272 C1258 0.960 . S
H1273 C1259 0.961 . S
H1274 C1259 0.961 . S
H1275 C1259 0.961 . S
H1276 C1260 0.931 . S
H1277 C1265 0.930 . S
H1278 C1266 0.956 . S
H1279 C1266 0.961 . S
H1280 C1266 0.961 . S
H1281 C1267 0.958 . S
H1282 C1267 0.961 . S
H1283 C1267 0.960 . S
C1284 C1285 1.391 . S
C1284 C1286 1.394 . S
C1284 H1300 0.931 . S
C1285 C1284 1.391 . S
C1285 C1289 1.376 . S
C1286 C1284 1.394 . S
C1286 C1287 1.369 . S
C1286 C1290 1.531 . S
C1287 C1286 1.369 . S
C1287 C1288 1.410 . S
C1287 C1295 1.503 . S
C1288 C1287 1.410 . S
C1288 C1289 1.392 . S
C1288 C1291 1.511 . S
C1289 C1285 1.376 . S
C1289 C1288 1.392 . S
C1289 H1301 0.929 . S
C1290 C1286 1.531 . S
C1290 H1302 0.960 . S
C1290 H1303 0.962 . S
C1290 H1304 0.960 . S
C1291 C1288 1.511 . S
C1291 H1305 0.961 . S
C1291 H1306 0.961 . S
C1291 H1307 0.961 . S
C1292 C1293 1.370 . S
C1292 C1294 1.363 . S
C1292 H1308 0.931 . S
C1293 C1292 1.370 . S
C1293 C1297 1.408 . S
C1294 C1292 1.363 . S
C1294 C1295 1.370 . S
C1294 C1298 1.524 . S
C1295 C1287 1.503 . S
C1295 C1294 1.370 . S
C1295 C1296 1.403 . S
C1296 C1295 1.403 . S
C1296 C1297 1.404 . S
C1296 C1299 1.539 . S
C1297 C1293 1.408 . S
C1297 C1296 1.404 . S
C1297 H1309 0.930 . S
C1298 C1294 1.524 . S
C1298 H1310 0.956 . S
C1298 H1311 0.961 . S
C1298 H1312 0.961 . S
C1299 C1296 1.539 . S
C1299 H1313 0.958 . S
C1299 H1314 0.961 . S
C1299 H1315 0.960 . S
H1300 C1284 0.931 . S
H1301 C1289 0.929 . S
H1302 C1290 0.960 . S
H1303 C1290 0.962 . S
H1304 C1290 0.960 . S
H1305 C1291 0.961 . S
H1306 C1291 0.961 . S
H1307 C1291 0.961 . S
H1308 C1292 0.931 . S
H1309 C1297 0.930 . S
H1310 C1298 0.956 . S
H1311 C1298 0.961 . S
H1312 C1298 0.961 . S
H1313 C1299 0.958 . S
H1314 C1299 0.961 . S
H1315 C1299 0.960 . S
C1316 C1317 1.391 . S
C1316 C1318 1.394 . S
C1316 H1332 0.931 . S
C1317 C1316 1.391 . S
C1317 C1321 1.376 . S
C1318 C1316 1.394 . S
C1318 C1319 1.369 . S
C1318 C1322 1.531 . S
C1319 C1318 1.369 . S
C1319 C1320 1.410 . S
C1319 C1327 1.503 . S
C1320 C1319 1.410 . S
C1320 C1321 1.392 . S
C1320 C1323 1.511 . S
C1321 C1317 1.376 . S
C1321 C1320 1.392 . S
C1321 H1333 0.929 . S
C1322 C1318 1.531 . S
C1322 H1334 0.960 . S
C1322 H1335 0.962 . S
C1322 H1336 0.960 . S
C1323 C1320 1.511 . S
C1323 H1337 0.961 . S
C1323 H1338 0.961 . S
C1323 H1339 0.961 . S
C1324 C1325 1.370 . S
C1324 C1326 1.363 . S
C1324 H1340 0.931 . S
C1325 C1324 1.370 . S
C1325 C1329 1.408 . S
C1326 C1324 1.363 . S
C1326 C1327 1.370 . S
C1326 C1330 1.524 . S
C1327 C1319 1.503 . S
C1327 C1326 1.370 . S
C1327 C1328 1.403 . S
C1328 C1327 1.403 . S
C1328 C1329 1.404 . S
C1328 C1331 1.539 . S
C1329 C1325 1.408 . S
C1329 C1328 1.404 . S
C1329 H1341 0.930 . S
C1330 C1326 1.524 . S
C1330 H1342 0.956 . S
C1330 H1343 0.961 . S
C1330 H1344 0.961 . S
C1331 C1328 1.539 . S
C1331 H1345 0.958 . S
C1331 H1346 0.961 . S
C1331 H1347 0.960 . S
H1332 C1316 0.931 . S
H1333 C1321 0.929 . S
H1334 C1322 0.960 . S
H1335 C1322 0.962 . S
H1336 C1322 0.960 . S
H1337 C1323 0.961 . S
H1338 C1323 0.961 . S
H1339 C1323 0.961 . S
H1340 C1324 0.931 . S
H1341 C1329 0.930 . S
H1342 C1330 0.956 . S
H1343 C1330 0.961 . S
H1344 C1330 0.961 . S
H1345 C1331 0.958 . S
H1346 C1331 0.961 . S
H1347 C1331 0.960 . S
C1348 C1349 1.391 . S
C1348 C1350 1.394 . S
C1348 H1364 0.931 . S
C1349 C1348 1.391 . S
C1349 C1353 1.376 . S
C1350 C1348 1.394 . S
C1350 C1351 1.369 . S
C1350 C1354 1.531 . S
C1351 C1350 1.369 . S
C1351 C1352 1.410 . S
C1351 C1359 1.503 . S
C1352 C1351 1.410 . S
C1352 C1353 1.392 . S
C1352 C1355 1.511 . S
C1353 C1349 1.376 . S
C1353 C1352 1.392 . S
C1353 H1365 0.929 . S
C1354 C1350 1.531 . S
C1354 H1366 0.960 . S
C1354 H1367 0.962 . S
C1354 H1368 0.960 . S
C1355 C1352 1.511 . S
C1355 H1369 0.961 . S
C1355 H1370 0.961 . S
C1355 H1371 0.961 . S
C1356 C1357 1.370 . S
C1356 C1358 1.363 . S
C1356 H1372 0.931 . S
C1357 C1356 1.370 . S
C1357 C1361 1.408 . S
C1358 C1356 1.363 . S
C1358 C1359 1.370 . S
C1358 C1362 1.524 . S
C1359 C1351 1.503 . S
C1359 C1358 1.370 . S
C1359 C1360 1.403 . S
C1360 C1359 1.403 . S
C1360 C1361 1.404 . S
C1360 C1363 1.539 . S
C1361 C1357 1.408 . S
C1361 C1360 1.404 . S
C1361 H1373 0.930 . S
C1362 C1358 1.524 . S
C1362 H1374 0.956 . S
C1362 H1375 0.961 . S
C1362 H1376 0.961 . S
C1363 C1360 1.539 . S
C1363 H1377 0.958 . S
C1363 H1378 0.961 . S
C1363 H1379 0.960 . S
H1364 C1348 0.931 . S
H1365 C1353 0.929 . S
H1366 C1354 0.960 . S
H1367 C1354 0.962 . S
H1368 C1354 0.960 . S
H1369 C1355 0.961 . S
H1370 C1355 0.961 . S
H1371 C1355 0.961 . S
H1372 C1356 0.931 . S
H1373 C1361 0.930 . S
H1374 C1362 0.956 . S
H1375 C1362 0.961 . S
H1376 C1362 0.961 . S
H1377 C1363 0.958 . S
H1378 C1363 0.961 . S
H1379 C1363 0.960 . S
C1380 C1381 1.391 . S
C1380 C1382 1.394 . S
C1380 H1396 0.931 . S
C1381 C1380 1.391 . S
C1381 C1385 1.376 . S
C1382 C1380 1.394 . S
C1382 C1383 1.369 . S
C1382 C1386 1.531 . S
C1383 C1382 1.369 . S
C1383 C1384 1.410 . S
C1383 C1391 1.503 . S
C1384 C1383 1.410 . S
C1384 C1385 1.392 . S
C1384 C1387 1.511 . S
C1385 C1381 1.376 . S
C1385 C1384 1.392 . S
C1385 H1397 0.929 . S
C1386 C1382 1.531 . S
C1386 H1398 0.960 . S
C1386 H1399 0.962 . S
C1386 H1400 0.960 . S
C1387 C1384 1.511 . S
C1387 H1401 0.961 . S
C1387 H1402 0.961 . S
C1387 H1403 0.961 . S
C1388 C1389 1.370 . S
C1388 C1390 1.363 . S
C1388 H1404 0.931 . S
C1389 C1388 1.370 . S
C1389 C1393 1.408 . S
C1390 C1388 1.363 . S
C1390 C1391 1.370 . S
C1390 C1394 1.524 . S
C1391 C1383 1.503 . S
C1391 C1390 1.370 . S
C1391 C1392 1.403 . S
C1392 C1391 1.403 . S
C1392 C1393 1.404 . S
C1392 C1395 1.539 . S
C1393 C1389 1.408 . S
C1393 C1392 1.404 . S
C1393 H1405 0.930 . S
C1394 C1390 1.524 . S
C1394 H1406 0.956 . S
C1394 H1407 0.961 . S
C1394 H1408 0.961 . S
C1395 C1392 1.539 . S
C1395 H1409 0.958 . S
C1395 H1410 0.961 . S
C1395 H1411 0.960 . S
H1396 C1380 0.931 . S
H1397 C1385 0.929 . S
H1398 C1386 0.960 . S
H1399 C1386 0.962 . S
H1400 C1386 0.960 . S
H1401 C1387 0.961 . S
H1402 C1387 0.961 . S
H1403 C1387 0.961 . S
H1404 C1388 0.931 . S
H1405 C1393 0.930 . S
H1406 C1394 0.956 . S
H1407 C1394 0.961 . S
H1408 C1394 0.961 . S
H1409 C1395 0.958 . S
H1410 C1395 0.961 . S
H1411 C1395 0.960 . S
C1412 C1413 1.391 . S
C1412 C1414 1.394 . S
C1412 H1428 0.931 . S
C1413 C1412 1.391 . S
C1413 C1417 1.376 . S
C1414 C1412 1.394 . S
C1414 C1415 1.369 . S
C1414 C1418 1.531 . S
C1415 C1414 1.369 . S
C1415 C1416 1.410 . S
C1415 C1423 1.503 . S
C1416 C1415 1.410 . S
C1416 C1417 1.392 . S
C1416 C1419 1.511 . S
C1417 C1413 1.376 . S
C1417 C1416 1.392 . S
C1417 H1429 0.929 . S
C1418 C1414 1.531 . S
C1418 H1430 0.960 . S
C1418 H1431 0.962 . S
C1418 H1432 0.960 . S
C1419 C1416 1.511 . S
C1419 H1433 0.961 . S
C1419 H1434 0.961 . S
C1419 H1435 0.961 . S
C1420 C1421 1.370 . S
C1420 C1422 1.363 . S
C1420 H1436 0.931 . S
C1421 C1420 1.370 . S
C1421 C1425 1.408 . S
C1422 C1420 1.363 . S
C1422 C1423 1.370 . S
C1422 C1426 1.524 . S
C1423 C1415 1.503 . S
C1423 C1422 1.370 . S
C1423 C1424 1.403 . S
C1424 C1423 1.403 . S
C1424 C1425 1.404 . S
C1424 C1427 1.539 . S
C1425 C1421 1.408 . S
C1425 C1424 1.404 . S
C1425 H1437 0.930 . S
C1426 C1422 1.524 . S
C1426 H1438 0.956 . S
C1426 H1439 0.961 . S
C1426 H1440 0.961 . S
C1427 C1424 1.539 . S
C1427 H1441 0.958 . S
C1427 H1442 0.961 . S
C1427 H1443 0.960 . S
H1428 C1412 0.931 . S
H1429 C1417 0.929 . S
H1430 C1418 0.960 . S
H1431 C1418 0.962 . S
H1432 C1418 0.960 . S
H1433 C1419 0.961 . S
H1434 C1419 0.961 . S
H1435 C1419 0.961 . S
H1436 C1420 0.931 . S
H1437 C1425 0.930 . S
H1438 C1426 0.956 . S
H1439 C1426 0.961 . S
H1440 C1426 0.961 . S
H1441 C1427 0.958 . S
H1442 C1427 0.961 . S
H1443 C1427 0.960 . S
C1444 C1445 1.391 . S
C1444 C1446 1.394 . S
C1444 H1460 0.931 . S
C1445 C1444 1.391 . S
C1445 C1449 1.376 . S
C1446 C1444 1.394 . S
C1446 C1447 1.369 . S
C1446 C1450 1.531 . S
C1447 C1446 1.369 . S
C1447 C1448 1.410 . S
C1447 C1455 1.503 . S
C1448 C1447 1.410 . S
C1448 C1449 1.392 . S
C1448 C1451 1.511 . S
C1449 C1445 1.376 . S
C1449 C1448 1.392 . S
C1449 H1461 0.929 . S
C1450 C1446 1.531 . S
C1450 H1462 0.960 . S
C1450 H1463 0.962 . S
C1450 H1464 0.960 . S
C1451 C1448 1.511 . S
C1451 H1465 0.961 . S
C1451 H1466 0.961 . S
C1451 H1467 0.961 . S
C1452 C1453 1.370 . S
C1452 C1454 1.363 . S
C1452 H1468 0.931 . S
C1453 C1452 1.370 . S
C1453 C1457 1.408 . S
C1454 C1452 1.363 . S
C1454 C1455 1.370 . S
C1454 C1458 1.524 . S
C1455 C1447 1.503 . S
C1455 C1454 1.370 . S
C1455 C1456 1.403 . S
C1456 C1455 1.403 . S
C1456 C1457 1.404 . S
C1456 C1459 1.539 . S
C1457 C1453 1.408 . S
C1457 C1456 1.404 . S
C1457 H1469 0.930 . S
C1458 C1454 1.524 . S
C1458 H1470 0.956 . S
C1458 H1471 0.961 . S
C1458 H1472 0.961 . S
C1459 C1456 1.539 . S
C1459 H1473 0.958 . S
C1459 H1474 0.961 . S
C1459 H1475 0.960 . S
H1460 C1444 0.931 . S
H1461 C1449 0.929 . S
H1462 C1450 0.960 . S
H1463 C1450 0.962 . S
H1464 C1450 0.960 . S
H1465 C1451 0.961 . S
H1466 C1451 0.961 . S
H1467 C1451 0.961 . S
H1468 C1452 0.931 . S
H1469 C1457 0.930 . S
H1470 C1458 0.956 . S
H1471 C1458 0.961 . S
H1472 C1458 0.961 . S
H1473 C1459 0.958 . S
H1474 C1459 0.961 . S
H1475 C1459 0.960 . S
C709 C5 1.586 . S
C717 C300 1.604 . S
C741 C111 1.593 . S
C749 C288 1.593 . S
C773 C298 1.588 . S
C781 C121 1.601 . S
C805 C229 1.608 . S
C813 C269 1.593 . S
C837 C418 1.597 . S
C845 C123 1.594 . S
C869 C387 1.583 . S
C877 C210 1.605 . S
C901 C3 1.581 . S
C909 C416 1.606 . S
C933 C406 1.613 . S
C941 C92 1.591 . S
C965 C583 1.580 . S
C973 C477 1.592 . S
C997 C475 1.602 . S
C1005 C701 1.578 . S
C1029 C564 1.574 . S
C1037 C593 1.597 . S
C1061 C595 1.604 . S
C1069 C682 1.576 . S
C1093 C654 1.602 . S
C1101 C359 1.592 . S
C1125 C524 1.586 . S
C1133 C465 1.602 . S
C1157 C357 1.601 . S
C1165 C534 1.596 . S
C1189 C446 1.577 . S
C1197 C642 1.606 . S
C1221 C241 1.587 . S
C1229 C536 1.598 . S
C1253 C328 1.577 . S
C1261 C623 1.608 . S
C1285 C652 1.582 . S
C1293 C239 1.604 . S
C1317 C505 1.575 . S
C1325 C347 1.606 . S
C1349 C64 1.589 . S
C1357 C170 1.583 . S
C1381 C52 1.568 . S
C1389 C62 1.599 . S
C1413 C151 1.561 . S
C1421 C180 1.599 . S
C1445 C33 1.599 . S
C1453 C182 1.586 . S
